# Generated by pormake.
# Topology wme, (6)-cn, num edge types: 1
# Building blocks:
#     Node 0, Type 0, BuildingBlock: FUNLAD_clean_sbu_0, # of connection points: 6
#     Node 1, Type 0, BuildingBlock: FUNLAD_clean_sbu_0, # of connection points: 6
#     Node 2, Type 0, BuildingBlock: FUNLAD_clean_sbu_0, # of connection points: 6
#     Node 3, Type 0, BuildingBlock: FUNLAD_clean_sbu_0, # of connection points: 6
#     Node 4, Type 0, BuildingBlock: FUNLAD_clean_sbu_0, # of connection points: 6
#     Node 5, Type 0, BuildingBlock: FUNLAD_clean_sbu_0, # of connection points: 6
#     Node 6, Type 0, BuildingBlock: FUNLAD_clean_sbu_0, # of connection points: 6
#     Node 7, Type 0, BuildingBlock: FUNLAD_clean_sbu_0, # of connection points: 6
#     Node 8, Type 0, BuildingBlock: FUNLAD_clean_sbu_0, # of connection points: 6
#     Node 9, Type 0, BuildingBlock: FUNLAD_clean_sbu_0, # of connection points: 6
#     Node 10, Type 0, BuildingBlock: FUNLAD_clean_sbu_0, # of connection points: 6
#     Node 11, Type 0, BuildingBlock: FUNLAD_clean_sbu_0, # of connection points: 6
#     Edge 12, Type (0, 0), BuildingBlock: TEMPAE_clean_linker_10, # of connection points: 2
#     Edge 13, Type (0, 0), BuildingBlock: TEMPAE_clean_linker_10, # of connection points: 2
#     Edge 14, Type (0, 0), BuildingBlock: TEMPAE_clean_linker_10, # of connection points: 2
#     Edge 15, Type (0, 0), BuildingBlock: TEMPAE_clean_linker_10, # of connection points: 2
#     Edge 16, Type (0, 0), BuildingBlock: TEMPAE_clean_linker_10, # of connection points: 2
#     Edge 17, Type (0, 0), BuildingBlock: TEMPAE_clean_linker_10, # of connection points: 2
#     Edge 18, Type (0, 0), BuildingBlock: TEMPAE_clean_linker_10, # of connection points: 2
#     Edge 19, Type (0, 0), BuildingBlock: TEMPAE_clean_linker_10, # of connection points: 2
#     Edge 20, Type (0, 0), BuildingBlock: TEMPAE_clean_linker_10, # of connection points: 2
#     Edge 21, Type (0, 0), BuildingBlock: TEMPAE_clean_linker_10, # of connection points: 2
#     Edge 22, Type (0, 0), BuildingBlock: TEMPAE_clean_linker_10, # of connection points: 2
#     Edge 23, Type (0, 0), BuildingBlock: TEMPAE_clean_linker_10, # of connection points: 2
#     Edge 24, Type (0, 0), BuildingBlock: TEMPAE_clean_linker_10, # of connection points: 2
#     Edge 25, Type (0, 0), BuildingBlock: TEMPAE_clean_linker_10, # of connection points: 2
#     Edge 26, Type (0, 0), BuildingBlock: TEMPAE_clean_linker_10, # of connection points: 2
#     Edge 27, Type (0, 0), BuildingBlock: TEMPAE_clean_linker_10, # of connection points: 2
#     Edge 28, Type (0, 0), BuildingBlock: TEMPAE_clean_linker_10, # of connection points: 2
#     Edge 29, Type (0, 0), BuildingBlock: TEMPAE_clean_linker_10, # of connection points: 2
#     Edge 30, Type (0, 0), BuildingBlock: TEMPAE_clean_linker_10, # of connection points: 2
#     Edge 31, Type (0, 0), BuildingBlock: TEMPAE_clean_linker_10, # of connection points: 2
#     Edge 32, Type (0, 0), BuildingBlock: TEMPAE_clean_linker_10, # of connection points: 2
#     Edge 33, Type (0, 0), BuildingBlock: TEMPAE_clean_linker_10, # of connection points: 2
#     Edge 34, Type (0, 0), BuildingBlock: TEMPAE_clean_linker_10, # of connection points: 2
#     Edge 35, Type (0, 0), BuildingBlock: TEMPAE_clean_linker_10, # of connection points: 2
#     Edge 36, Type (0, 0), BuildingBlock: TEMPAE_clean_linker_10, # of connection points: 2
#     Edge 37, Type (0, 0), BuildingBlock: TEMPAE_clean_linker_10, # of connection points: 2
#     Edge 38, Type (0, 0), BuildingBlock: TEMPAE_clean_linker_10, # of connection points: 2
#     Edge 39, Type (0, 0), BuildingBlock: TEMPAE_clean_linker_10, # of connection points: 2
#     Edge 40, Type (0, 0), BuildingBlock: TEMPAE_clean_linker_10, # of connection points: 2
#     Edge 41, Type (0, 0), BuildingBlock: TEMPAE_clean_linker_10, # of connection points: 2
#     Edge 42, Type (0, 0), BuildingBlock: TEMPAE_clean_linker_10, # of connection points: 2
#     Edge 43, Type (0, 0), BuildingBlock: TEMPAE_clean_linker_10, # of connection points: 2
#     Edge 44, Type (0, 0), BuildingBlock: TEMPAE_clean_linker_10, # of connection points: 2
#     Edge 45, Type (0, 0), BuildingBlock: TEMPAE_clean_linker_10, # of connection points: 2
#     Edge 46, Type (0, 0), BuildingBlock: TEMPAE_clean_linker_10, # of connection points: 2
#     Edge 47, Type (0, 0), BuildingBlock: TEMPAE_clean_linker_10, # of connection points: 2
# Relax obj value: 0.157
# Max RMSD: 0.205
# Mean RMSD: 0.205
data_MOF--net-wme--node1-FUNLAD_clean_sbu_0--edge1-TEMPAE_clean_linker_10
_symmetry_space_group_name_H-M    P1
_symmetry_Int_Tables_number       1
_symmetry_cell_setting            triclinic
loop_
_symmetry_equiv_pos_as_xyz
'x, y, z'
_cell_length_a     28.337001
_cell_length_b     28.339451
_cell_length_c     85.79204
_cell_angle_alpha  90.049165
_cell_angle_beta   90.033861
_cell_angle_gamma 119.98004
loop_
_atom_site_label
_atom_site_type_symbol
_atom_site_fract_x
_atom_site_fract_y
_atom_site_fract_z
_atom_type_partial_charge
C0 C 0.27079 0.24103 0.14517 0.0
N1 N 0.26835 0.32565 0.10519 0.0
C2 C 0.30911 0.31637 0.10069 0.0
C3 C 0.31868 0.31247 0.0849 0.0
C4 C 0.28693 0.31952 0.07363 0.0
C5 C 0.24644 0.33093 0.0785 0.0
C6 C 0.23736 0.33324 0.09444 0.0
Zn7 Zn 0.25143 0.32368 0.12859 0.0
C8 C 0.13817 0.24013 0.13566 0.0
N9 N 0.21479 0.31113 0.17724 0.0
C10 C 0.25002 0.3142 0.18852 0.0
C11 C 0.16559 0.30556 0.181 0.0
C12 C 0.15025 0.30307 0.19655 0.0
C13 C 0.18562 0.30602 0.20848 0.0
C14 C 0.23618 0.31168 0.20428 0.0
Zn15 Zn 0.23412 0.31491 0.15403 0.0
O16 O 0.26919 0.26 0.13189 0.0
C17 C 0.34576 0.40282 0.14685 0.0
O18 O 0.26205 0.26089 0.15735 0.0
H19 H 0.13808 0.30326 0.17191 0.0
H20 H 0.3337 0.31096 0.10935 0.0
H21 H 0.28888 0.31852 0.18529 0.0
O22 O 0.33229 0.38301 0.1332 0.0
O23 O 0.31194 0.38183 0.15798 0.0
H24 H 0.20483 0.34004 0.09821 0.0
O25 O 0.20381 0.36721 0.15032 0.0
O26 O 0.23061 0.3854 0.12593 0.0
O27 O 0.15625 0.24941 0.14951 0.0
O28 O 0.16931 0.26609 0.12438 0.0
C29 C 0.20688 0.39156 0.13766 0.0
H30 H 0.35047 0.3039 0.0815 0.0
H31 H 0.22102 0.33628 0.07007 0.0
H32 H 0.11129 0.29965 0.19919 0.0
H33 H 0.26453 0.31356 0.21306 0.0
C34 C 0.00756 0.26862 0.64435 0.0
N35 N 0.92192 0.25711 0.60381 0.0
C36 C 0.96488 0.3049 0.59885 0.0
C37 C 0.97826 0.31348 0.58307 0.0
C38 C 0.94786 0.27217 0.57217 0.0
C39 C 0.90338 0.2233 0.57761 0.0
C40 C 0.89093 0.21671 0.59353 0.0
Zn41 Zn 0.90778 0.24709 0.62738 0.0
C42 C 0.86784 0.1375 0.63836 0.0
N43 N 0.8831 0.23326 0.67662 0.0
C44 C 0.92149 0.26562 0.68723 0.0
C45 C 0.83526 0.1895 0.68122 0.0
C46 C 0.82518 0.17585 0.69694 0.0
C47 C 0.86458 0.20746 0.70813 0.0
C48 C 0.91292 0.2535 0.70315 0.0
Zn49 Zn 0.89726 0.24473 0.65311 0.0
O50 O -0.01056 0.26991 0.63092 0.0
C51 C 0.92938 0.35265 0.64236 0.0
O52 O 0.97712 0.25896 0.65618 0.0
H53 H 0.80518 0.16416 0.67266 0.0
H54 H -0.01064 0.33644 0.60717 0.0
H55 H 0.95933 0.30006 0.68332 0.0
O56 O 0.92559 0.32897 0.62944 0.0
O57 O 0.92323 0.32713 0.65504 0.0
H58 H 0.85701 0.17895 0.5977 0.0
O59 O 0.81734 0.22874 0.64952 0.0
O60 O 0.82479 0.22126 0.62422 0.0
O61 O 0.86861 0.16178 0.65083 0.0
O62 O 0.88714 0.16441 0.62588 0.0
C63 C 0.79607 0.21729 0.63604 0.0
H64 H 0.01216 0.35228 0.57948 0.0
H65 H 0.87907 0.18997 0.56973 0.0
H66 H 0.78697 0.14057 0.70029 0.0
H67 H 0.94443 0.27881 0.71141 0.0
C68 C 0.7409 0.01537 0.13999 0.0
N69 N 0.65077 0.91302 0.10349 0.0
C70 C 0.66001 0.96226 0.09829 0.0
C71 C 0.66229 0.97307 0.08242 0.0
C72 C 0.65292 0.93229 0.07151 0.0
C73 C 0.64177 0.88104 0.07719 0.0
C74 C 0.64143 0.87243 0.0933 0.0
Zn75 Zn 0.65385 0.90559 0.12726 0.0
C76 C 0.73412 0.87703 0.13729 0.0
N77 N 0.66848 0.90648 0.1768 0.0
C78 C 0.66795 0.94268 0.18714 0.0
C79 C 0.67218 0.86285 0.1818 0.0
C80 C 0.67566 0.85427 0.19763 0.0
C81 C 0.67555 0.89091 0.2086 0.0
C82 C 0.67137 0.93558 0.2032 0.0
Zn83 Zn 0.66347 0.91328 0.15305 0.0
O84 O 0.71905 0.98548 0.12814 0.0
C85 C 0.57863 0.93615 0.14264 0.0
O86 O 0.72272 -0.0034 0.15348 0.0
H87 H 0.67228 0.83421 0.17349 0.0
H88 H 0.66647 -0.00606 0.10648 0.0
H89 H 0.66497 0.97708 0.18293 0.0
O90 O 0.59789 0.93176 0.12973 0.0
O91 O 0.59895 0.93072 0.1553 0.0
H92 H 0.63389 0.83344 0.09764 0.0
O93 O 0.60638 0.82985 0.15215 0.0
O94 O 0.59002 0.8244 0.12696 0.0
O95 O 0.72578 0.89373 0.15016 0.0
O96 O 0.70856 0.87685 0.12513 0.0
C97 C 0.58182 0.80179 0.14023 0.0
H98 H 0.67243 0.01367 0.07885 0.0
H99 H 0.63326 0.84778 0.06935 0.0
H100 H 0.67769 0.8187 0.20122 0.0
H101 H 0.67141 0.965 0.21126 0.0
C102 C 0.70352 0.74073 0.64393 0.0
N103 N 0.71039 0.6581 0.60416 0.0
C104 C 0.66154 0.65209 0.59975 0.0
C105 C 0.64973 0.65357 0.58401 0.0
C106 C 0.68889 0.66232 0.57259 0.0
C107 C 0.7387 0.66755 0.5775 0.0
C108 C 0.74847 0.66494 0.59336 0.0
Zn109 Zn 0.72776 0.66135 0.62753 0.0
C110 C 0.8398 0.74853 0.63473 0.0
N111 N 0.7649 0.67557 0.67618 0.0
C112 C 0.72876 0.67095 0.68734 0.0
C113 C 0.81454 0.68246 0.68008 0.0
C114 C 0.82928 0.68441 0.69568 0.0
C115 C 0.79282 0.67955 0.70749 0.0
C116 C 0.74196 0.67292 0.70314 0.0
Zn117 Zn 0.74561 0.67093 0.65296 0.0
O118 O 0.70521 0.72161 0.63066 0.0
C119 C 0.63572 0.57958 0.64589 0.0
O120 O 0.71448 0.72253 0.65609 0.0
H121 H 0.84277 0.68599 0.67106 0.0
H122 H 0.63185 0.64697 0.60849 0.0
H123 H 0.68955 0.66556 0.684 0.0
O124 O 0.64823 0.59882 0.63219 0.0
O125 O 0.6694 0.60226 0.65697 0.0
H126 H 0.78707 0.66962 0.59706 0.0
O127 O 0.77887 0.62095 0.64933 0.0
O128 O 0.75296 0.60284 0.62484 0.0
O129 O 0.82204 0.73814 0.64858 0.0
O130 O 0.80883 0.72226 0.62344 0.0
C131 C 0.77702 0.59732 0.63661 0.0
H132 H 0.61033 0.64817 0.58087 0.0
H133 H 0.77057 0.67512 0.56924 0.0
H134 H 0.86855 0.68873 0.69843 0.0
H135 H 0.71281 0.66967 0.71183 0.0
C136 C 0.96679 0.71128 0.14254 0.0
N137 N 0.05876 0.72526 0.10334 0.0
C138 C 0.01635 0.6776 0.09802 0.0
C139 C 0.00507 0.66934 0.08211 0.0
C140 C 0.03715 0.71082 0.07155 0.0
C141 C 0.08063 0.75972 0.07729 0.0
C142 C 0.09104 0.76599 0.09333 0.0
Zn143 Zn 0.06996 0.73432 0.12701 0.0
C144 C 0.10672 0.8431 0.13841 0.0
N145 N 0.08684 0.74536 0.17652 0.0
C146 C 0.0476 0.71251 0.18683 0.0
C147 C 0.13497 0.7879 0.18153 0.0
C148 C 0.14513 0.79895 0.19738 0.0
C149 C 0.10535 0.76616 0.2083 0.0
C150 C 0.05599 0.72236 0.20287 0.0
Zn151 Zn 0.0753 0.73528 0.15289 0.0
O152 O -0.01178 0.71161 0.12953 0.0
C153 C 0.0458 0.6281 0.14184 0.0
O154 O -0.00564 0.7198 0.15498 0.0
H155 H 0.16549 0.81408 0.17321 0.0
H156 H -0.00944 0.64602 0.10614 0.0
H157 H 0.00959 0.679 0.1826 0.0
O158 O 0.05168 0.65254 0.12896 0.0
O159 O 0.04991 0.65287 0.15455 0.0
H160 H 0.12453 0.80356 0.09779 0.0
O161 O 0.15627 0.75248 0.15022 0.0
O162 O 0.15308 0.75985 0.12478 0.0
O163 O 0.10323 0.81811 0.15096 0.0
O164 O 0.09083 0.817 0.12566 0.0
C165 C 0.17978 0.7638 0.13706 0.0
H166 H 0.97076 0.63134 0.07814 0.0
H167 H 0.1064 0.79255 0.06946 0.0
H168 H 0.18335 0.83367 0.20103 0.0
H169 H 0.02438 0.69593 0.21093 0.0
C170 C 0.23606 0.96655 0.64113 0.0
N171 N 0.31999 0.0676 0.60386 0.0
C172 C 0.31093 0.01866 0.59841 0.0
C173 C 0.30815 0.00842 0.58248 0.0
C174 C 0.31686 0.04951 0.57178 0.0
C175 C 0.32744 0.1003 0.57772 0.0
C176 C 0.3283 0.10832 0.59387 0.0
Zn177 Zn 0.31996 0.07537 0.62769 0.0
C178 C 0.24284 0.10531 0.63936 0.0
N179 N 0.31582 0.07712 0.67757 0.0
C180 C 0.31428 0.0395 0.68774 0.0
C181 C 0.31666 0.12291 0.68283 0.0
C182 C 0.31682 0.1328 0.69872 0.0
C183 C 0.31564 0.09513 0.7095 0.0
C184 C 0.31387 0.04761 0.70387 0.0
Zn185 Zn 0.31667 0.06943 0.6537 0.0
O186 O 0.25696 -0.00468 0.62908 0.0
C187 C 0.39803 0.04489 0.64163 0.0
O188 O 0.25496 0.98666 0.65448 0.0
H189 H 0.31712 0.15216 0.67467 0.0
H190 H 0.3054 0.98692 0.60642 0.0
H191 H 0.31347 0.0033 0.68335 0.0
O192 O 0.37771 0.05127 0.62918 0.0
O193 O 0.37912 0.04873 0.65473 0.0
H194 H 0.33574 0.14707 0.59841 0.0
O195 O 0.37607 0.15195 0.65244 0.0
O196 O 0.38237 0.15705 0.62688 0.0
O197 O 0.25678 0.09256 0.65202 0.0
O198 O 0.26277 0.10148 0.6265 0.0
C199 C 0.39623 0.17972 0.64016 0.0
H200 H 0.29845 0.96813 0.5787 0.0
H201 H 0.33537 0.13373 0.57004 0.0
H202 H 0.31718 0.16943 0.70253 0.0
H203 H 0.313 0.01758 0.71184 0.0
C204 C 0.72858 0.71755 0.39046 0.0
N205 N 0.63282 0.72561 0.42632 0.0
C206 C 0.62844 0.67839 0.43171 0.0
C207 C 0.62858 0.66935 0.4477 0.0
C208 C 0.63422 0.70965 0.45827 0.0
C209 C 0.63748 0.75748 0.45245 0.0
C210 C 0.63626 0.76449 0.43634 0.0
Zn211 Zn 0.64131 0.73998 0.40271 0.0
C212 C 0.72786 0.85219 0.39568 0.0
N213 N 0.6691 0.771 0.35389 0.0
C214 C 0.66644 0.73451 0.3431 0.0
C215 C 0.67635 0.82035 0.34949 0.0
C216 C 0.68057 0.83442 0.33379 0.0
C217 C 0.67745 0.79756 0.32235 0.0
C218 C 0.67052 0.74702 0.32718 0.0
Zn219 Zn 0.65884 0.75357 0.37733 0.0
O220 O 0.70446 0.7211 0.40252 0.0
C221 C 0.56762 0.64297 0.38422 0.0
O222 O 0.71417 0.72507 0.37708 0.0
H223 H 0.67792 0.84878 0.35817 0.0
H224 H 0.62655 0.6483 0.42359 0.0
H225 H 0.66056 0.69548 0.34682 0.0
O226 O 0.58277 0.65886 0.39811 0.0
O227 O 0.59252 0.67481 0.37292 0.0
H228 H 0.6396 0.80168 0.43186 0.0
O229 O 0.60536 0.78416 0.37817 0.0
O230 O 0.57999 0.76149 0.40252 0.0
O231 O 0.7232 0.83234 0.38214 0.0
O232 O 0.69825 0.82238 0.4067 0.0
C233 C 0.57741 0.78318 0.38983 0.0
H234 H 0.62651 0.63216 0.45175 0.0
H235 H 0.64151 0.78932 0.46027 0.0
H236 H 0.68488 0.8734 0.33065 0.0
H237 H 0.66837 0.71752 0.31876 0.0
C238 C 0.01371 0.73066 0.8895 0.0
N239 N 0.91079 0.63927 0.92567 0.0
C240 C 0.95376 0.63494 0.93096 0.0
C241 C 0.96539 0.63849 0.94684 0.0
C242 C 0.93328 0.64777 0.95751 0.0
C243 C 0.88797 0.65018 0.95179 0.0
C244 C 0.87728 0.64555 0.93576 0.0
Zn245 Zn 0.90393 0.64496 0.90202 0.0
C246 C 0.87851 0.73066 0.89385 0.0
N247 N 0.90134 0.66786 0.85292 0.0
C248 C 0.93692 0.66646 0.84254 0.0
C249 C 0.85885 0.67372 0.84802 0.0
C250 C 0.85053 0.678 0.8322 0.0
C251 C 0.88634 0.67654 0.82117 0.0
C252 C 0.93014 0.67075 0.82652 0.0
Zn253 Zn 0.9079 0.65957 0.87646 0.0
O254 O 0.98586 0.7074 0.90158 0.0
C255 C 0.92718 0.56926 0.88452 0.0
O256 O -0.00813 0.71546 0.87613 0.0
H257 H 0.83078 0.67455 0.8564 0.0
H258 H 0.98038 0.63058 0.92279 0.0
H259 H 0.97042 0.66178 0.84667 0.0
O260 O 0.92582 0.58569 0.89818 0.0
O261 O 0.92084 0.59316 0.87284 0.0
H262 H 0.84341 0.64907 0.93136 0.0
O263 O 0.82353 0.60558 0.87739 0.0
O264 O 0.82109 0.58406 0.90213 0.0
O265 O 0.89295 0.72394 0.88043 0.0
O266 O 0.87914 0.70266 0.90527 0.0
C267 C 0.7967 0.57936 0.88929 0.0
H268 H -4e-05 0.63506 0.95067 0.0
H269 H 0.86223 0.65773 0.9595 0.0
H270 H 0.81565 0.68137 0.82866 0.0
H271 H 0.95903 0.66989 0.81844 0.0
C272 C 0.25848 0.02331 0.38707 0.0
N273 N 0.25412 0.9288 0.42509 0.0
C274 C 0.29374 0.979 0.42981 0.0
C275 C 0.30278 -0.00815 0.44561 0.0
C276 C 0.27216 0.9522 0.45687 0.0
C277 C 0.23299 0.89985 0.45163 0.0
C278 C 0.22414 0.88921 0.43564 0.0
Zn279 Zn 0.2389 0.91696 0.4016 0.0
C280 C 0.12596 0.88707 0.39407 0.0
N281 N 0.20825 0.90393 0.3528 0.0
C282 C 0.24525 0.93556 0.34183 0.0
C283 C 0.15949 0.86038 0.34865 0.0
C284 C 0.14691 0.84627 0.33303 0.0
C285 C 0.1848 0.87715 0.32146 0.0
C286 C 0.23422 0.92291 0.32599 0.0
Zn287 Zn 0.22543 0.91649 0.37614 0.0
O288 O 0.25423 -0.00242 0.39959 0.0
C289 C 0.337 0.94044 0.38387 0.0
O290 O 0.25225 -0.00052 0.37407 0.0
H291 H 0.13054 0.8356 0.35751 0.0
H292 H 0.31778 0.00986 0.42131 0.0
H293 H 0.28384 0.96985 0.34538 0.0
O294 O 0.32069 0.942 0.39754 0.0
O295 O 0.30488 0.92997 0.37238 0.0
H296 H 0.19284 0.84952 0.43167 0.0
O297 O 0.19648 0.83322 0.37858 0.0
O298 O 0.22068 0.83519 0.40302 0.0
O299 O 0.14589 0.90119 0.3805 0.0
O300 O 0.15595 0.88916 0.40534 0.0
C301 C 0.19858 0.8086 0.39065 0.0
H302 H 0.33266 0.0331 0.44883 0.0
H303 H 0.20909 0.8673 0.45974 0.0
H304 H 0.10799 0.8112 0.33004 0.0
H305 H 0.26469 0.94761 0.31742 0.0
C306 C 0.23639 0.26016 0.88981 0.0
N307 N 0.33002 0.25447 0.92695 0.0
C308 C 0.32169 0.29506 0.93225 0.0
C309 C 0.31982 0.30344 0.94821 0.0
C310 C 0.32789 0.27066 0.95884 0.0
C311 C 0.33855 0.23048 0.95317 0.0
C312 C 0.33889 0.22263 0.93706 0.0
Zn313 Zn 0.32415 0.23988 0.90333 0.0
C314 C 0.23995 0.12727 0.89588 0.0
N315 N 0.30188 0.20919 0.85438 0.0
C316 C 0.30543 0.24536 0.84336 0.0
C317 C 0.29665 0.16038 0.85025 0.0
C318 C 0.29641 0.14695 0.83462 0.0
C319 C 0.30138 0.18388 0.82298 0.0
C320 C 0.305 0.23332 0.82748 0.0
Zn321 Zn 0.30898 0.22677 0.87784 0.0
O322 O 0.25904 0.25608 0.90213 0.0
C323 C 0.39798 0.33794 0.88533 0.0
O324 O 0.25288 0.25396 0.87661 0.0
H325 H 0.29378 0.13198 0.85911 0.0
H326 H 0.31535 0.32039 0.92408 0.0
H327 H 0.30978 0.284 0.84687 0.0
O328 O 0.38135 0.32172 0.8991 0.0
O329 O 0.37483 0.30601 0.87387 0.0
H330 H 0.34509 0.19038 0.93264 0.0
O331 O 0.36318 0.19753 0.87953 0.0
O332 O 0.38725 0.22073 0.90393 0.0
O333 O 0.24502 0.14751 0.88239 0.0
O334 O 0.26871 0.15692 0.9071 0.0
C335 C 0.39067 0.19896 0.89135 0.0
H336 H 0.31185 0.33505 0.95223 0.0
H337 H 0.34475 0.20436 0.9611 0.0
H338 H 0.29269 0.10806 0.83166 0.0
H339 H 0.30914 0.26302 0.81885 0.0
C340 C 0.95282 0.24904 0.39005 0.0
N341 N 0.06046 0.33983 0.4256 0.0
C342 C 0.01816 0.34334 0.43186 0.0
C343 C 0.01038 0.34072 0.44796 0.0
C344 C 0.04586 0.33346 0.45775 0.0
C345 C 0.08977 0.33091 0.45107 0.0
C346 C 0.09661 0.33462 0.43488 0.0
Zn347 Zn 0.06328 0.33515 0.40174 0.0
C348 C 0.09037 0.25189 0.39174 0.0
N349 N 0.05932 0.31613 0.35225 0.0
C350 C 0.03791 0.26629 0.34537 0.0
C351 C 0.08755 0.36265 0.34379 0.0
C352 C 0.09665 0.36016 0.3279 0.0
C353 C 0.07684 0.30931 0.32061 0.0
C354 C 0.04633 0.26193 0.3295 0.0
Zn355 Zn 0.0567 0.3223 0.37602 0.0
O356 O 0.98171 0.27214 0.40201 0.0
C357 C 0.0356 0.41023 0.38593 0.0
O358 O 0.97321 0.26488 0.37657 0.0
H359 H 0.1048 0.40187 0.34949 0.0
H360 H -0.01078 0.34643 0.42434 0.0
H361 H 0.01569 0.2298 0.3523 0.0
O362 O 0.03985 0.39379 0.39932 0.0
O363 O 0.04051 0.38707 0.37384 0.0
H364 H 0.12992 0.33182 0.42971 0.0
O365 O 0.14073 0.37752 0.37603 0.0
O366 O 0.14582 0.39681 0.40104 0.0
O367 O 0.07515 0.25975 0.37858 0.0
O368 O 0.08937 0.27802 0.40362 0.0
C369 C 0.16873 0.40309 0.38787 0.0
H370 H 0.97566 0.34219 0.45265 0.0
H371 H 0.11815 0.3256 0.45829 0.0
H372 H 0.12088 0.3977 0.32153 0.0
H373 H 0.02981 0.22191 0.3243 0.0
C374 C 0.70645 0.95543 0.88755 0.0
N375 N 0.71474 0.05379 0.92491 0.0
C376 C 0.67484 0.00414 0.92986 0.0
C377 C 0.66659 -0.00792 0.94569 0.0
C378 C 0.69825 0.03201 0.9568 0.0
C379 C 0.73797 0.08379 0.95135 0.0
C380 C 0.74597 0.09364 0.93529 0.0
Zn381 Zn 0.72669 0.06318 0.90124 0.0
C382 C 0.83881 0.09372 0.89229 0.0
N383 N 0.74819 0.06934 0.85203 0.0
C384 C 0.77617 0.04884 0.84443 0.0
C385 C 0.73076 0.09995 0.84442 0.0
C386 C 0.74233 0.11208 0.82865 0.0
C387 C 0.77212 0.09251 0.82054 0.0
C388 C 0.78861 0.05996 0.8286 0.0
Zn389 Zn 0.73629 0.06042 0.87562 0.0
O390 O 0.71172 0.98274 0.89981 0.0
C391 C 0.62547 0.03588 0.8847 0.0
O392 O 0.71086 0.97732 0.87433 0.0
H393 H 0.70904 0.11634 0.85068 0.0
H394 H 0.64975 0.97305 0.92151 0.0
H395 H 0.78981 0.02476 0.85071 0.0
O396 O 0.64428 0.03725 0.89822 0.0
O397 O 0.65555 0.04422 0.87286 0.0
H398 H 0.77741 0.13293 0.93114 0.0
O399 O 0.76441 0.14391 0.87731 0.0
O400 O 0.74462 0.14493 0.90206 0.0
O401 O 0.81719 0.07875 0.8789 0.0
O402 O 0.8102 0.09172 0.90392 0.0
C403 C 0.76411 0.16996 0.8893 0.0
H404 H 0.63633 0.95117 0.94905 0.0
H405 H 0.7628 0.11649 0.95934 0.0
H406 H 0.72949 0.13798 0.82301 0.0
H407 H 0.81112 0.0435 0.82276 0.0
C408 C 0.18685 0.92788 0.14717 0.0
C409 C 0.13829 0.90254 0.13857 0.0
C410 C 0.21869 0.98451 0.14779 0.0
C411 C 0.19988 0.01629 0.14029 0.0
C412 C 0.15093 0.99087 0.13146 0.0
C413 C 0.12118 0.93387 0.1304 0.0
C414 C 0.27176 0.01027 0.15674 0.0
C415 C 0.12873 0.0237 0.12378 0.0
C416 C 0.23484 0.15163 0.15783 0.0
C417 C 0.26691 0.1875 0.14603 0.0
C418 C 0.2141 0.09565 0.15632 0.0
C419 C 0.22807 0.07561 0.14305 0.0
C420 C 0.26554 0.11216 0.13201 0.0
C421 C 0.28379 0.16794 0.13347 0.0
C422 C 0.17335 0.05781 0.1682 0.0
C423 C 0.28344 0.09216 0.11816 0.0
H424 H 0.20018 0.90323 0.15336 0.0
H425 H 0.08355 0.91381 0.12378 0.0
H426 H 0.3055 0.03911 0.1491 0.0
H427 H 0.2698 0.03405 0.16673 0.0
H428 H 0.28169 0.97952 0.16125 0.0
H429 H 0.09059 -0.00232 0.11718 0.0
H430 H 0.12023 0.04663 0.13279 0.0
H431 H 0.15933 0.05399 0.11569 0.0
H432 H 0.2214 0.16656 0.16753 0.0
H433 H 0.3088 0.19578 0.12437 0.0
H434 H 0.1858 0.02915 0.17283 0.0
H435 H 0.13302 0.03305 0.16253 0.0
H436 H 0.1686 0.08021 0.17815 0.0
H437 H 0.29282 0.06008 0.12172 0.0
H438 H 0.3199 0.12575 0.11242 0.0
H439 H 0.24998 0.07391 0.10948 0.0
C440 C 0.15901 0.11147 0.63623 0.0
C441 C 0.21401 0.13572 0.64014 0.0
C442 C 0.13157 0.14094 0.63767 0.0
C443 C 0.1605 0.19582 0.6429 0.0
C444 C 0.2165 0.22049 0.64658 0.0
C445 C 0.24249 0.18976 0.64528 0.0
C446 C 0.07162 0.11327 0.63375 0.0
C447 C 0.24878 0.27893 0.65201 0.0
C448 C 0.08945 0.27357 0.63217 0.0
C449 C 0.0579 0.26567 0.64554 0.0
C450 C 0.12631 0.25438 0.63151 0.0
C451 C 0.13165 0.22695 0.64455 0.0
C452 C 0.10443 0.22421 0.65863 0.0
C453 C 0.06792 0.24394 0.65899 0.0
C454 C 0.15576 0.25918 0.61641 0.0
C455 C 0.10985 0.19593 0.67285 0.0
H456 H 0.13746 0.06943 0.63232 0.0
H457 H 0.28526 0.20798 0.64825 0.0
H458 H 0.04825 0.11382 0.64405 0.0
H459 H 0.06469 0.13575 0.62427 0.0
H460 H 0.05517 0.07032 0.62999 0.0
H461 H 0.29307 0.29339 0.65285 0.0
H462 H 0.2428 0.30607 0.64394 0.0
H463 H 0.23409 0.28291 0.66365 0.0
H464 H 0.08245 0.29109 0.6218 0.0
H465 H 0.04399 0.2381 0.66941 0.0
H466 H 0.1373 0.21865 0.61069 0.0
H467 H 0.19927 0.27269 0.61863 0.0
H468 H 0.15333 0.28821 0.6082 0.0
H469 H 0.08846 0.15133 0.67074 0.0
H470 H 0.09205 0.20378 0.6834 0.0
H471 H 0.15324 0.20931 0.6752 0.0
C472 C 0.81877 0.07642 0.12323 0.0
C473 C 0.79385 0.06552 0.13795 0.0
C474 C 0.87481 0.11117 0.12165 0.0
C475 C 0.90605 0.13751 0.13502 0.0
C476 C 0.88002 0.1327 0.14949 0.0
C477 C 0.824 0.0959 0.15087 0.0
C478 C 0.90108 0.11434 0.10606 0.0
C479 C 0.91198 0.16272 0.1638 0.0
C480 C 0.04783 0.15712 0.13821 0.0
C481 C 0.07944 0.21107 0.13339 0.0
C482 C -0.00907 0.13214 0.1383 0.0
C483 C 0.96596 0.16318 0.1343 0.0
C484 C -0.00189 0.21793 0.12949 0.0
C485 C 0.05467 0.24086 0.12873 0.0
C486 C 0.95768 0.07289 0.1429 0.0
C487 C 0.97309 0.25282 0.12579 0.0
H488 H 0.79557 0.05383 0.1131 0.0
H489 H 0.80479 0.08836 0.16222 0.0
H490 H 0.93202 0.15689 0.10319 0.0
H491 H 0.9223 0.09039 0.10661 0.0
H492 H 0.8707 0.09775 0.09646 0.0
H493 H 0.88506 0.16331 0.17312 0.0
H494 H 0.93377 0.14235 0.16846 0.0
H495 H 0.943 0.20529 0.16088 0.0
H496 H 0.06766 0.13481 0.142 0.0
H497 H 0.07987 0.2831 0.12531 0.0
H498 H 0.92627 0.04976 0.13391 0.0
H499 H 0.93612 0.06921 0.15401 0.0
H500 H 0.98326 0.05365 0.14442 0.0
H501 H 0.94263 0.23412 0.11631 0.0
H502 H 0.00408 0.29476 0.12224 0.0
H503 H 0.95121 0.25543 0.13619 0.0
C504 C 0.73212 0.82821 0.65723 0.0
C505 C 0.70468 0.79313 0.64474 0.0
C506 C 0.7523 0.88418 0.65592 0.0
C507 C 0.74247 0.90492 0.64207 0.0
C508 C 0.70869 0.86891 0.63029 0.0
C509 C 0.69078 0.81319 0.63165 0.0
C510 C 0.78872 0.92141 0.66869 0.0
C511 C 0.69506 0.88957 0.61573 0.0
C512 C 0.78407 0.05315 0.64529 0.0
C513 C 0.8353 0.0781 0.6381 0.0
C514 C 0.75162 -0.00347 0.64575 0.0
C515 C 0.77211 0.96436 0.63943 0.0
C516 C 0.82366 0.98942 0.63193 0.0
C517 C 0.85434 0.04643 0.63106 0.0
C518 C 0.69603 0.97122 0.65325 0.0
C519 C 0.84747 0.95616 0.62552 0.0
H520 H 0.74286 0.81295 0.66742 0.0
H521 H 0.66903 0.786 0.62205 0.0
H522 H 0.83097 0.94586 0.66422 0.0
H523 H 0.77527 0.95035 0.67235 0.0
H524 H 0.78937 0.89849 0.67911 0.0
H525 H 0.66025 0.85628 0.60932 0.0
H526 H 0.685 0.92172 0.61862 0.0
H527 H 0.73091 0.90788 0.60788 0.0
H528 H 0.76929 0.07812 0.65056 0.0
H529 H 0.89402 0.0662 0.62551 0.0
H530 H 0.6939 0.94579 0.66334 0.0
H531 H 0.66448 0.94398 0.64478 0.0
H532 H 0.68593 0.00231 0.65736 0.0
H533 H 0.85261 0.93274 0.63509 0.0
H534 H 0.88766 0.98193 0.61988 0.0
H535 H 0.81931 0.92629 0.61686 0.0
C536 C 0.89314 0.71617 0.1283 0.0
C537 C 0.91586 0.71351 0.14259 0.0
C538 C 0.85684 0.73595 0.12751 0.0
C539 C 0.84166 0.7517 0.14141 0.0
C540 C 0.85898 0.74259 0.15601 0.0
C541 C 0.89644 0.72395 0.15644 0.0
C542 C 0.83931 0.74514 0.1117 0.0
C543 C 0.84166 0.75686 0.1711 0.0
C544 C 0.81904 0.87232 0.13866 0.0
C545 C 0.76246 0.8461 0.13748 0.0
C546 C 0.8454 0.84178 0.13988 0.0
C547 C 0.81387 0.78404 0.14045 0.0
C548 C 0.75643 0.75768 0.13952 0.0
C549 C 0.73142 0.78922 0.13783 0.0
C550 C 0.9069 0.87123 0.14048 0.0
C551 C 0.72144 0.69648 0.14062 0.0
H552 H 0.90727 0.70735 0.11754 0.0
H553 H 0.91323 0.72124 0.16754 0.0
H554 H 0.7948 0.72949 0.11144 0.0
H555 H 0.85993 0.78954 0.10932 0.0
H556 H 0.8497 0.72526 0.1022 0.0
H557 H 0.85018 0.73817 0.18131 0.0
H558 H 0.86418 0.80173 0.17267 0.0
H559 H 0.79754 0.74331 0.17087 0.0
H560 H 0.84246 0.91647 0.13856 0.0
H561 H 0.68738 0.76954 0.13716 0.0
H562 H 0.9228 0.85691 0.13086 0.0
H563 H 0.9206 0.86197 0.15159 0.0
H564 H 0.92521 0.91612 0.13951 0.0
H565 H 0.73418 0.67641 0.13181 0.0
H566 H 0.67748 0.6824 0.13891 0.0
H567 H 0.72682 0.68274 0.15225 0.0
C568 C 0.92221 0.74454 0.62925 0.0
C569 C 0.89845 0.77641 0.63257 0.0
C570 C 0.97845 0.76623 0.63056 0.0
C571 C 0.01142 0.82173 0.63456 0.0
C572 C -0.0124 0.85484 0.63711 0.0
C573 C 0.93085 0.83118 0.63652 0.0
C574 C 0.00212 0.72927 0.62844 0.0
C575 C 0.02191 0.91486 0.64076 0.0
C576 C 0.15153 0.88917 0.65242 0.0
C577 C 0.18325 0.91607 0.63937 0.0
C578 C 0.0954 0.85325 0.65081 0.0
C579 C 0.071 0.84592 0.63593 0.0
C580 C 0.10376 0.86831 0.62257 0.0
C581 C 0.15983 0.902 0.62444 0.0
C582 C 0.06167 0.82711 0.66518 0.0
C583 C 0.07928 0.86236 0.60653 0.0
H584 H 0.89631 0.70171 0.62651 0.0
H585 H 0.91175 0.8551 0.63932 0.0
H586 H 0.0348 0.74597 0.61953 0.0
H587 H 0.02096 0.72688 0.63953 0.0
H588 H 0.97081 0.68738 0.6249 0.0
H589 H -0.00264 0.93553 0.64106 0.0
H590 H 0.04195 0.9204 0.65226 0.0
H591 H 0.05455 0.93526 0.63192 0.0
H592 H 0.16957 0.89908 0.66396 0.0
H593 H 0.18434 0.92167 0.61422 0.0
H594 H 0.02985 0.78435 0.66277 0.0
H595 H 0.04076 0.84963 0.66876 0.0
H596 H 0.08722 0.82762 0.67508 0.0
H597 H 0.04773 0.81956 0.60416 0.0
H598 H 0.11056 0.87613 0.5972 0.0
H599 H 0.05915 0.88733 0.60589 0.0
C600 C 0.04216 0.80107 0.39972 0.0
C601 C 0.0669 0.8563 0.3958 0.0
C602 C 0.98547 0.76777 0.39919 0.0
C603 C 0.95316 0.79116 0.39526 0.0
C604 C 0.9782 0.84759 0.39179 0.0
C605 C 0.03515 0.87934 0.39174 0.0
C606 C 0.96044 0.70749 0.40227 0.0
C607 C 0.94491 0.87428 0.38796 0.0
C608 C 0.81027 0.71855 0.37923 0.0
C609 C 0.78085 0.71863 0.39234 0.0
C610 C 0.86623 0.73718 0.38031 0.0
C611 C 0.89307 0.75725 0.39476 0.0
C612 C 0.8625 0.75183 0.40833 0.0
C613 C 0.80643 0.73165 0.40699 0.0
C614 C 0.89733 0.7401 0.36573 0.0
C615 C 0.88965 0.77309 0.42394 0.0
H616 H 0.06742 0.78343 0.40251 0.0
H617 H 0.0549 0.92202 0.38853 0.0
H618 H 0.93042 0.69483 0.41188 0.0
H619 H 0.93809 0.68418 0.39175 0.0
H620 H -0.00851 0.696 0.40533 0.0
H621 H 0.97064 0.9191 0.38654 0.0
H622 H 0.92188 0.85695 0.37699 0.0
H623 H 0.91473 0.86595 0.39732 0.0
H624 H 0.79053 0.70769 0.36792 0.0
H625 H 0.78388 0.73124 0.41724 0.0
H626 H 0.92839 0.72816 0.36819 0.0
H627 H 0.91901 0.78262 0.36136 0.0
H628 H 0.86984 0.71343 0.35635 0.0
H629 H 0.92011 0.76036 0.42633 0.0
H630 H 0.85972 0.75887 0.43364 0.0
H631 H 0.91161 0.8183 0.42377 0.0
C632 C 0.09266 0.81384 0.87823 0.0
C633 C 0.06515 0.78275 0.89134 0.0
C634 C 0.12989 0.86972 0.87968 0.0
C635 C 0.13865 0.89471 0.89451 0.0
C636 C 0.11574 0.8624 0.90794 0.0
C637 C 0.07989 0.8065 0.90621 0.0
C638 C 0.15569 0.90272 0.86517 0.0
C639 C 0.12391 0.88753 0.92396 0.0
C640 C 0.24364 0.04355 0.90012 0.0
C641 C 0.21219 0.06818 0.89738 0.0
C642 C 0.2206 0.98699 0.89902 0.0
C643 C 0.16439 0.95465 0.8957 0.0
C644 C 0.13209 0.97953 0.89348 0.0
C645 C 0.15684 0.03642 0.89398 0.0
C646 C 0.25673 0.96222 0.90077 0.0
C647 C 0.07161 0.94617 0.89033 0.0
H648 H 0.08218 0.79556 0.86673 0.0
H649 H 0.05948 0.78259 0.91645 0.0
H650 H 0.13395 0.92459 0.86176 0.0
H651 H 0.19893 0.93373 0.86733 0.0
H652 H 0.15366 0.87653 0.85525 0.0
H653 H 0.10994 0.85641 0.93334 0.0
H654 H 0.16735 0.91798 0.92601 0.0
H655 H 0.10037 0.90912 0.92483 0.0
H656 H 0.28693 0.06886 0.90237 0.0
H657 H 0.13316 0.05613 0.89164 0.0
H658 H 0.25721 0.94231 0.88968 0.0
H659 H 0.2405 0.93023 0.90988 0.0
H660 H 0.29933 -0.00691 0.90383 0.0
H661 H 0.0644 0.92451 0.87904 0.0
H662 H 0.05195 0.97164 0.88991 0.0
H663 H 0.05145 0.91482 0.89953 0.0
C664 C 0.17869 0.25633 0.39383 0.0
C665 C 0.12209 0.22447 0.39229 0.0
C666 C 0.21172 0.23281 0.3927 0.0
C667 C 0.18695 0.17591 0.3905 0.0
C668 C 0.12941 0.14344 0.38925 0.0
C669 C 0.09756 0.16849 0.38986 0.0
C670 C 0.27288 0.26886 0.3935 0.0
C671 C 0.10154 0.08236 0.38722 0.0
C672 C 0.25287 0.09942 0.37436 0.0
C673 C 0.2579 0.07493 0.38796 0.0
C674 C 0.23463 0.1371 0.3751 0.0
C675 C 0.22056 0.14954 0.38975 0.0
C676 C 0.23156 0.12976 0.40358 0.0
C677 C 0.25095 0.09321 0.40252 0.0
C678 C 0.22546 0.15934 0.36013 0.0
C679 C 0.21706 0.14211 0.41943 0.0
H680 H 0.19717 0.30002 0.39541 0.0
H681 H 0.05368 0.14451 0.3885 0.0
H682 H 0.28981 0.25536 0.40303 0.0
H683 H 0.29141 0.26551 0.38247 0.0
H684 H 0.28542 0.31237 0.39542 0.0
H685 H 0.05642 0.06301 0.3871 0.0
H686 H 0.1147 0.07237 0.37613 0.0
H687 H 0.11345 0.06414 0.39682 0.0
H688 H 0.25913 0.08619 0.36307 0.0
H689 H 0.25572 0.07518 0.41312 0.0
H690 H 0.23801 0.20303 0.36142 0.0
H691 H 0.18141 0.13692 0.35721 0.0
H692 H 0.24818 0.15478 0.35025 0.0
H693 H 0.2309 0.18608 0.42062 0.0
H694 H 0.23514 0.13002 0.42904 0.0
H695 H 0.17209 0.11943 0.4208 0.0
C696 C 0.1555 0.25828 0.87764 0.0
C697 C 0.18395 0.25903 0.89109 0.0
C698 C 0.09959 0.24019 0.87829 0.0
C699 C 0.07187 0.22169 0.89266 0.0
C700 C 0.1015 0.22796 0.90651 0.0
C701 C 0.15751 0.24741 0.90558 0.0
C702 C 0.06948 0.23617 0.86338 0.0
C703 C 0.07336 0.20848 0.92205 0.0
C704 C 0.92322 0.18045 0.89669 0.0
C705 C 0.89797 0.12463 0.89349 0.0
C706 C 0.97995 0.21312 0.89614 0.0
C707 C 0.01173 0.18859 0.89289 0.0
C708 C 0.98612 0.1317 0.89002 0.0
C709 C 0.92915 0.10046 0.89001 0.0
C710 C 0.00566 0.27382 0.89863 0.0
C711 C 0.01885 0.1039 0.88688 0.0
H712 H 0.17592 0.26808 0.86644 0.0
H713 H 0.17937 0.24858 0.91608 0.0
H714 H 0.04763 0.19323 0.85933 0.0
H715 H 0.03866 0.24881 0.8653 0.0
H716 H 0.09766 0.2617 0.85399 0.0
H717 H 0.10275 0.22306 0.93192 0.0
H718 H 0.04345 0.22228 0.92395 0.0
H719 H 0.0506 0.16326 0.9222 0.0
H720 H 0.89834 0.19884 0.89906 0.0
H721 H 0.90894 0.05726 0.88738 0.0
H722 H 0.02949 0.29579 0.88816 0.0
H723 H 0.03448 0.28698 0.90858 0.0
H724 H 0.97487 0.28635 0.90091 0.0
H725 H 0.04277 0.12018 0.87601 0.0
H726 H -0.00735 0.05904 0.88565 0.0
H727 H 0.04824 0.11246 0.89651 0.0
C728 C 0.87363 0.16575 0.3789 0.0
C729 C 0.90182 0.19669 0.39199 0.0
C730 C 0.83679 0.1098 0.38029 0.0
C731 C 0.82897 0.08463 0.39504 0.0
C732 C 0.85255 0.11674 0.40849 0.0
C733 C 0.88814 0.1727 0.40682 0.0
C734 C 0.81043 0.07697 0.36576 0.0
C735 C 0.84524 0.09137 0.42443 0.0
C736 C 0.72425 0.93571 0.40032 0.0
C737 C 0.75569 0.9112 0.39736 0.0
C738 C 0.74726 -0.00772 0.39945 0.0
C739 C 0.80338 0.02471 0.39608 0.0
C740 C 0.83565 -5e-05 0.39359 0.0
C741 C 0.81096 0.94306 0.39391 0.0
C742 C 0.71119 0.017 0.4015 0.0
C743 C 0.896 0.03344 0.39031 0.0
H744 H 0.88333 0.18422 0.36743 0.0
H745 H 0.9091 0.19651 0.41705 0.0
H746 H 0.8322 0.05534 0.36213 0.0
H747 H 0.76735 0.04576 0.368 0.0
H748 H 0.81187 0.10323 0.35596 0.0
H749 H 0.85967 0.12234 0.43388 0.0
H750 H 0.8019 0.06087 0.42658 0.0
H751 H 0.86883 0.06979 0.42504 0.0
H752 H 0.68096 0.91031 0.40255 0.0
H753 H 0.83459 0.92344 0.39138 0.0
H754 H 0.71075 0.03769 0.39057 0.0
H755 H 0.72747 0.04834 0.41082 0.0
H756 H 0.66856 0.98597 0.40444 0.0
H757 H 0.90277 0.05547 0.37911 0.0
H758 H 0.91566 0.008 0.38961 0.0
H759 H 0.9165 0.06449 0.39958 0.0
C760 C 0.79049 0.72614 0.89689 0.0
C761 C 0.84693 0.75814 0.89499 0.0
C762 C 0.75701 0.74913 0.89563 0.0
C763 C 0.7812 0.80571 0.89293 0.0
C764 C 0.83864 0.83845 0.89147 0.0
C765 C 0.87089 0.81385 0.89218 0.0
C766 C 0.69595 0.71268 0.89659 0.0
C767 C 0.86592 0.89927 0.88898 0.0
C768 C 0.71351 0.87889 0.87563 0.0
C769 C 0.708 0.9044 0.88895 0.0
C770 C 0.73253 0.84192 0.87688 0.0
C771 C 0.74704 0.83139 0.89173 0.0
C772 C 0.73573 0.85227 0.90529 0.0
C773 C 0.71542 0.88793 0.90373 0.0
C774 C 0.74191 0.81832 0.86221 0.0
C775 C 0.75078 0.84206 0.92133 0.0
H776 H 0.77237 0.6826 0.89868 0.0
H777 H 0.9146 0.83791 0.89048 0.0
H778 H 0.67878 0.72766 0.90566 0.0
H779 H 0.67714 0.71354 0.88533 0.0
H780 H 0.68395 0.66975 0.89926 0.0
H781 H 0.91108 0.91905 0.88897 0.0
H782 H 0.85274 0.90788 0.87767 0.0
H783 H 0.85357 0.91819 0.89826 0.0
H784 H 0.70696 0.89076 0.86418 0.0
H785 H 0.71027 0.90673 0.91412 0.0
H786 H 0.72979 0.77491 0.8639 0.0
H787 H 0.78593 0.84079 0.85929 0.0
H788 H 0.71894 0.82152 0.85216 0.0
H789 H 0.73747 0.79836 0.92294 0.0
H790 H 0.73259 0.85492 0.93071 0.0
H791 H 0.79577 0.86533 0.92265 0.0
C792 C 0.07297 0.5673 0.15467 0.0
C793 C 0.04833 0.57758 0.14197 0.0
C794 C 0.09273 0.53114 0.15327 0.0
C795 C 0.08578 0.5033 0.139 0.0
C796 C 0.05547 0.50884 0.12676 0.0
C797 C 0.03765 0.54668 0.12831 0.0
C798 C 0.12523 0.52652 0.16656 0.0
C799 C 0.04527 0.47788 0.11165 0.0
C800 C 0.19758 0.47129 0.13004 0.0
C801 C 0.17511 0.41902 0.13628 0.0
C802 C 0.16801 0.49888 0.13039 0.0
C803 C 0.11441 0.47233 0.13659 0.0
C804 C 0.09056 0.41814 0.14196 0.0
C805 C 0.12168 0.39248 0.14201 0.0
C806 C 0.19513 0.55729 0.12492 0.0
C807 C 0.03289 0.38792 0.14809 0.0
H808 H 0.08143 0.5912 0.16525 0.0
H809 H 0.01822 0.55435 0.11852 0.0
H810 H 0.10946 0.4832 0.16965 0.0
H811 H 0.16831 0.54364 0.16291 0.0
H812 H 0.12425 0.5486 0.17715 0.0
H813 H 0.01296 0.47902 0.1046 0.0
H814 H 0.08328 0.49619 0.10468 0.0
H815 H 0.03326 0.43476 0.1139 0.0
H816 H 0.23899 0.49143 0.12565 0.0
H817 H 0.10437 0.35159 0.14668 0.0
H818 H 0.19931 0.58422 0.13487 0.0
H819 H 0.16965 0.56216 0.11597 0.0
H820 H 0.23621 0.57126 0.11995 0.0
H821 H 0.02879 0.40945 0.15834 0.0
H822 H 0.02028 0.34548 0.15156 0.0
H823 H 0.00437 0.38675 0.13903 0.0
C824 C 0.70567 0.20997 0.63905 0.0
C825 C 0.73687 0.18641 0.63491 0.0
C826 C 0.6488 0.17802 0.63987 0.0
C827 C 0.62351 0.12097 0.63733 0.0
C828 C 0.65535 0.09711 0.63335 0.0
C829 C 0.71176 0.13052 0.63183 0.0
C830 C 0.61588 0.20526 0.64349 0.0
C831 C 0.63019 0.03631 0.63124 0.0
C832 C 0.48105 0.05073 0.65386 0.0
C833 C 0.45093 0.04679 0.64047 0.0
C834 C 0.53722 0.06992 0.65283 0.0
C835 C 0.56349 0.08714 0.6382 0.0
C836 C 0.53235 0.07816 0.62453 0.0
C837 C 0.47617 0.05661 0.62581 0.0
C838 C 0.569 0.07588 0.66753 0.0
C839 C 0.55881 0.09702 0.60873 0.0
H840 H 0.72577 0.2532 0.64162 0.0
H841 H 0.73666 0.11263 0.62891 0.0
H842 H 0.58416 0.19473 0.63442 0.0
H843 H 0.59468 0.19035 0.6548 0.0
H844 H 0.64159 0.25033 0.6441 0.0
H845 H 0.66055 0.02467 0.62752 0.0
H846 H 0.61173 0.01552 0.64241 0.0
H847 H 0.59697 0.02087 0.62249 0.0
H848 H 0.46169 0.04235 0.6652 0.0
H849 H 0.45306 0.0527 0.61533 0.0
H850 H 0.59045 0.11912 0.6713 0.0
H851 H 0.60029 0.06396 0.66544 0.0
H852 H 0.54199 0.05075 0.67717 0.0
H853 H 0.58152 0.14224 0.60843 0.0
H854 H 0.52847 0.08204 0.59911 0.0
H855 H 0.58856 0.08326 0.60652 0.0
C856 C 0.50334 0.71052 0.13358 0.0
C857 C 0.5519 0.74245 0.14167 0.0
C858 C 0.47517 0.65372 0.1353 0.0
C859 C 0.49763 0.62889 0.14482 0.0
C860 C 0.54783 0.66113 0.1525 0.0
C861 C 0.57382 0.71771 0.15109 0.0
C862 C 0.42093 0.62041 0.12723 0.0
C863 C 0.57396 0.63597 0.16224 0.0
C864 C 0.39432 0.4914 0.16056 0.0
C865 C 0.39421 0.45695 0.14881 0.0
C866 C 0.42984 0.54764 0.15982 0.0
C867 C 0.46706 0.56936 0.14729 0.0
C868 C 0.4713 0.53417 0.1364 0.0
C869 C 0.43423 0.47815 0.13718 0.0
C870 C 0.42393 0.58403 0.17159 0.0
C871 C 0.51214 0.55594 0.12326 0.0
H872 H 0.48681 0.73004 0.12629 0.0
H873 H 0.61205 0.74272 0.15713 0.0
H874 H 0.42258 0.59051 0.11923 0.0
H875 H 0.38875 0.59702 0.13598 0.0
H876 H 0.40895 0.64612 0.12042 0.0
H877 H 0.61515 0.66674 0.16645 0.0
H878 H 0.54803 0.61508 0.17249 0.0
H879 H 0.57754 0.60475 0.15535 0.0
H880 H 0.3634 0.47521 0.16957 0.0
H881 H 0.43449 0.45145 0.12816 0.0
H882 H 0.40713 0.60739 0.16574 0.0
H883 H 0.46416 0.61397 0.1765 0.0
H884 H 0.39639 0.56052 0.18134 0.0
H885 H 0.49878 0.57531 0.1144 0.0
H886 H 0.5164 0.52317 0.11748 0.0
H887 H 0.55269 0.58757 0.1276 0.0
C888 C 0.86008 0.59314 0.64222 0.0
C889 C 0.80814 0.56902 0.63545 0.0
C890 C 0.88985 0.56602 0.64246 0.0
C891 C 0.86602 0.51275 0.6363 0.0
C892 C 0.81405 0.48875 0.62905 0.0
C893 C 0.78599 0.51782 0.62846 0.0
C894 C 0.94598 0.59366 0.6497 0.0
C895 C 0.78677 0.43128 0.62277 0.0
C896 C 0.94107 0.43586 0.62903 0.0
C897 C 0.92698 0.40327 0.64241 0.0
C898 C 0.92483 0.47489 0.6273 0.0
C899 C 0.89241 0.47977 0.63901 0.0
C900 C 0.88146 0.44968 0.653 0.0
C901 C 0.89984 0.41248 0.65465 0.0
C902 C 0.93931 0.50819 0.61254 0.0
C903 C 0.84648 0.45338 0.6657 0.0
H904 H 0.87726 0.63322 0.64747 0.0
H905 H 0.7457 0.49947 0.62329 0.0
H906 H 0.94734 0.56935 0.65963 0.0
H907 H 0.97622 0.59641 0.641 0.0
H908 H 0.95849 0.63532 0.65396 0.0
H909 H 0.74728 0.41945 0.617 0.0
H910 H 0.81374 0.42683 0.61427 0.0
H911 H 0.77928 0.4024 0.63245 0.0
H912 H 0.96233 0.42893 0.61959 0.0
H913 H 0.88863 0.38719 0.66499 0.0
H914 H 0.95219 0.55129 0.61521 0.0
H915 H 0.90298 0.49209 0.60487 0.0
H916 H 0.97246 0.50681 0.60602 0.0
H917 H 0.86294 0.49629 0.66939 0.0
H918 H 0.84372 0.42884 0.67611 0.0
H919 H 0.80469 0.43858 0.66117 0.0
C920 C 0.4953 0.92475 0.15614 0.0
C921 C 0.52538 0.93377 0.14241 0.0
C922 C 0.43895 0.90493 0.15549 0.0
C923 C 0.4125 0.89256 0.14081 0.0
C924 C 0.44353 0.90672 0.12696 0.0
C925 C 0.49983 0.92847 0.12796 0.0
C926 C 0.40723 0.8933 0.17047 0.0
C927 C 0.41685 0.8938 0.11107 0.0
C928 C 0.27007 0.76996 0.13919 0.0
C929 C 0.23908 0.79502 0.13676 0.0
C930 C 0.32696 0.80147 0.14037 0.0
C931 C 0.35243 0.85917 0.13981 0.0
C932 C 0.32073 0.88439 0.13753 0.0
C933 C 0.26433 0.85176 0.13576 0.0
C934 C 0.35976 0.77308 0.14215 0.0
C935 C 0.34592 0.94561 0.13748 0.0
H936 H 0.51487 0.92955 0.16735 0.0
H937 H 0.52293 0.93639 0.11726 0.0
H938 H 0.37639 0.90641 0.16959 0.0
H939 H 0.3852 0.84882 0.17273 0.0
H940 H 0.43427 0.91417 0.18058 0.0
H941 H 0.4471 0.91121 0.10148 0.0
H942 H 0.39282 0.84893 0.10952 0.0
H943 H 0.38821 0.90956 0.11001 0.0
H944 H 0.24985 0.72594 0.14012 0.0
H945 H 0.23958 0.87061 0.13404 0.0
H946 H 0.38167 0.78431 0.15346 0.0
H947 H 0.3909 0.78644 0.13281 0.0
H948 H 0.33386 0.72802 0.14162 0.0
H949 H 0.35994 0.96141 0.14943 0.0
H950 H 0.31658 0.95845 0.13364 0.0
H951 H 0.3821 0.96499 0.12977 0.0
C952 C 0.54584 0.50353 0.63735 0.0
C953 C 0.58904 0.52466 0.64802 0.0
C954 C 0.50885 0.44746 0.63673 0.0
C955 C 0.51682 0.41218 0.64665 0.0
C956 C 0.55828 0.43372 0.6581 0.0
C957 C 0.59335 0.48999 0.65884 0.0
C958 C 0.46346 0.4258 0.62485 0.0
C959 C 0.56854 0.39719 0.6687 0.0
C960 C 0.41089 0.26467 0.65233 0.0
C961 C 0.42779 0.23901 0.64154 0.0
C962 C 0.43807 0.32132 0.65363 0.0
C963 C 0.48462 0.35265 0.64438 0.0
C964 C 0.50222 0.32689 0.63351 0.0
C965 C 0.47265 0.27004 0.63198 0.0
C966 C 0.41696 0.34755 0.66487 0.0
C967 C 0.55286 0.35922 0.62381 0.0
H968 H 0.54251 0.53049 0.62902 0.0
H969 H 0.62708 0.50623 0.66701 0.0
H970 H 0.47299 0.40578 0.61521 0.0
H971 H 0.42453 0.39469 0.63016 0.0
H972 H 0.45771 0.4587 0.61982 0.0
H973 H 0.60057 0.42062 0.67753 0.0
H974 H 0.53065 0.36803 0.67485 0.0
H975 H 0.58158 0.37292 0.66162 0.0
H976 H 0.37554 0.24038 0.65957 0.0
H977 H 0.48532 0.24979 0.62364 0.0
H978 H 0.40837 0.37655 0.65852 0.0
H979 H 0.44825 0.37124 0.67381 0.0
H980 H 0.37916 0.31713 0.67087 0.0
H981 H 0.54854 0.38904 0.61647 0.0
H982 H 0.56135 0.33281 0.61611 0.0
H983 H 0.58855 0.38268 0.63155 0.0
C984 C 0.39189 0.90838 0.36964 0.0
C985 C 0.38735 0.93795 0.38208 0.0
C986 C 0.42909 0.88959 0.37029 0.0
C987 C 0.46311 0.90185 0.38352 0.0
C988 C 0.46309 0.93702 0.39522 0.0
C989 C 0.4248 0.95443 0.39441 0.0
C990 C 0.42813 0.85226 0.35756 0.0
C991 C 0.50017 0.95246 0.40923 0.0
C992 C 0.49708 0.79375 0.39568 0.0
C993 C 0.54833 0.81364 0.38891 0.0
C994 C 0.46892 0.82245 0.39407 0.0
C995 C 0.49373 0.87281 0.38595 0.0
C996 C 0.54661 0.89406 0.37972 0.0
C997 C 0.57295 0.8637 0.38106 0.0
C998 C 0.41218 0.79833 0.40072 0.0
C999 C 0.57507 0.94839 0.37149 0.0
H1000 H 0.36306 0.89559 0.36007 0.0
H1001 H 0.42176 0.97785 0.40396 0.0
H1002 H 0.47006 0.86485 0.35364 0.0
H1003 H 0.41008 0.81018 0.36218 0.0
H1004 H 0.40382 0.85161 0.34731 0.0
H1005 H 0.50202 0.9873 0.41572 0.0
H1006 H 0.48487 0.91717 0.41726 0.0
H1007 H 0.54205 0.96326 0.40571 0.0
H1008 H 0.47846 0.75508 0.40177 0.0
H1009 H 0.61327 0.87944 0.3761 0.0
H1010 H 0.38279 0.79177 0.39126 0.0
H1011 H 0.41051 0.82703 0.4092 0.0
H1012 H 0.39883 0.75884 0.40667 0.0
H1013 H 0.55342 0.94589 0.36047 0.0
H1014 H 0.61816 0.9614 0.36869 0.0
H1015 H 0.57422 0.98026 0.3788 0.0
C1016 C 0.71098 0.57287 0.88018 0.0
C1017 C 0.73711 0.54967 0.88842 0.0
C1018 C 0.65416 0.54623 0.87914 0.0
C1019 C 0.62308 0.49431 0.88601 0.0
C1020 C 0.64938 0.47079 0.89441 0.0
C1021 C 0.70633 0.49939 0.89576 0.0
C1022 C 0.62751 0.57347 0.87064 0.0
C1023 C 0.61745 0.41498 0.90168 0.0
C1024 C 0.47304 0.4262 0.89529 0.0
C1025 C 0.45109 0.38774 0.88323 0.0
C1026 C 0.52882 0.46452 0.89571 0.0
C1027 C 0.56319 0.46327 0.88397 0.0
C1028 C 0.54046 0.42779 0.87106 0.0
C1029 C 0.48437 0.39083 0.87074 0.0
C1030 C 0.55144 0.50323 0.90936 0.0
C1031 C 0.5759 0.42516 0.85833 0.0
H1032 H 0.73511 0.61244 0.87475 0.0
H1033 H 0.72688 0.48182 0.90213 0.0
H1034 H 0.60616 0.54955 0.86011 0.0
H1035 H 0.59644 0.57486 0.87819 0.0
H1036 H 0.65746 0.61569 0.867 0.0
H1037 H 0.64417 0.40235 0.90765 0.0
H1038 H 0.588 0.41448 0.91028 0.0
H1039 H 0.59362 0.38438 0.89257 0.0
H1040 H 0.44725 0.42419 0.9049 0.0
H1041 H 0.46762 0.3611 0.86141 0.0
H1042 H 0.5822 0.54467 0.90541 0.0
H1043 H 0.57207 0.48893 0.9175 0.0
H1044 H 0.51891 0.50583 0.91585 0.0
H1045 H 0.60481 0.46651 0.85393 0.0
H1046 H 0.55153 0.3994 0.84837 0.0
H1047 H 0.60041 0.40788 0.86315 0.0
C1048 C 0.1882 0.71815 0.3971 0.0
C1049 C 0.16731 0.74908 0.39064 0.0
C1050 C 0.15867 0.66113 0.39602 0.0
C1051 C 0.10658 0.6352 0.3888 0.0
C1052 C 0.08435 0.66653 0.383 0.0
C1053 C 0.1155 0.72326 0.38375 0.0
C1054 C 0.18389 0.62876 0.40211 0.0
C1055 C 0.02823 0.64031 0.37578 0.0
C1056 C 0.06589 0.49708 0.372 0.0
C1057 C 0.03856 0.46334 0.38469 0.0
C1058 C 0.08594 0.55324 0.37285 0.0
C1059 C 0.07698 0.5755 0.38655 0.0
C1060 C 0.04403 0.54078 0.39863 0.0
C1061 C 0.02558 0.48491 0.39762 0.0
C1062 C 0.12103 0.58912 0.35973 0.0
C1063 C 0.03194 0.56301 0.41314 0.0
H1064 H 0.22827 0.73855 0.40244 0.0
H1065 H 0.09917 0.74761 0.37898 0.0
H1066 H 0.15681 0.59889 0.41093 0.0
H1067 H 0.18856 0.60536 0.39244 0.0
H1068 H 0.22449 0.65514 0.40749 0.0
H1069 H 0.01522 0.67049 0.37311 0.0
H1070 H 0.02773 0.61931 0.36481 0.0
H1071 H -0.0021 0.60904 0.38374 0.0
H1072 H 0.07615 0.48055 0.36199 0.0
H1073 H 0.00403 0.45869 0.4074 0.0
H1074 H 0.16386 0.61339 0.3638 0.0
H1075 H 0.1077 0.61825 0.35617 0.0
H1076 H 0.11998 0.56513 0.34935 0.0
H1077 H 0.0689 0.58289 0.42058 0.0
H1078 H -0.00165 0.53039 0.42005 0.0
H1079 H 0.02085 0.59431 0.41013 0.0
C1080 C 0.57015 0.06816 0.87096 0.0
C1081 C 0.57524 0.03867 0.8833 0.0
C1082 C 0.53405 0.08818 0.87198 0.0
C1083 C 0.50148 0.077 0.88548 0.0
C1084 C 0.50183 0.04184 0.8971 0.0
C1085 C 0.53924 0.02341 0.89594 0.0
C1086 C 0.53474 0.12562 0.85935 0.0
C1087 C 0.46607 0.0274 0.91136 0.0
C1088 C 0.47005 0.187 0.89754 0.0
C1089 C 0.41881 0.16757 0.89079 0.0
C1090 C 0.49733 0.15736 0.89605 0.0
C1091 C 0.47155 0.1066 0.88809 0.0
C1092 C 0.41859 0.08577 0.88196 0.0
C1093 C 0.39321 0.11702 0.88316 0.0
C1094 C 0.55428 0.18107 0.90254 0.0
C1095 C 0.3891 0.03102 0.87392 0.0
H1096 H 0.59797 0.08012 0.86117 0.0
H1097 H 0.54284 0.00016 0.90544 0.0
H1098 H 0.4927 0.11332 0.85558 0.0
H1099 H 0.55328 0.16775 0.86399 0.0
H1100 H 0.55844 0.12602 0.84899 0.0
H1101 H 0.46411 -0.00757 0.91778 0.0
H1102 H 0.48264 0.06296 0.91935 0.0
H1103 H 0.42411 0.01726 0.90813 0.0
H1104 H 0.48943 0.22605 0.90346 0.0
H1105 H 0.35293 0.10168 0.87819 0.0
H1106 H 0.58316 0.18717 0.89298 0.0
H1107 H 0.55601 0.15235 0.91098 0.0
H1108 H 0.56826 0.22075 0.90848 0.0
H1109 H 0.41074 0.03216 0.86304 0.0
H1110 H 0.34635 0.01895 0.87095 0.0
H1111 H 0.38878 -0.00087 0.88149 0.0
C1112 C 0.25387 0.41089 0.37776 0.0
C1113 C 0.22819 0.43336 0.38653 0.0
C1114 C 0.31065 0.43749 0.37656 0.0
C1115 C 0.3421 0.48872 0.38383 0.0
C1116 C 0.31622 0.51173 0.39266 0.0
C1117 C 0.25933 0.48309 0.39416 0.0
C1118 C 0.33688 0.41075 0.36759 0.0
C1119 C 0.34855 0.56687 0.40034 0.0
C1120 C 0.49172 0.55421 0.39343 0.0
C1121 C 0.51437 0.59379 0.38172 0.0
C1122 C 0.43581 0.51635 0.39357 0.0
C1123 C 0.40203 0.5193 0.38193 0.0
C1124 C 0.42544 0.55604 0.36934 0.0
C1125 C 0.48166 0.59247 0.36928 0.0
C1126 C 0.41245 0.47623 0.40685 0.0
C1127 C 0.39062 0.5606 0.35676 0.0
H1128 H 0.22947 0.37173 0.3721 0.0
H1129 H 0.23912 0.50008 0.40096 0.0
H1130 H 0.35845 0.43571 0.35726 0.0
H1131 H 0.36771 0.4082 0.37497 0.0
H1132 H 0.30666 0.36905 0.3636 0.0
H1133 H 0.32205 0.57947 0.40645 0.0
H1134 H 0.37754 0.56618 0.4089 0.0
H1135 H 0.37291 0.5981 0.39145 0.0
H1136 H 0.51711 0.55496 0.403 0.0
H1137 H 0.499 0.62319 0.36023 0.0
H1138 H 0.38161 0.43534 0.40252 0.0
H1139 H 0.39175 0.4899 0.41517 0.0
H1140 H 0.44457 0.47263 0.41327 0.0
H1141 H 0.41544 0.58701 0.34698 0.0
H1142 H 0.3667 0.57816 0.36182 0.0
H1143 H 0.36119 0.51985 0.35205 0.0
C1144 C 0.93795 0.49365 0.89508 0.0
C1145 C 0.92284 0.51565 0.88271 0.0
C1146 C 0.91897 0.43763 0.89584 0.0
C1147 C 0.8834 0.40316 0.88409 0.0
C1148 C 0.87204 0.42577 0.8709 0.0
C1149 C 0.89256 0.48207 0.87027 0.0
C1150 C 0.93355 0.41504 0.90979 0.0
C1151 C 0.83419 0.39015 0.85814 0.0
C1152 C 0.84447 0.25523 0.88081 0.0
C1153 C 0.79445 0.22952 0.88868 0.0
C1154 C 0.87506 0.31194 0.87976 0.0
C1155 C 0.85399 0.34339 0.88625 0.0
C1156 C 0.80359 0.31759 0.89436 0.0
C1157 C 0.77471 0.26063 0.89572 0.0
C1158 C 0.92948 0.33804 0.87156 0.0
C1159 C 0.77962 0.35005 0.90125 0.0
H1160 H 0.96174 0.51972 0.90466 0.0
H1161 H 0.88062 0.49892 0.86072 0.0
H1162 H 0.89791 0.39484 0.91769 0.0
H1163 H 0.94416 0.3839 0.90615 0.0
H1164 H 0.96828 0.44747 0.91646 0.0
H1165 H 0.83353 0.41433 0.84804 0.0
H1166 H 0.84634 0.36071 0.85397 0.0
H1167 H 0.7922 0.36623 0.86283 0.0
H1168 H 0.86004 0.23083 0.87561 0.0
H1169 H 0.73605 0.24038 0.90182 0.0
H1170 H 0.96139 0.37008 0.87903 0.0
H1171 H 0.92727 0.35804 0.86069 0.0
H1172 H 0.94225 0.30794 0.86851 0.0
H1173 H 0.80831 0.37987 0.90984 0.0
H1174 H 0.74002 0.32374 0.90712 0.0
H1175 H 0.77335 0.37352 0.89193 0.0
C1176 C 0.10783 0.2696 0.29954 0.0
C1177 C 0.09029 0.30597 0.30404 0.0
C1178 C 0.12339 0.26792 0.2841 0.0
C1179 C 0.12112 0.30327 0.27286 0.0
C1180 C 0.10277 0.33957 0.27727 0.0
C1181 C 0.08773 0.34059 0.29281 0.0
C1182 C 0.14306 0.2289 0.27988 0.0
C1183 C 0.09931 0.37757 0.26559 0.0
C1184 C 0.20796 0.3379 0.23626 0.0
C1185 C 0.16977 0.30376 0.22514 0.0
C1186 C 0.19287 0.33762 0.25188 0.0
C1187 C 0.1382 0.30256 0.25648 0.0
C1188 C 0.09962 0.26751 0.24537 0.0
C1189 C 0.11589 0.26838 0.22987 0.0
C1190 C 0.23526 0.37547 0.2634 0.0
C1191 C 0.04096 0.22949 0.24981 0.0
H1192 H 0.11069 0.24332 0.30821 0.0
H1193 H 0.07372 0.3684 0.29618 0.0
H1194 H 0.11781 0.20157 0.27031 0.0
H1195 H 0.18561 0.25197 0.27557 0.0
H1196 H 0.14158 0.20351 0.28993 0.0
H1197 H 0.08351 0.40279 0.27085 0.0
H1198 H 0.14021 0.40511 0.26063 0.0
H1199 H 0.07229 0.3538 0.25579 0.0
H1200 H 0.24949 0.36582 0.2327 0.0
H1201 H 0.08629 0.24115 0.22143 0.0
H1202 H 0.23738 0.35191 0.27343 0.0
H1203 H 0.22364 0.40477 0.26806 0.0
H1204 H 0.27641 0.39876 0.2581 0.0
H1205 H 0.03881 0.20185 0.25928 0.0
H1206 H 0.01612 0.2044 0.23982 0.0
H1207 H 0.02254 0.25331 0.25434 0.0
C1208 C 0.86663 0.23013 0.73651 0.0
C1209 C 0.85532 0.19133 0.7248 0.0
C1210 C 0.85529 0.21455 0.75222 0.0
C1211 C 0.83244 0.15892 0.7563 0.0
C1212 C 0.82231 0.11983 0.74457 0.0
C1213 C 0.8338 0.1365 0.72898 0.0
C1214 C 0.86647 0.25738 0.7644 0.0
C1215 C 0.79845 0.06023 0.74846 0.0
C1216 C 0.83944 0.12225 0.79854 0.0
C1217 C 0.7871 0.10756 0.80393 0.0
C1218 C 0.85479 0.13894 0.78306 0.0
C1219 C 0.81698 0.14119 0.77273 0.0
C1220 C 0.76399 0.126 0.77805 0.0
C1221 C 0.74966 0.10922 0.79355 0.0
C1222 C 0.91161 0.15465 0.77779 0.0
C1223 C 0.72243 0.12766 0.76738 0.0
H1224 H 0.88296 0.27249 0.73333 0.0
H1225 H 0.8259 0.10647 0.72 0.0
H1226 H 0.82766 0.24896 0.76994 0.0
H1227 H 0.89289 0.25601 0.77373 0.0
H1228 H 0.88651 0.29912 0.75942 0.0
H1229 H 0.79515 0.03536 0.73806 0.0
H1230 H 0.82398 0.05502 0.75733 0.0
H1231 H 0.75725 0.04413 0.75355 0.0
H1232 H 0.86888 0.12184 0.80653 0.0
H1233 H 0.7089 0.09719 0.79755 0.0
H1234 H 0.93334 0.19769 0.77387 0.0
H1235 H 0.90961 0.12926 0.76768 0.0
H1236 H 0.93584 0.14976 0.78718 0.0
H1237 H 0.73846 0.1695 0.76278 0.0
H1238 H 0.68315 0.11503 0.77337 0.0
H1239 H 0.71458 0.10039 0.75724 0.0
C1240 C 0.64597 0.88819 0.23639 0.0
C1241 C 0.67922 0.88156 0.22553 0.0
C1242 C 0.64654 0.87567 0.25222 0.0
C1243 C 0.68115 0.85602 0.25731 0.0
C1244 C 0.71563 0.85038 0.24647 0.0
C1245 C 0.71438 0.86337 0.23076 0.0
C1246 C 0.60936 0.88247 0.26345 0.0
C1247 C 0.75328 0.82979 0.25143 0.0
C1248 C 0.71625 0.86485 0.30039 0.0
C1249 C 0.68002 0.81172 0.30553 0.0
C1250 C 0.717 0.87984 0.28476 0.0
C1251 C 0.68089 0.8407 0.27393 0.0
C1252 C 0.64482 0.78677 0.27897 0.0
C1253 C 0.64478 0.77295 0.2947 0.0
C1254 C 0.75621 0.93769 0.27985 0.0
C1255 C 0.60585 0.7438 0.26776 0.0
H1256 H 0.61834 0.90172 0.23243 0.0
H1257 H 0.74091 0.85903 0.2225 0.0
H1258 H 0.5799 0.84241 0.26854 0.0
H1259 H 0.63341 0.90951 0.27322 0.0
H1260 H 0.58624 0.89987 0.25775 0.0
H1261 H 0.7782 0.8286 0.2416 0.0
H1262 H 0.78108 0.85618 0.26076 0.0
H1263 H 0.72915 0.78814 0.25631 0.0
H1264 H 0.74422 0.89488 0.30861 0.0
H1265 H 0.61617 0.73203 0.29859 0.0
H1266 H 0.73337 0.95655 0.2749 0.0
H1267 H 0.7836 0.93797 0.27057 0.0
H1268 H 0.78156 0.96327 0.2897 0.0
H1269 H 0.57807 0.75665 0.26264 0.0
H1270 H 0.58092 0.70359 0.27346 0.0
H1271 H 0.62879 0.73902 0.25799 0.0
C1272 C 0.76908 0.64536 0.73499 0.0
C1273 C 0.80773 0.68078 0.7242 0.0
C1274 C 0.78297 0.64533 0.75071 0.0
C1275 C 0.83692 0.68137 0.75576 0.0
C1276 C 0.87612 0.71727 0.74494 0.0
C1277 C 0.86102 0.7167 0.72933 0.0
C1278 C 0.73995 0.60658 0.76191 0.0
C1279 C 0.93405 0.75629 0.74988 0.0
C1280 C 0.85926 0.71544 0.79892 0.0
C1281 C 0.87694 0.67999 0.80424 0.0
C1282 C 0.84657 0.71663 0.78317 0.0
C1283 C 0.85212 0.68187 0.7724 0.0
C1284 C 0.87122 0.64695 0.77759 0.0
C1285 C 0.88329 0.64634 0.79345 0.0
C1286 C 0.82637 0.75448 0.7781 0.0
C1287 C 0.87793 0.60949 0.76643 0.0
H1288 H 0.72806 0.61692 0.73111 0.0
H1289 H 0.89097 0.74481 0.72114 0.0
H1290 H 0.75279 0.57898 0.76714 0.0
H1291 H 0.73505 0.62976 0.77159 0.0
H1292 H 0.69978 0.58146 0.75616 0.0
H1293 H 0.95983 0.78101 0.73999 0.0
H1294 H 0.93453 0.78428 0.759 0.0
H1295 H 0.95253 0.73339 0.75503 0.0
H1296 H 0.85514 0.74228 0.80712 0.0
H1297 H 0.89632 0.6184 0.79747 0.0
H1298 H 0.78477 0.73048 0.77313 0.0
H1299 H 0.853 0.7821 0.7688 0.0
H1300 H 0.82519 0.77958 0.78788 0.0
H1301 H 0.83786 0.58 0.76132 0.0
H1302 H 0.89525 0.58641 0.77219 0.0
H1303 H 0.90501 0.63331 0.75666 0.0
C1304 C 0.1662 0.79314 0.23171 0.0
C1305 C 0.11538 0.77891 0.22518 0.0
C1306 C 0.17766 0.80862 0.2474 0.0
C1307 C 0.13736 0.81004 0.25681 0.0
C1308 C 0.08568 0.79492 0.25036 0.0
C1309 C 0.07525 0.77939 0.23462 0.0
C1310 C 0.23307 0.82392 0.25389 0.0
C1311 C 0.04173 0.79603 0.26002 0.0
C1312 C 0.15024 0.80527 0.30075 0.0
C1313 C 0.17312 0.86038 0.30485 0.0
C1314 C 0.13829 0.78833 0.28517 0.0
C1315 C 0.14942 0.82742 0.27339 0.0
C1316 C 0.17265 0.88315 0.27743 0.0
C1317 C 0.18438 0.899 0.29312 0.0
C1318 C 0.11399 0.72862 0.28132 0.0
C1319 C 0.18494 0.92598 0.26518 0.0
H1320 H 0.19712 0.79217 0.22451 0.0
H1321 H 0.03614 0.76904 0.22958 0.0
H1322 H 0.25377 0.86664 0.25812 0.0
H1323 H 0.22864 0.7977 0.26402 0.0
H1324 H 0.25958 0.81986 0.24509 0.0
H1325 H 0.00348 0.78235 0.25332 0.0
H1326 H 0.03253 0.76943 0.27038 0.0
H1327 H 0.05618 0.83798 0.26435 0.0
H1328 H 0.14225 0.77533 0.30973 0.0
H1329 H 0.20161 0.94154 0.29625 0.0
H1330 H 0.14119 0.72284 0.27321 0.0
H1331 H 0.07431 0.71344 0.27531 0.0
H1332 H 0.10752 0.70337 0.29186 0.0
H1333 H 0.21396 0.92597 0.25651 0.0
H1334 H 0.20267 0.9675 0.27025 0.0
H1335 H 0.14709 0.91646 0.25881 0.0
C1336 C 0.33728 0.14939 0.80185 0.0
C1337 C 0.30426 0.17099 0.80633 0.0
C1338 C 0.33993 0.13589 0.78626 0.0
C1339 C 0.30853 0.14385 0.77484 0.0
C1340 C 0.27514 0.16571 0.77926 0.0
C1341 C 0.27363 0.17931 0.79495 0.0
C1342 C 0.37663 0.11345 0.782 0.0
C1343 C 0.24084 0.17452 0.76743 0.0
C1344 C 0.35185 0.15808 0.73241 0.0
C1345 C 0.31594 0.10604 0.72646 0.0
C1346 C 0.35025 0.1707 0.74814 0.0
C1347 C 0.31156 0.13038 0.7582 0.0
C1348 C 0.27581 0.07743 0.75234 0.0
C1349 C 0.27861 0.0658 0.73654 0.0
C1350 C 0.38959 0.2274 0.75396 0.0
C1351 C 0.23387 0.03343 0.7627 0.0
H1352 H 0.36165 0.1436 0.81056 0.0
H1353 H 0.24771 0.19554 0.79838 0.0
H1354 H 0.35244 0.07282 0.77647 0.0
H1355 H 0.4074 0.14049 0.77335 0.0
H1356 H 0.39822 0.10947 0.79228 0.0
H1357 H 0.21638 0.19102 0.77279 0.0
H1358 H 0.26736 0.20328 0.75831 0.0
H1359 H 0.21277 0.13548 0.76154 0.0
H1360 H 0.38123 0.18914 0.72469 0.0
H1361 H 0.25046 0.0257 0.73196 0.0
H1362 H 0.41377 0.22535 0.76384 0.0
H1363 H 0.36674 0.24702 0.75836 0.0
H1364 H 0.41807 0.25364 0.74472 0.0
H1365 H 0.25411 0.02668 0.77283 0.0
H1366 H 0.20963 -0.00582 0.75642 0.0
H1367 H 0.20565 0.04648 0.76735 0.0
C1368 C 0.27375 0.26936 0.98187 0.0
C1369 C 0.32297 0.27721 0.97577 0.0
C1370 C 0.26812 0.27569 0.99787 0.0
C1371 C 0.31333 0.29171 1.00792 0.0
C1372 C 0.36336 0.30016 1.00174 0.0
C1373 C 0.36735 0.29204 0.98573 0.0
C1374 C 0.2137 0.26491 1.00403 0.0
C1375 C 0.41281 0.31847 1.012 0.0
C1376 C 0.309 0.35605 0.04647 0.0
C1377 C 0.29476 0.313 0.05688 0.0
C1378 C 0.31654 0.35014 0.03055 0.0
C1379 C 0.30804 0.29945 0.02489 0.0
C1380 C 0.29319 0.25573 0.03541 0.0
C1381 C 0.28745 0.2633 0.05132 0.0
C1382 C 0.33364 0.3981 0.01979 0.0
C1383 C 0.28232 0.20066 0.0298 0.0
H1384 H 0.23941 0.25758 0.97411 0.0
H1385 H 0.40548 0.2984 0.98093 0.0
H1386 H 0.19937 0.23342 1.01329 0.0
H1387 H 0.21789 0.30246 1.00937 0.0
H1388 H 0.18215 0.25093 0.99476 0.0
H1389 H 0.44899 0.32448 1.00533 0.0
H1390 H 0.42291 0.35733 0.01786 0.0
H1391 H 0.40406 0.28792 0.02127 0.0
H1392 H 0.3149 0.39454 0.05085 0.0
H1393 H 0.27605 0.22996 0.05942 0.0
H1394 H 0.30151 0.38834 1.01093 0.0
H1395 H 0.37126 0.4068 1.01344 0.0
H1396 H 0.34128 0.43544 0.02615 0.0
H1397 H 0.24901 0.18428 0.02104 0.0
H1398 H 0.27069 0.1708 0.03946 0.0
H1399 H 0.31903 0.20456 0.02398 0.0
C1400 C 0.02406 0.36174 0.48315 0.0
C1401 C 0.03517 0.32597 0.47475 0.0
C1402 C 0.01088 0.35338 0.49906 0.0
C1403 C 0.00783 0.3076 0.50667 0.0
C1404 C 0.01927 0.27148 0.49824 0.0
C1405 C 0.03326 0.28136 0.4824 0.0
C1406 C -5e-05 0.39338 0.5077 0.0
C1407 C 0.01563 0.22178 0.50588 0.0
C1408 C 0.0181 0.30936 0.55086 0.0
C1409 C 0.96307 0.28011 0.55533 0.0
C1410 C 0.03319 0.31873 0.53509 0.0
C1411 C -0.0076 0.29743 0.52344 0.0
C1412 C 0.93686 0.26695 0.5278 0.0
C1413 C 0.92285 0.25904 0.54368 0.0
C1414 C 0.09283 0.35185 0.53092 0.0
C1415 C 0.89219 0.24302 0.5157 0.0
H1416 H 0.02582 0.3964 0.47725 0.0
H1417 H 0.04112 0.25326 0.47586 0.0
H1418 H 0.95763 0.37232 0.51222 0.0
H1419 H 0.02761 0.41013 0.5179 0.0
H1420 H 0.00561 0.42775 0.5002 0.0
H1421 H 0.02603 0.19788 0.49772 0.0
H1422 H 0.04357 0.23404 0.51603 0.0
H1423 H 0.97372 0.19503 0.51032 0.0
H1424 H 0.04967 0.32483 0.55969 0.0
H1425 H 0.88023 0.23702 0.54694 0.0
H1426 H 0.10027 0.38783 0.52392 0.0
H1427 H 0.1048 0.32719 0.52364 0.0
H1428 H 0.11951 0.36621 0.54138 0.0
H1429 H 0.89265 0.27614 0.5087 0.0
H1430 H 0.85117 0.21846 0.52099 0.0
H1431 H 0.89923 0.21673 0.50755 0.0
C1432 C 0.64237 0.98237 0.04871 0.0
C1433 C 0.65605 0.94419 0.05442 0.0
C1434 C 0.64971 -0.00212 0.03299 0.0
C1435 C 0.6687 0.97276 0.02244 0.0
C1436 C 0.6803 0.93248 0.02787 0.0
C1437 C 0.6748 0.9194 0.04382 0.0
C1438 C 0.63809 0.04196 0.02774 0.0
C1439 C 0.69887 0.90342 0.01686 0.0
C1440 C 0.639 0.97979 0.9796 0.0
C1441 C 0.69039 0.01875 0.97382 0.0
C1442 C 0.63173 0.96356 0.99527 0.0
C1443 C 0.67625 0.98866 1.0057 0.0
C1444 C 0.72771 0.02944 1.00018 0.0
C1445 C 0.73441 0.04325 0.98428 0.0
C1446 C 0.57647 0.91896 1.00061 0.0
C1447 C 0.77578 0.05846 1.01106 0.0
H1448 H 0.6261 0.00069 0.05654 0.0
H1449 H 0.68626 0.89043 0.04796 0.0
H1450 H 0.67475 0.07544 0.02208 0.0
H1451 H 0.60492 0.02549 0.01896 0.0
H1452 H 0.62603 0.05926 0.03756 0.0
H1453 H 0.70258 0.87049 0.02273 0.0
H1454 H 0.66969 0.88544 1.00703 0.0
H1455 H 0.739 0.93287 1.01182 0.0
H1456 H 0.60406 0.96155 0.97189 0.0
H1457 H 0.77454 0.07268 0.98008 0.0
H1458 H 0.55964 0.93508 1.00945 0.0
H1459 H 0.58035 0.8858 1.00623 0.0
H1460 H 0.54689 0.90134 0.99085 0.0
H1461 H 0.76496 0.07647 0.02096 0.0
H1462 H 0.81218 0.09139 1.00512 0.0
H1463 H 0.78665 0.02901 0.01601 0.0
C1464 C 0.64863 0.6928 0.55138 0.0
C1465 C 0.67846 0.66751 0.55577 0.0
C1466 C 0.63917 0.69877 0.53562 0.0
C1467 C 0.66101 0.68012 0.52389 0.0
C1468 C 0.69121 0.65467 0.52819 0.0
C1469 C 0.69908 0.64818 0.54404 0.0
C1470 C 0.60618 0.72554 0.53153 0.0
C1471 C 0.71574 0.6348 0.51602 0.0
C1472 C 0.60252 0.65458 0.48281 0.0
C1473 C 0.63955 0.70285 0.47521 0.0
C1474 C 0.60847 0.64695 0.49872 0.0
C1475 C 0.65315 0.68816 0.50713 0.0
C1476 C 0.69066 0.73698 0.49948 0.0
C1477 C 0.68311 0.74392 0.48365 0.0
C1478 C 0.56702 0.59481 0.50652 0.0
C1479 C 0.73936 0.78147 0.50795 0.0
H1480 H 0.63334 0.70893 0.56024 0.0
H1481 H 0.72133 0.62773 0.54722 0.0
H1482 H 0.63187 0.76379 0.52502 0.0
H1483 H 0.5717 0.69843 0.52381 0.0
H1484 H 0.58966 0.73529 0.54202 0.0
H1485 H 0.73867 0.61644 0.52127 0.0
H1486 H 0.68321 0.60398 0.50843 0.0
H1487 H 0.74379 0.66918 0.50844 0.0
H1488 H 0.56866 0.62291 0.4763 0.0
H1489 H 0.71219 0.78097 0.47773 0.0
H1490 H 0.54891 0.60423 0.51668 0.0
H1491 H 0.58716 0.57255 0.51099 0.0
H1492 H 0.53373 0.56755 0.49847 0.0
H1493 H 0.72575 0.79589 0.51809 0.0
H1494 H 0.7648 0.81686 0.50032 0.0
H1495 H 0.76506 0.76522 0.51253 0.0
C1496 C 0.00372 0.68631 0.97875 0.0
C1497 C 0.94859 0.65725 0.97433 0.0
C1498 C 0.01916 0.69552 0.99449 0.0
C1499 C 0.97855 0.67624 1.00616 0.0
C1500 C 0.92285 0.64759 1.00184 0.0
C1501 C 0.90854 0.63808 0.986 0.0
C1502 C 0.079 0.72581 0.99862 0.0
C1503 C 0.87836 0.62689 1.01398 0.0
C1504 C 0.01532 0.65534 0.04717 0.0
C1505 C 0.02423 0.70307 0.05467 0.0
C1506 C 0.00093 0.64633 0.03135 0.0
C1507 C -0.00555 0.68563 0.0229 0.0
C1508 C 0.00349 0.73398 0.03043 0.0
C1509 C 0.01874 0.74233 0.04621 0.0
C1510 C -0.0073 0.59478 0.02367 0.0
C1511 C -0.00373 0.77648 0.02187 0.0
H1512 H 0.0351 0.70253 0.96988 0.0
H1513 H 0.86589 0.61509 0.98277 0.0
H1514 H 0.08911 0.76346 1.00517 0.0
H1515 H 0.08864 0.70029 1.00631 0.0
H1516 H 0.10553 0.73715 0.98815 0.0
H1517 H 0.83703 0.60694 1.00869 0.0
H1518 H 0.88141 0.59712 0.02168 0.0
H1519 H 0.88332 0.66109 0.02144 0.0
H1520 H 0.01998 0.62515 0.05369 0.0
H1521 H 0.02502 0.77896 0.05206 0.0
H1522 H 0.02048 0.60507 1.01354 0.0
H1523 H 0.95044 0.57079 0.01918 0.0
H1524 H 0.00029 0.56879 0.0318 0.0
H1525 H 0.02404 0.79176 1.01169 0.0
H1526 H 0.0045 0.81163 0.02943 0.0
H1527 H 0.95403 0.75804 0.01733 0.0
C1528 C 0.23651 0.94103 0.48438 0.0
C1529 C 0.28023 0.96616 0.47386 0.0
C1530 C 0.24335 0.95483 0.50027 0.0
C1531 C 0.29459 -0.00372 0.50575 0.0
C1532 C 0.33874 0.02227 0.49526 0.0
C1533 C 0.33138 0.00607 0.47957 0.0
C1534 C 0.19569 0.92494 0.51121 0.0
C1535 C 0.3937 0.0676 0.50057 0.0
C1536 C 0.29462 0.06317 0.54422 0.0
C1537 C 0.31402 0.03851 0.55464 0.0
C1538 C 0.28954 0.05098 0.52821 0.0
C1539 C 0.30228 0.01175 0.52253 0.0
C1540 C 0.32202 0.98686 0.5329 0.0
C1541 C 0.32887 0.00146 0.54871 0.0
C1542 C 0.27006 0.07974 0.51739 0.0
C1543 C 0.33487 0.94387 0.52739 0.0
H1544 H 0.1965 0.91098 0.48022 0.0
H1545 H 0.36606 0.02496 0.47181 0.0
H1546 H 0.20722 0.90705 0.52098 0.0
H1547 H 0.18433 0.9538 0.51635 0.0
H1548 H 0.15937 0.8918 0.50526 0.0
H1549 H 0.42287 0.08596 0.49076 0.0
H1550 H 0.38911 0.10009 0.50637 0.0
H1551 H 0.41145 0.05192 0.50926 0.0
H1552 H 0.28231 0.0913 0.54855 0.0
H1553 H 0.34564 0.98331 0.55641 0.0
H1554 H 0.23 0.04996 0.51235 0.0
H1555 H 0.29896 0.09838 0.50755 0.0
H1556 H 0.26581 0.11211 0.52343 0.0
H1557 H 0.29844 0.90997 0.52172 0.0
H1558 H 0.3479 0.92691 0.53706 0.0
H1559 H 0.36773 0.96122 0.51854 0.0
loop_
_geom_bond_atom_site_label_1
_geom_bond_atom_site_label_2
_geom_bond_distance
_geom_bond_site_symmetry_2
_ccdc_geom_bond_type
C0 O16 1.251 . S
C0 O18 1.254 . S
N1 C2 1.333 . S
N1 C6 1.307 . S
N1 Zn7 2.020 . S
C2 N1 1.333 . S
C2 C3 1.379 . S
C2 H20 0.952 . S
C3 C2 1.379 . S
C3 C4 1.390 . S
C3 H30 0.949 . S
C4 C3 1.390 . S
C4 C5 1.357 . S
C5 C4 1.357 . S
C5 C6 1.370 . S
C5 H31 0.950 . S
C6 N1 1.307 . S
C6 C5 1.370 . S
C6 H24 0.948 . S
Zn7 N1 2.020 . S
Zn7 O16 2.039 . S
Zn7 O22 2.034 . S
Zn7 O26 2.025 . S
Zn7 O28 2.024 . S
C8 O27 1.246 . S
C8 O28 1.249 . S
N9 C10 1.307 . S
N9 C11 1.333 . S
N9 Zn15 2.020 . S
C10 N9 1.307 . S
C10 C14 1.370 . S
C10 H21 0.948 . S
C11 N9 1.333 . S
C11 C12 1.379 . S
C11 H19 0.952 . S
C12 C11 1.379 . S
C12 C13 1.390 . S
C12 H32 0.949 . S
C13 C12 1.390 . S
C13 C14 1.357 . S
C14 C10 1.370 . S
C14 C13 1.357 . S
C14 H33 0.950 . S
Zn15 N9 2.020 . S
Zn15 O18 2.025 . S
Zn15 O23 2.024 . S
Zn15 O25 2.039 . S
Zn15 O27 2.034 . S
O16 C0 1.251 . S
O16 Zn7 2.039 . S
C17 O22 1.246 . S
C17 O23 1.249 . S
O18 C0 1.254 . S
O18 Zn15 2.025 . S
H19 C11 0.952 . S
H20 C2 0.952 . S
H21 C10 0.948 . S
O22 Zn7 2.034 . S
O22 C17 1.246 . S
O23 Zn15 2.024 . S
O23 C17 1.249 . S
H24 C6 0.948 . S
O25 Zn15 2.039 . S
O25 C29 1.251 . S
O26 Zn7 2.025 . S
O26 C29 1.254 . S
O27 C8 1.246 . S
O27 Zn15 2.034 . S
O28 Zn7 2.024 . S
O28 C8 1.249 . S
C29 O25 1.251 . S
C29 O26 1.254 . S
H30 C3 0.949 . S
H31 C5 0.950 . S
H32 C12 0.949 . S
H33 C14 0.950 . S
C34 O50 1.251 . S
C34 O52 1.254 . S
N35 C36 1.333 . S
N35 C40 1.307 . S
N35 Zn41 2.020 . S
C36 N35 1.333 . S
C36 C37 1.379 . S
C36 H54 0.952 . S
C37 C36 1.379 . S
C37 C38 1.390 . S
C37 H64 0.949 . S
C38 C37 1.390 . S
C38 C39 1.357 . S
C39 C38 1.357 . S
C39 C40 1.370 . S
C39 H65 0.950 . S
C40 N35 1.307 . S
C40 C39 1.370 . S
C40 H58 0.948 . S
Zn41 N35 2.020 . S
Zn41 O50 2.039 . S
Zn41 O56 2.034 . S
Zn41 O60 2.025 . S
Zn41 O62 2.024 . S
C42 O61 1.246 . S
C42 O62 1.249 . S
N43 C44 1.307 . S
N43 C45 1.333 . S
N43 Zn49 2.020 . S
C44 N43 1.307 . S
C44 C48 1.370 . S
C44 H55 0.948 . S
C45 N43 1.333 . S
C45 C46 1.379 . S
C45 H53 0.952 . S
C46 C45 1.379 . S
C46 C47 1.390 . S
C46 H66 0.949 . S
C47 C46 1.390 . S
C47 C48 1.357 . S
C48 C44 1.370 . S
C48 C47 1.357 . S
C48 H67 0.950 . S
Zn49 N43 2.020 . S
Zn49 O52 2.025 . S
Zn49 O57 2.024 . S
Zn49 O59 2.039 . S
Zn49 O61 2.034 . S
O50 C34 1.251 . S
O50 Zn41 2.039 . S
C51 O56 1.246 . S
C51 O57 1.249 . S
O52 C34 1.254 . S
O52 Zn49 2.025 . S
H53 C45 0.952 . S
H54 C36 0.952 . S
H55 C44 0.948 . S
O56 Zn41 2.034 . S
O56 C51 1.246 . S
O57 Zn49 2.024 . S
O57 C51 1.249 . S
H58 C40 0.948 . S
O59 Zn49 2.039 . S
O59 C63 1.251 . S
O60 Zn41 2.025 . S
O60 C63 1.254 . S
O61 C42 1.246 . S
O61 Zn49 2.034 . S
O62 Zn41 2.024 . S
O62 C42 1.249 . S
C63 O59 1.251 . S
C63 O60 1.254 . S
H64 C37 0.949 . S
H65 C39 0.950 . S
H66 C46 0.949 . S
H67 C48 0.950 . S
C68 O84 1.251 . S
C68 O86 1.254 . S
N69 C70 1.333 . S
N69 C74 1.307 . S
N69 Zn75 2.020 . S
C70 N69 1.333 . S
C70 C71 1.379 . S
C70 H88 0.952 . S
C71 C70 1.379 . S
C71 C72 1.390 . S
C71 H98 0.949 . S
C72 C71 1.390 . S
C72 C73 1.357 . S
C73 C72 1.357 . S
C73 C74 1.370 . S
C73 H99 0.950 . S
C74 N69 1.307 . S
C74 C73 1.370 . S
C74 H92 0.948 . S
Zn75 N69 2.020 . S
Zn75 O84 2.039 . S
Zn75 O90 2.034 . S
Zn75 O94 2.025 . S
Zn75 O96 2.024 . S
C76 O95 1.246 . S
C76 O96 1.249 . S
N77 C78 1.307 . S
N77 C79 1.333 . S
N77 Zn83 2.020 . S
C78 N77 1.307 . S
C78 C82 1.370 . S
C78 H89 0.948 . S
C79 N77 1.333 . S
C79 C80 1.379 . S
C79 H87 0.952 . S
C80 C79 1.379 . S
C80 C81 1.390 . S
C80 H100 0.949 . S
C81 C80 1.390 . S
C81 C82 1.357 . S
C82 C78 1.370 . S
C82 C81 1.357 . S
C82 H101 0.950 . S
Zn83 N77 2.020 . S
Zn83 O86 2.025 . S
Zn83 O91 2.024 . S
Zn83 O93 2.039 . S
Zn83 O95 2.034 . S
O84 C68 1.251 . S
O84 Zn75 2.039 . S
C85 O90 1.246 . S
C85 O91 1.249 . S
O86 C68 1.254 . S
O86 Zn83 2.025 . S
H87 C79 0.952 . S
H88 C70 0.952 . S
H89 C78 0.948 . S
O90 Zn75 2.034 . S
O90 C85 1.246 . S
O91 Zn83 2.024 . S
O91 C85 1.249 . S
H92 C74 0.948 . S
O93 Zn83 2.039 . S
O93 C97 1.251 . S
O94 Zn75 2.025 . S
O94 C97 1.254 . S
O95 C76 1.246 . S
O95 Zn83 2.034 . S
O96 Zn75 2.024 . S
O96 C76 1.249 . S
C97 O93 1.251 . S
C97 O94 1.254 . S
H98 C71 0.949 . S
H99 C73 0.950 . S
H100 C80 0.949 . S
H101 C82 0.950 . S
C102 O118 1.251 . S
C102 O120 1.254 . S
N103 C104 1.333 . S
N103 C108 1.307 . S
N103 Zn109 2.020 . S
C104 N103 1.333 . S
C104 C105 1.379 . S
C104 H122 0.952 . S
C105 C104 1.379 . S
C105 C106 1.390 . S
C105 H132 0.949 . S
C106 C105 1.390 . S
C106 C107 1.357 . S
C107 C106 1.357 . S
C107 C108 1.370 . S
C107 H133 0.950 . S
C108 N103 1.307 . S
C108 C107 1.370 . S
C108 H126 0.948 . S
Zn109 N103 2.020 . S
Zn109 O118 2.039 . S
Zn109 O124 2.034 . S
Zn109 O128 2.025 . S
Zn109 O130 2.024 . S
C110 O129 1.246 . S
C110 O130 1.249 . S
N111 C112 1.307 . S
N111 C113 1.333 . S
N111 Zn117 2.020 . S
C112 N111 1.307 . S
C112 C116 1.370 . S
C112 H123 0.948 . S
C113 N111 1.333 . S
C113 C114 1.379 . S
C113 H121 0.952 . S
C114 C113 1.379 . S
C114 C115 1.390 . S
C114 H134 0.949 . S
C115 C114 1.390 . S
C115 C116 1.357 . S
C116 C112 1.370 . S
C116 C115 1.357 . S
C116 H135 0.950 . S
Zn117 N111 2.020 . S
Zn117 O120 2.025 . S
Zn117 O125 2.024 . S
Zn117 O127 2.039 . S
Zn117 O129 2.034 . S
O118 C102 1.251 . S
O118 Zn109 2.039 . S
C119 O124 1.246 . S
C119 O125 1.249 . S
O120 C102 1.254 . S
O120 Zn117 2.025 . S
H121 C113 0.952 . S
H122 C104 0.952 . S
H123 C112 0.948 . S
O124 Zn109 2.034 . S
O124 C119 1.246 . S
O125 Zn117 2.024 . S
O125 C119 1.249 . S
H126 C108 0.948 . S
O127 Zn117 2.039 . S
O127 C131 1.251 . S
O128 Zn109 2.025 . S
O128 C131 1.254 . S
O129 C110 1.246 . S
O129 Zn117 2.034 . S
O130 Zn109 2.024 . S
O130 C110 1.249 . S
C131 O127 1.251 . S
C131 O128 1.254 . S
H132 C105 0.949 . S
H133 C107 0.950 . S
H134 C114 0.949 . S
H135 C116 0.950 . S
C136 O152 1.251 . S
C136 O154 1.254 . S
N137 C138 1.333 . S
N137 C142 1.307 . S
N137 Zn143 2.020 . S
C138 N137 1.333 . S
C138 C139 1.379 . S
C138 H156 0.952 . S
C139 C138 1.379 . S
C139 C140 1.390 . S
C139 H166 0.949 . S
C140 C139 1.390 . S
C140 C141 1.357 . S
C141 C140 1.357 . S
C141 C142 1.370 . S
C141 H167 0.950 . S
C142 N137 1.307 . S
C142 C141 1.370 . S
C142 H160 0.948 . S
Zn143 N137 2.020 . S
Zn143 O152 2.039 . S
Zn143 O158 2.034 . S
Zn143 O162 2.025 . S
Zn143 O164 2.024 . S
C144 O163 1.246 . S
C144 O164 1.249 . S
N145 C146 1.307 . S
N145 C147 1.333 . S
N145 Zn151 2.020 . S
C146 N145 1.307 . S
C146 C150 1.370 . S
C146 H157 0.948 . S
C147 N145 1.333 . S
C147 C148 1.379 . S
C147 H155 0.952 . S
C148 C147 1.379 . S
C148 C149 1.390 . S
C148 H168 0.949 . S
C149 C148 1.390 . S
C149 C150 1.357 . S
C150 C146 1.370 . S
C150 C149 1.357 . S
C150 H169 0.950 . S
Zn151 N145 2.020 . S
Zn151 O154 2.025 . S
Zn151 O159 2.024 . S
Zn151 O161 2.039 . S
Zn151 O163 2.034 . S
O152 C136 1.251 . S
O152 Zn143 2.039 . S
C153 O158 1.246 . S
C153 O159 1.249 . S
O154 C136 1.254 . S
O154 Zn151 2.025 . S
H155 C147 0.952 . S
H156 C138 0.952 . S
H157 C146 0.948 . S
O158 Zn143 2.034 . S
O158 C153 1.246 . S
O159 Zn151 2.024 . S
O159 C153 1.249 . S
H160 C142 0.948 . S
O161 Zn151 2.039 . S
O161 C165 1.251 . S
O162 Zn143 2.025 . S
O162 C165 1.254 . S
O163 C144 1.246 . S
O163 Zn151 2.034 . S
O164 Zn143 2.024 . S
O164 C144 1.249 . S
C165 O161 1.251 . S
C165 O162 1.254 . S
H166 C139 0.949 . S
H167 C141 0.950 . S
H168 C148 0.949 . S
H169 C150 0.950 . S
C170 O186 1.251 . S
C170 O188 1.254 . S
N171 C172 1.333 . S
N171 C176 1.307 . S
N171 Zn177 2.020 . S
C172 N171 1.333 . S
C172 C173 1.379 . S
C172 H190 0.952 . S
C173 C172 1.379 . S
C173 C174 1.390 . S
C173 H200 0.949 . S
C174 C173 1.390 . S
C174 C175 1.357 . S
C175 C174 1.357 . S
C175 C176 1.370 . S
C175 H201 0.950 . S
C176 N171 1.307 . S
C176 C175 1.370 . S
C176 H194 0.948 . S
Zn177 N171 2.020 . S
Zn177 O186 2.039 . S
Zn177 O192 2.034 . S
Zn177 O196 2.025 . S
Zn177 O198 2.024 . S
C178 O197 1.246 . S
C178 O198 1.249 . S
N179 C180 1.307 . S
N179 C181 1.333 . S
N179 Zn185 2.020 . S
C180 N179 1.307 . S
C180 C184 1.370 . S
C180 H191 0.948 . S
C181 N179 1.333 . S
C181 C182 1.379 . S
C181 H189 0.952 . S
C182 C181 1.379 . S
C182 C183 1.390 . S
C182 H202 0.949 . S
C183 C182 1.390 . S
C183 C184 1.357 . S
C184 C180 1.370 . S
C184 C183 1.357 . S
C184 H203 0.950 . S
Zn185 N179 2.020 . S
Zn185 O188 2.025 . S
Zn185 O193 2.024 . S
Zn185 O195 2.039 . S
Zn185 O197 2.034 . S
O186 C170 1.251 . S
O186 Zn177 2.039 . S
C187 O192 1.246 . S
C187 O193 1.249 . S
O188 C170 1.254 . S
O188 Zn185 2.025 . S
H189 C181 0.952 . S
H190 C172 0.952 . S
H191 C180 0.948 . S
O192 Zn177 2.034 . S
O192 C187 1.246 . S
O193 Zn185 2.024 . S
O193 C187 1.249 . S
H194 C176 0.948 . S
O195 Zn185 2.039 . S
O195 C199 1.251 . S
O196 Zn177 2.025 . S
O196 C199 1.254 . S
O197 C178 1.246 . S
O197 Zn185 2.034 . S
O198 Zn177 2.024 . S
O198 C178 1.249 . S
C199 O195 1.251 . S
C199 O196 1.254 . S
H200 C173 0.949 . S
H201 C175 0.950 . S
H202 C182 0.949 . S
H203 C184 0.950 . S
C204 O220 1.251 . S
C204 O222 1.254 . S
N205 C206 1.333 . S
N205 C210 1.307 . S
N205 Zn211 2.020 . S
C206 N205 1.333 . S
C206 C207 1.379 . S
C206 H224 0.952 . S
C207 C206 1.379 . S
C207 C208 1.390 . S
C207 H234 0.949 . S
C208 C207 1.390 . S
C208 C209 1.357 . S
C209 C208 1.357 . S
C209 C210 1.370 . S
C209 H235 0.950 . S
C210 N205 1.307 . S
C210 C209 1.370 . S
C210 H228 0.948 . S
Zn211 N205 2.020 . S
Zn211 O220 2.039 . S
Zn211 O226 2.034 . S
Zn211 O230 2.025 . S
Zn211 O232 2.024 . S
C212 O231 1.246 . S
C212 O232 1.249 . S
N213 C214 1.307 . S
N213 C215 1.333 . S
N213 Zn219 2.020 . S
C214 N213 1.307 . S
C214 C218 1.370 . S
C214 H225 0.948 . S
C215 N213 1.333 . S
C215 C216 1.379 . S
C215 H223 0.952 . S
C216 C215 1.379 . S
C216 C217 1.390 . S
C216 H236 0.949 . S
C217 C216 1.390 . S
C217 C218 1.357 . S
C218 C214 1.370 . S
C218 C217 1.357 . S
C218 H237 0.950 . S
Zn219 N213 2.020 . S
Zn219 O222 2.025 . S
Zn219 O227 2.024 . S
Zn219 O229 2.039 . S
Zn219 O231 2.034 . S
O220 C204 1.251 . S
O220 Zn211 2.039 . S
C221 O226 1.246 . S
C221 O227 1.249 . S
O222 C204 1.254 . S
O222 Zn219 2.025 . S
H223 C215 0.952 . S
H224 C206 0.952 . S
H225 C214 0.948 . S
O226 Zn211 2.034 . S
O226 C221 1.246 . S
O227 Zn219 2.024 . S
O227 C221 1.249 . S
H228 C210 0.948 . S
O229 Zn219 2.039 . S
O229 C233 1.251 . S
O230 Zn211 2.025 . S
O230 C233 1.254 . S
O231 C212 1.246 . S
O231 Zn219 2.034 . S
O232 Zn211 2.024 . S
O232 C212 1.249 . S
C233 O229 1.251 . S
C233 O230 1.254 . S
H234 C207 0.949 . S
H235 C209 0.950 . S
H236 C216 0.949 . S
H237 C218 0.950 . S
C238 O254 1.251 . S
C238 O256 1.254 . S
N239 C240 1.333 . S
N239 C244 1.307 . S
N239 Zn245 2.020 . S
C240 N239 1.333 . S
C240 C241 1.379 . S
C240 H258 0.952 . S
C241 C240 1.379 . S
C241 C242 1.390 . S
C241 H268 0.949 . S
C242 C241 1.390 . S
C242 C243 1.357 . S
C243 C242 1.357 . S
C243 C244 1.370 . S
C243 H269 0.950 . S
C244 N239 1.307 . S
C244 C243 1.370 . S
C244 H262 0.948 . S
Zn245 N239 2.020 . S
Zn245 O254 2.039 . S
Zn245 O260 2.034 . S
Zn245 O264 2.025 . S
Zn245 O266 2.024 . S
C246 O265 1.246 . S
C246 O266 1.249 . S
N247 C248 1.307 . S
N247 C249 1.333 . S
N247 Zn253 2.020 . S
C248 N247 1.307 . S
C248 C252 1.370 . S
C248 H259 0.948 . S
C249 N247 1.333 . S
C249 C250 1.379 . S
C249 H257 0.952 . S
C250 C249 1.379 . S
C250 C251 1.390 . S
C250 H270 0.949 . S
C251 C250 1.390 . S
C251 C252 1.357 . S
C252 C248 1.370 . S
C252 C251 1.357 . S
C252 H271 0.950 . S
Zn253 N247 2.020 . S
Zn253 O256 2.025 . S
Zn253 O261 2.024 . S
Zn253 O263 2.039 . S
Zn253 O265 2.034 . S
O254 C238 1.251 . S
O254 Zn245 2.039 . S
C255 O260 1.246 . S
C255 O261 1.249 . S
O256 C238 1.254 . S
O256 Zn253 2.025 . S
H257 C249 0.952 . S
H258 C240 0.952 . S
H259 C248 0.948 . S
O260 Zn245 2.034 . S
O260 C255 1.246 . S
O261 Zn253 2.024 . S
O261 C255 1.249 . S
H262 C244 0.948 . S
O263 Zn253 2.039 . S
O263 C267 1.251 . S
O264 Zn245 2.025 . S
O264 C267 1.254 . S
O265 C246 1.246 . S
O265 Zn253 2.034 . S
O266 Zn245 2.024 . S
O266 C246 1.249 . S
C267 O263 1.251 . S
C267 O264 1.254 . S
H268 C241 0.949 . S
H269 C243 0.950 . S
H270 C250 0.949 . S
H271 C252 0.950 . S
C272 O288 1.251 . S
C272 O290 1.254 . S
N273 C274 1.333 . S
N273 C278 1.307 . S
N273 Zn279 2.020 . S
C274 N273 1.333 . S
C274 C275 1.379 . S
C274 H292 0.952 . S
C275 C274 1.379 . S
C275 C276 1.390 . S
C275 H302 0.949 . S
C276 C275 1.390 . S
C276 C277 1.357 . S
C277 C276 1.357 . S
C277 C278 1.370 . S
C277 H303 0.950 . S
C278 N273 1.307 . S
C278 C277 1.370 . S
C278 H296 0.948 . S
Zn279 N273 2.020 . S
Zn279 O288 2.039 . S
Zn279 O294 2.034 . S
Zn279 O298 2.025 . S
Zn279 O300 2.024 . S
C280 O299 1.246 . S
C280 O300 1.249 . S
N281 C282 1.307 . S
N281 C283 1.333 . S
N281 Zn287 2.020 . S
C282 N281 1.307 . S
C282 C286 1.370 . S
C282 H293 0.948 . S
C283 N281 1.333 . S
C283 C284 1.379 . S
C283 H291 0.952 . S
C284 C283 1.379 . S
C284 C285 1.390 . S
C284 H304 0.949 . S
C285 C284 1.390 . S
C285 C286 1.357 . S
C286 C282 1.370 . S
C286 C285 1.357 . S
C286 H305 0.950 . S
Zn287 N281 2.020 . S
Zn287 O290 2.025 . S
Zn287 O295 2.024 . S
Zn287 O297 2.039 . S
Zn287 O299 2.034 . S
O288 C272 1.251 . S
O288 Zn279 2.039 . S
C289 O294 1.246 . S
C289 O295 1.249 . S
O290 C272 1.254 . S
O290 Zn287 2.025 . S
H291 C283 0.952 . S
H292 C274 0.952 . S
H293 C282 0.948 . S
O294 Zn279 2.034 . S
O294 C289 1.246 . S
O295 Zn287 2.024 . S
O295 C289 1.249 . S
H296 C278 0.948 . S
O297 Zn287 2.039 . S
O297 C301 1.251 . S
O298 Zn279 2.025 . S
O298 C301 1.254 . S
O299 C280 1.246 . S
O299 Zn287 2.034 . S
O300 Zn279 2.024 . S
O300 C280 1.249 . S
C301 O297 1.251 . S
C301 O298 1.254 . S
H302 C275 0.949 . S
H303 C277 0.950 . S
H304 C284 0.949 . S
H305 C286 0.950 . S
C306 O322 1.251 . S
C306 O324 1.254 . S
N307 C308 1.333 . S
N307 C312 1.307 . S
N307 Zn313 2.020 . S
C308 N307 1.333 . S
C308 C309 1.379 . S
C308 H326 0.952 . S
C309 C308 1.379 . S
C309 C310 1.390 . S
C309 H336 0.949 . S
C310 C309 1.390 . S
C310 C311 1.357 . S
C311 C310 1.357 . S
C311 C312 1.370 . S
C311 H337 0.950 . S
C312 N307 1.307 . S
C312 C311 1.370 . S
C312 H330 0.948 . S
Zn313 N307 2.020 . S
Zn313 O322 2.039 . S
Zn313 O328 2.034 . S
Zn313 O332 2.025 . S
Zn313 O334 2.024 . S
C314 O333 1.246 . S
C314 O334 1.249 . S
N315 C316 1.307 . S
N315 C317 1.333 . S
N315 Zn321 2.020 . S
C316 N315 1.307 . S
C316 C320 1.370 . S
C316 H327 0.948 . S
C317 N315 1.333 . S
C317 C318 1.379 . S
C317 H325 0.952 . S
C318 C317 1.379 . S
C318 C319 1.390 . S
C318 H338 0.949 . S
C319 C318 1.390 . S
C319 C320 1.357 . S
C320 C316 1.370 . S
C320 C319 1.357 . S
C320 H339 0.950 . S
Zn321 N315 2.020 . S
Zn321 O324 2.025 . S
Zn321 O329 2.024 . S
Zn321 O331 2.039 . S
Zn321 O333 2.034 . S
O322 C306 1.251 . S
O322 Zn313 2.039 . S
C323 O328 1.246 . S
C323 O329 1.249 . S
O324 C306 1.254 . S
O324 Zn321 2.025 . S
H325 C317 0.952 . S
H326 C308 0.952 . S
H327 C316 0.948 . S
O328 Zn313 2.034 . S
O328 C323 1.246 . S
O329 Zn321 2.024 . S
O329 C323 1.249 . S
H330 C312 0.948 . S
O331 Zn321 2.039 . S
O331 C335 1.251 . S
O332 Zn313 2.025 . S
O332 C335 1.254 . S
O333 C314 1.246 . S
O333 Zn321 2.034 . S
O334 Zn313 2.024 . S
O334 C314 1.249 . S
C335 O331 1.251 . S
C335 O332 1.254 . S
H336 C309 0.949 . S
H337 C311 0.950 . S
H338 C318 0.949 . S
H339 C320 0.950 . S
C340 O356 1.251 . S
C340 O358 1.254 . S
N341 C342 1.333 . S
N341 C346 1.307 . S
N341 Zn347 2.020 . S
C342 N341 1.333 . S
C342 C343 1.379 . S
C342 H360 0.952 . S
C343 C342 1.379 . S
C343 C344 1.390 . S
C343 H370 0.949 . S
C344 C343 1.390 . S
C344 C345 1.357 . S
C345 C344 1.357 . S
C345 C346 1.370 . S
C345 H371 0.950 . S
C346 N341 1.307 . S
C346 C345 1.370 . S
C346 H364 0.948 . S
Zn347 N341 2.020 . S
Zn347 O356 2.039 . S
Zn347 O362 2.034 . S
Zn347 O366 2.025 . S
Zn347 O368 2.024 . S
C348 O367 1.246 . S
C348 O368 1.249 . S
N349 C350 1.307 . S
N349 C351 1.333 . S
N349 Zn355 2.020 . S
C350 N349 1.307 . S
C350 C354 1.370 . S
C350 H361 0.948 . S
C351 N349 1.333 . S
C351 C352 1.379 . S
C351 H359 0.952 . S
C352 C351 1.379 . S
C352 C353 1.390 . S
C352 H372 0.949 . S
C353 C352 1.390 . S
C353 C354 1.357 . S
C354 C350 1.370 . S
C354 C353 1.357 . S
C354 H373 0.950 . S
Zn355 N349 2.020 . S
Zn355 O358 2.025 . S
Zn355 O363 2.024 . S
Zn355 O365 2.039 . S
Zn355 O367 2.034 . S
O356 C340 1.251 . S
O356 Zn347 2.039 . S
C357 O362 1.246 . S
C357 O363 1.249 . S
O358 C340 1.254 . S
O358 Zn355 2.025 . S
H359 C351 0.952 . S
H360 C342 0.952 . S
H361 C350 0.948 . S
O362 Zn347 2.034 . S
O362 C357 1.246 . S
O363 Zn355 2.024 . S
O363 C357 1.249 . S
H364 C346 0.948 . S
O365 Zn355 2.039 . S
O365 C369 1.251 . S
O366 Zn347 2.025 . S
O366 C369 1.254 . S
O367 C348 1.246 . S
O367 Zn355 2.034 . S
O368 Zn347 2.024 . S
O368 C348 1.249 . S
C369 O365 1.251 . S
C369 O366 1.254 . S
H370 C343 0.949 . S
H371 C345 0.950 . S
H372 C352 0.949 . S
H373 C354 0.950 . S
C374 O390 1.251 . S
C374 O392 1.254 . S
N375 C376 1.333 . S
N375 C380 1.307 . S
N375 Zn381 2.020 . S
C376 N375 1.333 . S
C376 C377 1.379 . S
C376 H394 0.952 . S
C377 C376 1.379 . S
C377 C378 1.390 . S
C377 H404 0.949 . S
C378 C377 1.390 . S
C378 C379 1.357 . S
C379 C378 1.357 . S
C379 C380 1.370 . S
C379 H405 0.950 . S
C380 N375 1.307 . S
C380 C379 1.370 . S
C380 H398 0.948 . S
Zn381 N375 2.020 . S
Zn381 O390 2.039 . S
Zn381 O396 2.034 . S
Zn381 O400 2.025 . S
Zn381 O402 2.024 . S
C382 O401 1.246 . S
C382 O402 1.249 . S
N383 C384 1.307 . S
N383 C385 1.333 . S
N383 Zn389 2.020 . S
C384 N383 1.307 . S
C384 C388 1.370 . S
C384 H395 0.948 . S
C385 N383 1.333 . S
C385 C386 1.379 . S
C385 H393 0.952 . S
C386 C385 1.379 . S
C386 C387 1.390 . S
C386 H406 0.949 . S
C387 C386 1.390 . S
C387 C388 1.357 . S
C388 C384 1.370 . S
C388 C387 1.357 . S
C388 H407 0.950 . S
Zn389 N383 2.020 . S
Zn389 O392 2.025 . S
Zn389 O397 2.024 . S
Zn389 O399 2.039 . S
Zn389 O401 2.034 . S
O390 C374 1.251 . S
O390 Zn381 2.039 . S
C391 O396 1.246 . S
C391 O397 1.249 . S
O392 C374 1.254 . S
O392 Zn389 2.025 . S
H393 C385 0.952 . S
H394 C376 0.952 . S
H395 C384 0.948 . S
O396 Zn381 2.034 . S
O396 C391 1.246 . S
O397 Zn389 2.024 . S
O397 C391 1.249 . S
H398 C380 0.948 . S
O399 Zn389 2.039 . S
O399 C403 1.251 . S
O400 Zn381 2.025 . S
O400 C403 1.254 . S
O401 C382 1.246 . S
O401 Zn389 2.034 . S
O402 Zn381 2.024 . S
O402 C382 1.249 . S
C403 O399 1.251 . S
C403 O400 1.254 . S
H404 C377 0.949 . S
H405 C379 0.950 . S
H406 C386 0.949 . S
H407 C388 0.950 . S
C408 C409 1.391 . S
C408 C410 1.394 1_565 S
C408 H424 0.931 . S
C409 C408 1.391 . S
C409 C413 1.376 . S
C410 C408 1.394 1_545 S
C410 C411 1.369 . S
C410 C414 1.531 . S
C411 C410 1.369 . S
C411 C412 1.410 . S
C411 C419 1.503 . S
C412 C411 1.410 . S
C412 C413 1.392 1_545 S
C412 C415 1.511 . S
C413 C409 1.376 . S
C413 C412 1.392 1_565 S
C413 H425 0.929 . S
C414 C410 1.531 . S
C414 H426 0.960 . S
C414 H427 0.962 . S
C414 H428 0.960 . S
C415 C412 1.511 . S
C415 H429 0.961 1_545 S
C415 H430 0.961 . S
C415 H431 0.961 . S
C416 C417 1.370 . S
C416 C418 1.363 . S
C416 H432 0.931 . S
C417 C416 1.370 . S
C417 C421 1.408 . S
C418 C416 1.363 . S
C418 C419 1.370 . S
C418 C422 1.524 . S
C419 C411 1.503 . S
C419 C418 1.370 . S
C419 C420 1.403 . S
C420 C419 1.403 . S
C420 C421 1.404 . S
C420 C423 1.539 . S
C421 C417 1.408 . S
C421 C420 1.404 . S
C421 H433 0.930 . S
C422 C418 1.524 . S
C422 H434 0.956 . S
C422 H435 0.961 . S
C422 H436 0.961 . S
C423 C420 1.539 . S
C423 H437 0.958 . S
C423 H438 0.961 . S
C423 H439 0.960 . S
H424 C408 0.931 . S
H425 C413 0.929 . S
H426 C414 0.960 . S
H427 C414 0.962 . S
H428 C414 0.960 . S
H429 C415 0.961 1_565 S
H430 C415 0.961 . S
H431 C415 0.961 . S
H432 C416 0.931 . S
H433 C421 0.930 . S
H434 C422 0.956 . S
H435 C422 0.961 . S
H436 C422 0.961 . S
H437 C423 0.958 . S
H438 C423 0.961 . S
H439 C423 0.960 . S
C440 C441 1.391 . S
C440 C442 1.394 . S
C440 H456 0.931 . S
C441 C440 1.391 . S
C441 C445 1.376 . S
C442 C440 1.394 . S
C442 C443 1.369 . S
C442 C446 1.531 . S
C443 C442 1.369 . S
C443 C444 1.410 . S
C443 C451 1.503 . S
C444 C443 1.410 . S
C444 C445 1.392 . S
C444 C447 1.511 . S
C445 C441 1.376 . S
C445 C444 1.392 . S
C445 H457 0.929 . S
C446 C442 1.531 . S
C446 H458 0.960 . S
C446 H459 0.962 . S
C446 H460 0.960 . S
C447 C444 1.511 . S
C447 H461 0.961 . S
C447 H462 0.961 . S
C447 H463 0.961 . S
C448 C449 1.370 . S
C448 C450 1.363 . S
C448 H464 0.931 1_455 S
C449 C448 1.370 . S
C449 C453 1.408 . S
C450 C448 1.363 . S
C450 C451 1.370 . S
C450 C454 1.524 . S
C451 C443 1.503 . S
C451 C450 1.370 . S
C451 C452 1.403 . S
C452 C451 1.403 . S
C452 C453 1.404 . S
C452 C455 1.539 . S
C453 C449 1.408 . S
C453 C452 1.404 . S
C453 H465 0.930 . S
C454 C450 1.524 . S
C454 H466 0.956 . S
C454 H467 0.961 . S
C454 H468 0.961 . S
C455 C452 1.539 . S
C455 H469 0.958 . S
C455 H470 0.961 . S
C455 H471 0.960 . S
H456 C440 0.931 . S
H457 C445 0.929 . S
H458 C446 0.960 . S
H459 C446 0.962 . S
H460 C446 0.960 . S
H461 C447 0.961 . S
H462 C447 0.961 . S
H463 C447 0.961 . S
H464 C448 0.931 1_655 S
H465 C453 0.930 . S
H466 C454 0.956 . S
H467 C454 0.961 . S
H468 C454 0.961 . S
H469 C455 0.958 . S
H470 C455 0.961 . S
H471 C455 0.960 . S
C472 C473 1.391 1_565 S
C472 C474 1.394 1_565 S
C472 H488 0.931 . S
C473 C472 1.391 1_545 S
C473 C477 1.376 . S
C474 C472 1.394 1_545 S
C474 C475 1.369 . S
C474 C478 1.531 . S
C475 C474 1.369 . S
C475 C476 1.410 . S
C475 C483 1.503 . S
C476 C475 1.410 . S
C476 C477 1.392 . S
C476 C479 1.511 . S
C477 C473 1.376 . S
C477 C476 1.392 . S
C477 H489 0.929 . S
C478 C474 1.531 . S
C478 H490 0.960 . S
C478 H491 0.962 . S
C478 H492 0.960 . S
C479 C476 1.511 . S
C479 H493 0.961 . S
C479 H494 0.961 . S
C479 H495 0.961 . S
C480 C481 1.370 . S
C480 C482 1.363 1_455 S
C480 H496 0.931 . S
C481 C480 1.370 . S
C481 C485 1.408 . S
C482 C480 1.363 1_655 S
C482 C483 1.370 . S
C482 C486 1.524 . S
C483 C475 1.503 . S
C483 C482 1.370 . S
C483 C484 1.403 . S
C484 C483 1.403 . S
C484 C485 1.404 1_655 S
C484 C487 1.539 . S
C485 C481 1.408 . S
C485 C484 1.404 1_455 S
C485 H497 0.930 . S
C486 C482 1.524 . S
C486 H498 0.956 . S
C486 H499 0.961 . S
C486 H500 0.961 . S
C487 C484 1.539 . S
C487 H501 0.958 . S
C487 H502 0.961 . S
C487 H503 0.960 . S
H488 C472 0.931 . S
H489 C477 0.929 . S
H490 C478 0.960 . S
H491 C478 0.962 . S
H492 C478 0.960 . S
H493 C479 0.961 . S
H494 C479 0.961 . S
H495 C479 0.961 . S
H496 C480 0.931 . S
H497 C485 0.930 . S
H498 C486 0.956 . S
H499 C486 0.961 . S
H500 C486 0.961 . S
H501 C487 0.958 . S
H502 C487 0.961 . S
H503 C487 0.960 . S
C504 C505 1.391 . S
C504 C506 1.394 . S
C504 H520 0.931 . S
C505 C504 1.391 . S
C505 C509 1.376 . S
C506 C504 1.394 . S
C506 C507 1.369 . S
C506 C510 1.531 . S
C507 C506 1.369 . S
C507 C508 1.410 . S
C507 C515 1.503 . S
C508 C507 1.410 . S
C508 C509 1.392 . S
C508 C511 1.511 . S
C509 C505 1.376 . S
C509 C508 1.392 . S
C509 H521 0.929 . S
C510 C506 1.531 . S
C510 H522 0.960 . S
C510 H523 0.962 . S
C510 H524 0.960 . S
C511 C508 1.511 . S
C511 H525 0.961 . S
C511 H526 0.961 . S
C511 H527 0.961 . S
C512 C513 1.370 . S
C512 C514 1.363 1_545 S
C512 H528 0.931 . S
C513 C512 1.370 . S
C513 C517 1.408 . S
C514 C512 1.363 1_565 S
C514 C515 1.370 . S
C514 C518 1.524 . S
C515 C507 1.503 . S
C515 C514 1.370 . S
C515 C516 1.403 . S
C516 C515 1.403 . S
C516 C517 1.404 1_565 S
C516 C519 1.539 . S
C517 C513 1.408 . S
C517 C516 1.404 1_545 S
C517 H529 0.930 . S
C518 C514 1.524 . S
C518 H530 0.956 . S
C518 H531 0.961 . S
C518 H532 0.961 . S
C519 C516 1.539 . S
C519 H533 0.958 . S
C519 H534 0.961 . S
C519 H535 0.960 . S
H520 C504 0.931 . S
H521 C509 0.929 . S
H522 C510 0.960 . S
H523 C510 0.962 . S
H524 C510 0.960 . S
H525 C511 0.961 . S
H526 C511 0.961 . S
H527 C511 0.961 . S
H528 C512 0.931 . S
H529 C517 0.930 . S
H530 C518 0.956 . S
H531 C518 0.961 . S
H532 C518 0.961 . S
H533 C519 0.958 . S
H534 C519 0.961 . S
H535 C519 0.960 . S
C536 C537 1.391 1_455 S
C536 C538 1.394 1_455 S
C536 H552 0.931 . S
C537 C536 1.391 1_655 S
C537 C541 1.376 . S
C538 C536 1.394 1_655 S
C538 C539 1.369 . S
C538 C542 1.531 . S
C539 C538 1.369 . S
C539 C540 1.410 . S
C539 C547 1.503 . S
C540 C539 1.410 . S
C540 C541 1.392 . S
C540 C543 1.511 . S
C541 C537 1.376 . S
C541 C540 1.392 . S
C541 H553 0.929 . S
C542 C538 1.531 . S
C542 H554 0.960 . S
C542 H555 0.962 . S
C542 H556 0.960 . S
C543 C540 1.511 . S
C543 H557 0.961 . S
C543 H558 0.961 . S
C543 H559 0.961 . S
C544 C545 1.370 . S
C544 C546 1.363 . S
C544 H560 0.931 . S
C545 C544 1.370 . S
C545 C549 1.408 . S
C546 C544 1.363 . S
C546 C547 1.370 . S
C546 C550 1.524 . S
C547 C539 1.503 . S
C547 C546 1.370 . S
C547 C548 1.403 . S
C548 C547 1.403 . S
C548 C549 1.404 . S
C548 C551 1.539 . S
C549 C545 1.408 . S
C549 C548 1.404 . S
C549 H561 0.930 . S
C550 C546 1.524 . S
C550 H562 0.956 . S
C550 H563 0.961 . S
C550 H564 0.961 . S
C551 C548 1.539 . S
C551 H565 0.958 . S
C551 H566 0.961 . S
C551 H567 0.960 . S
H552 C536 0.931 . S
H553 C541 0.929 . S
H554 C542 0.960 . S
H555 C542 0.962 . S
H556 C542 0.960 . S
H557 C543 0.961 . S
H558 C543 0.961 . S
H559 C543 0.961 . S
H560 C544 0.931 . S
H561 C549 0.930 . S
H562 C550 0.956 . S
H563 C550 0.961 . S
H564 C550 0.961 . S
H565 C551 0.958 . S
H566 C551 0.961 . S
H567 C551 0.960 . S
C568 C569 1.391 . S
C568 C570 1.394 1_655 S
C568 H584 0.931 . S
C569 C568 1.391 . S
C569 C573 1.376 . S
C570 C568 1.394 1_455 S
C570 C571 1.369 . S
C570 C574 1.531 . S
C571 C570 1.369 . S
C571 C572 1.410 . S
C571 C579 1.503 . S
C572 C571 1.410 . S
C572 C573 1.392 1_455 S
C572 C575 1.511 . S
C573 C569 1.376 . S
C573 C572 1.392 1_655 S
C573 H585 0.929 . S
C574 C570 1.531 . S
C574 H586 0.960 . S
C574 H587 0.962 . S
C574 H588 0.960 . S
C575 C572 1.511 . S
C575 H589 0.961 1_455 S
C575 H590 0.961 . S
C575 H591 0.961 . S
C576 C577 1.370 . S
C576 C578 1.363 . S
C576 H592 0.931 . S
C577 C576 1.370 . S
C577 C581 1.408 . S
C578 C576 1.363 . S
C578 C579 1.370 . S
C578 C582 1.524 . S
C579 C571 1.503 . S
C579 C578 1.370 . S
C579 C580 1.403 . S
C580 C579 1.403 . S
C580 C581 1.404 . S
C580 C583 1.539 . S
C581 C577 1.408 . S
C581 C580 1.404 . S
C581 H593 0.930 1_565 S
C582 C578 1.524 . S
C582 H594 0.956 . S
C582 H595 0.961 . S
C582 H596 0.961 . S
C583 C580 1.539 . S
C583 H597 0.958 . S
C583 H598 0.961 . S
C583 H599 0.960 . S
H584 C568 0.931 . S
H585 C573 0.929 . S
H586 C574 0.960 . S
H587 C574 0.962 . S
H588 C574 0.960 . S
H589 C575 0.961 1_655 S
H590 C575 0.961 . S
H591 C575 0.961 . S
H592 C576 0.931 . S
H593 C581 0.930 1_545 S
H594 C582 0.956 . S
H595 C582 0.961 . S
H596 C582 0.961 . S
H597 C583 0.958 . S
H598 C583 0.961 . S
H599 C583 0.960 . S
C600 C601 1.391 . S
C600 C602 1.394 1_455 S
C600 H616 0.931 . S
C601 C600 1.391 . S
C601 C605 1.376 . S
C602 C600 1.394 1_655 S
C602 C603 1.369 . S
C602 C606 1.531 . S
C603 C602 1.369 . S
C603 C604 1.410 . S
C603 C611 1.503 . S
C604 C603 1.410 . S
C604 C605 1.392 1_655 S
C604 C607 1.511 . S
C605 C601 1.376 . S
C605 C604 1.392 1_455 S
C605 H617 0.929 . S
C606 C602 1.531 . S
C606 H618 0.960 . S
C606 H619 0.962 . S
C606 H620 0.960 . S
C607 C604 1.511 . S
C607 H621 0.961 1_655 S
C607 H622 0.961 . S
C607 H623 0.961 . S
C608 C609 1.370 . S
C608 C610 1.363 . S
C608 H624 0.931 . S
C609 C608 1.370 . S
C609 C613 1.408 . S
C610 C608 1.363 . S
C610 C611 1.370 . S
C610 C614 1.524 . S
C611 C603 1.503 . S
C611 C610 1.370 . S
C611 C612 1.403 . S
C612 C611 1.403 . S
C612 C613 1.404 . S
C612 C615 1.539 . S
C613 C609 1.408 . S
C613 C612 1.404 . S
C613 H625 0.930 . S
C614 C610 1.524 . S
C614 H626 0.956 . S
C614 H627 0.961 . S
C614 H628 0.961 . S
C615 C612 1.539 . S
C615 H629 0.958 . S
C615 H630 0.961 . S
C615 H631 0.960 . S
H616 C600 0.931 . S
H617 C605 0.929 . S
H618 C606 0.960 . S
H619 C606 0.962 . S
H620 C606 0.960 . S
H621 C607 0.961 1_455 S
H622 C607 0.961 . S
H623 C607 0.961 . S
H624 C608 0.931 . S
H625 C613 0.930 . S
H626 C614 0.956 . S
H627 C614 0.961 . S
H628 C614 0.961 . S
H629 C615 0.958 . S
H630 C615 0.961 . S
H631 C615 0.960 . S
C632 C633 1.391 1_655 S
C632 C634 1.394 1_655 S
C632 H648 0.931 . S
C633 C632 1.391 1_455 S
C633 C637 1.376 . S
C634 C632 1.394 1_455 S
C634 C635 1.369 . S
C634 C638 1.531 . S
C635 C634 1.369 . S
C635 C636 1.410 . S
C635 C643 1.503 . S
C636 C635 1.410 . S
C636 C637 1.392 . S
C636 C639 1.511 . S
C637 C633 1.376 . S
C637 C636 1.392 . S
C637 H649 0.929 . S
C638 C634 1.531 . S
C638 H650 0.960 . S
C638 H651 0.962 . S
C638 H652 0.960 1_455 S
C639 C636 1.511 . S
C639 H653 0.961 . S
C639 H654 0.961 . S
C639 H655 0.961 . S
C640 C641 1.370 . S
C640 C642 1.363 1_545 S
C640 H656 0.931 . S
C641 C640 1.370 . S
C641 C645 1.408 . S
C642 C640 1.363 1_565 S
C642 C643 1.370 . S
C642 C646 1.524 . S
C643 C635 1.503 . S
C643 C642 1.370 . S
C643 C644 1.403 . S
C644 C643 1.403 . S
C644 C645 1.404 1_565 S
C644 C647 1.539 . S
C645 C641 1.408 . S
C645 C644 1.404 1_545 S
C645 H657 0.930 . S
C646 C642 1.524 . S
C646 H658 0.956 . S
C646 H659 0.961 . S
C646 H660 0.961 . S
C647 C644 1.539 . S
C647 H661 0.958 . S
C647 H662 0.961 . S
C647 H663 0.960 . S
H648 C632 0.931 . S
H649 C637 0.929 . S
H650 C638 0.960 . S
H651 C638 0.962 . S
H652 C638 0.960 1_655 S
H653 C639 0.961 . S
H654 C639 0.961 . S
H655 C639 0.961 . S
H656 C640 0.931 . S
H657 C645 0.930 . S
H658 C646 0.956 . S
H659 C646 0.961 . S
H660 C646 0.961 . S
H661 C647 0.958 . S
H662 C647 0.961 . S
H663 C647 0.960 . S
C664 C665 1.391 . S
C664 C666 1.394 . S
C664 H680 0.931 . S
C665 C664 1.391 . S
C665 C669 1.376 . S
C666 C664 1.394 . S
C666 C667 1.369 . S
C666 C670 1.531 . S
C667 C666 1.369 . S
C667 C668 1.410 . S
C667 C675 1.503 . S
C668 C667 1.410 . S
C668 C669 1.392 . S
C668 C671 1.511 . S
C669 C665 1.376 . S
C669 C668 1.392 . S
C669 H681 0.929 . S
C670 C666 1.531 . S
C670 H682 0.960 . S
C670 H683 0.962 . S
C670 H684 0.960 . S
C671 C668 1.511 . S
C671 H685 0.961 . S
C671 H686 0.961 . S
C671 H687 0.961 . S
C672 C673 1.363 1_545 S
C672 C674 1.363 . S
C672 H688 0.931 . S
C673 C672 1.363 1_565 S
C673 C677 1.406 . S
C674 C672 1.363 . S
C674 C675 1.370 . S
C674 C678 1.524 . S
C675 C667 1.503 . S
C675 C674 1.370 . S
C675 C676 1.403 . S
C676 C675 1.403 . S
C676 C677 1.404 1_545 S
C676 C679 1.539 . S
C677 C673 1.406 . S
C677 C676 1.404 1_565 S
C677 H689 0.930 . S
C678 C674 1.524 . S
C678 H690 0.956 . S
C678 H691 0.961 . S
C678 H692 0.961 . S
C679 C676 1.539 . S
C679 H693 0.958 . S
C679 H694 0.961 1_545 S
C679 H695 0.960 . S
H680 C664 0.931 . S
H681 C669 0.929 . S
H682 C670 0.960 . S
H683 C670 0.962 . S
H684 C670 0.960 . S
H685 C671 0.961 . S
H686 C671 0.961 . S
H687 C671 0.961 . S
H688 C672 0.931 . S
H689 C677 0.930 . S
H690 C678 0.956 . S
H691 C678 0.961 . S
H692 C678 0.961 . S
H693 C679 0.958 . S
H694 C679 0.961 1_565 S
H695 C679 0.960 . S
C696 C697 1.391 . S
C696 C698 1.394 . S
C696 H712 0.931 . S
C697 C696 1.391 . S
C697 C701 1.376 . S
C698 C696 1.394 . S
C698 C699 1.369 . S
C698 C702 1.531 . S
C699 C698 1.369 . S
C699 C700 1.410 . S
C699 C707 1.503 . S
C700 C699 1.410 . S
C700 C701 1.392 . S
C700 C703 1.511 . S
C701 C697 1.376 . S
C701 C700 1.392 . S
C701 H713 0.929 . S
C702 C698 1.531 . S
C702 H714 0.960 . S
C702 H715 0.962 . S
C702 H716 0.960 . S
C703 C700 1.511 . S
C703 H717 0.961 . S
C703 H718 0.961 . S
C703 H719 0.961 . S
C704 C705 1.370 . S
C704 C706 1.363 1_655 S
C704 H720 0.931 . S
C705 C704 1.370 . S
C705 C709 1.408 . S
C706 C704 1.363 1_455 S
C706 C707 1.370 . S
C706 C710 1.524 . S
C707 C699 1.503 . S
C707 C706 1.370 . S
C707 C708 1.403 . S
C708 C707 1.403 . S
C708 C709 1.404 1_455 S
C708 C711 1.539 . S
C709 C705 1.408 . S
C709 C708 1.404 1_655 S
C709 H721 0.930 . S
C710 C706 1.524 . S
C710 H722 0.956 . S
C710 H723 0.961 . S
C710 H724 0.961 . S
C711 C708 1.539 . S
C711 H725 0.958 . S
C711 H726 0.961 1_455 S
C711 H727 0.960 . S
H712 C696 0.931 . S
H713 C701 0.929 . S
H714 C702 0.960 . S
H715 C702 0.962 . S
H716 C702 0.960 . S
H717 C703 0.961 . S
H718 C703 0.961 . S
H719 C703 0.961 . S
H720 C704 0.931 . S
H721 C709 0.930 . S
H722 C710 0.956 . S
H723 C710 0.961 . S
H724 C710 0.961 . S
H725 C711 0.958 . S
H726 C711 0.961 1_655 S
H727 C711 0.960 . S
C728 C729 1.372 1_655 S
C728 C730 1.394 . S
C728 H744 0.931 . S
C729 C728 1.372 1_455 S
C729 C733 1.389 . S
C730 C728 1.394 . S
C730 C731 1.369 . S
C730 C734 1.531 . S
C731 C730 1.369 . S
C731 C732 1.410 . S
C731 C739 1.503 . S
C732 C731 1.410 . S
C732 C733 1.392 1_655 S
C732 C735 1.511 . S
C733 C729 1.389 . S
C733 C732 1.392 1_455 S
C733 H745 0.929 . S
C734 C730 1.531 . S
C734 H746 0.960 . S
C734 H747 0.962 . S
C734 H748 0.960 . S
C735 C732 1.511 . S
C735 H749 0.961 1_655 S
C735 H750 0.961 . S
C735 H751 0.961 . S
C736 C737 1.370 . S
C736 C738 1.363 1_565 S
C736 H752 0.931 . S
C737 C736 1.370 . S
C737 C741 1.408 . S
C738 C736 1.363 1_545 S
C738 C739 1.370 . S
C738 C742 1.524 . S
C739 C731 1.503 . S
C739 C738 1.370 . S
C739 C740 1.403 . S
C740 C739 1.403 . S
C740 C741 1.404 1_545 S
C740 C743 1.539 . S
C741 C737 1.408 . S
C741 C740 1.404 1_565 S
C741 H753 0.930 . S
C742 C738 1.524 . S
C742 H754 0.956 . S
C742 H755 0.961 . S
C742 H756 0.961 . S
C743 C740 1.539 . S
C743 H757 0.958 . S
C743 H758 0.961 1_545 S
C743 H759 0.960 . S
H744 C728 0.931 . S
H745 C733 0.929 . S
H746 C734 0.960 . S
H747 C734 0.962 . S
H748 C734 0.960 . S
H749 C735 0.961 1_455 S
H750 C735 0.961 . S
H751 C735 0.961 . S
H752 C736 0.931 . S
H753 C741 0.930 . S
H754 C742 0.956 . S
H755 C742 0.961 . S
H756 C742 0.961 . S
H757 C743 0.958 . S
H758 C743 0.961 1_565 S
H759 C743 0.960 . S
C760 C761 1.391 . S
C760 C762 1.394 . S
C760 H776 0.931 . S
C761 C760 1.391 . S
C761 C765 1.376 . S
C762 C760 1.394 . S
C762 C763 1.369 . S
C762 C766 1.531 . S
C763 C762 1.369 . S
C763 C764 1.410 . S
C763 C771 1.503 . S
C764 C763 1.410 . S
C764 C765 1.392 . S
C764 C767 1.511 . S
C765 C761 1.376 . S
C765 C764 1.392 . S
C765 H777 0.929 . S
C766 C762 1.531 . S
C766 H778 0.960 . S
C766 H779 0.962 . S
C766 H780 0.960 . S
C767 C764 1.511 . S
C767 H781 0.961 . S
C767 H782 0.961 . S
C767 H783 0.961 . S
C768 C769 1.363 1_565 S
C768 C770 1.363 . S
C768 H784 0.931 . S
C769 C768 1.363 1_545 S
C769 C773 1.406 . S
C770 C768 1.363 . S
C770 C771 1.370 . S
C770 C774 1.524 . S
C771 C763 1.503 . S
C771 C770 1.370 . S
C771 C772 1.403 . S
C772 C771 1.403 . S
C772 C773 1.404 1_565 S
C772 C775 1.539 . S
C773 C769 1.406 . S
C773 C772 1.404 1_545 S
C773 H785 0.930 . S
C774 C770 1.524 . S
C774 H786 0.956 . S
C774 H787 0.961 . S
C774 H788 0.961 . S
C775 C772 1.539 . S
C775 H789 0.958 . S
C775 H790 0.961 1_565 S
C775 H791 0.960 . S
H776 C760 0.931 . S
H777 C765 0.929 . S
H778 C766 0.960 . S
H779 C766 0.962 . S
H780 C766 0.960 . S
H781 C767 0.961 . S
H782 C767 0.961 . S
H783 C767 0.961 . S
H784 C768 0.931 . S
H785 C773 0.930 . S
H786 C774 0.956 . S
H787 C774 0.961 . S
H788 C774 0.961 . S
H789 C775 0.958 . S
H790 C775 0.961 1_545 S
H791 C775 0.960 . S
C792 C793 1.391 . S
C792 C794 1.394 . S
C792 H808 0.931 . S
C793 C792 1.391 . S
C793 C797 1.376 . S
C794 C792 1.394 . S
C794 C795 1.369 . S
C794 C798 1.531 . S
C795 C794 1.369 . S
C795 C796 1.410 . S
C795 C803 1.503 . S
C796 C795 1.410 . S
C796 C797 1.392 . S
C796 C799 1.511 . S
C797 C793 1.376 . S
C797 C796 1.392 . S
C797 H809 0.929 . S
C798 C794 1.531 . S
C798 H810 0.960 . S
C798 H811 0.962 . S
C798 H812 0.960 1_455 S
C799 C796 1.511 . S
C799 H813 0.961 . S
C799 H814 0.961 . S
C799 H815 0.961 . S
C800 C801 1.370 . S
C800 C802 1.363 . S
C800 H816 0.931 . S
C801 C800 1.370 . S
C801 C805 1.408 . S
C802 C800 1.363 . S
C802 C803 1.370 . S
C802 C806 1.524 . S
C803 C795 1.503 . S
C803 C802 1.370 . S
C803 C804 1.403 . S
C804 C803 1.403 . S
C804 C805 1.404 . S
C804 C807 1.539 . S
C805 C801 1.408 . S
C805 C804 1.404 . S
C805 H817 0.930 . S
C806 C802 1.524 . S
C806 H818 0.956 . S
C806 H819 0.961 . S
C806 H820 0.961 . S
C807 C804 1.539 . S
C807 H821 0.958 . S
C807 H822 0.961 . S
C807 H823 0.960 . S
H808 C792 0.931 . S
H809 C797 0.929 . S
H810 C798 0.960 . S
H811 C798 0.962 . S
H812 C798 0.960 1_655 S
H813 C799 0.961 . S
H814 C799 0.961 . S
H815 C799 0.961 . S
H816 C800 0.931 . S
H817 C805 0.930 . S
H818 C806 0.956 . S
H819 C806 0.961 . S
H820 C806 0.961 . S
H821 C807 0.958 . S
H822 C807 0.961 . S
H823 C807 0.960 . S
C824 C825 1.391 . S
C824 C826 1.394 . S
C824 H840 0.931 . S
C825 C824 1.391 . S
C825 C829 1.376 . S
C826 C824 1.394 . S
C826 C827 1.369 . S
C826 C830 1.531 . S
C827 C826 1.369 . S
C827 C828 1.410 . S
C827 C835 1.503 . S
C828 C827 1.410 . S
C828 C829 1.392 . S
C828 C831 1.511 . S
C829 C825 1.376 . S
C829 C828 1.392 . S
C829 H841 0.929 . S
C830 C826 1.531 . S
C830 H842 0.960 . S
C830 H843 0.962 . S
C830 H844 0.960 . S
C831 C828 1.511 . S
C831 H845 0.961 . S
C831 H846 0.961 . S
C831 H847 0.961 . S
C832 C833 1.370 . S
C832 C834 1.363 . S
C832 H848 0.931 . S
C833 C832 1.370 . S
C833 C837 1.408 . S
C834 C832 1.363 . S
C834 C835 1.370 . S
C834 C838 1.524 . S
C835 C827 1.503 . S
C835 C834 1.370 . S
C835 C836 1.403 . S
C836 C835 1.403 . S
C836 C837 1.404 . S
C836 C839 1.539 . S
C837 C833 1.408 . S
C837 C836 1.404 . S
C837 H849 0.930 . S
C838 C834 1.524 . S
C838 H850 0.956 . S
C838 H851 0.961 . S
C838 H852 0.961 . S
C839 C836 1.539 . S
C839 H853 0.958 . S
C839 H854 0.961 . S
C839 H855 0.960 . S
H840 C824 0.931 . S
H841 C829 0.929 . S
H842 C830 0.960 . S
H843 C830 0.962 . S
H844 C830 0.960 . S
H845 C831 0.961 . S
H846 C831 0.961 . S
H847 C831 0.961 . S
H848 C832 0.931 . S
H849 C837 0.930 . S
H850 C838 0.956 . S
H851 C838 0.961 . S
H852 C838 0.961 . S
H853 C839 0.958 . S
H854 C839 0.961 . S
H855 C839 0.960 . S
C856 C857 1.391 . S
C856 C858 1.394 . S
C856 H872 0.931 . S
C857 C856 1.391 . S
C857 C861 1.376 . S
C858 C856 1.394 . S
C858 C859 1.369 . S
C858 C862 1.531 . S
C859 C858 1.369 . S
C859 C860 1.410 . S
C859 C867 1.503 . S
C860 C859 1.410 . S
C860 C861 1.392 . S
C860 C863 1.511 . S
C861 C857 1.376 . S
C861 C860 1.392 . S
C861 H873 0.929 . S
C862 C858 1.531 . S
C862 H874 0.960 . S
C862 H875 0.962 . S
C862 H876 0.960 . S
C863 C860 1.511 . S
C863 H877 0.961 . S
C863 H878 0.961 . S
C863 H879 0.961 . S
C864 C865 1.370 . S
C864 C866 1.363 . S
C864 H880 0.931 . S
C865 C864 1.370 . S
C865 C869 1.408 . S
C866 C864 1.363 . S
C866 C867 1.370 . S
C866 C870 1.524 . S
C867 C859 1.503 . S
C867 C866 1.370 . S
C867 C868 1.403 . S
C868 C867 1.403 . S
C868 C869 1.404 . S
C868 C871 1.539 . S
C869 C865 1.408 . S
C869 C868 1.404 . S
C869 H881 0.930 . S
C870 C866 1.524 . S
C870 H882 0.956 . S
C870 H883 0.961 . S
C870 H884 0.961 . S
C871 C868 1.539 . S
C871 H885 0.958 . S
C871 H886 0.961 . S
C871 H887 0.960 . S
H872 C856 0.931 . S
H873 C861 0.929 . S
H874 C862 0.960 . S
H875 C862 0.962 . S
H876 C862 0.960 . S
H877 C863 0.961 . S
H878 C863 0.961 . S
H879 C863 0.961 . S
H880 C864 0.931 . S
H881 C869 0.930 . S
H882 C870 0.956 . S
H883 C870 0.961 . S
H884 C870 0.961 . S
H885 C871 0.958 . S
H886 C871 0.961 . S
H887 C871 0.960 . S
C888 C889 1.391 . S
C888 C890 1.394 . S
C888 H904 0.931 . S
C889 C888 1.391 . S
C889 C893 1.376 . S
C890 C888 1.394 . S
C890 C891 1.369 . S
C890 C894 1.531 . S
C891 C890 1.369 . S
C891 C892 1.410 . S
C891 C899 1.503 . S
C892 C891 1.410 . S
C892 C893 1.392 . S
C892 C895 1.511 . S
C893 C889 1.376 . S
C893 C892 1.392 . S
C893 H905 0.929 . S
C894 C890 1.531 . S
C894 H906 0.960 . S
C894 H907 0.962 . S
C894 H908 0.960 . S
C895 C892 1.511 . S
C895 H909 0.961 . S
C895 H910 0.961 . S
C895 H911 0.961 . S
C896 C897 1.370 . S
C896 C898 1.363 . S
C896 H912 0.931 . S
C897 C896 1.370 . S
C897 C901 1.408 . S
C898 C896 1.363 . S
C898 C899 1.370 . S
C898 C902 1.524 . S
C899 C891 1.503 . S
C899 C898 1.370 . S
C899 C900 1.403 . S
C900 C899 1.403 . S
C900 C901 1.404 . S
C900 C903 1.539 . S
C901 C897 1.408 . S
C901 C900 1.404 . S
C901 H913 0.930 . S
C902 C898 1.524 . S
C902 H914 0.956 . S
C902 H915 0.961 . S
C902 H916 0.961 . S
C903 C900 1.539 . S
C903 H917 0.958 . S
C903 H918 0.961 . S
C903 H919 0.960 . S
H904 C888 0.931 . S
H905 C893 0.929 . S
H906 C894 0.960 . S
H907 C894 0.962 . S
H908 C894 0.960 . S
H909 C895 0.961 . S
H910 C895 0.961 . S
H911 C895 0.961 . S
H912 C896 0.931 . S
H913 C901 0.930 . S
H914 C902 0.956 . S
H915 C902 0.961 . S
H916 C902 0.961 . S
H917 C903 0.958 . S
H918 C903 0.961 . S
H919 C903 0.960 . S
C920 C921 1.391 . S
C920 C922 1.394 . S
C920 H936 0.931 . S
C921 C920 1.391 . S
C921 C925 1.376 . S
C922 C920 1.394 . S
C922 C923 1.369 . S
C922 C926 1.531 . S
C923 C922 1.369 . S
C923 C924 1.410 . S
C923 C931 1.503 . S
C924 C923 1.410 . S
C924 C925 1.392 . S
C924 C927 1.511 . S
C925 C921 1.376 . S
C925 C924 1.392 . S
C925 H937 0.929 . S
C926 C922 1.531 . S
C926 H938 0.960 . S
C926 H939 0.962 . S
C926 H940 0.960 . S
C927 C924 1.511 . S
C927 H941 0.961 . S
C927 H942 0.961 . S
C927 H943 0.961 . S
C928 C929 1.370 . S
C928 C930 1.363 . S
C928 H944 0.931 . S
C929 C928 1.370 . S
C929 C933 1.408 . S
C930 C928 1.363 . S
C930 C931 1.370 . S
C930 C934 1.524 . S
C931 C923 1.503 . S
C931 C930 1.370 . S
C931 C932 1.403 . S
C932 C931 1.403 . S
C932 C933 1.404 . S
C932 C935 1.539 . S
C933 C929 1.408 . S
C933 C932 1.404 . S
C933 H945 0.930 . S
C934 C930 1.524 . S
C934 H946 0.956 . S
C934 H947 0.961 . S
C934 H948 0.961 . S
C935 C932 1.539 . S
C935 H949 0.958 . S
C935 H950 0.961 . S
C935 H951 0.960 . S
H936 C920 0.931 . S
H937 C925 0.929 . S
H938 C926 0.960 . S
H939 C926 0.962 . S
H940 C926 0.960 . S
H941 C927 0.961 . S
H942 C927 0.961 . S
H943 C927 0.961 . S
H944 C928 0.931 . S
H945 C933 0.930 . S
H946 C934 0.956 . S
H947 C934 0.961 . S
H948 C934 0.961 . S
H949 C935 0.958 . S
H950 C935 0.961 . S
H951 C935 0.960 . S
C952 C953 1.391 . S
C952 C954 1.394 . S
C952 H968 0.931 . S
C953 C952 1.391 . S
C953 C957 1.376 . S
C954 C952 1.394 . S
C954 C955 1.369 . S
C954 C958 1.531 . S
C955 C954 1.369 . S
C955 C956 1.410 . S
C955 C963 1.503 . S
C956 C955 1.410 . S
C956 C957 1.392 . S
C956 C959 1.511 . S
C957 C953 1.376 . S
C957 C956 1.392 . S
C957 H969 0.929 . S
C958 C954 1.531 . S
C958 H970 0.960 . S
C958 H971 0.962 . S
C958 H972 0.960 . S
C959 C956 1.511 . S
C959 H973 0.961 . S
C959 H974 0.961 . S
C959 H975 0.961 . S
C960 C961 1.370 . S
C960 C962 1.363 . S
C960 H976 0.931 . S
C961 C960 1.370 . S
C961 C965 1.408 . S
C962 C960 1.363 . S
C962 C963 1.370 . S
C962 C966 1.524 . S
C963 C955 1.503 . S
C963 C962 1.370 . S
C963 C964 1.403 . S
C964 C963 1.403 . S
C964 C965 1.404 . S
C964 C967 1.539 . S
C965 C961 1.408 . S
C965 C964 1.404 . S
C965 H977 0.930 . S
C966 C962 1.524 . S
C966 H978 0.956 . S
C966 H979 0.961 . S
C966 H980 0.961 . S
C967 C964 1.539 . S
C967 H981 0.958 . S
C967 H982 0.961 . S
C967 H983 0.960 . S
H968 C952 0.931 . S
H969 C957 0.929 . S
H970 C958 0.960 . S
H971 C958 0.962 . S
H972 C958 0.960 . S
H973 C959 0.961 . S
H974 C959 0.961 . S
H975 C959 0.961 . S
H976 C960 0.931 . S
H977 C965 0.930 . S
H978 C966 0.956 . S
H979 C966 0.961 . S
H980 C966 0.961 . S
H981 C967 0.958 . S
H982 C967 0.961 . S
H983 C967 0.960 . S
C984 C985 1.391 . S
C984 C986 1.394 . S
C984 H1000 0.931 . S
C985 C984 1.391 . S
C985 C989 1.376 . S
C986 C984 1.394 . S
C986 C987 1.369 . S
C986 C990 1.531 . S
C987 C986 1.369 . S
C987 C988 1.410 . S
C987 C995 1.503 . S
C988 C987 1.410 . S
C988 C989 1.392 . S
C988 C991 1.511 . S
C989 C985 1.376 . S
C989 C988 1.392 . S
C989 H1001 0.929 . S
C990 C986 1.531 . S
C990 H1002 0.960 . S
C990 H1003 0.962 . S
C990 H1004 0.960 . S
C991 C988 1.511 . S
C991 H1005 0.961 1_565 S
C991 H1006 0.961 . S
C991 H1007 0.961 . S
C992 C993 1.370 . S
C992 C994 1.363 . S
C992 H1008 0.931 . S
C993 C992 1.370 . S
C993 C997 1.408 . S
C994 C992 1.363 . S
C994 C995 1.370 . S
C994 C998 1.524 . S
C995 C987 1.503 . S
C995 C994 1.370 . S
C995 C996 1.403 . S
C996 C995 1.403 . S
C996 C997 1.404 . S
C996 C999 1.539 . S
C997 C993 1.408 . S
C997 C996 1.404 . S
C997 H1009 0.930 . S
C998 C994 1.524 . S
C998 H1010 0.956 . S
C998 H1011 0.961 . S
C998 H1012 0.961 . S
C999 C996 1.539 . S
C999 H1013 0.958 . S
C999 H1014 0.961 . S
C999 H1015 0.960 . S
H1000 C984 0.931 . S
H1001 C989 0.929 . S
H1002 C990 0.960 . S
H1003 C990 0.962 . S
H1004 C990 0.960 . S
H1005 C991 0.961 1_545 S
H1006 C991 0.961 . S
H1007 C991 0.961 . S
H1008 C992 0.931 . S
H1009 C997 0.930 . S
H1010 C998 0.956 . S
H1011 C998 0.961 . S
H1012 C998 0.961 . S
H1013 C999 0.958 . S
H1014 C999 0.961 . S
H1015 C999 0.960 . S
C1016 C1017 1.391 . S
C1016 C1018 1.394 . S
C1016 H1032 0.931 . S
C1017 C1016 1.391 . S
C1017 C1021 1.376 . S
C1018 C1016 1.394 . S
C1018 C1019 1.369 . S
C1018 C1022 1.531 . S
C1019 C1018 1.369 . S
C1019 C1020 1.410 . S
C1019 C1027 1.503 . S
C1020 C1019 1.410 . S
C1020 C1021 1.392 . S
C1020 C1023 1.511 . S
C1021 C1017 1.376 . S
C1021 C1020 1.392 . S
C1021 H1033 0.929 . S
C1022 C1018 1.531 . S
C1022 H1034 0.960 . S
C1022 H1035 0.962 . S
C1022 H1036 0.960 . S
C1023 C1020 1.511 . S
C1023 H1037 0.961 . S
C1023 H1038 0.961 . S
C1023 H1039 0.961 . S
C1024 C1025 1.370 . S
C1024 C1026 1.363 . S
C1024 H1040 0.931 . S
C1025 C1024 1.370 . S
C1025 C1029 1.408 . S
C1026 C1024 1.363 . S
C1026 C1027 1.370 . S
C1026 C1030 1.524 . S
C1027 C1019 1.503 . S
C1027 C1026 1.370 . S
C1027 C1028 1.403 . S
C1028 C1027 1.403 . S
C1028 C1029 1.404 . S
C1028 C1031 1.539 . S
C1029 C1025 1.408 . S
C1029 C1028 1.404 . S
C1029 H1041 0.930 . S
C1030 C1026 1.524 . S
C1030 H1042 0.956 . S
C1030 H1043 0.961 . S
C1030 H1044 0.961 . S
C1031 C1028 1.539 . S
C1031 H1045 0.958 . S
C1031 H1046 0.961 . S
C1031 H1047 0.960 . S
H1032 C1016 0.931 . S
H1033 C1021 0.929 . S
H1034 C1022 0.960 . S
H1035 C1022 0.962 . S
H1036 C1022 0.960 . S
H1037 C1023 0.961 . S
H1038 C1023 0.961 . S
H1039 C1023 0.961 . S
H1040 C1024 0.931 . S
H1041 C1029 0.930 . S
H1042 C1030 0.956 . S
H1043 C1030 0.961 . S
H1044 C1030 0.961 . S
H1045 C1031 0.958 . S
H1046 C1031 0.961 . S
H1047 C1031 0.960 . S
C1048 C1049 1.391 . S
C1048 C1050 1.394 . S
C1048 H1064 0.931 . S
C1049 C1048 1.391 . S
C1049 C1053 1.376 . S
C1050 C1048 1.394 . S
C1050 C1051 1.369 . S
C1050 C1054 1.531 . S
C1051 C1050 1.369 . S
C1051 C1052 1.410 . S
C1051 C1059 1.503 . S
C1052 C1051 1.410 . S
C1052 C1053 1.392 . S
C1052 C1055 1.511 . S
C1053 C1049 1.376 . S
C1053 C1052 1.392 . S
C1053 H1065 0.929 . S
C1054 C1050 1.531 . S
C1054 H1066 0.960 . S
C1054 H1067 0.962 . S
C1054 H1068 0.960 . S
C1055 C1052 1.511 . S
C1055 H1069 0.961 . S
C1055 H1070 0.961 . S
C1055 H1071 0.961 . S
C1056 C1057 1.370 . S
C1056 C1058 1.363 . S
C1056 H1072 0.931 . S
C1057 C1056 1.370 . S
C1057 C1061 1.408 . S
C1058 C1056 1.363 . S
C1058 C1059 1.370 . S
C1058 C1062 1.524 . S
C1059 C1051 1.503 . S
C1059 C1058 1.370 . S
C1059 C1060 1.403 . S
C1060 C1059 1.403 . S
C1060 C1061 1.404 . S
C1060 C1063 1.539 . S
C1061 C1057 1.408 . S
C1061 C1060 1.404 . S
C1061 H1073 0.930 . S
C1062 C1058 1.524 . S
C1062 H1074 0.956 . S
C1062 H1075 0.961 . S
C1062 H1076 0.961 . S
C1063 C1060 1.539 . S
C1063 H1077 0.958 . S
C1063 H1078 0.961 . S
C1063 H1079 0.960 . S
H1064 C1048 0.931 . S
H1065 C1053 0.929 . S
H1066 C1054 0.960 . S
H1067 C1054 0.962 . S
H1068 C1054 0.960 . S
H1069 C1055 0.961 . S
H1070 C1055 0.961 . S
H1071 C1055 0.961 . S
H1072 C1056 0.931 . S
H1073 C1061 0.930 . S
H1074 C1062 0.956 . S
H1075 C1062 0.961 . S
H1076 C1062 0.961 . S
H1077 C1063 0.958 . S
H1078 C1063 0.961 . S
H1079 C1063 0.960 . S
C1080 C1081 1.391 . S
C1080 C1082 1.394 . S
C1080 H1096 0.931 . S
C1081 C1080 1.391 . S
C1081 C1085 1.376 . S
C1082 C1080 1.394 . S
C1082 C1083 1.369 . S
C1082 C1086 1.531 . S
C1083 C1082 1.369 . S
C1083 C1084 1.410 . S
C1083 C1091 1.503 . S
C1084 C1083 1.410 . S
C1084 C1085 1.392 . S
C1084 C1087 1.511 . S
C1085 C1081 1.376 . S
C1085 C1084 1.392 . S
C1085 H1097 0.929 . S
C1086 C1082 1.531 . S
C1086 H1098 0.960 . S
C1086 H1099 0.962 . S
C1086 H1100 0.960 . S
C1087 C1084 1.511 . S
C1087 H1101 0.961 1_545 S
C1087 H1102 0.961 . S
C1087 H1103 0.961 . S
C1088 C1089 1.370 . S
C1088 C1090 1.363 . S
C1088 H1104 0.931 . S
C1089 C1088 1.370 . S
C1089 C1093 1.408 . S
C1090 C1088 1.363 . S
C1090 C1091 1.370 . S
C1090 C1094 1.524 . S
C1091 C1083 1.503 . S
C1091 C1090 1.370 . S
C1091 C1092 1.403 . S
C1092 C1091 1.403 . S
C1092 C1093 1.404 . S
C1092 C1095 1.539 . S
C1093 C1089 1.408 . S
C1093 C1092 1.404 . S
C1093 H1105 0.930 . S
C1094 C1090 1.524 . S
C1094 H1106 0.956 . S
C1094 H1107 0.961 . S
C1094 H1108 0.961 . S
C1095 C1092 1.539 . S
C1095 H1109 0.958 . S
C1095 H1110 0.961 . S
C1095 H1111 0.960 . S
H1096 C1080 0.931 . S
H1097 C1085 0.929 . S
H1098 C1086 0.960 . S
H1099 C1086 0.962 . S
H1100 C1086 0.960 . S
H1101 C1087 0.961 1_565 S
H1102 C1087 0.961 . S
H1103 C1087 0.961 . S
H1104 C1088 0.931 . S
H1105 C1093 0.930 . S
H1106 C1094 0.956 . S
H1107 C1094 0.961 . S
H1108 C1094 0.961 . S
H1109 C1095 0.958 . S
H1110 C1095 0.961 . S
H1111 C1095 0.960 . S
C1112 C1113 1.391 . S
C1112 C1114 1.394 . S
C1112 H1128 0.931 . S
C1113 C1112 1.391 . S
C1113 C1117 1.376 . S
C1114 C1112 1.394 . S
C1114 C1115 1.369 . S
C1114 C1118 1.531 . S
C1115 C1114 1.369 . S
C1115 C1116 1.410 . S
C1115 C1123 1.503 . S
C1116 C1115 1.410 . S
C1116 C1117 1.392 . S
C1116 C1119 1.511 . S
C1117 C1113 1.376 . S
C1117 C1116 1.392 . S
C1117 H1129 0.929 . S
C1118 C1114 1.531 . S
C1118 H1130 0.960 . S
C1118 H1131 0.962 . S
C1118 H1132 0.960 . S
C1119 C1116 1.511 . S
C1119 H1133 0.961 . S
C1119 H1134 0.961 . S
C1119 H1135 0.961 . S
C1120 C1121 1.370 . S
C1120 C1122 1.363 . S
C1120 H1136 0.931 . S
C1121 C1120 1.370 . S
C1121 C1125 1.408 . S
C1122 C1120 1.363 . S
C1122 C1123 1.370 . S
C1122 C1126 1.524 . S
C1123 C1115 1.503 . S
C1123 C1122 1.370 . S
C1123 C1124 1.403 . S
C1124 C1123 1.403 . S
C1124 C1125 1.404 . S
C1124 C1127 1.539 . S
C1125 C1121 1.408 . S
C1125 C1124 1.404 . S
C1125 H1137 0.930 . S
C1126 C1122 1.524 . S
C1126 H1138 0.956 . S
C1126 H1139 0.961 . S
C1126 H1140 0.961 . S
C1127 C1124 1.539 . S
C1127 H1141 0.958 . S
C1127 H1142 0.961 . S
C1127 H1143 0.960 . S
H1128 C1112 0.931 . S
H1129 C1117 0.929 . S
H1130 C1118 0.960 . S
H1131 C1118 0.962 . S
H1132 C1118 0.960 . S
H1133 C1119 0.961 . S
H1134 C1119 0.961 . S
H1135 C1119 0.961 . S
H1136 C1120 0.931 . S
H1137 C1125 0.930 . S
H1138 C1126 0.956 . S
H1139 C1126 0.961 . S
H1140 C1126 0.961 . S
H1141 C1127 0.958 . S
H1142 C1127 0.961 . S
H1143 C1127 0.960 . S
C1144 C1145 1.391 . S
C1144 C1146 1.394 . S
C1144 H1160 0.931 . S
C1145 C1144 1.391 . S
C1145 C1149 1.376 . S
C1146 C1144 1.394 . S
C1146 C1147 1.369 . S
C1146 C1150 1.531 . S
C1147 C1146 1.369 . S
C1147 C1148 1.410 . S
C1147 C1155 1.503 . S
C1148 C1147 1.410 . S
C1148 C1149 1.392 . S
C1148 C1151 1.511 . S
C1149 C1145 1.376 . S
C1149 C1148 1.392 . S
C1149 H1161 0.929 . S
C1150 C1146 1.531 . S
C1150 H1162 0.960 . S
C1150 H1163 0.962 . S
C1150 H1164 0.960 . S
C1151 C1148 1.511 . S
C1151 H1165 0.961 . S
C1151 H1166 0.961 . S
C1151 H1167 0.961 . S
C1152 C1153 1.370 . S
C1152 C1154 1.363 . S
C1152 H1168 0.931 . S
C1153 C1152 1.370 . S
C1153 C1157 1.408 . S
C1154 C1152 1.363 . S
C1154 C1155 1.370 . S
C1154 C1158 1.524 . S
C1155 C1147 1.503 . S
C1155 C1154 1.370 . S
C1155 C1156 1.403 . S
C1156 C1155 1.403 . S
C1156 C1157 1.404 . S
C1156 C1159 1.539 . S
C1157 C1153 1.408 . S
C1157 C1156 1.404 . S
C1157 H1169 0.930 . S
C1158 C1154 1.524 . S
C1158 H1170 0.956 . S
C1158 H1171 0.961 . S
C1158 H1172 0.961 . S
C1159 C1156 1.539 . S
C1159 H1173 0.958 . S
C1159 H1174 0.961 . S
C1159 H1175 0.960 . S
H1160 C1144 0.931 . S
H1161 C1149 0.929 . S
H1162 C1150 0.960 . S
H1163 C1150 0.962 . S
H1164 C1150 0.960 . S
H1165 C1151 0.961 . S
H1166 C1151 0.961 . S
H1167 C1151 0.961 . S
H1168 C1152 0.931 . S
H1169 C1157 0.930 . S
H1170 C1158 0.956 . S
H1171 C1158 0.961 . S
H1172 C1158 0.961 . S
H1173 C1159 0.958 . S
H1174 C1159 0.961 . S
H1175 C1159 0.960 . S
C1176 C1177 1.391 . S
C1176 C1178 1.394 . S
C1176 H1192 0.931 . S
C1177 C1176 1.391 . S
C1177 C1181 1.376 . S
C1178 C1176 1.394 . S
C1178 C1179 1.369 . S
C1178 C1182 1.531 . S
C1179 C1178 1.369 . S
C1179 C1180 1.410 . S
C1179 C1187 1.503 . S
C1180 C1179 1.410 . S
C1180 C1181 1.392 . S
C1180 C1183 1.511 . S
C1181 C1177 1.376 . S
C1181 C1180 1.392 . S
C1181 H1193 0.929 . S
C1182 C1178 1.531 . S
C1182 H1194 0.960 . S
C1182 H1195 0.962 . S
C1182 H1196 0.960 . S
C1183 C1180 1.511 . S
C1183 H1197 0.961 . S
C1183 H1198 0.961 . S
C1183 H1199 0.961 . S
C1184 C1185 1.370 . S
C1184 C1186 1.363 . S
C1184 H1200 0.931 . S
C1185 C1184 1.370 . S
C1185 C1189 1.408 . S
C1186 C1184 1.363 . S
C1186 C1187 1.370 . S
C1186 C1190 1.524 . S
C1187 C1179 1.503 . S
C1187 C1186 1.370 . S
C1187 C1188 1.403 . S
C1188 C1187 1.403 . S
C1188 C1189 1.404 . S
C1188 C1191 1.539 . S
C1189 C1185 1.408 . S
C1189 C1188 1.404 . S
C1189 H1201 0.930 . S
C1190 C1186 1.524 . S
C1190 H1202 0.956 . S
C1190 H1203 0.961 . S
C1190 H1204 0.961 . S
C1191 C1188 1.539 . S
C1191 H1205 0.958 . S
C1191 H1206 0.961 . S
C1191 H1207 0.960 . S
H1192 C1176 0.931 . S
H1193 C1181 0.929 . S
H1194 C1182 0.960 . S
H1195 C1182 0.962 . S
H1196 C1182 0.960 . S
H1197 C1183 0.961 . S
H1198 C1183 0.961 . S
H1199 C1183 0.961 . S
H1200 C1184 0.931 . S
H1201 C1189 0.930 . S
H1202 C1190 0.956 . S
H1203 C1190 0.961 . S
H1204 C1190 0.961 . S
H1205 C1191 0.958 . S
H1206 C1191 0.961 . S
H1207 C1191 0.960 . S
C1208 C1209 1.391 . S
C1208 C1210 1.394 . S
C1208 H1224 0.931 . S
C1209 C1208 1.391 . S
C1209 C1213 1.376 . S
C1210 C1208 1.394 . S
C1210 C1211 1.369 . S
C1210 C1214 1.531 . S
C1211 C1210 1.369 . S
C1211 C1212 1.410 . S
C1211 C1219 1.503 . S
C1212 C1211 1.410 . S
C1212 C1213 1.392 . S
C1212 C1215 1.511 . S
C1213 C1209 1.376 . S
C1213 C1212 1.392 . S
C1213 H1225 0.929 . S
C1214 C1210 1.531 . S
C1214 H1226 0.960 . S
C1214 H1227 0.962 . S
C1214 H1228 0.960 . S
C1215 C1212 1.511 . S
C1215 H1229 0.961 . S
C1215 H1230 0.961 . S
C1215 H1231 0.961 . S
C1216 C1217 1.370 . S
C1216 C1218 1.363 . S
C1216 H1232 0.931 . S
C1217 C1216 1.370 . S
C1217 C1221 1.408 . S
C1218 C1216 1.363 . S
C1218 C1219 1.370 . S
C1218 C1222 1.524 . S
C1219 C1211 1.503 . S
C1219 C1218 1.370 . S
C1219 C1220 1.403 . S
C1220 C1219 1.403 . S
C1220 C1221 1.404 . S
C1220 C1223 1.539 . S
C1221 C1217 1.408 . S
C1221 C1220 1.404 . S
C1221 H1233 0.930 . S
C1222 C1218 1.524 . S
C1222 H1234 0.956 . S
C1222 H1235 0.961 . S
C1222 H1236 0.961 . S
C1223 C1220 1.539 . S
C1223 H1237 0.958 . S
C1223 H1238 0.961 . S
C1223 H1239 0.960 . S
H1224 C1208 0.931 . S
H1225 C1213 0.929 . S
H1226 C1214 0.960 . S
H1227 C1214 0.962 . S
H1228 C1214 0.960 . S
H1229 C1215 0.961 . S
H1230 C1215 0.961 . S
H1231 C1215 0.961 . S
H1232 C1216 0.931 . S
H1233 C1221 0.930 . S
H1234 C1222 0.956 . S
H1235 C1222 0.961 . S
H1236 C1222 0.961 . S
H1237 C1223 0.958 . S
H1238 C1223 0.961 . S
H1239 C1223 0.960 . S
C1240 C1241 1.391 . S
C1240 C1242 1.394 . S
C1240 H1256 0.931 . S
C1241 C1240 1.391 . S
C1241 C1245 1.376 . S
C1242 C1240 1.394 . S
C1242 C1243 1.369 . S
C1242 C1246 1.531 . S
C1243 C1242 1.369 . S
C1243 C1244 1.410 . S
C1243 C1251 1.503 . S
C1244 C1243 1.410 . S
C1244 C1245 1.392 . S
C1244 C1247 1.511 . S
C1245 C1241 1.376 . S
C1245 C1244 1.392 . S
C1245 H1257 0.929 . S
C1246 C1242 1.531 . S
C1246 H1258 0.960 . S
C1246 H1259 0.962 . S
C1246 H1260 0.960 . S
C1247 C1244 1.511 . S
C1247 H1261 0.961 . S
C1247 H1262 0.961 . S
C1247 H1263 0.961 . S
C1248 C1249 1.370 . S
C1248 C1250 1.363 . S
C1248 H1264 0.931 . S
C1249 C1248 1.370 . S
C1249 C1253 1.408 . S
C1250 C1248 1.363 . S
C1250 C1251 1.370 . S
C1250 C1254 1.524 . S
C1251 C1243 1.503 . S
C1251 C1250 1.370 . S
C1251 C1252 1.403 . S
C1252 C1251 1.403 . S
C1252 C1253 1.404 . S
C1252 C1255 1.539 . S
C1253 C1249 1.408 . S
C1253 C1252 1.404 . S
C1253 H1265 0.930 . S
C1254 C1250 1.524 . S
C1254 H1266 0.956 . S
C1254 H1267 0.961 . S
C1254 H1268 0.961 . S
C1255 C1252 1.539 . S
C1255 H1269 0.958 . S
C1255 H1270 0.961 . S
C1255 H1271 0.960 . S
H1256 C1240 0.931 . S
H1257 C1245 0.929 . S
H1258 C1246 0.960 . S
H1259 C1246 0.962 . S
H1260 C1246 0.960 . S
H1261 C1247 0.961 . S
H1262 C1247 0.961 . S
H1263 C1247 0.961 . S
H1264 C1248 0.931 . S
H1265 C1253 0.930 . S
H1266 C1254 0.956 . S
H1267 C1254 0.961 . S
H1268 C1254 0.961 . S
H1269 C1255 0.958 . S
H1270 C1255 0.961 . S
H1271 C1255 0.960 . S
C1272 C1273 1.391 . S
C1272 C1274 1.394 . S
C1272 H1288 0.931 . S
C1273 C1272 1.391 . S
C1273 C1277 1.376 . S
C1274 C1272 1.394 . S
C1274 C1275 1.369 . S
C1274 C1278 1.531 . S
C1275 C1274 1.369 . S
C1275 C1276 1.410 . S
C1275 C1283 1.503 . S
C1276 C1275 1.410 . S
C1276 C1277 1.392 . S
C1276 C1279 1.511 . S
C1277 C1273 1.376 . S
C1277 C1276 1.392 . S
C1277 H1289 0.929 . S
C1278 C1274 1.531 . S
C1278 H1290 0.960 . S
C1278 H1291 0.962 . S
C1278 H1292 0.960 . S
C1279 C1276 1.511 . S
C1279 H1293 0.961 . S
C1279 H1294 0.961 . S
C1279 H1295 0.961 . S
C1280 C1281 1.370 . S
C1280 C1282 1.363 . S
C1280 H1296 0.931 . S
C1281 C1280 1.370 . S
C1281 C1285 1.408 . S
C1282 C1280 1.363 . S
C1282 C1283 1.370 . S
C1282 C1286 1.524 . S
C1283 C1275 1.503 . S
C1283 C1282 1.370 . S
C1283 C1284 1.403 . S
C1284 C1283 1.403 . S
C1284 C1285 1.404 . S
C1284 C1287 1.539 . S
C1285 C1281 1.408 . S
C1285 C1284 1.404 . S
C1285 H1297 0.930 . S
C1286 C1282 1.524 . S
C1286 H1298 0.956 . S
C1286 H1299 0.961 . S
C1286 H1300 0.961 . S
C1287 C1284 1.539 . S
C1287 H1301 0.958 . S
C1287 H1302 0.961 . S
C1287 H1303 0.960 . S
H1288 C1272 0.931 . S
H1289 C1277 0.929 . S
H1290 C1278 0.960 . S
H1291 C1278 0.962 . S
H1292 C1278 0.960 . S
H1293 C1279 0.961 . S
H1294 C1279 0.961 . S
H1295 C1279 0.961 . S
H1296 C1280 0.931 . S
H1297 C1285 0.930 . S
H1298 C1286 0.956 . S
H1299 C1286 0.961 . S
H1300 C1286 0.961 . S
H1301 C1287 0.958 . S
H1302 C1287 0.961 . S
H1303 C1287 0.960 . S
C1304 C1305 1.391 . S
C1304 C1306 1.394 . S
C1304 H1320 0.931 . S
C1305 C1304 1.391 . S
C1305 C1309 1.376 . S
C1306 C1304 1.394 . S
C1306 C1307 1.369 . S
C1306 C1310 1.531 . S
C1307 C1306 1.369 . S
C1307 C1308 1.410 . S
C1307 C1315 1.503 . S
C1308 C1307 1.410 . S
C1308 C1309 1.392 . S
C1308 C1311 1.511 . S
C1309 C1305 1.376 . S
C1309 C1308 1.392 . S
C1309 H1321 0.929 . S
C1310 C1306 1.531 . S
C1310 H1322 0.960 . S
C1310 H1323 0.962 . S
C1310 H1324 0.960 . S
C1311 C1308 1.511 . S
C1311 H1325 0.961 . S
C1311 H1326 0.961 . S
C1311 H1327 0.961 . S
C1312 C1313 1.370 . S
C1312 C1314 1.363 . S
C1312 H1328 0.931 . S
C1313 C1312 1.370 . S
C1313 C1317 1.408 . S
C1314 C1312 1.363 . S
C1314 C1315 1.370 . S
C1314 C1318 1.524 . S
C1315 C1307 1.503 . S
C1315 C1314 1.370 . S
C1315 C1316 1.403 . S
C1316 C1315 1.403 . S
C1316 C1317 1.404 . S
C1316 C1319 1.539 . S
C1317 C1313 1.408 . S
C1317 C1316 1.404 . S
C1317 H1329 0.930 . S
C1318 C1314 1.524 . S
C1318 H1330 0.956 . S
C1318 H1331 0.961 . S
C1318 H1332 0.961 . S
C1319 C1316 1.539 . S
C1319 H1333 0.958 . S
C1319 H1334 0.961 . S
C1319 H1335 0.960 . S
H1320 C1304 0.931 . S
H1321 C1309 0.929 . S
H1322 C1310 0.960 . S
H1323 C1310 0.962 . S
H1324 C1310 0.960 . S
H1325 C1311 0.961 . S
H1326 C1311 0.961 . S
H1327 C1311 0.961 . S
H1328 C1312 0.931 . S
H1329 C1317 0.930 . S
H1330 C1318 0.956 . S
H1331 C1318 0.961 . S
H1332 C1318 0.961 . S
H1333 C1319 0.958 . S
H1334 C1319 0.961 . S
H1335 C1319 0.960 . S
C1336 C1337 1.391 . S
C1336 C1338 1.394 . S
C1336 H1352 0.931 . S
C1337 C1336 1.391 . S
C1337 C1341 1.376 . S
C1338 C1336 1.394 . S
C1338 C1339 1.369 . S
C1338 C1342 1.531 . S
C1339 C1338 1.369 . S
C1339 C1340 1.410 . S
C1339 C1347 1.503 . S
C1340 C1339 1.410 . S
C1340 C1341 1.392 . S
C1340 C1343 1.511 . S
C1341 C1337 1.376 . S
C1341 C1340 1.392 . S
C1341 H1353 0.929 . S
C1342 C1338 1.531 . S
C1342 H1354 0.960 . S
C1342 H1355 0.962 . S
C1342 H1356 0.960 . S
C1343 C1340 1.511 . S
C1343 H1357 0.961 . S
C1343 H1358 0.961 . S
C1343 H1359 0.961 . S
C1344 C1345 1.370 . S
C1344 C1346 1.363 . S
C1344 H1360 0.931 . S
C1345 C1344 1.370 . S
C1345 C1349 1.408 . S
C1346 C1344 1.363 . S
C1346 C1347 1.370 . S
C1346 C1350 1.524 . S
C1347 C1339 1.503 . S
C1347 C1346 1.370 . S
C1347 C1348 1.403 . S
C1348 C1347 1.403 . S
C1348 C1349 1.404 . S
C1348 C1351 1.539 . S
C1349 C1345 1.408 . S
C1349 C1348 1.404 . S
C1349 H1361 0.930 . S
C1350 C1346 1.524 . S
C1350 H1362 0.956 . S
C1350 H1363 0.961 . S
C1350 H1364 0.961 . S
C1351 C1348 1.539 . S
C1351 H1365 0.958 . S
C1351 H1366 0.961 . S
C1351 H1367 0.960 . S
H1352 C1336 0.931 . S
H1353 C1341 0.929 . S
H1354 C1342 0.960 . S
H1355 C1342 0.962 . S
H1356 C1342 0.960 . S
H1357 C1343 0.961 . S
H1358 C1343 0.961 . S
H1359 C1343 0.961 . S
H1360 C1344 0.931 . S
H1361 C1349 0.930 . S
H1362 C1350 0.956 . S
H1363 C1350 0.961 . S
H1364 C1350 0.961 . S
H1365 C1351 0.958 . S
H1366 C1351 0.961 . S
H1367 C1351 0.960 . S
C1368 C1369 1.391 . S
C1368 C1370 1.394 . S
C1368 H1384 0.931 . S
C1369 C1368 1.391 . S
C1369 C1373 1.376 . S
C1370 C1368 1.394 . S
C1370 C1371 1.369 . S
C1370 C1374 1.531 . S
C1371 C1370 1.369 . S
C1371 C1372 1.410 . S
C1371 C1379 1.503 1_556 S
C1372 C1371 1.410 . S
C1372 C1373 1.392 . S
C1372 C1375 1.511 1_556 S
C1373 C1369 1.376 . S
C1373 C1372 1.392 . S
C1373 H1385 0.929 . S
C1374 C1370 1.531 . S
C1374 H1386 0.960 . S
C1374 H1387 0.962 . S
C1374 H1388 0.960 . S
C1375 C1372 1.511 1_554 S
C1375 H1389 0.961 . S
C1375 H1390 0.961 . S
C1375 H1391 0.961 . S
C1376 C1377 1.370 . S
C1376 C1378 1.363 . S
C1376 H1392 0.931 . S
C1377 C1376 1.370 . S
C1377 C1381 1.408 . S
C1378 C1376 1.363 . S
C1378 C1379 1.370 . S
C1378 C1382 1.524 1_554 S
C1379 C1371 1.503 1_554 S
C1379 C1378 1.370 . S
C1379 C1380 1.403 . S
C1380 C1379 1.403 . S
C1380 C1381 1.404 . S
C1380 C1383 1.539 . S
C1381 C1377 1.408 . S
C1381 C1380 1.404 . S
C1381 H1393 0.930 . S
C1382 C1378 1.524 1_556 S
C1382 H1394 0.956 . S
C1382 H1395 0.961 . S
C1382 H1396 0.961 1_556 S
C1383 C1380 1.539 . S
C1383 H1397 0.958 . S
C1383 H1398 0.961 . S
C1383 H1399 0.960 . S
H1384 C1368 0.931 . S
H1385 C1373 0.929 . S
H1386 C1374 0.960 . S
H1387 C1374 0.962 . S
H1388 C1374 0.960 . S
H1389 C1375 0.961 . S
H1390 C1375 0.961 . S
H1391 C1375 0.961 . S
H1392 C1376 0.931 . S
H1393 C1381 0.930 . S
H1394 C1382 0.956 . S
H1395 C1382 0.961 . S
H1396 C1382 0.961 1_554 S
H1397 C1383 0.958 . S
H1398 C1383 0.961 . S
H1399 C1383 0.960 . S
C1400 C1401 1.391 . S
C1400 C1402 1.394 . S
C1400 H1416 0.931 . S
C1401 C1400 1.391 . S
C1401 C1405 1.376 . S
C1402 C1400 1.394 . S
C1402 C1403 1.369 . S
C1402 C1406 1.531 . S
C1403 C1402 1.369 . S
C1403 C1404 1.410 . S
C1403 C1411 1.503 1_455 S
C1404 C1403 1.410 . S
C1404 C1405 1.392 . S
C1404 C1407 1.511 1_455 S
C1405 C1401 1.376 . S
C1405 C1404 1.392 . S
C1405 H1417 0.929 . S
C1406 C1402 1.531 . S
C1406 H1418 0.960 1_455 S
C1406 H1419 0.962 . S
C1406 H1420 0.960 . S
C1407 C1404 1.511 1_655 S
C1407 H1421 0.961 . S
C1407 H1422 0.961 . S
C1407 H1423 0.961 . S
C1408 C1409 1.370 . S
C1408 C1410 1.363 1_655 S
C1408 H1424 0.931 . S
C1409 C1408 1.370 . S
C1409 C1413 1.408 . S
C1410 C1408 1.363 1_455 S
C1410 C1411 1.370 1_455 S
C1410 C1414 1.524 . S
C1411 C1403 1.503 1_655 S
C1411 C1410 1.370 1_655 S
C1411 C1412 1.403 . S
C1412 C1411 1.403 . S
C1412 C1413 1.404 . S
C1412 C1415 1.539 . S
C1413 C1409 1.408 . S
C1413 C1412 1.404 . S
C1413 H1425 0.930 . S
C1414 C1410 1.524 . S
C1414 H1426 0.956 . S
C1414 H1427 0.961 . S
C1414 H1428 0.961 . S
C1415 C1412 1.539 . S
C1415 H1429 0.958 . S
C1415 H1430 0.961 . S
C1415 H1431 0.960 . S
H1416 C1400 0.931 . S
H1417 C1405 0.929 . S
H1418 C1406 0.960 1_655 S
H1419 C1406 0.962 . S
H1420 C1406 0.960 . S
H1421 C1407 0.961 . S
H1422 C1407 0.961 . S
H1423 C1407 0.961 . S
H1424 C1408 0.931 . S
H1425 C1413 0.930 . S
H1426 C1414 0.956 . S
H1427 C1414 0.961 . S
H1428 C1414 0.961 . S
H1429 C1415 0.958 . S
H1430 C1415 0.961 . S
H1431 C1415 0.960 . S
C1432 C1433 1.391 . S
C1432 C1434 1.394 1_565 S
C1432 H1448 0.931 . S
C1433 C1432 1.391 . S
C1433 C1437 1.376 . S
C1434 C1432 1.394 1_545 S
C1434 C1435 1.369 1_545 S
C1434 C1438 1.531 . S
C1435 C1434 1.369 1_565 S
C1435 C1436 1.410 . S
C1435 C1443 1.503 1_564 S
C1436 C1435 1.410 . S
C1436 C1437 1.392 . S
C1436 C1439 1.488 1_554 S
C1437 C1433 1.376 . S
C1437 C1436 1.392 . S
C1437 H1449 0.929 . S
C1438 C1434 1.531 . S
C1438 H1450 0.960 . S
C1438 H1451 0.962 . S
C1438 H1452 0.960 . S
C1439 C1436 1.488 1_556 S
C1439 H1453 0.960 1_556 S
C1439 H1454 0.994 . S
C1439 H1455 0.954 1_556 S
C1440 C1441 1.370 . S
C1440 C1442 1.363 . S
C1440 H1456 0.931 . S
C1441 C1440 1.370 . S
C1441 C1445 1.408 . S
C1442 C1440 1.363 . S
C1442 C1443 1.370 . S
C1442 C1446 1.524 1_545 S
C1443 C1435 1.503 1_546 S
C1443 C1442 1.370 . S
C1443 C1444 1.403 . S
C1444 C1443 1.403 . S
C1444 C1445 1.404 . S
C1444 C1447 1.539 1_556 S
C1445 C1441 1.408 . S
C1445 C1444 1.404 . S
C1445 H1457 0.930 . S
C1446 C1442 1.524 1_565 S
C1446 H1458 0.956 . S
C1446 H1459 0.961 . S
C1446 H1460 0.961 . S
C1447 C1444 1.539 1_554 S
C1447 H1461 0.958 . S
C1447 H1462 0.956 1_554 S
C1447 H1463 0.960 . S
H1448 C1432 0.931 . S
H1449 C1437 0.929 . S
H1450 C1438 0.960 . S
H1451 C1438 0.962 . S
H1452 C1438 0.960 . S
H1453 C1439 0.960 1_554 S
H1454 C1439 0.994 . S
H1455 C1439 0.954 1_554 S
H1456 C1440 0.931 . S
H1457 C1445 0.930 . S
H1458 C1446 0.956 . S
H1459 C1446 0.961 . S
H1460 C1446 0.961 . S
H1461 C1447 0.958 . S
H1462 C1447 0.956 1_556 S
H1463 C1447 0.960 . S
C1464 C1465 1.391 . S
C1464 C1466 1.394 . S
C1464 H1480 0.931 . S
C1465 C1464 1.391 . S
C1465 C1469 1.376 . S
C1466 C1464 1.394 . S
C1466 C1467 1.369 . S
C1466 C1470 1.531 . S
C1467 C1466 1.369 . S
C1467 C1468 1.410 . S
C1467 C1475 1.503 . S
C1468 C1467 1.410 . S
C1468 C1469 1.392 . S
C1468 C1471 1.511 . S
C1469 C1465 1.376 . S
C1469 C1468 1.392 . S
C1469 H1481 0.929 . S
C1470 C1466 1.531 . S
C1470 H1482 0.960 . S
C1470 H1483 0.962 . S
C1470 H1484 0.960 . S
C1471 C1468 1.511 . S
C1471 H1485 0.961 . S
C1471 H1486 0.961 . S
C1471 H1487 0.961 . S
C1472 C1473 1.370 . S
C1472 C1474 1.363 . S
C1472 H1488 0.931 . S
C1473 C1472 1.370 . S
C1473 C1477 1.408 . S
C1474 C1472 1.363 . S
C1474 C1475 1.370 . S
C1474 C1478 1.524 . S
C1475 C1467 1.503 . S
C1475 C1474 1.370 . S
C1475 C1476 1.403 . S
C1476 C1475 1.403 . S
C1476 C1477 1.404 . S
C1476 C1479 1.539 . S
C1477 C1473 1.408 . S
C1477 C1476 1.404 . S
C1477 H1489 0.930 . S
C1478 C1474 1.524 . S
C1478 H1490 0.956 . S
C1478 H1491 0.961 . S
C1478 H1492 0.961 . S
C1479 C1476 1.539 . S
C1479 H1493 0.958 . S
C1479 H1494 0.961 . S
C1479 H1495 0.960 . S
H1480 C1464 0.931 . S
H1481 C1469 0.929 . S
H1482 C1470 0.960 . S
H1483 C1470 0.962 . S
H1484 C1470 0.960 . S
H1485 C1471 0.961 . S
H1486 C1471 0.961 . S
H1487 C1471 0.961 . S
H1488 C1472 0.931 . S
H1489 C1477 0.930 . S
H1490 C1478 0.956 . S
H1491 C1478 0.961 . S
H1492 C1478 0.961 . S
H1493 C1479 0.958 . S
H1494 C1479 0.961 . S
H1495 C1479 0.960 . S
C1496 C1497 1.391 . S
C1496 C1498 1.394 1_655 S
C1496 H1512 0.931 . S
C1497 C1496 1.391 . S
C1497 C1501 1.376 . S
C1498 C1496 1.394 1_455 S
C1498 C1499 1.369 1_455 S
C1498 C1502 1.531 . S
C1499 C1498 1.369 1_655 S
C1499 C1500 1.410 . S
C1499 C1507 1.503 1_656 S
C1500 C1499 1.410 . S
C1500 C1501 1.392 . S
C1500 C1503 1.511 1_556 S
C1501 C1497 1.376 . S
C1501 C1500 1.392 . S
C1501 H1513 0.929 . S
C1502 C1498 1.531 . S
C1502 H1514 0.960 . S
C1502 H1515 0.962 . S
C1502 H1516 0.960 . S
C1503 C1500 1.511 1_554 S
C1503 H1517 0.961 . S
C1503 H1518 0.961 . S
C1503 H1519 0.961 . S
C1504 C1505 1.370 . S
C1504 C1506 1.363 . S
C1504 H1520 0.931 . S
C1505 C1504 1.370 . S
C1505 C1509 1.408 . S
C1506 C1504 1.363 . S
C1506 C1507 1.370 . S
C1506 C1510 1.524 . S
C1507 C1499 1.503 1_454 S
C1507 C1506 1.370 . S
C1507 C1508 1.403 . S
C1508 C1507 1.403 . S
C1508 C1509 1.404 . S
C1508 C1511 1.539 1_455 S
C1509 C1505 1.408 . S
C1509 C1508 1.404 . S
C1509 H1521 0.930 . S
C1510 C1506 1.524 . S
C1510 H1522 0.956 1_554 S
C1510 H1523 0.960 1_455 S
C1510 H1524 0.961 . S
C1511 C1508 1.539 1_655 S
C1511 H1525 0.958 1_655 S
C1511 H1526 0.961 . S
C1511 H1527 0.960 . S
H1512 C1496 0.931 . S
H1513 C1501 0.929 . S
H1514 C1502 0.960 . S
H1515 C1502 0.962 . S
H1516 C1502 0.960 . S
H1517 C1503 0.961 . S
H1518 C1503 0.961 . S
H1519 C1503 0.961 . S
H1520 C1504 0.931 . S
H1521 C1509 0.930 . S
H1522 C1510 0.956 1_556 S
H1523 C1510 0.960 1_655 S
H1524 C1510 0.961 . S
H1525 C1511 0.958 1_455 S
H1526 C1511 0.961 . S
H1527 C1511 0.960 . S
C1528 C1529 1.391 . S
C1528 C1530 1.394 . S
C1528 H1544 0.931 . S
C1529 C1528 1.391 . S
C1529 C1533 1.376 . S
C1530 C1528 1.394 . S
C1530 C1531 1.369 . S
C1530 C1534 1.531 . S
C1531 C1530 1.369 . S
C1531 C1532 1.410 1_565 S
C1531 C1539 1.503 1_565 S
C1532 C1531 1.410 1_545 S
C1532 C1533 1.392 1_545 S
C1532 C1535 1.511 . S
C1533 C1529 1.376 . S
C1533 C1532 1.392 1_565 S
C1533 H1545 0.929 . S
C1534 C1530 1.531 . S
C1534 H1546 0.960 . S
C1534 H1547 0.962 . S
C1534 H1548 0.960 . S
C1535 C1532 1.511 . S
C1535 H1549 0.961 . S
C1535 H1550 0.961 . S
C1535 H1551 0.961 . S
C1536 C1537 1.370 . S
C1536 C1538 1.363 . S
C1536 H1552 0.931 . S
C1537 C1536 1.370 . S
C1537 C1541 1.408 . S
C1538 C1536 1.363 . S
C1538 C1539 1.370 . S
C1538 C1542 1.524 . S
C1539 C1531 1.503 1_545 S
C1539 C1538 1.370 . S
C1539 C1540 1.403 . S
C1540 C1539 1.403 . S
C1540 C1541 1.404 . S
C1540 C1543 1.539 1_545 S
C1541 C1537 1.408 . S
C1541 C1540 1.404 . S
C1541 H1553 0.930 . S
C1542 C1538 1.524 . S
C1542 H1554 0.956 . S
C1542 H1555 0.961 . S
C1542 H1556 0.961 . S
C1543 C1540 1.539 1_565 S
C1543 H1557 0.958 . S
C1543 H1558 0.961 . S
C1543 H1559 0.960 . S
H1544 C1528 0.931 . S
H1545 C1533 0.929 . S
H1546 C1534 0.960 . S
H1547 C1534 0.962 . S
H1548 C1534 0.960 . S
H1549 C1535 0.961 . S
H1550 C1535 0.961 . S
H1551 C1535 0.961 . S
H1552 C1536 0.931 . S
H1553 C1541 0.930 . S
H1554 C1542 0.956 . S
H1555 C1542 0.961 . S
H1556 C1542 0.961 . S
H1557 C1543 0.958 . S
H1558 C1543 0.961 . S
H1559 C1543 0.960 . S
C409 C144 0.915 . S
C417 C0 0.900 . S
C441 C178 0.909 . S
C449 C34 0.917 1_455 S
C473 C68 0.916 1_545 S
C481 C8 0.914 . S
C505 C102 0.876 . S
C513 C42 0.917 . S
C537 C136 0.920 1_655 S
C545 C76 0.913 . S
C569 C110 0.917 . S
C577 C170 0.897 1_565 S
C601 C280 0.913 . S
C609 C204 0.903 . S
C633 C238 0.907 1_455 S
C641 C314 0.914 . S
C665 C348 0.920 . S
C673 C272 0.901 . S
C697 C306 0.879 . S
C705 C382 0.918 . S
C729 C340 0.907 . S
C737 C212 0.917 . S
C761 C246 0.920 . S
C769 C374 0.901 . S
C793 C153 1.139 . S
C801 C29 1.146 . S
C825 C63 1.147 . S
C833 C187 1.135 . S
C857 C97 1.146 . S
C865 C17 1.140 . S
C889 C131 1.136 . S
C897 C51 1.129 . S
C921 C85 1.144 . S
C929 C165 1.146 . S
C953 C119 1.115 . S
C961 C199 1.145 . S
C985 C289 1.127 . S
C993 C233 1.142 . S
C1017 C267 1.140 . S
C1025 C323 1.124 . S
C1049 C301 1.146 . S
C1057 C357 1.139 . S
C1081 C391 1.129 . S
C1089 C335 1.142 . S
C1113 C369 1.136 . S
C1121 C221 1.132 . S
C1145 C255 1.109 . S
C1153 C403 1.144 . S
C1177 C353 1.556 . S
C1185 C13 1.576 . S
C1209 C47 1.573 . S
C1217 C387 1.573 . S
C1241 C81 1.579 . S
C1249 C217 1.567 . S
C1273 C115 1.578 . S
C1281 C251 1.571 . S
C1305 C149 1.566 . S
C1313 C285 1.566 . S
C1337 C319 1.567 . S
C1345 C183 1.566 . S
C1369 C310 1.773 . S
C1377 C4 1.764 . S
C1401 C344 1.748 . S
C1409 C38 1.775 . S
C1433 C72 1.752 . S
C1441 C378 1.773 . S
C1465 C106 1.766 . S
C1473 C208 1.767 . S
C1497 C242 1.769 . S
C1505 C140 1.766 . S
C1529 C276 1.770 . S
C1537 C174 1.766 . S
