# Generated by pormake.
# Topology lcy-e, (6)-cn, num edge types: 1
# Building blocks:
#     Node 0, Type 0, BuildingBlock: BETFEN_clean_sbu_0, # of connection points: 6
#     Node 1, Type 0, BuildingBlock: BETFEN_clean_sbu_0, # of connection points: 6
#     Node 2, Type 0, BuildingBlock: BETFEN_clean_sbu_0, # of connection points: 6
#     Node 3, Type 0, BuildingBlock: BETFEN_clean_sbu_0, # of connection points: 6
#     Node 4, Type 0, BuildingBlock: BETFEN_clean_sbu_0, # of connection points: 6
#     Node 5, Type 0, BuildingBlock: BETFEN_clean_sbu_0, # of connection points: 6
#     Node 6, Type 0, BuildingBlock: BETFEN_clean_sbu_0, # of connection points: 6
#     Node 7, Type 0, BuildingBlock: BETFEN_clean_sbu_0, # of connection points: 6
#     Node 8, Type 0, BuildingBlock: BETFEN_clean_sbu_0, # of connection points: 6
#     Node 9, Type 0, BuildingBlock: BETFEN_clean_sbu_0, # of connection points: 6
#     Node 10, Type 0, BuildingBlock: BETFEN_clean_sbu_0, # of connection points: 6
#     Node 11, Type 0, BuildingBlock: BETFEN_clean_sbu_0, # of connection points: 6
#     Edge 12, Type (0, 0), BuildingBlock: XUDNAN_clean_linker_2, # of connection points: 2
#     Edge 13, Type (0, 0), BuildingBlock: XUDNAN_clean_linker_2, # of connection points: 2
#     Edge 14, Type (0, 0), BuildingBlock: XUDNAN_clean_linker_2, # of connection points: 2
#     Edge 15, Type (0, 0), BuildingBlock: XUDNAN_clean_linker_2, # of connection points: 2
#     Edge 16, Type (0, 0), BuildingBlock: XUDNAN_clean_linker_2, # of connection points: 2
#     Edge 17, Type (0, 0), BuildingBlock: XUDNAN_clean_linker_2, # of connection points: 2
#     Edge 18, Type (0, 0), BuildingBlock: XUDNAN_clean_linker_2, # of connection points: 2
#     Edge 19, Type (0, 0), BuildingBlock: XUDNAN_clean_linker_2, # of connection points: 2
#     Edge 20, Type (0, 0), BuildingBlock: XUDNAN_clean_linker_2, # of connection points: 2
#     Edge 21, Type (0, 0), BuildingBlock: XUDNAN_clean_linker_2, # of connection points: 2
#     Edge 22, Type (0, 0), BuildingBlock: XUDNAN_clean_linker_2, # of connection points: 2
#     Edge 23, Type (0, 0), BuildingBlock: XUDNAN_clean_linker_2, # of connection points: 2
#     Edge 24, Type (0, 0), BuildingBlock: XUDNAN_clean_linker_2, # of connection points: 2
#     Edge 25, Type (0, 0), BuildingBlock: XUDNAN_clean_linker_2, # of connection points: 2
#     Edge 26, Type (0, 0), BuildingBlock: XUDNAN_clean_linker_2, # of connection points: 2
#     Edge 27, Type (0, 0), BuildingBlock: XUDNAN_clean_linker_2, # of connection points: 2
#     Edge 28, Type (0, 0), BuildingBlock: XUDNAN_clean_linker_2, # of connection points: 2
#     Edge 29, Type (0, 0), BuildingBlock: XUDNAN_clean_linker_2, # of connection points: 2
#     Edge 30, Type (0, 0), BuildingBlock: XUDNAN_clean_linker_2, # of connection points: 2
#     Edge 31, Type (0, 0), BuildingBlock: XUDNAN_clean_linker_2, # of connection points: 2
#     Edge 32, Type (0, 0), BuildingBlock: XUDNAN_clean_linker_2, # of connection points: 2
#     Edge 33, Type (0, 0), BuildingBlock: XUDNAN_clean_linker_2, # of connection points: 2
#     Edge 34, Type (0, 0), BuildingBlock: XUDNAN_clean_linker_2, # of connection points: 2
#     Edge 35, Type (0, 0), BuildingBlock: XUDNAN_clean_linker_2, # of connection points: 2
#     Edge 36, Type (0, 0), BuildingBlock: XUDNAN_clean_linker_2, # of connection points: 2
#     Edge 37, Type (0, 0), BuildingBlock: XUDNAN_clean_linker_2, # of connection points: 2
#     Edge 38, Type (0, 0), BuildingBlock: XUDNAN_clean_linker_2, # of connection points: 2
#     Edge 39, Type (0, 0), BuildingBlock: XUDNAN_clean_linker_2, # of connection points: 2
#     Edge 40, Type (0, 0), BuildingBlock: XUDNAN_clean_linker_2, # of connection points: 2
#     Edge 41, Type (0, 0), BuildingBlock: XUDNAN_clean_linker_2, # of connection points: 2
#     Edge 42, Type (0, 0), BuildingBlock: XUDNAN_clean_linker_2, # of connection points: 2
#     Edge 43, Type (0, 0), BuildingBlock: XUDNAN_clean_linker_2, # of connection points: 2
#     Edge 44, Type (0, 0), BuildingBlock: XUDNAN_clean_linker_2, # of connection points: 2
#     Edge 45, Type (0, 0), BuildingBlock: XUDNAN_clean_linker_2, # of connection points: 2
#     Edge 46, Type (0, 0), BuildingBlock: XUDNAN_clean_linker_2, # of connection points: 2
#     Edge 47, Type (0, 0), BuildingBlock: XUDNAN_clean_linker_2, # of connection points: 2
# Relax obj value: 0.212
# Max RMSD: 0.305
# Mean RMSD: 0.293
data_MOF--net-lcy-e--node1-BETFEN_clean_sbu_0--edge1-XUDNAN_clean_linker_2
_symmetry_space_group_name_H-M    P1
_symmetry_Int_Tables_number       1
_symmetry_cell_setting            triclinic
loop_
_symmetry_equiv_pos_as_xyz
'x, y, z'
_cell_length_a     44.795114
_cell_length_b     43.559907
_cell_length_c     46.091938
_cell_angle_alpha  89.991898
_cell_angle_beta   88.682363
_cell_angle_gamma 88.493226
loop_
_atom_site_label
_atom_site_type_symbol
_atom_site_fract_x
_atom_site_fract_y
_atom_site_fract_z
_atom_type_partial_charge
Pr0 Pr 0.12966 0.23595 0.51549 0.0
Pr1 Pr 0.11847 0.28048 0.46555 0.0
C2 C 0.13428 0.20111 0.56351 0.0
C3 C 0.12401 0.17068 0.57335 0.0
C4 C 0.14527 0.14794 0.58063 0.0
C5 C 0.13634 0.1201 0.59258 0.0
C6 C 0.10592 0.11438 0.59761 0.0
C7 C 0.08447 0.13628 0.58871 0.0
C8 C 0.09343 0.16426 0.5767 0.0
C9 C 0.16587 0.22456 0.46546 0.0
C10 C 0.07779 0.21746 0.47037 0.0
C11 C 0.1153 0.31117 0.41464 0.0
C12 C 0.12899 0.33277 0.39347 0.0
C13 C 0.11314 0.35991 0.38648 0.0
C14 C 0.12205 0.37788 0.36281 0.0
C15 C 0.14717 0.36926 0.34556 0.0
C16 C 0.16439 0.34334 0.35373 0.0
C17 C 0.15529 0.32512 0.37738 0.0
C18 C 0.08893 0.29759 0.51763 0.0
C19 C 0.16774 0.29912 0.51193 0.0
O20 O 0.1141 0.2231 0.5608 0.0
O21 O 0.15493 0.20129 0.54301 0.0
O22 O 0.15935 0.25037 0.4764 0.0
O23 O 0.15263 0.20337 0.48036 0.0
O24 O 0.08651 0.24036 0.4537 0.0
O25 O 0.0892 0.21242 0.49599 0.0
O26 O 0.12666 0.28328 0.41693 0.0
O27 O 0.10407 0.32212 0.4391 0.0
O28 O 0.09094 0.2703 0.50801 0.0
O29 O 0.10004 0.31669 0.49889 0.0
O30 O 0.15452 0.28004 0.53005 0.0
O31 O 0.16209 0.29947 0.48403 0.0
H32 H 0.16892 0.15211 0.57802 0.0
H33 H 0.15332 0.1035 0.59913 0.0
H34 H 0.0609 0.13254 0.59259 0.0
H35 H 0.07644 0.18121 0.57099 0.0
H36 H 0.0928 0.3664 0.39837 0.0
H37 H 0.10843 0.3978 0.35711 0.0
H38 H 0.18374 0.33605 0.34072 0.0
H39 H 0.16804 0.30433 0.38215 0.0
Pr40 Pr 0.97471 0.8841 0.7142 0.0
Pr41 Pr 0.01924 0.8942 0.76399 0.0
C42 C 0.93063 0.88674 0.6751 0.0
C43 C 0.92084 0.90045 0.64725 0.0
C44 C 0.9256 0.88485 0.62069 0.0
C45 C 0.9145 0.8972 0.59481 0.0
C46 C 0.89843 0.92538 0.59498 0.0
C47 C 0.89333 0.94059 0.62162 0.0
C48 C 0.90434 0.92832 0.64735 0.0
C49 C 0.02428 0.84495 0.71227 0.0
C50 C 0.02421 0.94053 0.70824 0.0
C51 C 0.06324 0.89359 0.80305 0.0
C52 C 0.08439 0.87734 0.82232 0.0
C53 C 0.08514 0.88624 0.8515 0.0
C54 C 0.10744 0.87475 0.86951 0.0
C55 C 0.12959 0.85385 0.85888 0.0
C56 C 0.12852 0.84446 0.82969 0.0
C57 C 0.10615 0.8561 0.81157 0.0
C58 C 0.96553 0.92929 0.76736 0.0
C59 C 0.97063 0.84139 0.77342 0.0
O60 O 0.93174 0.90496 0.69764 0.0
O61 O 0.95191 0.86555 0.67452 0.0
O62 O 0.02504 0.87313 0.71856 0.0
O63 O 0.99802 0.8368 0.7043 0.0
O64 O 0.0371 0.92947 0.73147 0.0
O65 O 0.99951 0.92886 0.69806 0.0
O66 O 0.06798 0.89174 0.775 0.0
O67 O 0.03493 0.89625 0.81066 0.0
O68 O 0.96855 0.90156 0.76056 0.0
O69 O 0.99114 0.94037 0.77415 0.0
O70 O 0.95482 0.85586 0.75335 0.0
O71 O 0.99931 0.84664 0.77589 0.0
H72 H 0.93776 0.86303 0.61992 0.0
H73 H 0.91887 0.88494 0.57465 0.0
H74 H 0.88049 0.962 0.62268 0.0
H75 H 0.89956 0.94062 0.66741 0.0
H76 H 0.069 0.90299 0.86018 0.0
H77 H 0.10777 0.88306 0.89164 0.0
H78 H 0.14496 0.82816 0.82082 0.0
H79 H 0.10631 0.84897 0.78905 0.0
Pr80 Pr 0.36672 0.73856 0.97445 0.0
Pr81 Pr 0.35238 0.79399 0.02049 0.0
C82 C 0.36039 0.68728 0.94284 0.0
C83 C 0.35405 0.67818 0.91276 0.0
C84 C 0.3683 0.6917 0.88868 0.0
C85 C 0.36074 0.68342 0.86045 0.0
C86 C 0.33867 0.66162 0.85575 0.0
C87 C 0.32459 0.64811 0.87998 0.0
C88 C 0.33221 0.65632 0.90813 0.0
C89 C 0.40437 0.78776 0.96176 0.0
C90 C 0.31127 0.79156 0.96302 0.0
C91 C 0.35259 0.84229 0.05693 0.0
C92 C 0.37091 0.86352 0.07343 0.0
C93 C 0.36029 0.87429 0.10055 0.0
C94 C 0.37402 0.89876 0.11418 0.0
C95 C 0.39852 0.91293 0.10073 0.0
C96 C 0.41047 0.90053 0.07462 0.0
C97 C 0.3968 0.87605 0.06106 0.0
C98 C 0.31738 0.74168 0.02449 0.0
C99 C 0.40193 0.74013 0.03719 0.0
O100 O 0.33826 0.70112 0.95706 0.0
O101 O 0.38658 0.69869 0.94815 0.0
O102 O 0.38431 0.78698 0.98147 0.0
O103 O 0.4047 0.76227 0.94712 0.0
O104 O 0.32057 0.80907 0.98408 0.0
O105 O 0.32372 0.76443 0.95647 0.0
O106 O 0.3533 0.84486 0.02856 0.0
O107 O 0.35032 0.81397 0.06614 0.0
O108 O 0.34483 0.7425 0.0192 0.0
O109 O 0.30662 0.76894 0.03088 0.0
O110 O 0.39213 0.72207 0.0164 0.0
O111 O 0.39481 0.76971 0.03877 0.0
H112 H 0.38507 0.70883 0.89163 0.0
H113 H 0.37227 0.69404 0.8423 0.0
H114 H 0.30716 0.63166 0.87724 0.0
H115 H 0.32068 0.64587 0.92639 0.0
H116 H 0.34034 0.86491 0.11044 0.0
H117 H 0.36425 0.90785 0.13421 0.0
H118 H 0.42965 0.91068 0.064 0.0
H119 H 0.40561 0.86797 0.04027 0.0
Pr120 Pr 0.52412 0.14557 0.21032 0.0
Pr121 Pr 0.46685 0.13934 0.26069 0.0
C122 C 0.57173 0.13154 0.17561 0.0
C123 C 0.57903 0.12067 0.14565 0.0
C124 C 0.59791 0.13767 0.12737 0.0
C125 C 0.60772 0.12588 0.10035 0.0
C126 C 0.59895 0.09671 0.09108 0.0
C127 C 0.57903 0.08036 0.10894 0.0
C128 C 0.56922 0.09214 0.13583 0.0
C129 C 0.47779 0.19012 0.20402 0.0
C130 C 0.46785 0.09637 0.20065 0.0
C131 C 0.41547 0.14631 0.29175 0.0
C132 C 0.39686 0.16236 0.31437 0.0
C133 C 0.39707 0.15184 0.34322 0.0
C134 C 0.37584 0.16288 0.36361 0.0
C135 C 0.3538 0.18472 0.35569 0.0
C136 C 0.35443 0.19622 0.32714 0.0
C137 C 0.37566 0.18509 0.3067 0.0
C138 C 0.51715 0.10143 0.27225 0.0
C139 C 0.52527 0.18049 0.27466 0.0
O140 O 0.55896 0.11187 0.19312 0.0
O141 O 0.56162 0.1599 0.17926 0.0
O142 O 0.47933 0.1681 0.22154 0.0
O143 O 0.5015 0.18906 0.18712 0.0
O144 O 0.45397 0.10358 0.22552 0.0
O145 O 0.49259 0.10925 0.19077 0.0
O146 O 0.41961 0.15915 0.26623 0.0
O147 O 0.4382 0.12925 0.30009 0.0
O148 O 0.51241 0.11796 0.25037 0.0
O149 O 0.49351 0.10321 0.28919 0.0
O150 O 0.54148 0.16656 0.25369 0.0
O151 O 0.49573 0.17955 0.27682 0.0
H152 H 0.60585 0.15968 0.13437 0.0
H153 H 0.62313 0.13912 0.0873 0.0
H154 H 0.57123 0.05817 0.10231 0.0
H155 H 0.55446 0.07845 0.14918 0.0
H156 H 0.41279 0.134 0.34983 0.0
H157 H 0.37588 0.15311 0.38521 0.0
H158 H 0.3381 0.21338 0.32038 0.0
H159 H 0.37472 0.19349 0.28461 0.0
Pr160 Pr 0.61756 0.25326 0.52715 0.0
Pr161 Pr 0.63227 0.30457 0.48237 0.0
C162 C 0.61023 0.20251 0.55994 0.0
C163 C 0.62242 0.1874 0.58626 0.0
C164 C 0.60993 0.19388 0.61401 0.0
C165 C 0.61947 0.17747 0.63843 0.0
C166 C 0.64138 0.15398 0.63553 0.0
C167 C 0.65454 0.14817 0.60803 0.0
C168 C 0.64522 0.1647 0.58369 0.0
C169 C 0.58273 0.3071 0.5337 0.0
C170 C 0.67205 0.2992 0.54342 0.0
C171 C 0.63575 0.35874 0.45389 0.0
C172 C 0.6203 0.38024 0.43364 0.0
C173 C 0.63529 0.38891 0.40802 0.0
C174 C 0.62276 0.41089 0.38947 0.0
C175 C 0.59464 0.42489 0.39583 0.0
C176 C 0.57942 0.41609 0.42149 0.0
C177 C 0.59209 0.394 0.44018 0.0
C178 C 0.66358 0.24871 0.47193 0.0
C179 C 0.58287 0.25493 0.46366 0.0
O180 O 0.62704 0.20275 0.53631 0.0
O181 O 0.59444 0.22791 0.5637 0.0
O182 O 0.59037 0.29474 0.50989 0.0
O183 O 0.59268 0.2911 0.55538 0.0
O184 O 0.66485 0.31632 0.52071 0.0
O185 O 0.65872 0.27322 0.54915 0.0
O186 O 0.62505 0.3562 0.48044 0.0
O187 O 0.64703 0.33288 0.44339 0.0
O188 O 0.65811 0.26065 0.49666 0.0
O189 O 0.65421 0.2669 0.45147 0.0
O190 O 0.59084 0.23858 0.48653 0.0
O191 O 0.59176 0.2833 0.45961 0.0
H192 H 0.59214 0.21102 0.6168 0.0
H193 H 0.60872 0.18215 0.65932 0.0
H194 H 0.67157 0.13022 0.60525 0.0
H195 H 0.65528 0.15902 0.56272 0.0
H196 H 0.65718 0.37909 0.40258 0.0
H197 H 0.6356 0.41739 0.37037 0.0
H198 H 0.55766 0.4261 0.42706 0.0
H199 H 0.57992 0.38799 0.45982 0.0
Pr200 Pr 0.97107 0.39918 0.72107 0.0
Pr201 Pr 0.01122 0.37893 0.77327 0.0
C202 C 0.93637 0.40038 0.67378 0.0
C203 C 0.9077 0.38815 0.6636 0.0
C204 C 0.8859 0.40826 0.65216 0.0
C205 C 0.85905 0.39711 0.64169 0.0
C206 C 0.85332 0.3655 0.64242 0.0
C207 C 0.87532 0.3454 0.65379 0.0
C208 C 0.90205 0.35656 0.66434 0.0
C209 C 0.96244 0.43537 0.76989 0.0
C210 C 0.95203 0.33852 0.76363 0.0
C211 C 0.04429 0.37693 0.82216 0.0
C212 C 0.06139 0.39361 0.84449 0.0
C213 C 0.08801 0.38036 0.85501 0.0
C214 C 0.10317 0.39392 0.87796 0.0
C215 C 0.09215 0.42127 0.89116 0.0
C216 C 0.06549 0.43459 0.88032 0.0
C217 C 0.05041 0.42103 0.85735 0.0
C218 C 0.02445 0.35028 0.71884 0.0
C219 C 0.03167 0.43685 0.73107 0.0
O220 O 0.95877 0.38082 0.67711 0.0
O221 O 0.93482 0.42166 0.69386 0.0
O222 O 0.96607 0.40629 0.77077 0.0
O223 O 0.96124 0.44575 0.74349 0.0
O224 O 0.9738 0.34359 0.78167 0.0
O225 O 0.94826 0.3551 0.73987 0.0
O226 O 0.01521 0.3807 0.82219 0.0
O227 O 0.05593 0.37301 0.79608 0.0
O228 O 0.01727 0.37771 0.72401 0.0
O229 O 0.02729 0.33576 0.74343 0.0
O230 O 0.0148 0.42614 0.71027 0.0
O231 O 0.0287 0.42697 0.75814 0.0
H232 H 0.88967 0.43271 0.65129 0.0
H233 H 0.8426 0.41335 0.63347 0.0
H234 H 0.87208 0.32086 0.65431 0.0
H235 H 0.91834 0.34036 0.67294 0.0
H236 H 0.0969 0.35907 0.84574 0.0
H237 H 0.12366 0.38299 0.88518 0.0
H238 H 0.05573 0.45525 0.89001 0.0
H239 H 0.02982 0.43175 0.85004 0.0
Pr240 Pr 0.86677 0.78004 0.03033 0.0
Pr241 Pr 0.86066 0.72845 0.98561 0.0
C242 C 0.85937 0.82789 0.06736 0.0
C243 C 0.84858 0.83668 0.09702 0.0
C244 C 0.86789 0.83589 0.12068 0.0
C245 C 0.85813 0.84673 0.14802 0.0
C246 C 0.82886 0.85866 0.15234 0.0
C247 C 0.80953 0.85915 0.12871 0.0
C248 C 0.81927 0.84839 0.10143 0.0
C249 C 0.9107 0.734 0.03415 0.0
C250 C 0.81885 0.72412 0.04428 0.0
C251 C 0.86391 0.68128 0.94758 0.0
C252 C 0.88088 0.65743 0.93095 0.0
C253 C 0.87302 0.65165 0.90221 0.0
C254 C 0.88484 0.6259 0.88739 0.0
C255 C 0.90464 0.60532 0.90116 0.0
C256 C 0.91358 0.61197 0.9295 0.0
C257 C 0.90183 0.6378 0.94427 0.0
C258 C 0.81902 0.77797 0.98038 0.0
C259 C 0.90457 0.78361 0.96909 0.0
O260 O 0.83936 0.8201 0.04866 0.0
O261 O 0.88445 0.81194 0.06451 0.0
O262 O 0.88347 0.72914 0.02975 0.0
O263 O 0.91546 0.76288 0.0386 0.0
O264 O 0.83048 0.70881 0.02201 0.0
O265 O 0.82718 0.75212 0.05074 0.0
O266 O 0.86122 0.67786 0.97568 0.0
O267 O 0.86484 0.70996 0.9393 0.0
O268 O 0.84625 0.77947 0.98569 0.0
O269 O 0.81276 0.74954 0.97559 0.0
O270 O 0.8881 0.80023 0.98775 0.0
O271 O 0.90421 0.75337 0.97038 0.0
H272 H 0.89071 0.82734 0.11801 0.0
H273 H 0.87355 0.8458 0.16577 0.0
H274 H 0.78704 0.86871 0.13103 0.0
H275 H 0.80396 0.84989 0.0836 0.0
H276 H 0.85666 0.66631 0.89163 0.0
H277 H 0.87734 0.62133 0.86568 0.0
H278 H 0.92918 0.59681 0.94049 0.0
H279 H 0.90829 0.64171 0.96643 0.0
Pr280 Pr 0.5182 0.64908 0.24292 0.0
Pr281 Pr 0.4668 0.65388 0.28714 0.0
C282 C 0.55639 0.65036 0.19676 0.0
C283 C 0.58739 0.6545 0.18638 0.0
C284 C 0.6098 0.63172 0.18953 0.0
C285 C 0.63825 0.63578 0.17712 0.0
C286 C 0.64466 0.66257 0.16125 0.0
C287 C 0.62239 0.68565 0.15898 0.0
C288 C 0.59411 0.68161 0.17134 0.0
C289 C 0.52627 0.61074 0.2917 0.0
C290 C 0.52366 0.70156 0.29271 0.0
C291 C 0.4311 0.65609 0.33491 0.0
C292 C 0.41003 0.64209 0.35576 0.0
C293 C 0.38259 0.65737 0.36155 0.0
C294 C 0.36493 0.64916 0.38549 0.0
C295 C 0.3744 0.62551 0.40415 0.0
C296 C 0.40063 0.60849 0.39699 0.0
C297 C 0.41843 0.6168 0.37301 0.0
C298 C 0.45686 0.6878 0.23622 0.0
C299 C 0.4565 0.60889 0.23488 0.0
O300 O 0.54322 0.67462 0.2082 0.0
O301 O 0.54858 0.62466 0.20926 0.0
O302 O 0.5021 0.61498 0.27848 0.0
O303 O 0.54694 0.62725 0.27975 0.0
O304 O 0.50119 0.68815 0.30611 0.0
O305 O 0.53331 0.6928 0.26684 0.0
O306 O 0.45935 0.64759 0.33531 0.0
O307 O 0.42178 0.66398 0.30922 0.0
O308 O 0.48115 0.68529 0.24954 0.0
O309 O 0.43566 0.67478 0.25097 0.0
O310 O 0.47738 0.62497 0.22151 0.0
O311 O 0.45322 0.60978 0.2633 0.0
H312 H 0.60526 0.61062 0.20105 0.0
H313 H 0.65508 0.61773 0.17955 0.0
H314 H 0.62633 0.70633 0.14656 0.0
H315 H 0.57712 0.69945 0.16838 0.0
H316 H 0.37567 0.67696 0.34862 0.0
H317 H 0.34466 0.66246 0.39037 0.0
H318 H 0.40848 0.59025 0.4111 0.0
H319 H 0.4395 0.6046 0.36902 0.0
Pr320 Pr 0.20591 0.52898 0.12912 0.0
Pr321 Pr 0.25125 0.48088 0.11321 0.0
C322 C 0.16231 0.57264 0.13494 0.0
C323 C 0.13548 0.58472 0.12061 0.0
C324 C 0.11322 0.59972 0.13752 0.0
C325 C 0.08748 0.61163 0.12472 0.0
C326 C 0.08347 0.60878 0.09468 0.0
C327 C 0.10572 0.59334 0.07776 0.0
C328 C 0.13157 0.58138 0.09064 0.0
C329 C 0.20785 0.48059 0.16891 0.0
C330 C 0.19564 0.48586 0.06941 0.0
C331 C 0.29158 0.4334 0.11284 0.0
C332 C 0.31258 0.41427 0.13005 0.0
C333 C 0.3397 0.40421 0.11704 0.0
C334 C 0.35836 0.38287 0.131 0.0
C335 C 0.3503 0.37082 0.15837 0.0
C336 C 0.32369 0.38209 0.17199 0.0
C337 C 0.30503 0.40357 0.15799 0.0
C338 C 0.25564 0.53489 0.07978 0.0
C339 C 0.26873 0.53392 0.1614 0.0
O340 O 0.18815 0.57748 0.12222 0.0
O341 O 0.16052 0.54533 0.14641 0.0
O342 O 0.20791 0.47724 0.1415 0.0
O343 O 0.20712 0.50935 0.17602 0.0
O344 O 0.21697 0.46679 0.07805 0.0
O345 O 0.18929 0.51146 0.08391 0.0
O346 O 0.26296 0.43035 0.1178 0.0
O347 O 0.29873 0.46155 0.10649 0.0
O348 O 0.25135 0.53331 0.10666 0.0
O349 O 0.25879 0.50757 0.06852 0.0
O350 O 0.24619 0.55045 0.15134 0.0
O351 O 0.27232 0.50461 0.15419 0.0
H352 H 0.11577 0.60225 0.16071 0.0
H353 H 0.07058 0.62289 0.13846 0.0
H354 H 0.10339 0.59096 0.05454 0.0
H355 H 0.1485 0.56969 0.07725 0.0
H356 H 0.34607 0.41218 0.09556 0.0
H357 H 0.37894 0.37546 0.12004 0.0
H358 H 0.31656 0.37338 0.19295 0.0
H359 H 0.28425 0.41102 0.1686 0.0
Pr360 Pr 0.7494 0.04114 0.86556 0.0
Pr361 Pr 0.70319 0.98377 0.86 0.0
C362 C 0.79683 0.07842 0.86315 0.0
C363 C 0.80924 0.10629 0.84954 0.0
C364 C 0.81901 0.12986 0.86751 0.0
C365 C 0.83171 0.15619 0.85565 0.0
C366 C 0.83502 0.15961 0.82542 0.0
C367 C 0.82519 0.13589 0.8074 0.0
C368 C 0.81242 0.10953 0.81932 0.0
C369 C 0.70263 0.0458 0.90755 0.0
C370 C 0.69903 0.04459 0.81378 0.0
C371 C 0.65413 0.949 0.8592 0.0
C372 C 0.63096 0.93284 0.87624 0.0
C373 C 0.61574 0.90908 0.86299 0.0
C374 C 0.59146 0.89544 0.87711 0.0
C375 C 0.58179 0.90516 0.90502 0.0
C376 C 0.59789 0.92833 0.91868 0.0
C377 C 0.62216 0.94209 0.90441 0.0
C378 C 0.7578 0.97775 0.82934 0.0
C379 C 0.75475 0.97737 0.90592 0.0
O380 O 0.79524 0.05339 0.84764 0.0
O381 O 0.77419 0.08243 0.88122 0.0
O382 O 0.70685 0.02544 0.88853 0.0
O383 O 0.72278 0.06638 0.9043 0.0
O384 O 0.68947 0.01735 0.82232 0.0
O385 O 0.72066 0.05919 0.82679 0.0
O386 O 0.65312 0.9791 0.85967 0.0
O387 O 0.68136 0.93721 0.85815 0.0
O388 O 0.74231 1.0022 0.8328 0.0
O389 O 0.74378 0.9543 0.84007 0.0
O390 O 0.76965 0.99789 0.89034 0.0
O391 O 0.72561 0.97506 0.90408 0.0
H392 H 0.81687 0.12785 0.8909 0.0
H393 H 0.83859 0.17404 0.87022 0.0
H394 H 0.82774 0.13747 0.78404 0.0
H395 H 0.80522 0.09169 0.80489 0.0
H396 H 0.62205 0.90169 0.8412 0.0
H397 H 0.5796 0.87807 0.86558 0.0
H398 H 0.5916 0.93609 0.94033 0.0
H399 H 0.63363 0.96035 0.91513 0.0
Pr400 Pr 0.78423 0.03852 0.35798 0.0
Pr401 Pr 0.74204 0.98844 0.37717 0.0
C402 C 0.82325 0.0846 0.35362 0.0
C403 C 0.85062 0.09454 0.36775 0.0
C404 C 0.87437 0.10551 0.35068 0.0
C405 C 0.90043 0.11531 0.3636 0.0
C406 C 0.90324 0.11433 0.39392 0.0
C407 C 0.87933 0.10327 0.41097 0.0
C408 C 0.85336 0.09334 0.39802 0.0
C409 C 0.78774 0.98684 0.32277 0.0
C410 C 0.80094 0.99345 0.41541 0.0
C411 C 0.70329 0.94217 0.38209 0.0
C412 C 0.67985 0.92312 0.36973 0.0
C413 C 0.65318 0.91986 0.38584 0.0
C414 C 0.6327 0.89786 0.37814 0.0
C415 C 0.63835 0.87869 0.35405 0.0
C416 C 0.664 0.88336 0.33659 0.0
C417 C 0.68475 0.90534 0.34447 0.0
C418 C 0.73603 0.04357 0.40935 0.0
C419 C 0.72025 0.0363 0.32693 0.0
O420 O 0.79832 0.08651 0.36893 0.0
O421 O 0.8256 0.0597 0.33786 0.0
O422 O 0.78582 0.98589 0.35023 0.0
O423 O 0.78909 0.01468 0.31289 0.0
O424 O 0.78034 0.97412 0.40802 0.0
O425 O 0.80448 0.0197 0.40149 0.0
O426 O 0.73099 0.93821 0.37292 0.0
O427 O 0.69638 0.97046 0.38952 0.0
O428 O 0.73941 0.0413 0.38229 0.0
O429 O 0.73372 0.01639 0.42066 0.0
O430 O 0.73967 0.05585 0.33675 0.0
O431 O 0.72332 0.00688 0.33316 0.0
H432 H 0.87276 0.10645 0.32727 0.0
H433 H 0.91852 0.12325 0.34979 0.0
H434 H 0.88049 0.10258 0.4344 0.0
H435 H 0.8354 0.08487 0.41172 0.0
H436 H 0.64889 0.93323 0.40538 0.0
H437 H 0.61302 0.89484 0.39184 0.0
H438 H 0.66892 0.86876 0.31798 0.0
H439 H 0.70515 0.90737 0.33162 0.0
Pr440 Pr 0.22814 0.55017 0.62124 0.0
Pr441 Pr 0.28287 0.50771 0.634 0.0
C442 C 0.17436 0.57754 0.62932 0.0
C443 C 0.16316 0.60814 0.63883 0.0
C444 C 0.17086 0.63508 0.6239 0.0
C445 C 0.16161 0.66386 0.6348 0.0
C446 C 0.145 0.66614 0.66098 0.0
C447 C 0.13712 0.6392 0.67566 0.0
C448 C 0.14598 0.61051 0.6646 0.0
C449 C 0.27432 0.57252 0.58707 0.0
C450 C 0.27639 0.56901 0.67309 0.0
C451 C 0.32843 0.4662 0.63568 0.0
C452 C 0.35008 0.44825 0.61786 0.0
C453 C 0.36904 0.42713 0.63165 0.0
C454 C 0.39158 0.41139 0.61591 0.0
C455 C 0.39554 0.41637 0.58591 0.0
C456 C 0.37558 0.43677 0.57191 0.0
C457 C 0.35304 0.45266 0.5878 0.0
C458 C 0.22969 0.49705 0.66516 0.0
C459 C 0.24303 0.49249 0.57821 0.0
O460 O 0.18766 0.56127 0.64941 0.0
O461 O 0.18744 0.57509 0.60359 0.0
O462 O 0.2774 0.5495 0.60371 0.0
O463 O 0.2476 0.58463 0.58833 0.0
O464 O 0.2954 0.54737 0.66414 0.0
O465 O 0.24957 0.57292 0.66209 0.0
O466 O 0.3321 0.4959 0.63696 0.0
O467 O 0.30044 0.45854 0.63466 0.0
O468 O 0.23262 0.50172 0.63854 0.0
O469 O 0.25522 0.49857 0.67772 0.0
O470 O 0.22074 0.50861 0.59047 0.0
O471 O 0.27063 0.49547 0.58675 0.0
H472 H 0.18435 0.63398 0.6041 0.0
H473 H 0.16794 0.68435 0.6231 0.0
H474 H 0.12389 0.64031 0.69562 0.0
H475 H 0.13981 0.59007 0.67649 0.0
H476 H 0.36698 0.42345 0.65486 0.0
H477 H 0.40667 0.39632 0.62761 0.0
H478 H 0.37766 0.44082 0.54878 0.0
H479 H 0.33836 0.46879 0.57678 0.0
H480 H 0.14663 0.35029 0.53792 0.0
H481 H 0.2281 0.30408 0.50781 0.0
H482 H 0.25651 0.35087 0.51844 0.0
H483 H 0.16331 0.42199 0.50534 0.0
H484 H 0.14586 0.44488 0.53388 0.0
H485 H 0.13243 0.40715 0.52631 0.0
H486 H 0.14064 0.3902 0.57971 0.0
H487 H 0.15232 0.42852 0.58716 0.0
H488 H 0.17639 0.39606 0.59573 0.0
H489 H 0.27498 0.40305 0.53116 0.0
H490 H 0.28367 0.4551 0.5494 0.0
H491 H 0.18871 0.46758 0.56865 0.0
C492 C 0.17052 0.34988 0.53442 0.0
C493 C 0.18555 0.32377 0.52296 0.0
C494 C 0.21663 0.32397 0.51732 0.0
C495 C 0.23272 0.35042 0.52299 0.0
C496 C 0.21701 0.37632 0.53353 0.0
C497 C 0.18662 0.37618 0.53933 0.0
C498 C 0.1747 0.40725 0.54935 0.0
C499 C 0.15278 0.42112 0.5274 0.0
C500 C 0.16019 0.40535 0.57982 0.0
C501 C 0.20337 0.42471 0.54944 0.0
C502 C 0.22742 0.40662 0.53979 0.0
C503 C 0.25633 0.41747 0.53867 0.0
C504 C 0.26097 0.44716 0.54892 0.0
C505 C 0.23683 0.46546 0.56039 0.0
C506 C 0.20755 0.45439 0.55964 0.0
H507 H 0.79738 0.92837 0.82791 0.0
H508 H 0.78721 0.02302 0.80004 0.0
H509 H 0.83965 0.02186 0.78176 0.0
H510 H 0.8724 0.9341 0.8521 0.0
H511 H 0.88526 0.89676 0.83958 0.0
H512 H 0.84675 0.90306 0.84999 0.0
H513 H 0.82807 0.88538 0.80081 0.0
H514 H 0.86611 0.87657 0.78992 0.0
H515 H 0.84345 0.90172 0.76795 0.0
H516 H 0.895 0.01078 0.76904 0.0
H517 H 0.94606 0.98894 0.75875 0.0
H518 H 0.91843 0.90128 0.79279 0.0
C519 C 0.8062 0.94891 0.81806 0.0
C520 C 0.78849 0.97617 0.8163 0.0
C521 C 0.80068 1.00223 0.80254 0.0
C522 C 0.83041 1.00172 0.79196 0.0
C523 C 0.84764 0.97482 0.79499 0.0
C524 C 0.83584 0.94879 0.80749 0.0
C525 C 0.85889 0.92271 0.80797 0.0
C526 C 0.86627 0.91366 0.83929 0.0
C527 C 0.84851 0.89497 0.79061 0.0
C528 C 0.88523 0.93784 0.79328 0.0
C529 C 0.87864 0.96809 0.78642 0.0
C530 C 0.90027 0.98703 0.77412 0.0
C531 C 0.92921 0.97458 0.76852 0.0
C532 C 0.93597 0.94344 0.77477 0.0
C533 C 0.91366 0.92502 0.78733 0.0
H534 H 0.32106 0.70351 0.07084 0.0
H535 H 0.28102 0.71369 0.9867 0.0
H536 H 0.26176 0.66082 0.99055 0.0
H537 H 0.34374 0.62526 0.06505 0.0
H538 H 0.33437 0.61576 0.10215 0.0
H539 H 0.34453 0.65432 0.09286 0.0
H540 H 0.29473 0.67612 0.11505 0.0
H541 H 0.28489 0.63792 0.1254 0.0
H542 H 0.2599 0.66072 0.10365 0.0
H543 H 0.25003 0.60488 1.00276 0.0
H544 H 0.24128 0.55367 0.02481 0.0
H545 H 0.28655 0.58193 0.1019 0.0
C546 C 0.30767 0.69473 0.05356 0.0
C547 C 0.30192 0.71259 0.02871 0.0
C548 C 0.28501 0.70037 1.00614 0.0
C549 C 0.27427 0.67033 1.00807 0.0
C550 C 0.28051 0.65304 0.03283 0.0
C551 C 0.29643 0.66505 0.05536 0.0
C552 C 0.29947 0.64226 0.07997 0.0
C553 C 0.33249 0.63392 0.0853 0.0
C554 C 0.2838 0.65499 0.10763 0.0
C555 C 0.28318 0.61527 0.06764 0.0
C556 C 0.27268 0.62172 0.04029 0.0
C557 C 0.25789 0.59973 0.02428 0.0
C558 C 0.25321 0.57066 0.0368 0.0
C559 C 0.26295 0.56409 0.06513 0.0
C560 C 0.27832 0.58665 0.08048 0.0
H561 H 0.57424 0.10255 0.24561 0.0
H562 H 0.52536 0.07095 0.32195 0.0
H563 H 0.57222 0.05409 0.34375 0.0
H564 H 0.62935 0.03736 0.24556 0.0
H565 H 0.66004 0.06035 0.23333 0.0
H566 H 0.62251 0.07038 0.22284 0.0
H567 H 0.62837 0.12488 0.244 0.0
H568 H 0.66575 0.11487 0.25494 0.0
H569 H 0.63854 0.12918 0.28138 0.0
H570 H 0.6224 0.04299 0.35912 0.0
H571 H 0.67573 0.0309 0.36512 0.0
H572 H 0.69534 0.06568 0.27872 0.0
C573 C 0.57345 0.09145 0.26654 0.0
C574 C 0.54597 0.08802 0.28199 0.0
C575 C 0.54597 0.07382 0.30961 0.0
C576 C 0.57254 0.06427 0.32234 0.0
C577 C 0.59915 0.06846 0.30702 0.0
C578 C 0.60008 0.08101 0.27952 0.0
C579 C 0.63224 0.08157 0.26792 0.0
C580 C 0.63627 0.0612 0.2408 0.0
C581 C 0.64178 0.1146 0.2617 0.0
C582 C 0.64892 0.06784 0.29351 0.0
C583 C 0.62905 0.06082 0.31577 0.0
C584 C 0.63823 0.04808 0.34181 0.0
C585 C 0.66853 0.04137 0.34504 0.0
C586 C 0.6894 0.04727 0.32239 0.0
C587 C 0.6797 0.06113 0.29636 0.0
H588 H 0.71855 0.21764 0.46745 0.0
H589 H 0.6238 0.20547 0.46064 0.0
H590 H 0.63187 0.15136 0.44836 0.0
H591 H 0.73727 0.17173 0.40507 0.0
H592 H 0.77129 0.1552 0.41916 0.0
H593 H 0.75805 0.19252 0.43137 0.0
H594 H 0.75855 0.17364 0.4847 0.0
H595 H 0.77188 0.13626 0.4726 0.0
H596 H 0.73828 0.1399 0.49475 0.0
H597 H 0.64973 0.09894 0.43554 0.0
H598 H 0.6768 0.05191 0.41849 0.0
H599 H 0.76115 0.09696 0.42802 0.0
C600 C 0.69959 0.20323 0.46413 0.0
C601 C 0.67005 0.21552 0.46665 0.0
C602 C 0.64608 0.19637 0.4606 0.0
C603 C 0.65065 0.16548 0.45322 0.0
C604 C 0.67977 0.1539 0.45114 0.0
C605 C 0.70398 0.17213 0.45599 0.0
C606 C 0.733 0.15419 0.44952 0.0
C607 C 0.75096 0.16932 0.42481 0.0
C608 C 0.75153 0.1508 0.47704 0.0
C609 C 0.72112 0.12337 0.44015 0.0
C610 C 0.69029 0.12374 0.44176 0.0
C611 C 0.67389 0.09826 0.4343 0.0
C612 C 0.68939 0.07165 0.42477 0.0
C613 C 0.72089 0.07083 0.4224 0.0
C614 C 0.73701 0.09702 0.43009 0.0
H615 H 0.06109 0.44408 0.67818 0.0
H616 H 0.06246 0.47115 0.76878 0.0
H617 H 0.11211 0.49285 0.76089 0.0
H618 H 0.13241 0.41879 0.67327 0.0
H619 H 0.14347 0.43283 0.63803 0.0
H620 H 0.10496 0.425 0.64568 0.0
H621 H 0.08588 0.47892 0.63383 0.0
H622 H 0.12339 0.48768 0.62217 0.0
H623 H 0.10401 0.51162 0.6488 0.0
H624 H 0.16461 0.50373 0.7457 0.0
H625 H 0.21447 0.50885 0.722 0.0
H626 H 0.17888 0.47715 0.64094 0.0
C627 C 0.07131 0.45564 0.69606 0.0
C628 C 0.05779 0.45594 0.72412 0.0
C629 C 0.07232 0.47062 0.7471 0.0
C630 C 0.10059 0.48304 0.74286 0.0
C631 C 0.114 0.48103 0.7154 0.0
C632 C 0.09964 0.46836 0.69217 0.0
C633 C 0.12008 0.46716 0.66545 0.0
C634 C 0.12556 0.43393 0.65503 0.0
C635 C 0.10759 0.48757 0.64112 0.0
C636 C 0.14821 0.48024 0.67757 0.0
C637 C 0.14427 0.48808 0.70644 0.0
C638 C 0.16782 0.49829 0.72292 0.0
C639 C 0.19608 0.50088 0.70942 0.0
C640 C 0.20036 0.49352 0.67975 0.0
C641 C 0.17606 0.48327 0.66365 0.0
H642 H 0.74584 0.9455 0.95717 0.0
H643 H 0.7987 0.94612 0.87729 0.0
H644 H 0.81394 0.89194 0.88542 0.0
H645 H 0.80431 0.90068 0.9966 0.0
H646 H 0.77725 0.88093 0.01876 0.0
H647 H 0.76891 0.9192 1.00591 0.0
H648 H 0.72065 0.89951 0.98306 0.0
H649 H 0.72935 0.86099 0.99506 0.0
H650 H 0.72326 0.86849 0.95717 0.0
H651 H 0.81794 0.83706 0.89801 0.0
H652 H 0.82692 0.78802 0.92355 0.0
H653 H 0.78191 0.8251 1.00061 0.0
C654 C 0.76145 0.93449 0.94192 0.0
C655 C 0.77081 0.94972 0.91629 0.0
C656 C 0.79116 0.93472 0.89682 0.0
C657 C 0.79978 0.90401 0.9011 0.0
C658 C 0.7892 0.88919 0.92577 0.0
C659 C 0.77192 0.90427 0.94675 0.0
C660 C 0.76643 0.88347 0.97269 0.0
C661 C 0.78005 0.89686 1.00012 0.0
C662 C 0.73292 0.8778 0.97726 0.0
C663 C 0.7831 0.85439 0.96267 0.0
C664 C 0.79484 0.85799 0.93494 0.0
C665 C 0.80949 0.83408 0.91998 0.0
C666 C 0.81411 0.80623 0.93447 0.0
C667 C 0.80512 0.80304 0.96386 0.0
C668 C 0.78877 0.82707 0.97802 0.0
H669 H 0.42277 0.55739 0.24334 0.0
H670 H 0.43184 0.63839 0.18944 0.0
H671 H 0.38273 0.62984 0.16883 0.0
H672 H 0.38868 0.51221 0.18536 0.0
H673 H 0.3648 0.49191 0.21038 0.0
H674 H 0.40041 0.50507 0.22196 0.0
H675 H 0.37372 0.53437 0.26457 0.0
H676 H 0.33795 0.52189 0.25268 0.0
H677 H 0.34451 0.56227 0.25693 0.0
H678 H 0.32991 0.61764 0.16066 0.0
H679 H 0.28267 0.59264 0.1508 0.0
H680 H 0.31135 0.51275 0.19997 0.0
C681 C 0.41462 0.57282 0.2267 0.0
C682 C 0.43095 0.59876 0.21816 0.0
C683 C 0.41973 0.61849 0.19635 0.0
C684 C 0.39169 0.61399 0.18471 0.0
C685 C 0.37567 0.58891 0.1943 0.0
C686 C 0.38717 0.56778 0.21369 0.0
C687 C 0.36603 0.54142 0.21823 0.0
C688 C 0.38087 0.51084 0.20838 0.0
C689 C 0.35491 0.5399 0.25 0.0
C690 C 0.34095 0.55124 0.19841 0.0
C691 C 0.34658 0.57941 0.18595 0.0
C692 C 0.32569 0.59501 0.16928 0.0
C693 C 0.29894 0.58063 0.16382 0.0
C694 C 0.29394 0.55034 0.17357 0.0
C695 C 0.31495 0.53565 0.19169 0.0
H696 H 0.52777 0.2372 0.30091 0.0
H697 H 0.5543 0.14137 0.30936 0.0
H698 H 0.56599 0.1495 0.3606 0.0
H699 H 0.59011 0.2636 0.34645 0.0
H700 H 0.56811 0.2954 0.36118 0.0
H701 H 0.5613 0.28162 0.32515 0.0
H702 H 0.50571 0.27442 0.34001 0.0
H703 H 0.51264 0.28714 0.37638 0.0
H704 H 0.4966 0.2502 0.3705 0.0
H705 H 0.56595 0.1661 0.41222 0.0
H706 H 0.57413 0.19327 0.45791 0.0
H707 H 0.55888 0.28064 0.4144 0.0
C708 C 0.53693 0.21828 0.31343 0.0
C709 C 0.54009 0.18856 0.30144 0.0
C710 C 0.55186 0.1642 0.31826 0.0
C711 C 0.5582 0.16854 0.34745 0.0
C712 C 0.55364 0.19775 0.3591 0.0
C713 C 0.54487 0.22259 0.34236 0.0
C714 C 0.54451 0.25201 0.35995 0.0
C715 C 0.56737 0.27448 0.34745 0.0
C716 C 0.51298 0.26681 0.3618 0.0
C717 C 0.55384 0.23956 0.38919 0.0
C718 C 0.5578 0.20805 0.38834 0.0
C719 C 0.56408 0.19091 0.413 0.0
C720 C 0.5686 0.20663 0.43888 0.0
C721 C 0.56857 0.23918 0.43943 0.0
C722 C 0.55977 0.25578 0.41453 0.0
H723 H 0.06192 0.26491 0.56431 0.0
H724 H 0.09561 0.35399 0.53927 0.0
H725 H 0.08779 0.37256 0.58872 0.0
H726 H 1.00194 0.2998 0.61048 0.0
H727 H 1.00259 0.26991 0.63752 0.0
H728 H 0.0133 0.26115 0.60044 0.0
H729 H 0.06412 0.23899 0.61753 0.0
H730 H 0.0536 0.2479 0.65465 0.0
H731 H 0.08762 0.26258 0.63902 0.0
H732 H 0.07906 0.38211 0.63904 0.0
H733 H 0.06024 0.3873 0.68898 0.0
H734 H 0.02364 0.29607 0.68473 0.0
C735 C 0.06778 0.2882 0.56944 0.0
C736 C 0.08077 0.30751 0.54789 0.0
C737 C 0.08701 0.33819 0.55533 0.0
C738 C 0.08254 0.34913 0.58351 0.0
C739 C 0.0706 0.32963 0.60429 0.0
C740 C 0.06226 0.3002 0.59776 0.0
C741 C 0.04679 0.28597 0.62436 0.0
C742 C 0.01422 0.27878 0.61781 0.0
C743 C 0.06407 0.25714 0.63449 0.0
C744 C 0.04838 0.312 0.64659 0.0
C745 C 0.06281 0.3365 0.63415 0.0
C746 C 0.06759 0.36336 0.64922 0.0
C747 C 0.05662 0.36604 0.67761 0.0
C748 C 0.04017 0.34232 0.6909 0.0
C749 C 0.03643 0.31448 0.67535 0.0
H750 H 0.99433 0.80753 0.81854 0.0
H751 H 0.91105 0.84596 0.7863 0.0
H752 H 0.88703 0.83817 0.83419 0.0
H753 H 0.95801 0.7474 0.86343 0.0
H754 H 0.98526 0.74984 0.89147 0.0
H755 H 0.99577 0.75787 0.85433 0.0
H756 H 0.01446 0.81097 0.87022 0.0
H757 H 1.00321 0.80349 0.90729 0.0
H758 H 0.98908 0.83729 0.88908 0.0
H759 H 0.87603 0.83733 0.88757 0.0
H760 H 0.87091 0.82409 0.93941 0.0
H761 H 0.95622 0.77494 0.93524 0.0
C762 C 0.97081 0.81348 0.8213 0.0
C763 C 0.95473 0.82804 0.79878 0.0
C764 C 0.92397 0.83528 0.80327 0.0
C765 C 0.91017 0.83119 0.83049 0.0
C766 C 0.92715 0.81873 0.8527 0.0
C767 C 0.95629 0.80847 0.84812 0.0
C768 C 0.96885 0.79439 0.87559 0.0
C769 C 0.97746 0.76034 0.87092 0.0
C770 C 0.99548 0.81262 0.88615 0.0
C771 C 0.94212 0.79838 0.89622 0.0
C772 C 0.91891 0.81381 0.88276 0.0
C773 C 0.8934 0.82393 0.89803 0.0
C774 C 0.89073 0.81641 0.92744 0.0
C775 C 0.91253 0.79753 0.94089 0.0
C776 C 0.93892 0.78887 0.92524 0.0
H777 H 0.41114 0.71804 0.20831 0.0
H778 H 0.49511 0.66952 0.19267 0.0
H779 H 0.49046 0.67623 0.14021 0.0
H780 H 0.37397 0.6867 0.14697 0.0
H781 H 0.35373 0.72178 0.13867 0.0
H782 H 0.36421 0.71373 0.17547 0.0
H783 H 0.39168 0.76544 0.17767 0.0
H784 H 0.38096 0.77373 0.14102 0.0
H785 H 0.4198 0.77376 0.15038 0.0
H786 H 0.47493 0.68565 0.0886 0.0
H787 H 0.45243 0.70324 0.04238 0.0
H788 H 0.37922 0.74676 0.09135 0.0
C789 C 0.42875 0.70936 0.1938 0.0
C790 C 0.45449 0.69449 0.20478 0.0
C791 C 0.47658 0.68286 0.18504 0.0
C792 C 0.47357 0.6858 0.15501 0.0
C793 C 0.44806 0.70057 0.14483 0.0
C794 C 0.42614 0.7125 0.1636 0.0
C795 C 0.40117 0.72787 0.14693 0.0
C796 C 0.37152 0.71154 0.15234 0.0
C797 C 0.39824 0.76224 0.15444 0.0
C798 C 0.41269 0.72291 0.11605 0.0
C799 C 0.43948 0.70656 0.1152 0.0
C800 C 0.45405 0.69872 0.08895 0.0
C801 C 0.44118 0.7086 0.06287 0.0
C802 C 0.4145 0.72655 0.06357 0.0
C803 C 0.39994 0.73333 0.09042 0.0
H804 H 0.19886 0.39571 0.32333 0.0
H805 H 0.10692 0.37724 0.30327 0.0
H806 H 0.11402 0.40033 0.25486 0.0
H807 H 0.19952 0.47023 0.2876 0.0
H808 H 0.23765 0.46603 0.27457 0.0
H809 H 0.22593 0.4469 0.30739 0.0
H810 H 0.2449 0.39493 0.28568 0.0
H811 H 0.25627 0.41387 0.25261 0.0
H812 H 0.23099 0.38241 0.25137 0.0
H813 H 0.13113 0.42295 0.2079 0.0
H814 H 0.15502 0.45188 0.16782 0.0
H815 H 0.2345 0.46065 0.21865 0.0
C816 C 0.18034 0.39652 0.30864 0.0
C817 C 0.15233 0.3845 0.31699 0.0
C818 C 0.12849 0.38635 0.29735 0.0
C819 C 0.13237 0.39924 0.26973 0.0
C820 C 0.16018 0.4106 0.26198 0.0
C821 C 0.18364 0.41004 0.28098 0.0
C822 C 0.21063 0.42562 0.26749 0.0
C823 C 0.21891 0.45388 0.28532 0.0
C824 C 0.23728 0.40284 0.2641 0.0
C825 C 0.19856 0.43486 0.23806 0.0
C826 C 0.16962 0.42532 0.23519 0.0
C827 C 0.1538 0.43056 0.20985 0.0
C828 C 0.16761 0.44666 0.18707 0.0
C829 C 0.1967 0.45783 0.18997 0.0
C830 C 0.21241 0.45176 0.21575 0.0
H831 H 0.87091 0.89794 0.54852 0.0
H832 H 0.90155 0.98553 0.57966 0.0
H833 H 0.88132 0.01112 0.53657 0.0
H834 H 0.88656 0.91387 0.47075 0.0
H835 H 0.85405 0.89435 0.45882 0.0
H836 H 0.87236 0.88207 0.49142 0.0
H837 H 0.82243 0.88882 0.52038 0.0
H838 H 0.804 0.90126 0.48795 0.0
H839 H 0.80257 0.92536 0.51978 0.0
H840 H 0.85753 0.02788 0.49164 0.0
H841 H 0.82963 0.03564 0.44692 0.0
H842 H 0.81245 0.93799 0.44358 0.0
C843 C 0.87371 0.92242 0.54601 0.0
C844 C 0.88767 0.93977 0.56768 0.0
C845 C 0.89058 0.97181 0.56369 0.0
C846 C 0.87934 0.98656 0.53916 0.0
C847 C 0.86535 0.96902 0.51853 0.0
C848 C 0.86249 0.93767 0.52148 0.0
C849 C 0.84562 0.9247 0.49615 0.0
C850 C 0.86585 0.90242 0.47823 0.0
C851 C 0.81694 0.90912 0.50671 0.0
C852 C 0.83868 0.95388 0.47916 0.0
C853 C 0.85086 0.97897 0.49234 0.0
C854 C 0.84796 0.00844 0.48099 0.0
C855 C 0.8321 0.01257 0.45546 0.0
C856 C 0.81889 0.98746 0.44159 0.0
C857 C 0.82226 0.95766 0.45367 0.0
H858 H 0.28976 0.55061 0.72766 0.0
H859 H 0.28172 0.63108 0.67292 0.0
H860 H 0.29774 0.66376 0.71355 0.0
H861 H 0.25976 0.58899 0.79268 0.0
H862 H 0.28351 0.56738 0.81673 0.0
H863 H 0.27221 0.55055 0.78314 0.0
H864 H 0.32771 0.54014 0.76833 0.0
H865 H 0.33921 0.55698 0.80182 0.0
H866 H 0.35319 0.57151 0.76764 0.0
H867 H 0.31613 0.68704 0.75978 0.0
H868 H 0.33162 0.70025 0.80919 0.0
H869 H 0.32545 0.60453 0.83442 0.0
C870 C 0.29148 0.57513 0.72436 0.0
C871 C 0.28491 0.58855 0.69733 0.0
C872 C 0.28678 0.62063 0.69362 0.0
C873 C 0.2959 0.63923 0.71649 0.0
C874 C 0.30236 0.62534 0.74299 0.0
C875 C 0.29979 0.59408 0.74716 0.0
C876 C 0.30669 0.58506 0.77808 0.0
C877 C 0.27889 0.57224 0.79357 0.0
C878 C 0.33329 0.56207 0.779 0.0
C879 C 0.31453 0.61598 0.79043 0.0
C880 C 0.31187 0.6389 0.76985 0.0
C881 C 0.31819 0.6693 0.7761 0.0
C882 C 0.32721 0.67653 0.80419 0.0
C883 C 0.32983 0.65348 0.82578 0.0
C884 C 0.32338 0.6228 0.8186 0.0
H885 H 0.61134 0.12488 0.03839 0.0
H886 H 0.61623 0.03655 0.08194 0.0
H887 H 0.63767 0.01281 0.0374 0.0
H888 H 0.59443 0.09426 0.96603 0.0
H889 H 0.61685 0.12208 0.94729 0.0
H890 H 0.59883 0.13179 0.98158 0.0
H891 H 0.64988 0.14597 1.00258 0.0
H892 H 0.6679 0.13664 0.96833 0.0
H893 H 0.68044 0.11819 1.00105 0.0
H894 H 0.65965 0.99853 0.98823 0.0
H895 H 0.68657 0.99661 0.94081 0.0
H896 H 0.67162 0.09467 0.93079 0.0
C897 C 0.61682 0.10053 0.03859 0.0
C898 C 0.61155 0.08258 0.06372 0.0
C899 C 0.61917 0.05074 0.06286 0.0
C900 C 0.63149 0.037 0.03763 0.0
C901 C 0.63616 0.05529 0.01326 0.0
C902 C 0.6293 0.08642 0.01359 0.0
C903 C 0.63821 0.10121 0.985 0.0
C904 C 0.61043 0.11304 0.96904 0.0
C905 C 0.66044 0.12701 0.98953 0.0
C906 C 0.65267 0.0739 0.96926 0.0
C907 C 0.65023 0.04738 0.98548 0.0
C908 C 0.66165 0.01916 0.97532 0.0
C909 C 0.67675 0.01821 0.94826 0.0
C910 C 0.68106 0.04546 0.9322 0.0
C911 C 0.66843 0.07349 0.94265 0.0
H912 H 0.65876 0.16951 0.69083 0.0
H913 H 0.63947 0.09196 0.6359 0.0
H914 H 0.65017 0.0565 0.67626 0.0
H915 H 0.7208 0.13286 0.72659 0.0
H916 H 0.71243 0.1499 0.76157 0.0
H917 H 0.70167 0.16974 0.729 0.0
H918 H 0.64678 0.17287 0.74795 0.0
H919 H 0.65736 0.15297 0.78058 0.0
H920 H 0.62838 0.13814 0.75845 0.0
H921 H 0.66154 0.02954 0.72181 0.0
H922 H 0.67812 0.01132 0.76937 0.0
H923 H 0.69411 0.10523 0.79531 0.0
C924 C 0.65671 0.14505 0.68748 0.0
C925 C 0.64831 0.13337 0.66026 0.0
C926 C 0.64609 0.10129 0.6565 0.0
C927 C 0.65193 0.08101 0.67933 0.0
C928 C 0.66024 0.09312 0.7058 0.0
C929 C 0.66301 0.1243 0.71003 0.0
C930 C 0.67374 0.13082 0.74044 0.0
C931 C 0.70396 0.14677 0.73932 0.0
C932 C 0.65016 0.14983 0.75789 0.0
C933 C 0.67683 0.09839 0.75238 0.0
C934 C 0.66831 0.07718 0.73208 0.0
C935 C 0.66837 0.04587 0.7379 0.0
C936 C 0.6777 0.03578 0.76509 0.0
C937 C 0.68737 0.05683 0.78613 0.0
C938 C 0.68692 0.08861 0.77964 0.0
H939 H 0.18659 0.43103 0.03929 0.0
H940 H 0.16973 0.52956 0.03565 0.0
H941 H 0.14402 0.52359 0.98956 0.0
H942 H 0.198 0.41895 0.96107 0.0
H943 H 0.17869 0.38318 0.96054 0.0
H944 H 0.19739 0.39477 0.99281 0.0
H945 H 0.14817 0.3898 0.02276 0.0
H946 H 0.12934 0.37812 0.99061 0.0
H947 H 0.11506 0.41052 0.01146 0.0
H948 H 0.12012 0.50784 0.94386 0.0
H949 H 0.09664 0.48294 0.90273 0.0
H950 H 0.12503 0.39363 0.93576 0.0
C951 C 0.17759 0.45131 0.02868 0.0
C952 C 0.18021 0.48083 0.04138 0.0
C953 C 0.16788 0.50669 0.02676 0.0
C954 C 0.15332 0.50358 1.00035 0.0
C955 C 0.15085 0.47435 0.98856 0.0
C956 C 0.16239 0.44856 1.00224 0.0
C957 C 0.15523 0.41976 0.98518 0.0
C958 C 0.18405 0.40319 0.97425 0.0
C959 C 0.1358 0.39828 1.0036 0.0
C960 C 0.13778 0.43349 0.96001 0.0
C961 C 0.13591 0.46506 0.96238 0.0
C962 C 0.12117 0.48307 0.94194 0.0
C963 C 0.10757 0.46856 0.91865 0.0
C964 C 0.10823 0.43609 0.91581 0.0
C965 C 0.124 0.41845 0.93687 0.0
H966 H 0.8362 0.96893 0.29002 0.0
H967 H 0.74471 0.94615 0.31082 0.0
H968 H 0.74621 0.90746 0.27127 0.0
H969 H 0.83369 0.96534 0.2161 0.0
H970 H 0.86992 0.94722 0.20985 0.0
H971 H 0.8629 0.97004 0.24189 0.0
H972 H 0.87873 0.92405 0.27429 0.0
H973 H 0.88617 0.90111 0.24224 0.0
H974 H 0.86088 0.88775 0.27017 0.0
H975 H 0.75598 0.87648 0.22544 0.0
H976 H 0.77417 0.85243 0.17963 0.0
H977 H 0.8601 0.89443 0.18976 0.0
C978 C 0.81688 0.955 0.28675 0.0
C979 C 0.7905 0.95991 0.30358 0.0
C980 C 0.7653 0.94201 0.29848 0.0
C981 C 0.76595 0.92018 0.276 0.0
C982 C 0.79218 0.91624 0.25929 0.0
C983 C 0.81743 0.93268 0.26486 0.0
C984 C 0.84246 0.92485 0.24321 0.0
C985 C 0.85282 0.95357 0.22679 0.0
C986 C 0.86861 0.90847 0.25838 0.0
C987 C 0.8268 0.90298 0.22345 0.0
C988 C 0.79796 0.89797 0.2333 0.0
C989 C 0.77869 0.87986 0.21781 0.0
C990 C 0.78916 0.8665 0.19165 0.0
C991 C 0.81863 0.8714 0.18104 0.0
C992 C 0.83768 0.88969 0.19746 0.0
H993 H 0.30142 0.54002 0.54219 0.0
H994 H 0.29301 0.63007 0.58193 0.0
H995 H 0.31841 0.65283 0.53939 0.0
H996 H 0.37487 0.55073 0.50423 0.0
H997 H 0.36386 0.53036 0.47233 0.0
H998 H 0.34836 0.52039 0.50741 0.0
H999 H 0.29514 0.52889 0.48759 0.0
H1000 H 0.31049 0.53956 0.45268 0.0
H1001 H 0.2849 0.56543 0.4718 0.0
H1002 H 0.33901 0.66686 0.49167 0.0
H1003 H 0.36004 0.67118 0.44213 0.0
H1004 H 0.35607 0.57234 0.43155 0.0
C1005 C 0.3063 0.56424 0.54236 0.0
C1006 C 0.29634 0.58332 0.56564 0.0
C1007 C 0.30138 0.61515 0.5646 0.0
C1008 C 0.31548 0.62827 0.54044 0.0
C1009 C 0.32416 0.60921 0.51738 0.0
C1010 C 0.32021 0.57784 0.5181 0.0
C1011 C 0.33003 0.56319 0.48936 0.0
C1012 C 0.35582 0.53978 0.4936 0.0
C1013 C 0.30356 0.54839 0.47449 0.0
C1014 C 0.34034 0.59123 0.4727 0.0
C1015 C 0.33627 0.61749 0.48928 0.0
C1016 C 0.34269 0.64646 0.47854 0.0
C1017 C 0.35435 0.6487 0.45027 0.0
C1018 C 0.35965 0.62212 0.43303 0.0
C1019 C 0.35243 0.59298 0.44438 0.0
H1020 H 0.18392 0.21699 0.40838 0.0
H1021 H 0.21613 0.22039 0.4962 0.0
H1022 H 0.26814 0.21318 0.47767 0.0
H1023 H 0.23582 0.15842 0.38224 0.0
H1024 H 0.24061 0.17527 0.34677 0.0
H1025 H 0.2061 0.1815 0.36697 0.0
H1026 H 0.2121 0.24043 0.36238 0.0
H1027 H 0.24677 0.23432 0.34234 0.0
H1028 H 0.24575 0.25748 0.37476 0.0
H1029 H 0.31643 0.20508 0.44972 0.0
H1030 H 0.35768 0.19463 0.41444 0.0
H1031 H 0.29416 0.19507 0.34463 0.0
C1032 C 0.20201 0.21599 0.42357 0.0
C1033 C 0.19628 0.21878 0.45367 0.0
C1034 C 0.22032 0.21786 0.47306 0.0
C1035 C 0.24985 0.21397 0.46274 0.0
C1036 C 0.25493 0.21117 0.43292 0.0
C1037 C 0.23173 0.21205 0.41359 0.0
C1038 C 0.24341 0.20794 0.38267 0.0
C1039 C 0.23073 0.17906 0.36885 0.0
C1040 C 0.2366 0.23676 0.36447 0.0
C1041 C 0.27663 0.20406 0.38771 0.0
C1042 C 0.28282 0.20634 0.41682 0.0
C1043 C 0.31185 0.20319 0.42685 0.0
C1044 C 0.33513 0.19707 0.40662 0.0
C1045 C 0.32931 0.19389 0.37667 0.0
C1046 C 0.29958 0.19782 0.36723 0.0
H1047 H 0.06391 0.06952 0.58799 0.0
H1048 H 0.12808 0.10088 0.64991 0.0
H1049 H 0.11389 0.05971 0.68343 0.0
H1050 H 1.00677 0.04812 0.63888 0.0
H1051 H 0.99673 0.01347 0.62051 0.0
H1052 H 0.01211 0.04483 0.60009 0.0
H1053 H 0.05402 0.00851 0.57926 0.0
H1054 H 0.03864 0.97701 0.59953 0.0
H1055 H 0.07713 0.98677 0.60379 0.0
H1056 H 0.09249 0.01853 0.71104 0.0
H1057 H 0.06616 0.97544 0.73211 0.0
H1058 H 0.0152 0.96669 0.65338 0.0
C1059 C 0.07496 0.06746 0.60857 0.0
C1060 C 0.0973 0.08825 0.61634 0.0
C1061 C 0.11131 0.08495 0.64339 0.0
C1062 C 0.10331 0.06174 0.66263 0.0
C1063 C 0.08136 0.04171 0.65449 0.0
C1064 C 0.0675 0.04385 0.6281 0.0
C1065 C 0.04486 0.01854 0.62523 0.0
C1066 C 0.01324 0.03206 0.62093 0.0
C1067 C 0.05422 0.9964 0.60047 0.0
C1068 C 0.0475 1.00287 0.65463 0.0
C1069 C 0.06897 0.01674 0.67079 0.0
C1070 C 0.07581 0.0072 0.69858 0.0
C1071 C 0.06059 0.98253 0.71032 0.0
C1072 C 0.0386 0.96732 0.69441 0.0
C1073 C 0.03182 0.9778 0.66612 0.0
H1074 H 0.18968 0.84232 0.84563 0.0
H1075 H 0.12406 0.83902 0.91644 0.0
H1076 H 0.16361 0.8234 0.94986 0.0
H1077 H 0.23339 0.77504 0.86807 0.0
H1078 H 0.26872 0.79103 0.8575 0.0
H1079 H 0.23535 0.80234 0.83872 0.0
H1080 H 0.24513 0.85943 0.85008 0.0
H1081 H 0.27843 0.84827 0.86903 0.0
H1082 H 0.24958 0.87115 0.8872 0.0
H1083 H 0.20972 0.81065 0.97625 0.0
H1084 H 0.26006 0.79733 0.99373 0.0
H1085 H 0.29642 0.80451 0.90608 0.0
C1086 C 0.18352 0.83788 0.86806 0.0
C1087 C 0.15361 0.84231 0.87836 0.0
C1088 C 0.14676 0.83655 0.90802 0.0
C1089 C 0.16908 0.82744 0.92721 0.0
C1090 C 0.19823 0.82377 0.91647 0.0
C1091 C 0.20558 0.82844 0.88759 0.0
C1092 C 0.23884 0.82266 0.88192 0.0
C1093 C 0.24439 0.79619 0.86027 0.0
C1094 C 0.25388 0.85213 0.87143 0.0
C1095 C 0.24888 0.81377 0.9121 0.0
C1096 C 0.22501 0.81504 0.93168 0.0
C1097 C 0.22852 0.80926 0.96111 0.0
C1098 C 0.25716 0.80181 0.97083 0.0
C1099 C 0.28186 0.79974 0.95119 0.0
C1100 C 0.27773 0.80563 0.9214 0.0
H1101 H 0.4492 0.03887 0.21643 0.0
H1102 H 0.45922 0.10049 0.14313 0.0
H1103 H 0.44152 0.06038 0.1104 0.0
H1104 H 0.4767 0.97178 0.17745 0.0
H1105 H 0.45196 0.94557 0.1955 0.0
H1106 H 0.46339 0.97962 0.21398 0.0
H1107 H 0.40801 0.9961 0.22304 0.0
H1108 H 0.39641 0.96202 0.20474 0.0
H1109 H 0.38334 0.99931 0.19276 0.0
H1110 H 0.42469 0.01443 0.08549 0.0
H1111 H 0.40895 0.96391 0.06877 0.0
H1112 H 0.41094 0.92976 0.15726 0.0
C1113 C 0.44706 0.04393 0.19355 0.0
C1114 C 0.45507 0.07281 0.18216 0.0
C1115 C 0.45296 0.07852 0.15211 0.0
C1116 C 0.44296 0.05592 0.13342 0.0
C1117 C 0.43564 0.02755 0.14509 0.0
C1118 C 0.43764 0.02127 0.17438 0.0
C1119 C 0.42998 0.98808 0.18068 0.0
C1120 C 0.45712 0.97022 0.19261 0.0
C1121 C 0.40281 0.98629 0.20154 0.0
C1122 C 0.42272 0.97708 0.15042 0.0
C1123 C 0.4264 1.00031 0.13034 0.0
C1124 C 0.42179 0.99597 0.10093 0.0
C1125 C 0.4131 0.96709 0.09162 0.0
C1126 C 0.40907 0.94277 0.11161 0.0
C1127 C 0.41383 0.94793 0.14149 0.0
H1128 H 0.81953 0.38444 0.59525 0.0
H1129 H 0.82098 0.31914 0.66656 0.0
H1130 H 0.77463 0.29717 0.64943 0.0
H1131 H 0.73765 0.39643 0.59654 0.0
H1132 H 0.73552 0.39957 0.55765 0.0
H1133 H 0.76863 0.41127 0.57573 0.0
H1134 H 0.80088 0.37435 0.54312 0.0
H1135 H 0.76788 0.36253 0.52501 0.0
H1136 H 0.79201 0.33424 0.54176 0.0
H1137 H 0.72951 0.28107 0.62486 0.0
H1138 H 0.68754 0.27086 0.59359 0.0
H1139 H 0.71293 0.34643 0.53732 0.0
C1140 C 0.80992 0.36577 0.60749 0.0
C1141 C 0.82436 0.35338 0.6322 0.0
C1142 C 0.81098 0.32872 0.64729 0.0
C1143 C 0.7844 0.3162 0.63788 0.0
C1144 C 0.77104 0.32868 0.61343 0.0
C1145 C 0.78313 0.35296 0.59842 0.0
C1146 C 0.76414 0.36145 0.57245 0.0
C1147 C 0.75069 0.39412 0.5758 0.0
C1148 C 0.78232 0.35792 0.5439 0.0
C1149 C 0.73999 0.33759 0.57493 0.0
C1150 C 0.74445 0.31925 0.59898 0.0
C1151 C 0.72569 0.29534 0.60601 0.0
C1152 C 0.70182 0.28973 0.58794 0.0
C1153 C 0.6967 0.30777 0.56279 0.0
C1154 C 0.71603 0.33229 0.55639 0.0
H1155 H 0.95794 0.49744 0.76909 0.0
H1156 H 0.95172 0.41931 0.82708 0.0
H1157 H 0.9373 0.45465 0.86764 0.0
H1158 H 0.98839 0.55008 0.82121 0.0
H1159 H 0.96795 0.58275 0.80704 0.0
H1160 H 0.97894 0.5513 0.78341 0.0
H1161 H 0.92379 0.54551 0.76897 0.0
H1162 H 0.91261 0.57676 0.79269 0.0
H1163 H 0.89559 0.53993 0.79687 0.0
H1164 H 0.92174 0.49889 0.90112 0.0
H1165 H 0.90704 0.54788 0.92512 0.0
H1166 H 0.92369 0.59659 0.84448 0.0
C1167 C 0.95372 0.48768 0.79037 0.0
C1168 C 0.95581 0.45563 0.79503 0.0
C1169 C 0.95027 0.44381 0.82315 0.0
C1170 C 0.94203 0.4637 0.84621 0.0
C1171 C 0.93973 0.49522 0.84069 0.0
C1172 C 0.94561 0.5071 0.81345 0.0
C1173 C 0.94126 0.54169 0.81291 0.0
C1174 C 0.9709 0.55738 0.80572 0.0
C1175 C 0.91685 0.55154 0.7916 0.0
C1176 C 0.93136 0.54753 0.84404 0.0
C1177 C 0.93085 0.5205 0.85979 0.0
C1178 C 0.92231 0.52017 0.88903 0.0
C1179 C 0.91416 0.54814 0.90251 0.0
C1180 C 0.91444 0.5761 0.88675 0.0
C1181 C 0.92315 0.57562 0.8571 0.0
H1182 H 0.78 0.75071 0.08492 0.0
H1183 H 0.80452 0.66379 0.04339 0.0
H1184 H 0.7644 0.63862 0.07086 0.0
H1185 H 0.75981 0.719 0.15595 0.0
H1186 H 0.72859 0.74543 0.16165 0.0
H1187 H 0.7604 0.75674 0.13992 0.0
H1188 H 0.72572 0.76967 0.09718 0.0
H1189 H 0.69382 0.7584 0.11874 0.0
H1190 H 0.70143 0.74073 0.08389 0.0
H1191 H 0.72112 0.62291 0.10077 0.0
H1192 H 0.67549 0.61774 0.1309 0.0
H1193 H 0.67844 0.71432 0.15396 0.0
C1194 C 0.77716 0.72631 0.08191 0.0
C1195 C 0.79554 0.70921 0.0621 0.0
C1196 C 0.79079 0.67742 0.05844 0.0
C1197 C 0.76809 0.66284 0.074 0.0
C1198 C 0.75027 0.68031 0.09315 0.0
C1199 C 0.7544 0.71133 0.0972 0.0
C1200 C 0.73114 0.72484 0.11831 0.0
C1201 C 0.74587 0.73723 0.14558 0.0
C1202 C 0.71189 0.74988 0.10364 0.0
C1203 C 0.71323 0.69655 0.12516 0.0
C1204 C 0.72487 0.67114 0.11053 0.0
C1205 C 0.71192 0.64252 0.11265 0.0
C1206 C 0.68613 0.63977 0.13003 0.0
C1207 C 0.6735 0.66549 0.14509 0.0
C1208 C 0.68749 0.69421 0.14272 0.0
H1209 H 0.5618 0.47872 0.40887 0.0
H1210 H 0.59809 0.42469 0.33643 0.0
H1211 H 0.58231 0.46528 0.30268 0.0
H1212 H 0.49611 0.51004 0.36823 0.0
H1213 H 0.49693 0.54685 0.38599 0.0
H1214 H 0.50915 0.51264 0.40483 0.0
H1215 H 0.56002 0.53735 0.41414 0.0
H1216 H 0.54804 0.57147 0.39518 0.0
H1217 H 0.58195 0.55126 0.38382 0.0
H1218 H 0.56693 0.51276 0.27687 0.0
H1219 H 0.5503 0.56416 0.26015 0.0
H1220 H 0.52138 0.58805 0.34783 0.0
C1221 C 0.56589 0.47511 0.38587 0.0
C1222 C 0.58177 0.44847 0.37553 0.0
C1223 C 0.58676 0.44503 0.34517 0.0
C1224 C 0.57761 0.4679 0.32569 0.0
C1225 C 0.56288 0.4941 0.33662 0.0
C1226 C 0.55657 0.49775 0.3659 0.0
C1227 C 0.54089 0.5287 0.37168 0.0
C1228 C 0.50887 0.52429 0.38338 0.0
C1229 C 0.55881 0.54835 0.39244 0.0
C1230 C 0.54072 0.5423 0.34127 0.0
C1231 C 0.55324 0.52164 0.32141 0.0
C1232 C 0.55676 0.52899 0.29214 0.0
C1233 C 0.54735 0.55822 0.28285 0.0
C1234 C 0.53461 0.57987 0.30268 0.0
C1235 C 0.53095 0.57176 0.33225 0.0
H1236 H 0.38031 0.32274 0.13069 0.0
H1237 H 0.36213 0.36104 0.21643 0.0
H1238 H 0.39065 0.31772 0.2381 0.0
H1239 H 0.37537 0.24376 0.15068 0.0
H1240 H 0.40522 0.23108 0.12631 0.0
H1241 H 0.3829 0.26472 0.11771 0.0
H1242 H 0.43063 0.29708 0.11343 0.0
H1243 H 0.45309 0.26344 0.12158 0.0
H1244 H 0.45594 0.29763 0.14327 0.0
H1245 H 0.42017 0.26777 0.25037 0.0
H1246 H 0.45225 0.22033 0.25117 0.0
H1247 H 0.45393 0.21828 0.15722 0.0
C1248 C 0.3826 0.32247 0.15401 0.0
C1249 C 0.36872 0.34551 0.17175 0.0
C1250 C 0.37201 0.34354 0.20227 0.0
C1251 C 0.38831 0.31902 0.21481 0.0
C1252 C 0.40136 0.29658 0.19661 0.0
C1253 C 0.39893 0.29839 0.16682 0.0
C1254 C 0.41531 0.27177 0.15183 0.0
C1255 C 0.39339 0.25166 0.13567 0.0
C1256 C 0.44023 0.28317 0.13133 0.0
C1257 C 0.42795 0.25494 0.1777 0.0
C1258 C 0.41915 0.26908 0.20348 0.0
C1259 C 0.42728 0.25672 0.23025 0.0
C1260 C 0.44529 0.22966 0.23055 0.0
C1261 C 0.45546 0.21576 0.20424 0.0
C1262 C 0.44648 0.22855 0.17763 0.0
H1263 H 0.95059 0.29746 0.80987 0.0
H1264 H 0.90495 0.32267 0.73077 0.0
H1265 H 0.86975 0.2812 0.73907 0.0
H1266 H 0.94456 0.21625 0.80223 0.0
H1267 H 0.93775 0.20904 0.84029 0.0
H1268 H 0.95906 0.24164 0.82908 0.0
H1269 H 0.92256 0.27775 0.8582 0.0
H1270 H 0.90109 0.24524 0.86946 0.0
H1271 H 0.88315 0.27709 0.85123 0.0
H1272 H 0.84005 0.23651 0.75462 0.0
H1273 H 0.81768 0.19078 0.77668 0.0
H1274 H 0.88231 0.19292 0.84546 0.0
C1275 C 0.93313 0.29434 0.79437 0.0
C1276 C 0.93073 0.31349 0.7696 0.0
C1277 C 0.90747 0.30848 0.74989 0.0
C1278 C 0.88722 0.28493 0.75442 0.0
C1279 C 0.89027 0.26645 0.77883 0.0
C1280 C 0.91253 0.27081 0.79856 0.0
C1281 C 0.91089 0.24714 0.82274 0.0
C1282 C 0.93978 0.22735 0.82362 0.0
C1283 C 0.90401 0.26274 0.85215 0.0
C1284 C 0.88468 0.2285 0.81305 0.0
C1285 C 0.87303 0.24028 0.7878 0.0
C1286 C 0.849 0.22699 0.77438 0.0
C1287 C 0.8366 0.2008 0.78698 0.0
C1288 C 0.84827 0.18789 0.81272 0.0
C1289 C 0.87259 0.20224 0.82595 0.0
H1290 H 0.05654 0.66463 0.10643 0.0
H1291 H 0.04895 0.58366 0.05256 0.0
H1292 H 1.00294 0.60612 0.03147 0.0
H1293 H 0.97753 0.67606 0.1215 0.0
H1294 H 0.97938 0.71733 0.12061 0.0
H1295 H 0.01132 0.69454 0.13155 0.0
H1296 H 0.04398 0.72035 0.09173 0.0
H1297 H 0.01217 0.74326 0.08076 0.0
H1298 H 0.0324 0.71955 0.05453 0.0
H1299 H 0.95611 0.63742 0.0177 0.0
H1300 H 0.91583 0.67668 0.00966 0.0
H1301 H 0.95641 0.73695 0.07132 0.0
C1302 C 0.04511 0.65144 0.09038 0.0
C1303 C 0.05626 0.62229 0.08128 0.0
C1304 C 0.04092 0.60612 0.05975 0.0
C1305 C 0.01466 0.61859 0.04781 0.0
C1306 C 1.00413 0.64727 0.05757 0.0
C1307 C 0.01907 0.66353 0.07824 0.0
C1308 C 1.00368 0.69412 0.08474 0.0
C1309 C 0.99231 0.69558 0.11648 0.0
C1310 C 0.02429 0.72089 0.07749 0.0
C1311 C 0.97804 0.6929 0.06412 0.0
C1312 C 0.97821 0.66551 0.04897 0.0
C1313 C 0.95592 0.65901 0.02934 0.0
C1314 C 0.93314 0.68128 0.02495 0.0
C1315 C 0.93334 0.70975 0.03969 0.0
C1316 C 0.956 0.71547 0.05951 0.0
H1317 H 0.60978 0.86003 0.30455 0.0
H1318 H 0.6254 0.83564 0.39428 0.0
H1319 H 0.5958 0.78918 0.38875 0.0
H1320 H 0.532 0.83161 0.30558 0.0
H1321 H 0.53463 0.81847 0.26853 0.0
H1322 H 0.5557 0.85095 0.27971 0.0
H1323 H 0.60455 0.82386 0.26094 0.0
H1324 H 0.58368 0.79135 0.24971 0.0
H1325 H 0.61432 0.78598 0.27406 0.0
H1326 H 0.56571 0.74511 0.37386 0.0
H1327 H 0.53822 0.70437 0.34942 0.0
H1328 H 0.54276 0.75553 0.26879 0.0
C1329 C 0.60679 0.84489 0.32296 0.0
C1330 C 0.61971 0.85144 0.34992 0.0
C1331 C 0.61533 0.83121 0.3736 0.0
C1332 C 0.5986 0.80477 0.37067 0.0
C1333 C 0.58605 0.79895 0.34397 0.0
C1334 C 0.58971 0.81842 0.32052 0.0
C1335 C 0.57375 0.80644 0.29428 0.0
C1336 C 0.54747 0.82816 0.28656 0.0
C1337 C 0.59538 0.8016 0.26821 0.0
C1338 C 0.56252 0.7762 0.30612 0.0
C1339 C 0.56907 0.7729 0.33511 0.0
C1340 C 0.56042 0.74737 0.35116 0.0
C1341 C 0.54482 0.7244 0.33717 0.0
C1342 C 0.53872 0.72677 0.3073 0.0
C1343 C 0.54757 0.75306 0.29161 0.0
H1344 H 0.53271 0.29744 0.56696 0.0
H1345 H 0.57169 0.36065 0.50527 0.0
H1346 H 0.5259 0.39377 0.50851 0.0
H1347 H 0.45643 0.30595 0.53807 0.0
H1348 H 0.43886 0.30174 0.57336 0.0
H1349 H 0.47429 0.28267 0.56531 0.0
H1350 H 0.49728 0.3089 0.60974 0.0
H1351 H 0.46194 0.32786 0.61798 0.0
H1352 H 0.495 0.35017 0.6129 0.0
H1353 H 0.47769 0.42175 0.52183 0.0
H1354 H 0.43055 0.44244 0.54342 0.0
H1355 H 0.42092 0.35854 0.59335 0.0
C1356 C 0.53158 0.3184 0.55433 0.0
C1357 C 0.55583 0.32711 0.53633 0.0
C1358 C 0.55339 0.35402 0.51939 0.0
C1359 C 0.52745 0.37278 0.52101 0.0
C1360 C 0.5039 0.36368 0.53907 0.0
C1361 C 0.50554 0.33689 0.55511 0.0
C1362 C 0.47699 0.33221 0.57262 0.0
C1363 C 0.46068 0.30397 0.56168 0.0
C1364 C 0.48319 0.32966 0.60524 0.0
C1365 C 0.45987 0.3616 0.5655 0.0
C1366 C 0.47554 0.37916 0.5457 0.0
C1367 C 0.46496 0.40797 0.53696 0.0
C1368 C 0.43798 0.41945 0.54923 0.0
C1369 C 0.42182 0.40218 0.57009 0.0
C1370 C 0.43274 0.37252 0.57767 0.0
H1371 H 0.11689 0.71306 0.6324 0.0
H1372 H 0.14998 0.68661 0.71665 0.0
H1373 H 0.12877 0.73483 0.73778 0.0
H1374 H 0.1256 0.79839 0.64141 0.0
H1375 H 0.09158 0.80663 0.62246 0.0
H1376 H 0.11424 0.77314 0.61296 0.0
H1377 H 0.0685 0.73872 0.62163 0.0
H1378 H 0.0458 0.77196 0.63116 0.0
H1379 H 0.04882 0.74028 0.6562 0.0
H1380 H 0.09979 0.78343 0.75061 0.0
H1381 H 0.0614 0.82545 0.75475 0.0
H1382 H 0.04491 0.81784 0.66289 0.0
C1383 C 0.12046 0.71795 0.65508 0.0
C1384 C 0.13526 0.6964 0.67289 0.0
C1385 C 0.13872 0.70298 0.70269 0.0
C1386 C 0.12699 0.73038 0.71479 0.0
C1387 C 0.11191 0.75094 0.69677 0.0
C1388 C 0.10859 0.745 0.66754 0.0
C1389 C 0.08842 0.76887 0.65362 0.0
C1390 C 0.10601 0.78788 0.63129 0.0
C1391 C 0.06128 0.75406 0.63987 0.0
C1392 C 0.07944 0.78804 0.67989 0.0
C1393 C 0.09409 0.77811 0.70439 0.0
C1394 C 0.08849 0.79166 0.7315 0.0
C1395 C 0.06681 0.81547 0.73368 0.0
C1396 C 0.05069 0.82468 0.70906 0.0
C1397 C 0.05738 0.81121 0.68186 0.0
H1398 H 0.45756 0.77935 0.93325 0.0
H1399 H 0.40581 0.84703 0.98336 0.0
H1400 H 0.44647 0.88427 0.97595 0.0
H1401 H 0.5299 0.80013 0.96125 0.0
H1402 H 0.54916 0.79222 0.9272 0.0
H1403 H 0.51629 0.77132 0.93718 0.0
H1404 H 0.49169 0.78805 0.88916 0.0
H1405 H 0.5244 0.80904 0.87909 0.0
H1406 H 0.4883 0.82833 0.88048 0.0
H1407 H 0.49237 0.91478 0.9601 0.0
H1408 H 0.53897 0.93524 0.93922 0.0
H1409 H 0.56145 0.84572 0.90214 0.0
C1410 C 0.45469 0.80203 0.94271 0.0
C1411 C 0.42835 0.81049 0.9586 0.0
C1412 C 0.42573 0.84018 0.97099 0.0
C1413 C 0.44873 0.8614 0.96688 0.0
C1414 C 0.47434 0.8523 0.9508 0.0
C1415 C 0.4775 0.82312 0.93925 0.0
C1416 C 0.50718 0.81865 0.92312 0.0
C1417 C 0.52679 0.79413 0.93809 0.0
C1418 C 0.5026 0.81055 0.89106 0.0
C1419 C 0.51993 0.85029 0.92635 0.0
C1420 C 0.50082 0.86934 0.94256 0.0
C1421 C 0.50759 0.89988 0.94771 0.0
C1422 C 0.53435 0.91126 0.93587 0.0
C1423 C 0.55428 0.89221 0.91903 0.0
C1424 C 0.54682 0.86117 0.91459 0.0
H1425 H 0.93833 0.16353 0.37912 0.0
H1426 H 0.93132 0.08786 0.44014 0.0
H1427 H 0.976 0.10535 0.4647 0.0
H1428 H 0.0205 0.16129 0.374 0.0
H1429 H 0.0229 0.20244 0.37138 0.0
H1430 H 0.99082 0.18351 0.35765 0.0
H1431 H 0.95599 0.21815 0.39014 0.0
H1432 H 0.98796 0.23707 0.40398 0.0
H1433 H 0.96179 0.21941 0.4287 0.0
H1434 H 0.01962 0.13142 0.48383 0.0
H1435 H 0.06048 0.16479 0.49684 0.0
H1436 H 0.041 0.22358 0.42304 0.0
C1437 C 0.94643 0.15035 0.39737 0.0
C1438 C 0.93105 0.12439 0.4078 0.0
C1439 C 0.94226 0.10811 0.43203 0.0
C1440 C 0.96781 0.1177 0.446 0.0
C1441 C 0.98217 0.14345 0.43535 0.0
C1442 C 0.97209 0.15951 0.41153 0.0
C1443 C 0.99153 0.18684 0.40505 0.0
C1444 C 1.00737 0.1833 0.37524 0.0
C1445 C 0.97322 0.21716 0.4071 0.0
C1446 C 0.01362 0.18396 0.42941 0.0
C1447 C 0.00784 0.15857 0.44641 0.0
C1448 C 0.02453 0.15127 0.4706 0.0
C1449 C 0.0477 0.1705 0.47782 0.0
C1450 C 0.05405 0.19689 0.46097 0.0
C1451 C 0.03687 0.20351 0.43625 0.0
loop_
_geom_bond_atom_site_label_1
_geom_bond_atom_site_label_2
_geom_bond_distance
_geom_bond_site_symmetry_2
_ccdc_geom_bond_type
Pr0 C2 2.880 . S
Pr0 O20 2.562 . S
Pr0 O21 2.490 . S
Pr0 O22 2.695 . S
Pr0 O23 2.512 . S
Pr0 O25 2.437 . S
Pr0 O28 2.436 . S
Pr0 O30 2.438 . S
Pr1 C11 2.880 . S
Pr1 O22 2.436 . S
Pr1 O24 2.438 . S
Pr1 O26 2.562 . S
Pr1 O27 2.490 . S
Pr1 O28 2.695 . S
Pr1 O29 2.512 . S
Pr1 O31 2.437 . S
C2 Pr0 2.880 . S
C2 C3 1.491 . S
C2 O20 1.254 . S
C2 O21 1.225 . S
C3 C2 1.491 . S
C3 C4 1.392 . S
C3 C8 1.356 . S
C4 C3 1.392 . S
C4 C5 1.368 . S
C4 H32 0.929 . S
C5 C4 1.368 . S
C5 C6 1.386 . S
C5 H33 0.929 . S
C6 C5 1.386 . S
C6 C7 1.373 . S
C7 C6 1.373 . S
C7 C8 1.409 . S
C7 H34 0.931 . S
C8 C3 1.356 . S
C8 C7 1.409 . S
C8 H35 0.930 . S
C9 O22 1.270 . S
C9 O23 1.248 . S
C10 O24 1.267 . S
C10 O25 1.278 . S
C11 Pr1 2.880 . S
C11 C12 1.491 . S
C11 O26 1.254 . S
C11 O27 1.225 . S
C12 C11 1.491 . S
C12 C13 1.392 . S
C12 C17 1.356 . S
C13 C12 1.392 . S
C13 C14 1.368 . S
C13 H36 0.929 . S
C14 C13 1.368 . S
C14 C15 1.386 . S
C14 H37 0.929 . S
C15 C14 1.386 . S
C15 C16 1.373 . S
C16 C15 1.373 . S
C16 C17 1.409 . S
C16 H38 0.931 . S
C17 C12 1.356 . S
C17 C16 1.409 . S
C17 H39 0.930 . S
C18 O28 1.270 . S
C18 O29 1.248 . S
C19 O30 1.267 . S
C19 O31 1.278 . S
O20 Pr0 2.562 . S
O20 C2 1.254 . S
O21 Pr0 2.490 . S
O21 C2 1.225 . S
O22 Pr0 2.695 . S
O22 Pr1 2.436 . S
O22 C9 1.270 . S
O23 Pr0 2.512 . S
O23 C9 1.248 . S
O24 Pr1 2.438 . S
O24 C10 1.267 . S
O25 Pr0 2.437 . S
O25 C10 1.278 . S
O26 Pr1 2.562 . S
O26 C11 1.254 . S
O27 Pr1 2.490 . S
O27 C11 1.225 . S
O28 Pr0 2.436 . S
O28 Pr1 2.695 . S
O28 C18 1.270 . S
O29 Pr1 2.512 . S
O29 C18 1.248 . S
O30 Pr0 2.438 . S
O30 C19 1.267 . S
O31 Pr1 2.437 . S
O31 C19 1.278 . S
H32 C4 0.929 . S
H33 C5 0.929 . S
H34 C7 0.931 . S
H35 C8 0.930 . S
H36 C13 0.929 . S
H37 C14 0.929 . S
H38 C16 0.931 . S
H39 C17 0.930 . S
Pr40 C42 2.880 . S
Pr40 O60 2.562 . S
Pr40 O61 2.490 . S
Pr40 O62 2.695 1_655 S
Pr40 O63 2.512 1_655 S
Pr40 O65 2.437 1_655 S
Pr40 O68 2.436 . S
Pr40 O70 2.438 . S
Pr41 C51 2.880 . S
Pr41 O62 2.436 . S
Pr41 O64 2.438 . S
Pr41 O66 2.562 . S
Pr41 O67 2.490 . S
Pr41 O68 2.695 1_455 S
Pr41 O69 2.512 1_455 S
Pr41 O71 2.437 1_455 S
C42 Pr40 2.880 . S
C42 C43 1.491 . S
C42 O60 1.254 . S
C42 O61 1.225 . S
C43 C42 1.491 . S
C43 C44 1.392 . S
C43 C48 1.356 . S
C44 C43 1.392 . S
C44 C45 1.368 . S
C44 H72 0.929 . S
C45 C44 1.368 . S
C45 C46 1.386 . S
C45 H73 0.929 . S
C46 C45 1.386 . S
C46 C47 1.373 . S
C47 C46 1.373 . S
C47 C48 1.409 . S
C47 H74 0.931 . S
C48 C43 1.356 . S
C48 C47 1.409 . S
C48 H75 0.930 . S
C49 O62 1.270 . S
C49 O63 1.248 . S
C50 O64 1.267 . S
C50 O65 1.278 . S
C51 Pr41 2.880 . S
C51 C52 1.491 . S
C51 O66 1.254 . S
C51 O67 1.225 . S
C52 C51 1.491 . S
C52 C53 1.392 . S
C52 C57 1.356 . S
C53 C52 1.392 . S
C53 C54 1.368 . S
C53 H76 0.929 . S
C54 C53 1.368 . S
C54 C55 1.386 . S
C54 H77 0.929 . S
C55 C54 1.386 . S
C55 C56 1.373 . S
C56 C55 1.373 . S
C56 C57 1.409 . S
C56 H78 0.931 . S
C57 C52 1.356 . S
C57 C56 1.409 . S
C57 H79 0.930 . S
C58 O68 1.270 . S
C58 O69 1.248 . S
C59 O70 1.267 . S
C59 O71 1.278 . S
O60 Pr40 2.562 . S
O60 C42 1.254 . S
O61 Pr40 2.490 . S
O61 C42 1.225 . S
O62 Pr40 2.695 1_455 S
O62 Pr41 2.436 . S
O62 C49 1.270 . S
O63 Pr40 2.512 1_455 S
O63 C49 1.248 . S
O64 Pr41 2.438 . S
O64 C50 1.267 . S
O65 Pr40 2.437 1_455 S
O65 C50 1.278 . S
O66 Pr41 2.562 . S
O66 C51 1.254 . S
O67 Pr41 2.490 . S
O67 C51 1.225 . S
O68 Pr40 2.436 . S
O68 Pr41 2.695 1_655 S
O68 C58 1.270 . S
O69 Pr41 2.512 1_655 S
O69 C58 1.248 . S
O70 Pr40 2.438 . S
O70 C59 1.267 . S
O71 Pr41 2.437 1_655 S
O71 C59 1.278 . S
H72 C44 0.929 . S
H73 C45 0.929 . S
H74 C47 0.931 . S
H75 C48 0.930 . S
H76 C53 0.929 . S
H77 C54 0.929 . S
H78 C56 0.931 . S
H79 C57 0.930 . S
Pr80 C82 2.880 . S
Pr80 O100 2.562 . S
Pr80 O101 2.490 . S
Pr80 O102 2.695 . S
Pr80 O103 2.512 . S
Pr80 O105 2.437 . S
Pr80 O108 2.436 1_556 S
Pr80 O110 2.438 1_556 S
Pr81 C91 2.880 . S
Pr81 O102 2.436 1_554 S
Pr81 O104 2.438 1_554 S
Pr81 O106 2.562 . S
Pr81 O107 2.490 . S
Pr81 O108 2.695 . S
Pr81 O109 2.512 . S
Pr81 O111 2.437 . S
C82 Pr80 2.880 . S
C82 C83 1.491 . S
C82 O100 1.254 . S
C82 O101 1.225 . S
C83 C82 1.491 . S
C83 C84 1.392 . S
C83 C88 1.356 . S
C84 C83 1.392 . S
C84 C85 1.368 . S
C84 H112 0.929 . S
C85 C84 1.368 . S
C85 C86 1.386 . S
C85 H113 0.929 . S
C86 C85 1.386 . S
C86 C87 1.373 . S
C87 C86 1.373 . S
C87 C88 1.409 . S
C87 H114 0.931 . S
C88 C83 1.356 . S
C88 C87 1.409 . S
C88 H115 0.930 . S
C89 O102 1.270 . S
C89 O103 1.248 . S
C90 O104 1.267 . S
C90 O105 1.278 . S
C91 Pr81 2.880 . S
C91 C92 1.491 . S
C91 O106 1.254 . S
C91 O107 1.225 . S
C92 C91 1.491 . S
C92 C93 1.392 . S
C92 C97 1.356 . S
C93 C92 1.392 . S
C93 C94 1.368 . S
C93 H116 0.929 . S
C94 C93 1.368 . S
C94 C95 1.386 . S
C94 H117 0.929 . S
C95 C94 1.386 . S
C95 C96 1.373 . S
C96 C95 1.373 . S
C96 C97 1.409 . S
C96 H118 0.931 . S
C97 C92 1.356 . S
C97 C96 1.409 . S
C97 H119 0.930 . S
C98 O108 1.270 . S
C98 O109 1.248 . S
C99 O110 1.267 . S
C99 O111 1.278 . S
O100 Pr80 2.562 . S
O100 C82 1.254 . S
O101 Pr80 2.490 . S
O101 C82 1.225 . S
O102 Pr80 2.695 . S
O102 Pr81 2.436 1_556 S
O102 C89 1.270 . S
O103 Pr80 2.512 . S
O103 C89 1.248 . S
O104 Pr81 2.438 1_556 S
O104 C90 1.267 . S
O105 Pr80 2.437 . S
O105 C90 1.278 . S
O106 Pr81 2.562 . S
O106 C91 1.254 . S
O107 Pr81 2.490 . S
O107 C91 1.225 . S
O108 Pr80 2.436 1_554 S
O108 Pr81 2.695 . S
O108 C98 1.270 . S
O109 Pr81 2.512 . S
O109 C98 1.248 . S
O110 Pr80 2.438 1_554 S
O110 C99 1.267 . S
O111 Pr81 2.437 . S
O111 C99 1.278 . S
H112 C84 0.929 . S
H113 C85 0.929 . S
H114 C87 0.931 . S
H115 C88 0.930 . S
H116 C93 0.929 . S
H117 C94 0.929 . S
H118 C96 0.931 . S
H119 C97 0.930 . S
Pr120 C122 2.880 . S
Pr120 O140 2.562 . S
Pr120 O141 2.490 . S
Pr120 O142 2.695 . S
Pr120 O143 2.512 . S
Pr120 O145 2.437 . S
Pr120 O148 2.436 . S
Pr120 O150 2.438 . S
Pr121 C131 2.880 . S
Pr121 O142 2.436 . S
Pr121 O144 2.438 . S
Pr121 O146 2.562 . S
Pr121 O147 2.490 . S
Pr121 O148 2.695 . S
Pr121 O149 2.512 . S
Pr121 O151 2.437 . S
C122 Pr120 2.880 . S
C122 C123 1.491 . S
C122 O140 1.254 . S
C122 O141 1.225 . S
C123 C122 1.491 . S
C123 C124 1.392 . S
C123 C128 1.356 . S
C124 C123 1.392 . S
C124 C125 1.368 . S
C124 H152 0.929 . S
C125 C124 1.368 . S
C125 C126 1.386 . S
C125 H153 0.929 . S
C126 C125 1.386 . S
C126 C127 1.373 . S
C127 C126 1.373 . S
C127 C128 1.409 . S
C127 H154 0.931 . S
C128 C123 1.356 . S
C128 C127 1.409 . S
C128 H155 0.930 . S
C129 O142 1.270 . S
C129 O143 1.248 . S
C130 O144 1.267 . S
C130 O145 1.278 . S
C131 Pr121 2.880 . S
C131 C132 1.491 . S
C131 O146 1.254 . S
C131 O147 1.225 . S
C132 C131 1.491 . S
C132 C133 1.392 . S
C132 C137 1.356 . S
C133 C132 1.392 . S
C133 C134 1.368 . S
C133 H156 0.929 . S
C134 C133 1.368 . S
C134 C135 1.386 . S
C134 H157 0.929 . S
C135 C134 1.386 . S
C135 C136 1.373 . S
C136 C135 1.373 . S
C136 C137 1.409 . S
C136 H158 0.931 . S
C137 C132 1.356 . S
C137 C136 1.409 . S
C137 H159 0.930 . S
C138 O148 1.270 . S
C138 O149 1.248 . S
C139 O150 1.267 . S
C139 O151 1.278 . S
O140 Pr120 2.562 . S
O140 C122 1.254 . S
O141 Pr120 2.490 . S
O141 C122 1.225 . S
O142 Pr120 2.695 . S
O142 Pr121 2.436 . S
O142 C129 1.270 . S
O143 Pr120 2.512 . S
O143 C129 1.248 . S
O144 Pr121 2.438 . S
O144 C130 1.267 . S
O145 Pr120 2.437 . S
O145 C130 1.278 . S
O146 Pr121 2.562 . S
O146 C131 1.254 . S
O147 Pr121 2.490 . S
O147 C131 1.225 . S
O148 Pr120 2.436 . S
O148 Pr121 2.695 . S
O148 C138 1.270 . S
O149 Pr121 2.512 . S
O149 C138 1.248 . S
O150 Pr120 2.438 . S
O150 C139 1.267 . S
O151 Pr121 2.437 . S
O151 C139 1.278 . S
H152 C124 0.929 . S
H153 C125 0.929 . S
H154 C127 0.931 . S
H155 C128 0.930 . S
H156 C133 0.929 . S
H157 C134 0.929 . S
H158 C136 0.931 . S
H159 C137 0.930 . S
Pr160 C162 2.880 . S
Pr160 O180 2.562 . S
Pr160 O181 2.490 . S
Pr160 O182 2.695 . S
Pr160 O183 2.512 . S
Pr160 O185 2.437 . S
Pr160 O188 2.436 . S
Pr160 O190 2.438 . S
Pr161 C171 2.880 . S
Pr161 O182 2.436 . S
Pr161 O184 2.438 . S
Pr161 O186 2.562 . S
Pr161 O187 2.490 . S
Pr161 O188 2.695 . S
Pr161 O189 2.512 . S
Pr161 O191 2.437 . S
C162 Pr160 2.880 . S
C162 C163 1.491 . S
C162 O180 1.254 . S
C162 O181 1.225 . S
C163 C162 1.491 . S
C163 C164 1.392 . S
C163 C168 1.356 . S
C164 C163 1.392 . S
C164 C165 1.368 . S
C164 H192 0.929 . S
C165 C164 1.368 . S
C165 C166 1.386 . S
C165 H193 0.929 . S
C166 C165 1.386 . S
C166 C167 1.373 . S
C167 C166 1.373 . S
C167 C168 1.409 . S
C167 H194 0.931 . S
C168 C163 1.356 . S
C168 C167 1.409 . S
C168 H195 0.930 . S
C169 O182 1.270 . S
C169 O183 1.248 . S
C170 O184 1.267 . S
C170 O185 1.278 . S
C171 Pr161 2.880 . S
C171 C172 1.491 . S
C171 O186 1.254 . S
C171 O187 1.225 . S
C172 C171 1.491 . S
C172 C173 1.392 . S
C172 C177 1.356 . S
C173 C172 1.392 . S
C173 C174 1.368 . S
C173 H196 0.929 . S
C174 C173 1.368 . S
C174 C175 1.386 . S
C174 H197 0.929 . S
C175 C174 1.386 . S
C175 C176 1.373 . S
C176 C175 1.373 . S
C176 C177 1.409 . S
C176 H198 0.931 . S
C177 C172 1.356 . S
C177 C176 1.409 . S
C177 H199 0.930 . S
C178 O188 1.270 . S
C178 O189 1.248 . S
C179 O190 1.267 . S
C179 O191 1.278 . S
O180 Pr160 2.562 . S
O180 C162 1.254 . S
O181 Pr160 2.490 . S
O181 C162 1.225 . S
O182 Pr160 2.695 . S
O182 Pr161 2.436 . S
O182 C169 1.270 . S
O183 Pr160 2.512 . S
O183 C169 1.248 . S
O184 Pr161 2.438 . S
O184 C170 1.267 . S
O185 Pr160 2.437 . S
O185 C170 1.278 . S
O186 Pr161 2.562 . S
O186 C171 1.254 . S
O187 Pr161 2.490 . S
O187 C171 1.225 . S
O188 Pr160 2.436 . S
O188 Pr161 2.695 . S
O188 C178 1.270 . S
O189 Pr161 2.512 . S
O189 C178 1.248 . S
O190 Pr160 2.438 . S
O190 C179 1.267 . S
O191 Pr161 2.437 . S
O191 C179 1.278 . S
H192 C164 0.929 . S
H193 C165 0.929 . S
H194 C167 0.931 . S
H195 C168 0.930 . S
H196 C173 0.929 . S
H197 C174 0.929 . S
H198 C176 0.931 . S
H199 C177 0.930 . S
Pr200 C202 2.880 . S
Pr200 O220 2.562 . S
Pr200 O221 2.490 . S
Pr200 O222 2.695 . S
Pr200 O223 2.512 . S
Pr200 O225 2.437 . S
Pr200 O228 2.436 . S
Pr200 O230 2.438 . S
Pr201 C211 2.880 . S
Pr201 O222 2.436 1_455 S
Pr201 O224 2.438 1_455 S
Pr201 O226 2.562 . S
Pr201 O227 2.490 . S
Pr201 O228 2.695 1_455 S
Pr201 O229 2.512 . S
Pr201 O231 2.437 . S
C202 Pr200 2.880 . S
C202 C203 1.491 . S
C202 O220 1.254 . S
C202 O221 1.225 . S
C203 C202 1.491 . S
C203 C204 1.392 . S
C203 C208 1.356 . S
C204 C203 1.392 . S
C204 C205 1.368 . S
C204 H232 0.929 . S
C205 C204 1.368 . S
C205 C206 1.386 . S
C205 H233 0.929 . S
C206 C205 1.386 . S
C206 C207 1.373 . S
C207 C206 1.373 . S
C207 C208 1.409 . S
C207 H234 0.931 . S
C208 C203 1.356 . S
C208 C207 1.409 . S
C208 H235 0.930 . S
C209 O222 1.270 . S
C209 O223 1.248 . S
C210 O224 1.267 . S
C210 O225 1.278 . S
C211 Pr201 2.880 . S
C211 C212 1.491 . S
C211 O226 1.254 . S
C211 O227 1.225 . S
C212 C211 1.491 . S
C212 C213 1.392 . S
C212 C217 1.356 . S
C213 C212 1.392 . S
C213 C214 1.368 . S
C213 H236 0.929 . S
C214 C213 1.368 . S
C214 C215 1.386 . S
C214 H237 0.929 . S
C215 C214 1.386 . S
C215 C216 1.373 . S
C216 C215 1.373 . S
C216 C217 1.409 . S
C216 H238 0.931 . S
C217 C212 1.356 . S
C217 C216 1.409 . S
C217 H239 0.930 . S
C218 O228 1.270 1_455 S
C218 O229 1.248 . S
C219 O230 1.267 1_455 S
C219 O231 1.278 . S
O220 Pr200 2.562 . S
O220 C202 1.254 . S
O221 Pr200 2.490 . S
O221 C202 1.225 . S
O222 Pr200 2.695 . S
O222 Pr201 2.436 1_655 S
O222 C209 1.270 . S
O223 Pr200 2.512 . S
O223 C209 1.248 . S
O224 Pr201 2.438 1_655 S
O224 C210 1.267 . S
O225 Pr200 2.437 . S
O225 C210 1.278 . S
O226 Pr201 2.562 . S
O226 C211 1.254 . S
O227 Pr201 2.490 . S
O227 C211 1.225 . S
O228 Pr200 2.436 . S
O228 Pr201 2.695 1_655 S
O228 C218 1.270 1_655 S
O229 Pr201 2.512 . S
O229 C218 1.248 . S
O230 Pr200 2.438 . S
O230 C219 1.267 1_655 S
O231 Pr201 2.437 . S
O231 C219 1.278 . S
H232 C204 0.929 . S
H233 C205 0.929 . S
H234 C207 0.931 . S
H235 C208 0.930 . S
H236 C213 0.929 . S
H237 C214 0.929 . S
H238 C216 0.931 . S
H239 C217 0.930 . S
Pr240 C242 2.880 . S
Pr240 O260 2.562 . S
Pr240 O261 2.490 . S
Pr240 O262 2.695 . S
Pr240 O263 2.512 . S
Pr240 O265 2.437 . S
Pr240 O268 2.436 1_554 S
Pr240 O270 2.438 1_554 S
Pr241 C251 2.880 . S
Pr241 O262 2.436 1_556 S
Pr241 O264 2.438 1_556 S
Pr241 O266 2.562 . S
Pr241 O267 2.490 . S
Pr241 O268 2.695 . S
Pr241 O269 2.512 . S
Pr241 O271 2.437 . S
C242 Pr240 2.880 . S
C242 C243 1.491 . S
C242 O260 1.254 . S
C242 O261 1.225 . S
C243 C242 1.491 . S
C243 C244 1.392 . S
C243 C248 1.356 . S
C244 C243 1.392 . S
C244 C245 1.368 . S
C244 H272 0.929 . S
C245 C244 1.368 . S
C245 C246 1.386 . S
C245 H273 0.929 . S
C246 C245 1.386 . S
C246 C247 1.373 . S
C247 C246 1.373 . S
C247 C248 1.409 . S
C247 H274 0.931 . S
C248 C243 1.356 . S
C248 C247 1.409 . S
C248 H275 0.930 . S
C249 O262 1.270 . S
C249 O263 1.248 . S
C250 O264 1.267 . S
C250 O265 1.278 . S
C251 Pr241 2.880 . S
C251 C252 1.491 . S
C251 O266 1.254 . S
C251 O267 1.225 . S
C252 C251 1.491 . S
C252 C253 1.392 . S
C252 C257 1.356 . S
C253 C252 1.392 . S
C253 C254 1.368 . S
C253 H276 0.929 . S
C254 C253 1.368 . S
C254 C255 1.386 . S
C254 H277 0.929 . S
C255 C254 1.386 . S
C255 C256 1.373 . S
C256 C255 1.373 . S
C256 C257 1.409 . S
C256 H278 0.931 . S
C257 C252 1.356 . S
C257 C256 1.409 . S
C257 H279 0.930 . S
C258 O268 1.270 . S
C258 O269 1.248 . S
C259 O270 1.267 . S
C259 O271 1.278 . S
O260 Pr240 2.562 . S
O260 C242 1.254 . S
O261 Pr240 2.490 . S
O261 C242 1.225 . S
O262 Pr240 2.695 . S
O262 Pr241 2.436 1_554 S
O262 C249 1.270 . S
O263 Pr240 2.512 . S
O263 C249 1.248 . S
O264 Pr241 2.438 1_554 S
O264 C250 1.267 . S
O265 Pr240 2.437 . S
O265 C250 1.278 . S
O266 Pr241 2.562 . S
O266 C251 1.254 . S
O267 Pr241 2.490 . S
O267 C251 1.225 . S
O268 Pr240 2.436 1_556 S
O268 Pr241 2.695 . S
O268 C258 1.270 . S
O269 Pr241 2.512 . S
O269 C258 1.248 . S
O270 Pr240 2.438 1_556 S
O270 C259 1.267 . S
O271 Pr241 2.437 . S
O271 C259 1.278 . S
H272 C244 0.929 . S
H273 C245 0.929 . S
H274 C247 0.931 . S
H275 C248 0.930 . S
H276 C253 0.929 . S
H277 C254 0.929 . S
H278 C256 0.931 . S
H279 C257 0.930 . S
Pr280 C282 2.880 . S
Pr280 O300 2.562 . S
Pr280 O301 2.490 . S
Pr280 O302 2.695 . S
Pr280 O303 2.512 . S
Pr280 O305 2.437 . S
Pr280 O308 2.436 . S
Pr280 O310 2.438 . S
Pr281 C291 2.880 . S
Pr281 O302 2.436 . S
Pr281 O304 2.438 . S
Pr281 O306 2.562 . S
Pr281 O307 2.490 . S
Pr281 O308 2.695 . S
Pr281 O309 2.512 . S
Pr281 O311 2.437 . S
C282 Pr280 2.880 . S
C282 C283 1.491 . S
C282 O300 1.254 . S
C282 O301 1.225 . S
C283 C282 1.491 . S
C283 C284 1.392 . S
C283 C288 1.356 . S
C284 C283 1.392 . S
C284 C285 1.368 . S
C284 H312 0.929 . S
C285 C284 1.368 . S
C285 C286 1.386 . S
C285 H313 0.929 . S
C286 C285 1.386 . S
C286 C287 1.373 . S
C287 C286 1.373 . S
C287 C288 1.409 . S
C287 H314 0.931 . S
C288 C283 1.356 . S
C288 C287 1.409 . S
C288 H315 0.930 . S
C289 O302 1.270 . S
C289 O303 1.248 . S
C290 O304 1.267 . S
C290 O305 1.278 . S
C291 Pr281 2.880 . S
C291 C292 1.491 . S
C291 O306 1.254 . S
C291 O307 1.225 . S
C292 C291 1.491 . S
C292 C293 1.392 . S
C292 C297 1.356 . S
C293 C292 1.392 . S
C293 C294 1.368 . S
C293 H316 0.929 . S
C294 C293 1.368 . S
C294 C295 1.386 . S
C294 H317 0.929 . S
C295 C294 1.386 . S
C295 C296 1.373 . S
C296 C295 1.373 . S
C296 C297 1.409 . S
C296 H318 0.931 . S
C297 C292 1.356 . S
C297 C296 1.409 . S
C297 H319 0.930 . S
C298 O308 1.270 . S
C298 O309 1.248 . S
C299 O310 1.267 . S
C299 O311 1.278 . S
O300 Pr280 2.562 . S
O300 C282 1.254 . S
O301 Pr280 2.490 . S
O301 C282 1.225 . S
O302 Pr280 2.695 . S
O302 Pr281 2.436 . S
O302 C289 1.270 . S
O303 Pr280 2.512 . S
O303 C289 1.248 . S
O304 Pr281 2.438 . S
O304 C290 1.267 . S
O305 Pr280 2.437 . S
O305 C290 1.278 . S
O306 Pr281 2.562 . S
O306 C291 1.254 . S
O307 Pr281 2.490 . S
O307 C291 1.225 . S
O308 Pr280 2.436 . S
O308 Pr281 2.695 . S
O308 C298 1.270 . S
O309 Pr281 2.512 . S
O309 C298 1.248 . S
O310 Pr280 2.438 . S
O310 C299 1.267 . S
O311 Pr281 2.437 . S
O311 C299 1.278 . S
H312 C284 0.929 . S
H313 C285 0.929 . S
H314 C287 0.931 . S
H315 C288 0.930 . S
H316 C293 0.929 . S
H317 C294 0.929 . S
H318 C296 0.931 . S
H319 C297 0.930 . S
Pr320 C322 2.880 . S
Pr320 O340 2.562 . S
Pr320 O341 2.490 . S
Pr320 O342 2.695 . S
Pr320 O343 2.512 . S
Pr320 O345 2.437 . S
Pr320 O348 2.436 . S
Pr320 O350 2.438 . S
Pr321 C331 2.880 . S
Pr321 O342 2.436 . S
Pr321 O344 2.438 . S
Pr321 O346 2.562 . S
Pr321 O347 2.490 . S
Pr321 O348 2.695 . S
Pr321 O349 2.512 . S
Pr321 O351 2.437 . S
C322 Pr320 2.880 . S
C322 C323 1.491 . S
C322 O340 1.254 . S
C322 O341 1.225 . S
C323 C322 1.491 . S
C323 C324 1.392 . S
C323 C328 1.356 . S
C324 C323 1.392 . S
C324 C325 1.368 . S
C324 H352 0.929 . S
C325 C324 1.368 . S
C325 C326 1.386 . S
C325 H353 0.929 . S
C326 C325 1.386 . S
C326 C327 1.373 . S
C327 C326 1.373 . S
C327 C328 1.409 . S
C327 H354 0.931 . S
C328 C323 1.356 . S
C328 C327 1.409 . S
C328 H355 0.930 . S
C329 O342 1.270 . S
C329 O343 1.248 . S
C330 O344 1.267 . S
C330 O345 1.278 . S
C331 Pr321 2.880 . S
C331 C332 1.491 . S
C331 O346 1.254 . S
C331 O347 1.225 . S
C332 C331 1.491 . S
C332 C333 1.392 . S
C332 C337 1.356 . S
C333 C332 1.392 . S
C333 C334 1.368 . S
C333 H356 0.929 . S
C334 C333 1.368 . S
C334 C335 1.386 . S
C334 H357 0.929 . S
C335 C334 1.386 . S
C335 C336 1.373 . S
C336 C335 1.373 . S
C336 C337 1.409 . S
C336 H358 0.931 . S
C337 C332 1.356 . S
C337 C336 1.409 . S
C337 H359 0.930 . S
C338 O348 1.270 . S
C338 O349 1.248 . S
C339 O350 1.267 . S
C339 O351 1.278 . S
O340 Pr320 2.562 . S
O340 C322 1.254 . S
O341 Pr320 2.490 . S
O341 C322 1.225 . S
O342 Pr320 2.695 . S
O342 Pr321 2.436 . S
O342 C329 1.270 . S
O343 Pr320 2.512 . S
O343 C329 1.248 . S
O344 Pr321 2.438 . S
O344 C330 1.267 . S
O345 Pr320 2.437 . S
O345 C330 1.278 . S
O346 Pr321 2.562 . S
O346 C331 1.254 . S
O347 Pr321 2.490 . S
O347 C331 1.225 . S
O348 Pr320 2.436 . S
O348 Pr321 2.695 . S
O348 C338 1.270 . S
O349 Pr321 2.512 . S
O349 C338 1.248 . S
O350 Pr320 2.438 . S
O350 C339 1.267 . S
O351 Pr321 2.437 . S
O351 C339 1.278 . S
H352 C324 0.929 . S
H353 C325 0.929 . S
H354 C327 0.931 . S
H355 C328 0.930 . S
H356 C333 0.929 . S
H357 C334 0.929 . S
H358 C336 0.931 . S
H359 C337 0.930 . S
Pr360 C362 2.880 . S
Pr360 O380 2.562 . S
Pr360 O381 2.490 . S
Pr360 O382 2.695 . S
Pr360 O383 2.512 . S
Pr360 O385 2.437 . S
Pr360 O388 2.436 1_545 S
Pr360 O390 2.438 1_545 S
Pr361 C371 2.880 . S
Pr361 O382 2.436 1_565 S
Pr361 O384 2.438 1_565 S
Pr361 O386 2.562 . S
Pr361 O387 2.490 . S
Pr361 O388 2.695 . S
Pr361 O389 2.512 . S
Pr361 O391 2.437 . S
C362 Pr360 2.880 . S
C362 C363 1.491 . S
C362 O380 1.254 . S
C362 O381 1.225 . S
C363 C362 1.491 . S
C363 C364 1.392 . S
C363 C368 1.356 . S
C364 C363 1.392 . S
C364 C365 1.368 . S
C364 H392 0.929 . S
C365 C364 1.368 . S
C365 C366 1.386 . S
C365 H393 0.929 . S
C366 C365 1.386 . S
C366 C367 1.373 . S
C367 C366 1.373 . S
C367 C368 1.409 . S
C367 H394 0.931 . S
C368 C363 1.356 . S
C368 C367 1.409 . S
C368 H395 0.930 . S
C369 O382 1.270 . S
C369 O383 1.248 . S
C370 O384 1.267 . S
C370 O385 1.278 . S
C371 Pr361 2.880 . S
C371 C372 1.491 . S
C371 O386 1.254 . S
C371 O387 1.225 . S
C372 C371 1.491 . S
C372 C373 1.392 . S
C372 C377 1.356 . S
C373 C372 1.392 . S
C373 C374 1.368 . S
C373 H396 0.929 . S
C374 C373 1.368 . S
C374 C375 1.386 . S
C374 H397 0.929 . S
C375 C374 1.386 . S
C375 C376 1.373 . S
C376 C375 1.373 . S
C376 C377 1.409 . S
C376 H398 0.931 . S
C377 C372 1.356 . S
C377 C376 1.409 . S
C377 H399 0.930 . S
C378 O388 1.270 . S
C378 O389 1.248 . S
C379 O390 1.267 . S
C379 O391 1.278 . S
O380 Pr360 2.562 . S
O380 C362 1.254 . S
O381 Pr360 2.490 . S
O381 C362 1.225 . S
O382 Pr360 2.695 . S
O382 Pr361 2.436 1_545 S
O382 C369 1.270 . S
O383 Pr360 2.512 . S
O383 C369 1.248 . S
O384 Pr361 2.438 1_545 S
O384 C370 1.267 . S
O385 Pr360 2.437 . S
O385 C370 1.278 . S
O386 Pr361 2.562 . S
O386 C371 1.254 . S
O387 Pr361 2.490 . S
O387 C371 1.225 . S
O388 Pr360 2.436 1_565 S
O388 Pr361 2.695 . S
O388 C378 1.270 . S
O389 Pr361 2.512 . S
O389 C378 1.248 . S
O390 Pr360 2.438 1_565 S
O390 C379 1.267 . S
O391 Pr361 2.437 . S
O391 C379 1.278 . S
H392 C364 0.929 . S
H393 C365 0.929 . S
H394 C367 0.931 . S
H395 C368 0.930 . S
H396 C373 0.929 . S
H397 C374 0.929 . S
H398 C376 0.931 . S
H399 C377 0.930 . S
Pr400 C402 2.880 . S
Pr400 O420 2.562 . S
Pr400 O421 2.490 . S
Pr400 O422 2.695 1_545 S
Pr400 O423 2.512 1_545 S
Pr400 O425 2.437 1_545 S
Pr400 O428 2.436 . S
Pr400 O430 2.438 . S
Pr401 C411 2.880 . S
Pr401 O422 2.436 . S
Pr401 O424 2.438 . S
Pr401 O426 2.562 . S
Pr401 O427 2.490 . S
Pr401 O428 2.695 1_565 S
Pr401 O429 2.512 1_565 S
Pr401 O431 2.437 1_565 S
C402 Pr400 2.880 . S
C402 C403 1.491 . S
C402 O420 1.254 . S
C402 O421 1.225 . S
C403 C402 1.491 . S
C403 C404 1.392 . S
C403 C408 1.356 . S
C404 C403 1.392 . S
C404 C405 1.368 . S
C404 H432 0.929 . S
C405 C404 1.368 . S
C405 C406 1.386 . S
C405 H433 0.929 . S
C406 C405 1.386 . S
C406 C407 1.373 . S
C407 C406 1.373 . S
C407 C408 1.409 . S
C407 H434 0.931 . S
C408 C403 1.356 . S
C408 C407 1.409 . S
C408 H435 0.930 . S
C409 O422 1.270 . S
C409 O423 1.248 . S
C410 O424 1.267 . S
C410 O425 1.278 . S
C411 Pr401 2.880 . S
C411 C412 1.491 . S
C411 O426 1.254 . S
C411 O427 1.225 . S
C412 C411 1.491 . S
C412 C413 1.392 . S
C412 C417 1.356 . S
C413 C412 1.392 . S
C413 C414 1.368 . S
C413 H436 0.929 . S
C414 C413 1.368 . S
C414 C415 1.386 . S
C414 H437 0.929 . S
C415 C414 1.386 . S
C415 C416 1.373 . S
C416 C415 1.373 . S
C416 C417 1.409 . S
C416 H438 0.931 . S
C417 C412 1.356 . S
C417 C416 1.409 . S
C417 H439 0.930 . S
C418 O428 1.270 . S
C418 O429 1.248 . S
C419 O430 1.267 . S
C419 O431 1.278 . S
O420 Pr400 2.562 . S
O420 C402 1.254 . S
O421 Pr400 2.490 . S
O421 C402 1.225 . S
O422 Pr400 2.695 1_565 S
O422 Pr401 2.436 . S
O422 C409 1.270 . S
O423 Pr400 2.512 1_565 S
O423 C409 1.248 . S
O424 Pr401 2.438 . S
O424 C410 1.267 . S
O425 Pr400 2.437 1_565 S
O425 C410 1.278 . S
O426 Pr401 2.562 . S
O426 C411 1.254 . S
O427 Pr401 2.490 . S
O427 C411 1.225 . S
O428 Pr400 2.436 . S
O428 Pr401 2.695 1_545 S
O428 C418 1.270 . S
O429 Pr401 2.512 1_545 S
O429 C418 1.248 . S
O430 Pr400 2.438 . S
O430 C419 1.267 . S
O431 Pr401 2.437 1_545 S
O431 C419 1.278 . S
H432 C404 0.929 . S
H433 C405 0.929 . S
H434 C407 0.931 . S
H435 C408 0.930 . S
H436 C413 0.929 . S
H437 C414 0.929 . S
H438 C416 0.931 . S
H439 C417 0.930 . S
Pr440 C442 2.880 . S
Pr440 O460 2.562 . S
Pr440 O461 2.490 . S
Pr440 O462 2.695 . S
Pr440 O463 2.512 . S
Pr440 O465 2.437 . S
Pr440 O468 2.436 . S
Pr440 O470 2.438 . S
Pr441 C451 2.880 . S
Pr441 O462 2.436 . S
Pr441 O464 2.438 . S
Pr441 O466 2.562 . S
Pr441 O467 2.490 . S
Pr441 O468 2.695 . S
Pr441 O469 2.512 . S
Pr441 O471 2.437 . S
C442 Pr440 2.880 . S
C442 C443 1.491 . S
C442 O460 1.254 . S
C442 O461 1.225 . S
C443 C442 1.491 . S
C443 C444 1.392 . S
C443 C448 1.356 . S
C444 C443 1.392 . S
C444 C445 1.368 . S
C444 H472 0.929 . S
C445 C444 1.368 . S
C445 C446 1.386 . S
C445 H473 0.929 . S
C446 C445 1.386 . S
C446 C447 1.373 . S
C447 C446 1.373 . S
C447 C448 1.409 . S
C447 H474 0.931 . S
C448 C443 1.356 . S
C448 C447 1.409 . S
C448 H475 0.930 . S
C449 O462 1.270 . S
C449 O463 1.248 . S
C450 O464 1.267 . S
C450 O465 1.278 . S
C451 Pr441 2.880 . S
C451 C452 1.491 . S
C451 O466 1.254 . S
C451 O467 1.225 . S
C452 C451 1.491 . S
C452 C453 1.392 . S
C452 C457 1.356 . S
C453 C452 1.392 . S
C453 C454 1.368 . S
C453 H476 0.929 . S
C454 C453 1.368 . S
C454 C455 1.386 . S
C454 H477 0.929 . S
C455 C454 1.386 . S
C455 C456 1.373 . S
C456 C455 1.373 . S
C456 C457 1.409 . S
C456 H478 0.931 . S
C457 C452 1.356 . S
C457 C456 1.409 . S
C457 H479 0.930 . S
C458 O468 1.270 . S
C458 O469 1.248 . S
C459 O470 1.267 . S
C459 O471 1.278 . S
O460 Pr440 2.562 . S
O460 C442 1.254 . S
O461 Pr440 2.490 . S
O461 C442 1.225 . S
O462 Pr440 2.695 . S
O462 Pr441 2.436 . S
O462 C449 1.270 . S
O463 Pr440 2.512 . S
O463 C449 1.248 . S
O464 Pr441 2.438 . S
O464 C450 1.267 . S
O465 Pr440 2.437 . S
O465 C450 1.278 . S
O466 Pr441 2.562 . S
O466 C451 1.254 . S
O467 Pr441 2.490 . S
O467 C451 1.225 . S
O468 Pr440 2.436 . S
O468 Pr441 2.695 . S
O468 C458 1.270 . S
O469 Pr441 2.512 . S
O469 C458 1.248 . S
O470 Pr440 2.438 . S
O470 C459 1.267 . S
O471 Pr441 2.437 . S
O471 C459 1.278 . S
H472 C444 0.929 . S
H473 C445 0.929 . S
H474 C447 0.931 . S
H475 C448 0.930 . S
H476 C453 0.929 . S
H477 C454 0.929 . S
H478 C456 0.931 . S
H479 C457 0.930 . S
H480 C492 0.930 . S
H481 C494 0.930 . S
H482 C495 0.930 . S
H483 C499 0.959 . S
H484 C499 0.959 . S
H485 C499 0.961 . S
H486 C500 0.960 . S
H487 C500 0.961 . S
H488 C500 0.959 . S
H489 C503 0.929 . S
H490 C504 0.931 . S
H491 C506 0.930 . S
C492 H480 0.930 . S
C492 C493 1.399 . S
C492 C497 1.399 . S
C493 C492 1.399 . S
C493 C494 1.376 . S
C494 H481 0.930 . S
C494 C493 1.376 . S
C494 C495 1.388 . S
C495 H482 0.930 . S
C495 C494 1.388 . S
C495 C496 1.390 . S
C496 C495 1.390 . S
C496 C497 1.394 . S
C496 C502 1.465 . S
C497 C492 1.399 . S
C497 C496 1.394 . S
C497 C498 1.516 . S
C498 C497 1.516 . S
C498 C499 1.502 . S
C498 C500 1.561 . S
C498 C501 1.526 . S
C499 H483 0.959 . S
C499 H484 0.959 . S
C499 H485 0.961 . S
C499 C498 1.502 . S
C500 H486 0.960 . S
C500 H487 0.961 . S
C500 H488 0.959 . S
C500 C498 1.561 . S
C501 C498 1.526 . S
C501 C502 1.396 . S
C501 C506 1.390 . S
C502 C496 1.465 . S
C502 C501 1.396 . S
C502 C503 1.399 . S
C503 H489 0.929 . S
C503 C502 1.399 . S
C503 C504 1.385 . S
C504 H490 0.931 . S
C504 C503 1.385 . S
C504 C505 1.389 . S
C505 C504 1.389 . S
C505 C506 1.387 . S
C506 H491 0.930 . S
C506 C501 1.390 . S
C506 C505 1.387 . S
H507 C519 0.930 . S
H508 C521 0.930 . S
H509 C522 0.930 . S
H510 C526 0.959 . S
H511 C526 0.959 . S
H512 C526 0.961 . S
H513 C527 0.960 . S
H514 C527 0.961 . S
H515 C527 0.959 . S
H516 C530 0.929 . S
H517 C531 0.931 . S
H518 C533 0.930 . S
C519 H507 0.930 . S
C519 C520 1.399 . S
C519 C524 1.399 . S
C520 C519 1.399 . S
C520 C521 1.376 . S
C521 H508 0.930 . S
C521 C520 1.376 . S
C521 C522 1.388 . S
C522 H509 0.930 . S
C522 C521 1.388 . S
C522 C523 1.390 . S
C523 C522 1.390 . S
C523 C524 1.394 . S
C523 C529 1.465 . S
C524 C519 1.399 . S
C524 C523 1.394 . S
C524 C525 1.516 . S
C525 C524 1.516 . S
C525 C526 1.502 . S
C525 C527 1.561 . S
C525 C528 1.526 . S
C526 H510 0.959 . S
C526 H511 0.959 . S
C526 H512 0.961 . S
C526 C525 1.502 . S
C527 H513 0.960 . S
C527 H514 0.961 . S
C527 H515 0.959 . S
C527 C525 1.561 . S
C528 C525 1.526 . S
C528 C529 1.396 . S
C528 C533 1.390 . S
C529 C523 1.465 . S
C529 C528 1.396 . S
C529 C530 1.399 . S
C530 H516 0.929 . S
C530 C529 1.399 . S
C530 C531 1.385 . S
C531 H517 0.931 . S
C531 C530 1.385 . S
C531 C532 1.389 . S
C532 C531 1.389 . S
C532 C533 1.387 . S
C533 H518 0.930 . S
C533 C528 1.390 . S
C533 C532 1.387 . S
H534 C546 0.930 . S
H535 C548 0.930 1_556 S
H536 C549 0.934 . S
H537 C553 0.959 . S
H538 C553 0.959 . S
H539 C553 0.961 . S
H540 C554 0.960 . S
H541 C554 0.961 . S
H542 C554 0.959 . S
H543 C557 0.929 . S
H544 C558 0.931 . S
H545 C560 0.930 . S
C546 H534 0.930 . S
C546 C547 1.399 . S
C546 C551 1.399 . S
C547 C546 1.399 . S
C547 C548 1.376 . S
C548 H535 0.930 1_554 S
C548 C547 1.376 . S
C548 C549 1.388 . S
C549 H536 0.934 . S
C549 C548 1.388 . S
C549 C550 1.390 . S
C550 C549 1.390 . S
C550 C551 1.394 . S
C550 C556 1.465 . S
C551 C546 1.399 . S
C551 C550 1.394 . S
C551 C552 1.516 . S
C552 C551 1.516 . S
C552 C553 1.502 . S
C552 C554 1.561 . S
C552 C555 1.526 . S
C553 H537 0.959 . S
C553 H538 0.959 . S
C553 H539 0.961 . S
C553 C552 1.502 . S
C554 H540 0.960 . S
C554 H541 0.961 . S
C554 H542 0.959 . S
C554 C552 1.561 . S
C555 C552 1.526 . S
C555 C556 1.396 . S
C555 C560 1.390 . S
C556 C550 1.465 . S
C556 C555 1.396 . S
C556 C557 1.399 . S
C557 H543 0.929 . S
C557 C556 1.399 . S
C557 C558 1.385 . S
C558 H544 0.931 . S
C558 C557 1.385 . S
C558 C559 1.389 . S
C559 C558 1.389 . S
C559 C560 1.387 . S
C560 H545 0.930 . S
C560 C555 1.390 . S
C560 C559 1.387 . S
H561 C573 0.930 . S
H562 C575 0.930 . S
H563 C576 0.930 . S
H564 C580 0.959 . S
H565 C580 0.959 . S
H566 C580 0.961 . S
H567 C581 0.960 . S
H568 C581 0.961 . S
H569 C581 0.959 . S
H570 C584 0.929 . S
H571 C585 0.931 . S
H572 C587 0.930 . S
C573 H561 0.930 . S
C573 C574 1.399 . S
C573 C578 1.399 . S
C574 C573 1.399 . S
C574 C575 1.376 . S
C575 H562 0.930 . S
C575 C574 1.376 . S
C575 C576 1.388 . S
C576 H563 0.930 . S
C576 C575 1.388 . S
C576 C577 1.390 . S
C577 C576 1.390 . S
C577 C578 1.394 . S
C577 C583 1.465 . S
C578 C573 1.399 . S
C578 C577 1.394 . S
C578 C579 1.516 . S
C579 C578 1.516 . S
C579 C580 1.502 . S
C579 C581 1.561 . S
C579 C582 1.526 . S
C580 H564 0.959 . S
C580 H565 0.959 . S
C580 H566 0.961 . S
C580 C579 1.502 . S
C581 H567 0.960 . S
C581 H568 0.961 . S
C581 H569 0.959 . S
C581 C579 1.561 . S
C582 C579 1.526 . S
C582 C583 1.396 . S
C582 C587 1.390 . S
C583 C577 1.465 . S
C583 C582 1.396 . S
C583 C584 1.399 . S
C584 H570 0.929 . S
C584 C583 1.399 . S
C584 C585 1.385 . S
C585 H571 0.931 . S
C585 C584 1.385 . S
C585 C586 1.389 . S
C586 C585 1.389 . S
C586 C587 1.387 . S
C587 H572 0.930 . S
C587 C582 1.390 . S
C587 C586 1.387 . S
H588 C600 0.930 . S
H589 C602 0.930 . S
H590 C603 0.930 . S
H591 C607 0.959 . S
H592 C607 0.959 . S
H593 C607 0.961 . S
H594 C608 0.960 . S
H595 C608 0.961 . S
H596 C608 0.959 . S
H597 C611 0.929 . S
H598 C612 0.931 . S
H599 C614 0.930 . S
C600 H588 0.930 . S
C600 C601 1.399 . S
C600 C605 1.399 . S
C601 C600 1.399 . S
C601 C602 1.376 . S
C602 H589 0.930 . S
C602 C601 1.376 . S
C602 C603 1.388 . S
C603 H590 0.930 . S
C603 C602 1.388 . S
C603 C604 1.390 . S
C604 C603 1.390 . S
C604 C605 1.394 . S
C604 C610 1.465 . S
C605 C600 1.399 . S
C605 C604 1.394 . S
C605 C606 1.516 . S
C606 C605 1.516 . S
C606 C607 1.502 . S
C606 C608 1.561 . S
C606 C609 1.526 . S
C607 H591 0.959 . S
C607 H592 0.959 . S
C607 H593 0.961 . S
C607 C606 1.502 . S
C608 H594 0.960 . S
C608 H595 0.961 . S
C608 H596 0.959 . S
C608 C606 1.561 . S
C609 C606 1.526 . S
C609 C610 1.396 . S
C609 C614 1.390 . S
C610 C604 1.465 . S
C610 C609 1.396 . S
C610 C611 1.399 . S
C611 H597 0.929 . S
C611 C610 1.399 . S
C611 C612 1.385 . S
C612 H598 0.931 . S
C612 C611 1.385 . S
C612 C613 1.389 . S
C613 C612 1.389 . S
C613 C614 1.387 . S
C614 H599 0.930 . S
C614 C609 1.390 . S
C614 C613 1.387 . S
H615 C627 0.930 . S
H616 C629 0.930 . S
H617 C630 0.930 . S
H618 C634 0.959 . S
H619 C634 0.959 . S
H620 C634 0.961 . S
H621 C635 0.960 . S
H622 C635 0.961 . S
H623 C635 0.959 . S
H624 C638 0.929 . S
H625 C639 0.931 . S
H626 C641 0.930 . S
C627 H615 0.930 . S
C627 C628 1.399 . S
C627 C632 1.399 . S
C628 C627 1.399 . S
C628 C629 1.376 . S
C629 H616 0.930 . S
C629 C628 1.376 . S
C629 C630 1.388 . S
C630 H617 0.930 . S
C630 C629 1.388 . S
C630 C631 1.390 . S
C631 C630 1.390 . S
C631 C632 1.394 . S
C631 C637 1.465 . S
C632 C627 1.399 . S
C632 C631 1.394 . S
C632 C633 1.516 . S
C633 C632 1.516 . S
C633 C634 1.502 . S
C633 C635 1.561 . S
C633 C636 1.526 . S
C634 H618 0.959 . S
C634 H619 0.959 . S
C634 H620 0.961 . S
C634 C633 1.502 . S
C635 H621 0.960 . S
C635 H622 0.961 . S
C635 H623 0.959 . S
C635 C633 1.561 . S
C636 C633 1.526 . S
C636 C637 1.396 . S
C636 C641 1.390 . S
C637 C631 1.465 . S
C637 C636 1.396 . S
C637 C638 1.399 . S
C638 H624 0.929 . S
C638 C637 1.399 . S
C638 C639 1.385 . S
C639 H625 0.931 . S
C639 C638 1.385 . S
C639 C640 1.389 . S
C640 C639 1.389 . S
C640 C641 1.387 . S
C641 H626 0.930 . S
C641 C636 1.390 . S
C641 C640 1.387 . S
H642 C654 0.930 . S
H643 C656 0.930 . S
H644 C657 0.930 . S
H645 C661 0.959 . S
H646 C661 0.959 1_554 S
H647 C661 0.961 . S
H648 C662 0.960 . S
H649 C662 0.961 . S
H650 C662 0.959 . S
H651 C665 0.929 . S
H652 C666 0.931 . S
H653 C668 0.930 . S
C654 H642 0.930 . S
C654 C655 1.399 . S
C654 C659 1.399 . S
C655 C654 1.399 . S
C655 C656 1.376 . S
C656 H643 0.930 . S
C656 C655 1.376 . S
C656 C657 1.388 . S
C657 H644 0.930 . S
C657 C656 1.388 . S
C657 C658 1.390 . S
C658 C657 1.390 . S
C658 C659 1.394 . S
C658 C664 1.465 . S
C659 C654 1.399 . S
C659 C658 1.394 . S
C659 C660 1.516 . S
C660 C659 1.516 . S
C660 C661 1.502 . S
C660 C662 1.561 . S
C660 C663 1.526 . S
C661 H645 0.959 . S
C661 H646 0.959 1_556 S
C661 H647 0.961 . S
C661 C660 1.502 . S
C662 H648 0.960 . S
C662 H649 0.961 . S
C662 H650 0.959 . S
C662 C660 1.561 . S
C663 C660 1.526 . S
C663 C664 1.396 . S
C663 C668 1.390 . S
C664 C658 1.465 . S
C664 C663 1.396 . S
C664 C665 1.399 . S
C665 H651 0.929 . S
C665 C664 1.399 . S
C665 C666 1.385 . S
C666 H652 0.931 . S
C666 C665 1.385 . S
C666 C667 1.389 . S
C667 C666 1.389 . S
C667 C668 1.387 . S
C668 H653 0.930 . S
C668 C663 1.390 . S
C668 C667 1.387 . S
H669 C681 0.930 . S
H670 C683 0.930 . S
H671 C684 0.930 . S
H672 C688 0.959 . S
H673 C688 0.959 . S
H674 C688 0.961 . S
H675 C689 0.960 . S
H676 C689 0.961 . S
H677 C689 0.959 . S
H678 C692 0.929 . S
H679 C693 0.931 . S
H680 C695 0.930 . S
C681 H669 0.930 . S
C681 C682 1.399 . S
C681 C686 1.399 . S
C682 C681 1.399 . S
C682 C683 1.376 . S
C683 H670 0.930 . S
C683 C682 1.376 . S
C683 C684 1.388 . S
C684 H671 0.930 . S
C684 C683 1.388 . S
C684 C685 1.390 . S
C685 C684 1.390 . S
C685 C686 1.394 . S
C685 C691 1.465 . S
C686 C681 1.399 . S
C686 C685 1.394 . S
C686 C687 1.516 . S
C687 C686 1.516 . S
C687 C688 1.502 . S
C687 C689 1.561 . S
C687 C690 1.526 . S
C688 H672 0.959 . S
C688 H673 0.959 . S
C688 H674 0.961 . S
C688 C687 1.502 . S
C689 H675 0.960 . S
C689 H676 0.961 . S
C689 H677 0.959 . S
C689 C687 1.561 . S
C690 C687 1.526 . S
C690 C691 1.396 . S
C690 C695 1.390 . S
C691 C685 1.465 . S
C691 C690 1.396 . S
C691 C692 1.399 . S
C692 H678 0.929 . S
C692 C691 1.399 . S
C692 C693 1.385 . S
C693 H679 0.931 . S
C693 C692 1.385 . S
C693 C694 1.389 . S
C694 C693 1.389 . S
C694 C695 1.387 . S
C695 H680 0.930 . S
C695 C690 1.390 . S
C695 C694 1.387 . S
H696 C708 0.930 . S
H697 C710 0.930 . S
H698 C711 0.930 . S
H699 C715 0.959 . S
H700 C715 0.959 . S
H701 C715 0.961 . S
H702 C716 0.960 . S
H703 C716 0.961 . S
H704 C716 0.959 . S
H705 C719 0.929 . S
H706 C720 0.931 . S
H707 C722 0.930 . S
C708 H696 0.930 . S
C708 C709 1.399 . S
C708 C713 1.399 . S
C709 C708 1.399 . S
C709 C710 1.376 . S
C710 H697 0.930 . S
C710 C709 1.376 . S
C710 C711 1.388 . S
C711 H698 0.930 . S
C711 C710 1.388 . S
C711 C712 1.390 . S
C712 C711 1.390 . S
C712 C713 1.394 . S
C712 C718 1.465 . S
C713 C708 1.399 . S
C713 C712 1.394 . S
C713 C714 1.516 . S
C714 C713 1.516 . S
C714 C715 1.502 . S
C714 C716 1.561 . S
C714 C717 1.526 . S
C715 H699 0.959 . S
C715 H700 0.959 . S
C715 H701 0.961 . S
C715 C714 1.502 . S
C716 H702 0.960 . S
C716 H703 0.961 . S
C716 H704 0.959 . S
C716 C714 1.561 . S
C717 C714 1.526 . S
C717 C718 1.396 . S
C717 C722 1.390 . S
C718 C712 1.465 . S
C718 C717 1.396 . S
C718 C719 1.399 . S
C719 H705 0.929 . S
C719 C718 1.399 . S
C719 C720 1.385 . S
C720 H706 0.931 . S
C720 C719 1.385 . S
C720 C721 1.389 . S
C721 C720 1.389 . S
C721 C722 1.387 . S
C722 H707 0.930 . S
C722 C717 1.390 . S
C722 C721 1.387 . S
H723 C735 0.930 . S
H724 C737 0.930 . S
H725 C738 0.930 . S
H726 C742 0.959 . S
H727 C742 0.959 . S
H728 C742 0.961 . S
H729 C743 0.960 . S
H730 C743 0.961 . S
H731 C743 0.959 . S
H732 C746 0.929 . S
H733 C747 0.931 . S
H734 C749 0.948 . S
C735 H723 0.930 . S
C735 C736 1.399 . S
C735 C740 1.399 . S
C736 C735 1.399 . S
C736 C737 1.376 . S
C737 H724 0.930 . S
C737 C736 1.376 . S
C737 C738 1.388 . S
C738 H725 0.930 . S
C738 C737 1.388 . S
C738 C739 1.390 . S
C739 C738 1.390 . S
C739 C740 1.394 . S
C739 C745 1.465 . S
C740 C735 1.399 . S
C740 C739 1.394 . S
C740 C741 1.516 . S
C741 C740 1.516 . S
C741 C742 1.502 1_455 S
C741 C743 1.561 . S
C741 C744 1.526 . S
C742 H726 0.959 . S
C742 H727 0.959 . S
C742 H728 0.961 . S
C742 C741 1.502 1_655 S
C743 H729 0.960 . S
C743 H730 0.961 . S
C743 H731 0.959 . S
C743 C741 1.561 . S
C744 C741 1.526 . S
C744 C745 1.396 . S
C744 C749 1.390 . S
C745 C739 1.465 . S
C745 C744 1.396 . S
C745 C746 1.399 . S
C746 H732 0.929 . S
C746 C745 1.399 . S
C746 C747 1.385 . S
C747 H733 0.931 . S
C747 C746 1.385 . S
C747 C748 1.389 . S
C748 C747 1.389 . S
C748 C749 1.387 . S
C749 H734 0.948 . S
C749 C744 1.390 . S
C749 C748 1.387 . S
H750 C762 0.930 1_455 S
H751 C764 0.930 . S
H752 C765 0.930 . S
H753 C769 0.959 1_655 S
H754 C769 0.959 . S
H755 C769 0.961 . S
H756 C770 0.960 1_455 S
H757 C770 0.961 1_455 S
H758 C770 0.959 . S
H759 C773 0.929 . S
H760 C774 0.931 . S
H761 C776 0.930 . S
C762 H750 0.930 1_655 S
C762 C763 1.399 . S
C762 C767 1.399 . S
C763 C762 1.399 . S
C763 C764 1.376 . S
C764 H751 0.930 . S
C764 C763 1.376 . S
C764 C765 1.388 . S
C765 H752 0.930 . S
C765 C764 1.388 . S
C765 C766 1.390 . S
C766 C765 1.390 . S
C766 C767 1.394 . S
C766 C772 1.465 . S
C767 C762 1.399 . S
C767 C766 1.394 . S
C767 C768 1.516 . S
C768 C767 1.516 . S
C768 C769 1.502 1_655 S
C768 C770 1.561 . S
C768 C771 1.526 . S
C769 H753 0.959 1_455 S
C769 H754 0.959 . S
C769 H755 0.961 . S
C769 C768 1.502 1_455 S
C770 H756 0.960 1_655 S
C770 H757 0.961 1_655 S
C770 H758 0.959 . S
C770 C768 1.561 . S
C771 C768 1.526 . S
C771 C772 1.396 . S
C771 C776 1.390 . S
C772 C766 1.465 . S
C772 C771 1.396 . S
C772 C773 1.399 . S
C773 H759 0.929 . S
C773 C772 1.399 . S
C773 C774 1.385 . S
C774 H760 0.931 . S
C774 C773 1.385 . S
C774 C775 1.389 . S
C775 C774 1.389 . S
C775 C776 1.387 . S
C776 H761 0.930 . S
C776 C771 1.390 . S
C776 C775 1.387 . S
H777 C789 0.930 . S
H778 C791 0.930 . S
H779 C792 0.930 . S
H780 C796 0.959 . S
H781 C796 0.959 . S
H782 C796 0.961 . S
H783 C797 0.960 . S
H784 C797 0.961 . S
H785 C797 0.959 . S
H786 C800 0.929 . S
H787 C801 0.931 . S
H788 C803 0.930 . S
C789 H777 0.930 . S
C789 C790 1.399 . S
C789 C794 1.399 . S
C790 C789 1.399 . S
C790 C791 1.376 . S
C791 H778 0.930 . S
C791 C790 1.376 . S
C791 C792 1.388 . S
C792 H779 0.930 . S
C792 C791 1.388 . S
C792 C793 1.390 . S
C793 C792 1.390 . S
C793 C794 1.394 . S
C793 C799 1.465 . S
C794 C789 1.399 . S
C794 C793 1.394 . S
C794 C795 1.516 . S
C795 C794 1.516 . S
C795 C796 1.502 . S
C795 C797 1.561 . S
C795 C798 1.526 . S
C796 H780 0.959 . S
C796 H781 0.959 . S
C796 H782 0.961 . S
C796 C795 1.502 . S
C797 H783 0.960 . S
C797 H784 0.961 . S
C797 H785 0.959 . S
C797 C795 1.561 . S
C798 C795 1.526 . S
C798 C799 1.396 . S
C798 C803 1.390 . S
C799 C793 1.465 . S
C799 C798 1.396 . S
C799 C800 1.399 . S
C800 H786 0.929 . S
C800 C799 1.399 . S
C800 C801 1.385 . S
C801 H787 0.931 . S
C801 C800 1.385 . S
C801 C802 1.389 . S
C802 C801 1.389 . S
C802 C803 1.387 . S
C803 H788 0.930 . S
C803 C798 1.390 . S
C803 C802 1.387 . S
H804 C816 0.930 . S
H805 C818 0.930 . S
H806 C819 0.930 . S
H807 C823 0.959 . S
H808 C823 0.959 . S
H809 C823 0.961 . S
H810 C824 0.960 . S
H811 C824 0.961 . S
H812 C824 0.959 . S
H813 C827 0.929 . S
H814 C828 0.931 . S
H815 C830 0.930 . S
C816 H804 0.930 . S
C816 C817 1.399 . S
C816 C821 1.399 . S
C817 C816 1.399 . S
C817 C818 1.376 . S
C818 H805 0.930 . S
C818 C817 1.376 . S
C818 C819 1.388 . S
C819 H806 0.930 . S
C819 C818 1.388 . S
C819 C820 1.390 . S
C820 C819 1.390 . S
C820 C821 1.394 . S
C820 C826 1.465 . S
C821 C816 1.399 . S
C821 C820 1.394 . S
C821 C822 1.516 . S
C822 C821 1.516 . S
C822 C823 1.502 . S
C822 C824 1.561 . S
C822 C825 1.526 . S
C823 H807 0.959 . S
C823 H808 0.959 . S
C823 H809 0.961 . S
C823 C822 1.502 . S
C824 H810 0.960 . S
C824 H811 0.961 . S
C824 H812 0.959 . S
C824 C822 1.561 . S
C825 C822 1.526 . S
C825 C826 1.396 . S
C825 C830 1.390 . S
C826 C820 1.465 . S
C826 C825 1.396 . S
C826 C827 1.399 . S
C827 H813 0.929 . S
C827 C826 1.399 . S
C827 C828 1.385 . S
C828 H814 0.931 . S
C828 C827 1.385 . S
C828 C829 1.389 . S
C829 C828 1.389 . S
C829 C830 1.387 . S
C830 H815 0.930 . S
C830 C825 1.390 . S
C830 C829 1.387 . S
H831 C843 0.930 . S
H832 C845 0.930 . S
H833 C846 0.930 . S
H834 C850 0.959 . S
H835 C850 0.959 . S
H836 C850 0.961 . S
H837 C851 0.960 . S
H838 C851 0.961 . S
H839 C851 0.959 . S
H840 C854 0.929 1_545 S
H841 C855 0.914 1_545 S
H842 C857 0.930 . S
C843 H831 0.930 . S
C843 C844 1.399 . S
C843 C848 1.399 . S
C844 C843 1.399 . S
C844 C845 1.376 . S
C845 H832 0.930 . S
C845 C844 1.376 . S
C845 C846 1.388 . S
C846 H833 0.930 . S
C846 C845 1.388 . S
C846 C847 1.390 . S
C847 C846 1.390 . S
C847 C848 1.394 . S
C847 C853 1.465 . S
C848 C843 1.399 . S
C848 C847 1.394 . S
C848 C849 1.516 . S
C849 C848 1.516 . S
C849 C850 1.502 . S
C849 C851 1.561 . S
C849 C852 1.526 . S
C850 H834 0.959 . S
C850 H835 0.959 . S
C850 H836 0.961 . S
C850 C849 1.502 . S
C851 H837 0.960 . S
C851 H838 0.961 . S
C851 H839 0.959 . S
C851 C849 1.561 . S
C852 C849 1.526 . S
C852 C853 1.396 . S
C852 C857 1.390 . S
C853 C847 1.465 . S
C853 C852 1.396 . S
C853 C854 1.399 . S
C854 H840 0.929 1_565 S
C854 C853 1.399 . S
C854 C855 1.389 . S
C855 H841 0.914 1_565 S
C855 C854 1.389 . S
C855 C856 1.403 . S
C856 C855 1.403 . S
C856 C857 1.387 . S
C857 H842 0.930 . S
C857 C852 1.390 . S
C857 C856 1.387 . S
H858 C870 0.930 . S
H859 C872 0.930 . S
H860 C873 0.930 . S
H861 C877 0.959 . S
H862 C877 0.959 . S
H863 C877 0.961 . S
H864 C878 0.960 . S
H865 C878 0.961 . S
H866 C878 0.959 . S
H867 C881 0.929 . S
H868 C882 0.931 . S
H869 C884 0.930 . S
C870 H858 0.930 . S
C870 C871 1.399 . S
C870 C875 1.399 . S
C871 C870 1.399 . S
C871 C872 1.376 . S
C872 H859 0.930 . S
C872 C871 1.376 . S
C872 C873 1.388 . S
C873 H860 0.930 . S
C873 C872 1.388 . S
C873 C874 1.390 . S
C874 C873 1.390 . S
C874 C875 1.394 . S
C874 C880 1.465 . S
C875 C870 1.399 . S
C875 C874 1.394 . S
C875 C876 1.516 . S
C876 C875 1.516 . S
C876 C877 1.502 . S
C876 C878 1.561 . S
C876 C879 1.526 . S
C877 H861 0.959 . S
C877 H862 0.959 . S
C877 H863 0.961 . S
C877 C876 1.502 . S
C878 H864 0.960 . S
C878 H865 0.961 . S
C878 H866 0.959 . S
C878 C876 1.561 . S
C879 C876 1.526 . S
C879 C880 1.396 . S
C879 C884 1.390 . S
C880 C874 1.465 . S
C880 C879 1.396 . S
C880 C881 1.399 . S
C881 H867 0.929 . S
C881 C880 1.399 . S
C881 C882 1.385 . S
C882 H868 0.931 . S
C882 C881 1.385 . S
C882 C883 1.389 . S
C883 C882 1.389 . S
C883 C884 1.387 . S
C884 H869 0.930 . S
C884 C879 1.390 . S
C884 C883 1.387 . S
H885 C897 0.930 . S
H886 C899 0.930 . S
H887 C900 0.930 . S
H888 C904 0.959 . S
H889 C904 0.959 . S
H890 C904 0.961 . S
H891 C905 0.960 . S
H892 C905 0.961 . S
H893 C905 0.959 . S
H894 C908 0.929 . S
H895 C909 0.932 . S
H896 C911 0.930 . S
C897 H885 0.930 . S
C897 C898 1.399 . S
C897 C902 1.399 1_554 S
C898 C897 1.399 . S
C898 C899 1.376 . S
C899 H886 0.930 . S
C899 C898 1.376 . S
C899 C900 1.388 . S
C900 H887 0.930 . S
C900 C899 1.388 . S
C900 C901 1.393 1_554 S
C901 C900 1.393 1_556 S
C901 C902 1.393 . S
C901 C907 1.462 . S
C902 C897 1.399 1_556 S
C902 C901 1.393 . S
C902 C903 1.516 . S
C903 C902 1.516 . S
C903 C904 1.502 . S
C903 C905 1.561 . S
C903 C906 1.526 . S
C904 H888 0.959 . S
C904 H889 0.959 . S
C904 H890 0.961 . S
C904 C903 1.502 . S
C905 H891 0.960 . S
C905 H892 0.961 . S
C905 H893 0.959 . S
C905 C903 1.561 . S
C906 C903 1.526 . S
C906 C907 1.396 . S
C906 C911 1.390 . S
C907 C901 1.462 . S
C907 C906 1.396 . S
C907 C908 1.399 . S
C908 H894 0.929 . S
C908 C907 1.399 . S
C908 C909 1.385 . S
C909 H895 0.932 . S
C909 C908 1.385 . S
C909 C910 1.389 . S
C910 C909 1.389 . S
C910 C911 1.387 . S
C911 H896 0.930 . S
C911 C906 1.390 . S
C911 C910 1.387 . S
H912 C924 0.930 . S
H913 C926 0.930 . S
H914 C927 0.930 . S
H915 C931 0.959 . S
H916 C931 0.959 . S
H917 C931 0.961 . S
H918 C932 0.960 . S
H919 C932 0.961 . S
H920 C932 0.959 . S
H921 C935 0.929 . S
H922 C936 0.931 . S
H923 C938 0.930 . S
C924 H912 0.930 . S
C924 C925 1.399 . S
C924 C929 1.399 . S
C925 C924 1.399 . S
C925 C926 1.376 . S
C926 H913 0.930 . S
C926 C925 1.376 . S
C926 C927 1.388 . S
C927 H914 0.930 . S
C927 C926 1.388 . S
C927 C928 1.390 . S
C928 C927 1.390 . S
C928 C929 1.394 . S
C928 C934 1.465 . S
C929 C924 1.399 . S
C929 C928 1.394 . S
C929 C930 1.516 . S
C930 C929 1.516 . S
C930 C931 1.502 . S
C930 C932 1.561 . S
C930 C933 1.526 . S
C931 H915 0.959 . S
C931 H916 0.959 . S
C931 H917 0.961 . S
C931 C930 1.502 . S
C932 H918 0.960 . S
C932 H919 0.961 . S
C932 H920 0.959 . S
C932 C930 1.561 . S
C933 C930 1.526 . S
C933 C934 1.396 . S
C933 C938 1.390 . S
C934 C928 1.465 . S
C934 C933 1.396 . S
C934 C935 1.399 . S
C935 H921 0.929 . S
C935 C934 1.399 . S
C935 C936 1.385 . S
C936 H922 0.931 . S
C936 C935 1.385 . S
C936 C937 1.389 . S
C937 C936 1.389 . S
C937 C938 1.387 . S
C938 H923 0.930 . S
C938 C933 1.390 . S
C938 C937 1.387 . S
H939 C951 0.930 . S
H940 C953 0.930 . S
H941 C954 0.930 . S
H942 C958 0.959 . S
H943 C958 0.959 . S
H944 C958 0.961 . S
H945 C959 0.964 1_554 S
H946 C959 0.961 . S
H947 C959 0.959 . S
H948 C962 0.929 . S
H949 C963 0.931 . S
H950 C965 0.930 . S
C951 H939 0.930 . S
C951 C952 1.399 . S
C951 C956 1.399 1_554 S
C952 C951 1.399 . S
C952 C953 1.376 . S
C953 H940 0.930 . S
C953 C952 1.376 . S
C953 C954 1.388 1_554 S
C954 H941 0.930 . S
C954 C953 1.388 1_556 S
C954 C955 1.390 . S
C955 C954 1.390 . S
C955 C956 1.394 . S
C955 C961 1.465 . S
C956 C951 1.399 1_556 S
C956 C955 1.394 . S
C956 C957 1.516 . S
C957 C956 1.516 . S
C957 C958 1.502 . S
C957 C959 1.561 . S
C957 C960 1.526 . S
C958 H942 0.959 . S
C958 H943 0.959 . S
C958 H944 0.961 . S
C958 C957 1.502 . S
C959 H945 0.964 1_556 S
C959 H946 0.961 . S
C959 H947 0.959 . S
C959 C957 1.561 . S
C960 C957 1.526 . S
C960 C961 1.396 . S
C960 C965 1.390 . S
C961 C955 1.465 . S
C961 C960 1.396 . S
C961 C962 1.399 . S
C962 H948 0.929 . S
C962 C961 1.399 . S
C962 C963 1.385 . S
C963 H949 0.931 . S
C963 C962 1.385 . S
C963 C964 1.389 . S
C964 C963 1.389 . S
C964 C965 1.387 . S
C965 H950 0.930 . S
C965 C960 1.390 . S
C965 C964 1.387 . S
H966 C978 0.930 . S
H967 C980 0.930 . S
H968 C981 0.930 . S
H969 C985 0.959 . S
H970 C985 0.959 . S
H971 C985 0.961 . S
H972 C986 0.960 . S
H973 C986 0.961 . S
H974 C986 0.959 . S
H975 C989 0.929 . S
H976 C990 0.931 . S
H977 C992 0.930 . S
C978 H966 0.930 . S
C978 C979 1.399 . S
C978 C983 1.399 . S
C979 C978 1.399 . S
C979 C980 1.376 . S
C980 H967 0.930 . S
C980 C979 1.376 . S
C980 C981 1.388 . S
C981 H968 0.930 . S
C981 C980 1.388 . S
C981 C982 1.390 . S
C982 C981 1.390 . S
C982 C983 1.394 . S
C982 C988 1.465 . S
C983 C978 1.399 . S
C983 C982 1.394 . S
C983 C984 1.516 . S
C984 C983 1.516 . S
C984 C985 1.502 . S
C984 C986 1.561 . S
C984 C987 1.526 . S
C985 H969 0.959 . S
C985 H970 0.959 . S
C985 H971 0.961 . S
C985 C984 1.502 . S
C986 H972 0.960 . S
C986 H973 0.961 . S
C986 H974 0.959 . S
C986 C984 1.561 . S
C987 C984 1.526 . S
C987 C988 1.396 . S
C987 C992 1.390 . S
C988 C982 1.465 . S
C988 C987 1.396 . S
C988 C989 1.399 . S
C989 H975 0.929 . S
C989 C988 1.399 . S
C989 C990 1.385 . S
C990 H976 0.931 . S
C990 C989 1.385 . S
C990 C991 1.389 . S
C991 C990 1.389 . S
C991 C992 1.387 . S
C992 H977 0.930 . S
C992 C987 1.390 . S
C992 C991 1.387 . S
H993 C1005 0.930 . S
H994 C1007 0.930 . S
H995 C1008 0.930 . S
H996 C1012 0.959 . S
H997 C1012 0.959 . S
H998 C1012 0.961 . S
H999 C1013 0.960 . S
H1000 C1013 0.961 . S
H1001 C1013 0.959 . S
H1002 C1016 0.929 . S
H1003 C1017 0.931 . S
H1004 C1019 0.930 . S
C1005 H993 0.930 . S
C1005 C1006 1.399 . S
C1005 C1010 1.399 . S
C1006 C1005 1.399 . S
C1006 C1007 1.376 . S
C1007 H994 0.930 . S
C1007 C1006 1.376 . S
C1007 C1008 1.388 . S
C1008 H995 0.930 . S
C1008 C1007 1.388 . S
C1008 C1009 1.390 . S
C1009 C1008 1.390 . S
C1009 C1010 1.394 . S
C1009 C1015 1.465 . S
C1010 C1005 1.399 . S
C1010 C1009 1.394 . S
C1010 C1011 1.516 . S
C1011 C1010 1.516 . S
C1011 C1012 1.502 . S
C1011 C1013 1.561 . S
C1011 C1014 1.526 . S
C1012 H996 0.959 . S
C1012 H997 0.959 . S
C1012 H998 0.961 . S
C1012 C1011 1.502 . S
C1013 H999 0.960 . S
C1013 H1000 0.961 . S
C1013 H1001 0.959 . S
C1013 C1011 1.561 . S
C1014 C1011 1.526 . S
C1014 C1015 1.396 . S
C1014 C1019 1.390 . S
C1015 C1009 1.465 . S
C1015 C1014 1.396 . S
C1015 C1016 1.399 . S
C1016 H1002 0.929 . S
C1016 C1015 1.399 . S
C1016 C1017 1.385 . S
C1017 H1003 0.931 . S
C1017 C1016 1.385 . S
C1017 C1018 1.389 . S
C1018 C1017 1.389 . S
C1018 C1019 1.387 . S
C1019 H1004 0.930 . S
C1019 C1014 1.390 . S
C1019 C1018 1.387 . S
H1020 C1032 0.930 . S
H1021 C1034 0.930 . S
H1022 C1035 0.930 . S
H1023 C1039 0.959 . S
H1024 C1039 0.959 . S
H1025 C1039 0.961 . S
H1026 C1040 0.960 . S
H1027 C1040 0.961 . S
H1028 C1040 0.959 . S
H1029 C1043 0.929 . S
H1030 C1044 0.931 . S
H1031 C1046 0.930 . S
C1032 H1020 0.930 . S
C1032 C1033 1.399 . S
C1032 C1037 1.399 . S
C1033 C1032 1.399 . S
C1033 C1034 1.376 . S
C1034 H1021 0.930 . S
C1034 C1033 1.376 . S
C1034 C1035 1.388 . S
C1035 H1022 0.930 . S
C1035 C1034 1.388 . S
C1035 C1036 1.390 . S
C1036 C1035 1.390 . S
C1036 C1037 1.394 . S
C1036 C1042 1.465 . S
C1037 C1032 1.399 . S
C1037 C1036 1.394 . S
C1037 C1038 1.516 . S
C1038 C1037 1.516 . S
C1038 C1039 1.502 . S
C1038 C1040 1.561 . S
C1038 C1041 1.526 . S
C1039 H1023 0.959 . S
C1039 H1024 0.959 . S
C1039 H1025 0.961 . S
C1039 C1038 1.502 . S
C1040 H1026 0.960 . S
C1040 H1027 0.961 . S
C1040 H1028 0.959 . S
C1040 C1038 1.561 . S
C1041 C1038 1.526 . S
C1041 C1042 1.396 . S
C1041 C1046 1.390 . S
C1042 C1036 1.465 . S
C1042 C1041 1.396 . S
C1042 C1043 1.399 . S
C1043 H1029 0.929 . S
C1043 C1042 1.399 . S
C1043 C1044 1.385 . S
C1044 H1030 0.931 . S
C1044 C1043 1.385 . S
C1044 C1045 1.389 . S
C1045 C1044 1.389 . S
C1045 C1046 1.387 . S
C1046 H1031 0.930 . S
C1046 C1041 1.390 . S
C1046 C1045 1.387 . S
H1047 C1059 0.930 . S
H1048 C1061 0.930 . S
H1049 C1062 0.930 . S
H1050 C1066 0.959 1_645 S
H1051 C1066 0.959 1_655 S
H1052 C1066 0.961 1_545 S
H1053 C1067 0.960 . S
H1054 C1067 0.961 . S
H1055 C1067 0.959 . S
H1056 C1070 0.929 . S
H1057 C1071 0.931 . S
H1058 C1073 0.930 . S
C1059 H1047 0.930 . S
C1059 C1060 1.399 . S
C1059 C1064 1.399 . S
C1060 C1059 1.399 . S
C1060 C1061 1.376 . S
C1061 H1048 0.930 . S
C1061 C1060 1.376 . S
C1061 C1062 1.388 . S
C1062 H1049 0.930 . S
C1062 C1061 1.388 . S
C1062 C1063 1.390 . S
C1063 C1062 1.390 . S
C1063 C1064 1.394 . S
C1063 C1069 1.465 1_545 S
C1064 C1059 1.399 . S
C1064 C1063 1.394 . S
C1064 C1065 1.516 1_545 S
C1065 C1064 1.516 1_565 S
C1065 C1066 1.502 . S
C1065 C1067 1.561 . S
C1065 C1068 1.526 . S
C1066 H1050 0.959 1_465 S
C1066 H1051 0.959 1_455 S
C1066 H1052 0.961 1_565 S
C1066 C1065 1.502 . S
C1067 H1053 0.960 . S
C1067 H1054 0.961 . S
C1067 H1055 0.959 . S
C1067 C1065 1.561 . S
C1068 C1065 1.526 . S
C1068 C1069 1.396 . S
C1068 C1073 1.390 . S
C1069 C1063 1.465 1_565 S
C1069 C1068 1.396 . S
C1069 C1070 1.399 . S
C1070 H1056 0.929 . S
C1070 C1069 1.399 . S
C1070 C1071 1.385 . S
C1071 H1057 0.931 . S
C1071 C1070 1.385 . S
C1071 C1072 1.389 . S
C1072 C1071 1.389 . S
C1072 C1073 1.387 . S
C1073 H1058 0.930 . S
C1073 C1068 1.390 . S
C1073 C1072 1.387 . S
H1074 C1086 0.930 . S
H1075 C1088 0.930 . S
H1076 C1089 0.930 . S
H1077 C1093 0.959 . S
H1078 C1093 0.959 . S
H1079 C1093 0.961 . S
H1080 C1094 0.960 . S
H1081 C1094 0.961 . S
H1082 C1094 0.959 . S
H1083 C1097 0.929 . S
H1084 C1098 0.931 . S
H1085 C1100 0.930 . S
C1086 H1074 0.930 . S
C1086 C1087 1.399 . S
C1086 C1091 1.399 . S
C1087 C1086 1.399 . S
C1087 C1088 1.376 . S
C1088 H1075 0.930 . S
C1088 C1087 1.376 . S
C1088 C1089 1.388 . S
C1089 H1076 0.930 . S
C1089 C1088 1.388 . S
C1089 C1090 1.390 . S
C1090 C1089 1.390 . S
C1090 C1091 1.394 . S
C1090 C1096 1.465 . S
C1091 C1086 1.399 . S
C1091 C1090 1.394 . S
C1091 C1092 1.516 . S
C1092 C1091 1.516 . S
C1092 C1093 1.502 . S
C1092 C1094 1.561 . S
C1092 C1095 1.526 . S
C1093 H1077 0.959 . S
C1093 H1078 0.959 . S
C1093 H1079 0.961 . S
C1093 C1092 1.502 . S
C1094 H1080 0.960 . S
C1094 H1081 0.961 . S
C1094 H1082 0.959 . S
C1094 C1092 1.561 . S
C1095 C1092 1.526 . S
C1095 C1096 1.396 . S
C1095 C1100 1.390 . S
C1096 C1090 1.465 . S
C1096 C1095 1.396 . S
C1096 C1097 1.399 . S
C1097 H1083 0.929 . S
C1097 C1096 1.399 . S
C1097 C1098 1.385 . S
C1098 H1084 0.931 . S
C1098 C1097 1.385 . S
C1098 C1099 1.389 . S
C1099 C1098 1.389 . S
C1099 C1100 1.387 . S
C1100 H1085 0.930 . S
C1100 C1095 1.390 . S
C1100 C1099 1.387 . S
H1101 C1113 0.930 . S
H1102 C1115 0.930 . S
H1103 C1116 0.930 . S
H1104 C1120 0.959 . S
H1105 C1120 0.959 . S
H1106 C1120 0.961 . S
H1107 C1121 0.960 . S
H1108 C1121 0.961 . S
H1109 C1121 0.959 . S
H1110 C1124 0.929 . S
H1111 C1125 0.931 . S
H1112 C1127 0.930 . S
C1113 H1101 0.930 . S
C1113 C1114 1.399 . S
C1113 C1118 1.399 . S
C1114 C1113 1.399 . S
C1114 C1115 1.376 . S
C1115 H1102 0.930 . S
C1115 C1114 1.376 . S
C1115 C1116 1.388 . S
C1116 H1103 0.930 . S
C1116 C1115 1.388 . S
C1116 C1117 1.390 . S
C1117 C1116 1.390 . S
C1117 C1118 1.394 . S
C1117 C1123 1.465 1_545 S
C1118 C1113 1.399 . S
C1118 C1117 1.394 . S
C1118 C1119 1.516 1_545 S
C1119 C1118 1.516 1_565 S
C1119 C1120 1.502 . S
C1119 C1121 1.561 . S
C1119 C1122 1.526 . S
C1120 H1104 0.959 . S
C1120 H1105 0.959 . S
C1120 H1106 0.961 . S
C1120 C1119 1.502 . S
C1121 H1107 0.960 . S
C1121 H1108 0.961 . S
C1121 H1109 0.959 . S
C1121 C1119 1.561 . S
C1122 C1119 1.526 . S
C1122 C1123 1.396 . S
C1122 C1127 1.390 . S
C1123 C1117 1.465 1_565 S
C1123 C1122 1.396 . S
C1123 C1124 1.399 . S
C1124 H1110 0.929 . S
C1124 C1123 1.399 . S
C1124 C1125 1.385 . S
C1125 H1111 0.931 . S
C1125 C1124 1.385 . S
C1125 C1126 1.389 . S
C1126 C1125 1.389 . S
C1126 C1127 1.387 . S
C1127 H1112 0.930 . S
C1127 C1122 1.390 . S
C1127 C1126 1.387 . S
H1128 C1140 0.930 . S
H1129 C1142 0.930 . S
H1130 C1143 0.930 . S
H1131 C1147 0.959 . S
H1132 C1147 0.959 . S
H1133 C1147 0.961 . S
H1134 C1148 0.960 . S
H1135 C1148 0.961 . S
H1136 C1148 0.959 . S
H1137 C1151 0.929 . S
H1138 C1152 0.931 . S
H1139 C1154 0.930 . S
C1140 H1128 0.930 . S
C1140 C1141 1.399 . S
C1140 C1145 1.399 . S
C1141 C1140 1.399 . S
C1141 C1142 1.376 . S
C1142 H1129 0.930 . S
C1142 C1141 1.376 . S
C1142 C1143 1.388 . S
C1143 H1130 0.930 . S
C1143 C1142 1.388 . S
C1143 C1144 1.390 . S
C1144 C1143 1.390 . S
C1144 C1145 1.394 . S
C1144 C1150 1.465 . S
C1145 C1140 1.399 . S
C1145 C1144 1.394 . S
C1145 C1146 1.516 . S
C1146 C1145 1.516 . S
C1146 C1147 1.502 . S
C1146 C1148 1.561 . S
C1146 C1149 1.526 . S
C1147 H1131 0.959 . S
C1147 H1132 0.959 . S
C1147 H1133 0.961 . S
C1147 C1146 1.502 . S
C1148 H1134 0.960 . S
C1148 H1135 0.961 . S
C1148 H1136 0.959 . S
C1148 C1146 1.561 . S
C1149 C1146 1.526 . S
C1149 C1150 1.396 . S
C1149 C1154 1.390 . S
C1150 C1144 1.465 . S
C1150 C1149 1.396 . S
C1150 C1151 1.399 . S
C1151 H1137 0.929 . S
C1151 C1150 1.399 . S
C1151 C1152 1.385 . S
C1152 H1138 0.931 . S
C1152 C1151 1.385 . S
C1152 C1153 1.389 . S
C1153 C1152 1.389 . S
C1153 C1154 1.387 . S
C1154 H1139 0.930 . S
C1154 C1149 1.390 . S
C1154 C1153 1.387 . S
H1155 C1167 0.930 . S
H1156 C1169 0.930 . S
H1157 C1170 0.930 . S
H1158 C1174 0.959 . S
H1159 C1174 0.959 . S
H1160 C1174 0.961 . S
H1161 C1175 0.960 . S
H1162 C1175 0.961 . S
H1163 C1175 0.959 . S
H1164 C1178 0.929 . S
H1165 C1179 0.931 . S
H1166 C1181 0.930 . S
C1167 H1155 0.930 . S
C1167 C1168 1.399 . S
C1167 C1172 1.399 . S
C1168 C1167 1.399 . S
C1168 C1169 1.376 . S
C1169 H1156 0.930 . S
C1169 C1168 1.376 . S
C1169 C1170 1.388 . S
C1170 H1157 0.930 . S
C1170 C1169 1.388 . S
C1170 C1171 1.390 . S
C1171 C1170 1.390 . S
C1171 C1172 1.394 . S
C1171 C1177 1.465 . S
C1172 C1167 1.399 . S
C1172 C1171 1.394 . S
C1172 C1173 1.516 . S
C1173 C1172 1.516 . S
C1173 C1174 1.502 . S
C1173 C1175 1.561 . S
C1173 C1176 1.526 . S
C1174 H1158 0.959 . S
C1174 H1159 0.959 . S
C1174 H1160 0.961 . S
C1174 C1173 1.502 . S
C1175 H1161 0.960 . S
C1175 H1162 0.961 . S
C1175 H1163 0.959 . S
C1175 C1173 1.561 . S
C1176 C1173 1.526 . S
C1176 C1177 1.396 . S
C1176 C1181 1.390 . S
C1177 C1171 1.465 . S
C1177 C1176 1.396 . S
C1177 C1178 1.399 . S
C1178 H1164 0.929 . S
C1178 C1177 1.399 . S
C1178 C1179 1.385 . S
C1179 H1165 0.931 . S
C1179 C1178 1.385 . S
C1179 C1180 1.389 . S
C1180 C1179 1.389 . S
C1180 C1181 1.387 . S
C1181 H1166 0.930 . S
C1181 C1176 1.390 . S
C1181 C1180 1.387 . S
H1182 C1194 0.930 . S
H1183 C1196 0.930 . S
H1184 C1197 0.930 . S
H1185 C1201 0.959 . S
H1186 C1201 0.959 . S
H1187 C1201 0.961 . S
H1188 C1202 0.960 . S
H1189 C1202 0.961 . S
H1190 C1202 0.959 . S
H1191 C1205 0.929 . S
H1192 C1206 0.931 . S
H1193 C1208 0.930 . S
C1194 H1182 0.930 . S
C1194 C1195 1.399 . S
C1194 C1199 1.399 . S
C1195 C1194 1.399 . S
C1195 C1196 1.376 . S
C1196 H1183 0.930 . S
C1196 C1195 1.376 . S
C1196 C1197 1.388 . S
C1197 H1184 0.930 . S
C1197 C1196 1.388 . S
C1197 C1198 1.390 . S
C1198 C1197 1.390 . S
C1198 C1199 1.394 . S
C1198 C1204 1.465 . S
C1199 C1194 1.399 . S
C1199 C1198 1.394 . S
C1199 C1200 1.516 . S
C1200 C1199 1.516 . S
C1200 C1201 1.502 . S
C1200 C1202 1.561 . S
C1200 C1203 1.526 . S
C1201 H1185 0.959 . S
C1201 H1186 0.959 . S
C1201 H1187 0.961 . S
C1201 C1200 1.502 . S
C1202 H1188 0.960 . S
C1202 H1189 0.961 . S
C1202 H1190 0.959 . S
C1202 C1200 1.561 . S
C1203 C1200 1.526 . S
C1203 C1204 1.396 . S
C1203 C1208 1.390 . S
C1204 C1198 1.465 . S
C1204 C1203 1.396 . S
C1204 C1205 1.399 . S
C1205 H1191 0.929 . S
C1205 C1204 1.399 . S
C1205 C1206 1.385 . S
C1206 H1192 0.931 . S
C1206 C1205 1.385 . S
C1206 C1207 1.389 . S
C1207 C1206 1.389 . S
C1207 C1208 1.387 . S
C1208 H1193 0.930 . S
C1208 C1203 1.390 . S
C1208 C1207 1.387 . S
H1209 C1221 0.930 . S
H1210 C1223 0.930 . S
H1211 C1224 0.930 . S
H1212 C1228 0.959 . S
H1213 C1228 0.959 . S
H1214 C1228 0.961 . S
H1215 C1229 0.960 . S
H1216 C1229 0.961 . S
H1217 C1229 0.959 . S
H1218 C1232 0.929 . S
H1219 C1233 0.931 . S
H1220 C1235 0.930 . S
C1221 H1209 0.930 . S
C1221 C1222 1.399 . S
C1221 C1226 1.399 . S
C1222 C1221 1.399 . S
C1222 C1223 1.376 . S
C1223 H1210 0.930 . S
C1223 C1222 1.376 . S
C1223 C1224 1.388 . S
C1224 H1211 0.930 . S
C1224 C1223 1.388 . S
C1224 C1225 1.390 . S
C1225 C1224 1.390 . S
C1225 C1226 1.394 . S
C1225 C1231 1.465 . S
C1226 C1221 1.399 . S
C1226 C1225 1.394 . S
C1226 C1227 1.516 . S
C1227 C1226 1.516 . S
C1227 C1228 1.502 . S
C1227 C1229 1.561 . S
C1227 C1230 1.526 . S
C1228 H1212 0.959 . S
C1228 H1213 0.959 . S
C1228 H1214 0.961 . S
C1228 C1227 1.502 . S
C1229 H1215 0.960 . S
C1229 H1216 0.961 . S
C1229 H1217 0.959 . S
C1229 C1227 1.561 . S
C1230 C1227 1.526 . S
C1230 C1231 1.396 . S
C1230 C1235 1.390 . S
C1231 C1225 1.465 . S
C1231 C1230 1.396 . S
C1231 C1232 1.399 . S
C1232 H1218 0.929 . S
C1232 C1231 1.399 . S
C1232 C1233 1.385 . S
C1233 H1219 0.931 . S
C1233 C1232 1.385 . S
C1233 C1234 1.389 . S
C1234 C1233 1.389 . S
C1234 C1235 1.387 . S
C1235 H1220 0.930 . S
C1235 C1230 1.390 . S
C1235 C1234 1.387 . S
H1236 C1248 0.930 . S
H1237 C1250 0.930 . S
H1238 C1251 0.930 . S
H1239 C1255 0.959 . S
H1240 C1255 0.959 . S
H1241 C1255 0.961 . S
H1242 C1256 0.960 . S
H1243 C1256 0.961 . S
H1244 C1256 0.959 . S
H1245 C1259 0.929 . S
H1246 C1260 0.931 . S
H1247 C1262 0.930 . S
C1248 H1236 0.930 . S
C1248 C1249 1.399 . S
C1248 C1253 1.399 . S
C1249 C1248 1.399 . S
C1249 C1250 1.376 . S
C1250 H1237 0.930 . S
C1250 C1249 1.376 . S
C1250 C1251 1.388 . S
C1251 H1238 0.930 . S
C1251 C1250 1.388 . S
C1251 C1252 1.390 . S
C1252 C1251 1.390 . S
C1252 C1253 1.394 . S
C1252 C1258 1.465 . S
C1253 C1248 1.399 . S
C1253 C1252 1.394 . S
C1253 C1254 1.516 . S
C1254 C1253 1.516 . S
C1254 C1255 1.502 . S
C1254 C1256 1.561 . S
C1254 C1257 1.526 . S
C1255 H1239 0.959 . S
C1255 H1240 0.959 . S
C1255 H1241 0.961 . S
C1255 C1254 1.502 . S
C1256 H1242 0.960 . S
C1256 H1243 0.961 . S
C1256 H1244 0.959 . S
C1256 C1254 1.561 . S
C1257 C1254 1.526 . S
C1257 C1258 1.396 . S
C1257 C1262 1.390 . S
C1258 C1252 1.465 . S
C1258 C1257 1.396 . S
C1258 C1259 1.399 . S
C1259 H1245 0.929 . S
C1259 C1258 1.399 . S
C1259 C1260 1.385 . S
C1260 H1246 0.931 . S
C1260 C1259 1.385 . S
C1260 C1261 1.389 . S
C1261 C1260 1.389 . S
C1261 C1262 1.387 . S
C1262 H1247 0.930 . S
C1262 C1257 1.390 . S
C1262 C1261 1.387 . S
H1263 C1275 0.930 . S
H1264 C1277 0.930 . S
H1265 C1278 0.930 . S
H1266 C1282 0.959 . S
H1267 C1282 0.959 . S
H1268 C1282 0.961 . S
H1269 C1283 0.960 . S
H1270 C1283 0.961 . S
H1271 C1283 0.959 . S
H1272 C1286 0.929 . S
H1273 C1287 0.931 . S
H1274 C1289 0.930 . S
C1275 H1263 0.930 . S
C1275 C1276 1.399 . S
C1275 C1280 1.399 . S
C1276 C1275 1.399 . S
C1276 C1277 1.376 . S
C1277 H1264 0.930 . S
C1277 C1276 1.376 . S
C1277 C1278 1.388 . S
C1278 H1265 0.930 . S
C1278 C1277 1.388 . S
C1278 C1279 1.390 . S
C1279 C1278 1.390 . S
C1279 C1280 1.394 . S
C1279 C1285 1.465 . S
C1280 C1275 1.399 . S
C1280 C1279 1.394 . S
C1280 C1281 1.516 . S
C1281 C1280 1.516 . S
C1281 C1282 1.502 . S
C1281 C1283 1.561 . S
C1281 C1284 1.526 . S
C1282 H1266 0.959 . S
C1282 H1267 0.959 . S
C1282 H1268 0.961 . S
C1282 C1281 1.502 . S
C1283 H1269 0.960 . S
C1283 H1270 0.961 . S
C1283 H1271 0.959 . S
C1283 C1281 1.561 . S
C1284 C1281 1.526 . S
C1284 C1285 1.396 . S
C1284 C1289 1.390 . S
C1285 C1279 1.465 . S
C1285 C1284 1.396 . S
C1285 C1286 1.399 . S
C1286 H1272 0.929 . S
C1286 C1285 1.399 . S
C1286 C1287 1.385 . S
C1287 H1273 0.931 . S
C1287 C1286 1.385 . S
C1287 C1288 1.389 . S
C1288 C1287 1.389 . S
C1288 C1289 1.387 . S
C1289 H1274 0.930 . S
C1289 C1284 1.390 . S
C1289 C1288 1.387 . S
H1290 C1302 0.930 . S
H1291 C1304 0.930 . S
H1292 C1305 0.930 . S
H1293 C1309 0.959 . S
H1294 C1309 0.959 . S
H1295 C1309 0.961 . S
H1296 C1310 0.960 . S
H1297 C1310 0.961 1_655 S
H1298 C1310 0.959 . S
H1299 C1313 0.929 . S
H1300 C1314 0.931 . S
H1301 C1316 0.930 . S
C1302 H1290 0.930 . S
C1302 C1303 1.399 . S
C1302 C1307 1.399 . S
C1303 C1302 1.399 . S
C1303 C1304 1.376 . S
C1304 H1291 0.930 . S
C1304 C1303 1.376 . S
C1304 C1305 1.388 . S
C1305 H1292 0.930 . S
C1305 C1304 1.388 . S
C1305 C1306 1.390 1_455 S
C1306 C1305 1.390 1_655 S
C1306 C1307 1.394 1_655 S
C1306 C1312 1.465 . S
C1307 C1302 1.399 . S
C1307 C1306 1.394 1_455 S
C1307 C1308 1.516 1_455 S
C1308 C1307 1.516 1_655 S
C1308 C1309 1.502 . S
C1308 C1310 1.561 1_655 S
C1308 C1311 1.526 . S
C1309 H1293 0.959 . S
C1309 H1294 0.959 . S
C1309 H1295 0.961 . S
C1309 C1308 1.502 . S
C1310 H1296 0.960 . S
C1310 H1297 0.961 1_455 S
C1310 H1298 0.959 . S
C1310 C1308 1.561 1_455 S
C1311 C1308 1.526 . S
C1311 C1312 1.396 . S
C1311 C1316 1.390 . S
C1312 C1306 1.465 . S
C1312 C1311 1.396 . S
C1312 C1313 1.399 . S
C1313 H1299 0.929 . S
C1313 C1312 1.399 . S
C1313 C1314 1.385 . S
C1314 H1300 0.931 . S
C1314 C1313 1.385 . S
C1314 C1315 1.389 . S
C1315 C1314 1.389 . S
C1315 C1316 1.387 . S
C1316 H1301 0.930 . S
C1316 C1311 1.390 . S
C1316 C1315 1.387 . S
H1317 C1329 0.930 . S
H1318 C1331 0.930 . S
H1319 C1332 0.930 . S
H1320 C1336 0.959 . S
H1321 C1336 0.959 . S
H1322 C1336 0.961 . S
H1323 C1337 0.960 . S
H1324 C1337 0.961 . S
H1325 C1337 0.959 . S
H1326 C1340 0.929 . S
H1327 C1341 0.931 . S
H1328 C1343 0.930 . S
C1329 H1317 0.930 . S
C1329 C1330 1.399 . S
C1329 C1334 1.399 . S
C1330 C1329 1.399 . S
C1330 C1331 1.376 . S
C1331 H1318 0.930 . S
C1331 C1330 1.376 . S
C1331 C1332 1.388 . S
C1332 H1319 0.930 . S
C1332 C1331 1.388 . S
C1332 C1333 1.390 . S
C1333 C1332 1.390 . S
C1333 C1334 1.394 . S
C1333 C1339 1.465 . S
C1334 C1329 1.399 . S
C1334 C1333 1.394 . S
C1334 C1335 1.516 . S
C1335 C1334 1.516 . S
C1335 C1336 1.502 . S
C1335 C1337 1.561 . S
C1335 C1338 1.526 . S
C1336 H1320 0.959 . S
C1336 H1321 0.959 . S
C1336 H1322 0.961 . S
C1336 C1335 1.502 . S
C1337 H1323 0.960 . S
C1337 H1324 0.961 . S
C1337 H1325 0.959 . S
C1337 C1335 1.561 . S
C1338 C1335 1.526 . S
C1338 C1339 1.396 . S
C1338 C1343 1.390 . S
C1339 C1333 1.465 . S
C1339 C1338 1.396 . S
C1339 C1340 1.399 . S
C1340 H1326 0.929 . S
C1340 C1339 1.399 . S
C1340 C1341 1.385 . S
C1341 H1327 0.931 . S
C1341 C1340 1.385 . S
C1341 C1342 1.389 . S
C1342 C1341 1.389 . S
C1342 C1343 1.387 . S
C1343 H1328 0.930 . S
C1343 C1338 1.390 . S
C1343 C1342 1.387 . S
H1344 C1356 0.930 . S
H1345 C1358 0.930 . S
H1346 C1359 0.930 . S
H1347 C1363 0.959 . S
H1348 C1363 0.959 . S
H1349 C1363 0.961 . S
H1350 C1364 0.960 . S
H1351 C1364 0.961 . S
H1352 C1364 0.959 . S
H1353 C1367 0.929 . S
H1354 C1368 0.931 . S
H1355 C1370 0.930 . S
C1356 H1344 0.930 . S
C1356 C1357 1.399 . S
C1356 C1361 1.399 . S
C1357 C1356 1.399 . S
C1357 C1358 1.376 . S
C1358 H1345 0.930 . S
C1358 C1357 1.376 . S
C1358 C1359 1.388 . S
C1359 H1346 0.930 . S
C1359 C1358 1.388 . S
C1359 C1360 1.390 . S
C1360 C1359 1.390 . S
C1360 C1361 1.394 . S
C1360 C1366 1.465 . S
C1361 C1356 1.399 . S
C1361 C1360 1.394 . S
C1361 C1362 1.516 . S
C1362 C1361 1.516 . S
C1362 C1363 1.502 . S
C1362 C1364 1.561 . S
C1362 C1365 1.526 . S
C1363 H1347 0.959 . S
C1363 H1348 0.959 . S
C1363 H1349 0.961 . S
C1363 C1362 1.502 . S
C1364 H1350 0.960 . S
C1364 H1351 0.961 . S
C1364 H1352 0.959 . S
C1364 C1362 1.561 . S
C1365 C1362 1.526 . S
C1365 C1366 1.396 . S
C1365 C1370 1.390 . S
C1366 C1360 1.465 . S
C1366 C1365 1.396 . S
C1366 C1367 1.399 . S
C1367 H1353 0.929 . S
C1367 C1366 1.399 . S
C1367 C1368 1.385 . S
C1368 H1354 0.931 . S
C1368 C1367 1.385 . S
C1368 C1369 1.389 . S
C1369 C1368 1.389 . S
C1369 C1370 1.387 . S
C1370 H1355 0.930 . S
C1370 C1365 1.390 . S
C1370 C1369 1.387 . S
H1371 C1383 0.930 . S
H1372 C1385 0.930 . S
H1373 C1386 0.930 . S
H1374 C1390 0.959 . S
H1375 C1390 0.959 . S
H1376 C1390 0.961 . S
H1377 C1391 0.960 . S
H1378 C1391 0.961 . S
H1379 C1391 0.959 . S
H1380 C1394 0.929 . S
H1381 C1395 0.931 . S
H1382 C1397 0.930 . S
C1383 H1371 0.930 . S
C1383 C1384 1.399 . S
C1383 C1388 1.399 . S
C1384 C1383 1.399 . S
C1384 C1385 1.376 . S
C1385 H1372 0.930 . S
C1385 C1384 1.376 . S
C1385 C1386 1.388 . S
C1386 H1373 0.930 . S
C1386 C1385 1.388 . S
C1386 C1387 1.390 . S
C1387 C1386 1.390 . S
C1387 C1388 1.394 . S
C1387 C1393 1.465 . S
C1388 C1383 1.399 . S
C1388 C1387 1.394 . S
C1388 C1389 1.516 . S
C1389 C1388 1.516 . S
C1389 C1390 1.502 . S
C1389 C1391 1.561 . S
C1389 C1392 1.526 . S
C1390 H1374 0.959 . S
C1390 H1375 0.959 . S
C1390 H1376 0.961 . S
C1390 C1389 1.502 . S
C1391 H1377 0.960 . S
C1391 H1378 0.961 . S
C1391 H1379 0.959 . S
C1391 C1389 1.561 . S
C1392 C1389 1.526 . S
C1392 C1393 1.396 . S
C1392 C1397 1.390 . S
C1393 C1387 1.465 . S
C1393 C1392 1.396 . S
C1393 C1394 1.399 . S
C1394 H1380 0.929 . S
C1394 C1393 1.399 . S
C1394 C1395 1.385 . S
C1395 H1381 0.931 . S
C1395 C1394 1.385 . S
C1395 C1396 1.389 . S
C1396 C1395 1.389 . S
C1396 C1397 1.387 . S
C1397 H1382 0.930 . S
C1397 C1392 1.390 . S
C1397 C1396 1.387 . S
H1398 C1410 0.930 . S
H1399 C1412 0.930 . S
H1400 C1413 0.930 . S
H1401 C1417 0.959 . S
H1402 C1417 0.959 . S
H1403 C1417 0.961 . S
H1404 C1418 0.960 . S
H1405 C1418 0.961 . S
H1406 C1418 0.959 . S
H1407 C1421 0.929 . S
H1408 C1422 0.931 . S
H1409 C1424 0.930 . S
C1410 H1398 0.930 . S
C1410 C1411 1.399 . S
C1410 C1415 1.399 . S
C1411 C1410 1.399 . S
C1411 C1412 1.376 . S
C1412 H1399 0.930 . S
C1412 C1411 1.376 . S
C1412 C1413 1.388 . S
C1413 H1400 0.930 . S
C1413 C1412 1.388 . S
C1413 C1414 1.390 . S
C1414 C1413 1.390 . S
C1414 C1415 1.394 . S
C1414 C1420 1.465 . S
C1415 C1410 1.399 . S
C1415 C1414 1.394 . S
C1415 C1416 1.516 . S
C1416 C1415 1.516 . S
C1416 C1417 1.502 . S
C1416 C1418 1.561 . S
C1416 C1419 1.526 . S
C1417 H1401 0.959 . S
C1417 H1402 0.959 . S
C1417 H1403 0.961 . S
C1417 C1416 1.502 . S
C1418 H1404 0.960 . S
C1418 H1405 0.961 . S
C1418 H1406 0.959 . S
C1418 C1416 1.561 . S
C1419 C1416 1.526 . S
C1419 C1420 1.396 . S
C1419 C1424 1.390 . S
C1420 C1414 1.465 . S
C1420 C1419 1.396 . S
C1420 C1421 1.399 . S
C1421 H1407 0.929 . S
C1421 C1420 1.399 . S
C1421 C1422 1.385 . S
C1422 H1408 0.931 . S
C1422 C1421 1.385 . S
C1422 C1423 1.389 . S
C1423 C1422 1.389 . S
C1423 C1424 1.387 . S
C1424 H1409 0.930 . S
C1424 C1419 1.390 . S
C1424 C1423 1.387 . S
H1425 C1437 0.930 . S
H1426 C1439 0.930 . S
H1427 C1440 0.930 . S
H1428 C1444 0.959 . S
H1429 C1444 0.959 . S
H1430 C1444 0.961 1_655 S
H1431 C1445 0.960 . S
H1432 C1445 0.961 . S
H1433 C1445 0.959 . S
H1434 C1448 0.929 . S
H1435 C1449 0.931 . S
H1436 C1451 0.930 . S
C1437 H1425 0.930 . S
C1437 C1438 1.399 . S
C1437 C1442 1.399 . S
C1438 C1437 1.399 . S
C1438 C1439 1.376 . S
C1439 H1426 0.930 . S
C1439 C1438 1.376 . S
C1439 C1440 1.388 . S
C1440 H1427 0.930 . S
C1440 C1439 1.388 . S
C1440 C1441 1.390 . S
C1441 C1440 1.390 . S
C1441 C1442 1.394 . S
C1441 C1447 1.465 1_655 S
C1442 C1437 1.399 . S
C1442 C1441 1.394 . S
C1442 C1443 1.516 . S
C1443 C1442 1.516 . S
C1443 C1444 1.502 1_655 S
C1443 C1445 1.561 . S
C1443 C1446 1.526 1_655 S
C1444 H1428 0.959 . S
C1444 H1429 0.959 . S
C1444 H1430 0.961 1_455 S
C1444 C1443 1.502 1_455 S
C1445 H1431 0.960 . S
C1445 H1432 0.961 . S
C1445 H1433 0.959 . S
C1445 C1443 1.561 . S
C1446 C1443 1.526 1_455 S
C1446 C1447 1.396 . S
C1446 C1451 1.390 . S
C1447 C1441 1.465 1_455 S
C1447 C1446 1.396 . S
C1447 C1448 1.399 . S
C1448 H1434 0.929 . S
C1448 C1447 1.399 . S
C1448 C1449 1.385 . S
C1449 H1435 0.931 . S
C1449 C1448 1.385 . S
C1449 C1450 1.389 . S
C1450 C1449 1.389 . S
C1450 C1451 1.387 . S
C1451 H1436 0.930 . S
C1451 C1446 1.390 . S
C1451 C1450 1.387 . S
C493 C19 1.367 . S
C505 C459 1.353 . S
C520 C378 2.068 . S
C532 C58 2.067 . S
C547 C98 1.308 . S
C559 C338 1.308 . S
C574 C138 1.630 . S
C586 C419 1.526 . S
C601 C178 1.807 . S
C613 C418 1.790 . S
C628 C219 1.622 . S
C640 C458 1.694 . S
C655 C379 1.637 . S
C667 C258 1.714 . S
C682 C299 1.282 . S
C694 C339 1.293 . S
C709 C139 1.395 . S
C721 C179 1.401 . S
C736 C18 1.881 . S
C748 C218 1.879 . S
C763 C59 1.824 . S
C775 C259 1.837 . S
C790 C298 1.668 . S
C802 C99 1.619 . S
C817 C15 1.878 . S
C829 C329 1.880 . S
C844 C46 1.517 . S
C856 C410 1.521 . S
C871 C450 1.792 . S
C883 C86 1.808 . S
C898 C126 1.719 . S
C910 C369 1.593 . S
C925 C166 1.366 . S
C937 C370 1.333 . S
C952 C330 2.727 . S
C964 C215 2.611 . S
C979 C409 1.357 . S
C991 C246 1.390 . S
C1006 C449 1.569 . S
C1018 C295 1.672 . S
C1033 C9 1.722 . S
C1045 C135 1.838 . S
C1060 C6 1.511 . S
C1072 C50 1.447 . S
C1087 C55 2.031 . S
C1099 C90 2.050 . S
C1114 C130 2.083 . S
C1126 C95 1.985 . S
C1141 C206 1.683 . S
C1153 C170 1.688 . S
C1168 C209 1.313 . S
C1180 C255 1.282 . S
C1195 C250 1.467 . S
C1207 C286 1.489 . S
C1222 C175 2.048 . S
C1234 C289 1.918 . S
C1249 C335 1.915 . S
C1261 C129 1.819 . S
C1276 C210 1.756 . S
C1288 C366 1.757 . S
C1303 C326 1.217 . S
C1315 C249 1.204 . S
C1330 C415 1.459 . S
C1342 C290 1.567 . S
C1357 C169 1.632 . S
C1369 C455 1.569 . S
C1384 C446 0.640 . S
C1396 C49 0.664 . S
C1411 C89 1.858 . S
C1423 C375 1.822 . S
C1438 C406 1.574 . S
C1450 C10 1.584 . S
