# Generated by pormake.
# Topology wig, (6)-cn, num edge types: 1
# Building blocks:
#     Node 0, Type 0, BuildingBlock: OJICUG_clean_sbu_0, # of connection points: 6
#     Node 1, Type 0, BuildingBlock: OJICUG_clean_sbu_0, # of connection points: 6
#     Node 2, Type 0, BuildingBlock: OJICUG_clean_sbu_0, # of connection points: 6
#     Node 3, Type 0, BuildingBlock: OJICUG_clean_sbu_0, # of connection points: 6
#     Node 4, Type 0, BuildingBlock: OJICUG_clean_sbu_0, # of connection points: 6
#     Node 5, Type 0, BuildingBlock: OJICUG_clean_sbu_0, # of connection points: 6
#     Node 6, Type 0, BuildingBlock: OJICUG_clean_sbu_0, # of connection points: 6
#     Node 7, Type 0, BuildingBlock: OJICUG_clean_sbu_0, # of connection points: 6
#     Node 8, Type 0, BuildingBlock: OJICUG_clean_sbu_0, # of connection points: 6
#     Node 9, Type 0, BuildingBlock: OJICUG_clean_sbu_0, # of connection points: 6
#     Node 10, Type 0, BuildingBlock: OJICUG_clean_sbu_0, # of connection points: 6
#     Node 11, Type 0, BuildingBlock: OJICUG_clean_sbu_0, # of connection points: 6
#     Node 12, Type 0, BuildingBlock: OJICUG_clean_sbu_0, # of connection points: 6
#     Node 13, Type 0, BuildingBlock: OJICUG_clean_sbu_0, # of connection points: 6
#     Node 14, Type 0, BuildingBlock: OJICUG_clean_sbu_0, # of connection points: 6
#     Node 15, Type 0, BuildingBlock: OJICUG_clean_sbu_0, # of connection points: 6
#     Edge 16, Type (0, 0), BuildingBlock: EZIPEK_clean_linker_0, # of connection points: 2
#     Edge 17, Type (0, 0), BuildingBlock: EZIPEK_clean_linker_0, # of connection points: 2
#     Edge 18, Type (0, 0), BuildingBlock: EZIPEK_clean_linker_0, # of connection points: 2
#     Edge 19, Type (0, 0), BuildingBlock: EZIPEK_clean_linker_0, # of connection points: 2
#     Edge 20, Type (0, 0), BuildingBlock: EZIPEK_clean_linker_0, # of connection points: 2
#     Edge 21, Type (0, 0), BuildingBlock: EZIPEK_clean_linker_0, # of connection points: 2
#     Edge 22, Type (0, 0), BuildingBlock: EZIPEK_clean_linker_0, # of connection points: 2
#     Edge 23, Type (0, 0), BuildingBlock: EZIPEK_clean_linker_0, # of connection points: 2
#     Edge 24, Type (0, 0), BuildingBlock: EZIPEK_clean_linker_0, # of connection points: 2
#     Edge 25, Type (0, 0), BuildingBlock: EZIPEK_clean_linker_0, # of connection points: 2
#     Edge 26, Type (0, 0), BuildingBlock: EZIPEK_clean_linker_0, # of connection points: 2
#     Edge 27, Type (0, 0), BuildingBlock: EZIPEK_clean_linker_0, # of connection points: 2
#     Edge 28, Type (0, 0), BuildingBlock: EZIPEK_clean_linker_0, # of connection points: 2
#     Edge 29, Type (0, 0), BuildingBlock: EZIPEK_clean_linker_0, # of connection points: 2
#     Edge 30, Type (0, 0), BuildingBlock: EZIPEK_clean_linker_0, # of connection points: 2
#     Edge 31, Type (0, 0), BuildingBlock: EZIPEK_clean_linker_0, # of connection points: 2
#     Edge 32, Type (0, 0), BuildingBlock: EZIPEK_clean_linker_0, # of connection points: 2
#     Edge 33, Type (0, 0), BuildingBlock: EZIPEK_clean_linker_0, # of connection points: 2
#     Edge 34, Type (0, 0), BuildingBlock: EZIPEK_clean_linker_0, # of connection points: 2
#     Edge 35, Type (0, 0), BuildingBlock: EZIPEK_clean_linker_0, # of connection points: 2
#     Edge 36, Type (0, 0), BuildingBlock: EZIPEK_clean_linker_0, # of connection points: 2
#     Edge 37, Type (0, 0), BuildingBlock: EZIPEK_clean_linker_0, # of connection points: 2
#     Edge 38, Type (0, 0), BuildingBlock: EZIPEK_clean_linker_0, # of connection points: 2
#     Edge 39, Type (0, 0), BuildingBlock: EZIPEK_clean_linker_0, # of connection points: 2
#     Edge 40, Type (0, 0), BuildingBlock: EZIPEK_clean_linker_0, # of connection points: 2
#     Edge 41, Type (0, 0), BuildingBlock: EZIPEK_clean_linker_0, # of connection points: 2
#     Edge 42, Type (0, 0), BuildingBlock: EZIPEK_clean_linker_0, # of connection points: 2
#     Edge 43, Type (0, 0), BuildingBlock: EZIPEK_clean_linker_0, # of connection points: 2
#     Edge 44, Type (0, 0), BuildingBlock: EZIPEK_clean_linker_0, # of connection points: 2
#     Edge 45, Type (0, 0), BuildingBlock: EZIPEK_clean_linker_0, # of connection points: 2
#     Edge 46, Type (0, 0), BuildingBlock: EZIPEK_clean_linker_0, # of connection points: 2
#     Edge 47, Type (0, 0), BuildingBlock: EZIPEK_clean_linker_0, # of connection points: 2
#     Edge 48, Type (0, 0), BuildingBlock: EZIPEK_clean_linker_0, # of connection points: 2
#     Edge 49, Type (0, 0), BuildingBlock: EZIPEK_clean_linker_0, # of connection points: 2
#     Edge 50, Type (0, 0), BuildingBlock: EZIPEK_clean_linker_0, # of connection points: 2
#     Edge 51, Type (0, 0), BuildingBlock: EZIPEK_clean_linker_0, # of connection points: 2
#     Edge 52, Type (0, 0), BuildingBlock: EZIPEK_clean_linker_0, # of connection points: 2
#     Edge 53, Type (0, 0), BuildingBlock: EZIPEK_clean_linker_0, # of connection points: 2
#     Edge 54, Type (0, 0), BuildingBlock: EZIPEK_clean_linker_0, # of connection points: 2
#     Edge 55, Type (0, 0), BuildingBlock: EZIPEK_clean_linker_0, # of connection points: 2
#     Edge 56, Type (0, 0), BuildingBlock: EZIPEK_clean_linker_0, # of connection points: 2
#     Edge 57, Type (0, 0), BuildingBlock: EZIPEK_clean_linker_0, # of connection points: 2
#     Edge 58, Type (0, 0), BuildingBlock: EZIPEK_clean_linker_0, # of connection points: 2
#     Edge 59, Type (0, 0), BuildingBlock: EZIPEK_clean_linker_0, # of connection points: 2
#     Edge 60, Type (0, 0), BuildingBlock: EZIPEK_clean_linker_0, # of connection points: 2
#     Edge 61, Type (0, 0), BuildingBlock: EZIPEK_clean_linker_0, # of connection points: 2
#     Edge 62, Type (0, 0), BuildingBlock: EZIPEK_clean_linker_0, # of connection points: 2
#     Edge 63, Type (0, 0), BuildingBlock: EZIPEK_clean_linker_0, # of connection points: 2
# Relax obj value: 0.258
# Max RMSD: 0.298
# Mean RMSD: 0.298
data_MOF--net-wig--node1-OJICUG_clean_sbu_0--edge1-EZIPEK_clean_linker_0
_symmetry_space_group_name_H-M    P1
_symmetry_Int_Tables_number       1
_symmetry_cell_setting            triclinic
loop_
_symmetry_equiv_pos_as_xyz
'x, y, z'
_cell_length_a     21.790961
_cell_length_b     21.693643
_cell_length_c     65.673383
_cell_angle_alpha  89.943601
_cell_angle_beta   90.061938
_cell_angle_gamma 90.087968
loop_
_atom_site_label
_atom_site_type_symbol
_atom_site_fract_x
_atom_site_fract_y
_atom_site_fract_z
_atom_type_partial_charge
Sc0 Sc 0.11988 0.2409 0.29153 0.0
Sc1 Sc 0.22046 0.23885 0.25114 0.0
Sc2 Sc 0.23316 0.12614 0.28809 0.0
O3 O 0.18956 0.20071 0.27684 0.0
C4 C 0.21069 0.20352 0.32795 0.0
C5 C 0.18565 0.3589 0.2755 0.0
C6 C 0.34195 0.21277 0.27228 0.0
C7 C 0.08195 0.2456 0.24389 0.0
C8 C 0.09109 0.09815 0.29691 0.0
C9 C 0.24377 0.09554 0.24278 0.0
O10 O 0.16254 0.22954 0.32106 0.0
O11 O 0.19791 0.33165 0.259 0.0
O12 O 0.32413 0.15994 0.27858 0.0
O13 O 0.07266 0.25713 0.26275 0.0
O14 O 0.14755 0.08288 0.29725 0.0
O15 O 0.25134 0.15195 0.23813 0.0
O16 O 0.07277 0.1531 0.29368 0.0
O17 O 0.13346 0.22886 0.23665 0.0
O18 O 0.22441 0.07829 0.26002 0.0
O19 O 0.16271 0.3312 0.29074 0.0
O20 O 0.24423 0.16807 0.31733 0.0
O21 O 0.30409 0.25358 0.26688 0.0
Sc22 Sc 0.23538 0.87278 0.69835 0.0
Sc23 Sc 0.23022 0.76289 0.73826 0.0
Sc24 Sc 0.12227 0.75684 0.6983 0.0
O25 O 0.19611 0.79757 0.71167 0.0
C26 C 0.09168 0.90078 0.69397 0.0
C27 C 0.24627 0.90614 0.74581 0.0
C28 C 0.08797 0.74722 0.74543 0.0
C29 C 0.35173 0.79765 0.71329 0.0
C30 C 0.20119 0.79212 0.65949 0.0
C31 C 0.19766 0.64037 0.71319 0.0
O32 O 0.14758 0.91797 0.6945 0.0
O33 O 0.24047 0.85151 0.7524 0.0
O34 O 0.0765 0.74547 0.72653 0.0
O35 O 0.32651 0.83584 0.70125 0.0
O36 O 0.15956 0.76188 0.66845 0.0
O37 O 0.22454 0.66952 0.72742 0.0
O38 O 0.23297 0.83368 0.66812 0.0
O39 O 0.32276 0.76774 0.72693 0.0
O40 O 0.16105 0.66556 0.70062 0.0
O41 O 0.24515 0.92034 0.72702 0.0
O42 O 0.07526 0.84446 0.69506 0.0
O43 O 0.14129 0.75601 0.75267 0.0
Sc44 Sc 0.76495 0.87861 0.28952 0.0
Sc45 Sc 0.77435 0.77489 0.24909 0.0
Sc46 Sc 0.87613 0.76387 0.29016 0.0
O47 O 0.80541 0.80589 0.27611 0.0
C48 C 0.90376 0.90794 0.29683 0.0
C49 C 0.75661 0.91447 0.24227 0.0
C50 C 0.92091 0.75986 0.24518 0.0
C51 C 0.65126 0.80606 0.27389 0.0
C52 C 0.79138 0.79017 0.32703 0.0
C53 C 0.80019 0.65041 0.27128 0.0
O54 O 0.85131 0.92615 0.29088 0.0
O55 O 0.77747 0.86427 0.23528 0.0
O56 O 0.93211 0.77138 0.26374 0.0
O57 O 0.6771 0.83462 0.28843 0.0
O58 O 0.82391 0.75193 0.31734 0.0
O59 O 0.76568 0.68333 0.26028 0.0
O60 O 0.77548 0.84215 0.31984 0.0
O61 O 0.6795 0.78803 0.25798 0.0
O62 O 0.84558 0.6719 0.28129 0.0
O63 O 0.7459 0.92349 0.26104 0.0
O64 O 0.91648 0.85131 0.30008 0.0
O65 O 0.86672 0.75581 0.23787 0.0
Sc66 Sc 0.86993 0.23089 0.70056 0.0
Sc67 Sc 0.76895 0.22197 0.74201 0.0
Sc68 Sc 0.75837 0.11511 0.70211 0.0
O69 O 0.79926 0.18935 0.71497 0.0
C70 C 0.78709 0.19864 0.66331 0.0
C71 C 0.79291 0.34584 0.71817 0.0
C72 C 0.64524 0.18773 0.71808 0.0
C73 C 0.91415 0.24076 0.74581 0.0
C74 C 0.89838 0.08575 0.69524 0.0
C75 C 0.75338 0.08118 0.74964 0.0
O76 O 0.82137 0.23658 0.67249 0.0
O77 O 0.76098 0.31399 0.73043 0.0
O78 O 0.66996 0.15811 0.70358 0.0
O79 O 0.92521 0.23052 0.72721 0.0
O80 O 0.8449 0.06757 0.7002 0.0
O81 O 0.77236 0.13271 0.75632 0.0
O82 O 0.91217 0.14258 0.69275 0.0
O83 O 0.86034 0.24217 0.75331 0.0
O84 O 0.74233 0.07078 0.73097 0.0
O85 O 0.83626 0.32335 0.70745 0.0
O86 O 0.76663 0.14959 0.67142 0.0
O87 O 0.67453 0.20786 0.73348 0.0
Sc88 Sc 0.22513 0.37296 0.94814 0.0
Sc89 Sc 0.22187 0.26722 0.98775 0.0
Sc90 Sc 0.1175 0.25495 0.94719 0.0
O91 O 0.18844 0.29766 0.96083 0.0
C92 C 0.0824 0.39485 0.94088 0.0
C93 C 0.23437 0.41297 0.99279 0.0
C94 C 0.08221 0.25026 -0.00517 0.0
C95 C 0.34294 0.2977 0.9651 0.0
C96 C 0.2034 0.29213 0.90958 0.0
C97 C 0.18935 0.14269 0.96384 0.0
O98 O 0.13807 0.41119 0.93886 0.0
O99 O 0.24661 0.3588 -0.00096 0.0
O100 O 0.07345 0.23729 0.97611 0.0
O101 O 0.31845 0.34393 0.95621 0.0
O102 O 0.15578 0.26623 0.91692 0.0
O103 O 0.20611 0.17229 0.97962 0.0
O104 O 0.23755 0.32827 0.9197 0.0
O105 O 0.31224 0.25884 0.97536 0.0
O106 O 0.16305 0.16751 0.94867 0.0
O107 O 0.21038 0.42281 0.9756 0.0
O108 O 0.06636 0.33996 0.94521 0.0
O109 O 0.13258 0.27161 0.00174 0.0
Sc110 Sc 0.25733 0.8763 0.04162 0.0
Sc111 Sc 0.27059 0.77512 0.00073 0.0
Sc112 Sc 0.37245 0.76551 0.04119 0.0
O113 O 0.30009 0.80554 0.02788 0.0
C114 C 0.39614 0.91003 0.04742 0.0
C115 C 0.25225 0.91338 -0.0057 0.0
C116 C 0.41653 0.75986 -0.00346 0.0
C117 C 0.14605 0.80489 0.02477 0.0
C118 C 0.29415 0.79103 0.07947 0.0
C119 C 0.29591 0.65108 0.02294 0.0
O120 O 0.34231 0.9267 0.04234 0.0
O121 O 0.2772 0.86474 0.98759 0.0
O122 O 0.4276 0.77509 0.01473 0.0
O123 O 0.17059 0.82884 0.04049 0.0
O124 O 0.32368 0.75294 0.06874 0.0
O125 O 0.26039 0.68398 0.01222 0.0
O126 O 0.27302 0.84147 0.07242 0.0
O127 O 0.17586 0.79082 0.00877 0.0
O128 O 0.34206 0.67293 0.03254 0.0
O129 O 0.23622 0.9205 0.0128 0.0
O130 O 0.4111 0.85392 0.05049 0.0
O131 O 0.36228 0.75369 0.98955 0.0
Sc132 Sc 0.87233 0.73621 0.94698 0.0
Sc133 Sc 0.76988 0.73223 0.98875 0.0
Sc134 Sc 0.76162 0.61802 0.95091 0.0
O135 O 0.80152 0.6954 0.96226 0.0
C136 C 0.78819 0.69179 0.91009 0.0
C137 C 0.79724 0.85273 0.962 0.0
C138 C 0.64654 0.69553 0.9654 0.0
C139 C 0.91256 0.75152 0.99388 0.0
C140 C 0.90446 0.59257 0.94373 0.0
C141 C 0.7558 0.58978 -0.00147 0.0
O142 O 0.83086 0.72543 0.91723 0.0
O143 O 0.77394 0.82413 0.97698 0.0
O144 O 0.67038 0.65411 0.95431 0.0
O145 O 0.92288 0.75262 0.97481 0.0
O146 O 0.84942 0.57446 0.94626 0.0
O147 O 0.76114 0.64522 0.00435 0.0
O148 O 0.92044 0.64913 0.94384 0.0
O149 O 0.86007 0.74166 0.00159 0.0
O150 O 0.75665 0.57359 0.97999 0.0
O151 O 0.83129 0.82707 0.94875 0.0
O152 O 0.7595 0.65233 0.92061 0.0
O153 O 0.67648 0.72682 0.97842 0.0
Sc154 Sc 0.61797 0.23889 0.037 0.0
Sc155 Sc 0.72656 0.23127 -0.00266 0.0
Sc156 Sc 0.72998 0.122 0.03734 0.0
O157 O 0.69141 0.19713 0.02379 0.0
C158 C 0.69773 0.20444 0.07575 0.0
C159 C 0.69615 0.3541 0.02253 0.0
C160 C 0.84804 0.19485 0.02225 0.0
C161 C 0.58435 0.25096 0.98986 0.0
C162 C 0.58573 0.09667 0.04251 0.0
C163 C 0.73948 0.08701 0.9901 0.0
O164 O 0.65475 0.23298 0.06691 0.0
O165 O 0.72249 0.32467 0.00826 0.0
O166 O 0.82226 0.15605 0.03394 0.0
O167 O 0.57201 0.25208 0.00869 0.0
O168 O 0.64138 0.0789 0.04213 0.0
O169 O 0.73513 0.14178 0.9834 0.0
O170 O 0.56955 0.15262 0.04038 0.0
O171 O 0.63783 0.2415 0.98284 0.0
O172 O 0.73696 0.07302 0.0089 0.0
O173 O 0.6593 0.32907 0.03504 0.0
O174 O 0.73022 0.1636 0.06713 0.0
O175 O 0.81944 0.22556 0.00873 0.0
Sc176 Sc 0.62195 0.73053 0.79049 0.0
Sc177 Sc 0.72126 0.73268 0.74972 0.0
Sc178 Sc 0.73513 0.61843 0.78544 0.0
O179 O 0.69126 0.69297 0.77512 0.0
C180 C 0.71474 0.68997 0.82577 0.0
C181 C 0.68789 0.84912 0.77646 0.0
C182 C 0.84349 0.7048 0.76978 0.0
C183 C 0.58342 0.74296 0.74311 0.0
C184 C 0.59387 0.58963 0.79446 0.0
C185 C 0.7393 0.5893 0.74006 0.0
O186 O 0.66266 0.71054 0.82005 0.0
O187 O 0.69861 0.8245 0.75933 0.0
O188 O 0.82525 0.65108 0.77494 0.0
O189 O 0.57567 0.75417 0.76207 0.0
O190 O 0.65055 0.57598 0.79617 0.0
O191 O 0.75129 0.64551 0.73595 0.0
O192 O 0.5748 0.64352 0.7902 0.0
O193 O 0.63362 0.72368 0.73559 0.0
O194 O 0.71985 0.57245 0.75734 0.0
O195 O 0.66635 0.81936 0.7915 0.0
O196 O 0.75137 0.66163 0.81405 0.0
O197 O 0.80579 0.74647 0.76505 0.0
Sc198 Sc 0.73649 0.37 0.19575 0.0
Sc199 Sc 0.72683 0.26839 0.23768 0.0
Sc200 Sc 0.61805 0.26067 0.19785 0.0
O201 O 0.69392 0.2997 0.21048 0.0
C202 C 0.59386 0.40442 0.19231 0.0
C203 C 0.74714 0.41152 0.24253 0.0
C204 C 0.58484 0.25464 0.24523 0.0
C205 C 0.85012 0.29453 0.21244 0.0
C206 C 0.69636 0.28786 0.15811 0.0
C207 C 0.6928 0.14497 0.21315 0.0
O208 O 0.65062 0.41831 0.19138 0.0
O209 O 0.73873 0.35887 0.25048 0.0
O210 O 0.57338 0.2508 0.22637 0.0
O211 O 0.82596 0.32957 0.1992 0.0
O212 O 0.65162 0.26353 0.16738 0.0
O213 O 0.7191 0.17442 0.22747 0.0
O214 O 0.73268 0.32599 0.16641 0.0
O215 O 0.81991 0.26974 0.22686 0.0
O216 O 0.65597 0.16937 0.20045 0.0
O217 O 0.74797 0.42102 0.22343 0.0
O218 O 0.57426 0.34959 0.19481 0.0
O219 O 0.63809 0.26477 0.25225 0.0
Sc220 Sc 0.26416 0.37687 0.7878 0.0
Sc221 Sc 0.26647 0.26253 0.74965 0.0
Sc222 Sc 0.37254 0.25713 0.79027 0.0
O223 O 0.30126 0.29891 0.77579 0.0
C224 C 0.40643 0.40093 0.79382 0.0
C225 C 0.25268 0.40518 0.74019 0.0
C226 C 0.4095 0.24542 0.74338 0.0
C227 C 0.14664 0.30021 0.77479 0.0
C228 C 0.29037 0.29751 0.82761 0.0
C229 C 0.29793 0.14041 0.77482 0.0
O230 O 0.35237 0.42045 0.79055 0.0
O231 O 0.25849 0.34994 0.73421 0.0
O232 O 0.42229 0.2472 0.76227 0.0
O233 O 0.17265 0.33998 0.78608 0.0
O234 O 0.32761 0.26025 0.81937 0.0
O235 O 0.26941 0.16983 0.76106 0.0
O236 O 0.26782 0.34356 0.8184 0.0
O237 O 0.17426 0.26998 0.76098 0.0
O238 O 0.33539 0.16557 0.78707 0.0
O239 O 0.25363 0.4209 0.75878 0.0
O240 O 0.42006 0.34397 0.79496 0.0
O241 O 0.35569 0.25134 0.73617 0.0
Sc242 Sc 0.38558 0.74336 0.20338 0.0
Sc243 Sc 0.27287 0.73496 0.24161 0.0
Sc244 Sc 0.26966 0.63045 0.20039 0.0
O245 O 0.30948 0.70276 0.21521 0.0
C246 C 0.30884 0.717 0.16338 0.0
C247 C 0.30991 0.85952 0.21896 0.0
C248 C 0.15371 0.70601 0.21448 0.0
C249 C 0.41556 0.74769 0.25071 0.0
C250 C 0.41209 0.59932 0.19665 0.0
C251 C 0.25357 0.59167 0.24736 0.0
O252 O 0.34733 0.74785 0.17362 0.0
O253 O 0.27698 0.82886 0.23132 0.0
O254 O 0.17956 0.67098 0.20161 0.0
O255 O 0.43142 0.74558 0.23215 0.0
O256 O 0.35625 0.58256 0.19807 0.0
O257 O 0.26425 0.64452 0.25486 0.0
O258 O 0.4291 0.65549 0.19738 0.0
O259 O 0.36028 0.7447 0.25672 0.0
O260 O 0.25285 0.58072 0.22834 0.0
O261 O 0.35107 0.83545 0.20785 0.0
O262 O 0.27966 0.67111 0.17051 0.0
O263 O 0.18122 0.72942 0.2297 0.0
Sc264 Sc 0.71856 0.86666 0.44435 0.0
Sc265 Sc 0.70231 0.77005 0.48635 0.0
Sc266 Sc 0.60731 0.7521 0.44416 0.0
O267 O 0.67639 0.7962 0.45814 0.0
C268 C 0.57666 0.89273 0.43594 0.0
C269 C 0.7257 0.91441 0.48846 0.0
C270 C 0.56354 0.75956 0.49077 0.0
C271 C 0.82732 0.78596 0.4645 0.0
C272 C 0.69626 0.78084 0.40693 0.0
C273 C 0.67232 0.64303 0.46454 0.0
O274 O 0.63297 0.90788 0.43429 0.0
O275 O 0.73094 0.86103 0.49619 0.0
O276 O 0.5597 0.73955 0.47257 0.0
O277 O 0.80819 0.83178 0.454 0.0
O278 O 0.64765 0.75716 0.41419 0.0
O279 O 0.68114 0.67502 0.48046 0.0
O280 O 0.73028 0.81745 0.4168 0.0
O281 O 0.79289 0.75317 0.47571 0.0
O282 O 0.65225 0.66507 0.44792 0.0
O283 O 0.70875 0.9233 0.47033 0.0
O284 O 0.55904 0.83832 0.44036 0.0
O285 O 0.61157 0.78472 0.49797 0.0
Sc286 Sc 0.75159 0.36826 0.54553 0.0
Sc287 Sc 0.76559 0.28079 0.50127 0.0
Sc288 Sc 0.86698 0.25678 0.54175 0.0
O289 O 0.79533 0.30222 0.52944 0.0
C290 C 0.89238 0.39909 0.55224 0.0
C291 C 0.74623 0.42045 0.49958 0.0
C292 C 0.91108 0.26167 0.49645 0.0
C293 C 0.64067 0.29948 0.52617 0.0
C294 C 0.78038 0.26933 0.58003 0.0
C295 C 0.78814 0.15045 0.52008 0.0
O296 O 0.83743 0.41709 0.5492 0.0
O297 O 0.76995 0.37375 0.49117 0.0
O298 O 0.92258 0.26518 0.51529 0.0
O299 O 0.66468 0.32186 0.5422 0.0
O300 O 0.81948 0.24104 0.5694 0.0
O301 O 0.75662 0.18698 0.50934 0.0
O302 O 0.76026 0.32182 0.57467 0.0
O303 O 0.67053 0.29026 0.50982 0.0
O304 O 0.83226 0.1676 0.53157 0.0
O305 O 0.73291 0.42262 0.51846 0.0
O306 O 0.90842 0.34252 0.55209 0.0
O307 O 0.85707 0.26489 0.48912 0.0
Sc308 Sc 0.36989 0.23094 0.45002 0.0
Sc309 Sc 0.26417 0.22261 0.49072 0.0
Sc310 Sc 0.25349 0.11771 0.44993 0.0
O311 O 0.29618 0.19023 0.46365 0.0
C312 C 0.28749 0.20071 0.41147 0.0
C313 C 0.2985 0.34754 0.46742 0.0
C314 C 0.14095 0.19699 0.46542 0.0
C315 C 0.40824 0.23492 0.49712 0.0
C316 C 0.3943 0.08591 0.44308 0.0
C317 C 0.24121 0.07974 0.49694 0.0
O318 O 0.32684 0.23427 0.42044 0.0
O319 O 0.26953 0.31671 0.48075 0.0
O320 O 0.16443 0.16038 0.45249 0.0
O321 O 0.42068 0.23489 0.47819 0.0
O322 O 0.33897 0.06916 0.44594 0.0
O323 O 0.25348 0.1325 0.50424 0.0
O324 O 0.41198 0.14199 0.44372 0.0
O325 O 0.35428 0.22889 0.50417 0.0
O326 O 0.23917 0.06855 0.47799 0.0
O327 O 0.33621 0.32366 0.45495 0.0
O328 O 0.26005 0.15632 0.4201 0.0
O329 O 0.17086 0.22073 0.48009 0.0
Sc330 Sc 0.10099 0.73062 0.54068 0.0
Sc331 Sc 0.20099 0.72557 0.5003 0.0
Sc332 Sc 0.22013 0.62263 0.54026 0.0
O333 O 0.17259 0.69127 0.52687 0.0
C334 C 0.19225 0.70721 0.57769 0.0
C335 C 0.16505 0.84779 0.52361 0.0
C336 C 0.32447 0.70785 0.52131 0.0
C337 C 0.06322 0.73033 0.49314 0.0
C338 C 0.07832 0.58997 0.54885 0.0
C339 C 0.22949 0.58066 0.49554 0.0
O340 O 0.14005 0.72264 0.5707 0.0
O341 O 0.1773 0.81942 0.50724 0.0
O342 O 0.30917 0.65671 0.52947 0.0
O343 O 0.05517 0.74423 0.51182 0.0
O344 O 0.13557 0.57875 0.55102 0.0
O345 O 0.23216 0.63613 0.48923 0.0
O346 O 0.05747 0.64201 0.54318 0.0
O347 O 0.11397 0.71136 0.48602 0.0
O348 O 0.21453 0.56635 0.51361 0.0
O349 O 0.14213 0.8212 0.53907 0.0
O350 O 0.23093 0.67565 0.56769 0.0
O351 O 0.28517 0.74574 0.51486 0.0
C352 C 0.23974 0.94792 0.21311 0.0
C353 C 0.2994 0.92676 0.21798 0.0
C354 C 0.3278 0.03061 0.22912 0.0
C355 C 0.26478 0.04661 0.2289 0.0
N356 N 0.1607 0.02422 0.21929 0.0
N357 N 0.40259 0.94804 0.22958 0.0
C358 C 0.22085 0.00675 0.22006 0.0
C359 C 0.34479 0.96854 0.22515 0.0
N360 N 0.20164 0.91151 0.2018 0.0
N361 N 0.37084 0.07432 0.23373 0.0
H362 H 0.41724 0.90325 0.22666 0.0
H363 H 0.43536 0.97432 0.23719 0.0
H364 H 0.35935 0.11999 0.23681 0.0
H365 H 0.41793 0.06709 0.23258 0.0
H366 H 0.15944 0.92632 0.1962 0.0
H367 H 0.21545 0.8686 0.19628 0.0
H368 H 0.12496 0.99454 0.2154 0.0
H369 H 0.14663 0.0685 0.22333 0.0
C370 C 0.01925 0.69673 0.77146 0.0
C371 C 0.03358 0.7473 0.75868 0.0
C372 C 0.92646 0.76654 0.75273 0.0
C373 C 0.90981 0.7192 0.76681 0.0
N374 N 0.94406 0.65339 0.79454 0.0
N375 N 0.00146 0.84475 0.74496 0.0
C376 C 0.95725 0.68847 0.77785 0.0
C377 C 0.98702 0.78822 0.75273 0.0
N378 N 0.06366 0.65554 0.77679 0.0
N379 N 0.88771 0.78562 0.7376 0.0
H380 H 0.04675 0.86053 0.74451 0.0
H381 H 0.96806 0.87714 0.74109 0.0
H382 H 0.84761 0.76218 0.73371 0.0
H383 H 0.9007 0.81804 0.72667 0.0
H384 H 0.05397 0.61418 0.78423 0.0
H385 H 0.10957 0.66159 0.77275 0.0
H386 H 0.97805 0.63363 0.80361 0.0
H387 H 0.90021 0.65041 0.80076 0.0
C388 C 0.67348 0.97937 0.22833 0.0
C389 C 0.73632 0.96274 0.2281 0.0
C390 C 0.75917 0.05353 0.20775 0.0
C391 C 0.70113 0.07773 0.21304 0.0
N392 N 0.60022 0.06299 0.22737 0.0
N393 N 0.83977 0.98164 0.21664 0.0
C394 C 0.65672 0.03991 0.22259 0.0
C395 C 0.77935 -0.00175 0.21707 0.0
N396 N 0.63033 0.93718 0.23411 0.0
N397 N 0.79441 0.08341 0.19378 0.0
H398 H 0.85592 0.941 0.2232 0.0
H399 H 0.87418 0.00984 0.21073 0.0
H400 H 0.77964 0.12399 0.18688 0.0
H401 H 0.83469 0.06507 0.18779 0.0
H402 H 0.58328 0.94497 0.23299 0.0
H403 H 0.64193 0.89199 0.23794 0.0
H404 H 0.56888 0.03989 0.23662 0.0
H405 H 0.58579 0.10676 0.22287 0.0
C406 C 0.05264 0.23645 0.78044 0.0
C407 C 0.07942 0.29404 0.77543 0.0
C408 C 0.99333 0.3199 0.75382 0.0
C409 C 0.96643 0.26162 0.75819 0.0
N410 N 0.96282 0.1697 0.77878 0.0
N411 N 0.06329 0.39925 0.7651 0.0
C412 C 0.99312 0.22191 0.77286 0.0
C413 C 0.04515 0.33899 0.76499 0.0
N414 N 0.08537 0.19535 0.79179 0.0
N415 N 0.97268 0.35511 0.73798 0.0
H416 H 0.10163 0.41459 0.77313 0.0
H417 H 0.03647 0.43467 0.75911 0.0
H418 H 0.93685 0.34202 0.72844 0.0
H419 H 0.99388 0.39574 0.73332 0.0
H420 H 0.07129 0.15037 0.79467 0.0
H421 H 0.12788 0.20677 0.79804 0.0
H422 H 0.97775 0.1409 0.79045 0.0
H423 H 0.92016 0.1572 0.77283 0.0
C424 C 0.30043 0.50678 0.99219 0.0
C425 C 0.25989 0.46769 0.00331 0.0
C426 C 0.25243 0.54579 0.03029 0.0
C427 C 0.29227 0.58429 0.01891 0.0
N428 N 0.364 0.59708 0.99137 0.0
N429 N 0.20451 0.44498 0.03421 0.0
C430 C 0.31986 0.5628 0.0008 0.0
C431 C 0.23882 0.48526 0.02295 0.0
N432 N 0.31756 0.49275 0.97268 0.0
N433 N 0.22555 0.56847 0.04751 0.0
H434 H 0.19138 0.40172 0.02884 0.0
H435 H 0.19198 0.45269 0.04927 0.0
H436 H 0.23672 0.6117 0.05344 0.0
H437 H 0.19084 0.54599 0.05547 0.0
H438 H 0.33723 0.52438 0.96269 0.0
H439 H 0.30952 0.45062 0.96577 0.0
H440 H 0.39338 0.5799 0.98024 0.0
H441 H 0.37399 0.64178 -0.00432 0.0
C442 C 0.49147 0.77058 0.96758 0.0
C443 C 0.46915 0.73698 0.98461 0.0
C444 C 0.54952 0.66003 0.97986 0.0
C445 C 0.57934 0.70029 0.96635 0.0
N446 N 0.57727 0.78841 0.94441 0.0
N447 N 0.4838 0.6535 0.00896 0.0
C448 C 0.54938 0.75379 0.95909 0.0
C449 C 0.49952 0.68229 0.99118 0.0
N450 N 0.45869 0.8194 0.96019 0.0
N451 N 0.56993 0.60097 0.98224 0.0
H452 H 0.44854 0.668 0.01842 0.0
H453 H 0.50891 0.61729 0.01518 0.0
H454 H 0.60724 0.5835 0.97418 0.0
H455 H 0.54563 0.56773 0.99041 0.0
H456 H 0.47043 0.8439 0.94714 0.0
H457 H 0.41749 0.83385 0.96669 0.0
H458 H 0.56086 0.83052 0.93917 0.0
H459 H 0.61789 0.77407 0.93746 0.0
C460 C 0.77409 0.43764 0.02441 0.0
C461 C 0.71131 0.42048 0.02448 0.0
C462 C 0.68336 0.52849 0.01939 0.0
C463 C 0.74451 0.54072 0.01358 0.0
N464 N 0.85062 0.51208 0.01353 0.0
N465 N 0.60443 0.45103 0.02337 0.0
C466 C 0.79094 0.49706 0.01739 0.0
C467 C 0.6652 0.46655 0.02302 0.0
N468 N 0.81705 0.39685 0.03114 0.0
N469 N 0.64284 0.576 0.02113 0.0
H470 H 0.58863 0.40648 0.02605 0.0
H471 H 0.56949 0.48194 0.01979 0.0
H472 H 0.65537 0.6216 0.01821 0.0
H473 H 0.59948 0.57079 0.02755 0.0
H474 H 0.86322 0.40794 0.03288 0.0
H475 H 0.80464 0.35385 0.03695 0.0
H476 H 0.88639 0.48032 0.01359 0.0
H477 H 0.86357 0.55703 0.00981 0.0
C478 C 0.43978 0.23814 0.95869 0.0
C479 C 0.4108 0.29244 0.96593 0.0
C480 C 0.50972 0.32859 0.97871 0.0
C481 C 0.53382 0.26875 0.97616 0.0
N482 N 0.52323 0.16548 0.96334 0.0
N483 N 0.41789 0.38602 0.98582 0.0
C484 C 0.49978 0.22337 0.96564 0.0
C485 C 0.44592 0.33775 0.97632 0.0
N486 N 0.41003 0.20122 0.94513 0.0
N487 N 0.5476 0.3757 0.98439 0.0
H488 H 0.37047 0.39043 0.98649 0.0
H489 H 0.44121 0.41726 -0.00492 0.0
H490 H 0.59476 0.36928 0.98632 0.0
H491 H 0.53329 0.4215 0.985 0.0
H492 H 0.4307 0.16386 0.93793 0.0
H493 H 0.3666 0.2123 0.93966 0.0
H494 H 0.49749 0.12835 0.95798 0.0
H495 H 0.56786 0.15426 0.96776 0.0
C496 C 0.81787 0.51156 0.73402 0.0
C497 C 0.76322 0.53919 0.72713 0.0
C498 C 0.73865 0.44443 0.7085 0.0
C499 C 0.78583 0.4136 0.71941 0.0
N500 N 0.85756 0.41696 0.7475 0.0
N501 N 0.67 0.5329 0.70771 0.0
C502 C 0.82281 0.44692 0.73333 0.0
C503 C 0.7234 0.5062 0.71401 0.0
N504 N 0.86325 0.54682 0.74233 0.0
N505 N 0.70806 0.41447 0.69332 0.0
H506 H 0.65956 0.57875 0.71108 0.0
H507 H 0.6356 0.50906 0.69999 0.0
H508 H 0.71874 0.36934 0.68919 0.0
H509 H 0.67603 0.43585 0.68389 0.0
H510 H 0.9055 0.52863 0.74677 0.0
H511 H 0.86075 0.59484 0.74233 0.0
H512 H 0.88129 0.43997 0.75902 0.0
H513 H 0.85651 0.36923 0.74923 0.0
C514 C 0.48256 0.29362 0.25191 0.0
C515 C 0.53052 0.25541 0.25856 0.0
C516 C 0.45666 0.1995 0.27974 0.0
C517 C 0.4079 0.22675 0.26837 0.0
N518 N 0.38269 0.28473 0.23753 0.0
N519 N 0.56368 0.16855 0.27867 0.0
C520 C 0.42267 0.27056 0.2529 0.0
C521 C 0.5181 0.20756 0.27269 0.0
N522 N 0.49491 0.34868 0.24273 0.0
N523 N 0.44519 0.16792 0.2973 0.0
H524 H 0.60914 0.17434 0.27409 0.0
H525 H 0.55533 0.1289 0.28723 0.0
H526 H 0.40166 0.16508 0.30378 0.0
H527 H 0.48011 0.15101 0.30661 0.0
H528 H 0.46033 0.37913 0.23829 0.0
H529 H 0.53966 0.36564 0.24164 0.0
H530 H 0.39435 0.31447 0.22565 0.0
H531 H 0.34289 0.2595 0.23463 0.0
C532 C 0.26789 0.55068 0.70946 0.0
C533 C 0.20753 0.57301 0.71243 0.0
C534 C 0.17527 0.47005 0.72296 0.0
C535 C 0.23754 0.45376 0.72534 0.0
N536 N 0.3439 0.47354 0.71847 0.0
N537 N 0.10172 0.55322 0.72141 0.0
C538 C 0.2842 0.49216 0.71749 0.0
C539 C 0.16006 0.53208 0.71843 0.0
N540 N 0.30889 0.58549 0.69883 0.0
N541 N 0.13097 0.42617 0.7252 0.0
H542 H 0.0884 0.59829 0.71818 0.0
H543 H 0.06738 0.52687 0.72823 0.0
H544 H 0.14143 0.38041 0.7287 0.0
H545 H 0.08534 0.43391 0.72129 0.0
H546 H 0.3519 0.5695 0.69445 0.0
H547 H 0.29651 0.62781 0.69251 0.0
H548 H 0.38094 0.50211 0.71505 0.0
H549 H 0.35599 0.42933 0.72329 0.0
C550 C 0.50571 0.71284 0.27059 0.0
C551 C 0.46469 0.76056 0.26546 0.0
C552 C 0.54108 0.83892 0.27383 0.0
C553 C 0.58535 0.7912 0.27547 0.0
N554 N 0.60982 0.68384 0.27993 0.0
N555 N 0.43368 0.866 0.26908 0.0
C556 C 0.56727 0.72824 0.27565 0.0
C557 C 0.4792 0.82279 0.26959 0.0
N558 N 0.48502 0.65337 0.27045 0.0
N559 N 0.559 0.8993 0.27472 0.0
H560 H 0.38815 0.85451 0.2659 0.0
H561 H 0.4395 0.91175 0.27341 0.0
H562 H 0.60375 0.91287 0.2781 0.0
H563 H 0.5305 0.9363 0.27129 0.0
H564 H 0.51126 0.61521 0.27439 0.0
H565 H 0.43927 0.6427 0.26722 0.0
H566 H 0.60167 0.6367 0.2791 0.0
H567 H 0.65426 0.69475 0.28465 0.0
C568 C 0.79378 0.00556 0.48894 0.0
C569 C 0.74974 0.96871 0.49924 0.0
C570 C 0.74302 0.04584 0.52638 0.0
C571 C 0.78128 0.0852 0.51469 0.0
N572 N 0.83183 0.10731 0.48265 0.0
N573 N 0.67878 0.95415 0.527 0.0
C574 C 0.80431 0.0661 0.49554 0.0
C575 C 0.72418 0.98822 0.51803 0.0
N576 N 0.82528 0.98334 0.4725 0.0
N577 N 0.72262 0.06496 0.54497 0.0
H578 H 0.6634 0.91221 0.52116 0.0
H579 H 0.65355 0.9688 0.53953 0.0
H580 H 0.73081 0.1093 0.55038 0.0
H581 H 0.70005 0.03654 0.55532 0.0
H582 H 0.86417 0.00488 0.46659 0.0
H583 H 0.81647 0.94102 0.46574 0.0
H584 H 0.84116 0.09805 0.4674 0.0
H585 H 0.84049 0.15287 0.48645 0.0
C586 C 0.05073 0.26744 0.46219 0.0
C587 C 0.07403 0.20727 0.46543 0.0
C588 C 0.9848 0.17996 0.4856 0.0
C589 C 0.96215 0.24118 0.48333 0.0
N590 N 0.96574 0.33933 0.46624 0.0
N591 N 0.05296 0.10082 0.47298 0.0
C592 C 0.9922 0.28354 0.47027 0.0
C593 C 0.03706 0.16155 0.47447 0.0
N594 N 0.08587 0.30922 0.45194 0.0
N595 N 0.95936 0.14057 0.49949 0.0
H596 H 0.09167 0.086 0.46509 0.0
H597 H 0.02448 0.06493 0.47769 0.0
H598 H 0.9221 0.15214 0.50854 0.0
H599 H 0.97803 0.09789 0.50323 0.0
H600 H 0.07498 0.35566 0.45053 0.0
H601 H 0.12697 0.29653 0.44497 0.0
H602 H 0.98309 0.37106 0.45585 0.0
H603 H 0.92373 0.35245 0.47248 0.0
C604 C 0.2472 0.92699 0.52449 0.0
C605 C 0.18355 0.9133 0.52453 0.0
C606 C 0.16066 0.02001 0.51527 0.0
C607 C 0.22368 0.02903 0.51081 0.0
N608 N 0.32847 0.99552 0.513 0.0
N609 N 0.07866 0.94651 0.52171 0.0
C610 C 0.26764 0.98412 0.51633 0.0
C611 C 0.13982 0.96022 0.52093 0.0
N612 N 0.28759 0.8849 0.53221 0.0
N613 N 0.12108 0.06858 0.5139 0.0
H614 H 0.06243 0.90364 0.52654 0.0
H615 H 0.0443 0.97637 0.51683 0.0
H616 H 0.13544 0.11264 0.50963 0.0
H617 H 0.07566 0.06666 0.51873 0.0
H618 H 0.33443 0.89289 0.53384 0.0
H619 H 0.27287 0.84361 0.53876 0.0
H620 H 0.36271 0.96236 0.51434 0.0
H621 H 0.34439 0.03865 0.50832 0.0
C622 C 0.97766 0.70113 0.46932 0.0
C623 C 0.01331 0.74687 0.47913 0.0
C624 C 0.92984 0.82002 0.47704 0.0
C625 C 0.89378 0.77567 0.46669 0.0
N626 N 0.88849 0.67972 0.44837 0.0
N627 N 0.03242 0.85499 0.48442 0.0
C628 C 0.91962 0.71805 0.46117 0.0
C629 C 0.99262 0.80838 0.4799 0.0
N630 N -0.00274 0.64141 0.46892 0.0
N631 N 0.90332 0.86931 0.4864 0.0
H632 H 0.07929 0.84714 0.48632 0.0
H633 H 0.01974 0.90132 0.48387 0.0
H634 H 0.85597 0.87375 0.48764 0.0
H635 H 0.92788 0.90031 0.49541 0.0
H636 H 0.96978 0.60492 0.46406 0.0
H637 H 0.04009 0.6281 0.47448 0.0
H638 H 0.90744 0.63959 0.44238 0.0
H639 H 0.84587 0.69158 0.44234 0.0
C640 C 0.1857 0.20905 0.36547 0.0
C641 C 0.22909 0.21419 0.34941 0.0
C642 C 0.31288 0.21704 0.37432 0.0
C643 C 0.26914 0.21474 0.39028 0.0
N644 N 0.16441 0.2309 0.40085 0.0
N645 N 0.33139 0.24419 0.33912 0.0
C646 C 0.20565 0.21836 0.38575 0.0
C647 C 0.29196 0.22506 0.35402 0.0
N648 N 0.12662 0.19094 0.36177 0.0
N649 N 0.3738 0.20798 0.37822 0.0
H650 H 0.31702 0.25354 0.32427 0.0
H651 H 0.37651 0.25748 0.34207 0.0
H652 H 0.39127 0.20049 0.39279 0.0
H653 H 0.40629 0.20251 0.36673 0.0
H654 H 0.09572 0.18051 0.37338 0.0
H655 H 0.10994 0.17989 0.34738 0.0
H656 H 0.11807 0.23921 0.39801 0.0
H657 H 0.17789 0.23994 0.4158 0.0
C658 C 0.20389 0.81624 0.62209 0.0
C659 C 0.21437 0.77438 0.63828 0.0
C660 C 0.21941 0.68814 0.61435 0.0
C661 C 0.20875 0.72997 0.59815 0.0
N662 N 0.21121 0.83464 0.58581 0.0
N663 N 0.25113 0.67526 0.64946 0.0
C664 C 0.20769 0.79444 0.60179 0.0
C665 C 0.22865 0.7118 0.63423 0.0
N666 N 0.18668 0.87559 0.62603 0.0
N667 N 0.21689 0.62598 0.61105 0.0
H668 H 0.25943 0.69202 0.66411 0.0
H669 H 0.26738 0.63072 0.64708 0.0
H670 H 0.20965 0.60661 0.59673 0.0
H671 H 0.21729 0.59361 0.62278 0.0
H672 H 0.17141 0.9058 0.61478 0.0
H673 H 0.18336 0.89349 0.64071 0.0
H674 H 0.21588 0.88213 0.5876 0.0
H675 H 0.21628 0.81972 0.57082 0.0
C676 C 0.80503 0.7599 0.36365 0.0
C677 C 0.76607 0.77219 0.3469 0.0
C678 C 0.67683 0.77745 0.36919 0.0
C679 C 0.71582 0.7659 0.38606 0.0
N680 N 0.81111 0.72404 0.3985 0.0
N681 N 0.66409 0.76686 0.33279 0.0
C682 C 0.77811 0.74952 0.38295 0.0
C683 C 0.70153 0.77243 0.34937 0.0
N684 N 0.86735 0.76163 0.36147 0.0
N685 N 0.6179 0.79725 0.37188 0.0
H686 H 0.68153 0.75918 0.31824 0.0
H687 H 0.6166 0.76208 0.33387 0.0
H688 H 0.59763 0.80292 0.38609 0.0
H689 H 0.59058 0.81285 0.3599 0.0
H690 H 0.89755 0.75961 0.37376 0.0
H691 H 0.88894 0.76968 0.34756 0.0
H692 H 0.85539 0.70682 0.39673 0.0
H693 H 0.79121 0.71404 0.41257 0.0
C694 C 0.80115 0.17219 0.62684 0.0
C695 C 0.77397 0.21037 0.64172 0.0
C696 C 0.72889 0.27504 0.61494 0.0
C697 C 0.76421 0.24217 0.60039 0.0
N698 N 0.79833 0.13921 0.59196 0.0
N699 N 0.70813 0.29519 0.6507 0.0
C700 C 0.78957 0.18434 0.60612 0.0
C701 C 0.73615 0.26075 0.63599 0.0
N702 N 0.84111 0.12658 0.63236 0.0
N703 N 0.68442 0.31498 0.60856 0.0
H704 H 0.70873 0.2828 0.66606 0.0
H705 H 0.68638 0.33703 0.64791 0.0
H706 H 0.67085 0.31798 0.59338 0.0
H707 H 0.65489 0.3383 0.6183 0.0
H708 H 0.8675 0.10229 0.62185 0.0
H709 H 0.85231 0.11689 0.64745 0.0
H710 H 0.81193 0.09454 0.59568 0.0
H711 H 0.78294 0.14366 0.57705 0.0
C712 C 0.28357 0.26406 0.8844 0.0
C713 C 0.22162 0.27995 0.88833 0.0
C714 C 0.20299 0.28619 0.85181 0.0
C715 C 0.26733 0.28473 0.84833 0.0
N716 N 0.37028 0.27858 0.86205 0.0
N717 N 0.12267 0.31264 0.87547 0.0
C718 C 0.30824 0.27456 0.86477 0.0
C719 C 0.18095 0.29205 0.87197 0.0
N720 N 0.31837 0.23818 0.89941 0.0
N721 N 0.16294 0.28064 0.8359 0.0
H722 H 0.10442 0.31871 0.88997 0.0
H723 H 0.09411 0.32871 0.86389 0.0
H724 H 0.17764 0.27335 0.82101 0.0
H725 H 0.11568 0.27606 0.83783 0.0
H726 H 0.3625 0.22126 0.89699 0.0
H727 H 0.29985 0.22713 0.9136 0.0
H728 H 0.40136 0.27763 0.87412 0.0
H729 H 0.39057 0.28868 0.84808 0.0
C730 C 0.24001 0.76853 0.11265 0.0
C731 C 0.29486 0.77925 0.1016 0.0
C732 C 0.35568 0.7389 0.12979 0.0
C733 C 0.30188 0.73388 0.14173 0.0
N734 N 0.19364 0.75448 0.14591 0.0
N735 N 0.40504 0.79153 0.10196 0.0
C736 C 0.24402 0.75157 0.13358 0.0
C737 C 0.35276 0.76972 0.11093 0.0
N738 N 0.18451 0.77246 0.10306 0.0
N739 N 0.40924 0.71213 0.13611 0.0
H740 H 0.40444 0.81683 0.08846 0.0
H741 H 0.44779 0.79065 0.10908 0.0
H742 H 0.41266 0.68628 0.14947 0.0
H743 H 0.44824 0.70974 0.12697 0.0
H744 H 0.14347 0.75859 0.10979 0.0
H745 H 0.18006 0.7856 0.08785 0.0
H746 H 0.15189 0.77312 0.14124 0.0
H747 H 0.19489 0.74299 0.16132 0.0
C748 C 0.77223 0.63803 0.87708 0.0
C749 C 0.77312 0.69417 0.88816 0.0
C750 C 0.73913 0.74971 0.85765 0.0
C751 C 0.73147 0.69246 0.84752 0.0
N752 N 0.7264 0.58133 0.84939 0.0
N753 N 0.74712 0.80226 0.8901 0.0
C754 C 0.74391 0.63635 0.85775 0.0
C755 C 0.75394 0.74993 0.87876 0.0
N756 N 0.80004 0.5865 0.88474 0.0
N757 N 0.73427 0.80367 0.84702 0.0
H758 H 0.75644 0.80411 0.90566 0.0
H759 H 0.72711 0.84237 0.88444 0.0
H760 H 0.7237 0.80524 0.83154 0.0
H761 H 0.74578 0.84642 0.85316 0.0
H762 H 0.8062 0.54637 0.87628 0.0
H763 H 0.82263 0.58573 0.89873 0.0
H764 H 0.72881 0.53962 0.85723 0.0
H765 H 0.70328 0.57802 0.83552 0.0
C766 C 0.72188 0.28646 0.10082 0.0
C767 C 0.71134 0.22306 0.09682 0.0
C768 C 0.71055 0.20212 0.13327 0.0
C769 C 0.70834 0.26656 0.13712 0.0
N770 N 0.70541 0.3709 0.12414 0.0
N771 N 0.69058 0.12025 0.10923 0.0
C772 C 0.71319 0.30921 0.12083 0.0
C773 C 0.70516 0.18047 0.11302 0.0
N774 N 0.74044 0.3247 0.08545 0.0
N775 N 0.71884 0.16168 0.14898 0.0
H776 H 0.68642 0.10215 0.0946 0.0
H777 H 0.67806 0.08925 0.12062 0.0
H778 H 0.72429 0.17628 0.16397 0.0
H779 H 0.72668 0.11474 0.14689 0.0
H780 H 0.75398 0.37021 0.08782 0.0
H781 H 0.74851 0.30889 0.07068 0.0
H782 H 0.70188 0.403 0.11239 0.0
H783 H 0.69686 0.38962 0.13846 0.0
C784 C 0.26724 0.43803 0.27428 0.0
C785 C 0.20399 0.42443 0.27659 0.0
C786 C 0.17892 0.53126 0.26824 0.0
C787 C 0.23982 0.53974 0.26119 0.0
N788 N 0.34404 0.50392 0.25861 0.0
N789 N 0.09872 0.45777 0.27654 0.0
C790 C 0.28498 0.49422 0.26485 0.0
C791 C 0.15955 0.47141 0.27434 0.0
N792 N 0.30979 0.39655 0.28099 0.0
N793 N 0.13967 0.58015 0.26893 0.0
H794 H 0.08343 0.41473 0.28152 0.0
H795 H 0.06365 0.48801 0.2725 0.0
H796 H 0.15218 0.62424 0.26411 0.0
H797 H 0.09722 0.57809 0.27616 0.0
H798 H 0.35688 0.4047 0.28092 0.0
H799 H 0.29698 0.35622 0.28858 0.0
H800 H 0.37764 0.46985 0.25867 0.0
H801 H 0.35878 0.54589 0.25254 0.0
C802 C 0.44231 0.72997 0.70995 0.0
C803 C 0.41896 0.78993 0.71281 0.0
C804 C 0.51736 0.8225 0.72701 0.0
C805 C 0.53326 0.75947 0.72916 0.0
N806 N 0.51462 0.6525 0.72122 0.0
N807 N 0.43686 0.8972 0.72067 0.0
C808 C 0.49763 0.71293 0.71976 0.0
C809 C 0.45781 0.83791 0.71986 0.0
N810 N 0.41169 0.69019 0.69752 0.0
N811 N 0.55938 0.867 0.73185 0.0
H812 H 0.39435 0.91052 0.71493 0.0
H813 H 0.46057 0.93327 0.72754 0.0
H814 H 0.60363 0.85628 0.73674 0.0
H815 H 0.55286 0.91388 0.72931 0.0
H816 H 0.42943 0.64769 0.69313 0.0
H817 H 0.37218 0.70376 0.68971 0.0
H818 H 0.48647 0.61609 0.71674 0.0
H819 H 0.55586 0.63867 0.72785 0.0
C820 C 0.72706 0.49265 0.26935 0.0
C821 C 0.7672 0.46322 0.25546 0.0
C822 C 0.83175 0.55383 0.25393 0.0
C823 C 0.79405 0.58338 0.26847 0.0
N824 N 0.7139 0.57638 0.29357 0.0
N825 N 0.8693 0.45643 0.24171 0.0
C826 C 0.74444 0.551 0.27752 0.0
C827 C 0.82393 0.49052 0.25048 0.0
N828 N 0.6715 0.46686 0.2738 0.0
N829 N 0.86999 0.58695 0.24165 0.0
H830 H 0.86467 0.40905 0.23939 0.0
H831 H 0.91315 0.47409 0.23909 0.0
H832 H 0.87099 0.63488 0.24174 0.0
H833 H 0.89451 0.56719 0.2297 0.0
H834 H 0.63759 0.48959 0.28204 0.0
H835 H 0.65815 0.42389 0.26819 0.0
H836 H 0.68002 0.55311 0.30172 0.0
H837 H 0.72659 0.61883 0.29978 0.0
C838 C 0.53616 0.15319 0.72111 0.0
C839 C 0.57917 0.20096 0.71735 0.0
C840 C 0.50146 0.2794 0.72397 0.0
C841 C 0.46036 0.23177 0.72946 0.0
N842 N 0.42953 0.12565 0.72674 0.0
N843 N 0.59964 0.307 0.70902 0.0
C844 C 0.47466 0.16928 0.72564 0.0
C845 C 0.56046 0.26345 0.71661 0.0
N846 N 0.55501 0.09315 0.7219 0.0
N847 N 0.48463 0.33945 0.72667 0.0
H848 H 0.64282 0.29556 0.7033 0.0
H849 H 0.5878 0.35297 0.70678 0.0
H850 H 0.44012 0.35167 0.73086 0.0
H851 H 0.51455 0.37665 0.72527 0.0
H852 H 0.5275 0.0572 0.72714 0.0
H853 H 0.59961 0.07952 0.71839 0.0
H854 H 0.43574 0.07989 0.72244 0.0
H855 H 0.38414 0.13672 0.73021 0.0
C856 C 0.26595 0.05921 0.96346 0.0
C857 C 0.20349 0.0765 0.96351 0.0
C858 C 0.17449 0.97391 0.97522 0.0
C859 C 0.23705 0.96287 0.97988 0.0
N860 N 0.34381 0.9902 0.97665 0.0
N861 N 0.09671 0.04941 0.96632 0.0
C862 C 0.28351 0.00344 0.97302 0.0
C863 C 0.15701 0.033 0.96799 0.0
N864 N 0.30786 0.09664 0.95423 0.0
N865 N 0.13246 0.92776 0.97777 0.0
H866 H 0.083 0.09182 0.96038 0.0
H867 H 0.06037 0.02226 0.97138 0.0
H868 H 0.14498 0.88384 0.98274 0.0
H869 H 0.08667 0.93098 0.9734 0.0
H870 H 0.35375 0.08492 0.95222 0.0
H871 H 0.29446 0.13681 0.9467 0.0
H872 H 0.37949 0.02137 0.97431 0.0
H873 H 0.35797 0.9482 0.98275 0.0
C874 C 0.05814 0.73226 0.02468 0.0
C875 C 0.07936 0.79397 0.02413 0.0
C876 C 0.98064 0.82865 0.0106 0.0
C877 C 0.96415 0.76608 0.00763 0.0
N878 N 0.97987 0.65836 0.0144 0.0
N879 N 0.06109 0.90222 0.01888 0.0
C880 C 0.00032 0.71779 0.0158 0.0
C881 C 0.04004 0.84284 0.01823 0.0
N882 N 0.09419 0.68801 0.03346 0.0
N883 N 0.93929 0.87398 0.00603 0.0
H884 H 0.10354 0.91391 0.02514 0.0
H885 H 0.0379 0.93976 0.01272 0.0
H886 H 0.89535 0.86435 0.00054 0.0
H887 H 0.9462 0.92055 0.00903 0.0
H888 H 0.08164 0.64205 0.03516 0.0
H889 H 0.13619 0.69853 0.04031 0.0
H890 H 0.00546 0.61982 0.01841 0.0
H891 H 0.93612 0.64754 0.00904 0.0
C892 C 0.81414 0.02429 0.97031 0.0
C893 C 0.75241 0.03661 0.97564 0.0
C894 C 0.72131 0.93763 0.96131 0.0
C895 C 0.78375 0.91952 0.96087 0.0
N896 N 0.89104 0.94611 0.9641 0.0
N897 N 0.64556 0.0094 0.97439 0.0
C898 C 0.8308 0.96347 0.96452 0.0
C899 C 0.70524 0.99494 0.97024 0.0
N900 N 0.8567 0.07049 0.9711 0.0
N901 N 0.67786 0.89936 0.95328 0.0
H902 H 0.63277 0.05274 0.97978 0.0
H903 H 0.60935 0.97828 0.9731 0.0
H904 H 0.68962 0.85776 0.94633 0.0
H905 H 0.63187 0.91135 0.95174 0.0
H906 H 0.90129 0.06591 0.96561 0.0
H907 H 0.84564 0.11527 0.97553 0.0
H908 H 0.92675 0.97391 0.96932 0.0
H909 H 0.90534 0.90247 0.95955 0.0
C910 C 0.01466 0.16945 0.00931 0.0
C911 C 0.03301 0.23211 0.00909 0.0
C912 C 0.94134 0.25852 0.02839 0.0
C913 C 0.91556 0.20118 0.02287 0.0
N914 N 0.92988 0.0973 0.01061 0.0
N915 N 0.01738 0.33651 0.02056 0.0
C916 C 0.9533 0.15451 0.01453 0.0
C917 C -0.00184 0.27669 0.0197 0.0
N918 N 0.05626 0.12472 0.0046 0.0
N919 N 0.91224 0.29413 0.04243 0.0
H920 H 0.05967 0.35084 0.01483 0.0
H921 H 0.99005 0.37205 0.02616 0.0
H922 H 0.87194 0.27926 0.04952 0.0
H923 H 0.93175 0.33376 0.04865 0.0
H924 H 0.04752 0.07779 0.00629 0.0
H925 H 0.10184 0.13519 0.00114 0.0
H926 H 0.95342 0.06367 0.00246 0.0
H927 H 0.88561 0.08417 0.01476 0.0
C928 C 0.78395 0.98934 0.77025 0.0
C929 C 0.73803 0.03149 0.76408 0.0
C930 C 0.65705 0.95934 0.77407 0.0
C931 C 0.70292 0.91506 0.77831 0.0
N932 N 0.80765 0.89145 0.78656 0.0
N933 N 0.63318 0.06569 0.76554 0.0
C934 C 0.76578 0.93174 0.77864 0.0
C935 C 0.67517 0.01954 0.76802 0.0
N936 N 0.84434 0.00304 0.76689 0.0
N937 N 0.59664 0.94238 0.77453 0.0
H938 H 0.64592 0.11017 0.76117 0.0
H939 H 0.58702 0.06165 0.76937 0.0
H940 H 0.58244 0.89908 0.77964 0.0
H941 H 0.56094 0.96988 0.76923 0.0
H942 H 0.87999 0.97172 0.76884 0.0
H943 H 0.85863 0.04587 0.76138 0.0
H944 H 0.854 0.90157 0.78843 0.0
H945 H 0.79447 0.84931 0.79291 0.0
C946 C 0.95887 0.33151 0.21493 0.0
C947 C 0.91701 0.28229 0.21197 0.0
C948 C -0.0035 0.20827 0.22181 0.0
C949 C 0.03132 0.2579 0.22965 0.0
N950 N 0.0498 0.36719 0.23261 0.0
N951 N 0.89818 0.17384 0.20876 0.0
C952 C 0.01426 0.31976 0.22558 0.0
C953 C 0.93719 0.22048 0.21389 0.0
N954 N 0.94616 0.38895 0.20753 0.0
N955 N 0.01984 0.14988 0.22225 0.0
H956 H 0.85679 0.18279 0.20139 0.0
H957 H 0.90592 0.12761 0.2121 0.0
H958 H 0.06316 0.14011 0.22814 0.0
H959 H -0.00117 0.11204 0.21545 0.0
H960 H 0.97756 0.42518 0.20778 0.0
H961 H 0.90686 0.39904 0.19918 0.0
H962 H 0.03571 0.41305 0.23262 0.0
H963 H 0.09256 0.36025 0.23936 0.0
C964 C 0.22952 0.04903 0.77796 0.0
C965 C 0.28952 0.0728 0.77522 0.0
C966 C 0.32352 0.97233 0.7629 0.0
C967 C 0.26136 0.95543 0.76041 0.0
N968 N 0.15552 0.96898 0.76938 0.0
N969 N 0.3964 0.05555 0.76706 0.0
C970 C 0.21432 0.99076 0.76944 0.0
C971 C 0.33787 0.03349 0.76885 0.0
N972 N 0.18793 0.08253 0.7888 0.0
N973 N 0.36838 0.92961 0.75967 0.0
H974 H 0.40933 0.09969 0.77157 0.0
H975 H 0.43178 0.03107 0.76015 0.0
H976 H 0.35832 0.88436 0.75541 0.0
H977 H 0.41439 0.93703 0.76322 0.0
H978 H 0.14443 0.06662 0.79266 0.0
H979 H 0.19984 0.12434 0.7956 0.0
H980 H 0.11777 0.99427 0.77424 0.0
H981 H 0.14456 0.92493 0.7641 0.0
C982 C 0.00331 0.68363 0.23745 0.0
C983 C 0.97378 0.74038 0.23273 0.0
C984 C 0.05737 0.76663 0.20936 0.0
C985 C 0.08637 0.71049 0.21461 0.0
N986 N 0.07624 0.60642 0.22669 0.0
N987 N 0.9659 0.83073 0.21149 0.0
C988 C 0.05503 0.66561 0.22607 0.0
C989 C -0.00183 0.77991 0.2175 0.0
N990 N 0.98523 0.64896 0.25377 0.0
N991 N 0.08768 0.80755 0.1972 0.0
H992 H 0.92349 0.84231 0.21775 0.0
H993 H 0.97908 0.85928 0.19952 0.0
H994 H 0.12941 0.79641 0.19033 0.0
H995 H 0.07238 0.85203 0.19417 0.0
H996 H 0.00869 0.61001 0.25874 0.0
H997 H 0.94932 0.66102 0.26336 0.0
H998 H 0.05186 0.57035 0.23339 0.0
H999 H 0.11491 0.59231 0.2186 0.0
C1000 C 0.64111 0.54117 0.4777 0.0
C1001 C 0.68343 0.57688 0.46651 0.0
C1002 C 0.76597 0.50481 0.47414 0.0
C1003 C 0.7244 0.47065 0.48635 0.0
N1004 N 0.61903 0.44262 0.49314 0.0
N1005 N 0.77771 0.58251 0.44783 0.0
C1006 C 0.6607 0.48446 0.48604 0.0
C1007 C 0.74313 0.55492 0.46254 0.0
N1008 N 0.58312 0.56281 0.48104 0.0
N1009 N 0.82735 0.49204 0.47459 0.0
H1010 H 0.76084 0.61904 0.43912 0.0
H1011 H 0.81954 0.56495 0.44286 0.0
H1012 H 0.8459 0.45597 0.48308 0.0
H1013 H 0.86031 0.5199 0.46769 0.0
H1014 H 0.55261 0.54263 0.49128 0.0
H1015 H 0.56665 0.60282 0.47409 0.0
H1016 H 0.57175 0.44801 0.49159 0.0
H1017 H 0.63191 0.39938 0.49851 0.0
C1018 C 0.52825 0.32472 0.52568 0.0
C1019 C 0.57565 0.28005 0.52615 0.0
C1020 C 0.50478 0.20035 0.51414 0.0
C1021 C 0.45963 0.2464 0.51135 0.0
N1022 N 0.42018 0.34659 0.52013 0.0
N1023 N 0.60574 0.17356 0.52725 0.0
C1024 C 0.46855 0.30667 0.5192 0.0
C1025 C 0.56254 0.21698 0.52255 0.0
N1026 N 0.54136 0.38485 0.53013 0.0
N1027 N 0.49244 0.14129 0.50823 0.0
H1028 H 0.64763 0.18521 0.53396 0.0
H1029 H 0.59873 0.12625 0.52611 0.0
H1030 H 0.44857 0.12772 0.50372 0.0
H1031 H 0.52496 0.10629 0.50758 0.0
H1032 H 0.5112 0.42121 0.52763 0.0
H1033 H 0.58403 0.39905 0.53559 0.0
H1034 H 0.42202 0.38933 0.52727 0.0
H1035 H 0.37627 0.33501 0.5151 0.0
C1036 C 0.21036 0.49435 0.47097 0.0
C1037 C 0.25219 0.53058 0.48232 0.0
C1038 C 0.33288 0.45349 0.47746 0.0
C1039 C 0.28932 0.41505 0.46766 0.0
N1040 N 0.1967 0.40748 0.44814 0.0
N1041 N 0.35709 0.55531 0.4906 0.0
C1042 C 0.23117 0.43848 0.46212 0.0
C1043 C 0.31501 0.51376 0.48352 0.0
N1044 N 0.15039 0.51197 0.46944 0.0
N1045 N 0.38995 0.43118 0.48192 0.0
H1046 H 0.34498 0.59993 0.49484 0.0
H1047 H 0.40427 0.54792 0.49043 0.0
H1048 H 0.40503 0.38809 0.47701 0.0
H1049 H 0.42152 0.45405 0.49113 0.0
H1050 H 0.11613 0.48384 0.46339 0.0
H1051 H 0.13458 0.55397 0.47511 0.0
H1052 H 0.15671 0.4254 0.44179 0.0
H1053 H 0.21239 0.36708 0.44127 0.0
C1054 C 0.45363 0.77871 0.49211 0.0
C1055 C 0.50612 0.75802 0.50252 0.0
C1056 C 0.43962 0.7109 0.52829 0.0
C1057 C 0.38852 0.72095 0.51522 0.0
N1058 N 0.35508 0.74537 0.48077 0.0
N1059 N 0.55023 0.69861 0.52999 0.0
C1060 C 0.39767 0.74969 0.49601 0.0
C1061 C 0.49977 0.7228 0.52064 0.0
N1062 N 0.45785 0.82412 0.47781 0.0
N1063 N 0.43108 0.69187 0.54789 0.0
H1064 H 0.59478 0.70713 0.52494 0.0
H1065 H 0.54735 0.66713 0.54195 0.0
H1066 H 0.38772 0.68452 0.55413 0.0
H1067 H 0.46679 0.689 0.55842 0.0
H1068 H 0.41943 0.84319 0.47071 0.0
H1069 H 0.49913 0.84671 0.47493 0.0
H1070 H 0.36284 0.76265 0.46617 0.0
H1071 H 0.31637 0.71732 0.48176 0.0
C1072 C 0.02191 0.02492 0.31608 0.0
C1073 C 0.04467 0.04784 0.29729 0.0
C1074 C 0.9813 0.97281 0.27865 0.0
C1075 C 0.95428 0.95397 0.29733 0.0
N1076 N 0.94456 0.96385 0.33367 0.0
N1077 N 0.04495 0.04668 0.26057 0.0
C1078 C 0.97364 0.98029 0.31604 0.0
C1079 C 0.02408 0.0225 0.27854 0.0
N1080 N 0.04741 0.04501 0.33391 0.0
N1081 N 0.96719 0.94185 0.26109 0.0
H1082 H 0.07851 0.08093 0.25983 0.0
H1083 H 0.02692 0.03545 0.24638 0.0
H1084 H 0.93548 0.90583 0.2605 0.0
H1085 H 0.9899 0.94833 0.24732 0.0
H1086 H 0.0375 0.0261 0.3481 0.0
H1087 H 0.08218 0.07806 0.33437 0.0
H1088 H 0.95157 0.98576 0.34757 0.0
H1089 H 0.91026 0.93025 0.33418 0.0
C1090 C 0.95041 0.99466 0.67855 0.0
C1091 C 0.94845 0.03902 0.69446 0.0
C1092 C 0.03808 0.99023 0.71056 0.0
C1093 C 0.04311 0.94916 0.6938 0.0
N1094 N 0.01021 0.91795 0.66035 0.0
N1095 N 0.99238 0.08199 0.72509 0.0
C1096 C 0.00079 0.9528 0.67739 0.0
C1097 C 0.99321 0.03788 0.71021 0.0
N1098 N 0.90357 0.99183 0.66472 0.0
N1099 N 0.0738 0.98141 0.72744 0.0
H1100 H 0.9568 0.11356 0.72677 0.0
H1101 H 0.0284 0.08942 0.73523 0.0
H1102 H 0.10703 0.94706 0.7285 0.0
H1103 H 0.06696 0.0045 0.74112 0.0
H1104 H 0.89867 0.95648 0.65413 0.0
H1105 H 0.86674 0.02239 0.6648 0.0
H1106 H 0.98507 0.92303 0.64697 0.0
H1107 H 0.04684 0.88734 0.65893 0.0
C1108 C 0.02045 0.47658 0.92293 0.0
C1109 C 0.03552 0.4444 0.94112 0.0
C1110 C 0.97216 0.51593 0.96097 0.0
C1111 C 0.95279 0.54459 0.94269 0.0
N1112 N 0.9564 0.55331 0.90619 0.0
N1113 N 0.0232 0.43023 0.97741 0.0
C1114 C 0.97658 0.52537 0.92362 0.0
C1115 C 0.01047 0.46307 0.96011 0.0
N1116 N 0.04878 0.46086 0.90511 0.0
N1117 N 0.95621 0.54134 0.97925 0.0
H1118 H 0.05456 0.39405 0.97793 0.0
H1119 H -5e-05 0.43638 0.99109 0.0
H1120 H 0.92801 0.57995 0.98041 0.0
H1121 H 0.97508 0.52795 0.99313 0.0
H1122 H 0.04512 0.48605 0.89168 0.0
H1123 H 0.07877 0.42362 0.90394 0.0
H1124 H 0.96586 0.53744 0.89159 0.0
H1125 H 0.92788 0.59186 0.90637 0.0
C1126 C 0.46984 0.97401 0.02736 0.0
C1127 C 0.44569 0.95687 0.04663 0.0
C1128 C 0.51671 0.02854 0.0635 0.0
C1129 C 0.53701 0.04916 0.0441 0.0
N1130 N 0.52633 0.04932 0.00755 0.0
N1131 N 0.44084 0.9708 0.08293 0.0
C1132 C 0.51165 0.02412 0.02602 0.0
C1133 C 0.46778 0.98487 0.06472 0.0
N1134 N 0.45443 0.94088 0.01039 0.0
N1135 N 0.54477 0.05028 0.08069 0.0
H1136 H 0.4058 0.93821 0.08429 0.0
H1137 H 0.45022 0.99392 0.09646 0.0
H1138 H 0.57902 0.08392 0.0803 0.0
H1139 H 0.5369 0.03266 0.0952 0.0
H1140 H 0.47602 0.94635 -0.00364 0.0
H1141 H 0.4235 0.90416 0.01067 0.0
H1142 H 0.50407 0.03781 0.99403 0.0
H1143 H 0.55746 0.08556 0.0059 0.0
C1144 C 0.52552 0.51691 0.77577 0.0
C1145 C 0.54856 0.5388 0.79463 0.0
C1146 C 0.4843 0.46413 0.813 0.0
C1147 C 0.45681 0.44684 0.79423 0.0
N1148 N 0.44659 0.45987 0.75789 0.0
N1149 N 0.54853 0.53748 0.83127 0.0
C1150 C 0.47617 0.47411 0.77565 0.0
C1151 C 0.5279 0.51326 0.8133 0.0
N1152 N 0.55234 0.53556 0.75795 0.0
N1153 N 0.46874 0.43342 0.83044 0.0
H1154 H 0.58118 0.57266 0.83194 0.0
H1155 H 0.5309 0.52563 0.84547 0.0
H1156 H 0.43536 0.39891 0.83082 0.0
H1157 H 0.49128 0.43921 0.84428 0.0
H1158 H 0.5427 0.516 0.74383 0.0
H1159 H 0.58836 0.56724 0.75738 0.0
H1160 H 0.45354 0.48352 0.74429 0.0
H1161 H 0.41204 0.42671 0.75694 0.0
C1162 C 0.50329 0.54328 0.21106 0.0
C1163 C 0.46001 0.55069 0.19502 0.0
C1164 C 0.50833 0.46537 0.17622 0.0
C1165 C 0.5487 0.45557 0.19286 0.0
N1166 N 0.58114 0.47976 0.22708 0.0
N1167 N 0.41883 0.51824 0.16265 0.0
C1168 C 0.54564 0.49345 0.21046 0.0
C1169 C 0.46172 0.51137 0.1777 0.0
N1170 N 0.5039 0.58386 0.22699 0.0
N1171 N 0.51631 0.43221 0.15871 0.0
H1172 H 0.38734 0.55438 0.16234 0.0
H1173 H 0.41247 0.48697 0.15083 0.0
H1174 H 0.54991 0.3983 0.15721 0.0
H1175 H 0.49287 0.44071 0.1452 0.0
H1176 H 0.53988 0.58716 0.23736 0.0
H1177 H 0.47001 0.61691 0.22932 0.0
H1178 H 0.57586 0.5003 0.24128 0.0
H1179 H 0.61324 0.44418 0.22728 0.0
C1180 C 0.50005 0.96476 0.41948 0.0
C1181 C 0.53083 0.9432 0.43715 0.0
C1182 C 0.46902 0.01197 0.45848 0.0
C1183 C 0.44141 0.03702 0.44079 0.0
N1184 N 0.43426 0.04293 0.40425 0.0
N1185 N 0.55368 0.95495 0.47296 0.0
C1186 C 0.45804 0.01507 0.42118 0.0
C1187 C 0.51804 0.96949 0.45649 0.0
N1188 N 0.51022 0.93637 0.40124 0.0
N1189 N 0.44678 0.02701 0.47727 0.0
H1190 H 0.58837 0.92196 0.47248 0.0
H1191 H 0.55157 0.97851 0.48675 0.0
H1192 H 0.41092 0.05811 0.47935 0.0
H1193 H 0.46014 0.00476 0.49062 0.0
H1194 H 0.485 0.94541 0.38811 0.0
H1195 H 0.54182 0.90066 0.39954 0.0
H1196 H 0.44879 0.0335 0.38949 0.0
H1197 H 0.40238 0.07869 0.40505 0.0
C1198 C 0.96303 0.47358 0.57027 0.0
C1199 C 0.94186 0.44624 0.55193 0.0
C1200 C 0.01666 0.50677 0.53228 0.0
C1201 C 0.0341 0.53803 0.55036 0.0
N1202 N 0.02243 0.55536 0.58634 0.0
N1203 N 0.94375 0.43968 0.51524 0.0
C1204 C 0.00707 0.52238 0.56935 0.0
C1205 C 0.96756 0.4635 0.53287 0.0
N1206 N 0.94163 0.45209 0.5885 0.0
N1207 N 0.04802 0.51771 0.51458 0.0
H1208 H 0.90912 0.40642 0.51497 0.0
H1209 H 0.9552 0.45552 0.50077 0.0
H1210 H 0.0833 0.55008 0.51342 0.0
H1211 H 0.04259 0.49174 0.50139 0.0
H1212 H 0.95918 0.46548 0.60256 0.0
H1213 H 0.90851 0.41744 0.58955 0.0
H1214 H 0.00011 0.55108 0.60026 0.0
H1215 H 0.05584 0.5899 0.58623 0.0
loop_
_geom_bond_atom_site_label_1
_geom_bond_atom_site_label_2
_geom_bond_distance
_geom_bond_site_symmetry_2
_ccdc_geom_bond_type
Sc0 O3 2.025 . S
Sc0 O10 2.105 . S
Sc0 O13 2.105 . S
Sc0 O16 2.105 . S
Sc0 O19 2.105 . S
Sc1 O3 2.025 . S
Sc1 O11 2.105 . S
Sc1 O15 2.105 . S
Sc1 O17 2.105 . S
Sc1 O21 2.105 . S
Sc2 O3 2.025 . S
Sc2 O12 2.105 . S
Sc2 O14 2.105 . S
Sc2 O18 2.105 . S
Sc2 O20 2.105 . S
O3 Sc0 2.025 . S
O3 Sc1 2.025 . S
O3 Sc2 2.025 . S
C4 O10 1.268 . S
C4 O20 1.268 . S
C5 O11 1.268 . S
C5 O19 1.268 . S
C6 O12 1.268 . S
C6 O21 1.268 . S
C7 O13 1.268 . S
C7 O17 1.268 . S
C8 O14 1.268 . S
C8 O16 1.268 . S
C9 O15 1.268 . S
C9 O18 1.268 . S
O10 Sc0 2.105 . S
O10 C4 1.268 . S
O11 Sc1 2.105 . S
O11 C5 1.268 . S
O12 Sc2 2.105 . S
O12 C6 1.268 . S
O13 Sc0 2.105 . S
O13 C7 1.268 . S
O14 Sc2 2.105 . S
O14 C8 1.268 . S
O15 Sc1 2.105 . S
O15 C9 1.268 . S
O16 Sc0 2.105 . S
O16 C8 1.268 . S
O17 Sc1 2.105 . S
O17 C7 1.268 . S
O18 Sc2 2.105 . S
O18 C9 1.268 . S
O19 Sc0 2.105 . S
O19 C5 1.268 . S
O20 Sc2 2.105 . S
O20 C4 1.268 . S
O21 Sc1 2.105 . S
O21 C6 1.268 . S
Sc22 O25 2.025 . S
Sc22 O32 2.105 . S
Sc22 O35 2.105 . S
Sc22 O38 2.105 . S
Sc22 O41 2.105 . S
Sc23 O25 2.025 . S
Sc23 O33 2.105 . S
Sc23 O37 2.105 . S
Sc23 O39 2.105 . S
Sc23 O43 2.105 . S
Sc24 O25 2.025 . S
Sc24 O34 2.105 . S
Sc24 O36 2.105 . S
Sc24 O40 2.105 . S
Sc24 O42 2.105 . S
O25 Sc22 2.025 . S
O25 Sc23 2.025 . S
O25 Sc24 2.025 . S
C26 O32 1.268 . S
C26 O42 1.268 . S
C27 O33 1.268 . S
C27 O41 1.268 . S
C28 O34 1.268 . S
C28 O43 1.268 . S
C29 O35 1.268 . S
C29 O39 1.268 . S
C30 O36 1.268 . S
C30 O38 1.268 . S
C31 O37 1.268 . S
C31 O40 1.268 . S
O32 Sc22 2.105 . S
O32 C26 1.268 . S
O33 Sc23 2.105 . S
O33 C27 1.268 . S
O34 Sc24 2.105 . S
O34 C28 1.268 . S
O35 Sc22 2.105 . S
O35 C29 1.268 . S
O36 Sc24 2.105 . S
O36 C30 1.268 . S
O37 Sc23 2.105 . S
O37 C31 1.268 . S
O38 Sc22 2.105 . S
O38 C30 1.268 . S
O39 Sc23 2.105 . S
O39 C29 1.268 . S
O40 Sc24 2.105 . S
O40 C31 1.268 . S
O41 Sc22 2.105 . S
O41 C27 1.268 . S
O42 Sc24 2.105 . S
O42 C26 1.268 . S
O43 Sc23 2.105 . S
O43 C28 1.268 . S
Sc44 O47 2.025 . S
Sc44 O54 2.105 . S
Sc44 O57 2.105 . S
Sc44 O60 2.105 . S
Sc44 O63 2.105 . S
Sc45 O47 2.025 . S
Sc45 O55 2.105 . S
Sc45 O59 2.105 . S
Sc45 O61 2.105 . S
Sc45 O65 2.105 . S
Sc46 O47 2.025 . S
Sc46 O56 2.105 . S
Sc46 O58 2.105 . S
Sc46 O62 2.105 . S
Sc46 O64 2.105 . S
O47 Sc44 2.025 . S
O47 Sc45 2.025 . S
O47 Sc46 2.025 . S
C48 O54 1.268 . S
C48 O64 1.268 . S
C49 O55 1.268 . S
C49 O63 1.268 . S
C50 O56 1.268 . S
C50 O65 1.268 . S
C51 O57 1.268 . S
C51 O61 1.268 . S
C52 O58 1.268 . S
C52 O60 1.268 . S
C53 O59 1.268 . S
C53 O62 1.268 . S
O54 Sc44 2.105 . S
O54 C48 1.268 . S
O55 Sc45 2.105 . S
O55 C49 1.268 . S
O56 Sc46 2.105 . S
O56 C50 1.268 . S
O57 Sc44 2.105 . S
O57 C51 1.268 . S
O58 Sc46 2.105 . S
O58 C52 1.268 . S
O59 Sc45 2.105 . S
O59 C53 1.268 . S
O60 Sc44 2.105 . S
O60 C52 1.268 . S
O61 Sc45 2.105 . S
O61 C51 1.268 . S
O62 Sc46 2.105 . S
O62 C53 1.268 . S
O63 Sc44 2.105 . S
O63 C49 1.268 . S
O64 Sc46 2.105 . S
O64 C48 1.268 . S
O65 Sc45 2.105 . S
O65 C50 1.268 . S
Sc66 O69 2.025 . S
Sc66 O76 2.105 . S
Sc66 O79 2.105 . S
Sc66 O82 2.105 . S
Sc66 O85 2.105 . S
Sc67 O69 2.025 . S
Sc67 O77 2.105 . S
Sc67 O81 2.105 . S
Sc67 O83 2.105 . S
Sc67 O87 2.105 . S
Sc68 O69 2.025 . S
Sc68 O78 2.105 . S
Sc68 O80 2.105 . S
Sc68 O84 2.105 . S
Sc68 O86 2.105 . S
O69 Sc66 2.025 . S
O69 Sc67 2.025 . S
O69 Sc68 2.025 . S
C70 O76 1.268 . S
C70 O86 1.268 . S
C71 O77 1.268 . S
C71 O85 1.268 . S
C72 O78 1.268 . S
C72 O87 1.268 . S
C73 O79 1.268 . S
C73 O83 1.268 . S
C74 O80 1.268 . S
C74 O82 1.268 . S
C75 O81 1.268 . S
C75 O84 1.268 . S
O76 Sc66 2.105 . S
O76 C70 1.268 . S
O77 Sc67 2.105 . S
O77 C71 1.268 . S
O78 Sc68 2.105 . S
O78 C72 1.268 . S
O79 Sc66 2.105 . S
O79 C73 1.268 . S
O80 Sc68 2.105 . S
O80 C74 1.268 . S
O81 Sc67 2.105 . S
O81 C75 1.268 . S
O82 Sc66 2.105 . S
O82 C74 1.268 . S
O83 Sc67 2.105 . S
O83 C73 1.268 . S
O84 Sc68 2.105 . S
O84 C75 1.268 . S
O85 Sc66 2.105 . S
O85 C71 1.268 . S
O86 Sc68 2.105 . S
O86 C70 1.268 . S
O87 Sc67 2.105 . S
O87 C72 1.268 . S
Sc88 O91 2.025 . S
Sc88 O98 2.105 . S
Sc88 O101 2.105 . S
Sc88 O104 2.105 . S
Sc88 O107 2.105 . S
Sc89 O91 2.025 . S
Sc89 O99 2.105 1_556 S
Sc89 O103 2.105 . S
Sc89 O105 2.105 . S
Sc89 O109 2.105 1_556 S
Sc90 O91 2.025 . S
Sc90 O100 2.105 . S
Sc90 O102 2.105 . S
Sc90 O106 2.105 . S
Sc90 O108 2.105 . S
O91 Sc88 2.025 . S
O91 Sc89 2.025 . S
O91 Sc90 2.025 . S
C92 O98 1.268 . S
C92 O108 1.268 . S
C93 O99 1.268 1_556 S
C93 O107 1.268 . S
C94 O100 1.268 . S
C94 O109 1.268 1_556 S
C95 O101 1.268 . S
C95 O105 1.268 . S
C96 O102 1.268 . S
C96 O104 1.268 . S
C97 O103 1.268 . S
C97 O106 1.268 . S
O98 Sc88 2.105 . S
O98 C92 1.268 . S
O99 Sc89 2.105 1_554 S
O99 C93 1.268 1_554 S
O100 Sc90 2.105 . S
O100 C94 1.268 . S
O101 Sc88 2.105 . S
O101 C95 1.268 . S
O102 Sc90 2.105 . S
O102 C96 1.268 . S
O103 Sc89 2.105 . S
O103 C97 1.268 . S
O104 Sc88 2.105 . S
O104 C96 1.268 . S
O105 Sc89 2.105 . S
O105 C95 1.268 . S
O106 Sc90 2.105 . S
O106 C97 1.268 . S
O107 Sc88 2.105 . S
O107 C93 1.268 . S
O108 Sc90 2.105 . S
O108 C92 1.268 . S
O109 Sc89 2.105 1_554 S
O109 C94 1.268 1_554 S
Sc110 O113 2.025 . S
Sc110 O120 2.105 . S
Sc110 O123 2.105 . S
Sc110 O126 2.105 . S
Sc110 O129 2.105 . S
Sc111 O113 2.025 . S
Sc111 O121 2.105 1_554 S
Sc111 O125 2.105 . S
Sc111 O127 2.105 . S
Sc111 O131 2.105 1_554 S
Sc112 O113 2.025 . S
Sc112 O122 2.105 . S
Sc112 O124 2.105 . S
Sc112 O128 2.105 . S
Sc112 O130 2.105 . S
O113 Sc110 2.025 . S
O113 Sc111 2.025 . S
O113 Sc112 2.025 . S
C114 O120 1.268 . S
C114 O130 1.268 . S
C115 O121 1.268 1_554 S
C115 O129 1.268 . S
C116 O122 1.268 . S
C116 O131 1.268 1_554 S
C117 O123 1.268 . S
C117 O127 1.268 . S
C118 O124 1.268 . S
C118 O126 1.268 . S
C119 O125 1.268 . S
C119 O128 1.268 . S
O120 Sc110 2.105 . S
O120 C114 1.268 . S
O121 Sc111 2.105 1_556 S
O121 C115 1.268 1_556 S
O122 Sc112 2.105 . S
O122 C116 1.268 . S
O123 Sc110 2.105 . S
O123 C117 1.268 . S
O124 Sc112 2.105 . S
O124 C118 1.268 . S
O125 Sc111 2.105 . S
O125 C119 1.268 . S
O126 Sc110 2.105 . S
O126 C118 1.268 . S
O127 Sc111 2.105 . S
O127 C117 1.268 . S
O128 Sc112 2.105 . S
O128 C119 1.268 . S
O129 Sc110 2.105 . S
O129 C115 1.268 . S
O130 Sc112 2.105 . S
O130 C114 1.268 . S
O131 Sc111 2.105 1_556 S
O131 C116 1.268 1_556 S
Sc132 O135 2.025 . S
Sc132 O142 2.105 . S
Sc132 O145 2.105 . S
Sc132 O148 2.105 . S
Sc132 O151 2.105 . S
Sc133 O135 2.025 . S
Sc133 O143 2.105 . S
Sc133 O147 2.105 1_556 S
Sc133 O149 2.105 1_556 S
Sc133 O153 2.105 . S
Sc134 O135 2.025 . S
Sc134 O144 2.105 . S
Sc134 O146 2.105 . S
Sc134 O150 2.105 . S
Sc134 O152 2.105 . S
O135 Sc132 2.025 . S
O135 Sc133 2.025 . S
O135 Sc134 2.025 . S
C136 O142 1.268 . S
C136 O152 1.268 . S
C137 O143 1.268 . S
C137 O151 1.268 . S
C138 O144 1.268 . S
C138 O153 1.268 . S
C139 O145 1.268 . S
C139 O149 1.268 1_556 S
C140 O146 1.268 . S
C140 O148 1.268 . S
C141 O147 1.268 1_556 S
C141 O150 1.268 . S
O142 Sc132 2.105 . S
O142 C136 1.268 . S
O143 Sc133 2.105 . S
O143 C137 1.268 . S
O144 Sc134 2.105 . S
O144 C138 1.268 . S
O145 Sc132 2.105 . S
O145 C139 1.268 . S
O146 Sc134 2.105 . S
O146 C140 1.268 . S
O147 Sc133 2.105 1_554 S
O147 C141 1.268 1_554 S
O148 Sc132 2.105 . S
O148 C140 1.268 . S
O149 Sc133 2.105 1_554 S
O149 C139 1.268 1_554 S
O150 Sc134 2.105 . S
O150 C141 1.268 . S
O151 Sc132 2.105 . S
O151 C137 1.268 . S
O152 Sc134 2.105 . S
O152 C136 1.268 . S
O153 Sc133 2.105 . S
O153 C138 1.268 . S
Sc154 O157 2.025 . S
Sc154 O164 2.105 . S
Sc154 O167 2.105 . S
Sc154 O170 2.105 . S
Sc154 O173 2.105 . S
Sc155 O157 2.025 . S
Sc155 O165 2.105 . S
Sc155 O169 2.105 1_554 S
Sc155 O171 2.105 1_554 S
Sc155 O175 2.105 . S
Sc156 O157 2.025 . S
Sc156 O166 2.105 . S
Sc156 O168 2.105 . S
Sc156 O172 2.105 . S
Sc156 O174 2.105 . S
O157 Sc154 2.025 . S
O157 Sc155 2.025 . S
O157 Sc156 2.025 . S
C158 O164 1.268 . S
C158 O174 1.268 . S
C159 O165 1.268 . S
C159 O173 1.268 . S
C160 O166 1.268 . S
C160 O175 1.268 . S
C161 O167 1.268 . S
C161 O171 1.268 1_554 S
C162 O168 1.268 . S
C162 O170 1.268 . S
C163 O169 1.268 1_554 S
C163 O172 1.268 . S
O164 Sc154 2.105 . S
O164 C158 1.268 . S
O165 Sc155 2.105 . S
O165 C159 1.268 . S
O166 Sc156 2.105 . S
O166 C160 1.268 . S
O167 Sc154 2.105 . S
O167 C161 1.268 . S
O168 Sc156 2.105 . S
O168 C162 1.268 . S
O169 Sc155 2.105 1_556 S
O169 C163 1.268 1_556 S
O170 Sc154 2.105 . S
O170 C162 1.268 . S
O171 Sc155 2.105 1_556 S
O171 C161 1.268 1_556 S
O172 Sc156 2.105 . S
O172 C163 1.268 . S
O173 Sc154 2.105 . S
O173 C159 1.268 . S
O174 Sc156 2.105 . S
O174 C158 1.268 . S
O175 Sc155 2.105 . S
O175 C160 1.268 . S
Sc176 O179 2.025 . S
Sc176 O186 2.105 . S
Sc176 O189 2.105 . S
Sc176 O192 2.105 . S
Sc176 O195 2.105 . S
Sc177 O179 2.025 . S
Sc177 O187 2.105 . S
Sc177 O191 2.105 . S
Sc177 O193 2.105 . S
Sc177 O197 2.105 . S
Sc178 O179 2.025 . S
Sc178 O188 2.105 . S
Sc178 O190 2.105 . S
Sc178 O194 2.105 . S
Sc178 O196 2.105 . S
O179 Sc176 2.025 . S
O179 Sc177 2.025 . S
O179 Sc178 2.025 . S
C180 O186 1.268 . S
C180 O196 1.268 . S
C181 O187 1.268 . S
C181 O195 1.268 . S
C182 O188 1.268 . S
C182 O197 1.268 . S
C183 O189 1.268 . S
C183 O193 1.268 . S
C184 O190 1.268 . S
C184 O192 1.268 . S
C185 O191 1.268 . S
C185 O194 1.268 . S
O186 Sc176 2.105 . S
O186 C180 1.268 . S
O187 Sc177 2.105 . S
O187 C181 1.268 . S
O188 Sc178 2.105 . S
O188 C182 1.268 . S
O189 Sc176 2.105 . S
O189 C183 1.268 . S
O190 Sc178 2.105 . S
O190 C184 1.268 . S
O191 Sc177 2.105 . S
O191 C185 1.268 . S
O192 Sc176 2.105 . S
O192 C184 1.268 . S
O193 Sc177 2.105 . S
O193 C183 1.268 . S
O194 Sc178 2.105 . S
O194 C185 1.268 . S
O195 Sc176 2.105 . S
O195 C181 1.268 . S
O196 Sc178 2.105 . S
O196 C180 1.268 . S
O197 Sc177 2.105 . S
O197 C182 1.268 . S
Sc198 O201 2.025 . S
Sc198 O208 2.105 . S
Sc198 O211 2.105 . S
Sc198 O214 2.105 . S
Sc198 O217 2.105 . S
Sc199 O201 2.025 . S
Sc199 O209 2.105 . S
Sc199 O213 2.105 . S
Sc199 O215 2.105 . S
Sc199 O219 2.105 . S
Sc200 O201 2.025 . S
Sc200 O210 2.105 . S
Sc200 O212 2.105 . S
Sc200 O216 2.105 . S
Sc200 O218 2.105 . S
O201 Sc198 2.025 . S
O201 Sc199 2.025 . S
O201 Sc200 2.025 . S
C202 O208 1.268 . S
C202 O218 1.268 . S
C203 O209 1.268 . S
C203 O217 1.268 . S
C204 O210 1.268 . S
C204 O219 1.268 . S
C205 O211 1.268 . S
C205 O215 1.268 . S
C206 O212 1.268 . S
C206 O214 1.268 . S
C207 O213 1.268 . S
C207 O216 1.268 . S
O208 Sc198 2.105 . S
O208 C202 1.268 . S
O209 Sc199 2.105 . S
O209 C203 1.268 . S
O210 Sc200 2.105 . S
O210 C204 1.268 . S
O211 Sc198 2.105 . S
O211 C205 1.268 . S
O212 Sc200 2.105 . S
O212 C206 1.268 . S
O213 Sc199 2.105 . S
O213 C207 1.268 . S
O214 Sc198 2.105 . S
O214 C206 1.268 . S
O215 Sc199 2.105 . S
O215 C205 1.268 . S
O216 Sc200 2.105 . S
O216 C207 1.268 . S
O217 Sc198 2.105 . S
O217 C203 1.268 . S
O218 Sc200 2.105 . S
O218 C202 1.268 . S
O219 Sc199 2.105 . S
O219 C204 1.268 . S
Sc220 O223 2.025 . S
Sc220 O230 2.105 . S
Sc220 O233 2.105 . S
Sc220 O236 2.105 . S
Sc220 O239 2.105 . S
Sc221 O223 2.025 . S
Sc221 O231 2.105 . S
Sc221 O235 2.105 . S
Sc221 O237 2.105 . S
Sc221 O241 2.105 . S
Sc222 O223 2.025 . S
Sc222 O232 2.105 . S
Sc222 O234 2.105 . S
Sc222 O238 2.105 . S
Sc222 O240 2.105 . S
O223 Sc220 2.025 . S
O223 Sc221 2.025 . S
O223 Sc222 2.025 . S
C224 O230 1.268 . S
C224 O240 1.268 . S
C225 O231 1.268 . S
C225 O239 1.268 . S
C226 O232 1.268 . S
C226 O241 1.268 . S
C227 O233 1.268 . S
C227 O237 1.268 . S
C228 O234 1.268 . S
C228 O236 1.268 . S
C229 O235 1.268 . S
C229 O238 1.268 . S
O230 Sc220 2.105 . S
O230 C224 1.268 . S
O231 Sc221 2.105 . S
O231 C225 1.268 . S
O232 Sc222 2.105 . S
O232 C226 1.268 . S
O233 Sc220 2.105 . S
O233 C227 1.268 . S
O234 Sc222 2.105 . S
O234 C228 1.268 . S
O235 Sc221 2.105 . S
O235 C229 1.268 . S
O236 Sc220 2.105 . S
O236 C228 1.268 . S
O237 Sc221 2.105 . S
O237 C227 1.268 . S
O238 Sc222 2.105 . S
O238 C229 1.268 . S
O239 Sc220 2.105 . S
O239 C225 1.268 . S
O240 Sc222 2.105 . S
O240 C224 1.268 . S
O241 Sc221 2.105 . S
O241 C226 1.268 . S
Sc242 O245 2.025 . S
Sc242 O252 2.105 . S
Sc242 O255 2.105 . S
Sc242 O258 2.105 . S
Sc242 O261 2.105 . S
Sc243 O245 2.025 . S
Sc243 O253 2.105 . S
Sc243 O257 2.105 . S
Sc243 O259 2.105 . S
Sc243 O263 2.105 . S
Sc244 O245 2.025 . S
Sc244 O254 2.105 . S
Sc244 O256 2.105 . S
Sc244 O260 2.105 . S
Sc244 O262 2.105 . S
O245 Sc242 2.025 . S
O245 Sc243 2.025 . S
O245 Sc244 2.025 . S
C246 O252 1.268 . S
C246 O262 1.268 . S
C247 O253 1.268 . S
C247 O261 1.268 . S
C248 O254 1.268 . S
C248 O263 1.268 . S
C249 O255 1.268 . S
C249 O259 1.268 . S
C250 O256 1.268 . S
C250 O258 1.268 . S
C251 O257 1.268 . S
C251 O260 1.268 . S
O252 Sc242 2.105 . S
O252 C246 1.268 . S
O253 Sc243 2.105 . S
O253 C247 1.268 . S
O254 Sc244 2.105 . S
O254 C248 1.268 . S
O255 Sc242 2.105 . S
O255 C249 1.268 . S
O256 Sc244 2.105 . S
O256 C250 1.268 . S
O257 Sc243 2.105 . S
O257 C251 1.268 . S
O258 Sc242 2.105 . S
O258 C250 1.268 . S
O259 Sc243 2.105 . S
O259 C249 1.268 . S
O260 Sc244 2.105 . S
O260 C251 1.268 . S
O261 Sc242 2.105 . S
O261 C247 1.268 . S
O262 Sc244 2.105 . S
O262 C246 1.268 . S
O263 Sc243 2.105 . S
O263 C248 1.268 . S
Sc264 O267 2.025 . S
Sc264 O274 2.105 . S
Sc264 O277 2.105 . S
Sc264 O280 2.105 . S
Sc264 O283 2.105 . S
Sc265 O267 2.025 . S
Sc265 O275 2.105 . S
Sc265 O279 2.105 . S
Sc265 O281 2.105 . S
Sc265 O285 2.105 . S
Sc266 O267 2.025 . S
Sc266 O276 2.105 . S
Sc266 O278 2.105 . S
Sc266 O282 2.105 . S
Sc266 O284 2.105 . S
O267 Sc264 2.025 . S
O267 Sc265 2.025 . S
O267 Sc266 2.025 . S
C268 O274 1.268 . S
C268 O284 1.268 . S
C269 O275 1.268 . S
C269 O283 1.268 . S
C270 O276 1.268 . S
C270 O285 1.268 . S
C271 O277 1.268 . S
C271 O281 1.268 . S
C272 O278 1.268 . S
C272 O280 1.268 . S
C273 O279 1.268 . S
C273 O282 1.268 . S
O274 Sc264 2.105 . S
O274 C268 1.268 . S
O275 Sc265 2.105 . S
O275 C269 1.268 . S
O276 Sc266 2.105 . S
O276 C270 1.268 . S
O277 Sc264 2.105 . S
O277 C271 1.268 . S
O278 Sc266 2.105 . S
O278 C272 1.268 . S
O279 Sc265 2.105 . S
O279 C273 1.268 . S
O280 Sc264 2.105 . S
O280 C272 1.268 . S
O281 Sc265 2.105 . S
O281 C271 1.268 . S
O282 Sc266 2.105 . S
O282 C273 1.268 . S
O283 Sc264 2.105 . S
O283 C269 1.268 . S
O284 Sc266 2.105 . S
O284 C268 1.268 . S
O285 Sc265 2.105 . S
O285 C270 1.268 . S
Sc286 O289 2.025 . S
Sc286 O296 2.105 . S
Sc286 O299 2.105 . S
Sc286 O302 2.105 . S
Sc286 O305 2.105 . S
Sc287 O289 2.025 . S
Sc287 O297 2.105 . S
Sc287 O301 2.105 . S
Sc287 O303 2.105 . S
Sc287 O307 2.105 . S
Sc288 O289 2.025 . S
Sc288 O298 2.105 . S
Sc288 O300 2.105 . S
Sc288 O304 2.105 . S
Sc288 O306 2.105 . S
O289 Sc286 2.025 . S
O289 Sc287 2.025 . S
O289 Sc288 2.025 . S
C290 O296 1.268 . S
C290 O306 1.268 . S
C291 O297 1.268 . S
C291 O305 1.268 . S
C292 O298 1.268 . S
C292 O307 1.268 . S
C293 O299 1.268 . S
C293 O303 1.268 . S
C294 O300 1.268 . S
C294 O302 1.268 . S
C295 O301 1.268 . S
C295 O304 1.268 . S
O296 Sc286 2.105 . S
O296 C290 1.268 . S
O297 Sc287 2.105 . S
O297 C291 1.268 . S
O298 Sc288 2.105 . S
O298 C292 1.268 . S
O299 Sc286 2.105 . S
O299 C293 1.268 . S
O300 Sc288 2.105 . S
O300 C294 1.268 . S
O301 Sc287 2.105 . S
O301 C295 1.268 . S
O302 Sc286 2.105 . S
O302 C294 1.268 . S
O303 Sc287 2.105 . S
O303 C293 1.268 . S
O304 Sc288 2.105 . S
O304 C295 1.268 . S
O305 Sc286 2.105 . S
O305 C291 1.268 . S
O306 Sc288 2.105 . S
O306 C290 1.268 . S
O307 Sc287 2.105 . S
O307 C292 1.268 . S
Sc308 O311 2.025 . S
Sc308 O318 2.105 . S
Sc308 O321 2.105 . S
Sc308 O324 2.105 . S
Sc308 O327 2.105 . S
Sc309 O311 2.025 . S
Sc309 O319 2.105 . S
Sc309 O323 2.105 . S
Sc309 O325 2.105 . S
Sc309 O329 2.105 . S
Sc310 O311 2.025 . S
Sc310 O320 2.105 . S
Sc310 O322 2.105 . S
Sc310 O326 2.105 . S
Sc310 O328 2.105 . S
O311 Sc308 2.025 . S
O311 Sc309 2.025 . S
O311 Sc310 2.025 . S
C312 O318 1.268 . S
C312 O328 1.268 . S
C313 O319 1.268 . S
C313 O327 1.268 . S
C314 O320 1.268 . S
C314 O329 1.268 . S
C315 O321 1.268 . S
C315 O325 1.268 . S
C316 O322 1.268 . S
C316 O324 1.268 . S
C317 O323 1.268 . S
C317 O326 1.268 . S
O318 Sc308 2.105 . S
O318 C312 1.268 . S
O319 Sc309 2.105 . S
O319 C313 1.268 . S
O320 Sc310 2.105 . S
O320 C314 1.268 . S
O321 Sc308 2.105 . S
O321 C315 1.268 . S
O322 Sc310 2.105 . S
O322 C316 1.268 . S
O323 Sc309 2.105 . S
O323 C317 1.268 . S
O324 Sc308 2.105 . S
O324 C316 1.268 . S
O325 Sc309 2.105 . S
O325 C315 1.268 . S
O326 Sc310 2.105 . S
O326 C317 1.268 . S
O327 Sc308 2.105 . S
O327 C313 1.268 . S
O328 Sc310 2.105 . S
O328 C312 1.268 . S
O329 Sc309 2.105 . S
O329 C314 1.268 . S
Sc330 O333 2.025 . S
Sc330 O340 2.105 . S
Sc330 O343 2.105 . S
Sc330 O346 2.105 . S
Sc330 O349 2.105 . S
Sc331 O333 2.025 . S
Sc331 O341 2.105 . S
Sc331 O345 2.105 . S
Sc331 O347 2.105 . S
Sc331 O351 2.105 . S
Sc332 O333 2.025 . S
Sc332 O342 2.105 . S
Sc332 O344 2.105 . S
Sc332 O348 2.105 . S
Sc332 O350 2.105 . S
O333 Sc330 2.025 . S
O333 Sc331 2.025 . S
O333 Sc332 2.025 . S
C334 O340 1.268 . S
C334 O350 1.268 . S
C335 O341 1.268 . S
C335 O349 1.268 . S
C336 O342 1.268 . S
C336 O351 1.268 . S
C337 O343 1.268 . S
C337 O347 1.268 . S
C338 O344 1.268 . S
C338 O346 1.268 . S
C339 O345 1.268 . S
C339 O348 1.268 . S
O340 Sc330 2.105 . S
O340 C334 1.268 . S
O341 Sc331 2.105 . S
O341 C335 1.268 . S
O342 Sc332 2.105 . S
O342 C336 1.268 . S
O343 Sc330 2.105 . S
O343 C337 1.268 . S
O344 Sc332 2.105 . S
O344 C338 1.268 . S
O345 Sc331 2.105 . S
O345 C339 1.268 . S
O346 Sc330 2.105 . S
O346 C338 1.268 . S
O347 Sc331 2.105 . S
O347 C337 1.268 . S
O348 Sc332 2.105 . S
O348 C339 1.268 . S
O349 Sc330 2.105 . S
O349 C335 1.268 . S
O350 Sc332 2.105 . S
O350 C334 1.268 . S
O351 Sc331 2.105 . S
O351 C336 1.268 . S
C352 C353 1.363 . S
C352 C358 1.379 . S
C352 N360 1.356 . S
C353 C352 1.363 . S
C353 C359 1.363 . S
C354 C355 1.363 . S
C354 C359 1.379 1_545 S
C354 N361 1.356 . S
C355 C354 1.363 . S
C355 C358 1.363 1_545 S
N356 C358 1.356 . S
N356 H368 0.984 . S
N356 H369 0.985 1_565 S
N357 C359 1.356 . S
N357 H362 0.984 . S
N357 H363 0.985 . S
C358 C352 1.379 . S
C358 C355 1.363 1_565 S
C358 N356 1.356 . S
C359 C353 1.363 . S
C359 C354 1.379 1_565 S
C359 N357 1.356 . S
N360 C352 1.356 . S
N360 H366 0.984 . S
N360 H367 0.984 . S
N361 C354 1.356 . S
N361 H364 0.984 . S
N361 H365 0.985 . S
H362 N357 0.984 . S
H363 N357 0.985 . S
H364 N361 0.984 . S
H365 N361 0.985 . S
H366 N360 0.984 . S
H367 N360 0.984 . S
H368 N356 0.984 . S
H369 N356 0.985 1_545 S
C370 C371 1.363 . S
C370 C376 1.379 1_455 S
C370 N378 1.356 . S
C371 C370 1.363 . S
C371 C377 1.363 1_455 S
C372 C373 1.363 . S
C372 C377 1.379 . S
C372 N379 1.356 . S
C373 C372 1.363 . S
C373 C376 1.363 . S
N374 C376 1.356 . S
N374 H386 0.984 . S
N374 H387 0.985 . S
N375 C377 1.356 1_455 S
N375 H380 0.984 . S
N375 H381 0.985 1_455 S
C376 C370 1.379 1_655 S
C376 C373 1.363 . S
C376 N374 1.356 . S
C377 C371 1.363 1_655 S
C377 C372 1.379 . S
C377 N375 1.356 1_655 S
N378 C370 1.356 . S
N378 H384 0.984 . S
N378 H385 0.984 . S
N379 C372 1.356 . S
N379 H382 0.984 . S
N379 H383 0.985 . S
H380 N375 0.984 . S
H381 N375 0.985 1_655 S
H382 N379 0.984 . S
H383 N379 0.985 . S
H384 N378 0.984 . S
H385 N378 0.984 . S
H386 N374 0.984 . S
H387 N374 0.985 . S
C388 C389 1.363 1_545 S
C388 C394 1.379 . S
C388 N396 1.356 1_545 S
C389 C388 1.363 1_565 S
C389 C395 1.363 . S
C390 C391 1.363 . S
C390 C395 1.379 1_545 S
C390 N397 1.356 . S
C391 C390 1.363 . S
C391 C394 1.363 . S
N392 C394 1.356 . S
N392 H404 0.984 . S
N392 H405 0.985 . S
N393 C395 1.356 . S
N393 H398 0.984 . S
N393 H399 0.985 . S
C394 C388 1.379 . S
C394 C391 1.363 . S
C394 N392 1.356 . S
C395 C389 1.363 . S
C395 C390 1.379 1_565 S
C395 N393 1.356 . S
N396 C388 1.356 1_565 S
N396 H402 0.984 . S
N396 H403 0.984 . S
N397 C390 1.356 . S
N397 H400 0.984 . S
N397 H401 0.985 . S
H398 N393 0.984 . S
H399 N393 0.985 . S
H400 N397 0.984 . S
H401 N397 0.985 . S
H402 N396 0.984 . S
H403 N396 0.984 . S
H404 N392 0.984 . S
H405 N392 0.985 . S
C406 C407 1.363 . S
C406 C412 1.379 1_455 S
C406 N414 1.356 . S
C407 C406 1.363 . S
C407 C413 1.363 . S
C408 C409 1.363 1_455 S
C408 C413 1.379 . S
C408 N415 1.356 1_455 S
C409 C408 1.363 1_655 S
C409 C412 1.363 . S
N410 C412 1.356 . S
N410 H422 0.984 . S
N410 H423 0.985 . S
N411 C413 1.356 . S
N411 H416 0.984 . S
N411 H417 0.985 . S
C412 C406 1.379 1_655 S
C412 C409 1.363 . S
C412 N410 1.356 . S
C413 C407 1.363 . S
C413 C408 1.379 . S
C413 N411 1.356 . S
N414 C406 1.356 . S
N414 H420 0.984 . S
N414 H421 0.984 . S
N415 C408 1.356 1_655 S
N415 H418 0.984 . S
N415 H419 0.985 . S
H416 N411 0.984 . S
H417 N411 0.985 . S
H418 N415 0.984 . S
H419 N415 0.985 . S
H420 N414 0.984 . S
H421 N414 0.984 . S
H422 N410 0.984 . S
H423 N410 0.985 . S
C424 C425 1.363 1_556 S
C424 C430 1.379 1_556 S
C424 N432 1.356 . S
C425 C424 1.363 1_554 S
C425 C431 1.363 . S
C426 C427 1.363 . S
C426 C431 1.379 . S
C426 N433 1.356 . S
C427 C426 1.363 . S
C427 C430 1.363 . S
N428 C430 1.356 1_556 S
N428 H440 0.984 . S
N428 H441 0.985 1_556 S
N429 C431 1.356 . S
N429 H434 0.984 . S
N429 H435 0.985 . S
C430 C424 1.379 1_554 S
C430 C427 1.363 . S
C430 N428 1.356 1_554 S
C431 C425 1.363 . S
C431 C426 1.379 . S
C431 N429 1.356 . S
N432 C424 1.356 . S
N432 H438 0.984 . S
N432 H439 0.984 . S
N433 C426 1.356 . S
N433 H436 0.984 . S
N433 H437 0.985 . S
H434 N429 0.984 . S
H435 N429 0.985 . S
H436 N433 0.984 . S
H437 N433 0.985 . S
H438 N432 0.984 . S
H439 N432 0.984 . S
H440 N428 0.984 . S
H441 N428 0.985 1_554 S
C442 C443 1.363 . S
C442 C448 1.379 . S
C442 N450 1.356 . S
C443 C442 1.363 . S
C443 C449 1.363 1_556 S
C444 C445 1.363 . S
C444 C449 1.379 1_556 S
C444 N451 1.356 1_556 S
C445 C444 1.363 . S
C445 C448 1.363 . S
N446 C448 1.356 . S
N446 H458 0.984 . S
N446 H459 0.985 . S
N447 C449 1.356 . S
N447 H452 0.984 . S
N447 H453 0.985 . S
C448 C442 1.379 . S
C448 C445 1.363 . S
C448 N446 1.356 . S
C449 C443 1.363 1_554 S
C449 C444 1.379 1_554 S
C449 N447 1.356 . S
N450 C442 1.356 . S
N450 H456 0.984 . S
N450 H457 0.984 . S
N451 C444 1.356 1_554 S
N451 H454 0.984 1_554 S
N451 H455 0.985 . S
H452 N447 0.984 . S
H453 N447 0.985 . S
H454 N451 0.984 1_556 S
H455 N451 0.985 . S
H456 N450 0.984 . S
H457 N450 0.984 . S
H458 N446 0.984 . S
H459 N446 0.985 . S
C460 C461 1.363 . S
C460 C466 1.376 1_554 S
C460 N468 1.366 . S
C461 C460 1.363 . S
C461 C467 1.363 . S
C462 C463 1.363 . S
C462 C467 1.379 . S
C462 N469 1.356 . S
C463 C462 1.363 . S
C463 C466 1.359 1_554 S
N464 C466 1.363 . S
N464 H476 0.984 . S
N464 H477 0.985 . S
N465 C467 1.356 . S
N465 H470 0.984 . S
N465 H471 0.985 . S
C466 C460 1.376 1_556 S
C466 C463 1.359 1_556 S
C466 N464 1.363 . S
C467 C461 1.363 . S
C467 C462 1.379 . S
C467 N465 1.356 . S
N468 C460 1.366 . S
N468 H474 0.957 1_554 S
N468 H475 1.003 . S
N469 C462 1.356 . S
N469 H472 0.984 . S
N469 H473 0.985 . S
H470 N465 0.984 . S
H471 N465 0.985 . S
H472 N469 0.984 . S
H473 N469 0.985 . S
H474 N468 0.957 1_556 S
H475 N468 1.003 . S
H476 N464 0.984 . S
H477 N464 0.985 . S
C478 C479 1.363 . S
C478 C484 1.379 . S
C478 N486 1.356 . S
C479 C478 1.363 . S
C479 C485 1.363 . S
C480 C481 1.363 . S
C480 C485 1.379 . S
C480 N487 1.356 1_556 S
C481 C480 1.363 . S
C481 C484 1.363 . S
N482 C484 1.356 . S
N482 H494 0.984 . S
N482 H495 0.985 . S
N483 C485 1.356 . S
N483 H488 0.984 . S
N483 H489 0.985 . S
C484 C478 1.379 . S
C484 C481 1.363 . S
C484 N482 1.356 . S
C485 C479 1.363 . S
C485 C480 1.379 . S
C485 N483 1.356 . S
N486 C478 1.356 . S
N486 H492 0.984 . S
N486 H493 0.984 . S
N487 C480 1.356 1_554 S
N487 H490 0.984 . S
N487 H491 0.985 . S
H488 N483 0.984 . S
H489 N483 0.985 . S
H490 N487 0.984 . S
H491 N487 0.985 . S
H492 N486 0.984 . S
H493 N486 0.984 . S
H494 N482 0.984 . S
H495 N482 0.985 . S
C496 C497 1.363 . S
C496 C502 1.379 . S
C496 N504 1.356 . S
C497 C496 1.363 . S
C497 C503 1.363 . S
C498 C499 1.363 . S
C498 C503 1.379 . S
C498 N505 1.356 . S
C499 C498 1.363 . S
C499 C502 1.363 . S
N500 C502 1.356 . S
N500 H512 0.984 . S
N500 H513 0.985 . S
N501 C503 1.356 . S
N501 H506 0.984 . S
N501 H507 0.985 . S
C502 C496 1.379 . S
C502 C499 1.363 . S
C502 N500 1.356 . S
C503 C497 1.363 . S
C503 C498 1.379 . S
C503 N501 1.356 . S
N504 C496 1.356 . S
N504 H510 0.984 . S
N504 H511 0.984 . S
N505 C498 1.356 . S
N505 H508 0.984 . S
N505 H509 0.985 . S
H506 N501 0.984 . S
H507 N501 0.985 . S
H508 N505 0.984 . S
H509 N505 0.985 . S
H510 N504 0.984 . S
H511 N504 0.984 . S
H512 N500 0.984 . S
H513 N500 0.985 . S
C514 C515 1.363 . S
C514 C520 1.379 . S
C514 N522 1.356 . S
C515 C514 1.363 . S
C515 C521 1.363 . S
C516 C517 1.363 . S
C516 C521 1.379 . S
C516 N523 1.356 . S
C517 C516 1.363 . S
C517 C520 1.363 . S
N518 C520 1.356 . S
N518 H530 0.984 . S
N518 H531 0.985 . S
N519 C521 1.356 . S
N519 H524 0.984 . S
N519 H525 0.985 . S
C520 C514 1.379 . S
C520 C517 1.363 . S
C520 N518 1.356 . S
C521 C515 1.363 . S
C521 C516 1.379 . S
C521 N519 1.356 . S
N522 C514 1.356 . S
N522 H528 0.984 . S
N522 H529 0.984 . S
N523 C516 1.356 . S
N523 H526 0.984 . S
N523 H527 0.985 . S
H524 N519 0.984 . S
H525 N519 0.985 . S
H526 N523 0.984 . S
H527 N523 0.985 . S
H528 N522 0.984 . S
H529 N522 0.984 . S
H530 N518 0.984 . S
H531 N518 0.985 . S
C532 C533 1.363 . S
C532 C538 1.379 . S
C532 N540 1.356 . S
C533 C532 1.363 . S
C533 C539 1.363 . S
C534 C535 1.363 . S
C534 C539 1.379 . S
C534 N541 1.356 . S
C535 C534 1.363 . S
C535 C538 1.363 . S
N536 C538 1.356 . S
N536 H548 0.984 . S
N536 H549 0.985 . S
N537 C539 1.356 . S
N537 H542 0.984 . S
N537 H543 0.985 . S
C538 C532 1.379 . S
C538 C535 1.363 . S
C538 N536 1.356 . S
C539 C533 1.363 . S
C539 C534 1.379 . S
C539 N537 1.356 . S
N540 C532 1.356 . S
N540 H546 0.984 . S
N540 H547 0.984 . S
N541 C534 1.356 . S
N541 H544 0.984 . S
N541 H545 0.985 . S
H542 N537 0.984 . S
H543 N537 0.985 . S
H544 N541 0.984 . S
H545 N541 0.985 . S
H546 N540 0.984 . S
H547 N540 0.984 . S
H548 N536 0.984 . S
H549 N536 0.985 . S
C550 C551 1.363 . S
C550 C556 1.379 . S
C550 N558 1.356 . S
C551 C550 1.363 . S
C551 C557 1.363 . S
C552 C553 1.363 . S
C552 C557 1.379 . S
C552 N559 1.356 . S
C553 C552 1.363 . S
C553 C556 1.363 . S
N554 C556 1.356 . S
N554 H566 0.984 . S
N554 H567 0.985 . S
N555 C557 1.356 . S
N555 H560 0.984 . S
N555 H561 0.985 . S
C556 C550 1.379 . S
C556 C553 1.363 . S
C556 N554 1.356 . S
C557 C551 1.363 . S
C557 C552 1.379 . S
C557 N555 1.356 . S
N558 C550 1.356 . S
N558 H564 0.984 . S
N558 H565 0.984 . S
N559 C552 1.356 . S
N559 H562 0.984 . S
N559 H563 0.985 . S
H560 N555 0.984 . S
H561 N555 0.985 . S
H562 N559 0.984 . S
H563 N559 0.985 . S
H564 N558 0.984 . S
H565 N558 0.984 . S
H566 N554 0.984 . S
H567 N554 0.985 . S
C568 C569 1.363 1_545 S
C568 C574 1.379 . S
C568 N576 1.356 1_545 S
C569 C568 1.363 1_565 S
C569 C575 1.363 1_565 S
C570 C571 1.363 . S
C570 C575 1.379 . S
C570 N577 1.356 . S
C571 C570 1.363 . S
C571 C574 1.363 . S
N572 C574 1.356 . S
N572 H584 0.984 . S
N572 H585 0.985 . S
N573 C575 1.356 1_565 S
N573 H578 0.984 . S
N573 H579 0.985 . S
C574 C568 1.379 . S
C574 C571 1.363 . S
C574 N572 1.356 . S
C575 C569 1.363 1_545 S
C575 C570 1.379 . S
C575 N573 1.356 1_545 S
N576 C568 1.356 1_565 S
N576 H582 0.984 . S
N576 H583 0.984 . S
N577 C570 1.356 . S
N577 H580 0.984 . S
N577 H581 0.985 . S
H578 N573 0.984 . S
H579 N573 0.985 . S
H580 N577 0.984 . S
H581 N577 0.985 . S
H582 N576 0.984 . S
H583 N576 0.984 . S
H584 N572 0.984 . S
H585 N572 0.985 . S
C586 C587 1.363 . S
C586 C592 1.379 . S
C586 N594 1.356 . S
C587 C586 1.363 . S
C587 C593 1.363 . S
C588 C589 1.363 . S
C588 C593 1.379 1_655 S
C588 N595 1.356 . S
C589 C588 1.363 . S
C589 C592 1.363 1_655 S
N590 C592 1.356 1_655 S
N590 H602 0.984 1_655 S
N590 H603 0.985 . S
N591 C593 1.356 . S
N591 H596 0.984 . S
N591 H597 0.985 . S
C592 C586 1.379 . S
C592 C589 1.363 1_455 S
C592 N590 1.356 1_455 S
C593 C587 1.363 . S
C593 C588 1.379 1_455 S
C593 N591 1.356 . S
N594 C586 1.356 . S
N594 H600 0.984 . S
N594 H601 0.984 . S
N595 C588 1.356 . S
N595 H598 0.984 . S
N595 H599 0.985 . S
H596 N591 0.984 . S
H597 N591 0.985 . S
H598 N595 0.984 . S
H599 N595 0.985 . S
H600 N594 0.984 . S
H601 N594 0.984 . S
H602 N590 0.984 1_455 S
H603 N590 0.985 . S
C604 C605 1.363 . S
C604 C610 1.379 . S
C604 N612 1.356 . S
C605 C604 1.363 . S
C605 C611 1.363 . S
C606 C607 1.363 . S
C606 C611 1.379 1_545 S
C606 N613 1.356 . S
C607 C606 1.363 . S
C607 C610 1.363 1_545 S
N608 C610 1.356 1_545 S
N608 H620 0.984 1_545 S
N608 H621 0.985 . S
N609 C611 1.356 . S
N609 H614 0.984 . S
N609 H615 0.985 . S
C610 C604 1.379 . S
C610 C607 1.363 1_565 S
C610 N608 1.356 1_565 S
C611 C605 1.363 . S
C611 C606 1.379 1_565 S
C611 N609 1.356 . S
N612 C604 1.356 . S
N612 H618 0.984 . S
N612 H619 0.984 . S
N613 C606 1.356 . S
N613 H616 0.984 . S
N613 H617 0.985 . S
H614 N609 0.984 . S
H615 N609 0.985 . S
H616 N613 0.984 . S
H617 N613 0.985 . S
H618 N612 0.984 . S
H619 N612 0.984 . S
H620 N608 0.984 1_565 S
H621 N608 0.985 . S
C622 C623 1.363 . S
C622 C628 1.379 1_455 S
C622 N630 1.356 . S
C623 C622 1.363 . S
C623 C629 1.363 1_455 S
C624 C625 1.363 . S
C624 C629 1.379 . S
C624 N631 1.356 . S
C625 C624 1.363 . S
C625 C628 1.363 . S
N626 C628 1.356 . S
N626 H638 0.984 . S
N626 H639 0.985 . S
N627 C629 1.356 1_455 S
N627 H632 0.984 . S
N627 H633 0.985 . S
C628 C622 1.379 1_655 S
C628 C625 1.363 . S
C628 N626 1.356 . S
C629 C623 1.363 1_655 S
C629 C624 1.379 . S
C629 N627 1.356 1_655 S
N630 C622 1.356 . S
N630 H636 0.984 . S
N630 H637 0.984 . S
N631 C624 1.356 . S
N631 H634 0.984 . S
N631 H635 0.985 . S
H632 N627 0.984 . S
H633 N627 0.985 . S
H634 N631 0.984 . S
H635 N631 0.985 . S
H636 N630 0.984 . S
H637 N630 0.984 . S
H638 N626 0.984 . S
H639 N626 0.985 . S
C640 C641 1.363 . S
C640 C646 1.379 . S
C640 N648 1.356 . S
C641 C640 1.363 . S
C641 C647 1.363 . S
C642 C643 1.363 . S
C642 C647 1.379 . S
C642 N649 1.356 . S
C643 C642 1.363 . S
C643 C646 1.363 . S
N644 C646 1.356 . S
N644 H656 0.984 . S
N644 H657 0.985 . S
N645 C647 1.356 . S
N645 H650 0.984 . S
N645 H651 0.985 . S
C646 C640 1.379 . S
C646 C643 1.363 . S
C646 N644 1.356 . S
C647 C641 1.363 . S
C647 C642 1.379 . S
C647 N645 1.356 . S
N648 C640 1.356 . S
N648 H654 0.984 . S
N648 H655 0.984 . S
N649 C642 1.356 . S
N649 H652 0.984 . S
N649 H653 0.985 . S
H650 N645 0.984 . S
H651 N645 0.985 . S
H652 N649 0.984 . S
H653 N649 0.985 . S
H654 N648 0.984 . S
H655 N648 0.984 . S
H656 N644 0.984 . S
H657 N644 0.985 . S
C658 C659 1.363 . S
C658 C664 1.379 . S
C658 N666 1.356 . S
C659 C658 1.363 . S
C659 C665 1.363 . S
C660 C661 1.363 . S
C660 C665 1.379 . S
C660 N667 1.356 . S
C661 C660 1.363 . S
C661 C664 1.363 . S
N662 C664 1.356 . S
N662 H674 0.984 . S
N662 H675 0.985 . S
N663 C665 1.356 . S
N663 H668 0.984 . S
N663 H669 0.985 . S
C664 C658 1.379 . S
C664 C661 1.363 . S
C664 N662 1.356 . S
C665 C659 1.363 . S
C665 C660 1.379 . S
C665 N663 1.356 . S
N666 C658 1.356 . S
N666 H672 0.984 . S
N666 H673 0.984 . S
N667 C660 1.356 . S
N667 H670 0.984 . S
N667 H671 0.985 . S
H668 N663 0.984 . S
H669 N663 0.985 . S
H670 N667 0.984 . S
H671 N667 0.985 . S
H672 N666 0.984 . S
H673 N666 0.984 . S
H674 N662 0.984 . S
H675 N662 0.985 . S
C676 C677 1.363 . S
C676 C682 1.379 . S
C676 N684 1.356 . S
C677 C676 1.363 . S
C677 C683 1.363 . S
C678 C679 1.363 . S
C678 C683 1.379 . S
C678 N685 1.356 . S
C679 C678 1.363 . S
C679 C682 1.363 . S
N680 C682 1.356 . S
N680 H692 0.984 . S
N680 H693 0.985 . S
N681 C683 1.356 . S
N681 H686 0.984 . S
N681 H687 0.985 . S
C682 C676 1.379 . S
C682 C679 1.363 . S
C682 N680 1.356 . S
C683 C677 1.363 . S
C683 C678 1.379 . S
C683 N681 1.356 . S
N684 C676 1.356 . S
N684 H690 0.984 . S
N684 H691 0.984 . S
N685 C678 1.356 . S
N685 H688 0.984 . S
N685 H689 0.985 . S
H686 N681 0.984 . S
H687 N681 0.985 . S
H688 N685 0.984 . S
H689 N685 0.985 . S
H690 N684 0.984 . S
H691 N684 0.984 . S
H692 N680 0.984 . S
H693 N680 0.985 . S
C694 C695 1.363 . S
C694 C700 1.379 . S
C694 N702 1.356 . S
C695 C694 1.363 . S
C695 C701 1.363 . S
C696 C697 1.363 . S
C696 C701 1.379 . S
C696 N703 1.356 . S
C697 C696 1.363 . S
C697 C700 1.363 . S
N698 C700 1.356 . S
N698 H710 0.984 . S
N698 H711 0.985 . S
N699 C701 1.356 . S
N699 H704 0.984 . S
N699 H705 0.985 . S
C700 C694 1.379 . S
C700 C697 1.363 . S
C700 N698 1.356 . S
C701 C695 1.363 . S
C701 C696 1.379 . S
C701 N699 1.356 . S
N702 C694 1.356 . S
N702 H708 0.984 . S
N702 H709 0.984 . S
N703 C696 1.356 . S
N703 H706 0.984 . S
N703 H707 0.985 . S
H704 N699 0.984 . S
H705 N699 0.985 . S
H706 N703 0.984 . S
H707 N703 0.985 . S
H708 N702 0.984 . S
H709 N702 0.984 . S
H710 N698 0.984 . S
H711 N698 0.985 . S
C712 C713 1.363 . S
C712 C718 1.379 . S
C712 N720 1.356 . S
C713 C712 1.363 . S
C713 C719 1.363 . S
C714 C715 1.363 . S
C714 C719 1.379 . S
C714 N721 1.356 . S
C715 C714 1.363 . S
C715 C718 1.363 . S
N716 C718 1.356 . S
N716 H728 0.984 . S
N716 H729 0.985 . S
N717 C719 1.356 . S
N717 H722 0.984 . S
N717 H723 0.985 . S
C718 C712 1.379 . S
C718 C715 1.363 . S
C718 N716 1.356 . S
C719 C713 1.363 . S
C719 C714 1.379 . S
C719 N717 1.356 . S
N720 C712 1.356 . S
N720 H726 0.984 . S
N720 H727 0.984 . S
N721 C714 1.356 . S
N721 H724 0.984 . S
N721 H725 0.985 . S
H722 N717 0.984 . S
H723 N717 0.985 . S
H724 N721 0.984 . S
H725 N721 0.985 . S
H726 N720 0.984 . S
H727 N720 0.984 . S
H728 N716 0.984 . S
H729 N716 0.985 . S
C730 C731 1.363 . S
C730 C736 1.379 . S
C730 N738 1.356 . S
C731 C730 1.363 . S
C731 C737 1.363 . S
C732 C733 1.363 . S
C732 C737 1.379 . S
C732 N739 1.356 . S
C733 C732 1.363 . S
C733 C736 1.363 . S
N734 C736 1.356 . S
N734 H746 0.984 . S
N734 H747 0.985 . S
N735 C737 1.356 . S
N735 H740 0.984 . S
N735 H741 0.985 . S
C736 C730 1.379 . S
C736 C733 1.363 . S
C736 N734 1.356 . S
C737 C731 1.363 . S
C737 C732 1.379 . S
C737 N735 1.356 . S
N738 C730 1.356 . S
N738 H744 0.984 . S
N738 H745 0.984 . S
N739 C732 1.356 . S
N739 H742 0.984 . S
N739 H743 0.985 . S
H740 N735 0.984 . S
H741 N735 0.985 . S
H742 N739 0.984 . S
H743 N739 0.985 . S
H744 N738 0.984 . S
H745 N738 0.984 . S
H746 N734 0.984 . S
H747 N734 0.985 . S
C748 C749 1.363 . S
C748 C754 1.379 . S
C748 N756 1.356 . S
C749 C748 1.363 . S
C749 C755 1.363 . S
C750 C751 1.363 . S
C750 C755 1.379 . S
C750 N757 1.356 . S
C751 C750 1.363 . S
C751 C754 1.363 . S
N752 C754 1.356 . S
N752 H764 0.984 . S
N752 H765 0.985 . S
N753 C755 1.356 . S
N753 H758 0.984 . S
N753 H759 0.985 . S
C754 C748 1.379 . S
C754 C751 1.363 . S
C754 N752 1.356 . S
C755 C749 1.363 . S
C755 C750 1.379 . S
C755 N753 1.356 . S
N756 C748 1.356 . S
N756 H762 0.984 . S
N756 H763 0.984 . S
N757 C750 1.356 . S
N757 H760 0.984 . S
N757 H761 0.985 . S
H758 N753 0.984 . S
H759 N753 0.985 . S
H760 N757 0.984 . S
H761 N757 0.985 . S
H762 N756 0.984 . S
H763 N756 0.984 . S
H764 N752 0.984 . S
H765 N752 0.985 . S
C766 C767 1.363 . S
C766 C772 1.379 . S
C766 N774 1.356 . S
C767 C766 1.363 . S
C767 C773 1.363 . S
C768 C769 1.363 . S
C768 C773 1.379 . S
C768 N775 1.356 . S
C769 C768 1.363 . S
C769 C772 1.363 . S
N770 C772 1.356 . S
N770 H782 0.984 . S
N770 H783 0.985 . S
N771 C773 1.356 . S
N771 H776 0.984 . S
N771 H777 0.985 . S
C772 C766 1.379 . S
C772 C769 1.363 . S
C772 N770 1.356 . S
C773 C767 1.363 . S
C773 C768 1.379 . S
C773 N771 1.356 . S
N774 C766 1.356 . S
N774 H780 0.984 . S
N774 H781 0.984 . S
N775 C768 1.356 . S
N775 H778 0.984 . S
N775 H779 0.985 . S
H776 N771 0.984 . S
H777 N771 0.985 . S
H778 N775 0.984 . S
H779 N775 0.985 . S
H780 N774 0.984 . S
H781 N774 0.984 . S
H782 N770 0.984 . S
H783 N770 0.985 . S
C784 C785 1.363 . S
C784 C790 1.379 . S
C784 N792 1.356 . S
C785 C784 1.363 . S
C785 C791 1.363 . S
C786 C787 1.363 . S
C786 C791 1.379 . S
C786 N793 1.356 . S
C787 C786 1.363 . S
C787 C790 1.363 . S
N788 C790 1.356 . S
N788 H800 0.984 . S
N788 H801 0.985 . S
N789 C791 1.356 . S
N789 H794 0.984 . S
N789 H795 0.985 . S
C790 C784 1.379 . S
C790 C787 1.363 . S
C790 N788 1.356 . S
C791 C785 1.363 . S
C791 C786 1.379 . S
C791 N789 1.356 . S
N792 C784 1.356 . S
N792 H798 0.984 . S
N792 H799 0.984 . S
N793 C786 1.356 . S
N793 H796 0.984 . S
N793 H797 0.985 . S
H794 N789 0.984 . S
H795 N789 0.985 . S
H796 N793 0.984 . S
H797 N793 0.985 . S
H798 N792 0.984 . S
H799 N792 0.984 . S
H800 N788 0.984 . S
H801 N788 0.985 . S
C802 C803 1.363 . S
C802 C808 1.379 . S
C802 N810 1.356 . S
C803 C802 1.363 . S
C803 C809 1.363 . S
C804 C805 1.363 . S
C804 C809 1.379 . S
C804 N811 1.356 . S
C805 C804 1.363 . S
C805 C808 1.363 . S
N806 C808 1.356 . S
N806 H818 0.984 . S
N806 H819 0.985 . S
N807 C809 1.356 . S
N807 H812 0.984 . S
N807 H813 0.985 . S
C808 C802 1.379 . S
C808 C805 1.363 . S
C808 N806 1.356 . S
C809 C803 1.363 . S
C809 C804 1.379 . S
C809 N807 1.356 . S
N810 C802 1.356 . S
N810 H816 0.984 . S
N810 H817 0.984 . S
N811 C804 1.356 . S
N811 H814 0.984 . S
N811 H815 0.985 . S
H812 N807 0.984 . S
H813 N807 0.985 . S
H814 N811 0.984 . S
H815 N811 0.985 . S
H816 N810 0.984 . S
H817 N810 0.984 . S
H818 N806 0.984 . S
H819 N806 0.985 . S
C820 C821 1.363 . S
C820 C826 1.379 . S
C820 N828 1.356 . S
C821 C820 1.363 . S
C821 C827 1.363 . S
C822 C823 1.363 . S
C822 C827 1.379 . S
C822 N829 1.356 . S
C823 C822 1.363 . S
C823 C826 1.363 . S
N824 C826 1.356 . S
N824 H836 0.984 . S
N824 H837 0.985 . S
N825 C827 1.356 . S
N825 H830 0.984 . S
N825 H831 0.985 . S
C826 C820 1.379 . S
C826 C823 1.363 . S
C826 N824 1.356 . S
C827 C821 1.363 . S
C827 C822 1.379 . S
C827 N825 1.356 . S
N828 C820 1.356 . S
N828 H834 0.984 . S
N828 H835 0.984 . S
N829 C822 1.356 . S
N829 H832 0.984 . S
N829 H833 0.985 . S
H830 N825 0.984 . S
H831 N825 0.985 . S
H832 N829 0.984 . S
H833 N829 0.985 . S
H834 N828 0.984 . S
H835 N828 0.984 . S
H836 N824 0.984 . S
H837 N824 0.985 . S
C838 C839 1.363 . S
C838 C844 1.379 . S
C838 N846 1.356 . S
C839 C838 1.363 . S
C839 C845 1.363 . S
C840 C841 1.363 . S
C840 C845 1.379 . S
C840 N847 1.356 . S
C841 C840 1.363 . S
C841 C844 1.363 . S
N842 C844 1.356 . S
N842 H854 0.984 . S
N842 H855 0.985 . S
N843 C845 1.356 . S
N843 H848 0.984 . S
N843 H849 0.985 . S
C844 C838 1.379 . S
C844 C841 1.363 . S
C844 N842 1.356 . S
C845 C839 1.363 . S
C845 C840 1.379 . S
C845 N843 1.356 . S
N846 C838 1.356 . S
N846 H852 0.984 . S
N846 H853 0.984 . S
N847 C840 1.356 . S
N847 H850 0.984 . S
N847 H851 0.985 . S
H848 N843 0.984 . S
H849 N843 0.985 . S
H850 N847 0.984 . S
H851 N847 0.985 . S
H852 N846 0.984 . S
H853 N846 0.984 . S
H854 N842 0.984 . S
H855 N842 0.985 . S
C856 C857 1.363 . S
C856 C862 1.379 . S
C856 N864 1.356 . S
C857 C856 1.363 . S
C857 C863 1.363 . S
C858 C859 1.363 . S
C858 C863 1.379 1_565 S
C858 N865 1.356 . S
C859 C858 1.363 . S
C859 C862 1.363 1_565 S
N860 C862 1.356 1_554 S
N860 H872 0.984 . S
N860 H873 0.985 1_545 S
N861 C863 1.356 . S
N861 H866 0.984 . S
N861 H867 0.985 . S
C862 C856 1.379 . S
C862 C859 1.363 1_545 S
C862 N860 1.356 1_556 S
C863 C857 1.363 . S
C863 C858 1.379 1_545 S
C863 N861 1.356 . S
N864 C856 1.356 . S
N864 H870 0.990 . S
N864 H871 0.984 . S
N865 C858 1.356 . S
N865 H868 0.984 . S
N865 H869 0.985 . S
H866 N861 0.984 . S
H867 N861 0.985 . S
H868 N865 0.984 . S
H869 N865 0.985 . S
H870 N864 0.990 . S
H871 N864 0.984 . S
H872 N860 0.984 . S
H873 N860 0.985 1_565 S
C874 C875 1.363 . S
C874 C880 1.379 1_455 S
C874 N882 1.356 . S
C875 C874 1.363 . S
C875 C881 1.363 . S
C876 C877 1.363 1_456 S
C876 C881 1.379 1_556 S
C876 N883 1.356 . S
C877 C876 1.363 1_654 S
C877 C880 1.363 . S
N878 C880 1.356 . S
N878 H890 0.984 . S
N878 H891 0.985 . S
N879 C881 1.356 1_556 S
N879 H884 0.984 1_556 S
N879 H885 0.985 . S
C880 C874 1.379 1_655 S
C880 C877 1.363 . S
C880 N878 1.356 . S
C881 C875 1.363 . S
C881 C876 1.379 1_554 S
C881 N879 1.356 1_554 S
N882 C874 1.356 . S
N882 H888 0.984 . S
N882 H889 0.984 . S
N883 C876 1.356 . S
N883 H886 0.984 1_455 S
N883 H887 0.985 . S
H884 N879 0.984 1_554 S
H885 N879 0.985 . S
H886 N883 0.984 1_655 S
H887 N883 0.985 . S
H888 N882 0.984 . S
H889 N882 0.984 . S
H890 N878 0.984 . S
H891 N878 0.985 . S
C892 C893 1.363 1_564 S
C892 C898 1.379 1_554 S
C892 N900 1.356 1_565 S
C893 C892 1.363 1_546 S
C893 C899 1.363 1_545 S
C894 C895 1.363 . S
C894 C899 1.379 . S
C894 N901 1.356 . S
C895 C894 1.363 . S
C895 C898 1.363 . S
N896 C898 1.356 . S
N896 H908 0.984 1_556 S
N896 H909 0.985 . S
N897 C899 1.356 1_545 S
N897 H902 0.984 . S
N897 H903 0.985 . S
C898 C892 1.379 1_556 S
C898 C895 1.363 . S
C898 N896 1.356 . S
C899 C893 1.363 1_565 S
C899 C894 1.379 . S
C899 N897 1.356 1_565 S
N900 C892 1.356 1_545 S
N900 H906 0.984 . S
N900 H907 0.984 . S
N901 C894 1.356 . S
N901 H904 0.984 . S
N901 H905 0.985 . S
H902 N897 0.984 . S
H903 N897 0.985 . S
H904 N901 0.984 . S
H905 N901 0.985 . S
H906 N900 0.984 . S
H907 N900 0.984 . S
H908 N896 0.984 1_554 S
H909 N896 0.985 . S
C910 C911 1.363 . S
C910 C916 1.379 1_455 S
C910 N918 1.334 1_554 S
C911 C910 1.363 . S
C911 C917 1.363 1_455 S
C912 C913 1.363 . S
C912 C917 1.379 . S
C912 N919 1.356 . S
C913 C912 1.363 . S
C913 C916 1.363 . S
N914 C916 1.356 . S
N914 H926 0.984 . S
N914 H927 0.985 . S
N915 C917 1.356 . S
N915 H920 0.984 1_655 S
N915 H921 0.985 . S
C916 C910 1.379 1_655 S
C916 C913 1.363 . S
C916 N914 1.356 . S
C917 C911 1.363 1_655 S
C917 C912 1.379 . S
C917 N915 1.356 . S
N918 C910 1.334 1_556 S
N918 H924 0.990 . S
N918 H925 1.006 . S
N919 C912 1.356 . S
N919 H922 0.984 . S
N919 H923 0.985 . S
H920 N915 0.984 1_455 S
H921 N915 0.985 . S
H922 N919 0.984 . S
H923 N919 0.985 . S
H924 N918 0.990 . S
H925 N918 1.006 . S
H926 N914 0.984 . S
H927 N914 0.985 . S
C928 C929 1.363 1_565 S
C928 C934 1.379 . S
C928 N936 1.356 1_565 S
C929 C928 1.363 1_545 S
C929 C935 1.363 . S
C930 C931 1.363 . S
C930 C935 1.379 1_565 S
C930 N937 1.356 . S
C931 C930 1.363 . S
C931 C934 1.363 . S
N932 C934 1.356 . S
N932 H944 0.984 . S
N932 H945 0.985 . S
N933 C935 1.356 . S
N933 H938 0.984 . S
N933 H939 0.985 . S
C934 C928 1.379 . S
C934 C931 1.363 . S
C934 N932 1.356 . S
C935 C929 1.363 . S
C935 C930 1.379 1_545 S
C935 N933 1.356 . S
N936 C928 1.356 1_545 S
N936 H942 0.984 1_545 S
N936 H943 0.984 . S
N937 C930 1.356 . S
N937 H940 0.984 . S
N937 H941 0.985 . S
H938 N933 0.984 . S
H939 N933 0.985 . S
H940 N937 0.984 . S
H941 N937 0.985 . S
H942 N936 0.984 1_565 S
H943 N936 0.984 . S
H944 N932 0.984 . S
H945 N932 0.985 . S
C946 C947 1.363 . S
C946 C952 1.379 1_655 S
C946 N954 1.356 . S
C947 C946 1.363 . S
C947 C953 1.363 . S
C948 C949 1.363 1_655 S
C948 C953 1.379 . S
C948 N955 1.356 . S
C949 C948 1.363 1_455 S
C949 C952 1.363 . S
N950 C952 1.356 . S
N950 H962 0.984 . S
N950 H963 0.985 . S
N951 C953 1.356 . S
N951 H956 0.984 . S
N951 H957 0.985 . S
C952 C946 1.379 1_455 S
C952 C949 1.363 . S
C952 N950 1.356 . S
C953 C947 1.363 . S
C953 C948 1.379 . S
C953 N951 1.356 . S
N954 C946 1.356 . S
N954 H960 0.984 . S
N954 H961 0.984 . S
N955 C948 1.356 . S
N955 H958 0.984 1_655 S
N955 H959 0.985 . S
H956 N951 0.984 . S
H957 N951 0.985 . S
H958 N955 0.984 1_455 S
H959 N955 0.985 . S
H960 N954 0.984 . S
H961 N954 0.984 . S
H962 N950 0.984 . S
H963 N950 0.985 . S
C964 C965 1.363 . S
C964 C970 1.379 . S
C964 N972 1.356 . S
C965 C964 1.363 . S
C965 C971 1.363 . S
C966 C967 1.363 . S
C966 C971 1.379 1_565 S
C966 N973 1.356 . S
C967 C966 1.363 . S
C967 C970 1.363 1_565 S
N968 C970 1.356 . S
N968 H980 0.984 . S
N968 H981 0.985 1_545 S
N969 C971 1.356 . S
N969 H974 0.984 . S
N969 H975 0.985 . S
C970 C964 1.379 . S
C970 C967 1.363 1_545 S
C970 N968 1.356 . S
C971 C965 1.363 . S
C971 C966 1.379 1_545 S
C971 N969 1.356 . S
N972 C964 1.356 . S
N972 H978 0.984 . S
N972 H979 0.984 . S
N973 C966 1.356 . S
N973 H976 0.984 . S
N973 H977 0.985 . S
H974 N969 0.984 . S
H975 N969 0.985 . S
H976 N973 0.984 . S
H977 N973 0.985 . S
H978 N972 0.984 . S
H979 N972 0.984 . S
H980 N968 0.984 . S
H981 N968 0.985 1_565 S
C982 C983 1.363 1_455 S
C982 C988 1.379 . S
C982 N990 1.356 1_455 S
C983 C982 1.363 1_655 S
C983 C989 1.363 . S
C984 C985 1.363 . S
C984 C989 1.379 1_455 S
C984 N991 1.356 . S
C985 C984 1.363 . S
C985 C988 1.363 . S
N986 C988 1.356 . S
N986 H998 0.984 . S
N986 H999 0.985 . S
N987 C989 1.356 . S
N987 H992 0.984 . S
N987 H993 0.985 . S
C988 C982 1.379 . S
C988 C985 1.363 . S
C988 N986 1.356 . S
C989 C983 1.363 . S
C989 C984 1.379 1_655 S
C989 N987 1.356 . S
N990 C982 1.356 1_655 S
N990 H996 0.984 1_655 S
N990 H997 0.984 . S
N991 C984 1.356 . S
N991 H994 0.984 . S
N991 H995 0.985 . S
H992 N987 0.984 . S
H993 N987 0.985 . S
H994 N991 0.984 . S
H995 N991 0.985 . S
H996 N990 0.984 1_455 S
H997 N990 0.984 . S
H998 N986 0.984 . S
H999 N986 0.985 . S
C1000 C1001 1.363 . S
C1000 C1006 1.379 . S
C1000 N1008 1.356 . S
C1001 C1000 1.363 . S
C1001 C1007 1.363 . S
C1002 C1003 1.363 . S
C1002 C1007 1.379 . S
C1002 N1009 1.356 . S
C1003 C1002 1.363 . S
C1003 C1006 1.363 . S
N1004 C1006 1.356 . S
N1004 H1016 0.984 . S
N1004 H1017 0.985 . S
N1005 C1007 1.356 . S
N1005 H1010 0.984 . S
N1005 H1011 0.985 . S
C1006 C1000 1.379 . S
C1006 C1003 1.363 . S
C1006 N1004 1.356 . S
C1007 C1001 1.363 . S
C1007 C1002 1.379 . S
C1007 N1005 1.356 . S
N1008 C1000 1.356 . S
N1008 H1014 0.984 . S
N1008 H1015 0.984 . S
N1009 C1002 1.356 . S
N1009 H1012 0.984 . S
N1009 H1013 0.985 . S
H1010 N1005 0.984 . S
H1011 N1005 0.985 . S
H1012 N1009 0.984 . S
H1013 N1009 0.985 . S
H1014 N1008 0.984 . S
H1015 N1008 0.984 . S
H1016 N1004 0.984 . S
H1017 N1004 0.985 . S
C1018 C1019 1.363 . S
C1018 C1024 1.379 . S
C1018 N1026 1.356 . S
C1019 C1018 1.363 . S
C1019 C1025 1.363 . S
C1020 C1021 1.363 . S
C1020 C1025 1.379 . S
C1020 N1027 1.356 . S
C1021 C1020 1.363 . S
C1021 C1024 1.363 . S
N1022 C1024 1.356 . S
N1022 H1034 0.984 . S
N1022 H1035 0.985 . S
N1023 C1025 1.356 . S
N1023 H1028 0.984 . S
N1023 H1029 0.985 . S
C1024 C1018 1.379 . S
C1024 C1021 1.363 . S
C1024 N1022 1.356 . S
C1025 C1019 1.363 . S
C1025 C1020 1.379 . S
C1025 N1023 1.356 . S
N1026 C1018 1.356 . S
N1026 H1032 0.984 . S
N1026 H1033 0.984 . S
N1027 C1020 1.356 . S
N1027 H1030 0.984 . S
N1027 H1031 0.985 . S
H1028 N1023 0.984 . S
H1029 N1023 0.985 . S
H1030 N1027 0.984 . S
H1031 N1027 0.985 . S
H1032 N1026 0.984 . S
H1033 N1026 0.984 . S
H1034 N1022 0.984 . S
H1035 N1022 0.985 . S
C1036 C1037 1.363 . S
C1036 C1042 1.379 . S
C1036 N1044 1.356 . S
C1037 C1036 1.363 . S
C1037 C1043 1.363 . S
C1038 C1039 1.363 . S
C1038 C1043 1.379 . S
C1038 N1045 1.356 . S
C1039 C1038 1.363 . S
C1039 C1042 1.363 . S
N1040 C1042 1.356 . S
N1040 H1052 0.984 . S
N1040 H1053 0.985 . S
N1041 C1043 1.356 . S
N1041 H1046 0.984 . S
N1041 H1047 0.985 . S
C1042 C1036 1.379 . S
C1042 C1039 1.363 . S
C1042 N1040 1.356 . S
C1043 C1037 1.363 . S
C1043 C1038 1.379 . S
C1043 N1041 1.356 . S
N1044 C1036 1.356 . S
N1044 H1050 0.984 . S
N1044 H1051 0.984 . S
N1045 C1038 1.356 . S
N1045 H1048 0.984 . S
N1045 H1049 0.985 . S
H1046 N1041 0.984 . S
H1047 N1041 0.985 . S
H1048 N1045 0.984 . S
H1049 N1045 0.985 . S
H1050 N1044 0.984 . S
H1051 N1044 0.984 . S
H1052 N1040 0.984 . S
H1053 N1040 0.985 . S
C1054 C1055 1.363 . S
C1054 C1060 1.379 . S
C1054 N1062 1.356 . S
C1055 C1054 1.363 . S
C1055 C1061 1.363 . S
C1056 C1057 1.363 . S
C1056 C1061 1.379 . S
C1056 N1063 1.356 . S
C1057 C1056 1.363 . S
C1057 C1060 1.363 . S
N1058 C1060 1.356 . S
N1058 H1070 0.984 . S
N1058 H1071 0.985 . S
N1059 C1061 1.356 . S
N1059 H1064 0.984 . S
N1059 H1065 0.985 . S
C1060 C1054 1.379 . S
C1060 C1057 1.363 . S
C1060 N1058 1.356 . S
C1061 C1055 1.363 . S
C1061 C1056 1.379 . S
C1061 N1059 1.356 . S
N1062 C1054 1.356 . S
N1062 H1068 0.984 . S
N1062 H1069 0.984 . S
N1063 C1056 1.356 . S
N1063 H1066 0.984 . S
N1063 H1067 0.985 . S
H1064 N1059 0.984 . S
H1065 N1059 0.985 . S
H1066 N1063 0.984 . S
H1067 N1063 0.985 . S
H1068 N1062 0.984 . S
H1069 N1062 0.984 . S
H1070 N1058 0.984 . S
H1071 N1058 0.985 . S
C1072 C1073 1.363 . S
C1072 C1078 1.379 1_545 S
C1072 N1080 1.356 . S
C1073 C1072 1.363 . S
C1073 C1079 1.363 1_455 S
C1074 C1075 1.363 . S
C1074 C1079 1.379 1_565 S
C1074 N1081 1.356 . S
C1075 C1074 1.363 . S
C1075 C1078 1.363 1_655 S
N1076 C1078 1.356 1_655 S
N1076 H1088 0.984 1_655 S
N1076 H1089 0.985 . S
N1077 C1079 1.356 1_455 S
N1077 H1082 0.984 . S
N1077 H1083 0.985 1_455 S
C1078 C1072 1.379 1_565 S
C1078 C1075 1.363 1_455 S
C1078 N1076 1.356 1_455 S
C1079 C1073 1.363 1_655 S
C1079 C1074 1.379 1_545 S
C1079 N1077 1.356 1_655 S
N1080 C1072 1.356 . S
N1080 H1086 0.984 1_545 S
N1080 H1087 0.984 . S
N1081 C1074 1.356 . S
N1081 H1084 0.984 . S
N1081 H1085 0.985 1_565 S
H1082 N1077 0.984 . S
H1083 N1077 0.985 1_655 S
H1084 N1081 0.984 . S
H1085 N1081 0.985 1_545 S
H1086 N1080 0.984 1_565 S
H1087 N1080 0.984 . S
H1088 N1076 0.984 1_455 S
H1089 N1076 0.985 . S
C1090 C1091 1.363 1_565 S
C1090 C1096 1.379 1_655 S
C1090 N1098 1.356 1_565 S
C1091 C1090 1.363 1_545 S
C1091 C1097 1.363 . S
C1092 C1093 1.363 1_545 S
C1092 C1097 1.379 1_455 S
C1092 N1099 1.356 1_545 S
C1093 C1092 1.363 1_565 S
C1093 C1096 1.363 . S
N1094 C1096 1.356 . S
N1094 H1106 0.984 1_455 S
N1094 H1107 0.985 . S
N1095 C1097 1.356 . S
N1095 H1100 0.984 . S
N1095 H1101 0.985 1_655 S
C1096 C1090 1.379 1_455 S
C1096 C1093 1.363 . S
C1096 N1094 1.356 . S
C1097 C1091 1.363 . S
C1097 C1092 1.379 1_655 S
C1097 N1095 1.356 . S
N1098 C1090 1.356 1_545 S
N1098 H1104 0.984 1_545 S
N1098 H1105 0.984 . S
N1099 C1092 1.356 1_565 S
N1099 H1102 0.984 . S
N1099 H1103 0.985 1_565 S
H1100 N1095 0.984 . S
H1101 N1095 0.985 1_455 S
H1102 N1099 0.984 . S
H1103 N1099 0.985 1_545 S
H1104 N1098 0.984 1_565 S
H1105 N1098 0.984 . S
H1106 N1094 0.984 1_655 S
H1107 N1094 0.985 . S
C1108 C1109 1.363 . S
C1108 C1114 1.379 . S
C1108 N1116 1.356 . S
C1109 C1108 1.363 . S
C1109 C1115 1.363 1_455 S
C1110 C1111 1.363 . S
C1110 C1115 1.379 . S
C1110 N1117 1.356 . S
C1111 C1110 1.363 . S
C1111 C1114 1.363 1_655 S
N1112 C1114 1.356 1_655 S
N1112 H1124 0.984 1_655 S
N1112 H1125 0.985 . S
N1113 C1115 1.356 1_455 S
N1113 H1118 0.984 . S
N1113 H1119 0.985 1_455 S
C1114 C1108 1.379 . S
C1114 C1111 1.363 1_455 S
C1114 N1112 1.356 1_455 S
C1115 C1109 1.363 1_655 S
C1115 C1110 1.379 . S
C1115 N1113 1.356 1_655 S
N1116 C1108 1.356 . S
N1116 H1122 0.984 . S
N1116 H1123 0.984 . S
N1117 C1110 1.356 . S
N1117 H1120 0.984 . S
N1117 H1121 0.985 . S
H1118 N1113 0.984 . S
H1119 N1113 0.985 1_655 S
H1120 N1117 0.984 . S
H1121 N1117 0.985 . S
H1122 N1116 0.984 . S
H1123 N1116 0.984 . S
H1124 N1112 0.984 1_455 S
H1125 N1112 0.985 . S
C1126 C1127 1.363 . S
C1126 C1132 1.379 . S
C1126 N1134 1.356 . S
C1127 C1126 1.363 . S
C1127 C1133 1.363 1_565 S
C1128 C1129 1.363 . S
C1128 C1133 1.379 . S
C1128 N1135 1.356 . S
C1129 C1128 1.363 . S
C1129 C1132 1.363 1_545 S
N1130 C1132 1.356 1_545 S
N1130 H1142 0.984 1_545 S
N1130 H1143 0.985 . S
N1131 C1133 1.356 1_565 S
N1131 H1136 0.984 . S
N1131 H1137 0.985 1_565 S
C1132 C1126 1.379 . S
C1132 C1129 1.363 1_565 S
C1132 N1130 1.356 1_565 S
C1133 C1127 1.363 1_545 S
C1133 C1128 1.379 . S
C1133 N1131 1.356 1_545 S
N1134 C1126 1.356 . S
N1134 H1140 0.984 . S
N1134 H1141 0.984 . S
N1135 C1128 1.356 . S
N1135 H1138 0.984 . S
N1135 H1139 0.985 . S
H1136 N1131 0.984 . S
H1137 N1131 0.985 1_545 S
H1138 N1135 0.984 . S
H1139 N1135 0.985 . S
H1140 N1134 0.984 . S
H1141 N1134 0.984 . S
H1142 N1130 0.984 1_565 S
H1143 N1130 0.985 . S
C1144 C1145 1.363 . S
C1144 C1150 1.379 . S
C1144 N1152 1.356 . S
C1145 C1144 1.363 . S
C1145 C1151 1.363 . S
C1146 C1147 1.363 . S
C1146 C1151 1.379 . S
C1146 N1153 1.356 . S
C1147 C1146 1.363 . S
C1147 C1150 1.363 . S
N1148 C1150 1.356 . S
N1148 H1160 0.984 . S
N1148 H1161 0.985 . S
N1149 C1151 1.356 . S
N1149 H1154 0.984 . S
N1149 H1155 0.985 . S
C1150 C1144 1.379 . S
C1150 C1147 1.363 . S
C1150 N1148 1.356 . S
C1151 C1145 1.363 . S
C1151 C1146 1.379 . S
C1151 N1149 1.356 . S
N1152 C1144 1.356 . S
N1152 H1158 0.984 . S
N1152 H1159 0.984 . S
N1153 C1146 1.356 . S
N1153 H1156 0.984 . S
N1153 H1157 0.985 . S
H1154 N1149 0.984 . S
H1155 N1149 0.985 . S
H1156 N1153 0.984 . S
H1157 N1153 0.985 . S
H1158 N1152 0.984 . S
H1159 N1152 0.984 . S
H1160 N1148 0.984 . S
H1161 N1148 0.985 . S
C1162 C1163 1.363 . S
C1162 C1168 1.379 . S
C1162 N1170 1.356 . S
C1163 C1162 1.363 . S
C1163 C1169 1.363 . S
C1164 C1165 1.363 . S
C1164 C1169 1.379 . S
C1164 N1171 1.356 . S
C1165 C1164 1.363 . S
C1165 C1168 1.363 . S
N1166 C1168 1.356 . S
N1166 H1178 0.984 . S
N1166 H1179 0.985 . S
N1167 C1169 1.356 . S
N1167 H1172 0.984 . S
N1167 H1173 0.985 . S
C1168 C1162 1.379 . S
C1168 C1165 1.363 . S
C1168 N1166 1.356 . S
C1169 C1163 1.363 . S
C1169 C1164 1.379 . S
C1169 N1167 1.356 . S
N1170 C1162 1.356 . S
N1170 H1176 0.984 . S
N1170 H1177 0.984 . S
N1171 C1164 1.356 . S
N1171 H1174 0.984 . S
N1171 H1175 0.985 . S
H1172 N1167 0.984 . S
H1173 N1167 0.985 . S
H1174 N1171 0.984 . S
H1175 N1171 0.985 . S
H1176 N1170 0.984 . S
H1177 N1170 0.984 . S
H1178 N1166 0.984 . S
H1179 N1166 0.985 . S
C1180 C1181 1.363 . S
C1180 C1186 1.379 1_565 S
C1180 N1188 1.356 . S
C1181 C1180 1.363 . S
C1181 C1187 1.363 . S
C1182 C1183 1.363 . S
C1182 C1187 1.379 1_545 S
C1182 N1189 1.356 . S
C1183 C1182 1.363 . S
C1183 C1186 1.363 . S
N1184 C1186 1.356 . S
N1184 H1196 0.984 . S
N1184 H1197 0.985 . S
N1185 C1187 1.356 . S
N1185 H1190 0.984 . S
N1185 H1191 0.985 . S
C1186 C1180 1.379 1_545 S
C1186 C1183 1.363 . S
C1186 N1184 1.356 . S
C1187 C1181 1.363 . S
C1187 C1182 1.379 1_565 S
C1187 N1185 1.356 . S
N1188 C1180 1.356 . S
N1188 H1194 0.984 1_565 S
N1188 H1195 0.984 . S
N1189 C1182 1.356 . S
N1189 H1192 0.984 . S
N1189 H1193 0.985 1_545 S
H1190 N1185 0.984 . S
H1191 N1185 0.985 . S
H1192 N1189 0.984 . S
H1193 N1189 0.985 1_565 S
H1194 N1188 0.984 1_545 S
H1195 N1188 0.984 . S
H1196 N1184 0.984 . S
H1197 N1184 0.985 . S
C1198 C1199 1.363 . S
C1198 C1204 1.379 1_655 S
C1198 N1206 1.356 . S
C1199 C1198 1.363 . S
C1199 C1205 1.363 . S
C1200 C1201 1.363 . S
C1200 C1205 1.379 1_455 S
C1200 N1207 1.356 . S
C1201 C1200 1.363 . S
C1201 C1204 1.363 . S
N1202 C1204 1.356 . S
N1202 H1214 0.984 1_455 S
N1202 H1215 0.985 . S
N1203 C1205 1.356 . S
N1203 H1208 0.984 . S
N1203 H1209 0.985 1_655 S
C1204 C1198 1.379 1_455 S
C1204 C1201 1.363 . S
C1204 N1202 1.356 . S
C1205 C1199 1.363 . S
C1205 C1200 1.379 1_655 S
C1205 N1203 1.356 . S
N1206 C1198 1.356 . S
N1206 H1212 0.984 . S
N1206 H1213 0.984 . S
N1207 C1200 1.356 . S
N1207 H1210 0.984 . S
N1207 H1211 0.985 . S
H1208 N1203 0.984 . S
H1209 N1203 0.985 1_455 S
H1210 N1207 0.984 . S
H1211 N1207 0.985 . S
H1212 N1206 0.984 . S
H1213 N1206 0.984 . S
H1214 N1202 0.984 1_655 S
H1215 N1202 0.985 . S
C353 C247 1.529 . S
C355 C9 1.472 . S
C371 C28 1.472 . S
C373 C182 1.529 . S
C389 C49 1.471 . S
C391 C207 1.529 . S
C407 C227 1.529 . S
C409 C73 1.472 . S
C425 C93 1.472 1_554 S
C427 C119 1.529 . S
C443 C116 1.471 1_556 S
C445 C138 1.529 . S
C461 C159 1.529 . S
C463 C141 1.472 1_554 S
C479 C95 1.529 . S
C481 C161 1.472 1_556 S
C497 C185 1.472 . S
C499 C71 1.529 . S
C515 C204 1.472 . S
C517 C6 1.529 . S
C533 C31 1.529 . S
C535 C225 1.471 . S
C551 C249 1.472 . S
C553 C51 1.529 . S
C569 C269 1.472 . S
C571 C295 1.529 . S
C587 C314 1.529 . S
C589 C292 1.471 . S
C605 C335 1.529 . S
C607 C317 1.472 . S
C623 C337 1.472 . S
C625 C271 1.529 . S
C641 C4 1.470 . S
C643 C312 1.470 . S
C659 C30 1.470 . S
C661 C334 1.470 . S
C677 C52 1.470 . S
C679 C272 1.470 . S
C695 C70 1.470 . S
C697 C294 1.470 . S
C713 C96 1.470 . S
C715 C228 1.470 . S
C731 C118 1.470 . S
C733 C246 1.470 . S
C749 C136 1.470 . S
C751 C180 1.470 . S
C767 C158 1.470 . S
C769 C206 1.470 . S
C785 C5 1.276 . S
C787 C251 1.275 . S
C803 C29 1.276 . S
C805 C183 1.275 . S
C821 C203 1.275 . S
C823 C53 1.276 . S
C839 C72 1.276 . S
C841 C226 1.275 . S
C857 C97 1.276 . S
C859 C115 1.275 1_556 S
C875 C117 1.276 . S
C877 C139 1.275 1_554 S
C893 C163 1.275 1_556 S
C895 C137 1.276 . S
C911 C94 1.275 1_554 S
C913 C160 1.276 . S
C929 C75 1.275 . S
C931 C181 1.276 . S
C947 C205 1.276 . S
C949 C7 1.275 . S
C965 C229 1.276 . S
C967 C27 1.275 . S
C983 C50 1.275 . S
C985 C248 1.276 . S
C1001 C273 1.276 . S
C1003 C291 1.275 . S
C1019 C293 1.276 . S
C1021 C315 1.275 . S
C1037 C339 1.275 . S
C1039 C313 1.276 . S
C1055 C270 1.275 . S
C1057 C336 1.276 . S
C1073 C8 1.766 . S
C1075 C48 1.766 . S
C1091 C74 1.766 . S
C1093 C26 1.766 . S
C1109 C92 1.766 . S
C1111 C140 1.766 . S
C1127 C114 1.766 . S
C1129 C162 1.766 . S
C1145 C184 1.766 . S
C1147 C224 1.766 . S
C1163 C250 1.766 . S
C1165 C202 1.766 . S
C1181 C268 1.766 . S
C1183 C316 1.766 . S
C1199 C290 1.766 . S
C1201 C338 1.766 . S
