# Generated by pormake.
# Topology ske, (6)-cn, num edge types: 1
# Building blocks:
#     Node 0, Type 0, BuildingBlock: MIDCAF_clean_sbu_0, # of connection points: 6
#     Node 1, Type 0, BuildingBlock: MIDCAF_clean_sbu_0, # of connection points: 6
#     Node 2, Type 0, BuildingBlock: MIDCAF_clean_sbu_0, # of connection points: 6
#     Node 3, Type 0, BuildingBlock: MIDCAF_clean_sbu_0, # of connection points: 6
#     Node 4, Type 0, BuildingBlock: MIDCAF_clean_sbu_0, # of connection points: 6
#     Node 5, Type 0, BuildingBlock: MIDCAF_clean_sbu_0, # of connection points: 6
#     Node 6, Type 0, BuildingBlock: MIDCAF_clean_sbu_0, # of connection points: 6
#     Node 7, Type 0, BuildingBlock: MIDCAF_clean_sbu_0, # of connection points: 6
#     Edge 8, Type (0, 0), BuildingBlock: EZIPEK_clean_linker_0, # of connection points: 2
#     Edge 9, Type (0, 0), BuildingBlock: EZIPEK_clean_linker_0, # of connection points: 2
#     Edge 10, Type (0, 0), BuildingBlock: EZIPEK_clean_linker_0, # of connection points: 2
#     Edge 11, Type (0, 0), BuildingBlock: EZIPEK_clean_linker_0, # of connection points: 2
#     Edge 12, Type (0, 0), BuildingBlock: EZIPEK_clean_linker_0, # of connection points: 2
#     Edge 13, Type (0, 0), BuildingBlock: EZIPEK_clean_linker_0, # of connection points: 2
#     Edge 14, Type (0, 0), BuildingBlock: EZIPEK_clean_linker_0, # of connection points: 2
#     Edge 15, Type (0, 0), BuildingBlock: EZIPEK_clean_linker_0, # of connection points: 2
#     Edge 16, Type (0, 0), BuildingBlock: EZIPEK_clean_linker_0, # of connection points: 2
#     Edge 17, Type (0, 0), BuildingBlock: EZIPEK_clean_linker_0, # of connection points: 2
#     Edge 18, Type (0, 0), BuildingBlock: EZIPEK_clean_linker_0, # of connection points: 2
#     Edge 19, Type (0, 0), BuildingBlock: EZIPEK_clean_linker_0, # of connection points: 2
#     Edge 20, Type (0, 0), BuildingBlock: EZIPEK_clean_linker_0, # of connection points: 2
#     Edge 21, Type (0, 0), BuildingBlock: EZIPEK_clean_linker_0, # of connection points: 2
#     Edge 22, Type (0, 0), BuildingBlock: EZIPEK_clean_linker_0, # of connection points: 2
#     Edge 23, Type (0, 0), BuildingBlock: EZIPEK_clean_linker_0, # of connection points: 2
#     Edge 24, Type (0, 0), BuildingBlock: EZIPEK_clean_linker_0, # of connection points: 2
#     Edge 25, Type (0, 0), BuildingBlock: EZIPEK_clean_linker_0, # of connection points: 2
#     Edge 26, Type (0, 0), BuildingBlock: EZIPEK_clean_linker_0, # of connection points: 2
#     Edge 27, Type (0, 0), BuildingBlock: EZIPEK_clean_linker_0, # of connection points: 2
#     Edge 28, Type (0, 0), BuildingBlock: EZIPEK_clean_linker_0, # of connection points: 2
#     Edge 29, Type (0, 0), BuildingBlock: EZIPEK_clean_linker_0, # of connection points: 2
#     Edge 30, Type (0, 0), BuildingBlock: EZIPEK_clean_linker_0, # of connection points: 2
#     Edge 31, Type (0, 0), BuildingBlock: EZIPEK_clean_linker_0, # of connection points: 2
# Relax obj value: 0.101
# Max RMSD: 0.160
# Mean RMSD: 0.160
data_MOF--net-ske--node1-MIDCAF_clean_sbu_0--edge1-EZIPEK_clean_linker_0
_symmetry_space_group_name_H-M    P1
_symmetry_Int_Tables_number       1
_symmetry_cell_setting            triclinic
loop_
_symmetry_equiv_pos_as_xyz
'x, y, z'
_cell_length_a     44.599985
_cell_length_b     22.163679
_cell_length_c     11.580462
_cell_angle_alpha  89.584019
_cell_angle_beta   89.623995
_cell_angle_gamma 90.230649
loop_
_atom_site_label
_atom_site_type_symbol
_atom_site_fract_x
_atom_site_fract_y
_atom_site_fract_z
_atom_type_partial_charge
Zn0 Zn 0.15216 0.17436 0.48326 0.0
Zn1 Zn 0.09918 0.30432 0.68825 0.0
Zn2 Zn 0.12652 0.24873 0.57734 0.0
C3 C 0.05626 0.25827 0.57588 0.0
C4 C 0.13489 0.38348 0.57796 0.0
O5 O 0.16564 0.22731 0.68385 0.0
O6 O 0.19191 0.18123 0.54873 0.0
C7 C 0.10255 0.11346 0.52906 0.0
O8 O 0.07809 0.22011 0.57488 0.0
O9 O 0.06128 0.3119 0.60515 0.0
O10 O 0.12675 0.3736 0.68052 0.0
O11 O 0.13238 0.34081 0.50326 0.0
O12 O 0.12973 0.1004 0.51391 0.0
O13 O 0.09502 0.16908 0.54574 0.0
O14 O 0.1401 0.29493 0.41439 0.0
O15 O 0.148 0.20802 0.32893 0.0
C16 C 0.14558 0.26456 0.32221 0.0
O17 O 0.14454 0.25898 0.75932 0.0
O18 O 0.09949 0.25938 0.8367 0.0
C19 C 0.19046 0.20474 0.64709 0.0
C20 C 0.12753 0.26056 0.85013 0.0
Zn21 Zn 0.8328 0.34188 0.49629 0.0
Zn22 Zn 0.88232 0.17977 0.66126 0.0
Zn23 Zn 0.86097 0.25706 0.57296 0.0
C24 C 0.92866 0.23044 0.5601 0.0
C25 C 0.84594 0.12372 0.53093 0.0
O26 O 0.82288 0.27506 0.69094 0.0
O27 O 0.79506 0.33473 0.58179 0.0
C28 C 0.88945 0.38708 0.54081 0.0
O29 O 0.90973 0.27358 0.57542 0.0
O30 O 0.91983 0.17641 0.56805 0.0
O31 O 0.84912 0.12211 0.63857 0.0
O32 O 0.85289 0.17278 0.47638 0.0
O33 O 0.86271 0.40515 0.53312 0.0
O34 O 0.89498 0.33018 0.54817 0.0
O35 O 0.84651 0.22441 0.40537 0.0
O36 O 0.8327 0.31318 0.33666 0.0
C37 C 0.83822 0.25813 0.32081 0.0
O38 O 0.84493 0.24766 0.75505 0.0
O39 O 0.88621 0.20507 0.82025 0.0
C40 C 0.79794 0.30234 0.67076 0.0
C41 C 0.86133 0.22976 0.83997 0.0
Zn42 Zn 0.1217 0.6856 0.36389 0.0
Zn43 Zn 0.16658 0.85231 0.52908 0.0
Zn44 Zn 0.14038 0.76486 0.45411 0.0
C45 C 0.16395 0.76788 0.70627 0.0
C46 C 0.10892 0.89273 0.48515 0.0
O47 O 0.15908 0.75741 0.27581 0.0
O48 O 0.12012 0.70933 0.20362 0.0
C49 C 0.15601 0.63092 0.50417 0.0
O50 O 0.15447 0.73385 0.62472 0.0
O51 O 0.16961 0.82278 0.68711 0.0
O52 O 0.13515 0.91285 0.49951 0.0
O53 O 0.1046 0.83556 0.47227 0.0
O54 O 0.15433 0.62877 0.39606 0.0
O55 O 0.14815 0.68012 0.55497 0.0
O56 O 0.09114 0.7774 0.44319 0.0
O57 O 0.08268 0.67925 0.44547 0.0
C58 C 0.07283 0.73236 0.45338 0.0
O59 O 0.17983 0.78817 0.34115 0.0
O60 O 0.20437 0.85522 0.44541 0.0
C61 C 0.14454 0.73693 0.1884 0.0
C62 C 0.20338 0.82083 0.35956 0.0
Zn63 Zn 0.90262 0.80875 0.34013 0.0
Zn64 Zn 0.84248 0.66781 0.51494 0.0
Zn65 Zn 0.87507 0.74381 0.4349 0.0
C66 C 0.85214 0.75247 0.68605 0.0
C67 C 0.89612 0.60962 0.47633 0.0
O68 O 0.86059 0.75285 0.25136 0.0
O69 O 0.90559 0.77706 0.18513 0.0
C70 C 0.86498 0.87807 0.4518 0.0
O71 O 0.8619 0.78374 0.59951 0.0
O72 O 0.84372 0.6987 0.67224 0.0
O73 O 0.86845 0.5976 0.48253 0.0
O74 O 0.90494 0.66493 0.46747 0.0
O75 O 0.87342 0.87377 0.34858 0.0
O76 O 0.86834 0.83246 0.52025 0.0
O77 O 0.92325 0.717 0.44038 0.0
O78 O 0.93936 0.81107 0.43278 0.0
C79 C 0.94472 0.75596 0.44976 0.0
O80 O 0.8368 0.7293 0.31576 0.0
O81 O 0.80536 0.67972 0.43095 0.0
C82 C 0.87869 0.76285 0.16577 0.0
C83 C 0.81041 0.70793 0.33812 0.0
Zn84 Zn 0.61722 0.85055 0.03849 0.0
Zn85 Zn 0.67317 0.69543 0.87484 0.0
Zn86 Zn 0.64297 0.7741 0.95788 0.0
C87 C 0.66613 0.77536 0.6997 0.0
C88 C 0.61845 0.6414 0.9306 0.0
O89 O 0.65917 0.78673 0.13576 0.0
O90 O 0.61715 0.82699 0.20057 0.0
C91 C 0.65829 0.90811 0.90999 0.0
O92 O 0.65664 0.8071 0.78519 0.0
O93 O 0.67392 0.72141 0.71502 0.0
O94 O 0.64557 0.62835 0.91209 0.0
O95 O 0.6107 0.69713 0.94123 0.0
O96 O 0.64611 0.9148 0.00723 0.0
O97 O 0.65469 0.85769 0.85665 0.0
O98 O 0.59385 0.75206 0.96345 0.0
O99 O 0.57867 0.84663 0.95632 0.0
C100 C 0.57263 0.79111 0.95104 0.0
O101 O 0.68081 0.75306 0.07659 0.0
O102 O 0.71044 0.70186 0.95916 0.0
C103 C 0.64265 0.80505 0.22008 0.0
C104 C 0.70621 0.72784 0.05409 0.0
Zn105 Zn 0.34473 0.85104 0.90492 0.0
Zn106 Zn 0.40053 0.69427 0.0722 0.0
Zn107 Zn 0.37495 0.77092 -0.01174 0.0
C108 C 0.44503 0.75316 0.97398 0.0
C109 C 0.36149 0.63526 0.94445 0.0
O110 O 0.33698 0.79201 0.10898 0.0
O111 O 0.30799 0.84673 -0.0049 0.0
C112 C 0.40038 0.90291 0.9454 0.0
O113 O 0.42405 0.79279 -0.01412 0.0
O114 O 0.43894 0.69795 -0.01302 0.0
O115 O 0.37237 0.62856 0.04351 0.0
O116 O 0.36444 0.68665 0.89233 0.0
O117 O 0.37333 0.91745 0.93088 0.0
O118 O 0.40741 0.84707 0.96119 0.0
O119 O 0.36059 0.73711 0.81901 0.0
O120 O 0.34283 0.82227 0.74711 0.0
C121 C 0.35065 0.76831 0.73319 0.0
O122 O 0.35899 0.75936 0.16848 0.0
O123 O 0.40078 0.71849 0.23315 0.0
C124 C 0.31183 0.81871 0.08872 0.0
C125 C 0.37538 0.74094 0.25288 0.0
Zn126 Zn 0.59326 0.19717 -0.00044 0.0
Zn127 Zn 0.65693 0.33972 0.12918 0.0
Zn128 Zn 0.62557 0.26953 0.03337 0.0
C129 C 0.63667 0.25968 0.29685 0.0
C130 C 0.6116 0.40851 0.02313 0.0
O131 O 0.64033 0.24085 0.85998 0.0
O132 O 0.59302 0.22229 0.82547 0.0
C133 C 0.6411 0.13328 0.97766 0.0
O134 O 0.62564 0.23461 0.20756 0.0
O135 O 0.6514 0.30817 0.28744 0.0
O136 O 0.635 0.41447 0.08294 0.0
O137 O 0.60257 0.35538 -0.00482 0.0
O138 O 0.61719 0.12304 0.03396 0.0
O139 O 0.64808 0.18854 0.95198 0.0
O140 O 0.5796 0.30331 0.00166 0.0
O141 O 0.55932 0.22675 0.09444 0.0
C142 C 0.55626 0.27809 0.04753 0.0
O143 O 0.66627 0.26186 0.92671 0.0
O144 O 0.69374 0.31894 0.04136 0.0
C145 C 0.61896 0.23461 0.78604 0.0
C146 C 0.69154 0.2867 0.95223 0.0
Zn147 Zn 0.39088 0.30708 0.7478 0.0
Zn148 Zn 0.33638 0.1468 0.07662 0.0
Zn149 Zn 0.36957 0.25473 0.88448 0.0
C150 C 0.33891 0.27413 0.1126 0.0
C151 C 0.39923 0.12712 0.96234 0.0
O152 O 0.34724 0.24848 0.70161 0.0
O153 O 0.38957 0.26135 0.60508 0.0
C154 C 0.35913 0.38718 0.86164 0.0
O155 O 0.35816 0.30158 0.04842 0.0
O156 O 0.32375 0.234 0.06323 0.0
O157 O 0.37606 0.11165 0.0199 0.0
O158 O 0.40177 0.17996 0.91495 0.0
O159 O 0.35989 0.3705 0.75806 0.0
O160 O 0.36625 0.34914 0.94144 0.0
O161 O 0.41798 0.23388 0.89162 0.0
O162 O 0.4295 0.32336 0.82157 0.0
C163 C 0.4372 0.27681 0.8763 0.0
O164 O 0.33019 0.22082 0.80259 0.0
O165 O 0.30716 0.17014 0.94735 0.0
C166 C 0.36178 0.25034 0.60371 0.0
C167 C 0.30707 0.19436 0.8472 0.0
C168 C 0.23107 0.14755 0.74063 0.0
C169 C 0.21794 0.20425 0.71634 0.0
C170 C 0.26338 0.25563 0.78087 0.0
C171 C 0.27775 0.19867 0.79047 0.0
N172 N 0.27689 0.09086 0.76523 0.0
N173 N 0.22201 0.31258 0.70149 0.0
C174 C 0.262 0.14467 0.76655 0.0
C175 C 0.2341 0.25853 0.73387 0.0
N176 N 0.21366 0.09663 0.74066 0.0
N177 N 0.27705 0.30656 0.82134 0.0
H178 H 0.20014 0.3168 0.67139 0.0
H179 H 0.23424 0.3527 0.69798 0.0
H180 H 0.29851 0.30678 0.85638 0.0
H181 H 0.26622 0.34791 0.8286 0.0
H182 H 0.22123 0.05454 0.76805 0.0
H183 H 0.19067 0.09778 0.72423 0.0
H184 H 0.26727 0.05066 0.73746 0.0
H185 H 0.29981 0.08744 0.78167 0.0
C186 C 0.73232 0.23439 0.83809 0.0
C187 C 0.71724 0.28779 0.87095 0.0
C188 C 0.75827 0.34877 0.79128 0.0
C189 C 0.77192 0.29586 0.74865 0.0
N190 N 0.7681 0.18936 0.70702 0.0
N191 N 0.71184 0.39571 0.84871 0.0
C192 C 0.75791 0.23878 0.76497 0.0
C193 C 0.72902 0.34503 0.83834 0.0
N194 N 0.72309 0.17984 0.8802 0.0
N195 N 0.77351 0.40241 0.78923 0.0
H196 H 0.68961 0.39442 0.87745 0.0
H197 H 0.71847 0.43775 0.81652 0.0
H198 H 0.79545 0.40647 0.75815 0.0
H199 H 0.76555 0.4412 0.82926 0.0
H200 H 0.73513 0.14011 0.86874 0.0
H201 H 0.70464 0.17567 0.93476 0.0
H202 H 0.75664 0.14829 0.70663 0.0
H203 H 0.7867 0.19063 0.65203 0.0
C204 C 0.27202 0.76193 0.20027 0.0
C205 C 0.28638 0.81723 0.17103 0.0
C206 C 0.24305 0.87273 0.24373 0.0
C207 C 0.23022 0.81793 0.28463 0.0
N208 N 0.2364 0.71155 0.32642 0.0
N209 N 0.28859 0.92545 0.18868 0.0
C210 C 0.24575 0.7627 0.26999 0.0
C211 C 0.2728 0.87275 0.20046 0.0
N212 N 0.28236 0.70892 0.1566 0.0
N213 N 0.22644 0.92444 0.24272 0.0
H214 H 0.31084 0.92671 0.16021 0.0
H215 H 0.28073 0.96675 0.2185 0.0
H216 H 0.20406 0.92556 0.2696 0.0
H217 H 0.23379 0.96445 0.20396 0.0
H218 H 0.27065 0.66829 0.16487 0.0
H219 H 0.30143 0.70656 0.10457 0.0
H220 H 0.24895 0.67198 0.3278 0.0
H221 H 0.21752 0.70998 0.3799 0.0
C222 C 0.74169 0.6676 0.16993 0.0
C223 C 0.73071 0.72526 0.13846 0.0
C224 C 0.77243 0.77312 0.23931 0.0
C225 C 0.78525 0.71535 0.25781 0.0
N226 N 0.78494 0.60828 0.22284 0.0
N227 N 0.73802 0.83304 0.12609 0.0
C228 C 0.77068 0.66273 0.21774 0.0
C229 C 0.74664 0.77824 0.16875 0.0
N230 N 0.72402 0.61761 0.15632 0.0
N231 N 0.78405 0.82265 0.29276 0.0
H232 H 0.719 0.83861 0.07531 0.0
H233 H 0.75085 0.87212 0.13466 0.0
H234 H 0.80324 0.82095 0.34353 0.0
H235 H 0.77346 0.86448 0.29299 0.0
H236 H 0.72974 0.57504 0.18762 0.0
H237 H 0.70222 0.61995 0.1243 0.0
H238 H 0.77656 0.5693 0.18482 0.0
H239 H 0.80661 0.60343 0.25502 0.0
C240 C 0.07745 0.96111 0.59982 0.0
C241 C 0.08446 0.93794 0.48951 0.0
C242 C 0.07788 0.03867 0.40613 0.0
C243 C 0.0809 0.06292 0.51815 0.0
N244 N 0.07536 0.05026 0.72218 0.0
N245 N 0.08285 0.94961 0.28456 0.0
C246 C 0.0769 0.02488 0.61541 0.0
C247 C 0.08078 0.97511 0.3911 0.0
N248 N 0.07343 0.92159 0.68922 0.0
N249 N 0.07471 0.07743 0.31511 0.0
H250 H 0.08463 0.90288 0.2754 0.0
H251 H 0.08274 0.97379 0.20725 0.0
H252 H 0.07317 0.12395 0.32796 0.0
H253 H 0.07187 0.06386 0.23007 0.0
H254 H 0.06772 0.9342 0.77288 0.0
H255 H 0.07379 0.87514 0.6751 0.0
H256 H 0.07492 0.02578 0.79915 0.0
H257 H 0.07463 0.09709 0.73194 0.0
C258 C 0.91745 0.47262 0.62404 0.0
C259 C 0.91316 0.43378 0.52944 0.0
C260 C 0.91959 0.51835 0.39486 0.0
C261 C 0.91685 0.55799 0.48926 0.0
N262 N 0.92592 0.57569 0.68919 0.0
N263 N 0.92276 0.41401 0.33016 0.0
C264 C 0.92086 0.53567 0.60273 0.0
C265 C 0.91929 0.45497 0.41632 0.0
N266 N 0.91569 0.44924 0.73313 0.0
N267 N 0.91981 0.54178 0.28564 0.0
H268 H 0.9227 0.36781 0.34839 0.0
H269 H 0.92796 0.42536 0.245 0.0
H270 H 0.92042 0.58837 0.27122 0.0
H271 H 0.91909 0.51588 0.21113 0.0
H272 H 0.91598 0.4751 0.80775 0.0
H273 H 0.91369 0.40276 0.74728 0.0
H274 H 0.92972 0.56342 0.77474 0.0
H275 H 0.92861 0.62158 0.67092 0.0
C276 C 0.88177 0.98249 0.46625 0.0
C277 C 0.85874 0.93996 0.49 0.0
C278 C 0.82281 0.0226 0.50868 0.0
C279 C 0.84574 0.06416 0.47572 0.0
N280 N 0.89393 0.08018 0.38506 0.0
N281 N 0.80656 0.91777 0.52284 0.0
C282 C 0.87414 0.0428 0.44106 0.0
C283 C 0.82889 0.95945 0.50803 0.0
N284 N 0.91108 0.96481 0.46817 0.0
N285 N 0.79564 0.04416 0.54375 0.0
H286 H 0.81098 0.87169 0.53004 0.0
H287 H 0.78387 0.92861 0.52412 0.0
H288 H 0.79042 0.08997 0.53785 0.0
H289 H 0.77892 0.01735 0.58106 0.0
H290 H 0.92899 0.99495 0.46069 0.0
H291 H 0.91729 0.92086 0.49015 0.0
H292 H 0.91435 0.06541 0.35161 0.0
H293 H 0.88832 0.12377 0.35912 0.0
C294 C 0.12935 0.55029 0.60795 0.0
C295 C 0.15686 0.57124 0.56209 0.0
C296 C 0.17155 0.46605 0.52332 0.0
C297 C 0.14184 0.44729 0.54977 0.0
N298 N 0.09073 0.47409 0.59488 0.0
N299 N 0.20522 0.55005 0.4799 0.0
C300 C 0.12024 0.49039 0.58521 0.0
C301 C 0.1785 0.52903 0.52242 0.0
N302 N 0.11182 0.58763 0.6726 0.0
N303 N 0.19303 0.42391 0.50113 0.0
H304 H 0.21117 0.59559 0.48503 0.0
H305 H 0.22078 0.52321 0.43715 0.0
H306 H 0.1881 0.37799 0.49529 0.0
H307 H 0.21577 0.43408 0.49344 0.0
H308 H 0.09228 0.57319 0.71434 0.0
H309 H 0.11893 0.63048 0.69711 0.0
H310 H 0.07364 0.50493 0.61078 0.0
H311 H 0.08308 0.43094 0.57432 0.0
C312 C 0.59767 0.54867 0.84702 0.0
C313 C 0.59733 0.58952 0.94024 0.0
C314 C 0.58686 0.50544 0.07285 0.0
C315 C 0.59623 0.46483 -0.01424 0.0
N316 N 0.60699 0.44592 0.78524 0.0
N317 N 0.5848 0.60981 0.13745 0.0
C318 C 0.59946 0.48558 0.87019 0.0
C319 C 0.58877 0.56885 0.05145 0.0
N320 N 0.5982 0.5713 0.73718 0.0
N321 N 0.57727 0.48271 0.17659 0.0
H322 H 0.58485 0.65609 0.12045 0.0
H323 H 0.58171 0.59842 0.22403 0.0
H324 H 0.57577 0.43625 0.1917 0.0
H325 H 0.56872 0.50896 0.24315 0.0
H326 H 0.59676 0.54474 0.66364 0.0
H327 H 0.59742 0.61777 0.72149 0.0
H328 H 0.61291 0.45889 0.70156 0.0
H329 H 0.60837 0.39961 0.80011 0.0
C330 C 0.42941 0.98252 0.04472 0.0
C331 C 0.42254 0.9529 0.94063 0.0
C332 C 0.42257 0.04952 0.83678 0.0
C333 C 0.42189 0.07888 0.94482 0.0
N334 N 0.43883 0.07855 0.13994 0.0
N335 N 0.42552 0.9537 0.73472 0.0
C336 C 0.43082 0.04675 0.04473 0.0
C337 C 0.42428 0.98531 0.83511 0.0
N338 N 0.43186 0.94934 0.14378 0.0
N339 N 0.41898 0.0826 0.73809 0.0
H340 H 0.42664 0.90666 0.73592 0.0
H341 H 0.42768 0.97337 0.65323 0.0
H342 H 0.41895 0.12966 0.73881 0.0
H343 H 0.4162 0.06396 0.65665 0.0
H344 H 0.43398 0.96802 0.22553 0.0
H345 H 0.4314 0.90223 0.1424 0.0
H346 H 0.44644 0.05884 0.21608 0.0
H347 H 0.44011 0.12562 0.13691 0.0
C348 C 0.37651 0.49135 0.81443 0.0
C349 C 0.35688 0.45301 0.87981 0.0
C350 C 0.33078 0.54197 0.95203 0.0
C351 C 0.351 0.57945 0.88849 0.0
N352 N 0.38423 0.58954 0.72597 0.0
N353 N 0.31144 0.44101 -0.00879 0.0
C354 C 0.37062 0.55386 0.80746 0.0
C355 C 0.33267 0.47803 0.94264 0.0
N356 N 0.40186 0.46868 0.76432 0.0
N357 N 0.3106 0.5683 0.02456 0.0
H358 H 0.31274 0.3941 -0.01233 0.0
H359 H 0.29174 0.45655 0.02916 0.0
H360 H 0.30767 0.61489 0.0245 0.0
H361 H 0.2975 0.54477 0.08461 0.0
H362 H 0.41834 0.49569 0.72578 0.0
H363 H 0.40814 0.42373 0.77216 0.0
H364 H 0.39709 0.57243 0.65836 0.0
H365 H 0.37955 0.63537 0.71801 0.0
C366 C 0.68128 0.05333 0.97248 0.0
C367 C 0.65588 0.08086 0.92109 0.0
C368 C 0.65191 0.9953 0.78736 0.0
C369 C 0.67153 0.96312 0.85804 0.0
N370 N 0.71557 0.96766 0.97214 0.0
N371 N 0.61664 0.07727 0.77706 0.0
C372 C 0.69041 0.99546 0.93289 0.0
C373 C 0.64164 0.05255 0.82494 0.0
N374 N 0.69463 0.07945 0.06554 0.0
N375 N 0.64156 0.96842 0.68989 0.0
H376 H 0.60727 0.11696 0.80682 0.0
H377 H 0.60385 0.05624 0.71409 0.0
H378 H 0.64887 0.92543 0.66656 0.0
H379 H 0.62843 0.99028 0.62861 0.0
H380 H 0.71149 0.05899 0.1134 0.0
H381 H 0.68781 0.12102 0.09812 0.0
H382 H 0.73155 0.9885 0.0236 0.0
H383 H 0.72119 0.92456 0.94329 0.0
C384 C 0.17104 0.26278 0.1336 0.0
C385 C 0.14926 0.29091 0.2047 0.0
C386 C 0.12311 0.3222 0.03032 0.0
C387 C 0.1389 0.27734 0.96646 0.0
N388 N 0.17775 0.20167 0.96385 0.0
N389 N 0.10499 0.35269 0.21824 0.0
C390 C 0.16351 0.24783 0.01845 0.0
C391 C 0.12578 0.32357 0.15239 0.0
N392 N 0.19791 0.24662 0.17978 0.0
N393 N 0.1059 0.36393 0.97448 0.0
H394 H 0.10716 0.35803 0.30691 0.0
H395 H 0.0851 0.36979 0.18472 0.0
H396 H 0.10447 0.36627 0.88484 0.0
H397 H 0.09598 0.4003 0.01631 0.0
H398 H 0.21546 0.22921 0.13048 0.0
H399 H 0.20328 0.25681 0.26519 0.0
H400 H 0.19439 0.17582 0.00276 0.0
H401 H 0.17064 0.18483 0.88504 0.0
C402 C 0.87155 0.26256 0.15256 0.0
C403 C 0.84445 0.24062 0.20144 0.0
C404 C 0.8273 0.21016 0.01054 0.0
C405 C 0.8528 0.23936 0.96114 0.0
N406 N 0.89544 0.30548 -0.01665 0.0
N407 N 0.79487 0.19936 0.17893 0.0
C408 C 0.87385 0.26912 0.0318 0.0
C409 C 0.82171 0.21612 0.131 0.0
N410 N 0.89515 0.27709 0.2219 0.0
N411 N 0.80942 0.17449 0.94411 0.0
H412 H 0.79091 0.20062 0.26784 0.0
H413 H 0.77625 0.1874 0.13017 0.0
H414 H 0.81345 0.16781 0.85641 0.0
H415 H 0.79212 0.14784 0.97769 0.0
H416 H 0.91642 0.28768 0.18975 0.0
H417 H 0.89429 0.27249 0.31159 0.0
H418 H 0.90968 0.33264 0.03171 0.0
H419 H 0.89688 0.31361 0.8946 0.0
C420 C 0.17733 0.7182 0.01568 0.0
C421 C 0.15351 0.75016 0.06901 0.0
C422 C 0.13377 0.77903 0.88167 0.0
C423 C 0.15882 0.75175 0.82768 0.0
N424 N 0.20642 0.70157 0.84038 0.0
N425 N 0.11353 0.82248 0.05606 0.0
C426 C 0.1813 0.72307 0.89382 0.0
C427 C 0.13314 0.78422 0.00272 0.0
N428 N 0.19524 0.68163 0.08064 0.0
N429 N 0.11039 0.79951 0.81669 0.0
H430 H 0.11307 0.82825 0.14546 0.0
H431 H 0.10001 0.85287 0.01151 0.0
H432 H 0.11015 0.79659 0.72687 0.0
H433 H 0.09016 0.81392 0.85224 0.0
H434 H 0.21116 0.65271 0.04558 0.0
H435 H 0.19294 0.67782 0.17007 0.0
H436 H 0.2251 0.68593 0.88481 0.0
H437 H 0.20902 0.70227 0.75071 0.0
C438 C 0.83918 0.79438 0.88048 0.0
C439 C 0.86029 0.76812 0.80456 0.0
C440 C 0.88835 0.72813 0.96743 0.0
C441 C 0.86927 0.75938 0.04427 0.0
N442 N 0.83013 0.83333 0.07234 0.0
N443 N 0.90887 0.72339 0.77482 0.0
C444 C 0.84549 0.79556 0.0008 0.0
C445 C 0.88627 0.73981 0.84809 0.0
N446 N 0.81312 0.81741 0.83786 0.0
N447 N 0.90769 0.68535 0.00824 0.0
H448 H 0.90795 0.73076 0.68587 0.0
H449 H 0.92963 0.70831 0.80385 0.0
H450 H 0.90872 0.67318 0.09537 0.0
H451 H 0.92017 0.65737 0.9544 0.0
H452 H 0.79536 0.83103 0.89032 0.0
H453 H 0.80885 0.81976 0.74939 0.0
H454 H 0.8144 0.86438 0.04293 0.0
H455 H 0.83498 0.8375 0.15974 0.0
C456 C 0.63226 0.75903 0.40993 0.0
C457 C 0.65121 0.79596 0.34092 0.0
C458 C 0.6797 0.82545 0.51171 0.0
C459 C 0.65903 0.79243 0.58075 0.0
N460 N 0.6121 0.73857 0.6002 0.0
N461 N 0.68995 0.87195 0.3251 0.0
C462 C 0.63409 0.76289 0.53105 0.0
C463 C 0.67426 0.8313 0.39123 0.0
N464 N 0.61322 0.71873 0.35924 0.0
N465 N 0.7046 0.85008 0.561 0.0
H466 H 0.68624 0.87754 0.23685 0.0
H467 H 0.7051 0.9029 0.35886 0.0
H468 H 0.70818 0.84877 0.65 0.0
H469 H 0.72224 0.86898 0.51352 0.0
H470 H 0.60095 0.68641 0.40534 0.0
H471 H 0.61203 0.71339 0.26996 0.0
H472 H 0.59197 0.72164 0.56854 0.0
H473 H 0.61267 0.74059 0.69016 0.0
C474 C 0.38347 0.77979 0.5642 0.0
C475 C 0.35796 0.7514 0.61419 0.0
C476 C 0.3431 0.71431 0.42471 0.0
C477 C 0.36655 0.74932 0.374 0.0
N478 N 0.40527 0.82482 0.3926 0.0
N479 N 0.31179 0.69618 0.59422 0.0
C480 C 0.38566 0.7848 0.44307 0.0
C481 C 0.33718 0.71987 0.5451 0.0
N482 N 0.40571 0.80178 0.63298 0.0
N483 N 0.32758 0.67393 0.35934 0.0
H484 H 0.30785 0.69725 0.68315 0.0
H485 H 0.29416 0.67843 0.54647 0.0
H486 H 0.33192 0.66792 0.2716 0.0
H487 H 0.31208 0.64334 0.39364 0.0
H488 H 0.42624 0.81718 0.60072 0.0
H489 H 0.40487 0.79903 0.72292 0.0
H490 H 0.41766 0.85617 0.43916 0.0
H491 H 0.40685 0.83102 0.30333 0.0
C492 C 0.60327 0.25972 0.46722 0.0
C493 C 0.62977 0.2383 0.41472 0.0
C494 C 0.64886 0.20757 0.60414 0.0
C495 C 0.62403 0.23681 0.65833 0.0
N496 N 0.58176 0.304 0.63773 0.0
N497 N 0.67917 0.19634 0.43069 0.0
C498 C 0.60217 0.26598 0.58873 0.0
C499 C 0.65291 0.21325 0.48254 0.0
N500 N 0.57945 0.27608 0.40055 0.0
N501 N 0.66807 0.17273 0.66671 0.0
H502 H 0.68198 0.19608 0.3411 0.0
H503 H 0.69853 0.1857 0.47626 0.0
H504 H 0.66659 0.16738 0.75526 0.0
H505 H 0.68416 0.14488 0.62955 0.0
H506 H 0.55845 0.28652 0.43486 0.0
H507 H 0.57985 0.27339 0.31072 0.0
H508 H 0.56723 0.33097 0.59005 0.0
H509 H 0.5819 0.31455 0.72507 0.0
C510 C 0.32421 0.29899 0.32073 0.0
C511 C 0.34328 0.26812 0.24174 0.0
C512 C 0.36288 0.2085 0.4054 0.0
C513 C 0.34798 0.24602 0.48564 0.0
N514 N 0.31456 0.32928 0.51935 0.0
N515 N 0.38382 0.19846 0.2139 0.0
C516 C 0.32829 0.29143 0.44323 0.0
C517 C 0.3633 0.224 0.28574 0.0
N518 N 0.30207 0.33529 0.27877 0.0
N519 N 0.37684 0.15763 0.44465 0.0
H520 H 0.38521 0.20983 0.12689 0.0
H521 H 0.40119 0.17121 0.24297 0.0
H522 H 0.3764 0.14509 0.53179 0.0
H523 H 0.38588 0.12507 0.39025 0.0
H524 H 0.28536 0.35394 0.33043 0.0
H525 H 0.29929 0.34356 0.19067 0.0
H526 H 0.30305 0.36796 0.49437 0.0
H527 H 0.31571 0.3232 0.60847 0.0
C528 C 0.0103 0.23355 0.4608 0.0
C529 C 0.0245 0.23986 0.56903 0.0
C530 C 0.97586 0.25054 0.66537 0.0
C531 C 0.96136 0.24103 0.55843 0.0
N532 N 0.96411 0.21353 0.35753 0.0
N533 N 0.02125 0.23839 0.77638 0.0
C534 C 0.97841 0.22935 0.45688 0.0
C535 C 0.00733 0.2434 0.67195 0.0
N536 N 0.02724 0.23351 0.36209 0.0
N537 N 0.95963 0.26672 0.76079 0.0
H538 H 0.04424 0.23099 0.78337 0.0
H539 H 0.0098 0.23492 0.85483 0.0
H540 H 0.93641 0.27148 0.76063 0.0
H541 H 0.96938 0.28062 0.83765 0.0
H542 H 0.01819 0.23581 0.27953 0.0
H543 H 0.05064 0.23412 0.36336 0.0
H544 H 0.97525 0.19841 0.28402 0.0
H545 H 0.94081 0.21217 0.35099 0.0
C546 C 0.99186 0.71724 0.36283 0.0
C547 C 0.97655 0.73885 0.46178 0.0
C548 C 0.02473 0.75452 0.55924 0.0
C549 C 0.0399 0.74002 0.45536 0.0
N550 N 0.03819 0.71666 0.25252 0.0
N551 N 0.97805 0.78432 0.65029 0.0
C552 C 0.02352 0.72359 0.35566 0.0
C553 C 0.99291 0.75912 0.55917 0.0
N554 N 0.97617 0.69142 0.27485 0.0
N555 N 0.04063 0.76203 0.65851 0.0
H556 H 0.95473 0.78624 0.6551 0.0
H557 H 0.98881 0.80636 0.71757 0.0
H558 H 0.06393 0.75919 0.66067 0.0
H559 H 0.03071 0.76651 0.73963 0.0
H560 H 0.98632 0.66916 0.20616 0.0
H561 H 0.9529 0.68731 0.27515 0.0
H562 H 0.02729 0.71107 0.17407 0.0
H563 H 0.06129 0.72247 0.24329 0.0
C564 C 0.52389 0.77158 0.84992 0.0
C565 C 0.54049 0.77408 0.95379 0.0
C566 C 0.49371 0.77722 0.06634 0.0
C567 C 0.47712 0.7697 0.96342 0.0
N568 N 0.47607 0.75092 0.75886 0.0
N569 N 0.54182 0.769 0.16154 0.0
C570 C 0.49213 0.76438 0.85545 0.0
C571 C 0.52553 0.77374 0.06227 0.0
N572 N 0.53844 0.77741 0.74624 0.0
N573 N 0.47899 0.78825 0.16796 0.0
H574 H 0.56514 0.7659 0.1615 0.0
H575 H 0.53226 0.76244 0.24294 0.0
H576 H 0.45568 0.79073 0.17415 0.0
H577 H 0.48979 0.80021 0.2439 0.0
H578 H 0.52745 0.78276 0.66779 0.0
H579 H 0.56173 0.78036 0.73962 0.0
H580 H 0.48587 0.73999 0.67994 0.0
H581 H 0.45276 0.74708 0.7597 0.0
C582 C 0.47164 0.27364 0.04801 0.0
C583 C 0.46763 0.27644 0.92636 0.0
C584 C 0.51866 0.31511 0.90537 0.0
C585 C 0.5251 0.29727 0.01977 0.0
N586 N 0.50663 0.26642 0.20698 0.0
N587 N 0.48946 0.29242 0.73692 0.0
C588 C 0.50113 0.27861 0.09342 0.0
C589 C 0.49186 0.29477 0.85433 0.0
N590 N 0.44734 0.2704 0.12017 0.0
N591 N 0.53698 0.35442 0.84763 0.0
H592 H 0.47045 0.27557 0.69588 0.0
H593 H 0.50756 0.3012 0.68172 0.0
H594 H 0.55451 0.37656 0.88841 0.0
H595 H 0.53183 0.37186 0.76629 0.0
H596 H 0.44875 0.27348 0.20965 0.0
H597 H 0.42542 0.27086 0.09008 0.0
H598 H 0.49123 0.2451 0.26181 0.0
H599 H 0.52715 0.27676 0.24492 0.0
loop_
_geom_bond_atom_site_label_1
_geom_bond_atom_site_label_2
_geom_bond_distance
_geom_bond_site_symmetry_2
_ccdc_geom_bond_type
Zn0 O6 1.920 . S
Zn0 O12 1.898 . S
Zn0 O15 1.905 . S
Zn1 O9 1.905 . S
Zn1 O10 1.898 . S
Zn1 O18 1.920 . S
Zn2 O5 2.080 . S
Zn2 O8 2.114 . S
Zn2 O11 2.120 . S
Zn2 O13 2.120 . S
Zn2 O14 2.114 . S
Zn2 O17 2.080 . S
C3 O8 1.166 . S
C3 O9 1.182 . S
C4 O10 1.167 . S
C4 O11 1.299 . S
O5 Zn2 2.080 . S
O5 C19 1.305 . S
O6 Zn0 1.920 . S
O6 C19 1.234 . S
C7 O12 1.167 . S
C7 O13 1.299 . S
O8 Zn2 2.114 . S
O8 C3 1.166 . S
O9 Zn1 1.905 . S
O9 C3 1.182 . S
O10 Zn1 1.898 . S
O10 C4 1.167 . S
O11 Zn2 2.120 . S
O11 C4 1.299 . S
O12 Zn0 1.898 . S
O12 C7 1.167 . S
O13 Zn2 2.120 . S
O13 C7 1.299 . S
O14 Zn2 2.114 . S
O14 C16 1.166 . S
O15 Zn0 1.905 . S
O15 C16 1.182 . S
C16 O14 1.166 . S
C16 O15 1.182 . S
O17 Zn2 2.080 . S
O17 C20 1.305 . S
O18 Zn1 1.920 . S
O18 C20 1.234 . S
C19 O5 1.305 . S
C19 O6 1.234 . S
C20 O17 1.305 . S
C20 O18 1.234 . S
Zn21 O27 1.920 . S
Zn21 O33 1.898 . S
Zn21 O36 1.905 . S
Zn22 O30 1.905 . S
Zn22 O31 1.898 . S
Zn22 O39 1.920 . S
Zn23 O26 2.080 . S
Zn23 O29 2.114 . S
Zn23 O32 2.120 . S
Zn23 O34 2.120 . S
Zn23 O35 2.114 . S
Zn23 O38 2.080 . S
C24 O29 1.166 . S
C24 O30 1.182 . S
C25 O31 1.167 . S
C25 O32 1.299 . S
O26 Zn23 2.080 . S
O26 C40 1.305 . S
O27 Zn21 1.920 . S
O27 C40 1.234 . S
C28 O33 1.167 . S
C28 O34 1.299 . S
O29 Zn23 2.114 . S
O29 C24 1.166 . S
O30 Zn22 1.905 . S
O30 C24 1.182 . S
O31 Zn22 1.898 . S
O31 C25 1.167 . S
O32 Zn23 2.120 . S
O32 C25 1.299 . S
O33 Zn21 1.898 . S
O33 C28 1.167 . S
O34 Zn23 2.120 . S
O34 C28 1.299 . S
O35 Zn23 2.114 . S
O35 C37 1.166 . S
O36 Zn21 1.905 . S
O36 C37 1.182 . S
C37 O35 1.166 . S
C37 O36 1.182 . S
O38 Zn23 2.080 . S
O38 C41 1.305 . S
O39 Zn22 1.920 . S
O39 C41 1.234 . S
C40 O26 1.305 . S
C40 O27 1.234 . S
C41 O38 1.305 . S
C41 O39 1.234 . S
Zn42 O48 1.920 . S
Zn42 O54 1.898 . S
Zn42 O57 1.905 . S
Zn43 O51 1.905 . S
Zn43 O52 1.898 . S
Zn43 O60 1.920 . S
Zn44 O47 2.080 . S
Zn44 O50 2.114 . S
Zn44 O53 2.120 . S
Zn44 O55 2.120 . S
Zn44 O56 2.114 . S
Zn44 O59 2.080 . S
C45 O50 1.166 . S
C45 O51 1.182 . S
C46 O52 1.167 . S
C46 O53 1.299 . S
O47 Zn44 2.080 . S
O47 C61 1.305 . S
O48 Zn42 1.920 . S
O48 C61 1.234 . S
C49 O54 1.167 . S
C49 O55 1.299 . S
O50 Zn44 2.114 . S
O50 C45 1.166 . S
O51 Zn43 1.905 . S
O51 C45 1.182 . S
O52 Zn43 1.898 . S
O52 C46 1.167 . S
O53 Zn44 2.120 . S
O53 C46 1.299 . S
O54 Zn42 1.898 . S
O54 C49 1.167 . S
O55 Zn44 2.120 . S
O55 C49 1.299 . S
O56 Zn44 2.114 . S
O56 C58 1.166 . S
O57 Zn42 1.905 . S
O57 C58 1.182 . S
C58 O56 1.166 . S
C58 O57 1.182 . S
O59 Zn44 2.080 . S
O59 C62 1.305 . S
O60 Zn43 1.920 . S
O60 C62 1.234 . S
C61 O47 1.305 . S
C61 O48 1.234 . S
C62 O59 1.305 . S
C62 O60 1.234 . S
Zn63 O69 1.920 . S
Zn63 O75 1.898 . S
Zn63 O78 1.905 . S
Zn64 O72 1.905 . S
Zn64 O73 1.898 . S
Zn64 O81 1.920 . S
Zn65 O68 2.080 . S
Zn65 O71 2.114 . S
Zn65 O74 2.120 . S
Zn65 O76 2.120 . S
Zn65 O77 2.114 . S
Zn65 O80 2.080 . S
C66 O71 1.166 . S
C66 O72 1.182 . S
C67 O73 1.167 . S
C67 O74 1.299 . S
O68 Zn65 2.080 . S
O68 C82 1.305 . S
O69 Zn63 1.920 . S
O69 C82 1.234 . S
C70 O75 1.167 . S
C70 O76 1.299 . S
O71 Zn65 2.114 . S
O71 C66 1.166 . S
O72 Zn64 1.905 . S
O72 C66 1.182 . S
O73 Zn64 1.898 . S
O73 C67 1.167 . S
O74 Zn65 2.120 . S
O74 C67 1.299 . S
O75 Zn63 1.898 . S
O75 C70 1.167 . S
O76 Zn65 2.120 . S
O76 C70 1.299 . S
O77 Zn65 2.114 . S
O77 C79 1.166 . S
O78 Zn63 1.905 . S
O78 C79 1.182 . S
C79 O77 1.166 . S
C79 O78 1.182 . S
O80 Zn65 2.080 . S
O80 C83 1.305 . S
O81 Zn64 1.920 . S
O81 C83 1.234 . S
C82 O68 1.305 . S
C82 O69 1.234 . S
C83 O80 1.305 . S
C83 O81 1.234 . S
Zn84 O90 1.920 . S
Zn84 O96 1.898 . S
Zn84 O99 1.905 . S
Zn85 O93 1.905 . S
Zn85 O94 1.898 . S
Zn85 O102 1.920 1_556 S
Zn86 O89 2.080 . S
Zn86 O92 2.114 1_554 S
Zn86 O95 2.120 . S
Zn86 O97 2.120 . S
Zn86 O98 2.114 . S
Zn86 O101 2.080 . S
C87 O92 1.166 . S
C87 O93 1.182 . S
C88 O94 1.167 1_554 S
C88 O95 1.299 . S
O89 Zn86 2.080 . S
O89 C103 1.305 . S
O90 Zn84 1.920 . S
O90 C103 1.234 . S
C91 O96 1.167 . S
C91 O97 1.299 . S
O92 Zn86 2.114 1_556 S
O92 C87 1.166 . S
O93 Zn85 1.905 . S
O93 C87 1.182 . S
O94 Zn85 1.898 . S
O94 C88 1.167 1_556 S
O95 Zn86 2.120 . S
O95 C88 1.299 . S
O96 Zn84 1.898 . S
O96 C91 1.167 . S
O97 Zn86 2.120 . S
O97 C91 1.299 . S
O98 Zn86 2.114 . S
O98 C100 1.166 . S
O99 Zn84 1.905 . S
O99 C100 1.182 . S
C100 O98 1.166 . S
C100 O99 1.182 . S
O101 Zn86 2.080 . S
O101 C104 1.305 . S
O102 Zn85 1.920 1_554 S
O102 C104 1.234 . S
C103 O89 1.305 . S
C103 O90 1.234 . S
C104 O101 1.305 . S
C104 O102 1.234 . S
Zn105 O111 1.920 1_556 S
Zn105 O117 1.898 . S
Zn105 O120 1.905 . S
Zn106 O114 1.905 . S
Zn106 O115 1.898 . S
Zn106 O123 1.920 . S
Zn107 O110 2.080 . S
Zn107 O113 2.114 . S
Zn107 O116 2.120 . S
Zn107 O118 2.120 . S
Zn107 O119 2.114 1_554 S
Zn107 O122 2.080 . S
C108 O113 1.166 . S
C108 O114 1.182 . S
C109 O115 1.167 . S
C109 O116 1.299 . S
O110 Zn107 2.080 . S
O110 C124 1.305 . S
O111 Zn105 1.920 1_554 S
O111 C124 1.234 . S
C112 O117 1.167 1_554 S
C112 O118 1.299 . S
O113 Zn107 2.114 . S
O113 C108 1.166 . S
O114 Zn106 1.905 . S
O114 C108 1.182 . S
O115 Zn106 1.898 . S
O115 C109 1.167 . S
O116 Zn107 2.120 . S
O116 C109 1.299 . S
O117 Zn105 1.898 . S
O117 C112 1.167 1_556 S
O118 Zn107 2.120 . S
O118 C112 1.299 . S
O119 Zn107 2.114 1_556 S
O119 C121 1.166 . S
O120 Zn105 1.905 . S
O120 C121 1.182 . S
C121 O119 1.166 . S
C121 O120 1.182 . S
O122 Zn107 2.080 . S
O122 C125 1.305 . S
O123 Zn106 1.920 . S
O123 C125 1.234 . S
C124 O110 1.305 . S
C124 O111 1.234 . S
C125 O122 1.305 . S
C125 O123 1.234 . S
Zn126 O132 1.920 . S
Zn126 O138 1.898 . S
Zn126 O141 1.905 . S
Zn127 O135 1.905 . S
Zn127 O136 1.898 . S
Zn127 O144 1.920 1_554 S
Zn128 O131 2.080 . S
Zn128 O134 2.114 1_556 S
Zn128 O137 2.120 . S
Zn128 O139 2.120 . S
Zn128 O140 2.114 . S
Zn128 O143 2.080 . S
C129 O134 1.166 . S
C129 O135 1.182 . S
C130 O136 1.167 1_556 S
C130 O137 1.299 . S
O131 Zn128 2.080 . S
O131 C145 1.305 . S
O132 Zn126 1.920 . S
O132 C145 1.234 . S
C133 O138 1.167 . S
C133 O139 1.299 . S
O134 Zn128 2.114 1_554 S
O134 C129 1.166 . S
O135 Zn127 1.905 . S
O135 C129 1.182 . S
O136 Zn127 1.898 . S
O136 C130 1.167 1_554 S
O137 Zn128 2.120 . S
O137 C130 1.299 . S
O138 Zn126 1.898 . S
O138 C133 1.167 . S
O139 Zn128 2.120 . S
O139 C133 1.299 . S
O140 Zn128 2.114 . S
O140 C142 1.166 . S
O141 Zn126 1.905 . S
O141 C142 1.182 . S
C142 O140 1.166 . S
C142 O141 1.182 . S
O143 Zn128 2.080 . S
O143 C146 1.305 . S
O144 Zn127 1.920 1_556 S
O144 C146 1.234 . S
C145 O131 1.305 . S
C145 O132 1.234 . S
C146 O143 1.305 . S
C146 O144 1.234 . S
Zn147 O153 1.920 . S
Zn147 O159 1.898 . S
Zn147 O162 1.905 . S
Zn148 O156 1.905 . S
Zn148 O157 1.898 . S
Zn148 O165 1.920 1_554 S
Zn149 O152 2.080 . S
Zn149 O155 2.114 1_556 S
Zn149 O158 2.120 . S
Zn149 O160 2.120 . S
Zn149 O161 2.114 . S
Zn149 O164 2.080 . S
C150 O155 1.166 . S
C150 O156 1.182 . S
C151 O157 1.167 1_556 S
C151 O158 1.299 . S
O152 Zn149 2.080 . S
O152 C166 1.305 . S
O153 Zn147 1.920 . S
O153 C166 1.234 . S
C154 O159 1.167 . S
C154 O160 1.299 . S
O155 Zn149 2.114 1_554 S
O155 C150 1.166 . S
O156 Zn148 1.905 . S
O156 C150 1.182 . S
O157 Zn148 1.898 . S
O157 C151 1.167 1_554 S
O158 Zn149 2.120 . S
O158 C151 1.299 . S
O159 Zn147 1.898 . S
O159 C154 1.167 . S
O160 Zn149 2.120 . S
O160 C154 1.299 . S
O161 Zn149 2.114 . S
O161 C163 1.166 . S
O162 Zn147 1.905 . S
O162 C163 1.182 . S
C163 O161 1.166 . S
C163 O162 1.182 . S
O164 Zn149 2.080 . S
O164 C167 1.305 . S
O165 Zn148 1.920 1_556 S
O165 C167 1.234 . S
C166 O152 1.305 . S
C166 O153 1.234 . S
C167 O164 1.305 . S
C167 O165 1.234 . S
C168 C169 1.363 . S
C168 C174 1.379 . S
C168 N176 1.356 . S
C169 C168 1.363 . S
C169 C175 1.363 . S
C170 C171 1.363 . S
C170 C175 1.379 . S
C170 N177 1.356 . S
C171 C170 1.363 . S
C171 C174 1.363 . S
N172 C174 1.356 . S
N172 H184 0.984 . S
N172 H185 0.985 . S
N173 C175 1.356 . S
N173 H178 0.984 . S
N173 H179 0.985 . S
C174 C168 1.379 . S
C174 C171 1.363 . S
C174 N172 1.356 . S
C175 C169 1.363 . S
C175 C170 1.379 . S
C175 N173 1.356 . S
N176 C168 1.356 . S
N176 H182 0.984 . S
N176 H183 0.984 . S
N177 C170 1.356 . S
N177 H180 0.984 . S
N177 H181 0.985 . S
H178 N173 0.984 . S
H179 N173 0.985 . S
H180 N177 0.984 . S
H181 N177 0.985 . S
H182 N176 0.984 . S
H183 N176 0.984 . S
H184 N172 0.984 . S
H185 N172 0.985 . S
C186 C187 1.363 . S
C186 C192 1.379 . S
C186 N194 1.356 . S
C187 C186 1.363 . S
C187 C193 1.363 . S
C188 C189 1.363 . S
C188 C193 1.379 . S
C188 N195 1.356 . S
C189 C188 1.363 . S
C189 C192 1.363 . S
N190 C192 1.356 . S
N190 H202 0.984 . S
N190 H203 0.985 . S
N191 C193 1.356 . S
N191 H196 0.984 . S
N191 H197 0.985 . S
C192 C186 1.379 . S
C192 C189 1.363 . S
C192 N190 1.356 . S
C193 C187 1.363 . S
C193 C188 1.379 . S
C193 N191 1.356 . S
N194 C186 1.356 . S
N194 H200 0.984 . S
N194 H201 0.984 . S
N195 C188 1.356 . S
N195 H198 0.984 . S
N195 H199 0.985 . S
H196 N191 0.984 . S
H197 N191 0.985 . S
H198 N195 0.984 . S
H199 N195 0.985 . S
H200 N194 0.984 . S
H201 N194 0.984 . S
H202 N190 0.984 . S
H203 N190 0.985 . S
C204 C205 1.363 . S
C204 C210 1.379 . S
C204 N212 1.356 . S
C205 C204 1.363 . S
C205 C211 1.363 . S
C206 C207 1.363 . S
C206 C211 1.379 . S
C206 N213 1.356 . S
C207 C206 1.363 . S
C207 C210 1.363 . S
N208 C210 1.356 . S
N208 H220 0.984 . S
N208 H221 0.985 . S
N209 C211 1.356 . S
N209 H214 0.984 . S
N209 H215 0.985 . S
C210 C204 1.379 . S
C210 C207 1.363 . S
C210 N208 1.356 . S
C211 C205 1.363 . S
C211 C206 1.379 . S
C211 N209 1.356 . S
N212 C204 1.356 . S
N212 H218 0.984 . S
N212 H219 0.984 . S
N213 C206 1.356 . S
N213 H216 0.984 . S
N213 H217 0.985 . S
H214 N209 0.984 . S
H215 N209 0.985 . S
H216 N213 0.984 . S
H217 N213 0.985 . S
H218 N212 0.984 . S
H219 N212 0.984 . S
H220 N208 0.984 . S
H221 N208 0.985 . S
C222 C223 1.363 . S
C222 C228 1.379 . S
C222 N230 1.356 . S
C223 C222 1.363 . S
C223 C229 1.363 . S
C224 C225 1.363 . S
C224 C229 1.379 . S
C224 N231 1.356 . S
C225 C224 1.363 . S
C225 C228 1.363 . S
N226 C228 1.356 . S
N226 H238 0.984 . S
N226 H239 0.985 . S
N227 C229 1.356 . S
N227 H232 0.984 . S
N227 H233 0.985 . S
C228 C222 1.379 . S
C228 C225 1.363 . S
C228 N226 1.356 . S
C229 C223 1.363 . S
C229 C224 1.379 . S
C229 N227 1.356 . S
N230 C222 1.356 . S
N230 H236 0.984 . S
N230 H237 0.984 . S
N231 C224 1.356 . S
N231 H234 0.984 . S
N231 H235 0.985 . S
H232 N227 0.984 . S
H233 N227 0.985 . S
H234 N231 0.984 . S
H235 N231 0.985 . S
H236 N230 0.984 . S
H237 N230 0.984 . S
H238 N226 0.984 . S
H239 N226 0.985 . S
C240 C241 1.363 . S
C240 C246 1.379 1_565 S
C240 N248 1.356 . S
C241 C240 1.363 . S
C241 C247 1.363 . S
C242 C243 1.363 . S
C242 C247 1.379 1_545 S
C242 N249 1.356 . S
C243 C242 1.363 . S
C243 C246 1.363 . S
N244 C246 1.356 . S
N244 H256 0.984 . S
N244 H257 0.985 . S
N245 C247 1.356 . S
N245 H250 0.984 . S
N245 H251 0.985 . S
C246 C240 1.379 1_545 S
C246 C243 1.363 . S
C246 N244 1.356 . S
C247 C241 1.363 . S
C247 C242 1.379 1_565 S
C247 N245 1.356 . S
N248 C240 1.356 . S
N248 H254 0.984 . S
N248 H255 0.984 . S
N249 C242 1.356 . S
N249 H252 0.984 . S
N249 H253 0.985 . S
H250 N245 0.984 . S
H251 N245 0.985 . S
H252 N249 0.984 . S
H253 N249 0.985 . S
H254 N248 0.984 . S
H255 N248 0.984 . S
H256 N244 0.984 . S
H257 N244 0.985 . S
C258 C259 1.363 . S
C258 C264 1.379 . S
C258 N266 1.356 . S
C259 C258 1.363 . S
C259 C265 1.363 . S
C260 C261 1.363 . S
C260 C265 1.379 . S
C260 N267 1.356 . S
C261 C260 1.363 . S
C261 C264 1.363 . S
N262 C264 1.356 . S
N262 H274 0.984 . S
N262 H275 0.985 . S
N263 C265 1.356 . S
N263 H268 0.984 . S
N263 H269 0.985 . S
C264 C258 1.379 . S
C264 C261 1.363 . S
C264 N262 1.356 . S
C265 C259 1.363 . S
C265 C260 1.379 . S
C265 N263 1.356 . S
N266 C258 1.356 . S
N266 H272 0.984 . S
N266 H273 0.984 . S
N267 C260 1.356 . S
N267 H270 0.984 . S
N267 H271 0.985 . S
H268 N263 0.984 . S
H269 N263 0.985 . S
H270 N267 0.984 . S
H271 N267 0.985 . S
H272 N266 0.984 . S
H273 N266 0.984 . S
H274 N262 0.984 . S
H275 N262 0.985 . S
C276 C277 1.363 . S
C276 C282 1.379 1_565 S
C276 N284 1.356 . S
C277 C276 1.363 . S
C277 C283 1.363 . S
C278 C279 1.363 . S
C278 C283 1.379 1_545 S
C278 N285 1.356 . S
C279 C278 1.363 . S
C279 C282 1.363 . S
N280 C282 1.356 . S
N280 H292 0.984 . S
N280 H293 0.985 . S
N281 C283 1.356 . S
N281 H286 0.984 . S
N281 H287 0.985 . S
C282 C276 1.379 1_545 S
C282 C279 1.363 . S
C282 N280 1.356 . S
C283 C277 1.363 . S
C283 C278 1.379 1_565 S
C283 N281 1.356 . S
N284 C276 1.356 . S
N284 H290 0.984 . S
N284 H291 0.984 . S
N285 C278 1.356 . S
N285 H288 0.984 . S
N285 H289 0.985 . S
H286 N281 0.984 . S
H287 N281 0.985 . S
H288 N285 0.984 . S
H289 N285 0.985 . S
H290 N284 0.984 . S
H291 N284 0.984 . S
H292 N280 0.984 . S
H293 N280 0.985 . S
C294 C295 1.363 . S
C294 C300 1.379 . S
C294 N302 1.356 . S
C295 C294 1.363 . S
C295 C301 1.363 . S
C296 C297 1.363 . S
C296 C301 1.379 . S
C296 N303 1.356 . S
C297 C296 1.363 . S
C297 C300 1.363 . S
N298 C300 1.356 . S
N298 H310 0.984 . S
N298 H311 0.985 . S
N299 C301 1.356 . S
N299 H304 0.984 . S
N299 H305 0.985 . S
C300 C294 1.379 . S
C300 C297 1.363 . S
C300 N298 1.356 . S
C301 C295 1.363 . S
C301 C296 1.379 . S
C301 N299 1.356 . S
N302 C294 1.356 . S
N302 H308 0.984 . S
N302 H309 0.984 . S
N303 C296 1.356 . S
N303 H306 0.984 . S
N303 H307 0.985 . S
H304 N299 0.984 . S
H305 N299 0.985 . S
H306 N303 0.984 . S
H307 N303 0.985 . S
H308 N302 0.984 . S
H309 N302 0.984 . S
H310 N298 0.984 . S
H311 N298 0.985 . S
C312 C313 1.363 1_556 S
C312 C318 1.379 . S
C312 N320 1.356 . S
C313 C312 1.363 1_554 S
C313 C319 1.363 . S
C314 C315 1.363 1_554 S
C314 C319 1.379 . S
C314 N321 1.356 . S
C315 C314 1.363 1_556 S
C315 C318 1.363 . S
N316 C318 1.356 . S
N316 H328 0.984 . S
N316 H329 0.985 . S
N317 C319 1.356 . S
N317 H322 0.984 . S
N317 H323 0.985 . S
C318 C312 1.379 . S
C318 C315 1.363 . S
C318 N316 1.356 . S
C319 C313 1.363 . S
C319 C314 1.379 . S
C319 N317 1.356 . S
N320 C312 1.356 . S
N320 H326 0.984 . S
N320 H327 0.984 . S
N321 C314 1.356 . S
N321 H324 0.984 . S
N321 H325 0.985 . S
H322 N317 0.984 . S
H323 N317 0.985 . S
H324 N321 0.984 . S
H325 N321 0.985 . S
H326 N320 0.984 . S
H327 N320 0.984 . S
H328 N316 0.984 . S
H329 N316 0.985 . S
C330 C331 1.363 . S
C330 C336 1.379 1_565 S
C330 N338 1.356 . S
C331 C330 1.363 . S
C331 C337 1.363 1_554 S
C332 C333 1.363 . S
C332 C337 1.379 1_545 S
C332 N339 1.356 . S
C333 C332 1.363 . S
C333 C336 1.363 1_556 S
N334 C336 1.356 . S
N334 H346 0.984 . S
N334 H347 0.985 1_554 S
N335 C337 1.356 . S
N335 H340 0.984 1_556 S
N335 H341 0.985 . S
C336 C330 1.379 1_545 S
C336 C333 1.363 1_554 S
C336 N334 1.356 . S
C337 C331 1.363 1_556 S
C337 C332 1.379 1_565 S
C337 N335 1.356 . S
N338 C330 1.356 . S
N338 H344 0.984 . S
N338 H345 0.984 . S
N339 C332 1.356 . S
N339 H342 0.984 . S
N339 H343 0.985 . S
H340 N335 0.984 1_554 S
H341 N335 0.985 . S
H342 N339 0.984 . S
H343 N339 0.985 . S
H344 N338 0.984 . S
H345 N338 0.984 . S
H346 N334 0.984 . S
H347 N334 0.985 1_556 S
C348 C349 1.363 . S
C348 C354 1.379 . S
C348 N356 1.356 . S
C349 C348 1.363 . S
C349 C355 1.363 1_556 S
C350 C351 1.363 . S
C350 C355 1.379 . S
C350 N357 1.356 . S
C351 C350 1.363 . S
C351 C354 1.363 1_554 S
N352 C354 1.356 . S
N352 H364 0.984 . S
N352 H365 0.985 . S
N353 C355 1.356 . S
N353 H358 0.984 . S
N353 H359 0.985 . S
C354 C348 1.379 . S
C354 C351 1.363 1_556 S
C354 N352 1.356 . S
C355 C349 1.363 1_554 S
C355 C350 1.379 . S
C355 N353 1.356 . S
N356 C348 1.356 . S
N356 H362 0.984 . S
N356 H363 0.984 . S
N357 C350 1.356 . S
N357 H360 0.984 . S
N357 H361 0.985 . S
H358 N353 0.984 . S
H359 N353 0.985 . S
H360 N357 0.984 . S
H361 N357 0.985 . S
H362 N356 0.984 . S
H363 N356 0.984 . S
H364 N352 0.984 . S
H365 N352 0.985 . S
C366 C367 1.363 1_554 S
C366 C372 1.379 1_545 S
C366 N374 1.356 . S
C367 C366 1.363 1_556 S
C367 C373 1.363 . S
C368 C369 1.363 1_556 S
C368 C373 1.379 1_565 S
C368 N375 1.356 . S
C369 C368 1.363 1_554 S
C369 C372 1.363 . S
N370 C372 1.356 . S
N370 H382 0.984 . S
N370 H383 0.985 . S
N371 C373 1.356 . S
N371 H376 0.984 . S
N371 H377 0.985 . S
C372 C366 1.379 1_565 S
C372 C369 1.363 . S
C372 N370 1.356 . S
C373 C367 1.363 . S
C373 C368 1.379 1_545 S
C373 N371 1.356 . S
N374 C366 1.356 . S
N374 H380 0.984 . S
N374 H381 0.984 . S
N375 C368 1.356 . S
N375 H378 0.984 . S
N375 H379 0.985 . S
H376 N371 0.984 . S
H377 N371 0.985 . S
H378 N375 0.984 . S
H379 N375 0.985 . S
H380 N374 0.984 . S
H381 N374 0.984 . S
H382 N370 0.984 . S
H383 N370 0.985 . S
C384 C385 1.363 . S
C384 C390 1.379 . S
C384 N392 1.356 . S
C385 C384 1.363 . S
C385 C391 1.363 . S
C386 C387 1.363 1_554 S
C386 C391 1.379 . S
C386 N393 1.356 1_554 S
C387 C386 1.363 1_556 S
C387 C390 1.363 1_556 S
N388 C390 1.356 1_556 S
N388 H400 0.984 . S
N388 H401 0.985 . S
N389 C391 1.356 . S
N389 H394 0.984 . S
N389 H395 0.985 . S
C390 C384 1.379 . S
C390 C387 1.363 1_554 S
C390 N388 1.356 1_554 S
C391 C385 1.363 . S
C391 C386 1.379 . S
C391 N389 1.356 . S
N392 C384 1.356 . S
N392 H398 0.984 . S
N392 H399 0.984 . S
N393 C386 1.356 1_556 S
N393 H396 0.984 . S
N393 H397 0.984 1_556 S
H394 N389 0.984 . S
H395 N389 0.985 . S
H396 N393 0.984 . S
H397 N393 0.984 1_554 S
H398 N392 0.984 . S
H399 N392 0.984 . S
H400 N388 0.984 . S
H401 N388 0.985 . S
C402 C403 1.363 . S
C402 C408 1.379 . S
C402 N410 1.356 . S
C403 C402 1.363 . S
C403 C409 1.363 . S
C404 C405 1.363 1_554 S
C404 C409 1.379 . S
C404 N411 1.356 1_554 S
C405 C404 1.363 1_556 S
C405 C408 1.363 1_556 S
N406 C408 1.356 1_556 S
N406 H418 0.984 . S
N406 H419 0.985 . S
N407 C409 1.356 . S
N407 H412 0.984 . S
N407 H413 0.985 . S
C408 C402 1.379 . S
C408 C405 1.363 1_554 S
C408 N406 1.356 1_554 S
C409 C403 1.363 . S
C409 C404 1.379 . S
C409 N407 1.356 . S
N410 C402 1.356 . S
N410 H416 0.984 . S
N410 H417 0.984 . S
N411 C404 1.356 1_556 S
N411 H414 0.984 . S
N411 H415 0.983 1_556 S
H412 N407 0.984 . S
H413 N407 0.985 . S
H414 N411 0.984 . S
H415 N411 0.983 1_554 S
H416 N410 0.984 . S
H417 N410 0.984 . S
H418 N406 0.984 . S
H419 N406 0.985 . S
C420 C421 1.363 1_556 S
C420 C426 1.379 . S
C420 N428 1.356 1_556 S
C421 C420 1.363 1_554 S
C421 C427 1.363 1_554 S
C422 C423 1.363 . S
C422 C427 1.379 . S
C422 N429 1.356 . S
C423 C422 1.363 . S
C423 C426 1.363 . S
N424 C426 1.356 . S
N424 H436 0.984 . S
N424 H437 0.985 . S
N425 C427 1.356 1_554 S
N425 H430 0.984 . S
N425 H431 0.987 . S
C426 C420 1.379 . S
C426 C423 1.363 . S
C426 N424 1.356 . S
C427 C421 1.363 1_556 S
C427 C422 1.379 . S
C427 N425 1.356 1_556 S
N428 C420 1.356 1_554 S
N428 H434 0.984 . S
N428 H435 0.984 . S
N429 C422 1.356 . S
N429 H432 0.984 . S
N429 H433 0.985 . S
H430 N425 0.984 . S
H431 N425 0.987 . S
H432 N429 0.984 . S
H433 N429 0.985 . S
H434 N428 0.984 . S
H435 N428 0.984 . S
H436 N424 0.984 . S
H437 N424 0.985 . S
C438 C439 1.363 . S
C438 C444 1.379 . S
C438 N446 1.356 . S
C439 C438 1.363 . S
C439 C445 1.363 . S
C440 C441 1.363 1_556 S
C440 C445 1.379 . S
C440 N447 1.356 1_556 S
C441 C440 1.363 1_554 S
C441 C444 1.363 1_554 S
N442 C444 1.356 1_554 S
N442 H454 0.984 1_554 S
N442 H455 0.985 . S
N443 C445 1.356 . S
N443 H448 0.984 . S
N443 H449 0.985 . S
C444 C438 1.379 . S
C444 C441 1.363 1_556 S
C444 N442 1.356 1_556 S
C445 C439 1.363 . S
C445 C440 1.379 . S
C445 N443 1.356 . S
N446 C438 1.356 . S
N446 H452 0.984 . S
N446 H453 0.984 . S
N447 C440 1.356 1_554 S
N447 H450 0.984 . S
N447 H451 0.985 . S
H448 N443 0.984 . S
H449 N443 0.985 . S
H450 N447 0.984 . S
H451 N447 0.985 . S
H452 N446 0.984 . S
H453 N446 0.984 . S
H454 N442 0.984 1_556 S
H455 N442 0.985 . S
C456 C457 1.363 . S
C456 C462 1.379 . S
C456 N464 1.356 . S
C457 C456 1.363 . S
C457 C463 1.363 . S
C458 C459 1.363 . S
C458 C463 1.379 . S
C458 N465 1.356 . S
C459 C458 1.363 . S
C459 C462 1.363 . S
N460 C462 1.356 . S
N460 H472 0.984 . S
N460 H473 0.985 . S
N461 C463 1.356 . S
N461 H466 0.984 . S
N461 H467 0.985 . S
C462 C456 1.379 . S
C462 C459 1.363 . S
C462 N460 1.356 . S
C463 C457 1.363 . S
C463 C458 1.379 . S
C463 N461 1.356 . S
N464 C456 1.356 . S
N464 H470 0.984 . S
N464 H471 0.984 . S
N465 C458 1.356 . S
N465 H468 0.984 . S
N465 H469 0.985 . S
H466 N461 0.984 . S
H467 N461 0.985 . S
H468 N465 0.984 . S
H469 N465 0.985 . S
H470 N464 0.984 . S
H471 N464 0.984 . S
H472 N460 0.984 . S
H473 N460 0.985 . S
C474 C475 1.363 . S
C474 C480 1.379 . S
C474 N482 1.356 . S
C475 C474 1.363 . S
C475 C481 1.363 . S
C476 C477 1.363 . S
C476 C481 1.379 . S
C476 N483 1.356 . S
C477 C476 1.363 . S
C477 C480 1.363 . S
N478 C480 1.356 . S
N478 H490 0.984 . S
N478 H491 0.985 . S
N479 C481 1.356 . S
N479 H484 0.984 . S
N479 H485 0.985 . S
C480 C474 1.379 . S
C480 C477 1.363 . S
C480 N478 1.356 . S
C481 C475 1.363 . S
C481 C476 1.379 . S
C481 N479 1.356 . S
N482 C474 1.356 . S
N482 H488 0.984 . S
N482 H489 0.984 . S
N483 C476 1.356 . S
N483 H486 0.984 . S
N483 H487 0.985 . S
H484 N479 0.984 . S
H485 N479 0.985 . S
H486 N483 0.984 . S
H487 N483 0.985 . S
H488 N482 0.984 . S
H489 N482 0.984 . S
H490 N478 0.984 . S
H491 N478 0.985 . S
C492 C493 1.363 . S
C492 C498 1.379 . S
C492 N500 1.356 . S
C493 C492 1.363 . S
C493 C499 1.363 . S
C494 C495 1.363 . S
C494 C499 1.379 . S
C494 N501 1.356 . S
C495 C494 1.363 . S
C495 C498 1.363 . S
N496 C498 1.356 . S
N496 H508 0.984 . S
N496 H509 0.985 . S
N497 C499 1.356 . S
N497 H502 0.984 . S
N497 H503 0.985 . S
C498 C492 1.379 . S
C498 C495 1.363 . S
C498 N496 1.356 . S
C499 C493 1.363 . S
C499 C494 1.379 . S
C499 N497 1.356 . S
N500 C492 1.356 . S
N500 H506 0.984 . S
N500 H507 0.984 . S
N501 C494 1.356 . S
N501 H504 0.984 . S
N501 H505 0.985 . S
H502 N497 0.984 . S
H503 N497 0.985 . S
H504 N501 0.984 . S
H505 N501 0.985 . S
H506 N500 0.984 . S
H507 N500 0.984 . S
H508 N496 0.984 . S
H509 N496 0.985 . S
C510 C511 1.363 . S
C510 C516 1.379 . S
C510 N518 1.356 . S
C511 C510 1.363 . S
C511 C517 1.363 . S
C512 C513 1.363 . S
C512 C517 1.379 . S
C512 N519 1.356 . S
C513 C512 1.363 . S
C513 C516 1.363 . S
N514 C516 1.356 . S
N514 H526 0.984 . S
N514 H527 0.985 . S
N515 C517 1.356 . S
N515 H520 0.984 . S
N515 H521 0.985 . S
C516 C510 1.379 . S
C516 C513 1.363 . S
C516 N514 1.356 . S
C517 C511 1.363 . S
C517 C512 1.379 . S
C517 N515 1.356 . S
N518 C510 1.356 . S
N518 H524 0.984 . S
N518 H525 0.984 . S
N519 C512 1.356 . S
N519 H522 0.984 . S
N519 H523 0.985 . S
H520 N515 0.984 . S
H521 N515 0.985 . S
H522 N519 0.984 . S
H523 N519 0.985 . S
H524 N518 0.984 . S
H525 N518 0.984 . S
H526 N514 0.984 . S
H527 N514 0.985 . S
C528 C529 1.363 . S
C528 C534 1.379 1_455 S
C528 N536 1.356 . S
C529 C528 1.363 . S
C529 C535 1.363 . S
C530 C531 1.363 . S
C530 C535 1.379 1_655 S
C530 N537 1.356 . S
C531 C530 1.363 . S
C531 C534 1.363 . S
N532 C534 1.356 . S
N532 H544 0.984 . S
N532 H545 0.985 . S
N533 C535 1.356 . S
N533 H538 0.984 . S
N533 H539 0.985 . S
C534 C528 1.379 1_655 S
C534 C531 1.363 . S
C534 N532 1.356 . S
C535 C529 1.363 . S
C535 C530 1.379 1_455 S
C535 N533 1.356 . S
N536 C528 1.356 . S
N536 H542 0.984 . S
N536 H543 0.984 . S
N537 C530 1.356 . S
N537 H540 0.984 . S
N537 H541 0.985 . S
H538 N533 0.984 . S
H539 N533 0.985 . S
H540 N537 0.984 . S
H541 N537 0.985 . S
H542 N536 0.984 . S
H543 N536 0.984 . S
H544 N532 0.984 . S
H545 N532 0.985 . S
C546 C547 1.363 . S
C546 C552 1.379 1_655 S
C546 N554 1.356 . S
C547 C546 1.363 . S
C547 C553 1.363 . S
C548 C549 1.363 . S
C548 C553 1.379 1_455 S
C548 N555 1.356 . S
C549 C548 1.363 . S
C549 C552 1.363 . S
N550 C552 1.356 . S
N550 H562 0.984 . S
N550 H563 0.985 . S
N551 C553 1.356 . S
N551 H556 0.984 . S
N551 H557 0.985 . S
C552 C546 1.379 1_455 S
C552 C549 1.363 . S
C552 N550 1.356 . S
C553 C547 1.363 . S
C553 C548 1.379 1_655 S
C553 N551 1.356 . S
N554 C546 1.356 . S
N554 H560 0.984 . S
N554 H561 0.984 . S
N555 C548 1.356 . S
N555 H558 0.984 . S
N555 H559 0.985 . S
H556 N551 0.984 . S
H557 N551 0.985 . S
H558 N555 0.984 . S
H559 N555 0.985 . S
H560 N554 0.984 . S
H561 N554 0.984 . S
H562 N550 0.984 . S
H563 N550 0.985 . S
C564 C565 1.363 . S
C564 C570 1.379 . S
C564 N572 1.356 1_554 S
C565 C564 1.363 . S
C565 C571 1.363 . S
C566 C567 1.363 . S
C566 C571 1.379 . S
C566 N573 1.356 . S
C567 C566 1.363 . S
C567 C570 1.363 . S
N568 C570 1.356 1_556 S
N568 H580 0.984 . S
N568 H581 0.985 . S
N569 C571 1.356 . S
N569 H574 0.984 . S
N569 H575 0.985 . S
C570 C564 1.379 . S
C570 C567 1.363 . S
C570 N568 1.356 1_554 S
C571 C565 1.363 . S
C571 C566 1.379 . S
C571 N569 1.356 . S
N572 C564 1.356 1_556 S
N572 H578 0.984 . S
N572 H579 0.984 . S
N573 C566 1.356 . S
N573 H576 0.984 . S
N573 H577 0.985 . S
H574 N569 0.984 . S
H575 N569 0.985 . S
H576 N573 0.984 . S
H577 N573 0.985 . S
H578 N572 0.984 . S
H579 N572 0.984 . S
H580 N568 0.984 . S
H581 N568 0.985 . S
C582 C583 1.363 . S
C582 C588 1.379 . S
C582 N590 1.356 1_556 S
C583 C582 1.363 . S
C583 C589 1.363 . S
C584 C585 1.363 . S
C584 C589 1.379 . S
C584 N591 1.356 . S
C585 C584 1.363 . S
C585 C588 1.363 . S
N586 C588 1.356 1_554 S
N586 H598 0.984 . S
N586 H599 0.985 . S
N587 C589 1.356 . S
N587 H592 0.984 . S
N587 H593 0.985 . S
C588 C582 1.379 . S
C588 C585 1.363 . S
C588 N586 1.356 1_556 S
C589 C583 1.363 . S
C589 C584 1.379 . S
C589 N587 1.356 . S
N590 C582 1.356 1_554 S
N590 H596 0.984 . S
N590 H597 0.984 . S
N591 C584 1.356 . S
N591 H594 0.984 . S
N591 H595 0.985 . S
H592 N587 0.984 . S
H593 N587 0.985 . S
H594 N591 0.984 . S
H595 N591 0.985 . S
H596 N590 0.984 . S
H597 N590 0.984 . S
H598 N586 0.984 . S
H599 N586 0.985 . S
C169 C19 1.411 . S
C171 C167 1.411 . S
C187 C146 1.411 . S
C189 C40 1.411 . S
C205 C124 1.411 . S
C207 C62 1.411 . S
C223 C104 1.411 . S
C225 C83 1.411 . S
C241 C46 1.508 . S
C243 C7 1.508 . S
C259 C28 1.508 . S
C261 C67 1.508 . S
C277 C70 1.261 . S
C279 C25 1.261 . S
C295 C49 1.261 . S
C297 C4 1.261 . S
C313 C88 1.508 . S
C315 C130 1.508 . S
C331 C112 1.508 . S
C333 C151 1.508 . S
C349 C154 1.261 . S
C351 C109 1.261 . S
C367 C133 1.261 . S
C369 C91 1.261 . S
C385 C16 1.314 . S
C387 C20 1.338 . S
C403 C37 1.314 . S
C405 C41 1.338 . S
C421 C61 1.338 . S
C423 C45 1.314 . S
C439 C66 1.314 . S
C441 C82 1.338 . S
C457 C103 1.338 . S
C459 C87 1.314 . S
C475 C121 1.314 . S
C477 C125 1.338 . S
C493 C129 1.314 . S
C495 C145 1.338 . S
C511 C150 1.314 . S
C513 C166 1.338 . S
C529 C3 1.317 . S
C531 C24 1.317 . S
C547 C79 1.317 . S
C549 C58 1.317 . S
C565 C100 1.317 . S
C567 C108 1.317 . S
C583 C163 1.317 . S
C585 C142 1.317 . S
