# Generated by pormake.
# Topology smu, (6)-cn, num edge types: 1
# Building blocks:
#     Node 0, Type 0, BuildingBlock: GEDQOX_clean_sbu_0, # of connection points: 6
#     Node 1, Type 0, BuildingBlock: GEDQOX_clean_sbu_0, # of connection points: 6
#     Node 2, Type 0, BuildingBlock: GEDQOX_clean_sbu_0, # of connection points: 6
#     Node 3, Type 0, BuildingBlock: GEDQOX_clean_sbu_0, # of connection points: 6
#     Node 4, Type 0, BuildingBlock: GEDQOX_clean_sbu_0, # of connection points: 6
#     Node 5, Type 0, BuildingBlock: GEDQOX_clean_sbu_0, # of connection points: 6
#     Edge 6, Type (0, 0), BuildingBlock: XUDNAN_clean_linker_2, # of connection points: 2
#     Edge 7, Type (0, 0), BuildingBlock: XUDNAN_clean_linker_2, # of connection points: 2
#     Edge 8, Type (0, 0), BuildingBlock: XUDNAN_clean_linker_2, # of connection points: 2
#     Edge 9, Type (0, 0), BuildingBlock: XUDNAN_clean_linker_2, # of connection points: 2
#     Edge 10, Type (0, 0), BuildingBlock: XUDNAN_clean_linker_2, # of connection points: 2
#     Edge 11, Type (0, 0), BuildingBlock: XUDNAN_clean_linker_2, # of connection points: 2
#     Edge 12, Type (0, 0), BuildingBlock: XUDNAN_clean_linker_2, # of connection points: 2
#     Edge 13, Type (0, 0), BuildingBlock: XUDNAN_clean_linker_2, # of connection points: 2
#     Edge 14, Type (0, 0), BuildingBlock: XUDNAN_clean_linker_2, # of connection points: 2
#     Edge 15, Type (0, 0), BuildingBlock: XUDNAN_clean_linker_2, # of connection points: 2
#     Edge 16, Type (0, 0), BuildingBlock: XUDNAN_clean_linker_2, # of connection points: 2
#     Edge 17, Type (0, 0), BuildingBlock: XUDNAN_clean_linker_2, # of connection points: 2
#     Edge 18, Type (0, 0), BuildingBlock: XUDNAN_clean_linker_2, # of connection points: 2
#     Edge 19, Type (0, 0), BuildingBlock: XUDNAN_clean_linker_2, # of connection points: 2
#     Edge 20, Type (0, 0), BuildingBlock: XUDNAN_clean_linker_2, # of connection points: 2
#     Edge 21, Type (0, 0), BuildingBlock: XUDNAN_clean_linker_2, # of connection points: 2
#     Edge 22, Type (0, 0), BuildingBlock: XUDNAN_clean_linker_2, # of connection points: 2
#     Edge 23, Type (0, 0), BuildingBlock: XUDNAN_clean_linker_2, # of connection points: 2
# Relax obj value: 0.216
# Max RMSD: 0.314
# Mean RMSD: 0.314
data_MOF--net-smu--node1-GEDQOX_clean_sbu_0--edge1-XUDNAN_clean_linker_2
_symmetry_space_group_name_H-M    P1
_symmetry_Int_Tables_number       1
_symmetry_cell_setting            triclinic
loop_
_symmetry_equiv_pos_as_xyz
'x, y, z'
_cell_length_a     38.981069
_cell_length_b     39.10957
_cell_length_c     27.56913
_cell_angle_alpha  90.058183
_cell_angle_beta   89.927106
_cell_angle_gamma 119.90677
loop_
_atom_site_label
_atom_site_type_symbol
_atom_site_fract_x
_atom_site_fract_y
_atom_site_fract_z
_atom_type_partial_charge
Nd0 Nd 0.37853 0.13894 0.2674 0.0
Nd1 Nd 0.33669 0.0566 0.27101 0.0
C2 C 0.42449 0.21688 0.25626 0.0
C3 C 0.45897 0.25685 0.26667 0.0
C4 C 0.48502 0.27889 0.22897 0.0
C5 C 0.51415 0.31865 0.23574 0.0
C6 C 0.51797 0.33782 0.28046 0.0
C7 C 0.49207 0.31527 0.31836 0.0
C8 C 0.46321 0.2755 0.31164 0.0
C9 C 0.35872 0.10695 0.36244 0.0
C10 C 0.43118 0.09669 0.27188 0.0
C11 C 0.27997 0.98289 0.28687 0.0
C12 C 0.23667 0.96248 0.27838 0.0
C13 C 0.2104 0.93761 0.31411 0.0
C14 C 0.16933 0.91862 0.30673 0.0
C15 C 0.15368 0.92428 0.26341 0.0
C16 C 0.18022 0.9503 0.22841 0.0
C17 C 0.22112 0.96909 0.23577 0.0
C18 C 0.35255 0.07859 0.17499 0.0
C19 C 0.28985 0.10694 0.26215 0.0
O20 O 0.42901 0.19113 0.2309 0.0
O21 O 0.39564 0.2004 0.28768 0.0
O22 O 0.35135 0.13346 0.34544 0.0
O23 O 0.37419 0.0973 0.32921 0.0
O24 O 0.42898 0.12617 0.25244 0.0
O25 O 0.39891 0.06621 0.29 0.0
O26 O 0.29322 1.01011 0.32019 0.0
O27 O 0.30288 0.99362 0.2487 0.0
O28 O 0.36127 0.05461 0.1968 0.0
O29 O 0.34089 0.09486 0.2063 0.0
O30 O 0.2907 0.07754 0.28445 0.0
O31 O 0.32151 0.13288 0.23931 0.0
H32 H 0.48218 0.26563 0.19361 0.0
H33 H 0.5335 0.33427 0.20564 0.0
H34 H 0.49293 0.32854 0.35311 0.0
H35 H 0.44337 0.25977 0.34136 0.0
H36 H 0.22168 0.93266 0.34768 0.0
H37 H 0.14997 0.89877 0.33445 0.0
H38 H 0.16944 0.95629 0.19514 0.0
H39 H 0.24056 0.98882 0.20804 0.0
Nd40 Nd 0.80187 0.67178 0.2708 0.0
Nd41 Nd 0.76837 0.71867 0.27199 0.0
C42 C 0.82563 0.61908 0.26758 0.0
C43 C 0.83896 0.58956 0.26582 0.0
C44 C 0.8327 0.56669 0.22397 0.0
C45 C 0.84698 0.54024 0.22112 0.0
C46 C 0.86738 0.53559 0.2603 0.0
C47 C 0.87235 0.55736 0.30292 0.0
C48 C 0.85858 0.58436 0.30549 0.0
C49 C 0.7899 0.69391 0.36436 0.0
C50 C 0.70832 0.62454 0.27085 0.0
C51 C 0.75422 0.77718 0.28937 0.0
C52 C 0.77911 0.82064 0.28818 0.0
C53 C 0.81791 0.83955 0.30654 0.0
C54 C 0.84091 0.88066 0.3062 0.0
C55 C 0.8257 0.90395 0.28769 0.0
C56 C 0.78717 0.88485 0.26822 0.0
C57 C 0.76417 0.8436 0.26842 0.0
C58 C 0.76889 0.69871 0.17723 0.0
C59 C 0.86479 0.75768 0.25625 0.0
O60 O 0.79756 0.61702 0.23975 0.0
O61 O 0.8414 0.64949 0.29662 0.0
O62 O 0.82345 0.69876 0.34919 0.0
O63 O 0.76528 0.67928 0.33091 0.0
O64 O 0.73898 0.62496 0.25106 0.0
O65 O 0.71268 0.6576 0.29008 0.0
O66 O 0.76235 0.75899 0.32319 0.0
O67 O 0.74672 0.75896 0.24775 0.0
O68 O 0.73787 0.69399 0.2004 0.0
O69 O 0.79801 0.7087 0.20644 0.0
O70 O 0.83747 0.76214 0.27929 0.0
O71 O 0.85511 0.72327 0.23827 0.0
H72 H 0.81757 0.56993 0.19291 0.0
H73 H 0.84248 0.52368 0.18793 0.0
H74 H 0.88814 0.55458 0.33358 0.0
H75 H 0.8636 0.60141 0.33837 0.0
H76 H 0.83049 0.82262 0.32148 0.0
H77 H 0.87073 0.89416 0.32046 0.0
H78 H 0.77431 0.90171 0.25392 0.0
H79 H 0.73447 0.82962 0.25369 0.0
Nd80 Nd 0.91695 0.2483 0.26531 0.0
Nd81 Nd 0.99924 0.28851 0.26801 0.0
C82 C 0.83877 0.21609 0.2551 0.0
C83 C 0.79904 0.21034 0.26827 0.0
C84 C 0.77994 0.22455 0.23784 0.0
C85 C 0.7401 0.21382 0.24549 0.0
C86 C 0.71796 0.18809 0.28355 0.0
C87 C 0.73756 0.17445 0.31428 0.0
C88 C 0.77735 0.18553 0.30694 0.0
C89 C 0.94956 0.26083 0.35959 0.0
C90 C 0.96024 0.34389 0.26666 0.0
C91 C 0.07293 0.30534 0.28463 0.0
C92 C 0.09148 0.28045 0.28824 0.0
C93 C 0.07135 0.24283 0.30956 0.0
C94 C 0.08848 0.2188 0.31051 0.0
C95 C 0.1263 0.23194 0.29052 0.0
C96 C 0.14623 0.26962 0.26902 0.0
C97 C 0.12888 0.29348 0.26772 0.0
C98 C 0.9778 0.28552 0.17293 0.0
C99 C 0.94867 0.19193 0.25888 0.0
O100 O 0.86435 0.24761 0.2315 0.0
O101 O 0.85565 0.20231 0.28386 0.0
O102 O 0.92306 0.22682 0.34295 0.0
O103 O 0.95883 0.28577 0.32648 0.0
O104 O 0.92793 0.31094 0.25548 0.0
O105 O 0.99331 0.34407 0.27799 0.0
O106 O 0.04831 0.30174 0.3191 0.0
O107 O 0.05998 0.30724 0.24174 0.0
O108 O 1.00215 0.31735 0.196 0.0
O109 O 0.96072 0.2563 0.20244 0.0
O110 O 0.97756 0.22182 0.28223 0.0
O111 O 0.92323 0.19803 0.23547 0.0
H112 H 0.79549 0.24315 0.20713 0.0
H113 H 0.72674 0.22554 0.22119 0.0
H114 H 0.72192 0.15382 0.34324 0.0
H115 H 0.79062 0.17326 0.33064 0.0
H116 H 0.04227 0.23181 0.3253 0.0
H117 H 0.07179 0.18973 0.32647 0.0
H118 H 0.17554 0.28106 0.25376 0.0
H119 H 0.14471 0.3222 0.25062 0.0
Nd120 Nd 0.07336 0.32531 0.76821 0.0
Nd121 Nd 0.15347 0.37196 0.76522 0.0
C122 C 1.0013 0.26659 0.78749 0.0
C123 C 0.98295 0.22327 0.78862 0.0
C124 C 1.00301 0.20503 0.80838 0.0
C125 C 0.98512 0.16393 0.80916 0.0
C126 C 0.94681 0.1402 0.79025 0.0
C127 C 0.92724 0.15868 0.76953 0.0
C128 C 0.94522 0.19981 0.76868 0.0
C129 C 0.09146 0.34609 0.67289 0.0
C130 C 0.12972 0.28722 0.74507 0.0
C131 C 0.23109 0.41951 0.75613 0.0
C132 C 0.27232 0.45141 0.76507 0.0
C133 C 0.29621 0.47205 0.72526 0.0
C134 C 0.33631 0.5001 0.7315 0.0
C135 C 0.35366 0.50829 0.77791 0.0
C136 C 0.3294 0.48758 0.81785 0.0
C137 C 0.28925 0.45951 0.81152 0.0
C138 C 0.12117 0.34798 0.85935 0.0
C139 C 0.10645 0.41928 0.76577 0.0
O140 O 1.02753 0.28631 0.82093 0.0
O141 O 1.01191 0.28298 0.74488 0.0
O142 O 0.06503 0.34957 0.69744 0.0
O143 O 0.1116 0.33648 0.70081 0.0
O144 O 0.1 0.28223 0.77305 0.0
O145 O 0.15015 0.32136 0.72431 0.0
O146 O 0.20523 0.42676 0.73547 0.0
O147 O 0.21518 0.38806 0.78352 0.0
O148 O 0.14752 0.34092 0.84067 0.0
O149 O 0.11107 0.36396 0.82755 0.0
O150 O 0.13925 0.4206 0.75242 0.0
O151 O 0.07544 0.38551 0.77959 0.0
H152 H 1.03248 0.22246 0.82331 0.0
H153 H 1.00142 0.15079 0.82444 0.0
H154 H 0.89764 0.14142 0.75496 0.0
H155 H 0.92948 0.21335 0.75277 0.0
H156 H 0.28393 0.46601 0.68896 0.0
H157 H 0.35355 0.51554 0.69987 0.0
H158 H 0.34156 0.49236 0.85411 0.0
H159 H 0.27166 0.44374 0.84282 0.0
Nd160 Nd 0.29594 0.98143 0.77749 0.0
Nd161 Nd 0.25982 0.90208 0.76929 0.0
C162 C 0.30827 0.05189 0.80292 0.0
C163 C 0.28661 0.07322 0.7924 0.0
C164 C 0.2705 0.08469 0.83052 0.0
C165 C 0.25063 0.10557 0.82101 0.0
C166 C 0.24667 0.11542 0.77314 0.0
C167 C 0.26115 0.1022 0.73499 0.0
C168 C 0.28089 0.08141 0.74444 0.0
C169 C 0.29813 0.96834 0.68029 0.0
C170 C 0.20027 0.92919 0.75464 0.0
C171 C 0.23028 0.82473 0.75824 0.0
C172 C 0.22459 0.78449 0.76594 0.0
C173 C 0.24177 0.76974 0.73325 0.0
C174 C 0.23013 0.7296 0.73268 0.0
C175 C 0.20093 0.70295 0.76474 0.0
C176 C 0.18554 0.718 0.79963 0.0
C177 C 0.19703 0.7583 0.8 0.0
C178 C 0.26883 0.93112 0.86557 0.0
C179 C 0.35394 0.94522 0.77144 0.0
O180 O 0.28994 1.0209 0.83062 0.0
O181 O 0.32663 0.04625 0.76682 0.0
O182 O 0.32779 0.99325 0.70615 0.0
O183 O 0.26786 0.94691 0.70725 0.0
O184 O 0.22728 0.95849 0.78082 0.0
O185 O 0.20954 0.90496 0.73425 0.0
O186 O 0.26124 0.85136 0.73475 0.0
O187 O 0.21568 0.83984 0.78858 0.0
O188 O 0.23539 0.90592 0.84613 0.0
O189 O 0.29508 0.94128 0.83385 0.0
O190 O 0.32222 0.91517 0.75353 0.0
O191 O 0.35186 0.97523 0.79063 0.0
H192 H 0.27388 0.07807 0.86777 0.0
H193 H 0.23983 0.11535 0.85115 0.0
H194 H 0.25786 0.1086 0.69761 0.0
H195 H 0.29203 0.0722 0.71408 0.0
H196 H 0.26273 0.78883 0.70618 0.0
H197 H 0.24291 0.71911 0.70566 0.0
H198 H 0.16282 0.69827 0.82463 0.0
H199 H 0.1828 0.76849 0.82533 0.0
Nd200 Nd 0.73547 0.75772 0.77191 0.0
Nd201 Nd 0.68851 0.79413 0.77219 0.0
C202 C 0.78513 0.73193 0.78812 0.0
C203 C 0.82888 0.75268 0.78189 0.0
C204 C 0.85396 0.78276 0.81431 0.0
C205 C 0.89482 0.80447 0.80634 0.0
C206 C 0.91177 0.79677 0.76578 0.0
C207 C 0.88683 0.76612 0.73402 0.0
C208 C 0.84592 0.74443 0.74192 0.0
C209 C 0.72906 0.77737 0.67719 0.0
C210 C 0.77845 0.85288 0.76894 0.0
C211 C 0.64009 0.82336 0.77519 0.0
C212 C 0.60789 0.83287 0.77075 0.0
C213 C 0.58202 0.82034 0.73103 0.0
C214 C 0.55283 0.83127 0.72712 0.0
C215 C 0.54911 0.85537 0.76258 0.0
C216 C 0.57459 0.86691 0.80293 0.0
C217 C 0.60351 0.85572 0.80694 0.0
C218 C 0.71518 0.78537 0.86392 0.0
C219 C 0.639 0.70042 0.76707 0.0
O220 O 0.77213 0.74578 0.82229 0.0
O221 O 0.76347 0.72265 0.74869 0.0
O222 O 0.76197 0.789 0.69995 0.0
O223 O 0.70085 0.76248 0.70805 0.0
O224 O 0.77904 0.82319 0.79076 0.0
O225 O 0.74613 0.84671 0.74701 0.0
O226 O 0.66468 0.82998 0.73933 0.0
O227 O 0.63967 0.79924 0.80816 0.0
O228 O 0.72143 0.81883 0.84691 0.0
O229 O 0.6987 0.75976 0.8318 0.0
O230 O 0.63864 0.73266 0.75516 0.0
O231 O 0.67264 0.70166 0.77891 0.0
H232 H 0.84205 0.79026 0.84546 0.0
H233 H 0.91293 0.82808 0.83127 0.0
H234 H 0.8989 0.75888 0.70284 0.0
H235 H 0.82753 0.72157 0.7163 0.0
H236 H 0.58453 0.80236 0.7029 0.0
H237 H 0.53332 0.821 0.69601 0.0
H238 H 0.57318 0.88575 0.83072 0.0
H239 H 0.62317 0.86571 0.83797 0.0
H240 H 0.3383 0.9883 0.90901 0.0
H241 H 0.21107 0.92335 0.92901 0.0
H242 H 0.21856 0.95967 1.00549 0.0
H243 H 0.36487 0.98918 0.03287 0.0
H244 H 0.4068 0.03851 0.03122 0.0
H245 H 0.39098 1.00932 0.9767 0.0
H246 H 0.38458 0.06487 0.93378 0.0
H247 H 0.39983 0.09398 0.98857 0.0
H248 H 0.35356 0.08202 0.96016 0.0
H249 H 0.24019 1.00425 0.08081 0.0
H250 H 0.27417 0.04496 0.15284 0.0
H251 H 0.38761 0.0771 0.08835 0.0
C252 C 0.31198 0.98169 0.9295 0.0
C253 C 0.27393 0.95266 0.9127 0.0
C254 C 0.24045 0.94519 0.94084 0.0
C255 C 0.24445 0.96595 0.98433 0.0
C256 C 0.28223 0.9944 0.99977 0.0
C257 C 0.31548 1.00198 0.97341 0.0
C258 C 0.35281 0.03281 0.99914 0.0
C259 C 0.38049 1.01646 1.01068 0.0
C260 C 0.37397 0.07066 0.96859 0.0
C261 C 0.3356 0.04001 0.04514 0.0
C262 C 0.29472 1.01864 0.04393 0.0
C263 C 0.27219 1.02105 0.08189 0.0
C264 C 0.29178 0.04466 0.12262 0.0
C265 C 0.33363 0.06495 0.12618 0.0
C266 C 0.35566 0.06279 0.08639 0.0
H267 H 0.76079 0.81167 0.5878 0.0
H268 H 0.6957 0.69884 0.6605 0.0
H269 H 0.70566 0.66596 0.58972 0.0
H270 H 0.71969 0.76903 0.46353 0.0
H271 H 0.76503 0.80329 0.43338 0.0
H272 H 0.75043 0.81764 0.4884 0.0
H273 H 0.81778 0.83527 0.52712 0.0
H274 H 0.83225 0.82035 0.4726 0.0
H275 H 0.83254 0.79833 0.52993 0.0
H276 H 0.72719 0.64558 0.51341 0.0
H277 H 0.75204 0.63829 0.43351 0.0
H278 H 0.80177 0.76334 0.40718 0.0
C279 C 0.74739 0.77987 0.58797 0.0
C280 C 0.7264 0.75775 0.6295 0.0
C281 C 0.71059 0.71631 0.62876 0.0
C282 C 0.71658 0.6974 0.58882 0.0
C283 C 0.7379 0.72001 0.54892 0.0
C284 C 0.75214 0.76021 0.5475 0.0
C285 C 0.77346 0.7773 0.49952 0.0
C286 C 0.75083 0.79275 0.46942 0.0
C287 C 0.81658 0.80974 0.50783 0.0
C288 C 0.77114 0.741 0.47566 0.0
C289 C 0.75008 0.70818 0.50467 0.0
C290 C 0.74357 0.67111 0.49043 0.0
C291 C 0.7581 0.66725 0.44514 0.0
C292 C 0.77958 0.70023 0.41455 0.0
C293 C 0.78618 0.73767 0.4302 0.0
H294 H 1.00969 0.34487 0.10628 0.0
H295 H 0.97418 0.22154 0.12388 0.0
H296 H 1.00647 0.22336 0.04531 0.0
H297 H 0.99754 0.34386 0.97421 0.0
H298 H 0.04029 0.39223 0.96707 0.0
H299 H 1.01196 0.3796 0.02243 0.0
H300 H 0.07567 0.39854 0.07154 0.0
H301 H 0.10408 0.4106 1.01632 0.0
H302 H 0.10415 0.37497 0.05764 0.0
H303 H 0.05053 0.24217 0.9672 0.0
H304 H 0.09292 0.27284 0.89475 0.0
H305 H 0.09577 0.38264 0.92657 0.0
C306 C 1.0076 0.31782 0.09299 0.0
C307 C 0.98859 0.2828 0.12123 0.0
C308 C 0.9876 0.24846 0.10276 0.0
C309 C 1.00638 0.24944 0.05827 0.0
C310 C 1.02594 0.28491 0.03221 0.0
C311 C 1.02593 0.31827 0.04873 0.0
C312 C 0.04966 0.35308 1.01508 0.0
C313 C 1.02328 0.36807 0.9934 0.0
C314 C 0.0855 0.38625 0.04174 0.0
C315 C 0.06291 0.33434 0.97653 0.0
C316 C 0.04964 0.29515 0.98738 0.0
C317 C 0.06051 0.27267 0.95839 0.0
C318 C 0.08494 0.29043 0.91742 0.0
C319 C 0.09786 0.33019 0.9049 0.0
C320 C 0.0863 0.35215 0.93496 0.0
H321 H 0.39665 0.1039 0.44532 0.0
H322 H 0.28014 0.05549 0.38184 0.0
H323 H 0.25098 1.01102 0.45271 0.0
H324 H 0.38787 1.01927 0.50294 0.0
H325 H 0.41289 0.04428 0.55786 0.0
H326 H 0.4242 0.0711 0.5016 0.0
H327 H 0.40736 0.12143 0.54048 0.0
H328 H 0.39642 0.09493 0.59704 0.0
H329 H 0.35985 0.1038 0.56901 0.0
H330 H 0.23493 0.96962 0.53375 0.0
H331 H 0.23403 0.94273 0.61603 0.0
H332 H 0.36071 0.02157 0.62638 0.0
C333 C 0.36497 0.08401 0.44645 0.0
C334 C 0.34081 0.08283 0.40744 0.0
C335 C 0.29939 0.05678 0.4109 0.0
C336 C 0.28254 0.03129 0.45117 0.0
C337 C 0.30723 0.03287 0.48894 0.0
C338 C 0.34752 0.05939 0.48722 0.0
C339 C 0.3674 0.05764 0.53372 0.0
C340 C 0.40002 0.04746 0.52338 0.0
C341 C 0.38374 0.09677 0.56171 0.0
C342 C 0.33276 0.02448 0.56069 0.0
C343 C 0.29802 1.01061 0.53488 0.0
C344 C 0.26217 0.98051 0.55401 0.0
C345 C 0.26188 0.96505 0.60076 0.0
C346 C 0.29725 0.97945 0.62805 0.0
C347 C 0.333 1.00927 0.60679 0.0
H348 H 0.67766 0.72577 0.93021 0.0
H349 H 0.79065 0.82939 0.90014 0.0
H350 H 0.81945 0.81539 0.97259 0.0
H351 H 0.68493 0.74159 0.06076 0.0
H352 H 0.65874 0.68961 0.07442 0.0
H353 H 0.64864 0.70716 1.01889 0.0
H354 H 0.66427 0.65984 0.96997 0.0
H355 H 0.67505 0.64262 0.02534 0.0
H356 H 0.71155 0.66266 0.97769 0.0
H357 H 0.83576 0.78803 0.05042 0.0
H358 H 0.83506 0.75658 0.129 0.0
H359 H 0.7101 0.6738 0.11004 0.0
C360 C 0.70847 0.74555 0.93899 0.0
C361 C 0.73195 0.77877 0.90943 0.0
C362 C 0.77203 0.80405 0.9224 0.0
C363 C 0.78868 0.79606 0.96338 0.0
C364 C 0.7647 0.763 0.99189 0.0
C365 C 0.72516 0.73868 0.98061 0.0
C366 C 0.70475 0.70689 1.01886 0.0
C367 C 0.67235 0.71159 0.04476 0.0
C368 C 0.68791 0.66555 0.99661 0.0
C369 C 0.73899 0.71622 0.05281 0.0
C370 C 0.77352 0.7485 0.0367 0.0
C371 C 0.80876 0.7627 0.06308 0.0
C372 C 0.80828 0.74431 0.10753 0.0
C373 C 0.77274 0.71214 0.12557 0.0
C374 C 0.73799 0.69779 0.09701 0.0
H375 H 0.97346 0.32161 0.42535 0.0
H376 H 0.98012 0.21633 0.39601 0.0
H377 H 1.02282 0.22983 0.46844 0.0
H378 H 0.0714 0.38307 0.47307 0.0
H379 H 0.05584 0.40418 0.52043 0.0
H380 H 1.02785 0.38744 0.46495 0.0
H381 H 0.96427 0.34172 0.51374 0.0
H382 H 0.99193 0.35878 0.56935 0.0
H383 H 0.96477 0.30677 0.5559 0.0
H384 H 0.06676 0.25664 0.54563 0.0
H385 H 0.09816 0.28772 0.62407 0.0
H386 H 0.05805 0.3722 0.60611 0.0
C387 C 0.98392 0.3014 0.43425 0.0
C388 C 0.97341 0.26784 0.40488 0.0
C389 C 0.98746 0.24199 0.41807 0.0
C390 C 1.01203 0.24965 0.45904 0.0
C391 C 1.02185 0.283 0.48737 0.0
C392 C 1.00744 0.30796 0.47594 0.0
C393 C 1.01963 0.34 0.51416 0.0
C394 C 0.0452 0.38112 0.4918 0.0
C395 C 0.98298 0.33661 0.5398 0.0
C396 C 0.04376 0.32981 0.54844 0.0
C397 C 0.0452 0.29712 0.53222 0.0
C398 C 0.0657 0.28226 0.55843 0.0
C399 C 0.08395 0.30043 0.60282 0.0
C400 C 0.08133 0.33295 0.62115 0.0
C401 C 0.06135 0.34791 0.59284 0.0
H402 H 0.49353 0.12431 0.20819 0.0
H403 H 0.45994 0.08543 0.35658 0.0
H404 H 0.52987 0.10717 0.37622 0.0
H405 H 0.56722 0.09154 0.19975 0.0
H406 H 0.59983 0.13221 0.16136 0.0
H407 H 0.54722 0.11344 0.1594 0.0
H408 H 0.55919 0.18357 0.1777 0.0
H409 H 0.61178 0.20243 0.18061 0.0
H410 H 0.58643 0.20912 0.23127 0.0
H411 H 0.60418 0.13909 0.38124 0.0
H412 H 0.67565 0.16763 0.36942 0.0
H413 H 0.66081 0.17841 0.21485 0.0
C414 C 0.50088 0.11956 0.24451 0.0
C415 C 0.47127 0.10257 0.28079 0.0
C416 C 0.48198 0.09743 0.32806 0.0
C417 C 0.5217 0.11018 0.33963 0.0
C418 C 0.55028 0.1273 0.30325 0.0
C419 C 0.54026 0.13105 0.25632 0.0
C420 C 0.57656 0.14905 0.22366 0.0
C421 C 0.57246 0.11982 0.18367 0.0
C422 C 0.58391 0.18838 0.20204 0.0
C423 C 0.6087 0.15542 0.25973 0.0
C424 C 0.59287 0.14324 0.30552 0.0
C425 C 0.61671 0.14767 0.34526 0.0
C426 C 0.65753 0.16371 0.33793 0.0
C427 C 0.67462 0.17448 0.29088 0.0
C428 C 0.64945 0.17069 0.25142 0.0
H429 H 0.65865 0.56713 0.20699 0.0
H430 H 0.68556 0.59157 0.35973 0.0
H431 H 0.64186 0.52074 0.37841 0.0
H432 H 0.55287 0.49187 0.22598 0.0
H433 H 0.5523 0.46242 0.1753 0.0
H434 H 0.58483 0.51511 0.17465 0.0
H435 H 0.64454 0.5045 0.15998 0.0
H436 H 0.61238 0.45181 0.16157 0.0
H437 H 0.65409 0.47503 0.20214 0.0
H438 H 0.60083 0.44626 0.37911 0.0
H439 H 0.55661 0.37552 0.36491 0.0
H440 H 0.54928 0.39932 0.21235 0.0
C441 C 0.65404 0.55768 0.24452 0.0
C442 C 0.67435 0.58506 0.28221 0.0
C443 C 0.66899 0.5714 0.33064 0.0
C444 C 0.64473 0.5311 0.34143 0.0
C445 C 0.62544 0.50477 0.30345 0.0
C446 C 0.62894 0.51762 0.25609 0.0
C447 C 0.6042 0.48321 0.22227 0.0
C448 C 0.57161 0.48846 0.19811 0.0
C449 C 0.63037 0.47837 0.18424 0.0
C450 C 0.58676 0.44891 0.25786 0.0
C451 C 0.59994 0.46203 0.30434 0.0
C452 C 0.58944 0.43584 0.34306 0.0
C453 C 0.56383 0.39544 0.33453 0.0
C454 C 0.54794 0.38102 0.28769 0.0
C455 C 0.56038 0.40858 0.24875 0.0
H456 H 0.91931 0.36625 0.32676 0.0
H457 H 0.99261 0.40066 0.19788 0.0
H458 H 0.97654 0.45353 0.1824 0.0
H459 H 0.84357 0.38107 0.28187 0.0
H460 H 0.83587 0.40124 0.33693 0.0
H461 H 0.85482 0.36767 0.3398 0.0
H462 H 0.91601 0.41914 0.38785 0.0
H463 H 0.89695 0.45269 0.3859 0.0
H464 H 0.94597 0.46805 0.36341 0.0
H465 H 0.94703 0.49751 0.17643 0.0
H466 H 0.91384 0.53682 0.18598 0.0
H467 H 0.8629 0.47764 0.32219 0.0
C468 C 0.93301 0.38592 0.29629 0.0
C469 C 0.95816 0.3804 0.26415 0.0
C470 C 0.97443 0.40549 0.22364 0.0
C471 C 0.96505 0.43519 0.21434 0.0
C472 C 0.93974 0.43964 0.2463 0.0
C473 C 0.92462 0.41631 0.28709 0.0
C474 C 0.89806 0.42729 0.3155 0.0
C475 C 0.85557 0.39223 0.31869 0.0
C476 C 0.91528 0.44272 0.36618 0.0
C477 C 0.90007 0.46001 0.28386 0.0
C478 C 0.92391 0.46622 0.24384 0.0
C479 C 0.92887 0.49339 0.20802 0.0
C480 C 0.90968 0.5154 0.2136 0.0
C481 C 0.88605 0.51055 0.25494 0.0
C482 C 0.88122 0.48238 0.29054 0.0
H483 H 0.12291 0.47558 0.83543 0.0
H484 H 0.09558 0.44866 0.68321 0.0
H485 H 0.11638 0.51844 0.66698 0.0
H486 H 0.09117 0.55182 0.84298 0.0
H487 H 0.13058 0.58213 0.88431 0.0
H488 H 0.10965 0.52931 0.88464 0.0
H489 H 0.17966 0.53871 0.87146 0.0
H490 H 0.20073 0.59146 0.86999 0.0
H491 H 0.20844 0.56646 0.8198 0.0
H492 H 0.14748 0.59147 0.66526 0.0
H493 H 0.17842 0.66295 0.67933 0.0
H494 H 0.18379 0.64446 0.83371 0.0
C495 C 0.1193 0.48414 0.79927 0.0
C496 C 0.10576 0.45642 0.76083 0.0
C497 C 0.104 0.46909 0.71337 0.0
C498 C 0.11636 0.50877 0.70375 0.0
C499 C 0.13036 0.53558 0.74209 0.0
C500 C 0.13115 0.52381 0.78912 0.0
C501 C 0.14892 0.55917 0.82319 0.0
C502 C 0.11826 0.55538 0.86103 0.0
C503 C 0.18667 0.56423 0.84754 0.0
C504 C 0.15843 0.59259 0.78782 0.0
C505 C 0.14782 0.57815 0.74119 0.0
C506 C 0.15531 0.60307 0.70172 0.0
C507 C 0.17326 0.64375 0.71007 0.0
C508 C 0.18352 0.6595 0.7576 0.0
C509 C 0.17593 0.63337 0.79703 0.0
H510 H 0.39506 0.92786 0.83943 0.0
H511 H 0.39197 0.95419 0.6875 0.0
H512 H 0.4409 0.93348 0.66899 0.0
H513 H 0.50291 0.9598 0.8431 0.0
H514 H 0.49541 0.92073 0.884 0.0
H515 H 0.46267 0.94085 0.88607 0.0
H516 H 0.40271 0.87061 0.87389 0.0
H517 H 0.43532 0.85044 0.87086 0.0
H518 H 0.40151 0.84211 0.8218 0.0
H519 H 0.4853 0.90487 0.6653 0.0
H520 H 0.52893 0.87708 0.67747 0.0
H521 H 0.50499 0.86873 0.83231 0.0
C522 C 0.4063 0.93108 0.80277 0.0
C523 C 0.39121 0.94447 0.7651 0.0
C524 C 0.40456 0.94578 0.71705 0.0
C525 C 0.4319 0.93351 0.70613 0.0
C526 C 0.44574 0.91984 0.74369 0.0
C527 C 0.43401 0.91909 0.79122 0.0
C528 C 0.45288 0.90186 0.82422 0.0
C529 C 0.48009 0.93264 0.86158 0.0
C530 C 0.42121 0.86401 0.84916 0.0
C531 C 0.47667 0.89286 0.78773 0.0
C532 C 0.47173 0.90321 0.7415 0.0
C533 C 0.48971 0.89698 0.70143 0.0
C534 C 0.51421 0.88067 0.70874 0.0
C535 C 0.52074 0.87049 0.75584 0.0
C536 C 0.50127 0.87655 0.79582 0.0
H537 H 0.41769 0.5266 0.71678 0.0
H538 H 0.38758 0.55943 0.85435 0.0
H539 H 0.45794 0.60681 0.86852 0.0
H540 H 0.51048 0.53564 0.75427 0.0
H541 H 0.53565 0.55684 0.69795 0.0
H542 H 0.48285 0.52393 0.69844 0.0
H543 H 0.472 0.57726 0.65687 0.0
H544 H 0.52474 0.61003 0.65547 0.0
H545 H 0.49309 0.62562 0.68378 0.0
H546 H 0.53134 0.64977 0.86933 0.0
H547 H 0.60243 0.69239 0.85157 0.0
H548 H 0.58614 0.63698 0.71087 0.0
C549 C 0.42569 0.54389 0.74978 0.0
C550 C 0.3966 0.53833 0.78492 0.0
C551 C 0.40895 0.56184 0.8275 0.0
C552 C 0.449 0.58915 0.83581 0.0
C553 C 0.47675 0.59316 0.80109 0.0
C554 C 0.46569 0.57175 0.75851 0.0
C555 C 0.5016 0.58312 0.7264 0.0
C556 C 0.50801 0.54777 0.71879 0.0
C557 C 0.49762 0.60002 0.67775 0.0
C558 C 0.53444 0.6146 0.75736 0.0
C559 C 0.51935 0.6192 0.80074 0.0
C560 C 0.54352 0.64621 0.83566 0.0
C561 C 0.58396 0.66991 0.82553 0.0
C562 C 0.60002 0.66692 0.7807 0.0
C563 C 0.57492 0.63876 0.74617 0.0
H564 H 0.26993 0.15204 0.20598 0.0
H565 H 0.23807 0.08272 0.33815 0.0
H566 H 0.19089 0.1054 0.35861 0.0
H567 H 0.26786 0.23418 0.2515 0.0
H568 H 0.24579 0.24245 0.19865 0.0
H569 H 0.27495 0.21868 0.19252 0.0
H570 H 0.21604 0.15871 0.15068 0.0
H571 H 0.18678 0.18252 0.15632 0.0
H572 H 0.16867 0.13376 0.18076 0.0
H573 H 0.1525 0.14096 0.3685 0.0
H574 H 0.1213 0.18225 0.36419 0.0
H575 H 0.17464 0.22488 0.22254 0.0
C576 C 0.25239 0.14099 0.23871 0.0
C577 C 0.25735 0.11536 0.27034 0.0
C578 C 0.23422 0.10182 0.31305 0.0
C579 C 0.20756 0.11476 0.32511 0.0
C580 C 0.20392 0.14064 0.29361 0.0
C581 C 0.22515 0.15303 0.25084 0.0
C582 C 0.21594 0.18109 0.22351 0.0
C583 C 0.25337 0.22148 0.21614 0.0
C584 C 0.19565 0.16294 0.17493 0.0
C585 C 0.18744 0.18379 0.25853 0.0
C586 C 0.18078 0.16013 0.29862 0.0
C587 C 0.15686 0.159 0.33682 0.0
C588 C 0.13906 0.18248 0.33385 0.0
C589 C 0.14503 0.20672 0.29281 0.0
C590 C 0.16954 0.20706 0.25465 0.0
H591 H 0.91986 0.8085 0.3231 0.0
H592 H 0.90253 0.77622 0.17094 0.0
H593 H 0.97392 0.81834 0.1561 0.0
H594 H 1.00321 0.9127 0.30413 0.0
H595 H 1.02929 0.91139 0.35741 0.0
H596 H 0.97598 0.88297 0.35546 0.0
H597 H 0.97891 0.81968 0.37542 0.0
H598 H 1.03215 0.84779 0.37676 0.0
H599 H 1.00745 0.80581 0.33698 0.0
H600 H 0.04643 0.85666 0.15843 0.0
H601 H 0.11744 0.89319 0.17673 0.0
H602 H 0.0909 0.90338 0.32747 0.0
C603 C 0.93107 0.81177 0.28643 0.0
C604 C 0.90562 0.78999 0.24778 0.0
C605 C 0.92147 0.79338 0.20069 0.0
C606 C 0.962 0.81706 0.19195 0.0
C607 C 0.98657 0.83723 0.23077 0.0
C608 C 0.97193 0.83533 0.27703 0.0
C609 C 1.0057 0.85826 0.31248 0.0
C610 C 1.00341 0.89342 0.33364 0.0
C611 C 1.00605 0.83126 0.35279 0.0
C612 C 0.0413 0.87211 0.27908 0.0
C613 C 1.02931 0.85979 0.2321 0.0
C614 C 0.05628 0.86726 0.19488 0.0
C615 C 0.09671 0.88832 0.20568 0.0
C616 C 0.11019 0.90201 0.25338 0.0
C617 C 0.08182 0.89352 0.2906 0.0
H618 H 0.90196 0.12657 0.20375 0.0
H619 H 0.97348 0.16451 0.33436 0.0
H620 H 0.95059 0.09499 0.35515 0.0
H621 H 0.81981 0.04235 0.25087 0.0
H622 H 0.81101 1.01199 0.19792 0.0
H623 H 0.83457 0.06474 0.19176 0.0
H624 H 0.89434 0.06606 0.14849 0.0
H625 H 0.87079 1.01319 0.15412 0.0
H626 H 0.91996 0.04405 0.17772 0.0
H627 H 0.91542 0.02153 0.36533 0.0
H628 H 0.87525 0.94918 0.36088 0.0
H629 H 0.82978 0.9586 0.22071 0.0
C630 C 0.91335 0.12025 0.23627 0.0
C631 C 0.93968 0.15095 0.26736 0.0
C632 C 0.95373 0.14153 0.30972 0.0
C633 C 0.94069 0.10211 0.32198 0.0
C634 C 0.91416 0.07252 0.29104 0.0
C635 C 0.90121 0.0811 0.24861 0.0
C636 C 0.87285 0.04374 0.22162 0.0
C637 C 0.83215 0.04054 0.21519 0.0
C638 C 0.89054 0.04164 0.17257 0.0
C639 C 0.87075 1.01279 0.2564 0.0
C640 C 0.8949 0.03006 0.29612 0.0
C641 C 0.89699 1.00764 0.33394 0.0
C642 C 0.87417 0.96646 0.33089 0.0
C643 C 0.84963 0.94787 0.29012 0.0
C644 C 0.84801 0.97164 0.25249 0.0
H645 H 0.10974 0.21676 0.79572 0.0
H646 H 0.1857 0.29523 0.68188 0.0
H647 H 0.2218 0.25969 0.67843 0.0
H648 H 0.18101 0.20275 0.85751 0.0
H649 H 0.15072 0.1504 0.8674 0.0
H650 H 0.12792 0.18047 0.86119 0.0
H651 H 0.08457 0.13612 0.79065 0.0
H652 H 0.1071 0.10574 0.79698 0.0
H653 H 0.10807 0.12775 0.73925 0.0
H654 H 0.25464 0.2225 0.69045 0.0
H655 H 0.27859 0.1772 0.71118 0.0
H656 H 0.18096 0.11624 0.81243 0.0
C657 C 0.13336 0.22575 0.76944 0.0
C658 C 0.1449 0.25929 0.73956 0.0
C659 C 0.17618 0.27009 0.70571 0.0
C660 C 0.19716 0.25006 0.70326 0.0
C661 C 0.18615 0.21824 0.73384 0.0
C662 C 0.15453 0.20517 0.76548 0.0
C663 C 0.14935 0.16909 0.793 0.0
C664 C 0.15244 0.17613 0.84805 0.0
C665 C 0.10992 0.13249 0.77917 0.0
C666 C 0.18432 0.1659 0.77357 0.0
C667 C 0.20467 0.19461 0.73921 0.0
C668 C 0.23854 0.19918 0.7165 0.0
C669 C 0.25181 0.17313 0.72839 0.0
C670 C 0.23125 0.14257 0.76256 0.0
C671 C 0.19716 0.13916 0.78592 0.0
H672 H 0.14426 0.91 0.82556 0.0
H673 H 0.16391 0.92557 0.67054 0.0
H674 H 0.09216 0.89744 0.65723 0.0
H675 H 0.05953 0.81757 0.81869 0.0
H676 H 1.03345 0.82428 0.86848 0.0
H677 H 0.0867 0.85127 0.86715 0.0
H678 H 0.08637 0.91724 0.87418 0.0
H679 H 1.03302 0.89037 0.87595 0.0
H680 H 0.05852 0.92827 0.83104 0.0
H681 H 1.01886 0.86227 0.65963 0.0
H682 H 0.94763 0.82299 0.67747 0.0
H683 H 0.97401 0.82667 0.83108 0.0
C684 C 0.13343 0.9091 0.78914 0.0
C685 C 0.15949 0.92135 0.74905 0.0
C686 C 0.14433 0.91755 0.70161 0.0
C687 C 0.10368 0.90139 0.69375 0.0
C688 C 0.07851 0.88873 0.73376 0.0
C689 C 0.09265 0.89247 0.7806 0.0
C690 C 0.05871 0.87323 0.8166 0.0
C691 C 0.05968 0.8396 0.84435 0.0
C692 C 0.05919 0.90412 0.85152 0.0
C693 C 1.0235 0.85744 0.78254 0.0
C694 C 0.0357 0.86707 0.73501 0.0
C695 C 1.00888 0.85472 0.69675 0.0
C696 C 0.96843 0.832 0.70725 0.0
C697 C 0.95499 0.82137 0.75564 0.0
C698 C 0.98313 0.8346 0.79374 0.0
H699 H 0.89785 0.08499 0.72302 0.0
H700 H 0.94994 0.09611 0.86551 0.0
H701 H 0.91671 0.02378 0.87197 0.0
H702 H 0.8036 1.00431 0.75179 0.0
H703 H 0.79636 0.98036 0.69376 0.0
H704 H 0.82708 0.03308 0.6983 0.0
H705 H 0.88528 0.02884 0.65882 0.0
H706 H 0.85476 0.976 0.65433 0.0
H707 H 0.90159 0.99731 0.68543 0.0
H708 H 0.87757 0.95052 0.86377 0.0
H709 H 0.82992 0.88098 0.84474 0.0
H710 H 0.79877 0.91713 0.7109 0.0
C711 C 0.90227 0.0723 0.75566 0.0
C712 C 0.92699 0.09645 0.79352 0.0
C713 C 0.93203 0.07843 0.83544 0.0
C714 C 0.91311 0.0373 0.8396 0.0
C715 C 0.88909 1.01448 0.80164 0.0
C716 C 0.88335 0.03125 0.76062 0.0
C717 C 0.85456 0.99993 0.7261 0.0
C718 C 0.81824 1.00471 0.71698 0.0
C719 C 0.87528 1.00057 0.67833 0.0
C720 C 0.84391 0.96303 0.75502 0.0
C721 C 0.86501 0.97209 0.79787 0.0
C722 C 0.86083 0.94301 0.83035 0.0
C723 C 0.83381 0.90359 0.81916 0.0
C724 C 0.81065 0.89375 0.77651 0.0
C725 C 0.8161 0.92388 0.74383 0.0
loop_
_geom_bond_atom_site_label_1
_geom_bond_atom_site_label_2
_geom_bond_distance
_geom_bond_site_symmetry_2
_ccdc_geom_bond_type
Nd0 C2 2.836 . S
Nd0 O20 2.500 . S
Nd0 O21 2.492 . S
Nd0 O22 2.487 . S
Nd0 O23 2.682 . S
Nd0 O24 2.410 . S
Nd0 O29 2.414 . S
Nd0 O31 2.424 . S
Nd1 C11 2.836 1_545 S
Nd1 O23 2.414 . S
Nd1 O25 2.424 . S
Nd1 O26 2.500 . S
Nd1 O27 2.492 1_545 S
Nd1 O28 2.487 . S
Nd1 O29 2.682 . S
Nd1 O30 2.410 . S
C2 Nd0 2.836 . S
C2 C3 1.498 . S
C2 O20 1.258 . S
C2 O21 1.239 . S
C3 C2 1.498 . S
C3 C4 1.366 . S
C3 C8 1.407 . S
C4 C3 1.366 . S
C4 C5 1.392 . S
C4 H32 0.930 . S
C5 C4 1.392 . S
C5 C6 1.398 . S
C5 H33 0.929 . S
C6 C5 1.398 . S
C6 C7 1.352 . S
C7 C6 1.352 . S
C7 C8 1.384 . S
C7 H34 0.930 . S
C8 C3 1.407 . S
C8 C7 1.384 . S
C8 H35 0.929 . S
C9 O22 1.241 . S
C9 O23 1.273 . S
C10 O24 1.251 . S
C10 O25 1.268 . S
C11 Nd1 2.836 1_565 S
C11 C12 1.498 . S
C11 O26 1.258 1_565 S
C11 O27 1.239 . S
C12 C11 1.498 . S
C12 C13 1.366 . S
C12 C17 1.407 . S
C13 C12 1.366 . S
C13 C14 1.392 . S
C13 H36 0.930 . S
C14 C13 1.392 . S
C14 C15 1.398 . S
C14 H37 0.929 . S
C15 C14 1.398 . S
C15 C16 1.352 . S
C16 C15 1.352 . S
C16 C17 1.384 . S
C16 H38 0.930 . S
C17 C12 1.407 . S
C17 C16 1.384 . S
C17 H39 0.929 . S
C18 O28 1.241 . S
C18 O29 1.273 . S
C19 O30 1.251 . S
C19 O31 1.268 . S
O20 Nd0 2.500 . S
O20 C2 1.258 . S
O21 Nd0 2.492 . S
O21 C2 1.239 . S
O22 Nd0 2.487 . S
O22 C9 1.241 . S
O23 Nd0 2.682 . S
O23 Nd1 2.414 . S
O23 C9 1.273 . S
O24 Nd0 2.410 . S
O24 C10 1.251 . S
O25 Nd1 2.424 . S
O25 C10 1.268 . S
O26 Nd1 2.500 . S
O26 C11 1.258 1_545 S
O27 Nd1 2.492 1_565 S
O27 C11 1.239 . S
O28 Nd1 2.487 . S
O28 C18 1.241 . S
O29 Nd0 2.414 . S
O29 Nd1 2.682 . S
O29 C18 1.273 . S
O30 Nd1 2.410 . S
O30 C19 1.251 . S
O31 Nd0 2.424 . S
O31 C19 1.268 . S
H32 C4 0.930 . S
H33 C5 0.929 . S
H34 C7 0.930 . S
H35 C8 0.929 . S
H36 C13 0.930 . S
H37 C14 0.929 . S
H38 C16 0.930 . S
H39 C17 0.929 . S
Nd40 C42 2.836 . S
Nd40 O60 2.500 . S
Nd40 O61 2.492 . S
Nd40 O62 2.487 . S
Nd40 O63 2.682 . S
Nd40 O64 2.410 . S
Nd40 O69 2.414 . S
Nd40 O71 2.424 . S
Nd41 C51 2.836 . S
Nd41 O63 2.414 . S
Nd41 O65 2.424 . S
Nd41 O66 2.500 . S
Nd41 O67 2.492 . S
Nd41 O68 2.487 . S
Nd41 O69 2.682 . S
Nd41 O70 2.410 . S
C42 Nd40 2.836 . S
C42 C43 1.498 . S
C42 O60 1.258 . S
C42 O61 1.239 . S
C43 C42 1.498 . S
C43 C44 1.366 . S
C43 C48 1.407 . S
C44 C43 1.366 . S
C44 C45 1.392 . S
C44 H72 0.930 . S
C45 C44 1.392 . S
C45 C46 1.398 . S
C45 H73 0.929 . S
C46 C45 1.398 . S
C46 C47 1.352 . S
C47 C46 1.352 . S
C47 C48 1.384 . S
C47 H74 0.930 . S
C48 C43 1.407 . S
C48 C47 1.384 . S
C48 H75 0.929 . S
C49 O62 1.241 . S
C49 O63 1.273 . S
C50 O64 1.251 . S
C50 O65 1.268 . S
C51 Nd41 2.836 . S
C51 C52 1.498 . S
C51 O66 1.258 . S
C51 O67 1.239 . S
C52 C51 1.498 . S
C52 C53 1.366 . S
C52 C57 1.407 . S
C53 C52 1.366 . S
C53 C54 1.392 . S
C53 H76 0.930 . S
C54 C53 1.392 . S
C54 C55 1.398 . S
C54 H77 0.929 . S
C55 C54 1.398 . S
C55 C56 1.352 . S
C56 C55 1.352 . S
C56 C57 1.384 . S
C56 H78 0.930 . S
C57 C52 1.407 . S
C57 C56 1.384 . S
C57 H79 0.929 . S
C58 O68 1.241 . S
C58 O69 1.273 . S
C59 O70 1.251 . S
C59 O71 1.268 . S
O60 Nd40 2.500 . S
O60 C42 1.258 . S
O61 Nd40 2.492 . S
O61 C42 1.239 . S
O62 Nd40 2.487 . S
O62 C49 1.241 . S
O63 Nd40 2.682 . S
O63 Nd41 2.414 . S
O63 C49 1.273 . S
O64 Nd40 2.410 . S
O64 C50 1.251 . S
O65 Nd41 2.424 . S
O65 C50 1.268 . S
O66 Nd41 2.500 . S
O66 C51 1.258 . S
O67 Nd41 2.492 . S
O67 C51 1.239 . S
O68 Nd41 2.487 . S
O68 C58 1.241 . S
O69 Nd40 2.414 . S
O69 Nd41 2.682 . S
O69 C58 1.273 . S
O70 Nd41 2.410 . S
O70 C59 1.251 . S
O71 Nd40 2.424 . S
O71 C59 1.268 . S
H72 C44 0.930 . S
H73 C45 0.929 . S
H74 C47 0.930 . S
H75 C48 0.929 . S
H76 C53 0.930 . S
H77 C54 0.929 . S
H78 C56 0.930 . S
H79 C57 0.929 . S
Nd80 C82 2.836 . S
Nd80 O100 2.500 . S
Nd80 O101 2.492 . S
Nd80 O102 2.487 . S
Nd80 O103 2.682 . S
Nd80 O104 2.410 . S
Nd80 O109 2.414 . S
Nd80 O111 2.424 . S
Nd81 C91 2.836 1_655 S
Nd81 O103 2.414 . S
Nd81 O105 2.424 . S
Nd81 O106 2.500 . S
Nd81 O107 2.492 1_655 S
Nd81 O108 2.487 . S
Nd81 O109 2.682 . S
Nd81 O110 2.410 . S
C82 Nd80 2.836 . S
C82 C83 1.498 . S
C82 O100 1.258 . S
C82 O101 1.239 . S
C83 C82 1.498 . S
C83 C84 1.366 . S
C83 C88 1.407 . S
C84 C83 1.366 . S
C84 C85 1.392 . S
C84 H112 0.930 . S
C85 C84 1.392 . S
C85 C86 1.398 . S
C85 H113 0.929 . S
C86 C85 1.398 . S
C86 C87 1.352 . S
C87 C86 1.352 . S
C87 C88 1.384 . S
C87 H114 0.930 . S
C88 C83 1.407 . S
C88 C87 1.384 . S
C88 H115 0.929 . S
C89 O102 1.241 . S
C89 O103 1.273 . S
C90 O104 1.251 . S
C90 O105 1.268 . S
C91 Nd81 2.836 1_455 S
C91 C92 1.498 . S
C91 O106 1.258 1_455 S
C91 O107 1.239 . S
C92 C91 1.498 . S
C92 C93 1.366 . S
C92 C97 1.407 . S
C93 C92 1.366 . S
C93 C94 1.392 . S
C93 H116 0.930 . S
C94 C93 1.392 . S
C94 C95 1.398 . S
C94 H117 0.929 . S
C95 C94 1.398 . S
C95 C96 1.352 . S
C96 C95 1.352 . S
C96 C97 1.384 . S
C96 H118 0.930 . S
C97 C92 1.407 . S
C97 C96 1.384 . S
C97 H119 0.929 . S
C98 O108 1.241 . S
C98 O109 1.273 . S
C99 O110 1.251 . S
C99 O111 1.268 . S
O100 Nd80 2.500 . S
O100 C82 1.258 . S
O101 Nd80 2.492 . S
O101 C82 1.239 . S
O102 Nd80 2.487 . S
O102 C89 1.241 . S
O103 Nd80 2.682 . S
O103 Nd81 2.414 . S
O103 C89 1.273 . S
O104 Nd80 2.410 . S
O104 C90 1.251 . S
O105 Nd81 2.424 . S
O105 C90 1.268 . S
O106 Nd81 2.500 . S
O106 C91 1.258 1_655 S
O107 Nd81 2.492 1_455 S
O107 C91 1.239 . S
O108 Nd81 2.487 . S
O108 C98 1.241 . S
O109 Nd80 2.414 . S
O109 Nd81 2.682 . S
O109 C98 1.273 . S
O110 Nd81 2.410 . S
O110 C99 1.251 . S
O111 Nd80 2.424 . S
O111 C99 1.268 . S
H112 C84 0.930 . S
H113 C85 0.929 . S
H114 C87 0.930 . S
H115 C88 0.929 . S
H116 C93 0.930 . S
H117 C94 0.929 . S
H118 C96 0.930 . S
H119 C97 0.929 . S
Nd120 C122 2.836 1_455 S
Nd120 O140 2.500 . S
Nd120 O141 2.492 1_455 S
Nd120 O142 2.487 . S
Nd120 O143 2.682 . S
Nd120 O144 2.410 . S
Nd120 O149 2.414 . S
Nd120 O151 2.424 . S
Nd121 C131 2.836 . S
Nd121 O143 2.414 . S
Nd121 O145 2.424 . S
Nd121 O146 2.500 . S
Nd121 O147 2.492 . S
Nd121 O148 2.487 . S
Nd121 O149 2.682 . S
Nd121 O150 2.410 . S
C122 Nd120 2.836 1_655 S
C122 C123 1.498 . S
C122 O140 1.258 1_655 S
C122 O141 1.239 . S
C123 C122 1.498 . S
C123 C124 1.366 . S
C123 C128 1.407 . S
C124 C123 1.366 . S
C124 C125 1.392 . S
C124 H152 0.930 . S
C125 C124 1.392 . S
C125 C126 1.398 . S
C125 H153 0.929 . S
C126 C125 1.398 . S
C126 C127 1.352 . S
C127 C126 1.352 . S
C127 C128 1.384 . S
C127 H154 0.930 . S
C128 C123 1.407 . S
C128 C127 1.384 . S
C128 H155 0.929 . S
C129 O142 1.241 . S
C129 O143 1.273 . S
C130 O144 1.251 . S
C130 O145 1.268 . S
C131 Nd121 2.836 . S
C131 C132 1.498 . S
C131 O146 1.258 . S
C131 O147 1.239 . S
C132 C131 1.498 . S
C132 C133 1.366 . S
C132 C137 1.407 . S
C133 C132 1.366 . S
C133 C134 1.392 . S
C133 H156 0.930 . S
C134 C133 1.392 . S
C134 C135 1.398 . S
C134 H157 0.929 . S
C135 C134 1.398 . S
C135 C136 1.352 . S
C136 C135 1.352 . S
C136 C137 1.384 . S
C136 H158 0.930 . S
C137 C132 1.407 . S
C137 C136 1.384 . S
C137 H159 0.929 . S
C138 O148 1.241 . S
C138 O149 1.273 . S
C139 O150 1.251 . S
C139 O151 1.268 . S
O140 Nd120 2.500 . S
O140 C122 1.258 1_455 S
O141 Nd120 2.492 1_655 S
O141 C122 1.239 . S
O142 Nd120 2.487 . S
O142 C129 1.241 . S
O143 Nd120 2.682 . S
O143 Nd121 2.414 . S
O143 C129 1.273 . S
O144 Nd120 2.410 . S
O144 C130 1.251 . S
O145 Nd121 2.424 . S
O145 C130 1.268 . S
O146 Nd121 2.500 . S
O146 C131 1.258 . S
O147 Nd121 2.492 . S
O147 C131 1.239 . S
O148 Nd121 2.487 . S
O148 C138 1.241 . S
O149 Nd120 2.414 . S
O149 Nd121 2.682 . S
O149 C138 1.273 . S
O150 Nd121 2.410 . S
O150 C139 1.251 . S
O151 Nd120 2.424 . S
O151 C139 1.268 . S
H152 C124 0.930 . S
H153 C125 0.929 . S
H154 C127 0.930 . S
H155 C128 0.929 . S
H156 C133 0.930 . S
H157 C134 0.929 . S
H158 C136 0.930 . S
H159 C137 0.929 . S
Nd160 C162 2.836 1_565 S
Nd160 O180 2.500 . S
Nd160 O181 2.492 1_565 S
Nd160 O182 2.487 . S
Nd160 O183 2.682 . S
Nd160 O184 2.410 . S
Nd160 O189 2.414 . S
Nd160 O191 2.424 . S
Nd161 C171 2.836 . S
Nd161 O183 2.414 . S
Nd161 O185 2.424 . S
Nd161 O186 2.500 . S
Nd161 O187 2.492 . S
Nd161 O188 2.487 . S
Nd161 O189 2.682 . S
Nd161 O190 2.410 . S
C162 Nd160 2.836 1_545 S
C162 C163 1.498 . S
C162 O180 1.258 1_545 S
C162 O181 1.239 . S
C163 C162 1.498 . S
C163 C164 1.366 . S
C163 C168 1.407 . S
C164 C163 1.366 . S
C164 C165 1.392 . S
C164 H192 0.930 . S
C165 C164 1.392 . S
C165 C166 1.398 . S
C165 H193 0.929 . S
C166 C165 1.398 . S
C166 C167 1.352 . S
C167 C166 1.352 . S
C167 C168 1.384 . S
C167 H194 0.930 . S
C168 C163 1.407 . S
C168 C167 1.384 . S
C168 H195 0.929 . S
C169 O182 1.241 . S
C169 O183 1.273 . S
C170 O184 1.251 . S
C170 O185 1.268 . S
C171 Nd161 2.836 . S
C171 C172 1.498 . S
C171 O186 1.258 . S
C171 O187 1.239 . S
C172 C171 1.498 . S
C172 C173 1.366 . S
C172 C177 1.407 . S
C173 C172 1.366 . S
C173 C174 1.392 . S
C173 H196 0.930 . S
C174 C173 1.392 . S
C174 C175 1.398 . S
C174 H197 0.929 . S
C175 C174 1.398 . S
C175 C176 1.352 . S
C176 C175 1.352 . S
C176 C177 1.384 . S
C176 H198 0.930 . S
C177 C172 1.407 . S
C177 C176 1.384 . S
C177 H199 0.929 . S
C178 O188 1.241 . S
C178 O189 1.273 . S
C179 O190 1.251 . S
C179 O191 1.268 . S
O180 Nd160 2.500 . S
O180 C162 1.258 1_565 S
O181 Nd160 2.492 1_545 S
O181 C162 1.239 . S
O182 Nd160 2.487 . S
O182 C169 1.241 . S
O183 Nd160 2.682 . S
O183 Nd161 2.414 . S
O183 C169 1.273 . S
O184 Nd160 2.410 . S
O184 C170 1.251 . S
O185 Nd161 2.424 . S
O185 C170 1.268 . S
O186 Nd161 2.500 . S
O186 C171 1.258 . S
O187 Nd161 2.492 . S
O187 C171 1.239 . S
O188 Nd161 2.487 . S
O188 C178 1.241 . S
O189 Nd160 2.414 . S
O189 Nd161 2.682 . S
O189 C178 1.273 . S
O190 Nd161 2.410 . S
O190 C179 1.251 . S
O191 Nd160 2.424 . S
O191 C179 1.268 . S
H192 C164 0.930 . S
H193 C165 0.929 . S
H194 C167 0.930 . S
H195 C168 0.929 . S
H196 C173 0.930 . S
H197 C174 0.929 . S
H198 C176 0.930 . S
H199 C177 0.929 . S
Nd200 C202 2.836 . S
Nd200 O220 2.500 . S
Nd200 O221 2.492 . S
Nd200 O222 2.487 . S
Nd200 O223 2.682 . S
Nd200 O224 2.410 . S
Nd200 O229 2.414 . S
Nd200 O231 2.424 . S
Nd201 C211 2.836 . S
Nd201 O223 2.414 . S
Nd201 O225 2.424 . S
Nd201 O226 2.500 . S
Nd201 O227 2.492 . S
Nd201 O228 2.487 . S
Nd201 O229 2.682 . S
Nd201 O230 2.410 . S
C202 Nd200 2.836 . S
C202 C203 1.498 . S
C202 O220 1.258 . S
C202 O221 1.239 . S
C203 C202 1.498 . S
C203 C204 1.366 . S
C203 C208 1.407 . S
C204 C203 1.366 . S
C204 C205 1.392 . S
C204 H232 0.930 . S
C205 C204 1.392 . S
C205 C206 1.398 . S
C205 H233 0.929 . S
C206 C205 1.398 . S
C206 C207 1.352 . S
C207 C206 1.352 . S
C207 C208 1.384 . S
C207 H234 0.930 . S
C208 C203 1.407 . S
C208 C207 1.384 . S
C208 H235 0.929 . S
C209 O222 1.241 . S
C209 O223 1.273 . S
C210 O224 1.251 . S
C210 O225 1.268 . S
C211 Nd201 2.836 . S
C211 C212 1.498 . S
C211 O226 1.258 . S
C211 O227 1.239 . S
C212 C211 1.498 . S
C212 C213 1.366 . S
C212 C217 1.407 . S
C213 C212 1.366 . S
C213 C214 1.392 . S
C213 H236 0.930 . S
C214 C213 1.392 . S
C214 C215 1.398 . S
C214 H237 0.929 . S
C215 C214 1.398 . S
C215 C216 1.352 . S
C216 C215 1.352 . S
C216 C217 1.384 . S
C216 H238 0.930 . S
C217 C212 1.407 . S
C217 C216 1.384 . S
C217 H239 0.929 . S
C218 O228 1.241 . S
C218 O229 1.273 . S
C219 O230 1.251 . S
C219 O231 1.268 . S
O220 Nd200 2.500 . S
O220 C202 1.258 . S
O221 Nd200 2.492 . S
O221 C202 1.239 . S
O222 Nd200 2.487 . S
O222 C209 1.241 . S
O223 Nd200 2.682 . S
O223 Nd201 2.414 . S
O223 C209 1.273 . S
O224 Nd200 2.410 . S
O224 C210 1.251 . S
O225 Nd201 2.424 . S
O225 C210 1.268 . S
O226 Nd201 2.500 . S
O226 C211 1.258 . S
O227 Nd201 2.492 . S
O227 C211 1.239 . S
O228 Nd201 2.487 . S
O228 C218 1.241 . S
O229 Nd200 2.414 . S
O229 Nd201 2.682 . S
O229 C218 1.273 . S
O230 Nd201 2.410 . S
O230 C219 1.251 . S
O231 Nd200 2.424 . S
O231 C219 1.268 . S
H232 C204 0.930 . S
H233 C205 0.929 . S
H234 C207 0.930 . S
H235 C208 0.929 . S
H236 C213 0.930 . S
H237 C214 0.929 . S
H238 C216 0.930 . S
H239 C217 0.929 . S
H240 C252 0.930 . S
H241 C254 0.930 . S
H242 C255 0.930 1_554 S
H243 C259 0.959 . S
H244 C259 0.959 . S
H245 C259 0.961 . S
H246 C260 0.960 . S
H247 C260 0.961 . S
H248 C260 0.959 . S
H249 C263 0.929 1_565 S
H250 C264 0.931 . S
H251 C266 0.930 . S
C252 H240 0.930 . S
C252 C253 1.399 . S
C252 C257 1.399 . S
C253 C252 1.399 . S
C253 C254 1.376 . S
C254 H241 0.930 . S
C254 C253 1.376 . S
C254 C255 1.388 . S
C255 H242 0.930 1_556 S
C255 C254 1.388 . S
C255 C256 1.390 . S
C256 C255 1.390 . S
C256 C257 1.394 . S
C256 C262 1.465 1_566 S
C257 C252 1.399 . S
C257 C256 1.394 . S
C257 C258 1.516 1_565 S
C258 C257 1.516 1_545 S
C258 C259 1.502 . S
C258 C260 1.561 . S
C258 C261 1.526 1_556 S
C259 H243 0.959 . S
C259 H244 0.959 . S
C259 H245 0.961 . S
C259 C258 1.502 . S
C260 H246 0.960 . S
C260 H247 0.961 . S
C260 H248 0.959 . S
C260 C258 1.561 . S
C261 C258 1.526 1_554 S
C261 C262 1.396 . S
C261 C266 1.390 . S
C262 C256 1.465 1_544 S
C262 C261 1.396 . S
C262 C263 1.399 . S
C263 H249 0.929 1_545 S
C263 C262 1.399 . S
C263 C264 1.385 . S
C264 H250 0.931 . S
C264 C263 1.385 . S
C264 C265 1.389 . S
C265 C264 1.389 . S
C265 C266 1.387 . S
C266 H251 0.930 . S
C266 C261 1.390 . S
C266 C265 1.387 . S
H267 C279 0.930 . S
H268 C281 0.930 . S
H269 C282 0.930 . S
H270 C286 0.959 . S
H271 C286 0.959 . S
H272 C286 0.961 . S
H273 C287 0.960 . S
H274 C287 0.961 . S
H275 C287 0.959 . S
H276 C290 0.929 . S
H277 C291 0.931 . S
H278 C293 0.930 . S
C279 H267 0.930 . S
C279 C280 1.399 . S
C279 C284 1.399 . S
C280 C279 1.399 . S
C280 C281 1.376 . S
C281 H268 0.930 . S
C281 C280 1.376 . S
C281 C282 1.388 . S
C282 H269 0.930 . S
C282 C281 1.388 . S
C282 C283 1.390 . S
C283 C282 1.390 . S
C283 C284 1.394 . S
C283 C289 1.465 . S
C284 C279 1.399 . S
C284 C283 1.394 . S
C284 C285 1.516 . S
C285 C284 1.516 . S
C285 C286 1.502 . S
C285 C287 1.561 . S
C285 C288 1.526 . S
C286 H270 0.959 . S
C286 H271 0.959 . S
C286 H272 0.961 . S
C286 C285 1.502 . S
C287 H273 0.960 . S
C287 H274 0.961 . S
C287 H275 0.959 . S
C287 C285 1.561 . S
C288 C285 1.526 . S
C288 C289 1.396 . S
C288 C293 1.390 . S
C289 C283 1.465 . S
C289 C288 1.396 . S
C289 C290 1.399 . S
C290 H276 0.929 . S
C290 C289 1.399 . S
C290 C291 1.385 . S
C291 H277 0.931 . S
C291 C290 1.385 . S
C291 C292 1.389 . S
C292 C291 1.389 . S
C292 C293 1.387 . S
C293 H278 0.930 . S
C293 C288 1.390 . S
C293 C292 1.387 . S
H294 C306 0.930 . S
H295 C308 0.930 . S
H296 C309 0.930 . S
H297 C313 0.959 1_655 S
H298 C313 0.959 . S
H299 C313 0.961 1_654 S
H300 C314 0.960 . S
H301 C314 0.961 . S
H302 C314 0.959 . S
H303 C317 0.929 . S
H304 C318 0.931 . S
H305 C320 0.930 . S
C306 H294 0.930 . S
C306 C307 1.399 . S
C306 C311 1.399 . S
C307 C306 1.399 . S
C307 C308 1.376 . S
C308 H295 0.930 . S
C308 C307 1.376 . S
C308 C309 1.388 . S
C309 H296 0.930 . S
C309 C308 1.388 . S
C309 C310 1.390 . S
C310 C309 1.390 . S
C310 C311 1.394 . S
C310 C316 1.465 1_654 S
C311 C306 1.399 . S
C311 C310 1.394 . S
C311 C312 1.516 1_655 S
C312 C311 1.516 1_455 S
C312 C313 1.502 1_554 S
C312 C314 1.561 . S
C312 C315 1.526 1_554 S
C313 H297 0.959 1_455 S
C313 H298 0.959 . S
C313 H299 0.961 1_456 S
C313 C312 1.502 1_556 S
C314 H300 0.960 . S
C314 H301 0.961 . S
C314 H302 0.959 . S
C314 C312 1.561 . S
C315 C312 1.526 1_556 S
C315 C316 1.396 . S
C315 C320 1.390 . S
C316 C310 1.465 1_456 S
C316 C315 1.396 . S
C316 C317 1.399 . S
C317 H303 0.929 . S
C317 C316 1.399 . S
C317 C318 1.385 . S
C318 H304 0.931 . S
C318 C317 1.385 . S
C318 C319 1.389 . S
C319 C318 1.389 . S
C319 C320 1.387 . S
C320 H305 0.930 . S
C320 C315 1.390 . S
C320 C319 1.387 . S
H321 C333 0.930 . S
H322 C335 0.930 . S
H323 C336 0.930 . S
H324 C340 0.959 . S
H325 C340 0.959 . S
H326 C340 0.961 . S
H327 C341 0.960 . S
H328 C341 0.961 . S
H329 C341 0.959 . S
H330 C344 0.929 . S
H331 C345 0.931 . S
H332 C347 0.930 . S
C333 H321 0.930 . S
C333 C334 1.399 . S
C333 C338 1.399 . S
C334 C333 1.399 . S
C334 C335 1.376 . S
C335 H322 0.930 . S
C335 C334 1.376 . S
C335 C336 1.388 1_545 S
C336 H323 0.930 . S
C336 C335 1.388 1_565 S
C336 C337 1.388 . S
C337 C336 1.388 . S
C337 C338 1.384 1_565 S
C337 C343 1.476 . S
C338 C333 1.399 . S
C338 C337 1.384 1_545 S
C338 C339 1.516 . S
C339 C338 1.516 . S
C339 C340 1.502 . S
C339 C341 1.561 . S
C339 C342 1.526 1_545 S
C340 H324 0.959 . S
C340 H325 0.959 . S
C340 H326 0.961 . S
C340 C339 1.502 . S
C341 H327 0.960 . S
C341 H328 0.961 . S
C341 H329 0.959 . S
C341 C339 1.561 . S
C342 C339 1.526 1_565 S
C342 C343 1.396 . S
C342 C347 1.390 . S
C343 C337 1.476 . S
C343 C342 1.396 . S
C343 C344 1.399 . S
C344 H330 0.929 . S
C344 C343 1.399 . S
C344 C345 1.385 . S
C345 H331 0.931 . S
C345 C344 1.385 . S
C345 C346 1.389 . S
C346 C345 1.389 . S
C346 C347 1.387 . S
C347 H332 0.930 . S
C347 C342 1.390 . S
C347 C346 1.387 . S
H348 C360 0.930 . S
H349 C362 0.930 . S
H350 C363 0.930 . S
H351 C367 0.959 . S
H352 C367 0.959 . S
H353 C367 0.961 . S
H354 C368 0.960 . S
H355 C368 0.961 1_554 S
H356 C368 0.959 . S
H357 C371 0.929 . S
H358 C372 0.931 . S
H359 C374 0.930 . S
C360 H348 0.930 . S
C360 C361 1.399 . S
C360 C365 1.399 . S
C361 C360 1.399 . S
C361 C362 1.376 . S
C362 H349 0.930 . S
C362 C361 1.376 . S
C362 C363 1.388 . S
C363 H350 0.930 . S
C363 C362 1.388 . S
C363 C364 1.390 . S
C364 C363 1.390 . S
C364 C365 1.394 . S
C364 C370 1.465 1_556 S
C365 C360 1.399 . S
C365 C364 1.394 . S
C365 C366 1.516 1_556 S
C366 C365 1.516 1_554 S
C366 C367 1.502 . S
C366 C368 1.561 1_554 S
C366 C369 1.526 . S
C367 H351 0.959 . S
C367 H352 0.959 . S
C367 H353 0.961 . S
C367 C366 1.502 . S
C368 H354 0.960 . S
C368 H355 0.961 1_556 S
C368 H356 0.959 . S
C368 C366 1.561 1_556 S
C369 C366 1.526 . S
C369 C370 1.396 . S
C369 C374 1.390 . S
C370 C364 1.465 1_554 S
C370 C369 1.396 . S
C370 C371 1.399 . S
C371 H357 0.929 . S
C371 C370 1.399 . S
C371 C372 1.385 . S
C372 H358 0.931 . S
C372 C371 1.385 . S
C372 C373 1.389 . S
C373 C372 1.389 . S
C373 C374 1.387 . S
C374 H359 0.930 . S
C374 C369 1.390 . S
C374 C373 1.387 . S
H375 C387 0.930 . S
H376 C389 0.930 . S
H377 C390 0.930 . S
H378 C394 0.959 . S
H379 C394 0.959 . S
H380 C394 0.961 1_655 S
H381 C395 0.960 . S
H382 C395 0.961 . S
H383 C395 0.959 . S
H384 C398 0.929 . S
H385 C399 0.931 . S
H386 C401 0.930 . S
C387 H375 0.930 . S
C387 C388 1.399 . S
C387 C392 1.399 . S
C388 C387 1.399 . S
C388 C389 1.376 . S
C389 H376 0.930 . S
C389 C388 1.376 . S
C389 C390 1.388 . S
C390 H377 0.930 . S
C390 C389 1.388 . S
C390 C391 1.390 . S
C391 C390 1.390 . S
C391 C392 1.394 . S
C391 C397 1.465 1_655 S
C392 C387 1.399 . S
C392 C391 1.394 . S
C392 C393 1.516 . S
C393 C392 1.516 . S
C393 C394 1.502 1_655 S
C393 C395 1.561 . S
C393 C396 1.526 1_655 S
C394 H378 0.959 . S
C394 H379 0.959 . S
C394 H380 0.961 1_455 S
C394 C393 1.502 1_455 S
C395 H381 0.960 . S
C395 H382 0.961 . S
C395 H383 0.959 . S
C395 C393 1.561 . S
C396 C393 1.526 1_455 S
C396 C397 1.396 . S
C396 C401 1.390 . S
C397 C391 1.465 1_455 S
C397 C396 1.396 . S
C397 C398 1.399 . S
C398 H384 0.929 . S
C398 C397 1.399 . S
C398 C399 1.385 . S
C399 H385 0.931 . S
C399 C398 1.385 . S
C399 C400 1.389 . S
C400 C399 1.389 . S
C400 C401 1.387 . S
C401 H386 0.930 . S
C401 C396 1.390 . S
C401 C400 1.387 . S
H402 C414 0.930 . S
H403 C416 0.930 . S
H404 C417 0.930 . S
H405 C421 0.959 . S
H406 C421 0.959 . S
H407 C421 0.961 . S
H408 C422 0.960 . S
H409 C422 0.961 . S
H410 C422 0.959 . S
H411 C425 0.929 . S
H412 C426 0.931 . S
H413 C428 0.930 . S
C414 H402 0.930 . S
C414 C415 1.399 . S
C414 C419 1.399 . S
C415 C414 1.399 . S
C415 C416 1.376 . S
C416 H403 0.930 . S
C416 C415 1.376 . S
C416 C417 1.388 . S
C417 H404 0.930 . S
C417 C416 1.388 . S
C417 C418 1.390 . S
C418 C417 1.390 . S
C418 C419 1.394 . S
C418 C424 1.465 . S
C419 C414 1.399 . S
C419 C418 1.394 . S
C419 C420 1.516 . S
C420 C419 1.516 . S
C420 C421 1.502 . S
C420 C422 1.561 . S
C420 C423 1.526 . S
C421 H405 0.959 . S
C421 H406 0.959 . S
C421 H407 0.961 . S
C421 C420 1.502 . S
C422 H408 0.960 . S
C422 H409 0.961 . S
C422 H410 0.959 . S
C422 C420 1.561 . S
C423 C420 1.526 . S
C423 C424 1.396 . S
C423 C428 1.390 . S
C424 C418 1.465 . S
C424 C423 1.396 . S
C424 C425 1.399 . S
C425 H411 0.929 . S
C425 C424 1.399 . S
C425 C426 1.385 . S
C426 H412 0.931 . S
C426 C425 1.385 . S
C426 C427 1.389 . S
C427 C426 1.389 . S
C427 C428 1.387 . S
C428 H413 0.930 . S
C428 C423 1.390 . S
C428 C427 1.387 . S
H429 C441 0.930 . S
H430 C443 0.930 . S
H431 C444 0.930 . S
H432 C448 0.959 . S
H433 C448 0.959 . S
H434 C448 0.961 . S
H435 C449 0.960 . S
H436 C449 0.961 . S
H437 C449 0.959 . S
H438 C452 0.929 . S
H439 C453 0.931 . S
H440 C455 0.930 . S
C441 H429 0.930 . S
C441 C442 1.399 . S
C441 C446 1.399 . S
C442 C441 1.399 . S
C442 C443 1.376 . S
C443 H430 0.930 . S
C443 C442 1.376 . S
C443 C444 1.388 . S
C444 H431 0.930 . S
C444 C443 1.388 . S
C444 C445 1.390 . S
C445 C444 1.390 . S
C445 C446 1.394 . S
C445 C451 1.465 . S
C446 C441 1.399 . S
C446 C445 1.394 . S
C446 C447 1.516 . S
C447 C446 1.516 . S
C447 C448 1.502 . S
C447 C449 1.561 . S
C447 C450 1.526 . S
C448 H432 0.959 . S
C448 H433 0.959 . S
C448 H434 0.961 . S
C448 C447 1.502 . S
C449 H435 0.960 . S
C449 H436 0.961 . S
C449 H437 0.959 . S
C449 C447 1.561 . S
C450 C447 1.526 . S
C450 C451 1.396 . S
C450 C455 1.390 . S
C451 C445 1.465 . S
C451 C450 1.396 . S
C451 C452 1.399 . S
C452 H438 0.929 . S
C452 C451 1.399 . S
C452 C453 1.385 . S
C453 H439 0.931 . S
C453 C452 1.385 . S
C453 C454 1.389 . S
C454 C453 1.389 . S
C454 C455 1.387 . S
C455 H440 0.930 . S
C455 C450 1.390 . S
C455 C454 1.387 . S
H456 C468 0.930 . S
H457 C470 0.930 . S
H458 C471 0.930 . S
H459 C475 0.959 . S
H460 C475 0.959 . S
H461 C475 0.961 . S
H462 C476 0.960 . S
H463 C476 0.961 . S
H464 C476 0.959 . S
H465 C479 0.929 . S
H466 C480 0.931 . S
H467 C482 0.930 . S
C468 H456 0.930 . S
C468 C469 1.399 . S
C468 C473 1.399 . S
C469 C468 1.399 . S
C469 C470 1.376 . S
C470 H457 0.930 . S
C470 C469 1.376 . S
C470 C471 1.388 . S
C471 H458 0.930 . S
C471 C470 1.388 . S
C471 C472 1.390 . S
C472 C471 1.390 . S
C472 C473 1.394 . S
C472 C478 1.465 . S
C473 C468 1.399 . S
C473 C472 1.394 . S
C473 C474 1.516 . S
C474 C473 1.516 . S
C474 C475 1.502 . S
C474 C476 1.561 . S
C474 C477 1.526 . S
C475 H459 0.959 . S
C475 H460 0.959 . S
C475 H461 0.961 . S
C475 C474 1.502 . S
C476 H462 0.960 . S
C476 H463 0.961 . S
C476 H464 0.959 . S
C476 C474 1.561 . S
C477 C474 1.526 . S
C477 C478 1.396 . S
C477 C482 1.390 . S
C478 C472 1.465 . S
C478 C477 1.396 . S
C478 C479 1.399 . S
C479 H465 0.929 . S
C479 C478 1.399 . S
C479 C480 1.385 . S
C480 H466 0.931 . S
C480 C479 1.385 . S
C480 C481 1.389 . S
C481 C480 1.389 . S
C481 C482 1.387 . S
C482 H467 0.930 . S
C482 C477 1.390 . S
C482 C481 1.387 . S
H483 C495 0.930 . S
H484 C497 0.930 . S
H485 C498 0.930 . S
H486 C502 0.959 . S
H487 C502 0.959 . S
H488 C502 0.961 . S
H489 C503 0.960 . S
H490 C503 0.961 . S
H491 C503 0.959 . S
H492 C506 0.929 . S
H493 C507 0.931 . S
H494 C509 0.930 . S
C495 H483 0.930 . S
C495 C496 1.399 . S
C495 C500 1.399 . S
C496 C495 1.399 . S
C496 C497 1.376 . S
C497 H484 0.930 . S
C497 C496 1.376 . S
C497 C498 1.388 . S
C498 H485 0.930 . S
C498 C497 1.388 . S
C498 C499 1.390 . S
C499 C498 1.390 . S
C499 C500 1.394 . S
C499 C505 1.465 . S
C500 C495 1.399 . S
C500 C499 1.394 . S
C500 C501 1.516 . S
C501 C500 1.516 . S
C501 C502 1.502 . S
C501 C503 1.561 . S
C501 C504 1.526 . S
C502 H486 0.959 . S
C502 H487 0.959 . S
C502 H488 0.961 . S
C502 C501 1.502 . S
C503 H489 0.960 . S
C503 H490 0.961 . S
C503 H491 0.959 . S
C503 C501 1.561 . S
C504 C501 1.526 . S
C504 C505 1.396 . S
C504 C509 1.390 . S
C505 C499 1.465 . S
C505 C504 1.396 . S
C505 C506 1.399 . S
C506 H492 0.929 . S
C506 C505 1.399 . S
C506 C507 1.385 . S
C507 H493 0.931 . S
C507 C506 1.385 . S
C507 C508 1.389 . S
C508 C507 1.389 . S
C508 C509 1.387 . S
C509 H494 0.930 . S
C509 C504 1.390 . S
C509 C508 1.387 . S
H510 C522 0.930 . S
H511 C524 0.930 . S
H512 C525 0.930 . S
H513 C529 0.959 . S
H514 C529 0.959 . S
H515 C529 0.961 . S
H516 C530 0.960 . S
H517 C530 0.961 . S
H518 C530 0.959 . S
H519 C533 0.929 . S
H520 C534 0.931 . S
H521 C536 0.930 . S
C522 H510 0.930 . S
C522 C523 1.399 . S
C522 C527 1.399 . S
C523 C522 1.399 . S
C523 C524 1.376 . S
C524 H511 0.930 . S
C524 C523 1.376 . S
C524 C525 1.388 . S
C525 H512 0.930 . S
C525 C524 1.388 . S
C525 C526 1.390 . S
C526 C525 1.390 . S
C526 C527 1.394 . S
C526 C532 1.465 . S
C527 C522 1.399 . S
C527 C526 1.394 . S
C527 C528 1.516 . S
C528 C527 1.516 . S
C528 C529 1.502 . S
C528 C530 1.561 . S
C528 C531 1.526 . S
C529 H513 0.959 . S
C529 H514 0.959 . S
C529 H515 0.961 . S
C529 C528 1.502 . S
C530 H516 0.960 . S
C530 H517 0.961 . S
C530 H518 0.959 . S
C530 C528 1.561 . S
C531 C528 1.526 . S
C531 C532 1.396 . S
C531 C536 1.390 . S
C532 C526 1.465 . S
C532 C531 1.396 . S
C532 C533 1.399 . S
C533 H519 0.929 . S
C533 C532 1.399 . S
C533 C534 1.385 . S
C534 H520 0.931 . S
C534 C533 1.385 . S
C534 C535 1.389 . S
C535 C534 1.389 . S
C535 C536 1.387 . S
C536 H521 0.930 . S
C536 C531 1.390 . S
C536 C535 1.387 . S
H537 C549 0.930 . S
H538 C551 0.930 . S
H539 C552 0.930 . S
H540 C556 0.959 . S
H541 C556 0.959 . S
H542 C556 0.961 . S
H543 C557 0.960 . S
H544 C557 0.961 . S
H545 C557 0.959 . S
H546 C560 0.929 . S
H547 C561 0.931 . S
H548 C563 0.930 . S
C549 H537 0.930 . S
C549 C550 1.399 . S
C549 C554 1.399 . S
C550 C549 1.399 . S
C550 C551 1.376 . S
C551 H538 0.930 . S
C551 C550 1.376 . S
C551 C552 1.388 . S
C552 H539 0.930 . S
C552 C551 1.388 . S
C552 C553 1.390 . S
C553 C552 1.390 . S
C553 C554 1.394 . S
C553 C559 1.465 . S
C554 C549 1.399 . S
C554 C553 1.394 . S
C554 C555 1.516 . S
C555 C554 1.516 . S
C555 C556 1.502 . S
C555 C557 1.561 . S
C555 C558 1.526 . S
C556 H540 0.959 . S
C556 H541 0.959 . S
C556 H542 0.961 . S
C556 C555 1.502 . S
C557 H543 0.960 . S
C557 H544 0.961 . S
C557 H545 0.959 . S
C557 C555 1.561 . S
C558 C555 1.526 . S
C558 C559 1.396 . S
C558 C563 1.390 . S
C559 C553 1.465 . S
C559 C558 1.396 . S
C559 C560 1.399 . S
C560 H546 0.929 . S
C560 C559 1.399 . S
C560 C561 1.385 . S
C561 H547 0.931 . S
C561 C560 1.385 . S
C561 C562 1.389 . S
C562 C561 1.389 . S
C562 C563 1.387 . S
C563 H548 0.930 . S
C563 C558 1.390 . S
C563 C562 1.387 . S
H564 C576 0.930 . S
H565 C578 0.930 . S
H566 C579 0.930 . S
H567 C583 0.959 . S
H568 C583 0.959 . S
H569 C583 0.961 . S
H570 C584 0.960 . S
H571 C584 0.961 . S
H572 C584 0.959 . S
H573 C587 0.929 . S
H574 C588 0.931 . S
H575 C590 0.930 . S
C576 H564 0.930 . S
C576 C577 1.399 . S
C576 C581 1.399 . S
C577 C576 1.399 . S
C577 C578 1.376 . S
C578 H565 0.930 . S
C578 C577 1.376 . S
C578 C579 1.388 . S
C579 H566 0.930 . S
C579 C578 1.388 . S
C579 C580 1.390 . S
C580 C579 1.390 . S
C580 C581 1.394 . S
C580 C586 1.465 . S
C581 C576 1.399 . S
C581 C580 1.394 . S
C581 C582 1.516 . S
C582 C581 1.516 . S
C582 C583 1.502 . S
C582 C584 1.561 . S
C582 C585 1.526 . S
C583 H567 0.959 . S
C583 H568 0.959 . S
C583 H569 0.961 . S
C583 C582 1.502 . S
C584 H570 0.960 . S
C584 H571 0.961 . S
C584 H572 0.959 . S
C584 C582 1.561 . S
C585 C582 1.526 . S
C585 C586 1.396 . S
C585 C590 1.390 . S
C586 C580 1.465 . S
C586 C585 1.396 . S
C586 C587 1.399 . S
C587 H573 0.929 . S
C587 C586 1.399 . S
C587 C588 1.385 . S
C588 H574 0.931 . S
C588 C587 1.385 . S
C588 C589 1.389 . S
C589 C588 1.389 . S
C589 C590 1.387 . S
C590 H575 0.930 . S
C590 C585 1.390 . S
C590 C589 1.387 . S
H591 C603 0.930 . S
H592 C605 0.930 . S
H593 C606 0.930 . S
H594 C610 0.959 . S
H595 C610 0.959 . S
H596 C610 0.961 . S
H597 C611 0.960 . S
H598 C611 0.961 . S
H599 C611 0.959 . S
H600 C614 0.929 . S
H601 C615 0.931 . S
H602 C617 0.930 . S
C603 H591 0.930 . S
C603 C604 1.399 . S
C603 C608 1.399 . S
C604 C603 1.399 . S
C604 C605 1.376 . S
C605 H592 0.930 . S
C605 C604 1.376 . S
C605 C606 1.388 . S
C606 H593 0.930 . S
C606 C605 1.388 . S
C606 C607 1.390 . S
C607 C606 1.390 . S
C607 C608 1.394 . S
C607 C613 1.465 . S
C608 C603 1.399 . S
C608 C607 1.394 . S
C608 C609 1.516 . S
C609 C608 1.516 . S
C609 C610 1.502 . S
C609 C611 1.561 . S
C609 C612 1.526 1_655 S
C610 H594 0.959 . S
C610 H595 0.959 . S
C610 H596 0.961 . S
C610 C609 1.502 . S
C611 H597 0.960 . S
C611 H598 0.961 . S
C611 H599 0.959 . S
C611 C609 1.561 . S
C612 C609 1.526 1_455 S
C612 C613 1.396 1_455 S
C612 C617 1.390 . S
C613 C607 1.465 . S
C613 C612 1.396 1_655 S
C613 C614 1.399 1_655 S
C614 H600 0.929 . S
C614 C613 1.399 1_455 S
C614 C615 1.385 . S
C615 H601 0.931 . S
C615 C614 1.385 . S
C615 C616 1.389 . S
C616 C615 1.389 . S
C616 C617 1.387 . S
C617 H602 0.930 . S
C617 C612 1.390 . S
C617 C616 1.387 . S
H618 C630 0.930 . S
H619 C632 0.930 . S
H620 C633 0.930 . S
H621 C637 0.959 . S
H622 C637 0.959 . S
H623 C637 0.961 . S
H624 C638 0.960 . S
H625 C638 0.961 . S
H626 C638 0.959 . S
H627 C641 0.929 . S
H628 C642 0.931 . S
H629 C644 0.930 . S
C630 H618 0.930 . S
C630 C631 1.399 . S
C630 C635 1.399 . S
C631 C630 1.399 . S
C631 C632 1.376 . S
C632 H619 0.930 . S
C632 C631 1.376 . S
C632 C633 1.388 . S
C633 H620 0.930 . S
C633 C632 1.388 . S
C633 C634 1.390 . S
C634 C633 1.390 . S
C634 C635 1.394 . S
C634 C640 1.465 . S
C635 C630 1.399 . S
C635 C634 1.394 . S
C635 C636 1.516 . S
C636 C635 1.516 . S
C636 C637 1.502 . S
C636 C638 1.561 . S
C636 C639 1.526 1_545 S
C637 H621 0.959 . S
C637 H622 0.959 . S
C637 H623 0.961 . S
C637 C636 1.502 . S
C638 H624 0.960 . S
C638 H625 0.961 . S
C638 H626 0.959 . S
C638 C636 1.561 . S
C639 C636 1.526 1_565 S
C639 C640 1.396 1_565 S
C639 C644 1.390 . S
C640 C634 1.465 . S
C640 C639 1.396 1_545 S
C640 C641 1.399 1_545 S
C641 H627 0.929 . S
C641 C640 1.399 1_565 S
C641 C642 1.385 . S
C642 H628 0.931 . S
C642 C641 1.385 . S
C642 C643 1.389 . S
C643 C642 1.389 . S
C643 C644 1.387 . S
C644 H629 0.930 . S
C644 C639 1.390 . S
C644 C643 1.387 . S
H645 C657 0.930 . S
H646 C659 0.930 . S
H647 C660 0.930 . S
H648 C664 0.959 . S
H649 C664 0.959 . S
H650 C664 0.961 . S
H651 C665 0.960 . S
H652 C665 0.961 . S
H653 C665 0.959 . S
H654 C668 0.929 . S
H655 C669 0.931 . S
H656 C671 0.930 . S
C657 H645 0.930 . S
C657 C658 1.399 . S
C657 C662 1.399 . S
C658 C657 1.399 . S
C658 C659 1.376 . S
C659 H646 0.930 . S
C659 C658 1.376 . S
C659 C660 1.388 . S
C660 H647 0.930 . S
C660 C659 1.388 . S
C660 C661 1.390 . S
C661 C660 1.390 . S
C661 C662 1.394 . S
C661 C667 1.465 . S
C662 C657 1.399 . S
C662 C661 1.394 . S
C662 C663 1.516 . S
C663 C662 1.516 . S
C663 C664 1.502 . S
C663 C665 1.561 . S
C663 C666 1.526 . S
C664 H648 0.959 . S
C664 H649 0.959 . S
C664 H650 0.961 . S
C664 C663 1.502 . S
C665 H651 0.960 . S
C665 H652 0.961 . S
C665 H653 0.959 . S
C665 C663 1.561 . S
C666 C663 1.526 . S
C666 C667 1.396 . S
C666 C671 1.390 . S
C667 C661 1.465 . S
C667 C666 1.396 . S
C667 C668 1.399 . S
C668 H654 0.929 . S
C668 C667 1.399 . S
C668 C669 1.385 . S
C669 H655 0.931 . S
C669 C668 1.385 . S
C669 C670 1.389 . S
C670 C669 1.389 . S
C670 C671 1.387 . S
C671 H656 0.930 . S
C671 C666 1.390 . S
C671 C670 1.387 . S
H672 C684 0.930 . S
H673 C686 0.930 . S
H674 C687 0.930 . S
H675 C691 0.959 . S
H676 C691 0.959 . S
H677 C691 0.961 . S
H678 C692 0.960 . S
H679 C692 0.961 . S
H680 C692 0.959 . S
H681 C695 0.929 . S
H682 C696 0.931 . S
H683 C698 0.930 . S
C684 H672 0.930 . S
C684 C685 1.399 . S
C684 C689 1.399 . S
C685 C684 1.399 . S
C685 C686 1.376 . S
C686 H673 0.930 . S
C686 C685 1.376 . S
C686 C687 1.388 . S
C687 H674 0.930 . S
C687 C686 1.388 . S
C687 C688 1.390 . S
C688 C687 1.390 . S
C688 C689 1.394 . S
C688 C694 1.465 . S
C689 C684 1.399 . S
C689 C688 1.394 . S
C689 C690 1.516 . S
C690 C689 1.516 . S
C690 C691 1.502 . S
C690 C692 1.561 . S
C690 C693 1.526 1_455 S
C691 H675 0.959 . S
C691 H676 0.959 . S
C691 H677 0.961 . S
C691 C690 1.502 . S
C692 H678 0.960 . S
C692 H679 0.961 . S
C692 H680 0.959 . S
C692 C690 1.561 . S
C693 C690 1.526 1_655 S
C693 C694 1.396 1_655 S
C693 C698 1.390 . S
C694 C688 1.465 . S
C694 C693 1.396 1_455 S
C694 C695 1.399 1_455 S
C695 H681 0.929 . S
C695 C694 1.399 1_655 S
C695 C696 1.385 . S
C696 H682 0.931 . S
C696 C695 1.385 . S
C696 C697 1.389 . S
C697 C696 1.389 . S
C697 C698 1.387 . S
C698 H683 0.930 . S
C698 C693 1.390 . S
C698 C697 1.387 . S
H699 C711 0.930 . S
H700 C713 0.930 . S
H701 C714 0.930 . S
H702 C718 0.959 . S
H703 C718 0.959 . S
H704 C718 0.961 . S
H705 C719 0.960 . S
H706 C719 0.961 . S
H707 C719 0.959 . S
H708 C722 0.929 . S
H709 C723 0.931 . S
H710 C725 0.930 . S
C711 H699 0.930 . S
C711 C712 1.399 . S
C711 C716 1.399 . S
C712 C711 1.399 . S
C712 C713 1.376 . S
C713 H700 0.930 . S
C713 C712 1.376 . S
C713 C714 1.388 . S
C714 H701 0.930 . S
C714 C713 1.388 . S
C714 C715 1.390 1_545 S
C715 C714 1.390 1_565 S
C715 C716 1.394 1_565 S
C715 C721 1.465 . S
C716 C711 1.399 . S
C716 C715 1.394 1_545 S
C716 C717 1.516 1_545 S
C717 C716 1.516 1_565 S
C717 C718 1.502 . S
C717 C719 1.561 . S
C717 C720 1.526 . S
C718 H702 0.959 . S
C718 H703 0.959 . S
C718 H704 0.961 . S
C718 C717 1.502 . S
C719 H705 0.960 . S
C719 H706 0.961 . S
C719 H707 0.959 . S
C719 C717 1.561 . S
C720 C717 1.526 . S
C720 C721 1.396 . S
C720 C725 1.390 . S
C721 C715 1.465 . S
C721 C720 1.396 . S
C721 C722 1.399 . S
C722 H708 0.929 . S
C722 C721 1.399 . S
C722 C723 1.385 . S
C723 H709 0.931 . S
C723 C722 1.385 . S
C723 C724 1.389 . S
C724 C723 1.389 . S
C724 C725 1.387 . S
C725 H710 0.930 . S
C725 C720 1.390 . S
C725 C724 1.387 . S
C253 C178 2.617 . S
C265 C18 2.168 . S
C280 C209 2.155 . S
C292 C49 2.615 . S
C307 C98 2.194 . S
C319 C138 2.612 . S
C334 C9 2.606 . S
C346 C169 2.240 . S
C361 C218 2.603 . S
C373 C58 2.228 . S
C388 C89 2.615 . S
C400 C129 2.206 . S
C415 C10 2.026 . S
C427 C86 1.984 . S
C442 C50 2.024 . S
C454 C6 1.997 . S
C469 C90 2.066 . S
C481 C46 1.969 . S
C496 C139 2.039 . S
C508 C175 2.000 . S
C523 C179 2.040 . S
C535 C215 1.999 . S
C550 C135 2.011 . S
C562 C219 2.025 . S
C577 C19 1.123 . S
C589 C95 1.102 . S
C604 C59 1.006 . S
C616 C15 1.117 . S
C631 C99 1.123 . S
C643 C55 1.101 . S
C658 C130 1.006 . S
C670 C166 1.132 . S
C685 C170 1.066 . S
C697 C206 1.099 . S
C712 C126 1.094 . S
C724 C210 1.109 . S
