# Generated by pormake.
# Topology une, (4)-cn, num edge types: 1
# Building blocks:
#     Node 0, Type 0, BuildingBlock: GALJAG_clean_sbu_0, # of connection points: 4
#     Node 1, Type 0, BuildingBlock: GALJAG_clean_sbu_0, # of connection points: 4
#     Node 2, Type 0, BuildingBlock: GALJAG_clean_sbu_0, # of connection points: 4
#     Node 3, Type 0, BuildingBlock: GALJAG_clean_sbu_0, # of connection points: 4
#     Node 4, Type 0, BuildingBlock: GALJAG_clean_sbu_0, # of connection points: 4
#     Node 5, Type 0, BuildingBlock: GALJAG_clean_sbu_0, # of connection points: 4
#     Node 6, Type 0, BuildingBlock: GALJAG_clean_sbu_0, # of connection points: 4
#     Node 7, Type 0, BuildingBlock: GALJAG_clean_sbu_0, # of connection points: 4
#     Node 8, Type 0, BuildingBlock: GALJAG_clean_sbu_0, # of connection points: 4
#     Node 9, Type 0, BuildingBlock: GALJAG_clean_sbu_0, # of connection points: 4
#     Node 10, Type 0, BuildingBlock: GALJAG_clean_sbu_0, # of connection points: 4
#     Node 11, Type 0, BuildingBlock: GALJAG_clean_sbu_0, # of connection points: 4
#     Node 12, Type 0, BuildingBlock: GALJAG_clean_sbu_0, # of connection points: 4
#     Node 13, Type 0, BuildingBlock: GALJAG_clean_sbu_0, # of connection points: 4
#     Node 14, Type 0, BuildingBlock: GALJAG_clean_sbu_0, # of connection points: 4
#     Node 15, Type 0, BuildingBlock: GALJAG_clean_sbu_0, # of connection points: 4
#     Node 16, Type 0, BuildingBlock: GALJAG_clean_sbu_0, # of connection points: 4
#     Node 17, Type 0, BuildingBlock: GALJAG_clean_sbu_0, # of connection points: 4
#     Edge 18, Type (0, 0), BuildingBlock: XIVTED_clean_linker_0, # of connection points: 2
#     Edge 19, Type (0, 0), BuildingBlock: XIVTED_clean_linker_0, # of connection points: 2
#     Edge 20, Type (0, 0), BuildingBlock: XIVTED_clean_linker_0, # of connection points: 2
#     Edge 21, Type (0, 0), BuildingBlock: XIVTED_clean_linker_0, # of connection points: 2
#     Edge 22, Type (0, 0), BuildingBlock: XIVTED_clean_linker_0, # of connection points: 2
#     Edge 23, Type (0, 0), BuildingBlock: XIVTED_clean_linker_0, # of connection points: 2
#     Edge 24, Type (0, 0), BuildingBlock: XIVTED_clean_linker_0, # of connection points: 2
#     Edge 25, Type (0, 0), BuildingBlock: XIVTED_clean_linker_0, # of connection points: 2
#     Edge 26, Type (0, 0), BuildingBlock: XIVTED_clean_linker_0, # of connection points: 2
#     Edge 27, Type (0, 0), BuildingBlock: XIVTED_clean_linker_0, # of connection points: 2
#     Edge 28, Type (0, 0), BuildingBlock: XIVTED_clean_linker_0, # of connection points: 2
#     Edge 29, Type (0, 0), BuildingBlock: XIVTED_clean_linker_0, # of connection points: 2
#     Edge 30, Type (0, 0), BuildingBlock: XIVTED_clean_linker_0, # of connection points: 2
#     Edge 31, Type (0, 0), BuildingBlock: XIVTED_clean_linker_0, # of connection points: 2
#     Edge 32, Type (0, 0), BuildingBlock: XIVTED_clean_linker_0, # of connection points: 2
#     Edge 33, Type (0, 0), BuildingBlock: XIVTED_clean_linker_0, # of connection points: 2
#     Edge 34, Type (0, 0), BuildingBlock: XIVTED_clean_linker_0, # of connection points: 2
#     Edge 35, Type (0, 0), BuildingBlock: XIVTED_clean_linker_0, # of connection points: 2
#     Edge 36, Type (0, 0), BuildingBlock: XIVTED_clean_linker_0, # of connection points: 2
#     Edge 37, Type (0, 0), BuildingBlock: XIVTED_clean_linker_0, # of connection points: 2
#     Edge 38, Type (0, 0), BuildingBlock: XIVTED_clean_linker_0, # of connection points: 2
#     Edge 39, Type (0, 0), BuildingBlock: XIVTED_clean_linker_0, # of connection points: 2
#     Edge 40, Type (0, 0), BuildingBlock: XIVTED_clean_linker_0, # of connection points: 2
#     Edge 41, Type (0, 0), BuildingBlock: XIVTED_clean_linker_0, # of connection points: 2
#     Edge 42, Type (0, 0), BuildingBlock: XIVTED_clean_linker_0, # of connection points: 2
#     Edge 43, Type (0, 0), BuildingBlock: XIVTED_clean_linker_0, # of connection points: 2
#     Edge 44, Type (0, 0), BuildingBlock: XIVTED_clean_linker_0, # of connection points: 2
#     Edge 45, Type (0, 0), BuildingBlock: XIVTED_clean_linker_0, # of connection points: 2
#     Edge 46, Type (0, 0), BuildingBlock: XIVTED_clean_linker_0, # of connection points: 2
#     Edge 47, Type (0, 0), BuildingBlock: XIVTED_clean_linker_0, # of connection points: 2
#     Edge 48, Type (0, 0), BuildingBlock: XIVTED_clean_linker_0, # of connection points: 2
#     Edge 49, Type (0, 0), BuildingBlock: XIVTED_clean_linker_0, # of connection points: 2
#     Edge 50, Type (0, 0), BuildingBlock: XIVTED_clean_linker_0, # of connection points: 2
#     Edge 51, Type (0, 0), BuildingBlock: XIVTED_clean_linker_0, # of connection points: 2
#     Edge 52, Type (0, 0), BuildingBlock: XIVTED_clean_linker_0, # of connection points: 2
#     Edge 53, Type (0, 0), BuildingBlock: XIVTED_clean_linker_0, # of connection points: 2
# Relax obj value: 0.162
# Max RMSD: 0.139
# Mean RMSD: 0.139
data_MOF--net-une--node1-GALJAG_clean_sbu_0--edge1-XIVTED_clean_linker_0
_symmetry_space_group_name_H-M    P1
_symmetry_Int_Tables_number       1
_symmetry_cell_setting            triclinic
loop_
_symmetry_equiv_pos_as_xyz
'x, y, z'
_cell_length_a     40.229506
_cell_length_b     40.348029
_cell_length_c     51.8471
_cell_angle_alpha  90.028265
_cell_angle_beta   90.03147
_cell_angle_gamma 119.99826
loop_
_atom_site_label
_atom_site_type_symbol
_atom_site_fract_x
_atom_site_fract_y
_atom_site_fract_z
_atom_type_partial_charge
In0 In 0.37879 0.05823 0.06052 0.0
O1 O 0.35326 0.05752 0.09998 0.0
O2 O 0.39802 0.11082 0.08659 0.0
C3 C 0.33069 0.98392 0.05039 0.0
C4 C 0.3539 0.09139 0.02659 0.0
C5 C 0.44523 0.05815 0.05279 0.0
O6 O 0.33406 -0.00231 0.07275 0.0
O7 O 0.35155 0.00754 0.03342 0.0
O8 O 0.43374 0.0756 0.03852 0.0
O9 O 0.42482 0.04319 0.07257 0.0
C10 C 0.37289 0.0931 0.10362 0.0
O11 O 0.38907 0.10357 0.03058 0.0
O12 O 0.33132 0.06243 0.03964 0.0
In13 In 0.92815 0.31276 0.06962 0.0
O14 O 0.92583 0.2945 0.11171 0.0
O15 O 0.873 0.27525 0.09232 0.0
C16 C 0.00288 0.3374 0.06164 0.0
C17 C 0.8986 0.25562 0.03483 0.0
C18 C 0.9288 0.37901 0.06053 0.0
O19 O 0.98632 0.32149 0.08245 0.0
O20 O 0.98177 0.34076 0.04511 0.0
O21 O 0.90929 0.34902 0.04754 0.0
O22 O 0.9452 0.3747 0.07998 0.0
C23 C 0.88984 0.27349 0.11233 0.0
O24 O 0.88668 0.279 0.03731 0.0
O25 O 0.92554 0.26112 0.04985 0.0
In26 In 0.67596 0.60621 0.05477 0.0
O27 O 0.71238 0.59027 0.02981 0.0
O28 O 0.72293 0.64736 0.0278 0.0
C29 C 0.60906 0.54099 0.04634 0.0
C30 C 0.71928 0.61732 0.09742 0.0
C31 C 0.6484 0.65367 0.04696 0.0
O32 O 0.63763 0.55304 0.03159 0.0
O33 O 0.61505 0.56031 0.06678 0.0
O34 O 0.65603 0.64687 0.06931 0.0
O35 O 0.65458 0.63652 0.02889 0.0
C36 C 0.73193 0.62323 0.02019 0.0
O37 O 0.715 0.64316 0.08709 0.0
O38 O 0.69947 0.58463 0.08731 0.0
In39 In 0.65543 0.93922 0.95453 0.0
O40 O 0.6906 0.92917 0.9248 0.0
O41 O 0.63256 0.91071 0.91502 0.0
C42 C 0.71955 0.00742 0.95837 0.0
C43 C 0.63929 0.87754 0.98294 0.0
C44 C 0.6056 0.95961 0.97331 0.0
O45 O 0.69202 0.00186 0.94383 0.0
O46 O 0.71485 0.97838 0.97069 0.0
O47 O 0.62426 0.94909 0.98725 0.0
O48 O 0.61094 0.9588 0.94931 0.0
C49 C 0.66392 0.91279 0.90857 0.0
O50 O 0.61821 0.87641 0.9645 0.0
O51 O 0.6684 0.90993 0.98715 0.0
In52 In 0.05577 0.69858 0.94945 0.0
O53 O 0.11898 0.7285 0.95962 0.0
O54 O 0.0827 0.74287 0.98117 0.0
C55 C 0.03965 0.6314 0.97101 0.0
C56 C 0.07992 0.73292 0.90319 0.0
C57 C 0.98477 0.68802 0.952 0.0
O58 O 0.04955 0.66154 0.98369 0.0
O59 O 0.03941 0.63515 0.94675 0.0
O60 O 0.01285 0.7152 0.96356 0.0
O61 O -0.00732 0.66644 0.93893 0.0
C62 C 0.11613 0.74835 0.97743 0.0
O63 O 0.06147 0.741 0.91915 0.0
O64 O 0.08539 0.70584 0.91001 0.0
In65 In 0.27524 0.33408 0.95387 0.0
O66 O 0.22914 0.30088 0.9242 0.0
O67 O 0.2692 0.3589 0.91532 0.0
C68 C 0.28005 0.27027 0.95552 0.0
C69 C 0.23063 0.34852 0.98472 0.0
C70 C 0.34573 0.38323 0.9725 0.0
O71 O 0.30232 0.29879 0.94192 0.0
O72 O 0.25498 0.2738 0.96793 0.0
O73 O 0.31679 0.3641 0.98654 0.0
O74 O 0.33919 0.37866 0.94849 0.0
C75 C 0.23951 0.32819 0.90859 0.0
O76 O 0.24999 0.37067 0.96657 0.0
O77 O 0.2339 0.31914 0.98729 0.0
In78 In 0.00223 0.37547 0.38506 0.0
O79 O 0.9731 0.38027 0.4211 0.0
O80 O 0.03332 0.41689 0.41891 0.0
C81 C 0.94056 0.30519 0.38535 0.0
C82 C 0.0007 0.42723 0.35343 0.0
C83 C 0.05266 0.35808 0.36324 0.0
O84 O 0.97177 0.31239 0.39596 0.0
O85 O 0.94061 0.33347 0.37491 0.0
O86 O 0.03246 0.36808 0.35054 0.0
O87 O 0.04872 0.35813 0.38745 0.0
C88 C 0.00273 0.40702 0.43131 0.0
O89 O 0.02963 0.43487 0.36715 0.0
O90 O 0.97289 0.39354 0.35562 0.0
In91 In 0.58805 0.61678 0.38407 0.0
O92 O 0.52516 0.58537 0.37276 0.0
O93 O 0.56273 0.57042 0.35352 0.0
C94 C 0.60232 0.68773 0.37151 0.0
C95 C 0.56514 0.58106 0.43006 0.0
C96 C 0.65757 0.62905 0.37057 0.0
O97 O 0.57826 0.65797 0.35984 0.0
O98 O 0.61685 0.6816 0.39124 0.0
O99 O 0.64968 0.6329 0.39354 0.0
O100 O 0.63005 0.61756 0.35485 0.0
C101 C 0.52904 0.56476 0.35604 0.0
O102 O 0.58139 0.5718 0.41307 0.0
O103 O 0.56162 0.60965 0.42435 0.0
In104 In 0.36599 0.97668 0.38269 0.0
O105 O 0.39533 0.94337 0.37097 0.0
O106 O 0.4075 0.993 0.34923 0.0
C107 C 0.29615 0.92398 0.36483 0.0
C108 C 0.40237 0.98569 0.42819 0.0
C109 C 0.35852 0.03889 0.37927 0.0
O110 O 0.32447 0.94401 0.35049 0.0
O111 O 0.30307 0.92954 0.38876 0.0
O112 O 0.33649 0.0105 0.39307 0.0
O113 O 0.38447 0.03596 0.36761 0.0
C114 C 0.41366 0.96554 0.35258 0.0
O115 O 0.4106 0.01259 0.41258 0.0
O116 O 0.37422 0.9538 0.42147 0.0
In117 In 0.27036 0.2555 0.26704 0.0
O118 O 0.29739 0.25746 0.22791 0.0
O119 O 0.25088 0.20418 0.23971 0.0
C120 C 0.31901 0.32907 0.27875 0.0
C121 C 0.29289 0.22023 0.30098 0.0
C122 C 0.20468 0.25709 0.27475 0.0
O123 O 0.31633 0.31623 0.25616 0.0
O124 O 0.29729 0.30488 0.29517 0.0
O125 O 0.21448 0.23728 0.28802 0.0
O126 O 0.22629 0.27362 0.25571 0.0
C127 C 0.27701 0.2222 0.22334 0.0
O128 O 0.25805 0.20842 0.29602 0.0
O129 O 0.31636 0.24979 0.28881 0.0
In130 In 0.72443 0.00617 0.27297 0.0
O131 O 0.72563 0.02621 0.23141 0.0
O132 O 0.77891 0.0449 0.24997 0.0
C133 C 0.65096 0.9853 0.28264 0.0
C134 C 0.75775 0.05902 0.31032 0.0
C135 C 0.71954 0.93729 0.27843 0.0
O136 O 0.66805 0.00351 0.26255 0.0
O137 O 0.67103 0.97804 0.29778 0.0
O138 O 0.74228 0.96638 0.29127 0.0
O139 O 0.70209 0.94383 0.26069 0.0
C140 C 0.76158 0.04731 0.23046 0.0
O141 O 0.76861 0.0355 0.30476 0.0
O142 O 0.73006 0.05589 0.29704 0.0
In143 In 0.96791 0.69978 0.27008 0.0
O144 O 0.92757 0.72213 0.27954 0.0
O145 O 0.92853 0.68121 0.30497 0.0
C146 C 0.03619 0.75779 0.28644 0.0
C147 C 0.93384 0.689 0.22335 0.0
C148 C 0.97654 0.63872 0.27707 0.0
O149 O 0.00754 0.73978 0.30091 0.0
O150 O 0.03019 0.74776 0.26299 0.0
O151 O 0.00198 0.66872 0.26613 0.0
O152 O 0.94697 0.63961 0.28408 0.0
C153 C 0.91398 0.70167 0.29942 0.0
O154 O 0.93445 0.66268 0.23597 0.0
O155 O 0.95317 0.72187 0.23331 0.0
In156 In 0.69697 0.72964 0.7203 0.0
O157 O 0.71872 0.78611 0.69883 0.0
O158 O 0.66506 0.73875 0.68758 0.0
C159 C 0.75175 0.71641 0.70141 0.0
C160 C 0.69576 0.76548 0.76425 0.0
C161 C 0.63996 0.65707 0.72559 0.0
O162 O 0.72694 0.71809 0.6875 0.0
O163 O 0.74988 0.7226 0.72516 0.0
O164 O 0.67364 0.66772 0.73325 0.0
O165 O 0.63525 0.683 0.71575 0.0
C166 C 0.68978 0.77346 0.68422 0.0
O167 O 0.66639 0.73844 0.75399 0.0
O168 O 0.72687 0.77376 0.75306 0.0
In169 In 0.25404 0.96729 0.72074 0.0
O170 O 0.24333 0.91782 0.74686 0.0
O171 O 0.21509 0.94861 0.75664 0.0
C172 C 0.32953 -0.00587 0.71494 0.0
C173 C 0.21467 0.91909 0.68211 0.0
C174 C 0.258 0.0356 0.71563 0.0
O175 O 0.31289 0.98105 0.73624 0.0
O176 O 0.30807 0.99305 0.69686 0.0
O177 O 0.23773 0.00734 0.70129 0.0
O178 O 0.27361 0.02843 0.73432 0.0
C179 C 0.2204 0.92097 0.76178 0.0
O180 O 0.20088 0.93536 0.6956 0.0
O181 O 0.24822 0.92706 0.68819 0.0
In182 In 0.02583 0.30314 0.72023 0.0
O183 O 0.06827 0.334 0.75246 0.0
O184 O 0.03746 0.27341 0.75428 0.0
C185 C 0.01428 0.36297 0.72412 0.0
C186 C 0.07403 0.30441 0.6839 0.0
C187 C 0.95643 0.24967 0.70251 0.0
O188 O 0.99019 0.33025 0.73256 0.0
O189 O 0.04406 0.36536 0.71428 0.0
O190 O 0.98328 0.2727 0.68809 0.0
O191 O 0.96473 0.25275 0.72628 0.0
C192 C 0.06305 0.30445 0.7641 0.0
O193 O 0.0582 0.27754 0.70006 0.0
O194 O 0.0651 0.33012 0.68595 0.0
In195 In 0.97328 0.60556 0.61015 0.0
O196 O 0.94764 0.54918 0.6321 0.0
O197 O 0.00222 0.5945 0.64396 0.0
C198 C 0.92007 0.62221 0.6275 0.0
C199 C 0.97552 0.56877 0.56702 0.0
C200 C 0.0323 0.677 0.60521 0.0
O201 O 0.94429 0.62018 0.64182 0.0
O202 O 0.92174 0.6148 0.60395 0.0
O203 O -0.0005 0.66715 0.59607 0.0
O204 O 0.03517 0.65074 0.61635 0.0
C205 C 0.97562 0.56053 0.64745 0.0
O206 O 0.00457 0.59661 0.57696 0.0
O207 O 0.94423 0.56016 0.57808 0.0
In208 In 0.39262 0.3662 0.62118 0.0
O209 O 0.40333 0.40915 0.58985 0.0
O210 O 0.43252 0.37783 0.58604 0.0
C211 C 0.32024 0.35232 0.61789 0.0
C212 C 0.44068 0.41485 0.65671 0.0
C213 C 0.37682 0.29775 0.64025 0.0
O214 O 0.33035 0.32999 0.60828 0.0
O215 O 0.34666 0.38167 0.6288 0.0
O216 O 0.3851 0.32646 0.65416 0.0
O217 O 0.37823 0.3038 0.6162 0.0
C218 C 0.42683 0.40377 0.57715 0.0
O219 O 0.45111 0.39832 0.6406 0.0
O220 O 0.40606 0.40657 0.65489 0.0
In221 In 0.62141 0.02531 0.61656 0.0
O222 O 0.5921 0.05705 0.63151 0.0
O223 O 0.58151 0.00636 0.6512 0.0
C224 C 0.69089 0.07893 0.63388 0.0
C225 C 0.58226 0.01705 0.5724 0.0
C226 C 0.63342 0.96571 0.61564 0.0
O227 O 0.66442 0.0555 0.64838 0.0
O228 O 0.68218 0.07618 0.61019 0.0
O229 O 0.65486 -0.00358 0.6037 0.0
O230 O 0.60575 0.96499 0.62762 0.0
C231 C 0.57484 0.03372 0.64958 0.0
O232 O 0.57472 0.98999 0.58771 0.0
O233 O 0.61102 0.04876 0.57872 0.0
H234 H 0.47108 0.01466 0.07688 0.0
H235 H 0.57408 -0.00174 0.94949 0.0
H236 H 0.48589 0.08056 0.00795 0.0
H237 H 0.58364 0.95481 0.02348 0.0
H238 H 0.53867 0.02597 0.97014 0.0
H239 H 0.51132 0.99135 0.05777 0.0
C240 C 0.48339 0.02479 0.05795 0.0
C241 C 0.47508 0.04954 0.04399 0.0
C242 C 0.54854 0.01036 0.98184 0.0
C243 C 0.52022 0.02226 0.02174 0.0
C244 C 0.56844 -0.00571 0.97002 0.0
C245 C 0.58171 0.97416 0.98478 0.0
C246 C 0.54159 0.00593 0.00856 0.0
C247 C 0.57391 0.97013 0.01136 0.0
C248 C 0.50612 0.01128 0.04697 0.0
C249 C 0.49153 0.06149 0.01943 0.0
N250 N 0.5543 0.98577 0.02238 0.0
N251 N 0.51292 0.04742 0.00898 0.0
H252 H 0.90298 0.39452 0.01607 0.0
H253 H 0.05005 0.61964 0.02129 0.0
H254 H 0.9791 0.44988 0.08037 0.0
H255 H -0.00442 0.559 0.95121 0.0
H256 H 0.01994 0.55896 0.04464 0.0
H257 H 0.9302 0.45619 0.99416 0.0
C258 C 0.92489 0.41979 0.02584 0.0
C259 C 0.93888 0.41701 0.05009 0.0
C260 C 0.01474 0.55885 0.02414 0.0
C261 C 0.97063 0.48764 0.02485 0.0
C262 C 0.03204 0.59344 0.01075 0.0
C263 C 0.02541 0.5943 0.98423 0.0
C264 C 0.99018 0.52481 0.01101 0.0
C265 C 0.00171 0.55956 0.97159 0.0
C266 C 0.9407 0.45493 0.01316 0.0
C267 C 0.96741 0.45071 0.06173 0.0
N268 N 0.9847 0.52621 0.98515 0.0
N269 N 0.98253 0.48462 0.04892 0.0
H270 H 0.36363 0.40424 0.02274 0.0
H271 H 0.58995 0.50071 0.00134 0.0
H272 H 0.41562 0.4147 0.94821 0.0
H273 H 0.54009 0.51536 0.07105 0.0
H274 H 0.52567 0.46134 0.98351 0.0
H275 H 0.42747 0.43887 0.04213 0.0
C276 C 0.38854 0.41405 0.01042 0.0
C277 C 0.38436 0.40673 0.98379 0.0
C278 C 0.52874 0.47288 0.00278 0.0
C279 C 0.45752 0.44587 0.00597 0.0
C280 C 0.56543 0.49509 0.0131 0.0
C281 C 0.57039 0.51147 0.03771 0.0
C282 C 0.49668 0.4668 0.0172 0.0
C283 C 0.53756 0.50327 0.05201 0.0
C284 C 0.42495 0.43373 0.02153 0.0
C285 C 0.41758 0.41997 0.96878 0.0
N286 N 0.50206 0.48166 0.04148 0.0
N287 N 0.4528 0.43877 0.9801 0.0
H288 H 0.08445 0.31793 0.38421 0.0
H289 H 0.18307 0.30595 0.25357 0.0
H290 H 0.07311 0.36565 0.31253 0.0
H291 H 0.16223 0.23145 0.31868 0.0
H292 H 0.14527 0.33056 0.27481 0.0
H293 H 0.11786 0.29012 0.3611 0.0
C294 C 0.08937 0.32288 0.36368 0.0
C295 C 0.07608 0.34415 0.35027 0.0
C296 C 0.14861 0.30847 0.28426 0.0
C297 C 0.11392 0.31224 0.32367 0.0
C298 C 0.16992 0.29422 0.27206 0.0
C299 C 0.17586 0.26665 0.28437 0.0
C300 C 0.13365 0.29541 0.30907 0.0
C301 C 0.15843 0.25272 0.30846 0.0
C302 C 0.10809 0.30673 0.35044 0.0
C303 C 0.0829 0.34941 0.3236 0.0
N304 N 0.13856 0.26757 0.32014 0.0
N305 N 0.10142 0.33366 0.31118 0.0
H306 H 0.66487 0.75528 0.38661 0.0
H307 H 0.65921 0.86933 0.26164 0.0
H308 H 0.57589 0.70664 0.32877 0.0
H309 H 0.74986 0.91702 0.31838 0.0
H310 H 0.62984 0.80842 0.28484 0.0
H311 H 0.69623 0.81508 0.36208 0.0
C312 C 0.65156 0.75743 0.36901 0.0
C313 C 0.61768 0.72599 0.35975 0.0
C314 C 0.65642 0.83207 0.29205 0.0
C315 C 0.65384 0.79393 0.33124 0.0
C316 C 0.67345 0.86672 0.27862 0.0
C317 C 0.70697 0.89834 0.28813 0.0
C318 C 0.67297 0.82909 0.3152 0.0
C319 C 0.72396 0.8934 0.31038 0.0
C320 C 0.6697 0.79141 0.35484 0.0
C321 C 0.60194 0.73021 0.33665 0.0
N322 N 0.70657 0.8596 0.3233 0.0
N323 N 0.62023 0.76344 0.32314 0.0
H324 H 0.10492 0.79667 0.26075 0.0
H325 H 0.22751 0.88352 0.39046 0.0
H326 H 0.05447 0.78078 0.33639 0.0
H327 H 0.27719 0.90643 0.31426 0.0
H328 H 0.16382 0.8445 0.37111 0.0
H329 H 0.16845 0.83708 0.27993 0.0
C330 C 0.10718 0.80201 0.28133 0.0
C331 C 0.0744 0.78536 0.29698 0.0
C332 C 0.18869 0.85802 0.35863 0.0
C333 C 0.14689 0.83104 0.31914 0.0
C334 C 0.22503 0.88011 0.3697 0.0
C335 C 0.25765 0.89818 0.35396 0.0
C336 C 0.18501 0.85395 0.33165 0.0
C337 C 0.2528 0.893 0.32714 0.0
C338 C 0.14343 0.82491 0.29231 0.0
C339 C 0.07899 0.79304 0.32358 0.0
N340 N 0.21722 0.87142 0.31685 0.0
N341 N 0.11452 0.81514 0.33382 0.0
H342 H 0.86801 0.63469 0.60106 0.0
H343 H 0.80501 0.70534 0.72716 0.0
H344 H 0.91291 0.63882 0.67734 0.0
H345 H 0.7591 0.70092 0.65119 0.0
H346 H 0.84573 0.68203 0.709 0.0
H347 H 0.82778 0.65899 0.61886 0.0
C348 C 0.86922 0.64049 0.62154 0.0
C349 C 0.89378 0.6347 0.63773 0.0
C350 C 0.82684 0.68629 0.69628 0.0
C351 C 0.84823 0.66275 0.65821 0.0
C352 C 0.80372 0.69974 0.70665 0.0
C353 C 0.77867 0.70507 0.69068 0.0
C354 C 0.82483 0.67806 0.66975 0.0
C355 C 0.77803 0.69722 0.66422 0.0
C356 C 0.8464 0.65448 0.63169 0.0
C357 C 0.89438 0.64284 0.66413 0.0
N358 N 0.80066 0.68402 0.65461 0.0
N359 N 0.87203 0.65648 0.67351 0.0
H360 H 0.383 0.28056 0.69017 0.0
H361 H 0.23487 0.05749 0.67271 0.0
H362 H 0.33532 0.22798 0.61669 0.0
H363 H 0.30868 0.10323 0.73925 0.0
H364 H 0.26431 0.12176 0.65446 0.0
H365 H 0.35102 0.21728 0.71031 0.0
C366 C 0.36613 0.25561 0.67822 0.0
C367 C 0.3619 0.25943 0.6517 0.0
C368 C 0.27383 0.1178 0.67315 0.0
C369 C 0.32454 0.18715 0.67473 0.0
C370 C 0.25674 0.08118 0.68375 0.0
C371 C 0.26947 0.07497 0.70751 0.0
C372 C 0.30371 0.14853 0.68647 0.0
C373 C 0.298 0.10675 0.72089 0.0
C374 C 0.34777 0.21956 0.68976 0.0
C375 C 0.33958 0.22624 0.63715 0.0
N376 N 0.31436 0.1422 0.7101 0.0
N377 N 0.32145 0.19147 0.64891 0.0
H378 H 0.71396 0.08927 0.68405 0.0
H379 H 0.9336 0.2394 0.65225 0.0
H380 H 0.75589 0.12865 0.60709 0.0
H381 H 0.89126 0.20028 0.72917 0.0
H382 H 0.86898 0.19872 0.63533 0.0
H383 H 0.77855 0.13009 0.70086 0.0
C384 C 0.73677 0.10671 0.67067 0.0
C385 C 0.72955 0.10558 0.6441 0.0
C386 C 0.87377 0.1989 0.6559 0.0
C387 C 0.80379 0.15226 0.66328 0.0
C388 C 0.9107 0.22205 0.66559 0.0
C389 C 0.9178 0.22319 0.69218 0.0
C390 C 0.84358 0.1767 0.67291 0.0
C391 C 0.88705 0.20018 0.70854 0.0
C392 C 0.7737 0.12995 0.68031 0.0
C393 C 0.7602 0.12873 0.62771 0.0
N394 N 0.85124 0.17793 0.69864 0.0
N395 N 0.79604 0.15108 0.63756 0.0
H396 H 0.40469 0.17026 0.11165 0.0
H397 H 0.24426 0.14526 0.21411 0.0
H398 H 0.31586 0.06083 0.13969 0.0
H399 H 0.33506 0.25495 0.18798 0.0
H400 H 0.26887 0.11379 0.1859 0.0
H401 H 0.38005 0.20192 0.13969 0.0
C402 C 0.38039 0.15291 0.12401 0.0
C403 C 0.36238 0.11283 0.12336 0.0
C404 C 0.28326 0.14475 0.18618 0.0
C405 C 0.33347 0.14884 0.15513 0.0
C406 C 0.26899 0.16273 0.20212 0.0
C407 C 0.28757 0.2028 0.20338 0.0
C408 C 0.31643 0.16698 0.17139 0.0
C409 C 0.31976 0.22397 0.18757 0.0
C410 C 0.36611 0.17099 0.13987 0.0
C411 C 0.33074 0.0918 0.13962 0.0
N412 N 0.33325 0.20583 0.17235 0.0
N413 N 0.31719 0.11002 0.15471 0.0
H414 H 0.92124 0.25893 0.15463 0.0
H415 H 0.72933 0.06282 0.18903 0.0
H416 H 0.81379 0.21876 0.11453 0.0
H417 H 0.83753 0.10205 0.2279 0.0
H418 H 0.75979 0.11934 0.16125 0.0
H419 H 0.89047 0.20271 0.18261 0.0
C420 C 0.89099 0.23863 0.152 0.0
C421 C 0.87005 0.24361 0.13222 0.0
C422 C 0.77696 0.11546 0.17572 0.0
C423 C 0.83479 0.17865 0.16385 0.0
C424 C 0.75965 0.083 0.19144 0.0
C425 C 0.78093 0.07764 0.21079 0.0
C426 C 0.81583 0.1429 0.17942 0.0
C427 C 0.82005 0.10493 0.21318 0.0
C428 C 0.87351 0.20632 0.16783 0.0
C429 C 0.83101 0.21616 0.12959 0.0
N430 N 0.83617 0.13645 0.1978 0.0
N431 N 0.81472 0.18478 0.14509 0.0
H432 H 0.91582 0.73782 0.19825 0.0
H433 H 0.74142 0.56928 0.11918 0.0
H434 H 0.88918 0.62013 0.19977 0.0
H435 H 0.76602 0.68634 0.12011 0.0
H436 H 0.79609 0.58733 0.14811 0.0
H437 H 0.86316 0.72009 0.16764 0.0
C438 C 0.89935 0.7084 0.19179 0.0
C439 C 0.90691 0.68043 0.20158 0.0
C440 C 0.7894 0.60903 0.14207 0.0
C441 C 0.84608 0.65971 0.16698 0.0
C442 C 0.75802 0.59865 0.12572 0.0
C443 C 0.74907 0.62629 0.11728 0.0
C444 C 0.81206 0.64736 0.14998 0.0
C445 C 0.7718 0.66403 0.12617 0.0
C446 C 0.86904 0.69819 0.17449 0.0
C447 C 0.88437 0.64264 0.19271 0.0
N448 N 0.80225 0.67346 0.14194 0.0
N449 N 0.85487 0.63336 0.17607 0.0
H450 H 0.60832 0.86305 0.87518 0.0
H451 H 0.7538 0.8265 0.79028 0.0
H452 H 0.73031 0.92015 0.8893 0.0
H453 H 0.63054 0.75517 0.78732 0.0
H454 H 0.74655 0.86482 0.82428 0.0
H455 H 0.61665 0.82778 0.83966 0.0
C456 C 0.63689 0.8685 0.8706 0.0
C457 C 0.66863 0.89445 0.88524 0.0
C458 C 0.72113 0.84068 0.81621 0.0
C459 C 0.67841 0.85403 0.84484 0.0
C460 C 0.72529 0.81875 0.79691 0.0
C461 C 0.69277 0.78753 0.78604 0.0
C462 C 0.68418 0.83146 0.8245 0.0
C463 C 0.65645 0.7789 0.79521 0.0
C464 C 0.64163 0.84818 0.85045 0.0
C465 C 0.70501 0.90027 0.87855 0.0
N466 N 0.65315 0.80079 0.8138 0.0
N467 N 0.7089 0.88016 0.8589 0.0
H468 H 0.06508 0.78672 0.88382 0.0
H469 H 0.2291 0.86065 0.77608 0.0
H470 H 0.13373 0.73377 0.86988 0.0
H471 H 0.16448 0.91663 0.79421 0.0
H472 H 0.19283 0.81223 0.80876 0.0
H473 H 0.09835 0.83162 0.84893 0.0
C474 C 0.08695 0.78428 0.87321 0.0
C475 C 0.09676 0.75652 0.87985 0.0
C476 C 0.1866 0.83511 0.80564 0.0
C477 C 0.13545 0.80838 0.83992 0.0
C478 C 0.20737 0.86286 0.78704 0.0
C479 C 0.19988 0.89283 0.78249 0.0
C480 C 0.15798 0.8372 0.8198 0.0
C481 C 0.17132 0.89415 0.79717 0.0
C482 C 0.10608 0.8101 0.85333 0.0
C483 C 0.12524 0.75468 0.86537 0.0
N484 N 0.15139 0.86671 0.81514 0.0
N485 N 0.1438 0.78048 0.84616 0.0
H486 H 0.24781 0.38483 0.8754 0.0
H487 H 0.06038 0.24559 0.79246 0.0
H488 H 0.17778 0.2637 0.88979 0.0
H489 H 0.12234 0.36861 0.78518 0.0
H490 H 0.10487 0.25091 0.82674 0.0
H491 H 0.20468 0.3787 0.84 0.0
C492 C 0.22361 0.35691 0.87093 0.0
C493 C 0.21631 0.32477 0.88557 0.0
C494 C 0.10862 0.27673 0.81768 0.0
C495 C 0.16667 0.31752 0.84533 0.0
C496 C 0.08315 0.27368 0.7982 0.0
C497 C 0.08759 0.30668 0.78603 0.0
C498 C 0.13883 0.31302 0.82489 0.0
C499 C 0.11775 0.34239 0.7941 0.0
C500 C 0.19886 0.35343 0.85084 0.0
C501 C 0.18443 0.28927 0.87903 0.0
N502 N 0.14224 0.34459 0.81293 0.0
N503 N 0.16075 0.28661 0.85946 0.0
H504 H 0.94001 0.38813 0.46108 0.0
H505 H 0.03996 0.58497 0.54005 0.0
H506 H 0.05908 0.47452 0.45222 0.0
H507 H 0.91989 0.50038 0.54668 0.0
H508 H 0.04779 0.5445 0.50851 0.0
H509 H 0.93298 0.42741 0.49399 0.0
C510 C 0.96486 0.4152 0.46631 0.0
C511 C 0.00021 0.42812 0.45385 0.0
C512 C 0.01968 0.53479 0.51674 0.0
C513 C -0.00784 0.47359 0.49132 0.0
C514 C 0.01511 0.55798 0.53468 0.0
C515 C 0.97915 0.54605 0.54597 0.0
C516 C 0.98809 0.49925 0.51004 0.0
C517 C 0.94806 0.51076 0.53835 0.0
C518 C 0.96073 0.43773 0.48501 0.0
C519 C 0.03136 0.46342 0.46139 0.0
N520 N 0.95327 0.48853 0.52092 0.0
N521 N 0.02654 0.48506 0.47954 0.0
H522 H 0.52032 0.58853 0.46671 0.0
H523 H 0.4819 0.40203 0.5464 0.0
H524 H 0.57103 0.51981 0.44638 0.0
H525 H 0.4197 0.46238 0.5577 0.0
H526 H 0.5182 0.44676 0.51143 0.0
H527 H 0.48752 0.54531 0.50276 0.0
C528 C 0.52487 0.56458 0.47001 0.0
C529 C 0.54834 0.5577 0.4535 0.0
C530 C 0.49651 0.45006 0.52157 0.0
C531 C 0.51061 0.50782 0.49456 0.0
C532 C 0.47574 0.42448 0.54143 0.0
C533 C 0.44769 0.42842 0.55492 0.0
C534 C 0.48928 0.47984 0.51535 0.0
C535 C 0.44099 0.45817 0.5478 0.0
C536 C 0.50597 0.53975 0.49049 0.0
C537 C 0.5531 0.52612 0.45862 0.0
N538 N 0.46166 0.48271 0.52862 0.0
N539 N 0.53431 0.50227 0.47864 0.0
H540 H 0.52029 0.95093 0.55582 0.0
H541 H 0.46288 0.05221 0.44576 0.0
H542 H 0.58591 0.07172 0.53904 0.0
H543 H 0.39797 0.93123 0.46203 0.0
H544 H 0.50719 0.06013 0.4805 0.0
H545 H 0.47524 0.94326 0.52168 0.0
C546 C 0.5254 0.97585 0.54479 0.0
C547 C 0.55698 0.01206 0.55026 0.0
C548 C 0.48319 0.03187 0.4766 0.0
C549 C 0.50512 0.00348 0.51122 0.0
C550 C 0.45773 0.02731 0.45682 0.0
C551 C 0.42666 0.99095 0.45098 0.0
C552 C 0.47768 -0.00018 0.49069 0.0
C553 C 0.42148 0.95977 0.46593 0.0
C554 C 0.49953 0.97144 0.52535 0.0
C555 C 0.56205 0.04329 0.5354 0.0
N556 N 0.44684 0.96489 0.48503 0.0
N557 N 0.53631 0.03829 0.5166 0.0
H558 H 0.26749 0.93362 0.07797 0.0
H559 H 0.1917 0.7749 0.96692 0.0
H560 H 0.3297 0.94415 0.00782 0.0
H561 H 0.11673 0.78754 0.02054 0.0
H562 H 0.24701 0.82771 0.98839 0.0
H563 H 0.21649 0.87056 0.0635 0.0
C564 C 0.27067 0.92234 0.05976 0.0
C565 C 0.30248 0.94411 0.04387 0.0
C566 C 0.21845 0.81861 0.99559 0.0
C567 C 0.24477 0.87248 0.0274 0.0
C568 C 0.18694 0.78849 0.98341 0.0
C569 C 0.14967 0.77728 0.99181 0.0
C570 C 0.21258 0.83733 0.01641 0.0
C571 C 0.14504 0.79569 0.01331 0.0
C572 C 0.24158 0.88655 0.05149 0.0
C573 C 0.30534 0.92835 0.02046 0.0
N574 N 0.17619 0.82504 0.02483 0.0
N575 N 0.27671 0.89351 0.01285 0.0
H576 H 0.04838 0.31554 0.08705 0.0
H577 H 0.21059 0.40337 0.97836 0.0
H578 H 0.0477 0.38332 0.0229 0.0
H579 H 0.19103 0.30887 0.02739 0.0
H580 H 0.16109 0.40904 0.00201 0.0
H581 H 0.11095 0.32594 0.07269 0.0
C582 C 0.06175 0.33317 0.07023 0.0
C583 C 0.04276 0.34813 0.05586 0.0
C584 C 0.16798 0.38737 0.00777 0.0
C585 C 0.11385 0.36009 0.03946 0.0
C586 C 0.19621 0.38415 0.99432 0.0
C587 C 0.20436 0.35521 0.00071 0.0
C588 C 0.14799 0.36156 0.02776 0.0
C589 C 0.18516 0.33123 0.02165 0.0
C590 C 0.09728 0.33895 0.06202 0.0
C591 C 0.06123 0.37083 0.03428 0.0
N592 N 0.15755 0.33472 0.03433 0.0
N593 N 0.09566 0.37587 0.02659 0.0
H594 H 0.61067 0.65764 0.00476 0.0
H595 H 0.67473 0.87341 0.02678 0.0
H596 H 0.65957 0.71405 0.07705 0.0
H597 H 0.58768 0.8033 0.97127 0.0
H598 H 0.668 0.81541 0.04673 0.0
H599 H 0.59972 0.70998 0.99302 0.0
C600 C 0.61858 0.68087 0.0183 0.0
C601 C 0.63636 0.68189 0.04175 0.0
C602 C 0.64991 0.81272 0.03047 0.0
C603 C 0.62461 0.74208 0.02833 0.0
C604 C 0.65386 0.84577 0.01902 0.0
C605 C 0.63208 0.84304 0.99717 0.0
C606 C 0.62451 0.77688 0.01965 0.0
C607 C 0.60524 0.80662 0.98798 0.0
C608 C 0.61223 0.71065 0.01166 0.0
C609 C 0.64585 0.71239 0.05874 0.0
N610 N 0.60265 0.77493 0.99901 0.0
N611 N 0.64054 0.74178 0.05147 0.0
H612 H 0.73108 0.07572 0.9399 0.0
H613 H 0.91261 0.19624 0.03093 0.0
H614 H 0.78385 0.02603 0.98654 0.0
H615 H 0.84289 0.23985 0.99903 0.0
H616 H 0.87568 0.13744 0.00599 0.0
H617 H 0.78206 0.13948 0.95261 0.0
C618 C 0.75375 0.07827 0.95249 0.0
C619 C 0.753 0.04567 0.96257 0.0
C620 C 0.86881 0.16009 0.00421 0.0
C621 C 0.8111 0.11824 0.97719 0.0
C622 C 0.88988 0.19364 0.01839 0.0
C623 C 0.88028 0.22256 0.01732 0.0
C624 C 0.83806 0.15561 0.98886 0.0
C625 C 0.85082 0.21794 0.00064 0.0
C626 C 0.78274 0.11461 0.95977 0.0
C627 C 0.78314 0.0505 0.97864 0.0
N628 N 0.83045 0.18485 0.98724 0.0
N629 N 0.8108 0.08617 0.9857 0.0
H630 H 0.78572 0.69468 0.00446 0.0
H631 H 0.91839 0.62309 0.93914 0.0
H632 H 0.75343 0.57566 0.99765 0.0
H633 H 0.96151 0.73555 0.97205 0.0
H634 H 0.85297 0.60809 0.94959 0.0
H635 H 0.84532 0.71231 0.98142 0.0
C636 C 0.79092 0.67224 0.99776 0.0
C637 C 0.76501 0.6337 0.00326 0.0
C638 C 0.87677 0.6362 0.95419 0.0
C639 C 0.8328 0.65364 0.97697 0.0
C640 C 0.91401 0.64481 0.9482 0.0
C641 C 0.94527 0.68041 0.9551 0.0
C642 C 0.87092 0.66356 0.9669 0.0
C643 C 0.93813 0.70759 0.96672 0.0
C644 C 0.82492 0.68233 0.9847 0.0
C645 C 0.77297 0.60574 0.99405 0.0
N646 N 0.90163 0.69851 0.97243 0.0
N647 N 0.8064 0.61629 0.9815 0.0
H648 H 0.23267 0.20321 0.98017 0.0
H649 H 0.39626 0.15048 0.99367 0.0
H650 H 0.3399 0.26218 0.93879 0.0
H651 H 0.2806 0.07742 0.02088 0.0
H652 H 0.37436 0.18819 0.96979 0.0
H653 H 0.24714 0.15306 0.99153 0.0
C654 C 0.259 0.20527 0.97316 0.0
C655 C 0.28542 0.23707 0.95887 0.0
C656 C 0.35363 0.16358 0.98067 0.0
C657 C 0.30241 0.18022 0.97203 0.0
C658 C 0.36616 0.14214 0.99435 0.0
C659 C 0.34028 0.11122 0.00953 0.0
C660 C 0.31509 0.15428 0.98253 0.0
C661 C 0.30155 0.10133 0.00958 0.0
C662 C 0.26725 0.17663 0.97961 0.0
C663 C 0.31893 0.23825 0.95006 0.0
N664 N 0.2902 0.12318 0.99659 0.0
N665 N 0.3268 0.21052 0.95715 0.0
H666 H 0.86812 0.28438 0.3698 0.0
H667 H 0.81834 0.07197 0.34095 0.0
H668 H 0.9383 0.23759 0.39534 0.0
H669 H 0.74333 0.11636 0.32256 0.0
H670 H 0.85746 0.12873 0.36722 0.0
H671 H 0.81706 0.22004 0.35894 0.0
C672 C 0.87252 0.26041 0.37346 0.0
C673 C 0.90762 0.26622 0.38301 0.0
C674 C 0.83212 0.1258 0.35777 0.0
C675 C 0.84965 0.19265 0.37032 0.0
C676 C 0.80982 0.09344 0.34275 0.0
C677 C 0.77805 0.08994 0.32921 0.0
C678 C 0.82269 0.15492 0.35899 0.0
C679 C 0.76796 0.11828 0.33241 0.0
C680 C 0.84336 0.22367 0.36729 0.0
C681 C 0.91173 0.23426 0.38773 0.0
N682 N 0.79058 0.14989 0.34667 0.0
N683 N 0.88329 0.1988 0.38089 0.0
H684 H 0.86661 0.7277 0.28375 0.0
H685 H 0.71864 0.63942 0.40003 0.0
H686 H 0.88451 0.66686 0.3457 0.0
H687 H 0.68548 0.64613 0.32188 0.0
H688 H 0.78457 0.66215 0.38494 0.0
H689 H 0.80519 0.71263 0.30299 0.0
C690 C 0.85792 0.71177 0.30165 0.0
C691 C 0.88035 0.69814 0.31307 0.0
C692 C 0.7627 0.65855 0.37122 0.0
C693 C 0.81039 0.68084 0.33502 0.0
C694 C 0.72526 0.64558 0.37974 0.0
C695 C 0.69672 0.64065 0.36208 0.0
C696 C 0.77151 0.66744 0.34505 0.0
C697 C 0.70661 0.64918 0.33605 0.0
C698 C 0.82282 0.70296 0.31249 0.0
C699 C 0.86778 0.67758 0.33624 0.0
N700 N 0.74329 0.66242 0.32833 0.0
N701 N 0.8334 0.66935 0.34647 0.0
H702 H 0.36593 0.23533 0.31019 0.0
H703 H 0.29657 0.04537 0.39339 0.0
H704 H 0.24799 0.15872 0.3315 0.0
H705 H 0.40629 0.10611 0.3551 0.0
H706 H 0.28284 0.09547 0.37997 0.0
H707 H 0.38517 0.19669 0.33561 0.0
C708 C 0.34415 0.21062 0.32047 0.0
C709 C 0.30527 0.19977 0.31847 0.0
C710 C 0.31012 0.09804 0.37482 0.0
C711 C 0.32701 0.15562 0.34751 0.0
C712 C 0.31802 0.06958 0.38254 0.0
C713 C 0.35235 0.07143 0.37497 0.0
C714 C 0.33686 0.1285 0.35958 0.0
C715 C 0.37924 0.10341 0.36102 0.0
C716 C 0.35514 0.18859 0.33494 0.0
C717 C 0.27824 0.16772 0.33231 0.0
N718 N 0.37077 0.13056 0.35355 0.0
N719 N 0.28959 0.14652 0.34609 0.0
H720 H 0.4528 0.53727 0.36462 0.0
H721 H 0.38391 0.37994 0.2529 0.0
H722 H 0.53125 0.52508 0.31406 0.0
H723 H 0.31792 0.36747 0.32148 0.0
H724 H 0.43413 0.44258 0.26866 0.0
H725 H 0.39898 0.48404 0.34225 0.0
C726 C 0.45864 0.52364 0.34863 0.0
C727 C 0.49642 0.53515 0.34133 0.0
C728 C 0.4084 0.42623 0.28005 0.0
C729 C 0.43526 0.47472 0.31569 0.0
C730 C 0.37977 0.3907 0.27105 0.0
C731 C 0.34709 0.36853 0.28611 0.0
C732 C 0.40385 0.43967 0.30403 0.0
C733 C 0.34298 0.3836 0.30947 0.0
C734 C 0.42799 0.4933 0.33594 0.0
C735 C 0.50248 0.5167 0.32045 0.0
N736 N 0.37115 0.41824 0.31779 0.0
N737 N 0.47215 0.4872 0.30838 0.0
H738 H 0.60548 0.93736 0.32043 0.0
H739 H 0.45329 0.00673 0.31038 0.0
H740 H 0.60662 0.01028 0.25917 0.0
H741 H 0.43975 0.91569 0.36078 0.0
H742 H 0.50681 0.00531 0.2892 0.0
H743 H 0.54236 0.9258 0.33357 0.0
C744 C 0.59223 0.95067 0.30962 0.0
C745 C 0.61136 0.97516 0.2889 0.0
C746 C 0.4918 0.98528 0.30465 0.0
C747 C 0.53936 0.96234 0.30391 0.0
C748 C 0.46131 0.98612 0.31676 0.0
C749 C 0.44247 0.9616 0.33753 0.0
C750 C 0.50373 0.96005 0.31363 0.0
C751 C 0.45375 0.93528 0.34494 0.0
C752 C 0.55615 0.94398 0.31706 0.0
C753 C 0.59284 0.99139 0.27537 0.0
N754 N 0.48403 0.93555 0.33322 0.0
N755 N 0.558 0.98511 0.28334 0.0
H756 H 0.04316 0.63603 0.27784 0.0
H757 H 0.93843 0.41962 0.32748 0.0
H758 H 0.92088 0.56659 0.28923 0.0
H759 H 0.05797 0.49995 0.34239 0.0
H760 H 0.93352 0.46928 0.30379 0.0
H761 H 0.05063 0.58207 0.29209 0.0
C762 C 0.01789 0.60926 0.28297 0.0
C763 C 0.9814 0.6057 0.28264 0.0
C764 C 0.9609 0.47593 0.31207 0.0
C765 C 0.98966 0.54432 0.2987 0.0
C766 C 0.96375 0.44763 0.32553 0.0
C767 C -0.00145 0.45593 0.33713 0.0
C768 C -0.00687 0.51268 0.31007 0.0
C769 C 0.03052 0.49258 0.33392 0.0
C770 C 0.02218 0.57865 0.29118 0.0
C771 C 0.94955 0.57055 0.28949 0.0
N772 N 0.027 0.51978 0.32077 0.0
N773 N 0.95443 0.54122 0.29732 0.0
H774 H 0.42619 0.45892 0.68947 0.0
H775 H 0.64694 0.59307 0.72617 0.0
H776 H 0.51597 0.43669 0.66552 0.0
H777 H 0.56324 0.63008 0.72382 0.0
H778 H 0.59573 0.52746 0.71681 0.0
H779 H 0.47311 0.51321 0.71495 0.0
C780 C 0.45568 0.46512 0.68989 0.0
C781 C 0.46747 0.44384 0.67499 0.0
C782 C 0.58858 0.54988 0.71888 0.0
C783 C 0.52108 0.5057 0.70406 0.0
C784 C 0.61764 0.58716 0.72434 0.0
C785 C 0.60918 0.61687 0.72535 0.0
C786 C 0.55098 0.54254 0.71478 0.0
C787 C 0.57091 0.60792 0.7228 0.0
C788 C 0.4824 0.49608 0.70441 0.0
C789 C 0.5059 0.45282 0.67644 0.0
N790 N 0.54322 0.57156 0.7174 0.0
N791 N 0.53153 0.48344 0.69049 0.0
H792 H 0.5348 0.9881 0.6903 0.0
H793 H 0.37481 0.04413 0.67833 0.0
H794 H 0.54904 0.08435 0.64534 0.0
H795 H 0.37716 0.97651 0.74197 0.0
H796 H 0.44073 0.062 0.66788 0.0
H797 H 0.47966 0.98597 0.71187 0.0
C798 C 0.52669 0.00917 0.68529 0.0
C799 C 0.546 0.03603 0.66572 0.0
C800 C 0.42715 0.04371 0.68438 0.0
C801 C 0.483 0.03351 0.69003 0.0
C802 C 0.38947 0.03336 0.69025 0.0
C803 C 0.37059 0.00847 0.7108 0.0
C804 C 0.44575 0.02832 0.69881 0.0
C805 C 0.39085 -0.00435 0.72587 0.0
C806 C 0.49532 0.008 0.69764 0.0
C807 C 0.53462 0.06287 0.6601 0.0
N808 N 0.42726 0.00515 0.71927 0.0
N809 N 0.50343 0.06052 0.67189 0.0
H810 H 0.94492 0.35992 0.72607 0.0
H811 H 0.03677 0.57606 0.67813 0.0
H812 H 0.06647 0.43845 0.71859 0.0
H813 H 0.92098 0.48767 0.66054 0.0
H814 H 0.04423 0.53087 0.70547 0.0
H815 H 0.93268 0.41191 0.71471 0.0
C816 C 0.96901 0.38832 0.72268 0.0
C817 C 0.0067 0.39496 0.72282 0.0
C818 C 0.01701 0.52157 0.69592 0.0
C819 C -0.00699 0.45407 0.70992 0.0
C820 C 0.01272 0.5473 0.68033 0.0
C821 C 0.97845 0.53527 0.6667 0.0
C822 C 0.98677 0.48367 0.69792 0.0
C823 C 0.94808 0.49784 0.67043 0.0
C824 C 0.96202 0.41783 0.71608 0.0
C825 C 0.03695 0.43214 0.71828 0.0
N826 N 0.95308 0.47315 0.6855 0.0
N827 N 0.02944 0.46028 0.71176 0.0
H828 H 0.14393 0.90034 0.66334 0.0
H829 H 0.1082 0.7026 0.61253 0.0
H830 H 0.23438 0.87302 0.65569 0.0
H831 H 0.02749 0.74182 0.59998 0.0
H832 H 0.15758 0.76794 0.62287 0.0
H833 H 0.10335 0.84633 0.63525 0.0
C834 C 0.15541 0.88327 0.65543 0.0
C835 C 0.19219 0.89055 0.66222 0.0
C836 C 0.12933 0.76252 0.61734 0.0
C837 C 0.146 0.82873 0.63032 0.0
C838 C 0.10115 0.72521 0.61148 0.0
C839 C 0.0637 0.71691 0.60586 0.0
C840 C 0.11965 0.79147 0.61818 0.0
C841 C 0.05604 0.74713 0.60445 0.0
C842 C 0.13232 0.85256 0.63931 0.0
C843 C 0.20593 0.86797 0.65121 0.0
N844 N 0.08361 0.78307 0.61118 0.0
N845 N 0.18255 0.83761 0.63616 0.0
H846 H 0.11906 0.36469 0.65271 0.0
H847 H 0.25563 0.2822 0.61363 0.0
H848 H 0.09655 0.2519 0.67401 0.0
H849 H 0.29396 0.4021 0.62411 0.0
H850 H 0.18954 0.26725 0.62225 0.0
H851 H 0.17519 0.3743 0.62836 0.0
C852 C 0.12553 0.34168 0.65188 0.0
C853 C 0.10366 0.30773 0.66577 0.0
C854 C 0.21241 0.29683 0.62216 0.0
C855 C 0.16754 0.31855 0.63798 0.0
C856 C 0.24997 0.30539 0.61717 0.0
C857 C 0.28011 0.34337 0.61856 0.0
C858 C 0.2052 0.32659 0.62813 0.0
C859 C 0.27145 0.37241 0.62323 0.0
C860 C 0.15756 0.34724 0.63803 0.0
C861 C 0.11308 0.27873 0.66386 0.0
N862 N 0.23475 0.36339 0.62803 0.0
N863 N 0.14468 0.28495 0.65044 0.0
H864 H 0.62407 0.75584 0.65831 0.0
H865 H 0.70199 0.96887 0.60756 0.0
H866 H 0.74058 0.84713 0.66998 0.0
H867 H 0.58411 0.89159 0.62853 0.0
H868 H 0.71735 0.91857 0.61763 0.0
H869 H 0.61066 0.8 0.63431 0.0
C870 C 0.64702 0.78501 0.65542 0.0
C871 C 0.68332 0.79812 0.66646 0.0
C872 C 0.68804 0.91256 0.61958 0.0
C873 C 0.66819 0.84847 0.63902 0.0
C874 C 0.67924 0.94107 0.61376 0.0
C875 C 0.64185 0.93433 0.61756 0.0
C876 C 0.65908 0.87709 0.62882 0.0
C877 C 0.61338 0.89796 0.62566 0.0
C878 C 0.63929 0.81014 0.6418 0.0
C879 C 0.71206 0.83609 0.66204 0.0
N880 N 0.62263 0.8707 0.63117 0.0
N881 N 0.70379 0.86013 0.6488 0.0
loop_
_geom_bond_atom_site_label_1
_geom_bond_atom_site_label_2
_geom_bond_distance
_geom_bond_site_symmetry_2
_ccdc_geom_bond_type
In0 O1 2.294 . S
In0 O2 2.326 . S
In0 O6 2.266 . S
In0 O7 2.326 . S
In0 O8 2.266 . S
In0 O9 2.326 . S
In0 O11 2.294 . S
In0 O12 2.326 . S
O1 In0 2.294 . S
O1 C10 1.240 . S
O2 In0 2.326 . S
O2 C10 1.252 . S
C3 O6 1.250 1_565 S
C3 O7 1.257 1_565 S
C4 O11 1.240 . S
C4 O12 1.252 . S
C5 O8 1.252 . S
C5 O9 1.260 . S
O6 In0 2.266 . S
O6 C3 1.250 1_545 S
O7 In0 2.326 . S
O7 C3 1.257 1_545 S
O8 In0 2.266 . S
O8 C5 1.252 . S
O9 In0 2.326 . S
O9 C5 1.260 . S
C10 O1 1.240 . S
C10 O2 1.252 . S
O11 In0 2.294 . S
O11 C4 1.240 . S
O12 In0 2.326 . S
O12 C4 1.252 . S
In13 O14 2.294 . S
In13 O15 2.326 . S
In13 O19 2.266 . S
In13 O20 2.326 . S
In13 O21 2.266 . S
In13 O22 2.326 . S
In13 O24 2.294 . S
In13 O25 2.326 . S
O14 In13 2.294 . S
O14 C23 1.240 . S
O15 In13 2.326 . S
O15 C23 1.252 . S
C16 O19 1.251 1_455 S
C16 O20 1.253 1_455 S
C17 O24 1.240 . S
C17 O25 1.252 . S
C18 O21 1.252 . S
C18 O22 1.260 . S
O19 In13 2.266 . S
O19 C16 1.251 1_655 S
O20 In13 2.326 . S
O20 C16 1.253 1_655 S
O21 In13 2.266 . S
O21 C18 1.252 . S
O22 In13 2.326 . S
O22 C18 1.260 . S
C23 O14 1.240 . S
C23 O15 1.252 . S
O24 In13 2.294 . S
O24 C17 1.240 . S
O25 In13 2.326 . S
O25 C17 1.252 . S
In26 O27 2.294 . S
In26 O28 2.326 . S
In26 O32 2.266 . S
In26 O33 2.326 . S
In26 O34 2.266 . S
In26 O35 2.326 . S
In26 O37 2.294 . S
In26 O38 2.326 . S
O27 In26 2.294 . S
O27 C36 1.240 . S
O28 In26 2.326 . S
O28 C36 1.252 . S
C29 O32 1.252 . S
C29 O33 1.260 . S
C30 O37 1.240 . S
C30 O38 1.252 . S
C31 O34 1.252 . S
C31 O35 1.260 . S
O32 In26 2.266 . S
O32 C29 1.252 . S
O33 In26 2.326 . S
O33 C29 1.260 . S
O34 In26 2.266 . S
O34 C31 1.252 . S
O35 In26 2.326 . S
O35 C31 1.260 . S
C36 O27 1.240 . S
C36 O28 1.252 . S
O37 In26 2.294 . S
O37 C30 1.240 . S
O38 In26 2.326 . S
O38 C30 1.252 . S
In39 O40 2.294 . S
In39 O41 2.326 . S
In39 O45 2.266 . S
In39 O46 2.326 . S
In39 O47 2.266 . S
In39 O48 2.326 . S
In39 O50 2.294 . S
In39 O51 2.326 . S
O40 In39 2.294 . S
O40 C49 1.240 . S
O41 In39 2.326 . S
O41 C49 1.252 . S
C42 O45 1.250 1_545 S
C42 O46 1.257 1_545 S
C43 O50 1.240 . S
C43 O51 1.252 . S
C44 O47 1.252 . S
C44 O48 1.260 . S
O45 In39 2.266 . S
O45 C42 1.250 1_565 S
O46 In39 2.326 . S
O46 C42 1.257 1_565 S
O47 In39 2.266 . S
O47 C44 1.252 . S
O48 In39 2.326 . S
O48 C44 1.260 . S
C49 O40 1.240 . S
C49 O41 1.252 . S
O50 In39 2.294 . S
O50 C43 1.240 . S
O51 In39 2.326 . S
O51 C43 1.252 . S
In52 O53 2.294 . S
In52 O54 2.326 . S
In52 O58 2.266 . S
In52 O59 2.326 . S
In52 O60 2.266 . S
In52 O61 2.326 . S
In52 O63 2.294 . S
In52 O64 2.326 . S
O53 In52 2.294 . S
O53 C62 1.240 . S
O54 In52 2.326 . S
O54 C62 1.252 . S
C55 O58 1.252 . S
C55 O59 1.260 . S
C56 O63 1.240 . S
C56 O64 1.252 . S
C57 O60 1.251 1_655 S
C57 O61 1.253 1_655 S
O58 In52 2.266 . S
O58 C55 1.252 . S
O59 In52 2.326 . S
O59 C55 1.260 . S
O60 In52 2.266 . S
O60 C57 1.251 1_455 S
O61 In52 2.326 . S
O61 C57 1.253 1_455 S
C62 O53 1.240 . S
C62 O54 1.252 . S
O63 In52 2.294 . S
O63 C56 1.240 . S
O64 In52 2.326 . S
O64 C56 1.252 . S
In65 O66 2.294 . S
In65 O67 2.326 . S
In65 O71 2.266 . S
In65 O72 2.326 . S
In65 O73 2.266 . S
In65 O74 2.326 . S
In65 O76 2.294 . S
In65 O77 2.326 . S
O66 In65 2.294 . S
O66 C75 1.240 . S
O67 In65 2.326 . S
O67 C75 1.252 . S
C68 O71 1.252 . S
C68 O72 1.260 . S
C69 O76 1.240 . S
C69 O77 1.252 . S
C70 O73 1.252 . S
C70 O74 1.260 . S
O71 In65 2.266 . S
O71 C68 1.252 . S
O72 In65 2.326 . S
O72 C68 1.260 . S
O73 In65 2.266 . S
O73 C70 1.252 . S
O74 In65 2.326 . S
O74 C70 1.260 . S
C75 O66 1.240 . S
C75 O67 1.252 . S
O76 In65 2.294 . S
O76 C69 1.240 . S
O77 In65 2.326 . S
O77 C69 1.252 . S
In78 O79 2.294 . S
In78 O80 2.326 . S
In78 O84 2.266 1_455 S
In78 O85 2.326 1_455 S
In78 O86 2.266 . S
In78 O87 2.326 . S
In78 O89 2.294 . S
In78 O90 2.326 1_455 S
O79 In78 2.294 . S
O79 C88 1.240 . S
O80 In78 2.326 . S
O80 C88 1.252 . S
C81 O84 1.252 . S
C81 O85 1.260 . S
C82 O89 1.240 . S
C82 O90 1.252 1_455 S
C83 O86 1.252 . S
C83 O87 1.260 . S
O84 In78 2.266 1_655 S
O84 C81 1.252 . S
O85 In78 2.326 1_655 S
O85 C81 1.260 . S
O86 In78 2.266 . S
O86 C83 1.252 . S
O87 In78 2.326 . S
O87 C83 1.260 . S
C88 O79 1.240 . S
C88 O80 1.252 . S
O89 In78 2.294 . S
O89 C82 1.240 . S
O90 In78 2.326 1_655 S
O90 C82 1.252 1_655 S
In91 O92 2.294 . S
In91 O93 2.326 . S
In91 O97 2.266 . S
In91 O98 2.326 . S
In91 O99 2.266 . S
In91 O100 2.326 . S
In91 O102 2.294 . S
In91 O103 2.326 . S
O92 In91 2.294 . S
O92 C101 1.240 . S
O93 In91 2.326 . S
O93 C101 1.252 . S
C94 O97 1.252 . S
C94 O98 1.260 . S
C95 O102 1.240 . S
C95 O103 1.252 . S
C96 O99 1.252 . S
C96 O100 1.260 . S
O97 In91 2.266 . S
O97 C94 1.252 . S
O98 In91 2.326 . S
O98 C94 1.260 . S
O99 In91 2.266 . S
O99 C96 1.252 . S
O100 In91 2.326 . S
O100 C96 1.260 . S
C101 O92 1.240 . S
C101 O93 1.252 . S
O102 In91 2.294 . S
O102 C95 1.240 . S
O103 In91 2.326 . S
O103 C95 1.252 . S
In104 O105 2.294 . S
In104 O106 2.326 1_565 S
In104 O110 2.266 . S
In104 O111 2.326 . S
In104 O112 2.266 1_565 S
In104 O113 2.326 1_565 S
In104 O115 2.294 . S
In104 O116 2.326 . S
O105 In104 2.294 . S
O105 C114 1.240 . S
O106 In104 2.326 1_545 S
O106 C114 1.252 1_545 S
C107 O110 1.252 . S
C107 O111 1.260 . S
C108 O115 1.240 . S
C108 O116 1.252 . S
C109 O112 1.252 . S
C109 O113 1.260 . S
O110 In104 2.266 . S
O110 C107 1.252 . S
O111 In104 2.326 . S
O111 C107 1.260 . S
O112 In104 2.266 1_545 S
O112 C109 1.252 . S
O113 In104 2.326 1_545 S
O113 C109 1.260 . S
C114 O105 1.240 . S
C114 O106 1.252 1_565 S
O115 In104 2.294 . S
O115 C108 1.240 . S
O116 In104 2.326 . S
O116 C108 1.252 . S
In117 O118 2.294 . S
In117 O119 2.326 . S
In117 O123 2.266 . S
In117 O124 2.326 . S
In117 O125 2.266 . S
In117 O126 2.326 . S
In117 O128 2.294 . S
In117 O129 2.326 . S
O118 In117 2.294 . S
O118 C127 1.240 . S
O119 In117 2.326 . S
O119 C127 1.252 . S
C120 O123 1.252 . S
C120 O124 1.260 . S
C121 O128 1.240 . S
C121 O129 1.252 . S
C122 O125 1.252 . S
C122 O126 1.260 . S
O123 In117 2.266 . S
O123 C120 1.252 . S
O124 In117 2.326 . S
O124 C120 1.260 . S
O125 In117 2.266 . S
O125 C122 1.252 . S
O126 In117 2.326 . S
O126 C122 1.260 . S
C127 O118 1.240 . S
C127 O119 1.252 . S
O128 In117 2.294 . S
O128 C121 1.240 . S
O129 In117 2.326 . S
O129 C121 1.252 . S
In130 O131 2.294 . S
In130 O132 2.326 . S
In130 O136 2.266 . S
In130 O137 2.326 . S
In130 O138 2.266 1_545 S
In130 O139 2.326 1_545 S
In130 O141 2.294 . S
In130 O142 2.326 . S
O131 In130 2.294 . S
O131 C140 1.240 . S
O132 In130 2.326 . S
O132 C140 1.252 . S
C133 O136 1.252 . S
C133 O137 1.260 . S
C134 O141 1.240 . S
C134 O142 1.252 . S
C135 O138 1.252 . S
C135 O139 1.260 . S
O136 In130 2.266 . S
O136 C133 1.252 . S
O137 In130 2.326 . S
O137 C133 1.260 . S
O138 In130 2.266 1_565 S
O138 C135 1.252 . S
O139 In130 2.326 1_565 S
O139 C135 1.260 . S
C140 O131 1.240 . S
C140 O132 1.252 . S
O141 In130 2.294 . S
O141 C134 1.240 . S
O142 In130 2.326 . S
O142 C134 1.252 . S
In143 O144 2.294 . S
In143 O145 2.326 . S
In143 O149 2.266 1_655 S
In143 O150 2.326 1_655 S
In143 O151 2.266 . S
In143 O152 2.326 . S
In143 O154 2.294 . S
In143 O155 2.326 . S
O144 In143 2.294 . S
O144 C153 1.240 . S
O145 In143 2.326 . S
O145 C153 1.252 . S
C146 O149 1.252 . S
C146 O150 1.260 . S
C147 O154 1.240 . S
C147 O155 1.252 . S
C148 O151 1.252 . S
C148 O152 1.260 . S
O149 In143 2.266 1_455 S
O149 C146 1.252 . S
O150 In143 2.326 1_455 S
O150 C146 1.260 . S
O151 In143 2.266 . S
O151 C148 1.252 . S
O152 In143 2.326 . S
O152 C148 1.260 . S
C153 O144 1.240 . S
C153 O145 1.252 . S
O154 In143 2.294 . S
O154 C147 1.240 . S
O155 In143 2.326 . S
O155 C147 1.252 . S
In156 O157 2.294 . S
In156 O158 2.326 . S
In156 O162 2.266 . S
In156 O163 2.326 . S
In156 O164 2.266 . S
In156 O165 2.326 . S
In156 O167 2.294 . S
In156 O168 2.326 . S
O157 In156 2.294 . S
O157 C166 1.240 . S
O158 In156 2.326 . S
O158 C166 1.252 . S
C159 O162 1.252 . S
C159 O163 1.260 . S
C160 O167 1.240 . S
C160 O168 1.252 . S
C161 O164 1.252 . S
C161 O165 1.260 . S
O162 In156 2.266 . S
O162 C159 1.252 . S
O163 In156 2.326 . S
O163 C159 1.260 . S
O164 In156 2.266 . S
O164 C161 1.252 . S
O165 In156 2.326 . S
O165 C161 1.260 . S
C166 O157 1.240 . S
C166 O158 1.252 . S
O167 In156 2.294 . S
O167 C160 1.240 . S
O168 In156 2.326 . S
O168 C160 1.252 . S
In169 O170 2.294 . S
In169 O171 2.326 . S
In169 O175 2.266 . S
In169 O176 2.326 . S
In169 O177 2.266 1_565 S
In169 O178 2.326 1_565 S
In169 O180 2.294 . S
In169 O181 2.326 . S
O170 In169 2.294 . S
O170 C179 1.240 . S
O171 In169 2.326 . S
O171 C179 1.252 . S
C172 O175 1.252 . S
C172 O176 1.260 . S
C173 O180 1.240 . S
C173 O181 1.252 . S
C174 O177 1.252 . S
C174 O178 1.260 . S
O175 In169 2.266 . S
O175 C172 1.252 . S
O176 In169 2.326 . S
O176 C172 1.260 . S
O177 In169 2.266 1_545 S
O177 C174 1.252 . S
O178 In169 2.326 1_545 S
O178 C174 1.260 . S
C179 O170 1.240 . S
C179 O171 1.252 . S
O180 In169 2.294 . S
O180 C173 1.240 . S
O181 In169 2.326 . S
O181 C173 1.252 . S
In182 O183 2.294 . S
In182 O184 2.326 . S
In182 O188 2.266 . S
In182 O189 2.326 . S
In182 O190 2.266 1_455 S
In182 O191 2.326 1_455 S
In182 O193 2.294 . S
In182 O194 2.326 . S
O183 In182 2.294 . S
O183 C192 1.240 . S
O184 In182 2.326 . S
O184 C192 1.252 . S
C185 O188 1.252 . S
C185 O189 1.260 . S
C186 O193 1.240 . S
C186 O194 1.252 . S
C187 O190 1.252 . S
C187 O191 1.260 . S
O188 In182 2.266 . S
O188 C185 1.252 . S
O189 In182 2.326 . S
O189 C185 1.260 . S
O190 In182 2.266 1_655 S
O190 C187 1.252 . S
O191 In182 2.326 1_655 S
O191 C187 1.260 . S
C192 O183 1.240 . S
C192 O184 1.252 . S
O193 In182 2.294 . S
O193 C186 1.240 . S
O194 In182 2.326 . S
O194 C186 1.252 . S
In195 O196 2.294 . S
In195 O197 2.326 1_655 S
In195 O201 2.266 . S
In195 O202 2.326 . S
In195 O203 2.266 1_655 S
In195 O204 2.326 1_655 S
In195 O206 2.294 . S
In195 O207 2.326 . S
O196 In195 2.294 . S
O196 C205 1.240 . S
O197 In195 2.326 1_455 S
O197 C205 1.252 1_455 S
C198 O201 1.252 . S
C198 O202 1.260 . S
C199 O206 1.240 . S
C199 O207 1.252 . S
C200 O203 1.252 . S
C200 O204 1.260 . S
O201 In195 2.266 . S
O201 C198 1.252 . S
O202 In195 2.326 . S
O202 C198 1.260 . S
O203 In195 2.266 1_455 S
O203 C200 1.252 . S
O204 In195 2.326 1_455 S
O204 C200 1.260 . S
C205 O196 1.240 . S
C205 O197 1.252 1_655 S
O206 In195 2.294 . S
O206 C199 1.240 . S
O207 In195 2.326 . S
O207 C199 1.252 . S
In208 O209 2.294 . S
In208 O210 2.326 . S
In208 O214 2.266 . S
In208 O215 2.326 . S
In208 O216 2.266 . S
In208 O217 2.326 . S
In208 O219 2.294 . S
In208 O220 2.326 . S
O209 In208 2.294 . S
O209 C218 1.240 . S
O210 In208 2.326 . S
O210 C218 1.252 . S
C211 O214 1.252 . S
C211 O215 1.260 . S
C212 O219 1.240 . S
C212 O220 1.252 . S
C213 O216 1.252 . S
C213 O217 1.260 . S
O214 In208 2.266 . S
O214 C211 1.252 . S
O215 In208 2.326 . S
O215 C211 1.260 . S
O216 In208 2.266 . S
O216 C213 1.252 . S
O217 In208 2.326 . S
O217 C213 1.260 . S
C218 O209 1.240 . S
C218 O210 1.252 . S
O219 In208 2.294 . S
O219 C212 1.240 . S
O220 In208 2.326 . S
O220 C212 1.252 . S
In221 O222 2.294 . S
In221 O223 2.326 1_545 S
In221 O227 2.266 . S
In221 O228 2.326 . S
In221 O229 2.266 1_545 S
In221 O230 2.326 1_545 S
In221 O232 2.294 . S
In221 O233 2.326 . S
O222 In221 2.294 . S
O222 C231 1.240 . S
O223 In221 2.326 1_565 S
O223 C231 1.252 1_565 S
C224 O227 1.252 . S
C224 O228 1.260 . S
C225 O232 1.240 . S
C225 O233 1.252 . S
C226 O229 1.252 . S
C226 O230 1.260 . S
O227 In221 2.266 . S
O227 C224 1.252 . S
O228 In221 2.326 . S
O228 C224 1.260 . S
O229 In221 2.266 1_565 S
O229 C226 1.252 . S
O230 In221 2.326 1_565 S
O230 C226 1.260 . S
C231 O222 1.240 . S
C231 O223 1.252 1_545 S
O232 In221 2.294 . S
O232 C225 1.240 . S
O233 In221 2.326 . S
O233 C225 1.252 . S
H234 C240 0.930 . S
H235 C244 0.930 . S
H236 C249 0.929 . S
H237 C247 0.929 . S
H238 C242 0.929 1_554 S
H239 C248 0.929 1_556 S
C240 H234 0.930 . S
C240 C241 1.367 1_565 S
C240 C248 1.378 . S
C241 C240 1.367 1_545 S
C241 C249 1.433 . S
C242 H238 0.929 1_556 S
C242 C244 1.378 . S
C242 C246 1.350 1_545 S
C243 C246 1.463 1_544 S
C243 C248 1.350 1_545 S
C243 N251 1.427 . S
C244 H235 0.930 . S
C244 C242 1.378 . S
C244 C245 1.367 1_545 S
C245 C244 1.367 1_565 S
C245 C247 1.433 . S
C246 C242 1.350 1_565 S
C246 C243 1.463 1_566 S
C246 N250 1.427 . S
C247 H237 0.929 . S
C247 C245 1.433 . S
C247 N250 1.384 . S
C248 H239 0.929 1_554 S
C248 C240 1.378 . S
C248 C243 1.350 1_565 S
C249 H236 0.929 . S
C249 C241 1.433 . S
C249 N251 1.384 . S
N250 C246 1.427 . S
N250 C247 1.384 . S
N251 C243 1.427 . S
N251 C249 1.384 . S
H252 C258 0.930 . S
H253 C262 0.930 . S
H254 C267 0.951 . S
H255 C265 0.951 . S
H256 C260 0.929 . S
H257 C266 0.929 . S
C258 H252 0.930 . S
C258 C259 1.367 . S
C258 C266 1.378 . S
C259 C258 1.367 . S
C259 C267 1.415 1_655 S
C260 H256 0.929 . S
C260 C262 1.378 . S
C260 C264 1.350 . S
C261 C264 1.463 1_654 S
C261 C266 1.350 . S
C261 N269 1.436 1_655 S
C262 H253 0.930 . S
C262 C260 1.378 . S
C262 C263 1.367 . S
C263 C262 1.367 . S
C263 C265 1.415 1_455 S
C264 C260 1.350 . S
C264 C261 1.463 1_456 S
C264 N268 1.436 1_455 S
C265 H255 0.951 . S
C265 C263 1.415 1_655 S
C265 N268 1.396 . S
C266 H257 0.929 . S
C266 C258 1.378 . S
C266 C261 1.350 . S
C267 H254 0.951 . S
C267 C259 1.415 1_455 S
C267 N269 1.396 . S
N268 C264 1.436 1_655 S
N268 C265 1.396 . S
N269 C261 1.436 1_455 S
N269 C267 1.396 . S
H270 C276 0.930 . S
H271 C280 0.930 . S
H272 C285 0.929 . S
H273 C283 0.929 . S
H274 C278 0.929 . S
H275 C284 0.929 . S
C276 H270 0.930 . S
C276 C277 1.367 . S
C276 C284 1.378 1_556 S
C277 C276 1.367 . S
C277 C285 1.433 . S
C278 H274 0.929 . S
C278 C280 1.378 1_556 S
C278 C282 1.350 1_556 S
C279 C282 1.463 1_556 S
C279 C284 1.350 1_556 S
C279 N287 1.427 . S
C280 H271 0.930 . S
C280 C278 1.378 1_554 S
C280 C281 1.367 . S
C281 C280 1.367 . S
C281 C283 1.433 . S
C282 C278 1.350 1_554 S
C282 C279 1.463 1_554 S
C282 N286 1.427 . S
C283 H273 0.929 . S
C283 C281 1.433 . S
C283 N286 1.384 . S
C284 H275 0.929 . S
C284 C276 1.378 1_554 S
C284 C279 1.350 1_554 S
C285 H272 0.929 . S
C285 C277 1.433 . S
C285 N287 1.384 . S
N286 C282 1.427 . S
N286 C283 1.384 . S
N287 C279 1.427 . S
N287 C285 1.384 . S
H288 C294 0.930 . S
H289 C298 0.930 . S
H290 C303 0.929 . S
H291 C301 0.929 . S
H292 C296 0.929 . S
H293 C302 0.929 . S
C294 H288 0.930 . S
C294 C295 1.367 . S
C294 C302 1.378 . S
C295 C294 1.367 . S
C295 C303 1.433 . S
C296 H292 0.929 . S
C296 C298 1.378 . S
C296 C300 1.350 . S
C297 C300 1.463 . S
C297 C302 1.350 . S
C297 N305 1.427 . S
C298 H289 0.930 . S
C298 C296 1.378 . S
C298 C299 1.367 . S
C299 C298 1.367 . S
C299 C301 1.433 . S
C300 C296 1.350 . S
C300 C297 1.463 . S
C300 N304 1.427 . S
C301 H291 0.929 . S
C301 C299 1.433 . S
C301 N304 1.384 . S
C302 H293 0.929 . S
C302 C294 1.378 . S
C302 C297 1.350 . S
C303 H290 0.929 . S
C303 C295 1.433 . S
C303 N305 1.384 . S
N304 C300 1.427 . S
N304 C301 1.384 . S
N305 C297 1.427 . S
N305 C303 1.384 . S
H306 C312 0.930 . S
H307 C316 0.930 . S
H308 C321 0.929 . S
H309 C319 0.929 . S
H310 C314 0.929 . S
H311 C320 0.929 . S
C312 H306 0.930 . S
C312 C313 1.367 . S
C312 C320 1.378 . S
C313 C312 1.367 . S
C313 C321 1.433 . S
C314 H310 0.929 . S
C314 C316 1.378 . S
C314 C318 1.350 . S
C315 C318 1.463 . S
C315 C320 1.350 . S
C315 N323 1.427 . S
C316 H307 0.930 . S
C316 C314 1.378 . S
C316 C317 1.367 . S
C317 C316 1.367 . S
C317 C319 1.433 . S
C318 C314 1.350 . S
C318 C315 1.463 . S
C318 N322 1.427 . S
C319 H309 0.929 . S
C319 C317 1.433 . S
C319 N322 1.384 . S
C320 H311 0.929 . S
C320 C312 1.378 . S
C320 C315 1.350 . S
C321 H308 0.929 . S
C321 C313 1.433 . S
C321 N323 1.384 . S
N322 C318 1.427 . S
N322 C319 1.384 . S
N323 C315 1.427 . S
N323 C321 1.384 . S
H324 C330 0.930 . S
H325 C334 0.930 . S
H326 C339 0.929 . S
H327 C337 0.929 . S
H328 C332 0.929 . S
H329 C338 0.929 . S
C330 H324 0.930 . S
C330 C331 1.367 . S
C330 C338 1.378 . S
C331 C330 1.367 . S
C331 C339 1.433 . S
C332 H328 0.929 . S
C332 C334 1.378 . S
C332 C336 1.350 . S
C333 C336 1.463 . S
C333 C338 1.350 . S
C333 N341 1.427 . S
C334 H325 0.930 . S
C334 C332 1.378 . S
C334 C335 1.367 . S
C335 C334 1.367 . S
C335 C337 1.433 . S
C336 C332 1.350 . S
C336 C333 1.463 . S
C336 N340 1.427 . S
C337 H327 0.929 . S
C337 C335 1.433 . S
C337 N340 1.384 . S
C338 H329 0.929 . S
C338 C330 1.378 . S
C338 C333 1.350 . S
C339 H326 0.929 . S
C339 C331 1.433 . S
C339 N341 1.384 . S
N340 C336 1.427 . S
N340 C337 1.384 . S
N341 C333 1.427 . S
N341 C339 1.384 . S
H342 C348 0.930 . S
H343 C352 0.930 . S
H344 C357 0.929 . S
H345 C355 0.929 . S
H346 C350 0.929 . S
H347 C356 0.929 . S
C348 H342 0.930 . S
C348 C349 1.367 . S
C348 C356 1.378 . S
C349 C348 1.367 . S
C349 C357 1.433 . S
C350 H346 0.929 . S
C350 C352 1.378 . S
C350 C354 1.350 . S
C351 C354 1.463 . S
C351 C356 1.350 . S
C351 N359 1.427 . S
C352 H343 0.930 . S
C352 C350 1.378 . S
C352 C353 1.367 . S
C353 C352 1.367 . S
C353 C355 1.433 . S
C354 C350 1.350 . S
C354 C351 1.463 . S
C354 N358 1.427 . S
C355 H345 0.929 . S
C355 C353 1.433 . S
C355 N358 1.384 . S
C356 H347 0.929 . S
C356 C348 1.378 . S
C356 C351 1.350 . S
C357 H344 0.929 . S
C357 C349 1.433 . S
C357 N359 1.384 . S
N358 C354 1.427 . S
N358 C355 1.384 . S
N359 C351 1.427 . S
N359 C357 1.384 . S
H360 C366 0.930 . S
H361 C370 0.930 . S
H362 C375 0.929 . S
H363 C373 0.929 . S
H364 C368 0.929 . S
H365 C374 0.929 . S
C366 H360 0.930 . S
C366 C367 1.367 . S
C366 C374 1.378 . S
C367 C366 1.367 . S
C367 C375 1.433 . S
C368 H364 0.929 . S
C368 C370 1.378 . S
C368 C372 1.350 . S
C369 C372 1.463 . S
C369 C374 1.350 . S
C369 N377 1.427 . S
C370 H361 0.930 . S
C370 C368 1.378 . S
C370 C371 1.367 . S
C371 C370 1.367 . S
C371 C373 1.433 . S
C372 C368 1.350 . S
C372 C369 1.463 . S
C372 N376 1.427 . S
C373 H363 0.929 . S
C373 C371 1.433 . S
C373 N376 1.384 . S
C374 H365 0.929 . S
C374 C366 1.378 . S
C374 C369 1.350 . S
C375 H362 0.929 . S
C375 C367 1.433 . S
C375 N377 1.384 . S
N376 C372 1.427 . S
N376 C373 1.384 . S
N377 C369 1.427 . S
N377 C375 1.384 . S
H378 C384 0.930 . S
H379 C388 0.930 . S
H380 C393 0.929 . S
H381 C391 0.929 . S
H382 C386 0.929 . S
H383 C392 0.929 . S
C384 H378 0.930 . S
C384 C385 1.367 . S
C384 C392 1.378 . S
C385 C384 1.367 . S
C385 C393 1.433 . S
C386 H382 0.929 . S
C386 C388 1.378 . S
C386 C390 1.350 . S
C387 C390 1.463 . S
C387 C392 1.350 . S
C387 N395 1.427 . S
C388 H379 0.930 . S
C388 C386 1.378 . S
C388 C389 1.367 . S
C389 C388 1.367 . S
C389 C391 1.433 . S
C390 C386 1.350 . S
C390 C387 1.463 . S
C390 N394 1.427 . S
C391 H381 0.929 . S
C391 C389 1.433 . S
C391 N394 1.384 . S
C392 H383 0.929 . S
C392 C384 1.378 . S
C392 C387 1.350 . S
C393 H380 0.929 . S
C393 C385 1.433 . S
C393 N395 1.384 . S
N394 C390 1.427 . S
N394 C391 1.384 . S
N395 C387 1.427 . S
N395 C393 1.384 . S
H396 C402 0.930 . S
H397 C406 0.930 . S
H398 C411 0.929 . S
H399 C409 0.929 . S
H400 C404 0.929 . S
H401 C410 0.929 . S
C402 H396 0.930 . S
C402 C403 1.367 . S
C402 C410 1.378 . S
C403 C402 1.367 . S
C403 C411 1.433 . S
C404 H400 0.929 . S
C404 C406 1.378 . S
C404 C408 1.350 . S
C405 C408 1.463 . S
C405 C410 1.350 . S
C405 N413 1.427 . S
C406 H397 0.930 . S
C406 C404 1.378 . S
C406 C407 1.367 . S
C407 C406 1.367 . S
C407 C409 1.433 . S
C408 C404 1.350 . S
C408 C405 1.463 . S
C408 N412 1.427 . S
C409 H399 0.929 . S
C409 C407 1.433 . S
C409 N412 1.384 . S
C410 H401 0.929 . S
C410 C402 1.378 . S
C410 C405 1.350 . S
C411 H398 0.929 . S
C411 C403 1.433 . S
C411 N413 1.384 . S
N412 C408 1.427 . S
N412 C409 1.384 . S
N413 C405 1.427 . S
N413 C411 1.384 . S
H414 C420 0.930 . S
H415 C424 0.930 . S
H416 C429 0.929 . S
H417 C427 0.929 . S
H418 C422 0.929 . S
H419 C428 0.929 . S
C420 H414 0.930 . S
C420 C421 1.367 . S
C420 C428 1.378 . S
C421 C420 1.367 . S
C421 C429 1.433 . S
C422 H418 0.929 . S
C422 C424 1.378 . S
C422 C426 1.350 . S
C423 C426 1.463 . S
C423 C428 1.350 . S
C423 N431 1.427 . S
C424 H415 0.930 . S
C424 C422 1.378 . S
C424 C425 1.367 . S
C425 C424 1.367 . S
C425 C427 1.433 . S
C426 C422 1.350 . S
C426 C423 1.463 . S
C426 N430 1.427 . S
C427 H417 0.929 . S
C427 C425 1.433 . S
C427 N430 1.384 . S
C428 H419 0.929 . S
C428 C420 1.378 . S
C428 C423 1.350 . S
C429 H416 0.929 . S
C429 C421 1.433 . S
C429 N431 1.384 . S
N430 C426 1.427 . S
N430 C427 1.384 . S
N431 C423 1.427 . S
N431 C429 1.384 . S
H432 C438 0.930 . S
H433 C442 0.930 . S
H434 C447 0.929 . S
H435 C445 0.929 . S
H436 C440 0.929 . S
H437 C446 0.929 . S
C438 H432 0.930 . S
C438 C439 1.367 . S
C438 C446 1.378 . S
C439 C438 1.367 . S
C439 C447 1.433 . S
C440 H436 0.929 . S
C440 C442 1.378 . S
C440 C444 1.350 . S
C441 C444 1.463 . S
C441 C446 1.350 . S
C441 N449 1.427 . S
C442 H433 0.930 . S
C442 C440 1.378 . S
C442 C443 1.367 . S
C443 C442 1.367 . S
C443 C445 1.433 . S
C444 C440 1.350 . S
C444 C441 1.463 . S
C444 N448 1.427 . S
C445 H435 0.929 . S
C445 C443 1.433 . S
C445 N448 1.384 . S
C446 H437 0.929 . S
C446 C438 1.378 . S
C446 C441 1.350 . S
C447 H434 0.929 . S
C447 C439 1.433 . S
C447 N449 1.384 . S
N448 C444 1.427 . S
N448 C445 1.384 . S
N449 C441 1.427 . S
N449 C447 1.384 . S
H450 C456 0.930 . S
H451 C460 0.930 . S
H452 C465 0.929 . S
H453 C463 0.929 . S
H454 C458 0.929 . S
H455 C464 0.929 . S
C456 H450 0.930 . S
C456 C457 1.367 . S
C456 C464 1.378 . S
C457 C456 1.367 . S
C457 C465 1.433 . S
C458 H454 0.929 . S
C458 C460 1.378 . S
C458 C462 1.350 . S
C459 C462 1.463 . S
C459 C464 1.350 . S
C459 N467 1.427 . S
C460 H451 0.930 . S
C460 C458 1.378 . S
C460 C461 1.367 . S
C461 C460 1.367 . S
C461 C463 1.433 . S
C462 C458 1.350 . S
C462 C459 1.463 . S
C462 N466 1.427 . S
C463 H453 0.929 . S
C463 C461 1.433 . S
C463 N466 1.384 . S
C464 H455 0.929 . S
C464 C456 1.378 . S
C464 C459 1.350 . S
C465 H452 0.929 . S
C465 C457 1.433 . S
C465 N467 1.384 . S
N466 C462 1.427 . S
N466 C463 1.384 . S
N467 C459 1.427 . S
N467 C465 1.384 . S
H468 C474 0.930 . S
H469 C478 0.930 . S
H470 C483 0.929 . S
H471 C481 0.929 . S
H472 C476 0.929 . S
H473 C482 0.929 . S
C474 H468 0.930 . S
C474 C475 1.367 . S
C474 C482 1.378 . S
C475 C474 1.367 . S
C475 C483 1.433 . S
C476 H472 0.929 . S
C476 C478 1.378 . S
C476 C480 1.350 . S
C477 C480 1.463 . S
C477 C482 1.350 . S
C477 N485 1.427 . S
C478 H469 0.930 . S
C478 C476 1.378 . S
C478 C479 1.367 . S
C479 C478 1.367 . S
C479 C481 1.433 . S
C480 C476 1.350 . S
C480 C477 1.463 . S
C480 N484 1.427 . S
C481 H471 0.929 . S
C481 C479 1.433 . S
C481 N484 1.384 . S
C482 H473 0.929 . S
C482 C474 1.378 . S
C482 C477 1.350 . S
C483 H470 0.929 . S
C483 C475 1.433 . S
C483 N485 1.384 . S
N484 C480 1.427 . S
N484 C481 1.384 . S
N485 C477 1.427 . S
N485 C483 1.384 . S
H486 C492 0.930 . S
H487 C496 0.930 . S
H488 C501 0.929 . S
H489 C499 0.929 . S
H490 C494 0.929 . S
H491 C500 0.929 . S
C492 H486 0.930 . S
C492 C493 1.367 . S
C492 C500 1.378 . S
C493 C492 1.367 . S
C493 C501 1.433 . S
C494 H490 0.929 . S
C494 C496 1.378 . S
C494 C498 1.350 . S
C495 C498 1.463 . S
C495 C500 1.350 . S
C495 N503 1.427 . S
C496 H487 0.930 . S
C496 C494 1.378 . S
C496 C497 1.367 . S
C497 C496 1.367 . S
C497 C499 1.433 . S
C498 C494 1.350 . S
C498 C495 1.463 . S
C498 N502 1.427 . S
C499 H489 0.929 . S
C499 C497 1.433 . S
C499 N502 1.384 . S
C500 H491 0.929 . S
C500 C492 1.378 . S
C500 C495 1.350 . S
C501 H488 0.929 . S
C501 C493 1.433 . S
C501 N503 1.384 . S
N502 C498 1.427 . S
N502 C499 1.384 . S
N503 C495 1.427 . S
N503 C501 1.384 . S
H504 C510 0.930 . S
H505 C514 0.930 . S
H506 C519 0.929 . S
H507 C517 0.929 . S
H508 C512 0.929 . S
H509 C518 0.929 . S
C510 H504 0.930 . S
C510 C511 1.367 . S
C510 C518 1.378 . S
C511 C510 1.367 . S
C511 C519 1.433 . S
C512 H508 0.929 . S
C512 C514 1.378 . S
C512 C516 1.350 . S
C513 C516 1.463 1_455 S
C513 C518 1.350 . S
C513 N521 1.427 . S
C514 H505 0.930 . S
C514 C512 1.378 . S
C514 C515 1.367 . S
C515 C514 1.367 . S
C515 C517 1.433 . S
C516 C512 1.350 . S
C516 C513 1.463 1_655 S
C516 N520 1.427 . S
C517 H507 0.929 . S
C517 C515 1.433 . S
C517 N520 1.384 . S
C518 H509 0.929 . S
C518 C510 1.378 . S
C518 C513 1.350 . S
C519 H506 0.929 . S
C519 C511 1.433 . S
C519 N521 1.384 . S
N520 C516 1.427 . S
N520 C517 1.384 . S
N521 C513 1.427 . S
N521 C519 1.384 . S
H522 C528 0.930 . S
H523 C532 0.930 . S
H524 C537 0.929 . S
H525 C535 0.929 . S
H526 C530 0.929 . S
H527 C536 0.929 . S
C528 H522 0.930 . S
C528 C529 1.367 . S
C528 C536 1.378 . S
C529 C528 1.367 . S
C529 C537 1.433 . S
C530 H526 0.929 . S
C530 C532 1.378 . S
C530 C534 1.350 . S
C531 C534 1.463 . S
C531 C536 1.350 . S
C531 N539 1.427 . S
C532 H523 0.930 . S
C532 C530 1.378 . S
C532 C533 1.367 . S
C533 C532 1.367 . S
C533 C535 1.433 . S
C534 C530 1.350 . S
C534 C531 1.463 . S
C534 N538 1.427 . S
C535 H525 0.929 . S
C535 C533 1.433 . S
C535 N538 1.384 . S
C536 H527 0.929 . S
C536 C528 1.378 . S
C536 C531 1.350 . S
C537 H524 0.929 . S
C537 C529 1.433 . S
C537 N539 1.384 . S
N538 C534 1.427 . S
N538 C535 1.384 . S
N539 C531 1.427 . S
N539 C537 1.384 . S
H540 C546 0.930 . S
H541 C550 0.930 . S
H542 C555 0.929 . S
H543 C553 0.929 . S
H544 C548 0.929 . S
H545 C554 0.929 . S
C546 H540 0.930 . S
C546 C547 1.367 1_565 S
C546 C554 1.378 . S
C547 C546 1.367 1_545 S
C547 C555 1.433 . S
C548 H544 0.929 . S
C548 C550 1.378 . S
C548 C552 1.350 1_545 S
C549 C552 1.463 1_545 S
C549 C554 1.350 1_545 S
C549 N557 1.427 . S
C550 H541 0.930 . S
C550 C548 1.378 . S
C550 C551 1.367 1_545 S
C551 C550 1.367 1_565 S
C551 C553 1.433 . S
C552 C548 1.350 1_565 S
C552 C549 1.463 1_565 S
C552 N556 1.427 . S
C553 H543 0.929 . S
C553 C551 1.433 . S
C553 N556 1.384 . S
C554 H545 0.929 . S
C554 C546 1.378 . S
C554 C549 1.350 1_565 S
C555 H542 0.929 . S
C555 C547 1.433 . S
C555 N557 1.384 . S
N556 C552 1.427 . S
N556 C553 1.384 . S
N557 C549 1.427 . S
N557 C555 1.384 . S
H558 C564 0.930 . S
H559 C568 0.930 . S
H560 C573 0.929 . S
H561 C571 0.929 . S
H562 C566 0.929 . S
H563 C572 0.929 . S
C564 H558 0.930 . S
C564 C565 1.367 . S
C564 C572 1.378 . S
C565 C564 1.367 . S
C565 C573 1.433 1_554 S
C566 H562 0.929 . S
C566 C568 1.378 . S
C566 C570 1.350 . S
C567 C570 1.463 1_554 S
C567 C572 1.350 . S
C567 N575 1.427 1_554 S
C568 H559 0.930 . S
C568 C566 1.378 . S
C568 C569 1.367 . S
C569 C568 1.367 . S
C569 C571 1.433 1_556 S
C570 C566 1.350 . S
C570 C567 1.463 1_556 S
C570 N574 1.427 1_556 S
C571 H561 0.929 . S
C571 C569 1.433 1_554 S
C571 N574 1.384 . S
C572 H563 0.929 . S
C572 C564 1.378 . S
C572 C567 1.350 . S
C573 H560 0.929 . S
C573 C565 1.433 1_556 S
C573 N575 1.384 . S
N574 C570 1.427 1_554 S
N574 C571 1.384 . S
N575 C567 1.427 1_556 S
N575 C573 1.384 . S
H576 C582 0.930 . S
H577 C586 0.930 . S
H578 C591 0.929 . S
H579 C589 0.929 . S
H580 C584 0.929 . S
H581 C590 0.929 . S
C582 H576 0.930 . S
C582 C583 1.367 . S
C582 C590 1.378 . S
C583 C582 1.367 . S
C583 C591 1.433 . S
C584 H580 0.929 . S
C584 C586 1.378 . S
C584 C588 1.350 . S
C585 C588 1.463 1_554 S
C585 C590 1.350 . S
C585 N593 1.427 . S
C586 H577 0.930 . S
C586 C584 1.378 . S
C586 C587 1.367 . S
C587 C586 1.367 . S
C587 C589 1.433 . S
C588 C584 1.350 . S
C588 C585 1.463 1_556 S
C588 N592 1.427 . S
C589 H579 0.929 . S
C589 C587 1.433 . S
C589 N592 1.384 . S
C590 H581 0.929 . S
C590 C582 1.378 . S
C590 C585 1.350 . S
C591 H578 0.929 . S
C591 C583 1.433 . S
C591 N593 1.384 . S
N592 C588 1.427 . S
N592 C589 1.384 . S
N593 C585 1.427 . S
N593 C591 1.384 . S
H594 C600 0.930 1_556 S
H595 C604 0.930 1_554 S
H596 C609 0.929 . S
H597 C607 0.929 . S
H598 C602 0.929 . S
H599 C608 0.929 . S
C600 H594 0.930 1_554 S
C600 C601 1.367 . S
C600 C608 1.378 1_554 S
C601 C600 1.367 . S
C601 C609 1.433 . S
C602 H598 0.929 . S
C602 C604 1.378 1_554 S
C602 C606 1.350 1_554 S
C603 C606 1.463 1_554 S
C603 C608 1.350 1_554 S
C603 N611 1.427 . S
C604 H595 0.930 1_556 S
C604 C602 1.378 1_556 S
C604 C605 1.367 . S
C605 C604 1.367 . S
C605 C607 1.433 . S
C606 C602 1.350 1_556 S
C606 C603 1.463 1_556 S
C606 N610 1.427 . S
C607 H597 0.929 . S
C607 C605 1.433 . S
C607 N610 1.384 . S
C608 H599 0.929 . S
C608 C600 1.378 1_556 S
C608 C603 1.350 1_556 S
C609 H596 0.929 . S
C609 C601 1.433 . S
C609 N611 1.384 . S
N610 C606 1.427 . S
N610 C607 1.384 . S
N611 C603 1.427 . S
N611 C609 1.384 . S
H612 C618 0.930 . S
H613 C622 0.930 . S
H614 C627 0.928 1_565 S
H615 C625 0.929 . S
H616 C620 0.929 . S
H617 C626 0.929 . S
C618 H612 0.930 . S
C618 C619 1.367 . S
C618 C626 1.378 . S
C619 C618 1.367 . S
C619 C627 1.433 . S
C620 H616 0.929 . S
C620 C622 1.378 . S
C620 C624 1.350 . S
C621 C624 1.463 1_556 S
C621 C626 1.350 . S
C621 N629 1.428 . S
C622 H613 0.930 . S
C622 C620 1.378 . S
C622 C623 1.367 . S
C623 C622 1.367 . S
C623 C625 1.433 . S
C624 C620 1.350 . S
C624 C621 1.463 1_554 S
C624 N628 1.434 . S
C625 H615 0.929 . S
C625 C623 1.433 . S
C625 N628 1.397 . S
C626 H617 0.929 . S
C626 C618 1.378 . S
C626 C621 1.350 . S
C627 H614 0.928 1_545 S
C627 C619 1.433 . S
C627 N629 1.385 . S
N628 C624 1.434 . S
N628 C625 1.397 . S
N629 C621 1.428 . S
N629 C627 1.385 . S
H630 C636 0.930 . S
H631 C640 0.930 . S
H632 C645 0.929 . S
H633 C643 0.929 . S
H634 C638 0.929 . S
H635 C644 0.929 . S
C636 H630 0.930 . S
C636 C637 1.367 . S
C636 C644 1.378 . S
C637 C636 1.367 . S
C637 C645 1.433 . S
C638 H634 0.929 . S
C638 C640 1.378 . S
C638 C642 1.350 . S
C639 C642 1.463 1_554 S
C639 C644 1.350 . S
C639 N647 1.427 . S
C640 H631 0.930 . S
C640 C638 1.378 . S
C640 C641 1.367 . S
C641 C640 1.367 . S
C641 C643 1.433 . S
C642 C638 1.350 . S
C642 C639 1.463 1_556 S
C642 N646 1.427 . S
C643 H633 0.929 . S
C643 C641 1.433 . S
C643 N646 1.384 . S
C644 H635 0.929 . S
C644 C636 1.378 . S
C644 C639 1.350 . S
C645 H632 0.929 . S
C645 C637 1.433 . S
C645 N647 1.384 . S
N646 C642 1.427 . S
N646 C643 1.384 . S
N647 C639 1.427 . S
N647 C645 1.384 . S
H648 C654 0.930 . S
H649 C658 0.930 . S
H650 C663 0.929 . S
H651 C661 0.929 . S
H652 C656 0.929 . S
H653 C662 0.929 . S
C654 H648 0.930 . S
C654 C655 1.367 1_554 S
C654 C662 1.378 . S
C655 C654 1.367 1_556 S
C655 C663 1.433 . S
C656 H652 0.929 . S
C656 C658 1.378 . S
C656 C660 1.350 1_556 S
C657 C660 1.463 1_556 S
C657 C662 1.350 1_556 S
C657 N665 1.427 . S
C658 H649 0.930 . S
C658 C656 1.378 . S
C658 C659 1.367 1_556 S
C659 C658 1.367 1_554 S
C659 C661 1.433 . S
C660 C656 1.350 1_554 S
C660 C657 1.463 1_554 S
C660 N664 1.427 . S
C661 H651 0.929 . S
C661 C659 1.433 . S
C661 N664 1.384 . S
C662 H653 0.929 . S
C662 C654 1.378 . S
C662 C657 1.350 1_554 S
C663 H650 0.929 . S
C663 C655 1.433 . S
C663 N665 1.384 . S
N664 C660 1.427 . S
N664 C661 1.384 . S
N665 C657 1.427 . S
N665 C663 1.384 . S
H666 C672 0.930 . S
H667 C676 0.930 . S
H668 C681 0.929 . S
H669 C679 0.929 . S
H670 C674 0.929 . S
H671 C680 0.929 . S
C672 H666 0.930 . S
C672 C673 1.367 . S
C672 C680 1.378 . S
C673 C672 1.367 . S
C673 C681 1.433 . S
C674 H670 0.929 . S
C674 C676 1.378 . S
C674 C678 1.350 . S
C675 C678 1.463 . S
C675 C680 1.350 . S
C675 N683 1.427 . S
C676 H667 0.930 . S
C676 C674 1.378 . S
C676 C677 1.367 . S
C677 C676 1.367 . S
C677 C679 1.433 . S
C678 C674 1.350 . S
C678 C675 1.463 . S
C678 N682 1.427 . S
C679 H669 0.929 . S
C679 C677 1.433 . S
C679 N682 1.384 . S
C680 H671 0.929 . S
C680 C672 1.378 . S
C680 C675 1.350 . S
C681 H668 0.929 . S
C681 C673 1.433 . S
C681 N683 1.384 . S
N682 C678 1.427 . S
N682 C679 1.384 . S
N683 C675 1.427 . S
N683 C681 1.384 . S
H684 C690 0.930 . S
H685 C694 0.930 . S
H686 C699 0.929 . S
H687 C697 0.929 . S
H688 C692 0.929 . S
H689 C698 0.929 . S
C690 H684 0.930 . S
C690 C691 1.367 . S
C690 C698 1.378 . S
C691 C690 1.367 . S
C691 C699 1.433 . S
C692 H688 0.929 . S
C692 C694 1.378 . S
C692 C696 1.350 . S
C693 C696 1.463 . S
C693 C698 1.350 . S
C693 N701 1.427 . S
C694 H685 0.930 . S
C694 C692 1.378 . S
C694 C695 1.367 . S
C695 C694 1.367 . S
C695 C697 1.433 . S
C696 C692 1.350 . S
C696 C693 1.463 . S
C696 N700 1.427 . S
C697 H687 0.929 . S
C697 C695 1.433 . S
C697 N700 1.384 . S
C698 H689 0.929 . S
C698 C690 1.378 . S
C698 C693 1.350 . S
C699 H686 0.929 . S
C699 C691 1.433 . S
C699 N701 1.384 . S
N700 C696 1.427 . S
N700 C697 1.384 . S
N701 C693 1.427 . S
N701 C699 1.384 . S
H702 C708 0.930 . S
H703 C712 0.930 . S
H704 C717 0.929 . S
H705 C715 0.929 . S
H706 C710 0.929 . S
H707 C716 0.929 . S
C708 H702 0.930 . S
C708 C709 1.367 . S
C708 C716 1.378 . S
C709 C708 1.367 . S
C709 C717 1.433 . S
C710 H706 0.929 . S
C710 C712 1.378 . S
C710 C714 1.350 . S
C711 C714 1.463 . S
C711 C716 1.350 . S
C711 N719 1.427 . S
C712 H703 0.930 . S
C712 C710 1.378 . S
C712 C713 1.367 . S
C713 C712 1.367 . S
C713 C715 1.433 . S
C714 C710 1.350 . S
C714 C711 1.463 . S
C714 N718 1.427 . S
C715 H705 0.929 . S
C715 C713 1.433 . S
C715 N718 1.384 . S
C716 H707 0.929 . S
C716 C708 1.378 . S
C716 C711 1.350 . S
C717 H704 0.929 . S
C717 C709 1.433 . S
C717 N719 1.384 . S
N718 C714 1.427 . S
N718 C715 1.384 . S
N719 C711 1.427 . S
N719 C717 1.384 . S
H720 C726 0.930 . S
H721 C730 0.930 . S
H722 C735 0.929 . S
H723 C733 0.929 . S
H724 C728 0.929 . S
H725 C734 0.929 . S
C726 H720 0.930 . S
C726 C727 1.367 . S
C726 C734 1.378 . S
C727 C726 1.367 . S
C727 C735 1.433 . S
C728 H724 0.929 . S
C728 C730 1.378 . S
C728 C732 1.350 . S
C729 C732 1.463 . S
C729 C734 1.350 . S
C729 N737 1.427 . S
C730 H721 0.930 . S
C730 C728 1.378 . S
C730 C731 1.367 . S
C731 C730 1.367 . S
C731 C733 1.433 . S
C732 C728 1.350 . S
C732 C729 1.463 . S
C732 N736 1.427 . S
C733 H723 0.929 . S
C733 C731 1.433 . S
C733 N736 1.384 . S
C734 H725 0.929 . S
C734 C726 1.378 . S
C734 C729 1.350 . S
C735 H722 0.929 . S
C735 C727 1.433 . S
C735 N737 1.384 . S
N736 C732 1.427 . S
N736 C733 1.384 . S
N737 C729 1.427 . S
N737 C735 1.384 . S
H738 C744 0.930 . S
H739 C748 0.930 . S
H740 C753 0.929 . S
H741 C751 0.929 . S
H742 C746 0.929 . S
H743 C752 0.929 . S
C744 H738 0.930 . S
C744 C745 1.367 1_565 S
C744 C752 1.378 . S
C745 C744 1.367 1_545 S
C745 C753 1.433 . S
C746 H742 0.929 . S
C746 C748 1.378 . S
C746 C750 1.350 . S
C747 C750 1.463 . S
C747 C752 1.350 1_545 S
C747 N755 1.427 . S
C748 H739 0.930 . S
C748 C746 1.378 . S
C748 C749 1.367 1_545 S
C749 C748 1.367 1_565 S
C749 C751 1.433 . S
C750 C746 1.350 . S
C750 C747 1.463 . S
C750 N754 1.427 1_545 S
C751 H741 0.929 . S
C751 C749 1.433 . S
C751 N754 1.384 . S
C752 H743 0.929 . S
C752 C744 1.378 . S
C752 C747 1.350 1_565 S
C753 H740 0.929 . S
C753 C745 1.433 . S
C753 N755 1.384 . S
N754 C750 1.427 1_565 S
N754 C751 1.384 . S
N755 C747 1.427 . S
N755 C753 1.384 . S
H756 C762 0.930 1_455 S
H757 C766 0.930 . S
H758 C771 0.929 . S
H759 C769 0.929 . S
H760 C764 0.929 . S
H761 C770 0.905 1_455 S
C762 H756 0.930 1_655 S
C762 C763 1.367 . S
C762 C770 1.397 . S
C763 C762 1.367 . S
C763 C771 1.433 . S
C764 H760 0.929 . S
C764 C766 1.378 . S
C764 C768 1.350 . S
C765 C768 1.463 . S
C765 C770 1.355 . S
C765 N773 1.427 . S
C766 H757 0.930 . S
C766 C764 1.378 . S
C766 C767 1.367 1_655 S
C767 C766 1.367 1_455 S
C767 C769 1.433 . S
C768 C764 1.350 . S
C768 C765 1.463 . S
C768 N772 1.427 1_655 S
C769 H759 0.929 . S
C769 C767 1.433 . S
C769 N772 1.384 . S
C770 H761 0.905 1_655 S
C770 C762 1.397 . S
C770 C765 1.355 . S
C771 H758 0.929 . S
C771 C763 1.433 . S
C771 N773 1.384 . S
N772 C768 1.427 1_455 S
N772 C769 1.384 . S
N773 C765 1.427 . S
N773 C771 1.384 . S
H774 C780 0.930 . S
H775 C784 0.930 . S
H776 C789 0.929 . S
H777 C787 0.929 . S
H778 C782 0.929 . S
H779 C788 0.929 . S
C780 H774 0.930 . S
C780 C781 1.367 . S
C780 C788 1.378 . S
C781 C780 1.367 . S
C781 C789 1.433 . S
C782 H778 0.929 . S
C782 C784 1.378 . S
C782 C786 1.350 . S
C783 C786 1.463 . S
C783 C788 1.350 . S
C783 N791 1.427 . S
C784 H775 0.930 . S
C784 C782 1.378 . S
C784 C785 1.367 . S
C785 C784 1.367 . S
C785 C787 1.433 . S
C786 C782 1.350 . S
C786 C783 1.463 . S
C786 N790 1.427 . S
C787 H777 0.929 . S
C787 C785 1.433 . S
C787 N790 1.384 . S
C788 H779 0.929 . S
C788 C780 1.378 . S
C788 C783 1.350 . S
C789 H776 0.929 . S
C789 C781 1.433 . S
C789 N791 1.384 . S
N790 C786 1.427 . S
N790 C787 1.384 . S
N791 C783 1.427 . S
N791 C789 1.384 . S
H792 C798 0.930 . S
H793 C802 0.930 . S
H794 C807 0.929 . S
H795 C805 0.929 . S
H796 C800 0.929 . S
H797 C806 0.929 . S
C798 H792 0.930 . S
C798 C799 1.367 1_565 S
C798 C806 1.378 . S
C799 C798 1.367 1_545 S
C799 C807 1.433 . S
C800 H796 0.929 . S
C800 C802 1.378 . S
C800 C804 1.350 1_545 S
C801 C804 1.463 . S
C801 C806 1.350 . S
C801 N809 1.427 1_565 S
C802 H793 0.930 . S
C802 C800 1.378 . S
C802 C803 1.367 1_545 S
C803 C802 1.367 1_565 S
C803 C805 1.433 . S
C804 C800 1.350 1_565 S
C804 C801 1.463 . S
C804 N808 1.427 . S
C805 H795 0.929 . S
C805 C803 1.433 . S
C805 N808 1.384 . S
C806 H797 0.929 . S
C806 C798 1.378 . S
C806 C801 1.350 . S
C807 H794 0.929 . S
C807 C799 1.433 . S
C807 N809 1.384 . S
N808 C804 1.427 . S
N808 C805 1.384 . S
N809 C801 1.427 1_545 S
N809 C807 1.384 . S
H810 C816 0.930 . S
H811 C820 0.930 . S
H812 C825 0.929 . S
H813 C823 0.929 . S
H814 C818 0.929 . S
H815 C824 0.929 . S
C816 H810 0.930 . S
C816 C817 1.367 1_655 S
C816 C824 1.378 . S
C817 C816 1.367 1_455 S
C817 C825 1.433 . S
C818 H814 0.929 . S
C818 C820 1.378 . S
C818 C822 1.350 . S
C819 C822 1.463 . S
C819 C824 1.350 1_455 S
C819 N827 1.427 . S
C820 H811 0.930 . S
C820 C818 1.378 . S
C820 C821 1.367 1_455 S
C821 C820 1.367 1_655 S
C821 C823 1.433 . S
C822 C818 1.350 . S
C822 C819 1.463 . S
C822 N826 1.427 1_455 S
C823 H813 0.929 . S
C823 C821 1.433 . S
C823 N826 1.384 . S
C824 H815 0.929 . S
C824 C816 1.378 . S
C824 C819 1.350 1_655 S
C825 H812 0.929 . S
C825 C817 1.433 . S
C825 N827 1.384 . S
N826 C822 1.427 1_655 S
N826 C823 1.384 . S
N827 C819 1.427 . S
N827 C825 1.384 . S
H828 C834 0.930 . S
H829 C838 0.930 . S
H830 C843 0.929 . S
H831 C841 0.929 . S
H832 C836 0.929 . S
H833 C842 0.929 . S
C834 H828 0.930 . S
C834 C835 1.367 . S
C834 C842 1.378 . S
C835 C834 1.367 . S
C835 C843 1.433 . S
C836 H832 0.929 . S
C836 C838 1.378 . S
C836 C840 1.350 . S
C837 C840 1.463 . S
C837 C842 1.350 . S
C837 N845 1.427 . S
C838 H829 0.930 . S
C838 C836 1.378 . S
C838 C839 1.367 . S
C839 C838 1.367 . S
C839 C841 1.433 . S
C840 C836 1.350 . S
C840 C837 1.463 . S
C840 N844 1.427 . S
C841 H831 0.929 . S
C841 C839 1.433 . S
C841 N844 1.384 . S
C842 H833 0.929 . S
C842 C834 1.378 . S
C842 C837 1.350 . S
C843 H830 0.929 . S
C843 C835 1.433 . S
C843 N845 1.384 . S
N844 C840 1.427 . S
N844 C841 1.384 . S
N845 C837 1.427 . S
N845 C843 1.384 . S
H846 C852 0.930 . S
H847 C856 0.930 . S
H848 C861 0.929 . S
H849 C859 0.929 . S
H850 C854 0.929 . S
H851 C860 0.929 . S
C852 H846 0.930 . S
C852 C853 1.367 . S
C852 C860 1.378 . S
C853 C852 1.367 . S
C853 C861 1.433 . S
C854 H850 0.929 . S
C854 C856 1.378 . S
C854 C858 1.350 . S
C855 C858 1.463 . S
C855 C860 1.350 . S
C855 N863 1.427 . S
C856 H847 0.930 . S
C856 C854 1.378 . S
C856 C857 1.367 . S
C857 C856 1.367 . S
C857 C859 1.433 . S
C858 C854 1.350 . S
C858 C855 1.463 . S
C858 N862 1.427 . S
C859 H849 0.929 . S
C859 C857 1.433 . S
C859 N862 1.384 . S
C860 H851 0.929 . S
C860 C852 1.378 . S
C860 C855 1.350 . S
C861 H848 0.929 . S
C861 C853 1.433 . S
C861 N863 1.384 . S
N862 C858 1.427 . S
N862 C859 1.384 . S
N863 C855 1.427 . S
N863 C861 1.384 . S
H864 C870 0.930 . S
H865 C874 0.930 . S
H866 C879 0.929 . S
H867 C877 0.929 . S
H868 C872 0.929 . S
H869 C878 0.929 . S
C870 H864 0.930 . S
C870 C871 1.367 . S
C870 C878 1.378 . S
C871 C870 1.367 . S
C871 C879 1.433 . S
C872 H868 0.929 . S
C872 C874 1.378 . S
C872 C876 1.350 . S
C873 C876 1.463 . S
C873 C878 1.350 . S
C873 N881 1.427 . S
C874 H865 0.930 . S
C874 C872 1.378 . S
C874 C875 1.367 . S
C875 C874 1.367 . S
C875 C877 1.433 . S
C876 C872 1.350 . S
C876 C873 1.463 . S
C876 N880 1.427 . S
C877 H867 0.929 . S
C877 C875 1.433 . S
C877 N880 1.384 . S
C878 H869 0.929 . S
C878 C870 1.378 . S
C878 C873 1.350 . S
C879 H866 0.929 . S
C879 C871 1.433 . S
C879 N881 1.384 . S
N880 C876 1.427 . S
N880 C877 1.384 . S
N881 C873 1.427 . S
N881 C879 1.384 . S
C241 C5 1.930 . S
C245 C44 1.930 . S
C259 C18 1.936 . S
C263 C55 1.936 . S
C277 C70 1.929 . S
C281 C29 1.929 . S
C295 C83 1.929 . S
C299 C122 1.929 . S
C313 C94 1.933 . S
C317 C135 1.933 . S
C331 C146 1.930 . S
C335 C107 1.930 . S
C349 C198 1.936 . S
C353 C159 1.936 . S
C367 C213 1.929 . S
C371 C174 1.929 . S
C385 C224 1.929 . S
C389 C187 1.929 . S
C403 C10 1.643 . S
C407 C127 1.643 . S
C421 C23 1.651 . S
C425 C140 1.651 . S
C439 C147 1.641 . S
C443 C30 1.641 . S
C457 C49 1.650 . S
C461 C160 1.650 . S
C475 C56 1.650 . S
C479 C179 1.650 . S
C493 C75 1.654 . S
C497 C192 1.654 . S
C511 C88 1.652 . S
C515 C199 1.652 . S
C529 C95 1.642 . S
C533 C218 1.642 . S
C547 C225 1.645 . S
C551 C108 1.645 . S
C565 C3 0.847 . S
C569 C62 0.840 . S
C583 C16 0.849 . S
C587 C69 0.841 . S
C601 C31 0.846 . S
C605 C43 0.846 . S
C619 C42 0.851 . S
C623 C17 0.844 . S
C637 C36 0.845 . S
C641 C57 0.853 . S
C655 C68 0.845 . S
C659 C4 0.846 . S
C673 C81 0.844 . S
C677 C134 0.846 . S
C691 C153 0.841 . S
C695 C96 0.842 . S
C709 C121 0.841 . S
C713 C109 0.843 . S
C727 C101 0.840 . S
C731 C120 0.842 . S
C745 C133 0.846 . S
C749 C114 0.846 . S
C763 C148 0.843 . S
C767 C82 0.841 . S
C781 C212 0.842 . S
C785 C161 0.844 . S
C799 C231 0.846 . S
C803 C172 0.846 . S
C817 C185 0.845 . S
C821 C205 0.844 . S
C835 C173 0.844 . S
C839 C200 0.843 . S
C853 C186 0.842 . S
C857 C211 0.844 . S
C871 C166 0.840 . S
C875 C226 0.843 . S
