# Generated by pormake.
# Topology umr, (4)-cn, num edge types: 1
# Building blocks:
#     Node 0, Type 0, BuildingBlock: GALJAG_clean_sbu_0, # of connection points: 4
#     Node 1, Type 0, BuildingBlock: GALJAG_clean_sbu_0, # of connection points: 4
#     Node 2, Type 0, BuildingBlock: GALJAG_clean_sbu_0, # of connection points: 4
#     Node 3, Type 0, BuildingBlock: GALJAG_clean_sbu_0, # of connection points: 4
#     Node 4, Type 0, BuildingBlock: GALJAG_clean_sbu_0, # of connection points: 4
#     Node 5, Type 0, BuildingBlock: GALJAG_clean_sbu_0, # of connection points: 4
#     Node 6, Type 0, BuildingBlock: GALJAG_clean_sbu_0, # of connection points: 4
#     Node 7, Type 0, BuildingBlock: GALJAG_clean_sbu_0, # of connection points: 4
#     Node 8, Type 0, BuildingBlock: GALJAG_clean_sbu_0, # of connection points: 4
#     Node 9, Type 0, BuildingBlock: GALJAG_clean_sbu_0, # of connection points: 4
#     Node 10, Type 0, BuildingBlock: GALJAG_clean_sbu_0, # of connection points: 4
#     Node 11, Type 0, BuildingBlock: GALJAG_clean_sbu_0, # of connection points: 4
#     Node 12, Type 0, BuildingBlock: GALJAG_clean_sbu_0, # of connection points: 4
#     Node 13, Type 0, BuildingBlock: GALJAG_clean_sbu_0, # of connection points: 4
#     Node 14, Type 0, BuildingBlock: GALJAG_clean_sbu_0, # of connection points: 4
#     Node 15, Type 0, BuildingBlock: GALJAG_clean_sbu_0, # of connection points: 4
#     Node 16, Type 0, BuildingBlock: GALJAG_clean_sbu_0, # of connection points: 4
#     Node 17, Type 0, BuildingBlock: GALJAG_clean_sbu_0, # of connection points: 4
#     Node 18, Type 0, BuildingBlock: GALJAG_clean_sbu_0, # of connection points: 4
#     Node 19, Type 0, BuildingBlock: GALJAG_clean_sbu_0, # of connection points: 4
#     Node 20, Type 0, BuildingBlock: GALJAG_clean_sbu_0, # of connection points: 4
#     Node 21, Type 0, BuildingBlock: GALJAG_clean_sbu_0, # of connection points: 4
#     Node 22, Type 0, BuildingBlock: GALJAG_clean_sbu_0, # of connection points: 4
#     Node 23, Type 0, BuildingBlock: GALJAG_clean_sbu_0, # of connection points: 4
#     Node 24, Type 0, BuildingBlock: GALJAG_clean_sbu_0, # of connection points: 4
#     Node 25, Type 0, BuildingBlock: GALJAG_clean_sbu_0, # of connection points: 4
#     Node 26, Type 0, BuildingBlock: GALJAG_clean_sbu_0, # of connection points: 4
#     Node 27, Type 0, BuildingBlock: GALJAG_clean_sbu_0, # of connection points: 4
#     Node 28, Type 0, BuildingBlock: GALJAG_clean_sbu_0, # of connection points: 4
#     Node 29, Type 0, BuildingBlock: GALJAG_clean_sbu_0, # of connection points: 4
#     Node 30, Type 0, BuildingBlock: GALJAG_clean_sbu_0, # of connection points: 4
#     Node 31, Type 0, BuildingBlock: GALJAG_clean_sbu_0, # of connection points: 4
#     Edge 32, Type (0, 0), BuildingBlock: ZUJKAS_clean_linker_0, # of connection points: 2
#     Edge 33, Type (0, 0), BuildingBlock: ZUJKAS_clean_linker_0, # of connection points: 2
#     Edge 34, Type (0, 0), BuildingBlock: ZUJKAS_clean_linker_0, # of connection points: 2
#     Edge 35, Type (0, 0), BuildingBlock: ZUJKAS_clean_linker_0, # of connection points: 2
#     Edge 36, Type (0, 0), BuildingBlock: ZUJKAS_clean_linker_0, # of connection points: 2
#     Edge 37, Type (0, 0), BuildingBlock: ZUJKAS_clean_linker_0, # of connection points: 2
#     Edge 38, Type (0, 0), BuildingBlock: ZUJKAS_clean_linker_0, # of connection points: 2
#     Edge 39, Type (0, 0), BuildingBlock: ZUJKAS_clean_linker_0, # of connection points: 2
#     Edge 40, Type (0, 0), BuildingBlock: ZUJKAS_clean_linker_0, # of connection points: 2
#     Edge 41, Type (0, 0), BuildingBlock: ZUJKAS_clean_linker_0, # of connection points: 2
#     Edge 42, Type (0, 0), BuildingBlock: ZUJKAS_clean_linker_0, # of connection points: 2
#     Edge 43, Type (0, 0), BuildingBlock: ZUJKAS_clean_linker_0, # of connection points: 2
#     Edge 44, Type (0, 0), BuildingBlock: ZUJKAS_clean_linker_0, # of connection points: 2
#     Edge 45, Type (0, 0), BuildingBlock: ZUJKAS_clean_linker_0, # of connection points: 2
#     Edge 46, Type (0, 0), BuildingBlock: ZUJKAS_clean_linker_0, # of connection points: 2
#     Edge 47, Type (0, 0), BuildingBlock: ZUJKAS_clean_linker_0, # of connection points: 2
#     Edge 48, Type (0, 0), BuildingBlock: ZUJKAS_clean_linker_0, # of connection points: 2
#     Edge 49, Type (0, 0), BuildingBlock: ZUJKAS_clean_linker_0, # of connection points: 2
#     Edge 50, Type (0, 0), BuildingBlock: ZUJKAS_clean_linker_0, # of connection points: 2
#     Edge 51, Type (0, 0), BuildingBlock: ZUJKAS_clean_linker_0, # of connection points: 2
#     Edge 52, Type (0, 0), BuildingBlock: ZUJKAS_clean_linker_0, # of connection points: 2
#     Edge 53, Type (0, 0), BuildingBlock: ZUJKAS_clean_linker_0, # of connection points: 2
#     Edge 54, Type (0, 0), BuildingBlock: ZUJKAS_clean_linker_0, # of connection points: 2
#     Edge 55, Type (0, 0), BuildingBlock: ZUJKAS_clean_linker_0, # of connection points: 2
#     Edge 56, Type (0, 0), BuildingBlock: ZUJKAS_clean_linker_0, # of connection points: 2
#     Edge 57, Type (0, 0), BuildingBlock: ZUJKAS_clean_linker_0, # of connection points: 2
#     Edge 58, Type (0, 0), BuildingBlock: ZUJKAS_clean_linker_0, # of connection points: 2
#     Edge 59, Type (0, 0), BuildingBlock: ZUJKAS_clean_linker_0, # of connection points: 2
#     Edge 60, Type (0, 0), BuildingBlock: ZUJKAS_clean_linker_0, # of connection points: 2
#     Edge 61, Type (0, 0), BuildingBlock: ZUJKAS_clean_linker_0, # of connection points: 2
#     Edge 62, Type (0, 0), BuildingBlock: ZUJKAS_clean_linker_0, # of connection points: 2
#     Edge 63, Type (0, 0), BuildingBlock: ZUJKAS_clean_linker_0, # of connection points: 2
#     Edge 64, Type (0, 0), BuildingBlock: ZUJKAS_clean_linker_0, # of connection points: 2
#     Edge 65, Type (0, 0), BuildingBlock: ZUJKAS_clean_linker_0, # of connection points: 2
#     Edge 66, Type (0, 0), BuildingBlock: ZUJKAS_clean_linker_0, # of connection points: 2
#     Edge 67, Type (0, 0), BuildingBlock: ZUJKAS_clean_linker_0, # of connection points: 2
#     Edge 68, Type (0, 0), BuildingBlock: ZUJKAS_clean_linker_0, # of connection points: 2
#     Edge 69, Type (0, 0), BuildingBlock: ZUJKAS_clean_linker_0, # of connection points: 2
#     Edge 70, Type (0, 0), BuildingBlock: ZUJKAS_clean_linker_0, # of connection points: 2
#     Edge 71, Type (0, 0), BuildingBlock: ZUJKAS_clean_linker_0, # of connection points: 2
#     Edge 72, Type (0, 0), BuildingBlock: ZUJKAS_clean_linker_0, # of connection points: 2
#     Edge 73, Type (0, 0), BuildingBlock: ZUJKAS_clean_linker_0, # of connection points: 2
#     Edge 74, Type (0, 0), BuildingBlock: ZUJKAS_clean_linker_0, # of connection points: 2
#     Edge 75, Type (0, 0), BuildingBlock: ZUJKAS_clean_linker_0, # of connection points: 2
#     Edge 76, Type (0, 0), BuildingBlock: ZUJKAS_clean_linker_0, # of connection points: 2
#     Edge 77, Type (0, 0), BuildingBlock: ZUJKAS_clean_linker_0, # of connection points: 2
#     Edge 78, Type (0, 0), BuildingBlock: ZUJKAS_clean_linker_0, # of connection points: 2
#     Edge 79, Type (0, 0), BuildingBlock: ZUJKAS_clean_linker_0, # of connection points: 2
#     Edge 80, Type (0, 0), BuildingBlock: ZUJKAS_clean_linker_0, # of connection points: 2
#     Edge 81, Type (0, 0), BuildingBlock: ZUJKAS_clean_linker_0, # of connection points: 2
#     Edge 82, Type (0, 0), BuildingBlock: ZUJKAS_clean_linker_0, # of connection points: 2
#     Edge 83, Type (0, 0), BuildingBlock: ZUJKAS_clean_linker_0, # of connection points: 2
#     Edge 84, Type (0, 0), BuildingBlock: ZUJKAS_clean_linker_0, # of connection points: 2
#     Edge 85, Type (0, 0), BuildingBlock: ZUJKAS_clean_linker_0, # of connection points: 2
#     Edge 86, Type (0, 0), BuildingBlock: ZUJKAS_clean_linker_0, # of connection points: 2
#     Edge 87, Type (0, 0), BuildingBlock: ZUJKAS_clean_linker_0, # of connection points: 2
#     Edge 88, Type (0, 0), BuildingBlock: ZUJKAS_clean_linker_0, # of connection points: 2
#     Edge 89, Type (0, 0), BuildingBlock: ZUJKAS_clean_linker_0, # of connection points: 2
#     Edge 90, Type (0, 0), BuildingBlock: ZUJKAS_clean_linker_0, # of connection points: 2
#     Edge 91, Type (0, 0), BuildingBlock: ZUJKAS_clean_linker_0, # of connection points: 2
#     Edge 92, Type (0, 0), BuildingBlock: ZUJKAS_clean_linker_0, # of connection points: 2
#     Edge 93, Type (0, 0), BuildingBlock: ZUJKAS_clean_linker_0, # of connection points: 2
#     Edge 94, Type (0, 0), BuildingBlock: ZUJKAS_clean_linker_0, # of connection points: 2
#     Edge 95, Type (0, 0), BuildingBlock: ZUJKAS_clean_linker_0, # of connection points: 2
# Relax obj value: 0.027
# Max RMSD: 0.060
# Mean RMSD: 0.060
data_MOF--net-umr--node1-GALJAG_clean_sbu_0--edge1-ZUJKAS_clean_linker_0
_symmetry_space_group_name_H-M    P1
_symmetry_Int_Tables_number       1
_symmetry_cell_setting            triclinic
loop_
_symmetry_equiv_pos_as_xyz
'x, y, z'
_cell_length_a     104.4292
_cell_length_b     104.45923
_cell_length_c     36.67789
_cell_angle_alpha  89.996782
_cell_angle_beta   90.00208
_cell_angle_gamma 90.014246
loop_
_atom_site_label
_atom_site_type_symbol
_atom_site_fract_x
_atom_site_fract_y
_atom_site_fract_z
_atom_type_partial_charge
In0 In 0.15607 0.27894 0.04954 0.0
O1 O 0.14917 0.26217 0.08494 0.0
O2 O 0.15857 0.27783 0.11061 0.0
C3 C 0.14949 0.27187 0.98141 0.0
C4 C 0.1404 0.29878 0.06279 0.0
C5 C 0.18169 0.27918 0.04271 0.0
O6 O 0.14728 0.26484 0.00873 0.0
O7 O 0.15484 0.28239 0.98869 0.0
O8 O 0.17513 0.2893 0.04483 0.0
O9 O 0.17532 0.26892 0.04427 0.0
C10 C 0.153 0.26721 0.11434 0.0
O11 O 0.15239 0.30008 0.06065 0.0
O12 O 0.13634 0.28759 0.05707 0.0
In13 In 0.9664 0.9044 0.29209 0.0
O14 O 0.94507 0.90056 0.2973 0.0
O15 O 0.9578 0.88461 0.29873 0.0
C16 C 0.96556 0.9299 0.28149 0.0
C17 C 0.97579 0.90192 0.36019 0.0
C18 C 0.97631 0.89736 0.22722 0.0
O19 O 0.95564 0.92301 0.28117 0.0
O20 O 0.97585 0.92394 0.28746 0.0
O21 O 0.98314 0.89835 0.25553 0.0
O22 O 0.96458 0.89963 0.232 0.0
C23 C 0.94639 0.88859 0.30046 0.0
O24 O 0.98155 0.89738 0.33278 0.0
O25 O 0.96556 0.90779 0.35298 0.0
In26 In 0.34041 0.71663 0.54102 0.0
O27 O 0.3445 0.69553 0.55094 0.0
O28 O 0.36007 0.70871 0.55402 0.0
C29 C 0.31511 0.7155 0.52733 0.0
C30 C 0.34137 0.7277 0.60727 0.0
C31 C 0.34847 0.7247 0.4751 0.0
O32 O 0.32193 0.70557 0.53017 0.0
O33 O 0.32106 0.7259 0.53157 0.0
O34 O 0.34688 0.73232 0.50147 0.0
O35 O 0.34631 0.71311 0.48241 0.0
C36 C 0.3563 0.69726 0.55692 0.0
O37 O 0.34677 0.73266 0.57983 0.0
O38 O 0.33541 0.71745 0.60088 0.0
In39 In 0.53164 0.08952 0.79589 0.0
O40 O 0.55276 0.09353 0.80619 0.0
O41 O 0.53981 0.1093 0.80583 0.0
C42 C 0.53436 0.0642 0.78503 0.0
C43 C 0.52019 0.09181 0.86151 0.0
C44 C 0.52252 0.09615 0.72961 0.0
O45 O 0.54374 0.07182 0.78419 0.0
O46 O 0.52368 0.06936 0.7914 0.0
O47 O 0.5152 0.09327 0.75579 0.0
O48 O 0.53427 0.09593 0.7372 0.0
C49 C 0.55119 0.10546 0.80974 0.0
O50 O 0.51624 0.09781 0.83376 0.0
O51 O 0.52966 0.08461 0.8558 0.0
In52 In 0.15425 0.7161 0.45341 0.0
O53 O 0.14675 0.73309 0.41986 0.0
O54 O 0.15614 0.71785 0.39225 0.0
C55 C 0.1484 0.72245 0.52265 0.0
C56 C 0.13862 0.69615 0.44094 0.0
C57 C 0.17993 0.71583 0.45882 0.0
O58 O 0.1462 0.72993 0.49627 0.0
O59 O 0.15333 0.71188 0.51386 0.0
O60 O 0.17336 0.70574 0.45578 0.0
O61 O 0.17354 0.72609 0.45869 0.0
C62 C 0.15039 0.72842 0.38979 0.0
O63 O 0.15065 0.69505 0.44125 0.0
O64 O 0.1345 0.70726 0.44768 0.0
In65 In 0.52957 0.90508 0.69547 0.0
O66 O 0.51411 0.89738 0.65664 0.0
O67 O 0.52948 0.90823 0.63447 0.0
C68 C 0.51833 0.89793 0.75871 0.0
C69 C 0.54995 0.89 0.68422 0.0
C70 C 0.53304 0.93027 0.70803 0.0
O71 O 0.51215 0.90329 0.73339 0.0
O72 O 0.52995 0.89591 0.75163 0.0
O73 O 0.54114 0.92194 0.7173 0.0
O74 O 0.52322 0.9259 0.6924 0.0
C75 C 0.51937 0.90198 0.62849 0.0
O76 O 0.55092 0.90201 0.68748 0.0
O77 O 0.53871 0.88564 0.6871 0.0
In78 In 0.34137 0.27726 0.95041 0.0
O79 O 0.34424 0.29856 0.94034 0.0
O80 O 0.36059 0.28638 0.93842 0.0
C81 C 0.31619 0.2784 0.96543 0.0
C82 C 0.34288 0.26604 0.88433 0.0
C83 C 0.34948 0.26861 0.01574 0.0
O84 O 0.32304 0.28831 0.96247 0.0
O85 O 0.32205 0.26798 0.96059 0.0
O86 O 0.34696 0.26114 0.98965 0.0
O87 O 0.34825 0.28033 0.00845 0.0
C88 C 0.35616 0.29758 0.93534 0.0
O89 O 0.34963 0.26234 0.91092 0.0
O90 O 0.33534 0.27512 0.89147 0.0
In91 In 0.96514 0.09044 0.20334 0.0
O92 O 0.98188 0.09818 0.16918 0.0
O93 O 0.96708 0.08781 0.14247 0.0
C94 C 0.97152 0.09672 0.27229 0.0
C95 C 0.9449 0.1055 0.1891 0.0
C96 C 0.96529 0.0648 0.20969 0.0
O97 O 0.97893 0.09886 0.24572 0.0
O98 O 0.96096 0.09169 0.2638 0.0
O99 O 0.9551 0.07118 0.20632 0.0
O100 O 0.97545 0.07136 0.20952 0.0
C101 C 0.97741 0.09396 0.13948 0.0
O102 O 0.94398 0.09349 0.19151 0.0
O103 O 0.95595 0.10992 0.19496 0.0
In104 In 0.84112 0.71635 0.9499 0.0
O105 O 0.8437 0.69528 0.9357 0.0
O106 O 0.86032 0.70705 0.93878 0.0
C107 C 0.8158 0.71545 0.96283 0.0
C108 C 0.84355 0.72894 0.88608 0.0
C109 C 0.84857 0.7234 0.01738 0.0
O110 O 0.82246 0.70548 0.95838 0.0
O111 O 0.8219 0.72584 0.96039 0.0
O112 O 0.84719 0.73142 0.9919 0.0
O113 O 0.84651 0.71193 0.00843 0.0
C114 C 0.85572 0.69609 0.93267 0.0
O115 O 0.8504 0.7316 0.91345 0.0
O116 O 0.8354 0.72023 0.89137 0.0
In117 In 0.02646 0.09261 0.70623 0.0
O118 O 0.01242 0.10297 0.66822 0.0
O119 O 0.01978 0.08498 0.65141 0.0
C120 C 0.01928 0.10108 0.77277 0.0
C121 C 0.04704 0.10596 0.68419 0.0
C122 C 0.02863 0.06758 0.72177 0.0
O123 O 0.01127 0.09814 0.74842 0.0
O124 O 0.03082 0.10006 0.76319 0.0
O125 O 0.03823 0.07459 0.71533 0.0
O126 O 0.01794 0.07321 0.7202 0.0
C127 C 0.01285 0.09447 0.6438 0.0
O128 O 0.04749 0.09407 0.69008 0.0
O129 O 0.03629 0.11109 0.68998 0.0
In130 In 0.65467 0.277 0.45101 0.0
O131 O 0.64398 0.26139 0.41922 0.0
O132 O 0.6603 0.27 0.39482 0.0
C133 C 0.64771 0.27239 0.52059 0.0
C134 C 0.64114 0.29731 0.42755 0.0
C135 C 0.68013 0.27726 0.46093 0.0
O136 O 0.6471 0.26389 0.49618 0.0
O137 O 0.65153 0.28317 0.50965 0.0
O138 O 0.67376 0.28728 0.45455 0.0
O139 O 0.67364 0.26706 0.4622 0.0
C140 C 0.65123 0.26212 0.39175 0.0
O141 O 0.65319 0.29745 0.42979 0.0
O142 O 0.63594 0.28705 0.43801 0.0
In143 In 0.46526 0.90437 0.19519 0.0
O144 O 0.4802 0.89631 0.15549 0.0
O145 O 0.46626 0.90932 0.13517 0.0
C146 C 0.47435 0.89703 0.26076 0.0
C147 C 0.4451 0.88904 0.18293 0.0
C148 C 0.46437 0.92973 0.20748 0.0
O149 O 0.48157 0.8985 0.23343 0.0
O150 O 0.46263 0.89894 0.25462 0.0
O151 O 0.4544 0.92293 0.20561 0.0
O152 O 0.47473 0.92374 0.20286 0.0
C153 C 0.47571 0.90222 0.12826 0.0
O154 O 0.44393 0.90099 0.18705 0.0
O155 O 0.4564 0.88485 0.18576 0.0
In156 In 0.84058 0.27734 0.54252 0.0
O157 O 0.85297 0.26568 0.58239 0.0
O158 O 0.83386 0.27007 0.59753 0.0
C159 C 0.8484 0.26865 0.47694 0.0
C160 C 0.8523 0.29947 0.55948 0.0
C161 C 0.81544 0.27778 0.52702 0.0
O162 O 0.84716 0.26134 0.50414 0.0
O163 O 0.84608 0.28028 0.48326 0.0
O164 O 0.82206 0.28787 0.52939 0.0
O165 O 0.82152 0.26752 0.53257 0.0
C166 C 0.84431 0.26492 0.6063 0.0
O167 O 0.84049 0.29772 0.56466 0.0
O168 O 0.85813 0.29011 0.54544 0.0
In169 In 0.46681 0.08969 0.29563 0.0
O170 O 0.44561 0.09312 0.30538 0.0
O171 O 0.45809 0.10925 0.30593 0.0
C172 C 0.46587 0.06422 0.2851 0.0
C173 C 0.47805 0.09207 0.36145 0.0
C174 C 0.4746 0.0968 0.22846 0.0
O175 O 0.45593 0.07102 0.2878 0.0
O176 O 0.47629 0.07026 0.28805 0.0
O177 O 0.48222 0.09633 0.2552 0.0
O178 O 0.46316 0.09401 0.236 0.0
C179 C 0.44683 0.10505 0.30965 0.0
O180 O 0.48272 0.09722 0.33321 0.0
O181 O 0.46806 0.08559 0.35605 0.0
In182 In 0.65565 0.71391 0.04559 0.0
O183 O 0.64965 0.73064 0.08257 0.0
O184 O 0.65663 0.71356 0.10707 0.0
C185 C 0.64972 0.72173 0.97766 0.0
C186 C 0.63992 0.69373 0.053 0.0
C187 C 0.68134 0.71388 0.04094 0.0
O188 O 0.6464 0.72805 0.00552 0.0
O189 O 0.65584 0.71161 0.98434 0.0
O190 O 0.67484 0.7037 0.04234 0.0
O191 O 0.67487 0.72408 0.04227 0.0
C192 C 0.65228 0.72469 0.11165 0.0
O193 O 0.65195 0.69257 0.05226 0.0
O194 O 0.63586 0.70504 0.04936 0.0
In195 In 0.03191 0.9069 0.79328 0.0
O196 O 0.05322 0.90259 0.79608 0.0
O197 O 0.04017 0.88691 0.79765 0.0
C198 C 0.0328 0.9326 0.78798 0.0
C199 C 0.02262 0.90326 0.86107 0.0
C200 C 0.02209 0.901 0.72738 0.0
O201 O 0.04274 0.92574 0.78695 0.0
O202 O 0.02247 0.92649 0.79179 0.0
O203 O 0.01534 0.90093 0.75597 0.0
O204 O 0.03368 0.90386 0.7323 0.0
C205 C 0.05168 0.89063 0.79851 0.0
O206 O 0.0165 0.89978 0.83303 0.0
O207 O 0.03319 0.90864 0.85466 0.0
In208 In 0.65507 0.77773 0.54611 0.0
O209 O 0.64468 0.7636 0.58376 0.0
O210 O 0.66153 0.77267 0.60342 0.0
C211 C 0.64785 0.76963 0.4793 0.0
C212 C 0.64081 0.79816 0.56416 0.0
C213 C 0.68036 0.77948 0.53366 0.0
O214 O 0.64994 0.76198 0.50529 0.0
O215 O 0.64908 0.78129 0.48734 0.0
O216 O 0.67332 0.78924 0.53724 0.0
O217 O 0.67463 0.76889 0.53653 0.0
C218 C 0.65237 0.76515 0.60995 0.0
O219 O 0.65282 0.79883 0.56065 0.0
O220 O 0.63605 0.7873 0.55772 0.0
In221 In 0.4675 0.40336 0.79319 0.0
O222 O 0.48163 0.39371 0.83243 0.0
O223 O 0.47177 0.41032 0.85053 0.0
C224 C 0.47629 0.39585 0.72739 0.0
C225 C 0.44714 0.38882 0.8103 0.0
C226 C 0.4658 0.42851 0.77868 0.0
O227 O 0.48364 0.39763 0.75427 0.0
O228 O 0.46458 0.39751 0.73408 0.0
O229 O 0.45603 0.42146 0.78184 0.0
O230 O 0.47638 0.42287 0.78309 0.0
C231 C 0.47958 0.40152 0.85806 0.0
O232 O 0.44637 0.40083 0.80712 0.0
O233 O 0.45808 0.3842 0.80407 0.0
In234 In 0.83773 0.21391 0.04263 0.0
O235 O 0.8442 0.23017 0.08061 0.0
O236 O 0.83653 0.21319 0.10406 0.0
C237 C 0.84398 0.22217 0.97534 0.0
C238 C 0.85349 0.1938 0.05037 0.0
C239 C 0.81203 0.21396 0.03746 0.0
O240 O 0.84649 0.22867 0.00354 0.0
O241 O 0.83846 0.21165 0.98137 0.0
O242 O 0.81853 0.20378 0.0371 0.0
O243 O 0.81849 0.22411 0.04068 0.0
C244 C 0.84133 0.2241 0.10933 0.0
O245 O 0.84146 0.19259 0.04972 0.0
O246 O 0.85751 0.2051 0.04628 0.0
In247 In 0.02911 0.5896 0.28939 0.0
O248 O 0.01283 0.59618 0.32712 0.0
O249 O 0.02839 0.5857 0.34984 0.0
C250 C 0.02165 0.59679 0.22214 0.0
C251 C 0.04857 0.60557 0.30365 0.0
C252 C 0.02979 0.56413 0.27882 0.0
O253 O 0.01397 0.59662 0.24877 0.0
O254 O 0.03299 0.59365 0.22984 0.0
O255 O 0.03983 0.57079 0.28166 0.0
O256 O 0.01946 0.57032 0.28158 0.0
C257 C 0.01795 0.59144 0.35534 0.0
O258 O 0.05021 0.59369 0.29928 0.0
O259 O 0.03717 0.60939 0.29992 0.0
In260 In 0.65184 0.22128 0.95533 0.0
O261 O 0.65044 0.20068 0.93504 0.0
O262 O 0.63329 0.21157 0.93948 0.0
C263 C 0.67684 0.21941 0.97156 0.0
C264 C 0.65005 0.23608 0.89518 0.0
C265 C 0.6431 0.22646 0.02294 0.0
O266 O 0.67024 0.20987 0.9618 0.0
O267 O 0.67083 0.22989 0.97295 0.0
O268 O 0.64552 0.23521 0.00018 0.0
O269 O 0.64485 0.21526 0.01126 0.0
C270 C 0.63843 0.20105 0.93112 0.0
O271 O 0.64143 0.23593 0.91928 0.0
O272 O 0.6596 0.22913 0.90202 0.0
In273 In 0.02825 0.40337 0.20475 0.0
O274 O 0.0118 0.39751 0.16647 0.0
O275 O 0.02895 0.40489 0.14334 0.0
C276 C 0.01989 0.39701 0.27196 0.0
C277 C 0.04846 0.38773 0.19672 0.0
C278 C 0.02867 0.42903 0.21054 0.0
O279 O 0.01358 0.39425 0.24361 0.0
O280 O 0.0303 0.40276 0.2661 0.0
O281 O 0.03873 0.42235 0.20943 0.0
O282 O 0.01836 0.42276 0.20845 0.0
C283 C 0.01791 0.40042 0.13787 0.0
O284 O 0.04961 0.39973 0.19911 0.0
O285 O 0.03713 0.38361 0.19928 0.0
In286 In 0.8406 0.77828 0.45037 0.0
O287 O 0.84933 0.76268 0.41401 0.0
O288 O 0.83472 0.77454 0.39196 0.0
C289 C 0.84824 0.77105 0.51756 0.0
C290 C 0.85555 0.79807 0.43108 0.0
C291 C 0.81527 0.77984 0.46288 0.0
O292 O 0.84635 0.76306 0.49226 0.0
O293 O 0.84654 0.78257 0.50862 0.0
O294 O 0.82226 0.78965 0.45967 0.0
O295 O 0.82108 0.7693 0.45979 0.0
C296 C 0.84256 0.76557 0.38666 0.0
O297 O 0.84361 0.79923 0.43542 0.0
O298 O 0.85992 0.78702 0.43731 0.0
In299 In 0.46593 0.5888 0.6989 0.0
O300 O 0.48233 0.59699 0.66429 0.0
O301 O 0.46786 0.58602 0.63805 0.0
C302 C 0.47301 0.59444 0.76776 0.0
C303 C 0.4464 0.60487 0.68598 0.0
C304 C 0.4648 0.56316 0.70494 0.0
O305 O 0.48093 0.59437 0.7417 0.0
O306 O 0.46163 0.59194 0.75879 0.0
O307 O 0.45489 0.57004 0.70281 0.0
O308 O 0.47524 0.56922 0.70373 0.0
C309 C 0.47797 0.5925 0.63477 0.0
O310 O 0.44493 0.59288 0.68728 0.0
O311 O 0.45767 0.60872 0.69196 0.0
In312 In 0.3376 0.21353 0.44763 0.0
O313 O 0.34548 0.22961 0.41134 0.0
O314 O 0.33536 0.21426 0.38636 0.0
C315 C 0.34366 0.22132 0.51552 0.0
C316 C 0.35353 0.19372 0.43742 0.0
C317 C 0.31194 0.21293 0.45429 0.0
O318 O 0.34393 0.22886 0.48857 0.0
O319 O 0.34053 0.20997 0.50794 0.0
O320 O 0.31865 0.20289 0.45305 0.0
O321 O 0.31818 0.22324 0.45178 0.0
C322 C 0.34147 0.22456 0.38215 0.0
O323 O 0.34151 0.19238 0.43803 0.0
O324 O 0.35746 0.20501 0.44263 0.0
In325 In 0.52784 0.58977 0.20291 0.0
O326 O 0.5122 0.59752 0.16495 0.0
O327 O 0.52416 0.58252 0.14566 0.0
C328 C 0.52031 0.59884 0.26839 0.0
C329 C 0.54753 0.60438 0.18092 0.0
C330 C 0.52993 0.56492 0.22107 0.0
O331 O 0.51241 0.59579 0.2438 0.0
O332 O 0.5319 0.59766 0.25949 0.0
O333 O 0.53958 0.57201 0.21629 0.0
O334 O 0.51926 0.57036 0.2164 0.0
C335 C 0.51516 0.59019 0.13887 0.0
O336 O 0.5488 0.59261 0.18792 0.0
O337 O 0.53641 0.60878 0.18585 0.0
In338 In 0.15033 0.77614 0.9566 0.0
O339 O 0.13991 0.76197 0.91908 0.0
O340 O 0.15843 0.76833 0.90362 0.0
C341 C 0.14161 0.76966 0.02342 0.0
C342 C 0.13735 0.79639 0.93069 0.0
C343 C 0.17524 0.77847 0.97352 0.0
O344 O 0.14433 0.76141 -0.00049 0.0
O345 O 0.14293 0.7811 0.01321 0.0
O346 O 0.16821 0.78804 0.96695 0.0
O347 O 0.16968 0.76776 0.97143 0.0
C348 C 0.14874 0.76172 0.89563 0.0
O349 O 0.14932 0.79661 0.93526 0.0
O350 O 0.13195 0.7861 0.94001 0.0
In351 In 0.96341 0.40169 0.70435 0.0
O352 O 0.97558 0.38969 0.66473 0.0
O353 O 0.96953 0.40813 0.64787 0.0
C354 C 0.97249 0.3946 0.77028 0.0
C355 C 0.94157 0.38905 0.68979 0.0
C356 C 0.9623 0.42697 0.71756 0.0
O357 O 0.97974 0.39623 0.74311 0.0
O358 O 0.96075 0.3962 0.76381 0.0
O359 O 0.95239 0.42009 0.71524 0.0
O360 O 0.97274 0.42108 0.71321 0.0
C361 C 0.97542 0.39802 0.6398 0.0
O362 O 0.94251 0.40105 0.68674 0.0
O363 O 0.95161 0.38348 0.70046 0.0
In364 In 0.33602 0.77987 0.04412 0.0
O365 O 0.34002 0.80095 0.05477 0.0
O366 O 0.35587 0.78813 0.05226 0.0
C367 C 0.31041 0.78138 0.037 0.0
C368 C 0.33958 0.76829 0.10899 0.0
C369 C 0.34222 0.77181 0.97651 0.0
O370 O 0.31749 0.79117 0.03739 0.0
O371 O 0.31626 0.77088 0.0403 0.0
O372 O 0.341 0.76417 0.00296 0.0
O373 O 0.34055 0.78343 0.98441 0.0
C374 C 0.35199 0.79944 0.05732 0.0
O375 O 0.3442 0.76379 0.07981 0.0
O376 O 0.33301 0.77831 0.10506 0.0
In377 In 0.96506 0.58784 0.79033 0.0
O378 O 0.94391 0.59146 0.80161 0.0
O379 O 0.95662 0.60741 0.80155 0.0
C380 C 0.9634 0.56246 0.77909 0.0
C381 C 0.97706 0.59009 0.85511 0.0
C382 C 0.97332 0.59483 0.72354 0.0
O383 O 0.95361 0.56948 0.78209 0.0
O384 O 0.97395 0.56825 0.7819 0.0
O385 O 0.9809 0.59301 0.74986 0.0
O386 O 0.96164 0.59342 0.73123 0.0
C387 C 0.94533 0.60337 0.8059 0.0
O388 O 0.98048 0.59644 0.82747 0.0
O389 O 0.96786 0.58251 0.84967 0.0
In390 In 0.15242 0.21722 0.54789 0.0
O391 O 0.14205 0.23098 0.5867 0.0
O392 O 0.15921 0.22218 0.60498 0.0
C393 C 0.14447 0.22526 0.48177 0.0
C394 C 0.13862 0.1963 0.56415 0.0
C395 C 0.17754 0.21581 0.53265 0.0
O396 O 0.14704 0.23299 0.50724 0.0
O397 O 0.14562 0.21362 0.49005 0.0
O398 O 0.17075 0.20598 0.53798 0.0
O399 O 0.17167 0.22633 0.53536 0.0
C400 C 0.14999 0.22951 0.61231 0.0
O401 O 0.15067 0.196 0.56151 0.0
O402 O 0.13361 0.20711 0.55844 0.0
In403 In 0.5329 0.40497 0.29502 0.0
O404 O 0.51626 0.39888 0.33224 0.0
O405 O 0.53411 0.40374 0.35644 0.0
C406 C 0.52408 0.40069 0.22702 0.0
C407 C 0.55321 0.38922 0.29642 0.0
C408 C 0.53333 0.4307 0.29622 0.0
O409 O 0.51856 0.39609 0.25477 0.0
O410 O 0.5339 0.40728 0.23383 0.0
O411 O 0.5434 0.42403 0.29557 0.0
O412 O 0.52303 0.42438 0.29669 0.0
C413 C 0.52274 0.40008 0.36117 0.0
O414 O 0.55433 0.40124 0.29762 0.0
O415 O 0.54185 0.38518 0.29391 0.0
H416 H 0.29982 0.25829 0.97326 0.0
H417 H 0.27698 0.25908 0.98786 0.0
H418 H 0.27869 0.3003 0.99259 0.0
H419 H 0.30153 0.29962 0.97759 0.0
H420 H 0.26522 0.26995 0.0502 0.0
H421 H 0.2489 0.29305 0.92179 0.0
H422 H 0.26449 0.28575 0.92633 0.0
H423 H 0.26151 0.3013 0.94544 0.0
C424 C 0.29532 0.26753 0.97726 0.0
C425 C 0.30242 0.2789 0.97412 0.0
C426 C 0.28229 0.26796 0.98565 0.0
C427 C 0.27615 0.27975 0.99084 0.0
C428 C 0.28323 0.29112 0.98804 0.0
H429 H 0.19729 0.30005 0.03833 0.0
H430 H 0.22045 0.30032 0.02807 0.0
C431 C 0.29627 0.29071 0.97964 0.0
C432 C 0.26236 0.28009 -0.00026 0.0
H433 H 0.23335 0.29009 0.96789 0.0
C434 C 0.25823 0.27433 0.03224 0.0
C435 C 0.25333 0.28584 0.9762 0.0
C436 C 0.25722 0.29175 0.94032 0.0
C437 C 0.24525 0.27427 0.04202 0.0
C438 C 0.2362 0.27993 0.01833 0.0
C439 C 0.24035 0.28578 0.98598 0.0
C440 C 0.22232 0.2797 0.02619 0.0
C441 C 0.24136 0.26831 0.07783 0.0
C442 C 0.21574 0.26801 0.02836 0.0
C443 C 0.20254 0.26783 0.03426 0.0
C444 C 0.1957 0.27934 0.03782 0.0
C445 C 0.20232 0.29103 0.03575 0.0
C446 C 0.21553 0.2912 0.02987 0.0
H447 H 0.24959 0.26752 0.09688 0.0
H448 H 0.23368 0.27397 0.09118 0.0
H449 H 0.23763 0.25853 0.07276 0.0
H450 H 0.22079 0.25904 0.02484 0.0
H451 H 0.19767 0.25868 0.03554 0.0
H452 H 0.9858 0.94634 0.27956 0.0
H453 H 0.98536 0.96933 0.26694 0.0
H454 H 0.94431 0.96779 0.25465 0.0
H455 H 0.94465 0.94479 0.26759 0.0
H456 H 0.97585 0.98145 0.20321 0.0
H457 H 0.95009 -0.00282 0.32803 0.0
H458 H 0.95749 0.98162 0.32416 0.0
H459 H 0.94235 0.98467 0.30262 0.0
C460 C 0.97667 0.95091 0.2744 0.0
C461 C 0.96525 0.9438 0.27469 0.0
C462 C 0.97644 0.96403 0.26714 0.0
C463 C 0.9648 0.97025 0.2603 0.0
C464 C 0.95337 0.96318 0.2605 0.0
H465 H 0.94465 0.04885 0.21088 0.0
H466 H 0.94458 0.0257 0.2212 0.0
C467 C 0.95359 0.95005 0.26773 0.0
C468 C 0.96467 0.98408 0.25197 0.0
H469 H 0.95383 0.01291 0.28281 0.0
C470 C 0.97107 0.98836 0.22061 0.0
C471 C 0.9584 0.993 0.27476 0.0
C472 C 0.95177 0.98895 0.30946 0.0
C473 C 0.97123 0.00136 0.21115 0.0
C474 C 0.96501 0.0103 0.23404 0.0
C475 C 0.95857 0.00601 0.26532 0.0
C476 C 0.96517 0.02418 0.2263 0.0
C477 C 0.97785 0.0054 0.17642 0.0
C478 C 0.97677 0.03095 0.22591 0.0
C479 C 0.97684 0.04416 0.21994 0.0
C480 C 0.96529 0.05079 0.21455 0.0
C481 C 0.95369 0.04397 0.21487 0.0
C482 C 0.95363 0.03077 0.2208 0.0
H483 H 0.97915 -0.00279 0.15744 0.0
H484 H 0.97235 0.01301 0.16224 0.0
H485 H 0.98746 0.00926 0.18314 0.0
H486 H 0.98575 0.02606 0.23082 0.0
H487 H 0.98591 0.04918 0.22005 0.0
H488 H 0.19552 0.69491 0.4614 0.0
H489 H 0.21864 0.69452 0.47247 0.0
H490 H 0.2191 0.73576 0.47766 0.0
H491 H 0.19597 0.73624 0.46702 0.0
H492 H 0.23874 0.70613 0.4325 0.0
H493 H 0.23584 0.72463 0.57423 0.0
H494 H 0.22206 0.71857 0.55004 0.0
H495 H 0.22793 0.73441 0.54085 0.0
C496 C 0.20055 0.70389 0.46483 0.0
C497 C 0.19395 0.71561 0.4636 0.0
C498 C 0.21374 0.70365 0.47112 0.0
C499 C 0.2205 0.7151 0.47645 0.0
C500 C 0.21399 0.72682 0.47431 0.0
H501 H 0.29885 0.73571 0.52062 0.0
H502 H 0.27591 0.73512 0.50738 0.0
C503 C 0.2008 0.72707 0.46804 0.0
C504 C 0.23437 0.71478 0.48429 0.0
H505 H 0.2566 0.72287 0.54846 0.0
C506 C 0.24267 0.70972 0.4579 0.0
C507 C 0.2394 0.71945 0.51752 0.0
C508 C 0.23086 0.72447 0.54747 0.0
C509 C 0.25596 0.70949 0.4635 0.0
C510 C 0.26099 0.71428 0.4966 0.0
C511 C 0.25268 0.71924 0.52309 0.0
C512 C 0.27489 0.71447 0.50407 0.0
C513 C 0.26453 0.70446 0.43365 0.0
C514 C 0.28185 0.70302 0.50692 0.0
C515 C 0.29496 0.70332 0.51449 0.0
C516 C 0.30127 0.71507 0.51948 0.0
C517 C 0.29424 0.7265 0.51685 0.0
C518 C 0.28115 0.7262 0.50931 0.0
H519 H 0.25946 0.70389 0.40707 0.0
H520 H 0.27312 0.71061 0.43039 0.0
H521 H 0.26781 0.69468 0.44096 0.0
H522 H 0.27712 0.69387 0.50361 0.0
H523 H 0.30014 0.69437 0.51652 0.0
H524 H 0.51587 0.04596 0.79111 0.0
H525 H 0.51793 0.023 0.77954 0.0
H526 H 0.55783 0.02811 0.75296 0.0
H527 H 0.55586 0.05116 0.76453 0.0
H528 H 0.54273 0.01351 0.70089 0.0
H529 H 0.53741 0.99621 0.84329 0.0
H530 H 0.52539 0.00743 0.82884 0.0
H531 H 0.54178 0.0125 0.83236 0.0
C532 C 0.5251 0.04219 0.783 0.0
C533 C 0.53572 0.05032 0.77877 0.0
C534 C 0.52627 0.02908 0.77659 0.0
C535 C 0.53806 0.0239 0.76586 0.0
C536 C 0.54868 0.03197 0.76147 0.0
H537 H 0.55209 0.94165 0.74737 0.0
H538 H 0.5546 0.96452 0.76057 0.0
C539 C 0.54754 0.0451 0.7681 0.0
C540 C 0.5391 0.01009 0.75786 0.0
H541 H 0.53564 0.98055 0.79627 0.0
C542 C 0.54132 0.00628 0.72175 0.0
C543 C 0.53737 0.00075 0.78528 0.0
C544 C 0.53547 0.00438 0.82471 0.0
C545 C 0.54135 0.9933 0.71205 0.0
C546 C 0.53903 0.98398 0.73919 0.0
C547 C 0.53732 0.98777 0.77554 0.0
C548 C 0.53781 0.97027 0.73015 0.0
C549 C 0.54375 0.98963 0.67286 0.0
C550 C 0.52749 0.966 0.70895 0.0
C551 C 0.52599 0.95298 0.70156 0.0
C552 C 0.5348 0.94404 0.71527 0.0
C553 C 0.54518 0.94835 0.73637 0.0
C554 C 0.54662 0.96137 0.74394 0.0
H555 H 0.54838 -0.00248 0.65739 0.0
H556 H 0.5499 0.98098 0.67117 0.0
H557 H 0.53447 0.9874 0.65953 0.0
H558 H 0.52049 0.97273 0.69857 0.0
H559 H 0.51789 0.94992 0.68529 0.0
H560 H 0.69711 0.69316 0.03576 0.0
H561 H 0.72026 0.69316 0.02522 0.0
H562 H 0.7203 0.73446 0.0246 0.0
H563 H 0.69719 0.73454 0.03553 0.0
H564 H 0.73276 0.70412 0.96496 0.0
H565 H 0.74953 0.72553 0.09506 0.0
H566 H 0.73366 0.71893 0.08957 0.0
H567 H 0.73734 0.73459 0.07212 0.0
C568 C 0.70208 0.70224 0.03376 0.0
C569 C 0.69537 0.71386 0.03653 0.0
C570 C 0.71528 0.70222 0.02771 0.0
C571 C 0.72198 0.7138 0.02458 0.0
C572 C 0.71533 0.72542 0.02765 0.0
H573 H 0.79964 0.73564 0.97265 0.0
H574 H 0.77677 0.7349 0.98701 0.0
C575 C 0.70213 0.72545 0.03369 0.0
C576 C 0.73582 0.71374 0.01614 0.0
H577 H 0.76496 0.7235 0.04775 0.0
C578 C 0.73983 0.70827 0.98313 0.0
C579 C 0.74496 0.71922 0.03991 0.0
C580 C 0.74121 0.7248 0.07631 0.0
C581 C 0.75276 0.70836 0.97284 0.0
C582 C 0.7619 0.71388 0.99655 0.0
C583 C 0.7579 0.7193 0.02965 0.0
C584 C 0.77568 0.71422 0.98738 0.0
C585 C 0.75648 0.70286 0.9363 0.0
C586 C 0.78262 0.70282 0.98312 0.0
C587 C 0.79566 0.7032 0.9748 0.0
C588 C 0.80198 0.71501 0.9709 0.0
C589 C 0.79501 0.7264 0.9754 0.0
C590 C 0.78197 0.72601 0.98366 0.0
H591 H 0.7481 0.70194 0.91781 0.0
H592 H 0.76383 0.70891 0.92279 0.0
H593 H 0.7606 0.69317 0.94034 0.0
H594 H 0.77797 0.69363 0.98657 0.0
H595 H 0.80081 0.69427 0.97172 0.0
H596 H 0.05379 0.94783 0.77846 0.0
H597 H 0.05418 0.97113 0.7708 0.0
H598 H 0.01304 0.97226 0.78084 0.0
H599 H 0.01258 0.94904 0.78892 0.0
H600 H 0.04187 0.98517 0.71588 0.0
H601 H 0.02489 -0.00024 0.85303 0.0
H602 H 0.0308 0.98387 0.84343 0.0
H603 H 0.01473 0.98825 0.83098 0.0
C604 C 0.04485 0.95307 0.77934 0.0
C605 C 0.03315 0.94665 0.78438 0.0
C606 C 0.04508 0.96635 0.77495 0.0
C607 C 0.03366 0.9734 0.77582 0.0
C608 C 0.02198 0.96701 0.78089 0.0
H609 H 0.00937 0.05072 0.73608 0.0
H610 H 0.01131 0.02785 0.74947 0.0
C611 C 0.02173 0.95374 0.78526 0.0
C612 C 0.03383 0.98737 0.76956 0.0
H613 H 0.02501 0.01593 0.8071 0.0
C614 C 0.03832 0.99193 0.73593 0.0
C615 C 0.02916 0.99611 0.79581 0.0
C616 C 0.02473 0.99178 0.83298 0.0
C617 C 0.03788 0.005 0.72734 0.0
C618 C 0.03301 0.01371 0.75336 0.0
C619 C 0.02871 0.00919 0.78722 0.0
C620 C 0.03198 0.02755 0.74559 0.0
C621 C 0.04224 0.00933 0.69009 0.0
C622 C 0.04298 0.03494 0.73942 0.0
C623 C 0.04191 0.04798 0.7317 0.0
C624 C 0.0298 0.05384 0.73024 0.0
C625 C 0.01881 0.04645 0.73692 0.0
C626 C 0.0199 0.03341 0.74462 0.0
H627 H 0.04298 0.00121 0.67064 0.0
H628 H 0.03555 0.01656 0.67867 0.0
H629 H 0.05183 0.01384 0.69242 0.0
H630 H 0.0524 0.03061 0.7407 0.0
H631 H 0.05054 0.05347 0.72688 0.0
H632 H 0.6959 0.25695 0.47418 0.0
H633 H 0.71907 0.25744 0.48447 0.0
H634 H 0.71906 0.29843 0.47034 0.0
H635 H 0.6959 0.29805 0.46033 0.0
H636 H 0.73852 0.26713 0.43695 0.0
H637 H 0.73702 0.29287 0.56954 0.0
H638 H 0.7231 0.28526 0.54993 0.0
H639 H 0.72848 0.30047 0.53293 0.0
C640 C 0.70083 0.26607 0.47334 0.0
C641 C 0.6941 0.27747 0.46665 0.0
C642 C 0.71405 0.26633 0.47917 0.0
C643 C 0.7207 0.27799 0.47863 0.0
C644 C 0.71403 0.28937 0.47148 0.0
H645 H 0.80033 0.29857 0.5135 0.0
H646 H 0.77736 0.29868 0.49992 0.0
C647 C 0.70083 0.28912 0.46561 0.0
C648 C 0.73465 0.27823 0.48514 0.0
H649 H 0.75748 0.28932 0.54371 0.0
C650 C 0.74269 0.27194 0.46031 0.0
C651 C 0.73999 0.28457 0.5156 0.0
C652 C 0.73172 0.2911 0.54375 0.0
C653 C 0.75602 0.27195 0.46491 0.0
C654 C 0.76137 0.27821 0.49552 0.0
C655 C 0.75332 0.28456 0.52024 0.0
C656 C 0.77528 0.27809 0.50283 0.0
C657 C 0.76428 0.26544 0.43668 0.0
C658 C 0.78164 0.26649 0.50931 0.0
C659 C 0.79472 0.26639 0.51699 0.0
C660 C 0.80164 0.27792 0.5186 0.0
C661 C 0.79524 0.28954 0.51235 0.0
C662 C 0.78214 0.28962 0.50462 0.0
H663 H 0.7591 0.26418 0.41045 0.0
H664 H 0.77317 0.27099 0.43154 0.0
H665 H 0.76705 0.25582 0.44676 0.0
H666 H 0.77644 0.25751 0.50882 0.0
H667 H 0.7994 0.2573 0.5219 0.0
H668 H 0.48467 0.94589 0.2148 0.0
H669 H 0.48415 0.96879 0.22851 0.0
H670 H 0.44286 0.96781 0.23027 0.0
H671 H 0.44329 0.94483 0.21707 0.0
H672 H 0.47257 0.98845 0.1884 0.0
H673 H 0.45205 0.98474 0.32785 0.0
H674 H 0.4587 0.97114 0.30407 0.0
H675 H 0.44297 0.97686 0.29283 0.0
C676 C 0.47548 0.95055 0.21818 0.0
C677 C 0.46402 0.94358 0.21504 0.0
C678 C 0.4752 0.96361 0.22599 0.0
C679 C 0.46348 0.96992 0.2309 0.0
C680 C 0.45201 0.96304 0.22728 0.0
H681 H 0.44462 0.04927 0.2774 0.0
H682 H 0.44386 0.02634 0.2636 0.0
C683 C 0.45227 0.94995 0.21954 0.0
C684 C 0.46331 0.98376 0.23913 0.0
H685 H 0.45463 0.00561 0.30374 0.0
C686 C 0.46867 0.99222 0.21362 0.0
C687 C 0.45819 0.9886 0.27205 0.0
C688 C 0.45274 0.97988 0.30097 0.0
C689 C 0.46896 0.00544 0.22005 0.0
C690 C 0.46394 0.01026 0.2531 0.0
C691 C 0.45847 0.00183 0.27846 0.0
C692 C 0.46444 0.02404 0.26202 0.0
C693 C 0.47448 0.01416 0.19124 0.0
C694 C 0.47627 0.03022 0.2663 0.0
C695 C 0.47673 0.04328 0.27417 0.0
C696 C 0.46537 0.05034 0.27806 0.0
C697 C 0.45353 0.04407 0.27445 0.0
C698 C 0.45308 0.031 0.26659 0.0
H699 H 0.47494 0.00939 0.16419 0.0
H700 H 0.46872 0.02304 0.18863 0.0
H701 H 0.48437 0.01691 0.19913 0.0
H702 H 0.48514 0.02493 0.26354 0.0
H703 H 0.486 0.04786 0.27699 0.0
H704 H 0.69712 0.75981 0.52384 0.0
H705 H 0.72008 0.76122 0.51145 0.0
H706 H 0.71787 0.80244 0.51423 0.0
H707 H 0.69487 0.80112 0.52698 0.0
H708 H 0.73201 0.77382 0.45169 0.0
H709 H 0.74736 0.79381 0.58534 0.0
H710 H 0.73192 0.78638 0.5787 0.0
H711 H 0.73475 0.80235 0.5625 0.0
C712 C 0.70153 0.76918 0.52199 0.0
C713 C 0.69423 0.78036 0.52649 0.0
C714 C 0.71463 0.76996 0.51487 0.0
C715 C 0.72066 0.78192 0.51236 0.0
C716 C 0.7134 0.79311 0.51669 0.0
H717 H 0.8007 0.80134 0.47164 0.0
H718 H 0.77753 0.80243 0.48212 0.0
C719 C 0.70028 0.79235 0.52378 0.0
C720 C 0.7345 0.7826 0.50432 0.0
H721 H 0.76333 0.79142 0.54025 0.0
C722 C 0.73887 0.77768 0.471 0.0
C723 C 0.74337 0.78771 0.52956 0.0
C724 C 0.73918 0.79278 0.56618 0.0
C725 C 0.75193 0.77768 0.46222 0.0
C726 C 0.76083 0.78254 0.48776 0.0
C727 C 0.75645 0.7877 0.52079 0.0
C728 C 0.77478 0.78191 0.48123 0.0
C729 C 0.75609 0.77257 0.4256 0.0
C730 C 0.78086 0.77 0.4778 0.0
C731 C 0.79404 0.76935 0.47186 0.0
C732 C 0.80137 0.7806 0.46944 0.0
C733 C 0.79528 0.79252 0.47328 0.0
C734 C 0.78208 0.79316 0.47927 0.0
H735 H 0.74806 0.77249 0.40572 0.0
H736 H 0.76406 0.77836 0.41417 0.0
H737 H 0.75952 0.76258 0.42891 0.0
H738 H 0.77542 0.76121 0.47995 0.0
H739 H 0.79848 0.76002 0.46919 0.0
H740 H 0.48552 0.44533 0.77032 0.0
H741 H 0.48418 0.46816 0.75602 0.0
H742 H 0.44297 0.4656 0.753 0.0
H743 H 0.44421 0.44275 0.76769 0.0
H744 H 0.47269 0.47966 0.69405 0.0
H745 H 0.44999 0.49554 0.82356 0.0
H746 H 0.4576 0.48012 0.81875 0.0
H747 H 0.44192 0.48277 0.80009 0.0
C748 C 0.47617 0.44963 0.76676 0.0
C749 C 0.46496 0.44229 0.77026 0.0
C750 C 0.47542 0.46266 0.75855 0.0
C751 C 0.46348 0.46856 0.75389 0.0
C752 C 0.45227 0.46124 0.75712 0.0
H753 H 0.4435 0.54807 0.70944 0.0
H754 H 0.44271 0.52485 0.71876 0.0
C755 C 0.453 0.4482 0.76534 0.0
C756 C 0.46282 0.48234 0.74503 0.0
H757 H 0.45289 0.51123 0.77792 0.0
C758 C 0.46835 0.48658 0.71233 0.0
C759 C 0.45711 0.49129 0.76894 0.0
C760 C 0.4514 0.48727 0.80496 0.0
C761 C 0.46833 0.49958 0.70284 0.0
C762 C 0.46281 0.50855 0.72703 0.0
C763 C 0.45709 0.50429 0.75945 0.0
C764 C 0.46329 0.52247 0.71989 0.0
C765 C 0.47409 0.50358 0.66687 0.0
C766 C 0.47512 0.52878 0.7177 0.0
C767 C 0.4756 0.542 0.71235 0.0
C768 C 0.46425 0.54914 0.70937 0.0
C769 C 0.4524 0.5428 0.71154 0.0
C770 C 0.45193 0.52956 0.71689 0.0
H771 H 0.4746 0.49544 0.64741 0.0
H772 H 0.46848 0.51143 0.6542 0.0
H773 H 0.48399 0.50708 0.67154 0.0
H774 H 0.48399 0.52351 0.72072 0.0
H775 H 0.48487 0.54664 0.711 0.0
H776 H 0.69168 0.19791 0.97174 0.0
H777 H 0.71453 0.19637 0.9862 0.0
H778 H 0.71586 0.2371 0.00513 0.0
H779 H 0.69302 0.2387 0.99125 0.0
H780 H 0.73473 0.20854 0.95106 0.0
H781 H 0.73263 0.22254 0.09687 0.0
H782 H 0.71859 0.21791 0.07134 0.0
H783 H 0.72508 0.23377 0.06669 0.0
C784 C 0.69684 0.20652 0.9792 0.0
C785 C 0.69058 0.21842 0.98051 0.0
C786 C 0.70986 0.20563 0.98744 0.0
C787 C 0.71681 0.21659 0.99729 0.0
C788 C 0.7106 0.22849 -0.00161 0.0
H789 H 0.7961 0.23465 0.03826 0.0
H790 H 0.77288 0.23481 0.02903 0.0
C791 C 0.69757 0.22939 0.99022 0.0
C792 C 0.73069 0.21567 0.00492 0.0
H793 H 0.75335 0.22164 0.06982 0.0
C794 C 0.7388 0.2113 0.97711 0.0
C795 C 0.73594 0.2193 0.03893 0.0
C796 C 0.72761 0.22354 0.07031 0.0
C797 C 0.7521 0.21075 0.98209 0.0
C798 C 0.75736 0.21451 0.01595 0.0
C799 C 0.74925 0.21879 0.04388 0.0
C800 C 0.7713 0.21428 0.02265 0.0
C801 C 0.76046 0.20648 0.9508 0.0
C802 C 0.77802 0.20265 0.02272 0.0
C803 C 0.79126 0.20253 0.02799 0.0
C804 C 0.79798 0.21403 0.03338 0.0
C805 C 0.79118 0.22564 0.03405 0.0
C806 C 0.77793 0.22575 0.02884 0.0
H807 H 0.75523 0.20663 0.92442 0.0
H808 H 0.76906 0.21268 0.94842 0.0
H809 H 0.76375 0.19654 0.95584 0.0
H810 H 0.77301 0.19368 0.01856 0.0
H811 H 0.79625 0.19344 0.02751 0.0
H812 H 0.00832 0.44529 0.21583 0.0
H813 H 0.00889 0.46844 0.22587 0.0
H814 H 0.05019 0.46754 0.22552 0.0
H815 H 0.0497 0.44436 0.21592 0.0
H816 H 0.03959 0.4809 0.28453 0.0
H817 H 0.01846 0.49671 0.15311 0.0
H818 H 0.0091 0.48501 0.17714 0.0
H819 H 0.02465 0.48076 0.16 0.0
C820 C 0.01752 0.45004 0.21761 0.0
C821 C 0.02897 0.44305 0.21502 0.0
C822 C 0.01783 0.46327 0.22315 0.0
C823 C 0.02958 0.4697 0.22593 0.0
C824 C 0.04102 0.46274 0.22325 0.0
H825 H 0.05075 0.54878 0.27062 0.0
H826 H 0.05102 0.52575 0.25812 0.0
C827 C 0.04073 0.44952 0.21773 0.0
C828 C 0.02995 0.4836 0.23321 0.0
H829 H 0.02084 0.51258 0.19905 0.0
C830 C 0.03558 0.48785 0.26577 0.0
C831 C 0.02468 0.4926 0.20864 0.0
C832 C 0.01898 0.48858 0.1726 0.0
C833 C 0.03582 0.50089 0.27485 0.0
C834 C 0.03047 0.50987 0.25039 0.0
C835 C 0.02491 0.50563 0.21773 0.0
C836 C 0.03039 0.52373 0.25837 0.0
C837 C 0.04149 0.50491 0.31092 0.0
C838 C 0.0187 0.53022 0.26199 0.0
C839 C 0.01853 0.54335 0.26894 0.0
C840 C 0.03004 0.55022 0.27219 0.0
C841 C 0.04174 0.54371 0.26845 0.0
C842 C 0.04191 0.53056 0.26148 0.0
H843 H 0.0424 0.49671 0.33005 0.0
H844 H 0.0512 0.50891 0.30627 0.0
H845 H 0.03556 0.51244 0.32399 0.0
H846 H 0.00972 0.5251 0.25953 0.0
H847 H 0.00936 0.54812 0.27162 0.0
H848 H 0.29579 0.23334 0.45913 0.0
H849 H 0.27272 0.23296 0.47079 0.0
H850 H 0.27342 0.19168 0.4726 0.0
H851 H 0.29653 0.19197 0.46136 0.0
H852 H 0.25289 0.22116 0.4301 0.0
H853 H 0.25664 0.2014 0.57047 0.0
H854 H 0.2702 0.20806 0.54654 0.0
H855 H 0.2646 0.19225 0.53574 0.0
C856 C 0.29102 0.22418 0.46195 0.0
C857 C 0.29795 0.21268 0.45957 0.0
C858 C 0.27786 0.22398 0.46857 0.0
C859 C 0.27144 0.2123 0.47307 0.0
C860 C 0.27827 0.20079 0.46986 0.0
H861 H 0.19218 0.19434 0.52497 0.0
H862 H 0.21492 0.19321 0.50888 0.0
C863 C 0.29144 0.20098 0.46326 0.0
C864 C 0.25759 0.21221 0.48124 0.0
H865 H 0.23579 0.20405 0.54655 0.0
C866 C 0.24913 0.21743 0.45553 0.0
C867 C 0.25277 0.20731 0.51446 0.0
C868 C 0.26151 0.20203 0.54359 0.0
C869 C 0.2359 0.2178 0.46207 0.0
C870 C 0.2311 0.21303 0.49544 0.0
C871 C 0.23954 0.20768 0.52099 0.0
C872 C 0.21735 0.21373 0.50475 0.0
C873 C 0.22718 0.22316 0.43305 0.0
C874 C 0.21129 0.22565 0.50824 0.0
C875 C 0.19834 0.22632 0.51741 0.0
C876 C 0.19127 0.21508 0.52347 0.0
C877 C 0.19739 0.20316 0.52038 0.0
C878 C 0.21036 0.20249 0.5112 0.0
H879 H 0.23186 0.22324 0.40585 0.0
H880 H 0.21817 0.21754 0.43118 0.0
H881 H 0.22465 0.23317 0.44013 0.0
H882 H 0.21661 0.23443 0.50411 0.0
H883 H 0.19388 0.23565 0.51978 0.0
H884 H 0.55431 0.44623 0.2934 0.0
H885 H 0.55466 0.46952 0.28614 0.0
H886 H 0.51336 0.47021 0.28687 0.0
H887 H 0.51292 0.44696 0.29457 0.0
H888 H 0.54397 0.48273 0.22773 0.0
H889 H 0.52269 0.49874 0.35857 0.0
H890 H 0.52895 0.48279 0.35201 0.0
H891 H 0.51332 0.48691 0.33515 0.0
C892 C 0.54531 0.45137 0.29252 0.0
C893 C 0.53358 0.4448 0.29456 0.0
C894 C 0.54553 0.46466 0.28836 0.0
C895 C 0.53404 0.47158 0.28643 0.0
C896 C 0.52233 0.46507 0.28907 0.0
H897 H 0.51047 0.54802 0.23251 0.0
H898 H 0.5122 0.52541 0.24917 0.0
C899 C 0.5221 0.45178 0.29324 0.0
C900 C 0.53428 0.48548 0.27896 0.0
H901 H 0.52414 0.51438 0.31129 0.0
C902 C 0.53977 0.48968 0.24615 0.0
C903 C 0.52875 0.49448 0.30305 0.0
C904 C 0.5232 0.49054 0.33933 0.0
C905 C 0.53952 0.50264 0.23621 0.0
C906 C 0.53381 0.51161 0.26003 0.0
C907 C 0.52849 0.50744 0.2931 0.0
C908 C 0.53291 0.52532 0.25057 0.0
C909 C 0.54498 0.50655 0.19977 0.0
C910 C 0.544 0.53275 0.24624 0.0
C911 C 0.54305 0.54566 0.23662 0.0
C912 C 0.53098 0.55133 0.23139 0.0
C913 C 0.5199 0.54389 0.23624 0.0
C914 C 0.52086 0.531 0.24583 0.0
H915 H 0.54638 0.49821 0.18141 0.0
H916 H 0.53861 0.51356 0.18599 0.0
H917 H 0.55442 0.51118 0.20402 0.0
H918 H 0.55338 0.52857 0.25038 0.0
H919 H 0.55175 0.55118 0.23329 0.0
H920 H 0.29353 0.76153 0.03504 0.0
H921 H 0.27034 0.7626 0.02646 0.0
H922 H 0.27239 0.80379 0.02103 0.0
H923 H 0.29566 0.8028 0.02921 0.0
H924 H 0.25191 0.77551 0.06971 0.0
H925 H 0.25312 0.79369 0.92715 0.0
H926 H 0.26698 0.7868 0.94911 0.0
H927 H 0.26209 0.80284 0.95986 0.0
C928 C 0.28905 0.77082 0.03199 0.0
C929 C 0.2964 0.78208 0.03259 0.0
C930 C 0.27582 0.77141 0.02715 0.0
C931 C 0.26971 0.78326 0.02267 0.0
C932 C 0.27698 0.79455 0.02382 0.0
H933 H 0.18938 0.8004 0.97838 0.0
H934 H 0.21223 0.80226 0.99275 0.0
C935 C 0.29024 0.79397 0.02866 0.0
C936 C 0.25572 0.78371 0.01696 0.0
H937 H 0.23278 0.79125 0.95426 0.0
C938 C 0.2477 0.77898 0.04453 0.0
C939 C 0.25031 0.78829 0.98411 0.0
C940 C 0.25854 0.79311 0.95318 0.0
C941 C 0.23437 0.77865 0.04006 0.0
C942 C 0.22899 0.78296 0.00691 0.0
C943 C 0.23698 0.78795 0.97964 0.0
C944 C 0.21513 0.78189 -0.00065 0.0
C945 C 0.22617 0.77373 0.07091 0.0
C946 C 0.20929 0.7698 0.99795 0.0
C947 C 0.19629 0.76871 0.98977 0.0
C948 C 0.18893 0.77969 0.98261 0.0
C949 C 0.19482 0.79178 0.98388 0.0
C950 C 0.20784 0.79286 0.99206 0.0
H951 H 0.23128 0.77421 0.09744 0.0
H952 H 0.21713 0.77928 0.0731 0.0
H953 H 0.22367 0.76357 0.06566 0.0
H954 H 0.21483 0.7612 0.00275 0.0
H955 H 0.19202 0.75926 0.9888 0.0
H956 H 0.98236 0.44348 0.72417 0.0
H957 H 0.98146 0.46657 0.73495 0.0
H958 H 0.94019 0.46498 0.7364 0.0
H959 H 0.941 0.44183 0.72606 0.0
H960 H 0.96948 0.48514 0.69112 0.0
H961 H 0.94904 0.48412 0.83107 0.0
H962 H 0.95602 0.47018 0.80983 0.0
H963 H 0.94018 0.47529 0.79744 0.0
C964 C 0.97309 0.44803 0.72698 0.0
C965 C 0.96175 0.44086 0.72442 0.0
C966 C 0.9726 0.46121 0.73309 0.0
C967 C 0.96077 0.46742 0.73691 0.0
C968 C 0.94942 0.4603 0.7342 0.0
H969 H 0.94187 0.54775 0.77268 0.0
H970 H 0.94078 0.52465 0.76111 0.0
C971 C 0.9499 0.44711 0.72811 0.0
C972 C 0.96038 0.48141 0.7427 0.0
H973 H 0.9515 0.50447 0.80358 0.0
C974 C 0.96556 0.48938 0.71569 0.0
C975 C 0.95519 0.48687 0.77474 0.0
C976 C 0.94988 0.4787 0.80512 0.0
C977 C 0.96569 0.50272 0.71984 0.0
C978 C 0.96068 0.50817 0.75211 0.0
C979 C 0.95532 0.50022 0.77889 0.0
C980 C 0.96132 0.52208 0.75907 0.0
C981 C 0.97108 0.51087 0.68954 0.0
C982 C 0.97323 0.52817 0.76224 0.0
C983 C 0.97389 0.54131 0.76883 0.0
C984 C 0.96263 0.54856 0.77255 0.0
C985 C 0.9507 0.5424 0.76982 0.0
C986 C 0.95006 0.52924 0.76325 0.0
H987 H 0.97136 0.50561 0.66323 0.0
H988 H 0.96535 0.51974 0.68588 0.0
H989 H 0.98103 0.5137 0.69654 0.0
H990 H 0.98203 0.52275 0.75979 0.0
H991 H 0.98322 0.54578 0.771 0.0
H992 H 0.15756 0.28346 0.91925 0.0
H993 H 0.15423 0.27644 0.85666 0.0
H994 H 0.13147 0.24468 0.89502 0.0
H995 H 0.13523 0.25143 0.95818 0.0
H996 H 0.14806 0.23675 0.84718 0.0
H997 H 0.12458 0.27938 0.78913 0.0
H998 H 0.1394 0.28382 0.8102 0.0
H999 H 0.12663 0.27729 0.83761 0.0
C1000 C 0.15171 0.27506 0.91438 0.0
C1001 C 0.14663 0.26799 0.94358 0.0
C1002 C 0.14971 0.27113 0.8785 0.0
C1003 C 0.14234 0.2602 0.87098 0.0
C1004 C 0.1371 0.25321 0.90014 0.0
H1005 H 0.12827 0.24001 0.64142 0.0
H1006 H 0.12503 0.24703 0.70461 0.0
C1007 C 0.13925 0.25706 0.93617 0.0
C1008 C 0.14113 0.25553 0.83291 0.0
H1009 H 0.13526 0.26545 0.74578 0.0
C1010 C 0.14505 0.24297 0.82511 0.0
C1011 C 0.13695 0.26352 0.80407 0.0
C1012 C 0.13152 0.27669 0.81078 0.0
C1013 C 0.14557 0.23843 0.78918 0.0
C1014 C 0.14251 0.24681 0.76012 0.0
C1015 C 0.13789 0.25912 0.76799 0.0
C1016 C 0.1445 0.24311 0.72149 0.0
C1017 C 0.14942 0.22468 0.78282 0.0
C1018 C 0.15661 0.239 0.70974 0.0
C1019 C 0.15844 0.23488 0.67395 0.0
C1020 C 0.14826 0.23506 0.64896 0.0
C1021 C 0.13629 0.23978 0.66016 0.0
C1022 C 0.13442 0.24375 0.69622 0.0
H1023 H 0.1471 0.21861 0.8068 0.0
H1024 H 0.14458 0.22062 0.75848 0.0
H1025 H 0.15993 0.2242 0.77852 0.0
H1026 H 0.16465 0.23884 0.7284 0.0
H1027 H 0.16781 0.23142 0.66595 0.0
H1028 H -0.00109 0.89509 0.88319 0.0
H1029 H 0.99133 0.89247 0.94613 0.0
H1030 H 0.02852 0.90365 0.98625 0.0
H1031 H 0.03601 0.90661 0.92382 0.0
H1032 H -0.00029 0.8771 0.00243 0.0
H1033 H 0.00521 0.92829 0.03927 0.0
H1034 H 0.00604 0.92273 0.99277 0.0
H1035 H 0.01973 0.9213 0.02232 0.0
C1036 C 0.00544 0.89701 0.90549 0.0
C1037 C 0.01799 0.90121 0.89865 0.0
C1038 C 0.00111 0.89549 0.94137 0.0
C1039 C 0.00929 0.89812 0.97085 0.0
C1040 C 0.02195 0.9019 0.96395 0.0
H1041 H 0.00148 0.89726 0.20672 0.0
H1042 H 0.00992 0.89591 0.14441 0.0
C1043 C 0.02622 0.90354 0.92823 0.0
C1044 C 0.00463 0.897 0.00889 0.0
H1045 H 0.0011 0.91387 0.08799 0.0
C1046 C -4e-05 0.88514 0.02111 0.0
C1047 C 0.00494 0.90753 0.03318 0.0
C1048 C 0.00913 0.92071 0.02117 0.0
C1049 C 0.99577 0.8835 0.05722 0.0
C1050 C 0.99626 0.89398 0.0815 0.0
C1051 C 0.00091 0.90582 0.06931 0.0
C1052 C 0.99139 0.89314 0.11926 0.0
C1053 C 0.991 0.87055 0.06934 0.0
C1054 C 0.97821 0.8919 0.12559 0.0
C1055 C 0.97337 0.89276 0.16099 0.0
C1056 C 0.98164 0.89485 0.19065 0.0
C1057 C 0.9949 0.89559 0.1844 0.0
C1058 C -0.00028 0.89484 0.14889 0.0
H1059 H 0.99372 0.86287 0.04988 0.0
H1060 H 0.99482 0.86813 0.09674 0.0
H1061 H 0.98039 0.87079 0.07126 0.0
H1062 H 0.97162 0.89078 0.10301 0.0
H1063 H 0.96311 0.89217 0.16499 0.0
H1064 H 0.35531 0.70988 0.41731 0.0
H1065 H 0.35737 0.71646 0.35363 0.0
H1066 H 0.34948 0.75555 0.3843 0.0
H1067 H 0.3478 0.74907 0.44821 0.0
H1068 H 0.3385 0.72617 0.31389 0.0
H1069 H 0.37865 0.76071 0.31451 0.0
H1070 H 0.37554 0.75007 0.35228 0.0
H1071 H 0.36668 0.76477 0.34757 0.0
C1072 C 0.3543 0.71992 0.41056 0.0
C1073 C 0.35139 0.72897 0.43767 0.0
C1074 C 0.35546 0.72366 0.37417 0.0
C1075 C 0.35371 0.73651 0.36418 0.0
C1076 C 0.3512 0.74563 0.39141 0.0
H1077 H 0.33272 0.77816 0.17465 0.0
H1078 H 0.33727 0.76951 0.23515 0.0
C1079 C 0.35016 0.74192 0.42792 0.0
C1080 C 0.3532 0.74012 0.32509 0.0
H1081 H 0.36441 0.7617 0.26282 0.0
C1082 C 0.34434 0.73378 0.30258 0.0
C1083 C 0.36082 0.75005 0.31031 0.0
C1084 C 0.37105 0.7567 0.33236 0.0
C1085 C 0.34252 0.73746 0.26617 0.0
C1086 C 0.34976 0.74772 0.25198 0.0
C1087 C 0.35887 0.75384 0.27401 0.0
C1088 C 0.34729 0.75283 0.21512 0.0
C1089 C 0.33254 0.73074 0.24344 0.0
C1090 C 0.35144 0.74625 0.18392 0.0
C1091 C 0.34889 0.75119 0.14919 0.0
C1092 C 0.34208 0.76273 0.14531 0.0
C1093 C 0.33793 0.76922 0.17673 0.0
C1094 C 0.34056 0.76434 0.2113 0.0
H1095 H 0.32703 0.72357 0.25942 0.0
H1096 H 0.32576 0.73783 0.23179 0.0
H1097 H 0.33726 0.72577 0.22032 0.0
H1098 H 0.35668 0.73735 0.1865 0.0
H1099 H 0.35224 0.74601 0.12545 0.0
H1100 H 0.4985 0.09202 0.70237 0.0
H1101 H 0.49174 0.09354 0.63853 0.0
H1102 H 0.52923 0.10742 0.60887 0.0
H1103 H 0.53615 0.10557 0.67234 0.0
H1104 H 0.49066 0.11322 0.58893 0.0
H1105 H 0.52556 0.07637 0.5437 0.0
H1106 H 0.52222 0.07938 0.59117 0.0
H1107 H 0.53272 0.08984 0.56619 0.0
C1108 C 0.50526 0.0955 0.68226 0.0
C1109 C 0.51789 0.09854 0.6922 0.0
C1110 C 0.50139 0.09636 0.64583 0.0
C1111 C 0.51008 0.10031 0.61884 0.0
C1112 C 0.52248 0.10402 0.62908 0.0
H1113 H 0.5004 0.10407 0.38106 0.0
H1114 H 0.50868 0.10726 0.44319 0.0
C1115 C 0.52639 0.10304 0.66539 0.0
C1116 C 0.50627 0.10014 0.5799 0.0
H1117 H 0.51332 0.08642 0.49772 0.0
C1118 C 0.49563 0.10739 0.56897 0.0
C1119 C 0.51278 0.0925 0.5539 0.0
C1120 C 0.52388 0.08399 0.5643 0.0
C1121 C 0.49129 0.10716 0.53277 0.0
C1122 C 0.49771 0.09943 0.50699 0.0
C1123 C 0.5085 0.0924 0.51763 0.0
C1124 C 0.49277 0.09774 0.46953 0.0
C1125 C 0.4798 0.11512 0.52232 0.0
C1126 C 0.48125 0.09116 0.46399 0.0
C1127 C 0.4766 0.08922 0.42878 0.0
C1128 C 0.48338 0.09387 0.39841 0.0
C1129 C 0.49498 0.1004 0.40397 0.0
C1130 C 0.4997 0.10225 0.43934 0.0
H1131 H 0.47779 0.1227 0.54277 0.0
H1132 H 0.48126 0.11967 0.49526 0.0
H1133 H 0.47126 0.10882 0.52043 0.0
H1134 H 0.47589 0.08744 0.48695 0.0
H1135 H 0.46763 0.08415 0.42541 0.0
H1136 H 0.1268 0.75358 0.86229 0.0
H1137 H 0.12456 0.7461 0.79929 0.0
H1138 H 0.16555 0.74815 0.78555 0.0
H1139 H 0.16778 0.75604 0.84789 0.0
H1140 H 0.15341 0.76027 0.73193 0.0
H1141 H 0.13163 0.71225 0.75077 0.0
H1142 H 0.1228 0.72498 0.77196 0.0
H1143 H 0.13862 0.72113 0.78797 0.0
C1144 C 0.13533 0.75218 0.846 0.0
C1145 C 0.14746 0.75538 0.8599 0.0
C1146 C 0.13405 0.74787 0.81005 0.0
C1147 C 0.1449 0.74646 0.78776 0.0
C1148 C 0.15705 0.74919 0.80221 0.0
H1149 H 0.15554 0.70906 0.58276 0.0
H1150 H 0.15328 0.71533 0.64647 0.0
C1151 C 0.15831 0.75365 0.83787 0.0
C1152 C 0.14366 0.74307 0.74864 0.0
H1153 H 0.13304 0.71998 0.69011 0.0
C1154 C 0.14895 0.75145 0.72278 0.0
C1155 C 0.13786 0.73156 0.73678 0.0
C1156 C 0.13251 0.7219 0.76331 0.0
C1157 C 0.14887 0.74854 0.68547 0.0
C1158 C 0.14296 0.7371 0.67352 0.0
C1159 C 0.13745 0.72881 0.69931 0.0
C1160 C 0.14335 0.73305 0.63479 0.0
C1161 C 0.1556 0.75751 0.65946 0.0
C1162 C 0.13828 0.7408 0.607 0.0
C1163 C 0.13972 0.73731 0.57038 0.0
C1164 C 0.14606 0.72591 0.5611 0.0
C1165 C 0.15063 0.71792 0.58905 0.0
C1166 C 0.14932 0.72147 0.6255 0.0
H1167 H 0.16227 0.76406 0.6739 0.0
H1168 H 0.16111 0.75209 0.63867 0.0
H1169 H 0.14838 0.76346 0.64516 0.0
H1170 H 0.13337 0.74963 0.6136 0.0
H1171 H 0.13599 0.74358 0.54939 0.0
H1172 H 0.49576 0.88733 0.10525 0.0
H1173 H 0.50316 0.88425 0.0423 0.0
H1174 H 0.47403 0.91023 0.00403 0.0
H1175 H 0.46657 0.91332 0.06651 0.0
H1176 H 0.47585 0.88621 0.96487 0.0
H1177 H 0.52265 0.91123 0.97956 0.0
H1178 H 0.51913 0.89899 0.01256 0.0
H1179 H 0.50972 0.91336 0.01168 0.0
C1180 C 0.491 0.89243 0.0834 0.0
C1181 C 0.48063 0.90061 0.09079 0.0
C1182 C 0.49524 0.89068 0.04754 0.0
C1183 C 0.48917 0.89708 0.01865 0.0
C1184 C 0.47882 0.90521 0.02599 0.0
H1185 H 0.49531 0.9059 0.78593 0.0
H1186 H 0.48784 0.9041 0.84897 0.0
C1187 C 0.47461 0.907 0.06172 0.0
C1188 C 0.4935 0.89533 0.98058 0.0
H1189 H 0.51799 0.90224 0.92232 0.0
C1190 C 0.48509 0.88964 0.95551 0.0
C1191 C 0.50555 0.8998 0.96863 0.0
C1192 C 0.5148 0.90628 0.99433 0.0
C1193 C 0.48841 0.88834 0.9186 0.0
C1194 C 0.50034 0.89311 0.90643 0.0
C1195 C 0.50884 0.89857 0.93171 0.0
C1196 C 0.5041 0.89299 0.86745 0.0
C1197 C 0.47916 0.88177 0.89314 0.0
C1198 C 0.51573 0.88739 0.85689 0.0
C1199 C 0.52008 0.88854 0.82105 0.0
C1200 C 0.51288 0.89533 0.79509 0.0
C1201 C 0.501 0.90053 0.8053 0.0
C1202 C 0.4967 0.89945 0.84128 0.0
H1203 H 0.47259 0.87527 0.90817 0.0
H1204 H 0.47322 0.8891 0.87924 0.0
H1205 H 0.48429 0.87614 0.87203 0.0
H1206 H 0.52161 0.8824 0.87665 0.0
H1207 H 0.52927 0.88443 0.81395 0.0
H1208 H 0.34682 0.24442 0.04293 0.0
H1209 H 0.34833 0.23788 0.10692 0.0
H1210 H 0.36021 0.27605 0.13648 0.0
H1211 H 0.35835 0.28274 0.07279 0.0
H1212 H 0.36744 0.23791 0.15876 0.0
H1213 H 0.32833 0.27126 0.19798 0.0
H1214 H 0.33217 0.26781 0.15107 0.0
H1215 H 0.34182 0.27886 0.17676 0.0
C1216 C 0.34992 0.25136 0.06302 0.0
C1217 C 0.35231 0.26412 0.05302 0.0
C1218 C 0.35077 0.24762 0.09954 0.0
C1219 C 0.35408 0.25657 0.12654 0.0
C1220 C 0.35729 0.26909 0.11622 0.0
H1221 H 0.35277 0.24748 0.3648 0.0
H1222 H 0.35725 0.25582 0.30341 0.0
C1223 C 0.35631 0.27287 0.0798 0.0
C1224 C 0.35351 0.25292 0.16555 0.0
H1225 H 0.33792 0.2594 0.24534 0.0
C1226 C 0.36104 0.24265 0.17773 0.0
C1227 C 0.34512 0.25912 0.19025 0.0
C1228 C 0.33631 0.26979 0.17839 0.0
C1229 C 0.36031 0.23832 0.2139 0.0
C1230 C 0.35178 0.24439 0.23832 0.0
C1231 C 0.34451 0.25486 0.22649 0.0
C1232 C 0.34947 0.23934 0.27538 0.0
C1233 C 0.36857 0.22723 0.22572 0.0
C1234 C 0.34344 0.22746 0.27969 0.0
C1235 C 0.34077 0.22276 0.31444 0.0
C1236 C 0.3441 0.22986 0.34559 0.0
C1237 C 0.35012 0.2418 0.34126 0.0
C1238 C 0.3527 0.24656 0.30633 0.0
H1239 H 0.37674 0.2257 0.20682 0.0
H1240 H 0.37235 0.22879 0.25367 0.0
H1241 H 0.3627 0.21837 0.22604 0.0
H1242 H 0.34068 0.22186 0.25608 0.0
H1243 H 0.33613 0.21352 0.31688 0.0
H1244 H 0.00384 0.11639 0.61222 0.0
H1245 H 0.99622 0.119 0.54947 0.0
H1246 H 0.00035 0.07836 0.53174 0.0
H1247 H 0.00843 0.07581 0.5938 0.0
H1248 H 0.01126 0.0915 0.47853 0.0
H1249 H 0.96251 0.1109 0.50223 0.0
H1250 H 0.97497 0.12016 0.52321 0.0
H1251 H 0.97203 0.10404 0.53831 0.0
C1252 C 0.00291 0.108 0.59506 0.0
C1253 C 0.0067 0.0959 0.60781 0.0
C1254 C -0.00149 0.10949 0.55926 0.0
C1255 C -0.00242 0.09886 0.53597 0.0
C1256 C 0.001 0.08671 0.54918 0.0
H1257 H 0.95869 0.08898 0.3328 0.0
H1258 H 0.96543 0.09093 0.3962 0.0
C1259 C 0.00557 0.08525 0.58467 0.0
C1260 C 0.99382 0.10035 0.49717 0.0
H1261 H 0.96983 0.11058 0.44104 0.0
C1262 C 0.00219 0.09568 0.47032 0.0
C1263 C 0.98198 0.10577 0.48653 0.0
C1264 C 0.97229 0.11039 0.51406 0.0
C1265 C -0.00104 0.09599 0.43323 0.0
C1266 C 0.98719 0.10155 0.42251 0.0
C1267 C 0.97891 0.10645 0.44929 0.0
C1268 C 0.98281 0.10137 0.38402 0.0
C1269 C 0.00795 0.08985 0.40615 0.0
C1270 C 0.99019 0.10687 0.35604 0.0
C1271 C 0.98645 0.10559 0.31958 0.0
C1272 C 0.97513 0.09902 0.31064 0.0
C1273 C 0.96747 0.09407 0.33882 0.0
C1274 C 0.9713 0.09521 0.37511 0.0
H1275 H 0.01483 0.08325 0.41964 0.0
H1276 H 0.00258 0.08438 0.38518 0.0
H1277 H 0.01357 0.09742 0.39219 0.0
H1278 H -0.00105 0.11196 0.36235 0.0
H1279 H 0.99247 0.1096 0.29841 0.0
H1280 H 0.85258 0.70754 0.07515 0.0
H1281 H 0.85392 0.71345 0.13954 0.0
H1282 H 0.85142 0.75337 0.11054 0.0
H1283 H 0.85019 0.74755 0.04586 0.0
H1284 H 0.86955 0.7474 0.16813 0.0
H1285 H 0.82115 0.72668 0.19124 0.0
H1286 H 0.83266 0.71607 0.17092 0.0
H1287 H 0.82732 0.72993 0.14623 0.0
C1288 C 0.85249 0.71759 0.08242 0.0
C1289 C 0.85114 0.72709 0.05553 0.0
C1290 C 0.85323 0.72094 0.1192 0.0
C1291 C 0.85255 0.73381 0.12972 0.0
C1292 C 0.85191 0.74337 0.10287 0.0
H1293 H 0.82794 0.76957 0.32653 0.0
H1294 H 0.8312 0.76102 0.26531 0.0
C1295 C 0.8512 0.74003 0.06599 0.0
C1296 C 0.85161 0.73727 0.16873 0.0
H1297 H 0.83184 0.73504 0.24255 0.0
C1298 C 0.86137 0.74465 0.18455 0.0
C1299 C 0.84083 0.73375 0.18982 0.0
C1300 C 0.82982 0.72626 0.17374 0.0
C1301 C 0.86058 0.74866 0.22104 0.0
C1302 C 0.84982 0.74509 0.24212 0.0
C1303 C 0.84013 0.73763 0.22634 0.0
C1304 C 0.84789 0.74984 0.2797 0.0
C1305 C 0.87104 0.75704 0.23644 0.0
C1306 C 0.85607 0.74618 0.30821 0.0
C1307 C 0.8542 0.75102 0.34341 0.0
C1308 C 0.84412 0.75959 0.35046 0.0
C1309 C 0.83581 0.763 0.32194 0.0
C1310 C 0.83765 0.75814 0.28695 0.0
H1311 H 0.87751 0.76075 0.21485 0.0
H1312 H 0.86686 0.76528 0.25144 0.0
H1313 H 0.87685 0.75139 0.256 0.0
H1314 H 0.86391 0.73963 0.30321 0.0
H1315 H 0.86075 0.74824 0.36489 0.0
H1316 H 0.96792 0.08737 0.07323 0.0
H1317 H 0.97697 0.09199 0.01334 0.0
H1318 H 0.0091 0.11086 0.06394 0.0
H1319 H 3e-05 0.10631 0.12449 0.0
H1320 H 0.98454 0.11862 0.98645 0.0
H1321 H 0.0236 0.08223 0.99075 0.0
H1322 H 0.00944 0.08074 0.01871 0.0
H1323 H 0.02124 0.09261 0.02944 0.0
C1324 C 0.97694 0.09246 0.07174 0.0
C1325 C 0.9833 0.09644 0.10357 0.0
C1326 C 0.98206 0.09513 0.03749 0.0
C1327 C 0.99367 0.10174 0.03436 0.0
C1328 C 0.00013 0.1057 0.06597 0.0
H1329 H 0.03485 0.10906 0.82793 0.0
H1330 H 0.02921 0.11178 0.89221 0.0
C1331 C 0.99496 0.10309 0.10042 0.0
C1332 C -0.00112 0.10436 0.99769 0.0
H1333 H 0.02045 0.09318 0.93566 0.0
C1334 C 0.9925 0.1132 0.97538 0.0
C1335 C 0.0093 0.09732 0.98361 0.0
C1336 C 0.01633 0.08764 0.00664 0.0
C1337 C 0.99608 0.11496 0.93883 0.0
C1338 C 0.00606 0.1074 0.9241 0.0
C1339 C 0.01278 0.09895 0.94695 0.0
C1340 C 0.00913 0.10739 0.88463 0.0
C1341 C 0.98907 0.12482 0.91637 0.0
C1342 C -0.00031 0.10418 0.85893 0.0
C1343 C 0.00286 0.10272 0.82216 0.0
C1344 C 0.01558 0.10426 0.81054 0.0
C1345 C 0.02496 0.10782 0.83611 0.0
C1346 C 0.02176 0.10936 0.87283 0.0
H1347 H 0.98512 0.13256 0.93384 0.0
H1348 H 0.99542 0.12916 0.8955 0.0
H1349 H 0.9809 0.12016 0.90227 0.0
H1350 H 0.98994 0.10228 0.8675 0.0
H1351 H 0.99546 0.09987 0.80313 0.0
H1352 H 0.65326 0.28772 0.57836 0.0
H1353 H 0.6515 0.28248 0.64303 0.0
H1354 H 0.63435 0.24615 0.61556 0.0
H1355 H 0.63657 0.25114 0.55057 0.0
H1356 H 0.63239 0.2769 0.689 0.0
H1357 H 0.6646 0.23491 0.6751 0.0
H1358 H 0.66216 0.24621 0.63863 0.0
H1359 H 0.6505 0.23389 0.64733 0.0
C1360 C 0.64903 0.27864 0.58608 0.0
C1361 C 0.64521 0.26975 0.55946 0.0
C1362 C 0.648 0.27568 0.62306 0.0
C1363 C 0.64305 0.26381 0.63413 0.0
C1364 C 0.63853 0.25522 0.60761 0.0
H1365 H 0.62794 0.24392 0.86224 0.0
H1366 H 0.62555 0.25152 0.79942 0.0
C1367 C 0.63973 0.2581 0.57053 0.0
C1368 C 0.64327 0.26027 0.67329 0.0
H1369 H 0.65533 0.23831 0.7329 0.0
C1370 C 0.6374 0.26845 0.69867 0.0
C1371 C 0.65 0.24937 0.68587 0.0
C1372 C 0.65728 0.24066 0.66039 0.0
C1373 C 0.63811 0.26606 0.73632 0.0
C1374 C 0.64458 0.255 0.74879 0.0
C1375 C 0.65034 0.24677 0.72333 0.0
C1376 C 0.6459 0.25182 0.78804 0.0
C1377 C 0.63228 0.27562 0.76232 0.0
C1378 C 0.65811 0.24944 0.80258 0.0
C1379 C 0.65947 0.24485 0.83808 0.0
C1380 C 0.64864 0.2427 0.85991 0.0
C1381 C 0.63645 0.24565 0.84608 0.0
C1382 C 0.63508 0.25004 0.81023 0.0
H1383 H 0.63111 0.28517 0.74936 0.0
H1384 H 0.62266 0.27222 0.77068 0.0
H1385 H 0.63825 0.27673 0.78718 0.0
H1386 H 0.6666 0.25076 0.78603 0.0
H1387 H 0.66898 0.24266 0.84812 0.0
H1388 H 0.46041 0.89165 0.32163 0.0
H1389 H 0.46818 0.89034 0.38451 0.0
H1390 H 0.50691 0.89573 0.34688 0.0
H1391 H 0.49925 0.89698 0.28376 0.0
H1392 H 0.49044 0.87368 0.41754 0.0
H1393 H 0.49621 0.92671 0.41945 0.0
H1394 H 0.4856 0.91872 0.3879 0.0
H1395 H 0.50258 0.91813 0.38092 0.0
C1396 C 0.47061 0.89234 0.32667 0.0
C1397 C 0.47923 0.8945 0.29784 0.0
C1398 C 0.47502 0.89156 0.36255 0.0
C1399 C 0.48808 0.89302 0.37016 0.0
C1400 C 0.49678 0.89461 0.34138 0.0
H1401 H 0.53115 0.90829 0.56506 0.0
H1402 H 0.52333 0.90517 0.50307 0.0
C1403 C 0.4924 0.8953 0.30542 0.0
C1404 C 0.49246 0.89392 0.40834 0.0
H1405 H 0.50245 0.91547 0.47205 0.0
C1406 C 0.49308 0.88279 0.42962 0.0
C1407 C 0.49581 0.90584 0.42377 0.0
C1408 C 0.49498 0.91809 0.40207 0.0
C1409 C 0.4973 0.88324 0.46599 0.0
C1410 C 0.50066 0.8952 0.48151 0.0
C1411 C 0.49988 0.90632 0.46014 0.0
C1412 C 0.50543 0.89644 0.51942 0.0
C1413 C 0.49847 0.8709 0.48708 0.0
C1414 C 0.49794 0.89261 0.54933 0.0
C1415 C 0.50245 0.8943 0.58497 0.0
C1416 C 0.51444 0.90002 0.59117 0.0
C1417 C 0.52186 0.90389 0.56117 0.0
C1418 C 0.51741 0.9021 0.5257 0.0
H1419 H 0.4988 0.86245 0.4687 0.0
H1420 H 0.5072 0.8709 0.50436 0.0
H1421 H 0.49002 0.86982 0.50516 0.0
H1422 H 0.48854 0.8885 0.54515 0.0
H1423 H 0.49652 0.89128 0.6076 0.0
H1424 H 0.84948 0.24806 0.12951 0.0
H1425 H 0.85272 0.25605 0.19181 0.0
H1426 H 0.84175 0.2192 0.23478 0.0
H1427 H 0.83822 0.2113 0.17307 0.0
H1428 H 0.82941 0.23868 0.26836 0.0
H1429 H 0.88162 0.24868 0.26318 0.0
H1430 H 0.87244 0.2565 0.22827 0.0
H1431 H 0.87353 0.23932 0.2288 0.0
C1432 C 0.84782 0.24168 0.1523 0.0
C1433 C 0.84357 0.22908 0.14646 0.0
C1434 C 0.84977 0.24621 0.18782 0.0
C1435 C 0.84766 0.23815 0.21791 0.0
C1436 C 0.84348 0.22556 0.21198 0.0
H1437 H 0.84951 0.24381 0.45376 0.0
H1438 H 0.85053 0.23627 0.39051 0.0
C1439 C 0.84145 0.22108 0.17667 0.0
C1440 C 0.84911 0.24289 0.25577 0.0
H1441 H 0.87058 0.25529 0.31664 0.0
C1442 C 0.83843 0.24226 0.27892 0.0
C1443 C 0.86089 0.24757 0.26947 0.0
C1444 C 0.87282 0.24797 0.24629 0.0
C1445 C 0.83917 0.24624 0.31533 0.0
C1446 C 0.85093 0.25087 0.32904 0.0
C1447 C 0.8616 0.25165 0.30593 0.0
C1448 C 0.8521 0.25523 0.36721 0.0
C1449 C 0.82731 0.24564 0.33883 0.0
C1450 C 0.85311 0.26833 0.37487 0.0
C1451 C 0.85251 0.27265 0.41086 0.0
C1452 C 0.85096 0.26392 0.43972 0.0
C1453 C 0.85069 0.25075 0.43207 0.0
C1454 C 0.85123 0.24643 0.39602 0.0
H1455 H 0.81851 0.244 0.32246 0.0
H1456 H 0.82828 0.23765 0.3586 0.0
H1457 H 0.82615 0.25464 0.35459 0.0
H1458 H 0.85381 0.27523 0.35292 0.0
H1459 H 0.85279 0.28286 0.41595 0.0
H1460 H 0.49896 0.10101 0.20343 0.0
H1461 H 0.50586 0.10245 0.13964 0.0
H1462 H 0.46658 0.09937 0.10444 0.0
H1463 H 0.45963 0.09786 0.16787 0.0
H1464 H 0.48321 0.08143 0.07259 0.0
H1465 H 0.50231 0.13092 0.06154 0.0
H1466 H 0.50827 0.12183 0.09955 0.0
H1467 H 0.4916 0.126 0.09764 0.0
C1468 C 0.49179 0.10088 0.1821 0.0
C1469 C 0.47877 0.09928 0.19062 0.0
C1470 C 0.49574 0.10176 0.14571 0.0
C1471 C 0.48671 0.10111 0.11738 0.0
C1472 C 0.47368 0.09993 0.12593 0.0
H1473 H 0.50122 0.10831 0.88304 0.0
H1474 H 0.49245 0.11092 0.94476 0.0
C1475 C 0.46974 0.09908 0.16219 0.0
C1476 C 0.49088 0.10044 0.07885 0.0
H1477 H 0.50673 0.11682 0.01205 0.0
C1478 C 0.48827 0.0892 0.05927 0.0
C1479 C 0.49739 0.11064 0.06152 0.0
C1480 C 0.49998 0.12309 0.08096 0.0
C1481 C 0.49227 0.08774 0.02303 0.0
C1482 C 0.49916 0.09775 0.00608 0.0
C1483 C 0.50149 0.10914 0.02528 0.0
C1484 C 0.50443 0.09631 0.96888 0.0
C1485 C 0.48912 0.07549 0.00314 0.0
C1486 C 0.51411 0.08731 0.96226 0.0
C1487 C 0.51912 0.08581 0.92726 0.0
C1488 C 0.51454 0.0933 0.89819 0.0
C1489 C 0.50487 0.10236 0.90488 0.0
C1490 C 0.49989 0.10389 0.94006 0.0
H1491 H 0.48124 0.07015 0.01667 0.0
H1492 H 0.48633 0.07748 0.97448 0.0
H1493 H 0.49772 0.06925 0.00273 0.0
H1494 H 0.51784 0.08148 0.98427 0.0
H1495 H 0.52661 0.0788 0.92302 0.0
H1496 H 0.63464 0.74167 0.95465 0.0
H1497 H 0.63111 0.74873 0.89158 0.0
H1498 H 0.65596 0.71862 0.85313 0.0
H1499 H 0.65914 0.71131 0.91548 0.0
H1500 H 0.64781 0.75782 0.84466 0.0
H1501 H 0.62672 0.71434 0.78425 0.0
H1502 H 0.62827 0.71642 0.8329 0.0
H1503 H 0.64154 0.71052 0.80631 0.0
C1504 C 0.63919 0.73648 0.93262 0.0
C1505 C 0.64711 0.72591 0.93993 0.0
C1506 C 0.63717 0.7405 0.89665 0.0
C1507 C 0.64304 0.73402 0.86751 0.0
C1508 C 0.65097 0.7235 0.87495 0.0
H1509 H 0.66955 0.76386 0.66543 0.0
H1510 H 0.66582 0.75643 0.72762 0.0
C1511 C 0.65288 0.71941 0.91071 0.0
C1512 C 0.64183 0.7388 0.82956 0.0
H1513 H 0.63723 0.7288 0.74189 0.0
C1514 C 0.64527 0.75153 0.82226 0.0
C1515 C 0.63826 0.7307 0.8003 0.0
C1516 C 0.63335 0.71728 0.80643 0.0
C1517 C 0.64598 0.75615 0.78642 0.0
C1518 C 0.64358 0.74769 0.75704 0.0
C1519 C 0.63936 0.7352 0.76438 0.0
C1520 C 0.64592 0.75149 0.71865 0.0
C1521 C 0.64937 0.77004 0.7805 0.0
C1522 C 0.6362 0.75049 0.69235 0.0
C1523 C 0.6384 0.75448 0.65646 0.0
C1524 C 0.65036 0.75956 0.64644 0.0
C1525 C 0.6602 0.76011 0.67248 0.0
C1526 C 0.65804 0.75599 0.70813 0.0
H1527 H 0.64654 0.77599 0.80429 0.0
H1528 H 0.65989 0.77094 0.77718 0.0
H1529 H 0.64465 0.77394 0.75574 0.0
H1530 H 0.62682 0.7469 0.69979 0.0
H1531 H 0.63065 0.75397 0.63691 0.0
H1532 H -0.00096 0.89287 0.38336 0.0
H1533 H 0.00658 0.89096 0.44646 0.0
H1534 H 0.9703 0.90531 0.48516 0.0
H1535 H 0.9629 0.9076 0.42241 0.0
H1536 H 0.98977 0.91715 0.51767 0.0
H1537 H -0.00214 0.86472 0.52316 0.0
H1538 H 0.00647 0.87244 0.48698 0.0
H1539 H 0.98924 0.8723 0.48638 0.0
C1540 C 0.99268 0.89555 0.40539 0.0
C1541 C 0.9804 0.90039 0.398 0.0
C1542 C 0.99694 0.89436 0.44141 0.0
C1543 C 0.98891 0.89779 0.47058 0.0
C1544 C 0.97664 0.90256 0.46313 0.0
H1545 H 0.99692 0.89901 0.70739 0.0
H1546 H 0.98839 0.89734 0.64517 0.0
C1547 C 0.97243 0.90387 0.42723 0.0
C1548 C 0.99346 0.89709 0.50885 0.0
H1549 H 0.00583 0.87694 0.57329 0.0
C1550 C 0.99318 0.90833 0.52987 0.0
C1551 C -0.00212 0.88556 0.52479 0.0
C1552 C -0.00222 0.87304 0.50429 0.0
C1553 C -0.00261 0.9084 0.56616 0.0
C1554 C 0.00199 0.89695 0.5818 0.0
C1555 C 0.00226 0.88569 0.56102 0.0
C1556 C 0.00701 0.89671 0.61941 0.0
C1557 C 0.99713 0.92076 0.58745 0.0
C1558 C 0.02026 0.89666 0.62527 0.0
C1559 C 0.02514 0.8977 0.66057 0.0
C1560 C 0.01683 0.89871 0.69061 0.0
C1561 C 0.00353 0.89825 0.68476 0.0
C1562 C -0.00134 0.89731 0.64933 0.0
H1563 H 0.99456 0.92909 0.57014 0.0
H1564 H 0.99001 0.91998 0.60979 0.0
H1565 H 0.00663 0.92255 0.6001 0.0
H1566 H 0.02682 0.89622 0.60242 0.0
H1567 H 0.03542 0.89799 0.66426 0.0
H1568 H 0.64212 0.7844 0.4202 0.0
H1569 H 0.64078 0.77756 0.35647 0.0
H1570 H 0.64698 0.73842 0.38931 0.0
H1571 H 0.64833 0.74517 0.45316 0.0
H1572 H 0.66457 0.74914 0.33481 0.0
H1573 H 0.61322 0.75615 0.29924 0.0
H1574 H 0.62111 0.76899 0.32305 0.0
H1575 H 0.61858 0.75398 0.34569 0.0
C1576 C 0.64296 0.77431 0.41392 0.0
C1577 C 0.64537 0.76531 0.44162 0.0
C1578 C 0.64213 0.77042 0.37754 0.0
C1579 C 0.6437 0.75749 0.36832 0.0
C1580 C 0.64568 0.74844 0.39601 0.0
H1581 H 0.6554 0.71243 0.17622 0.0
H1582 H 0.65301 0.72116 0.23744 0.0
C1583 C 0.64643 0.7523 0.43242 0.0
C1584 C 0.64453 0.75357 0.32968 0.0
H1585 H 0.62715 0.75008 0.25145 0.0
C1586 C 0.6564 0.74932 0.31656 0.0
C1587 C 0.63388 0.75405 0.30594 0.0
C1588 C 0.62093 0.75846 0.31905 0.0
C1589 C 0.65791 0.74543 0.28027 0.0
C1590 C 0.64717 0.74549 0.25674 0.0
C1591 C 0.63535 0.75001 0.26962 0.0
C1592 C 0.64796 0.74022 0.21934 0.0
C1593 C 0.67103 0.74139 0.2674 0.0
C1594 C 0.64547 0.74794 0.18879 0.0
C1595 C 0.64674 0.74292 0.15354 0.0
C1596 C 0.65048 0.73012 0.14848 0.0
C1597 C 0.65265 0.72238 0.1792 0.0
C1598 C 0.65133 0.72736 0.21423 0.0
H1599 H 0.67871 0.74551 0.28478 0.0
H1600 H 0.67179 0.73081 0.26888 0.0
H1601 H 0.67272 0.74437 0.23873 0.0
H1602 H 0.64277 0.75788 0.19224 0.0
H1603 H 0.64495 0.74908 0.13034 0.0
H1604 H 0.50116 0.39416 0.7047 0.0
H1605 H 0.50887 0.39263 0.64176 0.0
H1606 H 0.46993 0.39046 0.60317 0.0
H1607 H 0.46213 0.39189 0.66597 0.0
H1608 H 0.48798 0.37327 0.56731 0.0
H1609 H 0.50428 0.42391 0.57249 0.0
H1610 H 0.5103 0.4138 0.60825 0.0
H1611 H 0.49346 0.4172 0.60577 0.0
C1612 C 0.49425 0.39317 0.68285 0.0
C1613 C 0.48105 0.39326 0.69019 0.0
C1614 C 0.49866 0.39234 0.64695 0.0
C1615 C 0.48994 0.39163 0.6179 0.0
C1616 C 0.47679 0.39105 0.62527 0.0
H1617 H 0.49799 0.39443 0.38058 0.0
H1618 H 0.48958 0.39154 0.44258 0.0
C1619 C 0.47236 0.39189 0.66113 0.0
C1620 C 0.49449 0.39232 0.57977 0.0
H1621 H 0.50929 0.41223 0.51929 0.0
C1622 C 0.49263 0.38177 0.55668 0.0
C1623 C 0.50044 0.40349 0.56606 0.0
C1624 C 0.50217 0.4153 0.58925 0.0
C1625 C 0.4969 0.38198 0.52034 0.0
C1626 C 0.50296 0.39311 0.50677 0.0
C1627 C 0.50467 0.40369 0.52983 0.0
C1628 C 0.50796 0.39399 0.46905 0.0
C1629 C 0.49519 0.37019 0.49709 0.0
C1630 C 0.521 0.39647 0.46347 0.0
C1631 C 0.52577 0.39825 0.42833 0.0
C1632 C 0.51757 0.39761 0.39799 0.0
C1633 C 0.50452 0.39493 0.40347 0.0
C1634 C 0.49973 0.39319 0.43881 0.0
H1635 H 0.49321 0.36155 0.51386 0.0
H1636 H 0.48696 0.37165 0.4784 0.0
H1637 H 0.50384 0.36839 0.48026 0.0
H1638 H 0.5275 0.39716 0.48642 0.0
H1639 H 0.53588 0.40026 0.425 0.0
H1640 H 0.86703 0.25859 0.63912 0.0
H1641 H 0.87013 0.25149 0.70231 0.0
H1642 H 0.82921 0.25155 0.7186 0.0
H1643 H 0.82609 0.25894 0.65615 0.0
H1644 H 0.84172 0.26427 0.7722 0.0
H1645 H 0.86424 0.21674 0.74901 0.0
H1646 H 0.87223 0.23001 0.72777 0.0
H1647 H 0.85644 0.22557 0.71305 0.0
C1648 C 0.85871 0.2569 0.6561 0.0
C1649 C 0.84632 0.2593 0.64278 0.0
C1650 C 0.86049 0.25282 0.69213 0.0
C1651 C 0.84989 0.25091 0.7151 0.0
C1652 C 0.83752 0.253 0.7014 0.0
H1653 H 0.83708 0.2106 0.91205 0.0
H1654 H 0.84039 0.21828 0.85002 0.0
C1655 C 0.83575 0.25718 0.66567 0.0
C1656 C 0.8515 0.2473 0.75392 0.0
H1657 H 0.86175 0.22334 0.81009 0.0
C1658 C 0.84618 0.25536 0.78055 0.0
C1659 C 0.85731 0.23566 0.76466 0.0
C1660 C 0.8628 0.22642 0.73718 0.0
C1661 C 0.84607 0.2519 0.8175 0.0
C1662 C 0.85177 0.24021 0.82825 0.0
C1663 C 0.85748 0.23234 0.80177 0.0
C1664 C 0.8507 0.23535 0.86611 0.0
C1665 C 0.83927 0.2605 0.84433 0.0
C1666 C 0.85559 0.24229 0.89584 0.0
C1667 C 0.85356 0.23798 0.93154 0.0
C1668 C 0.84677 0.22658 0.93792 0.0
C1669 C 0.84231 0.21944 0.90803 0.0
C1670 C 0.84424 0.22379 0.87252 0.0
H1671 H 0.83303 0.26761 0.83045 0.0
H1672 H 0.83329 0.2548 0.86341 0.0
H1673 H 0.84647 0.26583 0.86058 0.0
H1674 H 0.86083 0.2511 0.89146 0.0
H1675 H 0.85721 0.2436 0.95407 0.0
H1676 H 0.03694 0.59843 0.16237 0.0
H1677 H 0.03032 0.59986 0.09866 0.0
H1678 H 0.99077 0.60183 0.13206 0.0
H1679 H -0.00265 0.60054 0.19613 0.0
H1680 H 0.01489 0.58162 0.06594 0.0
H1681 H 0.99338 0.63003 0.05405 0.0
H1682 H 0.00385 0.62557 0.09115 0.0
H1683 H 0.98735 0.62068 0.09142 0.0
C1684 C 0.02684 0.59941 0.15623 0.0
C1685 C 0.01765 0.59933 0.18421 0.0
C1686 C 0.02309 0.60022 0.11981 0.0
C1687 C 0.01008 0.60104 0.11066 0.0
C1688 C 0.00088 0.60143 0.13858 0.0
H1689 H 0.97186 0.57638 0.91632 0.0
H1690 H 0.98066 0.57947 0.97738 0.0
C1691 C 0.00464 0.60064 0.17513 0.0
C1692 C 0.00614 0.60018 0.07197 0.0
H1693 H 0.98956 0.61558 0.0048 0.0
C1694 C 0.00945 0.5891 0.05248 0.0
C1695 C -0.00086 0.60998 0.05444 0.0
C1696 C 0.99581 0.6223 0.07368 0.0
C1697 C 0.00564 0.5874 0.01618 0.0
C1698 C -0.00179 0.59697 -0.00092 0.0
C1699 C 0.9952 0.60823 0.01815 0.0
C1700 C 0.99303 0.59518 0.96192 0.0
C1701 C 0.00955 0.57535 0.9964 0.0
C1702 C 0.99699 0.60309 0.93314 0.0
C1703 C 0.99199 0.60132 0.89809 0.0
C1704 C 0.98287 0.59169 0.89151 0.0
C1705 C 0.97892 0.58383 0.9205 0.0
C1706 C 0.98395 0.58557 0.95537 0.0
H1707 H 0.01778 0.57056 0.00991 0.0
H1708 H 0.00139 0.56855 0.99619 0.0
H1709 H 0.01217 0.57746 0.96768 0.0
H1710 H 0.00397 0.61059 0.9378 0.0
H1711 H 0.99515 0.60757 0.87629 0.0
H1712 H 0.62979 0.24866 0.37207 0.0
H1713 H 0.6251 0.23942 0.31191 0.0
H1714 H 0.66234 0.25123 0.27373 0.0
H1715 H 0.66708 0.26039 0.33337 0.0
H1716 H 0.62489 0.25351 0.24541 0.0
H1717 H 0.65978 0.21366 0.24075 0.0
H1718 H 0.65495 0.22122 0.28288 0.0
H1719 H 0.66693 0.22854 0.25442 0.0
C1720 C 0.63705 0.24906 0.351 0.0
C1721 C 0.64881 0.25521 0.35736 0.0
C1722 C 0.63434 0.24383 0.3167 0.0
C1723 C 0.64343 0.24454 0.28859 0.0
C1724 C 0.65528 0.25038 0.29526 0.0
H1725 H 0.64287 0.24947 0.05841 0.0
H1726 H 0.64032 0.253 0.12395 0.0
C1727 C 0.65796 0.25566 0.32931 0.0
C1728 C 0.64037 0.24004 0.25137 0.0
H1729 H 0.65201 0.22128 0.183 0.0
C1730 C 0.63064 0.24629 0.23187 0.0
C1731 C 0.64777 0.23052 0.23398 0.0
C1732 C 0.65786 0.223 0.25419 0.0
C1733 C 0.62864 0.24379 0.19469 0.0
C1734 C 0.6367 0.23495 0.17664 0.0
C1735 C 0.64591 0.22816 0.19675 0.0
C1736 C 0.6364 0.23313 0.1366 0.0
C1737 C 0.61805 0.25076 0.17501 0.0
C1738 C 0.63503 0.2208 0.12194 0.0
C1739 C 0.63663 0.21875 0.08462 0.0
C1740 C 0.63966 0.22899 0.06129 0.0
C1741 C 0.64047 0.24142 0.07572 0.0
C1742 C 0.63893 0.24345 0.11314 0.0
H1743 H 0.61035 0.25373 0.19414 0.0
H1744 H 0.62201 0.25955 0.16226 0.0
H1745 H 0.61379 0.24473 0.15324 0.0
H1746 H 0.63313 0.2127 0.13958 0.0
H1747 H 0.63592 0.20907 0.07424 0.0
H1748 H 0.98353 0.37549 0.60918 0.0
H1749 H 0.99085 0.37216 0.5463 0.0
H1750 H 0.98715 0.41264 0.52544 0.0
H1751 H 0.97949 0.41595 0.58756 0.0
H1752 H 0.9761 0.39863 0.47266 0.0
H1753 H 0.02509 0.38025 0.50026 0.0
H1754 H 0.01241 0.37134 0.52146 0.0
H1755 H 0.01537 0.3876 0.53513 0.0
C1756 C 0.98443 0.38368 0.59123 0.0
C1757 C 0.98097 0.39598 0.60323 0.0
C1758 C 0.98865 0.38177 0.55538 0.0
C1759 C 0.98966 0.39217 0.53124 0.0
C1760 C 0.98642 0.40447 0.54354 0.0
H1761 H 0.03062 0.40512 0.33526 0.0
H1762 H 0.02265 0.40208 0.39708 0.0
C1763 C 0.98209 0.40636 0.57909 0.0
C1764 C 0.99363 0.39038 0.49272 0.0
H1765 H 0.01864 0.38126 0.43872 0.0
C1766 C 0.98538 0.39476 0.46518 0.0
C1767 C 0.00574 0.38536 0.48309 0.0
C1768 C 0.01523 0.38096 0.51148 0.0
C1769 C 0.98906 0.3947 0.42839 0.0
C1770 C 0.00121 0.38975 0.41874 0.0
C1771 C 0.0093 0.38496 0.44616 0.0
C1772 C 0.00626 0.39072 0.38101 0.0
C1773 C 0.98016 0.40054 0.40054 0.0
C1774 C -0.00018 0.38515 0.35132 0.0
C1775 C 0.00428 0.38703 0.31569 0.0
C1776 C 0.01536 0.39433 0.30934 0.0
C1777 C 0.02203 0.39947 0.33923 0.0
C1778 C 0.01751 0.39771 0.37464 0.0
H1779 H 0.9726 0.40648 0.41349 0.0
H1780 H 0.98554 0.40662 0.38098 0.0
H1781 H 0.97538 0.39279 0.38498 0.0
H1782 H 0.99128 0.37947 0.35565 0.0
H1783 H -0.00098 0.38287 0.29317 0.0
H1784 H 0.8627 0.74511 0.86392 0.0
H1785 H 0.86596 0.75391 0.80244 0.0
H1786 H 0.83166 0.73493 0.76557 0.0
H1787 H 0.82837 0.72609 0.82651 0.0
H1788 H 0.86742 0.7381 0.73326 0.0
H1789 H 0.82816 0.774 0.73608 0.0
H1790 H 0.83543 0.76769 0.77704 0.0
H1791 H 0.824 0.75827 0.75218 0.0
C1792 C 0.85581 0.74292 0.84274 0.0
C1793 C 0.84526 0.73495 0.84999 0.0
C1794 C 0.85771 0.7479 0.80771 0.0
C1795 C 0.849 0.7451 0.7797 0.0
C1796 C 0.83842 0.73727 0.78699 0.0
H1797 H 0.84889 0.74689 0.54624 0.0
H1798 H 0.85102 0.74105 0.61061 0.0
C1799 C 0.83656 0.73223 0.82179 0.0
C1800 C 0.85098 0.75009 0.74244 0.0
H1801 H 0.83725 0.76929 0.67828 0.0
C1802 C 0.86095 0.74504 0.72125 0.0
C1803 C 0.84256 0.7592 0.72714 0.0
C1804 C 0.83198 0.76522 0.74928 0.0
C1805 C 0.86242 0.74852 0.68449 0.0
C1806 C 0.85361 0.75718 0.66867 0.0
C1807 C 0.84395 0.76259 0.69038 0.0
C1808 C 0.85388 0.76049 0.62941 0.0
C1809 C 0.87334 0.74288 0.66292 0.0
C1810 C 0.85476 0.77335 0.61863 0.0
C1811 C 0.85343 0.77671 0.58199 0.0
C1812 C 0.85115 0.76727 0.55545 0.0
C1813 C 0.85072 0.75436 0.56608 0.0
C1814 C 0.852 0.751 0.60282 0.0
H1815 H 0.8812 0.73955 0.68103 0.0
H1816 H 0.86981 0.73449 0.64732 0.0
H1817 H 0.87728 0.74994 0.64326 0.0
H1818 H 0.85615 0.78082 0.63874 0.0
H1819 H 0.85383 0.78674 0.57461 0.0
H1820 H 0.51994 0.57494 0.08043 0.0
H1821 H 0.51168 0.5772 0.01851 0.0
H1822 H 0.48891 0.60952 0.05232 0.0
H1823 H 0.49727 0.6074 0.11459 0.0
H1824 H 0.48642 0.57647 0.99321 0.0
H1825 H 0.5097 0.62332 0.96487 0.0
H1826 H 0.51421 0.61335 0.00297 0.0
H1827 H 0.49983 0.62274 0.005 0.0
C1828 C 0.51313 0.5825 0.07479 0.0
C1829 C 0.50929 0.59103 0.10232 0.0
C1830 C 0.50843 0.58377 0.03939 0.0
C1831 C 0.49985 0.59364 0.03075 0.0
C1832 C 0.49571 0.60199 0.05834 0.0
H1833 H 0.45728 0.59586 0.82675 0.0
H1834 H 0.46343 0.59669 0.89099 0.0
C1835 C 0.50041 0.6007 0.0939 0.0
C1836 C 0.49531 0.59506 0.99273 0.0
H1837 H 0.4965 0.61478 0.91848 0.0
C1838 C 0.48856 0.58487 0.9769 0.0
C1839 C 0.49829 0.60596 0.97146 0.0
C1840 C 0.506 0.61695 0.98671 0.0
C1841 C 0.48471 0.58526 0.9403 0.0
C1842 C 0.48752 0.59624 0.91915 0.0
C1843 C 0.49428 0.60644 0.93493 0.0
C1844 C 0.4838 0.59707 0.8803 0.0
C1845 C 0.47798 0.57377 0.92428 0.0
C1846 C 0.49322 0.59755 0.85302 0.0
C1847 C 0.48973 0.59715 0.8162 0.0
C1848 C 0.47677 0.5963 0.80621 0.0
C1849 C 0.46735 0.5964 0.83361 0.0
C1850 C 0.47084 0.59683 0.87033 0.0
H1851 H 0.47921 0.5651 0.94147 0.0
H1852 H 0.46757 0.57582 0.92223 0.0
H1853 H 0.4816 0.57166 0.89646 0.0
H1854 H 0.50327 0.5978 0.86024 0.0
H1855 H 0.49718 0.59711 0.79566 0.0
H1856 H 0.34454 0.20633 0.57609 0.0
H1857 H 0.34623 0.21325 0.63954 0.0
H1858 H 0.34945 0.25252 0.60444 0.0
H1859 H 0.3479 0.24565 0.5406 0.0
H1860 H 0.36653 0.2452 0.66303 0.0
H1861 H 0.31582 0.23181 0.68906 0.0
H1862 H 0.3256 0.21928 0.67037 0.0
H1863 H 0.32231 0.23331 0.64365 0.0
C1864 C 0.34573 0.21643 0.58181 0.0
C1865 C 0.34596 0.22547 0.55342 0.0
C1866 C 0.34666 0.22036 0.61807 0.0
C1867 C 0.34775 0.23339 0.6266 0.0
C1868 C 0.34856 0.24241 0.59832 0.0
H1869 H 0.32876 0.27246 0.82491 0.0
H1870 H 0.33073 0.26417 0.76297 0.0
C1871 C 0.34765 0.23848 0.56193 0.0
C1872 C 0.34737 0.23764 0.66505 0.0
H1873 H 0.32792 0.23874 0.73975 0.0
C1874 C 0.35812 0.24378 0.67991 0.0
C1875 C 0.33632 0.23586 0.68674 0.0
C1876 C 0.3243 0.22981 0.67168 0.0
C1877 C 0.35811 0.24817 0.71613 0.0
C1878 C 0.34712 0.24622 0.73794 0.0
C1879 C 0.33638 0.24009 0.723 0.0
C1880 C 0.3462 0.25115 0.77567 0.0
C1881 C 0.36972 0.25514 0.7305 0.0
C1882 C 0.35416 0.24644 0.80345 0.0
C1883 C 0.35304 0.25115 0.83905 0.0
C1884 C 0.34391 0.26061 0.84729 0.0
C1885 C 0.33588 0.26518 0.81943 0.0
C1886 C 0.337 0.26046 0.78401 0.0
H1887 H 0.3763 0.25809 0.70823 0.0
H1888 H 0.36682 0.26378 0.74608 0.0
H1889 H 0.37505 0.24874 0.74926 0.0
H1890 H 0.36117 0.23908 0.79764 0.0
H1891 H 0.35934 0.24745 0.86001 0.0
H1892 H 0.46861 0.58546 0.56874 0.0
H1893 H 0.47756 0.59004 0.50868 0.0
H1894 H 0.50923 0.60986 0.55863 0.0
H1895 H 0.50026 0.60536 0.61933 0.0
H1896 H 0.48465 0.61676 0.48074 0.0
H1897 H 0.52433 0.58108 0.48671 0.0
H1898 H 0.51015 0.57946 0.51456 0.0
H1899 H 0.52173 0.59157 0.52503 0.0
C1900 C 0.4775 0.59076 0.56707 0.0
C1901 C 0.48377 0.59502 0.59875 0.0
C1902 C 0.48256 0.5934 0.53272 0.0
C1903 C 0.49403 0.60026 0.52936 0.0
C1904 C 0.50038 0.60451 0.56083 0.0
H1905 H 0.53556 0.60735 0.3236 0.0
H1906 H 0.52967 0.61029 0.3876 0.0
C1907 C 0.49527 0.60193 0.59537 0.0
C1908 C 0.49922 0.6028 0.49262 0.0
H1909 H 0.5211 0.59177 0.43126 0.0
C1910 C 0.49272 0.61144 0.46995 0.0
C1911 C 0.50978 0.59589 0.47891 0.0
C1912 C 0.51695 0.58643 0.50234 0.0
C1913 C 0.49634 0.61312 0.4334 0.0
C1914 C 0.50649 0.6057 0.41905 0.0
C1915 C 0.5133 0.59744 0.44225 0.0
C1916 C 0.50967 0.60562 0.37964 0.0
C1917 C 0.4892 0.62279 0.41056 0.0
C1918 C 0.50035 0.6022 0.35378 0.0
C1919 C 0.50367 0.60063 0.31714 0.0
C1920 C 0.51641 0.60225 0.30584 0.0
C1921 C 0.52566 0.60604 0.33153 0.0
C1922 C 0.52231 0.60771 0.3681 0.0
H1923 H 0.4851 0.63053 0.42775 0.0
H1924 H 0.49552 0.62717 0.38965 0.0
H1925 H 0.48114 0.61795 0.39648 0.0
H1926 H 0.49061 0.60021 0.36215 0.0
H1927 H 0.49637 0.5976 0.29801 0.0
H1928 H 0.15581 0.71868 0.32299 0.0
H1929 H 0.15085 0.7279 0.26353 0.0
H1930 H 0.13389 0.76075 0.31577 0.0
H1931 H 0.13878 0.75151 0.37589 0.0
H1932 H 0.12423 0.73651 0.23919 0.0
H1933 H 0.16217 0.77412 0.23978 0.0
H1934 H 0.16346 0.75992 0.26766 0.0
H1935 H 0.15217 0.77215 0.27944 0.0
C1936 C 0.15106 0.72789 0.32195 0.0
C1937 C 0.14771 0.7344 0.3541 0.0
C1938 C 0.1482 0.73311 0.28795 0.0
C1939 C 0.14203 0.74498 0.2854 0.0
C1940 C 0.1387 0.75159 0.31734 0.0
H1941 H 0.13455 0.7858 0.07828 0.0
H1942 H 0.13201 0.78059 0.14293 0.0
C1943 C 0.14151 0.74631 0.35155 0.0
C1944 C 0.13919 0.75028 0.24896 0.0
H1945 H 0.15059 0.77126 0.18562 0.0
C1946 C 0.12985 0.74424 0.22754 0.0
C1947 C 0.14649 0.76039 0.23412 0.0
C1948 C 0.15668 0.76706 0.2562 0.0
C1949 C 0.12787 0.7478 0.19108 0.0
C1950 C 0.13569 0.75743 0.17552 0.0
C1951 C 0.14463 0.76386 0.19754 0.0
C1952 C 0.13551 0.76032 0.13594 0.0
C1953 C 0.11751 0.74115 0.16957 0.0
C1954 C 0.13815 0.75063 0.11046 0.0
C1955 C 0.13951 0.75357 0.0735 0.0
C1956 C 0.13843 0.76628 0.06145 0.0
C1957 C 0.13542 0.77591 0.08679 0.0
C1958 C 0.13398 0.77296 0.12373 0.0
H1959 H 0.10976 0.73762 0.18773 0.0
H1960 H 0.11326 0.74761 0.1488 0.0
H1961 H 0.12167 0.73273 0.15543 0.0
H1962 H 0.1397 0.74086 0.11933 0.0
H1963 H 0.14193 0.74596 0.05465 0.0
H1964 H -0.00269 0.39519 0.79381 0.0
H1965 H 0.00487 0.39411 0.85702 0.0
H1966 H 0.96616 0.38799 0.89398 0.0
H1967 H 0.95852 0.38907 0.831 0.0
H1968 H 0.99514 0.41177 0.91207 0.0
H1969 H 0.98793 0.36071 0.95001 0.0
H1970 H 0.9894 0.36593 0.90321 0.0
H1971 H 0.97473 0.3685 0.92762 0.0
C1972 C 0.99045 0.39336 0.81534 0.0
C1973 C 0.97733 0.39224 0.80751 0.0
C1974 C 0.99478 0.39277 0.85138 0.0
C1975 C 0.98608 0.39087 0.88005 0.0
C1976 C 0.97304 0.38926 0.87217 0.0
H1977 H 0.99373 0.39298 0.11735 0.0
H1978 H 0.98555 0.39064 0.05485 0.0
C1979 C 0.9687 0.38995 0.8362 0.0
C1980 C 0.99043 0.39183 0.91832 0.0
H1981 H 0.99369 0.37497 0.99752 0.0
C1982 C 0.99489 0.40371 0.93074 0.0
C1983 C 0.98988 0.38135 0.94262 0.0
C1984 C 0.98532 0.36835 0.9303 0.0
C1985 C -0.00122 0.40544 0.96699 0.0
C1986 C -0.0015 0.39489 0.99121 0.0
C1987 C 0.9939 0.38302 0.97888 0.0
C1988 C 0.00341 0.39594 0.02899 0.0
C1989 C 0.00292 0.41861 0.97913 0.0
C1990 C 0.01619 0.39946 0.03506 0.0
C1991 C 0.02082 0.40089 0.07048 0.0
C1992 C 0.01281 0.39868 0.10062 0.0
C1993 C 9e-05 0.39482 0.09461 0.0
C1994 C 0.99543 0.39345 0.059 0.0
H1995 H -0.00105 0.4262 0.96115 0.0
H1996 H -0.00014 0.42057 0.00759 0.0
H1997 H 0.01352 0.41926 0.9779 0.0
H1998 H 0.02261 0.40112 0.01234 0.0
H1999 H 0.03072 0.40373 0.07419 0.0
H2000 H 0.34172 0.74736 0.95017 0.0
H2001 H 0.34319 0.74066 0.8862 0.0
H2002 H 0.34915 0.77986 0.85365 0.0
H2003 H 0.34757 0.78667 0.91739 0.0
H2004 H 0.32532 0.75442 0.82782 0.0
H2005 H 0.37792 0.75517 0.80192 0.0
H2006 H 0.37144 0.75187 0.84666 0.0
H2007 H 0.37075 0.76778 0.82863 0.0
C2008 C 0.34354 0.75452 0.92944 0.0
C2009 C 0.34449 0.76754 0.93871 0.0
C2010 C 0.34436 0.75068 0.893 0.0
C2011 C 0.34633 0.75978 0.86545 0.0
C2012 C 0.34772 0.77271 0.87469 0.0
H2013 H 0.35171 0.75067 0.62862 0.0
H2014 H 0.35277 0.7593 0.6909 0.0
C2015 C 0.34679 0.77658 0.91105 0.0
C2016 C 0.34586 0.7559 0.8268 0.0
H2017 H 0.36452 0.74973 0.75252 0.0
C2018 C 0.33387 0.75338 0.81127 0.0
C2019 C 0.35703 0.75481 0.80539 0.0
C2020 C 0.37007 0.7575 0.82128 0.0
C2021 C 0.33274 0.74967 0.77469 0.0
C2022 C 0.34396 0.7481 0.75346 0.0
C2023 C 0.35595 0.7509 0.76887 0.0
C2024 C 0.34342 0.743 0.7158 0.0
C2025 C 0.31952 0.74763 0.75906 0.0
C2026 C 0.33801 0.73092 0.70933 0.0
C2027 C 0.33728 0.72607 0.674 0.0
C2028 C 0.34214 0.73311 0.6444 0.0
C2029 C 0.34782 0.74509 0.65091 0.0
C2030 C 0.34846 0.75 0.6864 0.0
H2031 H 0.31217 0.75308 0.77452 0.0
H2032 H 0.31908 0.75057 0.72999 0.0
H2033 H 0.31703 0.73733 0.76087 0.0
H2034 H 0.33438 0.72521 0.7317 0.0
H2035 H 0.33299 0.71674 0.66994 0.0
H2036 H -0.0022 0.59383 0.69755 0.0
H2037 H 0.00462 0.59516 0.63371 0.0
H2038 H 0.96566 0.60242 0.60084 0.0
H2039 H 0.95872 0.60101 0.66451 0.0
H2040 H 0.99184 0.57774 0.57731 0.0
H2041 H 0.98954 0.62992 0.54634 0.0
H2042 H 0.9922 0.62397 0.59201 0.0
H2043 H 0.97661 0.6228 0.57184 0.0
C2044 C 0.99072 0.59594 0.6768 0.0
C2045 C 0.97773 0.59727 0.68594 0.0
C2046 C 0.99463 0.59668 0.64042 0.0
C2047 C 0.98563 0.59896 0.61277 0.0
C2048 C 0.97274 0.60079 0.62193 0.0
H2049 H 0.99457 0.60123 0.37527 0.0
H2050 H 0.98588 0.60299 0.43737 0.0
C2051 C 0.9688 0.59994 0.65825 0.0
C2052 C 0.98953 0.59818 0.57416 0.0
H2053 H 0.99494 0.61607 0.49785 0.0
C2054 C 0.99253 0.58611 0.55988 0.0
C2055 C 0.99018 0.60909 0.55155 0.0
C2056 C 0.98703 0.62223 0.56602 0.0
C2057 C 0.99628 0.58465 0.52343 0.0
C2058 C -0.00261 0.59562 0.50101 0.0
C2059 C 0.99411 0.60769 0.51513 0.0
C2060 C 0.00256 0.59479 0.46348 0.0
C2061 C -0.00115 0.57133 0.50923 0.0
C2062 C 0.01486 0.58981 0.45774 0.0
C2063 C 0.01975 0.58869 0.42254 0.0
C2064 C 0.01252 0.59271 0.39233 0.0
C2065 C 0.00031 0.59799 0.39807 0.0
C2066 C 0.99536 0.59903 0.43345 0.0
H2067 H 0.99371 0.56397 0.5255 0.0
H2068 H 0.99594 0.57038 0.48025 0.0
H2069 H 0.00926 0.56928 0.51127 0.0
H2070 H 0.02072 0.58681 0.48057 0.0
H2071 H 0.02926 0.58474 0.41907 0.0
H2072 H 0.15911 0.27759 0.1799 0.0
H2073 H 0.1546 0.26901 0.24043 0.0
H2074 H 0.13691 0.2358 0.19207 0.0
H2075 H 0.1414 0.24436 0.13094 0.0
H2076 H 0.12894 0.26153 0.26853 0.0
H2077 H 0.16492 0.22213 0.26573 0.0
H2078 H 0.166 0.23579 0.23571 0.0
H2079 H 0.1542 0.22366 0.22753 0.0
C2080 C 0.15432 0.26842 0.18204 0.0
C2081 C 0.15065 0.26161 0.15068 0.0
C2082 C 0.1517 0.26357 0.21665 0.0
C2083 C 0.14546 0.25179 0.2206 0.0
C2084 C 0.14182 0.24489 0.18944 0.0
H2085 H 0.13629 0.21041 0.42543 0.0
H2086 H 0.13413 0.21659 0.36144 0.0
C2087 C 0.14438 0.24978 0.15464 0.0
C2088 C 0.14288 0.24684 0.2576 0.0
H2089 H 0.15337 0.22504 0.31992 0.0
C2090 C 0.13416 0.25347 0.27976 0.0
C2091 C 0.14968 0.23631 0.27192 0.0
C2092 C 0.15929 0.22904 0.24922 0.0
C2093 C 0.13223 0.24995 0.31628 0.0
C2094 C 0.13945 0.23975 0.33112 0.0
C2095 C 0.14785 0.23287 0.30852 0.0
C2096 C 0.13906 0.23646 0.37042 0.0
C2097 C 0.12248 0.2572 0.33853 0.0
C2098 C 0.14235 0.24563 0.39684 0.0
C2099 C 0.14348 0.24215 0.4335 0.0
C2100 C 0.14154 0.22939 0.44422 0.0
C2101 C 0.13786 0.22032 0.41793 0.0
C2102 C 0.13663 0.22383 0.38137 0.0
H2103 H 0.11497 0.26149 0.32087 0.0
H2104 H 0.11779 0.2509 0.35894 0.0
H2105 H 0.12733 0.26512 0.35319 0.0
H2106 H 0.14459 0.25537 0.38894 0.0
H2107 H 0.14644 0.24932 0.45313 0.0
H2108 H 0.53257 0.41274 0.16616 0.0
H2109 H 0.5248 0.41036 0.10391 0.0
H2110 H 0.49775 0.38178 0.13979 0.0
H2111 H 0.50525 0.38445 0.20279 0.0
H2112 H 0.52453 0.39017 0.05866 0.0
H2113 H 0.47475 0.4064 0.08592 0.0
H2114 H 0.4874 0.40804 0.11905 0.0
H2115 H 0.47977 0.39279 0.11218 0.0
C2116 C 0.52494 0.40595 0.16088 0.0
C2117 C 0.51944 0.39884 0.18937 0.0
C2118 C 0.52054 0.40458 0.12523 0.0
C2119 C 0.51058 0.39601 0.11722 0.0
C2120 C 0.50525 0.38865 0.14547 0.0
H2121 H 0.49168 0.38062 0.88699 0.0
H2122 H 0.49922 0.37793 0.94984 0.0
C2123 C 0.50958 0.39013 0.18138 0.0
C2124 C 0.50584 0.39505 0.07919 0.0
H2125 H 0.47961 0.40027 0.02574 0.0
C2126 C 0.51469 0.39231 0.05142 0.0
C2127 C 0.49302 0.39795 0.06985 0.0
C2128 C 0.48319 0.40157 0.09822 0.0
C2129 C 0.51117 0.39273 0.0145 0.0
C2130 C 0.49836 0.39564 0.00516 0.0
C2131 C 0.48942 0.39801 0.03299 0.0
C2132 C 0.49414 0.39714 0.96678 0.0
C2133 C 0.52135 0.39063 0.9859 0.0
C2134 C 0.48861 0.40873 0.95556 0.0
C2135 C 0.48414 0.4102 0.91998 0.0
C2136 C 0.48518 0.40014 0.89478 0.0
C2137 C 0.4909 0.38859 0.90576 0.0
C2138 C 0.49524 0.38706 0.94161 0.0
H2139 H 0.53115 0.39175 0.99729 0.0
H2140 H 0.5205 0.38077 0.97499 0.0
H2141 H 0.52021 0.39745 0.96289 0.0
H2142 H 0.48767 0.41664 0.97448 0.0
H2143 H 0.47976 0.41921 0.91228 0.0
H2144 H 0.14685 0.32354 0.0785 0.0
H2145 H 0.13286 0.34013 0.10419 0.0
H2146 H 0.10087 0.31406 0.09975 0.0
H2147 H 0.1147 0.29748 0.07413 0.0
H2148 H 0.10826 0.3502 0.07498 0.0
H2149 H 0.10399 0.3259 0.20914 0.0
H2150 H 0.11672 0.32244 0.17726 0.0
H2151 H 0.10102 0.31586 0.17023 0.0
C2152 C 0.1368 0.32141 0.08267 0.0
C2153 C 0.13186 0.30922 0.07452 0.0
C2154 C 0.12886 0.33086 0.09737 0.0
C2155 C 0.11594 0.32818 0.10434 0.0
C2156 C 0.11089 0.31619 0.09503 0.0
H2157 H 0.04792 0.36196 0.18592 0.0
H2158 H 0.06555 0.3483 0.16579 0.0
C2159 C 0.11878 0.30678 0.08023 0.0
C2160 C 0.10765 0.33781 0.12178 0.0
H2161 H 0.08945 0.34296 0.19755 0.0
C2162 C 0.10425 0.34876 0.10195 0.0
C2163 C 0.10254 0.33583 0.15699 0.0
C2164 C 0.10632 0.32443 0.17987 0.0
C2165 C 0.09531 0.35752 0.11577 0.0
C2166 C 0.08987 0.35532 0.15057 0.0
C2167 C 0.09364 0.34459 0.17088 0.0
C2168 C 0.0796 0.36354 0.16525 0.0
C2169 C 0.09129 0.3687 0.09235 0.0
C2170 C 0.08179 0.37653 0.17254 0.0
C2171 C 0.07172 0.38437 0.18395 0.0
C2172 C 0.05936 0.37928 0.18845 0.0
C2173 C 0.05734 0.36615 0.1826 0.0
C2174 C 0.06739 0.35834 0.17112 0.0
H2175 H 0.09441 0.36754 0.06358 0.0
H2176 H 0.08073 0.36991 0.09289 0.0
H2177 H 0.09569 0.37759 0.10317 0.0
H2178 H 0.09122 0.38064 0.16885 0.0
H2179 H 0.07356 0.39445 0.18847 0.0
H2180 H 0.88111 0.79722 0.41721 0.0
H2181 H 0.89448 0.81418 0.39154 0.0
H2182 H 0.86185 0.83946 0.38821 0.0
H2183 H 0.84837 0.82252 0.41414 0.0
H2184 H 0.88967 0.82698 0.3223 0.0
H2185 H 0.89064 0.86018 0.4412 0.0
H2186 H 0.88642 0.84349 0.44574 0.0
H2187 H 0.87523 0.85455 0.42614 0.0
C2188 C 0.8768 0.80643 0.41134 0.0
C2189 C 0.86371 0.80858 0.41773 0.0
C2190 C 0.88443 0.81607 0.39659 0.0
C2191 C 0.87914 0.82804 0.38821 0.0
C2192 C 0.86611 0.83031 0.39492 0.0
H2193 H 0.92121 0.89501 0.30887 0.0
H2194 H 0.90352 0.88077 0.32581 0.0
C2195 C 0.85844 0.82063 0.40964 0.0
C2196 C 0.88729 0.83797 0.3715 0.0
H2197 H 0.90229 0.86629 0.38917 0.0
C2198 C 0.89237 0.83563 0.33674 0.0
C2199 C 0.89064 0.84927 0.39038 0.0
C2200 C 0.88554 0.85207 0.42803 0.0
C2201 C 0.901 0.8442 0.32061 0.0
C2202 C 0.90481 0.85522 0.34015 0.0
C2203 C 0.89934 0.85781 0.37433 0.0
C2204 C 0.91518 0.86366 0.32698 0.0
C2205 C 0.90603 0.84133 0.28292 0.0
C2206 C 0.92754 0.85871 0.32205 0.0
C2207 C 0.93763 0.86678 0.31239 0.0
C2208 C 0.93552 0.87996 0.30777 0.0
C2209 C 0.92309 0.88488 0.31215 0.0
C2210 C 0.913 0.87678 0.32184 0.0
H2211 H 0.89934 0.83507 0.26749 0.0
H2212 H 0.90761 0.85026 0.26712 0.0
H2213 H 0.91531 0.83622 0.28527 0.0
H2214 H 0.92948 0.84866 0.3267 0.0
H2215 H 0.94712 0.86274 0.30939 0.0
H2216 H 0.35047 0.67195 0.56589 0.0
H2217 H 0.36452 0.65509 0.58967 0.0
H2218 H 0.39545 0.68228 0.59824 0.0
H2219 H 0.38152 0.69916 0.57469 0.0
H2220 H 0.38926 0.64661 0.5622 0.0
H2221 H 0.39174 0.66667 0.70222 0.0
H2222 H 0.3795 0.67123 0.66991 0.0
H2223 H 0.39531 0.67792 0.66657 0.0
C2224 C 0.36029 0.6743 0.57267 0.0
C2225 C 0.3649 0.68687 0.56865 0.0
C2226 C 0.36827 0.66468 0.58625 0.0
C2227 C 0.38091 0.66754 0.59622 0.0
C2228 C 0.38564 0.67998 0.59127 0.0
H2229 H 0.44774 0.63076 0.67886 0.0
H2230 H 0.43088 0.64524 0.65806 0.0
C2231 C 0.37769 0.68958 0.57763 0.0
C2232 C 0.38925 0.65755 0.61189 0.0
H2233 H 0.40655 0.65012 0.68786 0.0
C2234 C 0.39295 0.64725 0.58979 0.0
C2235 C 0.39397 0.65849 0.6479 0.0
C2236 C 0.38986 0.6691 0.67322 0.0
C2237 C 0.40174 0.63809 0.60231 0.0
C2238 C 0.40671 0.6392 0.63805 0.0
C2239 C 0.40272 0.64933 0.66045 0.0
C2240 C 0.4166 0.63038 0.65204 0.0
C2241 C 0.40602 0.62762 0.57672 0.0
C2242 C 0.41403 0.61728 0.65625 0.0
C2243 C 0.42366 0.60897 0.66807 0.0
C2244 C 0.43595 0.61368 0.67606 0.0
C2245 C 0.43836 0.62686 0.67285 0.0
C2246 C 0.42875 0.63514 0.66099 0.0
H2247 H 0.40339 0.6297 0.54798 0.0
H2248 H 0.41655 0.62625 0.57831 0.0
H2249 H 0.40137 0.61849 0.58469 0.0
H2250 H 0.40462 0.61348 0.65013 0.0
H2251 H 0.42153 0.59886 0.67046 0.0
H2252 H 0.61271 0.2001 0.92052 0.0
H2253 H 0.59999 0.18188 0.90002 0.0
H2254 H 0.63417 0.1589 0.892 0.0
H2255 H 0.64708 0.17722 0.91229 0.0
H2256 H 0.61732 0.15714 0.8308 0.0
H2257 H 0.59178 0.14999 0.96165 0.0
H2258 H 0.59111 0.16621 0.94568 0.0
H2259 H 0.60628 0.15933 0.95809 0.0
C2260 C 0.61754 0.19117 0.91447 0.0
C2261 C 0.63087 0.19003 0.91822 0.0
C2262 C 0.61025 0.18076 0.90293 0.0
C2263 C 0.61614 0.16902 0.89518 0.0
C2264 C 0.62948 0.16788 0.89818 0.0
H2265 H 0.57651 0.09963 0.81909 0.0
H2266 H 0.59363 0.11414 0.83894 0.0
C2267 C 0.63681 0.17832 0.90977 0.0
C2268 C 0.60823 0.15806 0.88344 0.0
H2269 H 0.58238 0.14023 0.90888 0.0
C2270 C 0.60982 0.15325 0.84799 0.0
C2271 C 0.59853 0.153 0.90614 0.0
C2272 C 0.59689 0.1573 0.94514 0.0
C2273 C 0.60142 0.14399 0.83392 0.0
C2274 C 0.59133 0.13946 0.85605 0.0
C2275 C 0.5901 0.14385 0.89198 0.0
C2276 C 0.58137 0.1308 0.84183 0.0
C2277 C 0.60298 0.13953 0.79507 0.0
C2278 C 0.5689 0.13543 0.83695 0.0
C2279 C 0.55916 0.12723 0.82566 0.0
C2280 C 0.56172 0.11422 0.81934 0.0
C2281 C 0.57428 0.10962 0.82372 0.0
C2282 C 0.58406 0.11788 0.83492 0.0
H2283 H 0.61048 0.14501 0.7803 0.0
H2284 H 0.60566 0.12925 0.79489 0.0
H2285 H 0.59378 0.14049 0.78014 0.0
H2286 H 0.56669 0.14539 0.8423 0.0
H2287 H 0.54957 0.13103 0.82254 0.0
H2288 H 0.04679 0.63098 0.31906 0.0
H2289 H 0.06358 0.64494 0.34309 0.0
H2290 H 0.09053 0.6137 0.33871 0.0
H2291 H 0.07376 0.59962 0.31453 0.0
H2292 H 0.0778 0.63915 0.41033 0.0
H2293 H 0.10881 0.6448 0.28774 0.0
H2294 H 0.09221 0.64006 0.28453 0.0
H2295 H 0.104 0.62881 0.29997 0.0
C2296 C 0.05632 0.62712 0.32276 0.0
C2297 C 0.05898 0.61422 0.31494 0.0
C2298 C 0.06588 0.63508 0.33656 0.0
C2299 C 0.07825 0.63032 0.34245 0.0
C2300 C 0.08104 0.61754 0.33392 0.0
H2301 H 0.14525 0.67162 0.42352 0.0
H2302 H 0.131 0.65446 0.40278 0.0
C2303 C 0.07146 0.60954 0.32021 0.0
C2304 C 0.088 0.63863 0.35933 0.0
H2305 H 0.11548 0.65512 0.34158 0.0
C2306 C 0.08608 0.64261 0.39543 0.0
C2307 C 0.09881 0.64297 0.3398 0.0
C2308 C 0.10113 0.63904 0.30077 0.0
C2309 C 0.09464 0.65103 0.41246 0.0
C2310 C 0.10521 0.65576 0.39251 0.0
C2311 C 0.10734 0.65147 0.35674 0.0
C2312 C 0.11372 0.66577 0.4074 0.0
C2313 C 0.0923 0.65476 0.45164 0.0
C2314 C 0.1087 0.67777 0.41683 0.0
C2315 C 0.11677 0.68754 0.42877 0.0
C2316 C 0.13004 0.6855 0.43113 0.0
C2317 C 0.13505 0.67343 0.42208 0.0
C2318 C 0.12695 0.66364 0.41018 0.0
H2319 H 0.08644 0.64746 0.46607 0.0
H2320 H 0.10145 0.65605 0.46662 0.0
H2321 H 0.08697 0.66395 0.45239 0.0
H2322 H 0.09855 0.67969 0.41409 0.0
H2323 H 0.11265 0.69678 0.43532 0.0
H2324 H 0.64859 0.8227 0.57807 0.0
H2325 H 0.63553 0.84026 0.60261 0.0
H2326 H 0.60247 0.81552 0.60367 0.0
H2327 H 0.61535 0.798 0.5792 0.0
H2328 H 0.61134 0.85061 0.5718 0.0
H2329 H 0.60609 0.82985 0.71027 0.0
H2330 H 0.61869 0.82515 0.67928 0.0
H2331 H 0.60278 0.81888 0.67372 0.0
C2332 C 0.63852 0.82104 0.58341 0.0
C2333 C 0.63297 0.80899 0.57687 0.0
C2334 C 0.63111 0.83105 0.59743 0.0
C2335 C 0.61814 0.82906 0.6054 0.0
C2336 C 0.61254 0.81713 0.59818 0.0
H2337 H 0.54988 0.8642 0.67454 0.0
H2338 H 0.56794 0.85058 0.65762 0.0
C2339 C 0.61989 0.80718 0.58403 0.0
C2340 C 0.61024 0.8394 0.6209 0.0
H2341 H 0.59149 0.84653 0.69419 0.0
C2342 C 0.60715 0.8499 0.59878 0.0
C2343 C 0.60489 0.83836 0.65613 0.0
C2344 C 0.60835 0.82751 0.68143 0.0
C2345 C 0.59817 0.85904 0.61022 0.0
C2346 C 0.59237 0.85768 0.64486 0.0
C2347 C 0.59594 0.84749 0.66761 0.0
C2348 C 0.58175 0.86603 0.65667 0.0
C2349 C 0.59444 0.86966 0.58444 0.0
C2350 C 0.58363 0.87917 0.66233 0.0
C2351 C 0.57331 0.88699 0.67192 0.0
C2352 C 0.56101 0.88173 0.67615 0.0
C2353 C 0.55925 0.86851 0.67139 0.0
C2354 C 0.56955 0.86073 0.66178 0.0
H2355 H 0.59813 0.86802 0.55641 0.0
H2356 H 0.58386 0.87065 0.58316 0.0
H2357 H 0.59844 0.87885 0.59451 0.0
H2358 H 0.59305 0.88337 0.65908 0.0
H2359 H 0.57494 0.89715 0.6756 0.0
H2360 H 0.42257 0.39636 0.8248 0.0
H2361 H 0.40512 0.38307 0.84903 0.0
H2362 H 0.42998 0.35013 0.84777 0.0
H2363 H 0.44739 0.36324 0.82362 0.0
H2364 H 0.39464 0.35883 0.81796 0.0
H2365 H 0.41631 0.3535 0.95533 0.0
H2366 H 0.42072 0.3662 0.9243 0.0
H2367 H 0.42706 0.35036 0.91812 0.0
C2368 C 0.42427 0.38627 0.82951 0.0
C2369 C 0.43633 0.38082 0.82251 0.0
C2370 C 0.41432 0.37873 0.84334 0.0
C2371 C 0.41639 0.36572 0.85062 0.0
C2372 C 0.42831 0.36021 0.84279 0.0
H2373 H 0.3818 0.29743 0.92256 0.0
H2374 H 0.39522 0.31539 0.90366 0.0
C2375 C 0.43821 0.3677 0.82884 0.0
C2376 C 0.40617 0.35773 0.86647 0.0
H2377 H 0.39953 0.33895 0.94008 0.0
C2378 C 0.39554 0.35462 0.84488 0.0
C2379 C 0.40744 0.35236 0.90163 0.0
C2380 C 0.41844 0.35584 0.9264 0.0
C2381 C 0.38647 0.34562 0.85679 0.0
C2382 C 0.38806 0.33982 0.89134 0.0
C2383 C 0.39839 0.3434 0.91355 0.0
C2384 C 0.37978 0.32921 0.90368 0.0
C2385 C 0.37567 0.3419 0.83161 0.0
C2386 C 0.3667 0.33112 0.91041 0.0
C2387 C 0.35899 0.32085 0.92117 0.0
C2388 C 0.3643 0.30858 0.92549 0.0
C2389 C 0.37745 0.30678 0.9194 0.0
C2390 C 0.38512 0.31702 0.90864 0.0
H2391 H 0.3771 0.34562 0.80353 0.0
H2392 H 0.37469 0.33132 0.83032 0.0
H2393 H 0.36655 0.34585 0.84227 0.0
H2394 H 0.36247 0.34052 0.90727 0.0
H2395 H 0.34889 0.3225 0.92583 0.0
H2396 H 0.87944 0.19456 0.0559 0.0
H2397 H 0.89366 0.17739 0.07569 0.0
H2398 H 0.86148 0.15162 0.08314 0.0
H2399 H 0.8471 0.16888 0.06385 0.0
H2400 H 0.8763 0.15193 0.14518 0.0
H2401 H 0.90697 0.14586 0.02337 0.0
H2402 H 0.90607 0.16224 0.03777 0.0
H2403 H 0.89186 0.15424 0.02186 0.0
C2404 C 0.87541 0.18519 0.06117 0.0
C2405 C 0.86217 0.18304 0.05833 0.0
C2406 C 0.88356 0.17536 0.07227 0.0
C2407 C 0.87864 0.1632 0.08036 0.0
C2408 C 0.86545 0.16093 0.07676 0.0
H2409 H 0.92034 0.09817 0.17426 0.0
H2410 H 0.90322 0.11142 0.14842 0.0
C2411 C 0.85727 0.17078 0.0657 0.0
C2412 C 0.88717 0.15323 0.09538 0.0
H2413 H 0.91542 0.13778 0.0799 0.0
C2414 C 0.88474 0.14865 0.13071 0.0
C2415 C 0.89815 0.14898 0.07636 0.0
C2416 C 0.90086 0.15299 0.03759 0.0
C2417 C 0.89336 0.14039 0.14822 0.0
C2418 C 0.9046 0.13663 0.12976 0.0
C2419 C 0.90681 0.14083 0.094 0.0
C2420 C 0.91451 0.12878 0.14759 0.0
C2421 C 0.8907 0.13617 0.18682 0.0
C2422 C 0.92643 0.13423 0.15577 0.0
C2423 C 0.93618 0.12674 0.17059 0.0
C2424 C 0.93418 0.11364 0.17713 0.0
C2425 C 0.92212 0.10826 0.16961 0.0
C2426 C 0.91235 0.11579 0.15491 0.0
H2427 H 0.88243 0.14132 0.19897 0.0
H2428 H 0.88857 0.12576 0.18706 0.0
H2429 H 0.89926 0.13776 0.2042 0.0
H2430 H 0.92824 0.14426 0.15021 0.0
H2431 H 0.94538 0.13114 0.176 0.0
H2432 H 0.88151 0.69605 0.9226 0.0
H2433 H 0.89488 0.67829 0.90205 0.0
H2434 H 0.86171 0.65372 0.89787 0.0
H2435 H 0.84817 0.67156 0.91799 0.0
H2436 H 0.89847 0.65419 0.93469 0.0
H2437 H 0.87755 0.65019 0.79548 0.0
H2438 H 0.8749 0.66396 0.82424 0.0
H2439 H 0.86645 0.6493 0.83287 0.0
C2440 C 0.87705 0.68687 0.91734 0.0
C2441 C 0.8638 0.68519 0.92171 0.0
C2442 C 0.8847 0.67674 0.90564 0.0
C2443 C 0.87924 0.66478 0.89802 0.0
C2444 C 0.86604 0.66297 0.90301 0.0
H2445 H 0.9202 0.59709 0.81699 0.0
H2446 H 0.90318 0.61109 0.84023 0.0
C2447 C 0.85836 0.67312 0.91468 0.0
C2448 C 0.8875 0.65427 0.88496 0.0
H2449 H 0.89432 0.63602 0.81023 0.0
C2450 C 0.89751 0.65014 0.9076 0.0
C2451 C 0.88616 0.649 0.84964 0.0
C2452 C 0.87575 0.65337 0.82393 0.0
C2453 C 0.90641 0.64107 0.89552 0.0
C2454 C 0.90534 0.63615 0.85978 0.0
C2455 C 0.89507 0.63988 0.8376 0.0
C2456 C 0.91532 0.6278 0.84425 0.0
C2457 C 0.91702 0.63694 0.92086 0.0
C2458 C 0.92762 0.63272 0.83809 0.0
C2459 C 0.93729 0.62482 0.82473 0.0
C2460 C 0.93481 0.61186 0.81731 0.0
C2461 C 0.92238 0.60703 0.82256 0.0
C2462 C 0.91267 0.61498 0.83582 0.0
H2463 H 0.91471 0.63909 0.94978 0.0
H2464 H 0.91892 0.62652 0.91814 0.0
H2465 H 0.92593 0.64215 0.91366 0.0
H2466 H 0.92976 0.64266 0.84397 0.0
H2467 H 0.94677 0.62882 0.82085 0.0
H2468 H 0.11279 0.19516 0.57192 0.0
H2469 H 0.09988 0.17665 0.58907 0.0
H2470 H 0.1339 0.15332 0.59443 0.0
H2471 H 0.14699 0.17193 0.57763 0.0
H2472 H 0.09793 0.15261 0.55301 0.0
H2473 H 0.11656 0.1482 0.69493 0.0
H2474 H 0.11897 0.16245 0.66794 0.0
H2475 H 0.1281 0.14828 0.65851 0.0
C2476 C 0.11754 0.18609 0.57673 0.0
C2477 C 0.13089 0.18498 0.57362 0.0
C2478 C 0.11015 0.17553 0.58645 0.0
C2479 C 0.11597 0.16368 0.59331 0.0
C2480 C 0.12928 0.16245 0.58972 0.0
H2481 H 0.07161 0.0976 0.67404 0.0
H2482 H 0.08971 0.10993 0.64949 0.0
C2483 C 0.13672 0.17305 0.58001 0.0
C2484 C 0.1079 0.15276 0.60442 0.0
H2485 H 0.09954 0.13472 0.67826 0.0
C2486 C 0.0984 0.14855 0.5802 0.0
C2487 C 0.10861 0.14746 0.63984 0.0
C2488 C 0.11854 0.15183 0.66703 0.0
C2489 C 0.0892 0.13958 0.59104 0.0
C2490 C 0.08947 0.13484 0.62709 0.0
C2491 C 0.0994 0.13845 0.65066 0.0
C2492 C 0.07874 0.12729 0.64189 0.0
C2493 C 0.07901 0.13552 0.56427 0.0
C2494 C 0.06675 0.1331 0.64623 0.0
C2495 C 0.05649 0.12618 0.6604 0.0
C2496 C 0.05807 0.1133 0.67042 0.0
C2497 C 0.07014 0.10751 0.66643 0.0
C2498 C 0.08045 0.1145 0.65244 0.0
H2499 H 0.08204 0.13724 0.53565 0.0
H2500 H 0.07664 0.12522 0.5676 0.0
H2501 H 0.07017 0.14115 0.56934 0.0
H2502 H 0.06534 0.14303 0.63871 0.0
H2503 H 0.0473 0.13089 0.66321 0.0
H2504 H 0.57843 0.39564 0.30346 0.0
H2505 H 0.5963 0.38125 0.31733 0.0
H2506 H 0.57053 0.34897 0.31449 0.0
H2507 H 0.55274 0.36321 0.29995 0.0
H2508 H 0.59785 0.36666 0.37823 0.0
H2509 H 0.60056 0.33544 0.25682 0.0
H2510 H 0.59199 0.35046 0.25668 0.0
H2511 H 0.58457 0.33621 0.27453 0.0
C2512 C 0.57664 0.38544 0.30508 0.0
C2513 C 0.56421 0.38053 0.30067 0.0
C2514 C 0.58684 0.37725 0.313 0.0
C2515 C 0.58476 0.36403 0.31642 0.0
C2516 C 0.57241 0.35909 0.31104 0.0
H2517 H 0.6155 0.29806 0.41497 0.0
H2518 H 0.60327 0.31529 0.38628 0.0
C2519 C 0.56223 0.36726 0.30301 0.0
C2520 C 0.59511 0.35552 0.32938 0.0
H2521 H 0.60951 0.32682 0.31252 0.0
C2522 C 0.60063 0.35808 0.36353 0.0
C2523 C 0.59871 0.34437 0.31008 0.0
C2524 C 0.59374 0.34153 0.27232 0.0
C2525 C 0.60908 0.34938 0.37987 0.0
C2526 C 0.61208 0.33791 0.36144 0.0
C2527 C 0.60706 0.33561 0.32661 0.0
C2528 C 0.61963 0.32774 0.37905 0.0
C2529 C 0.61424 0.35215 0.41748 0.0
C2530 C 0.63284 0.32914 0.38447 0.0
C2531 C 0.63986 0.31931 0.40084 0.0
C2532 C 0.63373 0.30798 0.41201 0.0
C2533 C 0.62046 0.3067 0.40678 0.0
C2534 C 0.61349 0.31648 0.39029 0.0
H2535 H 0.60994 0.3609 0.42959 0.0
H2536 H 0.61236 0.34392 0.43589 0.0
H2537 H 0.62477 0.3535 0.41596 0.0
H2538 H 0.63771 0.33776 0.37572 0.0
H2539 H 0.65008 0.32052 0.40443 0.0
H2540 H 0.37768 0.79787 0.06851 0.0
H2541 H 0.39187 0.8146 0.09172 0.0
H2542 H 0.36029 0.84116 0.09432 0.0
H2543 H 0.34596 0.82445 0.07098 0.0
H2544 H 0.38458 0.85065 0.06337 0.0
H2545 H 0.38982 0.82788 0.19936 0.0
H2546 H 0.39259 0.81736 0.16139 0.0
H2547 H 0.37691 0.82399 0.16848 0.0
C2548 C 0.37377 0.8073 0.07375 0.0
C2549 C 0.36071 0.80985 0.06816 0.0
C2550 C 0.38186 0.8168 0.08716 0.0
C2551 C 0.37704 0.82899 0.09523 0.0
C2552 C 0.36412 0.83175 0.08845 0.0
H2553 H 0.42006 0.89585 0.17343 0.0
H2554 H 0.40237 0.882 0.15401 0.0
C2555 C 0.35598 0.82222 0.07512 0.0
C2556 C 0.38555 0.83876 0.11117 0.0
H2557 H 0.40439 0.84469 0.18521 0.0
C2558 C 0.38881 0.84949 0.09017 0.0
C2559 C 0.39095 0.83715 0.14619 0.0
C2560 C 0.38733 0.82604 0.17038 0.0
C2561 C 0.39788 0.85838 0.10264 0.0
C2562 C 0.4036 0.85653 0.13721 0.0
C2563 C 0.39999 0.84603 0.15868 0.0
C2564 C 0.41398 0.86489 0.15059 0.0
C2565 C 0.4017 0.86933 0.07809 0.0
C2566 C 0.42622 0.85973 0.15617 0.0
C2567 C 0.43628 0.86756 0.16748 0.0
C2568 C 0.43424 0.88067 0.1735 0.0
C2569 C 0.4219 0.88577 0.16884 0.0
C2570 C 0.41182 0.87791 0.15755 0.0
H2571 H 0.39829 0.86793 0.04967 0.0
H2572 H 0.39747 0.87834 0.08863 0.0
H2573 H 0.41227 0.87049 0.07769 0.0
H2574 H 0.42804 0.84968 0.15108 0.0
H2575 H 0.44569 0.86336 0.1709 0.0
H2576 H 0.91949 0.39869 0.66078 0.0
H2577 H 0.90056 0.38662 0.64116 0.0
H2578 H 0.91837 0.35154 0.67692 0.0
H2579 H 0.93722 0.36349 0.69673 0.0
H2580 H 0.90071 0.36729 0.58856 0.0
H2581 H 0.88222 0.34907 0.7201 0.0
H2582 H 0.89326 0.36235 0.71714 0.0
H2583 H 0.89905 0.34615 0.71459 0.0
C2584 C 0.91928 0.38843 0.66489 0.0
C2585 C 0.92981 0.38201 0.68026 0.0
C2586 C 0.90848 0.38157 0.6537 0.0
C2587 C 0.90801 0.36824 0.65812 0.0
C2588 C 0.91843 0.36186 0.67403 0.0
H2589 H 0.8771 0.30586 0.54615 0.0
H2590 H 0.88868 0.32461 0.56834 0.0
C2591 C 0.92923 0.36869 0.68508 0.0
C2592 C 0.89719 0.36075 0.64339 0.0
H2593 H 0.87591 0.33734 0.6663 0.0
C2594 C 0.8951 0.36092 0.60561 0.0
C2595 C 0.88976 0.35261 0.66575 0.0
C2596 C 0.89108 0.35261 0.7067 0.0
C2597 C 0.88636 0.35249 0.58931 0.0
C2598 C 0.87972 0.34361 0.61139 0.0
C2599 C 0.88114 0.34407 0.6494 0.0
C2600 C 0.87228 0.33297 0.59547 0.0
C2601 C 0.88459 0.35289 0.54851 0.0
C2602 C 0.85926 0.33143 0.60369 0.0
C2603 C 0.85261 0.3207 0.59106 0.0
C2604 C 0.85896 0.31129 0.57048 0.0
C2605 C 0.87195 0.31297 0.56189 0.0
C2606 C 0.87856 0.32372 0.57432 0.0
H2607 H 0.88709 0.36245 0.53727 0.0
H2608 H 0.89101 0.34573 0.53566 0.0
H2609 H 0.87457 0.35057 0.54082 0.0
H2610 H 0.85431 0.33844 0.62029 0.0
H2611 H 0.8426 0.31961 0.59818 0.0
H2612 H 0.34739 0.16889 0.42183 0.0
H2613 H 0.36207 0.15175 0.40351 0.0
H2614 H 0.39403 0.17763 0.41464 0.0
H2615 H 0.3795 0.1947 0.43338 0.0
H2616 H 0.37809 0.1522 0.34306 0.0
H2617 H 0.40625 0.14604 0.46976 0.0
H2618 H 0.39106 0.15429 0.46884 0.0
H2619 H 0.40548 0.16242 0.45524 0.0
C2620 C 0.35756 0.17085 0.42087 0.0
C2621 C 0.36233 0.1831 0.4291 0.0
C2622 C 0.36591 0.16107 0.41037 0.0
C2623 C 0.37912 0.16339 0.40825 0.0
C2624 C 0.38389 0.17557 0.41692 0.0
H2625 H 0.44764 0.13051 0.32527 0.0
H2626 H 0.43021 0.14385 0.34845 0.0
C2627 C 0.37557 0.18533 0.42741 0.0
C2628 C 0.38792 0.15342 0.39458 0.0
H2629 H 0.41566 0.13776 0.41489 0.0
C2630 C 0.38619 0.14887 0.35891 0.0
C2631 C 0.39844 0.1491 0.41544 0.0
C2632 C 0.40036 0.15312 0.45458 0.0
C2633 C 0.39511 0.14055 0.34288 0.0
C2634 C 0.40591 0.13668 0.36326 0.0
C2635 C 0.40739 0.14088 0.39932 0.0
C2636 C 0.41609 0.1287 0.34723 0.0
C2637 C 0.39323 0.13637 0.30387 0.0
C2638 C 0.41382 0.11582 0.33871 0.0
C2639 C 0.42376 0.10817 0.32548 0.0
C2640 C 0.43608 0.11332 0.32068 0.0
C2641 C 0.43823 0.12629 0.3286 0.0
C2642 C 0.42832 0.13391 0.34192 0.0
H2643 H 0.38546 0.14181 0.29014 0.0
H2644 H 0.40223 0.13763 0.28814 0.0
H2645 H 0.39072 0.12606 0.30328 0.0
H2646 H 0.40446 0.11162 0.34306 0.0
H2647 H 0.42185 0.09818 0.31972 0.0
H2648 H 0.61396 0.69431 0.05877 0.0
H2649 H 0.59979 0.67675 0.07627 0.0
H2650 H 0.63208 0.65105 0.0806 0.0
H2651 H 0.6464 0.66867 0.06359 0.0
H2652 H 0.59529 0.65265 0.04383 0.0
H2653 H 0.6162 0.64832 0.18299 0.0
H2654 H 0.61931 0.6619 0.15388 0.0
H2655 H 0.62724 0.64693 0.14562 0.0
C2656 C 0.61804 0.6849 0.06319 0.0
C2657 C 0.63129 0.68286 0.06014 0.0
C2658 C 0.60993 0.67489 0.07313 0.0
C2659 C 0.61494 0.66269 0.08025 0.0
C2660 C 0.62809 0.66048 0.07585 0.0
H2661 H 0.57239 0.5973 0.16929 0.0
H2662 H 0.58953 0.61036 0.14259 0.0
C2663 C 0.63623 0.67052 0.06596 0.0
C2664 C 0.60633 0.65247 0.09341 0.0
H2665 H 0.59898 0.6347 0.16866 0.0
C2666 C 0.59615 0.64863 0.07099 0.0
C2667 C 0.60753 0.64725 0.12885 0.0
C2668 C 0.61809 0.65134 0.15444 0.0
C2669 C 0.58694 0.6399 0.08338 0.0
C2670 C 0.58789 0.63505 0.11925 0.0
C2671 C 0.59833 0.63848 0.14119 0.0
C2672 C 0.57766 0.62713 0.13534 0.0
C2673 C 0.57619 0.63604 0.0582 0.0
C2674 C 0.56545 0.63238 0.14072 0.0
C2675 C 0.55571 0.62502 0.15609 0.0
C2676 C 0.55804 0.61228 0.16639 0.0
C2677 C 0.57034 0.60709 0.16154 0.0
C2678 C 0.58011 0.6145 0.14627 0.0
H2679 H 0.57869 0.63776 0.02916 0.0
H2680 H 0.57374 0.62577 0.06174 0.0
H2681 H 0.56756 0.64179 0.06469 0.0
H2682 H 0.56347 0.6422 0.13309 0.0
H2683 H 0.54633 0.62928 0.15958 0.0
H2684 H 0.05034 0.86487 0.80854 0.0
H2685 H 0.0678 0.85039 0.82459 0.0
H2686 H 0.0947 0.88163 0.81772 0.0
H2687 H 0.0772 0.89629 0.80223 0.0
H2688 H 0.09071 0.84406 0.78871 0.0
H2689 H 0.09953 0.86814 0.92192 0.0
H2690 H 0.08541 0.87123 0.895 0.0
H2691 H 0.10051 0.87808 0.88204 0.0
C2692 C 0.05998 0.86865 0.81015 0.0
C2693 C 0.06241 0.88172 0.80449 0.0
C2694 C 0.06994 0.86036 0.81926 0.0
C2695 C 0.08248 0.865 0.82288 0.0
C2696 C 0.08504 0.87794 0.8157 0.0
H2697 H 0.14654 0.81993 0.91116 0.0
H2698 H 0.13464 0.83736 0.88167 0.0
C2699 C 0.07505 0.88627 0.80669 0.0
C2700 C 0.09265 0.85628 0.83568 0.0
H2701 H 0.11158 0.84969 0.9092 0.0
C2702 C 0.09539 0.84535 0.81485 0.0
C2703 C 0.09876 0.85805 0.86977 0.0
C2704 C 0.09588 0.86945 0.89371 0.0
C2705 C 0.10378 0.83592 0.82776 0.0
C2706 C 0.10943 0.83743 0.8625 0.0
C2707 C 0.10719 0.84862 0.88258 0.0
C2708 C 0.11672 0.82699 0.87984 0.0
C2709 C 0.10635 0.8243 0.80449 0.0
C2710 C 0.11046 0.81558 0.88912 0.0
C2711 C 0.11716 0.8057 0.90613 0.0
C2712 C 0.13023 0.80709 0.91415 0.0
C2713 C 0.13646 0.81861 0.90523 0.0
C2714 C 0.12972 0.82853 0.88836 0.0
H2715 H 0.10423 0.82617 0.77529 0.0
H2716 H 0.11648 0.82117 0.80707 0.0
H2717 H 0.10013 0.81631 0.81372 0.0
H2718 H 0.10036 0.81433 0.88335 0.0
H2719 H 0.1121 0.79694 0.91273 0.0
loop_
_geom_bond_atom_site_label_1
_geom_bond_atom_site_label_2
_geom_bond_distance
_geom_bond_site_symmetry_2
_ccdc_geom_bond_type
In0 O1 2.294 . S
In0 O2 2.326 . S
In0 O6 2.266 . S
In0 O7 2.323 1_554 S
In0 O8 2.266 . S
In0 O9 2.326 . S
In0 O11 2.294 . S
In0 O12 2.326 . S
O1 In0 2.294 . S
O1 C10 1.240 . S
O2 In0 2.326 . S
O2 C10 1.252 . S
C3 O6 1.252 1_556 S
C3 O7 1.260 . S
C4 O11 1.240 . S
C4 O12 1.252 . S
C5 O8 1.252 . S
C5 O9 1.260 . S
O6 In0 2.266 . S
O6 C3 1.252 1_554 S
O7 In0 2.323 1_556 S
O7 C3 1.260 . S
O8 In0 2.266 . S
O8 C5 1.252 . S
O9 In0 2.326 . S
O9 C5 1.260 . S
C10 O1 1.240 . S
C10 O2 1.252 . S
O11 In0 2.294 . S
O11 C4 1.240 . S
O12 In0 2.326 . S
O12 C4 1.252 . S
In13 O14 2.294 . S
In13 O15 2.326 . S
In13 O19 2.266 . S
In13 O20 2.326 . S
In13 O21 2.266 . S
In13 O22 2.326 . S
In13 O24 2.294 . S
In13 O25 2.326 . S
O14 In13 2.294 . S
O14 C23 1.240 . S
O15 In13 2.326 . S
O15 C23 1.252 . S
C16 O19 1.252 . S
C16 O20 1.260 . S
C17 O24 1.240 . S
C17 O25 1.252 . S
C18 O21 1.252 . S
C18 O22 1.260 . S
O19 In13 2.266 . S
O19 C16 1.252 . S
O20 In13 2.326 . S
O20 C16 1.260 . S
O21 In13 2.266 . S
O21 C18 1.252 . S
O22 In13 2.326 . S
O22 C18 1.260 . S
C23 O14 1.240 . S
C23 O15 1.252 . S
O24 In13 2.294 . S
O24 C17 1.240 . S
O25 In13 2.326 . S
O25 C17 1.252 . S
In26 O27 2.294 . S
In26 O28 2.326 . S
In26 O32 2.266 . S
In26 O33 2.326 . S
In26 O34 2.266 . S
In26 O35 2.326 . S
In26 O37 2.294 . S
In26 O38 2.326 . S
O27 In26 2.294 . S
O27 C36 1.240 . S
O28 In26 2.326 . S
O28 C36 1.252 . S
C29 O32 1.252 . S
C29 O33 1.260 . S
C30 O37 1.240 . S
C30 O38 1.252 . S
C31 O34 1.252 . S
C31 O35 1.260 . S
O32 In26 2.266 . S
O32 C29 1.252 . S
O33 In26 2.326 . S
O33 C29 1.260 . S
O34 In26 2.266 . S
O34 C31 1.252 . S
O35 In26 2.326 . S
O35 C31 1.260 . S
C36 O27 1.240 . S
C36 O28 1.252 . S
O37 In26 2.294 . S
O37 C30 1.240 . S
O38 In26 2.326 . S
O38 C30 1.252 . S
In39 O40 2.294 . S
In39 O41 2.326 . S
In39 O45 2.266 . S
In39 O46 2.326 . S
In39 O47 2.266 . S
In39 O48 2.326 . S
In39 O50 2.294 . S
In39 O51 2.326 . S
O40 In39 2.294 . S
O40 C49 1.240 . S
O41 In39 2.326 . S
O41 C49 1.252 . S
C42 O45 1.252 . S
C42 O46 1.260 . S
C43 O50 1.240 . S
C43 O51 1.252 . S
C44 O47 1.252 . S
C44 O48 1.260 . S
O45 In39 2.266 . S
O45 C42 1.252 . S
O46 In39 2.326 . S
O46 C42 1.260 . S
O47 In39 2.266 . S
O47 C44 1.252 . S
O48 In39 2.326 . S
O48 C44 1.260 . S
C49 O40 1.240 . S
C49 O41 1.252 . S
O50 In39 2.294 . S
O50 C43 1.240 . S
O51 In39 2.326 . S
O51 C43 1.252 . S
In52 O53 2.294 . S
In52 O54 2.326 . S
In52 O58 2.266 . S
In52 O59 2.326 . S
In52 O60 2.266 . S
In52 O61 2.326 . S
In52 O63 2.294 . S
In52 O64 2.326 . S
O53 In52 2.294 . S
O53 C62 1.240 . S
O54 In52 2.326 . S
O54 C62 1.252 . S
C55 O58 1.252 . S
C55 O59 1.260 . S
C56 O63 1.240 . S
C56 O64 1.252 . S
C57 O60 1.252 . S
C57 O61 1.260 . S
O58 In52 2.266 . S
O58 C55 1.252 . S
O59 In52 2.326 . S
O59 C55 1.260 . S
O60 In52 2.266 . S
O60 C57 1.252 . S
O61 In52 2.326 . S
O61 C57 1.260 . S
C62 O53 1.240 . S
C62 O54 1.252 . S
O63 In52 2.294 . S
O63 C56 1.240 . S
O64 In52 2.326 . S
O64 C56 1.252 . S
In65 O66 2.294 . S
In65 O67 2.326 . S
In65 O71 2.266 . S
In65 O72 2.326 . S
In65 O73 2.266 . S
In65 O74 2.326 . S
In65 O76 2.294 . S
In65 O77 2.326 . S
O66 In65 2.294 . S
O66 C75 1.240 . S
O67 In65 2.326 . S
O67 C75 1.252 . S
C68 O71 1.252 . S
C68 O72 1.260 . S
C69 O76 1.240 . S
C69 O77 1.252 . S
C70 O73 1.252 . S
C70 O74 1.260 . S
O71 In65 2.266 . S
O71 C68 1.252 . S
O72 In65 2.326 . S
O72 C68 1.260 . S
O73 In65 2.266 . S
O73 C70 1.252 . S
O74 In65 2.326 . S
O74 C70 1.260 . S
C75 O66 1.240 . S
C75 O67 1.252 . S
O76 In65 2.294 . S
O76 C69 1.240 . S
O77 In65 2.326 . S
O77 C69 1.252 . S
In78 O79 2.294 . S
In78 O80 2.326 . S
In78 O84 2.266 . S
In78 O85 2.326 . S
In78 O86 2.266 . S
In78 O87 2.323 1_556 S
In78 O89 2.294 . S
In78 O90 2.326 . S
O79 In78 2.294 . S
O79 C88 1.240 . S
O80 In78 2.326 . S
O80 C88 1.252 . S
C81 O84 1.252 . S
C81 O85 1.260 . S
C82 O89 1.240 . S
C82 O90 1.252 . S
C83 O86 1.252 1_554 S
C83 O87 1.260 . S
O84 In78 2.266 . S
O84 C81 1.252 . S
O85 In78 2.326 . S
O85 C81 1.260 . S
O86 In78 2.266 . S
O86 C83 1.252 1_556 S
O87 In78 2.323 1_554 S
O87 C83 1.260 . S
C88 O79 1.240 . S
C88 O80 1.252 . S
O89 In78 2.294 . S
O89 C82 1.240 . S
O90 In78 2.326 . S
O90 C82 1.252 . S
In91 O92 2.294 . S
In91 O93 2.326 . S
In91 O97 2.266 . S
In91 O98 2.326 . S
In91 O99 2.266 . S
In91 O100 2.326 . S
In91 O102 2.294 . S
In91 O103 2.326 . S
O92 In91 2.294 . S
O92 C101 1.240 . S
O93 In91 2.326 . S
O93 C101 1.252 . S
C94 O97 1.252 . S
C94 O98 1.260 . S
C95 O102 1.240 . S
C95 O103 1.252 . S
C96 O99 1.252 . S
C96 O100 1.260 . S
O97 In91 2.266 . S
O97 C94 1.252 . S
O98 In91 2.326 . S
O98 C94 1.260 . S
O99 In91 2.266 . S
O99 C96 1.252 . S
O100 In91 2.326 . S
O100 C96 1.260 . S
C101 O92 1.240 . S
C101 O93 1.252 . S
O102 In91 2.294 . S
O102 C95 1.240 . S
O103 In91 2.326 . S
O103 C95 1.252 . S
In104 O105 2.294 . S
In104 O106 2.326 . S
In104 O110 2.266 . S
In104 O111 2.326 . S
In104 O112 2.266 . S
In104 O113 2.323 1_556 S
In104 O115 2.294 . S
In104 O116 2.326 . S
O105 In104 2.294 . S
O105 C114 1.240 . S
O106 In104 2.326 . S
O106 C114 1.252 . S
C107 O110 1.252 . S
C107 O111 1.260 . S
C108 O115 1.240 . S
C108 O116 1.252 . S
C109 O112 1.252 1_554 S
C109 O113 1.260 . S
O110 In104 2.266 . S
O110 C107 1.252 . S
O111 In104 2.326 . S
O111 C107 1.260 . S
O112 In104 2.266 . S
O112 C109 1.252 1_556 S
O113 In104 2.323 1_554 S
O113 C109 1.260 . S
C114 O105 1.240 . S
C114 O106 1.252 . S
O115 In104 2.294 . S
O115 C108 1.240 . S
O116 In104 2.326 . S
O116 C108 1.252 . S
In117 O118 2.294 . S
In117 O119 2.326 . S
In117 O123 2.266 . S
In117 O124 2.326 . S
In117 O125 2.266 . S
In117 O126 2.326 . S
In117 O128 2.294 . S
In117 O129 2.326 . S
O118 In117 2.294 . S
O118 C127 1.240 . S
O119 In117 2.326 . S
O119 C127 1.252 . S
C120 O123 1.252 . S
C120 O124 1.260 . S
C121 O128 1.240 . S
C121 O129 1.252 . S
C122 O125 1.252 . S
C122 O126 1.260 . S
O123 In117 2.266 . S
O123 C120 1.252 . S
O124 In117 2.326 . S
O124 C120 1.260 . S
O125 In117 2.266 . S
O125 C122 1.252 . S
O126 In117 2.326 . S
O126 C122 1.260 . S
C127 O118 1.240 . S
C127 O119 1.252 . S
O128 In117 2.294 . S
O128 C121 1.240 . S
O129 In117 2.326 . S
O129 C121 1.252 . S
In130 O131 2.294 . S
In130 O132 2.326 . S
In130 O136 2.266 . S
In130 O137 2.326 . S
In130 O138 2.266 . S
In130 O139 2.326 . S
In130 O141 2.294 . S
In130 O142 2.326 . S
O131 In130 2.294 . S
O131 C140 1.240 . S
O132 In130 2.326 . S
O132 C140 1.252 . S
C133 O136 1.252 . S
C133 O137 1.260 . S
C134 O141 1.240 . S
C134 O142 1.252 . S
C135 O138 1.252 . S
C135 O139 1.260 . S
O136 In130 2.266 . S
O136 C133 1.252 . S
O137 In130 2.326 . S
O137 C133 1.260 . S
O138 In130 2.266 . S
O138 C135 1.252 . S
O139 In130 2.326 . S
O139 C135 1.260 . S
C140 O131 1.240 . S
C140 O132 1.252 . S
O141 In130 2.294 . S
O141 C134 1.240 . S
O142 In130 2.326 . S
O142 C134 1.252 . S
In143 O144 2.294 . S
In143 O145 2.326 . S
In143 O149 2.266 . S
In143 O150 2.326 . S
In143 O151 2.266 . S
In143 O152 2.326 . S
In143 O154 2.294 . S
In143 O155 2.326 . S
O144 In143 2.294 . S
O144 C153 1.240 . S
O145 In143 2.326 . S
O145 C153 1.252 . S
C146 O149 1.252 . S
C146 O150 1.260 . S
C147 O154 1.240 . S
C147 O155 1.252 . S
C148 O151 1.252 . S
C148 O152 1.260 . S
O149 In143 2.266 . S
O149 C146 1.252 . S
O150 In143 2.326 . S
O150 C146 1.260 . S
O151 In143 2.266 . S
O151 C148 1.252 . S
O152 In143 2.326 . S
O152 C148 1.260 . S
C153 O144 1.240 . S
C153 O145 1.252 . S
O154 In143 2.294 . S
O154 C147 1.240 . S
O155 In143 2.326 . S
O155 C147 1.252 . S
In156 O157 2.294 . S
In156 O158 2.326 . S
In156 O162 2.266 . S
In156 O163 2.326 . S
In156 O164 2.266 . S
In156 O165 2.326 . S
In156 O167 2.294 . S
In156 O168 2.326 . S
O157 In156 2.294 . S
O157 C166 1.240 . S
O158 In156 2.326 . S
O158 C166 1.252 . S
C159 O162 1.252 . S
C159 O163 1.260 . S
C160 O167 1.240 . S
C160 O168 1.252 . S
C161 O164 1.252 . S
C161 O165 1.260 . S
O162 In156 2.266 . S
O162 C159 1.252 . S
O163 In156 2.326 . S
O163 C159 1.260 . S
O164 In156 2.266 . S
O164 C161 1.252 . S
O165 In156 2.326 . S
O165 C161 1.260 . S
C166 O157 1.240 . S
C166 O158 1.252 . S
O167 In156 2.294 . S
O167 C160 1.240 . S
O168 In156 2.326 . S
O168 C160 1.252 . S
In169 O170 2.294 . S
In169 O171 2.326 . S
In169 O175 2.266 . S
In169 O176 2.326 . S
In169 O177 2.266 . S
In169 O178 2.326 . S
In169 O180 2.294 . S
In169 O181 2.326 . S
O170 In169 2.294 . S
O170 C179 1.240 . S
O171 In169 2.326 . S
O171 C179 1.252 . S
C172 O175 1.252 . S
C172 O176 1.260 . S
C173 O180 1.240 . S
C173 O181 1.252 . S
C174 O177 1.252 . S
C174 O178 1.260 . S
O175 In169 2.266 . S
O175 C172 1.252 . S
O176 In169 2.326 . S
O176 C172 1.260 . S
O177 In169 2.266 . S
O177 C174 1.252 . S
O178 In169 2.326 . S
O178 C174 1.260 . S
C179 O170 1.240 . S
C179 O171 1.252 . S
O180 In169 2.294 . S
O180 C173 1.240 . S
O181 In169 2.326 . S
O181 C173 1.252 . S
In182 O183 2.294 . S
In182 O184 2.326 . S
In182 O188 2.266 . S
In182 O189 2.323 1_554 S
In182 O190 2.266 . S
In182 O191 2.326 . S
In182 O193 2.294 . S
In182 O194 2.326 . S
O183 In182 2.294 . S
O183 C192 1.240 . S
O184 In182 2.326 . S
O184 C192 1.252 . S
C185 O188 1.252 1_556 S
C185 O189 1.260 . S
C186 O193 1.240 . S
C186 O194 1.252 . S
C187 O190 1.252 . S
C187 O191 1.260 . S
O188 In182 2.266 . S
O188 C185 1.252 1_554 S
O189 In182 2.323 1_556 S
O189 C185 1.260 . S
O190 In182 2.266 . S
O190 C187 1.252 . S
O191 In182 2.326 . S
O191 C187 1.260 . S
C192 O183 1.240 . S
C192 O184 1.252 . S
O193 In182 2.294 . S
O193 C186 1.240 . S
O194 In182 2.326 . S
O194 C186 1.252 . S
In195 O196 2.294 . S
In195 O197 2.326 . S
In195 O201 2.266 . S
In195 O202 2.326 . S
In195 O203 2.266 . S
In195 O204 2.326 . S
In195 O206 2.294 . S
In195 O207 2.326 . S
O196 In195 2.294 . S
O196 C205 1.240 . S
O197 In195 2.326 . S
O197 C205 1.252 . S
C198 O201 1.252 . S
C198 O202 1.260 . S
C199 O206 1.240 . S
C199 O207 1.252 . S
C200 O203 1.252 . S
C200 O204 1.260 . S
O201 In195 2.266 . S
O201 C198 1.252 . S
O202 In195 2.326 . S
O202 C198 1.260 . S
O203 In195 2.266 . S
O203 C200 1.252 . S
O204 In195 2.326 . S
O204 C200 1.260 . S
C205 O196 1.240 . S
C205 O197 1.252 . S
O206 In195 2.294 . S
O206 C199 1.240 . S
O207 In195 2.326 . S
O207 C199 1.252 . S
In208 O209 2.294 . S
In208 O210 2.326 . S
In208 O214 2.266 . S
In208 O215 2.326 . S
In208 O216 2.266 . S
In208 O217 2.326 . S
In208 O219 2.294 . S
In208 O220 2.326 . S
O209 In208 2.294 . S
O209 C218 1.240 . S
O210 In208 2.326 . S
O210 C218 1.252 . S
C211 O214 1.252 . S
C211 O215 1.260 . S
C212 O219 1.240 . S
C212 O220 1.252 . S
C213 O216 1.252 . S
C213 O217 1.260 . S
O214 In208 2.266 . S
O214 C211 1.252 . S
O215 In208 2.326 . S
O215 C211 1.260 . S
O216 In208 2.266 . S
O216 C213 1.252 . S
O217 In208 2.326 . S
O217 C213 1.260 . S
C218 O209 1.240 . S
C218 O210 1.252 . S
O219 In208 2.294 . S
O219 C212 1.240 . S
O220 In208 2.326 . S
O220 C212 1.252 . S
In221 O222 2.294 . S
In221 O223 2.326 . S
In221 O227 2.266 . S
In221 O228 2.326 . S
In221 O229 2.266 . S
In221 O230 2.326 . S
In221 O232 2.294 . S
In221 O233 2.326 . S
O222 In221 2.294 . S
O222 C231 1.240 . S
O223 In221 2.326 . S
O223 C231 1.252 . S
C224 O227 1.252 . S
C224 O228 1.260 . S
C225 O232 1.240 . S
C225 O233 1.252 . S
C226 O229 1.252 . S
C226 O230 1.260 . S
O227 In221 2.266 . S
O227 C224 1.252 . S
O228 In221 2.326 . S
O228 C224 1.260 . S
O229 In221 2.266 . S
O229 C226 1.252 . S
O230 In221 2.326 . S
O230 C226 1.260 . S
C231 O222 1.240 . S
C231 O223 1.252 . S
O232 In221 2.294 . S
O232 C225 1.240 . S
O233 In221 2.326 . S
O233 C225 1.252 . S
In234 O235 2.294 . S
In234 O236 2.326 . S
In234 O240 2.266 . S
In234 O241 2.323 1_554 S
In234 O242 2.266 . S
In234 O243 2.326 . S
In234 O245 2.294 . S
In234 O246 2.326 . S
O235 In234 2.294 . S
O235 C244 1.240 . S
O236 In234 2.326 . S
O236 C244 1.252 . S
C237 O240 1.252 1_556 S
C237 O241 1.260 . S
C238 O245 1.240 . S
C238 O246 1.252 . S
C239 O242 1.252 . S
C239 O243 1.260 . S
O240 In234 2.266 . S
O240 C237 1.252 1_554 S
O241 In234 2.323 1_556 S
O241 C237 1.260 . S
O242 In234 2.266 . S
O242 C239 1.252 . S
O243 In234 2.326 . S
O243 C239 1.260 . S
C244 O235 1.240 . S
C244 O236 1.252 . S
O245 In234 2.294 . S
O245 C238 1.240 . S
O246 In234 2.326 . S
O246 C238 1.252 . S
In247 O248 2.294 . S
In247 O249 2.326 . S
In247 O253 2.266 . S
In247 O254 2.326 . S
In247 O255 2.266 . S
In247 O256 2.326 . S
In247 O258 2.294 . S
In247 O259 2.326 . S
O248 In247 2.294 . S
O248 C257 1.240 . S
O249 In247 2.326 . S
O249 C257 1.252 . S
C250 O253 1.252 . S
C250 O254 1.260 . S
C251 O258 1.240 . S
C251 O259 1.252 . S
C252 O255 1.252 . S
C252 O256 1.260 . S
O253 In247 2.266 . S
O253 C250 1.252 . S
O254 In247 2.326 . S
O254 C250 1.260 . S
O255 In247 2.266 . S
O255 C252 1.252 . S
O256 In247 2.326 . S
O256 C252 1.260 . S
C257 O248 1.240 . S
C257 O249 1.252 . S
O258 In247 2.294 . S
O258 C251 1.240 . S
O259 In247 2.326 . S
O259 C251 1.252 . S
In260 O261 2.294 . S
In260 O262 2.326 . S
In260 O266 2.266 . S
In260 O267 2.326 . S
In260 O268 2.266 . S
In260 O269 2.323 1_556 S
In260 O271 2.294 . S
In260 O272 2.326 . S
O261 In260 2.294 . S
O261 C270 1.240 . S
O262 In260 2.326 . S
O262 C270 1.252 . S
C263 O266 1.252 . S
C263 O267 1.260 . S
C264 O271 1.240 . S
C264 O272 1.252 . S
C265 O268 1.252 1_554 S
C265 O269 1.260 . S
O266 In260 2.266 . S
O266 C263 1.252 . S
O267 In260 2.326 . S
O267 C263 1.260 . S
O268 In260 2.266 . S
O268 C265 1.252 1_556 S
O269 In260 2.323 1_554 S
O269 C265 1.260 . S
C270 O261 1.240 . S
C270 O262 1.252 . S
O271 In260 2.294 . S
O271 C264 1.240 . S
O272 In260 2.326 . S
O272 C264 1.252 . S
In273 O274 2.294 . S
In273 O275 2.326 . S
In273 O279 2.266 . S
In273 O280 2.326 . S
In273 O281 2.266 . S
In273 O282 2.326 . S
In273 O284 2.294 . S
In273 O285 2.326 . S
O274 In273 2.294 . S
O274 C283 1.240 . S
O275 In273 2.326 . S
O275 C283 1.252 . S
C276 O279 1.252 . S
C276 O280 1.260 . S
C277 O284 1.240 . S
C277 O285 1.252 . S
C278 O281 1.252 . S
C278 O282 1.260 . S
O279 In273 2.266 . S
O279 C276 1.252 . S
O280 In273 2.326 . S
O280 C276 1.260 . S
O281 In273 2.266 . S
O281 C278 1.252 . S
O282 In273 2.326 . S
O282 C278 1.260 . S
C283 O274 1.240 . S
C283 O275 1.252 . S
O284 In273 2.294 . S
O284 C277 1.240 . S
O285 In273 2.326 . S
O285 C277 1.252 . S
In286 O287 2.294 . S
In286 O288 2.326 . S
In286 O292 2.266 . S
In286 O293 2.326 . S
In286 O294 2.266 . S
In286 O295 2.326 . S
In286 O297 2.294 . S
In286 O298 2.326 . S
O287 In286 2.294 . S
O287 C296 1.240 . S
O288 In286 2.326 . S
O288 C296 1.252 . S
C289 O292 1.252 . S
C289 O293 1.260 . S
C290 O297 1.240 . S
C290 O298 1.252 . S
C291 O294 1.252 . S
C291 O295 1.260 . S
O292 In286 2.266 . S
O292 C289 1.252 . S
O293 In286 2.326 . S
O293 C289 1.260 . S
O294 In286 2.266 . S
O294 C291 1.252 . S
O295 In286 2.326 . S
O295 C291 1.260 . S
C296 O287 1.240 . S
C296 O288 1.252 . S
O297 In286 2.294 . S
O297 C290 1.240 . S
O298 In286 2.326 . S
O298 C290 1.252 . S
In299 O300 2.294 . S
In299 O301 2.326 . S
In299 O305 2.266 . S
In299 O306 2.326 . S
In299 O307 2.266 . S
In299 O308 2.326 . S
In299 O310 2.294 . S
In299 O311 2.326 . S
O300 In299 2.294 . S
O300 C309 1.240 . S
O301 In299 2.326 . S
O301 C309 1.252 . S
C302 O305 1.252 . S
C302 O306 1.260 . S
C303 O310 1.240 . S
C303 O311 1.252 . S
C304 O307 1.252 . S
C304 O308 1.260 . S
O305 In299 2.266 . S
O305 C302 1.252 . S
O306 In299 2.326 . S
O306 C302 1.260 . S
O307 In299 2.266 . S
O307 C304 1.252 . S
O308 In299 2.326 . S
O308 C304 1.260 . S
C309 O300 1.240 . S
C309 O301 1.252 . S
O310 In299 2.294 . S
O310 C303 1.240 . S
O311 In299 2.326 . S
O311 C303 1.252 . S
In312 O313 2.294 . S
In312 O314 2.326 . S
In312 O318 2.266 . S
In312 O319 2.326 . S
In312 O320 2.266 . S
In312 O321 2.326 . S
In312 O323 2.294 . S
In312 O324 2.326 . S
O313 In312 2.294 . S
O313 C322 1.240 . S
O314 In312 2.326 . S
O314 C322 1.252 . S
C315 O318 1.252 . S
C315 O319 1.260 . S
C316 O323 1.240 . S
C316 O324 1.252 . S
C317 O320 1.252 . S
C317 O321 1.260 . S
O318 In312 2.266 . S
O318 C315 1.252 . S
O319 In312 2.326 . S
O319 C315 1.260 . S
O320 In312 2.266 . S
O320 C317 1.252 . S
O321 In312 2.326 . S
O321 C317 1.260 . S
C322 O313 1.240 . S
C322 O314 1.252 . S
O323 In312 2.294 . S
O323 C316 1.240 . S
O324 In312 2.326 . S
O324 C316 1.252 . S
In325 O326 2.294 . S
In325 O327 2.326 . S
In325 O331 2.266 . S
In325 O332 2.326 . S
In325 O333 2.266 . S
In325 O334 2.326 . S
In325 O336 2.294 . S
In325 O337 2.326 . S
O326 In325 2.294 . S
O326 C335 1.240 . S
O327 In325 2.326 . S
O327 C335 1.252 . S
C328 O331 1.252 . S
C328 O332 1.260 . S
C329 O336 1.240 . S
C329 O337 1.252 . S
C330 O333 1.252 . S
C330 O334 1.260 . S
O331 In325 2.266 . S
O331 C328 1.252 . S
O332 In325 2.326 . S
O332 C328 1.260 . S
O333 In325 2.266 . S
O333 C330 1.252 . S
O334 In325 2.326 . S
O334 C330 1.260 . S
C335 O326 1.240 . S
C335 O327 1.252 . S
O336 In325 2.294 . S
O336 C329 1.240 . S
O337 In325 2.326 . S
O337 C329 1.252 . S
In338 O339 2.294 . S
In338 O340 2.326 . S
In338 O344 2.266 . S
In338 O345 2.323 1_556 S
In338 O346 2.266 . S
In338 O347 2.326 . S
In338 O349 2.294 . S
In338 O350 2.326 . S
O339 In338 2.294 . S
O339 C348 1.240 . S
O340 In338 2.326 . S
O340 C348 1.252 . S
C341 O344 1.252 1_554 S
C341 O345 1.260 . S
C342 O349 1.240 . S
C342 O350 1.252 . S
C343 O346 1.252 . S
C343 O347 1.260 . S
O344 In338 2.266 . S
O344 C341 1.252 1_556 S
O345 In338 2.323 1_554 S
O345 C341 1.260 . S
O346 In338 2.266 . S
O346 C343 1.252 . S
O347 In338 2.326 . S
O347 C343 1.260 . S
C348 O339 1.240 . S
C348 O340 1.252 . S
O349 In338 2.294 . S
O349 C342 1.240 . S
O350 In338 2.326 . S
O350 C342 1.252 . S
In351 O352 2.294 . S
In351 O353 2.326 . S
In351 O357 2.266 . S
In351 O358 2.326 . S
In351 O359 2.266 . S
In351 O360 2.326 . S
In351 O362 2.294 . S
In351 O363 2.326 . S
O352 In351 2.294 . S
O352 C361 1.240 . S
O353 In351 2.326 . S
O353 C361 1.252 . S
C354 O357 1.252 . S
C354 O358 1.260 . S
C355 O362 1.240 . S
C355 O363 1.252 . S
C356 O359 1.252 . S
C356 O360 1.260 . S
O357 In351 2.266 . S
O357 C354 1.252 . S
O358 In351 2.326 . S
O358 C354 1.260 . S
O359 In351 2.266 . S
O359 C356 1.252 . S
O360 In351 2.326 . S
O360 C356 1.260 . S
C361 O352 1.240 . S
C361 O353 1.252 . S
O362 In351 2.294 . S
O362 C355 1.240 . S
O363 In351 2.326 . S
O363 C355 1.252 . S
In364 O365 2.294 . S
In364 O366 2.326 . S
In364 O370 2.266 . S
In364 O371 2.326 . S
In364 O372 2.266 . S
In364 O373 2.323 1_554 S
In364 O375 2.294 . S
In364 O376 2.326 . S
O365 In364 2.294 . S
O365 C374 1.240 . S
O366 In364 2.326 . S
O366 C374 1.252 . S
C367 O370 1.252 . S
C367 O371 1.260 . S
C368 O375 1.240 . S
C368 O376 1.252 . S
C369 O372 1.252 1_556 S
C369 O373 1.260 . S
O370 In364 2.266 . S
O370 C367 1.252 . S
O371 In364 2.326 . S
O371 C367 1.260 . S
O372 In364 2.266 . S
O372 C369 1.252 1_554 S
O373 In364 2.323 1_556 S
O373 C369 1.260 . S
C374 O365 1.240 . S
C374 O366 1.252 . S
O375 In364 2.294 . S
O375 C368 1.240 . S
O376 In364 2.326 . S
O376 C368 1.252 . S
In377 O378 2.294 . S
In377 O379 2.326 . S
In377 O383 2.266 . S
In377 O384 2.326 . S
In377 O385 2.266 . S
In377 O386 2.326 . S
In377 O388 2.294 . S
In377 O389 2.326 . S
O378 In377 2.294 . S
O378 C387 1.240 . S
O379 In377 2.326 . S
O379 C387 1.252 . S
C380 O383 1.252 . S
C380 O384 1.260 . S
C381 O388 1.240 . S
C381 O389 1.252 . S
C382 O385 1.252 . S
C382 O386 1.260 . S
O383 In377 2.266 . S
O383 C380 1.252 . S
O384 In377 2.326 . S
O384 C380 1.260 . S
O385 In377 2.266 . S
O385 C382 1.252 . S
O386 In377 2.326 . S
O386 C382 1.260 . S
C387 O378 1.240 . S
C387 O379 1.252 . S
O388 In377 2.294 . S
O388 C381 1.240 . S
O389 In377 2.326 . S
O389 C381 1.252 . S
In390 O391 2.294 . S
In390 O392 2.326 . S
In390 O396 2.266 . S
In390 O397 2.326 . S
In390 O398 2.266 . S
In390 O399 2.326 . S
In390 O401 2.294 . S
In390 O402 2.326 . S
O391 In390 2.294 . S
O391 C400 1.240 . S
O392 In390 2.326 . S
O392 C400 1.252 . S
C393 O396 1.252 . S
C393 O397 1.260 . S
C394 O401 1.240 . S
C394 O402 1.252 . S
C395 O398 1.252 . S
C395 O399 1.260 . S
O396 In390 2.266 . S
O396 C393 1.252 . S
O397 In390 2.326 . S
O397 C393 1.260 . S
O398 In390 2.266 . S
O398 C395 1.252 . S
O399 In390 2.326 . S
O399 C395 1.260 . S
C400 O391 1.240 . S
C400 O392 1.252 . S
O401 In390 2.294 . S
O401 C394 1.240 . S
O402 In390 2.326 . S
O402 C394 1.252 . S
In403 O404 2.294 . S
In403 O405 2.326 . S
In403 O409 2.266 . S
In403 O410 2.326 . S
In403 O411 2.266 . S
In403 O412 2.326 . S
In403 O414 2.294 . S
In403 O415 2.326 . S
O404 In403 2.294 . S
O404 C413 1.240 . S
O405 In403 2.326 . S
O405 C413 1.252 . S
C406 O409 1.252 . S
C406 O410 1.260 . S
C407 O414 1.240 . S
C407 O415 1.252 . S
C408 O411 1.252 . S
C408 O412 1.260 . S
O409 In403 2.266 . S
O409 C406 1.252 . S
O410 In403 2.326 . S
O410 C406 1.260 . S
O411 In403 2.266 . S
O411 C408 1.252 . S
O412 In403 2.326 . S
O412 C408 1.260 . S
C413 O404 1.240 . S
C413 O405 1.252 . S
O414 In403 2.294 . S
O414 C407 1.240 . S
O415 In403 2.326 . S
O415 C407 1.252 . S
H416 C424 0.929 . S
H417 C426 0.930 . S
H418 C428 0.930 . S
H419 C431 0.929 . S
H420 C434 0.930 . S
H421 C436 0.960 . S
H422 C436 0.960 . S
H423 C436 0.960 . S
C424 H416 0.929 . S
C424 C425 1.377 . S
C424 C426 1.384 . S
C425 C424 1.377 . S
C425 C431 1.390 . S
C426 H417 0.930 . S
C426 C424 1.384 . S
C426 C427 1.372 . S
C427 C426 1.372 . S
C427 C428 1.400 . S
C427 C432 1.490 . S
C428 H418 0.930 . S
C428 C427 1.400 . S
C428 C431 1.386 . S
H429 C445 0.930 . S
H430 C446 0.931 . S
C431 H419 0.929 . S
C431 C425 1.390 . S
C431 C428 1.386 . S
C432 C427 1.490 . S
C432 C434 1.395 1_556 S
C432 C435 1.403 . S
H433 C439 0.930 . S
C434 H420 0.930 . S
C434 C432 1.395 1_554 S
C434 C437 1.403 . S
C435 C432 1.403 . S
C435 C436 1.524 . S
C435 C439 1.400 . S
C436 H421 0.960 . S
C436 H422 0.960 . S
C436 H423 0.960 . S
C436 C435 1.524 . S
C437 C434 1.403 . S
C437 C438 1.392 . S
C437 C441 1.495 . S
C438 C437 1.392 . S
C438 C439 1.385 1_554 S
C438 C440 1.478 . S
C439 H433 0.930 . S
C439 C435 1.400 . S
C439 C438 1.385 1_556 S
C440 C438 1.478 . S
C440 C442 1.381 . S
C440 C446 1.383 . S
C441 C437 1.495 . S
C441 H447 0.959 . S
C441 H448 0.961 . S
C441 H449 0.960 . S
C442 C440 1.381 . S
C442 C443 1.394 . S
C442 H450 0.930 . S
C443 C442 1.394 . S
C443 C444 1.383 . S
C443 H451 0.929 . S
C444 C443 1.383 . S
C444 C445 1.377 . S
C445 H429 0.930 . S
C445 C444 1.377 . S
C445 C446 1.379 . S
C446 H430 0.931 . S
C446 C440 1.383 . S
C446 C445 1.379 . S
H447 C441 0.959 . S
H448 C441 0.961 . S
H449 C441 0.960 . S
H450 C442 0.930 . S
H451 C443 0.929 . S
H452 C460 0.929 . S
H453 C462 0.930 . S
H454 C464 0.930 . S
H455 C467 0.929 . S
H456 C470 0.930 . S
H457 C472 0.960 . S
H458 C472 0.960 . S
H459 C472 0.960 . S
C460 H452 0.929 . S
C460 C461 1.377 . S
C460 C462 1.384 . S
C461 C460 1.377 . S
C461 C467 1.390 . S
C462 H453 0.930 . S
C462 C460 1.384 . S
C462 C463 1.372 . S
C463 C462 1.372 . S
C463 C464 1.400 . S
C463 C468 1.490 . S
C464 H454 0.930 . S
C464 C463 1.400 . S
C464 C467 1.386 . S
H465 C481 0.930 . S
H466 C482 0.931 . S
C467 H455 0.929 . S
C467 C461 1.390 . S
C467 C464 1.386 . S
C468 C463 1.490 . S
C468 C470 1.395 . S
C468 C471 1.403 . S
H469 C475 0.930 . S
C470 H456 0.930 . S
C470 C468 1.395 . S
C470 C473 1.403 1_565 S
C471 C468 1.403 . S
C471 C472 1.524 . S
C471 C475 1.400 1_565 S
C472 H457 0.960 . S
C472 H458 0.960 . S
C472 H459 0.960 . S
C472 C471 1.524 . S
C473 C470 1.403 1_545 S
C473 C474 1.392 . S
C473 C477 1.495 . S
C474 C473 1.392 . S
C474 C475 1.385 . S
C474 C476 1.478 . S
C475 H469 0.930 . S
C475 C471 1.400 1_545 S
C475 C474 1.385 . S
C476 C474 1.478 . S
C476 C478 1.381 . S
C476 C482 1.383 . S
C477 C473 1.495 . S
C477 H483 0.959 1_655 S
C477 H484 0.961 . S
C477 H485 1.001 . S
C478 C476 1.381 . S
C478 C479 1.394 . S
C478 H486 0.930 . S
C479 C478 1.394 . S
C479 C480 1.383 . S
C479 H487 0.929 . S
C480 C479 1.383 . S
C480 C481 1.377 . S
C481 H465 0.930 . S
C481 C480 1.377 . S
C481 C482 1.379 . S
C482 H466 0.931 . S
C482 C476 1.383 . S
C482 C481 1.379 . S
H483 C477 0.959 1_455 S
H484 C477 0.961 . S
H485 C477 1.001 . S
H486 C478 0.930 . S
H487 C479 0.929 . S
H488 C496 0.929 . S
H489 C498 0.930 . S
H490 C500 0.930 . S
H491 C503 0.929 . S
H492 C506 0.930 . S
H493 C508 0.960 . S
H494 C508 0.960 . S
H495 C508 0.960 . S
C496 H488 0.929 . S
C496 C497 1.377 . S
C496 C498 1.384 . S
C497 C496 1.377 . S
C497 C503 1.390 . S
C498 H489 0.930 . S
C498 C496 1.384 . S
C498 C499 1.372 . S
C499 C498 1.372 . S
C499 C500 1.400 . S
C499 C504 1.490 . S
C500 H490 0.930 . S
C500 C499 1.400 . S
C500 C503 1.386 . S
H501 C517 0.930 . S
H502 C518 0.931 . S
C503 H491 0.929 . S
C503 C497 1.390 . S
C503 C500 1.386 . S
C504 C499 1.490 . S
C504 C506 1.395 . S
C504 C507 1.403 . S
H505 C511 0.930 . S
C506 H492 0.930 . S
C506 C504 1.395 . S
C506 C509 1.403 . S
C507 C504 1.403 . S
C507 C508 1.524 . S
C507 C511 1.400 . S
C508 H493 0.960 . S
C508 H494 0.960 . S
C508 H495 0.960 . S
C508 C507 1.524 . S
C509 C506 1.403 . S
C509 C510 1.392 . S
C509 C513 1.495 . S
C510 C509 1.392 . S
C510 C511 1.385 . S
C510 C512 1.478 . S
C511 H505 0.930 . S
C511 C507 1.400 . S
C511 C510 1.385 . S
C512 C510 1.478 . S
C512 C514 1.381 . S
C512 C518 1.383 . S
C513 C509 1.495 . S
C513 H519 0.959 . S
C513 H520 0.961 . S
C513 H521 0.960 . S
C514 C512 1.381 . S
C514 C515 1.394 . S
C514 H522 0.930 . S
C515 C514 1.394 . S
C515 C516 1.383 . S
C515 H523 0.929 . S
C516 C515 1.383 . S
C516 C517 1.377 . S
C517 H501 0.930 . S
C517 C516 1.377 . S
C517 C518 1.379 . S
C518 H502 0.931 . S
C518 C512 1.383 . S
C518 C517 1.379 . S
H519 C513 0.959 . S
H520 C513 0.961 . S
H521 C513 0.960 . S
H522 C514 0.930 . S
H523 C515 0.929 . S
H524 C532 0.929 . S
H525 C534 0.930 . S
H526 C536 0.930 . S
H527 C539 0.929 . S
H528 C542 0.930 . S
H529 C544 0.960 1_565 S
H530 C544 0.960 . S
H531 C544 0.960 . S
C532 H524 0.929 . S
C532 C533 1.377 . S
C532 C534 1.384 . S
C533 C532 1.377 . S
C533 C539 1.390 . S
C534 H525 0.930 . S
C534 C532 1.384 . S
C534 C535 1.372 . S
C535 C534 1.372 . S
C535 C536 1.400 . S
C535 C540 1.490 . S
C536 H526 0.930 . S
C536 C535 1.400 . S
C536 C539 1.386 . S
H537 C553 0.930 . S
H538 C554 0.931 . S
C539 H527 0.929 . S
C539 C533 1.390 . S
C539 C536 1.386 . S
C540 C535 1.490 . S
C540 C542 1.395 . S
C540 C543 1.403 . S
H541 C547 0.930 . S
C542 H528 0.930 . S
C542 C540 1.395 . S
C542 C545 1.403 1_545 S
C543 C540 1.403 . S
C543 C544 1.524 . S
C543 C547 1.400 1_545 S
C544 H529 0.960 1_545 S
C544 H530 0.960 . S
C544 H531 0.960 . S
C544 C543 1.524 . S
C545 C542 1.403 1_565 S
C545 C546 1.392 . S
C545 C549 1.495 . S
C546 C545 1.392 . S
C546 C547 1.385 . S
C546 C548 1.478 . S
C547 H541 0.930 . S
C547 C543 1.400 1_565 S
C547 C546 1.385 . S
C548 C546 1.478 . S
C548 C550 1.381 . S
C548 C554 1.383 . S
C549 C545 1.495 . S
C549 H555 0.959 1_565 S
C549 H556 0.961 . S
C549 H557 0.960 . S
C550 C548 1.381 . S
C550 C551 1.394 . S
C550 H558 0.930 . S
C551 C550 1.394 . S
C551 C552 1.383 . S
C551 H559 0.929 . S
C552 C551 1.383 . S
C552 C553 1.377 . S
C553 H537 0.930 . S
C553 C552 1.377 . S
C553 C554 1.379 . S
C554 H538 0.931 . S
C554 C548 1.383 . S
C554 C553 1.379 . S
H555 C549 0.959 1_545 S
H556 C549 0.961 . S
H557 C549 0.960 . S
H558 C550 0.930 . S
H559 C551 0.929 . S
H560 C568 0.929 . S
H561 C570 0.930 . S
H562 C572 0.930 1_556 S
H563 C575 0.929 . S
H564 C578 0.930 . S
H565 C580 0.960 . S
H566 C580 0.960 . S
H567 C580 0.960 . S
C568 H560 0.929 . S
C568 C569 1.377 . S
C568 C570 1.384 . S
C569 C568 1.377 . S
C569 C575 1.390 . S
C570 H561 0.930 . S
C570 C568 1.384 . S
C570 C571 1.372 . S
C571 C570 1.372 . S
C571 C572 1.400 . S
C571 C576 1.490 . S
C572 H562 0.930 1_554 S
C572 C571 1.400 . S
C572 C575 1.386 . S
H573 C589 0.930 . S
H574 C590 0.931 . S
C575 H563 0.929 . S
C575 C569 1.390 . S
C575 C572 1.386 . S
C576 C571 1.490 . S
C576 C578 1.395 1_554 S
C576 C579 1.403 . S
H577 C583 0.930 . S
C578 H564 0.930 . S
C578 C576 1.395 1_556 S
C578 C581 1.403 . S
C579 C576 1.403 . S
C579 C580 1.524 . S
C579 C583 1.400 . S
C580 H565 0.960 . S
C580 H566 0.960 . S
C580 H567 0.960 . S
C580 C579 1.524 . S
C581 C578 1.403 . S
C581 C582 1.392 . S
C581 C585 1.495 . S
C582 C581 1.392 . S
C582 C583 1.385 1_556 S
C582 C584 1.478 . S
C583 H577 0.930 . S
C583 C579 1.400 . S
C583 C582 1.385 1_554 S
C584 C582 1.478 . S
C584 C586 1.381 . S
C584 C590 1.383 . S
C585 C581 1.495 . S
C585 H591 0.959 . S
C585 H592 0.961 . S
C585 H593 0.960 . S
C586 C584 1.381 . S
C586 C587 1.394 . S
C586 H594 0.930 1_556 S
C587 C586 1.394 . S
C587 C588 1.383 . S
C587 H595 0.929 . S
C588 C587 1.383 . S
C588 C589 1.377 . S
C589 H573 0.930 . S
C589 C588 1.377 . S
C589 C590 1.379 . S
C590 H574 0.931 . S
C590 C584 1.383 . S
C590 C589 1.379 . S
H591 C585 0.959 . S
H592 C585 0.961 . S
H593 C585 0.960 . S
H594 C586 0.930 1_554 S
H595 C587 0.929 . S
H596 C604 0.929 . S
H597 C606 0.930 . S
H598 C608 0.930 . S
H599 C611 0.929 . S
H600 C614 0.930 . S
H601 C616 0.960 1_545 S
H602 C616 0.960 . S
H603 C616 0.960 . S
C604 H596 0.929 . S
C604 C605 1.377 . S
C604 C606 1.384 . S
C605 C604 1.377 . S
C605 C611 1.390 . S
C606 H597 0.930 . S
C606 C604 1.384 . S
C606 C607 1.372 . S
C607 C606 1.372 . S
C607 C608 1.400 . S
C607 C612 1.490 . S
C608 H598 0.930 . S
C608 C607 1.400 . S
C608 C611 1.386 . S
H609 C625 0.930 . S
H610 C626 0.931 . S
C611 H599 0.929 . S
C611 C605 1.390 . S
C611 C608 1.386 . S
C612 C607 1.490 . S
C612 C614 1.395 . S
C612 C615 1.403 . S
H613 C619 0.930 . S
C614 H600 0.930 . S
C614 C612 1.395 . S
C614 C617 1.403 1_565 S
C615 C612 1.403 . S
C615 C616 1.524 . S
C615 C619 1.400 1_565 S
C616 H601 0.960 1_565 S
C616 H602 0.960 . S
C616 H603 0.960 . S
C616 C615 1.524 . S
C617 C614 1.403 1_545 S
C617 C618 1.392 . S
C617 C621 1.495 . S
C618 C617 1.392 . S
C618 C619 1.385 . S
C618 C620 1.478 . S
C619 H613 0.930 . S
C619 C615 1.400 1_545 S
C619 C618 1.385 . S
C620 C618 1.478 . S
C620 C622 1.381 . S
C620 C626 1.383 . S
C621 C617 1.495 . S
C621 H627 0.903 1_545 S
C621 H628 0.961 . S
C621 H629 0.960 . S
C622 C620 1.381 . S
C622 C623 1.394 . S
C622 H630 0.930 . S
C623 C622 1.394 . S
C623 C624 1.383 . S
C623 H631 0.929 . S
C624 C623 1.383 . S
C624 C625 1.377 . S
C625 H609 0.930 . S
C625 C624 1.377 . S
C625 C626 1.379 . S
C626 H610 0.931 . S
C626 C620 1.383 . S
C626 C625 1.379 . S
H627 C621 0.903 1_565 S
H628 C621 0.961 . S
H629 C621 0.960 . S
H630 C622 0.930 . S
H631 C623 0.929 . S
H632 C640 0.929 . S
H633 C642 0.930 . S
H634 C644 0.930 . S
H635 C647 0.929 . S
H636 C650 0.930 . S
H637 C652 0.960 . S
H638 C652 0.960 . S
H639 C652 0.960 . S
C640 H632 0.929 . S
C640 C641 1.377 . S
C640 C642 1.384 . S
C641 C640 1.377 . S
C641 C647 1.390 . S
C642 H633 0.930 . S
C642 C640 1.384 . S
C642 C643 1.372 . S
C643 C642 1.372 . S
C643 C644 1.400 . S
C643 C648 1.490 . S
C644 H634 0.930 . S
C644 C643 1.400 . S
C644 C647 1.386 . S
H645 C661 0.930 . S
H646 C662 0.931 . S
C647 H635 0.929 . S
C647 C641 1.390 . S
C647 C644 1.386 . S
C648 C643 1.490 . S
C648 C650 1.395 . S
C648 C651 1.403 . S
H649 C655 0.930 . S
C650 H636 0.930 . S
C650 C648 1.395 . S
C650 C653 1.403 . S
C651 C648 1.403 . S
C651 C652 1.524 . S
C651 C655 1.400 . S
C652 H637 0.960 . S
C652 H638 0.960 . S
C652 H639 0.960 . S
C652 C651 1.524 . S
C653 C650 1.403 . S
C653 C654 1.392 . S
C653 C657 1.495 . S
C654 C653 1.392 . S
C654 C655 1.385 . S
C654 C656 1.478 . S
C655 H649 0.930 . S
C655 C651 1.400 . S
C655 C654 1.385 . S
C656 C654 1.478 . S
C656 C658 1.381 . S
C656 C662 1.383 . S
C657 C653 1.495 . S
C657 H663 0.959 . S
C657 H664 0.961 . S
C657 H665 0.960 . S
C658 C656 1.381 . S
C658 C659 1.394 . S
C658 H666 0.930 . S
C659 C658 1.394 . S
C659 C660 1.383 . S
C659 H667 0.929 . S
C660 C659 1.383 . S
C660 C661 1.377 . S
C661 H645 0.930 . S
C661 C660 1.377 . S
C661 C662 1.379 . S
C662 H646 0.931 . S
C662 C656 1.383 . S
C662 C661 1.379 . S
H663 C657 0.959 . S
H664 C657 0.961 . S
H665 C657 0.960 . S
H666 C658 0.930 . S
H667 C659 0.929 . S
H668 C676 0.929 . S
H669 C678 0.930 . S
H670 C680 0.930 . S
H671 C683 0.929 . S
H672 C686 0.930 . S
H673 C688 0.960 . S
H674 C688 0.960 . S
H675 C688 0.960 . S
C676 H668 0.929 . S
C676 C677 1.377 . S
C676 C678 1.384 . S
C677 C676 1.377 . S
C677 C683 1.390 . S
C678 H669 0.930 . S
C678 C676 1.384 . S
C678 C679 1.372 . S
C679 C678 1.372 . S
C679 C680 1.400 . S
C679 C684 1.490 . S
C680 H670 0.930 . S
C680 C679 1.400 . S
C680 C683 1.386 . S
H681 C697 0.930 . S
H682 C698 0.931 . S
C683 H671 0.929 . S
C683 C677 1.390 . S
C683 C680 1.386 . S
C684 C679 1.490 . S
C684 C686 1.395 . S
C684 C687 1.403 . S
H685 C691 0.930 . S
C686 H672 0.930 . S
C686 C684 1.395 . S
C686 C689 1.403 1_565 S
C687 C684 1.403 . S
C687 C688 1.524 . S
C687 C691 1.400 1_565 S
C688 H673 0.960 . S
C688 H674 0.960 . S
C688 H675 0.960 . S
C688 C687 1.524 . S
C689 C686 1.403 1_545 S
C689 C690 1.392 . S
C689 C693 1.495 . S
C690 C689 1.392 . S
C690 C691 1.385 . S
C690 C692 1.478 . S
C691 H685 0.930 . S
C691 C687 1.400 1_545 S
C691 C690 1.385 . S
C692 C690 1.478 . S
C692 C694 1.381 . S
C692 C698 1.383 . S
C693 C689 1.495 . S
C693 H699 0.959 . S
C693 H700 0.961 . S
C693 H701 0.960 . S
C694 C692 1.381 . S
C694 C695 1.394 . S
C694 H702 0.930 . S
C695 C694 1.394 . S
C695 C696 1.383 . S
C695 H703 0.929 . S
C696 C695 1.383 . S
C696 C697 1.377 . S
C697 H681 0.930 . S
C697 C696 1.377 . S
C697 C698 1.379 . S
C698 H682 0.931 . S
C698 C692 1.383 . S
C698 C697 1.379 . S
H699 C693 0.959 . S
H700 C693 0.961 . S
H701 C693 0.960 . S
H702 C694 0.930 . S
H703 C695 0.929 . S
H704 C712 0.929 . S
H705 C714 0.930 . S
H706 C716 0.930 . S
H707 C719 0.929 . S
H708 C722 0.930 . S
H709 C724 0.960 . S
H710 C724 0.960 . S
H711 C724 0.960 . S
C712 H704 0.929 . S
C712 C713 1.377 . S
C712 C714 1.384 . S
C713 C712 1.377 . S
C713 C719 1.390 . S
C714 H705 0.930 . S
C714 C712 1.384 . S
C714 C715 1.372 . S
C715 C714 1.372 . S
C715 C716 1.400 . S
C715 C720 1.490 . S
C716 H706 0.930 . S
C716 C715 1.400 . S
C716 C719 1.386 . S
H717 C733 0.930 . S
H718 C734 0.931 . S
C719 H707 0.929 . S
C719 C713 1.390 . S
C719 C716 1.386 . S
C720 C715 1.490 . S
C720 C722 1.395 . S
C720 C723 1.403 . S
H721 C727 0.930 . S
C722 H708 0.930 . S
C722 C720 1.395 . S
C722 C725 1.403 . S
C723 C720 1.403 . S
C723 C724 1.524 . S
C723 C727 1.400 . S
C724 H709 0.960 . S
C724 H710 0.960 . S
C724 H711 0.960 . S
C724 C723 1.524 . S
C725 C722 1.403 . S
C725 C726 1.392 . S
C725 C729 1.495 . S
C726 C725 1.392 . S
C726 C727 1.385 . S
C726 C728 1.478 . S
C727 H721 0.930 . S
C727 C723 1.400 . S
C727 C726 1.385 . S
C728 C726 1.478 . S
C728 C730 1.381 . S
C728 C734 1.383 . S
C729 C725 1.495 . S
C729 H735 0.959 . S
C729 H736 0.961 . S
C729 H737 0.960 . S
C730 C728 1.381 . S
C730 C731 1.394 . S
C730 H738 0.930 . S
C731 C730 1.394 . S
C731 C732 1.383 . S
C731 H739 0.929 . S
C732 C731 1.383 . S
C732 C733 1.377 . S
C733 H717 0.930 . S
C733 C732 1.377 . S
C733 C734 1.379 . S
C734 H718 0.931 . S
C734 C728 1.383 . S
C734 C733 1.379 . S
H735 C729 0.959 . S
H736 C729 0.961 . S
H737 C729 0.960 . S
H738 C730 0.930 . S
H739 C731 0.929 . S
H740 C748 0.929 . S
H741 C750 0.930 . S
H742 C752 0.930 . S
H743 C755 0.929 . S
H744 C758 0.930 . S
H745 C760 0.960 . S
H746 C760 0.960 . S
H747 C760 0.960 . S
C748 H740 0.929 . S
C748 C749 1.377 . S
C748 C750 1.384 . S
C749 C748 1.377 . S
C749 C755 1.390 . S
C750 H741 0.930 . S
C750 C748 1.384 . S
C750 C751 1.372 . S
C751 C750 1.372 . S
C751 C752 1.400 . S
C751 C756 1.490 . S
C752 H742 0.930 . S
C752 C751 1.400 . S
C752 C755 1.386 . S
H753 C769 0.930 . S
H754 C770 0.931 . S
C755 H743 0.929 . S
C755 C749 1.390 . S
C755 C752 1.386 . S
C756 C751 1.490 . S
C756 C758 1.395 . S
C756 C759 1.403 . S
H757 C763 0.930 . S
C758 H744 0.930 . S
C758 C756 1.395 . S
C758 C761 1.403 . S
C759 C756 1.403 . S
C759 C760 1.524 . S
C759 C763 1.400 . S
C760 H745 0.960 . S
C760 H746 0.960 . S
C760 H747 0.960 . S
C760 C759 1.524 . S
C761 C758 1.403 . S
C761 C762 1.392 . S
C761 C765 1.495 . S
C762 C761 1.392 . S
C762 C763 1.385 . S
C762 C764 1.478 . S
C763 H757 0.930 . S
C763 C759 1.400 . S
C763 C762 1.385 . S
C764 C762 1.478 . S
C764 C766 1.381 . S
C764 C770 1.383 . S
C765 C761 1.495 . S
C765 H771 0.959 . S
C765 H772 0.961 . S
C765 H773 0.960 . S
C766 C764 1.381 . S
C766 C767 1.394 . S
C766 H774 0.930 . S
C767 C766 1.394 . S
C767 C768 1.383 . S
C767 H775 0.929 . S
C768 C767 1.383 . S
C768 C769 1.377 . S
C769 H753 0.930 . S
C769 C768 1.377 . S
C769 C770 1.379 . S
C770 H754 0.931 . S
C770 C764 1.383 . S
C770 C769 1.379 . S
H771 C765 0.959 . S
H772 C765 0.961 . S
H773 C765 0.960 . S
H774 C766 0.930 . S
H775 C767 0.929 . S
H776 C784 0.929 . S
H777 C786 0.930 . S
H778 C788 0.930 1_554 S
H779 C791 0.929 . S
H780 C794 0.930 . S
H781 C796 0.960 . S
H782 C796 0.960 . S
H783 C796 0.960 . S
C784 H776 0.929 . S
C784 C785 1.377 . S
C784 C786 1.384 . S
C785 C784 1.377 . S
C785 C791 1.390 . S
C786 H777 0.930 . S
C786 C784 1.384 . S
C786 C787 1.372 . S
C787 C786 1.372 . S
C787 C788 1.400 . S
C787 C792 1.490 . S
C788 H778 0.930 1_556 S
C788 C787 1.400 . S
C788 C791 1.386 . S
H789 C805 0.930 . S
H790 C806 0.931 . S
C791 H779 0.929 . S
C791 C785 1.390 . S
C791 C788 1.386 . S
C792 C787 1.490 . S
C792 C794 1.395 . S
C792 C795 1.403 1_556 S
H793 C799 0.930 . S
C794 H780 0.930 . S
C794 C792 1.395 . S
C794 C797 1.403 . S
C795 C792 1.403 1_554 S
C795 C796 1.524 . S
C795 C799 1.400 . S
C796 H781 0.960 . S
C796 H782 0.960 . S
C796 H783 0.960 . S
C796 C795 1.524 . S
C797 C794 1.403 . S
C797 C798 1.392 1_556 S
C797 C801 1.495 . S
C798 C797 1.392 1_554 S
C798 C799 1.385 . S
C798 C800 1.478 . S
C799 H793 0.930 . S
C799 C795 1.400 . S
C799 C798 1.385 . S
C800 C798 1.478 . S
C800 C802 1.381 . S
C800 C806 1.383 . S
C801 C797 1.495 . S
C801 H807 0.959 . S
C801 H808 0.961 . S
C801 H809 0.960 . S
C802 C800 1.381 . S
C802 C803 1.394 . S
C802 H810 0.930 1_554 S
C803 C802 1.394 . S
C803 C804 1.383 . S
C803 H811 0.929 . S
C804 C803 1.383 . S
C804 C805 1.377 . S
C805 H789 0.930 . S
C805 C804 1.377 . S
C805 C806 1.379 . S
C806 H790 0.931 . S
C806 C800 1.383 . S
C806 C805 1.379 . S
H807 C801 0.959 . S
H808 C801 0.961 . S
H809 C801 0.960 . S
H810 C802 0.930 1_556 S
H811 C803 0.929 . S
H812 C820 0.929 . S
H813 C822 0.930 . S
H814 C824 0.930 . S
H815 C827 0.929 . S
H816 C830 0.930 . S
H817 C832 0.960 . S
H818 C832 0.960 . S
H819 C832 0.960 . S
C820 H812 0.929 . S
C820 C821 1.377 . S
C820 C822 1.384 . S
C821 C820 1.377 . S
C821 C827 1.390 . S
C822 H813 0.930 . S
C822 C820 1.384 . S
C822 C823 1.372 . S
C823 C822 1.372 . S
C823 C824 1.400 . S
C823 C828 1.490 . S
C824 H814 0.930 . S
C824 C823 1.400 . S
C824 C827 1.386 . S
H825 C841 0.930 . S
H826 C842 0.931 . S
C827 H815 0.929 . S
C827 C821 1.390 . S
C827 C824 1.386 . S
C828 C823 1.490 . S
C828 C830 1.395 . S
C828 C831 1.403 . S
H829 C835 0.930 . S
C830 H816 0.930 . S
C830 C828 1.395 . S
C830 C833 1.403 . S
C831 C828 1.403 . S
C831 C832 1.524 . S
C831 C835 1.400 . S
C832 H817 0.960 . S
C832 H818 0.960 . S
C832 H819 0.960 . S
C832 C831 1.524 . S
C833 C830 1.403 . S
C833 C834 1.392 . S
C833 C837 1.495 . S
C834 C833 1.392 . S
C834 C835 1.385 . S
C834 C836 1.478 . S
C835 H829 0.930 . S
C835 C831 1.400 . S
C835 C834 1.385 . S
C836 C834 1.478 . S
C836 C838 1.381 . S
C836 C842 1.383 . S
C837 C833 1.495 . S
C837 H843 0.959 . S
C837 H844 0.961 . S
C837 H845 0.960 . S
C838 C836 1.381 . S
C838 C839 1.394 . S
C838 H846 0.930 . S
C839 C838 1.394 . S
C839 C840 1.383 . S
C839 H847 0.929 . S
C840 C839 1.383 . S
C840 C841 1.377 . S
C841 H825 0.930 . S
C841 C840 1.377 . S
C841 C842 1.379 . S
C842 H826 0.931 . S
C842 C836 1.383 . S
C842 C841 1.379 . S
H843 C837 0.959 . S
H844 C837 0.961 . S
H845 C837 0.960 . S
H846 C838 0.930 . S
H847 C839 0.929 . S
H848 C856 0.929 . S
H849 C858 0.930 . S
H850 C860 0.930 . S
H851 C863 0.929 . S
H852 C866 0.930 . S
H853 C868 0.960 . S
H854 C868 0.960 . S
H855 C868 0.960 . S
C856 H848 0.929 . S
C856 C857 1.377 . S
C856 C858 1.384 . S
C857 C856 1.377 . S
C857 C863 1.390 . S
C858 H849 0.930 . S
C858 C856 1.384 . S
C858 C859 1.372 . S
C859 C858 1.372 . S
C859 C860 1.400 . S
C859 C864 1.490 . S
C860 H850 0.930 . S
C860 C859 1.400 . S
C860 C863 1.386 . S
H861 C877 0.930 . S
H862 C878 0.931 . S
C863 H851 0.929 . S
C863 C857 1.390 . S
C863 C860 1.386 . S
C864 C859 1.490 . S
C864 C866 1.395 . S
C864 C867 1.403 . S
H865 C871 0.930 . S
C866 H852 0.930 . S
C866 C864 1.395 . S
C866 C869 1.403 . S
C867 C864 1.403 . S
C867 C868 1.524 . S
C867 C871 1.400 . S
C868 H853 0.960 . S
C868 H854 0.960 . S
C868 H855 0.960 . S
C868 C867 1.524 . S
C869 C866 1.403 . S
C869 C870 1.392 . S
C869 C873 1.495 . S
C870 C869 1.392 . S
C870 C871 1.385 . S
C870 C872 1.478 . S
C871 H865 0.930 . S
C871 C867 1.400 . S
C871 C870 1.385 . S
C872 C870 1.478 . S
C872 C874 1.381 . S
C872 C878 1.383 . S
C873 C869 1.495 . S
C873 H879 0.959 . S
C873 H880 0.961 . S
C873 H881 0.960 . S
C874 C872 1.381 . S
C874 C875 1.394 . S
C874 H882 0.930 . S
C875 C874 1.394 . S
C875 C876 1.383 . S
C875 H883 0.929 . S
C876 C875 1.383 . S
C876 C877 1.377 . S
C877 H861 0.930 . S
C877 C876 1.377 . S
C877 C878 1.379 . S
C878 H862 0.931 . S
C878 C872 1.383 . S
C878 C877 1.379 . S
H879 C873 0.959 . S
H880 C873 0.961 . S
H881 C873 0.960 . S
H882 C874 0.930 . S
H883 C875 0.929 . S
H884 C892 0.929 . S
H885 C894 0.930 . S
H886 C896 0.930 . S
H887 C899 0.929 . S
H888 C902 0.930 . S
H889 C904 0.960 . S
H890 C904 0.960 . S
H891 C904 0.960 . S
C892 H884 0.929 . S
C892 C893 1.377 . S
C892 C894 1.384 . S
C893 C892 1.377 . S
C893 C899 1.390 . S
C894 H885 0.930 . S
C894 C892 1.384 . S
C894 C895 1.372 . S
C895 C894 1.372 . S
C895 C896 1.400 . S
C895 C900 1.490 . S
C896 H886 0.930 . S
C896 C895 1.400 . S
C896 C899 1.386 . S
H897 C913 0.930 . S
H898 C914 0.931 . S
C899 H887 0.929 . S
C899 C893 1.390 . S
C899 C896 1.386 . S
C900 C895 1.490 . S
C900 C902 1.395 . S
C900 C903 1.403 . S
H901 C907 0.930 . S
C902 H888 0.930 . S
C902 C900 1.395 . S
C902 C905 1.403 . S
C903 C900 1.403 . S
C903 C904 1.524 . S
C903 C907 1.400 . S
C904 H889 0.960 . S
C904 H890 0.960 . S
C904 H891 0.960 . S
C904 C903 1.524 . S
C905 C902 1.403 . S
C905 C906 1.392 . S
C905 C909 1.495 . S
C906 C905 1.392 . S
C906 C907 1.385 . S
C906 C908 1.478 . S
C907 H901 0.930 . S
C907 C903 1.400 . S
C907 C906 1.385 . S
C908 C906 1.478 . S
C908 C910 1.381 . S
C908 C914 1.383 . S
C909 C905 1.495 . S
C909 H915 0.959 . S
C909 H916 0.961 . S
C909 H917 0.960 . S
C910 C908 1.381 . S
C910 C911 1.394 . S
C910 H918 0.930 . S
C911 C910 1.394 . S
C911 C912 1.383 . S
C911 H919 0.929 . S
C912 C911 1.383 . S
C912 C913 1.377 . S
C913 H897 0.930 . S
C913 C912 1.377 . S
C913 C914 1.379 . S
C914 H898 0.931 . S
C914 C908 1.383 . S
C914 C913 1.379 . S
H915 C909 0.959 . S
H916 C909 0.961 . S
H917 C909 0.960 . S
H918 C910 0.930 . S
H919 C911 0.929 . S
H920 C928 0.929 . S
H921 C930 0.930 . S
H922 C932 0.930 . S
H923 C935 0.929 . S
H924 C938 0.930 . S
H925 C940 0.960 . S
H926 C940 0.960 . S
H927 C940 0.960 . S
C928 H920 0.929 . S
C928 C929 1.377 . S
C928 C930 1.384 . S
C929 C928 1.377 . S
C929 C935 1.390 . S
C930 H921 0.930 . S
C930 C928 1.384 . S
C930 C931 1.372 . S
C931 C930 1.372 . S
C931 C932 1.400 . S
C931 C936 1.490 . S
C932 H922 0.930 . S
C932 C931 1.400 . S
C932 C935 1.386 . S
H933 C949 0.930 . S
H934 C950 0.931 . S
C935 H923 0.929 . S
C935 C929 1.390 . S
C935 C932 1.386 . S
C936 C931 1.490 . S
C936 C938 1.395 . S
C936 C939 1.403 1_554 S
H937 C943 0.930 . S
C938 H924 0.930 . S
C938 C936 1.395 . S
C938 C941 1.403 . S
C939 C936 1.403 1_556 S
C939 C940 1.524 . S
C939 C943 1.400 . S
C940 H925 0.960 . S
C940 H926 0.960 . S
C940 H927 0.960 . S
C940 C939 1.524 . S
C941 C938 1.403 . S
C941 C942 1.392 1_554 S
C941 C945 1.495 . S
C942 C941 1.392 1_556 S
C942 C943 1.385 . S
C942 C944 1.478 . S
C943 H937 0.930 . S
C943 C939 1.400 . S
C943 C942 1.385 . S
C944 C942 1.478 . S
C944 C946 1.381 . S
C944 C950 1.383 . S
C945 C941 1.495 . S
C945 H951 0.959 . S
C945 H952 0.961 . S
C945 H953 0.960 . S
C946 C944 1.381 . S
C946 C947 1.394 . S
C946 H954 0.930 . S
C947 C946 1.394 . S
C947 C948 1.383 . S
C947 H955 0.929 . S
C948 C947 1.383 . S
C948 C949 1.377 . S
C949 H933 0.930 . S
C949 C948 1.377 . S
C949 C950 1.379 . S
C950 H934 0.931 . S
C950 C944 1.383 . S
C950 C949 1.379 . S
H951 C945 0.959 . S
H952 C945 0.961 . S
H953 C945 0.960 . S
H954 C946 0.930 . S
H955 C947 0.929 . S
H956 C964 0.929 . S
H957 C966 0.930 . S
H958 C968 0.930 . S
H959 C971 0.929 . S
H960 C974 0.930 . S
H961 C976 0.960 . S
H962 C976 0.960 . S
H963 C976 0.960 . S
C964 H956 0.929 . S
C964 C965 1.377 . S
C964 C966 1.384 . S
C965 C964 1.377 . S
C965 C971 1.390 . S
C966 H957 0.930 . S
C966 C964 1.384 . S
C966 C967 1.372 . S
C967 C966 1.372 . S
C967 C968 1.400 . S
C967 C972 1.490 . S
C968 H958 0.930 . S
C968 C967 1.400 . S
C968 C971 1.386 . S
H969 C985 0.930 . S
H970 C986 0.931 . S
C971 H959 0.929 . S
C971 C965 1.390 . S
C971 C968 1.386 . S
C972 C967 1.490 . S
C972 C974 1.395 . S
C972 C975 1.403 . S
H973 C979 0.930 . S
C974 H960 0.930 . S
C974 C972 1.395 . S
C974 C977 1.403 . S
C975 C972 1.403 . S
C975 C976 1.524 . S
C975 C979 1.400 . S
C976 H961 0.960 . S
C976 H962 0.960 . S
C976 H963 0.960 . S
C976 C975 1.524 . S
C977 C974 1.403 . S
C977 C978 1.392 . S
C977 C981 1.495 . S
C978 C977 1.392 . S
C978 C979 1.385 . S
C978 C980 1.478 . S
C979 H973 0.930 . S
C979 C975 1.400 . S
C979 C978 1.385 . S
C980 C978 1.478 . S
C980 C982 1.381 . S
C980 C986 1.383 . S
C981 C977 1.495 . S
C981 H987 0.959 . S
C981 H988 0.961 . S
C981 H989 0.960 . S
C982 C980 1.381 . S
C982 C983 1.394 . S
C982 H990 0.930 . S
C983 C982 1.394 . S
C983 C984 1.383 . S
C983 H991 0.929 . S
C984 C983 1.383 . S
C984 C985 1.377 . S
C985 H969 0.930 . S
C985 C984 1.377 . S
C985 C986 1.379 . S
C986 H970 0.931 . S
C986 C980 1.383 . S
C986 C985 1.379 . S
H987 C981 0.959 . S
H988 C981 0.961 . S
H989 C981 0.960 . S
H990 C982 0.930 . S
H991 C983 0.929 . S
H992 C1000 0.929 . S
H993 C1002 0.930 . S
H994 C1004 0.930 . S
H995 C1007 0.929 . S
H996 C1010 0.930 . S
H997 C1012 0.960 . S
H998 C1012 0.960 . S
H999 C1012 0.960 . S
C1000 H992 0.929 . S
C1000 C1001 1.377 . S
C1000 C1002 1.384 . S
C1001 C1000 1.377 . S
C1001 C1007 1.390 . S
C1002 H993 0.930 . S
C1002 C1000 1.384 . S
C1002 C1003 1.372 . S
C1003 C1002 1.372 . S
C1003 C1004 1.400 . S
C1003 C1008 1.490 . S
C1004 H994 0.930 . S
C1004 C1003 1.400 . S
C1004 C1007 1.386 . S
H1005 C1021 0.930 . S
H1006 C1022 0.931 . S
C1007 H995 0.929 . S
C1007 C1001 1.390 . S
C1007 C1004 1.386 . S
C1008 C1003 1.490 . S
C1008 C1010 1.395 . S
C1008 C1011 1.403 . S
H1009 C1015 0.930 . S
C1010 H996 0.930 . S
C1010 C1008 1.395 . S
C1010 C1013 1.403 . S
C1011 C1008 1.403 . S
C1011 C1012 1.524 . S
C1011 C1015 1.400 . S
C1012 H997 0.960 . S
C1012 H998 0.960 . S
C1012 H999 0.960 . S
C1012 C1011 1.524 . S
C1013 C1010 1.403 . S
C1013 C1014 1.392 . S
C1013 C1017 1.495 . S
C1014 C1013 1.392 . S
C1014 C1015 1.385 . S
C1014 C1016 1.478 . S
C1015 H1009 0.930 . S
C1015 C1011 1.400 . S
C1015 C1014 1.385 . S
C1016 C1014 1.478 . S
C1016 C1018 1.381 . S
C1016 C1022 1.383 . S
C1017 C1013 1.495 . S
C1017 H1023 0.959 . S
C1017 H1024 0.961 . S
C1017 H1025 0.960 . S
C1018 C1016 1.381 . S
C1018 C1019 1.394 . S
C1018 H1026 0.930 . S
C1019 C1018 1.394 . S
C1019 C1020 1.383 . S
C1019 H1027 0.929 . S
C1020 C1019 1.383 . S
C1020 C1021 1.377 . S
C1021 H1005 0.930 . S
C1021 C1020 1.377 . S
C1021 C1022 1.379 . S
C1022 H1006 0.931 . S
C1022 C1016 1.383 . S
C1022 C1021 1.379 . S
H1023 C1017 0.959 . S
H1024 C1017 0.961 . S
H1025 C1017 0.960 . S
H1026 C1018 0.930 . S
H1027 C1019 0.929 . S
H1028 C1036 0.929 . S
H1029 C1038 0.930 1_655 S
H1030 C1040 0.930 . S
H1031 C1043 0.929 . S
H1032 C1046 0.930 . S
H1033 C1048 0.960 . S
H1034 C1048 0.960 . S
H1035 C1048 0.960 . S
C1036 H1028 0.929 . S
C1036 C1037 1.377 . S
C1036 C1038 1.384 . S
C1037 C1036 1.377 . S
C1037 C1043 1.390 . S
C1038 H1029 0.930 1_455 S
C1038 C1036 1.384 . S
C1038 C1039 1.372 . S
C1039 C1038 1.372 . S
C1039 C1040 1.400 . S
C1039 C1044 1.490 1_556 S
C1040 H1030 0.930 . S
C1040 C1039 1.400 . S
C1040 C1043 1.386 . S
H1041 C1057 0.930 . S
H1042 C1058 0.931 . S
C1043 H1031 0.929 . S
C1043 C1037 1.390 . S
C1043 C1040 1.386 . S
C1044 C1039 1.490 1_554 S
C1044 C1046 1.395 1_455 S
C1044 C1047 1.403 . S
H1045 C1051 0.930 . S
C1046 H1032 0.930 . S
C1046 C1044 1.395 1_655 S
C1046 C1049 1.403 . S
C1047 C1044 1.403 . S
C1047 C1048 1.524 . S
C1047 C1051 1.400 . S
C1048 H1033 0.960 . S
C1048 H1034 0.960 . S
C1048 H1035 0.960 . S
C1048 C1047 1.524 . S
C1049 C1046 1.403 . S
C1049 C1050 1.392 . S
C1049 C1053 1.495 . S
C1050 C1049 1.392 . S
C1050 C1051 1.385 1_655 S
C1050 C1052 1.478 . S
C1051 H1045 0.930 . S
C1051 C1047 1.400 . S
C1051 C1050 1.385 1_455 S
C1052 C1050 1.478 . S
C1052 C1054 1.381 . S
C1052 C1058 1.383 . S
C1053 C1049 1.495 . S
C1053 H1059 0.959 . S
C1053 H1060 0.961 . S
C1053 H1061 0.960 . S
C1054 C1052 1.381 . S
C1054 C1055 1.394 . S
C1054 H1062 0.930 . S
C1055 C1054 1.394 . S
C1055 C1056 1.383 . S
C1055 H1063 0.929 . S
C1056 C1055 1.383 . S
C1056 C1057 1.377 . S
C1057 H1041 0.930 . S
C1057 C1056 1.377 . S
C1057 C1058 1.379 . S
C1058 H1042 0.931 . S
C1058 C1052 1.383 . S
C1058 C1057 1.379 . S
H1059 C1053 0.959 . S
H1060 C1053 0.961 . S
H1061 C1053 0.960 . S
H1062 C1054 0.930 . S
H1063 C1055 0.929 . S
H1064 C1072 0.929 . S
H1065 C1074 0.930 . S
H1066 C1076 0.930 . S
H1067 C1079 0.929 . S
H1068 C1082 0.930 . S
H1069 C1084 0.960 . S
H1070 C1084 0.960 . S
H1071 C1084 0.960 . S
C1072 H1064 0.929 . S
C1072 C1073 1.377 . S
C1072 C1074 1.384 . S
C1073 C1072 1.377 . S
C1073 C1079 1.390 . S
C1074 H1065 0.930 . S
C1074 C1072 1.384 . S
C1074 C1075 1.372 . S
C1075 C1074 1.372 . S
C1075 C1076 1.400 . S
C1075 C1080 1.490 . S
C1076 H1066 0.930 . S
C1076 C1075 1.400 . S
C1076 C1079 1.386 . S
H1077 C1093 0.930 . S
H1078 C1094 0.931 . S
C1079 H1067 0.929 . S
C1079 C1073 1.390 . S
C1079 C1076 1.386 . S
C1080 C1075 1.490 . S
C1080 C1082 1.395 . S
C1080 C1083 1.403 . S
H1081 C1087 0.930 . S
C1082 H1068 0.930 . S
C1082 C1080 1.395 . S
C1082 C1085 1.403 . S
C1083 C1080 1.403 . S
C1083 C1084 1.524 . S
C1083 C1087 1.400 . S
C1084 H1069 0.960 . S
C1084 H1070 0.960 . S
C1084 H1071 0.960 . S
C1084 C1083 1.524 . S
C1085 C1082 1.403 . S
C1085 C1086 1.392 . S
C1085 C1089 1.495 . S
C1086 C1085 1.392 . S
C1086 C1087 1.385 . S
C1086 C1088 1.478 . S
C1087 H1081 0.930 . S
C1087 C1083 1.400 . S
C1087 C1086 1.385 . S
C1088 C1086 1.478 . S
C1088 C1090 1.381 . S
C1088 C1094 1.383 . S
C1089 C1085 1.495 . S
C1089 H1095 0.959 . S
C1089 H1096 0.961 . S
C1089 H1097 0.960 . S
C1090 C1088 1.381 . S
C1090 C1091 1.394 . S
C1090 H1098 0.930 . S
C1091 C1090 1.394 . S
C1091 C1092 1.383 . S
C1091 H1099 0.929 . S
C1092 C1091 1.383 . S
C1092 C1093 1.377 . S
C1093 H1077 0.930 . S
C1093 C1092 1.377 . S
C1093 C1094 1.379 . S
C1094 H1078 0.931 . S
C1094 C1088 1.383 . S
C1094 C1093 1.379 . S
H1095 C1089 0.959 . S
H1096 C1089 0.961 . S
H1097 C1089 0.960 . S
H1098 C1090 0.930 . S
H1099 C1091 0.929 . S
H1100 C1108 0.929 . S
H1101 C1110 0.930 . S
H1102 C1112 0.930 . S
H1103 C1115 0.929 . S
H1104 C1118 0.930 . S
H1105 C1120 0.960 . S
H1106 C1120 0.960 . S
H1107 C1120 0.960 . S
C1108 H1100 0.929 . S
C1108 C1109 1.377 . S
C1108 C1110 1.384 . S
C1109 C1108 1.377 . S
C1109 C1115 1.390 . S
C1110 H1101 0.930 . S
C1110 C1108 1.384 . S
C1110 C1111 1.372 . S
C1111 C1110 1.372 . S
C1111 C1112 1.400 . S
C1111 C1116 1.490 . S
C1112 H1102 0.930 . S
C1112 C1111 1.400 . S
C1112 C1115 1.386 . S
H1113 C1129 0.930 . S
H1114 C1130 0.931 . S
C1115 H1103 0.929 . S
C1115 C1109 1.390 . S
C1115 C1112 1.386 . S
C1116 C1111 1.490 . S
C1116 C1118 1.395 . S
C1116 C1119 1.403 . S
H1117 C1123 0.930 . S
C1118 H1104 0.930 . S
C1118 C1116 1.395 . S
C1118 C1121 1.403 . S
C1119 C1116 1.403 . S
C1119 C1120 1.524 . S
C1119 C1123 1.400 . S
C1120 H1105 0.960 . S
C1120 H1106 0.960 . S
C1120 H1107 0.960 . S
C1120 C1119 1.524 . S
C1121 C1118 1.403 . S
C1121 C1122 1.392 . S
C1121 C1125 1.495 . S
C1122 C1121 1.392 . S
C1122 C1123 1.385 . S
C1122 C1124 1.478 . S
C1123 H1117 0.930 . S
C1123 C1119 1.400 . S
C1123 C1122 1.385 . S
C1124 C1122 1.478 . S
C1124 C1126 1.381 . S
C1124 C1130 1.383 . S
C1125 C1121 1.495 . S
C1125 H1131 0.959 . S
C1125 H1132 0.961 . S
C1125 H1133 0.960 . S
C1126 C1124 1.381 . S
C1126 C1127 1.394 . S
C1126 H1134 0.930 . S
C1127 C1126 1.394 . S
C1127 C1128 1.383 . S
C1127 H1135 0.929 . S
C1128 C1127 1.383 . S
C1128 C1129 1.377 . S
C1129 H1113 0.930 . S
C1129 C1128 1.377 . S
C1129 C1130 1.379 . S
C1130 H1114 0.931 . S
C1130 C1124 1.383 . S
C1130 C1129 1.379 . S
H1131 C1125 0.959 . S
H1132 C1125 0.961 . S
H1133 C1125 0.960 . S
H1134 C1126 0.930 . S
H1135 C1127 0.929 . S
H1136 C1144 0.929 . S
H1137 C1146 0.930 . S
H1138 C1148 0.930 . S
H1139 C1151 0.929 . S
H1140 C1154 0.930 . S
H1141 C1156 0.960 . S
H1142 C1156 0.960 . S
H1143 C1156 0.960 . S
C1144 H1136 0.929 . S
C1144 C1145 1.377 . S
C1144 C1146 1.384 . S
C1145 C1144 1.377 . S
C1145 C1151 1.390 . S
C1146 H1137 0.930 . S
C1146 C1144 1.384 . S
C1146 C1147 1.372 . S
C1147 C1146 1.372 . S
C1147 C1148 1.400 . S
C1147 C1152 1.490 . S
C1148 H1138 0.930 . S
C1148 C1147 1.400 . S
C1148 C1151 1.386 . S
H1149 C1165 0.930 . S
H1150 C1166 0.931 . S
C1151 H1139 0.929 . S
C1151 C1145 1.390 . S
C1151 C1148 1.386 . S
C1152 C1147 1.490 . S
C1152 C1154 1.395 . S
C1152 C1155 1.403 . S
H1153 C1159 0.930 . S
C1154 H1140 0.930 . S
C1154 C1152 1.395 . S
C1154 C1157 1.403 . S
C1155 C1152 1.403 . S
C1155 C1156 1.524 . S
C1155 C1159 1.400 . S
C1156 H1141 0.960 . S
C1156 H1142 0.960 . S
C1156 H1143 0.960 . S
C1156 C1155 1.524 . S
C1157 C1154 1.403 . S
C1157 C1158 1.392 . S
C1157 C1161 1.495 . S
C1158 C1157 1.392 . S
C1158 C1159 1.385 . S
C1158 C1160 1.478 . S
C1159 H1153 0.930 . S
C1159 C1155 1.400 . S
C1159 C1158 1.385 . S
C1160 C1158 1.478 . S
C1160 C1162 1.381 . S
C1160 C1166 1.383 . S
C1161 C1157 1.495 . S
C1161 H1167 0.959 . S
C1161 H1168 0.961 . S
C1161 H1169 0.960 . S
C1162 C1160 1.381 . S
C1162 C1163 1.394 . S
C1162 H1170 0.930 . S
C1163 C1162 1.394 . S
C1163 C1164 1.383 . S
C1163 H1171 0.929 . S
C1164 C1163 1.383 . S
C1164 C1165 1.377 . S
C1165 H1149 0.930 . S
C1165 C1164 1.377 . S
C1165 C1166 1.379 . S
C1166 H1150 0.931 . S
C1166 C1160 1.383 . S
C1166 C1165 1.379 . S
H1167 C1161 0.959 . S
H1168 C1161 0.961 . S
H1169 C1161 0.960 . S
H1170 C1162 0.930 . S
H1171 C1163 0.929 . S
H1172 C1180 0.929 . S
H1173 C1182 0.930 . S
H1174 C1184 0.930 . S
H1175 C1187 0.929 . S
H1176 C1190 0.930 . S
H1177 C1192 0.960 . S
H1178 C1192 0.960 1_554 S
H1179 C1192 0.960 . S
C1180 H1172 0.929 . S
C1180 C1181 1.377 . S
C1180 C1182 1.384 . S
C1181 C1180 1.377 . S
C1181 C1187 1.390 . S
C1182 H1173 0.930 . S
C1182 C1180 1.384 . S
C1182 C1183 1.372 . S
C1183 C1182 1.372 . S
C1183 C1184 1.400 . S
C1183 C1188 1.490 1_554 S
C1184 H1174 0.930 . S
C1184 C1183 1.400 . S
C1184 C1187 1.386 . S
H1185 C1201 0.930 . S
H1186 C1202 0.931 . S
C1187 H1175 0.929 . S
C1187 C1181 1.390 . S
C1187 C1184 1.386 . S
C1188 C1183 1.490 1_556 S
C1188 C1190 1.395 . S
C1188 C1191 1.403 . S
H1189 C1195 0.930 . S
C1190 H1176 0.930 . S
C1190 C1188 1.395 . S
C1190 C1193 1.403 . S
C1191 C1188 1.403 . S
C1191 C1192 1.524 . S
C1191 C1195 1.400 . S
C1192 H1177 0.960 . S
C1192 H1178 0.960 1_556 S
C1192 H1179 0.960 . S
C1192 C1191 1.524 . S
C1193 C1190 1.403 . S
C1193 C1194 1.392 . S
C1193 C1197 1.495 . S
C1194 C1193 1.392 . S
C1194 C1195 1.385 . S
C1194 C1196 1.478 . S
C1195 H1189 0.930 . S
C1195 C1191 1.400 . S
C1195 C1194 1.385 . S
C1196 C1194 1.478 . S
C1196 C1198 1.381 . S
C1196 C1202 1.383 . S
C1197 C1193 1.495 . S
C1197 H1203 0.959 . S
C1197 H1204 0.961 . S
C1197 H1205 0.960 . S
C1198 C1196 1.381 . S
C1198 C1199 1.394 . S
C1198 H1206 0.930 . S
C1199 C1198 1.394 . S
C1199 C1200 1.383 . S
C1199 H1207 0.929 . S
C1200 C1199 1.383 . S
C1200 C1201 1.377 . S
C1201 H1185 0.930 . S
C1201 C1200 1.377 . S
C1201 C1202 1.379 . S
C1202 H1186 0.931 . S
C1202 C1196 1.383 . S
C1202 C1201 1.379 . S
H1203 C1197 0.959 . S
H1204 C1197 0.961 . S
H1205 C1197 0.960 . S
H1206 C1198 0.930 . S
H1207 C1199 0.929 . S
H1208 C1216 0.929 . S
H1209 C1218 0.930 . S
H1210 C1220 0.930 . S
H1211 C1223 0.929 . S
H1212 C1226 0.930 . S
H1213 C1228 0.960 . S
H1214 C1228 0.960 . S
H1215 C1228 0.960 . S
C1216 H1208 0.929 . S
C1216 C1217 1.377 . S
C1216 C1218 1.384 . S
C1217 C1216 1.377 . S
C1217 C1223 1.390 . S
C1218 H1209 0.930 . S
C1218 C1216 1.384 . S
C1218 C1219 1.372 . S
C1219 C1218 1.372 . S
C1219 C1220 1.400 . S
C1219 C1224 1.490 . S
C1220 H1210 0.930 . S
C1220 C1219 1.400 . S
C1220 C1223 1.386 . S
H1221 C1237 0.930 . S
H1222 C1238 0.931 . S
C1223 H1211 0.929 . S
C1223 C1217 1.390 . S
C1223 C1220 1.386 . S
C1224 C1219 1.490 . S
C1224 C1226 1.395 . S
C1224 C1227 1.403 . S
H1225 C1231 0.930 . S
C1226 H1212 0.930 . S
C1226 C1224 1.395 . S
C1226 C1229 1.403 . S
C1227 C1224 1.403 . S
C1227 C1228 1.524 . S
C1227 C1231 1.400 . S
C1228 H1213 0.960 . S
C1228 H1214 0.960 . S
C1228 H1215 0.960 . S
C1228 C1227 1.524 . S
C1229 C1226 1.403 . S
C1229 C1230 1.392 . S
C1229 C1233 1.495 . S
C1230 C1229 1.392 . S
C1230 C1231 1.385 . S
C1230 C1232 1.478 . S
C1231 H1225 0.930 . S
C1231 C1227 1.400 . S
C1231 C1230 1.385 . S
C1232 C1230 1.478 . S
C1232 C1234 1.381 . S
C1232 C1238 1.383 . S
C1233 C1229 1.495 . S
C1233 H1239 0.959 . S
C1233 H1240 0.961 . S
C1233 H1241 0.960 . S
C1234 C1232 1.381 . S
C1234 C1235 1.394 . S
C1234 H1242 0.930 . S
C1235 C1234 1.394 . S
C1235 C1236 1.383 . S
C1235 H1243 0.929 . S
C1236 C1235 1.383 . S
C1236 C1237 1.377 . S
C1237 H1221 0.930 . S
C1237 C1236 1.377 . S
C1237 C1238 1.379 . S
C1238 H1222 0.931 . S
C1238 C1232 1.383 . S
C1238 C1237 1.379 . S
H1239 C1233 0.959 . S
H1240 C1233 0.961 . S
H1241 C1233 0.960 . S
H1242 C1234 0.930 . S
H1243 C1235 0.929 . S
H1244 C1252 0.929 . S
H1245 C1254 0.930 . S
H1246 C1256 0.930 . S
H1247 C1259 0.929 . S
H1248 C1262 0.930 . S
H1249 C1264 0.960 . S
H1250 C1264 0.960 . S
H1251 C1264 0.960 . S
C1252 H1244 0.929 . S
C1252 C1253 1.377 . S
C1252 C1254 1.384 . S
C1253 C1252 1.377 . S
C1253 C1259 1.390 . S
C1254 H1245 0.930 . S
C1254 C1252 1.384 . S
C1254 C1255 1.372 . S
C1255 C1254 1.372 . S
C1255 C1256 1.400 . S
C1255 C1260 1.490 . S
C1256 H1246 0.930 . S
C1256 C1255 1.400 . S
C1256 C1259 1.386 . S
H1257 C1273 0.930 . S
H1258 C1274 0.931 . S
C1259 H1247 0.929 . S
C1259 C1253 1.390 . S
C1259 C1256 1.386 . S
C1260 C1255 1.490 . S
C1260 C1262 1.395 . S
C1260 C1263 1.403 1_455 S
H1261 C1267 0.930 . S
C1262 H1248 0.930 . S
C1262 C1260 1.395 . S
C1262 C1265 1.403 . S
C1263 C1260 1.403 1_655 S
C1263 C1264 1.524 . S
C1263 C1267 1.400 . S
C1264 H1249 0.960 . S
C1264 H1250 0.960 . S
C1264 H1251 0.960 . S
C1264 C1263 1.524 . S
C1265 C1262 1.403 . S
C1265 C1266 1.392 1_455 S
C1265 C1269 1.495 . S
C1266 C1265 1.392 1_655 S
C1266 C1267 1.385 . S
C1266 C1268 1.478 . S
C1267 H1261 0.930 . S
C1267 C1263 1.400 . S
C1267 C1266 1.385 . S
C1268 C1266 1.478 . S
C1268 C1270 1.381 . S
C1268 C1274 1.383 . S
C1269 C1265 1.495 . S
C1269 H1275 0.959 . S
C1269 H1276 0.961 . S
C1269 H1277 0.960 . S
C1270 C1268 1.381 . S
C1270 C1271 1.394 . S
C1270 H1278 0.930 . S
C1271 C1270 1.394 . S
C1271 C1272 1.383 . S
C1271 H1279 0.929 . S
C1272 C1271 1.383 . S
C1272 C1273 1.377 . S
C1273 H1257 0.930 . S
C1273 C1272 1.377 . S
C1273 C1274 1.379 . S
C1274 H1258 0.931 . S
C1274 C1268 1.383 . S
C1274 C1273 1.379 . S
H1275 C1269 0.959 . S
H1276 C1269 0.961 . S
H1277 C1269 0.960 . S
H1278 C1270 0.930 . S
H1279 C1271 0.929 . S
H1280 C1288 0.929 . S
H1281 C1290 0.930 . S
H1282 C1292 0.930 . S
H1283 C1295 0.929 . S
H1284 C1298 0.930 . S
H1285 C1300 0.960 . S
H1286 C1300 0.960 . S
H1287 C1300 0.960 . S
C1288 H1280 0.929 . S
C1288 C1289 1.377 . S
C1288 C1290 1.384 . S
C1289 C1288 1.377 . S
C1289 C1295 1.390 . S
C1290 H1281 0.930 . S
C1290 C1288 1.384 . S
C1290 C1291 1.372 . S
C1291 C1290 1.372 . S
C1291 C1292 1.400 . S
C1291 C1296 1.490 . S
C1292 H1282 0.930 . S
C1292 C1291 1.400 . S
C1292 C1295 1.386 . S
H1293 C1309 0.930 . S
H1294 C1310 0.931 . S
C1295 H1283 0.929 . S
C1295 C1289 1.390 . S
C1295 C1292 1.386 . S
C1296 C1291 1.490 . S
C1296 C1298 1.395 . S
C1296 C1299 1.403 . S
H1297 C1303 0.930 . S
C1298 H1284 0.930 . S
C1298 C1296 1.395 . S
C1298 C1301 1.403 . S
C1299 C1296 1.403 . S
C1299 C1300 1.524 . S
C1299 C1303 1.400 . S
C1300 H1285 0.960 . S
C1300 H1286 0.960 . S
C1300 H1287 0.960 . S
C1300 C1299 1.524 . S
C1301 C1298 1.403 . S
C1301 C1302 1.392 . S
C1301 C1305 1.495 . S
C1302 C1301 1.392 . S
C1302 C1303 1.385 . S
C1302 C1304 1.478 . S
C1303 H1297 0.930 . S
C1303 C1299 1.400 . S
C1303 C1302 1.385 . S
C1304 C1302 1.478 . S
C1304 C1306 1.381 . S
C1304 C1310 1.383 . S
C1305 C1301 1.495 . S
C1305 H1311 0.959 . S
C1305 H1312 0.961 . S
C1305 H1313 0.960 . S
C1306 C1304 1.381 . S
C1306 C1307 1.394 . S
C1306 H1314 0.930 . S
C1307 C1306 1.394 . S
C1307 C1308 1.383 . S
C1307 H1315 0.929 . S
C1308 C1307 1.383 . S
C1308 C1309 1.377 . S
C1309 H1293 0.930 . S
C1309 C1308 1.377 . S
C1309 C1310 1.379 . S
C1310 H1294 0.931 . S
C1310 C1304 1.383 . S
C1310 C1309 1.379 . S
H1311 C1305 0.959 . S
H1312 C1305 0.961 . S
H1313 C1305 0.960 . S
H1314 C1306 0.930 . S
H1315 C1307 0.929 . S
H1316 C1324 0.929 . S
H1317 C1326 0.930 . S
H1318 C1328 1.015 . S
H1319 C1331 0.929 1_455 S
H1320 C1334 0.930 . S
H1321 C1336 0.960 . S
H1322 C1336 1.001 . S
H1323 C1336 0.960 . S
C1324 H1316 0.929 . S
C1324 C1325 1.377 . S
C1324 C1326 1.384 . S
C1325 C1324 1.377 . S
C1325 C1331 1.390 . S
C1326 H1317 0.930 . S
C1326 C1324 1.384 . S
C1326 C1327 1.372 . S
C1327 C1326 1.372 . S
C1327 C1328 1.341 1_655 S
C1327 C1332 1.490 1_554 S
C1328 H1318 1.015 . S
C1328 C1327 1.341 1_455 S
C1328 C1331 1.365 1_455 S
H1329 C1345 0.930 . S
H1330 C1346 0.931 . S
C1331 H1319 0.929 1_655 S
C1331 C1325 1.390 . S
C1331 C1328 1.365 1_655 S
C1332 C1327 1.490 1_556 S
C1332 C1334 1.395 . S
C1332 C1335 1.403 1_655 S
H1333 C1339 0.930 . S
C1334 H1320 0.930 . S
C1334 C1332 1.395 . S
C1334 C1337 1.403 . S
C1335 C1332 1.403 1_455 S
C1335 C1336 1.524 . S
C1335 C1339 1.400 . S
C1336 H1321 0.960 . S
C1336 H1322 1.001 . S
C1336 H1323 0.960 . S
C1336 C1335 1.524 . S
C1337 C1334 1.403 . S
C1337 C1338 1.392 1_655 S
C1337 C1341 1.495 . S
C1338 C1337 1.392 1_455 S
C1338 C1339 1.385 . S
C1338 C1340 1.478 . S
C1339 H1333 0.930 . S
C1339 C1335 1.400 . S
C1339 C1338 1.385 . S
C1340 C1338 1.478 . S
C1340 C1342 1.381 1_455 S
C1340 C1346 1.383 . S
C1341 C1337 1.495 . S
C1341 H1347 0.959 . S
C1341 H1348 0.961 . S
C1341 H1349 0.960 . S
C1342 C1340 1.381 1_655 S
C1342 C1343 1.394 1_655 S
C1342 H1350 0.930 . S
C1343 C1342 1.394 1_455 S
C1343 C1344 1.383 . S
C1343 H1351 0.929 1_455 S
C1344 C1343 1.383 . S
C1344 C1345 1.377 . S
C1345 H1329 0.930 . S
C1345 C1344 1.377 . S
C1345 C1346 1.379 . S
C1346 H1330 0.931 . S
C1346 C1340 1.383 . S
C1346 C1345 1.379 . S
H1347 C1341 0.959 . S
H1348 C1341 0.961 . S
H1349 C1341 0.960 . S
H1350 C1342 0.930 . S
H1351 C1343 0.929 1_655 S
H1352 C1360 0.929 . S
H1353 C1362 0.930 . S
H1354 C1364 0.930 . S
H1355 C1367 0.929 . S
H1356 C1370 0.930 . S
H1357 C1372 0.960 . S
H1358 C1372 0.960 . S
H1359 C1372 0.960 . S
C1360 H1352 0.929 . S
C1360 C1361 1.377 . S
C1360 C1362 1.384 . S
C1361 C1360 1.377 . S
C1361 C1367 1.390 . S
C1362 H1353 0.930 . S
C1362 C1360 1.384 . S
C1362 C1363 1.372 . S
C1363 C1362 1.372 . S
C1363 C1364 1.400 . S
C1363 C1368 1.490 . S
C1364 H1354 0.930 . S
C1364 C1363 1.400 . S
C1364 C1367 1.386 . S
H1365 C1381 0.930 . S
H1366 C1382 0.931 . S
C1367 H1355 0.929 . S
C1367 C1361 1.390 . S
C1367 C1364 1.386 . S
C1368 C1363 1.490 . S
C1368 C1370 1.395 . S
C1368 C1371 1.403 . S
H1369 C1375 0.930 . S
C1370 H1356 0.930 . S
C1370 C1368 1.395 . S
C1370 C1373 1.403 . S
C1371 C1368 1.403 . S
C1371 C1372 1.524 . S
C1371 C1375 1.400 . S
C1372 H1357 0.960 . S
C1372 H1358 0.960 . S
C1372 H1359 0.960 . S
C1372 C1371 1.524 . S
C1373 C1370 1.403 . S
C1373 C1374 1.392 . S
C1373 C1377 1.495 . S
C1374 C1373 1.392 . S
C1374 C1375 1.385 . S
C1374 C1376 1.478 . S
C1375 H1369 0.930 . S
C1375 C1371 1.400 . S
C1375 C1374 1.385 . S
C1376 C1374 1.478 . S
C1376 C1378 1.381 . S
C1376 C1382 1.383 . S
C1377 C1373 1.495 . S
C1377 H1383 0.959 . S
C1377 H1384 0.961 . S
C1377 H1385 0.960 . S
C1378 C1376 1.381 . S
C1378 C1379 1.394 . S
C1378 H1386 0.930 . S
C1379 C1378 1.394 . S
C1379 C1380 1.383 . S
C1379 H1387 0.929 . S
C1380 C1379 1.383 . S
C1380 C1381 1.377 . S
C1381 H1365 0.930 . S
C1381 C1380 1.377 . S
C1381 C1382 1.379 . S
C1382 H1366 0.931 . S
C1382 C1376 1.383 . S
C1382 C1381 1.379 . S
H1383 C1377 0.959 . S
H1384 C1377 0.961 . S
H1385 C1377 0.960 . S
H1386 C1378 0.930 . S
H1387 C1379 0.929 . S
H1388 C1396 0.929 . S
H1389 C1398 0.930 . S
H1390 C1400 0.930 . S
H1391 C1403 0.929 . S
H1392 C1406 0.930 . S
H1393 C1408 0.960 . S
H1394 C1408 0.960 . S
H1395 C1408 0.960 . S
C1396 H1388 0.929 . S
C1396 C1397 1.377 . S
C1396 C1398 1.384 . S
C1397 C1396 1.377 . S
C1397 C1403 1.390 . S
C1398 H1389 0.930 . S
C1398 C1396 1.384 . S
C1398 C1399 1.372 . S
C1399 C1398 1.372 . S
C1399 C1400 1.400 . S
C1399 C1404 1.490 . S
C1400 H1390 0.930 . S
C1400 C1399 1.400 . S
C1400 C1403 1.386 . S
H1401 C1417 0.930 . S
H1402 C1418 0.931 . S
C1403 H1391 0.929 . S
C1403 C1397 1.390 . S
C1403 C1400 1.386 . S
C1404 C1399 1.490 . S
C1404 C1406 1.395 . S
C1404 C1407 1.403 . S
H1405 C1411 0.930 . S
C1406 H1392 0.930 . S
C1406 C1404 1.395 . S
C1406 C1409 1.403 . S
C1407 C1404 1.403 . S
C1407 C1408 1.524 . S
C1407 C1411 1.400 . S
C1408 H1393 0.960 . S
C1408 H1394 0.960 . S
C1408 H1395 0.960 . S
C1408 C1407 1.524 . S
C1409 C1406 1.403 . S
C1409 C1410 1.392 . S
C1409 C1413 1.495 . S
C1410 C1409 1.392 . S
C1410 C1411 1.385 . S
C1410 C1412 1.478 . S
C1411 H1405 0.930 . S
C1411 C1407 1.400 . S
C1411 C1410 1.385 . S
C1412 C1410 1.478 . S
C1412 C1414 1.381 . S
C1412 C1418 1.383 . S
C1413 C1409 1.495 . S
C1413 H1419 0.959 . S
C1413 H1420 0.961 . S
C1413 H1421 0.960 . S
C1414 C1412 1.381 . S
C1414 C1415 1.394 . S
C1414 H1422 0.930 . S
C1415 C1414 1.394 . S
C1415 C1416 1.383 . S
C1415 H1423 0.929 . S
C1416 C1415 1.383 . S
C1416 C1417 1.377 . S
C1417 H1401 0.930 . S
C1417 C1416 1.377 . S
C1417 C1418 1.379 . S
C1418 H1402 0.931 . S
C1418 C1412 1.383 . S
C1418 C1417 1.379 . S
H1419 C1413 0.959 . S
H1420 C1413 0.961 . S
H1421 C1413 0.960 . S
H1422 C1414 0.930 . S
H1423 C1415 0.929 . S
H1424 C1432 0.929 . S
H1425 C1434 0.930 . S
H1426 C1436 0.930 . S
H1427 C1439 0.929 . S
H1428 C1442 0.930 . S
H1429 C1444 0.960 . S
H1430 C1444 0.960 . S
H1431 C1444 0.960 . S
C1432 H1424 0.929 . S
C1432 C1433 1.377 . S
C1432 C1434 1.384 . S
C1433 C1432 1.377 . S
C1433 C1439 1.390 . S
C1434 H1425 0.930 . S
C1434 C1432 1.384 . S
C1434 C1435 1.372 . S
C1435 C1434 1.372 . S
C1435 C1436 1.400 . S
C1435 C1440 1.490 . S
C1436 H1426 0.930 . S
C1436 C1435 1.400 . S
C1436 C1439 1.386 . S
H1437 C1453 0.930 . S
H1438 C1454 0.931 . S
C1439 H1427 0.929 . S
C1439 C1433 1.390 . S
C1439 C1436 1.386 . S
C1440 C1435 1.490 . S
C1440 C1442 1.395 . S
C1440 C1443 1.403 . S
H1441 C1447 0.930 . S
C1442 H1428 0.930 . S
C1442 C1440 1.395 . S
C1442 C1445 1.403 . S
C1443 C1440 1.403 . S
C1443 C1444 1.524 . S
C1443 C1447 1.400 . S
C1444 H1429 0.960 . S
C1444 H1430 0.960 . S
C1444 H1431 0.960 . S
C1444 C1443 1.524 . S
C1445 C1442 1.403 . S
C1445 C1446 1.392 . S
C1445 C1449 1.495 . S
C1446 C1445 1.392 . S
C1446 C1447 1.385 . S
C1446 C1448 1.478 . S
C1447 H1441 0.930 . S
C1447 C1443 1.400 . S
C1447 C1446 1.385 . S
C1448 C1446 1.478 . S
C1448 C1450 1.381 . S
C1448 C1454 1.383 . S
C1449 C1445 1.495 . S
C1449 H1455 0.959 . S
C1449 H1456 0.961 . S
C1449 H1457 0.960 . S
C1450 C1448 1.381 . S
C1450 C1451 1.394 . S
C1450 H1458 0.930 . S
C1451 C1450 1.394 . S
C1451 C1452 1.383 . S
C1451 H1459 0.929 . S
C1452 C1451 1.383 . S
C1452 C1453 1.377 . S
C1453 H1437 0.930 . S
C1453 C1452 1.377 . S
C1453 C1454 1.379 . S
C1454 H1438 0.931 . S
C1454 C1448 1.383 . S
C1454 C1453 1.379 . S
H1455 C1449 0.959 . S
H1456 C1449 0.961 . S
H1457 C1449 0.960 . S
H1458 C1450 0.930 . S
H1459 C1451 0.929 . S
H1460 C1468 0.929 . S
H1461 C1470 0.930 . S
H1462 C1472 0.930 . S
H1463 C1475 0.929 . S
H1464 C1478 0.930 . S
H1465 C1480 0.960 . S
H1466 C1480 0.960 . S
H1467 C1480 0.960 . S
C1468 H1460 0.929 . S
C1468 C1469 1.377 . S
C1468 C1470 1.384 . S
C1469 C1468 1.377 . S
C1469 C1475 1.390 . S
C1470 H1461 0.930 . S
C1470 C1468 1.384 . S
C1470 C1471 1.372 . S
C1471 C1470 1.372 . S
C1471 C1472 1.400 . S
C1471 C1476 1.490 . S
C1472 H1462 0.930 . S
C1472 C1471 1.400 . S
C1472 C1475 1.386 . S
H1473 C1489 0.930 . S
H1474 C1490 0.931 . S
C1475 H1463 0.929 . S
C1475 C1469 1.390 . S
C1475 C1472 1.386 . S
C1476 C1471 1.490 . S
C1476 C1478 1.395 . S
C1476 C1479 1.403 . S
H1477 C1483 0.930 . S
C1478 H1464 0.930 . S
C1478 C1476 1.395 . S
C1478 C1481 1.403 . S
C1479 C1476 1.403 . S
C1479 C1480 1.524 . S
C1479 C1483 1.400 . S
C1480 H1465 0.960 . S
C1480 H1466 0.960 . S
C1480 H1467 0.960 . S
C1480 C1479 1.524 . S
C1481 C1478 1.403 . S
C1481 C1482 1.392 . S
C1481 C1485 1.495 . S
C1482 C1481 1.392 . S
C1482 C1483 1.385 . S
C1482 C1484 1.478 1_554 S
C1483 H1477 0.930 . S
C1483 C1479 1.400 . S
C1483 C1482 1.385 . S
C1484 C1482 1.478 1_556 S
C1484 C1486 1.381 . S
C1484 C1490 1.383 . S
C1485 C1481 1.495 . S
C1485 H1491 0.959 . S
C1485 H1492 0.961 . S
C1485 H1493 0.960 . S
C1486 C1484 1.381 . S
C1486 C1487 1.394 . S
C1486 H1494 0.930 . S
C1487 C1486 1.394 . S
C1487 C1488 1.383 . S
C1487 H1495 0.929 . S
C1488 C1487 1.383 . S
C1488 C1489 1.377 . S
C1489 H1473 0.930 . S
C1489 C1488 1.377 . S
C1489 C1490 1.379 . S
C1490 H1474 0.931 . S
C1490 C1484 1.383 . S
C1490 C1489 1.379 . S
H1491 C1485 0.959 . S
H1492 C1485 0.961 . S
H1493 C1485 0.960 . S
H1494 C1486 0.930 . S
H1495 C1487 0.929 . S
H1496 C1504 0.929 . S
H1497 C1506 0.930 . S
H1498 C1508 0.930 . S
H1499 C1511 0.929 . S
H1500 C1514 0.930 . S
H1501 C1516 0.960 . S
H1502 C1516 0.960 . S
H1503 C1516 0.960 . S
C1504 H1496 0.929 . S
C1504 C1505 1.377 . S
C1504 C1506 1.384 . S
C1505 C1504 1.377 . S
C1505 C1511 1.390 . S
C1506 H1497 0.930 . S
C1506 C1504 1.384 . S
C1506 C1507 1.372 . S
C1507 C1506 1.372 . S
C1507 C1508 1.400 . S
C1507 C1512 1.490 . S
C1508 H1498 0.930 . S
C1508 C1507 1.400 . S
C1508 C1511 1.386 . S
H1509 C1525 0.930 . S
H1510 C1526 0.931 . S
C1511 H1499 0.929 . S
C1511 C1505 1.390 . S
C1511 C1508 1.386 . S
C1512 C1507 1.490 . S
C1512 C1514 1.395 . S
C1512 C1515 1.403 . S
H1513 C1519 0.930 . S
C1514 H1500 0.930 . S
C1514 C1512 1.395 . S
C1514 C1517 1.403 . S
C1515 C1512 1.403 . S
C1515 C1516 1.524 . S
C1515 C1519 1.400 . S
C1516 H1501 0.960 . S
C1516 H1502 0.960 . S
C1516 H1503 0.960 . S
C1516 C1515 1.524 . S
C1517 C1514 1.403 . S
C1517 C1518 1.392 . S
C1517 C1521 1.495 . S
C1518 C1517 1.392 . S
C1518 C1519 1.385 . S
C1518 C1520 1.478 . S
C1519 H1513 0.930 . S
C1519 C1515 1.400 . S
C1519 C1518 1.385 . S
C1520 C1518 1.478 . S
C1520 C1522 1.381 . S
C1520 C1526 1.383 . S
C1521 C1517 1.495 . S
C1521 H1527 0.959 . S
C1521 H1528 0.961 . S
C1521 H1529 0.960 . S
C1522 C1520 1.381 . S
C1522 C1523 1.394 . S
C1522 H1530 0.930 . S
C1523 C1522 1.394 . S
C1523 C1524 1.383 . S
C1523 H1531 0.929 . S
C1524 C1523 1.383 . S
C1524 C1525 1.377 . S
C1525 H1509 0.930 . S
C1525 C1524 1.377 . S
C1525 C1526 1.379 . S
C1526 H1510 0.931 . S
C1526 C1520 1.383 . S
C1526 C1525 1.379 . S
H1527 C1521 0.959 . S
H1528 C1521 0.961 . S
H1529 C1521 0.960 . S
H1530 C1522 0.930 . S
H1531 C1523 0.929 . S
H1532 C1540 0.929 . S
H1533 C1542 0.949 . S
H1534 C1544 0.930 . S
H1535 C1547 0.929 . S
H1536 C1550 0.930 . S
H1537 C1552 0.960 . S
H1538 C1552 0.960 . S
H1539 C1552 0.960 . S
C1540 H1532 0.929 . S
C1540 C1541 1.377 . S
C1540 C1542 1.384 . S
C1541 C1540 1.377 . S
C1541 C1547 1.390 . S
C1542 H1533 0.949 . S
C1542 C1540 1.384 . S
C1542 C1543 1.372 . S
C1543 C1542 1.372 . S
C1543 C1544 1.400 . S
C1543 C1548 1.490 . S
C1544 H1534 0.930 . S
C1544 C1543 1.400 . S
C1544 C1547 1.386 . S
H1545 C1561 0.930 . S
H1546 C1562 0.931 1_655 S
C1547 H1535 0.929 . S
C1547 C1541 1.390 . S
C1547 C1544 1.386 . S
C1548 C1543 1.490 . S
C1548 C1550 1.395 . S
C1548 C1551 1.403 1_655 S
H1549 C1555 0.930 . S
C1550 H1536 0.930 . S
C1550 C1548 1.395 . S
C1550 C1553 1.403 . S
C1551 C1548 1.403 1_455 S
C1551 C1552 1.524 . S
C1551 C1555 1.400 . S
C1552 H1537 0.960 . S
C1552 H1538 0.960 . S
C1552 H1539 0.960 . S
C1552 C1551 1.524 . S
C1553 C1550 1.403 . S
C1553 C1554 1.392 1_655 S
C1553 C1557 1.495 . S
C1554 C1553 1.392 1_455 S
C1554 C1555 1.385 . S
C1554 C1556 1.478 . S
C1555 H1549 0.930 . S
C1555 C1551 1.400 . S
C1555 C1554 1.385 . S
C1556 C1554 1.478 . S
C1556 C1558 1.381 . S
C1556 C1562 1.383 . S
C1557 C1553 1.495 . S
C1557 H1563 0.959 . S
C1557 H1564 0.961 . S
C1557 H1565 0.960 . S
C1558 C1556 1.381 . S
C1558 C1559 1.394 . S
C1558 H1566 0.930 . S
C1559 C1558 1.394 . S
C1559 C1560 1.383 . S
C1559 H1567 0.929 . S
C1560 C1559 1.383 . S
C1560 C1561 1.377 . S
C1561 H1545 0.930 . S
C1561 C1560 1.377 . S
C1561 C1562 1.379 . S
C1562 H1546 0.931 1_455 S
C1562 C1556 1.383 . S
C1562 C1561 1.379 . S
H1563 C1557 0.959 . S
H1564 C1557 0.961 . S
H1565 C1557 0.960 . S
H1566 C1558 0.930 . S
H1567 C1559 0.929 . S
H1568 C1576 0.929 . S
H1569 C1578 0.930 . S
H1570 C1580 0.930 . S
H1571 C1583 0.929 . S
H1572 C1586 0.930 . S
H1573 C1588 0.960 . S
H1574 C1588 0.960 . S
H1575 C1588 0.960 . S
C1576 H1568 0.929 . S
C1576 C1577 1.377 . S
C1576 C1578 1.384 . S
C1577 C1576 1.377 . S
C1577 C1583 1.390 . S
C1578 H1569 0.930 . S
C1578 C1576 1.384 . S
C1578 C1579 1.372 . S
C1579 C1578 1.372 . S
C1579 C1580 1.400 . S
C1579 C1584 1.490 . S
C1580 H1570 0.930 . S
C1580 C1579 1.400 . S
C1580 C1583 1.386 . S
H1581 C1597 0.930 . S
H1582 C1598 0.931 . S
C1583 H1571 0.929 . S
C1583 C1577 1.390 . S
C1583 C1580 1.386 . S
C1584 C1579 1.490 . S
C1584 C1586 1.395 . S
C1584 C1587 1.403 . S
H1585 C1591 0.930 . S
C1586 H1572 0.930 . S
C1586 C1584 1.395 . S
C1586 C1589 1.403 . S
C1587 C1584 1.403 . S
C1587 C1588 1.524 . S
C1587 C1591 1.400 . S
C1588 H1573 0.960 . S
C1588 H1574 0.960 . S
C1588 H1575 0.960 . S
C1588 C1587 1.524 . S
C1589 C1586 1.403 . S
C1589 C1590 1.392 . S
C1589 C1593 1.495 . S
C1590 C1589 1.392 . S
C1590 C1591 1.385 . S
C1590 C1592 1.478 . S
C1591 H1585 0.930 . S
C1591 C1587 1.400 . S
C1591 C1590 1.385 . S
C1592 C1590 1.478 . S
C1592 C1594 1.381 . S
C1592 C1598 1.383 . S
C1593 C1589 1.495 . S
C1593 H1599 0.959 . S
C1593 H1600 0.961 . S
C1593 H1601 0.960 . S
C1594 C1592 1.381 . S
C1594 C1595 1.394 . S
C1594 H1602 0.930 . S
C1595 C1594 1.394 . S
C1595 C1596 1.383 . S
C1595 H1603 0.929 . S
C1596 C1595 1.383 . S
C1596 C1597 1.377 . S
C1597 H1581 0.930 . S
C1597 C1596 1.377 . S
C1597 C1598 1.379 . S
C1598 H1582 0.931 . S
C1598 C1592 1.383 . S
C1598 C1597 1.379 . S
H1599 C1593 0.959 . S
H1600 C1593 0.961 . S
H1601 C1593 0.960 . S
H1602 C1594 0.930 . S
H1603 C1595 0.929 . S
H1604 C1612 0.929 . S
H1605 C1614 0.930 . S
H1606 C1616 0.930 . S
H1607 C1619 0.929 . S
H1608 C1622 0.930 . S
H1609 C1624 0.960 . S
H1610 C1624 0.960 . S
H1611 C1624 0.960 . S
C1612 H1604 0.929 . S
C1612 C1613 1.377 . S
C1612 C1614 1.384 . S
C1613 C1612 1.377 . S
C1613 C1619 1.390 . S
C1614 H1605 0.930 . S
C1614 C1612 1.384 . S
C1614 C1615 1.372 . S
C1615 C1614 1.372 . S
C1615 C1616 1.400 . S
C1615 C1620 1.490 . S
C1616 H1606 0.930 . S
C1616 C1615 1.400 . S
C1616 C1619 1.386 . S
H1617 C1633 0.930 . S
H1618 C1634 0.931 . S
C1619 H1607 0.929 . S
C1619 C1613 1.390 . S
C1619 C1616 1.386 . S
C1620 C1615 1.490 . S
C1620 C1622 1.395 . S
C1620 C1623 1.403 . S
H1621 C1627 0.930 . S
C1622 H1608 0.930 . S
C1622 C1620 1.395 . S
C1622 C1625 1.403 . S
C1623 C1620 1.403 . S
C1623 C1624 1.524 . S
C1623 C1627 1.400 . S
C1624 H1609 0.960 . S
C1624 H1610 0.960 . S
C1624 H1611 0.960 . S
C1624 C1623 1.524 . S
C1625 C1622 1.403 . S
C1625 C1626 1.392 . S
C1625 C1629 1.495 . S
C1626 C1625 1.392 . S
C1626 C1627 1.385 . S
C1626 C1628 1.478 . S
C1627 H1621 0.930 . S
C1627 C1623 1.400 . S
C1627 C1626 1.385 . S
C1628 C1626 1.478 . S
C1628 C1630 1.381 . S
C1628 C1634 1.383 . S
C1629 C1625 1.495 . S
C1629 H1635 0.959 . S
C1629 H1636 0.961 . S
C1629 H1637 0.960 . S
C1630 C1628 1.381 . S
C1630 C1631 1.394 . S
C1630 H1638 0.930 . S
C1631 C1630 1.394 . S
C1631 C1632 1.383 . S
C1631 H1639 0.929 . S
C1632 C1631 1.383 . S
C1632 C1633 1.377 . S
C1633 H1617 0.930 . S
C1633 C1632 1.377 . S
C1633 C1634 1.379 . S
C1634 H1618 0.931 . S
C1634 C1628 1.383 . S
C1634 C1633 1.379 . S
H1635 C1629 0.959 . S
H1636 C1629 0.961 . S
H1637 C1629 0.960 . S
H1638 C1630 0.930 . S
H1639 C1631 0.929 . S
H1640 C1648 0.929 . S
H1641 C1650 0.930 . S
H1642 C1652 0.930 . S
H1643 C1655 0.929 . S
H1644 C1658 0.930 . S
H1645 C1660 0.960 . S
H1646 C1660 0.960 . S
H1647 C1660 0.960 . S
C1648 H1640 0.929 . S
C1648 C1649 1.377 . S
C1648 C1650 1.384 . S
C1649 C1648 1.377 . S
C1649 C1655 1.390 . S
C1650 H1641 0.930 . S
C1650 C1648 1.384 . S
C1650 C1651 1.372 . S
C1651 C1650 1.372 . S
C1651 C1652 1.400 . S
C1651 C1656 1.490 . S
C1652 H1642 0.930 . S
C1652 C1651 1.400 . S
C1652 C1655 1.386 . S
H1653 C1669 0.930 . S
H1654 C1670 0.931 . S
C1655 H1643 0.929 . S
C1655 C1649 1.390 . S
C1655 C1652 1.386 . S
C1656 C1651 1.490 . S
C1656 C1658 1.395 . S
C1656 C1659 1.403 . S
H1657 C1663 0.930 . S
C1658 H1644 0.930 . S
C1658 C1656 1.395 . S
C1658 C1661 1.403 . S
C1659 C1656 1.403 . S
C1659 C1660 1.524 . S
C1659 C1663 1.400 . S
C1660 H1645 0.960 . S
C1660 H1646 0.960 . S
C1660 H1647 0.960 . S
C1660 C1659 1.524 . S
C1661 C1658 1.403 . S
C1661 C1662 1.392 . S
C1661 C1665 1.495 . S
C1662 C1661 1.392 . S
C1662 C1663 1.385 . S
C1662 C1664 1.478 . S
C1663 H1657 0.930 . S
C1663 C1659 1.400 . S
C1663 C1662 1.385 . S
C1664 C1662 1.478 . S
C1664 C1666 1.381 . S
C1664 C1670 1.383 . S
C1665 C1661 1.495 . S
C1665 H1671 0.959 . S
C1665 H1672 0.961 . S
C1665 H1673 0.960 . S
C1666 C1664 1.381 . S
C1666 C1667 1.394 . S
C1666 H1674 0.930 . S
C1667 C1666 1.394 . S
C1667 C1668 1.383 . S
C1667 H1675 0.929 . S
C1668 C1667 1.383 . S
C1668 C1669 1.377 . S
C1669 H1653 0.930 . S
C1669 C1668 1.377 . S
C1669 C1670 1.379 . S
C1670 H1654 0.931 . S
C1670 C1664 1.383 . S
C1670 C1669 1.379 . S
H1671 C1665 0.959 . S
H1672 C1665 0.961 . S
H1673 C1665 0.960 . S
H1674 C1666 0.930 . S
H1675 C1667 0.929 . S
H1676 C1684 0.929 . S
H1677 C1686 0.930 . S
H1678 C1688 0.930 1_655 S
H1679 C1691 0.929 . S
H1680 C1694 0.930 1_655 S
H1681 C1696 0.960 . S
H1682 C1696 0.960 . S
H1683 C1696 0.960 . S
C1684 H1676 0.929 . S
C1684 C1685 1.377 . S
C1684 C1686 1.384 . S
C1685 C1684 1.377 . S
C1685 C1691 1.390 . S
C1686 H1677 0.930 . S
C1686 C1684 1.384 . S
C1686 C1687 1.372 . S
C1687 C1686 1.372 . S
C1687 C1688 1.400 . S
C1687 C1692 1.490 . S
C1688 H1678 0.930 1_455 S
C1688 C1687 1.400 . S
C1688 C1691 1.386 . S
H1689 C1705 0.930 . S
H1690 C1706 0.931 . S
C1691 H1679 0.929 . S
C1691 C1685 1.390 . S
C1691 C1688 1.386 . S
C1692 C1687 1.490 . S
C1692 C1694 1.393 . S
C1692 C1695 1.403 . S
H1693 C1699 0.930 . S
C1694 H1680 0.930 1_455 S
C1694 C1692 1.393 . S
C1694 C1697 1.405 1_455 S
C1695 C1692 1.403 . S
C1695 C1696 1.524 . S
C1695 C1699 1.411 . S
C1696 H1681 0.960 . S
C1696 H1682 0.960 . S
C1696 H1683 0.960 . S
C1696 C1695 1.524 . S
C1697 C1694 1.405 1_655 S
C1697 C1698 1.392 . S
C1697 C1701 1.495 . S
C1698 C1697 1.392 . S
C1698 C1699 1.375 1_655 S
C1698 C1700 1.478 1_554 S
C1699 H1693 0.930 . S
C1699 C1695 1.411 . S
C1699 C1698 1.375 1_455 S
C1700 C1698 1.478 1_556 S
C1700 C1702 1.381 . S
C1700 C1706 1.383 . S
C1701 C1697 1.495 . S
C1701 H1707 0.959 . S
C1701 H1708 0.961 . S
C1701 H1709 0.960 . S
C1702 C1700 1.381 . S
C1702 C1703 1.394 . S
C1702 H1710 0.930 1_655 S
C1703 C1702 1.394 . S
C1703 C1704 1.383 . S
C1703 H1711 0.935 . S
C1704 C1703 1.383 . S
C1704 C1705 1.377 . S
C1705 H1689 0.930 . S
C1705 C1704 1.377 . S
C1705 C1706 1.379 . S
C1706 H1690 0.931 . S
C1706 C1700 1.383 . S
C1706 C1705 1.379 . S
H1707 C1701 0.959 . S
H1708 C1701 0.961 . S
H1709 C1701 0.960 . S
H1710 C1702 0.930 1_455 S
H1711 C1703 0.935 . S
H1712 C1720 0.929 . S
H1713 C1722 0.930 . S
H1714 C1724 0.930 . S
H1715 C1727 0.929 . S
H1716 C1730 0.930 . S
H1717 C1732 0.960 . S
H1718 C1732 0.960 . S
H1719 C1732 0.960 . S
C1720 H1712 0.929 . S
C1720 C1721 1.377 . S
C1720 C1722 1.384 . S
C1721 C1720 1.377 . S
C1721 C1727 1.390 . S
C1722 H1713 0.930 . S
C1722 C1720 1.384 . S
C1722 C1723 1.372 . S
C1723 C1722 1.372 . S
C1723 C1724 1.400 . S
C1723 C1728 1.490 . S
C1724 H1714 0.930 . S
C1724 C1723 1.400 . S
C1724 C1727 1.386 . S
H1725 C1741 0.930 . S
H1726 C1742 0.931 . S
C1727 H1715 0.929 . S
C1727 C1721 1.390 . S
C1727 C1724 1.386 . S
C1728 C1723 1.490 . S
C1728 C1730 1.395 . S
C1728 C1731 1.403 . S
H1729 C1735 0.930 . S
C1730 H1716 0.930 . S
C1730 C1728 1.395 . S
C1730 C1733 1.403 . S
C1731 C1728 1.403 . S
C1731 C1732 1.524 . S
C1731 C1735 1.400 . S
C1732 H1717 0.960 . S
C1732 H1718 0.960 . S
C1732 H1719 0.960 . S
C1732 C1731 1.524 . S
C1733 C1730 1.403 . S
C1733 C1734 1.392 . S
C1733 C1737 1.495 . S
C1734 C1733 1.392 . S
C1734 C1735 1.385 . S
C1734 C1736 1.478 . S
C1735 H1729 0.930 . S
C1735 C1731 1.400 . S
C1735 C1734 1.385 . S
C1736 C1734 1.478 . S
C1736 C1738 1.381 . S
C1736 C1742 1.383 . S
C1737 C1733 1.495 . S
C1737 H1743 0.959 . S
C1737 H1744 0.961 . S
C1737 H1745 0.960 . S
C1738 C1736 1.381 . S
C1738 C1739 1.394 . S
C1738 H1746 0.930 . S
C1739 C1738 1.394 . S
C1739 C1740 1.383 . S
C1739 H1747 0.929 . S
C1740 C1739 1.383 . S
C1740 C1741 1.377 . S
C1741 H1725 0.930 . S
C1741 C1740 1.377 . S
C1741 C1742 1.379 . S
C1742 H1726 0.931 . S
C1742 C1736 1.383 . S
C1742 C1741 1.379 . S
H1743 C1737 0.959 . S
H1744 C1737 0.961 . S
H1745 C1737 0.960 . S
H1746 C1738 0.930 . S
H1747 C1739 0.929 . S
H1748 C1756 0.929 . S
H1749 C1758 0.930 . S
H1750 C1760 0.930 . S
H1751 C1763 0.929 . S
H1752 C1766 0.930 . S
H1753 C1768 0.960 . S
H1754 C1768 0.960 . S
H1755 C1768 0.960 . S
C1756 H1748 0.929 . S
C1756 C1757 1.377 . S
C1756 C1758 1.384 . S
C1757 C1756 1.377 . S
C1757 C1763 1.390 . S
C1758 H1749 0.930 . S
C1758 C1756 1.384 . S
C1758 C1759 1.372 . S
C1759 C1758 1.372 . S
C1759 C1760 1.400 . S
C1759 C1764 1.490 . S
C1760 H1750 0.930 . S
C1760 C1759 1.400 . S
C1760 C1763 1.386 . S
H1761 C1777 0.930 . S
H1762 C1778 0.931 . S
C1763 H1751 0.929 . S
C1763 C1757 1.390 . S
C1763 C1760 1.386 . S
C1764 C1759 1.490 . S
C1764 C1766 1.395 . S
C1764 C1767 1.403 1_655 S
H1765 C1771 0.930 . S
C1766 H1752 0.930 . S
C1766 C1764 1.395 . S
C1766 C1769 1.403 . S
C1767 C1764 1.403 1_455 S
C1767 C1768 1.524 . S
C1767 C1771 1.400 . S
C1768 H1753 0.960 . S
C1768 H1754 0.960 . S
C1768 H1755 0.960 . S
C1768 C1767 1.524 . S
C1769 C1766 1.403 . S
C1769 C1770 1.392 1_655 S
C1769 C1773 1.495 . S
C1770 C1769 1.392 1_455 S
C1770 C1771 1.385 . S
C1770 C1772 1.478 . S
C1771 H1765 0.930 . S
C1771 C1767 1.400 . S
C1771 C1770 1.385 . S
C1772 C1770 1.478 . S
C1772 C1774 1.381 . S
C1772 C1778 1.383 . S
C1773 C1769 1.495 . S
C1773 H1779 0.959 . S
C1773 H1780 0.961 . S
C1773 H1781 0.960 . S
C1774 C1772 1.381 . S
C1774 C1775 1.394 . S
C1774 H1782 0.930 . S
C1775 C1774 1.394 . S
C1775 C1776 1.383 . S
C1775 H1783 0.929 . S
C1776 C1775 1.383 . S
C1776 C1777 1.377 . S
C1777 H1761 0.930 . S
C1777 C1776 1.377 . S
C1777 C1778 1.379 . S
C1778 H1762 0.931 . S
C1778 C1772 1.383 . S
C1778 C1777 1.379 . S
H1779 C1773 0.959 . S
H1780 C1773 0.961 . S
H1781 C1773 0.960 . S
H1782 C1774 0.930 . S
H1783 C1775 0.929 . S
H1784 C1792 0.929 . S
H1785 C1794 0.930 . S
H1786 C1796 0.930 . S
H1787 C1799 0.929 . S
H1788 C1802 0.930 . S
H1789 C1804 0.960 . S
H1790 C1804 0.960 . S
H1791 C1804 0.960 . S
C1792 H1784 0.929 . S
C1792 C1793 1.377 . S
C1792 C1794 1.384 . S
C1793 C1792 1.377 . S
C1793 C1799 1.390 . S
C1794 H1785 0.930 . S
C1794 C1792 1.384 . S
C1794 C1795 1.372 . S
C1795 C1794 1.372 . S
C1795 C1796 1.400 . S
C1795 C1800 1.490 . S
C1796 H1786 0.930 . S
C1796 C1795 1.400 . S
C1796 C1799 1.386 . S
H1797 C1813 0.930 . S
H1798 C1814 0.931 . S
C1799 H1787 0.929 . S
C1799 C1793 1.390 . S
C1799 C1796 1.386 . S
C1800 C1795 1.490 . S
C1800 C1802 1.395 . S
C1800 C1803 1.403 . S
H1801 C1807 0.930 . S
C1802 H1788 0.930 . S
C1802 C1800 1.395 . S
C1802 C1805 1.403 . S
C1803 C1800 1.403 . S
C1803 C1804 1.524 . S
C1803 C1807 1.400 . S
C1804 H1789 0.960 . S
C1804 H1790 0.960 . S
C1804 H1791 0.960 . S
C1804 C1803 1.524 . S
C1805 C1802 1.403 . S
C1805 C1806 1.392 . S
C1805 C1809 1.495 . S
C1806 C1805 1.392 . S
C1806 C1807 1.385 . S
C1806 C1808 1.478 . S
C1807 H1801 0.930 . S
C1807 C1803 1.400 . S
C1807 C1806 1.385 . S
C1808 C1806 1.478 . S
C1808 C1810 1.381 . S
C1808 C1814 1.383 . S
C1809 C1805 1.495 . S
C1809 H1815 0.959 . S
C1809 H1816 0.961 . S
C1809 H1817 0.960 . S
C1810 C1808 1.381 . S
C1810 C1811 1.394 . S
C1810 H1818 0.930 . S
C1811 C1810 1.394 . S
C1811 C1812 1.383 . S
C1811 H1819 0.929 . S
C1812 C1811 1.383 . S
C1812 C1813 1.377 . S
C1813 H1797 0.930 . S
C1813 C1812 1.377 . S
C1813 C1814 1.379 . S
C1814 H1798 0.931 . S
C1814 C1808 1.383 . S
C1814 C1813 1.379 . S
H1815 C1809 0.959 . S
H1816 C1809 0.961 . S
H1817 C1809 0.960 . S
H1818 C1810 0.930 . S
H1819 C1811 0.929 . S
H1820 C1828 0.929 . S
H1821 C1830 0.930 . S
H1822 C1832 0.930 . S
H1823 C1835 0.929 . S
H1824 C1838 0.930 . S
H1825 C1840 0.960 . S
H1826 C1840 0.960 . S
H1827 C1840 0.960 . S
C1828 H1820 0.929 . S
C1828 C1829 1.377 . S
C1828 C1830 1.384 . S
C1829 C1828 1.377 . S
C1829 C1835 1.390 . S
C1830 H1821 0.930 . S
C1830 C1828 1.384 . S
C1830 C1831 1.372 . S
C1831 C1830 1.372 . S
C1831 C1832 1.400 . S
C1831 C1836 1.490 1_554 S
C1832 H1822 0.930 . S
C1832 C1831 1.400 . S
C1832 C1835 1.386 . S
H1833 C1849 0.930 . S
H1834 C1850 0.931 . S
C1835 H1823 0.929 . S
C1835 C1829 1.390 . S
C1835 C1832 1.386 . S
C1836 C1831 1.490 1_556 S
C1836 C1838 1.395 . S
C1836 C1839 1.403 . S
H1837 C1843 0.930 . S
C1838 H1824 0.930 . S
C1838 C1836 1.395 . S
C1838 C1841 1.403 . S
C1839 C1836 1.403 . S
C1839 C1840 1.524 . S
C1839 C1843 1.400 . S
C1840 H1825 0.960 . S
C1840 H1826 0.960 . S
C1840 H1827 0.960 . S
C1840 C1839 1.524 . S
C1841 C1838 1.403 . S
C1841 C1842 1.392 . S
C1841 C1845 1.495 . S
C1842 C1841 1.392 . S
C1842 C1843 1.385 . S
C1842 C1844 1.478 . S
C1843 H1837 0.930 . S
C1843 C1839 1.400 . S
C1843 C1842 1.385 . S
C1844 C1842 1.478 . S
C1844 C1846 1.381 . S
C1844 C1850 1.383 . S
C1845 C1841 1.495 . S
C1845 H1851 0.959 . S
C1845 H1852 0.961 . S
C1845 H1853 0.960 . S
C1846 C1844 1.381 . S
C1846 C1847 1.394 . S
C1846 H1854 0.930 . S
C1847 C1846 1.394 . S
C1847 C1848 1.383 . S
C1847 H1855 0.929 . S
C1848 C1847 1.383 . S
C1848 C1849 1.377 . S
C1849 H1833 0.930 . S
C1849 C1848 1.377 . S
C1849 C1850 1.379 . S
C1850 H1834 0.931 . S
C1850 C1844 1.383 . S
C1850 C1849 1.379 . S
H1851 C1845 0.959 . S
H1852 C1845 0.961 . S
H1853 C1845 0.960 . S
H1854 C1846 0.930 . S
H1855 C1847 0.929 . S
H1856 C1864 0.929 . S
H1857 C1866 0.930 . S
H1858 C1868 0.930 . S
H1859 C1871 0.929 . S
H1860 C1874 0.930 . S
H1861 C1876 0.960 . S
H1862 C1876 0.960 . S
H1863 C1876 0.960 . S
C1864 H1856 0.929 . S
C1864 C1865 1.377 . S
C1864 C1866 1.384 . S
C1865 C1864 1.377 . S
C1865 C1871 1.390 . S
C1866 H1857 0.930 . S
C1866 C1864 1.384 . S
C1866 C1867 1.372 . S
C1867 C1866 1.372 . S
C1867 C1868 1.400 . S
C1867 C1872 1.490 . S
C1868 H1858 0.930 . S
C1868 C1867 1.400 . S
C1868 C1871 1.386 . S
H1869 C1885 0.930 . S
H1870 C1886 0.931 . S
C1871 H1859 0.929 . S
C1871 C1865 1.390 . S
C1871 C1868 1.386 . S
C1872 C1867 1.490 . S
C1872 C1874 1.395 . S
C1872 C1875 1.403 . S
H1873 C1879 0.930 . S
C1874 H1860 0.930 . S
C1874 C1872 1.395 . S
C1874 C1877 1.403 . S
C1875 C1872 1.403 . S
C1875 C1876 1.524 . S
C1875 C1879 1.400 . S
C1876 H1861 0.960 . S
C1876 H1862 0.960 . S
C1876 H1863 0.960 . S
C1876 C1875 1.524 . S
C1877 C1874 1.403 . S
C1877 C1878 1.392 . S
C1877 C1881 1.495 . S
C1878 C1877 1.392 . S
C1878 C1879 1.385 . S
C1878 C1880 1.478 . S
C1879 H1873 0.930 . S
C1879 C1875 1.400 . S
C1879 C1878 1.385 . S
C1880 C1878 1.478 . S
C1880 C1882 1.381 . S
C1880 C1886 1.383 . S
C1881 C1877 1.495 . S
C1881 H1887 0.959 . S
C1881 H1888 0.961 . S
C1881 H1889 0.960 . S
C1882 C1880 1.381 . S
C1882 C1883 1.394 . S
C1882 H1890 0.930 . S
C1883 C1882 1.394 . S
C1883 C1884 1.383 . S
C1883 H1891 0.929 . S
C1884 C1883 1.383 . S
C1884 C1885 1.377 . S
C1885 H1869 0.930 . S
C1885 C1884 1.377 . S
C1885 C1886 1.379 . S
C1886 H1870 0.931 . S
C1886 C1880 1.383 . S
C1886 C1885 1.379 . S
H1887 C1881 0.959 . S
H1888 C1881 0.961 . S
H1889 C1881 0.960 . S
H1890 C1882 0.930 . S
H1891 C1883 0.929 . S
H1892 C1900 0.929 . S
H1893 C1902 0.930 . S
H1894 C1904 0.930 . S
H1895 C1907 0.929 . S
H1896 C1910 0.930 . S
H1897 C1912 0.960 . S
H1898 C1912 0.960 . S
H1899 C1912 0.960 . S
C1900 H1892 0.929 . S
C1900 C1901 1.377 . S
C1900 C1902 1.384 . S
C1901 C1900 1.377 . S
C1901 C1907 1.390 . S
C1902 H1893 0.930 . S
C1902 C1900 1.384 . S
C1902 C1903 1.372 . S
C1903 C1902 1.372 . S
C1903 C1904 1.400 . S
C1903 C1908 1.490 . S
C1904 H1894 0.930 . S
C1904 C1903 1.400 . S
C1904 C1907 1.386 . S
H1905 C1921 0.930 . S
H1906 C1922 0.931 . S
C1907 H1895 0.929 . S
C1907 C1901 1.390 . S
C1907 C1904 1.386 . S
C1908 C1903 1.490 . S
C1908 C1910 1.395 . S
C1908 C1911 1.403 . S
H1909 C1915 0.930 . S
C1910 H1896 0.930 . S
C1910 C1908 1.395 . S
C1910 C1913 1.403 . S
C1911 C1908 1.403 . S
C1911 C1912 1.524 . S
C1911 C1915 1.400 . S
C1912 H1897 0.960 . S
C1912 H1898 0.960 . S
C1912 H1899 0.960 . S
C1912 C1911 1.524 . S
C1913 C1910 1.403 . S
C1913 C1914 1.392 . S
C1913 C1917 1.495 . S
C1914 C1913 1.392 . S
C1914 C1915 1.385 . S
C1914 C1916 1.478 . S
C1915 H1909 0.930 . S
C1915 C1911 1.400 . S
C1915 C1914 1.385 . S
C1916 C1914 1.478 . S
C1916 C1918 1.381 . S
C1916 C1922 1.383 . S
C1917 C1913 1.495 . S
C1917 H1923 0.959 . S
C1917 H1924 0.961 . S
C1917 H1925 0.960 . S
C1918 C1916 1.381 . S
C1918 C1919 1.394 . S
C1918 H1926 0.930 . S
C1919 C1918 1.394 . S
C1919 C1920 1.383 . S
C1919 H1927 0.929 . S
C1920 C1919 1.383 . S
C1920 C1921 1.377 . S
C1921 H1905 0.930 . S
C1921 C1920 1.377 . S
C1921 C1922 1.379 . S
C1922 H1906 0.931 . S
C1922 C1916 1.383 . S
C1922 C1921 1.379 . S
H1923 C1917 0.959 . S
H1924 C1917 0.961 . S
H1925 C1917 0.960 . S
H1926 C1918 0.930 . S
H1927 C1919 0.929 . S
H1928 C1936 0.929 . S
H1929 C1938 0.930 . S
H1930 C1940 0.930 . S
H1931 C1943 0.929 . S
H1932 C1946 0.930 . S
H1933 C1948 0.960 . S
H1934 C1948 0.960 . S
H1935 C1948 0.960 . S
C1936 H1928 0.929 . S
C1936 C1937 1.377 . S
C1936 C1938 1.384 . S
C1937 C1936 1.377 . S
C1937 C1943 1.390 . S
C1938 H1929 0.930 . S
C1938 C1936 1.384 . S
C1938 C1939 1.372 . S
C1939 C1938 1.372 . S
C1939 C1940 1.400 . S
C1939 C1944 1.490 . S
C1940 H1930 0.930 . S
C1940 C1939 1.400 . S
C1940 C1943 1.386 . S
H1941 C1957 0.930 . S
H1942 C1958 0.931 . S
C1943 H1931 0.929 . S
C1943 C1937 1.390 . S
C1943 C1940 1.386 . S
C1944 C1939 1.490 . S
C1944 C1946 1.395 . S
C1944 C1947 1.403 . S
H1945 C1951 0.930 . S
C1946 H1932 0.930 . S
C1946 C1944 1.395 . S
C1946 C1949 1.403 . S
C1947 C1944 1.403 . S
C1947 C1948 1.524 . S
C1947 C1951 1.400 . S
C1948 H1933 0.960 . S
C1948 H1934 0.960 . S
C1948 H1935 0.960 . S
C1948 C1947 1.524 . S
C1949 C1946 1.403 . S
C1949 C1950 1.392 . S
C1949 C1953 1.495 . S
C1950 C1949 1.392 . S
C1950 C1951 1.385 . S
C1950 C1952 1.478 . S
C1951 H1945 0.930 . S
C1951 C1947 1.400 . S
C1951 C1950 1.385 . S
C1952 C1950 1.478 . S
C1952 C1954 1.381 . S
C1952 C1958 1.383 . S
C1953 C1949 1.495 . S
C1953 H1959 0.959 . S
C1953 H1960 0.961 . S
C1953 H1961 0.960 . S
C1954 C1952 1.381 . S
C1954 C1955 1.394 . S
C1954 H1962 0.930 . S
C1955 C1954 1.394 . S
C1955 C1956 1.383 . S
C1955 H1963 0.929 . S
C1956 C1955 1.383 . S
C1956 C1957 1.377 . S
C1957 H1941 0.930 . S
C1957 C1956 1.377 . S
C1957 C1958 1.379 . S
C1958 H1942 0.931 . S
C1958 C1952 1.383 . S
C1958 C1957 1.379 . S
H1959 C1953 0.959 . S
H1960 C1953 0.961 . S
H1961 C1953 0.960 . S
H1962 C1954 0.930 . S
H1963 C1955 0.929 . S
H1964 C1972 0.929 1_455 S
H1965 C1974 0.930 . S
H1966 C1976 0.930 . S
H1967 C1979 0.929 . S
H1968 C1982 0.930 . S
H1969 C1984 0.960 . S
H1970 C1984 0.960 . S
H1971 C1984 0.960 . S
C1972 H1964 0.929 1_655 S
C1972 C1973 1.377 . S
C1972 C1974 1.384 1_655 S
C1973 C1972 1.377 . S
C1973 C1979 1.390 . S
C1974 H1965 0.930 . S
C1974 C1972 1.384 1_455 S
C1974 C1975 1.372 1_455 S
C1975 C1974 1.372 1_655 S
C1975 C1976 1.400 . S
C1975 C1980 1.490 . S
C1976 H1966 0.930 . S
C1976 C1975 1.400 . S
C1976 C1979 1.386 . S
H1977 C1993 0.930 1_655 S
H1978 C1994 0.877 1_655 S
C1979 H1967 0.929 . S
C1979 C1973 1.390 . S
C1979 C1976 1.386 . S
C1980 C1975 1.490 . S
C1980 C1982 1.395 1_655 S
C1980 C1983 1.403 . S
H1981 C1987 0.930 . S
C1982 H1968 0.930 . S
C1982 C1980 1.395 1_455 S
C1982 C1985 1.403 . S
C1983 C1980 1.403 . S
C1983 C1984 1.524 . S
C1983 C1987 1.400 . S
C1984 H1969 0.960 . S
C1984 H1970 0.960 . S
C1984 H1971 0.960 . S
C1984 C1983 1.524 . S
C1985 C1982 1.403 . S
C1985 C1986 1.392 . S
C1985 C1989 1.495 . S
C1986 C1985 1.392 . S
C1986 C1987 1.385 1_455 S
C1986 C1988 1.478 1_556 S
C1987 H1981 0.930 . S
C1987 C1983 1.400 . S
C1987 C1986 1.385 1_655 S
C1988 C1986 1.478 1_554 S
C1988 C1990 1.381 . S
C1988 C1994 1.423 . S
C1989 C1985 1.495 . S
C1989 H1995 0.959 . S
C1989 H1996 0.961 . S
C1989 H1997 0.960 . S
C1990 C1988 1.381 . S
C1990 C1991 1.394 . S
C1990 H1998 0.930 . S
C1991 C1990 1.394 . S
C1991 C1992 1.383 . S
C1991 H1999 0.929 . S
C1992 C1991 1.383 . S
C1992 C1993 1.377 . S
C1993 H1977 0.930 1_455 S
C1993 C1992 1.377 . S
C1993 C1994 1.395 . S
C1994 H1978 0.877 1_455 S
C1994 C1988 1.423 . S
C1994 C1993 1.395 . S
H1995 C1989 0.959 . S
H1996 C1989 0.961 . S
H1997 C1989 0.960 . S
H1998 C1990 0.930 . S
H1999 C1991 0.929 . S
H2000 C2008 0.929 . S
H2001 C2010 0.930 . S
H2002 C2012 0.930 . S
H2003 C2015 0.929 . S
H2004 C2018 0.930 . S
H2005 C2020 0.960 . S
H2006 C2020 0.960 . S
H2007 C2020 0.960 . S
C2008 H2000 0.929 . S
C2008 C2009 1.377 . S
C2008 C2010 1.384 . S
C2009 C2008 1.377 . S
C2009 C2015 1.390 . S
C2010 H2001 0.930 . S
C2010 C2008 1.384 . S
C2010 C2011 1.372 . S
C2011 C2010 1.372 . S
C2011 C2012 1.400 . S
C2011 C2016 1.490 . S
C2012 H2002 0.930 . S
C2012 C2011 1.400 . S
C2012 C2015 1.386 . S
H2013 C2029 0.930 . S
H2014 C2030 0.931 . S
C2015 H2003 0.929 . S
C2015 C2009 1.390 . S
C2015 C2012 1.386 . S
C2016 C2011 1.490 . S
C2016 C2018 1.395 . S
C2016 C2019 1.403 . S
H2017 C2023 0.930 . S
C2018 H2004 0.930 . S
C2018 C2016 1.395 . S
C2018 C2021 1.403 . S
C2019 C2016 1.403 . S
C2019 C2020 1.524 . S
C2019 C2023 1.400 . S
C2020 H2005 0.960 . S
C2020 H2006 0.960 . S
C2020 H2007 0.960 . S
C2020 C2019 1.524 . S
C2021 C2018 1.403 . S
C2021 C2022 1.392 . S
C2021 C2025 1.495 . S
C2022 C2021 1.392 . S
C2022 C2023 1.385 . S
C2022 C2024 1.478 . S
C2023 H2017 0.930 . S
C2023 C2019 1.400 . S
C2023 C2022 1.385 . S
C2024 C2022 1.478 . S
C2024 C2026 1.381 . S
C2024 C2030 1.383 . S
C2025 C2021 1.495 . S
C2025 H2031 0.959 . S
C2025 H2032 0.961 . S
C2025 H2033 0.960 . S
C2026 C2024 1.381 . S
C2026 C2027 1.394 . S
C2026 H2034 0.930 . S
C2027 C2026 1.394 . S
C2027 C2028 1.383 . S
C2027 H2035 0.929 . S
C2028 C2027 1.383 . S
C2028 C2029 1.377 . S
C2029 H2013 0.930 . S
C2029 C2028 1.377 . S
C2029 C2030 1.379 . S
C2030 H2014 0.931 . S
C2030 C2024 1.383 . S
C2030 C2029 1.379 . S
H2031 C2025 0.959 . S
H2032 C2025 0.961 . S
H2033 C2025 0.960 . S
H2034 C2026 0.930 . S
H2035 C2027 0.929 . S
H2036 C2044 0.929 1_455 S
H2037 C2046 0.968 . S
H2038 C2048 0.930 . S
H2039 C2051 0.929 . S
H2040 C2054 0.930 . S
H2041 C2056 0.960 . S
H2042 C2056 0.960 . S
H2043 C2056 0.960 . S
C2044 H2036 0.929 1_655 S
C2044 C2045 1.377 . S
C2044 C2046 1.372 1_655 S
C2045 C2044 1.377 . S
C2045 C2051 1.390 . S
C2046 H2037 0.968 . S
C2046 C2044 1.372 1_455 S
C2046 C2047 1.348 1_455 S
C2047 C2046 1.348 1_655 S
C2047 C2048 1.400 . S
C2047 C2052 1.490 . S
C2048 H2038 0.930 . S
C2048 C2047 1.400 . S
C2048 C2051 1.386 . S
H2049 C2065 0.896 1_655 S
H2050 C2066 0.931 1_655 S
C2051 H2039 0.929 . S
C2051 C2045 1.390 . S
C2051 C2048 1.386 . S
C2052 C2047 1.490 . S
C2052 C2054 1.395 1_655 S
C2052 C2055 1.403 . S
H2053 C2059 0.930 . S
C2054 H2040 0.930 . S
C2054 C2052 1.395 1_455 S
C2054 C2057 1.403 . S
C2055 C2052 1.403 . S
C2055 C2056 1.524 . S
C2055 C2059 1.400 . S
C2056 H2041 0.960 . S
C2056 H2042 0.960 . S
C2056 H2043 0.960 . S
C2056 C2055 1.524 . S
C2057 C2054 1.403 . S
C2057 C2058 1.392 . S
C2057 C2061 1.495 . S
C2058 C2057 1.392 . S
C2058 C2059 1.385 1_455 S
C2058 C2060 1.478 . S
C2059 H2053 0.930 . S
C2059 C2055 1.400 . S
C2059 C2058 1.385 1_655 S
C2060 C2058 1.478 . S
C2060 C2062 1.381 . S
C2060 C2066 1.383 . S
C2061 C2057 1.495 . S
C2061 H2067 0.959 . S
C2061 H2068 0.961 . S
C2061 H2069 0.960 . S
C2062 C2060 1.381 . S
C2062 C2063 1.394 . S
C2062 H2070 0.930 . S
C2063 C2062 1.394 . S
C2063 C2064 1.383 . S
C2063 H2071 0.929 . S
C2064 C2063 1.383 . S
C2064 C2065 1.377 . S
C2065 H2049 0.896 1_455 S
C2065 C2064 1.377 . S
C2065 C2066 1.379 . S
C2066 H2050 0.931 1_455 S
C2066 C2060 1.383 . S
C2066 C2065 1.379 . S
H2067 C2061 0.959 . S
H2068 C2061 0.961 . S
H2069 C2061 0.960 . S
H2070 C2062 0.930 . S
H2071 C2063 0.929 . S
H2072 C2080 0.929 . S
H2073 C2082 0.930 . S
H2074 C2084 0.930 . S
H2075 C2087 0.929 . S
H2076 C2090 0.930 . S
H2077 C2092 0.960 . S
H2078 C2092 0.960 . S
H2079 C2092 0.960 . S
C2080 H2072 0.929 . S
C2080 C2081 1.377 . S
C2080 C2082 1.384 . S
C2081 C2080 1.377 . S
C2081 C2087 1.390 . S
C2082 H2073 0.930 . S
C2082 C2080 1.384 . S
C2082 C2083 1.372 . S
C2083 C2082 1.372 . S
C2083 C2084 1.400 . S
C2083 C2088 1.490 . S
C2084 H2074 0.930 . S
C2084 C2083 1.400 . S
C2084 C2087 1.386 . S
H2085 C2101 0.930 . S
H2086 C2102 0.931 . S
C2087 H2075 0.929 . S
C2087 C2081 1.390 . S
C2087 C2084 1.386 . S
C2088 C2083 1.490 . S
C2088 C2090 1.395 . S
C2088 C2091 1.403 . S
H2089 C2095 0.930 . S
C2090 H2076 0.930 . S
C2090 C2088 1.395 . S
C2090 C2093 1.403 . S
C2091 C2088 1.403 . S
C2091 C2092 1.524 . S
C2091 C2095 1.400 . S
C2092 H2077 0.960 . S
C2092 H2078 0.960 . S
C2092 H2079 0.960 . S
C2092 C2091 1.524 . S
C2093 C2090 1.403 . S
C2093 C2094 1.392 . S
C2093 C2097 1.495 . S
C2094 C2093 1.392 . S
C2094 C2095 1.385 . S
C2094 C2096 1.478 . S
C2095 H2089 0.930 . S
C2095 C2091 1.400 . S
C2095 C2094 1.385 . S
C2096 C2094 1.478 . S
C2096 C2098 1.381 . S
C2096 C2102 1.383 . S
C2097 C2093 1.495 . S
C2097 H2103 0.959 . S
C2097 H2104 0.961 . S
C2097 H2105 0.960 . S
C2098 C2096 1.381 . S
C2098 C2099 1.394 . S
C2098 H2106 0.930 . S
C2099 C2098 1.394 . S
C2099 C2100 1.383 . S
C2099 H2107 0.929 . S
C2100 C2099 1.383 . S
C2100 C2101 1.377 . S
C2101 H2085 0.930 . S
C2101 C2100 1.377 . S
C2101 C2102 1.379 . S
C2102 H2086 0.931 . S
C2102 C2096 1.383 . S
C2102 C2101 1.379 . S
H2103 C2097 0.959 . S
H2104 C2097 0.961 . S
H2105 C2097 0.960 . S
H2106 C2098 0.930 . S
H2107 C2099 0.929 . S
H2108 C2116 0.929 . S
H2109 C2118 0.930 . S
H2110 C2120 0.930 . S
H2111 C2123 0.929 . S
H2112 C2126 0.930 . S
H2113 C2128 0.960 . S
H2114 C2128 0.960 . S
H2115 C2128 0.960 . S
C2116 H2108 0.929 . S
C2116 C2117 1.377 . S
C2116 C2118 1.384 . S
C2117 C2116 1.377 . S
C2117 C2123 1.390 . S
C2118 H2109 0.930 . S
C2118 C2116 1.384 . S
C2118 C2119 1.372 . S
C2119 C2118 1.372 . S
C2119 C2120 1.400 . S
C2119 C2124 1.490 . S
C2120 H2110 0.930 . S
C2120 C2119 1.400 . S
C2120 C2123 1.386 . S
H2121 C2137 0.930 . S
H2122 C2138 0.931 . S
C2123 H2111 0.929 . S
C2123 C2117 1.390 . S
C2123 C2120 1.386 . S
C2124 C2119 1.490 . S
C2124 C2126 1.395 . S
C2124 C2127 1.403 . S
H2125 C2131 0.930 . S
C2126 H2112 0.930 . S
C2126 C2124 1.395 . S
C2126 C2129 1.403 . S
C2127 C2124 1.403 . S
C2127 C2128 1.524 . S
C2127 C2131 1.400 . S
C2128 H2113 0.960 . S
C2128 H2114 0.960 . S
C2128 H2115 0.960 . S
C2128 C2127 1.524 . S
C2129 C2126 1.403 . S
C2129 C2130 1.392 . S
C2129 C2133 1.495 . S
C2130 C2129 1.392 . S
C2130 C2131 1.385 . S
C2130 C2132 1.478 1_554 S
C2131 H2125 0.930 . S
C2131 C2127 1.400 . S
C2131 C2130 1.385 . S
C2132 C2130 1.478 1_556 S
C2132 C2134 1.381 . S
C2132 C2138 1.383 . S
C2133 C2129 1.495 . S
C2133 H2139 0.959 . S
C2133 H2140 0.961 1_554 S
C2133 H2141 0.960 1_554 S
C2134 C2132 1.381 . S
C2134 C2135 1.394 . S
C2134 H2142 0.930 . S
C2135 C2134 1.394 . S
C2135 C2136 1.383 . S
C2135 H2143 0.929 . S
C2136 C2135 1.383 . S
C2136 C2137 1.377 . S
C2137 H2121 0.930 . S
C2137 C2136 1.377 . S
C2137 C2138 1.379 . S
C2138 H2122 0.931 . S
C2138 C2132 1.383 . S
C2138 C2137 1.379 . S
H2139 C2133 0.959 . S
H2140 C2133 0.961 1_556 S
H2141 C2133 0.960 1_556 S
H2142 C2134 0.930 . S
H2143 C2135 0.929 . S
H2144 C2152 0.929 . S
H2145 C2154 0.930 . S
H2146 C2156 0.930 . S
H2147 C2159 0.929 . S
H2148 C2162 0.930 . S
H2149 C2164 0.960 . S
H2150 C2164 0.960 . S
H2151 C2164 0.960 . S
C2152 H2144 0.929 . S
C2152 C2153 1.377 . S
C2152 C2154 1.384 . S
C2153 C2152 1.377 . S
C2153 C2159 1.390 . S
C2154 H2145 0.930 . S
C2154 C2152 1.384 . S
C2154 C2155 1.372 . S
C2155 C2154 1.372 . S
C2155 C2156 1.400 . S
C2155 C2160 1.490 . S
C2156 H2146 0.930 . S
C2156 C2155 1.400 . S
C2156 C2159 1.386 . S
H2157 C2173 0.930 . S
H2158 C2174 0.931 . S
C2159 H2147 0.929 . S
C2159 C2153 1.390 . S
C2159 C2156 1.386 . S
C2160 C2155 1.490 . S
C2160 C2162 1.395 . S
C2160 C2163 1.403 . S
H2161 C2167 0.930 . S
C2162 H2148 0.930 . S
C2162 C2160 1.395 . S
C2162 C2165 1.403 . S
C2163 C2160 1.403 . S
C2163 C2164 1.524 . S
C2163 C2167 1.400 . S
C2164 H2149 0.960 . S
C2164 H2150 0.960 . S
C2164 H2151 0.960 . S
C2164 C2163 1.524 . S
C2165 C2162 1.403 . S
C2165 C2166 1.392 . S
C2165 C2169 1.495 . S
C2166 C2165 1.392 . S
C2166 C2167 1.385 . S
C2166 C2168 1.478 . S
C2167 H2161 0.930 . S
C2167 C2163 1.400 . S
C2167 C2166 1.385 . S
C2168 C2166 1.478 . S
C2168 C2170 1.381 . S
C2168 C2174 1.383 . S
C2169 C2165 1.495 . S
C2169 H2175 0.959 . S
C2169 H2176 0.961 . S
C2169 H2177 0.960 . S
C2170 C2168 1.381 . S
C2170 C2171 1.394 . S
C2170 H2178 0.930 . S
C2171 C2170 1.394 . S
C2171 C2172 1.383 . S
C2171 H2179 0.929 . S
C2172 C2171 1.383 . S
C2172 C2173 1.377 . S
C2173 H2157 0.930 . S
C2173 C2172 1.377 . S
C2173 C2174 1.379 . S
C2174 H2158 0.931 . S
C2174 C2168 1.383 . S
C2174 C2173 1.379 . S
H2175 C2169 0.959 . S
H2176 C2169 0.961 . S
H2177 C2169 0.960 . S
H2178 C2170 0.930 . S
H2179 C2171 0.929 . S
H2180 C2188 0.929 . S
H2181 C2190 0.930 . S
H2182 C2192 0.930 . S
H2183 C2195 0.929 . S
H2184 C2198 0.930 . S
H2185 C2200 0.960 . S
H2186 C2200 0.960 . S
H2187 C2200 0.960 . S
C2188 H2180 0.929 . S
C2188 C2189 1.377 . S
C2188 C2190 1.384 . S
C2189 C2188 1.377 . S
C2189 C2195 1.390 . S
C2190 H2181 0.930 . S
C2190 C2188 1.384 . S
C2190 C2191 1.372 . S
C2191 C2190 1.372 . S
C2191 C2192 1.400 . S
C2191 C2196 1.490 . S
C2192 H2182 0.930 . S
C2192 C2191 1.400 . S
C2192 C2195 1.386 . S
H2193 C2209 0.930 . S
H2194 C2210 0.931 . S
C2195 H2183 0.929 . S
C2195 C2189 1.390 . S
C2195 C2192 1.386 . S
C2196 C2191 1.490 . S
C2196 C2198 1.395 . S
C2196 C2199 1.403 . S
H2197 C2203 0.930 . S
C2198 H2184 0.930 . S
C2198 C2196 1.395 . S
C2198 C2201 1.403 . S
C2199 C2196 1.403 . S
C2199 C2200 1.524 . S
C2199 C2203 1.400 . S
C2200 H2185 0.960 . S
C2200 H2186 0.960 . S
C2200 H2187 0.960 . S
C2200 C2199 1.524 . S
C2201 C2198 1.403 . S
C2201 C2202 1.392 . S
C2201 C2205 1.495 . S
C2202 C2201 1.392 . S
C2202 C2203 1.385 . S
C2202 C2204 1.478 . S
C2203 H2197 0.930 . S
C2203 C2199 1.400 . S
C2203 C2202 1.385 . S
C2204 C2202 1.478 . S
C2204 C2206 1.381 . S
C2204 C2210 1.383 . S
C2205 C2201 1.495 . S
C2205 H2211 0.959 . S
C2205 H2212 0.961 . S
C2205 H2213 0.960 . S
C2206 C2204 1.381 . S
C2206 C2207 1.394 . S
C2206 H2214 0.930 . S
C2207 C2206 1.394 . S
C2207 C2208 1.383 . S
C2207 H2215 0.929 . S
C2208 C2207 1.383 . S
C2208 C2209 1.377 . S
C2209 H2193 0.930 . S
C2209 C2208 1.377 . S
C2209 C2210 1.379 . S
C2210 H2194 0.931 . S
C2210 C2204 1.383 . S
C2210 C2209 1.379 . S
H2211 C2205 0.959 . S
H2212 C2205 0.961 . S
H2213 C2205 0.960 . S
H2214 C2206 0.930 . S
H2215 C2207 0.929 . S
H2216 C2224 0.929 . S
H2217 C2226 0.930 . S
H2218 C2228 0.930 . S
H2219 C2231 0.929 . S
H2220 C2234 0.930 . S
H2221 C2236 0.960 . S
H2222 C2236 0.960 . S
H2223 C2236 0.960 . S
C2224 H2216 0.929 . S
C2224 C2225 1.377 . S
C2224 C2226 1.384 . S
C2225 C2224 1.377 . S
C2225 C2231 1.390 . S
C2226 H2217 0.930 . S
C2226 C2224 1.384 . S
C2226 C2227 1.372 . S
C2227 C2226 1.372 . S
C2227 C2228 1.400 . S
C2227 C2232 1.490 . S
C2228 H2218 0.930 . S
C2228 C2227 1.400 . S
C2228 C2231 1.386 . S
H2229 C2245 0.930 . S
H2230 C2246 0.931 . S
C2231 H2219 0.929 . S
C2231 C2225 1.390 . S
C2231 C2228 1.386 . S
C2232 C2227 1.490 . S
C2232 C2234 1.395 . S
C2232 C2235 1.403 . S
H2233 C2239 0.930 . S
C2234 H2220 0.930 . S
C2234 C2232 1.395 . S
C2234 C2237 1.403 . S
C2235 C2232 1.403 . S
C2235 C2236 1.524 . S
C2235 C2239 1.400 . S
C2236 H2221 0.960 . S
C2236 H2222 0.960 . S
C2236 H2223 0.960 . S
C2236 C2235 1.524 . S
C2237 C2234 1.403 . S
C2237 C2238 1.392 . S
C2237 C2241 1.495 . S
C2238 C2237 1.392 . S
C2238 C2239 1.385 . S
C2238 C2240 1.478 . S
C2239 H2233 0.930 . S
C2239 C2235 1.400 . S
C2239 C2238 1.385 . S
C2240 C2238 1.478 . S
C2240 C2242 1.381 . S
C2240 C2246 1.383 . S
C2241 C2237 1.495 . S
C2241 H2247 0.959 . S
C2241 H2248 0.961 . S
C2241 H2249 0.960 . S
C2242 C2240 1.381 . S
C2242 C2243 1.394 . S
C2242 H2250 0.930 . S
C2243 C2242 1.394 . S
C2243 C2244 1.383 . S
C2243 H2251 0.929 . S
C2244 C2243 1.383 . S
C2244 C2245 1.377 . S
C2245 H2229 0.930 . S
C2245 C2244 1.377 . S
C2245 C2246 1.379 . S
C2246 H2230 0.931 . S
C2246 C2240 1.383 . S
C2246 C2245 1.379 . S
H2247 C2241 0.959 . S
H2248 C2241 0.961 . S
H2249 C2241 0.960 . S
H2250 C2242 0.930 . S
H2251 C2243 0.929 . S
H2252 C2260 0.929 . S
H2253 C2262 0.930 . S
H2254 C2264 0.930 . S
H2255 C2267 0.929 . S
H2256 C2270 0.930 . S
H2257 C2272 0.960 . S
H2258 C2272 0.960 . S
H2259 C2272 0.960 . S
C2260 H2252 0.929 . S
C2260 C2261 1.377 . S
C2260 C2262 1.384 . S
C2261 C2260 1.377 . S
C2261 C2267 1.390 . S
C2262 H2253 0.930 . S
C2262 C2260 1.384 . S
C2262 C2263 1.372 . S
C2263 C2262 1.372 . S
C2263 C2264 1.400 . S
C2263 C2268 1.490 . S
C2264 H2254 0.930 . S
C2264 C2263 1.400 . S
C2264 C2267 1.386 . S
H2265 C2281 0.930 . S
H2266 C2282 0.931 . S
C2267 H2255 0.929 . S
C2267 C2261 1.390 . S
C2267 C2264 1.386 . S
C2268 C2263 1.490 . S
C2268 C2270 1.395 . S
C2268 C2271 1.403 . S
H2269 C2275 0.930 . S
C2270 H2256 0.930 . S
C2270 C2268 1.395 . S
C2270 C2273 1.403 . S
C2271 C2268 1.403 . S
C2271 C2272 1.524 . S
C2271 C2275 1.400 . S
C2272 H2257 0.960 . S
C2272 H2258 0.960 . S
C2272 H2259 0.960 . S
C2272 C2271 1.524 . S
C2273 C2270 1.403 . S
C2273 C2274 1.392 . S
C2273 C2277 1.495 . S
C2274 C2273 1.392 . S
C2274 C2275 1.385 . S
C2274 C2276 1.478 . S
C2275 H2269 0.930 . S
C2275 C2271 1.400 . S
C2275 C2274 1.385 . S
C2276 C2274 1.478 . S
C2276 C2278 1.381 . S
C2276 C2282 1.383 . S
C2277 C2273 1.495 . S
C2277 H2283 0.959 . S
C2277 H2284 0.961 . S
C2277 H2285 0.960 . S
C2278 C2276 1.381 . S
C2278 C2279 1.394 . S
C2278 H2286 0.930 . S
C2279 C2278 1.394 . S
C2279 C2280 1.383 . S
C2279 H2287 0.929 . S
C2280 C2279 1.383 . S
C2280 C2281 1.377 . S
C2281 H2265 0.930 . S
C2281 C2280 1.377 . S
C2281 C2282 1.379 . S
C2282 H2266 0.931 . S
C2282 C2276 1.383 . S
C2282 C2281 1.379 . S
H2283 C2277 0.959 . S
H2284 C2277 0.961 . S
H2285 C2277 0.960 . S
H2286 C2278 0.930 . S
H2287 C2279 0.929 . S
H2288 C2296 0.929 . S
H2289 C2298 0.930 . S
H2290 C2300 0.930 . S
H2291 C2303 0.929 . S
H2292 C2306 0.930 . S
H2293 C2308 0.960 . S
H2294 C2308 0.960 . S
H2295 C2308 0.960 . S
C2296 H2288 0.929 . S
C2296 C2297 1.377 . S
C2296 C2298 1.384 . S
C2297 C2296 1.377 . S
C2297 C2303 1.390 . S
C2298 H2289 0.930 . S
C2298 C2296 1.384 . S
C2298 C2299 1.372 . S
C2299 C2298 1.372 . S
C2299 C2300 1.400 . S
C2299 C2304 1.490 . S
C2300 H2290 0.930 . S
C2300 C2299 1.400 . S
C2300 C2303 1.386 . S
H2301 C2317 0.930 . S
H2302 C2318 0.931 . S
C2303 H2291 0.929 . S
C2303 C2297 1.390 . S
C2303 C2300 1.386 . S
C2304 C2299 1.490 . S
C2304 C2306 1.395 . S
C2304 C2307 1.403 . S
H2305 C2311 0.930 . S
C2306 H2292 0.930 . S
C2306 C2304 1.395 . S
C2306 C2309 1.403 . S
C2307 C2304 1.403 . S
C2307 C2308 1.524 . S
C2307 C2311 1.400 . S
C2308 H2293 0.960 . S
C2308 H2294 0.960 . S
C2308 H2295 0.960 . S
C2308 C2307 1.524 . S
C2309 C2306 1.403 . S
C2309 C2310 1.392 . S
C2309 C2313 1.495 . S
C2310 C2309 1.392 . S
C2310 C2311 1.385 . S
C2310 C2312 1.478 . S
C2311 H2305 0.930 . S
C2311 C2307 1.400 . S
C2311 C2310 1.385 . S
C2312 C2310 1.478 . S
C2312 C2314 1.381 . S
C2312 C2318 1.383 . S
C2313 C2309 1.495 . S
C2313 H2319 0.959 . S
C2313 H2320 0.961 . S
C2313 H2321 0.960 . S
C2314 C2312 1.381 . S
C2314 C2315 1.394 . S
C2314 H2322 0.930 . S
C2315 C2314 1.394 . S
C2315 C2316 1.383 . S
C2315 H2323 0.929 . S
C2316 C2315 1.383 . S
C2316 C2317 1.377 . S
C2317 H2301 0.930 . S
C2317 C2316 1.377 . S
C2317 C2318 1.379 . S
C2318 H2302 0.931 . S
C2318 C2312 1.383 . S
C2318 C2317 1.379 . S
H2319 C2313 0.959 . S
H2320 C2313 0.961 . S
H2321 C2313 0.960 . S
H2322 C2314 0.930 . S
H2323 C2315 0.929 . S
H2324 C2332 0.929 . S
H2325 C2334 0.930 . S
H2326 C2336 0.930 . S
H2327 C2339 0.929 . S
H2328 C2342 0.930 . S
H2329 C2344 0.960 . S
H2330 C2344 0.960 . S
H2331 C2344 0.960 . S
C2332 H2324 0.929 . S
C2332 C2333 1.377 . S
C2332 C2334 1.384 . S
C2333 C2332 1.377 . S
C2333 C2339 1.390 . S
C2334 H2325 0.930 . S
C2334 C2332 1.384 . S
C2334 C2335 1.372 . S
C2335 C2334 1.372 . S
C2335 C2336 1.400 . S
C2335 C2340 1.490 . S
C2336 H2326 0.930 . S
C2336 C2335 1.400 . S
C2336 C2339 1.386 . S
H2337 C2353 0.930 . S
H2338 C2354 0.931 . S
C2339 H2327 0.929 . S
C2339 C2333 1.390 . S
C2339 C2336 1.386 . S
C2340 C2335 1.490 . S
C2340 C2342 1.395 . S
C2340 C2343 1.403 . S
H2341 C2347 0.930 . S
C2342 H2328 0.930 . S
C2342 C2340 1.395 . S
C2342 C2345 1.403 . S
C2343 C2340 1.403 . S
C2343 C2344 1.524 . S
C2343 C2347 1.400 . S
C2344 H2329 0.960 . S
C2344 H2330 0.960 . S
C2344 H2331 0.960 . S
C2344 C2343 1.524 . S
C2345 C2342 1.403 . S
C2345 C2346 1.392 . S
C2345 C2349 1.495 . S
C2346 C2345 1.392 . S
C2346 C2347 1.385 . S
C2346 C2348 1.478 . S
C2347 H2341 0.930 . S
C2347 C2343 1.400 . S
C2347 C2346 1.385 . S
C2348 C2346 1.478 . S
C2348 C2350 1.381 . S
C2348 C2354 1.383 . S
C2349 C2345 1.495 . S
C2349 H2355 0.959 . S
C2349 H2356 0.961 . S
C2349 H2357 0.960 . S
C2350 C2348 1.381 . S
C2350 C2351 1.394 . S
C2350 H2358 0.930 . S
C2351 C2350 1.394 . S
C2351 C2352 1.383 . S
C2351 H2359 0.929 . S
C2352 C2351 1.383 . S
C2352 C2353 1.377 . S
C2353 H2337 0.930 . S
C2353 C2352 1.377 . S
C2353 C2354 1.379 . S
C2354 H2338 0.931 . S
C2354 C2348 1.383 . S
C2354 C2353 1.379 . S
H2355 C2349 0.959 . S
H2356 C2349 0.961 . S
H2357 C2349 0.960 . S
H2358 C2350 0.930 . S
H2359 C2351 0.929 . S
H2360 C2368 0.929 . S
H2361 C2370 0.930 . S
H2362 C2372 0.930 . S
H2363 C2375 0.929 . S
H2364 C2378 0.930 . S
H2365 C2380 0.960 . S
H2366 C2380 0.960 . S
H2367 C2380 0.960 . S
C2368 H2360 0.929 . S
C2368 C2369 1.377 . S
C2368 C2370 1.384 . S
C2369 C2368 1.377 . S
C2369 C2375 1.390 . S
C2370 H2361 0.930 . S
C2370 C2368 1.384 . S
C2370 C2371 1.372 . S
C2371 C2370 1.372 . S
C2371 C2372 1.400 . S
C2371 C2376 1.490 . S
C2372 H2362 0.930 . S
C2372 C2371 1.400 . S
C2372 C2375 1.386 . S
H2373 C2389 0.930 . S
H2374 C2390 0.931 . S
C2375 H2363 0.929 . S
C2375 C2369 1.390 . S
C2375 C2372 1.386 . S
C2376 C2371 1.490 . S
C2376 C2378 1.395 . S
C2376 C2379 1.403 . S
H2377 C2383 0.930 . S
C2378 H2364 0.930 . S
C2378 C2376 1.395 . S
C2378 C2381 1.403 . S
C2379 C2376 1.403 . S
C2379 C2380 1.524 . S
C2379 C2383 1.400 . S
C2380 H2365 0.960 . S
C2380 H2366 0.960 . S
C2380 H2367 0.960 . S
C2380 C2379 1.524 . S
C2381 C2378 1.403 . S
C2381 C2382 1.392 . S
C2381 C2385 1.495 . S
C2382 C2381 1.392 . S
C2382 C2383 1.385 . S
C2382 C2384 1.478 . S
C2383 H2377 0.930 . S
C2383 C2379 1.400 . S
C2383 C2382 1.385 . S
C2384 C2382 1.478 . S
C2384 C2386 1.381 . S
C2384 C2390 1.383 . S
C2385 C2381 1.495 . S
C2385 H2391 0.959 . S
C2385 H2392 0.961 . S
C2385 H2393 0.960 . S
C2386 C2384 1.381 . S
C2386 C2387 1.394 . S
C2386 H2394 0.930 . S
C2387 C2386 1.394 . S
C2387 C2388 1.383 . S
C2387 H2395 0.929 . S
C2388 C2387 1.383 . S
C2388 C2389 1.377 . S
C2389 H2373 0.930 . S
C2389 C2388 1.377 . S
C2389 C2390 1.379 . S
C2390 H2374 0.931 . S
C2390 C2384 1.383 . S
C2390 C2389 1.379 . S
H2391 C2385 0.959 . S
H2392 C2385 0.961 . S
H2393 C2385 0.960 . S
H2394 C2386 0.930 . S
H2395 C2387 0.929 . S
H2396 C2404 0.929 . S
H2397 C2406 0.930 . S
H2398 C2408 0.930 . S
H2399 C2411 0.929 . S
H2400 C2414 0.930 . S
H2401 C2416 0.960 . S
H2402 C2416 0.960 . S
H2403 C2416 0.960 . S
C2404 H2396 0.929 . S
C2404 C2405 1.377 . S
C2404 C2406 1.384 . S
C2405 C2404 1.377 . S
C2405 C2411 1.390 . S
C2406 H2397 0.930 . S
C2406 C2404 1.384 . S
C2406 C2407 1.372 . S
C2407 C2406 1.372 . S
C2407 C2408 1.400 . S
C2407 C2412 1.490 . S
C2408 H2398 0.930 . S
C2408 C2407 1.400 . S
C2408 C2411 1.386 . S
H2409 C2425 0.930 . S
H2410 C2426 0.931 . S
C2411 H2399 0.929 . S
C2411 C2405 1.390 . S
C2411 C2408 1.386 . S
C2412 C2407 1.490 . S
C2412 C2414 1.395 . S
C2412 C2415 1.403 . S
H2413 C2419 0.930 . S
C2414 H2400 0.930 . S
C2414 C2412 1.395 . S
C2414 C2417 1.403 . S
C2415 C2412 1.403 . S
C2415 C2416 1.524 . S
C2415 C2419 1.400 . S
C2416 H2401 0.960 . S
C2416 H2402 0.960 . S
C2416 H2403 0.960 . S
C2416 C2415 1.524 . S
C2417 C2414 1.403 . S
C2417 C2418 1.392 . S
C2417 C2421 1.495 . S
C2418 C2417 1.392 . S
C2418 C2419 1.385 . S
C2418 C2420 1.478 . S
C2419 H2413 0.930 . S
C2419 C2415 1.400 . S
C2419 C2418 1.385 . S
C2420 C2418 1.478 . S
C2420 C2422 1.381 . S
C2420 C2426 1.383 . S
C2421 C2417 1.495 . S
C2421 H2427 0.959 . S
C2421 H2428 0.961 . S
C2421 H2429 0.960 . S
C2422 C2420 1.381 . S
C2422 C2423 1.394 . S
C2422 H2430 0.930 . S
C2423 C2422 1.394 . S
C2423 C2424 1.383 . S
C2423 H2431 0.929 . S
C2424 C2423 1.383 . S
C2424 C2425 1.377 . S
C2425 H2409 0.930 . S
C2425 C2424 1.377 . S
C2425 C2426 1.379 . S
C2426 H2410 0.931 . S
C2426 C2420 1.383 . S
C2426 C2425 1.379 . S
H2427 C2421 0.959 . S
H2428 C2421 0.961 . S
H2429 C2421 0.960 . S
H2430 C2422 0.930 . S
H2431 C2423 0.929 . S
H2432 C2440 0.929 . S
H2433 C2442 0.930 . S
H2434 C2444 0.930 . S
H2435 C2447 0.929 . S
H2436 C2450 0.930 . S
H2437 C2452 0.960 . S
H2438 C2452 0.960 . S
H2439 C2452 0.960 . S
C2440 H2432 0.929 . S
C2440 C2441 1.377 . S
C2440 C2442 1.384 . S
C2441 C2440 1.377 . S
C2441 C2447 1.390 . S
C2442 H2433 0.930 . S
C2442 C2440 1.384 . S
C2442 C2443 1.372 . S
C2443 C2442 1.372 . S
C2443 C2444 1.400 . S
C2443 C2448 1.490 . S
C2444 H2434 0.930 . S
C2444 C2443 1.400 . S
C2444 C2447 1.386 . S
H2445 C2461 0.930 . S
H2446 C2462 0.931 . S
C2447 H2435 0.929 . S
C2447 C2441 1.390 . S
C2447 C2444 1.386 . S
C2448 C2443 1.490 . S
C2448 C2450 1.395 . S
C2448 C2451 1.403 . S
H2449 C2455 0.930 . S
C2450 H2436 0.930 . S
C2450 C2448 1.395 . S
C2450 C2453 1.403 . S
C2451 C2448 1.403 . S
C2451 C2452 1.524 . S
C2451 C2455 1.400 . S
C2452 H2437 0.960 . S
C2452 H2438 0.960 . S
C2452 H2439 0.960 . S
C2452 C2451 1.524 . S
C2453 C2450 1.403 . S
C2453 C2454 1.392 . S
C2453 C2457 1.495 . S
C2454 C2453 1.392 . S
C2454 C2455 1.385 . S
C2454 C2456 1.478 . S
C2455 H2449 0.930 . S
C2455 C2451 1.400 . S
C2455 C2454 1.385 . S
C2456 C2454 1.478 . S
C2456 C2458 1.381 . S
C2456 C2462 1.383 . S
C2457 C2453 1.495 . S
C2457 H2463 0.959 . S
C2457 H2464 0.961 . S
C2457 H2465 0.960 . S
C2458 C2456 1.381 . S
C2458 C2459 1.394 . S
C2458 H2466 0.930 . S
C2459 C2458 1.394 . S
C2459 C2460 1.383 . S
C2459 H2467 0.929 . S
C2460 C2459 1.383 . S
C2460 C2461 1.377 . S
C2461 H2445 0.930 . S
C2461 C2460 1.377 . S
C2461 C2462 1.379 . S
C2462 H2446 0.931 . S
C2462 C2456 1.383 . S
C2462 C2461 1.379 . S
H2463 C2457 0.959 . S
H2464 C2457 0.961 . S
H2465 C2457 0.960 . S
H2466 C2458 0.930 . S
H2467 C2459 0.929 . S
H2468 C2476 0.929 . S
H2469 C2478 0.930 . S
H2470 C2480 0.930 . S
H2471 C2483 0.929 . S
H2472 C2486 0.930 . S
H2473 C2488 0.960 . S
H2474 C2488 0.960 . S
H2475 C2488 0.960 . S
C2476 H2468 0.929 . S
C2476 C2477 1.377 . S
C2476 C2478 1.384 . S
C2477 C2476 1.377 . S
C2477 C2483 1.390 . S
C2478 H2469 0.930 . S
C2478 C2476 1.384 . S
C2478 C2479 1.372 . S
C2479 C2478 1.372 . S
C2479 C2480 1.400 . S
C2479 C2484 1.490 . S
C2480 H2470 0.930 . S
C2480 C2479 1.400 . S
C2480 C2483 1.386 . S
H2481 C2497 0.930 . S
H2482 C2498 0.931 . S
C2483 H2471 0.929 . S
C2483 C2477 1.390 . S
C2483 C2480 1.386 . S
C2484 C2479 1.490 . S
C2484 C2486 1.395 . S
C2484 C2487 1.403 . S
H2485 C2491 0.930 . S
C2486 H2472 0.930 . S
C2486 C2484 1.395 . S
C2486 C2489 1.403 . S
C2487 C2484 1.403 . S
C2487 C2488 1.524 . S
C2487 C2491 1.400 . S
C2488 H2473 0.960 . S
C2488 H2474 0.960 . S
C2488 H2475 0.960 . S
C2488 C2487 1.524 . S
C2489 C2486 1.403 . S
C2489 C2490 1.392 . S
C2489 C2493 1.495 . S
C2490 C2489 1.392 . S
C2490 C2491 1.385 . S
C2490 C2492 1.478 . S
C2491 H2485 0.930 . S
C2491 C2487 1.400 . S
C2491 C2490 1.385 . S
C2492 C2490 1.478 . S
C2492 C2494 1.381 . S
C2492 C2498 1.383 . S
C2493 C2489 1.495 . S
C2493 H2499 0.959 . S
C2493 H2500 0.961 . S
C2493 H2501 0.960 . S
C2494 C2492 1.381 . S
C2494 C2495 1.394 . S
C2494 H2502 0.930 . S
C2495 C2494 1.394 . S
C2495 C2496 1.383 . S
C2495 H2503 0.929 . S
C2496 C2495 1.383 . S
C2496 C2497 1.377 . S
C2497 H2481 0.930 . S
C2497 C2496 1.377 . S
C2497 C2498 1.379 . S
C2498 H2482 0.931 . S
C2498 C2492 1.383 . S
C2498 C2497 1.379 . S
H2499 C2493 0.959 . S
H2500 C2493 0.961 . S
H2501 C2493 0.960 . S
H2502 C2494 0.930 . S
H2503 C2495 0.929 . S
H2504 C2512 0.929 . S
H2505 C2514 0.930 . S
H2506 C2516 0.930 . S
H2507 C2519 0.929 . S
H2508 C2522 0.930 . S
H2509 C2524 0.960 . S
H2510 C2524 0.960 . S
H2511 C2524 0.960 . S
C2512 H2504 0.929 . S
C2512 C2513 1.377 . S
C2512 C2514 1.384 . S
C2513 C2512 1.377 . S
C2513 C2519 1.390 . S
C2514 H2505 0.930 . S
C2514 C2512 1.384 . S
C2514 C2515 1.372 . S
C2515 C2514 1.372 . S
C2515 C2516 1.400 . S
C2515 C2520 1.490 . S
C2516 H2506 0.930 . S
C2516 C2515 1.400 . S
C2516 C2519 1.386 . S
H2517 C2533 0.930 . S
H2518 C2534 0.931 . S
C2519 H2507 0.929 . S
C2519 C2513 1.390 . S
C2519 C2516 1.386 . S
C2520 C2515 1.490 . S
C2520 C2522 1.395 . S
C2520 C2523 1.403 . S
H2521 C2527 0.930 . S
C2522 H2508 0.930 . S
C2522 C2520 1.395 . S
C2522 C2525 1.403 . S
C2523 C2520 1.403 . S
C2523 C2524 1.524 . S
C2523 C2527 1.400 . S
C2524 H2509 0.960 . S
C2524 H2510 0.960 . S
C2524 H2511 0.960 . S
C2524 C2523 1.524 . S
C2525 C2522 1.403 . S
C2525 C2526 1.392 . S
C2525 C2529 1.495 . S
C2526 C2525 1.392 . S
C2526 C2527 1.385 . S
C2526 C2528 1.478 . S
C2527 H2521 0.930 . S
C2527 C2523 1.400 . S
C2527 C2526 1.385 . S
C2528 C2526 1.478 . S
C2528 C2530 1.381 . S
C2528 C2534 1.383 . S
C2529 C2525 1.495 . S
C2529 H2535 0.959 . S
C2529 H2536 0.961 . S
C2529 H2537 0.960 . S
C2530 C2528 1.381 . S
C2530 C2531 1.394 . S
C2530 H2538 0.930 . S
C2531 C2530 1.394 . S
C2531 C2532 1.383 . S
C2531 H2539 0.929 . S
C2532 C2531 1.383 . S
C2532 C2533 1.377 . S
C2533 H2517 0.930 . S
C2533 C2532 1.377 . S
C2533 C2534 1.379 . S
C2534 H2518 0.931 . S
C2534 C2528 1.383 . S
C2534 C2533 1.379 . S
H2535 C2529 0.959 . S
H2536 C2529 0.961 . S
H2537 C2529 0.960 . S
H2538 C2530 0.930 . S
H2539 C2531 0.929 . S
H2540 C2548 0.929 . S
H2541 C2550 0.930 . S
H2542 C2552 0.930 . S
H2543 C2555 0.929 . S
H2544 C2558 0.930 . S
H2545 C2560 0.960 . S
H2546 C2560 0.960 . S
H2547 C2560 0.960 . S
C2548 H2540 0.929 . S
C2548 C2549 1.377 . S
C2548 C2550 1.384 . S
C2549 C2548 1.377 . S
C2549 C2555 1.390 . S
C2550 H2541 0.930 . S
C2550 C2548 1.384 . S
C2550 C2551 1.372 . S
C2551 C2550 1.372 . S
C2551 C2552 1.400 . S
C2551 C2556 1.490 . S
C2552 H2542 0.930 . S
C2552 C2551 1.400 . S
C2552 C2555 1.386 . S
H2553 C2569 0.930 . S
H2554 C2570 0.931 . S
C2555 H2543 0.929 . S
C2555 C2549 1.390 . S
C2555 C2552 1.386 . S
C2556 C2551 1.490 . S
C2556 C2558 1.395 . S
C2556 C2559 1.403 . S
H2557 C2563 0.930 . S
C2558 H2544 0.930 . S
C2558 C2556 1.395 . S
C2558 C2561 1.403 . S
C2559 C2556 1.403 . S
C2559 C2560 1.524 . S
C2559 C2563 1.400 . S
C2560 H2545 0.960 . S
C2560 H2546 0.960 . S
C2560 H2547 0.960 . S
C2560 C2559 1.524 . S
C2561 C2558 1.403 . S
C2561 C2562 1.392 . S
C2561 C2565 1.495 . S
C2562 C2561 1.392 . S
C2562 C2563 1.385 . S
C2562 C2564 1.478 . S
C2563 H2557 0.930 . S
C2563 C2559 1.400 . S
C2563 C2562 1.385 . S
C2564 C2562 1.478 . S
C2564 C2566 1.381 . S
C2564 C2570 1.383 . S
C2565 C2561 1.495 . S
C2565 H2571 0.959 . S
C2565 H2572 0.961 . S
C2565 H2573 0.960 . S
C2566 C2564 1.381 . S
C2566 C2567 1.394 . S
C2566 H2574 0.930 . S
C2567 C2566 1.394 . S
C2567 C2568 1.383 . S
C2567 H2575 0.929 . S
C2568 C2567 1.383 . S
C2568 C2569 1.377 . S
C2569 H2553 0.930 . S
C2569 C2568 1.377 . S
C2569 C2570 1.379 . S
C2570 H2554 0.931 . S
C2570 C2564 1.383 . S
C2570 C2569 1.379 . S
H2571 C2565 0.959 . S
H2572 C2565 0.961 . S
H2573 C2565 0.960 . S
H2574 C2566 0.930 . S
H2575 C2567 0.929 . S
H2576 C2584 0.929 . S
H2577 C2586 0.930 . S
H2578 C2588 0.930 . S
H2579 C2591 0.929 . S
H2580 C2594 0.930 . S
H2581 C2596 0.960 . S
H2582 C2596 0.960 . S
H2583 C2596 0.960 . S
C2584 H2576 0.929 . S
C2584 C2585 1.377 . S
C2584 C2586 1.384 . S
C2585 C2584 1.377 . S
C2585 C2591 1.390 . S
C2586 H2577 0.930 . S
C2586 C2584 1.384 . S
C2586 C2587 1.372 . S
C2587 C2586 1.372 . S
C2587 C2588 1.400 . S
C2587 C2592 1.490 . S
C2588 H2578 0.930 . S
C2588 C2587 1.400 . S
C2588 C2591 1.386 . S
H2589 C2605 0.930 . S
H2590 C2606 0.931 . S
C2591 H2579 0.929 . S
C2591 C2585 1.390 . S
C2591 C2588 1.386 . S
C2592 C2587 1.490 . S
C2592 C2594 1.395 . S
C2592 C2595 1.403 . S
H2593 C2599 0.930 . S
C2594 H2580 0.930 . S
C2594 C2592 1.395 . S
C2594 C2597 1.403 . S
C2595 C2592 1.403 . S
C2595 C2596 1.524 . S
C2595 C2599 1.400 . S
C2596 H2581 0.960 . S
C2596 H2582 0.960 . S
C2596 H2583 0.960 . S
C2596 C2595 1.524 . S
C2597 C2594 1.403 . S
C2597 C2598 1.392 . S
C2597 C2601 1.495 . S
C2598 C2597 1.392 . S
C2598 C2599 1.385 . S
C2598 C2600 1.478 . S
C2599 H2593 0.930 . S
C2599 C2595 1.400 . S
C2599 C2598 1.385 . S
C2600 C2598 1.478 . S
C2600 C2602 1.381 . S
C2600 C2606 1.383 . S
C2601 C2597 1.495 . S
C2601 H2607 0.959 . S
C2601 H2608 0.961 . S
C2601 H2609 0.960 . S
C2602 C2600 1.381 . S
C2602 C2603 1.394 . S
C2602 H2610 0.930 . S
C2603 C2602 1.394 . S
C2603 C2604 1.383 . S
C2603 H2611 0.929 . S
C2604 C2603 1.383 . S
C2604 C2605 1.377 . S
C2605 H2589 0.930 . S
C2605 C2604 1.377 . S
C2605 C2606 1.379 . S
C2606 H2590 0.931 . S
C2606 C2600 1.383 . S
C2606 C2605 1.379 . S
H2607 C2601 0.959 . S
H2608 C2601 0.961 . S
H2609 C2601 0.960 . S
H2610 C2602 0.930 . S
H2611 C2603 0.929 . S
H2612 C2620 0.929 . S
H2613 C2622 0.930 . S
H2614 C2624 0.930 . S
H2615 C2627 0.929 . S
H2616 C2630 0.930 . S
H2617 C2632 0.960 . S
H2618 C2632 0.960 . S
H2619 C2632 0.960 . S
C2620 H2612 0.929 . S
C2620 C2621 1.377 . S
C2620 C2622 1.384 . S
C2621 C2620 1.377 . S
C2621 C2627 1.390 . S
C2622 H2613 0.930 . S
C2622 C2620 1.384 . S
C2622 C2623 1.372 . S
C2623 C2622 1.372 . S
C2623 C2624 1.400 . S
C2623 C2628 1.490 . S
C2624 H2614 0.930 . S
C2624 C2623 1.400 . S
C2624 C2627 1.386 . S
H2625 C2641 0.930 . S
H2626 C2642 0.931 . S
C2627 H2615 0.929 . S
C2627 C2621 1.390 . S
C2627 C2624 1.386 . S
C2628 C2623 1.490 . S
C2628 C2630 1.395 . S
C2628 C2631 1.403 . S
H2629 C2635 0.930 . S
C2630 H2616 0.930 . S
C2630 C2628 1.395 . S
C2630 C2633 1.403 . S
C2631 C2628 1.403 . S
C2631 C2632 1.524 . S
C2631 C2635 1.400 . S
C2632 H2617 0.960 . S
C2632 H2618 0.960 . S
C2632 H2619 0.960 . S
C2632 C2631 1.524 . S
C2633 C2630 1.403 . S
C2633 C2634 1.392 . S
C2633 C2637 1.495 . S
C2634 C2633 1.392 . S
C2634 C2635 1.385 . S
C2634 C2636 1.478 . S
C2635 H2629 0.930 . S
C2635 C2631 1.400 . S
C2635 C2634 1.385 . S
C2636 C2634 1.478 . S
C2636 C2638 1.381 . S
C2636 C2642 1.383 . S
C2637 C2633 1.495 . S
C2637 H2643 0.959 . S
C2637 H2644 0.961 . S
C2637 H2645 0.960 . S
C2638 C2636 1.381 . S
C2638 C2639 1.394 . S
C2638 H2646 0.930 . S
C2639 C2638 1.394 . S
C2639 C2640 1.383 . S
C2639 H2647 0.929 . S
C2640 C2639 1.383 . S
C2640 C2641 1.377 . S
C2641 H2625 0.930 . S
C2641 C2640 1.377 . S
C2641 C2642 1.379 . S
C2642 H2626 0.931 . S
C2642 C2636 1.383 . S
C2642 C2641 1.379 . S
H2643 C2637 0.959 . S
H2644 C2637 0.961 . S
H2645 C2637 0.960 . S
H2646 C2638 0.930 . S
H2647 C2639 0.929 . S
H2648 C2656 0.929 . S
H2649 C2658 0.930 . S
H2650 C2660 0.930 . S
H2651 C2663 0.929 . S
H2652 C2666 0.930 . S
H2653 C2668 0.960 . S
H2654 C2668 0.960 . S
H2655 C2668 0.960 . S
C2656 H2648 0.929 . S
C2656 C2657 1.377 . S
C2656 C2658 1.384 . S
C2657 C2656 1.377 . S
C2657 C2663 1.390 . S
C2658 H2649 0.930 . S
C2658 C2656 1.384 . S
C2658 C2659 1.372 . S
C2659 C2658 1.372 . S
C2659 C2660 1.400 . S
C2659 C2664 1.490 . S
C2660 H2650 0.930 . S
C2660 C2659 1.400 . S
C2660 C2663 1.386 . S
H2661 C2677 0.930 . S
H2662 C2678 0.931 . S
C2663 H2651 0.929 . S
C2663 C2657 1.390 . S
C2663 C2660 1.386 . S
C2664 C2659 1.490 . S
C2664 C2666 1.395 . S
C2664 C2667 1.403 . S
H2665 C2671 0.930 . S
C2666 H2652 0.930 . S
C2666 C2664 1.395 . S
C2666 C2669 1.403 . S
C2667 C2664 1.403 . S
C2667 C2668 1.524 . S
C2667 C2671 1.400 . S
C2668 H2653 0.960 . S
C2668 H2654 0.960 . S
C2668 H2655 0.960 . S
C2668 C2667 1.524 . S
C2669 C2666 1.403 . S
C2669 C2670 1.392 . S
C2669 C2673 1.495 . S
C2670 C2669 1.392 . S
C2670 C2671 1.385 . S
C2670 C2672 1.478 . S
C2671 H2665 0.930 . S
C2671 C2667 1.400 . S
C2671 C2670 1.385 . S
C2672 C2670 1.478 . S
C2672 C2674 1.381 . S
C2672 C2678 1.383 . S
C2673 C2669 1.495 . S
C2673 H2679 0.959 . S
C2673 H2680 0.961 . S
C2673 H2681 0.960 . S
C2674 C2672 1.381 . S
C2674 C2675 1.394 . S
C2674 H2682 0.930 . S
C2675 C2674 1.394 . S
C2675 C2676 1.383 . S
C2675 H2683 0.929 . S
C2676 C2675 1.383 . S
C2676 C2677 1.377 . S
C2677 H2661 0.930 . S
C2677 C2676 1.377 . S
C2677 C2678 1.379 . S
C2678 H2662 0.931 . S
C2678 C2672 1.383 . S
C2678 C2677 1.379 . S
H2679 C2673 0.959 . S
H2680 C2673 0.961 . S
H2681 C2673 0.960 . S
H2682 C2674 0.930 . S
H2683 C2675 0.929 . S
H2684 C2692 0.929 . S
H2685 C2694 0.930 . S
H2686 C2696 0.930 . S
H2687 C2699 0.929 . S
H2688 C2702 0.930 . S
H2689 C2704 0.960 . S
H2690 C2704 0.960 . S
H2691 C2704 0.960 . S
C2692 H2684 0.929 . S
C2692 C2693 1.377 . S
C2692 C2694 1.384 . S
C2693 C2692 1.377 . S
C2693 C2699 1.390 . S
C2694 H2685 0.930 . S
C2694 C2692 1.384 . S
C2694 C2695 1.372 . S
C2695 C2694 1.372 . S
C2695 C2696 1.400 . S
C2695 C2700 1.490 . S
C2696 H2686 0.930 . S
C2696 C2695 1.400 . S
C2696 C2699 1.386 . S
H2697 C2713 0.930 . S
H2698 C2714 0.931 . S
C2699 H2687 0.929 . S
C2699 C2693 1.390 . S
C2699 C2696 1.386 . S
C2700 C2695 1.490 . S
C2700 C2702 1.395 . S
C2700 C2703 1.403 . S
H2701 C2707 0.930 . S
C2702 H2688 0.930 . S
C2702 C2700 1.395 . S
C2702 C2705 1.403 . S
C2703 C2700 1.403 . S
C2703 C2704 1.524 . S
C2703 C2707 1.400 . S
C2704 H2689 0.960 . S
C2704 H2690 0.960 . S
C2704 H2691 0.960 . S
C2704 C2703 1.524 . S
C2705 C2702 1.403 . S
C2705 C2706 1.392 . S
C2705 C2709 1.495 . S
C2706 C2705 1.392 . S
C2706 C2707 1.385 . S
C2706 C2708 1.478 . S
C2707 H2701 0.930 . S
C2707 C2703 1.400 . S
C2707 C2706 1.385 . S
C2708 C2706 1.478 . S
C2708 C2710 1.381 . S
C2708 C2714 1.383 . S
C2709 C2705 1.495 . S
C2709 H2715 0.959 . S
C2709 H2716 0.961 . S
C2709 H2717 0.960 . S
C2710 C2708 1.381 . S
C2710 C2711 1.394 . S
C2710 H2718 0.930 . S
C2711 C2710 1.394 . S
C2711 C2712 1.383 . S
C2711 H2719 0.929 . S
C2712 C2711 1.383 . S
C2712 C2713 1.377 . S
C2713 H2697 0.930 . S
C2713 C2712 1.377 . S
C2713 C2714 1.379 . S
C2714 H2698 0.931 . S
C2714 C2708 1.383 . S
C2714 C2713 1.379 . S
H2715 C2709 0.959 . S
H2716 C2709 0.961 . S
H2717 C2709 0.960 . S
H2718 C2710 0.930 . S
H2719 C2711 0.929 . S
C425 C81 1.505 . S
C444 C5 1.503 . S
C461 C16 1.506 . S
C480 C96 1.499 . S
C497 C57 1.505 . S
C516 C29 1.502 . S
C533 C42 1.504 . S
C552 C70 1.506 . S
C569 C187 1.506 . S
C588 C107 1.506 . S
C605 C198 1.506 . S
C624 C122 1.506 . S
C641 C135 1.504 . S
C660 C161 1.498 . S
C677 C148 1.504 . S
C696 C172 1.498 . S
C713 C213 1.504 . S
C732 C291 1.505 . S
C749 C226 1.506 . S
C768 C304 1.498 . S
C785 C263 1.506 . S
C804 C239 1.499 . S
C821 C278 1.504 . S
C840 C252 1.506 . S
C857 C317 1.505 . S
C876 C395 1.498 . S
C893 C408 1.506 . S
C912 C330 1.505 . S
C929 C367 1.504 . S
C948 C343 1.498 . S
C965 C356 1.504 . S
C984 C380 1.498 . S
C1001 C3 1.298 . S
C1020 C400 1.296 . S
C1037 C199 1.305 . S
C1056 C18 1.294 . S
C1073 C31 1.301 . S
C1092 C368 1.302 . S
C1109 C44 1.298 . S
C1128 C173 1.299 . S
C1145 C348 1.307 . S
C1164 C55 1.301 . S
C1181 C153 1.307 . S
C1200 C68 1.309 . S
C1217 C83 1.298 . S
C1236 C322 1.296 . S
C1253 C127 1.307 . S
C1272 C94 1.305 . S
C1289 C109 1.299 . S
C1308 C296 1.303 . S
C1325 C101 1.304 . S
C1344 C120 1.310 . S
C1361 C133 1.300 . S
C1380 C264 1.308 . S
C1397 C146 1.298 . S
C1416 C75 1.310 . S
C1433 C244 1.307 . S
C1452 C159 1.289 . S
C1469 C174 1.302 . S
C1488 C43 1.303 . S
C1505 C185 1.301 . S
C1524 C218 1.296 . S
C1541 C17 1.307 . S
C1560 C200 1.293 . S
C1577 C211 1.300 . S
C1596 C192 1.299 . S
C1613 C224 1.301 . S
C1632 C413 1.307 . S
C1649 C166 1.307 . S
C1668 C237 1.304 . S
C1685 C250 1.300 . S
C1704 C381 1.298 . S
C1721 C140 1.307 . S
C1740 C265 1.310 . S
C1757 C361 1.307 . S
C1776 C276 1.305 . S
C1793 C108 1.307 . S
C1812 C289 1.309 . S
C1829 C335 1.305 . S
C1848 C302 1.289 . S
C1865 C315 1.299 . S
C1884 C82 1.304 . S
C1901 C309 1.304 . S
C1920 C328 1.310 . S
C1937 C62 1.304 . S
C1956 C341 1.310 . S
C1973 C354 1.303 . S
C1992 C283 1.297 . S
C2009 C369 1.303 . S
C2028 C30 1.296 . S
C2045 C382 1.303 . S
C2064 C257 1.296 . S
C2081 C10 1.305 . S
C2100 C393 1.307 . S
C2117 C406 1.300 . S
C2136 C231 1.309 . S
C2153 C4 1.437 . S
C2172 C277 1.433 . S
C2189 C290 1.438 . S
C2208 C23 1.435 . S
C2225 C36 1.437 . S
C2244 C303 1.433 . S
C2261 C270 1.437 . S
C2280 C49 1.437 . S
C2297 C251 1.439 . S
C2316 C56 1.438 . S
C2333 C212 1.437 . S
C2352 C69 1.429 . S
C2369 C225 1.436 . S
C2388 C88 1.431 . S
C2405 C238 1.438 . S
C2424 C95 1.437 . S
C2441 C114 1.437 . S
C2460 C387 1.432 . S
C2477 C394 1.436 . S
C2496 C121 1.434 . S
C2513 C407 1.439 . S
C2532 C134 1.434 . S
C2549 C374 1.438 . S
C2568 C147 1.431 . S
C2585 C355 1.439 . S
C2604 C160 1.435 . S
C2621 C316 1.438 . S
C2640 C179 1.432 . S
C2657 C186 1.437 . S
C2676 C329 1.431 . S
C2693 C205 1.436 . S
C2712 C342 1.434 . S
