# Generated by pormake.
# Topology uma, (4)-cn, num edge types: 1
# Building blocks:
#     Node 0, Type 0, BuildingBlock: QUQFOY_clean_sbu_1, # of connection points: 4
#     Node 1, Type 0, BuildingBlock: QUQFOY_clean_sbu_1, # of connection points: 4
#     Node 2, Type 0, BuildingBlock: QUQFOY_clean_sbu_1, # of connection points: 4
#     Node 3, Type 0, BuildingBlock: QUQFOY_clean_sbu_1, # of connection points: 4
#     Node 4, Type 0, BuildingBlock: QUQFOY_clean_sbu_1, # of connection points: 4
#     Node 5, Type 0, BuildingBlock: QUQFOY_clean_sbu_1, # of connection points: 4
#     Node 6, Type 0, BuildingBlock: QUQFOY_clean_sbu_1, # of connection points: 4
#     Node 7, Type 0, BuildingBlock: QUQFOY_clean_sbu_1, # of connection points: 4
#     Node 8, Type 0, BuildingBlock: QUQFOY_clean_sbu_1, # of connection points: 4
#     Node 9, Type 0, BuildingBlock: QUQFOY_clean_sbu_1, # of connection points: 4
#     Node 10, Type 0, BuildingBlock: QUQFOY_clean_sbu_1, # of connection points: 4
#     Node 11, Type 0, BuildingBlock: QUQFOY_clean_sbu_1, # of connection points: 4
#     Node 12, Type 0, BuildingBlock: QUQFOY_clean_sbu_1, # of connection points: 4
#     Node 13, Type 0, BuildingBlock: QUQFOY_clean_sbu_1, # of connection points: 4
#     Node 14, Type 0, BuildingBlock: QUQFOY_clean_sbu_1, # of connection points: 4
#     Node 15, Type 0, BuildingBlock: QUQFOY_clean_sbu_1, # of connection points: 4
#     Node 16, Type 0, BuildingBlock: QUQFOY_clean_sbu_1, # of connection points: 4
#     Node 17, Type 0, BuildingBlock: QUQFOY_clean_sbu_1, # of connection points: 4
#     Node 18, Type 0, BuildingBlock: QUQFOY_clean_sbu_1, # of connection points: 4
#     Node 19, Type 0, BuildingBlock: QUQFOY_clean_sbu_1, # of connection points: 4
#     Node 20, Type 0, BuildingBlock: QUQFOY_clean_sbu_1, # of connection points: 4
#     Node 21, Type 0, BuildingBlock: QUQFOY_clean_sbu_1, # of connection points: 4
#     Node 22, Type 0, BuildingBlock: QUQFOY_clean_sbu_1, # of connection points: 4
#     Node 23, Type 0, BuildingBlock: QUQFOY_clean_sbu_1, # of connection points: 4
#     Node 24, Type 0, BuildingBlock: QUQFOY_clean_sbu_1, # of connection points: 4
#     Node 25, Type 0, BuildingBlock: QUQFOY_clean_sbu_1, # of connection points: 4
#     Node 26, Type 0, BuildingBlock: QUQFOY_clean_sbu_1, # of connection points: 4
#     Node 27, Type 0, BuildingBlock: QUQFOY_clean_sbu_1, # of connection points: 4
#     Node 28, Type 0, BuildingBlock: QUQFOY_clean_sbu_1, # of connection points: 4
#     Node 29, Type 0, BuildingBlock: QUQFOY_clean_sbu_1, # of connection points: 4
#     Node 30, Type 0, BuildingBlock: QUQFOY_clean_sbu_1, # of connection points: 4
#     Node 31, Type 0, BuildingBlock: QUQFOY_clean_sbu_1, # of connection points: 4
#     Node 32, Type 0, BuildingBlock: QUQFOY_clean_sbu_1, # of connection points: 4
#     Node 33, Type 0, BuildingBlock: QUQFOY_clean_sbu_1, # of connection points: 4
#     Node 34, Type 0, BuildingBlock: QUQFOY_clean_sbu_1, # of connection points: 4
#     Node 35, Type 0, BuildingBlock: QUQFOY_clean_sbu_1, # of connection points: 4
#     Edge 36, Type (0, 0), BuildingBlock: XIVTED_clean_linker_0, # of connection points: 2
#     Edge 37, Type (0, 0), BuildingBlock: XIVTED_clean_linker_0, # of connection points: 2
#     Edge 38, Type (0, 0), BuildingBlock: XIVTED_clean_linker_0, # of connection points: 2
#     Edge 39, Type (0, 0), BuildingBlock: XIVTED_clean_linker_0, # of connection points: 2
#     Edge 40, Type (0, 0), BuildingBlock: XIVTED_clean_linker_0, # of connection points: 2
#     Edge 41, Type (0, 0), BuildingBlock: XIVTED_clean_linker_0, # of connection points: 2
#     Edge 42, Type (0, 0), BuildingBlock: XIVTED_clean_linker_0, # of connection points: 2
#     Edge 43, Type (0, 0), BuildingBlock: XIVTED_clean_linker_0, # of connection points: 2
#     Edge 44, Type (0, 0), BuildingBlock: XIVTED_clean_linker_0, # of connection points: 2
#     Edge 45, Type (0, 0), BuildingBlock: XIVTED_clean_linker_0, # of connection points: 2
#     Edge 46, Type (0, 0), BuildingBlock: XIVTED_clean_linker_0, # of connection points: 2
#     Edge 47, Type (0, 0), BuildingBlock: XIVTED_clean_linker_0, # of connection points: 2
#     Edge 48, Type (0, 0), BuildingBlock: XIVTED_clean_linker_0, # of connection points: 2
#     Edge 49, Type (0, 0), BuildingBlock: XIVTED_clean_linker_0, # of connection points: 2
#     Edge 50, Type (0, 0), BuildingBlock: XIVTED_clean_linker_0, # of connection points: 2
#     Edge 51, Type (0, 0), BuildingBlock: XIVTED_clean_linker_0, # of connection points: 2
#     Edge 52, Type (0, 0), BuildingBlock: XIVTED_clean_linker_0, # of connection points: 2
#     Edge 53, Type (0, 0), BuildingBlock: XIVTED_clean_linker_0, # of connection points: 2
#     Edge 54, Type (0, 0), BuildingBlock: XIVTED_clean_linker_0, # of connection points: 2
#     Edge 55, Type (0, 0), BuildingBlock: XIVTED_clean_linker_0, # of connection points: 2
#     Edge 56, Type (0, 0), BuildingBlock: XIVTED_clean_linker_0, # of connection points: 2
#     Edge 57, Type (0, 0), BuildingBlock: XIVTED_clean_linker_0, # of connection points: 2
#     Edge 58, Type (0, 0), BuildingBlock: XIVTED_clean_linker_0, # of connection points: 2
#     Edge 59, Type (0, 0), BuildingBlock: XIVTED_clean_linker_0, # of connection points: 2
#     Edge 60, Type (0, 0), BuildingBlock: XIVTED_clean_linker_0, # of connection points: 2
#     Edge 61, Type (0, 0), BuildingBlock: XIVTED_clean_linker_0, # of connection points: 2
#     Edge 62, Type (0, 0), BuildingBlock: XIVTED_clean_linker_0, # of connection points: 2
#     Edge 63, Type (0, 0), BuildingBlock: XIVTED_clean_linker_0, # of connection points: 2
#     Edge 64, Type (0, 0), BuildingBlock: XIVTED_clean_linker_0, # of connection points: 2
#     Edge 65, Type (0, 0), BuildingBlock: XIVTED_clean_linker_0, # of connection points: 2
#     Edge 66, Type (0, 0), BuildingBlock: XIVTED_clean_linker_0, # of connection points: 2
#     Edge 67, Type (0, 0), BuildingBlock: XIVTED_clean_linker_0, # of connection points: 2
#     Edge 68, Type (0, 0), BuildingBlock: XIVTED_clean_linker_0, # of connection points: 2
#     Edge 69, Type (0, 0), BuildingBlock: XIVTED_clean_linker_0, # of connection points: 2
#     Edge 70, Type (0, 0), BuildingBlock: XIVTED_clean_linker_0, # of connection points: 2
#     Edge 71, Type (0, 0), BuildingBlock: XIVTED_clean_linker_0, # of connection points: 2
#     Edge 72, Type (0, 0), BuildingBlock: XIVTED_clean_linker_0, # of connection points: 2
#     Edge 73, Type (0, 0), BuildingBlock: XIVTED_clean_linker_0, # of connection points: 2
#     Edge 74, Type (0, 0), BuildingBlock: XIVTED_clean_linker_0, # of connection points: 2
#     Edge 75, Type (0, 0), BuildingBlock: XIVTED_clean_linker_0, # of connection points: 2
#     Edge 76, Type (0, 0), BuildingBlock: XIVTED_clean_linker_0, # of connection points: 2
#     Edge 77, Type (0, 0), BuildingBlock: XIVTED_clean_linker_0, # of connection points: 2
#     Edge 78, Type (0, 0), BuildingBlock: XIVTED_clean_linker_0, # of connection points: 2
#     Edge 79, Type (0, 0), BuildingBlock: XIVTED_clean_linker_0, # of connection points: 2
#     Edge 80, Type (0, 0), BuildingBlock: XIVTED_clean_linker_0, # of connection points: 2
#     Edge 81, Type (0, 0), BuildingBlock: XIVTED_clean_linker_0, # of connection points: 2
#     Edge 82, Type (0, 0), BuildingBlock: XIVTED_clean_linker_0, # of connection points: 2
#     Edge 83, Type (0, 0), BuildingBlock: XIVTED_clean_linker_0, # of connection points: 2
#     Edge 84, Type (0, 0), BuildingBlock: XIVTED_clean_linker_0, # of connection points: 2
#     Edge 85, Type (0, 0), BuildingBlock: XIVTED_clean_linker_0, # of connection points: 2
#     Edge 86, Type (0, 0), BuildingBlock: XIVTED_clean_linker_0, # of connection points: 2
#     Edge 87, Type (0, 0), BuildingBlock: XIVTED_clean_linker_0, # of connection points: 2
#     Edge 88, Type (0, 0), BuildingBlock: XIVTED_clean_linker_0, # of connection points: 2
#     Edge 89, Type (0, 0), BuildingBlock: XIVTED_clean_linker_0, # of connection points: 2
#     Edge 90, Type (0, 0), BuildingBlock: XIVTED_clean_linker_0, # of connection points: 2
#     Edge 91, Type (0, 0), BuildingBlock: XIVTED_clean_linker_0, # of connection points: 2
#     Edge 92, Type (0, 0), BuildingBlock: XIVTED_clean_linker_0, # of connection points: 2
#     Edge 93, Type (0, 0), BuildingBlock: XIVTED_clean_linker_0, # of connection points: 2
#     Edge 94, Type (0, 0), BuildingBlock: XIVTED_clean_linker_0, # of connection points: 2
#     Edge 95, Type (0, 0), BuildingBlock: XIVTED_clean_linker_0, # of connection points: 2
#     Edge 96, Type (0, 0), BuildingBlock: XIVTED_clean_linker_0, # of connection points: 2
#     Edge 97, Type (0, 0), BuildingBlock: XIVTED_clean_linker_0, # of connection points: 2
#     Edge 98, Type (0, 0), BuildingBlock: XIVTED_clean_linker_0, # of connection points: 2
#     Edge 99, Type (0, 0), BuildingBlock: XIVTED_clean_linker_0, # of connection points: 2
#     Edge 100, Type (0, 0), BuildingBlock: XIVTED_clean_linker_0, # of connection points: 2
#     Edge 101, Type (0, 0), BuildingBlock: XIVTED_clean_linker_0, # of connection points: 2
#     Edge 102, Type (0, 0), BuildingBlock: XIVTED_clean_linker_0, # of connection points: 2
#     Edge 103, Type (0, 0), BuildingBlock: XIVTED_clean_linker_0, # of connection points: 2
#     Edge 104, Type (0, 0), BuildingBlock: XIVTED_clean_linker_0, # of connection points: 2
#     Edge 105, Type (0, 0), BuildingBlock: XIVTED_clean_linker_0, # of connection points: 2
#     Edge 106, Type (0, 0), BuildingBlock: XIVTED_clean_linker_0, # of connection points: 2
#     Edge 107, Type (0, 0), BuildingBlock: XIVTED_clean_linker_0, # of connection points: 2
# Relax obj value: 0.073
# Max RMSD: 0.238
# Mean RMSD: 0.237
data_MOF--net-uma--node1-QUQFOY_clean_sbu_1--edge1-XIVTED_clean_linker_0
_symmetry_space_group_name_H-M    P1
_symmetry_Int_Tables_number       1
_symmetry_cell_setting            triclinic
loop_
_symmetry_equiv_pos_as_xyz
'x, y, z'
_cell_length_a     88.282618
_cell_length_b     88.289734
_cell_length_c     40.002087
_cell_angle_alpha  90.021391
_cell_angle_beta   89.980236
_cell_angle_gamma 120.03542
loop_
_atom_site_label
_atom_site_type_symbol
_atom_site_fract_x
_atom_site_fract_y
_atom_site_fract_z
_atom_type_partial_charge
O0 O 0.079 0.32709 0.9871 0.0
Cd1 Cd 0.0772 0.32086 0.0369 0.0
Cd2 Cd 0.05618 0.33427 0.03845 0.0
O3 O 0.06217 0.33896 0.98765 0.0
O4 O 0.09512 0.31388 0.04293 0.0
O5 O 0.09643 0.33654 0.06922 0.0
C6 C 0.10311 0.32673 0.06339 0.0
C7 C 0.05859 0.35482 0.07819 0.0
C8 C 0.07144 0.33403 0.97164 0.0
C9 C 0.03975 0.29581 0.05138 0.0
O10 O 0.03742 0.30885 0.0488 0.0
O11 O 0.05492 0.29776 0.04845 0.0
O12 O 0.0468 0.34935 0.0551 0.0
O13 O 0.06976 0.34941 0.07749 0.0
O14 O 0.66262 0.74875 0.98706 0.0
Cd15 Cd 0.6685 0.75338 0.03698 0.0
Cd16 Cd 0.65521 0.71899 0.03909 0.0
O17 O 0.65101 0.72008 0.98801 0.0
O18 O 0.67569 0.77839 0.04222 0.0
O19 O 0.65287 0.75737 0.06872 0.0
C20 C 0.66286 0.77381 0.06259 0.0
C21 C 0.63417 0.70099 0.07824 0.0
C22 C 0.65598 0.7342 0.97174 0.0
C23 C 0.69353 0.74112 0.05282 0.0
O24 O 0.68054 0.7257 0.05045 0.0
O25 O 0.69154 0.75427 0.04923 0.0
O26 O 0.6399 0.69459 0.0558 0.0
O27 O 0.63965 0.71758 0.07723 0.0
O28 O 0.2423 0.90715 0.98725 0.0
Cd29 Cd 0.23631 0.9072 0.03686 0.0
Cd30 Cd 0.27084 0.93034 0.04121 0.0
O31 O 0.27055 0.92634 0.98961 0.0
O32 O 0.21096 0.88988 0.03761 0.0
O33 O 0.22999 0.8866 0.06803 0.0
C34 C 0.214 0.88099 0.05922 0.0
C35 C 0.28947 0.92847 0.08064 0.0
C36 C 0.25685 0.91657 0.97259 0.0
C37 C 0.24668 0.94409 0.05438 0.0
O38 O 0.26248 0.94756 0.05343 0.0
O39 O 0.23427 0.92866 0.04927 0.0
O40 O 0.29531 0.94085 0.05869 0.0
O41 O 0.27318 0.91642 0.07881 0.0
O42 O 0.33498 0.08657 0.04131 0.0
Cd43 Cd 0.32915 0.08611 0.99152 0.0
Cd44 Cd 0.33858 0.06185 0.98841 0.0
O45 O 0.3425 0.06622 0.03993 0.0
O46 O 0.32393 0.10538 0.9877 0.0
O47 O 0.34517 0.1051 0.95893 0.0
C48 C 0.33631 0.11266 0.96614 0.0
C49 C 0.35845 0.06229 0.94902 0.0
C50 C 0.33938 0.07672 0.05647 0.0
C51 C 0.30096 0.04985 0.97534 0.0
O52 O 0.31272 0.04558 0.9765 0.0
O53 O 0.30483 0.06558 0.97995 0.0
O54 O 0.35148 0.05015 0.97136 0.0
O55 O 0.35502 0.07491 0.95042 0.0
O56 O 0.90305 0.258 0.04785 0.0
Cd57 Cd 0.8994 0.24609 1.00218 0.0
Cd58 Cd 0.92741 0.27781 0.98753 0.0
O59 O 0.92777 0.28246 0.03871 0.0
O60 O 0.87875 0.22374 0.01585 0.0
O61 O 0.87786 0.23894 0.97298 0.0
C62 C 0.86992 0.22553 0.99233 0.0
C63 C 0.92761 0.29647 0.94584 0.0
C64 C 0.91598 0.272 0.05876 0.0
C65 C 0.93251 0.24695 0.98168 0.0
O66 O 0.93877 0.26313 0.97556 0.0
O67 O 0.91704 0.23778 0.99281 0.0
O68 O 0.94114 0.30084 0.96439 0.0
O69 O 0.91359 0.28173 0.9519 0.0
O70 O 0.73101 0.64414 0.04376 0.0
Cd71 Cd 0.74156 0.65101 0.99675 0.0
Cd72 Cd 0.70996 0.64761 0.98481 0.0
O73 O 0.70588 0.64323 0.03611 0.0
O74 O 0.76359 0.65116 1.00682 0.0
O75 O 0.74581 0.63491 0.9665 0.0
C76 C 0.75985 0.63976 0.98368 0.0
C77 C 0.69063 0.62946 0.9435 0.0
C78 C 0.717 0.64269 0.05556 0.0
C79 C 0.74127 0.68345 0.97705 0.0
O80 O 0.72486 0.67371 0.97311 0.0
O81 O 0.7506 0.67698 0.98622 0.0
O82 O 0.68671 0.63872 0.96276 0.0
O83 O 0.7053 0.62989 0.94861 0.0
O84 O 0.89927 0.63955 0.04997 0.0
Cd85 Cd 0.89557 0.64683 1.00336 0.0
Cd86 Cd 0.92366 0.64404 0.98964 0.0
O87 O 0.92401 0.63986 0.04097 0.0
O88 O 0.87322 0.64615 1.01269 0.0
O89 O 0.87596 0.63106 0.97146 0.0
C90 C 0.86624 0.63533 0.98841 0.0
C91 C 0.92424 0.62603 0.9473 0.0
C92 C 0.91233 0.63879 0.06108 0.0
C93 C 0.92789 0.67969 0.98377 0.0
O94 O 0.93458 0.67011 0.97806 0.0
O95 O 0.91226 0.673 0.99422 0.0
O96 O 0.93769 0.6352 0.96605 0.0
O97 O 0.91006 0.62641 0.95365 0.0
O98 O 0.33262 0.24446 0.04365 0.0
Cd99 Cd 0.32709 0.23912 0.99375 0.0
Cd100 Cd 0.33839 0.2732 0.99025 0.0
O101 O 0.34248 0.27286 0.04165 0.0
O102 O 0.32101 0.21437 0.9898 0.0
O103 O 0.34326 0.23566 0.96252 0.0
C104 C 0.3338 0.21921 0.96923 0.0
C105 C 0.35856 0.2916 0.95029 0.0
C106 C 0.33824 0.25904 0.05848 0.0
C107 C 0.30047 0.24907 0.97623 0.0
O108 O 0.31277 0.26484 0.97835 0.0
O109 O 0.30344 0.23658 0.98066 0.0
O110 O 0.35236 0.2976 0.9726 0.0
O111 O 0.35423 0.2753 0.95211 0.0
O112 O 0.73191 0.07861 0.0462 0.0
Cd113 Cd 0.74181 0.08258 0.99859 0.0
Cd114 Cd 0.70881 0.05543 0.98786 0.0
O115 O 0.70549 0.05595 0.03941 0.0
O116 O 0.76496 0.10277 1.01001 0.0
O117 O 0.74801 0.10463 0.97176 0.0
C118 C 0.76226 0.11212 0.98897 0.0
C119 C 0.68981 0.05563 0.94733 0.0
C120 C 0.71754 0.06688 0.05851 0.0
C121 C 0.7387 0.04888 0.97632 0.0
O122 O 0.72229 0.04293 0.97473 0.0
O123 O 0.74902 0.06464 0.98478 0.0
O124 O 0.68524 0.04225 0.96644 0.0
O125 O 0.70495 0.06934 0.9523 0.0
O126 O 0.65367 0.90181 0.98496 0.0
Cd127 Cd 0.66192 0.90432 0.03363 0.0
Cd128 Cd 0.6502 0.92681 0.03773 0.0
O129 O 0.64459 0.92097 0.98706 0.0
O130 O 0.66889 0.88632 0.03784 0.0
O131 O 0.64795 0.88595 0.06881 0.0
C132 C 0.65737 0.87907 0.06099 0.0
C133 C 0.6305 0.92538 0.07853 0.0
C134 C 0.64771 0.91053 0.97038 0.0
C135 C 0.68867 0.94173 0.04598 0.0
O136 O 0.67606 0.94478 0.04672 0.0
O137 O 0.68584 0.92633 0.04134 0.0
O138 O 0.63623 0.93722 0.05553 0.0
O139 O 0.63519 0.91367 0.07725 0.0
O140 O 0.07298 0.75251 0.98648 0.0
Cd141 Cd 0.07337 0.75608 0.03721 0.0
Cd142 Cd 0.05616 0.72163 0.03668 0.0
O143 O 0.06388 0.72424 0.98648 0.0
O144 O 0.0905 0.7812 0.04375 0.0
O145 O 0.09429 0.76021 0.06495 0.0
C146 C 0.09995 0.77668 0.06082 0.0
C147 C 0.05911 0.70414 0.07725 0.0
C148 C 0.06907 0.73855 0.97068 0.0
C149 C 0.03623 0.74028 0.05303 0.0
O150 O 0.03555 0.72597 0.04534 0.0
O151 O 0.05078 0.7544 0.05439 0.0
O152 O 0.04817 0.6973 0.05284 0.0
O153 O 0.06929 0.72094 0.07733 0.0
O154 O 0.24167 0.33794 0.98572 0.0
Cd155 Cd 0.23551 0.32981 0.03439 0.0
Cd156 Cd 0.26963 0.3409 0.03937 0.0
O157 O 0.26972 0.3462 0.98842 0.0
O158 O 0.21057 0.32313 0.0378 0.0
O159 O 0.23102 0.34376 0.06948 0.0
C160 C 0.21476 0.33449 0.06122 0.0
C161 C 0.28824 0.36032 0.08019 0.0
C162 C 0.25634 0.34337 0.97139 0.0
C163 C 0.24538 0.30262 0.0479 0.0
O164 O 0.26115 0.31502 0.04898 0.0
O165 O 0.23305 0.30571 0.04251 0.0
O166 O 0.29406 0.35431 0.05715 0.0
O167 O 0.27197 0.35617 0.07881 0.0
O168 O 0.74482 0.66786 0.31187 0.0
Cd169 Cd 0.74572 0.66156 0.36096 0.0
Cd170 Cd 0.72259 0.67275 0.36764 0.0
O171 O 0.72575 0.67696 0.31617 0.0
O172 O 0.76326 0.65387 0.35882 0.0
O173 O 0.76707 0.67599 0.39039 0.0
C174 C 0.7727 0.66587 0.37995 0.0
C175 C 0.72564 0.69303 0.40835 0.0
C176 C 0.73536 0.67322 0.29825 0.0
C177 C 0.70923 0.63488 0.38067 0.0
O178 O 0.70565 0.64713 0.38001 0.0
O179 O 0.7246 0.63796 0.37453 0.0
O180 O 0.71278 0.68679 0.38743 0.0
O181 O 0.73747 0.68861 0.40474 0.0
O182 O 0.31225 0.07747 0.31409 0.0
Cd183 Cd 0.31865 0.08324 0.36361 0.0
Cd184 Cd 0.30854 0.04962 0.36797 0.0
O185 O 0.30391 0.0494 0.31663 0.0
O186 O 0.32414 0.10781 0.36764 0.0
O187 O 0.3029 0.08636 0.39656 0.0
C188 C 0.31187 0.10279 0.38944 0.0
C189 C 0.28919 0.03177 0.40953 0.0
C190 C 0.30724 0.06292 0.29955 0.0
C191 C 0.34644 0.07456 0.37904 0.0
O192 O 0.33441 0.05863 0.37845 0.0
O193 O 0.34289 0.08665 0.37447 0.0
O194 O 0.29509 0.02549 0.38718 0.0
O195 O 0.29329 0.04799 0.40681 0.0
O196 O 0.91602 0.24497 0.31419 0.0
Cd197 Cd 0.90871 0.2431 0.36346 0.0
Cd198 Cd 0.94315 0.26698 0.3699 0.0
O199 O 0.94418 0.26418 0.31831 0.0
O200 O 0.88343 0.22593 0.35965 0.0
O201 O 0.90098 0.22087 0.39083 0.0
C202 C 0.88544 0.2158 0.37984 0.0
C203 C 0.9609 0.26423 0.40987 0.0
C204 C 0.93077 0.25467 0.30044 0.0
C205 C 0.91792 0.27931 0.38437 0.0
O206 O 0.93389 0.28338 0.3829 0.0
O207 O 0.90588 0.26377 0.37863 0.0
O208 O 0.96714 0.27723 0.3893 0.0
O209 O 0.94472 0.25213 0.40638 0.0
O210 O 0.00565 0.42423 0.37356 0.0
Cd211 Cd -0.00244 0.42264 0.32499 0.0
Cd212 Cd 0.00639 0.39817 0.31963 0.0
O213 O 0.01182 0.40295 0.37061 0.0
O214 O -0.00634 0.44275 0.32052 0.0
O215 O 0.01258 0.43974 0.28892 0.0
C216 C 0.00502 0.44851 0.29683 0.0
C217 C 0.0252 0.39734 0.27928 0.0
C218 C 0.00999 0.4141 0.38778 0.0
C219 C 0.96846 0.38644 0.31206 0.0
O220 O 0.98018 0.38214 0.31012 0.0
O221 O 0.97259 0.40217 0.31776 0.0
O222 O 0.01827 0.38552 0.30219 0.0
O223 O 0.02226 0.41028 0.28039 0.0
O224 O 0.56288 0.57843 0.37291 0.0
Cd225 Cd 0.56451 0.57208 0.32423 0.0
Cd226 Cd 0.5885 0.60585 0.3193 0.0
O227 O 0.58332 0.60626 0.37014 0.0
O228 O 0.54501 0.54771 0.32024 0.0
O229 O 0.54674 0.56919 0.28893 0.0
C230 C 0.53861 0.55285 0.29695 0.0
C231 C 0.58924 0.62541 0.27895 0.0
C232 C 0.57245 0.59305 0.38718 0.0
C233 C 0.601 0.58027 0.31069 0.0
O234 O 0.60498 0.59622 0.30977 0.0
O235 O 0.58537 0.56833 0.31604 0.0
O236 O 0.6009 0.63044 0.3022 0.0
O237 O 0.57645 0.60943 0.27978 0.0
O238 O 0.41365 -0.00396 0.37353 0.0
Cd239 Cd 0.41741 -0.00076 0.32278 0.0
Cd240 Cd 0.38301 0.98371 0.32298 0.0
O241 O 0.38501 0.97856 0.37342 0.0
O242 O 0.44239 0.00669 0.31646 0.0
O243 O 0.42109 0.98241 0.29414 0.0
C244 C 0.43761 0.99298 0.29838 0.0
C245 C 0.36521 0.96382 0.28196 0.0
C246 C 0.39942 0.9869 0.38931 0.0
C247 C 0.40343 0.02218 0.30681 0.0
O248 O 0.38868 0.00904 0.31413 0.0
O249 O 0.41707 0.02089 0.306 0.0
O250 O 0.3586 0.9683 0.30619 0.0
O251 O 0.38187 0.96963 0.28244 0.0
O252 O 0.56738 0.98669 0.3708 0.0
Cd253 Cd 0.56907 0.99364 0.32144 0.0
Cd254 Cd 0.59163 0.98204 0.31853 0.0
O255 O 0.58613 0.97709 0.36945 0.0
O256 O 0.55089 0.00035 0.31713 0.0
O257 O 0.55015 0.97874 0.28782 0.0
C258 C 0.54331 0.98826 0.29508 0.0
C259 C 0.59056 0.96227 0.27831 0.0
C260 C 0.57605 0.98083 0.38587 0.0
C261 C 0.60618 0.02033 0.3077 0.0
O262 O 0.60936 0.00781 0.30862 0.0
O263 O 0.59073 0.01748 0.31156 0.0
O264 O 0.60235 0.96824 0.3014 0.0
O265 O 0.57861 0.96667 0.27933 0.0
O266 O -0.00083 0.57813 0.36805 0.0
Cd267 Cd -0.00664 0.57271 0.31825 0.0
Cd268 Cd 0.00325 0.60659 0.31517 0.0
O269 O 0.0076 0.60624 0.36648 0.0
O270 O 0.9881 0.54819 0.31417 0.0
O271 O 0.00968 0.56987 0.28631 0.0
C272 C 0.00076 0.5534 0.2932 0.0
C273 C 0.0229 0.62628 0.27577 0.0
C274 C 0.00413 0.59254 0.38309 0.0
C275 C 0.96543 0.58111 0.30261 0.0
O276 O 0.97732 0.59709 0.30409 0.0
O277 O 0.96914 0.56909 0.30658 0.0
O278 O 0.01597 0.63129 0.29847 0.0
O279 O 0.01954 0.61025 0.27673 0.0
O280 O 0.41007 0.41693 0.37568 0.0
Cd281 Cd 0.415 0.41636 0.32567 0.0
Cd282 Cd 0.38108 0.3934 0.32311 0.0
O283 O 0.38172 0.39808 0.37446 0.0
O284 O 0.43956 0.43536 0.32045 0.0
O285 O 0.41767 0.43547 0.29387 0.0
C286 C 0.43421 0.44285 0.29987 0.0
C287 C 0.36242 0.39509 0.28364 0.0
C288 C 0.39562 0.40791 0.39092 0.0
C289 C 0.40534 0.37977 0.30914 0.0
O290 O 0.38953 0.37618 0.31126 0.0
O291 O 0.41775 0.39532 0.31318 0.0
O292 O 0.35657 0.38287 0.3059 0.0
O293 O 0.37874 0.40708 0.28515 0.0
O294 O 0.31405 0.23561 0.31791 0.0
Cd295 Cd 0.32107 0.23662 0.36711 0.0
Cd296 Cd 0.31264 0.26136 0.3713 0.0
O297 O 0.30776 0.25682 0.32008 0.0
O298 O 0.32488 0.21647 0.37165 0.0
O299 O 0.30507 0.21889 0.40147 0.0
C300 C 0.31288 0.21028 0.39414 0.0
C301 C 0.29345 0.26118 0.41189 0.0
C302 C 0.30987 0.24576 0.30323 0.0
C303 C 0.35026 0.2726 0.38159 0.0
O304 O 0.33874 0.27721 0.3819 0.0
O305 O 0.34595 0.25678 0.37647 0.0
O306 O 0.30027 0.27335 0.38958 0.0
O307 O 0.29667 0.24844 0.40987 0.0
O308 O 0.74759 0.06836 0.31248 0.0
Cd309 Cd 0.74931 0.0775 0.36036 0.0
Cd310 Cd 0.72408 0.04318 0.37042 0.0
O311 O 0.72628 0.04108 0.31891 0.0
O312 O 0.76639 0.10254 0.35273 0.0
O313 O 0.77145 0.08677 0.38879 0.0
C314 C 0.77643 0.1017 0.37489 0.0
C315 C 0.72542 0.02486 0.41106 0.0
C316 C 0.73678 0.05358 0.30004 0.0
C317 C 0.71331 0.06986 0.38092 0.0
O318 O 0.70877 0.05378 0.38278 0.0
O319 O 0.7288 0.08119 0.37281 0.0
O320 O 0.71246 0.01925 0.39047 0.0
O321 O 0.73823 0.0407 0.40732 0.0
O322 O 0.91388 0.669 0.31607 0.0
Cd323 Cd 0.90697 0.66327 0.36548 0.0
Cd324 Cd 0.94135 0.67334 0.37101 0.0
O325 O 0.94185 0.677 0.31936 0.0
O326 O 0.88167 0.65532 0.36312 0.0
O327 O 0.89975 0.67769 0.3944 0.0
C328 C 0.88405 0.66731 0.38406 0.0
C329 C 0.95978 0.69378 0.4106 0.0
C330 C 0.92843 0.67358 0.30189 0.0
C331 C 0.91588 0.63581 0.3848 0.0
O332 O 0.9319 0.64761 0.38375 0.0
O333 O 0.90399 0.63954 0.3793 0.0
O334 O 0.9656 0.68682 0.38953 0.0
O335 O 0.94364 0.68993 0.40787 0.0
O336 O 0.40871 0.9893 0.65549 0.0
Cd337 Cd 0.40953 0.98676 0.70636 0.0
Cd338 Cd 0.39186 0.00346 0.70549 0.0
O339 O 0.39907 0.00803 0.65495 0.0
O340 O 0.4269 0.97916 0.71343 0.0
O341 O 0.43042 0.00407 0.73356 0.0
C342 C 0.43621 0.99332 0.73013 0.0
C343 C 0.3948 0.024 0.74583 0.0
C344 C 0.40435 -0.00107 0.63938 0.0
C345 C 0.3726 0.96514 0.72351 0.0
O346 O 0.37158 0.97851 0.71526 0.0
O347 O 0.38727 0.96584 0.72455 0.0
O348 O 0.38374 0.0197 0.7216 0.0
O349 O 0.40518 0.01763 0.74571 0.0
O350 O 0.98964 0.41607 0.64875 0.0
Cd351 Cd -0.00477 0.42057 0.69881 0.0
Cd352 Cd 0.98349 0.38665 0.70049 0.0
O353 O 0.97923 0.38756 0.64937 0.0
O354 O 0.00095 0.44507 0.70538 0.0
O355 O 0.97868 0.42285 0.73089 0.0
C356 C 0.98796 0.43946 0.7257 0.0
C357 C 0.96329 0.36912 0.74103 0.0
C358 C 0.98367 0.40163 0.63325 0.0
C359 C 0.02147 0.40998 0.7148 0.0
O360 O 0.00899 0.39433 0.71194 0.0
O361 O 0.01879 0.4227 0.71127 0.0
O362 O 0.96878 0.36246 0.71863 0.0
O363 O 0.96831 0.38559 0.73885 0.0
O364 O 0.56762 0.57366 0.64987 0.0
Cd365 Cd 0.56333 0.57473 0.70003 0.0
Cd366 Cd 0.59761 0.5958 0.70166 0.0
O367 O 0.59637 0.59028 0.65062 0.0
O368 O 0.53907 0.55555 0.70814 0.0
O369 O 0.56216 0.55617 0.73123 0.0
C370 C 0.54542 0.54835 0.72717 0.0
C371 C 0.61545 0.59318 0.74167 0.0
C372 C 0.58215 0.58131 0.63446 0.0
C373 C 0.57526 0.61171 0.71656 0.0
O374 O 0.59064 0.61418 0.71306 0.0
O375 O 0.56205 0.59654 0.71338 0.0
O376 O 0.62198 0.60514 0.71891 0.0
O377 O 0.5989 0.5819 0.74023 0.0
O378 O 0.67564 0.75734 0.71152 0.0
Cd379 Cd 0.66663 0.75606 0.66378 0.0
Cd380 Cd 0.67372 0.7307 0.65652 0.0
O381 O 0.67942 0.73455 0.70751 0.0
O382 O 0.6649 0.77749 0.6602 0.0
O383 O 0.68119 0.77186 0.62591 0.0
C384 C 0.67535 0.78199 0.63505 0.0
C385 C 0.69242 0.73113 0.61469 0.0
C386 C 0.67901 0.74637 0.72514 0.0
C387 C 0.63623 0.72075 0.65011 0.0
O388 O 0.6474 0.7158 0.64655 0.0
O389 O 0.6411 0.73648 0.65761 0.0
O390 O 0.68536 0.71847 0.63601 0.0
O391 O 0.68963 0.74408 0.61828 0.0
O392 O 0.22857 0.92047 0.7177 0.0
Cd393 Cd 0.22871 0.91147 0.67055 0.0
Cd394 Cd 0.25504 0.94314 0.66066 0.0
O395 O 0.25298 0.94569 0.71224 0.0
O396 O 0.20647 0.88884 0.67026 0.0
O397 O 0.21278 0.90938 0.63224 0.0
C398 C 0.2021 0.89404 0.64388 0.0
C399 C 0.25515 0.96184 0.61902 0.0
C400 C 0.24086 0.93429 0.7307 0.0
C401 C 0.263 0.91425 0.65544 0.0
O402 O 0.26842 0.9303 0.64944 0.0
O403 O 0.2474 0.90424 0.66515 0.0
O404 O 0.2681 0.96684 0.63946 0.0
O405 O 0.24162 0.9465 0.62341 0.0
O406 O 0.07858 0.31908 0.70994 0.0
Cd407 Cd 0.08473 0.3271 0.66121 0.0
Cd408 Cd 0.05108 0.31652 0.656 0.0
O409 O 0.0506 0.31102 0.70688 0.0
O410 O 0.10919 0.33241 0.65635 0.0
O411 O 0.08757 0.31226 0.62579 0.0
C412 C 0.10399 0.32079 0.63315 0.0
C413 C 0.03325 0.29716 0.61453 0.0
C414 C 0.06387 0.3137 0.72407 0.0
C415 C 0.07565 0.35472 0.64725 0.0
O416 O 0.05982 0.34245 0.64625 0.0
O417 O 0.08784 0.35144 0.65284 0.0
O418 O 0.02696 0.30303 0.63692 0.0
O419 O 0.04952 0.30142 0.61697 0.0
O420 O 0.23798 0.32607 0.7094 0.0
Cd421 Cd 0.23933 0.33213 0.65956 0.0
Cd422 Cd 0.26145 0.3202 0.65729 0.0
O423 O 0.25608 0.31568 0.7084 0.0
O424 O 0.22079 0.33824 0.65359 0.0
O425 O 0.22045 0.31611 0.627 0.0
C426 C 0.2133 0.32549 0.63277 0.0
C427 C 0.25923 0.29998 0.61699 0.0
C428 C 0.24639 0.31998 0.72469 0.0
C429 C 0.27632 0.35836 0.64418 0.0
O430 O 0.27939 0.3458 0.64633 0.0
O431 O 0.26093 0.35571 0.64791 0.0
O432 O 0.27126 0.30567 0.63964 0.0
O433 O 0.24769 0.30489 0.6186 0.0
O434 O 0.66208 0.90459 0.70765 0.0
Cd435 Cd 0.65641 0.89995 0.65763 0.0
Cd436 Cd 0.66816 0.93387 0.65537 0.0
O437 O 0.67271 0.93314 0.70642 0.0
O438 O 0.65171 0.87581 0.65006 0.0
O439 O 0.67362 0.8989 0.62569 0.0
C440 C 0.66495 0.88219 0.63021 0.0
C441 C 0.68837 0.95171 0.615 0.0
C442 C 0.66828 0.91915 0.72281 0.0
C443 C 0.63004 0.91028 0.64161 0.0
O444 O 0.64254 0.92595 0.64425 0.0
O445 O 0.63277 0.89757 0.6451 0.0
O446 O 0.68262 0.95815 0.63735 0.0
O447 O 0.68352 0.93529 0.617 0.0
O448 O 0.0832 0.75151 0.70542 0.0
Cd449 Cd 0.08751 0.75301 0.65477 0.0
Cd450 Cd 0.05331 0.73372 0.6529 0.0
O451 O 0.05457 0.74034 0.70349 0.0
O452 O 0.11154 0.77271 0.64717 0.0
O453 O 0.0879 0.77245 0.62774 0.0
C454 C 0.10471 0.78038 0.63082 0.0
C455 C 0.03509 0.73522 0.61207 0.0
C456 C 0.06868 0.7462 0.7203 0.0
C457 C 0.07484 0.71674 0.63655 0.0
O458 O 0.0599 0.71475 0.64352 0.0
O459 O 0.08832 0.73183 0.63658 0.0
O460 O 0.02879 0.72388 0.63594 0.0
O461 O 0.05162 0.74658 0.61277 0.0
O462 O 0.98075 0.56776 0.64219 0.0
Cd463 Cd 0.98836 0.56946 0.69114 0.0
Cd464 Cd 0.97813 0.59278 0.6957 0.0
O465 O 0.97274 0.58773 0.64471 0.0
O466 O -0.00571 0.55071 0.69534 0.0
O467 O 0.97364 0.55116 0.72588 0.0
C468 C 0.98262 0.54378 0.71833 0.0
C469 C 0.95908 0.59068 0.73833 0.0
C470 C 0.97558 0.57718 0.62772 0.0
C471 C 0.0162 0.60631 0.70438 0.0
O472 O 0.00407 0.61006 0.7049 0.0
O473 O 0.0127 0.59069 0.69966 0.0
O474 O 0.96437 0.60285 0.71599 0.0
O475 O 0.96365 0.57894 0.73505 0.0
O476 O 0.42181 0.4089 0.64918 0.0
Cd477 Cd 0.4207 0.41659 0.69706 0.0
Cd478 Cd 0.39549 0.38383 0.70465 0.0
O479 O 0.399 0.38233 0.65331 0.0
O480 O 0.44154 0.44027 0.69933 0.0
O481 O 0.43737 0.4191 0.73434 0.0
C482 C 0.44678 0.43508 0.7245 0.0
C483 C 0.39555 0.36486 0.7455 0.0
C484 C 0.41067 0.39461 0.63555 0.0
C485 C 0.38516 0.41102 0.71153 0.0
O486 O 0.38044 0.39498 0.71542 0.0
O487 O 0.4008 0.422 0.70358 0.0
O488 O 0.38304 0.35967 0.72395 0.0
O489 O 0.4086 0.38063 0.74272 0.0
O490 O 0.57211 0.0003 0.64624 0.0
Cd491 Cd 0.56609 0.99254 0.69508 0.0
Cd492 Cd 0.59979 0.00303 0.6999 0.0
O493 O 0.60009 0.00829 0.64891 0.0
O494 O 0.54159 0.98717 0.69971 0.0
O495 O 0.56312 0.00743 0.73023 0.0
C496 C 0.54671 -0.00115 0.72277 0.0
C497 C 0.61787 0.02235 0.7412 0.0
C498 C 0.58674 0.00553 0.63188 0.0
C499 C 0.57513 0.96488 0.70914 0.0
O500 O 0.59098 0.97712 0.70983 0.0
O501 O 0.56295 0.9682 0.70371 0.0
O502 O 0.62402 0.01646 0.71857 0.0
O503 O 0.60162 0.01818 0.73906 0.0
H504 H 0.96017 0.25362 0.94145 0.0
H505 H 0.03536 0.26916 1.01124 0.0
H506 H 0.93378 0.22714 0.03204 0.0
H507 H 0.00896 0.28308 0.0853 0.0
H508 H 0.00691 0.24553 0.99182 0.0
H509 H 0.98683 0.25493 0.96197 0.0
C510 C 0.95976 0.24727 0.96488 0.0
C511 C 0.94493 0.24057 0.98537 0.0
C512 C 0.00747 0.25326 0.01332 0.0
C513 C 0.97541 0.24266 1.00955 0.0
C514 C 0.02365 0.26666 0.02456 0.0
C515 C 0.02435 0.2782 0.04947 0.0
C516 C -0.00787 0.25137 0.02764 0.0
C517 C 0.00886 0.27456 0.06571 0.0
C518 C 0.97497 0.24799 0.97664 0.0
C519 C 0.94505 0.23258 0.01564 0.0
N520 N -0.00671 0.26158 0.05414 0.0
N521 N 0.96035 0.23463 0.02764 0.0
H522 H 0.73381 0.70465 0.93929 0.0
H523 H 0.70659 0.72367 0.08777 0.0
H524 H 0.76276 0.70447 0.02588 0.0
H525 H 0.71979 0.76281 1.01153 0.0
H526 H 0.73065 0.71966 0.06865 0.0
H527 H 0.7329 0.72979 0.96237 0.0
C528 C 0.74076 0.71049 0.96233 0.0
C529 C 0.74802 0.70231 0.98109 0.0
C530 C 0.72881 0.72971 0.05705 0.0
C531 C 0.74625 0.73031 1.0083 0.0
C532 C 0.71506 0.73195 0.06797 0.0
C533 C 0.71117 0.74342 0.05093 0.0
C534 C 0.73802 0.73835 0.02798 0.0
C535 C 0.72241 0.75378 0.0252 0.0
C536 C 0.74021 0.72481 0.97559 0.0
C537 C 0.75682 0.71031 1.01087 0.0
N538 N 0.73491 0.75046 0.01347 0.0
N539 N 0.75496 0.72339 0.02444 0.0
H540 H 0.28408 0.01913 0.94074 0.0
H541 H 0.26236 0.975 0.08862 0.0
H542 H 0.27709 0.04848 0.01936 0.0
H543 H 0.2243 0.94665 1.01177 0.0
H544 H 0.26536 0.00227 0.06697 0.0
H545 H 0.25939 0.99235 0.96308 0.0
C546 C 0.27679 0.02001 0.96172 0.0
C547 C 0.28267 0.03588 0.97854 0.0
C548 C 0.25573 0.98999 0.05583 0.0
C549 C 0.25524 0.00545 1.00504 0.0
C550 C 0.25405 0.97446 0.06819 0.0
C551 C 0.24327 0.95869 0.05163 0.0
C552 C 0.24724 0.98966 0.02591 0.0
C553 C 0.23284 0.95864 0.02506 0.0
C554 C 0.26272 0.00477 0.97449 0.0
C555 C 0.27294 0.0364 1.00584 0.0
N556 N 0.23568 0.97403 1.01194 0.0
N557 N 0.26016 0.02124 0.01931 0.0
H558 H 0.03005 0.76271 0.01751 0.0
H559 H 0.95526 0.70174 0.94395 0.0
H560 H 0.00539 0.71855 0.08427 0.0
H561 H 0.92882 0.6996 0.03592 0.0
H562 H 0.98184 0.72685 0.96571 0.0
H563 H 0.00102 0.75676 0.99925 0.0
C564 C 0.01853 0.75234 0.02958 0.0
C565 C 0.01996 0.74092 0.0521 0.0
C566 C 0.96996 0.72148 0.98045 0.0
C567 C 0.98711 0.73433 0.03177 0.0
C568 C 0.9548 0.70717 0.96797 0.0
C569 C 0.93999 0.6985 0.98839 0.0
C570 C 0.97036 0.72649 0.01392 0.0
C571 C 0.94007 0.7059 0.01951 0.0
C572 C 0.00205 0.74896 0.01903 0.0
C573 C 0.00473 0.72752 0.06666 0.0
N574 N 0.95533 0.71895 0.0321 0.0
N575 N 0.98886 0.72444 0.05591 0.0
H576 H 0.28561 0.2641 0.93914 0.0
H577 H 0.25935 0.28643 0.08418 0.0
H578 H 0.27518 0.2274 0.01902 0.0
H579 H 0.22522 0.279 1.00109 0.0
H580 H 0.26279 0.26225 0.06344 0.0
H581 H 0.26097 0.26724 0.95805 0.0
C582 C 0.2776 0.2561 0.95968 0.0
C583 C 0.28244 0.24565 0.97781 0.0
C584 C 0.2539 0.26538 0.0506 0.0
C585 C 0.25503 0.2498 1.00043 0.0
C586 C 0.25198 0.27918 0.06242 0.0
C587 C 0.24216 0.28473 0.04407 0.0
C588 C 0.24667 0.25784 0.0195 0.0
C589 C 0.23296 0.27506 0.01582 0.0
C590 C 0.26355 0.25786 0.97048 0.0
C591 C 0.27181 0.23565 1.0045 0.0
N592 N 0.23605 0.26253 1.00346 0.0
N593 N 0.25903 0.23857 0.01605 0.0
H594 H 0.71242 0.94531 0.99933 0.0
H595 H 0.76038 0.04778 0.02272 0.0
H596 H 0.70462 0.97215 0.08174 0.0
H597 H 0.72934 0.02029 0.93671 0.0
H598 H 0.7578 0.02045 0.043 0.0
H599 H 0.7361 0.97341 0.97874 0.0
C600 C 0.71634 0.95699 0.01411 0.0
C601 C 0.70647 0.95659 0.04196 0.0
C602 C 0.75245 0.02068 0.01875 0.0
C603 C 0.73358 0.98838 0.01904 0.0
C604 C 0.75397 0.03625 1.007 0.0
C605 C 0.74467 0.03609 0.97841 0.0
C606 C 0.74197 0.00513 1.0012 0.0
C607 C 0.73643 0.02081 0.95916 0.0
C608 C 0.72981 0.97295 1.00227 0.0
C609 C 0.71186 0.97204 0.05997 0.0
N610 N 0.73493 0.00576 0.9713 0.0
N611 N 0.72494 0.98742 0.04789 0.0
H612 H 0.67948 0.62007 0.41837 0.0
H613 H 0.63075 0.5928 0.27346 0.0
H614 H 0.70549 0.60929 0.33844 0.0
H615 H 0.60398 0.56019 0.35827 0.0
H616 H 0.65821 0.59589 0.29417 0.0
H617 H 0.65166 0.5952 0.40025 0.0
C618 C 0.67942 0.61196 0.39796 0.0
C619 C 0.69464 0.61679 0.37954 0.0
C620 C 0.64619 0.58737 0.30744 0.0
C621 C 0.663 0.58907 0.35784 0.0
C622 C 0.63056 0.58564 0.29561 0.0
C623 C 0.61525 0.57641 0.31444 0.0
C624 C 0.6465 0.58057 0.339 0.0
C625 C 0.61563 0.56748 0.34317 0.0
C626 C 0.66358 0.59777 0.38763 0.0
C627 C 0.69393 0.60598 0.35313 0.0
N628 N 0.6312 0.57042 0.35549 0.0
N629 N 0.67819 0.59304 0.34203 0.0
H630 H 0.38542 0.03439 0.27136 0.0
H631 H 0.37028 0.09658 0.33435 0.0
H632 H 0.42422 0.04832 0.34853 0.0
H633 H 0.36298 0.06027 0.41325 0.0
H634 H 0.39384 0.09266 0.31143 0.0
H635 H 0.38094 0.05835 0.28969 0.0
C636 C 0.39355 0.04304 0.29112 0.0
C637 C 0.40518 0.03953 0.30851 0.0
C638 C 0.38768 0.08633 0.33475 0.0
C639 C 0.39963 0.06617 0.33043 0.0
C640 C 0.37433 0.08859 0.34799 0.0
C641 C 0.36455 0.07844 0.37535 0.0
C642 C 0.39138 0.0742 0.34963 0.0
C643 C 0.37012 0.06812 0.39186 0.0
C644 C 0.39106 0.05669 0.30153 0.0
C645 C 0.41521 0.0508 0.33446 0.0
N646 N 0.38303 0.06601 0.37835 0.0
N647 N 0.41163 0.06318 0.34571 0.0
H648 H 0.89471 0.28155 0.34355 0.0
H649 H 0.9469 0.38435 0.36197 0.0
H650 H 0.93274 0.30964 0.42061 0.0
H651 H 0.94974 0.35636 0.27611 0.0
H652 H 0.92382 0.35672 0.3853 0.0
H653 H 0.8974 0.30914 0.32448 0.0
C654 C 0.90285 0.29336 0.35771 0.0
C655 C 0.91381 0.29349 0.38327 0.0
C656 C 0.92882 0.35685 0.3605 0.0
C657 C 0.91655 0.32471 0.36209 0.0
C658 C 0.94191 0.37256 0.34706 0.0
C659 C 0.95035 0.37246 0.31737 0.0
C660 C 0.92394 0.3412 0.34354 0.0
C661 C 0.94363 0.35685 0.29926 0.0
C662 C 0.90437 0.30905 0.34671 0.0
C663 C 0.92427 0.30912 0.40053 0.0
N664 N 0.93097 0.34171 0.31296 0.0
N665 N 0.92563 0.32424 0.38921 0.0
H666 H 0.60894 0.04486 0.35176 0.0
H667 H 0.68369 0.05728 0.4188 0.0
H668 H 0.63723 0.03566 0.27403 0.0
H669 H 0.71113 0.09185 0.33664 0.0
H670 H 0.65666 0.05577 0.39975 0.0
H671 H 0.63678 0.06795 0.37453 0.0
C672 C 0.62093 0.04838 0.33836 0.0
C673 C 0.62096 0.03819 0.31141 0.0
C674 C 0.66877 0.0644 0.38686 0.0
C675 C 0.65245 0.06445 0.337 0.0
C676 C 0.68416 0.0652 0.3977 0.0
C677 C 0.6995 0.07447 0.37895 0.0
C678 C 0.66872 0.07226 0.35635 0.0
C679 C 0.69947 0.08444 0.35163 0.0
C680 C 0.63675 0.06146 0.35151 0.0
C681 C 0.63678 0.0431 0.29515 0.0
N682 N 0.68409 0.0824 0.34011 0.0
N683 N 0.652 0.05575 0.30859 0.0
H684 H 0.93098 0.61975 0.41818 0.0
H685 H 0.94844 0.59505 0.26882 0.0
H686 H 0.89193 0.61083 0.34402 0.0
H687 H 0.94199 0.55905 0.34768 0.0
H688 H 0.92458 0.598 0.29284 0.0
H689 H 0.93236 0.59459 0.39637 0.0
C690 C 0.92212 0.61199 0.39835 0.0
C691 C 0.91157 0.61747 0.38248 0.0
C692 C 0.9278 0.58878 0.30397 0.0
C693 C 0.91368 0.58942 0.35656 0.0
C694 C 0.94139 0.5871 0.29021 0.0
C695 C 0.94725 0.57699 0.30659 0.0
C696 C 0.9208 0.58101 0.33504 0.0
C697 C 0.93785 0.56707 0.33448 0.0
C698 C 0.92288 0.59764 0.3859 0.0
C699 C 0.90037 0.60705 0.35673 0.0
N700 N 0.9256 0.56996 0.34887 0.0
N701 N 0.90231 0.59397 0.34343 0.0
H702 H 0.42706 0.37685 0.35275 0.0
H703 H 0.37288 0.27407 0.33449 0.0
H704 H 0.39065 0.34946 0.273 0.0
H705 H 0.36855 0.30269 0.41774 0.0
H706 H 0.39708 0.30138 0.31245 0.0
H707 H 0.42298 0.3489 0.37327 0.0
C708 C 0.41903 0.36508 0.33838 0.0
C709 C 0.40892 0.36528 0.3115 0.0
C710 C 0.39146 0.30144 0.3365 0.0
C711 C 0.40459 0.33367 0.33434 0.0
C712 C 0.37772 0.28591 0.3492 0.0
C713 C 0.3686 0.28631 0.37764 0.0
C714 C 0.39627 0.31719 0.353 0.0
C715 C 0.37518 0.30197 0.39553 0.0
C716 C 0.4167 0.3492 0.3502 0.0
C717 C 0.3985 0.34973 0.29402 0.0
N718 N 0.38849 0.31693 0.38256 0.0
N719 N 0.39635 0.33442 0.30613 0.0
H720 H 0.29158 0.92235 0.61692 0.0
H721 H 0.34272 0.95529 0.75882 0.0
H722 H 0.26492 0.89551 0.70709 0.0
H723 H 0.36587 0.93715 0.68571 0.0
H724 H 0.31376 0.93131 0.74313 0.0
H725 H 0.3186 0.92488 0.63889 0.0
C726 C 0.29125 0.91624 0.64061 0.0
C727 C 0.27617 0.90897 0.66049 0.0
C728 C 0.32524 0.93211 0.73156 0.0
C729 C 0.30698 0.91257 0.68626 0.0
C730 C 0.3417 0.94579 0.74049 0.0
C731 C 0.35652 0.94809 0.72343 0.0
C732 C 0.32369 0.92138 0.70432 0.0
C733 C 0.35463 0.93566 0.69944 0.0
C734 C 0.30664 0.91769 0.65318 0.0
C735 C 0.27638 0.90134 0.69115 0.0
N736 N 0.33839 0.92319 0.68952 0.0
N737 N 0.29179 0.90406 0.70389 0.0
H738 H 0.03593 0.39492 0.75289 0.0
H739 H 0.06229 0.37102 0.60962 0.0
H740 H 0.04683 0.43091 0.67148 0.0
H741 H 0.09572 0.37849 0.69393 0.0
H742 H 0.05914 0.39557 0.62906 0.0
H743 H 0.06043 0.39131 0.73495 0.0
C744 C 0.04402 0.40267 0.73219 0.0
C745 C 0.03938 0.41308 0.71341 0.0
C746 C 0.06782 0.39236 0.64247 0.0
C747 C 0.06661 0.40837 0.69188 0.0
C748 C 0.06958 0.37835 0.63139 0.0
C749 C 0.0791 0.37272 0.65045 0.0
C750 C 0.07492 0.40004 0.67355 0.0
C751 C 0.0882 0.38249 0.67867 0.0
C752 C 0.05798 0.40064 0.72194 0.0
C753 C 0.05007 0.42272 0.6865 0.0
N754 N 0.08527 0.39525 0.69029 0.0
N755 N 0.06278 0.41954 0.67554 0.0
H756 H 0.61735 0.69174 0.61164 0.0
H757 H 0.59125 0.64078 0.75573 0.0
H758 H 0.61388 0.71868 0.69861 0.0
H759 H 0.5555 0.61783 0.67322 0.0
H760 H 0.59672 0.66966 0.73849 0.0
H761 H 0.59171 0.66491 0.6312 0.0
C762 C 0.6107 0.69215 0.63409 0.0
C763 C 0.61777 0.70726 0.65381 0.0
C764 C 0.58704 0.65823 0.72506 0.0
C765 C 0.58914 0.67666 0.67698 0.0
C766 C 0.58394 0.64178 0.73494 0.0
C767 C 0.57305 0.62707 0.71567 0.0
C768 C 0.57988 0.65989 0.69486 0.0
C769 C 0.56402 0.62898 0.68864 0.0
C770 C 0.59606 0.67689 0.64525 0.0
C771 C 0.60879 0.70719 0.68283 0.0
N772 N 0.56821 0.64524 0.67806 0.0
N773 N 0.59534 0.69187 0.69439 0.0
H774 H 0.38288 0.43072 0.6622 0.0
H775 H 0.28052 0.38345 0.68799 0.0
H776 H 0.3559 0.40072 0.74956 0.0
H777 H 0.30617 0.37313 0.60675 0.0
H778 H 0.30896 0.40739 0.70654 0.0
H779 H 0.35526 0.42732 0.64141 0.0
C780 C 0.37136 0.42431 0.67795 0.0
C781 C 0.37147 0.41565 0.7073 0.0
C782 C 0.30817 0.40048 0.68362 0.0
C783 C 0.34024 0.41211 0.68402 0.0
C784 C 0.292 0.38689 0.67294 0.0
C785 C 0.29118 0.37625 0.64612 0.0
C786 C 0.32335 0.40359 0.66672 0.0
C787 C 0.30639 0.38099 0.62773 0.0
C788 C 0.35565 0.42236 0.66597 0.0
C789 C 0.35621 0.40735 0.72658 0.0
N790 N 0.32198 0.39422 0.63871 0.0
N791 N 0.34105 0.40549 0.71427 0.0
H792 H 0.60418 0.88786 0.6828 0.0
H793 H 0.58758 0.94815 0.74792 0.0
H794 H 0.61587 0.92654 0.60625 0.0
H795 H 0.55604 0.94168 0.66105 0.0
H796 H 0.591 0.9237 0.72885 0.0
H797 H 0.58018 0.89202 0.70239 0.0
C798 C 0.60106 0.89649 0.66894 0.0
C799 C 0.61211 0.90715 0.64329 0.0
C800 C 0.58259 0.92705 0.71482 0.0
C801 C 0.58485 0.91173 0.66525 0.0
C802 C 0.5807 0.94101 0.72568 0.0
C803 C 0.57163 0.94688 0.70587 0.0
C804 C 0.57608 0.91963 0.68327 0.0
C805 C 0.56314 0.93744 0.67696 0.0
C806 C 0.58746 0.89889 0.68027 0.0
C807 C 0.60772 0.91828 0.62639 0.0
N808 N 0.56625 0.92475 0.66563 0.0
N809 N 0.59454 0.92052 0.63806 0.0
H810 H 0.0957 0.71148 0.67826 0.0
H811 H 0.03906 0.60893 0.65675 0.0
H812 H 0.05737 0.6867 0.60024 0.0
H813 H 0.03346 0.63652 0.74045 0.0
H814 H 0.06307 0.63666 0.63557 0.0
H815 H 0.08975 0.68258 0.69719 0.0
C816 C 0.08682 0.70003 0.66388 0.0
C817 C 0.07686 0.70129 0.63786 0.0
C818 C 0.05719 0.6364 0.65949 0.0
C819 C 0.0704 0.66864 0.65884 0.0
C820 C 0.04356 0.62065 0.67169 0.0
C821 C 0.03423 0.62062 0.70013 0.0
C822 C 0.06169 0.65193 0.67655 0.0
C823 C 0.04031 0.63613 0.71829 0.0
C824 C 0.08342 0.68362 0.6748 0.0
C825 C 0.06523 0.68614 0.62045 0.0
N826 N 0.05356 0.65131 0.70587 0.0
N827 N 0.0621 0.67031 0.6316 0.0
H828 H 0.18697 0.30899 0.09325 0.0
H829 H 0.13285 0.35833 0.07467 0.0
H830 H 0.21076 0.36328 0.06544 0.0
H831 H 0.11114 0.30264 0.08476 0.0
H832 H 0.16202 0.36257 0.08757 0.0
H833 H 0.1602 0.309 0.10808 0.0
C834 C 0.18662 0.32105 0.09112 0.0
C835 C 0.2009 0.33611 0.07803 0.0
C836 C 0.15078 0.34948 0.08774 0.0
C837 C 0.17013 0.3361 0.09343 0.0
C838 C 0.13418 0.34708 0.08057 0.0
C839 C 0.11974 0.3301 0.07825 0.0
C840 C 0.15272 0.33478 0.09294 0.0
C841 C 0.12204 0.31592 0.08586 0.0
C842 C 0.17134 0.32106 0.09938 0.0
C843 C 0.19992 0.35143 0.07558 0.0
N844 N 0.13822 0.31857 0.09256 0.0
N845 N 0.18457 0.35095 0.08249 0.0
H846 H 0.63156 0.77266 0.07371 0.0
H847 H 0.68277 0.87622 0.09211 0.0
H848 H 0.68739 0.8058 0.08374 0.0
H849 H 0.62819 0.84656 0.06585 0.0
H850 H 0.68223 0.84915 0.10662 0.0
H851 H 0.62795 0.79797 0.08667 0.0
C852 C 0.64298 0.78514 0.07958 0.0
C853 C 0.65981 0.78733 0.07724 0.0
C854 C 0.67023 0.84848 0.09831 0.0
C855 C 0.65585 0.81605 0.09203 0.0
C856 C 0.67054 0.86394 0.09024 0.0
C857 C 0.65555 0.86347 0.07766 0.0
C858 C 0.65493 0.83236 0.09269 0.0
C859 C 0.64 0.84732 0.07557 0.0
C860 C 0.64094 0.79955 0.0868 0.0
C861 C 0.67421 0.80368 0.08484 0.0
N862 N 0.64017 0.83228 0.08227 0.0
N863 N 0.67191 0.81743 0.09159 0.0
H864 H 0.13 0.77505 0.06976 0.0
H865 H 0.18514 0.87877 0.08615 0.0
H866 H 0.10868 0.80934 0.08035 0.0
H867 H 0.20906 0.84773 0.06378 0.0
H868 H 0.1578 0.85221 0.0989 0.0
H869 H 0.1594 0.80005 0.08094 0.0
C870 C 0.13148 0.78773 0.07525 0.0
C871 C 0.11703 0.79028 0.07367 0.0
C872 C 0.16903 0.85109 0.0917 0.0
C873 C 0.1503 0.81868 0.08644 0.0
C874 C 0.18464 0.86627 0.08457 0.0
C875 C 0.19919 0.86531 0.0737 0.0
C876 C 0.16777 0.83473 0.08694 0.0
C877 C 0.19801 0.84889 0.07214 0.0
C878 C 0.14821 0.80197 0.08146 0.0
C879 C 0.11955 0.80691 0.08082 0.0
N880 N 0.18238 0.83412 0.07798 0.0
N881 N 0.13584 0.82046 0.08661 0.0
H882 H 0.36518 0.22014 0.96124 0.0
H883 H 0.31341 0.11733 0.92984 0.0
H884 H 0.30972 0.18801 0.94445 0.0
H885 H 0.36602 0.14484 0.9683 0.0
H886 H 0.31541 0.14524 0.91677 0.0
H887 H 0.36877 0.19489 0.94733 0.0
C888 C 0.35388 0.20792 0.95368 0.0
C889 C 0.33711 0.20594 0.95432 0.0
C890 C 0.3267 0.14527 0.92741 0.0
C891 C 0.34105 0.17734 0.93838 0.0
C892 C 0.32558 0.12934 0.93465 0.0
C893 C 0.33954 0.12894 0.95022 0.0
C894 C 0.34171 0.16092 0.93684 0.0
C895 C 0.35502 0.14476 0.95616 0.0
C896 C 0.35591 0.19354 0.94593 0.0
C897 C 0.32283 0.18992 0.94463 0.0
N898 N 0.35558 0.16022 0.95015 0.0
N899 N 0.32511 0.17622 0.93732 0.0
H900 H 0.847 0.21131 0.04268 0.0
H901 H 0.77277 0.13384 0.93364 0.0
H902 H 0.85061 0.21025 0.93534 0.0
H903 H 0.78049 0.13309 0.03993 0.0
H904 H 0.79685 0.1646 0.93216 0.0
H905 H 0.81769 0.18607 0.04019 0.0
C906 C 0.84144 0.20583 0.01847 0.0
C907 C 0.85122 0.21261 0.98922 0.0
C908 C 0.79303 0.1577 0.95577 0.0
C909 C 0.81784 0.18331 0.98613 0.0
C910 C 0.77933 0.14025 0.95663 0.0
C911 C 0.77491 0.13096 0.98688 0.0
C912 C 0.80193 0.16577 0.98551 0.0
C913 C 0.78371 0.13971 0.01601 0.0
C914 C 0.82473 0.19138 0.01703 0.0
C915 C 0.8434 0.20524 0.95842 0.0
N916 N 0.79678 0.15655 0.01455 0.0
N917 N 0.82719 0.19066 0.95766 0.0
H918 H 0.84003 0.61851 0.03224 0.0
H919 H 0.77353 0.63504 0.92525 0.0
H920 H 0.85034 0.63637 0.93017 0.0
H921 H 0.77212 0.62773 0.03194 0.0
H922 H 0.79696 0.62756 0.92139 0.0
H923 H 0.81018 0.61287 0.02658 0.0
C924 C 0.83579 0.62084 1.00833 0.0
C925 C 0.84753 0.62798 0.9817 0.0
C926 C 0.79121 0.62723 0.94548 0.0
C927 C 0.81366 0.62232 0.97533 0.0
C928 C 0.77785 0.6314 0.94764 0.0
C929 C 0.77116 0.63215 0.979 0.0
C930 C 0.79755 0.62359 0.97488 0.0
C931 C 0.77715 0.62748 1.00736 0.0
C932 C 0.81879 0.61773 1.00511 0.0
C933 C 0.84152 0.63081 0.95121 0.0
N934 N 0.79005 0.62352 1.00465 0.0
N935 N 0.82502 0.62834 0.94901 0.0
H936 H 0.8036 0.69557 0.39715 0.0
H937 H 0.85264 0.64027 0.40048 0.0
H938 H 0.77925 0.63949 0.3886 0.0
H939 H 0.88083 0.69654 0.39359 0.0
H940 H 0.82572 0.64073 0.41003 0.0
H941 H 0.83187 0.69709 0.40812 0.0
C942 C 0.80417 0.6836 0.39825 0.0
C943 C 0.78922 0.6674 0.39155 0.0
C944 C 0.83775 0.65306 0.40679 0.0
C945 C 0.82111 0.66899 0.4042 0.0
C946 C 0.85313 0.65278 0.40142 0.0
C947 C 0.86883 0.66836 0.39584 0.0
C948 C 0.83792 0.66904 0.40571 0.0
C949 C 0.86887 0.68425 0.39771 0.0
C950 C 0.82024 0.68447 0.40436 0.0
C951 C 0.79054 0.65227 0.39314 0.0
N952 N 0.85351 0.68419 0.40184 0.0
N953 N 0.80617 0.65346 0.39911 0.0
H954 H 0.33442 0.20467 0.43295 0.0
H955 H 0.28079 0.10246 0.39681 0.0
H956 H 0.28259 0.17875 0.39077 0.0
H957 H 0.33603 0.13304 0.41726 0.0
H958 H 0.27774 0.12789 0.41197 0.0
H959 H 0.33119 0.17625 0.44645 0.0
C960 C 0.32213 0.1929 0.42751 0.0
C961 C 0.30876 0.19388 0.41074 0.0
C962 C 0.29042 0.12883 0.41398 0.0
C963 C 0.30523 0.16136 0.42453 0.0
C964 C 0.29213 0.11435 0.40551 0.0
C965 C 0.30871 0.11588 0.40552 0.0
C966 C 0.3054 0.14469 0.4228 0.0
C967 C 0.32306 0.13149 0.41663 0.0
C968 C 0.32031 0.17669 0.43496 0.0
C969 C 0.29313 0.17838 0.40387 0.0
N970 N 0.3211 0.14533 0.42454 0.0
N971 N 0.29191 0.16264 0.41011 0.0
H972 H 0.80754 0.10547 0.39901 0.0
H973 H 0.8526 0.20963 0.38744 0.0
H974 H 0.78204 0.13452 0.37189 0.0
H975 H 0.88331 0.18414 0.39407 0.0
H976 H 0.82615 0.1816 0.3948 0.0
H977 H 0.83493 0.13346 0.40856 0.0
C978 C 0.80767 0.1177 0.39553 0.0
C979 C 0.79265 0.11777 0.38425 0.0
C980 C 0.83862 0.18202 0.39489 0.0
C981 C 0.82349 0.14945 0.3954 0.0
C982 C 0.85374 0.19806 0.39074 0.0
C983 C 0.87007 0.1991 0.38962 0.0
C984 C 0.83971 0.16673 0.39729 0.0
C985 C 0.87087 0.18378 0.39463 0.0
C986 C 0.82323 0.13359 0.40087 0.0
C987 C 0.7934 0.13387 0.38007 0.0
N988 N 0.8558 0.16806 0.39767 0.0
N989 N 0.80851 0.14898 0.38555 0.0
H990 H 0.98305 0.45236 0.25591 0.0
H991 H 0.03256 0.55516 0.2868 0.0
H992 H 0.03427 0.48082 0.30026 0.0
H993 H 0.97749 0.5222 0.26704 0.0
H994 H 0.03695 0.5303 0.27398 0.0
H995 H 0.98494 0.48002 0.24058 0.0
C996 C -0.00506 0.46452 0.2614 0.0
C997 C 0.00852 0.46448 0.27926 0.0
C998 C 0.02401 0.52869 0.27161 0.0
C999 C 0.01051 0.49612 0.2633 0.0
C1000 C 0.02153 0.54285 0.27873 0.0
C1001 C 0.00462 0.54052 0.27826 0.0
C1002 C 0.00946 0.51234 0.26363 0.0
C1003 C 0.9907 0.52438 0.26801 0.0
C1004 C -0.00401 0.4803 0.25292 0.0
C1005 C 0.0236 0.48046 0.28627 0.0
N1006 N -0.0066 0.51088 0.26137 0.0
N1007 N 0.02407 0.49575 0.27889 0.0
H1008 H 0.53479 0.52621 0.25852 0.0
H1009 H 0.43218 0.47265 0.29138 0.0
H1010 H 0.50617 0.54958 0.29949 0.0
H1011 H 0.46552 0.45074 0.27427 0.0
H1012 H 0.45678 0.50178 0.27679 0.0
H1013 H 0.50719 0.49994 0.24486 0.0
C1014 C 0.5226 0.52594 0.26363 0.0
C1015 C 0.52259 0.5399 0.2801 0.0
C1016 C 0.45853 0.4905 0.27544 0.0
C1017 C 0.49103 0.50971 0.2661 0.0
C1018 C 0.44452 0.47393 0.28358 0.0
C1019 C 0.44703 0.45947 0.28437 0.0
C1020 C 0.47491 0.49235 0.26766 0.0
C1021 C 0.4632 0.46168 0.27435 0.0
C1022 C 0.50686 0.51094 0.2561 0.0
C1023 C 0.50657 0.539 0.2866 0.0
N1024 N 0.47655 0.47782 0.26668 0.0
N1025 N 0.49132 0.52392 0.28024 0.0
H1026 H 0.43655 0.96156 0.28956 0.0
H1027 H 0.53958 0.01269 0.26214 0.0
H1028 H 0.46922 0.01716 0.27488 0.0
H1029 H 0.51087 0.95887 0.29375 0.0
H1030 H 0.51209 0.01162 0.24923 0.0
H1031 H 0.46166 0.95782 0.27546 0.0
C1032 C 0.44887 0.97288 0.28253 0.0
C1033 C 0.45101 0.98972 0.28386 0.0
C1034 C 0.5117 -0.00012 0.25835 0.0
C1035 C 0.47949 0.98559 0.26767 0.0
C1036 C 0.5274 0.00049 0.26549 0.0
C1037 C 0.52734 0.98589 0.27912 0.0
C1038 C 0.4958 0.98472 0.26597 0.0
C1039 C 0.51132 0.97037 0.28316 0.0
C1040 C 0.46317 0.97076 0.27463 0.0
C1041 C 0.46716 0.00399 0.27467 0.0
N1042 N 0.49607 0.97029 0.27735 0.0
N1043 N 0.48079 0.00162 0.26726 0.0
H1044 H 0.52006 0.9754 0.76035 0.0
H1045 H 0.46657 0.02502 0.7353 0.0
H1046 H 0.54337 0.02801 0.72248 0.0
H1047 H 0.4445 0.96989 0.75449 0.0
H1048 H 0.4959 0.02934 0.7467 0.0
H1049 H 0.49399 0.97662 0.77601 0.0
C1050 C 0.5198 0.9874 0.75624 0.0
C1051 C 0.53369 0.0016 0.74012 0.0
C1052 C 0.48457 0.01639 0.74915 0.0
C1053 C 0.5037 0.00289 0.75644 0.0
C1054 C 0.46788 0.01394 0.7428 0.0
C1055 C 0.45325 -0.00296 0.74347 0.0
C1056 C 0.48641 0.00183 0.75657 0.0
C1057 C 0.45554 0.98309 0.75318 0.0
C1058 C 0.50491 0.98809 0.76495 0.0
C1059 C 0.53283 0.01685 0.73504 0.0
N1060 N 0.4718 0.98577 0.75904 0.0
N1061 N 0.51784 0.01698 0.74251 0.0
H1062 H 0.01053 0.46854 0.75916 0.0
H1063 H 0.95239 0.51232 0.72696 0.0
H1064 H 0.95686 0.4393 0.72677 0.0
H1065 H 0.00777 0.5396 0.74695 0.0
H1066 H 0.9509 0.48465 0.74301 0.0
H1067 H 0.00656 0.49325 0.77256 0.0
C1068 C -0.00224 0.46725 0.75565 0.0
C1069 C 0.98405 0.45207 0.74159 0.0
C1070 C 0.96327 0.49677 0.74476 0.0
C1071 C 0.97956 0.4805 0.75533 0.0
C1072 C 0.96408 0.51251 0.7358 0.0
C1073 C 0.98027 0.52806 0.73539 0.0
C1074 C 0.97874 0.49684 0.75349 0.0
C1075 C -0.0049 0.52777 0.74666 0.0
C1076 C -0.00451 0.48135 0.76313 0.0
C1077 C 0.96773 0.4509 0.73756 0.0
N1078 N -0.00599 0.51239 0.75493 0.0
N1079 N 0.96602 0.46516 0.7436 0.0
H1080 H 0.55067 0.52046 0.73386 0.0
H1081 H 0.44927 0.45781 0.77198 0.0
H1082 H 0.51324 0.53719 0.75309 0.0
H1083 H 0.48008 0.44194 0.71407 0.0
H1084 H 0.47597 0.48498 0.78668 0.0
H1085 H 0.528 0.49019 0.74695 0.0
C1086 C 0.53785 0.51781 0.74185 0.0
C1087 C 0.53363 0.53116 0.74204 0.0
C1088 C 0.47698 0.47531 0.77165 0.0
C1089 C 0.50796 0.49696 0.75723 0.0
C1090 C 0.4618 0.45979 0.76355 0.0
C1091 C 0.46265 0.44776 0.74202 0.0
C1092 C 0.49301 0.47886 0.75761 0.0
C1093 C 0.47905 0.45096 0.73101 0.0
C1094 C 0.52495 0.5006 0.74915 0.0
C1095 C 0.51687 0.52716 0.75228 0.0
N1096 N 0.49365 0.4664 0.73848 0.0
N1097 N 0.5046 0.51039 0.75922 0.0
H1098 H 0.69787 0.88677 0.62483 0.0
H1099 H 0.65674 0.78534 0.58517 0.0
H1100 H 0.64376 0.85076 0.60183 0.0
H1101 H 0.70244 0.81479 0.64641 0.0
H1102 H 0.65784 0.81264 0.56906 0.0
H1103 H 0.70486 0.86369 0.6116 0.0
C1104 C 0.68761 0.8742 0.6159 0.0
C1105 C 0.67021 0.87045 0.61476 0.0
C1106 C 0.66799 0.8132 0.58512 0.0
C1107 C 0.67803 0.84433 0.59948 0.0
C1108 C 0.66743 0.79768 0.59405 0.0
C1109 C 0.67955 0.798 0.61696 0.0
C1110 C 0.68058 0.82902 0.59971 0.0
C1111 C 0.69296 0.81417 0.62847 0.0
C1112 C 0.69157 0.86107 0.60852 0.0
C1113 C 0.65731 0.854 0.60337 0.0
N1114 N 0.69296 0.8291 0.62017 0.0
N1115 N 0.66145 0.84148 0.59644 0.0
H1116 H 0.09852 0.80776 0.63141 0.0
H1117 H 0.19833 0.87531 0.58791 0.0
H1118 H 0.13674 0.79345 0.60254 0.0
H1119 H 0.16914 0.88444 0.66365 0.0
H1120 H 0.17154 0.84842 0.57162 0.0
H1121 H 0.12046 0.83871 0.62202 0.0
C1122 C 0.11134 0.81111 0.62206 0.0
C1123 C 0.11601 0.7982 0.61813 0.0
C1124 C 0.17089 0.85667 0.59096 0.0
C1125 C 0.14082 0.83318 0.60697 0.0
C1126 C 0.18608 0.87202 0.60002 0.0
C1127 C 0.18575 0.88196 0.62697 0.0
C1128 C 0.15539 0.85139 0.60902 0.0
C1129 C 0.16975 0.87705 0.64259 0.0
C1130 C 0.12381 0.8287 0.61683 0.0
C1131 C 0.13277 0.80312 0.60623 0.0
N1132 N 0.15517 0.86194 0.63365 0.0
N1133 N 0.14465 0.82026 0.6013 0.0
H1134 H 0.18334 0.29386 0.62364 0.0
H1135 H 0.13094 0.34429 0.59615 0.0
H1136 H 0.20589 0.34926 0.60725 0.0
H1137 H 0.10686 0.29137 0.63267 0.0
H1138 H 0.15695 0.34285 0.58095 0.0
H1139 H 0.15434 0.28974 0.60943 0.0
C1140 C 0.18223 0.30504 0.61603 0.0
C1141 C 0.19683 0.32194 0.617 0.0
C1142 C 0.14587 0.33136 0.59158 0.0
C1143 C 0.16409 0.31741 0.6008 0.0
C1144 C 0.13101 0.33217 0.60003 0.0
C1145 C 0.11694 0.31796 0.61572 0.0
C1146 C 0.14685 0.31642 0.59997 0.0
C1147 C 0.11756 0.30256 0.62048 0.0
C1148 C 0.16574 0.30272 0.60811 0.0
C1149 C 0.19484 0.33605 0.60721 0.0
N1150 N 0.13251 0.30231 0.61334 0.0
N1151 N 0.17876 0.33349 0.59983 0.0
H1152 H 0.04062 0.3771 0.27697 0.0
H1153 H 0.0425 0.37446 0.08031 0.0
H1154 H 0.03088 0.41183 0.21668 0.0
H1155 H 0.07283 0.35885 0.1407 0.0
H1156 H 0.03788 0.38814 0.12958 0.0
H1157 H 0.05232 0.37002 0.22764 0.0
C1158 C 0.04118 0.38343 0.25345 0.0
C1159 C 0.03471 0.39504 0.25094 0.0
C1160 C 0.04578 0.38196 0.13194 0.0
C1161 C 0.04775 0.3867 0.19418 0.0
C1162 C 0.04841 0.37414 0.10383 0.0
C1163 C 0.05802 0.36545 0.1064 0.0
C1164 C 0.05245 0.38075 0.16307 0.0
C1165 C 0.06537 0.36544 0.13754 0.0
C1166 C 0.04788 0.3794 0.2253 0.0
C1167 C 0.03576 0.40285 0.21978 0.0
N1168 N 0.06218 0.37269 0.16477 0.0
N1169 N 0.04186 0.39831 0.19251 0.0
H1170 H 0.60912 0.66111 0.27683 0.0
H1171 H 0.61438 0.66526 0.08037 0.0
H1172 H 0.57539 0.61644 0.2159 0.0
H1173 H 0.62927 0.71134 0.13997 0.0
H1174 H 0.59995 0.64704 0.12934 0.0
H1175 H 0.61668 0.67983 0.22733 0.0
C1176 C 0.60309 0.65528 0.25312 0.0
C1177 C 0.59164 0.63717 0.25049 0.0
C1178 C 0.60613 0.66113 0.13158 0.0
C1179 C 0.60055 0.65848 0.19355 0.0
C1180 C 0.61439 0.67154 0.10364 0.0
C1181 C 0.62311 0.68986 0.1061 0.0
C1182 C 0.60692 0.66908 0.16245 0.0
C1183 C 0.62268 0.69727 0.13691 0.0
C1184 C 0.6074 0.66598 0.22487 0.0
C1185 C 0.58423 0.63034 0.2191 0.0
N1186 N 0.61501 0.68688 0.16402 0.0
N1187 N 0.58904 0.64094 0.19176 0.0
H1188 H 0.27933 0.91196 0.14138 0.0
H1189 H 0.37606 0.96148 0.21891 0.0
H1190 H 0.32524 0.94723 0.08483 0.0
H1191 H 0.32942 0.9445 0.27803 0.0
H1192 H 0.35775 0.94965 0.1689 0.0
H1193 H 0.29786 0.91724 0.19068 0.0
C1194 C 0.29334 0.92053 0.13911 0.0
C1195 C 0.30073 0.92925 0.10894 0.0
C1196 C 0.35154 0.9483 0.19291 0.0
C1197 C 0.32198 0.93531 0.16526 0.0
C1198 C 0.36196 0.95494 0.22153 0.0
C1199 C 0.35427 0.95408 0.25273 0.0
C1200 C 0.33328 0.94052 0.19556 0.0
C1201 C 0.33592 0.94555 0.25449 0.0
C1202 C 0.30388 0.92362 0.16734 0.0
C1203 C 0.31897 0.94031 0.1076 0.0
N1204 N 0.32606 0.93917 0.22631 0.0
N1205 N 0.32895 0.94307 0.13535 0.0
H1206 H 0.37411 0.04227 0.94577 0.0
H1207 H 0.37963 0.04451 0.74877 0.0
H1208 H 0.36504 0.07806 0.88748 0.0
H1209 H 0.40763 0.02612 0.80913 0.0
H1210 H 0.37429 0.05712 0.79886 0.0
H1211 H 0.38659 0.03626 0.89629 0.0
C1212 C 0.37498 0.04907 0.92268 0.0
C1213 C 0.36847 0.06066 0.92078 0.0
C1214 C 0.38185 0.05057 0.80107 0.0
C1215 C 0.38242 0.05354 0.86377 0.0
C1216 C 0.3849 0.04337 0.77247 0.0
C1217 C 0.39405 0.03419 0.77473 0.0
C1218 C 0.38764 0.04827 0.83236 0.0
C1219 C 0.40055 0.03311 0.80616 0.0
C1220 C 0.38212 0.04564 0.89443 0.0
C1221 C 0.36994 0.06907 0.89014 0.0
N1222 N 0.39697 0.03979 0.8338 0.0
N1223 N 0.37648 0.06513 0.86273 0.0
H1224 H 0.90907 0.28625 0.88727 0.0
H1225 H 0.96074 0.38097 0.80277 0.0
H1226 H 0.94922 0.3317 0.93833 0.0
H1227 H 0.94389 0.33341 0.74672 0.0
H1228 H 0.94894 0.36349 0.85375 0.0
H1229 H 0.91443 0.3041 0.83675 0.0
C1230 C 0.91874 0.30005 0.88806 0.0
C1231 C 0.92879 0.3075 0.91695 0.0
C1232 C 0.94759 0.35691 0.83015 0.0
C1233 C 0.93481 0.32793 0.85957 0.0
C1234 C 0.95419 0.36684 0.80102 0.0
C1235 C 0.95339 0.35863 0.77047 0.0
C1236 C 0.93983 0.33863 0.82863 0.0
C1237 C 0.94488 0.34027 0.76978 0.0
C1238 C 0.92185 0.31017 0.85922 0.0
C1239 C 0.94127 0.32542 0.91652 0.0
N1240 N 0.93847 0.33088 0.79845 0.0
N1241 N 0.94393 0.33502 0.88829 0.0
H1242 H 0.69986 0.62093 0.88399 0.0
H1243 H 0.60422 0.57918 0.8039 0.0
H1244 H 0.65542 0.61649 0.9376 0.0
H1245 H 0.65119 0.60912 0.74581 0.0
H1246 H 0.62226 0.58477 0.85402 0.0
H1247 H 0.68133 0.6087 0.83416 0.0
C1248 C 0.68614 0.61705 0.88548 0.0
C1249 C 0.67917 0.6198 0.9149 0.0
C1250 C 0.62859 0.58986 0.83017 0.0
C1251 C 0.65796 0.6057 0.85828 0.0
C1252 C 0.61833 0.58658 0.80152 0.0
C1253 C 0.62621 0.59379 0.77064 0.0
C1254 C 0.64687 0.60013 0.82783 0.0
C1255 C 0.64458 0.60341 0.76914 0.0
C1256 C 0.67563 0.61019 0.85702 0.0
C1257 C 0.66133 0.61469 0.91536 0.0
N1258 N 0.65429 0.60635 0.79735 0.0
N1259 N 0.65135 0.60788 0.88749 0.0
H1260 H 0.90547 0.61779 0.889 0.0
H1261 H 0.95772 0.57659 0.79992 0.0
H1262 H 0.94664 0.61345 0.93804 0.0
H1263 H 0.93988 0.60707 0.7461 0.0
H1264 H 0.94653 0.58217 0.85189 0.0
H1265 H 0.91103 0.60605 0.83763 0.0
C1266 C 0.91543 0.61403 0.88917 0.0
C1267 C 0.92567 0.61666 0.91778 0.0
C1268 C 0.94485 0.58739 0.82858 0.0
C1269 C 0.93193 0.60312 0.85935 0.0
C1270 C 0.95111 0.58412 0.79889 0.0
C1271 C 0.9498 0.59145 0.76864 0.0
C1272 C 0.93691 0.59776 0.82792 0.0
C1273 C 0.94124 0.60125 0.76889 0.0
C1274 C 0.91865 0.60746 0.85983 0.0
C1275 C 0.93851 0.61172 0.91649 0.0
N1276 N 0.93513 0.60414 0.79806 0.0
N1277 N 0.94128 0.60518 0.88778 0.0
H1278 H 0.37679 0.32737 0.94635 0.0
H1279 H 0.37566 0.32922 0.75002 0.0
H1280 H 0.36258 0.28099 0.8882 0.0
H1281 H 0.41144 0.37481 0.80676 0.0
H1282 H 0.37005 0.31124 0.80016 0.0
H1283 H 0.38913 0.34516 0.89595 0.0
C1284 C 0.37652 0.32095 0.92308 0.0
C1285 C 0.36861 0.30266 0.92148 0.0
C1286 C 0.37934 0.32514 0.80151 0.0
C1287 C 0.38233 0.32291 0.86356 0.0
C1288 C 0.38252 0.33541 0.77292 0.0
C1289 C 0.39402 0.35355 0.77422 0.0
C1290 C 0.38735 0.3331 0.83188 0.0
C1291 C 0.40253 0.36087 0.8046 0.0
C1292 C 0.38358 0.33111 0.89434 0.0
C1293 C 0.3686 0.29505 0.89062 0.0
N1294 N 0.3988 0.35068 0.83237 0.0
N1295 N 0.37505 0.30517 0.86277 0.0
H1296 H 0.6544 0.03462 0.9413 0.0
H1297 H 0.6536 0.0408 0.74604 0.0
H1298 H 0.69972 0.07362 0.88812 0.0
H1299 H 0.60671 0.02492 0.80369 0.0
H1300 H 0.671 0.05226 0.79717 0.0
H1301 H 0.63665 0.02994 0.89114 0.0
C1302 C 0.66056 0.04237 0.91919 0.0
C1303 C 0.67856 0.05451 0.91886 0.0
C1304 C 0.65693 0.04654 0.79851 0.0
C1305 C 0.65842 0.04892 0.86117 0.0
C1306 C 0.64699 0.03998 0.76937 0.0
C1307 C 0.62868 0.03187 0.77062 0.0
C1308 C 0.64847 0.04454 0.82928 0.0
C1309 C 0.6208 0.03113 0.80155 0.0
C1310 C 0.65042 0.03972 0.89061 0.0
C1311 C 0.68587 0.06418 0.8895 0.0
N1312 N 0.63071 0.03707 0.82976 0.0
N1313 N 0.67585 0.06095 0.86162 0.0
H1314 H 0.62588 0.91047 0.14054 0.0
H1315 H 0.57589 0.95755 0.21605 0.0
H1316 H 0.61233 0.94297 0.08195 0.0
H1317 H 0.60885 0.94479 0.2751 0.0
H1318 H 0.58236 0.94526 0.1667 0.0
H1319 H 0.61285 0.91607 0.18982 0.0
C1320 C 0.61986 0.91849 0.13787 0.0
C1321 C 0.6203 0.92636 0.10711 0.0
C1322 C 0.58796 0.94494 0.19059 0.0
C1323 C 0.60534 0.93276 0.16334 0.0
C1324 C 0.58418 0.95184 0.21881 0.0
C1325 C 0.59193 0.9523 0.24973 0.0
C1326 C 0.59935 0.93821 0.1934 0.0
C1327 C 0.60269 0.94482 0.25174 0.0
C1328 C 0.61253 0.92177 0.16605 0.0
C1329 C 0.61239 0.93674 0.1052 0.0
N1330 N 0.60612 0.93813 0.22395 0.0
N1331 N 0.60529 0.93968 0.13293 0.0
H1332 H 0.02976 0.61751 0.21406 0.0
H1333 H 0.07206 0.71481 0.14052 0.0
H1334 H 0.03815 0.66197 0.27304 0.0
H1335 H 0.04428 0.66846 0.07979 0.0
H1336 H 0.06666 0.69619 0.18968 0.0
H1337 H 0.04201 0.63677 0.16534 0.0
C1338 C 0.0345 0.63137 0.21697 0.0
C1339 C 0.03282 0.63811 0.24766 0.0
C1340 C 0.06196 0.69012 0.1655 0.0
C1341 C 0.04687 0.6602 0.19202 0.0
C1342 C 0.06514 0.70073 0.13736 0.0
C1343 C 0.05851 0.69319 0.10597 0.0
C1344 C 0.05231 0.67183 0.16217 0.0
C1345 C 0.04953 0.67485 0.1035 0.0
C1346 C 0.04138 0.64232 0.18908 0.0
C1347 C 0.03908 0.65618 0.24984 0.0
N1348 N 0.04664 0.6648 0.13122 0.0
N1349 N 0.04577 0.66657 0.22239 0.0
H1350 H 0.32663 0.37696 0.28027 0.0
H1351 H 0.324 0.37793 0.0836 0.0
H1352 H 0.37252 0.41061 0.22209 0.0
H1353 H 0.27808 0.36426 0.14283 0.0
H1354 H 0.3421 0.38988 0.13372 0.0
H1355 H 0.30851 0.37194 0.23058 0.0
C1356 C 0.33287 0.38351 0.25716 0.0
C1357 C 0.35113 0.39419 0.25533 0.0
C1358 C 0.3281 0.38453 0.13566 0.0
C1359 C 0.33049 0.38818 0.19815 0.0
C1360 C 0.31775 0.37769 0.10706 0.0
C1361 C 0.29949 0.37004 0.10903 0.0
C1362 C 0.32011 0.38335 0.16667 0.0
C1363 C 0.29211 0.37008 0.14013 0.0
C1364 C 0.32251 0.38065 0.22881 0.0
C1365 C 0.3585 0.40232 0.22469 0.0
N1366 N 0.3024 0.37633 0.16783 0.0
N1367 N 0.34819 0.39891 0.19718 0.0
H1368 H 0.69801 0.74778 0.55441 0.0
H1369 H 0.74184 0.69707 0.46872 0.0
H1370 H 0.70802 0.71119 0.60762 0.0
H1371 H 0.70876 0.71176 0.4151 0.0
H1372 H 0.73724 0.70964 0.51984 0.0
H1373 H 0.70967 0.74193 0.50337 0.0
C1374 C 0.703 0.7388 0.55555 0.0
C1375 C 0.70194 0.72987 0.58526 0.0
C1376 C 0.73123 0.71034 0.49672 0.0
C1377 C 0.71536 0.72324 0.5271 0.0
C1378 C 0.73395 0.7033 0.46751 0.0
C1379 C 0.72558 0.70328 0.43766 0.0
C1380 C 0.72035 0.7177 0.49591 0.0
C1381 C 0.71536 0.71139 0.43762 0.0
C1382 C 0.70954 0.7354 0.52638 0.0
C1383 C 0.70848 0.71827 0.5852 0.0
N1384 N 0.71299 0.71823 0.46632 0.0
N1385 N 0.71488 0.71526 0.55656 0.0
H1386 H 0.27113 -0.00392 0.41579 0.0
H1387 H 0.27605 -0.00273 0.61188 0.0
H1388 H 0.28649 0.04345 0.47145 0.0
H1389 H 0.238 0.95124 0.55904 0.0
H1390 H 0.28115 0.01447 0.56075 0.0
H1391 H 0.25974 0.97917 0.46748 0.0
C1392 C 0.27186 0.0029 0.43879 0.0
C1393 C 0.27977 0.02121 0.43929 0.0
C1394 C 0.27149 0.00066 0.56049 0.0
C1395 C 0.26719 0.00197 0.49865 0.0
C1396 C 0.2686 0.99083 0.58963 0.0
C1397 C 0.25658 0.97279 0.58972 0.0
C1398 C 0.26266 0.99232 0.53093 0.0
C1399 C 0.24732 0.96513 0.56013 0.0
C1400 C 0.26535 0.99324 0.46826 0.0
C1401 C 0.28041 0.02935 0.46986 0.0
N1402 N 0.25077 0.97486 0.53177 0.0
N1403 N 0.2745 0.01972 0.49841 0.0
H1404 H 0.04467 0.2934 0.55309 0.0
H1405 H 0.94944 0.24701 0.46961 0.0
H1406 H -0.00244 0.27946 0.60856 0.0
H1407 H -0.00343 0.28213 0.41599 0.0
H1408 H 0.96704 0.25143 0.52001 0.0
H1409 H 0.02705 0.28181 0.50218 0.0
C1410 C 0.03059 0.28755 0.55473 0.0
C1411 C 0.02257 0.2875 0.58508 0.0
C1412 C 0.97351 0.25793 0.49703 0.0
C1413 C 0.0024 0.2742 0.52702 0.0
C1414 C 0.96352 0.25533 0.46821 0.0
C1415 C 0.97154 0.26431 0.43861 0.0
C1416 C 0.99169 0.26934 0.49606 0.0
C1417 C 0.98983 0.27505 0.43834 0.0
C1418 C 0.02058 0.28105 0.52563 0.0
C1419 C 0.00428 0.27987 0.58565 0.0
N1420 N -0.00072 0.27731 0.46665 0.0
N1421 N -0.00518 0.27358 0.55704 0.0
H1422 H 0.27751 0.2809 0.41618 0.0
H1423 H 0.27615 0.28116 0.61288 0.0
H1424 H 0.28804 0.24585 0.47362 0.0
H1425 H 0.24452 0.29614 0.55501 0.0
H1426 H 0.28101 0.26835 0.56253 0.0
H1427 H 0.26563 0.287 0.46647 0.0
C1428 C 0.27708 0.27428 0.43927 0.0
C1429 C 0.28381 0.26287 0.4407 0.0
C1430 C 0.27277 0.27419 0.56096 0.0
C1431 C 0.2706 0.27011 0.49855 0.0
C1432 C 0.27 0.28151 0.58969 0.0
C1433 C 0.25994 0.28977 0.58816 0.0
C1434 C 0.26579 0.27549 0.53026 0.0
C1435 C 0.25232 0.28986 0.55739 0.0
C1436 C 0.27028 0.27776 0.46796 0.0
C1437 C 0.28294 0.25469 0.47134 0.0
N1438 N 0.25564 0.28312 0.52955 0.0
N1439 N 0.27675 0.2587 0.49917 0.0
H1440 H 0.69253 0.94034 0.55385 0.0
H1441 H 0.74216 0.03576 0.47138 0.0
H1442 H 0.70682 0.98746 0.6096 0.0
H1443 H 0.70627 0.98925 0.41701 0.0
H1444 H 0.73661 0.01791 0.52187 0.0
H1445 H 0.70501 0.95808 0.50338 0.0
C1446 C 0.69863 0.95444 0.55567 0.0
C1447 C 0.69853 0.96243 0.58596 0.0
C1448 C 0.73019 0.01162 0.49872 0.0
C1449 C 0.71285 0.98274 0.52836 0.0
C1450 C 0.73342 0.02175 0.46986 0.0
C1451 C 0.72457 0.01398 0.44 0.0
C1452 C 0.71828 0.99355 0.49751 0.0
C1453 C 0.71328 -0.00421 0.43956 0.0
C1454 C 0.70564 0.96452 0.52681 0.0
C1455 C 0.70651 0.98076 0.58673 0.0
N1456 N 0.71042 0.98619 0.46789 0.0
N1457 N 0.7133 0.99029 0.55833 0.0
H1458 H 0.04576 0.74894 0.54937 0.0
H1459 H 0.94931 0.70023 0.47089 0.0
H1460 H -0.00073 0.71781 0.60803 0.0
H1461 H -0.00449 0.71099 0.41525 0.0
H1462 H 0.96765 0.71374 0.52038 0.0
H1463 H 0.02746 0.74221 0.49931 0.0
C1464 C 0.03169 0.74101 0.55188 0.0
C1465 C 0.02405 0.73383 0.58294 0.0
C1466 C 0.97376 0.71335 0.49717 0.0
C1467 C 0.00307 0.72612 0.52574 0.0
C1468 C 0.96334 0.70576 0.46886 0.0
C1469 C 0.97088 0.70438 0.43893 0.0
C1470 C -0.00812 0.71988 0.49536 0.0
C1471 C 0.98913 0.71166 0.43786 0.0
C1472 C 0.02128 0.73708 0.52325 0.0
C1473 C 0.00573 0.72353 0.58458 0.0
N1474 N -0.00101 0.71905 0.46567 0.0
N1475 N -0.00413 0.71993 0.55638 0.0
H1476 H 0.04871 0.33676 0.92819 0.0
H1477 H 0.08744 0.31325 0.76767 0.0
H1478 H 0.09352 0.32947 0.93051 0.0
H1479 H 0.03959 0.31521 0.76496 0.0
H1480 H 0.08973 0.31931 0.82746 0.0
H1481 H 0.0458 0.33046 0.86802 0.0
C1482 C 0.05814 0.33419 0.91598 0.0
C1483 C 0.07138 0.33364 0.93452 0.0
C1484 C 0.07861 0.31826 0.81394 0.0
C1485 C 0.06789 0.32605 0.86584 0.0
C1486 C 0.07723 0.31466 0.77976 0.0
C1487 C 0.06329 0.31369 0.76116 0.0
C1488 C 0.06606 0.32111 0.82984 0.0
C1489 C 0.05049 0.3157 0.7783 0.0
C1490 C 0.05634 0.33037 0.8817 0.0
C1491 C 0.08308 0.33 0.91735 0.0
N1492 N 0.05227 0.31949 0.8116 0.0
N1493 N 0.08101 0.32628 0.88415 0.0
H1494 H 0.65267 0.70818 0.92905 0.0
H1495 H 0.68316 0.77168 0.76948 0.0
H1496 H 0.66224 0.76115 0.92989 0.0
H1497 H 0.67372 0.7188 0.76527 0.0
H1498 H 0.67659 0.76806 0.82904 0.0
H1499 H 0.65983 0.71126 0.86924 0.0
C1500 C 0.65593 0.72032 0.91659 0.0
C1501 C 0.65686 0.73443 0.93464 0.0
C1502 C 0.6761 0.75726 0.81525 0.0
C1503 C 0.66548 0.73818 0.8664 0.0
C1504 C 0.68002 0.75939 0.7812 0.0
C1505 C 0.67898 0.74552 0.76221 0.0
C1506 C 0.67097 0.74111 0.83066 0.0
C1507 C 0.67479 0.72989 0.77891 0.0
C1508 C 0.66023 0.72215 0.88252 0.0
C1509 C 0.66139 0.74992 0.91715 0.0
N1510 N 0.67077 0.72804 0.81211 0.0
N1511 N 0.6656 0.7514 0.8842 0.0
H1512 H 0.28222 0.94182 0.93187 0.0
H1513 H 0.21607 0.91439 0.77693 0.0
H1514 H 0.23063 0.89614 0.92911 0.0
H1515 H 0.27032 0.95457 0.76871 0.0
H1516 H 0.22096 0.90995 0.83507 0.0
H1517 H 0.27851 0.94793 0.87343 0.0
C1518 C 0.27029 0.93286 0.91886 0.0
C1519 C 0.25671 0.91845 0.93562 0.0
C1520 C 0.23181 0.91986 0.82073 0.0
C1521 C 0.25219 0.92568 0.86909 0.0
C1522 C 0.22896 0.92256 0.78752 0.0
C1523 C 0.2428 0.93485 0.76769 0.0
C1524 C 0.24865 0.92948 0.83455 0.0
C1525 C 0.25923 0.94501 0.78302 0.0
C1526 C 0.2681 0.93648 0.8856 0.0
C1527 C 0.24146 0.90745 0.91745 0.0
N1528 N 0.26175 0.94199 0.81545 0.0
N1529 N 0.23958 0.91138 0.88545 0.0
H1530 H 0.33681 0.05057 0.09802 0.0
H1531 H 0.30876 0.0873 0.25562 0.0
H1532 H 0.33661 0.09935 0.09921 0.0
H1533 H 0.31023 0.0392 0.25921 0.0
H1534 H 0.31773 0.09087 0.19725 0.0
H1535 H 0.32748 0.04594 0.15677 0.0
C1536 C 0.33519 0.06049 0.11076 0.0
C1537 C 0.33752 0.07538 0.0935 0.0
C1538 C 0.31596 0.07943 0.2106 0.0
C1539 C 0.32637 0.06993 0.1605 0.0
C1540 C 0.31066 0.07729 0.24396 0.0
C1541 C 0.30872 0.06292 0.26251 0.0
C1542 C 0.31951 0.06718 0.1954 0.0
C1543 C 0.31143 0.05042 0.24589 0.0
C1544 C 0.32964 0.05773 0.14421 0.0
C1545 C 0.33496 0.08765 0.11132 0.0
N1546 N 0.31684 0.05292 0.21339 0.0
N1547 N 0.32944 0.08459 0.1436 0.0
H1548 H 0.9569 0.28019 0.2611 0.0
H1549 H 0.8912 0.2565 0.10705 0.0
H1550 H 0.90508 0.23494 0.25575 0.0
H1551 H 0.94679 0.29054 0.09418 0.0
H1552 H 0.8961 0.25267 0.1655 0.0
H1553 H 0.95397 0.28688 0.2025 0.0
C1554 C 0.94508 0.27147 0.24752 0.0
C1555 C 0.93117 0.257 0.26357 0.0
C1556 C 0.90725 0.26113 0.15006 0.0
C1557 C 0.92758 0.26493 0.1971 0.0
C1558 C 0.90444 0.2635 0.1167 0.0
C1559 C 0.9186 0.27376 0.09552 0.0
C1560 C 0.92439 0.26906 0.16265 0.0
C1561 C 0.93547 0.28255 0.10961 0.0
C1562 C 0.94336 0.27541 0.21421 0.0
C1563 C 0.91611 0.24629 0.2447 0.0
N1564 N 0.93794 0.27985 0.14228 0.0
N1565 N 0.91467 0.25058 0.21277 0.0
H1566 H 0.7568 0.6701 0.25328 0.0
H1567 H 0.69688 0.6527 0.09214 0.0
H1568 H 0.70918 0.67242 0.25902 0.0
H1569 H 0.73531 0.63645 0.10293 0.0
H1570 H 0.70123 0.66157 0.15131 0.0
H1571 H 0.75048 0.66133 0.19506 0.0
C1572 C 0.74512 0.66905 0.24216 0.0
C1573 C 0.73346 0.67191 0.26129 0.0
C1574 C 0.7085 0.65583 0.14072 0.0
C1575 C 0.72591 0.66144 0.19427 0.0
C1576 C 0.70587 0.65057 0.10707 0.0
C1577 C 0.71581 0.64389 0.09241 0.0
C1578 C 0.72124 0.65454 0.15957 0.0
C1579 C 0.72744 0.64165 0.11295 0.0
C1580 C 0.74141 0.66383 0.2089 0.0
C1581 C 0.71857 0.67039 0.24524 0.0
N1582 N 0.72996 0.64714 0.1452 0.0
N1583 N 0.71513 0.66512 0.21267 0.0
H1584 H 0.90332 0.66986 0.25766 0.0
H1585 H 0.94318 0.64972 0.09585 0.0
H1586 H 0.95309 0.67174 0.262 0.0
H1587 H 0.8885 0.63279 0.11 0.0
H1588 H 0.94866 0.65955 0.15445 0.0
H1589 H 0.89992 0.65993 0.20006 0.0
C1590 C 0.91372 0.66848 0.24635 0.0
C1591 C 0.92848 0.67156 0.26496 0.0
C1592 C 0.93545 0.65344 0.14474 0.0
C1593 C 0.92446 0.65978 0.19862 0.0
C1594 C 0.93225 0.64763 0.11142 0.0
C1595 C 0.91534 0.64048 0.09781 0.0
C1596 C 0.92166 0.65224 0.16434 0.0
C1597 C 0.90177 0.63833 0.11917 0.0
C1598 C 0.91166 0.6626 0.21345 0.0
C1599 C 0.94151 0.66957 0.24865 0.0
N1600 N 0.90527 0.64437 0.15105 0.0
N1601 N 0.93915 0.66368 0.21643 0.0
H1602 H 0.30886 0.22132 0.26005 0.0
H1603 H 0.33857 0.28429 0.09964 0.0
H1604 H 0.31417 0.27263 0.26198 0.0
H1605 H 0.33358 0.23311 0.10169 0.0
H1606 H 0.33018 0.28089 0.15887 0.0
H1607 H 0.31685 0.22537 0.20113 0.0
C1608 C 0.3114 0.23334 0.24793 0.0
C1609 C 0.31083 0.24665 0.26614 0.0
C1610 C 0.33107 0.27049 0.14638 0.0
C1611 C 0.32048 0.25159 0.1984 0.0
C1612 C 0.33608 0.27251 0.11265 0.0
C1613 C 0.33679 0.25896 0.09553 0.0
C1614 C 0.32675 0.25482 0.16309 0.0
C1615 C 0.33318 0.2439 0.11368 0.0
C1616 C 0.31613 0.23572 0.21425 0.0
C1617 C 0.31431 0.26196 0.24894 0.0
N1618 N 0.32824 0.24221 0.14626 0.0
N1619 N 0.31915 0.26408 0.21612 0.0
H1620 H 0.75952 0.07559 0.25319 0.0
H1621 H 0.69583 0.03738 0.09565 0.0
H1622 H 0.70842 0.02966 0.26285 0.0
H1623 H 0.73818 0.09062 0.10527 0.0
H1624 H 0.70026 0.03222 0.15446 0.0
H1625 H 0.75309 0.07826 0.19514 0.0
C1626 C 0.74703 0.06584 0.24295 0.0
C1627 C 0.73446 0.05245 0.26315 0.0
C1628 C 0.70838 0.04507 0.14368 0.0
C1629 C 0.72682 0.05569 0.19637 0.0
C1630 C 0.70574 0.04809 0.11026 0.0
C1631 C 0.71671 0.06445 0.09536 0.0
C1632 C 0.7222 0.05844 0.162 0.0
C1633 C 0.72948 0.07776 0.11547 0.0
C1634 C 0.74328 0.0675 0.2098 0.0
C1635 C 0.71853 0.04017 0.24822 0.0
N1636 N 0.73199 0.0744 0.14744 0.0
N1637 N 0.71508 0.04216 0.21574 0.0
H1638 H 0.66514 0.89345 0.76503 0.0
H1639 H 0.64726 0.93496 0.92824 0.0
H1640 H 0.66889 0.94409 0.76508 0.0
H1641 H 0.64881 0.88686 0.92788 0.0
H1642 H 0.65323 0.93782 0.86798 0.0
H1643 H 0.65861 0.89079 0.82463 0.0
C1644 C 0.66485 0.90415 0.77768 0.0
C1645 C 0.66761 0.91904 0.75992 0.0
C1646 C 0.6521 0.92657 0.88108 0.0
C1647 C 0.65969 0.91588 0.82841 0.0
C1648 C 0.64847 0.9248 0.91542 0.0
C1649 C 0.64754 0.91065 0.93325 0.0
C1650 C 0.65477 0.91406 0.86443 0.0
C1651 C 0.64945 0.89802 0.91529 0.0
C1652 C 0.66099 0.90257 0.81176 0.0
C1653 C 0.667 0.93245 0.77776 0.0
N1654 N 0.65305 0.90008 0.88203 0.0
N1655 N 0.66296 0.93049 0.81097 0.0
H1656 H 0.09031 0.74041 0.75962 0.0
H1657 H 0.06071 0.75863 0.93251 0.0
H1658 H 0.04598 0.74837 0.76503 0.0
H1659 H 0.07581 0.71924 0.9247 0.0
H1660 H 0.05938 0.75952 0.87152 0.0
H1661 H 0.08943 0.73711 0.82044 0.0
C1662 C 0.08047 0.74162 0.77365 0.0
C1663 C 0.06827 0.74484 0.75725 0.0
C1664 C 0.06294 0.75067 0.88317 0.0
C1665 C 0.06735 0.74118 0.82688 0.0
C1666 C 0.06387 0.75023 0.91792 0.0
C1667 C 0.06853 0.73893 0.93368 0.0
C1668 C 0.06718 0.74008 0.86387 0.0
C1669 C 0.07221 0.72816 0.91353 0.0
C1670 C 0.0799 0.73956 0.80828 0.0
C1671 C 0.05565 0.74598 0.77669 0.0
N1672 N 0.07172 0.72919 0.87954 0.0
N1673 N 0.05566 0.7444 0.8106 0.0
H1674 H 0.27034 0.31889 0.76737 0.0
H1675 H 0.23249 0.34341 0.928 0.0
H1676 H 0.22419 0.32395 0.7666 0.0
H1677 H 0.28043 0.34161 0.93022 0.0
H1678 H 0.22972 0.33666 0.8685 0.0
H1679 H 0.27393 0.32606 0.82719 0.0
C1680 C 0.26076 0.32115 0.77986 0.0
C1681 C 0.24694 0.32081 0.76181 0.0
C1682 C 0.24095 0.33789 0.88183 0.0
C1683 C 0.2512 0.32942 0.83011 0.0
C1684 C 0.24262 0.34191 0.91585 0.0
C1685 C 0.25672 0.34311 0.93427 0.0
C1686 C 0.25338 0.33487 0.86588 0.0
C1687 C 0.26941 0.34095 0.91703 0.0
C1688 C 0.26295 0.32546 0.81393 0.0
C1689 C 0.23508 0.32409 0.77934 0.0
N1690 N 0.26735 0.33677 0.88389 0.0
N1691 N 0.23753 0.32832 0.81232 0.0
H1692 H 0.00752 0.38778 0.42845 0.0
H1693 H 0.98739 0.42769 0.59142 0.0
H1694 H 0.01 0.43783 0.43167 0.0
H1695 H 0.98372 0.37709 0.59073 0.0
H1696 H -0.00472 0.43113 0.53246 0.0
H1697 H -5e-05 0.38383 0.48804 0.0
C1698 C 0.00688 0.39812 0.44179 0.0
C1699 C 0.00939 0.41317 0.42489 0.0
C1700 C -0.00737 0.41919 0.54503 0.0
C1701 C 0.00029 0.40851 0.49292 0.0
C1702 C 0.98797 0.41715 0.57873 0.0
C1703 C 0.98487 0.40207 0.59619 0.0
C1704 C -0.00563 0.40612 0.52841 0.0
C1705 C 0.98587 0.38888 0.57828 0.0
C1706 C 0.00233 0.39574 0.47574 0.0
C1707 C 0.00814 0.426 0.4435 0.0
N1708 N 0.99067 0.39127 0.54545 0.0
N1709 N 0.00357 0.42331 0.47632 0.0
H1710 H 0.55579 0.55926 0.59283 0.0
H1711 H 0.59809 0.61732 0.42845 0.0
H1712 H 0.60742 0.60488 0.59164 0.0
H1713 H 0.54844 0.56921 0.43052 0.0
H1714 H 0.60127 0.61421 0.48859 0.0
H1715 H 0.55302 0.56311 0.5333 0.0
C1716 C 0.56668 0.56996 0.57993 0.0
C1717 C 0.58187 0.58175 0.59736 0.0
C1718 C 0.58961 0.60443 0.47589 0.0
C1719 C 0.57861 0.58651 0.52893 0.0
C1720 C 0.58768 0.60632 0.44163 0.0
C1721 C 0.57297 0.5935 0.4243 0.0
C1722 C 0.57672 0.58966 0.49298 0.0
C1723 C 0.56003 0.5794 0.4427 0.0
C1724 C 0.56503 0.57224 0.54589 0.0
C1725 C 0.59552 0.59539 0.57921 0.0
N1726 N 0.56226 0.57783 0.47587 0.0
N1727 N 0.59351 0.59749 0.54604 0.0
H1728 H 0.39628 0.97008 0.6026 0.0
H1729 H 0.42147 0.01501 0.42668 0.0
H1730 H 0.40959 0.02398 0.59212 0.0
H1731 H 0.37786 0.96245 0.43603 0.0
H1732 H 0.42175 0.01834 0.48742 0.0
H1733 H 0.39383 0.96679 0.54179 0.0
C1734 C 0.39883 0.98128 0.58746 0.0
C1735 C 0.4033 -0.0026 0.60243 0.0
C1736 C 0.41213 0.0061 0.47615 0.0
C1737 C 0.40066 0.99367 0.5328 0.0
C1738 C 0.41204 0.00408 0.44156 0.0
C1739 C 0.3997 0.98833 0.42627 0.0
C1740 C 0.40012 0.99212 0.49585 0.0
C1741 C 0.38762 0.97476 0.4468 0.0
C1742 C 0.39726 0.97931 0.55282 0.0
C1743 C 0.40617 0.01137 0.58158 0.0
N1744 N 0.38829 0.97687 0.48067 0.0
N1745 N 0.40506 0.00926 0.5477 0.0
H1746 H 0.60046 0.98038 0.42819 0.0
H1747 H 0.56287 0.00547 0.58843 0.0
H1748 H 0.5535 0.98403 0.4281 0.0
H1749 H 0.61069 0.00345 0.59086 0.0
H1750 H 0.55988 -0.00174 0.52914 0.0
H1751 H 0.60424 0.98786 0.48785 0.0
C1752 C 0.59074 0.98237 0.44081 0.0
C1753 C 0.57663 0.98157 0.42299 0.0
C1754 C 0.57114 -0.00047 0.54247 0.0
C1755 C 0.58113 0.99057 0.49107 0.0
C1756 C 0.57294 0.00382 0.57636 0.0
C1757 C 0.58705 0.00508 0.59478 0.0
C1758 C 0.58347 -0.00368 0.52666 0.0
C1759 C 0.59965 0.00274 0.57765 0.0
C1760 C 0.59303 0.98687 0.47479 0.0
C1761 C 0.5646 0.98453 0.44067 0.0
N1762 N 0.59748 -0.00169 0.54463 0.0
N1763 N 0.56718 0.98897 0.47354 0.0
H1764 H 0.97592 0.5535 0.58424 0.0
H1765 H 0.00295 0.61687 0.42468 0.0
H1766 H 0.97818 0.60346 0.58672 0.0
H1767 H 0.00085 0.56697 0.4259 0.0
H1768 H -0.00561 0.61281 0.48384 0.0
H1769 H 0.98392 0.55806 0.52533 0.0
C1770 C 0.97777 0.56531 0.57224 0.0
C1771 C 0.97636 0.57811 0.59061 0.0
C1772 C -0.00404 0.60284 0.47118 0.0
C1773 C 0.98604 0.58367 0.5229 0.0
C1774 C 0.00107 0.60525 0.43749 0.0
C1775 C 0.00264 0.59225 0.42015 0.0
C1776 C -0.00761 0.58732 0.48764 0.0
C1777 C -0.00022 0.57735 0.43807 0.0
C1778 C 0.98252 0.568 0.53857 0.0
C1779 C 0.97899 0.59317 0.57356 0.0
N1780 N -0.00529 0.57527 0.47061 0.0
N1781 N 0.98387 0.59562 0.54076 0.0
H1782 H 0.37046 0.38346 0.43297 0.0
H1783 H 0.43532 0.41626 0.59062 0.0
H1784 H 0.42207 0.42914 0.43328 0.0
H1785 H 0.38269 0.37239 0.59601 0.0
H1786 H 0.43087 0.4197 0.53169 0.0
H1787 H 0.37423 0.37872 0.49215 0.0
C1788 C 0.38243 0.39269 0.44557 0.0
C1789 C 0.39598 0.40672 0.42797 0.0
C1790 C 0.4203 0.4092 0.54558 0.0
C1791 C 0.40053 0.4011 0.49546 0.0
C1792 C 0.42291 0.40712 0.57927 0.0
C1793 C 0.40937 0.39403 0.59847 0.0
C1794 C 0.40397 0.39819 0.53071 0.0
C1795 C 0.39355 0.38261 0.58221 0.0
C1796 C 0.38465 0.38985 0.47928 0.0
C1797 C 0.41127 0.41812 0.44564 0.0
N1798 N 0.39123 0.38505 0.54935 0.0
N1799 N 0.41315 0.41499 0.47818 0.0
loop_
_geom_bond_atom_site_label_1
_geom_bond_atom_site_label_2
_geom_bond_distance
_geom_bond_site_symmetry_2
_ccdc_geom_bond_type
O0 Cd1 2.223 . S
O0 C8 1.315 . S
Cd1 O0 2.223 . S
Cd1 O4 2.297 . S
Cd1 O5 2.439 1_556 S
Cd1 O11 2.240 1_556 S
Cd2 O3 2.240 . S
Cd2 O10 2.223 . S
Cd2 O12 2.297 1_556 S
Cd2 O13 2.439 1_556 S
O3 Cd2 2.240 . S
O3 C8 1.279 . S
O4 Cd1 2.297 . S
O4 C6 1.247 1_556 S
O5 Cd1 2.439 1_554 S
O5 C6 1.208 . S
C6 O4 1.247 1_554 S
C6 O5 1.208 . S
C7 O12 1.247 . S
C7 O13 1.208 . S
C8 O0 1.315 . S
C8 O3 1.279 . S
C9 O10 1.316 1_554 S
C9 O11 1.278 . S
O10 Cd2 2.223 . S
O10 C9 1.316 1_556 S
O11 Cd1 2.240 1_554 S
O11 C9 1.278 . S
O12 Cd2 2.297 1_554 S
O12 C7 1.247 . S
O13 Cd2 2.439 1_554 S
O13 C7 1.208 . S
O14 Cd15 2.223 . S
O14 C22 1.315 . S
Cd15 O14 2.223 . S
Cd15 O18 2.297 . S
Cd15 O19 2.439 1_556 S
Cd15 O25 2.240 1_556 S
Cd16 O17 2.240 . S
Cd16 O24 2.223 . S
Cd16 O26 2.297 1_556 S
Cd16 O27 2.439 1_556 S
O17 Cd16 2.240 . S
O17 C22 1.279 . S
O18 Cd15 2.297 . S
O18 C20 1.247 1_556 S
O19 Cd15 2.439 1_554 S
O19 C20 1.208 . S
C20 O18 1.247 1_554 S
C20 O19 1.208 . S
C21 O26 1.247 . S
C21 O27 1.208 . S
C22 O14 1.315 . S
C22 O17 1.279 . S
C23 O24 1.316 1_554 S
C23 O25 1.278 . S
O24 Cd16 2.223 . S
O24 C23 1.316 1_556 S
O25 Cd15 2.240 1_554 S
O25 C23 1.278 . S
O26 Cd16 2.297 1_554 S
O26 C21 1.247 . S
O27 Cd16 2.439 1_554 S
O27 C21 1.208 . S
O28 Cd29 2.223 . S
O28 C36 1.315 . S
Cd29 O28 2.223 . S
Cd29 O32 2.297 . S
Cd29 O33 2.439 1_556 S
Cd29 O39 2.240 1_556 S
Cd30 O31 2.240 . S
Cd30 O38 2.223 . S
Cd30 O40 2.297 1_556 S
Cd30 O41 2.439 1_556 S
O31 Cd30 2.240 . S
O31 C36 1.279 . S
O32 Cd29 2.297 . S
O32 C34 1.247 1_556 S
O33 Cd29 2.439 1_554 S
O33 C34 1.208 . S
C34 O32 1.247 1_554 S
C34 O33 1.208 . S
C35 O40 1.247 . S
C35 O41 1.208 . S
C36 O28 1.315 . S
C36 O31 1.279 . S
C37 O38 1.316 1_554 S
C37 O39 1.278 . S
O38 Cd30 2.223 . S
O38 C37 1.316 1_556 S
O39 Cd29 2.240 1_554 S
O39 C37 1.278 . S
O40 Cd30 2.297 1_554 S
O40 C35 1.247 . S
O41 Cd30 2.439 1_554 S
O41 C35 1.208 . S
O42 Cd43 2.223 . S
O42 C50 1.315 . S
Cd43 O42 2.223 . S
Cd43 O46 2.297 . S
Cd43 O47 2.439 1_554 S
Cd43 O53 2.240 1_554 S
Cd44 O45 2.240 . S
Cd44 O52 2.223 . S
Cd44 O54 2.297 1_554 S
Cd44 O55 2.439 1_554 S
O45 Cd44 2.240 . S
O45 C50 1.279 . S
O46 Cd43 2.297 . S
O46 C48 1.247 1_554 S
O47 Cd43 2.439 1_556 S
O47 C48 1.208 . S
C48 O46 1.247 1_556 S
C48 O47 1.208 . S
C49 O54 1.247 . S
C49 O55 1.208 . S
C50 O42 1.315 . S
C50 O45 1.279 . S
C51 O52 1.316 1_556 S
C51 O53 1.278 . S
O52 Cd44 2.223 . S
O52 C51 1.316 1_554 S
O53 Cd43 2.240 1_556 S
O53 C51 1.278 . S
O54 Cd44 2.297 1_556 S
O54 C49 1.247 . S
O55 Cd44 2.439 1_556 S
O55 C49 1.208 . S
O56 Cd57 2.223 . S
O56 C64 1.315 . S
Cd57 O56 2.223 . S
Cd57 O60 2.297 . S
Cd57 O61 2.439 1_554 S
Cd57 O67 2.240 1_554 S
Cd58 O59 2.240 . S
Cd58 O66 2.223 . S
Cd58 O68 2.297 1_554 S
Cd58 O69 2.439 1_554 S
O59 Cd58 2.240 . S
O59 C64 1.279 . S
O60 Cd57 2.297 . S
O60 C62 1.247 1_554 S
O61 Cd57 2.439 1_556 S
O61 C62 1.208 . S
C62 O60 1.247 1_556 S
C62 O61 1.208 . S
C63 O68 1.247 . S
C63 O69 1.208 . S
C64 O56 1.315 . S
C64 O59 1.279 . S
C65 O66 1.316 1_556 S
C65 O67 1.277 . S
O66 Cd58 2.223 . S
O66 C65 1.316 1_554 S
O67 Cd57 2.240 1_556 S
O67 C65 1.277 . S
O68 Cd58 2.297 1_556 S
O68 C63 1.247 . S
O69 Cd58 2.439 1_556 S
O69 C63 1.208 . S
O70 Cd71 2.223 . S
O70 C78 1.315 . S
Cd71 O70 2.223 . S
Cd71 O74 2.297 . S
Cd71 O75 2.439 1_554 S
Cd71 O81 2.240 1_554 S
Cd72 O73 2.240 . S
Cd72 O80 2.223 . S
Cd72 O82 2.297 1_554 S
Cd72 O83 2.439 1_554 S
O73 Cd72 2.240 . S
O73 C78 1.279 . S
O74 Cd71 2.297 . S
O74 C76 1.247 1_554 S
O75 Cd71 2.439 1_556 S
O75 C76 1.208 . S
C76 O74 1.247 1_556 S
C76 O75 1.208 . S
C77 O82 1.247 . S
C77 O83 1.208 . S
C78 O70 1.315 . S
C78 O73 1.279 . S
C79 O80 1.316 1_556 S
C79 O81 1.278 . S
O80 Cd72 2.223 . S
O80 C79 1.316 1_554 S
O81 Cd71 2.240 1_556 S
O81 C79 1.278 . S
O82 Cd72 2.297 1_556 S
O82 C77 1.247 . S
O83 Cd72 2.439 1_556 S
O83 C77 1.208 . S
O84 Cd85 2.223 . S
O84 C92 1.315 . S
Cd85 O84 2.223 . S
Cd85 O88 2.297 . S
Cd85 O89 2.439 1_554 S
Cd85 O95 2.240 1_554 S
Cd86 O87 2.240 . S
Cd86 O94 2.223 . S
Cd86 O96 2.297 1_554 S
Cd86 O97 2.439 1_554 S
O87 Cd86 2.240 . S
O87 C92 1.279 . S
O88 Cd85 2.297 . S
O88 C90 1.247 1_554 S
O89 Cd85 2.439 1_556 S
O89 C90 1.208 . S
C90 O88 1.247 1_556 S
C90 O89 1.208 . S
C91 O96 1.247 . S
C91 O97 1.208 . S
C92 O84 1.315 . S
C92 O87 1.279 . S
C93 O94 1.316 1_556 S
C93 O95 1.278 . S
O94 Cd86 2.223 . S
O94 C93 1.316 1_554 S
O95 Cd85 2.240 1_556 S
O95 C93 1.278 . S
O96 Cd86 2.297 1_556 S
O96 C91 1.247 . S
O97 Cd86 2.439 1_556 S
O97 C91 1.208 . S
O98 Cd99 2.223 . S
O98 C106 1.315 . S
Cd99 O98 2.223 . S
Cd99 O102 2.297 . S
Cd99 O103 2.439 1_554 S
Cd99 O109 2.240 1_554 S
Cd100 O101 2.240 . S
Cd100 O108 2.223 . S
Cd100 O110 2.297 1_554 S
Cd100 O111 2.439 1_554 S
O101 Cd100 2.240 . S
O101 C106 1.279 . S
O102 Cd99 2.297 . S
O102 C104 1.247 1_554 S
O103 Cd99 2.439 1_556 S
O103 C104 1.208 . S
C104 O102 1.247 1_556 S
C104 O103 1.208 . S
C105 O110 1.247 . S
C105 O111 1.208 . S
C106 O98 1.315 . S
C106 O101 1.279 . S
C107 O108 1.316 1_556 S
C107 O109 1.278 . S
O108 Cd100 2.223 . S
O108 C107 1.316 1_554 S
O109 Cd99 2.240 1_556 S
O109 C107 1.278 . S
O110 Cd100 2.297 1_556 S
O110 C105 1.247 . S
O111 Cd100 2.439 1_556 S
O111 C105 1.208 . S
O112 Cd113 2.223 . S
O112 C120 1.315 . S
Cd113 O112 2.223 . S
Cd113 O116 2.297 . S
Cd113 O117 2.439 1_554 S
Cd113 O123 2.240 1_554 S
Cd114 O115 2.240 . S
Cd114 O122 2.223 . S
Cd114 O124 2.297 1_554 S
Cd114 O125 2.439 1_554 S
O115 Cd114 2.240 . S
O115 C120 1.279 . S
O116 Cd113 2.297 . S
O116 C118 1.247 1_554 S
O117 Cd113 2.439 1_556 S
O117 C118 1.208 . S
C118 O116 1.247 1_556 S
C118 O117 1.208 . S
C119 O124 1.247 . S
C119 O125 1.208 . S
C120 O112 1.315 . S
C120 O115 1.279 . S
C121 O122 1.316 1_556 S
C121 O123 1.278 . S
O122 Cd114 2.223 . S
O122 C121 1.316 1_554 S
O123 Cd113 2.240 1_556 S
O123 C121 1.278 . S
O124 Cd114 2.297 1_556 S
O124 C119 1.247 . S
O125 Cd114 2.439 1_556 S
O125 C119 1.208 . S
O126 Cd127 2.223 . S
O126 C134 1.315 . S
Cd127 O126 2.223 . S
Cd127 O130 2.297 . S
Cd127 O131 2.439 1_556 S
Cd127 O137 2.240 1_556 S
Cd128 O129 2.240 . S
Cd128 O136 2.223 . S
Cd128 O138 2.297 1_556 S
Cd128 O139 2.439 1_556 S
O129 Cd128 2.240 . S
O129 C134 1.279 . S
O130 Cd127 2.297 . S
O130 C132 1.247 1_556 S
O131 Cd127 2.439 1_554 S
O131 C132 1.208 . S
C132 O130 1.247 1_554 S
C132 O131 1.208 . S
C133 O138 1.247 . S
C133 O139 1.208 . S
C134 O126 1.315 . S
C134 O129 1.279 . S
C135 O136 1.316 1_554 S
C135 O137 1.278 . S
O136 Cd128 2.223 . S
O136 C135 1.316 1_556 S
O137 Cd127 2.240 1_554 S
O137 C135 1.278 . S
O138 Cd128 2.297 1_554 S
O138 C133 1.247 . S
O139 Cd128 2.439 1_554 S
O139 C133 1.208 . S
O140 Cd141 2.223 . S
O140 C148 1.315 . S
Cd141 O140 2.223 . S
Cd141 O144 2.297 . S
Cd141 O145 2.439 1_556 S
Cd141 O151 2.240 1_556 S
Cd142 O143 2.240 . S
Cd142 O150 2.223 . S
Cd142 O152 2.297 1_556 S
Cd142 O153 2.439 1_556 S
O143 Cd142 2.240 . S
O143 C148 1.279 . S
O144 Cd141 2.297 . S
O144 C146 1.247 1_556 S
O145 Cd141 2.439 1_554 S
O145 C146 1.208 . S
C146 O144 1.247 1_554 S
C146 O145 1.208 . S
C147 O152 1.247 . S
C147 O153 1.208 . S
C148 O140 1.315 . S
C148 O143 1.279 . S
C149 O150 1.316 1_554 S
C149 O151 1.278 . S
O150 Cd142 2.223 . S
O150 C149 1.316 1_556 S
O151 Cd141 2.240 1_554 S
O151 C149 1.278 . S
O152 Cd142 2.297 1_554 S
O152 C147 1.247 . S
O153 Cd142 2.439 1_554 S
O153 C147 1.208 . S
O154 Cd155 2.223 . S
O154 C162 1.315 . S
Cd155 O154 2.223 . S
Cd155 O158 2.297 . S
Cd155 O159 2.439 1_556 S
Cd155 O165 2.240 1_556 S
Cd156 O157 2.240 . S
Cd156 O164 2.223 . S
Cd156 O166 2.297 1_556 S
Cd156 O167 2.439 1_556 S
O157 Cd156 2.240 . S
O157 C162 1.279 . S
O158 Cd155 2.297 . S
O158 C160 1.247 1_556 S
O159 Cd155 2.439 1_554 S
O159 C160 1.208 . S
C160 O158 1.247 1_554 S
C160 O159 1.208 . S
C161 O166 1.247 . S
C161 O167 1.208 . S
C162 O154 1.315 . S
C162 O157 1.279 . S
C163 O164 1.316 1_554 S
C163 O165 1.278 . S
O164 Cd156 2.223 . S
O164 C163 1.316 1_556 S
O165 Cd155 2.240 1_554 S
O165 C163 1.278 . S
O166 Cd156 2.297 1_554 S
O166 C161 1.247 . S
O167 Cd156 2.439 1_554 S
O167 C161 1.208 . S
O168 Cd169 2.223 . S
O168 C176 1.315 . S
Cd169 O168 2.223 . S
Cd169 O172 2.297 . S
Cd169 O173 2.439 . S
Cd169 O179 2.240 . S
Cd170 O171 2.240 . S
Cd170 O178 2.223 . S
Cd170 O180 2.297 . S
Cd170 O181 2.439 . S
O171 Cd170 2.240 . S
O171 C176 1.279 . S
O172 Cd169 2.297 . S
O172 C174 1.247 . S
O173 Cd169 2.439 . S
O173 C174 1.208 . S
C174 O172 1.247 . S
C174 O173 1.208 . S
C175 O180 1.247 . S
C175 O181 1.208 . S
C176 O168 1.315 . S
C176 O171 1.279 . S
C177 O178 1.315 . S
C177 O179 1.279 . S
O178 Cd170 2.223 . S
O178 C177 1.315 . S
O179 Cd169 2.240 . S
O179 C177 1.279 . S
O180 Cd170 2.297 . S
O180 C175 1.247 . S
O181 Cd170 2.439 . S
O181 C175 1.208 . S
O182 Cd183 2.223 . S
O182 C190 1.315 . S
Cd183 O182 2.223 . S
Cd183 O186 2.297 . S
Cd183 O187 2.439 . S
Cd183 O193 2.240 . S
Cd184 O185 2.240 . S
Cd184 O192 2.223 . S
Cd184 O194 2.297 . S
Cd184 O195 2.439 . S
O185 Cd184 2.240 . S
O185 C190 1.279 . S
O186 Cd183 2.297 . S
O186 C188 1.247 . S
O187 Cd183 2.439 . S
O187 C188 1.208 . S
C188 O186 1.247 . S
C188 O187 1.208 . S
C189 O194 1.247 . S
C189 O195 1.208 . S
C190 O182 1.315 . S
C190 O185 1.279 . S
C191 O192 1.315 . S
C191 O193 1.279 . S
O192 Cd184 2.223 . S
O192 C191 1.315 . S
O193 Cd183 2.240 . S
O193 C191 1.279 . S
O194 Cd184 2.297 . S
O194 C189 1.247 . S
O195 Cd184 2.439 . S
O195 C189 1.208 . S
O196 Cd197 2.223 . S
O196 C204 1.315 . S
Cd197 O196 2.223 . S
Cd197 O200 2.297 . S
Cd197 O201 2.439 . S
Cd197 O207 2.240 . S
Cd198 O199 2.240 . S
Cd198 O206 2.223 . S
Cd198 O208 2.297 . S
Cd198 O209 2.439 . S
O199 Cd198 2.240 . S
O199 C204 1.279 . S
O200 Cd197 2.297 . S
O200 C202 1.247 . S
O201 Cd197 2.439 . S
O201 C202 1.208 . S
C202 O200 1.247 . S
C202 O201 1.208 . S
C203 O208 1.247 . S
C203 O209 1.208 . S
C204 O196 1.315 . S
C204 O199 1.279 . S
C205 O206 1.315 . S
C205 O207 1.279 . S
O206 Cd198 2.223 . S
O206 C205 1.315 . S
O207 Cd197 2.240 . S
O207 C205 1.279 . S
O208 Cd198 2.297 . S
O208 C203 1.247 . S
O209 Cd198 2.439 . S
O209 C203 1.208 . S
O210 Cd211 2.223 . S
O210 C218 1.315 . S
Cd211 O210 2.223 . S
Cd211 O214 2.297 . S
Cd211 O215 2.439 . S
Cd211 O221 2.240 . S
Cd212 O213 2.240 . S
Cd212 O220 2.223 . S
Cd212 O222 2.297 . S
Cd212 O223 2.439 . S
O213 Cd212 2.240 . S
O213 C218 1.279 . S
O214 Cd211 2.297 . S
O214 C216 1.247 . S
O215 Cd211 2.439 . S
O215 C216 1.208 . S
C216 O214 1.247 . S
C216 O215 1.208 . S
C217 O222 1.247 . S
C217 O223 1.208 . S
C218 O210 1.315 . S
C218 O213 1.279 . S
C219 O220 1.315 . S
C219 O221 1.279 . S
O220 Cd212 2.223 . S
O220 C219 1.315 . S
O221 Cd211 2.240 . S
O221 C219 1.279 . S
O222 Cd212 2.297 . S
O222 C217 1.247 . S
O223 Cd212 2.439 . S
O223 C217 1.208 . S
O224 Cd225 2.223 . S
O224 C232 1.315 . S
Cd225 O224 2.223 . S
Cd225 O228 2.297 . S
Cd225 O229 2.439 . S
Cd225 O235 2.240 . S
Cd226 O227 2.240 . S
Cd226 O234 2.223 . S
Cd226 O236 2.297 . S
Cd226 O237 2.439 . S
O227 Cd226 2.240 . S
O227 C232 1.279 . S
O228 Cd225 2.297 . S
O228 C230 1.247 . S
O229 Cd225 2.439 . S
O229 C230 1.208 . S
C230 O228 1.247 . S
C230 O229 1.208 . S
C231 O236 1.247 . S
C231 O237 1.208 . S
C232 O224 1.315 . S
C232 O227 1.279 . S
C233 O234 1.315 . S
C233 O235 1.279 . S
O234 Cd226 2.223 . S
O234 C233 1.315 . S
O235 Cd225 2.240 . S
O235 C233 1.279 . S
O236 Cd226 2.297 . S
O236 C231 1.247 . S
O237 Cd226 2.439 . S
O237 C231 1.208 . S
O238 Cd239 2.223 . S
O238 C246 1.315 . S
Cd239 O238 2.223 . S
Cd239 O242 2.297 . S
Cd239 O243 2.439 . S
Cd239 O249 2.240 . S
Cd240 O241 2.240 . S
Cd240 O248 2.223 . S
Cd240 O250 2.297 . S
Cd240 O251 2.439 . S
O241 Cd240 2.240 . S
O241 C246 1.279 . S
O242 Cd239 2.297 . S
O242 C244 1.247 . S
O243 Cd239 2.439 . S
O243 C244 1.208 . S
C244 O242 1.247 . S
C244 O243 1.208 . S
C245 O250 1.247 . S
C245 O251 1.208 . S
C246 O238 1.315 . S
C246 O241 1.279 . S
C247 O248 1.315 . S
C247 O249 1.279 . S
O248 Cd240 2.223 . S
O248 C247 1.315 . S
O249 Cd239 2.240 . S
O249 C247 1.279 . S
O250 Cd240 2.297 . S
O250 C245 1.247 . S
O251 Cd240 2.439 . S
O251 C245 1.208 . S
O252 Cd253 2.223 . S
O252 C260 1.315 . S
Cd253 O252 2.223 . S
Cd253 O256 2.297 . S
Cd253 O257 2.439 . S
Cd253 O263 2.240 . S
Cd254 O255 2.240 . S
Cd254 O262 2.223 . S
Cd254 O264 2.297 . S
Cd254 O265 2.439 . S
O255 Cd254 2.240 . S
O255 C260 1.279 . S
O256 Cd253 2.297 . S
O256 C258 1.247 . S
O257 Cd253 2.439 . S
O257 C258 1.208 . S
C258 O256 1.247 . S
C258 O257 1.208 . S
C259 O264 1.247 . S
C259 O265 1.208 . S
C260 O252 1.315 . S
C260 O255 1.279 . S
C261 O262 1.315 . S
C261 O263 1.279 . S
O262 Cd254 2.223 . S
O262 C261 1.315 . S
O263 Cd253 2.240 . S
O263 C261 1.279 . S
O264 Cd254 2.297 . S
O264 C259 1.247 . S
O265 Cd254 2.439 . S
O265 C259 1.208 . S
O266 Cd267 2.223 . S
O266 C274 1.315 . S
Cd267 O266 2.223 . S
Cd267 O270 2.297 . S
Cd267 O271 2.439 . S
Cd267 O277 2.240 . S
Cd268 O269 2.240 . S
Cd268 O276 2.223 . S
Cd268 O278 2.297 . S
Cd268 O279 2.439 . S
O269 Cd268 2.240 . S
O269 C274 1.279 . S
O270 Cd267 2.297 . S
O270 C272 1.247 . S
O271 Cd267 2.439 . S
O271 C272 1.208 . S
C272 O270 1.247 . S
C272 O271 1.208 . S
C273 O278 1.247 . S
C273 O279 1.208 . S
C274 O266 1.315 . S
C274 O269 1.279 . S
C275 O276 1.315 . S
C275 O277 1.279 . S
O276 Cd268 2.223 . S
O276 C275 1.315 . S
O277 Cd267 2.240 . S
O277 C275 1.279 . S
O278 Cd268 2.297 . S
O278 C273 1.247 . S
O279 Cd268 2.439 . S
O279 C273 1.208 . S
O280 Cd281 2.223 . S
O280 C288 1.315 . S
Cd281 O280 2.223 . S
Cd281 O284 2.297 . S
Cd281 O285 2.439 . S
Cd281 O291 2.240 . S
Cd282 O283 2.240 . S
Cd282 O290 2.223 . S
Cd282 O292 2.297 . S
Cd282 O293 2.439 . S
O283 Cd282 2.240 . S
O283 C288 1.279 . S
O284 Cd281 2.297 . S
O284 C286 1.247 . S
O285 Cd281 2.439 . S
O285 C286 1.208 . S
C286 O284 1.247 . S
C286 O285 1.208 . S
C287 O292 1.247 . S
C287 O293 1.208 . S
C288 O280 1.315 . S
C288 O283 1.279 . S
C289 O290 1.315 . S
C289 O291 1.279 . S
O290 Cd282 2.223 . S
O290 C289 1.315 . S
O291 Cd281 2.240 . S
O291 C289 1.279 . S
O292 Cd282 2.297 . S
O292 C287 1.247 . S
O293 Cd282 2.439 . S
O293 C287 1.208 . S
O294 Cd295 2.223 . S
O294 C302 1.315 . S
Cd295 O294 2.223 . S
Cd295 O298 2.297 . S
Cd295 O299 2.439 . S
Cd295 O305 2.240 . S
Cd296 O297 2.240 . S
Cd296 O304 2.223 . S
Cd296 O306 2.297 . S
Cd296 O307 2.439 . S
O297 Cd296 2.240 . S
O297 C302 1.279 . S
O298 Cd295 2.297 . S
O298 C300 1.247 . S
O299 Cd295 2.439 . S
O299 C300 1.208 . S
C300 O298 1.247 . S
C300 O299 1.208 . S
C301 O306 1.247 . S
C301 O307 1.208 . S
C302 O294 1.315 . S
C302 O297 1.279 . S
C303 O304 1.315 . S
C303 O305 1.279 . S
O304 Cd296 2.223 . S
O304 C303 1.315 . S
O305 Cd295 2.240 . S
O305 C303 1.279 . S
O306 Cd296 2.297 . S
O306 C301 1.247 . S
O307 Cd296 2.439 . S
O307 C301 1.208 . S
O308 Cd309 2.223 . S
O308 C316 1.315 . S
Cd309 O308 2.223 . S
Cd309 O312 2.297 . S
Cd309 O313 2.439 . S
Cd309 O319 2.240 . S
Cd310 O311 2.240 . S
Cd310 O318 2.223 . S
Cd310 O320 2.297 . S
Cd310 O321 2.439 . S
O311 Cd310 2.240 . S
O311 C316 1.279 . S
O312 Cd309 2.297 . S
O312 C314 1.247 . S
O313 Cd309 2.439 . S
O313 C314 1.208 . S
C314 O312 1.247 . S
C314 O313 1.208 . S
C315 O320 1.247 . S
C315 O321 1.208 . S
C316 O308 1.315 . S
C316 O311 1.279 . S
C317 O318 1.315 . S
C317 O319 1.279 . S
O318 Cd310 2.223 . S
O318 C317 1.315 . S
O319 Cd309 2.240 . S
O319 C317 1.279 . S
O320 Cd310 2.297 . S
O320 C315 1.247 . S
O321 Cd310 2.439 . S
O321 C315 1.208 . S
O322 Cd323 2.223 . S
O322 C330 1.315 . S
Cd323 O322 2.223 . S
Cd323 O326 2.297 . S
Cd323 O327 2.439 . S
Cd323 O333 2.240 . S
Cd324 O325 2.240 . S
Cd324 O332 2.223 . S
Cd324 O334 2.297 . S
Cd324 O335 2.439 . S
O325 Cd324 2.240 . S
O325 C330 1.279 . S
O326 Cd323 2.297 . S
O326 C328 1.247 . S
O327 Cd323 2.439 . S
O327 C328 1.208 . S
C328 O326 1.247 . S
C328 O327 1.208 . S
C329 O334 1.247 . S
C329 O335 1.208 . S
C330 O322 1.315 . S
C330 O325 1.279 . S
C331 O332 1.315 . S
C331 O333 1.279 . S
O332 Cd324 2.223 . S
O332 C331 1.315 . S
O333 Cd323 2.240 . S
O333 C331 1.279 . S
O334 Cd324 2.297 . S
O334 C329 1.247 . S
O335 Cd324 2.439 . S
O335 C329 1.208 . S
O336 Cd337 2.223 . S
O336 C344 1.315 . S
Cd337 O336 2.223 . S
Cd337 O340 2.297 . S
Cd337 O341 2.439 . S
Cd337 O347 2.240 . S
Cd338 O339 2.240 . S
Cd338 O346 2.223 . S
Cd338 O348 2.297 . S
Cd338 O349 2.439 . S
O339 Cd338 2.240 . S
O339 C344 1.279 . S
O340 Cd337 2.297 . S
O340 C342 1.247 . S
O341 Cd337 2.439 . S
O341 C342 1.208 . S
C342 O340 1.247 . S
C342 O341 1.208 . S
C343 O348 1.247 . S
C343 O349 1.208 . S
C344 O336 1.315 . S
C344 O339 1.279 . S
C345 O346 1.315 . S
C345 O347 1.279 . S
O346 Cd338 2.223 . S
O346 C345 1.315 . S
O347 Cd337 2.240 . S
O347 C345 1.279 . S
O348 Cd338 2.297 . S
O348 C343 1.247 . S
O349 Cd338 2.439 . S
O349 C343 1.208 . S
O350 Cd351 2.223 . S
O350 C358 1.315 . S
Cd351 O350 2.223 . S
Cd351 O354 2.297 . S
Cd351 O355 2.439 . S
Cd351 O361 2.240 . S
Cd352 O353 2.240 . S
Cd352 O360 2.223 . S
Cd352 O362 2.297 . S
Cd352 O363 2.439 . S
O353 Cd352 2.240 . S
O353 C358 1.279 . S
O354 Cd351 2.297 . S
O354 C356 1.247 . S
O355 Cd351 2.439 . S
O355 C356 1.208 . S
C356 O354 1.247 . S
C356 O355 1.208 . S
C357 O362 1.247 . S
C357 O363 1.208 . S
C358 O350 1.315 . S
C358 O353 1.279 . S
C359 O360 1.315 . S
C359 O361 1.279 . S
O360 Cd352 2.223 . S
O360 C359 1.315 . S
O361 Cd351 2.240 . S
O361 C359 1.279 . S
O362 Cd352 2.297 . S
O362 C357 1.247 . S
O363 Cd352 2.439 . S
O363 C357 1.208 . S
O364 Cd365 2.223 . S
O364 C372 1.315 . S
Cd365 O364 2.223 . S
Cd365 O368 2.297 . S
Cd365 O369 2.439 . S
Cd365 O375 2.240 . S
Cd366 O367 2.240 . S
Cd366 O374 2.223 . S
Cd366 O376 2.297 . S
Cd366 O377 2.439 . S
O367 Cd366 2.240 . S
O367 C372 1.279 . S
O368 Cd365 2.297 . S
O368 C370 1.247 . S
O369 Cd365 2.439 . S
O369 C370 1.208 . S
C370 O368 1.247 . S
C370 O369 1.208 . S
C371 O376 1.247 . S
C371 O377 1.208 . S
C372 O364 1.315 . S
C372 O367 1.279 . S
C373 O374 1.315 . S
C373 O375 1.279 . S
O374 Cd366 2.223 . S
O374 C373 1.315 . S
O375 Cd365 2.240 . S
O375 C373 1.279 . S
O376 Cd366 2.297 . S
O376 C371 1.247 . S
O377 Cd366 2.439 . S
O377 C371 1.208 . S
O378 Cd379 2.223 . S
O378 C386 1.315 . S
Cd379 O378 2.223 . S
Cd379 O382 2.297 . S
Cd379 O383 2.439 . S
Cd379 O389 2.240 . S
Cd380 O381 2.240 . S
Cd380 O388 2.223 . S
Cd380 O390 2.297 . S
Cd380 O391 2.439 . S
O381 Cd380 2.240 . S
O381 C386 1.279 . S
O382 Cd379 2.297 . S
O382 C384 1.247 . S
O383 Cd379 2.439 . S
O383 C384 1.208 . S
C384 O382 1.247 . S
C384 O383 1.208 . S
C385 O390 1.247 . S
C385 O391 1.208 . S
C386 O378 1.315 . S
C386 O381 1.279 . S
C387 O388 1.315 . S
C387 O389 1.279 . S
O388 Cd380 2.223 . S
O388 C387 1.315 . S
O389 Cd379 2.240 . S
O389 C387 1.279 . S
O390 Cd380 2.297 . S
O390 C385 1.247 . S
O391 Cd380 2.439 . S
O391 C385 1.208 . S
O392 Cd393 2.223 . S
O392 C400 1.315 . S
Cd393 O392 2.223 . S
Cd393 O396 2.297 . S
Cd393 O397 2.439 . S
Cd393 O403 2.240 . S
Cd394 O395 2.240 . S
Cd394 O402 2.223 . S
Cd394 O404 2.297 . S
Cd394 O405 2.439 . S
O395 Cd394 2.240 . S
O395 C400 1.279 . S
O396 Cd393 2.297 . S
O396 C398 1.247 . S
O397 Cd393 2.439 . S
O397 C398 1.208 . S
C398 O396 1.247 . S
C398 O397 1.208 . S
C399 O404 1.247 . S
C399 O405 1.208 . S
C400 O392 1.315 . S
C400 O395 1.279 . S
C401 O402 1.315 . S
C401 O403 1.279 . S
O402 Cd394 2.223 . S
O402 C401 1.315 . S
O403 Cd393 2.240 . S
O403 C401 1.279 . S
O404 Cd394 2.297 . S
O404 C399 1.247 . S
O405 Cd394 2.439 . S
O405 C399 1.208 . S
O406 Cd407 2.223 . S
O406 C414 1.315 . S
Cd407 O406 2.223 . S
Cd407 O410 2.297 . S
Cd407 O411 2.439 . S
Cd407 O417 2.240 . S
Cd408 O409 2.240 . S
Cd408 O416 2.223 . S
Cd408 O418 2.297 . S
Cd408 O419 2.439 . S
O409 Cd408 2.240 . S
O409 C414 1.279 . S
O410 Cd407 2.297 . S
O410 C412 1.247 . S
O411 Cd407 2.439 . S
O411 C412 1.208 . S
C412 O410 1.247 . S
C412 O411 1.208 . S
C413 O418 1.247 . S
C413 O419 1.208 . S
C414 O406 1.315 . S
C414 O409 1.279 . S
C415 O416 1.315 . S
C415 O417 1.279 . S
O416 Cd408 2.223 . S
O416 C415 1.315 . S
O417 Cd407 2.240 . S
O417 C415 1.279 . S
O418 Cd408 2.297 . S
O418 C413 1.247 . S
O419 Cd408 2.439 . S
O419 C413 1.208 . S
O420 Cd421 2.223 . S
O420 C428 1.315 . S
Cd421 O420 2.223 . S
Cd421 O424 2.297 . S
Cd421 O425 2.439 . S
Cd421 O431 2.240 . S
Cd422 O423 2.240 . S
Cd422 O430 2.223 . S
Cd422 O432 2.297 . S
Cd422 O433 2.439 . S
O423 Cd422 2.240 . S
O423 C428 1.279 . S
O424 Cd421 2.297 . S
O424 C426 1.247 . S
O425 Cd421 2.439 . S
O425 C426 1.208 . S
C426 O424 1.247 . S
C426 O425 1.208 . S
C427 O432 1.247 . S
C427 O433 1.208 . S
C428 O420 1.315 . S
C428 O423 1.279 . S
C429 O430 1.315 . S
C429 O431 1.279 . S
O430 Cd422 2.223 . S
O430 C429 1.315 . S
O431 Cd421 2.240 . S
O431 C429 1.279 . S
O432 Cd422 2.297 . S
O432 C427 1.247 . S
O433 Cd422 2.439 . S
O433 C427 1.208 . S
O434 Cd435 2.223 . S
O434 C442 1.315 . S
Cd435 O434 2.223 . S
Cd435 O438 2.297 . S
Cd435 O439 2.439 . S
Cd435 O445 2.240 . S
Cd436 O437 2.240 . S
Cd436 O444 2.223 . S
Cd436 O446 2.297 . S
Cd436 O447 2.439 . S
O437 Cd436 2.240 . S
O437 C442 1.279 . S
O438 Cd435 2.297 . S
O438 C440 1.247 . S
O439 Cd435 2.439 . S
O439 C440 1.208 . S
C440 O438 1.247 . S
C440 O439 1.208 . S
C441 O446 1.247 . S
C441 O447 1.208 . S
C442 O434 1.315 . S
C442 O437 1.279 . S
C443 O444 1.315 . S
C443 O445 1.279 . S
O444 Cd436 2.223 . S
O444 C443 1.315 . S
O445 Cd435 2.240 . S
O445 C443 1.279 . S
O446 Cd436 2.297 . S
O446 C441 1.247 . S
O447 Cd436 2.439 . S
O447 C441 1.208 . S
O448 Cd449 2.223 . S
O448 C456 1.315 . S
Cd449 O448 2.223 . S
Cd449 O452 2.297 . S
Cd449 O453 2.439 . S
Cd449 O459 2.240 . S
Cd450 O451 2.240 . S
Cd450 O458 2.223 . S
Cd450 O460 2.297 . S
Cd450 O461 2.439 . S
O451 Cd450 2.240 . S
O451 C456 1.279 . S
O452 Cd449 2.297 . S
O452 C454 1.247 . S
O453 Cd449 2.439 . S
O453 C454 1.208 . S
C454 O452 1.247 . S
C454 O453 1.208 . S
C455 O460 1.247 . S
C455 O461 1.208 . S
C456 O448 1.315 . S
C456 O451 1.279 . S
C457 O458 1.315 . S
C457 O459 1.279 . S
O458 Cd450 2.223 . S
O458 C457 1.315 . S
O459 Cd449 2.240 . S
O459 C457 1.279 . S
O460 Cd450 2.297 . S
O460 C455 1.247 . S
O461 Cd450 2.439 . S
O461 C455 1.208 . S
O462 Cd463 2.223 . S
O462 C470 1.315 . S
Cd463 O462 2.223 . S
Cd463 O466 2.297 . S
Cd463 O467 2.439 . S
Cd463 O473 2.240 . S
Cd464 O465 2.240 . S
Cd464 O472 2.223 . S
Cd464 O474 2.297 . S
Cd464 O475 2.439 . S
O465 Cd464 2.240 . S
O465 C470 1.279 . S
O466 Cd463 2.297 . S
O466 C468 1.247 . S
O467 Cd463 2.439 . S
O467 C468 1.208 . S
C468 O466 1.247 . S
C468 O467 1.208 . S
C469 O474 1.247 . S
C469 O475 1.208 . S
C470 O462 1.315 . S
C470 O465 1.279 . S
C471 O472 1.315 . S
C471 O473 1.279 . S
O472 Cd464 2.223 . S
O472 C471 1.315 . S
O473 Cd463 2.240 . S
O473 C471 1.279 . S
O474 Cd464 2.297 . S
O474 C469 1.247 . S
O475 Cd464 2.439 . S
O475 C469 1.208 . S
O476 Cd477 2.223 . S
O476 C484 1.315 . S
Cd477 O476 2.223 . S
Cd477 O480 2.297 . S
Cd477 O481 2.439 . S
Cd477 O487 2.240 . S
Cd478 O479 2.240 . S
Cd478 O486 2.223 . S
Cd478 O488 2.297 . S
Cd478 O489 2.439 . S
O479 Cd478 2.240 . S
O479 C484 1.279 . S
O480 Cd477 2.297 . S
O480 C482 1.247 . S
O481 Cd477 2.439 . S
O481 C482 1.208 . S
C482 O480 1.247 . S
C482 O481 1.208 . S
C483 O488 1.247 . S
C483 O489 1.208 . S
C484 O476 1.315 . S
C484 O479 1.279 . S
C485 O486 1.315 . S
C485 O487 1.279 . S
O486 Cd478 2.223 . S
O486 C485 1.315 . S
O487 Cd477 2.240 . S
O487 C485 1.279 . S
O488 Cd478 2.297 . S
O488 C483 1.247 . S
O489 Cd478 2.439 . S
O489 C483 1.208 . S
O490 Cd491 2.223 . S
O490 C498 1.315 . S
Cd491 O490 2.223 . S
Cd491 O494 2.297 . S
Cd491 O495 2.439 . S
Cd491 O501 2.240 . S
Cd492 O493 2.240 . S
Cd492 O500 2.223 . S
Cd492 O502 2.297 . S
Cd492 O503 2.439 . S
O493 Cd492 2.240 . S
O493 C498 1.279 . S
O494 Cd491 2.297 . S
O494 C496 1.247 . S
O495 Cd491 2.439 . S
O495 C496 1.208 . S
C496 O494 1.247 . S
C496 O495 1.208 . S
C497 O502 1.247 . S
C497 O503 1.208 . S
C498 O490 1.315 . S
C498 O493 1.279 . S
C499 O500 1.315 . S
C499 O501 1.279 . S
O500 Cd492 2.223 . S
O500 C499 1.315 . S
O501 Cd491 2.240 . S
O501 C499 1.279 . S
O502 Cd492 2.297 . S
O502 C497 1.247 . S
O503 Cd492 2.439 . S
O503 C497 1.208 . S
H504 C510 0.930 . S
H505 C514 0.930 . S
H506 C519 0.929 . S
H507 C517 0.929 . S
H508 C512 0.929 . S
H509 C518 0.929 . S
C510 H504 0.930 . S
C510 C511 1.369 . S
C510 C518 1.378 . S
C511 C510 1.369 . S
C511 C519 1.431 1_556 S
C512 H508 0.929 . S
C512 C514 1.378 . S
C512 C516 1.357 . S
C513 C516 1.462 1_656 S
C513 C518 1.361 . S
C513 N521 1.416 1_556 S
C514 H505 0.930 . S
C514 C512 1.378 . S
C514 C515 1.369 1_554 S
C515 C514 1.369 1_556 S
C515 C517 1.431 . S
C516 C512 1.357 . S
C516 C513 1.462 1_454 S
C516 N520 1.420 1_554 S
C517 H507 0.929 . S
C517 C515 1.431 . S
C517 N520 1.384 . S
C518 H509 0.929 . S
C518 C510 1.378 . S
C518 C513 1.361 . S
C519 H506 0.929 . S
C519 C511 1.431 1_554 S
C519 N521 1.384 . S
N520 C516 1.420 1_556 S
N520 C517 1.384 . S
N521 C513 1.416 1_554 S
N521 C519 1.384 . S
H522 C528 0.930 . S
H523 C532 0.930 . S
H524 C537 0.929 . S
H525 C535 0.929 . S
H526 C530 0.929 . S
H527 C536 0.929 . S
C528 H522 0.930 . S
C528 C529 1.372 . S
C528 C536 1.378 . S
C529 C528 1.372 . S
C529 C537 1.428 1_556 S
C530 H526 0.929 . S
C530 C532 1.378 . S
C530 C534 1.363 . S
C531 C534 1.461 1_556 S
C531 C536 1.368 . S
C531 N539 1.409 1_556 S
C532 H523 0.930 . S
C532 C530 1.378 . S
C532 C533 1.367 . S
C533 C532 1.367 . S
C533 C535 1.433 1_554 S
C534 C530 1.363 . S
C534 C531 1.461 1_554 S
C534 N538 1.414 1_554 S
C535 H525 0.929 . S
C535 C533 1.433 1_556 S
C535 N538 1.384 . S
C536 H527 0.929 . S
C536 C528 1.378 . S
C536 C531 1.368 . S
C537 H524 0.929 . S
C537 C529 1.428 1_554 S
C537 N539 1.384 . S
N538 C534 1.414 1_556 S
N538 C535 1.384 . S
N539 C531 1.409 1_554 S
N539 C537 1.384 . S
H540 C546 0.930 . S
H541 C550 0.930 . S
H542 C555 0.929 . S
H543 C553 0.929 . S
H544 C548 0.929 . S
H545 C554 0.929 . S
C546 H540 0.930 . S
C546 C547 1.374 . S
C546 C554 1.378 . S
C547 C546 1.374 . S
C547 C555 1.426 1_556 S
C548 H544 0.929 . S
C548 C550 1.378 . S
C548 C552 1.366 . S
C549 C552 1.461 1_546 S
C549 C554 1.372 . S
C549 N557 1.405 1_556 S
C550 H541 0.930 . S
C550 C548 1.378 . S
C550 C551 1.368 . S
C551 C550 1.368 . S
C551 C553 1.432 1_554 S
C552 C548 1.366 . S
C552 C549 1.461 1_564 S
C552 N556 1.411 1_554 S
C553 H543 0.929 . S
C553 C551 1.432 1_556 S
C553 N556 1.384 . S
C554 H545 0.929 . S
C554 C546 1.378 . S
C554 C549 1.372 . S
C555 H542 0.929 . S
C555 C547 1.426 1_554 S
C555 N557 1.384 . S
N556 C552 1.411 1_556 S
N556 C553 1.384 . S
N557 C549 1.405 1_554 S
N557 C555 1.384 . S
H558 C564 0.930 . S
H559 C568 0.930 . S
H560 C573 0.929 . S
H561 C571 0.929 . S
H562 C566 0.929 . S
H563 C572 0.929 . S
C564 H558 0.930 . S
C564 C565 1.366 . S
C564 C572 1.378 . S
C565 C564 1.366 . S
C565 C573 1.434 1_554 S
C566 H562 0.929 . S
C566 C568 1.378 . S
C566 C570 1.351 . S
C567 C570 1.462 1_454 S
C567 C572 1.354 . S
C567 N575 1.423 1_554 S
C568 H559 0.930 . S
C568 C566 1.378 . S
C568 C569 1.366 1_556 S
C569 C568 1.366 1_554 S
C569 C571 1.434 . S
C570 C566 1.351 . S
C570 C567 1.462 1_656 S
C570 N574 1.426 1_556 S
C571 H561 0.929 . S
C571 C569 1.434 . S
C571 N574 1.384 . S
C572 H563 0.929 . S
C572 C564 1.378 . S
C572 C567 1.354 . S
C573 H560 0.929 . S
C573 C565 1.434 1_556 S
C573 N575 1.384 . S
N574 C570 1.426 1_554 S
N574 C571 1.384 . S
N575 C567 1.423 1_556 S
N575 C573 1.384 . S
H576 C582 0.930 . S
H577 C586 0.930 . S
H578 C591 0.929 . S
H579 C589 0.929 . S
H580 C584 0.929 . S
H581 C590 0.929 . S
C582 H576 0.930 . S
C582 C583 1.376 . S
C582 C590 1.378 . S
C583 C582 1.376 . S
C583 C591 1.424 1_556 S
C584 H580 0.929 . S
C584 C586 1.378 . S
C584 C588 1.369 . S
C585 C588 1.461 1_556 S
C585 C590 1.376 . S
C585 N593 1.401 1_556 S
C586 H577 0.930 . S
C586 C584 1.378 . S
C586 C587 1.370 . S
C587 C586 1.370 . S
C587 C589 1.430 1_554 S
C588 C584 1.369 . S
C588 C585 1.461 1_554 S
C588 N592 1.408 1_554 S
C589 H579 0.929 . S
C589 C587 1.430 1_556 S
C589 N592 1.384 . S
C590 H581 0.929 . S
C590 C582 1.378 . S
C590 C585 1.376 . S
C591 H578 0.929 . S
C591 C583 1.424 1_554 S
C591 N593 1.384 . S
N592 C588 1.408 1_556 S
N592 C589 1.384 . S
N593 C585 1.401 1_554 S
N593 C591 1.384 . S
H594 C600 0.930 . S
H595 C604 0.930 . S
H596 C609 0.929 . S
H597 C607 0.929 . S
H598 C602 0.929 . S
H599 C608 0.929 . S
C600 H594 0.930 . S
C600 C601 1.386 . S
C600 C608 1.378 . S
C601 C600 1.386 . S
C601 C609 1.414 1_556 S
C602 H598 0.929 . S
C602 C604 1.378 . S
C602 C606 1.375 . S
C603 C606 1.461 1_566 S
C603 C608 1.369 . S
C603 N611 1.408 1_556 S
C604 H595 0.930 . S
C604 C602 1.378 . S
C604 C605 1.392 . S
C605 C604 1.392 . S
C605 C607 1.408 1_554 S
C606 C602 1.375 . S
C606 C603 1.461 1_544 S
C606 N610 1.402 1_554 S
C607 H597 0.929 . S
C607 C605 1.408 1_556 S
C607 N610 1.384 . S
C608 H599 0.929 . S
C608 C600 1.378 . S
C608 C603 1.369 . S
C609 H596 0.929 . S
C609 C601 1.414 1_554 S
C609 N611 1.384 . S
N610 C606 1.402 1_556 S
N610 C607 1.384 . S
N611 C603 1.408 1_554 S
N611 C609 1.384 . S
H612 C618 0.930 . S
H613 C622 0.930 . S
H614 C627 0.929 . S
H615 C625 0.929 . S
H616 C620 0.929 . S
H617 C626 0.929 . S
C618 H612 0.930 . S
C618 C619 1.367 . S
C618 C626 1.378 . S
C619 C618 1.367 . S
C619 C627 1.433 . S
C620 H616 0.929 . S
C620 C622 1.378 . S
C620 C624 1.350 . S
C621 C624 1.463 . S
C621 C626 1.350 . S
C621 N629 1.427 . S
C622 H613 0.930 . S
C622 C620 1.378 . S
C622 C623 1.367 . S
C623 C622 1.367 . S
C623 C625 1.433 . S
C624 C620 1.350 . S
C624 C621 1.463 . S
C624 N628 1.427 . S
C625 H615 0.929 . S
C625 C623 1.433 . S
C625 N628 1.384 . S
C626 H617 0.929 . S
C626 C618 1.378 . S
C626 C621 1.350 . S
C627 H614 0.929 . S
C627 C619 1.433 . S
C627 N629 1.384 . S
N628 C624 1.427 . S
N628 C625 1.384 . S
N629 C621 1.427 . S
N629 C627 1.384 . S
H630 C636 0.930 . S
H631 C640 0.930 . S
H632 C645 0.929 . S
H633 C643 0.929 . S
H634 C638 0.929 . S
H635 C644 0.929 . S
C636 H630 0.930 . S
C636 C637 1.367 . S
C636 C644 1.378 . S
C637 C636 1.367 . S
C637 C645 1.433 1_565 S
C638 H634 0.929 . S
C638 C640 1.378 . S
C638 C642 1.350 . S
C639 C642 1.463 . S
C639 C644 1.350 1_545 S
C639 N647 1.427 . S
C640 H631 0.930 . S
C640 C638 1.378 . S
C640 C641 1.367 . S
C641 C640 1.367 . S
C641 C643 1.433 . S
C642 C638 1.350 . S
C642 C639 1.463 . S
C642 N646 1.427 . S
C643 H633 0.929 . S
C643 C641 1.433 . S
C643 N646 1.384 . S
C644 H635 0.929 . S
C644 C636 1.378 . S
C644 C639 1.350 1_565 S
C645 H632 0.929 . S
C645 C637 1.433 1_545 S
C645 N647 1.384 . S
N646 C642 1.427 . S
N646 C643 1.384 . S
N647 C639 1.427 . S
N647 C645 1.384 . S
H648 C654 0.930 . S
H649 C658 0.930 . S
H650 C663 0.929 . S
H651 C661 0.929 . S
H652 C656 0.929 . S
H653 C662 0.929 . S
C654 H648 0.930 . S
C654 C655 1.367 . S
C654 C662 1.378 . S
C655 C654 1.367 . S
C655 C663 1.433 . S
C656 H652 0.929 . S
C656 C658 1.378 1_655 S
C656 C660 1.350 . S
C657 C660 1.463 . S
C657 C662 1.350 . S
C657 N665 1.427 . S
C658 H649 0.930 . S
C658 C656 1.378 1_455 S
C658 C659 1.367 . S
C659 C658 1.367 . S
C659 C661 1.433 . S
C660 C656 1.350 . S
C660 C657 1.463 . S
C660 N664 1.427 . S
C661 H651 0.929 . S
C661 C659 1.433 . S
C661 N664 1.384 1_455 S
C662 H653 0.929 . S
C662 C654 1.378 . S
C662 C657 1.350 . S
C663 H650 0.929 . S
C663 C655 1.433 . S
C663 N665 1.384 . S
N664 C660 1.427 . S
N664 C661 1.384 1_655 S
N665 C657 1.427 . S
N665 C663 1.384 . S
H666 C672 0.930 . S
H667 C676 0.930 . S
H668 C681 0.929 . S
H669 C679 0.929 . S
H670 C674 0.929 1_565 S
H671 C680 0.929 . S
C672 H666 0.930 . S
C672 C673 1.367 1_545 S
C672 C680 1.378 . S
C673 C672 1.367 1_565 S
C673 C681 1.433 . S
C674 H670 0.929 1_545 S
C674 C676 1.378 . S
C674 C678 1.350 . S
C675 C678 1.463 . S
C675 C680 1.350 . S
C675 N683 1.427 1_545 S
C676 H667 0.930 . S
C676 C674 1.378 . S
C676 C677 1.367 . S
C677 C676 1.367 . S
C677 C679 1.433 . S
C678 C674 1.350 . S
C678 C675 1.463 . S
C678 N682 1.427 . S
C679 H669 0.929 . S
C679 C677 1.433 . S
C679 N682 1.384 . S
C680 H671 0.929 . S
C680 C672 1.378 . S
C680 C675 1.350 . S
C681 H668 0.929 . S
C681 C673 1.433 . S
C681 N683 1.384 . S
N682 C678 1.427 . S
N682 C679 1.384 . S
N683 C675 1.427 1_565 S
N683 C681 1.384 . S
H684 C690 0.930 . S
H685 C694 0.930 . S
H686 C699 0.929 . S
H687 C697 0.929 . S
H688 C692 0.929 . S
H689 C698 0.929 . S
C690 H684 0.930 . S
C690 C691 1.367 . S
C690 C698 1.378 . S
C691 C690 1.367 . S
C691 C699 1.433 . S
C692 H688 0.929 . S
C692 C694 1.378 . S
C692 C696 1.350 . S
C693 C696 1.463 . S
C693 C698 1.350 . S
C693 N701 1.427 . S
C694 H685 0.930 . S
C694 C692 1.378 . S
C694 C695 1.367 1_655 S
C695 C694 1.367 1_455 S
C695 C697 1.433 . S
C696 C692 1.350 . S
C696 C693 1.463 . S
C696 N700 1.427 1_655 S
C697 H687 0.929 . S
C697 C695 1.433 . S
C697 N700 1.384 . S
C698 H689 0.929 . S
C698 C690 1.378 . S
C698 C693 1.350 . S
C699 H686 0.929 . S
C699 C691 1.433 . S
C699 N701 1.384 . S
N700 C696 1.427 1_455 S
N700 C697 1.384 . S
N701 C693 1.427 . S
N701 C699 1.384 . S
H702 C708 0.930 . S
H703 C712 0.930 . S
H704 C717 0.929 . S
H705 C715 0.929 . S
H706 C710 0.929 . S
H707 C716 0.929 . S
C708 H702 0.930 . S
C708 C709 1.367 . S
C708 C716 1.378 . S
C709 C708 1.367 . S
C709 C717 1.433 . S
C710 H706 0.929 . S
C710 C712 1.378 . S
C710 C714 1.350 . S
C711 C714 1.463 . S
C711 C716 1.350 . S
C711 N719 1.427 . S
C712 H703 0.930 . S
C712 C710 1.378 . S
C712 C713 1.367 . S
C713 C712 1.367 . S
C713 C715 1.433 . S
C714 C710 1.350 . S
C714 C711 1.463 . S
C714 N718 1.427 . S
C715 H705 0.929 . S
C715 C713 1.433 . S
C715 N718 1.384 . S
C716 H707 0.929 . S
C716 C708 1.378 . S
C716 C711 1.350 . S
C717 H704 0.929 . S
C717 C709 1.433 . S
C717 N719 1.384 . S
N718 C714 1.427 . S
N718 C715 1.384 . S
N719 C711 1.427 . S
N719 C717 1.384 . S
H720 C726 0.930 . S
H721 C730 0.930 . S
H722 C735 0.929 . S
H723 C733 0.929 . S
H724 C728 0.929 . S
H725 C734 0.929 . S
C726 H720 0.930 . S
C726 C727 1.367 . S
C726 C734 1.378 . S
C727 C726 1.367 . S
C727 C735 1.433 . S
C728 H724 0.929 . S
C728 C730 1.378 . S
C728 C732 1.350 . S
C729 C732 1.463 . S
C729 C734 1.350 . S
C729 N737 1.427 . S
C730 H721 0.930 . S
C730 C728 1.378 . S
C730 C731 1.367 1_565 S
C731 C730 1.367 1_545 S
C731 C733 1.433 . S
C732 C728 1.350 . S
C732 C729 1.463 . S
C732 N736 1.427 1_565 S
C733 H723 0.929 . S
C733 C731 1.433 . S
C733 N736 1.384 . S
C734 H725 0.929 . S
C734 C726 1.378 . S
C734 C729 1.350 . S
C735 H722 0.929 . S
C735 C727 1.433 . S
C735 N737 1.384 . S
N736 C732 1.427 1_545 S
N736 C733 1.384 . S
N737 C729 1.427 . S
N737 C735 1.384 . S
H738 C744 0.930 . S
H739 C748 0.930 . S
H740 C753 0.929 . S
H741 C751 0.929 . S
H742 C746 0.929 . S
H743 C752 0.929 . S
C744 H738 0.930 . S
C744 C745 1.367 . S
C744 C752 1.378 1_655 S
C745 C744 1.367 . S
C745 C753 1.433 . S
C746 H742 0.929 . S
C746 C748 1.378 . S
C746 C750 1.350 . S
C747 C750 1.463 . S
C747 C752 1.350 . S
C747 N755 1.427 . S
C748 H739 0.930 . S
C748 C746 1.378 . S
C748 C749 1.367 . S
C749 C748 1.367 . S
C749 C751 1.433 . S
C750 C746 1.350 . S
C750 C747 1.463 . S
C750 N754 1.427 . S
C751 H741 0.929 . S
C751 C749 1.433 . S
C751 N754 1.384 . S
C752 H743 0.929 . S
C752 C744 1.378 1_455 S
C752 C747 1.350 . S
C753 H740 0.929 . S
C753 C745 1.433 . S
C753 N755 1.384 1_655 S
N754 C750 1.427 . S
N754 C751 1.384 . S
N755 C747 1.427 . S
N755 C753 1.384 1_455 S
H756 C762 0.930 . S
H757 C766 0.930 . S
H758 C771 0.929 . S
H759 C769 0.929 . S
H760 C764 0.929 . S
H761 C770 0.929 . S
C762 H756 0.930 . S
C762 C763 1.367 . S
C762 C770 1.378 . S
C763 C762 1.367 . S
C763 C771 1.433 . S
C764 H760 0.929 . S
C764 C766 1.378 . S
C764 C768 1.350 . S
C765 C768 1.463 . S
C765 C770 1.350 . S
C765 N773 1.427 . S
C766 H757 0.930 . S
C766 C764 1.378 . S
C766 C767 1.367 . S
C767 C766 1.367 . S
C767 C769 1.433 . S
C768 C764 1.350 . S
C768 C765 1.463 . S
C768 N772 1.427 . S
C769 H759 0.929 . S
C769 C767 1.433 . S
C769 N772 1.384 . S
C770 H761 0.929 . S
C770 C762 1.378 . S
C770 C765 1.350 . S
C771 H758 0.929 . S
C771 C763 1.433 . S
C771 N773 1.384 . S
N772 C768 1.427 . S
N772 C769 1.384 . S
N773 C765 1.427 . S
N773 C771 1.384 . S
H774 C780 0.930 . S
H775 C784 0.930 . S
H776 C789 0.929 . S
H777 C787 0.929 . S
H778 C782 0.929 . S
H779 C788 0.929 . S
C780 H774 0.930 . S
C780 C781 1.367 . S
C780 C788 1.378 . S
C781 C780 1.367 . S
C781 C789 1.433 . S
C782 H778 0.929 . S
C782 C784 1.378 . S
C782 C786 1.350 . S
C783 C786 1.463 . S
C783 C788 1.350 . S
C783 N791 1.427 . S
C784 H775 0.930 . S
C784 C782 1.378 . S
C784 C785 1.367 . S
C785 C784 1.367 . S
C785 C787 1.433 . S
C786 C782 1.350 . S
C786 C783 1.463 . S
C786 N790 1.427 . S
C787 H777 0.929 . S
C787 C785 1.433 . S
C787 N790 1.384 . S
C788 H779 0.929 . S
C788 C780 1.378 . S
C788 C783 1.350 . S
C789 H776 0.929 . S
C789 C781 1.433 . S
C789 N791 1.384 . S
N790 C786 1.427 . S
N790 C787 1.384 . S
N791 C783 1.427 . S
N791 C789 1.384 . S
H792 C798 0.930 . S
H793 C802 0.930 . S
H794 C807 0.929 . S
H795 C805 0.929 . S
H796 C800 0.929 . S
H797 C806 0.929 . S
C798 H792 0.930 . S
C798 C799 1.367 . S
C798 C806 1.378 . S
C799 C798 1.367 . S
C799 C807 1.433 . S
C800 H796 0.929 . S
C800 C802 1.378 . S
C800 C804 1.350 1_545 S
C801 C804 1.463 . S
C801 C806 1.350 . S
C801 N809 1.427 . S
C802 H793 0.930 . S
C802 C800 1.378 . S
C802 C803 1.367 . S
C803 C802 1.367 . S
C803 C805 1.433 1_545 S
C804 C800 1.350 1_565 S
C804 C801 1.463 . S
C804 N808 1.427 . S
C805 H795 0.929 . S
C805 C803 1.433 1_565 S
C805 N808 1.384 . S
C806 H797 0.929 . S
C806 C798 1.378 . S
C806 C801 1.350 . S
C807 H794 0.929 . S
C807 C799 1.433 . S
C807 N809 1.384 . S
N808 C804 1.427 . S
N808 C805 1.384 . S
N809 C801 1.427 . S
N809 C807 1.384 . S
H810 C816 0.930 . S
H811 C820 0.930 . S
H812 C825 0.929 . S
H813 C823 0.929 . S
H814 C818 0.929 . S
H815 C824 0.929 . S
C816 H810 0.930 . S
C816 C817 1.367 . S
C816 C824 1.378 . S
C817 C816 1.367 . S
C817 C825 1.433 . S
C818 H814 0.929 . S
C818 C820 1.378 1_455 S
C818 C822 1.350 . S
C819 C822 1.463 . S
C819 C824 1.350 . S
C819 N827 1.427 . S
C820 H811 0.930 . S
C820 C818 1.378 1_655 S
C820 C821 1.367 . S
C821 C820 1.367 . S
C821 C823 1.433 . S
C822 C818 1.350 . S
C822 C819 1.463 . S
C822 N826 1.427 . S
C823 H813 0.929 . S
C823 C821 1.433 . S
C823 N826 1.384 1_655 S
C824 H815 0.929 . S
C824 C816 1.378 . S
C824 C819 1.350 . S
C825 H812 0.929 . S
C825 C817 1.433 . S
C825 N827 1.384 . S
N826 C822 1.427 . S
N826 C823 1.384 1_455 S
N827 C819 1.427 . S
N827 C825 1.384 . S
H828 C834 0.930 . S
H829 C838 0.930 . S
H830 C843 0.929 . S
H831 C841 0.929 . S
H832 C836 0.929 . S
H833 C842 0.929 . S
C834 H828 0.930 . S
C834 C835 1.367 . S
C834 C842 1.378 . S
C835 C834 1.367 . S
C835 C843 1.433 . S
C836 H832 0.929 . S
C836 C838 1.378 . S
C836 C840 1.350 . S
C837 C840 1.463 . S
C837 C842 1.350 . S
C837 N845 1.427 . S
C838 H829 0.930 . S
C838 C836 1.378 . S
C838 C839 1.367 . S
C839 C838 1.367 . S
C839 C841 1.433 . S
C840 C836 1.350 . S
C840 C837 1.463 . S
C840 N844 1.427 . S
C841 H831 0.929 . S
C841 C839 1.433 . S
C841 N844 1.384 . S
C842 H833 0.929 . S
C842 C834 1.378 . S
C842 C837 1.350 . S
C843 H830 0.929 . S
C843 C835 1.433 . S
C843 N845 1.384 . S
N844 C840 1.427 . S
N844 C841 1.384 . S
N845 C837 1.427 . S
N845 C843 1.384 . S
H846 C852 0.930 . S
H847 C856 0.930 . S
H848 C861 0.929 . S
H849 C859 0.929 . S
H850 C854 0.929 . S
H851 C860 0.929 . S
C852 H846 0.930 . S
C852 C853 1.367 1_556 S
C852 C860 1.378 . S
C853 C852 1.367 1_554 S
C853 C861 1.433 . S
C854 H850 0.929 . S
C854 C856 1.378 . S
C854 C858 1.350 . S
C855 C858 1.463 . S
C855 C860 1.350 1_554 S
C855 N863 1.427 . S
C856 H847 0.930 . S
C856 C854 1.378 . S
C856 C857 1.367 . S
C857 C856 1.367 . S
C857 C859 1.433 1_554 S
C858 C854 1.350 . S
C858 C855 1.463 . S
C858 N862 1.427 1_554 S
C859 H849 0.929 . S
C859 C857 1.433 1_556 S
C859 N862 1.384 . S
C860 H851 0.929 . S
C860 C852 1.378 . S
C860 C855 1.350 1_556 S
C861 H848 0.929 . S
C861 C853 1.433 . S
C861 N863 1.384 . S
N862 C858 1.427 1_556 S
N862 C859 1.384 . S
N863 C855 1.427 . S
N863 C861 1.384 . S
H864 C870 0.930 . S
H865 C874 0.930 . S
H866 C879 0.929 . S
H867 C877 0.929 . S
H868 C872 0.929 . S
H869 C878 0.929 . S
C870 H864 0.930 . S
C870 C871 1.367 1_556 S
C870 C878 1.378 . S
C871 C870 1.367 1_554 S
C871 C879 1.433 . S
C872 H868 0.929 . S
C872 C874 1.378 . S
C872 C876 1.350 . S
C873 C876 1.463 . S
C873 C878 1.350 1_554 S
C873 N881 1.427 . S
C874 H865 0.930 . S
C874 C872 1.378 . S
C874 C875 1.367 . S
C875 C874 1.367 . S
C875 C877 1.433 1_554 S
C876 C872 1.350 . S
C876 C873 1.463 . S
C876 N880 1.427 1_554 S
C877 H867 0.929 . S
C877 C875 1.433 1_556 S
C877 N880 1.384 . S
C878 H869 0.929 . S
C878 C870 1.378 . S
C878 C873 1.350 1_556 S
C879 H866 0.929 . S
C879 C871 1.433 . S
C879 N881 1.384 . S
N880 C876 1.427 1_556 S
N880 C877 1.384 . S
N881 C873 1.427 . S
N881 C879 1.384 . S
H882 C888 0.930 . S
H883 C892 0.930 . S
H884 C897 0.929 . S
H885 C895 0.929 . S
H886 C890 0.929 . S
H887 C896 0.929 . S
C888 H882 0.930 . S
C888 C889 1.367 1_554 S
C888 C896 1.378 . S
C889 C888 1.367 1_556 S
C889 C897 1.433 . S
C890 H886 0.929 . S
C890 C892 1.378 . S
C890 C894 1.350 . S
C891 C894 1.463 . S
C891 C896 1.350 1_556 S
C891 N899 1.427 . S
C892 H883 0.930 . S
C892 C890 1.378 . S
C892 C893 1.367 . S
C893 C892 1.367 . S
C893 C895 1.433 1_556 S
C894 C890 1.350 . S
C894 C891 1.463 . S
C894 N898 1.427 1_556 S
C895 H885 0.929 . S
C895 C893 1.433 1_554 S
C895 N898 1.384 . S
C896 H887 0.929 . S
C896 C888 1.378 . S
C896 C891 1.350 1_554 S
C897 H884 0.929 . S
C897 C889 1.433 . S
C897 N899 1.384 . S
N898 C894 1.427 1_554 S
N898 C895 1.384 . S
N899 C891 1.427 . S
N899 C897 1.384 . S
H900 C906 0.930 . S
H901 C910 0.930 . S
H902 C915 0.929 . S
H903 C913 0.929 . S
H904 C908 0.929 . S
H905 C914 0.929 . S
C906 H900 0.930 . S
C906 C907 1.367 1_554 S
C906 C914 1.378 . S
C907 C906 1.367 1_556 S
C907 C915 1.433 . S
C908 H904 0.929 . S
C908 C910 1.378 . S
C908 C912 1.350 . S
C909 C912 1.463 . S
C909 C914 1.350 1_556 S
C909 N917 1.427 . S
C910 H901 0.930 . S
C910 C908 1.378 . S
C910 C911 1.367 . S
C911 C910 1.367 . S
C911 C913 1.433 1_556 S
C912 C908 1.350 . S
C912 C909 1.463 . S
C912 N916 1.427 1_556 S
C913 H903 0.929 . S
C913 C911 1.433 1_554 S
C913 N916 1.384 . S
C914 H905 0.929 . S
C914 C906 1.378 . S
C914 C909 1.350 1_554 S
C915 H902 0.929 . S
C915 C907 1.433 . S
C915 N917 1.384 . S
N916 C912 1.427 1_554 S
N916 C913 1.384 . S
N917 C909 1.427 . S
N917 C915 1.384 . S
H918 C924 0.930 . S
H919 C928 0.930 . S
H920 C933 0.929 . S
H921 C931 0.929 . S
H922 C926 0.929 . S
H923 C932 0.929 . S
C924 H918 0.930 . S
C924 C925 1.367 1_554 S
C924 C932 1.378 . S
C925 C924 1.367 1_556 S
C925 C933 1.433 . S
C926 H922 0.929 . S
C926 C928 1.378 . S
C926 C930 1.350 . S
C927 C930 1.463 . S
C927 C932 1.350 1_556 S
C927 N935 1.427 . S
C928 H919 0.930 . S
C928 C926 1.378 . S
C928 C929 1.367 . S
C929 C928 1.367 . S
C929 C931 1.433 1_556 S
C930 C926 1.350 . S
C930 C927 1.463 . S
C930 N934 1.427 1_556 S
C931 H921 0.929 . S
C931 C929 1.433 1_554 S
C931 N934 1.384 . S
C932 H923 0.929 . S
C932 C924 1.378 . S
C932 C927 1.350 1_554 S
C933 H920 0.929 . S
C933 C925 1.433 . S
C933 N935 1.384 . S
N934 C930 1.427 1_554 S
N934 C931 1.384 . S
N935 C927 1.427 . S
N935 C933 1.384 . S
H936 C942 0.930 . S
H937 C946 0.930 . S
H938 C951 0.929 . S
H939 C949 0.929 . S
H940 C944 0.929 . S
H941 C950 0.929 . S
C942 H936 0.930 . S
C942 C943 1.367 . S
C942 C950 1.378 . S
C943 C942 1.367 . S
C943 C951 1.433 . S
C944 H940 0.929 . S
C944 C946 1.378 . S
C944 C948 1.350 . S
C945 C948 1.463 . S
C945 C950 1.350 . S
C945 N953 1.427 . S
C946 H937 0.930 . S
C946 C944 1.378 . S
C946 C947 1.367 . S
C947 C946 1.367 . S
C947 C949 1.433 . S
C948 C944 1.350 . S
C948 C945 1.463 . S
C948 N952 1.427 . S
C949 H939 0.929 . S
C949 C947 1.433 . S
C949 N952 1.384 . S
C950 H941 0.929 . S
C950 C942 1.378 . S
C950 C945 1.350 . S
C951 H938 0.929 . S
C951 C943 1.433 . S
C951 N953 1.384 . S
N952 C948 1.427 . S
N952 C949 1.384 . S
N953 C945 1.427 . S
N953 C951 1.384 . S
H954 C960 0.930 . S
H955 C964 0.930 . S
H956 C969 0.929 . S
H957 C967 0.929 . S
H958 C962 0.929 . S
H959 C968 0.929 . S
C960 H954 0.930 . S
C960 C961 1.367 . S
C960 C968 1.378 . S
C961 C960 1.367 . S
C961 C969 1.433 . S
C962 H958 0.929 . S
C962 C964 1.378 . S
C962 C966 1.350 . S
C963 C966 1.463 . S
C963 C968 1.350 . S
C963 N971 1.427 . S
C964 H955 0.930 . S
C964 C962 1.378 . S
C964 C965 1.367 . S
C965 C964 1.367 . S
C965 C967 1.433 . S
C966 C962 1.350 . S
C966 C963 1.463 . S
C966 N970 1.427 . S
C967 H957 0.929 . S
C967 C965 1.433 . S
C967 N970 1.384 . S
C968 H959 0.929 . S
C968 C960 1.378 . S
C968 C963 1.350 . S
C969 H956 0.929 . S
C969 C961 1.433 . S
C969 N971 1.384 . S
N970 C966 1.427 . S
N970 C967 1.384 . S
N971 C963 1.427 . S
N971 C969 1.384 . S
H972 C978 0.930 . S
H973 C982 0.930 . S
H974 C987 0.929 . S
H975 C985 0.929 . S
H976 C980 0.929 . S
H977 C986 0.929 . S
C978 H972 0.930 . S
C978 C979 1.367 . S
C978 C986 1.378 . S
C979 C978 1.367 . S
C979 C987 1.433 . S
C980 H976 0.929 . S
C980 C982 1.378 . S
C980 C984 1.350 . S
C981 C984 1.463 . S
C981 C986 1.350 . S
C981 N989 1.427 . S
C982 H973 0.930 . S
C982 C980 1.378 . S
C982 C983 1.367 . S
C983 C982 1.367 . S
C983 C985 1.433 . S
C984 C980 1.350 . S
C984 C981 1.463 . S
C984 N988 1.427 . S
C985 H975 0.929 . S
C985 C983 1.433 . S
C985 N988 1.384 . S
C986 H977 0.929 . S
C986 C978 1.378 . S
C986 C981 1.350 . S
C987 H974 0.929 . S
C987 C979 1.433 . S
C987 N989 1.384 . S
N988 C984 1.427 . S
N988 C985 1.384 . S
N989 C981 1.427 . S
N989 C987 1.384 . S
H990 C996 0.930 . S
H991 C1000 0.930 . S
H992 C1005 0.929 . S
H993 C1003 0.929 . S
H994 C998 0.929 . S
H995 C1004 0.929 . S
C996 H990 0.930 . S
C996 C997 1.367 . S
C996 C1004 1.378 . S
C997 C996 1.367 . S
C997 C1005 1.433 . S
C998 H994 0.929 . S
C998 C1000 1.378 . S
C998 C1002 1.350 . S
C999 C1002 1.463 . S
C999 C1004 1.350 . S
C999 N1007 1.427 . S
C1000 H991 0.930 . S
C1000 C998 1.378 . S
C1000 C1001 1.367 . S
C1001 C1000 1.367 . S
C1001 C1003 1.433 . S
C1002 C998 1.350 . S
C1002 C999 1.463 . S
C1002 N1006 1.427 . S
C1003 H993 0.929 . S
C1003 C1001 1.433 . S
C1003 N1006 1.384 . S
C1004 H995 0.929 . S
C1004 C996 1.378 . S
C1004 C999 1.350 . S
C1005 H992 0.929 . S
C1005 C997 1.433 . S
C1005 N1007 1.384 . S
N1006 C1002 1.427 . S
N1006 C1003 1.384 . S
N1007 C999 1.427 . S
N1007 C1005 1.384 . S
H1008 C1014 0.930 . S
H1009 C1018 0.930 . S
H1010 C1023 0.929 . S
H1011 C1021 0.929 . S
H1012 C1016 0.929 . S
H1013 C1022 0.929 . S
C1014 H1008 0.930 . S
C1014 C1015 1.367 . S
C1014 C1022 1.378 . S
C1015 C1014 1.367 . S
C1015 C1023 1.433 . S
C1016 H1012 0.929 . S
C1016 C1018 1.378 . S
C1016 C1020 1.350 . S
C1017 C1020 1.463 . S
C1017 C1022 1.350 . S
C1017 N1025 1.427 . S
C1018 H1009 0.930 . S
C1018 C1016 1.378 . S
C1018 C1019 1.367 . S
C1019 C1018 1.367 . S
C1019 C1021 1.433 . S
C1020 C1016 1.350 . S
C1020 C1017 1.463 . S
C1020 N1024 1.427 . S
C1021 H1011 0.929 . S
C1021 C1019 1.433 . S
C1021 N1024 1.384 . S
C1022 H1013 0.929 . S
C1022 C1014 1.378 . S
C1022 C1017 1.350 . S
C1023 H1010 0.929 . S
C1023 C1015 1.433 . S
C1023 N1025 1.384 . S
N1024 C1020 1.427 . S
N1024 C1021 1.384 . S
N1025 C1017 1.427 . S
N1025 C1023 1.384 . S
H1026 C1032 0.930 . S
H1027 C1036 0.930 . S
H1028 C1041 0.929 . S
H1029 C1039 0.929 . S
H1030 C1034 0.929 . S
H1031 C1040 0.929 . S
C1032 H1026 0.930 . S
C1032 C1033 1.367 . S
C1032 C1040 1.378 . S
C1033 C1032 1.367 . S
C1033 C1041 1.433 . S
C1034 H1030 0.929 . S
C1034 C1036 1.378 . S
C1034 C1038 1.350 . S
C1035 C1038 1.463 . S
C1035 C1040 1.350 . S
C1035 N1043 1.427 . S
C1036 H1027 0.930 . S
C1036 C1034 1.378 . S
C1036 C1037 1.367 . S
C1037 C1036 1.367 . S
C1037 C1039 1.433 . S
C1038 C1034 1.350 . S
C1038 C1035 1.463 . S
C1038 N1042 1.427 . S
C1039 H1029 0.929 . S
C1039 C1037 1.433 . S
C1039 N1042 1.384 . S
C1040 H1031 0.929 . S
C1040 C1032 1.378 . S
C1040 C1035 1.350 . S
C1041 H1028 0.929 . S
C1041 C1033 1.433 . S
C1041 N1043 1.384 . S
N1042 C1038 1.427 . S
N1042 C1039 1.384 . S
N1043 C1035 1.427 . S
N1043 C1041 1.384 . S
H1044 C1050 0.930 . S
H1045 C1054 0.930 . S
H1046 C1059 0.929 . S
H1047 C1057 0.929 . S
H1048 C1052 0.929 . S
H1049 C1058 0.929 . S
C1050 H1044 0.930 . S
C1050 C1051 1.367 . S
C1050 C1058 1.378 . S
C1051 C1050 1.367 . S
C1051 C1059 1.433 . S
C1052 H1048 0.929 . S
C1052 C1054 1.378 . S
C1052 C1056 1.350 . S
C1053 C1056 1.463 . S
C1053 C1058 1.350 . S
C1053 N1061 1.427 . S
C1054 H1045 0.930 . S
C1054 C1052 1.378 . S
C1054 C1055 1.367 . S
C1055 C1054 1.367 . S
C1055 C1057 1.433 . S
C1056 C1052 1.350 . S
C1056 C1053 1.463 . S
C1056 N1060 1.427 . S
C1057 H1047 0.929 . S
C1057 C1055 1.433 . S
C1057 N1060 1.384 . S
C1058 H1049 0.929 . S
C1058 C1050 1.378 . S
C1058 C1053 1.350 . S
C1059 H1046 0.929 . S
C1059 C1051 1.433 . S
C1059 N1061 1.384 . S
N1060 C1056 1.427 . S
N1060 C1057 1.384 . S
N1061 C1053 1.427 . S
N1061 C1059 1.384 . S
H1062 C1068 0.930 . S
H1063 C1072 0.930 . S
H1064 C1077 0.929 . S
H1065 C1075 0.929 . S
H1066 C1070 0.929 . S
H1067 C1076 0.929 . S
C1068 H1062 0.930 . S
C1068 C1069 1.367 . S
C1068 C1076 1.378 . S
C1069 C1068 1.367 . S
C1069 C1077 1.433 . S
C1070 H1066 0.929 . S
C1070 C1072 1.378 . S
C1070 C1074 1.350 . S
C1071 C1074 1.463 . S
C1071 C1076 1.350 . S
C1071 N1079 1.427 . S
C1072 H1063 0.930 . S
C1072 C1070 1.378 . S
C1072 C1073 1.367 . S
C1073 C1072 1.367 . S
C1073 C1075 1.433 . S
C1074 C1070 1.350 . S
C1074 C1071 1.463 . S
C1074 N1078 1.427 . S
C1075 H1065 0.929 . S
C1075 C1073 1.433 . S
C1075 N1078 1.384 . S
C1076 H1067 0.929 . S
C1076 C1068 1.378 . S
C1076 C1071 1.350 . S
C1077 H1064 0.929 . S
C1077 C1069 1.433 . S
C1077 N1079 1.384 . S
N1078 C1074 1.427 . S
N1078 C1075 1.384 . S
N1079 C1071 1.427 . S
N1079 C1077 1.384 . S
H1080 C1086 0.930 . S
H1081 C1090 0.930 . S
H1082 C1095 0.929 . S
H1083 C1093 0.929 . S
H1084 C1088 0.929 . S
H1085 C1094 0.929 . S
C1086 H1080 0.930 . S
C1086 C1087 1.367 . S
C1086 C1094 1.378 . S
C1087 C1086 1.367 . S
C1087 C1095 1.433 . S
C1088 H1084 0.929 . S
C1088 C1090 1.378 . S
C1088 C1092 1.350 . S
C1089 C1092 1.463 . S
C1089 C1094 1.350 . S
C1089 N1097 1.427 . S
C1090 H1081 0.930 . S
C1090 C1088 1.378 . S
C1090 C1091 1.367 . S
C1091 C1090 1.367 . S
C1091 C1093 1.433 . S
C1092 C1088 1.350 . S
C1092 C1089 1.463 . S
C1092 N1096 1.427 . S
C1093 H1083 0.929 . S
C1093 C1091 1.433 . S
C1093 N1096 1.384 . S
C1094 H1085 0.929 . S
C1094 C1086 1.378 . S
C1094 C1089 1.350 . S
C1095 H1082 0.929 . S
C1095 C1087 1.433 . S
C1095 N1097 1.384 . S
N1096 C1092 1.427 . S
N1096 C1093 1.384 . S
N1097 C1089 1.427 . S
N1097 C1095 1.384 . S
H1098 C1104 0.930 . S
H1099 C1108 0.930 . S
H1100 C1113 0.929 . S
H1101 C1111 0.929 . S
H1102 C1106 0.929 . S
H1103 C1112 0.929 . S
C1104 H1098 0.930 . S
C1104 C1105 1.367 . S
C1104 C1112 1.378 . S
C1105 C1104 1.367 . S
C1105 C1113 1.433 . S
C1106 H1102 0.929 . S
C1106 C1108 1.378 . S
C1106 C1110 1.350 . S
C1107 C1110 1.463 . S
C1107 C1112 1.350 . S
C1107 N1115 1.427 . S
C1108 H1099 0.930 . S
C1108 C1106 1.378 . S
C1108 C1109 1.367 . S
C1109 C1108 1.367 . S
C1109 C1111 1.433 . S
C1110 C1106 1.350 . S
C1110 C1107 1.463 . S
C1110 N1114 1.427 . S
C1111 H1101 0.929 . S
C1111 C1109 1.433 . S
C1111 N1114 1.384 . S
C1112 H1103 0.929 . S
C1112 C1104 1.378 . S
C1112 C1107 1.350 . S
C1113 H1100 0.929 . S
C1113 C1105 1.433 . S
C1113 N1115 1.384 . S
N1114 C1110 1.427 . S
N1114 C1111 1.384 . S
N1115 C1107 1.427 . S
N1115 C1113 1.384 . S
H1116 C1122 0.930 . S
H1117 C1126 0.930 . S
H1118 C1131 0.929 . S
H1119 C1129 0.929 . S
H1120 C1124 0.929 . S
H1121 C1130 0.929 . S
C1122 H1116 0.930 . S
C1122 C1123 1.367 . S
C1122 C1130 1.378 . S
C1123 C1122 1.367 . S
C1123 C1131 1.433 . S
C1124 H1120 0.929 . S
C1124 C1126 1.378 . S
C1124 C1128 1.350 . S
C1125 C1128 1.463 . S
C1125 C1130 1.350 . S
C1125 N1133 1.427 . S
C1126 H1117 0.930 . S
C1126 C1124 1.378 . S
C1126 C1127 1.367 . S
C1127 C1126 1.367 . S
C1127 C1129 1.433 . S
C1128 C1124 1.350 . S
C1128 C1125 1.463 . S
C1128 N1132 1.427 . S
C1129 H1119 0.929 . S
C1129 C1127 1.433 . S
C1129 N1132 1.384 . S
C1130 H1121 0.929 . S
C1130 C1122 1.378 . S
C1130 C1125 1.350 . S
C1131 H1118 0.929 . S
C1131 C1123 1.433 . S
C1131 N1133 1.384 . S
N1132 C1128 1.427 . S
N1132 C1129 1.384 . S
N1133 C1125 1.427 . S
N1133 C1131 1.384 . S
H1134 C1140 0.930 . S
H1135 C1144 0.930 . S
H1136 C1149 0.929 . S
H1137 C1147 0.929 . S
H1138 C1142 0.929 . S
H1139 C1148 0.929 . S
C1140 H1134 0.930 . S
C1140 C1141 1.367 . S
C1140 C1148 1.378 . S
C1141 C1140 1.367 . S
C1141 C1149 1.433 . S
C1142 H1138 0.929 . S
C1142 C1144 1.378 . S
C1142 C1146 1.350 . S
C1143 C1146 1.463 . S
C1143 C1148 1.350 . S
C1143 N1151 1.427 . S
C1144 H1135 0.930 . S
C1144 C1142 1.378 . S
C1144 C1145 1.367 . S
C1145 C1144 1.367 . S
C1145 C1147 1.433 . S
C1146 C1142 1.350 . S
C1146 C1143 1.463 . S
C1146 N1150 1.427 . S
C1147 H1137 0.929 . S
C1147 C1145 1.433 . S
C1147 N1150 1.384 . S
C1148 H1139 0.929 . S
C1148 C1140 1.378 . S
C1148 C1143 1.350 . S
C1149 H1136 0.929 . S
C1149 C1141 1.433 . S
C1149 N1151 1.384 . S
N1150 C1146 1.427 . S
N1150 C1147 1.384 . S
N1151 C1143 1.427 . S
N1151 C1149 1.384 . S
H1152 C1158 0.930 . S
H1153 C1162 0.930 . S
H1154 C1167 0.929 . S
H1155 C1165 0.929 . S
H1156 C1160 0.929 . S
H1157 C1166 0.929 . S
C1158 H1152 0.930 . S
C1158 C1159 1.367 . S
C1158 C1166 1.378 . S
C1159 C1158 1.367 . S
C1159 C1167 1.433 . S
C1160 H1156 0.929 . S
C1160 C1162 1.378 . S
C1160 C1164 1.350 . S
C1161 C1164 1.463 . S
C1161 C1166 1.350 . S
C1161 N1169 1.427 . S
C1162 H1153 0.930 . S
C1162 C1160 1.378 . S
C1162 C1163 1.367 . S
C1163 C1162 1.367 . S
C1163 C1165 1.433 . S
C1164 C1160 1.350 . S
C1164 C1161 1.463 . S
C1164 N1168 1.427 . S
C1165 H1155 0.929 . S
C1165 C1163 1.433 . S
C1165 N1168 1.384 . S
C1166 H1157 0.929 . S
C1166 C1158 1.378 . S
C1166 C1161 1.350 . S
C1167 H1154 0.929 . S
C1167 C1159 1.433 . S
C1167 N1169 1.384 . S
N1168 C1164 1.427 . S
N1168 C1165 1.384 . S
N1169 C1161 1.427 . S
N1169 C1167 1.384 . S
H1170 C1176 0.930 . S
H1171 C1180 0.930 . S
H1172 C1185 0.929 . S
H1173 C1183 0.929 . S
H1174 C1178 0.929 . S
H1175 C1184 0.929 . S
C1176 H1170 0.930 . S
C1176 C1177 1.367 . S
C1176 C1184 1.378 . S
C1177 C1176 1.367 . S
C1177 C1185 1.433 . S
C1178 H1174 0.929 . S
C1178 C1180 1.378 . S
C1178 C1182 1.350 . S
C1179 C1182 1.463 . S
C1179 C1184 1.350 . S
C1179 N1187 1.427 . S
C1180 H1171 0.930 . S
C1180 C1178 1.378 . S
C1180 C1181 1.367 . S
C1181 C1180 1.367 . S
C1181 C1183 1.433 . S
C1182 C1178 1.350 . S
C1182 C1179 1.463 . S
C1182 N1186 1.427 . S
C1183 H1173 0.929 . S
C1183 C1181 1.433 . S
C1183 N1186 1.384 . S
C1184 H1175 0.929 . S
C1184 C1176 1.378 . S
C1184 C1179 1.350 . S
C1185 H1172 0.929 . S
C1185 C1177 1.433 . S
C1185 N1187 1.384 . S
N1186 C1182 1.427 . S
N1186 C1183 1.384 . S
N1187 C1179 1.427 . S
N1187 C1185 1.384 . S
H1188 C1194 0.930 . S
H1189 C1198 0.930 . S
H1190 C1203 0.929 . S
H1191 C1201 0.929 . S
H1192 C1196 0.929 . S
H1193 C1202 0.929 . S
C1194 H1188 0.930 . S
C1194 C1195 1.367 . S
C1194 C1202 1.378 . S
C1195 C1194 1.367 . S
C1195 C1203 1.433 . S
C1196 H1192 0.929 . S
C1196 C1198 1.378 . S
C1196 C1200 1.350 . S
C1197 C1200 1.463 . S
C1197 C1202 1.350 . S
C1197 N1205 1.427 . S
C1198 H1189 0.930 . S
C1198 C1196 1.378 . S
C1198 C1199 1.367 . S
C1199 C1198 1.367 . S
C1199 C1201 1.433 . S
C1200 C1196 1.350 . S
C1200 C1197 1.463 . S
C1200 N1204 1.427 . S
C1201 H1191 0.929 . S
C1201 C1199 1.433 . S
C1201 N1204 1.384 . S
C1202 H1193 0.929 . S
C1202 C1194 1.378 . S
C1202 C1197 1.350 . S
C1203 H1190 0.929 . S
C1203 C1195 1.433 . S
C1203 N1205 1.384 . S
N1204 C1200 1.427 . S
N1204 C1201 1.384 . S
N1205 C1197 1.427 . S
N1205 C1203 1.384 . S
H1206 C1212 0.930 . S
H1207 C1216 0.930 . S
H1208 C1221 0.929 . S
H1209 C1219 0.929 . S
H1210 C1214 0.929 . S
H1211 C1220 0.929 . S
C1212 H1206 0.930 . S
C1212 C1213 1.367 . S
C1212 C1220 1.378 . S
C1213 C1212 1.367 . S
C1213 C1221 1.433 . S
C1214 H1210 0.929 . S
C1214 C1216 1.378 . S
C1214 C1218 1.350 . S
C1215 C1218 1.463 . S
C1215 C1220 1.350 . S
C1215 N1223 1.427 . S
C1216 H1207 0.930 . S
C1216 C1214 1.378 . S
C1216 C1217 1.367 . S
C1217 C1216 1.367 . S
C1217 C1219 1.433 . S
C1218 C1214 1.350 . S
C1218 C1215 1.463 . S
C1218 N1222 1.427 . S
C1219 H1209 0.929 . S
C1219 C1217 1.433 . S
C1219 N1222 1.384 . S
C1220 H1211 0.929 . S
C1220 C1212 1.378 . S
C1220 C1215 1.350 . S
C1221 H1208 0.929 . S
C1221 C1213 1.433 . S
C1221 N1223 1.384 . S
N1222 C1218 1.427 . S
N1222 C1219 1.384 . S
N1223 C1215 1.427 . S
N1223 C1221 1.384 . S
H1224 C1230 0.930 . S
H1225 C1234 0.930 . S
H1226 C1239 0.929 . S
H1227 C1237 0.929 . S
H1228 C1232 0.929 . S
H1229 C1238 0.929 . S
C1230 H1224 0.930 . S
C1230 C1231 1.367 . S
C1230 C1238 1.378 . S
C1231 C1230 1.367 . S
C1231 C1239 1.433 . S
C1232 H1228 0.929 . S
C1232 C1234 1.378 . S
C1232 C1236 1.350 . S
C1233 C1236 1.463 . S
C1233 C1238 1.350 . S
C1233 N1241 1.427 . S
C1234 H1225 0.930 . S
C1234 C1232 1.378 . S
C1234 C1235 1.367 . S
C1235 C1234 1.367 . S
C1235 C1237 1.433 . S
C1236 C1232 1.350 . S
C1236 C1233 1.463 . S
C1236 N1240 1.427 . S
C1237 H1227 0.929 . S
C1237 C1235 1.433 . S
C1237 N1240 1.384 . S
C1238 H1229 0.929 . S
C1238 C1230 1.378 . S
C1238 C1233 1.350 . S
C1239 H1226 0.929 . S
C1239 C1231 1.433 . S
C1239 N1241 1.384 . S
N1240 C1236 1.427 . S
N1240 C1237 1.384 . S
N1241 C1233 1.427 . S
N1241 C1239 1.384 . S
H1242 C1248 0.930 . S
H1243 C1252 0.930 . S
H1244 C1257 0.929 . S
H1245 C1255 0.929 . S
H1246 C1250 0.929 . S
H1247 C1256 0.929 . S
C1248 H1242 0.930 . S
C1248 C1249 1.367 . S
C1248 C1256 1.378 . S
C1249 C1248 1.367 . S
C1249 C1257 1.433 . S
C1250 H1246 0.929 . S
C1250 C1252 1.378 . S
C1250 C1254 1.350 . S
C1251 C1254 1.463 . S
C1251 C1256 1.350 . S
C1251 N1259 1.427 . S
C1252 H1243 0.930 . S
C1252 C1250 1.378 . S
C1252 C1253 1.367 . S
C1253 C1252 1.367 . S
C1253 C1255 1.433 . S
C1254 C1250 1.350 . S
C1254 C1251 1.463 . S
C1254 N1258 1.427 . S
C1255 H1245 0.929 . S
C1255 C1253 1.433 . S
C1255 N1258 1.384 . S
C1256 H1247 0.929 . S
C1256 C1248 1.378 . S
C1256 C1251 1.350 . S
C1257 H1244 0.929 . S
C1257 C1249 1.433 . S
C1257 N1259 1.384 . S
N1258 C1254 1.427 . S
N1258 C1255 1.384 . S
N1259 C1251 1.427 . S
N1259 C1257 1.384 . S
H1260 C1266 0.930 . S
H1261 C1270 0.930 . S
H1262 C1275 0.929 . S
H1263 C1273 0.929 . S
H1264 C1268 0.929 . S
H1265 C1274 0.929 . S
C1266 H1260 0.930 . S
C1266 C1267 1.367 . S
C1266 C1274 1.378 . S
C1267 C1266 1.367 . S
C1267 C1275 1.433 . S
C1268 H1264 0.929 . S
C1268 C1270 1.378 . S
C1268 C1272 1.350 . S
C1269 C1272 1.463 . S
C1269 C1274 1.350 . S
C1269 N1277 1.427 . S
C1270 H1261 0.930 . S
C1270 C1268 1.378 . S
C1270 C1271 1.367 . S
C1271 C1270 1.367 . S
C1271 C1273 1.433 . S
C1272 C1268 1.350 . S
C1272 C1269 1.463 . S
C1272 N1276 1.427 . S
C1273 H1263 0.929 . S
C1273 C1271 1.433 . S
C1273 N1276 1.384 . S
C1274 H1265 0.929 . S
C1274 C1266 1.378 . S
C1274 C1269 1.350 . S
C1275 H1262 0.929 . S
C1275 C1267 1.433 . S
C1275 N1277 1.384 . S
N1276 C1272 1.427 . S
N1276 C1273 1.384 . S
N1277 C1269 1.427 . S
N1277 C1275 1.384 . S
H1278 C1284 0.930 . S
H1279 C1288 0.930 . S
H1280 C1293 0.929 . S
H1281 C1291 0.929 . S
H1282 C1286 0.929 . S
H1283 C1292 0.929 . S
C1284 H1278 0.930 . S
C1284 C1285 1.367 . S
C1284 C1292 1.378 . S
C1285 C1284 1.367 . S
C1285 C1293 1.433 . S
C1286 H1282 0.929 . S
C1286 C1288 1.378 . S
C1286 C1290 1.350 . S
C1287 C1290 1.463 . S
C1287 C1292 1.350 . S
C1287 N1295 1.427 . S
C1288 H1279 0.930 . S
C1288 C1286 1.378 . S
C1288 C1289 1.367 . S
C1289 C1288 1.367 . S
C1289 C1291 1.433 . S
C1290 C1286 1.350 . S
C1290 C1287 1.463 . S
C1290 N1294 1.427 . S
C1291 H1281 0.929 . S
C1291 C1289 1.433 . S
C1291 N1294 1.384 . S
C1292 H1283 0.929 . S
C1292 C1284 1.378 . S
C1292 C1287 1.350 . S
C1293 H1280 0.929 . S
C1293 C1285 1.433 . S
C1293 N1295 1.384 . S
N1294 C1290 1.427 . S
N1294 C1291 1.384 . S
N1295 C1287 1.427 . S
N1295 C1293 1.384 . S
H1296 C1302 0.930 . S
H1297 C1306 0.930 . S
H1298 C1311 0.929 . S
H1299 C1309 0.929 . S
H1300 C1304 0.929 . S
H1301 C1310 0.929 . S
C1302 H1296 0.930 . S
C1302 C1303 1.367 . S
C1302 C1310 1.378 . S
C1303 C1302 1.367 . S
C1303 C1311 1.433 . S
C1304 H1300 0.929 . S
C1304 C1306 1.378 . S
C1304 C1308 1.350 . S
C1305 C1308 1.463 . S
C1305 C1310 1.350 . S
C1305 N1313 1.427 . S
C1306 H1297 0.930 . S
C1306 C1304 1.378 . S
C1306 C1307 1.367 . S
C1307 C1306 1.367 . S
C1307 C1309 1.433 . S
C1308 C1304 1.350 . S
C1308 C1305 1.463 . S
C1308 N1312 1.427 . S
C1309 H1299 0.929 . S
C1309 C1307 1.433 . S
C1309 N1312 1.384 . S
C1310 H1301 0.929 . S
C1310 C1302 1.378 . S
C1310 C1305 1.350 . S
C1311 H1298 0.929 . S
C1311 C1303 1.433 . S
C1311 N1313 1.384 . S
N1312 C1308 1.427 . S
N1312 C1309 1.384 . S
N1313 C1305 1.427 . S
N1313 C1311 1.384 . S
H1314 C1320 0.930 . S
H1315 C1324 0.930 . S
H1316 C1329 0.929 . S
H1317 C1327 0.929 . S
H1318 C1322 0.929 . S
H1319 C1328 0.929 . S
C1320 H1314 0.930 . S
C1320 C1321 1.367 . S
C1320 C1328 1.378 . S
C1321 C1320 1.367 . S
C1321 C1329 1.433 . S
C1322 H1318 0.929 . S
C1322 C1324 1.378 . S
C1322 C1326 1.350 . S
C1323 C1326 1.463 . S
C1323 C1328 1.350 . S
C1323 N1331 1.427 . S
C1324 H1315 0.930 . S
C1324 C1322 1.378 . S
C1324 C1325 1.367 . S
C1325 C1324 1.367 . S
C1325 C1327 1.433 . S
C1326 C1322 1.350 . S
C1326 C1323 1.463 . S
C1326 N1330 1.427 . S
C1327 H1317 0.929 . S
C1327 C1325 1.433 . S
C1327 N1330 1.384 . S
C1328 H1319 0.929 . S
C1328 C1320 1.378 . S
C1328 C1323 1.350 . S
C1329 H1316 0.929 . S
C1329 C1321 1.433 . S
C1329 N1331 1.384 . S
N1330 C1326 1.427 . S
N1330 C1327 1.384 . S
N1331 C1323 1.427 . S
N1331 C1329 1.384 . S
H1332 C1338 0.930 . S
H1333 C1342 0.930 . S
H1334 C1347 0.929 . S
H1335 C1345 0.929 . S
H1336 C1340 0.929 . S
H1337 C1346 0.929 . S
C1338 H1332 0.930 . S
C1338 C1339 1.367 . S
C1338 C1346 1.378 . S
C1339 C1338 1.367 . S
C1339 C1347 1.433 . S
C1340 H1336 0.929 . S
C1340 C1342 1.378 . S
C1340 C1344 1.350 . S
C1341 C1344 1.463 . S
C1341 C1346 1.350 . S
C1341 N1349 1.427 . S
C1342 H1333 0.930 . S
C1342 C1340 1.378 . S
C1342 C1343 1.367 . S
C1343 C1342 1.367 . S
C1343 C1345 1.433 . S
C1344 C1340 1.350 . S
C1344 C1341 1.463 . S
C1344 N1348 1.427 . S
C1345 H1335 0.929 . S
C1345 C1343 1.433 . S
C1345 N1348 1.384 . S
C1346 H1337 0.929 . S
C1346 C1338 1.378 . S
C1346 C1341 1.350 . S
C1347 H1334 0.929 . S
C1347 C1339 1.433 . S
C1347 N1349 1.384 . S
N1348 C1344 1.427 . S
N1348 C1345 1.384 . S
N1349 C1341 1.427 . S
N1349 C1347 1.384 . S
H1350 C1356 0.930 . S
H1351 C1360 0.930 . S
H1352 C1365 0.929 . S
H1353 C1363 0.929 . S
H1354 C1358 0.929 . S
H1355 C1364 0.929 . S
C1356 H1350 0.930 . S
C1356 C1357 1.367 . S
C1356 C1364 1.378 . S
C1357 C1356 1.367 . S
C1357 C1365 1.433 . S
C1358 H1354 0.929 . S
C1358 C1360 1.378 . S
C1358 C1362 1.350 . S
C1359 C1362 1.463 . S
C1359 C1364 1.350 . S
C1359 N1367 1.427 . S
C1360 H1351 0.930 . S
C1360 C1358 1.378 . S
C1360 C1361 1.367 . S
C1361 C1360 1.367 . S
C1361 C1363 1.433 . S
C1362 C1358 1.350 . S
C1362 C1359 1.463 . S
C1362 N1366 1.427 . S
C1363 H1353 0.929 . S
C1363 C1361 1.433 . S
C1363 N1366 1.384 . S
C1364 H1355 0.929 . S
C1364 C1356 1.378 . S
C1364 C1359 1.350 . S
C1365 H1352 0.929 . S
C1365 C1357 1.433 . S
C1365 N1367 1.384 . S
N1366 C1362 1.427 . S
N1366 C1363 1.384 . S
N1367 C1359 1.427 . S
N1367 C1365 1.384 . S
H1368 C1374 0.930 . S
H1369 C1378 0.930 . S
H1370 C1383 0.929 . S
H1371 C1381 0.929 . S
H1372 C1376 0.929 . S
H1373 C1382 0.929 . S
C1374 H1368 0.930 . S
C1374 C1375 1.367 . S
C1374 C1382 1.378 . S
C1375 C1374 1.367 . S
C1375 C1383 1.433 . S
C1376 H1372 0.929 . S
C1376 C1378 1.378 . S
C1376 C1380 1.350 . S
C1377 C1380 1.463 . S
C1377 C1382 1.350 . S
C1377 N1385 1.427 . S
C1378 H1369 0.930 . S
C1378 C1376 1.378 . S
C1378 C1379 1.367 . S
C1379 C1378 1.367 . S
C1379 C1381 1.433 . S
C1380 C1376 1.350 . S
C1380 C1377 1.463 . S
C1380 N1384 1.427 . S
C1381 H1371 0.929 . S
C1381 C1379 1.433 . S
C1381 N1384 1.384 . S
C1382 H1373 0.929 . S
C1382 C1374 1.378 . S
C1382 C1377 1.350 . S
C1383 H1370 0.929 . S
C1383 C1375 1.433 . S
C1383 N1385 1.384 . S
N1384 C1380 1.427 . S
N1384 C1381 1.384 . S
N1385 C1377 1.427 . S
N1385 C1383 1.384 . S
H1386 C1392 0.927 . S
H1387 C1396 0.929 . S
H1388 C1401 0.929 . S
H1389 C1399 0.929 . S
H1390 C1394 0.929 . S
H1391 C1400 0.929 . S
C1392 H1386 0.927 . S
C1392 C1393 1.371 1_565 S
C1392 C1400 1.376 . S
C1393 C1392 1.371 1_545 S
C1393 C1401 1.433 . S
C1394 H1390 0.929 . S
C1394 C1396 1.377 . S
C1394 C1398 1.350 1_545 S
C1395 C1398 1.463 1_545 S
C1395 C1400 1.350 1_545 S
C1395 N1403 1.427 . S
C1396 H1387 0.929 . S
C1396 C1394 1.377 . S
C1396 C1397 1.368 1_545 S
C1397 C1396 1.368 1_565 S
C1397 C1399 1.433 . S
C1398 C1394 1.350 1_565 S
C1398 C1395 1.463 1_565 S
C1398 N1402 1.427 . S
C1399 H1389 0.929 . S
C1399 C1397 1.433 . S
C1399 N1402 1.384 . S
C1400 H1391 0.929 . S
C1400 C1392 1.376 . S
C1400 C1395 1.350 1_565 S
C1401 H1388 0.929 . S
C1401 C1393 1.433 . S
C1401 N1403 1.384 . S
N1402 C1398 1.427 . S
N1402 C1399 1.384 . S
N1403 C1395 1.427 . S
N1403 C1401 1.384 . S
H1404 C1410 0.930 . S
H1405 C1414 0.930 . S
H1406 C1419 0.929 . S
H1407 C1417 0.929 . S
H1408 C1412 0.929 . S
H1409 C1418 0.929 . S
C1410 H1404 0.930 . S
C1410 C1411 1.367 . S
C1410 C1418 1.378 . S
C1411 C1410 1.367 . S
C1411 C1419 1.433 1_455 S
C1412 H1408 0.929 . S
C1412 C1414 1.378 . S
C1412 C1416 1.350 . S
C1413 C1416 1.463 1_455 S
C1413 C1418 1.350 . S
C1413 N1421 1.427 1_455 S
C1414 H1405 0.930 . S
C1414 C1412 1.378 . S
C1414 C1415 1.367 . S
C1415 C1414 1.367 . S
C1415 C1417 1.433 1_655 S
C1416 C1412 1.350 . S
C1416 C1413 1.463 1_655 S
C1416 N1420 1.427 1_655 S
C1417 H1407 0.929 . S
C1417 C1415 1.433 1_455 S
C1417 N1420 1.384 . S
C1418 H1409 0.929 . S
C1418 C1410 1.378 . S
C1418 C1413 1.350 . S
C1419 H1406 0.929 . S
C1419 C1411 1.433 1_655 S
C1419 N1421 1.384 . S
N1420 C1416 1.427 1_455 S
N1420 C1417 1.384 . S
N1421 C1413 1.427 1_655 S
N1421 C1419 1.384 . S
H1422 C1428 0.930 . S
H1423 C1432 0.930 . S
H1424 C1437 0.929 . S
H1425 C1435 0.929 . S
H1426 C1430 0.929 . S
H1427 C1436 0.929 . S
C1428 H1422 0.930 . S
C1428 C1429 1.367 . S
C1428 C1436 1.378 . S
C1429 C1428 1.367 . S
C1429 C1437 1.433 . S
C1430 H1426 0.929 . S
C1430 C1432 1.378 . S
C1430 C1434 1.350 . S
C1431 C1434 1.463 . S
C1431 C1436 1.350 . S
C1431 N1439 1.427 . S
C1432 H1423 0.930 . S
C1432 C1430 1.378 . S
C1432 C1433 1.367 . S
C1433 C1432 1.367 . S
C1433 C1435 1.433 . S
C1434 C1430 1.350 . S
C1434 C1431 1.463 . S
C1434 N1438 1.427 . S
C1435 H1425 0.929 . S
C1435 C1433 1.433 . S
C1435 N1438 1.384 . S
C1436 H1427 0.929 . S
C1436 C1428 1.378 . S
C1436 C1431 1.350 . S
C1437 H1424 0.929 . S
C1437 C1429 1.433 . S
C1437 N1439 1.384 . S
N1438 C1434 1.427 . S
N1438 C1435 1.384 . S
N1439 C1431 1.427 . S
N1439 C1437 1.384 . S
H1440 C1446 0.930 . S
H1441 C1450 0.930 . S
H1442 C1455 0.929 . S
H1443 C1453 0.929 . S
H1444 C1448 0.929 . S
H1445 C1454 0.929 . S
C1446 H1440 0.930 . S
C1446 C1447 1.367 . S
C1446 C1454 1.378 . S
C1447 C1446 1.367 . S
C1447 C1455 1.433 . S
C1448 H1444 0.929 . S
C1448 C1450 1.378 . S
C1448 C1452 1.350 . S
C1449 C1452 1.463 1_565 S
C1449 C1454 1.350 . S
C1449 N1457 1.407 . S
C1450 H1441 0.930 . S
C1450 C1448 1.378 . S
C1450 C1451 1.367 . S
C1451 C1450 1.367 . S
C1451 C1453 1.433 . S
C1452 C1448 1.350 . S
C1452 C1449 1.463 1_545 S
C1452 N1456 1.408 . S
C1453 H1443 0.929 . S
C1453 C1451 1.433 . S
C1453 N1456 1.408 . S
C1454 H1445 0.929 . S
C1454 C1446 1.378 . S
C1454 C1449 1.350 . S
C1455 H1442 0.929 . S
C1455 C1447 1.433 . S
C1455 N1457 1.409 . S
N1456 C1452 1.408 . S
N1456 C1453 1.408 . S
N1457 C1449 1.407 . S
N1457 C1455 1.409 . S
H1458 C1464 0.930 . S
H1459 C1468 0.930 . S
H1460 C1473 0.929 . S
H1461 C1471 0.929 . S
H1462 C1466 0.929 . S
H1463 C1472 0.929 . S
C1464 H1458 0.930 . S
C1464 C1465 1.367 . S
C1464 C1472 1.378 . S
C1465 C1464 1.367 . S
C1465 C1473 1.433 . S
C1466 H1462 0.929 . S
C1466 C1468 1.378 . S
C1466 C1470 1.350 . S
C1467 C1470 1.463 1_455 S
C1467 C1472 1.350 . S
C1467 N1475 1.417 . S
C1468 H1459 0.930 . S
C1468 C1466 1.378 . S
C1468 C1469 1.367 . S
C1469 C1468 1.367 . S
C1469 C1471 1.433 . S
C1470 C1466 1.350 . S
C1470 C1467 1.463 1_655 S
C1470 N1474 1.419 . S
C1471 H1461 0.929 . S
C1471 C1469 1.433 . S
C1471 N1474 1.394 . S
C1472 H1463 0.929 . S
C1472 C1464 1.378 . S
C1472 C1467 1.350 . S
C1473 H1460 0.929 . S
C1473 C1465 1.433 . S
C1473 N1475 1.396 . S
N1474 C1470 1.419 . S
N1474 C1471 1.394 . S
N1475 C1467 1.417 . S
N1475 C1473 1.396 . S
H1476 C1482 0.930 . S
H1477 C1486 0.930 . S
H1478 C1491 0.929 . S
H1479 C1489 0.929 . S
H1480 C1484 0.929 . S
H1481 C1490 0.929 . S
C1482 H1476 0.930 . S
C1482 C1483 1.367 . S
C1482 C1490 1.378 . S
C1483 C1482 1.367 . S
C1483 C1491 1.433 . S
C1484 H1480 0.929 . S
C1484 C1486 1.378 . S
C1484 C1488 1.350 . S
C1485 C1488 1.463 . S
C1485 C1490 1.350 . S
C1485 N1493 1.427 . S
C1486 H1477 0.930 . S
C1486 C1484 1.378 . S
C1486 C1487 1.367 . S
C1487 C1486 1.367 . S
C1487 C1489 1.433 . S
C1488 C1484 1.350 . S
C1488 C1485 1.463 . S
C1488 N1492 1.427 . S
C1489 H1479 0.929 . S
C1489 C1487 1.433 . S
C1489 N1492 1.384 . S
C1490 H1481 0.929 . S
C1490 C1482 1.378 . S
C1490 C1485 1.350 . S
C1491 H1478 0.929 . S
C1491 C1483 1.433 . S
C1491 N1493 1.384 . S
N1492 C1488 1.427 . S
N1492 C1489 1.384 . S
N1493 C1485 1.427 . S
N1493 C1491 1.384 . S
H1494 C1500 0.930 . S
H1495 C1504 0.930 . S
H1496 C1509 0.929 . S
H1497 C1507 0.929 . S
H1498 C1502 0.929 . S
H1499 C1508 0.929 . S
C1500 H1494 0.930 . S
C1500 C1501 1.367 . S
C1500 C1508 1.378 . S
C1501 C1500 1.367 . S
C1501 C1509 1.433 . S
C1502 H1498 0.929 . S
C1502 C1504 1.378 . S
C1502 C1506 1.350 . S
C1503 C1506 1.463 . S
C1503 C1508 1.350 . S
C1503 N1511 1.427 . S
C1504 H1495 0.930 . S
C1504 C1502 1.378 . S
C1504 C1505 1.367 . S
C1505 C1504 1.367 . S
C1505 C1507 1.433 . S
C1506 C1502 1.350 . S
C1506 C1503 1.463 . S
C1506 N1510 1.427 . S
C1507 H1497 0.929 . S
C1507 C1505 1.433 . S
C1507 N1510 1.384 . S
C1508 H1499 0.929 . S
C1508 C1500 1.378 . S
C1508 C1503 1.350 . S
C1509 H1496 0.929 . S
C1509 C1501 1.433 . S
C1509 N1511 1.384 . S
N1510 C1506 1.427 . S
N1510 C1507 1.384 . S
N1511 C1503 1.427 . S
N1511 C1509 1.384 . S
H1512 C1518 0.930 . S
H1513 C1522 0.930 . S
H1514 C1527 0.929 . S
H1515 C1525 0.929 . S
H1516 C1520 0.929 . S
H1517 C1526 0.929 . S
C1518 H1512 0.930 . S
C1518 C1519 1.367 . S
C1518 C1526 1.378 . S
C1519 C1518 1.367 . S
C1519 C1527 1.433 . S
C1520 H1516 0.929 . S
C1520 C1522 1.378 . S
C1520 C1524 1.350 . S
C1521 C1524 1.463 . S
C1521 C1526 1.350 . S
C1521 N1529 1.427 . S
C1522 H1513 0.930 . S
C1522 C1520 1.378 . S
C1522 C1523 1.367 . S
C1523 C1522 1.367 . S
C1523 C1525 1.433 . S
C1524 C1520 1.350 . S
C1524 C1521 1.463 . S
C1524 N1528 1.427 . S
C1525 H1515 0.929 . S
C1525 C1523 1.433 . S
C1525 N1528 1.384 . S
C1526 H1517 0.929 . S
C1526 C1518 1.378 . S
C1526 C1521 1.350 . S
C1527 H1514 0.929 . S
C1527 C1519 1.433 . S
C1527 N1529 1.384 . S
N1528 C1524 1.427 . S
N1528 C1525 1.384 . S
N1529 C1521 1.427 . S
N1529 C1527 1.384 . S
H1530 C1536 0.930 . S
H1531 C1540 0.930 . S
H1532 C1545 0.929 . S
H1533 C1543 0.929 . S
H1534 C1538 0.929 . S
H1535 C1544 0.929 . S
C1536 H1530 0.930 . S
C1536 C1537 1.367 . S
C1536 C1544 1.378 . S
C1537 C1536 1.367 . S
C1537 C1545 1.433 . S
C1538 H1534 0.929 . S
C1538 C1540 1.378 . S
C1538 C1542 1.350 . S
C1539 C1542 1.463 . S
C1539 C1544 1.350 . S
C1539 N1547 1.427 . S
C1540 H1531 0.930 . S
C1540 C1538 1.378 . S
C1540 C1541 1.367 . S
C1541 C1540 1.367 . S
C1541 C1543 1.433 . S
C1542 C1538 1.350 . S
C1542 C1539 1.463 . S
C1542 N1546 1.427 . S
C1543 H1533 0.929 . S
C1543 C1541 1.433 . S
C1543 N1546 1.384 . S
C1544 H1535 0.929 . S
C1544 C1536 1.378 . S
C1544 C1539 1.350 . S
C1545 H1532 0.929 . S
C1545 C1537 1.433 . S
C1545 N1547 1.384 . S
N1546 C1542 1.427 . S
N1546 C1543 1.384 . S
N1547 C1539 1.427 . S
N1547 C1545 1.384 . S
H1548 C1554 0.930 . S
H1549 C1558 0.930 . S
H1550 C1563 0.929 . S
H1551 C1561 0.929 . S
H1552 C1556 0.929 . S
H1553 C1562 0.929 . S
C1554 H1548 0.930 . S
C1554 C1555 1.367 . S
C1554 C1562 1.378 . S
C1555 C1554 1.367 . S
C1555 C1563 1.433 . S
C1556 H1552 0.929 . S
C1556 C1558 1.378 . S
C1556 C1560 1.350 . S
C1557 C1560 1.463 . S
C1557 C1562 1.350 . S
C1557 N1565 1.427 . S
C1558 H1549 0.930 . S
C1558 C1556 1.378 . S
C1558 C1559 1.367 . S
C1559 C1558 1.367 . S
C1559 C1561 1.433 . S
C1560 C1556 1.350 . S
C1560 C1557 1.463 . S
C1560 N1564 1.427 . S
C1561 H1551 0.929 . S
C1561 C1559 1.433 . S
C1561 N1564 1.384 . S
C1562 H1553 0.929 . S
C1562 C1554 1.378 . S
C1562 C1557 1.350 . S
C1563 H1550 0.929 . S
C1563 C1555 1.433 . S
C1563 N1565 1.384 . S
N1564 C1560 1.427 . S
N1564 C1561 1.384 . S
N1565 C1557 1.427 . S
N1565 C1563 1.384 . S
H1566 C1572 0.930 . S
H1567 C1576 0.930 . S
H1568 C1581 0.929 . S
H1569 C1579 0.929 . S
H1570 C1574 0.929 . S
H1571 C1580 0.929 . S
C1572 H1566 0.930 . S
C1572 C1573 1.367 . S
C1572 C1580 1.378 . S
C1573 C1572 1.367 . S
C1573 C1581 1.433 . S
C1574 H1570 0.929 . S
C1574 C1576 1.378 . S
C1574 C1578 1.350 . S
C1575 C1578 1.463 . S
C1575 C1580 1.350 . S
C1575 N1583 1.427 . S
C1576 H1567 0.930 . S
C1576 C1574 1.378 . S
C1576 C1577 1.367 . S
C1577 C1576 1.367 . S
C1577 C1579 1.433 . S
C1578 C1574 1.350 . S
C1578 C1575 1.463 . S
C1578 N1582 1.427 . S
C1579 H1569 0.929 . S
C1579 C1577 1.433 . S
C1579 N1582 1.384 . S
C1580 H1571 0.929 . S
C1580 C1572 1.378 . S
C1580 C1575 1.350 . S
C1581 H1568 0.929 . S
C1581 C1573 1.433 . S
C1581 N1583 1.384 . S
N1582 C1578 1.427 . S
N1582 C1579 1.384 . S
N1583 C1575 1.427 . S
N1583 C1581 1.384 . S
H1584 C1590 0.930 . S
H1585 C1594 0.930 . S
H1586 C1599 0.929 . S
H1587 C1597 0.929 . S
H1588 C1592 0.929 . S
H1589 C1598 0.929 . S
C1590 H1584 0.930 . S
C1590 C1591 1.367 . S
C1590 C1598 1.378 . S
C1591 C1590 1.367 . S
C1591 C1599 1.433 . S
C1592 H1588 0.929 . S
C1592 C1594 1.378 . S
C1592 C1596 1.350 . S
C1593 C1596 1.463 . S
C1593 C1598 1.350 . S
C1593 N1601 1.427 . S
C1594 H1585 0.930 . S
C1594 C1592 1.378 . S
C1594 C1595 1.367 . S
C1595 C1594 1.367 . S
C1595 C1597 1.433 . S
C1596 C1592 1.350 . S
C1596 C1593 1.463 . S
C1596 N1600 1.427 . S
C1597 H1587 0.929 . S
C1597 C1595 1.433 . S
C1597 N1600 1.384 . S
C1598 H1589 0.929 . S
C1598 C1590 1.378 . S
C1598 C1593 1.350 . S
C1599 H1586 0.929 . S
C1599 C1591 1.433 . S
C1599 N1601 1.384 . S
N1600 C1596 1.427 . S
N1600 C1597 1.384 . S
N1601 C1593 1.427 . S
N1601 C1599 1.384 . S
H1602 C1608 0.930 . S
H1603 C1612 0.930 . S
H1604 C1617 0.929 . S
H1605 C1615 0.929 . S
H1606 C1610 0.929 . S
H1607 C1616 0.929 . S
C1608 H1602 0.930 . S
C1608 C1609 1.367 . S
C1608 C1616 1.378 . S
C1609 C1608 1.367 . S
C1609 C1617 1.433 . S
C1610 H1606 0.929 . S
C1610 C1612 1.378 . S
C1610 C1614 1.350 . S
C1611 C1614 1.463 . S
C1611 C1616 1.350 . S
C1611 N1619 1.427 . S
C1612 H1603 0.930 . S
C1612 C1610 1.378 . S
C1612 C1613 1.367 . S
C1613 C1612 1.367 . S
C1613 C1615 1.433 . S
C1614 C1610 1.350 . S
C1614 C1611 1.463 . S
C1614 N1618 1.427 . S
C1615 H1605 0.929 . S
C1615 C1613 1.433 . S
C1615 N1618 1.384 . S
C1616 H1607 0.929 . S
C1616 C1608 1.378 . S
C1616 C1611 1.350 . S
C1617 H1604 0.929 . S
C1617 C1609 1.433 . S
C1617 N1619 1.384 . S
N1618 C1614 1.427 . S
N1618 C1615 1.384 . S
N1619 C1611 1.427 . S
N1619 C1617 1.384 . S
H1620 C1626 0.930 . S
H1621 C1630 0.930 . S
H1622 C1635 0.929 . S
H1623 C1633 0.929 . S
H1624 C1628 0.929 . S
H1625 C1634 0.929 . S
C1626 H1620 0.930 . S
C1626 C1627 1.367 . S
C1626 C1634 1.378 . S
C1627 C1626 1.367 . S
C1627 C1635 1.433 . S
C1628 H1624 0.929 . S
C1628 C1630 1.378 . S
C1628 C1632 1.350 . S
C1629 C1632 1.463 . S
C1629 C1634 1.350 . S
C1629 N1637 1.427 . S
C1630 H1621 0.930 . S
C1630 C1628 1.378 . S
C1630 C1631 1.367 . S
C1631 C1630 1.367 . S
C1631 C1633 1.433 . S
C1632 C1628 1.350 . S
C1632 C1629 1.463 . S
C1632 N1636 1.427 . S
C1633 H1623 0.929 . S
C1633 C1631 1.433 . S
C1633 N1636 1.384 . S
C1634 H1625 0.929 . S
C1634 C1626 1.378 . S
C1634 C1629 1.350 . S
C1635 H1622 0.929 . S
C1635 C1627 1.433 . S
C1635 N1637 1.384 . S
N1636 C1632 1.427 . S
N1636 C1633 1.384 . S
N1637 C1629 1.427 . S
N1637 C1635 1.384 . S
H1638 C1644 0.930 . S
H1639 C1648 0.930 . S
H1640 C1653 0.929 . S
H1641 C1651 0.929 . S
H1642 C1646 0.929 . S
H1643 C1652 0.929 . S
C1644 H1638 0.930 . S
C1644 C1645 1.367 . S
C1644 C1652 1.378 . S
C1645 C1644 1.367 . S
C1645 C1653 1.433 . S
C1646 H1642 0.929 . S
C1646 C1648 1.378 . S
C1646 C1650 1.350 . S
C1647 C1650 1.463 . S
C1647 C1652 1.350 . S
C1647 N1655 1.427 . S
C1648 H1639 0.930 . S
C1648 C1646 1.378 . S
C1648 C1649 1.367 . S
C1649 C1648 1.367 . S
C1649 C1651 1.433 . S
C1650 C1646 1.350 . S
C1650 C1647 1.463 . S
C1650 N1654 1.427 . S
C1651 H1641 0.929 . S
C1651 C1649 1.433 . S
C1651 N1654 1.384 . S
C1652 H1643 0.929 . S
C1652 C1644 1.378 . S
C1652 C1647 1.350 . S
C1653 H1640 0.929 . S
C1653 C1645 1.433 . S
C1653 N1655 1.384 . S
N1654 C1650 1.427 . S
N1654 C1651 1.384 . S
N1655 C1647 1.427 . S
N1655 C1653 1.384 . S
H1656 C1662 0.930 . S
H1657 C1666 0.930 . S
H1658 C1671 0.929 . S
H1659 C1669 0.929 . S
H1660 C1664 0.929 . S
H1661 C1670 0.929 . S
C1662 H1656 0.930 . S
C1662 C1663 1.367 . S
C1662 C1670 1.378 . S
C1663 C1662 1.367 . S
C1663 C1671 1.433 . S
C1664 H1660 0.929 . S
C1664 C1666 1.378 . S
C1664 C1668 1.350 . S
C1665 C1668 1.463 . S
C1665 C1670 1.350 . S
C1665 N1673 1.427 . S
C1666 H1657 0.930 . S
C1666 C1664 1.378 . S
C1666 C1667 1.367 . S
C1667 C1666 1.367 . S
C1667 C1669 1.433 . S
C1668 C1664 1.350 . S
C1668 C1665 1.463 . S
C1668 N1672 1.427 . S
C1669 H1659 0.929 . S
C1669 C1667 1.433 . S
C1669 N1672 1.384 . S
C1670 H1661 0.929 . S
C1670 C1662 1.378 . S
C1670 C1665 1.350 . S
C1671 H1658 0.929 . S
C1671 C1663 1.433 . S
C1671 N1673 1.384 . S
N1672 C1668 1.427 . S
N1672 C1669 1.384 . S
N1673 C1665 1.427 . S
N1673 C1671 1.384 . S
H1674 C1680 0.930 . S
H1675 C1684 0.930 . S
H1676 C1689 0.929 . S
H1677 C1687 0.929 . S
H1678 C1682 0.929 . S
H1679 C1688 0.929 . S
C1680 H1674 0.930 . S
C1680 C1681 1.367 . S
C1680 C1688 1.378 . S
C1681 C1680 1.367 . S
C1681 C1689 1.433 . S
C1682 H1678 0.929 . S
C1682 C1684 1.378 . S
C1682 C1686 1.350 . S
C1683 C1686 1.463 . S
C1683 C1688 1.350 . S
C1683 N1691 1.427 . S
C1684 H1675 0.930 . S
C1684 C1682 1.378 . S
C1684 C1685 1.367 . S
C1685 C1684 1.367 . S
C1685 C1687 1.433 . S
C1686 C1682 1.350 . S
C1686 C1683 1.463 . S
C1686 N1690 1.427 . S
C1687 H1677 0.929 . S
C1687 C1685 1.433 . S
C1687 N1690 1.384 . S
C1688 H1679 0.929 . S
C1688 C1680 1.378 . S
C1688 C1683 1.350 . S
C1689 H1676 0.929 . S
C1689 C1681 1.433 . S
C1689 N1691 1.384 . S
N1690 C1686 1.427 . S
N1690 C1687 1.384 . S
N1691 C1683 1.427 . S
N1691 C1689 1.384 . S
H1692 C1698 0.930 . S
H1693 C1702 0.930 . S
H1694 C1707 0.929 . S
H1695 C1705 0.929 . S
H1696 C1700 0.929 . S
H1697 C1706 0.929 . S
C1698 H1692 0.930 . S
C1698 C1699 1.367 . S
C1698 C1706 1.378 . S
C1699 C1698 1.367 . S
C1699 C1707 1.433 . S
C1700 H1696 0.929 . S
C1700 C1702 1.378 . S
C1700 C1704 1.350 . S
C1701 C1704 1.463 1_455 S
C1701 C1706 1.350 . S
C1701 N1709 1.427 . S
C1702 H1693 0.930 . S
C1702 C1700 1.378 . S
C1702 C1703 1.367 . S
C1703 C1702 1.367 . S
C1703 C1705 1.433 . S
C1704 C1700 1.350 . S
C1704 C1701 1.463 1_655 S
C1704 N1708 1.427 . S
C1705 H1695 0.929 . S
C1705 C1703 1.433 . S
C1705 N1708 1.384 . S
C1706 H1697 0.929 . S
C1706 C1698 1.378 . S
C1706 C1701 1.350 . S
C1707 H1694 0.929 . S
C1707 C1699 1.433 . S
C1707 N1709 1.384 . S
N1708 C1704 1.427 . S
N1708 C1705 1.384 . S
N1709 C1701 1.427 . S
N1709 C1707 1.384 . S
H1710 C1716 0.930 . S
H1711 C1720 0.930 . S
H1712 C1725 0.929 . S
H1713 C1723 0.929 . S
H1714 C1718 0.929 . S
H1715 C1724 0.929 . S
C1716 H1710 0.930 . S
C1716 C1717 1.367 . S
C1716 C1724 1.378 . S
C1717 C1716 1.367 . S
C1717 C1725 1.433 . S
C1718 H1714 0.929 . S
C1718 C1720 1.378 . S
C1718 C1722 1.350 . S
C1719 C1722 1.463 . S
C1719 C1724 1.350 . S
C1719 N1727 1.427 . S
C1720 H1711 0.930 . S
C1720 C1718 1.378 . S
C1720 C1721 1.367 . S
C1721 C1720 1.367 . S
C1721 C1723 1.433 . S
C1722 C1718 1.350 . S
C1722 C1719 1.463 . S
C1722 N1726 1.427 . S
C1723 H1713 0.929 . S
C1723 C1721 1.433 . S
C1723 N1726 1.384 . S
C1724 H1715 0.929 . S
C1724 C1716 1.378 . S
C1724 C1719 1.350 . S
C1725 H1712 0.929 . S
C1725 C1717 1.433 . S
C1725 N1727 1.384 . S
N1726 C1722 1.427 . S
N1726 C1723 1.384 . S
N1727 C1719 1.427 . S
N1727 C1725 1.384 . S
H1728 C1734 0.930 . S
H1729 C1738 0.930 . S
H1730 C1743 0.929 . S
H1731 C1741 0.929 . S
H1732 C1736 0.929 . S
H1733 C1742 0.929 . S
C1734 H1728 0.930 . S
C1734 C1735 1.367 . S
C1734 C1742 1.378 1_545 S
C1735 C1734 1.367 . S
C1735 C1743 1.433 . S
C1736 H1732 0.929 . S
C1736 C1738 1.378 1_545 S
C1736 C1740 1.350 1_545 S
C1737 C1740 1.463 1_545 S
C1737 C1742 1.350 1_545 S
C1737 N1745 1.427 . S
C1738 H1729 0.930 . S
C1738 C1736 1.378 1_565 S
C1738 C1739 1.367 . S
C1739 C1738 1.367 . S
C1739 C1741 1.433 . S
C1740 C1736 1.350 1_565 S
C1740 C1737 1.463 1_565 S
C1740 N1744 1.427 . S
C1741 H1731 0.929 . S
C1741 C1739 1.433 . S
C1741 N1744 1.384 . S
C1742 H1733 0.929 . S
C1742 C1734 1.378 1_565 S
C1742 C1737 1.350 1_565 S
C1743 H1730 0.929 . S
C1743 C1735 1.433 . S
C1743 N1745 1.384 . S
N1744 C1740 1.427 . S
N1744 C1741 1.384 . S
N1745 C1737 1.427 . S
N1745 C1743 1.384 . S
H1746 C1752 0.930 . S
H1747 C1756 0.930 . S
H1748 C1761 0.929 . S
H1749 C1759 0.929 . S
H1750 C1754 0.929 . S
H1751 C1760 0.929 . S
C1752 H1746 0.930 . S
C1752 C1753 1.367 . S
C1752 C1760 1.378 . S
C1753 C1752 1.367 . S
C1753 C1761 1.433 . S
C1754 H1750 0.929 . S
C1754 C1756 1.378 . S
C1754 C1758 1.350 . S
C1755 C1758 1.463 1_565 S
C1755 C1760 1.350 . S
C1755 N1763 1.427 . S
C1756 H1747 0.930 . S
C1756 C1754 1.378 . S
C1756 C1757 1.367 . S
C1757 C1756 1.367 . S
C1757 C1759 1.433 . S
C1758 C1754 1.350 . S
C1758 C1755 1.463 1_545 S
C1758 N1762 1.427 . S
C1759 H1749 0.929 . S
C1759 C1757 1.433 . S
C1759 N1762 1.384 . S
C1760 H1751 0.929 . S
C1760 C1752 1.378 . S
C1760 C1755 1.350 . S
C1761 H1748 0.929 . S
C1761 C1753 1.433 . S
C1761 N1763 1.384 . S
N1762 C1758 1.427 . S
N1762 C1759 1.384 . S
N1763 C1755 1.427 . S
N1763 C1761 1.384 . S
H1764 C1770 0.930 . S
H1765 C1774 0.930 . S
H1766 C1779 0.929 . S
H1767 C1777 0.929 . S
H1768 C1772 0.924 . S
H1769 C1778 0.936 1_455 S
C1770 H1764 0.930 . S
C1770 C1771 1.367 . S
C1770 C1778 1.378 . S
C1771 C1770 1.367 . S
C1771 C1779 1.433 . S
C1772 H1768 0.924 . S
C1772 C1774 1.378 . S
C1772 C1776 1.350 . S
C1773 C1776 1.463 1_655 S
C1773 C1778 1.350 . S
C1773 N1781 1.427 . S
C1774 H1765 0.930 . S
C1774 C1772 1.378 . S
C1774 C1775 1.367 . S
C1775 C1774 1.367 . S
C1775 C1777 1.433 . S
C1776 C1772 1.350 . S
C1776 C1773 1.463 1_455 S
C1776 N1780 1.427 . S
C1777 H1767 0.929 . S
C1777 C1775 1.433 . S
C1777 N1780 1.384 . S
C1778 H1769 0.936 1_655 S
C1778 C1770 1.378 . S
C1778 C1773 1.350 . S
C1779 H1766 0.929 . S
C1779 C1771 1.433 . S
C1779 N1781 1.384 . S
N1780 C1776 1.427 . S
N1780 C1777 1.384 . S
N1781 C1773 1.427 . S
N1781 C1779 1.384 . S
H1782 C1788 0.930 . S
H1783 C1792 0.930 . S
H1784 C1797 0.929 . S
H1785 C1795 0.929 . S
H1786 C1790 0.929 . S
H1787 C1796 0.929 . S
C1788 H1782 0.930 . S
C1788 C1789 1.367 . S
C1788 C1796 1.378 . S
C1789 C1788 1.367 . S
C1789 C1797 1.433 . S
C1790 H1786 0.929 . S
C1790 C1792 1.378 . S
C1790 C1794 1.350 . S
C1791 C1794 1.463 . S
C1791 C1796 1.350 . S
C1791 N1799 1.427 . S
C1792 H1783 0.930 . S
C1792 C1790 1.378 . S
C1792 C1793 1.367 . S
C1793 C1792 1.367 . S
C1793 C1795 1.433 . S
C1794 C1790 1.350 . S
C1794 C1791 1.463 . S
C1794 N1798 1.427 . S
C1795 H1785 0.929 . S
C1795 C1793 1.433 . S
C1795 N1798 1.384 . S
C1796 H1787 0.929 . S
C1796 C1788 1.378 . S
C1796 C1791 1.350 . S
C1797 H1784 0.929 . S
C1797 C1789 1.433 . S
C1797 N1799 1.384 . S
N1798 C1794 1.427 . S
N1798 C1795 1.384 . S
N1799 C1791 1.427 . S
N1799 C1797 1.384 . S
C511 C65 0.956 . S
C515 C9 0.974 1_556 S
C529 C79 0.972 . S
C533 C23 0.957 . S
C547 C51 0.959 . S
C551 C37 0.971 . S
C565 C149 0.975 . S
C569 C93 0.955 1_554 S
C583 C107 0.959 . S
C587 C163 0.970 . S
C601 C135 0.959 1_556 S
C605 C121 0.972 1_554 S
C619 C177 0.962 . S
C623 C233 0.971 . S
C637 C247 0.956 . S
C641 C191 0.977 . S
C655 C205 0.969 . S
C659 C219 0.967 . S
C673 C261 0.977 . S
C677 C317 0.957 . S
C691 C331 0.962 . S
C695 C275 0.973 . S
C709 C289 0.962 . S
C713 C303 0.974 . S
C727 C401 0.961 . S
C731 C345 0.972 . S
C745 C359 0.966 . S
C749 C415 0.967 . S
C763 C387 0.959 . S
C767 C373 0.974 . S
C781 C485 0.963 . S
C785 C429 0.972 . S
C799 C443 0.977 . S
C803 C499 0.957 . S
C817 C457 0.968 . S
C821 C471 0.968 . S
C835 C160 1.381 . S
C839 C6 1.390 . S
C853 C20 1.384 . S
C857 C132 1.386 . S
C871 C146 1.386 . S
C875 C34 1.385 . S
C889 C104 1.388 . S
C893 C48 1.382 . S
C907 C62 1.383 . S
C911 C118 1.388 . S
C925 C90 1.384 . S
C929 C76 1.387 . S
C943 C174 1.391 . S
C947 C328 1.384 . S
C961 C300 1.389 . S
C965 C188 1.387 . S
C979 C314 1.391 . S
C983 C202 1.385 . S
C997 C216 1.383 . S
C1001 C272 1.388 . S
C1015 C230 1.387 . S
C1019 C286 1.385 . S
C1033 C244 1.389 . S
C1037 C258 1.382 . S
C1051 C496 1.381 . S
C1055 C342 1.391 . S
C1069 C356 1.384 . S
C1073 C468 1.389 . S
C1087 C370 1.390 . S
C1091 C482 1.381 . S
C1105 C440 1.387 . S
C1109 C384 1.389 . S
C1123 C454 1.391 . S
C1127 C398 1.385 . S
C1141 C426 1.393 . S
C1145 C412 1.383 . S
C1159 C217 1.383 . S
C1163 C7 1.389 . S
C1177 C231 1.384 . S
C1181 C21 1.385 . S
C1195 C35 1.383 . S
C1199 C245 1.388 . S
C1213 C49 1.393 . S
C1217 C343 1.379 . S
C1231 C63 1.390 . S
C1235 C357 1.383 . S
C1249 C77 1.387 . S
C1253 C371 1.385 . S
C1267 C91 1.392 . S
C1271 C469 1.380 . S
C1285 C105 1.388 . S
C1289 C483 1.381 . S
C1303 C119 1.384 . S
C1307 C497 1.385 . S
C1321 C133 1.390 . S
C1325 C259 1.384 . S
C1339 C273 1.383 . S
C1343 C147 1.389 . S
C1357 C287 1.385 . S
C1361 C161 1.384 . S
C1375 C385 1.409 . S
C1379 C175 1.402 . S
C1393 C189 1.401 . S
C1397 C399 1.406 . S
C1411 C413 1.403 . S
C1415 C203 1.406 . S
C1429 C301 1.402 . S
C1433 C427 1.407 . S
C1447 C441 1.400 . S
C1451 C315 1.409 . S
C1465 C455 1.409 . S
C1469 C329 1.400 . S
C1483 C8 1.636 . S
C1487 C414 1.634 . S
C1501 C22 1.648 . S
C1505 C386 1.651 . S
C1519 C36 1.640 . S
C1523 C400 1.637 . S
C1537 C50 1.637 . S
C1541 C190 1.635 . S
C1555 C204 1.633 . S
C1559 C64 1.633 . S
C1573 C176 1.644 . S
C1577 C78 1.652 . S
C1591 C330 1.629 . S
C1595 C92 1.639 . S
C1609 C302 1.646 . S
C1613 C106 1.653 . S
C1627 C316 1.632 . S
C1631 C120 1.643 . S
C1645 C442 1.633 . S
C1649 C134 1.644 . S
C1663 C456 1.629 . S
C1667 C148 1.632 . S
C1681 C428 1.648 . S
C1685 C162 1.648 . S
C1699 C218 1.626 . S
C1703 C358 1.619 . S
C1717 C372 1.616 . S
C1721 C232 1.622 . S
C1735 C344 1.612 . S
C1739 C246 1.612 . S
C1753 C260 1.629 . S
C1757 C498 1.623 . S
C1771 C470 1.616 . S
C1775 C274 1.623 . S
C1789 C288 1.623 . S
C1793 C484 1.616 . S
