# Generated by pormake.
# Topology wjs, (5)-cn, num edge types: 1
# Building blocks:
#     Node 0, Type 0, BuildingBlock: XOMCOT_clean_sbu_1, # of connection points: 5
#     Node 1, Type 0, BuildingBlock: XOMCOT_clean_sbu_1, # of connection points: 5
#     Node 2, Type 0, BuildingBlock: XOMCOT_clean_sbu_1, # of connection points: 5
#     Node 3, Type 0, BuildingBlock: XOMCOT_clean_sbu_1, # of connection points: 5
#     Node 4, Type 0, BuildingBlock: XOMCOT_clean_sbu_1, # of connection points: 5
#     Node 5, Type 0, BuildingBlock: XOMCOT_clean_sbu_1, # of connection points: 5
#     Node 6, Type 0, BuildingBlock: XOMCOT_clean_sbu_1, # of connection points: 5
#     Node 7, Type 0, BuildingBlock: XOMCOT_clean_sbu_1, # of connection points: 5
#     Node 8, Type 0, BuildingBlock: XOMCOT_clean_sbu_1, # of connection points: 5
#     Node 9, Type 0, BuildingBlock: XOMCOT_clean_sbu_1, # of connection points: 5
#     Node 10, Type 0, BuildingBlock: XOMCOT_clean_sbu_1, # of connection points: 5
#     Node 11, Type 0, BuildingBlock: XOMCOT_clean_sbu_1, # of connection points: 5
#     Edge 12, Type (0, 0), BuildingBlock: EZIPEK_clean_linker_0, # of connection points: 2
#     Edge 13, Type (0, 0), BuildingBlock: EZIPEK_clean_linker_0, # of connection points: 2
#     Edge 14, Type (0, 0), BuildingBlock: EZIPEK_clean_linker_0, # of connection points: 2
#     Edge 15, Type (0, 0), BuildingBlock: EZIPEK_clean_linker_0, # of connection points: 2
#     Edge 16, Type (0, 0), BuildingBlock: EZIPEK_clean_linker_0, # of connection points: 2
#     Edge 17, Type (0, 0), BuildingBlock: EZIPEK_clean_linker_0, # of connection points: 2
#     Edge 18, Type (0, 0), BuildingBlock: EZIPEK_clean_linker_0, # of connection points: 2
#     Edge 19, Type (0, 0), BuildingBlock: EZIPEK_clean_linker_0, # of connection points: 2
#     Edge 20, Type (0, 0), BuildingBlock: EZIPEK_clean_linker_0, # of connection points: 2
#     Edge 21, Type (0, 0), BuildingBlock: EZIPEK_clean_linker_0, # of connection points: 2
#     Edge 22, Type (0, 0), BuildingBlock: EZIPEK_clean_linker_0, # of connection points: 2
#     Edge 23, Type (0, 0), BuildingBlock: EZIPEK_clean_linker_0, # of connection points: 2
#     Edge 24, Type (0, 0), BuildingBlock: EZIPEK_clean_linker_0, # of connection points: 2
#     Edge 25, Type (0, 0), BuildingBlock: EZIPEK_clean_linker_0, # of connection points: 2
#     Edge 26, Type (0, 0), BuildingBlock: EZIPEK_clean_linker_0, # of connection points: 2
#     Edge 27, Type (0, 0), BuildingBlock: EZIPEK_clean_linker_0, # of connection points: 2
#     Edge 28, Type (0, 0), BuildingBlock: EZIPEK_clean_linker_0, # of connection points: 2
#     Edge 29, Type (0, 0), BuildingBlock: EZIPEK_clean_linker_0, # of connection points: 2
#     Edge 30, Type (0, 0), BuildingBlock: EZIPEK_clean_linker_0, # of connection points: 2
#     Edge 31, Type (0, 0), BuildingBlock: EZIPEK_clean_linker_0, # of connection points: 2
#     Edge 32, Type (0, 0), BuildingBlock: EZIPEK_clean_linker_0, # of connection points: 2
#     Edge 33, Type (0, 0), BuildingBlock: EZIPEK_clean_linker_0, # of connection points: 2
#     Edge 34, Type (0, 0), BuildingBlock: EZIPEK_clean_linker_0, # of connection points: 2
#     Edge 35, Type (0, 0), BuildingBlock: EZIPEK_clean_linker_0, # of connection points: 2
#     Edge 36, Type (0, 0), BuildingBlock: EZIPEK_clean_linker_0, # of connection points: 2
#     Edge 37, Type (0, 0), BuildingBlock: EZIPEK_clean_linker_0, # of connection points: 2
#     Edge 38, Type (0, 0), BuildingBlock: EZIPEK_clean_linker_0, # of connection points: 2
#     Edge 39, Type (0, 0), BuildingBlock: EZIPEK_clean_linker_0, # of connection points: 2
#     Edge 40, Type (0, 0), BuildingBlock: EZIPEK_clean_linker_0, # of connection points: 2
#     Edge 41, Type (0, 0), BuildingBlock: EZIPEK_clean_linker_0, # of connection points: 2
# Relax obj value: 0.374
# Max RMSD: 0.270
# Mean RMSD: 0.270
data_MOF--net-wjs--node1-XOMCOT_clean_sbu_1--edge1-EZIPEK_clean_linker_0
_symmetry_space_group_name_H-M    P1
_symmetry_Int_Tables_number       1
_symmetry_cell_setting            triclinic
loop_
_symmetry_equiv_pos_as_xyz
'x, y, z'
_cell_length_a     23.929329
_cell_length_b     23.863085
_cell_length_c     48.384993
_cell_angle_alpha  90.216909
_cell_angle_beta   89.652487
_cell_angle_gamma 120.01241
loop_
_atom_site_label
_atom_site_type_symbol
_atom_site_fract_x
_atom_site_fract_y
_atom_site_fract_z
_atom_type_partial_charge
C0 C 0.31233 0.38618 0.06668 0.0
C1 C 0.32492 0.34269 0.07959 0.0
N2 N 0.29644 0.28756 0.06492 0.0
N3 N 0.27656 0.35844 0.04391 0.0
C4 C 0.26787 0.29818 0.04332 0.0
H5 H 0.32432 0.43317 0.07468 0.0
Co6 Co 0.23842 0.39402 0.02283 0.0
C7 C 0.18238 0.28254 0.98062 0.0
O8 O 0.12243 0.25193 0.98954 0.0
N9 N 0.1997 0.43144 1.00225 0.0
C10 C 0.17863 0.50679 0.98722 0.0
C11 C 0.22376 0.49574 0.99951 0.0
C12 C 0.1397 0.40426 0.99131 0.0
N13 N 0.12556 0.44936 0.98235 0.0
O14 O 0.15595 0.33403 0.04041 0.0
H15 H 0.26977 0.5327 1.00737 0.0
H16 H 0.10544 0.35294 0.99159 0.0
O17 O 0.22464 0.33387 0.99269 0.0
C18 C 0.14659 0.35271 0.06396 0.0
O19 O 0.18825 0.41169 0.0721 0.0
N20 N 0.32148 0.45357 1.00814 0.0
C21 C 0.45512 0.51342 1.003 0.0
C22 C 0.41509 0.47097 0.98253 0.0
C23 C 0.34817 0.44173 0.98535 0.0
C24 C 0.36006 0.50213 0.02592 0.0
C25 C 0.42742 0.53202 0.02406 0.0
H26 H 0.31898 0.40616 0.97018 0.0
H27 H 0.33859 0.51287 0.04339 0.0
H28 H 0.23737 0.26116 0.02872 0.0
H29 H 0.34926 0.34932 0.09914 0.0
H30 H 0.18298 0.55354 0.98352 0.0
H31 H 0.43524 0.45657 0.96568 0.0
H32 H 0.45716 0.56537 0.04003 0.0
C33 C 0.94336 0.30182 0.25021 0.0
C34 C 0.98719 0.30931 0.26994 0.0
N35 N 0.02373 0.28546 0.25994 0.0
N36 N 0.95124 0.27257 0.22787 0.0
C37 C 1.00111 0.26363 0.2342 0.0
H38 H 0.90476 0.3126 0.25269 0.0
Co39 Co 0.88637 0.24012 0.20185 0.0
C40 C 0.95099 0.255 0.14674 0.0
O41 O 0.91793 0.28148 0.13793 0.0
N42 N 0.81358 0.20493 0.17732 0.0
C43 C 0.73106 0.19477 0.15187 0.0
C44 C 0.79442 0.23502 0.15908 0.0
C45 C 0.75992 0.14582 0.18043 0.0
N46 N 0.70931 0.13898 0.16564 0.0
O47 O 0.86362 0.15402 0.21466 0.0
H48 H 0.82227 0.28501 0.15282 0.0
H49 H 0.75495 0.11013 0.19525 0.0
O50 O 0.94359 0.23503 0.17197 0.0
C51 C 0.83235 0.13507 0.23746 0.0
O52 O 0.80927 0.16989 0.2484 0.0
N53 N 0.91234 0.3272 0.19228 0.0
C54 C 0.96455 0.46156 0.19211 0.0
C55 C 1.00313 0.4343 0.1864 0.0
C56 C 0.97641 0.36765 0.18663 0.0
C57 C 0.87382 0.35284 0.19835 0.0
C58 C 0.89855 0.4201 0.19748 0.0
H59 H 0.009 0.34914 0.18448 0.0
H60 H 0.82439 0.32134 0.20483 0.0
H61 H 0.01723 0.23746 0.2212 0.0
H62 H 0.98992 0.32784 0.29065 0.0
H63 H 0.70182 0.20719 0.13912 0.0
H64 H 0.0545 0.46466 0.18274 0.0
H65 H 0.86738 0.43965 0.20225 0.0
C66 C 0.63853 0.92289 0.39935 0.0
C67 C 0.66917 0.97627 0.41617 0.0
N68 N 0.73143 0.00937 0.40843 0.0
N69 N 0.68142 0.9227 0.38113 0.0
C70 C 0.73795 0.97589 0.38736 0.0
H71 H 0.58869 0.88496 0.40111 0.0
Co72 Co 0.66318 0.8541 0.35761 0.0
C73 C 0.73045 0.91321 0.30465 0.0
O74 O 0.67616 0.87155 0.29256 0.0
N75 N 0.64462 0.78092 0.33534 0.0
C76 C 0.6688 0.71223 0.31411 0.0
C77 C 0.69028 0.77547 0.32076 0.0
C78 C 0.59683 0.71843 0.33864 0.0
N79 N 0.61056 0.67603 0.32572 0.0
O80 O 0.72252 0.83721 0.37805 0.0
H81 H 0.73964 0.81351 0.31789 0.0
H82 H 0.55631 0.70386 0.35255 0.0
O83 O 0.73297 0.91278 0.33123 0.0
C84 C 0.70432 0.81533 0.40251 0.0
O85 O 0.64813 0.80548 0.41138 0.0
N86 N 0.60176 0.87153 0.33976 0.0
C87 C 0.51955 0.92406 0.33874 0.0
C88 C 0.58108 0.95728 0.32699 0.0
C89 C 0.62215 0.93197 0.32898 0.0
C90 C 0.53884 0.83472 0.34801 0.0
C91 C 0.49712 0.86062 0.34823 0.0
H92 H 0.67233 0.96606 0.32549 0.0
H93 H 0.52335 0.78879 0.35803 0.0
H94 H 0.7836 0.98783 0.37788 0.0
H95 H 0.6483 0.98838 0.43348 0.0
H96 H 0.69677 0.69346 0.3042 0.0
H97 H 0.60059 0.00672 0.31997 0.0
H98 H 0.44995 0.83355 0.3578 0.0
C99 C 0.69208 0.61877 0.57853 0.0
C100 C 0.67784 0.65246 0.59749 0.0
N101 N 0.70256 0.71347 0.58827 0.0
N102 N 0.72604 0.6583 0.55751 0.0
C103 C 0.73091 0.71571 0.56372 0.0
H104 H 0.68346 0.57009 0.58112 0.0
Co105 Co 0.7713 0.63329 0.53471 0.0
C106 C 0.80741 0.74902 0.49536 0.0
O107 O 0.84491 0.79626 0.51212 0.0
N108 N 0.81884 0.60583 0.51335 0.0
C109 C 0.89483 0.60763 0.48584 0.0
C110 C 0.85458 0.63238 0.49024 0.0
C111 C 0.83894 0.5655 0.5227 0.0
N112 N 0.88526 0.56616 0.50639 0.0
O113 O 0.85042 0.69839 0.55183 0.0
H114 H 0.8564 0.6715 0.47846 0.0
H115 H 0.82362 0.54 0.54218 0.0
O116 O 0.77923 0.69139 0.50465 0.0
C117 C 0.86448 0.68129 0.57453 0.0
O118 O 0.82799 0.62118 0.58278 0.0
N119 N 0.69103 0.56889 0.51977 0.0
C120 C 0.55762 0.48416 0.51795 0.0
C121 C 0.58456 0.54627 0.50695 0.0
C122 C 0.6509 0.58808 0.50842 0.0
C123 C 0.66613 0.50644 0.52845 0.0
C124 C 0.5991 0.46306 0.52783 0.0
H125 H 0.66787 0.63796 0.50333 0.0
H126 H 0.69718 0.4921 0.53857 0.0
H127 H 0.75962 0.75958 0.55203 0.0
H128 H 0.65484 0.63485 0.6174 0.0
H129 H 0.93148 0.62225 0.46992 0.0
H130 H 0.55388 0.56444 0.49964 0.0
H131 H 0.57957 0.41543 0.53689 0.0
C132 C 0.0872 0.72316 0.74929 0.0
C133 C 0.04801 0.71759 0.77105 0.0
N134 N 0.0136 0.7459 0.76405 0.0
N135 N 0.07959 0.75667 0.72872 0.0
C136 C 0.03398 0.7697 0.7382 0.0
H137 H 0.12305 0.70821 0.74926 0.0
Co138 Co 0.14132 0.78796 0.70055 0.0
C139 C 0.06937 0.78225 0.64877 0.0
O140 O 0.09625 0.75261 0.63661 0.0
N141 N 0.21047 0.82134 0.67393 0.0
C142 C 0.2805 0.83732 0.63987 0.0
C143 C 0.22113 0.79498 0.65111 0.0
C144 C 0.26719 0.87785 0.67706 0.0
N145 N 0.31038 0.88908 0.65663 0.0
O146 O 0.17195 0.87547 0.71421 0.0
H147 H 0.19016 0.74624 0.64378 0.0
H148 H 0.27847 0.90945 0.6947 0.0
O149 O 0.08237 0.79936 0.67427 0.0
C150 C 0.19546 0.89159 0.73847 0.0
O151 O 0.20242 0.8495 0.75328 0.0
N152 N 0.1086 0.70013 0.68904 0.0
C153 C 0.04799 0.56455 0.6881 0.0
C154 C 0.01352 0.59596 0.68219 0.0
C155 C 0.04394 0.66308 0.6837 0.0
C156 C 0.14409 0.67054 0.69345 0.0
C157 C 0.11457 0.60249 0.69317 0.0
H158 H 0.01352 0.6843 0.68303 0.0
H159 H 0.19427 0.69939 0.69923 0.0
H160 H 0.01962 0.80003 0.72741 0.0
H161 H 0.04665 0.69645 0.79099 0.0
H162 H 0.302 0.82849 0.62184 0.0
H163 H 0.96186 0.56842 0.67887 0.0
H164 H 0.14257 0.57977 0.69837 0.0
C165 C 0.35555 0.10183 0.9087 0.0
C166 C 0.31925 0.04402 0.92206 0.0
N167 N 0.27404 1.00245 0.90447 0.0
N168 N 0.33282 0.09739 0.88291 0.0
C169 C 0.28438 0.03545 0.88054 0.0
H170 H 0.39506 0.1452 0.91749 0.0
Co171 Co 0.366 0.1699 0.86037 0.0
C172 C 0.25992 0.09134 0.81684 0.0
O173 O 0.20967 0.08391 0.83102 0.0
N174 N 0.40052 0.24601 0.83854 0.0
C175 C 0.41327 0.31651 0.8054 0.0
C176 C 0.38921 0.25241 0.81164 0.0
C177 C 0.43099 0.30768 0.84821 0.0
N178 N 0.43868 0.35103 0.82847 0.0
O179 O 0.29909 0.18726 0.87402 0.0
H180 H 0.36052 0.21364 0.7976 0.0
H181 H 0.44446 0.32039 0.86958 0.0
O182 O 0.31498 0.12033 0.82838 0.0
C183 C 0.31238 0.21755 0.89714 0.0
O184 O 0.36944 0.23794 0.90805 0.0
N185 N 0.43182 0.15168 0.84953 0.0
C186 C 0.51416 0.10015 0.85224 0.0
C187 C 0.45502 0.06672 0.83881 0.0
C188 C 0.41403 0.09218 0.83841 0.0
C189 C 0.49178 0.18764 0.86078 0.0
C190 C 0.53386 0.16245 0.86254 0.0
H191 H 0.36526 0.05967 0.83202 0.0
H192 H 0.50455 0.233 0.87087 0.0
H193 H 0.25563 0.01546 0.86215 0.0
H194 H 0.32429 0.03367 0.94338 0.0
H195 H 0.409 0.33606 0.78588 0.0
H196 H 0.43755 0.0179 0.8313 0.0
H197 H 0.57894 0.18912 0.8736 0.0
C198 C 0.72275 0.71974 0.84502 0.0
C199 C 0.76549 0.7062 0.83224 0.0
N200 N 0.82163 0.76169 0.82871 0.0
N201 N 0.74922 0.78421 0.84824 0.0
C202 C 0.81104 0.80824 0.8394 0.0
H203 H 0.67536 0.68376 0.85166 0.0
Co204 Co 0.7045 0.82664 0.8609 0.0
C205 C 0.82561 0.90518 0.89474 0.0
O206 O 0.8603 0.96506 0.90359 0.0
N207 N 0.66164 0.86961 0.87377 0.0
C208 C 0.63791 0.92893 0.90185 0.0
C209 C 0.66263 0.88802 0.90027 0.0
C210 C 0.63496 0.89933 0.85961 0.0
N211 N 0.62079 0.93627 0.87629 0.0
O212 O 0.72663 0.87866 0.82678 0.0
H213 H 0.68333 0.87566 0.91733 0.0
H214 H 0.62877 0.89649 0.83741 0.0
O215 O 0.78188 0.89474 0.87709 0.0
C216 C 0.74333 0.87583 0.80188 0.0
O217 O 0.74353 0.82407 0.79277 0.0
N218 N 0.62497 0.75709 0.84759 0.0
C219 C 0.54106 0.62653 0.8367 0.0
C220 C 0.55035 0.65003 0.86384 0.0
C221 C 0.59139 0.71607 0.86876 0.0
C222 C 0.60753 0.7372 0.82092 0.0
C223 C 0.56485 0.67163 0.815 0.0
H224 H 0.60271 0.73271 0.88985 0.0
H225 H 0.62982 0.76975 0.804 0.0
H226 H 0.8473 0.85886 0.84055 0.0
H227 H 0.75602 0.65853 0.82617 0.0
H228 H 0.63418 0.95287 0.92024 0.0
H229 H 0.53058 0.61705 0.88116 0.0
H230 H 0.55604 0.65546 0.7937 0.0
C231 C 0.04847 0.78609 1.00857 0.0
C232 C 0.10107 0.82411 0.99211 0.0
N233 N 0.08736 0.80162 0.96601 0.0
N234 N 1.00081 0.74097 0.99287 0.0
C235 C 0.02732 0.74985 0.96731 0.0
H236 H 0.04538 0.79114 0.03053 0.0
Co237 Co 0.91419 0.68234 1.00291 0.0
C238 C 0.91684 0.73597 0.05222 0.0
O239 O 0.90967 0.67932 0.05871 0.0
N240 N 0.82757 0.6245 1.01179 0.0
C241 C 0.73894 0.53815 0.02666 0.0
C242 C 0.80521 0.57066 0.02708 0.0
C243 C 0.77397 0.62395 1.00267 0.0
N244 N 0.71835 0.56927 1.00974 0.0
O245 O 0.88704 0.71597 0.97203 0.0
H246 H 0.83528 0.55602 0.03788 0.0
H247 H 0.77657 0.66451 0.99182 0.0
O248 O 0.91429 0.74758 0.02662 0.0
C249 C 0.88107 0.71656 0.94584 0.0
O250 O 0.89579 0.68143 0.92975 0.0
N251 N 0.91856 0.61654 0.98376 0.0
C252 C 0.94765 0.52103 0.96899 0.0
C253 C 0.97967 0.56349 0.9907 0.0
C254 C 0.96318 0.60918 0.99817 0.0
C255 C 0.88331 0.57343 0.96346 0.0
C256 C 0.89787 0.52512 0.95539 0.0
H257 H 0.98655 0.63957 1.0159 0.0
H258 H 0.84317 0.57491 0.95411 0.0
H259 H 1.00326 0.71846 0.95004 0.0
H260 H 0.14574 0.86583 0.99869 0.0
H261 H 0.70885 0.49539 0.03875 0.0
H262 H 0.01699 0.56075 1.0022 0.0
H263 H 0.87043 0.49118 0.93918 0.0
C264 C 0.28647 0.96921 0.10948 0.0
C265 C 0.29882 0.0198 0.09226 0.0
N266 N 0.27273 0.05288 0.10385 0.0
N267 N 0.25268 0.97072 0.13158 0.0
C268 C 0.24456 0.02184 0.12748 0.0
H269 H 0.30007 0.93282 0.10595 0.0
Co270 Co 0.21901 0.90803 0.15827 0.0
C271 C 0.1828 0.96596 0.20579 0.0
O272 O 0.13193 0.90942 0.21107 0.0
N273 N 0.18401 0.84095 0.18407 0.0
C274 C 0.16997 0.77094 0.21736 0.0
C275 C 0.20636 0.83445 0.20871 0.0
C276 C 0.13369 0.78165 0.17854 0.0
N277 N 0.1244 0.73805 0.1982 0.0
O278 O 0.13339 0.88633 0.14604 0.0
H279 H 0.24854 0.87233 0.21893 0.0
H280 H 0.10705 0.76887 0.15942 0.0
O281 O 0.21945 0.96967 0.18571 0.0
C282 C 0.11552 0.85686 0.12289 0.0
O283 O 0.15295 0.83871 0.11053 0.0
N284 N 0.30426 0.93089 0.16839 0.0
C285 C 0.43634 0.97454 0.17136 0.0
C286 C 0.41263 0.01627 0.17693 0.0
C287 C 0.34684 0.99376 0.17522 0.0
C288 C 0.32607 0.88856 0.16377 0.0
C289 C 0.39228 0.9093 0.16549 0.0
H290 H 0.33133 0.02875 0.17726 0.0
H291 H 0.29248 0.83942 0.1575 0.0
H292 H 0.21587 0.03425 0.1407 0.0
H293 H 0.32528 0.03191 0.07292 0.0
H294 H 0.17812 0.74988 0.23559 0.0
H295 H 0.44527 0.06702 0.18129 0.0
H296 H 0.40919 0.87575 0.16105 0.0
C297 C 0.32026 0.31472 0.33781 0.0
C298 C 0.27907 0.32971 0.32466 0.0
N299 N 0.22288 0.27478 0.32027 0.0
N300 N 0.29245 0.24999 0.34047 0.0
C301 C 0.2318 0.22731 0.33073 0.0
H302 H 0.36766 0.34975 0.34461 0.0
Co303 Co 0.33087 0.20115 0.35211 0.0
C304 C 0.25232 0.16633 0.39335 0.0
O305 O 0.30452 0.22089 0.39975 0.0
N306 N 0.36753 0.15147 0.36362 0.0
C307 C 0.39849 0.09697 0.39071 0.0
C308 C 0.37568 0.1396 0.39009 0.0
C309 C 0.38744 0.11666 0.34844 0.0
N310 N 0.40584 0.08251 0.36451 0.0
O311 O 0.30389 0.15016 0.31729 0.0
H312 H 0.36615 0.16082 0.40793 0.0
H313 H 0.38859 0.11624 0.32608 0.0
O314 O 0.25041 0.14104 0.36976 0.0
C315 C 0.2939 0.16103 0.29242 0.0
O316 O 0.30683 0.21925 0.28507 0.0
N317 N 0.41274 0.26673 0.33919 0.0
C318 C 0.49884 0.3982 0.33106 0.0
C319 C 0.48449 0.37209 0.3578 0.0
C320 C 0.44215 0.30587 0.36136 0.0
C321 C 0.43547 0.28859 0.31318 0.0
C322 C 0.47914 0.35478 0.30863 0.0
H323 H 0.42535 0.28786 0.38198 0.0
H324 H 0.41734 0.25689 0.29576 0.0
H325 H 0.19572 0.17663 0.3303 0.0
H326 H 0.28967 0.37783 0.31883 0.0
H327 H 0.41037 0.07907 0.40898 0.0
H328 H 0.50056 0.40335 0.37578 0.0
H329 H 0.49243 0.37262 0.28769 0.0
C330 C 0.03933 0.31211 0.46101 0.0
C331 C 0.98502 0.27728 0.44533 0.0
N332 N 0.94412 0.22395 0.45961 0.0
N333 N 0.0328 0.2807 0.48499 0.0
C334 C 0.97341 0.22787 0.48385 0.0
H335 H 0.08314 0.35458 0.45427 0.0
Co336 Co 0.103 0.30098 0.5073 0.0
C337 C 0.01809 0.18365 0.54291 0.0
O338 O 0.02339 0.14415 0.52559 0.0
N339 N 0.17669 0.32274 0.52816 0.0
C340 C 0.24892 0.31307 0.55344 0.0
C341 C 0.18418 0.29017 0.54927 0.0
C342 C 0.23767 0.36469 0.51965 0.0
N343 N 0.28235 0.3595 0.53466 0.0
O344 O 0.11012 0.23159 0.49051 0.0
H345 H 0.14571 0.24845 0.55941 0.0
H346 H 0.24888 0.39494 0.50151 0.0
O347 O 0.04655 0.24373 0.53682 0.0
C348 C 0.14054 0.24436 0.4676 0.0
O349 O 0.16624 0.30327 0.45761 0.0
N350 N 0.09594 0.37093 0.52193 0.0
C351 C 0.04728 0.45518 0.52308 0.0
C352 C 0.02577 0.4049 0.54218 0.0
C353 C 0.05073 0.36326 0.54132 0.0
C354 C 0.12364 0.42495 0.50573 0.0
C355 C 0.09948 0.46775 0.50576 0.0
H356 H 0.028 0.32176 0.5545 0.0
H357 H 0.15901 0.43057 0.49031 0.0
H358 H 0.95425 0.18956 0.49898 0.0
H359 H 0.97812 0.28753 0.42425 0.0
H360 H 0.2698 0.29436 0.56796 0.0
H361 H 0.98582 0.39433 0.55597 0.0
H362 H 0.11725 0.50653 0.49075 0.0
C363 C 0.66441 0.98393 0.65757 0.0
C364 C 0.65221 0.92851 0.64421 0.0
N365 N 0.7033 0.92023 0.64747 0.0
N366 N 0.72444 0.01336 0.66823 0.0
C367 C 0.74554 0.97122 0.66281 0.0
H368 H 0.6315 1.00173 0.65845 0.0
Co369 Co 0.77299 0.0986 0.68307 0.0
C370 C 0.85815 0.0571 0.71469 0.0
O371 O 0.91185 0.05608 0.71018 0.0
N372 N 0.82204 0.1818 0.69783 0.0
C373 C 0.88546 0.25795 0.72774 0.0
C374 C 0.84375 0.19283 0.72407 0.0
C375 C 0.84986 0.24127 0.6861 0.0
N376 N 0.88941 0.28837 0.70384 0.0
O377 O 0.82086 0.12699 0.64729 0.0
H378 H 0.83145 0.15553 0.73938 0.0
H379 H 0.84213 0.24998 0.66498 0.0
O380 O 0.83896 0.07959 0.69516 0.0
C381 C 0.80703 0.10942 0.6219 0.0
O382 O 0.74648 0.0738 0.61464 0.0
N383 N 0.70599 0.11689 0.67363 0.0
C384 C 0.57906 0.08183 0.66109 0.0
C385 C 0.59646 0.07751 0.68824 0.0
C386 C 0.66059 0.09642 0.69417 0.0
C387 C 0.69307 0.13521 0.64881 0.0
C388 C 0.62892 0.11674 0.64184 0.0
H389 H 0.67194 0.08703 0.71455 0.0
H390 H 0.73063 0.15935 0.63357 0.0
H391 H 0.79173 0.97827 0.66925 0.0
H392 H 0.60896 0.89665 0.63277 0.0
H393 H 0.9114 0.28131 0.74645 0.0
H394 H 0.55987 0.05338 0.70404 0.0
H395 H 0.61779 0.12421 0.621 0.0
C396 C 0.2281 0.17652 0.08219 0.0
C397 C 0.2892 0.22703 0.07352 0.0
C398 C 0.33972 0.16578 0.08864 0.0
C399 C 0.27782 0.11188 0.09397 0.0
N400 N 0.16175 0.06264 0.09201 0.0
N401 N 0.40106 0.26619 0.0636 0.0
C402 C 0.22147 0.11622 0.08967 0.0
C403 C 0.34444 0.22045 0.07523 0.0
N404 N 0.17724 0.18717 0.08458 0.0
N405 N 0.39376 0.16618 0.09785 0.0
H406 H 0.40473 0.30591 0.05306 0.0
H407 H 0.44184 0.26125 0.06206 0.0
H408 H 0.39179 0.1288 0.10968 0.0
H409 H 0.4398 0.20663 0.09653 0.0
H410 H 0.13333 0.15418 0.09364 0.0
H411 H 0.18076 0.23141 0.07995 0.0
H412 H 0.11955 0.06162 0.08594 0.0
H413 H 0.15461 0.01777 0.09795 0.0
C414 C 0.15266 0.32112 0.31188 0.0
C415 C 0.16681 0.27092 0.30704 0.0
C416 C 0.07488 0.22188 0.27537 0.0
C417 C 0.07237 0.28005 0.27533 0.0
N418 N 0.12391 0.39246 0.28917 0.0
N419 N 0.14653 0.17896 0.27814 0.0
C420 C 0.11566 0.33201 0.29235 0.0
C421 C 0.12924 0.22229 0.2872 0.0
N422 N 0.17289 0.35729 0.33543 0.0
N423 N 0.02482 0.16572 0.2654 0.0
H424 H 0.18901 0.18085 0.28388 0.0
H425 H 0.12241 0.14627 0.26218 0.0
H426 H 0.98161 0.16189 0.25894 0.0
H427 H 0.02332 0.12141 0.26705 0.0
H428 H 0.16014 0.3921 0.34026 0.0
H429 H 0.19486 0.34641 0.35147 0.0
H430 H 0.15829 0.43224 0.30032 0.0
H431 H 0.10266 0.40414 0.27312 0.0
C432 C 0.8378 0.1763 0.43701 0.0
C433 C 0.88795 0.16857 0.44846 0.0
C434 C 0.82658 0.05298 0.43833 0.0
C435 C 0.78239 0.06281 0.42294 0.0
N436 N 0.748 0.13435 0.40503 0.0
N437 N 0.93631 0.10105 0.45391 0.0
C438 C 0.78838 0.12473 0.4216 0.0
C439 C 0.88408 0.10722 0.44765 0.0
N440 N 0.83667 0.2322 0.44159 0.0
N441 N 0.8126 0.99171 0.44471 0.0
H442 H 0.98139 0.14018 0.45866 0.0
H443 H 0.93674 0.0579 0.45118 0.0
H444 H 0.76951 0.95099 0.43877 0.0
H445 H 0.84045 0.98212 0.45829 0.0
H446 H 0.79851 0.2387 0.43568 0.0
H447 H 0.87106 0.26964 0.45375 0.0
H448 H 0.7537 0.17985 0.40118 0.0
H449 H 0.71181 0.09713 0.39339 0.0
C450 C 0.64862 0.75851 0.61664 0.0
C451 C 0.70545 0.76619 0.604 0.0
C452 C 0.76533 0.87717 0.62155 0.0
C453 C 0.70896 0.86724 0.63599 0.0
N454 N 0.60639 0.78907 0.65558 0.0
N455 N 0.82213 0.82556 0.60281 0.0
C456 C 0.65358 0.8047 0.63621 0.0
C457 C 0.76529 0.82328 0.60899 0.0
N458 N 0.5896 0.7086 0.60921 0.0
N459 N 0.81775 0.93747 0.61842 0.0
H460 H 0.8245 0.78631 0.59479 0.0
H461 H 0.86691 0.86387 0.60869 0.0
H462 H 0.81999 0.97949 0.62563 0.0
H463 H 0.85692 0.94661 0.60584 0.0
H464 H 0.54651 0.70419 0.61655 0.0
H465 H 0.58371 0.67624 0.59342 0.0
H466 H 0.56698 0.74244 0.65767 0.0
H467 H 0.61118 0.82069 0.67156 0.0
C468 C 0.97 0.81311 0.78368 0.0
C469 C 0.96895 0.75333 0.78193 0.0
C470 C 0.8909 0.71429 0.81971 0.0
C471 C 0.8785 0.76595 0.81575 0.0
N472 N 0.90316 0.86122 0.78838 0.0
N473 N 0.91406 0.64036 0.79523 0.0
C474 C 0.91735 0.81506 0.7963 0.0
C475 C 0.92551 0.70182 0.7992 0.0
N476 N 0.02254 0.86856 0.77485 0.0
N477 N 0.87037 0.6777 0.84312 0.0
H478 H 0.93257 0.62745 0.77837 0.0
H479 H 0.87949 0.60121 0.80667 0.0
H480 H 0.84944 0.68922 0.85956 0.0
H481 H 0.88161 0.6416 0.8473 0.0
H482 H 0.02676 0.91391 0.77753 0.0
H483 H 0.06483 0.86935 0.76894 0.0
H484 H 0.92877 0.89447 0.77276 0.0
H485 H 0.8621 0.86187 0.79473 0.0
C486 C 0.15704 0.92189 0.91002 0.0
C487 C 0.22277 0.93861 0.91189 0.0
C488 C 0.19243 0.84574 0.94229 0.0
C489 C 0.12788 0.83254 0.94214 0.0
N490 N 0.0462 0.83713 0.91477 0.0
N491 N 0.29909 0.90392 0.92127 0.0
C492 C 0.10913 0.86347 0.92229 0.0
C493 C 0.23899 0.89583 0.92515 0.0
N494 N 0.14002 0.9633 0.89849 0.0
N495 N 0.209 0.8114 0.95954 0.0
H496 H 0.33251 0.93931 0.90796 0.0
H497 H 0.31336 0.87231 0.92892 0.0
H498 H 0.17434 0.77194 0.97085 0.0
H499 H 0.25643 0.8229 0.96313 0.0
H500 H 0.09333 0.95574 0.89939 0.0
H501 H 0.17242 0.00768 0.88989 0.0
H502 H 0.03121 0.85497 0.89853 0.0
H503 H 0.01028 0.79276 0.92205 0.0
C504 C 0.63516 0.59085 0.98763 0.0
C505 C 0.65125 0.55016 1.00299 0.0
C506 C 0.53733 0.48261 1.01579 0.0
C507 C 0.52356 0.52902 1.00439 0.0
N508 N 0.5601 0.62971 0.98037 0.0
N509 N 0.60635 0.43652 1.01204 0.0
C510 C 0.57281 0.58407 0.99066 0.0
C511 C 0.59933 0.48982 1.01188 0.0
N512 N 0.67397 0.62648 0.96636 0.0
N513 N 0.49145 0.43155 0.03061 0.0
H514 H 0.64695 0.43749 1.00346 0.0
H515 H 0.56842 0.39 1.01613 0.0
H516 H 0.4448 0.42345 0.03373 0.0
H517 H 0.50223 0.40103 0.04188 0.0
H518 H 0.66312 0.65403 0.95315 0.0
H519 H 0.70981 0.61778 0.95885 0.0
H520 H 0.59601 0.674 0.97261 0.0
H521 H 0.51454 0.62535 0.98168 0.0
C522 C 0.03165 0.56905 0.16947 0.0
C523 C 0.99607 0.53359 0.19298 0.0
C524 C 0.03707 0.6358 0.21846 0.0
C525 C 0.08091 0.66899 0.19659 0.0
N526 N 0.13008 0.6623 0.15392 0.0
N527 N 0.97371 0.53337 0.24188 0.0
C528 C 0.08079 0.63439 0.17268 0.0
C529 C 1.00066 0.56693 0.21807 0.0
N530 N 0.01874 0.54013 0.14408 0.0
N531 N 0.02907 0.67003 0.23922 0.0
H532 H 0.94829 0.48302 0.24287 0.0
H533 H 0.98165 0.55567 0.26115 0.0
H534 H 0.05351 0.72049 0.23956 0.0
H535 H 0.99351 0.64845 0.25441 0.0
H536 H 0.03992 0.56554 0.12593 0.0
H537 H 0.98184 0.49252 0.14095 0.0
H538 H 0.13477 0.63699 0.13731 0.0
H539 H 0.1704 0.70793 0.15687 0.0
C540 C 0.39772 0.98515 0.34114 0.0
C541 C 0.43396 0.04359 0.35622 0.0
C542 C 0.51865 0.0165 0.36357 0.0
C543 C 0.48647 0.96172 0.34587 0.0
N544 N 0.39904 0.89918 0.31448 0.0
N545 N 0.53575 0.12239 0.37546 0.0
C546 C 0.42685 0.9474 0.33368 0.0
C547 C 0.49649 0.06139 0.36552 0.0
N548 N 0.33483 0.96453 0.33491 0.0
N549 N 0.56919 0.02461 0.3794 0.0
H550 H 0.52189 0.15746 0.37596 0.0
H551 H 0.58419 0.14017 0.38019 0.0
H552 H 0.58547 0.99158 0.37943 0.0
H553 H 0.58997 0.06 0.39467 0.0
H554 H 0.30387 0.91935 0.32633 0.0
H555 H 0.31216 0.9906 0.34043 0.0
H556 H 0.35917 0.89083 0.3028 0.0
H557 H 0.41893 0.87067 0.30872 0.0
C558 C 0.39339 0.43849 0.54875 0.0
C559 C 0.35117 0.39071 0.52995 0.0
C560 C 0.44419 0.40196 0.5033 0.0
C561 C 0.48647 0.44715 0.52308 0.0
N562 N 0.50201 0.50205 0.56678 0.0
N563 N 0.33449 0.31955 0.49172 0.0
C564 C 0.46115 0.46342 0.5465 0.0
C565 C 0.3761 0.37042 0.50782 0.0
N566 N 0.36827 0.46139 0.56824 0.0
N567 N 0.46916 0.39054 0.47988 0.0
H568 H 0.28462 0.29621 0.49447 0.0
H569 H 0.34917 0.29759 0.477 0.0
H570 H 0.51868 0.41117 0.47645 0.0
H571 H 0.4412 0.36379 0.46318 0.0
H572 H 0.39614 0.50088 0.58095 0.0
H573 H 0.31879 0.44388 0.57016 0.0
H574 H 0.48647 0.51076 0.5856 0.0
H575 H 0.5519 0.52164 0.56577 0.0
C576 C 0.91884 0.40076 0.71531 0.0
C577 C 0.92882 0.35724 0.69894 0.0
C578 C 0.01753 0.44958 0.67458 0.0
C579 C 0.01119 0.49291 0.69281 0.0
N580 N 0.96571 0.5082 0.73494 0.0
N581 N 0.9963 0.34001 0.66702 0.0
C582 C 0.96476 0.46795 0.71453 0.0
C583 C 0.98058 0.38156 0.67961 0.0
N584 N 0.86401 0.37792 0.73091 0.0
N585 N 0.05714 0.47303 0.65201 0.0
H586 H 0.97138 0.29036 0.67083 0.0
H587 H 0.03741 0.35542 0.6548 0.0
H588 H 0.08505 0.52237 0.64778 0.0
H589 H 0.05839 0.44342 0.63643 0.0
H590 H 0.85091 0.40799 0.74128 0.0
H591 H 0.8283 0.32919 0.73106 0.0
H592 H 0.93683 0.49159 0.7526 0.0
H593 H 1.00008 0.55736 0.73571 0.0
C594 C 0.6296 0.03226 0.85185 0.0
C595 C 0.5946 0.97734 0.86913 0.0
C596 C 0.51692 0.01293 0.87965 0.0
C597 C 0.54711 0.06329 0.85984 0.0
N598 N 0.628 0.11676 0.82453 0.0
N599 N 0.49824 0.90848 0.89498 0.0
C600 C 0.60242 0.0719 0.84519 0.0
C601 C 0.53637 0.96588 0.88179 0.0
N602 N 0.68992 0.04813 0.84284 0.0
N603 N 0.47034 0.01077 0.89685 0.0
H604 H 0.51004 0.87194 0.8959 0.0
H605 H 0.4521 0.89449 0.90235 0.0
H606 H 0.45516 0.04482 0.89616 0.0
H607 H 0.45165 0.97925 0.91359 0.0
H608 H 0.72039 0.09089 0.83237 0.0
H609 H 0.7118 0.02124 0.84796 0.0
H610 H 0.6638 0.12045 0.81106 0.0
H611 H 0.61028 0.14758 0.81974 0.0
C612 C 0.53031 0.46245 0.82758 0.0
C613 C 0.46362 0.41971 0.83124 0.0
C614 C 0.44595 0.51217 0.83695 0.0
C615 C 0.51259 0.55531 0.83178 0.0
N616 N 0.61504 0.57001 0.81554 0.0
N617 N 0.35576 0.40206 0.83426 0.0
C618 C 0.55391 0.53004 0.82514 0.0
C619 C 0.42073 0.4441 0.83446 0.0
N620 N 0.57114 0.43802 0.8265 0.0
N621 N 0.40687 0.53628 0.84438 0.0
H622 H 0.33613 0.35206 0.83292 0.0
H623 H 0.32141 0.41663 0.83361 0.0
H624 H 0.4226 0.5857 0.84451 0.0
H625 H 0.3599 0.50762 0.85169 0.0
H626 H 0.62121 0.46668 0.82708 0.0
H627 H 0.55469 0.38847 0.82729 0.0
H628 H 0.64501 0.5535 0.80792 0.0
H629 H 0.63375 0.61913 0.8122 0.0
C630 C 0.9593 0.42922 0.98424 0.0
C631 C 0.96784 0.47261 0.96269 0.0
C632 C 0.0632 0.46835 0.9472 0.0
C633 C 0.06485 0.44175 0.9731 0.0
N634 N 0.01416 0.39811 1.01726 0.0
N635 N 0.0223 0.5268 0.92093 0.0
C636 C 0.01168 0.42024 0.99159 0.0
C637 C 0.01701 0.4884 0.94275 0.0
N638 N 0.90308 0.40163 0.99899 0.0
N639 N 0.10756 0.47631 0.9275 0.0
H640 H 0.98758 0.53999 0.91702 0.0
H641 H 0.06135 0.54669 0.90731 0.0
H642 H 0.14152 0.46174 0.93081 0.0
H643 H 0.10712 0.49172 0.90744 0.0
H644 H 0.89174 0.36628 1.014 0.0
H645 H 0.8656 0.41022 0.99399 0.0
H646 H 0.97953 0.38803 0.03252 0.0
H647 H 0.05348 0.39493 0.02424 0.0
C648 C 0.54087 0.01475 0.1448 0.0
C649 C 0.50773 1.00239 0.17053 0.0
C650 C 0.609 0.07768 0.19356 0.0
C651 C 0.64257 0.08854 0.16806 0.0
N652 N 0.64397 0.05603 0.12121 0.0
N653 N 0.51283 0.00754 0.22018 0.0
C654 C 0.60945 0.05304 0.14427 0.0
C655 C 0.54299 0.02875 0.1952 0.0
N656 N 0.50694 0.99351 0.12074 0.0
N657 N 0.63844 0.11732 0.21562 0.0
H658 H 0.46443 0.97151 0.22185 0.0
H659 H 0.53727 0.02074 0.23894 0.0
H660 H 0.68529 0.15651 0.21482 0.0
H661 H 0.61418 0.11554 0.23384 0.0
H662 H 0.52821 0.00761 0.10127 0.0
H663 H 0.45681 0.96527 0.12012 0.0
H664 H 0.62347 0.02683 0.10392 0.0
H665 H 0.69426 0.08353 0.12053 0.0
C666 C 0.61007 0.57887 0.34359 0.0
C667 C 0.57918 0.60647 0.32852 0.0
C668 C 0.49536 0.49781 0.31415 0.0
C669 C 0.52938 0.4703 0.32739 0.0
N670 N 0.62683 0.48752 0.34942 0.0
N671 N 0.49907 0.59442 0.29588 0.0
C672 C 0.58901 0.51182 0.34063 0.0
C673 C 0.52359 0.56645 0.31284 0.0
N674 N 0.65904 0.61694 0.36118 0.0
N675 N 0.43502 0.45892 0.30373 0.0
H676 H 0.51798 0.64439 0.29504 0.0
H677 H 0.46341 0.56874 0.28126 0.0
H678 H 0.41276 0.40883 0.30298 0.0
H679 H 0.40496 0.47624 0.29736 0.0
H680 H 0.67936 0.59878 0.37495 0.0
H681 H 0.67507 0.66606 0.36387 0.0
H682 H 0.67347 0.51633 0.3569 0.0
H683 H 0.61414 0.43922 0.34657 0.0
C684 C 0.91315 0.48205 0.49638 0.0
C685 C 0.92444 0.53723 0.51167 0.0
C686 C 0.01619 0.53893 0.53499 0.0
C687 C 0.0075 0.48614 0.51832 0.0
N688 N 0.95158 0.41004 0.48146 0.0
N689 N 0.98953 0.62348 0.54307 0.0
C690 C 0.95705 0.45847 0.49847 0.0
C691 C 0.97668 0.56703 0.53042 0.0
N692 N 0.85901 0.45137 0.48044 0.0
N693 N 0.06142 0.56128 0.55547 0.0
H694 H 0.96075 0.64437 0.54031 0.0
H695 H 0.03051 0.65175 0.55483 0.0
H696 H 0.09276 0.54342 0.55859 0.0
H697 H 0.06565 0.59478 0.57034 0.0
H698 H 0.84359 0.40711 0.4707 0.0
H699 H 0.82647 0.4682 0.47862 0.0
H700 H 0.92079 0.39279 0.46457 0.0
H701 H 0.9808 0.38933 0.4831 0.0
C702 C 0.4268 0.92608 0.64878 0.0
C703 C 0.37751 0.94069 0.65517 0.0
C704 C 0.46185 0.05469 0.66186 0.0
C705 C 0.50968 0.03994 0.65296 0.0
N706 N 0.53051 0.96553 0.62704 0.0
N707 N 0.34853 0.02361 0.66045 0.0
C708 C 0.48979 0.97707 0.64269 0.0
C709 C 0.39508 0.00656 0.65957 0.0
N710 N 0.41543 0.86419 0.65065 0.0
N711 N 0.48011 0.11427 0.67265 0.0
H712 H 0.29996 0.99045 0.65698 0.0
H713 H 0.35898 0.07151 0.66154 0.0
H714 H 0.52828 0.15123 0.6731 0.0
H715 H 0.44787 0.12554 0.68226 0.0
H716 H 0.45185 0.8527 0.64805 0.0
H717 H 0.37259 0.82636 0.65858 0.0
H718 H 0.51595 0.92074 0.61782 0.0
H719 H 0.57532 1.00247 0.62035 0.0
C720 C 0.22517 0.17987 0.93326 0.0
C721 C 0.26455 0.22713 0.91342 0.0
C722 C 0.23208 0.30166 0.93318 0.0
C723 C 0.20249 0.25905 0.95585 0.0
N724 N 0.17401 0.15818 0.97847 0.0
N725 N 0.30993 0.33541 0.89571 0.0
C726 C 0.19875 0.19768 0.95595 0.0
C727 C 0.26865 0.2885 0.91353 0.0
N728 N 0.21397 0.11813 0.93061 0.0
N729 N 0.22438 0.35433 0.93022 0.0
H730 H 0.33626 0.32681 0.88075 0.0
H731 H 0.32114 0.38352 0.89695 0.0
H732 H 0.19695 0.36462 0.94398 0.0
H733 H 0.23985 0.38406 0.91285 0.0
H734 H 0.18101 0.07961 0.94274 0.0
H735 H 0.23346 0.10447 0.91442 0.0
H736 H 0.17696 0.11649 0.98123 0.0
H737 H 0.15452 0.16933 0.99551 0.0
C738 C 0.11414 0.30815 0.11216 0.0
C739 C 0.09574 0.30816 0.08423 0.0
C740 C 0.98235 0.24182 0.09877 0.0
C741 C 1.00064 0.25668 0.12696 0.0
N742 N 0.08634 0.30116 0.16064 0.0
N743 N 0.01039 0.27038 0.05057 0.0
C744 C 0.06718 0.28776 0.13377 0.0
C745 C 0.02928 0.27236 0.07729 0.0
N746 N 0.17667 0.32619 0.11798 0.0
N747 N 0.91955 0.19821 0.09271 0.0
H748 H 0.04279 0.28974 0.03416 0.0
H749 H 0.96254 0.25248 0.04482 0.0
H750 H 0.88498 0.17449 0.10817 0.0
H751 H 0.90344 0.18069 0.07288 0.0
H752 H 0.19218 0.32117 0.13741 0.0
H753 H 0.2115 0.33909 0.10259 0.0
H754 H 0.13385 0.33277 0.16646 0.0
H755 H 0.05463 0.2822 0.17721 0.0
C756 C 0.82186 0.02918 0.29864 0.0
C757 C 0.78044 0.96751 0.28729 0.0
C758 C 0.79725 0.01535 0.24092 0.0
C759 C 0.82543 0.07788 0.25321 0.0
N760 N 0.87334 0.14531 0.29346 0.0
N761 N 0.76007 0.90084 0.2472 0.0
C762 C 0.84106 0.08504 0.28197 0.0
C763 C 0.77801 0.96029 0.25816 0.0
N764 N 0.84669 0.03395 0.32442 0.0
N765 N 0.78482 0.00771 0.21323 0.0
H766 H 0.7504 0.86137 0.2597 0.0
H767 H 0.76216 0.89235 0.22621 0.0
H768 H 0.80151 0.04613 0.19946 0.0
H769 H 0.75583 0.96298 0.20391 0.0
H770 H 0.88042 0.07738 0.33351 0.0
H771 H 0.84092 0.99347 0.33505 0.0
H772 H 0.87809 0.15387 0.31467 0.0
H773 H 0.89402 0.18722 0.28163 0.0
C774 C 0.80433 0.84017 0.42998 0.0
C775 C 0.74135 0.79503 0.42058 0.0
C776 C 0.74169 0.71292 0.45069 0.0
C777 C 0.79392 0.76214 0.46608 0.0
N778 N 0.88834 0.86885 0.46419 0.0
N779 N 0.65104 0.68568 0.42095 0.0
C780 C 0.82959 0.82478 0.45376 0.0
C781 C 0.7104 0.73066 0.43065 0.0
N782 N 0.84035 0.89685 0.41595 0.0
N783 N 0.72557 0.64958 0.45298 0.0
H784 H 0.62885 0.69408 0.40425 0.0
H785 H 0.62284 0.64077 0.43036 0.0
H786 H 0.75299 0.63468 0.46393 0.0
H787 H 0.69118 0.61298 0.44052 0.0
H788 H 0.8887 0.92939 0.41995 0.0
H789 H 0.82314 0.91004 0.39892 0.0
H790 H 0.91175 0.91808 0.4597 0.0
H791 H 0.91493 0.85539 0.47671 0.0
C792 C 0.90148 0.72613 0.62219 0.0
C793 C 0.91619 0.72807 0.59352 0.0
C794 C 0.03033 0.80107 0.60438 0.0
C795 C 0.01715 0.78428 0.63272 0.0
N796 N 0.93866 0.73842 0.66945 0.0
N797 N 0.99592 0.77203 0.55691 0.0
C798 C 0.95217 0.75044 0.64197 0.0
C799 C 0.9808 0.76841 0.58436 0.0
N800 N 0.83885 0.70183 0.63043 0.0
N801 N 0.09123 0.84738 0.59682 0.0
H802 H 0.96158 0.74981 0.54148 0.0
H803 H 0.0431 0.794 0.54946 0.0
H804 H 0.1276 0.87145 0.61143 0.0
H805 H 0.1037 0.8662 0.57691 0.0
H806 H 0.82514 0.70463 0.65062 0.0
H807 H 0.80094 0.68496 0.61643 0.0
H808 H 0.89328 0.70522 0.6772 0.0
H809 H 0.97347 0.7613 0.68457 0.0
C810 C 0.17876 0.98502 0.75298 0.0
C811 C 0.21953 0.95783 0.7501 0.0
C812 C 0.30044 0.04672 0.77811 0.0
C813 C 0.25176 0.05845 0.78898 0.0
N814 N 0.15179 0.05575 0.77906 0.0
N815 N 0.32485 0.9698 0.75686 0.0
C816 C 0.193 0.03298 0.7739 0.0
C817 C 0.28215 0.99099 0.76168 0.0
N818 N 0.12789 0.96649 0.73549 0.0
N819 N 0.36424 0.09132 0.78095 0.0
H820 H 0.31641 0.93367 0.74254 0.0
H821 H 0.36767 0.98694 0.76789 0.0
H822 H 0.38047 0.13629 0.78993 0.0
H823 H 0.40092 0.0872 0.77114 0.0
H824 H 0.09979 0.98849 0.73482 0.0
H825 H 0.11627 0.932 0.72005 0.0
H826 H 0.10445 0.03351 0.77201 0.0
H827 H 0.16598 0.09847 0.79002 0.0
C828 C 0.90052 0.87337 0.9173 0.0
C829 C 0.83787 0.85409 0.90689 0.0
C830 C 0.80694 0.74201 0.91845 0.0
C831 C 0.86517 0.76366 0.93321 0.0
N832 N 0.95984 0.85544 0.95289 0.0
N833 N 0.72574 0.76942 0.90762 0.0
C834 C 0.90921 0.8311 0.93496 0.0
C835 C 0.78921 0.78806 0.91011 0.0
N836 N 0.95295 0.93014 0.90911 0.0
N837 N 0.76783 0.67793 0.9127 0.0
H838 H 0.71033 0.8024 0.90451 0.0
H839 H 0.68892 0.72248 0.91194 0.0
H840 H 0.77841 0.64243 0.91883 0.0
H841 H 0.72736 0.66122 0.90008 0.0
H842 H 0.99945 0.94495 0.91596 0.0
H843 H 0.95159 0.95765 0.89271 0.0
H844 H 0.98932 0.90499 0.95627 0.0
H845 H 0.96928 0.82673 0.96596 0.0
C846 C 0.94006 0.77049 0.10159 0.0
C847 C 0.94827 0.78857 0.07333 0.0
C848 C 0.06004 0.86972 0.08139 0.0
C849 C 0.0556 0.84513 0.1086 0.0
N850 N 0.98743 0.78727 0.14745 0.0
N851 N 1.0015 0.87867 0.04242 0.0
C852 C 0.99388 0.8013 0.11988 0.0
C853 C 1.00316 0.84689 0.06546 0.0
N854 N 0.88158 0.72118 0.11013 0.0
N855 N 0.11871 0.91151 0.07001 0.0
H856 H 0.95888 0.86324 0.03139 0.0
H857 H 0.03964 0.92362 0.03646 0.0
H858 H 0.16166 0.9302 0.081 0.0
H859 H 0.12482 0.92479 0.04924 0.0
H860 H 0.8725 0.69995 0.12959 0.0
H861 H 0.84178 0.70114 0.09694 0.0
H862 H 0.94341 0.75809 0.15723 0.0
H863 H 0.02599 0.80873 0.16113 0.0
C864 C 0.26552 0.07864 0.22284 0.0
C865 C 0.20491 0.02135 0.22633 0.0
C866 C 0.2006 0.05622 0.27412 0.0
C867 C 0.26519 0.10821 0.27134 0.0
N868 N 0.36331 0.15974 0.24445 0.0
N869 N 0.10355 0.97605 0.25084 0.0
C870 C 0.29869 0.11667 0.2461 0.0
C871 C 0.1691 0.01518 0.2509 0.0
N872 N 0.28801 0.1015 0.19699 0.0
N873 N 0.16926 0.04578 0.29891 0.0
H874 H 0.07786 0.95487 0.23282 0.0
H875 H 0.07355 0.97254 0.2672 0.0
H876 H 0.18918 0.07594 0.31596 0.0
H877 H 0.12543 1.00444 0.30336 0.0
H878 H 0.32951 0.14581 0.19322 0.0
H879 H 0.25941 0.08157 0.17967 0.0
H880 H 0.39123 0.16309 0.22723 0.0
H881 H 0.39015 0.18618 0.26143 0.0
C882 C 0.18178 0.16655 0.46073 0.0
C883 C 0.14507 0.19416 0.45097 0.0
C884 C 0.14524 0.15265 0.40447 0.0
C885 C 0.19654 0.14363 0.41256 0.0
N886 N 0.25144 0.1226 0.44852 0.0
N887 N 0.08213 0.20419 0.41459 0.0
C888 C 0.20934 0.14263 0.44102 0.0
C889 C 0.12267 0.1831 0.4232 0.0
N890 N 0.19224 0.16568 0.48841 0.0
N891 N 0.11924 0.1327 0.37887 0.0
H892 H 0.06222 0.22337 0.42825 0.0
H893 H 0.06976 0.20441 0.39402 0.0
H894 H 0.13372 0.10698 0.36605 0.0
H895 H 0.07944 0.13494 0.37175 0.0
H896 H 0.21644 0.14407 0.49708 0.0
H897 H 0.1732 0.18348 0.50315 0.0
H898 H 0.26924 0.12605 0.46838 0.0
H899 H 0.2684 0.10192 0.43407 0.0
C900 C 0.85939 0.08042 0.58192 0.0
C901 C 0.86031 0.12691 0.60102 0.0
C902 C 0.97242 0.20262 0.58717 0.0
C903 C 0.96988 0.15891 0.56657 0.0
N904 N 0.92277 0.04537 0.55574 0.0
N905 N 0.9121 0.23911 0.61437 0.0
C906 C 0.91655 0.09473 0.56688 0.0
C907 C 0.91558 0.18967 0.60179 0.0
N908 N 0.80423 0.02276 0.57736 0.0
N909 N 0.03041 0.25422 0.59449 0.0
H910 H 0.86903 0.23323 0.62241 0.0
H911 H 0.9489 0.28725 0.61308 0.0
H912 H 0.0738 0.26213 0.58597 0.0
H913 H 0.03589 0.28416 0.61123 0.0
H914 H 0.79875 0.99343 0.56039 0.0
H915 H 0.76266 1.00436 0.58931 0.0
H916 H 0.88724 0.99682 0.55717 0.0
H917 H 0.967 0.0509 0.54964 0.0
C918 C 0.86015 0.03315 0.76518 0.0
C919 C 0.82305 0.02843 0.74159 0.0
C920 C 0.72876 0.93489 0.76211 0.0
C921 C 0.76809 0.93339 0.78354 0.0
N922 N 0.86922 0.98491 0.80794 0.0
N923 N 0.7167 1.00069 0.72769 0.0
C924 C 0.83299 0.98457 0.78614 0.0
C925 C 0.75554 0.98652 0.74275 0.0
N926 N 0.92033 0.08611 0.76786 0.0
N927 N 0.66597 0.88672 0.75999 0.0
H928 H 0.73609 0.04574 0.71854 0.0
H929 H 0.66647 0.97469 0.72857 0.0
H930 H 0.64331 0.85075 0.77488 0.0
H931 H 0.63754 0.88098 0.7428 0.0
H932 H 0.94973 0.0958 0.78502 0.0
H933 H 0.93849 0.12405 0.75362 0.0
H934 H 0.91872 0.01585 0.80966 0.0
H935 H 0.84969 0.95253 0.82434 0.0
loop_
_geom_bond_atom_site_label_1
_geom_bond_atom_site_label_2
_geom_bond_distance
_geom_bond_site_symmetry_2
_ccdc_geom_bond_type
C0 C1 1.351 . S
C0 N3 1.368 . S
C0 H5 0.931 . S
C1 C0 1.351 . S
C1 N2 1.373 . S
C1 H29 0.930 . S
N2 C1 1.373 . S
N2 C4 1.340 . S
N3 C0 1.368 . S
N3 C4 1.321 . S
N3 Co6 2.135 . S
C4 N2 1.340 . S
C4 N3 1.321 . S
C4 H28 0.930 . S
H5 C0 0.931 . S
Co6 N3 2.135 . S
Co6 N9 2.121 1_554 S
Co6 O14 2.055 . S
Co6 O17 2.039 1_554 S
Co6 N20 2.140 . S
C7 O8 1.227 . S
C7 O17 1.265 . S
O8 C7 1.227 . S
N9 Co6 2.121 1_556 S
N9 C11 1.375 . S
N9 C12 1.313 . S
C10 C11 1.338 . S
C10 N13 1.377 . S
C10 H30 0.930 . S
C11 N9 1.375 . S
C11 C10 1.338 . S
C11 H15 0.931 . S
C12 N9 1.313 . S
C12 N13 1.344 . S
C12 H16 0.930 1_556 S
N13 C10 1.377 . S
N13 C12 1.344 . S
O14 Co6 2.055 . S
O14 C18 1.253 . S
H15 C11 0.931 . S
H16 C12 0.930 1_554 S
O17 Co6 2.039 1_556 S
O17 C7 1.265 . S
C18 O14 1.253 . S
C18 O19 1.227 . S
O19 C18 1.227 . S
N20 Co6 2.140 . S
N20 C23 1.346 . S
N20 C24 1.345 . S
C21 C22 1.387 . S
C21 C25 1.391 . S
C22 C21 1.387 . S
C22 C23 1.369 . S
C22 H31 0.929 . S
C23 N20 1.346 . S
C23 C22 1.369 . S
C23 H26 0.928 . S
C24 N20 1.345 . S
C24 C25 1.371 . S
C24 H27 0.931 . S
C25 C21 1.391 . S
C25 C24 1.371 . S
C25 H32 0.930 . S
H26 C23 0.928 . S
H27 C24 0.931 . S
H28 C4 0.930 . S
H29 C1 0.930 . S
H30 C10 0.930 . S
H31 C22 0.929 . S
H32 C25 0.930 . S
C33 C34 1.351 1_655 S
C33 N36 1.368 . S
C33 H38 0.931 . S
C34 C33 1.351 1_455 S
C34 N35 1.373 . S
C34 H62 0.930 . S
N35 C34 1.373 . S
N35 C37 1.340 . S
N36 C33 1.368 . S
N36 C37 1.321 1_655 S
N36 Co39 2.135 . S
C37 N35 1.340 . S
C37 N36 1.321 1_455 S
C37 H61 0.930 . S
H38 C33 0.931 . S
Co39 N36 2.135 . S
Co39 N42 2.121 . S
Co39 O47 2.055 . S
Co39 O50 2.039 . S
Co39 N53 2.140 . S
C40 O41 1.227 . S
C40 O50 1.265 . S
O41 C40 1.227 . S
N42 Co39 2.121 . S
N42 C44 1.375 . S
N42 C45 1.313 . S
C43 C44 1.338 . S
C43 N46 1.377 . S
C43 H63 0.930 . S
C44 N42 1.375 . S
C44 C43 1.338 . S
C44 H48 0.931 . S
C45 N42 1.313 . S
C45 N46 1.344 . S
C45 H49 0.930 . S
N46 C43 1.377 . S
N46 C45 1.344 . S
O47 Co39 2.055 . S
O47 C51 1.253 . S
H48 C44 0.931 . S
H49 C45 0.930 . S
O50 Co39 2.039 . S
O50 C40 1.265 . S
C51 O47 1.253 . S
C51 O52 1.227 . S
O52 C51 1.227 . S
N53 Co39 2.140 . S
N53 C56 1.346 . S
N53 C57 1.345 . S
C54 C55 1.387 . S
C54 C58 1.391 . S
C55 C54 1.387 . S
C55 C56 1.369 . S
C55 H64 0.929 1_655 S
C56 N53 1.346 . S
C56 C55 1.369 . S
C56 H59 0.928 1_655 S
C57 N53 1.345 . S
C57 C58 1.371 . S
C57 H60 0.931 . S
C58 C54 1.391 . S
C58 C57 1.371 . S
C58 H65 0.930 . S
H59 C56 0.928 1_455 S
H60 C57 0.931 . S
H61 C37 0.930 . S
H62 C34 0.930 . S
H63 C43 0.930 . S
H64 C55 0.929 1_455 S
H65 C58 0.930 . S
C66 C67 1.351 1_565 S
C66 N69 1.368 . S
C66 H71 0.931 . S
C67 C66 1.351 1_545 S
C67 N68 1.373 . S
C67 H95 0.930 . S
N68 C67 1.373 . S
N68 C70 1.340 . S
N69 C66 1.368 . S
N69 C70 1.321 1_565 S
N69 Co72 2.135 . S
C70 N68 1.340 . S
C70 N69 1.321 1_545 S
C70 H94 0.930 . S
H71 C66 0.931 . S
Co72 N69 2.135 . S
Co72 N75 2.121 . S
Co72 O80 2.055 . S
Co72 O83 2.039 . S
Co72 N86 2.140 . S
C73 O74 1.227 . S
C73 O83 1.265 . S
O74 C73 1.227 . S
N75 Co72 2.121 . S
N75 C77 1.375 . S
N75 C78 1.313 . S
C76 C77 1.338 . S
C76 N79 1.377 . S
C76 H96 0.930 . S
C77 N75 1.375 . S
C77 C76 1.338 . S
C77 H81 0.931 . S
C78 N75 1.313 . S
C78 N79 1.344 . S
C78 H82 0.930 . S
N79 C76 1.377 . S
N79 C78 1.344 . S
O80 Co72 2.055 . S
O80 C84 1.253 . S
H81 C77 0.931 . S
H82 C78 0.930 . S
O83 Co72 2.039 . S
O83 C73 1.265 . S
C84 O80 1.253 . S
C84 O85 1.227 . S
O85 C84 1.227 . S
N86 Co72 2.140 . S
N86 C89 1.346 . S
N86 C90 1.345 . S
C87 C88 1.387 . S
C87 C91 1.391 . S
C88 C87 1.387 . S
C88 C89 1.369 . S
C88 H97 0.929 1_565 S
C89 N86 1.346 . S
C89 C88 1.369 . S
C89 H92 0.928 1_565 S
C90 N86 1.345 . S
C90 C91 1.371 . S
C90 H93 0.931 . S
C91 C87 1.391 . S
C91 C90 1.371 . S
C91 H98 0.930 . S
H92 C89 0.928 1_545 S
H93 C90 0.931 . S
H94 C70 0.930 . S
H95 C67 0.930 . S
H96 C76 0.930 . S
H97 C88 0.929 1_545 S
H98 C91 0.930 . S
C99 C100 1.351 . S
C99 N102 1.368 . S
C99 H104 0.931 . S
C100 C99 1.351 . S
C100 N101 1.373 . S
C100 H128 0.930 . S
N101 C100 1.373 . S
N101 C103 1.340 . S
N102 C99 1.368 . S
N102 C103 1.321 . S
N102 Co105 2.135 . S
C103 N101 1.340 . S
C103 N102 1.321 . S
C103 H127 0.930 . S
H104 C99 0.931 . S
Co105 N102 2.135 . S
Co105 N108 2.121 . S
Co105 O113 2.055 . S
Co105 O116 2.039 . S
Co105 N119 2.140 . S
C106 O107 1.227 . S
C106 O116 1.265 . S
O107 C106 1.227 . S
N108 Co105 2.121 . S
N108 C110 1.375 . S
N108 C111 1.313 . S
C109 C110 1.338 . S
C109 N112 1.377 . S
C109 H129 0.930 . S
C110 N108 1.375 . S
C110 C109 1.338 . S
C110 H114 0.931 . S
C111 N108 1.313 . S
C111 N112 1.344 . S
C111 H115 0.930 . S
N112 C109 1.377 . S
N112 C111 1.344 . S
O113 Co105 2.055 . S
O113 C117 1.253 . S
H114 C110 0.931 . S
H115 C111 0.930 . S
O116 Co105 2.039 . S
O116 C106 1.265 . S
C117 O113 1.253 . S
C117 O118 1.227 . S
O118 C117 1.227 . S
N119 Co105 2.140 . S
N119 C122 1.346 . S
N119 C123 1.345 . S
C120 C121 1.387 . S
C120 C124 1.391 . S
C121 C120 1.387 . S
C121 C122 1.369 . S
C121 H130 0.929 . S
C122 N119 1.346 . S
C122 C121 1.369 . S
C122 H125 0.928 . S
C123 N119 1.345 . S
C123 C124 1.371 . S
C123 H126 0.931 . S
C124 C120 1.391 . S
C124 C123 1.371 . S
C124 H131 0.930 . S
H125 C122 0.928 . S
H126 C123 0.931 . S
H127 C103 0.930 . S
H128 C100 0.930 . S
H129 C109 0.930 . S
H130 C121 0.929 . S
H131 C124 0.930 . S
C132 C133 1.351 1_455 S
C132 N135 1.368 . S
C132 H137 0.931 . S
C133 C132 1.351 1_655 S
C133 N134 1.373 . S
C133 H161 0.930 . S
N134 C133 1.373 . S
N134 C136 1.340 . S
N135 C132 1.368 . S
N135 C136 1.321 1_455 S
N135 Co138 2.135 . S
C136 N134 1.340 . S
C136 N135 1.321 1_655 S
C136 H160 0.930 . S
H137 C132 0.931 . S
Co138 N135 2.135 . S
Co138 N141 2.121 . S
Co138 O146 2.055 . S
Co138 O149 2.039 . S
Co138 N152 2.140 . S
C139 O140 1.227 . S
C139 O149 1.265 . S
O140 C139 1.227 . S
N141 Co138 2.121 . S
N141 C143 1.375 . S
N141 C144 1.313 . S
C142 C143 1.338 . S
C142 N145 1.377 . S
C142 H162 0.930 . S
C143 N141 1.375 . S
C143 C142 1.338 . S
C143 H147 0.931 . S
C144 N141 1.313 . S
C144 N145 1.344 . S
C144 H148 0.930 . S
N145 C142 1.377 . S
N145 C144 1.344 . S
O146 Co138 2.055 . S
O146 C150 1.253 . S
H147 C143 0.931 . S
H148 C144 0.930 . S
O149 Co138 2.039 . S
O149 C139 1.265 . S
C150 O146 1.253 . S
C150 O151 1.227 . S
O151 C150 1.227 . S
N152 Co138 2.140 . S
N152 C155 1.346 . S
N152 C156 1.345 . S
C153 C154 1.387 . S
C153 C157 1.391 . S
C154 C153 1.387 . S
C154 C155 1.369 . S
C154 H163 0.929 1_455 S
C155 N152 1.346 . S
C155 C154 1.369 . S
C155 H158 0.928 1_455 S
C156 N152 1.345 . S
C156 C157 1.371 . S
C156 H159 0.931 . S
C157 C153 1.391 . S
C157 C156 1.371 . S
C157 H164 0.930 . S
H158 C155 0.928 1_655 S
H159 C156 0.931 . S
H160 C136 0.930 . S
H161 C133 0.930 . S
H162 C142 0.930 . S
H163 C154 0.929 1_655 S
H164 C157 0.930 . S
C165 C166 1.351 1_545 S
C165 N168 1.368 . S
C165 H170 0.931 . S
C166 C165 1.351 1_565 S
C166 N167 1.373 . S
C166 H194 0.930 . S
N167 C166 1.373 . S
N167 C169 1.340 . S
N168 C165 1.368 . S
N168 C169 1.321 1_545 S
N168 Co171 2.135 . S
C169 N167 1.340 . S
C169 N168 1.321 1_565 S
C169 H193 0.930 . S
H170 C165 0.931 . S
Co171 N168 2.135 . S
Co171 N174 2.121 . S
Co171 O179 2.055 . S
Co171 O182 2.039 . S
Co171 N185 2.140 . S
C172 O173 1.227 . S
C172 O182 1.265 . S
O173 C172 1.227 . S
N174 Co171 2.121 . S
N174 C176 1.375 . S
N174 C177 1.313 . S
C175 C176 1.338 . S
C175 N178 1.377 . S
C175 H195 0.930 . S
C176 N174 1.375 . S
C176 C175 1.338 . S
C176 H180 0.931 . S
C177 N174 1.313 . S
C177 N178 1.344 . S
C177 H181 0.930 . S
N178 C175 1.377 . S
N178 C177 1.344 . S
O179 Co171 2.055 . S
O179 C183 1.253 . S
H180 C176 0.931 . S
H181 C177 0.930 . S
O182 Co171 2.039 . S
O182 C172 1.265 . S
C183 O179 1.253 . S
C183 O184 1.227 . S
O184 C183 1.227 . S
N185 Co171 2.140 . S
N185 C188 1.346 . S
N185 C189 1.345 . S
C186 C187 1.387 . S
C186 C190 1.391 . S
C187 C186 1.387 . S
C187 C188 1.369 . S
C187 H196 0.929 1_545 S
C188 N185 1.346 . S
C188 C187 1.369 . S
C188 H191 0.928 1_545 S
C189 N185 1.345 . S
C189 C190 1.371 . S
C189 H192 0.931 . S
C190 C186 1.391 . S
C190 C189 1.371 . S
C190 H197 0.930 . S
H191 C188 0.928 1_565 S
H192 C189 0.931 . S
H193 C169 0.930 . S
H194 C166 0.930 . S
H195 C175 0.930 . S
H196 C187 0.929 1_565 S
H197 C190 0.930 . S
C198 C199 1.351 . S
C198 N201 1.368 . S
C198 H203 0.931 . S
C199 C198 1.351 . S
C199 N200 1.373 . S
C199 H227 0.930 . S
N200 C199 1.373 . S
N200 C202 1.340 . S
N201 C198 1.368 . S
N201 C202 1.321 . S
N201 Co204 2.135 . S
C202 N200 1.340 . S
C202 N201 1.321 . S
C202 H226 0.930 . S
H203 C198 0.931 . S
Co204 N201 2.135 . S
Co204 N207 2.121 . S
Co204 O212 2.055 . S
Co204 O215 2.039 . S
Co204 N218 2.140 . S
C205 O206 1.227 . S
C205 O215 1.265 . S
O206 C205 1.227 . S
N207 Co204 2.121 . S
N207 C209 1.375 . S
N207 C210 1.313 . S
C208 C209 1.338 . S
C208 N211 1.377 . S
C208 H228 0.930 . S
C209 N207 1.375 . S
C209 C208 1.338 . S
C209 H213 0.931 . S
C210 N207 1.313 . S
C210 N211 1.344 . S
C210 H214 0.930 . S
N211 C208 1.377 . S
N211 C210 1.344 . S
O212 Co204 2.055 . S
O212 C216 1.253 . S
H213 C209 0.931 . S
H214 C210 0.930 . S
O215 Co204 2.039 . S
O215 C205 1.265 . S
C216 O212 1.253 . S
C216 O217 1.227 . S
O217 C216 1.227 . S
N218 Co204 2.140 . S
N218 C221 1.346 . S
N218 C222 1.345 . S
C219 C220 1.387 . S
C219 C223 1.391 . S
C220 C219 1.387 . S
C220 C221 1.369 . S
C220 H229 0.929 . S
C221 N218 1.346 . S
C221 C220 1.369 . S
C221 H224 0.928 . S
C222 N218 1.345 . S
C222 C223 1.371 . S
C222 H225 0.931 . S
C223 C219 1.391 . S
C223 C222 1.371 . S
C223 H230 0.930 . S
H224 C221 0.928 . S
H225 C222 0.931 . S
H226 C202 0.930 . S
H227 C199 0.930 . S
H228 C208 0.930 . S
H229 C220 0.929 . S
H230 C223 0.930 . S
C231 C232 1.351 1_655 S
C231 N234 1.368 . S
C231 H236 0.931 . S
C232 C231 1.351 1_455 S
C232 N233 1.373 . S
C232 H260 0.930 . S
N233 C232 1.373 . S
N233 C235 1.340 . S
N234 C231 1.368 . S
N234 C235 1.321 1_655 S
N234 Co237 2.135 . S
C235 N233 1.340 . S
C235 N234 1.321 1_455 S
C235 H259 0.930 . S
H236 C231 0.931 . S
Co237 N234 2.135 . S
Co237 N240 2.121 1_556 S
Co237 O245 2.055 . S
Co237 O248 2.039 1_556 S
Co237 N251 2.140 . S
C238 O239 1.227 . S
C238 O248 1.265 . S
O239 C238 1.227 . S
N240 Co237 2.121 1_554 S
N240 C242 1.375 . S
N240 C243 1.313 1_554 S
C241 C242 1.338 . S
C241 N244 1.377 . S
C241 H261 0.930 . S
C242 N240 1.375 . S
C242 C241 1.338 . S
C242 H246 0.931 . S
C243 N240 1.313 1_556 S
C243 N244 1.344 1_556 S
C243 H247 0.930 . S
N244 C241 1.377 . S
N244 C243 1.344 1_554 S
O245 Co237 2.055 . S
O245 C249 1.253 . S
H246 C242 0.931 . S
H247 C243 0.930 . S
O248 Co237 2.039 1_554 S
O248 C238 1.265 . S
C249 O245 1.253 . S
C249 O250 1.227 . S
O250 C249 1.227 . S
N251 Co237 2.140 . S
N251 C254 1.346 . S
N251 C255 1.345 . S
C252 C253 1.387 . S
C252 C256 1.391 . S
C253 C252 1.387 . S
C253 C254 1.369 . S
C253 H262 0.929 1_655 S
C254 N251 1.346 . S
C254 C253 1.369 . S
C254 H257 0.928 1_655 S
C255 N251 1.345 . S
C255 C256 1.371 . S
C255 H258 0.931 . S
C256 C252 1.391 . S
C256 C255 1.371 . S
C256 H263 0.930 . S
H257 C254 0.928 1_455 S
H258 C255 0.931 . S
H259 C235 0.930 . S
H260 C232 0.930 . S
H261 C241 0.930 . S
H262 C253 0.929 1_455 S
H263 C256 0.930 . S
C264 C265 1.351 1_565 S
C264 N267 1.368 . S
C264 H269 0.931 . S
C265 C264 1.351 1_545 S
C265 N266 1.373 . S
C265 H293 0.930 . S
N266 C265 1.373 . S
N266 C268 1.340 . S
N267 C264 1.368 . S
N267 C268 1.321 1_565 S
N267 Co270 2.135 . S
C268 N266 1.340 . S
C268 N267 1.321 1_545 S
C268 H292 0.930 . S
H269 C264 0.931 . S
Co270 N267 2.135 . S
Co270 N273 2.121 . S
Co270 O278 2.055 . S
Co270 O281 2.039 . S
Co270 N284 2.140 . S
C271 O272 1.227 . S
C271 O281 1.265 . S
O272 C271 1.227 . S
N273 Co270 2.121 . S
N273 C275 1.375 . S
N273 C276 1.313 . S
C274 C275 1.338 . S
C274 N277 1.377 . S
C274 H294 0.930 . S
C275 N273 1.375 . S
C275 C274 1.338 . S
C275 H279 0.931 . S
C276 N273 1.313 . S
C276 N277 1.344 . S
C276 H280 0.930 . S
N277 C274 1.377 . S
N277 C276 1.344 . S
O278 Co270 2.055 . S
O278 C282 1.253 . S
H279 C275 0.931 . S
H280 C276 0.930 . S
O281 Co270 2.039 . S
O281 C271 1.265 . S
C282 O278 1.253 . S
C282 O283 1.227 . S
O283 C282 1.227 . S
N284 Co270 2.140 . S
N284 C287 1.346 . S
N284 C288 1.345 . S
C285 C286 1.387 . S
C285 C289 1.391 . S
C286 C285 1.387 . S
C286 C287 1.369 . S
C286 H295 0.929 1_565 S
C287 N284 1.346 . S
C287 C286 1.369 . S
C287 H290 0.928 1_565 S
C288 N284 1.345 . S
C288 C289 1.371 . S
C288 H291 0.931 . S
C289 C285 1.391 . S
C289 C288 1.371 . S
C289 H296 0.930 . S
H290 C287 0.928 1_545 S
H291 C288 0.931 . S
H292 C268 0.930 . S
H293 C265 0.930 . S
H294 C274 0.930 . S
H295 C286 0.929 1_545 S
H296 C289 0.930 . S
C297 C298 1.351 . S
C297 N300 1.368 . S
C297 H302 0.931 . S
C298 C297 1.351 . S
C298 N299 1.373 . S
C298 H326 0.930 . S
N299 C298 1.373 . S
N299 C301 1.340 . S
N300 C297 1.368 . S
N300 C301 1.321 . S
N300 Co303 2.135 . S
C301 N299 1.340 . S
C301 N300 1.321 . S
C301 H325 0.930 . S
H302 C297 0.931 . S
Co303 N300 2.135 . S
Co303 N306 2.121 . S
Co303 O311 2.055 . S
Co303 O314 2.039 . S
Co303 N317 2.140 . S
C304 O305 1.227 . S
C304 O314 1.265 . S
O305 C304 1.227 . S
N306 Co303 2.121 . S
N306 C308 1.375 . S
N306 C309 1.313 . S
C307 C308 1.338 . S
C307 N310 1.377 . S
C307 H327 0.930 . S
C308 N306 1.375 . S
C308 C307 1.338 . S
C308 H312 0.931 . S
C309 N306 1.313 . S
C309 N310 1.344 . S
C309 H313 0.930 . S
N310 C307 1.377 . S
N310 C309 1.344 . S
O311 Co303 2.055 . S
O311 C315 1.253 . S
H312 C308 0.931 . S
H313 C309 0.930 . S
O314 Co303 2.039 . S
O314 C304 1.265 . S
C315 O311 1.253 . S
C315 O316 1.227 . S
O316 C315 1.227 . S
N317 Co303 2.140 . S
N317 C320 1.346 . S
N317 C321 1.345 . S
C318 C319 1.387 . S
C318 C322 1.391 . S
C319 C318 1.387 . S
C319 C320 1.369 . S
C319 H328 0.929 . S
C320 N317 1.346 . S
C320 C319 1.369 . S
C320 H323 0.928 . S
C321 N317 1.345 . S
C321 C322 1.371 . S
C321 H324 0.931 . S
C322 C318 1.391 . S
C322 C321 1.371 . S
C322 H329 0.930 . S
H323 C320 0.928 . S
H324 C321 0.931 . S
H325 C301 0.930 . S
H326 C298 0.930 . S
H327 C307 0.930 . S
H328 C319 0.929 . S
H329 C322 0.930 . S
C330 C331 1.351 1_455 S
C330 N333 1.368 . S
C330 H335 0.931 . S
C331 C330 1.351 1_655 S
C331 N332 1.373 . S
C331 H359 0.930 . S
N332 C331 1.373 . S
N332 C334 1.340 . S
N333 C330 1.368 . S
N333 C334 1.321 1_455 S
N333 Co336 2.135 . S
C334 N332 1.340 . S
C334 N333 1.321 1_655 S
C334 H358 0.930 . S
H335 C330 0.931 . S
Co336 N333 2.135 . S
Co336 N339 2.121 . S
Co336 O344 2.055 . S
Co336 O347 2.039 . S
Co336 N350 2.140 . S
C337 O338 1.227 . S
C337 O347 1.265 . S
O338 C337 1.227 . S
N339 Co336 2.121 . S
N339 C341 1.375 . S
N339 C342 1.313 . S
C340 C341 1.338 . S
C340 N343 1.377 . S
C340 H360 0.930 . S
C341 N339 1.375 . S
C341 C340 1.338 . S
C341 H345 0.931 . S
C342 N339 1.313 . S
C342 N343 1.344 . S
C342 H346 0.930 . S
N343 C340 1.377 . S
N343 C342 1.344 . S
O344 Co336 2.055 . S
O344 C348 1.253 . S
H345 C341 0.931 . S
H346 C342 0.930 . S
O347 Co336 2.039 . S
O347 C337 1.265 . S
C348 O344 1.253 . S
C348 O349 1.227 . S
O349 C348 1.227 . S
N350 Co336 2.140 . S
N350 C353 1.346 . S
N350 C354 1.345 . S
C351 C352 1.387 . S
C351 C355 1.391 . S
C352 C351 1.387 . S
C352 C353 1.369 . S
C352 H361 0.929 1_455 S
C353 N350 1.346 . S
C353 C352 1.369 . S
C353 H356 0.928 1_455 S
C354 N350 1.345 . S
C354 C355 1.371 . S
C354 H357 0.931 . S
C355 C351 1.391 . S
C355 C354 1.371 . S
C355 H362 0.930 . S
H356 C353 0.928 1_655 S
H357 C354 0.931 . S
H358 C334 0.930 . S
H359 C331 0.930 . S
H360 C340 0.930 . S
H361 C352 0.929 1_655 S
H362 C355 0.930 . S
C363 C364 1.351 1_545 S
C363 N366 1.368 . S
C363 H368 0.931 . S
C364 C363 1.351 1_565 S
C364 N365 1.373 . S
C364 H392 0.930 . S
N365 C364 1.373 . S
N365 C367 1.340 . S
N366 C363 1.368 . S
N366 C367 1.321 1_545 S
N366 Co369 2.135 . S
C367 N365 1.340 . S
C367 N366 1.321 1_565 S
C367 H391 0.930 . S
H368 C363 0.931 . S
Co369 N366 2.135 . S
Co369 N372 2.121 . S
Co369 O377 2.055 . S
Co369 O380 2.039 . S
Co369 N383 2.140 . S
C370 O371 1.227 . S
C370 O380 1.265 . S
O371 C370 1.227 . S
N372 Co369 2.121 . S
N372 C374 1.375 . S
N372 C375 1.313 . S
C373 C374 1.338 . S
C373 N376 1.377 . S
C373 H393 0.930 . S
C374 N372 1.375 . S
C374 C373 1.338 . S
C374 H378 0.931 . S
C375 N372 1.313 . S
C375 N376 1.344 . S
C375 H379 0.930 . S
N376 C373 1.377 . S
N376 C375 1.344 . S
O377 Co369 2.055 . S
O377 C381 1.253 . S
H378 C374 0.931 . S
H379 C375 0.930 . S
O380 Co369 2.039 . S
O380 C370 1.265 . S
C381 O377 1.253 . S
C381 O382 1.227 . S
O382 C381 1.227 . S
N383 Co369 2.140 . S
N383 C386 1.346 . S
N383 C387 1.345 . S
C384 C385 1.387 . S
C384 C388 1.391 . S
C385 C384 1.387 . S
C385 C386 1.369 . S
C385 H394 0.929 1_545 S
C386 N383 1.346 . S
C386 C385 1.369 . S
C386 H389 0.928 1_545 S
C387 N383 1.345 . S
C387 C388 1.371 . S
C387 H390 0.931 . S
C388 C384 1.391 . S
C388 C387 1.371 . S
C388 H395 0.930 . S
H389 C386 0.928 1_565 S
H390 C387 0.931 . S
H391 C367 0.930 . S
H392 C364 0.930 . S
H393 C373 0.930 . S
H394 C385 0.929 1_565 S
H395 C388 0.930 . S
C396 C397 1.363 . S
C396 C402 1.379 . S
C396 N404 1.356 . S
C397 C396 1.363 . S
C397 C403 1.363 . S
C398 C399 1.363 . S
C398 C403 1.379 . S
C398 N405 1.356 . S
C399 C398 1.363 . S
C399 C402 1.363 . S
N400 C402 1.356 . S
N400 H412 0.984 1_545 S
N400 H413 0.985 . S
N401 C403 1.356 . S
N401 H406 0.984 . S
N401 H407 0.985 . S
C402 C396 1.379 . S
C402 C399 1.363 . S
C402 N400 1.356 . S
C403 C397 1.363 . S
C403 C398 1.379 . S
C403 N401 1.356 . S
N404 C396 1.356 . S
N404 H410 0.984 1_545 S
N404 H411 0.984 . S
N405 C398 1.356 . S
N405 H408 0.984 . S
N405 H409 0.985 . S
H406 N401 0.984 . S
H407 N401 0.985 . S
H408 N405 0.984 . S
H409 N405 0.985 . S
H410 N404 0.984 1_565 S
H411 N404 0.984 . S
H412 N400 0.984 1_565 S
H413 N400 0.985 . S
C414 C415 1.363 . S
C414 C420 1.379 . S
C414 N422 1.356 . S
C415 C414 1.363 . S
C415 C421 1.363 . S
C416 C417 1.363 . S
C416 C421 1.379 . S
C416 N423 1.356 . S
C417 C416 1.363 . S
C417 C420 1.363 . S
N418 C420 1.356 . S
N418 H430 0.984 . S
N418 H431 0.985 . S
N419 C421 1.356 . S
N419 H424 0.984 . S
N419 H425 0.985 . S
C420 C414 1.379 . S
C420 C417 1.363 . S
C420 N418 1.356 . S
C421 C415 1.363 . S
C421 C416 1.379 . S
C421 N419 1.356 . S
N422 C414 1.356 . S
N422 H428 0.984 . S
N422 H429 0.984 . S
N423 C416 1.356 . S
N423 H426 0.984 . S
N423 H427 0.985 . S
H424 N419 0.984 . S
H425 N419 0.985 . S
H426 N423 0.984 . S
H427 N423 0.985 . S
H428 N422 0.984 . S
H429 N422 0.984 . S
H430 N418 0.984 . S
H431 N418 0.985 . S
C432 C433 1.363 . S
C432 C438 1.379 . S
C432 N440 1.356 . S
C433 C432 1.363 . S
C433 C439 1.363 . S
C434 C435 1.363 . S
C434 C439 1.379 . S
C434 N441 1.356 . S
C435 C434 1.363 . S
C435 C438 1.363 . S
N436 C438 1.356 . S
N436 H448 0.984 . S
N436 H449 0.985 . S
N437 C439 1.356 . S
N437 H442 0.984 . S
N437 H443 0.985 . S
C438 C432 1.379 . S
C438 C435 1.363 . S
C438 N436 1.356 . S
C439 C433 1.363 . S
C439 C434 1.379 . S
C439 N437 1.356 . S
N440 C432 1.356 . S
N440 H446 0.984 . S
N440 H447 0.984 . S
N441 C434 1.356 . S
N441 H444 0.984 . S
N441 H445 0.985 . S
H442 N437 0.984 . S
H443 N437 0.985 . S
H444 N441 0.984 . S
H445 N441 0.985 . S
H446 N440 0.984 . S
H447 N440 0.984 . S
H448 N436 0.984 . S
H449 N436 0.985 . S
C450 C451 1.363 . S
C450 C456 1.379 . S
C450 N458 1.356 . S
C451 C450 1.363 . S
C451 C457 1.363 . S
C452 C453 1.363 . S
C452 C457 1.379 . S
C452 N459 1.356 . S
C453 C452 1.363 . S
C453 C456 1.363 . S
N454 C456 1.356 . S
N454 H466 0.984 . S
N454 H467 0.985 . S
N455 C457 1.356 . S
N455 H460 0.984 . S
N455 H461 0.985 . S
C456 C450 1.379 . S
C456 C453 1.363 . S
C456 N454 1.356 . S
C457 C451 1.363 . S
C457 C452 1.379 . S
C457 N455 1.356 . S
N458 C450 1.356 . S
N458 H464 0.984 . S
N458 H465 0.984 . S
N459 C452 1.356 . S
N459 H462 0.984 . S
N459 H463 0.985 1_565 S
H460 N455 0.984 . S
H461 N455 0.985 . S
H462 N459 0.984 . S
H463 N459 0.985 1_545 S
H464 N458 0.984 . S
H465 N458 0.984 . S
H466 N454 0.984 . S
H467 N454 0.985 . S
C468 C469 1.363 . S
C468 C474 1.379 . S
C468 N476 1.356 . S
C469 C468 1.363 . S
C469 C475 1.363 . S
C470 C471 1.363 . S
C470 C475 1.379 . S
C470 N477 1.356 . S
C471 C470 1.363 . S
C471 C474 1.363 . S
N472 C474 1.356 . S
N472 H484 0.985 . S
N472 H485 0.985 . S
N473 C475 1.356 . S
N473 H478 0.984 . S
N473 H479 0.985 . S
C474 C468 1.379 . S
C474 C471 1.363 . S
C474 N472 1.356 . S
C475 C469 1.363 . S
C475 C470 1.379 . S
C475 N473 1.356 . S
N476 C468 1.356 . S
N476 H482 0.984 1_655 S
N476 H483 0.984 . S
N477 C470 1.356 . S
N477 H480 0.984 . S
N477 H481 0.985 . S
H478 N473 0.984 . S
H479 N473 0.985 . S
H480 N477 0.984 . S
H481 N477 0.985 . S
H482 N476 0.984 1_455 S
H483 N476 0.984 . S
H484 N472 0.985 . S
H485 N472 0.985 . S
C486 C487 1.363 . S
C486 C492 1.379 . S
C486 N494 1.356 . S
C487 C486 1.363 . S
C487 C493 1.363 . S
C488 C489 1.363 . S
C488 C493 1.379 . S
C488 N495 1.356 . S
C489 C488 1.363 . S
C489 C492 1.363 . S
N490 C492 1.356 . S
N490 H502 0.984 1_455 S
N490 H503 0.985 . S
N491 C493 1.356 . S
N491 H496 0.984 . S
N491 H497 0.985 1_565 S
C492 C486 1.379 . S
C492 C489 1.363 . S
C492 N490 1.356 . S
C493 C487 1.363 . S
C493 C488 1.379 . S
C493 N491 1.356 . S
N494 C486 1.356 . S
N494 H500 0.984 1_455 S
N494 H501 0.984 . S
N495 C488 1.356 . S
N495 H498 0.984 . S
N495 H499 0.985 . S
H496 N491 0.984 . S
H497 N491 0.985 1_545 S
H498 N495 0.984 . S
H499 N495 0.985 . S
H500 N494 0.984 1_655 S
H501 N494 0.984 . S
H502 N490 0.984 1_655 S
H503 N490 0.985 . S
C504 C505 1.363 1_556 S
C504 C510 1.379 . S
C504 N512 1.356 . S
C505 C504 1.363 1_554 S
C505 C511 1.363 . S
C506 C507 1.363 . S
C506 C511 1.379 . S
C506 N513 1.356 . S
C507 C506 1.363 . S
C507 C510 1.363 1_554 S
N508 C510 1.356 . S
N508 H520 0.984 . S
N508 H521 0.985 . S
N509 C511 1.356 . S
N509 H514 0.984 . S
N509 H515 0.985 . S
C510 C504 1.379 . S
C510 C507 1.363 1_556 S
C510 N508 1.356 . S
C511 C505 1.363 . S
C511 C506 1.379 . S
C511 N509 1.356 . S
N512 C504 1.356 . S
N512 H518 0.984 . S
N512 H519 0.984 . S
N513 C506 1.356 . S
N513 H516 0.984 . S
N513 H517 0.985 . S
H514 N509 0.984 . S
H515 N509 0.985 . S
H516 N513 0.984 . S
H517 N513 0.985 . S
H518 N512 0.984 . S
H519 N512 0.984 . S
H520 N508 0.984 . S
H521 N508 0.985 . S
C522 C523 1.363 1_455 S
C522 C528 1.379 . S
C522 N530 1.356 . S
C523 C522 1.363 1_655 S
C523 C529 1.363 . S
C524 C525 1.363 . S
C524 C529 1.379 1_455 S
C524 N531 1.356 . S
C525 C524 1.363 . S
C525 C528 1.363 . S
N526 C528 1.356 . S
N526 H538 0.984 . S
N526 H539 0.985 . S
N527 C529 1.356 . S
N527 H532 0.984 . S
N527 H533 0.985 . S
C528 C522 1.379 . S
C528 C525 1.363 . S
C528 N526 1.356 . S
C529 C523 1.363 . S
C529 C524 1.379 1_655 S
C529 N527 1.356 . S
N530 C522 1.356 . S
N530 H536 0.984 . S
N530 H537 0.984 1_455 S
N531 C524 1.356 . S
N531 H534 0.984 . S
N531 H535 0.985 . S
H532 N527 0.984 . S
H533 N527 0.985 . S
H534 N531 0.984 . S
H535 N531 0.985 . S
H536 N530 0.984 . S
H537 N530 0.984 1_655 S
H538 N526 0.984 . S
H539 N526 0.985 . S
C540 C541 1.363 . S
C540 C546 1.379 1_545 S
C540 N548 1.356 . S
C541 C540 1.363 . S
C541 C547 1.363 . S
C542 C543 1.363 1_545 S
C542 C547 1.379 . S
C542 N549 1.356 . S
C543 C542 1.363 1_565 S
C543 C546 1.363 . S
N544 C546 1.356 . S
N544 H556 0.984 . S
N544 H557 0.985 . S
N545 C547 1.356 . S
N545 H550 0.984 . S
N545 H551 0.985 . S
C546 C540 1.379 1_565 S
C546 C543 1.363 . S
C546 N544 1.356 . S
C547 C541 1.363 . S
C547 C542 1.379 . S
C547 N545 1.356 . S
N548 C540 1.356 . S
N548 H554 0.984 . S
N548 H555 0.984 . S
N549 C542 1.356 . S
N549 H552 0.984 1_545 S
N549 H553 0.985 . S
H550 N545 0.984 . S
H551 N545 0.985 . S
H552 N549 0.984 1_565 S
H553 N549 0.985 . S
H554 N548 0.984 . S
H555 N548 0.984 . S
H556 N544 0.984 . S
H557 N544 0.985 . S
C558 C559 1.363 . S
C558 C564 1.379 . S
C558 N566 1.356 . S
C559 C558 1.363 . S
C559 C565 1.363 . S
C560 C561 1.363 . S
C560 C565 1.379 . S
C560 N567 1.356 . S
C561 C560 1.363 . S
C561 C564 1.363 . S
N562 C564 1.356 . S
N562 H574 0.984 . S
N562 H575 0.985 . S
N563 C565 1.356 . S
N563 H568 0.984 . S
N563 H569 0.985 . S
C564 C558 1.379 . S
C564 C561 1.363 . S
C564 N562 1.356 . S
C565 C559 1.363 . S
C565 C560 1.379 . S
C565 N563 1.356 . S
N566 C558 1.356 . S
N566 H572 0.984 . S
N566 H573 0.984 . S
N567 C560 1.356 . S
N567 H570 0.984 . S
N567 H571 0.985 . S
H568 N563 0.984 . S
H569 N563 0.985 . S
H570 N567 0.984 . S
H571 N567 0.985 . S
H572 N566 0.984 . S
H573 N566 0.984 . S
H574 N562 0.984 . S
H575 N562 0.985 . S
C576 C577 1.363 . S
C576 C582 1.379 . S
C576 N584 1.356 . S
C577 C576 1.363 . S
C577 C583 1.363 . S
C578 C579 1.363 . S
C578 C583 1.379 1_455 S
C578 N585 1.356 . S
C579 C578 1.363 . S
C579 C582 1.363 1_455 S
N580 C582 1.356 . S
N580 H592 0.984 . S
N580 H593 0.985 1_655 S
N581 C583 1.356 . S
N581 H586 0.984 . S
N581 H587 0.985 . S
C582 C576 1.379 . S
C582 C579 1.363 1_655 S
C582 N580 1.356 . S
C583 C577 1.363 . S
C583 C578 1.379 1_655 S
C583 N581 1.356 . S
N584 C576 1.356 . S
N584 H590 0.984 . S
N584 H591 0.984 . S
N585 C578 1.356 . S
N585 H588 0.984 . S
N585 H589 0.985 . S
H586 N581 0.984 . S
H587 N581 0.985 . S
H588 N585 0.984 . S
H589 N585 0.985 . S
H590 N584 0.984 . S
H591 N584 0.984 . S
H592 N580 0.984 . S
H593 N580 0.985 1_455 S
C594 C595 1.363 . S
C594 C600 1.379 1_565 S
C594 N602 1.356 . S
C595 C594 1.363 . S
C595 C601 1.363 . S
C596 C597 1.363 1_565 S
C596 C601 1.379 . S
C596 N603 1.356 . S
C597 C596 1.363 1_545 S
C597 C600 1.363 . S
N598 C600 1.356 . S
N598 H610 0.984 . S
N598 H611 0.985 . S
N599 C601 1.356 . S
N599 H604 0.984 . S
N599 H605 0.985 . S
C600 C594 1.379 1_545 S
C600 C597 1.363 . S
C600 N598 1.356 . S
C601 C595 1.363 . S
C601 C596 1.379 . S
C601 N599 1.356 . S
N602 C594 1.356 . S
N602 H608 0.984 . S
N602 H609 0.984 . S
N603 C596 1.356 . S
N603 H606 0.984 1_565 S
N603 H607 0.985 . S
H604 N599 0.984 . S
H605 N599 0.985 . S
H606 N603 0.984 1_545 S
H607 N603 0.985 . S
H608 N602 0.984 . S
H609 N602 0.984 . S
H610 N598 0.984 . S
H611 N598 0.985 . S
C612 C613 1.363 . S
C612 C618 1.379 . S
C612 N620 1.356 . S
C613 C612 1.363 . S
C613 C619 1.363 . S
C614 C615 1.363 . S
C614 C619 1.379 . S
C614 N621 1.356 . S
C615 C614 1.363 . S
C615 C618 1.363 . S
N616 C618 1.356 . S
N616 H628 0.984 . S
N616 H629 0.985 . S
N617 C619 1.356 . S
N617 H622 0.984 . S
N617 H623 0.985 . S
C618 C612 1.379 . S
C618 C615 1.363 . S
C618 N616 1.356 . S
C619 C613 1.363 . S
C619 C614 1.379 . S
C619 N617 1.356 . S
N620 C612 1.356 . S
N620 H626 0.984 . S
N620 H627 0.984 . S
N621 C614 1.356 . S
N621 H624 0.984 . S
N621 H625 0.985 . S
H622 N617 0.984 . S
H623 N617 0.985 . S
H624 N621 0.984 . S
H625 N621 0.985 . S
H626 N620 0.984 . S
H627 N620 0.984 . S
H628 N616 0.984 . S
H629 N616 0.985 . S
C630 C631 1.363 1_455 S
C630 C636 1.379 . S
C630 N638 1.356 1_556 S
C631 C630 1.363 1_655 S
C631 C637 1.363 . S
C632 C633 1.363 . S
C632 C637 1.379 1_455 S
C632 N639 1.356 . S
C633 C632 1.363 . S
C633 C636 1.363 . S
N634 C636 1.356 1_554 S
N634 H646 0.984 . S
N634 H647 0.985 . S
N635 C637 1.356 . S
N635 H640 0.984 . S
N635 H641 0.985 . S
C636 C630 1.379 . S
C636 C633 1.363 . S
C636 N634 1.356 1_556 S
C637 C631 1.363 . S
C637 C632 1.379 1_655 S
C637 N635 1.356 . S
N638 C630 1.356 1_554 S
N638 H644 0.984 . S
N638 H645 0.984 1_455 S
N639 C632 1.356 . S
N639 H642 0.984 . S
N639 H643 0.985 . S
H640 N635 0.984 . S
H641 N635 0.985 . S
H642 N639 0.984 . S
H643 N639 0.985 . S
H644 N638 0.984 . S
H645 N638 0.984 1_655 S
H646 N634 0.984 . S
H647 N634 0.985 . S
C648 C649 1.363 . S
C648 C654 1.379 1_565 S
C648 N656 1.356 . S
C649 C648 1.363 . S
C649 C655 1.363 1_565 S
C650 C651 1.363 . S
C650 C655 1.379 . S
C650 N657 1.356 . S
C651 C650 1.363 . S
C651 C654 1.363 . S
N652 C654 1.356 . S
N652 H664 0.984 . S
N652 H665 0.985 . S
N653 C655 1.356 . S
N653 H658 0.984 1_545 S
N653 H659 0.985 . S
C654 C648 1.379 1_545 S
C654 C651 1.363 . S
C654 N652 1.356 . S
C655 C649 1.363 1_545 S
C655 C650 1.379 . S
C655 N653 1.356 . S
N656 C648 1.356 . S
N656 H662 0.984 . S
N656 H663 0.984 . S
N657 C650 1.356 . S
N657 H660 0.984 . S
N657 H661 0.985 . S
H658 N653 0.984 1_565 S
H659 N653 0.985 . S
H660 N657 0.984 . S
H661 N657 0.985 . S
H662 N656 0.984 . S
H663 N656 0.984 . S
H664 N652 0.984 . S
H665 N652 0.985 . S
C666 C667 1.363 . S
C666 C672 1.379 . S
C666 N674 1.356 . S
C667 C666 1.363 . S
C667 C673 1.363 . S
C668 C669 1.363 . S
C668 C673 1.379 . S
C668 N675 1.356 . S
C669 C668 1.363 . S
C669 C672 1.363 . S
N670 C672 1.356 . S
N670 H682 0.984 . S
N670 H683 0.985 . S
N671 C673 1.356 . S
N671 H676 0.984 . S
N671 H677 0.985 . S
C672 C666 1.379 . S
C672 C669 1.363 . S
C672 N670 1.356 . S
C673 C667 1.363 . S
C673 C668 1.379 . S
C673 N671 1.356 . S
N674 C666 1.356 . S
N674 H680 0.984 . S
N674 H681 0.984 . S
N675 C668 1.356 . S
N675 H678 0.984 . S
N675 H679 0.985 . S
H676 N671 0.984 . S
H677 N671 0.985 . S
H678 N675 0.984 . S
H679 N675 0.985 . S
H680 N674 0.984 . S
H681 N674 0.984 . S
H682 N670 0.984 . S
H683 N670 0.985 . S
C684 C685 1.363 . S
C684 C690 1.379 . S
C684 N692 1.356 . S
C685 C684 1.363 . S
C685 C691 1.363 . S
C686 C687 1.363 . S
C686 C691 1.379 1_455 S
C686 N693 1.356 . S
C687 C686 1.363 . S
C687 C690 1.363 1_455 S
N688 C690 1.356 . S
N688 H700 0.984 . S
N688 H701 0.985 1_655 S
N689 C691 1.356 . S
N689 H694 0.984 . S
N689 H695 0.985 . S
C690 C684 1.379 . S
C690 C687 1.363 1_655 S
C690 N688 1.356 . S
C691 C685 1.363 . S
C691 C686 1.379 1_655 S
C691 N689 1.356 . S
N692 C684 1.356 . S
N692 H698 0.984 . S
N692 H699 0.984 . S
N693 C686 1.356 . S
N693 H696 0.984 . S
N693 H697 0.985 . S
H694 N689 0.984 . S
H695 N689 0.985 . S
H696 N693 0.984 . S
H697 N693 0.985 . S
H698 N692 0.984 . S
H699 N692 0.984 . S
H700 N688 0.984 . S
H701 N688 0.985 1_455 S
C702 C703 1.363 . S
C702 C708 1.379 . S
C702 N710 1.356 . S
C703 C702 1.363 . S
C703 C709 1.363 . S
C704 C705 1.363 . S
C704 C709 1.379 1_545 S
C704 N711 1.356 . S
C705 C704 1.363 . S
C705 C708 1.363 1_545 S
N706 C708 1.356 . S
N706 H718 0.984 . S
N706 H719 0.985 1_565 S
N707 C709 1.356 . S
N707 H712 0.984 . S
N707 H713 0.985 . S
C708 C702 1.379 . S
C708 C705 1.363 1_565 S
C708 N706 1.356 . S
C709 C703 1.363 . S
C709 C704 1.379 1_565 S
C709 N707 1.356 . S
N710 C702 1.356 . S
N710 H716 0.984 . S
N710 H717 0.984 . S
N711 C704 1.356 . S
N711 H714 0.984 . S
N711 H715 0.985 . S
H712 N707 0.984 . S
H713 N707 0.985 . S
H714 N711 0.984 . S
H715 N711 0.985 . S
H716 N710 0.984 . S
H717 N710 0.984 . S
H718 N706 0.984 . S
H719 N706 0.985 1_545 S
C720 C721 1.363 . S
C720 C726 1.379 . S
C720 N728 1.356 . S
C721 C720 1.363 . S
C721 C727 1.363 . S
C722 C723 1.363 . S
C722 C727 1.379 . S
C722 N729 1.356 . S
C723 C722 1.363 . S
C723 C726 1.363 . S
N724 C726 1.356 . S
N724 H736 0.984 . S
N724 H737 0.985 . S
N725 C727 1.356 . S
N725 H730 0.984 . S
N725 H731 0.985 . S
C726 C720 1.379 . S
C726 C723 1.363 . S
C726 N724 1.356 . S
C727 C721 1.363 . S
C727 C722 1.379 . S
C727 N725 1.356 . S
N728 C720 1.356 . S
N728 H734 0.984 . S
N728 H735 0.984 . S
N729 C722 1.356 . S
N729 H732 0.984 . S
N729 H733 0.985 . S
H730 N725 0.984 . S
H731 N725 0.985 . S
H732 N729 0.984 . S
H733 N729 0.985 . S
H734 N728 0.984 . S
H735 N728 0.984 . S
H736 N724 0.984 . S
H737 N724 0.985 . S
C738 C739 1.363 . S
C738 C744 1.379 . S
C738 N746 1.356 . S
C739 C738 1.363 . S
C739 C745 1.363 . S
C740 C741 1.363 . S
C740 C745 1.379 1_655 S
C740 N747 1.356 . S
C741 C740 1.363 . S
C741 C744 1.363 1_655 S
N742 C744 1.356 . S
N742 H754 0.984 . S
N742 H755 0.985 . S
N743 C745 1.356 . S
N743 H748 0.984 . S
N743 H749 0.985 1_455 S
C744 C738 1.379 . S
C744 C741 1.363 1_455 S
C744 N742 1.356 . S
C745 C739 1.363 . S
C745 C740 1.379 1_455 S
C745 N743 1.356 . S
N746 C738 1.356 . S
N746 H752 0.984 . S
N746 H753 0.984 . S
N747 C740 1.356 . S
N747 H750 0.984 . S
N747 H751 0.985 . S
H748 N743 0.984 . S
H749 N743 0.985 1_655 S
H750 N747 0.984 . S
H751 N747 0.985 . S
H752 N746 0.984 . S
H753 N746 0.984 . S
H754 N742 0.984 . S
H755 N742 0.985 . S
C756 C757 1.363 1_545 S
C756 C762 1.379 . S
C756 N764 1.356 . S
C757 C756 1.363 1_565 S
C757 C763 1.363 . S
C758 C759 1.363 . S
C758 C763 1.379 1_545 S
C758 N765 1.356 . S
C759 C758 1.363 . S
C759 C762 1.363 . S
N760 C762 1.356 . S
N760 H772 0.984 . S
N760 H773 0.985 . S
N761 C763 1.356 . S
N761 H766 0.984 . S
N761 H767 0.985 . S
C762 C756 1.379 . S
C762 C759 1.363 . S
C762 N760 1.356 . S
C763 C757 1.363 . S
C763 C758 1.379 1_565 S
C763 N761 1.356 . S
N764 C756 1.356 . S
N764 H770 0.984 . S
N764 H771 0.984 1_545 S
N765 C758 1.356 . S
N765 H768 0.984 . S
N765 H769 0.985 . S
H766 N761 0.984 . S
H767 N761 0.985 . S
H768 N765 0.984 . S
H769 N765 0.985 . S
H770 N764 0.984 . S
H771 N764 0.984 1_565 S
H772 N760 0.984 . S
H773 N760 0.985 . S
C774 C775 1.363 . S
C774 C780 1.379 . S
C774 N782 1.356 . S
C775 C774 1.363 . S
C775 C781 1.363 . S
C776 C777 1.363 . S
C776 C781 1.379 . S
C776 N783 1.356 . S
C777 C776 1.363 . S
C777 C780 1.363 . S
N778 C780 1.356 . S
N778 H790 0.984 . S
N778 H791 0.985 . S
N779 C781 1.356 . S
N779 H784 0.984 . S
N779 H785 0.985 . S
C780 C774 1.379 . S
C780 C777 1.363 . S
C780 N778 1.356 . S
C781 C775 1.363 . S
C781 C776 1.379 . S
C781 N779 1.356 . S
N782 C774 1.356 . S
N782 H788 0.984 . S
N782 H789 0.984 . S
N783 C776 1.356 . S
N783 H786 0.984 . S
N783 H787 0.985 . S
H784 N779 0.984 . S
H785 N779 0.985 . S
H786 N783 0.984 . S
H787 N783 0.985 . S
H788 N782 0.984 . S
H789 N782 0.984 . S
H790 N778 0.984 . S
H791 N778 0.985 . S
C792 C793 1.363 . S
C792 C798 1.379 . S
C792 N800 1.356 . S
C793 C792 1.363 . S
C793 C799 1.363 . S
C794 C795 1.363 . S
C794 C799 1.379 1_455 S
C794 N801 1.356 . S
C795 C794 1.363 . S
C795 C798 1.363 1_455 S
N796 C798 1.356 . S
N796 H808 0.984 . S
N796 H809 0.985 . S
N797 C799 1.356 . S
N797 H802 0.984 . S
N797 H803 0.985 1_655 S
C798 C792 1.379 . S
C798 C795 1.363 1_655 S
C798 N796 1.356 . S
C799 C793 1.363 . S
C799 C794 1.379 1_655 S
C799 N797 1.356 . S
N800 C792 1.356 . S
N800 H806 0.984 . S
N800 H807 0.984 . S
N801 C794 1.356 . S
N801 H804 0.984 . S
N801 H805 0.985 . S
H802 N797 0.984 . S
H803 N797 0.985 1_455 S
H804 N801 0.984 . S
H805 N801 0.985 . S
H806 N800 0.984 . S
H807 N800 0.984 . S
H808 N796 0.984 . S
H809 N796 0.985 . S
C810 C811 1.363 . S
C810 C816 1.379 . S
C810 N818 1.356 . S
C811 C810 1.363 . S
C811 C817 1.363 . S
C812 C813 1.363 . S
C812 C817 1.379 1_545 S
C812 N819 1.356 . S
C813 C812 1.363 . S
C813 C816 1.363 1_545 S
N814 C816 1.356 1_545 S
N814 H826 0.984 1_545 S
N814 H827 0.985 . S
N815 C817 1.356 . S
N815 H820 0.984 . S
N815 H821 0.985 . S
C816 C810 1.379 . S
C816 C813 1.363 1_565 S
C816 N814 1.356 1_565 S
C817 C811 1.363 . S
C817 C812 1.379 1_565 S
C817 N815 1.356 . S
N818 C810 1.356 . S
N818 H824 0.984 . S
N818 H825 0.984 . S
N819 C812 1.356 . S
N819 H822 0.984 . S
N819 H823 0.985 . S
H820 N815 0.984 . S
H821 N815 0.985 . S
H822 N819 0.984 . S
H823 N819 0.985 . S
H824 N818 0.984 . S
H825 N818 0.984 . S
H826 N814 0.984 1_565 S
H827 N814 0.985 . S
C828 C829 1.363 . S
C828 C834 1.379 . S
C828 N836 1.356 . S
C829 C828 1.363 . S
C829 C835 1.363 . S
C830 C831 1.363 . S
C830 C835 1.379 . S
C830 N837 1.356 . S
C831 C830 1.363 . S
C831 C834 1.363 . S
N832 C834 1.356 . S
N832 H844 0.984 . S
N832 H845 0.985 . S
N833 C835 1.356 . S
N833 H838 0.984 . S
N833 H839 0.985 . S
C834 C828 1.379 . S
C834 C831 1.363 . S
C834 N832 1.356 . S
C835 C829 1.363 . S
C835 C830 1.379 . S
C835 N833 1.356 . S
N836 C828 1.356 . S
N836 H842 0.984 . S
N836 H843 0.984 . S
N837 C830 1.356 . S
N837 H840 0.984 . S
N837 H841 0.985 . S
H838 N833 0.984 . S
H839 N833 0.985 . S
H840 N837 0.984 . S
H841 N837 0.985 . S
H842 N836 0.984 . S
H843 N836 0.984 . S
H844 N832 0.984 . S
H845 N832 0.985 . S
C846 C847 1.363 . S
C846 C852 1.379 1_655 S
C846 N854 1.356 . S
C847 C846 1.363 . S
C847 C853 1.363 1_655 S
C848 C849 1.363 . S
C848 C853 1.379 . S
C848 N855 1.356 . S
C849 C848 1.363 . S
C849 C852 1.363 . S
N850 C852 1.356 . S
N850 H862 0.984 1_455 S
N850 H863 0.985 . S
N851 C853 1.356 . S
N851 H856 0.984 . S
N851 H857 0.985 . S
C852 C846 1.379 1_455 S
C852 C849 1.363 . S
C852 N850 1.356 . S
C853 C847 1.363 1_455 S
C853 C848 1.379 . S
C853 N851 1.356 . S
N854 C846 1.356 . S
N854 H860 0.984 . S
N854 H861 0.984 . S
N855 C848 1.356 . S
N855 H858 0.984 . S
N855 H859 0.985 . S
H856 N851 0.984 . S
H857 N851 0.985 . S
H858 N855 0.984 . S
H859 N855 0.985 . S
H860 N854 0.984 . S
H861 N854 0.984 . S
H862 N850 0.984 1_655 S
H863 N850 0.985 . S
C864 C865 1.363 1_545 S
C864 C870 1.379 . S
C864 N872 1.359 . S
C865 C864 1.363 1_565 S
C865 C871 1.363 . S
C866 C867 1.363 . S
C866 C871 1.379 1_545 S
C866 N873 1.356 . S
C867 C866 1.363 . S
C867 C870 1.363 . S
N868 C870 1.356 . S
N868 H880 0.984 . S
N868 H881 0.985 . S
N869 C871 1.356 . S
N869 H874 0.984 . S
N869 H875 0.985 . S
C870 C864 1.379 . S
C870 C867 1.363 . S
C870 N868 1.356 . S
C871 C865 1.363 . S
C871 C866 1.379 1_565 S
C871 N869 1.356 . S
N872 C864 1.359 . S
N872 H878 0.984 . S
N872 H879 0.982 1_545 S
N873 C866 1.356 . S
N873 H876 0.984 . S
N873 H877 0.985 . S
H874 N869 0.984 . S
H875 N869 0.985 . S
H876 N873 0.984 . S
H877 N873 0.985 . S
H878 N872 0.984 . S
H879 N872 0.982 1_565 S
H880 N868 0.984 . S
H881 N868 0.985 . S
C882 C883 1.363 . S
C882 C888 1.379 . S
C882 N890 1.356 . S
C883 C882 1.363 . S
C883 C889 1.363 . S
C884 C885 1.363 . S
C884 C889 1.379 . S
C884 N891 1.356 . S
C885 C884 1.363 . S
C885 C888 1.363 . S
N886 C888 1.356 . S
N886 H898 0.984 . S
N886 H899 0.985 . S
N887 C889 1.356 . S
N887 H892 0.984 . S
N887 H893 0.985 . S
C888 C882 1.379 . S
C888 C885 1.363 . S
C888 N886 1.356 . S
C889 C883 1.363 . S
C889 C884 1.379 . S
C889 N887 1.356 . S
N890 C882 1.356 . S
N890 H896 0.984 . S
N890 H897 0.984 . S
N891 C884 1.356 . S
N891 H894 0.984 . S
N891 H895 0.985 . S
H892 N887 0.984 . S
H893 N887 0.985 . S
H894 N891 0.984 . S
H895 N891 0.985 . S
H896 N890 0.984 . S
H897 N890 0.984 . S
H898 N886 0.984 . S
H899 N886 0.985 . S
C900 C901 1.363 . S
C900 C906 1.379 . S
C900 N908 1.356 . S
C901 C900 1.363 . S
C901 C907 1.363 . S
C902 C903 1.363 . S
C902 C907 1.379 1_455 S
C902 N909 1.356 . S
C903 C902 1.363 . S
C903 C906 1.363 1_455 S
N904 C906 1.356 1_455 S
N904 H916 0.984 . S
N904 H917 0.985 . S
N905 C907 1.356 . S
N905 H910 0.984 . S
N905 H911 0.985 . S
C906 C900 1.379 . S
C906 C903 1.363 1_655 S
C906 N904 1.356 1_655 S
C907 C901 1.363 . S
C907 C902 1.379 1_655 S
C907 N905 1.356 . S
N908 C900 1.356 . S
N908 H914 0.984 . S
N908 H915 0.984 . S
N909 C902 1.356 . S
N909 H912 0.984 . S
N909 H913 0.985 . S
H910 N905 0.984 . S
H911 N905 0.985 . S
H912 N909 0.984 . S
H913 N909 0.985 . S
H914 N908 0.984 . S
H915 N908 0.984 . S
H916 N904 0.984 . S
H917 N904 0.985 . S
C918 C919 1.363 . S
C918 C924 1.379 1_545 S
C918 N926 1.356 . S
C919 C918 1.363 . S
C919 C925 1.363 1_545 S
C920 C921 1.363 . S
C920 C925 1.379 . S
C920 N927 1.356 . S
C921 C920 1.363 . S
C921 C924 1.363 . S
N922 C924 1.356 . S
N922 H934 0.984 . S
N922 H935 0.985 . S
N923 C925 1.356 1_545 S
N923 H928 0.984 . S
N923 H929 0.985 . S
C924 C918 1.379 1_565 S
C924 C921 1.363 . S
C924 N922 1.356 . S
C925 C919 1.363 1_565 S
C925 C920 1.379 . S
C925 N923 1.356 1_565 S
N926 C918 1.356 . S
N926 H932 0.984 . S
N926 H933 0.984 . S
N927 C920 1.356 . S
N927 H930 0.984 . S
N927 H931 0.985 . S
H928 N923 0.984 . S
H929 N923 0.985 . S
H930 N927 0.984 . S
H931 N927 0.985 . S
H932 N926 0.984 . S
H933 N926 0.984 . S
H934 N922 0.984 . S
H935 N922 0.985 . S
C397 N2 0.897 . S
C399 N266 0.897 . S
C415 N299 0.897 . S
C417 N35 0.897 . S
C433 N332 0.897 . S
C435 N68 0.897 . S
C451 N101 0.897 . S
C453 N365 0.897 . S
C469 N134 0.897 . S
C471 N200 0.897 . S
C487 N167 0.897 . S
C489 N233 0.897 . S
C505 N244 1.857 . S
C507 C21 1.831 . S
C523 C54 1.831 . S
C525 N277 1.857 . S
C541 N310 1.857 . S
C543 C87 1.831 . S
C559 N343 1.857 . S
C561 C120 1.831 . S
C577 N376 1.857 . S
C579 C153 1.831 . S
C595 N211 1.857 . S
C597 C186 1.831 . S
C613 N178 1.857 . S
C615 C219 1.831 . S
C631 C252 1.831 . S
C633 N13 1.857 . S
C649 C285 1.831 . S
C651 N46 1.857 . S
C667 N79 1.857 . S
C669 C318 1.831 . S
C685 N112 1.857 . S
C687 C351 1.831 . S
C703 N145 1.857 . S
C705 C384 1.831 . S
C721 C183 1.315 . S
C723 C7 1.201 . S
C739 C18 1.316 . S
C741 C40 1.201 . S
C757 C73 1.201 . S
C759 C51 1.315 . S
C775 C84 1.316 . S
C777 C106 1.201 . S
C793 C117 1.315 . S
C795 C139 1.201 . S
C811 C150 1.315 . S
C813 C172 1.201 . S
C829 C205 1.201 . S
C831 C249 1.315 . S
C847 C238 1.201 . S
C849 C282 1.315 . S
C865 C271 1.201 . S
C867 C315 1.315 . S
C883 C348 1.316 . S
C885 C304 1.201 . S
C901 C381 1.315 . S
C903 C337 1.201 . S
C919 C370 1.201 . S
C921 C216 1.316 . S
