# Generated by pormake.
# Topology uki, (4)-cn, num edge types: 1
# Building blocks:
#     Node 0, Type 0, BuildingBlock: ICAMEG_clean_sbu_1, # of connection points: 4
#     Node 1, Type 0, BuildingBlock: ICAMEG_clean_sbu_1, # of connection points: 4
#     Node 2, Type 0, BuildingBlock: ICAMEG_clean_sbu_1, # of connection points: 4
#     Node 3, Type 0, BuildingBlock: ICAMEG_clean_sbu_1, # of connection points: 4
#     Node 4, Type 0, BuildingBlock: ICAMEG_clean_sbu_1, # of connection points: 4
#     Node 5, Type 0, BuildingBlock: ICAMEG_clean_sbu_1, # of connection points: 4
#     Node 6, Type 0, BuildingBlock: ICAMEG_clean_sbu_1, # of connection points: 4
#     Node 7, Type 0, BuildingBlock: ICAMEG_clean_sbu_1, # of connection points: 4
#     Node 8, Type 0, BuildingBlock: ICAMEG_clean_sbu_1, # of connection points: 4
#     Node 9, Type 0, BuildingBlock: ICAMEG_clean_sbu_1, # of connection points: 4
#     Node 10, Type 0, BuildingBlock: ICAMEG_clean_sbu_1, # of connection points: 4
#     Node 11, Type 0, BuildingBlock: ICAMEG_clean_sbu_1, # of connection points: 4
#     Node 12, Type 0, BuildingBlock: ICAMEG_clean_sbu_1, # of connection points: 4
#     Node 13, Type 0, BuildingBlock: ICAMEG_clean_sbu_1, # of connection points: 4
#     Node 14, Type 0, BuildingBlock: ICAMEG_clean_sbu_1, # of connection points: 4
#     Node 15, Type 0, BuildingBlock: ICAMEG_clean_sbu_1, # of connection points: 4
#     Edge 16, Type (0, 0), BuildingBlock: XUDNAN_clean_linker_2, # of connection points: 2
#     Edge 17, Type (0, 0), BuildingBlock: XUDNAN_clean_linker_2, # of connection points: 2
#     Edge 18, Type (0, 0), BuildingBlock: XUDNAN_clean_linker_2, # of connection points: 2
#     Edge 19, Type (0, 0), BuildingBlock: XUDNAN_clean_linker_2, # of connection points: 2
#     Edge 20, Type (0, 0), BuildingBlock: XUDNAN_clean_linker_2, # of connection points: 2
#     Edge 21, Type (0, 0), BuildingBlock: XUDNAN_clean_linker_2, # of connection points: 2
#     Edge 22, Type (0, 0), BuildingBlock: XUDNAN_clean_linker_2, # of connection points: 2
#     Edge 23, Type (0, 0), BuildingBlock: XUDNAN_clean_linker_2, # of connection points: 2
#     Edge 24, Type (0, 0), BuildingBlock: XUDNAN_clean_linker_2, # of connection points: 2
#     Edge 25, Type (0, 0), BuildingBlock: XUDNAN_clean_linker_2, # of connection points: 2
#     Edge 26, Type (0, 0), BuildingBlock: XUDNAN_clean_linker_2, # of connection points: 2
#     Edge 27, Type (0, 0), BuildingBlock: XUDNAN_clean_linker_2, # of connection points: 2
#     Edge 28, Type (0, 0), BuildingBlock: XUDNAN_clean_linker_2, # of connection points: 2
#     Edge 29, Type (0, 0), BuildingBlock: XUDNAN_clean_linker_2, # of connection points: 2
#     Edge 30, Type (0, 0), BuildingBlock: XUDNAN_clean_linker_2, # of connection points: 2
#     Edge 31, Type (0, 0), BuildingBlock: XUDNAN_clean_linker_2, # of connection points: 2
#     Edge 32, Type (0, 0), BuildingBlock: XUDNAN_clean_linker_2, # of connection points: 2
#     Edge 33, Type (0, 0), BuildingBlock: XUDNAN_clean_linker_2, # of connection points: 2
#     Edge 34, Type (0, 0), BuildingBlock: XUDNAN_clean_linker_2, # of connection points: 2
#     Edge 35, Type (0, 0), BuildingBlock: XUDNAN_clean_linker_2, # of connection points: 2
#     Edge 36, Type (0, 0), BuildingBlock: XUDNAN_clean_linker_2, # of connection points: 2
#     Edge 37, Type (0, 0), BuildingBlock: XUDNAN_clean_linker_2, # of connection points: 2
#     Edge 38, Type (0, 0), BuildingBlock: XUDNAN_clean_linker_2, # of connection points: 2
#     Edge 39, Type (0, 0), BuildingBlock: XUDNAN_clean_linker_2, # of connection points: 2
#     Edge 40, Type (0, 0), BuildingBlock: XUDNAN_clean_linker_2, # of connection points: 2
#     Edge 41, Type (0, 0), BuildingBlock: XUDNAN_clean_linker_2, # of connection points: 2
#     Edge 42, Type (0, 0), BuildingBlock: XUDNAN_clean_linker_2, # of connection points: 2
#     Edge 43, Type (0, 0), BuildingBlock: XUDNAN_clean_linker_2, # of connection points: 2
#     Edge 44, Type (0, 0), BuildingBlock: XUDNAN_clean_linker_2, # of connection points: 2
#     Edge 45, Type (0, 0), BuildingBlock: XUDNAN_clean_linker_2, # of connection points: 2
#     Edge 46, Type (0, 0), BuildingBlock: XUDNAN_clean_linker_2, # of connection points: 2
#     Edge 47, Type (0, 0), BuildingBlock: XUDNAN_clean_linker_2, # of connection points: 2
# Relax obj value: 0.015
# Max RMSD: 0.106
# Mean RMSD: 0.106
data_MOF--net-uki--node1-ICAMEG_clean_sbu_1--edge1-XUDNAN_clean_linker_2
_symmetry_space_group_name_H-M    P1
_symmetry_Int_Tables_number       1
_symmetry_cell_setting            triclinic
loop_
_symmetry_equiv_pos_as_xyz
'x, y, z'
_cell_length_a     33.081455
_cell_length_b     33.146739
_cell_length_c     78.084028
_cell_angle_alpha  89.937812
_cell_angle_beta   90.0309
_cell_angle_gamma 90.006016
loop_
_atom_site_label
_atom_site_type_symbol
_atom_site_fract_x
_atom_site_fract_y
_atom_site_fract_z
_atom_type_partial_charge
Co0 Co 0.11496 0.2051 0.28361 0.0
Co1 Co 0.09093 0.28308 0.31138 0.0
O2 O 0.10618 0.22721 0.30652 0.0
C3 C 0.05658 0.13759 0.28301 0.0
O4 O 0.0419 0.15397 0.269 0.0
C5 C 0.16728 0.26963 0.33055 0.0
O6 O 0.18017 0.24896 0.31733 0.0
O7 O 0.13191 0.30439 0.29503 0.0
O8 O 0.14372 0.25496 0.27602 0.0
H9 H 0.05366 0.42543 0.29588 0.0
H10 H 0.13897 0.15644 0.31386 0.0
O11 O 0.0857 0.15468 0.29093 0.0
H12 H 0.2649 0.17912 0.28149 0.0
H13 H 0.15143 0.09534 0.24175 0.0
H14 H 0.10742 0.23664 0.2482 0.0
H15 H 0.20001 0.20582 0.27082 0.0
H16 H 0.14082 0.12451 0.27045 0.0
O17 O 0.13227 0.28576 0.33034 0.0
H18 H 0.07211 0.35467 0.29005 0.0
H19 H 0.07809 0.33037 0.34341 0.0
H20 H 0.11774 0.20872 0.21927 0.0
H21 H 0.20314 0.12889 0.3249 0.0
H22 H 0.13989 0.13757 0.21591 0.0
H23 H 0.26673 0.14034 0.30872 0.0
O24 O 0.06326 0.22906 0.2754 0.0
H25 H 0.04165 0.19577 0.35969 0.0
H26 H 0.0035 0.29969 0.31744 0.0
H27 H 0.95198 0.27328 0.33733 0.0
H28 H 0.971 0.22103 0.35869 0.0
H29 H 0.09211 0.22274 0.33942 0.0
H30 H 0.05991 0.40095 0.34983 0.0
H31 H 0.04743 0.44897 0.32596 0.0
O32 O 0.04949 0.28173 0.2926 0.0
C33 C 0.14838 0.29097 0.28141 0.0
C34 C 0.05886 0.40476 0.3064 0.0
C35 C 0.06243 0.39102 0.33667 0.0
N36 N 0.07583 0.33836 0.31638 0.0
C37 C 0.0692 0.36463 0.30317 0.0
C38 C 0.07278 0.35113 0.33296 0.0
C39 C 0.05542 0.41795 0.32327 0.0
C40 C 0.16641 0.16106 0.30661 0.0
N41 N 0.16567 0.18251 0.29166 0.0
C42 C 0.2027 0.14558 0.31298 0.0
C43 C 0.23838 0.1521 0.30392 0.0
C44 C 0.23738 0.1739 0.28865 0.0
C45 C 0.20055 0.18903 0.28269 0.0
C46 C 0.14184 0.1264 0.24305 0.0
C47 C 0.11718 0.20569 0.24684 0.0
C48 C 0.1358 0.14309 0.25926 0.0
N49 N 0.12366 0.1823 0.261 0.0
C50 C 0.12293 0.19003 0.23043 0.0
C51 C 0.13535 0.15011 0.22855 0.0
C52 C 0.04176 0.25937 0.27968 0.0
C53 C 0.03302 0.21859 0.35046 0.0
C54 C 0.01194 0.27678 0.32662 0.0
C55 C 0.98267 0.26204 0.33789 0.0
C56 C 0.99337 0.23275 0.34988 0.0
N57 N 0.05079 0.26285 0.32731 0.0
C58 C 0.06148 0.23405 0.33899 0.0
Co59 Co 0.20241 0.89154 0.73114 0.0
Co60 Co 0.26796 0.91672 0.69823 0.0
O61 O 0.2152 0.90029 0.70698 0.0
C62 C 0.14375 0.95137 0.71833 0.0
O63 O 0.17453 0.96905 0.71086 0.0
C64 C 0.24793 0.8408 0.68064 0.0
O65 O 0.23685 0.82756 0.69576 0.0
O66 O 0.29538 0.8749 0.71222 0.0
O67 O 0.25541 0.86304 0.73506 0.0
H68 H 0.41433 0.95551 0.70296 0.0
H69 H 0.14343 0.86638 0.70456 0.0
O70 O 0.14924 0.92013 0.7276 0.0
H71 H 0.17817 0.74203 0.736 0.0
H72 H 0.10922 0.85891 0.78017 0.0
H73 H 0.24811 0.8967 0.76377 0.0
H74 H 0.20843 0.80721 0.74422 0.0
H75 H 0.12718 0.86893 0.74979 0.0
O76 O 0.26225 0.87636 0.67903 0.0
H77 H 0.34737 0.93534 0.71394 0.0
H78 H 0.30095 0.93118 0.66325 0.0
H79 H 0.23156 0.88664 0.79427 0.0
H80 H 0.11208 0.80194 0.69606 0.0
H81 H 0.16166 0.86763 0.80264 0.0
H82 H 0.12956 0.73914 0.71178 0.0
O83 O 0.22803 0.94333 0.7376 0.0
H84 H 0.16256 0.96791 0.65725 0.0
H85 H 0.28097 0.00466 0.6923 0.0
H86 H 0.24651 0.05709 0.67527 0.0
H87 H 0.18691 0.03878 0.65754 0.0
H88 H 0.19753 0.91658 0.67471 0.0
H89 H 0.36752 0.95087 0.6517 0.0
H90 H 0.42471 0.96338 0.67163 0.0
O91 O 0.27454 0.95705 0.71737 0.0
C92 C 0.28805 0.85805 0.72657 0.0
C93 C 0.38961 0.95029 0.69415 0.0
C94 C 0.36335 0.94763 0.66538 0.0
N95 N 0.32024 0.93248 0.68925 0.0
C96 C 0.35161 0.939 0.7003 0.0
C97 C 0.32576 0.9364 0.67199 0.0
C98 C 0.39542 0.95466 0.67657 0.0
C99 C 0.15079 0.83928 0.71161 0.0
N100 N 0.17753 0.84061 0.72494 0.0
C101 C 0.13309 0.80284 0.70668 0.0
C102 C 0.14298 0.7676 0.71549 0.0
C103 C 0.17028 0.7692 0.72907 0.0
C104 C 0.18739 0.80618 0.73364 0.0
C105 C 0.13979 0.86714 0.77668 0.0
C106 C 0.21769 0.88818 0.7673 0.0
C107 C 0.15011 0.87296 0.75951 0.0
N108 N 0.1887 0.88318 0.75502 0.0
C109 C 0.20847 0.88264 0.7846 0.0
C110 C 0.16923 0.87202 0.78928 0.0
C111 C 0.25693 0.96453 0.73161 0.0
C112 C 0.18857 0.97623 0.66488 0.0
C113 C 0.25491 0.99652 0.68471 0.0
C114 C 0.23561 0.0263 0.67504 0.0
C115 C 0.2022 0.01601 0.66508 0.0
N116 N 0.24134 0.95758 0.68446 0.0
C117 C 0.2086 0.94725 0.67473 0.0
Co118 Co 0.89671 0.80396 0.27313 0.0
Co119 Co 0.9167 0.73228 0.30423 0.0
O120 O 0.90068 0.78617 0.29684 0.0
C121 C 0.95453 0.86013 0.28921 0.0
O122 O 0.97122 0.82828 0.29628 0.0
C123 C 0.8346 0.74361 0.31775 0.0
O124 O 0.82567 0.75524 0.30214 0.0
O125 O 0.88087 0.70621 0.28698 0.0
O126 O 0.87018 0.7522 0.26628 0.0
H127 H 0.96244 0.589 0.29623 0.0
H128 H 0.86546 0.85631 0.30089 0.0
O129 O 0.92388 0.85607 0.27946 0.0
H130 H 0.74792 0.82742 0.26402 0.0
H131 H 0.87211 0.9068 0.22682 0.0
H132 H 0.90986 0.76584 0.23921 0.0
H133 H 0.81526 0.80029 0.25686 0.0
H134 H 0.87614 0.8824 0.25663 0.0
O135 O 0.87067 0.73263 0.32127 0.0
H136 H 0.9432 0.65739 0.28677 0.0
H137 H 0.92251 0.69238 0.33834 0.0
H138 H 0.90582 0.78884 0.20921 0.0
H139 H 0.79873 0.88429 0.30848 0.0
H140 H 0.88685 0.85981 0.20286 0.0
H141 H 0.73936 0.86974 0.29 0.0
O142 O 0.9501 0.77999 0.26761 0.0
H143 H 0.95146 0.83059 0.35093 0.0
H144 H 0.00294 0.72115 0.31418 0.0
H145 H 0.04886 0.75394 0.33481 0.0
H146 H 0.02315 0.80906 0.35338 0.0
H147 H 0.90669 0.79722 0.33002 0.0
H148 H 0.94126 0.62425 0.34836 0.0
H149 H 0.96154 0.57207 0.32722 0.0
O150 O 0.96232 0.73134 0.28712 0.0
C151 C 0.86618 0.71684 0.27256 0.0
C152 C 0.95381 0.61151 0.30556 0.0
C153 C 0.94186 0.63129 0.33482 0.0
N154 N 0.93211 0.6789 0.31201 0.0
C155 C 0.94301 0.65032 0.30029 0.0
C156 C 0.93122 0.66977 0.32907 0.0
C157 C 0.95325 0.60203 0.32296 0.0
C158 C 0.83985 0.85023 0.2927 0.0
N159 N 0.84428 0.82694 0.2784 0.0
C160 C 0.80211 0.86599 0.29709 0.0
C161 C 0.76879 0.85777 0.28673 0.0
C162 C 0.77358 0.83401 0.27216 0.0
C163 C 0.81176 0.8187 0.26818 0.0
C164 C 0.88032 0.87578 0.22941 0.0
C165 C 0.90129 0.79667 0.23654 0.0
C166 C 0.88273 0.86182 0.24627 0.0
N167 N 0.89293 0.82265 0.24964 0.0
C168 C 0.89918 0.80956 0.21953 0.0
C169 C 0.88858 0.8494 0.21598 0.0
C170 C 0.97149 0.75116 0.27358 0.0
C171 C 0.96299 0.80653 0.34294 0.0
C172 C 0.99156 0.74517 0.32219 0.0
C173 C 0.01768 0.76356 0.33388 0.0
C174 C 0.00323 0.79448 0.34429 0.0
N175 N 0.95214 0.75715 0.32096 0.0
C176 C 0.93773 0.7874 0.33114 0.0
Co177 Co 0.80381 0.09545 0.73043 0.0
Co178 Co 0.73712 0.10402 0.6969 0.0
O179 O 0.79203 0.10599 0.70625 0.0
C180 C 0.86219 0.04388 0.71173 0.0
O181 O 0.83294 0.03446 0.7011 0.0
C182 C 0.76625 0.18364 0.68466 0.0
O183 O 0.77652 0.19148 0.70056 0.0
O184 O 0.71785 0.14289 0.71447 0.0
O185 O 0.75231 0.12251 0.73768 0.0
H186 H 0.58561 0.09628 0.7003 0.0
H187 H 0.86507 0.13606 0.7088 0.0
O188 O 0.85576 0.06808 0.72407 0.0
H189 H 0.83534 0.23192 0.75537 0.0
H190 H 0.89415 0.08506 0.78217 0.0
H191 H 0.75556 0.06729 0.76013 0.0
H192 H 0.80151 0.16566 0.75433 0.0
H193 H 0.87827 0.09975 0.75193 0.0
O194 O 0.75052 0.14969 0.68091 0.0
H195 H 0.65498 0.09636 0.71183 0.0
H196 H 0.7027 0.11025 0.66168 0.0
H197 H 0.77005 0.0526 0.79049 0.0
H198 H 0.89986 0.20189 0.70943 0.0
H199 H 0.83978 0.06145 0.80169 0.0
H200 H 0.88496 0.25037 0.73282 0.0
O201 O 0.77517 0.04271 0.72925 0.0
H202 H 0.83114 0.05293 0.6513 0.0
H203 H 0.70788 0.02396 0.68462 0.0
H204 H 0.73191 0.97443 0.66339 0.0
H205 H 0.79391 0.98885 0.64652 0.0
H206 H 0.80634 0.10139 0.67282 0.0
H207 H 0.63379 0.11041 0.6496 0.0
H208 H 0.57465 0.1033 0.66896 0.0
O209 O 0.72198 0.0585 0.71265 0.0
C210 C 0.72356 0.14221 0.73063 0.0
C211 C 0.61113 0.09918 0.69172 0.0
C212 C 0.63817 0.10718 0.66327 0.0
N213 N 0.68289 0.10286 0.68743 0.0
C214 C 0.65051 0.0991 0.69817 0.0
C215 C 0.67712 0.10708 0.67018 0.0
C216 C 0.60501 0.10318 0.67414 0.0
C217 C 0.85872 0.15687 0.7191 0.0
N218 N 0.83147 0.14696 0.73155 0.0
C219 C 0.87838 0.19415 0.71936 0.0
C220 C 0.86997 0.22136 0.73247 0.0
C221 C 0.84211 0.21104 0.74512 0.0
C222 C 0.82298 0.17351 0.74444 0.0
C223 C 0.86363 0.08117 0.77745 0.0
C224 C 0.78593 0.07148 0.76493 0.0
C225 C 0.85447 0.08937 0.76033 0.0
N226 N 0.81595 0.08467 0.7543 0.0
C227 C 0.79397 0.063 0.78212 0.0
C228 C 0.83311 0.06793 0.78839 0.0
C229 C 0.73995 0.03555 0.72337 0.0
C230 C 0.80402 0.04636 0.65853 0.0
C231 C 0.73502 0.03034 0.6774 0.0
C232 C 0.7484 0.00224 0.66535 0.0
C233 C 0.78316 0.01038 0.65588 0.0
N234 N 0.75565 0.06557 0.67992 0.0
C235 C 0.78973 0.07377 0.67068 0.0
Co236 Co 0.09347 0.30897 0.97002 0.0
Co237 Co 0.06599 0.2338 0.94166 0.0
O238 O 0.08241 0.28888 0.94704 0.0
C239 C 0.02898 0.36326 0.95774 0.0
O240 O 0.00949 0.33054 0.9531 0.0
C241 C 0.14066 0.24573 0.92114 0.0
O242 O 0.15851 0.25748 0.93531 0.0
O243 O 0.10931 0.21047 0.9565 0.0
O244 O 0.12244 0.25818 0.97615 0.0
H245 H 0.0306 0.08978 0.95504 0.0
H246 H 0.11496 0.35886 0.93984 0.0
O247 O 0.06401 0.3604 0.96444 0.0
H248 H 0.24354 0.33406 0.97005 0.0
H249 H 0.13162 0.41604 0.01273 0.0
H250 H 0.09159 0.2739 0.005 0.0
H251 H 0.17942 0.30732 0.98151 0.0
H252 H 0.11833 0.38896 0.98386 0.0
O253 O 0.10382 0.23431 0.92147 0.0
H254 H 0.05023 0.15971 0.96189 0.0
H255 H 0.04803 0.19049 0.90908 0.0
H256 H 0.10491 0.29963 0.03408 0.0
H257 H 0.17836 0.38638 0.92797 0.0
H258 H 0.12508 0.3712 0.03809 0.0
H259 H 0.24326 0.37388 0.94308 0.0
O260 O 0.04246 0.285 0.97902 0.0
H261 H 0.00883 0.32745 0.89715 0.0
H262 H 0.97777 0.21782 0.93779 0.0
H263 H 0.92296 0.24712 0.92035 0.0
H264 H 0.93838 0.30231 0.89982 0.0
H265 H 0.06263 0.29757 0.91499 0.0
H266 H 0.02855 0.1208 0.90164 0.0
H267 H 0.01959 0.06995 0.92472 0.0
O268 O 0.02776 0.23284 0.96163 0.0
C269 C 0.12676 0.22266 0.97013 0.0
C270 C 0.03425 0.1117 0.94487 0.0
C271 C 0.03317 0.1291 0.9149 0.0
N272 N 0.04995 0.1792 0.93591 0.0
C273 C 0.04525 0.15137 0.94868 0.0
C274 C 0.04427 0.16848 0.91918 0.0
C275 C 0.02813 0.10059 0.92786 0.0
C276 C 0.14304 0.35366 0.94657 0.0
N277 N 0.14348 0.33173 0.96139 0.0
C278 C 0.17886 0.36917 0.93976 0.0
C279 C 0.21527 0.3621 0.94823 0.0
C280 C 0.21545 0.33974 0.96336 0.0
C281 C 0.17906 0.32464 0.96978 0.0
C282 C 0.12293 0.38479 0.01115 0.0
C283 C 0.10059 0.30501 0.00663 0.0
C284 C 0.11528 0.3693 0.99484 0.0
N285 N 0.10447 0.32982 0.99274 0.0
C286 C 0.10799 0.31944 0.02313 0.0
C287 C 0.11926 0.35961 0.02537 0.0
C288 C 0.02116 0.25434 0.97492 0.0
C289 C 1.00175 0.30337 0.90603 0.0
C290 C 0.98467 0.24195 0.92896 0.0
C291 C 0.95354 0.25834 0.91907 0.0
C292 C 0.96221 0.28928 0.90755 0.0
N293 N 0.02337 0.25592 0.9274 0.0
C294 C 0.03211 0.28623 0.91612 0.0
Co295 Co 0.28311 0.91294 0.02814 0.0
Co296 Co 0.22826 0.93507 0.06467 0.0
O297 O 0.27741 0.91787 0.05303 0.0
C298 C 0.34539 0.97113 0.03852 0.0
O299 O 0.31617 0.98846 0.04716 0.0
C300 C 0.24529 0.85635 0.08248 0.0
O301 O 0.24627 0.83755 0.06769 0.0
O302 O 0.19572 0.89526 0.05138 0.0
O303 O 0.22841 0.88703 0.02628 0.0
H304 H 0.08251 0.97684 0.06778 0.0
H305 H 0.34747 0.88179 0.05106 0.0
O306 O 0.33792 0.93956 0.02971 0.0
H307 H 0.29961 0.76377 0.01843 0.0
H308 H 0.36078 0.88444 0.97409 0.0
H309 H 0.22936 0.92556 0.99819 0.0
H310 H 0.27025 0.83113 0.01331 0.0
H311 H 0.35163 0.89033 0.00536 0.0
O312 O 0.23817 0.89409 0.08314 0.0
H313 H 0.14563 0.9566 0.05331 0.0
H314 H 0.20553 0.94784 0.1013 0.0
H315 H 0.23702 0.91968 0.96688 0.0
H316 H 0.37788 0.81503 0.05651 0.0
H317 H 0.30315 0.899 0.95464 0.0
H318 H 0.35387 0.75543 0.04015 0.0
O319 O 0.25797 0.96663 0.02409 0.0
H320 H 0.34839 0.97999 0.09913 0.0
H321 H 0.21844 0.02196 0.0738 0.0
H322 H 0.25983 0.07186 0.08935 0.0
H323 H 0.32535 0.05095 0.10213 0.0
H324 H 0.30622 0.93121 0.08333 0.0
H325 H 0.14301 0.96764 0.11628 0.0
H326 H 0.08096 0.98246 0.09949 0.0
O327 O 0.21804 0.97769 0.04693 0.0
C328 C 0.19827 0.88103 0.03621 0.0
C329 C 0.10939 0.9706 0.07523 0.0
C330 C 0.14332 0.96537 0.10246 0.0
N331 N 0.17929 0.95138 0.07643 0.0
C332 C 0.14523 0.95925 0.06711 0.0
C333 C 0.17861 0.95407 0.0939 0.0
C334 C 0.10853 0.9737 0.09303 0.0
C335 C 0.33711 0.85605 0.0438 0.0
N336 N 0.30731 0.86037 0.03182 0.0
C337 C 0.35433 0.8183 0.04698 0.0
C338 C 0.34082 0.78486 0.03781 0.0
C339 C 0.31036 0.78952 0.02563 0.0
C340 C 0.2938 0.82771 0.02281 0.0
C341 C 0.3318 0.89337 0.97927 0.0
C342 C 0.25811 0.91621 0.99297 0.0
C343 C 0.32646 0.89681 0.99696 0.0
N344 N 0.28988 0.90787 0.00358 0.0
C345 C 0.26232 0.91309 0.97522 0.0
C346 C 0.29944 0.90153 0.96836 0.0
C347 C 0.23197 0.9874 0.03225 0.0
C348 C 0.3199 0.98947 0.09362 0.0
C349 C 0.24701 0.01272 0.07925 0.0
C350 C 0.27025 0.04105 0.0881 0.0
C351 C 0.30698 0.02929 0.09528 0.0
N352 N 0.25999 0.97378 0.07759 0.0
C353 C 0.29584 0.96196 0.0847 0.0
Co354 Co 0.88972 0.71757 0.97083 0.0
Co355 Co 0.93131 0.77537 0.93869 0.0
O356 O 0.90528 0.72662 0.9471 0.0
C357 C 0.94126 0.64647 0.96324 0.0
O358 O 0.9705 0.67155 0.95924 0.0
C359 C 0.85779 0.76816 0.91726 0.0
O360 O 0.83763 0.76408 0.93163 0.0
O361 O 0.89033 0.80999 0.95012 0.0
O362 O 0.87169 0.77493 0.97352 0.0
H363 H 0.98982 0.91478 0.9435 0.0
H364 H 0.85827 0.66404 0.94344 0.0
O365 O 0.90725 0.65982 0.96842 0.0
H366 H 0.73769 0.72463 0.97015 0.0
H367 H 0.82903 0.6363 0.01885 0.0
H368 H 0.89868 0.76273 0.0034 0.0
H369 H 0.80591 0.74069 0.98093 0.0
H370 H 0.84841 0.64992 0.98888 0.0
O371 O 0.89609 0.77308 0.91763 0.0
H372 H 0.957 0.85285 0.9542 0.0
H373 H 0.95991 0.80204 0.90431 0.0
H374 H 0.87949 0.75054 0.03348 0.0
H375 H 0.79061 0.64694 0.93235 0.0
H376 H 0.84442 0.68691 0.04137 0.0
H377 H 0.72973 0.67749 0.94567 0.0
O378 O 0.94445 0.73328 0.97904 0.0
H379 H 0.97772 0.65799 0.90311 0.0
H380 H 0.02138 0.77563 0.93701 0.0
H381 H 0.07269 0.73175 0.9237 0.0
H382 H 0.05093 0.67245 0.90659 0.0
H383 H 0.92743 0.70253 0.91675 0.0
H384 H 0.99234 0.86361 0.89301 0.0
H385 H 0.00768 0.92043 0.91269 0.0
O386 O 0.96669 0.77836 0.95963 0.0
C387 C 0.87166 0.80681 0.96434 0.0
C388 C 0.98339 0.89018 0.93481 0.0
C389 C 0.98475 0.86148 0.90647 0.0
N390 N 0.95687 0.82378 0.92991 0.0
C391 C 0.96493 0.855 0.9408 0.0
C392 C 0.9663 0.82675 0.91292 0.0
C393 C 0.99337 0.89335 0.91752 0.0
C394 C 0.83191 0.67707 0.94945 0.0
N395 N 0.83605 0.70313 0.96289 0.0
C396 C 0.79368 0.66742 0.94306 0.0
C397 C 0.75954 0.68462 0.95052 0.0
C398 C 0.76399 0.7111 0.96425 0.0
C399 C 0.8027 0.7201 0.97028 0.0
C400 C 0.84423 0.66416 0.01557 0.0
C401 C 0.88317 0.73511 0.00671 0.0
C402 C 0.85536 0.672 0.99863 0.0
N403 N 0.87436 0.70723 0.99439 0.0
C404 C 0.8725 0.72831 0.02378 0.0
C405 C 0.85286 0.69258 0.0282 0.0
C406 C 0.96981 0.75975 0.97394 0.0
C407 C 0.98757 0.68379 0.9105 0.0
C408 C 0.01169 0.74984 0.92962 0.0
C409 C 0.04087 0.72515 0.92208 0.0
C410 C 0.02865 0.6919 0.91247 0.0
N411 N 0.97146 0.74173 0.9276 0.0
C412 C 0.95923 0.70919 0.9182 0.0
Co413 Co 0.70291 0.11086 0.02993 0.0
Co414 Co 0.76335 0.07011 0.06146 0.0
O415 O 0.71344 0.09483 0.05352 0.0
C416 C 0.62617 0.06536 0.0244 0.0
O417 O 0.64282 0.04863 0.0109 0.0
C418 C 0.75379 0.14141 0.08384 0.0
O419 O 0.74905 0.16275 0.06981 0.0
O420 O 0.79597 0.11296 0.05012 0.0
O421 O 0.75994 0.13046 0.02676 0.0
H422 H 0.905 0.01753 0.05523 0.0
H423 H 0.64975 0.14018 0.05791 0.0
O424 O 0.64592 0.09109 0.03324 0.0
H425 H 0.70614 0.2627 0.03117 0.0
H426 H 0.61801 0.17158 0.98297 0.0
H427 H 0.74642 0.10347 0.9969 0.0
H428 H 0.72353 0.19532 0.02002 0.0
H429 H 0.63361 0.15179 0.01273 0.0
O430 O 0.76033 0.10357 0.08287 0.0
H431 H 0.84136 0.04841 0.04524 0.0
H432 H 0.79237 0.04065 0.0954 0.0
H433 H 0.7322 0.12291 0.967 0.0
H434 H 0.63133 0.20697 0.06937 0.0
H435 H 0.66756 0.1572 0.95987 0.0
H436 H 0.65974 0.26883 0.05603 0.0
O437 O 0.71966 0.05685 0.02153 0.0
H438 H 0.64897 0.01747 0.09743 0.0
H439 H 0.76752 0.98023 0.06263 0.0
H440 H 0.72648 0.92672 0.07602 0.0
H441 H 0.66677 0.94524 0.09362 0.0
H442 H 0.69067 0.07 0.08366 0.0
H443 H 0.85567 0.01012 0.10599 0.0
H444 H 0.91244 0.99818 0.08582 0.0
O445 O 0.76692 0.03609 0.04028 0.0
C446 C 0.79202 0.1315 0.03588 0.0
C447 C 0.88043 0.02247 0.06414 0.0
C448 C 0.85276 0.01836 0.09263 0.0
N449 N 0.8131 0.046 0.0697 0.0
C450 C 0.84429 0.03982 0.05854 0.0
C451 C 0.81705 0.03577 0.08658 0.0
C452 C 0.8846 0.01166 0.0813 0.0
C453 C 0.66182 0.16696 0.05188 0.0
N454 N 0.68743 0.16383 0.03822 0.0
C455 C 0.65145 0.2047 0.05849 0.0
C456 C 0.66746 0.23939 0.05102 0.0
C457 C 0.69352 0.23597 0.03708 0.0
C458 C 0.70329 0.19772 0.03083 0.0
C459 C 0.64629 0.15668 0.98591 0.0
C460 C 0.71831 0.11851 0.99391 0.0
C461 C 0.65525 0.14537 0.00273 0.0
N462 N 0.69093 0.1266 0.00653 0.0
C463 C 0.71039 0.12939 0.97695 0.0
C464 C 0.67411 0.14861 0.97296 0.0
C465 C 0.74736 0.03249 0.02625 0.0
C466 C 0.67495 0.00903 0.08981 0.0
C467 C 0.74146 0.98851 0.07017 0.0
C468 C 0.71841 0.95809 0.07778 0.0
C469 C 0.68493 0.9685 0.08766 0.0
N470 N 0.73155 0.02819 0.07239 0.0
C471 C 0.69873 0.03863 0.08202 0.0
Co472 Co 0.61391 0.70598 0.7715 0.0
Co473 Co 0.58351 0.75356 0.80881 0.0
O474 O 0.60997 0.70971 0.79637 0.0
C475 C 0.5691 0.63254 0.78211 0.0
O476 O 0.55213 0.65436 0.79412 0.0
C477 C 0.66914 0.75659 0.81944 0.0
O478 O 0.6774 0.75292 0.80309 0.0
O479 O 0.6071 0.79536 0.79338 0.0
O480 O 0.63127 0.76374 0.77001 0.0
H481 H 0.50122 0.88015 0.815 0.0
H482 H 0.65605 0.64566 0.79306 0.0
O483 O 0.59558 0.64805 0.77221 0.0
H484 H 0.76341 0.71323 0.75992 0.0
H485 H 0.64975 0.63785 0.71596 0.0
H486 H 0.59034 0.75899 0.74256 0.0
H487 H 0.69189 0.732 0.75583 0.0
H488 H 0.6453 0.64375 0.7474 0.0
O489 O 0.63232 0.75763 0.82436 0.0
H490 H 0.53455 0.82512 0.79917 0.0
H491 H 0.57741 0.7747 0.84579 0.0
H492 H 0.59447 0.7545 0.71107 0.0
H493 H 0.72717 0.62567 0.79746 0.0
H494 H 0.62435 0.69358 0.69758 0.0
H495 H 0.78141 0.65968 0.78086 0.0
O496 O 0.55661 0.72253 0.76872 0.0
H497 H 0.58602 0.63063 0.84653 0.0
H498 H 0.50023 0.73722 0.82155 0.0
H499 H 0.46927 0.68501 0.83988 0.0
H500 H 0.51228 0.63122 0.8525 0.0
H501 H 0.61566 0.68322 0.82802 0.0
H502 H 0.54492 0.82947 0.86214 0.0
H503 H 0.50633 0.88259 0.84673 0.0
O504 O 0.53498 0.75044 0.79333 0.0
C505 C 0.62492 0.79538 0.77889 0.0
C506 C 0.51787 0.85714 0.82187 0.0
C507 C 0.54244 0.82872 0.84832 0.0
N508 N 0.55768 0.79661 0.82155 0.0
C509 C 0.53672 0.82584 0.81297 0.0
C510 C 0.56087 0.79785 0.83899 0.0
C511 C 0.52078 0.85851 0.83967 0.0
C512 C 0.67948 0.66025 0.78567 0.0
N513 N 0.66985 0.68974 0.77413 0.0
C514 C 0.71969 0.64895 0.78826 0.0
C515 C 0.75012 0.66809 0.77896 0.0
C516 C 0.74004 0.69815 0.76721 0.0
C517 C 0.6995 0.70868 0.76497 0.0
C518 C 0.63677 0.6646 0.72169 0.0
C519 C 0.60365 0.73252 0.73678 0.0
C520 C 0.63412 0.66808 0.73948 0.0
N521 N 0.61793 0.70185 0.74679 0.0
C522 C 0.60579 0.73009 0.71895 0.0
C523 C 0.62251 0.69588 0.71139 0.0
C524 C 0.52922 0.73881 0.7779 0.0
C525 C 0.56699 0.65398 0.84115 0.0
C526 C 0.51913 0.71389 0.827 0.0
C527 C 0.50144 0.68445 0.83738 0.0
C528 C 0.5256 0.65429 0.84447 0.0
N529 N 0.55974 0.71337 0.8238 0.0
C530 C 0.58363 0.68395 0.83072 0.0
Co531 Co 0.71579 0.39405 0.23374 0.0
Co532 Co 0.75422 0.40679 0.19276 0.0
O533 O 0.71203 0.38967 0.20875 0.0
C534 C 0.64318 0.44127 0.22433 0.0
O535 O 0.66359 0.45434 0.21104 0.0
C536 C 0.74351 0.32026 0.18423 0.0
O537 O 0.74435 0.3126 0.20073 0.0
O538 O 0.79667 0.37854 0.20647 0.0
O539 O 0.77231 0.37269 0.23329 0.0
H540 H 0.88922 0.46462 0.17646 0.0
H541 H 0.64669 0.35069 0.21811 0.0
O542 O 0.65923 0.41633 0.23477 0.0
H543 H 0.71654 0.24976 0.25391 0.0
H544 H 0.66278 0.38143 0.29393 0.0
H545 H 0.77877 0.42151 0.25812 0.0
H546 H 0.74133 0.31988 0.25249 0.0
H547 H 0.65928 0.3758 0.26245 0.0
O548 O 0.74611 0.3565 0.1789 0.0
H549 H 0.83531 0.44376 0.19643 0.0
H550 H 0.76281 0.4046 0.15473 0.0
H551 H 0.78372 0.42734 0.28953 0.0
H552 H 0.62067 0.28097 0.21926 0.0
H553 H 0.7254 0.40722 0.30766 0.0
H554 H 0.65576 0.22995 0.23723 0.0
O555 O 0.73691 0.45003 0.23237 0.0
H556 H 0.61947 0.4177 0.16344 0.0
H557 H 0.74641 0.48867 0.17713 0.0
H558 H 0.693 0.52429 0.16106 0.0
H559 H 0.62894 0.48875 0.15413 0.0
H560 H 0.67355 0.38339 0.17964 0.0
H561 H 0.81606 0.42463 0.13433 0.0
H562 H 0.87975 0.45505 0.14517 0.0
O563 O 0.76333 0.45763 0.20605 0.0
C564 C 0.8001 0.36794 0.22214 0.0
C565 C 0.86155 0.45153 0.17158 0.0
C566 C 0.82051 0.42904 0.14793 0.0
N567 N 0.79585 0.42331 0.17675 0.0
C568 C 0.83088 0.43979 0.18282 0.0
C569 C 0.7905 0.41767 0.15955 0.0
C570 C 0.85623 0.44611 0.15402 0.0
C571 C 0.66188 0.32873 0.22608 0.0
N572 N 0.6953 0.33937 0.2353 0.0
C573 C 0.64711 0.28927 0.22663 0.0
C574 C 0.66684 0.26064 0.2367 0.0
C575 C 0.70096 0.27174 0.24605 0.0
C576 C 0.7149 0.31146 0.24517 0.0
C577 C 0.68842 0.3902 0.28617 0.0
C578 C 0.75339 0.41242 0.26593 0.0
C579 C 0.68658 0.38715 0.26835 0.0
N580 N 0.71893 0.39799 0.25848 0.0
C581 C 0.75631 0.41591 0.2837 0.0
C582 C 0.72357 0.40466 0.29387 0.0
C583 C 0.75527 0.47069 0.22103 0.0
C584 C 0.64726 0.4335 0.16637 0.0
C585 C 0.71856 0.4731 0.17423 0.0
C586 C 0.68848 0.49336 0.16507 0.0
C587 C 0.65257 0.47338 0.16117 0.0
N588 N 0.71305 0.43405 0.17935 0.0
C589 C 0.67804 0.41418 0.17547 0.0
Co590 Co 0.40329 0.28815 0.77451 0.0
Co591 Co 0.41709 0.24971 0.81545 0.0
O592 O 0.39954 0.29187 0.79952 0.0
C593 C 0.45143 0.36027 0.7837 0.0
O594 O 0.46404 0.34014 0.79714 0.0
C595 C 0.33027 0.2593 0.82385 0.0
O596 O 0.32346 0.25898 0.80728 0.0
O597 O 0.38909 0.20731 0.80176 0.0
O598 O 0.38133 0.23191 0.77506 0.0
H599 H 0.4763 0.11535 0.83156 0.0
H600 H 0.36096 0.35753 0.79028 0.0
O601 O 0.42626 0.34435 0.77332 0.0
H602 H 0.25824 0.28884 0.755 0.0
H603 H 0.38988 0.34122 0.71434 0.0
H604 H 0.42986 0.22512 0.75006 0.0
H605 H 0.32828 0.26341 0.75611 0.0
H606 H 0.38479 0.34469 0.74583 0.0
O607 O 0.36644 0.25719 0.82943 0.0
H608 H 0.4547 0.16905 0.81166 0.0
H609 H 0.41531 0.24086 0.85346 0.0
H610 H 0.43518 0.22023 0.71864 0.0
H611 H 0.29134 0.3842 0.78943 0.0
H612 H 0.41511 0.2786 0.70054 0.0
H613 H 0.23942 0.3497 0.77173 0.0
O614 O 0.45918 0.26663 0.77562 0.0
H615 H 0.42716 0.38357 0.84523 0.0
H616 H 0.49961 0.25832 0.83051 0.0
H617 H 0.53504 0.31165 0.84663 0.0
H618 H 0.49876 0.37484 0.85407 0.0
H619 H 0.39301 0.32958 0.82899 0.0
H620 H 0.43611 0.18779 0.8738 0.0
H621 H 0.46701 0.12456 0.86288 0.0
O622 O 0.46796 0.24093 0.80198 0.0
C623 C 0.3775 0.20399 0.78622 0.0
C624 C 0.463 0.14282 0.83648 0.0
C625 C 0.4404 0.18346 0.86019 0.0
N626 N 0.4341 0.20816 0.8314 0.0
C627 C 0.45084 0.17338 0.82528 0.0
C628 C 0.4286 0.21336 0.84861 0.0
C629 C 0.45774 0.14799 0.85405 0.0
C630 C 0.3386 0.3426 0.78243 0.0
N631 N 0.34869 0.30913 0.77318 0.0
C632 C 0.2992 0.35773 0.78205 0.0
C633 C 0.27007 0.33832 0.77213 0.0
C634 C 0.28061 0.30416 0.76275 0.0
C635 C 0.32029 0.28986 0.76345 0.0
C636 C 0.39862 0.31556 0.72208 0.0
C637 C 0.42076 0.25052 0.74227 0.0
C638 C 0.39585 0.31737 0.73991 0.0
N639 N 0.40665 0.285 0.74975 0.0
C640 C 0.42398 0.24763 0.72448 0.0
C641 C 0.41276 0.2804 0.71435 0.0
C642 C 0.48044 0.24855 0.78685 0.0
C643 C 0.44326 0.35614 0.84209 0.0
C644 C 0.48367 0.28577 0.83366 0.0
C645 C 0.50384 0.31582 0.84283 0.0
C646 C 0.48346 0.35125 0.84702 0.0
N647 N 0.44428 0.29084 0.82883 0.0
C648 C 0.42403 0.32541 0.83297 0.0
Co649 Co 0.2977 0.60608 0.23201 0.0
Co650 Co 0.25723 0.58722 0.19177 0.0
O651 O 0.3003 0.60643 0.20691 0.0
C652 C 0.36949 0.55674 0.2234 0.0
O653 O 0.3486 0.54215 0.21054 0.0
C654 C 0.26839 0.67234 0.18133 0.0
O655 O 0.26987 0.68094 0.19772 0.0
O656 O 0.21553 0.61724 0.20513 0.0
O657 O 0.24142 0.62804 0.23142 0.0
H658 H 0.12156 0.52696 0.17831 0.0
H659 H 0.36657 0.64593 0.21462 0.0
O660 O 0.35402 0.58324 0.23325 0.0
H661 H 0.29963 0.75322 0.24787 0.0
H662 H 0.3539 0.62717 0.29126 0.0
H663 H 0.23558 0.58342 0.25764 0.0
H664 H 0.274 0.68335 0.24875 0.0
H665 H 0.35585 0.62796 0.25967 0.0
O666 O 0.26431 0.63581 0.17656 0.0
H667 H 0.17652 0.55062 0.19718 0.0
H668 H 0.24643 0.5843 0.15385 0.0
H669 H 0.23219 0.58241 0.28918 0.0
H670 H 0.39342 0.71534 0.21347 0.0
H671 H 0.29168 0.60439 0.30622 0.0
H672 H 0.35978 0.76956 0.23015 0.0
O673 O 0.27586 0.55035 0.23244 0.0
H674 H 0.39022 0.57243 0.16141 0.0
H675 H 0.2644 0.50327 0.1783 0.0
H676 H 0.31694 0.46555 0.16265 0.0
H677 H 0.38043 0.50017 0.15411 0.0
H678 H 0.337 0.60888 0.17722 0.0
H679 H 0.19209 0.56139 0.13453 0.0
H680 H 0.12918 0.53231 0.14674 0.0
O681 O 0.24907 0.5382 0.20647 0.0
C682 C 0.213 0.63068 0.22043 0.0
C683 C 0.14888 0.53945 0.17283 0.0
C684 C 0.18845 0.55882 0.14826 0.0
N685 N 0.21474 0.56849 0.17662 0.0
C686 C 0.18014 0.55277 0.18345 0.0
C687 C 0.21907 0.57182 0.15927 0.0
C688 C 0.15316 0.5425 0.15512 0.0
C689 C 0.35204 0.6693 0.22204 0.0
N690 N 0.31894 0.66058 0.23182 0.0
C691 C 0.36726 0.70857 0.22128 0.0
C692 C 0.34834 0.73899 0.23062 0.0
C693 C 0.31457 0.72984 0.24057 0.0
C694 C 0.30016 0.69025 0.24099 0.0
C695 C 0.32776 0.6176 0.28398 0.0
C696 C 0.26148 0.5933 0.26496 0.0
C697 C 0.32871 0.61792 0.2661 0.0
N698 N 0.29574 0.60605 0.25683 0.0
C699 C 0.25943 0.59254 0.28282 0.0
C700 C 0.29283 0.60483 0.29237 0.0
C701 C 0.25739 0.52778 0.22182 0.0
C702 C 0.36266 0.55703 0.16504 0.0
C703 C 0.29199 0.51848 0.17468 0.0
C704 C 0.32159 0.49701 0.16577 0.0
C705 C 0.35718 0.51647 0.16097 0.0
N706 N 0.29766 0.55821 0.17868 0.0
C707 C 0.33237 0.57756 0.17393 0.0
Co708 Co 0.6242 0.78583 0.47426 0.0
Co709 Co 0.58201 0.73402 0.44024 0.0
O710 O 0.60935 0.7807 0.45013 0.0
C711 C 0.57311 0.85698 0.46701 0.0
O712 O 0.54954 0.8327 0.45828 0.0
C713 C 0.65648 0.74045 0.41905 0.0
O714 O 0.67755 0.74126 0.4333 0.0
O715 O 0.62112 0.69642 0.45128 0.0
O716 O 0.64313 0.72846 0.47494 0.0
H717 H 0.51879 0.59621 0.44116 0.0
H718 H 0.65468 0.84534 0.44902 0.0
O719 O 0.60492 0.84338 0.47424 0.0
H720 H 0.77632 0.78197 0.47376 0.0
H721 H 0.6832 0.85813 0.52512 0.0
H722 H 0.61543 0.73433 0.50512 0.0
H723 H 0.70833 0.76217 0.48365 0.0
H724 H 0.66437 0.85024 0.49473 0.0
O725 O 0.61802 0.73777 0.41958 0.0
H726 H 0.55317 0.65536 0.45361 0.0
H727 H 0.55395 0.71322 0.40505 0.0
H728 H 0.63415 0.74072 0.53557 0.0
H729 H 0.72211 0.86625 0.43884 0.0
H730 H 0.66827 0.80302 0.54575 0.0
H731 H 0.78351 0.83438 0.45121 0.0
O732 O 0.5697 0.7682 0.48183 0.0
H733 H 0.54205 0.85727 0.40675 0.0
H734 H 0.49202 0.73764 0.43779 0.0
H735 H 0.4432 0.7853 0.4251 0.0
H736 H 0.46816 0.84566 0.40946 0.0
H737 H 0.58982 0.80902 0.41978 0.0
H738 H 0.51999 0.6545 0.39203 0.0
H739 H 0.50199 0.59554 0.41015 0.0
O740 O 0.54534 0.72936 0.46063 0.0
C741 C 0.64115 0.69751 0.46525 0.0
C742 C 0.52637 0.62176 0.43314 0.0
C743 C 0.52709 0.65446 0.40556 0.0
N744 N 0.55525 0.68781 0.43009 0.0
C745 C 0.54573 0.65539 0.44013 0.0
C746 C 0.54641 0.68757 0.41299 0.0
C747 C 0.51699 0.62139 0.41574 0.0
C748 C 0.68129 0.83163 0.45458 0.0
N749 N 0.67761 0.80278 0.46698 0.0
C750 C 0.71937 0.84347 0.44872 0.0
C751 C 0.75381 0.82554 0.45564 0.0
C752 C 0.7498 0.79612 0.46829 0.0
C753 C 0.71122 0.78499 0.47382 0.0
C754 C 0.66844 0.8308 0.52083 0.0
C755 C 0.63059 0.76136 0.50942 0.0
C756 C 0.65764 0.8262 0.50365 0.0
N757 N 0.63919 0.79168 0.49813 0.0
C758 C 0.64097 0.76488 0.5267 0.0
C759 C 0.66007 0.79986 0.5324 0.0
C760 C 0.54307 0.74456 0.47562 0.0
C761 C 0.53081 0.83103 0.4135 0.0
C762 C 0.50312 0.76387 0.43105 0.0
C763 C 0.47533 0.7907 0.42384 0.0
C764 C 0.48935 0.82453 0.41505 0.0
N765 N 0.54374 0.77052 0.42952 0.0
C766 C 0.55771 0.8035 0.42083 0.0
Co767 Co 0.80506 0.38266 0.52458 0.0
Co768 Co 0.75561 0.42638 0.55892 0.0
O769 O 0.80195 0.39921 0.54858 0.0
C770 C 0.87555 0.43582 0.52983 0.0
O771 O 0.85172 0.45875 0.53904 0.0
C772 C 0.76546 0.35397 0.58113 0.0
O773 O 0.76472 0.3318 0.56721 0.0
O774 O 0.71763 0.38578 0.5491 0.0
O775 O 0.748 0.36258 0.52524 0.0
H776 H 0.61629 0.48668 0.55957 0.0
H777 H 0.86805 0.35566 0.54902 0.0
O778 O 0.86216 0.40338 0.52314 0.0
H779 H 0.80484 0.23094 0.5274 0.0
H780 H 0.87358 0.32126 0.4733 0.0
H781 H 0.75029 0.38802 0.49458 0.0
H782 H 0.78233 0.29751 0.51693 0.0
H783 H 0.86833 0.3423 0.50352 0.0
O784 O 0.76221 0.39224 0.58007 0.0
H785 H 0.675 0.45257 0.54657 0.0
H786 H 0.73764 0.45675 0.59404 0.0
H787 H 0.75401 0.36706 0.46433 0.0
H788 H 0.8917 0.2897 0.55975 0.0
H789 H 0.81605 0.33344 0.4535 0.0
H790 H 0.85993 0.22676 0.54895 0.0
O791 O 0.78542 0.43595 0.51657 0.0
H792 H 0.88124 0.47127 0.58969 0.0
H793 H 0.75763 0.51638 0.55999 0.0
H794 H 0.80545 0.567 0.57117 0.0
H795 H 0.86781 0.54452 0.58613 0.0
H796 H 0.83279 0.42167 0.57816 0.0
H797 H 0.67943 0.49051 0.6076 0.0
H798 H 0.61828 0.50587 0.5903 0.0
O799 O 0.74821 0.4613 0.53809 0.0
C800 C 0.71783 0.36484 0.53538 0.0
C801 C 0.6428 0.48025 0.56723 0.0
C802 C 0.67822 0.48236 0.59419 0.0
N803 N 0.70981 0.45298 0.5695 0.0
C804 C 0.67618 0.46106 0.55993 0.0
C805 C 0.71104 0.46314 0.58645 0.0
C806 C 0.64393 0.49098 0.58448 0.0
C807 C 0.85436 0.32837 0.54415 0.0
N808 N 0.82405 0.33039 0.53229 0.0
C809 C 0.86776 0.29113 0.55032 0.0
C810 C 0.84988 0.25583 0.54427 0.0
C811 C 0.81896 0.25815 0.53218 0.0
C812 C 0.8063 0.29592 0.52632 0.0
C813 C 0.84635 0.33578 0.47788 0.0
C814 C 0.77721 0.37306 0.49 0.0
C815 C 0.84324 0.34782 0.49496 0.0
N816 N 0.80885 0.36596 0.50084 0.0
C817 C 0.77922 0.36142 0.47284 0.0
C818 C 0.81406 0.34261 0.46677 0.0
C819 C 0.7619 0.46259 0.5228 0.0
C820 C 0.85413 0.48144 0.58323 0.0
C821 C 0.78474 0.50636 0.56644 0.0
C822 C 0.81166 0.53516 0.57279 0.0
C823 C 0.84661 0.52253 0.5812 0.0
N824 N 0.79239 0.4661 0.56843 0.0
C825 C 0.82648 0.45349 0.57675 0.0
Co826 Co 0.40097 0.19332 0.48093 0.0
Co827 Co 0.42727 0.26441 0.44995 0.0
O828 O 0.40976 0.21005 0.45701 0.0
C829 C 0.45477 0.12867 0.46553 0.0
O830 O 0.45681 0.14765 0.45083 0.0
C831 C 0.35363 0.24516 0.42823 0.0
O832 O 0.34846 0.21078 0.43622 0.0
O833 O 0.38967 0.29063 0.46645 0.0
O834 O 0.36992 0.24375 0.48543 0.0
H835 H 0.47452 0.40622 0.46066 0.0
H836 H 0.37882 0.13518 0.45322 0.0
O837 O 0.43336 0.1423 0.47781 0.0
H838 H 0.25249 0.16146 0.48465 0.0
H839 H 0.36881 0.09474 0.52814 0.0
H840 H 0.40443 0.23555 0.51437 0.0
H841 H 0.31598 0.19445 0.49336 0.0
H842 H 0.37943 0.11584 0.49817 0.0
O843 O 0.38319 0.26834 0.43198 0.0
H844 H 0.45275 0.33769 0.46882 0.0
H845 H 0.43888 0.30622 0.41643 0.0
H846 H 0.39376 0.21584 0.5445 0.0
H847 H 0.3163 0.10097 0.44431 0.0
H848 H 0.37581 0.14497 0.55154 0.0
H849 H 0.2524 0.11416 0.46 0.0
O850 O 0.45151 0.22038 0.48847 0.0
H851 H 0.46694 0.16898 0.40262 0.0
H852 H 0.51446 0.27519 0.44192 0.0
H853 H 0.56242 0.24424 0.42171 0.0
H854 H 0.53871 0.19085 0.40179 0.0
H855 H 0.42029 0.2001 0.42324 0.0
H856 H 0.46027 0.37452 0.4077 0.0
H857 H 0.47839 0.42501 0.4299 0.0
O858 O 0.47093 0.26334 0.46776 0.0
C859 C 0.36933 0.27956 0.47949 0.0
C860 C 0.46685 0.38444 0.45087 0.0
C861 C 0.45879 0.36667 0.42114 0.0
N862 N 0.44488 0.31789 0.44311 0.0
C863 C 0.45462 0.34555 0.45541 0.0
C864 C 0.44663 0.32807 0.42616 0.0
C865 C 0.46896 0.39498 0.43361 0.0
C866 C 0.35149 0.14061 0.46033 0.0
N867 N 0.35136 0.16658 0.4739 0.0
C868 C 0.31599 0.12136 0.45512 0.0
C869 C 0.28013 0.12885 0.4639 0.0
C870 C 0.28016 0.15542 0.47771 0.0
C871 C 0.31622 0.17416 0.48254 0.0
C872 C 0.3765 0.12574 0.52523 0.0
C873 C 0.39631 0.20473 0.51732 0.0
C874 C 0.3826 0.13785 0.50829 0.0
N875 N 0.39211 0.177 0.50451 0.0
C876 C 0.39045 0.19371 0.53441 0.0
C877 C 0.38043 0.15393 0.53835 0.0
C878 C 0.47596 0.24626 0.48227 0.0
C879 C 0.47759 0.19238 0.41117 0.0
C880 C 0.50389 0.2518 0.43339 0.0
C881 C 0.5312 0.23449 0.42192 0.0
C882 C 0.51787 0.20458 0.41074 0.0
N883 N 0.46434 0.23981 0.43371 0.0
C884 C 0.45114 0.2104 0.42281 0.0
Co885 Co 0.2188 0.60221 0.51886 0.0
Co886 Co 0.25583 0.58943 0.56012 0.0
O887 O 0.2138 0.60537 0.54383 0.0
C888 C 0.14881 0.55088 0.52754 0.0
O889 O 0.1698 0.53838 0.54076 0.0
C890 C 0.26695 0.66487 0.58019 0.0
O891 O 0.30538 0.66338 0.5761 0.0
O892 O 0.29719 0.6208 0.54699 0.0
O893 O 0.27399 0.62656 0.51998 0.0
H894 H 0.39366 0.54025 0.57726 0.0
H895 H 0.14668 0.64114 0.53412 0.0
O896 O 0.16358 0.57689 0.51724 0.0
H897 H 0.21191 0.74672 0.4992 0.0
H898 H 0.16773 0.61396 0.4583 0.0
H899 H 0.28437 0.57954 0.49485 0.0
H900 H 0.24101 0.6783 0.50077 0.0
H901 H 0.16254 0.61815 0.48978 0.0
O902 O 0.24251 0.6385 0.57427 0.0
H903 H 0.33978 0.55952 0.55698 0.0
H904 H 0.26116 0.58677 0.59836 0.0
H905 H 0.29101 0.57524 0.46345 0.0
H906 H 0.11633 0.70908 0.53279 0.0
H907 H 0.23238 0.59252 0.44495 0.0
H908 H 0.14904 0.76242 0.51524 0.0
O909 O 0.24283 0.54742 0.52 0.0
H910 H 0.11996 0.56856 0.58751 0.0
H911 H 0.25186 0.50623 0.57477 0.0
H912 H 0.19958 0.46642 0.58966 0.0
H913 H 0.13304 0.49761 0.59612 0.0
H914 H 0.17291 0.60708 0.57244 0.0
H915 H 0.31421 0.56792 0.61909 0.0
H916 H 0.38102 0.54442 0.60856 0.0
O917 O 0.2688 0.53988 0.54644 0.0
C918 C 0.30095 0.63225 0.53143 0.0
C919 C 0.36466 0.55039 0.582 0.0
C920 C 0.32007 0.56592 0.60548 0.0
N921 N 0.29735 0.57411 0.57647 0.0
C922 C 0.33403 0.56128 0.57058 0.0
C923 C 0.29016 0.57656 0.59369 0.0
C924 C 0.35755 0.55275 0.59957 0.0
C925 C 0.16091 0.66414 0.52637 0.0
N926 N 0.19541 0.65573 0.51746 0.0
C927 C 0.14367 0.70258 0.52571 0.0
C928 C 0.16206 0.73251 0.51587 0.0
C929 C 0.19735 0.72372 0.50687 0.0
C930 C 0.21375 0.68496 0.50785 0.0
C931 C 0.19351 0.60643 0.46623 0.0
C932 C 0.25881 0.58737 0.48688 0.0
C933 C 0.19072 0.60868 0.48405 0.0
N934 N 0.22322 0.59941 0.49412 0.0
C935 C 0.26272 0.58476 0.46911 0.0
C936 C 0.2298 0.59441 0.45874 0.0
C937 C 0.26185 0.52718 0.53129 0.0
C938 C 0.14885 0.55466 0.58479 0.0
C939 C 0.22291 0.5199 0.57744 0.0
C940 C 0.19348 0.49729 0.58595 0.0
C941 C 0.15618 0.51483 0.58959 0.0
N942 N 0.21545 0.55891 0.5727 0.0
C943 C 0.17903 0.57638 0.57634 0.0
H944 H 0.17224 0.36839 0.28923 0.0
H945 H 0.17546 0.27896 0.24861 0.0
H946 H 0.20553 0.32921 0.22916 0.0
H947 H 0.14506 0.45119 0.26375 0.0
H948 H 0.17637 0.48722 0.27484 0.0
H949 H 0.15749 0.44356 0.286 0.0
H950 H 0.23061 0.42336 0.29434 0.0
H951 H 0.24966 0.46719 0.28331 0.0
H952 H 0.26826 0.41774 0.27783 0.0
H953 H 0.22847 0.39121 0.2132 0.0
H954 H 0.24971 0.45858 0.20292 0.0
H955 H 0.23537 0.5062 0.25428 0.0
C956 C 0.17986 0.3591 0.27634 0.0
C957 C 0.17128 0.31963 0.27049 0.0
C958 C 0.18171 0.3089 0.25347 0.0
C959 C 0.19874 0.33729 0.24227 0.0
C960 C 0.20579 0.37616 0.24833 0.0
C961 C 0.19736 0.38689 0.26505 0.0
C962 C 0.20729 0.43085 0.26827 0.0
C963 C 0.16929 0.45459 0.27352 0.0
C964 C 0.24097 0.43501 0.28173 0.0
C965 C 0.22194 0.4433 0.25066 0.0
C966 C 0.22058 0.41141 0.2393 0.0
C967 C 0.23031 0.41625 0.22204 0.0
C968 C 0.24212 0.45463 0.21629 0.0
C969 C 0.24459 0.48746 0.22782 0.0
C970 C 0.23445 0.48151 0.24523 0.0
H971 H 0.46688 0.78877 0.78853 0.0
H972 H 0.50167 0.70553 0.74818 0.0
H973 H 0.43993 0.72251 0.73228 0.0
H974 H 0.35561 0.7707 0.78528 0.0
H975 H 0.34369 0.82299 0.78909 0.0
H976 H 0.38835 0.80103 0.79851 0.0
H977 H 0.43228 0.85668 0.78453 0.0
H978 H 0.38787 0.87872 0.77503 0.0
H979 H 0.42984 0.86422 0.76168 0.0
H980 H 0.38039 0.75429 0.71884 0.0
H981 H 0.32355 0.79711 0.70932 0.0
H982 H 0.32373 0.85819 0.75838 0.0
C983 C 0.46101 0.7734 0.77656 0.0
C984 C 0.48933 0.74578 0.76966 0.0
C985 C 0.48069 0.72686 0.75378 0.0
C986 C 0.44554 0.73618 0.74463 0.0
C987 C 0.41891 0.76427 0.75152 0.0
C988 C 0.42583 0.78237 0.76719 0.0
C989 C 0.39338 0.81351 0.77105 0.0
C990 C 0.3688 0.80132 0.78693 0.0
C991 C 0.41197 0.85578 0.77319 0.0
C992 C 0.36796 0.81082 0.75488 0.0
C993 C 0.3833 0.78204 0.74385 0.0
C994 C 0.36749 0.77625 0.72749 0.0
C995 C 0.33534 0.80072 0.72218 0.0
C996 C 0.31901 0.83023 0.73324 0.0
C997 C 0.33508 0.83497 0.7499 0.0
H998 H 0.77468 0.49902 0.25289 0.0
H999 H 0.76668 0.53515 0.19956 0.0
H1000 H 0.78984 0.6036 0.20731 0.0
H1001 H 0.74355 0.59386 0.27194 0.0
H1002 H 0.77937 0.59036 0.28928 0.0
H1003 H 0.75934 0.54511 0.27972 0.0
H1004 H 0.83204 0.52012 0.2735 0.0
H1005 H 0.85235 0.56519 0.28305 0.0
H1006 H 0.86605 0.55179 0.26146 0.0
H1007 H 0.81437 0.66793 0.22089 0.0
H1008 H 0.8443 0.72153 0.23872 0.0
H1009 H 0.83998 0.64197 0.28294 0.0
C1010 C 0.77732 0.52146 0.24286 0.0
C1011 C 0.76847 0.51189 0.22563 0.0
C1012 C 0.77319 0.54184 0.21284 0.0
C1013 C 0.78615 0.58085 0.21713 0.0
C1014 C 0.79473 0.58924 0.23424 0.0
C1015 C 0.79093 0.56027 0.24688 0.0
C1016 C 0.80469 0.57619 0.26409 0.0
C1017 C 0.76964 0.5764 0.27702 0.0
C1018 C 0.84093 0.55188 0.27092 0.0
C1019 C 0.81695 0.61865 0.25916 0.0
C1020 C 0.81045 0.62575 0.24194 0.0
C1021 C 0.81964 0.66272 0.23439 0.0
C1022 C 0.83658 0.69303 0.24466 0.0
C1023 C 0.84471 0.68601 0.26225 0.0
C1024 C 0.83425 0.64836 0.26955 0.0
H1025 H 0.51102 0.24121 0.75433 0.0
H1026 H 0.54245 0.22401 0.80786 0.0
H1027 H 0.60997 0.1996 0.79924 0.0
H1028 H 0.55868 0.15217 0.7393 0.0
H1029 H 0.57519 0.17417 0.71938 0.0
H1030 H 0.53051 0.19305 0.72981 0.0
H1031 H 0.56096 0.26506 0.72984 0.0
H1032 H 0.60583 0.24639 0.71944 0.0
H1033 H 0.60989 0.27349 0.73937 0.0
H1034 H 0.67319 0.17498 0.78476 0.0
H1035 H 0.72601 0.14847 0.76563 0.0
H1036 H 0.65259 0.18022 0.72145 0.0
C1037 C 0.53221 0.23283 0.76429 0.0
C1038 C 0.52147 0.23495 0.78182 0.0
C1039 C 0.54996 0.22288 0.79437 0.0
C1040 C 0.58845 0.20907 0.7896 0.0
C1041 C 0.59793 0.20725 0.77222 0.0
C1042 C 0.57054 0.21857 0.75975 0.0
C1043 C 0.58735 0.21155 0.74195 0.0
C1044 C 0.56139 0.18091 0.73203 0.0
C1045 C 0.59124 0.25151 0.73207 0.0
C1046 C 0.62846 0.19427 0.74634 0.0
C1047 C 0.63407 0.19237 0.76386 0.0
C1048 C 0.6692 0.17649 0.77102 0.0
C1049 C 0.69908 0.16151 0.76 0.0
C1050 C 0.69366 0.16226 0.74197 0.0
C1051 C 0.65798 0.17945 0.73513 0.0
H1052 H 0.20236 0.00366 1.00008 0.0
H1053 H 0.23545 0.05972 0.04821 0.0
H1054 H 0.21718 0.12648 0.03655 0.0
H1055 H 0.23568 0.08466 0.97185 0.0
H1056 H 0.19337 0.07984 0.95744 0.0
H1057 H 0.21133 0.03643 0.9691 0.0
H1058 H 0.13968 0.02513 0.9816 0.0
H1059 H 0.12147 0.06831 0.9699 0.0
H1060 H 0.11492 0.06575 0.99279 0.0
H1061 H 0.1957 0.18668 0.01996 0.0
H1062 H 0.16485 0.2365 1.00068 0.0
H1063 H 0.14143 0.14195 0.9634 0.0
C1064 C 0.20585 0.03014 0.00806 0.0
C1065 C 0.22012 0.02677 0.02506 0.0
C1066 C 0.224 0.06175 0.03527 0.0
C1067 C 0.21411 0.0998 0.02869 0.0
C1068 C 0.19998 0.10226 0.01191 0.0
C1069 C 0.19525 0.06841 0.00178 0.0
C1070 C 0.17685 0.07943 0.98458 0.0
C1071 C 0.20606 0.0695 0.96987 0.0
C1072 C 0.13579 0.05841 0.98208 0.0
C1073 C 0.17184 0.12468 0.98671 0.0
C1074 C 0.18604 0.13715 0.00248 0.0
C1075 C 0.1844 0.17732 0.00757 0.0
C1076 C 0.16681 0.20545 0.99646 0.0
C1077 C 0.15046 0.19333 0.98047 0.0
C1078 C 0.15376 0.15237 0.97546 0.0
H1079 H 0.17165 0.87466 0.003 0.0
H1080 H 0.14661 0.8337 0.05471 0.0
H1081 H 0.08783 0.79508 0.04405 0.0
H1082 H 0.06849 0.89016 0.99152 0.0
H1083 H 0.07468 0.87423 0.96961 0.0
H1084 H 0.11668 0.89595 0.98102 0.0
H1085 H 0.15981 0.83262 0.97449 0.0
H1086 H 0.11793 0.81066 0.96304 0.0
H1087 H 0.14114 0.78348 0.98047 0.0
H1088 H 0.03145 0.76155 0.02785 0.0
H1089 H 0.97838 0.73954 0.00779 0.0
H1090 H 0.03748 0.80563 0.96676 0.0
C1091 C 0.15412 0.8571 0.01203 0.0
C1092 C 0.16394 0.8568 0.02967 0.0
C1093 C 0.13969 0.83424 0.04115 0.0
C1094 C 0.10634 0.81212 0.0352 0.0
C1095 C 0.09731 0.81326 0.01776 0.0
C1096 C 0.12024 0.83548 0.00636 0.0
C1097 C 0.10241 0.83375 0.98846 0.0
C1098 C 0.08981 0.87604 0.9823 0.0
C1099 C 0.1321 0.81394 0.97587 0.0
C1100 C 0.06586 0.80712 0.99159 0.0
C1101 C 0.0638 0.79525 0.00854 0.0
C1102 C 0.03275 0.77066 0.01455 0.0
C1103 C 1.00273 0.75823 0.00301 0.0
C1104 C 0.00356 0.77077 0.98563 0.0
C1105 C 0.03585 0.7954 0.97991 0.0
H1106 H 0.86255 0.83185 0.99744 0.0
H1107 H 0.82935 0.86116 0.94515 0.0
H1108 H 0.79039 0.92003 0.95553 0.0
H1109 H 0.76949 0.86227 0.01809 0.0
H1110 H 0.79466 0.88383 0.0364 0.0
H1111 H 0.81762 0.84256 0.02498 0.0
H1112 H 0.88241 0.88517 0.02041 0.0
H1113 H 0.85972 0.92652 0.03185 0.0
H1114 H 0.87856 0.93409 0.01043 0.0
H1115 H 0.7545 0.97507 0.9717 0.0
H1116 H 0.73029 0.02663 0.99199 0.0
H1117 H 0.79151 0.96423 0.03351 0.0
C1118 C 0.84671 0.85048 0.98822 0.0
C1119 C 0.84849 0.84189 0.97053 0.0
C1120 C 0.82823 0.86734 0.95876 0.0
C1121 C 0.80592 0.90065 0.96454 0.0
C1122 C 0.80478 0.90836 0.98209 0.0
C1123 C 0.82511 0.88434 0.99373 0.0
C1124 C 0.82132 0.90078 0.01176 0.0
C1125 C 0.79947 0.87056 0.02349 0.0
C1126 C 0.86298 0.91233 0.01903 0.0
C1127 C 0.79559 0.93776 0.00844 0.0
C1128 C 0.78587 0.94124 0.99129 0.0
C1129 C 0.76206 0.97276 0.98515 0.0
C1130 C 0.74837 1.00186 0.99681 0.0
C1131 C 0.75907 0.99966 0.01438 0.0
C1132 C 0.78279 0.9669 0.0202 0.0
H1133 H 0.8195 0.13777 0.00291 0.0
H1134 H 0.84326 0.17788 0.05479 0.0
H1135 H 0.90242 0.21669 0.04452 0.0
H1136 H 0.92343 0.12213 0.99216 0.0
H1137 H 0.91798 0.13806 0.97021 0.0
H1138 H 0.87562 0.11626 0.98135 0.0
H1139 H 0.83259 0.17954 0.97447 0.0
H1140 H 0.87484 0.20156 0.96329 0.0
H1141 H 0.85099 0.22869 0.98054 0.0
H1142 H 0.95861 0.25136 0.02857 0.0
H1143 H 0.01182 0.27424 0.0087 0.0
H1144 H 0.95489 0.207 0.96753 0.0
C1145 C 0.83692 0.15519 0.01203 0.0
C1146 C 0.82667 0.15536 0.0296 0.0
C1147 C 0.85065 0.17757 0.04127 0.0
C1148 C 0.88415 0.19977 0.03555 0.0
C1149 C 0.89365 0.19884 0.01816 0.0
C1150 C 0.87107 0.1767 0.0066 0.0
C1151 C 0.8895 0.17847 0.98883 0.0
C1152 C 0.9024 0.13622 0.98279 0.0
C1153 C 0.86023 0.19825 0.97603 0.0
C1154 C 0.92587 0.20514 0.9922 0.0
C1155 C 0.92735 0.21702 0.00914 0.0
C1156 C 0.95785 0.24211 0.01529 0.0
C1157 C 0.98792 0.25505 0.00387 0.0
C1158 C 0.98772 0.24236 0.98653 0.0
C1159 C 0.95607 0.21714 0.98069 0.0
H1160 H 0.69667 0.81655 0.76346 0.0
H1161 H 0.57862 0.86246 0.77767 0.0
H1162 H 0.59481 0.92778 0.76408 0.0
H1163 H 0.74979 0.91055 0.77237 0.0
H1164 H 0.78511 0.90455 0.75498 0.0
H1165 H 0.76376 0.86074 0.76524 0.0
H1166 H 0.73814 0.83509 0.73584 0.0
H1167 H 0.75916 0.87897 0.72552 0.0
H1168 H 0.70631 0.86719 0.72295 0.0
H1169 H 0.62172 0.98612 0.74763 0.0
H1170 H 0.66148 0.0385 0.73283 0.0
H1171 H 0.76529 0.95857 0.73165 0.0
C1172 C 0.6744 0.8405 0.76368 0.0
C1173 C 0.63634 0.83467 0.77151 0.0
C1174 C 0.60799 0.86659 0.7718 0.0
C1175 C 0.61682 0.90363 0.76403 0.0
C1176 C 0.65449 0.90851 0.75634 0.0
C1177 C 0.68321 0.87823 0.7564 0.0
C1178 C 0.72213 0.89242 0.74803 0.0
C1179 C 0.75727 0.89205 0.76093 0.0
C1180 C 0.732 0.86689 0.73214 0.0
C1181 C 0.71053 0.93519 0.74309 0.0
C1182 C 0.67109 0.94344 0.74777 0.0
C1183 C 0.65275 0.9802 0.74404 0.0
C1184 C 0.67547 0.00963 0.73552 0.0
C1185 C 0.71633 0.00248 0.73111 0.0
C1186 C 0.73413 0.96478 0.73497 0.0
H1187 H 0.97621 0.30736 0.28751 0.0
H1188 H 0.02857 0.23593 0.24654 0.0
H1189 H 0.97298 0.25636 0.22739 0.0
H1190 H 0.87181 0.28313 0.27738 0.0
H1191 H 0.85339 0.33261 0.28291 0.0
H1192 H 0.89761 0.31264 0.2934 0.0
H1193 H 0.93841 0.37575 0.28415 0.0
H1194 H 0.89435 0.39579 0.27358 0.0
H1195 H 0.94072 0.38923 0.2618 0.0
H1196 H 0.91373 0.28763 0.21211 0.0
H1197 H 0.85124 0.32215 0.20271 0.0
H1198 H 0.83478 0.36927 0.25407 0.0
C1199 C 0.97595 0.29589 0.27454 0.0
C1200 C 0.00699 0.27015 0.26855 0.0
C1201 C 0.00523 0.25562 0.25148 0.0
C1202 C 0.9738 0.26716 0.24046 0.0
C1203 C 0.94393 0.2928 0.24672 0.0
C1204 C 0.94437 0.30652 0.26343 0.0
C1205 C 0.908 0.333 0.26706 0.0
C1206 C 0.88111 0.31421 0.28101 0.0
C1207 C 0.92117 0.37599 0.27193 0.0
C1208 C 0.88729 0.33228 0.24973 0.0
C1209 C 0.90875 0.30929 0.23813 0.0
C1210 C 0.89644 0.30539 0.22113 0.0
C1211 C 0.86104 0.32524 0.21589 0.0
C1212 C 0.83804 0.34816 0.22767 0.0
C1213 C 0.85146 0.35159 0.24481 0.0
H1214 H 0.30322 0.03045 0.72192 0.0
H1215 H 0.24379 0.97555 0.76575 0.0
H1216 H 0.26889 0.03001 0.7842 0.0
H1217 H 0.39168 0.06607 0.74415 0.0
H1218 H 0.39451 0.11305 0.73256 0.0
H1219 H 0.37256 0.06924 0.72256 0.0
H1220 H 0.3068 0.10933 0.7166 0.0
H1221 H 0.32863 0.15326 0.72655 0.0
H1222 H 0.28103 0.13368 0.73411 0.0
H1223 H 0.30204 0.08849 0.79832 0.0
H1224 H 0.33716 0.15102 0.8068 0.0
H1225 H 0.372 0.17128 0.75387 0.0
C1226 C 0.29549 0.02992 0.73539 0.0
C1227 C 0.27156 0.9985 0.74233 0.0
C1228 C 0.26194 0.99917 0.76004 0.0
C1229 C 0.27616 0.02997 0.77069 0.0
C1230 C 0.29965 0.06034 0.76349 0.0
C1231 C 0.30893 0.06095 0.74623 0.0
C1232 C 0.33385 0.09796 0.74177 0.0
C1233 C 0.37563 0.08584 0.73485 0.0
C1234 C 0.31122 0.12516 0.729 0.0
C1235 C 0.3372 0.11776 0.75924 0.0
C1236 C 0.31757 0.09525 0.77159 0.0
C1237 C 0.31732 0.10658 0.78876 0.0
C1238 C 0.33748 0.14206 0.79347 0.0
C1239 C 0.3572 0.16612 0.78102 0.0
C1240 C 0.35691 0.15372 0.76367 0.0
H1241 H 0.03564 0.70241 0.28343 0.0
H1242 H 0.98852 0.77146 0.24049 0.0
H1243 H 0.04453 0.7478 0.22253 0.0
H1244 H 0.14203 0.72242 0.27395 0.0
H1245 H 0.15852 0.67289 0.28046 0.0
H1246 H 0.11451 0.69521 0.2902 0.0
H1247 H 0.07208 0.6327 0.28164 0.0
H1248 H 0.11592 0.61032 0.27181 0.0
H1249 H 0.07033 0.61735 0.25951 0.0
H1250 H 0.10256 0.71348 0.20845 0.0
H1251 H 0.16403 0.67611 0.20004 0.0
H1252 H 0.17747 0.63307 0.25225 0.0
C1253 C 0.03727 0.71275 0.27029 0.0
C1254 C 0.00738 0.73874 0.26342 0.0
C1255 C 0.01085 0.75165 0.24615 0.0
C1256 C 0.04257 0.73827 0.23576 0.0
C1257 C 0.07115 0.7124 0.24283 0.0
C1258 C 0.06932 0.70024 0.25975 0.0
C1259 C 0.10468 0.67289 0.26413 0.0
C1260 C 0.13152 0.69201 0.27801 0.0
C1261 C 0.08986 0.63082 0.26959 0.0
C1262 C 0.12625 0.67138 0.24698 0.0
C1263 C 0.10605 0.69403 0.23484 0.0
C1264 C 0.11896 0.69598 0.21787 0.0
C1265 C 0.15375 0.67452 0.2132 0.0
C1266 C 0.17559 0.65195 0.2255 0.0
C1267 C 0.16161 0.65048 0.24262 0.0
H1268 H 0.7255 0.53452 0.53168 0.0
H1269 H 0.76772 0.46572 0.48787 0.0
H1270 H 0.74262 0.51877 0.46852 0.0
H1271 H 0.63529 0.57222 0.51274 0.0
H1272 H 0.63888 0.62141 0.52244 0.0
H1273 H 0.66077 0.57829 0.53299 0.0
H1274 H 0.73021 0.61443 0.53394 0.0
H1275 H 0.70845 0.6577 0.52341 0.0
H1276 H 0.75212 0.6332 0.51435 0.0
H1277 H 0.70889 0.57694 0.45373 0.0
H1278 H 0.67348 0.63916 0.44471 0.0
H1279 H 0.65721 0.67236 0.498 0.0
C1280 C 0.72974 0.53069 0.51804 0.0
C1281 C 0.74858 0.49579 0.51135 0.0
C1282 C 0.75353 0.49213 0.49337 0.0
C1283 C 0.73929 0.5221 0.48223 0.0
C1284 C 0.72063 0.5559 0.48923 0.0
C1285 C 0.71627 0.56066 0.50671 0.0
C1286 C 0.69529 0.6001 0.51088 0.0
C1287 C 0.65518 0.59254 0.52032 0.0
C1288 C 0.72319 0.62801 0.52126 0.0
C1289 C 0.68813 0.61646 0.493 0.0
C1290 C 0.70269 0.59033 0.48069 0.0
C1291 C 0.6978 0.59791 0.46324 0.0
C1292 C 0.67756 0.6332 0.45824 0.0
C1293 C 0.66298 0.66072 0.47064 0.0
C1294 C 0.66862 0.65222 0.48823 0.0
H1295 H 0.68799 0.35155 0.50322 0.0
H1296 H 0.66331 0.32931 0.55695 0.0
H1297 H 0.60033 0.2935 0.54902 0.0
H1298 H 0.58564 0.37326 0.49189 0.0
H1299 H 0.5889 0.35049 0.47098 0.0
H1300 H 0.6334 0.37159 0.48079 0.0
H1301 H 0.67046 0.30325 0.47741 0.0
H1302 H 0.62608 0.28188 0.46757 0.0
H1303 H 0.64805 0.25812 0.48614 0.0
H1304 H 0.54052 0.25988 0.53517 0.0
H1305 H 0.48482 0.23612 0.51683 0.0
H1306 H 0.54601 0.28468 0.47212 0.0
C1307 C 0.66959 0.33868 0.51329 0.0
C1308 C 0.68069 0.34268 0.53069 0.0
C1309 C 0.65534 0.32639 0.54355 0.0
C1310 C 0.61966 0.30592 0.53916 0.0
C1311 C 0.60949 0.30264 0.52187 0.0
C1312 C 0.63345 0.31899 0.50915 0.0
C1313 C 0.61436 0.3136 0.49164 0.0
C1314 C 0.60502 0.35468 0.48334 0.0
C1315 C 0.64135 0.28766 0.48001 0.0
C1316 C 0.57593 0.2915 0.49648 0.0
C1317 C 0.57401 0.28503 0.51396 0.0
C1318 C 0.54164 0.26489 0.52148 0.0
C1319 C 0.51016 0.25139 0.51091 0.0
C1320 C 0.51088 0.25857 0.493 0.0
C1321 C 0.54442 0.27881 0.48575 0.0
H1322 H 0.28982 0.50203 0.50011 0.0
H1323 H 0.26515 0.4602 0.55171 0.0
H1324 H 0.28563 0.39124 0.54341 0.0
H1325 H 0.25725 0.41316 0.47743 0.0
H1326 H 0.29752 0.41532 0.46191 0.0
H1327 H 0.27921 0.46106 0.47165 0.0
H1328 H 0.35169 0.47842 0.48182 0.0
H1329 H 0.37031 0.43293 0.47201 0.0
H1330 H 0.3795 0.44221 0.49442 0.0
H1331 H 0.30704 0.32664 0.52927 0.0
H1332 H 0.33642 0.27266 0.51158 0.0
H1333 H 0.35179 0.35752 0.46962 0.0
C1334 C 0.2886 0.47829 0.50963 0.0
C1335 C 0.27567 0.48632 0.52654 0.0
C1336 C 0.2751 0.4547 0.53873 0.0
C1337 C 0.28639 0.4154 0.53409 0.0
C1338 C 0.29873 0.40842 0.51728 0.0
C1339 C 0.30059 0.4391 0.50532 0.0
C1340 C 0.3173 0.42405 0.48841 0.0
C1341 C 0.28594 0.42867 0.474 0.0
C1342 C 0.35706 0.44569 0.48391 0.0
C1343 C 0.32447 0.38005 0.49274 0.0
C1344 C 0.31295 0.37156 0.50936 0.0
C1345 C 0.31641 0.33297 0.51626 0.0
C1346 C 0.33308 0.30244 0.50606 0.0
C1347 C 0.34679 0.31076 0.48921 0.0
C1348 C 0.34175 0.35008 0.48244 0.0
H1349 H 0.47188 0.70714 0.46626 0.0
H1350 H 0.53635 0.75496 0.51028 0.0
H1351 H 0.48125 0.73226 0.52916 0.0
H1352 H 0.37136 0.73552 0.48104 0.0
H1353 H 0.34778 0.69077 0.47255 0.0
H1354 H 0.39218 0.71123 0.46238 0.0
H1355 H 0.42822 0.64222 0.46563 0.0
H1356 H 0.38398 0.62166 0.47585 0.0
H1357 H 0.43224 0.61947 0.48654 0.0
H1358 H 0.42153 0.70041 0.54356 0.0
H1359 H 0.3585 0.66655 0.55221 0.0
H1360 H 0.33034 0.64333 0.49879 0.0
C1361 C 0.47433 0.71313 0.47984 0.0
C1362 C 0.50861 0.73286 0.48674 0.0
C1363 C 0.51046 0.74007 0.50462 0.0
C1364 C 0.47932 0.72718 0.5155 0.0
C1365 C 0.4462 0.70756 0.50831 0.0
C1366 C 0.44321 0.70099 0.49088 0.0
C1367 C 0.40415 0.67942 0.48646 0.0
C1368 C 0.37728 0.70582 0.47493 0.0
C1369 C 0.41267 0.63825 0.47813 0.0
C1370 C 0.38593 0.67453 0.50416 0.0
C1371 C 0.41085 0.69069 0.51657 0.0
C1372 C 0.40145 0.68817 0.53393 0.0
C1373 C 0.36549 0.66882 0.53873 0.0
C1374 C 0.33894 0.65274 0.52623 0.0
C1375 C 0.34952 0.6558 0.5087 0.0
H1376 H 0.32169 0.19688 0.4032 0.0
H1377 H 0.32271 0.31989 0.42197 0.0
H1378 H 0.27391 0.33948 0.39935 0.0
H1379 H 0.31958 0.22485 0.35829 0.0
H1380 H 0.288 0.18298 0.35213 0.0
H1381 H 0.32138 0.17834 0.37026 0.0
H1382 H 0.2607 0.15845 0.38946 0.0
H1383 H 0.22714 0.16311 0.37139 0.0
H1384 H 0.21744 0.19141 0.39065 0.0
H1385 H 0.22146 0.34429 0.37576 0.0
H1386 H 0.1766 0.33637 0.35055 0.0
H1387 H 0.21602 0.21235 0.34506 0.0
C1388 C 0.31144 0.22788 0.40254 0.0
C1389 C 0.32542 0.25687 0.41441 0.0
C1390 C 0.31215 0.29731 0.413 0.0
C1391 C 0.28439 0.30863 0.40025 0.0
C1392 C 0.271 0.27932 0.38875 0.0
C1393 C 0.28471 0.23995 0.38956 0.0
C1394 C 0.26737 0.21486 0.37507 0.0
C1395 C 0.30109 0.19935 0.36324 0.0
C1396 C 0.24163 0.17989 0.38207 0.0
C1397 C 0.24136 0.2461 0.36613 0.0
C1398 C 0.24332 0.28291 0.37439 0.0
C1399 C 0.22018 0.31579 0.36904 0.0
C1400 C 0.19472 0.31102 0.35478 0.0
C1401 C 0.19338 0.27399 0.3458 0.0
C1402 C 0.21707 0.2412 0.35155 0.0
H1403 H 0.30664 0.73128 0.59302 0.0
H1404 H 0.19734 0.6601 0.59897 0.0
H1405 H 0.17887 0.70027 0.62434 0.0
H1406 H 0.33028 0.74031 0.63643 0.0
H1407 H 0.34779 0.79175 0.63537 0.0
H1408 H 0.35103 0.75992 0.61676 0.0
H1409 H 0.30986 0.81195 0.59917 0.0
H1410 H 0.30677 0.84416 0.61771 0.0
H1411 H 0.26125 0.8284 0.60692 0.0
H1412 H 0.17666 0.74179 0.65102 0.0
H1413 H 0.18711 0.78715 0.67569 0.0
H1414 H 0.29512 0.83521 0.65172 0.0
C1415 C 0.27844 0.72465 0.59947 0.0
C1416 C 0.25343 0.69252 0.59397 0.0
C1417 C 0.21686 0.68471 0.60282 0.0
C1418 C 0.20615 0.70729 0.6173 0.0
C1419 C 0.23194 0.73808 0.62262 0.0
C1420 C 0.26695 0.74734 0.61382 0.0
C1421 C 0.28981 0.78133 0.62254 0.0
C1422 C 0.33223 0.76748 0.62811 0.0
C1423 C 0.29204 0.81868 0.61089 0.0
C1424 C 0.26278 0.78888 0.63788 0.0
C1425 C 0.22964 0.76344 0.63769 0.0
C1426 C 0.20201 0.76242 0.65114 0.0
C1427 C 0.20831 0.78812 0.66513 0.0
C1428 C 0.24163 0.8149 0.66548 0.0
C1429 C 0.26897 0.81556 0.65159 0.0
H1430 H 0.73811 0.73355 0.41211 0.0
H1431 H 0.62142 0.75194 0.38777 0.0
H1432 H 0.65463 0.75473 0.35958 0.0
H1433 H 0.79561 0.79916 0.38417 0.0
H1434 H 0.83942 0.76684 0.38371 0.0
H1435 H 0.80676 0.76692 0.40217 0.0
H1436 H 0.79712 0.68968 0.39926 0.0
H1437 H 0.82966 0.68938 0.38076 0.0
H1438 H 0.77923 0.6691 0.37928 0.0
H1439 H 0.69969 0.75622 0.33413 0.0
H1440 H 0.75396 0.75474 0.31264 0.0
H1441 H 0.84228 0.73343 0.35285 0.0
C1442 C 0.71958 0.73832 0.40085 0.0
C1443 C 0.67709 0.74258 0.40219 0.0
C1444 C 0.65395 0.7485 0.38712 0.0
C1445 C 0.67254 0.7502 0.37102 0.0
C1446 C 0.71434 0.74571 0.37013 0.0
C1447 C 0.73766 0.73976 0.38459 0.0
C1448 C 0.78201 0.73519 0.37991 0.0
C1449 C 0.80744 0.76905 0.38797 0.0
C1450 C 0.79793 0.69334 0.38511 0.0
C1451 C 0.77987 0.73954 0.36057 0.0
C1452 C 0.74049 0.74577 0.35527 0.0
C1453 C 0.73063 0.75123 0.33811 0.0
C1454 C 0.76178 0.75035 0.32598 0.0
C1455 C 0.80245 0.74378 0.331 0.0
C1456 C 0.8115 0.73822 0.34858 0.0
H1457 H 0.75489 0.17507 0.64994 0.0
H1458 H 0.78847 0.26279 0.68869 0.0
H1459 H 0.79344 0.31537 0.66635 0.0
H1460 H 0.82143 0.21346 0.61656 0.0
H1461 H 0.78575 0.2035 0.59963 0.0
H1462 H 0.78583 0.17256 0.61862 0.0
H1463 H 0.71001 0.18851 0.6234 0.0
H1464 H 0.7097 0.21953 0.60446 0.0
H1465 H 0.69378 0.24034 0.62468 0.0
H1466 H 0.79118 0.35929 0.63998 0.0
H1467 H 0.78508 0.39059 0.61139 0.0
H1468 H 0.75519 0.2739 0.58959 0.0
C1469 C 0.76353 0.20528 0.65374 0.0
C1470 C 0.7712 0.21477 0.67112 0.0
C1471 C 0.78249 0.2547 0.67549 0.0
C1472 C 0.78535 0.28482 0.66288 0.0
C1473 C 0.77719 0.27452 0.64592 0.0
C1474 C 0.76685 0.23564 0.64131 0.0
C1475 C 0.75937 0.23255 0.62218 0.0
C1476 C 0.78992 0.20382 0.61375 0.0
C1477 C 0.71561 0.21946 0.61847 0.0
C1478 C 0.76665 0.2759 0.61677 0.0
C1479 C 0.7768 0.29962 0.63067 0.0
C1480 C 0.78359 0.34093 0.62899 0.0
C1481 C 0.77994 0.35846 0.61269 0.0
C1482 C 0.76984 0.33472 0.59821 0.0
C1483 C 0.76335 0.29282 0.60035 0.0
H1484 H 0.22227 0.25722 0.91577 0.0
H1485 H 0.10887 0.23784 0.88897 0.0
H1486 H 0.14472 0.24155 0.86131 0.0
H1487 H 0.2658 0.32722 0.88546 0.0
H1488 H 0.31625 0.30725 0.88748 0.0
H1489 H 0.28166 0.30402 0.90524 0.0
H1490 H 0.29197 0.22659 0.90647 0.0
H1491 H 0.32665 0.2296 0.88874 0.0
H1492 H 0.28325 0.19685 0.8875 0.0
H1493 H 0.19261 0.2479 0.83649 0.0
H1494 H 0.24977 0.25231 0.8163 0.0
H1495 H 0.3327 0.26549 0.85907 0.0
C1496 C 0.20495 0.25381 0.90409 0.0
C1497 C 0.16267 0.24727 0.90458 0.0
C1498 C 0.14125 0.24274 0.88897 0.0
C1499 C 0.16133 0.24496 0.87317 0.0
C1500 C 0.20294 0.25148 0.87313 0.0
C1501 C 0.2246 0.25554 0.88817 0.0
C1502 C 0.26932 0.26118 0.88454 0.0
C1503 C 0.28412 0.30237 0.89107 0.0
C1504 C 0.29426 0.22648 0.89227 0.0
C1505 C 0.26939 0.25956 0.86511 0.0
C1506 C 0.23072 0.25429 0.85881 0.0
C1507 C 0.22304 0.25196 0.84129 0.0
C1508 C 0.25576 0.2546 0.8299 0.0
C1509 C 0.29582 0.2592 0.83605 0.0
C1510 C 0.3025 0.26196 0.85393 0.0
H1511 H 0.25943 0.66655 0.14624 0.0
H1512 H 0.2795 0.75288 0.18719 0.0
H1513 H 0.27816 0.80836 0.16616 0.0
H1514 H 0.32042 0.71832 0.11394 0.0
H1515 H 0.28638 0.70619 0.09666 0.0
H1516 H 0.29064 0.67281 0.11481 0.0
H1517 H 0.2134 0.67771 0.11974 0.0
H1518 H 0.20889 0.71115 0.10165 0.0
H1519 H 0.19034 0.7266 0.12233 0.0
H1520 H 0.27148 0.85469 0.14119 0.0
H1521 H 0.26113 0.88942 0.11369 0.0
H1522 H 0.24606 0.77378 0.08834 0.0
C1523 C 0.26395 0.69708 0.15078 0.0
C1524 C 0.26961 0.70529 0.16843 0.0
C1525 C 0.27511 0.74574 0.17379 0.0
C1526 C 0.27444 0.7775 0.16192 0.0
C1527 C 0.26838 0.76844 0.14469 0.0
C1528 C 0.26339 0.72926 0.13907 0.0
C1529 C 0.25636 0.72807 0.11984 0.0
C1530 C 0.29049 0.70498 0.11078 0.0
C1531 C 0.21477 0.7098 0.11565 0.0
C1532 C 0.25774 0.77276 0.11558 0.0
C1533 C 0.26478 0.79537 0.13014 0.0
C1534 C 0.2662 0.83731 0.12968 0.0
C1535 C 0.26014 0.85676 0.11396 0.0
C1536 C 0.25279 0.83441 0.09879 0.0
C1537 C 0.25191 0.79174 0.09965 0.0
H1538 H 0.77571 0.76226 0.91178 0.0
H1539 H 0.89049 0.7713 0.88506 0.0
H1540 H 0.85453 0.76931 0.85737 0.0
H1541 H 0.72784 0.69393 0.88218 0.0
H1542 H 0.6788 0.71725 0.88391 0.0
H1543 H 0.7135 0.71921 0.90168 0.0
H1544 H 0.70818 0.79717 0.90203 0.0
H1545 H 0.67352 0.79547 0.88424 0.0
H1546 H 0.719 0.82523 0.88277 0.0
H1547 H 0.80653 0.76576 0.83262 0.0
H1548 H 0.7497 0.76203 0.81232 0.0
H1549 H 0.66531 0.75646 0.85487 0.0
C1550 C 0.79334 0.76383 0.90011 0.0
C1551 C 0.83604 0.76695 0.90063 0.0
C1552 C 0.85784 0.76894 0.88503 0.0
C1553 C 0.83767 0.76781 0.86923 0.0
C1554 C 0.79564 0.76478 0.86918 0.0
C1555 C 0.77366 0.7629 0.8842 0.0
C1556 C 0.72867 0.75999 0.88053 0.0
C1557 C 0.71118 0.72023 0.88749 0.0
C1558 C 0.70602 0.79665 0.88782 0.0
C1559 C 0.72879 0.76054 0.8611 0.0
C1560 C 0.7678 0.76319 0.85485 0.0
C1561 C 0.77585 0.76379 0.83736 0.0
C1562 C 0.74326 0.76164 0.82592 0.0
C1563 C 0.7029 0.7591 0.83195 0.0
C1564 C 0.69573 0.75859 0.84983 0.0
H1565 H 0.74658 0.22237 0.09082 0.0
H1566 H 0.75484 0.10504 0.11538 0.0
H1567 H 0.75042 0.13771 0.14372 0.0
H1568 H 0.80756 0.27529 0.1212 0.0
H1569 H 0.77794 0.32089 0.1203 0.0
H1570 H 0.7803 0.28813 0.10195 0.0
H1571 H 0.70211 0.28311 0.10166 0.0
H1572 H 0.69953 0.31584 0.12003 0.0
H1573 H 0.67593 0.26685 0.12069 0.0
H1574 H 0.74604 0.18343 0.16951 0.0
H1575 H 0.74439 0.23881 0.19068 0.0
H1576 H 0.73984 0.32607 0.14919 0.0
C1577 C 0.74732 0.20348 0.10214 0.0
C1578 C 0.75104 0.1611 0.10085 0.0
C1579 C 0.75207 0.13757 0.11602 0.0
C1580 C 0.74947 0.15584 0.13219 0.0
C1581 C 0.74592 0.19768 0.13301 0.0
C1582 C 0.74497 0.22122 0.11839 0.0
C1583 C 0.74205 0.26562 0.1228 0.0
C1584 C 0.77918 0.28884 0.11617 0.0
C1585 C 0.70255 0.28392 0.11588 0.0
C1586 C 0.74178 0.2634 0.14218 0.0
C1587 C 0.74377 0.22395 0.14783 0.0
C1588 C 0.7444 0.21444 0.16523 0.0
C1589 C 0.74341 0.24612 0.17716 0.0
C1590 C 0.74201 0.28683 0.17164 0.0
C1591 C 0.74086 0.29533 0.15388 0.0
H1592 H 0.93752 0.93024 0.27197 0.0
H1593 H 0.01128 0.88159 0.31309 0.0
H1594 H 0.04214 0.94872 0.31738 0.0
H1595 H 0.01317 0.9925 0.25413 0.0
H1596 H 0.97921 0.03293 0.24851 0.0
H1597 H 0.96078 0.98191 0.24963 0.0
H1598 H 0.90591 0.00405 0.27135 0.0
H1599 H 0.92421 0.0552 0.27032 0.0
H1600 H 0.92074 0.02979 0.29069 0.0
H1601 H 0.06716 0.02062 0.31628 0.0
H1602 H 0.0861 0.09076 0.30921 0.0
H1603 H 0.9965 0.09184 0.26854 0.0
C1604 C 0.95979 0.93378 0.28202 0.0
C1605 C 0.97189 0.90067 0.29223 0.0
C1606 C 1.00155 0.90649 0.3051 0.0
C1607 C 0.01914 0.94455 0.30768 0.0
C1608 C 0.00679 0.97646 0.29728 0.0
C1609 C 0.97783 0.97144 0.28469 0.0
C1610 C 0.9714 0.01001 0.27464 0.0
C1611 C 0.98177 0.00396 0.25561 0.0
C1612 C 0.92799 0.02568 0.27689 0.0
C1613 C 1.00168 0.0374 0.28338 0.0
C1614 C 0.02151 0.01764 0.29651 0.0
C1615 C 0.05164 0.03647 0.30609 0.0
C1616 C 0.06216 0.07637 0.30199 0.0
C1617 C 0.04277 0.09692 0.28834 0.0
C1618 C 0.01179 0.07714 0.27911 0.0
H1619 H 0.91697 0.02291 0.73637 0.0
H1620 H 0.89989 0.02845 0.68135 0.0
H1621 H 0.97044 0.00545 0.67707 0.0
H1622 H 0.01917 0.05572 0.73796 0.0
H1623 H 0.03408 0.02105 0.7546 0.0
H1624 H 0.98249 0.03813 0.75332 0.0
H1625 H 0.95769 0.96408 0.75194 0.0
H1626 H 0.00921 0.94672 0.7533 0.0
H1627 H 0.97763 0.93091 0.73573 0.0
H1628 H 0.04445 0.98763 0.67897 0.0
H1629 H 0.114 0.96698 0.68671 0.0
H1630 H 0.0808 0.9656 0.74038 0.0
C1631 C 0.92813 0.0191 0.72343 0.0
C1632 C 0.90329 0.02768 0.70916 0.0
C1633 C 0.91855 0.02192 0.69242 0.0
C1634 C 0.95856 0.00906 0.68989 0.0
C1635 C 0.98245 1.0012 0.70424 0.0
C1636 C 0.96756 0.00517 0.72068 0.0
C1637 C 0.99905 0.99339 0.7339 0.0
C1638 C 0.0093 0.02921 0.74564 0.0
C1639 C 0.98505 0.95658 0.74433 0.0
C1640 C 0.03428 0.98285 0.72234 0.0
C1641 C 0.02421 0.98816 0.70529 0.0
C1642 C 0.05246 0.98275 0.69225 0.0
C1643 C 0.09186 0.97127 0.69675 0.0
C1644 C 0.1024 0.96449 0.71408 0.0
C1645 C 0.07319 0.97012 0.72702 0.0
H1646 H 0.06361 0.4383 0.96128 0.0
H1647 H 0.94915 0.37853 0.9514 0.0
H1648 H 0.91471 0.44455 0.95121 0.0
H1649 H 0.02624 0.51385 0.98923 0.0
H1650 H 0.05859 0.55334 0.98121 0.0
H1651 H 0.07466 0.50152 0.98004 0.0
H1652 H 0.08503 0.5086 0.94729 0.0
H1653 H 0.06915 0.56054 0.94837 0.0
H1654 H 0.04383 0.52608 0.9341 0.0
H1655 H 0.89183 0.51631 0.95431 0.0
H1656 H 0.8829 0.58977 0.95792 0.0
H1657 H 0.01253 0.60382 0.96406 0.0
C1658 C 0.03135 0.43913 0.95894 0.0
C1659 C 0.00905 0.40318 0.95641 0.0
C1660 C 0.96691 0.4056 0.95333 0.0
C1661 C 0.94703 0.44297 0.95324 0.0
C1662 C 0.96977 0.47774 0.95601 0.0
C1663 C 0.01108 0.47626 0.95856 0.0
C1664 C 0.02838 0.51818 0.96121 0.0
C1665 C 0.04812 0.52193 0.97898 0.0
C1666 C 0.05837 0.52898 0.94689 0.0
C1667 C 0.99024 0.54339 0.96 0.0
C1668 C 0.95675 0.51939 0.95712 0.0
C1669 C 0.91788 0.53547 0.95635 0.0
C1670 C 0.91309 0.57719 0.95849 0.0
C1671 C 0.94703 0.60249 0.96115 0.0
C1672 C 0.98609 0.58527 0.96182 0.0
H1673 H 0.41141 0.9533 0.01816 0.0
H1674 H 0.37269 0.02866 0.06057 0.0
H1675 H 0.44029 0.05958 0.06178 0.0
H1676 H 0.51417 0.93672 0.0332 0.0
H1677 H 0.53601 0.93928 0.01208 0.0
H1678 H 0.48481 0.92187 0.0148 0.0
H1679 H 0.45978 0.97646 0.99353 0.0
H1680 H 0.51088 0.99409 0.99078 0.0
H1681 H 0.47191 0.02869 0.99742 0.0
H1682 H 0.51132 0.08322 0.05834 0.0
H1683 H 0.5815 0.09881 0.0502 0.0
H1684 H 0.57505 0.00931 0.00967 0.0
C1685 C 0.41728 0.97612 0.02777 0.0
C1686 C 0.38666 0.98853 0.03927 0.0
C1687 C 0.3955 0.01871 0.05157 0.0
C1688 C 0.43388 0.03643 0.0524 0.0
C1689 C 0.46324 0.02382 0.04082 0.0
C1690 C 0.45551 0.99442 0.02872 0.0
C1691 C 0.49236 0.98721 0.01755 0.0
C1692 C 0.50774 0.94368 0.01953 0.0
C1693 C 0.48317 0.99722 0.9987 0.0
C1694 C 0.52184 0.01727 0.02524 0.0
C1695 C 0.50438 0.03789 0.0387 0.0
C1696 C 0.52537 0.06726 0.04783 0.0
C1697 C 0.5653 0.07589 0.04309 0.0
C1698 C 0.58395 0.05536 0.02927 0.0
C1699 C 0.56175 0.02561 0.02027 0.0
H1700 H 0.47382 0.41829 0.80678 0.0
H1701 H 0.46718 0.39298 0.75237 0.0
H1702 H 0.49914 0.45888 0.74613 0.0
H1703 H 0.44797 0.52419 0.80266 0.0
H1704 H 0.48066 0.53981 0.8199 0.0
H1705 H 0.4588 0.49004 0.82006 0.0
H1706 H 0.53032 0.45883 0.82269 0.0
H1707 H 0.55242 0.5085 0.82243 0.0
H1708 H 0.56831 0.47132 0.80701 0.0
H1709 H 0.53545 0.52574 0.74596 0.0
H1710 H 0.56435 0.5933 0.75152 0.0
H1711 H 0.54117 0.57823 0.80583 0.0
C1712 C 0.47915 0.42672 0.79357 0.0
C1713 C 0.46841 0.40056 0.78003 0.0
C1714 C 0.47519 0.41271 0.76289 0.0
C1715 C 0.49351 0.44993 0.75924 0.0
C1716 C 0.50407 0.47496 0.77287 0.0
C1717 C 0.49639 0.46426 0.78967 0.0
C1718 C 0.50868 0.49765 0.80188 0.0
C1719 C 0.47183 0.51388 0.8117 0.0
C1720 C 0.54191 0.4832 0.81423 0.0
C1721 C 0.52482 0.52863 0.78933 0.0
C1722 C 0.52254 0.51462 0.77269 0.0
C1723 C 0.53699 0.5372 0.75891 0.0
C1724 C 0.55355 0.5754 0.7622 0.0
C1725 C 0.55474 0.59095 0.77907 0.0
C1726 C 0.54029 0.56714 0.79279 0.0
H1727 H 0.58646 0.46458 0.20074 0.0
H1728 H 0.60756 0.45351 0.25537 0.0
H1729 H 0.54034 0.48336 0.26109 0.0
H1730 H 0.53189 0.55773 0.20124 0.0
H1731 H 0.49621 0.54284 0.18497 0.0
H1732 H 0.54628 0.5215 0.18515 0.0
H1733 H 0.51584 0.44955 0.18609 0.0
H1734 H 0.46566 0.47065 0.18582 0.0
H1735 H 0.48036 0.43662 0.20273 0.0
H1736 H 0.47275 0.51851 0.26078 0.0
H1737 H 0.40559 0.54798 0.25457 0.0
H1738 H 0.42557 0.53004 0.20022 0.0
C1739 C 0.57683 0.46846 0.2139 0.0
C1740 C 0.60219 0.45711 0.22765 0.0
C1741 C 0.58847 0.46202 0.24468 0.0
C1742 C 0.55048 0.4791 0.24804 0.0
C1743 C 0.52627 0.4903 0.23421 0.0
C1744 C 0.53855 0.48448 0.21747 0.0
C1745 C 0.50597 0.49744 0.20495 0.0
C1746 C 0.521 0.53193 0.1934 0.0
C1747 C 0.49108 0.46141 0.19427 0.0
C1748 C 0.47367 0.51192 0.21725 0.0
C1749 C 0.48625 0.50812 0.23406 0.0
C1750 C 0.46237 0.52116 0.24768 0.0
C1751 C 0.4244 0.53802 0.24404 0.0
C1752 C 0.41039 0.54091 0.22696 0.0
C1753 C 0.43541 0.52769 0.21342 0.0
H1754 H 0.46249 0.06471 0.44346 0.0
H1755 H 0.49716 0.10734 0.49383 0.0
H1756 H 0.5346 0.04388 0.49898 0.0
H1757 H 0.44337 0.96322 0.45699 0.0
H1758 H 0.46132 0.94041 0.43748 0.0
H1759 H 0.44043 0.99057 0.43706 0.0
H1760 H 0.50618 0.0174 0.42308 0.0
H1761 H 0.52726 0.96728 0.42347 0.0
H1762 H 0.55406 0.00838 0.43344 0.0
H1763 H 0.569 0.97643 0.4985 0.0
H1764 H 0.59142 0.90613 0.4939 0.0
H1765 H 0.52883 0.9042 0.44506 0.0
C1766 C 0.47847 0.06074 0.45545 0.0
C1767 C 0.47759 0.09096 0.46818 0.0
C1768 C 0.49779 0.0845 0.48392 0.0
C1769 C 0.51921 0.04868 0.48692 0.0
C1770 C 0.51941 0.0193 0.47417 0.0
C1771 C 0.49907 0.0246 0.45885 0.0
C1772 C 0.50145 0.9869 0.4479 0.0
C1773 C 0.45912 0.96924 0.44467 0.0
C1774 C 0.52356 0.99552 0.43097 0.0
C1775 C 0.52631 0.95968 0.45944 0.0
C1776 C 0.53697 0.97926 0.47439 0.0
C1777 C 0.56064 0.96069 0.4869 0.0
C1778 C 0.57334 0.92084 0.48415 0.0
C1779 C 0.56162 0.89974 0.4692 0.0
C1780 C 0.53791 0.91955 0.45668 0.0
H1781 H 0.92858 0.47081 0.55216 0.0
H1782 H 0.91605 0.43096 0.49956 0.0
H1783 H 0.98417 0.45787 0.49297 0.0
H1784 H 0.98365 0.56154 0.54455 0.0
H1785 H 0.01677 0.55567 0.56272 0.0
H1786 H 0.96674 0.53422 0.5632 0.0
H1787 H 0.99702 0.46381 0.56977 0.0
H1788 H 0.04712 0.48509 0.56942 0.0
H1789 H 0.0349 0.44311 0.5557 0.0
H1790 H 0.05135 0.4942 0.49172 0.0
H1791 H 0.11749 0.52719 0.49689 0.0
H1792 H 0.08957 0.53585 0.55099 0.0
C1793 C 0.94037 0.4677 0.53928 0.0
C1794 C 0.9172 0.4492 0.52629 0.0
C1795 C 0.93355 0.44504 0.50965 0.0
C1796 C 0.97203 0.46041 0.50579 0.0
C1797 C 0.99406 0.4789 0.51884 0.0
C1798 C 0.97923 0.4817 0.53535 0.0
C1799 C 0.00987 0.50107 0.54722 0.0
C1800 C 0.99325 0.54046 0.55487 0.0
C1801 C 0.023 0.4715 0.56136 0.0
C1802 C 0.04398 0.50926 0.53476 0.0
C1803 C 0.03397 0.49694 0.51838 0.0
C1804 C 0.05978 0.50338 0.50453 0.0
C1805 C 0.0971 0.52228 0.50754 0.0
C1806 C 0.10852 0.53354 0.52433 0.0
C1807 C 0.08162 0.52696 0.53807 0.0
loop_
_geom_bond_atom_site_label_1
_geom_bond_atom_site_label_2
_geom_bond_distance
_geom_bond_site_symmetry_2
_ccdc_geom_bond_type
Co0 O2 2.143 . S
Co0 O8 2.074 . S
Co0 O11 2.093 . S
Co0 O24 2.097 . S
Co0 N41 2.151 . S
Co0 N49 2.214 . S
Co1 O2 2.160 . S
Co1 O7 2.058 . S
Co1 O17 2.057 . S
Co1 O32 2.037 . S
Co1 N36 2.145 . S
Co1 N57 2.257 . S
O2 Co0 2.143 . S
O2 Co1 2.160 . S
C3 O4 1.278 . S
C3 O11 1.224 . S
O4 C3 1.278 . S
C5 O6 1.245 . S
C5 O17 1.232 . S
O6 C5 1.245 . S
O7 Co1 2.058 . S
O7 C33 1.269 . S
O8 Co0 2.074 . S
O8 C33 1.257 . S
H9 C34 0.930 . S
H10 C40 0.930 . S
O11 Co0 2.093 . S
O11 C3 1.224 . S
H12 C44 0.929 . S
H13 C46 0.930 . S
H14 C47 0.930 . S
H15 C45 0.929 . S
H16 C48 0.928 . S
O17 Co1 2.057 . S
O17 C5 1.232 . S
H18 C37 0.929 . S
H19 C38 0.929 . S
H20 C50 0.931 . S
H21 C42 0.929 . S
H22 C51 0.930 . S
H23 C43 0.931 . S
O24 Co0 2.097 . S
O24 C52 1.214 . S
H25 C53 0.929 . S
H26 C54 0.926 1_655 S
H27 C55 0.930 . S
H28 C56 0.929 . S
H29 C58 0.930 . S
H30 C35 0.930 . S
H31 C39 0.930 . S
O32 Co1 2.037 . S
O32 C52 1.234 . S
C33 O7 1.269 . S
C33 O8 1.257 . S
C34 H9 0.930 . S
C34 C37 1.388 . S
C34 C39 1.418 . S
C35 H30 0.930 . S
C35 C38 1.404 . S
C35 C39 1.353 . S
N36 Co1 2.145 . S
N36 C37 1.397 . S
N36 C38 1.334 . S
C37 H18 0.929 . S
C37 C34 1.388 . S
C37 N36 1.397 . S
C38 H19 0.929 . S
C38 C35 1.404 . S
C38 N36 1.334 . S
C39 H31 0.930 . S
C39 C34 1.418 . S
C39 C35 1.353 . S
C40 H10 0.930 . S
C40 N41 1.330 . S
C40 C42 1.446 . S
N41 Co0 2.151 . S
N41 C40 1.330 . S
N41 C45 1.418 . S
C42 H21 0.929 . S
C42 C40 1.446 . S
C42 C43 1.332 . S
C43 H23 0.931 . S
C43 C42 1.332 . S
C43 C44 1.267 . S
C44 H12 0.929 . S
C44 C43 1.267 . S
C44 C45 1.251 . S
C45 H15 0.929 . S
C45 N41 1.418 . S
C45 C44 1.251 . S
C46 H13 0.930 . S
C46 C48 1.406 . S
C46 C51 1.261 . S
C47 H14 0.930 . S
C47 N49 1.325 . S
C47 C50 1.357 . S
C48 H16 0.928 . S
C48 C46 1.406 . S
C48 N49 1.261 . S
N49 Co0 2.214 . S
N49 C47 1.325 . S
N49 C48 1.261 . S
C50 H20 0.931 . S
C50 C47 1.357 . S
C50 C51 1.312 . S
C51 H22 0.930 . S
C51 C46 1.261 . S
C51 C50 1.312 . S
C52 O24 1.214 . S
C52 O32 1.234 . S
C53 H25 0.929 . S
C53 C56 1.391 1_455 S
C53 C58 1.391 . S
C54 H26 0.926 1_455 S
C54 C55 1.379 1_455 S
C54 N57 1.406 . S
C55 H27 0.930 . S
C55 C54 1.379 1_655 S
C55 C56 1.392 . S
C56 H28 0.929 . S
C56 C53 1.391 1_655 S
C56 C55 1.392 . S
N57 Co1 2.257 . S
N57 C54 1.406 . S
N57 C58 1.388 . S
C58 H29 0.930 . S
C58 C53 1.391 . S
C58 N57 1.388 . S
Co59 O61 2.143 . S
Co59 O67 2.074 . S
Co59 O70 2.093 . S
Co59 O83 2.097 . S
Co59 N100 2.151 . S
Co59 N108 2.214 . S
Co60 O61 2.160 . S
Co60 O66 2.058 . S
Co60 O76 2.057 . S
Co60 O91 2.037 . S
Co60 N95 2.145 . S
Co60 N116 2.257 . S
O61 Co59 2.143 . S
O61 Co60 2.160 . S
C62 O63 1.278 . S
C62 O70 1.224 . S
O63 C62 1.278 . S
C64 O65 1.245 . S
C64 O76 1.232 . S
O65 C64 1.245 . S
O66 Co60 2.058 . S
O66 C92 1.269 . S
O67 Co59 2.074 . S
O67 C92 1.257 . S
H68 C93 0.930 . S
H69 C99 0.930 . S
O70 Co59 2.093 . S
O70 C62 1.224 . S
H71 C103 0.929 . S
H72 C105 0.930 . S
H73 C106 0.930 . S
H74 C104 0.929 . S
H75 C107 0.928 . S
O76 Co60 2.057 . S
O76 C64 1.232 . S
H77 C96 0.929 . S
H78 C97 0.929 . S
H79 C109 0.931 . S
H80 C101 0.929 . S
H81 C110 0.930 . S
H82 C102 0.931 . S
O83 Co59 2.097 . S
O83 C111 1.214 . S
H84 C112 0.929 . S
H85 C113 0.926 1_545 S
H86 C114 0.930 . S
H87 C115 0.929 . S
H88 C117 0.930 . S
H89 C94 0.930 . S
H90 C98 0.930 . S
O91 Co60 2.037 . S
O91 C111 1.234 . S
C92 O66 1.269 . S
C92 O67 1.257 . S
C93 H68 0.930 . S
C93 C96 1.388 . S
C93 C98 1.418 . S
C94 H89 0.930 . S
C94 C97 1.404 . S
C94 C98 1.353 . S
N95 Co60 2.145 . S
N95 C96 1.397 . S
N95 C97 1.334 . S
C96 H77 0.929 . S
C96 C93 1.388 . S
C96 N95 1.397 . S
C97 H78 0.929 . S
C97 C94 1.404 . S
C97 N95 1.334 . S
C98 H90 0.930 . S
C98 C93 1.418 . S
C98 C94 1.353 . S
C99 H69 0.930 . S
C99 N100 1.330 . S
C99 C101 1.446 . S
N100 Co59 2.151 . S
N100 C99 1.330 . S
N100 C104 1.418 . S
C101 H80 0.929 . S
C101 C99 1.446 . S
C101 C102 1.332 . S
C102 H82 0.931 . S
C102 C101 1.332 . S
C102 C103 1.267 . S
C103 H71 0.929 . S
C103 C102 1.267 . S
C103 C104 1.251 . S
C104 H74 0.929 . S
C104 N100 1.418 . S
C104 C103 1.251 . S
C105 H72 0.930 . S
C105 C107 1.406 . S
C105 C110 1.261 . S
C106 H73 0.930 . S
C106 N108 1.325 . S
C106 C109 1.357 . S
C107 H75 0.928 . S
C107 C105 1.406 . S
C107 N108 1.261 . S
N108 Co59 2.214 . S
N108 C106 1.325 . S
N108 C107 1.261 . S
C109 H79 0.931 . S
C109 C106 1.357 . S
C109 C110 1.312 . S
C110 H81 0.930 . S
C110 C105 1.261 . S
C110 C109 1.312 . S
C111 O83 1.214 . S
C111 O91 1.234 . S
C112 H84 0.929 . S
C112 C115 1.391 1_565 S
C112 C117 1.391 . S
C113 H85 0.926 1_565 S
C113 C114 1.379 1_565 S
C113 N116 1.406 . S
C114 H86 0.930 . S
C114 C113 1.379 1_545 S
C114 C115 1.392 . S
C115 H87 0.929 . S
C115 C112 1.391 1_545 S
C115 C114 1.392 . S
N116 Co60 2.257 . S
N116 C113 1.406 . S
N116 C117 1.388 . S
C117 H88 0.930 . S
C117 C112 1.391 . S
C117 N116 1.388 . S
Co118 O120 2.143 . S
Co118 O126 2.074 . S
Co118 O129 2.093 . S
Co118 O142 2.097 . S
Co118 N159 2.151 . S
Co118 N167 2.214 . S
Co119 O120 2.160 . S
Co119 O125 2.058 . S
Co119 O135 2.057 . S
Co119 O150 2.037 . S
Co119 N154 2.145 . S
Co119 N175 2.257 . S
O120 Co118 2.143 . S
O120 Co119 2.160 . S
C121 O122 1.278 . S
C121 O129 1.224 . S
O122 C121 1.278 . S
C123 O124 1.245 . S
C123 O135 1.232 . S
O124 C123 1.245 . S
O125 Co119 2.058 . S
O125 C151 1.269 . S
O126 Co118 2.074 . S
O126 C151 1.257 . S
H127 C152 0.930 . S
H128 C158 0.930 . S
O129 Co118 2.093 . S
O129 C121 1.224 . S
H130 C162 0.929 . S
H131 C164 0.930 . S
H132 C165 0.930 . S
H133 C163 0.929 . S
H134 C166 0.928 . S
O135 Co119 2.057 . S
O135 C123 1.232 . S
H136 C155 0.929 . S
H137 C156 0.929 . S
H138 C168 0.931 . S
H139 C160 0.929 . S
H140 C169 0.930 . S
H141 C161 0.931 . S
O142 Co118 2.097 . S
O142 C170 1.214 . S
H143 C171 0.929 . S
H144 C172 0.926 1_455 S
H145 C173 0.930 . S
H146 C174 0.929 . S
H147 C176 0.930 . S
H148 C153 0.930 . S
H149 C157 0.930 . S
O150 Co119 2.037 . S
O150 C170 1.234 . S
C151 O125 1.269 . S
C151 O126 1.257 . S
C152 H127 0.930 . S
C152 C155 1.388 . S
C152 C157 1.418 . S
C153 H148 0.930 . S
C153 C156 1.404 . S
C153 C157 1.353 . S
N154 Co119 2.145 . S
N154 C155 1.397 . S
N154 C156 1.334 . S
C155 H136 0.929 . S
C155 C152 1.388 . S
C155 N154 1.397 . S
C156 H137 0.929 . S
C156 C153 1.404 . S
C156 N154 1.334 . S
C157 H149 0.930 . S
C157 C152 1.418 . S
C157 C153 1.353 . S
C158 H128 0.930 . S
C158 N159 1.330 . S
C158 C160 1.446 . S
N159 Co118 2.151 . S
N159 C158 1.330 . S
N159 C163 1.418 . S
C160 H139 0.929 . S
C160 C158 1.446 . S
C160 C161 1.332 . S
C161 H141 0.931 . S
C161 C160 1.332 . S
C161 C162 1.267 . S
C162 H130 0.929 . S
C162 C161 1.267 . S
C162 C163 1.251 . S
C163 H133 0.929 . S
C163 N159 1.418 . S
C163 C162 1.251 . S
C164 H131 0.930 . S
C164 C166 1.406 . S
C164 C169 1.261 . S
C165 H132 0.930 . S
C165 N167 1.325 . S
C165 C168 1.357 . S
C166 H134 0.928 . S
C166 C164 1.406 . S
C166 N167 1.261 . S
N167 Co118 2.214 . S
N167 C165 1.325 . S
N167 C166 1.261 . S
C168 H138 0.931 . S
C168 C165 1.357 . S
C168 C169 1.312 . S
C169 H140 0.930 . S
C169 C164 1.261 . S
C169 C168 1.312 . S
C170 O142 1.214 . S
C170 O150 1.234 . S
C171 H143 0.929 . S
C171 C174 1.391 1_655 S
C171 C176 1.391 . S
C172 H144 0.926 1_655 S
C172 C173 1.379 1_655 S
C172 N175 1.406 . S
C173 H145 0.930 . S
C173 C172 1.379 1_455 S
C173 C174 1.392 . S
C174 H146 0.929 . S
C174 C171 1.391 1_455 S
C174 C173 1.392 . S
N175 Co119 2.257 . S
N175 C172 1.406 . S
N175 C176 1.388 . S
C176 H147 0.930 . S
C176 C171 1.391 . S
C176 N175 1.388 . S
Co177 O179 2.143 . S
Co177 O185 2.074 . S
Co177 O188 2.093 . S
Co177 O201 2.097 . S
Co177 N218 2.151 . S
Co177 N226 2.214 . S
Co178 O179 2.160 . S
Co178 O184 2.058 . S
Co178 O194 2.057 . S
Co178 O209 2.037 . S
Co178 N213 2.145 . S
Co178 N234 2.257 . S
O179 Co177 2.143 . S
O179 Co178 2.160 . S
C180 O181 1.278 . S
C180 O188 1.224 . S
O181 C180 1.278 . S
C182 O183 1.245 . S
C182 O194 1.232 . S
O183 C182 1.245 . S
O184 Co178 2.058 . S
O184 C210 1.269 . S
O185 Co177 2.074 . S
O185 C210 1.257 . S
H186 C211 0.930 . S
H187 C217 0.930 . S
O188 Co177 2.093 . S
O188 C180 1.224 . S
H189 C221 0.929 . S
H190 C223 0.930 . S
H191 C224 0.930 . S
H192 C222 0.929 . S
H193 C225 0.928 . S
O194 Co178 2.057 . S
O194 C182 1.232 . S
H195 C214 0.929 . S
H196 C215 0.929 . S
H197 C227 0.931 . S
H198 C219 0.929 . S
H199 C228 0.930 . S
H200 C220 0.931 . S
O201 Co177 2.097 . S
O201 C229 1.214 . S
H202 C230 0.929 . S
H203 C231 0.926 1_565 S
H204 C232 0.930 . S
H205 C233 0.929 . S
H206 C235 0.930 . S
H207 C212 0.930 . S
H208 C216 0.930 . S
O209 Co178 2.037 . S
O209 C229 1.234 . S
C210 O184 1.269 . S
C210 O185 1.257 . S
C211 H186 0.930 . S
C211 C214 1.388 . S
C211 C216 1.418 . S
C212 H207 0.930 . S
C212 C215 1.404 . S
C212 C216 1.353 . S
N213 Co178 2.145 . S
N213 C214 1.397 . S
N213 C215 1.334 . S
C214 H195 0.929 . S
C214 C211 1.388 . S
C214 N213 1.397 . S
C215 H196 0.929 . S
C215 C212 1.404 . S
C215 N213 1.334 . S
C216 H208 0.930 . S
C216 C211 1.418 . S
C216 C212 1.353 . S
C217 H187 0.930 . S
C217 N218 1.330 . S
C217 C219 1.446 . S
N218 Co177 2.151 . S
N218 C217 1.330 . S
N218 C222 1.418 . S
C219 H198 0.929 . S
C219 C217 1.446 . S
C219 C220 1.332 . S
C220 H200 0.931 . S
C220 C219 1.332 . S
C220 C221 1.267 . S
C221 H189 0.929 . S
C221 C220 1.267 . S
C221 C222 1.251 . S
C222 H192 0.929 . S
C222 N218 1.418 . S
C222 C221 1.251 . S
C223 H190 0.930 . S
C223 C225 1.406 . S
C223 C228 1.261 . S
C224 H191 0.930 . S
C224 N226 1.325 . S
C224 C227 1.357 . S
C225 H193 0.928 . S
C225 C223 1.406 . S
C225 N226 1.261 . S
N226 Co177 2.214 . S
N226 C224 1.325 . S
N226 C225 1.261 . S
C227 H197 0.931 . S
C227 C224 1.357 . S
C227 C228 1.312 . S
C228 H199 0.930 . S
C228 C223 1.261 . S
C228 C227 1.312 . S
C229 O201 1.214 . S
C229 O209 1.234 . S
C230 H202 0.929 . S
C230 C233 1.391 1_545 S
C230 C235 1.391 . S
C231 H203 0.926 1_545 S
C231 C232 1.379 1_545 S
C231 N234 1.406 . S
C232 H204 0.930 . S
C232 C231 1.379 1_565 S
C232 C233 1.392 . S
C233 H205 0.929 . S
C233 C230 1.391 1_565 S
C233 C232 1.392 . S
N234 Co178 2.257 . S
N234 C231 1.406 . S
N234 C235 1.388 . S
C235 H206 0.930 . S
C235 C230 1.391 . S
C235 N234 1.388 . S
Co236 O238 2.143 . S
Co236 O244 2.074 . S
Co236 O247 2.093 . S
Co236 O260 2.097 . S
Co236 N277 2.151 . S
Co236 N285 2.214 1_556 S
Co237 O238 2.160 . S
Co237 O243 2.058 . S
Co237 O253 2.057 . S
Co237 O268 2.037 . S
Co237 N272 2.145 . S
Co237 N293 2.257 . S
O238 Co236 2.143 . S
O238 Co237 2.160 . S
C239 O240 1.278 . S
C239 O247 1.224 . S
O240 C239 1.278 . S
C241 O242 1.245 . S
C241 O253 1.232 . S
O242 C241 1.245 . S
O243 Co237 2.058 . S
O243 C269 1.269 . S
O244 Co236 2.074 . S
O244 C269 1.257 . S
H245 C270 0.930 . S
H246 C276 0.930 . S
O247 Co236 2.093 . S
O247 C239 1.224 . S
H248 C280 0.929 . S
H249 C282 0.930 . S
H250 C283 0.930 . S
H251 C281 0.929 1_554 S
H252 C284 0.928 . S
O253 Co237 2.057 . S
O253 C241 1.232 . S
H254 C273 0.929 . S
H255 C274 0.929 . S
H256 C286 0.931 . S
H257 C278 0.929 . S
H258 C287 0.930 . S
H259 C279 0.931 . S
O260 Co236 2.097 . S
O260 C288 1.214 . S
H261 C289 0.929 . S
H262 C290 0.926 1_655 S
H263 C291 0.930 . S
H264 C292 0.929 . S
H265 C294 0.930 . S
H266 C271 0.930 . S
H267 C275 0.930 . S
O268 Co237 2.037 . S
O268 C288 1.234 . S
C269 O243 1.269 . S
C269 O244 1.257 . S
C270 H245 0.930 . S
C270 C273 1.388 . S
C270 C275 1.418 . S
C271 H266 0.930 . S
C271 C274 1.404 . S
C271 C275 1.353 . S
N272 Co237 2.145 . S
N272 C273 1.397 . S
N272 C274 1.334 . S
C273 H254 0.929 . S
C273 C270 1.388 . S
C273 N272 1.397 . S
C274 H255 0.929 . S
C274 C271 1.404 . S
C274 N272 1.334 . S
C275 H267 0.930 . S
C275 C270 1.418 . S
C275 C271 1.353 . S
C276 H246 0.930 . S
C276 N277 1.330 . S
C276 C278 1.446 . S
N277 Co236 2.151 . S
N277 C276 1.330 . S
N277 C281 1.418 . S
C278 H257 0.929 . S
C278 C276 1.446 . S
C278 C279 1.332 . S
C279 H259 0.931 . S
C279 C278 1.332 . S
C279 C280 1.267 1_556 S
C280 H248 0.929 . S
C280 C279 1.267 1_554 S
C280 C281 1.251 1_554 S
C281 H251 0.929 1_556 S
C281 N277 1.418 . S
C281 C280 1.251 1_556 S
C282 H249 0.930 . S
C282 C284 1.406 . S
C282 C287 1.261 . S
C283 H250 0.930 . S
C283 N285 1.325 . S
C283 C286 1.357 . S
C284 H252 0.928 . S
C284 C282 1.406 . S
C284 N285 1.261 . S
N285 Co236 2.214 1_554 S
N285 C283 1.325 . S
N285 C284 1.261 . S
C286 H256 0.931 . S
C286 C283 1.357 . S
C286 C287 1.312 . S
C287 H258 0.930 . S
C287 C282 1.261 . S
C287 C286 1.312 . S
C288 O260 1.214 . S
C288 O268 1.234 . S
C289 H261 0.929 . S
C289 C292 1.391 1_455 S
C289 C294 1.391 . S
C290 H262 0.926 1_455 S
C290 C291 1.379 1_455 S
C290 N293 1.406 . S
C291 H263 0.930 . S
C291 C290 1.379 1_655 S
C291 C292 1.392 . S
C292 H264 0.929 . S
C292 C289 1.391 1_655 S
C292 C291 1.392 . S
N293 Co237 2.257 . S
N293 C290 1.406 . S
N293 C294 1.388 . S
C294 H265 0.930 . S
C294 C289 1.391 . S
C294 N293 1.388 . S
Co295 O297 2.143 . S
Co295 O303 2.074 . S
Co295 O306 2.093 . S
Co295 O319 2.097 . S
Co295 N336 2.151 . S
Co295 N344 2.214 1_554 S
Co296 O297 2.160 . S
Co296 O302 2.058 . S
Co296 O312 2.057 . S
Co296 O327 2.037 . S
Co296 N331 2.145 . S
Co296 N352 2.257 . S
O297 Co295 2.143 . S
O297 Co296 2.160 . S
C298 O299 1.278 . S
C298 O306 1.224 . S
O299 C298 1.278 . S
C300 O301 1.245 . S
C300 O312 1.232 . S
O301 C300 1.245 . S
O302 Co296 2.058 . S
O302 C328 1.269 . S
O303 Co295 2.074 . S
O303 C328 1.257 . S
H304 C329 0.930 . S
H305 C335 0.930 . S
O306 Co295 2.093 . S
O306 C298 1.224 . S
H307 C339 0.929 . S
H308 C341 0.930 . S
H309 C342 0.930 . S
H310 C340 0.929 1_556 S
H311 C343 0.928 . S
O312 Co296 2.057 . S
O312 C300 1.232 . S
H313 C332 0.929 . S
H314 C333 0.929 . S
H315 C345 0.931 . S
H316 C337 0.929 . S
H317 C346 0.930 . S
H318 C338 0.931 . S
O319 Co295 2.097 . S
O319 C347 1.214 . S
H320 C348 0.929 . S
H321 C349 0.926 1_545 S
H322 C350 0.930 . S
H323 C351 0.929 . S
H324 C353 0.930 . S
H325 C330 0.930 . S
H326 C334 0.930 . S
O327 Co296 2.037 . S
O327 C347 1.234 . S
C328 O302 1.269 . S
C328 O303 1.257 . S
C329 H304 0.930 . S
C329 C332 1.388 . S
C329 C334 1.418 . S
C330 H325 0.930 . S
C330 C333 1.404 . S
C330 C334 1.353 . S
N331 Co296 2.145 . S
N331 C332 1.397 . S
N331 C333 1.334 . S
C332 H313 0.929 . S
C332 C329 1.388 . S
C332 N331 1.397 . S
C333 H314 0.929 . S
C333 C330 1.404 . S
C333 N331 1.334 . S
C334 H326 0.930 . S
C334 C329 1.418 . S
C334 C330 1.353 . S
C335 H305 0.930 . S
C335 N336 1.330 . S
C335 C337 1.446 . S
N336 Co295 2.151 . S
N336 C335 1.330 . S
N336 C340 1.418 . S
C337 H316 0.929 . S
C337 C335 1.446 . S
C337 C338 1.332 . S
C338 H318 0.931 . S
C338 C337 1.332 . S
C338 C339 1.267 1_554 S
C339 H307 0.929 . S
C339 C338 1.267 1_556 S
C339 C340 1.251 1_556 S
C340 H310 0.929 1_554 S
C340 N336 1.418 . S
C340 C339 1.251 1_554 S
C341 H308 0.930 . S
C341 C343 1.406 . S
C341 C346 1.261 . S
C342 H309 0.930 . S
C342 N344 1.325 . S
C342 C345 1.357 . S
C343 H311 0.928 . S
C343 C341 1.406 . S
C343 N344 1.261 . S
N344 Co295 2.214 1_556 S
N344 C342 1.325 . S
N344 C343 1.261 . S
C345 H315 0.931 . S
C345 C342 1.357 . S
C345 C346 1.312 . S
C346 H317 0.930 . S
C346 C341 1.261 . S
C346 C345 1.312 . S
C347 O319 1.214 . S
C347 O327 1.234 . S
C348 H320 0.929 . S
C348 C351 1.391 1_565 S
C348 C353 1.391 . S
C349 H321 0.926 1_565 S
C349 C350 1.379 1_565 S
C349 N352 1.406 . S
C350 H322 0.930 . S
C350 C349 1.379 1_545 S
C350 C351 1.392 . S
C351 H323 0.929 . S
C351 C348 1.391 1_545 S
C351 C350 1.392 . S
N352 Co296 2.257 . S
N352 C349 1.406 . S
N352 C353 1.388 . S
C353 H324 0.930 . S
C353 C348 1.391 . S
C353 N352 1.388 . S
Co354 O356 2.143 . S
Co354 O362 2.074 . S
Co354 O365 2.093 . S
Co354 O378 2.097 . S
Co354 N395 2.151 . S
Co354 N403 2.214 1_556 S
Co355 O356 2.160 . S
Co355 O361 2.058 . S
Co355 O371 2.057 . S
Co355 O386 2.037 . S
Co355 N390 2.145 . S
Co355 N411 2.257 . S
O356 Co354 2.143 . S
O356 Co355 2.160 . S
C357 O358 1.278 . S
C357 O365 1.224 . S
O358 C357 1.278 . S
C359 O360 1.245 . S
C359 O371 1.232 . S
O360 C359 1.245 . S
O361 Co355 2.058 . S
O361 C387 1.269 . S
O362 Co354 2.074 . S
O362 C387 1.257 . S
H363 C388 0.930 . S
H364 C394 0.930 . S
O365 Co354 2.093 . S
O365 C357 1.224 . S
H366 C398 0.929 . S
H367 C400 0.930 . S
H368 C401 0.930 . S
H369 C399 0.929 1_554 S
H370 C402 0.928 . S
O371 Co355 2.057 . S
O371 C359 1.232 . S
H372 C391 0.929 . S
H373 C392 0.929 . S
H374 C404 0.931 . S
H375 C396 0.929 . S
H376 C405 0.930 . S
H377 C397 0.931 . S
O378 Co354 2.097 . S
O378 C406 1.214 . S
H379 C407 0.929 . S
H380 C408 0.926 1_455 S
H381 C409 0.930 . S
H382 C410 0.929 . S
H383 C412 0.930 . S
H384 C389 0.930 . S
H385 C393 0.930 . S
O386 Co355 2.037 . S
O386 C406 1.234 . S
C387 O361 1.269 . S
C387 O362 1.257 . S
C388 H363 0.930 . S
C388 C391 1.388 . S
C388 C393 1.418 . S
C389 H384 0.930 . S
C389 C392 1.404 . S
C389 C393 1.353 . S
N390 Co355 2.145 . S
N390 C391 1.397 . S
N390 C392 1.334 . S
C391 H372 0.929 . S
C391 C388 1.388 . S
C391 N390 1.397 . S
C392 H373 0.929 . S
C392 C389 1.404 . S
C392 N390 1.334 . S
C393 H385 0.930 . S
C393 C388 1.418 . S
C393 C389 1.353 . S
C394 H364 0.930 . S
C394 N395 1.330 . S
C394 C396 1.446 . S
N395 Co354 2.151 . S
N395 C394 1.330 . S
N395 C399 1.418 . S
C396 H375 0.929 . S
C396 C394 1.446 . S
C396 C397 1.332 . S
C397 H377 0.931 . S
C397 C396 1.332 . S
C397 C398 1.267 1_556 S
C398 H366 0.929 . S
C398 C397 1.267 1_554 S
C398 C399 1.251 1_554 S
C399 H369 0.929 1_556 S
C399 N395 1.418 . S
C399 C398 1.251 1_556 S
C400 H367 0.930 . S
C400 C402 1.406 . S
C400 C405 1.261 . S
C401 H368 0.930 . S
C401 N403 1.325 . S
C401 C404 1.357 . S
C402 H370 0.928 . S
C402 C400 1.406 . S
C402 N403 1.261 . S
N403 Co354 2.214 1_554 S
N403 C401 1.325 . S
N403 C402 1.261 . S
C404 H374 0.931 . S
C404 C401 1.357 . S
C404 C405 1.312 . S
C405 H376 0.930 . S
C405 C400 1.261 . S
C405 C404 1.312 . S
C406 O378 1.214 . S
C406 O386 1.234 . S
C407 H379 0.929 . S
C407 C410 1.391 1_655 S
C407 C412 1.391 . S
C408 H380 0.926 1_655 S
C408 C409 1.379 1_655 S
C408 N411 1.406 . S
C409 H381 0.930 . S
C409 C408 1.379 1_455 S
C409 C410 1.392 . S
C410 H382 0.929 . S
C410 C407 1.391 1_455 S
C410 C409 1.392 . S
N411 Co355 2.257 . S
N411 C408 1.406 . S
N411 C412 1.388 . S
C412 H383 0.930 . S
C412 C407 1.391 . S
C412 N411 1.388 . S
Co413 O415 2.143 . S
Co413 O421 2.074 . S
Co413 O424 2.093 . S
Co413 O437 2.097 . S
Co413 N454 2.151 . S
Co413 N462 2.214 1_554 S
Co414 O415 2.160 . S
Co414 O420 2.058 . S
Co414 O430 2.057 . S
Co414 O445 2.037 . S
Co414 N449 2.145 . S
Co414 N470 2.257 . S
O415 Co413 2.143 . S
O415 Co414 2.160 . S
C416 O417 1.278 . S
C416 O424 1.224 . S
O417 C416 1.278 . S
C418 O419 1.245 . S
C418 O430 1.232 . S
O419 C418 1.245 . S
O420 Co414 2.058 . S
O420 C446 1.269 . S
O421 Co413 2.074 . S
O421 C446 1.257 . S
H422 C447 0.930 . S
H423 C453 0.930 . S
O424 Co413 2.093 . S
O424 C416 1.224 . S
H425 C457 0.929 . S
H426 C459 0.930 . S
H427 C460 0.930 . S
H428 C458 0.929 1_556 S
H429 C461 0.928 . S
O430 Co414 2.057 . S
O430 C418 1.232 . S
H431 C450 0.929 . S
H432 C451 0.929 . S
H433 C463 0.931 . S
H434 C455 0.929 . S
H435 C464 0.930 . S
H436 C456 0.931 . S
O437 Co413 2.097 . S
O437 C465 1.214 . S
H438 C466 0.929 . S
H439 C467 0.926 1_565 S
H440 C468 0.930 . S
H441 C469 0.929 . S
H442 C471 0.930 . S
H443 C448 0.930 . S
H444 C452 0.930 . S
O445 Co414 2.037 . S
O445 C465 1.234 . S
C446 O420 1.269 . S
C446 O421 1.257 . S
C447 H422 0.930 . S
C447 C450 1.388 . S
C447 C452 1.418 . S
C448 H443 0.930 . S
C448 C451 1.404 . S
C448 C452 1.353 . S
N449 Co414 2.145 . S
N449 C450 1.397 . S
N449 C451 1.334 . S
C450 H431 0.929 . S
C450 C447 1.388 . S
C450 N449 1.397 . S
C451 H432 0.929 . S
C451 C448 1.404 . S
C451 N449 1.334 . S
C452 H444 0.930 . S
C452 C447 1.418 . S
C452 C448 1.353 . S
C453 H423 0.930 . S
C453 N454 1.330 . S
C453 C455 1.446 . S
N454 Co413 2.151 . S
N454 C453 1.330 . S
N454 C458 1.418 . S
C455 H434 0.929 . S
C455 C453 1.446 . S
C455 C456 1.332 . S
C456 H436 0.931 . S
C456 C455 1.332 . S
C456 C457 1.267 1_554 S
C457 H425 0.929 . S
C457 C456 1.267 1_556 S
C457 C458 1.251 1_556 S
C458 H428 0.929 1_554 S
C458 N454 1.418 . S
C458 C457 1.251 1_554 S
C459 H426 0.930 . S
C459 C461 1.406 . S
C459 C464 1.261 . S
C460 H427 0.930 . S
C460 N462 1.325 . S
C460 C463 1.357 . S
C461 H429 0.928 . S
C461 C459 1.406 . S
C461 N462 1.261 . S
N462 Co413 2.214 1_556 S
N462 C460 1.325 . S
N462 C461 1.261 . S
C463 H433 0.931 . S
C463 C460 1.357 . S
C463 C464 1.312 . S
C464 H435 0.930 . S
C464 C459 1.261 . S
C464 C463 1.312 . S
C465 O437 1.214 . S
C465 O445 1.234 . S
C466 H438 0.929 . S
C466 C469 1.391 1_545 S
C466 C471 1.391 . S
C467 H439 0.926 1_545 S
C467 C468 1.379 1_545 S
C467 N470 1.406 . S
C468 H440 0.930 . S
C468 C467 1.379 1_565 S
C468 C469 1.392 . S
C469 H441 0.929 . S
C469 C466 1.391 1_565 S
C469 C468 1.392 . S
N470 Co414 2.257 . S
N470 C467 1.406 . S
N470 C471 1.388 . S
C471 H442 0.930 . S
C471 C466 1.391 . S
C471 N470 1.388 . S
Co472 O474 2.143 . S
Co472 O480 2.074 . S
Co472 O483 2.093 . S
Co472 O496 2.097 . S
Co472 N513 2.151 . S
Co472 N521 2.214 . S
Co473 O474 2.160 . S
Co473 O479 2.058 . S
Co473 O489 2.057 . S
Co473 O504 2.037 . S
Co473 N508 2.145 . S
Co473 N529 2.257 . S
O474 Co472 2.143 . S
O474 Co473 2.160 . S
C475 O476 1.278 . S
C475 O483 1.224 . S
O476 C475 1.278 . S
C477 O478 1.245 . S
C477 O489 1.232 . S
O478 C477 1.245 . S
O479 Co473 2.058 . S
O479 C505 1.269 . S
O480 Co472 2.074 . S
O480 C505 1.257 . S
H481 C506 0.930 . S
H482 C512 0.930 . S
O483 Co472 2.093 . S
O483 C475 1.224 . S
H484 C516 0.929 . S
H485 C518 0.930 . S
H486 C519 0.930 . S
H487 C517 0.929 . S
H488 C520 0.928 . S
O489 Co473 2.057 . S
O489 C477 1.232 . S
H490 C509 0.929 . S
H491 C510 0.929 . S
H492 C522 0.931 . S
H493 C514 0.929 . S
H494 C523 0.930 . S
H495 C515 0.931 . S
O496 Co472 2.097 . S
O496 C524 1.214 . S
H497 C525 0.929 . S
H498 C526 0.929 . S
H499 C527 0.930 . S
H500 C528 0.929 . S
H501 C530 0.930 . S
H502 C507 0.930 . S
H503 C511 0.930 . S
O504 Co473 2.037 . S
O504 C524 1.234 . S
C505 O479 1.269 . S
C505 O480 1.257 . S
C506 H481 0.930 . S
C506 C509 1.388 . S
C506 C511 1.418 . S
C507 H502 0.930 . S
C507 C510 1.404 . S
C507 C511 1.353 . S
N508 Co473 2.145 . S
N508 C509 1.397 . S
N508 C510 1.334 . S
C509 H490 0.929 . S
C509 C506 1.388 . S
C509 N508 1.397 . S
C510 H491 0.929 . S
C510 C507 1.404 . S
C510 N508 1.334 . S
C511 H503 0.930 . S
C511 C506 1.418 . S
C511 C507 1.353 . S
C512 H482 0.930 . S
C512 N513 1.330 . S
C512 C514 1.446 . S
N513 Co472 2.151 . S
N513 C512 1.330 . S
N513 C517 1.418 . S
C514 H493 0.929 . S
C514 C512 1.446 . S
C514 C515 1.332 . S
C515 H495 0.931 . S
C515 C514 1.332 . S
C515 C516 1.267 . S
C516 H484 0.929 . S
C516 C515 1.267 . S
C516 C517 1.251 . S
C517 H487 0.929 . S
C517 N513 1.418 . S
C517 C516 1.251 . S
C518 H485 0.930 . S
C518 C520 1.406 . S
C518 C523 1.261 . S
C519 H486 0.930 . S
C519 N521 1.325 . S
C519 C522 1.357 . S
C520 H488 0.928 . S
C520 C518 1.406 . S
C520 N521 1.261 . S
N521 Co472 2.214 . S
N521 C519 1.325 . S
N521 C520 1.261 . S
C522 H492 0.931 . S
C522 C519 1.357 . S
C522 C523 1.312 . S
C523 H494 0.930 . S
C523 C518 1.261 . S
C523 C522 1.312 . S
C524 O496 1.214 . S
C524 O504 1.234 . S
C525 H497 0.929 . S
C525 C528 1.391 . S
C525 C530 1.391 . S
C526 H498 0.929 . S
C526 C527 1.390 . S
C526 N529 1.391 . S
C527 H499 0.930 . S
C527 C526 1.390 . S
C527 C528 1.392 . S
C528 H500 0.929 . S
C528 C525 1.391 . S
C528 C527 1.392 . S
N529 Co473 2.257 . S
N529 C526 1.391 . S
N529 C530 1.388 . S
C530 H501 0.930 . S
C530 C525 1.391 . S
C530 N529 1.388 . S
Co531 O533 2.143 . S
Co531 O539 2.074 . S
Co531 O542 2.093 . S
Co531 O555 2.097 . S
Co531 N572 2.151 . S
Co531 N580 2.214 . S
Co532 O533 2.160 . S
Co532 O538 2.058 . S
Co532 O548 2.057 . S
Co532 O563 2.037 . S
Co532 N567 2.145 . S
Co532 N588 2.257 . S
O533 Co531 2.143 . S
O533 Co532 2.160 . S
C534 O535 1.278 . S
C534 O542 1.224 . S
O535 C534 1.278 . S
C536 O537 1.245 . S
C536 O548 1.232 . S
O537 C536 1.245 . S
O538 Co532 2.058 . S
O538 C564 1.269 . S
O539 Co531 2.074 . S
O539 C564 1.257 . S
H540 C565 0.930 . S
H541 C571 0.930 . S
O542 Co531 2.093 . S
O542 C534 1.224 . S
H543 C575 0.929 . S
H544 C577 0.930 . S
H545 C578 0.930 . S
H546 C576 0.929 . S
H547 C579 0.928 . S
O548 Co532 2.057 . S
O548 C536 1.232 . S
H549 C568 0.929 . S
H550 C569 0.929 . S
H551 C581 0.931 . S
H552 C573 0.929 . S
H553 C582 0.930 . S
H554 C574 0.931 . S
O555 Co531 2.097 . S
O555 C583 1.214 . S
H556 C584 0.929 . S
H557 C585 0.929 . S
H558 C586 0.930 . S
H559 C587 0.929 . S
H560 C589 0.930 . S
H561 C566 0.930 . S
H562 C570 0.930 . S
O563 Co532 2.037 . S
O563 C583 1.234 . S
C564 O538 1.269 . S
C564 O539 1.257 . S
C565 H540 0.930 . S
C565 C568 1.388 . S
C565 C570 1.418 . S
C566 H561 0.930 . S
C566 C569 1.404 . S
C566 C570 1.353 . S
N567 Co532 2.145 . S
N567 C568 1.397 . S
N567 C569 1.334 . S
C568 H549 0.929 . S
C568 C565 1.388 . S
C568 N567 1.397 . S
C569 H550 0.929 . S
C569 C566 1.404 . S
C569 N567 1.334 . S
C570 H562 0.930 . S
C570 C565 1.418 . S
C570 C566 1.353 . S
C571 H541 0.930 . S
C571 N572 1.330 . S
C571 C573 1.446 . S
N572 Co531 2.151 . S
N572 C571 1.330 . S
N572 C576 1.418 . S
C573 H552 0.929 . S
C573 C571 1.446 . S
C573 C574 1.332 . S
C574 H554 0.931 . S
C574 C573 1.332 . S
C574 C575 1.267 . S
C575 H543 0.929 . S
C575 C574 1.267 . S
C575 C576 1.251 . S
C576 H546 0.929 . S
C576 N572 1.418 . S
C576 C575 1.251 . S
C577 H544 0.930 . S
C577 C579 1.406 . S
C577 C582 1.261 . S
C578 H545 0.930 . S
C578 N580 1.325 . S
C578 C581 1.357 . S
C579 H547 0.928 . S
C579 C577 1.406 . S
C579 N580 1.261 . S
N580 Co531 2.214 . S
N580 C578 1.325 . S
N580 C579 1.261 . S
C581 H551 0.931 . S
C581 C578 1.357 . S
C581 C582 1.312 . S
C582 H553 0.930 . S
C582 C577 1.261 . S
C582 C581 1.312 . S
C583 O555 1.214 . S
C583 O563 1.234 . S
C584 H556 0.929 . S
C584 C587 1.391 . S
C584 C589 1.391 . S
C585 H557 0.929 . S
C585 C586 1.390 . S
C585 N588 1.391 . S
C586 H558 0.930 . S
C586 C585 1.390 . S
C586 C587 1.392 . S
C587 H559 0.929 . S
C587 C584 1.391 . S
C587 C586 1.392 . S
N588 Co532 2.257 . S
N588 C585 1.391 . S
N588 C589 1.388 . S
C589 H560 0.930 . S
C589 C584 1.391 . S
C589 N588 1.388 . S
Co590 O592 2.143 . S
Co590 O598 2.074 . S
Co590 O601 2.093 . S
Co590 O614 2.097 . S
Co590 N631 2.151 . S
Co590 N639 2.214 . S
Co591 O592 2.160 . S
Co591 O597 2.058 . S
Co591 O607 2.057 . S
Co591 O622 2.037 . S
Co591 N626 2.145 . S
Co591 N647 2.257 . S
O592 Co590 2.143 . S
O592 Co591 2.160 . S
C593 O594 1.278 . S
C593 O601 1.224 . S
O594 C593 1.278 . S
C595 O596 1.245 . S
C595 O607 1.232 . S
O596 C595 1.245 . S
O597 Co591 2.058 . S
O597 C623 1.269 . S
O598 Co590 2.074 . S
O598 C623 1.257 . S
H599 C624 0.930 . S
H600 C630 0.930 . S
O601 Co590 2.093 . S
O601 C593 1.224 . S
H602 C634 0.929 . S
H603 C636 0.930 . S
H604 C637 0.930 . S
H605 C635 0.929 . S
H606 C638 0.928 . S
O607 Co591 2.057 . S
O607 C595 1.232 . S
H608 C627 0.929 . S
H609 C628 0.929 . S
H610 C640 0.931 . S
H611 C632 0.929 . S
H612 C641 0.930 . S
H613 C633 0.931 . S
O614 Co590 2.097 . S
O614 C642 1.214 . S
H615 C643 0.929 . S
H616 C644 0.929 . S
H617 C645 0.930 . S
H618 C646 0.929 . S
H619 C648 0.930 . S
H620 C625 0.930 . S
H621 C629 0.930 . S
O622 Co591 2.037 . S
O622 C642 1.234 . S
C623 O597 1.269 . S
C623 O598 1.257 . S
C624 H599 0.930 . S
C624 C627 1.388 . S
C624 C629 1.418 . S
C625 H620 0.930 . S
C625 C628 1.404 . S
C625 C629 1.353 . S
N626 Co591 2.145 . S
N626 C627 1.397 . S
N626 C628 1.334 . S
C627 H608 0.929 . S
C627 C624 1.388 . S
C627 N626 1.397 . S
C628 H609 0.929 . S
C628 C625 1.404 . S
C628 N626 1.334 . S
C629 H621 0.930 . S
C629 C624 1.418 . S
C629 C625 1.353 . S
C630 H600 0.930 . S
C630 N631 1.330 . S
C630 C632 1.446 . S
N631 Co590 2.151 . S
N631 C630 1.330 . S
N631 C635 1.418 . S
C632 H611 0.929 . S
C632 C630 1.446 . S
C632 C633 1.332 . S
C633 H613 0.931 . S
C633 C632 1.332 . S
C633 C634 1.267 . S
C634 H602 0.929 . S
C634 C633 1.267 . S
C634 C635 1.251 . S
C635 H605 0.929 . S
C635 N631 1.418 . S
C635 C634 1.251 . S
C636 H603 0.930 . S
C636 C638 1.406 . S
C636 C641 1.261 . S
C637 H604 0.930 . S
C637 N639 1.325 . S
C637 C640 1.357 . S
C638 H606 0.928 . S
C638 C636 1.406 . S
C638 N639 1.261 . S
N639 Co590 2.214 . S
N639 C637 1.325 . S
N639 C638 1.261 . S
C640 H610 0.931 . S
C640 C637 1.357 . S
C640 C641 1.312 . S
C641 H612 0.930 . S
C641 C636 1.261 . S
C641 C640 1.312 . S
C642 O614 1.214 . S
C642 O622 1.234 . S
C643 H615 0.929 . S
C643 C646 1.391 . S
C643 C648 1.391 . S
C644 H616 0.929 . S
C644 C645 1.390 . S
C644 N647 1.391 . S
C645 H617 0.930 . S
C645 C644 1.390 . S
C645 C646 1.392 . S
C646 H618 0.929 . S
C646 C643 1.391 . S
C646 C645 1.392 . S
N647 Co591 2.257 . S
N647 C644 1.391 . S
N647 C648 1.388 . S
C648 H619 0.930 . S
C648 C643 1.391 . S
C648 N647 1.388 . S
Co649 O651 2.143 . S
Co649 O657 2.074 . S
Co649 O660 2.093 . S
Co649 O673 2.097 . S
Co649 N690 2.151 . S
Co649 N698 2.214 . S
Co650 O651 2.160 . S
Co650 O656 2.058 . S
Co650 O666 2.057 . S
Co650 O681 2.037 . S
Co650 N685 2.145 . S
Co650 N706 2.257 . S
O651 Co649 2.143 . S
O651 Co650 2.160 . S
C652 O653 1.278 . S
C652 O660 1.224 . S
O653 C652 1.278 . S
C654 O655 1.245 . S
C654 O666 1.232 . S
O655 C654 1.245 . S
O656 Co650 2.058 . S
O656 C682 1.269 . S
O657 Co649 2.074 . S
O657 C682 1.257 . S
H658 C683 0.930 . S
H659 C689 0.930 . S
O660 Co649 2.093 . S
O660 C652 1.224 . S
H661 C693 0.929 . S
H662 C695 0.930 . S
H663 C696 0.930 . S
H664 C694 0.929 . S
H665 C697 0.928 . S
O666 Co650 2.057 . S
O666 C654 1.232 . S
H667 C686 0.929 . S
H668 C687 0.929 . S
H669 C699 0.931 . S
H670 C691 0.929 . S
H671 C700 0.930 . S
H672 C692 0.931 . S
O673 Co649 2.097 . S
O673 C701 1.214 . S
H674 C702 0.929 . S
H675 C703 0.929 . S
H676 C704 0.930 . S
H677 C705 0.929 . S
H678 C707 0.930 . S
H679 C684 0.930 . S
H680 C688 0.930 . S
O681 Co650 2.037 . S
O681 C701 1.234 . S
C682 O656 1.269 . S
C682 O657 1.257 . S
C683 H658 0.930 . S
C683 C686 1.388 . S
C683 C688 1.418 . S
C684 H679 0.930 . S
C684 C687 1.404 . S
C684 C688 1.353 . S
N685 Co650 2.145 . S
N685 C686 1.397 . S
N685 C687 1.334 . S
C686 H667 0.929 . S
C686 C683 1.388 . S
C686 N685 1.397 . S
C687 H668 0.929 . S
C687 C684 1.404 . S
C687 N685 1.334 . S
C688 H680 0.930 . S
C688 C683 1.418 . S
C688 C684 1.353 . S
C689 H659 0.930 . S
C689 N690 1.330 . S
C689 C691 1.446 . S
N690 Co649 2.151 . S
N690 C689 1.330 . S
N690 C694 1.418 . S
C691 H670 0.929 . S
C691 C689 1.446 . S
C691 C692 1.332 . S
C692 H672 0.931 . S
C692 C691 1.332 . S
C692 C693 1.267 . S
C693 H661 0.929 . S
C693 C692 1.267 . S
C693 C694 1.251 . S
C694 H664 0.929 . S
C694 N690 1.418 . S
C694 C693 1.251 . S
C695 H662 0.930 . S
C695 C697 1.406 . S
C695 C700 1.261 . S
C696 H663 0.930 . S
C696 N698 1.325 . S
C696 C699 1.357 . S
C697 H665 0.928 . S
C697 C695 1.406 . S
C697 N698 1.261 . S
N698 Co649 2.214 . S
N698 C696 1.325 . S
N698 C697 1.261 . S
C699 H669 0.931 . S
C699 C696 1.357 . S
C699 C700 1.312 . S
C700 H671 0.930 . S
C700 C695 1.261 . S
C700 C699 1.312 . S
C701 O673 1.214 . S
C701 O681 1.234 . S
C702 H674 0.929 . S
C702 C705 1.391 . S
C702 C707 1.391 . S
C703 H675 0.929 . S
C703 C704 1.390 . S
C703 N706 1.391 . S
C704 H676 0.930 . S
C704 C703 1.390 . S
C704 C705 1.392 . S
C705 H677 0.929 . S
C705 C702 1.391 . S
C705 C704 1.392 . S
N706 Co650 2.257 . S
N706 C703 1.391 . S
N706 C707 1.388 . S
C707 H678 0.930 . S
C707 C702 1.391 . S
C707 N706 1.388 . S
Co708 O710 2.143 . S
Co708 O716 2.074 . S
Co708 O719 2.093 . S
Co708 O732 2.097 . S
Co708 N749 2.151 . S
Co708 N757 2.214 . S
Co709 O710 2.160 . S
Co709 O715 2.058 . S
Co709 O725 2.057 . S
Co709 O740 2.037 . S
Co709 N744 2.145 . S
Co709 N765 2.257 . S
O710 Co708 2.143 . S
O710 Co709 2.160 . S
C711 O712 1.278 . S
C711 O719 1.224 . S
O712 C711 1.278 . S
C713 O714 1.245 . S
C713 O725 1.232 . S
O714 C713 1.245 . S
O715 Co709 2.058 . S
O715 C741 1.269 . S
O716 Co708 2.074 . S
O716 C741 1.257 . S
H717 C742 0.930 . S
H718 C748 0.930 . S
O719 Co708 2.093 . S
O719 C711 1.224 . S
H720 C752 0.929 . S
H721 C754 0.930 . S
H722 C755 0.930 . S
H723 C753 0.929 . S
H724 C756 0.928 . S
O725 Co709 2.057 . S
O725 C713 1.232 . S
H726 C745 0.929 . S
H727 C746 0.929 . S
H728 C758 0.931 . S
H729 C750 0.929 . S
H730 C759 0.930 . S
H731 C751 0.931 . S
O732 Co708 2.097 . S
O732 C760 1.214 . S
H733 C761 0.929 . S
H734 C762 0.929 . S
H735 C763 0.930 . S
H736 C764 0.929 . S
H737 C766 0.930 . S
H738 C743 0.930 . S
H739 C747 0.930 . S
O740 Co709 2.037 . S
O740 C760 1.234 . S
C741 O715 1.269 . S
C741 O716 1.257 . S
C742 H717 0.930 . S
C742 C745 1.388 . S
C742 C747 1.418 . S
C743 H738 0.930 . S
C743 C746 1.404 . S
C743 C747 1.353 . S
N744 Co709 2.145 . S
N744 C745 1.397 . S
N744 C746 1.334 . S
C745 H726 0.929 . S
C745 C742 1.388 . S
C745 N744 1.397 . S
C746 H727 0.929 . S
C746 C743 1.404 . S
C746 N744 1.334 . S
C747 H739 0.930 . S
C747 C742 1.418 . S
C747 C743 1.353 . S
C748 H718 0.930 . S
C748 N749 1.330 . S
C748 C750 1.446 . S
N749 Co708 2.151 . S
N749 C748 1.330 . S
N749 C753 1.418 . S
C750 H729 0.929 . S
C750 C748 1.446 . S
C750 C751 1.332 . S
C751 H731 0.931 . S
C751 C750 1.332 . S
C751 C752 1.267 . S
C752 H720 0.929 . S
C752 C751 1.267 . S
C752 C753 1.251 . S
C753 H723 0.929 . S
C753 N749 1.418 . S
C753 C752 1.251 . S
C754 H721 0.930 . S
C754 C756 1.406 . S
C754 C759 1.261 . S
C755 H722 0.930 . S
C755 N757 1.325 . S
C755 C758 1.357 . S
C756 H724 0.928 . S
C756 C754 1.406 . S
C756 N757 1.261 . S
N757 Co708 2.214 . S
N757 C755 1.325 . S
N757 C756 1.261 . S
C758 H728 0.931 . S
C758 C755 1.357 . S
C758 C759 1.312 . S
C759 H730 0.930 . S
C759 C754 1.261 . S
C759 C758 1.312 . S
C760 O732 1.214 . S
C760 O740 1.234 . S
C761 H733 0.929 . S
C761 C764 1.391 . S
C761 C766 1.391 . S
C762 H734 0.929 . S
C762 C763 1.390 . S
C762 N765 1.391 . S
C763 H735 0.930 . S
C763 C762 1.390 . S
C763 C764 1.392 . S
C764 H736 0.929 . S
C764 C761 1.391 . S
C764 C763 1.392 . S
N765 Co709 2.257 . S
N765 C762 1.391 . S
N765 C766 1.388 . S
C766 H737 0.930 . S
C766 C761 1.391 . S
C766 N765 1.388 . S
Co767 O769 2.143 . S
Co767 O775 2.074 . S
Co767 O778 2.093 . S
Co767 O791 2.097 . S
Co767 N808 2.151 . S
Co767 N816 2.214 . S
Co768 O769 2.160 . S
Co768 O774 2.058 . S
Co768 O784 2.057 . S
Co768 O799 2.037 . S
Co768 N803 2.145 . S
Co768 N824 2.257 . S
O769 Co767 2.143 . S
O769 Co768 2.160 . S
C770 O771 1.278 . S
C770 O778 1.224 . S
O771 C770 1.278 . S
C772 O773 1.245 . S
C772 O784 1.232 . S
O773 C772 1.245 . S
O774 Co768 2.058 . S
O774 C800 1.269 . S
O775 Co767 2.074 . S
O775 C800 1.257 . S
H776 C801 0.930 . S
H777 C807 0.930 . S
O778 Co767 2.093 . S
O778 C770 1.224 . S
H779 C811 0.929 . S
H780 C813 0.930 . S
H781 C814 0.930 . S
H782 C812 0.929 . S
H783 C815 0.928 . S
O784 Co768 2.057 . S
O784 C772 1.232 . S
H785 C804 0.929 . S
H786 C805 0.929 . S
H787 C817 0.931 . S
H788 C809 0.929 . S
H789 C818 0.930 . S
H790 C810 0.931 . S
O791 Co767 2.097 . S
O791 C819 1.214 . S
H792 C820 0.929 . S
H793 C821 0.929 . S
H794 C822 0.930 . S
H795 C823 0.929 . S
H796 C825 0.930 . S
H797 C802 0.930 . S
H798 C806 0.930 . S
O799 Co768 2.037 . S
O799 C819 1.234 . S
C800 O774 1.269 . S
C800 O775 1.257 . S
C801 H776 0.930 . S
C801 C804 1.388 . S
C801 C806 1.418 . S
C802 H797 0.930 . S
C802 C805 1.404 . S
C802 C806 1.353 . S
N803 Co768 2.145 . S
N803 C804 1.397 . S
N803 C805 1.334 . S
C804 H785 0.929 . S
C804 C801 1.388 . S
C804 N803 1.397 . S
C805 H786 0.929 . S
C805 C802 1.404 . S
C805 N803 1.334 . S
C806 H798 0.930 . S
C806 C801 1.418 . S
C806 C802 1.353 . S
C807 H777 0.930 . S
C807 N808 1.330 . S
C807 C809 1.446 . S
N808 Co767 2.151 . S
N808 C807 1.330 . S
N808 C812 1.418 . S
C809 H788 0.929 . S
C809 C807 1.446 . S
C809 C810 1.332 . S
C810 H790 0.931 . S
C810 C809 1.332 . S
C810 C811 1.267 . S
C811 H779 0.929 . S
C811 C810 1.267 . S
C811 C812 1.251 . S
C812 H782 0.929 . S
C812 N808 1.418 . S
C812 C811 1.251 . S
C813 H780 0.930 . S
C813 C815 1.406 . S
C813 C818 1.261 . S
C814 H781 0.930 . S
C814 N816 1.325 . S
C814 C817 1.357 . S
C815 H783 0.928 . S
C815 C813 1.406 . S
C815 N816 1.261 . S
N816 Co767 2.214 . S
N816 C814 1.325 . S
N816 C815 1.261 . S
C817 H787 0.931 . S
C817 C814 1.357 . S
C817 C818 1.312 . S
C818 H789 0.930 . S
C818 C813 1.261 . S
C818 C817 1.312 . S
C819 O791 1.214 . S
C819 O799 1.234 . S
C820 H792 0.929 . S
C820 C823 1.391 . S
C820 C825 1.391 . S
C821 H793 0.929 . S
C821 C822 1.390 . S
C821 N824 1.391 . S
C822 H794 0.930 . S
C822 C821 1.390 . S
C822 C823 1.392 . S
C823 H795 0.929 . S
C823 C820 1.391 . S
C823 C822 1.392 . S
N824 Co768 2.257 . S
N824 C821 1.391 . S
N824 C825 1.388 . S
C825 H796 0.930 . S
C825 C820 1.391 . S
C825 N824 1.388 . S
Co826 O828 2.143 . S
Co826 O834 2.074 . S
Co826 O837 2.093 . S
Co826 O850 2.097 . S
Co826 N867 2.151 . S
Co826 N875 2.214 . S
Co827 O828 2.160 . S
Co827 O833 2.058 . S
Co827 O843 2.057 . S
Co827 O858 2.037 . S
Co827 N862 2.145 . S
Co827 N883 2.257 . S
O828 Co826 2.143 . S
O828 Co827 2.160 . S
C829 O830 1.278 . S
C829 O837 1.224 . S
O830 C829 1.278 . S
C831 O832 1.245 . S
C831 O843 1.232 . S
O832 C831 1.245 . S
O833 Co827 2.058 . S
O833 C859 1.269 . S
O834 Co826 2.074 . S
O834 C859 1.257 . S
H835 C860 0.930 . S
H836 C866 0.930 . S
O837 Co826 2.093 . S
O837 C829 1.224 . S
H838 C870 0.929 . S
H839 C872 0.930 . S
H840 C873 0.930 . S
H841 C871 0.929 . S
H842 C874 0.928 . S
O843 Co827 2.057 . S
O843 C831 1.232 . S
H844 C863 0.929 . S
H845 C864 0.929 . S
H846 C876 0.931 . S
H847 C868 0.929 . S
H848 C877 0.930 . S
H849 C869 0.931 . S
O850 Co826 2.097 . S
O850 C878 1.214 . S
H851 C879 0.929 . S
H852 C880 0.929 . S
H853 C881 0.930 . S
H854 C882 0.929 . S
H855 C884 0.930 . S
H856 C861 0.930 . S
H857 C865 0.930 . S
O858 Co827 2.037 . S
O858 C878 1.234 . S
C859 O833 1.269 . S
C859 O834 1.257 . S
C860 H835 0.930 . S
C860 C863 1.388 . S
C860 C865 1.418 . S
C861 H856 0.930 . S
C861 C864 1.404 . S
C861 C865 1.353 . S
N862 Co827 2.145 . S
N862 C863 1.397 . S
N862 C864 1.334 . S
C863 H844 0.929 . S
C863 C860 1.388 . S
C863 N862 1.397 . S
C864 H845 0.929 . S
C864 C861 1.404 . S
C864 N862 1.334 . S
C865 H857 0.930 . S
C865 C860 1.418 . S
C865 C861 1.353 . S
C866 H836 0.930 . S
C866 N867 1.330 . S
C866 C868 1.446 . S
N867 Co826 2.151 . S
N867 C866 1.330 . S
N867 C871 1.418 . S
C868 H847 0.929 . S
C868 C866 1.446 . S
C868 C869 1.332 . S
C869 H849 0.931 . S
C869 C868 1.332 . S
C869 C870 1.267 . S
C870 H838 0.929 . S
C870 C869 1.267 . S
C870 C871 1.251 . S
C871 H841 0.929 . S
C871 N867 1.418 . S
C871 C870 1.251 . S
C872 H839 0.930 . S
C872 C874 1.406 . S
C872 C877 1.261 . S
C873 H840 0.930 . S
C873 N875 1.325 . S
C873 C876 1.357 . S
C874 H842 0.928 . S
C874 C872 1.406 . S
C874 N875 1.261 . S
N875 Co826 2.214 . S
N875 C873 1.325 . S
N875 C874 1.261 . S
C876 H846 0.931 . S
C876 C873 1.357 . S
C876 C877 1.312 . S
C877 H848 0.930 . S
C877 C872 1.261 . S
C877 C876 1.312 . S
C878 O850 1.214 . S
C878 O858 1.234 . S
C879 H851 0.929 . S
C879 C882 1.391 . S
C879 C884 1.391 . S
C880 H852 0.929 . S
C880 C881 1.390 . S
C880 N883 1.391 . S
C881 H853 0.930 . S
C881 C880 1.390 . S
C881 C882 1.392 . S
C882 H854 0.929 . S
C882 C879 1.391 . S
C882 C881 1.392 . S
N883 Co827 2.257 . S
N883 C880 1.391 . S
N883 C884 1.388 . S
C884 H855 0.930 . S
C884 C879 1.391 . S
C884 N883 1.388 . S
Co885 O887 2.143 . S
Co885 O893 2.074 . S
Co885 O896 2.093 . S
Co885 O909 2.097 . S
Co885 N926 2.151 . S
Co885 N934 2.214 . S
Co886 O887 2.160 . S
Co886 O892 2.058 . S
Co886 O902 2.057 . S
Co886 O917 2.037 . S
Co886 N921 2.145 . S
Co886 N942 2.257 . S
O887 Co885 2.143 . S
O887 Co886 2.160 . S
C888 O889 1.278 . S
C888 O896 1.224 . S
O889 C888 1.278 . S
C890 O891 1.245 . S
C890 O902 1.232 . S
O891 C890 1.245 . S
O892 Co886 2.058 . S
O892 C918 1.269 . S
O893 Co885 2.074 . S
O893 C918 1.257 . S
H894 C919 0.930 . S
H895 C925 0.930 . S
O896 Co885 2.093 . S
O896 C888 1.224 . S
H897 C929 0.929 . S
H898 C931 0.930 . S
H899 C932 0.930 . S
H900 C930 0.929 . S
H901 C933 0.928 . S
O902 Co886 2.057 . S
O902 C890 1.232 . S
H903 C922 0.929 . S
H904 C923 0.929 . S
H905 C935 0.931 . S
H906 C927 0.929 . S
H907 C936 0.930 . S
H908 C928 0.931 . S
O909 Co885 2.097 . S
O909 C937 1.214 . S
H910 C938 0.929 . S
H911 C939 0.929 . S
H912 C940 0.930 . S
H913 C941 0.929 . S
H914 C943 0.930 . S
H915 C920 0.930 . S
H916 C924 0.930 . S
O917 Co886 2.037 . S
O917 C937 1.234 . S
C918 O892 1.269 . S
C918 O893 1.257 . S
C919 H894 0.930 . S
C919 C922 1.388 . S
C919 C924 1.418 . S
C920 H915 0.930 . S
C920 C923 1.404 . S
C920 C924 1.353 . S
N921 Co886 2.145 . S
N921 C922 1.397 . S
N921 C923 1.334 . S
C922 H903 0.929 . S
C922 C919 1.388 . S
C922 N921 1.397 . S
C923 H904 0.929 . S
C923 C920 1.404 . S
C923 N921 1.334 . S
C924 H916 0.930 . S
C924 C919 1.418 . S
C924 C920 1.353 . S
C925 H895 0.930 . S
C925 N926 1.330 . S
C925 C927 1.446 . S
N926 Co885 2.151 . S
N926 C925 1.330 . S
N926 C930 1.418 . S
C927 H906 0.929 . S
C927 C925 1.446 . S
C927 C928 1.332 . S
C928 H908 0.931 . S
C928 C927 1.332 . S
C928 C929 1.267 . S
C929 H897 0.929 . S
C929 C928 1.267 . S
C929 C930 1.251 . S
C930 H900 0.929 . S
C930 N926 1.418 . S
C930 C929 1.251 . S
C931 H898 0.930 . S
C931 C933 1.406 . S
C931 C936 1.261 . S
C932 H899 0.930 . S
C932 N934 1.325 . S
C932 C935 1.357 . S
C933 H901 0.928 . S
C933 C931 1.406 . S
C933 N934 1.261 . S
N934 Co885 2.214 . S
N934 C932 1.325 . S
N934 C933 1.261 . S
C935 H905 0.931 . S
C935 C932 1.357 . S
C935 C936 1.312 . S
C936 H907 0.930 . S
C936 C931 1.261 . S
C936 C935 1.312 . S
C937 O909 1.214 . S
C937 O917 1.234 . S
C938 H910 0.929 . S
C938 C941 1.391 . S
C938 C943 1.391 . S
C939 H911 0.929 . S
C939 C940 1.390 . S
C939 N942 1.391 . S
C940 H912 0.930 . S
C940 C939 1.390 . S
C940 C941 1.392 . S
C941 H913 0.929 . S
C941 C938 1.391 . S
C941 C940 1.392 . S
N942 Co886 2.257 . S
N942 C939 1.391 . S
N942 C943 1.388 . S
C943 H914 0.930 . S
C943 C938 1.391 . S
C943 N942 1.388 . S
H944 C956 0.930 . S
H945 C958 0.930 . S
H946 C959 0.930 . S
H947 C963 0.959 . S
H948 C963 0.959 . S
H949 C963 0.961 . S
H950 C964 0.960 . S
H951 C964 0.961 . S
H952 C964 0.959 . S
H953 C967 0.929 . S
H954 C968 0.931 . S
H955 C970 0.930 . S
C956 H944 0.930 . S
C956 C957 1.399 . S
C956 C961 1.399 . S
C957 C956 1.399 . S
C957 C958 1.376 . S
C958 H945 0.930 . S
C958 C957 1.376 . S
C958 C959 1.388 . S
C959 H946 0.930 . S
C959 C958 1.388 . S
C959 C960 1.390 . S
C960 C959 1.390 . S
C960 C961 1.394 . S
C960 C966 1.465 . S
C961 C956 1.399 . S
C961 C960 1.394 . S
C961 C962 1.516 . S
C962 C961 1.516 . S
C962 C963 1.502 . S
C962 C964 1.561 . S
C962 C965 1.526 . S
C963 H947 0.959 . S
C963 H948 0.959 . S
C963 H949 0.961 . S
C963 C962 1.502 . S
C964 H950 0.960 . S
C964 H951 0.961 . S
C964 H952 0.959 . S
C964 C962 1.561 . S
C965 C962 1.526 . S
C965 C966 1.396 . S
C965 C970 1.390 . S
C966 C960 1.465 . S
C966 C965 1.396 . S
C966 C967 1.399 . S
C967 H953 0.929 . S
C967 C966 1.399 . S
C967 C968 1.385 . S
C968 H954 0.931 . S
C968 C967 1.385 . S
C968 C969 1.389 . S
C969 C968 1.389 . S
C969 C970 1.387 . S
C970 H955 0.930 . S
C970 C965 1.390 . S
C970 C969 1.387 . S
H971 C983 0.930 . S
H972 C985 0.930 . S
H973 C986 0.930 . S
H974 C990 0.959 . S
H975 C990 0.959 . S
H976 C990 0.961 . S
H977 C991 0.960 . S
H978 C991 0.961 . S
H979 C991 0.959 . S
H980 C994 0.929 . S
H981 C995 0.931 . S
H982 C997 0.930 . S
C983 H971 0.930 . S
C983 C984 1.399 . S
C983 C988 1.399 . S
C984 C983 1.399 . S
C984 C985 1.376 . S
C985 H972 0.930 . S
C985 C984 1.376 . S
C985 C986 1.388 . S
C986 H973 0.930 . S
C986 C985 1.388 . S
C986 C987 1.390 . S
C987 C986 1.390 . S
C987 C988 1.394 . S
C987 C993 1.465 . S
C988 C983 1.399 . S
C988 C987 1.394 . S
C988 C989 1.516 . S
C989 C988 1.516 . S
C989 C990 1.502 . S
C989 C991 1.561 . S
C989 C992 1.526 . S
C990 H974 0.959 . S
C990 H975 0.959 . S
C990 H976 0.961 . S
C990 C989 1.502 . S
C991 H977 0.960 . S
C991 H978 0.961 . S
C991 H979 0.959 . S
C991 C989 1.561 . S
C992 C989 1.526 . S
C992 C993 1.396 . S
C992 C997 1.390 . S
C993 C987 1.465 . S
C993 C992 1.396 . S
C993 C994 1.399 . S
C994 H980 0.929 . S
C994 C993 1.399 . S
C994 C995 1.385 . S
C995 H981 0.931 . S
C995 C994 1.385 . S
C995 C996 1.389 . S
C996 C995 1.389 . S
C996 C997 1.387 . S
C997 H982 0.930 . S
C997 C992 1.390 . S
C997 C996 1.387 . S
H998 C1010 0.930 . S
H999 C1012 0.930 . S
H1000 C1013 0.930 . S
H1001 C1017 0.959 . S
H1002 C1017 0.959 . S
H1003 C1017 0.961 . S
H1004 C1018 0.960 . S
H1005 C1018 0.961 . S
H1006 C1018 0.959 . S
H1007 C1021 0.929 . S
H1008 C1022 0.931 . S
H1009 C1024 0.930 . S
C1010 H998 0.930 . S
C1010 C1011 1.399 . S
C1010 C1015 1.399 . S
C1011 C1010 1.399 . S
C1011 C1012 1.376 . S
C1012 H999 0.930 . S
C1012 C1011 1.376 . S
C1012 C1013 1.388 . S
C1013 H1000 0.930 . S
C1013 C1012 1.388 . S
C1013 C1014 1.390 . S
C1014 C1013 1.390 . S
C1014 C1015 1.394 . S
C1014 C1020 1.465 . S
C1015 C1010 1.399 . S
C1015 C1014 1.394 . S
C1015 C1016 1.516 . S
C1016 C1015 1.516 . S
C1016 C1017 1.502 . S
C1016 C1018 1.561 . S
C1016 C1019 1.526 . S
C1017 H1001 0.959 . S
C1017 H1002 0.959 . S
C1017 H1003 0.961 . S
C1017 C1016 1.502 . S
C1018 H1004 0.960 . S
C1018 H1005 0.961 . S
C1018 H1006 0.959 . S
C1018 C1016 1.561 . S
C1019 C1016 1.526 . S
C1019 C1020 1.396 . S
C1019 C1024 1.390 . S
C1020 C1014 1.465 . S
C1020 C1019 1.396 . S
C1020 C1021 1.399 . S
C1021 H1007 0.929 . S
C1021 C1020 1.399 . S
C1021 C1022 1.385 . S
C1022 H1008 0.931 . S
C1022 C1021 1.385 . S
C1022 C1023 1.389 . S
C1023 C1022 1.389 . S
C1023 C1024 1.387 . S
C1024 H1009 0.930 . S
C1024 C1019 1.390 . S
C1024 C1023 1.387 . S
H1025 C1037 0.930 . S
H1026 C1039 0.930 . S
H1027 C1040 0.930 . S
H1028 C1044 0.959 . S
H1029 C1044 0.959 . S
H1030 C1044 0.961 . S
H1031 C1045 0.960 . S
H1032 C1045 0.961 . S
H1033 C1045 0.959 . S
H1034 C1048 0.929 . S
H1035 C1049 0.931 . S
H1036 C1051 0.930 . S
C1037 H1025 0.930 . S
C1037 C1038 1.399 . S
C1037 C1042 1.399 . S
C1038 C1037 1.399 . S
C1038 C1039 1.376 . S
C1039 H1026 0.930 . S
C1039 C1038 1.376 . S
C1039 C1040 1.388 . S
C1040 H1027 0.930 . S
C1040 C1039 1.388 . S
C1040 C1041 1.390 . S
C1041 C1040 1.390 . S
C1041 C1042 1.394 . S
C1041 C1047 1.465 . S
C1042 C1037 1.399 . S
C1042 C1041 1.394 . S
C1042 C1043 1.516 . S
C1043 C1042 1.516 . S
C1043 C1044 1.502 . S
C1043 C1045 1.561 . S
C1043 C1046 1.526 . S
C1044 H1028 0.959 . S
C1044 H1029 0.959 . S
C1044 H1030 0.961 . S
C1044 C1043 1.502 . S
C1045 H1031 0.960 . S
C1045 H1032 0.961 . S
C1045 H1033 0.959 . S
C1045 C1043 1.561 . S
C1046 C1043 1.526 . S
C1046 C1047 1.396 . S
C1046 C1051 1.390 . S
C1047 C1041 1.465 . S
C1047 C1046 1.396 . S
C1047 C1048 1.399 . S
C1048 H1034 0.929 . S
C1048 C1047 1.399 . S
C1048 C1049 1.385 . S
C1049 H1035 0.931 . S
C1049 C1048 1.385 . S
C1049 C1050 1.389 . S
C1050 C1049 1.389 . S
C1050 C1051 1.387 . S
C1051 H1036 0.930 . S
C1051 C1046 1.390 . S
C1051 C1050 1.387 . S
H1052 C1064 0.930 . S
H1053 C1066 0.930 . S
H1054 C1067 0.930 . S
H1055 C1071 0.959 1_554 S
H1056 C1071 0.959 . S
H1057 C1071 0.961 . S
H1058 C1072 0.960 . S
H1059 C1072 0.961 . S
H1060 C1072 0.959 . S
H1061 C1075 0.929 . S
H1062 C1076 0.931 . S
H1063 C1078 0.930 . S
C1064 H1052 0.930 . S
C1064 C1065 1.399 . S
C1064 C1069 1.399 . S
C1065 C1064 1.399 . S
C1065 C1066 1.376 . S
C1066 H1053 0.930 . S
C1066 C1065 1.376 . S
C1066 C1067 1.388 . S
C1067 H1054 0.930 . S
C1067 C1066 1.388 . S
C1067 C1068 1.390 . S
C1068 C1067 1.390 . S
C1068 C1069 1.394 . S
C1068 C1074 1.465 . S
C1069 C1064 1.399 . S
C1069 C1068 1.394 . S
C1069 C1070 1.516 1_554 S
C1070 C1069 1.516 1_556 S
C1070 C1071 1.502 . S
C1070 C1072 1.561 . S
C1070 C1073 1.526 . S
C1071 H1055 0.959 1_556 S
C1071 H1056 0.959 . S
C1071 H1057 0.961 . S
C1071 C1070 1.502 . S
C1072 H1058 0.960 . S
C1072 H1059 0.961 . S
C1072 H1060 0.959 . S
C1072 C1070 1.561 . S
C1073 C1070 1.526 . S
C1073 C1074 1.396 1_556 S
C1073 C1078 1.390 . S
C1074 C1068 1.465 . S
C1074 C1073 1.396 1_554 S
C1074 C1075 1.399 . S
C1075 H1061 0.929 . S
C1075 C1074 1.399 . S
C1075 C1076 1.385 1_554 S
C1076 H1062 0.931 . S
C1076 C1075 1.385 1_556 S
C1076 C1077 1.389 . S
C1077 C1076 1.389 . S
C1077 C1078 1.387 . S
C1078 H1063 0.930 . S
C1078 C1073 1.390 . S
C1078 C1077 1.387 . S
H1079 C1091 0.930 1_556 S
H1080 C1093 0.930 . S
H1081 C1094 0.930 . S
H1082 C1098 0.959 . S
H1083 C1098 0.959 . S
H1084 C1098 0.961 . S
H1085 C1099 0.960 . S
H1086 C1099 0.961 . S
H1087 C1099 0.959 . S
H1088 C1102 0.929 . S
H1089 C1103 0.931 . S
H1090 C1105 0.930 . S
C1091 H1079 0.930 1_554 S
C1091 C1092 1.399 . S
C1091 C1096 1.399 1_554 S
C1092 C1091 1.399 . S
C1092 C1093 1.376 . S
C1093 H1080 0.930 . S
C1093 C1092 1.376 . S
C1093 C1094 1.388 . S
C1094 H1081 0.930 . S
C1094 C1093 1.388 . S
C1094 C1095 1.390 . S
C1095 C1094 1.390 . S
C1095 C1096 1.394 1_554 S
C1095 C1101 1.465 1_554 S
C1096 C1091 1.399 1_556 S
C1096 C1095 1.394 1_556 S
C1096 C1097 1.516 . S
C1097 C1096 1.516 . S
C1097 C1098 1.502 . S
C1097 C1099 1.561 . S
C1097 C1100 1.526 . S
C1098 H1082 0.959 . S
C1098 H1083 0.959 . S
C1098 H1084 0.961 . S
C1098 C1097 1.502 . S
C1099 H1085 0.960 . S
C1099 H1086 0.961 . S
C1099 H1087 0.959 . S
C1099 C1097 1.561 . S
C1100 C1097 1.526 . S
C1100 C1101 1.396 . S
C1100 C1105 1.390 . S
C1101 C1095 1.465 1_556 S
C1101 C1100 1.396 . S
C1101 C1102 1.399 1_556 S
C1102 H1088 0.929 . S
C1102 C1101 1.399 1_554 S
C1102 C1103 1.385 1_554 S
C1103 H1089 0.931 . S
C1103 C1102 1.385 1_556 S
C1103 C1104 1.389 . S
C1104 C1103 1.389 . S
C1104 C1105 1.387 . S
C1105 H1090 0.930 . S
C1105 C1100 1.390 . S
C1105 C1104 1.387 . S
H1106 C1118 0.908 1_554 S
H1107 C1120 0.930 . S
H1108 C1121 0.930 . S
H1109 C1125 0.959 . S
H1110 C1125 0.959 . S
H1111 C1125 0.961 . S
H1112 C1126 0.960 . S
H1113 C1126 0.961 . S
H1114 C1126 0.959 . S
H1115 C1129 0.929 . S
H1116 C1130 0.942 1_545 S
H1117 C1132 0.930 . S
C1118 H1106 0.908 1_556 S
C1118 C1119 1.430 . S
C1118 C1123 1.391 1_556 S
C1119 C1118 1.430 . S
C1119 C1120 1.376 . S
C1120 H1107 0.930 . S
C1120 C1119 1.376 . S
C1120 C1121 1.388 . S
C1121 H1108 0.930 . S
C1121 C1120 1.388 . S
C1121 C1122 1.390 . S
C1122 C1121 1.390 . S
C1122 C1123 1.394 1_556 S
C1122 C1128 1.465 1_556 S
C1123 C1118 1.391 1_554 S
C1123 C1122 1.394 1_554 S
C1123 C1124 1.516 . S
C1124 C1123 1.516 . S
C1124 C1125 1.502 . S
C1124 C1126 1.561 . S
C1124 C1127 1.526 . S
C1125 H1109 0.959 . S
C1125 H1110 0.959 . S
C1125 H1111 0.961 . S
C1125 C1124 1.502 . S
C1126 H1112 0.960 . S
C1126 H1113 0.961 . S
C1126 H1114 0.959 . S
C1126 C1124 1.561 . S
C1127 C1124 1.526 . S
C1127 C1128 1.396 . S
C1127 C1132 1.390 . S
C1128 C1122 1.465 1_554 S
C1128 C1127 1.396 . S
C1128 C1129 1.399 1_554 S
C1129 H1115 0.929 . S
C1129 C1128 1.399 1_556 S
C1129 C1130 1.385 1_556 S
C1130 H1116 0.942 1_565 S
C1130 C1129 1.385 1_554 S
C1130 C1131 1.389 . S
C1131 C1130 1.389 . S
C1131 C1132 1.387 . S
C1132 H1117 0.930 . S
C1132 C1127 1.390 . S
C1132 C1131 1.387 . S
H1133 C1145 0.939 . S
H1134 C1147 0.930 . S
H1135 C1148 0.930 . S
H1136 C1152 0.959 . S
H1137 C1152 0.959 . S
H1138 C1152 0.961 . S
H1139 C1153 0.960 . S
H1140 C1153 0.961 . S
H1141 C1153 0.959 . S
H1142 C1156 0.929 1_554 S
H1143 C1157 0.931 . S
H1144 C1159 0.930 . S
C1145 H1133 0.939 . S
C1145 C1146 1.399 . S
C1145 C1150 1.399 1_554 S
C1146 C1145 1.399 . S
C1146 C1147 1.376 . S
C1147 H1134 0.930 . S
C1147 C1146 1.376 . S
C1147 C1148 1.388 . S
C1148 H1135 0.930 . S
C1148 C1147 1.388 . S
C1148 C1149 1.390 . S
C1149 C1148 1.390 . S
C1149 C1150 1.394 1_554 S
C1149 C1155 1.465 1_554 S
C1150 C1145 1.399 1_556 S
C1150 C1149 1.394 1_556 S
C1150 C1151 1.516 . S
C1151 C1150 1.516 . S
C1151 C1152 1.502 . S
C1151 C1153 1.561 . S
C1151 C1154 1.526 . S
C1152 H1136 0.959 . S
C1152 H1137 0.959 . S
C1152 H1138 0.961 . S
C1152 C1151 1.502 . S
C1153 H1139 0.960 . S
C1153 H1140 0.961 . S
C1153 H1141 0.959 . S
C1153 C1151 1.561 . S
C1154 C1151 1.526 . S
C1154 C1155 1.396 . S
C1154 C1159 1.390 . S
C1155 C1149 1.465 1_556 S
C1155 C1154 1.396 . S
C1155 C1156 1.399 . S
C1156 H1142 0.929 1_556 S
C1156 C1155 1.399 . S
C1156 C1157 1.385 . S
C1157 H1143 0.931 . S
C1157 C1156 1.385 . S
C1157 C1158 1.389 . S
C1158 C1157 1.389 . S
C1158 C1159 1.387 . S
C1159 H1144 0.930 . S
C1159 C1154 1.390 . S
C1159 C1158 1.387 . S
H1160 C1172 0.930 . S
H1161 C1174 0.930 . S
H1162 C1175 0.930 . S
H1163 C1179 0.959 . S
H1164 C1179 0.959 . S
H1165 C1179 0.961 . S
H1166 C1180 0.960 . S
H1167 C1180 0.961 . S
H1168 C1180 0.959 . S
H1169 C1183 0.929 . S
H1170 C1184 0.931 1_545 S
H1171 C1186 0.930 . S
C1172 H1160 0.930 . S
C1172 C1173 1.399 . S
C1172 C1177 1.399 . S
C1173 C1172 1.399 . S
C1173 C1174 1.376 . S
C1174 H1161 0.930 . S
C1174 C1173 1.376 . S
C1174 C1175 1.388 . S
C1175 H1162 0.930 . S
C1175 C1174 1.388 . S
C1175 C1176 1.390 . S
C1176 C1175 1.390 . S
C1176 C1177 1.394 . S
C1176 C1182 1.465 . S
C1177 C1172 1.399 . S
C1177 C1176 1.394 . S
C1177 C1178 1.516 . S
C1178 C1177 1.516 . S
C1178 C1179 1.502 . S
C1178 C1180 1.561 . S
C1178 C1181 1.526 . S
C1179 H1163 0.959 . S
C1179 H1164 0.959 . S
C1179 H1165 0.961 . S
C1179 C1178 1.502 . S
C1180 H1166 0.960 . S
C1180 H1167 0.961 . S
C1180 H1168 0.959 . S
C1180 C1178 1.561 . S
C1181 C1178 1.526 . S
C1181 C1182 1.396 . S
C1181 C1186 1.390 . S
C1182 C1176 1.465 . S
C1182 C1181 1.396 . S
C1182 C1183 1.399 . S
C1183 H1169 0.929 . S
C1183 C1182 1.399 . S
C1183 C1184 1.385 . S
C1184 H1170 0.931 1_565 S
C1184 C1183 1.385 . S
C1184 C1185 1.389 . S
C1185 C1184 1.389 . S
C1185 C1186 1.387 . S
C1186 H1171 0.930 . S
C1186 C1181 1.390 . S
C1186 C1185 1.387 . S
H1187 C1199 0.930 . S
H1188 C1201 0.930 1_455 S
H1189 C1202 0.930 . S
H1190 C1206 0.959 . S
H1191 C1206 0.959 . S
H1192 C1206 0.961 . S
H1193 C1207 0.960 . S
H1194 C1207 0.961 . S
H1195 C1207 0.959 . S
H1196 C1210 0.929 . S
H1197 C1211 0.931 . S
H1198 C1213 0.930 . S
C1199 H1187 0.930 . S
C1199 C1200 1.399 . S
C1199 C1204 1.399 . S
C1200 C1199 1.399 . S
C1200 C1201 1.376 . S
C1201 H1188 0.930 1_655 S
C1201 C1200 1.376 . S
C1201 C1202 1.388 . S
C1202 H1189 0.930 . S
C1202 C1201 1.388 . S
C1202 C1203 1.390 . S
C1203 C1202 1.390 . S
C1203 C1204 1.394 . S
C1203 C1209 1.465 . S
C1204 C1199 1.399 . S
C1204 C1203 1.394 . S
C1204 C1205 1.516 . S
C1205 C1204 1.516 . S
C1205 C1206 1.502 . S
C1205 C1207 1.561 . S
C1205 C1208 1.526 . S
C1206 H1190 0.959 . S
C1206 H1191 0.959 . S
C1206 H1192 0.961 . S
C1206 C1205 1.502 . S
C1207 H1193 0.960 . S
C1207 H1194 0.961 . S
C1207 H1195 0.959 . S
C1207 C1205 1.561 . S
C1208 C1205 1.526 . S
C1208 C1209 1.396 . S
C1208 C1213 1.390 . S
C1209 C1203 1.465 . S
C1209 C1208 1.396 . S
C1209 C1210 1.399 . S
C1210 H1196 0.929 . S
C1210 C1209 1.399 . S
C1210 C1211 1.385 . S
C1211 H1197 0.931 . S
C1211 C1210 1.385 . S
C1211 C1212 1.389 . S
C1212 C1211 1.389 . S
C1212 C1213 1.387 . S
C1213 H1198 0.930 . S
C1213 C1208 1.390 . S
C1213 C1212 1.387 . S
H1214 C1226 0.930 . S
H1215 C1228 0.930 1_565 S
H1216 C1229 0.930 . S
H1217 C1233 0.959 . S
H1218 C1233 0.959 . S
H1219 C1233 0.961 . S
H1220 C1234 0.960 . S
H1221 C1234 0.961 . S
H1222 C1234 0.959 . S
H1223 C1237 0.929 . S
H1224 C1238 0.931 . S
H1225 C1240 0.930 . S
C1226 H1214 0.930 . S
C1226 C1227 1.399 . S
C1226 C1231 1.399 . S
C1227 C1226 1.399 . S
C1227 C1228 1.376 . S
C1228 H1215 0.930 1_545 S
C1228 C1227 1.376 . S
C1228 C1229 1.388 . S
C1229 H1216 0.930 . S
C1229 C1228 1.388 . S
C1229 C1230 1.390 . S
C1230 C1229 1.390 . S
C1230 C1231 1.394 . S
C1230 C1236 1.465 . S
C1231 C1226 1.399 . S
C1231 C1230 1.394 . S
C1231 C1232 1.516 . S
C1232 C1231 1.516 . S
C1232 C1233 1.502 . S
C1232 C1234 1.561 . S
C1232 C1235 1.526 . S
C1233 H1217 0.959 . S
C1233 H1218 0.959 . S
C1233 H1219 0.961 . S
C1233 C1232 1.502 . S
C1234 H1220 0.960 . S
C1234 H1221 0.961 . S
C1234 H1222 0.959 . S
C1234 C1232 1.561 . S
C1235 C1232 1.526 . S
C1235 C1236 1.396 . S
C1235 C1240 1.390 . S
C1236 C1230 1.465 . S
C1236 C1235 1.396 . S
C1236 C1237 1.399 . S
C1237 H1223 0.929 . S
C1237 C1236 1.399 . S
C1237 C1238 1.385 . S
C1238 H1224 0.931 . S
C1238 C1237 1.385 . S
C1238 C1239 1.389 . S
C1239 C1238 1.389 . S
C1239 C1240 1.387 . S
C1240 H1225 0.930 . S
C1240 C1235 1.390 . S
C1240 C1239 1.387 . S
H1241 C1253 0.930 . S
H1242 C1255 0.907 1_655 S
H1243 C1256 0.930 . S
H1244 C1260 0.959 . S
H1245 C1260 0.959 . S
H1246 C1260 0.961 . S
H1247 C1261 0.960 . S
H1248 C1261 0.961 . S
H1249 C1261 0.959 . S
H1250 C1264 0.929 . S
H1251 C1265 0.931 . S
H1252 C1267 0.930 . S
C1253 H1241 0.930 . S
C1253 C1254 1.399 . S
C1253 C1258 1.399 . S
C1254 C1253 1.399 . S
C1254 C1255 1.382 . S
C1255 H1242 0.907 1_455 S
C1255 C1254 1.382 . S
C1255 C1256 1.406 . S
C1256 H1243 0.930 . S
C1256 C1255 1.406 . S
C1256 C1257 1.390 . S
C1257 C1256 1.390 . S
C1257 C1258 1.394 . S
C1257 C1263 1.465 . S
C1258 C1253 1.399 . S
C1258 C1257 1.394 . S
C1258 C1259 1.516 . S
C1259 C1258 1.516 . S
C1259 C1260 1.502 . S
C1259 C1261 1.561 . S
C1259 C1262 1.526 . S
C1260 H1244 0.959 . S
C1260 H1245 0.959 . S
C1260 H1246 0.961 . S
C1260 C1259 1.502 . S
C1261 H1247 0.960 . S
C1261 H1248 0.961 . S
C1261 H1249 0.959 . S
C1261 C1259 1.561 . S
C1262 C1259 1.526 . S
C1262 C1263 1.396 . S
C1262 C1267 1.390 . S
C1263 C1257 1.465 . S
C1263 C1262 1.396 . S
C1263 C1264 1.399 . S
C1264 H1250 0.929 . S
C1264 C1263 1.399 . S
C1264 C1265 1.385 . S
C1265 H1251 0.931 . S
C1265 C1264 1.385 . S
C1265 C1266 1.389 . S
C1266 C1265 1.389 . S
C1266 C1267 1.387 . S
C1267 H1252 0.930 . S
C1267 C1262 1.390 . S
C1267 C1266 1.387 . S
H1268 C1280 0.930 . S
H1269 C1282 0.930 . S
H1270 C1283 0.930 . S
H1271 C1287 0.959 . S
H1272 C1287 0.959 . S
H1273 C1287 0.961 . S
H1274 C1288 0.960 . S
H1275 C1288 0.961 . S
H1276 C1288 0.959 . S
H1277 C1291 0.929 . S
H1278 C1292 0.931 . S
H1279 C1294 0.930 . S
C1280 H1268 0.930 . S
C1280 C1281 1.399 . S
C1280 C1285 1.399 . S
C1281 C1280 1.399 . S
C1281 C1282 1.376 . S
C1282 H1269 0.930 . S
C1282 C1281 1.376 . S
C1282 C1283 1.388 . S
C1283 H1270 0.930 . S
C1283 C1282 1.388 . S
C1283 C1284 1.390 . S
C1284 C1283 1.390 . S
C1284 C1285 1.394 . S
C1284 C1290 1.465 . S
C1285 C1280 1.399 . S
C1285 C1284 1.394 . S
C1285 C1286 1.516 . S
C1286 C1285 1.516 . S
C1286 C1287 1.502 . S
C1286 C1288 1.561 . S
C1286 C1289 1.526 . S
C1287 H1271 0.959 . S
C1287 H1272 0.959 . S
C1287 H1273 0.961 . S
C1287 C1286 1.502 . S
C1288 H1274 0.960 . S
C1288 H1275 0.961 . S
C1288 H1276 0.959 . S
C1288 C1286 1.561 . S
C1289 C1286 1.526 . S
C1289 C1290 1.396 . S
C1289 C1294 1.390 . S
C1290 C1284 1.465 . S
C1290 C1289 1.396 . S
C1290 C1291 1.399 . S
C1291 H1277 0.929 . S
C1291 C1290 1.399 . S
C1291 C1292 1.385 . S
C1292 H1278 0.931 . S
C1292 C1291 1.385 . S
C1292 C1293 1.389 . S
C1293 C1292 1.389 . S
C1293 C1294 1.387 . S
C1294 H1279 0.930 . S
C1294 C1289 1.390 . S
C1294 C1293 1.387 . S
H1295 C1307 0.930 . S
H1296 C1309 0.930 . S
H1297 C1310 0.930 . S
H1298 C1314 0.959 . S
H1299 C1314 0.959 . S
H1300 C1314 0.961 . S
H1301 C1315 0.960 . S
H1302 C1315 0.961 . S
H1303 C1315 0.959 . S
H1304 C1318 0.929 . S
H1305 C1319 0.931 . S
H1306 C1321 0.930 . S
C1307 H1295 0.930 . S
C1307 C1308 1.399 . S
C1307 C1312 1.399 . S
C1308 C1307 1.399 . S
C1308 C1309 1.376 . S
C1309 H1296 0.930 . S
C1309 C1308 1.376 . S
C1309 C1310 1.388 . S
C1310 H1297 0.930 . S
C1310 C1309 1.388 . S
C1310 C1311 1.390 . S
C1311 C1310 1.390 . S
C1311 C1312 1.394 . S
C1311 C1317 1.465 . S
C1312 C1307 1.399 . S
C1312 C1311 1.394 . S
C1312 C1313 1.516 . S
C1313 C1312 1.516 . S
C1313 C1314 1.502 . S
C1313 C1315 1.561 . S
C1313 C1316 1.526 . S
C1314 H1298 0.959 . S
C1314 H1299 0.959 . S
C1314 H1300 0.961 . S
C1314 C1313 1.502 . S
C1315 H1301 0.960 . S
C1315 H1302 0.961 . S
C1315 H1303 0.959 . S
C1315 C1313 1.561 . S
C1316 C1313 1.526 . S
C1316 C1317 1.396 . S
C1316 C1321 1.390 . S
C1317 C1311 1.465 . S
C1317 C1316 1.396 . S
C1317 C1318 1.399 . S
C1318 H1304 0.929 . S
C1318 C1317 1.399 . S
C1318 C1319 1.385 . S
C1319 H1305 0.931 . S
C1319 C1318 1.385 . S
C1319 C1320 1.389 . S
C1320 C1319 1.389 . S
C1320 C1321 1.387 . S
C1321 H1306 0.930 . S
C1321 C1316 1.390 . S
C1321 C1320 1.387 . S
H1322 C1334 0.930 . S
H1323 C1336 0.930 . S
H1324 C1337 0.930 . S
H1325 C1341 0.959 . S
H1326 C1341 0.959 . S
H1327 C1341 0.961 . S
H1328 C1342 0.960 . S
H1329 C1342 0.961 . S
H1330 C1342 0.959 . S
H1331 C1345 0.929 . S
H1332 C1346 0.931 . S
H1333 C1348 0.930 . S
C1334 H1322 0.930 . S
C1334 C1335 1.399 . S
C1334 C1339 1.399 . S
C1335 C1334 1.399 . S
C1335 C1336 1.376 . S
C1336 H1323 0.930 . S
C1336 C1335 1.376 . S
C1336 C1337 1.388 . S
C1337 H1324 0.930 . S
C1337 C1336 1.388 . S
C1337 C1338 1.390 . S
C1338 C1337 1.390 . S
C1338 C1339 1.394 . S
C1338 C1344 1.465 . S
C1339 C1334 1.399 . S
C1339 C1338 1.394 . S
C1339 C1340 1.516 . S
C1340 C1339 1.516 . S
C1340 C1341 1.502 . S
C1340 C1342 1.561 . S
C1340 C1343 1.526 . S
C1341 H1325 0.959 . S
C1341 H1326 0.959 . S
C1341 H1327 0.961 . S
C1341 C1340 1.502 . S
C1342 H1328 0.960 . S
C1342 H1329 0.961 . S
C1342 H1330 0.959 . S
C1342 C1340 1.561 . S
C1343 C1340 1.526 . S
C1343 C1344 1.396 . S
C1343 C1348 1.390 . S
C1344 C1338 1.465 . S
C1344 C1343 1.396 . S
C1344 C1345 1.399 . S
C1345 H1331 0.929 . S
C1345 C1344 1.399 . S
C1345 C1346 1.385 . S
C1346 H1332 0.931 . S
C1346 C1345 1.385 . S
C1346 C1347 1.389 . S
C1347 C1346 1.389 . S
C1347 C1348 1.387 . S
C1348 H1333 0.930 . S
C1348 C1343 1.390 . S
C1348 C1347 1.387 . S
H1349 C1361 0.930 . S
H1350 C1363 0.930 . S
H1351 C1364 0.930 . S
H1352 C1368 0.959 . S
H1353 C1368 0.959 . S
H1354 C1368 0.961 . S
H1355 C1369 0.960 . S
H1356 C1369 0.961 . S
H1357 C1369 0.959 . S
H1358 C1372 0.929 . S
H1359 C1373 0.931 . S
H1360 C1375 0.930 . S
C1361 H1349 0.930 . S
C1361 C1362 1.399 . S
C1361 C1366 1.399 . S
C1362 C1361 1.399 . S
C1362 C1363 1.376 . S
C1363 H1350 0.930 . S
C1363 C1362 1.376 . S
C1363 C1364 1.388 . S
C1364 H1351 0.930 . S
C1364 C1363 1.388 . S
C1364 C1365 1.390 . S
C1365 C1364 1.390 . S
C1365 C1366 1.394 . S
C1365 C1371 1.465 . S
C1366 C1361 1.399 . S
C1366 C1365 1.394 . S
C1366 C1367 1.516 . S
C1367 C1366 1.516 . S
C1367 C1368 1.502 . S
C1367 C1369 1.561 . S
C1367 C1370 1.526 . S
C1368 H1352 0.959 . S
C1368 H1353 0.959 . S
C1368 H1354 0.961 . S
C1368 C1367 1.502 . S
C1369 H1355 0.960 . S
C1369 H1356 0.961 . S
C1369 H1357 0.959 . S
C1369 C1367 1.561 . S
C1370 C1367 1.526 . S
C1370 C1371 1.396 . S
C1370 C1375 1.390 . S
C1371 C1365 1.465 . S
C1371 C1370 1.396 . S
C1371 C1372 1.399 . S
C1372 H1358 0.929 . S
C1372 C1371 1.399 . S
C1372 C1373 1.385 . S
C1373 H1359 0.931 . S
C1373 C1372 1.385 . S
C1373 C1374 1.389 . S
C1374 C1373 1.389 . S
C1374 C1375 1.387 . S
C1375 H1360 0.930 . S
C1375 C1370 1.390 . S
C1375 C1374 1.387 . S
H1376 C1388 0.930 . S
H1377 C1390 0.930 . S
H1378 C1391 0.930 . S
H1379 C1395 0.959 . S
H1380 C1395 0.959 . S
H1381 C1395 0.961 . S
H1382 C1396 0.960 . S
H1383 C1396 0.961 . S
H1384 C1396 0.959 . S
H1385 C1399 0.929 . S
H1386 C1400 0.931 . S
H1387 C1402 0.930 . S
C1388 H1376 0.930 . S
C1388 C1389 1.399 . S
C1388 C1393 1.399 . S
C1389 C1388 1.399 . S
C1389 C1390 1.376 . S
C1390 H1377 0.930 . S
C1390 C1389 1.376 . S
C1390 C1391 1.388 . S
C1391 H1378 0.930 . S
C1391 C1390 1.388 . S
C1391 C1392 1.390 . S
C1392 C1391 1.390 . S
C1392 C1393 1.394 . S
C1392 C1398 1.465 . S
C1393 C1388 1.399 . S
C1393 C1392 1.394 . S
C1393 C1394 1.516 . S
C1394 C1393 1.516 . S
C1394 C1395 1.502 . S
C1394 C1396 1.561 . S
C1394 C1397 1.526 . S
C1395 H1379 0.959 . S
C1395 H1380 0.959 . S
C1395 H1381 0.961 . S
C1395 C1394 1.502 . S
C1396 H1382 0.960 . S
C1396 H1383 0.961 . S
C1396 H1384 0.959 . S
C1396 C1394 1.561 . S
C1397 C1394 1.526 . S
C1397 C1398 1.396 . S
C1397 C1402 1.390 . S
C1398 C1392 1.465 . S
C1398 C1397 1.396 . S
C1398 C1399 1.399 . S
C1399 H1385 0.929 . S
C1399 C1398 1.399 . S
C1399 C1400 1.385 . S
C1400 H1386 0.931 . S
C1400 C1399 1.385 . S
C1400 C1401 1.389 . S
C1401 C1400 1.389 . S
C1401 C1402 1.387 . S
C1402 H1387 0.930 . S
C1402 C1397 1.390 . S
C1402 C1401 1.387 . S
H1403 C1415 0.930 . S
H1404 C1417 0.930 . S
H1405 C1418 0.930 . S
H1406 C1422 0.959 . S
H1407 C1422 0.959 . S
H1408 C1422 0.961 . S
H1409 C1423 0.960 . S
H1410 C1423 0.961 . S
H1411 C1423 0.959 . S
H1412 C1426 0.929 . S
H1413 C1427 0.931 . S
H1414 C1429 0.930 . S
C1415 H1403 0.930 . S
C1415 C1416 1.399 . S
C1415 C1420 1.399 . S
C1416 C1415 1.399 . S
C1416 C1417 1.376 . S
C1417 H1404 0.930 . S
C1417 C1416 1.376 . S
C1417 C1418 1.388 . S
C1418 H1405 0.930 . S
C1418 C1417 1.388 . S
C1418 C1419 1.390 . S
C1419 C1418 1.390 . S
C1419 C1420 1.394 . S
C1419 C1425 1.465 . S
C1420 C1415 1.399 . S
C1420 C1419 1.394 . S
C1420 C1421 1.516 . S
C1421 C1420 1.516 . S
C1421 C1422 1.502 . S
C1421 C1423 1.561 . S
C1421 C1424 1.526 . S
C1422 H1406 0.959 . S
C1422 H1407 0.959 . S
C1422 H1408 0.961 . S
C1422 C1421 1.502 . S
C1423 H1409 0.960 . S
C1423 H1410 0.961 . S
C1423 H1411 0.959 . S
C1423 C1421 1.561 . S
C1424 C1421 1.526 . S
C1424 C1425 1.396 . S
C1424 C1429 1.390 . S
C1425 C1419 1.465 . S
C1425 C1424 1.396 . S
C1425 C1426 1.399 . S
C1426 H1412 0.929 . S
C1426 C1425 1.399 . S
C1426 C1427 1.385 . S
C1427 H1413 0.931 . S
C1427 C1426 1.385 . S
C1427 C1428 1.389 . S
C1428 C1427 1.389 . S
C1428 C1429 1.387 . S
C1429 H1414 0.930 . S
C1429 C1424 1.390 . S
C1429 C1428 1.387 . S
H1430 C1442 0.930 . S
H1431 C1444 0.930 . S
H1432 C1445 0.930 . S
H1433 C1449 0.959 . S
H1434 C1449 0.959 . S
H1435 C1449 0.961 . S
H1436 C1450 0.960 . S
H1437 C1450 0.961 . S
H1438 C1450 0.959 . S
H1439 C1453 0.929 . S
H1440 C1454 0.931 . S
H1441 C1456 0.930 . S
C1442 H1430 0.930 . S
C1442 C1443 1.399 . S
C1442 C1447 1.399 . S
C1443 C1442 1.399 . S
C1443 C1444 1.376 . S
C1444 H1431 0.930 . S
C1444 C1443 1.376 . S
C1444 C1445 1.388 . S
C1445 H1432 0.930 . S
C1445 C1444 1.388 . S
C1445 C1446 1.390 . S
C1446 C1445 1.390 . S
C1446 C1447 1.394 . S
C1446 C1452 1.465 . S
C1447 C1442 1.399 . S
C1447 C1446 1.394 . S
C1447 C1448 1.516 . S
C1448 C1447 1.516 . S
C1448 C1449 1.502 . S
C1448 C1450 1.561 . S
C1448 C1451 1.526 . S
C1449 H1433 0.959 . S
C1449 H1434 0.959 . S
C1449 H1435 0.961 . S
C1449 C1448 1.502 . S
C1450 H1436 0.960 . S
C1450 H1437 0.961 . S
C1450 H1438 0.959 . S
C1450 C1448 1.561 . S
C1451 C1448 1.526 . S
C1451 C1452 1.396 . S
C1451 C1456 1.390 . S
C1452 C1446 1.465 . S
C1452 C1451 1.396 . S
C1452 C1453 1.399 . S
C1453 H1439 0.929 . S
C1453 C1452 1.399 . S
C1453 C1454 1.385 . S
C1454 H1440 0.931 . S
C1454 C1453 1.385 . S
C1454 C1455 1.389 . S
C1455 C1454 1.389 . S
C1455 C1456 1.387 . S
C1456 H1441 0.930 . S
C1456 C1451 1.390 . S
C1456 C1455 1.387 . S
H1457 C1469 0.930 . S
H1458 C1471 0.930 . S
H1459 C1472 0.930 . S
H1460 C1476 0.959 . S
H1461 C1476 0.959 . S
H1462 C1476 0.961 . S
H1463 C1477 0.960 . S
H1464 C1477 0.961 . S
H1465 C1477 0.959 . S
H1466 C1480 0.929 . S
H1467 C1481 0.931 . S
H1468 C1483 0.930 . S
C1469 H1457 0.930 . S
C1469 C1470 1.399 . S
C1469 C1474 1.399 . S
C1470 C1469 1.399 . S
C1470 C1471 1.376 . S
C1471 H1458 0.930 . S
C1471 C1470 1.376 . S
C1471 C1472 1.388 . S
C1472 H1459 0.930 . S
C1472 C1471 1.388 . S
C1472 C1473 1.390 . S
C1473 C1472 1.390 . S
C1473 C1474 1.394 . S
C1473 C1479 1.465 . S
C1474 C1469 1.399 . S
C1474 C1473 1.394 . S
C1474 C1475 1.516 . S
C1475 C1474 1.516 . S
C1475 C1476 1.502 . S
C1475 C1477 1.561 . S
C1475 C1478 1.526 . S
C1476 H1460 0.959 . S
C1476 H1461 0.959 . S
C1476 H1462 0.961 . S
C1476 C1475 1.502 . S
C1477 H1463 0.960 . S
C1477 H1464 0.961 . S
C1477 H1465 0.959 . S
C1477 C1475 1.561 . S
C1478 C1475 1.526 . S
C1478 C1479 1.396 . S
C1478 C1483 1.390 . S
C1479 C1473 1.465 . S
C1479 C1478 1.396 . S
C1479 C1480 1.399 . S
C1480 H1466 0.929 . S
C1480 C1479 1.399 . S
C1480 C1481 1.385 . S
C1481 H1467 0.931 . S
C1481 C1480 1.385 . S
C1481 C1482 1.389 . S
C1482 C1481 1.389 . S
C1482 C1483 1.387 . S
C1483 H1468 0.930 . S
C1483 C1478 1.390 . S
C1483 C1482 1.387 . S
H1484 C1496 0.930 . S
H1485 C1498 0.930 . S
H1486 C1499 0.930 . S
H1487 C1503 0.959 . S
H1488 C1503 0.959 . S
H1489 C1503 0.961 . S
H1490 C1504 0.960 . S
H1491 C1504 0.961 . S
H1492 C1504 0.959 . S
H1493 C1507 0.929 . S
H1494 C1508 0.931 . S
H1495 C1510 0.930 . S
C1496 H1484 0.930 . S
C1496 C1497 1.399 . S
C1496 C1501 1.399 . S
C1497 C1496 1.399 . S
C1497 C1498 1.376 . S
C1498 H1485 0.930 . S
C1498 C1497 1.376 . S
C1498 C1499 1.388 . S
C1499 H1486 0.930 . S
C1499 C1498 1.388 . S
C1499 C1500 1.390 . S
C1500 C1499 1.390 . S
C1500 C1501 1.394 . S
C1500 C1506 1.465 . S
C1501 C1496 1.399 . S
C1501 C1500 1.394 . S
C1501 C1502 1.516 . S
C1502 C1501 1.516 . S
C1502 C1503 1.502 . S
C1502 C1504 1.561 . S
C1502 C1505 1.526 . S
C1503 H1487 0.959 . S
C1503 H1488 0.959 . S
C1503 H1489 0.961 . S
C1503 C1502 1.502 . S
C1504 H1490 0.960 . S
C1504 H1491 0.961 . S
C1504 H1492 0.959 . S
C1504 C1502 1.561 . S
C1505 C1502 1.526 . S
C1505 C1506 1.396 . S
C1505 C1510 1.390 . S
C1506 C1500 1.465 . S
C1506 C1505 1.396 . S
C1506 C1507 1.399 . S
C1507 H1493 0.929 . S
C1507 C1506 1.399 . S
C1507 C1508 1.385 . S
C1508 H1494 0.931 . S
C1508 C1507 1.385 . S
C1508 C1509 1.389 . S
C1509 C1508 1.389 . S
C1509 C1510 1.387 . S
C1510 H1495 0.930 . S
C1510 C1505 1.390 . S
C1510 C1509 1.387 . S
H1511 C1523 0.930 . S
H1512 C1525 0.930 . S
H1513 C1526 0.930 . S
H1514 C1530 0.959 . S
H1515 C1530 0.959 . S
H1516 C1530 0.961 . S
H1517 C1531 0.960 . S
H1518 C1531 0.961 . S
H1519 C1531 0.959 . S
H1520 C1534 0.929 . S
H1521 C1535 0.931 . S
H1522 C1537 0.930 . S
C1523 H1511 0.930 . S
C1523 C1524 1.399 . S
C1523 C1528 1.399 . S
C1524 C1523 1.399 . S
C1524 C1525 1.376 . S
C1525 H1512 0.930 . S
C1525 C1524 1.376 . S
C1525 C1526 1.388 . S
C1526 H1513 0.930 . S
C1526 C1525 1.388 . S
C1526 C1527 1.390 . S
C1527 C1526 1.390 . S
C1527 C1528 1.394 . S
C1527 C1533 1.465 . S
C1528 C1523 1.399 . S
C1528 C1527 1.394 . S
C1528 C1529 1.516 . S
C1529 C1528 1.516 . S
C1529 C1530 1.502 . S
C1529 C1531 1.561 . S
C1529 C1532 1.526 . S
C1530 H1514 0.959 . S
C1530 H1515 0.959 . S
C1530 H1516 0.961 . S
C1530 C1529 1.502 . S
C1531 H1517 0.960 . S
C1531 H1518 0.961 . S
C1531 H1519 0.959 . S
C1531 C1529 1.561 . S
C1532 C1529 1.526 . S
C1532 C1533 1.396 . S
C1532 C1537 1.390 . S
C1533 C1527 1.465 . S
C1533 C1532 1.396 . S
C1533 C1534 1.399 . S
C1534 H1520 0.929 . S
C1534 C1533 1.399 . S
C1534 C1535 1.385 . S
C1535 H1521 0.931 . S
C1535 C1534 1.385 . S
C1535 C1536 1.389 . S
C1536 C1535 1.389 . S
C1536 C1537 1.387 . S
C1537 H1522 0.930 . S
C1537 C1532 1.390 . S
C1537 C1536 1.387 . S
H1538 C1550 0.930 . S
H1539 C1552 0.930 . S
H1540 C1553 0.930 . S
H1541 C1557 0.959 . S
H1542 C1557 0.959 . S
H1543 C1557 0.961 . S
H1544 C1558 0.960 . S
H1545 C1558 0.961 . S
H1546 C1558 0.959 . S
H1547 C1561 0.929 . S
H1548 C1562 0.931 . S
H1549 C1564 0.930 . S
C1550 H1538 0.930 . S
C1550 C1551 1.399 . S
C1550 C1555 1.399 . S
C1551 C1550 1.399 . S
C1551 C1552 1.376 . S
C1552 H1539 0.930 . S
C1552 C1551 1.376 . S
C1552 C1553 1.388 . S
C1553 H1540 0.930 . S
C1553 C1552 1.388 . S
C1553 C1554 1.390 . S
C1554 C1553 1.390 . S
C1554 C1555 1.394 . S
C1554 C1560 1.465 . S
C1555 C1550 1.399 . S
C1555 C1554 1.394 . S
C1555 C1556 1.516 . S
C1556 C1555 1.516 . S
C1556 C1557 1.502 . S
C1556 C1558 1.561 . S
C1556 C1559 1.526 . S
C1557 H1541 0.959 . S
C1557 H1542 0.959 . S
C1557 H1543 0.961 . S
C1557 C1556 1.502 . S
C1558 H1544 0.960 . S
C1558 H1545 0.961 . S
C1558 H1546 0.959 . S
C1558 C1556 1.561 . S
C1559 C1556 1.526 . S
C1559 C1560 1.396 . S
C1559 C1564 1.390 . S
C1560 C1554 1.465 . S
C1560 C1559 1.396 . S
C1560 C1561 1.399 . S
C1561 H1547 0.929 . S
C1561 C1560 1.399 . S
C1561 C1562 1.385 . S
C1562 H1548 0.931 . S
C1562 C1561 1.385 . S
C1562 C1563 1.389 . S
C1563 C1562 1.389 . S
C1563 C1564 1.387 . S
C1564 H1549 0.930 . S
C1564 C1559 1.390 . S
C1564 C1563 1.387 . S
H1565 C1577 0.930 . S
H1566 C1579 0.930 . S
H1567 C1580 0.930 . S
H1568 C1584 0.959 . S
H1569 C1584 0.959 . S
H1570 C1584 0.961 . S
H1571 C1585 0.960 . S
H1572 C1585 0.961 . S
H1573 C1585 0.959 . S
H1574 C1588 0.929 . S
H1575 C1589 0.931 . S
H1576 C1591 0.930 . S
C1577 H1565 0.930 . S
C1577 C1578 1.399 . S
C1577 C1582 1.399 . S
C1578 C1577 1.399 . S
C1578 C1579 1.376 . S
C1579 H1566 0.930 . S
C1579 C1578 1.376 . S
C1579 C1580 1.388 . S
C1580 H1567 0.930 . S
C1580 C1579 1.388 . S
C1580 C1581 1.390 . S
C1581 C1580 1.390 . S
C1581 C1582 1.394 . S
C1581 C1587 1.465 . S
C1582 C1577 1.399 . S
C1582 C1581 1.394 . S
C1582 C1583 1.516 . S
C1583 C1582 1.516 . S
C1583 C1584 1.502 . S
C1583 C1585 1.561 . S
C1583 C1586 1.526 . S
C1584 H1568 0.959 . S
C1584 H1569 0.959 . S
C1584 H1570 0.961 . S
C1584 C1583 1.502 . S
C1585 H1571 0.960 . S
C1585 H1572 0.961 . S
C1585 H1573 0.959 . S
C1585 C1583 1.561 . S
C1586 C1583 1.526 . S
C1586 C1587 1.396 . S
C1586 C1591 1.390 . S
C1587 C1581 1.465 . S
C1587 C1586 1.396 . S
C1587 C1588 1.399 . S
C1588 H1574 0.929 . S
C1588 C1587 1.399 . S
C1588 C1589 1.385 . S
C1589 H1575 0.931 . S
C1589 C1588 1.385 . S
C1589 C1590 1.389 . S
C1590 C1589 1.389 . S
C1590 C1591 1.387 . S
C1591 H1576 0.930 . S
C1591 C1586 1.390 . S
C1591 C1590 1.387 . S
H1592 C1604 0.930 . S
H1593 C1606 0.930 1_455 S
H1594 C1607 0.930 . S
H1595 C1611 0.959 . S
H1596 C1611 0.959 . S
H1597 C1611 0.961 . S
H1598 C1612 0.960 . S
H1599 C1612 0.961 . S
H1600 C1612 0.959 . S
H1601 C1615 0.929 . S
H1602 C1616 0.931 . S
H1603 C1618 0.930 1_655 S
C1604 H1592 0.930 . S
C1604 C1605 1.399 . S
C1604 C1609 1.399 . S
C1605 C1604 1.399 . S
C1605 C1606 1.376 . S
C1606 H1593 0.930 1_655 S
C1606 C1605 1.376 . S
C1606 C1607 1.388 1_655 S
C1607 H1594 0.930 . S
C1607 C1606 1.388 1_455 S
C1607 C1608 1.390 . S
C1608 C1607 1.390 . S
C1608 C1609 1.394 1_455 S
C1608 C1614 1.465 1_565 S
C1609 C1604 1.399 . S
C1609 C1608 1.394 1_655 S
C1609 C1610 1.516 1_565 S
C1610 C1609 1.516 1_545 S
C1610 C1611 1.502 . S
C1610 C1612 1.561 . S
C1610 C1613 1.526 . S
C1611 H1595 0.959 . S
C1611 H1596 0.959 . S
C1611 H1597 0.961 . S
C1611 C1610 1.502 . S
C1612 H1598 0.960 . S
C1612 H1599 0.961 . S
C1612 H1600 0.959 . S
C1612 C1610 1.561 . S
C1613 C1610 1.526 . S
C1613 C1614 1.396 1_655 S
C1613 C1618 1.390 1_655 S
C1614 C1608 1.465 1_545 S
C1614 C1613 1.396 1_455 S
C1614 C1615 1.399 . S
C1615 H1601 0.929 . S
C1615 C1614 1.399 . S
C1615 C1616 1.385 . S
C1616 H1602 0.931 . S
C1616 C1615 1.385 . S
C1616 C1617 1.389 . S
C1617 C1616 1.389 . S
C1617 C1618 1.387 . S
C1618 H1603 0.930 1_455 S
C1618 C1613 1.390 1_455 S
C1618 C1617 1.387 . S
H1619 C1631 0.930 . S
H1620 C1633 0.930 . S
H1621 C1634 0.918 1_565 S
H1622 C1638 0.959 . S
H1623 C1638 0.959 . S
H1624 C1638 0.961 . S
H1625 C1639 0.960 . S
H1626 C1639 0.961 1_455 S
H1627 C1639 0.959 . S
H1628 C1642 0.929 . S
H1629 C1643 0.931 . S
H1630 C1645 0.930 . S
C1631 H1619 0.930 . S
C1631 C1632 1.399 . S
C1631 C1636 1.399 . S
C1632 C1631 1.399 . S
C1632 C1633 1.376 . S
C1633 H1620 0.930 . S
C1633 C1632 1.376 . S
C1633 C1634 1.402 . S
C1634 H1621 0.918 1_545 S
C1634 C1633 1.402 . S
C1634 C1635 1.389 1_545 S
C1635 C1634 1.389 1_565 S
C1635 C1636 1.384 1_565 S
C1635 C1641 1.474 1_655 S
C1636 C1631 1.399 . S
C1636 C1635 1.384 1_545 S
C1636 C1637 1.516 1_655 S
C1637 C1636 1.516 1_455 S
C1637 C1638 1.502 . S
C1637 C1639 1.561 1_445 S
C1637 C1640 1.526 1_545 S
C1638 H1622 0.959 . S
C1638 H1623 0.959 . S
C1638 H1624 0.961 . S
C1638 C1637 1.502 . S
C1639 H1625 0.960 . S
C1639 H1626 0.961 1_655 S
C1639 H1627 0.959 . S
C1639 C1637 1.561 1_665 S
C1640 C1637 1.526 1_565 S
C1640 C1641 1.396 . S
C1640 C1645 1.390 . S
C1641 C1635 1.474 1_455 S
C1641 C1640 1.396 . S
C1641 C1642 1.399 . S
C1642 H1628 0.929 . S
C1642 C1641 1.399 . S
C1642 C1643 1.385 . S
C1643 H1629 0.931 . S
C1643 C1642 1.385 . S
C1643 C1644 1.389 . S
C1644 C1643 1.389 . S
C1644 C1645 1.387 . S
C1645 H1630 0.930 . S
C1645 C1640 1.390 . S
C1645 C1644 1.387 . S
H1646 C1658 0.930 . S
H1647 C1660 0.930 . S
H1648 C1661 0.930 . S
H1649 C1665 0.959 . S
H1650 C1665 0.959 1_554 S
H1651 C1665 0.961 1_454 S
H1652 C1666 0.960 . S
H1653 C1666 0.961 . S
H1654 C1666 0.959 . S
H1655 C1669 0.929 . S
H1656 C1670 0.931 . S
H1657 C1672 0.930 . S
C1658 H1646 0.930 . S
C1658 C1659 1.399 . S
C1658 C1663 1.399 . S
C1659 C1658 1.399 . S
C1659 C1660 1.376 . S
C1660 H1647 0.930 . S
C1660 C1659 1.376 . S
C1660 C1661 1.388 . S
C1661 H1648 0.930 . S
C1661 C1660 1.388 . S
C1661 C1662 1.390 . S
C1662 C1661 1.390 . S
C1662 C1663 1.394 . S
C1662 C1668 1.465 1_455 S
C1663 C1658 1.399 . S
C1663 C1662 1.394 . S
C1663 C1664 1.516 . S
C1664 C1663 1.516 . S
C1664 C1665 1.502 1_455 S
C1664 C1666 1.561 . S
C1664 C1667 1.526 1_455 S
C1665 H1649 0.959 . S
C1665 H1650 0.959 1_556 S
C1665 H1651 0.961 1_656 S
C1665 C1664 1.502 1_655 S
C1666 H1652 0.960 . S
C1666 H1653 0.961 . S
C1666 H1654 0.959 . S
C1666 C1664 1.561 . S
C1667 C1664 1.526 1_655 S
C1667 C1668 1.396 . S
C1667 C1672 1.390 . S
C1668 C1662 1.465 1_655 S
C1668 C1667 1.396 . S
C1668 C1669 1.399 . S
C1669 H1655 0.929 . S
C1669 C1668 1.399 . S
C1669 C1670 1.385 . S
C1670 H1656 0.931 . S
C1670 C1669 1.385 . S
C1670 C1671 1.389 . S
C1671 C1670 1.389 . S
C1671 C1672 1.387 . S
C1672 H1657 0.930 . S
C1672 C1667 1.390 . S
C1672 C1671 1.387 . S
H1673 C1685 0.930 . S
H1674 C1687 0.930 . S
H1675 C1688 0.930 1_545 S
H1676 C1692 0.959 . S
H1677 C1692 0.959 . S
H1678 C1692 0.961 . S
H1679 C1693 0.939 1_556 S
H1680 C1693 0.961 1_556 S
H1681 C1693 0.959 . S
H1682 C1696 0.929 . S
H1683 C1697 0.931 . S
H1684 C1699 0.930 . S
C1685 H1673 0.930 . S
C1685 C1686 1.399 . S
C1685 C1690 1.399 . S
C1686 C1685 1.399 . S
C1686 C1687 1.376 . S
C1687 H1674 0.930 . S
C1687 C1686 1.376 . S
C1687 C1688 1.388 . S
C1688 H1675 0.930 1_565 S
C1688 C1687 1.388 . S
C1688 C1689 1.390 . S
C1689 C1688 1.390 . S
C1689 C1690 1.394 . S
C1689 C1695 1.465 1_565 S
C1690 C1685 1.399 . S
C1690 C1689 1.394 . S
C1690 C1691 1.516 . S
C1691 C1690 1.516 . S
C1691 C1692 1.502 . S
C1691 C1693 1.561 1_565 S
C1691 C1694 1.526 1_565 S
C1692 H1676 0.959 . S
C1692 H1677 0.959 . S
C1692 H1678 0.961 . S
C1692 C1691 1.502 . S
C1693 H1679 0.939 1_554 S
C1693 H1680 0.961 1_554 S
C1693 H1681 0.959 . S
C1693 C1691 1.561 1_545 S
C1694 C1691 1.526 1_545 S
C1694 C1695 1.396 . S
C1694 C1699 1.390 . S
C1695 C1689 1.465 1_545 S
C1695 C1694 1.396 . S
C1695 C1696 1.399 . S
C1696 H1682 0.929 . S
C1696 C1695 1.399 . S
C1696 C1697 1.385 . S
C1697 H1683 0.931 . S
C1697 C1696 1.385 . S
C1697 C1698 1.389 . S
C1698 C1697 1.389 . S
C1698 C1699 1.387 . S
C1699 H1684 0.930 . S
C1699 C1694 1.390 . S
C1699 C1698 1.387 . S
H1700 C1712 0.930 . S
H1701 C1714 0.930 . S
H1702 C1715 0.930 . S
H1703 C1719 0.959 . S
H1704 C1719 0.959 . S
H1705 C1719 0.961 . S
H1706 C1720 0.960 . S
H1707 C1720 0.961 . S
H1708 C1720 0.959 . S
H1709 C1723 0.929 . S
H1710 C1724 0.931 . S
H1711 C1726 0.930 . S
C1712 H1700 0.930 . S
C1712 C1713 1.399 . S
C1712 C1717 1.399 . S
C1713 C1712 1.399 . S
C1713 C1714 1.376 . S
C1714 H1701 0.930 . S
C1714 C1713 1.376 . S
C1714 C1715 1.388 . S
C1715 H1702 0.930 . S
C1715 C1714 1.388 . S
C1715 C1716 1.390 . S
C1716 C1715 1.390 . S
C1716 C1717 1.394 . S
C1716 C1722 1.465 . S
C1717 C1712 1.399 . S
C1717 C1716 1.394 . S
C1717 C1718 1.516 . S
C1718 C1717 1.516 . S
C1718 C1719 1.502 . S
C1718 C1720 1.561 . S
C1718 C1721 1.526 . S
C1719 H1703 0.959 . S
C1719 H1704 0.959 . S
C1719 H1705 0.961 . S
C1719 C1718 1.502 . S
C1720 H1706 0.960 . S
C1720 H1707 0.961 . S
C1720 H1708 0.959 . S
C1720 C1718 1.561 . S
C1721 C1718 1.526 . S
C1721 C1722 1.396 . S
C1721 C1726 1.390 . S
C1722 C1716 1.465 . S
C1722 C1721 1.396 . S
C1722 C1723 1.399 . S
C1723 H1709 0.929 . S
C1723 C1722 1.399 . S
C1723 C1724 1.385 . S
C1724 H1710 0.931 . S
C1724 C1723 1.385 . S
C1724 C1725 1.389 . S
C1725 C1724 1.389 . S
C1725 C1726 1.387 . S
C1726 H1711 0.930 . S
C1726 C1721 1.390 . S
C1726 C1725 1.387 . S
H1727 C1739 0.930 . S
H1728 C1741 0.930 . S
H1729 C1742 0.930 . S
H1730 C1746 0.959 . S
H1731 C1746 0.959 . S
H1732 C1746 0.961 . S
H1733 C1747 0.960 . S
H1734 C1747 0.961 . S
H1735 C1747 0.959 . S
H1736 C1750 0.929 . S
H1737 C1751 0.931 . S
H1738 C1753 0.930 . S
C1739 H1727 0.930 . S
C1739 C1740 1.399 . S
C1739 C1744 1.399 . S
C1740 C1739 1.399 . S
C1740 C1741 1.376 . S
C1741 H1728 0.930 . S
C1741 C1740 1.376 . S
C1741 C1742 1.388 . S
C1742 H1729 0.930 . S
C1742 C1741 1.388 . S
C1742 C1743 1.390 . S
C1743 C1742 1.390 . S
C1743 C1744 1.394 . S
C1743 C1749 1.465 . S
C1744 C1739 1.399 . S
C1744 C1743 1.394 . S
C1744 C1745 1.516 . S
C1745 C1744 1.516 . S
C1745 C1746 1.502 . S
C1745 C1747 1.561 . S
C1745 C1748 1.526 . S
C1746 H1730 0.959 . S
C1746 H1731 0.959 . S
C1746 H1732 0.961 . S
C1746 C1745 1.502 . S
C1747 H1733 0.960 . S
C1747 H1734 0.961 . S
C1747 H1735 0.959 . S
C1747 C1745 1.561 . S
C1748 C1745 1.526 . S
C1748 C1749 1.396 . S
C1748 C1753 1.390 . S
C1749 C1743 1.465 . S
C1749 C1748 1.396 . S
C1749 C1750 1.399 . S
C1750 H1736 0.929 . S
C1750 C1749 1.399 . S
C1750 C1751 1.385 . S
C1751 H1737 0.931 . S
C1751 C1750 1.385 . S
C1751 C1752 1.389 . S
C1752 C1751 1.389 . S
C1752 C1753 1.387 . S
C1753 H1738 0.930 . S
C1753 C1748 1.390 . S
C1753 C1752 1.387 . S
H1754 C1766 0.930 . S
H1755 C1768 0.930 . S
H1756 C1769 0.930 . S
H1757 C1773 0.959 . S
H1758 C1773 0.959 . S
H1759 C1773 0.961 . S
H1760 C1774 0.960 . S
H1761 C1774 0.961 . S
H1762 C1774 0.959 . S
H1763 C1777 0.929 . S
H1764 C1778 0.931 . S
H1765 C1780 0.930 . S
C1766 H1754 0.930 . S
C1766 C1767 1.399 . S
C1766 C1771 1.399 . S
C1767 C1766 1.399 . S
C1767 C1768 1.376 . S
C1768 H1755 0.930 . S
C1768 C1767 1.376 . S
C1768 C1769 1.388 . S
C1769 H1756 0.930 . S
C1769 C1768 1.388 . S
C1769 C1770 1.390 . S
C1770 C1769 1.390 . S
C1770 C1771 1.394 . S
C1770 C1776 1.465 1_545 S
C1771 C1766 1.399 . S
C1771 C1770 1.394 . S
C1771 C1772 1.516 . S
C1772 C1771 1.516 . S
C1772 C1773 1.502 . S
C1772 C1774 1.561 . S
C1772 C1775 1.526 1_545 S
C1773 H1757 0.959 . S
C1773 H1758 0.959 . S
C1773 H1759 0.961 . S
C1773 C1772 1.502 . S
C1774 H1760 0.960 . S
C1774 H1761 0.961 . S
C1774 H1762 0.959 . S
C1774 C1772 1.561 . S
C1775 C1772 1.526 1_565 S
C1775 C1776 1.396 . S
C1775 C1780 1.390 . S
C1776 C1770 1.465 1_565 S
C1776 C1775 1.396 . S
C1776 C1777 1.399 . S
C1777 H1763 0.929 . S
C1777 C1776 1.399 . S
C1777 C1778 1.385 . S
C1778 H1764 0.931 . S
C1778 C1777 1.385 . S
C1778 C1779 1.389 . S
C1779 C1778 1.389 . S
C1779 C1780 1.387 . S
C1780 H1765 0.930 . S
C1780 C1775 1.390 . S
C1780 C1779 1.387 . S
H1781 C1793 0.930 . S
H1782 C1795 0.930 . S
H1783 C1796 0.930 . S
H1784 C1800 0.959 . S
H1785 C1800 0.959 . S
H1786 C1800 0.961 . S
H1787 C1801 0.960 1_655 S
H1788 C1801 0.961 . S
H1789 C1801 0.959 . S
H1790 C1804 0.929 . S
H1791 C1805 0.931 . S
H1792 C1807 0.930 . S
C1793 H1781 0.930 . S
C1793 C1794 1.399 . S
C1793 C1798 1.399 . S
C1794 C1793 1.399 . S
C1794 C1795 1.376 . S
C1795 H1782 0.930 . S
C1795 C1794 1.376 . S
C1795 C1796 1.388 . S
C1796 H1783 0.930 . S
C1796 C1795 1.388 . S
C1796 C1797 1.390 . S
C1797 C1796 1.390 . S
C1797 C1798 1.394 . S
C1797 C1803 1.465 1_655 S
C1798 C1793 1.399 . S
C1798 C1797 1.394 . S
C1798 C1799 1.516 . S
C1799 C1798 1.516 . S
C1799 C1800 1.502 . S
C1799 C1801 1.561 1_655 S
C1799 C1802 1.526 1_655 S
C1800 H1784 0.959 . S
C1800 H1785 0.959 . S
C1800 H1786 0.961 . S
C1800 C1799 1.502 . S
C1801 H1787 0.960 1_455 S
C1801 H1788 0.961 . S
C1801 H1789 0.959 . S
C1801 C1799 1.561 1_455 S
C1802 C1799 1.526 1_455 S
C1802 C1803 1.396 . S
C1802 C1807 1.390 . S
C1803 C1797 1.465 1_455 S
C1803 C1802 1.396 . S
C1803 C1804 1.399 . S
C1804 H1790 0.929 . S
C1804 C1803 1.399 . S
C1804 C1805 1.385 . S
C1805 H1791 0.931 . S
C1805 C1804 1.385 . S
C1805 C1806 1.389 . S
C1806 C1805 1.389 . S
C1806 C1807 1.387 . S
C1807 H1792 0.930 . S
C1807 C1802 1.390 . S
C1807 C1806 1.387 . S
C957 C33 1.310 . S
C969 C701 1.323 . S
C984 C524 1.317 . S
C996 C92 1.285 . S
C1011 C583 1.323 . S
C1023 C151 1.312 . S
C1038 C642 1.320 . S
C1050 C210 1.309 . S
C1065 C347 1.321 1_545 S
C1077 C269 1.295 . S
C1092 C328 1.316 . S
C1104 C406 1.301 1_455 S
C1119 C387 1.290 . S
C1131 C465 1.303 1_565 S
C1146 C446 1.321 . S
C1158 C288 1.301 1_655 S
C1173 C505 1.289 . S
C1185 C229 1.318 1_565 S
C1200 C52 1.306 1_655 S
C1212 C564 1.295 . S
C1227 C111 1.300 1_545 S
C1239 C623 1.306 . S
C1254 C170 1.310 1_455 S
C1266 C682 1.289 . S
C1281 C819 1.308 . S
C1293 C741 1.285 . S
C1308 C800 1.284 . S
C1320 C878 1.316 . S
C1335 C937 1.319 . S
C1347 C859 1.321 . S
C1362 C760 1.308 . S
C1374 C918 1.292 . S
C1389 C831 1.491 . S
C1401 C5 1.507 . S
C1416 C890 1.520 . S
C1428 C64 1.488 . S
C1443 C713 1.519 . S
C1455 C123 1.496 . S
C1470 C182 1.489 . S
C1482 C772 1.519 . S
C1497 C241 1.488 . S
C1509 C595 1.513 . S
C1524 C654 1.491 . S
C1536 C300 1.516 . S
C1551 C359 1.494 . S
C1563 C477 1.503 . S
C1578 C418 1.517 . S
C1590 C536 1.491 . S
C1605 C121 1.340 . S
C1617 C3 1.394 . S
C1632 C180 1.346 . S
C1644 C62 1.382 . S
C1659 C239 1.375 . S
C1671 C357 1.372 . S
C1686 C298 1.349 . S
C1698 C416 1.379 . S
C1713 C593 1.338 . S
C1725 C475 1.378 . S
C1740 C534 1.388 . S
C1752 C652 1.342 . S
C1767 C829 1.373 . S
C1779 C711 1.342 . S
C1794 C770 1.384 . S
C1806 C888 1.346 . S
