# Generated by pormake.
# Topology nfc, (4)-cn, num edge types: 1
# Building blocks:
#     Node 0, Type 0, BuildingBlock: KOZSID_clean_sbu_0, # of connection points: 4
#     Node 1, Type 0, BuildingBlock: KOZSID_clean_sbu_0, # of connection points: 4
#     Node 2, Type 0, BuildingBlock: KOZSID_clean_sbu_0, # of connection points: 4
#     Node 3, Type 0, BuildingBlock: KOZSID_clean_sbu_0, # of connection points: 4
#     Node 4, Type 0, BuildingBlock: KOZSID_clean_sbu_0, # of connection points: 4
#     Node 5, Type 0, BuildingBlock: KOZSID_clean_sbu_0, # of connection points: 4
#     Node 6, Type 0, BuildingBlock: KOZSID_clean_sbu_0, # of connection points: 4
#     Node 7, Type 0, BuildingBlock: KOZSID_clean_sbu_0, # of connection points: 4
#     Node 8, Type 0, BuildingBlock: KOZSID_clean_sbu_0, # of connection points: 4
#     Node 9, Type 0, BuildingBlock: KOZSID_clean_sbu_0, # of connection points: 4
#     Node 10, Type 0, BuildingBlock: KOZSID_clean_sbu_0, # of connection points: 4
#     Node 11, Type 0, BuildingBlock: KOZSID_clean_sbu_0, # of connection points: 4
#     Node 12, Type 0, BuildingBlock: KOZSID_clean_sbu_0, # of connection points: 4
#     Node 13, Type 0, BuildingBlock: KOZSID_clean_sbu_0, # of connection points: 4
#     Node 14, Type 0, BuildingBlock: KOZSID_clean_sbu_0, # of connection points: 4
#     Node 15, Type 0, BuildingBlock: KOZSID_clean_sbu_0, # of connection points: 4
#     Edge 16, Type (0, 0), BuildingBlock: UVAHIK_clean_linker_0, # of connection points: 2
#     Edge 17, Type (0, 0), BuildingBlock: UVAHIK_clean_linker_0, # of connection points: 2
#     Edge 18, Type (0, 0), BuildingBlock: UVAHIK_clean_linker_0, # of connection points: 2
#     Edge 19, Type (0, 0), BuildingBlock: UVAHIK_clean_linker_0, # of connection points: 2
#     Edge 20, Type (0, 0), BuildingBlock: UVAHIK_clean_linker_0, # of connection points: 2
#     Edge 21, Type (0, 0), BuildingBlock: UVAHIK_clean_linker_0, # of connection points: 2
#     Edge 22, Type (0, 0), BuildingBlock: UVAHIK_clean_linker_0, # of connection points: 2
#     Edge 23, Type (0, 0), BuildingBlock: UVAHIK_clean_linker_0, # of connection points: 2
#     Edge 24, Type (0, 0), BuildingBlock: UVAHIK_clean_linker_0, # of connection points: 2
#     Edge 25, Type (0, 0), BuildingBlock: UVAHIK_clean_linker_0, # of connection points: 2
#     Edge 26, Type (0, 0), BuildingBlock: UVAHIK_clean_linker_0, # of connection points: 2
#     Edge 27, Type (0, 0), BuildingBlock: UVAHIK_clean_linker_0, # of connection points: 2
#     Edge 28, Type (0, 0), BuildingBlock: UVAHIK_clean_linker_0, # of connection points: 2
#     Edge 29, Type (0, 0), BuildingBlock: UVAHIK_clean_linker_0, # of connection points: 2
#     Edge 30, Type (0, 0), BuildingBlock: UVAHIK_clean_linker_0, # of connection points: 2
#     Edge 31, Type (0, 0), BuildingBlock: UVAHIK_clean_linker_0, # of connection points: 2
#     Edge 32, Type (0, 0), BuildingBlock: UVAHIK_clean_linker_0, # of connection points: 2
#     Edge 33, Type (0, 0), BuildingBlock: UVAHIK_clean_linker_0, # of connection points: 2
#     Edge 34, Type (0, 0), BuildingBlock: UVAHIK_clean_linker_0, # of connection points: 2
#     Edge 35, Type (0, 0), BuildingBlock: UVAHIK_clean_linker_0, # of connection points: 2
#     Edge 36, Type (0, 0), BuildingBlock: UVAHIK_clean_linker_0, # of connection points: 2
#     Edge 37, Type (0, 0), BuildingBlock: UVAHIK_clean_linker_0, # of connection points: 2
#     Edge 38, Type (0, 0), BuildingBlock: UVAHIK_clean_linker_0, # of connection points: 2
#     Edge 39, Type (0, 0), BuildingBlock: UVAHIK_clean_linker_0, # of connection points: 2
#     Edge 40, Type (0, 0), BuildingBlock: UVAHIK_clean_linker_0, # of connection points: 2
#     Edge 41, Type (0, 0), BuildingBlock: UVAHIK_clean_linker_0, # of connection points: 2
#     Edge 42, Type (0, 0), BuildingBlock: UVAHIK_clean_linker_0, # of connection points: 2
#     Edge 43, Type (0, 0), BuildingBlock: UVAHIK_clean_linker_0, # of connection points: 2
#     Edge 44, Type (0, 0), BuildingBlock: UVAHIK_clean_linker_0, # of connection points: 2
#     Edge 45, Type (0, 0), BuildingBlock: UVAHIK_clean_linker_0, # of connection points: 2
#     Edge 46, Type (0, 0), BuildingBlock: UVAHIK_clean_linker_0, # of connection points: 2
#     Edge 47, Type (0, 0), BuildingBlock: UVAHIK_clean_linker_0, # of connection points: 2
# Relax obj value: 0.064
# Max RMSD: 0.137
# Mean RMSD: 0.111
data_MOF--net-nfc--node1-KOZSID_clean_sbu_0--edge1-UVAHIK_clean_linker_0
_symmetry_space_group_name_H-M    P1
_symmetry_Int_Tables_number       1
_symmetry_cell_setting            triclinic
loop_
_symmetry_equiv_pos_as_xyz
'x, y, z'
_cell_length_a     54.077914
_cell_length_b     54.154617
_cell_length_c     44.002874
_cell_angle_alpha  85.341163
_cell_angle_beta   86.908385
_cell_angle_gamma 85.825242
loop_
_atom_site_label
_atom_site_type_symbol
_atom_site_fract_x
_atom_site_fract_y
_atom_site_fract_z
_atom_type_partial_charge
C0 C 0.97714 0.00746 0.06453 0.0
C1 C 0.95662 0.02049 0.07736 0.0
C2 C 0.94648 0.03594 0.05456 0.0
C3 C 0.96035 0.03062 0.02869 0.0
N4 N 0.97814 0.01204 0.03341 0.0
Co5 Co 0.99826 0.99484 1.00031 0.0
N6 N 0.98314 0.01722 0.96633 0.0
C7 C 0.96509 0.03549 0.97007 0.0
C8 C 0.95658 0.0466 0.9432 0.0
C9 C 0.9698 0.03463 0.92081 0.0
C10 C 0.986 0.0169 0.93521 0.0
N11 N 0.01896 0.97799 0.96742 0.0
C12 C 0.01963 0.98197 0.93629 0.0
C13 C 0.03785 0.96636 0.92292 0.0
C14 C 0.04833 0.9515 0.94603 0.0
C15 C 0.03634 0.95902 0.97227 0.0
N16 N 0.01283 0.97212 0.03423 0.0
C17 C 0.0276 0.95135 0.0301 0.0
C18 C 0.02929 0.93552 0.05586 0.0
C19 C 0.01544 0.94733 0.07793 0.0
C20 C 0.00745 0.97064 0.0651 0.0
N21 N 0.9717 0.97157 0.99748 0.0
C22 C 0.93424 0.93881 0.99213 0.0
C23 C 0.95926 0.93063 0.98959 0.0
C24 C 0.97747 0.94715 0.99226 0.0
C25 C 0.92824 0.96352 0.99787 0.0
C26 C 0.94705 0.97943 1.00025 0.0
N27 N 0.02453 0.01776 0.0033 0.0
C28 C 0.0668 0.02411 0.01365 0.0
C29 C 0.06064 0.0493 0.01683 0.0
C30 C 0.03651 0.05877 0.0108 0.0
C31 C 0.0189 0.04277 0.00386 0.0
C32 C 0.04854 0.00875 0.00717 0.0
H33 H 1.00059 0.05083 1.00035 0.0
H34 H 0.05404 0.98949 0.00663 0.0
H35 H 0.99601 0.93966 0.98926 0.0
H36 H 0.94095 0.99804 0.00379 0.0
C37 C 0.95545 0.04074 0.99916 0.0
C38 C 0.99526 0.99108 0.0826 0.0
C39 C 0.00305 0.99968 0.91826 0.0
C40 C 0.03887 0.94693 0.00145 0.0
H41 H 0.94927 0.01878 0.10071 0.0
H42 H 0.93029 0.0488 0.05644 0.0
H43 H 0.94192 0.06117 0.94023 0.0
H44 H 0.96718 0.03821 0.89663 0.0
H45 H 0.04278 0.9654 0.89887 0.0
H46 H 0.06249 0.93647 0.94386 0.0
H47 H 0.03862 0.91714 0.05804 0.0
H48 H 0.01081 0.93891 0.1004 0.0
H49 H 0.96488 0.91176 0.98442 0.0
H50 H 0.90906 0.97073 1.00014 0.0
H51 H 0.08541 0.01602 0.01733 0.0
H52 H 0.03077 0.07814 0.01305 0.0
C53 C 0.25506 0.78664 0.29019 0.0
C54 C 0.26748 0.80645 0.29848 0.0
C55 C 0.29052 0.80469 0.28435 0.0
C56 C 0.29095 0.78393 0.26848 0.0
N57 N 0.26952 0.77232 0.27144 0.0
Co58 Co 0.26259 0.74078 0.25348 0.0
N59 N 0.29709 0.73749 0.23422 0.0
C60 C 0.31538 0.75305 0.23575 0.0
C61 C 0.33698 0.74606 0.22005 0.0
C62 C 0.33222 0.72477 0.20759 0.0
C63 C 0.30788 0.72003 0.21648 0.0
N64 N 0.25563 0.70925 0.23547 0.0
C65 C 0.2704 0.6945 0.21757 0.0
C66 C 0.25823 0.67444 0.20961 0.0
C67 C 0.23487 0.67661 0.22286 0.0
C68 C 0.23412 0.69778 0.23807 0.0
N69 N 0.22812 0.74399 0.27289 0.0
C70 C 0.20973 0.72855 0.27105 0.0
C71 C 0.18813 0.73555 0.28672 0.0
C72 C 0.19302 0.75659 0.29965 0.0
C73 C 0.2175 0.76114 0.29122 0.0
N74 N 0.25103 0.76019 0.21604 0.0
C75 C 0.23686 0.78377 0.15953 0.0
C76 C 0.22161 0.76736 0.17633 0.0
C77 C 0.22905 0.75578 0.20409 0.0
C78 C 0.25863 0.78936 0.17248 0.0
C79 C 0.26516 0.77765 0.20069 0.0
N80 N 0.2741 0.72139 0.29088 0.0
C81 C 0.2658 0.69223 0.33407 0.0
C82 C 0.28701 0.69812 0.34803 0.0
C83 C 0.30251 0.71466 0.33176 0.0
C84 C 0.29568 0.7261 0.30357 0.0
C85 C 0.25996 0.70371 0.3056 0.0
H86 H 0.30786 0.73911 0.29286 0.0
H87 H 0.24348 0.6985 0.29644 0.0
H88 H 0.21689 0.74295 0.21506 0.0
H89 H 0.28201 0.78259 0.20923 0.0
C90 C 0.31159 0.77428 0.25182 0.0
C91 C 0.22985 0.78182 0.30148 0.0
C92 C 0.29583 0.69888 0.20717 0.0
C93 C 0.21344 0.70743 0.25471 0.0
H94 H 0.2608 0.82052 0.3136 0.0
H95 H 0.30538 0.81679 0.286 0.0
H96 H 0.35408 0.75542 0.21777 0.0
H97 H 0.34517 0.714 0.19342 0.0
H98 H 0.26547 0.65983 0.19552 0.0
H99 H 0.22014 0.66432 0.22143 0.0
H100 H 0.17094 0.72636 0.28868 0.0
H101 H 0.18002 0.76729 0.31383 0.0
H102 H 0.20414 0.76296 0.16785 0.0
H103 H 0.27113 0.80197 0.16048 0.0
H104 H 0.25297 0.67969 0.3455 0.0
H105 H 0.31959 0.71933 0.34099 0.0
C106 C 0.45411 0.98679 0.53899 0.0
C107 C 0.43282 0.99811 0.55228 0.0
C108 C 0.43459 0.02314 0.547 0.0
C109 C 0.45665 0.02575 0.5306 0.0
N110 N 0.46912 0.00393 0.52504 0.0
Co111 Co 0.50138 0.99985 0.50046 0.0
N112 N 0.50562 0.03661 0.49638 0.0
C113 C 0.49042 0.05415 0.50934 0.0
C114 C 0.49821 0.07769 0.50387 0.0
C115 C 0.51968 0.07508 0.48629 0.0
C116 C 0.52364 0.05002 0.4816 0.0
N117 N 0.53281 0.9959 0.47423 0.0
C118 C 0.5475 0.01311 0.45977 0.0
C119 C 0.56613 0.002 0.44147 0.0
C120 C 0.5633 0.97708 0.44463 0.0
C121 C 0.54302 0.9743 0.46432 0.0
N122 N 0.4981 0.96296 0.50653 0.0
C123 C 0.51441 0.94525 0.49579 0.0
C124 C 0.5086 0.92152 0.50508 0.0
C125 C 0.4874 0.92417 0.52314 0.0
C126 C 0.48125 0.94948 0.52357 0.0
N127 N 0.48239 0.00242 0.46274 0.0
C128 C 0.4594 0.00724 0.40623 0.0
C129 C 0.47006 0.98436 0.41788 0.0
C130 C 0.48157 0.98243 0.44566 0.0
C131 C 0.45928 0.02734 0.4243 0.0
C132 C 0.47039 0.02444 0.45239 0.0
N133 N 0.52024 0.99716 0.53797 0.0
C134 C 0.55259 0.97657 0.56858 0.0
C135 C 0.54226 0.98759 0.5943 0.0
C136 C 0.52193 0.00478 0.59101 0.0
C137 C 0.51148 0.00954 0.56271 0.0
C138 C 0.54129 0.98157 0.54071 0.0
H139 H 0.49583 0.02268 0.56164 0.0
H140 H 0.54939 0.97196 0.52197 0.0
H141 H 0.48997 0.96458 0.45244 0.0
H142 H 0.46937 0.04055 0.4649 0.0
C143 C 0.46767 0.04819 0.52358 0.0
C144 C 0.45924 0.95973 0.54052 0.0
C145 C 0.54435 0.04008 0.46218 0.0
C146 C 0.53411 0.95162 0.47556 0.0
H147 H 0.41773 0.98922 0.56488 0.0
H148 H 0.4217 0.0377 0.55504 0.0
H149 H 0.48901 0.09481 0.5111 0.0
H150 H 0.53088 0.09005 0.47744 0.0
H151 H 0.58029 0.01094 0.42714 0.0
H152 H 0.57476 0.96266 0.43395 0.0
H153 H 0.51853 0.90433 0.49928 0.0
H154 H 0.47758 0.90911 0.53465 0.0
H155 H 0.46997 0.96791 0.40547 0.0
H156 H 0.45142 0.04556 0.41655 0.0
H157 H 0.56849 0.96324 0.5703 0.0
H158 H 0.51371 0.01403 0.61043 0.0
C159 C 0.26927 0.19667 0.76919 0.0
C160 C 0.26024 0.17343 0.77623 0.0
C161 C 0.23559 0.17581 0.7707 0.0
C162 C 0.23101 0.20023 0.76055 0.0
N163 N 0.25132 0.21356 0.75885 0.0
Co164 Co 0.25295 0.24986 0.74607 0.0
N165 N 0.21629 0.25372 0.73979 0.0
C166 C 0.19999 0.23577 0.74387 0.0
C167 C 0.17626 0.24378 0.73672 0.0
C168 C 0.17744 0.26827 0.72721 0.0
C169 C 0.20194 0.27384 0.72926 0.0
N170 N 0.25455 0.2862 0.73354 0.0
C171 C 0.2365 0.30325 0.72386 0.0
C172 C 0.24546 0.32658 0.7174 0.0
C173 C 0.27016 0.32412 0.72267 0.0
C174 C 0.27483 0.29957 0.73215 0.0
N175 N 0.28963 0.24596 0.75214 0.0
C176 C 0.30602 0.26379 0.74747 0.0
C177 C 0.32979 0.25574 0.75444 0.0
C178 C 0.32853 0.23136 0.76447 0.0
C179 C 0.30395 0.2259 0.76292 0.0
N180 N 0.25909 0.24226 0.70288 0.0
C181 C 0.26552 0.23398 0.64049 0.0
C182 C 0.28048 0.24973 0.65368 0.0
C183 C 0.27696 0.25359 0.68463 0.0
C184 C 0.24782 0.22186 0.6593 0.0
C185 C 0.24505 0.22612 0.69016 0.0
N186 N 0.24681 0.25745 0.78925 0.0
C187 C 0.25895 0.27645 0.83346 0.0
C188 C 0.24049 0.26506 0.8518 0.0
C189 C 0.22464 0.25057 0.83801 0.0
C190 C 0.22814 0.24699 0.80701 0.0
C191 C 0.26165 0.27256 0.80248 0.0
H192 H 0.21573 0.23538 0.79808 0.0
H193 H 0.2762 0.28157 0.78988 0.0
H194 H 0.2887 0.26608 0.69312 0.0
H195 H 0.23111 0.21646 0.70307 0.0
C196 C 0.2077 0.21135 0.75348 0.0
C197 C 0.29486 0.20184 0.77353 0.0
C198 C 0.21087 0.29816 0.71964 0.0
C199 C 0.29822 0.28832 0.73851 0.0
H200 H 0.27039 0.15659 0.78488 0.0
H201 H 0.22247 0.16156 0.77417 0.0
H202 H 0.16012 0.23298 0.7377 0.0
H203 H 0.16205 0.28049 0.71912 0.0
H204 H 0.23523 0.34356 0.7093 0.0
H205 H 0.28325 0.33841 0.71946 0.0
H206 H 0.34595 0.26652 0.75327 0.0
H207 H 0.3439 0.2192 0.77272 0.0
H208 H 0.2948 0.2592 0.64021 0.0
H209 H 0.23555 0.20966 0.65017 0.0
H210 H 0.27187 0.28771 0.84305 0.0
H211 H 0.20969 0.24177 0.85108 0.0
C212 C 0.99109 0.98211 0.56631 0.0
C213 C 0.97647 0.96515 0.58278 0.0
C214 C 0.96546 0.95266 0.56206 0.0
C215 C 0.97359 0.96274 0.53408 0.0
N216 N 0.9893 0.9809 0.53553 0.0
Co217 Co 0.00312 0.00188 0.49941 0.0
N218 N 0.98576 0.98419 0.46894 0.0
C219 C 0.97081 0.96536 0.47577 0.0
C220 C 0.96193 0.9562 0.45066 0.0
C221 C 0.97201 0.96977 0.42617 0.0
C222 C 0.98666 0.98647 0.4377 0.0
N223 N 0.01671 0.02305 0.46332 0.0
C224 C 0.01453 0.02213 0.43257 0.0
C225 C 0.02799 0.03999 0.41603 0.0
C226 C 0.039 0.05254 0.43673 0.0
C227 C 0.03182 0.04171 0.46474 0.0
N228 N 0.02072 0.01938 0.52984 0.0
C229 C 0.03612 0.03783 0.52288 0.0
C230 C 0.04602 0.04616 0.54784 0.0
C231 C 0.03619 0.03246 0.57235 0.0
C232 C 0.02048 0.01659 0.56107 0.0
N233 N 0.0322 0.97765 0.49524 0.0
C234 C 0.072 0.94414 0.479 0.0
C235 C 0.0755 0.96928 0.48056 0.0
C236 C 0.05557 0.98553 0.48893 0.0
C237 C 0.04873 0.93573 0.48802 0.0
C238 C 0.02925 0.95268 0.49614 0.0
N239 N 0.97401 0.02612 0.50359 0.0
C240 C 0.95743 0.06771 0.51263 0.0
C241 C 0.93385 0.0593 0.51961 0.0
C242 C 0.93031 0.03442 0.5162 0.0
C243 C 0.95044 0.01834 0.5079 0.0
C244 C 0.97708 0.05093 0.50462 0.0
H245 H 0.94655 0.9996 0.50597 0.0
H246 H 0.99472 0.05836 0.50038 0.0
H247 H 0.05939 0.00448 0.48922 0.0
H248 H 0.0118 0.94524 0.50205 0.0
C249 C 0.96589 0.95637 0.50604 0.0
C250 C 0.00569 0.9994 0.58112 0.0
C251 C 0.00093 0.00411 0.41782 0.0
C252 C 0.04027 0.04747 0.49268 0.0
H253 H 0.97351 0.96235 0.60727 0.0
H254 H 0.95252 0.93834 0.56684 0.0
H255 H 0.94976 0.94125 0.45019 0.0
H256 H 0.969 0.96752 0.40247 0.0
H257 H 0.03015 0.04326 0.39149 0.0
H258 H 0.05138 0.06736 0.43188 0.0
H259 H 0.05873 0.06067 0.5482 0.0
H260 H 0.04013 0.03411 0.59591 0.0
H261 H 0.09343 0.97652 0.47463 0.0
H262 H 0.04517 0.91635 0.48739 0.0
H263 H 0.96104 0.08689 0.51477 0.0
H264 H 0.91216 0.02724 0.52057 0.0
C265 C 0.26555 0.79685 0.71209 0.0
C266 C 0.2544 0.81669 0.69467 0.0
C267 C 0.22942 0.81431 0.69764 0.0
C268 C 0.22666 0.79328 0.71668 0.0
N269 N 0.24832 0.78218 0.72642 0.0
Co270 Co 0.25227 0.75032 0.75313 0.0
N271 N 0.21536 0.74724 0.75821 0.0
C272 C 0.19765 0.76376 0.74668 0.0
C273 C 0.17392 0.7574 0.75427 0.0
C274 C 0.17654 0.73565 0.77211 0.0
C275 C 0.20185 0.72996 0.77455 0.0
N276 N 0.25629 0.71772 0.77843 0.0
C277 C 0.23911 0.70265 0.79213 0.0
C278 C 0.25045 0.68181 0.80753 0.0
C279 C 0.27545 0.68359 0.80319 0.0
C280 C 0.2781 0.70537 0.78557 0.0
N281 N 0.28911 0.75418 0.74963 0.0
C282 C 0.30672 0.73862 0.76303 0.0
C283 C 0.33038 0.74574 0.75686 0.0
C284 C 0.3278 0.76718 0.73841 0.0
C285 C 0.30258 0.77201 0.73433 0.0
N286 N 0.25009 0.76871 0.79042 0.0
C287 C 0.24187 0.79011 0.84632 0.0
C288 C 0.25917 0.77001 0.84331 0.0
C289 C 0.26324 0.7599 0.81524 0.0
C290 C 0.22992 0.8005 0.82057 0.0
C291 C 0.23426 0.78951 0.79291 0.0
N292 N 0.25434 0.73183 0.71582 0.0
C293 C 0.27802 0.70614 0.68064 0.0
C294 C 0.25859 0.70826 0.66066 0.0
C295 C 0.23661 0.72159 0.66954 0.0
C296 C 0.235 0.73334 0.69672 0.0
C297 C 0.27538 0.71763 0.70799 0.0
H298 H 0.21798 0.74377 0.70149 0.0
H299 H 0.29088 0.71505 0.7221 0.0
H300 H 0.27657 0.74448 0.81446 0.0
H301 H 0.22402 0.79769 0.77418 0.0
C302 C 0.20398 0.78421 0.72717 0.0
C303 C 0.29255 0.79307 0.71452 0.0
C304 C 0.21202 0.70769 0.79223 0.0
C305 C 0.30061 0.71613 0.77846 0.0
H306 H 0.26337 0.83147 0.6813 0.0
H307 H 0.21496 0.8266 0.68739 0.0
H308 H 0.15675 0.76722 0.7473 0.0
H309 H 0.16146 0.72508 0.78195 0.0
H310 H 0.24164 0.66708 0.82116 0.0
H311 H 0.28998 0.67095 0.8127 0.0
H312 H 0.34755 0.73603 0.76404 0.0
H313 H 0.34289 0.7777 0.72845 0.0
H314 H 0.26908 0.76174 0.86279 0.0
H315 H 0.21646 0.81623 0.8221 0.0
H316 H 0.29558 0.69628 0.67498 0.0
H317 H 0.22065 0.72329 0.6555 0.0
C318 C 0.45522 0.01128 0.96304 0.0
C319 C 0.43438 1.00009 0.95532 0.0
C320 C 0.43586 0.97659 0.96908 0.0
C321 C 0.45745 0.97475 0.98428 0.0
N322 N 0.4699 0.99568 0.98113 0.0
Co323 Co 0.50233 0.00098 0.99893 0.0
N324 N 0.5044 0.96634 0.01927 0.0
C325 C 0.48762 0.94903 0.01869 0.0
C326 C 0.49388 0.92715 0.03521 0.0
C327 C 0.51602 0.9306 0.04705 0.0
C328 C 0.52208 0.95447 0.03687 0.0
N329 N 0.53484 0.00621 0.01659 0.0
C330 C 0.54973 0.99046 0.03424 0.0
C331 C 0.57096 0.00141 0.04115 0.0
C332 C 0.56938 0.02497 0.02754 0.0
C333 C 0.54744 0.02703 0.01307 0.0
N334 N 0.50017 0.03565 0.97874 0.0
C335 C 0.51665 0.05317 0.97992 0.0
C336 C 0.51012 0.07523 0.96392 0.0
C337 C 0.48814 0.07165 0.95172 0.0
C338 C 0.48257 0.04746 0.96098 0.0
N339 N 0.48433 0.01313 0.03591 0.0
C340 C 0.46151 0.02787 0.09134 0.0
C341 C 0.47941 0.04193 0.07537 0.0
C342 C 0.49058 0.0342 0.04806 0.0
C343 C 0.45441 0.00701 0.07815 0.0
C344 C 0.46572 1.00025 0.05055 0.0
N345 N 0.52031 0.98882 0.96197 0.0
C346 C 0.5492 0.99513 0.91861 0.0
C347 C 0.54259 0.97357 0.90657 0.0
C348 C 0.52567 0.9591 0.92368 0.0
C349 C 0.51475 0.96706 0.95092 0.0
C350 C 0.53811 0.00221 0.94626 0.0
H351 H 0.50154 0.9555 0.96228 0.0
H352 H 0.54382 0.01888 0.95409 0.0
H353 H 0.50451 0.04537 0.03752 0.0
H354 H 0.45944 0.98418 0.04192 0.0
C355 C 0.46633 0.95374 0.00198 0.0
C356 C 0.46029 0.03668 0.95241 0.0
C357 C 0.54479 0.96495 0.04461 0.0
C358 C 0.53824 0.04823 0.996 0.0
H359 H 0.41964 0.00809 0.94114 0.0
H360 H 0.42276 0.96252 0.96814 0.0
H361 H 0.48359 0.91063 0.0382 0.0
H362 H 0.52654 0.91704 0.06155 0.0
H363 H 0.5861 0.9932 0.05452 0.0
H364 H 0.58269 0.03891 0.02804 0.0
H365 H 0.52017 0.0919 0.96139 0.0
H366 H 0.47741 0.0853 0.93759 0.0
H367 H 0.48518 0.05863 0.08408 0.0
H368 H 0.44084 0.99523 0.08952 0.0
H369 H 0.56217 0.00708 0.90629 0.0
H370 H 0.52041 0.94186 0.91584 0.0
C371 C 0.22301 0.23397 0.30763 0.0
C372 C 0.20214 0.24211 0.32469 0.0
C373 C 0.19057 0.26111 0.30728 0.0
C374 C 0.20503 0.2634 0.28074 0.0
N375 N 0.22476 0.24656 0.2799 0.0
Co376 Co 0.2516 0.24376 0.24701 0.0
N377 N 0.23714 0.27419 0.22349 0.0
C378 C 0.21708 0.28905 0.23169 0.0
C379 C 0.21104 0.30775 0.20988 0.0
C380 C 0.22786 0.30425 0.18608 0.0
C381 C 0.24325 0.28358 0.19487 0.0
N382 N 0.27837 0.24084 0.21402 0.0
C383 C 0.28024 0.25359 0.18638 0.0
C384 C 0.3009 0.24518 0.16915 0.0
C385 C 0.31221 0.22588 0.18632 0.0
C386 C 0.29781 0.22367 0.21291 0.0
N387 N 0.26616 0.21344 0.27071 0.0
C388 C 0.28632 0.19864 0.26266 0.0
C389 C 0.29268 0.18034 0.28481 0.0
C390 C 0.27603 0.18411 0.30873 0.0
C391 C 0.26041 0.20451 0.29964 0.0
N392 N 0.23112 0.223 0.22482 0.0
C393 C 0.20354 0.19583 0.18864 0.0
C394 C 0.22785 0.1878 0.19533 0.0
C395 C 0.2412 0.20156 0.21329 0.0
C396 C 0.193 0.21734 0.20086 0.0
C397 C 0.20697 0.23045 0.21896 0.0
N398 N 0.27214 0.2646 0.26892 0.0
C399 C 0.31184 0.27278 0.28703 0.0
C400 C 0.3018 0.29485 0.29837 0.0
C401 C 0.27652 0.30123 0.29545 0.0
C402 C 0.26212 0.28589 0.28086 0.0
C403 C 0.29681 0.25807 0.27252 0.0
H404 H 0.24298 0.29171 0.27943 0.0
H405 H 0.30561 0.24153 0.26442 0.0
H406 H 0.25977 0.19469 0.21701 0.0
H407 H 0.1979 0.24669 0.22758 0.0
C408 C 0.20252 0.28304 0.25817 0.0
C409 C 0.24231 0.21663 0.32016 0.0
C410 C 0.2614 0.27168 0.17423 0.0
C411 C 0.30056 0.20428 0.23579 0.0
H412 H 0.19671 0.23582 0.34791 0.0
H413 H 0.17444 0.27283 0.31394 0.0
H414 H 0.1954 0.3214 0.2105 0.0
H415 H 0.22804 0.31497 0.16424 0.0
H416 H 0.30645 0.25162 0.14602 0.0
H417 H 0.32825 0.21406 0.17959 0.0
H418 H 0.30841 0.1668 0.28432 0.0
H419 H 0.27613 0.17375 0.3308 0.0
H420 H 0.23677 0.17123 0.18617 0.0
H421 H 0.17401 0.22397 0.19664 0.0
H422 H 0.33124 0.26677 0.28941 0.0
H423 H 0.26791 0.31822 0.30381 0.0
C424 C 0.73248 0.30476 0.78446 0.0
C425 C 0.74437 0.32492 0.7927 0.0
C426 C 0.76782 0.32302 0.77971 0.0
C427 C 0.7689 0.30197 0.76425 0.0
N428 N 0.74751 0.2903 0.76647 0.0
Co429 Co 0.7409 0.25916 0.74735 0.0
N430 N 0.7755 0.25643 0.72824 0.0
C431 C 0.7938 0.27179 0.73094 0.0
C432 C 0.81558 0.26513 0.71544 0.0
C433 C 0.81093 0.24437 0.70176 0.0
C434 C 0.78638 0.23966 0.70958 0.0
N435 N 0.73424 0.22809 0.72812 0.0
C436 C 0.74888 0.21427 0.70899 0.0
C437 C 0.73654 0.19478 0.69964 0.0
C438 C 0.7134 0.19621 0.7135 0.0
C439 C 0.71281 0.21648 0.73026 0.0
N440 N 0.70631 0.26185 0.7665 0.0
C441 C 0.68826 0.24606 0.7646 0.0
C442 C 0.66669 0.25234 0.78077 0.0
C443 C 0.67115 0.27342 0.79385 0.0
C444 C 0.69528 0.27888 0.78469 0.0
N445 N 0.72945 0.27924 0.71041 0.0
C446 C 0.71661 0.30298 0.65347 0.0
C447 C 0.70077 0.28685 0.66989 0.0
C448 C 0.70758 0.27516 0.69795 0.0
C449 C 0.73808 0.30837 0.66728 0.0
C450 C 0.74387 0.29669 0.69568 0.0
N451 N 0.7524 0.23902 0.78433 0.0
C452 C 0.74475 0.20854 0.82642 0.0
C453 C 0.76624 0.2139 0.84023 0.0
C454 C 0.78139 0.23101 0.82449 0.0
C455 C 0.77407 0.2434 0.79705 0.0
C456 C 0.73847 0.22092 0.79854 0.0
H457 H 0.78606 0.25678 0.78695 0.0
H458 H 0.72191 0.21594 0.78934 0.0
H459 H 0.69514 0.26243 0.7087 0.0
H460 H 0.76055 0.3015 0.70478 0.0
C461 C 0.78976 0.29266 0.74769 0.0
C462 C 0.70689 0.30028 0.7942 0.0
C463 C 0.77423 0.2192 0.69844 0.0
C464 C 0.69216 0.22546 0.74743 0.0
H465 H 0.73686 0.3395 0.80667 0.0
H466 H 0.78238 0.33547 0.78138 0.0
H467 H 0.83273 0.27437 0.71406 0.0
H468 H 0.82411 0.23397 0.68749 0.0
H469 H 0.74338 0.18111 0.68406 0.0
H470 H 0.6986 0.18416 0.71121 0.0
H471 H 0.64978 0.24266 0.78289 0.0
H472 H 0.65812 0.28355 0.8086 0.0
H473 H 0.68347 0.28264 0.66084 0.0
H474 H 0.75112 0.32065 0.65576 0.0
H475 H 0.73218 0.19556 0.83747 0.0
H476 H 0.79866 0.23535 0.83352 0.0
C477 C 0.76958 0.69953 0.27395 0.0
C478 C 0.76086 0.6763 0.28207 0.0
C479 C 0.73594 0.6785 0.27811 0.0
C480 C 0.73092 0.70281 0.2678 0.0
N481 N 0.7512 0.71621 0.26437 0.0
Co482 Co 0.75221 0.75251 0.25132 0.0
N483 N 0.71537 0.75601 0.24686 0.0
C484 C 0.69928 0.73793 0.25167 0.0
C485 C 0.67531 0.74573 0.24529 0.0
C486 C 0.67617 0.77017 0.23527 0.0
C487 C 0.70073 0.77583 0.23614 0.0
N488 N 0.75311 0.789 0.23919 0.0
C489 C 0.73468 0.8058 0.23006 0.0
C490 C 0.74322 0.82927 0.2233 0.0
C491 C 0.76804 0.82716 0.22797 0.0
C492 C 0.77321 0.80265 0.23728 0.0
N493 N 0.78917 0.74884 0.25486 0.0
C494 C 0.80536 0.7667 0.24856 0.0
C495 C 0.82952 0.7587 0.25361 0.0
C496 C 0.82873 0.73434 0.26403 0.0
C497 C 0.80401 0.72885 0.26469 0.0
N498 N 0.75667 0.74516 0.20787 0.0
C499 C 0.75998 0.73772 0.14527 0.0
C500 C 0.77345 0.75555 0.15681 0.0
C501 C 0.77174 0.75875 0.18797 0.0
C502 C 0.74551 0.72303 0.1656 0.0
C503 C 0.74402 0.72713 0.19659 0.0
N504 N 0.74773 0.75993 0.29476 0.0
C505 C 0.76148 0.77924 0.33789 0.0
C506 C 0.7427 0.76914 0.35696 0.0
C507 C 0.72626 0.75458 0.34425 0.0
C508 C 0.72908 0.75026 0.31335 0.0
C509 C 0.76359 0.77449 0.30718 0.0
H510 H 0.71607 0.73889 0.30512 0.0
H511 H 0.77844 0.78258 0.29408 0.0
H512 H 0.78251 0.77262 0.19529 0.0
H513 H 0.73214 0.71581 0.21081 0.0
C514 C 0.70737 0.71367 0.26146 0.0
C515 C 0.79531 0.70498 0.27675 0.0
C516 C 0.70936 0.8 0.22541 0.0
C517 C 0.79702 0.79138 0.24115 0.0
H518 H 0.7714 0.6596 0.29043 0.0
H519 H 0.72297 0.66418 0.28265 0.0
H520 H 0.65923 0.73482 0.24713 0.0
H521 H 0.66059 0.78236 0.22765 0.0
H522 H 0.73275 0.846 0.21493 0.0
H523 H 0.78097 0.84155 0.22384 0.0
H524 H 0.84565 0.76955 0.25119 0.0
H525 H 0.84449 0.72224 0.27122 0.0
H526 H 0.78519 0.76708 0.14181 0.0
H527 H 0.73472 0.70902 0.15749 0.0
H528 H 0.77494 0.79033 0.34672 0.0
H529 H 0.71121 0.74657 0.35803 0.0
C530 C 0.76133 0.29785 0.20751 0.0
C531 C 0.74967 0.31826 0.19167 0.0
C532 C 0.72474 0.31593 0.19585 0.0
C533 C 0.72248 0.29437 0.21406 0.0
N534 N 0.74447 0.28281 0.22202 0.0
Co535 Co 0.7492 0.25062 0.24794 0.0
N536 N 0.71232 0.24746 0.25453 0.0
C537 C 0.69421 0.2637 0.24333 0.0
C538 C 0.67069 0.257 0.2515 0.0
C539 C 0.67386 0.23528 0.26927 0.0
C540 C 0.69927 0.22996 0.27112 0.0
N541 N 0.75393 0.21817 0.27335 0.0
C542 C 0.73709 0.2032 0.28805 0.0
C543 C 0.74881 0.18267 0.30361 0.0
C544 C 0.77372 0.18452 0.2984 0.0
C545 C 0.77593 0.20606 0.28017 0.0
N546 N 0.78606 0.25411 0.24203 0.0
C547 C 0.80417 0.23802 0.25352 0.0
C548 C 0.82769 0.24478 0.24551 0.0
C549 C 0.82454 0.26654 0.22781 0.0
C550 C 0.79913 0.27195 0.2261 0.0
N551 N 0.74856 0.26891 0.28525 0.0
C552 C 0.7447 0.29146 0.34102 0.0
C553 C 0.76424 0.27399 0.33456 0.0
C554 C 0.76566 0.2629 0.30695 0.0
C555 C 0.72792 0.29838 0.31824 0.0
C556 C 0.7304 0.28724 0.29063 0.0
N557 N 0.7498 0.23232 0.21051 0.0
C558 C 0.77177 0.20594 0.17465 0.0
C559 C 0.75277 0.21051 0.15415 0.0
C560 C 0.73163 0.22498 0.16335 0.0
C561 C 0.7307 0.23584 0.19107 0.0
C562 C 0.76971 0.21658 0.20264 0.0
H563 H 0.71444 0.24734 0.19589 0.0
H564 H 0.78475 0.21217 0.21718 0.0
H565 H 0.78052 0.2492 0.30392 0.0
H566 H 0.71706 0.29337 0.27429 0.0
C567 C 0.7 0.2848 0.22457 0.0
C568 C 0.78846 0.29383 0.20823 0.0
C569 C 0.70996 0.2079 0.2887 0.0
C570 C 0.79839 0.2161 0.27058 0.0
H571 H 0.75827 0.33337 0.1785 0.0
H572 H 0.70998 0.32852 0.18679 0.0
H573 H 0.65329 0.26671 0.24515 0.0
H574 H 0.65906 0.22453 0.27958 0.0
H575 H 0.74029 0.16801 0.31772 0.0
H576 H 0.7885 0.17192 0.30739 0.0
H577 H 0.84509 0.23483 0.25138 0.0
H578 H 0.83935 0.27701 0.21699 0.0
H579 H 0.77828 0.2685 0.35088 0.0
H580 H 0.71237 0.31173 0.32189 0.0
H581 H 0.7886 0.19489 0.16892 0.0
H582 H 0.71587 0.2284 0.14907 0.0
C583 C 0.72154 0.74883 0.8098 0.0
C584 C 0.70066 0.75776 0.82634 0.0
C585 C 0.68998 0.77711 0.8087 0.0
C586 C 0.70491 0.77897 0.78257 0.0
N587 N 0.72414 0.76151 0.78212 0.0
Co588 Co 0.75185 0.75866 0.75016 0.0
N589 N 0.73829 0.78933 0.72626 0.0
C590 C 0.71801 0.80421 0.73358 0.0
C591 C 0.71243 0.82276 0.71141 0.0
C592 C 0.72975 0.81907 0.68819 0.0
C593 C 0.74496 0.79847 0.69769 0.0
N594 N 0.77964 0.75592 0.71844 0.0
C595 C 0.78226 0.76864 0.69087 0.0
C596 C 0.80353 0.76041 0.67464 0.0
C597 C 0.81447 0.74123 0.69238 0.0
C598 C 0.79926 0.73892 0.71829 0.0
N599 N 0.76528 0.72788 0.77378 0.0
C600 C 0.78538 0.71284 0.76622 0.0
C601 C 0.79039 0.69368 0.78785 0.0
C602 C 0.77283 0.6971 0.8109 0.0
C603 C 0.75817 0.71824 0.80191 0.0
N604 N 0.73188 0.73832 0.72682 0.0
C605 C 0.70249 0.70779 0.69752 0.0
C606 C 0.72773 0.70142 0.70071 0.0
C607 C 0.74204 0.71697 0.71511 0.0
C608 C 0.69241 0.7301 0.70813 0.0
C609 C 0.70733 0.74497 0.72255 0.0
N610 N 0.77169 0.7788 0.77401 0.0
C611 C 0.80756 0.78177 0.80357 0.0
C612 C 0.79592 0.80203 0.81759 0.0
C613 C 0.77273 0.81149 0.80792 0.0
C614 C 0.76115 0.79981 0.7861 0.0
C615 C 0.79527 0.77065 0.78176 0.0
H616 H 0.74328 0.80761 0.78031 0.0
H617 H 0.8049 0.75503 0.77224 0.0
H618 H 0.76119 0.71124 0.7167 0.0
H619 H 0.69846 0.76158 0.73039 0.0
C620 C 0.70301 0.7985 0.75976 0.0
C621 C 0.73988 0.73023 0.82232 0.0
C622 C 0.76356 0.78637 0.67774 0.0
C623 C 0.80086 0.71901 0.74061 0.0
H624 H 0.69433 0.75174 0.84927 0.0
H625 H 0.67403 0.78924 0.81491 0.0
H626 H 0.6968 0.83643 0.7114 0.0
H627 H 0.73037 0.82962 0.66625 0.0
H628 H 0.80968 0.7668 0.6517 0.0
H629 H 0.83067 0.72939 0.68628 0.0
H630 H 0.80581 0.67977 0.78768 0.0
H631 H 0.77168 0.68616 0.83258 0.0
H632 H 0.73639 0.6845 0.69221 0.0
H633 H 0.67289 0.73575 0.70616 0.0
H634 H 0.8259 0.77429 0.80969 0.0
H635 H 0.76302 0.82728 0.81798 0.0
C636 C 0.46041 0.49895 0.55537 0.0
C637 C 0.43808 0.50961 0.56677 0.0
C638 C 0.43112 0.52874 0.54615 0.0
C639 C 0.44953 0.52857 0.52346 0.0
N640 N 0.46749 0.51009 0.52801 0.0
Co641 Co 0.49836 0.50337 0.50193 0.0
N642 N 0.49001 0.53333 0.47353 0.0
C643 C 0.47033 0.5501 0.47611 0.0
C644 C 0.46891 0.56774 0.45199 0.0
C645 C 0.48848 0.56153 0.43252 0.0
C646 C 0.50079 0.54042 0.44602 0.0
N647 N 0.52922 0.49664 0.47584 0.0
C648 C 0.5363 0.50778 0.44848 0.0
C649 C 0.55865 0.49715 0.4371 0.0
C650 C 0.56562 0.47803 0.45772 0.0
C651 C 0.54719 0.47818 0.48039 0.0
N652 N 0.50672 0.47341 0.53032 0.0
C653 C 0.52643 0.45668 0.52775 0.0
C654 C 0.52782 0.43897 0.55179 0.0
C655 C 0.50819 0.44508 0.5712 0.0
C656 C 0.49587 0.46622 0.55774 0.0
N657 N 0.48004 0.48293 0.47673 0.0
C658 C 0.45303 0.45336 0.44293 0.0
C659 C 0.4769 0.44534 0.45157 0.0
C660 C 0.48999 0.46033 0.46839 0.0
C661 C 0.44321 0.47669 0.45053 0.0
C662 C 0.45698 0.4911 0.46715 0.0
N663 N 0.51663 0.52378 0.52724 0.0
C664 C 0.5527 0.52951 0.55523 0.0
C665 C 0.54235 0.5524 0.56387 0.0
C666 C 0.51881 0.56061 0.55417 0.0
C667 C 0.5064 0.54615 0.53598 0.0
C668 C 0.53959 0.5156 0.53716 0.0
H669 H 0.48853 0.55343 0.52942 0.0
H670 H 0.54846 0.4983 0.53152 0.0
H671 H 0.50802 0.45315 0.47453 0.0
H672 H 0.4485 0.50873 0.47201 0.0
C673 C 0.45188 0.54692 0.49938 0.0
C674 C 0.47568 0.48043 0.57302 0.0
C675 C 0.52095 0.52616 0.43076 0.0
C676 C 0.54487 0.45985 0.50448 0.0
H677 H 0.42856 0.50478 0.58848 0.0
H678 H 0.41524 0.54196 0.54823 0.0
H679 H 0.45457 0.58251 0.4482 0.0
H680 H 0.49251 0.5709 0.41036 0.0
H681 H 0.56816 0.50197 0.41538 0.0
H682 H 0.58151 0.46482 0.45564 0.0
H683 H 0.54216 0.42419 0.55556 0.0
H684 H 0.50413 0.43562 0.59329 0.0
H685 H 0.48521 0.42733 0.44609 0.0
H686 H 0.42494 0.48383 0.44368 0.0
H687 H 0.57105 0.5225 0.56187 0.0
H688 H 0.50988 0.57809 0.56067 0.0
C689 C 0.95353 0.4883 0.0405 0.0
C690 C 0.93414 0.49961 0.05744 0.0
C691 C 0.93721 0.52449 0.05448 0.0
C692 C 0.95819 0.52706 0.03591 0.0
N693 N 0.96857 0.50538 0.02644 0.0
Co694 Co 1.00018 0.50116 0.00059 0.0
N695 N 0.00389 0.538 0.99482 0.0
C696 C 0.98779 0.55585 0.00569 0.0
C697 C 0.99445 0.5795 0.99764 0.0
C698 C 0.01594 0.57669 0.98017 0.0
C699 C 0.02121 0.55135 0.97843 0.0
N700 N 0.03263 0.49683 0.97636 0.0
C701 C 0.04791 0.51383 0.96263 0.0
C702 C 0.06858 0.50227 0.94826 0.0
C703 C 0.06648 0.47729 0.95331 0.0
C704 C 0.04468 0.47489 0.9703 0.0
N705 N 0.99553 0.46445 0.00443 0.0
C706 C 0.01076 0.44675 0.99181 0.0
C707 C 0.00314 0.42321 0.99796 0.0
C708 C 0.98169 0.42597 0.01554 0.0
C709 C 0.97738 0.45118 0.01917 0.0
N710 N 0.98162 0.50421 0.96278 0.0
C711 C 0.96012 0.51408 0.90614 0.0
C712 C 0.98008 0.49648 0.90974 0.0
C713 C 0.99026 0.49159 0.93818 0.0
C714 C 0.94988 0.5254 0.93169 0.0
C715 C 0.96092 0.52025 0.95971 0.0
N716 N 0.01885 0.49823 0.03856 0.0
C717 C 0.04232 0.47313 0.07649 0.0
C718 C 0.04162 0.49286 0.09521 0.0
C719 C 0.03043 0.51569 0.08417 0.0
C720 C 0.01902 0.51787 0.05632 0.0
C721 C 0.03131 0.47631 0.04834 0.0
H722 H 0.01018 0.53561 0.05003 0.0
H723 H 0.03278 0.46051 0.03529 0.0
H724 H 0.0056 0.4781 0.93948 0.0
H725 H 0.9529 0.53009 0.97827 0.0
C726 C 0.96759 0.54964 0.0252 0.0
C727 C 0.95655 0.46134 0.0382 0.0
C728 C 0.04321 0.54097 0.96153 0.0
C729 C 0.03347 0.45258 0.97739 0.0
H730 H 0.91918 0.49081 0.07045 0.0
H731 H 0.92536 0.53903 0.06435 0.0
H732 H 0.98501 0.59675 0.00411 0.0
H733 H 0.02665 0.59167 0.97016 0.0
H734 H 0.0834 0.5109 0.9348 0.0
H735 H 0.07887 0.46263 0.94457 0.0
H736 H 0.01253 0.40597 0.99139 0.0
H737 H 0.97087 0.41099 0.02531 0.0
H738 H 0.9882 0.48699 0.89047 0.0
H739 H 0.93427 0.53906 0.92973 0.0
H740 H 0.05061 0.45496 0.08375 0.0
H741 H 0.03005 0.5319 0.0971 0.0
C742 C 0.47798 0.55209 0.0056 0.0
C743 C 0.48301 0.57694 0.00136 0.0
C744 C 0.50731 0.57751 0.99139 0.0
C745 C 0.51572 0.5531 0.99023 0.0
N746 N 0.49811 0.53695 0.99828 0.0
Co747 Co 0.50256 0.49973 0.00199 0.0
N748 N 0.53897 0.50054 0.99073 0.0
C749 C 0.5521 0.52085 0.98445 0.0
C750 C 0.57656 0.51539 0.97613 0.0
C751 C 0.57911 0.49012 0.9765 0.0
C752 C 0.55595 0.48165 0.98507 0.0
N753 N 0.50701 0.46255 0.00586 0.0
C754 C 0.52717 0.44741 0.99872 0.0
C755 C 0.52236 0.42256 0.00357 0.0
C756 C 0.49808 0.42194 0.01362 0.0
C757 C 0.48951 0.44637 0.01432 0.0
N758 N 0.46616 0.49889 0.01309 0.0
C759 C 0.45299 0.47857 0.019 0.0
C760 C 0.42841 0.48402 0.02671 0.0
C761 C 0.42583 0.50929 0.02632 0.0
C762 C 0.44911 0.51776 0.01847 0.0
N763 N 0.49584 0.49887 0.95826 0.0
C764 C 0.48818 0.49589 0.89587 0.0
C765 C 0.4759 0.48089 0.91829 0.0
C766 C 0.48008 0.48257 0.94902 0.0
C767 C 0.50407 0.51269 0.90532 0.0
C768 C 0.50744 0.51399 0.93634 0.0
N769 N 0.50927 0.50062 0.04574 0.0
C770 C 0.49993 0.48792 0.09878 0.0
C771 C 0.51619 0.50439 0.10815 0.0
C772 C 0.52937 0.5185 0.08566 0.0
C773 C 0.52557 0.51642 0.05491 0.0
C774 C 0.49694 0.4862 0.06776 0.0
H775 H 0.53585 0.52802 0.03904 0.0
H776 H 0.48423 0.47337 0.06222 0.0
H777 H 0.47048 0.47032 0.96481 0.0
H778 H 0.51979 0.52714 0.94195 0.0
C779 C 0.54045 0.54476 0.98429 0.0
C780 C 0.4545 0.54366 0.01887 0.0
C781 C 0.55051 0.45575 0.98513 0.0
C782 C 0.4647 0.45465 0.01976 0.0
H783 H 0.47067 0.59297 0.00595 0.0
H784 H 0.51786 0.59375 0.98679 0.0
H785 H 0.59061 0.52829 0.96945 0.0
H786 H 0.59587 0.47916 0.97019 0.0
H787 H 0.53492 0.40659 0.99928 0.0
H788 H 0.48762 0.40567 0.01853 0.0
H789 H 0.4143 0.47112 0.03307 0.0
H790 H 0.40897 0.52026 0.03222 0.0
H791 H 0.46303 0.46789 0.91227 0.0
H792 H 0.51432 0.52452 0.88891 0.0
H793 H 0.48904 0.47673 0.11524 0.0
H794 H 0.54259 0.53117 0.09166 0.0
C795 C 0.9529 0.51071 0.46584 0.0
C796 C 0.93184 0.49958 0.45871 0.0
C797 C 0.93333 0.47618 0.47279 0.0
C798 C 0.95511 0.47435 0.4876 0.0
N799 N 0.96769 0.49517 0.48385 0.0
Co800 Co 1.00022 0.50059 0.50134 0.0
N801 N 0.00233 0.4661 0.52208 0.0
C802 C 0.98579 0.44859 0.52129 0.0
C803 C 0.99233 0.42666 0.53755 0.0
C804 C 0.01439 0.43032 0.5495 0.0
C805 C 0.02 0.45442 0.53984 0.0
N806 N 0.03269 0.50607 0.51893 0.0
C807 C 0.04745 0.49056 0.53701 0.0
C808 C 0.06832 0.50184 0.5445 0.0
C809 C 0.06677 0.52527 0.53056 0.0
C810 C 0.04512 0.527 0.5155 0.0
N811 N 0.99818 0.53504 0.48046 0.0
C812 C 0.01482 0.5525 0.48105 0.0
C813 C 0.00842 0.57432 0.4645 0.0
C814 C 0.98637 0.57066 0.45255 0.0
C815 C 0.98061 0.54667 0.46254 0.0
N816 N 0.98226 0.51314 0.53812 0.0
C817 C 0.96014 0.52872 0.59344 0.0
C818 C 0.97717 0.54301 0.57626 0.0
C819 C 0.98799 0.53488 0.54905 0.0
C820 C 0.95329 0.50722 0.58149 0.0
C821 C 0.96432 0.49997 0.55387 0.0
N822 N 0.01819 0.48804 0.46458 0.0
C823 C 0.04804 0.49381 0.4222 0.0
C824 C 0.0411 0.47264 0.40952 0.0
C825 C 0.02331 0.45866 0.42581 0.0
C826 C 0.01208 0.46671 0.45292 0.0
C827 C 0.03668 0.5009 0.44963 0.0
H828 H 0.99824 0.45557 0.46374 0.0
H829 H 0.04281 0.51721 0.45787 0.0
H830 H 0.00129 0.54631 0.53762 0.0
H831 H 0.95843 0.48334 0.54613 0.0
C832 C 0.96425 0.45333 0.50506 0.0
C833 C 0.95807 0.53596 0.45469 0.0
C834 C 0.04245 0.46519 0.54787 0.0
C835 C 0.03616 0.54792 0.4977 0.0
H836 H 0.91699 0.50755 0.4447 0.0
H837 H 0.92012 0.46215 0.47225 0.0
H838 H 0.98228 0.40999 0.54033 0.0
H839 H 0.02518 0.41674 0.56365 0.0
H840 H 0.08312 0.49393 0.55864 0.0
H841 H 0.07987 0.53938 0.53129 0.0
H842 H 0.01853 0.59096 0.46159 0.0
H843 H 0.97567 0.58417 0.4382 0.0
H844 H 0.98261 0.56021 0.58402 0.0
H845 H 0.94022 0.49542 0.59386 0.0
H846 H 0.06151 0.50555 0.41056 0.0
H847 H 0.01765 0.44176 0.41748 0.0
C848 C 0.01501 0.9779 0.13558 0.0
C849 C 1.00013 0.99489 0.11673 0.0
C850 C 0.01597 0.9796 0.16742 0.0
C851 C 0.98333 0.01239 0.23331 0.0
H852 H 0.03889 0.98225 0.2782 0.0
C853 C 0.99056 0.02356 0.36458 0.0
C854 C 0.00148 0.00372 0.38313 0.0
C855 C 0.99094 0.02308 0.33244 0.0
C856 C 0.02298 0.99057 0.26631 0.0
H857 H 0.98297 0.03258 0.11823 0.0
H858 H 0.98329 0.03491 0.17256 0.0
H859 H 0.03956 0.98109 0.223 0.0
H860 H 0.02132 0.96768 0.38181 0.0
H861 H 0.02194 0.96663 0.32618 0.0
H862 H 0.96684 0.02199 0.27673 0.0
C863 C 0.99155 0.01822 0.16309 0.0
C864 C 0.02334 0.98988 0.2342 0.0
C865 C 0.99063 0.01638 0.13124 0.0
C866 C 0.01279 0.98335 0.36838 0.0
C867 C 0.01327 0.98288 0.33624 0.0
C868 C 0.98301 0.01315 0.26542 0.0
C869 C 0.00346 0.99937 0.18221 0.0
C870 C 0.00347 0.00067 0.21687 0.0
C871 C 0.00234 0.00273 0.31747 0.0
C872 C 0.00278 0.00217 0.28273 0.0
H873 H 0.02705 0.96345 0.12648 0.0
H874 H 0.0266 0.96508 0.18037 0.0
H875 H 0.96736 0.02063 0.22147 0.0
H876 H 0.98163 0.03955 0.37501 0.0
H877 H 0.98253 0.03896 0.3193 0.0
C878 C 0.3014 0.7045 0.39997 0.0
C879 C 0.29145 0.68897 0.38027 0.0
C880 C 0.30188 0.69784 0.43123 0.0
C881 C 0.30694 0.67437 0.49664 0.0
H882 H 0.23923 0.66944 0.52933 0.0
C883 C 0.27749 0.67651 0.62556 0.0
C884 C 0.26174 0.69794 0.63018 0.0
C885 C 0.28217 0.6684 0.59629 0.0
C886 C 0.25828 0.67027 0.52053 0.0
H887 H 0.27626 0.65311 0.37806 0.0
H888 H 0.27593 0.64224 0.43304 0.0
H889 H 0.2486 0.6668 0.47461 0.0
H890 H 0.23824 0.72719 0.60715 0.0
H891 H 0.24547 0.7122 0.55675 0.0
H892 H 0.31636 0.6789 0.54249 0.0
C893 C 0.28343 0.65949 0.42396 0.0
C894 C 0.26367 0.66864 0.48935 0.0
C895 C 0.28341 0.66589 0.39254 0.0
C896 C 0.25 0.71033 0.60491 0.0
C897 C 0.25423 0.70186 0.57588 0.0
C898 C 0.30162 0.6755 0.52795 0.0
C899 C 0.29209 0.67572 0.4436 0.0
C900 C 0.28786 0.67163 0.477 0.0
C901 C 0.27067 0.68113 0.57126 0.0
C902 C 0.27709 0.67441 0.53987 0.0
H903 H 0.30742 0.72256 0.39169 0.0
H904 H 0.30836 0.71084 0.44599 0.0
H905 H 0.32571 0.67676 0.48756 0.0
H906 H 0.28647 0.6661 0.64444 0.0
H907 H 0.2949 0.65231 0.59313 0.0
C908 C 0.5354 0.9576 0.85623 0.0
C909 C 0.55162 0.96726 0.87544 0.0
C910 C 0.54275 0.95362 0.82612 0.0
C911 C 0.5823 0.97851 0.76388 0.0
H912 H 0.5572 0.92537 0.72292 0.0
C913 C 0.57564 0.98169 0.63226 0.0
C914 C 0.55095 0.97966 0.62497 0.0
C915 C 0.58297 0.97531 0.66211 0.0
C916 C 0.56466 0.94014 0.73407 0.0
H917 H 0.58879 0.97935 0.87817 0.0
H918 H 0.60142 0.97292 0.82496 0.0
H919 H 0.55762 0.92231 0.77854 0.0
H920 H 0.51488 0.96842 0.64219 0.0
H921 H 0.52765 0.95698 0.69398 0.0
H922 H 0.58806 0.9969 0.71933 0.0
C923 C 0.583 0.96842 0.83351 0.0
C924 C 0.56484 0.93843 0.76584 0.0
C925 C 0.5757 0.97222 0.86389 0.0
C926 C 0.53398 0.9703 0.64744 0.0
C927 C 0.54136 0.96353 0.67693 0.0
C928 C 0.58222 0.98016 0.732 0.0
C929 C 0.56645 0.95936 0.81424 0.0
C930 C 0.57245 0.95817 0.78111 0.0
C931 C 0.56581 0.96625 0.68469 0.0
C932 C 0.57222 0.96154 0.71698 0.0
H933 H 0.51654 0.9541 0.86397 0.0
H934 H 0.52933 0.94719 0.81169 0.0
H935 H 0.5882 0.99405 0.775 0.0
H936 H 0.58899 0.98887 0.61515 0.0
H937 H 0.6019 0.97765 0.66764 0.0
C938 C 0.23345 0.24648 0.90532 0.0
C939 C 0.23865 0.26722 0.88527 0.0
C940 C 0.23345 0.24785 0.93682 0.0
C941 C 0.23213 0.29176 0.99742 0.0
H942 H 0.26367 0.23496 0.04331 0.0
C943 C 0.26198 0.29322 0.12173 0.0
C944 C 0.25661 0.27248 0.14147 0.0
C945 C 0.258 0.29332 0.09061 0.0
C946 C 0.25458 0.25085 0.03085 0.0
H947 H 0.24695 0.30596 0.88273 0.0
H948 H 0.24783 0.30807 0.93775 0.0
H949 H 0.25967 0.23386 0.98867 0.0
H950 H 0.2428 0.2358 0.14504 0.0
H951 H 0.23593 0.23582 0.09053 0.0
H952 H 0.22763 0.30889 0.0398 0.0
C953 C 0.24342 0.29084 0.92908 0.0
C954 C 0.2522 0.25021 0.99956 0.0
C955 C 0.24323 0.28954 0.89752 0.0
C956 C 0.24711 0.25192 0.12996 0.0
C957 C 0.24327 0.25193 0.0989 0.0
C958 C 0.23468 0.29246 0.02877 0.0
C959 C 0.23889 0.26989 0.94906 0.0
C960 C 0.24091 0.27062 0.98247 0.0
C961 C 0.24884 0.27256 0.07889 0.0
C962 C 0.24589 0.27198 0.04575 0.0
H963 H 0.23011 0.22891 0.89672 0.0
H964 H 0.22948 0.23148 0.95159 0.0
H965 H 0.22309 0.30767 0.98497 0.0
H966 H 0.26949 0.30914 0.13036 0.0
H967 H 0.26267 0.30934 0.0756 0.0
C968 C 0.9987 0.02119 0.63085 0.0
C969 C 0.00559 0.99948 0.61594 0.0
C970 C 0.99879 0.02139 0.66299 0.0
C971 C 0.01822 0.98101 0.73528 0.0
H972 H 0.98077 0.03353 0.77599 0.0
C973 C 0.99953 0.97816 0.86897 0.0
C974 C 0.00336 0.99983 0.88341 0.0
C975 C 1.00016 0.97808 0.83678 0.0
C976 C 0.99147 0.01873 0.76508 0.0
H977 H 0.0181 0.96081 0.62414 0.0
H978 H 0.0167 0.96045 0.67947 0.0
H979 H 0.98042 0.03319 0.72082 0.0
H980 H 0.01118 0.03843 0.87428 0.0
H981 H 0.01107 0.03863 0.81844 0.0
H982 H 0.02816 0.96611 0.78024 0.0
C983 C 0.01199 0.9779 0.66673 0.0
C984 C 0.99148 0.01855 0.73292 0.0
C985 C 0.01246 0.97791 0.63454 0.0
C986 C 0.00772 0.02146 0.86429 0.0
C987 C 0.00772 0.02155 0.83211 0.0
C988 C 0.01767 0.9809 0.76749 0.0
C989 C 0.00526 0.99968 0.68196 0.0
C990 C 0.00499 0.99975 0.717 0.0
C991 C 0.00409 0.99983 0.81768 0.0
C992 C 0.00442 0.99982 0.78305 0.0
H993 H 0.99328 0.03824 0.61753 0.0
H994 H 0.99397 0.0389 0.67267 0.0
H995 H 0.02948 0.96634 0.72494 0.0
H996 H 0.99601 0.96113 0.88267 0.0
H997 H 0.99712 0.96099 0.82682 0.0
C998 C 0.73018 0.32532 0.37552 0.0
C999 C 0.74106 0.30121 0.37178 0.0
C1000 C 0.72521 0.33353 0.40472 0.0
C1001 C 0.74426 0.32998 0.48039 0.0
H1002 H 0.67713 0.3235 0.51444 0.0
C1003 C 0.70167 0.29671 0.60178 0.0
C1004 C 0.71217 0.31208 0.62121 0.0
C1005 C 0.70102 0.30325 0.57052 0.0
C1006 C 0.69582 0.3259 0.50506 0.0
H1007 H 0.75517 0.26701 0.39629 0.0
H1008 H 0.74758 0.28193 0.44679 0.0
H1009 H 0.68608 0.32061 0.4595 0.0
H1010 H 0.72829 0.34753 0.62292 0.0
H1011 H 0.72824 0.35822 0.5679 0.0
H1012 H 0.75437 0.33401 0.52599 0.0
C1013 C 0.74288 0.29427 0.42698 0.0
C1014 C 0.70088 0.32434 0.47377 0.0
C1015 C 0.7474 0.28586 0.39798 0.0
C1016 C 0.72067 0.33489 0.60865 0.0
C1017 C 0.72044 0.34118 0.57721 0.0
C1018 C 0.73915 0.33197 0.51156 0.0
C1019 C 0.73152 0.31798 0.43054 0.0
C1020 C 0.72528 0.32551 0.46152 0.0
C1021 C 0.71117 0.32509 0.55783 0.0
C1022 C 0.71507 0.32897 0.52433 0.0
H1023 H 0.72539 0.33785 0.35597 0.0
H1024 H 0.7164 0.35192 0.40718 0.0
H1025 H 0.76324 0.33065 0.47127 0.0
H1026 H 0.69531 0.27883 0.61026 0.0
H1027 H 0.69408 0.29033 0.556 0.0
C1028 C 0.46757 0.04262 0.14291 0.0
C1029 C 0.45187 0.03354 0.12254 0.0
C1030 C 0.45994 0.04451 0.17347 0.0
C1031 C 0.43497 0.05354 0.23612 0.0
H1032 H 0.42175 0.98813 0.27351 0.0
C1033 C 0.43057 0.02834 0.36719 0.0
C1034 C 0.44999 0.01047 0.37482 0.0
C1035 C 0.42365 0.03292 0.33695 0.0
C1036 C 0.42489 0.00661 0.26333 0.0
H1037 H 0.41491 0.02132 0.11812 0.0
H1038 H 0.40218 0.02349 0.172 0.0
H1039 H 0.42202 0.99593 0.21796 0.0
H1040 H 0.4769 0.98315 0.35613 0.0
H1041 H 0.46388 0.99032 0.30413 0.0
H1042 H 0.43894 0.06382 0.28156 0.0
C1043 C 0.42034 0.02921 0.164 0.0
C1044 C 0.42494 0.01111 0.23165 0.0
C1045 C 0.42778 0.02775 0.13324 0.0
C1046 C 0.46149 0.99661 0.35159 0.0
C1047 C 0.45417 0.00079 0.32164 0.0
C1048 C 0.43446 0.04915 0.26788 0.0
C1049 C 0.4366 0.03704 0.18447 0.0
C1050 C 0.43093 0.03432 0.21774 0.0
C1051 C 0.43554 0.01926 0.31398 0.0
C1052 C 0.43038 0.02538 0.28158 0.0
H1053 H 0.48636 0.04691 0.13583 0.0
H1054 H 0.47297 0.05029 0.18892 0.0
H1055 H 0.43964 0.07157 0.22584 0.0
H1056 H 0.42088 0.03905 0.38442 0.0
H1057 H 0.4092 0.04725 0.33144 0.0
C1058 C 0.76439 0.71197 0.10026 0.0
C1059 C 0.76022 0.73529 0.11207 0.0
C1060 C 0.76439 0.7099 0.0688 0.0
C1061 C 0.76786 0.74786 0.99435 0.0
H1062 H 0.73933 0.69138 0.96449 0.0
C1063 C 0.7655 0.73724 0.86572 0.0
C1064 C 0.74407 0.72821 0.8554 0.0
C1065 C 0.76945 0.73614 0.89688 0.0
C1066 C 0.74716 0.7074 0.97242 0.0
H1067 H 0.75219 0.77461 0.10068 0.0
H1068 H 0.75127 0.77102 0.04602 0.0
H1069 H 0.74179 0.69389 0.01912 0.0
H1070 H 0.71048 0.71002 0.86885 0.0
H1071 H 0.71653 0.70919 0.92354 0.0
H1072 H 0.77186 0.76215 0.94788 0.0
C1073 C 0.75546 0.75438 0.06069 0.0
C1074 C 0.74894 0.70865 0.0038 0.0
C1075 C 0.75585 0.75646 0.09203 0.0
C1076 C 0.72692 0.71746 0.87652 0.0
C1077 C 0.73063 0.7167 0.90775 0.0
C1078 C 0.76574 0.7468 0.96304 0.0
C1079 C 0.75982 0.73109 0.04862 0.0
C1080 C 0.7591 0.72902 0.01518 0.0
C1081 C 0.75186 0.72623 0.91836 0.0
C1082 C 0.75518 0.72666 0.95165 0.0
H1083 H 0.76797 0.69541 0.11533 0.0
H1084 H 0.76818 0.69173 0.06032 0.0
H1085 H 0.77624 0.7636 0.00219 0.0
H1086 H 0.77909 0.74538 0.84965 0.0
H1087 H 0.78628 0.74314 0.90406 0.0
C1088 C 0.46743 0.46085 0.62587 0.0
C1089 C 0.4749 0.48111 0.60657 0.0
C1090 C 0.4672 0.46176 0.65753 0.0
C1091 C 0.46253 0.5046 0.71761 0.0
H1092 H 0.49881 0.45225 0.76574 0.0
C1093 C 0.48449 0.51495 0.84218 0.0
C1094 C 0.48471 0.49379 0.86293 0.0
C1095 C 0.48188 0.51287 0.81113 0.0
C1096 C 0.48819 0.46681 0.75279 0.0
H1097 H 0.48731 0.51835 0.60454 0.0
H1098 H 0.48639 0.52021 0.66 0.0
H1099 H 0.49604 0.44932 0.71104 0.0
H1100 H 0.48235 0.45379 0.86711 0.0
H1101 H 0.47657 0.45036 0.8133 0.0
H1102 H 0.45426 0.52198 0.75917 0.0
C1103 C 0.48093 0.50359 0.65075 0.0
C1104 C 0.48671 0.46513 0.72146 0.0
C1105 C 0.48152 0.50252 0.61918 0.0
C1106 C 0.48192 0.47055 0.8519 0.0
C1107 C 0.47899 0.46852 0.8209 0.0
C1108 C 0.46369 0.50612 0.749 0.0
C1109 C 0.47393 0.48316 0.67018 0.0
C1110 C 0.47414 0.48416 0.70358 0.0
C1111 C 0.47911 0.48963 0.80009 0.0
C1112 C 0.47681 0.4874 0.76693 0.0
H1113 H 0.46185 0.44436 0.61644 0.0
H1114 H 0.46154 0.44587 0.67213 0.0
H1115 H 0.4525 0.51938 0.70427 0.0
H1116 H 0.48624 0.5332 0.84988 0.0
H1117 H 0.48243 0.5295 0.79575 0.0
C1118 C 0.76413 0.17979 0.88285 0.0
C1119 C 0.77165 0.20336 0.87173 0.0
C1120 C 0.76595 0.17169 0.91371 0.0
C1121 C 0.75054 0.17657 0.98153 0.0
H1122 H 0.80635 0.18575 0.03034 0.0
C1123 C 0.74456 0.21588 0.09828 0.0
C1124 C 0.75543 0.20156 0.12287 0.0
C1125 C 0.74771 0.20836 0.06873 0.0
C1126 C 0.7908 0.18257 0.01697 0.0
H1127 H 0.78818 0.23622 0.88458 0.0
H1128 H 0.79218 0.2216 0.93767 0.0
H1129 H 0.81233 0.18604 0.97464 0.0
H1130 H 0.77798 0.16766 0.13514 0.0
H1131 H 0.78465 0.15543 0.08278 0.0
H1132 H 0.72858 0.17536 0.02361 0.0
C1133 C 0.78484 0.20947 0.92248 0.0
C1134 C 0.79418 0.18283 0.98523 0.0
C1135 C 0.78258 0.2178 0.89188 0.0
C1136 C 0.76961 0.17942 0.11687 0.0
C1137 C 0.77327 0.17222 0.08701 0.0
C1138 C 0.74708 0.17677 0.01317 0.0
C1139 C 0.77587 0.18671 0.93386 0.0
C1140 C 0.77389 0.18065 0.96721 0.0
C1141 C 0.76228 0.18667 0.06283 0.0
C1142 C 0.76703 0.18055 0.03096 0.0
H1143 H 0.7562 0.16784 0.86797 0.0
H1144 H 0.75898 0.154 0.92201 0.0
H1145 H 0.73455 0.17513 0.96811 0.0
H1146 H 0.73417 0.23339 0.10152 0.0
H1147 H 0.73946 0.22 0.05022 0.0
C1148 C 0.07089 0.47182 0.13382 0.0
C1149 C 0.05104 0.48932 0.12661 0.0
C1150 C 0.07802 0.46709 0.16395 0.0
C1151 C 0.07708 0.49293 0.23761 0.0
H1152 H 0.06286 0.42792 0.2754 0.0
C1153 C 0.03512 0.45717 0.35833 0.0
C1154 C 0.05078 0.46659 0.37847 0.0
C1155 C 0.04272 0.45503 0.32781 0.0
C1156 C 0.0674 0.44596 0.26503 0.0
H1157 H 0.0235 0.51569 0.146 0.0
H1158 H 0.03689 0.50831 0.19781 0.0
H1159 H 0.06308 0.43562 0.21968 0.0
H1160 H 0.08766 0.4791 0.38259 0.0
H1161 H 0.10034 0.47649 0.32876 0.0
H1162 H 0.08027 0.50368 0.28288 0.0
C1163 C 0.04677 0.49827 0.18004 0.0
C1164 C 0.06763 0.45032 0.23328 0.0
C1165 C 0.03924 0.50258 0.15019 0.0
C1166 C 0.07482 0.47241 0.36762 0.0
C1167 C 0.08223 0.4707 0.3369 0.0
C1168 C 0.07731 0.48846 0.26927 0.0
C1169 C 0.06591 0.48024 0.18724 0.0
C1170 C 0.0715 0.47411 0.2195 0.0
C1171 C 0.06598 0.46258 0.31661 0.0
C1172 C 0.0715 0.46523 0.2833 0.0
H1173 H 0.0808 0.46156 0.11631 0.0
H1174 H 0.09285 0.45308 0.16913 0.0
H1175 H 0.08004 0.51142 0.22736 0.0
H1176 H 0.01637 0.45282 0.36553 0.0
H1177 H 0.0297 0.44903 0.3125 0.0
C1178 C 0.76452 0.80746 0.62493 0.0
C1179 C 0.75947 0.7867 0.64477 0.0
C1180 C 0.76065 0.80737 0.59379 0.0
C1181 C 0.728 0.77468 0.53857 0.0
H1182 H 0.77713 0.80167 0.48008 0.0
C1183 C 0.73565 0.75357 0.4118 0.0
C1184 C 0.74093 0.77316 0.38999 0.0
C1185 C 0.73572 0.75687 0.44294 0.0
C1186 C 0.76307 0.79437 0.49613 0.0
H1187 H 0.7468 0.74955 0.64835 0.0
H1188 H 0.74054 0.74902 0.59385 0.0
H1189 H 0.78177 0.80433 0.53445 0.0
H1190 H 0.74929 0.81188 0.38382 0.0
H1191 H 0.74967 0.81751 0.43823 0.0
H1192 H 0.70965 0.7642 0.50013 0.0
C1193 C 0.74691 0.76561 0.60217 0.0
C1194 C 0.76571 0.79592 0.52728 0.0
C1195 C 0.75068 0.76579 0.63325 0.0
C1196 C 0.74562 0.79629 0.40004 0.0
C1197 C 0.7458 0.79954 0.43117 0.0
C1198 C 0.72543 0.77302 0.50741 0.0
C1199 C 0.75184 0.7864 0.58205 0.0
C1200 C 0.74833 0.78589 0.54889 0.0
C1201 C 0.74115 0.77978 0.45293 0.0
C1202 C 0.74305 0.78268 0.48589 0.0
H1203 H 0.77145 0.82369 0.63353 0.0
H1204 H 0.76441 0.82375 0.57895 0.0
H1205 H 0.71404 0.76717 0.55459 0.0
H1206 H 0.7323 0.73543 0.40484 0.0
H1207 H 0.73236 0.74121 0.4592 0.0
C1208 C 0.52202 0.53064 0.15139 0.0
C1209 C 0.51899 0.50719 0.14108 0.0
C1210 C 0.52406 0.53339 0.1824 0.0
C1211 C 0.53636 0.49732 0.2562 0.0
H1212 H 0.50352 0.55548 0.29072 0.0
C1213 C 0.51521 0.50366 0.38491 0.0
C1214 C 0.52167 0.52525 0.39723 0.0
C1215 C 0.51636 0.5021 0.35341 0.0
C1216 C 0.51298 0.53929 0.28127 0.0
H1217 H 0.51621 0.46814 0.15541 0.0
H1218 H 0.51857 0.47311 0.2095 0.0
H1219 H 0.5026 0.55134 0.23601 0.0
H1220 H 0.53484 0.56191 0.38691 0.0
H1221 H 0.53617 0.55952 0.3313 0.0
H1222 H 0.54588 0.48495 0.30182 0.0
C1223 C 0.51993 0.48934 0.19358 0.0
C1224 C 0.51256 0.53692 0.24995 0.0
C1225 C 0.51818 0.48654 0.16254 0.0
C1226 C 0.52937 0.54528 0.3777 0.0
C1227 C 0.53019 0.54387 0.34608 0.0
C1228 C 0.53648 0.49956 0.28755 0.0
C1229 C 0.52284 0.51281 0.20391 0.0
C1230 C 0.52411 0.51582 0.23705 0.0
C1231 C 0.5238 0.5222 0.33372 0.0
C1232 C 0.52466 0.52048 0.30036 0.0
H1233 H 0.52239 0.54703 0.13558 0.0
H1234 H 0.52662 0.55169 0.18947 0.0
H1235 H 0.54591 0.48109 0.247 0.0
H1236 H 0.50925 0.488 0.39974 0.0
H1237 H 0.51112 0.48529 0.3444 0.0
C1238 C 0.22048 0.77783 0.10872 0.0
C1239 C 0.23095 0.79335 0.12791 0.0
C1240 C 0.21625 0.78579 0.07846 0.0
C1241 C 0.24066 0.82555 0.01563 0.0
H1242 H 0.18445 0.80421 0.97588 0.0
C1243 C 0.23857 0.8226 0.88417 0.0
C1244 C 0.23486 0.79843 0.87685 0.0
C1245 C 0.23359 0.82931 0.9141 0.0
C1246 C 0.20009 0.8106 0.98668 0.0
H1247 H 0.24459 0.82984 0.13027 0.0
H1248 H 0.23774 0.84354 0.07676 0.0
H1249 H 0.18365 0.80316 0.03148 0.0
H1250 H 0.22216 0.76272 0.89403 0.0
H1251 H 0.2131 0.77444 0.94597 0.0
H1252 H 0.25763 0.83169 0.97075 0.0
C1253 C 0.23273 0.82521 0.0855 0.0
C1254 C 0.19967 0.80995 0.01844 0.0
C1255 C 0.23676 0.81729 0.11605 0.0
C1256 C 0.22521 0.78143 0.89931 0.0
C1257 C 0.21985 0.78822 0.92889 0.0
C1258 C 0.24104 0.82628 0.98376 0.0
C1259 C 0.22257 0.80943 0.06638 0.0
C1260 C 0.22045 0.81622 0.03327 0.0
C1261 C 0.22432 0.81208 0.93674 0.0
C1262 C 0.22125 0.81765 0.96914 0.0
H1263 H 0.21637 0.75905 0.11666 0.0
H1264 H 0.209 0.77294 0.06413 0.0
H1265 H 0.25697 0.83042 0.02643 0.0
H1266 H 0.24604 0.83592 0.86705 0.0
H1267 H 0.23725 0.84778 0.91967 0.0
C1268 C 0.96901 0.53092 0.85294 0.0
C1269 C 0.95173 0.52206 0.87534 0.0
C1270 C 0.96185 0.53781 0.82338 0.0
C1271 C 0.92068 0.52225 0.76806 0.0
H1272 H 0.94639 0.57967 0.72176 0.0
C1273 C 0.92713 0.53045 0.6362 0.0
C1274 C 0.95126 0.53512 0.62459 0.0
C1275 C 0.91997 0.53426 0.66661 0.0
C1276 C 0.93887 0.56367 0.73439 0.0
H1277 H 0.91339 0.51383 0.88497 0.0
H1278 H 0.90087 0.52524 0.83236 0.0
H1279 H 0.94683 0.5764 0.77738 0.0
H1280 H 0.98658 0.5478 0.63595 0.0
H1281 H 0.97406 0.5547 0.6883 0.0
H1282 H 0.91438 0.50865 0.72499 0.0
C1283 C 0.91986 0.5271 0.83799 0.0
C1284 C 0.93907 0.56185 0.76617 0.0
C1285 C 0.92697 0.52061 0.86791 0.0
C1286 C 0.96768 0.54453 0.64375 0.0
C1287 C 0.96049 0.5485 0.67391 0.0
C1288 C 0.92061 0.52401 0.73618 0.0
C1289 C 0.93732 0.5357 0.81549 0.0
C1290 C 0.93106 0.54059 0.78317 0.0
C1291 C 0.93673 0.54303 0.68586 0.0
C1292 C 0.93084 0.54418 0.71903 0.0
H1293 H 0.98816 0.53234 0.85829 0.0
H1294 H 0.97578 0.54399 0.80637 0.0
H1295 H 0.91449 0.50562 0.78067 0.0
H1296 H 0.9139 0.52352 0.62195 0.0
H1297 H 0.9015 0.52999 0.67521 0.0
C1298 C 0.24348 0.19665 0.37346 0.0
C1299 C 0.24755 0.21711 0.35268 0.0
C1300 C 0.24779 0.1978 0.40433 0.0
C1301 C 0.24975 0.24259 0.46179 0.0
H1302 H 0.28461 0.18866 0.50903 0.0
C1303 C 0.27138 0.2517 0.58636 0.0
C1304 C 0.26746 0.2311 0.60716 0.0
C1305 C 0.27132 0.24952 0.555 0.0
C1306 C 0.27463 0.20377 0.49621 0.0
H1307 H 0.25931 0.25462 0.34706 0.0
H1308 H 0.26672 0.25679 0.40111 0.0
H1309 H 0.2795 0.18549 0.45466 0.0
H1310 H 0.26149 0.19175 0.61119 0.0
H1311 H 0.26048 0.18815 0.5565 0.0
H1312 H 0.24428 0.26069 0.50318 0.0
C1313 C 0.26018 0.23991 0.39373 0.0
C1314 C 0.27175 0.20195 0.46512 0.0
C1315 C 0.25604 0.23868 0.36292 0.0
C1316 C 0.26418 0.20808 0.59581 0.0
C1317 C 0.26393 0.20594 0.56442 0.0
C1318 C 0.25246 0.24434 0.49284 0.0
C1319 C 0.25596 0.21954 0.41477 0.0
C1320 C 0.25929 0.22137 0.44764 0.0
C1321 C 0.26712 0.22673 0.54367 0.0
C1322 C 0.26494 0.22497 0.51044 0.0
H1323 H 0.23668 0.17997 0.36587 0.0
H1324 H 0.24413 0.18194 0.42015 0.0
H1325 H 0.23972 0.25767 0.44895 0.0
H1326 H 0.27374 0.26977 0.59427 0.0
H1327 H 0.27425 0.26581 0.53962 0.0
C1328 C 0.093 0.05467 0.05365 0.0
C1329 C 0.07832 0.06484 0.02971 0.0
C1330 C 0.10753 0.06962 0.06849 0.0
C1331 C 0.13498 0.13016 0.06396 0.0
H1332 H 0.13172 0.11851 0.15223 0.0
C1333 C 0.17549 0.19408 0.14559 0.0
C1334 C 0.18928 0.18174 0.16914 0.0
C1335 C 0.1621 0.18064 0.12714 0.0
C1336 C 0.13296 0.12184 0.1276 0.0
H1337 H 0.0684 0.09852 0.00159 0.0
H1338 H 0.09345 0.12491 0.02823 0.0
H1339 H 0.10864 0.09348 0.12181 0.0
H1340 H 0.19989 0.14587 0.19201 0.0
H1341 H 0.17657 0.12238 0.15975 0.0
H1342 H 0.15927 0.15875 0.07005 0.0
C1343 C 0.09377 0.10525 0.03524 0.0
C1344 C 0.11981 0.10749 0.11017 0.0
C1345 C 0.07926 0.0902 0.0202 0.0
C1346 C 0.18951 0.1558 0.1739 0.0
C1347 C 0.17603 0.14241 0.15562 0.0
C1348 C 0.14811 0.14464 0.08149 0.0
C1349 C 0.10756 0.09517 0.06001 0.0
C1350 C 0.12096 0.11123 0.07816 0.0
C1351 C 0.16214 0.1547 0.13216 0.0
C1352 C 0.14744 0.14036 0.11344 0.0
H1353 H 0.0925 0.03532 0.06192 0.0
H1354 H 0.11835 0.06124 0.08713 0.0
H1355 H 0.13626 0.13337 0.03933 0.0
H1356 H 0.17525 0.21408 0.14129 0.0
H1357 H 0.15142 0.19054 0.10929 0.0
C1358 C 0.10513 0.93526 0.43885 0.0
C1359 C 0.09183 0.92732 0.46574 0.0
C1360 C 0.12251 0.91907 0.42472 0.0
C1361 C 0.13887 0.85223 0.41908 0.0
H1362 H 0.19746 0.87656 0.37514 0.0
C1363 C 0.21052 0.78906 0.35325 0.0
C1364 C 0.21647 0.79825 0.32322 0.0
C1365 C 0.19715 0.80428 0.37342 0.0
C1366 C 0.18115 0.86954 0.3873 0.0
H1367 H 0.08684 0.89641 0.49945 0.0
H1368 H 0.11763 0.86811 0.47502 0.0
H1369 H 0.17138 0.90409 0.40661 0.0
H1370 H 0.21342 0.83018 0.29046 0.0
H1371 H 0.19036 0.85709 0.32587 0.0
H1372 H 0.14878 0.81765 0.39963 0.0
C1373 C 0.11425 0.88676 0.46454 0.0
C1374 C 0.16616 0.8853 0.40525 0.0
C1375 C 0.09668 0.90295 0.47859 0.0
C1376 C 0.20915 0.82289 0.31366 0.0
C1377 C 0.19608 0.83821 0.3339 0.0
C1378 C 0.15403 0.83639 0.40136 0.0
C1379 C 0.12717 0.89455 0.43722 0.0
C1380 C 0.14453 0.87701 0.42084 0.0
C1381 C 0.18982 0.82901 0.36392 0.0
C1382 C 0.17503 0.84506 0.38483 0.0
H1383 H 0.10146 0.95377 0.42806 0.0
H1384 H 0.13167 0.92559 0.40339 0.0
H1385 H 0.1222 0.84529 0.43042 0.0
H1386 H 0.21605 0.77004 0.36096 0.0
H1387 H 0.19265 0.79679 0.39647 0.0
C1388 C 0.31217 0.81096 0.66465 0.0
C1389 C 0.30968 0.81036 0.69667 0.0
C1390 C 0.32814 0.82705 0.64794 0.0
C1391 C 0.36256 0.88424 0.65398 0.0
H1392 H 0.39904 0.86266 0.58154 0.0
C1393 C 0.43934 0.94237 0.5905 0.0
C1394 C 0.44187 0.94277 0.5585 0.0
C1395 C 0.42326 0.92644 0.60731 0.0
C1396 C 0.38882 0.86924 0.60147 0.0
H1397 H 0.322 0.82631 0.73621 0.0
H1398 H 0.35008 0.85413 0.70735 0.0
H1399 H 0.37137 0.83489 0.61048 0.0
H1400 H 0.4292 0.92696 0.51905 0.0
H1401 H 0.40106 0.89933 0.54808 0.0
H1402 H 0.38002 0.91859 0.64497 0.0
C1403 C 0.33951 0.84244 0.69489 0.0
C1404 C 0.37282 0.85318 0.6182 0.0
C1405 C 0.32352 0.82633 0.71156 0.0
C1406 C 0.4278 0.92694 0.54371 0.0
C1407 C 0.41174 0.91098 0.56047 0.0
C1408 C 0.37856 0.9003 0.63725 0.0
C1409 C 0.34215 0.8431 0.66273 0.0
C1410 C 0.35936 0.86036 0.64478 0.0
C1411 C 0.40917 0.91037 0.59263 0.0
C1412 C 0.392 0.89312 0.61065 0.0
H1413 H 0.3017 0.79892 0.65252 0.0
H1414 H 0.32921 0.8271 0.6233 0.0
H1415 H 0.35233 0.89081 0.67392 0.0
H1416 H 0.44998 0.9543 0.60256 0.0
H1417 H 0.42221 0.92645 0.63195 0.0
C1418 C 0.30691 0.17857 0.82238 0.0
C1419 C 0.31116 0.18317 0.7908 0.0
C1420 C 0.32249 0.16137 0.83894 0.0
C1421 C 0.38545 0.13087 0.83627 0.0
H1422 H 0.35848 0.08548 0.9002 0.0
C1423 C 0.44742 0.05537 0.90144 0.0
C1424 C 0.44249 0.05186 0.93301 0.0
C1425 C 0.43096 0.07028 0.88324 0.0
C1426 C 0.36632 0.0982 0.88263 0.0
H1427 H 0.3343 0.17337 0.75138 0.0
H1428 H 0.36176 0.14315 0.78033 0.0
H1429 H 0.33041 0.11357 0.86987 0.0
H1430 H 0.41694 0.0607 0.97066 0.0
H1431 H 0.38815 0.08713 0.93901 0.0
H1432 H 0.42135 0.11581 0.84926 0.0
C1433 C 0.3466 0.153 0.79239 0.0
C1434 C 0.35024 0.11426 0.86523 0.0
C1435 C 0.33093 0.17013 0.77583 0.0
C1436 C 0.42089 0.06319 0.94624 0.0
C1437 C 0.40444 0.07814 0.9281 0.0
C1438 C 0.40154 0.11487 0.85372 0.0
C1439 C 0.34261 0.14851 0.82416 0.0
C1440 C 0.35963 0.13086 0.84197 0.0
C1441 C 0.40933 0.08196 0.89638 0.0
C1442 C 0.39217 0.09843 0.87722 0.0
H1443 H 0.2917 0.18852 0.83423 0.0
H1444 H 0.31909 0.15853 0.86341 0.0
H1445 H 0.39327 0.1437 0.8188 0.0
H1446 H 0.46405 0.04665 0.89095 0.0
H1447 H 0.43512 0.07255 0.85886 0.0
C1448 C 0.91673 0.89691 0.99633 0.0
C1449 C 0.91474 0.92224 0.98616 0.0
C1450 C 0.90006 0.88077 0.98714 0.0
C1451 C 0.84083 0.87878 0.9486 0.0
H1452 H 0.87445 0.82207 0.91173 0.0
C1453 C 0.80616 0.83877 0.84421 0.0
C1454 C 0.80747 0.81292 0.84265 0.0
C1455 C 0.81631 0.84906 0.8683 0.0
C1456 C 0.86466 0.83749 0.92246 0.0
H1457 H 0.89314 0.95064 0.95939 0.0
H1458 H 0.86422 0.92264 0.94347 0.0
H1459 H 0.897 0.84582 0.94443 0.0
H1460 H 0.82006 0.77751 0.86535 0.0
H1461 H 0.83842 0.79567 0.90725 0.0
H1462 H 0.80888 0.87118 0.92518 0.0
C1463 C 0.87835 0.91524 0.9589 0.0
C1464 C 0.87754 0.85107 0.94127 0.0
C1465 C 0.89499 0.93132 0.968 0.0
C1466 C 0.81918 0.79754 0.86569 0.0
C1467 C 0.8295 0.80787 0.88974 0.0
C1468 C 0.82799 0.86526 0.9297 0.0
C1469 C 0.8811 0.8897 0.9677 0.0
C1470 C 0.86601 0.87241 0.95356 0.0
C1471 C 0.82809 0.83374 0.89127 0.0
C1472 C 0.84009 0.84508 0.91557 0.0
H1473 H 0.93153 0.88946 0.01077 0.0
H1474 H 0.90243 0.8612 0.99454 0.0
H1475 H 0.83136 0.89487 0.95824 0.0
H1476 H 0.79756 0.8511 0.82659 0.0
H1477 H 0.81547 0.8691 0.86855 0.0
C1478 C 0.79448 0.21272 0.6469 0.0
C1479 C 0.78796 0.20309 0.67658 0.0
C1480 C 0.80807 0.19775 0.62663 0.0
C1481 C 0.82364 0.13281 0.61109 0.0
H1482 H 0.88363 0.15696 0.57053 0.0
C1483 C 0.89955 0.06729 0.55864 0.0
C1484 C 0.91367 0.07583 0.5327 0.0
C1485 C 0.88205 0.08328 0.57293 0.0
C1486 C 0.86668 0.15007 0.58112 0.0
H1487 H 0.79022 0.17062 0.7086 0.0
H1488 H 0.81365 0.14416 0.67296 0.0
H1489 H 0.85689 0.18423 0.6016 0.0
H1490 H 0.91991 0.10757 0.50067 0.0
H1491 H 0.88886 0.13549 0.52524 0.0
H1492 H 0.83324 0.0987 0.59068 0.0
C1493 C 0.80823 0.1632 0.66531 0.0
C1494 C 0.85143 0.16569 0.59902 0.0
C1495 C 0.79494 0.17827 0.68568 0.0
C1496 C 0.90943 0.10056 0.52081 0.0
C1497 C 0.89172 0.11654 0.53497 0.0
C1498 C 0.83871 0.11728 0.59292 0.0
C1499 C 0.81505 0.17284 0.63566 0.0
C1500 C 0.83003 0.15704 0.61463 0.0
C1501 C 0.87808 0.10819 0.56149 0.0
C1502 C 0.86071 0.12553 0.57821 0.0
H1503 H 0.7892 0.23187 0.63955 0.0
H1504 H 0.81301 0.20558 0.60387 0.0
H1505 H 0.80702 0.12583 0.62253 0.0
H1506 H 0.90272 0.04846 0.56867 0.0
H1507 H 0.87231 0.07628 0.59363 0.0
C1508 C 0.69215 0.16574 0.2994 0.0
C1509 C 0.69326 0.19037 0.30696 0.0
C1510 C 0.67639 0.14951 0.31623 0.0
C1511 C 0.61976 0.14866 0.3689 0.0
H1512 H 0.64199 0.0797 0.38767 0.0
C1513 C 0.55258 0.0751 0.42175 0.0
C1514 C 0.56158 0.05733 0.44435 0.0
C1515 C 0.56856 0.09128 0.40522 0.0
C1516 C 0.63544 0.09892 0.38282 0.0
H1517 H 0.67854 0.2172 0.33821 0.0
H1518 H 0.65088 0.18911 0.36745 0.0
H1519 H 0.66981 0.10772 0.35904 0.0
H1520 H 0.59454 0.04279 0.46728 0.0
H1521 H 0.62251 0.07074 0.43835 0.0
H1522 H 0.58544 0.13989 0.39279 0.0
C1523 C 0.66212 0.18224 0.34841 0.0
C1524 C 0.65139 0.11501 0.36605 0.0
C1525 C 0.67808 0.19837 0.33175 0.0
C1526 C 0.58704 0.05614 0.4499 0.0
C1527 C 0.60309 0.07215 0.43318 0.0
C1528 C 0.60373 0.13251 0.38541 0.0
C1529 C 0.661 0.1575 0.34099 0.0
C1530 C 0.64387 0.14019 0.35885 0.0
C1531 C 0.59413 0.09007 0.41058 0.0
C1532 C 0.6113 0.10735 0.39274 0.0
H1533 H 0.70345 0.15906 0.28028 0.0
H1534 H 0.67593 0.13078 0.30946 0.0
H1535 H 0.61308 0.16778 0.36367 0.0
H1536 H 0.5331 0.07641 0.41681 0.0
H1537 H 0.56089 0.10452 0.38785 0.0
C1538 C 0.68006 0.83785 0.22013 0.0
C1539 C 0.69306 0.81775 0.20696 0.0
C1540 C 0.66441 0.85432 0.20261 0.0
C1541 C 0.62946 0.85896 0.13225 0.0
H1542 H 0.62788 0.92984 0.14043 0.0
C1543 C 0.57732 0.92991 0.04978 0.0
C1544 C 0.56308 0.94932 0.06289 0.0
C1545 C 0.59369 0.91435 0.06734 0.0
C1546 C 0.62796 0.91007 0.13811 0.0
H1547 H 0.70033 0.79876 0.16574 0.0
H1548 H 0.67321 0.82767 0.13479 0.0
H1549 H 0.65545 0.90158 0.17133 0.0
H1550 H 0.55461 0.96813 0.10407 0.0
H1551 H 0.58328 0.94086 0.13506 0.0
H1552 H 0.60202 0.86743 0.09903 0.0
C1553 C 0.67474 0.83066 0.15864 0.0
C1554 C 0.64372 0.89388 0.15582 0.0
C1555 C 0.69034 0.81423 0.17618 0.0
C1556 C 0.56561 0.95327 0.09362 0.0
C1557 C 0.58203 0.93775 0.11121 0.0
C1558 C 0.61376 0.87514 0.11453 0.0
C1559 C 0.66153 0.85087 0.17167 0.0
C1560 C 0.64468 0.86814 0.15305 0.0
C1561 C 0.5961 0.91798 0.09831 0.0
C1562 C 0.61286 0.90087 0.1172 0.0
H1563 H 0.68193 0.84067 0.24397 0.0
H1564 H 0.65427 0.8695 0.21343 0.0
H1565 H 0.62942 0.8392 0.12996 0.0
H1566 H 0.57556 0.92669 0.02604 0.0
H1567 H 0.6045 0.89951 0.05664 0.0
C1568 C 0.55632 0.5937 0.57455 0.0
C1569 C 0.55646 0.56796 0.58189 0.0
C1570 C 0.57088 0.6082 0.59011 0.0
C1571 C 0.62773 0.6039 0.63133 0.0
H1572 H 0.60393 0.66903 0.65562 0.0
C1573 C 0.68806 0.66545 0.69362 0.0
C1574 C 0.68647 0.69092 0.68435 0.0
C1575 C 0.67176 0.64976 0.68281 0.0
C1576 C 0.61089 0.65097 0.6487 0.0
H1577 H 0.57111 0.53738 0.61216 0.0
H1578 H 0.59687 0.56278 0.63913 0.0
H1579 H 0.57524 0.64274 0.63489 0.0
H1580 H 0.66727 0.71988 0.65581 0.0
H1581 H 0.63899 0.69242 0.63653 0.0
H1582 H 0.66349 0.61229 0.64447 0.0
C1583 C 0.58565 0.57161 0.62111 0.0
C1584 C 0.59446 0.63592 0.63697 0.0
C1585 C 0.57097 0.55711 0.60564 0.0
C1586 C 0.66865 0.70035 0.6636 0.0
C1587 C 0.65243 0.68466 0.65271 0.0
C1588 C 0.6442 0.61899 0.64295 0.0
C1589 C 0.58594 0.59723 0.61322 0.0
C1590 C 0.60281 0.61238 0.62787 0.0
C1591 C 0.65364 0.65926 0.66245 0.0
C1592 C 0.636 0.64279 0.6514 0.0
H1593 H 0.54563 0.60255 0.55606 0.0
H1594 H 0.57103 0.62787 0.5833 0.0
H1595 H 0.6347 0.58594 0.62411 0.0
H1596 H 0.70142 0.65779 0.70993 0.0
H1597 H 0.67297 0.63031 0.69096 0.0
C1598 C 0.58658 0.42457 0.97957 0.0
C1599 C 0.56671 0.43899 0.96663 0.0
C1600 C 0.60211 0.40922 0.9616 0.0
C1601 C 0.60463 0.37861 0.88922 0.0
H1602 H 0.67587 0.3756 0.89735 0.0
C1603 C 0.67292 0.3332 0.80214 0.0
C1604 C 0.69241 0.3175 0.814 0.0
C1605 C 0.65808 0.34817 0.82121 0.0
C1606 C 0.656 0.37607 0.89503 0.0
H1607 H 0.54711 0.44913 0.92544 0.0
H1608 H 0.57434 0.42252 0.89374 0.0
H1609 H 0.64863 0.40102 0.93027 0.0
H1610 H 0.71222 0.30514 0.85446 0.0
H1611 H 0.68628 0.33147 0.88808 0.0
H1612 H 0.61199 0.35382 0.85388 0.0
C1613 C 0.57786 0.42265 0.91773 0.0
C1614 C 0.64039 0.39058 0.91392 0.0
C1615 C 0.56237 0.43794 0.9357 0.0
C1616 C 0.69729 0.3173 0.84498 0.0
C1617 C 0.68251 0.33236 0.86408 0.0
C1618 C 0.62022 0.36418 0.87032 0.0
C1619 C 0.59794 0.40813 0.93044 0.0
C1620 C 0.61454 0.39212 0.9111 0.0
C1621 C 0.66255 0.34773 0.85245 0.0
C1622 C 0.64608 0.36286 0.87289 0.0
H1623 H 0.59007 0.42526 0.00348 0.0
H1624 H 0.61725 0.39807 0.97213 0.0
H1625 H 0.58477 0.37903 0.88685 0.0
H1626 H 0.66897 0.33354 0.77823 0.0
H1627 H 0.64307 0.36008 0.81151 0.0
C1628 C 0.8063 0.31397 0.15852 0.0
C1629 C 0.80516 0.3117 0.19062 0.0
C1630 C 0.82225 0.33025 0.14209 0.0
C1631 C 0.86007 0.38483 0.15063 0.0
H1632 H 0.89201 0.36633 0.07404 0.0
C1633 C 0.93812 0.44151 0.08773 0.0
C1634 C 0.93891 0.44434 0.05565 0.0
C1635 C 0.92175 0.42561 0.10405 0.0
C1636 C 0.88307 0.37203 0.0952 0.0
H1637 H 0.81988 0.32485 0.23058 0.0
H1638 H 0.84796 0.35287 0.20221 0.0
H1639 H 0.86398 0.33854 0.10234 0.0
H1640 H 0.92292 0.43275 0.01559 0.0
H1641 H 0.89433 0.40508 0.04381 0.0
H1642 H 0.87931 0.41827 0.14353 0.0
C1643 C 0.8363 0.34245 0.18948 0.0
C1644 C 0.86685 0.35599 0.11155 0.0
C1645 C 0.8203 0.32622 0.20587 0.0
C1646 C 0.92286 0.43086 0.04029 0.0
C1647 C 0.90654 0.41488 0.05656 0.0
C1648 C 0.87634 0.40084 0.13431 0.0
C1649 C 0.83764 0.34476 0.15724 0.0
C1650 C 0.85501 0.36206 0.1396 0.0
C1651 C 0.90566 0.41194 0.08877 0.0
C1652 C 0.88816 0.39476 0.10628 0.0
H1653 H 0.79486 0.30305 0.14611 0.0
H1654 H 0.82227 0.3316 0.11741 0.0
H1655 H 0.85113 0.39059 0.17175 0.0
H1656 H 0.95033 0.45155 0.10022 0.0
H1657 H 0.92202 0.42375 0.12871 0.0
C1658 C 0.94403 0.55447 0.40415 0.0
C1659 C 0.93996 0.55129 0.4359 0.0
C1660 C 0.92773 0.57016 0.38661 0.0
C1661 C 0.88263 0.62385 0.39284 0.0
H1662 H 0.86141 0.60612 0.31516 0.0
C1663 C 0.80803 0.6836 0.32635 0.0
C1664 C 0.81192 0.68703 0.2946 0.0
C1665 C 0.82337 0.66653 0.34339 0.0
C1666 C 0.86739 0.61146 0.33664 0.0
H1667 H 0.91598 0.56127 0.47449 0.0
H1668 H 0.8872 0.58871 0.44388 0.0
H1669 H 0.88848 0.5768 0.34537 0.0
H1670 H 0.83432 0.67545 0.25542 0.0
H1671 H 0.86166 0.64578 0.28524 0.0
H1672 H 0.86181 0.65856 0.38408 0.0
C1673 C 0.90302 0.57934 0.43248 0.0
C1674 C 0.88286 0.59465 0.35396 0.0
C1675 C 0.91929 0.56359 0.44996 0.0
C1676 C 0.8312 0.67307 0.27998 0.0
C1677 C 0.84663 0.65602 0.29702 0.0
C1678 C 0.86725 0.64067 0.37551 0.0
C1679 C 0.9072 0.58299 0.40064 0.0
C1680 C 0.8906 0.60065 0.38227 0.0
C1681 C 0.84292 0.65259 0.32896 0.0
C1682 C 0.8594 0.63467 0.34723 0.0
H1683 H 0.96004 0.54513 0.39306 0.0
H1684 H 0.93158 0.57278 0.3622 0.0
H1685 H 0.88864 0.6292 0.41431 0.0
H1686 H 0.79306 0.69413 0.33791 0.0
H1687 H 0.81974 0.66407 0.36786 0.0
C1688 C 0.30905 0.32318 0.33877 0.0
C1689 C 0.31773 0.31123 0.3127 0.0
C1690 C 0.32403 0.33884 0.35198 0.0
C1691 C 0.38882 0.35195 0.35842 0.0
H1692 H 0.3608 0.41606 0.38167 0.0
C1693 C 0.44844 0.42451 0.40224 0.0
C1694 C 0.43805 0.43728 0.4269 0.0
C1695 C 0.43404 0.4094 0.38721 0.0
C1696 C 0.36882 0.39811 0.37559 0.0
H1697 H 0.34877 0.30656 0.2798 0.0
H1698 H 0.37505 0.33365 0.30321 0.0
H1699 H 0.3349 0.38881 0.35791 0.0
H1700 H 0.40482 0.44388 0.45573 0.0
H1701 H 0.3798 0.41729 0.42982 0.0
H1702 H 0.42264 0.36103 0.37652 0.0
C1703 C 0.35675 0.3307 0.31351 0.0
C1704 C 0.354 0.38256 0.36198 0.0
C1705 C 0.34172 0.31517 0.30019 0.0
C1706 C 0.41314 0.43456 0.43643 0.0
C1707 C 0.39882 0.41939 0.42155 0.0
C1708 C 0.40362 0.36744 0.3722 0.0
C1709 C 0.34801 0.34272 0.33946 0.0
C1710 C 0.36384 0.35931 0.35342 0.0
C1711 C 0.40908 0.40672 0.39673 0.0
C1712 C 0.39372 0.39062 0.38109 0.0
H1713 H 0.29079 0.32021 0.34919 0.0
H1714 H 0.31701 0.34765 0.37225 0.0
H1715 H 0.39676 0.33398 0.35227 0.0
H1716 H 0.46755 0.42651 0.39431 0.0
H1717 H 0.44236 0.40009 0.36792 0.0
C1718 C 0.43636 0.55621 0.06893 0.0
C1719 C 0.43774 0.56026 0.03704 0.0
C1720 C 0.41993 0.57103 0.08638 0.0
C1721 C 0.38439 0.63159 0.08455 0.0
H1722 H 0.34644 0.60042 0.15259 0.0
C1723 C 0.30974 0.68696 0.15508 0.0
C1724 C 0.3097 0.68179 0.18678 0.0
C1725 C 0.32409 0.67169 0.13585 0.0
C1726 C 0.35706 0.60943 0.13384 0.0
H1727 H 0.42326 0.58247 0.99807 0.0
H1728 H 0.39439 0.60871 0.02863 0.0
H1729 H 0.37431 0.57484 0.1207 0.0
H1730 H 0.32407 0.65705 0.22368 0.0
H1731 H 0.34945 0.63028 0.19019 0.0
H1732 H 0.36739 0.66623 0.09791 0.0
C1733 C 0.40616 0.59427 0.04019 0.0
C1734 C 0.37301 0.59478 0.11558 0.0
C1735 C 0.42256 0.57933 0.02272 0.0
C1736 C 0.32383 0.66109 0.19917 0.0
C1737 C 0.3382 0.64581 0.18 0.0
C1738 C 0.36847 0.64627 0.10287 0.0
C1739 C 0.40458 0.59017 0.07221 0.0
C1740 C 0.387 0.60572 0.09088 0.0
C1741 C 0.33865 0.65104 0.14811 0.0
C1742 C 0.35476 0.63537 0.12786 0.0
H1743 H 0.44796 0.54149 0.08028 0.0
H1744 H 0.41938 0.56764 0.111 0.0
H1745 H 0.39514 0.64058 0.06589 0.0
H1746 H 0.2989 0.70298 0.14528 0.0
H1747 H 0.3238 0.67604 0.11141 0.0
C1748 C 0.194 0.66557 0.80251 0.0
C1749 C 0.19487 0.69027 0.80995 0.0
C1750 C 0.17793 0.64942 0.81894 0.0
C1751 C 0.11984 0.64859 0.86843 0.0
H1752 H 0.1428 0.58055 0.89177 0.0
C1753 C 0.05277 0.57401 0.91904 0.0
C1754 C 0.06081 0.55794 0.94386 0.0
C1755 C 0.069 0.59014 0.90288 0.0
C1756 C 0.13605 0.59951 0.88556 0.0
H1757 H 0.17932 0.71731 0.84049 0.0
H1758 H 0.15094 0.68939 0.8688 0.0
H1759 H 0.1711 0.60847 0.86367 0.0
H1760 H 0.09231 0.54643 0.97116 0.0
H1761 H 0.12082 0.57409 0.94263 0.0
H1762 H 0.08475 0.63959 0.89019 0.0
C1763 C 0.16273 0.6824 0.85028 0.0
C1764 C 0.15227 0.61552 0.86915 0.0
C1765 C 0.17906 0.69843 0.83412 0.0
C1766 C 0.08559 0.55838 0.95198 0.0
C1767 C 0.10194 0.57424 0.93555 0.0
C1768 C 0.1035 0.63248 0.88444 0.0
C1769 C 0.16193 0.65758 0.84303 0.0
C1770 C 0.14449 0.64037 0.86041 0.0
C1771 C 0.0939 0.59048 0.91079 0.0
C1772 C 0.11135 0.60768 0.89339 0.0
H1773 H 0.20576 0.65876 0.78385 0.0
H1774 H 0.17774 0.63059 0.81238 0.0
H1775 H 0.11302 0.66748 0.86196 0.0
H1776 H 0.03383 0.57409 0.91215 0.0
H1777 H 0.06211 0.60213 0.88384 0.0
C1778 C 0.08223 0.43917 0.55311 0.0
C1779 C 0.06057 0.45 0.56681 0.0
C1780 C 0.09901 0.42422 0.57079 0.0
C1781 C 0.10285 0.38634 0.64419 0.0
H1782 H 0.17381 0.3888 0.62739 0.0
C1783 C 0.17461 0.32967 0.71918 0.0
C1784 C 0.19433 0.31725 0.70338 0.0
C1785 C 0.15867 0.34716 0.70354 0.0
C1786 C 0.15404 0.38779 0.63221 0.0
H1787 H 0.03924 0.45434 0.60923 0.0
H1788 H 0.06873 0.42839 0.6405 0.0
H1789 H 0.1452 0.4172 0.59823 0.0
H1790 H 0.21342 0.31331 0.65942 0.0
H1791 H 0.18556 0.34392 0.63184 0.0
H1792 H 0.1117 0.35686 0.67807 0.0
C1793 C 0.07269 0.43108 0.61612 0.0
C1794 C 0.13765 0.40403 0.61549 0.0
C1795 C 0.05591 0.446 0.59838 0.0
C1796 C 0.19825 0.3228 0.67191 0.0
C1797 C 0.18241 0.34035 0.65627 0.0
C1798 C 0.11924 0.37015 0.66096 0.0
C1799 C 0.09438 0.4199 0.6025 0.0
C1800 C 0.11185 0.40336 0.62111 0.0
C1801 C 0.16234 0.35261 0.67187 0.0
C1802 C 0.14501 0.37056 0.65498 0.0
H1803 H 0.08598 0.44206 0.52869 0.0
H1804 H 0.11533 0.41562 0.55951 0.0
H1805 H 0.08309 0.38507 0.6488 0.0
H1806 H 0.17148 0.32567 0.74355 0.0
H1807 H 0.14356 0.35651 0.71623 0.0
loop_
_geom_bond_atom_site_label_1
_geom_bond_atom_site_label_2
_geom_bond_distance
_geom_bond_site_symmetry_2
_ccdc_geom_bond_type
C0 C1 1.443 . S
C0 N4 1.376 . S
C0 C38 1.389 1_545 S
C1 C0 1.443 . S
C1 C2 1.340 . S
C1 H41 0.951 . S
C2 C1 1.340 . S
C2 C3 1.439 . S
C2 H42 0.950 . S
C3 C2 1.439 . S
C3 N4 1.374 . S
C3 C37 1.395 1_554 S
N4 C0 1.376 . S
N4 C3 1.374 . S
N4 Co5 2.008 1_655 S
Co5 N4 2.008 1_455 S
Co5 N6 1.995 1_454 S
Co5 N11 2.008 1_544 S
Co5 N16 1.995 1_545 S
Co5 N21 2.282 1_444 S
Co5 N27 2.282 . S
N6 Co5 1.995 1_656 S
N6 C7 1.376 . S
N6 C10 1.383 . S
C7 N6 1.376 . S
C7 C8 1.446 . S
C7 C37 1.391 . S
C8 C7 1.446 . S
C8 C9 1.339 . S
C8 H43 0.949 . S
C9 C8 1.339 . S
C9 C10 1.439 . S
C9 H44 0.950 . S
C10 N6 1.383 . S
C10 C9 1.439 . S
C10 C39 1.392 1_655 S
N11 Co5 2.008 1_566 S
N11 C12 1.376 . S
N11 C15 1.374 . S
C12 N11 1.376 . S
C12 C13 1.443 . S
C12 C39 1.389 1_565 S
C13 C12 1.443 . S
C13 C14 1.340 . S
C13 H45 0.951 . S
C14 C13 1.340 . S
C14 C15 1.439 . S
C14 H46 0.950 . S
C15 N11 1.374 . S
C15 C14 1.439 . S
C15 C40 1.395 1_556 S
N16 Co5 1.995 1_565 S
N16 C17 1.376 . S
N16 C20 1.383 . S
C17 N16 1.376 . S
C17 C18 1.446 . S
C17 C40 1.391 . S
C18 C17 1.446 . S
C18 C19 1.339 . S
C18 H47 0.949 . S
C19 C18 1.339 . S
C19 C20 1.439 . S
C19 H48 0.950 . S
C20 N16 1.383 . S
C20 C19 1.439 . S
C20 C38 1.392 1_455 S
N21 Co5 2.282 1_666 S
N21 C24 1.332 . S
N21 C26 1.332 . S
C22 C23 1.386 . S
C22 C25 1.388 . S
C23 C22 1.386 . S
C23 C24 1.382 . S
C23 H49 0.950 . S
C24 N21 1.332 . S
C24 C23 1.382 . S
C24 H35 0.952 . S
C25 C22 1.388 . S
C25 C26 1.382 . S
C25 H50 0.950 . S
C26 N21 1.332 . S
C26 C25 1.382 . S
C26 H36 0.952 1_565 S
N27 Co5 2.282 . S
N27 C31 1.332 . S
N27 C32 1.332 . S
C28 C29 1.388 . S
C28 C32 1.382 . S
C28 H51 0.950 . S
C29 C28 1.388 . S
C29 C30 1.386 . S
C30 C29 1.386 . S
C30 C31 1.382 . S
C30 H52 0.950 . S
C31 N27 1.332 . S
C31 C30 1.382 . S
C31 H33 0.952 . S
C32 N27 1.332 . S
C32 C28 1.382 . S
C32 H34 0.952 . S
H33 C31 0.952 . S
H34 C32 0.952 . S
H35 C24 0.952 . S
H36 C26 0.952 1_545 S
C37 C3 1.395 1_556 S
C37 C7 1.391 . S
C38 C0 1.389 1_565 S
C38 C20 1.392 1_655 S
C39 C10 1.392 1_455 S
C39 C12 1.389 1_545 S
C40 C15 1.395 1_554 S
C40 C17 1.391 . S
H41 C1 0.951 . S
H42 C2 0.950 . S
H43 C8 0.949 . S
H44 C9 0.950 . S
H45 C13 0.951 . S
H46 C14 0.950 . S
H47 C18 0.949 . S
H48 C19 0.950 . S
H49 C23 0.950 . S
H50 C25 0.950 . S
H51 C28 0.950 . S
H52 C30 0.950 . S
C53 C54 1.443 . S
C53 N57 1.376 . S
C53 C91 1.389 . S
C54 C53 1.443 . S
C54 C55 1.340 . S
C54 H94 0.951 . S
C55 C54 1.340 . S
C55 C56 1.439 . S
C55 H95 0.950 . S
C56 C55 1.439 . S
C56 N57 1.374 . S
C56 C90 1.395 . S
N57 C53 1.376 . S
N57 C56 1.374 . S
N57 Co58 2.008 . S
Co58 N57 2.008 . S
Co58 N59 1.995 . S
Co58 N64 2.008 . S
Co58 N69 1.995 . S
Co58 N74 2.282 . S
Co58 N80 2.282 . S
N59 Co58 1.995 . S
N59 C60 1.376 . S
N59 C63 1.383 . S
C60 N59 1.376 . S
C60 C61 1.446 . S
C60 C90 1.391 . S
C61 C60 1.446 . S
C61 C62 1.339 . S
C61 H96 0.949 . S
C62 C61 1.339 . S
C62 C63 1.439 . S
C62 H97 0.950 . S
C63 N59 1.383 . S
C63 C62 1.439 . S
C63 C92 1.392 . S
N64 Co58 2.008 . S
N64 C65 1.376 . S
N64 C68 1.374 . S
C65 N64 1.376 . S
C65 C66 1.443 . S
C65 C92 1.389 . S
C66 C65 1.443 . S
C66 C67 1.340 . S
C66 H98 0.951 . S
C67 C66 1.340 . S
C67 C68 1.439 . S
C67 H99 0.950 . S
C68 N64 1.374 . S
C68 C67 1.439 . S
C68 C93 1.395 . S
N69 Co58 1.995 . S
N69 C70 1.376 . S
N69 C73 1.383 . S
C70 N69 1.376 . S
C70 C71 1.446 . S
C70 C93 1.391 . S
C71 C70 1.446 . S
C71 C72 1.339 . S
C71 H100 0.949 . S
C72 C71 1.339 . S
C72 C73 1.439 . S
C72 H101 0.950 . S
C73 N69 1.383 . S
C73 C72 1.439 . S
C73 C91 1.392 . S
N74 Co58 2.282 . S
N74 C77 1.332 . S
N74 C79 1.332 . S
C75 C76 1.386 . S
C75 C78 1.388 . S
C76 C75 1.386 . S
C76 C77 1.382 . S
C76 H102 0.950 . S
C77 N74 1.332 . S
C77 C76 1.382 . S
C77 H88 0.952 . S
C78 C75 1.388 . S
C78 C79 1.382 . S
C78 H103 0.950 . S
C79 N74 1.332 . S
C79 C78 1.382 . S
C79 H89 0.948 . S
N80 Co58 2.282 . S
N80 C84 1.332 . S
N80 C85 1.332 . S
C81 C82 1.388 . S
C81 C85 1.382 . S
C81 H104 0.950 . S
C82 C81 1.388 . S
C82 C83 1.386 . S
C83 C82 1.386 . S
C83 C84 1.382 . S
C83 H105 0.950 . S
C84 N80 1.332 . S
C84 C83 1.382 . S
C84 H86 0.952 . S
C85 N80 1.332 . S
C85 C81 1.382 . S
C85 H87 0.948 . S
H86 C84 0.952 . S
H87 C85 0.948 . S
H88 C77 0.952 . S
H89 C79 0.948 . S
C90 C56 1.395 . S
C90 C60 1.391 . S
C91 C53 1.389 . S
C91 C73 1.392 . S
C92 C63 1.392 . S
C92 C65 1.389 . S
C93 C68 1.395 . S
C93 C70 1.391 . S
H94 C54 0.951 . S
H95 C55 0.950 . S
H96 C61 0.949 . S
H97 C62 0.950 . S
H98 C66 0.951 . S
H99 C67 0.950 . S
H100 C71 0.949 . S
H101 C72 0.950 . S
H102 C76 0.950 . S
H103 C78 0.950 . S
H104 C81 0.950 . S
H105 C83 0.950 . S
C106 C107 1.443 . S
C106 N110 1.376 1_565 S
C106 C144 1.389 . S
C107 C106 1.443 . S
C107 C108 1.340 1_565 S
C107 H147 0.951 . S
C108 C107 1.340 1_545 S
C108 C109 1.439 . S
C108 H148 0.950 . S
C109 C108 1.439 . S
C109 N110 1.374 . S
C109 C143 1.395 . S
N110 C106 1.376 1_545 S
N110 C109 1.374 . S
N110 Co111 2.008 . S
Co111 N110 2.008 . S
Co111 N112 1.995 . S
Co111 N117 2.008 1_545 S
Co111 N122 1.995 1_545 S
Co111 N127 2.282 1_545 S
Co111 N133 2.282 . S
N112 Co111 1.995 . S
N112 C113 1.376 . S
N112 C116 1.383 . S
C113 N112 1.376 . S
C113 C114 1.446 . S
C113 C143 1.391 . S
C114 C113 1.446 . S
C114 C115 1.339 . S
C114 H149 0.949 . S
C115 C114 1.339 . S
C115 C116 1.439 . S
C115 H150 0.950 . S
C116 N112 1.383 . S
C116 C115 1.439 . S
C116 C145 1.392 . S
N117 Co111 2.008 1_565 S
N117 C118 1.376 1_565 S
N117 C121 1.374 . S
C118 N117 1.376 1_545 S
C118 C119 1.443 . S
C118 C145 1.389 . S
C119 C118 1.443 . S
C119 C120 1.340 1_545 S
C119 H151 0.951 . S
C120 C119 1.340 1_565 S
C120 C121 1.439 . S
C120 H152 0.950 . S
C121 N117 1.374 . S
C121 C120 1.439 . S
C121 C146 1.395 . S
N122 Co111 1.995 1_565 S
N122 C123 1.376 . S
N122 C126 1.383 . S
C123 N122 1.376 . S
C123 C124 1.446 . S
C123 C146 1.391 . S
C124 C123 1.446 . S
C124 C125 1.339 . S
C124 H153 0.949 . S
C125 C124 1.339 . S
C125 C126 1.439 . S
C125 H154 0.950 . S
C126 N122 1.383 . S
C126 C125 1.439 . S
C126 C144 1.392 . S
N127 Co111 2.282 1_565 S
N127 C130 1.332 . S
N127 C132 1.332 1_565 S
C128 C129 1.386 . S
C128 C131 1.388 1_565 S
C129 C128 1.386 . S
C129 C130 1.382 . S
C129 H155 0.950 . S
C130 N127 1.332 . S
C130 C129 1.382 . S
C130 H141 0.952 . S
C131 C128 1.388 1_545 S
C131 C132 1.382 . S
C131 H156 0.950 . S
C132 N127 1.332 1_545 S
C132 C131 1.382 . S
C132 H142 0.948 . S
N133 Co111 2.282 . S
N133 C137 1.332 . S
N133 C138 1.332 1_545 S
C134 C135 1.388 1_565 S
C134 C138 1.382 . S
C134 H157 0.950 . S
C135 C134 1.388 1_545 S
C135 C136 1.386 . S
C136 C135 1.386 . S
C136 C137 1.382 . S
C136 H158 0.950 . S
C137 N133 1.332 . S
C137 C136 1.382 . S
C137 H139 0.952 . S
C138 N133 1.332 1_565 S
C138 C134 1.382 . S
C138 H140 0.948 . S
H139 C137 0.952 . S
H140 C138 0.948 . S
H141 C130 0.952 . S
H142 C132 0.948 . S
C143 C109 1.395 . S
C143 C113 1.391 . S
C144 C106 1.389 . S
C144 C126 1.392 . S
C145 C116 1.392 . S
C145 C118 1.389 . S
C146 C121 1.395 . S
C146 C123 1.391 . S
H147 C107 0.951 . S
H148 C108 0.950 . S
H149 C114 0.949 . S
H150 C115 0.950 . S
H151 C119 0.951 . S
H152 C120 0.950 . S
H153 C124 0.949 . S
H154 C125 0.950 . S
H155 C129 0.950 . S
H156 C131 0.950 . S
H157 C134 0.950 . S
H158 C136 0.950 . S
C159 C160 1.443 . S
C159 N163 1.376 . S
C159 C197 1.389 . S
C160 C159 1.443 . S
C160 C161 1.340 . S
C160 H200 0.951 . S
C161 C160 1.340 . S
C161 C162 1.439 . S
C161 H201 0.950 . S
C162 C161 1.439 . S
C162 N163 1.374 . S
C162 C196 1.395 . S
N163 C159 1.376 . S
N163 C162 1.374 . S
N163 Co164 2.008 . S
Co164 N163 2.008 . S
Co164 N165 1.995 . S
Co164 N170 2.008 . S
Co164 N175 1.995 . S
Co164 N180 2.282 . S
Co164 N186 2.282 . S
N165 Co164 1.995 . S
N165 C166 1.376 . S
N165 C169 1.383 . S
C166 N165 1.376 . S
C166 C167 1.446 . S
C166 C196 1.391 . S
C167 C166 1.446 . S
C167 C168 1.339 . S
C167 H202 0.949 . S
C168 C167 1.339 . S
C168 C169 1.439 . S
C168 H203 0.950 . S
C169 N165 1.383 . S
C169 C168 1.439 . S
C169 C198 1.392 . S
N170 Co164 2.008 . S
N170 C171 1.376 . S
N170 C174 1.374 . S
C171 N170 1.376 . S
C171 C172 1.443 . S
C171 C198 1.389 . S
C172 C171 1.443 . S
C172 C173 1.340 . S
C172 H204 0.951 . S
C173 C172 1.340 . S
C173 C174 1.439 . S
C173 H205 0.950 . S
C174 N170 1.374 . S
C174 C173 1.439 . S
C174 C199 1.395 . S
N175 Co164 1.995 . S
N175 C176 1.376 . S
N175 C179 1.383 . S
C176 N175 1.376 . S
C176 C177 1.446 . S
C176 C199 1.391 . S
C177 C176 1.446 . S
C177 C178 1.339 . S
C177 H206 0.949 . S
C178 C177 1.339 . S
C178 C179 1.439 . S
C178 H207 0.950 . S
C179 N175 1.383 . S
C179 C178 1.439 . S
C179 C197 1.392 . S
N180 Co164 2.282 . S
N180 C183 1.332 . S
N180 C185 1.332 . S
C181 C182 1.386 . S
C181 C184 1.388 . S
C182 C181 1.386 . S
C182 C183 1.382 . S
C182 H208 0.950 . S
C183 N180 1.332 . S
C183 C182 1.382 . S
C183 H194 0.952 . S
C184 C181 1.388 . S
C184 C185 1.382 . S
C184 H209 0.950 . S
C185 N180 1.332 . S
C185 C184 1.382 . S
C185 H195 0.948 . S
N186 Co164 2.282 . S
N186 C190 1.332 . S
N186 C191 1.332 . S
C187 C188 1.388 . S
C187 C191 1.382 . S
C187 H210 0.950 . S
C188 C187 1.388 . S
C188 C189 1.386 . S
C189 C188 1.386 . S
C189 C190 1.382 . S
C189 H211 0.950 . S
C190 N186 1.332 . S
C190 C189 1.382 . S
C190 H192 0.952 . S
C191 N186 1.332 . S
C191 C187 1.382 . S
C191 H193 0.948 . S
H192 C190 0.952 . S
H193 C191 0.948 . S
H194 C183 0.952 . S
H195 C185 0.948 . S
C196 C162 1.395 . S
C196 C166 1.391 . S
C197 C159 1.389 . S
C197 C179 1.392 . S
C198 C169 1.392 . S
C198 C171 1.389 . S
C199 C174 1.395 . S
C199 C176 1.391 . S
H200 C160 0.951 . S
H201 C161 0.950 . S
H202 C167 0.949 . S
H203 C168 0.950 . S
H204 C172 0.951 . S
H205 C173 0.950 . S
H206 C177 0.949 . S
H207 C178 0.950 . S
H208 C182 0.950 . S
H209 C184 0.950 . S
H210 C187 0.950 . S
H211 C189 0.950 . S
C212 C213 1.443 . S
C212 N216 1.376 . S
C212 C250 1.389 1_655 S
C213 C212 1.443 . S
C213 C214 1.340 . S
C213 H253 0.951 . S
C214 C213 1.340 . S
C214 C215 1.439 . S
C214 H254 0.950 . S
C215 C214 1.439 . S
C215 N216 1.374 . S
C215 C249 1.395 . S
N216 C212 1.376 . S
N216 C215 1.374 . S
N216 Co217 2.008 1_665 S
Co217 N216 2.008 1_445 S
Co217 N218 1.995 1_445 S
Co217 N223 2.008 . S
Co217 N228 1.995 . S
Co217 N233 2.282 1_545 S
Co217 N239 2.282 1_455 S
N218 Co217 1.995 1_665 S
N218 C219 1.376 . S
N218 C222 1.383 . S
C219 N218 1.376 . S
C219 C220 1.446 . S
C219 C249 1.391 . S
C220 C219 1.446 . S
C220 C221 1.339 . S
C220 H255 0.949 . S
C221 C220 1.339 . S
C221 C222 1.439 . S
C221 H256 0.950 . S
C222 N218 1.383 . S
C222 C221 1.439 . S
C222 C251 1.392 1_565 S
N223 Co217 2.008 . S
N223 C224 1.376 . S
N223 C227 1.374 . S
C224 N223 1.376 . S
C224 C225 1.443 . S
C224 C251 1.389 1_455 S
C225 C224 1.443 . S
C225 C226 1.340 . S
C225 H257 0.951 . S
C226 C225 1.340 . S
C226 C227 1.439 . S
C226 H258 0.950 . S
C227 N223 1.374 . S
C227 C226 1.439 . S
C227 C252 1.395 . S
N228 Co217 1.995 . S
N228 C229 1.376 . S
N228 C232 1.383 . S
C229 N228 1.376 . S
C229 C230 1.446 . S
C229 C252 1.391 . S
C230 C229 1.446 . S
C230 C231 1.339 . S
C230 H259 0.949 . S
C231 C230 1.339 . S
C231 C232 1.439 . S
C231 H260 0.950 . S
C232 N228 1.383 . S
C232 C231 1.439 . S
C232 C250 1.392 1_545 S
N233 Co217 2.282 1_565 S
N233 C236 1.332 . S
N233 C238 1.332 . S
C234 C235 1.386 . S
C234 C237 1.388 . S
C235 C234 1.386 . S
C235 C236 1.382 . S
C235 H261 0.950 . S
C236 N233 1.332 . S
C236 C235 1.382 . S
C236 H247 0.952 . S
C237 C234 1.388 . S
C237 C238 1.382 . S
C237 H262 0.950 . S
C238 N233 1.332 . S
C238 C237 1.382 . S
C238 H248 0.948 . S
N239 Co217 2.282 1_655 S
N239 C243 1.332 . S
N239 C244 1.332 . S
C240 C241 1.388 . S
C240 C244 1.382 . S
C240 H263 0.950 . S
C241 C240 1.388 . S
C241 C242 1.386 . S
C242 C241 1.386 . S
C242 C243 1.382 . S
C242 H264 0.950 . S
C243 N239 1.332 . S
C243 C242 1.382 . S
C243 H245 0.952 . S
C244 N239 1.332 . S
C244 C240 1.382 . S
C244 H246 0.948 . S
H245 C243 0.952 . S
H246 C244 0.948 . S
H247 C236 0.952 . S
H248 C238 0.948 . S
C249 C215 1.395 . S
C249 C219 1.391 . S
C250 C212 1.389 1_455 S
C250 C232 1.392 1_565 S
C251 C222 1.392 1_545 S
C251 C224 1.389 1_655 S
C252 C227 1.395 . S
C252 C229 1.391 . S
H253 C213 0.951 . S
H254 C214 0.950 . S
H255 C220 0.949 . S
H256 C221 0.950 . S
H257 C225 0.951 . S
H258 C226 0.950 . S
H259 C230 0.949 . S
H260 C231 0.950 . S
H261 C235 0.950 . S
H262 C237 0.950 . S
H263 C240 0.950 . S
H264 C242 0.950 . S
C265 C266 1.443 . S
C265 N269 1.376 . S
C265 C303 1.389 . S
C266 C265 1.443 . S
C266 C267 1.340 . S
C266 H306 0.951 . S
C267 C266 1.340 . S
C267 C268 1.439 . S
C267 H307 0.950 . S
C268 C267 1.439 . S
C268 N269 1.374 . S
C268 C302 1.395 . S
N269 C265 1.376 . S
N269 C268 1.374 . S
N269 Co270 2.008 . S
Co270 N269 2.008 . S
Co270 N271 1.995 . S
Co270 N276 2.008 . S
Co270 N281 1.995 . S
Co270 N286 2.282 . S
Co270 N292 2.282 . S
N271 Co270 1.995 . S
N271 C272 1.376 . S
N271 C275 1.383 . S
C272 N271 1.376 . S
C272 C273 1.446 . S
C272 C302 1.391 . S
C273 C272 1.446 . S
C273 C274 1.339 . S
C273 H308 0.949 . S
C274 C273 1.339 . S
C274 C275 1.439 . S
C274 H309 0.950 . S
C275 N271 1.383 . S
C275 C274 1.439 . S
C275 C304 1.392 . S
N276 Co270 2.008 . S
N276 C277 1.376 . S
N276 C280 1.374 . S
C277 N276 1.376 . S
C277 C278 1.443 . S
C277 C304 1.389 . S
C278 C277 1.443 . S
C278 C279 1.340 . S
C278 H310 0.951 . S
C279 C278 1.340 . S
C279 C280 1.439 . S
C279 H311 0.950 . S
C280 N276 1.374 . S
C280 C279 1.439 . S
C280 C305 1.395 . S
N281 Co270 1.995 . S
N281 C282 1.376 . S
N281 C285 1.383 . S
C282 N281 1.376 . S
C282 C283 1.446 . S
C282 C305 1.391 . S
C283 C282 1.446 . S
C283 C284 1.339 . S
C283 H312 0.949 . S
C284 C283 1.339 . S
C284 C285 1.439 . S
C284 H313 0.950 . S
C285 N281 1.383 . S
C285 C284 1.439 . S
C285 C303 1.392 . S
N286 Co270 2.282 . S
N286 C289 1.332 . S
N286 C291 1.332 . S
C287 C288 1.386 . S
C287 C290 1.388 . S
C288 C287 1.386 . S
C288 C289 1.382 . S
C288 H314 0.950 . S
C289 N286 1.332 . S
C289 C288 1.382 . S
C289 H300 0.952 . S
C290 C287 1.388 . S
C290 C291 1.382 . S
C290 H315 0.950 . S
C291 N286 1.332 . S
C291 C290 1.382 . S
C291 H301 0.948 . S
N292 Co270 2.282 . S
N292 C296 1.332 . S
N292 C297 1.332 . S
C293 C294 1.388 . S
C293 C297 1.382 . S
C293 H316 0.950 . S
C294 C293 1.388 . S
C294 C295 1.386 . S
C295 C294 1.386 . S
C295 C296 1.382 . S
C295 H317 0.950 . S
C296 N292 1.332 . S
C296 C295 1.382 . S
C296 H298 0.952 . S
C297 N292 1.332 . S
C297 C293 1.382 . S
C297 H299 0.948 . S
H298 C296 0.952 . S
H299 C297 0.948 . S
H300 C289 0.952 . S
H301 C291 0.948 . S
C302 C268 1.395 . S
C302 C272 1.391 . S
C303 C265 1.389 . S
C303 C285 1.392 . S
C304 C275 1.392 . S
C304 C277 1.389 . S
C305 C280 1.395 . S
C305 C282 1.391 . S
H306 C266 0.951 . S
H307 C267 0.950 . S
H308 C273 0.949 . S
H309 C274 0.950 . S
H310 C278 0.951 . S
H311 C279 0.950 . S
H312 C283 0.949 . S
H313 C284 0.950 . S
H314 C288 0.950 . S
H315 C290 0.950 . S
H316 C293 0.950 . S
H317 C295 0.950 . S
C318 C319 1.443 . S
C318 N322 1.352 1_545 S
C318 C356 1.389 . S
C319 C318 1.443 . S
C319 C320 1.340 1_545 S
C319 H359 0.951 . S
C320 C319 1.340 1_565 S
C320 C321 1.439 . S
C320 H360 0.950 . S
C321 C320 1.439 . S
C321 N322 1.404 . S
C321 C355 1.396 . S
N322 C318 1.352 1_565 S
N322 C321 1.404 . S
N322 Co323 2.004 1_566 S
Co323 N322 2.004 1_544 S
Co323 N324 1.995 1_545 S
Co323 N329 2.003 . S
Co323 N334 1.995 1_554 S
Co323 N339 2.282 . S
Co323 N345 2.282 1_544 S
N324 Co323 1.995 1_565 S
N324 C325 1.376 . S
N324 C328 1.383 . S
C325 N324 1.376 . S
C325 C326 1.446 . S
C325 C355 1.390 1_554 S
C326 C325 1.446 . S
C326 C327 1.339 . S
C326 H361 0.949 . S
C327 C326 1.339 . S
C327 C328 1.439 . S
C327 H362 0.950 . S
C328 N324 1.383 . S
C328 C327 1.439 . S
C328 C357 1.392 . S
N329 Co323 2.003 . S
N329 C330 1.345 1_545 S
N329 C333 1.413 . S
C330 N329 1.345 1_565 S
C330 C331 1.443 . S
C330 C357 1.389 . S
C331 C330 1.443 . S
C331 C332 1.340 1_565 S
C331 H363 0.951 . S
C332 C331 1.340 1_545 S
C332 C333 1.439 . S
C332 H364 0.950 . S
C333 N329 1.413 . S
C333 C332 1.439 . S
C333 C358 1.398 . S
N334 Co323 1.995 1_556 S
N334 C335 1.376 . S
N334 C338 1.383 . S
C335 N334 1.376 . S
C335 C336 1.446 . S
C335 C358 1.387 1_556 S
C336 C335 1.446 . S
C336 C337 1.339 . S
C336 H365 0.949 . S
C337 C336 1.339 . S
C337 C338 1.439 . S
C337 H366 0.950 . S
C338 N334 1.383 . S
C338 C337 1.439 . S
C338 C356 1.392 . S
N339 Co323 2.282 . S
N339 C342 1.332 . S
N339 C344 1.332 1_545 S
C340 C341 1.386 . S
C340 C343 1.388 1_545 S
C341 C340 1.386 . S
C341 C342 1.382 . S
C341 H367 0.950 . S
C342 N339 1.332 . S
C342 C341 1.382 . S
C342 H353 0.952 . S
C343 C340 1.388 1_565 S
C343 C344 1.382 . S
C343 H368 0.950 . S
C344 N339 1.332 1_565 S
C344 C343 1.382 . S
C344 H354 0.948 . S
N345 Co323 2.282 1_566 S
N345 C349 1.332 . S
N345 C350 1.332 1_565 S
C346 C347 1.388 1_545 S
C346 C350 1.382 . S
C346 H369 0.950 . S
C347 C346 1.388 1_565 S
C347 C348 1.386 . S
C348 C347 1.386 . S
C348 C349 1.382 . S
C348 H370 0.950 . S
C349 N345 1.332 . S
C349 C348 1.382 . S
C349 H351 0.952 . S
C350 N345 1.332 1_545 S
C350 C346 1.382 . S
C350 H352 0.948 . S
H351 C349 0.952 . S
H352 C350 0.948 . S
H353 C342 0.952 . S
H354 C344 0.948 . S
C355 C321 1.396 . S
C355 C325 1.390 1_556 S
C356 C318 1.389 . S
C356 C338 1.392 . S
C357 C328 1.392 . S
C357 C330 1.389 . S
C358 C333 1.398 . S
C358 C335 1.387 1_554 S
H359 C319 0.951 . S
H360 C320 0.950 . S
H361 C326 0.949 . S
H362 C327 0.950 . S
H363 C331 0.951 . S
H364 C332 0.950 . S
H365 C336 0.949 . S
H366 C337 0.950 . S
H367 C341 0.950 . S
H368 C343 0.950 . S
H369 C346 0.950 . S
H370 C348 0.950 . S
C371 C372 1.443 . S
C371 N375 1.376 . S
C371 C409 1.389 . S
C372 C371 1.443 . S
C372 C373 1.340 . S
C372 H412 0.951 . S
C373 C372 1.340 . S
C373 C374 1.439 . S
C373 H413 0.950 . S
C374 C373 1.439 . S
C374 N375 1.374 . S
C374 C408 1.395 . S
N375 C371 1.376 . S
N375 C374 1.374 . S
N375 Co376 2.008 . S
Co376 N375 2.008 . S
Co376 N377 1.995 . S
Co376 N382 2.008 . S
Co376 N387 1.995 . S
Co376 N392 2.282 . S
Co376 N398 2.282 . S
N377 Co376 1.995 . S
N377 C378 1.376 . S
N377 C381 1.383 . S
C378 N377 1.376 . S
C378 C379 1.446 . S
C378 C408 1.391 . S
C379 C378 1.446 . S
C379 C380 1.339 . S
C379 H414 0.949 . S
C380 C379 1.339 . S
C380 C381 1.439 . S
C380 H415 0.950 . S
C381 N377 1.383 . S
C381 C380 1.439 . S
C381 C410 1.392 . S
N382 Co376 2.008 . S
N382 C383 1.376 . S
N382 C386 1.374 . S
C383 N382 1.376 . S
C383 C384 1.443 . S
C383 C410 1.389 . S
C384 C383 1.443 . S
C384 C385 1.340 . S
C384 H416 0.951 . S
C385 C384 1.340 . S
C385 C386 1.439 . S
C385 H417 0.950 . S
C386 N382 1.374 . S
C386 C385 1.439 . S
C386 C411 1.395 . S
N387 Co376 1.995 . S
N387 C388 1.376 . S
N387 C391 1.383 . S
C388 N387 1.376 . S
C388 C389 1.446 . S
C388 C411 1.391 . S
C389 C388 1.446 . S
C389 C390 1.339 . S
C389 H418 0.949 . S
C390 C389 1.339 . S
C390 C391 1.439 . S
C390 H419 0.950 . S
C391 N387 1.383 . S
C391 C390 1.439 . S
C391 C409 1.392 . S
N392 Co376 2.282 . S
N392 C395 1.332 . S
N392 C397 1.332 . S
C393 C394 1.386 . S
C393 C396 1.388 . S
C394 C393 1.386 . S
C394 C395 1.382 . S
C394 H420 0.950 . S
C395 N392 1.332 . S
C395 C394 1.382 . S
C395 H406 0.952 . S
C396 C393 1.388 . S
C396 C397 1.382 . S
C396 H421 0.950 . S
C397 N392 1.332 . S
C397 C396 1.382 . S
C397 H407 0.948 . S
N398 Co376 2.282 . S
N398 C402 1.332 . S
N398 C403 1.332 . S
C399 C400 1.388 . S
C399 C403 1.382 . S
C399 H422 0.950 . S
C400 C399 1.388 . S
C400 C401 1.386 . S
C401 C400 1.386 . S
C401 C402 1.382 . S
C401 H423 0.950 . S
C402 N398 1.332 . S
C402 C401 1.382 . S
C402 H404 0.952 . S
C403 N398 1.332 . S
C403 C399 1.382 . S
C403 H405 0.948 . S
H404 C402 0.952 . S
H405 C403 0.948 . S
H406 C395 0.952 . S
H407 C397 0.948 . S
C408 C374 1.395 . S
C408 C378 1.391 . S
C409 C371 1.389 . S
C409 C391 1.392 . S
C410 C381 1.392 . S
C410 C383 1.389 . S
C411 C386 1.395 . S
C411 C388 1.391 . S
H412 C372 0.951 . S
H413 C373 0.950 . S
H414 C379 0.949 . S
H415 C380 0.950 . S
H416 C384 0.951 . S
H417 C385 0.950 . S
H418 C389 0.949 . S
H419 C390 0.950 . S
H420 C394 0.950 . S
H421 C396 0.950 . S
H422 C399 0.950 . S
H423 C401 0.950 . S
C424 C425 1.443 . S
C424 N428 1.376 . S
C424 C462 1.389 . S
C425 C424 1.443 . S
C425 C426 1.340 . S
C425 H465 0.951 . S
C426 C425 1.340 . S
C426 C427 1.439 . S
C426 H466 0.950 . S
C427 C426 1.439 . S
C427 N428 1.374 . S
C427 C461 1.395 . S
N428 C424 1.376 . S
N428 C427 1.374 . S
N428 Co429 2.008 . S
Co429 N428 2.008 . S
Co429 N430 1.995 . S
Co429 N435 2.008 . S
Co429 N440 1.995 . S
Co429 N445 2.282 . S
Co429 N451 2.282 . S
N430 Co429 1.995 . S
N430 C431 1.376 . S
N430 C434 1.383 . S
C431 N430 1.376 . S
C431 C432 1.446 . S
C431 C461 1.391 . S
C432 C431 1.446 . S
C432 C433 1.339 . S
C432 H467 0.949 . S
C433 C432 1.339 . S
C433 C434 1.439 . S
C433 H468 0.950 . S
C434 N430 1.383 . S
C434 C433 1.439 . S
C434 C463 1.392 . S
N435 Co429 2.008 . S
N435 C436 1.376 . S
N435 C439 1.374 . S
C436 N435 1.376 . S
C436 C437 1.443 . S
C436 C463 1.389 . S
C437 C436 1.443 . S
C437 C438 1.340 . S
C437 H469 0.951 . S
C438 C437 1.340 . S
C438 C439 1.439 . S
C438 H470 0.950 . S
C439 N435 1.374 . S
C439 C438 1.439 . S
C439 C464 1.395 . S
N440 Co429 1.995 . S
N440 C441 1.376 . S
N440 C444 1.383 . S
C441 N440 1.376 . S
C441 C442 1.446 . S
C441 C464 1.391 . S
C442 C441 1.446 . S
C442 C443 1.339 . S
C442 H471 0.949 . S
C443 C442 1.339 . S
C443 C444 1.439 . S
C443 H472 0.950 . S
C444 N440 1.383 . S
C444 C443 1.439 . S
C444 C462 1.392 . S
N445 Co429 2.282 . S
N445 C448 1.332 . S
N445 C450 1.332 . S
C446 C447 1.386 . S
C446 C449 1.388 . S
C447 C446 1.386 . S
C447 C448 1.382 . S
C447 H473 0.950 . S
C448 N445 1.332 . S
C448 C447 1.382 . S
C448 H459 0.952 . S
C449 C446 1.388 . S
C449 C450 1.382 . S
C449 H474 0.950 . S
C450 N445 1.332 . S
C450 C449 1.382 . S
C450 H460 0.948 . S
N451 Co429 2.282 . S
N451 C455 1.332 . S
N451 C456 1.332 . S
C452 C453 1.388 . S
C452 C456 1.382 . S
C452 H475 0.950 . S
C453 C452 1.388 . S
C453 C454 1.386 . S
C454 C453 1.386 . S
C454 C455 1.382 . S
C454 H476 0.950 . S
C455 N451 1.332 . S
C455 C454 1.382 . S
C455 H457 0.952 . S
C456 N451 1.332 . S
C456 C452 1.382 . S
C456 H458 0.948 . S
H457 C455 0.952 . S
H458 C456 0.948 . S
H459 C448 0.952 . S
H460 C450 0.948 . S
C461 C427 1.395 . S
C461 C431 1.391 . S
C462 C424 1.389 . S
C462 C444 1.392 . S
C463 C434 1.392 . S
C463 C436 1.389 . S
C464 C439 1.395 . S
C464 C441 1.391 . S
H465 C425 0.951 . S
H466 C426 0.950 . S
H467 C432 0.949 . S
H468 C433 0.950 . S
H469 C437 0.951 . S
H470 C438 0.950 . S
H471 C442 0.949 . S
H472 C443 0.950 . S
H473 C447 0.950 . S
H474 C449 0.950 . S
H475 C452 0.950 . S
H476 C454 0.950 . S
C477 C478 1.443 . S
C477 N481 1.376 . S
C477 C515 1.389 . S
C478 C477 1.443 . S
C478 C479 1.340 . S
C478 H518 0.951 . S
C479 C478 1.340 . S
C479 C480 1.439 . S
C479 H519 0.950 . S
C480 C479 1.439 . S
C480 N481 1.374 . S
C480 C514 1.395 . S
N481 C477 1.376 . S
N481 C480 1.374 . S
N481 Co482 2.008 . S
Co482 N481 2.008 . S
Co482 N483 1.995 . S
Co482 N488 2.008 . S
Co482 N493 1.995 . S
Co482 N498 2.282 . S
Co482 N504 2.282 . S
N483 Co482 1.995 . S
N483 C484 1.376 . S
N483 C487 1.383 . S
C484 N483 1.376 . S
C484 C485 1.446 . S
C484 C514 1.391 . S
C485 C484 1.446 . S
C485 C486 1.339 . S
C485 H520 0.949 . S
C486 C485 1.339 . S
C486 C487 1.439 . S
C486 H521 0.950 . S
C487 N483 1.383 . S
C487 C486 1.439 . S
C487 C516 1.392 . S
N488 Co482 2.008 . S
N488 C489 1.376 . S
N488 C492 1.374 . S
C489 N488 1.376 . S
C489 C490 1.443 . S
C489 C516 1.389 . S
C490 C489 1.443 . S
C490 C491 1.340 . S
C490 H522 0.951 . S
C491 C490 1.340 . S
C491 C492 1.439 . S
C491 H523 0.950 . S
C492 N488 1.374 . S
C492 C491 1.439 . S
C492 C517 1.395 . S
N493 Co482 1.995 . S
N493 C494 1.376 . S
N493 C497 1.383 . S
C494 N493 1.376 . S
C494 C495 1.446 . S
C494 C517 1.391 . S
C495 C494 1.446 . S
C495 C496 1.339 . S
C495 H524 0.949 . S
C496 C495 1.339 . S
C496 C497 1.439 . S
C496 H525 0.950 . S
C497 N493 1.383 . S
C497 C496 1.439 . S
C497 C515 1.392 . S
N498 Co482 2.282 . S
N498 C501 1.332 . S
N498 C503 1.332 . S
C499 C500 1.386 . S
C499 C502 1.388 . S
C500 C499 1.386 . S
C500 C501 1.382 . S
C500 H526 0.950 . S
C501 N498 1.332 . S
C501 C500 1.382 . S
C501 H512 0.952 . S
C502 C499 1.388 . S
C502 C503 1.382 . S
C502 H527 0.950 . S
C503 N498 1.332 . S
C503 C502 1.382 . S
C503 H513 0.948 . S
N504 Co482 2.282 . S
N504 C508 1.332 . S
N504 C509 1.332 . S
C505 C506 1.388 . S
C505 C509 1.382 . S
C505 H528 0.950 . S
C506 C505 1.388 . S
C506 C507 1.386 . S
C507 C506 1.386 . S
C507 C508 1.382 . S
C507 H529 0.950 . S
C508 N504 1.332 . S
C508 C507 1.382 . S
C508 H510 0.952 . S
C509 N504 1.332 . S
C509 C505 1.382 . S
C509 H511 0.948 . S
H510 C508 0.952 . S
H511 C509 0.948 . S
H512 C501 0.952 . S
H513 C503 0.948 . S
C514 C480 1.395 . S
C514 C484 1.391 . S
C515 C477 1.389 . S
C515 C497 1.392 . S
C516 C487 1.392 . S
C516 C489 1.389 . S
C517 C492 1.395 . S
C517 C494 1.391 . S
H518 C478 0.951 . S
H519 C479 0.950 . S
H520 C485 0.949 . S
H521 C486 0.950 . S
H522 C490 0.951 . S
H523 C491 0.950 . S
H524 C495 0.949 . S
H525 C496 0.950 . S
H526 C500 0.950 . S
H527 C502 0.950 . S
H528 C505 0.950 . S
H529 C507 0.950 . S
C530 C531 1.443 . S
C530 N534 1.376 . S
C530 C568 1.389 . S
C531 C530 1.443 . S
C531 C532 1.340 . S
C531 H571 0.951 . S
C532 C531 1.340 . S
C532 C533 1.439 . S
C532 H572 0.950 . S
C533 C532 1.439 . S
C533 N534 1.374 . S
C533 C567 1.395 . S
N534 C530 1.376 . S
N534 C533 1.374 . S
N534 Co535 2.008 . S
Co535 N534 2.008 . S
Co535 N536 1.995 . S
Co535 N541 2.008 . S
Co535 N546 1.995 . S
Co535 N551 2.282 . S
Co535 N557 2.282 . S
N536 Co535 1.995 . S
N536 C537 1.376 . S
N536 C540 1.383 . S
C537 N536 1.376 . S
C537 C538 1.446 . S
C537 C567 1.391 . S
C538 C537 1.446 . S
C538 C539 1.339 . S
C538 H573 0.949 . S
C539 C538 1.339 . S
C539 C540 1.439 . S
C539 H574 0.950 . S
C540 N536 1.383 . S
C540 C539 1.439 . S
C540 C569 1.392 . S
N541 Co535 2.008 . S
N541 C542 1.376 . S
N541 C545 1.374 . S
C542 N541 1.376 . S
C542 C543 1.443 . S
C542 C569 1.389 . S
C543 C542 1.443 . S
C543 C544 1.340 . S
C543 H575 0.951 . S
C544 C543 1.340 . S
C544 C545 1.439 . S
C544 H576 0.950 . S
C545 N541 1.374 . S
C545 C544 1.439 . S
C545 C570 1.395 . S
N546 Co535 1.995 . S
N546 C547 1.376 . S
N546 C550 1.383 . S
C547 N546 1.376 . S
C547 C548 1.446 . S
C547 C570 1.391 . S
C548 C547 1.446 . S
C548 C549 1.339 . S
C548 H577 0.949 . S
C549 C548 1.339 . S
C549 C550 1.439 . S
C549 H578 0.950 . S
C550 N546 1.383 . S
C550 C549 1.439 . S
C550 C568 1.392 . S
N551 Co535 2.282 . S
N551 C554 1.332 . S
N551 C556 1.332 . S
C552 C553 1.386 . S
C552 C555 1.388 . S
C553 C552 1.386 . S
C553 C554 1.382 . S
C553 H579 0.950 . S
C554 N551 1.332 . S
C554 C553 1.382 . S
C554 H565 0.952 . S
C555 C552 1.388 . S
C555 C556 1.382 . S
C555 H580 0.950 . S
C556 N551 1.332 . S
C556 C555 1.382 . S
C556 H566 0.948 . S
N557 Co535 2.282 . S
N557 C561 1.332 . S
N557 C562 1.332 . S
C558 C559 1.388 . S
C558 C562 1.382 . S
C558 H581 0.950 . S
C559 C558 1.388 . S
C559 C560 1.386 . S
C560 C559 1.386 . S
C560 C561 1.382 . S
C560 H582 0.950 . S
C561 N557 1.332 . S
C561 C560 1.382 . S
C561 H563 0.952 . S
C562 N557 1.332 . S
C562 C558 1.382 . S
C562 H564 0.948 . S
H563 C561 0.952 . S
H564 C562 0.948 . S
H565 C554 0.952 . S
H566 C556 0.948 . S
C567 C533 1.395 . S
C567 C537 1.391 . S
C568 C530 1.389 . S
C568 C550 1.392 . S
C569 C540 1.392 . S
C569 C542 1.389 . S
C570 C545 1.395 . S
C570 C547 1.391 . S
H571 C531 0.951 . S
H572 C532 0.950 . S
H573 C538 0.949 . S
H574 C539 0.950 . S
H575 C543 0.951 . S
H576 C544 0.950 . S
H577 C548 0.949 . S
H578 C549 0.950 . S
H579 C553 0.950 . S
H580 C555 0.950 . S
H581 C558 0.950 . S
H582 C560 0.950 . S
C583 C584 1.443 . S
C583 N587 1.376 . S
C583 C621 1.389 . S
C584 C583 1.443 . S
C584 C585 1.340 . S
C584 H624 0.951 . S
C585 C584 1.340 . S
C585 C586 1.439 . S
C585 H625 0.950 . S
C586 C585 1.439 . S
C586 N587 1.374 . S
C586 C620 1.395 . S
N587 C583 1.376 . S
N587 C586 1.374 . S
N587 Co588 2.008 . S
Co588 N587 2.008 . S
Co588 N589 1.995 . S
Co588 N594 2.008 . S
Co588 N599 1.995 . S
Co588 N604 2.282 . S
Co588 N610 2.282 . S
N589 Co588 1.995 . S
N589 C590 1.376 . S
N589 C593 1.383 . S
C590 N589 1.376 . S
C590 C591 1.446 . S
C590 C620 1.391 . S
C591 C590 1.446 . S
C591 C592 1.339 . S
C591 H626 0.949 . S
C592 C591 1.339 . S
C592 C593 1.439 . S
C592 H627 0.950 . S
C593 N589 1.383 . S
C593 C592 1.439 . S
C593 C622 1.392 . S
N594 Co588 2.008 . S
N594 C595 1.376 . S
N594 C598 1.374 . S
C595 N594 1.376 . S
C595 C596 1.443 . S
C595 C622 1.389 . S
C596 C595 1.443 . S
C596 C597 1.340 . S
C596 H628 0.951 . S
C597 C596 1.340 . S
C597 C598 1.439 . S
C597 H629 0.950 . S
C598 N594 1.374 . S
C598 C597 1.439 . S
C598 C623 1.395 . S
N599 Co588 1.995 . S
N599 C600 1.376 . S
N599 C603 1.383 . S
C600 N599 1.376 . S
C600 C601 1.446 . S
C600 C623 1.391 . S
C601 C600 1.446 . S
C601 C602 1.339 . S
C601 H630 0.949 . S
C602 C601 1.339 . S
C602 C603 1.439 . S
C602 H631 0.950 . S
C603 N599 1.383 . S
C603 C602 1.439 . S
C603 C621 1.392 . S
N604 Co588 2.282 . S
N604 C607 1.332 . S
N604 C609 1.332 . S
C605 C606 1.386 . S
C605 C608 1.388 . S
C606 C605 1.386 . S
C606 C607 1.382 . S
C606 H632 0.950 . S
C607 N604 1.332 . S
C607 C606 1.382 . S
C607 H618 0.952 . S
C608 C605 1.388 . S
C608 C609 1.382 . S
C608 H633 0.950 . S
C609 N604 1.332 . S
C609 C608 1.382 . S
C609 H619 0.948 . S
N610 Co588 2.282 . S
N610 C614 1.332 . S
N610 C615 1.332 . S
C611 C612 1.388 . S
C611 C615 1.382 . S
C611 H634 0.950 . S
C612 C611 1.388 . S
C612 C613 1.386 . S
C613 C612 1.386 . S
C613 C614 1.382 . S
C613 H635 0.950 . S
C614 N610 1.332 . S
C614 C613 1.382 . S
C614 H616 0.952 . S
C615 N610 1.332 . S
C615 C611 1.382 . S
C615 H617 0.948 . S
H616 C614 0.952 . S
H617 C615 0.948 . S
H618 C607 0.952 . S
H619 C609 0.948 . S
C620 C586 1.395 . S
C620 C590 1.391 . S
C621 C583 1.389 . S
C621 C603 1.392 . S
C622 C593 1.392 . S
C622 C595 1.389 . S
C623 C598 1.395 . S
C623 C600 1.391 . S
H624 C584 0.951 . S
H625 C585 0.950 . S
H626 C591 0.949 . S
H627 C592 0.950 . S
H628 C596 0.951 . S
H629 C597 0.950 . S
H630 C601 0.949 . S
H631 C602 0.950 . S
H632 C606 0.950 . S
H633 C608 0.950 . S
H634 C611 0.950 . S
H635 C613 0.950 . S
C636 C637 1.443 . S
C636 N640 1.376 . S
C636 C674 1.389 . S
C637 C636 1.443 . S
C637 C638 1.340 . S
C637 H677 0.951 . S
C638 C637 1.340 . S
C638 C639 1.439 . S
C638 H678 0.950 . S
C639 C638 1.439 . S
C639 N640 1.374 . S
C639 C673 1.395 . S
N640 C636 1.376 . S
N640 C639 1.374 . S
N640 Co641 2.008 . S
Co641 N640 2.008 . S
Co641 N642 1.995 . S
Co641 N647 2.008 . S
Co641 N652 1.995 . S
Co641 N657 2.282 . S
Co641 N663 2.282 . S
N642 Co641 1.995 . S
N642 C643 1.376 . S
N642 C646 1.383 . S
C643 N642 1.376 . S
C643 C644 1.446 . S
C643 C673 1.391 . S
C644 C643 1.446 . S
C644 C645 1.339 . S
C644 H679 0.949 . S
C645 C644 1.339 . S
C645 C646 1.439 . S
C645 H680 0.950 . S
C646 N642 1.383 . S
C646 C645 1.439 . S
C646 C675 1.392 . S
N647 Co641 2.008 . S
N647 C648 1.376 . S
N647 C651 1.374 . S
C648 N647 1.376 . S
C648 C649 1.443 . S
C648 C675 1.389 . S
C649 C648 1.443 . S
C649 C650 1.340 . S
C649 H681 0.951 . S
C650 C649 1.340 . S
C650 C651 1.439 . S
C650 H682 0.950 . S
C651 N647 1.374 . S
C651 C650 1.439 . S
C651 C676 1.395 . S
N652 Co641 1.995 . S
N652 C653 1.376 . S
N652 C656 1.383 . S
C653 N652 1.376 . S
C653 C654 1.446 . S
C653 C676 1.391 . S
C654 C653 1.446 . S
C654 C655 1.339 . S
C654 H683 0.949 . S
C655 C654 1.339 . S
C655 C656 1.439 . S
C655 H684 0.950 . S
C656 N652 1.383 . S
C656 C655 1.439 . S
C656 C674 1.392 . S
N657 Co641 2.282 . S
N657 C660 1.332 . S
N657 C662 1.332 . S
C658 C659 1.386 . S
C658 C661 1.388 . S
C659 C658 1.386 . S
C659 C660 1.382 . S
C659 H685 0.950 . S
C660 N657 1.332 . S
C660 C659 1.382 . S
C660 H671 0.952 . S
C661 C658 1.388 . S
C661 C662 1.382 . S
C661 H686 0.950 . S
C662 N657 1.332 . S
C662 C661 1.382 . S
C662 H672 0.948 . S
N663 Co641 2.282 . S
N663 C667 1.332 . S
N663 C668 1.332 . S
C664 C665 1.388 . S
C664 C668 1.382 . S
C664 H687 0.950 . S
C665 C664 1.388 . S
C665 C666 1.386 . S
C666 C665 1.386 . S
C666 C667 1.382 . S
C666 H688 0.950 . S
C667 N663 1.332 . S
C667 C666 1.382 . S
C667 H669 0.952 . S
C668 N663 1.332 . S
C668 C664 1.382 . S
C668 H670 0.948 . S
H669 C667 0.952 . S
H670 C668 0.948 . S
H671 C660 0.952 . S
H672 C662 0.948 . S
C673 C639 1.395 . S
C673 C643 1.391 . S
C674 C636 1.389 . S
C674 C656 1.392 . S
C675 C646 1.392 . S
C675 C648 1.389 . S
C676 C651 1.395 . S
C676 C653 1.391 . S
H677 C637 0.951 . S
H678 C638 0.950 . S
H679 C644 0.949 . S
H680 C645 0.950 . S
H681 C649 0.951 . S
H682 C650 0.950 . S
H683 C654 0.949 . S
H684 C655 0.950 . S
H685 C659 0.950 . S
H686 C661 0.950 . S
H687 C664 0.950 . S
H688 C666 0.950 . S
C689 C690 1.443 . S
C689 N693 1.376 . S
C689 C727 1.389 . S
C690 C689 1.443 . S
C690 C691 1.340 . S
C690 H730 0.951 . S
C691 C690 1.340 . S
C691 C692 1.439 . S
C691 H731 0.950 . S
C692 C691 1.439 . S
C692 N693 1.374 . S
C692 C726 1.395 . S
N693 C689 1.376 . S
N693 C692 1.374 . S
N693 Co694 2.008 1_655 S
Co694 N693 2.008 1_455 S
Co694 N695 1.996 1_454 S
Co694 N700 2.008 1_554 S
Co694 N705 1.996 . S
Co694 N710 2.282 1_454 S
Co694 N716 2.282 . S
N695 Co694 1.996 1_656 S
N695 C696 1.389 . S
N695 C699 1.369 1_655 S
C696 N695 1.389 . S
C696 C697 1.446 . S
C696 C726 1.391 1_556 S
C697 C696 1.446 . S
C697 C698 1.339 1_655 S
C697 H732 0.949 . S
C698 C697 1.339 1_455 S
C698 C699 1.439 . S
C698 H733 0.950 . S
C699 N695 1.369 1_455 S
C699 C698 1.439 . S
C699 C728 1.392 . S
N700 Co694 2.008 1_556 S
N700 C701 1.376 . S
N700 C704 1.374 . S
C701 N700 1.376 . S
C701 C702 1.443 . S
C701 C728 1.389 . S
C702 C701 1.443 . S
C702 C703 1.340 . S
C702 H734 0.951 . S
C703 C702 1.340 . S
C703 C704 1.439 . S
C703 H735 0.950 . S
C704 N700 1.374 . S
C704 C703 1.439 . S
C704 C729 1.395 . S
N705 Co694 1.996 . S
N705 C706 1.396 . S
N705 C709 1.361 1_455 S
C706 N705 1.396 . S
C706 C707 1.446 . S
C706 C729 1.391 1_554 S
C707 C706 1.446 . S
C707 C708 1.339 1_455 S
C707 H736 0.949 . S
C708 C707 1.339 1_655 S
C708 C709 1.439 . S
C708 H737 0.950 . S
C709 N705 1.361 1_655 S
C709 C708 1.439 . S
C709 C727 1.392 . S
N710 Co694 2.282 1_656 S
N710 C713 1.332 1_655 S
N710 C715 1.332 . S
C711 C712 1.386 1_655 S
C711 C714 1.388 . S
C712 C711 1.386 1_455 S
C712 C713 1.382 . S
C712 H738 0.950 . S
C713 N710 1.332 1_455 S
C713 C712 1.382 . S
C713 H724 0.952 . S
C714 C711 1.388 . S
C714 C715 1.382 . S
C714 H739 0.950 . S
C715 N710 1.332 . S
C715 C714 1.382 . S
C715 H725 0.948 . S
N716 Co694 2.282 . S
N716 C720 1.332 1_455 S
N716 C721 1.332 . S
C717 C718 1.388 . S
C717 C721 1.382 . S
C717 H740 0.950 . S
C718 C717 1.388 . S
C718 C719 1.386 1_455 S
C719 C718 1.386 1_655 S
C719 C720 1.382 . S
C719 H741 0.950 . S
C720 N716 1.332 1_655 S
C720 C719 1.382 . S
C720 H722 0.952 . S
C721 N716 1.332 . S
C721 C717 1.382 . S
C721 H723 0.948 . S
H722 C720 0.952 . S
H723 C721 0.948 . S
H724 C713 0.952 . S
H725 C715 0.948 . S
C726 C692 1.395 . S
C726 C696 1.391 1_554 S
C727 C689 1.389 . S
C727 C709 1.392 . S
C728 C699 1.392 . S
C728 C701 1.389 . S
C729 C704 1.395 . S
C729 C706 1.391 1_556 S
H730 C690 0.951 . S
H731 C691 0.950 . S
H732 C697 0.949 . S
H733 C698 0.950 . S
H734 C702 0.951 . S
H735 C703 0.950 . S
H736 C707 0.949 . S
H737 C708 0.950 . S
H738 C712 0.950 . S
H739 C714 0.950 . S
H740 C717 0.950 . S
H741 C719 0.950 . S
C742 C743 1.443 . S
C742 N746 1.376 . S
C742 C780 1.389 . S
C743 C742 1.443 . S
C743 C744 1.340 . S
C743 H783 0.951 . S
C744 C743 1.340 . S
C744 C745 1.439 . S
C744 H784 0.950 . S
C745 C744 1.439 . S
C745 N746 1.374 . S
C745 C779 1.399 . S
N746 C742 1.376 . S
N746 C745 1.374 . S
N746 Co747 2.008 . S
Co747 N746 2.008 . S
Co747 N748 1.995 1_554 S
Co747 N753 2.008 1_554 S
Co747 N758 1.995 . S
Co747 N763 2.282 1_554 S
Co747 N769 2.282 . S
N748 Co747 1.995 1_556 S
N748 C749 1.376 . S
N748 C752 1.383 . S
C749 N748 1.376 . S
C749 C750 1.446 . S
C749 C779 1.386 1_556 S
C750 C749 1.446 . S
C750 C751 1.339 . S
C750 H785 0.949 . S
C751 C750 1.339 . S
C751 C752 1.439 . S
C751 H786 0.950 . S
C752 N748 1.383 . S
C752 C751 1.439 . S
C752 C781 1.392 . S
N753 Co747 2.008 1_556 S
N753 C754 1.376 . S
N753 C757 1.374 . S
C754 N753 1.376 . S
C754 C755 1.443 . S
C754 C781 1.389 . S
C755 C754 1.443 . S
C755 C756 1.340 . S
C755 H787 0.951 . S
C756 C755 1.340 . S
C756 C757 1.439 . S
C756 H788 0.950 . S
C757 N753 1.374 . S
C757 C756 1.439 . S
C757 C782 1.397 . S
N758 Co747 1.995 . S
N758 C759 1.376 . S
N758 C762 1.383 . S
C759 N758 1.376 . S
C759 C760 1.446 . S
C759 C782 1.389 1_554 S
C760 C759 1.446 . S
C760 C761 1.339 . S
C760 H789 0.949 . S
C761 C760 1.339 . S
C761 C762 1.439 . S
C761 H790 0.950 . S
C762 N758 1.383 . S
C762 C761 1.439 . S
C762 C780 1.392 . S
N763 Co747 2.282 1_556 S
N763 C766 1.332 . S
N763 C768 1.332 . S
C764 C765 1.386 . S
C764 C767 1.388 . S
C765 C764 1.386 . S
C765 C766 1.382 . S
C765 H791 0.950 . S
C766 N763 1.332 . S
C766 C765 1.382 . S
C766 H777 0.952 . S
C767 C764 1.388 . S
C767 C768 1.382 . S
C767 H792 0.950 . S
C768 N763 1.332 . S
C768 C767 1.382 . S
C768 H778 0.948 . S
N769 Co747 2.282 . S
N769 C773 1.332 . S
N769 C774 1.332 . S
C770 C771 1.388 . S
C770 C774 1.382 . S
C770 H793 0.950 . S
C771 C770 1.388 . S
C771 C772 1.386 . S
C772 C771 1.386 . S
C772 C773 1.382 . S
C772 H794 0.950 . S
C773 N769 1.332 . S
C773 C772 1.382 . S
C773 H775 0.952 . S
C774 N769 1.332 . S
C774 C770 1.382 . S
C774 H776 0.948 . S
H775 C773 0.952 . S
H776 C774 0.948 . S
H777 C766 0.952 . S
H778 C768 0.948 . S
C779 C745 1.399 . S
C779 C749 1.386 1_554 S
C780 C742 1.389 . S
C780 C762 1.392 . S
C781 C752 1.392 . S
C781 C754 1.389 . S
C782 C757 1.397 . S
C782 C759 1.389 1_556 S
H783 C743 0.951 . S
H784 C744 0.950 . S
H785 C750 0.949 . S
H786 C751 0.950 . S
H787 C755 0.951 . S
H788 C756 0.950 . S
H789 C760 0.949 . S
H790 C761 0.950 . S
H791 C765 0.950 . S
H792 C767 0.950 . S
H793 C770 0.950 . S
H794 C772 0.950 . S
C795 C796 1.443 . S
C795 N799 1.376 . S
C795 C833 1.389 . S
C796 C795 1.443 . S
C796 C797 1.340 . S
C796 H836 0.951 . S
C797 C796 1.340 . S
C797 C798 1.439 . S
C797 H837 0.950 . S
C798 C797 1.439 . S
C798 N799 1.374 . S
C798 C832 1.395 . S
N799 C795 1.376 . S
N799 C798 1.374 . S
N799 Co800 2.008 1_655 S
Co800 N799 2.008 1_455 S
Co800 N801 1.997 . S
Co800 N806 2.008 . S
Co800 N811 1.997 1_455 S
Co800 N816 2.282 1_455 S
Co800 N822 2.282 . S
N801 Co800 1.997 . S
N801 C802 1.339 1_455 S
N801 C805 1.419 . S
C802 N801 1.339 1_655 S
C802 C803 1.446 . S
C802 C832 1.391 . S
C803 C802 1.446 . S
C803 C804 1.339 1_655 S
C803 H838 0.949 . S
C804 C803 1.339 1_455 S
C804 C805 1.439 . S
C804 H839 0.950 . S
C805 N801 1.419 . S
C805 C804 1.439 . S
C805 C834 1.392 . S
N806 Co800 2.008 . S
N806 C807 1.376 . S
N806 C810 1.374 . S
C807 N806 1.376 . S
C807 C808 1.443 . S
C807 C834 1.389 . S
C808 C807 1.443 . S
C808 C809 1.340 . S
C808 H840 0.951 . S
C809 C808 1.340 . S
C809 C810 1.439 . S
C809 H841 0.950 . S
C810 N806 1.374 . S
C810 C809 1.439 . S
C810 C835 1.395 . S
N811 Co800 1.997 1_655 S
N811 C812 1.347 1_655 S
N811 C815 1.411 . S
C812 N811 1.347 1_455 S
C812 C813 1.446 . S
C812 C835 1.391 . S
C813 C812 1.446 . S
C813 C814 1.339 1_455 S
C813 H842 0.949 . S
C814 C813 1.339 1_655 S
C814 C815 1.439 . S
C814 H843 0.950 . S
C815 N811 1.411 . S
C815 C814 1.439 . S
C815 C833 1.392 . S
N816 Co800 2.282 1_655 S
N816 C819 1.332 1_655 S
N816 C821 1.332 . S
C817 C818 1.386 1_655 S
C817 C820 1.388 . S
C818 C817 1.386 1_455 S
C818 C819 1.382 . S
C818 H844 0.950 . S
C819 N816 1.332 1_455 S
C819 C818 1.382 . S
C819 H830 0.952 . S
C820 C817 1.388 . S
C820 C821 1.382 . S
C820 H845 0.950 . S
C821 N816 1.332 . S
C821 C820 1.382 . S
C821 H831 0.948 . S
N822 Co800 2.282 . S
N822 C826 1.332 1_455 S
N822 C827 1.332 . S
C823 C824 1.388 . S
C823 C827 1.382 . S
C823 H846 0.950 . S
C824 C823 1.388 . S
C824 C825 1.386 1_455 S
C825 C824 1.386 1_655 S
C825 C826 1.382 . S
C825 H847 0.950 . S
C826 N822 1.332 1_655 S
C826 C825 1.382 . S
C826 H828 0.952 . S
C827 N822 1.332 . S
C827 C823 1.382 . S
C827 H829 0.948 . S
H828 C826 0.952 . S
H829 C827 0.948 . S
H830 C819 0.952 . S
H831 C821 0.948 . S
C832 C798 1.395 . S
C832 C802 1.391 . S
C833 C795 1.389 . S
C833 C815 1.392 . S
C834 C805 1.392 . S
C834 C807 1.389 . S
C835 C810 1.395 . S
C835 C812 1.391 . S
H836 C796 0.951 . S
H837 C797 0.950 . S
H838 C803 0.949 . S
H839 C804 0.950 . S
H840 C808 0.951 . S
H841 C809 0.950 . S
H842 C813 0.949 . S
H843 C814 0.950 . S
H844 C818 0.950 . S
H845 C820 0.950 . S
H846 C823 0.950 . S
H847 C825 0.950 . S
C848 C849 1.349 1_455 S
C848 C850 1.327 . S
C848 H873 0.950 . S
C849 C848 1.349 1_655 S
C849 C865 1.349 1_565 S
C850 C848 1.327 . S
C850 C869 1.429 1_455 S
C850 H874 0.950 . S
C851 C868 1.574 . S
C851 C870 1.368 1_545 S
C851 H875 0.949 . S
H852 C856 0.949 . S
C853 C854 1.349 . S
C853 C855 1.327 . S
C853 H876 0.950 . S
C854 C853 1.349 . S
C854 C866 1.349 1_645 S
C855 C853 1.327 . S
C855 C871 1.429 . S
C855 H877 0.950 . S
C856 H852 0.949 . S
C856 C864 1.574 . S
C856 C872 1.368 1_465 S
H857 C865 0.950 . S
H858 C863 0.950 . S
H859 C864 0.949 . S
H860 C866 0.950 . S
H861 C867 0.950 . S
H862 C868 0.949 . S
C863 H858 0.950 . S
C863 C865 1.327 . S
C863 C869 1.429 1_545 S
C864 C856 1.574 . S
C864 H859 0.949 . S
C864 C870 1.368 1_455 S
C865 C849 1.349 1_545 S
C865 H857 0.950 . S
C865 C863 1.327 . S
C866 C854 1.349 1_465 S
C866 H860 0.950 . S
C866 C867 1.327 . S
C867 H861 0.950 . S
C867 C866 1.327 . S
C867 C871 1.429 1_465 S
C868 C851 1.574 . S
C868 H862 0.949 . S
C868 C872 1.368 . S
C869 C850 1.429 1_655 S
C869 C863 1.429 1_565 S
C869 C870 1.523 . S
C870 C851 1.368 1_565 S
C870 C864 1.368 1_655 S
C870 C869 1.523 . S
C871 C855 1.429 . S
C871 C867 1.429 1_645 S
C871 C872 1.523 . S
C872 C856 1.368 1_645 S
C872 C868 1.368 . S
C872 C871 1.523 . S
H873 C848 0.950 . S
H874 C850 0.950 . S
H875 C851 0.949 . S
H876 C853 0.950 . S
H877 C855 0.950 . S
C878 C879 1.349 . S
C878 C880 1.327 . S
C878 H903 0.950 . S
C879 C878 1.349 . S
C879 C895 1.349 . S
C880 C878 1.327 . S
C880 C899 1.429 . S
C880 H904 0.950 . S
C881 C898 1.574 . S
C881 C900 1.368 . S
C881 H905 0.949 . S
H882 C886 0.949 . S
C883 C884 1.349 . S
C883 C885 1.327 . S
C883 H906 0.950 . S
C884 C883 1.349 . S
C884 C896 1.349 . S
C885 C883 1.327 . S
C885 C901 1.429 . S
C885 H907 0.950 . S
C886 H882 0.949 . S
C886 C894 1.574 . S
C886 C902 1.368 . S
H887 C895 0.950 . S
H888 C893 0.950 . S
H889 C894 0.949 . S
H890 C896 0.950 . S
H891 C897 0.950 . S
H892 C898 0.949 . S
C893 H888 0.950 . S
C893 C895 1.327 . S
C893 C899 1.429 . S
C894 C886 1.574 . S
C894 H889 0.949 . S
C894 C900 1.368 . S
C895 C879 1.349 . S
C895 H887 0.950 . S
C895 C893 1.327 . S
C896 C884 1.349 . S
C896 H890 0.950 . S
C896 C897 1.327 . S
C897 H891 0.950 . S
C897 C896 1.327 . S
C897 C901 1.429 . S
C898 C881 1.574 . S
C898 H892 0.949 . S
C898 C902 1.368 . S
C899 C880 1.429 . S
C899 C893 1.429 . S
C899 C900 1.523 . S
C900 C881 1.368 . S
C900 C894 1.368 . S
C900 C899 1.523 . S
C901 C885 1.429 . S
C901 C897 1.429 . S
C901 C902 1.523 . S
C902 C886 1.368 . S
C902 C898 1.368 . S
C902 C901 1.523 . S
H903 C878 0.950 . S
H904 C880 0.950 . S
H905 C881 0.949 . S
H906 C883 0.950 . S
H907 C885 0.950 . S
C908 C909 1.349 . S
C908 C910 1.327 . S
C908 H933 0.950 . S
C909 C908 1.349 . S
C909 C925 1.349 1_565 S
C910 C908 1.327 . S
C910 C929 1.429 . S
C910 H934 0.950 . S
C911 C928 1.574 . S
C911 C930 1.368 1_545 S
C911 H935 0.949 . S
H912 C916 0.949 . S
C913 C914 1.349 . S
C913 C915 1.327 . S
C913 H936 0.950 . S
C914 C913 1.349 . S
C914 C926 1.349 1_545 S
C915 C913 1.327 . S
C915 C931 1.429 . S
C915 H937 0.950 . S
C916 H912 0.949 . S
C916 C924 1.574 . S
C916 C932 1.370 1_565 S
H917 C925 0.950 . S
H918 C923 0.950 . S
H919 C924 0.949 . S
H920 C926 0.950 . S
H921 C927 0.950 . S
H922 C928 0.949 . S
C923 H918 0.950 . S
C923 C925 1.327 . S
C923 C929 1.429 1_545 S
C924 C916 1.574 . S
C924 H919 0.949 . S
C924 C930 1.368 . S
C925 C909 1.349 1_545 S
C925 H917 0.950 . S
C925 C923 1.327 . S
C926 C914 1.349 1_565 S
C926 H920 0.950 . S
C926 C927 1.327 . S
C927 H921 0.950 . S
C927 C926 1.327 . S
C927 C931 1.429 1_565 S
C928 C911 1.574 . S
C928 H922 0.949 . S
C928 C932 1.366 . S
C929 C910 1.429 . S
C929 C923 1.429 1_565 S
C929 C930 1.523 . S
C930 C911 1.368 1_565 S
C930 C924 1.368 . S
C930 C929 1.523 . S
C931 C915 1.429 . S
C931 C927 1.429 1_545 S
C931 C932 1.523 . S
C932 C916 1.370 1_545 S
C932 C928 1.366 . S
C932 C931 1.523 . S
H933 C908 0.950 . S
H934 C910 0.950 . S
H935 C911 0.949 . S
H936 C913 0.950 . S
H937 C915 0.950 . S
C938 C939 1.349 . S
C938 C940 1.327 . S
C938 H963 0.950 . S
C939 C938 1.349 . S
C939 C955 1.349 . S
C940 C938 1.327 . S
C940 C959 1.429 . S
C940 H964 0.950 . S
C941 C958 1.545 1_556 S
C941 C960 1.381 . S
C941 H965 0.964 . S
H942 C946 0.949 . S
C943 C944 1.349 . S
C943 C945 1.327 . S
C943 H966 0.950 . S
C944 C943 1.349 . S
C944 C956 1.349 . S
C945 C943 1.327 . S
C945 C961 1.429 . S
C945 H967 0.950 . S
C946 H942 0.949 . S
C946 C954 1.574 1_554 S
C946 C962 1.368 . S
H947 C955 0.950 . S
H948 C953 0.950 . S
H949 C954 0.949 . S
H950 C956 0.950 . S
H951 C957 0.950 . S
H952 C958 0.949 . S
C953 H948 0.950 . S
C953 C955 1.327 . S
C953 C959 1.429 . S
C954 C946 1.574 1_556 S
C954 H949 0.949 . S
C954 C960 1.368 . S
C955 C939 1.349 . S
C955 H947 0.950 . S
C955 C953 1.327 . S
C956 C944 1.349 . S
C956 H950 0.950 . S
C956 C957 1.327 . S
C957 H951 0.950 . S
C957 C956 1.327 . S
C957 C961 1.429 . S
C958 C941 1.545 1_554 S
C958 H952 0.949 . S
C958 C962 1.368 . S
C959 C940 1.429 . S
C959 C953 1.429 . S
C959 C960 1.523 . S
C960 C941 1.381 . S
C960 C954 1.368 . S
C960 C959 1.523 . S
C961 C945 1.429 . S
C961 C957 1.429 . S
C961 C962 1.523 . S
C962 C946 1.368 . S
C962 C958 1.368 . S
C962 C961 1.523 . S
H963 C938 0.950 . S
H964 C940 0.950 . S
H965 C941 0.964 . S
H966 C943 0.950 . S
H967 C945 0.950 . S
C968 C969 1.349 1_645 S
C968 C970 1.327 . S
C968 H993 0.950 . S
C969 C968 1.349 1_465 S
C969 C985 1.349 . S
C970 C968 1.327 . S
C970 C989 1.429 1_645 S
C970 H994 0.950 . S
C971 C988 1.574 . S
C971 C990 1.368 . S
C971 H995 0.949 . S
H972 C976 0.949 . S
C973 C974 1.349 1_565 S
C973 C975 1.327 . S
C973 H996 0.950 . S
C974 C973 1.349 1_545 S
C974 C986 1.349 1_455 S
C975 C973 1.327 . S
C975 C991 1.429 1_565 S
C975 H997 0.950 . S
C976 H972 0.949 . S
C976 C984 1.574 . S
C976 C992 1.368 1_655 S
H977 C985 0.950 . S
H978 C983 0.950 . S
H979 C984 0.949 . S
H980 C986 0.950 . S
H981 C987 0.950 . S
H982 C988 0.949 . S
C983 H978 0.950 . S
C983 C985 1.327 . S
C983 C989 1.429 . S
C984 C976 1.574 . S
C984 H979 0.949 . S
C984 C990 1.368 1_645 S
C985 C969 1.349 . S
C985 H977 0.950 . S
C985 C983 1.327 . S
C986 C974 1.349 1_655 S
C986 H980 0.950 . S
C986 C987 1.327 . S
C987 H981 0.950 . S
C987 C986 1.327 . S
C987 C991 1.429 1_655 S
C988 C971 1.574 . S
C988 H982 0.949 . S
C988 C992 1.368 1_565 S
C989 C970 1.429 1_465 S
C989 C983 1.429 . S
C989 C990 1.523 . S
C990 C971 1.368 . S
C990 C984 1.368 1_465 S
C990 C989 1.523 . S
C991 C975 1.429 1_545 S
C991 C987 1.429 1_455 S
C991 C992 1.523 . S
C992 C976 1.368 1_455 S
C992 C988 1.368 1_545 S
C992 C991 1.523 . S
H993 C968 0.950 . S
H994 C970 0.950 . S
H995 C971 0.949 . S
H996 C973 0.950 . S
H997 C975 0.950 . S
C998 C999 1.349 . S
C998 C1000 1.327 . S
C998 H1023 0.950 . S
C999 C998 1.349 . S
C999 C1015 1.349 . S
C1000 C998 1.327 . S
C1000 C1019 1.429 . S
C1000 H1024 0.950 . S
C1001 C1018 1.574 . S
C1001 C1020 1.368 . S
C1001 H1025 0.949 . S
H1002 C1006 0.949 . S
C1003 C1004 1.349 . S
C1003 C1005 1.327 . S
C1003 H1026 0.950 . S
C1004 C1003 1.349 . S
C1004 C1016 1.349 . S
C1005 C1003 1.327 . S
C1005 C1021 1.429 . S
C1005 H1027 0.950 . S
C1006 H1002 0.949 . S
C1006 C1014 1.574 . S
C1006 C1022 1.368 . S
H1007 C1015 0.950 . S
H1008 C1013 0.950 . S
H1009 C1014 0.949 . S
H1010 C1016 0.950 . S
H1011 C1017 0.950 . S
H1012 C1018 0.949 . S
C1013 H1008 0.950 . S
C1013 C1015 1.327 . S
C1013 C1019 1.429 . S
C1014 C1006 1.574 . S
C1014 H1009 0.949 . S
C1014 C1020 1.368 . S
C1015 C999 1.349 . S
C1015 H1007 0.950 . S
C1015 C1013 1.327 . S
C1016 C1004 1.349 . S
C1016 H1010 0.950 . S
C1016 C1017 1.327 . S
C1017 H1011 0.950 . S
C1017 C1016 1.327 . S
C1017 C1021 1.429 . S
C1018 C1001 1.574 . S
C1018 H1012 0.949 . S
C1018 C1022 1.368 . S
C1019 C1000 1.429 . S
C1019 C1013 1.429 . S
C1019 C1020 1.523 . S
C1020 C1001 1.368 . S
C1020 C1014 1.368 . S
C1020 C1019 1.523 . S
C1021 C1005 1.429 . S
C1021 C1017 1.429 . S
C1021 C1022 1.523 . S
C1022 C1006 1.368 . S
C1022 C1018 1.368 . S
C1022 C1021 1.523 . S
H1023 C998 0.950 . S
H1024 C1000 0.950 . S
H1025 C1001 0.949 . S
H1026 C1003 0.950 . S
H1027 C1005 0.950 . S
C1028 C1029 1.349 1_565 S
C1028 C1030 1.327 . S
C1028 H1053 0.950 . S
C1029 C1028 1.349 1_545 S
C1029 C1045 1.349 . S
C1030 C1028 1.327 . S
C1030 C1049 1.429 1_565 S
C1030 H1054 0.950 . S
C1031 C1048 1.574 . S
C1031 C1050 1.368 . S
C1031 H1055 0.949 . S
H1032 C1036 0.949 . S
C1033 C1034 1.349 1_545 S
C1033 C1035 1.327 . S
C1033 H1056 0.950 . S
C1034 C1033 1.349 1_565 S
C1034 C1046 1.349 . S
C1035 C1033 1.327 . S
C1035 C1051 1.429 1_545 S
C1035 H1057 0.950 . S
C1036 H1032 0.949 . S
C1036 C1044 1.574 . S
C1036 C1052 1.366 1_565 S
H1037 C1045 0.950 . S
H1038 C1043 0.950 . S
H1039 C1044 0.949 . S
H1040 C1046 0.950 . S
H1041 C1047 0.950 . S
H1042 C1048 0.949 . S
C1043 H1038 0.950 . S
C1043 C1045 1.327 . S
C1043 C1049 1.429 . S
C1044 C1036 1.574 . S
C1044 H1039 0.949 . S
C1044 C1050 1.368 1_565 S
C1045 C1029 1.349 . S
C1045 H1037 0.950 . S
C1045 C1043 1.327 . S
C1046 C1034 1.349 . S
C1046 H1040 0.950 . S
C1046 C1047 1.327 . S
C1047 H1041 0.950 . S
C1047 C1046 1.327 . S
C1047 C1051 1.429 . S
C1048 C1031 1.574 . S
C1048 H1042 0.949 . S
C1048 C1052 1.370 . S
C1049 C1030 1.429 1_545 S
C1049 C1043 1.429 . S
C1049 C1050 1.523 . S
C1050 C1031 1.368 . S
C1050 C1044 1.368 1_545 S
C1050 C1049 1.523 . S
C1051 C1035 1.429 1_565 S
C1051 C1047 1.429 . S
C1051 C1052 1.523 1_565 S
C1052 C1036 1.366 1_545 S
C1052 C1048 1.370 . S
C1052 C1051 1.523 1_545 S
H1053 C1028 0.950 . S
H1054 C1030 0.950 . S
H1055 C1031 0.949 . S
H1056 C1033 0.950 . S
H1057 C1035 0.950 . S
C1058 C1059 1.349 . S
C1058 C1060 1.327 . S
C1058 H1083 0.950 . S
C1059 C1058 1.349 . S
C1059 C1075 1.349 . S
C1060 C1058 1.327 . S
C1060 C1079 1.429 . S
C1060 H1084 0.950 . S
C1061 C1078 1.574 . S
C1061 C1080 1.368 1_556 S
C1061 H1085 0.949 1_556 S
H1062 C1066 0.949 . S
C1063 C1064 1.349 . S
C1063 C1065 1.327 . S
C1063 H1086 0.950 . S
C1064 C1063 1.349 . S
C1064 C1076 1.349 . S
C1065 C1063 1.327 . S
C1065 C1081 1.429 . S
C1065 H1087 0.950 . S
C1066 H1062 0.949 . S
C1066 C1074 1.574 1_556 S
C1066 C1082 1.368 . S
H1067 C1075 0.950 . S
H1068 C1073 0.950 . S
H1069 C1074 0.949 . S
H1070 C1076 0.950 . S
H1071 C1077 0.950 . S
H1072 C1078 0.949 . S
C1073 H1068 0.950 . S
C1073 C1075 1.327 . S
C1073 C1079 1.429 . S
C1074 C1066 1.574 1_554 S
C1074 H1069 0.949 . S
C1074 C1080 1.368 . S
C1075 C1059 1.349 . S
C1075 H1067 0.950 . S
C1075 C1073 1.327 . S
C1076 C1064 1.349 . S
C1076 H1070 0.950 . S
C1076 C1077 1.327 . S
C1077 H1071 0.950 . S
C1077 C1076 1.327 . S
C1077 C1081 1.429 . S
C1078 C1061 1.574 . S
C1078 H1072 0.949 . S
C1078 C1082 1.368 . S
C1079 C1060 1.429 . S
C1079 C1073 1.429 . S
C1079 C1080 1.523 . S
C1080 C1061 1.368 1_554 S
C1080 C1074 1.368 . S
C1080 C1079 1.523 . S
C1081 C1065 1.429 . S
C1081 C1077 1.429 . S
C1081 C1082 1.523 . S
C1082 C1066 1.368 . S
C1082 C1078 1.368 . S
C1082 C1081 1.523 . S
H1083 C1058 0.950 . S
H1084 C1060 0.950 . S
H1085 C1061 0.949 1_554 S
H1086 C1063 0.950 . S
H1087 C1065 0.950 . S
C1088 C1089 1.349 . S
C1088 C1090 1.327 . S
C1088 H1113 0.950 . S
C1089 C1088 1.349 . S
C1089 C1105 1.349 . S
C1090 C1088 1.327 . S
C1090 C1109 1.429 . S
C1090 H1114 0.950 . S
C1091 C1108 1.574 . S
C1091 C1110 1.368 . S
C1091 H1115 0.949 . S
H1092 C1096 0.949 . S
C1093 C1094 1.349 . S
C1093 C1095 1.327 . S
C1093 H1116 0.950 . S
C1094 C1093 1.349 . S
C1094 C1106 1.349 . S
C1095 C1093 1.327 . S
C1095 C1111 1.429 . S
C1095 H1117 0.950 . S
C1096 H1092 0.949 . S
C1096 C1104 1.574 . S
C1096 C1112 1.368 . S
H1097 C1105 0.950 . S
H1098 C1103 0.950 . S
H1099 C1104 0.949 . S
H1100 C1106 0.950 . S
H1101 C1107 0.950 . S
H1102 C1108 0.949 . S
C1103 H1098 0.950 . S
C1103 C1105 1.327 . S
C1103 C1109 1.429 . S
C1104 C1096 1.574 . S
C1104 H1099 0.949 . S
C1104 C1110 1.368 . S
C1105 C1089 1.349 . S
C1105 H1097 0.950 . S
C1105 C1103 1.327 . S
C1106 C1094 1.349 . S
C1106 H1100 0.950 . S
C1106 C1107 1.327 . S
C1107 H1101 0.950 . S
C1107 C1106 1.327 . S
C1107 C1111 1.429 . S
C1108 C1091 1.574 . S
C1108 H1102 0.949 . S
C1108 C1112 1.368 . S
C1109 C1090 1.429 . S
C1109 C1103 1.429 . S
C1109 C1110 1.523 . S
C1110 C1091 1.368 . S
C1110 C1104 1.368 . S
C1110 C1109 1.523 . S
C1111 C1095 1.429 . S
C1111 C1107 1.429 . S
C1111 C1112 1.523 . S
C1112 C1096 1.368 . S
C1112 C1108 1.368 . S
C1112 C1111 1.523 . S
H1113 C1088 0.950 . S
H1114 C1090 0.950 . S
H1115 C1091 0.949 . S
H1116 C1093 0.950 . S
H1117 C1095 0.950 . S
C1118 C1119 1.349 . S
C1118 C1120 1.327 . S
C1118 H1143 0.950 . S
C1119 C1118 1.349 . S
C1119 C1135 1.349 . S
C1120 C1118 1.327 . S
C1120 C1139 1.429 . S
C1120 H1144 0.950 . S
C1121 C1138 1.574 1_556 S
C1121 C1140 1.368 . S
C1121 H1145 0.949 . S
H1122 C1126 0.949 . S
C1123 C1124 1.349 . S
C1123 C1125 1.327 . S
C1123 H1146 0.950 . S
C1124 C1123 1.349 . S
C1124 C1136 1.349 . S
C1125 C1123 1.327 . S
C1125 C1141 1.429 . S
C1125 H1147 0.950 . S
C1126 H1122 0.949 . S
C1126 C1134 1.574 1_554 S
C1126 C1142 1.368 . S
H1127 C1135 0.950 . S
H1128 C1133 0.950 . S
H1129 C1134 0.949 . S
H1130 C1136 0.950 . S
H1131 C1137 0.950 . S
H1132 C1138 0.949 . S
C1133 H1128 0.950 . S
C1133 C1135 1.327 . S
C1133 C1139 1.429 . S
C1134 C1126 1.574 1_556 S
C1134 H1129 0.949 . S
C1134 C1140 1.368 . S
C1135 C1119 1.349 . S
C1135 H1127 0.950 . S
C1135 C1133 1.327 . S
C1136 C1124 1.349 . S
C1136 H1130 0.950 . S
C1136 C1137 1.327 . S
C1137 H1131 0.950 . S
C1137 C1136 1.327 . S
C1137 C1141 1.429 . S
C1138 C1121 1.574 1_554 S
C1138 H1132 0.949 . S
C1138 C1142 1.368 . S
C1139 C1120 1.429 . S
C1139 C1133 1.429 . S
C1139 C1140 1.523 . S
C1140 C1121 1.368 . S
C1140 C1134 1.368 . S
C1140 C1139 1.523 . S
C1141 C1125 1.429 . S
C1141 C1137 1.429 . S
C1141 C1142 1.523 . S
C1142 C1126 1.368 . S
C1142 C1138 1.368 . S
C1142 C1141 1.523 . S
H1143 C1118 0.950 . S
H1144 C1120 0.950 . S
H1145 C1121 0.949 . S
H1146 C1123 0.950 . S
H1147 C1125 0.950 . S
C1148 C1149 1.349 . S
C1148 C1150 1.327 . S
C1148 H1173 0.950 . S
C1149 C1148 1.349 . S
C1149 C1165 1.349 1_455 S
C1150 C1148 1.327 . S
C1150 C1169 1.429 . S
C1150 H1174 0.950 . S
C1151 C1168 1.574 . S
C1151 C1170 1.368 1_655 S
C1151 H1175 0.949 . S
H1152 C1156 0.949 . S
C1153 C1154 1.349 1_655 S
C1153 C1155 1.327 . S
C1153 H1176 0.950 . S
C1154 C1153 1.349 1_455 S
C1154 C1166 1.349 . S
C1155 C1153 1.327 . S
C1155 C1171 1.429 1_655 S
C1155 H1177 0.950 . S
C1156 H1152 0.949 . S
C1156 C1164 1.574 . S
C1156 C1172 1.368 . S
H1157 C1165 0.950 . S
H1158 C1163 0.950 . S
H1159 C1164 0.949 . S
H1160 C1166 0.950 . S
H1161 C1167 0.950 . S
H1162 C1168 0.949 . S
C1163 H1158 0.950 . S
C1163 C1165 1.327 . S
C1163 C1169 1.429 1_655 S
C1164 C1156 1.574 . S
C1164 H1159 0.949 . S
C1164 C1170 1.368 . S
C1165 C1149 1.349 1_655 S
C1165 H1157 0.950 . S
C1165 C1163 1.327 . S
C1166 C1154 1.349 . S
C1166 H1160 0.950 . S
C1166 C1167 1.327 . S
C1167 H1161 0.950 . S
C1167 C1166 1.327 . S
C1167 C1171 1.429 . S
C1168 C1151 1.574 . S
C1168 H1162 0.949 . S
C1168 C1172 1.368 1_655 S
C1169 C1150 1.429 . S
C1169 C1163 1.429 1_455 S
C1169 C1170 1.523 . S
C1170 C1151 1.368 1_455 S
C1170 C1164 1.368 . S
C1170 C1169 1.523 . S
C1171 C1155 1.429 1_455 S
C1171 C1167 1.429 . S
C1171 C1172 1.523 . S
C1172 C1156 1.368 . S
C1172 C1168 1.368 1_455 S
C1172 C1171 1.523 . S
H1173 C1148 0.950 . S
H1174 C1150 0.950 . S
H1175 C1151 0.949 . S
H1176 C1153 0.950 . S
H1177 C1155 0.950 . S
C1178 C1179 1.349 . S
C1178 C1180 1.327 . S
C1178 H1203 0.950 . S
C1179 C1178 1.349 . S
C1179 C1195 1.349 . S
C1180 C1178 1.327 . S
C1180 C1199 1.429 . S
C1180 H1204 0.950 . S
C1181 C1198 1.574 . S
C1181 C1200 1.368 . S
C1181 H1205 0.949 . S
H1182 C1186 0.949 . S
C1183 C1184 1.349 . S
C1183 C1185 1.327 . S
C1183 H1206 0.950 . S
C1184 C1183 1.349 . S
C1184 C1196 1.349 . S
C1185 C1183 1.327 . S
C1185 C1201 1.429 . S
C1185 H1207 0.950 . S
C1186 H1182 0.949 . S
C1186 C1194 1.574 . S
C1186 C1202 1.368 . S
H1187 C1195 0.950 . S
H1188 C1193 0.950 . S
H1189 C1194 0.949 . S
H1190 C1196 0.950 . S
H1191 C1197 0.950 . S
H1192 C1198 0.949 . S
C1193 H1188 0.950 . S
C1193 C1195 1.327 . S
C1193 C1199 1.429 . S
C1194 C1186 1.574 . S
C1194 H1189 0.949 . S
C1194 C1200 1.368 . S
C1195 C1179 1.349 . S
C1195 H1187 0.950 . S
C1195 C1193 1.327 . S
C1196 C1184 1.349 . S
C1196 H1190 0.950 . S
C1196 C1197 1.327 . S
C1197 H1191 0.950 . S
C1197 C1196 1.327 . S
C1197 C1201 1.429 . S
C1198 C1181 1.574 . S
C1198 H1192 0.949 . S
C1198 C1202 1.368 . S
C1199 C1180 1.429 . S
C1199 C1193 1.429 . S
C1199 C1200 1.523 . S
C1200 C1181 1.368 . S
C1200 C1194 1.368 . S
C1200 C1199 1.523 . S
C1201 C1185 1.429 . S
C1201 C1197 1.429 . S
C1201 C1202 1.523 . S
C1202 C1186 1.368 . S
C1202 C1198 1.368 . S
C1202 C1201 1.523 . S
H1203 C1178 0.950 . S
H1204 C1180 0.950 . S
H1205 C1181 0.949 . S
H1206 C1183 0.950 . S
H1207 C1185 0.950 . S
C1208 C1209 1.349 . S
C1208 C1210 1.327 . S
C1208 H1233 0.950 . S
C1209 C1208 1.349 . S
C1209 C1225 1.349 . S
C1210 C1208 1.327 . S
C1210 C1229 1.429 . S
C1210 H1234 0.950 . S
C1211 C1228 1.574 . S
C1211 C1230 1.368 . S
C1211 H1235 0.949 . S
H1212 C1216 0.949 . S
C1213 C1214 1.349 . S
C1213 C1215 1.327 . S
C1213 H1236 0.950 . S
C1214 C1213 1.349 . S
C1214 C1226 1.349 . S
C1215 C1213 1.327 . S
C1215 C1231 1.429 . S
C1215 H1237 0.950 . S
C1216 H1212 0.949 . S
C1216 C1224 1.574 . S
C1216 C1232 1.368 . S
H1217 C1225 0.950 . S
H1218 C1223 0.950 . S
H1219 C1224 0.949 . S
H1220 C1226 0.950 . S
H1221 C1227 0.950 . S
H1222 C1228 0.949 . S
C1223 H1218 0.950 . S
C1223 C1225 1.327 . S
C1223 C1229 1.429 . S
C1224 C1216 1.574 . S
C1224 H1219 0.949 . S
C1224 C1230 1.368 . S
C1225 C1209 1.349 . S
C1225 H1217 0.950 . S
C1225 C1223 1.327 . S
C1226 C1214 1.349 . S
C1226 H1220 0.950 . S
C1226 C1227 1.327 . S
C1227 H1221 0.950 . S
C1227 C1226 1.327 . S
C1227 C1231 1.429 . S
C1228 C1211 1.574 . S
C1228 H1222 0.949 . S
C1228 C1232 1.368 . S
C1229 C1210 1.429 . S
C1229 C1223 1.429 . S
C1229 C1230 1.523 . S
C1230 C1211 1.368 . S
C1230 C1224 1.368 . S
C1230 C1229 1.523 . S
C1231 C1215 1.429 . S
C1231 C1227 1.429 . S
C1231 C1232 1.523 . S
C1232 C1216 1.368 . S
C1232 C1228 1.368 . S
C1232 C1231 1.523 . S
H1233 C1208 0.950 . S
H1234 C1210 0.950 . S
H1235 C1211 0.949 . S
H1236 C1213 0.950 . S
H1237 C1215 0.950 . S
C1238 C1239 1.349 . S
C1238 C1240 1.327 . S
C1238 H1263 0.950 . S
C1239 C1238 1.349 . S
C1239 C1255 1.349 . S
C1240 C1238 1.327 . S
C1240 C1259 1.429 . S
C1240 H1264 0.950 . S
C1241 C1258 1.574 1_554 S
C1241 C1260 1.368 . S
C1241 H1265 0.949 . S
H1242 C1246 0.949 . S
C1243 C1244 1.349 . S
C1243 C1245 1.327 . S
C1243 H1266 0.950 . S
C1244 C1243 1.349 . S
C1244 C1256 1.349 . S
C1245 C1243 1.327 . S
C1245 C1261 1.429 . S
C1245 H1267 0.950 . S
C1246 H1242 0.949 . S
C1246 C1254 1.574 1_556 S
C1246 C1262 1.368 . S
H1247 C1255 0.950 . S
H1248 C1253 0.950 . S
H1249 C1254 0.949 . S
H1250 C1256 0.950 . S
H1251 C1257 0.950 . S
H1252 C1258 0.949 . S
C1253 H1248 0.950 . S
C1253 C1255 1.327 . S
C1253 C1259 1.429 . S
C1254 C1246 1.574 1_554 S
C1254 H1249 0.949 . S
C1254 C1260 1.368 . S
C1255 C1239 1.349 . S
C1255 H1247 0.950 . S
C1255 C1253 1.327 . S
C1256 C1244 1.349 . S
C1256 H1250 0.950 . S
C1256 C1257 1.327 . S
C1257 H1251 0.950 . S
C1257 C1256 1.327 . S
C1257 C1261 1.429 . S
C1258 C1241 1.574 1_556 S
C1258 H1252 0.949 . S
C1258 C1262 1.368 . S
C1259 C1240 1.429 . S
C1259 C1253 1.429 . S
C1259 C1260 1.523 . S
C1260 C1241 1.368 . S
C1260 C1254 1.368 . S
C1260 C1259 1.523 . S
C1261 C1245 1.429 . S
C1261 C1257 1.429 . S
C1261 C1262 1.523 . S
C1262 C1246 1.368 . S
C1262 C1258 1.368 . S
C1262 C1261 1.523 . S
H1263 C1238 0.950 . S
H1264 C1240 0.950 . S
H1265 C1241 0.949 . S
H1266 C1243 0.950 . S
H1267 C1245 0.950 . S
C1268 C1269 1.349 1_455 S
C1268 C1270 1.327 . S
C1268 H1293 0.950 . S
C1269 C1268 1.349 1_655 S
C1269 C1285 1.349 . S
C1270 C1268 1.327 . S
C1270 C1289 1.429 1_455 S
C1270 H1294 0.950 . S
C1271 C1288 1.574 . S
C1271 C1290 1.368 . S
C1271 H1295 0.949 . S
H1272 C1276 0.949 . S
C1273 C1274 1.349 . S
C1273 C1275 1.327 . S
C1273 H1296 0.950 . S
C1274 C1273 1.349 . S
C1274 C1286 1.349 1_655 S
C1275 C1273 1.327 . S
C1275 C1291 1.429 . S
C1275 H1297 0.950 . S
C1276 H1272 0.949 . S
C1276 C1284 1.574 . S
C1276 C1292 1.368 1_455 S
H1277 C1285 0.950 . S
H1278 C1283 0.950 . S
H1279 C1284 0.949 . S
H1280 C1286 0.950 . S
H1281 C1287 0.950 . S
H1282 C1288 0.949 . S
C1283 H1278 0.950 . S
C1283 C1285 1.327 . S
C1283 C1289 1.429 . S
C1284 C1276 1.574 . S
C1284 H1279 0.949 . S
C1284 C1290 1.368 1_455 S
C1285 C1269 1.349 . S
C1285 H1277 0.950 . S
C1285 C1283 1.327 . S
C1286 C1274 1.349 1_455 S
C1286 H1280 0.950 . S
C1286 C1287 1.327 . S
C1287 H1281 0.950 . S
C1287 C1286 1.327 . S
C1287 C1291 1.429 1_455 S
C1288 C1271 1.574 . S
C1288 H1282 0.949 . S
C1288 C1292 1.368 . S
C1289 C1270 1.429 1_655 S
C1289 C1283 1.429 . S
C1289 C1290 1.523 . S
C1290 C1271 1.368 . S
C1290 C1284 1.368 1_655 S
C1290 C1289 1.523 . S
C1291 C1275 1.429 . S
C1291 C1287 1.429 1_655 S
C1291 C1292 1.523 . S
C1292 C1276 1.368 1_655 S
C1292 C1288 1.368 . S
C1292 C1291 1.523 . S
H1293 C1268 0.950 . S
H1294 C1270 0.950 . S
H1295 C1271 0.949 . S
H1296 C1273 0.950 . S
H1297 C1275 0.950 . S
C1298 C1299 1.349 . S
C1298 C1300 1.327 . S
C1298 H1323 0.950 . S
C1299 C1298 1.349 . S
C1299 C1315 1.349 . S
C1300 C1298 1.327 . S
C1300 C1319 1.429 . S
C1300 H1324 0.950 . S
C1301 C1318 1.574 . S
C1301 C1320 1.368 . S
C1301 H1325 0.949 . S
H1302 C1306 0.949 . S
C1303 C1304 1.349 . S
C1303 C1305 1.327 . S
C1303 H1326 0.950 . S
C1304 C1303 1.349 . S
C1304 C1316 1.349 . S
C1305 C1303 1.327 . S
C1305 C1321 1.429 . S
C1305 H1327 0.950 . S
C1306 H1302 0.949 . S
C1306 C1314 1.574 . S
C1306 C1322 1.368 . S
H1307 C1315 0.950 . S
H1308 C1313 0.950 . S
H1309 C1314 0.949 . S
H1310 C1316 0.950 . S
H1311 C1317 0.950 . S
H1312 C1318 0.949 . S
C1313 H1308 0.950 . S
C1313 C1315 1.327 . S
C1313 C1319 1.429 . S
C1314 C1306 1.574 . S
C1314 H1309 0.949 . S
C1314 C1320 1.368 . S
C1315 C1299 1.349 . S
C1315 H1307 0.950 . S
C1315 C1313 1.327 . S
C1316 C1304 1.349 . S
C1316 H1310 0.950 . S
C1316 C1317 1.327 . S
C1317 H1311 0.950 . S
C1317 C1316 1.327 . S
C1317 C1321 1.429 . S
C1318 C1301 1.574 . S
C1318 H1312 0.949 . S
C1318 C1322 1.368 . S
C1319 C1300 1.429 . S
C1319 C1313 1.429 . S
C1319 C1320 1.523 . S
C1320 C1301 1.368 . S
C1320 C1314 1.368 . S
C1320 C1319 1.523 . S
C1321 C1305 1.429 . S
C1321 C1317 1.429 . S
C1321 C1322 1.523 . S
C1322 C1306 1.368 . S
C1322 C1318 1.368 . S
C1322 C1321 1.523 . S
H1323 C1298 0.950 . S
H1324 C1300 0.950 . S
H1325 C1301 0.949 . S
H1326 C1303 0.950 . S
H1327 C1305 0.950 . S
C1328 C1329 1.349 . S
C1328 C1330 1.327 . S
C1328 H1353 0.950 . S
C1329 C1328 1.349 . S
C1329 C1345 1.349 . S
C1330 C1328 1.327 . S
C1330 C1349 1.429 . S
C1330 H1354 0.950 . S
C1331 C1348 1.574 . S
C1331 C1350 1.368 . S
C1331 H1355 0.949 . S
H1332 C1336 0.949 . S
C1333 C1334 1.349 . S
C1333 C1335 1.327 . S
C1333 H1356 0.950 . S
C1334 C1333 1.349 . S
C1334 C1346 1.349 . S
C1335 C1333 1.327 . S
C1335 C1351 1.429 . S
C1335 H1357 0.950 . S
C1336 H1332 0.949 . S
C1336 C1344 1.574 . S
C1336 C1352 1.368 . S
H1337 C1345 0.950 . S
H1338 C1343 0.950 . S
H1339 C1344 0.949 . S
H1340 C1346 0.950 . S
H1341 C1347 0.950 . S
H1342 C1348 0.949 . S
C1343 H1338 0.950 . S
C1343 C1345 1.327 . S
C1343 C1349 1.429 . S
C1344 C1336 1.574 . S
C1344 H1339 0.949 . S
C1344 C1350 1.368 . S
C1345 C1329 1.349 . S
C1345 H1337 0.950 . S
C1345 C1343 1.327 . S
C1346 C1334 1.349 . S
C1346 H1340 0.950 . S
C1346 C1347 1.327 . S
C1347 H1341 0.950 . S
C1347 C1346 1.327 . S
C1347 C1351 1.429 . S
C1348 C1331 1.574 . S
C1348 H1342 0.949 . S
C1348 C1352 1.368 . S
C1349 C1330 1.429 . S
C1349 C1343 1.429 . S
C1349 C1350 1.523 . S
C1350 C1331 1.368 . S
C1350 C1344 1.368 . S
C1350 C1349 1.523 . S
C1351 C1335 1.429 . S
C1351 C1347 1.429 . S
C1351 C1352 1.523 . S
C1352 C1336 1.368 . S
C1352 C1348 1.368 . S
C1352 C1351 1.523 . S
H1353 C1328 0.950 . S
H1354 C1330 0.950 . S
H1355 C1331 0.949 . S
H1356 C1333 0.950 . S
H1357 C1335 0.950 . S
C1358 C1359 1.349 . S
C1358 C1360 1.327 . S
C1358 H1383 0.950 . S
C1359 C1358 1.349 . S
C1359 C1375 1.349 . S
C1360 C1358 1.327 . S
C1360 C1379 1.429 . S
C1360 H1384 0.950 . S
C1361 C1378 1.574 . S
C1361 C1380 1.368 . S
C1361 H1385 0.949 . S
H1362 C1366 0.949 . S
C1363 C1364 1.349 . S
C1363 C1365 1.327 . S
C1363 H1386 0.950 . S
C1364 C1363 1.349 . S
C1364 C1376 1.349 . S
C1365 C1363 1.327 . S
C1365 C1381 1.429 . S
C1365 H1387 0.950 . S
C1366 H1362 0.949 . S
C1366 C1374 1.574 . S
C1366 C1382 1.368 . S
H1367 C1375 0.950 . S
H1368 C1373 0.950 . S
H1369 C1374 0.949 . S
H1370 C1376 0.950 . S
H1371 C1377 0.950 . S
H1372 C1378 0.949 . S
C1373 H1368 0.950 . S
C1373 C1375 1.327 . S
C1373 C1379 1.429 . S
C1374 C1366 1.574 . S
C1374 H1369 0.949 . S
C1374 C1380 1.368 . S
C1375 C1359 1.349 . S
C1375 H1367 0.950 . S
C1375 C1373 1.327 . S
C1376 C1364 1.349 . S
C1376 H1370 0.950 . S
C1376 C1377 1.327 . S
C1377 H1371 0.950 . S
C1377 C1376 1.327 . S
C1377 C1381 1.429 . S
C1378 C1361 1.574 . S
C1378 H1372 0.949 . S
C1378 C1382 1.368 . S
C1379 C1360 1.429 . S
C1379 C1373 1.429 . S
C1379 C1380 1.523 . S
C1380 C1361 1.368 . S
C1380 C1374 1.368 . S
C1380 C1379 1.523 . S
C1381 C1365 1.429 . S
C1381 C1377 1.429 . S
C1381 C1382 1.523 . S
C1382 C1366 1.368 . S
C1382 C1378 1.368 . S
C1382 C1381 1.523 . S
H1383 C1358 0.950 . S
H1384 C1360 0.950 . S
H1385 C1361 0.949 . S
H1386 C1363 0.950 . S
H1387 C1365 0.950 . S
C1388 C1389 1.349 . S
C1388 C1390 1.327 . S
C1388 H1413 0.950 . S
C1389 C1388 1.349 . S
C1389 C1405 1.349 . S
C1390 C1388 1.327 . S
C1390 C1409 1.429 . S
C1390 H1414 0.950 . S
C1391 C1408 1.574 . S
C1391 C1410 1.368 . S
C1391 H1415 0.949 . S
H1392 C1396 0.949 . S
C1393 C1394 1.349 . S
C1393 C1395 1.327 . S
C1393 H1416 0.950 . S
C1394 C1393 1.349 . S
C1394 C1406 1.349 . S
C1395 C1393 1.327 . S
C1395 C1411 1.429 . S
C1395 H1417 0.950 . S
C1396 H1392 0.949 . S
C1396 C1404 1.574 . S
C1396 C1412 1.368 . S
H1397 C1405 0.950 . S
H1398 C1403 0.950 . S
H1399 C1404 0.949 . S
H1400 C1406 0.950 . S
H1401 C1407 0.950 . S
H1402 C1408 0.949 . S
C1403 H1398 0.950 . S
C1403 C1405 1.327 . S
C1403 C1409 1.429 . S
C1404 C1396 1.574 . S
C1404 H1399 0.949 . S
C1404 C1410 1.368 . S
C1405 C1389 1.349 . S
C1405 H1397 0.950 . S
C1405 C1403 1.327 . S
C1406 C1394 1.349 . S
C1406 H1400 0.950 . S
C1406 C1407 1.327 . S
C1407 H1401 0.950 . S
C1407 C1406 1.327 . S
C1407 C1411 1.429 . S
C1408 C1391 1.574 . S
C1408 H1402 0.949 . S
C1408 C1412 1.368 . S
C1409 C1390 1.429 . S
C1409 C1403 1.429 . S
C1409 C1410 1.523 . S
C1410 C1391 1.368 . S
C1410 C1404 1.368 . S
C1410 C1409 1.523 . S
C1411 C1395 1.429 . S
C1411 C1407 1.429 . S
C1411 C1412 1.523 . S
C1412 C1396 1.368 . S
C1412 C1408 1.368 . S
C1412 C1411 1.523 . S
H1413 C1388 0.950 . S
H1414 C1390 0.950 . S
H1415 C1391 0.949 . S
H1416 C1393 0.950 . S
H1417 C1395 0.950 . S
C1418 C1419 1.349 . S
C1418 C1420 1.327 . S
C1418 H1443 0.950 . S
C1419 C1418 1.349 . S
C1419 C1435 1.349 . S
C1420 C1418 1.327 . S
C1420 C1439 1.429 . S
C1420 H1444 0.950 . S
C1421 C1438 1.574 . S
C1421 C1440 1.368 . S
C1421 H1445 0.949 . S
H1422 C1426 0.949 . S
C1423 C1424 1.349 . S
C1423 C1425 1.327 . S
C1423 H1446 0.950 . S
C1424 C1423 1.349 . S
C1424 C1436 1.349 . S
C1425 C1423 1.327 . S
C1425 C1441 1.429 . S
C1425 H1447 0.950 . S
C1426 H1422 0.949 . S
C1426 C1434 1.574 . S
C1426 C1442 1.368 . S
H1427 C1435 0.950 . S
H1428 C1433 0.950 . S
H1429 C1434 0.949 . S
H1430 C1436 0.950 . S
H1431 C1437 0.950 . S
H1432 C1438 0.949 . S
C1433 H1428 0.950 . S
C1433 C1435 1.327 . S
C1433 C1439 1.429 . S
C1434 C1426 1.574 . S
C1434 H1429 0.949 . S
C1434 C1440 1.368 . S
C1435 C1419 1.349 . S
C1435 H1427 0.950 . S
C1435 C1433 1.327 . S
C1436 C1424 1.349 . S
C1436 H1430 0.950 . S
C1436 C1437 1.327 . S
C1437 H1431 0.950 . S
C1437 C1436 1.327 . S
C1437 C1441 1.429 . S
C1438 C1421 1.574 . S
C1438 H1432 0.949 . S
C1438 C1442 1.368 . S
C1439 C1420 1.429 . S
C1439 C1433 1.429 . S
C1439 C1440 1.523 . S
C1440 C1421 1.368 . S
C1440 C1434 1.368 . S
C1440 C1439 1.523 . S
C1441 C1425 1.429 . S
C1441 C1437 1.429 . S
C1441 C1442 1.523 . S
C1442 C1426 1.368 . S
C1442 C1438 1.368 . S
C1442 C1441 1.523 . S
H1443 C1418 0.950 . S
H1444 C1420 0.950 . S
H1445 C1421 0.949 . S
H1446 C1423 0.950 . S
H1447 C1425 0.950 . S
C1448 C1449 1.349 . S
C1448 C1450 1.327 . S
C1448 H1473 0.950 . S
C1449 C1448 1.349 . S
C1449 C1465 1.349 . S
C1450 C1448 1.327 . S
C1450 C1469 1.429 . S
C1450 H1474 0.950 . S
C1451 C1468 1.574 . S
C1451 C1470 1.368 . S
C1451 H1475 0.949 . S
H1452 C1456 0.949 . S
C1453 C1454 1.349 . S
C1453 C1455 1.327 . S
C1453 H1476 0.950 . S
C1454 C1453 1.349 . S
C1454 C1466 1.349 . S
C1455 C1453 1.327 . S
C1455 C1471 1.429 . S
C1455 H1477 0.950 . S
C1456 H1452 0.949 . S
C1456 C1464 1.574 . S
C1456 C1472 1.368 . S
H1457 C1465 0.950 . S
H1458 C1463 0.950 . S
H1459 C1464 0.949 . S
H1460 C1466 0.950 . S
H1461 C1467 0.950 . S
H1462 C1468 0.949 . S
C1463 H1458 0.950 . S
C1463 C1465 1.327 . S
C1463 C1469 1.429 . S
C1464 C1456 1.574 . S
C1464 H1459 0.949 . S
C1464 C1470 1.368 . S
C1465 C1449 1.349 . S
C1465 H1457 0.950 . S
C1465 C1463 1.327 . S
C1466 C1454 1.349 . S
C1466 H1460 0.950 . S
C1466 C1467 1.327 . S
C1467 H1461 0.950 . S
C1467 C1466 1.327 . S
C1467 C1471 1.429 . S
C1468 C1451 1.574 . S
C1468 H1462 0.949 . S
C1468 C1472 1.368 . S
C1469 C1450 1.429 . S
C1469 C1463 1.429 . S
C1469 C1470 1.523 . S
C1470 C1451 1.368 . S
C1470 C1464 1.368 . S
C1470 C1469 1.523 . S
C1471 C1455 1.429 . S
C1471 C1467 1.429 . S
C1471 C1472 1.523 . S
C1472 C1456 1.368 . S
C1472 C1468 1.368 . S
C1472 C1471 1.523 . S
H1473 C1448 0.950 . S
H1474 C1450 0.950 . S
H1475 C1451 0.949 . S
H1476 C1453 0.950 . S
H1477 C1455 0.950 . S
C1478 C1479 1.349 . S
C1478 C1480 1.327 . S
C1478 H1503 0.950 . S
C1479 C1478 1.349 . S
C1479 C1495 1.349 . S
C1480 C1478 1.327 . S
C1480 C1499 1.429 . S
C1480 H1504 0.950 . S
C1481 C1498 1.574 . S
C1481 C1500 1.368 . S
C1481 H1505 0.949 . S
H1482 C1486 0.949 . S
C1483 C1484 1.349 . S
C1483 C1485 1.327 . S
C1483 H1506 0.950 . S
C1484 C1483 1.349 . S
C1484 C1496 1.349 . S
C1485 C1483 1.327 . S
C1485 C1501 1.429 . S
C1485 H1507 0.950 . S
C1486 H1482 0.949 . S
C1486 C1494 1.574 . S
C1486 C1502 1.368 . S
H1487 C1495 0.950 . S
H1488 C1493 0.950 . S
H1489 C1494 0.949 . S
H1490 C1496 0.950 . S
H1491 C1497 0.950 . S
H1492 C1498 0.949 . S
C1493 H1488 0.950 . S
C1493 C1495 1.327 . S
C1493 C1499 1.429 . S
C1494 C1486 1.574 . S
C1494 H1489 0.949 . S
C1494 C1500 1.368 . S
C1495 C1479 1.349 . S
C1495 H1487 0.950 . S
C1495 C1493 1.327 . S
C1496 C1484 1.349 . S
C1496 H1490 0.950 . S
C1496 C1497 1.327 . S
C1497 H1491 0.950 . S
C1497 C1496 1.327 . S
C1497 C1501 1.429 . S
C1498 C1481 1.574 . S
C1498 H1492 0.949 . S
C1498 C1502 1.368 . S
C1499 C1480 1.429 . S
C1499 C1493 1.429 . S
C1499 C1500 1.523 . S
C1500 C1481 1.368 . S
C1500 C1494 1.368 . S
C1500 C1499 1.523 . S
C1501 C1485 1.429 . S
C1501 C1497 1.429 . S
C1501 C1502 1.523 . S
C1502 C1486 1.368 . S
C1502 C1498 1.368 . S
C1502 C1501 1.523 . S
H1503 C1478 0.950 . S
H1504 C1480 0.950 . S
H1505 C1481 0.949 . S
H1506 C1483 0.950 . S
H1507 C1485 0.950 . S
C1508 C1509 1.349 . S
C1508 C1510 1.327 . S
C1508 H1533 0.950 . S
C1509 C1508 1.349 . S
C1509 C1525 1.349 . S
C1510 C1508 1.327 . S
C1510 C1529 1.429 . S
C1510 H1534 0.950 . S
C1511 C1528 1.574 . S
C1511 C1530 1.368 . S
C1511 H1535 0.949 . S
H1512 C1516 0.949 . S
C1513 C1514 1.349 . S
C1513 C1515 1.327 . S
C1513 H1536 0.950 . S
C1514 C1513 1.349 . S
C1514 C1526 1.349 . S
C1515 C1513 1.327 . S
C1515 C1531 1.429 . S
C1515 H1537 0.950 . S
C1516 H1512 0.949 . S
C1516 C1524 1.574 . S
C1516 C1532 1.368 . S
H1517 C1525 0.950 . S
H1518 C1523 0.950 . S
H1519 C1524 0.949 . S
H1520 C1526 0.950 . S
H1521 C1527 0.950 . S
H1522 C1528 0.949 . S
C1523 H1518 0.950 . S
C1523 C1525 1.327 . S
C1523 C1529 1.429 . S
C1524 C1516 1.574 . S
C1524 H1519 0.949 . S
C1524 C1530 1.368 . S
C1525 C1509 1.349 . S
C1525 H1517 0.950 . S
C1525 C1523 1.327 . S
C1526 C1514 1.349 . S
C1526 H1520 0.950 . S
C1526 C1527 1.327 . S
C1527 H1521 0.950 . S
C1527 C1526 1.327 . S
C1527 C1531 1.429 . S
C1528 C1511 1.574 . S
C1528 H1522 0.949 . S
C1528 C1532 1.368 . S
C1529 C1510 1.429 . S
C1529 C1523 1.429 . S
C1529 C1530 1.523 . S
C1530 C1511 1.368 . S
C1530 C1524 1.368 . S
C1530 C1529 1.523 . S
C1531 C1515 1.429 . S
C1531 C1527 1.429 . S
C1531 C1532 1.523 . S
C1532 C1516 1.368 . S
C1532 C1528 1.368 . S
C1532 C1531 1.523 . S
H1533 C1508 0.950 . S
H1534 C1510 0.950 . S
H1535 C1511 0.949 . S
H1536 C1513 0.950 . S
H1537 C1515 0.950 . S
C1538 C1539 1.349 . S
C1538 C1540 1.327 . S
C1538 H1563 0.950 . S
C1539 C1538 1.349 . S
C1539 C1555 1.349 . S
C1540 C1538 1.327 . S
C1540 C1559 1.429 . S
C1540 H1564 0.950 . S
C1541 C1558 1.574 . S
C1541 C1560 1.368 . S
C1541 H1565 0.949 . S
H1542 C1546 0.949 . S
C1543 C1544 1.349 . S
C1543 C1545 1.327 . S
C1543 H1566 0.950 . S
C1544 C1543 1.349 . S
C1544 C1556 1.349 . S
C1545 C1543 1.327 . S
C1545 C1561 1.429 . S
C1545 H1567 0.950 . S
C1546 H1542 0.949 . S
C1546 C1554 1.574 . S
C1546 C1562 1.368 . S
H1547 C1555 0.950 . S
H1548 C1553 0.950 . S
H1549 C1554 0.949 . S
H1550 C1556 0.950 . S
H1551 C1557 0.950 . S
H1552 C1558 0.949 . S
C1553 H1548 0.950 . S
C1553 C1555 1.327 . S
C1553 C1559 1.429 . S
C1554 C1546 1.574 . S
C1554 H1549 0.949 . S
C1554 C1560 1.368 . S
C1555 C1539 1.349 . S
C1555 H1547 0.950 . S
C1555 C1553 1.327 . S
C1556 C1544 1.349 . S
C1556 H1550 0.950 . S
C1556 C1557 1.327 . S
C1557 H1551 0.950 . S
C1557 C1556 1.327 . S
C1557 C1561 1.429 . S
C1558 C1541 1.574 . S
C1558 H1552 0.949 . S
C1558 C1562 1.368 . S
C1559 C1540 1.429 . S
C1559 C1553 1.429 . S
C1559 C1560 1.523 . S
C1560 C1541 1.368 . S
C1560 C1554 1.368 . S
C1560 C1559 1.523 . S
C1561 C1545 1.429 . S
C1561 C1557 1.429 . S
C1561 C1562 1.523 . S
C1562 C1546 1.368 . S
C1562 C1558 1.368 . S
C1562 C1561 1.523 . S
H1563 C1538 0.950 . S
H1564 C1540 0.950 . S
H1565 C1541 0.949 . S
H1566 C1543 0.950 . S
H1567 C1545 0.950 . S
C1568 C1569 1.349 . S
C1568 C1570 1.327 . S
C1568 H1593 0.950 . S
C1569 C1568 1.349 . S
C1569 C1585 1.349 . S
C1570 C1568 1.327 . S
C1570 C1589 1.429 . S
C1570 H1594 0.950 . S
C1571 C1588 1.574 . S
C1571 C1590 1.368 . S
C1571 H1595 0.949 . S
H1572 C1576 0.949 . S
C1573 C1574 1.349 . S
C1573 C1575 1.327 . S
C1573 H1596 0.950 . S
C1574 C1573 1.349 . S
C1574 C1586 1.349 . S
C1575 C1573 1.327 . S
C1575 C1591 1.429 . S
C1575 H1597 0.950 . S
C1576 H1572 0.949 . S
C1576 C1584 1.574 . S
C1576 C1592 1.368 . S
H1577 C1585 0.950 . S
H1578 C1583 0.950 . S
H1579 C1584 0.949 . S
H1580 C1586 0.950 . S
H1581 C1587 0.950 . S
H1582 C1588 0.949 . S
C1583 H1578 0.950 . S
C1583 C1585 1.327 . S
C1583 C1589 1.429 . S
C1584 C1576 1.574 . S
C1584 H1579 0.949 . S
C1584 C1590 1.368 . S
C1585 C1569 1.349 . S
C1585 H1577 0.950 . S
C1585 C1583 1.327 . S
C1586 C1574 1.349 . S
C1586 H1580 0.950 . S
C1586 C1587 1.327 . S
C1587 H1581 0.950 . S
C1587 C1586 1.327 . S
C1587 C1591 1.429 . S
C1588 C1571 1.574 . S
C1588 H1582 0.949 . S
C1588 C1592 1.368 . S
C1589 C1570 1.429 . S
C1589 C1583 1.429 . S
C1589 C1590 1.523 . S
C1590 C1571 1.368 . S
C1590 C1584 1.368 . S
C1590 C1589 1.523 . S
C1591 C1575 1.429 . S
C1591 C1587 1.429 . S
C1591 C1592 1.523 . S
C1592 C1576 1.368 . S
C1592 C1588 1.368 . S
C1592 C1591 1.523 . S
H1593 C1568 0.950 . S
H1594 C1570 0.950 . S
H1595 C1571 0.949 . S
H1596 C1573 0.950 . S
H1597 C1575 0.950 . S
C1598 C1599 1.349 . S
C1598 C1600 1.327 . S
C1598 H1623 0.950 . S
C1599 C1598 1.349 . S
C1599 C1615 1.349 . S
C1600 C1598 1.327 . S
C1600 C1619 1.429 . S
C1600 H1624 0.950 . S
C1601 C1618 1.574 . S
C1601 C1620 1.368 . S
C1601 H1625 0.949 . S
H1602 C1606 0.949 . S
C1603 C1604 1.349 . S
C1603 C1605 1.327 . S
C1603 H1626 0.950 . S
C1604 C1603 1.349 . S
C1604 C1616 1.349 . S
C1605 C1603 1.327 . S
C1605 C1621 1.429 . S
C1605 H1627 0.950 . S
C1606 H1602 0.949 . S
C1606 C1614 1.574 . S
C1606 C1622 1.368 . S
H1607 C1615 0.950 . S
H1608 C1613 0.950 . S
H1609 C1614 0.949 . S
H1610 C1616 0.950 . S
H1611 C1617 0.950 . S
H1612 C1618 0.949 . S
C1613 H1608 0.950 . S
C1613 C1615 1.327 . S
C1613 C1619 1.429 . S
C1614 C1606 1.574 . S
C1614 H1609 0.949 . S
C1614 C1620 1.368 . S
C1615 C1599 1.349 . S
C1615 H1607 0.950 . S
C1615 C1613 1.327 . S
C1616 C1604 1.349 . S
C1616 H1610 0.950 . S
C1616 C1617 1.327 . S
C1617 H1611 0.950 . S
C1617 C1616 1.327 . S
C1617 C1621 1.429 . S
C1618 C1601 1.574 . S
C1618 H1612 0.949 . S
C1618 C1622 1.368 . S
C1619 C1600 1.429 . S
C1619 C1613 1.429 . S
C1619 C1620 1.523 . S
C1620 C1601 1.368 . S
C1620 C1614 1.368 . S
C1620 C1619 1.523 . S
C1621 C1605 1.429 . S
C1621 C1617 1.429 . S
C1621 C1622 1.523 . S
C1622 C1606 1.368 . S
C1622 C1618 1.368 . S
C1622 C1621 1.523 . S
H1623 C1598 0.950 . S
H1624 C1600 0.950 . S
H1625 C1601 0.949 . S
H1626 C1603 0.950 . S
H1627 C1605 0.950 . S
C1628 C1629 1.349 . S
C1628 C1630 1.327 . S
C1628 H1653 0.950 . S
C1629 C1628 1.349 . S
C1629 C1645 1.349 . S
C1630 C1628 1.327 . S
C1630 C1649 1.429 . S
C1630 H1654 0.950 . S
C1631 C1648 1.574 . S
C1631 C1650 1.368 . S
C1631 H1655 0.949 . S
H1632 C1636 0.949 . S
C1633 C1634 1.349 . S
C1633 C1635 1.327 . S
C1633 H1656 0.950 . S
C1634 C1633 1.349 . S
C1634 C1646 1.349 . S
C1635 C1633 1.327 . S
C1635 C1651 1.429 . S
C1635 H1657 0.950 . S
C1636 H1632 0.949 . S
C1636 C1644 1.574 . S
C1636 C1652 1.368 . S
H1637 C1645 0.950 . S
H1638 C1643 0.950 . S
H1639 C1644 0.949 . S
H1640 C1646 0.950 . S
H1641 C1647 0.950 . S
H1642 C1648 0.949 . S
C1643 H1638 0.950 . S
C1643 C1645 1.327 . S
C1643 C1649 1.429 . S
C1644 C1636 1.574 . S
C1644 H1639 0.949 . S
C1644 C1650 1.368 . S
C1645 C1629 1.349 . S
C1645 H1637 0.950 . S
C1645 C1643 1.327 . S
C1646 C1634 1.349 . S
C1646 H1640 0.950 . S
C1646 C1647 1.327 . S
C1647 H1641 0.950 . S
C1647 C1646 1.327 . S
C1647 C1651 1.429 . S
C1648 C1631 1.574 . S
C1648 H1642 0.949 . S
C1648 C1652 1.368 . S
C1649 C1630 1.429 . S
C1649 C1643 1.429 . S
C1649 C1650 1.523 . S
C1650 C1631 1.368 . S
C1650 C1644 1.368 . S
C1650 C1649 1.523 . S
C1651 C1635 1.429 . S
C1651 C1647 1.429 . S
C1651 C1652 1.523 . S
C1652 C1636 1.368 . S
C1652 C1648 1.368 . S
C1652 C1651 1.523 . S
H1653 C1628 0.950 . S
H1654 C1630 0.950 . S
H1655 C1631 0.949 . S
H1656 C1633 0.950 . S
H1657 C1635 0.950 . S
C1658 C1659 1.349 . S
C1658 C1660 1.327 . S
C1658 H1683 0.950 . S
C1659 C1658 1.349 . S
C1659 C1675 1.349 . S
C1660 C1658 1.327 . S
C1660 C1679 1.429 . S
C1660 H1684 0.950 . S
C1661 C1678 1.574 . S
C1661 C1680 1.368 . S
C1661 H1685 0.949 . S
H1662 C1666 0.949 . S
C1663 C1664 1.349 . S
C1663 C1665 1.327 . S
C1663 H1686 0.950 . S
C1664 C1663 1.349 . S
C1664 C1676 1.349 . S
C1665 C1663 1.327 . S
C1665 C1681 1.429 . S
C1665 H1687 0.950 . S
C1666 H1662 0.949 . S
C1666 C1674 1.574 . S
C1666 C1682 1.368 . S
H1667 C1675 0.950 . S
H1668 C1673 0.950 . S
H1669 C1674 0.949 . S
H1670 C1676 0.950 . S
H1671 C1677 0.950 . S
H1672 C1678 0.949 . S
C1673 H1668 0.950 . S
C1673 C1675 1.327 . S
C1673 C1679 1.429 . S
C1674 C1666 1.574 . S
C1674 H1669 0.949 . S
C1674 C1680 1.368 . S
C1675 C1659 1.349 . S
C1675 H1667 0.950 . S
C1675 C1673 1.327 . S
C1676 C1664 1.349 . S
C1676 H1670 0.950 . S
C1676 C1677 1.327 . S
C1677 H1671 0.950 . S
C1677 C1676 1.327 . S
C1677 C1681 1.429 . S
C1678 C1661 1.574 . S
C1678 H1672 0.949 . S
C1678 C1682 1.368 . S
C1679 C1660 1.429 . S
C1679 C1673 1.429 . S
C1679 C1680 1.523 . S
C1680 C1661 1.368 . S
C1680 C1674 1.368 . S
C1680 C1679 1.523 . S
C1681 C1665 1.429 . S
C1681 C1677 1.429 . S
C1681 C1682 1.523 . S
C1682 C1666 1.368 . S
C1682 C1678 1.368 . S
C1682 C1681 1.523 . S
H1683 C1658 0.950 . S
H1684 C1660 0.950 . S
H1685 C1661 0.949 . S
H1686 C1663 0.950 . S
H1687 C1665 0.950 . S
C1688 C1689 1.349 . S
C1688 C1690 1.327 . S
C1688 H1713 0.950 . S
C1689 C1688 1.349 . S
C1689 C1705 1.349 . S
C1690 C1688 1.327 . S
C1690 C1709 1.429 . S
C1690 H1714 0.950 . S
C1691 C1708 1.574 . S
C1691 C1710 1.368 . S
C1691 H1715 0.949 . S
H1692 C1696 0.949 . S
C1693 C1694 1.349 . S
C1693 C1695 1.327 . S
C1693 H1716 0.950 . S
C1694 C1693 1.349 . S
C1694 C1706 1.349 . S
C1695 C1693 1.327 . S
C1695 C1711 1.429 . S
C1695 H1717 0.950 . S
C1696 H1692 0.949 . S
C1696 C1704 1.574 . S
C1696 C1712 1.368 . S
H1697 C1705 0.950 . S
H1698 C1703 0.950 . S
H1699 C1704 0.949 . S
H1700 C1706 0.950 . S
H1701 C1707 0.950 . S
H1702 C1708 0.949 . S
C1703 H1698 0.950 . S
C1703 C1705 1.327 . S
C1703 C1709 1.429 . S
C1704 C1696 1.574 . S
C1704 H1699 0.949 . S
C1704 C1710 1.368 . S
C1705 C1689 1.349 . S
C1705 H1697 0.950 . S
C1705 C1703 1.327 . S
C1706 C1694 1.349 . S
C1706 H1700 0.950 . S
C1706 C1707 1.327 . S
C1707 H1701 0.950 . S
C1707 C1706 1.327 . S
C1707 C1711 1.429 . S
C1708 C1691 1.574 . S
C1708 H1702 0.949 . S
C1708 C1712 1.368 . S
C1709 C1690 1.429 . S
C1709 C1703 1.429 . S
C1709 C1710 1.523 . S
C1710 C1691 1.368 . S
C1710 C1704 1.368 . S
C1710 C1709 1.523 . S
C1711 C1695 1.429 . S
C1711 C1707 1.429 . S
C1711 C1712 1.523 . S
C1712 C1696 1.368 . S
C1712 C1708 1.368 . S
C1712 C1711 1.523 . S
H1713 C1688 0.950 . S
H1714 C1690 0.950 . S
H1715 C1691 0.949 . S
H1716 C1693 0.950 . S
H1717 C1695 0.950 . S
C1718 C1719 1.349 . S
C1718 C1720 1.327 . S
C1718 H1743 0.950 . S
C1719 C1718 1.349 . S
C1719 C1735 1.349 . S
C1720 C1718 1.327 . S
C1720 C1739 1.429 . S
C1720 H1744 0.950 . S
C1721 C1738 1.574 . S
C1721 C1740 1.368 . S
C1721 H1745 0.949 . S
H1722 C1726 0.949 . S
C1723 C1724 1.349 . S
C1723 C1725 1.327 . S
C1723 H1746 0.950 . S
C1724 C1723 1.349 . S
C1724 C1736 1.349 . S
C1725 C1723 1.327 . S
C1725 C1741 1.429 . S
C1725 H1747 0.950 . S
C1726 H1722 0.949 . S
C1726 C1734 1.574 . S
C1726 C1742 1.368 . S
H1727 C1735 0.950 . S
H1728 C1733 0.950 . S
H1729 C1734 0.949 . S
H1730 C1736 0.950 . S
H1731 C1737 0.950 . S
H1732 C1738 0.949 . S
C1733 H1728 0.950 . S
C1733 C1735 1.327 . S
C1733 C1739 1.429 . S
C1734 C1726 1.574 . S
C1734 H1729 0.949 . S
C1734 C1740 1.368 . S
C1735 C1719 1.349 . S
C1735 H1727 0.950 . S
C1735 C1733 1.327 . S
C1736 C1724 1.349 . S
C1736 H1730 0.950 . S
C1736 C1737 1.327 . S
C1737 H1731 0.950 . S
C1737 C1736 1.327 . S
C1737 C1741 1.429 . S
C1738 C1721 1.574 . S
C1738 H1732 0.949 . S
C1738 C1742 1.368 . S
C1739 C1720 1.429 . S
C1739 C1733 1.429 . S
C1739 C1740 1.523 . S
C1740 C1721 1.368 . S
C1740 C1734 1.368 . S
C1740 C1739 1.523 . S
C1741 C1725 1.429 . S
C1741 C1737 1.429 . S
C1741 C1742 1.523 . S
C1742 C1726 1.368 . S
C1742 C1738 1.368 . S
C1742 C1741 1.523 . S
H1743 C1718 0.950 . S
H1744 C1720 0.950 . S
H1745 C1721 0.949 . S
H1746 C1723 0.950 . S
H1747 C1725 0.950 . S
C1748 C1749 1.349 . S
C1748 C1750 1.327 . S
C1748 H1773 0.950 . S
C1749 C1748 1.349 . S
C1749 C1765 1.349 . S
C1750 C1748 1.327 . S
C1750 C1769 1.429 . S
C1750 H1774 0.950 . S
C1751 C1768 1.574 . S
C1751 C1770 1.368 . S
C1751 H1775 0.949 . S
H1752 C1756 0.949 . S
C1753 C1754 1.349 . S
C1753 C1755 1.327 . S
C1753 H1776 0.950 . S
C1754 C1753 1.349 . S
C1754 C1766 1.349 . S
C1755 C1753 1.327 . S
C1755 C1771 1.429 . S
C1755 H1777 0.950 . S
C1756 H1752 0.949 . S
C1756 C1764 1.574 . S
C1756 C1772 1.368 . S
H1757 C1765 0.950 . S
H1758 C1763 0.950 . S
H1759 C1764 0.949 . S
H1760 C1766 0.950 . S
H1761 C1767 0.950 . S
H1762 C1768 0.949 . S
C1763 H1758 0.950 . S
C1763 C1765 1.327 . S
C1763 C1769 1.429 . S
C1764 C1756 1.574 . S
C1764 H1759 0.949 . S
C1764 C1770 1.368 . S
C1765 C1749 1.349 . S
C1765 H1757 0.950 . S
C1765 C1763 1.327 . S
C1766 C1754 1.349 . S
C1766 H1760 0.950 . S
C1766 C1767 1.327 . S
C1767 H1761 0.950 . S
C1767 C1766 1.327 . S
C1767 C1771 1.429 . S
C1768 C1751 1.574 . S
C1768 H1762 0.949 . S
C1768 C1772 1.368 . S
C1769 C1750 1.429 . S
C1769 C1763 1.429 . S
C1769 C1770 1.523 . S
C1770 C1751 1.368 . S
C1770 C1764 1.368 . S
C1770 C1769 1.523 . S
C1771 C1755 1.429 . S
C1771 C1767 1.429 . S
C1771 C1772 1.523 . S
C1772 C1756 1.368 . S
C1772 C1768 1.368 . S
C1772 C1771 1.523 . S
H1773 C1748 0.950 . S
H1774 C1750 0.950 . S
H1775 C1751 0.949 . S
H1776 C1753 0.950 . S
H1777 C1755 0.950 . S
C1778 C1779 1.349 . S
C1778 C1780 1.327 . S
C1778 H1803 0.950 . S
C1779 C1778 1.349 . S
C1779 C1795 1.349 . S
C1780 C1778 1.327 . S
C1780 C1799 1.429 . S
C1780 H1804 0.950 . S
C1781 C1798 1.574 . S
C1781 C1800 1.368 . S
C1781 H1805 0.949 . S
H1782 C1786 0.949 . S
C1783 C1784 1.349 . S
C1783 C1785 1.327 . S
C1783 H1806 0.950 . S
C1784 C1783 1.349 . S
C1784 C1796 1.349 . S
C1785 C1783 1.327 . S
C1785 C1801 1.429 . S
C1785 H1807 0.950 . S
C1786 H1782 0.949 . S
C1786 C1794 1.574 . S
C1786 C1802 1.368 . S
H1787 C1795 0.950 . S
H1788 C1793 0.950 . S
H1789 C1794 0.949 . S
H1790 C1796 0.950 . S
H1791 C1797 0.950 . S
H1792 C1798 0.949 . S
C1793 H1788 0.950 . S
C1793 C1795 1.327 . S
C1793 C1799 1.429 . S
C1794 C1786 1.574 . S
C1794 H1789 0.949 . S
C1794 C1800 1.368 . S
C1795 C1779 1.349 . S
C1795 H1787 0.950 . S
C1795 C1793 1.327 . S
C1796 C1784 1.349 . S
C1796 H1790 0.950 . S
C1796 C1797 1.327 . S
C1797 H1791 0.950 . S
C1797 C1796 1.327 . S
C1797 C1801 1.429 . S
C1798 C1781 1.574 . S
C1798 H1792 0.949 . S
C1798 C1802 1.368 . S
C1799 C1780 1.429 . S
C1799 C1793 1.429 . S
C1799 C1800 1.523 . S
C1800 C1781 1.368 . S
C1800 C1794 1.368 . S
C1800 C1799 1.523 . S
C1801 C1785 1.429 . S
C1801 C1797 1.429 . S
C1801 C1802 1.523 . S
C1802 C1786 1.368 . S
C1802 C1798 1.368 . S
C1802 C1801 1.523 . S
H1803 C1778 0.950 . S
H1804 C1780 0.950 . S
H1805 C1781 0.949 . S
H1806 C1783 0.950 . S
H1807 C1785 0.950 . S
C849 C38 2.031 . S
C854 C251 2.030 . S
C879 C82 0.406 . S
C884 C294 0.400 . S
C909 C347 0.379 . S
C914 C135 0.378 . S
C939 C188 1.196 . S
C944 C410 1.196 . S
C969 C250 2.033 . S
C974 C39 2.034 . S
C999 C552 0.400 . S
C1004 C446 0.406 . S
C1029 C340 0.379 . S
C1034 C128 0.372 . S
C1059 C499 1.196 . S
C1064 C621 1.197 . S
C1089 C674 1.224 . S
C1094 C764 1.226 . S
C1119 C453 0.373 . S
C1124 C559 0.368 . S
C1149 C718 0.373 . S
C1154 C824 0.373 . S
C1179 C622 1.225 . S
C1184 C506 1.224 . S
C1209 C771 1.223 . S
C1214 C675 1.221 . S
C1239 C75 0.373 . S
C1244 C287 0.368 . S
C1269 C711 0.373 . S
C1274 C817 0.380 . S
C1299 C409 1.225 . S
C1304 C181 1.225 . S
C1329 C29 1.165 . S
C1334 C393 1.159 . S
C1359 C234 1.441 . S
C1364 C91 1.443 . S
C1389 C303 1.990 . S
C1394 C144 1.994 . S
C1419 C197 1.649 . S
C1424 C356 1.648 . S
C1449 C22 1.165 . S
C1454 C612 1.172 . S
C1479 C463 1.443 . S
C1484 C241 1.441 . S
C1509 C569 1.990 . S
C1514 C145 1.987 . S
C1539 C516 1.649 . S
C1544 C357 1.651 . S
C1569 C665 1.173 . S
C1574 C605 1.173 . S
C1599 C781 1.463 . S
C1604 C462 1.464 . S
C1629 C568 1.993 . S
C1634 C727 1.995 . S
C1659 C833 1.649 . S
C1664 C515 1.652 . S
C1689 C400 1.173 . S
C1694 C658 1.173 . S
C1719 C780 1.463 . S
C1724 C92 1.461 . S
C1749 C304 1.993 . S
C1754 C728 1.991 . S
C1779 C834 1.649 . S
C1784 C198 1.646 . S
