# Generated by pormake.
# Topology uno, (4)-cn, num edge types: 1
# Building blocks:
#     Node 0, Type 0, BuildingBlock: ESEHIV_clean_sbu_0, # of connection points: 4
#     Node 1, Type 0, BuildingBlock: ESEHIV_clean_sbu_0, # of connection points: 4
#     Node 2, Type 0, BuildingBlock: ESEHIV_clean_sbu_0, # of connection points: 4
#     Node 3, Type 0, BuildingBlock: ESEHIV_clean_sbu_0, # of connection points: 4
#     Node 4, Type 0, BuildingBlock: ESEHIV_clean_sbu_0, # of connection points: 4
#     Node 5, Type 0, BuildingBlock: ESEHIV_clean_sbu_0, # of connection points: 4
#     Node 6, Type 0, BuildingBlock: ESEHIV_clean_sbu_0, # of connection points: 4
#     Node 7, Type 0, BuildingBlock: ESEHIV_clean_sbu_0, # of connection points: 4
#     Node 8, Type 0, BuildingBlock: ESEHIV_clean_sbu_0, # of connection points: 4
#     Node 9, Type 0, BuildingBlock: ESEHIV_clean_sbu_0, # of connection points: 4
#     Node 10, Type 0, BuildingBlock: ESEHIV_clean_sbu_0, # of connection points: 4
#     Node 11, Type 0, BuildingBlock: ESEHIV_clean_sbu_0, # of connection points: 4
#     Node 12, Type 0, BuildingBlock: ESEHIV_clean_sbu_0, # of connection points: 4
#     Node 13, Type 0, BuildingBlock: ESEHIV_clean_sbu_0, # of connection points: 4
#     Node 14, Type 0, BuildingBlock: ESEHIV_clean_sbu_0, # of connection points: 4
#     Node 15, Type 0, BuildingBlock: ESEHIV_clean_sbu_0, # of connection points: 4
#     Node 16, Type 0, BuildingBlock: ESEHIV_clean_sbu_0, # of connection points: 4
#     Node 17, Type 0, BuildingBlock: ESEHIV_clean_sbu_0, # of connection points: 4
#     Node 18, Type 0, BuildingBlock: ESEHIV_clean_sbu_0, # of connection points: 4
#     Node 19, Type 0, BuildingBlock: ESEHIV_clean_sbu_0, # of connection points: 4
#     Node 20, Type 0, BuildingBlock: ESEHIV_clean_sbu_0, # of connection points: 4
#     Node 21, Type 0, BuildingBlock: ESEHIV_clean_sbu_0, # of connection points: 4
#     Node 22, Type 0, BuildingBlock: ESEHIV_clean_sbu_0, # of connection points: 4
#     Node 23, Type 0, BuildingBlock: ESEHIV_clean_sbu_0, # of connection points: 4
#     Edge 24, Type (0, 0), BuildingBlock: OJICUG_clean_linker_0, # of connection points: 2
#     Edge 25, Type (0, 0), BuildingBlock: OJICUG_clean_linker_0, # of connection points: 2
#     Edge 26, Type (0, 0), BuildingBlock: OJICUG_clean_linker_0, # of connection points: 2
#     Edge 27, Type (0, 0), BuildingBlock: OJICUG_clean_linker_0, # of connection points: 2
#     Edge 28, Type (0, 0), BuildingBlock: OJICUG_clean_linker_0, # of connection points: 2
#     Edge 29, Type (0, 0), BuildingBlock: OJICUG_clean_linker_0, # of connection points: 2
#     Edge 30, Type (0, 0), BuildingBlock: OJICUG_clean_linker_0, # of connection points: 2
#     Edge 31, Type (0, 0), BuildingBlock: OJICUG_clean_linker_0, # of connection points: 2
#     Edge 32, Type (0, 0), BuildingBlock: OJICUG_clean_linker_0, # of connection points: 2
#     Edge 33, Type (0, 0), BuildingBlock: OJICUG_clean_linker_0, # of connection points: 2
#     Edge 34, Type (0, 0), BuildingBlock: OJICUG_clean_linker_0, # of connection points: 2
#     Edge 35, Type (0, 0), BuildingBlock: OJICUG_clean_linker_0, # of connection points: 2
#     Edge 36, Type (0, 0), BuildingBlock: OJICUG_clean_linker_0, # of connection points: 2
#     Edge 37, Type (0, 0), BuildingBlock: OJICUG_clean_linker_0, # of connection points: 2
#     Edge 38, Type (0, 0), BuildingBlock: OJICUG_clean_linker_0, # of connection points: 2
#     Edge 39, Type (0, 0), BuildingBlock: OJICUG_clean_linker_0, # of connection points: 2
#     Edge 40, Type (0, 0), BuildingBlock: OJICUG_clean_linker_0, # of connection points: 2
#     Edge 41, Type (0, 0), BuildingBlock: OJICUG_clean_linker_0, # of connection points: 2
#     Edge 42, Type (0, 0), BuildingBlock: OJICUG_clean_linker_0, # of connection points: 2
#     Edge 43, Type (0, 0), BuildingBlock: OJICUG_clean_linker_0, # of connection points: 2
#     Edge 44, Type (0, 0), BuildingBlock: OJICUG_clean_linker_0, # of connection points: 2
#     Edge 45, Type (0, 0), BuildingBlock: OJICUG_clean_linker_0, # of connection points: 2
#     Edge 46, Type (0, 0), BuildingBlock: OJICUG_clean_linker_0, # of connection points: 2
#     Edge 47, Type (0, 0), BuildingBlock: OJICUG_clean_linker_0, # of connection points: 2
#     Edge 48, Type (0, 0), BuildingBlock: OJICUG_clean_linker_0, # of connection points: 2
#     Edge 49, Type (0, 0), BuildingBlock: OJICUG_clean_linker_0, # of connection points: 2
#     Edge 50, Type (0, 0), BuildingBlock: OJICUG_clean_linker_0, # of connection points: 2
#     Edge 51, Type (0, 0), BuildingBlock: OJICUG_clean_linker_0, # of connection points: 2
#     Edge 52, Type (0, 0), BuildingBlock: OJICUG_clean_linker_0, # of connection points: 2
#     Edge 53, Type (0, 0), BuildingBlock: OJICUG_clean_linker_0, # of connection points: 2
#     Edge 54, Type (0, 0), BuildingBlock: OJICUG_clean_linker_0, # of connection points: 2
#     Edge 55, Type (0, 0), BuildingBlock: OJICUG_clean_linker_0, # of connection points: 2
#     Edge 56, Type (0, 0), BuildingBlock: OJICUG_clean_linker_0, # of connection points: 2
#     Edge 57, Type (0, 0), BuildingBlock: OJICUG_clean_linker_0, # of connection points: 2
#     Edge 58, Type (0, 0), BuildingBlock: OJICUG_clean_linker_0, # of connection points: 2
#     Edge 59, Type (0, 0), BuildingBlock: OJICUG_clean_linker_0, # of connection points: 2
#     Edge 60, Type (0, 0), BuildingBlock: OJICUG_clean_linker_0, # of connection points: 2
#     Edge 61, Type (0, 0), BuildingBlock: OJICUG_clean_linker_0, # of connection points: 2
#     Edge 62, Type (0, 0), BuildingBlock: OJICUG_clean_linker_0, # of connection points: 2
#     Edge 63, Type (0, 0), BuildingBlock: OJICUG_clean_linker_0, # of connection points: 2
#     Edge 64, Type (0, 0), BuildingBlock: OJICUG_clean_linker_0, # of connection points: 2
#     Edge 65, Type (0, 0), BuildingBlock: OJICUG_clean_linker_0, # of connection points: 2
#     Edge 66, Type (0, 0), BuildingBlock: OJICUG_clean_linker_0, # of connection points: 2
#     Edge 67, Type (0, 0), BuildingBlock: OJICUG_clean_linker_0, # of connection points: 2
#     Edge 68, Type (0, 0), BuildingBlock: OJICUG_clean_linker_0, # of connection points: 2
#     Edge 69, Type (0, 0), BuildingBlock: OJICUG_clean_linker_0, # of connection points: 2
#     Edge 70, Type (0, 0), BuildingBlock: OJICUG_clean_linker_0, # of connection points: 2
#     Edge 71, Type (0, 0), BuildingBlock: OJICUG_clean_linker_0, # of connection points: 2
# Relax obj value: 0.396
# Max RMSD: 0.222
# Mean RMSD: 0.195
data_MOF--net-uno--node1-ESEHIV_clean_sbu_0--edge1-OJICUG_clean_linker_0
_symmetry_space_group_name_H-M    P1
_symmetry_Int_Tables_number       1
_symmetry_cell_setting            triclinic
loop_
_symmetry_equiv_pos_as_xyz
'x, y, z'
_cell_length_a     41.725475
_cell_length_b     44.229947
_cell_length_c     43.708052
_cell_angle_alpha  90.619401
_cell_angle_beta   89.83049
_cell_angle_gamma 93.812095
loop_
_atom_site_label
_atom_site_type_symbol
_atom_site_fract_x
_atom_site_fract_y
_atom_site_fract_z
_atom_type_partial_charge
Cu0 Cu 0.0285 0.21925 0.28477 0.0
N1 N 0.06312 0.215 0.31069 0.0
N2 N 0.10552 0.18661 0.31257 0.0
C3 C 0.07323 0.1869 0.3129 0.0
C4 C 0.11621 0.21609 0.31292 0.0
C5 C 0.09001 0.23356 0.31167 0.0
O6 O 1.00391 0.1804 0.28631 0.0
C7 C 0.06468 0.24871 0.2363 0.0
O8 O 0.06533 0.27305 0.25374 0.0
H9 H 0.05739 0.16691 0.30894 0.0
H10 H 0.09096 0.2574 0.30632 0.0
N11 N 1.00248 0.25021 0.29595 0.0
N12 N 0.98458 0.2963 0.30261 0.0
C13 C 0.01068 0.2799 0.30027 0.0
C14 C 0.97019 0.24764 0.29636 0.0
C15 C 0.95905 0.27602 0.3004 0.0
C16 C 0.99875 0.16315 0.26314 0.0
O17 O 0.00592 0.17355 0.23576 0.0
H18 H 0.03515 0.28955 0.29981 0.0
H19 H 0.95576 0.22676 0.29231 0.0
O20 O 0.04805 0.22491 0.24446 0.0
H21 H 0.14093 0.22431 0.30923 0.0
H22 H 0.93413 0.28143 0.30038 0.0
Cu23 Cu 0.08003 0.80362 0.45053 0.0
N24 N 0.08539 0.8187 0.41103 0.0
N25 N 0.0786 0.84971 0.37184 0.0
C26 C 0.06521 0.83671 0.39703 0.0
C27 C 0.10826 0.83936 0.36984 0.0
C28 C 0.11237 0.82021 0.39403 0.0
O29 O 0.04019 0.77789 0.45083 0.0
C30 C 0.09431 0.84535 0.50058 0.0
O31 O 0.10343 0.82235 0.51639 0.0
H32 H 0.04221 0.84204 0.40646 0.0
H33 H 0.13418 0.80972 0.39993 0.0
N34 N 0.1147 0.78056 0.46082 0.0
N35 N 0.16139 0.76623 0.47925 0.0
C36 C 0.14335 0.7898 0.47328 0.0
C37 C 0.11495 0.75023 0.45839 0.0
C38 C 0.14367 0.74134 0.46964 0.0
C39 C 0.02024 0.77436 0.47279 0.0
O40 O 0.02554 0.7895 0.4985 0.0
H41 H 0.15077 0.81327 0.47809 0.0
H42 H 0.09524 0.73553 0.44965 0.0
O43 O 0.07979 0.84041 0.47529 0.0
H44 H 0.12614 0.84616 0.35282 0.0
H45 H 0.1505 0.71825 0.47158 0.0
Cu46 Cu 0.46689 0.78268 0.78421 0.0
N47 N 0.43152 0.7824 0.8101 0.0
N48 N 0.38503 0.80423 0.81612 0.0
C49 C 0.41719 0.80853 0.81371 0.0
C50 C 0.37898 0.77388 0.81534 0.0
C51 C 0.40771 0.76043 0.81187 0.0
O52 O 0.49015 0.82159 0.7908 0.0
C53 C 0.4336 0.75641 0.73262 0.0
O54 O 0.43334 0.73122 0.7482 0.0
H55 H 0.42914 0.83018 0.80775 0.0
H56 H 0.41018 0.73699 0.8056 0.0
N57 N 0.49415 0.75181 0.79114 0.0
N58 N 0.51312 0.70586 0.79224 0.0
C59 C 0.48672 0.72187 0.79383 0.0
C60 C 0.52633 0.75486 0.78852 0.0
C61 C 0.53812 0.72654 0.78907 0.0
C62 C 0.50342 0.83766 0.76978 0.0
O63 O 0.50356 0.82696 0.74162 0.0
H64 H 0.4624 0.71181 0.79459 0.0
H65 H 0.54004 0.77607 0.7845 0.0
O66 O 0.44865 0.78029 0.74317 0.0
H67 H 0.35536 0.76254 0.81242 0.0
H68 H 0.56292 0.72144 0.7858 0.0
Cu69 Cu 0.43708 0.19646 0.97729 0.0
N70 N 0.43062 0.16806 0.94561 0.0
N71 N 0.43984 0.13418 0.90885 0.0
C72 C 0.45314 0.15442 0.92929 0.0
C73 C 0.40778 0.13545 0.91229 0.0
C74 C 0.40219 0.15646 0.93485 0.0
O75 O 0.47437 0.22349 0.9671 0.0
C76 C 0.43327 0.15087 0.02547 0.0
O77 O 0.44101 0.14228 0.05298 0.0
H78 H 0.47871 0.15874 0.93282 0.0
H79 H 0.37903 0.16253 0.94323 0.0
N80 N 0.4013 0.21952 0.981 0.0
N81 N 0.35476 0.23698 0.99669 0.0
C82 C 0.37668 0.2162 0.001 0.0
C83 C 0.39493 0.24324 0.96359 0.0
C84 C 0.36628 0.25402 0.97314 0.0
C85 C 0.49498 0.23316 0.98696 0.0
O86 O 0.49116 0.22487 0.01558 0.0
H87 H 0.37465 0.19857 0.01796 0.0
H88 H 0.41007 0.252 0.94515 0.0
O89 O 0.44438 0.17664 0.01601 0.0
H90 H 0.38966 0.1222 0.89934 0.0
H91 H 0.35494 0.27303 0.96348 0.0
Cu92 Cu 0.04604 0.9923 0.25589 0.0
N93 N 0.08496 0.01499 0.2574 0.0
N94 N 0.12246 0.04291 0.28348 0.0
C95 C 0.0908 0.03658 0.27881 0.0
C96 C 0.13712 0.02483 0.26339 0.0
C97 C 0.1139 0.00766 0.24728 0.0
O98 O 0.01326 0.02131 0.25558 0.0
C99 C 0.02996 0.94144 0.29555 0.0
O100 O 0.00561 0.93419 0.27732 0.0
H101 H 0.07223 0.04415 0.29375 0.0
H102 H 0.11785 0.98884 0.23204 0.0
N103 N 0.04309 0.96836 0.2208 0.0
N104 N 0.0388 0.92475 0.19443 0.0
C105 C 0.0513 0.93958 0.2193 0.0
C106 C 0.02566 0.97254 0.1956 0.0
C107 C 0.02303 0.94568 0.1792 0.0
C108 C 1.00479 0.03564 0.27931 0.0
O109 O 0.01312 0.02614 0.30635 0.0
H110 H 0.06411 0.9293 0.2375 0.0
H111 H 0.01341 0.99278 0.1909 0.0
O112 O 0.04694 0.96603 0.29132 0.0
H113 H 0.16261 0.02182 0.26247 0.0
H114 H 0.00814 0.94132 0.15921 0.0
Cu115 Cu 0.33209 0.80241 0.5777 0.0
N116 N 0.32695 0.84326 0.5855 0.0
N117 N 0.30703 0.88166 0.61148 0.0
C118 C 0.31558 0.85284 0.61249 0.0
C119 C 0.3135 0.89071 0.58254 0.0
C120 C 0.32578 0.86688 0.5665 0.0
O121 O 0.28991 0.78667 0.56311 0.0
C122 C 0.35247 0.76232 0.62582 0.0
O123 O 0.34682 0.73872 0.60765 0.0
H124 H 0.31105 0.83796 0.63175 0.0
H125 H 0.33137 0.86621 0.54234 0.0
N126 N 0.36507 0.79584 0.54949 0.0
N127 N 0.40703 0.77434 0.5281 0.0
C128 C 0.389 0.77723 0.55357 0.0
C129 C 0.36827 0.80545 0.52047 0.0
C130 C 0.39404 0.79216 0.50719 0.0
C131 C 0.2846 0.77031 0.53925 0.0
O132 O 0.30877 0.75863 0.52511 0.0
H133 H 0.39234 0.76497 0.5744 0.0
H134 H 0.35226 0.82016 0.50941 0.0
O135 O 0.34536 0.78838 0.61724 0.0
H136 H 0.30836 0.91243 0.57322 0.0
H137 H 0.40217 0.79501 0.4838 0.0
Cu138 Cu 0.48499 0.01497 0.76961 0.0
N139 N 0.44426 0.99601 0.766 0.0
N140 N 0.3995 0.9727 0.78483 0.0
C141 C 0.4312 0.97927 0.78876 0.0
C142 C 0.39243 0.98573 0.75805 0.0
C143 C 0.42023 1.00004 0.74636 0.0
O144 O 0.51342 0.98216 0.76905 0.0
C145 C 0.49741 0.06216 0.81604 0.0
O146 O 0.51996 0.07451 0.79824 0.0
H147 H 0.44404 0.97508 0.80958 0.0
H148 H 0.4222 0.01436 0.72644 0.0
N149 N 0.49366 0.04089 0.73697 0.0
N150 N 0.49872 0.08317 0.70934 0.0
C151 C 0.48643 0.06997 0.73496 0.0
C152 C 0.51059 0.03515 0.71161 0.0
C153 C 0.51379 0.06118 0.69451 0.0
C154 C 0.51614 0.96558 0.79234 0.0
O155 O 0.50603 0.97525 0.81898 0.0
H156 H 0.47307 0.08131 0.75241 0.0
H157 H 0.52085 0.01384 0.7065 0.0
O158 O 0.48298 0.037 0.80832 0.0
H159 H 0.36858 0.987 0.74881 0.0
H160 H 0.52752 0.064 0.67358 0.0
Cu161 Cu 0.18581 0.20289 0.09281 0.0
N162 N 0.19771 0.16404 0.10154 0.0
N163 N 0.22327 0.1304 0.12864 0.0
C164 C 0.20945 0.15712 0.12905 0.0
C165 C 0.21988 0.11995 0.09958 0.0
C166 C 0.2042 0.14084 0.08286 0.0
O167 O 0.22599 0.22471 0.08075 0.0
C168 C 0.15797 0.24205 0.13849 0.0
O169 O 0.16696 0.26579 0.12197 0.0
H170 H 0.21016 0.17269 0.14836 0.0
H171 H 0.19984 0.14006 0.05849 0.0
N172 N 0.15417 0.20407 0.06245 0.0
N173 N 0.11309 0.22205 0.0369 0.0
C174 C 0.13135 0.22424 0.06236 0.0
C175 C 0.15018 0.18831 0.03606 0.0
C176 C 0.12489 0.19942 0.0202 0.0
C177 C 0.23061 0.23613 0.05433 0.0
O178 O 0.2059 0.23897 0.03631 0.0
H179 H 0.12901 0.24109 0.08012 0.0
H180 H 0.16514 0.17066 0.02843 0.0
O181 O 0.16615 0.21596 0.13047 0.0
H182 H 0.22919 0.09932 0.09072 0.0
H183 H 0.11614 0.19161 0.99801 0.0
Cu184 Cu 0.24782 0.04034 0.24458 0.0
N185 N 0.2131 0.0643 0.24112 0.0
N186 N 0.1765 0.09705 0.25308 0.0
C187 C 0.20287 0.08368 0.26242 0.0
C188 C 0.16991 0.08547 0.2249 0.0
C189 C 0.19236 0.06516 0.21769 0.0
O190 O 0.24162 0.018 0.28221 0.0
C191 C 0.29825 0.0858 0.22628 0.0
O192 O 0.32754 0.09822 0.22932 0.0
H193 H 0.21427 0.08744 0.28446 0.0
H194 H 0.19329 0.05188 0.19687 0.0
N195 N 0.24788 0.01255 0.2124 0.0
N196 N 0.24873 0.9941 0.16477 0.0
C197 C 0.24681 0.019 0.18253 0.0
C198 C 0.25022 0.98239 0.21375 0.0
C199 C 0.25068 0.97087 0.18427 0.0
C200 C 0.26072 0.02006 0.30485 0.0
O201 O 0.28726 0.03767 0.30304 0.0
H202 H 0.24425 0.04148 0.17397 0.0
H203 H 0.25202 0.9698 0.23469 0.0
O204 O 0.28837 0.0651 0.24484 0.0
H205 H 0.15032 0.09128 0.2104 0.0
H206 H 0.2532 0.94748 0.17772 0.0
Cu207 Cu 0.18625 0.01644 0.47249 0.0
N208 N 0.16356 0.04331 0.45016 0.0
N209 N 0.1499 0.06508 0.40659 0.0
C210 C 0.17381 0.05411 0.42298 0.0
C211 C 0.12384 0.06226 0.42512 0.0
C212 C 0.13233 0.04871 0.45194 0.0
O213 O 0.21684 1.00166 0.44364 0.0
C214 C 0.16836 0.95919 0.49798 0.0
O215 O 0.19955 0.95752 0.50054 0.0
H216 H 0.19767 0.05107 0.41427 0.0
H217 H 0.11621 0.04048 0.46987 0.0
N218 N 0.20853 0.0374 0.50355 0.0
N219 N 0.23792 0.04607 0.54559 0.0
C220 C 0.21852 0.02589 0.52983 0.0
C221 C 0.22167 0.066 0.50266 0.0
C222 C 0.23977 0.0715 0.52872 0.0
C223 C 0.2064 0.98622 0.42063 0.0
O224 O 0.17613 0.97589 0.42045 0.0
H225 H 0.21206 0.003 0.53701 0.0
H226 H 0.21925 0.08132 0.4838 0.0
O227 O 0.15759 0.98309 0.4871 0.0
H228 H 0.09953 0.06623 0.41844 0.0
H229 H 0.25417 0.0921 0.53416 0.0
Cu230 Cu 0.27932 0.97032 0.73573 0.0
N231 N 0.30994 0.94214 0.74051 0.0
N232 N 0.33449 0.90206 0.75645 0.0
C233 C 0.31104 0.92088 0.76225 0.0
C234 C 0.34896 0.9121 0.73052 0.0
C235 C 0.33386 0.93698 0.72082 0.0
O236 O 0.27743 0.99461 0.77257 0.0
C237 C 0.22849 0.93266 0.70403 0.0
O238 O 0.1979 0.92406 0.70132 0.0
H239 H 0.2941 0.91835 0.781 0.0
H240 H 0.33905 0.9497 0.70019 0.0
N241 N 0.29198 0.99687 0.70482 0.0
N242 N 0.29143 0.02125 0.6607 0.0
C243 C 0.27682 0.99961 0.67815 0.0
C244 C 0.31681 0.01798 0.70454 0.0
C245 C 0.3165 0.03323 0.67712 0.0
C246 C 0.25176 1.00034 0.7866 0.0
O247 O 0.22399 0.98806 0.77708 0.0
H248 H 0.25492 0.98673 0.67193 0.0
H249 H 0.33375 0.02209 0.72303 0.0
O250 O 0.23732 0.9502 0.7263 0.0
H251 H 0.36862 0.90178 0.71913 0.0
H252 H 0.33345 0.05125 0.66963 0.0
Cu253 Cu 0.29303 0.02297 0.95508 0.0
N254 N 0.31469 0.99285 0.93533 0.0
N255 N 0.33372 0.96674 0.89606 0.0
C256 C 0.32089 0.99248 0.90519 0.0
C257 C 0.33614 0.95024 0.92166 0.0
C258 C 0.32398 0.96634 0.9459 0.0
O259 O 0.26401 0.03662 0.92464 0.0
C260 C 0.35165 0.05996 0.96304 0.0
O261 O 0.36388 0.04119 0.9434 0.0
H262 H 0.3167 0.01107 0.89027 0.0
H263 H 0.32163 0.95907 0.9694 0.0
N264 N 0.26954 0.00546 0.98705 0.0
N265 N 0.2542 0.99332 0.03446 0.0
C266 C 0.27503 0.01026 0.01699 0.0
C267 C 0.24454 0.9847 0.9853 0.0
C268 C 0.23498 0.97712 0.01462 0.0
C269 C 0.27469 0.05445 0.90384 0.0
O270 O 0.30214 0.07013 0.90846 0.0
H271 H 0.29432 0.02552 0.02566 0.0
H272 H 0.23415 0.97568 0.96419 0.0
O273 O 0.32214 0.05601 0.97055 0.0
H274 H 0.34575 0.92815 0.92275 0.0
H275 H 0.2152 0.96128 0.02079 0.0
Cu276 Cu 0.67951 0.29546 0.93832 0.0
N277 N 0.67815 0.26831 0.90535 0.0
N278 N 0.65785 0.2518 0.86038 0.0
C279 C 0.65139 0.26172 0.88885 0.0
C280 C 0.69017 0.25129 0.85917 0.0
C281 C 0.70263 0.26153 0.88696 0.0
O282 O 0.63779 0.29059 0.95841 0.0
C283 C 0.70595 0.35742 0.92794 0.0
O284 O 0.71985 0.35714 0.95484 0.0
H285 H 0.6279 0.26773 0.89612 0.0
H286 H 0.72773 0.26688 0.8921 0.0
N287 N 0.7107 0.28635 0.967 0.0
N288 N 0.75524 0.2869 0.9955 0.0
C289 C 0.74228 0.29514 0.96873 0.0
C290 C 0.7038 0.27158 0.9932 0.0
C291 C 0.73109 0.27195 0.01082 0.0
C292 C 0.61178 0.29943 0.94755 0.0
O293 O 0.61279 0.31622 0.9229 0.0
H294 H 0.75505 0.30865 0.95152 0.0
H295 H 0.68015 0.26218 0.99954 0.0
O296 O 0.68757 0.33486 0.91928 0.0
H297 H 0.70398 0.24645 0.83891 0.0
H298 H 0.73284 0.26257 0.03348 0.0
Cu299 Cu 0.98747 0.49362 0.22798 0.0
N300 N 0.94524 0.50316 0.22391 0.0
N301 N 0.9034 0.5225 0.20133 0.0
C302 C 0.93562 0.52167 0.20215 0.0
C303 C 0.89239 0.50333 0.22351 0.0
C304 C 0.91834 0.49146 0.23746 0.0
O305 O 0.01151 0.53169 0.23763 0.0
C306 C 0.01142 0.45085 0.18431 0.0
O307 O 0.02946 0.44092 0.20611 0.0
H308 H 0.95208 0.53324 0.18638 0.0
H309 H 0.91761 0.47485 0.25547 0.0
N310 N 0.99124 0.46691 0.26013 0.0
N311 N 0.99068 0.42404 0.2866 0.0
C312 C 0.98164 0.43729 0.2606 0.0
C313 C 0.00647 0.47276 0.28683 0.0
C314 C 0.00627 0.44629 0.3032 0.0
C315 C 0.01946 0.55209 0.21825 0.0
O316 O 0.01604 0.54586 0.18893 0.0
H317 H 0.96973 0.42543 0.24157 0.0
H318 H 0.01773 0.49456 0.29349 0.0
O319 O 0.9959 0.47428 0.1889 0.0
H320 H 0.86744 0.49802 0.22925 0.0
H321 H 0.01724 0.44354 0.32532 0.0
Cu322 Cu 0.83413 0.71735 0.43987 0.0
N323 N 0.84125 0.74834 0.41136 0.0
N324 N 0.86741 0.76795 0.37048 0.0
C325 C 0.86996 0.75438 0.39775 0.0
C326 C 0.83568 0.77149 0.36718 0.0
C327 C 0.81963 0.75934 0.39239 0.0
O328 O 0.87504 0.71574 0.46114 0.0
C329 C 0.80569 0.6573 0.42048 0.0
O330 O 0.79768 0.65097 0.4489 0.0
H331 H 0.89187 0.74547 0.40558 0.0
H332 H 0.79388 0.75561 0.39492 0.0
N333 N 0.80254 0.72603 0.4688 0.0
N334 N 0.75904 0.7218 0.49905 0.0
C335 C 0.77227 0.71359 0.47214 0.0
C336 C 0.80829 0.74296 0.49419 0.0
C337 C 0.78164 0.74035 0.51289 0.0
C338 C 0.89984 0.70551 0.44882 0.0
O339 O 0.89645 0.68957 0.42334 0.0
H340 H 0.76085 0.69753 0.45608 0.0
H341 H 0.83097 0.75517 0.49941 0.0
O342 O 0.82155 0.68211 0.4144 0.0
H343 H 0.82454 0.77967 0.34681 0.0
H344 H 0.77939 0.75059 0.53534 0.0
Cu345 Cu 0.97917 0.72006 0.22145 0.0
N346 N 0.95021 0.69261 0.20224 0.0
N347 N 0.91814 0.65031 0.2006 0.0
C348 C 0.94277 0.66558 0.21477 0.0
C349 C 0.90939 0.6686 0.17796 0.0
C350 C 0.92945 0.69488 0.17898 0.0
O351 O 0.01499 0.69592 0.23113 0.0
C352 C 0.96427 0.7493 0.28004 0.0
O353 O 0.99513 0.75444 0.28542 0.0
H354 H 0.95337 0.65833 0.23569 0.0
H355 H 0.92783 0.71473 0.16498 0.0
N356 N 0.99277 0.75135 0.19564 0.0
N357 N 0.01129 0.79748 0.18125 0.0
C358 C 1.00134 0.77976 0.20482 0.0
C359 C 0.99732 0.75085 0.16516 0.0
C360 C 0.00864 0.77944 0.15614 0.0
C361 C 0.01375 0.67693 0.25282 0.0
O362 O 0.99418 0.68119 0.27586 0.0
H363 H 0.99993 0.78727 0.22839 0.0
H364 H 0.99295 0.73106 0.15062 0.0
O365 O 0.95496 0.73547 0.25567 0.0
H366 H 0.88923 0.66392 0.16273 0.0
H367 H 0.01486 0.78625 0.13305 0.0
Cu368 Cu 0.54681 0.29246 0.70851 0.0
N369 N 0.57053 0.31835 0.68262 0.0
N370 N 0.59677 0.36236 0.67098 0.0
C371 C 0.57452 0.34808 0.689 0.0
C372 C 0.60716 0.34059 0.65217 0.0
C373 C 0.59074 0.31333 0.65936 0.0
O374 O 0.51406 0.31757 0.72436 0.0
C375 C 0.56632 0.26983 0.76588 0.0
O376 O 0.5354 0.26632 0.77171 0.0
H377 H 0.56355 0.35844 0.70862 0.0
H378 H 0.59481 0.29125 0.64979 0.0
N379 N 0.5297 0.25772 0.68842 0.0
N380 N 0.51314 0.20908 0.68134 0.0
C381 C 0.52388 0.23061 0.70161 0.0
C382 C 0.52255 0.25335 0.65864 0.0
C383 C 0.51229 0.22329 0.65418 0.0
C384 C 0.49359 0.32651 0.70552 0.0
O385 O 0.4904 0.31248 0.67895 0.0
H386 H 0.52866 0.22655 0.72544 0.0
H387 H 0.52514 0.27066 0.64135 0.0
O388 O 0.57569 0.28099 0.74044 0.0
H389 H 0.62656 0.34376 0.63578 0.0
H390 H 0.50504 0.21275 0.63261 0.0
Cu391 Cu 0.49732 0.5134 0.70181 0.0
N392 N 0.53583 0.51414 0.68045 0.0
N393 N 0.57681 0.49681 0.65412 0.0
C394 C 0.54694 0.49043 0.66519 0.0
C395 C 0.58468 0.52577 0.66288 0.0
C396 C 0.55944 0.5363 0.67933 0.0
O397 O 0.48848 0.47171 0.71457 0.0
C398 C 0.46 0.54892 0.65934 0.0
O399 O 0.4318 0.55362 0.64772 0.0
H400 H 0.53381 0.46855 0.66341 0.0
H401 H 0.55853 0.5584 0.68995 0.0
N402 N 0.50137 0.53806 0.7364 0.0
N403 N 0.5063 0.5796 0.76575 0.0
C404 C 0.50815 0.56819 0.73712 0.0
C405 C 0.49503 0.53008 0.76553 0.0
C406 C 0.49795 0.55577 0.78375 0.0
C407 C 0.4716 0.45264 0.69839 0.0
O408 O 0.45782 0.46195 0.67353 0.0
H409 H 0.51295 0.58165 0.71689 0.0
H410 H 0.48789 0.50733 0.77283 0.0
O411 O 0.46213 0.52645 0.67713 0.0
H412 H 0.60713 0.53848 0.65803 0.0
H413 H 0.49386 0.55692 0.8082 0.0
Cu414 Cu 0.94294 0.35406 0.02783 0.0
N415 N 0.93282 0.38881 0.00714 0.0
N416 N 0.90248 0.42754 0.99788 0.0
C417 C 0.90283 0.39827 0.00602 0.0
C418 C 0.93361 0.43685 0.99331 0.0
C419 C 0.9523 0.41287 0.99905 0.0
O420 O 0.90476 0.32667 0.02401 0.0
C421 C 0.98201 0.37751 0.07633 0.0
O422 O 0.00501 0.3755 0.056 0.0
H423 H 0.88193 0.38497 0.01421 0.0
H424 H 0.97825 0.4137 0.99989 0.0
N425 N 0.97756 0.33506 0.01053 0.0
N426 N 0.01779 0.30414 0.00613 0.0
C427 C 0.99353 0.31323 0.02386 0.0
C428 C 0.99194 0.3399 0.98329 0.0
C429 C 0.01676 0.32086 0.98049 0.0
C430 C 0.88 0.32799 0.04087 0.0
O431 O 0.88134 0.3457 0.06522 0.0
H432 H 0.98741 0.30432 0.04624 0.0
H433 H 0.98509 0.35633 0.9668 0.0
O434 O 0.95339 0.36784 0.06946 0.0
H435 H 0.9424 0.45982 0.98821 0.0
H436 H 0.03324 0.32002 0.96138 0.0
Cu437 Cu 0.57777 0.6408 0.53881 0.0
N438 N 0.58933 0.6063 0.51768 0.0
N439 N 0.61945 0.56687 0.51043 0.0
C440 C 0.61933 0.59668 0.51713 0.0
C441 C 0.58836 0.55736 0.50629 0.0
C442 C 0.56984 0.58171 0.51082 0.0
O443 O 0.61458 0.67002 0.53496 0.0
C444 C 0.54667 0.63385 0.59843 0.0
O445 O 0.53599 0.66086 0.59504 0.0
H446 H 0.6402 0.61022 0.52519 0.0
H447 H 0.54392 0.58073 0.51244 0.0
N448 N 0.54183 0.65711 0.5209 0.0
N449 N 0.50175 0.68732 0.51208 0.0
C450 C 0.52739 0.68223 0.52976 0.0
C451 C 0.52503 0.64624 0.49647 0.0
C452 C 0.50035 0.66471 0.49102 0.0
C453 C 0.64065 0.66984 0.54996 0.0
O454 O 0.64225 0.65174 0.57347 0.0
H455 H 0.53572 0.69667 0.54863 0.0
H456 H 0.53023 0.62619 0.48352 0.0
O457 O 0.56678 0.62437 0.5792 0.0
H458 H 0.57949 0.534 0.50291 0.0
H459 H 0.48233 0.66128 0.47335 0.0
Cu460 Cu 0.74085 0.43591 0.56336 0.0
N461 N 0.70497 0.40996 0.57009 0.0
N462 N 0.65722 0.41664 0.5916 0.0
C463 C 0.68911 0.41572 0.59606 0.0
C464 C 0.65249 0.40813 0.56214 0.0
C465 C 0.68198 0.40414 0.54889 0.0
O466 O 0.76546 0.43706 0.60092 0.0
C467 C 0.72386 0.49233 0.53492 0.0
O468 O 0.74776 0.49075 0.51547 0.0
H469 H 0.70141 0.42536 0.61601 0.0
H470 H 0.68647 0.40333 0.52453 0.0
N471 N 0.76446 0.42438 0.52962 0.0
N472 N 0.77887 0.41944 0.48078 0.0
C473 C 0.75458 0.4239 0.50038 0.0
C474 C 0.79596 0.41967 0.52862 0.0
C475 C 0.805 0.41673 0.49841 0.0
C476 C 0.77438 0.46153 0.61487 0.0
O477 O 0.7706 0.48753 0.60154 0.0
H478 H 0.73072 0.42926 0.49351 0.0
H479 H 0.81157 0.42006 0.54836 0.0
O480 O 0.72047 0.47348 0.55663 0.0
H481 H 0.63027 0.4099 0.54974 0.0
H482 H 0.82911 0.41418 0.49001 0.0
Cu483 Cu 0.72901 0.48632 0.7867 0.0
N484 N 0.69256 0.48416 0.76222 0.0
N485 N 0.65839 0.46525 0.72663 0.0
C486 C 0.68511 0.46105 0.74282 0.0
C487 C 0.64838 0.49213 0.73639 0.0
C488 C 0.66979 0.50393 0.75826 0.0
O489 O 0.76412 0.48439 0.7579 0.0
C490 C 0.74059 0.45157 0.84002 0.0
O491 O 0.76279 0.47314 0.84648 0.0
H492 H 0.69862 0.44107 0.74122 0.0
H493 H 0.66884 0.52531 0.77037 0.0
N494 N 0.73271 0.5227 0.80847 0.0
N495 N 0.73321 0.55376 0.849 0.0
C496 C 0.72113 0.52732 0.83674 0.0
C497 C 0.7523 0.54727 0.8023 0.0
C498 C 0.75277 0.56648 0.82739 0.0
C499 C 0.77025 0.45944 0.74519 0.0
O500 O 0.7586 0.43404 0.7575 0.0
H501 H 0.70652 0.51037 0.84912 0.0
H502 H 0.76686 0.55002 0.78187 0.0
O503 O 0.72504 0.45258 0.81506 0.0
H504 H 0.62716 0.50241 0.72839 0.0
H505 H 0.76766 0.58732 0.83017 0.0
Cu506 Cu 0.76912 0.54853 0.05742 0.0
N507 N 0.79693 0.57872 0.07405 0.0
N508 N 0.83419 0.58332 0.11084 0.0
C509 C 0.80272 0.57811 0.10425 0.0
C510 C 0.84825 0.59035 0.0837 0.0
C511 C 0.82527 0.58737 0.0611 0.0
O512 O 0.74149 0.5348 0.09112 0.0
C513 C 0.79382 0.49682 0.02447 0.0
O514 O 0.76506 0.49001 0.0132 0.0
H515 H 0.78507 0.56899 0.12031 0.0
H516 H 0.83013 0.58581 0.03682 0.0
N517 N 0.74558 0.56284 0.0253 0.0
N518 N 0.73024 0.57177 0.97761 0.0
C519 C 0.75423 0.56344 0.99565 0.0
C520 C 0.71521 0.57129 0.02616 0.0
C521 C 0.70559 0.57672 0.99667 0.0
C522 C 0.74957 0.5144 0.10933 0.0
O523 O 0.7735 0.49799 0.10163 0.0
H524 H 0.77699 0.55619 0.98734 0.0
H525 H 0.70071 0.57226 0.04666 0.0
O526 O 0.79828 0.5189 0.04315 0.0
H527 H 0.87389 0.59249 0.07961 0.0
H528 H 0.68207 0.58297 0.98971 0.0
Cu529 Cu 0.76986 0.51665 0.29511 0.0
N530 N 0.81257 0.52509 0.28469 0.0
N531 N 0.85327 0.55223 0.26297 0.0
C532 C 0.82242 0.54144 0.26028 0.0
C533 C 0.8635 0.54119 0.28968 0.0
C534 C 0.83825 0.52456 0.3031 0.0
O535 O 0.7468 0.51055 0.25665 0.0
C536 C 0.77042 0.5765 0.31882 0.0
O537 O 0.7831 0.58367 0.29214 0.0
H538 H 0.80638 0.54736 0.24226 0.0
H539 H 0.83784 0.51518 0.32585 0.0
N540 N 0.7661 0.4807 0.31666 0.0
N541 N 0.76783 0.44866 0.3555 0.0
C542 C 0.77675 0.47659 0.34519 0.0
C543 C 0.74999 0.4545 0.30851 0.0
C544 C 0.75088 0.43465 0.33258 0.0
C545 C 0.73736 0.53085 0.23905 0.0
O546 O 0.73775 0.55903 0.24888 0.0
H547 H 0.78938 0.49425 0.35866 0.0
H548 H 0.73764 0.4505 0.28697 0.0
O549 O 0.75907 0.54938 0.32303 0.0
H550 H 0.88664 0.54684 0.30011 0.0
H551 H 0.73944 0.41198 0.33343 0.0
C552 C 0.11883 0.21774 0.17569 0.0
C553 C 0.1344 0.2443 0.16375 0.0
H554 H 0.08428 0.19833 0.20726 0.0
C555 C 0.1259 0.2725 0.17515 0.0
H556 H 0.12452 0.19558 0.16732 0.0
C557 C 0.10272 0.27404 0.19831 0.0
C558 C 0.08722 0.24742 0.21015 0.0
H559 H 0.13727 0.29336 0.16633 0.0
H560 H 0.09703 0.29607 0.20701 0.0
C561 C 0.09542 0.21929 0.19841 0.0
C562 C 0.08572 0.89832 0.34469 0.0
C563 C 0.06583 0.87313 0.3537 0.0
H564 H 0.08983 0.93992 0.3201 0.0
C565 C 0.03339 0.87127 0.34484 0.0
H566 H 0.11069 0.90052 0.35156 0.0
C567 C 0.02138 0.8937 0.3264 0.0
C568 C 0.04142 0.91882 0.31717 0.0
H569 H 0.0176 0.85204 0.35154 0.0
H570 H 0.99653 0.89127 0.31918 0.0
C571 C 0.07361 0.92103 0.32693 0.0
C572 C 0.3814 0.73223 0.66442 0.0
C573 C 0.372 0.76022 0.65396 0.0
H574 H 0.40841 0.70906 0.69746 0.0
C575 C 0.38333 0.78688 0.66951 0.0
H576 H 0.37326 0.71132 0.65291 0.0
C577 C 0.40389 0.78565 0.69455 0.0
C578 C 0.41334 0.75771 0.70497 0.0
H579 H 0.37671 0.80891 0.66212 0.0
H580 H 0.41199 0.80661 0.706 0.0
C581 C 0.40169 0.73098 0.68981 0.0
C582 C 0.48517 0.12541 0.87378 0.0
C583 C 0.45607 0.11513 0.88767 0.0
H584 H 0.52115 0.11683 0.84016 0.0
C585 C 0.44228 0.08633 0.87962 0.0
H586 H 0.49629 0.14756 0.87949 0.0
C587 C 0.45659 0.06862 0.85743 0.0
C588 C 0.48493 0.07941 0.84242 0.0
H589 H 0.42018 0.07758 0.89032 0.0
H590 H 0.44478 0.04684 0.85137 0.0
C591 C 0.49936 0.10782 0.85123 0.0
C592 C 0.12579 0.12075 0.26326 0.0
C593 C 0.15843 0.11851 0.26973 0.0
H594 H 0.0836 0.14383 0.27134 0.0
C595 C 0.17302 0.13781 0.29225 0.0
H596 H 0.11359 0.10587 0.24659 0.0
C597 C 0.15545 0.15959 0.30716 0.0
C598 C 0.12295 0.1622 0.30006 0.0
H599 H 0.19819 0.13671 0.29769 0.0
H600 H 0.16732 0.17475 0.3238 0.0
C601 C 0.10834 0.14225 0.27811 0.0
C602 C 0.09755 0.90131 0.49154 0.0
C603 C 0.10936 0.87621 0.50626 0.0
H604 H 0.10671 0.94743 0.47776 0.0
C605 C 0.13885 0.88004 0.52177 0.0
H606 H 0.07492 0.89909 0.47937 0.0
C607 C 0.15735 0.90758 0.52036 0.0
C608 C 0.14652 0.93202 0.50385 0.0
H609 H 0.14878 0.86115 0.53316 0.0
H610 H 0.18076 0.90929 0.53112 0.0
C611 C 0.11582 0.92901 0.49055 0.0
C612 C 0.34577 0.87645 0.80472 0.0
C613 C 0.34148 0.87539 0.77287 0.0
H614 H 0.36379 0.8539 0.84389 0.0
C615 C 0.3467 0.84858 0.75674 0.0
H616 H 0.34165 0.89693 0.81749 0.0
C617 C 0.35786 0.8238 0.77189 0.0
C618 C 0.36467 0.82563 0.80332 0.0
H619 H 0.34327 0.84728 0.73219 0.0
H620 H 0.36367 0.80402 0.75869 0.0
C621 C 0.35798 0.85189 0.81979 0.0
C622 C 0.40585 0.08644 0.97265 0.0
C623 C 0.37237 0.08482 0.97722 0.0
H624 H 0.45141 0.109 0.98443 0.0
C625 C 0.3591 0.10652 0.99638 0.0
H626 H 0.41692 0.07008 0.95812 0.0
C627 C 0.37891 0.12892 0.0111 0.0
C628 C 0.41225 0.13025 0.00666 0.0
H629 H 0.33346 0.10586 0.00053 0.0
H630 H 0.36824 0.14464 0.02664 0.0
C631 C 0.42562 0.10878 0.98751 0.0
C632 C 0.16343 0.04628 0.32432 0.0
C633 C 0.13556 0.05666 0.31125 0.0
H634 H 0.1903 0.04113 0.36484 0.0
C635 C 0.11746 0.07653 0.32854 0.0
H636 H 0.17845 0.03153 0.3117 0.0
C637 C 0.12409 0.08189 0.35949 0.0
C638 C 0.14914 0.06773 0.37369 0.0
H639 H 0.09659 0.08605 0.3188 0.0
H640 H 0.10819 0.0953 0.37278 0.0
C641 C 0.17021 0.05183 0.35517 0.0
C642 C 0.26614 0.91694 0.62718 0.0
C643 C 0.28948 0.89686 0.63496 0.0
H644 H 0.22826 0.94368 0.64309 0.0
C645 C 0.2933 0.88968 0.666 0.0
H646 H 0.26189 0.92231 0.6035 0.0
C647 C 0.27399 0.90194 0.68857 0.0
C648 C 0.25108 0.92223 0.68077 0.0
H649 H 0.3108 0.87405 0.67279 0.0
H650 H 0.27614 0.89467 0.71198 0.0
C651 C 0.24682 0.9291 0.64981 0.0
C652 C 0.33193 0.97445 0.84034 0.0
C653 C 0.3454 0.96071 0.86572 0.0
H654 H 0.33864 0.9891 0.79426 0.0
C655 C 0.37299 0.94471 0.86142 0.0
H656 H 0.30996 0.98594 0.84273 0.0
C657 C 0.389 0.94579 0.83331 0.0
C658 C 0.37791 0.96318 0.80919 0.0
H659 H 0.38365 0.93346 0.88036 0.0
H660 H 0.41142 0.93494 0.83118 0.0
C661 C 0.34811 0.97584 0.81236 0.0
C662 C 0.25289 0.11445 0.20763 0.0
C663 C 0.27812 0.09599 0.2013 0.0
H664 H 0.21468 0.13881 0.18958 0.0
C665 C 0.28615 0.09008 0.17073 0.0
H666 H 0.24763 0.12089 0.23098 0.0
C667 C 0.26777 0.10078 0.14687 0.0
C668 C 0.2415 0.11824 0.15316 0.0
H669 H 0.30643 0.07689 0.16534 0.0
H670 H 0.27456 0.09591 0.12351 0.0
C671 C 0.23446 0.12513 0.18387 0.0
C672 C 0.74647 0.42787 0.89164 0.0
C673 C 0.73194 0.4275 0.86261 0.0
H674 H 0.74949 0.40635 0.93518 0.0
C675 C 0.70819 0.40442 0.85571 0.0
H676 H 0.76471 0.44543 0.89782 0.0
C677 C 0.69937 0.38214 0.87715 0.0
C678 C 0.71401 0.38234 0.90613 0.0
H679 H 0.69636 0.40347 0.83365 0.0
H680 H 0.68119 0.36457 0.87084 0.0
C681 C 0.73759 0.40557 0.91317 0.0
C682 C 0.85221 0.53243 0.17604 0.0
C683 C 0.88515 0.53959 0.18036 0.0
H684 H 0.81016 0.54038 0.15121 0.0
C685 C 0.90008 0.56374 0.16365 0.0
H686 H 0.83973 0.51415 0.1884 0.0
C687 C 0.88284 0.57941 0.14233 0.0
C688 C 0.8503 0.57116 0.13679 0.0
H689 H 0.92514 0.57077 0.16697 0.0
H690 H 0.89523 0.59754 0.12963 0.0
C691 C 0.83504 0.54794 0.15461 0.0
C692 C 0.80019 0.64593 0.36442 0.0
C693 C 0.79492 0.63671 0.39482 0.0
H694 H 0.79591 0.63469 0.31693 0.0
C695 C 0.77899 0.60816 0.40005 0.0
H696 H 0.812 0.66788 0.35939 0.0
C697 C 0.76959 0.58894 0.3754 0.0
C698 C 0.77578 0.59795 0.34503 0.0
H699 H 0.7743 0.60043 0.42316 0.0
H700 H 0.75833 0.56671 0.38019 0.0
C701 C 0.7907 0.6269 0.33994 0.0
C702 C 0.85244 0.59477 0.22646 0.0
C703 C 0.86971 0.57528 0.24457 0.0
H704 H 0.85443 0.63394 0.19792 0.0
C705 C 0.90333 0.57939 0.24532 0.0
H706 H 0.82651 0.59259 0.22546 0.0
C707 C 0.91923 0.60281 0.22911 0.0
C708 C 0.9019 0.62316 0.21227 0.0
H709 H 0.91743 0.56447 0.2584 0.0
H710 H 0.94518 0.60544 0.23033 0.0
C711 C 0.8684 0.61848 0.21047 0.0
C712 C 0.64519 0.39719 0.67574 0.0
C713 C 0.61171 0.39197 0.67762 0.0
H714 H 0.68641 0.4253 0.68961 0.0
C715 C 0.59359 0.41429 0.69119 0.0
H716 H 0.65981 0.38057 0.66531 0.0
C717 C 0.60883 0.43974 0.70542 0.0
C718 C 0.64248 0.44329 0.70633 0.0
H719 H 0.56766 0.41109 0.69239 0.0
H720 H 0.59435 0.45544 0.71749 0.0
C721 C 0.66043 0.42261 0.69001 0.0
C722 C 0.53237 0.58052 0.61565 0.0
C723 C 0.52981 0.61194 0.61966 0.0
H724 H 0.51177 0.53576 0.625 0.0
C725 C 0.5073 0.62181 0.64094 0.0
H726 H 0.54919 0.57201 0.59927 0.0
C727 C 0.48636 0.60087 0.65611 0.0
C728 C 0.48764 0.56964 0.6506 0.0
H729 H 0.50457 0.64577 0.64458 0.0
H730 H 0.46789 0.60917 0.67087 0.0
C731 C 0.51114 0.55963 0.63061 0.0
C732 C 0.64576 0.26183 0.80612 0.0
C733 C 0.6356 0.25157 0.83513 0.0
H734 H 0.63192 0.27582 0.76162 0.0
C735 C 0.60258 0.24491 0.84019 0.0
H736 H 0.67091 0.2675 0.80148 0.0
C737 C 0.58013 0.25002 0.81745 0.0
C738 C 0.59019 0.26186 0.78904 0.0
H739 H 0.59403 0.23667 0.86218 0.0
H740 H 0.55485 0.24547 0.82248 0.0
C741 C 0.62331 0.26693 0.78335 0.0
C742 C 0.9737 0.4316 0.14311 0.0
C743 C 1.00431 0.43201 0.15662 0.0
H744 H 0.94231 0.41324 0.1078 0.0
C745 C 0.02703 0.41319 0.14437 0.0
H746 H 0.95548 0.44552 0.15233 0.0
C747 C 0.0196 0.39507 0.1185 0.0
C748 C 0.98895 0.39464 0.10509 0.0
H749 H 0.05069 0.41287 0.15446 0.0
H750 H 0.03783 0.38135 0.10898 0.0
C751 C 0.96596 0.41282 0.11787 0.0
C752 C 0.9246 0.77176 0.3546 0.0
C753 C 0.89178 0.76845 0.34687 0.0
H754 H 0.97332 0.76853 0.33966 0.0
C755 C 0.8834 0.76154 0.31636 0.0
H756 H 0.93183 0.77724 0.37789 0.0
C757 C 0.90708 0.75631 0.29459 0.0
C758 C 0.9398 0.75807 0.30266 0.0
H759 H 0.85847 0.75845 0.30959 0.0
H760 H 0.89958 0.74998 0.27156 0.0
C761 C 0.94837 0.76676 0.33271 0.0
C762 C 0.63038 0.48174 0.63862 0.0
C763 C 0.59689 0.4763 0.63839 0.0
H764 H 0.67558 0.46765 0.62391 0.0
C765 C 0.5835 0.45025 0.62309 0.0
H766 H 0.64169 0.5012 0.65046 0.0
C767 C 0.60326 0.4302 0.60835 0.0
C768 C 0.63676 0.43576 0.60868 0.0
H769 H 0.55776 0.44544 0.62218 0.0
H770 H 0.59244 0.41043 0.59659 0.0
C771 C 0.64999 0.46191 0.62387 0.0
C772 C 0.87966 0.47541 0.01374 0.0
C773 C 0.87544 0.44602 0.0013 0.0
H774 H 0.8573 0.5142 0.03108 0.0
C775 C 0.84404 0.43393 0.99504 0.0
H776 H 0.90343 0.48521 0.01921 0.0
C777 C 0.81742 0.45062 0.00172 0.0
C778 C 0.82166 0.47953 0.01534 0.0
H779 H 0.84012 0.41134 0.98539 0.0
H780 H 0.79354 0.44053 0.99705 0.0
C781 C 0.85312 0.49186 0.02086 0.0
C782 C 0.70233 0.53837 0.51082 0.0
C783 C 0.69759 0.51246 0.52906 0.0
H784 H 0.68079 0.57642 0.49089 0.0
C785 C 0.66665 0.50471 0.54066 0.0
H786 H 0.72584 0.54484 0.50151 0.0
C787 C 0.641 0.52215 0.53388 0.0
C788 C 0.64571 0.54812 0.51584 0.0
H789 H 0.66204 0.48476 0.55458 0.0
H790 H 0.61752 0.51568 0.54325 0.0
C791 C 0.67665 0.55632 0.50465 0.0
C792 C 0.99386 0.08658 0.30122 0.0
C793 C 0.99472 0.06697 0.27575 0.0
H794 H 0.99403 0.13245 0.31728 0.0
C795 C 0.99115 0.079 0.24636 0.0
H796 H 0.99637 0.07812 0.3242 0.0
C797 C 0.98995 0.11023 0.24237 0.0
C798 C 0.99216 0.13011 0.26767 0.0
H799 H 0.99141 0.06454 0.22622 0.0
H800 H 0.98927 0.11887 0.2193 0.0
C801 C 0.99256 0.11782 0.29723 0.0
C802 C 0.22936 0.78896 0.53295 0.0
C803 C 0.25211 0.76804 0.52512 0.0
H804 H 0.18289 0.80506 0.5242 0.0
C805 C 0.24431 0.7464 0.50205 0.0
H806 H 0.23464 0.80612 0.55042 0.0
C807 C 0.21455 0.74573 0.48718 0.0
C808 C 0.19209 0.76702 0.49459 0.0
H809 H 0.2613 0.73006 0.49534 0.0
H810 H 0.20933 0.72889 0.46942 0.0
C811 C 0.19983 0.78862 0.51769 0.0
C812 C 0.52543 0.92113 0.75806 0.0
C813 C 0.52091 0.93292 0.78769 0.0
H814 H 0.52365 0.88168 0.72911 0.0
C815 C 0.51565 0.91261 0.81198 0.0
H816 H 0.52974 0.9361 0.73882 0.0
C817 C 0.51202 0.88141 0.80637 0.0
C818 C 0.51368 0.8698 0.77636 0.0
H819 H 0.51227 0.92084 0.83512 0.0
H820 H 0.50618 0.86654 0.82541 0.0
C821 C 0.52185 0.88988 0.75245 0.0
C822 C 0.26866 0.25257 0.01232 0.0
C823 C 0.26365 0.24018 0.04156 0.0
H824 H 0.30117 0.26098 0.97508 0.0
C825 C 0.28981 0.22852 0.05668 0.0
H826 H 0.24908 0.26168 0.99995 0.0
C827 C 0.31985 0.22803 0.04228 0.0
C828 C 0.3245 0.23936 0.01252 0.0
H829 H 0.28683 0.21869 0.07918 0.0
H830 H 0.3393 0.21841 0.05435 0.0
C831 C 0.29867 0.25222 0.99803 0.0
C832 C 0.26345 0.01868 0.11605 0.0
C833 C 0.25029 0.99335 0.13189 0.0
H834 H 0.27437 0.03886 0.07292 0.0
C835 C 0.23861 0.96767 0.11518 0.0
H836 H 0.27332 0.03849 0.12825 0.0
C837 C 0.23974 0.96759 0.08316 0.0
C838 C 0.25274 0.99315 0.06737 0.0
H839 H 0.22826 0.94786 0.12681 0.0
H840 H 0.23076 0.94746 0.07084 0.0
C841 C 0.26453 0.01867 0.08424 0.0
C842 C 0.25388 0.00585 0.38981 0.0
C843 C 0.22449 0.98841 0.39145 0.0
H844 H 0.28851 0.02951 0.36106 0.0
C845 C 0.20997 0.97753 0.36414 0.0
H846 H 0.26583 0.01445 0.41041 0.0
C847 C 0.2229 0.98634 0.33584 0.0
C848 C 0.25068 0.00608 0.33427 0.0
H849 H 0.18744 0.96389 0.36453 0.0
H850 H 0.21011 0.97899 0.31525 0.0
C851 C 0.26686 0.01459 0.36148 0.0
C852 C 0.2742 0.00484 0.60958 0.0
C853 C 0.28203 0.02843 0.63037 0.0
H854 H 0.25496 0.99194 0.56602 0.0
C855 C 0.2777 0.05841 0.6221 0.0
H856 H 0.27806 0.98167 0.61546 0.0
C857 C 0.26387 0.06446 0.59386 0.0
C858 C 0.2545 0.04055 0.57358 0.0
H859 H 0.28354 0.07685 0.63805 0.0
H860 H 0.2594 0.08762 0.58844 0.0
C861 C 0.26077 0.0108 0.58143 0.0
C862 C 0.23079 0.01506 0.83795 0.0
C863 C 0.25384 0.01917 0.81466 0.0
H864 H 0.21907 0.02363 0.88485 0.0
C865 C 0.28047 0.0398 0.81935 0.0
H866 H 0.20988 0.99948 0.83481 0.0
C867 C 0.28538 0.05415 0.84769 0.0
C868 C 0.26409 0.04761 0.87209 0.0
H869 H 0.29835 0.04375 0.80156 0.0
H870 H 0.30726 0.06836 0.85109 0.0
C871 C 0.23598 0.02902 0.86654 0.0
C872 C 0.04769 0.27624 0.04444 0.0
C873 C 0.0409 0.2824 0.01372 0.0
H874 H 0.07534 0.25202 0.07583 0.0
C875 C 0.05752 0.26734 0.99066 0.0
H876 H 0.0357 0.28751 0.06287 0.0
C877 C 0.08064 0.24704 0.99815 0.0
C878 C 0.08785 0.24142 0.02891 0.0
H879 H 0.05269 0.27122 0.96676 0.0
H880 H 0.09339 0.23635 0.97984 0.0
C881 C 0.0708 0.25606 0.05191 0.0
C882 C 0.5787 0.27231 0.988 0.0
C883 C 0.58069 0.2857 0.95899 0.0
H884 H 0.55005 0.24558 0.01968 0.0
C885 C 0.55359 0.28309 0.93984 0.0
H886 H 0.59918 0.27386 0.00325 0.0
C887 C 0.52557 0.26638 0.94903 0.0
C888 C 0.52387 0.25234 0.97776 0.0
H889 H 0.55442 0.2929 0.91723 0.0
H890 H 0.50539 0.26411 0.93345 0.0
C891 C 0.55053 0.25605 0.99738 0.0
C892 C 0.00981 0.34726 0.31405 0.0
C893 C 0.98434 0.32882 0.30151 0.0
H894 H 0.03176 0.39213 0.31921 0.0
C895 C 0.95986 0.34254 0.28583 0.0
H896 H 0.02886 0.33733 0.32643 0.0
C897 C 0.96151 0.37386 0.28168 0.0
C898 C 0.98752 0.39219 0.29332 0.0
H899 H 0.94007 0.32898 0.27562 0.0
H900 H 0.94267 0.38372 0.26893 0.0
C901 C 0.01131 0.37864 0.31013 0.0
C902 C 0.98705 0.73493 0.44282 0.0
C903 C 0.99057 0.75413 0.46864 0.0
H904 H 0.95612 0.70399 0.41674 0.0
C905 C 0.96503 0.75455 0.48968 0.0
H906 H 0.0063 0.7338 0.42625 0.0
C907 C 0.93607 0.73741 0.48417 0.0
C908 C 0.9321 0.71919 0.45766 0.0
H909 H 0.96694 0.76894 0.50988 0.0
H910 H 0.91641 0.73926 0.50018 0.0
C911 C 0.95828 0.71758 0.43748 0.0
C912 C 0.43868 0.74176 0.49455 0.0
C913 C 0.43249 0.754 0.52365 0.0
H914 H 0.46558 0.71123 0.46802 0.0
C915 C 0.45068 0.74491 0.54862 0.0
H916 H 0.42507 0.74799 0.47484 0.0
C917 C 0.47386 0.72367 0.54472 0.0
C918 C 0.47938 0.71077 0.51578 0.0
H919 H 0.44687 0.75409 0.57129 0.0
H920 H 0.48679 0.71672 0.5646 0.0
C921 C 0.46173 0.72037 0.4907 0.0
C922 C 0.02502 0.87973 0.16143 0.0
C923 C 0.03589 0.8923 0.18958 0.0
H924 H 0.00835 0.83965 0.13672 0.0
C925 C 0.04131 0.87255 0.2138 0.0
H926 H 0.02113 0.89405 0.14208 0.0
C927 C 0.03446 0.84147 0.21052 0.0
C928 C 0.02176 0.82913 0.18308 0.0
H929 H 0.04958 0.88087 0.23591 0.0
H930 H 0.03852 0.82715 0.22986 0.0
C931 C 0.01796 0.84846 0.15823 0.0
C932 C 0.49509 0.13698 0.72426 0.0
C933 C 0.49939 0.11486 0.70154 0.0
H934 H 0.4953 0.18403 0.73554 0.0
C935 C 0.50603 0.12439 0.67142 0.0
H936 H 0.49015 0.13074 0.74774 0.0
C937 C 0.50957 0.15526 0.66451 0.0
C938 C 0.50652 0.1773 0.68755 0.0
H939 H 0.50898 0.10805 0.65322 0.0
H940 H 0.51577 0.16177 0.64134 0.0
C941 C 0.4985 0.16773 0.71733 0.0
C942 C 0.49602 0.37816 0.73012 0.0
C943 C 0.48188 0.35731 0.7088 0.0
H944 H 0.50393 0.42476 0.74357 0.0
C945 C 0.46054 0.3677 0.68706 0.0
H946 H 0.51262 0.37097 0.74717 0.0
C947 C 0.4556 0.39855 0.68497 0.0
C948 C 0.47192 0.41974 0.70454 0.0
H949 H 0.44907 0.35222 0.67043 0.0
H950 H 0.44029 0.40591 0.6669 0.0
C951 C 0.49117 0.40908 0.72795 0.0
C952 C 0.81357 0.29779 0.98737 0.0
C953 C 0.78695 0.29536 0.00711 0.0
H954 H 0.86402 0.3092 0.98267 0.0
C955 C 0.79159 0.30203 0.03841 0.0
H956 H 0.81072 0.29261 0.96323 0.0
C957 C 0.82198 0.31176 0.04957 0.0
C958 C 0.84856 0.31457 0.02979 0.0
H959 H 0.77149 0.30068 0.05415 0.0
H960 H 0.82455 0.31756 0.07362 0.0
C961 C 0.84411 0.30701 0.99863 0.0
C962 C 0.01806 0.62275 0.26791 0.0
C963 C 0.02355 0.64577 0.24622 0.0
H964 H 0.01293 0.57509 0.27625 0.0
C965 C 0.03289 0.6376 0.21642 0.0
H966 H 0.01093 0.62816 0.29107 0.0
C967 C 0.03366 0.60708 0.20778 0.0
C968 C 0.02553 0.58402 0.22881 0.0
H969 H 0.0374 0.65466 0.19905 0.0
H970 H 0.03895 0.60159 0.18416 0.0
C971 C 0.01916 0.59223 0.25934 0.0
C972 C 0.67258 0.69288 0.50623 0.0
C973 C 0.67036 0.68563 0.53751 0.0
H974 H 0.70278 0.70964 0.4694 0.0
C975 C 0.6976 0.69137 0.55602 0.0
H976 H 0.65215 0.68846 0.49123 0.0
C977 C 0.72641 0.70388 0.54352 0.0
C978 C 0.72886 0.71031 0.51209 0.0
H979 H 0.69675 0.68589 0.58012 0.0
H980 H 0.7471 0.70765 0.55828 0.0
C981 C 0.7016 0.70476 0.49362 0.0
C982 C 0.80333 0.43914 0.43299 0.0
C983 C 0.77791 0.42319 0.44819 0.0
H984 H 0.81988 0.45986 0.39123 0.0
C985 C 0.75024 0.41346 0.43166 0.0
H986 H 0.82479 0.44715 0.44526 0.0
C987 C 0.74753 0.42054 0.40074 0.0
C988 C 0.77225 0.43791 0.38599 0.0
H989 H 0.73039 0.40103 0.44291 0.0
H990 H 0.7255 0.41371 0.38879 0.0
C991 C 0.80042 0.44664 0.40222 0.0
C992 C 0.78636 0.48772 0.66509 0.0
C993 C 0.78177 0.46069 0.64801 0.0
H994 H 0.78712 0.50856 0.70949 0.0
C995 C 0.77981 0.43295 0.66359 0.0
H996 H 0.78834 0.50946 0.65383 0.0
C997 C 0.77912 0.43241 0.69557 0.0
C998 C 0.78038 0.45959 0.71263 0.0
H999 H 0.77663 0.41165 0.65116 0.0
H1000 H 0.77529 0.41074 0.70676 0.0
C1001 C 0.78572 0.48718 0.69708 0.0
C1002 C 0.75799 0.57853 0.92804 0.0
C1003 C 0.72982 0.57097 0.94471 0.0
H1004 H 0.78102 0.57937 0.8842 0.0
C1005 C 0.70193 0.56043 0.92891 0.0
H1006 H 0.77972 0.58689 0.93969 0.0
C1007 C 0.70271 0.55597 0.89723 0.0
C1008 C 0.73122 0.56241 0.88072 0.0
H1009 H 0.67996 0.55422 0.94121 0.0
H1010 H 0.68128 0.5467 0.88568 0.0
C1011 C 0.75863 0.57451 0.8963 0.0
C1012 C 0.74434 0.49673 0.19365 0.0
C1013 C 0.73356 0.52385 0.20587 0.0
H1014 H 0.75763 0.47237 0.15346 0.0
C1015 C 0.72322 0.54565 0.18563 0.0
H1016 H 0.75246 0.47937 0.20851 0.0
C1017 C 0.72574 0.54136 0.15393 0.0
C1018 C 0.73916 0.5154 0.14182 0.0
H1019 H 0.71466 0.56671 0.19425 0.0
H1020 H 0.71926 0.5594 0.13906 0.0
C1021 C 0.74732 0.49266 0.16201 0.0
C1022 C 0.53437 0.66167 0.76628 0.0
C1023 C 0.51351 0.67364 0.78787 0.0
H1024 H 0.54822 0.62213 0.74224 0.0
C1025 C 0.49144 0.65389 0.80336 0.0
H1026 H 0.55133 0.67641 0.75372 0.0
C1027 C 0.48984 0.62279 0.79694 0.0
C1028 C 0.50987 0.61104 0.77449 0.0
H1029 H 0.47515 0.66263 0.8201 0.0
H1030 H 0.47211 0.60811 0.80864 0.0
C1031 C 0.53239 0.63071 0.75949 0.0
loop_
_geom_bond_atom_site_label_1
_geom_bond_atom_site_label_2
_geom_bond_distance
_geom_bond_site_symmetry_2
_ccdc_geom_bond_type
Cu0 N1 1.999 . S
Cu0 O6 1.974 . S
Cu0 N11 1.985 . S
Cu0 O20 1.959 . S
N1 Cu0 1.999 . S
N1 C3 1.263 . S
N1 C5 1.389 . S
N2 C3 1.358 . S
N2 C4 1.400 . S
C3 N1 1.263 . S
C3 N2 1.358 . S
C3 H9 0.930 . S
C4 N2 1.400 . S
C4 C5 1.351 . S
C4 H21 0.930 . S
C5 N1 1.389 . S
C5 C4 1.351 . S
C5 H10 0.930 . S
O6 Cu0 1.974 . S
O6 C16 1.282 . S
C7 O8 1.261 . S
C7 O20 1.251 . S
O8 C7 1.261 . S
H9 C3 0.930 . S
H10 C5 0.930 . S
N11 Cu0 1.985 . S
N11 C13 1.335 . S
N11 C14 1.390 . S
N12 C13 1.345 . S
N12 C15 1.336 . S
C13 N11 1.335 . S
C13 N12 1.345 . S
C13 H18 0.930 . S
C14 N11 1.390 . S
C14 C15 1.346 . S
C14 H19 0.930 . S
C15 N12 1.336 . S
C15 C14 1.346 . S
C15 H22 0.929 . S
C16 O6 1.282 . S
C16 O17 1.216 . S
O17 C16 1.216 . S
H18 C13 0.930 . S
H19 C14 0.930 . S
O20 Cu0 1.959 . S
O20 C7 1.251 . S
H21 C4 0.930 . S
H22 C15 0.929 . S
Cu23 N24 1.996 1_455 S
Cu23 O29 1.974 1_455 S
Cu23 N34 1.985 . S
Cu23 O43 1.959 . S
N24 Cu23 1.996 1_655 S
N24 C26 1.276 . S
N24 C28 1.380 1_655 S
N25 C26 1.358 . S
N25 C27 1.400 1_655 S
C26 N24 1.276 . S
C26 N25 1.358 . S
C26 H32 0.930 . S
C27 N25 1.400 1_455 S
C27 C28 1.351 . S
C27 H44 0.930 . S
C28 N24 1.380 1_455 S
C28 C27 1.351 . S
C28 H33 0.930 . S
O29 Cu23 1.974 1_655 S
O29 C39 1.282 . S
C30 O31 1.261 . S
C30 O43 1.251 . S
O31 C30 1.261 . S
H32 C26 0.930 . S
H33 C28 0.930 . S
N34 Cu23 1.985 . S
N34 C36 1.335 . S
N34 C37 1.390 1_455 S
N35 C36 1.345 . S
N35 C38 1.336 . S
C36 N34 1.335 . S
C36 N35 1.345 . S
C36 H41 0.930 . S
C37 N34 1.390 1_655 S
C37 C38 1.346 1_655 S
C37 H42 0.930 . S
C38 N35 1.336 . S
C38 C37 1.346 1_455 S
C38 H45 0.929 1_455 S
C39 O29 1.282 . S
C39 O40 1.216 . S
O40 C39 1.216 . S
H41 C36 0.930 . S
H42 C37 0.930 . S
O43 Cu23 1.959 . S
O43 C30 1.251 . S
H44 C27 0.930 . S
H45 C38 0.929 1_655 S
Cu46 N47 1.999 . S
Cu46 O52 1.974 . S
Cu46 N57 1.985 . S
Cu46 O66 1.959 . S
N47 Cu46 1.999 . S
N47 C49 1.263 . S
N47 C51 1.389 . S
N48 C49 1.358 . S
N48 C50 1.400 . S
C49 N47 1.263 . S
C49 N48 1.358 . S
C49 H55 0.930 . S
C50 N48 1.400 . S
C50 C51 1.351 . S
C50 H67 0.930 . S
C51 N47 1.389 . S
C51 C50 1.351 . S
C51 H56 0.930 . S
O52 Cu46 1.974 . S
O52 C62 1.282 . S
C53 O54 1.261 . S
C53 O66 1.251 . S
O54 C53 1.261 . S
H55 C49 0.930 . S
H56 C51 0.930 . S
N57 Cu46 1.985 . S
N57 C59 1.335 . S
N57 C60 1.390 . S
N58 C59 1.345 . S
N58 C61 1.336 . S
C59 N57 1.335 . S
C59 N58 1.345 . S
C59 H64 0.930 . S
C60 N57 1.390 . S
C60 C61 1.346 . S
C60 H65 0.930 . S
C61 N58 1.336 . S
C61 C60 1.346 . S
C61 H68 0.929 . S
C62 O52 1.282 . S
C62 O63 1.216 . S
O63 C62 1.216 . S
H64 C59 0.930 . S
H65 C60 0.930 . S
O66 Cu46 1.959 . S
O66 C53 1.251 . S
H67 C50 0.930 . S
H68 C61 0.929 . S
Cu69 N70 1.999 . S
Cu69 O75 1.974 . S
Cu69 N80 1.985 1_556 S
Cu69 O89 1.959 . S
N70 Cu69 1.999 . S
N70 C72 1.263 . S
N70 C74 1.389 . S
N71 C72 1.358 . S
N71 C73 1.400 . S
C72 N70 1.263 . S
C72 N71 1.358 . S
C72 H78 0.930 . S
C73 N71 1.400 . S
C73 C74 1.351 . S
C73 H90 0.930 . S
C74 N70 1.389 . S
C74 C73 1.351 . S
C74 H79 0.930 . S
O75 Cu69 1.974 . S
O75 C85 1.282 . S
C76 O77 1.261 . S
C76 O89 1.251 1_554 S
O77 C76 1.261 . S
H78 C72 0.930 . S
H79 C74 0.930 . S
N80 Cu69 1.985 1_554 S
N80 C82 1.335 . S
N80 C83 1.390 . S
N81 C82 1.345 . S
N81 C84 1.336 . S
C82 N80 1.335 . S
C82 N81 1.345 . S
C82 H87 0.930 . S
C83 N80 1.390 . S
C83 C84 1.346 . S
C83 H88 0.930 . S
C84 N81 1.336 . S
C84 C83 1.346 . S
C84 H91 0.929 . S
C85 O75 1.282 . S
C85 O86 1.216 1_556 S
O86 C85 1.216 1_554 S
H87 C82 0.930 . S
H88 C83 0.930 . S
O89 Cu69 1.959 . S
O89 C76 1.251 1_556 S
H90 C73 0.930 . S
H91 C84 0.929 . S
Cu92 N93 1.999 1_565 S
Cu92 O98 1.974 1_565 S
Cu92 N103 1.985 1_455 S
Cu92 O112 1.959 . S
N93 Cu92 1.999 1_545 S
N93 C95 1.263 . S
N93 C97 1.389 1_545 S
N94 C95 1.358 . S
N94 C96 1.400 . S
C95 N93 1.263 . S
C95 N94 1.358 . S
C95 H101 0.930 . S
C96 N94 1.400 . S
C96 C97 1.351 1_545 S
C96 H113 0.930 1_545 S
C97 N93 1.389 1_565 S
C97 C96 1.351 1_565 S
C97 H102 0.930 . S
O98 Cu92 1.974 1_545 S
O98 C108 1.282 . S
C99 O100 1.261 . S
C99 O112 1.251 1_655 S
O100 C99 1.261 . S
H101 C95 0.930 . S
H102 C97 0.930 . S
N103 Cu92 1.985 1_655 S
N103 C105 1.335 . S
N103 C106 1.390 1_565 S
N104 C105 1.345 . S
N104 C107 1.336 . S
C105 N103 1.335 . S
C105 N104 1.345 . S
C105 H110 0.930 . S
C106 N103 1.390 1_545 S
C106 C107 1.346 1_545 S
C106 H111 0.930 . S
C107 N104 1.336 . S
C107 C106 1.346 1_565 S
C107 H114 0.929 . S
C108 O98 1.282 . S
C108 O109 1.216 1_455 S
O109 C108 1.216 1_655 S
H110 C105 0.930 . S
H111 C106 0.930 . S
O112 Cu92 1.959 . S
O112 C99 1.251 1_455 S
H113 C96 0.930 1_565 S
H114 C107 0.929 . S
Cu115 N116 1.999 . S
Cu115 O121 1.974 . S
Cu115 N126 1.985 . S
Cu115 O135 1.959 . S
N116 Cu115 1.999 . S
N116 C118 1.263 . S
N116 C120 1.389 . S
N117 C118 1.358 . S
N117 C119 1.400 . S
C118 N116 1.263 . S
C118 N117 1.358 . S
C118 H124 0.930 . S
C119 N117 1.400 . S
C119 C120 1.351 . S
C119 H136 0.930 . S
C120 N116 1.389 . S
C120 C119 1.351 . S
C120 H125 0.930 . S
O121 Cu115 1.974 . S
O121 C131 1.282 . S
C122 O123 1.261 . S
C122 O135 1.251 . S
O123 C122 1.261 . S
H124 C118 0.930 . S
H125 C120 0.930 . S
N126 Cu115 1.985 . S
N126 C128 1.335 . S
N126 C129 1.390 . S
N127 C128 1.345 . S
N127 C130 1.336 . S
C128 N126 1.335 . S
C128 N127 1.345 . S
C128 H133 0.930 . S
C129 N126 1.390 . S
C129 C130 1.346 . S
C129 H134 0.930 . S
C130 N127 1.336 . S
C130 C129 1.346 . S
C130 H137 0.929 . S
C131 O121 1.282 . S
C131 O132 1.216 . S
O132 C131 1.216 . S
H133 C128 0.930 . S
H134 C129 0.930 . S
O135 Cu115 1.959 . S
O135 C122 1.251 . S
H136 C119 0.930 . S
H137 C130 0.929 . S
Cu138 N139 1.999 1_545 S
Cu138 O144 1.974 1_545 S
Cu138 N149 1.985 . S
Cu138 O158 1.959 . S
N139 Cu138 1.999 1_565 S
N139 C141 1.263 . S
N139 C143 1.389 1_565 S
N140 C141 1.358 . S
N140 C142 1.400 . S
C141 N139 1.263 . S
C141 N140 1.358 . S
C141 H147 0.930 . S
C142 N140 1.400 . S
C142 C143 1.351 1_565 S
C142 H159 0.930 1_565 S
C143 N139 1.389 1_545 S
C143 C142 1.351 1_545 S
C143 H148 0.930 . S
O144 Cu138 1.974 1_565 S
O144 C154 1.282 . S
C145 O146 1.261 . S
C145 O158 1.251 . S
O146 C145 1.261 . S
H147 C141 0.930 . S
H148 C143 0.930 . S
N149 Cu138 1.985 . S
N149 C151 1.335 . S
N149 C152 1.390 1_545 S
N150 C151 1.345 . S
N150 C153 1.336 . S
C151 N149 1.335 . S
C151 N150 1.345 . S
C151 H156 0.930 . S
C152 N149 1.390 1_565 S
C152 C153 1.346 1_565 S
C152 H157 0.930 . S
C153 N150 1.336 . S
C153 C152 1.346 1_545 S
C153 H160 0.929 . S
C154 O144 1.282 . S
C154 O155 1.216 . S
O155 C154 1.216 . S
H156 C151 0.930 . S
H157 C152 0.930 . S
O158 Cu138 1.959 . S
O158 C145 1.251 . S
H159 C142 0.930 1_545 S
H160 C153 0.929 . S
Cu161 N162 1.999 . S
Cu161 O167 1.974 . S
Cu161 N172 1.985 . S
Cu161 O181 1.959 . S
N162 Cu161 1.999 . S
N162 C164 1.263 . S
N162 C166 1.389 . S
N163 C164 1.358 . S
N163 C165 1.400 . S
C164 N162 1.263 . S
C164 N163 1.358 . S
C164 H170 0.930 . S
C165 N163 1.400 . S
C165 C166 1.351 . S
C165 H182 0.930 . S
C166 N162 1.389 . S
C166 C165 1.351 . S
C166 H171 0.930 . S
O167 Cu161 1.974 . S
O167 C177 1.282 . S
C168 O169 1.261 . S
C168 O181 1.251 . S
O169 C168 1.261 . S
H170 C164 0.930 . S
H171 C166 0.930 . S
N172 Cu161 1.985 . S
N172 C174 1.335 . S
N172 C175 1.390 . S
N173 C174 1.345 . S
N173 C176 1.336 . S
C174 N172 1.335 . S
C174 N173 1.345 . S
C174 H179 0.930 . S
C175 N172 1.390 . S
C175 C176 1.346 . S
C175 H180 0.930 . S
C176 N173 1.336 . S
C176 C175 1.346 . S
C176 H183 0.929 . S
C177 O167 1.282 . S
C177 O178 1.216 . S
O178 C177 1.216 . S
H179 C174 0.930 . S
H180 C175 0.930 . S
O181 Cu161 1.959 . S
O181 C168 1.251 . S
H182 C165 0.930 . S
H183 C176 0.929 . S
Cu184 N185 1.999 . S
Cu184 O190 1.974 . S
Cu184 N195 1.985 . S
Cu184 O204 1.959 . S
N185 Cu184 1.999 . S
N185 C187 1.263 . S
N185 C189 1.389 . S
N186 C187 1.358 . S
N186 C188 1.400 . S
C187 N185 1.263 . S
C187 N186 1.358 . S
C187 H193 0.930 . S
C188 N186 1.400 . S
C188 C189 1.351 . S
C188 H205 0.930 . S
C189 N185 1.389 . S
C189 C188 1.351 . S
C189 H194 0.930 . S
O190 Cu184 1.974 . S
O190 C200 1.282 . S
C191 O192 1.261 . S
C191 O204 1.251 . S
O192 C191 1.261 . S
H193 C187 0.930 . S
H194 C189 0.930 . S
N195 Cu184 1.985 . S
N195 C197 1.335 . S
N195 C198 1.390 . S
N196 C197 1.345 . S
N196 C199 1.336 . S
C197 N195 1.335 . S
C197 N196 1.345 . S
C197 H202 0.930 . S
C198 N195 1.390 . S
C198 C199 1.346 . S
C198 H203 0.930 . S
C199 N196 1.336 . S
C199 C198 1.346 . S
C199 H206 0.929 . S
C200 O190 1.282 . S
C200 O201 1.216 . S
O201 C200 1.216 . S
H202 C197 0.930 . S
H203 C198 0.930 . S
O204 Cu184 1.959 . S
O204 C191 1.251 . S
H205 C188 0.930 . S
H206 C199 0.929 . S
Cu207 N208 1.999 . S
Cu207 O213 1.974 . S
Cu207 N218 1.985 . S
Cu207 O227 1.959 1_545 S
N208 Cu207 1.999 . S
N208 C210 1.263 . S
N208 C212 1.389 . S
N209 C210 1.358 . S
N209 C211 1.400 . S
C210 N208 1.263 . S
C210 N209 1.358 . S
C210 H216 0.930 . S
C211 N209 1.400 . S
C211 C212 1.351 . S
C211 H228 0.930 . S
C212 N208 1.389 . S
C212 C211 1.351 . S
C212 H217 0.930 . S
O213 Cu207 1.974 . S
O213 C223 1.282 . S
C214 O215 1.261 . S
C214 O227 1.251 . S
O215 C214 1.261 . S
H216 C210 0.930 . S
H217 C212 0.930 . S
N218 Cu207 1.985 . S
N218 C220 1.335 1_545 S
N218 C221 1.390 . S
N219 C220 1.345 . S
N219 C222 1.336 . S
C220 N218 1.335 1_565 S
C220 N219 1.345 . S
C220 H225 0.930 . S
C221 N218 1.390 . S
C221 C222 1.346 1_545 S
C221 H226 0.930 . S
C222 N219 1.336 . S
C222 C221 1.346 1_565 S
C222 H229 0.929 . S
C223 O213 1.282 . S
C223 O224 1.216 . S
O224 C223 1.216 . S
H225 C220 0.930 . S
H226 C221 0.930 . S
O227 Cu207 1.959 1_565 S
O227 C214 1.251 . S
H228 C211 0.930 . S
H229 C222 0.929 . S
Cu230 N231 1.999 . S
Cu230 O236 1.974 . S
Cu230 N241 1.985 . S
Cu230 O250 1.959 . S
N231 Cu230 1.999 . S
N231 C233 1.263 . S
N231 C235 1.389 . S
N232 C233 1.358 . S
N232 C234 1.400 . S
C233 N231 1.263 . S
C233 N232 1.358 . S
C233 H239 0.930 . S
C234 N232 1.400 . S
C234 C235 1.351 . S
C234 H251 0.930 . S
C235 N231 1.389 . S
C235 C234 1.351 . S
C235 H240 0.930 . S
O236 Cu230 1.974 . S
O236 C246 1.282 . S
C237 O238 1.261 . S
C237 O250 1.251 . S
O238 C237 1.261 . S
H239 C233 0.930 . S
H240 C235 0.930 . S
N241 Cu230 1.985 . S
N241 C243 1.335 . S
N241 C244 1.390 . S
N242 C243 1.345 . S
N242 C245 1.336 . S
C243 N241 1.335 . S
C243 N242 1.345 . S
C243 H248 0.930 . S
C244 N241 1.390 . S
C244 C245 1.346 . S
C244 H249 0.930 . S
C245 N242 1.336 . S
C245 C244 1.346 . S
C245 H252 0.929 . S
C246 O236 1.282 . S
C246 O247 1.216 . S
O247 C246 1.216 . S
H248 C243 0.930 . S
H249 C244 0.930 . S
O250 Cu230 1.959 . S
O250 C237 1.251 . S
H251 C234 0.930 . S
H252 C245 0.929 . S
Cu253 N254 1.999 1_554 S
Cu253 O259 1.974 1_554 S
Cu253 N264 1.995 . S
Cu253 O273 1.959 1_565 S
N254 Cu253 1.999 1_556 S
N254 C256 1.263 . S
N254 C258 1.389 . S
N255 C256 1.358 . S
N255 C257 1.400 . S
C256 N254 1.263 . S
C256 N255 1.358 . S
C256 H262 0.930 . S
C257 N255 1.400 . S
C257 C258 1.351 . S
C257 H274 0.930 . S
C258 N254 1.389 . S
C258 C257 1.351 . S
C258 H263 0.930 . S
O259 Cu253 1.974 1_556 S
O259 C269 1.282 . S
C260 O261 1.261 1_554 S
C260 O273 1.251 . S
O261 C260 1.261 1_556 S
H262 C256 0.930 . S
H263 C258 0.930 . S
N264 Cu253 1.995 . S
N264 C266 1.322 1_565 S
N264 C267 1.396 . S
N265 C266 1.345 . S
N265 C268 1.336 . S
C266 N264 1.322 1_545 S
C266 N265 1.345 . S
C266 H271 0.930 . S
C267 N264 1.396 . S
C267 C268 1.346 1_565 S
C267 H272 0.930 . S
C268 N265 1.336 . S
C268 C267 1.346 1_545 S
C268 H275 0.929 . S
C269 O259 1.282 . S
C269 O270 1.216 . S
O270 C269 1.216 . S
H271 C266 0.930 . S
H272 C267 0.930 . S
O273 Cu253 1.959 1_545 S
O273 C260 1.251 . S
H274 C257 0.930 . S
H275 C268 0.929 . S
Cu276 N277 1.999 . S
Cu276 O282 1.974 . S
Cu276 N287 1.985 . S
Cu276 O296 1.959 . S
N277 Cu276 1.999 . S
N277 C279 1.263 . S
N277 C281 1.389 . S
N278 C279 1.358 . S
N278 C280 1.400 . S
C279 N277 1.263 . S
C279 N278 1.358 . S
C279 H285 0.930 . S
C280 N278 1.400 . S
C280 C281 1.351 . S
C280 H297 0.930 . S
C281 N277 1.389 . S
C281 C280 1.351 . S
C281 H286 0.930 . S
O282 Cu276 1.974 . S
O282 C292 1.282 . S
C283 O284 1.261 . S
C283 O296 1.251 . S
O284 C283 1.261 . S
H285 C279 0.930 . S
H286 C281 0.930 . S
N287 Cu276 1.985 . S
N287 C289 1.335 . S
N287 C290 1.390 . S
N288 C289 1.345 . S
N288 C291 1.336 . S
C289 N287 1.335 . S
C289 N288 1.345 . S
C289 H294 0.930 . S
C290 N287 1.390 . S
C290 C291 1.346 . S
C290 H295 0.930 . S
C291 N288 1.336 . S
C291 C290 1.346 . S
C291 H298 0.929 . S
C292 O282 1.282 . S
C292 O293 1.216 . S
O293 C292 1.216 . S
H294 C289 0.930 . S
H295 C290 0.930 . S
O296 Cu276 1.959 . S
O296 C283 1.251 . S
H297 C280 0.930 . S
H298 C291 0.929 . S
Cu299 N300 1.999 . S
Cu299 O305 1.974 . S
Cu299 N310 1.985 1_655 S
Cu299 O319 1.959 . S
N300 Cu299 1.999 . S
N300 C302 1.263 . S
N300 C304 1.389 . S
N301 C302 1.358 . S
N301 C303 1.400 . S
C302 N300 1.263 . S
C302 N301 1.358 . S
C302 H308 0.930 . S
C303 N301 1.400 . S
C303 C304 1.351 . S
C303 H320 0.930 . S
C304 N300 1.389 . S
C304 C303 1.351 . S
C304 H309 0.930 . S
O305 Cu299 1.974 . S
O305 C315 1.282 . S
C306 O307 1.261 . S
C306 O319 1.251 1_455 S
O307 C306 1.261 . S
H308 C302 0.930 . S
H309 C304 0.930 . S
N310 Cu299 1.985 1_455 S
N310 C312 1.335 . S
N310 C313 1.390 . S
N311 C312 1.345 . S
N311 C314 1.336 . S
C312 N310 1.335 . S
C312 N311 1.345 . S
C312 H317 0.930 . S
C313 N310 1.390 . S
C313 C314 1.346 . S
C313 H318 0.930 . S
C314 N311 1.336 . S
C314 C313 1.346 . S
C314 H321 0.929 . S
C315 O305 1.282 . S
C315 O316 1.216 1_655 S
O316 C315 1.216 1_455 S
H317 C312 0.930 . S
H318 C313 0.930 . S
O319 Cu299 1.959 . S
O319 C306 1.251 1_655 S
H320 C303 0.930 . S
H321 C314 0.929 . S
Cu322 N323 1.999 . S
Cu322 O328 1.974 . S
Cu322 N333 1.985 . S
Cu322 O342 1.959 . S
N323 Cu322 1.999 . S
N323 C325 1.263 . S
N323 C327 1.389 . S
N324 C325 1.358 . S
N324 C326 1.400 . S
C325 N323 1.263 . S
C325 N324 1.358 . S
C325 H331 0.930 . S
C326 N324 1.400 . S
C326 C327 1.351 . S
C326 H343 0.930 . S
C327 N323 1.389 . S
C327 C326 1.351 . S
C327 H332 0.930 . S
O328 Cu322 1.974 . S
O328 C338 1.282 . S
C329 O330 1.261 . S
C329 O342 1.251 . S
O330 C329 1.261 . S
H331 C325 0.930 . S
H332 C327 0.930 . S
N333 Cu322 1.985 . S
N333 C335 1.335 . S
N333 C336 1.390 . S
N334 C335 1.345 . S
N334 C337 1.336 . S
C335 N333 1.335 . S
C335 N334 1.345 . S
C335 H340 0.930 . S
C336 N333 1.390 . S
C336 C337 1.346 . S
C336 H341 0.930 . S
C337 N334 1.336 . S
C337 C336 1.346 . S
C337 H344 0.929 . S
C338 O328 1.282 . S
C338 O339 1.216 . S
O339 C338 1.216 . S
H340 C335 0.930 . S
H341 C336 0.930 . S
O342 Cu322 1.959 . S
O342 C329 1.251 . S
H343 C326 0.930 . S
H344 C337 0.929 . S
Cu345 N346 1.999 . S
Cu345 O351 1.974 . S
Cu345 N356 1.985 . S
Cu345 O365 1.959 . S
N346 Cu345 1.999 . S
N346 C348 1.263 . S
N346 C350 1.389 . S
N347 C348 1.358 . S
N347 C349 1.400 . S
C348 N346 1.263 . S
C348 N347 1.358 . S
C348 H354 0.930 . S
C349 N347 1.400 . S
C349 C350 1.351 . S
C349 H366 0.930 . S
C350 N346 1.389 . S
C350 C349 1.351 . S
C350 H355 0.930 . S
O351 Cu345 1.974 . S
O351 C361 1.282 . S
C352 O353 1.261 . S
C352 O365 1.251 . S
O353 C352 1.261 . S
H354 C348 0.930 . S
H355 C350 0.930 . S
N356 Cu345 1.985 . S
N356 C358 1.335 . S
N356 C359 1.390 . S
N357 C358 1.345 . S
N357 C360 1.336 . S
C358 N356 1.335 . S
C358 N357 1.345 . S
C358 H363 0.930 . S
C359 N356 1.390 . S
C359 C360 1.346 . S
C359 H364 0.930 . S
C360 N357 1.336 . S
C360 C359 1.346 . S
C360 H367 0.929 1_655 S
C361 O351 1.282 . S
C361 O362 1.216 . S
O362 C361 1.216 . S
H363 C358 0.930 . S
H364 C359 0.930 . S
O365 Cu345 1.959 . S
O365 C352 1.251 . S
H366 C349 0.930 . S
H367 C360 0.929 1_455 S
Cu368 N369 1.999 . S
Cu368 O374 1.974 . S
Cu368 N379 1.985 . S
Cu368 O388 1.959 . S
N369 Cu368 1.999 . S
N369 C371 1.263 . S
N369 C373 1.389 . S
N370 C371 1.358 . S
N370 C372 1.400 . S
C371 N369 1.263 . S
C371 N370 1.358 . S
C371 H377 0.930 . S
C372 N370 1.400 . S
C372 C373 1.351 . S
C372 H389 0.930 . S
C373 N369 1.389 . S
C373 C372 1.351 . S
C373 H378 0.930 . S
O374 Cu368 1.974 . S
O374 C384 1.282 . S
C375 O376 1.261 . S
C375 O388 1.251 . S
O376 C375 1.261 . S
H377 C371 0.930 . S
H378 C373 0.930 . S
N379 Cu368 1.985 . S
N379 C381 1.335 . S
N379 C382 1.390 . S
N380 C381 1.345 . S
N380 C383 1.336 . S
C381 N379 1.335 . S
C381 N380 1.345 . S
C381 H386 0.930 . S
C382 N379 1.390 . S
C382 C383 1.346 . S
C382 H387 0.930 . S
C383 N380 1.336 . S
C383 C382 1.346 . S
C383 H390 0.929 . S
C384 O374 1.282 . S
C384 O385 1.216 . S
O385 C384 1.216 . S
H386 C381 0.930 . S
H387 C382 0.930 . S
O388 Cu368 1.959 . S
O388 C375 1.251 . S
H389 C372 0.930 . S
H390 C383 0.929 . S
Cu391 N392 1.999 . S
Cu391 O397 1.974 . S
Cu391 N402 1.985 . S
Cu391 O411 1.959 . S
N392 Cu391 1.999 . S
N392 C394 1.263 . S
N392 C396 1.389 . S
N393 C394 1.358 . S
N393 C395 1.400 . S
C394 N392 1.263 . S
C394 N393 1.358 . S
C394 H400 0.930 . S
C395 N393 1.400 . S
C395 C396 1.351 . S
C395 H412 0.930 . S
C396 N392 1.389 . S
C396 C395 1.351 . S
C396 H401 0.930 . S
O397 Cu391 1.974 . S
O397 C407 1.282 . S
C398 O399 1.261 . S
C398 O411 1.251 . S
O399 C398 1.261 . S
H400 C394 0.930 . S
H401 C396 0.930 . S
N402 Cu391 1.985 . S
N402 C404 1.335 . S
N402 C405 1.390 . S
N403 C404 1.345 . S
N403 C406 1.336 . S
C404 N402 1.335 . S
C404 N403 1.345 . S
C404 H409 0.930 . S
C405 N402 1.390 . S
C405 C406 1.346 . S
C405 H410 0.930 . S
C406 N403 1.336 . S
C406 C405 1.346 . S
C406 H413 0.929 . S
C407 O397 1.282 . S
C407 O408 1.216 . S
O408 C407 1.216 . S
H409 C404 0.930 . S
H410 C405 0.930 . S
O411 Cu391 1.959 . S
O411 C398 1.251 . S
H412 C395 0.930 . S
H413 C406 0.929 . S
Cu414 N415 1.999 1_455 S
Cu414 O420 1.974 1_455 S
Cu414 N425 1.985 1_556 S
Cu414 O434 1.959 1_556 S
N415 Cu414 1.999 1_655 S
N415 C417 1.263 . S
N415 C419 1.389 . S
N416 C417 1.358 . S
N416 C418 1.400 . S
C417 N415 1.263 . S
C417 N416 1.358 . S
C417 H423 0.930 . S
C418 N416 1.400 . S
C418 C419 1.351 . S
C418 H435 0.930 . S
C419 N415 1.389 . S
C419 C418 1.351 . S
C419 H424 0.930 1_655 S
O420 Cu414 1.974 1_655 S
O420 C430 1.282 . S
C421 O422 1.261 1_455 S
C421 O434 1.251 . S
O422 C421 1.261 1_655 S
H423 C417 0.930 . S
H424 C419 0.930 1_455 S
N425 Cu414 1.985 1_554 S
N425 C427 1.335 . S
N425 C428 1.390 1_554 S
N426 C427 1.345 . S
N426 C429 1.336 . S
C427 N425 1.335 . S
C427 N426 1.345 . S
C427 H432 0.930 . S
C428 N425 1.390 1_556 S
C428 C429 1.346 1_556 S
C428 H433 0.930 . S
C429 N426 1.336 . S
C429 C428 1.346 1_554 S
C429 H436 0.929 . S
C430 O420 1.282 . S
C430 O431 1.216 . S
O431 C430 1.216 . S
H432 C427 0.930 . S
H433 C428 0.930 . S
O434 Cu414 1.959 1_554 S
O434 C421 1.251 . S
H435 C418 0.930 . S
H436 C429 0.929 . S
Cu437 N438 1.999 . S
Cu437 O443 1.974 . S
Cu437 N448 1.985 . S
Cu437 O457 1.959 . S
N438 Cu437 1.999 . S
N438 C440 1.263 . S
N438 C442 1.389 . S
N439 C440 1.358 . S
N439 C441 1.400 . S
C440 N438 1.263 . S
C440 N439 1.358 . S
C440 H446 0.930 . S
C441 N439 1.400 . S
C441 C442 1.351 . S
C441 H458 0.930 . S
C442 N438 1.389 . S
C442 C441 1.351 . S
C442 H447 0.930 . S
O443 Cu437 1.974 . S
O443 C453 1.282 . S
C444 O445 1.261 . S
C444 O457 1.251 . S
O445 C444 1.261 . S
H446 C440 0.930 . S
H447 C442 0.930 . S
N448 Cu437 1.985 . S
N448 C450 1.335 . S
N448 C451 1.390 . S
N449 C450 1.345 . S
N449 C452 1.336 . S
C450 N448 1.335 . S
C450 N449 1.345 . S
C450 H455 0.930 . S
C451 N448 1.390 . S
C451 C452 1.346 . S
C451 H456 0.930 . S
C452 N449 1.336 . S
C452 C451 1.346 . S
C452 H459 0.929 . S
C453 O443 1.282 . S
C453 O454 1.216 . S
O454 C453 1.216 . S
H455 C450 0.930 . S
H456 C451 0.930 . S
O457 Cu437 1.959 . S
O457 C444 1.251 . S
H458 C441 0.930 . S
H459 C452 0.929 . S
Cu460 N461 1.999 . S
Cu460 O466 1.974 . S
Cu460 N471 1.985 . S
Cu460 O480 1.959 . S
N461 Cu460 1.999 . S
N461 C463 1.263 . S
N461 C465 1.389 . S
N462 C463 1.358 . S
N462 C464 1.400 . S
C463 N461 1.263 . S
C463 N462 1.358 . S
C463 H469 0.930 . S
C464 N462 1.400 . S
C464 C465 1.351 . S
C464 H481 0.930 . S
C465 N461 1.389 . S
C465 C464 1.351 . S
C465 H470 0.930 . S
O466 Cu460 1.974 . S
O466 C476 1.282 . S
C467 O468 1.261 . S
C467 O480 1.251 . S
O468 C467 1.261 . S
H469 C463 0.930 . S
H470 C465 0.930 . S
N471 Cu460 1.985 . S
N471 C473 1.335 . S
N471 C474 1.390 . S
N472 C473 1.345 . S
N472 C475 1.336 . S
C473 N471 1.335 . S
C473 N472 1.345 . S
C473 H478 0.930 . S
C474 N471 1.390 . S
C474 C475 1.346 . S
C474 H479 0.930 . S
C475 N472 1.336 . S
C475 C474 1.346 . S
C475 H482 0.929 . S
C476 O466 1.282 . S
C476 O477 1.216 . S
O477 C476 1.216 . S
H478 C473 0.930 . S
H479 C474 0.930 . S
O480 Cu460 1.959 . S
O480 C467 1.251 . S
H481 C464 0.930 . S
H482 C475 0.929 . S
Cu483 N484 1.999 . S
Cu483 O489 1.974 . S
Cu483 N494 1.985 . S
Cu483 O503 1.959 . S
N484 Cu483 1.999 . S
N484 C486 1.263 . S
N484 C488 1.389 . S
N485 C486 1.358 . S
N485 C487 1.400 . S
C486 N484 1.263 . S
C486 N485 1.358 . S
C486 H492 0.930 . S
C487 N485 1.400 . S
C487 C488 1.351 . S
C487 H504 0.930 . S
C488 N484 1.389 . S
C488 C487 1.351 . S
C488 H493 0.930 . S
O489 Cu483 1.974 . S
O489 C499 1.282 . S
C490 O491 1.261 . S
C490 O503 1.251 . S
O491 C490 1.261 . S
H492 C486 0.930 . S
H493 C488 0.930 . S
N494 Cu483 1.985 . S
N494 C496 1.335 . S
N494 C497 1.390 . S
N495 C496 1.345 . S
N495 C498 1.336 . S
C496 N494 1.335 . S
C496 N495 1.345 . S
C496 H501 0.930 . S
C497 N494 1.390 . S
C497 C498 1.346 . S
C497 H502 0.930 . S
C498 N495 1.336 . S
C498 C497 1.346 . S
C498 H505 0.929 . S
C499 O489 1.282 . S
C499 O500 1.216 . S
O500 C499 1.216 . S
H501 C496 0.930 . S
H502 C497 0.930 . S
O503 Cu483 1.959 . S
O503 C490 1.251 . S
H504 C487 0.930 . S
H505 C498 0.929 . S
Cu506 N507 1.999 1_556 S
Cu506 O512 1.974 1_556 S
Cu506 N517 1.985 . S
Cu506 O526 1.959 . S
N507 Cu506 1.999 1_554 S
N507 C509 1.263 . S
N507 C511 1.389 . S
N508 C509 1.358 . S
N508 C510 1.400 . S
C509 N507 1.263 . S
C509 N508 1.358 . S
C509 H515 0.930 . S
C510 N508 1.400 . S
C510 C511 1.351 . S
C510 H527 0.930 . S
C511 N507 1.389 . S
C511 C510 1.351 . S
C511 H516 0.930 . S
O512 Cu506 1.974 1_554 S
O512 C522 1.282 . S
C513 O514 1.261 . S
C513 O526 1.251 . S
O514 C513 1.261 . S
H515 C509 0.930 . S
H516 C511 0.930 . S
N517 Cu506 1.985 . S
N517 C519 1.335 . S
N517 C520 1.390 . S
N518 C519 1.345 . S
N518 C521 1.336 . S
C519 N517 1.335 . S
C519 N518 1.345 . S
C519 H524 0.930 . S
C520 N517 1.390 . S
C520 C521 1.346 . S
C520 H525 0.930 . S
C521 N518 1.336 . S
C521 C520 1.346 . S
C521 H528 0.929 . S
C522 O512 1.282 . S
C522 O523 1.216 . S
O523 C522 1.216 . S
H524 C519 0.930 . S
H525 C520 0.930 . S
O526 Cu506 1.959 . S
O526 C513 1.251 . S
H527 C510 0.930 . S
H528 C521 0.929 . S
Cu529 N530 1.999 . S
Cu529 O535 1.974 . S
Cu529 N540 1.985 . S
Cu529 O549 1.959 . S
N530 Cu529 1.999 . S
N530 C532 1.263 . S
N530 C534 1.389 . S
N531 C532 1.358 . S
N531 C533 1.400 . S
C532 N530 1.263 . S
C532 N531 1.358 . S
C532 H538 0.930 . S
C533 N531 1.400 . S
C533 C534 1.351 . S
C533 H550 0.930 . S
C534 N530 1.389 . S
C534 C533 1.351 . S
C534 H539 0.930 . S
O535 Cu529 1.974 . S
O535 C545 1.282 . S
C536 O537 1.261 . S
C536 O549 1.251 . S
O537 C536 1.261 . S
H538 C532 0.930 . S
H539 C534 0.930 . S
N540 Cu529 1.985 . S
N540 C542 1.335 . S
N540 C543 1.390 . S
N541 C542 1.345 . S
N541 C544 1.336 . S
C542 N540 1.335 . S
C542 N541 1.345 . S
C542 H547 0.930 . S
C543 N540 1.390 . S
C543 C544 1.346 . S
C543 H548 0.930 . S
C544 N541 1.336 . S
C544 C543 1.346 . S
C544 H551 0.929 . S
C545 O535 1.282 . S
C545 O546 1.216 . S
O546 C545 1.216 . S
H547 C542 0.930 . S
H548 C543 0.930 . S
O549 Cu529 1.959 . S
O549 C536 1.251 . S
H550 C533 0.930 . S
H551 C544 0.929 . S
C552 C553 1.387 . S
C552 H556 0.950 . S
C552 C561 1.390 . S
C553 C552 1.387 . S
C553 C555 1.387 . S
H554 C561 0.950 . S
C555 C553 1.387 . S
C555 C557 1.390 . S
C555 H559 0.950 . S
H556 C552 0.950 . S
C557 C555 1.390 . S
C557 C558 1.387 . S
C557 H560 0.950 . S
C558 C557 1.387 . S
C558 C561 1.387 . S
H559 C555 0.950 . S
H560 C557 0.950 . S
C561 C552 1.390 . S
C561 H554 0.950 . S
C561 C558 1.387 . S
C562 C563 1.387 . S
C562 H566 0.950 1_655 S
C562 C571 1.390 . S
C563 C562 1.387 . S
C563 C565 1.387 . S
H564 C571 0.950 1_455 S
C565 C563 1.387 . S
C565 C567 1.390 . S
C565 H569 0.950 . S
H566 C562 0.950 1_455 S
C567 C565 1.390 . S
C567 C568 1.387 . S
C567 H570 0.950 . S
C568 C567 1.387 . S
C568 C571 1.387 . S
H569 C565 0.950 . S
H570 C567 0.950 . S
C571 C562 1.390 . S
C571 H564 0.950 1_655 S
C571 C568 1.387 . S
C572 C573 1.387 . S
C572 H576 0.950 . S
C572 C581 1.390 . S
C573 C572 1.387 . S
C573 C575 1.387 . S
H574 C581 0.950 . S
C575 C573 1.387 . S
C575 C577 1.390 . S
C575 H579 0.950 . S
H576 C572 0.950 . S
C577 C575 1.390 . S
C577 C578 1.387 . S
C577 H580 0.950 . S
C578 C577 1.387 . S
C578 C581 1.387 . S
H579 C575 0.950 . S
H580 C577 0.950 . S
C581 C572 1.390 . S
C581 H574 0.950 . S
C581 C578 1.387 . S
C582 C583 1.387 . S
C582 H586 0.950 . S
C582 C591 1.390 . S
C583 C582 1.387 . S
C583 C585 1.387 . S
H584 C591 0.950 . S
C585 C583 1.387 . S
C585 C587 1.390 . S
C585 H589 0.950 . S
H586 C582 0.950 . S
C587 C585 1.390 . S
C587 C588 1.387 . S
C587 H590 0.950 . S
C588 C587 1.387 . S
C588 C591 1.387 . S
H589 C585 0.950 . S
H590 C587 0.950 . S
C591 C582 1.390 . S
C591 H584 0.950 . S
C591 C588 1.387 . S
C592 C593 1.387 . S
C592 H596 0.950 . S
C592 C601 1.390 . S
C593 C592 1.387 . S
C593 C595 1.387 . S
H594 C601 0.950 . S
C595 C593 1.387 . S
C595 C597 1.390 . S
C595 H599 0.950 . S
H596 C592 0.950 . S
C597 C595 1.390 . S
C597 C598 1.387 . S
C597 H600 0.950 . S
C598 C597 1.387 . S
C598 C601 1.387 . S
H599 C595 0.950 . S
H600 C597 0.950 . S
C601 C592 1.390 . S
C601 H594 0.950 . S
C601 C598 1.387 . S
C602 C603 1.387 . S
C602 H606 0.950 . S
C602 C611 1.390 . S
C603 C602 1.387 . S
C603 C605 1.387 . S
H604 C611 0.950 . S
C605 C603 1.387 . S
C605 C607 1.390 . S
C605 H609 0.950 . S
H606 C602 0.950 . S
C607 C605 1.390 . S
C607 C608 1.387 . S
C607 H610 0.950 . S
C608 C607 1.387 . S
C608 C611 1.387 . S
H609 C605 0.950 . S
H610 C607 0.950 . S
C611 C602 1.390 . S
C611 H604 0.950 . S
C611 C608 1.387 . S
C612 C613 1.387 . S
C612 H616 0.950 . S
C612 C621 1.390 . S
C613 C612 1.387 . S
C613 C615 1.387 . S
H614 C621 0.950 . S
C615 C613 1.387 . S
C615 C617 1.390 . S
C615 H619 0.950 . S
H616 C612 0.950 . S
C617 C615 1.390 . S
C617 C618 1.387 . S
C617 H620 0.950 . S
C618 C617 1.387 . S
C618 C621 1.387 . S
H619 C615 0.950 . S
H620 C617 0.950 . S
C621 C612 1.390 . S
C621 H614 0.950 . S
C621 C618 1.387 . S
C622 C623 1.387 1_556 S
C622 H626 0.950 . S
C622 C631 1.390 . S
C623 C622 1.387 1_554 S
C623 C625 1.387 . S
H624 C631 0.950 . S
C625 C623 1.387 . S
C625 C627 1.390 . S
C625 H629 0.950 . S
H626 C622 0.950 . S
C627 C625 1.390 . S
C627 C628 1.387 . S
C627 H630 0.950 . S
C628 C627 1.387 . S
C628 C631 1.387 1_554 S
H629 C625 0.950 . S
H630 C627 0.950 . S
C631 C622 1.390 . S
C631 H624 0.950 . S
C631 C628 1.387 1_556 S
C632 C633 1.387 . S
C632 H636 0.950 . S
C632 C641 1.390 . S
C633 C632 1.387 . S
C633 C635 1.387 . S
H634 C641 0.950 . S
C635 C633 1.387 . S
C635 C637 1.390 . S
C635 H639 0.950 . S
H636 C632 0.950 . S
C637 C635 1.390 . S
C637 C638 1.387 . S
C637 H640 0.950 . S
C638 C637 1.387 . S
C638 C641 1.387 . S
H639 C635 0.950 . S
H640 C637 0.950 . S
C641 C632 1.390 . S
C641 H634 0.950 . S
C641 C638 1.387 . S
C642 C643 1.387 . S
C642 H646 0.950 . S
C642 C651 1.390 . S
C643 C642 1.387 . S
C643 C645 1.387 . S
H644 C651 0.950 . S
C645 C643 1.387 . S
C645 C647 1.390 . S
C645 H649 0.950 . S
H646 C642 0.950 . S
C647 C645 1.390 . S
C647 C648 1.387 . S
C647 H650 0.950 . S
C648 C647 1.387 . S
C648 C651 1.387 . S
H649 C645 0.950 . S
H650 C647 0.950 . S
C651 C642 1.390 . S
C651 H644 0.950 . S
C651 C648 1.387 . S
C652 C653 1.387 . S
C652 H656 0.950 . S
C652 C661 1.390 . S
C653 C652 1.387 . S
C653 C655 1.387 . S
H654 C661 0.950 . S
C655 C653 1.387 . S
C655 C657 1.390 . S
C655 H659 0.950 . S
H656 C652 0.950 . S
C657 C655 1.390 . S
C657 C658 1.387 . S
C657 H660 0.950 . S
C658 C657 1.387 . S
C658 C661 1.387 . S
H659 C655 0.950 . S
H660 C657 0.950 . S
C661 C652 1.390 . S
C661 H654 0.950 . S
C661 C658 1.387 . S
C662 C663 1.387 . S
C662 H666 0.950 . S
C662 C671 1.390 . S
C663 C662 1.387 . S
C663 C665 1.387 . S
H664 C671 0.950 . S
C665 C663 1.387 . S
C665 C667 1.390 . S
C665 H669 0.950 . S
H666 C662 0.950 . S
C667 C665 1.390 . S
C667 C668 1.387 . S
C667 H670 0.950 . S
C668 C667 1.387 . S
C668 C671 1.387 . S
H669 C665 0.950 . S
H670 C667 0.950 . S
C671 C662 1.390 . S
C671 H664 0.950 . S
C671 C668 1.387 . S
C672 C673 1.387 . S
C672 H676 0.950 . S
C672 C681 1.390 . S
C673 C672 1.387 . S
C673 C675 1.387 . S
H674 C681 0.950 . S
C675 C673 1.387 . S
C675 C677 1.390 . S
C675 H679 0.950 . S
H676 C672 0.950 . S
C677 C675 1.390 . S
C677 C678 1.387 . S
C677 H680 0.950 . S
C678 C677 1.387 . S
C678 C681 1.387 . S
H679 C675 0.950 . S
H680 C677 0.950 . S
C681 C672 1.390 . S
C681 H674 0.950 . S
C681 C678 1.387 . S
C682 C683 1.387 . S
C682 H686 0.950 . S
C682 C691 1.390 . S
C683 C682 1.387 . S
C683 C685 1.387 . S
H684 C691 0.950 . S
C685 C683 1.387 . S
C685 C687 1.390 . S
C685 H689 0.950 . S
H686 C682 0.950 . S
C687 C685 1.390 . S
C687 C688 1.387 . S
C687 H690 0.950 . S
C688 C687 1.387 . S
C688 C691 1.387 . S
H689 C685 0.950 . S
H690 C687 0.950 . S
C691 C682 1.390 . S
C691 H684 0.950 . S
C691 C688 1.387 . S
C692 C693 1.387 . S
C692 H696 0.950 . S
C692 C701 1.390 . S
C693 C692 1.387 . S
C693 C695 1.387 . S
H694 C701 0.950 . S
C695 C693 1.387 . S
C695 C697 1.390 . S
C695 H699 0.950 . S
H696 C692 0.950 . S
C697 C695 1.390 . S
C697 C698 1.387 . S
C697 H700 0.950 . S
C698 C697 1.387 . S
C698 C701 1.387 . S
H699 C695 0.950 . S
H700 C697 0.950 . S
C701 C692 1.390 . S
C701 H694 0.950 . S
C701 C698 1.387 . S
C702 C703 1.387 . S
C702 H706 0.950 . S
C702 C711 1.390 . S
C703 C702 1.387 . S
C703 C705 1.387 . S
H704 C711 0.950 . S
C705 C703 1.387 . S
C705 C707 1.390 . S
C705 H709 0.950 . S
H706 C702 0.950 . S
C707 C705 1.390 . S
C707 C708 1.387 . S
C707 H710 0.950 . S
C708 C707 1.387 . S
C708 C711 1.387 . S
H709 C705 0.950 . S
H710 C707 0.950 . S
C711 C702 1.390 . S
C711 H704 0.950 . S
C711 C708 1.387 . S
C712 C713 1.387 . S
C712 H716 0.950 . S
C712 C721 1.390 . S
C713 C712 1.387 . S
C713 C715 1.387 . S
H714 C721 0.950 . S
C715 C713 1.387 . S
C715 C717 1.390 . S
C715 H719 0.950 . S
H716 C712 0.950 . S
C717 C715 1.390 . S
C717 C718 1.387 . S
C717 H720 0.950 . S
C718 C717 1.387 . S
C718 C721 1.387 . S
H719 C715 0.950 . S
H720 C717 0.950 . S
C721 C712 1.390 . S
C721 H714 0.950 . S
C721 C718 1.387 . S
C722 C723 1.387 . S
C722 H726 0.950 . S
C722 C731 1.390 . S
C723 C722 1.387 . S
C723 C725 1.387 . S
H724 C731 0.950 . S
C725 C723 1.387 . S
C725 C727 1.390 . S
C725 H729 0.950 . S
H726 C722 0.950 . S
C727 C725 1.390 . S
C727 C728 1.387 . S
C727 H730 0.950 . S
C728 C727 1.387 . S
C728 C731 1.387 . S
H729 C725 0.950 . S
H730 C727 0.950 . S
C731 C722 1.390 . S
C731 H724 0.950 . S
C731 C728 1.387 . S
C732 C733 1.387 . S
C732 H736 0.950 . S
C732 C741 1.390 . S
C733 C732 1.387 . S
C733 C735 1.387 . S
H734 C741 0.950 . S
C735 C733 1.387 . S
C735 C737 1.390 . S
C735 H739 0.950 . S
H736 C732 0.950 . S
C737 C735 1.390 . S
C737 C738 1.387 . S
C737 H740 0.950 . S
C738 C737 1.387 . S
C738 C741 1.387 . S
H739 C735 0.950 . S
H740 C737 0.950 . S
C741 C732 1.390 . S
C741 H734 0.950 . S
C741 C738 1.387 . S
C742 C743 1.387 . S
C742 H746 0.950 1_455 S
C742 C751 1.390 . S
C743 C742 1.387 . S
C743 C745 1.387 . S
H744 C751 0.950 1_655 S
C745 C743 1.387 . S
C745 C747 1.390 . S
C745 H749 0.950 . S
H746 C742 0.950 1_655 S
C747 C745 1.390 . S
C747 C748 1.387 . S
C747 H750 0.950 . S
C748 C747 1.387 . S
C748 C751 1.387 . S
H749 C745 0.950 . S
H750 C747 0.950 . S
C751 C742 1.390 . S
C751 H744 0.950 1_455 S
C751 C748 1.387 . S
C752 C753 1.387 . S
C752 H756 0.950 . S
C752 C761 1.390 . S
C753 C752 1.387 . S
C753 C755 1.387 . S
H754 C761 0.950 . S
C755 C753 1.387 . S
C755 C757 1.390 . S
C755 H759 0.950 . S
H756 C752 0.950 . S
C757 C755 1.390 . S
C757 C758 1.387 . S
C757 H760 0.950 . S
C758 C757 1.387 . S
C758 C761 1.387 . S
H759 C755 0.950 . S
H760 C757 0.950 . S
C761 C752 1.390 . S
C761 H754 0.950 . S
C761 C758 1.387 . S
C762 C763 1.387 . S
C762 H766 0.950 . S
C762 C771 1.390 . S
C763 C762 1.387 . S
C763 C765 1.387 . S
H764 C771 0.950 . S
C765 C763 1.387 . S
C765 C767 1.390 . S
C765 H769 0.950 . S
H766 C762 0.950 . S
C767 C765 1.390 . S
C767 C768 1.387 . S
C767 H770 0.950 . S
C768 C767 1.387 . S
C768 C771 1.387 . S
H769 C765 0.950 . S
H770 C767 0.950 . S
C771 C762 1.390 . S
C771 H764 0.950 . S
C771 C768 1.387 . S
C772 C773 1.387 . S
C772 H776 0.950 1_556 S
C772 C781 1.390 . S
C773 C772 1.387 . S
C773 C775 1.387 . S
H774 C781 0.950 1_554 S
C775 C773 1.387 . S
C775 C777 1.390 . S
C775 H779 0.950 . S
H776 C772 0.950 1_554 S
C777 C775 1.390 . S
C777 C778 1.387 . S
C777 H780 0.950 . S
C778 C777 1.387 . S
C778 C781 1.387 . S
H779 C775 0.950 . S
H780 C777 0.950 . S
C781 C772 1.390 . S
C781 H774 0.950 1_556 S
C781 C778 1.387 . S
C782 C783 1.387 . S
C782 H786 0.950 . S
C782 C791 1.390 . S
C783 C782 1.387 . S
C783 C785 1.387 . S
H784 C791 0.950 . S
C785 C783 1.387 . S
C785 C787 1.390 . S
C785 H789 0.950 . S
H786 C782 0.950 . S
C787 C785 1.390 . S
C787 C788 1.387 . S
C787 H790 0.950 . S
C788 C787 1.387 . S
C788 C791 1.387 . S
H789 C785 0.950 . S
H790 C787 0.950 . S
C791 C782 1.390 . S
C791 H784 0.950 . S
C791 C788 1.387 . S
C792 C793 1.387 . S
C792 H796 0.950 . S
C792 C801 1.390 . S
C793 C792 1.387 . S
C793 C795 1.387 . S
H794 C801 0.950 . S
C795 C793 1.387 . S
C795 C797 1.390 . S
C795 H799 0.959 . S
H796 C792 0.950 . S
C797 C795 1.390 . S
C797 C798 1.387 . S
C797 H800 0.950 . S
C798 C797 1.387 . S
C798 C801 1.387 . S
H799 C795 0.959 . S
H800 C797 0.950 . S
C801 C792 1.390 . S
C801 H794 0.950 . S
C801 C798 1.387 . S
C802 C803 1.387 . S
C802 H806 0.950 . S
C802 C811 1.390 . S
C803 C802 1.387 . S
C803 C805 1.387 . S
H804 C811 0.950 . S
C805 C803 1.387 . S
C805 C807 1.390 . S
C805 H809 0.950 . S
H806 C802 0.950 . S
C807 C805 1.390 . S
C807 C808 1.387 . S
C807 H810 0.950 . S
C808 C807 1.387 . S
C808 C811 1.387 . S
H809 C805 0.950 . S
H810 C807 0.950 . S
C811 C802 1.390 . S
C811 H804 0.950 . S
C811 C808 1.387 . S
C812 C813 1.387 . S
C812 H816 0.950 . S
C812 C821 1.390 . S
C813 C812 1.387 . S
C813 C815 1.387 . S
H814 C821 0.950 . S
C815 C813 1.387 . S
C815 C817 1.390 . S
C815 H819 0.950 . S
H816 C812 0.950 . S
C817 C815 1.390 . S
C817 C818 1.387 . S
C817 H820 0.950 . S
C818 C817 1.387 . S
C818 C821 1.387 . S
H819 C815 0.950 . S
H820 C817 0.950 . S
C821 C812 1.390 . S
C821 H814 0.950 . S
C821 C818 1.387 . S
C822 C823 1.387 . S
C822 H826 0.950 . S
C822 C831 1.390 . S
C823 C822 1.387 . S
C823 C825 1.387 . S
H824 C831 0.950 . S
C825 C823 1.387 . S
C825 C827 1.390 . S
C825 H829 0.950 . S
H826 C822 0.950 . S
C827 C825 1.390 . S
C827 C828 1.387 . S
C827 H830 0.950 . S
C828 C827 1.387 . S
C828 C831 1.387 . S
H829 C825 0.950 . S
H830 C827 0.950 . S
C831 C822 1.390 . S
C831 H824 0.950 . S
C831 C828 1.387 . S
C832 C833 1.387 . S
C832 H836 0.950 . S
C832 C841 1.390 . S
C833 C832 1.387 . S
C833 C835 1.387 . S
H834 C841 0.950 . S
C835 C833 1.387 . S
C835 C837 1.393 . S
C835 H839 0.950 1_545 S
H836 C832 0.950 . S
C837 C835 1.393 . S
C837 C838 1.410 . S
C837 H840 0.924 1_545 S
C838 C837 1.410 . S
C838 C841 1.387 . S
H839 C835 0.950 1_565 S
H840 C837 0.924 1_565 S
C841 C832 1.390 . S
C841 H834 0.950 . S
C841 C838 1.387 . S
C842 C843 1.387 . S
C842 H846 0.950 . S
C842 C851 1.390 . S
C843 C842 1.387 . S
C843 C845 1.387 . S
H844 C851 0.950 . S
C845 C843 1.387 . S
C845 C847 1.390 . S
C845 H849 0.950 . S
H846 C842 0.950 . S
C847 C845 1.390 . S
C847 C848 1.387 . S
C847 H850 0.950 . S
C848 C847 1.387 . S
C848 C851 1.387 . S
H849 C845 0.950 . S
H850 C847 0.950 . S
C851 C842 1.390 . S
C851 H844 0.950 . S
C851 C848 1.387 . S
C852 C853 1.387 . S
C852 H856 0.950 . S
C852 C861 1.390 . S
C853 C852 1.387 . S
C853 C855 1.387 . S
H854 C861 0.950 . S
C855 C853 1.387 . S
C855 C857 1.390 1_565 S
C855 H859 0.950 1_565 S
H856 C852 0.950 . S
C857 C855 1.390 1_545 S
C857 C858 1.387 1_545 S
C857 H860 0.950 . S
C858 C857 1.387 1_565 S
C858 C861 1.387 . S
H859 C855 0.950 1_545 S
H860 C857 0.950 . S
C861 C852 1.390 . S
C861 H854 0.950 . S
C861 C858 1.387 . S
C862 C863 1.387 . S
C862 H866 0.950 . S
C862 C871 1.390 . S
C863 C862 1.387 . S
C863 C865 1.387 . S
H864 C871 0.950 . S
C865 C863 1.387 . S
C865 C867 1.390 . S
C865 H869 0.968 . S
H866 C862 0.950 . S
C867 C865 1.390 . S
C867 C868 1.387 . S
C867 H870 0.976 . S
C868 C867 1.387 . S
C868 C871 1.387 . S
H869 C865 0.968 . S
H870 C867 0.976 . S
C871 C862 1.390 . S
C871 H864 0.950 . S
C871 C868 1.387 . S
C872 C873 1.387 . S
C872 H876 0.950 . S
C872 C881 1.390 . S
C873 C872 1.387 . S
C873 C875 1.387 . S
H874 C881 0.950 . S
C875 C873 1.387 . S
C875 C877 1.390 . S
C875 H879 0.950 . S
H876 C872 0.950 . S
C877 C875 1.390 . S
C877 C878 1.387 . S
C877 H880 0.950 . S
C878 C877 1.387 . S
C878 C881 1.387 . S
H879 C875 0.950 . S
H880 C877 0.950 . S
C881 C872 1.390 . S
C881 H874 0.950 . S
C881 C878 1.387 . S
C882 C883 1.387 . S
C882 H886 0.950 . S
C882 C891 1.390 . S
C883 C882 1.387 . S
C883 C885 1.387 . S
H884 C891 0.950 . S
C885 C883 1.387 . S
C885 C887 1.390 . S
C885 H889 0.950 . S
H886 C882 0.950 . S
C887 C885 1.390 . S
C887 C888 1.387 . S
C887 H890 0.950 . S
C888 C887 1.387 . S
C888 C891 1.387 . S
H889 C885 0.950 . S
H890 C887 0.950 . S
C891 C882 1.390 . S
C891 H884 0.950 . S
C891 C888 1.387 . S
C892 C893 1.387 . S
C892 H896 0.950 . S
C892 C901 1.390 . S
C893 C892 1.387 . S
C893 C895 1.387 . S
H894 C901 0.950 . S
C895 C893 1.387 . S
C895 C897 1.390 . S
C895 H899 0.950 . S
H896 C892 0.950 . S
C897 C895 1.390 . S
C897 C898 1.387 . S
C897 H900 0.950 . S
C898 C897 1.387 . S
C898 C901 1.387 . S
H899 C895 0.950 . S
H900 C897 0.950 . S
C901 C892 1.390 . S
C901 H894 0.950 . S
C901 C898 1.387 . S
C902 C903 1.387 . S
C902 H906 0.950 . S
C902 C911 1.390 . S
C903 C902 1.387 . S
C903 C905 1.387 . S
H904 C911 0.950 . S
C905 C903 1.387 . S
C905 C907 1.390 . S
C905 H909 0.950 . S
H906 C902 0.950 . S
C907 C905 1.390 . S
C907 C908 1.387 . S
C907 H910 0.950 . S
C908 C907 1.387 . S
C908 C911 1.387 . S
H909 C905 0.950 . S
H910 C907 0.950 . S
C911 C902 1.390 . S
C911 H904 0.950 . S
C911 C908 1.387 . S
C912 C913 1.387 . S
C912 H916 0.950 . S
C912 C921 1.390 . S
C913 C912 1.387 . S
C913 C915 1.387 . S
H914 C921 0.950 . S
C915 C913 1.387 . S
C915 C917 1.390 . S
C915 H919 0.950 . S
H916 C912 0.950 . S
C917 C915 1.390 . S
C917 C918 1.387 . S
C917 H920 0.950 . S
C918 C917 1.387 . S
C918 C921 1.387 . S
H919 C915 0.950 . S
H920 C917 0.950 . S
C921 C912 1.390 . S
C921 H914 0.950 . S
C921 C918 1.387 . S
C922 C923 1.387 . S
C922 H926 0.950 . S
C922 C931 1.390 . S
C923 C922 1.387 . S
C923 C925 1.387 . S
H924 C931 0.950 . S
C925 C923 1.387 . S
C925 C927 1.390 . S
C925 H929 0.950 . S
H926 C922 0.950 . S
C927 C925 1.390 . S
C927 C928 1.387 . S
C927 H930 0.950 . S
C928 C927 1.387 . S
C928 C931 1.387 . S
H929 C925 0.950 . S
H930 C927 0.950 . S
C931 C922 1.390 . S
C931 H924 0.950 . S
C931 C928 1.387 . S
C932 C933 1.387 . S
C932 H936 0.950 . S
C932 C941 1.390 . S
C933 C932 1.387 . S
C933 C935 1.387 . S
H934 C941 0.950 . S
C935 C933 1.387 . S
C935 C937 1.390 . S
C935 H939 0.950 . S
H936 C932 0.950 . S
C937 C935 1.390 . S
C937 C938 1.387 . S
C937 H940 0.950 . S
C938 C937 1.387 . S
C938 C941 1.387 . S
H939 C935 0.950 . S
H940 C937 0.950 . S
C941 C932 1.390 . S
C941 H934 0.950 . S
C941 C938 1.387 . S
C942 C943 1.387 . S
C942 H946 0.950 . S
C942 C951 1.390 . S
C943 C942 1.387 . S
C943 C945 1.387 . S
H944 C951 0.950 . S
C945 C943 1.387 . S
C945 C947 1.390 . S
C945 H949 0.950 . S
H946 C942 0.950 . S
C947 C945 1.390 . S
C947 C948 1.387 . S
C947 H950 0.950 . S
C948 C947 1.387 . S
C948 C951 1.387 . S
H949 C945 0.950 . S
H950 C947 0.950 . S
C951 C942 1.390 . S
C951 H944 0.950 . S
C951 C948 1.387 . S
C952 C953 1.387 . S
C952 H956 0.950 . S
C952 C961 1.390 . S
C953 C952 1.387 . S
C953 C955 1.387 . S
H954 C961 0.950 . S
C955 C953 1.387 . S
C955 C957 1.390 . S
C955 H959 0.950 . S
H956 C952 0.950 . S
C957 C955 1.390 . S
C957 C958 1.387 . S
C957 H960 0.950 . S
C958 C957 1.387 . S
C958 C961 1.387 . S
H959 C955 0.950 . S
H960 C957 0.950 . S
C961 C952 1.390 . S
C961 H954 0.950 . S
C961 C958 1.387 . S
C962 C963 1.387 . S
C962 H966 0.950 . S
C962 C971 1.390 . S
C963 C962 1.387 . S
C963 C965 1.387 . S
H964 C971 0.950 . S
C965 C963 1.387 . S
C965 C967 1.390 . S
C965 H969 0.950 . S
H966 C962 0.950 . S
C967 C965 1.390 . S
C967 C968 1.387 . S
C967 H970 0.950 . S
C968 C967 1.387 . S
C968 C971 1.387 . S
H969 C965 0.950 . S
H970 C967 0.950 . S
C971 C962 1.390 . S
C971 H964 0.950 . S
C971 C968 1.387 . S
C972 C973 1.387 . S
C972 H976 0.950 . S
C972 C981 1.390 . S
C973 C972 1.387 . S
C973 C975 1.387 . S
H974 C981 0.950 . S
C975 C973 1.387 . S
C975 C977 1.390 . S
C975 H979 0.950 . S
H976 C972 0.950 . S
C977 C975 1.390 . S
C977 C978 1.387 . S
C977 H980 0.950 . S
C978 C977 1.387 . S
C978 C981 1.387 . S
H979 C975 0.950 . S
H980 C977 0.950 . S
C981 C972 1.390 . S
C981 H974 0.950 . S
C981 C978 1.387 . S
C982 C983 1.387 . S
C982 H986 0.950 . S
C982 C991 1.390 . S
C983 C982 1.387 . S
C983 C985 1.387 . S
H984 C991 0.950 . S
C985 C983 1.387 . S
C985 C987 1.390 . S
C985 H989 0.950 . S
H986 C982 0.950 . S
C987 C985 1.390 . S
C987 C988 1.387 . S
C987 H990 0.950 . S
C988 C987 1.387 . S
C988 C991 1.387 . S
H989 C985 0.950 . S
H990 C987 0.950 . S
C991 C982 1.390 . S
C991 H984 0.950 . S
C991 C988 1.387 . S
C992 C993 1.387 . S
C992 H996 0.950 . S
C992 C1001 1.390 . S
C993 C992 1.387 . S
C993 C995 1.387 . S
H994 C1001 0.950 . S
C995 C993 1.387 . S
C995 C997 1.390 . S
C995 H999 0.950 . S
H996 C992 0.950 . S
C997 C995 1.390 . S
C997 C998 1.387 . S
C997 H1000 0.950 . S
C998 C997 1.387 . S
C998 C1001 1.387 . S
H999 C995 0.950 . S
H1000 C997 0.950 . S
C1001 C992 1.390 . S
C1001 H994 0.950 . S
C1001 C998 1.387 . S
C1002 C1003 1.387 . S
C1002 H1006 0.950 . S
C1002 C1011 1.390 . S
C1003 C1002 1.387 . S
C1003 C1005 1.387 . S
H1004 C1011 0.950 . S
C1005 C1003 1.387 . S
C1005 C1007 1.390 . S
C1005 H1009 0.950 . S
H1006 C1002 0.950 . S
C1007 C1005 1.390 . S
C1007 C1008 1.387 . S
C1007 H1010 0.950 . S
C1008 C1007 1.387 . S
C1008 C1011 1.387 . S
H1009 C1005 0.950 . S
H1010 C1007 0.950 . S
C1011 C1002 1.390 . S
C1011 H1004 0.950 . S
C1011 C1008 1.387 . S
C1012 C1013 1.387 . S
C1012 H1016 0.950 . S
C1012 C1021 1.390 . S
C1013 C1012 1.387 . S
C1013 C1015 1.387 . S
H1014 C1021 0.950 . S
C1015 C1013 1.387 . S
C1015 C1017 1.390 . S
C1015 H1019 0.950 . S
H1016 C1012 0.950 . S
C1017 C1015 1.390 . S
C1017 C1018 1.387 . S
C1017 H1020 0.950 . S
C1018 C1017 1.387 . S
C1018 C1021 1.387 . S
H1019 C1015 0.950 . S
H1020 C1017 0.950 . S
C1021 C1012 1.390 . S
C1021 H1014 0.950 . S
C1021 C1018 1.387 . S
C1022 C1023 1.387 . S
C1022 H1026 0.950 . S
C1022 C1031 1.390 . S
C1023 C1022 1.387 . S
C1023 C1025 1.387 . S
H1024 C1031 0.950 . S
C1025 C1023 1.387 . S
C1025 C1027 1.390 . S
C1025 H1029 0.950 . S
H1026 C1022 0.950 . S
C1027 C1025 1.390 . S
C1027 C1028 1.387 . S
C1027 H1030 0.950 . S
C1028 C1027 1.387 . S
C1028 C1031 1.387 . S
H1029 C1025 0.950 . S
H1030 C1027 0.950 . S
C1031 C1022 1.390 . S
C1031 H1024 0.950 . S
C1031 C1028 1.387 . S
C553 C168 1.868 . S
C558 C7 1.817 . S
C563 N25 1.243 . S
C568 C99 1.347 . S
C573 C122 1.801 . S
C578 C53 1.765 . S
C583 N71 1.349 . S
C588 C145 1.456 . S
C593 N186 1.045 . S
C598 N2 1.173 . S
C603 C30 1.534 . S
C608 C214 1.514 . S
C613 N232 1.080 . S
C618 N48 1.202 . S
C623 C260 1.453 . S
C628 C76 1.443 . S
C633 N94 0.755 . S
C638 N209 0.765 . S
C643 N117 1.354 . S
C648 C237 1.526 . S
C653 N255 0.764 . S
C658 N140 0.750 . S
C663 C191 1.584 . S
C668 N163 1.420 . S
C673 C490 1.883 . S
C678 C283 1.886 . S
C683 N301 0.940 . S
C688 N508 0.880 . S
C693 C329 1.852 . S
C698 C536 1.829 . S
C703 N531 0.983 . S
C708 N347 0.961 . S
C713 N370 0.948 . S
C718 N485 0.982 . S
C723 C444 1.618 . S
C728 C398 1.573 . S
C733 N278 1.413 . S
C738 C375 1.508 . S
C743 C306 1.504 . S
C748 C421 1.533 . S
C753 N324 1.481 . S
C758 C352 1.579 . S
C763 N393 1.024 . S
C768 N462 0.965 . S
C773 N416 1.164 . S
C778 C513 1.248 . S
C783 C467 1.285 . S
C788 N439 1.204 . S
C793 C108 2.518 . S
C798 C16 2.367 . S
C803 C131 1.902 . S
C808 N35 1.895 . S
C813 C154 2.667 . S
C818 C62 2.527 . S
C823 C177 2.167 . S
C828 N81 2.171 . S
C833 N196 2.282 . S
C838 N265 2.419 . S
C843 C223 2.115 . S
C848 C200 2.224 . S
C853 N242 2.129 . S
C858 N219 2.296 . S
C863 C246 1.856 . S
C868 C269 1.746 . S
C873 N426 2.194 . S
C878 N173 2.111 . S
C883 C292 2.098 . S
C888 C85 2.214 . S
C893 N12 2.284 . S
C898 N311 2.229 . S
C903 C39 2.406 . S
C908 C338 2.313 . S
C913 N127 2.022 . S
C918 N449 2.126 . S
C923 N104 1.634 . S
C928 N357 1.702 . S
C933 N150 1.663 . S
C938 N380 1.743 . S
C943 C384 2.171 . S
C948 C407 2.342 . S
C953 N288 1.875 . S
C958 C430 1.721 . S
C963 C361 2.148 . S
C968 C315 2.316 . S
C973 C453 2.097 . S
C978 N334 2.289 . S
C983 N472 2.352 . S
C988 N541 2.219 . S
C993 C476 2.275 . S
C998 C499 2.423 . S
C1003 N518 2.490 . S
C1008 N495 2.373 . S
C1013 C545 1.865 . S
C1018 C522 1.726 . S
C1023 N58 2.524 . S
C1028 N403 2.429 . S
