# Generated by pormake.
# Topology umq, (4)-cn, num edge types: 1
# Building blocks:
#     Node 0, Type 0, BuildingBlock: QUQFOY_clean_sbu_1, # of connection points: 4
#     Node 1, Type 0, BuildingBlock: QUQFOY_clean_sbu_1, # of connection points: 4
#     Node 2, Type 0, BuildingBlock: QUQFOY_clean_sbu_1, # of connection points: 4
#     Node 3, Type 0, BuildingBlock: QUQFOY_clean_sbu_1, # of connection points: 4
#     Node 4, Type 0, BuildingBlock: QUQFOY_clean_sbu_1, # of connection points: 4
#     Node 5, Type 0, BuildingBlock: QUQFOY_clean_sbu_1, # of connection points: 4
#     Node 6, Type 0, BuildingBlock: QUQFOY_clean_sbu_1, # of connection points: 4
#     Node 7, Type 0, BuildingBlock: QUQFOY_clean_sbu_1, # of connection points: 4
#     Node 8, Type 0, BuildingBlock: QUQFOY_clean_sbu_1, # of connection points: 4
#     Node 9, Type 0, BuildingBlock: QUQFOY_clean_sbu_1, # of connection points: 4
#     Node 10, Type 0, BuildingBlock: QUQFOY_clean_sbu_1, # of connection points: 4
#     Node 11, Type 0, BuildingBlock: QUQFOY_clean_sbu_1, # of connection points: 4
#     Node 12, Type 0, BuildingBlock: QUQFOY_clean_sbu_1, # of connection points: 4
#     Node 13, Type 0, BuildingBlock: QUQFOY_clean_sbu_1, # of connection points: 4
#     Node 14, Type 0, BuildingBlock: QUQFOY_clean_sbu_1, # of connection points: 4
#     Node 15, Type 0, BuildingBlock: QUQFOY_clean_sbu_1, # of connection points: 4
#     Node 16, Type 0, BuildingBlock: QUQFOY_clean_sbu_1, # of connection points: 4
#     Node 17, Type 0, BuildingBlock: QUQFOY_clean_sbu_1, # of connection points: 4
#     Node 18, Type 0, BuildingBlock: QUQFOY_clean_sbu_1, # of connection points: 4
#     Node 19, Type 0, BuildingBlock: QUQFOY_clean_sbu_1, # of connection points: 4
#     Node 20, Type 0, BuildingBlock: QUQFOY_clean_sbu_1, # of connection points: 4
#     Node 21, Type 0, BuildingBlock: QUQFOY_clean_sbu_1, # of connection points: 4
#     Node 22, Type 0, BuildingBlock: QUQFOY_clean_sbu_1, # of connection points: 4
#     Node 23, Type 0, BuildingBlock: QUQFOY_clean_sbu_1, # of connection points: 4
#     Node 24, Type 0, BuildingBlock: QUQFOY_clean_sbu_1, # of connection points: 4
#     Node 25, Type 0, BuildingBlock: QUQFOY_clean_sbu_1, # of connection points: 4
#     Node 26, Type 0, BuildingBlock: QUQFOY_clean_sbu_1, # of connection points: 4
#     Node 27, Type 0, BuildingBlock: QUQFOY_clean_sbu_1, # of connection points: 4
#     Node 28, Type 0, BuildingBlock: QUQFOY_clean_sbu_1, # of connection points: 4
#     Node 29, Type 0, BuildingBlock: QUQFOY_clean_sbu_1, # of connection points: 4
#     Node 30, Type 0, BuildingBlock: QUQFOY_clean_sbu_1, # of connection points: 4
#     Node 31, Type 0, BuildingBlock: QUQFOY_clean_sbu_1, # of connection points: 4
#     Edge 32, Type (0, 0), BuildingBlock: EZIPEK_clean_linker_0, # of connection points: 2
#     Edge 33, Type (0, 0), BuildingBlock: EZIPEK_clean_linker_0, # of connection points: 2
#     Edge 34, Type (0, 0), BuildingBlock: EZIPEK_clean_linker_0, # of connection points: 2
#     Edge 35, Type (0, 0), BuildingBlock: EZIPEK_clean_linker_0, # of connection points: 2
#     Edge 36, Type (0, 0), BuildingBlock: EZIPEK_clean_linker_0, # of connection points: 2
#     Edge 37, Type (0, 0), BuildingBlock: EZIPEK_clean_linker_0, # of connection points: 2
#     Edge 38, Type (0, 0), BuildingBlock: EZIPEK_clean_linker_0, # of connection points: 2
#     Edge 39, Type (0, 0), BuildingBlock: EZIPEK_clean_linker_0, # of connection points: 2
#     Edge 40, Type (0, 0), BuildingBlock: EZIPEK_clean_linker_0, # of connection points: 2
#     Edge 41, Type (0, 0), BuildingBlock: EZIPEK_clean_linker_0, # of connection points: 2
#     Edge 42, Type (0, 0), BuildingBlock: EZIPEK_clean_linker_0, # of connection points: 2
#     Edge 43, Type (0, 0), BuildingBlock: EZIPEK_clean_linker_0, # of connection points: 2
#     Edge 44, Type (0, 0), BuildingBlock: EZIPEK_clean_linker_0, # of connection points: 2
#     Edge 45, Type (0, 0), BuildingBlock: EZIPEK_clean_linker_0, # of connection points: 2
#     Edge 46, Type (0, 0), BuildingBlock: EZIPEK_clean_linker_0, # of connection points: 2
#     Edge 47, Type (0, 0), BuildingBlock: EZIPEK_clean_linker_0, # of connection points: 2
#     Edge 48, Type (0, 0), BuildingBlock: EZIPEK_clean_linker_0, # of connection points: 2
#     Edge 49, Type (0, 0), BuildingBlock: EZIPEK_clean_linker_0, # of connection points: 2
#     Edge 50, Type (0, 0), BuildingBlock: EZIPEK_clean_linker_0, # of connection points: 2
#     Edge 51, Type (0, 0), BuildingBlock: EZIPEK_clean_linker_0, # of connection points: 2
#     Edge 52, Type (0, 0), BuildingBlock: EZIPEK_clean_linker_0, # of connection points: 2
#     Edge 53, Type (0, 0), BuildingBlock: EZIPEK_clean_linker_0, # of connection points: 2
#     Edge 54, Type (0, 0), BuildingBlock: EZIPEK_clean_linker_0, # of connection points: 2
#     Edge 55, Type (0, 0), BuildingBlock: EZIPEK_clean_linker_0, # of connection points: 2
#     Edge 56, Type (0, 0), BuildingBlock: EZIPEK_clean_linker_0, # of connection points: 2
#     Edge 57, Type (0, 0), BuildingBlock: EZIPEK_clean_linker_0, # of connection points: 2
#     Edge 58, Type (0, 0), BuildingBlock: EZIPEK_clean_linker_0, # of connection points: 2
#     Edge 59, Type (0, 0), BuildingBlock: EZIPEK_clean_linker_0, # of connection points: 2
#     Edge 60, Type (0, 0), BuildingBlock: EZIPEK_clean_linker_0, # of connection points: 2
#     Edge 61, Type (0, 0), BuildingBlock: EZIPEK_clean_linker_0, # of connection points: 2
#     Edge 62, Type (0, 0), BuildingBlock: EZIPEK_clean_linker_0, # of connection points: 2
#     Edge 63, Type (0, 0), BuildingBlock: EZIPEK_clean_linker_0, # of connection points: 2
#     Edge 64, Type (0, 0), BuildingBlock: EZIPEK_clean_linker_0, # of connection points: 2
#     Edge 65, Type (0, 0), BuildingBlock: EZIPEK_clean_linker_0, # of connection points: 2
#     Edge 66, Type (0, 0), BuildingBlock: EZIPEK_clean_linker_0, # of connection points: 2
#     Edge 67, Type (0, 0), BuildingBlock: EZIPEK_clean_linker_0, # of connection points: 2
#     Edge 68, Type (0, 0), BuildingBlock: EZIPEK_clean_linker_0, # of connection points: 2
#     Edge 69, Type (0, 0), BuildingBlock: EZIPEK_clean_linker_0, # of connection points: 2
#     Edge 70, Type (0, 0), BuildingBlock: EZIPEK_clean_linker_0, # of connection points: 2
#     Edge 71, Type (0, 0), BuildingBlock: EZIPEK_clean_linker_0, # of connection points: 2
#     Edge 72, Type (0, 0), BuildingBlock: EZIPEK_clean_linker_0, # of connection points: 2
#     Edge 73, Type (0, 0), BuildingBlock: EZIPEK_clean_linker_0, # of connection points: 2
#     Edge 74, Type (0, 0), BuildingBlock: EZIPEK_clean_linker_0, # of connection points: 2
#     Edge 75, Type (0, 0), BuildingBlock: EZIPEK_clean_linker_0, # of connection points: 2
#     Edge 76, Type (0, 0), BuildingBlock: EZIPEK_clean_linker_0, # of connection points: 2
#     Edge 77, Type (0, 0), BuildingBlock: EZIPEK_clean_linker_0, # of connection points: 2
#     Edge 78, Type (0, 0), BuildingBlock: EZIPEK_clean_linker_0, # of connection points: 2
#     Edge 79, Type (0, 0), BuildingBlock: EZIPEK_clean_linker_0, # of connection points: 2
#     Edge 80, Type (0, 0), BuildingBlock: EZIPEK_clean_linker_0, # of connection points: 2
#     Edge 81, Type (0, 0), BuildingBlock: EZIPEK_clean_linker_0, # of connection points: 2
#     Edge 82, Type (0, 0), BuildingBlock: EZIPEK_clean_linker_0, # of connection points: 2
#     Edge 83, Type (0, 0), BuildingBlock: EZIPEK_clean_linker_0, # of connection points: 2
#     Edge 84, Type (0, 0), BuildingBlock: EZIPEK_clean_linker_0, # of connection points: 2
#     Edge 85, Type (0, 0), BuildingBlock: EZIPEK_clean_linker_0, # of connection points: 2
#     Edge 86, Type (0, 0), BuildingBlock: EZIPEK_clean_linker_0, # of connection points: 2
#     Edge 87, Type (0, 0), BuildingBlock: EZIPEK_clean_linker_0, # of connection points: 2
#     Edge 88, Type (0, 0), BuildingBlock: EZIPEK_clean_linker_0, # of connection points: 2
#     Edge 89, Type (0, 0), BuildingBlock: EZIPEK_clean_linker_0, # of connection points: 2
#     Edge 90, Type (0, 0), BuildingBlock: EZIPEK_clean_linker_0, # of connection points: 2
#     Edge 91, Type (0, 0), BuildingBlock: EZIPEK_clean_linker_0, # of connection points: 2
#     Edge 92, Type (0, 0), BuildingBlock: EZIPEK_clean_linker_0, # of connection points: 2
#     Edge 93, Type (0, 0), BuildingBlock: EZIPEK_clean_linker_0, # of connection points: 2
#     Edge 94, Type (0, 0), BuildingBlock: EZIPEK_clean_linker_0, # of connection points: 2
#     Edge 95, Type (0, 0), BuildingBlock: EZIPEK_clean_linker_0, # of connection points: 2
# Relax obj value: 0.031
# Max RMSD: 0.084
# Mean RMSD: 0.084
data_MOF--net-umq--node1-QUQFOY_clean_sbu_1--edge1-EZIPEK_clean_linker_0
_symmetry_space_group_name_H-M    P1
_symmetry_Int_Tables_number       1
_symmetry_cell_setting            triclinic
loop_
_symmetry_equiv_pos_as_xyz
'x, y, z'
_cell_length_a     49.217496
_cell_length_b     49.170622
_cell_length_c     37.523154
_cell_angle_alpha  90.052777
_cell_angle_beta   90.045055
_cell_angle_gamma 90.012178
loop_
_atom_site_label
_atom_site_type_symbol
_atom_site_fract_x
_atom_site_fract_y
_atom_site_fract_z
_atom_type_partial_charge
O0 O 0.21289 0.11588 0.23253 0.0
Cd1 Cd 0.24299 0.09245 0.21051 0.0
Cd2 Cd 0.22211 0.11658 0.14924 0.0
O3 O 0.19101 0.12782 0.18343 0.0
O4 O 0.25458 0.06936 0.25127 0.0
O5 O 0.2361 0.05272 0.20192 0.0
C6 C 0.24579 0.04877 0.2335 0.0
C7 C 0.21437 0.10247 0.09063 0.0
C8 C 0.19301 0.12744 0.21725 0.0
C9 C 0.27838 0.1323 0.17426 0.0
O10 O 0.25791 0.13797 0.15504 0.0
O11 O 0.27778 0.11268 0.1962 0.0
O12 O 0.21003 0.1272 0.10039 0.0
O13 O 0.22149 0.08505 0.11464 0.0
O14 O 0.87732 0.21173 0.22965 0.0
Cd15 Cd 0.90032 0.2424 0.20807 0.0
Cd16 Cd 0.87451 0.2229 0.14669 0.0
O17 O 0.86235 0.19194 0.18041 0.0
O18 O 0.92351 0.25346 0.24906 0.0
O19 O 0.94009 0.23609 0.19907 0.0
C20 C 0.9441 0.24527 0.2309 0.0
C21 C 0.88845 0.21488 0.08816 0.0
C22 C 0.86438 0.19277 0.21418 0.0
C23 C 0.86034 0.27912 0.17341 0.0
O24 O 0.85432 0.2593 0.1532 0.0
O25 O 0.87991 0.27755 0.19538 0.0
O26 O 0.86357 0.21143 0.09771 0.0
O27 O 0.90604 0.2214 0.11229 0.0
O28 O 0.77925 0.87232 0.22986 0.0
Cd29 Cd 0.75106 0.8964 0.20444 0.0
Cd30 Cd 0.77411 0.87136 0.14795 0.0
O31 O 0.80512 0.8629 0.18332 0.0
O32 O 0.7368 0.92035 0.24291 0.0
O33 O 0.7613 0.93565 0.19792 0.0
C34 C 0.7489 0.9404 0.22762 0.0
C35 C 0.78067 0.88671 0.08993 0.0
C36 C 0.80094 0.86256 0.21675 0.0
C37 C 0.71763 0.85543 0.16829 0.0
O38 O 0.73965 0.84799 0.15372 0.0
O39 O 0.71649 0.87739 0.18603 0.0
O40 O 0.78641 0.86207 0.09891 0.0
O41 O 0.77316 0.90345 0.11461 0.0
O42 O 0.11489 0.78028 0.23284 0.0
Cd43 Cd 0.09245 0.74988 0.20945 0.0
Cd44 Cd 0.11685 0.77269 0.15012 0.0
O45 O 0.12786 0.80328 0.18515 0.0
O46 O 0.06943 0.73711 0.24975 0.0
O47 O 0.05258 0.75608 0.20094 0.0
C48 C 0.04873 0.74593 0.23227 0.0
C49 C 0.10135 0.7807 0.0923 0.0
C50 C 0.12664 0.8006 0.21882 0.0
C51 C 0.13386 0.71633 0.17284 0.0
O52 O 0.13914 0.73742 0.15465 0.0
O53 O 0.11381 0.71581 0.19413 0.0
O54 O 0.12624 0.78522 0.10114 0.0
O55 O 0.08452 0.77343 0.11694 0.0
O56 O 0.21197 0.87728 0.29983 0.0
Cd57 Cd 0.24244 0.8996 0.32311 0.0
Cd58 Cd 0.22114 0.87458 0.3825 0.0
O59 O 0.19036 0.8631 0.34801 0.0
O60 O 0.25441 0.92341 0.2833 0.0
O61 O 0.23603 0.93924 0.33312 0.0
C62 C 0.24574 0.94372 0.30169 0.0
C63 C 0.21302 0.89052 0.44006 0.0
C64 C 0.19218 0.86499 0.3143 0.0
C65 C 0.27743 0.85867 0.3585 0.0
O66 O 0.25689 0.85303 0.37756 0.0
O67 O 0.27698 0.87854 0.3369 0.0
O68 O 0.20905 0.86541 0.4317 0.0
O69 O 0.21997 0.90723 0.41513 0.0
O70 O 0.11653 0.21435 0.29745 0.0
Cd71 Cd 0.09323 0.24399 0.32097 0.0
Cd72 Cd 0.11987 0.22289 0.38029 0.0
O73 O 0.13123 0.1924 0.34517 0.0
O74 O 0.06932 0.25556 0.281 0.0
O75 O 0.05374 0.23639 0.33038 0.0
C76 C 0.04916 0.24626 0.29907 0.0
C77 C 0.1065 0.21442 0.43893 0.0
C78 C 0.12926 0.19462 0.31149 0.0
C79 C 0.13314 0.28009 0.35625 0.0
O80 O 0.1399 0.25949 0.3746 0.0
O81 O 0.11292 0.27922 0.33526 0.0
O82 O 0.13135 0.21134 0.42896 0.0
O83 O 0.0886 0.22045 0.41499 0.0
O84 O 0.77793 0.11529 0.2938 0.0
Cd85 Cd 0.74969 0.09096 0.31844 0.0
Cd86 Cd 0.771 0.11772 0.37699 0.0
O87 O 0.80105 0.12876 0.34125 0.0
O88 O 0.73647 0.06692 0.27934 0.0
O89 O 0.75998 0.0517 0.32527 0.0
C90 C 0.74826 0.04691 0.2951 0.0
C91 C 0.77978 0.1042 0.43547 0.0
C92 C 0.79804 0.12761 0.30761 0.0
C93 C 0.71378 0.13062 0.35438 0.0
O94 O 0.73473 0.1382 0.37145 0.0
O95 O 0.71437 0.10969 0.33457 0.0
O96 O 0.78366 0.12893 0.42536 0.0
O97 O 0.7726 0.08648 0.41181 0.0
O98 O 0.8774 0.77805 0.30019 0.0
Cd99 Cd 0.90059 0.74898 0.32518 0.0
Cd100 Cd 0.87538 0.77281 0.38197 0.0
O101 O 0.86655 0.80362 0.34649 0.0
O102 O 0.92401 0.73563 0.28559 0.0
O103 O 0.94027 0.75645 0.33349 0.0
C104 C 0.94444 0.7455 0.30267 0.0
C105 C 0.89021 0.78024 0.44016 0.0
C106 C 0.86674 0.79941 0.31307 0.0
C107 C 0.85837 0.71644 0.36028 0.0
O108 O 0.85191 0.73836 0.376 0.0
O109 O 0.88 0.71489 0.34194 0.0
O110 O 0.86576 0.78608 0.43056 0.0
O111 O 0.90702 0.77176 0.41614 0.0
O112 O 0.78031 0.87598 0.79703 0.0
Cd113 Cd 0.75081 0.89988 0.8201 0.0
Cd114 Cd 0.77075 0.87373 0.87942 0.0
O115 O 0.8023 0.86353 0.84574 0.0
O116 O 0.73959 0.92373 0.77997 0.0
O117 O 0.75894 0.9393 0.82935 0.0
C118 C 0.74907 0.94387 0.79801 0.0
C119 C 0.77839 0.88759 0.93802 0.0
C120 C 0.80031 0.86437 0.81199 0.0
C121 C 0.71433 0.85998 0.85419 0.0
O122 O 0.73497 0.85248 0.87199 0.0
O123 O 0.7152 0.88109 0.83479 0.0
O124 O 0.78254 0.86284 0.9282 0.0
O125 O 0.77114 0.9051 0.91417 0.0
O126 O 0.11973 0.78113 0.80031 0.0
Cd127 Cd 0.09642 0.75112 0.8227 0.0
Cd128 Cd 0.11428 0.77628 0.88152 0.0
O129 O 0.11738 0.80876 0.84613 0.0
O130 O 0.07321 0.73814 0.78276 0.0
O131 O 0.05685 0.75826 0.83121 0.0
C132 C 0.05274 0.7477 0.80011 0.0
C133 C 0.09964 0.78216 0.94017 0.0
C134 C 0.12334 0.80458 0.81363 0.0
C135 C 0.13764 0.72151 0.86123 0.0
O136 O 0.14169 0.74423 0.87656 0.0
O137 O 0.11723 0.71809 0.84109 0.0
O138 O 0.12299 0.79093 0.9298 0.0
O139 O 0.08357 0.77165 0.91664 0.0
O140 O 0.21483 0.11316 0.79681 0.0
Cd141 Cd 0.24442 0.08944 0.81994 0.0
Cd142 Cd 0.22342 0.11507 0.87937 0.0
O143 O 0.19234 0.12578 0.84509 0.0
O144 O 0.25581 0.06536 0.78 0.0
O145 O 0.23665 0.04998 0.82951 0.0
C146 C 0.24649 0.04526 0.7982 0.0
C147 C 0.21574 0.10167 0.93828 0.0
C148 C 0.19478 0.12498 0.81136 0.0
C149 C 0.27976 0.13008 0.85426 0.0
O150 O 0.25898 0.13658 0.87237 0.0
O151 O 0.2796 0.10921 0.83432 0.0
O152 O 0.21204 0.12642 0.92822 0.0
O153 O 0.22219 0.08387 0.91439 0.0
O154 O 0.87839 0.21542 0.79469 0.0
Cd155 Cd 0.90174 0.24488 0.81849 0.0
Cd156 Cd 0.87552 0.22377 0.87744 0.0
O157 O 0.86418 0.19319 0.84239 0.0
O158 O 0.92608 0.25626 0.77899 0.0
O159 O 0.94102 0.23701 0.82873 0.0
C160 C 0.94597 0.24683 0.79748 0.0
C161 C 0.88923 0.2154 0.93599 0.0
C162 C 0.8659 0.19556 0.80871 0.0
C163 C 0.86185 0.28086 0.85335 0.0
O164 O 0.85522 0.26023 0.8717 0.0
O165 O 0.88208 0.28013 0.83243 0.0
O166 O 0.86435 0.21219 0.92619 0.0
O167 O 0.90697 0.22154 0.91193 0.0
O168 O 0.78266 0.11639 0.72979 0.0
Cd169 Cd 0.7522 0.0931 0.70834 0.0
Cd170 Cd 0.77174 0.11805 0.64658 0.0
O171 O 0.80273 0.13042 0.68033 0.0
O172 O 0.74148 0.06969 0.74914 0.0
O173 O 0.75879 0.05342 0.6989 0.0
C174 C 0.74976 0.04922 0.73074 0.0
C175 C 0.77972 0.10433 0.58782 0.0
C176 C 0.80167 0.12905 0.71418 0.0
C177 C 0.71549 0.13257 0.6733 0.0
O178 O 0.73527 0.13818 0.6529 0.0
O179 O 0.71704 0.11339 0.69581 0.0
O180 O 0.78253 0.1293 0.59749 0.0
O181 O 0.77408 0.08654 0.61203 0.0
O182 O 0.88013 0.77967 0.73285 0.0
Cd183 Cd 0.90374 0.75024 0.70907 0.0
Cd184 Cd 0.8775 0.77198 0.65082 0.0
O185 O 0.8667 0.80277 0.68546 0.0
O186 O 0.92749 0.73822 0.74905 0.0
O187 O 0.94333 0.75783 0.70013 0.0
C188 C 0.94777 0.7476 0.73129 0.0
C189 C 0.8914 0.77971 0.59227 0.0
C190 C 0.86788 0.79983 0.71908 0.0
C191 C 0.86279 0.7153 0.67463 0.0
O192 O 0.85601 0.73638 0.65729 0.0
O193 O 0.88391 0.71519 0.69407 0.0
O194 O 0.86661 0.78361 0.60199 0.0
O195 O 0.90898 0.77314 0.61637 0.0
O196 O 0.21122 0.87264 0.73159 0.0
Cd197 Cd 0.24124 0.89579 0.70896 0.0
Cd198 Cd 0.21589 0.87817 0.65043 0.0
O199 O 0.1835 0.8751 0.68589 0.0
O200 O 0.25447 0.91919 0.74855 0.0
O201 O 0.23421 0.93535 0.70008 0.0
C202 C 0.24496 0.93961 0.73103 0.0
C203 C 0.21027 0.89312 0.59192 0.0
C204 C 0.18775 0.8691 0.71837 0.0
C205 C 0.27051 0.85447 0.67013 0.0
O206 O 0.24773 0.85052 0.65499 0.0
O207 O 0.27407 0.87486 0.69031 0.0
O208 O 0.20128 0.86978 0.60209 0.0
O209 O 0.22074 0.90907 0.61564 0.0
O210 O 0.1188 0.21254 0.73242 0.0
Cd211 Cd 0.09567 0.24257 0.70958 0.0
Cd212 Cd 0.12206 0.2224 0.64957 0.0
O213 O 0.13336 0.19143 0.68399 0.0
O214 O 0.07199 0.25397 0.74981 0.0
O215 O 0.05609 0.23559 0.69999 0.0
C216 C 0.05168 0.24526 0.73147 0.0
C217 C 0.10796 0.21418 0.59116 0.0
C218 C 0.13143 0.19304 0.71773 0.0
C219 C 0.13544 0.27922 0.67489 0.0
O220 O 0.1422 0.25899 0.65579 0.0
O221 O 0.11545 0.27784 0.69615 0.0
O222 O 0.13283 0.21053 0.60072 0.0
O223 O 0.09048 0.22098 0.61525 0.0
O224 O 0.71053 0.61881 0.73146 0.0
Cd225 Cd 0.74105 0.59573 0.70987 0.0
Cd226 Cd 0.72129 0.62045 0.64813 0.0
O227 O 0.68999 0.63198 0.68192 0.0
O228 O 0.75219 0.57274 0.75088 0.0
O229 O 0.73446 0.55598 0.70113 0.0
C230 C 0.74374 0.5521 0.73292 0.0
C231 C 0.71334 0.60573 0.58983 0.0
C232 C 0.69113 0.63082 0.71577 0.0
C233 C 0.77755 0.63523 0.67419 0.0
O234 O 0.75757 0.64114 0.6542 0.0
O235 O 0.77609 0.61588 0.69647 0.0
O236 O 0.70947 0.63066 0.59901 0.0
O237 O 0.72038 0.58853 0.61417 0.0
O238 O 0.37201 0.71387 0.72903 0.0
Cd239 Cd 0.39568 0.74313 0.70527 0.0
Cd240 Cd 0.37702 0.71721 0.64892 0.0
O241 O 0.37504 0.68499 0.6847 0.0
O242 O 0.41895 0.75689 0.74469 0.0
O243 O 0.43517 0.73531 0.69725 0.0
C244 C 0.43934 0.74664 0.72787 0.0
C245 C 0.3925 0.71244 0.59056 0.0
C246 C 0.36876 0.69 0.71689 0.0
C247 C 0.3537 0.77177 0.66776 0.0
O248 O 0.34878 0.74841 0.65474 0.0
O249 O 0.37539 0.77598 0.68519 0.0
O250 O 0.36938 0.70267 0.60031 0.0
O251 O 0.40789 0.72337 0.61457 0.0
O252 O 0.27901 0.38229 0.73271 0.0
Cd253 Cd 0.24999 0.40598 0.70826 0.0
Cd254 Cd 0.27184 0.37885 0.65078 0.0
O255 O 0.30246 0.36845 0.68584 0.0
O256 O 0.23787 0.42988 0.74806 0.0
O257 O 0.25795 0.44555 0.69938 0.0
C258 C 0.24759 0.45008 0.73044 0.0
C259 C 0.27955 0.39221 0.59198 0.0
C260 C 0.29924 0.36989 0.7194 0.0
C261 C 0.21503 0.36481 0.67444 0.0
O262 O 0.23621 0.35753 0.65768 0.0
O263 O 0.21487 0.38638 0.69306 0.0
O264 O 0.28341 0.36748 0.60208 0.0
O265 O 0.27307 0.41003 0.61585 0.0
O266 O 0.61663 0.28089 0.73192 0.0
Cd267 Cd 0.59297 0.25121 0.70894 0.0
Cd268 Cd 0.61825 0.27181 0.64928 0.0
O269 O 0.62837 0.30334 0.68328 0.0
O270 O 0.56886 0.23998 0.74878 0.0
O271 O 0.55363 0.25907 0.69908 0.0
C272 C 0.54885 0.2493 0.7304 0.0
C273 C 0.60483 0.27907 0.5904 0.0
C274 C 0.62796 0.30107 0.71703 0.0
C275 C 0.63314 0.2155 0.67439 0.0
O276 O 0.63988 0.23626 0.65635 0.0
O277 O 0.61242 0.21592 0.6945 0.0
O278 O 0.62938 0.28368 0.60062 0.0
O279 O 0.5872 0.27179 0.61405 0.0
O280 O 0.71317 0.37931 0.79845 0.0
Cd281 Cd 0.74208 0.40307 0.82302 0.0
Cd282 Cd 0.72159 0.37491 0.88007 0.0
O283 O 0.69078 0.36412 0.84545 0.0
O284 O 0.75364 0.42715 0.78331 0.0
O285 O 0.73388 0.44249 0.83245 0.0
C286 C 0.744 0.4472 0.80131 0.0
C287 C 0.71408 0.38889 0.93861 0.0
C288 C 0.69339 0.36628 0.81187 0.0
C289 C 0.77849 0.36258 0.85564 0.0
O290 O 0.75772 0.35448 0.87262 0.0
O291 O 0.77774 0.38422 0.83729 0.0
O292 O 0.71059 0.36395 0.92908 0.0
O293 O 0.72016 0.40651 0.91435 0.0
O294 O 0.61178 0.71511 0.79541 0.0
Cd295 Cd 0.58836 0.74476 0.81876 0.0
Cd296 Cd 0.61421 0.72329 0.87819 0.0
O297 O 0.6256 0.69271 0.84321 0.0
O298 O 0.56456 0.75648 0.77869 0.0
O299 O 0.54878 0.73743 0.82803 0.0
C300 C 0.5443 0.74733 0.7967 0.0
C301 C 0.60014 0.71488 0.93665 0.0
C302 C 0.62418 0.6952 0.80951 0.0
C303 C 0.62882 0.78014 0.85387 0.0
O304 O 0.63504 0.75945 0.87239 0.0
O305 O 0.60853 0.77973 0.83297 0.0
O306 O 0.62503 0.71144 0.92707 0.0
O307 O 0.5826 0.72142 0.91249 0.0
O308 O 0.2812 0.62216 0.80103 0.0
Cd309 Cd 0.25171 0.59823 0.82386 0.0
Cd310 Cd 0.27657 0.61762 0.88159 0.0
O311 O 0.30913 0.62095 0.84659 0.0
O312 O 0.23865 0.57532 0.78362 0.0
O313 O 0.25934 0.55856 0.83137 0.0
C314 C 0.2485 0.55471 0.80039 0.0
C315 C 0.28161 0.60262 0.9402 0.0
C316 C 0.30463 0.62644 0.81402 0.0
C317 C 0.22153 0.63946 0.86135 0.0
O318 O 0.24442 0.64466 0.8755 0.0
O319 O 0.21825 0.61806 0.84297 0.0
O320 O 0.28991 0.62634 0.93048 0.0
O321 O 0.27215 0.58644 0.91602 0.0
O322 O 0.37574 0.28302 0.79627 0.0
Cd323 Cd 0.39888 0.25238 0.81759 0.0
Cd324 Cd 0.37427 0.27176 0.87966 0.0
O325 O 0.36263 0.30313 0.84615 0.0
O326 O 0.42264 0.24165 0.77714 0.0
O327 O 0.4384 0.25914 0.82761 0.0
C328 C 0.4429 0.25002 0.79586 0.0
C329 C 0.38778 0.27992 0.93836 0.0
C330 C 0.36365 0.30224 0.81229 0.0
C331 C 0.3597 0.21547 0.85311 0.0
O332 O 0.35392 0.23531 0.87342 0.0
O333 O 0.3788 0.21715 0.83052 0.0
O334 O 0.36299 0.28339 0.92839 0.0
O335 O 0.40553 0.27323 0.91457 0.0
O336 O 0.27762 0.37834 0.29899 0.0
Cd337 Cd 0.25035 0.40337 0.32462 0.0
Cd338 Cd 0.27206 0.37694 0.38116 0.0
O339 O 0.3028 0.36771 0.34574 0.0
O340 O 0.23719 0.42774 0.28602 0.0
O341 O 0.26169 0.44233 0.33153 0.0
C342 C 0.24967 0.44742 0.30165 0.0
C343 C 0.27971 0.39106 0.43963 0.0
C344 C 0.29875 0.36755 0.31227 0.0
C345 C 0.21513 0.36336 0.35934 0.0
O346 O 0.2367 0.355 0.37432 0.0
O347 O 0.21495 0.3856 0.34222 0.0
O348 O 0.28469 0.36646 0.42975 0.0
O349 O 0.27193 0.40835 0.41577 0.0
O350 O 0.61598 0.27981 0.2979 0.0
Cd351 Cd 0.59204 0.25073 0.32176 0.0
Cd352 Cd 0.61982 0.2711 0.3796 0.0
O353 O 0.63052 0.30217 0.34536 0.0
O354 O 0.56829 0.23935 0.28151 0.0
O355 O 0.55259 0.25906 0.33048 0.0
C356 C 0.54813 0.24907 0.29918 0.0
C357 C 0.60588 0.27846 0.43817 0.0
C358 C 0.62868 0.29967 0.31173 0.0
C359 C 0.63226 0.2142 0.35493 0.0
O360 O 0.64031 0.23498 0.37203 0.0
O361 O 0.61071 0.21499 0.33636 0.0
O362 O 0.63076 0.28211 0.42868 0.0
O363 O 0.58829 0.27225 0.4139 0.0
O364 O 0.71147 0.621 0.29648 0.0
Cd365 Cd 0.74081 0.59636 0.31805 0.0
Cd366 Cd 0.71771 0.61597 0.37824 0.0
O367 O 0.68497 0.62112 0.34349 0.0
O368 O 0.7524 0.57293 0.27765 0.0
O369 O 0.7326 0.55695 0.32648 0.0
C370 C 0.74278 0.55262 0.29525 0.0
C371 C 0.71165 0.60258 0.43747 0.0
C372 C 0.68863 0.6262 0.31061 0.0
C373 C 0.77369 0.63547 0.35619 0.0
O374 O 0.7517 0.6408 0.37252 0.0
O375 O 0.77524 0.61525 0.33535 0.0
O376 O 0.70491 0.62654 0.42679 0.0
O377 O 0.71997 0.58529 0.41394 0.0
O378 O 0.3746 0.71546 0.29866 0.0
Cd379 Cd 0.40036 0.74383 0.32083 0.0
Cd380 Cd 0.38001 0.72055 0.3792 0.0
O381 O 0.37479 0.68794 0.34462 0.0
O382 O 0.42368 0.7556 0.28041 0.0
O383 O 0.43964 0.73446 0.32828 0.0
C384 C 0.44391 0.74516 0.29734 0.0
C385 C 0.39389 0.71445 0.43817 0.0
C386 C 0.36911 0.69242 0.31211 0.0
C387 C 0.36105 0.77654 0.35787 0.0
O388 O 0.35477 0.7541 0.37251 0.0
O389 O 0.38258 0.77856 0.33956 0.0
O390 O 0.36989 0.70762 0.42778 0.0
O391 O 0.41086 0.72321 0.41455 0.0
O392 O 0.27811 0.6234 0.23142 0.0
Cd393 Cd 0.25103 0.59671 0.20831 0.0
Cd394 Cd 0.27464 0.6169 0.15116 0.0
O395 O 0.30676 0.62071 0.18685 0.0
O396 O 0.23749 0.57331 0.24771 0.0
O397 O 0.26314 0.55795 0.20371 0.0
C398 C 0.25045 0.55339 0.23326 0.0
C399 C 0.28068 0.60226 0.09258 0.0
C400 C 0.30173 0.62746 0.21889 0.0
C401 C 0.21863 0.63534 0.17014 0.0
O402 O 0.24146 0.64271 0.15761 0.0
O403 O 0.21653 0.61301 0.18671 0.0
O404 O 0.28865 0.626 0.10275 0.0
O405 O 0.27073 0.58595 0.11621 0.0
O406 O 0.37583 0.28218 0.23056 0.0
Cd407 Cd 0.39967 0.25285 0.20708 0.0
Cd408 Cd 0.37233 0.27324 0.14876 0.0
O409 O 0.36098 0.30413 0.18297 0.0
O410 O 0.42304 0.2413 0.24761 0.0
O411 O 0.43932 0.2605 0.19866 0.0
C412 C 0.44346 0.25051 0.23002 0.0
C413 C 0.38673 0.28066 0.09039 0.0
C414 C 0.36287 0.30181 0.21662 0.0
C415 C 0.35952 0.2164 0.17339 0.0
O416 O 0.35191 0.23706 0.15576 0.0
O417 O 0.38064 0.21725 0.19276 0.0
O418 O 0.36174 0.2841 0.09953 0.0
O419 O 0.40417 0.27474 0.11497 0.0
O420 O 0.71297 0.37816 0.23208 0.0
Cd421 Cd 0.7421 0.40216 0.20848 0.0
Cd422 Cd 0.72141 0.37627 0.14962 0.0
O423 O 0.69018 0.36603 0.18382 0.0
O424 O 0.75338 0.42673 0.24792 0.0
O425 O 0.73366 0.44138 0.19835 0.0
C426 C 0.74366 0.44652 0.22947 0.0
C427 C 0.71385 0.38972 0.09084 0.0
C428 C 0.69278 0.36656 0.21753 0.0
C429 C 0.77788 0.36194 0.17424 0.0
O430 O 0.75701 0.35478 0.15667 0.0
O431 O 0.77751 0.38305 0.19372 0.0
O432 O 0.70944 0.3651 0.10097 0.0
O433 O 0.72108 0.40739 0.11455 0.0
O434 O 0.61764 0.7139 0.22965 0.0
Cd435 Cd 0.59301 0.74285 0.20711 0.0
Cd436 Cd 0.61227 0.71854 0.14834 0.0
O437 O 0.61638 0.68618 0.18387 0.0
O438 O 0.56937 0.7551 0.24695 0.0
O439 O 0.55368 0.73431 0.19858 0.0
C440 C 0.5492 0.74496 0.22952 0.0
C441 C 0.59859 0.71232 0.08924 0.0
C442 C 0.62218 0.69059 0.2164 0.0
C443 C 0.63303 0.77428 0.16922 0.0
O444 O 0.63822 0.75176 0.15401 0.0
O445 O 0.61228 0.77681 0.18891 0.0
O446 O 0.62213 0.70445 0.10011 0.0
O447 O 0.58182 0.72203 0.1125 0.0
C448 C 0.32584 0.18801 0.20619 0.0
C449 C 0.34143 0.19248 0.1749 0.0
C450 C 0.31868 0.1542 0.14531 0.0
C451 C 0.30134 0.15158 0.17525 0.0
N452 N 0.28537 0.16825 0.23208 0.0
N453 N 0.35227 0.18139 0.11398 0.0
C454 C 0.3043 0.16885 0.20535 0.0
C455 C 0.33778 0.17595 0.14423 0.0
N456 N 0.33128 0.20239 0.23662 0.0
N457 N 0.31718 0.13552 0.11835 0.0
H458 H 0.36747 0.19617 0.11296 0.0
H459 H 0.34846 0.17227 0.08944 0.0
H460 H 0.30333 0.11944 0.11848 0.0
H461 H 0.33083 0.13462 0.09722 0.0
H462 H 0.32305 0.19756 0.26137 0.0
H463 H 0.34544 0.21811 0.23798 0.0
H464 H 0.28436 0.18265 0.25239 0.0
H465 H 0.26906 0.15472 0.23261 0.0
C466 C 0.82493 0.30595 0.20547 0.0
C467 C 0.84172 0.30263 0.17502 0.0
C468 C 0.81766 0.33955 0.14445 0.0
C469 C 0.80152 0.34345 0.17538 0.0
N470 N 0.7922 0.3335 0.23728 0.0
N471 N 0.85745 0.31835 0.11793 0.0
C472 C 0.80613 0.32781 0.20661 0.0
C473 C 0.83907 0.32008 0.14516 0.0
N474 N 0.82554 0.28706 0.23226 0.0
N475 N 0.81216 0.35417 0.11431 0.0
H476 H 0.87334 0.3043 0.11784 0.0
H477 H 0.85835 0.33203 0.09683 0.0
H478 H 0.7977 0.36967 0.11357 0.0
H479 H 0.82091 0.35019 0.08961 0.0
H480 H 0.81136 0.28628 0.2528 0.0
H481 H 0.83886 0.27059 0.23269 0.0
H482 H 0.79726 0.32528 0.26197 0.0
H483 H 0.77666 0.34783 0.23887 0.0
C484 C 0.65813 0.81162 0.13769 0.0
C485 C 0.65363 0.79612 0.16898 0.0
C486 C 0.6885 0.82218 0.20083 0.0
C487 C 0.69444 0.83635 0.1688 0.0
N488 N 0.68701 0.8436 0.10603 0.0
N489 N 0.66692 0.78331 0.22858 0.0
C490 C 0.67984 0.83078 0.13696 0.0
C491 C 0.66929 0.80065 0.20021 0.0
N492 N 0.64114 0.80848 0.10912 0.0
N493 N 0.70143 0.82907 0.23186 0.0
H494 H 0.6532 0.76715 0.22929 0.0
H495 H 0.68002 0.78339 0.25037 0.0
H496 H 0.71726 0.84312 0.23325 0.0
H497 H 0.69542 0.82211 0.25683 0.0
H498 H 0.64149 0.8209 0.0867 0.0
H499 H 0.62523 0.79446 0.10886 0.0
H500 H 0.6794 0.83833 0.08108 0.0
H501 H 0.70178 0.8588 0.10498 0.0
C502 C 0.18899 0.66765 0.20365 0.0
C503 C 0.19573 0.65478 0.17092 0.0
C504 C 0.15881 0.67921 0.1408 0.0
C505 C 0.15367 0.69374 0.17277 0.0
N506 N 0.16667 0.70531 0.23305 0.0
N507 N 0.18925 0.64968 0.10762 0.0
C508 C 0.16929 0.68872 0.20392 0.0
C509 C 0.18127 0.66097 0.13922 0.0
N510 N 0.20163 0.65998 0.23455 0.0
N511 N 0.14172 0.68234 0.11234 0.0
H512 H 0.20488 0.63543 0.10583 0.0
H513 H 0.18162 0.65556 0.08293 0.0
H514 H 0.12501 0.6954 0.11284 0.0
H515 H 0.14266 0.67052 0.08936 0.0
H516 H 0.19496 0.66584 0.25974 0.0
H517 H 0.21787 0.64639 0.23547 0.0
H518 H 0.17992 0.70498 0.25469 0.0
H519 H 0.15267 0.72115 0.23463 0.0
C520 C 0.31659 0.83549 0.38865 0.0
C521 C 0.30047 0.83942 0.35772 0.0
C522 C 0.32658 0.80462 0.32585 0.0
C523 C 0.34117 0.79906 0.35769 0.0
N524 N 0.34913 0.80714 0.42019 0.0
N525 N 0.28683 0.82494 0.2988 0.0
C526 C 0.3359 0.81391 0.38938 0.0
C527 C 0.30475 0.82345 0.32668 0.0
N528 N 0.3139 0.85292 0.41686 0.0
N529 N 0.33332 0.79166 0.29479 0.0
H530 H 0.27041 0.8383 0.2981 0.0
H531 H 0.28675 0.81137 0.27749 0.0
H532 H 0.34754 0.776 0.29327 0.0
H533 H 0.32603 0.79755 0.26992 0.0
H534 H 0.32672 0.85294 0.43892 0.0
H535 H 0.29998 0.86894 0.41701 0.0
H536 H 0.34411 0.81499 0.44509 0.0
H537 H 0.36434 0.79239 0.42122 0.0
C538 C 0.17646 0.33896 0.38895 0.0
C539 C 0.19138 0.345 0.35759 0.0
C540 C 0.1669 0.30946 0.32485 0.0
C541 C 0.15136 0.30397 0.35589 0.0
N542 N 0.1377 0.31594 0.41544 0.0
N543 N 0.19818 0.3393 0.29418 0.0
C544 C 0.15507 0.31949 0.3874 0.0
C545 C 0.18554 0.33148 0.32499 0.0
N546 N 0.18311 0.35154 0.42029 0.0
N547 N 0.16535 0.29239 0.29605 0.0
H548 H 0.21361 0.35379 0.29319 0.0
H549 H 0.19212 0.33274 0.26901 0.0
H550 H 0.15212 0.27587 0.2946 0.0
H551 H 0.17872 0.2931 0.27459 0.0
H552 H 0.17532 0.34588 0.44497 0.0
H553 H 0.19759 0.367 0.42187 0.0
H554 H 0.13757 0.32824 0.43803 0.0
H555 H 0.1218 0.30189 0.41493 0.0
C556 C 0.68544 0.16459 0.32185 0.0
C557 C 0.69005 0.14897 0.3531 0.0
C558 C 0.65489 0.17463 0.38494 0.0
C559 C 0.65003 0.18998 0.35353 0.0
N560 N 0.65747 0.19726 0.29054 0.0
N561 N 0.67684 0.13548 0.41218 0.0
C562 C 0.6641 0.18401 0.32141 0.0
C563 C 0.67402 0.15291 0.38404 0.0
N564 N 0.70272 0.16225 0.29341 0.0
N565 N 0.64149 0.18118 0.41569 0.0
H566 H 0.69067 0.11939 0.41207 0.0
H567 H 0.66426 0.13552 0.43444 0.0
H568 H 0.62615 0.19581 0.4167 0.0
H569 H 0.64623 0.17307 0.44053 0.0
H570 H 0.70289 0.17561 0.27192 0.0
H571 H 0.71845 0.1481 0.29217 0.0
H572 H 0.66432 0.19125 0.2655 0.0
H573 H 0.64374 0.21335 0.28927 0.0
C574 C 0.80113 0.67164 0.32682 0.0
C575 C 0.79627 0.65522 0.35722 0.0
C576 C 0.83243 0.6788 0.38998 0.0
C577 C 0.83833 0.6941 0.35887 0.0
N578 N 0.8306 0.70348 0.29641 0.0
N579 N 0.80867 0.64032 0.41613 0.0
C580 C 0.8235 0.68986 0.32683 0.0
C581 C 0.81228 0.65803 0.38844 0.0
N582 N 0.78338 0.67096 0.29871 0.0
N583 N 0.84589 0.68442 0.42103 0.0
H584 H 0.79389 0.62509 0.41587 0.0
H585 H 0.82135 0.63938 0.43828 0.0
H586 H 0.86175 0.69845 0.42257 0.0
H587 H 0.84054 0.6763 0.44565 0.0
H588 H 0.78379 0.68473 0.27767 0.0
H589 H 0.7666 0.65803 0.29761 0.0
H590 H 0.82302 0.69864 0.27129 0.0
H591 H 0.84537 0.71865 0.29558 0.0
C592 C 0.67441 0.83799 0.8843 0.0
C593 C 0.69015 0.84213 0.85305 0.0
C594 C 0.66421 0.80689 0.82163 0.0
C595 C 0.64805 0.8032 0.8526 0.0
N596 N 0.63438 0.81751 0.91121 0.0
N597 N 0.69795 0.83354 0.79039 0.0
C598 C 0.65217 0.81946 0.88334 0.0
C599 C 0.68419 0.82772 0.82114 0.0
N600 N 0.68103 0.85156 0.91494 0.0
N601 N 0.66183 0.78921 0.79357 0.0
H602 H 0.71453 0.84667 0.78918 0.0
H603 H 0.69195 0.82659 0.76538 0.0
H604 H 0.64735 0.77378 0.79237 0.0
H605 H 0.67548 0.78836 0.77243 0.0
H606 H 0.6726 0.84727 0.93972 0.0
H607 H 0.69603 0.86653 0.91595 0.0
H608 H 0.63457 0.8304 0.93322 0.0
H609 H 0.61789 0.80416 0.91109 0.0
C610 C 0.16374 0.68499 0.89317 0.0
C611 C 0.15911 0.70053 0.86192 0.0
C612 C 0.19436 0.67506 0.83011 0.0
C613 C 0.19991 0.66031 0.86182 0.0
N614 N 0.19262 0.65282 0.92456 0.0
N615 N 0.17291 0.71424 0.80292 0.0
C616 C 0.18545 0.66582 0.89375 0.0
C617 C 0.17513 0.69655 0.83093 0.0
N618 N 0.14678 0.68798 0.92176 0.0
N619 N 0.20753 0.66856 0.79913 0.0
H620 H 0.15919 0.73041 0.80246 0.0
H621 H 0.18615 0.71448 0.78131 0.0
H622 H 0.22342 0.65459 0.79774 0.0
H623 H 0.20176 0.6759 0.77424 0.0
H624 H 0.14715 0.67546 0.94409 0.0
H625 H 0.13093 0.70206 0.92221 0.0
H626 H 0.18499 0.65791 0.94955 0.0
H627 H 0.20754 0.63777 0.92555 0.0
C628 C 0.32387 0.18821 0.8225 0.0
C629 C 0.34136 0.19171 0.85224 0.0
C630 C 0.31942 0.15358 0.88296 0.0
C631 C 0.30272 0.14939 0.85258 0.0
N632 N 0.29134 0.1599 0.79141 0.0
N633 N 0.35902 0.17595 0.90837 0.0
C634 C 0.30588 0.16566 0.82159 0.0
C635 C 0.34008 0.17385 0.88183 0.0
N636 N 0.32308 0.20751 0.79621 0.0
N637 N 0.31515 0.13846 0.91302 0.0
H638 H 0.37433 0.19065 0.90824 0.0
H639 H 0.36095 0.16205 0.92911 0.0
H640 H 0.30123 0.12246 0.91403 0.0
H641 H 0.32433 0.14251 0.93744 0.0
H642 H 0.30841 0.208 0.77622 0.0
H643 H 0.33567 0.22456 0.79581 0.0
H644 H 0.29538 0.16868 0.76674 0.0
H645 H 0.27632 0.145 0.79011 0.0
C646 C 0.83996 0.32067 0.88346 0.0
C647 C 0.8433 0.30444 0.85253 0.0
C648 C 0.80789 0.33038 0.82163 0.0
C649 C 0.80253 0.34465 0.8538 0.0
N650 N 0.81218 0.35326 0.91576 0.0
N651 N 0.82864 0.29122 0.79354 0.0
C652 C 0.81829 0.33983 0.88486 0.0
C653 C 0.82709 0.30885 0.82176 0.0
N654 N 0.8579 0.31805 0.9111 0.0
N655 N 0.79427 0.337 0.79103 0.0
H656 H 0.84245 0.27519 0.7922 0.0
H657 H 0.81487 0.29103 0.77248 0.0
H658 H 0.7784 0.35099 0.79002 0.0
H659 H 0.79983 0.32991 0.76592 0.0
H660 H 0.85828 0.33085 0.93319 0.0
H661 H 0.87396 0.30419 0.91069 0.0
H662 H 0.82064 0.34851 0.9404 0.0
H663 H 0.79754 0.36857 0.91713 0.0
C664 C 0.66869 0.18856 0.70587 0.0
C665 C 0.65181 0.19202 0.67551 0.0
C666 C 0.67383 0.15328 0.6461 0.0
C667 C 0.69237 0.15162 0.67495 0.0
N668 N 0.71035 0.16991 0.7299 0.0
N669 N 0.63872 0.17929 0.61591 0.0
C670 C 0.6904 0.16963 0.70443 0.0
C671 C 0.65445 0.17477 0.64537 0.0
N672 N 0.66423 0.20364 0.73598 0.0
N673 N 0.6745 0.13394 0.6199 0.0
H674 H 0.62336 0.1939 0.61527 0.0
H675 H 0.64164 0.16958 0.59156 0.0
H676 H 0.68856 0.11806 0.61978 0.0
H677 H 0.66003 0.13234 0.59978 0.0
H678 H 0.67352 0.19958 0.76034 0.0
H679 H 0.64985 0.21915 0.73758 0.0
H680 H 0.71199 0.18483 0.74949 0.0
H681 H 0.72679 0.15653 0.72997 0.0
C682 C 0.80495 0.6706 0.70555 0.0
C683 C 0.80121 0.65368 0.67526 0.0
C684 C 0.83919 0.67614 0.64491 0.0
C685 C 0.84365 0.69218 0.67583 0.0
N686 N 0.83374 0.70214 0.73761 0.0
N687 N 0.81661 0.63704 0.61841 0.0
C688 C 0.82762 0.6884 0.7069 0.0
C689 C 0.8189 0.65549 0.64554 0.0
N690 N 0.78578 0.67103 0.73198 0.0
N691 N 0.85408 0.68101 0.61483 0.0
H692 H 0.8019 0.62175 0.61819 0.0
H693 H 0.8304 0.63549 0.5975 0.0
H694 H 0.87011 0.69489 0.61412 0.0
H695 H 0.84981 0.67235 0.59013 0.0
H696 H 0.78551 0.68533 0.75246 0.0
H697 H 0.76859 0.65862 0.73203 0.0
H698 H 0.82502 0.69764 0.76218 0.0
H699 H 0.84892 0.71684 0.73941 0.0
C700 C 0.29645 0.81733 0.69976 0.0
C701 C 0.29155 0.8331 0.66878 0.0
C702 C 0.32563 0.80678 0.63579 0.0
C703 C 0.33224 0.79278 0.66771 0.0
N704 N 0.32564 0.78558 0.73082 0.0
N705 N 0.30246 0.84504 0.60824 0.0
C706 C 0.3182 0.7984 0.69995 0.0
C707 C 0.3063 0.82833 0.63691 0.0
N708 N 0.27938 0.81949 0.72843 0.0
N709 N 0.33773 0.79933 0.60448 0.0
H710 H 0.28827 0.8608 0.60817 0.0
H711 H 0.31445 0.84461 0.58542 0.0
H712 H 0.35273 0.78439 0.60303 0.0
H713 H 0.33183 0.80664 0.57963 0.0
H714 H 0.27986 0.8064 0.7502 0.0
H715 H 0.263 0.83293 0.72932 0.0
H716 H 0.31884 0.79148 0.75593 0.0
H717 H 0.33985 0.76988 0.73184 0.0
C718 C 0.16926 0.30822 0.70682 0.0
C719 C 0.15335 0.30332 0.67589 0.0
C720 C 0.17647 0.34044 0.64454 0.0
C721 C 0.19176 0.34585 0.67584 0.0
N722 N 0.20014 0.33796 0.73852 0.0
N723 N 0.13818 0.31687 0.61756 0.0
C724 C 0.18712 0.33088 0.70762 0.0
C725 C 0.15589 0.32008 0.64535 0.0
N726 N 0.16875 0.2901 0.73451 0.0
N727 N 0.18201 0.35446 0.61393 0.0
H728 H 0.12291 0.30215 0.6175 0.0
H729 H 0.13715 0.32997 0.59583 0.0
H730 H 0.19578 0.37059 0.61301 0.0
H731 H 0.174 0.34943 0.58912 0.0
H732 H 0.18243 0.29049 0.75567 0.0
H733 H 0.15606 0.27314 0.73522 0.0
H734 H 0.19494 0.33017 0.76339 0.0
H735 H 0.21499 0.35301 0.74005 0.0
C736 C 0.18884 0.09744 0.03324 0.0
C737 C 0.21369 0.09542 0.05216 0.0
C738 C 0.23823 0.08854 0.99585 0.0
C739 C 0.21407 0.09481 0.9768 0.0
N740 N 0.16609 0.10435 0.97645 0.0
N741 N 0.26248 0.09057 0.05208 0.0
C742 C 0.1892 0.09874 0.99529 0.0
C743 C 0.23845 0.09077 0.0337 0.0
N744 N 0.16493 0.09773 0.05176 0.0
N745 N 0.26119 0.08112 0.97779 0.0
H746 H 0.26366 0.09181 0.07976 0.0
H747 H 0.28148 0.09103 0.03994 0.0
H748 H 0.2625 0.08072 0.9501 0.0
H749 H 0.27843 0.07328 0.99016 0.0
H750 H 0.14585 0.09687 0.03986 0.0
H751 H 0.16423 0.09653 0.07952 0.0
H752 H 0.14798 0.11073 0.98804 0.0
H753 H 0.1653 0.10351 0.94868 0.0
C754 C 0.90317 0.23785 0.99328 0.0
C755 C 0.89628 0.21371 0.97445 0.0
C756 C 0.89302 0.18885 0.03111 0.0
C757 C 0.89562 0.21378 0.04978 0.0
N758 N 0.90185 0.26246 0.04931 0.0
N759 N 0.88564 0.16592 0.9745 0.0
C760 C 0.90097 0.23833 0.03112 0.0
C761 C 0.89177 0.18903 0.99316 0.0
N762 N 0.91117 0.26054 0.97503 0.0
N763 N 0.89208 0.16505 0.04987 0.0
H764 H 0.88649 0.16497 0.94674 0.0
H765 H 0.87885 0.148 0.98623 0.0
H766 H 0.89322 0.1645 0.07765 0.0
H767 H 0.89246 0.14586 0.03818 0.0
H768 H 0.91944 0.27766 0.98727 0.0
H769 H 0.91161 0.26169 0.94734 0.0
H770 H 0.90192 0.28142 0.03702 0.0
H771 H 0.9007 0.26379 0.07699 0.0
C772 C 0.8051 0.8936 0.99422 0.0
C773 C 0.77973 0.89466 0.9764 0.0
C774 C 0.75623 0.89982 0.03374 0.0
C775 C 0.78112 0.89444 0.05166 0.0
N776 N 0.82953 0.88757 0.04999 0.0
N777 N 0.73089 0.8981 0.97827 0.0
C778 C 0.80571 0.89202 0.03214 0.0
C779 C 0.75526 0.89824 0.99586 0.0
N780 N 0.82851 0.89439 0.97467 0.0
N781 N 0.73334 0.90577 0.05286 0.0
H782 H 0.72928 0.89769 0.95058 0.0
H783 H 0.71214 0.89674 0.99093 0.0
H784 H 0.73255 0.90554 0.08057 0.0
H785 H 0.71546 0.91295 0.04142 0.0
H786 H 0.84785 0.89589 0.9857 0.0
H787 H 0.82844 0.89579 0.94691 0.0
H788 H 0.84771 0.88232 0.03764 0.0
H789 H 0.83091 0.88833 0.07773 0.0
C790 C 0.09064 0.75716 0.99743 0.0
C791 C 0.09296 0.78221 0.97878 0.0
C792 C 0.09517 0.807 0.03555 0.0
C793 C 0.09341 0.78194 0.05414 0.0
N794 N 0.08299 0.73396 0.05351 0.0
N795 N 0.09081 0.83105 0.97923 0.0
C796 C 0.08867 0.75734 0.03528 0.0
C797 C 0.09308 0.8072 0.99768 0.0
N798 N 0.09258 0.73307 0.97933 0.0
N799 N 0.09954 0.8305 0.05419 0.0
H800 H 0.08887 0.83163 0.95154 0.0
H801 H 0.08844 0.84997 0.99128 0.0
H802 H 0.09935 0.83124 0.08199 0.0
H803 H 0.10439 0.849 0.04232 0.0
H804 H 0.09484 0.71428 0.99175 0.0
H805 H 0.09399 0.73175 0.95169 0.0
H806 H 0.07631 0.71617 0.04124 0.0
H807 H 0.08269 0.73279 0.08122 0.0
C808 C 0.23569 0.90419 0.49712 0.0
C809 C 0.21135 0.8989 0.47802 0.0
C810 C 0.18567 0.8994 0.53411 0.0
C811 C 0.21048 0.89988 0.55333 0.0
N812 N 0.25959 0.90094 0.55338 0.0
N813 N 0.16291 0.89219 0.47739 0.0
C814 C 0.23562 0.90245 0.53498 0.0
C815 C 0.18619 0.89701 0.49627 0.0
N816 N 0.25908 0.91017 0.4791 0.0
N817 N 0.16167 0.90159 0.55219 0.0
H818 H 0.16241 0.89213 0.44958 0.0
H819 H 0.1444 0.88723 0.48908 0.0
H820 H 0.16086 0.9038 0.57985 0.0
H821 H 0.14284 0.90369 0.53985 0.0
H822 H 0.27666 0.91718 0.49152 0.0
H823 H 0.26039 0.91039 0.4514 0.0
H824 H 0.27846 0.89886 0.54118 0.0
H825 H 0.26074 0.89975 0.58103 0.0
C826 C 0.10326 0.18805 0.53418 0.0
C827 C 0.10072 0.21302 0.55279 0.0
C828 C 0.09287 0.23695 0.49625 0.0
C829 C 0.09968 0.21279 0.47746 0.0
N830 N 0.11043 0.16503 0.47761 0.0
N831 N 0.09453 0.2617 0.55215 0.0
C832 C 0.10434 0.18816 0.49622 0.0
C833 C 0.09529 0.23752 0.53407 0.0
N834 N 0.10427 0.16428 0.55301 0.0
N835 N 0.08475 0.2596 0.47798 0.0
H836 H 0.09585 0.26311 0.57981 0.0
H837 H 0.09442 0.28063 0.53977 0.0
H838 H 0.08417 0.2607 0.45029 0.0
H839 H 0.07653 0.27673 0.49021 0.0
H840 H 0.10385 0.14508 0.54137 0.0
H841 H 0.10325 0.16377 0.58079 0.0
H842 H 0.11732 0.14716 0.48936 0.0
H843 H 0.10947 0.16403 0.44985 0.0
C844 C 0.75723 0.09002 0.53074 0.0
C845 C 0.78134 0.0972 0.54937 0.0
C846 C 0.80595 0.10035 0.49253 0.0
C847 C 0.78101 0.09746 0.474 0.0
N848 N 0.73237 0.09118 0.47495 0.0
N849 N 0.82895 0.10841 0.5489 0.0
C850 C 0.75658 0.09212 0.49289 0.0
C851 C 0.80588 0.10188 0.53047 0.0
N852 N 0.73471 0.08184 0.54918 0.0
N853 N 0.82968 0.10128 0.47365 0.0
H854 H 0.83 0.10778 0.57667 0.0
H855 H 0.84672 0.11535 0.53697 0.0
H856 H 0.83019 0.09992 0.44589 0.0
H857 H 0.84888 0.10107 0.48528 0.0
H858 H 0.71765 0.07337 0.53708 0.0
H859 H 0.7337 0.08143 0.57689 0.0
H860 H 0.7135 0.09112 0.48745 0.0
H861 H 0.73085 0.09237 0.44729 0.0
C862 C 0.90419 0.75666 0.53504 0.0
C863 C 0.89848 0.78109 0.55384 0.0
C864 C 0.89626 0.80602 0.49717 0.0
C865 C 0.89754 0.78097 0.47852 0.0
N866 N 0.9011 0.732 0.47923 0.0
N867 N 0.88992 0.82929 0.55372 0.0
C868 C 0.9017 0.75621 0.49724 0.0
C869 C 0.89503 0.80593 0.53511 0.0
N870 N 0.91132 0.73369 0.5533 0.0
N871 N 0.89659 0.82984 0.47841 0.0
H872 H 0.89078 0.83021 0.58149 0.0
H873 H 0.8839 0.84747 0.54193 0.0
H874 H 0.89779 0.83033 0.45064 0.0
H875 H 0.89801 0.84897 0.49013 0.0
H876 H 0.91873 0.7162 0.54103 0.0
H877 H 0.91199 0.73262 0.58099 0.0
H878 H 0.90022 0.71312 0.49169 0.0
H879 H 0.89955 0.73058 0.4516 0.0
C880 C 0.68708 0.59795 0.53353 0.0
C881 C 0.71237 0.59813 0.55158 0.0
C882 C 0.73634 0.59244 0.49462 0.0
C883 C 0.71135 0.59631 0.47626 0.0
N884 N 0.66272 0.60157 0.47733 0.0
N885 N 0.76131 0.59653 0.5502 0.0
C886 C 0.68659 0.59845 0.49553 0.0
C887 C 0.73705 0.59503 0.53243 0.0
N888 N 0.6636 0.59697 0.55295 0.0
N889 N 0.75956 0.58693 0.47595 0.0
H890 H 0.76276 0.59776 0.57788 0.0
H891 H 0.78008 0.59823 0.53765 0.0
H892 H 0.76051 0.58656 0.44825 0.0
H893 H 0.77765 0.58076 0.48783 0.0
H894 H 0.64437 0.59456 0.54187 0.0
H895 H 0.66356 0.59641 0.58076 0.0
H896 H 0.64431 0.60654 0.4893 0.0
H897 H 0.66147 0.59997 0.44965 0.0
C898 C 0.40348 0.73836 0.49594 0.0
C899 C 0.40066 0.7136 0.47675 0.0
C900 C 0.40131 0.6881 0.53306 0.0
C901 C 0.3997 0.71296 0.55212 0.0
N902 N 0.39753 0.76204 0.55205 0.0
N903 N 0.39757 0.66473 0.47618 0.0
C904 C 0.40094 0.7382 0.53374 0.0
C905 C 0.40003 0.68837 0.49512 0.0
N906 N 0.40791 0.76217 0.47805 0.0
N907 N 0.40452 0.66432 0.55143 0.0
H908 H 0.39853 0.66411 0.44841 0.0
H909 H 0.39358 0.64592 0.48772 0.0
H910 H 0.40589 0.66369 0.57918 0.0
H911 H 0.40818 0.64561 0.53938 0.0
H912 H 0.41328 0.78028 0.49061 0.0
H913 H 0.40839 0.76358 0.45038 0.0
H914 H 0.39438 0.78076 0.53982 0.0
H915 H 0.39588 0.76308 0.57968 0.0
C916 C 0.30566 0.39627 0.49666 0.0
C917 C 0.28065 0.39814 0.47808 0.0
C918 C 0.25655 0.40511 0.5347 0.0
C919 C 0.2809 0.39898 0.55342 0.0
N920 N 0.3289 0.38954 0.55314 0.0
N921 N 0.23185 0.40289 0.47884 0.0
C922 C 0.30562 0.39505 0.53461 0.0
C923 C 0.25603 0.40279 0.49687 0.0
N924 N 0.32943 0.39605 0.47781 0.0
N925 N 0.23371 0.41251 0.55303 0.0
H926 H 0.23043 0.40164 0.45119 0.0
H927 H 0.21295 0.40235 0.49126 0.0
H928 H 0.23259 0.41293 0.58073 0.0
H929 H 0.21637 0.42029 0.54086 0.0
H930 H 0.34859 0.39703 0.48946 0.0
H931 H 0.32991 0.39722 0.45004 0.0
H932 H 0.34692 0.38315 0.54131 0.0
H933 H 0.32991 0.39045 0.5809 0.0
C934 C 0.5996 0.30475 0.53324 0.0
C935 C 0.59821 0.27972 0.55184 0.0
C936 C 0.59303 0.2552 0.49516 0.0
C937 C 0.59862 0.27971 0.47654 0.0
N938 N 0.60648 0.32803 0.47685 0.0
N939 N 0.59485 0.23077 0.55124 0.0
C940 C 0.60142 0.30463 0.49534 0.0
C941 C 0.59465 0.25488 0.53305 0.0
N942 N 0.59884 0.32857 0.55203 0.0
N943 N 0.58678 0.23206 0.47662 0.0
H944 H 0.59548 0.22957 0.57896 0.0
H945 H 0.59613 0.21181 0.53901 0.0
H946 H 0.58677 0.23097 0.44891 0.0
H947 H 0.57956 0.21438 0.48856 0.0
H948 H 0.59747 0.3477 0.54032 0.0
H949 H 0.59727 0.32908 0.57977 0.0
H950 H 0.61198 0.34634 0.48876 0.0
H951 H 0.60612 0.32889 0.44906 0.0
C952 C 0.73693 0.40283 0.99559 0.0
C953 C 0.71265 0.39619 0.977 0.0
C954 C 0.68787 0.39409 0.03377 0.0
C955 C 0.71286 0.39644 0.05231 0.0
N956 N 0.7616 0.40174 0.05155 0.0
N957 N 0.66473 0.38637 0.97742 0.0
C958 C 0.73745 0.40108 0.03347 0.0
C959 C 0.68795 0.39234 0.99586 0.0
N960 N 0.75971 0.41016 0.97708 0.0
N961 N 0.66411 0.3939 0.05261 0.0
H962 H 0.66374 0.38686 0.94965 0.0
H963 H 0.64674 0.38003 0.98937 0.0
H964 H 0.66361 0.39544 0.08035 0.0
H965 H 0.64493 0.39452 0.04095 0.0
H966 H 0.77701 0.41823 0.98907 0.0
H967 H 0.7608 0.41022 0.94938 0.0
H968 H 0.78052 0.40126 0.0392 0.0
H969 H 0.76297 0.40095 0.07924 0.0
C970 C 0.59369 0.68747 0.03121 0.0
C971 C 0.59238 0.71229 0.05044 0.0
C972 C 0.58717 0.73737 0.9942 0.0
C973 C 0.59286 0.71312 0.97502 0.0
N974 N 0.60125 0.66489 0.97445 0.0
N975 N 0.59005 0.76138 0.05047 0.0
C976 C 0.59581 0.68804 0.99333 0.0
C977 C 0.5891 0.73735 0.03207 0.0
N978 N 0.59246 0.66339 0.04932 0.0
N979 N 0.58056 0.76065 0.97625 0.0
H980 H 0.59143 0.76254 0.07812 0.0
H981 H 0.59155 0.78033 0.0383 0.0
H982 H 0.58033 0.76205 0.94856 0.0
H983 H 0.57314 0.77805 0.98873 0.0
H984 H 0.59093 0.64448 0.03701 0.0
H985 H 0.59051 0.66249 0.077 0.0
H986 H 0.60697 0.64658 0.98613 0.0
H987 H 0.6011 0.66431 0.94664 0.0
C988 C 0.25611 0.59393 0.03489 0.0
C989 C 0.28098 0.59529 0.05405 0.0
C990 C 0.30656 0.59566 0.9979 0.0
C991 C 0.28167 0.59536 0.97868 0.0
N992 N 0.23305 0.5884 0.97823 0.0
N993 N 0.3296 0.59114 0.05501 0.0
C994 C 0.25658 0.59226 0.99699 0.0
C995 C 0.30616 0.59413 0.03583 0.0
N996 N 0.23199 0.59632 0.05274 0.0
N997 N 0.33053 0.59799 0.97974 0.0
H998 H 0.3297 0.58965 0.08276 0.0
H999 H 0.34861 0.58789 0.04366 0.0
H1000 H 0.33163 0.59701 0.95199 0.0
H1001 H 0.34918 0.60172 0.99185 0.0
H1002 H 0.21336 0.59948 0.04028 0.0
H1003 H 0.23057 0.59683 0.08042 0.0
H1004 H 0.21475 0.58272 0.98994 0.0
H1005 H 0.23195 0.58888 0.95054 0.0
C1006 C 0.39949 0.25682 0.99592 0.0
C1007 C 0.39462 0.28126 0.97682 0.0
C1008 C 0.39031 0.30653 0.03297 0.0
C1009 C 0.39428 0.28194 0.0521 0.0
N1010 N 0.40862 0.23496 0.05259 0.0
N1011 N 0.39162 0.33002 0.97594 0.0
C1012 C 0.40116 0.25758 0.0338 0.0
C1013 C 0.39206 0.30637 0.99506 0.0
N1014 N 0.40045 0.23256 0.97806 0.0
N1015 N 0.38421 0.32984 0.05115 0.0
H1016 H 0.39313 0.33033 0.94819 0.0
H1017 H 0.39204 0.34931 0.98736 0.0
H1018 H 0.38469 0.331 0.07892 0.0
H1019 H 0.3778 0.34775 0.03902 0.0
H1020 H 0.40018 0.21368 0.99057 0.0
H1021 H 0.39974 0.23105 0.95037 0.0
H1022 H 0.41682 0.21763 0.04084 0.0
H1023 H 0.40866 0.23405 0.08031 0.0
C1024 C 0.22067 0.00975 0.26065 0.0
C1025 C 0.24569 0.02155 0.25006 0.0
C1026 C 0.27071 0.98412 0.27801 0.0
C1027 C 0.24567 0.9712 0.28587 0.0
N1028 N 0.19686 0.96921 0.27986 0.0
N1029 N 0.29435 0.01876 0.244 0.0
C1030 C 0.22062 0.98335 0.27598 0.0
C1031 C 0.27071 0.00842 0.25751 0.0
N1032 N 0.19704 0.02418 0.2573 0.0
N1033 N 0.2944 0.97356 0.2911 0.0
H1034 H 0.29504 0.03651 0.22881 0.0
H1035 H 0.31292 0.00867 0.24525 0.0
H1036 H 0.29508 0.95584 0.30636 0.0
H1037 H 0.31305 0.98347 0.28951 0.0
H1038 H 0.17866 0.01797 0.26835 0.0
H1039 H 0.19614 0.04351 0.24593 0.0
H1040 H 0.1784 0.97567 0.26928 0.0
H1041 H 0.19587 0.94988 0.29121 0.0
C1042 C 0.98375 0.22045 0.25703 0.0
C1043 C 0.9714 0.24542 0.24722 0.0
C1044 C 0.00832 0.27077 0.27589 0.0
C1045 C 0.02174 0.24586 0.28308 0.0
N1046 N 0.02473 0.19718 0.27574 0.0
N1047 N 0.97322 0.29426 0.2425 0.0
C1048 C 0.01013 0.22071 0.27244 0.0
C1049 C 0.98403 0.2706 0.25537 0.0
N1050 N 0.96985 0.19656 0.25289 0.0
N1051 N 0.0184 0.29449 0.28964 0.0
H1052 H 0.95548 0.29483 0.22728 0.0
H1053 H 0.98293 0.31302 0.24426 0.0
H1054 H 0.03611 0.2953 0.30492 0.0
H1055 H 0.00812 0.31297 0.28857 0.0
H1056 H 0.97644 0.1781 0.26337 0.0
H1057 H 0.95058 0.19544 0.24139 0.0
H1058 H 0.01868 0.17873 0.26463 0.0
H1059 H 0.04404 0.19642 0.28717 0.0
C1060 C 0.74679 0.99556 0.29881 0.0
C1061 C 0.74905 0.01956 0.27805 0.0
C1062 C 0.7475 0.99173 0.22387 0.0
C1063 C 0.74933 0.96774 0.2447 0.0
N1064 N 0.75972 0.9484 0.3026 0.0
N1065 N 0.76057 0.03888 0.22053 0.0
C1066 C 0.75161 0.97003 0.2824 0.0
C1067 C 0.75205 0.01725 0.24045 0.0
N1068 N 0.73895 0.99673 0.33369 0.0
N1069 N 0.74036 0.99057 0.18873 0.0
H1070 H 0.7667 0.0573 0.23171 0.0
H1071 H 0.76497 0.03723 0.19344 0.0
H1072 H 0.73482 0.97258 0.17595 0.0
H1073 H 0.73671 0.00796 0.17358 0.0
H1074 H 0.73498 0.97933 0.34869 0.0
H1075 H 0.73319 0.01472 0.34628 0.0
H1076 H 0.76361 0.95006 0.32984 0.0
H1077 H 0.76604 0.92998 0.29166 0.0
C1078 C 0.00939 0.77087 0.25907 0.0
C1079 C 0.02158 0.74585 0.2491 0.0
C1080 C 0.98491 0.72071 0.27858 0.0
C1081 C 0.9716 0.74569 0.28588 0.0
N1082 N 0.96854 0.7943 0.27781 0.0
N1083 N 0.01949 0.69701 0.24452 0.0
C1084 C 0.98313 0.77074 0.27475 0.0
C1085 C 0.00895 0.72074 0.25756 0.0
N1086 N 0.02335 0.79472 0.25492 0.0
N1087 N 0.975 0.69709 0.29271 0.0
H1088 H 0.037 0.69634 0.22889 0.0
H1089 H 0.00973 0.67829 0.24655 0.0
H1090 H 0.9575 0.69639 0.30838 0.0
H1091 H 0.98525 0.6786 0.29154 0.0
H1092 H 0.01685 0.81318 0.26553 0.0
H1093 H 0.04261 0.79579 0.24345 0.0
H1094 H 0.97454 0.81262 0.26635 0.0
H1095 H 0.94924 0.79518 0.28923 0.0
C1096 C 0.7745 0.98288 0.77126 0.0
C1097 C 0.74944 0.9713 0.78212 0.0
C1098 C 0.72459 0.00919 0.75502 0.0
C1099 C 0.74971 0.02181 0.74672 0.0
N1100 N 0.79858 0.02322 0.7518 0.0
N1101 N 0.70092 0.97478 0.78935 0.0
C1102 C 0.77471 0.00935 0.7561 0.0
C1103 C 0.72452 0.98483 0.77536 0.0
N1104 N 0.79799 0.96818 0.77417 0.0
N1105 N 0.70088 0.02008 0.74246 0.0
H1106 H 0.70018 0.957 0.80449 0.0
H1107 H 0.68249 0.98514 0.7886 0.0
H1108 H 0.70022 0.03786 0.72734 0.0
H1109 H 0.68214 0.01038 0.74435 0.0
H1110 H 0.81635 0.97422 0.76291 0.0
H1111 H 0.79877 0.94881 0.78544 0.0
H1112 H 0.81709 0.01651 0.76196 0.0
H1113 H 0.79964 0.04257 0.74052 0.0
C1114 C 0.98848 0.72276 0.75439 0.0
C1115 C 0.97514 0.74776 0.74747 0.0
C1116 C 0.0132 0.77283 0.77396 0.0
C1117 C 0.02547 0.74774 0.78352 0.0
N1118 N 0.02328 0.6989 0.78786 0.0
N1119 N 0.97229 0.79638 0.75557 0.0
C1120 C 0.01272 0.72269 0.77505 0.0
C1121 C 0.98683 0.77277 0.75851 0.0
N1122 N 0.97837 0.69918 0.74026 0.0
N1123 N 0.02715 0.79666 0.7783 0.0
H1124 H 0.95299 0.7973 0.74414 0.0
H1125 H 0.97838 0.81469 0.76701 0.0
H1126 H 0.04638 0.79771 0.78988 0.0
H1127 H 0.02065 0.81517 0.76788 0.0
H1128 H 0.98862 0.68068 0.74112 0.0
H1129 H 0.9607 0.69854 0.72491 0.0
H1130 H 0.01344 0.68021 0.78583 0.0
H1131 H 0.04087 0.69813 0.80335 0.0
C1132 C 0.22039 0.97965 0.75686 0.0
C1133 C 0.24527 0.96704 0.74721 0.0
C1134 C 0.27078 0.00411 0.77539 0.0
C1135 C 0.24597 0.01775 0.78238 0.0
N1136 N 0.19738 0.02101 0.77479 0.0
N1137 N 0.29406 0.96875 0.7422 0.0
C1138 C 0.2208 0.0062 0.77183 0.0
C1139 C 0.27048 0.97966 0.75514 0.0
N1140 N 0.19643 0.96585 0.75307 0.0
N1141 N 0.29453 0.01415 0.78905 0.0
H1142 H 0.29455 0.95099 0.72699 0.0
H1143 H 0.31282 0.97845 0.74382 0.0
H1144 H 0.29544 0.03199 0.80408 0.0
H1145 H 0.31291 0.00371 0.78815 0.0
H1146 H 0.17807 0.97266 0.76356 0.0
H1147 H 0.19514 0.94646 0.74193 0.0
H1148 H 0.17895 0.01498 0.76367 0.0
H1149 H 0.19673 0.04046 0.78588 0.0
C1150 C 0.98708 0.27111 0.77487 0.0
C1151 C 0.97353 0.24626 0.78205 0.0
C1152 C 0.01172 0.22063 0.75704 0.0
C1153 C 0.02421 0.24552 0.74719 0.0
N1154 N 0.02246 0.29432 0.74175 0.0
N1155 N 0.97048 0.19755 0.77511 0.0
C1156 C 0.01154 0.27077 0.75477 0.0
C1157 C 0.98519 0.22103 0.77189 0.0
N1158 N 0.97696 0.29492 0.78824 0.0
N1159 N 0.02562 0.1967 0.75348 0.0
H1160 H 0.95104 0.19689 0.78613 0.0
H1161 H 0.97661 0.17903 0.76431 0.0
H1162 H 0.04502 0.19548 0.74244 0.0
H1163 H 0.01887 0.17832 0.76403 0.0
H1164 H 0.98731 0.31337 0.78716 0.0
H1165 H 0.95913 0.29586 0.80323 0.0
H1166 H 0.01274 0.31309 0.74311 0.0
H1167 H 0.0403 0.29478 0.72676 0.0
C1168 C 0.76874 0.51213 0.75769 0.0
C1169 C 0.74368 0.5249 0.74947 0.0
C1170 C 0.71869 0.48645 0.77488 0.0
C1171 C 0.74373 0.47468 0.78553 0.0
N1172 N 0.79232 0.47781 0.7923 0.0
N1173 N 0.69489 0.52691 0.75531 0.0
C1174 C 0.76872 0.48794 0.77837 0.0
C1175 C 0.71864 0.5128 0.75941 0.0
N1176 N 0.79246 0.5227 0.74474 0.0
N1177 N 0.69507 0.47201 0.7782 0.0
H1178 H 0.69393 0.54619 0.74381 0.0
H1179 H 0.67641 0.52049 0.76586 0.0
H1180 H 0.69417 0.45271 0.78966 0.0
H1181 H 0.67669 0.47818 0.76709 0.0
H1182 H 0.81112 0.51284 0.74657 0.0
H1183 H 0.79318 0.54037 0.72939 0.0
H1184 H 0.81084 0.488 0.79121 0.0
H1185 H 0.79299 0.4602 0.80777 0.0
C1186 C 0.50375 0.772 0.77282 0.0
C1187 C 0.5169 0.74705 0.7806 0.0
C1188 C 0.47862 0.72175 0.75507 0.0
C1189 C 0.46657 0.74672 0.74455 0.0
N1190 N 0.4692 0.79544 0.73841 0.0
N1191 N 0.51936 0.69826 0.77416 0.0
C1192 C 0.47953 0.77184 0.75212 0.0
C1193 C 0.50501 0.72191 0.77046 0.0
N1194 N 0.51401 0.79578 0.78615 0.0
N1195 N 0.46444 0.69796 0.75169 0.0
H1196 H 0.53869 0.69741 0.78553 0.0
H1197 H 0.5131 0.67977 0.76338 0.0
H1198 H 0.44516 0.69683 0.74026 0.0
H1199 H 0.47081 0.67963 0.7628 0.0
H1200 H 0.50389 0.81433 0.78464 0.0
H1201 H 0.53166 0.79659 0.80154 0.0
H1202 H 0.47921 0.81406 0.73976 0.0
H1203 H 0.45164 0.79602 0.72284 0.0
C1204 C 0.27308 0.48893 0.75775 0.0
C1205 C 0.24799 0.47744 0.74672 0.0
C1206 C 0.22324 0.51498 0.77491 0.0
C1207 C 0.24837 0.52757 0.78338 0.0
N1208 N 0.29722 0.52906 0.77777 0.0
N1209 N 0.19947 0.48106 0.73972 0.0
C1210 C 0.27332 0.51523 0.77347 0.0
C1211 C 0.22311 0.4909 0.7539 0.0
N1212 N 0.29656 0.47426 0.75457 0.0
N1213 N 0.19957 0.52553 0.78806 0.0
H1214 H 0.19869 0.46352 0.72407 0.0
H1215 H 0.18105 0.49144 0.74078 0.0
H1216 H 0.19894 0.54299 0.80387 0.0
H1217 H 0.18086 0.51577 0.78602 0.0
H1218 H 0.31492 0.4802 0.76599 0.0
H1219 H 0.29735 0.45499 0.74298 0.0
H1220 H 0.31563 0.52252 0.76713 0.0
H1221 H 0.2984 0.54825 0.78951 0.0
C1222 C 0.48328 0.22482 0.77267 0.0
C1223 C 0.47044 0.24997 0.78034 0.0
C1224 C 0.50948 0.27477 0.75619 0.0
C1225 C 0.5213 0.24964 0.74591 0.0
N1226 N 0.51817 0.20099 0.73937 0.0
N1227 N 0.46886 0.29882 0.77459 0.0
C1228 C 0.50785 0.22469 0.75281 0.0
C1229 C 0.48288 0.27497 0.77086 0.0
N1230 N 0.47238 0.20115 0.78537 0.0
N1231 N 0.52409 0.29833 0.75326 0.0
H1232 H 0.44941 0.29988 0.78553 0.0
H1233 H 0.47557 0.3173 0.76431 0.0
H1234 H 0.54357 0.29911 0.74239 0.0
H1235 H 0.51783 0.31679 0.76413 0.0
H1236 H 0.4822 0.18243 0.78397 0.0
H1237 H 0.45443 0.20054 0.80012 0.0
H1238 H 0.50791 0.18249 0.74021 0.0
H1239 H 0.5361 0.20019 0.72458 0.0
C1240 C 0.25301 0.52429 0.28853 0.0
C1241 C 0.25111 0.52624 0.25076 0.0
C1242 C 0.25428 0.47672 0.24707 0.0
C1243 C 0.25095 0.4747 0.28462 0.0
N1244 N 0.24065 0.49773 0.34006 0.0
N1245 N 0.24288 0.50287 0.19489 0.0
C1246 C 0.24847 0.4988 0.30517 0.0
C1247 C 0.24974 0.50206 0.23015 0.0
N1248 N 0.26039 0.54629 0.3086 0.0
N1249 N 0.26298 0.45493 0.22756 0.0
H1250 H 0.23723 0.52068 0.18181 0.0
H1251 H 0.23953 0.48532 0.17988 0.0
H1252 H 0.26889 0.43657 0.23908 0.0
H1253 H 0.26768 0.45635 0.20053 0.0
H1254 H 0.26415 0.54497 0.33589 0.0
H1255 H 0.26614 0.56484 0.29755 0.0
H1256 H 0.23637 0.51514 0.35492 0.0
H1257 H 0.23532 0.47972 0.35288 0.0
C1258 C 0.50752 0.22477 0.27493 0.0
C1259 C 0.52084 0.24963 0.28283 0.0
C1260 C 0.48296 0.27522 0.2569 0.0
C1261 C 0.47074 0.25033 0.24639 0.0
N1262 N 0.47291 0.20158 0.24029 0.0
N1263 N 0.52382 0.29838 0.27638 0.0
C1264 C 0.48344 0.22511 0.25402 0.0
C1265 C 0.50926 0.27486 0.27254 0.0
N1266 N 0.51746 0.20092 0.28841 0.0
N1267 N 0.46901 0.29911 0.25324 0.0
H1268 H 0.5431 0.29905 0.28791 0.0
H1269 H 0.51778 0.31692 0.26557 0.0
H1270 H 0.44978 0.3003 0.24165 0.0
H1271 H 0.47551 0.31745 0.26421 0.0
H1272 H 0.50718 0.18246 0.28679 0.0
H1273 H 0.53498 0.19997 0.30403 0.0
H1274 H 0.48273 0.18287 0.24171 0.0
H1275 H 0.45537 0.20113 0.22467 0.0
C1276 C 0.76798 0.51239 0.27138 0.0
C1277 C 0.74285 0.52518 0.27918 0.0
C1278 C 0.71812 0.486 0.25504 0.0
C1279 C 0.74323 0.47422 0.24468 0.0
N1280 N 0.79177 0.47765 0.23771 0.0
N1281 N 0.69403 0.52663 0.27336 0.0
C1282 C 0.76811 0.48783 0.25139 0.0
C1283 C 0.71789 0.51266 0.26967 0.0
N1284 N 0.79165 0.52322 0.28421 0.0
N1285 N 0.69462 0.47129 0.25224 0.0
H1286 H 0.69293 0.54612 0.28424 0.0
H1287 H 0.67559 0.51985 0.26303 0.0
H1288 H 0.69386 0.45176 0.24141 0.0
H1289 H 0.67622 0.47752 0.26321 0.0
H1290 H 0.81034 0.51338 0.2827 0.0
H1291 H 0.7923 0.54108 0.29923 0.0
H1292 H 0.81018 0.48805 0.23841 0.0
H1293 H 0.79256 0.45974 0.2228 0.0
C1294 C 0.48441 0.76995 0.27355 0.0
C1295 C 0.47118 0.74494 0.28086 0.0
C1296 C 0.50963 0.71981 0.25559 0.0
C1297 C 0.52179 0.74485 0.2456 0.0
N1298 N 0.51909 0.79358 0.2397 0.0
N1299 N 0.46867 0.69622 0.27364 0.0
C1300 C 0.50872 0.76991 0.25312 0.0
C1301 C 0.4831 0.71988 0.27052 0.0
N1302 N 0.47424 0.79364 0.28722 0.0
N1303 N 0.52386 0.69606 0.25219 0.0
H1304 H 0.44922 0.69534 0.28456 0.0
H1305 H 0.47502 0.67781 0.26274 0.0
H1306 H 0.5433 0.69507 0.24123 0.0
H1307 H 0.51735 0.67764 0.26287 0.0
H1308 H 0.48448 0.81215 0.28607 0.0
H1309 H 0.45659 0.79441 0.30257 0.0
H1310 H 0.50899 0.81216 0.24101 0.0
H1311 H 0.53675 0.79428 0.22436 0.0
C1312 C 0.18059 0.17268 0.24204 0.0
C1313 C 0.17488 0.14448 0.23926 0.0
C1314 C 0.13826 0.14901 0.28326 0.0
C1315 C 0.14538 0.17674 0.2879 0.0
N1316 N 0.17647 0.2138 0.27719 0.0
N1317 N 0.1508 0.10475 0.25952 0.0
C1318 C 0.16735 0.1883 0.26866 0.0
C1319 C 0.15442 0.1323 0.26058 0.0
N1320 N 0.19879 0.18456 0.2193 0.0
N1321 N 0.11557 0.13895 0.29959 0.0
H1322 H 0.16147 0.09215 0.24204 0.0
H1323 H 0.13843 0.09417 0.27722 0.0
H1324 H 0.10355 0.15059 0.31667 0.0
H1325 H 0.10758 0.11974 0.29443 0.0
H1326 H 0.20137 0.20552 0.21718 0.0
H1327 H 0.20997 0.17371 0.20047 0.0
H1328 H 0.19421 0.22225 0.26694 0.0
H1329 H 0.1678 0.22569 0.29721 0.0
C1330 C 0.821 0.18448 0.2463 0.0
C1331 C 0.84713 0.17496 0.23629 0.0
C1332 C 0.84216 0.13533 0.27546 0.0
C1333 C 0.81554 0.14421 0.28417 0.0
N1334 N 0.77842 0.17581 0.27666 0.0
N1335 N 0.88207 0.14082 0.23779 0.0
C1336 C 0.80462 0.16838 0.26916 0.0
C1337 C 0.8576 0.1502 0.2499 0.0
N1338 N 0.81227 0.20944 0.23485 0.0
N1339 N 0.85264 0.11288 0.29198 0.0
H1340 H 0.89384 0.15151 0.2194 0.0
H1341 H 0.89006 0.12183 0.24403 0.0
H1342 H 0.84151 0.10118 0.30998 0.0
H1343 H 0.87272 0.10655 0.28958 0.0
H1344 H 0.79515 0.21929 0.24471 0.0
H1345 H 0.82299 0.22129 0.2166 0.0
H1346 H 0.76789 0.19092 0.26303 0.0
H1347 H 0.76649 0.16603 0.2957 0.0
C1348 C 0.82601 0.80496 0.27455 0.0
C1349 C 0.84997 0.81645 0.2893 0.0
C1350 C 0.84154 0.859 0.2571 0.0
C1351 C 0.81892 0.84659 0.24018 0.0
N1352 N 0.79172 0.80677 0.22829 0.0
N1353 N 0.88258 0.8529 0.2923 0.0
C1354 C 0.81181 0.81924 0.24755 0.0
C1355 C 0.8583 0.84314 0.28004 0.0
N1356 N 0.81618 0.78085 0.28747 0.0
N1357 N 0.84656 0.88604 0.25177 0.0
H1358 H 0.89504 0.8419 0.30956 0.0
H1359 H 0.89124 0.87104 0.28364 0.0
H1360 H 0.83512 0.89792 0.23429 0.0
H1361 H 0.86089 0.89708 0.26617 0.0
H1362 H 0.79729 0.77289 0.28056 0.0
H1363 H 0.82569 0.7699 0.30775 0.0
H1364 H 0.78772 0.786 0.22956 0.0
H1365 H 0.78042 0.8167 0.2087 0.0
C1366 C 0.1491 0.85865 0.27936 0.0
C1367 C 0.17443 0.84832 0.29127 0.0
C1368 C 0.16843 0.80721 0.2551 0.0
C1369 C 0.14356 0.81798 0.24205 0.0
N1370 N 0.11088 0.85424 0.23844 0.0
N1371 N 0.20969 0.81426 0.28927 0.0
C1372 C 0.13406 0.84385 0.25322 0.0
C1373 C 0.18446 0.82295 0.27887 0.0
N1374 N 0.13942 0.88239 0.2935 0.0
N1375 N 0.17647 0.78165 0.24509 0.0
H1376 H 0.2213 0.82419 0.30858 0.0
H1377 H 0.21989 0.79793 0.27781 0.0
H1378 H 0.16658 0.77032 0.22548 0.0
H1379 H 0.19226 0.77098 0.2571 0.0
H1380 H 0.12017 0.89019 0.28844 0.0
H1381 H 0.15025 0.89373 0.31225 0.0
H1382 H 0.10378 0.87386 0.24291 0.0
H1383 H 0.09929 0.84356 0.21979 0.0
C1384 C 0.82862 0.8047 0.76041 0.0
C1385 C 0.85084 0.817 0.74246 0.0
C1386 C 0.83959 0.86102 0.76949 0.0
C1387 C 0.81895 0.8481 0.78973 0.0
N1388 N 0.79578 0.80719 0.80828 0.0
N1389 N 0.87977 0.85575 0.73248 0.0
C1390 C 0.81418 0.81976 0.78648 0.0
C1391 C 0.85694 0.84492 0.74758 0.0
N1392 N 0.82038 0.77905 0.7511 0.0
N1393 N 0.84231 0.88867 0.77089 0.0
H1394 H 0.8927 0.84452 0.71608 0.0
H1395 H 0.88697 0.87519 0.7381 0.0
H1396 H 0.8307 0.90086 0.78781 0.0
H1397 H 0.85487 0.8997 0.75391 0.0
H1398 H 0.80256 0.7701 0.76036 0.0
H1399 H 0.82987 0.76752 0.73137 0.0
H1400 H 0.79387 0.78615 0.81018 0.0
H1401 H 0.78372 0.8176 0.8266 0.0
C1402 C 0.14718 0.83769 0.72896 0.0
C1403 C 0.16607 0.85739 0.74157 0.0
C1404 C 0.15475 0.84519 0.80308 0.0
C1405 C 0.13503 0.82631 0.79047 0.0
N1406 N 0.10513 0.81434 0.74179 0.0
N1407 N 0.17814 0.88726 0.79028 0.0
C1408 C 0.12873 0.8259 0.75351 0.0
C1409 C 0.16654 0.86366 0.77854 0.0
N1410 N 0.14778 0.82845 0.69462 0.0
N1411 N 0.16399 0.84456 0.83741 0.0
H1412 H 0.18561 0.90197 0.77283 0.0
H1413 H 0.17716 0.89354 0.8168 0.0
H1414 H 0.1578 0.83044 0.85632 0.0
H1415 H 0.18025 0.85647 0.84606 0.0
H1416 H 0.13585 0.8122 0.68599 0.0
H1417 H 0.1619 0.83462 0.67572 0.0
H1418 H 0.09882 0.81538 0.71528 0.0
H1419 H 0.09043 0.80686 0.75925 0.0
C1420 C 0.17021 0.18599 0.75925 0.0
C1421 C 0.1477 0.17482 0.74066 0.0
C1422 C 0.15626 0.13029 0.7679 0.0
C1423 C 0.1772 0.14215 0.78877 0.0
N1424 N 0.20235 0.18178 0.80781 0.0
N1425 N 0.11711 0.13755 0.72951 0.0
C1426 C 0.18355 0.1702 0.78559 0.0
C1427 C 0.14014 0.14723 0.74546 0.0
N1428 N 0.17966 0.21129 0.75043 0.0
N1429 N 0.15211 0.10282 0.76919 0.0
H1430 H 0.10517 0.14935 0.71252 0.0
H1431 H 0.10881 0.11851 0.73484 0.0
H1432 H 0.16284 0.09008 0.78641 0.0
H1433 H 0.13926 0.09241 0.75186 0.0
H1434 H 0.19772 0.21944 0.76017 0.0
H1435 H 0.17084 0.22331 0.73067 0.0
H1436 H 0.20546 0.20268 0.80973 0.0
H1437 H 0.21361 0.17077 0.82641 0.0
C1438 C 0.82685 0.18923 0.7674 0.0
C1439 C 0.8496 0.1778 0.78517 0.0
C1440 C 0.84121 0.13391 0.75606 0.0
C1441 C 0.81986 0.14604 0.73621 0.0
N1442 N 0.79418 0.18585 0.71932 0.0
N1443 N 0.88074 0.14064 0.79396 0.0
C1444 C 0.81335 0.17395 0.74064 0.0
C1445 C 0.85741 0.15046 0.77892 0.0
N1446 N 0.81733 0.21426 0.77743 0.0
N1447 N 0.84564 0.10654 0.75343 0.0
H1448 H 0.89274 0.15214 0.81125 0.0
H1449 H 0.88918 0.12186 0.78756 0.0
H1450 H 0.83494 0.09413 0.73574 0.0
H1451 H 0.85878 0.09585 0.77006 0.0
H1452 H 0.79914 0.22252 0.76832 0.0
H1453 H 0.82627 0.22588 0.79754 0.0
H1454 H 0.79085 0.20675 0.71835 0.0
H1455 H 0.78282 0.17517 0.70047 0.0
C1456 C 0.6782 0.67518 0.74274 0.0
C1457 C 0.67232 0.64721 0.73766 0.0
C1458 C 0.63398 0.65049 0.77929 0.0
C1459 C 0.64117 0.67792 0.78623 0.0
N1460 N 0.6731 0.71489 0.78034 0.0
N1461 N 0.64706 0.60704 0.75353 0.0
C1462 C 0.66406 0.6899 0.76943 0.0
C1463 C 0.65089 0.63448 0.75668 0.0
N1464 N 0.69737 0.6877 0.72205 0.0
N1465 N 0.61062 0.64009 0.79346 0.0
H1466 H 0.65834 0.595 0.73605 0.0
H1467 H 0.63384 0.59596 0.76957 0.0
H1468 H 0.59813 0.65121 0.81058 0.0
H1469 H 0.60265 0.6212 0.78653 0.0
H1470 H 0.70029 0.70867 0.72159 0.0
H1471 H 0.70905 0.67745 0.70316 0.0
H1472 H 0.6913 0.72352 0.7719 0.0
H1473 H 0.66378 0.72602 0.80059 0.0
C1474 C 0.34444 0.6586 0.80257 0.0
C1475 C 0.32599 0.63831 0.79045 0.0
C1476 C 0.33749 0.64953 0.72867 0.0
C1477 C 0.35695 0.66884 0.74083 0.0
N1478 N 0.38621 0.68237 0.7895 0.0
N1479 N 0.31455 0.60743 0.74256 0.0
C1480 C 0.36291 0.67018 0.77785 0.0
C1481 C 0.32578 0.63137 0.75368 0.0
N1482 N 0.34338 0.66854 0.83655 0.0
N1483 N 0.3284 0.64945 0.69426 0.0
H1484 H 0.30717 0.59292 0.76037 0.0
H1485 H 0.31577 0.60069 0.71625 0.0
H1486 H 0.33445 0.66338 0.67503 0.0
H1487 H 0.31233 0.63719 0.68584 0.0
H1488 H 0.35498 0.68515 0.84479 0.0
H1489 H 0.32912 0.66258 0.85539 0.0
H1490 H 0.39228 0.68201 0.81613 0.0
H1491 H 0.40095 0.68972 0.77201 0.0
C1492 C 0.36015 0.34207 0.77068 0.0
C1493 C 0.34727 0.32133 0.79083 0.0
C1494 C 0.30392 0.33096 0.7614 0.0
C1495 C 0.31625 0.3531 0.74328 0.0
N1496 N 0.35488 0.38222 0.73355 0.0
N1497 N 0.30639 0.2981 0.80929 0.0
C1498 C 0.34409 0.35934 0.74862 0.0
C1499 C 0.31895 0.31656 0.78755 0.0
N1500 N 0.38775 0.34494 0.77229 0.0
N1501 N 0.27829 0.32271 0.75213 0.0
H1502 H 0.31678 0.28599 0.82757 0.0
H1503 H 0.28538 0.29617 0.81118 0.0
H1504 H 0.26675 0.33218 0.7324 0.0
H1505 H 0.26933 0.3049 0.76145 0.0
H1506 H 0.39879 0.35751 0.75532 0.0
H1507 H 0.39991 0.33349 0.78944 0.0
H1508 H 0.37424 0.38952 0.7393 0.0
H1509 H 0.34367 0.3951 0.71706 0.0
C1510 C 0.63178 0.33938 0.76109 0.0
C1511 C 0.6445 0.31949 0.73932 0.0
C1512 C 0.68826 0.32854 0.76806 0.0
C1513 C 0.67606 0.34994 0.7878 0.0
N1514 N 0.63735 0.37832 0.80037 0.0
N1515 N 0.68524 0.29728 0.71834 0.0
C1516 C 0.64807 0.35606 0.78367 0.0
C1517 C 0.6729 0.31487 0.74153 0.0
N1518 N 0.60413 0.342 0.76048 0.0
N1519 N 0.71411 0.32026 0.77609 0.0
H1520 H 0.67465 0.28571 0.69963 0.0
H1521 H 0.70623 0.2956 0.71575 0.0
H1522 H 0.72591 0.32921 0.796 0.0
H1523 H 0.72306 0.30286 0.76548 0.0
H1524 H 0.59329 0.35387 0.77851 0.0
H1525 H 0.59178 0.33097 0.74306 0.0
H1526 H 0.61783 0.38561 0.7956 0.0
H1527 H 0.64872 0.39077 0.81727 0.0
C1528 C 0.32512 0.3072 0.26021 0.0
C1529 C 0.34637 0.31935 0.2402 0.0
C1530 C 0.33578 0.36378 0.26651 0.0
C1531 C 0.31633 0.35105 0.28886 0.0
N1532 N 0.2945 0.31031 0.31051 0.0
N1533 N 0.37432 0.35821 0.22672 0.0
C1534 C 0.31171 0.32262 0.28687 0.0
C1535 C 0.35232 0.34744 0.24386 0.0
N1536 N 0.31681 0.28128 0.25243 0.0
N1537 N 0.33814 0.39148 0.26665 0.0
H1538 H 0.38666 0.34682 0.20975 0.0
H1539 H 0.38152 0.37783 0.23117 0.0
H1540 H 0.32711 0.40391 0.28394 0.0
H1541 H 0.34972 0.40228 0.24826 0.0
H1542 H 0.29956 0.27233 0.26335 0.0
H1543 H 0.32556 0.26948 0.23237 0.0
H1544 H 0.29284 0.2893 0.31318 0.0
H1545 H 0.28325 0.32098 0.32947 0.0
C1546 C 0.63839 0.34536 0.28424 0.0
C1547 C 0.64489 0.31741 0.28808 0.0
C1548 C 0.67999 0.32132 0.24209 0.0
C1549 C 0.67488 0.34968 0.24005 0.0
N1550 N 0.65184 0.38966 0.26159 0.0
N1551 N 0.67515 0.27984 0.27621 0.0
C1552 C 0.65484 0.36202 0.2619 0.0
C1553 C 0.66652 0.30563 0.26839 0.0
N1554 N 0.61597 0.35569 0.30094 0.0
N1555 N 0.69782 0.30935 0.21891 0.0
H1556 H 0.66631 0.2678 0.29592 0.0
H1557 H 0.6927 0.2712 0.26565 0.0
H1558 H 0.70928 0.32021 0.2004 0.0
H1559 H 0.69985 0.28837 0.21615 0.0
H1560 H 0.60842 0.37515 0.29635 0.0
H1561 H 0.60367 0.34406 0.31767 0.0
H1562 H 0.6398 0.40025 0.27968 0.0
H1563 H 0.66272 0.40227 0.24439 0.0
C1564 C 0.64849 0.65846 0.30078 0.0
C1565 C 0.66688 0.63843 0.28782 0.0
C1566 C 0.65434 0.65042 0.2266 0.0
C1567 C 0.63481 0.66933 0.2396 0.0
N1568 N 0.60595 0.68133 0.28935 0.0
N1569 N 0.67716 0.608 0.23896 0.0
C1570 C 0.62939 0.66998 0.27681 0.0
C1571 C 0.66639 0.63192 0.25091 0.0
N1572 N 0.65007 0.66819 0.33483 0.0
N1573 N 0.66314 0.65096 0.19209 0.0
H1574 H 0.68447 0.59308 0.25624 0.0
H1575 H 0.6755 0.60169 0.21249 0.0
H1576 H 0.65703 0.66528 0.1734 0.0
H1577 H 0.67915 0.63885 0.18316 0.0
H1578 H 0.63835 0.68454 0.34361 0.0
H1579 H 0.66486 0.66243 0.3531 0.0
H1580 H 0.60041 0.6805 0.31615 0.0
H1581 H 0.59062 0.68828 0.27243 0.0
C1582 C 0.34187 0.65951 0.22853 0.0
C1583 C 0.32279 0.64038 0.24206 0.0
C1584 C 0.33486 0.65399 0.30285 0.0
C1585 C 0.35543 0.67155 0.28935 0.0
N1586 N 0.385 0.68138 0.23951 0.0
N1587 N 0.31034 0.61222 0.29229 0.0
C1588 C 0.36113 0.6711 0.25223 0.0
C1589 C 0.32233 0.63521 0.2793 0.0
N1590 N 0.34079 0.66834 0.19406 0.0
N1591 N 0.32565 0.65615 0.33706 0.0
H1592 H 0.30276 0.59698 0.27567 0.0
H1593 H 0.31124 0.60683 0.31914 0.0
H1594 H 0.33208 0.67097 0.35494 0.0
H1595 H 0.30903 0.64505 0.34632 0.0
H1596 H 0.35311 0.68402 0.18464 0.0
H1597 H 0.32573 0.66269 0.17605 0.0
H1598 H 0.39067 0.67967 0.21283 0.0
H1599 H 0.40044 0.68833 0.25627 0.0
loop_
_geom_bond_atom_site_label_1
_geom_bond_atom_site_label_2
_geom_bond_distance
_geom_bond_site_symmetry_2
_ccdc_geom_bond_type
O0 Cd1 2.223 . S
O0 C8 1.315 . S
Cd1 O0 2.223 . S
Cd1 O4 2.297 . S
Cd1 O5 2.439 . S
Cd1 O11 2.240 . S
Cd2 O3 2.240 . S
Cd2 O10 2.223 . S
Cd2 O12 2.297 . S
Cd2 O13 2.439 . S
O3 Cd2 2.240 . S
O3 C8 1.279 . S
O4 Cd1 2.297 . S
O4 C6 1.247 . S
O5 Cd1 2.439 . S
O5 C6 1.208 . S
C6 O4 1.247 . S
C6 O5 1.208 . S
C7 O12 1.247 . S
C7 O13 1.208 . S
C8 O0 1.315 . S
C8 O3 1.279 . S
C9 O10 1.315 . S
C9 O11 1.279 . S
O10 Cd2 2.223 . S
O10 C9 1.315 . S
O11 Cd1 2.240 . S
O11 C9 1.279 . S
O12 Cd2 2.297 . S
O12 C7 1.247 . S
O13 Cd2 2.439 . S
O13 C7 1.208 . S
O14 Cd15 2.223 . S
O14 C22 1.315 . S
Cd15 O14 2.223 . S
Cd15 O18 2.297 . S
Cd15 O19 2.439 . S
Cd15 O25 2.240 . S
Cd16 O17 2.240 . S
Cd16 O24 2.223 . S
Cd16 O26 2.297 . S
Cd16 O27 2.439 . S
O17 Cd16 2.240 . S
O17 C22 1.279 . S
O18 Cd15 2.297 . S
O18 C20 1.247 . S
O19 Cd15 2.439 . S
O19 C20 1.208 . S
C20 O18 1.247 . S
C20 O19 1.208 . S
C21 O26 1.247 . S
C21 O27 1.208 . S
C22 O14 1.315 . S
C22 O17 1.279 . S
C23 O24 1.315 . S
C23 O25 1.279 . S
O24 Cd16 2.223 . S
O24 C23 1.315 . S
O25 Cd15 2.240 . S
O25 C23 1.279 . S
O26 Cd16 2.297 . S
O26 C21 1.247 . S
O27 Cd16 2.439 . S
O27 C21 1.208 . S
O28 Cd29 2.223 . S
O28 C36 1.315 . S
Cd29 O28 2.223 . S
Cd29 O32 2.297 . S
Cd29 O33 2.439 . S
Cd29 O39 2.240 . S
Cd30 O31 2.240 . S
Cd30 O38 2.223 . S
Cd30 O40 2.297 . S
Cd30 O41 2.439 . S
O31 Cd30 2.240 . S
O31 C36 1.279 . S
O32 Cd29 2.297 . S
O32 C34 1.247 . S
O33 Cd29 2.439 . S
O33 C34 1.208 . S
C34 O32 1.247 . S
C34 O33 1.208 . S
C35 O40 1.247 . S
C35 O41 1.208 . S
C36 O28 1.315 . S
C36 O31 1.279 . S
C37 O38 1.315 . S
C37 O39 1.279 . S
O38 Cd30 2.223 . S
O38 C37 1.315 . S
O39 Cd29 2.240 . S
O39 C37 1.279 . S
O40 Cd30 2.297 . S
O40 C35 1.247 . S
O41 Cd30 2.439 . S
O41 C35 1.208 . S
O42 Cd43 2.223 . S
O42 C50 1.315 . S
Cd43 O42 2.223 . S
Cd43 O46 2.297 . S
Cd43 O47 2.439 . S
Cd43 O53 2.240 . S
Cd44 O45 2.240 . S
Cd44 O52 2.223 . S
Cd44 O54 2.297 . S
Cd44 O55 2.439 . S
O45 Cd44 2.240 . S
O45 C50 1.279 . S
O46 Cd43 2.297 . S
O46 C48 1.247 . S
O47 Cd43 2.439 . S
O47 C48 1.208 . S
C48 O46 1.247 . S
C48 O47 1.208 . S
C49 O54 1.247 . S
C49 O55 1.208 . S
C50 O42 1.315 . S
C50 O45 1.279 . S
C51 O52 1.315 . S
C51 O53 1.279 . S
O52 Cd44 2.223 . S
O52 C51 1.315 . S
O53 Cd43 2.240 . S
O53 C51 1.279 . S
O54 Cd44 2.297 . S
O54 C49 1.247 . S
O55 Cd44 2.439 . S
O55 C49 1.208 . S
O56 Cd57 2.223 . S
O56 C64 1.315 . S
Cd57 O56 2.223 . S
Cd57 O60 2.297 . S
Cd57 O61 2.439 . S
Cd57 O67 2.240 . S
Cd58 O59 2.240 . S
Cd58 O66 2.223 . S
Cd58 O68 2.297 . S
Cd58 O69 2.439 . S
O59 Cd58 2.240 . S
O59 C64 1.279 . S
O60 Cd57 2.297 . S
O60 C62 1.247 . S
O61 Cd57 2.439 . S
O61 C62 1.208 . S
C62 O60 1.247 . S
C62 O61 1.208 . S
C63 O68 1.247 . S
C63 O69 1.208 . S
C64 O56 1.315 . S
C64 O59 1.279 . S
C65 O66 1.315 . S
C65 O67 1.279 . S
O66 Cd58 2.223 . S
O66 C65 1.315 . S
O67 Cd57 2.240 . S
O67 C65 1.279 . S
O68 Cd58 2.297 . S
O68 C63 1.247 . S
O69 Cd58 2.439 . S
O69 C63 1.208 . S
O70 Cd71 2.223 . S
O70 C78 1.315 . S
Cd71 O70 2.223 . S
Cd71 O74 2.297 . S
Cd71 O75 2.439 . S
Cd71 O81 2.240 . S
Cd72 O73 2.240 . S
Cd72 O80 2.223 . S
Cd72 O82 2.297 . S
Cd72 O83 2.439 . S
O73 Cd72 2.240 . S
O73 C78 1.279 . S
O74 Cd71 2.297 . S
O74 C76 1.247 . S
O75 Cd71 2.439 . S
O75 C76 1.208 . S
C76 O74 1.247 . S
C76 O75 1.208 . S
C77 O82 1.247 . S
C77 O83 1.208 . S
C78 O70 1.315 . S
C78 O73 1.279 . S
C79 O80 1.315 . S
C79 O81 1.279 . S
O80 Cd72 2.223 . S
O80 C79 1.315 . S
O81 Cd71 2.240 . S
O81 C79 1.279 . S
O82 Cd72 2.297 . S
O82 C77 1.247 . S
O83 Cd72 2.439 . S
O83 C77 1.208 . S
O84 Cd85 2.223 . S
O84 C92 1.315 . S
Cd85 O84 2.223 . S
Cd85 O88 2.297 . S
Cd85 O89 2.439 . S
Cd85 O95 2.240 . S
Cd86 O87 2.240 . S
Cd86 O94 2.223 . S
Cd86 O96 2.297 . S
Cd86 O97 2.439 . S
O87 Cd86 2.240 . S
O87 C92 1.279 . S
O88 Cd85 2.297 . S
O88 C90 1.247 . S
O89 Cd85 2.439 . S
O89 C90 1.208 . S
C90 O88 1.247 . S
C90 O89 1.208 . S
C91 O96 1.247 . S
C91 O97 1.208 . S
C92 O84 1.315 . S
C92 O87 1.279 . S
C93 O94 1.315 . S
C93 O95 1.279 . S
O94 Cd86 2.223 . S
O94 C93 1.315 . S
O95 Cd85 2.240 . S
O95 C93 1.279 . S
O96 Cd86 2.297 . S
O96 C91 1.247 . S
O97 Cd86 2.439 . S
O97 C91 1.208 . S
O98 Cd99 2.223 . S
O98 C106 1.315 . S
Cd99 O98 2.223 . S
Cd99 O102 2.297 . S
Cd99 O103 2.439 . S
Cd99 O109 2.240 . S
Cd100 O101 2.240 . S
Cd100 O108 2.223 . S
Cd100 O110 2.297 . S
Cd100 O111 2.439 . S
O101 Cd100 2.240 . S
O101 C106 1.279 . S
O102 Cd99 2.297 . S
O102 C104 1.247 . S
O103 Cd99 2.439 . S
O103 C104 1.208 . S
C104 O102 1.247 . S
C104 O103 1.208 . S
C105 O110 1.247 . S
C105 O111 1.208 . S
C106 O98 1.315 . S
C106 O101 1.279 . S
C107 O108 1.315 . S
C107 O109 1.279 . S
O108 Cd100 2.223 . S
O108 C107 1.315 . S
O109 Cd99 2.240 . S
O109 C107 1.279 . S
O110 Cd100 2.297 . S
O110 C105 1.247 . S
O111 Cd100 2.439 . S
O111 C105 1.208 . S
O112 Cd113 2.223 . S
O112 C120 1.315 . S
Cd113 O112 2.223 . S
Cd113 O116 2.297 . S
Cd113 O117 2.439 . S
Cd113 O123 2.240 . S
Cd114 O115 2.240 . S
Cd114 O122 2.223 . S
Cd114 O124 2.297 . S
Cd114 O125 2.439 . S
O115 Cd114 2.240 . S
O115 C120 1.279 . S
O116 Cd113 2.297 . S
O116 C118 1.247 . S
O117 Cd113 2.439 . S
O117 C118 1.208 . S
C118 O116 1.247 . S
C118 O117 1.208 . S
C119 O124 1.247 . S
C119 O125 1.208 . S
C120 O112 1.315 . S
C120 O115 1.279 . S
C121 O122 1.315 . S
C121 O123 1.279 . S
O122 Cd114 2.223 . S
O122 C121 1.315 . S
O123 Cd113 2.240 . S
O123 C121 1.279 . S
O124 Cd114 2.297 . S
O124 C119 1.247 . S
O125 Cd114 2.439 . S
O125 C119 1.208 . S
O126 Cd127 2.223 . S
O126 C134 1.315 . S
Cd127 O126 2.223 . S
Cd127 O130 2.297 . S
Cd127 O131 2.439 . S
Cd127 O137 2.240 . S
Cd128 O129 2.240 . S
Cd128 O136 2.223 . S
Cd128 O138 2.297 . S
Cd128 O139 2.439 . S
O129 Cd128 2.240 . S
O129 C134 1.279 . S
O130 Cd127 2.297 . S
O130 C132 1.247 . S
O131 Cd127 2.439 . S
O131 C132 1.208 . S
C132 O130 1.247 . S
C132 O131 1.208 . S
C133 O138 1.247 . S
C133 O139 1.208 . S
C134 O126 1.315 . S
C134 O129 1.279 . S
C135 O136 1.315 . S
C135 O137 1.279 . S
O136 Cd128 2.223 . S
O136 C135 1.315 . S
O137 Cd127 2.240 . S
O137 C135 1.279 . S
O138 Cd128 2.297 . S
O138 C133 1.247 . S
O139 Cd128 2.439 . S
O139 C133 1.208 . S
O140 Cd141 2.223 . S
O140 C148 1.315 . S
Cd141 O140 2.223 . S
Cd141 O144 2.297 . S
Cd141 O145 2.439 . S
Cd141 O151 2.240 . S
Cd142 O143 2.240 . S
Cd142 O150 2.223 . S
Cd142 O152 2.297 . S
Cd142 O153 2.439 . S
O143 Cd142 2.240 . S
O143 C148 1.279 . S
O144 Cd141 2.297 . S
O144 C146 1.247 . S
O145 Cd141 2.439 . S
O145 C146 1.208 . S
C146 O144 1.247 . S
C146 O145 1.208 . S
C147 O152 1.247 . S
C147 O153 1.208 . S
C148 O140 1.315 . S
C148 O143 1.279 . S
C149 O150 1.315 . S
C149 O151 1.279 . S
O150 Cd142 2.223 . S
O150 C149 1.315 . S
O151 Cd141 2.240 . S
O151 C149 1.279 . S
O152 Cd142 2.297 . S
O152 C147 1.247 . S
O153 Cd142 2.439 . S
O153 C147 1.208 . S
O154 Cd155 2.223 . S
O154 C162 1.315 . S
Cd155 O154 2.223 . S
Cd155 O158 2.297 . S
Cd155 O159 2.439 . S
Cd155 O165 2.240 . S
Cd156 O157 2.240 . S
Cd156 O164 2.223 . S
Cd156 O166 2.297 . S
Cd156 O167 2.439 . S
O157 Cd156 2.240 . S
O157 C162 1.279 . S
O158 Cd155 2.297 . S
O158 C160 1.247 . S
O159 Cd155 2.439 . S
O159 C160 1.208 . S
C160 O158 1.247 . S
C160 O159 1.208 . S
C161 O166 1.247 . S
C161 O167 1.208 . S
C162 O154 1.315 . S
C162 O157 1.279 . S
C163 O164 1.315 . S
C163 O165 1.279 . S
O164 Cd156 2.223 . S
O164 C163 1.315 . S
O165 Cd155 2.240 . S
O165 C163 1.279 . S
O166 Cd156 2.297 . S
O166 C161 1.247 . S
O167 Cd156 2.439 . S
O167 C161 1.208 . S
O168 Cd169 2.223 . S
O168 C176 1.315 . S
Cd169 O168 2.223 . S
Cd169 O172 2.297 . S
Cd169 O173 2.439 . S
Cd169 O179 2.240 . S
Cd170 O171 2.240 . S
Cd170 O178 2.223 . S
Cd170 O180 2.297 . S
Cd170 O181 2.439 . S
O171 Cd170 2.240 . S
O171 C176 1.279 . S
O172 Cd169 2.297 . S
O172 C174 1.247 . S
O173 Cd169 2.439 . S
O173 C174 1.208 . S
C174 O172 1.247 . S
C174 O173 1.208 . S
C175 O180 1.247 . S
C175 O181 1.208 . S
C176 O168 1.315 . S
C176 O171 1.279 . S
C177 O178 1.315 . S
C177 O179 1.279 . S
O178 Cd170 2.223 . S
O178 C177 1.315 . S
O179 Cd169 2.240 . S
O179 C177 1.279 . S
O180 Cd170 2.297 . S
O180 C175 1.247 . S
O181 Cd170 2.439 . S
O181 C175 1.208 . S
O182 Cd183 2.223 . S
O182 C190 1.315 . S
Cd183 O182 2.223 . S
Cd183 O186 2.297 . S
Cd183 O187 2.439 . S
Cd183 O193 2.240 . S
Cd184 O185 2.240 . S
Cd184 O192 2.223 . S
Cd184 O194 2.297 . S
Cd184 O195 2.439 . S
O185 Cd184 2.240 . S
O185 C190 1.279 . S
O186 Cd183 2.297 . S
O186 C188 1.247 . S
O187 Cd183 2.439 . S
O187 C188 1.208 . S
C188 O186 1.247 . S
C188 O187 1.208 . S
C189 O194 1.247 . S
C189 O195 1.208 . S
C190 O182 1.315 . S
C190 O185 1.279 . S
C191 O192 1.315 . S
C191 O193 1.279 . S
O192 Cd184 2.223 . S
O192 C191 1.315 . S
O193 Cd183 2.240 . S
O193 C191 1.279 . S
O194 Cd184 2.297 . S
O194 C189 1.247 . S
O195 Cd184 2.439 . S
O195 C189 1.208 . S
O196 Cd197 2.223 . S
O196 C204 1.315 . S
Cd197 O196 2.223 . S
Cd197 O200 2.297 . S
Cd197 O201 2.439 . S
Cd197 O207 2.240 . S
Cd198 O199 2.240 . S
Cd198 O206 2.223 . S
Cd198 O208 2.297 . S
Cd198 O209 2.439 . S
O199 Cd198 2.240 . S
O199 C204 1.279 . S
O200 Cd197 2.297 . S
O200 C202 1.247 . S
O201 Cd197 2.439 . S
O201 C202 1.208 . S
C202 O200 1.247 . S
C202 O201 1.208 . S
C203 O208 1.247 . S
C203 O209 1.208 . S
C204 O196 1.315 . S
C204 O199 1.279 . S
C205 O206 1.315 . S
C205 O207 1.279 . S
O206 Cd198 2.223 . S
O206 C205 1.315 . S
O207 Cd197 2.240 . S
O207 C205 1.279 . S
O208 Cd198 2.297 . S
O208 C203 1.247 . S
O209 Cd198 2.439 . S
O209 C203 1.208 . S
O210 Cd211 2.223 . S
O210 C218 1.315 . S
Cd211 O210 2.223 . S
Cd211 O214 2.297 . S
Cd211 O215 2.439 . S
Cd211 O221 2.240 . S
Cd212 O213 2.240 . S
Cd212 O220 2.223 . S
Cd212 O222 2.297 . S
Cd212 O223 2.439 . S
O213 Cd212 2.240 . S
O213 C218 1.279 . S
O214 Cd211 2.297 . S
O214 C216 1.247 . S
O215 Cd211 2.439 . S
O215 C216 1.208 . S
C216 O214 1.247 . S
C216 O215 1.208 . S
C217 O222 1.247 . S
C217 O223 1.208 . S
C218 O210 1.315 . S
C218 O213 1.279 . S
C219 O220 1.315 . S
C219 O221 1.279 . S
O220 Cd212 2.223 . S
O220 C219 1.315 . S
O221 Cd211 2.240 . S
O221 C219 1.279 . S
O222 Cd212 2.297 . S
O222 C217 1.247 . S
O223 Cd212 2.439 . S
O223 C217 1.208 . S
O224 Cd225 2.223 . S
O224 C232 1.315 . S
Cd225 O224 2.223 . S
Cd225 O228 2.297 . S
Cd225 O229 2.439 . S
Cd225 O235 2.240 . S
Cd226 O227 2.240 . S
Cd226 O234 2.223 . S
Cd226 O236 2.297 . S
Cd226 O237 2.439 . S
O227 Cd226 2.240 . S
O227 C232 1.279 . S
O228 Cd225 2.297 . S
O228 C230 1.247 . S
O229 Cd225 2.439 . S
O229 C230 1.208 . S
C230 O228 1.247 . S
C230 O229 1.208 . S
C231 O236 1.247 . S
C231 O237 1.208 . S
C232 O224 1.315 . S
C232 O227 1.279 . S
C233 O234 1.315 . S
C233 O235 1.279 . S
O234 Cd226 2.223 . S
O234 C233 1.315 . S
O235 Cd225 2.240 . S
O235 C233 1.279 . S
O236 Cd226 2.297 . S
O236 C231 1.247 . S
O237 Cd226 2.439 . S
O237 C231 1.208 . S
O238 Cd239 2.223 . S
O238 C246 1.315 . S
Cd239 O238 2.223 . S
Cd239 O242 2.297 . S
Cd239 O243 2.439 . S
Cd239 O249 2.240 . S
Cd240 O241 2.240 . S
Cd240 O248 2.223 . S
Cd240 O250 2.297 . S
Cd240 O251 2.439 . S
O241 Cd240 2.240 . S
O241 C246 1.279 . S
O242 Cd239 2.297 . S
O242 C244 1.247 . S
O243 Cd239 2.439 . S
O243 C244 1.208 . S
C244 O242 1.247 . S
C244 O243 1.208 . S
C245 O250 1.247 . S
C245 O251 1.208 . S
C246 O238 1.315 . S
C246 O241 1.279 . S
C247 O248 1.315 . S
C247 O249 1.279 . S
O248 Cd240 2.223 . S
O248 C247 1.315 . S
O249 Cd239 2.240 . S
O249 C247 1.279 . S
O250 Cd240 2.297 . S
O250 C245 1.247 . S
O251 Cd240 2.439 . S
O251 C245 1.208 . S
O252 Cd253 2.223 . S
O252 C260 1.315 . S
Cd253 O252 2.223 . S
Cd253 O256 2.297 . S
Cd253 O257 2.439 . S
Cd253 O263 2.240 . S
Cd254 O255 2.240 . S
Cd254 O262 2.223 . S
Cd254 O264 2.297 . S
Cd254 O265 2.439 . S
O255 Cd254 2.240 . S
O255 C260 1.279 . S
O256 Cd253 2.297 . S
O256 C258 1.247 . S
O257 Cd253 2.439 . S
O257 C258 1.208 . S
C258 O256 1.247 . S
C258 O257 1.208 . S
C259 O264 1.247 . S
C259 O265 1.208 . S
C260 O252 1.315 . S
C260 O255 1.279 . S
C261 O262 1.315 . S
C261 O263 1.279 . S
O262 Cd254 2.223 . S
O262 C261 1.315 . S
O263 Cd253 2.240 . S
O263 C261 1.279 . S
O264 Cd254 2.297 . S
O264 C259 1.247 . S
O265 Cd254 2.439 . S
O265 C259 1.208 . S
O266 Cd267 2.223 . S
O266 C274 1.315 . S
Cd267 O266 2.223 . S
Cd267 O270 2.297 . S
Cd267 O271 2.439 . S
Cd267 O277 2.240 . S
Cd268 O269 2.240 . S
Cd268 O276 2.223 . S
Cd268 O278 2.297 . S
Cd268 O279 2.439 . S
O269 Cd268 2.240 . S
O269 C274 1.279 . S
O270 Cd267 2.297 . S
O270 C272 1.247 . S
O271 Cd267 2.439 . S
O271 C272 1.208 . S
C272 O270 1.247 . S
C272 O271 1.208 . S
C273 O278 1.247 . S
C273 O279 1.208 . S
C274 O266 1.315 . S
C274 O269 1.279 . S
C275 O276 1.315 . S
C275 O277 1.279 . S
O276 Cd268 2.223 . S
O276 C275 1.315 . S
O277 Cd267 2.240 . S
O277 C275 1.279 . S
O278 Cd268 2.297 . S
O278 C273 1.247 . S
O279 Cd268 2.439 . S
O279 C273 1.208 . S
O280 Cd281 2.223 . S
O280 C288 1.315 . S
Cd281 O280 2.223 . S
Cd281 O284 2.297 . S
Cd281 O285 2.439 . S
Cd281 O291 2.240 . S
Cd282 O283 2.240 . S
Cd282 O290 2.223 . S
Cd282 O292 2.297 . S
Cd282 O293 2.439 . S
O283 Cd282 2.240 . S
O283 C288 1.279 . S
O284 Cd281 2.297 . S
O284 C286 1.247 . S
O285 Cd281 2.439 . S
O285 C286 1.208 . S
C286 O284 1.247 . S
C286 O285 1.208 . S
C287 O292 1.247 . S
C287 O293 1.208 . S
C288 O280 1.315 . S
C288 O283 1.279 . S
C289 O290 1.315 . S
C289 O291 1.279 . S
O290 Cd282 2.223 . S
O290 C289 1.315 . S
O291 Cd281 2.240 . S
O291 C289 1.279 . S
O292 Cd282 2.297 . S
O292 C287 1.247 . S
O293 Cd282 2.439 . S
O293 C287 1.208 . S
O294 Cd295 2.223 . S
O294 C302 1.315 . S
Cd295 O294 2.223 . S
Cd295 O298 2.297 . S
Cd295 O299 2.439 . S
Cd295 O305 2.240 . S
Cd296 O297 2.240 . S
Cd296 O304 2.223 . S
Cd296 O306 2.297 . S
Cd296 O307 2.439 . S
O297 Cd296 2.240 . S
O297 C302 1.279 . S
O298 Cd295 2.297 . S
O298 C300 1.247 . S
O299 Cd295 2.439 . S
O299 C300 1.208 . S
C300 O298 1.247 . S
C300 O299 1.208 . S
C301 O306 1.247 . S
C301 O307 1.208 . S
C302 O294 1.315 . S
C302 O297 1.279 . S
C303 O304 1.315 . S
C303 O305 1.279 . S
O304 Cd296 2.223 . S
O304 C303 1.315 . S
O305 Cd295 2.240 . S
O305 C303 1.279 . S
O306 Cd296 2.297 . S
O306 C301 1.247 . S
O307 Cd296 2.439 . S
O307 C301 1.208 . S
O308 Cd309 2.223 . S
O308 C316 1.315 . S
Cd309 O308 2.223 . S
Cd309 O312 2.297 . S
Cd309 O313 2.439 . S
Cd309 O319 2.240 . S
Cd310 O311 2.240 . S
Cd310 O318 2.223 . S
Cd310 O320 2.297 . S
Cd310 O321 2.439 . S
O311 Cd310 2.240 . S
O311 C316 1.279 . S
O312 Cd309 2.297 . S
O312 C314 1.247 . S
O313 Cd309 2.439 . S
O313 C314 1.208 . S
C314 O312 1.247 . S
C314 O313 1.208 . S
C315 O320 1.247 . S
C315 O321 1.208 . S
C316 O308 1.315 . S
C316 O311 1.279 . S
C317 O318 1.315 . S
C317 O319 1.279 . S
O318 Cd310 2.223 . S
O318 C317 1.315 . S
O319 Cd309 2.240 . S
O319 C317 1.279 . S
O320 Cd310 2.297 . S
O320 C315 1.247 . S
O321 Cd310 2.439 . S
O321 C315 1.208 . S
O322 Cd323 2.223 . S
O322 C330 1.315 . S
Cd323 O322 2.223 . S
Cd323 O326 2.297 . S
Cd323 O327 2.439 . S
Cd323 O333 2.240 . S
Cd324 O325 2.240 . S
Cd324 O332 2.223 . S
Cd324 O334 2.297 . S
Cd324 O335 2.439 . S
O325 Cd324 2.240 . S
O325 C330 1.279 . S
O326 Cd323 2.297 . S
O326 C328 1.247 . S
O327 Cd323 2.439 . S
O327 C328 1.208 . S
C328 O326 1.247 . S
C328 O327 1.208 . S
C329 O334 1.247 . S
C329 O335 1.208 . S
C330 O322 1.315 . S
C330 O325 1.279 . S
C331 O332 1.315 . S
C331 O333 1.279 . S
O332 Cd324 2.223 . S
O332 C331 1.315 . S
O333 Cd323 2.240 . S
O333 C331 1.279 . S
O334 Cd324 2.297 . S
O334 C329 1.247 . S
O335 Cd324 2.439 . S
O335 C329 1.208 . S
O336 Cd337 2.223 . S
O336 C344 1.315 . S
Cd337 O336 2.223 . S
Cd337 O340 2.297 . S
Cd337 O341 2.439 . S
Cd337 O347 2.240 . S
Cd338 O339 2.240 . S
Cd338 O346 2.223 . S
Cd338 O348 2.297 . S
Cd338 O349 2.439 . S
O339 Cd338 2.240 . S
O339 C344 1.279 . S
O340 Cd337 2.297 . S
O340 C342 1.247 . S
O341 Cd337 2.439 . S
O341 C342 1.208 . S
C342 O340 1.247 . S
C342 O341 1.208 . S
C343 O348 1.247 . S
C343 O349 1.208 . S
C344 O336 1.315 . S
C344 O339 1.279 . S
C345 O346 1.315 . S
C345 O347 1.279 . S
O346 Cd338 2.223 . S
O346 C345 1.315 . S
O347 Cd337 2.240 . S
O347 C345 1.279 . S
O348 Cd338 2.297 . S
O348 C343 1.247 . S
O349 Cd338 2.439 . S
O349 C343 1.208 . S
O350 Cd351 2.223 . S
O350 C358 1.315 . S
Cd351 O350 2.223 . S
Cd351 O354 2.297 . S
Cd351 O355 2.439 . S
Cd351 O361 2.240 . S
Cd352 O353 2.240 . S
Cd352 O360 2.223 . S
Cd352 O362 2.297 . S
Cd352 O363 2.439 . S
O353 Cd352 2.240 . S
O353 C358 1.279 . S
O354 Cd351 2.297 . S
O354 C356 1.247 . S
O355 Cd351 2.439 . S
O355 C356 1.208 . S
C356 O354 1.247 . S
C356 O355 1.208 . S
C357 O362 1.247 . S
C357 O363 1.208 . S
C358 O350 1.315 . S
C358 O353 1.279 . S
C359 O360 1.315 . S
C359 O361 1.279 . S
O360 Cd352 2.223 . S
O360 C359 1.315 . S
O361 Cd351 2.240 . S
O361 C359 1.279 . S
O362 Cd352 2.297 . S
O362 C357 1.247 . S
O363 Cd352 2.439 . S
O363 C357 1.208 . S
O364 Cd365 2.223 . S
O364 C372 1.315 . S
Cd365 O364 2.223 . S
Cd365 O368 2.297 . S
Cd365 O369 2.439 . S
Cd365 O375 2.240 . S
Cd366 O367 2.240 . S
Cd366 O374 2.223 . S
Cd366 O376 2.297 . S
Cd366 O377 2.439 . S
O367 Cd366 2.240 . S
O367 C372 1.279 . S
O368 Cd365 2.297 . S
O368 C370 1.247 . S
O369 Cd365 2.439 . S
O369 C370 1.208 . S
C370 O368 1.247 . S
C370 O369 1.208 . S
C371 O376 1.247 . S
C371 O377 1.208 . S
C372 O364 1.315 . S
C372 O367 1.279 . S
C373 O374 1.315 . S
C373 O375 1.279 . S
O374 Cd366 2.223 . S
O374 C373 1.315 . S
O375 Cd365 2.240 . S
O375 C373 1.279 . S
O376 Cd366 2.297 . S
O376 C371 1.247 . S
O377 Cd366 2.439 . S
O377 C371 1.208 . S
O378 Cd379 2.223 . S
O378 C386 1.315 . S
Cd379 O378 2.223 . S
Cd379 O382 2.297 . S
Cd379 O383 2.439 . S
Cd379 O389 2.240 . S
Cd380 O381 2.240 . S
Cd380 O388 2.223 . S
Cd380 O390 2.297 . S
Cd380 O391 2.439 . S
O381 Cd380 2.240 . S
O381 C386 1.279 . S
O382 Cd379 2.297 . S
O382 C384 1.247 . S
O383 Cd379 2.439 . S
O383 C384 1.208 . S
C384 O382 1.247 . S
C384 O383 1.208 . S
C385 O390 1.247 . S
C385 O391 1.208 . S
C386 O378 1.315 . S
C386 O381 1.279 . S
C387 O388 1.315 . S
C387 O389 1.279 . S
O388 Cd380 2.223 . S
O388 C387 1.315 . S
O389 Cd379 2.240 . S
O389 C387 1.279 . S
O390 Cd380 2.297 . S
O390 C385 1.247 . S
O391 Cd380 2.439 . S
O391 C385 1.208 . S
O392 Cd393 2.223 . S
O392 C400 1.315 . S
Cd393 O392 2.223 . S
Cd393 O396 2.297 . S
Cd393 O397 2.439 . S
Cd393 O403 2.240 . S
Cd394 O395 2.240 . S
Cd394 O402 2.223 . S
Cd394 O404 2.297 . S
Cd394 O405 2.439 . S
O395 Cd394 2.240 . S
O395 C400 1.279 . S
O396 Cd393 2.297 . S
O396 C398 1.247 . S
O397 Cd393 2.439 . S
O397 C398 1.208 . S
C398 O396 1.247 . S
C398 O397 1.208 . S
C399 O404 1.247 . S
C399 O405 1.208 . S
C400 O392 1.315 . S
C400 O395 1.279 . S
C401 O402 1.315 . S
C401 O403 1.279 . S
O402 Cd394 2.223 . S
O402 C401 1.315 . S
O403 Cd393 2.240 . S
O403 C401 1.279 . S
O404 Cd394 2.297 . S
O404 C399 1.247 . S
O405 Cd394 2.439 . S
O405 C399 1.208 . S
O406 Cd407 2.223 . S
O406 C414 1.315 . S
Cd407 O406 2.223 . S
Cd407 O410 2.297 . S
Cd407 O411 2.439 . S
Cd407 O417 2.240 . S
Cd408 O409 2.240 . S
Cd408 O416 2.223 . S
Cd408 O418 2.297 . S
Cd408 O419 2.439 . S
O409 Cd408 2.240 . S
O409 C414 1.279 . S
O410 Cd407 2.297 . S
O410 C412 1.247 . S
O411 Cd407 2.439 . S
O411 C412 1.208 . S
C412 O410 1.247 . S
C412 O411 1.208 . S
C413 O418 1.247 . S
C413 O419 1.208 . S
C414 O406 1.315 . S
C414 O409 1.279 . S
C415 O416 1.315 . S
C415 O417 1.279 . S
O416 Cd408 2.223 . S
O416 C415 1.315 . S
O417 Cd407 2.240 . S
O417 C415 1.279 . S
O418 Cd408 2.297 . S
O418 C413 1.247 . S
O419 Cd408 2.439 . S
O419 C413 1.208 . S
O420 Cd421 2.223 . S
O420 C428 1.315 . S
Cd421 O420 2.223 . S
Cd421 O424 2.297 . S
Cd421 O425 2.439 . S
Cd421 O431 2.240 . S
Cd422 O423 2.240 . S
Cd422 O430 2.223 . S
Cd422 O432 2.297 . S
Cd422 O433 2.439 . S
O423 Cd422 2.240 . S
O423 C428 1.279 . S
O424 Cd421 2.297 . S
O424 C426 1.247 . S
O425 Cd421 2.439 . S
O425 C426 1.208 . S
C426 O424 1.247 . S
C426 O425 1.208 . S
C427 O432 1.247 . S
C427 O433 1.208 . S
C428 O420 1.315 . S
C428 O423 1.279 . S
C429 O430 1.315 . S
C429 O431 1.279 . S
O430 Cd422 2.223 . S
O430 C429 1.315 . S
O431 Cd421 2.240 . S
O431 C429 1.279 . S
O432 Cd422 2.297 . S
O432 C427 1.247 . S
O433 Cd422 2.439 . S
O433 C427 1.208 . S
O434 Cd435 2.223 . S
O434 C442 1.315 . S
Cd435 O434 2.223 . S
Cd435 O438 2.297 . S
Cd435 O439 2.439 . S
Cd435 O445 2.240 . S
Cd436 O437 2.240 . S
Cd436 O444 2.223 . S
Cd436 O446 2.297 . S
Cd436 O447 2.439 . S
O437 Cd436 2.240 . S
O437 C442 1.279 . S
O438 Cd435 2.297 . S
O438 C440 1.247 . S
O439 Cd435 2.439 . S
O439 C440 1.208 . S
C440 O438 1.247 . S
C440 O439 1.208 . S
C441 O446 1.247 . S
C441 O447 1.208 . S
C442 O434 1.315 . S
C442 O437 1.279 . S
C443 O444 1.315 . S
C443 O445 1.279 . S
O444 Cd436 2.223 . S
O444 C443 1.315 . S
O445 Cd435 2.240 . S
O445 C443 1.279 . S
O446 Cd436 2.297 . S
O446 C441 1.247 . S
O447 Cd436 2.439 . S
O447 C441 1.208 . S
C448 C449 1.363 . S
C448 C454 1.379 . S
C448 N456 1.356 . S
C449 C448 1.363 . S
C449 C455 1.363 . S
C450 C451 1.363 . S
C450 C455 1.379 . S
C450 N457 1.356 . S
C451 C450 1.363 . S
C451 C454 1.363 . S
N452 C454 1.356 . S
N452 H464 0.984 . S
N452 H465 0.985 . S
N453 C455 1.356 . S
N453 H458 0.984 . S
N453 H459 0.985 . S
C454 C448 1.379 . S
C454 C451 1.363 . S
C454 N452 1.356 . S
C455 C449 1.363 . S
C455 C450 1.379 . S
C455 N453 1.356 . S
N456 C448 1.356 . S
N456 H462 0.984 . S
N456 H463 0.984 . S
N457 C450 1.356 . S
N457 H460 0.984 . S
N457 H461 0.985 . S
H458 N453 0.984 . S
H459 N453 0.985 . S
H460 N457 0.984 . S
H461 N457 0.985 . S
H462 N456 0.984 . S
H463 N456 0.984 . S
H464 N452 0.984 . S
H465 N452 0.985 . S
C466 C467 1.363 . S
C466 C472 1.379 . S
C466 N474 1.356 . S
C467 C466 1.363 . S
C467 C473 1.363 . S
C468 C469 1.363 . S
C468 C473 1.379 . S
C468 N475 1.356 . S
C469 C468 1.363 . S
C469 C472 1.363 . S
N470 C472 1.356 . S
N470 H482 0.984 . S
N470 H483 0.985 . S
N471 C473 1.356 . S
N471 H476 0.984 . S
N471 H477 0.985 . S
C472 C466 1.379 . S
C472 C469 1.363 . S
C472 N470 1.356 . S
C473 C467 1.363 . S
C473 C468 1.379 . S
C473 N471 1.356 . S
N474 C466 1.356 . S
N474 H480 0.984 . S
N474 H481 0.984 . S
N475 C468 1.356 . S
N475 H478 0.984 . S
N475 H479 0.985 . S
H476 N471 0.984 . S
H477 N471 0.985 . S
H478 N475 0.984 . S
H479 N475 0.985 . S
H480 N474 0.984 . S
H481 N474 0.984 . S
H482 N470 0.984 . S
H483 N470 0.985 . S
C484 C485 1.363 . S
C484 C490 1.379 . S
C484 N492 1.356 . S
C485 C484 1.363 . S
C485 C491 1.363 . S
C486 C487 1.363 . S
C486 C491 1.379 . S
C486 N493 1.356 . S
C487 C486 1.363 . S
C487 C490 1.363 . S
N488 C490 1.356 . S
N488 H500 0.984 . S
N488 H501 0.985 . S
N489 C491 1.356 . S
N489 H494 0.984 . S
N489 H495 0.985 . S
C490 C484 1.379 . S
C490 C487 1.363 . S
C490 N488 1.356 . S
C491 C485 1.363 . S
C491 C486 1.379 . S
C491 N489 1.356 . S
N492 C484 1.356 . S
N492 H498 0.984 . S
N492 H499 0.984 . S
N493 C486 1.356 . S
N493 H496 0.984 . S
N493 H497 0.985 . S
H494 N489 0.984 . S
H495 N489 0.985 . S
H496 N493 0.984 . S
H497 N493 0.985 . S
H498 N492 0.984 . S
H499 N492 0.984 . S
H500 N488 0.984 . S
H501 N488 0.985 . S
C502 C503 1.363 . S
C502 C508 1.379 . S
C502 N510 1.356 . S
C503 C502 1.363 . S
C503 C509 1.363 . S
C504 C505 1.363 . S
C504 C509 1.379 . S
C504 N511 1.356 . S
C505 C504 1.363 . S
C505 C508 1.363 . S
N506 C508 1.356 . S
N506 H518 0.984 . S
N506 H519 0.985 . S
N507 C509 1.356 . S
N507 H512 0.984 . S
N507 H513 0.985 . S
C508 C502 1.379 . S
C508 C505 1.363 . S
C508 N506 1.356 . S
C509 C503 1.363 . S
C509 C504 1.379 . S
C509 N507 1.356 . S
N510 C502 1.356 . S
N510 H516 0.984 . S
N510 H517 0.984 . S
N511 C504 1.356 . S
N511 H514 0.984 . S
N511 H515 0.985 . S
H512 N507 0.984 . S
H513 N507 0.985 . S
H514 N511 0.984 . S
H515 N511 0.985 . S
H516 N510 0.984 . S
H517 N510 0.984 . S
H518 N506 0.984 . S
H519 N506 0.985 . S
C520 C521 1.363 . S
C520 C526 1.379 . S
C520 N528 1.356 . S
C521 C520 1.363 . S
C521 C527 1.363 . S
C522 C523 1.363 . S
C522 C527 1.379 . S
C522 N529 1.356 . S
C523 C522 1.363 . S
C523 C526 1.363 . S
N524 C526 1.356 . S
N524 H536 0.984 . S
N524 H537 0.985 . S
N525 C527 1.356 . S
N525 H530 0.984 . S
N525 H531 0.985 . S
C526 C520 1.379 . S
C526 C523 1.363 . S
C526 N524 1.356 . S
C527 C521 1.363 . S
C527 C522 1.379 . S
C527 N525 1.356 . S
N528 C520 1.356 . S
N528 H534 0.984 . S
N528 H535 0.984 . S
N529 C522 1.356 . S
N529 H532 0.984 . S
N529 H533 0.985 . S
H530 N525 0.984 . S
H531 N525 0.985 . S
H532 N529 0.984 . S
H533 N529 0.985 . S
H534 N528 0.984 . S
H535 N528 0.984 . S
H536 N524 0.984 . S
H537 N524 0.985 . S
C538 C539 1.363 . S
C538 C544 1.379 . S
C538 N546 1.356 . S
C539 C538 1.363 . S
C539 C545 1.363 . S
C540 C541 1.363 . S
C540 C545 1.379 . S
C540 N547 1.356 . S
C541 C540 1.363 . S
C541 C544 1.363 . S
N542 C544 1.356 . S
N542 H554 0.984 . S
N542 H555 0.985 . S
N543 C545 1.356 . S
N543 H548 0.984 . S
N543 H549 0.985 . S
C544 C538 1.379 . S
C544 C541 1.363 . S
C544 N542 1.356 . S
C545 C539 1.363 . S
C545 C540 1.379 . S
C545 N543 1.356 . S
N546 C538 1.356 . S
N546 H552 0.984 . S
N546 H553 0.984 . S
N547 C540 1.356 . S
N547 H550 0.984 . S
N547 H551 0.985 . S
H548 N543 0.984 . S
H549 N543 0.985 . S
H550 N547 0.984 . S
H551 N547 0.985 . S
H552 N546 0.984 . S
H553 N546 0.984 . S
H554 N542 0.984 . S
H555 N542 0.985 . S
C556 C557 1.363 . S
C556 C562 1.379 . S
C556 N564 1.356 . S
C557 C556 1.363 . S
C557 C563 1.363 . S
C558 C559 1.363 . S
C558 C563 1.379 . S
C558 N565 1.356 . S
C559 C558 1.363 . S
C559 C562 1.363 . S
N560 C562 1.356 . S
N560 H572 0.984 . S
N560 H573 0.985 . S
N561 C563 1.356 . S
N561 H566 0.984 . S
N561 H567 0.985 . S
C562 C556 1.379 . S
C562 C559 1.363 . S
C562 N560 1.356 . S
C563 C557 1.363 . S
C563 C558 1.379 . S
C563 N561 1.356 . S
N564 C556 1.356 . S
N564 H570 0.984 . S
N564 H571 0.984 . S
N565 C558 1.356 . S
N565 H568 0.984 . S
N565 H569 0.985 . S
H566 N561 0.984 . S
H567 N561 0.985 . S
H568 N565 0.984 . S
H569 N565 0.985 . S
H570 N564 0.984 . S
H571 N564 0.984 . S
H572 N560 0.984 . S
H573 N560 0.985 . S
C574 C575 1.363 . S
C574 C580 1.379 . S
C574 N582 1.356 . S
C575 C574 1.363 . S
C575 C581 1.363 . S
C576 C577 1.363 . S
C576 C581 1.379 . S
C576 N583 1.356 . S
C577 C576 1.363 . S
C577 C580 1.363 . S
N578 C580 1.356 . S
N578 H590 0.984 . S
N578 H591 0.985 . S
N579 C581 1.356 . S
N579 H584 0.984 . S
N579 H585 0.985 . S
C580 C574 1.379 . S
C580 C577 1.363 . S
C580 N578 1.356 . S
C581 C575 1.363 . S
C581 C576 1.379 . S
C581 N579 1.356 . S
N582 C574 1.356 . S
N582 H588 0.984 . S
N582 H589 0.984 . S
N583 C576 1.356 . S
N583 H586 0.984 . S
N583 H587 0.985 . S
H584 N579 0.984 . S
H585 N579 0.985 . S
H586 N583 0.984 . S
H587 N583 0.985 . S
H588 N582 0.984 . S
H589 N582 0.984 . S
H590 N578 0.984 . S
H591 N578 0.985 . S
C592 C593 1.363 . S
C592 C598 1.379 . S
C592 N600 1.356 . S
C593 C592 1.363 . S
C593 C599 1.363 . S
C594 C595 1.363 . S
C594 C599 1.379 . S
C594 N601 1.356 . S
C595 C594 1.363 . S
C595 C598 1.363 . S
N596 C598 1.356 . S
N596 H608 0.984 . S
N596 H609 0.985 . S
N597 C599 1.356 . S
N597 H602 0.984 . S
N597 H603 0.985 . S
C598 C592 1.379 . S
C598 C595 1.363 . S
C598 N596 1.356 . S
C599 C593 1.363 . S
C599 C594 1.379 . S
C599 N597 1.356 . S
N600 C592 1.356 . S
N600 H606 0.984 . S
N600 H607 0.984 . S
N601 C594 1.356 . S
N601 H604 0.984 . S
N601 H605 0.985 . S
H602 N597 0.984 . S
H603 N597 0.985 . S
H604 N601 0.984 . S
H605 N601 0.985 . S
H606 N600 0.984 . S
H607 N600 0.984 . S
H608 N596 0.984 . S
H609 N596 0.985 . S
C610 C611 1.363 . S
C610 C616 1.379 . S
C610 N618 1.356 . S
C611 C610 1.363 . S
C611 C617 1.363 . S
C612 C613 1.363 . S
C612 C617 1.379 . S
C612 N619 1.356 . S
C613 C612 1.363 . S
C613 C616 1.363 . S
N614 C616 1.356 . S
N614 H626 0.984 . S
N614 H627 0.985 . S
N615 C617 1.356 . S
N615 H620 0.984 . S
N615 H621 0.985 . S
C616 C610 1.379 . S
C616 C613 1.363 . S
C616 N614 1.356 . S
C617 C611 1.363 . S
C617 C612 1.379 . S
C617 N615 1.356 . S
N618 C610 1.356 . S
N618 H624 0.984 . S
N618 H625 0.984 . S
N619 C612 1.356 . S
N619 H622 0.984 . S
N619 H623 0.985 . S
H620 N615 0.984 . S
H621 N615 0.985 . S
H622 N619 0.984 . S
H623 N619 0.985 . S
H624 N618 0.984 . S
H625 N618 0.984 . S
H626 N614 0.984 . S
H627 N614 0.985 . S
C628 C629 1.363 . S
C628 C634 1.379 . S
C628 N636 1.356 . S
C629 C628 1.363 . S
C629 C635 1.363 . S
C630 C631 1.363 . S
C630 C635 1.379 . S
C630 N637 1.356 . S
C631 C630 1.363 . S
C631 C634 1.363 . S
N632 C634 1.356 . S
N632 H644 0.984 . S
N632 H645 0.985 . S
N633 C635 1.356 . S
N633 H638 0.984 . S
N633 H639 0.985 . S
C634 C628 1.379 . S
C634 C631 1.363 . S
C634 N632 1.356 . S
C635 C629 1.363 . S
C635 C630 1.379 . S
C635 N633 1.356 . S
N636 C628 1.356 . S
N636 H642 0.984 . S
N636 H643 0.984 . S
N637 C630 1.356 . S
N637 H640 0.984 . S
N637 H641 0.985 . S
H638 N633 0.984 . S
H639 N633 0.985 . S
H640 N637 0.984 . S
H641 N637 0.985 . S
H642 N636 0.984 . S
H643 N636 0.984 . S
H644 N632 0.984 . S
H645 N632 0.985 . S
C646 C647 1.363 . S
C646 C652 1.379 . S
C646 N654 1.356 . S
C647 C646 1.363 . S
C647 C653 1.363 . S
C648 C649 1.363 . S
C648 C653 1.379 . S
C648 N655 1.356 . S
C649 C648 1.363 . S
C649 C652 1.363 . S
N650 C652 1.356 . S
N650 H662 0.984 . S
N650 H663 0.985 . S
N651 C653 1.356 . S
N651 H656 0.984 . S
N651 H657 0.985 . S
C652 C646 1.379 . S
C652 C649 1.363 . S
C652 N650 1.356 . S
C653 C647 1.363 . S
C653 C648 1.379 . S
C653 N651 1.356 . S
N654 C646 1.356 . S
N654 H660 0.984 . S
N654 H661 0.984 . S
N655 C648 1.356 . S
N655 H658 0.984 . S
N655 H659 0.985 . S
H656 N651 0.984 . S
H657 N651 0.985 . S
H658 N655 0.984 . S
H659 N655 0.985 . S
H660 N654 0.984 . S
H661 N654 0.984 . S
H662 N650 0.984 . S
H663 N650 0.985 . S
C664 C665 1.363 . S
C664 C670 1.379 . S
C664 N672 1.356 . S
C665 C664 1.363 . S
C665 C671 1.363 . S
C666 C667 1.363 . S
C666 C671 1.379 . S
C666 N673 1.356 . S
C667 C666 1.363 . S
C667 C670 1.363 . S
N668 C670 1.356 . S
N668 H680 0.984 . S
N668 H681 0.985 . S
N669 C671 1.356 . S
N669 H674 0.984 . S
N669 H675 0.985 . S
C670 C664 1.379 . S
C670 C667 1.363 . S
C670 N668 1.356 . S
C671 C665 1.363 . S
C671 C666 1.379 . S
C671 N669 1.356 . S
N672 C664 1.356 . S
N672 H678 0.984 . S
N672 H679 0.984 . S
N673 C666 1.356 . S
N673 H676 0.984 . S
N673 H677 0.985 . S
H674 N669 0.984 . S
H675 N669 0.985 . S
H676 N673 0.984 . S
H677 N673 0.985 . S
H678 N672 0.984 . S
H679 N672 0.984 . S
H680 N668 0.984 . S
H681 N668 0.985 . S
C682 C683 1.363 . S
C682 C688 1.379 . S
C682 N690 1.356 . S
C683 C682 1.363 . S
C683 C689 1.363 . S
C684 C685 1.363 . S
C684 C689 1.379 . S
C684 N691 1.356 . S
C685 C684 1.363 . S
C685 C688 1.363 . S
N686 C688 1.356 . S
N686 H698 0.984 . S
N686 H699 0.985 . S
N687 C689 1.356 . S
N687 H692 0.984 . S
N687 H693 0.985 . S
C688 C682 1.379 . S
C688 C685 1.363 . S
C688 N686 1.356 . S
C689 C683 1.363 . S
C689 C684 1.379 . S
C689 N687 1.356 . S
N690 C682 1.356 . S
N690 H696 0.984 . S
N690 H697 0.984 . S
N691 C684 1.356 . S
N691 H694 0.984 . S
N691 H695 0.985 . S
H692 N687 0.984 . S
H693 N687 0.985 . S
H694 N691 0.984 . S
H695 N691 0.985 . S
H696 N690 0.984 . S
H697 N690 0.984 . S
H698 N686 0.984 . S
H699 N686 0.985 . S
C700 C701 1.363 . S
C700 C706 1.379 . S
C700 N708 1.356 . S
C701 C700 1.363 . S
C701 C707 1.363 . S
C702 C703 1.363 . S
C702 C707 1.379 . S
C702 N709 1.356 . S
C703 C702 1.363 . S
C703 C706 1.363 . S
N704 C706 1.356 . S
N704 H716 0.984 . S
N704 H717 0.985 . S
N705 C707 1.356 . S
N705 H710 0.984 . S
N705 H711 0.985 . S
C706 C700 1.379 . S
C706 C703 1.363 . S
C706 N704 1.356 . S
C707 C701 1.363 . S
C707 C702 1.379 . S
C707 N705 1.356 . S
N708 C700 1.356 . S
N708 H714 0.984 . S
N708 H715 0.984 . S
N709 C702 1.356 . S
N709 H712 0.984 . S
N709 H713 0.985 . S
H710 N705 0.984 . S
H711 N705 0.985 . S
H712 N709 0.984 . S
H713 N709 0.985 . S
H714 N708 0.984 . S
H715 N708 0.984 . S
H716 N704 0.984 . S
H717 N704 0.985 . S
C718 C719 1.363 . S
C718 C724 1.379 . S
C718 N726 1.356 . S
C719 C718 1.363 . S
C719 C725 1.363 . S
C720 C721 1.363 . S
C720 C725 1.379 . S
C720 N727 1.356 . S
C721 C720 1.363 . S
C721 C724 1.363 . S
N722 C724 1.356 . S
N722 H734 0.984 . S
N722 H735 0.985 . S
N723 C725 1.356 . S
N723 H728 0.984 . S
N723 H729 0.985 . S
C724 C718 1.379 . S
C724 C721 1.363 . S
C724 N722 1.356 . S
C725 C719 1.363 . S
C725 C720 1.379 . S
C725 N723 1.356 . S
N726 C718 1.356 . S
N726 H732 0.984 . S
N726 H733 0.984 . S
N727 C720 1.356 . S
N727 H730 0.984 . S
N727 H731 0.985 . S
H728 N723 0.984 . S
H729 N723 0.985 . S
H730 N727 0.984 . S
H731 N727 0.985 . S
H732 N726 0.984 . S
H733 N726 0.984 . S
H734 N722 0.984 . S
H735 N722 0.985 . S
C736 C737 1.363 . S
C736 C742 1.379 1_554 S
C736 N744 1.356 . S
C737 C736 1.363 . S
C737 C743 1.363 . S
C738 C739 1.363 . S
C738 C743 1.379 1_556 S
C738 N745 1.356 . S
C739 C738 1.363 . S
C739 C742 1.363 . S
N740 C742 1.356 . S
N740 H752 0.984 . S
N740 H753 0.985 . S
N741 C743 1.356 . S
N741 H746 0.984 . S
N741 H747 0.985 . S
C742 C736 1.379 1_556 S
C742 C739 1.363 . S
C742 N740 1.356 . S
C743 C737 1.363 . S
C743 C738 1.379 1_554 S
C743 N741 1.356 . S
N744 C736 1.356 . S
N744 H750 0.984 . S
N744 H751 0.984 . S
N745 C738 1.356 . S
N745 H748 0.984 . S
N745 H749 0.985 . S
H746 N741 0.984 . S
H747 N741 0.985 . S
H748 N745 0.984 . S
H749 N745 0.985 . S
H750 N744 0.984 . S
H751 N744 0.984 . S
H752 N740 0.984 . S
H753 N740 0.985 . S
C754 C755 1.363 . S
C754 C760 1.379 1_556 S
C754 N762 1.356 . S
C755 C754 1.363 . S
C755 C761 1.363 . S
C756 C757 1.363 . S
C756 C761 1.379 1_554 S
C756 N763 1.356 . S
C757 C756 1.363 . S
C757 C760 1.363 . S
N758 C760 1.356 . S
N758 H770 0.984 . S
N758 H771 0.985 . S
N759 C761 1.356 . S
N759 H764 0.984 . S
N759 H765 0.985 . S
C760 C754 1.379 1_554 S
C760 C757 1.363 . S
C760 N758 1.356 . S
C761 C755 1.363 . S
C761 C756 1.379 1_556 S
C761 N759 1.356 . S
N762 C754 1.356 . S
N762 H768 0.984 . S
N762 H769 0.984 . S
N763 C756 1.356 . S
N763 H766 0.984 . S
N763 H767 0.985 . S
H764 N759 0.984 . S
H765 N759 0.985 . S
H766 N763 0.984 . S
H767 N763 0.985 . S
H768 N762 0.984 . S
H769 N762 0.984 . S
H770 N758 0.984 . S
H771 N758 0.985 . S
C772 C773 1.363 . S
C772 C778 1.379 1_556 S
C772 N780 1.356 . S
C773 C772 1.363 . S
C773 C779 1.363 . S
C774 C775 1.363 . S
C774 C779 1.379 1_554 S
C774 N781 1.356 . S
C775 C774 1.363 . S
C775 C778 1.363 . S
N776 C778 1.356 . S
N776 H788 0.984 . S
N776 H789 0.985 . S
N777 C779 1.356 . S
N777 H782 0.984 . S
N777 H783 0.985 . S
C778 C772 1.379 1_554 S
C778 C775 1.363 . S
C778 N776 1.356 . S
C779 C773 1.363 . S
C779 C774 1.379 1_556 S
C779 N777 1.356 . S
N780 C772 1.356 . S
N780 H786 0.984 . S
N780 H787 0.984 . S
N781 C774 1.356 . S
N781 H784 0.984 . S
N781 H785 0.985 . S
H782 N777 0.984 . S
H783 N777 0.985 . S
H784 N781 0.984 . S
H785 N781 0.985 . S
H786 N780 0.984 . S
H787 N780 0.984 . S
H788 N776 0.984 . S
H789 N776 0.985 . S
C790 C791 1.363 . S
C790 C796 1.379 1_556 S
C790 N798 1.356 . S
C791 C790 1.363 . S
C791 C797 1.363 . S
C792 C793 1.363 . S
C792 C797 1.379 1_554 S
C792 N799 1.356 . S
C793 C792 1.363 . S
C793 C796 1.363 . S
N794 C796 1.356 . S
N794 H806 0.984 . S
N794 H807 0.985 . S
N795 C797 1.356 . S
N795 H800 0.984 . S
N795 H801 0.985 . S
C796 C790 1.379 1_554 S
C796 C793 1.363 . S
C796 N794 1.356 . S
C797 C791 1.363 . S
C797 C792 1.379 1_556 S
C797 N795 1.356 . S
N798 C790 1.356 . S
N798 H804 0.984 . S
N798 H805 0.984 . S
N799 C792 1.356 . S
N799 H802 0.984 . S
N799 H803 0.985 . S
H800 N795 0.984 . S
H801 N795 0.985 . S
H802 N799 0.984 . S
H803 N799 0.985 . S
H804 N798 0.984 . S
H805 N798 0.984 . S
H806 N794 0.984 . S
H807 N794 0.985 . S
C808 C809 1.363 . S
C808 C814 1.379 . S
C808 N816 1.356 . S
C809 C808 1.363 . S
C809 C815 1.363 . S
C810 C811 1.363 . S
C810 C815 1.379 . S
C810 N817 1.356 . S
C811 C810 1.363 . S
C811 C814 1.363 . S
N812 C814 1.356 . S
N812 H824 0.984 . S
N812 H825 0.985 . S
N813 C815 1.356 . S
N813 H818 0.984 . S
N813 H819 0.985 . S
C814 C808 1.379 . S
C814 C811 1.363 . S
C814 N812 1.356 . S
C815 C809 1.363 . S
C815 C810 1.379 . S
C815 N813 1.356 . S
N816 C808 1.356 . S
N816 H822 0.984 . S
N816 H823 0.984 . S
N817 C810 1.356 . S
N817 H820 0.984 . S
N817 H821 0.985 . S
H818 N813 0.984 . S
H819 N813 0.985 . S
H820 N817 0.984 . S
H821 N817 0.985 . S
H822 N816 0.984 . S
H823 N816 0.984 . S
H824 N812 0.984 . S
H825 N812 0.985 . S
C826 C827 1.363 . S
C826 C832 1.379 . S
C826 N834 1.356 . S
C827 C826 1.363 . S
C827 C833 1.363 . S
C828 C829 1.363 . S
C828 C833 1.379 . S
C828 N835 1.356 . S
C829 C828 1.363 . S
C829 C832 1.363 . S
N830 C832 1.356 . S
N830 H842 0.984 . S
N830 H843 0.985 . S
N831 C833 1.356 . S
N831 H836 0.984 . S
N831 H837 0.985 . S
C832 C826 1.379 . S
C832 C829 1.363 . S
C832 N830 1.356 . S
C833 C827 1.363 . S
C833 C828 1.379 . S
C833 N831 1.356 . S
N834 C826 1.356 . S
N834 H840 0.984 . S
N834 H841 0.984 . S
N835 C828 1.356 . S
N835 H838 0.984 . S
N835 H839 0.985 . S
H836 N831 0.984 . S
H837 N831 0.985 . S
H838 N835 0.984 . S
H839 N835 0.985 . S
H840 N834 0.984 . S
H841 N834 0.984 . S
H842 N830 0.984 . S
H843 N830 0.985 . S
C844 C845 1.363 . S
C844 C850 1.379 . S
C844 N852 1.356 . S
C845 C844 1.363 . S
C845 C851 1.363 . S
C846 C847 1.363 . S
C846 C851 1.379 . S
C846 N853 1.356 . S
C847 C846 1.363 . S
C847 C850 1.363 . S
N848 C850 1.356 . S
N848 H860 0.984 . S
N848 H861 0.985 . S
N849 C851 1.356 . S
N849 H854 0.984 . S
N849 H855 0.985 . S
C850 C844 1.379 . S
C850 C847 1.363 . S
C850 N848 1.356 . S
C851 C845 1.363 . S
C851 C846 1.379 . S
C851 N849 1.356 . S
N852 C844 1.356 . S
N852 H858 0.984 . S
N852 H859 0.984 . S
N853 C846 1.356 . S
N853 H856 0.984 . S
N853 H857 0.985 . S
H854 N849 0.984 . S
H855 N849 0.985 . S
H856 N853 0.984 . S
H857 N853 0.985 . S
H858 N852 0.984 . S
H859 N852 0.984 . S
H860 N848 0.984 . S
H861 N848 0.985 . S
C862 C863 1.363 . S
C862 C868 1.379 . S
C862 N870 1.356 . S
C863 C862 1.363 . S
C863 C869 1.363 . S
C864 C865 1.363 . S
C864 C869 1.379 . S
C864 N871 1.356 . S
C865 C864 1.363 . S
C865 C868 1.363 . S
N866 C868 1.356 . S
N866 H878 0.984 . S
N866 H879 0.985 . S
N867 C869 1.356 . S
N867 H872 0.984 . S
N867 H873 0.985 . S
C868 C862 1.379 . S
C868 C865 1.363 . S
C868 N866 1.356 . S
C869 C863 1.363 . S
C869 C864 1.379 . S
C869 N867 1.356 . S
N870 C862 1.356 . S
N870 H876 0.984 . S
N870 H877 0.984 . S
N871 C864 1.356 . S
N871 H874 0.984 . S
N871 H875 0.985 . S
H872 N867 0.984 . S
H873 N867 0.985 . S
H874 N871 0.984 . S
H875 N871 0.985 . S
H876 N870 0.984 . S
H877 N870 0.984 . S
H878 N866 0.984 . S
H879 N866 0.985 . S
C880 C881 1.363 . S
C880 C886 1.379 . S
C880 N888 1.356 . S
C881 C880 1.363 . S
C881 C887 1.363 . S
C882 C883 1.363 . S
C882 C887 1.379 . S
C882 N889 1.356 . S
C883 C882 1.363 . S
C883 C886 1.363 . S
N884 C886 1.356 . S
N884 H896 0.984 . S
N884 H897 0.985 . S
N885 C887 1.356 . S
N885 H890 0.984 . S
N885 H891 0.985 . S
C886 C880 1.379 . S
C886 C883 1.363 . S
C886 N884 1.356 . S
C887 C881 1.363 . S
C887 C882 1.379 . S
C887 N885 1.356 . S
N888 C880 1.356 . S
N888 H894 0.984 . S
N888 H895 0.984 . S
N889 C882 1.356 . S
N889 H892 0.984 . S
N889 H893 0.985 . S
H890 N885 0.984 . S
H891 N885 0.985 . S
H892 N889 0.984 . S
H893 N889 0.985 . S
H894 N888 0.984 . S
H895 N888 0.984 . S
H896 N884 0.984 . S
H897 N884 0.985 . S
C898 C899 1.363 . S
C898 C904 1.379 . S
C898 N906 1.356 . S
C899 C898 1.363 . S
C899 C905 1.363 . S
C900 C901 1.363 . S
C900 C905 1.379 . S
C900 N907 1.356 . S
C901 C900 1.363 . S
C901 C904 1.363 . S
N902 C904 1.356 . S
N902 H914 0.984 . S
N902 H915 0.985 . S
N903 C905 1.356 . S
N903 H908 0.984 . S
N903 H909 0.985 . S
C904 C898 1.379 . S
C904 C901 1.363 . S
C904 N902 1.356 . S
C905 C899 1.363 . S
C905 C900 1.379 . S
C905 N903 1.356 . S
N906 C898 1.356 . S
N906 H912 0.984 . S
N906 H913 0.984 . S
N907 C900 1.356 . S
N907 H910 0.984 . S
N907 H911 0.985 . S
H908 N903 0.984 . S
H909 N903 0.985 . S
H910 N907 0.984 . S
H911 N907 0.985 . S
H912 N906 0.984 . S
H913 N906 0.984 . S
H914 N902 0.984 . S
H915 N902 0.985 . S
C916 C917 1.363 . S
C916 C922 1.379 . S
C916 N924 1.356 . S
C917 C916 1.363 . S
C917 C923 1.363 . S
C918 C919 1.363 . S
C918 C923 1.379 . S
C918 N925 1.356 . S
C919 C918 1.363 . S
C919 C922 1.363 . S
N920 C922 1.356 . S
N920 H932 0.984 . S
N920 H933 0.985 . S
N921 C923 1.356 . S
N921 H926 0.984 . S
N921 H927 0.985 . S
C922 C916 1.379 . S
C922 C919 1.363 . S
C922 N920 1.356 . S
C923 C917 1.363 . S
C923 C918 1.379 . S
C923 N921 1.356 . S
N924 C916 1.356 . S
N924 H930 0.984 . S
N924 H931 0.984 . S
N925 C918 1.356 . S
N925 H928 0.984 . S
N925 H929 0.985 . S
H926 N921 0.984 . S
H927 N921 0.985 . S
H928 N925 0.984 . S
H929 N925 0.985 . S
H930 N924 0.984 . S
H931 N924 0.984 . S
H932 N920 0.984 . S
H933 N920 0.985 . S
C934 C935 1.363 . S
C934 C940 1.379 . S
C934 N942 1.356 . S
C935 C934 1.363 . S
C935 C941 1.363 . S
C936 C937 1.363 . S
C936 C941 1.379 . S
C936 N943 1.356 . S
C937 C936 1.363 . S
C937 C940 1.363 . S
N938 C940 1.356 . S
N938 H950 0.984 . S
N938 H951 0.985 . S
N939 C941 1.356 . S
N939 H944 0.984 . S
N939 H945 0.985 . S
C940 C934 1.379 . S
C940 C937 1.363 . S
C940 N938 1.356 . S
C941 C935 1.363 . S
C941 C936 1.379 . S
C941 N939 1.356 . S
N942 C934 1.356 . S
N942 H948 0.984 . S
N942 H949 0.984 . S
N943 C936 1.356 . S
N943 H946 0.984 . S
N943 H947 0.985 . S
H944 N939 0.984 . S
H945 N939 0.985 . S
H946 N943 0.984 . S
H947 N943 0.985 . S
H948 N942 0.984 . S
H949 N942 0.984 . S
H950 N938 0.984 . S
H951 N938 0.985 . S
C952 C953 1.363 . S
C952 C958 1.379 1_556 S
C952 N960 1.356 . S
C953 C952 1.363 . S
C953 C959 1.363 . S
C954 C955 1.363 . S
C954 C959 1.379 1_554 S
C954 N961 1.356 . S
C955 C954 1.363 . S
C955 C958 1.363 . S
N956 C958 1.356 . S
N956 H968 0.984 . S
N956 H969 0.985 . S
N957 C959 1.356 . S
N957 H962 0.984 . S
N957 H963 0.985 . S
C958 C952 1.379 1_554 S
C958 C955 1.363 . S
C958 N956 1.356 . S
C959 C953 1.363 . S
C959 C954 1.379 1_556 S
C959 N957 1.356 . S
N960 C952 1.356 . S
N960 H966 0.984 . S
N960 H967 0.984 . S
N961 C954 1.356 . S
N961 H964 0.984 . S
N961 H965 0.985 . S
H962 N957 0.984 . S
H963 N957 0.985 . S
H964 N961 0.984 . S
H965 N961 0.985 . S
H966 N960 0.984 . S
H967 N960 0.984 . S
H968 N956 0.984 . S
H969 N956 0.985 . S
C970 C971 1.363 . S
C970 C976 1.379 1_554 S
C970 N978 1.356 . S
C971 C970 1.363 . S
C971 C977 1.363 . S
C972 C973 1.363 . S
C972 C977 1.379 1_556 S
C972 N979 1.356 . S
C973 C972 1.363 . S
C973 C976 1.363 . S
N974 C976 1.356 . S
N974 H986 0.984 . S
N974 H987 0.985 . S
N975 C977 1.356 . S
N975 H980 0.984 . S
N975 H981 0.985 . S
C976 C970 1.379 1_556 S
C976 C973 1.363 . S
C976 N974 1.356 . S
C977 C971 1.363 . S
C977 C972 1.379 1_554 S
C977 N975 1.356 . S
N978 C970 1.356 . S
N978 H984 0.984 . S
N978 H985 0.984 . S
N979 C972 1.356 . S
N979 H982 0.984 . S
N979 H983 0.985 . S
H980 N975 0.984 . S
H981 N975 0.985 . S
H982 N979 0.984 . S
H983 N979 0.985 . S
H984 N978 0.984 . S
H985 N978 0.984 . S
H986 N974 0.984 . S
H987 N974 0.985 . S
C988 C989 1.363 . S
C988 C994 1.379 1_554 S
C988 N996 1.356 . S
C989 C988 1.363 . S
C989 C995 1.363 . S
C990 C991 1.363 . S
C990 C995 1.379 1_556 S
C990 N997 1.356 . S
C991 C990 1.363 . S
C991 C994 1.363 . S
N992 C994 1.356 . S
N992 H1004 0.984 . S
N992 H1005 0.985 . S
N993 C995 1.356 . S
N993 H998 0.984 . S
N993 H999 0.985 . S
C994 C988 1.379 1_556 S
C994 C991 1.363 . S
C994 N992 1.356 . S
C995 C989 1.363 . S
C995 C990 1.379 1_554 S
C995 N993 1.356 . S
N996 C988 1.356 . S
N996 H1002 0.984 . S
N996 H1003 0.984 . S
N997 C990 1.356 . S
N997 H1000 0.984 . S
N997 H1001 0.985 . S
H998 N993 0.984 . S
H999 N993 0.985 . S
H1000 N997 0.984 . S
H1001 N997 0.985 . S
H1002 N996 0.984 . S
H1003 N996 0.984 . S
H1004 N992 0.984 . S
H1005 N992 0.985 . S
C1006 C1007 1.363 . S
C1006 C1012 1.379 1_556 S
C1006 N1014 1.356 . S
C1007 C1006 1.363 . S
C1007 C1013 1.363 . S
C1008 C1009 1.363 . S
C1008 C1013 1.379 1_554 S
C1008 N1015 1.356 . S
C1009 C1008 1.363 . S
C1009 C1012 1.363 . S
N1010 C1012 1.356 . S
N1010 H1022 0.984 . S
N1010 H1023 0.985 . S
N1011 C1013 1.356 . S
N1011 H1016 0.984 . S
N1011 H1017 0.985 . S
C1012 C1006 1.379 1_554 S
C1012 C1009 1.363 . S
C1012 N1010 1.356 . S
C1013 C1007 1.363 . S
C1013 C1008 1.379 1_556 S
C1013 N1011 1.356 . S
N1014 C1006 1.356 . S
N1014 H1020 0.984 . S
N1014 H1021 0.984 . S
N1015 C1008 1.356 . S
N1015 H1018 0.984 . S
N1015 H1019 0.985 . S
H1016 N1011 0.984 . S
H1017 N1011 0.985 . S
H1018 N1015 0.984 . S
H1019 N1015 0.985 . S
H1020 N1014 0.984 . S
H1021 N1014 0.984 . S
H1022 N1010 0.984 . S
H1023 N1010 0.985 . S
C1024 C1025 1.363 . S
C1024 C1030 1.379 1_545 S
C1024 N1032 1.356 . S
C1025 C1024 1.363 . S
C1025 C1031 1.363 . S
C1026 C1027 1.363 . S
C1026 C1031 1.379 1_565 S
C1026 N1033 1.356 . S
C1027 C1026 1.363 . S
C1027 C1030 1.363 . S
N1028 C1030 1.356 . S
N1028 H1040 0.984 . S
N1028 H1041 0.985 . S
N1029 C1031 1.356 . S
N1029 H1034 0.984 . S
N1029 H1035 0.985 . S
C1030 C1024 1.379 1_565 S
C1030 C1027 1.363 . S
C1030 N1028 1.356 . S
C1031 C1025 1.363 . S
C1031 C1026 1.379 1_545 S
C1031 N1029 1.356 . S
N1032 C1024 1.356 . S
N1032 H1038 0.992 . S
N1032 H1039 0.984 . S
N1033 C1026 1.356 . S
N1033 H1036 0.984 . S
N1033 H1037 0.992 . S
H1034 N1029 0.984 . S
H1035 N1029 0.985 . S
H1036 N1033 0.984 . S
H1037 N1033 0.992 . S
H1038 N1032 0.992 . S
H1039 N1032 0.984 . S
H1040 N1028 0.984 . S
H1041 N1028 0.985 . S
C1042 C1043 1.363 . S
C1042 C1048 1.379 1_655 S
C1042 N1050 1.356 . S
C1043 C1042 1.363 . S
C1043 C1049 1.363 . S
C1044 C1045 1.363 . S
C1044 C1049 1.379 1_455 S
C1044 N1051 1.356 . S
C1045 C1044 1.363 . S
C1045 C1048 1.363 . S
N1046 C1048 1.356 . S
N1046 H1058 0.984 . S
N1046 H1059 0.985 . S
N1047 C1049 1.356 . S
N1047 H1052 0.984 . S
N1047 H1053 0.985 . S
C1048 C1042 1.379 1_455 S
C1048 C1045 1.363 . S
C1048 N1046 1.356 . S
C1049 C1043 1.363 . S
C1049 C1044 1.379 1_655 S
C1049 N1047 1.356 . S
N1050 C1042 1.356 . S
N1050 H1056 0.984 . S
N1050 H1057 0.984 . S
N1051 C1044 1.356 . S
N1051 H1054 0.984 . S
N1051 H1055 0.985 . S
H1052 N1047 0.984 . S
H1053 N1047 0.985 . S
H1054 N1051 0.984 . S
H1055 N1051 0.985 . S
H1056 N1050 0.984 . S
H1057 N1050 0.984 . S
H1058 N1046 0.984 . S
H1059 N1046 0.985 . S
C1060 C1061 1.363 1_565 S
C1060 C1066 1.379 . S
C1060 N1068 1.356 1_565 S
C1061 C1060 1.363 1_545 S
C1061 C1067 1.363 . S
C1062 C1063 1.363 1_545 S
C1062 C1067 1.379 . S
C1062 N1069 1.356 1_545 S
C1063 C1062 1.363 1_565 S
C1063 C1066 1.363 . S
N1064 C1066 1.356 . S
N1064 H1076 0.984 . S
N1064 H1077 0.985 . S
N1065 C1067 1.356 . S
N1065 H1070 0.984 . S
N1065 H1071 0.985 . S
C1066 C1060 1.379 . S
C1066 C1063 1.363 . S
C1066 N1064 1.356 . S
C1067 C1061 1.363 . S
C1067 C1062 1.379 . S
C1067 N1065 1.356 . S
N1068 C1060 1.356 1_545 S
N1068 H1074 0.984 1_545 S
N1068 H1075 0.984 . S
N1069 C1062 1.356 1_565 S
N1069 H1072 0.984 . S
N1069 H1073 0.985 1_565 S
H1070 N1065 0.984 . S
H1071 N1065 0.985 . S
H1072 N1069 0.984 . S
H1073 N1069 0.985 1_545 S
H1074 N1068 0.984 1_565 S
H1075 N1068 0.984 . S
H1076 N1064 0.984 . S
H1077 N1064 0.985 . S
C1078 C1079 1.363 . S
C1078 C1084 1.379 1_455 S
C1078 N1086 1.356 . S
C1079 C1078 1.363 . S
C1079 C1085 1.363 . S
C1080 C1081 1.363 . S
C1080 C1085 1.379 1_655 S
C1080 N1087 1.356 . S
C1081 C1080 1.363 . S
C1081 C1084 1.363 . S
N1082 C1084 1.356 . S
N1082 H1094 0.984 . S
N1082 H1095 0.985 . S
N1083 C1085 1.356 . S
N1083 H1088 0.984 . S
N1083 H1089 0.985 . S
C1084 C1078 1.379 1_655 S
C1084 C1081 1.363 . S
C1084 N1082 1.356 . S
C1085 C1079 1.363 . S
C1085 C1080 1.379 1_455 S
C1085 N1083 1.356 . S
N1086 C1078 1.356 . S
N1086 H1092 0.984 . S
N1086 H1093 0.984 . S
N1087 C1080 1.356 . S
N1087 H1090 0.984 . S
N1087 H1091 0.985 . S
H1088 N1083 0.984 . S
H1089 N1083 0.985 . S
H1090 N1087 0.984 . S
H1091 N1087 0.985 . S
H1092 N1086 0.984 . S
H1093 N1086 0.984 . S
H1094 N1082 0.984 . S
H1095 N1082 0.985 . S
C1096 C1097 1.363 . S
C1096 C1102 1.376 1_565 S
C1096 N1104 1.356 . S
C1097 C1096 1.363 . S
C1097 C1103 1.366 . S
C1098 C1099 1.363 . S
C1098 C1103 1.376 1_545 S
C1098 N1105 1.356 . S
C1099 C1098 1.363 . S
C1099 C1102 1.366 . S
N1100 C1102 1.357 . S
N1100 H1112 0.984 1_545 S
N1100 H1113 0.985 . S
N1101 C1103 1.357 . S
N1101 H1106 0.984 . S
N1101 H1107 0.985 1_565 S
C1102 C1096 1.376 1_545 S
C1102 C1099 1.366 . S
C1102 N1100 1.357 . S
C1103 C1097 1.366 . S
C1103 C1098 1.376 1_565 S
C1103 N1101 1.357 . S
N1104 C1096 1.356 . S
N1104 H1110 0.984 . S
N1104 H1111 0.984 . S
N1105 C1098 1.356 . S
N1105 H1108 0.984 . S
N1105 H1109 0.985 . S
H1106 N1101 0.984 . S
H1107 N1101 0.985 1_545 S
H1108 N1105 0.984 . S
H1109 N1105 0.985 . S
H1110 N1104 0.984 . S
H1111 N1104 0.984 . S
H1112 N1100 0.984 1_565 S
H1113 N1100 0.985 . S
C1114 C1115 1.363 . S
C1114 C1120 1.379 1_655 S
C1114 N1122 1.356 . S
C1115 C1114 1.363 . S
C1115 C1121 1.363 . S
C1116 C1117 1.363 . S
C1116 C1121 1.379 1_455 S
C1116 N1123 1.356 . S
C1117 C1116 1.363 . S
C1117 C1120 1.363 . S
N1118 C1120 1.356 . S
N1118 H1130 0.984 . S
N1118 H1131 0.985 . S
N1119 C1121 1.356 . S
N1119 H1124 0.984 . S
N1119 H1125 0.985 . S
C1120 C1114 1.379 1_455 S
C1120 C1117 1.363 . S
C1120 N1118 1.356 . S
C1121 C1115 1.363 . S
C1121 C1116 1.379 1_655 S
C1121 N1119 1.356 . S
N1122 C1114 1.356 . S
N1122 H1128 0.984 . S
N1122 H1129 0.984 . S
N1123 C1116 1.356 . S
N1123 H1126 0.984 . S
N1123 H1127 0.985 . S
H1124 N1119 0.984 . S
H1125 N1119 0.985 . S
H1126 N1123 0.984 . S
H1127 N1123 0.985 . S
H1128 N1122 0.984 . S
H1129 N1122 0.984 . S
H1130 N1118 0.984 . S
H1131 N1118 0.985 . S
C1132 C1133 1.363 . S
C1132 C1138 1.379 1_565 S
C1132 N1140 1.356 . S
C1133 C1132 1.363 . S
C1133 C1139 1.363 . S
C1134 C1135 1.363 . S
C1134 C1139 1.379 1_545 S
C1134 N1141 1.356 . S
C1135 C1134 1.363 . S
C1135 C1138 1.363 . S
N1136 C1138 1.356 . S
N1136 H1148 0.984 1_545 S
N1136 H1149 0.985 . S
N1137 C1139 1.356 . S
N1137 H1142 0.984 . S
N1137 H1143 0.985 1_565 S
C1138 C1132 1.379 1_545 S
C1138 C1135 1.363 . S
C1138 N1136 1.356 . S
C1139 C1133 1.363 . S
C1139 C1134 1.379 1_565 S
C1139 N1137 1.356 . S
N1140 C1132 1.356 . S
N1140 H1146 0.984 . S
N1140 H1147 0.984 . S
N1141 C1134 1.356 . S
N1141 H1144 0.984 . S
N1141 H1145 0.985 . S
H1142 N1137 0.984 . S
H1143 N1137 0.985 1_545 S
H1144 N1141 0.984 . S
H1145 N1141 0.985 . S
H1146 N1140 0.984 . S
H1147 N1140 0.984 . S
H1148 N1136 0.984 1_565 S
H1149 N1136 0.985 . S
C1150 C1151 1.363 . S
C1150 C1156 1.379 1_655 S
C1150 N1158 1.356 . S
C1151 C1150 1.363 . S
C1151 C1157 1.363 . S
C1152 C1153 1.363 . S
C1152 C1157 1.379 1_455 S
C1152 N1159 1.356 . S
C1153 C1152 1.363 . S
C1153 C1156 1.363 . S
N1154 C1156 1.356 . S
N1154 H1166 0.984 . S
N1154 H1167 0.985 . S
N1155 C1157 1.356 . S
N1155 H1160 0.984 . S
N1155 H1161 0.985 . S
C1156 C1150 1.379 1_455 S
C1156 C1153 1.363 . S
C1156 N1154 1.356 . S
C1157 C1151 1.363 . S
C1157 C1152 1.379 1_655 S
C1157 N1155 1.356 . S
N1158 C1150 1.356 . S
N1158 H1164 0.984 . S
N1158 H1165 0.984 . S
N1159 C1152 1.356 . S
N1159 H1162 0.984 . S
N1159 H1163 0.985 . S
H1160 N1155 0.984 . S
H1161 N1155 0.985 . S
H1162 N1159 0.984 . S
H1163 N1159 0.985 . S
H1164 N1158 0.984 . S
H1165 N1158 0.984 . S
H1166 N1154 0.984 . S
H1167 N1154 0.985 . S
C1168 C1169 1.363 . S
C1168 C1174 1.379 . S
C1168 N1176 1.356 . S
C1169 C1168 1.363 . S
C1169 C1175 1.363 . S
C1170 C1171 1.363 . S
C1170 C1175 1.379 . S
C1170 N1177 1.356 . S
C1171 C1170 1.363 . S
C1171 C1174 1.363 . S
N1172 C1174 1.356 . S
N1172 H1184 0.984 . S
N1172 H1185 0.985 . S
N1173 C1175 1.356 . S
N1173 H1178 0.984 . S
N1173 H1179 0.985 . S
C1174 C1168 1.379 . S
C1174 C1171 1.363 . S
C1174 N1172 1.356 . S
C1175 C1169 1.363 . S
C1175 C1170 1.379 . S
C1175 N1173 1.356 . S
N1176 C1168 1.356 . S
N1176 H1182 0.984 . S
N1176 H1183 0.984 . S
N1177 C1170 1.356 . S
N1177 H1180 0.984 . S
N1177 H1181 0.985 . S
H1178 N1173 0.984 . S
H1179 N1173 0.985 . S
H1180 N1177 0.984 . S
H1181 N1177 0.985 . S
H1182 N1176 0.984 . S
H1183 N1176 0.984 . S
H1184 N1172 0.984 . S
H1185 N1172 0.985 . S
C1186 C1187 1.363 . S
C1186 C1192 1.379 . S
C1186 N1194 1.356 . S
C1187 C1186 1.363 . S
C1187 C1193 1.363 . S
C1188 C1189 1.363 . S
C1188 C1193 1.379 . S
C1188 N1195 1.356 . S
C1189 C1188 1.363 . S
C1189 C1192 1.363 . S
N1190 C1192 1.356 . S
N1190 H1202 0.984 . S
N1190 H1203 0.985 . S
N1191 C1193 1.356 . S
N1191 H1196 0.984 . S
N1191 H1197 0.985 . S
C1192 C1186 1.379 . S
C1192 C1189 1.363 . S
C1192 N1190 1.356 . S
C1193 C1187 1.363 . S
C1193 C1188 1.379 . S
C1193 N1191 1.356 . S
N1194 C1186 1.356 . S
N1194 H1200 0.984 . S
N1194 H1201 0.984 . S
N1195 C1188 1.356 . S
N1195 H1198 0.984 . S
N1195 H1199 0.985 . S
H1196 N1191 0.984 . S
H1197 N1191 0.985 . S
H1198 N1195 0.984 . S
H1199 N1195 0.985 . S
H1200 N1194 0.984 . S
H1201 N1194 0.984 . S
H1202 N1190 0.984 . S
H1203 N1190 0.985 . S
C1204 C1205 1.363 . S
C1204 C1210 1.379 . S
C1204 N1212 1.356 . S
C1205 C1204 1.363 . S
C1205 C1211 1.363 . S
C1206 C1207 1.363 . S
C1206 C1211 1.379 . S
C1206 N1213 1.356 . S
C1207 C1206 1.363 . S
C1207 C1210 1.363 . S
N1208 C1210 1.356 . S
N1208 H1220 0.984 . S
N1208 H1221 0.985 . S
N1209 C1211 1.356 . S
N1209 H1214 0.984 . S
N1209 H1215 0.985 . S
C1210 C1204 1.379 . S
C1210 C1207 1.363 . S
C1210 N1208 1.356 . S
C1211 C1205 1.363 . S
C1211 C1206 1.379 . S
C1211 N1209 1.356 . S
N1212 C1204 1.356 . S
N1212 H1218 0.984 . S
N1212 H1219 0.984 . S
N1213 C1206 1.356 . S
N1213 H1216 0.984 . S
N1213 H1217 0.985 . S
H1214 N1209 0.984 . S
H1215 N1209 0.985 . S
H1216 N1213 0.984 . S
H1217 N1213 0.985 . S
H1218 N1212 0.984 . S
H1219 N1212 0.984 . S
H1220 N1208 0.984 . S
H1221 N1208 0.985 . S
C1222 C1223 1.363 . S
C1222 C1228 1.379 . S
C1222 N1230 1.356 . S
C1223 C1222 1.363 . S
C1223 C1229 1.363 . S
C1224 C1225 1.363 . S
C1224 C1229 1.379 . S
C1224 N1231 1.356 . S
C1225 C1224 1.363 . S
C1225 C1228 1.363 . S
N1226 C1228 1.356 . S
N1226 H1238 0.984 . S
N1226 H1239 0.985 . S
N1227 C1229 1.356 . S
N1227 H1232 0.984 . S
N1227 H1233 0.985 . S
C1228 C1222 1.379 . S
C1228 C1225 1.363 . S
C1228 N1226 1.356 . S
C1229 C1223 1.363 . S
C1229 C1224 1.379 . S
C1229 N1227 1.356 . S
N1230 C1222 1.356 . S
N1230 H1236 0.984 . S
N1230 H1237 0.984 . S
N1231 C1224 1.356 . S
N1231 H1234 0.984 . S
N1231 H1235 0.985 . S
H1232 N1227 0.984 . S
H1233 N1227 0.985 . S
H1234 N1231 0.984 . S
H1235 N1231 0.985 . S
H1236 N1230 0.984 . S
H1237 N1230 0.984 . S
H1238 N1226 0.984 . S
H1239 N1226 0.985 . S
C1240 C1241 1.363 . S
C1240 C1246 1.379 . S
C1240 N1248 1.356 . S
C1241 C1240 1.363 . S
C1241 C1247 1.363 . S
C1242 C1243 1.363 . S
C1242 C1247 1.379 . S
C1242 N1249 1.356 . S
C1243 C1242 1.363 . S
C1243 C1246 1.363 . S
N1244 C1246 1.356 . S
N1244 H1256 0.984 . S
N1244 H1257 0.985 . S
N1245 C1247 1.356 . S
N1245 H1250 0.984 . S
N1245 H1251 0.985 . S
C1246 C1240 1.379 . S
C1246 C1243 1.363 . S
C1246 N1244 1.356 . S
C1247 C1241 1.363 . S
C1247 C1242 1.379 . S
C1247 N1245 1.356 . S
N1248 C1240 1.356 . S
N1248 H1254 0.984 . S
N1248 H1255 0.984 . S
N1249 C1242 1.356 . S
N1249 H1252 0.984 . S
N1249 H1253 0.985 . S
H1250 N1245 0.984 . S
H1251 N1245 0.985 . S
H1252 N1249 0.984 . S
H1253 N1249 0.985 . S
H1254 N1248 0.984 . S
H1255 N1248 0.984 . S
H1256 N1244 0.984 . S
H1257 N1244 0.985 . S
C1258 C1259 1.363 . S
C1258 C1264 1.379 . S
C1258 N1266 1.356 . S
C1259 C1258 1.363 . S
C1259 C1265 1.363 . S
C1260 C1261 1.363 . S
C1260 C1265 1.379 . S
C1260 N1267 1.356 . S
C1261 C1260 1.363 . S
C1261 C1264 1.363 . S
N1262 C1264 1.356 . S
N1262 H1274 0.984 . S
N1262 H1275 0.985 . S
N1263 C1265 1.356 . S
N1263 H1268 0.984 . S
N1263 H1269 0.985 . S
C1264 C1258 1.379 . S
C1264 C1261 1.363 . S
C1264 N1262 1.356 . S
C1265 C1259 1.363 . S
C1265 C1260 1.379 . S
C1265 N1263 1.356 . S
N1266 C1258 1.356 . S
N1266 H1272 0.984 . S
N1266 H1273 0.984 . S
N1267 C1260 1.356 . S
N1267 H1270 0.984 . S
N1267 H1271 0.985 . S
H1268 N1263 0.984 . S
H1269 N1263 0.985 . S
H1270 N1267 0.984 . S
H1271 N1267 0.985 . S
H1272 N1266 0.984 . S
H1273 N1266 0.984 . S
H1274 N1262 0.984 . S
H1275 N1262 0.985 . S
C1276 C1277 1.363 . S
C1276 C1282 1.379 . S
C1276 N1284 1.356 . S
C1277 C1276 1.363 . S
C1277 C1283 1.363 . S
C1278 C1279 1.363 . S
C1278 C1283 1.379 . S
C1278 N1285 1.356 . S
C1279 C1278 1.363 . S
C1279 C1282 1.363 . S
N1280 C1282 1.356 . S
N1280 H1292 0.984 . S
N1280 H1293 0.985 . S
N1281 C1283 1.356 . S
N1281 H1286 0.984 . S
N1281 H1287 0.985 . S
C1282 C1276 1.379 . S
C1282 C1279 1.363 . S
C1282 N1280 1.356 . S
C1283 C1277 1.363 . S
C1283 C1278 1.379 . S
C1283 N1281 1.356 . S
N1284 C1276 1.356 . S
N1284 H1290 0.984 . S
N1284 H1291 0.984 . S
N1285 C1278 1.356 . S
N1285 H1288 0.984 . S
N1285 H1289 0.985 . S
H1286 N1281 0.984 . S
H1287 N1281 0.985 . S
H1288 N1285 0.984 . S
H1289 N1285 0.985 . S
H1290 N1284 0.984 . S
H1291 N1284 0.984 . S
H1292 N1280 0.984 . S
H1293 N1280 0.985 . S
C1294 C1295 1.363 . S
C1294 C1300 1.379 . S
C1294 N1302 1.356 . S
C1295 C1294 1.363 . S
C1295 C1301 1.363 . S
C1296 C1297 1.363 . S
C1296 C1301 1.379 . S
C1296 N1303 1.356 . S
C1297 C1296 1.363 . S
C1297 C1300 1.363 . S
N1298 C1300 1.356 . S
N1298 H1310 0.984 . S
N1298 H1311 0.985 . S
N1299 C1301 1.356 . S
N1299 H1304 0.984 . S
N1299 H1305 0.985 . S
C1300 C1294 1.379 . S
C1300 C1297 1.363 . S
C1300 N1298 1.356 . S
C1301 C1295 1.363 . S
C1301 C1296 1.379 . S
C1301 N1299 1.356 . S
N1302 C1294 1.356 . S
N1302 H1308 0.984 . S
N1302 H1309 0.984 . S
N1303 C1296 1.356 . S
N1303 H1306 0.984 . S
N1303 H1307 0.985 . S
H1304 N1299 0.984 . S
H1305 N1299 0.985 . S
H1306 N1303 0.984 . S
H1307 N1303 0.985 . S
H1308 N1302 0.984 . S
H1309 N1302 0.984 . S
H1310 N1298 0.984 . S
H1311 N1298 0.985 . S
C1312 C1313 1.363 . S
C1312 C1318 1.379 . S
C1312 N1320 1.356 . S
C1313 C1312 1.363 . S
C1313 C1319 1.363 . S
C1314 C1315 1.363 . S
C1314 C1319 1.379 . S
C1314 N1321 1.356 . S
C1315 C1314 1.363 . S
C1315 C1318 1.363 . S
N1316 C1318 1.356 . S
N1316 H1328 0.984 . S
N1316 H1329 0.985 . S
N1317 C1319 1.356 . S
N1317 H1322 0.984 . S
N1317 H1323 0.985 . S
C1318 C1312 1.379 . S
C1318 C1315 1.363 . S
C1318 N1316 1.356 . S
C1319 C1313 1.363 . S
C1319 C1314 1.379 . S
C1319 N1317 1.356 . S
N1320 C1312 1.356 . S
N1320 H1326 0.984 . S
N1320 H1327 0.984 . S
N1321 C1314 1.356 . S
N1321 H1324 0.984 . S
N1321 H1325 0.985 . S
H1322 N1317 0.984 . S
H1323 N1317 0.985 . S
H1324 N1321 0.984 . S
H1325 N1321 0.985 . S
H1326 N1320 0.984 . S
H1327 N1320 0.984 . S
H1328 N1316 0.984 . S
H1329 N1316 0.985 . S
C1330 C1331 1.363 . S
C1330 C1336 1.379 . S
C1330 N1338 1.356 . S
C1331 C1330 1.363 . S
C1331 C1337 1.363 . S
C1332 C1333 1.363 . S
C1332 C1337 1.379 . S
C1332 N1339 1.356 . S
C1333 C1332 1.363 . S
C1333 C1336 1.363 . S
N1334 C1336 1.356 . S
N1334 H1346 0.984 . S
N1334 H1347 0.985 . S
N1335 C1337 1.356 . S
N1335 H1340 0.984 . S
N1335 H1341 0.985 . S
C1336 C1330 1.379 . S
C1336 C1333 1.363 . S
C1336 N1334 1.356 . S
C1337 C1331 1.363 . S
C1337 C1332 1.379 . S
C1337 N1335 1.356 . S
N1338 C1330 1.356 . S
N1338 H1344 0.984 . S
N1338 H1345 0.984 . S
N1339 C1332 1.356 . S
N1339 H1342 0.984 . S
N1339 H1343 0.985 . S
H1340 N1335 0.984 . S
H1341 N1335 0.985 . S
H1342 N1339 0.984 . S
H1343 N1339 0.985 . S
H1344 N1338 0.984 . S
H1345 N1338 0.984 . S
H1346 N1334 0.984 . S
H1347 N1334 0.985 . S
C1348 C1349 1.363 . S
C1348 C1354 1.379 . S
C1348 N1356 1.356 . S
C1349 C1348 1.363 . S
C1349 C1355 1.363 . S
C1350 C1351 1.363 . S
C1350 C1355 1.379 . S
C1350 N1357 1.356 . S
C1351 C1350 1.363 . S
C1351 C1354 1.363 . S
N1352 C1354 1.356 . S
N1352 H1364 0.984 . S
N1352 H1365 0.985 . S
N1353 C1355 1.356 . S
N1353 H1358 0.984 . S
N1353 H1359 0.985 . S
C1354 C1348 1.379 . S
C1354 C1351 1.363 . S
C1354 N1352 1.356 . S
C1355 C1349 1.363 . S
C1355 C1350 1.379 . S
C1355 N1353 1.356 . S
N1356 C1348 1.356 . S
N1356 H1362 0.984 . S
N1356 H1363 0.984 . S
N1357 C1350 1.356 . S
N1357 H1360 0.984 . S
N1357 H1361 0.985 . S
H1358 N1353 0.984 . S
H1359 N1353 0.985 . S
H1360 N1357 0.984 . S
H1361 N1357 0.985 . S
H1362 N1356 0.984 . S
H1363 N1356 0.984 . S
H1364 N1352 0.984 . S
H1365 N1352 0.985 . S
C1366 C1367 1.363 . S
C1366 C1372 1.379 . S
C1366 N1374 1.356 . S
C1367 C1366 1.363 . S
C1367 C1373 1.363 . S
C1368 C1369 1.363 . S
C1368 C1373 1.379 . S
C1368 N1375 1.356 . S
C1369 C1368 1.363 . S
C1369 C1372 1.363 . S
N1370 C1372 1.356 . S
N1370 H1382 0.984 . S
N1370 H1383 0.985 . S
N1371 C1373 1.356 . S
N1371 H1376 0.984 . S
N1371 H1377 0.985 . S
C1372 C1366 1.379 . S
C1372 C1369 1.363 . S
C1372 N1370 1.356 . S
C1373 C1367 1.363 . S
C1373 C1368 1.379 . S
C1373 N1371 1.356 . S
N1374 C1366 1.356 . S
N1374 H1380 0.984 . S
N1374 H1381 0.984 . S
N1375 C1368 1.356 . S
N1375 H1378 0.984 . S
N1375 H1379 0.985 . S
H1376 N1371 0.984 . S
H1377 N1371 0.985 . S
H1378 N1375 0.984 . S
H1379 N1375 0.985 . S
H1380 N1374 0.984 . S
H1381 N1374 0.984 . S
H1382 N1370 0.984 . S
H1383 N1370 0.985 . S
C1384 C1385 1.363 . S
C1384 C1390 1.379 . S
C1384 N1392 1.356 . S
C1385 C1384 1.363 . S
C1385 C1391 1.363 . S
C1386 C1387 1.363 . S
C1386 C1391 1.379 . S
C1386 N1393 1.356 . S
C1387 C1386 1.363 . S
C1387 C1390 1.363 . S
N1388 C1390 1.356 . S
N1388 H1400 0.984 . S
N1388 H1401 0.985 . S
N1389 C1391 1.356 . S
N1389 H1394 0.984 . S
N1389 H1395 0.985 . S
C1390 C1384 1.379 . S
C1390 C1387 1.363 . S
C1390 N1388 1.356 . S
C1391 C1385 1.363 . S
C1391 C1386 1.379 . S
C1391 N1389 1.356 . S
N1392 C1384 1.356 . S
N1392 H1398 0.984 . S
N1392 H1399 0.984 . S
N1393 C1386 1.356 . S
N1393 H1396 0.984 . S
N1393 H1397 0.985 . S
H1394 N1389 0.984 . S
H1395 N1389 0.985 . S
H1396 N1393 0.984 . S
H1397 N1393 0.985 . S
H1398 N1392 0.984 . S
H1399 N1392 0.984 . S
H1400 N1388 0.984 . S
H1401 N1388 0.985 . S
C1402 C1403 1.363 . S
C1402 C1408 1.379 . S
C1402 N1410 1.356 . S
C1403 C1402 1.363 . S
C1403 C1409 1.363 . S
C1404 C1405 1.363 . S
C1404 C1409 1.379 . S
C1404 N1411 1.356 . S
C1405 C1404 1.363 . S
C1405 C1408 1.363 . S
N1406 C1408 1.356 . S
N1406 H1418 0.984 . S
N1406 H1419 0.985 . S
N1407 C1409 1.356 . S
N1407 H1412 0.984 . S
N1407 H1413 0.985 . S
C1408 C1402 1.379 . S
C1408 C1405 1.363 . S
C1408 N1406 1.356 . S
C1409 C1403 1.363 . S
C1409 C1404 1.379 . S
C1409 N1407 1.356 . S
N1410 C1402 1.356 . S
N1410 H1416 0.984 . S
N1410 H1417 0.984 . S
N1411 C1404 1.356 . S
N1411 H1414 0.984 . S
N1411 H1415 0.985 . S
H1412 N1407 0.984 . S
H1413 N1407 0.985 . S
H1414 N1411 0.984 . S
H1415 N1411 0.985 . S
H1416 N1410 0.984 . S
H1417 N1410 0.984 . S
H1418 N1406 0.984 . S
H1419 N1406 0.985 . S
C1420 C1421 1.363 . S
C1420 C1426 1.379 . S
C1420 N1428 1.356 . S
C1421 C1420 1.363 . S
C1421 C1427 1.363 . S
C1422 C1423 1.363 . S
C1422 C1427 1.379 . S
C1422 N1429 1.356 . S
C1423 C1422 1.363 . S
C1423 C1426 1.363 . S
N1424 C1426 1.356 . S
N1424 H1436 0.984 . S
N1424 H1437 0.985 . S
N1425 C1427 1.356 . S
N1425 H1430 0.984 . S
N1425 H1431 0.985 . S
C1426 C1420 1.379 . S
C1426 C1423 1.363 . S
C1426 N1424 1.356 . S
C1427 C1421 1.363 . S
C1427 C1422 1.379 . S
C1427 N1425 1.356 . S
N1428 C1420 1.356 . S
N1428 H1434 0.984 . S
N1428 H1435 0.984 . S
N1429 C1422 1.356 . S
N1429 H1432 0.984 . S
N1429 H1433 0.985 . S
H1430 N1425 0.984 . S
H1431 N1425 0.985 . S
H1432 N1429 0.984 . S
H1433 N1429 0.985 . S
H1434 N1428 0.984 . S
H1435 N1428 0.984 . S
H1436 N1424 0.984 . S
H1437 N1424 0.985 . S
C1438 C1439 1.363 . S
C1438 C1444 1.379 . S
C1438 N1446 1.356 . S
C1439 C1438 1.363 . S
C1439 C1445 1.363 . S
C1440 C1441 1.363 . S
C1440 C1445 1.379 . S
C1440 N1447 1.356 . S
C1441 C1440 1.363 . S
C1441 C1444 1.363 . S
N1442 C1444 1.356 . S
N1442 H1454 0.984 . S
N1442 H1455 0.985 . S
N1443 C1445 1.356 . S
N1443 H1448 0.984 . S
N1443 H1449 0.985 . S
C1444 C1438 1.379 . S
C1444 C1441 1.363 . S
C1444 N1442 1.356 . S
C1445 C1439 1.363 . S
C1445 C1440 1.379 . S
C1445 N1443 1.356 . S
N1446 C1438 1.356 . S
N1446 H1452 0.984 . S
N1446 H1453 0.984 . S
N1447 C1440 1.356 . S
N1447 H1450 0.984 . S
N1447 H1451 0.985 . S
H1448 N1443 0.984 . S
H1449 N1443 0.985 . S
H1450 N1447 0.984 . S
H1451 N1447 0.985 . S
H1452 N1446 0.984 . S
H1453 N1446 0.984 . S
H1454 N1442 0.984 . S
H1455 N1442 0.985 . S
C1456 C1457 1.363 . S
C1456 C1462 1.379 . S
C1456 N1464 1.356 . S
C1457 C1456 1.363 . S
C1457 C1463 1.363 . S
C1458 C1459 1.363 . S
C1458 C1463 1.379 . S
C1458 N1465 1.356 . S
C1459 C1458 1.363 . S
C1459 C1462 1.363 . S
N1460 C1462 1.356 . S
N1460 H1472 0.984 . S
N1460 H1473 0.985 . S
N1461 C1463 1.356 . S
N1461 H1466 0.984 . S
N1461 H1467 0.985 . S
C1462 C1456 1.379 . S
C1462 C1459 1.363 . S
C1462 N1460 1.356 . S
C1463 C1457 1.363 . S
C1463 C1458 1.379 . S
C1463 N1461 1.356 . S
N1464 C1456 1.356 . S
N1464 H1470 0.984 . S
N1464 H1471 0.984 . S
N1465 C1458 1.356 . S
N1465 H1468 0.984 . S
N1465 H1469 0.985 . S
H1466 N1461 0.984 . S
H1467 N1461 0.985 . S
H1468 N1465 0.984 . S
H1469 N1465 0.985 . S
H1470 N1464 0.984 . S
H1471 N1464 0.984 . S
H1472 N1460 0.984 . S
H1473 N1460 0.985 . S
C1474 C1475 1.363 . S
C1474 C1480 1.379 . S
C1474 N1482 1.356 . S
C1475 C1474 1.363 . S
C1475 C1481 1.363 . S
C1476 C1477 1.363 . S
C1476 C1481 1.379 . S
C1476 N1483 1.356 . S
C1477 C1476 1.363 . S
C1477 C1480 1.363 . S
N1478 C1480 1.356 . S
N1478 H1490 0.984 . S
N1478 H1491 0.985 . S
N1479 C1481 1.356 . S
N1479 H1484 0.984 . S
N1479 H1485 0.985 . S
C1480 C1474 1.379 . S
C1480 C1477 1.363 . S
C1480 N1478 1.356 . S
C1481 C1475 1.363 . S
C1481 C1476 1.379 . S
C1481 N1479 1.356 . S
N1482 C1474 1.356 . S
N1482 H1488 0.984 . S
N1482 H1489 0.984 . S
N1483 C1476 1.356 . S
N1483 H1486 0.984 . S
N1483 H1487 0.985 . S
H1484 N1479 0.984 . S
H1485 N1479 0.985 . S
H1486 N1483 0.984 . S
H1487 N1483 0.985 . S
H1488 N1482 0.984 . S
H1489 N1482 0.984 . S
H1490 N1478 0.984 . S
H1491 N1478 0.985 . S
C1492 C1493 1.363 . S
C1492 C1498 1.379 . S
C1492 N1500 1.356 . S
C1493 C1492 1.363 . S
C1493 C1499 1.363 . S
C1494 C1495 1.363 . S
C1494 C1499 1.379 . S
C1494 N1501 1.356 . S
C1495 C1494 1.363 . S
C1495 C1498 1.363 . S
N1496 C1498 1.356 . S
N1496 H1508 0.984 . S
N1496 H1509 0.985 . S
N1497 C1499 1.356 . S
N1497 H1502 0.984 . S
N1497 H1503 0.985 . S
C1498 C1492 1.379 . S
C1498 C1495 1.363 . S
C1498 N1496 1.356 . S
C1499 C1493 1.363 . S
C1499 C1494 1.379 . S
C1499 N1497 1.356 . S
N1500 C1492 1.356 . S
N1500 H1506 0.984 . S
N1500 H1507 0.984 . S
N1501 C1494 1.356 . S
N1501 H1504 0.984 . S
N1501 H1505 0.985 . S
H1502 N1497 0.984 . S
H1503 N1497 0.985 . S
H1504 N1501 0.984 . S
H1505 N1501 0.985 . S
H1506 N1500 0.984 . S
H1507 N1500 0.984 . S
H1508 N1496 0.984 . S
H1509 N1496 0.985 . S
C1510 C1511 1.363 . S
C1510 C1516 1.379 . S
C1510 N1518 1.356 . S
C1511 C1510 1.363 . S
C1511 C1517 1.363 . S
C1512 C1513 1.363 . S
C1512 C1517 1.379 . S
C1512 N1519 1.356 . S
C1513 C1512 1.363 . S
C1513 C1516 1.363 . S
N1514 C1516 1.356 . S
N1514 H1526 0.984 . S
N1514 H1527 0.985 . S
N1515 C1517 1.356 . S
N1515 H1520 0.984 . S
N1515 H1521 0.985 . S
C1516 C1510 1.379 . S
C1516 C1513 1.363 . S
C1516 N1514 1.356 . S
C1517 C1511 1.363 . S
C1517 C1512 1.379 . S
C1517 N1515 1.356 . S
N1518 C1510 1.356 . S
N1518 H1524 0.984 . S
N1518 H1525 0.984 . S
N1519 C1512 1.356 . S
N1519 H1522 0.984 . S
N1519 H1523 0.985 . S
H1520 N1515 0.984 . S
H1521 N1515 0.985 . S
H1522 N1519 0.984 . S
H1523 N1519 0.985 . S
H1524 N1518 0.984 . S
H1525 N1518 0.984 . S
H1526 N1514 0.984 . S
H1527 N1514 0.985 . S
C1528 C1529 1.363 . S
C1528 C1534 1.379 . S
C1528 N1536 1.356 . S
C1529 C1528 1.363 . S
C1529 C1535 1.363 . S
C1530 C1531 1.363 . S
C1530 C1535 1.379 . S
C1530 N1537 1.356 . S
C1531 C1530 1.363 . S
C1531 C1534 1.363 . S
N1532 C1534 1.356 . S
N1532 H1544 0.984 . S
N1532 H1545 0.985 . S
N1533 C1535 1.356 . S
N1533 H1538 0.984 . S
N1533 H1539 0.985 . S
C1534 C1528 1.379 . S
C1534 C1531 1.363 . S
C1534 N1532 1.356 . S
C1535 C1529 1.363 . S
C1535 C1530 1.379 . S
C1535 N1533 1.356 . S
N1536 C1528 1.356 . S
N1536 H1542 0.984 . S
N1536 H1543 0.984 . S
N1537 C1530 1.356 . S
N1537 H1540 0.984 . S
N1537 H1541 0.985 . S
H1538 N1533 0.984 . S
H1539 N1533 0.985 . S
H1540 N1537 0.984 . S
H1541 N1537 0.985 . S
H1542 N1536 0.984 . S
H1543 N1536 0.984 . S
H1544 N1532 0.984 . S
H1545 N1532 0.985 . S
C1546 C1547 1.363 . S
C1546 C1552 1.379 . S
C1546 N1554 1.356 . S
C1547 C1546 1.363 . S
C1547 C1553 1.363 . S
C1548 C1549 1.363 . S
C1548 C1553 1.379 . S
C1548 N1555 1.356 . S
C1549 C1548 1.363 . S
C1549 C1552 1.363 . S
N1550 C1552 1.356 . S
N1550 H1562 0.984 . S
N1550 H1563 0.985 . S
N1551 C1553 1.356 . S
N1551 H1556 0.984 . S
N1551 H1557 0.985 . S
C1552 C1546 1.379 . S
C1552 C1549 1.363 . S
C1552 N1550 1.356 . S
C1553 C1547 1.363 . S
C1553 C1548 1.379 . S
C1553 N1551 1.356 . S
N1554 C1546 1.356 . S
N1554 H1560 0.984 . S
N1554 H1561 0.984 . S
N1555 C1548 1.356 . S
N1555 H1558 0.984 . S
N1555 H1559 0.985 . S
H1556 N1551 0.984 . S
H1557 N1551 0.985 . S
H1558 N1555 0.984 . S
H1559 N1555 0.985 . S
H1560 N1554 0.984 . S
H1561 N1554 0.984 . S
H1562 N1550 0.984 . S
H1563 N1550 0.985 . S
C1564 C1565 1.363 . S
C1564 C1570 1.379 . S
C1564 N1572 1.356 . S
C1565 C1564 1.363 . S
C1565 C1571 1.363 . S
C1566 C1567 1.363 . S
C1566 C1571 1.379 . S
C1566 N1573 1.356 . S
C1567 C1566 1.363 . S
C1567 C1570 1.363 . S
N1568 C1570 1.356 . S
N1568 H1580 0.984 . S
N1568 H1581 0.985 . S
N1569 C1571 1.356 . S
N1569 H1574 0.984 . S
N1569 H1575 0.985 . S
C1570 C1564 1.379 . S
C1570 C1567 1.363 . S
C1570 N1568 1.356 . S
C1571 C1565 1.363 . S
C1571 C1566 1.379 . S
C1571 N1569 1.356 . S
N1572 C1564 1.356 . S
N1572 H1578 0.984 . S
N1572 H1579 0.984 . S
N1573 C1566 1.356 . S
N1573 H1576 0.984 . S
N1573 H1577 0.985 . S
H1574 N1569 0.984 . S
H1575 N1569 0.985 . S
H1576 N1573 0.984 . S
H1577 N1573 0.985 . S
H1578 N1572 0.984 . S
H1579 N1572 0.984 . S
H1580 N1568 0.984 . S
H1581 N1568 0.985 . S
C1582 C1583 1.363 . S
C1582 C1588 1.379 . S
C1582 N1590 1.356 . S
C1583 C1582 1.363 . S
C1583 C1589 1.363 . S
C1584 C1585 1.363 . S
C1584 C1589 1.379 . S
C1584 N1591 1.356 . S
C1585 C1584 1.363 . S
C1585 C1588 1.363 . S
N1586 C1588 1.356 . S
N1586 H1598 0.984 . S
N1586 H1599 0.985 . S
N1587 C1589 1.356 . S
N1587 H1592 0.984 . S
N1587 H1593 0.985 . S
C1588 C1582 1.379 . S
C1588 C1585 1.363 . S
C1588 N1586 1.356 . S
C1589 C1583 1.363 . S
C1589 C1584 1.379 . S
C1589 N1587 1.356 . S
N1590 C1582 1.356 . S
N1590 H1596 0.984 . S
N1590 H1597 0.984 . S
N1591 C1584 1.356 . S
N1591 H1594 0.984 . S
N1591 H1595 0.985 . S
H1592 N1587 0.984 . S
H1593 N1587 0.985 . S
H1594 N1591 0.984 . S
H1595 N1591 0.985 . S
H1596 N1590 0.984 . S
H1597 N1590 0.984 . S
H1598 N1586 0.984 . S
H1599 N1586 0.985 . S
C449 C415 1.612 . S
C451 C9 1.612 . S
C467 C23 1.612 . S
C469 C429 1.612 . S
C485 C443 1.612 . S
C487 C37 1.612 . S
C503 C401 1.612 . S
C505 C51 1.612 . S
C521 C65 1.612 . S
C523 C387 1.612 . S
C539 C345 1.612 . S
C541 C79 1.612 . S
C557 C93 1.612 . S
C559 C359 1.612 . S
C575 C373 1.612 . S
C577 C107 1.612 . S
C593 C121 1.612 . S
C595 C303 1.612 . S
C611 C135 1.612 . S
C613 C317 1.612 . S
C629 C331 1.612 . S
C631 C149 1.612 . S
C647 C163 1.612 . S
C649 C289 1.612 . S
C665 C275 1.612 . S
C667 C177 1.612 . S
C683 C233 1.612 . S
C685 C191 1.612 . S
C701 C205 1.612 . S
C703 C247 1.612 . S
C719 C219 1.612 . S
C721 C261 1.612 . S
C737 C7 1.438 . S
C739 C147 1.438 . S
C755 C161 1.438 . S
C757 C21 1.438 . S
C773 C119 1.438 . S
C775 C35 1.438 . S
C791 C133 1.438 . S
C793 C49 1.438 . S
C809 C63 1.438 . S
C811 C203 1.438 . S
C827 C217 1.438 . S
C829 C77 1.438 . S
C845 C175 1.438 . S
C847 C91 1.438 . S
C863 C189 1.438 . S
C865 C105 1.438 . S
C881 C231 1.438 . S
C883 C371 1.438 . S
C899 C385 1.438 . S
C901 C245 1.438 . S
C917 C343 1.438 . S
C919 C259 1.438 . S
C935 C273 1.438 . S
C937 C357 1.438 . S
C953 C287 1.438 . S
C955 C427 1.438 . S
C971 C441 1.438 . S
C973 C301 1.438 . S
C989 C399 1.438 . S
C991 C315 1.438 . S
C1007 C329 1.438 . S
C1009 C413 1.438 . S
C1025 C6 1.538 . S
C1027 C62 1.538 . S
C1043 C20 1.538 . S
C1045 C76 1.538 . S
C1061 C90 1.538 . S
C1063 C34 1.538 . S
C1079 C48 1.538 . S
C1081 C104 1.538 . S
C1097 C118 1.538 . S
C1099 C174 1.538 . S
C1115 C188 1.538 . S
C1117 C132 1.538 . S
C1133 C202 1.538 . S
C1135 C146 1.538 . S
C1151 C160 1.538 . S
C1153 C216 1.538 . S
C1169 C230 1.538 . S
C1171 C286 1.538 . S
C1187 C300 1.538 . S
C1189 C244 1.538 . S
C1205 C258 1.538 . S
C1207 C314 1.538 . S
C1223 C328 1.538 . S
C1225 C272 1.538 . S
C1241 C398 1.538 . S
C1243 C342 1.538 . S
C1259 C356 1.538 . S
C1261 C412 1.538 . S
C1277 C370 1.538 . S
C1279 C426 1.538 . S
C1295 C384 1.538 . S
C1297 C440 1.538 . S
C1313 C8 1.426 . S
C1315 C78 1.426 . S
C1331 C22 1.426 . S
C1333 C92 1.426 . S
C1349 C106 1.426 . S
C1351 C36 1.426 . S
C1367 C64 1.426 . S
C1369 C50 1.426 . S
C1385 C190 1.426 . S
C1387 C120 1.426 . S
C1403 C204 1.426 . S
C1405 C134 1.426 . S
C1421 C218 1.426 . S
C1423 C148 1.426 . S
C1439 C162 1.426 . S
C1441 C176 1.426 . S
C1457 C232 1.426 . S
C1459 C302 1.426 . S
C1475 C316 1.426 . S
C1477 C246 1.426 . S
C1493 C330 1.426 . S
C1495 C260 1.426 . S
C1511 C274 1.426 . S
C1513 C288 1.426 . S
C1529 C414 1.426 . S
C1531 C344 1.426 . S
C1547 C358 1.426 . S
C1549 C428 1.426 . S
C1565 C372 1.426 . S
C1567 C442 1.426 . S
C1583 C400 1.426 . S
C1585 C386 1.426 . S
