# Generated by pormake.
# Topology pcl, (4)-cn, num edge types: 1
# Building blocks:
#     Node 0, Type 0, BuildingBlock: QUQFOY_clean_sbu_1, # of connection points: 4
#     Node 1, Type 0, BuildingBlock: QUQFOY_clean_sbu_1, # of connection points: 4
#     Node 2, Type 0, BuildingBlock: QUQFOY_clean_sbu_1, # of connection points: 4
#     Node 3, Type 0, BuildingBlock: QUQFOY_clean_sbu_1, # of connection points: 4
#     Node 4, Type 0, BuildingBlock: QUQFOY_clean_sbu_1, # of connection points: 4
#     Node 5, Type 0, BuildingBlock: QUQFOY_clean_sbu_1, # of connection points: 4
#     Node 6, Type 0, BuildingBlock: QUQFOY_clean_sbu_1, # of connection points: 4
#     Node 7, Type 0, BuildingBlock: QUQFOY_clean_sbu_1, # of connection points: 4
#     Node 8, Type 0, BuildingBlock: QUQFOY_clean_sbu_1, # of connection points: 4
#     Node 9, Type 0, BuildingBlock: QUQFOY_clean_sbu_1, # of connection points: 4
#     Node 10, Type 0, BuildingBlock: QUQFOY_clean_sbu_1, # of connection points: 4
#     Node 11, Type 0, BuildingBlock: QUQFOY_clean_sbu_1, # of connection points: 4
#     Node 12, Type 0, BuildingBlock: QUQFOY_clean_sbu_1, # of connection points: 4
#     Node 13, Type 0, BuildingBlock: QUQFOY_clean_sbu_1, # of connection points: 4
#     Node 14, Type 0, BuildingBlock: QUQFOY_clean_sbu_1, # of connection points: 4
#     Node 15, Type 0, BuildingBlock: QUQFOY_clean_sbu_1, # of connection points: 4
#     Edge 16, Type (0, 0), BuildingBlock: OJICUG_clean_linker_0, # of connection points: 2
#     Edge 17, Type (0, 0), BuildingBlock: OJICUG_clean_linker_0, # of connection points: 2
#     Edge 18, Type (0, 0), BuildingBlock: OJICUG_clean_linker_0, # of connection points: 2
#     Edge 19, Type (0, 0), BuildingBlock: OJICUG_clean_linker_0, # of connection points: 2
#     Edge 20, Type (0, 0), BuildingBlock: OJICUG_clean_linker_0, # of connection points: 2
#     Edge 21, Type (0, 0), BuildingBlock: OJICUG_clean_linker_0, # of connection points: 2
#     Edge 22, Type (0, 0), BuildingBlock: OJICUG_clean_linker_0, # of connection points: 2
#     Edge 23, Type (0, 0), BuildingBlock: OJICUG_clean_linker_0, # of connection points: 2
#     Edge 24, Type (0, 0), BuildingBlock: OJICUG_clean_linker_0, # of connection points: 2
#     Edge 25, Type (0, 0), BuildingBlock: OJICUG_clean_linker_0, # of connection points: 2
#     Edge 26, Type (0, 0), BuildingBlock: OJICUG_clean_linker_0, # of connection points: 2
#     Edge 27, Type (0, 0), BuildingBlock: OJICUG_clean_linker_0, # of connection points: 2
#     Edge 28, Type (0, 0), BuildingBlock: OJICUG_clean_linker_0, # of connection points: 2
#     Edge 29, Type (0, 0), BuildingBlock: OJICUG_clean_linker_0, # of connection points: 2
#     Edge 30, Type (0, 0), BuildingBlock: OJICUG_clean_linker_0, # of connection points: 2
#     Edge 31, Type (0, 0), BuildingBlock: OJICUG_clean_linker_0, # of connection points: 2
#     Edge 32, Type (0, 0), BuildingBlock: OJICUG_clean_linker_0, # of connection points: 2
#     Edge 33, Type (0, 0), BuildingBlock: OJICUG_clean_linker_0, # of connection points: 2
#     Edge 34, Type (0, 0), BuildingBlock: OJICUG_clean_linker_0, # of connection points: 2
#     Edge 35, Type (0, 0), BuildingBlock: OJICUG_clean_linker_0, # of connection points: 2
#     Edge 36, Type (0, 0), BuildingBlock: OJICUG_clean_linker_0, # of connection points: 2
#     Edge 37, Type (0, 0), BuildingBlock: OJICUG_clean_linker_0, # of connection points: 2
#     Edge 38, Type (0, 0), BuildingBlock: OJICUG_clean_linker_0, # of connection points: 2
#     Edge 39, Type (0, 0), BuildingBlock: OJICUG_clean_linker_0, # of connection points: 2
#     Edge 40, Type (0, 0), BuildingBlock: OJICUG_clean_linker_0, # of connection points: 2
#     Edge 41, Type (0, 0), BuildingBlock: OJICUG_clean_linker_0, # of connection points: 2
#     Edge 42, Type (0, 0), BuildingBlock: OJICUG_clean_linker_0, # of connection points: 2
#     Edge 43, Type (0, 0), BuildingBlock: OJICUG_clean_linker_0, # of connection points: 2
#     Edge 44, Type (0, 0), BuildingBlock: OJICUG_clean_linker_0, # of connection points: 2
#     Edge 45, Type (0, 0), BuildingBlock: OJICUG_clean_linker_0, # of connection points: 2
#     Edge 46, Type (0, 0), BuildingBlock: OJICUG_clean_linker_0, # of connection points: 2
#     Edge 47, Type (0, 0), BuildingBlock: OJICUG_clean_linker_0, # of connection points: 2
# Relax obj value: 0.098
# Max RMSD: 0.133
# Mean RMSD: 0.118
data_MOF--net-pcl--node1-QUQFOY_clean_sbu_1--edge1-OJICUG_clean_linker_0
_symmetry_space_group_name_H-M    P1
_symmetry_Int_Tables_number       1
_symmetry_cell_setting            triclinic
loop_
_symmetry_equiv_pos_as_xyz
'x, y, z'
_cell_length_a     38.52795
_cell_length_b     33.526512
_cell_length_c     34.16627
_cell_angle_alpha  89.554577
_cell_angle_beta   89.959955
_cell_angle_gamma 89.885036
loop_
_atom_site_label
_atom_site_type_symbol
_atom_site_fract_x
_atom_site_fract_y
_atom_site_fract_z
_atom_type_partial_charge
O0 O 0.17597 0.31142 0.15858 0.0
Cd1 Cd 0.16485 0.294 0.10246 0.0
Cd2 Cd 0.15413 0.37246 0.08784 0.0
O3 O 0.16853 0.37536 0.14611 0.0
O4 O 0.19103 0.24381 0.09388 0.0
O5 O 0.20099 0.29956 0.0603 0.0
C6 C 0.20903 0.26284 0.0679 0.0
C7 C 0.17285 0.42519 0.04789 0.0
C8 C 0.17581 0.34732 0.17 0.0
C9 C 0.09337 0.31572 0.07801 0.0
O10 O 0.10514 0.351 0.07488 0.0
O11 O 0.11284 0.28718 0.08921 0.0
O12 O 0.15032 0.43037 0.07516 0.0
O13 O 0.18528 0.38979 0.04307 0.0
O14 O 0.85584 0.69459 0.66545 0.0
Cd15 Cd 0.86498 0.70222 0.60589 0.0
Cd16 Cd 0.87078 0.62342 0.6057 0.0
O17 O 0.84955 0.62947 0.66065 0.0
O18 O 0.83973 0.74963 0.58406 0.0
O19 O 0.82558 0.68707 0.5707 0.0
C20 C 0.81946 0.72478 0.56662 0.0
C21 C 0.85259 0.57141 0.56516 0.0
C22 C 0.84859 0.66101 0.68108 0.0
C23 C 0.93595 0.67146 0.59169 0.0
O24 O 0.92261 0.63794 0.60059 0.0
O25 O 0.91671 0.70217 0.58815 0.0
O26 O 0.86969 0.56454 0.59686 0.0
O27 O 0.84475 0.60793 0.55684 0.0
O28 O 0.18057 0.68996 0.85191 0.0
Cd29 Cd 0.17146 0.69185 0.9118 0.0
Cd30 Cd 0.16582 0.6138 0.90511 0.0
O31 O 0.18908 0.62494 0.85199 0.0
O32 O 0.19678 0.73685 0.93703 0.0
O33 O 0.21094 0.67318 0.94542 0.0
C34 C 0.21715 0.71032 0.95229 0.0
C35 C 0.18198 0.55897 0.94372 0.0
C36 C 0.1892 0.65829 0.83399 0.0
C37 C 0.10057 0.66036 0.92188 0.0
O38 O 0.11396 0.62832 0.90912 0.0
O39 O 0.11982 0.69004 0.92964 0.0
O40 O 0.16666 0.55436 0.91058 0.0
O41 O 0.18959 0.59477 0.95429 0.0
O42 O 0.86153 0.31645 0.35996 0.0
Cd43 Cd 0.87031 0.31166 0.41975 0.0
Cd44 Cd 0.8704 0.39043 0.41656 0.0
O45 O 0.84952 0.38075 0.36203 0.0
O46 O 0.84762 0.26321 0.44259 0.0
O47 O 0.8295 0.32504 0.45348 0.0
C48 C 0.82544 0.2871 0.45849 0.0
C49 C 0.85083 0.4423 0.45651 0.0
C50 C 0.85169 0.34842 0.34291 0.0
C51 C 0.93863 0.34865 0.43191 0.0
O52 O 0.92288 0.38017 0.42104 0.0
O53 O 0.92168 0.31665 0.43785 0.0
O54 O 0.8664 0.44939 0.42384 0.0
O55 O 0.84474 0.40559 0.46577 0.0
O56 O 0.87896 0.60674 0.99997 0.0
Cd57 Cd 0.88558 0.66488 0.9816 0.0
Cd58 Cd 0.88059 0.63097 0.911 0.0
O59 O 0.86119 0.58371 0.94334 0.0
O60 O 0.86831 0.69632 0.02661 0.0
O61 O 0.84281 0.69685 0.9684 0.0
C62 C 0.84266 0.70734 1.00475 0.0
C63 C 0.8589 0.6408 0.8474 0.0
C64 C 0.86649 0.5786 0.97973 0.0
C65 C 0.95083 0.66284 0.93814 0.0
O66 O 0.93341 0.64071 0.91534 0.0
O67 O 0.93579 0.68064 0.96623 0.0
O68 O 0.87638 0.60954 0.85703 0.0
O69 O 0.85268 0.66671 0.87426 0.0
O70 O 0.16764 0.41451 0.48705 0.0
Cd71 Cd 0.15827 0.35564 0.47299 0.0
Cd72 Cd 0.15484 0.38938 0.4 0.0
O73 O 0.1745 0.43863 0.42742 0.0
O74 O 0.17687 0.32629 0.51924 0.0
O75 O 0.19894 0.32016 0.45973 0.0
C76 C 0.20053 0.31182 0.49669 0.0
C77 C 0.1715 0.37913 0.33493 0.0
C78 C 0.17507 0.44334 0.46421 0.0
C79 C 0.0888 0.35565 0.43711 0.0
O80 O 0.10341 0.37689 0.41092 0.0
O81 O 0.10668 0.33992 0.46448 0.0
O82 O 0.15274 0.40907 0.34504 0.0
O83 O 0.18175 0.35488 0.36211 0.0
O84 O 0.86708 0.39099 0.02263 0.0
Cd85 Cd 0.87524 0.33205 0.03595 0.0
Cd86 Cd 0.88455 0.36161 0.11109 0.0
O87 O 0.87137 0.41435 0.08247 0.0
O88 O 0.85441 0.3051 0.99017 0.0
O89 O 0.83426 0.29764 0.05053 0.0
C90 C 0.83121 0.29075 0.01352 0.0
C91 C 0.86538 0.35636 0.17606 0.0
C92 C 0.86609 0.42004 0.04614 0.0
C93 C 0.94538 0.32024 0.0708 0.0
O94 O 0.93333 0.3377 0.10082 0.0
O95 O 0.92645 0.31432 0.04094 0.0
O96 O 0.88857 0.38176 0.16549 0.0
O97 O 0.8526 0.33331 0.14968 0.0
O98 O 0.15889 0.62767 0.51266 0.0
Cd99 Cd 0.1515 0.68407 0.53487 0.0
Cd100 Cd 0.1567 0.64705 0.60335 0.0
O101 O 0.17801 0.60337 0.5687 0.0
O102 O 0.17136 0.72369 0.49735 0.0
O103 O 0.19517 0.70886 0.55489 0.0
C104 C 0.19683 0.72749 0.52163 0.0
C105 C 0.17844 0.65262 0.66719 0.0
C106 C 0.1727 0.59942 0.53225 0.0
C107 C 0.08596 0.67776 0.57796 0.0
O108 O 0.10355 0.65417 0.59951 0.0
O109 O 0.10106 0.69825 0.5515 0.0
O110 O 0.16198 0.62153 0.65574 0.0
O111 O 0.18338 0.68101 0.6421 0.0
O112 O 0.6827 0.80913 0.16958 0.0
Cd113 Cd 0.67309 0.79871 0.11085 0.0
Cd114 Cd 0.66487 0.87678 0.10851 0.0
O115 O 0.68765 0.87413 0.1628 0.0
O116 O 0.70058 0.75059 0.09702 0.0
O117 O 0.71047 0.81052 0.07134 0.0
C118 C 0.7191 0.77337 0.07466 0.0
C119 C 0.6795 0.92933 0.06634 0.0
C120 C 0.68967 0.84299 0.18405 0.0
C121 C 0.60127 0.82463 0.09751 0.0
O122 O 0.6137 0.8588 0.10528 0.0
O123 O 0.62134 0.79465 0.09427 0.0
O124 O 0.66266 0.93536 0.09829 0.0
O125 O 0.68897 0.89332 0.05849 0.0
O126 O 0.35703 0.1859 0.65424 0.0
Cd127 Cd 0.36648 0.20414 0.5976 0.0
Cd128 Cd 0.38019 0.12637 0.58417 0.0
O129 O 0.3679 0.12251 0.64306 0.0
O130 O 0.33855 0.25345 0.5898 0.0
O131 O 0.32972 0.19804 0.55619 0.0
C132 C 0.3207 0.23425 0.56414 0.0
C133 C 0.3621 0.07357 0.54477 0.0
C134 C 0.35964 0.15021 0.66652 0.0
C135 C 0.43852 0.18587 0.57202 0.0
O136 O 0.42802 0.15005 0.56959 0.0
O137 O 0.41816 0.21341 0.58326 0.0
O138 O 0.38537 0.06882 0.57137 0.0
O139 O 0.34846 0.10852 0.54046 0.0
O140 O 0.67113 0.18031 0.85669 0.0
Cd141 Cd 0.66189 0.19222 0.91465 0.0
Cd142 Cd 0.6507 0.11343 0.92094 0.0
O143 O 0.66373 0.11541 0.86219 0.0
O144 O 0.68864 0.24133 0.92569 0.0
O145 O 0.69959 0.18304 0.95439 0.0
C146 C 0.70763 0.22009 0.94901 0.0
C147 C 0.67134 0.06026 0.95889 0.0
C148 C 0.67047 0.14599 0.84133 0.0
C149 C 0.59065 0.16923 0.9383 0.0
O150 O 0.60197 0.13366 0.93657 0.0
O151 O 0.61035 0.19862 0.93049 0.0
O152 O 0.64875 0.055 0.93171 0.0
O153 O 0.68311 0.09585 0.96414 0.0
O154 O 0.35623 0.8115 0.34957 0.0
Cd155 Cd 0.36573 0.80938 0.40943 0.0
Cd156 Cd 0.37196 0.88746 0.4016 0.0
O157 O 0.34875 0.8767 0.34851 0.0
O158 O 0.34069 0.76408 0.43534 0.0
O159 O 0.32634 0.82762 0.44327 0.0
C160 C 0.32033 0.79042 0.45059 0.0
C161 C 0.35534 0.94138 0.44041 0.0
C162 C 0.34805 0.8433 0.33112 0.0
C163 C 0.43696 0.84048 0.41884 0.0
O164 O 0.42378 0.87273 0.40579 0.0
O165 O 0.4175 0.81091 0.42687 0.0
O166 O 0.37071 0.94681 0.40731 0.0
O167 O 0.34799 0.9053 0.45082 0.0
O168 O 0.36395 0.0849 0.98385 0.0
Cd169 Cd 0.37213 0.14468 0.97437 0.0
Cd170 Cd 0.38671 0.11692 0.89827 0.0
O171 O 0.37515 0.06273 0.92462 0.0
O172 O 0.35059 0.1684 0.02168 0.0
O173 O 0.33156 0.18087 0.96173 0.0
C174 C 0.32811 0.18529 0.99907 0.0
C175 C 0.37035 0.12366 0.83256 0.0
C176 C 0.36664 0.05623 0.96001 0.0
C177 C 0.44343 0.16023 0.94345 0.0
O178 O 0.43329 0.1439 0.91203 0.0
O179 O 0.42328 0.16335 0.97276 0.0
O180 O 0.39465 0.0997 0.84342 0.0
O181 O 0.3547 0.14403 0.85922 0.0
O182 O 0.65604 0.89318 0.50229 0.0
Cd183 Cd 0.651 0.83554 0.48219 0.0
Cd184 Cd 0.65701 0.87003 0.41259 0.0
O185 O 0.67528 0.91633 0.44583 0.0
O186 O 0.67119 0.79739 0.52112 0.0
O187 O 0.69554 0.81118 0.46364 0.0
C188 C 0.69693 0.79318 0.49723 0.0
C189 C 0.68034 0.86223 0.34975 0.0
C190 C 0.66883 0.92146 0.48191 0.0
C191 C 0.58659 0.83758 0.43666 0.0
O192 O 0.60418 0.86064 0.41464 0.0
O193 O 0.60138 0.81914 0.46475 0.0
O194 O 0.66264 0.89321 0.35924 0.0
O195 O 0.68592 0.83552 0.37641 0.0
O196 O 0.38357 0.86971 0.00894 0.0
Cd197 Cd 0.38843 0.81338 0.03306 0.0
Cd198 Cd 0.38074 0.85097 0.10039 0.0
O199 O 0.36116 0.89412 0.06302 0.0
O200 O 0.36783 0.7735 0.99697 0.0
O201 O 0.34364 0.79131 0.05329 0.0
C202 C 0.3419 0.77161 0.02093 0.0
C203 C 0.35774 0.84738 0.16401 0.0
C204 C 0.36872 0.89805 0.02697 0.0
C205 C 0.45191 0.81809 0.07934 0.0
O206 O 0.43383 0.84245 0.09916 0.0
O207 O 0.43765 0.79769 0.05258 0.0
O208 O 0.37459 0.87802 0.15161 0.0
O209 O 0.35279 0.81855 0.13987 0.0
O210 O 0.66477 0.11055 0.5181 0.0
Cd211 Cd 0.65699 0.16921 0.53283 0.0
Cd212 Cd 0.64513 0.13853 0.60769 0.0
O213 O 0.65853 0.08716 0.5782 0.0
O214 O 0.68079 0.20329 0.49306 0.0
O215 O 0.69845 0.19773 0.55469 0.0
C216 C 0.70305 0.21205 0.51983 0.0
C217 C 0.66106 0.13854 0.67381 0.0
C218 C 0.66479 0.08147 0.54216 0.0
C219 C 0.5862 0.1824 0.56642 0.0
O220 O 0.59726 0.16423 0.59672 0.0
O221 O 0.60586 0.188 0.53701 0.0
O222 O 0.63753 0.11512 0.66061 0.0
O223 O 0.67606 0.16244 0.64933 0.0
C224 C 0.03607 0.29301 0.10325 0.0
C225 C 0.05588 0.30937 0.07262 0.0
H226 H 0.98497 0.28432 0.12694 0.0
C227 C 0.03898 0.32484 0.03943 0.0
H228 H 0.04861 0.28144 0.12935 0.0
C229 C 1.0027 0.32518 0.03745 0.0
C230 C 0.98286 0.3115 0.06931 0.0
H231 H 0.05382 0.33792 0.01565 0.0
H232 H 0.99021 0.33871 0.01223 0.0
C233 C 0.99979 0.29476 0.10193 0.0
C234 C 0.99036 0.70633 0.56799 0.0
C235 C 0.97424 0.67442 0.58788 0.0
H236 H 0.0385 0.73241 0.54872 0.0
C237 C 0.9952 0.64477 0.60504 0.0
H238 H 0.97488 0.72967 0.55452 0.0
C239 C 0.03125 0.64674 0.60245 0.0
C240 C 0.04756 0.67808 0.58202 0.0
H241 H 0.98376 0.61995 0.6209 0.0
H242 H 0.04633 0.62307 0.61596 0.0
C243 C 0.02673 0.70791 0.56471 0.0
C244 C 1.00549 0.63691 0.90861 0.0
C245 C 0.98909 0.66461 0.9332 0.0
H246 H 0.05303 0.61375 0.88624 0.0
C247 C 1.00976 0.692 0.95371 0.0
H248 H 0.99056 0.61524 0.89242 0.0
C249 C 0.04609 0.69138 0.94976 0.0
C250 C 0.0623 0.66286 0.92585 0.0
H251 H 0.99792 0.7137 0.9729 0.0
H252 H 0.06147 0.71262 0.96597 0.0
C253 C 0.0415 0.63586 0.90523 0.0
C254 C 0.03124 0.38118 0.41565 0.0
C255 C 0.05043 0.35242 0.43653 0.0
H256 H 0.98149 0.40272 0.39839 0.0
C257 C 0.0325 0.322 0.45666 0.0
H258 H 0.04408 0.40525 0.40006 0.0
C259 C 0.99603 0.32024 0.45528 0.0
C260 C 0.97704 0.34942 0.43452 0.0
H261 H 0.04661 0.29944 0.47304 0.0
H262 H 0.98275 0.29637 0.47065 0.0
C263 C 0.99517 0.37989 0.41492 0.0
C264 C 0.50564 0.84652 0.10854 0.0
C265 C 0.49005 0.81687 0.08563 0.0
H266 H 0.55251 0.87219 0.12981 0.0
C267 C 0.51147 0.78827 0.06762 0.0
H268 H 0.49014 0.86911 0.12288 0.0
C269 C 0.54773 0.78982 0.07209 0.0
C270 C 0.56311 0.82047 0.09395 0.0
H271 H 0.50027 0.76505 0.04979 0.0
H272 H 0.56372 0.76779 0.05762 0.0
C273 C 0.54157 0.84846 0.11237 0.0
C274 C 0.53155 0.20835 0.59631 0.0
C275 C 0.54888 0.19197 0.564 0.0
H276 H 0.4824 0.22087 0.62323 0.0
C277 C 0.52943 0.17881 0.53186 0.0
H278 H 0.54605 0.21835 0.62154 0.0
C279 C 0.49312 0.17897 0.53341 0.0
C280 C 0.4758 0.19374 0.56645 0.0
H281 H 0.54222 0.16554 0.50688 0.0
H282 H 0.47859 0.16597 0.50958 0.0
C283 C 0.49524 0.2099 0.5972 0.0
C284 C 0.53332 0.19414 0.91549 0.0
C285 C 0.55326 0.17533 0.94464 0.0
H286 H 0.48225 0.20347 0.892 0.0
C287 C 0.53648 0.15649 0.97621 0.0
H288 H 0.54579 0.20828 0.89058 0.0
C289 C 0.50022 0.15495 0.97772 0.0
C290 C 0.48036 0.17087 0.94689 0.0
H291 H 0.55145 0.14142 0.99875 0.0
H292 H 0.48785 0.13858 1.00135 0.0
C293 C 0.49711 0.19129 0.91623 0.0
C294 C 0.49116 0.80902 0.44739 0.0
C295 C 0.47521 0.83767 0.42297 0.0
H296 H 0.53906 0.78653 0.47133 0.0
C297 C 0.49628 0.86455 0.4021 0.0
H298 H 0.47558 0.78785 0.46379 0.0
C299 C 0.53226 0.86336 0.40583 0.0
C300 C 0.54839 0.83563 0.43102 0.0
H301 H 0.48496 0.88673 0.3827 0.0
H302 H 0.54738 0.88501 0.38947 0.0
C303 C 0.52746 0.80825 0.45168 0.0
C304 C 0.1743 0.39518 0.22567 0.0
C305 C 0.18051 0.35639 0.21203 0.0
H306 H 0.16679 0.43269 0.27523 0.0
C307 C 0.18796 0.32593 0.23939 0.0
H308 H 0.1687 0.41943 0.2055 0.0
C309 C 0.18715 0.3337 0.27961 0.0
C310 C 0.17854 0.37193 0.29308 0.0
H311 H 0.19307 0.29576 0.22984 0.0
H312 H 0.19146 0.30936 0.30007 0.0
C313 C 0.17314 0.4028 0.26571 0.0
C314 C 0.8456 0.69063 0.74872 0.0
C315 C 0.84386 0.65719 0.72409 0.0
H316 H 0.85108 0.71171 0.80766 0.0
C317 C 0.84193 0.61899 0.74129 0.0
H318 H 0.847 0.72047 0.73646 0.0
C319 C 0.84474 0.61407 0.78172 0.0
C320 C 0.84889 0.64719 0.80609 0.0
H321 H 0.84028 0.59252 0.72342 0.0
H322 H 0.84512 0.58409 0.79379 0.0
C323 C 0.84784 0.68566 0.78948 0.0
C324 C 0.19783 0.62231 0.77103 0.0
C325 C 0.19423 0.65867 0.79092 0.0
H326 H 0.19566 0.59213 0.71622 0.0
C327 C 0.19082 0.6941 0.76883 0.0
H328 H 0.20082 0.59444 0.78693 0.0
C329 C 0.18839 0.69271 0.72788 0.0
C330 C 0.18883 0.65585 0.70861 0.0
H331 H 0.18814 0.72261 0.78321 0.0
H332 H 0.18376 0.72009 0.71166 0.0
C333 C 0.19483 0.62091 0.73042 0.0
C334 C 0.85371 0.38878 0.23967 0.0
C335 C 0.85505 0.35378 0.21754 0.0
H336 H 0.85033 0.41456 0.29638 0.0
C337 C 0.85056 0.31678 0.23639 0.0
H338 H 0.85692 0.41769 0.22572 0.0
C339 C 0.84752 0.31479 0.2773 0.0
C340 C 0.84812 0.34987 0.2997 0.0
H341 H 0.85165 0.28937 0.21985 0.0
H342 H 0.84618 0.28582 0.29146 0.0
C343 C 0.84981 0.38691 0.2802 0.0
C344 C 0.6935 0.89005 0.28378 0.0
C345 C 0.69074 0.85664 0.30858 0.0
H346 H 0.69631 0.91193 0.22509 0.0
C347 C 0.69316 0.81833 0.29246 0.0
H348 H 0.69207 0.91996 0.29549 0.0
C349 C 0.69513 0.81361 0.25179 0.0
C350 C 0.69516 0.84717 0.22676 0.0
H351 H 0.69107 0.79206 0.31098 0.0
H352 H 0.69473 0.78374 0.23995 0.0
C353 C 0.69597 0.88539 0.24337 0.0
C354 C 0.34782 0.1641 0.77588 0.0
C355 C 0.3624 0.12858 0.79052 0.0
H356 H 0.33555 0.199 0.72486 0.0
C357 C 0.37233 0.09872 0.76416 0.0
H358 H 0.33995 0.18761 0.79558 0.0
C359 C 0.36941 0.10492 0.72388 0.0
C360 C 0.357 0.14144 0.70899 0.0
H361 H 0.38336 0.07087 0.77464 0.0
H362 H 0.37849 0.08175 0.70446 0.0
C363 C 0.3454 0.17061 0.73541 0.0
C364 C 0.66252 0.10714 0.77996 0.0
C365 C 0.67364 0.14218 0.79835 0.0
H366 H 0.6498 0.07871 0.72608 0.0
C367 C 0.68437 0.17469 0.77502 0.0
H368 H 0.65414 0.08152 0.79698 0.0
C369 C 0.68226 0.17287 0.73416 0.0
C370 C 0.66886 0.13875 0.71608 0.0
H371 H 0.69325 0.20205 0.78834 0.0
H372 H 0.68938 0.19884 0.71691 0.0
C373 C 0.65989 0.10558 0.73929 0.0
C374 C 0.3471 0.80817 0.22573 0.0
C375 C 0.3474 0.84487 0.20559 0.0
H376 H 0.34709 0.77867 0.28172 0.0
C377 C 0.3425 0.88015 0.22672 0.0
H378 H 0.3509 0.78052 0.21009 0.0
C379 C 0.33987 0.87915 0.26741 0.0
C380 C 0.34273 0.84284 0.28808 0.0
H381 H 0.3423 0.90884 0.21188 0.0
H382 H 0.33775 0.90722 0.28272 0.0
C383 C 0.34501 0.80716 0.26673 0.0
C384 C 0.28621 0.19513 0.05349 0.0
C385 C 0.29799 0.2063 0.01609 0.0
H386 H 0.2485 0.20364 0.09856 0.0
C387 C 0.28013 0.23635 0.99536 0.0
H388 H 0.29924 0.17183 0.07004 0.0
C389 C 0.25128 0.25528 0.01218 0.0
C390 C 0.23928 0.24348 0.04938 0.0
H391 H 0.28868 0.24545 0.96643 0.0
H392 H 0.23809 0.27867 0.99593 0.0
C393 C 0.25696 0.21313 0.06971 0.0
C394 C 0.75652 0.72062 0.54973 0.0
C395 C 0.78887 0.73923 0.54468 0.0
H396 H 0.7016 0.72375 0.53915 0.0
C397 C 0.7911 0.77351 0.52097 0.0
H398 H 0.75414 0.6943 0.56813 0.0
C399 C 0.76134 0.78938 0.50319 0.0
C400 C 0.72868 0.77213 0.51009 0.0
H401 H 0.81577 0.78836 0.5167 0.0
H402 H 0.76359 0.81646 0.48587 0.0
C403 C 0.72654 0.73741 0.53322 0.0
C404 C 0.27736 0.77023 0.01638 0.0
C405 C 0.30945 0.75178 0.00898 0.0
H406 H 0.22288 0.772 1.00331 0.0
C407 C 0.31039 0.71745 0.98571 0.0
H408 H 0.27602 0.79705 0.03382 0.0
C409 C 0.27984 0.70245 0.96927 0.0
C410 C 0.24813 0.72244 0.97462 0.0
H411 H 0.33485 0.70287 0.97939 0.0
H412 H 0.28136 0.67655 0.95056 0.0
C413 C 0.24704 0.75611 0.99875 0.0
C414 C 0.73188 0.26944 0.48628 0.0
C415 C 0.73443 0.23483 0.50948 0.0
H416 H 0.75917 0.31409 0.45319 0.0
C417 C 0.76738 0.21941 0.51861 0.0
H418 H 0.70669 0.28162 0.47865 0.0
C419 C 0.79726 0.23701 0.50284 0.0
C420 C 0.79467 0.27117 0.47897 0.0
H421 H 0.76989 0.19242 0.53604 0.0
H422 H 0.82233 0.22351 0.50865 0.0
C423 C 0.76183 0.28796 0.47181 0.0
C424 C 0.7719 0.731 0.07718 0.0
C425 C 0.75087 0.75774 0.05612 0.0
H426 H 0.81796 0.69538 0.07775 0.0
C427 C 0.76086 0.76942 0.01815 0.0
H428 H 0.76493 0.72183 0.10663 0.0
C429 C 0.79091 0.75334 1.00107 0.0
C430 C 0.81203 0.72675 0.02242 0.0
H431 H 0.74502 0.79012 1.00142 0.0
H432 H 0.79771 0.76174 0.97137 0.0
C433 C 0.80242 0.71619 0.06077 0.0
C434 C 0.27892 0.24355 0.50814 0.0
C435 C 0.28964 0.25284 0.54632 0.0
H436 H 0.24241 0.25566 0.46187 0.0
C437 C 0.2702 0.28028 0.5681 0.0
H438 H 0.2935 0.22242 0.49078 0.0
C439 C 0.24062 0.29812 0.5522 0.0
C440 C 0.23031 0.28984 0.51369 0.0
H441 H 0.27768 0.28773 0.59772 0.0
H442 H 0.22636 0.31935 0.56978 0.0
C443 C 0.24977 0.26248 0.49167 0.0
C444 C 0.78821 0.28234 0.96023 0.0
C445 C 0.80027 0.27085 0.99742 0.0
H446 H 0.74903 0.27598 0.9165 0.0
C447 C 0.78158 0.24221 0.01902 0.0
H448 H 0.80187 0.30465 0.94308 0.0
C449 C 0.75154 0.22497 1.00326 0.0
C450 C 0.7392 0.23733 0.96639 0.0
H451 H 0.79032 0.23298 0.04783 0.0
H452 H 0.73764 0.20265 0.02012 0.0
C453 C 0.75778 0.26621 0.94515 0.0
C454 C 0.2613 0.73036 0.51692 0.0
C455 C 0.22889 0.74798 0.50911 0.0
H456 H 0.31576 0.72951 0.50356 0.0
C457 C 0.22733 0.78186 0.48474 0.0
H458 H 0.26312 0.70387 0.53518 0.0
C459 C 0.25758 0.79724 0.46767 0.0
C460 C 0.28963 0.77801 0.47346 0.0
H461 H 0.2026 0.79575 0.47806 0.0
H462 H 0.2556 0.82276 0.44814 0.0
C463 C 0.29133 0.7448 0.49866 0.0
C464 C 0.18816 0.48559 0.95595 0.0
C465 C 0.18671 0.52467 0.97053 0.0
H466 H 0.186 0.423 0.9695 0.0
C467 C 0.18521 0.53042 0.01114 0.0
H468 H 0.18936 0.48039 0.92472 0.0
C469 C 0.18238 0.49773 0.03651 0.0
C470 C 0.18205 0.45873 0.02182 0.0
H471 H 0.18388 0.56019 0.02316 0.0
H472 H 0.17919 0.50299 0.06756 0.0
C473 C 0.18636 0.45281 0.9815 0.0
C474 C 0.84475 0.49893 0.55119 0.0
C475 C 0.8453 0.53864 0.53773 0.0
H476 H 0.84497 0.4371 0.53585 0.0
C477 C 0.84286 0.54631 0.49736 0.0
H478 H 0.84643 0.4922 0.5822 0.0
C479 C 0.84271 0.51476 0.4708 0.0
C480 C 0.84413 0.47505 0.48421 0.0
H481 H 0.84331 0.57662 0.48617 0.0
H482 H 0.84288 0.52149 0.43974 0.0
C483 C 0.84375 0.4674 0.52467 0.0
C484 C 0.85376 0.46718 0.99061 0.0
C485 C 0.86143 0.46101 0.03045 0.0
H486 H 0.84889 0.5091 0.94343 0.0
C487 C 0.86719 0.49434 0.05426 0.0
H488 H 0.84889 0.44218 0.97147 0.0
C489 C 0.86727 0.53279 0.03811 0.0
C490 C 0.86143 0.53874 0.99784 0.0
H491 H 0.87301 0.49068 0.08509 0.0
H492 H 0.8731 0.5577 0.05699 0.0
C493 C 0.85367 0.5056 0.97451 0.0
C494 C 0.17657 0.51766 0.45663 0.0
C495 C 0.18047 0.48358 0.4805 0.0
H496 H 0.171 0.5812 0.45427 0.0
C497 C 0.18594 0.48844 0.52081 0.0
H498 H 0.17236 0.51491 0.42542 0.0
C499 C 0.18549 0.52642 0.53726 0.0
C500 C 0.17911 0.56031 0.51381 0.0
H501 H 0.18931 0.46279 0.53992 0.0
H502 H 0.18842 0.52894 0.56867 0.0
C503 C 0.17568 0.55566 0.47316 0.0
C504 C 0.68588 0.03382 0.02528 0.0
C505 C 0.68059 0.02694 0.98528 0.0
H506 H 0.68927 0.0078 0.08268 0.0
C507 C 0.67963 0.98752 0.97166 0.0
H508 H 0.6865 0.06394 0.03651 0.0
C509 C 0.68215 0.95544 0.9979 0.0
C510 C 0.68458 0.96237 0.03825 0.0
H511 H 0.67559 0.98151 0.94089 0.0
H512 H 0.67978 0.92535 0.98688 0.0
C513 C 0.68733 0.00176 0.05166 0.0
C514 C 0.35198 0.96865 0.50791 0.0
C515 C 0.35014 0.97508 0.46732 0.0
H516 H 0.35768 0.99524 0.56435 0.0
C517 C 0.34776 0.01437 0.45284 0.0
H518 H 0.35404 0.93871 0.51985 0.0
C519 C 0.34889 0.04673 0.47846 0.0
C520 C 0.3535 0.04021 0.51874 0.0
H521 H 0.34629 0.02009 0.42163 0.0
H522 H 0.34851 0.07676 0.46653 0.0
C523 C 0.35419 0.00096 0.53334 0.0
C524 C 0.37426 0.94375 0.96865 0.0
C525 C 0.36339 0.93721 0.00747 0.0
H526 H 0.38355 0.98653 0.92294 0.0
C527 C 0.35017 0.96952 0.02886 0.0
H528 H 0.38444 0.91947 0.95129 0.0
C529 C 0.34982 0.00787 0.01271 0.0
C530 C 0.36249 0.01484 0.9747 0.0
H531 H 0.34133 0.96558 0.05873 0.0
H532 H 0.34062 0.03226 0.03058 0.0
C533 C 0.37373 0.98219 0.95237 0.0
C534 C 0.66391 0.00744 0.55285 0.0
C535 C 0.67002 0.0403 0.52793 0.0
H536 H 0.65893 0.94403 0.55796 0.0
C537 C 0.67918 0.03335 0.48878 0.0
H538 H 0.65697 0.01171 0.58326 0.0
C539 C 0.68059 0.99451 0.47439 0.0
C540 C 0.67259 0.96176 0.49875 0.0
H541 H 0.68436 0.05796 0.46891 0.0
H542 H 0.6866 0.99035 0.44372 0.0
C543 C 0.66506 0.96858 0.53838 0.0
loop_
_geom_bond_atom_site_label_1
_geom_bond_atom_site_label_2
_geom_bond_distance
_geom_bond_site_symmetry_2
_ccdc_geom_bond_type
O0 Cd1 2.223 . S
O0 C8 1.315 . S
Cd1 O0 2.223 . S
Cd1 O4 2.297 . S
Cd1 O5 2.439 . S
Cd1 O11 2.240 . S
Cd2 O3 2.240 . S
Cd2 O10 2.223 . S
Cd2 O12 2.297 . S
Cd2 O13 2.439 . S
O3 Cd2 2.240 . S
O3 C8 1.279 . S
O4 Cd1 2.297 . S
O4 C6 1.247 . S
O5 Cd1 2.439 . S
O5 C6 1.208 . S
C6 O4 1.247 . S
C6 O5 1.208 . S
C7 O12 1.247 . S
C7 O13 1.208 . S
C8 O0 1.315 . S
C8 O3 1.279 . S
C9 O10 1.315 . S
C9 O11 1.279 . S
O10 Cd2 2.223 . S
O10 C9 1.315 . S
O11 Cd1 2.240 . S
O11 C9 1.279 . S
O12 Cd2 2.297 . S
O12 C7 1.247 . S
O13 Cd2 2.439 . S
O13 C7 1.208 . S
O14 Cd15 2.223 . S
O14 C22 1.315 . S
Cd15 O14 2.223 . S
Cd15 O18 2.297 . S
Cd15 O19 2.439 . S
Cd15 O25 2.240 . S
Cd16 O17 2.240 . S
Cd16 O24 2.223 . S
Cd16 O26 2.297 . S
Cd16 O27 2.439 . S
O17 Cd16 2.240 . S
O17 C22 1.279 . S
O18 Cd15 2.297 . S
O18 C20 1.247 . S
O19 Cd15 2.439 . S
O19 C20 1.208 . S
C20 O18 1.247 . S
C20 O19 1.208 . S
C21 O26 1.247 . S
C21 O27 1.208 . S
C22 O14 1.315 . S
C22 O17 1.279 . S
C23 O24 1.315 . S
C23 O25 1.279 . S
O24 Cd16 2.223 . S
O24 C23 1.315 . S
O25 Cd15 2.240 . S
O25 C23 1.279 . S
O26 Cd16 2.297 . S
O26 C21 1.247 . S
O27 Cd16 2.439 . S
O27 C21 1.208 . S
O28 Cd29 2.223 . S
O28 C36 1.315 . S
Cd29 O28 2.223 . S
Cd29 O32 2.297 . S
Cd29 O33 2.439 . S
Cd29 O39 2.240 . S
Cd30 O31 2.240 . S
Cd30 O38 2.223 . S
Cd30 O40 2.297 . S
Cd30 O41 2.439 . S
O31 Cd30 2.240 . S
O31 C36 1.279 . S
O32 Cd29 2.297 . S
O32 C34 1.247 . S
O33 Cd29 2.439 . S
O33 C34 1.208 . S
C34 O32 1.247 . S
C34 O33 1.208 . S
C35 O40 1.247 . S
C35 O41 1.208 . S
C36 O28 1.315 . S
C36 O31 1.279 . S
C37 O38 1.315 . S
C37 O39 1.279 . S
O38 Cd30 2.223 . S
O38 C37 1.315 . S
O39 Cd29 2.240 . S
O39 C37 1.279 . S
O40 Cd30 2.297 . S
O40 C35 1.247 . S
O41 Cd30 2.439 . S
O41 C35 1.208 . S
O42 Cd43 2.223 . S
O42 C50 1.315 . S
Cd43 O42 2.223 . S
Cd43 O46 2.297 . S
Cd43 O47 2.439 . S
Cd43 O53 2.240 . S
Cd44 O45 2.240 . S
Cd44 O52 2.223 . S
Cd44 O54 2.297 . S
Cd44 O55 2.439 . S
O45 Cd44 2.240 . S
O45 C50 1.279 . S
O46 Cd43 2.297 . S
O46 C48 1.247 . S
O47 Cd43 2.439 . S
O47 C48 1.208 . S
C48 O46 1.247 . S
C48 O47 1.208 . S
C49 O54 1.247 . S
C49 O55 1.208 . S
C50 O42 1.315 . S
C50 O45 1.279 . S
C51 O52 1.315 . S
C51 O53 1.279 . S
O52 Cd44 2.223 . S
O52 C51 1.315 . S
O53 Cd43 2.240 . S
O53 C51 1.279 . S
O54 Cd44 2.297 . S
O54 C49 1.247 . S
O55 Cd44 2.439 . S
O55 C49 1.208 . S
O56 Cd57 2.223 . S
O56 C64 1.315 . S
Cd57 O56 2.223 . S
Cd57 O60 2.297 . S
Cd57 O61 2.439 . S
Cd57 O67 2.240 . S
Cd58 O59 2.240 . S
Cd58 O66 2.223 . S
Cd58 O68 2.297 . S
Cd58 O69 2.439 . S
O59 Cd58 2.240 . S
O59 C64 1.279 . S
O60 Cd57 2.297 . S
O60 C62 1.247 . S
O61 Cd57 2.439 . S
O61 C62 1.208 . S
C62 O60 1.247 . S
C62 O61 1.208 . S
C63 O68 1.247 . S
C63 O69 1.208 . S
C64 O56 1.315 . S
C64 O59 1.279 . S
C65 O66 1.315 . S
C65 O67 1.279 . S
O66 Cd58 2.223 . S
O66 C65 1.315 . S
O67 Cd57 2.240 . S
O67 C65 1.279 . S
O68 Cd58 2.297 . S
O68 C63 1.247 . S
O69 Cd58 2.439 . S
O69 C63 1.208 . S
O70 Cd71 2.223 . S
O70 C78 1.315 . S
Cd71 O70 2.223 . S
Cd71 O74 2.297 . S
Cd71 O75 2.439 . S
Cd71 O81 2.240 . S
Cd72 O73 2.240 . S
Cd72 O80 2.223 . S
Cd72 O82 2.297 . S
Cd72 O83 2.439 . S
O73 Cd72 2.240 . S
O73 C78 1.279 . S
O74 Cd71 2.297 . S
O74 C76 1.247 . S
O75 Cd71 2.439 . S
O75 C76 1.208 . S
C76 O74 1.247 . S
C76 O75 1.208 . S
C77 O82 1.247 . S
C77 O83 1.208 . S
C78 O70 1.315 . S
C78 O73 1.279 . S
C79 O80 1.315 . S
C79 O81 1.279 . S
O80 Cd72 2.223 . S
O80 C79 1.315 . S
O81 Cd71 2.240 . S
O81 C79 1.279 . S
O82 Cd72 2.297 . S
O82 C77 1.247 . S
O83 Cd72 2.439 . S
O83 C77 1.208 . S
O84 Cd85 2.223 . S
O84 C92 1.315 . S
Cd85 O84 2.223 . S
Cd85 O88 2.297 . S
Cd85 O89 2.439 . S
Cd85 O95 2.240 . S
Cd86 O87 2.240 . S
Cd86 O94 2.223 . S
Cd86 O96 2.297 . S
Cd86 O97 2.439 . S
O87 Cd86 2.240 . S
O87 C92 1.279 . S
O88 Cd85 2.297 . S
O88 C90 1.247 . S
O89 Cd85 2.439 . S
O89 C90 1.208 . S
C90 O88 1.247 . S
C90 O89 1.208 . S
C91 O96 1.247 . S
C91 O97 1.208 . S
C92 O84 1.315 . S
C92 O87 1.279 . S
C93 O94 1.315 . S
C93 O95 1.279 . S
O94 Cd86 2.223 . S
O94 C93 1.315 . S
O95 Cd85 2.240 . S
O95 C93 1.279 . S
O96 Cd86 2.297 . S
O96 C91 1.247 . S
O97 Cd86 2.439 . S
O97 C91 1.208 . S
O98 Cd99 2.223 . S
O98 C106 1.315 . S
Cd99 O98 2.223 . S
Cd99 O102 2.297 . S
Cd99 O103 2.439 . S
Cd99 O109 2.240 . S
Cd100 O101 2.240 . S
Cd100 O108 2.223 . S
Cd100 O110 2.297 . S
Cd100 O111 2.439 . S
O101 Cd100 2.240 . S
O101 C106 1.279 . S
O102 Cd99 2.297 . S
O102 C104 1.247 . S
O103 Cd99 2.439 . S
O103 C104 1.208 . S
C104 O102 1.247 . S
C104 O103 1.208 . S
C105 O110 1.247 . S
C105 O111 1.208 . S
C106 O98 1.315 . S
C106 O101 1.279 . S
C107 O108 1.315 . S
C107 O109 1.279 . S
O108 Cd100 2.223 . S
O108 C107 1.315 . S
O109 Cd99 2.240 . S
O109 C107 1.279 . S
O110 Cd100 2.297 . S
O110 C105 1.247 . S
O111 Cd100 2.439 . S
O111 C105 1.208 . S
O112 Cd113 2.223 . S
O112 C120 1.315 . S
Cd113 O112 2.223 . S
Cd113 O116 2.297 . S
Cd113 O117 2.439 . S
Cd113 O123 2.240 . S
Cd114 O115 2.240 . S
Cd114 O122 2.223 . S
Cd114 O124 2.297 . S
Cd114 O125 2.439 . S
O115 Cd114 2.240 . S
O115 C120 1.279 . S
O116 Cd113 2.297 . S
O116 C118 1.247 . S
O117 Cd113 2.439 . S
O117 C118 1.208 . S
C118 O116 1.247 . S
C118 O117 1.208 . S
C119 O124 1.247 . S
C119 O125 1.208 . S
C120 O112 1.315 . S
C120 O115 1.279 . S
C121 O122 1.315 . S
C121 O123 1.279 . S
O122 Cd114 2.223 . S
O122 C121 1.315 . S
O123 Cd113 2.240 . S
O123 C121 1.279 . S
O124 Cd114 2.297 . S
O124 C119 1.247 . S
O125 Cd114 2.439 . S
O125 C119 1.208 . S
O126 Cd127 2.223 . S
O126 C134 1.315 . S
Cd127 O126 2.223 . S
Cd127 O130 2.297 . S
Cd127 O131 2.439 . S
Cd127 O137 2.240 . S
Cd128 O129 2.240 . S
Cd128 O136 2.223 . S
Cd128 O138 2.297 . S
Cd128 O139 2.439 . S
O129 Cd128 2.240 . S
O129 C134 1.279 . S
O130 Cd127 2.297 . S
O130 C132 1.247 . S
O131 Cd127 2.439 . S
O131 C132 1.208 . S
C132 O130 1.247 . S
C132 O131 1.208 . S
C133 O138 1.247 . S
C133 O139 1.208 . S
C134 O126 1.315 . S
C134 O129 1.279 . S
C135 O136 1.315 . S
C135 O137 1.279 . S
O136 Cd128 2.223 . S
O136 C135 1.315 . S
O137 Cd127 2.240 . S
O137 C135 1.279 . S
O138 Cd128 2.297 . S
O138 C133 1.247 . S
O139 Cd128 2.439 . S
O139 C133 1.208 . S
O140 Cd141 2.223 . S
O140 C148 1.315 . S
Cd141 O140 2.223 . S
Cd141 O144 2.297 . S
Cd141 O145 2.439 . S
Cd141 O151 2.240 . S
Cd142 O143 2.240 . S
Cd142 O150 2.223 . S
Cd142 O152 2.297 . S
Cd142 O153 2.439 . S
O143 Cd142 2.240 . S
O143 C148 1.279 . S
O144 Cd141 2.297 . S
O144 C146 1.247 . S
O145 Cd141 2.439 . S
O145 C146 1.208 . S
C146 O144 1.247 . S
C146 O145 1.208 . S
C147 O152 1.247 . S
C147 O153 1.208 . S
C148 O140 1.315 . S
C148 O143 1.279 . S
C149 O150 1.315 . S
C149 O151 1.279 . S
O150 Cd142 2.223 . S
O150 C149 1.315 . S
O151 Cd141 2.240 . S
O151 C149 1.279 . S
O152 Cd142 2.297 . S
O152 C147 1.247 . S
O153 Cd142 2.439 . S
O153 C147 1.208 . S
O154 Cd155 2.223 . S
O154 C162 1.315 . S
Cd155 O154 2.223 . S
Cd155 O158 2.297 . S
Cd155 O159 2.439 . S
Cd155 O165 2.240 . S
Cd156 O157 2.240 . S
Cd156 O164 2.223 . S
Cd156 O166 2.297 . S
Cd156 O167 2.439 . S
O157 Cd156 2.240 . S
O157 C162 1.279 . S
O158 Cd155 2.297 . S
O158 C160 1.247 . S
O159 Cd155 2.439 . S
O159 C160 1.208 . S
C160 O158 1.247 . S
C160 O159 1.208 . S
C161 O166 1.247 . S
C161 O167 1.208 . S
C162 O154 1.315 . S
C162 O157 1.279 . S
C163 O164 1.315 . S
C163 O165 1.279 . S
O164 Cd156 2.223 . S
O164 C163 1.315 . S
O165 Cd155 2.240 . S
O165 C163 1.279 . S
O166 Cd156 2.297 . S
O166 C161 1.247 . S
O167 Cd156 2.439 . S
O167 C161 1.208 . S
O168 Cd169 2.223 . S
O168 C176 1.315 . S
Cd169 O168 2.223 . S
Cd169 O172 2.297 . S
Cd169 O173 2.439 . S
Cd169 O179 2.240 . S
Cd170 O171 2.240 . S
Cd170 O178 2.223 . S
Cd170 O180 2.297 . S
Cd170 O181 2.439 . S
O171 Cd170 2.240 . S
O171 C176 1.279 . S
O172 Cd169 2.297 . S
O172 C174 1.247 . S
O173 Cd169 2.439 . S
O173 C174 1.208 . S
C174 O172 1.247 . S
C174 O173 1.208 . S
C175 O180 1.247 . S
C175 O181 1.208 . S
C176 O168 1.315 . S
C176 O171 1.279 . S
C177 O178 1.315 . S
C177 O179 1.279 . S
O178 Cd170 2.223 . S
O178 C177 1.315 . S
O179 Cd169 2.240 . S
O179 C177 1.279 . S
O180 Cd170 2.297 . S
O180 C175 1.247 . S
O181 Cd170 2.439 . S
O181 C175 1.208 . S
O182 Cd183 2.223 . S
O182 C190 1.315 . S
Cd183 O182 2.223 . S
Cd183 O186 2.297 . S
Cd183 O187 2.439 . S
Cd183 O193 2.240 . S
Cd184 O185 2.240 . S
Cd184 O192 2.223 . S
Cd184 O194 2.297 . S
Cd184 O195 2.439 . S
O185 Cd184 2.240 . S
O185 C190 1.279 . S
O186 Cd183 2.297 . S
O186 C188 1.247 . S
O187 Cd183 2.439 . S
O187 C188 1.208 . S
C188 O186 1.247 . S
C188 O187 1.208 . S
C189 O194 1.247 . S
C189 O195 1.208 . S
C190 O182 1.315 . S
C190 O185 1.279 . S
C191 O192 1.315 . S
C191 O193 1.279 . S
O192 Cd184 2.223 . S
O192 C191 1.315 . S
O193 Cd183 2.240 . S
O193 C191 1.279 . S
O194 Cd184 2.297 . S
O194 C189 1.247 . S
O195 Cd184 2.439 . S
O195 C189 1.208 . S
O196 Cd197 2.223 . S
O196 C204 1.315 . S
Cd197 O196 2.223 . S
Cd197 O200 2.297 . S
Cd197 O201 2.439 . S
Cd197 O207 2.240 . S
Cd198 O199 2.240 . S
Cd198 O206 2.223 . S
Cd198 O208 2.297 . S
Cd198 O209 2.439 . S
O199 Cd198 2.240 . S
O199 C204 1.279 . S
O200 Cd197 2.297 . S
O200 C202 1.247 . S
O201 Cd197 2.439 . S
O201 C202 1.208 . S
C202 O200 1.247 . S
C202 O201 1.208 . S
C203 O208 1.247 . S
C203 O209 1.208 . S
C204 O196 1.315 . S
C204 O199 1.279 . S
C205 O206 1.315 . S
C205 O207 1.279 . S
O206 Cd198 2.223 . S
O206 C205 1.315 . S
O207 Cd197 2.240 . S
O207 C205 1.279 . S
O208 Cd198 2.297 . S
O208 C203 1.247 . S
O209 Cd198 2.439 . S
O209 C203 1.208 . S
O210 Cd211 2.223 . S
O210 C218 1.315 . S
Cd211 O210 2.223 . S
Cd211 O214 2.297 . S
Cd211 O215 2.439 . S
Cd211 O221 2.240 . S
Cd212 O213 2.240 . S
Cd212 O220 2.223 . S
Cd212 O222 2.297 . S
Cd212 O223 2.439 . S
O213 Cd212 2.240 . S
O213 C218 1.279 . S
O214 Cd211 2.297 . S
O214 C216 1.247 . S
O215 Cd211 2.439 . S
O215 C216 1.208 . S
C216 O214 1.247 . S
C216 O215 1.208 . S
C217 O222 1.247 . S
C217 O223 1.208 . S
C218 O210 1.315 . S
C218 O213 1.279 . S
C219 O220 1.315 . S
C219 O221 1.279 . S
O220 Cd212 2.223 . S
O220 C219 1.315 . S
O221 Cd211 2.240 . S
O221 C219 1.279 . S
O222 Cd212 2.297 . S
O222 C217 1.247 . S
O223 Cd212 2.439 . S
O223 C217 1.208 . S
C224 C225 1.387 . S
C224 H228 0.950 . S
C224 C233 1.390 1_455 S
C225 C224 1.387 . S
C225 C227 1.387 . S
H226 C233 0.950 . S
C227 C225 1.387 . S
C227 C229 1.390 1_455 S
C227 H231 0.950 . S
H228 C224 0.950 . S
C229 C227 1.390 1_655 S
C229 C230 1.387 . S
C229 H232 0.950 . S
C230 C229 1.387 . S
C230 C233 1.387 . S
H231 C227 0.950 . S
H232 C229 0.950 . S
C233 C224 1.390 1_655 S
C233 H226 0.950 . S
C233 C230 1.387 . S
C234 C235 1.387 . S
C234 H238 0.950 . S
C234 C243 1.390 1_655 S
C235 C234 1.387 . S
C235 C237 1.387 . S
H236 C243 0.950 . S
C237 C235 1.387 . S
C237 C239 1.390 1_655 S
C237 H241 0.950 . S
H238 C234 0.950 . S
C239 C237 1.390 1_455 S
C239 C240 1.387 . S
C239 H242 0.950 . S
C240 C239 1.387 . S
C240 C243 1.387 . S
H241 C237 0.950 . S
H242 C239 0.950 . S
C243 C234 1.390 1_455 S
C243 H236 0.950 . S
C243 C240 1.387 . S
C244 C245 1.387 . S
C244 H248 0.950 . S
C244 C253 1.390 1_655 S
C245 C244 1.387 . S
C245 C247 1.387 . S
H246 C253 0.950 . S
C247 C245 1.387 . S
C247 C249 1.390 1_655 S
C247 H251 0.950 . S
H248 C244 0.950 . S
C249 C247 1.390 1_455 S
C249 C250 1.387 . S
C249 H252 0.950 . S
C250 C249 1.387 . S
C250 C253 1.387 . S
H251 C247 0.950 . S
H252 C249 0.950 . S
C253 C244 1.390 1_455 S
C253 H246 0.950 . S
C253 C250 1.387 . S
C254 C255 1.387 . S
C254 H258 0.950 . S
C254 C263 1.390 1_455 S
C255 C254 1.387 . S
C255 C257 1.387 . S
H256 C263 0.950 . S
C257 C255 1.387 . S
C257 C259 1.390 1_455 S
C257 H261 0.950 . S
H258 C254 0.950 . S
C259 C257 1.390 1_655 S
C259 C260 1.387 . S
C259 H262 0.950 . S
C260 C259 1.387 . S
C260 C263 1.387 . S
H261 C257 0.950 . S
H262 C259 0.950 . S
C263 C254 1.390 1_655 S
C263 H256 0.950 . S
C263 C260 1.387 . S
C264 C265 1.387 . S
C264 H268 0.950 . S
C264 C273 1.390 . S
C265 C264 1.387 . S
C265 C267 1.387 . S
H266 C273 0.950 . S
C267 C265 1.387 . S
C267 C269 1.390 . S
C267 H271 0.950 . S
H268 C264 0.950 . S
C269 C267 1.390 . S
C269 C270 1.387 . S
C269 H272 0.950 . S
C270 C269 1.387 . S
C270 C273 1.387 . S
H271 C267 0.950 . S
H272 C269 0.950 . S
C273 C264 1.390 . S
C273 H266 0.950 . S
C273 C270 1.387 . S
C274 C275 1.387 . S
C274 H278 0.950 . S
C274 C283 1.390 . S
C275 C274 1.387 . S
C275 C277 1.387 . S
H276 C283 0.950 . S
C277 C275 1.387 . S
C277 C279 1.390 . S
C277 H281 0.950 . S
H278 C274 0.950 . S
C279 C277 1.390 . S
C279 C280 1.387 . S
C279 H282 0.950 . S
C280 C279 1.387 . S
C280 C283 1.387 . S
H281 C277 0.950 . S
H282 C279 0.950 . S
C283 C274 1.390 . S
C283 H276 0.950 . S
C283 C280 1.387 . S
C284 C285 1.387 . S
C284 H288 0.950 . S
C284 C293 1.390 . S
C285 C284 1.387 . S
C285 C287 1.387 . S
H286 C293 0.950 . S
C287 C285 1.387 . S
C287 C289 1.390 . S
C287 H291 0.950 . S
H288 C284 0.950 . S
C289 C287 1.390 . S
C289 C290 1.387 . S
C289 H292 0.950 . S
C290 C289 1.387 . S
C290 C293 1.387 . S
H291 C287 0.950 . S
H292 C289 0.950 . S
C293 C284 1.390 . S
C293 H286 0.950 . S
C293 C290 1.387 . S
C294 C295 1.387 . S
C294 H298 0.950 . S
C294 C303 1.390 . S
C295 C294 1.387 . S
C295 C297 1.387 . S
H296 C303 0.950 . S
C297 C295 1.387 . S
C297 C299 1.390 . S
C297 H301 0.950 . S
H298 C294 0.950 . S
C299 C297 1.390 . S
C299 C300 1.387 . S
C299 H302 0.950 . S
C300 C299 1.387 . S
C300 C303 1.387 . S
H301 C297 0.950 . S
H302 C299 0.950 . S
C303 C294 1.390 . S
C303 H296 0.950 . S
C303 C300 1.387 . S
C304 C305 1.387 . S
C304 H308 0.950 . S
C304 C313 1.390 . S
C305 C304 1.387 . S
C305 C307 1.387 . S
H306 C313 0.950 . S
C307 C305 1.387 . S
C307 C309 1.390 . S
C307 H311 0.950 . S
H308 C304 0.950 . S
C309 C307 1.390 . S
C309 C310 1.387 . S
C309 H312 0.950 . S
C310 C309 1.387 . S
C310 C313 1.387 . S
H311 C307 0.950 . S
H312 C309 0.950 . S
C313 C304 1.390 . S
C313 H306 0.950 . S
C313 C310 1.387 . S
C314 C315 1.387 . S
C314 H318 0.950 . S
C314 C323 1.390 . S
C315 C314 1.387 . S
C315 C317 1.387 . S
H316 C323 0.950 . S
C317 C315 1.387 . S
C317 C319 1.390 . S
C317 H321 0.950 . S
H318 C314 0.950 . S
C319 C317 1.390 . S
C319 C320 1.387 . S
C319 H322 0.950 . S
C320 C319 1.387 . S
C320 C323 1.387 . S
H321 C317 0.950 . S
H322 C319 0.950 . S
C323 C314 1.390 . S
C323 H316 0.950 . S
C323 C320 1.387 . S
C324 C325 1.387 . S
C324 H328 0.950 . S
C324 C333 1.390 . S
C325 C324 1.387 . S
C325 C327 1.387 . S
H326 C333 0.950 . S
C327 C325 1.387 . S
C327 C329 1.390 . S
C327 H331 0.950 . S
H328 C324 0.950 . S
C329 C327 1.390 . S
C329 C330 1.387 . S
C329 H332 0.950 . S
C330 C329 1.387 . S
C330 C333 1.387 . S
H331 C327 0.950 . S
H332 C329 0.950 . S
C333 C324 1.390 . S
C333 H326 0.950 . S
C333 C330 1.387 . S
C334 C335 1.387 . S
C334 H338 0.950 . S
C334 C343 1.390 . S
C335 C334 1.387 . S
C335 C337 1.387 . S
H336 C343 0.950 . S
C337 C335 1.387 . S
C337 C339 1.390 . S
C337 H341 0.950 . S
H338 C334 0.950 . S
C339 C337 1.390 . S
C339 C340 1.387 . S
C339 H342 0.950 . S
C340 C339 1.387 . S
C340 C343 1.387 . S
H341 C337 0.950 . S
H342 C339 0.950 . S
C343 C334 1.390 . S
C343 H336 0.950 . S
C343 C340 1.387 . S
C344 C345 1.387 . S
C344 H348 0.950 . S
C344 C353 1.390 . S
C345 C344 1.387 . S
C345 C347 1.387 . S
H346 C353 0.950 . S
C347 C345 1.387 . S
C347 C349 1.390 . S
C347 H351 0.950 . S
H348 C344 0.950 . S
C349 C347 1.390 . S
C349 C350 1.387 . S
C349 H352 0.950 . S
C350 C349 1.387 . S
C350 C353 1.387 . S
H351 C347 0.950 . S
H352 C349 0.950 . S
C353 C344 1.390 . S
C353 H346 0.950 . S
C353 C350 1.387 . S
C354 C355 1.387 . S
C354 H358 0.950 . S
C354 C363 1.390 . S
C355 C354 1.387 . S
C355 C357 1.387 . S
H356 C363 0.950 . S
C357 C355 1.387 . S
C357 C359 1.390 . S
C357 H361 0.950 . S
H358 C354 0.950 . S
C359 C357 1.390 . S
C359 C360 1.387 . S
C359 H362 0.950 . S
C360 C359 1.387 . S
C360 C363 1.387 . S
H361 C357 0.950 . S
H362 C359 0.950 . S
C363 C354 1.390 . S
C363 H356 0.950 . S
C363 C360 1.387 . S
C364 C365 1.387 . S
C364 H368 0.950 . S
C364 C373 1.390 . S
C365 C364 1.387 . S
C365 C367 1.387 . S
H366 C373 0.950 . S
C367 C365 1.387 . S
C367 C369 1.390 . S
C367 H371 0.950 . S
H368 C364 0.950 . S
C369 C367 1.390 . S
C369 C370 1.387 . S
C369 H372 0.950 . S
C370 C369 1.387 . S
C370 C373 1.387 . S
H371 C367 0.950 . S
H372 C369 0.950 . S
C373 C364 1.390 . S
C373 H366 0.950 . S
C373 C370 1.387 . S
C374 C375 1.387 . S
C374 H378 0.950 . S
C374 C383 1.390 . S
C375 C374 1.387 . S
C375 C377 1.387 . S
H376 C383 0.950 . S
C377 C375 1.387 . S
C377 C379 1.390 . S
C377 H381 0.950 . S
H378 C374 0.950 . S
C379 C377 1.390 . S
C379 C380 1.387 . S
C379 H382 0.950 . S
C380 C379 1.387 . S
C380 C383 1.387 . S
H381 C377 0.950 . S
H382 C379 0.950 . S
C383 C374 1.390 . S
C383 H376 0.950 . S
C383 C380 1.387 . S
C384 C385 1.387 1_554 S
C384 H388 0.950 . S
C384 C393 1.390 . S
C385 C384 1.387 1_556 S
C385 C387 1.387 . S
H386 C393 0.950 . S
C387 C385 1.387 . S
C387 C389 1.390 1_556 S
C387 H391 0.950 . S
H388 C384 0.950 . S
C389 C387 1.390 1_554 S
C389 C390 1.387 . S
C389 H392 0.950 . S
C390 C389 1.387 . S
C390 C393 1.387 . S
H391 C387 0.950 . S
H392 C389 0.950 . S
C393 C384 1.390 . S
C393 H386 0.950 . S
C393 C390 1.387 . S
C394 C395 1.387 . S
C394 H398 0.950 . S
C394 C403 1.390 . S
C395 C394 1.387 . S
C395 C397 1.387 . S
H396 C403 0.950 . S
C397 C395 1.387 . S
C397 C399 1.390 . S
C397 H401 0.950 . S
H398 C394 0.950 . S
C399 C397 1.390 . S
C399 C400 1.387 . S
C399 H402 0.950 . S
C400 C399 1.387 . S
C400 C403 1.387 . S
H401 C397 0.950 . S
H402 C399 0.950 . S
C403 C394 1.390 . S
C403 H396 0.950 . S
C403 C400 1.387 . S
C404 C405 1.387 . S
C404 H408 0.950 . S
C404 C413 1.390 1_554 S
C405 C404 1.387 . S
C405 C407 1.387 1_554 S
H406 C413 0.950 . S
C407 C405 1.387 1_556 S
C407 C409 1.390 . S
C407 H411 0.950 . S
H408 C404 0.950 . S
C409 C407 1.390 . S
C409 C410 1.387 . S
C409 H412 0.950 . S
C410 C409 1.387 . S
C410 C413 1.387 . S
H411 C407 0.950 . S
H412 C409 0.950 . S
C413 C404 1.390 1_556 S
C413 H406 0.950 . S
C413 C410 1.387 . S
C414 C415 1.387 . S
C414 H418 0.950 . S
C414 C423 1.390 . S
C415 C414 1.387 . S
C415 C417 1.387 . S
H416 C423 0.950 . S
C417 C415 1.387 . S
C417 C419 1.390 . S
C417 H421 0.950 . S
H418 C414 0.950 . S
C419 C417 1.390 . S
C419 C420 1.387 . S
C419 H422 0.950 . S
C420 C419 1.387 . S
C420 C423 1.387 . S
H421 C417 0.950 . S
H422 C419 0.950 . S
C423 C414 1.390 . S
C423 H416 0.950 . S
C423 C420 1.387 . S
C424 C425 1.387 . S
C424 H428 0.950 . S
C424 C433 1.390 . S
C425 C424 1.387 . S
C425 C427 1.387 1_554 S
H426 C433 0.950 . S
C427 C425 1.387 1_556 S
C427 C429 1.390 . S
C427 H431 0.950 . S
H428 C424 0.950 . S
C429 C427 1.390 . S
C429 C430 1.387 . S
C429 H432 0.950 . S
C430 C429 1.387 . S
C430 C433 1.387 1_556 S
H431 C427 0.950 . S
H432 C429 0.950 . S
C433 C424 1.390 . S
C433 H426 0.950 . S
C433 C430 1.387 1_554 S
C434 C435 1.387 . S
C434 H438 0.950 . S
C434 C443 1.390 . S
C435 C434 1.387 . S
C435 C437 1.387 . S
H436 C443 0.950 . S
C437 C435 1.387 . S
C437 C439 1.390 . S
C437 H441 0.950 . S
H438 C434 0.950 . S
C439 C437 1.390 . S
C439 C440 1.387 . S
C439 H442 0.950 . S
C440 C439 1.387 . S
C440 C443 1.387 . S
H441 C437 0.950 . S
H442 C439 0.950 . S
C443 C434 1.390 . S
C443 H436 0.950 . S
C443 C440 1.387 . S
C444 C445 1.387 1_556 S
C444 H448 0.950 . S
C444 C453 1.390 . S
C445 C444 1.387 1_554 S
C445 C447 1.387 . S
H446 C453 0.950 . S
C447 C445 1.387 . S
C447 C449 1.390 . S
C447 H451 0.950 . S
H448 C444 0.950 . S
C449 C447 1.390 . S
C449 C450 1.387 1_554 S
C449 H452 0.950 . S
C450 C449 1.387 1_556 S
C450 C453 1.387 . S
H451 C447 0.950 . S
H452 C449 0.950 . S
C453 C444 1.390 . S
C453 H446 0.950 . S
C453 C450 1.387 . S
C454 C455 1.387 . S
C454 H458 0.950 . S
C454 C463 1.390 . S
C455 C454 1.387 . S
C455 C457 1.387 . S
H456 C463 0.950 . S
C457 C455 1.387 . S
C457 C459 1.390 . S
C457 H461 0.950 . S
H458 C454 0.950 . S
C459 C457 1.390 . S
C459 C460 1.387 . S
C459 H462 0.950 . S
C460 C459 1.387 . S
C460 C463 1.387 . S
H461 C457 0.950 . S
H462 C459 0.950 . S
C463 C454 1.390 . S
C463 H456 0.950 . S
C463 C460 1.387 . S
C464 C465 1.387 . S
C464 H468 0.950 . S
C464 C473 1.390 1_556 S
C465 C464 1.387 . S
C465 C467 1.387 . S
H466 C473 0.950 . S
C467 C465 1.387 . S
C467 C469 1.390 1_556 S
C467 H471 0.950 . S
H468 C464 0.950 . S
C469 C467 1.390 1_554 S
C469 C470 1.387 . S
C469 H472 0.950 . S
C470 C469 1.387 . S
C470 C473 1.387 . S
H471 C467 0.950 . S
H472 C469 0.950 . S
C473 C464 1.390 1_554 S
C473 H466 0.950 . S
C473 C470 1.387 . S
C474 C475 1.387 . S
C474 H478 0.950 . S
C474 C483 1.390 . S
C475 C474 1.387 . S
C475 C477 1.387 . S
H476 C483 0.950 . S
C477 C475 1.387 . S
C477 C479 1.390 . S
C477 H481 0.950 . S
H478 C474 0.950 . S
C479 C477 1.390 . S
C479 C480 1.387 . S
C479 H482 0.950 . S
C480 C479 1.387 . S
C480 C483 1.387 . S
H481 C477 0.950 . S
H482 C479 0.950 . S
C483 C474 1.390 . S
C483 H476 0.950 . S
C483 C480 1.387 . S
C484 C485 1.387 . S
C484 H488 0.950 . S
C484 C493 1.390 1_554 S
C485 C484 1.387 . S
C485 C487 1.387 . S
H486 C493 0.950 . S
C487 C485 1.387 . S
C487 C489 1.390 1_554 S
C487 H491 0.950 . S
H488 C484 0.950 . S
C489 C487 1.390 1_556 S
C489 C490 1.387 . S
C489 H492 0.950 . S
C490 C489 1.387 . S
C490 C493 1.387 . S
H491 C487 0.950 . S
H492 C489 0.950 . S
C493 C484 1.390 1_556 S
C493 H486 0.950 . S
C493 C490 1.387 . S
C494 C495 1.387 . S
C494 H498 0.950 . S
C494 C503 1.390 . S
C495 C494 1.387 . S
C495 C497 1.387 . S
H496 C503 0.950 . S
C497 C495 1.387 . S
C497 C499 1.390 . S
C497 H501 0.950 . S
H498 C494 0.950 . S
C499 C497 1.390 . S
C499 C500 1.387 . S
C499 H502 0.950 . S
C500 C499 1.387 . S
C500 C503 1.387 . S
H501 C497 0.950 . S
H502 C499 0.950 . S
C503 C494 1.390 . S
C503 H496 0.950 . S
C503 C500 1.387 . S
C504 C505 1.387 . S
C504 H508 0.950 . S
C504 C513 1.390 1_546 S
C505 C504 1.387 . S
C505 C507 1.387 . S
H506 C513 0.950 . S
C507 C505 1.387 . S
C507 C509 1.390 1_546 S
C507 H511 0.950 . S
H508 C504 0.950 . S
C509 C507 1.390 1_564 S
C509 C510 1.387 . S
C509 H512 0.950 . S
C510 C509 1.387 . S
C510 C513 1.387 . S
H511 C507 0.950 . S
H512 C509 0.950 . S
C513 C504 1.390 1_564 S
C513 H506 0.950 . S
C513 C510 1.387 . S
C514 C515 1.387 . S
C514 H518 0.950 . S
C514 C523 1.390 1_565 S
C515 C514 1.387 . S
C515 C517 1.387 . S
H516 C523 0.950 . S
C517 C515 1.387 . S
C517 C519 1.390 1_565 S
C517 H521 0.950 . S
H518 C514 0.950 . S
C519 C517 1.390 1_545 S
C519 C520 1.387 . S
C519 H522 0.950 . S
C520 C519 1.387 . S
C520 C523 1.387 . S
H521 C517 0.950 . S
H522 C519 0.950 . S
C523 C514 1.390 1_545 S
C523 H516 0.950 . S
C523 C520 1.387 . S
C524 C525 1.387 . S
C524 H528 0.950 . S
C524 C533 1.390 1_564 S
C525 C524 1.387 . S
C525 C527 1.387 . S
H526 C533 0.950 . S
C527 C525 1.387 . S
C527 C529 1.390 1_564 S
C527 H531 0.950 . S
H528 C524 0.950 . S
C529 C527 1.390 1_546 S
C529 C530 1.387 . S
C529 H532 0.950 . S
C530 C529 1.387 . S
C530 C533 1.387 . S
H531 C527 0.950 . S
H532 C529 0.950 . S
C533 C524 1.390 1_546 S
C533 H526 0.950 . S
C533 C530 1.387 . S
C534 C535 1.387 . S
C534 H538 0.950 . S
C534 C543 1.390 1_545 S
C535 C534 1.387 . S
C535 C537 1.387 . S
H536 C543 0.950 . S
C537 C535 1.387 . S
C537 C539 1.390 1_545 S
C537 H541 0.950 . S
H538 C534 0.950 . S
C539 C537 1.390 1_565 S
C539 C540 1.387 . S
C539 H542 0.950 . S
C540 C539 1.387 . S
C540 C543 1.387 . S
H541 C537 0.950 . S
H542 C539 0.950 . S
C543 C534 1.390 1_565 S
C543 H536 0.950 . S
C543 C540 1.387 . S
C225 C9 1.473 . S
C230 C93 1.493 . S
C235 C23 1.469 . S
C240 C107 1.492 . S
C245 C65 1.493 . S
C250 C37 1.473 . S
C255 C79 1.494 . S
C260 C51 1.472 . S
C265 C205 1.493 . S
C270 C121 1.473 . S
C275 C219 1.493 . S
C280 C135 1.473 . S
C285 C149 1.472 . S
C290 C177 1.494 . S
C295 C163 1.469 . S
C300 C191 1.492 . S
C305 C8 1.598 . S
C310 C77 1.559 . S
C315 C22 1.598 . S
C320 C63 1.560 . S
C325 C36 1.598 . S
C330 C105 1.558 . S
C335 C91 1.558 . S
C340 C50 1.598 . S
C345 C189 1.560 . S
C350 C120 1.598 . S
C355 C175 1.559 . S
C360 C134 1.598 . S
C365 C148 1.598 . S
C370 C217 1.559 . S
C375 C203 1.560 . S
C380 C162 1.598 . S
C385 C174 1.532 . S
C390 C6 1.558 . S
C395 C20 1.557 . S
C400 C188 1.530 . S
C405 C202 1.532 . S
C410 C34 1.558 . S
C415 C216 1.529 . S
C420 C48 1.556 . S
C425 C118 1.558 . S
C430 C62 1.531 . S
C435 C132 1.557 . S
C440 C76 1.531 . S
C445 C90 1.532 . S
C450 C146 1.558 . S
C455 C104 1.532 . S
C460 C160 1.558 . S
C465 C35 1.200 . S
C470 C7 1.200 . S
C475 C21 1.195 . S
C480 C49 1.195 . S
C485 C92 1.929 . S
C490 C64 1.929 . S
C495 C78 1.929 . S
C500 C106 1.929 . S
C505 C147 1.195 . S
C510 C119 1.195 . S
C515 C161 1.195 . S
C520 C133 1.195 . S
C525 C204 1.929 . S
C530 C176 1.929 . S
C535 C218 1.929 . S
C540 C190 1.929 . S
