# Generated by pormake.
# Topology thp-x, (12)-cn, num edge types: 1
# Building blocks:
#     Node 0, Type 0, BuildingBlock: ENOWUB_clean_sbu_0, # of connection points: 12
#     Node 1, Type 0, BuildingBlock: ENOWUB_clean_sbu_0, # of connection points: 12
#     Node 2, Type 0, BuildingBlock: ENOWUB_clean_sbu_0, # of connection points: 12
#     Node 3, Type 0, BuildingBlock: ENOWUB_clean_sbu_0, # of connection points: 12
#     Node 4, Type 0, BuildingBlock: ENOWUB_clean_sbu_0, # of connection points: 12
#     Node 5, Type 0, BuildingBlock: ENOWUB_clean_sbu_0, # of connection points: 12
#     Node 6, Type 0, BuildingBlock: ENOWUB_clean_sbu_0, # of connection points: 12
#     Node 7, Type 0, BuildingBlock: ENOWUB_clean_sbu_0, # of connection points: 12
#     Node 8, Type 0, BuildingBlock: ENOWUB_clean_sbu_0, # of connection points: 12
#     Node 9, Type 0, BuildingBlock: ENOWUB_clean_sbu_0, # of connection points: 12
#     Node 10, Type 0, BuildingBlock: ENOWUB_clean_sbu_0, # of connection points: 12
#     Node 11, Type 0, BuildingBlock: ENOWUB_clean_sbu_0, # of connection points: 12
#     Edge 12, Type (0, 0), BuildingBlock: KIFKEQ_clean_linker_1, # of connection points: 2
#     Edge 13, Type (0, 0), BuildingBlock: KIFKEQ_clean_linker_1, # of connection points: 2
#     Edge 14, Type (0, 0), BuildingBlock: KIFKEQ_clean_linker_1, # of connection points: 2
#     Edge 15, Type (0, 0), BuildingBlock: KIFKEQ_clean_linker_1, # of connection points: 2
#     Edge 16, Type (0, 0), BuildingBlock: KIFKEQ_clean_linker_1, # of connection points: 2
#     Edge 17, Type (0, 0), BuildingBlock: KIFKEQ_clean_linker_1, # of connection points: 2
#     Edge 18, Type (0, 0), BuildingBlock: KIFKEQ_clean_linker_1, # of connection points: 2
#     Edge 19, Type (0, 0), BuildingBlock: KIFKEQ_clean_linker_1, # of connection points: 2
#     Edge 20, Type (0, 0), BuildingBlock: KIFKEQ_clean_linker_1, # of connection points: 2
#     Edge 21, Type (0, 0), BuildingBlock: KIFKEQ_clean_linker_1, # of connection points: 2
#     Edge 22, Type (0, 0), BuildingBlock: KIFKEQ_clean_linker_1, # of connection points: 2
#     Edge 23, Type (0, 0), BuildingBlock: KIFKEQ_clean_linker_1, # of connection points: 2
#     Edge 24, Type (0, 0), BuildingBlock: KIFKEQ_clean_linker_1, # of connection points: 2
#     Edge 25, Type (0, 0), BuildingBlock: KIFKEQ_clean_linker_1, # of connection points: 2
#     Edge 26, Type (0, 0), BuildingBlock: KIFKEQ_clean_linker_1, # of connection points: 2
#     Edge 27, Type (0, 0), BuildingBlock: KIFKEQ_clean_linker_1, # of connection points: 2
#     Edge 28, Type (0, 0), BuildingBlock: KIFKEQ_clean_linker_1, # of connection points: 2
#     Edge 29, Type (0, 0), BuildingBlock: KIFKEQ_clean_linker_1, # of connection points: 2
#     Edge 30, Type (0, 0), BuildingBlock: KIFKEQ_clean_linker_1, # of connection points: 2
#     Edge 31, Type (0, 0), BuildingBlock: KIFKEQ_clean_linker_1, # of connection points: 2
#     Edge 32, Type (0, 0), BuildingBlock: KIFKEQ_clean_linker_1, # of connection points: 2
#     Edge 33, Type (0, 0), BuildingBlock: KIFKEQ_clean_linker_1, # of connection points: 2
#     Edge 34, Type (0, 0), BuildingBlock: KIFKEQ_clean_linker_1, # of connection points: 2
#     Edge 35, Type (0, 0), BuildingBlock: KIFKEQ_clean_linker_1, # of connection points: 2
#     Edge 36, Type (0, 0), BuildingBlock: KIFKEQ_clean_linker_1, # of connection points: 2
#     Edge 37, Type (0, 0), BuildingBlock: KIFKEQ_clean_linker_1, # of connection points: 2
#     Edge 38, Type (0, 0), BuildingBlock: KIFKEQ_clean_linker_1, # of connection points: 2
#     Edge 39, Type (0, 0), BuildingBlock: KIFKEQ_clean_linker_1, # of connection points: 2
#     Edge 40, Type (0, 0), BuildingBlock: KIFKEQ_clean_linker_1, # of connection points: 2
#     Edge 41, Type (0, 0), BuildingBlock: KIFKEQ_clean_linker_1, # of connection points: 2
#     Edge 42, Type (0, 0), BuildingBlock: KIFKEQ_clean_linker_1, # of connection points: 2
#     Edge 43, Type (0, 0), BuildingBlock: KIFKEQ_clean_linker_1, # of connection points: 2
#     Edge 44, Type (0, 0), BuildingBlock: KIFKEQ_clean_linker_1, # of connection points: 2
#     Edge 45, Type (0, 0), BuildingBlock: KIFKEQ_clean_linker_1, # of connection points: 2
#     Edge 46, Type (0, 0), BuildingBlock: KIFKEQ_clean_linker_1, # of connection points: 2
#     Edge 47, Type (0, 0), BuildingBlock: KIFKEQ_clean_linker_1, # of connection points: 2
#     Edge 48, Type (0, 0), BuildingBlock: KIFKEQ_clean_linker_1, # of connection points: 2
#     Edge 49, Type (0, 0), BuildingBlock: KIFKEQ_clean_linker_1, # of connection points: 2
#     Edge 50, Type (0, 0), BuildingBlock: KIFKEQ_clean_linker_1, # of connection points: 2
#     Edge 51, Type (0, 0), BuildingBlock: KIFKEQ_clean_linker_1, # of connection points: 2
#     Edge 52, Type (0, 0), BuildingBlock: KIFKEQ_clean_linker_1, # of connection points: 2
#     Edge 53, Type (0, 0), BuildingBlock: KIFKEQ_clean_linker_1, # of connection points: 2
#     Edge 54, Type (0, 0), BuildingBlock: KIFKEQ_clean_linker_1, # of connection points: 2
#     Edge 55, Type (0, 0), BuildingBlock: KIFKEQ_clean_linker_1, # of connection points: 2
#     Edge 56, Type (0, 0), BuildingBlock: KIFKEQ_clean_linker_1, # of connection points: 2
#     Edge 57, Type (0, 0), BuildingBlock: KIFKEQ_clean_linker_1, # of connection points: 2
#     Edge 58, Type (0, 0), BuildingBlock: KIFKEQ_clean_linker_1, # of connection points: 2
#     Edge 59, Type (0, 0), BuildingBlock: KIFKEQ_clean_linker_1, # of connection points: 2
#     Edge 60, Type (0, 0), BuildingBlock: KIFKEQ_clean_linker_1, # of connection points: 2
#     Edge 61, Type (0, 0), BuildingBlock: KIFKEQ_clean_linker_1, # of connection points: 2
#     Edge 62, Type (0, 0), BuildingBlock: KIFKEQ_clean_linker_1, # of connection points: 2
#     Edge 63, Type (0, 0), BuildingBlock: KIFKEQ_clean_linker_1, # of connection points: 2
#     Edge 64, Type (0, 0), BuildingBlock: KIFKEQ_clean_linker_1, # of connection points: 2
#     Edge 65, Type (0, 0), BuildingBlock: KIFKEQ_clean_linker_1, # of connection points: 2
#     Edge 66, Type (0, 0), BuildingBlock: KIFKEQ_clean_linker_1, # of connection points: 2
#     Edge 67, Type (0, 0), BuildingBlock: KIFKEQ_clean_linker_1, # of connection points: 2
#     Edge 68, Type (0, 0), BuildingBlock: KIFKEQ_clean_linker_1, # of connection points: 2
#     Edge 69, Type (0, 0), BuildingBlock: KIFKEQ_clean_linker_1, # of connection points: 2
#     Edge 70, Type (0, 0), BuildingBlock: KIFKEQ_clean_linker_1, # of connection points: 2
#     Edge 71, Type (0, 0), BuildingBlock: KIFKEQ_clean_linker_1, # of connection points: 2
#     Edge 72, Type (0, 0), BuildingBlock: KIFKEQ_clean_linker_1, # of connection points: 2
#     Edge 73, Type (0, 0), BuildingBlock: KIFKEQ_clean_linker_1, # of connection points: 2
#     Edge 74, Type (0, 0), BuildingBlock: KIFKEQ_clean_linker_1, # of connection points: 2
#     Edge 75, Type (0, 0), BuildingBlock: KIFKEQ_clean_linker_1, # of connection points: 2
#     Edge 76, Type (0, 0), BuildingBlock: KIFKEQ_clean_linker_1, # of connection points: 2
#     Edge 77, Type (0, 0), BuildingBlock: KIFKEQ_clean_linker_1, # of connection points: 2
#     Edge 78, Type (0, 0), BuildingBlock: KIFKEQ_clean_linker_1, # of connection points: 2
#     Edge 79, Type (0, 0), BuildingBlock: KIFKEQ_clean_linker_1, # of connection points: 2
#     Edge 80, Type (0, 0), BuildingBlock: KIFKEQ_clean_linker_1, # of connection points: 2
#     Edge 81, Type (0, 0), BuildingBlock: KIFKEQ_clean_linker_1, # of connection points: 2
#     Edge 82, Type (0, 0), BuildingBlock: KIFKEQ_clean_linker_1, # of connection points: 2
#     Edge 83, Type (0, 0), BuildingBlock: KIFKEQ_clean_linker_1, # of connection points: 2
# Relax obj value: 0.246
# Max RMSD: 0.289
# Mean RMSD: 0.289
data_MOF--net-thp-x--node1-ENOWUB_clean_sbu_0--edge1-KIFKEQ_clean_linker_1
_symmetry_space_group_name_H-M    P1
_symmetry_Int_Tables_number       1
_symmetry_cell_setting            triclinic
loop_
_symmetry_equiv_pos_as_xyz
'x, y, z'
_cell_length_a     35.047473
_cell_length_b     35.029224
_cell_length_c     35.059944
_cell_angle_alpha  90.029913
_cell_angle_beta   90.222631
_cell_angle_gamma 90.146019
loop_
_atom_site_label
_atom_site_type_symbol
_atom_site_fract_x
_atom_site_fract_y
_atom_site_fract_z
_atom_type_partial_charge
O0 O 0.9184 0.27188 0.32633 0.0
O1 O 0.99295 0.30115 0.35114 0.0
O2 O 0.97786 0.22697 0.43086 0.0
O3 O 0.98082 0.22503 0.3519 0.0
O4 O 0.99072 0.30006 0.43076 0.0
Zr5 Zr 0.94846 0.26976 0.3888 0.0
Zr6 Zr 0.03596 0.33062 0.3932 0.0
Zr7 Zr 0.02578 0.25625 0.31329 0.0
O8 O 0.06597 0.28752 0.43376 0.0
O9 O 0.05508 0.21184 0.35472 0.0
O10 O 0.06848 0.28734 0.35445 0.0
Zr11 Zr 0.02097 0.25734 0.47277 0.0
Zr12 Zr 1.00985 0.18235 0.39422 0.0
Zr13 Zr 0.09783 0.24322 0.39495 0.0
O14 O 0.05351 0.21258 0.43475 0.0
O15 O 0.1341 0.23857 0.4518 0.0
O16 O 0.13272 0.24664 0.33528 0.0
O17 O 0.90867 0.26995 0.44385 0.0
O18 O 1.00317 0.19728 0.501 0.0
O19 O 0.03033 0.32779 0.28895 0.0
O20 O 0.0218 0.18505 0.28858 0.0
O21 O 0.02835 0.32058 0.4993 0.0
O22 O 0.10214 0.3359 0.37498 0.0
O23 O 0.94446 0.16446 0.38205 0.0
O24 O 0.06206 0.13815 0.40289 0.0
O25 O 0.98309 0.3739 0.39798 0.0
O26 O 0.09159 0.25114 0.50016 0.0
O27 O 0.96529 0.26264 0.28164 0.0
O28 O 0.08873 0.2506 0.28662 0.0
O29 O 0.94936 0.26437 0.49535 0.0
O30 O 0.92998 0.33583 0.39707 0.0
O31 O 0.11458 0.17685 0.40062 0.0
O32 O 0.13772 0.2978 0.40999 0.0
O33 O 0.90517 0.21622 0.38422 0.0
C34 C 0.93035 0.26759 0.29186 0.0
O35 O 0.04479 0.36381 0.45279 0.0
O36 O 0.03645 0.37018 0.33893 0.0
C37 C 0.12673 0.24439 0.487 0.0
C38 C 0.12313 0.2491 0.2998 0.0
C39 C 0.91466 0.26769 0.47981 0.0
C40 C 0.9917 0.16426 0.4891 0.0
C41 C 0.03363 0.363 0.30335 0.0
C42 C 1.0171 0.15012 0.30306 0.0
C43 C 0.03767 0.35427 0.48749 0.0
C44 C 0.12872 0.3315 0.39928 0.0
C45 C 0.91137 0.1803 0.38032 0.0
C46 C 0.09822 0.1441 0.40448 0.0
C47 C 0.94699 0.36832 0.4005 0.0
O48 O 1.01208 0.14353 0.33857 0.0
O49 O 0.99192 0.15271 0.4542 0.0
O50 O 0.4126 0.79682 0.83788 0.0
O51 O 0.48478 0.81179 0.86018 0.0
O52 O 0.47586 0.72762 0.93116 0.0
O53 O 0.47438 0.73529 0.85151 0.0
O54 O 0.486 0.80107 0.93986 0.0
Zr55 Zr 0.44375 0.77436 0.8957 0.0
Zr56 Zr 0.52666 0.84073 0.90352 0.0
Zr57 Zr 0.51692 0.7728 0.81567 0.0
O58 O 0.55897 0.79234 0.93689 0.0
O59 O 0.55017 0.72635 0.85114 0.0
O60 O 0.55924 0.80208 0.85932 0.0
Zr61 Zr 0.51974 0.75365 0.975 0.0
Zr62 Zr 0.50771 0.69003 0.88786 0.0
Zr63 Zr 0.59297 0.7553 0.89341 0.0
O64 O 0.55205 0.71637 0.92985 0.0
O65 O 0.63143 0.74157 0.94798 0.0
O66 O 0.62459 0.77151 0.83403 0.0
O67 O 0.40637 0.76577 0.95142 0.0
O68 O 0.51123 0.68859 0.99555 0.0
O69 O 0.52088 0.84576 0.79689 0.0
O70 O 0.51037 0.70411 0.78344 0.0
O71 O 0.55065 0.81386 0.98891 0.0
O72 O 0.59291 0.85133 0.8886 0.0
O73 O 0.44203 0.66972 0.88001 0.0
O74 O 0.56309 0.64985 0.88141 0.0
O75 O 0.47084 0.87991 0.91334 0.0
O76 O 0.59032 0.7417 0.9992 0.0
O77 O 0.45598 0.79127 0.78933 0.0
O78 O 0.57906 0.77256 0.78666 0.0
O79 O 0.449 0.757 1.00094 0.0
O80 O 0.42239 0.83647 0.91537 0.0
O81 O 0.61403 0.69068 0.88379 0.0
O82 O 0.62916 0.80918 0.91803 0.0
O83 O 0.40212 0.72101 0.88364 0.0
C84 C 0.42306 0.80058 0.80287 0.0
O85 O 0.53037 0.86832 0.96709 0.0
O86 O 0.5238 0.88387 0.85047 0.0
C87 C 0.62507 0.73898 0.98385 0.0
C88 C 0.61369 0.77496 0.79903 0.0
C89 C 0.41373 0.76026 0.98674 0.0
C90 C 0.50374 0.6562 0.97966 0.0
C91 C 0.52229 0.87973 0.81411 0.0
C92 C 0.50716 0.66769 0.79466 0.0
C93 C 0.53205 0.84429 0.99454 0.0
C94 C 0.61886 0.84383 0.9128 0.0
C95 C 0.40877 0.68529 0.87895 0.0
C96 C 0.599 0.65724 0.88062 0.0
C97 C 0.43592 0.87042 0.91927 0.0
O98 O 0.50559 0.6575 0.82945 0.0
O99 O 0.50156 0.64986 0.94358 0.0
O100 O 0.03547 0.6853 0.03942 0.0
O101 O 0.06526 0.72069 0.10686 0.0
O102 O 0.97445 0.77831 0.10444 0.0
O103 O 0.99059 0.70312 0.10736 0.0
O104 O 0.04759 0.79503 0.10256 0.0
Zr105 Zr 1.01898 0.74668 0.06556 0.0
Zr106 Zr 0.09308 0.76856 0.1441 0.0
Zr107 Zr 0.03756 0.67678 0.14737 0.0
O108 O 0.04803 0.79903 0.18172 0.0
O109 O 0.99173 0.70778 0.18586 0.0
O110 O 0.06562 0.7241 0.18555 0.0
Zr111 Zr 1.0022 0.82646 0.14075 0.0
Zr112 Zr 0.94578 0.73495 0.14569 0.0
Zr113 Zr 0.02036 0.75513 0.2242 0.0
O114 O 0.97436 0.78264 0.18309 0.0
O115 O 1.01502 0.82688 0.24684 0.0
O116 O 0.02999 0.6859 0.25315 0.0
O117 O 1.00256 0.80527 0.03416 0.0
O118 O 0.93609 0.8395 0.15388 0.0
O119 O 0.10502 0.66456 0.1561 0.0
O120 O 0.98732 0.62994 0.15475 0.0
O121 O 0.05291 0.87354 0.14096 0.0
O122 O 0.12183 0.79144 0.20298 0.0
O123 O 0.90567 0.7269 0.09181 0.0
O124 O 0.9141 0.72897 0.20661 0.0
O125 O 0.13293 0.76541 0.08985 0.0
O126 O 1.00263 0.86641 0.19584 0.0
O127 O 0.04939 0.64326 0.08785 0.0
O128 O 0.04283 0.64293 0.20521 0.0
O129 O 0.98843 0.85233 0.07768 0.0
O130 O 0.09045 0.75246 0.04101 0.0
O131 O 0.95834 0.74536 0.25265 0.0
O132 O 0.08058 0.7754 0.25127 0.0
O133 O 0.94736 0.73598 0.04176 0.0
C134 C 0.04733 0.65292 0.05243 0.0
O135 O 0.08524 0.82944 0.11237 0.0
O136 O 0.14022 0.71938 0.15199 0.0
C137 C 1.00909 0.86118 0.23143 0.0
C138 C 0.03765 0.65083 0.24034 0.0
C139 C 0.99053 0.83881 0.04347 0.0
C140 C 0.90676 0.82402 0.13839 0.0
C141 C 0.13677 0.68321 0.15691 0.0
C142 C 0.95395 0.64166 0.14622 0.0
C143 C 0.08527 0.86066 0.13072 0.0
C144 C 0.11194 0.78983 0.23832 0.0
C145 C 0.91243 0.72993 0.05604 0.0
C146 C 0.92466 0.73527 0.24136 0.0
C147 C 0.12567 0.75842 0.05474 0.0
O148 O 0.95165 0.66969 0.12344 0.0
O149 O 0.90415 0.78818 0.13099 0.0
O150 O 0.29136 1.00988 0.19649 0.0
O151 O 0.35646 0.05 0.22344 0.0
O152 O 0.35845 0.9872 0.31137 0.0
O153 O 0.35763 0.97537 0.23506 0.0
O154 O 0.35795 0.06158 0.29791 0.0
Zr155 Zr 0.31739 1.01766 0.26745 0.0
Zr156 Zr 0.39545 0.09522 0.25401 0.0
Zr157 Zr 0.3968 1.00684 0.19096 0.0
O158 O 0.43646 0.06356 0.29692 0.0
O159 O 0.43659 0.97531 0.23409 0.0
O160 O 0.43528 0.05178 0.22218 0.0
Zr161 Zr 0.39898 0.03143 0.34103 0.0
Zr162 Zr 0.39709 0.94507 0.27909 0.0
Zr163 Zr 0.47641 0.02037 0.26475 0.0
O164 O 0.43821 0.98798 0.30946 0.0
O165 O 0.50605 0.03678 0.32459 0.0
O166 O 0.50525 1.01602 0.20297 0.0
O167 O 0.29479 0.02082 0.33957 0.0
O168 O 0.40556 0.97827 0.38398 0.0
O169 O 0.38055 0.06048 0.15048 0.0
O170 O 0.39089 0.94021 0.17294 0.0
O171 O 0.37153 0.0947 0.33918 0.0
O172 O 0.4506 0.13427 0.25077 0.0
O173 O 0.3365 0.91272 0.28806 0.0
O174 O 0.4526 0.9069 0.277 0.0
O175 O 0.33383 0.1267 0.25301 0.0
O176 O 0.45984 0.05015 0.36898 0.0
O177 O 0.34049 0.99957 0.1542 0.0
O178 O 0.45752 1.01451 0.15788 0.0
O179 O 0.34503 0.02952 0.38154 0.0
O180 O 0.2886 0.07989 0.26282 0.0
O181 O 0.50215 0.94939 0.26877 0.0
O182 O 0.50042 0.0919 0.25814 0.0
O183 O 0.28853 0.95619 0.27813 0.0
C184 C 0.30502 1.00338 0.16148 0.0
O185 O 0.40399 0.13733 0.3081 0.0
O186 O 0.41336 0.09841 0.18775 0.0
C187 C 0.4947 0.04909 0.35734 0.0
C188 C 0.49284 1.01677 0.16835 0.0
C189 C 0.30942 0.02486 0.37465 0.0
C190 C 0.4087 0.94227 0.37786 0.0
C191 C 0.38839 0.09426 0.16184 0.0
C192 C 0.38679 0.90785 0.19001 0.0
C193 C 0.39257 0.1242 0.34 0.0
C194 C 0.48625 0.12704 0.25381 0.0
C195 C 0.30113 0.92249 0.28579 0.0
C196 C 0.48802 0.91413 0.27258 0.0
C197 C 0.29933 0.11489 0.25833 0.0
O198 O 0.38884 0.90237 0.22613 0.0
O199 O 0.40641 0.92601 0.34493 0.0
O200 O 0.20109 0.28882 1.01305 0.0
O201 O 0.22561 0.35687 0.0493 0.0
O202 O 0.31439 0.35819 0.98773 0.0
O203 O 0.23758 0.356 0.97475 0.0
O204 O 0.30197 0.35812 0.06296 0.0
Zr205 Zr 0.27083 0.31741 0.01902 0.0
Zr206 Zr 0.2561 0.39764 0.09223 0.0
Zr207 Zr 0.19229 0.39498 1.00569 0.0
O208 O 0.29926 0.43689 0.05971 0.0
O209 O 0.23684 0.43518 0.97595 0.0
O210 O 0.22301 0.43731 0.04919 0.0
Zr211 Zr 0.34595 0.39807 0.03091 0.0
Zr212 Zr 0.28174 0.39697 0.94517 0.0
Zr213 Zr 0.26684 0.47894 1.01805 0.0
O214 O 0.31243 0.43862 0.98784 0.0
O215 O 0.32781 0.46867 0.04818 0.0
O216 O 0.20659 0.46802 0.98654 0.0
O217 O 0.34202 0.29244 0.02369 0.0
O218 O 0.38616 0.40338 0.97544 0.0
O219 O 0.15038 0.39494 0.0604 0.0
O220 O 0.17616 0.39031 0.93857 0.0
O221 O 0.34786 0.37887 0.09719 0.0
O222 O 0.25066 0.45496 0.12855 0.0
O223 O 0.29891 0.33668 0.91527 0.0
O224 O 0.2795 0.45411 0.90771 0.0
O225 O 0.24798 0.33706 0.12491 0.0
O226 O 0.3855 0.45453 0.03734 0.0
O227 O 0.15727 0.33694 1.00456 0.0
O228 O 0.15139 0.45072 1.00407 0.0
O229 O 0.38447 0.34253 0.02886 0.0
O230 O 0.25792 0.28965 0.08067 0.0
O231 O 0.27644 0.50581 0.94846 0.0
O232 O 0.25481 0.50622 0.08745 0.0
O233 O 0.28699 0.28904 0.95867 0.0
C234 C 0.16553 0.3017 1.0086 0.0
O235 O 0.30895 0.40937 0.13531 0.0
O236 O 0.19055 0.40315 0.11102 0.0
C237 C 0.36029 0.48037 0.03776 0.0
C238 C 0.17458 0.47811 0.99948 0.0
C239 C 0.37729 0.30685 0.02603 0.0
C240 C 0.37929 0.4101 0.94006 0.0
C241 C 0.15714 0.4007 0.09597 0.0
C242 C 0.1933 0.38833 0.90615 0.0
C243 C 0.34294 0.40245 0.12426 0.0
C244 C 0.25124 0.49096 0.12227 0.0
C245 C 0.29864 0.30149 0.92607 0.0
C246 C 0.27823 0.4902 0.9137 0.0
C247 C 0.24886 0.30185 0.11421 0.0
O248 O 0.22947 0.39043 0.90106 0.0
O249 O 0.346 0.41005 0.92455 0.0
O250 O 0.59557 0.40816 0.24584 0.0
O251 O 0.61066 0.47578 0.29684 0.0
O252 O 0.68922 0.49152 0.22433 0.0
O253 O 0.61089 0.48785 0.22267 0.0
O254 O 0.69021 0.47905 0.29854 0.0
Zr255 Zr 0.6522 0.445 0.25402 0.0
Zr256 Zr 0.64831 0.50723 0.34198 0.0
Zr257 Zr 0.56973 0.51929 0.26584 0.0
O258 O 0.68656 0.55365 0.31145 0.0
O259 O 0.60909 0.56469 0.23596 0.0
O260 O 0.60816 0.55123 0.31101 0.0
Zr261 Zr 0.72883 0.52516 0.2676 0.0
Zr262 Zr 0.64903 0.53393 0.19293 0.0
Zr263 Zr 0.64678 0.59771 0.28167 0.0
O264 O 0.68672 0.56723 0.2375 0.0
O265 O 0.70672 0.63058 0.29518 0.0
O266 O 0.5907 0.63453 0.2825 0.0
O267 O 0.71384 0.41424 0.26318 0.0
O268 O 0.75448 0.53658 0.19733 0.0
O269 O 0.5404 0.50441 0.32634 0.0
O270 O 0.54167 0.53349 0.20489 0.0
O271 O 0.75406 0.5159 0.33866 0.0
O272 O 0.65054 0.55823 0.3881 0.0
O273 O 0.65734 0.48044 0.15011 0.0
O274 O 0.67424 0.59804 0.20049 0.0
O275 O 0.67046 0.44183 0.34556 0.0
O276 O 0.75417 0.58758 0.28081 0.0
O277 O 0.54499 0.44853 0.25672 0.0
O278 O 0.54301 0.59024 0.27136 0.0
O279 O 0.74102 0.46422 0.23802 0.0
O280 O 0.64227 0.40173 0.30632 0.0
O281 O 0.64051 0.64126 0.22839 0.0
O282 O 0.62194 0.59422 0.34609 0.0
O283 O 0.65795 0.4273 0.18801 0.0
C284 C 0.55978 0.41416 0.24987 0.0
O285 O 0.70414 0.50578 0.3802 0.0
O286 O 0.58747 0.49257 0.37077 0.0
C287 C 0.74197 0.6204 0.29211 0.0
C288 C 0.55568 0.62596 0.27682 0.0
C289 C 0.74388 0.4345 0.25832 0.0
C290 C 0.74002 0.5396 0.16205 0.0
C291 C 0.55243 0.49402 0.35964 0.0
C292 C 0.55339 0.54475 0.17193 0.0
C293 C 0.73978 0.50997 0.37351 0.0
C294 C 0.64319 0.59158 0.37544 0.0
C295 C 0.65967 0.44419 0.15546 0.0
C296 C 0.65316 0.62728 0.1974 0.0
C297 C 0.64866 0.41319 0.34032 0.0
O298 O 0.58851 0.54717 0.16119 0.0
O299 O 0.70424 0.53899 0.15455 0.0
O300 O 0.75208 0.08752 0.90555 0.0
O301 O 0.79678 0.10115 0.97305 0.0
O302 O 0.72373 0.18179 0.98953 0.0
O303 O 0.72188 0.10257 0.99098 0.0
O304 O 0.79903 0.17981 0.9721 0.0
Zr305 Zr 0.75158 0.1415 0.94514 0.0
Zr306 Zr 0.84314 0.13876 1.00117 0.0
Zr307 Zr 0.76747 0.06362 0.02027 0.0
O308 O 0.81613 0.18188 0.04445 0.0
O309 O 0.74101 0.106 0.06507 0.0
O310 O 0.81364 0.10315 0.04882 0.0
Zr311 Zr 0.77063 0.22197 1.01572 0.0
Zr312 Zr 0.69466 0.14348 0.0365 0.0
Zr313 Zr 0.78678 0.14682 0.09186 0.0
O314 O 0.74043 0.18525 0.06314 0.0
O315 O 0.80446 0.20856 0.11892 0.0
O316 O 0.78582 0.09205 0.13169 0.0
O317 O 0.73214 0.20091 0.91557 0.0
O318 O 0.70027 0.24852 0.02231 0.0
O319 O 0.82639 0.03176 1.0089 0.0
O320 O 0.70736 0.03525 0.0378 0.0
O321 O 0.84239 0.24492 1.00956 0.0
O322 O 0.88958 0.13045 0.05136 0.0
O323 O 0.64742 0.14543 0.98573 0.0
O324 O 0.68252 0.15484 0.1029 0.0
O325 O 0.85561 0.1487 0.93428 0.0
O326 O 0.7877 0.25327 0.07405 0.0
O327 O 0.7634 0.03893 0.94852 0.0
O328 O 0.77562 0.04089 0.0915 0.0
O329 O 0.75403 0.24901 0.95467 0.0
O330 O 0.8012 0.14907 0.89802 0.0
O331 O 0.73693 0.15521 0.13894 0.0
O332 O 0.85313 0.13359 0.10516 0.0
O333 O 0.68905 0.11305 0.95365 0.0
C334 C 0.75833 0.05247 0.91315 0.0
O335 O 0.88304 0.19392 1.00144 0.0
O336 O 0.87173 0.07583 0.99138 0.0
C337 C 0.80177 0.24312 0.10652 0.0
C338 C 0.78106 0.05631 0.12588 0.0
C339 C 0.73765 0.23628 0.92413 0.0
C340 C 0.66528 0.23534 0.02971 0.0
C341 C 0.85968 0.04138 0.99683 0.0
C342 C 0.67514 0.0475 0.05064 0.0
C343 C 0.87708 0.22972 1.00556 0.0
C344 C 0.88491 0.12811 0.08757 0.0
C345 C 0.65888 0.133 0.95355 0.0
C346 C 0.70061 0.15834 0.13473 0.0
C347 C 0.83745 0.15253 0.90247 0.0
O348 O 0.66453 0.08273 0.05215 0.0
O349 O 0.658 0.20038 0.03727 0.0
O350 O 0.25356 0.59384 0.40359 0.0
O351 O 0.30029 0.61186 0.4787 0.0
O352 O 0.22689 0.68975 0.4851 0.0
O353 O 0.22289 0.61239 0.48466 0.0
O354 O 0.30089 0.69029 0.47738 0.0
Zr355 Zr 0.25928 0.64947 0.4414 0.0
Zr356 Zr 0.34282 0.65124 0.51334 0.0
Zr357 Zr 0.26383 0.57109 0.51807 0.0
O358 O 0.30649 0.69001 0.55347 0.0
O359 O 0.23108 0.61164 0.56124 0.0
O360 O 0.30618 0.61083 0.55372 0.0
Zr361 Zr 0.26725 0.73257 0.5187 0.0
Zr362 Zr 0.19043 0.65233 0.52799 0.0
Zr363 Zr 0.27348 0.65038 0.59626 0.0
O364 O 0.23296 0.69217 0.56135 0.0
O365 O 0.27565 0.70621 0.63693 0.0
O366 O 0.27175 0.5931 0.6322 0.0
O367 O 0.26144 0.70488 0.40029 0.0
O368 O 0.198 0.76088 0.52845 0.0
O369 O 0.32739 0.56304 0.49326 0.0
O370 O 0.20143 0.54404 0.52648 0.0
O371 O 0.33698 0.75971 0.50981 0.0
O372 O 0.37818 0.67017 0.56951 0.0
O373 O 0.15002 0.66141 0.47279 0.0
O374 O 0.16846 0.66128 0.5932 0.0
O375 O 0.35467 0.6638 0.44679 0.0
O376 O 0.2935 0.72097 0.58112 0.0
O377 O 0.25644 0.54444 0.4471 0.0
O378 O 0.27094 0.54389 0.5885 0.0
O379 O 0.24303 0.72156 0.45543 0.0
O380 O 0.31717 0.62947 0.40966 0.0
O381 O 0.21835 0.65666 0.63495 0.0
O382 O 0.34041 0.63878 0.60895 0.0
O383 O 0.19254 0.63131 0.43916 0.0
C384 C 0.25383 0.55822 0.41148 0.0
O385 O 0.37914 0.70899 0.50847 0.0
O386 O 0.37421 0.58989 0.5244 0.0
C387 C 0.28016 0.73246 0.61255 0.0
C388 C 0.27188 0.55754 0.62416 0.0
C389 C 0.25783 0.73174 0.42421 0.0
C390 C 0.16275 0.74637 0.53119 0.0
C391 C 0.35539 0.55964 0.51587 0.0
C392 C 0.16736 0.55618 0.53287 0.0
C393 C 0.37206 0.74496 0.50777 0.0
C394 C 0.36612 0.6639 0.60333 0.0
C395 C 0.16556 0.65543 0.44049 0.0
C396 C 0.18319 0.66216 0.62697 0.0
C397 C 0.35062 0.63806 0.42157 0.0
O398 O 0.15672 0.59145 0.53355 0.0
O399 O 0.15546 0.71054 0.53134 0.0
O400 O 0.79108 0.52245 0.69725 0.0
O401 O 0.85846 0.5611 0.72585 0.0
O402 O 0.85615 0.49063 0.80863 0.0
O403 O 0.8574 0.48618 0.73285 0.0
O404 O 0.85875 0.56729 0.80329 0.0
Zr405 Zr 0.81769 0.52755 0.76791 0.0
Zr406 Zr 0.89901 0.60103 0.76117 0.0
Zr407 Zr 0.89743 0.51863 0.69057 0.0
O408 O 0.93516 0.56377 0.80396 0.0
O409 O 0.93641 0.48524 0.73372 0.0
O410 O 0.93872 0.55943 0.72654 0.0
Zr411 Zr 0.89481 0.53024 0.84652 0.0
Zr412 Zr 0.89615 0.45059 0.77382 0.0
Zr413 Zr 0.97834 0.52523 0.76944 0.0
O414 O 0.93637 0.49021 0.81044 0.0
O415 O 0.96527 0.54565 0.8335 0.0
O416 O 0.97089 0.49669 0.70692 0.0
O417 O 0.79174 0.53421 0.83929 0.0
O418 O 0.86838 0.47147 0.87201 0.0
O419 O 0.89484 0.57464 0.65115 0.0
O420 O 0.88877 0.45346 0.67003 0.0
O421 O 0.87766 0.59732 0.84866 0.0
O422 O 0.95457 0.63938 0.7598 0.0
O423 O 0.83401 0.41956 0.7701 0.0
O424 O 0.95408 0.41422 0.77384 0.0
O425 O 0.83952 0.63419 0.74814 0.0
O426 O 0.94974 0.52547 0.88838 0.0
O427 O 0.84043 0.51802 0.65437 0.0
O428 O 0.95399 0.51598 0.65183 0.0
O429 O 0.84018 0.53794 0.88411 0.0
O430 O 0.79192 0.58944 0.75413 0.0
O431 O 1.00525 0.45583 0.77775 0.0
O432 O 1.00462 0.59646 0.76132 0.0
O433 O 0.78762 0.4659 0.77047 0.0
C434 C 0.80494 0.51973 0.66192 0.0
O435 O 0.90889 0.64047 0.81685 0.0
O436 O 0.9256 0.60225 0.69742 0.0
C437 C 0.97624 0.53061 0.86441 0.0
C438 C 0.98093 0.51165 0.67562 0.0
C439 C 0.80482 0.53747 0.87521 0.0
C440 C 0.87564 0.43688 0.86266 0.0
C441 C 0.90541 0.6054 0.66742 0.0
C442 C 0.88711 0.41927 0.68338 0.0
C443 C 0.90204 0.62427 0.84867 0.0
C444 C 0.99029 0.63196 0.75947 0.0
C445 C 0.79903 0.43098 0.76885 0.0
C446 C 0.99002 0.42088 0.77654 0.0
C447 C 0.80447 0.62316 0.7462 0.0
O448 O 0.89169 0.41022 0.71855 0.0
O449 O 0.90158 0.42912 0.83863 0.0
O450 O 0.69448 0.80247 0.51694 0.0
O451 O 0.72423 0.86706 0.55305 0.0
O452 O 0.81226 0.86119 0.49064 0.0
O453 O 0.73706 0.86469 0.4787 0.0
O454 O 0.7998 0.86306 0.56643 0.0
Zr455 Zr 0.7668 0.82396 0.52336 0.0
Zr456 Zr 0.75722 0.90523 0.59601 0.0
Zr457 Zr 0.69545 0.90783 0.50839 0.0
O458 O 0.80457 0.94217 0.56505 0.0
O459 O 0.74157 0.94327 0.47656 0.0
O460 O 0.72925 0.94615 0.55157 0.0
Zr461 Zr 0.84585 0.89977 0.53449 0.0
Zr462 Zr 0.78304 0.9005 0.44576 0.0
Zr463 Zr 0.77578 0.98245 0.51958 0.0
O464 O 0.81636 0.93905 0.4892 0.0
O465 O 0.83945 1.00723 0.52895 0.0
O466 O 0.71656 1.01368 0.50566 0.0
O467 O 0.83807 0.79691 0.53027 0.0
O468 O 0.88799 0.88827 0.4812 0.0
O469 O 0.65185 0.91793 0.56052 0.0
O470 O 0.69245 0.8834 0.44372 0.0
O471 O 0.8382 0.87356 0.598 0.0
O472 O 0.75788 0.96191 0.63235 0.0
O473 O 0.79252 0.83791 0.4173 0.0
O474 O 0.78923 0.95525 0.40669 0.0
O475 O 0.74455 0.846 0.62843 0.0
O476 O 0.88124 0.9587 0.54277 0.0
O477 O 0.65396 0.85405 0.51073 0.0
O478 O 0.66875 0.97026 0.49315 0.0
O479 O 0.88317 0.84457 0.53747 0.0
O480 O 0.75422 0.79711 0.58582 0.0
O481 O 0.78417 1.00606 0.44831 0.0
O482 O 0.77075 1.01007 0.58959 0.0
O483 O 0.77958 0.79311 0.46345 0.0
C484 C 0.65983 0.81808 0.51367 0.0
O485 O 0.80928 0.90603 0.64152 0.0
O486 O 0.69184 0.91894 0.61205 0.0
C487 C 0.87274 0.99413 0.53794 0.0
C488 C 0.68241 1.0045 0.49522 0.0
C489 C 0.87413 0.80942 0.53444 0.0
C490 C 0.87618 0.89924 0.44855 0.0
C491 C 0.65885 0.9227 0.5962 0.0
C492 C 0.69699 0.9045 0.41459 0.0
C493 C 0.84063 0.89404 0.62775 0.0
C494 C 0.76436 0.99691 0.62471 0.0
C495 C 0.79004 0.80334 0.42969 0.0
C496 C 0.78817 0.99117 0.41346 0.0
C497 C 0.74569 0.81052 0.61909 0.0
O498 O 0.73073 0.90935 0.40188 0.0
O499 O 0.8485 0.92247 0.44774 0.0
O500 O 0.09136 0.91271 0.75162 0.0
O501 O 0.10915 0.98172 0.79898 0.0
O502 O 0.18971 0.98881 0.72426 0.0
O503 O 0.11049 0.99324 0.7241 0.0
O504 O 0.1881 0.97751 0.80027 0.0
Zr505 Zr 0.14819 0.94854 0.75596 0.0
Zr506 Zr 0.14949 1.01256 0.84232 0.0
Zr507 Zr 0.07163 0.02714 0.76656 0.0
O508 O 0.19112 0.05298 0.80911 0.0
O509 O 0.11393 0.06913 0.73492 0.0
O510 O 0.11359 0.05817 0.8091 0.0
Zr511 Zr 0.23142 1.01763 0.76876 0.0
Zr512 Zr 0.15206 0.03491 0.69309 0.0
Zr513 Zr 0.15533 0.10064 0.7778 0.0
O514 O 0.1941 0.06404 0.73596 0.0
O515 O 0.21728 0.13228 0.7771 0.0
O516 O 0.10016 0.13981 0.78279 0.0
O517 O 0.20613 0.91105 0.75897 0.0
O518 O 0.25756 0.02289 0.69817 0.0
O519 O 0.0418 0.02109 0.82774 0.0
O520 O 0.04395 0.03847 0.70465 0.0
O521 O 0.25726 1.00777 0.8388 0.0
O522 O 0.16808 0.06528 0.88295 0.0
O523 O 0.14396 0.98241 0.6502 0.0
O524 O 0.17249 0.10024 0.68308 0.0
O525 O 0.1423 0.94749 0.863 0.0
O526 O 0.23648 0.07864 0.80037 0.0
O527 O 0.04335 0.9566 0.76012 0.0
O528 O 0.04906 0.09898 0.77386 0.0
O529 O 0.2554 0.95336 0.76801 0.0
O530 O 0.14125 0.90793 0.81113 0.0
O531 O 0.14431 0.14021 0.72264 0.0
O532 O 0.13816 0.10418 0.84441 0.0
O533 O 0.14198 0.93017 0.6893 0.0
C534 C 0.05612 0.92094 0.75498 0.0
O535 O 0.20578 1.00154 0.87909 0.0
O536 O 0.08902 0.02729 0.8728 0.0
C537 C 0.24459 0.10874 0.78228 0.0
C538 C 0.0642 0.1336 0.77954 0.0
C539 C 0.24146 0.91942 0.76492 0.0
C540 C 0.24336 0.02615 0.66287 0.0
C541 C 0.05384 0.02711 0.86194 0.0
C542 C 0.05659 0.04562 0.6709 0.0
C543 C 0.24182 1.00249 0.87314 0.0
C544 C 0.16259 0.09917 0.87073 0.0
C545 C 0.14008 0.94656 0.65637 0.0
C546 C 0.15068 0.12872 0.68864 0.0
C547 C 0.14017 0.91437 0.84721 0.0
O548 O 0.09194 0.04686 0.66082 0.0
O549 O 0.20787 0.03033 0.65538 0.0
O550 O 0.53486 0.20468 0.53982 0.0
O551 O 0.56735 0.24131 0.60704 0.0
O552 O 0.4757 0.29707 0.60534 0.0
O553 O 0.49219 0.22408 0.60873 0.0
O554 O 0.55107 0.31452 0.60302 0.0
Zr555 Zr 0.5211 0.26694 0.56591 0.0
Zr556 Zr 0.59597 0.28803 0.64508 0.0
Zr557 Zr 0.53951 0.19779 0.64799 0.0
O558 O 0.55119 0.31767 0.68284 0.0
O559 O 0.49484 0.22735 0.68712 0.0
O560 O 0.57012 0.24324 0.68682 0.0
Zr561 Zr 0.5056 0.34406 0.64143 0.0
Zr562 Zr 0.44759 0.25465 0.64859 0.0
Zr563 Zr 0.52492 0.27326 0.72608 0.0
O564 O 0.47862 0.30173 0.68555 0.0
O565 O 0.51471 0.34474 0.74833 0.0
O566 O 0.53024 0.20374 0.75456 0.0
O567 O 0.50517 0.3256 0.53441 0.0
O568 O 0.43979 0.36075 0.65187 0.0
O569 O 0.60645 0.18225 0.65116 0.0
O570 O 0.48837 0.15198 0.6426 0.0
O571 O 0.55544 0.39065 0.63128 0.0
O572 O 0.62973 0.29781 0.70485 0.0
O573 O 0.40895 0.25092 0.59289 0.0
O574 O 0.41381 0.25832 0.70913 0.0
O575 O 0.63307 0.28832 0.58868 0.0
O576 O 0.50695 0.38419 0.69619 0.0
O577 O 0.54975 0.16382 0.58885 0.0
O578 O 0.54019 0.16124 0.70543 0.0
O579 O 0.49057 0.3711 0.57921 0.0
O580 O 0.5918 0.27371 0.53958 0.0
O581 O 0.46627 0.23814 0.73423 0.0
O582 O 0.58745 0.28354 0.7527 0.0
O583 O 0.44986 0.25806 0.5421 0.0
C584 C 0.54605 0.17228 0.55332 0.0
O585 O 0.60952 0.35451 0.6337 0.0
O586 O 0.64166 0.23668 0.64428 0.0
C587 C 0.51034 0.379 0.73216 0.0
C588 C 0.53498 0.16851 0.74081 0.0
C589 C 0.49306 0.3588 0.54462 0.0
C590 C 0.40757 0.34321 0.65342 0.0
C591 C 0.63828 0.20027 0.64725 0.0
C592 C 0.45196 0.15564 0.64106 0.0
C593 C 0.59168 0.38623 0.62866 0.0
C594 C 0.62055 0.29351 0.74015 0.0
C595 C 0.41517 0.25354 0.55709 0.0
C596 C 0.43522 0.25571 0.73852 0.0
C597 C 0.62661 0.28123 0.55346 0.0
O598 O 0.43339 0.18718 0.64447 0.0
O599 O 0.40281 0.30702 0.64975 0.0
H600 H 0.14385 0.44026 0.16165 0.0
H601 H 0.10019 0.34715 0.09475 0.0
H602 H 0.14826 0.40008 0.21656 0.0
H603 H 0.09945 0.30683 0.15079 0.0
H604 H 0.14533 0.22395 0.22898 0.0
H605 H 0.1427 0.27068 0.17811 0.0
H606 H 0.15256 0.3609 0.26255 0.0
H607 H 0.16108 0.314 0.31109 0.0
C608 C 0.13261 0.41151 0.15953 0.0
C609 C 0.12644 0.39504 0.12358 0.0
C610 C 0.13612 0.38768 0.19109 0.0
C611 C 0.12885 0.3482 0.18731 0.0
C612 C 0.10994 0.33573 0.15385 0.0
C613 C 0.10841 0.35943 0.12194 0.0
C614 C 0.14969 0.25382 0.23586 0.0
C615 C 0.15093 0.26576 0.27393 0.0
C616 C 0.14596 0.28095 0.20702 0.0
C617 C 0.14273 0.3201 0.21625 0.0
C618 C 0.15263 0.33145 0.2536 0.0
C619 C 0.15868 0.3042 0.28182 0.0
H620 H 0.66932 0.59602 0.12917 0.0
H621 H 0.58596 0.6659 0.18588 0.0
H622 H 0.62542 0.5825 0.07902 0.0
H623 H 0.54283 0.65768 0.13246 0.0
H624 H 0.46327 0.63972 0.04399 0.0
H625 H 0.50014 0.62519 0.10056 0.0
H626 H 0.59398 0.58998 0.02808 0.0
H627 H 0.55524 0.60059 0.97325 0.0
C628 C 0.64153 0.60919 0.13038 0.0
C629 C 0.63026 0.63026 0.16238 0.0
C630 C 0.61604 0.6019 0.10095 0.0
C631 C 0.57917 0.61768 0.10138 0.0
C632 C 0.56969 0.64265 0.13163 0.0
C633 C 0.59479 0.6484 0.16208 0.0
C634 C 0.49083 0.62615 0.04075 0.0
C635 C 0.50777 0.62353 1.0048 0.0
C636 C 0.51286 0.61942 0.07314 0.0
C637 C 0.55187 0.61038 0.06941 0.0
C638 C 0.56498 0.59876 0.03317 0.0
C639 C 0.54226 0.60406 1.00108 0.0
H640 H 0.88757 0.20546 0.29988 0.0
H641 H 0.91469 0.29464 0.22006 0.0
H642 H 0.89587 0.1583 0.25154 0.0
H643 H 0.91696 0.24825 0.16897 0.0
H644 H 0.95026 0.17101 0.0849 0.0
H645 H 0.95715 0.20861 0.14248 0.0
H646 H 0.89875 0.11927 0.20532 0.0
H647 H 0.89709 0.0812 0.14872 0.0
C648 C 0.89248 0.2152 0.27095 0.0
C649 C 0.90321 0.25309 0.26399 0.0
C650 C 0.89839 0.18775 0.24293 0.0
C651 C 0.91108 0.19862 0.20639 0.0
C652 C 0.91135 0.23799 0.19747 0.0
C653 C 0.90779 0.26512 0.22628 0.0
C654 C 0.94136 0.15862 0.11176 0.0
C655 C 0.91844 0.12594 0.11233 0.0
C656 C 0.94339 0.18103 0.14458 0.0
C657 C 0.92324 0.16974 0.17758 0.0
C658 C 0.91182 0.13115 0.18016 0.0
C659 C 0.91188 0.10839 0.14761 0.0
H660 H 0.34277 0.89747 0.127 0.0
H661 H 0.42726 0.84308 0.19802 0.0
H662 H 0.36381 0.8602 0.07262 0.0
H663 H 0.45046 0.80814 0.14399 0.0
H664 H 0.52031 0.78884 0.04701 0.0
H665 H 0.46614 0.78051 0.08843 0.0
H666 H 0.41761 0.88544 0.04452 0.0
H667 H 0.47021 0.89164 1.00062 0.0
C668 C 0.36473 0.87621 0.13119 0.0
C669 C 0.38499 0.87431 0.16561 0.0
C670 C 0.37705 0.85502 0.10008 0.0
C671 C 0.41092 0.83382 0.10313 0.0
C672 C 0.42519 0.82534 0.13984 0.0
C673 C 0.412 0.84556 0.17118 0.0
C674 C 0.49776 0.80991 0.04584 0.0
C675 C 0.49965 0.84117 0.02075 0.0
C676 C 0.46659 0.80503 0.06965 0.0
C677 C 0.43742 0.8323 0.07038 0.0
C678 C 0.43891 0.86314 0.04446 0.0
C679 C 0.46964 0.86741 0.01978 0.0
H680 H 0.15371 0.73089 0.45472 0.0
H681 H 0.18394 0.65163 0.366 0.0
H682 H 0.16397 0.78424 0.41159 0.0
H683 H 0.19156 0.704 0.32174 0.0
H684 H 0.18834 0.7754 0.23852 0.0
H685 H 0.22139 0.75878 0.29738 0.0
H686 H 0.12994 0.80984 0.36213 0.0
H687 H 0.09889 0.82847 0.30372 0.0
C688 C 0.16175 0.72499 0.42571 0.0
C689 C 0.16739 0.68732 0.41346 0.0
C690 C 0.1682 0.75551 0.40106 0.0
C691 C 0.17897 0.74882 0.36308 0.0
C692 C 0.18455 0.7108 0.351 0.0
C693 C 0.17914 0.68049 0.37601 0.0
C694 C 0.17676 0.78522 0.2654 0.0
C695 C 0.14 0.80069 0.26727 0.0
C696 C 0.19547 0.77546 0.29916 0.0
C697 C 0.17625 0.77954 0.33412 0.0
C698 C 0.14475 0.80428 0.33569 0.0
C699 C 0.1266 0.81489 0.30206 0.0
H700 H 0.02155 0.57942 0.04962 0.0
H701 H 0.08946 0.66179 0.98877 0.0
H702 H 0.9969 0.55498 0.98937 0.0
H703 H 0.06273 0.64046 0.92931 0.0
H704 H 0.89625 0.60526 0.92287 0.0
H705 H 0.94759 0.59212 0.96715 0.0
H706 H 0.03009 0.61823 0.87896 0.0
H707 H 0.97814 0.63469 0.83634 0.0
C708 C 0.03284 0.59085 0.02325 0.0
C709 C 0.05497 0.62415 0.02332 0.0
C710 C 1.01812 0.5775 0.9887 0.0
C711 C 0.0246 0.59861 0.9551 0.0
C712 C 0.05519 0.62468 0.95469 0.0
C713 C 0.07083 0.63703 0.98901 0.0
C714 C 0.92545 0.60881 0.91338 0.0
C715 C 0.93334 0.62136 0.87639 0.0
C716 C 0.95511 0.60021 0.93836 0.0
C717 C 0.99349 0.60297 0.92657 0.0
C718 C 1.00117 0.61592 0.88941 0.0
C719 C 0.97139 0.62576 0.86492 0.0
H720 H 0.91935 0.70287 0.31194 0.0
H721 H 0.86419 0.78091 0.23465 0.0
H722 H 0.89422 0.73805 0.36588 0.0
H723 H 0.84403 0.81931 0.28695 0.0
H724 H 0.92258 0.83697 0.44225 0.0
H725 H 0.91906 0.78783 0.39414 0.0
H726 H 0.83061 0.85229 0.33578 0.0
H727 H 0.8384 0.90264 0.38093 0.0
C728 C 0.90074 0.72696 0.30668 0.0
C729 C 0.89486 0.74044 0.26958 0.0
C730 C 0.88745 0.74809 0.33749 0.0
C731 C 0.87087 0.78419 0.3312 0.0
C732 C 0.85835 0.793 0.29391 0.0
C733 C 0.86964 0.77058 0.26331 0.0
C734 C 0.90287 0.84049 0.41869 0.0
C735 C 0.87985 0.87291 0.41614 0.0
C736 C 0.89995 0.8118 0.39129 0.0
C737 C 0.87321 0.81449 0.36109 0.0
C738 C 0.85183 0.8483 0.35778 0.0
C739 C 0.85609 0.87755 0.38419 0.0
H740 H 0.15881 0.89873 0.92116 0.0
H741 H 0.08536 0.86349 0.82894 0.0
H742 H 0.10808 0.88614 0.96644 0.0
H743 H 0.03312 0.85448 0.87325 0.0
H744 H 0.95583 0.82466 0.97548 0.0
H745 H 0.99724 0.83327 0.92141 0.0
H746 H 0.05597 0.9241 0.98173 0.0
H747 H 1.01688 0.91176 0.0374 0.0
C748 C 0.13213 0.88684 0.91081 0.0
C749 C 0.12467 0.88448 0.87162 0.0
C750 C 0.10252 0.88115 0.93644 0.0
C751 C 0.06545 0.87317 0.9229 0.0
C752 C 0.06069 0.8627 0.88449 0.0
C753 C 0.0908 0.86721 0.85909 0.0
C754 C 0.97634 0.84787 0.97631 0.0
C755 C 0.98618 0.86487 1.01128 0.0
C756 C 1.00074 0.85235 0.94544 0.0
C757 C 0.0324 0.87683 0.94876 0.0
C758 C 0.03395 0.90244 0.97978 0.0
C759 C 1.0105 0.89657 1.0112 0.0
H760 H 0.16149 0.13034 0.44832 0.0
H761 H 0.09638 0.08284 0.35595 0.0
H762 H 0.21671 0.13487 0.40868 0.0
H763 H 0.15274 0.08223 0.31627 0.0
H764 H 0.22734 0.13291 0.23249 0.0
H765 H 0.17743 0.12612 0.2794 0.0
H766 H 0.26163 0.14316 0.36901 0.0
H767 H 0.30883 0.15566 0.32167 0.0
C768 C 0.15989 0.11818 0.41993 0.0
C769 C 0.1242 0.11157 0.40297 0.0
C770 C 0.19159 0.1219 0.39635 0.0
C771 C 0.18808 0.11393 0.357 0.0
C772 C 0.15535 0.09353 0.34486 0.0
C773 C 0.12334 0.09184 0.36832 0.0
C774 C 0.23421 0.13788 0.26223 0.0
C775 C 0.2722 0.14201 0.27388 0.0
C776 C 0.20606 0.1317 0.28952 0.0
C777 C 0.21588 0.12934 0.32861 0.0
C778 C 0.25243 0.14232 0.33964 0.0
C779 C 0.27974 0.15076 0.31215 0.0
H780 H 0.39832 0.61728 0.84234 0.0
H781 H 0.34751 0.69323 0.9245 0.0
H782 H 0.37336 0.56274 0.87693 0.0
H783 H 0.3253 0.63953 0.96074 0.0
H784 H 0.41114 0.49371 0.98018 0.0
H785 H 0.40508 0.54152 0.9305 0.0
H786 H 0.30256 0.58446 0.98424 0.0
H787 H 0.31086 0.53884 0.0353 0.0
C788 C 0.38009 0.62228 0.86671 0.0
C789 C 0.37656 0.65899 0.8822 0.0
C790 C 0.36645 0.59106 0.88707 0.0
C791 C 0.35003 0.59665 0.92318 0.0
C792 C 0.33891 0.63378 0.93371 0.0
C793 C 0.35153 0.66493 0.91267 0.0
C794 C 0.38793 0.51403 0.98168 0.0
C795 C 0.36151 0.51271 1.01143 0.0
C796 C 0.38363 0.54077 0.95261 0.0
C797 C 0.35254 0.56635 0.95253 0.0
C798 C 0.32689 0.56552 0.98316 0.0
C799 C 0.33166 0.53934 1.01251 0.0
H800 H 0.80081 0.48651 0.26631 0.0
H801 H 0.75089 0.38741 0.32046 0.0
H802 H 0.84479 0.49378 0.31868 0.0
H803 H 0.79788 0.39194 0.37099 0.0
H804 H 0.88438 0.37933 0.44474 0.0
H805 H 0.82946 0.416 0.42301 0.0
H806 H 0.89952 0.4657 0.33424 0.0
H807 H 0.95398 0.43193 0.35818 0.0
C808 C 0.79959 0.46579 0.28921 0.0
C809 C 0.77255 0.43601 0.28903 0.0
C810 C 0.82495 0.47006 0.3194 0.0
C811 C 0.82559 0.44335 0.34915 0.0
C812 C 0.79804 0.41382 0.34923 0.0
C813 C 0.77158 0.41042 0.31964 0.0
C814 C 0.88812 0.39997 0.42203 0.0
C815 C 0.92237 0.40168 0.40159 0.0
C816 C 0.8567 0.4206 0.40925 0.0
C817 C 0.85921 0.44108 0.37486 0.0
C818 C 0.89571 0.44916 0.35998 0.0
C819 C 0.92735 0.42964 0.37365 0.0
H820 H 0.61242 0.92027 0.90889 0.0
H821 H 0.62947 0.82786 0.98824 0.0
H822 H 0.60605 0.9645 0.96136 0.0
H823 H 0.62266 0.87214 0.04166 0.0
H824 H 0.68913 0.98176 0.08852 0.0
H825 H 0.66023 0.92269 0.06767 0.0
H826 H 0.5684 0.98602 1.0151 0.0
H827 H 0.59888 0.04558 0.03439 0.0
C828 C 0.61519 0.90953 0.93775 0.0
C829 C 0.62237 0.87084 0.9446 0.0
C830 C 0.6104 0.93463 0.96798 0.0
C831 C 0.61258 0.92166 1.00594 0.0
C832 C 0.6205 0.88297 1.01281 0.0
C833 C 0.62552 0.85783 0.98233 0.0
C834 C 0.66164 0.98294 0.07428 0.0
C835 C 0.64751 1.01772 0.06038 0.0
C836 C 0.64482 0.94895 0.06247 0.0
C837 C 0.61383 0.95017 0.03704 0.0
C838 C 0.59372 0.9847 0.03287 0.0
C839 C 0.611 1.01885 0.04409 0.0
H840 H 0.09159 0.9093 0.19201 0.0
H841 H 0.15527 0.82979 0.1231 0.0
H842 H 0.14388 0.91212 0.23704 0.0
H843 H 0.20445 0.82743 0.17 0.0
H844 H 0.23183 0.91425 0.32034 0.0
H845 H 0.17702 0.89036 0.2851 0.0
H846 H 0.25407 0.84522 0.1995 0.0
H847 H 0.30714 0.86413 0.23753 0.0
C848 C 0.11675 0.89222 0.18668 0.0
C849 C 0.11894 0.86864 0.15453 0.0
C850 C 0.14657 0.89285 0.21314 0.0
C851 C 0.1787 0.86892 0.20866 0.0
C852 C 0.1812 0.84684 0.17521 0.0
C853 C 0.15238 0.84775 0.14803 0.0
C854 C 0.23648 0.8969 0.29521 0.0
C855 C 0.27327 0.89208 0.28066 0.0
C856 C 0.20512 0.88451 0.27399 0.0
C857 C 0.21044 0.86911 0.2372 0.0
C858 C 0.24767 0.8581 0.22669 0.0
C859 C 0.27878 0.86858 0.24897 0.0
H860 H 0.22107 0.53905 0.99516 0.0
H861 H 0.12903 0.49136 0.06163 0.0
H862 H 0.23306 0.58618 0.04396 0.0
H863 H 0.13829 0.54091 0.10916 0.0
H864 H 0.1539 0.61809 0.19593 0.0
H865 H 0.17394 0.56376 0.1586 0.0
H866 H 0.21432 0.64051 0.07072 0.0
H867 H 0.19623 0.69416 0.10937 0.0
C868 C 0.20271 0.53936 0.01995 0.0
C869 C 0.17437 0.51137 0.02487 0.0
C870 C 0.20957 0.56652 0.04802 0.0
C871 C 0.18739 0.56711 0.08127 0.0
C872 C 0.15731 0.54044 0.08493 0.0
C873 C 0.15108 0.5126 0.05714 0.0
C874 C 0.16969 0.62315 0.1699 0.0
C875 C 0.17098 0.65972 0.15378 0.0
C876 C 0.18038 0.59194 0.14792 0.0
C877 C 0.19284 0.59755 0.11024 0.0
C878 C 0.20339 0.63468 0.0989 0.0
C879 C 0.19336 0.66581 0.12137 0.0
H880 H 0.80505 0.61334 0.33578 0.0
H881 H 0.74818 0.69032 0.25872 0.0
H882 H 0.86467 0.62469 0.30433 0.0
H883 H 0.80901 0.70496 0.22871 0.0
H884 H 0.87837 0.65073 0.13548 0.0
H885 H 0.83075 0.66168 0.18411 0.0
H886 H 0.91641 0.6433 0.27166 0.0
H887 H 0.96297 0.63024 0.22235 0.0
C888 C 0.806 0.63528 0.314 0.0
C889 C 0.77211 0.64871 0.2974 0.0
C890 C 0.84035 0.64143 0.29537 0.0
C891 C 0.84073 0.6629 0.26155 0.0
C892 C 0.8087 0.68558 0.25276 0.0
C893 C 0.77401 0.67825 0.2707 0.0
C894 C 0.8866 0.64823 0.16521 0.0
C895 C 0.92426 0.63964 0.17542 0.0
C896 C 0.85963 0.6555 0.19321 0.0
C897 C 0.86995 0.6551 0.2321 0.0
C898 C 0.90725 0.64422 0.24218 0.0
C899 C 0.93403 0.63637 0.21403 0.0
H900 H 0.85388 0.97742 0.9542 0.0
H901 H 0.9231 0.03265 0.0398 0.0
H902 H 0.85759 0.91774 0.98896 0.0
H903 H 0.92917 0.9724 0.07373 0.0
H904 H 0.88118 0.89473 0.15816 0.0
H905 H 0.87849 0.9467 0.11211 0.0
H906 H 0.88413 0.8648 0.01992 0.0
H907 H 0.88484 0.81346 0.06616 0.0
C908 C 0.87247 0.97596 0.97894 0.0
C909 C 0.88643 1.00968 0.99568 0.0
C910 C 0.87388 0.94191 0.99941 0.0
C911 C 0.89135 0.94126 0.03549 0.0
C912 C 0.91338 0.97288 0.04712 0.0
C913 C 0.91122 1.00707 0.02693 0.0
C914 C 0.87952 0.88794 0.12803 0.0
C915 C 0.88382 0.85023 0.11543 0.0
C916 C 0.8793 0.91762 0.10164 0.0
C917 C 0.88362 0.90981 0.06248 0.0
C918 C 0.88163 0.87185 0.04988 0.0
C919 C 0.88109 0.84226 0.07633 0.0
H920 H 0.21063 0.23534 0.10518 0.0
H921 H 0.27434 0.30116 0.1878 0.0
H922 H 0.23399 0.17692 0.13315 0.0
H923 H 0.29658 0.24227 0.21734 0.0
H924 H 0.3962 0.17052 0.16696 0.0
H925 H 0.34619 0.21723 0.17646 0.0
H926 H 0.26118 0.12753 0.1705 0.0
H927 H 0.312 0.08101 0.16219 0.0
C928 C 0.22778 0.23713 0.13093 0.0
C929 C 0.24306 0.27219 0.14291 0.0
C930 C 0.24106 0.20355 0.14723 0.0
C931 C 0.26948 0.2054 0.17549 0.0
C932 C 0.27626 0.24043 0.19403 0.0
C933 C 0.26335 0.27416 0.17734 0.0
C934 C 0.36676 0.16098 0.16735 0.0
C935 C 0.35762 0.12244 0.16207 0.0
C936 C 0.33808 0.18749 0.17383 0.0
C937 C 0.29956 0.17598 0.17524 0.0
C938 C 0.29049 0.13733 0.16972 0.0
C939 C 0.31937 0.1108 0.16364 0.0
H940 H 0.31922 0.74489 0.37806 0.0
H941 H 0.25544 0.79173 0.47221 0.0
H942 H 0.3665 0.79487 0.38549 0.0
H943 H 0.30416 0.83971 0.48221 0.0
H944 H 0.36177 0.94953 0.43789 0.0
H945 H 0.32751 0.89466 0.46067 0.0
H946 H 0.41674 0.82106 0.41758 0.0
H947 H 0.44845 0.87661 0.39072 0.0
C948 C 0.31542 0.76594 0.40037 0.0
C949 C 0.28385 0.7645 0.42456 0.0
C950 C 0.3431 0.79408 0.4055 0.0
C951 C 0.34004 0.82105 0.43531 0.0
C952 C 0.3077 0.81988 0.45883 0.0
C953 C 0.2797 0.79225 0.45314 0.0
C954 C 0.37486 0.92172 0.43481 0.0
C955 C 0.40602 0.91666 0.41054 0.0
C956 C 0.3551 0.88986 0.44787 0.0
C957 C 0.36782 0.85299 0.43815 0.0
C958 C 0.4047 0.84897 0.42295 0.0
C959 C 0.42347 0.8808 0.40835 0.0
H960 H 0.99318 0.46874 0.90896 0.0
H961 H 0.03584 0.53878 0.81706 0.0
H962 H 0.046 0.42496 0.90007 0.0
H963 H 0.08662 0.49358 0.80566 0.0
H964 H 0.19943 0.44152 0.85155 0.0
H965 H 0.14315 0.47429 0.82992 0.0
H966 H 0.07394 0.37758 0.86396 0.0
H967 H 0.13067 0.3462 0.88808 0.0
C968 C 1.01391 0.47468 0.8869 0.0
C969 C 1.01051 0.50691 0.86368 0.0
C970 C 0.04364 0.44908 0.88093 0.0
C971 C 0.07016 0.45501 0.85128 0.0
C972 C 0.06699 0.48795 0.82876 0.0
C973 C 0.03784 0.51389 0.83531 0.0
C974 C 0.17245 0.42632 0.85217 0.0
C975 C 0.16868 0.39243 0.87296 0.0
C976 C 0.1398 0.44529 0.84 0.0
C977 C 0.10359 0.42954 0.84751 0.0
C978 C 0.10122 0.39135 0.85966 0.0
C979 C 0.13379 0.37291 0.87278 0.0
H980 H 0.63568 0.66711 0.36177 0.0
H981 H 0.71673 0.58233 0.39854 0.0
H982 H 0.68591 0.71469 0.36044 0.0
H983 H 0.76786 0.62858 0.39415 0.0
H984 H 0.82521 0.73622 0.44272 0.0
H985 H 0.79615 0.67799 0.42116 0.0
H986 H 0.73836 0.7401 0.33116 0.0
H987 H 0.76515 0.7994 0.3559 0.0
C988 C 0.66444 0.65872 0.36949 0.0
C989 C 0.67251 0.62109 0.38017 0.0
C990 C 0.69356 0.68571 0.3678 0.0
C991 C 0.73158 0.6754 0.37597 0.0
C992 C 0.73919 0.63779 0.38765 0.0
C993 C 0.70988 0.61113 0.39023 0.0
C994 C 0.80756 0.73708 0.41726 0.0
C995 C 0.79477 0.77202 0.40271 0.0
C996 C 0.79062 0.7035 0.40473 0.0
C997 C 0.76198 0.70494 0.37656 0.0
C998 C 0.75789 0.73873 0.35512 0.0
C999 C 0.77395 0.77261 0.36859 0.0
H1000 H 0.35595 0.57932 0.37129 0.0
H1001 H 0.40962 0.62814 0.47098 0.0
H1002 H 0.39825 0.52555 0.37465 0.0
H1003 H 0.44782 0.5722 0.47865 0.0
H1004 H 0.55439 0.52208 0.43102 0.0
H1005 H 0.49874 0.54347 0.46342 0.0
H1006 H 0.42828 0.47315 0.38944 0.0
H1007 H 0.48503 0.45524 0.35412 0.0
C1008 C 0.37636 0.57793 0.39438 0.0
C1009 C 0.37921 0.60761 0.42088 0.0
C1010 C 0.40034 0.54645 0.39722 0.0
C1011 C 0.42724 0.54341 0.42728 0.0
C1012 C 0.42896 0.57314 0.45424 0.0
C1013 C 0.4066 0.60548 0.44997 0.0
C1014 C 0.52705 0.51052 0.42236 0.0
C1015 C 0.52325 0.48962 0.38864 0.0
C1016 C 0.49447 0.52285 0.44099 0.0
C1017 C 0.45814 0.51421 0.42562 0.0
C1018 C 0.45558 0.48413 0.39904 0.0
C1019 C 0.48803 0.47322 0.37919 0.0
H1020 H 0.09645 0.88366 0.64254 0.0
H1021 H 0.18779 0.95214 0.59689 0.0
H1022 H 0.12451 0.82693 0.61474 0.0
H1023 H 0.218 0.89599 0.57239 0.0
H1024 H 0.28606 0.79155 0.56431 0.0
H1025 H 0.23894 0.84011 0.55181 0.0
H1026 H 0.17274 0.79881 0.64773 0.0
H1027 H 0.21828 0.74785 0.65729 0.0
C1028 C 0.12159 0.88667 0.62492 0.0
C1029 C 0.14145 0.92133 0.6235 0.0
C1030 C 0.13816 0.85415 0.60955 0.0
C1031 C 0.17524 0.85634 0.59444 0.0
C1032 C 0.19018 0.89254 0.58516 0.0
C1033 C 0.17276 0.92517 0.5992 0.0
C1034 C 0.26131 0.79302 0.58268 0.0
C1035 C 0.25559 0.76602 0.61167 0.0
C1036 C 0.23422 0.82094 0.57553 0.0
C1037 C 0.20139 0.82339 0.5982 0.0
C1038 C 0.19666 0.79711 0.6284 0.0
C1039 C 0.22337 0.76849 0.63487 0.0
H1040 H 0.99146 0.57354 0.62964 0.0
H1041 H 0.03923 0.5132 0.72602 0.0
H1042 H 0.03709 0.62406 0.63859 0.0
H1043 H 0.08268 0.56532 0.73783 0.0
H1044 H 0.19006 0.62164 0.69199 0.0
H1045 H 0.1359 0.59244 0.72095 0.0
H1046 H 0.06214 0.67554 0.66654 0.0
H1047 H 0.11701 0.70222 0.63447 0.0
C1048 C 1.01178 0.57124 0.65281 0.0
C1049 C 1.01187 0.5396 0.67708 0.0
C1050 C 0.03742 0.60089 0.65895 0.0
C1051 C 0.06344 0.59984 0.68981 0.0
C1052 C 0.06376 0.56746 0.7135 0.0
C1053 C 0.03868 0.53747 0.70679 0.0
C1054 C 0.16241 0.63472 0.68752 0.0
C1055 C 0.15685 0.66203 0.65891 0.0
C1056 C 0.13083 0.61786 0.7043 0.0
C1057 C 0.09398 0.62908 0.69276 0.0
C1058 C 0.08994 0.66399 0.6733 0.0
C1059 C 0.12138 0.67978 0.65519 0.0
H1060 H 0.98828 0.08249 0.66578 0.0
H1061 H 0.0601 1.00061 0.60925 0.0
H1062 H 0.93217 0.05073 0.64082 0.0
H1063 H 1.00535 0.9653 0.58943 0.0
H1064 H 0.85063 0.95763 0.67202 0.0
H1065 H 0.90108 1.00405 0.66622 0.0
H1066 H 0.95634 0.93129 0.58253 0.0
H1067 H 0.9085 0.88414 0.59264 0.0
C1068 C 0.99191 0.05827 0.64696 0.0
C1069 C 0.02808 0.04264 0.64085 0.0
C1070 C 0.95974 0.03896 0.63387 0.0
C1071 C 0.96369 1.00234 0.61771 0.0
C1072 C 1.00011 0.99175 0.60423 0.0
C1073 C 0.03216 1.01245 0.61519 0.0
C1074 C 0.87397 0.95186 0.65272 0.0
C1075 C 0.87466 0.91828 0.63129 0.0
C1076 C 0.90274 0.97897 0.6484 0.0
C1077 C 0.93262 0.97339 0.62192 0.0
C1078 C 0.93444 0.938 0.60295 0.0
C1079 C 0.90641 0.91052 0.60841 0.0
H1080 H 0.59347 0.8802 0.59616 0.0
H1081 H 0.65186 0.96816 0.65906 0.0
H1082 H 0.58632 0.84325 0.65416 0.0
H1083 H 0.64949 0.93008 0.71605 0.0
H1084 H 0.64482 0.84305 0.81295 0.0
H1085 H 0.6399 0.89197 0.76501 0.0
H1086 H 0.63317 0.80471 0.67755 0.0
H1087 H 0.63456 0.75593 0.72668 0.0
C1088 C 0.60313 0.8926 0.62285 0.0
C1089 C 0.62707 0.92459 0.62303 0.0
C1090 C 0.60066 0.87061 0.65586 0.0
C1091 C 0.62144 0.8815 0.68869 0.0
C1092 C 0.63505 0.91928 0.69096 0.0
C1093 C 0.63565 0.94178 0.65824 0.0
C1094 C 0.64416 0.83439 0.78325 0.0
C1095 C 0.63848 0.79599 0.77337 0.0
C1096 C 0.64017 0.86261 0.75561 0.0
C1097 C 0.63251 0.85247 0.71752 0.0
C1098 C 0.63556 0.8137 0.70701 0.0
C1099 C 0.63823 0.78555 0.73488 0.0
H1100 H 1.01568 0.09025 0.49324 0.0
H1101 H 0.9515 0.17487 0.55439 0.0
H1102 H 0.04987 0.07406 0.55139 0.0
H1103 H 0.98782 0.1623 0.61126 0.0
H1104 H 0.07792 0.15158 0.70194 0.0
H1105 H 0.02393 0.14348 0.65979 0.0
H1106 H 0.10079 0.11164 0.56866 0.0
H1107 H 0.15434 0.11725 0.6122 0.0
C1108 C 1.00743 0.10402 0.51963 0.0
C1109 C 0.98419 0.13642 0.5192 0.0
C1110 C 0.02798 0.09576 0.55269 0.0
C1111 C 0.02473 0.12002 0.5846 0.0
C1112 C 0.99296 0.14439 0.58671 0.0
C1113 C 0.9715 0.15131 0.55403 0.0
C1114 C 0.08318 0.14338 0.67277 0.0
C1115 C 0.12015 0.13448 0.66051 0.0
C1116 C 0.05212 0.13847 0.64847 0.0
C1117 C 0.05749 0.12527 0.61102 0.0
C1118 C 0.09504 0.11968 0.59788 0.0
C1119 C 0.12599 0.12389 0.62248 0.0
H1120 H 0.34625 0.78602 0.80377 0.0
H1121 H 0.43438 0.84059 0.73761 0.0
H1122 H 0.31319 0.76823 0.74525 0.0
H1123 H 0.40316 0.82097 0.6796 0.0
H1124 H 0.37942 0.73906 0.58796 0.0
H1125 H 0.36966 0.79286 0.63058 0.0
H1126 H 0.34614 0.71387 0.72265 0.0
H1127 H 0.35356 0.66083 0.67929 0.0
C1128 C 0.35753 0.79595 0.77683 0.0
C1129 C 0.3943 0.8116 0.77455 0.0
C1130 C 0.33878 0.78558 0.74321 0.0
C1131 C 0.35786 0.7896 0.70816 0.0
C1132 C 0.3887 0.81525 0.70617 0.0
C1133 C 0.40692 0.82638 0.73964 0.0
C1134 C 0.37265 0.73338 0.6175 0.0
C1135 C 0.36769 0.69579 0.6305 0.0
C1136 C 0.36634 0.76423 0.64174 0.0
C1137 C 0.35628 0.75805 0.68 0.0
C1138 C 0.35228 0.72019 0.6931 0.0
C1139 C 0.35772 0.68948 0.6686 0.0
H1140 H 0.0623 0.36953 0.56029 0.0
H1141 H 0.98384 0.40571 0.47294 0.0
H1142 H 1.01256 0.37538 0.60759 0.0
H1143 H 0.93255 0.40513 0.51752 0.0
H1144 H 0.84989 0.41784 0.61517 0.0
H1145 H 0.8913 0.41092 0.56166 0.0
H1146 H 0.966 0.33952 0.62995 0.0
H1147 H 0.92645 0.35188 0.68497 0.0
C1148 C 0.03461 0.38017 0.55156 0.0
C1149 C 0.02585 0.38462 0.51293 0.0
C1150 C 1.00531 0.38134 0.57819 0.0
C1151 C 0.96715 0.38638 0.56606 0.0
C1152 C 0.96072 0.39918 0.52849 0.0
C1153 C 0.99066 0.40047 0.50266 0.0
C1154 C 0.87449 0.39936 0.61819 0.0
C1155 C 0.88776 0.38917 0.65454 0.0
C1156 C 0.89908 0.39595 0.58742 0.0
C1157 C 0.935 0.37869 0.59262 0.0
C1158 C 0.94096 0.35712 0.62613 0.0
C1159 C 0.91726 0.36255 0.65742 0.0
H1160 H 0.61248 0.19561 0.94491 0.0
H1161 H 0.68803 0.12079 0.88342 0.0
H1162 H 0.61439 0.24056 0.89255 0.0
H1163 H 0.69477 0.16677 0.83411 0.0
H1164 H 0.67774 0.24409 0.7338 0.0
H1165 H 0.68589 0.201 0.78555 0.0
H1166 H 0.64312 0.28728 0.86342 0.0
H1167 H 0.63057 0.32833 0.80934 0.0
C1168 C 0.62975 0.18902 0.92025 0.0
C1169 C 0.6515 0.15564 0.91902 0.0
C1170 C 0.63181 0.21526 0.89039 0.0
C1171 C 0.65661 0.20913 0.85925 0.0
C1172 C 0.67544 0.17375 0.8569 0.0
C1173 C 0.67193 0.147 0.88581 0.0
C1174 C 0.67185 0.25447 0.76232 0.0
C1175 C 0.65122 0.28812 0.76758 0.0
C1176 C 0.67567 0.22914 0.79255 0.0
C1177 C 0.66179 0.23879 0.82907 0.0
C1178 C 0.65066 0.27697 0.83541 0.0
C1179 C 0.64524 0.30153 0.80466 0.0
H1180 H 0.50196 0.11057 0.55936 0.0
H1181 H 0.58449 0.16404 0.48599 0.0
H1182 H 0.46421 0.093 0.50567 0.0
H1183 H 0.54949 0.14175 0.43034 0.0
H1184 H 0.38441 0.08914 0.40819 0.0
H1185 H 0.43212 0.08137 0.45596 0.0
H1186 H 0.50166 0.16737 0.39979 0.0
H1187 H 0.45533 0.17037 0.34875 0.0
C1188 C 0.51344 0.11602 0.53118 0.0
C1189 C 0.54435 0.14077 0.52644 0.0
C1190 C 0.49123 0.10647 0.49973 0.0
C1191 C 0.5014 0.11965 0.46309 0.0
C1192 C 0.5384 0.13481 0.45823 0.0
C1193 C 0.55951 0.1462 0.49 0.0
C1194 C 0.41005 0.10627 0.40597 0.0
C1195 C 0.41689 0.12914 0.37386 0.0
C1196 C 0.43778 0.10211 0.43396 0.0
C1197 C 0.47222 0.12279 0.4321 0.0
C1198 C 0.47702 0.14889 0.40171 0.0
C1199 C 0.44991 0.15159 0.37265 0.0
H1200 H 0.4435 0.36816 0.94583 0.0
H1201 H 0.38701 0.45064 0.87409 0.0
H1202 H 0.47075 0.33855 0.89091 0.0
H1203 H 0.41685 0.42286 0.81813 0.0
H1204 H 0.38654 0.31707 0.7451 0.0
H1205 H 0.39157 0.36912 0.79063 0.0
H1206 H 0.49529 0.31946 0.83629 0.0
H1207 H 0.48741 0.26578 0.79453 0.0
C1208 C 0.43899 0.38155 0.91832 0.0
C1209 C 0.41136 0.40988 0.91359 0.0
C1210 C 0.45468 0.36445 0.8863 0.0
C1211 C 0.44361 0.37655 0.8495 0.0
C1212 C 0.42379 0.41121 0.84589 0.0
C1213 C 0.4072 0.4276 0.87795 0.0
C1214 C 0.40995 0.31715 0.76536 0.0
C1215 C 0.43614 0.28706 0.76649 0.0
C1216 C 0.4136 0.34755 0.79091 0.0
C1217 C 0.44403 0.34881 0.8175 0.0
C1218 C 0.4709 0.31926 0.81727 0.0
C1219 C 0.46639 0.28836 0.79299 0.0
H1220 H 0.5758 0.39008 0.32736 0.0
H1221 H 0.65368 0.42401 0.41668 0.0
H1222 H 0.52298 0.39296 0.37145 0.0
H1223 H 0.60162 0.42435 0.46193 0.0
H1224 H 0.51746 0.43254 0.5417 0.0
H1225 H 0.54862 0.45513 0.48422 0.0
H1226 H 0.49253 0.36546 0.41976 0.0
H1227 H 0.4594 0.34571 0.4763 0.0
C1228 C 0.58163 0.39717 0.35676 0.0
C1229 C 0.61862 0.40696 0.3686 0.0
C1230 C 0.55133 0.39901 0.38215 0.0
C1231 C 0.55752 0.40993 0.42026 0.0
C1232 C 0.59514 0.41762 0.43249 0.0
C1233 C 0.62528 0.4165 0.40683 0.0
C1234 C 0.50977 0.41961 0.51464 0.0
C1235 C 0.48829 0.3859 0.51335 0.0
C1236 C 0.52849 0.43175 0.48182 0.0
C1237 C 0.52586 0.40983 0.4482 0.0
C1238 C 0.49675 0.38226 0.44532 0.0
C1239 C 0.4773 0.37097 0.47786 0.0
H1240 H 0.79464 0.69118 0.78265 0.0
H1241 H 0.74476 0.61947 0.69633 0.0
H1242 H 0.73407 0.6929 0.81611 0.0
H1243 H 0.68541 0.61731 0.73107 0.0
H1244 H 0.58495 0.61834 0.81655 0.0
H1245 H 0.63247 0.62717 0.76712 0.0
H1246 H 0.71926 0.63943 0.85447 0.0
H1247 H 0.67039 0.63484 0.90318 0.0
C1248 C 0.77004 0.67753 0.76964 0.0
C1249 C 0.77465 0.65144 0.73989 0.0
C1250 C 0.73574 0.67722 0.78953 0.0
C1251 C 0.70658 0.65168 0.77842 0.0
C1252 C 0.70798 0.63558 0.74175 0.0
C1253 C 0.7419 0.63748 0.72131 0.0
C1254 C 0.61452 0.62118 0.82489 0.0
C1255 C 0.6239 0.62923 0.86292 0.0
C1256 C 0.64167 0.6272 0.79661 0.0
C1257 C 0.679 0.63765 0.80696 0.0
C1258 C 0.68997 0.63486 0.84559 0.0
C1259 C 0.66239 0.63031 0.87362 0.0
H1260 H 0.84848 0.18696 0.42622 0.0
H1261 H 0.89831 0.11082 0.34485 0.0
H1262 H 0.84961 0.13755 0.4739 0.0
H1263 H 0.90189 0.06131 0.39192 0.0
H1264 H 0.93026 0.98387 0.48804 0.0
H1265 H 0.92473 0.0289 0.4371 0.0
H1266 H 0.88429 0.11349 0.51776 0.0
H1267 H 0.88745 0.06613 0.56758 0.0
C1268 C 0.85869 0.15892 0.41816 0.0
C1269 C 0.87916 0.15386 0.3844 0.0
C1270 C 0.86143 0.13095 0.44631 0.0
C1271 C 0.88264 0.09737 0.43931 0.0
C1272 C 0.89008 0.08826 0.40074 0.0
C1273 C 0.88626 0.11628 0.37275 0.0
C1274 C 0.92142 1.01269 0.49497 0.0
C1275 C 0.90403 0.02042 0.52996 0.0
C1276 C 0.91641 0.03843 0.46508 0.0
C1277 C 0.89767 0.07352 0.47155 0.0
C1278 C 0.89344 0.08516 0.50997 0.0
C1279 C 0.89747 0.05864 0.53935 0.0
H1280 H 0.22244 0.88101 0.82765 0.0
H1281 H 0.31393 0.89634 0.74734 0.0
H1282 H 0.26698 0.88535 0.87999 0.0
H1283 H 0.3598 0.89618 0.79949 0.0
H1284 H 0.43372 0.93866 0.88153 0.0
H1285 H 0.37744 0.94442 0.84147 0.0
H1286 H 0.31503 0.87256 0.92016 0.0
H1287 H 0.37023 0.87072 0.96136 0.0
C1288 C 0.25261 0.88237 0.82105 0.0
C1289 C 0.26475 0.89075 0.78386 0.0
C1290 C 0.27822 0.88589 0.85132 0.0
C1291 C 0.31671 0.89445 0.84414 0.0
C1292 C 0.32983 0.89294 0.80617 0.0
C1293 C 0.30387 0.8911 0.77606 0.0
C1294 C 0.40713 0.92651 0.89156 0.0
C1295 C 0.40688 0.90034 0.92169 0.0
C1296 C 0.37523 0.92843 0.8678 0.0
C1297 C 0.34323 0.90521 0.87542 0.0
C1298 C 0.33982 0.88903 0.91197 0.0
C1299 C 0.3714 0.88869 0.93623 0.0
H1300 H 0.10071 0.55076 0.49322 0.0
H1301 H 0.17082 0.49264 0.576 0.0
H1302 H 0.08021 0.48941 0.46745 0.0
H1303 H 0.15308 0.43179 0.54885 0.0
H1304 H 0.13253 0.32715 0.47653 0.0
H1305 H 0.12378 0.3795 0.52128 0.0
H1306 H 0.1239 0.45907 0.42679 0.0
H1307 H 0.13185 0.40646 0.38262 0.0
C1308 C 0.11 0.52484 0.50729 0.0
C1309 C 0.13866 0.52598 0.53515 0.0
C1310 C 0.09903 0.48968 0.49202 0.0
C1311 C 0.11742 0.45606 0.50419 0.0
C1312 C 0.13923 0.4571 0.53785 0.0
C1313 C 0.14933 0.49211 0.55366 0.0
C1314 C 0.13219 0.356 0.46573 0.0
C1315 C 0.13365 0.36296 0.42637 0.0
C1316 C 0.12623 0.38597 0.49121 0.0
C1317 C 0.12165 0.42345 0.47765 0.0
C1318 C 0.12533 0.43042 0.43827 0.0
C1319 C 0.13104 0.40048 0.41294 0.0
H1320 H 0.65179 0.39914 0.58109 0.0
H1321 H 0.58967 0.45045 0.67298 0.0
H1322 H 0.70954 0.40129 0.61785 0.0
H1323 H 0.64838 0.45814 0.70893 0.0
H1324 H 0.72696 0.41268 0.79255 0.0
H1325 H 0.67554 0.41499 0.74651 0.0
H1326 H 0.75814 0.40382 0.65538 0.0
H1327 H 0.80778 0.39632 0.70184 0.0
C1328 C 0.65123 0.41377 0.60833 0.0
C1329 C 0.61632 0.41986 0.62672 0.0
C1330 C 0.68449 0.41414 0.63019 0.0
C1331 C 0.68289 0.42551 0.66874 0.0
C1332 C 0.64982 0.44483 0.68112 0.0
C1333 C 0.61632 0.44231 0.65969 0.0
C1334 C 0.73348 0.40801 0.76277 0.0
C1335 C 0.77135 0.40588 0.75056 0.0
C1336 C 0.70428 0.41149 0.73598 0.0
C1337 C 0.71281 0.4138 0.6967 0.0
C1338 C 0.74997 0.40424 0.68501 0.0
C1339 C 0.77871 0.39881 0.71194 0.0
H1340 H 0.68676 0.21822 0.58985 0.0
H1341 H 0.66005 0.128 0.66879 0.0
H1342 H 0.68608 0.17302 0.53775 0.0
H1343 H 0.66194 0.0819 0.61708 0.0
H1344 H 0.61416 1.01369 0.53099 0.0
H1345 H 0.61378 0.06934 0.57239 0.0
H1346 H 0.69543 0.12455 0.49804 0.0
H1347 H 0.69202 0.07066 0.45549 0.0
C1348 C 0.68297 0.18824 0.59644 0.0
C1349 C 0.66941 0.17686 0.63231 0.0
C1350 C 0.68154 0.16243 0.56623 0.0
C1351 C 0.66959 0.12471 0.5727 0.0
C1352 C 0.66749 0.11163 0.61064 0.0
C1353 C 0.66817 0.13772 0.64062 0.0
C1354 C 0.62969 0.03896 0.52216 0.0
C1355 C 0.65643 0.03695 0.49276 0.0
C1356 C 0.6309 0.07021 0.54675 0.0
C1357 C 0.65796 0.09945 0.54076 0.0
C1358 C 0.67581 0.10175 0.50498 0.0
C1359 C 0.67307 0.07106 0.47985 0.0
H1360 H 0.25727 0.15231 0.71823 0.0
H1361 H 0.29972 0.05523 0.7815 0.0
H1362 H 0.3062 0.14201 0.67045 0.0
H1363 H 0.34569 0.0425 0.73226 0.0
H1364 H 0.45873 0.09619 0.68896 0.0
H1365 H 0.40251 0.06827 0.71644 0.0
H1366 H 0.33529 0.10904 0.62089 0.0
H1367 H 0.39198 0.13904 0.59489 0.0
C1368 C 0.27679 0.12863 0.7217 0.0
C1369 C 0.27492 0.10497 0.75376 0.0
C1370 C 0.30425 0.12191 0.6938 0.0
C1371 C 0.32991 0.09102 0.6972 0.0
C1372 C 0.32698 0.06681 0.72883 0.0
C1373 C 0.30051 0.07423 0.75713 0.0
C1374 C 0.43237 0.09708 0.67272 0.0
C1375 C 0.42872 0.12123 0.64125 0.0
C1376 C 0.39972 0.08113 0.68853 0.0
C1377 C 0.36373 0.08883 0.67213 0.0
C1378 C 0.36225 0.10451 0.63528 0.0
C1379 C 0.39479 0.12122 0.62 0.0
H1380 H 0.39981 0.54683 0.57944 0.0
H1381 H 0.30453 0.50124 0.515 0.0
H1382 H 0.39328 0.49481 0.62486 0.0
H1383 H 0.29533 0.45226 0.56209 0.0
H1384 H 0.34986 0.33926 0.603 0.0
H1385 H 0.32348 0.39632 0.57569 0.0
H1386 H 0.36299 0.46151 0.6733 0.0
H1387 H 0.392 0.40386 0.69906 0.0
C1388 C 0.37724 0.52604 0.57527 0.0
C1389 C 0.35311 0.528 0.54343 0.0
C1390 C 0.37276 0.49665 0.6018 0.0
C1391 C 0.34349 0.46916 0.5974 0.0
C1392 C 0.31863 0.47221 0.56618 0.0
C1393 C 0.32401 0.50052 0.53906 0.0
C1394 C 0.35096 0.36533 0.61964 0.0
C1395 C 0.37421 0.3679 0.652 0.0
C1396 C 0.33594 0.3985 0.60389 0.0
C1397 C 0.3433 0.43415 0.62119 0.0
C1398 C 0.35883 0.43482 0.65821 0.0
C1399 C 0.37476 0.40174 0.6734 0.0
H1400 H 0.71037 0.74103 0.62551 0.0
H1401 H 0.78729 0.81844 0.68275 0.0
H1402 H 0.74582 0.68719 0.65073 0.0
H1403 H 0.82575 0.76632 0.70321 0.0
H1404 H 0.90957 0.67149 0.70776 0.0
H1405 H 0.85936 0.71707 0.71583 0.0
H1406 H 0.7964 0.66288 0.62343 0.0
H1407 H 0.84481 0.61469 0.61927 0.0
C1408 C 0.73409 0.74634 0.64472 0.0
C1409 C 0.74785 0.7834 0.65037 0.0
C1410 C 0.75538 0.71565 0.65808 0.0
C1411 C 0.79141 0.7223 0.67494 0.0
C1412 C 0.79961 0.75934 0.6884 0.0
C1413 C 0.77706 0.78977 0.67695 0.0
C1414 C 0.88485 0.66941 0.68928 0.0
C1415 C 0.88027 0.6386 0.66413 0.0
C1416 C 0.85577 0.69592 0.69369 0.0
C1417 C 0.82227 0.6934 0.6715 0.0
C1418 C 0.82004 0.66475 0.64323 0.0
C1419 C 0.84847 0.63745 0.63991 0.0
H1420 H 0.75524 0.23379 0.84891 0.0
H1421 H 0.70187 0.3035 0.93489 0.0
H1422 H 0.77397 0.29112 0.81436 0.0
H1423 H 0.72189 0.36053 0.90168 0.0
H1424 H 0.79973 0.45286 0.86542 0.0
H1425 H 0.74697 0.40799 0.85948 0.0
H1426 H 0.82787 0.31516 0.85218 0.0
H1427 H 0.88018 0.35997 0.85901 0.0
C1428 C 0.74566 0.26131 0.85921 0.0
C1429 C 0.72914 0.26492 0.89532 0.0
C1430 C 0.75634 0.29412 0.8395 0.0
C1431 C 0.75202 0.32993 0.85712 0.0
C1432 C 0.72703 0.33323 0.88814 0.0
C1433 C 0.71579 0.30053 0.90749 0.0
C1434 C 0.80607 0.42273 0.86384 0.0
C1435 C 0.84395 0.40961 0.86438 0.0
C1436 C 0.77591 0.39723 0.85905 0.0
C1437 C 0.78312 0.35819 0.8542 0.0
C1438 C 0.82116 0.34524 0.85438 0.0
C1439 C 0.8512 0.37068 0.85941 0.0
H1440 H 0.4977 0.03126 0.43305 0.0
H1441 H 0.5609 0.08607 0.34304 0.0
H1442 H 0.5572 1.00982 0.46172 0.0
H1443 H 0.61957 0.06134 0.36866 0.0
H1444 H 0.7115 0.97741 0.39192 0.0
H1445 H 0.66889 0.03173 0.39702 0.0
H1446 H 0.57788 0.95519 0.43117 0.0
H1447 H 0.62142 0.90198 0.42832 0.0
C1448 C 0.52442 0.04021 0.42039 0.0
C1449 C 0.52516 0.0577 0.38452 0.0
C1450 C 0.5585 0.02742 0.43636 0.0
C1451 C 0.59237 0.03023 0.41503 0.0
C1452 C 0.5938 0.05661 0.38488 0.0
C1453 C 0.55998 0.07084 0.36993 0.0
C1454 C 0.68232 0.9725 0.40024 0.0
C1455 C 0.66974 0.93576 0.40989 0.0
C1456 C 0.65789 1.0036 0.40347 0.0
C1457 C 0.62009 0.99837 0.41572 0.0
C1458 C 0.6072 0.96103 0.42354 0.0
C1459 C 0.63182 0.93017 0.4209 0.0
H1460 H 0.15984 0.17434 0.85511 0.0
H1461 H 0.23745 0.08408 0.88544 0.0
H1462 H 0.21269 0.21791 0.84811 0.0
H1463 H 0.29152 0.12705 0.87659 0.0
H1464 H 0.33657 0.2359 0.94034 0.0
H1465 H 0.31783 0.17709 0.91009 0.0
H1466 H 0.26756 0.24077 0.81707 0.0
H1467 H 0.28416 0.30016 0.84932 0.0
C1468 C 0.18848 0.16387 0.86027 0.0
C1469 C 0.19468 0.12608 0.87155 0.0
C1470 C 0.21907 0.18852 0.85516 0.0
C1471 C 0.25684 0.17592 0.86087 0.0
C1472 C 0.26296 0.13786 0.87202 0.0
C1473 C 0.23208 0.11339 0.87785 0.0
C1474 C 0.32305 0.23728 0.91251 0.0
C1475 C 0.3089 0.27197 0.89846 0.0
C1476 C 0.31248 0.20338 0.8948 0.0
C1477 C 0.28791 0.2046 0.86307 0.0
C1478 C 0.28414 0.23935 0.84317 0.0
C1479 C 0.29387 0.27343 0.86144 0.0
H1480 H 0.83927 0.10675 0.83966 0.0
H1481 H 0.8931 0.20509 0.88985 0.0
H1482 H 0.9013 0.07709 0.83118 0.0
H1483 H 0.95461 0.17499 0.88513 0.0
H1484 H 0.06123 0.10028 0.8804 0.0
H1485 H 1.00781 0.14253 0.87024 0.0
H1486 H 0.93044 0.04675 0.88264 0.0
H1487 H 0.98473 1.00411 0.88861 0.0
C1488 C 0.86463 0.12295 0.84694 0.0
C1489 C 0.86191 0.15601 0.86908 0.0
C1490 C 0.90009 0.10543 0.84347 0.0
C1491 C 0.9323 0.12195 0.86126 0.0
C1492 C 0.93031 0.16034 0.8728 0.0
C1493 C 0.8949 0.17813 0.87476 0.0
C1494 C 0.03265 0.08861 0.88293 0.0
C1495 C 0.02685 0.04897 0.88427 0.0
C1496 C 1.00194 0.11278 0.87608 0.0
C1497 C 0.96488 0.09772 0.87297 0.0
C1498 C 0.95885 0.05895 0.88204 0.0
C1499 C 0.98974 0.03463 0.88735 0.0
H1500 H 0.63995 0.37261 0.13152 0.0
H1501 H 0.72132 0.46297 0.11469 0.0
H1502 H 0.691 0.32586 0.12878 0.0
H1503 H 0.77328 0.41696 0.11504 0.0
H1504 H 0.84643 0.30565 0.09463 0.0
H1505 H 0.80878 0.3636 0.0955 0.0
H1506 H 0.73518 0.31305 0.18045 0.0
H1507 H 0.7715 0.25417 0.17683 0.0
C1508 C 0.66864 0.38228 0.12517 0.0
C1509 C 0.67751 0.42128 0.12577 0.0
C1510 C 0.6981 0.35577 0.12528 0.0
C1511 C 0.73633 0.36827 0.1253 0.0
C1512 C 0.74421 0.40664 0.11693 0.0
C1513 C 0.71443 0.43294 0.1158 0.0
C1514 C 0.82366 0.30793 0.11535 0.0
C1515 C 0.80897 0.27481 0.13261 0.0
C1516 C 0.80148 0.34091 0.11514 0.0
C1517 C 0.76704 0.34128 0.13541 0.0
C1518 C 0.76003 0.31215 0.1622 0.0
C1519 C 0.78171 0.2789 0.1613 0.0
H1520 H 0.70196 0.1089 0.19507 0.0
H1521 H 0.6403 0.20504 0.15123 0.0
H1522 H 0.64367 0.07153 0.1961 0.0
H1523 H 0.58296 0.16776 0.14737 0.0
H1524 H 0.4836 0.08528 0.137 0.0
H1525 H 0.53414 0.13049 0.14642 0.0
H1526 H 0.6157 0.03769 0.15007 0.0
H1527 H 0.56342 0.99244 0.14537 0.0
C1528 C 0.67543 0.12264 0.18711 0.0
C1529 C 0.67584 0.15778 0.16823 0.0
C1530 C 0.64223 0.10057 0.18574 0.0
C1531 C 0.60942 0.11469 0.16695 0.0
C1532 C 0.60782 0.15427 0.15959 0.0
C1533 C 0.64081 0.1764 0.16293 0.0
C1534 C 0.51262 0.07463 0.13806 0.0
C1535 C 0.51953 0.03551 0.14265 0.0
C1536 C 0.54191 0.10078 0.14468 0.0
C1537 C 0.57912 0.08799 0.15292 0.0
C1538 C 0.58702 0.0488 0.14773 0.0
C1539 C 0.55731 0.02265 0.14295 0.0
H1540 H 0.48787 0.58339 0.18261 0.0
H1541 H 0.54989 0.51849 0.09884 0.0
H1542 H 0.42842 0.55778 0.15889 0.0
H1543 H 0.48982 0.49491 0.07258 0.0
H1544 H 0.33102 0.47855 0.13598 0.0
H1545 H 0.37741 0.52975 0.12731 0.0
H1546 H 0.46574 0.44509 0.11095 0.0
H1547 H 0.41895 0.39475 0.11764 0.0
C1548 C 0.48843 0.56558 0.15731 0.0
C1549 C 0.52303 0.5507 0.14399 0.0
C1550 C 0.45422 0.55087 0.14352 0.0
C1551 C 0.45486 0.52186 0.11589 0.0
C1552 C 0.48895 0.5154 0.09571 0.0
C1553 C 0.52335 0.52926 0.11031 0.0
C1554 C 0.3605 0.47119 0.13124 0.0
C1555 C 0.37153 0.43287 0.12765 0.0
C1556 C 0.38699 0.50044 0.12561 0.0
C1557 C 0.42517 0.49174 0.11712 0.0
C1558 C 0.43631 0.45316 0.11551 0.0
C1559 C 0.40976 0.42414 0.12045 0.0
H1560 H 0.98215 0.61034 0.28306 0.0
H1561 H 0.0982 0.60258 0.24505 0.0
H1562 H 0.98054 0.54106 0.2922 0.0
H1563 H 0.09694 0.53414 0.25306 0.0
H1564 H 0.09539 0.40597 0.28104 0.0
H1565 H 0.09795 0.47483 0.27387 0.0
H1566 H 0.97486 0.47894 0.27534 0.0
H1567 H 0.97313 0.40978 0.28389 0.0
C1568 C 1.00795 0.59435 0.27776 0.0
C1569 C 0.04059 0.61374 0.26381 0.0
C1570 C 1.00685 0.55361 0.28217 0.0
C1571 C 0.0383 0.52962 0.27268 0.0
C1572 C 0.07161 0.5496 0.26118 0.0
C1573 C 0.07266 0.59 0.25706 0.0
C1574 C 0.06868 0.42114 0.27773 0.0
C1575 C 0.034 0.40056 0.28086 0.0
C1576 C 0.07002 0.46174 0.2743 0.0
C1577 C 0.03662 0.48484 0.27414 0.0
C1578 C 1.00178 0.46396 0.27575 0.0
C1579 C 1.00059 0.42329 0.2794 0.0
H1580 H 0.67121 0.79249 0.02175 0.0
H1581 H 0.6698 0.67436 0.98898 0.0
H1582 H 0.74036 0.78934 0.03157 0.0
H1583 H 0.73873 0.67057 1.00016 0.0
H1584 H 0.86237 0.66974 0.05473 0.0
H1585 H 0.79381 0.67043 0.0422 0.0
H1586 H 0.80326 0.78518 0.99932 0.0
H1587 H 0.87272 0.78348 1.01004 0.0
C1588 C 0.68498 0.76523 1.018 0.0
C1589 C 0.66297 0.73336 1.0058 0.0
C1590 C 0.72554 0.76356 0.023 0.0
C1591 C 0.74682 0.72975 1.01643 0.0
C1592 C 0.72462 0.69738 1.00599 0.0
C1593 C 0.68423 0.69934 1.00024 0.0
C1594 C 0.85047 0.69467 0.04086 0.0
C1595 C 0.87478 0.72627 0.03311 0.0
C1596 C 0.81029 0.69534 0.03422 0.0
C1597 C 0.79125 0.72817 0.02032 0.0
C1598 C 0.81562 0.75933 1.01083 0.0
C1599 C 0.8562 0.75822 1.0166 0.0
H1600 H 0.95548 0.10674 0.2807 0.0
H1601 H 0.07777 0.10332 0.28244 0.0
H1602 H 0.95298 0.03847 0.2699 0.0
H1603 H 0.07614 0.03465 0.27018 0.0
H1604 H 0.06935 0.90239 0.26568 0.0
H1605 H 0.07211 0.97123 0.27796 0.0
H1606 H 0.95244 0.97969 0.24948 0.0
H1607 H 0.95019 0.91157 0.23886 0.0
C1608 C 0.9822 0.09183 0.27658 0.0
C1609 C 1.01684 0.11243 0.2804 0.0
C1610 C 0.98092 0.05145 0.27088 0.0
C1611 C 1.01434 0.02841 0.26893 0.0
C1612 C 0.04915 0.04941 0.27161 0.0
C1613 C 0.0503 0.0899 0.2776 0.0
C1614 C 0.04314 0.91862 0.26393 0.0
C1615 C 1.00903 0.89967 0.25294 0.0
C1616 C 0.04482 0.95918 0.27 0.0
C1617 C 1.01261 0.98361 0.26475 0.0
C1618 C 0.9784 0.96402 0.25479 0.0
C1619 C 0.9768 0.92376 0.24903 0.0
H1620 H 0.36917 0.81809 1.01597 0.0
H1621 H 0.36848 0.69687 0.99967 0.0
H1622 H 0.3008 0.81723 0.02768 0.0
H1623 H 0.29973 0.69534 1.00923 0.0
H1624 H 0.17057 0.69561 0.03811 0.0
H1625 H 0.23942 0.69473 0.02845 0.0
H1626 H 0.23879 0.81737 1.01646 0.0
H1627 H 0.17037 0.81756 0.02779 0.0
C1628 C 0.35486 0.79069 1.01683 0.0
C1629 C 0.37627 0.7573 1.00932 0.0
C1630 C 0.31442 0.79016 0.02222 0.0
C1631 C 0.29212 0.75619 0.01914 0.0
C1632 C 0.31391 0.72255 1.01257 0.0
C1633 C 0.35445 0.72318 1.00768 0.0
C1634 C 0.18475 0.72233 0.03162 0.0
C1635 C 0.16311 0.75646 0.03196 0.0
C1636 C 0.22531 0.72205 0.02668 0.0
C1637 C 0.24725 0.75605 0.02198 0.0
C1638 C 0.22508 0.79006 0.02061 0.0
C1639 C 0.18464 0.79023 0.02595 0.0
H1640 H 0.28158 0.08412 0.4188 0.0
H1641 H 0.29426 0.96242 0.42024 0.0
H1642 H 0.27078 0.08422 0.48733 0.0
H1643 H 0.28553 0.96183 0.48899 0.0
H1644 H 0.26 0.9634 0.61825 0.0
H1645 H 0.26901 0.96202 0.54956 0.0
H1646 H 0.28015 0.08485 0.54941 0.0
H1647 H 0.26898 0.08541 0.61783 0.0
C1648 C 0.28045 0.05689 0.4334 0.0
C1649 C 0.287 0.02306 0.41225 0.0
C1650 C 0.2754 0.0569 0.47388 0.0
C1651 C 0.27771 0.02307 0.49639 0.0
C1652 C 0.283 0.98904 0.47476 0.0
C1653 C 0.28752 0.98913 0.43422 0.0
C1654 C 0.26633 0.99007 0.60396 0.0
C1655 C 0.26607 0.02435 0.62547 0.0
C1656 C 0.27087 0.9895 0.56341 0.0
C1657 C 0.27522 0.02336 0.54127 0.0
C1658 C 0.27647 0.05758 0.56326 0.0
C1659 C 0.27137 0.05802 0.60372 0.0
H1660 H 0.33884 0.5006 0.86526 0.0
H1661 H 0.21837 0.52034 0.87032 0.0
H1662 H 0.3379 0.50983 0.79664 0.0
H1663 H 0.21673 0.53095 0.80146 0.0
H1664 H 0.2127 0.53194 0.67 0.0
H1665 H 0.2143 0.52075 0.73865 0.0
H1666 H 0.33716 0.52909 0.73663 0.0
H1667 H 0.33478 0.53908 0.66809 0.0
C1668 C 0.31219 0.5091 0.85212 0.0
C1669 C 0.27922 0.51184 0.8753 0.0
C1670 C 0.31134 0.51387 0.8116 0.0
C1671 C 0.27712 0.52121 0.79083 0.0
C1672 C 0.24414 0.52505 0.81432 0.0
C1673 C 0.24513 0.52009 0.85498 0.0
C1674 C 0.2403 0.52916 0.68372 0.0
C1675 C 0.27368 0.53414 0.66144 0.0
C1676 C 0.24134 0.52389 0.72429 0.0
C1677 C 0.27593 0.52415 0.74585 0.0
C1678 C 0.30941 0.52798 0.72317 0.0
C1679 C 0.30824 0.53305 0.68264 0.0
H1680 H 0.78115 0.57855 0.6144 0.0
H1681 H 0.78572 0.45639 0.61964 0.0
H1682 H 0.77194 0.5754 0.54517 0.0
H1683 H 0.77731 0.45256 0.55088 0.0
H1684 H 0.74203 0.45054 0.42379 0.0
H1685 H 0.75086 0.45292 0.49238 0.0
H1686 H 0.79245 0.56847 0.48294 0.0
H1687 H 0.783 0.56559 0.41356 0.0
C1688 C 0.77822 0.5507 0.60128 0.0
C1689 C 0.78192 0.5177 0.62449 0.0
C1690 C 0.77409 0.54877 0.56062 0.0
C1691 C 0.77401 0.51362 0.54022 0.0
C1692 C 0.77639 0.48059 0.56374 0.0
C1693 C 0.78048 0.48265 0.60427 0.0
C1694 C 0.75471 0.47611 0.43584 0.0
C1695 C 0.76231 0.50754 0.41142 0.0
C1696 C 0.75935 0.47778 0.47623 0.0
C1697 C 0.77189 0.51122 0.49549 0.0
C1698 C 0.78178 0.5421 0.47085 0.0
C1699 C 0.77715 0.54027 0.43014 0.0
H1700 H 0.7016 0.02187 0.86742 0.0
H1701 H 0.8224 0.04138 0.86945 0.0
H1702 H 0.7032 1.01445 0.79859 0.0
H1703 H 0.82465 0.03586 0.80042 0.0
H1704 H 0.82583 0.02029 0.66933 0.0
H1705 H 0.82611 0.02561 0.73855 0.0
H1706 H 0.70284 0.02632 0.73754 0.0
H1707 H 0.70355 1.01884 0.66881 0.0
C1708 C 0.72911 0.02273 0.85347 0.0
C1709 C 0.76213 0.03017 0.87571 0.0
C1710 C 0.73005 0.01981 0.81282 0.0
C1711 C 0.76402 0.0253 0.79124 0.0
C1712 C 0.79739 0.03113 0.81387 0.0
C1713 C 0.79638 0.03353 0.85457 0.0
C1714 C 0.79872 0.02288 0.68371 0.0
C1715 C 0.76474 0.02004 0.66191 0.0
C1716 C 0.79867 0.02544 0.72447 0.0
C1717 C 0.76443 0.0255 0.74634 0.0
C1718 C 0.73041 0.02537 0.72399 0.0
C1719 C 0.73065 0.02232 0.68339 0.0
H1720 H 0.29081 0.94028 0.1171 0.0
H1721 H 0.27307 0.06151 0.11577 0.0
H1722 H 0.28281 0.93812 0.04797 0.0
H1723 H 0.26542 0.05976 0.04656 0.0
H1724 H 0.28667 0.05472 0.91572 0.0
H1725 H 0.29484 0.05484 0.98525 0.0
H1726 H 0.24952 0.94054 0.99024 0.0
H1727 H 0.24063 0.94108 0.92131 0.0
C1728 C 0.28357 0.96652 0.10255 0.0
C1729 C 0.28193 1.00088 0.12397 0.0
C1730 C 0.27952 0.96542 0.062 0.0
C1731 C 0.27408 0.99887 0.03979 0.0
C1732 C 0.27048 0.03309 0.06126 0.0
C1733 C 0.2742 0.03402 0.10195 0.0
C1734 C 0.27934 0.02909 0.93122 0.0
C1735 C 0.26349 0.99758 0.91122 0.0
C1736 C 0.28345 0.02935 0.97195 0.0
C1737 C 0.27229 0.99795 0.9952 0.0
C1738 C 0.25884 0.9656 0.97481 0.0
C1739 C 0.2543 0.96561 0.93438 0.0
H1740 H 0.31182 0.5277 0.36659 0.0
H1741 H 0.19061 0.5441 0.36636 0.0
H1742 H 0.31053 0.51815 0.29722 0.0
H1743 H 0.18873 0.53413 0.29743 0.0
H1744 H 0.19099 0.49021 0.17166 0.0
H1745 H 0.19106 0.50003 0.24044 0.0
H1746 H 0.30582 0.54376 0.23416 0.0
H1747 H 0.30518 0.53406 0.1647 0.0
C1748 C 0.28444 0.52761 0.35229 0.0
C1749 C 0.25114 0.535 0.37404 0.0
C1750 C 0.28371 0.52299 0.31159 0.0
C1751 C 0.24952 0.52552 0.28969 0.0
C1752 C 0.216 0.53129 0.3117 0.0
C1753 C 0.21691 0.53632 0.35224 0.0
C1754 C 0.21582 0.50361 0.18439 0.0
C1755 C 0.24738 0.51259 0.16064 0.0
C1756 C 0.21612 0.50885 0.2248 0.0
C1757 C 0.24861 0.52252 0.24493 0.0
C1758 C 0.28003 0.53264 0.2212 0.0
C1759 C 0.27942 0.52783 0.18043 0.0
H1760 H 0.73953 0.60118 0.11401 0.0
H1761 H 0.78573 0.48804 0.12104 0.0
H1762 H 0.74827 0.60127 0.04519 0.0
H1763 H 0.7947 0.48762 0.05158 0.0
H1764 H 0.77739 0.47903 0.92131 0.0
H1765 H 0.76857 0.48135 0.99023 0.0
H1766 H 0.77872 0.6039 0.98697 0.0
H1767 H 0.78715 0.60113 0.91792 0.0
C1768 C 0.75331 0.57668 0.10125 0.0
C1769 C 0.76257 0.54495 0.12474 0.0
C1770 C 0.75785 0.57645 0.06083 0.0
C1771 C 0.77163 0.54414 0.0408 0.0
C1772 C 0.78309 0.51311 0.06448 0.0
C1773 C 0.77883 0.5136 0.10517 0.0
C1774 C 0.77576 0.50679 0.93462 0.0
C1775 C 0.78109 0.53998 0.91199 0.0
C1776 C 0.77182 0.50812 0.97521 0.0
C1777 C 0.77332 0.54282 0.99616 0.0
C1778 C 0.77684 0.57622 0.97338 0.0
C1779 C 0.78094 0.57476 0.93282 0.0
H1780 H 0.72121 0.03783 0.17395 0.0
H1781 H 0.84342 0.03438 0.16823 0.0
H1782 H 0.72419 0.02849 0.24314 0.0
H1783 H 0.84709 0.02624 0.23706 0.0
H1784 H 0.84699 0.98875 0.36305 0.0
H1785 H 0.84481 0.99828 0.29463 0.0
H1786 H 0.73335 0.04908 0.30519 0.0
H1787 H 0.73586 0.03874 0.3744 0.0
C1788 C 0.74887 0.03318 0.18703 0.0
C1789 C 0.78194 0.03465 0.16388 0.0
C1790 C 0.75077 0.02897 0.22759 0.0
C1791 C 0.786 0.02664 0.24774 0.0
C1792 C 0.819 0.02705 0.22425 0.0
C1793 C 0.81698 0.03115 0.18381 0.0
C1794 C 0.82253 1.00357 0.35127 0.0
C1795 C 0.79203 1.01348 0.37583 0.0
C1796 C 0.82094 1.00867 0.31104 0.0
C1797 C 0.78854 0.02405 0.29225 0.0
C1798 C 0.75877 0.03621 0.31705 0.0
C1799 C 0.76049 0.03105 0.35761 0.0
H1800 H 0.61833 0.25437 0.08944 0.0
H1801 H 0.62298 0.2618 0.96748 0.0
H1802 H 0.55023 0.26646 0.08801 0.0
H1803 H 0.55426 0.27215 0.96501 0.0
H1804 H 0.42488 0.29799 0.96456 0.0
H1805 H 0.49337 0.2877 0.96491 0.0
H1806 H 0.48812 0.26041 0.08491 0.0
H1807 H 0.41974 0.2725 0.08402 0.0
C1808 C 0.60515 0.26017 0.06205 0.0
C1809 C 0.62796 0.25856 0.02875 0.0
C1810 C 0.56483 0.26607 0.06096 0.0
C1811 C 0.54393 0.26982 0.02627 0.0
C1812 C 0.56719 0.26968 0.99289 0.0
C1813 C 0.60774 0.26422 0.99416 0.0
C1814 C 0.43794 0.28803 0.99077 0.0
C1815 C 0.41489 0.28422 0.02375 0.0
C1816 C 0.47839 0.28266 0.99129 0.0
C1817 C 0.49903 0.27332 0.02508 0.0
C1818 C 0.4755 0.26804 0.05785 0.0
C1819 C 0.43504 0.27387 0.05727 0.0
H1820 H 0.61709 0.79473 0.45154 0.0
H1821 H 0.61146 0.80038 0.57361 0.0
H1822 H 0.54843 0.78404 0.44822 0.0
H1823 H 0.54264 0.78855 0.57101 0.0
H1824 H 0.411 0.7922 0.56057 0.0
H1825 H 0.47979 0.805 0.56255 0.0
H1826 H 0.49109 0.75522 0.45064 0.0
H1827 H 0.42284 0.74337 0.44891 0.0
C1828 C 0.60167 0.7915 0.47806 0.0
C1829 C 0.62167 0.79616 0.51298 0.0
C1830 C 0.56128 0.7859 0.47624 0.0
C1831 C 0.53779 0.78521 0.50929 0.0
C1832 C 0.55805 0.78905 0.54436 0.0
C1833 C 0.59851 0.79475 0.54606 0.0
C1834 C 0.42775 0.78533 0.53566 0.0
C1835 C 0.40967 0.76765 0.50398 0.0
C1836 C 0.46819 0.7919 0.53708 0.0
C1837 C 0.49321 0.78089 0.50703 0.0
C1838 C 0.47456 0.7649 0.47472 0.0
C1839 C 0.4344 0.7584 0.4734 0.0
H1840 H 1.0153 0.37484 0.71761 0.0
H1841 H 1.00604 0.37647 0.83954 0.0
H1842 H 0.02732 0.30595 0.71919 0.0
H1843 H 1.0178 0.30779 0.8417 0.0
H1844 H 0.06484 0.18386 0.83912 0.0
H1845 H 0.0524 0.25211 0.83877 0.0
H1846 H 1.00578 0.24258 0.72522 0.0
H1847 H 1.01843 0.17361 0.726 0.0
C1848 C 1.0178 0.36105 0.74516 0.0
C1849 C 1.01222 0.3831 0.77865 0.0
C1850 C 0.02364 0.32062 0.74608 0.0
C1851 C 0.0237 0.29936 0.78061 0.0
C1852 C 1.01891 0.32167 0.81418 0.0
C1853 C 1.01281 0.362 0.81311 0.0
C1854 C 0.05037 0.19573 0.81449 0.0
C1855 C 0.04196 0.17149 0.78305 0.0
C1856 C 0.04356 0.23582 0.81404 0.0
C1857 C 0.02831 0.25488 0.78176 0.0
C1858 C 1.01826 0.23044 0.75073 0.0
C1859 C 0.02485 0.18999 0.75138 0.0
H1860 H 0.53988 0.67311 0.33695 0.0
H1861 H 0.52458 0.66714 0.21571 0.0
H1862 H 0.5296 0.74121 0.3357 0.0
H1863 H 0.51448 0.73593 0.21342 0.0
H1864 H 0.5027 0.86719 0.21095 0.0
H1865 H 0.51223 0.79848 0.21154 0.0
H1866 H 0.52512 0.80256 0.33412 0.0
H1867 H 0.51552 0.87095 0.33252 0.0
C1868 C 0.5324 0.68602 0.30986 0.0
C1869 C 0.53174 0.66278 0.27673 0.0
C1870 C 0.52736 0.72642 0.3088 0.0
C1871 C 0.52174 0.74705 0.27425 0.0
C1872 C 0.5191 0.72335 0.24114 0.0
C1873 C 0.52414 0.68271 0.24238 0.0
C1874 C 0.50971 0.85377 0.2379 0.0
C1875 C 0.51059 0.87652 0.27139 0.0
C1876 C 0.51425 0.81315 0.23856 0.0
C1877 C 0.51928 0.79206 0.27299 0.0
C1878 C 0.52141 0.81533 0.30638 0.0
C1879 C 0.51684 0.85588 0.30557 0.0
H1880 H 0.91679 0.77686 0.4755 0.0
H1881 H 0.92019 0.79576 0.59632 0.0
H1882 H 0.98623 0.76833 0.47512 0.0
H1883 H 0.98904 0.78765 0.59653 0.0
H1884 H 0.11705 0.75465 0.59389 0.0
H1885 H 0.04801 0.76176 0.59533 0.0
H1886 H 0.04863 0.79034 0.47576 0.0
H1887 H 0.11797 0.78247 0.47484 0.0
C1888 C 0.93185 0.77753 0.50249 0.0
C1889 C 0.91098 0.78546 0.53619 0.0
C1890 C 0.97264 0.77362 0.50224 0.0
C1891 C 0.99551 0.77766 0.53574 0.0
C1892 C 0.97428 0.78368 0.56969 0.0
C1893 C 0.93369 0.78762 0.56979 0.0
C1894 C 0.10287 0.76396 0.56809 0.0
C1895 C 0.12499 0.76883 0.53462 0.0
C1896 C 0.06226 0.76767 0.56868 0.0
C1897 C 0.04042 0.77617 0.53549 0.0
C1898 C 0.06269 0.78291 0.50223 0.0
C1899 C 0.1035 0.77922 0.50181 0.0
H1900 H 0.04752 0.87334 0.69348 0.0
H1901 H 1.01745 0.8794 0.81169 0.0
H1902 H 0.03819 0.80447 0.69387 0.0
H1903 H 1.00836 0.8096 0.81282 0.0
H1904 H 0.02619 0.67711 0.81562 0.0
H1905 H 0.0347 0.74666 0.81416 0.0
H1906 H 1.00552 0.74699 0.69473 0.0
H1907 H 0.99666 0.67801 0.69676 0.0
C1908 C 0.03702 0.86039 0.71945 0.0
C1909 C 0.03233 0.88375 0.75226 0.0
C1910 C 0.03226 0.81986 0.71992 0.0
C1911 C 0.02293 0.79934 0.75356 0.0
C1912 C 1.01624 0.82281 0.7861 0.0
C1913 C 0.02061 0.86367 0.78534 0.0
C1914 C 0.02322 0.6915 0.78849 0.0
C1915 C 1.01267 0.66988 0.75577 0.0
C1916 C 0.02721 0.73236 0.7878 0.0
C1917 C 0.02069 0.75449 0.75434 0.0
C1918 C 1.01157 0.73262 0.72137 0.0
C1919 C 1.0072 0.69203 0.72227 0.0
H1920 H 0.47088 0.12684 0.76125 0.0
H1921 H 0.59304 0.12014 0.76406 0.0
H1922 H 0.46645 0.05831 0.7731 0.0
H1923 H 0.58925 0.0517 0.77712 0.0
H1924 H 0.57894 0.9201 0.77417 0.0
H1925 H 0.58194 0.98882 0.76123 0.0
H1926 H 0.46687 1.00073 0.8027 0.0
H1927 H 0.46417 0.93222 0.81422 0.0
C1928 C 0.49705 0.11134 0.76664 0.0
C1929 C 0.53236 0.131 0.76379 0.0
C1930 C 0.49461 0.07097 0.77289 0.0
C1931 C 0.52741 0.04721 0.77623 0.0
C1932 C 0.56275 0.06722 0.77444 0.0
C1933 C 0.56508 0.10753 0.768 0.0
C1934 C 0.55363 0.93697 0.77891 0.0
C1935 C 0.52065 0.91886 0.7937 0.0
C1936 C 0.55557 0.9774 0.77241 0.0
C1937 C 0.52481 1.00259 0.78096 0.0
C1938 C 0.49152 0.98404 0.79483 0.0
C1939 C 0.48968 0.94377 0.80119 0.0
H1940 H 0.16699 0.30259 0.52684 0.0
H1941 H 0.17639 0.18489 0.49406 0.0
H1942 H 0.23598 0.30511 0.53812 0.0
H1943 H 0.24471 0.18703 0.50441 0.0
H1944 H 0.37128 0.19038 0.54049 0.0
H1945 H 0.30261 0.18733 0.53101 0.0
H1946 H 0.29907 0.31005 0.5215 0.0
H1947 H 0.36813 0.31249 0.53224 0.0
C1948 C 0.1832 0.27665 0.52316 0.0
C1949 C 0.16426 0.24312 0.51034 0.0
C1950 C 0.22381 0.27825 0.52889 0.0
C1951 C 0.24824 0.24649 0.52186 0.0
C1952 C 0.22878 0.21258 0.5109 0.0
C1953 C 0.18847 0.21106 0.50534 0.0
C1954 C 0.35637 0.21674 0.53438 0.0
C1955 C 0.37715 0.25153 0.53494 0.0
C1956 C 0.3159 0.21515 0.52947 0.0
C1957 C 0.29297 0.2484 0.52529 0.0
C1958 C 0.31398 0.28327 0.52483 0.0
C1959 C 0.35459 0.28475 0.52987 0.0
H1960 H 0.56245 0.62798 0.75216 0.0
H1961 H 0.44556 0.6205 0.78706 0.0
H1962 H 0.56383 0.55863 0.7427 0.0
H1963 H 0.44641 0.55191 0.77857 0.0
H1964 H 0.44806 0.42341 0.74958 0.0
H1965 H 0.44566 0.49244 0.75631 0.0
H1966 H 0.56866 0.49627 0.76064 0.0
H1967 H 0.57034 0.4269 0.75274 0.0
C1968 C 0.53634 0.61203 0.75637 0.0
C1969 C 0.5036 0.63163 0.76959 0.0
C1970 C 0.5373 0.57124 0.75192 0.0
C1971 C 0.50547 0.54725 0.76048 0.0
C1972 C 0.47203 0.56739 0.77115 0.0
C1973 C 0.4712 0.60789 0.77543 0.0
C1974 C 0.4747 0.43856 0.75403 0.0
C1975 C 0.50932 0.41775 0.75297 0.0
C1976 C 0.47347 0.47924 0.75725 0.0
C1977 C 0.50695 0.50234 0.75902 0.0
C1978 C 0.5417 0.4813 0.75904 0.0
C1979 C 0.54279 0.44051 0.75571 0.0
H1980 H 0.68046 0.33752 0.55478 0.0
H1981 H 0.66321 0.22648 0.50586 0.0
H1982 H 0.74818 0.33359 0.54298 0.0
H1983 H 0.73228 0.2221 0.49308 0.0
H1984 H 0.86482 0.20859 0.49736 0.0
H1985 H 0.79598 0.21231 0.50883 0.0
H1986 H 0.80496 0.33502 0.51424 0.0
H1987 H 0.87344 0.33058 0.50369 0.0
C1988 C 0.69078 0.31252 0.53989 0.0
C1989 C 0.66465 0.28266 0.531 0.0
C1990 C 0.73075 0.30998 0.53331 0.0
C1991 C 0.74808 0.27721 0.5172 0.0
C1992 C 0.72172 0.24789 0.50625 0.0
C1993 C 0.68124 0.2506 0.5129 0.0
C1994 C 0.85252 0.23635 0.50295 0.0
C1995 C 0.87655 0.26905 0.50171 0.0
C1996 C 0.81207 0.2387 0.50855 0.0
C1997 C 0.79265 0.27409 0.51264 0.0
C1998 C 0.81704 0.30675 0.51219 0.0
C1999 C 0.85739 0.30428 0.50662 0.0
H2000 H 0.12148 0.27532 0.94828 0.0
H2001 H 0.12072 0.28211 0.07036 0.0
H2002 H 0.05321 0.26254 0.94781 0.0
H2003 H 0.05217 0.27109 0.07068 0.0
H2004 H 0.92323 0.24246 0.06823 0.0
H2005 H 0.99187 0.25264 0.06973 0.0
H2006 H 0.99077 0.26998 0.94779 0.0
H2007 H 0.92226 0.25811 0.94695 0.0
C2008 C 0.10719 0.27231 0.97545 0.0
C2009 C 0.12858 0.27775 1.00947 0.0
C2010 C 0.06679 0.26609 0.97529 0.0
C2011 C 0.04445 0.266 1.0092 0.0
C2012 C 0.06627 0.27029 0.04336 0.0
C2013 C 0.10676 0.27606 0.04341 0.0
C2014 C 0.93723 0.25028 0.04185 0.0
C2015 C 0.91531 0.25157 1.00778 0.0
C2016 C 0.97775 0.25559 0.04247 0.0
C2017 C 0.99955 0.26223 1.00886 0.0
C2018 C 0.97718 0.26464 0.97485 0.0
C2019 C 0.93668 0.25891 0.97432 0.0
H2020 H 0.515 0.17213 0.31291 0.0
H2021 H 0.50182 0.17132 0.19123 0.0
H2022 H 0.52642 0.24136 0.31136 0.0
H2023 H 0.51348 0.23982 0.18908 0.0
H2024 H 0.56024 0.36357 0.19062 0.0
H2025 H 0.54879 0.29517 0.1917 0.0
H2026 H 0.50268 0.3049 0.30504 0.0
H2027 H 0.51416 0.37423 0.30346 0.0
C2028 C 0.51633 0.18615 0.28544 0.0
C2029 C 0.50944 0.16434 0.25199 0.0
C2030 C 0.52197 0.22669 0.28454 0.0
C2031 C 0.52088 0.24806 0.25005 0.0
C2032 C 0.5154 0.22587 0.21653 0.0
C2033 C 0.50943 0.18558 0.21758 0.0
C2034 C 0.54605 0.35172 0.21535 0.0
C2035 C 0.53755 0.37612 0.24654 0.0
C2036 C 0.53984 0.31154 0.21624 0.0
C2037 C 0.52506 0.29255 0.24869 0.0
C2038 C 0.51481 0.31707 0.27945 0.0
C2039 C 0.52075 0.35766 0.27833 0.0
loop_
_geom_bond_atom_site_label_1
_geom_bond_atom_site_label_2
_geom_bond_distance
_geom_bond_site_symmetry_2
_ccdc_geom_bond_type
O0 Zr5 2.207 . S
O0 C34 1.295 . S
O1 Zr5 2.133 . S
O1 Zr6 2.133 . S
O1 Zr7 2.133 1_655 S
O2 Zr5 2.133 . S
O2 Zr11 2.133 1_655 S
O2 Zr12 2.133 1_655 S
O3 Zr5 2.133 . S
O3 Zr7 2.133 1_655 S
O3 Zr12 2.133 1_655 S
O4 Zr5 2.133 . S
O4 Zr6 2.133 . S
O4 Zr11 2.133 1_655 S
Zr5 O0 2.207 . S
Zr5 O1 2.133 . S
Zr5 O2 2.133 . S
Zr5 O3 2.133 . S
Zr5 O4 2.133 . S
Zr5 O17 2.207 . S
Zr5 O30 2.207 . S
Zr5 O33 2.207 . S
Zr6 O1 2.133 . S
Zr6 O4 2.133 . S
Zr6 O8 2.133 1_655 S
Zr6 O10 2.133 1_655 S
Zr6 O22 2.207 1_655 S
Zr6 O25 2.207 . S
Zr6 O35 2.207 . S
Zr6 O36 2.207 . S
Zr7 O1 2.133 1_455 S
Zr7 O3 2.133 1_455 S
Zr7 O9 2.133 . S
Zr7 O10 2.133 . S
Zr7 O19 2.207 1_455 S
Zr7 O20 2.207 . S
Zr7 O27 2.207 1_455 S
Zr7 O28 2.207 . S
O8 Zr6 2.133 1_455 S
O8 Zr11 2.133 . S
O8 Zr13 2.133 . S
O9 Zr7 2.133 . S
O9 Zr12 2.133 . S
O9 Zr13 2.133 . S
O10 Zr6 2.133 1_455 S
O10 Zr7 2.133 . S
O10 Zr13 2.133 . S
Zr11 O2 2.133 1_455 S
Zr11 O4 2.133 1_455 S
Zr11 O8 2.133 . S
Zr11 O14 2.133 . S
Zr11 O18 2.207 . S
Zr11 O21 2.207 1_455 S
Zr11 O26 2.207 . S
Zr11 O29 2.207 1_455 S
Zr12 O2 2.133 1_455 S
Zr12 O3 2.133 1_455 S
Zr12 O9 2.133 . S
Zr12 O14 2.133 . S
Zr12 O23 2.207 1_455 S
Zr12 O24 2.207 . S
Zr12 O48 2.207 . S
Zr12 O49 2.207 . S
Zr13 O8 2.133 . S
Zr13 O9 2.133 . S
Zr13 O10 2.133 . S
Zr13 O14 2.133 . S
Zr13 O15 2.207 . S
Zr13 O16 2.207 . S
Zr13 O31 2.207 . S
Zr13 O32 2.207 . S
O14 Zr11 2.133 . S
O14 Zr12 2.133 . S
O14 Zr13 2.133 . S
O15 Zr13 2.207 . S
O15 C37 1.295 . S
O16 Zr13 2.207 . S
O16 C38 1.295 . S
O17 Zr5 2.207 . S
O17 C39 1.295 . S
O18 Zr11 2.207 . S
O18 C40 1.295 . S
O19 Zr7 2.207 1_655 S
O19 C41 1.295 . S
O20 Zr7 2.207 . S
O20 C42 1.295 . S
O21 Zr11 2.207 1_655 S
O21 C43 1.295 . S
O22 Zr6 2.207 1_455 S
O22 C44 1.295 . S
O23 Zr12 2.207 1_655 S
O23 C45 1.295 . S
O24 Zr12 2.207 . S
O24 C46 1.295 . S
O25 Zr6 2.207 . S
O25 C47 1.295 . S
O26 Zr11 2.207 . S
O26 C37 1.295 . S
O27 Zr7 2.207 1_655 S
O27 C34 1.295 . S
O28 Zr7 2.207 . S
O28 C38 1.295 . S
O29 Zr11 2.207 1_655 S
O29 C39 1.295 . S
O30 Zr5 2.207 . S
O30 C47 1.295 . S
O31 Zr13 2.207 . S
O31 C46 1.295 . S
O32 Zr13 2.207 . S
O32 C44 1.295 . S
O33 Zr5 2.207 . S
O33 C45 1.295 . S
C34 O0 1.295 . S
C34 O27 1.295 . S
O35 Zr6 2.207 . S
O35 C43 1.295 . S
O36 Zr6 2.207 . S
O36 C41 1.295 . S
C37 O15 1.295 . S
C37 O26 1.295 . S
C38 O16 1.295 . S
C38 O28 1.295 . S
C39 O17 1.295 . S
C39 O29 1.295 . S
C40 O18 1.295 . S
C40 O49 1.295 . S
C41 O19 1.295 . S
C41 O36 1.295 . S
C42 O20 1.295 . S
C42 O48 1.295 . S
C43 O21 1.295 . S
C43 O35 1.295 . S
C44 O22 1.295 . S
C44 O32 1.295 . S
C45 O23 1.295 . S
C45 O33 1.295 . S
C46 O24 1.295 . S
C46 O31 1.295 . S
C47 O25 1.295 . S
C47 O30 1.295 . S
O48 Zr12 2.207 . S
O48 C42 1.295 . S
O49 Zr12 2.207 . S
O49 C40 1.295 . S
O50 Zr55 2.207 . S
O50 C84 1.295 . S
O51 Zr55 2.133 . S
O51 Zr56 2.133 . S
O51 Zr57 2.133 . S
O52 Zr55 2.133 . S
O52 Zr61 2.133 . S
O52 Zr62 2.133 . S
O53 Zr55 2.133 . S
O53 Zr57 2.133 . S
O53 Zr62 2.133 . S
O54 Zr55 2.133 . S
O54 Zr56 2.133 . S
O54 Zr61 2.133 . S
Zr55 O50 2.207 . S
Zr55 O51 2.133 . S
Zr55 O52 2.133 . S
Zr55 O53 2.133 . S
Zr55 O54 2.133 . S
Zr55 O67 2.207 . S
Zr55 O80 2.207 . S
Zr55 O83 2.207 . S
Zr56 O51 2.133 . S
Zr56 O54 2.133 . S
Zr56 O58 2.133 . S
Zr56 O60 2.133 . S
Zr56 O72 2.207 . S
Zr56 O75 2.207 . S
Zr56 O85 2.207 . S
Zr56 O86 2.207 . S
Zr57 O51 2.133 . S
Zr57 O53 2.133 . S
Zr57 O59 2.133 . S
Zr57 O60 2.133 . S
Zr57 O69 2.207 . S
Zr57 O70 2.207 . S
Zr57 O77 2.207 . S
Zr57 O78 2.207 . S
O58 Zr56 2.133 . S
O58 Zr61 2.133 . S
O58 Zr63 2.133 . S
O59 Zr57 2.133 . S
O59 Zr62 2.133 . S
O59 Zr63 2.133 . S
O60 Zr56 2.133 . S
O60 Zr57 2.133 . S
O60 Zr63 2.133 . S
Zr61 O52 2.133 . S
Zr61 O54 2.133 . S
Zr61 O58 2.133 . S
Zr61 O64 2.133 . S
Zr61 O68 2.207 . S
Zr61 O71 2.207 . S
Zr61 O76 2.207 . S
Zr61 O79 2.207 . S
Zr62 O52 2.133 . S
Zr62 O53 2.133 . S
Zr62 O59 2.133 . S
Zr62 O64 2.133 . S
Zr62 O73 2.207 . S
Zr62 O74 2.207 . S
Zr62 O98 2.207 . S
Zr62 O99 2.207 . S
Zr63 O58 2.133 . S
Zr63 O59 2.133 . S
Zr63 O60 2.133 . S
Zr63 O64 2.133 . S
Zr63 O65 2.207 . S
Zr63 O66 2.207 . S
Zr63 O81 2.207 . S
Zr63 O82 2.207 . S
O64 Zr61 2.133 . S
O64 Zr62 2.133 . S
O64 Zr63 2.133 . S
O65 Zr63 2.207 . S
O65 C87 1.295 . S
O66 Zr63 2.207 . S
O66 C88 1.295 . S
O67 Zr55 2.207 . S
O67 C89 1.295 . S
O68 Zr61 2.207 . S
O68 C90 1.295 . S
O69 Zr57 2.207 . S
O69 C91 1.295 . S
O70 Zr57 2.207 . S
O70 C92 1.295 . S
O71 Zr61 2.207 . S
O71 C93 1.295 . S
O72 Zr56 2.207 . S
O72 C94 1.295 . S
O73 Zr62 2.207 . S
O73 C95 1.295 . S
O74 Zr62 2.207 . S
O74 C96 1.295 . S
O75 Zr56 2.207 . S
O75 C97 1.295 . S
O76 Zr61 2.207 . S
O76 C87 1.295 . S
O77 Zr57 2.207 . S
O77 C84 1.295 . S
O78 Zr57 2.207 . S
O78 C88 1.295 . S
O79 Zr61 2.207 . S
O79 C89 1.295 . S
O80 Zr55 2.207 . S
O80 C97 1.295 . S
O81 Zr63 2.207 . S
O81 C96 1.295 . S
O82 Zr63 2.207 . S
O82 C94 1.295 . S
O83 Zr55 2.207 . S
O83 C95 1.295 . S
C84 O50 1.295 . S
C84 O77 1.295 . S
O85 Zr56 2.207 . S
O85 C93 1.295 . S
O86 Zr56 2.207 . S
O86 C91 1.295 . S
C87 O65 1.295 . S
C87 O76 1.295 . S
C88 O66 1.295 . S
C88 O78 1.295 . S
C89 O67 1.295 . S
C89 O79 1.295 . S
C90 O68 1.295 . S
C90 O99 1.295 . S
C91 O69 1.295 . S
C91 O86 1.295 . S
C92 O70 1.295 . S
C92 O98 1.295 . S
C93 O71 1.295 . S
C93 O85 1.295 . S
C94 O72 1.295 . S
C94 O82 1.295 . S
C95 O73 1.295 . S
C95 O83 1.295 . S
C96 O74 1.295 . S
C96 O81 1.295 . S
C97 O75 1.295 . S
C97 O80 1.295 . S
O98 Zr62 2.207 . S
O98 C92 1.295 . S
O99 Zr62 2.207 . S
O99 C90 1.295 . S
O100 Zr105 2.207 1_655 S
O100 C134 1.295 . S
O101 Zr105 2.133 . S
O101 Zr106 2.133 . S
O101 Zr107 2.133 1_455 S
O102 Zr105 2.133 1_655 S
O102 Zr111 2.133 1_655 S
O102 Zr112 2.133 . S
O103 Zr105 2.133 1_655 S
O103 Zr107 2.133 . S
O103 Zr112 2.133 . S
O104 Zr105 2.133 . S
O104 Zr106 2.133 . S
O104 Zr111 2.133 . S
Zr105 O100 2.207 1_455 S
Zr105 O101 2.133 . S
Zr105 O102 2.133 1_455 S
Zr105 O103 2.133 1_455 S
Zr105 O104 2.133 . S
Zr105 O117 2.207 . S
Zr105 O130 2.207 . S
Zr105 O133 2.207 1_455 S
Zr106 O101 2.133 . S
Zr106 O104 2.133 . S
Zr106 O108 2.133 . S
Zr106 O110 2.133 . S
Zr106 O122 2.207 . S
Zr106 O125 2.207 . S
Zr106 O135 2.207 . S
Zr106 O136 2.207 . S
Zr107 O101 2.133 1_655 S
Zr107 O103 2.133 . S
Zr107 O109 2.133 . S
Zr107 O110 2.133 1_655 S
Zr107 O119 2.207 1_655 S
Zr107 O120 2.207 . S
Zr107 O127 2.207 . S
Zr107 O128 2.207 . S
O108 Zr106 2.133 . S
O108 Zr111 2.133 . S
O108 Zr113 2.133 . S
O109 Zr107 2.133 . S
O109 Zr112 2.133 . S
O109 Zr113 2.133 1_655 S
O110 Zr106 2.133 . S
O110 Zr107 2.133 1_455 S
O110 Zr113 2.133 . S
Zr111 O102 2.133 1_455 S
Zr111 O104 2.133 . S
Zr111 O108 2.133 . S
Zr111 O114 2.133 1_455 S
Zr111 O118 2.207 1_455 S
Zr111 O121 2.207 . S
Zr111 O126 2.207 . S
Zr111 O129 2.207 . S
Zr112 O102 2.133 . S
Zr112 O103 2.133 . S
Zr112 O109 2.133 . S
Zr112 O114 2.133 . S
Zr112 O123 2.207 . S
Zr112 O124 2.207 . S
Zr112 O148 2.207 . S
Zr112 O149 2.207 . S
Zr113 O108 2.133 . S
Zr113 O109 2.133 1_455 S
Zr113 O110 2.133 . S
Zr113 O114 2.133 1_455 S
Zr113 O115 2.207 . S
Zr113 O116 2.207 1_455 S
Zr113 O131 2.207 1_455 S
Zr113 O132 2.207 . S
O114 Zr111 2.133 1_655 S
O114 Zr112 2.133 . S
O114 Zr113 2.133 1_655 S
O115 Zr113 2.207 . S
O115 C137 1.295 . S
O116 Zr113 2.207 1_655 S
O116 C138 1.295 . S
O117 Zr105 2.207 . S
O117 C139 1.295 . S
O118 Zr111 2.207 1_655 S
O118 C140 1.295 . S
O119 Zr107 2.207 1_455 S
O119 C141 1.295 . S
O120 Zr107 2.207 . S
O120 C142 1.295 . S
O121 Zr111 2.207 . S
O121 C143 1.295 . S
O122 Zr106 2.207 . S
O122 C144 1.295 . S
O123 Zr112 2.207 . S
O123 C145 1.295 . S
O124 Zr112 2.207 . S
O124 C146 1.295 . S
O125 Zr106 2.207 . S
O125 C147 1.295 . S
O126 Zr111 2.207 . S
O126 C137 1.295 . S
O127 Zr107 2.207 . S
O127 C134 1.295 . S
O128 Zr107 2.207 . S
O128 C138 1.295 . S
O129 Zr111 2.207 . S
O129 C139 1.295 . S
O130 Zr105 2.207 . S
O130 C147 1.295 . S
O131 Zr113 2.207 1_655 S
O131 C146 1.295 . S
O132 Zr113 2.207 . S
O132 C144 1.295 . S
O133 Zr105 2.207 1_655 S
O133 C145 1.295 . S
C134 O100 1.295 . S
C134 O127 1.295 . S
O135 Zr106 2.207 . S
O135 C143 1.295 . S
O136 Zr106 2.207 . S
O136 C141 1.295 . S
C137 O115 1.295 . S
C137 O126 1.295 . S
C138 O116 1.295 . S
C138 O128 1.295 . S
C139 O117 1.295 . S
C139 O129 1.295 . S
C140 O118 1.295 . S
C140 O149 1.295 . S
C141 O119 1.295 . S
C141 O136 1.295 . S
C142 O120 1.295 . S
C142 O148 1.295 . S
C143 O121 1.295 . S
C143 O135 1.295 . S
C144 O122 1.295 . S
C144 O132 1.295 . S
C145 O123 1.295 . S
C145 O133 1.295 . S
C146 O124 1.295 . S
C146 O131 1.295 . S
C147 O125 1.295 . S
C147 O130 1.295 . S
O148 Zr112 2.207 . S
O148 C142 1.295 . S
O149 Zr112 2.207 . S
O149 C140 1.295 . S
O150 Zr155 2.207 . S
O150 C184 1.295 . S
O151 Zr155 2.133 . S
O151 Zr156 2.133 . S
O151 Zr157 2.133 . S
O152 Zr155 2.133 1_565 S
O152 Zr161 2.133 . S
O152 Zr162 2.133 . S
O153 Zr155 2.133 1_565 S
O153 Zr157 2.133 1_565 S
O153 Zr162 2.133 . S
O154 Zr155 2.133 . S
O154 Zr156 2.133 . S
O154 Zr161 2.133 1_545 S
Zr155 O150 2.207 . S
Zr155 O151 2.133 . S
Zr155 O152 2.133 1_545 S
Zr155 O153 2.133 1_545 S
Zr155 O154 2.133 . S
Zr155 O167 2.207 1_545 S
Zr155 O180 2.207 . S
Zr155 O183 2.207 1_545 S
Zr156 O151 2.133 . S
Zr156 O154 2.133 . S
Zr156 O158 2.133 . S
Zr156 O160 2.133 . S
Zr156 O172 2.207 . S
Zr156 O175 2.207 . S
Zr156 O185 2.207 . S
Zr156 O186 2.207 . S
Zr157 O151 2.133 . S
Zr157 O153 2.133 1_545 S
Zr157 O159 2.133 1_545 S
Zr157 O160 2.133 . S
Zr157 O169 2.207 . S
Zr157 O170 2.207 1_545 S
Zr157 O177 2.207 . S
Zr157 O178 2.207 . S
O158 Zr156 2.133 . S
O158 Zr161 2.133 1_545 S
O158 Zr163 2.133 . S
O159 Zr157 2.133 1_565 S
O159 Zr162 2.133 . S
O159 Zr163 2.133 1_565 S
O160 Zr156 2.133 . S
O160 Zr157 2.133 . S
O160 Zr163 2.133 . S
Zr161 O152 2.133 . S
Zr161 O154 2.133 1_565 S
Zr161 O158 2.133 1_565 S
Zr161 O164 2.133 . S
Zr161 O168 2.207 . S
Zr161 O171 2.207 1_565 S
Zr161 O176 2.207 . S
Zr161 O179 2.207 . S
Zr162 O152 2.133 . S
Zr162 O153 2.133 . S
Zr162 O159 2.133 . S
Zr162 O164 2.133 . S
Zr162 O173 2.207 . S
Zr162 O174 2.207 . S
Zr162 O198 2.207 . S
Zr162 O199 2.207 . S
Zr163 O158 2.133 . S
Zr163 O159 2.133 1_545 S
Zr163 O160 2.133 . S
Zr163 O164 2.133 1_545 S
Zr163 O165 2.207 1_545 S
Zr163 O166 2.207 . S
Zr163 O181 2.207 1_545 S
Zr163 O182 2.207 . S
O164 Zr161 2.133 . S
O164 Zr162 2.133 . S
O164 Zr163 2.133 1_565 S
O165 Zr163 2.207 1_565 S
O165 C187 1.295 . S
O166 Zr163 2.207 . S
O166 C188 1.295 . S
O167 Zr155 2.207 1_565 S
O167 C189 1.295 . S
O168 Zr161 2.207 . S
O168 C190 1.295 . S
O169 Zr157 2.207 . S
O169 C191 1.295 . S
O170 Zr157 2.207 1_565 S
O170 C192 1.295 . S
O171 Zr161 2.207 1_545 S
O171 C193 1.295 . S
O172 Zr156 2.207 . S
O172 C194 1.295 . S
O173 Zr162 2.207 . S
O173 C195 1.295 . S
O174 Zr162 2.207 . S
O174 C196 1.295 . S
O175 Zr156 2.207 . S
O175 C197 1.295 . S
O176 Zr161 2.207 . S
O176 C187 1.295 . S
O177 Zr157 2.207 . S
O177 C184 1.295 . S
O178 Zr157 2.207 . S
O178 C188 1.295 . S
O179 Zr161 2.207 . S
O179 C189 1.295 . S
O180 Zr155 2.207 . S
O180 C197 1.295 . S
O181 Zr163 2.207 1_565 S
O181 C196 1.295 . S
O182 Zr163 2.207 . S
O182 C194 1.295 . S
O183 Zr155 2.207 1_565 S
O183 C195 1.295 . S
C184 O150 1.295 . S
C184 O177 1.295 . S
O185 Zr156 2.207 . S
O185 C193 1.295 . S
O186 Zr156 2.207 . S
O186 C191 1.295 . S
C187 O165 1.295 . S
C187 O176 1.295 . S
C188 O166 1.295 . S
C188 O178 1.295 . S
C189 O167 1.295 . S
C189 O179 1.295 . S
C190 O168 1.295 . S
C190 O199 1.295 . S
C191 O169 1.295 . S
C191 O186 1.295 . S
C192 O170 1.295 . S
C192 O198 1.295 . S
C193 O171 1.295 . S
C193 O185 1.295 . S
C194 O172 1.295 . S
C194 O182 1.295 . S
C195 O173 1.295 . S
C195 O183 1.295 . S
C196 O174 1.295 . S
C196 O181 1.295 . S
C197 O175 1.295 . S
C197 O180 1.295 . S
O198 Zr162 2.207 . S
O198 C192 1.295 . S
O199 Zr162 2.207 . S
O199 C190 1.295 . S
O200 Zr205 2.207 . S
O200 C234 1.295 . S
O201 Zr205 2.133 . S
O201 Zr206 2.133 . S
O201 Zr207 2.133 . S
O202 Zr205 2.133 1_556 S
O202 Zr211 2.133 . S
O202 Zr212 2.133 . S
O203 Zr205 2.133 1_556 S
O203 Zr207 2.133 1_556 S
O203 Zr212 2.133 . S
O204 Zr205 2.133 . S
O204 Zr206 2.133 . S
O204 Zr211 2.133 1_554 S
Zr205 O200 2.207 . S
Zr205 O201 2.133 . S
Zr205 O202 2.133 1_554 S
Zr205 O203 2.133 1_554 S
Zr205 O204 2.133 . S
Zr205 O217 2.207 1_554 S
Zr205 O230 2.207 . S
Zr205 O233 2.207 1_554 S
Zr206 O201 2.133 . S
Zr206 O204 2.133 . S
Zr206 O208 2.133 . S
Zr206 O210 2.133 . S
Zr206 O222 2.207 . S
Zr206 O225 2.207 . S
Zr206 O235 2.207 . S
Zr206 O236 2.207 . S
Zr207 O201 2.133 . S
Zr207 O203 2.133 1_554 S
Zr207 O209 2.133 1_554 S
Zr207 O210 2.133 . S
Zr207 O219 2.207 . S
Zr207 O220 2.207 1_554 S
Zr207 O227 2.207 . S
Zr207 O228 2.207 . S
O208 Zr206 2.133 . S
O208 Zr211 2.133 1_554 S
O208 Zr213 2.133 . S
O209 Zr207 2.133 1_556 S
O209 Zr212 2.133 . S
O209 Zr213 2.133 1_556 S
O210 Zr206 2.133 . S
O210 Zr207 2.133 . S
O210 Zr213 2.133 . S
Zr211 O202 2.133 . S
Zr211 O204 2.133 1_556 S
Zr211 O208 2.133 1_556 S
Zr211 O214 2.133 . S
Zr211 O218 2.207 . S
Zr211 O221 2.207 1_556 S
Zr211 O226 2.207 . S
Zr211 O229 2.207 . S
Zr212 O202 2.133 . S
Zr212 O203 2.133 . S
Zr212 O209 2.133 . S
Zr212 O214 2.133 . S
Zr212 O223 2.207 . S
Zr212 O224 2.207 . S
Zr212 O248 2.207 . S
Zr212 O249 2.207 . S
Zr213 O208 2.133 . S
Zr213 O209 2.133 1_554 S
Zr213 O210 2.133 . S
Zr213 O214 2.133 1_554 S
Zr213 O215 2.207 1_554 S
Zr213 O216 2.207 . S
Zr213 O231 2.207 1_554 S
Zr213 O232 2.207 . S
O214 Zr211 2.133 . S
O214 Zr212 2.133 . S
O214 Zr213 2.133 1_556 S
O215 Zr213 2.207 1_556 S
O215 C237 1.295 . S
O216 Zr213 2.207 . S
O216 C238 1.295 . S
O217 Zr205 2.207 1_556 S
O217 C239 1.295 . S
O218 Zr211 2.207 . S
O218 C240 1.295 . S
O219 Zr207 2.207 . S
O219 C241 1.295 . S
O220 Zr207 2.207 1_556 S
O220 C242 1.295 . S
O221 Zr211 2.207 1_554 S
O221 C243 1.295 . S
O222 Zr206 2.207 . S
O222 C244 1.295 . S
O223 Zr212 2.207 . S
O223 C245 1.295 . S
O224 Zr212 2.207 . S
O224 C246 1.295 . S
O225 Zr206 2.207 . S
O225 C247 1.295 . S
O226 Zr211 2.207 . S
O226 C237 1.295 . S
O227 Zr207 2.207 . S
O227 C234 1.295 . S
O228 Zr207 2.207 . S
O228 C238 1.295 . S
O229 Zr211 2.207 . S
O229 C239 1.295 . S
O230 Zr205 2.207 . S
O230 C247 1.295 . S
O231 Zr213 2.207 1_556 S
O231 C246 1.295 . S
O232 Zr213 2.207 . S
O232 C244 1.295 . S
O233 Zr205 2.207 1_556 S
O233 C245 1.295 . S
C234 O200 1.295 . S
C234 O227 1.295 . S
O235 Zr206 2.207 . S
O235 C243 1.295 . S
O236 Zr206 2.207 . S
O236 C241 1.295 . S
C237 O215 1.295 . S
C237 O226 1.295 . S
C238 O216 1.295 . S
C238 O228 1.295 . S
C239 O217 1.295 . S
C239 O229 1.295 . S
C240 O218 1.295 . S
C240 O249 1.295 . S
C241 O219 1.295 . S
C241 O236 1.295 . S
C242 O220 1.295 . S
C242 O248 1.295 . S
C243 O221 1.295 . S
C243 O235 1.295 . S
C244 O222 1.295 . S
C244 O232 1.295 . S
C245 O223 1.295 . S
C245 O233 1.295 . S
C246 O224 1.295 . S
C246 O231 1.295 . S
C247 O225 1.295 . S
C247 O230 1.295 . S
O248 Zr212 2.207 . S
O248 C242 1.295 . S
O249 Zr212 2.207 . S
O249 C240 1.295 . S
O250 Zr255 2.207 . S
O250 C284 1.295 . S
O251 Zr255 2.133 . S
O251 Zr256 2.133 . S
O251 Zr257 2.133 . S
O252 Zr255 2.133 . S
O252 Zr261 2.133 . S
O252 Zr262 2.133 . S
O253 Zr255 2.133 . S
O253 Zr257 2.133 . S
O253 Zr262 2.133 . S
O254 Zr255 2.133 . S
O254 Zr256 2.133 . S
O254 Zr261 2.133 . S
Zr255 O250 2.207 . S
Zr255 O251 2.133 . S
Zr255 O252 2.133 . S
Zr255 O253 2.133 . S
Zr255 O254 2.133 . S
Zr255 O267 2.207 . S
Zr255 O280 2.207 . S
Zr255 O283 2.207 . S
Zr256 O251 2.133 . S
Zr256 O254 2.133 . S
Zr256 O258 2.133 . S
Zr256 O260 2.133 . S
Zr256 O272 2.207 . S
Zr256 O275 2.207 . S
Zr256 O285 2.207 . S
Zr256 O286 2.207 . S
Zr257 O251 2.133 . S
Zr257 O253 2.133 . S
Zr257 O259 2.133 . S
Zr257 O260 2.133 . S
Zr257 O269 2.207 . S
Zr257 O270 2.207 . S
Zr257 O277 2.207 . S
Zr257 O278 2.207 . S
O258 Zr256 2.133 . S
O258 Zr261 2.133 . S
O258 Zr263 2.133 . S
O259 Zr257 2.133 . S
O259 Zr262 2.133 . S
O259 Zr263 2.133 . S
O260 Zr256 2.133 . S
O260 Zr257 2.133 . S
O260 Zr263 2.133 . S
Zr261 O252 2.133 . S
Zr261 O254 2.133 . S
Zr261 O258 2.133 . S
Zr261 O264 2.133 . S
Zr261 O268 2.207 . S
Zr261 O271 2.207 . S
Zr261 O276 2.207 . S
Zr261 O279 2.207 . S
Zr262 O252 2.133 . S
Zr262 O253 2.133 . S
Zr262 O259 2.133 . S
Zr262 O264 2.133 . S
Zr262 O273 2.207 . S
Zr262 O274 2.207 . S
Zr262 O298 2.207 . S
Zr262 O299 2.207 . S
Zr263 O258 2.133 . S
Zr263 O259 2.133 . S
Zr263 O260 2.133 . S
Zr263 O264 2.133 . S
Zr263 O265 2.207 . S
Zr263 O266 2.207 . S
Zr263 O281 2.207 . S
Zr263 O282 2.207 . S
O264 Zr261 2.133 . S
O264 Zr262 2.133 . S
O264 Zr263 2.133 . S
O265 Zr263 2.207 . S
O265 C287 1.295 . S
O266 Zr263 2.207 . S
O266 C288 1.295 . S
O267 Zr255 2.207 . S
O267 C289 1.295 . S
O268 Zr261 2.207 . S
O268 C290 1.295 . S
O269 Zr257 2.207 . S
O269 C291 1.295 . S
O270 Zr257 2.207 . S
O270 C292 1.295 . S
O271 Zr261 2.207 . S
O271 C293 1.295 . S
O272 Zr256 2.207 . S
O272 C294 1.295 . S
O273 Zr262 2.207 . S
O273 C295 1.295 . S
O274 Zr262 2.207 . S
O274 C296 1.295 . S
O275 Zr256 2.207 . S
O275 C297 1.295 . S
O276 Zr261 2.207 . S
O276 C287 1.295 . S
O277 Zr257 2.207 . S
O277 C284 1.295 . S
O278 Zr257 2.207 . S
O278 C288 1.295 . S
O279 Zr261 2.207 . S
O279 C289 1.295 . S
O280 Zr255 2.207 . S
O280 C297 1.295 . S
O281 Zr263 2.207 . S
O281 C296 1.295 . S
O282 Zr263 2.207 . S
O282 C294 1.295 . S
O283 Zr255 2.207 . S
O283 C295 1.295 . S
C284 O250 1.295 . S
C284 O277 1.295 . S
O285 Zr256 2.207 . S
O285 C293 1.295 . S
O286 Zr256 2.207 . S
O286 C291 1.295 . S
C287 O265 1.295 . S
C287 O276 1.295 . S
C288 O266 1.295 . S
C288 O278 1.295 . S
C289 O267 1.295 . S
C289 O279 1.295 . S
C290 O268 1.295 . S
C290 O299 1.295 . S
C291 O269 1.295 . S
C291 O286 1.295 . S
C292 O270 1.295 . S
C292 O298 1.295 . S
C293 O271 1.295 . S
C293 O285 1.295 . S
C294 O272 1.295 . S
C294 O282 1.295 . S
C295 O273 1.295 . S
C295 O283 1.295 . S
C296 O274 1.295 . S
C296 O281 1.295 . S
C297 O275 1.295 . S
C297 O280 1.295 . S
O298 Zr262 2.207 . S
O298 C292 1.295 . S
O299 Zr262 2.207 . S
O299 C290 1.295 . S
O300 Zr305 2.207 . S
O300 C334 1.295 . S
O301 Zr305 2.133 . S
O301 Zr306 2.133 1_556 S
O301 Zr307 2.133 1_556 S
O302 Zr305 2.133 . S
O302 Zr311 2.133 1_556 S
O302 Zr312 2.133 . S
O303 Zr305 2.133 . S
O303 Zr307 2.133 1_556 S
O303 Zr312 2.133 . S
O304 Zr305 2.133 . S
O304 Zr306 2.133 1_556 S
O304 Zr311 2.133 1_556 S
Zr305 O300 2.207 . S
Zr305 O301 2.133 . S
Zr305 O302 2.133 . S
Zr305 O303 2.133 . S
Zr305 O304 2.133 . S
Zr305 O317 2.207 . S
Zr305 O330 2.207 . S
Zr305 O333 2.207 . S
Zr306 O301 2.133 1_554 S
Zr306 O304 2.133 1_554 S
Zr306 O308 2.133 . S
Zr306 O310 2.133 . S
Zr306 O322 2.207 . S
Zr306 O325 2.207 1_554 S
Zr306 O335 2.207 . S
Zr306 O336 2.207 . S
Zr307 O301 2.133 1_554 S
Zr307 O303 2.133 1_554 S
Zr307 O309 2.133 . S
Zr307 O310 2.133 . S
Zr307 O319 2.207 . S
Zr307 O320 2.207 1_554 S
Zr307 O327 2.207 1_554 S
Zr307 O328 2.207 . S
O308 Zr306 2.133 . S
O308 Zr311 2.133 . S
O308 Zr313 2.133 . S
O309 Zr307 2.133 . S
O309 Zr312 2.133 1_554 S
O309 Zr313 2.133 . S
O310 Zr306 2.133 . S
O310 Zr307 2.133 . S
O310 Zr313 2.133 . S
Zr311 O302 2.133 1_554 S
Zr311 O304 2.133 1_554 S
Zr311 O308 2.133 . S
Zr311 O314 2.133 . S
Zr311 O318 2.207 1_554 S
Zr311 O321 2.207 . S
Zr311 O326 2.207 . S
Zr311 O329 2.207 1_554 S
Zr312 O302 2.133 . S
Zr312 O303 2.133 . S
Zr312 O309 2.133 1_556 S
Zr312 O314 2.133 1_556 S
Zr312 O323 2.207 . S
Zr312 O324 2.207 1_556 S
Zr312 O348 2.207 . S
Zr312 O349 2.207 . S
Zr313 O308 2.133 . S
Zr313 O309 2.133 . S
Zr313 O310 2.133 . S
Zr313 O314 2.133 . S
Zr313 O315 2.207 . S
Zr313 O316 2.207 . S
Zr313 O331 2.207 . S
Zr313 O332 2.207 . S
O314 Zr311 2.133 . S
O314 Zr312 2.133 1_554 S
O314 Zr313 2.133 . S
O315 Zr313 2.207 . S
O315 C337 1.295 . S
O316 Zr313 2.207 . S
O316 C338 1.295 . S
O317 Zr305 2.207 . S
O317 C339 1.295 . S
O318 Zr311 2.207 1_556 S
O318 C340 1.295 . S
O319 Zr307 2.207 . S
O319 C341 1.295 . S
O320 Zr307 2.207 1_556 S
O320 C342 1.295 . S
O321 Zr311 2.207 . S
O321 C343 1.295 . S
O322 Zr306 2.207 . S
O322 C344 1.295 . S
O323 Zr312 2.207 . S
O323 C345 1.295 . S
O324 Zr312 2.207 1_554 S
O324 C346 1.295 . S
O325 Zr306 2.207 1_556 S
O325 C347 1.295 . S
O326 Zr311 2.207 . S
O326 C337 1.295 . S
O327 Zr307 2.207 1_556 S
O327 C334 1.295 . S
O328 Zr307 2.207 . S
O328 C338 1.295 . S
O329 Zr311 2.207 1_556 S
O329 C339 1.295 . S
O330 Zr305 2.207 . S
O330 C347 1.295 . S
O331 Zr313 2.207 . S
O331 C346 1.295 . S
O332 Zr313 2.207 . S
O332 C344 1.295 . S
O333 Zr305 2.207 . S
O333 C345 1.295 . S
C334 O300 1.295 . S
C334 O327 1.295 . S
O335 Zr306 2.207 . S
O335 C343 1.295 . S
O336 Zr306 2.207 . S
O336 C341 1.295 . S
C337 O315 1.295 . S
C337 O326 1.295 . S
C338 O316 1.295 . S
C338 O328 1.295 . S
C339 O317 1.295 . S
C339 O329 1.295 . S
C340 O318 1.295 . S
C340 O349 1.295 . S
C341 O319 1.295 . S
C341 O336 1.295 . S
C342 O320 1.295 . S
C342 O348 1.295 . S
C343 O321 1.295 . S
C343 O335 1.295 . S
C344 O322 1.295 . S
C344 O332 1.295 . S
C345 O323 1.295 . S
C345 O333 1.295 . S
C346 O324 1.295 . S
C346 O331 1.295 . S
C347 O325 1.295 . S
C347 O330 1.295 . S
O348 Zr312 2.207 . S
O348 C342 1.295 . S
O349 Zr312 2.207 . S
O349 C340 1.295 . S
O350 Zr355 2.207 . S
O350 C384 1.295 . S
O351 Zr355 2.133 . S
O351 Zr356 2.133 . S
O351 Zr357 2.133 . S
O352 Zr355 2.133 . S
O352 Zr361 2.133 . S
O352 Zr362 2.133 . S
O353 Zr355 2.133 . S
O353 Zr357 2.133 . S
O353 Zr362 2.133 . S
O354 Zr355 2.133 . S
O354 Zr356 2.133 . S
O354 Zr361 2.133 . S
Zr355 O350 2.207 . S
Zr355 O351 2.133 . S
Zr355 O352 2.133 . S
Zr355 O353 2.133 . S
Zr355 O354 2.133 . S
Zr355 O367 2.207 . S
Zr355 O380 2.207 . S
Zr355 O383 2.207 . S
Zr356 O351 2.133 . S
Zr356 O354 2.133 . S
Zr356 O358 2.133 . S
Zr356 O360 2.133 . S
Zr356 O372 2.207 . S
Zr356 O375 2.207 . S
Zr356 O385 2.207 . S
Zr356 O386 2.207 . S
Zr357 O351 2.133 . S
Zr357 O353 2.133 . S
Zr357 O359 2.133 . S
Zr357 O360 2.133 . S
Zr357 O369 2.207 . S
Zr357 O370 2.207 . S
Zr357 O377 2.207 . S
Zr357 O378 2.207 . S
O358 Zr356 2.133 . S
O358 Zr361 2.133 . S
O358 Zr363 2.133 . S
O359 Zr357 2.133 . S
O359 Zr362 2.133 . S
O359 Zr363 2.133 . S
O360 Zr356 2.133 . S
O360 Zr357 2.133 . S
O360 Zr363 2.133 . S
Zr361 O352 2.133 . S
Zr361 O354 2.133 . S
Zr361 O358 2.133 . S
Zr361 O364 2.133 . S
Zr361 O368 2.207 . S
Zr361 O371 2.207 . S
Zr361 O376 2.207 . S
Zr361 O379 2.207 . S
Zr362 O352 2.133 . S
Zr362 O353 2.133 . S
Zr362 O359 2.133 . S
Zr362 O364 2.133 . S
Zr362 O373 2.207 . S
Zr362 O374 2.207 . S
Zr362 O398 2.207 . S
Zr362 O399 2.207 . S
Zr363 O358 2.133 . S
Zr363 O359 2.133 . S
Zr363 O360 2.133 . S
Zr363 O364 2.133 . S
Zr363 O365 2.207 . S
Zr363 O366 2.207 . S
Zr363 O381 2.207 . S
Zr363 O382 2.207 . S
O364 Zr361 2.133 . S
O364 Zr362 2.133 . S
O364 Zr363 2.133 . S
O365 Zr363 2.207 . S
O365 C387 1.295 . S
O366 Zr363 2.207 . S
O366 C388 1.295 . S
O367 Zr355 2.207 . S
O367 C389 1.295 . S
O368 Zr361 2.207 . S
O368 C390 1.295 . S
O369 Zr357 2.207 . S
O369 C391 1.295 . S
O370 Zr357 2.207 . S
O370 C392 1.295 . S
O371 Zr361 2.207 . S
O371 C393 1.295 . S
O372 Zr356 2.207 . S
O372 C394 1.295 . S
O373 Zr362 2.207 . S
O373 C395 1.295 . S
O374 Zr362 2.207 . S
O374 C396 1.295 . S
O375 Zr356 2.207 . S
O375 C397 1.295 . S
O376 Zr361 2.207 . S
O376 C387 1.295 . S
O377 Zr357 2.207 . S
O377 C384 1.295 . S
O378 Zr357 2.207 . S
O378 C388 1.295 . S
O379 Zr361 2.207 . S
O379 C389 1.295 . S
O380 Zr355 2.207 . S
O380 C397 1.295 . S
O381 Zr363 2.207 . S
O381 C396 1.295 . S
O382 Zr363 2.207 . S
O382 C394 1.295 . S
O383 Zr355 2.207 . S
O383 C395 1.295 . S
C384 O350 1.295 . S
C384 O377 1.295 . S
O385 Zr356 2.207 . S
O385 C393 1.295 . S
O386 Zr356 2.207 . S
O386 C391 1.295 . S
C387 O365 1.295 . S
C387 O376 1.295 . S
C388 O366 1.295 . S
C388 O378 1.295 . S
C389 O367 1.295 . S
C389 O379 1.295 . S
C390 O368 1.295 . S
C390 O399 1.295 . S
C391 O369 1.295 . S
C391 O386 1.295 . S
C392 O370 1.295 . S
C392 O398 1.295 . S
C393 O371 1.295 . S
C393 O385 1.295 . S
C394 O372 1.295 . S
C394 O382 1.295 . S
C395 O373 1.295 . S
C395 O383 1.295 . S
C396 O374 1.295 . S
C396 O381 1.295 . S
C397 O375 1.295 . S
C397 O380 1.295 . S
O398 Zr362 2.207 . S
O398 C392 1.295 . S
O399 Zr362 2.207 . S
O399 C390 1.295 . S
O400 Zr405 2.207 . S
O400 C434 1.295 . S
O401 Zr405 2.133 . S
O401 Zr406 2.133 . S
O401 Zr407 2.133 . S
O402 Zr405 2.133 . S
O402 Zr411 2.133 . S
O402 Zr412 2.133 . S
O403 Zr405 2.133 . S
O403 Zr407 2.133 . S
O403 Zr412 2.133 . S
O404 Zr405 2.133 . S
O404 Zr406 2.133 . S
O404 Zr411 2.133 . S
Zr405 O400 2.207 . S
Zr405 O401 2.133 . S
Zr405 O402 2.133 . S
Zr405 O403 2.133 . S
Zr405 O404 2.133 . S
Zr405 O417 2.207 . S
Zr405 O430 2.207 . S
Zr405 O433 2.207 . S
Zr406 O401 2.133 . S
Zr406 O404 2.133 . S
Zr406 O408 2.133 . S
Zr406 O410 2.133 . S
Zr406 O422 2.207 . S
Zr406 O425 2.207 . S
Zr406 O435 2.207 . S
Zr406 O436 2.207 . S
Zr407 O401 2.133 . S
Zr407 O403 2.133 . S
Zr407 O409 2.133 . S
Zr407 O410 2.133 . S
Zr407 O419 2.207 . S
Zr407 O420 2.207 . S
Zr407 O427 2.207 . S
Zr407 O428 2.207 . S
O408 Zr406 2.133 . S
O408 Zr411 2.133 . S
O408 Zr413 2.133 . S
O409 Zr407 2.133 . S
O409 Zr412 2.133 . S
O409 Zr413 2.133 . S
O410 Zr406 2.133 . S
O410 Zr407 2.133 . S
O410 Zr413 2.133 . S
Zr411 O402 2.133 . S
Zr411 O404 2.133 . S
Zr411 O408 2.133 . S
Zr411 O414 2.133 . S
Zr411 O418 2.207 . S
Zr411 O421 2.207 . S
Zr411 O426 2.207 . S
Zr411 O429 2.207 . S
Zr412 O402 2.133 . S
Zr412 O403 2.133 . S
Zr412 O409 2.133 . S
Zr412 O414 2.133 . S
Zr412 O423 2.207 . S
Zr412 O424 2.207 . S
Zr412 O448 2.207 . S
Zr412 O449 2.207 . S
Zr413 O408 2.133 . S
Zr413 O409 2.133 . S
Zr413 O410 2.133 . S
Zr413 O414 2.133 . S
Zr413 O415 2.207 . S
Zr413 O416 2.207 . S
Zr413 O431 2.207 . S
Zr413 O432 2.207 . S
O414 Zr411 2.133 . S
O414 Zr412 2.133 . S
O414 Zr413 2.133 . S
O415 Zr413 2.207 . S
O415 C437 1.295 . S
O416 Zr413 2.207 . S
O416 C438 1.295 . S
O417 Zr405 2.207 . S
O417 C439 1.295 . S
O418 Zr411 2.207 . S
O418 C440 1.295 . S
O419 Zr407 2.207 . S
O419 C441 1.295 . S
O420 Zr407 2.207 . S
O420 C442 1.295 . S
O421 Zr411 2.207 . S
O421 C443 1.295 . S
O422 Zr406 2.207 . S
O422 C444 1.295 . S
O423 Zr412 2.207 . S
O423 C445 1.295 . S
O424 Zr412 2.207 . S
O424 C446 1.295 . S
O425 Zr406 2.207 . S
O425 C447 1.295 . S
O426 Zr411 2.207 . S
O426 C437 1.295 . S
O427 Zr407 2.207 . S
O427 C434 1.295 . S
O428 Zr407 2.207 . S
O428 C438 1.295 . S
O429 Zr411 2.207 . S
O429 C439 1.295 . S
O430 Zr405 2.207 . S
O430 C447 1.295 . S
O431 Zr413 2.207 . S
O431 C446 1.295 . S
O432 Zr413 2.207 . S
O432 C444 1.295 . S
O433 Zr405 2.207 . S
O433 C445 1.295 . S
C434 O400 1.295 . S
C434 O427 1.295 . S
O435 Zr406 2.207 . S
O435 C443 1.295 . S
O436 Zr406 2.207 . S
O436 C441 1.295 . S
C437 O415 1.295 . S
C437 O426 1.295 . S
C438 O416 1.295 . S
C438 O428 1.295 . S
C439 O417 1.295 . S
C439 O429 1.295 . S
C440 O418 1.295 . S
C440 O449 1.295 . S
C441 O419 1.295 . S
C441 O436 1.295 . S
C442 O420 1.295 . S
C442 O448 1.295 . S
C443 O421 1.295 . S
C443 O435 1.295 . S
C444 O422 1.295 . S
C444 O432 1.295 . S
C445 O423 1.295 . S
C445 O433 1.295 . S
C446 O424 1.295 . S
C446 O431 1.295 . S
C447 O425 1.295 . S
C447 O430 1.295 . S
O448 Zr412 2.207 . S
O448 C442 1.295 . S
O449 Zr412 2.207 . S
O449 C440 1.295 . S
O450 Zr455 2.207 . S
O450 C484 1.295 . S
O451 Zr455 2.133 . S
O451 Zr456 2.133 . S
O451 Zr457 2.133 . S
O452 Zr455 2.133 . S
O452 Zr461 2.133 . S
O452 Zr462 2.133 . S
O453 Zr455 2.133 . S
O453 Zr457 2.133 . S
O453 Zr462 2.133 . S
O454 Zr455 2.133 . S
O454 Zr456 2.133 . S
O454 Zr461 2.133 . S
Zr455 O450 2.207 . S
Zr455 O451 2.133 . S
Zr455 O452 2.133 . S
Zr455 O453 2.133 . S
Zr455 O454 2.133 . S
Zr455 O467 2.207 . S
Zr455 O480 2.207 . S
Zr455 O483 2.207 . S
Zr456 O451 2.133 . S
Zr456 O454 2.133 . S
Zr456 O458 2.133 . S
Zr456 O460 2.133 . S
Zr456 O472 2.207 . S
Zr456 O475 2.207 . S
Zr456 O485 2.207 . S
Zr456 O486 2.207 . S
Zr457 O451 2.133 . S
Zr457 O453 2.133 . S
Zr457 O459 2.133 . S
Zr457 O460 2.133 . S
Zr457 O469 2.207 . S
Zr457 O470 2.207 . S
Zr457 O477 2.207 . S
Zr457 O478 2.207 . S
O458 Zr456 2.133 . S
O458 Zr461 2.133 . S
O458 Zr463 2.133 . S
O459 Zr457 2.133 . S
O459 Zr462 2.133 . S
O459 Zr463 2.133 . S
O460 Zr456 2.133 . S
O460 Zr457 2.133 . S
O460 Zr463 2.133 . S
Zr461 O452 2.133 . S
Zr461 O454 2.133 . S
Zr461 O458 2.133 . S
Zr461 O464 2.133 . S
Zr461 O468 2.207 . S
Zr461 O471 2.207 . S
Zr461 O476 2.207 . S
Zr461 O479 2.207 . S
Zr462 O452 2.133 . S
Zr462 O453 2.133 . S
Zr462 O459 2.133 . S
Zr462 O464 2.133 . S
Zr462 O473 2.207 . S
Zr462 O474 2.207 . S
Zr462 O498 2.207 . S
Zr462 O499 2.207 . S
Zr463 O458 2.133 . S
Zr463 O459 2.133 . S
Zr463 O460 2.133 . S
Zr463 O464 2.133 . S
Zr463 O465 2.207 . S
Zr463 O466 2.207 . S
Zr463 O481 2.207 . S
Zr463 O482 2.207 . S
O464 Zr461 2.133 . S
O464 Zr462 2.133 . S
O464 Zr463 2.133 . S
O465 Zr463 2.207 . S
O465 C487 1.295 . S
O466 Zr463 2.207 . S
O466 C488 1.295 . S
O467 Zr455 2.207 . S
O467 C489 1.295 . S
O468 Zr461 2.207 . S
O468 C490 1.295 . S
O469 Zr457 2.207 . S
O469 C491 1.295 . S
O470 Zr457 2.207 . S
O470 C492 1.295 . S
O471 Zr461 2.207 . S
O471 C493 1.295 . S
O472 Zr456 2.207 . S
O472 C494 1.295 . S
O473 Zr462 2.207 . S
O473 C495 1.295 . S
O474 Zr462 2.207 . S
O474 C496 1.295 . S
O475 Zr456 2.207 . S
O475 C497 1.295 . S
O476 Zr461 2.207 . S
O476 C487 1.295 . S
O477 Zr457 2.207 . S
O477 C484 1.295 . S
O478 Zr457 2.207 . S
O478 C488 1.295 . S
O479 Zr461 2.207 . S
O479 C489 1.295 . S
O480 Zr455 2.207 . S
O480 C497 1.295 . S
O481 Zr463 2.207 . S
O481 C496 1.295 . S
O482 Zr463 2.207 . S
O482 C494 1.295 . S
O483 Zr455 2.207 . S
O483 C495 1.295 . S
C484 O450 1.295 . S
C484 O477 1.295 . S
O485 Zr456 2.207 . S
O485 C493 1.295 . S
O486 Zr456 2.207 . S
O486 C491 1.295 . S
C487 O465 1.295 . S
C487 O476 1.295 . S
C488 O466 1.295 . S
C488 O478 1.295 . S
C489 O467 1.295 . S
C489 O479 1.295 . S
C490 O468 1.295 . S
C490 O499 1.295 . S
C491 O469 1.295 . S
C491 O486 1.295 . S
C492 O470 1.295 . S
C492 O498 1.295 . S
C493 O471 1.295 . S
C493 O485 1.295 . S
C494 O472 1.295 . S
C494 O482 1.295 . S
C495 O473 1.295 . S
C495 O483 1.295 . S
C496 O474 1.295 . S
C496 O481 1.295 . S
C497 O475 1.295 . S
C497 O480 1.295 . S
O498 Zr462 2.207 . S
O498 C492 1.295 . S
O499 Zr462 2.207 . S
O499 C490 1.295 . S
O500 Zr505 2.207 . S
O500 C534 1.295 . S
O501 Zr505 2.133 . S
O501 Zr506 2.133 1_565 S
O501 Zr507 2.133 1_565 S
O502 Zr505 2.133 . S
O502 Zr511 2.133 1_565 S
O502 Zr512 2.133 . S
O503 Zr505 2.133 . S
O503 Zr507 2.133 1_565 S
O503 Zr512 2.133 . S
O504 Zr505 2.133 . S
O504 Zr506 2.133 1_565 S
O504 Zr511 2.133 1_565 S
Zr505 O500 2.207 . S
Zr505 O501 2.133 . S
Zr505 O502 2.133 . S
Zr505 O503 2.133 . S
Zr505 O504 2.133 . S
Zr505 O517 2.207 . S
Zr505 O530 2.207 . S
Zr505 O533 2.207 . S
Zr506 O501 2.133 1_545 S
Zr506 O504 2.133 1_545 S
Zr506 O508 2.133 . S
Zr506 O510 2.133 . S
Zr506 O522 2.207 . S
Zr506 O525 2.207 1_545 S
Zr506 O535 2.207 . S
Zr506 O536 2.207 . S
Zr507 O501 2.133 1_545 S
Zr507 O503 2.133 1_545 S
Zr507 O509 2.133 . S
Zr507 O510 2.133 . S
Zr507 O519 2.207 . S
Zr507 O520 2.207 1_545 S
Zr507 O527 2.207 1_545 S
Zr507 O528 2.207 . S
O508 Zr506 2.133 . S
O508 Zr511 2.133 . S
O508 Zr513 2.133 . S
O509 Zr507 2.133 . S
O509 Zr512 2.133 1_545 S
O509 Zr513 2.133 . S
O510 Zr506 2.133 . S
O510 Zr507 2.133 . S
O510 Zr513 2.133 . S
Zr511 O502 2.133 1_545 S
Zr511 O504 2.133 1_545 S
Zr511 O508 2.133 . S
Zr511 O514 2.133 . S
Zr511 O518 2.207 1_545 S
Zr511 O521 2.207 . S
Zr511 O526 2.207 . S
Zr511 O529 2.207 1_545 S
Zr512 O502 2.133 . S
Zr512 O503 2.133 . S
Zr512 O509 2.133 1_565 S
Zr512 O514 2.133 1_565 S
Zr512 O523 2.207 . S
Zr512 O524 2.207 1_565 S
Zr512 O548 2.207 . S
Zr512 O549 2.207 . S
Zr513 O508 2.133 . S
Zr513 O509 2.133 . S
Zr513 O510 2.133 . S
Zr513 O514 2.133 . S
Zr513 O515 2.207 . S
Zr513 O516 2.207 . S
Zr513 O531 2.207 . S
Zr513 O532 2.207 . S
O514 Zr511 2.133 . S
O514 Zr512 2.133 1_545 S
O514 Zr513 2.133 . S
O515 Zr513 2.207 . S
O515 C537 1.295 . S
O516 Zr513 2.207 . S
O516 C538 1.295 . S
O517 Zr505 2.207 . S
O517 C539 1.295 . S
O518 Zr511 2.207 1_565 S
O518 C540 1.295 . S
O519 Zr507 2.207 . S
O519 C541 1.295 . S
O520 Zr507 2.207 1_565 S
O520 C542 1.295 . S
O521 Zr511 2.207 . S
O521 C543 1.295 . S
O522 Zr506 2.207 . S
O522 C544 1.295 . S
O523 Zr512 2.207 . S
O523 C545 1.295 . S
O524 Zr512 2.207 1_545 S
O524 C546 1.295 . S
O525 Zr506 2.207 1_565 S
O525 C547 1.295 . S
O526 Zr511 2.207 . S
O526 C537 1.295 . S
O527 Zr507 2.207 1_565 S
O527 C534 1.295 . S
O528 Zr507 2.207 . S
O528 C538 1.295 . S
O529 Zr511 2.207 1_565 S
O529 C539 1.295 . S
O530 Zr505 2.207 . S
O530 C547 1.295 . S
O531 Zr513 2.207 . S
O531 C546 1.295 . S
O532 Zr513 2.207 . S
O532 C544 1.295 . S
O533 Zr505 2.207 . S
O533 C545 1.295 . S
C534 O500 1.295 . S
C534 O527 1.295 . S
O535 Zr506 2.207 . S
O535 C543 1.295 . S
O536 Zr506 2.207 . S
O536 C541 1.295 . S
C537 O515 1.295 . S
C537 O526 1.295 . S
C538 O516 1.295 . S
C538 O528 1.295 . S
C539 O517 1.295 . S
C539 O529 1.295 . S
C540 O518 1.295 . S
C540 O549 1.295 . S
C541 O519 1.295 . S
C541 O536 1.295 . S
C542 O520 1.295 . S
C542 O548 1.295 . S
C543 O521 1.295 . S
C543 O535 1.295 . S
C544 O522 1.295 . S
C544 O532 1.295 . S
C545 O523 1.295 . S
C545 O533 1.295 . S
C546 O524 1.295 . S
C546 O531 1.295 . S
C547 O525 1.295 . S
C547 O530 1.295 . S
O548 Zr512 2.207 . S
O548 C542 1.295 . S
O549 Zr512 2.207 . S
O549 C540 1.295 . S
O550 Zr555 2.207 . S
O550 C584 1.295 . S
O551 Zr555 2.133 . S
O551 Zr556 2.133 . S
O551 Zr557 2.133 . S
O552 Zr555 2.133 . S
O552 Zr561 2.133 . S
O552 Zr562 2.133 . S
O553 Zr555 2.133 . S
O553 Zr557 2.133 . S
O553 Zr562 2.133 . S
O554 Zr555 2.133 . S
O554 Zr556 2.133 . S
O554 Zr561 2.133 . S
Zr555 O550 2.207 . S
Zr555 O551 2.133 . S
Zr555 O552 2.133 . S
Zr555 O553 2.133 . S
Zr555 O554 2.133 . S
Zr555 O567 2.207 . S
Zr555 O580 2.207 . S
Zr555 O583 2.207 . S
Zr556 O551 2.133 . S
Zr556 O554 2.133 . S
Zr556 O558 2.133 . S
Zr556 O560 2.133 . S
Zr556 O572 2.207 . S
Zr556 O575 2.207 . S
Zr556 O585 2.207 . S
Zr556 O586 2.207 . S
Zr557 O551 2.133 . S
Zr557 O553 2.133 . S
Zr557 O559 2.133 . S
Zr557 O560 2.133 . S
Zr557 O569 2.207 . S
Zr557 O570 2.207 . S
Zr557 O577 2.207 . S
Zr557 O578 2.207 . S
O558 Zr556 2.133 . S
O558 Zr561 2.133 . S
O558 Zr563 2.133 . S
O559 Zr557 2.133 . S
O559 Zr562 2.133 . S
O559 Zr563 2.133 . S
O560 Zr556 2.133 . S
O560 Zr557 2.133 . S
O560 Zr563 2.133 . S
Zr561 O552 2.133 . S
Zr561 O554 2.133 . S
Zr561 O558 2.133 . S
Zr561 O564 2.133 . S
Zr561 O568 2.207 . S
Zr561 O571 2.207 . S
Zr561 O576 2.207 . S
Zr561 O579 2.207 . S
Zr562 O552 2.133 . S
Zr562 O553 2.133 . S
Zr562 O559 2.133 . S
Zr562 O564 2.133 . S
Zr562 O573 2.207 . S
Zr562 O574 2.207 . S
Zr562 O598 2.207 . S
Zr562 O599 2.207 . S
Zr563 O558 2.133 . S
Zr563 O559 2.133 . S
Zr563 O560 2.133 . S
Zr563 O564 2.133 . S
Zr563 O565 2.207 . S
Zr563 O566 2.207 . S
Zr563 O581 2.207 . S
Zr563 O582 2.207 . S
O564 Zr561 2.133 . S
O564 Zr562 2.133 . S
O564 Zr563 2.133 . S
O565 Zr563 2.207 . S
O565 C587 1.295 . S
O566 Zr563 2.207 . S
O566 C588 1.295 . S
O567 Zr555 2.207 . S
O567 C589 1.295 . S
O568 Zr561 2.207 . S
O568 C590 1.295 . S
O569 Zr557 2.207 . S
O569 C591 1.295 . S
O570 Zr557 2.207 . S
O570 C592 1.295 . S
O571 Zr561 2.207 . S
O571 C593 1.295 . S
O572 Zr556 2.207 . S
O572 C594 1.295 . S
O573 Zr562 2.207 . S
O573 C595 1.295 . S
O574 Zr562 2.207 . S
O574 C596 1.295 . S
O575 Zr556 2.207 . S
O575 C597 1.295 . S
O576 Zr561 2.207 . S
O576 C587 1.295 . S
O577 Zr557 2.207 . S
O577 C584 1.295 . S
O578 Zr557 2.207 . S
O578 C588 1.295 . S
O579 Zr561 2.207 . S
O579 C589 1.295 . S
O580 Zr555 2.207 . S
O580 C597 1.295 . S
O581 Zr563 2.207 . S
O581 C596 1.295 . S
O582 Zr563 2.207 . S
O582 C594 1.295 . S
O583 Zr555 2.207 . S
O583 C595 1.295 . S
C584 O550 1.295 . S
C584 O577 1.295 . S
O585 Zr556 2.207 . S
O585 C593 1.295 . S
O586 Zr556 2.207 . S
O586 C591 1.295 . S
C587 O565 1.295 . S
C587 O576 1.295 . S
C588 O566 1.295 . S
C588 O578 1.295 . S
C589 O567 1.295 . S
C589 O579 1.295 . S
C590 O568 1.295 . S
C590 O599 1.295 . S
C591 O569 1.295 . S
C591 O586 1.295 . S
C592 O570 1.295 . S
C592 O598 1.295 . S
C593 O571 1.295 . S
C593 O585 1.295 . S
C594 O572 1.295 . S
C594 O582 1.295 . S
C595 O573 1.295 . S
C595 O583 1.295 . S
C596 O574 1.295 . S
C596 O581 1.295 . S
C597 O575 1.295 . S
C597 O580 1.295 . S
O598 Zr562 2.207 . S
O598 C592 1.295 . S
O599 Zr562 2.207 . S
O599 C590 1.295 . S
H600 C608 0.950 . S
H601 C613 0.950 . S
H602 C610 0.950 . S
H603 C612 0.950 . S
H604 C614 0.950 . S
H605 C616 0.950 . S
H606 C618 0.950 . S
H607 C619 0.950 . S
C608 H600 0.950 . S
C608 C609 1.386 . S
C608 C610 1.391 . S
C609 C608 1.386 . S
C609 C613 1.393 . S
C610 H602 0.950 . S
C610 C608 1.391 . S
C610 C611 1.400 . S
C611 C610 1.400 . S
C611 C612 1.398 . S
C611 C617 1.491 . S
C612 H603 0.950 . S
C612 C611 1.398 . S
C612 C613 1.391 . S
C613 H601 0.950 . S
C613 C609 1.393 . S
C613 C612 1.391 . S
C614 H604 0.950 . S
C614 C615 1.386 . S
C614 C616 1.391 . S
C615 C614 1.386 . S
C615 C619 1.393 . S
C616 H605 0.950 . S
C616 C614 1.391 . S
C616 C617 1.400 . S
C617 C611 1.491 . S
C617 C616 1.400 . S
C617 C618 1.398 . S
C618 H606 0.950 . S
C618 C617 1.398 . S
C618 C619 1.391 . S
C619 H607 0.950 . S
C619 C615 1.393 . S
C619 C618 1.391 . S
H620 C628 0.950 . S
H621 C633 0.950 . S
H622 C630 0.950 . S
H623 C632 0.950 . S
H624 C634 0.950 . S
H625 C636 0.950 . S
H626 C638 0.950 . S
H627 C639 0.950 . S
C628 H620 0.950 . S
C628 C629 1.386 . S
C628 C630 1.391 . S
C629 C628 1.386 . S
C629 C633 1.393 . S
C630 H622 0.950 . S
C630 C628 1.391 . S
C630 C631 1.400 . S
C631 C630 1.400 . S
C631 C632 1.398 . S
C631 C637 1.491 . S
C632 H623 0.950 . S
C632 C631 1.398 . S
C632 C633 1.391 . S
C633 H621 0.950 . S
C633 C629 1.393 . S
C633 C632 1.391 . S
C634 H624 0.950 . S
C634 C635 1.386 1_554 S
C634 C636 1.391 . S
C635 C634 1.386 1_556 S
C635 C639 1.393 . S
C636 H625 0.950 . S
C636 C634 1.391 . S
C636 C637 1.400 . S
C637 C631 1.491 . S
C637 C636 1.400 . S
C637 C638 1.398 . S
C638 H626 0.950 . S
C638 C637 1.398 . S
C638 C639 1.391 1_554 S
C639 H627 0.950 . S
C639 C635 1.393 . S
C639 C638 1.391 1_556 S
H640 C648 0.950 . S
H641 C653 0.950 . S
H642 C650 0.950 . S
H643 C652 0.950 . S
H644 C654 0.950 . S
H645 C656 0.950 . S
H646 C658 0.950 . S
H647 C659 0.950 . S
C648 H640 0.950 . S
C648 C649 1.386 . S
C648 C650 1.391 . S
C649 C648 1.386 . S
C649 C653 1.393 . S
C650 H642 0.950 . S
C650 C648 1.391 . S
C650 C651 1.400 . S
C651 C650 1.400 . S
C651 C652 1.398 . S
C651 C657 1.491 . S
C652 H643 0.950 . S
C652 C651 1.398 . S
C652 C653 1.391 . S
C653 H641 0.950 . S
C653 C649 1.393 . S
C653 C652 1.391 . S
C654 H644 0.950 . S
C654 C655 1.386 . S
C654 C656 1.391 . S
C655 C654 1.386 . S
C655 C659 1.393 . S
C656 H645 0.950 . S
C656 C654 1.391 . S
C656 C657 1.400 . S
C657 C651 1.491 . S
C657 C656 1.400 . S
C657 C658 1.398 . S
C658 H646 0.950 . S
C658 C657 1.398 . S
C658 C659 1.391 . S
C659 H647 0.950 . S
C659 C655 1.393 . S
C659 C658 1.391 . S
H660 C668 0.950 . S
H661 C673 0.950 . S
H662 C670 0.950 . S
H663 C672 0.950 . S
H664 C674 0.950 . S
H665 C676 0.950 . S
H666 C678 0.950 . S
H667 C679 0.950 . S
C668 H660 0.950 . S
C668 C669 1.386 . S
C668 C670 1.391 . S
C669 C668 1.386 . S
C669 C673 1.393 . S
C670 H662 0.950 . S
C670 C668 1.391 . S
C670 C671 1.400 . S
C671 C670 1.400 . S
C671 C672 1.398 . S
C671 C677 1.491 . S
C672 H663 0.950 . S
C672 C671 1.398 . S
C672 C673 1.391 . S
C673 H661 0.950 . S
C673 C669 1.393 . S
C673 C672 1.391 . S
C674 H664 0.950 . S
C674 C675 1.386 . S
C674 C676 1.391 1_556 S
C675 C674 1.386 . S
C675 C679 1.393 . S
C676 H665 0.950 . S
C676 C674 1.391 1_554 S
C676 C677 1.400 . S
C677 C671 1.491 . S
C677 C676 1.400 . S
C677 C678 1.398 . S
C678 H666 0.950 . S
C678 C677 1.398 . S
C678 C679 1.391 1_554 S
C679 H667 0.950 . S
C679 C675 1.393 . S
C679 C678 1.391 1_556 S
H680 C688 0.950 . S
H681 C693 0.950 . S
H682 C690 0.950 . S
H683 C692 0.950 . S
H684 C694 0.950 . S
H685 C696 0.950 . S
H686 C698 0.950 . S
H687 C699 0.950 . S
C688 H680 0.950 . S
C688 C689 1.386 . S
C688 C690 1.391 . S
C689 C688 1.386 . S
C689 C693 1.393 . S
C690 H682 0.950 . S
C690 C688 1.391 . S
C690 C691 1.400 . S
C691 C690 1.400 . S
C691 C692 1.398 . S
C691 C697 1.491 . S
C692 H683 0.950 . S
C692 C691 1.398 . S
C692 C693 1.391 . S
C693 H681 0.950 . S
C693 C689 1.393 . S
C693 C692 1.391 . S
C694 H684 0.950 . S
C694 C695 1.386 . S
C694 C696 1.391 . S
C695 C694 1.386 . S
C695 C699 1.393 . S
C696 H685 0.950 . S
C696 C694 1.391 . S
C696 C697 1.400 . S
C697 C691 1.491 . S
C697 C696 1.400 . S
C697 C698 1.398 . S
C698 H686 0.950 . S
C698 C697 1.398 . S
C698 C699 1.391 . S
C699 H687 0.950 . S
C699 C695 1.393 . S
C699 C698 1.391 . S
H700 C708 0.950 . S
H701 C713 0.950 1_455 S
H702 C710 0.950 . S
H703 C712 0.950 . S
H704 C714 0.950 . S
H705 C716 0.950 . S
H706 C718 0.950 . S
H707 C719 0.950 . S
C708 H700 0.950 . S
C708 C709 1.386 . S
C708 C710 1.391 1_554 S
C709 C708 1.386 . S
C709 C713 1.393 . S
C710 H702 0.950 . S
C710 C708 1.391 1_556 S
C710 C711 1.400 . S
C711 C710 1.400 . S
C711 C712 1.398 . S
C711 C717 1.491 . S
C712 H703 0.950 . S
C712 C711 1.398 . S
C712 C713 1.391 1_556 S
C713 H701 0.950 1_655 S
C713 C709 1.393 . S
C713 C712 1.391 1_554 S
C714 H704 0.950 . S
C714 C715 1.386 . S
C714 C716 1.391 . S
C715 C714 1.386 . S
C715 C719 1.393 . S
C716 H705 0.950 . S
C716 C714 1.391 . S
C716 C717 1.400 . S
C717 C711 1.491 . S
C717 C716 1.400 . S
C717 C718 1.398 . S
C718 H706 0.950 . S
C718 C717 1.398 . S
C718 C719 1.391 . S
C719 H707 0.950 . S
C719 C715 1.393 . S
C719 C718 1.391 . S
H720 C728 0.950 . S
H721 C733 0.950 . S
H722 C730 0.950 . S
H723 C732 0.950 . S
H724 C734 0.950 . S
H725 C736 0.950 . S
H726 C738 0.950 . S
H727 C739 0.950 . S
C728 H720 0.950 . S
C728 C729 1.386 . S
C728 C730 1.391 . S
C729 C728 1.386 . S
C729 C733 1.393 . S
C730 H722 0.950 . S
C730 C728 1.391 . S
C730 C731 1.400 . S
C731 C730 1.400 . S
C731 C732 1.398 . S
C731 C737 1.491 . S
C732 H723 0.950 . S
C732 C731 1.398 . S
C732 C733 1.391 . S
C733 H721 0.950 . S
C733 C729 1.393 . S
C733 C732 1.391 . S
C734 H724 0.950 . S
C734 C735 1.386 . S
C734 C736 1.391 . S
C735 C734 1.386 . S
C735 C739 1.393 . S
C736 H725 0.950 . S
C736 C734 1.391 . S
C736 C737 1.400 . S
C737 C731 1.491 . S
C737 C736 1.400 . S
C737 C738 1.398 . S
C738 H726 0.950 . S
C738 C737 1.398 . S
C738 C739 1.391 . S
C739 H727 0.950 . S
C739 C735 1.393 . S
C739 C738 1.391 . S
H740 C748 0.950 . S
H741 C753 0.950 . S
H742 C750 0.950 . S
H743 C752 0.950 . S
H744 C754 0.950 1_655 S
H745 C756 0.950 . S
H746 C758 0.950 1_554 S
H747 C759 0.950 . S
C748 H740 0.950 . S
C748 C749 1.386 . S
C748 C750 1.391 . S
C749 C748 1.386 . S
C749 C753 1.393 . S
C750 H742 0.950 . S
C750 C748 1.391 . S
C750 C751 1.400 . S
C751 C750 1.400 . S
C751 C752 1.398 . S
C751 C757 1.491 . S
C752 H743 0.950 . S
C752 C751 1.398 . S
C752 C753 1.391 . S
C753 H741 0.950 . S
C753 C749 1.393 . S
C753 C752 1.391 . S
C754 H744 0.950 1_455 S
C754 C755 1.386 1_556 S
C754 C756 1.391 . S
C755 C754 1.386 1_554 S
C755 C759 1.393 . S
C756 H745 0.950 . S
C756 C754 1.391 . S
C756 C757 1.400 . S
C757 C751 1.491 . S
C757 C756 1.400 . S
C757 C758 1.398 . S
C758 H746 0.950 1_556 S
C758 C757 1.398 . S
C758 C759 1.391 1_556 S
C759 H747 0.950 . S
C759 C755 1.393 . S
C759 C758 1.391 1_554 S
H760 C768 0.950 . S
H761 C773 0.950 . S
H762 C770 0.950 . S
H763 C772 0.950 . S
H764 C774 0.950 . S
H765 C776 0.950 . S
H766 C778 0.950 . S
H767 C779 0.950 . S
C768 H760 0.950 . S
C768 C769 1.386 . S
C768 C770 1.391 . S
C769 C768 1.386 . S
C769 C773 1.393 . S
C770 H762 0.950 . S
C770 C768 1.391 . S
C770 C771 1.400 . S
C771 C770 1.400 . S
C771 C772 1.398 . S
C771 C777 1.491 . S
C772 H763 0.950 . S
C772 C771 1.398 . S
C772 C773 1.391 . S
C773 H761 0.950 . S
C773 C769 1.393 . S
C773 C772 1.391 . S
C774 H764 0.950 . S
C774 C775 1.386 . S
C774 C776 1.391 . S
C775 C774 1.386 . S
C775 C779 1.393 . S
C776 H765 0.950 . S
C776 C774 1.391 . S
C776 C777 1.400 . S
C777 C771 1.491 . S
C777 C776 1.400 . S
C777 C778 1.398 . S
C778 H766 0.950 . S
C778 C777 1.398 . S
C778 C779 1.391 . S
C779 H767 0.950 . S
C779 C775 1.393 . S
C779 C778 1.391 . S
H780 C788 0.950 . S
H781 C793 0.950 . S
H782 C790 0.950 . S
H783 C792 0.950 . S
H784 C794 0.950 1_554 S
H785 C796 0.950 . S
H786 C798 0.950 . S
H787 C799 0.950 . S
C788 H780 0.950 . S
C788 C789 1.386 . S
C788 C790 1.391 . S
C789 C788 1.386 . S
C789 C793 1.393 . S
C790 H782 0.950 . S
C790 C788 1.391 . S
C790 C791 1.400 . S
C791 C790 1.400 . S
C791 C792 1.398 . S
C791 C797 1.491 . S
C792 H783 0.950 . S
C792 C791 1.398 . S
C792 C793 1.391 . S
C793 H781 0.950 . S
C793 C789 1.393 . S
C793 C792 1.391 . S
C794 H784 0.950 1_556 S
C794 C795 1.386 . S
C794 C796 1.391 . S
C795 C794 1.386 . S
C795 C799 1.393 . S
C796 H785 0.950 . S
C796 C794 1.391 . S
C796 C797 1.400 . S
C797 C791 1.491 . S
C797 C796 1.400 . S
C797 C798 1.398 . S
C798 H786 0.950 . S
C798 C797 1.398 . S
C798 C799 1.391 . S
C799 H787 0.950 . S
C799 C795 1.393 . S
C799 C798 1.391 . S
H800 C808 0.950 . S
H801 C813 0.950 . S
H802 C810 0.950 . S
H803 C812 0.950 . S
H804 C814 0.950 . S
H805 C816 0.950 . S
H806 C818 0.950 . S
H807 C819 0.950 . S
C808 H800 0.950 . S
C808 C809 1.386 . S
C808 C810 1.391 . S
C809 C808 1.386 . S
C809 C813 1.393 . S
C810 H802 0.950 . S
C810 C808 1.391 . S
C810 C811 1.400 . S
C811 C810 1.400 . S
C811 C812 1.398 . S
C811 C817 1.491 . S
C812 H803 0.950 . S
C812 C811 1.398 . S
C812 C813 1.391 . S
C813 H801 0.950 . S
C813 C809 1.393 . S
C813 C812 1.391 . S
C814 H804 0.950 . S
C814 C815 1.386 . S
C814 C816 1.391 . S
C815 C814 1.386 . S
C815 C819 1.393 . S
C816 H805 0.950 . S
C816 C814 1.391 . S
C816 C817 1.400 . S
C817 C811 1.491 . S
C817 C816 1.400 . S
C817 C818 1.398 . S
C818 H806 0.950 . S
C818 C817 1.398 . S
C818 C819 1.391 . S
C819 H807 0.950 . S
C819 C815 1.393 . S
C819 C818 1.391 . S
H820 C828 0.950 . S
H821 C833 0.950 . S
H822 C830 0.950 . S
H823 C832 0.950 . S
H824 C834 0.950 1_544 S
H825 C836 0.950 . S
H826 C838 0.950 . S
H827 C839 0.950 . S
C828 H820 0.950 . S
C828 C829 1.386 . S
C828 C830 1.391 . S
C829 C828 1.386 . S
C829 C833 1.393 . S
C830 H822 0.950 . S
C830 C828 1.391 . S
C830 C831 1.400 . S
C831 C830 1.400 . S
C831 C832 1.398 . S
C831 C837 1.491 . S
C832 H823 0.950 . S
C832 C831 1.398 . S
C832 C833 1.391 . S
C833 H821 0.950 . S
C833 C829 1.393 . S
C833 C832 1.391 . S
C834 H824 0.950 1_566 S
C834 C835 1.386 1_565 S
C834 C836 1.391 . S
C835 C834 1.386 1_545 S
C835 C839 1.393 . S
C836 H825 0.950 . S
C836 C834 1.391 . S
C836 C837 1.400 . S
C837 C831 1.491 . S
C837 C836 1.400 . S
C837 C838 1.398 . S
C838 H826 0.950 . S
C838 C837 1.398 . S
C838 C839 1.391 1_565 S
C839 H827 0.950 . S
C839 C835 1.393 . S
C839 C838 1.391 1_545 S
H840 C848 0.950 . S
H841 C853 0.950 . S
H842 C850 0.950 . S
H843 C852 0.950 . S
H844 C854 0.950 . S
H845 C856 0.950 . S
H846 C858 0.950 . S
H847 C859 0.950 . S
C848 H840 0.950 . S
C848 C849 1.386 . S
C848 C850 1.391 . S
C849 C848 1.386 . S
C849 C853 1.393 . S
C850 H842 0.950 . S
C850 C848 1.391 . S
C850 C851 1.400 . S
C851 C850 1.400 . S
C851 C852 1.398 . S
C851 C857 1.491 . S
C852 H843 0.950 . S
C852 C851 1.398 . S
C852 C853 1.391 . S
C853 H841 0.950 . S
C853 C849 1.393 . S
C853 C852 1.391 . S
C854 H844 0.950 . S
C854 C855 1.386 . S
C854 C856 1.391 . S
C855 C854 1.386 . S
C855 C859 1.393 . S
C856 H845 0.950 . S
C856 C854 1.391 . S
C856 C857 1.400 . S
C857 C851 1.491 . S
C857 C856 1.400 . S
C857 C858 1.398 . S
C858 H846 0.950 . S
C858 C857 1.398 . S
C858 C859 1.391 . S
C859 H847 0.950 . S
C859 C855 1.393 . S
C859 C858 1.391 . S
H860 C868 0.950 . S
H861 C873 0.950 1_556 S
H862 C870 0.950 . S
H863 C872 0.950 . S
H864 C874 0.950 . S
H865 C876 0.950 . S
H866 C878 0.950 . S
H867 C879 0.950 . S
C868 H860 0.950 . S
C868 C869 1.386 . S
C868 C870 1.391 . S
C869 C868 1.386 . S
C869 C873 1.393 . S
C870 H862 0.950 . S
C870 C868 1.391 . S
C870 C871 1.400 . S
C871 C870 1.400 . S
C871 C872 1.398 . S
C871 C877 1.491 . S
C872 H863 0.950 . S
C872 C871 1.398 . S
C872 C873 1.391 . S
C873 H861 0.950 1_554 S
C873 C869 1.393 . S
C873 C872 1.391 . S
C874 H864 0.950 . S
C874 C875 1.386 . S
C874 C876 1.391 . S
C875 C874 1.386 . S
C875 C879 1.393 . S
C876 H865 0.950 . S
C876 C874 1.391 . S
C876 C877 1.400 . S
C877 C871 1.491 . S
C877 C876 1.400 . S
C877 C878 1.398 . S
C878 H866 0.950 . S
C878 C877 1.398 . S
C878 C879 1.391 . S
C879 H867 0.950 . S
C879 C875 1.393 . S
C879 C878 1.391 . S
H880 C888 0.950 . S
H881 C893 0.950 . S
H882 C890 0.950 . S
H883 C892 0.950 . S
H884 C894 0.950 . S
H885 C896 0.950 . S
H886 C898 0.950 . S
H887 C899 0.950 . S
C888 H880 0.950 . S
C888 C889 1.386 . S
C888 C890 1.391 . S
C889 C888 1.386 . S
C889 C893 1.393 . S
C890 H882 0.950 . S
C890 C888 1.391 . S
C890 C891 1.400 . S
C891 C890 1.400 . S
C891 C892 1.398 . S
C891 C897 1.491 . S
C892 H883 0.950 . S
C892 C891 1.398 . S
C892 C893 1.391 . S
C893 H881 0.950 . S
C893 C889 1.393 . S
C893 C892 1.391 . S
C894 H884 0.950 . S
C894 C895 1.386 . S
C894 C896 1.391 . S
C895 C894 1.386 . S
C895 C899 1.393 . S
C896 H885 0.950 . S
C896 C894 1.391 . S
C896 C897 1.400 . S
C897 C891 1.491 . S
C897 C896 1.400 . S
C897 C898 1.398 . S
C898 H886 0.950 . S
C898 C897 1.398 . S
C898 C899 1.391 . S
C899 H887 0.950 . S
C899 C895 1.393 . S
C899 C898 1.391 . S
H900 C908 0.950 . S
H901 C913 0.950 . S
H902 C910 0.950 . S
H903 C912 0.950 . S
H904 C914 0.950 . S
H905 C916 0.950 . S
H906 C918 0.950 . S
H907 C919 0.950 . S
C908 H900 0.950 . S
C908 C909 1.386 1_565 S
C908 C910 1.391 . S
C909 C908 1.386 1_545 S
C909 C913 1.393 . S
C910 H902 0.950 . S
C910 C908 1.391 . S
C910 C911 1.400 . S
C911 C910 1.400 . S
C911 C912 1.398 . S
C911 C917 1.491 . S
C912 H903 0.950 . S
C912 C911 1.398 . S
C912 C913 1.391 1_565 S
C913 H901 0.950 . S
C913 C909 1.393 . S
C913 C912 1.391 1_545 S
C914 H904 0.950 . S
C914 C915 1.386 . S
C914 C916 1.391 . S
C915 C914 1.386 . S
C915 C919 1.393 . S
C916 H905 0.950 . S
C916 C914 1.391 . S
C916 C917 1.400 . S
C917 C911 1.491 . S
C917 C916 1.400 . S
C917 C918 1.398 . S
C918 H906 0.950 . S
C918 C917 1.398 . S
C918 C919 1.391 . S
C919 H907 0.950 . S
C919 C915 1.393 . S
C919 C918 1.391 . S
H920 C928 0.950 . S
H921 C933 0.950 . S
H922 C930 0.950 . S
H923 C932 0.950 . S
H924 C934 0.950 . S
H925 C936 0.950 . S
H926 C938 0.950 . S
H927 C939 0.950 . S
C928 H920 0.950 . S
C928 C929 1.386 . S
C928 C930 1.391 . S
C929 C928 1.386 . S
C929 C933 1.393 . S
C930 H922 0.950 . S
C930 C928 1.391 . S
C930 C931 1.400 . S
C931 C930 1.400 . S
C931 C932 1.398 . S
C931 C937 1.491 . S
C932 H923 0.950 . S
C932 C931 1.398 . S
C932 C933 1.391 . S
C933 H921 0.950 . S
C933 C929 1.393 . S
C933 C932 1.391 . S
C934 H924 0.950 . S
C934 C935 1.386 . S
C934 C936 1.391 . S
C935 C934 1.386 . S
C935 C939 1.393 . S
C936 H925 0.950 . S
C936 C934 1.391 . S
C936 C937 1.400 . S
C937 C931 1.491 . S
C937 C936 1.400 . S
C937 C938 1.398 . S
C938 H926 0.950 . S
C938 C937 1.398 . S
C938 C939 1.391 . S
C939 H927 0.950 . S
C939 C935 1.393 . S
C939 C938 1.391 . S
H940 C948 0.950 . S
H941 C953 0.950 . S
H942 C950 0.950 . S
H943 C952 0.950 . S
H944 C954 0.950 . S
H945 C956 0.950 . S
H946 C958 0.950 . S
H947 C959 0.950 . S
C948 H940 0.950 . S
C948 C949 1.386 . S
C948 C950 1.391 . S
C949 C948 1.386 . S
C949 C953 1.393 . S
C950 H942 0.950 . S
C950 C948 1.391 . S
C950 C951 1.400 . S
C951 C950 1.400 . S
C951 C952 1.398 . S
C951 C957 1.491 . S
C952 H943 0.950 . S
C952 C951 1.398 . S
C952 C953 1.391 . S
C953 H941 0.950 . S
C953 C949 1.393 . S
C953 C952 1.391 . S
C954 H944 0.950 . S
C954 C955 1.386 . S
C954 C956 1.391 . S
C955 C954 1.386 . S
C955 C959 1.393 . S
C956 H945 0.950 . S
C956 C954 1.391 . S
C956 C957 1.400 . S
C957 C951 1.491 . S
C957 C956 1.400 . S
C957 C958 1.398 . S
C958 H946 0.950 . S
C958 C957 1.398 . S
C958 C959 1.391 . S
C959 H947 0.950 . S
C959 C955 1.393 . S
C959 C958 1.391 . S
H960 C968 0.950 . S
H961 C973 0.950 . S
H962 C970 0.950 . S
H963 C972 0.950 . S
H964 C974 0.950 . S
H965 C976 0.950 . S
H966 C978 0.950 . S
H967 C979 0.950 . S
C968 H960 0.950 . S
C968 C969 1.386 . S
C968 C970 1.391 1_655 S
C969 C968 1.386 . S
C969 C973 1.393 1_655 S
C970 H962 0.950 . S
C970 C968 1.391 1_455 S
C970 C971 1.400 . S
C971 C970 1.400 . S
C971 C972 1.398 . S
C971 C977 1.491 . S
C972 H963 0.950 . S
C972 C971 1.398 . S
C972 C973 1.391 . S
C973 H961 0.950 . S
C973 C969 1.393 1_455 S
C973 C972 1.391 . S
C974 H964 0.950 . S
C974 C975 1.386 . S
C974 C976 1.391 . S
C975 C974 1.386 . S
C975 C979 1.393 . S
C976 H965 0.950 . S
C976 C974 1.391 . S
C976 C977 1.400 . S
C977 C971 1.491 . S
C977 C976 1.400 . S
C977 C978 1.398 . S
C978 H966 0.950 . S
C978 C977 1.398 . S
C978 C979 1.391 . S
C979 H967 0.950 . S
C979 C975 1.393 . S
C979 C978 1.391 . S
H980 C988 0.950 . S
H981 C993 0.950 . S
H982 C990 0.950 . S
H983 C992 0.950 . S
H984 C994 0.950 . S
H985 C996 0.950 . S
H986 C998 0.950 . S
H987 C999 0.950 . S
C988 H980 0.950 . S
C988 C989 1.386 . S
C988 C990 1.391 . S
C989 C988 1.386 . S
C989 C993 1.393 . S
C990 H982 0.950 . S
C990 C988 1.391 . S
C990 C991 1.400 . S
C991 C990 1.400 . S
C991 C992 1.398 . S
C991 C997 1.491 . S
C992 H983 0.950 . S
C992 C991 1.398 . S
C992 C993 1.391 . S
C993 H981 0.950 . S
C993 C989 1.393 . S
C993 C992 1.391 . S
C994 H984 0.950 . S
C994 C995 1.386 . S
C994 C996 1.391 . S
C995 C994 1.386 . S
C995 C999 1.393 . S
C996 H985 0.950 . S
C996 C994 1.391 . S
C996 C997 1.400 . S
C997 C991 1.491 . S
C997 C996 1.400 . S
C997 C998 1.398 . S
C998 H986 0.950 . S
C998 C997 1.398 . S
C998 C999 1.391 . S
C999 H987 0.950 . S
C999 C995 1.393 . S
C999 C998 1.391 . S
H1000 C1008 0.950 . S
H1001 C1013 0.950 . S
H1002 C1010 0.950 . S
H1003 C1012 0.950 . S
H1004 C1014 0.950 . S
H1005 C1016 0.950 . S
H1006 C1018 0.950 . S
H1007 C1019 0.950 . S
C1008 H1000 0.950 . S
C1008 C1009 1.386 . S
C1008 C1010 1.391 . S
C1009 C1008 1.386 . S
C1009 C1013 1.393 . S
C1010 H1002 0.950 . S
C1010 C1008 1.391 . S
C1010 C1011 1.400 . S
C1011 C1010 1.400 . S
C1011 C1012 1.398 . S
C1011 C1017 1.491 . S
C1012 H1003 0.950 . S
C1012 C1011 1.398 . S
C1012 C1013 1.391 . S
C1013 H1001 0.950 . S
C1013 C1009 1.393 . S
C1013 C1012 1.391 . S
C1014 H1004 0.950 . S
C1014 C1015 1.386 . S
C1014 C1016 1.391 . S
C1015 C1014 1.386 . S
C1015 C1019 1.393 . S
C1016 H1005 0.950 . S
C1016 C1014 1.391 . S
C1016 C1017 1.400 . S
C1017 C1011 1.491 . S
C1017 C1016 1.400 . S
C1017 C1018 1.398 . S
C1018 H1006 0.950 . S
C1018 C1017 1.398 . S
C1018 C1019 1.391 . S
C1019 H1007 0.950 . S
C1019 C1015 1.393 . S
C1019 C1018 1.391 . S
H1020 C1028 0.950 . S
H1021 C1033 0.950 . S
H1022 C1030 0.950 . S
H1023 C1032 0.950 . S
H1024 C1034 0.950 . S
H1025 C1036 0.950 . S
H1026 C1038 0.950 . S
H1027 C1039 0.950 . S
C1028 H1020 0.950 . S
C1028 C1029 1.386 . S
C1028 C1030 1.391 . S
C1029 C1028 1.386 . S
C1029 C1033 1.393 . S
C1030 H1022 0.950 . S
C1030 C1028 1.391 . S
C1030 C1031 1.400 . S
C1031 C1030 1.400 . S
C1031 C1032 1.398 . S
C1031 C1037 1.491 . S
C1032 H1023 0.950 . S
C1032 C1031 1.398 . S
C1032 C1033 1.391 . S
C1033 H1021 0.950 . S
C1033 C1029 1.393 . S
C1033 C1032 1.391 . S
C1034 H1024 0.950 . S
C1034 C1035 1.386 . S
C1034 C1036 1.391 . S
C1035 C1034 1.386 . S
C1035 C1039 1.393 . S
C1036 H1025 0.950 . S
C1036 C1034 1.391 . S
C1036 C1037 1.400 . S
C1037 C1031 1.491 . S
C1037 C1036 1.400 . S
C1037 C1038 1.398 . S
C1038 H1026 0.950 . S
C1038 C1037 1.398 . S
C1038 C1039 1.391 . S
C1039 H1027 0.950 . S
C1039 C1035 1.393 . S
C1039 C1038 1.391 . S
H1040 C1048 0.950 . S
H1041 C1053 0.950 . S
H1042 C1050 0.950 . S
H1043 C1052 0.950 . S
H1044 C1054 0.950 . S
H1045 C1056 0.950 . S
H1046 C1058 0.950 . S
H1047 C1059 0.950 . S
C1048 H1040 0.950 . S
C1048 C1049 1.386 . S
C1048 C1050 1.391 1_655 S
C1049 C1048 1.386 . S
C1049 C1053 1.393 . S
C1050 H1042 0.950 . S
C1050 C1048 1.391 1_455 S
C1050 C1051 1.400 . S
C1051 C1050 1.400 . S
C1051 C1052 1.398 . S
C1051 C1057 1.491 . S
C1052 H1043 0.950 . S
C1052 C1051 1.398 . S
C1052 C1053 1.391 1_455 S
C1053 H1041 0.950 . S
C1053 C1049 1.393 . S
C1053 C1052 1.391 1_655 S
C1054 H1044 0.950 . S
C1054 C1055 1.386 . S
C1054 C1056 1.391 . S
C1055 C1054 1.386 . S
C1055 C1059 1.393 . S
C1056 H1045 0.950 . S
C1056 C1054 1.391 . S
C1056 C1057 1.400 . S
C1057 C1051 1.491 . S
C1057 C1056 1.400 . S
C1057 C1058 1.398 . S
C1058 H1046 0.950 . S
C1058 C1057 1.398 . S
C1058 C1059 1.391 . S
C1059 H1047 0.950 . S
C1059 C1055 1.393 . S
C1059 C1058 1.391 . S
H1060 C1068 0.950 1_545 S
H1061 C1073 0.950 . S
H1062 C1070 0.950 . S
H1063 C1072 0.950 . S
H1064 C1074 0.950 . S
H1065 C1076 0.950 . S
H1066 C1078 0.950 . S
H1067 C1079 0.950 . S
C1068 H1060 0.950 1_565 S
C1068 C1069 1.386 . S
C1068 C1070 1.391 1_455 S
C1069 C1068 1.386 . S
C1069 C1073 1.393 . S
C1070 H1062 0.950 . S
C1070 C1068 1.391 1_655 S
C1070 C1071 1.400 . S
C1071 C1070 1.400 . S
C1071 C1072 1.398 . S
C1071 C1077 1.491 . S
C1072 H1063 0.950 . S
C1072 C1071 1.398 . S
C1072 C1073 1.391 1_655 S
C1073 H1061 0.950 . S
C1073 C1069 1.393 . S
C1073 C1072 1.391 1_455 S
C1074 H1064 0.950 . S
C1074 C1075 1.386 . S
C1074 C1076 1.391 . S
C1075 C1074 1.386 . S
C1075 C1079 1.393 . S
C1076 H1065 0.950 . S
C1076 C1074 1.391 . S
C1076 C1077 1.400 . S
C1077 C1071 1.491 . S
C1077 C1076 1.400 . S
C1077 C1078 1.398 . S
C1078 H1066 0.950 . S
C1078 C1077 1.398 . S
C1078 C1079 1.391 . S
C1079 H1067 0.950 . S
C1079 C1075 1.393 . S
C1079 C1078 1.391 . S
H1080 C1088 0.950 . S
H1081 C1093 0.950 . S
H1082 C1090 0.950 . S
H1083 C1092 0.950 . S
H1084 C1094 0.950 . S
H1085 C1096 0.950 . S
H1086 C1098 0.950 . S
H1087 C1099 0.950 . S
C1088 H1080 0.950 . S
C1088 C1089 1.386 . S
C1088 C1090 1.391 . S
C1089 C1088 1.386 . S
C1089 C1093 1.393 . S
C1090 H1082 0.950 . S
C1090 C1088 1.391 . S
C1090 C1091 1.400 . S
C1091 C1090 1.400 . S
C1091 C1092 1.398 . S
C1091 C1097 1.491 . S
C1092 H1083 0.950 . S
C1092 C1091 1.398 . S
C1092 C1093 1.391 . S
C1093 H1081 0.950 . S
C1093 C1089 1.393 . S
C1093 C1092 1.391 . S
C1094 H1084 0.950 . S
C1094 C1095 1.386 . S
C1094 C1096 1.391 . S
C1095 C1094 1.386 . S
C1095 C1099 1.393 . S
C1096 H1085 0.950 . S
C1096 C1094 1.391 . S
C1096 C1097 1.400 . S
C1097 C1091 1.491 . S
C1097 C1096 1.400 . S
C1097 C1098 1.398 . S
C1098 H1086 0.950 . S
C1098 C1097 1.398 . S
C1098 C1099 1.391 . S
C1099 H1087 0.950 . S
C1099 C1095 1.393 . S
C1099 C1098 1.391 . S
H1100 C1108 0.950 . S
H1101 C1113 0.950 1_655 S
H1102 C1110 0.950 . S
H1103 C1112 0.950 . S
H1104 C1114 0.950 . S
H1105 C1116 0.950 . S
H1106 C1118 0.950 . S
H1107 C1119 0.950 . S
C1108 H1100 0.950 . S
C1108 C1109 1.386 . S
C1108 C1110 1.391 . S
C1109 C1108 1.386 . S
C1109 C1113 1.393 . S
C1110 H1102 0.950 . S
C1110 C1108 1.391 . S
C1110 C1111 1.400 . S
C1111 C1110 1.400 . S
C1111 C1112 1.398 . S
C1111 C1117 1.491 . S
C1112 H1103 0.950 . S
C1112 C1111 1.398 . S
C1112 C1113 1.391 . S
C1113 H1101 0.950 1_455 S
C1113 C1109 1.393 . S
C1113 C1112 1.391 . S
C1114 H1104 0.950 . S
C1114 C1115 1.386 . S
C1114 C1116 1.391 . S
C1115 C1114 1.386 . S
C1115 C1119 1.393 . S
C1116 H1105 0.950 . S
C1116 C1114 1.391 . S
C1116 C1117 1.400 . S
C1117 C1111 1.491 . S
C1117 C1116 1.400 . S
C1117 C1118 1.398 . S
C1118 H1106 0.950 . S
C1118 C1117 1.398 . S
C1118 C1119 1.391 . S
C1119 H1107 0.950 . S
C1119 C1115 1.393 . S
C1119 C1118 1.391 . S
H1120 C1128 0.950 . S
H1121 C1133 0.950 . S
H1122 C1130 0.950 . S
H1123 C1132 0.950 . S
H1124 C1134 0.950 . S
H1125 C1136 0.950 . S
H1126 C1138 0.950 . S
H1127 C1139 0.950 . S
C1128 H1120 0.950 . S
C1128 C1129 1.386 . S
C1128 C1130 1.391 . S
C1129 C1128 1.386 . S
C1129 C1133 1.393 . S
C1130 H1122 0.950 . S
C1130 C1128 1.391 . S
C1130 C1131 1.400 . S
C1131 C1130 1.400 . S
C1131 C1132 1.398 . S
C1131 C1137 1.491 . S
C1132 H1123 0.950 . S
C1132 C1131 1.398 . S
C1132 C1133 1.391 . S
C1133 H1121 0.950 . S
C1133 C1129 1.393 . S
C1133 C1132 1.391 . S
C1134 H1124 0.950 . S
C1134 C1135 1.386 . S
C1134 C1136 1.391 . S
C1135 C1134 1.386 . S
C1135 C1139 1.393 . S
C1136 H1125 0.950 . S
C1136 C1134 1.391 . S
C1136 C1137 1.400 . S
C1137 C1131 1.491 . S
C1137 C1136 1.400 . S
C1137 C1138 1.398 . S
C1138 H1126 0.950 . S
C1138 C1137 1.398 . S
C1138 C1139 1.391 . S
C1139 H1127 0.950 . S
C1139 C1135 1.393 . S
C1139 C1138 1.391 . S
H1140 C1148 0.950 . S
H1141 C1153 0.950 . S
H1142 C1150 0.950 . S
H1143 C1152 0.950 . S
H1144 C1154 0.950 . S
H1145 C1156 0.950 . S
H1146 C1158 0.950 . S
H1147 C1159 0.950 . S
C1148 H1140 0.950 . S
C1148 C1149 1.386 . S
C1148 C1150 1.391 . S
C1149 C1148 1.386 . S
C1149 C1153 1.393 . S
C1150 H1142 0.950 . S
C1150 C1148 1.391 . S
C1150 C1151 1.400 . S
C1151 C1150 1.400 . S
C1151 C1152 1.398 . S
C1151 C1157 1.491 . S
C1152 H1143 0.950 . S
C1152 C1151 1.398 . S
C1152 C1153 1.391 . S
C1153 H1141 0.950 . S
C1153 C1149 1.393 . S
C1153 C1152 1.391 . S
C1154 H1144 0.950 . S
C1154 C1155 1.386 . S
C1154 C1156 1.391 . S
C1155 C1154 1.386 . S
C1155 C1159 1.393 . S
C1156 H1145 0.950 . S
C1156 C1154 1.391 . S
C1156 C1157 1.400 . S
C1157 C1151 1.491 . S
C1157 C1156 1.400 . S
C1157 C1158 1.398 . S
C1158 H1146 0.950 . S
C1158 C1157 1.398 . S
C1158 C1159 1.391 . S
C1159 H1147 0.950 . S
C1159 C1155 1.393 . S
C1159 C1158 1.391 . S
H1160 C1168 0.950 . S
H1161 C1173 0.950 . S
H1162 C1170 0.950 . S
H1163 C1172 0.950 . S
H1164 C1174 0.950 . S
H1165 C1176 0.950 . S
H1166 C1178 0.950 . S
H1167 C1179 0.950 . S
C1168 H1160 0.950 . S
C1168 C1169 1.386 . S
C1168 C1170 1.391 . S
C1169 C1168 1.386 . S
C1169 C1173 1.393 . S
C1170 H1162 0.950 . S
C1170 C1168 1.391 . S
C1170 C1171 1.400 . S
C1171 C1170 1.400 . S
C1171 C1172 1.398 . S
C1171 C1177 1.491 . S
C1172 H1163 0.950 . S
C1172 C1171 1.398 . S
C1172 C1173 1.391 . S
C1173 H1161 0.950 . S
C1173 C1169 1.393 . S
C1173 C1172 1.391 . S
C1174 H1164 0.950 . S
C1174 C1175 1.386 . S
C1174 C1176 1.391 . S
C1175 C1174 1.386 . S
C1175 C1179 1.393 . S
C1176 H1165 0.950 . S
C1176 C1174 1.391 . S
C1176 C1177 1.400 . S
C1177 C1171 1.491 . S
C1177 C1176 1.400 . S
C1177 C1178 1.398 . S
C1178 H1166 0.950 . S
C1178 C1177 1.398 . S
C1178 C1179 1.391 . S
C1179 H1167 0.950 . S
C1179 C1175 1.393 . S
C1179 C1178 1.391 . S
H1180 C1188 0.950 . S
H1181 C1193 0.950 . S
H1182 C1190 0.950 . S
H1183 C1192 0.950 . S
H1184 C1194 0.950 . S
H1185 C1196 0.950 . S
H1186 C1198 0.950 . S
H1187 C1199 0.950 . S
C1188 H1180 0.950 . S
C1188 C1189 1.386 . S
C1188 C1190 1.391 . S
C1189 C1188 1.386 . S
C1189 C1193 1.393 . S
C1190 H1182 0.950 . S
C1190 C1188 1.391 . S
C1190 C1191 1.400 . S
C1191 C1190 1.400 . S
C1191 C1192 1.398 . S
C1191 C1197 1.491 . S
C1192 H1183 0.950 . S
C1192 C1191 1.398 . S
C1192 C1193 1.391 . S
C1193 H1181 0.950 . S
C1193 C1189 1.393 . S
C1193 C1192 1.391 . S
C1194 H1184 0.950 . S
C1194 C1195 1.386 . S
C1194 C1196 1.391 . S
C1195 C1194 1.386 . S
C1195 C1199 1.393 . S
C1196 H1185 0.950 . S
C1196 C1194 1.391 . S
C1196 C1197 1.400 . S
C1197 C1191 1.491 . S
C1197 C1196 1.400 . S
C1197 C1198 1.398 . S
C1198 H1186 0.950 . S
C1198 C1197 1.398 . S
C1198 C1199 1.391 . S
C1199 H1187 0.950 . S
C1199 C1195 1.393 . S
C1199 C1198 1.391 . S
H1200 C1208 0.950 . S
H1201 C1213 0.950 . S
H1202 C1210 0.950 . S
H1203 C1212 0.950 . S
H1204 C1214 0.950 . S
H1205 C1216 0.950 . S
H1206 C1218 0.950 . S
H1207 C1219 0.950 . S
C1208 H1200 0.950 . S
C1208 C1209 1.386 . S
C1208 C1210 1.391 . S
C1209 C1208 1.386 . S
C1209 C1213 1.393 . S
C1210 H1202 0.950 . S
C1210 C1208 1.391 . S
C1210 C1211 1.400 . S
C1211 C1210 1.400 . S
C1211 C1212 1.398 . S
C1211 C1217 1.491 . S
C1212 H1203 0.950 . S
C1212 C1211 1.398 . S
C1212 C1213 1.391 . S
C1213 H1201 0.950 . S
C1213 C1209 1.393 . S
C1213 C1212 1.391 . S
C1214 H1204 0.950 . S
C1214 C1215 1.386 . S
C1214 C1216 1.391 . S
C1215 C1214 1.386 . S
C1215 C1219 1.393 . S
C1216 H1205 0.950 . S
C1216 C1214 1.391 . S
C1216 C1217 1.400 . S
C1217 C1211 1.491 . S
C1217 C1216 1.400 . S
C1217 C1218 1.398 . S
C1218 H1206 0.950 . S
C1218 C1217 1.398 . S
C1218 C1219 1.391 . S
C1219 H1207 0.950 . S
C1219 C1215 1.393 . S
C1219 C1218 1.391 . S
H1220 C1228 0.950 . S
H1221 C1233 0.950 . S
H1222 C1230 0.950 . S
H1223 C1232 0.950 . S
H1224 C1234 0.950 . S
H1225 C1236 0.950 . S
H1226 C1238 0.950 . S
H1227 C1239 0.950 . S
C1228 H1220 0.950 . S
C1228 C1229 1.386 . S
C1228 C1230 1.391 . S
C1229 C1228 1.386 . S
C1229 C1233 1.393 . S
C1230 H1222 0.950 . S
C1230 C1228 1.391 . S
C1230 C1231 1.400 . S
C1231 C1230 1.400 . S
C1231 C1232 1.398 . S
C1231 C1237 1.491 . S
C1232 H1223 0.950 . S
C1232 C1231 1.398 . S
C1232 C1233 1.391 . S
C1233 H1221 0.950 . S
C1233 C1229 1.393 . S
C1233 C1232 1.391 . S
C1234 H1224 0.950 . S
C1234 C1235 1.386 . S
C1234 C1236 1.391 . S
C1235 C1234 1.386 . S
C1235 C1239 1.393 . S
C1236 H1225 0.950 . S
C1236 C1234 1.391 . S
C1236 C1237 1.400 . S
C1237 C1231 1.491 . S
C1237 C1236 1.400 . S
C1237 C1238 1.398 . S
C1238 H1226 0.950 . S
C1238 C1237 1.398 . S
C1238 C1239 1.391 . S
C1239 H1227 0.950 . S
C1239 C1235 1.393 . S
C1239 C1238 1.391 . S
H1240 C1248 0.950 . S
H1241 C1253 0.950 . S
H1242 C1250 0.950 . S
H1243 C1252 0.950 . S
H1244 C1254 0.950 . S
H1245 C1256 0.950 . S
H1246 C1258 0.950 . S
H1247 C1259 0.950 . S
C1248 H1240 0.950 . S
C1248 C1249 1.386 . S
C1248 C1250 1.391 . S
C1249 C1248 1.386 . S
C1249 C1253 1.393 . S
C1250 H1242 0.950 . S
C1250 C1248 1.391 . S
C1250 C1251 1.400 . S
C1251 C1250 1.400 . S
C1251 C1252 1.398 . S
C1251 C1257 1.491 . S
C1252 H1243 0.950 . S
C1252 C1251 1.398 . S
C1252 C1253 1.391 . S
C1253 H1241 0.950 . S
C1253 C1249 1.393 . S
C1253 C1252 1.391 . S
C1254 H1244 0.950 . S
C1254 C1255 1.386 . S
C1254 C1256 1.391 . S
C1255 C1254 1.386 . S
C1255 C1259 1.393 . S
C1256 H1245 0.950 . S
C1256 C1254 1.391 . S
C1256 C1257 1.400 . S
C1257 C1251 1.491 . S
C1257 C1256 1.400 . S
C1257 C1258 1.398 . S
C1258 H1246 0.950 . S
C1258 C1257 1.398 . S
C1258 C1259 1.391 . S
C1259 H1247 0.950 . S
C1259 C1255 1.393 . S
C1259 C1258 1.391 . S
H1260 C1268 0.950 . S
H1261 C1273 0.950 . S
H1262 C1270 0.950 . S
H1263 C1272 0.950 . S
H1264 C1274 0.950 . S
H1265 C1276 0.950 . S
H1266 C1278 0.950 . S
H1267 C1279 0.950 . S
C1268 H1260 0.950 . S
C1268 C1269 1.386 . S
C1268 C1270 1.391 . S
C1269 C1268 1.386 . S
C1269 C1273 1.393 . S
C1270 H1262 0.950 . S
C1270 C1268 1.391 . S
C1270 C1271 1.400 . S
C1271 C1270 1.400 . S
C1271 C1272 1.398 . S
C1271 C1277 1.491 . S
C1272 H1263 0.950 . S
C1272 C1271 1.398 . S
C1272 C1273 1.391 . S
C1273 H1261 0.950 . S
C1273 C1269 1.393 . S
C1273 C1272 1.391 . S
C1274 H1264 0.950 . S
C1274 C1275 1.386 . S
C1274 C1276 1.391 1_565 S
C1275 C1274 1.386 . S
C1275 C1279 1.393 1_565 S
C1276 H1265 0.950 . S
C1276 C1274 1.391 1_545 S
C1276 C1277 1.400 . S
C1277 C1271 1.491 . S
C1277 C1276 1.400 . S
C1277 C1278 1.398 . S
C1278 H1266 0.950 . S
C1278 C1277 1.398 . S
C1278 C1279 1.391 . S
C1279 H1267 0.950 . S
C1279 C1275 1.393 1_545 S
C1279 C1278 1.391 . S
H1280 C1288 0.950 . S
H1281 C1293 0.950 . S
H1282 C1290 0.950 . S
H1283 C1292 0.950 . S
H1284 C1294 0.950 . S
H1285 C1296 0.950 . S
H1286 C1298 0.950 . S
H1287 C1299 0.950 . S
C1288 H1280 0.950 . S
C1288 C1289 1.386 . S
C1288 C1290 1.391 . S
C1289 C1288 1.386 . S
C1289 C1293 1.393 . S
C1290 H1282 0.950 . S
C1290 C1288 1.391 . S
C1290 C1291 1.400 . S
C1291 C1290 1.400 . S
C1291 C1292 1.398 . S
C1291 C1297 1.491 . S
C1292 H1283 0.950 . S
C1292 C1291 1.398 . S
C1292 C1293 1.391 . S
C1293 H1281 0.950 . S
C1293 C1289 1.393 . S
C1293 C1292 1.391 . S
C1294 H1284 0.950 . S
C1294 C1295 1.386 . S
C1294 C1296 1.391 . S
C1295 C1294 1.386 . S
C1295 C1299 1.393 . S
C1296 H1285 0.950 . S
C1296 C1294 1.391 . S
C1296 C1297 1.400 . S
C1297 C1291 1.491 . S
C1297 C1296 1.400 . S
C1297 C1298 1.398 . S
C1298 H1286 0.950 . S
C1298 C1297 1.398 . S
C1298 C1299 1.391 . S
C1299 H1287 0.950 . S
C1299 C1295 1.393 . S
C1299 C1298 1.391 . S
H1300 C1308 0.950 . S
H1301 C1313 0.950 . S
H1302 C1310 0.950 . S
H1303 C1312 0.950 . S
H1304 C1314 0.950 . S
H1305 C1316 0.950 . S
H1306 C1318 0.950 . S
H1307 C1319 0.950 . S
C1308 H1300 0.950 . S
C1308 C1309 1.386 . S
C1308 C1310 1.391 . S
C1309 C1308 1.386 . S
C1309 C1313 1.393 . S
C1310 H1302 0.950 . S
C1310 C1308 1.391 . S
C1310 C1311 1.400 . S
C1311 C1310 1.400 . S
C1311 C1312 1.398 . S
C1311 C1317 1.491 . S
C1312 H1303 0.950 . S
C1312 C1311 1.398 . S
C1312 C1313 1.391 . S
C1313 H1301 0.950 . S
C1313 C1309 1.393 . S
C1313 C1312 1.391 . S
C1314 H1304 0.950 . S
C1314 C1315 1.386 . S
C1314 C1316 1.391 . S
C1315 C1314 1.386 . S
C1315 C1319 1.393 . S
C1316 H1305 0.950 . S
C1316 C1314 1.391 . S
C1316 C1317 1.400 . S
C1317 C1311 1.491 . S
C1317 C1316 1.400 . S
C1317 C1318 1.398 . S
C1318 H1306 0.950 . S
C1318 C1317 1.398 . S
C1318 C1319 1.391 . S
C1319 H1307 0.950 . S
C1319 C1315 1.393 . S
C1319 C1318 1.391 . S
H1320 C1328 0.950 . S
H1321 C1333 0.950 . S
H1322 C1330 0.950 . S
H1323 C1332 0.950 . S
H1324 C1334 0.950 . S
H1325 C1336 0.950 . S
H1326 C1338 0.950 . S
H1327 C1339 0.950 . S
C1328 H1320 0.950 . S
C1328 C1329 1.386 . S
C1328 C1330 1.391 . S
C1329 C1328 1.386 . S
C1329 C1333 1.393 . S
C1330 H1322 0.950 . S
C1330 C1328 1.391 . S
C1330 C1331 1.400 . S
C1331 C1330 1.400 . S
C1331 C1332 1.398 . S
C1331 C1337 1.491 . S
C1332 H1323 0.950 . S
C1332 C1331 1.398 . S
C1332 C1333 1.391 . S
C1333 H1321 0.950 . S
C1333 C1329 1.393 . S
C1333 C1332 1.391 . S
C1334 H1324 0.950 . S
C1334 C1335 1.386 . S
C1334 C1336 1.391 . S
C1335 C1334 1.386 . S
C1335 C1339 1.393 . S
C1336 H1325 0.950 . S
C1336 C1334 1.391 . S
C1336 C1337 1.400 . S
C1337 C1331 1.491 . S
C1337 C1336 1.400 . S
C1337 C1338 1.398 . S
C1338 H1326 0.950 . S
C1338 C1337 1.398 . S
C1338 C1339 1.391 . S
C1339 H1327 0.950 . S
C1339 C1335 1.393 . S
C1339 C1338 1.391 . S
H1340 C1348 0.950 . S
H1341 C1353 0.950 . S
H1342 C1350 0.950 . S
H1343 C1352 0.950 . S
H1344 C1354 0.950 . S
H1345 C1356 0.951 . S
H1346 C1358 0.950 . S
H1347 C1359 0.950 . S
C1348 H1340 0.950 . S
C1348 C1349 1.386 . S
C1348 C1350 1.391 . S
C1349 C1348 1.386 . S
C1349 C1353 1.393 . S
C1350 H1342 0.950 . S
C1350 C1348 1.391 . S
C1350 C1351 1.400 . S
C1351 C1350 1.400 . S
C1351 C1352 1.398 . S
C1351 C1357 1.491 . S
C1352 H1343 0.950 . S
C1352 C1351 1.398 . S
C1352 C1353 1.391 . S
C1353 H1341 0.950 . S
C1353 C1349 1.393 . S
C1353 C1352 1.391 . S
C1354 H1344 0.950 . S
C1354 C1355 1.386 . S
C1354 C1356 1.391 1_565 S
C1355 C1354 1.386 . S
C1355 C1359 1.393 1_565 S
C1356 H1345 0.951 . S
C1356 C1354 1.391 1_545 S
C1356 C1357 1.400 . S
C1357 C1351 1.491 . S
C1357 C1356 1.400 . S
C1357 C1358 1.398 . S
C1358 H1346 0.950 . S
C1358 C1357 1.398 . S
C1358 C1359 1.391 . S
C1359 H1347 0.950 . S
C1359 C1355 1.393 1_545 S
C1359 C1358 1.391 . S
H1360 C1368 0.950 . S
H1361 C1373 0.950 . S
H1362 C1370 0.950 . S
H1363 C1372 0.950 . S
H1364 C1374 0.950 . S
H1365 C1376 0.950 . S
H1366 C1378 0.950 . S
H1367 C1379 0.950 . S
C1368 H1360 0.950 . S
C1368 C1369 1.386 . S
C1368 C1370 1.391 . S
C1369 C1368 1.386 . S
C1369 C1373 1.393 . S
C1370 H1362 0.950 . S
C1370 C1368 1.391 . S
C1370 C1371 1.400 . S
C1371 C1370 1.400 . S
C1371 C1372 1.398 . S
C1371 C1377 1.491 . S
C1372 H1363 0.950 . S
C1372 C1371 1.398 . S
C1372 C1373 1.391 . S
C1373 H1361 0.950 . S
C1373 C1369 1.393 . S
C1373 C1372 1.391 . S
C1374 H1364 0.950 . S
C1374 C1375 1.386 . S
C1374 C1376 1.391 . S
C1375 C1374 1.386 . S
C1375 C1379 1.393 . S
C1376 H1365 0.950 . S
C1376 C1374 1.391 . S
C1376 C1377 1.400 . S
C1377 C1371 1.491 . S
C1377 C1376 1.400 . S
C1377 C1378 1.398 . S
C1378 H1366 0.950 . S
C1378 C1377 1.398 . S
C1378 C1379 1.391 . S
C1379 H1367 0.950 . S
C1379 C1375 1.393 . S
C1379 C1378 1.391 . S
H1380 C1388 0.950 . S
H1381 C1393 0.950 . S
H1382 C1390 0.950 . S
H1383 C1392 0.950 . S
H1384 C1394 0.950 . S
H1385 C1396 0.950 . S
H1386 C1398 0.950 . S
H1387 C1399 0.950 . S
C1388 H1380 0.950 . S
C1388 C1389 1.386 . S
C1388 C1390 1.391 . S
C1389 C1388 1.386 . S
C1389 C1393 1.393 . S
C1390 H1382 0.950 . S
C1390 C1388 1.391 . S
C1390 C1391 1.400 . S
C1391 C1390 1.400 . S
C1391 C1392 1.398 . S
C1391 C1397 1.491 . S
C1392 H1383 0.950 . S
C1392 C1391 1.398 . S
C1392 C1393 1.391 . S
C1393 H1381 0.950 . S
C1393 C1389 1.393 . S
C1393 C1392 1.391 . S
C1394 H1384 0.950 . S
C1394 C1395 1.386 . S
C1394 C1396 1.391 . S
C1395 C1394 1.386 . S
C1395 C1399 1.393 . S
C1396 H1385 0.950 . S
C1396 C1394 1.391 . S
C1396 C1397 1.400 . S
C1397 C1391 1.491 . S
C1397 C1396 1.400 . S
C1397 C1398 1.398 . S
C1398 H1386 0.950 . S
C1398 C1397 1.398 . S
C1398 C1399 1.391 . S
C1399 H1387 0.950 . S
C1399 C1395 1.393 . S
C1399 C1398 1.391 . S
H1400 C1408 0.950 . S
H1401 C1413 0.950 . S
H1402 C1410 0.950 . S
H1403 C1412 0.950 . S
H1404 C1414 0.950 . S
H1405 C1416 0.950 . S
H1406 C1418 0.950 . S
H1407 C1419 0.950 . S
C1408 H1400 0.950 . S
C1408 C1409 1.386 . S
C1408 C1410 1.391 . S
C1409 C1408 1.386 . S
C1409 C1413 1.393 . S
C1410 H1402 0.950 . S
C1410 C1408 1.391 . S
C1410 C1411 1.400 . S
C1411 C1410 1.400 . S
C1411 C1412 1.398 . S
C1411 C1417 1.491 . S
C1412 H1403 0.950 . S
C1412 C1411 1.398 . S
C1412 C1413 1.391 . S
C1413 H1401 0.950 . S
C1413 C1409 1.393 . S
C1413 C1412 1.391 . S
C1414 H1404 0.950 . S
C1414 C1415 1.386 . S
C1414 C1416 1.391 . S
C1415 C1414 1.386 . S
C1415 C1419 1.393 . S
C1416 H1405 0.950 . S
C1416 C1414 1.391 . S
C1416 C1417 1.400 . S
C1417 C1411 1.491 . S
C1417 C1416 1.400 . S
C1417 C1418 1.398 . S
C1418 H1406 0.950 . S
C1418 C1417 1.398 . S
C1418 C1419 1.391 . S
C1419 H1407 0.950 . S
C1419 C1415 1.393 . S
C1419 C1418 1.391 . S
H1420 C1428 0.950 . S
H1421 C1433 0.950 . S
H1422 C1430 0.950 . S
H1423 C1432 0.950 . S
H1424 C1434 0.950 . S
H1425 C1436 0.950 . S
H1426 C1438 0.950 . S
H1427 C1439 0.950 . S
C1428 H1420 0.950 . S
C1428 C1429 1.386 . S
C1428 C1430 1.391 . S
C1429 C1428 1.386 . S
C1429 C1433 1.393 . S
C1430 H1422 0.950 . S
C1430 C1428 1.391 . S
C1430 C1431 1.400 . S
C1431 C1430 1.400 . S
C1431 C1432 1.398 . S
C1431 C1437 1.491 . S
C1432 H1423 0.950 . S
C1432 C1431 1.398 . S
C1432 C1433 1.391 . S
C1433 H1421 0.950 . S
C1433 C1429 1.393 . S
C1433 C1432 1.391 . S
C1434 H1424 0.950 . S
C1434 C1435 1.386 . S
C1434 C1436 1.391 . S
C1435 C1434 1.386 . S
C1435 C1439 1.393 . S
C1436 H1425 0.950 . S
C1436 C1434 1.391 . S
C1436 C1437 1.400 . S
C1437 C1431 1.491 . S
C1437 C1436 1.400 . S
C1437 C1438 1.398 . S
C1438 H1426 0.950 . S
C1438 C1437 1.398 . S
C1438 C1439 1.391 . S
C1439 H1427 0.950 . S
C1439 C1435 1.393 . S
C1439 C1438 1.391 . S
H1440 C1448 0.950 . S
H1441 C1453 0.950 1_545 S
H1442 C1450 0.950 . S
H1443 C1452 0.950 . S
H1444 C1454 0.950 . S
H1445 C1456 0.950 . S
H1446 C1458 0.950 . S
H1447 C1459 0.950 . S
C1448 H1440 0.950 . S
C1448 C1449 1.386 . S
C1448 C1450 1.391 . S
C1449 C1448 1.386 . S
C1449 C1453 1.393 . S
C1450 H1442 0.950 . S
C1450 C1448 1.391 . S
C1450 C1451 1.400 . S
C1451 C1450 1.400 . S
C1451 C1452 1.398 . S
C1451 C1457 1.491 . S
C1452 H1443 0.950 . S
C1452 C1451 1.398 . S
C1452 C1453 1.391 . S
C1453 H1441 0.950 1_565 S
C1453 C1449 1.393 . S
C1453 C1452 1.391 . S
C1454 H1444 0.950 . S
C1454 C1455 1.386 . S
C1454 C1456 1.391 . S
C1455 C1454 1.386 . S
C1455 C1459 1.393 . S
C1456 H1445 0.950 . S
C1456 C1454 1.391 . S
C1456 C1457 1.400 . S
C1457 C1451 1.491 . S
C1457 C1456 1.400 . S
C1457 C1458 1.398 . S
C1458 H1446 0.950 . S
C1458 C1457 1.398 . S
C1458 C1459 1.391 . S
C1459 H1447 0.950 . S
C1459 C1455 1.393 . S
C1459 C1458 1.391 . S
H1460 C1468 0.950 . S
H1461 C1473 0.950 . S
H1462 C1470 0.950 . S
H1463 C1472 0.950 . S
H1464 C1474 0.950 . S
H1465 C1476 0.950 . S
H1466 C1478 0.950 . S
H1467 C1479 0.950 . S
C1468 H1460 0.950 . S
C1468 C1469 1.386 . S
C1468 C1470 1.391 . S
C1469 C1468 1.386 . S
C1469 C1473 1.393 . S
C1470 H1462 0.950 . S
C1470 C1468 1.391 . S
C1470 C1471 1.400 . S
C1471 C1470 1.400 . S
C1471 C1472 1.398 . S
C1471 C1477 1.491 . S
C1472 H1463 0.950 . S
C1472 C1471 1.398 . S
C1472 C1473 1.391 . S
C1473 H1461 0.950 . S
C1473 C1469 1.393 . S
C1473 C1472 1.391 . S
C1474 H1464 0.950 . S
C1474 C1475 1.386 . S
C1474 C1476 1.391 . S
C1475 C1474 1.386 . S
C1475 C1479 1.393 . S
C1476 H1465 0.950 . S
C1476 C1474 1.391 . S
C1476 C1477 1.400 . S
C1477 C1471 1.491 . S
C1477 C1476 1.400 . S
C1477 C1478 1.398 . S
C1478 H1466 0.950 . S
C1478 C1477 1.398 . S
C1478 C1479 1.391 . S
C1479 H1467 0.950 . S
C1479 C1475 1.393 . S
C1479 C1478 1.391 . S
H1480 C1488 0.950 . S
H1481 C1493 0.950 . S
H1482 C1490 0.950 . S
H1483 C1492 0.950 . S
H1484 C1494 0.950 . S
H1485 C1496 0.950 1_455 S
H1486 C1498 0.950 . S
H1487 C1499 0.950 1_565 S
C1488 H1480 0.950 . S
C1488 C1489 1.386 . S
C1488 C1490 1.391 . S
C1489 C1488 1.386 . S
C1489 C1493 1.393 . S
C1490 H1482 0.950 . S
C1490 C1488 1.391 . S
C1490 C1491 1.400 . S
C1491 C1490 1.400 . S
C1491 C1492 1.398 . S
C1491 C1497 1.491 . S
C1492 H1483 0.950 . S
C1492 C1491 1.398 . S
C1492 C1493 1.391 . S
C1493 H1481 0.950 . S
C1493 C1489 1.393 . S
C1493 C1492 1.391 . S
C1494 H1484 0.950 . S
C1494 C1495 1.386 . S
C1494 C1496 1.391 1_455 S
C1495 C1494 1.386 . S
C1495 C1499 1.393 1_455 S
C1496 H1485 0.950 1_655 S
C1496 C1494 1.391 1_655 S
C1496 C1497 1.400 . S
C1497 C1491 1.491 . S
C1497 C1496 1.400 . S
C1497 C1498 1.398 . S
C1498 H1486 0.950 . S
C1498 C1497 1.398 . S
C1498 C1499 1.391 . S
C1499 H1487 0.950 1_545 S
C1499 C1495 1.393 1_655 S
C1499 C1498 1.391 . S
H1500 C1508 0.950 . S
H1501 C1513 0.950 . S
H1502 C1510 0.950 . S
H1503 C1512 0.950 . S
H1504 C1514 0.950 . S
H1505 C1516 0.950 . S
H1506 C1518 0.950 . S
H1507 C1519 0.950 . S
C1508 H1500 0.950 . S
C1508 C1509 1.386 . S
C1508 C1510 1.391 . S
C1509 C1508 1.386 . S
C1509 C1513 1.393 . S
C1510 H1502 0.950 . S
C1510 C1508 1.391 . S
C1510 C1511 1.400 . S
C1511 C1510 1.400 . S
C1511 C1512 1.398 . S
C1511 C1517 1.491 . S
C1512 H1503 0.950 . S
C1512 C1511 1.398 . S
C1512 C1513 1.391 . S
C1513 H1501 0.950 . S
C1513 C1509 1.393 . S
C1513 C1512 1.391 . S
C1514 H1504 0.950 . S
C1514 C1515 1.386 . S
C1514 C1516 1.391 . S
C1515 C1514 1.386 . S
C1515 C1519 1.393 . S
C1516 H1505 0.950 . S
C1516 C1514 1.391 . S
C1516 C1517 1.400 . S
C1517 C1511 1.491 . S
C1517 C1516 1.400 . S
C1517 C1518 1.398 . S
C1518 H1506 0.950 . S
C1518 C1517 1.398 . S
C1518 C1519 1.391 . S
C1519 H1507 0.950 . S
C1519 C1515 1.393 . S
C1519 C1518 1.391 . S
H1520 C1528 0.950 . S
H1521 C1533 0.950 . S
H1522 C1530 0.950 . S
H1523 C1532 0.950 . S
H1524 C1534 0.950 . S
H1525 C1536 0.950 . S
H1526 C1538 0.950 . S
H1527 C1539 0.950 1_565 S
C1528 H1520 0.950 . S
C1528 C1529 1.386 . S
C1528 C1530 1.391 . S
C1529 C1528 1.386 . S
C1529 C1533 1.393 . S
C1530 H1522 0.950 . S
C1530 C1528 1.391 . S
C1530 C1531 1.400 . S
C1531 C1530 1.400 . S
C1531 C1532 1.398 . S
C1531 C1537 1.491 . S
C1532 H1523 0.950 . S
C1532 C1531 1.398 . S
C1532 C1533 1.391 . S
C1533 H1521 0.950 . S
C1533 C1529 1.393 . S
C1533 C1532 1.391 . S
C1534 H1524 0.950 . S
C1534 C1535 1.386 . S
C1534 C1536 1.391 . S
C1535 C1534 1.386 . S
C1535 C1539 1.393 . S
C1536 H1525 0.950 . S
C1536 C1534 1.391 . S
C1536 C1537 1.400 . S
C1537 C1531 1.491 . S
C1537 C1536 1.400 . S
C1537 C1538 1.398 . S
C1538 H1526 0.950 . S
C1538 C1537 1.398 . S
C1538 C1539 1.391 . S
C1539 H1527 0.950 1_545 S
C1539 C1535 1.393 . S
C1539 C1538 1.391 . S
H1540 C1548 0.950 . S
H1541 C1553 0.950 . S
H1542 C1550 0.950 . S
H1543 C1552 0.950 . S
H1544 C1554 0.950 . S
H1545 C1556 0.950 . S
H1546 C1558 0.950 . S
H1547 C1559 0.950 . S
C1548 H1540 0.950 . S
C1548 C1549 1.386 . S
C1548 C1550 1.391 . S
C1549 C1548 1.386 . S
C1549 C1553 1.393 . S
C1550 H1542 0.950 . S
C1550 C1548 1.391 . S
C1550 C1551 1.400 . S
C1551 C1550 1.400 . S
C1551 C1552 1.398 . S
C1551 C1557 1.491 . S
C1552 H1543 0.950 . S
C1552 C1551 1.398 . S
C1552 C1553 1.391 . S
C1553 H1541 0.950 . S
C1553 C1549 1.393 . S
C1553 C1552 1.391 . S
C1554 H1544 0.950 . S
C1554 C1555 1.386 . S
C1554 C1556 1.391 . S
C1555 C1554 1.386 . S
C1555 C1559 1.393 . S
C1556 H1545 0.950 . S
C1556 C1554 1.391 . S
C1556 C1557 1.400 . S
C1557 C1551 1.491 . S
C1557 C1556 1.400 . S
C1557 C1558 1.398 . S
C1558 H1546 0.950 . S
C1558 C1557 1.398 . S
C1558 C1559 1.391 . S
C1559 H1547 0.950 . S
C1559 C1555 1.393 . S
C1559 C1558 1.391 . S
H1560 C1568 0.950 . S
H1561 C1573 0.950 1_455 S
H1562 C1570 0.950 . S
H1563 C1572 0.950 1_455 S
H1564 C1574 0.950 1_455 S
H1565 C1576 0.950 1_455 S
H1566 C1578 0.950 . S
H1567 C1579 0.950 . S
C1568 H1560 0.950 . S
C1568 C1569 1.386 . S
C1568 C1570 1.391 . S
C1569 C1568 1.386 . S
C1569 C1573 1.393 . S
C1570 H1562 0.950 . S
C1570 C1568 1.391 . S
C1570 C1571 1.400 . S
C1571 C1570 1.400 . S
C1571 C1572 1.398 . S
C1571 C1577 1.491 . S
C1572 H1563 0.950 1_655 S
C1572 C1571 1.398 . S
C1572 C1573 1.391 . S
C1573 H1561 0.950 1_655 S
C1573 C1569 1.393 . S
C1573 C1572 1.391 . S
C1574 H1564 0.950 1_655 S
C1574 C1575 1.386 . S
C1574 C1576 1.391 . S
C1575 C1574 1.386 . S
C1575 C1579 1.393 . S
C1576 H1565 0.950 1_655 S
C1576 C1574 1.391 . S
C1576 C1577 1.400 . S
C1577 C1571 1.491 . S
C1577 C1576 1.400 . S
C1577 C1578 1.398 . S
C1578 H1566 0.950 . S
C1578 C1577 1.398 . S
C1578 C1579 1.391 . S
C1579 H1567 0.950 . S
C1579 C1575 1.393 . S
C1579 C1578 1.391 . S
H1580 C1588 0.950 . S
H1581 C1593 0.950 . S
H1582 C1590 0.950 . S
H1583 C1592 0.950 . S
H1584 C1594 0.950 . S
H1585 C1596 0.950 . S
H1586 C1598 0.950 . S
H1587 C1599 0.950 . S
C1588 H1580 0.950 . S
C1588 C1589 1.386 1_554 S
C1588 C1590 1.391 . S
C1589 C1588 1.386 1_556 S
C1589 C1593 1.393 . S
C1590 H1582 0.950 . S
C1590 C1588 1.391 . S
C1590 C1591 1.400 1_554 S
C1591 C1590 1.400 1_556 S
C1591 C1592 1.398 . S
C1591 C1597 1.491 1_556 S
C1592 H1583 0.950 . S
C1592 C1591 1.398 . S
C1592 C1593 1.391 . S
C1593 H1581 0.950 . S
C1593 C1589 1.393 . S
C1593 C1592 1.391 . S
C1594 H1584 0.950 . S
C1594 C1595 1.386 1_556 S
C1594 C1596 1.391 . S
C1595 C1594 1.386 1_554 S
C1595 C1599 1.393 . S
C1596 H1585 0.950 . S
C1596 C1594 1.391 . S
C1596 C1597 1.400 1_556 S
C1597 C1591 1.491 1_554 S
C1597 C1596 1.400 1_554 S
C1597 C1598 1.398 . S
C1598 H1586 0.950 . S
C1598 C1597 1.398 . S
C1598 C1599 1.391 . S
C1599 H1587 0.950 . S
C1599 C1595 1.393 . S
C1599 C1598 1.391 . S
H1600 C1608 0.950 . S
H1601 C1613 0.950 . S
H1602 C1610 0.950 . S
H1603 C1612 0.950 . S
H1604 C1614 0.950 . S
H1605 C1616 0.950 . S
H1606 C1618 0.950 . S
H1607 C1619 0.950 . S
C1608 H1600 0.950 . S
C1608 C1609 1.386 1_655 S
C1608 C1610 1.391 . S
C1609 C1608 1.386 1_455 S
C1609 C1613 1.393 . S
C1610 H1602 0.950 . S
C1610 C1608 1.391 . S
C1610 C1611 1.400 1_655 S
C1611 C1610 1.400 1_455 S
C1611 C1612 1.398 . S
C1611 C1617 1.491 1_545 S
C1612 H1603 0.950 . S
C1612 C1611 1.398 . S
C1612 C1613 1.391 . S
C1613 H1601 0.950 . S
C1613 C1609 1.393 . S
C1613 C1612 1.391 . S
C1614 H1604 0.950 . S
C1614 C1615 1.386 . S
C1614 C1616 1.391 . S
C1615 C1614 1.386 . S
C1615 C1619 1.393 1_455 S
C1616 H1605 0.950 . S
C1616 C1614 1.391 . S
C1616 C1617 1.400 . S
C1617 C1611 1.491 1_565 S
C1617 C1616 1.400 . S
C1617 C1618 1.398 1_455 S
C1618 H1606 0.950 . S
C1618 C1617 1.398 1_655 S
C1618 C1619 1.391 . S
C1619 H1607 0.950 . S
C1619 C1615 1.393 1_655 S
C1619 C1618 1.391 . S
H1620 C1628 0.950 . S
H1621 C1633 0.950 . S
H1622 C1630 0.950 . S
H1623 C1632 0.950 . S
H1624 C1634 0.950 . S
H1625 C1636 0.950 . S
H1626 C1638 0.950 . S
H1627 C1639 0.950 . S
C1628 H1620 0.950 . S
C1628 C1629 1.386 1_554 S
C1628 C1630 1.391 . S
C1629 C1628 1.386 1_556 S
C1629 C1633 1.393 . S
C1630 H1622 0.950 . S
C1630 C1628 1.391 . S
C1630 C1631 1.400 1_554 S
C1631 C1630 1.400 1_556 S
C1631 C1632 1.398 . S
C1631 C1637 1.491 1_556 S
C1632 H1623 0.950 . S
C1632 C1631 1.398 . S
C1632 C1633 1.391 . S
C1633 H1621 0.950 . S
C1633 C1629 1.393 . S
C1633 C1632 1.391 . S
C1634 H1624 0.950 . S
C1634 C1635 1.386 1_556 S
C1634 C1636 1.391 . S
C1635 C1634 1.386 1_554 S
C1635 C1639 1.393 . S
C1636 H1625 0.950 . S
C1636 C1634 1.391 . S
C1636 C1637 1.400 1_556 S
C1637 C1631 1.491 1_554 S
C1637 C1636 1.400 1_554 S
C1637 C1638 1.398 . S
C1638 H1626 0.950 . S
C1638 C1637 1.398 . S
C1638 C1639 1.391 . S
C1639 H1627 0.950 . S
C1639 C1635 1.393 . S
C1639 C1638 1.391 . S
H1640 C1648 0.950 . S
H1641 C1653 0.950 . S
H1642 C1650 0.950 . S
H1643 C1652 0.950 . S
H1644 C1654 0.950 . S
H1645 C1656 0.950 . S
H1646 C1658 0.950 . S
H1647 C1659 0.950 . S
C1648 H1640 0.950 . S
C1648 C1649 1.386 1_545 S
C1648 C1650 1.391 . S
C1649 C1648 1.386 1_565 S
C1649 C1653 1.393 . S
C1650 H1642 0.950 . S
C1650 C1648 1.391 . S
C1650 C1651 1.400 1_545 S
C1651 C1650 1.400 1_565 S
C1651 C1652 1.398 . S
C1651 C1657 1.491 . S
C1652 H1643 0.950 . S
C1652 C1651 1.398 . S
C1652 C1653 1.391 . S
C1653 H1641 0.950 . S
C1653 C1649 1.393 . S
C1653 C1652 1.391 . S
C1654 H1644 0.950 . S
C1654 C1655 1.386 . S
C1654 C1656 1.391 . S
C1655 C1654 1.386 . S
C1655 C1659 1.393 1_565 S
C1656 H1645 0.950 . S
C1656 C1654 1.391 . S
C1656 C1657 1.400 . S
C1657 C1651 1.491 . S
C1657 C1656 1.400 . S
C1657 C1658 1.398 1_565 S
C1658 H1646 0.950 . S
C1658 C1657 1.398 1_545 S
C1658 C1659 1.391 . S
C1659 H1647 0.950 . S
C1659 C1655 1.393 1_545 S
C1659 C1658 1.391 . S
H1660 C1668 0.950 . S
H1661 C1673 0.950 . S
H1662 C1670 0.950 . S
H1663 C1672 0.950 . S
H1664 C1674 0.950 . S
H1665 C1676 0.950 . S
H1666 C1678 0.950 . S
H1667 C1679 0.950 . S
C1668 H1660 0.950 . S
C1668 C1669 1.386 . S
C1668 C1670 1.391 . S
C1669 C1668 1.386 . S
C1669 C1673 1.393 . S
C1670 H1662 0.950 . S
C1670 C1668 1.391 . S
C1670 C1671 1.400 . S
C1671 C1670 1.400 . S
C1671 C1672 1.398 . S
C1671 C1677 1.491 . S
C1672 H1663 0.950 . S
C1672 C1671 1.398 . S
C1672 C1673 1.391 . S
C1673 H1661 0.950 . S
C1673 C1669 1.393 . S
C1673 C1672 1.391 . S
C1674 H1664 0.950 . S
C1674 C1675 1.386 . S
C1674 C1676 1.391 . S
C1675 C1674 1.386 . S
C1675 C1679 1.393 . S
C1676 H1665 0.950 . S
C1676 C1674 1.391 . S
C1676 C1677 1.400 . S
C1677 C1671 1.491 . S
C1677 C1676 1.400 . S
C1677 C1678 1.398 . S
C1678 H1666 0.950 . S
C1678 C1677 1.398 . S
C1678 C1679 1.391 . S
C1679 H1667 0.950 . S
C1679 C1675 1.393 . S
C1679 C1678 1.391 . S
H1680 C1688 0.950 . S
H1681 C1693 0.950 . S
H1682 C1690 0.950 . S
H1683 C1692 0.950 . S
H1684 C1694 0.950 . S
H1685 C1696 0.950 . S
H1686 C1698 0.950 . S
H1687 C1699 0.950 . S
C1688 H1680 0.950 . S
C1688 C1689 1.386 . S
C1688 C1690 1.391 . S
C1689 C1688 1.386 . S
C1689 C1693 1.393 . S
C1690 H1682 0.950 . S
C1690 C1688 1.391 . S
C1690 C1691 1.400 . S
C1691 C1690 1.400 . S
C1691 C1692 1.398 . S
C1691 C1697 1.491 . S
C1692 H1683 0.950 . S
C1692 C1691 1.398 . S
C1692 C1693 1.391 . S
C1693 H1681 0.950 . S
C1693 C1689 1.393 . S
C1693 C1692 1.391 . S
C1694 H1684 0.950 . S
C1694 C1695 1.386 . S
C1694 C1696 1.391 . S
C1695 C1694 1.386 . S
C1695 C1699 1.393 . S
C1696 H1685 0.950 . S
C1696 C1694 1.391 . S
C1696 C1697 1.400 . S
C1697 C1691 1.491 . S
C1697 C1696 1.400 . S
C1697 C1698 1.398 . S
C1698 H1686 0.950 . S
C1698 C1697 1.398 . S
C1698 C1699 1.391 . S
C1699 H1687 0.950 . S
C1699 C1695 1.393 . S
C1699 C1698 1.391 . S
H1700 C1708 0.950 . S
H1701 C1713 0.950 . S
H1702 C1710 0.950 . S
H1703 C1712 0.950 . S
H1704 C1714 0.950 . S
H1705 C1716 0.950 . S
H1706 C1718 0.950 . S
H1707 C1719 0.950 . S
C1708 H1700 0.950 . S
C1708 C1709 1.386 . S
C1708 C1710 1.391 . S
C1709 C1708 1.386 . S
C1709 C1713 1.393 1_545 S
C1710 H1702 0.950 . S
C1710 C1708 1.391 . S
C1710 C1711 1.400 . S
C1711 C1710 1.400 . S
C1711 C1712 1.398 1_545 S
C1711 C1717 1.491 1_545 S
C1712 H1703 0.950 . S
C1712 C1711 1.398 1_565 S
C1712 C1713 1.391 . S
C1713 H1701 0.950 . S
C1713 C1709 1.393 1_565 S
C1713 C1712 1.391 . S
C1714 H1704 0.950 . S
C1714 C1715 1.386 . S
C1714 C1716 1.391 . S
C1715 C1714 1.386 . S
C1715 C1719 1.393 1_565 S
C1716 H1705 0.950 . S
C1716 C1714 1.391 . S
C1716 C1717 1.400 . S
C1717 C1711 1.491 1_565 S
C1717 C1716 1.400 . S
C1717 C1718 1.398 1_565 S
C1718 H1706 0.950 . S
C1718 C1717 1.398 1_545 S
C1718 C1719 1.391 . S
C1719 H1707 0.950 . S
C1719 C1715 1.393 1_545 S
C1719 C1718 1.391 . S
H1720 C1728 0.950 . S
H1721 C1733 0.950 . S
H1722 C1730 0.950 . S
H1723 C1732 0.950 . S
H1724 C1734 0.950 . S
H1725 C1736 0.950 . S
H1726 C1738 0.950 . S
H1727 C1739 0.950 . S
C1728 H1720 0.950 . S
C1728 C1729 1.386 1_565 S
C1728 C1730 1.391 . S
C1729 C1728 1.386 1_545 S
C1729 C1733 1.393 . S
C1730 H1722 0.950 . S
C1730 C1728 1.391 . S
C1730 C1731 1.400 1_565 S
C1731 C1730 1.400 1_545 S
C1731 C1732 1.398 . S
C1731 C1737 1.491 1_554 S
C1732 H1723 0.950 . S
C1732 C1731 1.398 . S
C1732 C1733 1.391 . S
C1733 H1721 0.950 . S
C1733 C1729 1.393 . S
C1733 C1732 1.391 . S
C1734 H1724 0.950 . S
C1734 C1735 1.386 . S
C1734 C1736 1.391 . S
C1735 C1734 1.386 . S
C1735 C1739 1.393 1_545 S
C1736 H1725 0.950 . S
C1736 C1734 1.391 . S
C1736 C1737 1.400 . S
C1737 C1731 1.491 1_556 S
C1737 C1736 1.400 . S
C1737 C1738 1.398 1_545 S
C1738 H1726 0.950 . S
C1738 C1737 1.398 1_565 S
C1738 C1739 1.391 . S
C1739 H1727 0.950 . S
C1739 C1735 1.393 1_565 S
C1739 C1738 1.391 . S
H1740 C1748 0.950 . S
H1741 C1753 0.950 . S
H1742 C1750 0.950 . S
H1743 C1752 0.950 . S
H1744 C1754 0.950 . S
H1745 C1756 0.950 . S
H1746 C1758 0.950 . S
H1747 C1759 0.950 . S
C1748 H1740 0.950 . S
C1748 C1749 1.386 . S
C1748 C1750 1.391 . S
C1749 C1748 1.386 . S
C1749 C1753 1.393 . S
C1750 H1742 0.950 . S
C1750 C1748 1.391 . S
C1750 C1751 1.400 . S
C1751 C1750 1.400 . S
C1751 C1752 1.398 . S
C1751 C1757 1.491 . S
C1752 H1743 0.950 . S
C1752 C1751 1.398 . S
C1752 C1753 1.391 . S
C1753 H1741 0.950 . S
C1753 C1749 1.393 . S
C1753 C1752 1.391 . S
C1754 H1744 0.950 . S
C1754 C1755 1.386 . S
C1754 C1756 1.391 . S
C1755 C1754 1.386 . S
C1755 C1759 1.393 . S
C1756 H1745 0.950 . S
C1756 C1754 1.391 . S
C1756 C1757 1.400 . S
C1757 C1751 1.491 . S
C1757 C1756 1.400 . S
C1757 C1758 1.398 . S
C1758 H1746 0.950 . S
C1758 C1757 1.398 . S
C1758 C1759 1.391 . S
C1759 H1747 0.950 . S
C1759 C1755 1.393 . S
C1759 C1758 1.391 . S
H1760 C1768 0.950 . S
H1761 C1773 0.950 . S
H1762 C1770 0.950 . S
H1763 C1772 0.950 . S
H1764 C1774 0.950 . S
H1765 C1776 0.950 . S
H1766 C1778 0.950 . S
H1767 C1779 0.950 . S
C1768 H1760 0.950 . S
C1768 C1769 1.386 . S
C1768 C1770 1.391 . S
C1769 C1768 1.386 . S
C1769 C1773 1.393 . S
C1770 H1762 0.950 . S
C1770 C1768 1.391 . S
C1770 C1771 1.400 . S
C1771 C1770 1.400 . S
C1771 C1772 1.398 . S
C1771 C1777 1.491 1_554 S
C1772 H1763 0.950 . S
C1772 C1771 1.398 . S
C1772 C1773 1.391 . S
C1773 H1761 0.950 . S
C1773 C1769 1.393 . S
C1773 C1772 1.391 . S
C1774 H1764 0.950 . S
C1774 C1775 1.386 . S
C1774 C1776 1.391 . S
C1775 C1774 1.386 . S
C1775 C1779 1.393 . S
C1776 H1765 0.950 . S
C1776 C1774 1.391 . S
C1776 C1777 1.400 . S
C1777 C1771 1.491 1_556 S
C1777 C1776 1.400 . S
C1777 C1778 1.398 . S
C1778 H1766 0.950 . S
C1778 C1777 1.398 . S
C1778 C1779 1.391 . S
C1779 H1767 0.950 . S
C1779 C1775 1.393 . S
C1779 C1778 1.391 . S
H1780 C1788 0.950 . S
H1781 C1793 0.950 . S
H1782 C1790 0.950 . S
H1783 C1792 0.950 . S
H1784 C1794 0.950 . S
H1785 C1796 0.950 . S
H1786 C1798 0.950 . S
H1787 C1799 0.950 . S
C1788 H1780 0.950 . S
C1788 C1789 1.386 . S
C1788 C1790 1.391 . S
C1789 C1788 1.386 . S
C1789 C1793 1.393 1_545 S
C1790 H1782 0.950 . S
C1790 C1788 1.391 . S
C1790 C1791 1.400 . S
C1791 C1790 1.400 . S
C1791 C1792 1.398 1_545 S
C1791 C1797 1.491 1_545 S
C1792 H1783 0.950 . S
C1792 C1791 1.398 1_565 S
C1792 C1793 1.391 . S
C1793 H1781 0.950 . S
C1793 C1789 1.393 1_565 S
C1793 C1792 1.391 . S
C1794 H1784 0.950 . S
C1794 C1795 1.386 . S
C1794 C1796 1.391 . S
C1795 C1794 1.386 . S
C1795 C1799 1.393 1_565 S
C1796 H1785 0.950 . S
C1796 C1794 1.391 . S
C1796 C1797 1.400 . S
C1797 C1791 1.491 1_565 S
C1797 C1796 1.400 . S
C1797 C1798 1.398 1_565 S
C1798 H1786 0.950 . S
C1798 C1797 1.398 1_545 S
C1798 C1799 1.391 . S
C1799 H1787 0.950 . S
C1799 C1795 1.393 1_545 S
C1799 C1798 1.391 . S
H1800 C1808 0.950 . S
H1801 C1813 0.950 . S
H1802 C1810 0.950 . S
H1803 C1812 0.950 . S
H1804 C1814 0.950 . S
H1805 C1816 0.950 . S
H1806 C1818 0.950 . S
H1807 C1819 0.950 . S
C1808 H1800 0.950 . S
C1808 C1809 1.386 1_554 S
C1808 C1810 1.391 . S
C1809 C1808 1.386 1_556 S
C1809 C1813 1.393 . S
C1810 H1802 0.950 . S
C1810 C1808 1.391 . S
C1810 C1811 1.400 1_554 S
C1811 C1810 1.400 1_556 S
C1811 C1812 1.398 . S
C1811 C1817 1.491 . S
C1812 H1803 0.950 . S
C1812 C1811 1.398 . S
C1812 C1813 1.391 . S
C1813 H1801 0.950 . S
C1813 C1809 1.393 . S
C1813 C1812 1.391 . S
C1814 H1804 0.950 . S
C1814 C1815 1.386 . S
C1814 C1816 1.391 . S
C1815 C1814 1.386 . S
C1815 C1819 1.393 1_556 S
C1816 H1805 0.950 . S
C1816 C1814 1.391 . S
C1816 C1817 1.400 . S
C1817 C1811 1.491 . S
C1817 C1816 1.400 . S
C1817 C1818 1.398 1_556 S
C1818 H1806 0.950 . S
C1818 C1817 1.398 1_554 S
C1818 C1819 1.391 . S
C1819 H1807 0.950 . S
C1819 C1815 1.393 1_554 S
C1819 C1818 1.391 . S
H1820 C1828 0.950 . S
H1821 C1833 0.950 . S
H1822 C1830 0.950 . S
H1823 C1832 0.950 . S
H1824 C1834 0.950 . S
H1825 C1836 0.950 . S
H1826 C1838 0.950 . S
H1827 C1839 0.950 . S
C1828 H1820 0.950 . S
C1828 C1829 1.386 . S
C1828 C1830 1.391 . S
C1829 C1828 1.386 . S
C1829 C1833 1.393 . S
C1830 H1822 0.950 . S
C1830 C1828 1.391 . S
C1830 C1831 1.400 . S
C1831 C1830 1.400 . S
C1831 C1832 1.398 . S
C1831 C1837 1.491 . S
C1832 H1823 0.950 . S
C1832 C1831 1.398 . S
C1832 C1833 1.391 . S
C1833 H1821 0.950 . S
C1833 C1829 1.393 . S
C1833 C1832 1.391 . S
C1834 H1824 0.950 . S
C1834 C1835 1.386 . S
C1834 C1836 1.391 . S
C1835 C1834 1.386 . S
C1835 C1839 1.393 . S
C1836 H1825 0.950 . S
C1836 C1834 1.391 . S
C1836 C1837 1.400 . S
C1837 C1831 1.491 . S
C1837 C1836 1.400 . S
C1837 C1838 1.398 . S
C1838 H1826 0.950 . S
C1838 C1837 1.398 . S
C1838 C1839 1.391 . S
C1839 H1827 0.950 . S
C1839 C1835 1.393 . S
C1839 C1838 1.391 . S
H1840 C1848 0.950 . S
H1841 C1853 0.950 . S
H1842 C1850 0.950 . S
H1843 C1852 0.950 . S
H1844 C1854 0.950 . S
H1845 C1856 0.950 . S
H1846 C1858 0.950 . S
H1847 C1859 0.950 . S
C1848 H1840 0.950 . S
C1848 C1849 1.386 . S
C1848 C1850 1.391 1_655 S
C1849 C1848 1.386 . S
C1849 C1853 1.393 . S
C1850 H1842 0.950 . S
C1850 C1848 1.391 1_455 S
C1850 C1851 1.400 1_455 S
C1851 C1850 1.400 1_655 S
C1851 C1852 1.398 . S
C1851 C1857 1.491 1_655 S
C1852 H1843 0.950 . S
C1852 C1851 1.398 . S
C1852 C1853 1.391 . S
C1853 H1841 0.950 . S
C1853 C1849 1.393 . S
C1853 C1852 1.391 . S
C1854 H1844 0.950 . S
C1854 C1855 1.386 . S
C1854 C1856 1.391 1_455 S
C1855 C1854 1.386 . S
C1855 C1859 1.393 . S
C1856 H1845 0.950 . S
C1856 C1854 1.391 1_655 S
C1856 C1857 1.400 1_655 S
C1857 C1851 1.491 1_455 S
C1857 C1856 1.400 1_455 S
C1857 C1858 1.398 . S
C1858 H1846 0.950 . S
C1858 C1857 1.398 . S
C1858 C1859 1.391 . S
C1859 H1847 0.950 . S
C1859 C1855 1.393 . S
C1859 C1858 1.391 . S
H1860 C1868 0.950 . S
H1861 C1873 0.950 . S
H1862 C1870 0.950 . S
H1863 C1872 0.950 . S
H1864 C1874 0.950 . S
H1865 C1876 0.950 . S
H1866 C1878 0.950 . S
H1867 C1879 0.950 . S
C1868 H1860 0.950 . S
C1868 C1869 1.386 . S
C1868 C1870 1.391 . S
C1869 C1868 1.386 . S
C1869 C1873 1.393 . S
C1870 H1862 0.950 . S
C1870 C1868 1.391 . S
C1870 C1871 1.400 . S
C1871 C1870 1.400 . S
C1871 C1872 1.398 . S
C1871 C1877 1.491 . S
C1872 H1863 0.950 . S
C1872 C1871 1.398 . S
C1872 C1873 1.391 . S
C1873 H1861 0.950 . S
C1873 C1869 1.393 . S
C1873 C1872 1.391 . S
C1874 H1864 0.950 . S
C1874 C1875 1.386 . S
C1874 C1876 1.391 . S
C1875 C1874 1.386 . S
C1875 C1879 1.393 . S
C1876 H1865 0.950 . S
C1876 C1874 1.391 . S
C1876 C1877 1.400 . S
C1877 C1871 1.491 . S
C1877 C1876 1.400 . S
C1877 C1878 1.398 . S
C1878 H1866 0.950 . S
C1878 C1877 1.398 . S
C1878 C1879 1.391 . S
C1879 H1867 0.950 . S
C1879 C1875 1.393 . S
C1879 C1878 1.391 . S
H1880 C1888 0.950 . S
H1881 C1893 0.950 . S
H1882 C1890 0.950 . S
H1883 C1892 0.950 . S
H1884 C1894 0.950 . S
H1885 C1896 0.950 . S
H1886 C1898 0.950 . S
H1887 C1899 0.950 . S
C1888 H1880 0.950 . S
C1888 C1889 1.386 . S
C1888 C1890 1.391 . S
C1889 C1888 1.386 . S
C1889 C1893 1.393 . S
C1890 H1882 0.950 . S
C1890 C1888 1.391 . S
C1890 C1891 1.400 . S
C1891 C1890 1.400 . S
C1891 C1892 1.398 . S
C1891 C1897 1.491 1_655 S
C1892 H1883 0.950 . S
C1892 C1891 1.398 . S
C1892 C1893 1.391 . S
C1893 H1881 0.950 . S
C1893 C1889 1.393 . S
C1893 C1892 1.391 . S
C1894 H1884 0.950 . S
C1894 C1895 1.386 . S
C1894 C1896 1.391 . S
C1895 C1894 1.386 . S
C1895 C1899 1.393 . S
C1896 H1885 0.950 . S
C1896 C1894 1.391 . S
C1896 C1897 1.400 . S
C1897 C1891 1.491 1_455 S
C1897 C1896 1.400 . S
C1897 C1898 1.398 . S
C1898 H1886 0.950 . S
C1898 C1897 1.398 . S
C1898 C1899 1.391 . S
C1899 H1887 0.950 . S
C1899 C1895 1.393 . S
C1899 C1898 1.391 . S
H1900 C1908 0.950 . S
H1901 C1913 0.950 . S
H1902 C1910 0.950 . S
H1903 C1912 0.950 1_655 S
H1904 C1914 0.950 . S
H1905 C1916 0.950 . S
H1906 C1918 0.950 1_455 S
H1907 C1919 0.950 . S
C1908 H1900 0.950 . S
C1908 C1909 1.386 . S
C1908 C1910 1.391 . S
C1909 C1908 1.386 . S
C1909 C1913 1.393 . S
C1910 H1902 0.950 . S
C1910 C1908 1.391 . S
C1910 C1911 1.400 . S
C1911 C1910 1.400 . S
C1911 C1912 1.398 . S
C1911 C1917 1.491 1_455 S
C1912 H1903 0.950 1_455 S
C1912 C1911 1.398 . S
C1912 C1913 1.391 . S
C1913 H1901 0.950 . S
C1913 C1909 1.393 . S
C1913 C1912 1.391 . S
C1914 H1904 0.950 . S
C1914 C1915 1.386 . S
C1914 C1916 1.391 . S
C1915 C1914 1.386 . S
C1915 C1919 1.393 . S
C1916 H1905 0.950 . S
C1916 C1914 1.391 . S
C1916 C1917 1.400 . S
C1917 C1911 1.491 1_655 S
C1917 C1916 1.400 . S
C1917 C1918 1.398 . S
C1918 H1906 0.950 1_655 S
C1918 C1917 1.398 . S
C1918 C1919 1.391 . S
C1919 H1907 0.950 . S
C1919 C1915 1.393 . S
C1919 C1918 1.391 . S
H1920 C1928 0.950 . S
H1921 C1933 0.950 . S
H1922 C1930 0.950 . S
H1923 C1932 0.950 . S
H1924 C1934 0.950 . S
H1925 C1936 0.950 . S
H1926 C1938 0.950 . S
H1927 C1939 0.950 . S
C1928 H1920 0.950 . S
C1928 C1929 1.386 . S
C1928 C1930 1.391 . S
C1929 C1928 1.386 . S
C1929 C1933 1.393 . S
C1930 H1922 0.950 . S
C1930 C1928 1.391 . S
C1930 C1931 1.400 . S
C1931 C1930 1.400 . S
C1931 C1932 1.398 . S
C1931 C1937 1.491 1_545 S
C1932 H1923 0.950 . S
C1932 C1931 1.398 . S
C1932 C1933 1.391 . S
C1933 H1921 0.950 . S
C1933 C1929 1.393 . S
C1933 C1932 1.391 . S
C1934 H1924 0.950 . S
C1934 C1935 1.386 . S
C1934 C1936 1.391 . S
C1935 C1934 1.386 . S
C1935 C1939 1.393 . S
C1936 H1925 0.950 . S
C1936 C1934 1.391 . S
C1936 C1937 1.400 . S
C1937 C1931 1.491 1_565 S
C1937 C1936 1.400 . S
C1937 C1938 1.398 . S
C1938 H1926 0.950 . S
C1938 C1937 1.398 . S
C1938 C1939 1.391 . S
C1939 H1927 0.950 . S
C1939 C1935 1.393 . S
C1939 C1938 1.391 . S
H1940 C1948 0.950 . S
H1941 C1953 0.950 . S
H1942 C1950 0.950 . S
H1943 C1952 0.950 . S
H1944 C1954 0.950 . S
H1945 C1956 0.950 . S
H1946 C1958 0.950 . S
H1947 C1959 0.950 . S
C1948 H1940 0.950 . S
C1948 C1949 1.386 . S
C1948 C1950 1.391 . S
C1949 C1948 1.386 . S
C1949 C1953 1.393 . S
C1950 H1942 0.950 . S
C1950 C1948 1.391 . S
C1950 C1951 1.400 . S
C1951 C1950 1.400 . S
C1951 C1952 1.398 . S
C1951 C1957 1.491 . S
C1952 H1943 0.950 . S
C1952 C1951 1.398 . S
C1952 C1953 1.391 . S
C1953 H1941 0.950 . S
C1953 C1949 1.393 . S
C1953 C1952 1.391 . S
C1954 H1944 0.950 . S
C1954 C1955 1.386 . S
C1954 C1956 1.391 . S
C1955 C1954 1.386 . S
C1955 C1959 1.393 . S
C1956 H1945 0.950 . S
C1956 C1954 1.391 . S
C1956 C1957 1.400 . S
C1957 C1951 1.491 . S
C1957 C1956 1.400 . S
C1957 C1958 1.398 . S
C1958 H1946 0.950 . S
C1958 C1957 1.398 . S
C1958 C1959 1.391 . S
C1959 H1947 0.950 . S
C1959 C1955 1.393 . S
C1959 C1958 1.391 . S
H1960 C1968 0.950 . S
H1961 C1973 0.950 . S
H1962 C1970 0.950 . S
H1963 C1972 0.950 . S
H1964 C1974 0.950 . S
H1965 C1976 0.950 . S
H1966 C1978 0.950 . S
H1967 C1979 0.950 . S
C1968 H1960 0.950 . S
C1968 C1969 1.386 . S
C1968 C1970 1.391 . S
C1969 C1968 1.386 . S
C1969 C1973 1.393 . S
C1970 H1962 0.950 . S
C1970 C1968 1.391 . S
C1970 C1971 1.400 . S
C1971 C1970 1.400 . S
C1971 C1972 1.398 . S
C1971 C1977 1.491 . S
C1972 H1963 0.950 . S
C1972 C1971 1.398 . S
C1972 C1973 1.391 . S
C1973 H1961 0.950 . S
C1973 C1969 1.393 . S
C1973 C1972 1.391 . S
C1974 H1964 0.950 . S
C1974 C1975 1.386 . S
C1974 C1976 1.391 . S
C1975 C1974 1.386 . S
C1975 C1979 1.393 . S
C1976 H1965 0.950 . S
C1976 C1974 1.391 . S
C1976 C1977 1.400 . S
C1977 C1971 1.491 . S
C1977 C1976 1.400 . S
C1977 C1978 1.398 . S
C1978 H1966 0.950 . S
C1978 C1977 1.398 . S
C1978 C1979 1.391 . S
C1979 H1967 0.950 . S
C1979 C1975 1.393 . S
C1979 C1978 1.391 . S
H1980 C1988 0.950 . S
H1981 C1993 0.950 . S
H1982 C1990 0.950 . S
H1983 C1992 0.950 . S
H1984 C1994 0.950 . S
H1985 C1996 0.950 . S
H1986 C1998 0.950 . S
H1987 C1999 0.950 . S
C1988 H1980 0.950 . S
C1988 C1989 1.386 . S
C1988 C1990 1.391 . S
C1989 C1988 1.386 . S
C1989 C1993 1.393 . S
C1990 H1982 0.950 . S
C1990 C1988 1.391 . S
C1990 C1991 1.400 . S
C1991 C1990 1.400 . S
C1991 C1992 1.398 . S
C1991 C1997 1.491 . S
C1992 H1983 0.950 . S
C1992 C1991 1.398 . S
C1992 C1993 1.391 . S
C1993 H1981 0.950 . S
C1993 C1989 1.393 . S
C1993 C1992 1.391 . S
C1994 H1984 0.950 . S
C1994 C1995 1.386 . S
C1994 C1996 1.391 . S
C1995 C1994 1.386 . S
C1995 C1999 1.393 . S
C1996 H1985 0.950 . S
C1996 C1994 1.391 . S
C1996 C1997 1.400 . S
C1997 C1991 1.491 . S
C1997 C1996 1.400 . S
C1997 C1998 1.398 . S
C1998 H1986 0.950 . S
C1998 C1997 1.398 . S
C1998 C1999 1.391 . S
C1999 H1987 0.950 . S
C1999 C1995 1.393 . S
C1999 C1998 1.391 . S
H2000 C2008 0.950 . S
H2001 C2013 0.950 . S
H2002 C2010 0.950 . S
H2003 C2012 0.950 . S
H2004 C2014 0.950 . S
H2005 C2016 0.950 . S
H2006 C2018 0.936 1_556 S
H2007 C2019 0.942 1_556 S
C2008 H2000 0.950 . S
C2008 C2009 1.386 1_556 S
C2008 C2010 1.391 . S
C2009 C2008 1.386 1_554 S
C2009 C2013 1.393 . S
C2010 H2002 0.950 . S
C2010 C2008 1.391 . S
C2010 C2011 1.400 1_556 S
C2011 C2010 1.400 1_554 S
C2011 C2012 1.398 . S
C2011 C2017 1.491 1_455 S
C2012 H2003 0.950 . S
C2012 C2011 1.398 . S
C2012 C2013 1.391 . S
C2013 H2001 0.950 . S
C2013 C2009 1.393 . S
C2013 C2012 1.391 . S
C2014 H2004 0.950 . S
C2014 C2015 1.386 . S
C2014 C2016 1.391 . S
C2015 C2014 1.386 . S
C2015 C2019 1.401 . S
C2016 H2005 0.950 . S
C2016 C2014 1.391 . S
C2016 C2017 1.400 . S
C2017 C2011 1.491 1_655 S
C2017 C2016 1.400 . S
C2017 C2018 1.413 . S
C2018 H2006 0.936 1_554 S
C2018 C2017 1.413 . S
C2018 C2019 1.391 . S
C2019 H2007 0.942 1_554 S
C2019 C2015 1.401 . S
C2019 C2018 1.391 . S
H2020 C2028 0.950 . S
H2021 C2033 0.950 . S
H2022 C2030 0.950 . S
H2023 C2032 0.950 . S
H2024 C2034 0.950 . S
H2025 C2036 0.950 . S
H2026 C2038 0.950 . S
H2027 C2039 0.950 . S
C2028 H2020 0.950 . S
C2028 C2029 1.386 . S
C2028 C2030 1.391 . S
C2029 C2028 1.386 . S
C2029 C2033 1.393 . S
C2030 H2022 0.950 . S
C2030 C2028 1.391 . S
C2030 C2031 1.400 . S
C2031 C2030 1.400 . S
C2031 C2032 1.398 . S
C2031 C2037 1.491 . S
C2032 H2023 0.950 . S
C2032 C2031 1.398 . S
C2032 C2033 1.391 . S
C2033 H2021 0.950 . S
C2033 C2029 1.393 . S
C2033 C2032 1.391 . S
C2034 H2024 0.950 . S
C2034 C2035 1.386 . S
C2034 C2036 1.391 . S
C2035 C2034 1.386 . S
C2035 C2039 1.393 . S
C2036 H2025 0.950 . S
C2036 C2034 1.391 . S
C2036 C2037 1.400 . S
C2037 C2031 1.491 . S
C2037 C2036 1.400 . S
C2037 C2038 1.398 . S
C2038 H2026 0.950 . S
C2038 C2037 1.398 . S
C2038 C2039 1.391 . S
C2039 H2027 0.950 . S
C2039 C2035 1.393 . S
C2039 C2038 1.391 . S
C609 C241 0.852 . S
C615 C38 0.856 . S
C629 C296 0.834 . S
C635 C90 0.829 . S
C649 C34 0.867 . S
C655 C344 0.863 . S
C669 C192 0.828 . S
C675 C93 0.843 . S
C689 C395 0.840 . S
C695 C144 0.832 . S
C709 C134 0.850 . S
C715 C443 0.857 . S
C729 C146 0.844 . S
C735 C490 0.853 . S
C749 C547 0.823 . S
C755 C139 0.825 . S
C769 C46 0.857 . S
C775 C197 0.859 . S
C789 C95 0.845 . S
C795 C237 0.839 . S
C809 C289 0.842 . S
C815 C47 0.833 . S
C829 C94 0.843 . S
C835 C342 0.837 . S
C849 C143 0.825 . S
C855 C195 0.837 . S
C869 C238 0.853 . S
C875 C141 0.858 . S
C889 C287 0.829 . S
C895 C142 0.837 . S
C909 C341 0.864 . S
C915 C140 0.868 . S
C929 C247 0.826 . S
C935 C191 0.825 . S
C949 C389 0.845 . S
C955 C190 0.855 . S
C969 C437 0.828 . S
C975 C242 0.822 . S
C989 C294 0.845 . S
C995 C495 0.856 . S
C1009 C397 0.849 . S
C1015 C291 0.859 . S
C1029 C545 0.857 . S
C1035 C387 0.852 . S
C1049 C438 0.838 . S
C1055 C396 0.827 . S
C1069 C542 0.841 . S
C1075 C493 0.830 . S
C1089 C491 0.820 . S
C1095 C88 0.828 . S
C1109 C40 0.840 . S
C1115 C546 0.845 . S
C1129 C84 0.854 . S
C1135 C394 0.842 . S
C1149 C43 0.866 . S
C1155 C442 0.866 . S
C1169 C345 0.846 . S
C1175 C594 0.842 . S
C1189 C584 0.850 . S
C1195 C193 0.856 . S
C1209 C240 0.819 . S
C1215 C596 0.828 . S
C1229 C297 0.866 . S
C1235 C589 0.866 . S
C1249 C447 0.867 . S
C1255 C96 0.863 . S
C1269 C45 0.866 . S
C1275 C487 0.867 . S
C1289 C539 0.866 . S
C1295 C97 0.863 . S
C1309 C392 0.836 . S
C1315 C44 0.841 . S
C1329 C593 0.864 . S
C1335 C445 0.867 . S
C1349 C591 0.866 . S
C1355 C488 0.865 . S
C1369 C537 0.853 . S
C1375 C592 0.858 . S
C1389 C391 0.836 . S
C1395 C590 0.825 . S
C1409 C497 0.838 . S
C1415 C441 0.845 . S
C1429 C339 0.864 . S
C1435 C440 0.859 . S
C1449 C187 0.842 . S
C1455 C492 0.850 . S
C1469 C544 0.841 . S
C1475 C245 0.853 . S
C1489 C347 0.865 . S
C1495 C541 0.869 . S
C1509 C295 0.846 . S
C1515 C337 0.854 . S
C1529 C346 0.857 . S
C1535 C188 0.861 . S
C1549 C292 0.840 . S
C1555 C243 0.827 . S
C1569 C138 2.638 . S
C1575 C41 2.642 . S
C1589 C87 2.640 . S
C1595 C145 2.647 . S
C1609 C42 2.648 . S
C1615 C137 2.650 . S
C1629 C89 2.635 . S
C1635 C147 2.634 . S
C1649 C189 2.649 . S
C1655 C540 2.650 . S
C1669 C246 2.634 . S
C1675 C388 2.639 . S
C1689 C434 2.634 . S
C1695 C293 2.634 . S
C1709 C334 2.641 . S
C1715 C494 2.641 . S
C1729 C184 2.651 . S
C1735 C543 2.649 . S
C1749 C384 2.646 . S
C1755 C244 2.646 . S
C1769 C290 2.645 . S
C1775 C439 2.642 . S
C1789 C338 2.650 . S
C1795 C496 2.645 . S
C1809 C340 2.651 . S
C1815 C239 2.650 . S
C1829 C484 2.651 . S
C1835 C393 2.650 . S
C1849 C446 2.650 . S
C1855 C538 2.647 . S
C1869 C288 2.636 . S
C1875 C196 2.638 . S
C1889 C489 2.641 . S
C1895 C390 2.637 . S
C1909 C534 2.635 . S
C1915 C444 2.637 . S
C1929 C588 2.638 . S
C1935 C91 2.635 . S
C1949 C37 2.650 . S
C1955 C595 2.645 . S
C1969 C92 2.636 . S
C1975 C587 2.634 . S
C1989 C597 2.637 . S
C1995 C39 2.638 . S
C2009 C234 2.647 . S
C2015 C343 2.649 . S
C2029 C194 2.647 . S
C2035 C284 2.646 . S
