# Generated by pormake.
# Topology sxe, (6)-cn, num edge types: 1
# Building blocks:
#     Node 0, Type 0, BuildingBlock: IZENUY_clean_sbu_0, # of connection points: 6
#     Node 1, Type 0, BuildingBlock: IZENUY_clean_sbu_0, # of connection points: 6
#     Node 2, Type 0, BuildingBlock: IZENUY_clean_sbu_0, # of connection points: 6
#     Node 3, Type 0, BuildingBlock: IZENUY_clean_sbu_0, # of connection points: 6
#     Node 4, Type 0, BuildingBlock: IZENUY_clean_sbu_0, # of connection points: 6
#     Node 5, Type 0, BuildingBlock: IZENUY_clean_sbu_0, # of connection points: 6
#     Node 6, Type 0, BuildingBlock: IZENUY_clean_sbu_0, # of connection points: 6
#     Node 7, Type 0, BuildingBlock: IZENUY_clean_sbu_0, # of connection points: 6
#     Node 8, Type 0, BuildingBlock: IZENUY_clean_sbu_0, # of connection points: 6
#     Node 9, Type 0, BuildingBlock: IZENUY_clean_sbu_0, # of connection points: 6
#     Node 10, Type 0, BuildingBlock: IZENUY_clean_sbu_0, # of connection points: 6
#     Node 11, Type 0, BuildingBlock: IZENUY_clean_sbu_0, # of connection points: 6
#     Node 12, Type 0, BuildingBlock: IZENUY_clean_sbu_0, # of connection points: 6
#     Node 13, Type 0, BuildingBlock: IZENUY_clean_sbu_0, # of connection points: 6
#     Node 14, Type 0, BuildingBlock: IZENUY_clean_sbu_0, # of connection points: 6
#     Node 15, Type 0, BuildingBlock: IZENUY_clean_sbu_0, # of connection points: 6
#     Node 16, Type 0, BuildingBlock: IZENUY_clean_sbu_0, # of connection points: 6
#     Node 17, Type 0, BuildingBlock: IZENUY_clean_sbu_0, # of connection points: 6
#     Node 18, Type 0, BuildingBlock: IZENUY_clean_sbu_0, # of connection points: 6
#     Node 19, Type 0, BuildingBlock: IZENUY_clean_sbu_0, # of connection points: 6
#     Node 20, Type 0, BuildingBlock: IZENUY_clean_sbu_0, # of connection points: 6
#     Node 21, Type 0, BuildingBlock: IZENUY_clean_sbu_0, # of connection points: 6
#     Node 22, Type 0, BuildingBlock: IZENUY_clean_sbu_0, # of connection points: 6
#     Node 23, Type 0, BuildingBlock: IZENUY_clean_sbu_0, # of connection points: 6
#     Edge 24, Type (0, 0), BuildingBlock: XUDNAN_clean_linker_2, # of connection points: 2
#     Edge 25, Type (0, 0), BuildingBlock: XUDNAN_clean_linker_2, # of connection points: 2
#     Edge 26, Type (0, 0), BuildingBlock: XUDNAN_clean_linker_2, # of connection points: 2
#     Edge 27, Type (0, 0), BuildingBlock: XUDNAN_clean_linker_2, # of connection points: 2
#     Edge 28, Type (0, 0), BuildingBlock: XUDNAN_clean_linker_2, # of connection points: 2
#     Edge 29, Type (0, 0), BuildingBlock: XUDNAN_clean_linker_2, # of connection points: 2
#     Edge 30, Type (0, 0), BuildingBlock: XUDNAN_clean_linker_2, # of connection points: 2
#     Edge 31, Type (0, 0), BuildingBlock: XUDNAN_clean_linker_2, # of connection points: 2
#     Edge 32, Type (0, 0), BuildingBlock: XUDNAN_clean_linker_2, # of connection points: 2
#     Edge 33, Type (0, 0), BuildingBlock: XUDNAN_clean_linker_2, # of connection points: 2
#     Edge 34, Type (0, 0), BuildingBlock: XUDNAN_clean_linker_2, # of connection points: 2
#     Edge 35, Type (0, 0), BuildingBlock: XUDNAN_clean_linker_2, # of connection points: 2
#     Edge 36, Type (0, 0), BuildingBlock: XUDNAN_clean_linker_2, # of connection points: 2
#     Edge 37, Type (0, 0), BuildingBlock: XUDNAN_clean_linker_2, # of connection points: 2
#     Edge 38, Type (0, 0), BuildingBlock: XUDNAN_clean_linker_2, # of connection points: 2
#     Edge 39, Type (0, 0), BuildingBlock: XUDNAN_clean_linker_2, # of connection points: 2
#     Edge 40, Type (0, 0), BuildingBlock: XUDNAN_clean_linker_2, # of connection points: 2
#     Edge 41, Type (0, 0), BuildingBlock: XUDNAN_clean_linker_2, # of connection points: 2
#     Edge 42, Type (0, 0), BuildingBlock: XUDNAN_clean_linker_2, # of connection points: 2
#     Edge 43, Type (0, 0), BuildingBlock: XUDNAN_clean_linker_2, # of connection points: 2
#     Edge 44, Type (0, 0), BuildingBlock: XUDNAN_clean_linker_2, # of connection points: 2
#     Edge 45, Type (0, 0), BuildingBlock: XUDNAN_clean_linker_2, # of connection points: 2
#     Edge 46, Type (0, 0), BuildingBlock: XUDNAN_clean_linker_2, # of connection points: 2
#     Edge 47, Type (0, 0), BuildingBlock: XUDNAN_clean_linker_2, # of connection points: 2
#     Edge 48, Type (0, 0), BuildingBlock: XUDNAN_clean_linker_2, # of connection points: 2
#     Edge 49, Type (0, 0), BuildingBlock: XUDNAN_clean_linker_2, # of connection points: 2
#     Edge 50, Type (0, 0), BuildingBlock: XUDNAN_clean_linker_2, # of connection points: 2
#     Edge 51, Type (0, 0), BuildingBlock: XUDNAN_clean_linker_2, # of connection points: 2
#     Edge 52, Type (0, 0), BuildingBlock: XUDNAN_clean_linker_2, # of connection points: 2
#     Edge 53, Type (0, 0), BuildingBlock: XUDNAN_clean_linker_2, # of connection points: 2
#     Edge 54, Type (0, 0), BuildingBlock: XUDNAN_clean_linker_2, # of connection points: 2
#     Edge 55, Type (0, 0), BuildingBlock: XUDNAN_clean_linker_2, # of connection points: 2
#     Edge 56, Type (0, 0), BuildingBlock: XUDNAN_clean_linker_2, # of connection points: 2
#     Edge 57, Type (0, 0), BuildingBlock: XUDNAN_clean_linker_2, # of connection points: 2
#     Edge 58, Type (0, 0), BuildingBlock: XUDNAN_clean_linker_2, # of connection points: 2
#     Edge 59, Type (0, 0), BuildingBlock: XUDNAN_clean_linker_2, # of connection points: 2
#     Edge 60, Type (0, 0), BuildingBlock: XUDNAN_clean_linker_2, # of connection points: 2
#     Edge 61, Type (0, 0), BuildingBlock: XUDNAN_clean_linker_2, # of connection points: 2
#     Edge 62, Type (0, 0), BuildingBlock: XUDNAN_clean_linker_2, # of connection points: 2
#     Edge 63, Type (0, 0), BuildingBlock: XUDNAN_clean_linker_2, # of connection points: 2
#     Edge 64, Type (0, 0), BuildingBlock: XUDNAN_clean_linker_2, # of connection points: 2
#     Edge 65, Type (0, 0), BuildingBlock: XUDNAN_clean_linker_2, # of connection points: 2
#     Edge 66, Type (0, 0), BuildingBlock: XUDNAN_clean_linker_2, # of connection points: 2
#     Edge 67, Type (0, 0), BuildingBlock: XUDNAN_clean_linker_2, # of connection points: 2
#     Edge 68, Type (0, 0), BuildingBlock: XUDNAN_clean_linker_2, # of connection points: 2
#     Edge 69, Type (0, 0), BuildingBlock: XUDNAN_clean_linker_2, # of connection points: 2
#     Edge 70, Type (0, 0), BuildingBlock: XUDNAN_clean_linker_2, # of connection points: 2
#     Edge 71, Type (0, 0), BuildingBlock: XUDNAN_clean_linker_2, # of connection points: 2
#     Edge 72, Type (0, 0), BuildingBlock: XUDNAN_clean_linker_2, # of connection points: 2
#     Edge 73, Type (0, 0), BuildingBlock: XUDNAN_clean_linker_2, # of connection points: 2
#     Edge 74, Type (0, 0), BuildingBlock: XUDNAN_clean_linker_2, # of connection points: 2
#     Edge 75, Type (0, 0), BuildingBlock: XUDNAN_clean_linker_2, # of connection points: 2
#     Edge 76, Type (0, 0), BuildingBlock: XUDNAN_clean_linker_2, # of connection points: 2
#     Edge 77, Type (0, 0), BuildingBlock: XUDNAN_clean_linker_2, # of connection points: 2
#     Edge 78, Type (0, 0), BuildingBlock: XUDNAN_clean_linker_2, # of connection points: 2
#     Edge 79, Type (0, 0), BuildingBlock: XUDNAN_clean_linker_2, # of connection points: 2
#     Edge 80, Type (0, 0), BuildingBlock: XUDNAN_clean_linker_2, # of connection points: 2
#     Edge 81, Type (0, 0), BuildingBlock: XUDNAN_clean_linker_2, # of connection points: 2
#     Edge 82, Type (0, 0), BuildingBlock: XUDNAN_clean_linker_2, # of connection points: 2
#     Edge 83, Type (0, 0), BuildingBlock: XUDNAN_clean_linker_2, # of connection points: 2
#     Edge 84, Type (0, 0), BuildingBlock: XUDNAN_clean_linker_2, # of connection points: 2
#     Edge 85, Type (0, 0), BuildingBlock: XUDNAN_clean_linker_2, # of connection points: 2
#     Edge 86, Type (0, 0), BuildingBlock: XUDNAN_clean_linker_2, # of connection points: 2
#     Edge 87, Type (0, 0), BuildingBlock: XUDNAN_clean_linker_2, # of connection points: 2
#     Edge 88, Type (0, 0), BuildingBlock: XUDNAN_clean_linker_2, # of connection points: 2
#     Edge 89, Type (0, 0), BuildingBlock: XUDNAN_clean_linker_2, # of connection points: 2
#     Edge 90, Type (0, 0), BuildingBlock: XUDNAN_clean_linker_2, # of connection points: 2
#     Edge 91, Type (0, 0), BuildingBlock: XUDNAN_clean_linker_2, # of connection points: 2
#     Edge 92, Type (0, 0), BuildingBlock: XUDNAN_clean_linker_2, # of connection points: 2
#     Edge 93, Type (0, 0), BuildingBlock: XUDNAN_clean_linker_2, # of connection points: 2
#     Edge 94, Type (0, 0), BuildingBlock: XUDNAN_clean_linker_2, # of connection points: 2
#     Edge 95, Type (0, 0), BuildingBlock: XUDNAN_clean_linker_2, # of connection points: 2
# Relax obj value: 0.307
# Max RMSD: 0.231
# Mean RMSD: 0.230
data_MOF--net-sxe--node1-IZENUY_clean_sbu_0--edge1-XUDNAN_clean_linker_2
_symmetry_space_group_name_H-M    P1
_symmetry_Int_Tables_number       1
_symmetry_cell_setting            triclinic
loop_
_symmetry_equiv_pos_as_xyz
'x, y, z'
_cell_length_a     47.40169
_cell_length_b     47.489965
_cell_length_c     47.43552
_cell_angle_alpha  90.011353
_cell_angle_beta   89.921397
_cell_angle_gamma 89.95867
loop_
_atom_site_label
_atom_site_type_symbol
_atom_site_fract_x
_atom_site_fract_y
_atom_site_fract_z
_atom_type_partial_charge
Fe0 Fe 0.15675 0.44627 0.26226 0.0
Fe1 Fe 0.18074 0.39951 0.22476 0.0
O2 O 0.18061 0.43505 0.23559 0.0
Fe3 Fe 0.20473 0.45879 0.21953 0.0
O4 O 0.20997 0.48085 0.25115 0.0
O5 O 0.18507 0.45953 0.28385 0.0
O6 O 0.16002 0.41345 0.28278 0.0
C7 C 0.17883 0.39434 0.282 0.0
C8 C 0.15613 0.49056 0.22158 0.0
O9 O 0.19159 0.38839 0.25939 0.0
C10 C 0.18465 0.42536 0.17412 0.0
O11 O 0.12567 0.43343 0.24355 0.0
O12 O 0.1439 0.39248 0.23286 0.0
O13 O 0.17626 0.48065 0.20731 0.0
O14 O 0.15018 0.48105 0.24594 0.0
C15 C 0.23871 0.41288 0.22282 0.0
O16 O 0.16993 0.40949 0.1896 0.0
O17 O 0.20338 0.4413 0.18471 0.0
C18 C 0.12276 0.40827 0.23561 0.0
O19 O 0.21778 0.39876 0.21453 0.0
O20 O 0.23542 0.43813 0.23047 0.0
C21 C 0.20422 0.47642 0.27685 0.0
Fe22 Fe 0.34675 0.56165 0.76796 0.0
Fe23 Fe 0.31921 0.60695 0.73117 0.0
O24 O 0.32226 0.57121 0.7413 0.0
Fe25 Fe 0.30074 0.54512 0.72519 0.0
O26 O 0.28546 0.53481 0.75894 0.0
O27 O 0.32574 0.5324 0.78174 0.0
O28 O 0.32906 0.58381 0.79379 0.0
C29 C 0.32375 0.60961 0.79034 0.0
C30 C 0.35427 0.51853 0.73057 0.0
O31 O 0.3264 0.62096 0.76636 0.0
C32 C 0.31375 0.57766 0.67912 0.0
O33 O 0.3724 0.58942 0.75958 0.0
O34 O 0.35607 0.60887 0.72104 0.0
O35 O 0.32773 0.51751 0.72731 0.0
O36 O 0.36567 0.53865 0.74378 0.0
C37 C 0.26355 0.59173 0.731 0.0
O38 O 0.31115 0.59947 0.69422 0.0
O39 O 0.31406 0.55341 0.6901 0.0
C40 C 0.37613 0.60449 0.73789 0.0
O41 O 0.28228 0.60785 0.74066 0.0
O42 O 0.27005 0.56825 0.72014 0.0
C43 C 0.29957 0.52758 0.7803 0.0
Fe44 Fe 0.70957 0.04262 0.78429 0.0
Fe45 Fe 0.66458 0.05211 0.73882 0.0
O46 O 0.68653 0.06578 0.76604 0.0
Fe47 Fe 0.68535 0.10223 0.77419 0.0
O48 O 0.72286 0.10666 0.76858 0.0
O49 O 0.7382 0.06799 0.78883 0.0
O50 O 0.72684 0.03178 0.75157 0.0
C51 C 0.71411 0.02096 0.73092 0.0
C52 C 0.69111 0.07615 0.8282 0.0
O53 O 0.68766 0.02284 0.72928 0.0
C54 C 0.63023 0.09659 0.76064 0.0
O55 O 0.68452 0.01327 0.78345 0.0
O56 O 0.64563 0.03022 0.76413 0.0
O57 O 0.69022 0.09749 0.81221 0.0
O58 O 0.69476 0.05168 0.8184 0.0
C59 C 0.68551 0.10004 0.71426 0.0
O60 O 0.63705 0.07881 0.74207 0.0
O61 O 0.64728 0.10176 0.78032 0.0
C62 C 0.6579 0.01303 0.7805 0.0
O63 O 0.68277 0.07353 0.7123 0.0
O64 O 0.68105 0.11273 0.7374 0.0
C65 C 0.74263 0.0922 0.77878 0.0
Fe66 Fe 0.84055 0.9465 0.23575 0.0
Fe67 Fe 0.8188 0.89744 0.27209 0.0
O68 O 0.81765 0.9335 0.26256 0.0
Fe69 Fe 0.79343 0.95648 0.27947 0.0
O70 O 0.77636 0.96524 0.24617 0.0
O71 O 0.81571 0.97292 0.22266 0.0
O72 O 0.82543 0.92271 0.20985 0.0
C73 C 0.82364 0.89639 0.21265 0.0
C74 C 0.84242 0.99077 0.27208 0.0
O75 O 0.82712 0.88491 0.23648 0.0
C76 C 0.81122 0.92521 0.32473 0.0
O77 O 0.86961 0.92179 0.24341 0.0
O78 O 0.85573 0.89969 0.28153 0.0
O79 O 0.81639 0.98713 0.27686 0.0
O80 O 0.85681 0.97201 0.25967 0.0
C81 C 0.76173 0.90617 0.27377 0.0
O82 O 0.8106 0.90343 0.30937 0.0
O83 O 0.80859 0.94948 0.31406 0.0
C84 C 0.87498 0.90616 0.26439 0.0
O85 O 0.7819 0.89224 0.26343 0.0
O86 O 0.76593 0.92996 0.28494 0.0
C87 C 0.78918 0.97456 0.22476 0.0
Fe88 Fe 0.21595 0.20722 0.46016 0.0
Fe89 Fe 0.26308 0.16457 0.44735 0.0
O90 O 0.23489 0.18623 0.43565 0.0
Fe91 Fe 0.226 0.18686 0.39948 0.0
O92 O 0.23235 0.22429 0.39726 0.0
O93 O 0.20938 0.23633 0.43566 0.0
O94 O 0.2478 0.22559 0.471 0.0
C95 C 0.26938 0.21362 0.4809 0.0
C96 C 0.17241 0.18938 0.42664 0.0
O97 O 0.27339 0.18757 0.47678 0.0
C98 C 0.23773 0.1311 0.40448 0.0
O99 O 0.21902 0.18162 0.48887 0.0
O100 O 0.23929 0.1445 0.46968 0.0
O101 O 0.1881 0.19211 0.4052 0.0
O102 O 0.18255 0.19073 0.4512 0.0
C103 C 0.28559 0.18725 0.39941 0.0
O104 O 0.25848 0.13743 0.42003 0.0
O105 O 0.21915 0.14926 0.39894 0.0
C106 C 0.22384 0.15536 0.48853 0.0
O107 O 0.28835 0.1836 0.42565 0.0
O108 O 0.26236 0.18218 0.38727 0.0
C109 C 0.22072 0.24275 0.41239 0.0
Fe110 Fe 0.27595 0.82246 0.90128 0.0
Fe111 Fe 0.28449 0.80204 0.9624 0.0
O112 O 0.26754 0.82438 0.9376 0.0
Fe113 Fe 0.24145 0.8486 0.94917 0.0
O114 O 0.21461 0.83103 0.92834 0.0
O115 O 0.23975 0.82989 0.8893 0.0
O116 O 0.26679 0.78556 0.89958 0.0
C117 C 0.27708 0.76635 0.91472 0.0
C118 C 0.26868 0.87898 0.90511 0.0
O119 O 0.28831 0.77197 0.93827 0.0
C120 C 0.2809 0.85513 0.99039 0.0
O121 O 0.3134 0.81435 0.90685 0.0
O122 O 0.31936 0.81508 0.95293 0.0
O123 O 0.24785 0.87472 0.92126 0.0
O124 O 0.28579 0.85934 0.89998 0.0
C125 C 0.23007 0.80095 0.98203 0.0
O126 O 0.28382 0.82851 0.99083 0.0
O127 O 0.26697 0.86702 0.97099 0.0
C128 C 0.3294 0.81543 0.9282 0.0
O129 O 0.25093 0.78679 0.97354 0.0
O130 O 0.22943 0.82732 0.97891 0.0
C131 C 0.21648 0.8269 0.90216 0.0
Fe132 Fe 0.7173 0.29565 0.54522 0.0
Fe133 Fe 0.76428 0.33937 0.55645 0.0
O134 O 0.73644 0.31751 0.56872 0.0
Fe135 Fe 0.72732 0.31738 0.6049 0.0
O136 O 0.71489 0.28092 0.6053 0.0
O137 O 0.72717 0.26376 0.56427 0.0
O138 O 0.74712 0.28878 0.52147 0.0
C139 C 0.77345 0.29225 0.52406 0.0
C140 C 0.67501 0.31736 0.58172 0.0
O141 O 0.78328 0.31 0.54112 0.0
C142 C 0.74221 0.37463 0.59644 0.0
O143 O 0.70612 0.32573 0.52478 0.0
O144 O 0.74703 0.3478 0.52261 0.0
O145 O 0.69222 0.3306 0.59713 0.0
O146 O 0.68366 0.29876 0.56455 0.0
C147 C 0.78485 0.31563 0.60764 0.0
O148 O 0.74806 0.37114 0.57074 0.0
O149 O 0.73822 0.3536 0.61218 0.0
C150 C 0.72184 0.34436 0.51417 0.0
O151 O 0.78609 0.33409 0.58824 0.0
O152 O 0.76175 0.30414 0.61425 0.0
C153 C 0.72091 0.26007 0.58984 0.0
Fe154 Fe 0.78432 0.70152 0.04394 0.0
Fe155 Fe 0.74085 0.65561 0.05928 0.0
O156 O 0.76834 0.67895 0.06913 0.0
Fe157 Fe 0.77994 0.67995 0.10457 0.0
O158 O 0.79042 0.71671 0.10382 0.0
O159 O 0.7747 0.73326 0.06374 0.0
O160 O 0.75222 0.70663 0.02256 0.0
C161 C 0.72644 0.70193 0.02784 0.0
C162 C 0.83046 0.68273 0.07767 0.0
O163 O 0.71933 0.68409 0.04609 0.0
C164 C 0.76741 0.62199 0.09743 0.0
O165 O 0.79537 0.67187 0.02276 0.0
O166 O 0.75555 0.64796 0.02389 0.0
O167 O 0.81526 0.66881 0.09459 0.0
O168 O 0.81939 0.69999 0.06046 0.0
C169 C 0.72275 0.6785 0.11179 0.0
O170 O 0.7599 0.62484 0.0721 0.0
O171 O 0.77147 0.64338 0.11263 0.0
C172 C 0.77982 0.65248 0.01344 0.0
O173 O 0.72134 0.65968 0.09278 0.0
O174 O 0.74552 0.69149 0.11643 0.0
C175 C 0.78274 0.73724 0.08882 0.0
Fe176 Fe 0.46005 0.22114 0.20717 0.0
Fe177 Fe 0.44672 0.26489 0.16112 0.0
O178 O 0.43541 0.23803 0.18454 0.0
Fe179 Fe 0.39938 0.22846 0.18531 0.0
O180 O 0.39638 0.23736 0.22221 0.0
O181 O 0.43508 0.21624 0.23653 0.0
O182 O 0.46994 0.25431 0.22346 0.0
C183 C 0.4782 0.27572 0.21015 0.0
C184 C 0.4276 0.17586 0.19209 0.0
O185 O 0.47517 0.2776 0.18379 0.0
C186 C 0.40478 0.23639 0.12892 0.0
O187 O 0.4893 0.22307 0.18165 0.0
O188 O 0.47014 0.24049 0.14306 0.0
O189 O 0.40587 0.1913 0.19341 0.0
O190 O 0.452 0.1865 0.19292 0.0
C191 C 0.39779 0.28788 0.18112 0.0
O192 O 0.42005 0.25768 0.13392 0.0
O193 O 0.39959 0.21893 0.14825 0.0
C194 C 0.48944 0.22657 0.15512 0.0
O195 O 0.42408 0.29083 0.17817 0.0
O196 O 0.38634 0.26403 0.17771 0.0
C197 C 0.4113 0.22732 0.24174 0.0
Fe198 Fe 0.9615 0.2852 0.79848 0.0
Fe199 Fe 0.94743 0.24113 0.84413 0.0
O200 O 0.9364 0.26805 0.82055 0.0
Fe201 Fe 0.90025 0.27732 0.81906 0.0
O202 O 0.89828 0.26909 0.78192 0.0
O203 O 0.9373 0.29027 0.7687 0.0
O204 O 0.97223 0.25189 0.78227 0.0
C205 C 0.98045 0.23053 0.79586 0.0
C206 C 0.9281 0.33002 0.81429 0.0
O207 O 0.97663 0.22879 0.82214 0.0
C208 C 0.90431 0.26874 0.87563 0.0
O209 O 0.98996 0.28332 0.82459 0.0
O210 O 0.97016 0.26569 0.86281 0.0
O211 O 0.90651 0.31461 0.81209 0.0
O212 O 0.95274 0.31992 0.81267 0.0
C213 C 0.8994 0.21805 0.82196 0.0
O214 O 0.92005 0.24776 0.87079 0.0
O215 O 0.89916 0.28619 0.8563 0.0
C216 C 0.98952 0.27988 0.85111 0.0
O217 O 0.92548 0.21507 0.82648 0.0
O218 O 0.88749 0.24162 0.82555 0.0
C219 C 0.91366 0.27937 0.76287 0.0
Fe220 Fe 0.60486 0.72271 0.32391 0.0
Fe221 Fe 0.54429 0.71433 0.30268 0.0
O222 O 0.56874 0.73212 0.3246 0.0
Fe223 Fe 0.55714 0.75983 0.34707 0.0
O224 O 0.57955 0.78511 0.32871 0.0
O225 O 0.61753 0.75854 0.32987 0.0
O226 O 0.60782 0.73001 0.28658 0.0
C227 C 0.59304 0.71871 0.26767 0.0
C228 C 0.59972 0.73295 0.37999 0.0
O229 O 0.5692 0.70815 0.27352 0.0
C230 C 0.51525 0.7209 0.35463 0.0
O231 O 0.59861 0.68525 0.31744 0.0
O232 O 0.55244 0.68039 0.31831 0.0
O233 O 0.5842 0.75395 0.37436 0.0
O234 O 0.60479 0.71476 0.36129 0.0
C235 C 0.52462 0.7683 0.29784 0.0
O236 O 0.51528 0.7169 0.32819 0.0
O237 O 0.53378 0.73611 0.36636 0.0
C238 C 0.57687 0.67011 0.32011 0.0
O239 O 0.53425 0.74696 0.28523 0.0
O240 O 0.5282 0.77121 0.32411 0.0
C241 C 0.60575 0.78191 0.32483 0.0
Fe242 Fe 0.04704 0.78754 0.71111 0.0
Fe243 Fe 0.05806 0.74041 0.66748 0.0
O244 O 0.07045 0.76785 0.68964 0.0
Fe245 Fe 0.10688 0.77602 0.69053 0.0
O246 O 0.10691 0.78934 0.72684 0.0
O247 O 0.06549 0.77735 0.74326 0.0
O248 O 0.02254 0.75838 0.71797 0.0
C249 C 0.02446 0.73207 0.7142 0.0
C250 C 0.08469 0.82849 0.68904 0.0
O251 O 0.04141 0.72194 0.69643 0.0
C252 C 0.09969 0.7608 0.63324 0.0
O253 O 0.02713 0.79905 0.68086 0.0
O254 O 0.02485 0.75859 0.65807 0.0
O255 O 0.10021 0.81091 0.67643 0.0
O256 O 0.06729 0.82052 0.70779 0.0
C257 C 0.10801 0.71868 0.69305 0.0
O258 O 0.07367 0.75613 0.63602 0.0
O259 O 0.11492 0.76415 0.65474 0.0
C260 C 0.01664 0.78381 0.66179 0.0
O261 O 0.08921 0.71779 0.67388 0.0
O262 O 0.11483 0.74167 0.70459 0.0
C263 C 0.09096 0.78365 0.74741 0.0
Fe264 Fe 0.82042 0.60458 0.77066 0.0
Fe265 Fe 0.84635 0.55575 0.73737 0.0
O266 O 0.82149 0.56822 0.76257 0.0
Fe267 Fe 0.79753 0.54462 0.77916 0.0
O268 O 0.76812 0.5702 0.78141 0.0
O269 O 0.78435 0.60732 0.75885 0.0
O270 O 0.83078 0.61626 0.73529 0.0
C271 C 0.82864 0.6041 0.71166 0.0
C272 C 0.81075 0.57878 0.82375 0.0
O273 O 0.83112 0.57773 0.70978 0.0
C274 C 0.84961 0.5145 0.77764 0.0
O275 O 0.85667 0.60432 0.78272 0.0
O276 O 0.87345 0.58243 0.74562 0.0
O277 O 0.80998 0.55403 0.81419 0.0
O278 O 0.80967 0.59989 0.80757 0.0
C279 C 0.79759 0.52414 0.72489 0.0
O280 O 0.8628 0.53259 0.76314 0.0
O281 O 0.82292 0.51531 0.78011 0.0
C282 C 0.87708 0.59854 0.76666 0.0
O283 O 0.82404 0.52725 0.72423 0.0
O284 O 0.78312 0.53323 0.74534 0.0
C285 C 0.76403 0.59315 0.76834 0.0
Fe286 Fe 0.70511 0.45735 0.28265 0.0
Fe287 Fe 0.68582 0.39642 0.27528 0.0
O288 O 0.68333 0.43226 0.26572 0.0
Fe289 Fe 0.65925 0.44266 0.23924 0.0
O290 O 0.68719 0.4569 0.2179 0.0
O291 O 0.70894 0.48034 0.25134 0.0
O292 O 0.73701 0.43954 0.27104 0.0
C293 C 0.74239 0.4144 0.27751 0.0
C294 C 0.65502 0.48596 0.28028 0.0
O295 O 0.72305 0.39797 0.28556 0.0
C296 C 0.62726 0.40289 0.26502 0.0
O297 O 0.70498 0.43873 0.31701 0.0
O298 O 0.67433 0.4044 0.31076 0.0
O299 O 0.65132 0.47714 0.25532 0.0
O300 O 0.67475 0.47657 0.29536 0.0
C301 C 0.68397 0.39302 0.21802 0.0
O302 O 0.64913 0.38773 0.2668 0.0
O303 O 0.62937 0.42857 0.25866 0.0
C304 C 0.68759 0.42087 0.32688 0.0
O305 O 0.69748 0.38707 0.24013 0.0
O306 O 0.66349 0.41019 0.21842 0.0
C307 C 0.70512 0.47485 0.22542 0.0
Fe308 Fe 0.3025 0.95921 0.22417 0.0
Fe309 Fe 0.32165 0.89827 0.23359 0.0
O310 O 0.32313 0.93429 0.24281 0.0
Fe311 Fe 0.34511 0.94527 0.27102 0.0
O312 O 0.32239 0.97477 0.28196 0.0
O313 O 0.28434 0.96992 0.25614 0.0
O314 O 0.27283 0.93514 0.21755 0.0
C315 C 0.26593 0.91203 0.22898 0.0
C316 C 0.35484 0.9873 0.23285 0.0
O317 O 0.2842 0.89668 0.24059 0.0
C318 C 0.37769 0.90229 0.24436 0.0
O319 O 0.31889 0.95026 0.19064 0.0
O320 O 0.31582 0.90442 0.19588 0.0
O321 O 0.3655 0.96787 0.24765 0.0
O322 O 0.32861 0.98763 0.22748 0.0
C323 C 0.32199 0.89733 0.29314 0.0
O324 O 0.35912 0.89729 0.22605 0.0
O325 O 0.37193 0.91763 0.2655 0.0
C326 C 0.3192 0.92577 0.18027 0.0
O327 O 0.32682 0.88551 0.26968 0.0
O328 O 0.32586 0.92347 0.29613 0.0
C329 C 0.29636 0.97928 0.27789 0.0
Fe330 Fe 0.18747 0.10706 0.72754 0.0
Fe331 Fe 0.1644 0.05907 0.76462 0.0
O332 O 0.18647 0.07087 0.73667 0.0
Fe333 Fe 0.20786 0.0468 0.71754 0.0
O334 O 0.24019 0.06501 0.72748 0.0
O335 O 0.22412 0.10661 0.71563 0.0
O336 O 0.20053 0.11608 0.76203 0.0
C337 C 0.18916 0.10953 0.78519 0.0
C338 C 0.18693 0.08326 0.67538 0.0
O339 O 0.17039 0.0905 0.78661 0.0
C340 C 0.15844 0.01718 0.722 0.0
O341 O 0.15125 0.11507 0.73815 0.0
O342 O 0.13276 0.0742 0.74874 0.0
O343 O 0.20525 0.06601 0.68424 0.0
O344 O 0.17456 0.09985 0.69218 0.0
C345 C 0.21118 0.0258 0.77342 0.0
O346 O 0.15531 0.02557 0.74723 0.0
O347 O 0.1773 0.02722 0.70621 0.0
C348 C 0.12986 0.09992 0.74265 0.0
O349 O 0.19364 0.04307 0.78338 0.0
O350 O 0.2142 0.02288 0.74712 0.0
C351 C 0.2444 0.09074 0.72247 0.0
Fe352 Fe 0.77979 0.81907 0.60404 0.0
Fe353 Fe 0.7411 0.84155 0.55727 0.0
O354 O 0.76997 0.82002 0.56798 0.0
Fe355 Fe 0.78921 0.79928 0.54317 0.0
O356 O 0.78158 0.76652 0.56201 0.0
O357 O 0.79312 0.78313 0.60341 0.0
O358 O 0.74569 0.80498 0.6141 0.0
C359 C 0.72221 0.81618 0.60822 0.0
C360 C 0.83176 0.8209 0.57982 0.0
O361 O 0.72026 0.83497 0.5893 0.0
C362 C 0.78157 0.84873 0.51334 0.0
O363 O 0.76869 0.85477 0.61238 0.0
O364 O 0.75671 0.87346 0.57196 0.0
O365 O 0.8234 0.80336 0.56142 0.0
O366 O 0.81441 0.83312 0.59592 0.0
C367 C 0.73243 0.79439 0.52427 0.0
O368 O 0.75701 0.85149 0.52353 0.0
O369 O 0.79836 0.82998 0.5221 0.0
C370 C 0.76492 0.87605 0.59707 0.0
O371 O 0.7226 0.81202 0.54156 0.0
O372 O 0.75874 0.79149 0.52075 0.0
C373 C 0.78847 0.76249 0.58737 0.0
Fe374 Fe 0.72822 0.18662 0.10487 0.0
Fe375 Fe 0.76744 0.16332 0.05879 0.0
O376 O 0.73824 0.18467 0.0688 0.0
Fe377 Fe 0.7192 0.20447 0.04337 0.0
O378 O 0.72637 0.23764 0.0615 0.0
O379 O 0.71404 0.22217 0.10316 0.0
O380 O 0.76205 0.20196 0.11396 0.0
C381 C 0.78564 0.19088 0.1085 0.0
C382 C 0.67648 0.18323 0.08034 0.0
O383 O 0.78786 0.17073 0.09107 0.0
C384 C 0.72763 0.15474 0.01463 0.0
O385 O 0.74037 0.15124 0.11429 0.0
O386 O 0.75151 0.13192 0.07395 0.0
O387 O 0.68508 0.19998 0.0613 0.0
O388 O 0.69355 0.17203 0.09755 0.0
C389 C 0.77605 0.20983 0.02486 0.0
O390 O 0.75214 0.15243 0.025 0.0
O391 O 0.71059 0.17336 0.02302 0.0
C392 C 0.74467 0.12956 0.09951 0.0
O393 O 0.78599 0.19267 0.04256 0.0
O394 O 0.74976 0.21216 0.02107 0.0
C395 C 0.71899 0.24226 0.0866 0.0
Fe396 Fe 0.28293 0.70251 0.46235 0.0
Fe397 Fe 0.2772 0.68287 0.40098 0.0
O398 O 0.26578 0.68132 0.43651 0.0
Fe399 Fe 0.23734 0.65893 0.44566 0.0
O400 O 0.21726 0.68778 0.46022 0.0
O401 O 0.25107 0.70847 0.48412 0.0
O402 O 0.27432 0.73499 0.44347 0.0
C403 C 0.28116 0.73936 0.41811 0.0
C404 C 0.27616 0.65258 0.49117 0.0
O405 O 0.28932 0.71925 0.40275 0.0
C406 C 0.26206 0.6253 0.40613 0.0
O407 O 0.3181 0.70004 0.44524 0.0
O408 O 0.31167 0.66959 0.41074 0.0
O409 O 0.25206 0.64921 0.4801 0.0
O410 O 0.29262 0.67194 0.48319 0.0
C411 C 0.21995 0.68469 0.39456 0.0
O412 O 0.267 0.64694 0.39155 0.0
O413 O 0.25475 0.62778 0.43155 0.0
C414 C 0.3279 0.68239 0.42753 0.0
O415 O 0.24339 0.69634 0.38966 0.0
O416 O 0.2177 0.66526 0.41279 0.0
C417 C 0.22509 0.70488 0.47886 0.0
Fe418 Fe 0.23004 0.31899 0.89919 0.0
Fe419 Fe 0.26688 0.34163 0.94762 0.0
O420 O 0.23897 0.31978 0.93549 0.0
Fe421 Fe 0.21974 0.29844 0.95946 0.0
O422 O 0.2299 0.26627 0.9413 0.0
O423 O 0.21862 0.28233 0.89942 0.0
O424 O 0.26474 0.30619 0.89006 0.0
C425 C 0.28781 0.31757 0.89674 0.0
C426 C 0.1775 0.31878 0.9225 0.0
O427 O 0.28897 0.33611 0.91602 0.0
C428 C 0.22392 0.34778 0.98914 0.0
O429 O 0.24031 0.3554 0.8917 0.0
O430 O 0.25086 0.37322 0.93294 0.0
O431 O 0.18647 0.30086 0.94009 0.0
O432 O 0.19437 0.33145 0.90619 0.0
C433 C 0.27558 0.29477 0.98053 0.0
O434 O 0.24939 0.35053 0.98127 0.0
O435 O 0.20828 0.32897 0.97888 0.0
C436 C 0.24467 0.37649 0.9073 0.0
O437 O 0.28567 0.31222 0.96327 0.0
O438 O 0.24923 0.29216 0.98357 0.0
C439 C 0.2254 0.26219 0.91544 0.0
Fe440 Fe 0.56094 0.73737 0.83786 0.0
Fe441 Fe 0.54552 0.7879 0.79947 0.0
O442 O 0.57081 0.76793 0.81868 0.0
Fe443 Fe 0.60659 0.7787 0.81815 0.0
O444 O 0.61689 0.74649 0.80095 0.0
O445 O 0.59356 0.71756 0.82898 0.0
O446 O 0.54517 0.7209 0.8072 0.0
C447 C 0.52707 0.73163 0.79103 0.0
C448 C 0.60105 0.75771 0.87381 0.0
O449 O 0.52303 0.75793 0.79037 0.0
C450 C 0.58145 0.82963 0.82357 0.0
O451 O 0.52692 0.75219 0.84952 0.0
O452 O 0.52492 0.79495 0.83098 0.0
O453 O 0.61586 0.76453 0.85281 0.0
O454 O 0.57563 0.75084 0.87058 0.0
C455 C 0.58977 0.78782 0.76254 0.0
O456 O 0.56353 0.82185 0.80526 0.0
O457 O 0.59771 0.81187 0.835 0.0
C458 C 0.51637 0.77679 0.84851 0.0
O459 O 0.56414 0.78179 0.7663 0.0
O460 O 0.6051 0.7945 0.78317 0.0
C461 C 0.61162 0.72197 0.80961 0.0
Fe462 Fe 0.04469 0.72029 0.20564 0.0
Fe463 Fe 0.10509 0.72941 0.1845 0.0
O464 O 0.06902 0.73924 0.18416 0.0
Fe465 Fe 0.05781 0.76767 0.1626 0.0
O466 O 0.04216 0.78639 0.19204 0.0
O467 O 0.02166 0.75047 0.21293 0.0
O468 O 0.06384 0.72926 0.23774 0.0
C469 C 0.08962 0.72378 0.24129 0.0
C470 C 0.0146 0.72638 0.15635 0.0
O471 O 0.10487 0.71666 0.22069 0.0
C472 C 0.0978 0.74526 0.12743 0.0
O473 O 0.06341 0.68638 0.20214 0.0
O474 O 0.09664 0.69479 0.17078 0.0
O475 O 0.02417 0.75112 0.15318 0.0
O476 O 0.0237 0.71013 0.17537 0.0
C477 C 0.10909 0.78677 0.18735 0.0
O478 O 0.11313 0.74056 0.14857 0.0
O479 O 0.07228 0.7519 0.1307 0.0
C480 C 0.08094 0.6777 0.18383 0.0
O481 O 0.11519 0.76335 0.19833 0.0
O482 O 0.08984 0.78881 0.16882 0.0
C483 C 0.02481 0.7767 0.20967 0.0
Fe484 Fe 0.39995 0.27602 0.68661 0.0
Fe485 Fe 0.44676 0.24172 0.65832 0.0
O486 O 0.4362 0.2677 0.68317 0.0
Fe487 Fe 0.46184 0.28484 0.70439 0.0
O488 O 0.43922 0.28786 0.7357 0.0
O489 O 0.39972 0.26687 0.72363 0.0
O490 O 0.38816 0.24005 0.67975 0.0
C491 C 0.40087 0.21676 0.68271 0.0
C492 C 0.42666 0.32935 0.69245 0.0
O493 O 0.42687 0.2146 0.67701 0.0
C494 C 0.48632 0.28278 0.64984 0.0
O495 O 0.39701 0.28578 0.64961 0.0
O496 O 0.41748 0.2477 0.63369 0.0
O497 O 0.45133 0.31946 0.69208 0.0
O498 O 0.40545 0.31334 0.69451 0.0
C499 C 0.48521 0.23246 0.70323 0.0
O500 O 0.46752 0.26743 0.63868 0.0
O501 O 0.48841 0.28534 0.67637 0.0
C502 C 0.4013 0.26854 0.62985 0.0
O503 O 0.47796 0.23065 0.6777 0.0
O504 O 0.47512 0.25158 0.71871 0.0
C505 C 0.41579 0.27686 0.74224 0.0
Fe506 Fe 0.95952 0.22082 0.29762 0.0
Fe507 Fe 0.89787 0.23114 0.31335 0.0
O508 O 0.93389 0.23969 0.31751 0.0
Fe509 Fe 0.94367 0.26713 0.34112 0.0
O510 O 0.96152 0.28657 0.31348 0.0
O511 O 0.98342 0.25095 0.29325 0.0
O512 O 0.94344 0.23126 0.26416 0.0
C513 C 0.91823 0.2256 0.25795 0.0
C514 C 0.98596 0.22506 0.34909 0.0
O515 O 0.90074 0.21925 0.27687 0.0
C516 C 0.90089 0.24336 0.37151 0.0
O517 O 0.93963 0.1871 0.29821 0.0
O518 O 0.90414 0.19603 0.32661 0.0
O519 O 0.97644 0.24984 0.35228 0.0
O520 O 0.97773 0.20933 0.32924 0.0
C521 C 0.89615 0.2885 0.31228 0.0
O522 O 0.88714 0.24119 0.34889 0.0
O523 O 0.92652 0.25031 0.37113 0.0
C524 C 0.91919 0.17853 0.31335 0.0
O525 O 0.89042 0.26585 0.29968 0.0
O526 O 0.91239 0.28896 0.33351 0.0
C527 C 0.97971 0.27718 0.29653 0.0
H528 H 0.22921 0.52872 0.27314 0.0
H529 H 0.20946 0.46168 0.33208 0.0
H530 H 0.22732 0.49069 0.37128 0.0
H531 H 0.29348 0.55505 0.30969 0.0
H532 H 0.2851 0.59128 0.30207 0.0
H533 H 0.27431 0.56388 0.2781 0.0
H534 H 0.22248 0.58091 0.28193 0.0
H535 H 0.23308 0.60826 0.30589 0.0
H536 H 0.20616 0.58352 0.31618 0.0
H537 H 0.24235 0.52872 0.4048 0.0
H538 H 0.25316 0.57312 0.42981 0.0
H539 H 0.26335 0.61535 0.34926 0.0
C540 C 0.22938 0.51989 0.29419 0.0
C541 C 0.2181 0.49286 0.2995 0.0
C542 C 0.21801 0.48233 0.32748 0.0
C543 C 0.22822 0.4986 0.34991 0.0
C544 C 0.23853 0.52543 0.34411 0.0
C545 C 0.2393 0.53599 0.31693 0.0
C546 C 0.24917 0.56634 0.31678 0.0
C547 C 0.27718 0.5693 0.30071 0.0
C548 C 0.22636 0.5859 0.30448 0.0
C549 C 0.25316 0.57133 0.3481 0.0
C550 C 0.24718 0.54741 0.36351 0.0
C551 C 0.24751 0.54749 0.39294 0.0
C552 C 0.25366 0.57281 0.40699 0.0
C553 C 0.25933 0.59773 0.3916 0.0
C554 C 0.25959 0.59663 0.36174 0.0
H555 H 0.23639 0.39038 0.8517 0.0
H556 H 0.26035 0.4263 0.93238 0.0
H557 H 0.27175 0.47117 0.90872 0.0
H558 H 0.29061 0.41941 0.81285 0.0
H559 H 0.27031 0.426 0.78144 0.0
H560 H 0.26014 0.39813 0.80499 0.0
H561 H 0.21022 0.41987 0.80984 0.0
H562 H 0.22018 0.4478 0.7861 0.0
H563 H 0.20653 0.4561 0.8206 0.0
H564 H 0.28741 0.50924 0.87572 0.0
H565 H 0.30366 0.53877 0.83597 0.0
H566 H 0.26782 0.47936 0.77671 0.0
C567 C 0.24333 0.40787 0.86458 0.0
C568 C 0.24739 0.40473 0.89401 0.0
C569 C 0.2569 0.42813 0.90989 0.0
C570 C 0.26344 0.45375 0.89662 0.0
C571 C 0.26004 0.45579 0.86748 0.0
C572 C 0.24986 0.4336 0.85168 0.0
C573 C 0.2501 0.44054 0.82044 0.0
C574 C 0.26891 0.41979 0.80398 0.0
C575 C 0.21996 0.44112 0.80855 0.0
C576 C 0.26285 0.46979 0.82102 0.0
C577 C 0.26832 0.47822 0.84842 0.0
C578 C 0.28259 0.50318 0.85427 0.0
C579 C 0.29178 0.51977 0.83161 0.0
C580 C 0.28641 0.51155 0.80345 0.0
C581 C 0.27133 0.4865 0.7981 0.0
H582 H 0.72257 0.91466 0.60176 0.0
H583 H 0.80874 0.89747 0.62641 0.0
H584 H 0.80721 0.93727 0.66 0.0
H585 H 0.72402 0.99379 0.6124 0.0
H586 H 0.68874 0.99357 0.62661 0.0
H587 H 0.69879 0.96815 0.60021 0.0
H588 H 0.68308 0.92788 0.63356 0.0
H589 H 0.67347 0.95304 0.6602 0.0
H590 H 0.6983 0.92545 0.66829 0.0
H591 H 0.79396 0.97408 0.69588 0.0
H592 H 0.77021 0.00529 0.73037 0.0
H593 H 0.6921 0.99706 0.6834 0.0
C594 C 0.74149 0.92031 0.6132 0.0
C595 C 0.76607 0.90373 0.61097 0.0
C596 C 0.79001 0.91053 0.6274 0.0
C597 C 0.78928 0.93301 0.64657 0.0
C598 C 0.76433 0.94833 0.64923 0.0
C599 C 0.74092 0.94243 0.63281 0.0
C600 C 0.71565 0.95955 0.64228 0.0
C601 C 0.70625 0.97998 0.61899 0.0
C602 C 0.6912 0.94033 0.65164 0.0
C603 C 0.72823 0.97523 0.66707 0.0
C604 C 0.75643 0.96886 0.67053 0.0
C605 C 0.77198 0.97958 0.6931 0.0
C606 C 0.7583 0.9972 0.71267 0.0
C607 C 0.72928 0.00362 0.70971 0.0
C608 C 0.71433 0.99267 0.68633 0.0
H609 H 0.76694 0.02711 0.2304 0.0
H610 H 0.7811 0.95999 0.17033 0.0
H611 H 0.76576 0.99124 0.13149 0.0
H612 H 0.70605 0.06194 0.19389 0.0
H613 H 0.71885 0.0966 0.20258 0.0
H614 H 0.72571 0.06745 0.22593 0.0
H615 H 0.77928 0.07801 0.22318 0.0
H616 H 0.77268 0.10693 0.19962 0.0
H617 H 0.79638 0.07911 0.18924 0.0
H618 H 0.75512 0.03148 0.09879 0.0
H619 H 0.74943 0.07736 0.07479 0.0
H620 H 0.74342 0.11869 0.15624 0.0
C621 C 0.76556 0.01877 0.2092 0.0
C622 C 0.77421 0.991 0.20324 0.0
C623 C 0.7737 0.98102 0.17518 0.0
C624 C 0.76514 0.99865 0.15306 0.0
C625 C 0.75747 0.02629 0.1594 0.0
C626 C 0.75747 0.03628 0.18683 0.0
C627 C 0.75154 0.06763 0.18763 0.0
C628 C 0.72388 0.07376 0.20344 0.0
C629 C 0.77645 0.08386 0.20068 0.0
C630 C 0.7487 0.07377 0.15641 0.0
C631 C 0.75196 0.04965 0.14047 0.0
C632 C 0.75207 0.05045 0.11106 0.0
C633 C 0.74892 0.07662 0.0976 0.0
C634 C 0.74578 0.10165 0.11355 0.0
C635 C 0.74533 0.09996 0.14335 0.0
H636 H 0.39571 0.22709 0.59021 0.0
H637 H 0.3636 0.3096 0.61317 0.0
H638 H 0.3284 0.30634 0.57477 0.0
H639 H 0.38479 0.23259 0.51356 0.0
H640 H 0.37428 0.19622 0.51079 0.0
H641 H 0.39897 0.20683 0.53761 0.0
H642 H 0.36657 0.18513 0.57593 0.0
H643 H 0.34171 0.17466 0.54931 0.0
H644 H 0.33032 0.1964 0.57833 0.0
H645 H 0.29398 0.29192 0.53599 0.0
H646 H 0.26367 0.26777 0.50112 0.0
H647 H 0.31817 0.19439 0.50516 0.0
C648 C 0.38179 0.24486 0.58683 0.0
C649 C 0.38265 0.26874 0.60465 0.0
C650 C 0.36353 0.29117 0.59971 0.0
C651 C 0.34345 0.28949 0.57794 0.0
C652 C 0.34273 0.26526 0.56128 0.0
C653 C 0.36153 0.24341 0.56547 0.0
C654 C 0.35516 0.21873 0.54629 0.0
C655 C 0.37977 0.21328 0.52585 0.0
C656 C 0.34801 0.19218 0.5635 0.0
C657 C 0.32953 0.22984 0.53091 0.0
C658 C 0.32278 0.2568 0.53958 0.0
C659 C 0.29926 0.2709 0.52892 0.0
C660 C 0.28214 0.25698 0.50911 0.0
C661 C 0.28845 0.22912 0.50034 0.0
C662 C 0.3127 0.21567 0.51129 0.0
H663 H 0.15292 0.73417 0.11401 0.0
H664 H 0.07421 0.76363 0.0777 0.0
H665 H 0.09931 0.77522 0.03353 0.0
H666 H 0.19462 0.78713 0.08836 0.0
H667 H 0.22533 0.7658 0.08145 0.0
H668 H 0.20066 0.75538 0.1083 0.0
H669 H 0.19422 0.70696 0.08399 0.0
H670 H 0.2191 0.71715 0.05709 0.0
H671 H 0.18426 0.70553 0.04736 0.0
H672 H 0.13387 0.79084 0.9969 0.0
H673 H 0.175 0.80724 0.96943 0.0
H674 H 0.23135 0.76631 0.02844 0.0
C675 C 0.14073 0.74233 0.09653 0.0
C676 C 0.1115 0.74794 0.09938 0.0
C677 C 0.09652 0.75898 0.07605 0.0
C678 C 0.11063 0.76562 0.05085 0.0
C679 C 0.13963 0.76076 0.04917 0.0
C680 C 0.15446 0.74901 0.07127 0.0
C681 C 0.18587 0.74816 0.06506 0.0
C682 C 0.20259 0.76513 0.0871 0.0
C683 C 0.19648 0.71763 0.06326 0.0
C684 C 0.18658 0.76229 0.03644 0.0
C685 C 0.15961 0.76917 0.02758 0.0
C686 C 0.15497 0.78492 0.00325 0.0
C687 C 0.17843 0.79419 0.98784 0.0
C688 C 0.20616 0.7875 0.9966 0.0
C689 C 0.21028 0.77088 0.02089 0.0
H690 H 0.90262 0.27921 0.41702 0.0
H691 H 0.86158 0.20444 0.38459 0.0
H692 H 0.82769 0.2057 0.4241 0.0
H693 H 0.89009 0.26491 0.49436 0.0
H694 H 0.88312 0.30154 0.50152 0.0
H695 H 0.90741 0.29183 0.4739 0.0
H696 H 0.87841 0.32133 0.43827 0.0
H697 H 0.8539 0.33086 0.46562 0.0
H698 H 0.84133 0.31414 0.43392 0.0
H699 H 0.79419 0.21886 0.46203 0.0
H700 H 0.764 0.24224 0.49744 0.0
H701 H 0.82607 0.3088 0.50605 0.0
C702 C 0.88724 0.26248 0.41903 0.0
C703 C 0.88498 0.24136 0.39818 0.0
C704 C 0.86382 0.22051 0.40065 0.0
C705 C 0.8445 0.22107 0.423 0.0
C706 C 0.84653 0.24271 0.44269 0.0
C707 C 0.86747 0.26295 0.44114 0.0
C708 C 0.86293 0.28563 0.46325 0.0
C709 C 0.88734 0.28599 0.48452 0.0
C710 C 0.8589 0.31469 0.44943 0.0
C711 C 0.83582 0.27536 0.47686 0.0
C712 C 0.82688 0.25044 0.46479 0.0
C713 C 0.80123 0.23806 0.47207 0.0
C714 C 0.78416 0.25157 0.49209 0.0
C715 C 0.79279 0.27716 0.50471 0.0
C716 C 0.81919 0.28893 0.49723 0.0
H717 H 0.65778 0.75618 0.8847 0.0
H718 H 0.576 0.74878 0.92536 0.0
H719 H 0.59968 0.73778 0.97048 0.0
H720 H 0.68888 0.69862 0.91902 0.0
H721 H 0.72339 0.71428 0.92177 0.0
H722 H 0.70018 0.72445 0.89357 0.0
H723 H 0.70445 0.77675 0.90868 0.0
H724 H 0.72774 0.76674 0.93696 0.0
H725 H 0.69621 0.78664 0.94445 0.0
H726 H 0.63213 0.72383 0.01005 0.0
H727 H 0.67063 0.70756 0.041 0.0
H728 H 0.7313 0.72401 0.97441 0.0
C729 C 0.64478 0.75284 0.90319 0.0
C730 C 0.61497 0.75358 0.90151 0.0
C731 C 0.59883 0.74845 0.92613 0.0
C732 C 0.61211 0.74225 0.95186 0.0
C733 C 0.64152 0.74123 0.95262 0.0
C734 C 0.65766 0.74642 0.92892 0.0
C735 C 0.68879 0.74209 0.93481 0.0
C736 C 0.70102 0.71846 0.91619 0.0
C737 C 0.70527 0.7697 0.931 0.0
C738 C 0.68769 0.73338 0.9655 0.0
C739 C 0.66023 0.73314 0.9754 0.0
C740 C 0.65372 0.72426 0.00262 0.0
C741 C 0.67575 0.71501 0.02003 0.0
C742 C 0.70402 0.71471 0.01022 0.0
C743 C 0.71001 0.72449 0.98272 0.0
H744 H 0.52852 0.27125 0.23755 0.0
H745 H 0.46372 0.33061 0.21303 0.0
H746 H 0.49247 0.3699 0.23164 0.0
H747 H 0.55495 0.30907 0.30144 0.0
H748 H 0.59116 0.30059 0.29342 0.0
H749 H 0.56336 0.27681 0.28321 0.0
H750 H 0.58073 0.27879 0.23136 0.0
H751 H 0.60848 0.30251 0.2414 0.0
H752 H 0.584 0.31246 0.21413 0.0
H753 H 0.53029 0.40291 0.24757 0.0
H754 H 0.57528 0.42736 0.25696 0.0
H755 H 0.61627 0.34653 0.26956 0.0
C756 C 0.5201 0.29246 0.23714 0.0
C757 C 0.49375 0.2981 0.22468 0.0
C758 C 0.48371 0.32608 0.22309 0.0
C759 C 0.49984 0.34843 0.23364 0.0
C760 C 0.5261 0.34238 0.24535 0.0
C761 C 0.53625 0.31507 0.24705 0.0
C762 C 0.56658 0.31462 0.25702 0.0
C763 C 0.56915 0.29937 0.28547 0.0
C764 C 0.58608 0.30132 0.23465 0.0
C765 C 0.57203 0.34589 0.26012 0.0
C766 C 0.54832 0.36154 0.25372 0.0
C767 C 0.5489 0.3909 0.25305 0.0
C768 C 0.57456 0.40461 0.2584 0.0
C769 C 0.59933 0.38893 0.26408 0.0
C770 C 0.5977 0.35921 0.26565 0.0
H771 H 0.02992 0.23328 0.7655 0.0
H772 H 0.96695 0.1754 0.79737 0.0
H773 H 0.99596 0.13506 0.78165 0.0
H774 H 0.05435 0.18963 0.70418 0.0
H775 H 0.0907 0.19938 0.70951 0.0
H776 H 0.06291 0.22362 0.71877 0.0
H777 H 0.08272 0.22693 0.76955 0.0
H778 H 0.11042 0.20265 0.7605 0.0
H779 H 0.08739 0.19515 0.78981 0.0
H780 H 0.03408 0.10101 0.76747 0.0
H781 H 0.07876 0.07615 0.75708 0.0
H782 H 0.11773 0.15603 0.73551 0.0
C783 C 0.02187 0.2121 0.76812 0.0
C784 C 0.99593 0.20733 0.78198 0.0
C785 C 0.98657 0.17937 0.78632 0.0
C786 C 0.0029 0.15636 0.77746 0.0
C787 C 0.02876 0.1616 0.76449 0.0
C788 C 0.03822 0.18879 0.75978 0.0
C789 C 0.06811 0.18858 0.74829 0.0
C790 C 0.06906 0.20104 0.71841 0.0
C791 C 0.08834 0.20425 0.76823 0.0
C792 C 0.07413 0.15717 0.7479 0.0
C793 C 0.05105 0.14193 0.75696 0.0
C794 C 0.05218 0.1127 0.75997 0.0
C795 C 0.07768 0.09872 0.75401 0.0
C796 C 0.10185 0.11398 0.74534 0.0
C797 C 0.09966 0.14357 0.74179 0.0
H798 H 0.49819 0.81465 0.31982 0.0
H799 H 0.50897 0.76787 0.24188 0.0
H800 H 0.47598 0.80047 0.21805 0.0
H801 H 0.42565 0.82598 0.31308 0.0
H802 H 0.42615 0.86077 0.32826 0.0
H803 H 0.45257 0.83545 0.33815 0.0
H804 H 0.49187 0.87042 0.32331 0.0
H805 H 0.4655 0.89585 0.31326 0.0
H806 H 0.49184 0.8848 0.28814 0.0
H807 H 0.43845 0.83589 0.20399 0.0
H808 H 0.39937 0.87028 0.20119 0.0
H809 H 0.41416 0.89391 0.28832 0.0
C810 C 0.49399 0.81139 0.29762 0.0
C811 C 0.50624 0.78864 0.28274 0.0
C812 C 0.4999 0.78514 0.25376 0.0
C813 C 0.48124 0.80361 0.24001 0.0
C814 C 0.46926 0.82559 0.25548 0.0
C815 C 0.47549 0.82956 0.28364 0.0
C816 C 0.45862 0.85364 0.29605 0.0
C817 C 0.43962 0.84333 0.32031 0.0
C818 C 0.47812 0.8776 0.30575 0.0
C819 C 0.44141 0.86229 0.27065 0.0
C820 C 0.44797 0.84603 0.24736 0.0
C821 C 0.43343 0.84898 0.22199 0.0
C822 C 0.41126 0.86859 0.2206 0.0
C823 C 0.40379 0.885 0.24446 0.0
C824 C 0.41961 0.88213 0.26954 0.0
H825 H 0.92039 0.60142 0.7282 0.0
H826 H 0.89109 0.63748 0.80711 0.0
H827 H 0.92838 0.67359 0.8042 0.0
H828 H 0.99694 0.61595 0.73878 0.0
H829 H 1.00199 0.62415 0.70201 0.0
H830 H 0.97556 0.59892 0.7124 0.0
H831 H 0.93766 0.62779 0.68569 0.0
H832 H 0.9638 0.6533 0.67555 0.0
H833 H 0.93263 0.66442 0.69432 0.0
H834 H 0.96419 0.70986 0.78912 0.0
H835 H 0.99854 0.7409 0.76506 0.0
H836 H 0.00542 0.68043 0.69684 0.0
C837 C 0.92232 0.61632 0.74537 0.0
C838 C 0.90276 0.61647 0.76794 0.0
C839 C 0.90582 0.63678 0.78965 0.0
C840 C 0.92694 0.65745 0.78816 0.0
C841 C 0.94507 0.65741 0.765 0.0
C842 C 0.94328 0.63709 0.74422 0.0
C843 C 0.96403 0.64283 0.72057 0.0
C844 C 0.98593 0.61905 0.71832 0.0
C845 C 0.9486 0.64736 0.69238 0.0
C846 C 0.97736 0.66988 0.73098 0.0
C847 C 0.96614 0.67797 0.75664 0.0
C848 C 0.97354 0.70343 0.76931 0.0
C849 C 0.99294 0.72099 0.75543 0.0
C850 C 0.00489 0.71294 0.72927 0.0
C851 C 0.99711 0.68689 0.71711 0.0
H852 H 0.73249 0.38886 0.65169 0.0
H853 H 0.75976 0.42407 0.57171 0.0
H854 H 0.7715 0.46872 0.59569 0.0
H855 H 0.70337 0.45538 0.68206 0.0
H856 H 0.71577 0.4467 0.7169 0.0
H857 H 0.70578 0.41906 0.69285 0.0
H858 H 0.75492 0.39598 0.69897 0.0
H859 H 0.76513 0.42355 0.72285 0.0
H860 H 0.78617 0.41645 0.69198 0.0
H861 H 0.78719 0.50637 0.62921 0.0
H862 H 0.80327 0.53529 0.66942 0.0
H863 H 0.76413 0.47691 0.72765 0.0
C864 C 0.74025 0.40617 0.63901 0.0
C865 C 0.74513 0.40288 0.6097 0.0
C866 C 0.75564 0.42603 0.59408 0.0
C867 C 0.76239 0.45151 0.60756 0.0
C868 C 0.75817 0.45367 0.63661 0.0
C869 C 0.74698 0.43174 0.6521 0.0
C870 C 0.74649 0.43866 0.68336 0.0
C871 C 0.71604 0.44003 0.69444 0.0
C872 C 0.76424 0.4174 0.70027 0.0
C873 C 0.76003 0.46757 0.68318 0.0
C874 C 0.76647 0.47587 0.65594 0.0
C875 C 0.78159 0.50043 0.65052 0.0
C876 C 0.79065 0.5167 0.67345 0.0
C877 C 0.7843 0.50861 0.70146 0.0
C878 C 0.76838 0.48399 0.70637 0.0
H879 H 0.7312 0.52662 0.2295 0.0
H880 H 0.71121 0.4598 0.17037 0.0
H881 H 0.73089 0.48801 0.13153 0.0
H882 H 0.71103 0.58173 0.18591 0.0
H883 H 0.73844 0.60567 0.19671 0.0
H884 H 0.72647 0.57873 0.2205 0.0
H885 H 0.77771 0.56021 0.22538 0.0
H886 H 0.78984 0.58716 0.20151 0.0
H887 H 0.79729 0.55065 0.1942 0.0
H888 H 0.74711 0.52558 0.09816 0.0
H889 H 0.75863 0.5699 0.07326 0.0
H890 H 0.76916 0.61167 0.15402 0.0
C891 C 0.73163 0.51767 0.20851 0.0
C892 C 0.7197 0.491 0.20303 0.0
C893 C 0.72015 0.48024 0.17512 0.0
C894 C 0.73143 0.49603 0.15287 0.0
C895 C 0.74239 0.52254 0.1588 0.0
C896 C 0.74274 0.53324 0.18595 0.0
C897 C 0.7535 0.56324 0.18622 0.0
C898 C 0.73102 0.58353 0.19802 0.0
C899 C 0.78124 0.56543 0.20281 0.0
C900 C 0.75832 0.56792 0.15498 0.0
C901 C 0.75206 0.54413 0.1395 0.0
C902 C 0.75261 0.54422 0.11006 0.0
C903 C 0.75917 0.56947 0.09608 0.0
C904 C 0.76504 0.59425 0.11158 0.0
C905 C 0.76528 0.59305 0.14142 0.0
H906 H 0.28225 0.09475 0.39871 0.0
H907 H 0.19594 0.10833 0.37141 0.0
H908 H 0.20022 0.06805 0.33864 0.0
H909 H 0.30955 0.0809 0.33232 0.0
H910 H 0.33443 0.05453 0.34367 0.0
H911 H 0.32339 0.0817 0.3677 0.0
H912 H 0.30718 0.04394 0.40368 0.0
H913 H 0.31842 0.01658 0.37983 0.0
H914 H 0.28266 0.01705 0.3928 0.0
H915 H 0.21561 0.02916 0.30551 0.0
H916 H 0.24055 0.99488 0.27523 0.0
H917 H 0.31699 0.00764 0.32392 0.0
C918 C 0.26394 0.08885 0.38644 0.0
C919 C 0.23866 0.10463 0.38784 0.0
C920 C 0.21547 0.09649 0.37086 0.0
C921 C 0.21771 0.07363 0.35217 0.0
C922 C 0.24324 0.05907 0.35074 0.0
C923 C 0.26589 0.06629 0.36756 0.0
C924 C 0.2917 0.04882 0.36047 0.0
C925 C 0.3162 0.06761 0.35044 0.0
C926 C 0.3005 0.03051 0.3857 0.0
C927 C 0.28024 0.03101 0.33664 0.0
C928 C 0.25219 0.03701 0.33148 0.0
C929 C 0.23749 0.02408 0.30958 0.0
C930 C 0.25188 0.00467 0.29244 0.0
C931 C 0.28077 0.99847 0.29714 0.0
C932 C 0.29489 0.0117 0.3198 0.0
H933 H 0.22894 0.92097 0.90286 0.0
H934 H 0.30812 0.89405 0.86536 0.0
H935 H 0.30396 0.93179 0.82983 0.0
H936 H 0.19411 0.93333 0.84016 0.0
H937 H 0.17468 0.96373 0.85209 0.0
H938 H 0.18568 0.93738 0.87701 0.0
H939 H 0.21168 0.97534 0.9064 0.0
H940 H 0.20048 0.00195 0.88173 0.0
H941 H 0.23744 0.99764 0.88955 0.0
H942 H 0.28786 0.96786 0.79456 0.0
H943 H 0.26268 0.00186 0.76418 0.0
H944 H 0.19467 0.00621 0.8253 0.0
C945 C 0.24587 0.92346 0.88772 0.0
C946 C 0.26894 0.90452 0.88705 0.0
C947 C 0.29032 0.90832 0.86647 0.0
C948 C 0.28813 0.9297 0.84615 0.0
C949 C 0.26457 0.9473 0.84681 0.0
C950 C 0.24401 0.94465 0.8673 0.0
C951 C 0.2198 0.96489 0.86217 0.0
C952 C 0.19194 0.94887 0.85758 0.0
C953 C 0.21721 0.98622 0.88641 0.0
C954 C 0.22968 0.97896 0.83527 0.0
C955 C 0.25556 0.96851 0.82675 0.0
C956 C 0.26788 0.9766 0.80132 0.0
C957 C 0.25337 0.9958 0.78415 0.0
C958 C 0.22692 0.00689 0.79256 0.0
C959 C 0.21516 0.99856 0.81864 0.0
H960 H 0.68016 0.81025 0.50506 0.0
H961 H 0.74118 0.74223 0.50181 0.0
H962 H 0.71019 0.71607 0.46914 0.0
H963 H 0.6155 0.76701 0.49846 0.0
H964 H 0.59847 0.79231 0.47584 0.0
H965 H 0.62346 0.80395 0.50196 0.0
H966 H 0.65266 0.82896 0.46311 0.0
H967 H 0.62773 0.81752 0.43696 0.0
H968 H 0.66459 0.80906 0.43299 0.0
H969 H 0.67439 0.69887 0.43428 0.0
H970 H 0.63887 0.69377 0.39672 0.0
H971 H 0.60186 0.77387 0.42105 0.0
C972 C 0.68665 0.78955 0.49797 0.0
C973 C 0.71291 0.77808 0.50621 0.0
C974 C 0.7211 0.75133 0.49583 0.0
C975 C 0.70356 0.73625 0.47741 0.0
C976 C 0.67796 0.74829 0.46938 0.0
C977 C 0.66961 0.77443 0.47917 0.0
C978 C 0.64257 0.78392 0.46499 0.0
C979 C 0.61858 0.78697 0.48661 0.0
C980 C 0.64718 0.81149 0.44853 0.0
C981 C 0.63734 0.75932 0.44529 0.0
C982 C 0.65772 0.73876 0.44855 0.0
C983 C 0.65819 0.71472 0.4317 0.0
C984 C 0.63784 0.712 0.41041 0.0
C985 C 0.61746 0.73338 0.40583 0.0
C986 C 0.61688 0.75696 0.42411 0.0
H987 H 0.90423 0.22994 0.91858 0.0
H988 H 0.86411 0.30749 0.89128 0.0
H989 H 0.82978 0.30329 0.9302 0.0
H990 H 0.84333 0.19372 0.93341 0.0
H991 H 0.85639 0.17541 0.96402 0.0
H992 H 0.88052 0.18662 0.93698 0.0
H993 H 0.90961 0.21436 0.97389 0.0
H994 H 0.88569 0.203 1.00119 0.0
H995 H 0.89227 0.24001 0.99595 0.0
H996 H 0.79564 0.28693 0.96716 0.0
H997 H 0.76599 0.26118 1.00138 0.0
H998 H 0.82883 0.19492 0.00581 0.0
C999 C 0.88877 0.24653 0.92123 0.0
C1000 C 0.88699 0.26911 0.90179 0.0
C1001 C 0.86607 0.29006 0.90587 0.0
C1002 C 0.84643 0.28785 0.92795 0.0
C1003 C 0.84815 0.26476 0.94603 0.0
C1004 C 0.86905 0.24467 0.94317 0.0
C1005 C 0.86496 0.22078 0.96403 0.0
C1006 C 0.86106 0.19247 0.94868 0.0
C1007 C 0.8896 0.21947 0.98501 0.0
C1008 C 0.83796 0.23007 0.97843 0.0
C1009 C 0.8287 0.25559 0.96783 0.0
C1010 C 0.80299 0.26726 0.97603 0.0
C1011 C 0.78623 0.25242 0.99537 0.0
C1012 C 0.79526 0.22622 0.00647 0.0
C1013 C 0.8217 0.2152 0.99818 0.0
H1014 H 0.15645 0.75915 0.6223 0.0
H1015 H 0.07485 0.75386 0.58117 0.0
H1016 H 0.09875 0.74354 0.53591 0.0
H1017 H 0.19583 0.79018 0.56286 0.0
H1018 H 0.227 0.76973 0.57033 0.0
H1019 H 0.20364 0.77987 0.59859 0.0
H1020 H 0.19853 0.72755 0.61321 0.0
H1021 H 0.22176 0.71725 0.58501 0.0
H1022 H 0.187 0.7021 0.58749 0.0
H1023 H 0.13134 0.72952 0.4963 0.0
H1024 H 0.16965 0.7125 0.46549 0.0
H1025 H 0.23016 0.72667 0.53259 0.0
C1026 C 0.14352 0.75643 0.6037 0.0
C1027 C 0.11367 0.75752 0.60533 0.0
C1028 C 0.09768 0.7533 0.58049 0.0
C1029 C 0.1111 0.74747 0.55467 0.0
C1030 C 0.14052 0.74598 0.55401 0.0
C1031 C 0.15653 0.75044 0.57788 0.0
C1032 C 0.18767 0.74567 0.57208 0.0
C1033 C 0.20453 0.77299 0.57621 0.0
C1034 C 0.19942 0.72172 0.59054 0.0
C1035 C 0.1867 0.73725 0.54129 0.0
C1036 C 0.15932 0.7378 0.53122 0.0
C1037 C 0.15286 0.72933 0.50388 0.0
C1038 C 0.17481 0.71963 0.48655 0.0
C1039 C 0.20299 0.71837 0.49654 0.0
C1040 C 0.20897 0.72782 0.52415 0.0
H1041 H 0.32783 0.31034 1.00001 0.0
H1042 H 0.26571 0.24348 0.00433 0.0
H1043 H 0.29566 0.21788 0.03838 0.0
H1044 H 0.39167 0.26632 0.00912 0.0
H1045 H 0.40866 0.29207 0.03124 0.0
H1046 H 0.38431 0.30326 0.00431 0.0
H1047 H 0.35478 0.32995 0.04183 0.0
H1048 H 0.37907 0.31897 0.06876 0.0
H1049 H 0.34202 0.3112 0.07233 0.0
H1050 H 0.33039 0.20142 0.07476 0.0
H1051 H 0.36515 0.19719 0.11321 0.0
H1052 H 0.40405 0.27548 0.08628 0.0
C1053 C 0.32089 0.28999 0.00762 0.0
C1054 C 0.29461 0.27871 0.99931 0.0
C1055 C 0.28583 0.25243 0.01037 0.0
C1056 C 0.30277 0.23767 0.02958 0.0
C1057 C 0.32839 0.24954 0.03769 0.0
C1058 C 0.33735 0.27519 0.02719 0.0
C1059 C 0.36425 0.28472 0.04153 0.0
C1060 C 0.38867 0.2867 0.02028 0.0
C1061 C 0.35974 0.31286 0.05703 0.0
C1062 C 0.36873 0.26069 0.06208 0.0
C1063 C 0.34808 0.24039 0.05922 0.0
C1064 C 0.34686 0.21704 0.077 0.0
C1065 C 0.36676 0.21479 0.09878 0.0
C1066 C 0.38745 0.23594 0.10284 0.0
C1067 C 0.38878 0.25874 0.08365 0.0
H1068 H 0.5108 0.67779 0.80383 0.0
H1069 H 0.4994 0.74422 0.74216 0.0
H1070 H 0.464 0.71516 0.71738 0.0
H1071 H 0.49863 0.61677 0.75588 0.0
H1072 H 0.47938 0.5977 0.78252 0.0
H1073 H 0.50714 0.62158 0.79259 0.0
H1074 H 0.47226 0.64842 0.82508 0.0
H1075 H 0.4445 0.62465 0.81516 0.0
H1076 H 0.43992 0.66204 0.81047 0.0
H1077 H 0.42656 0.68106 0.70214 0.0
H1078 H 0.38779 0.6465 0.69975 0.0
H1079 H 0.42251 0.60299 0.77237 0.0
C1080 C 0.50145 0.68585 0.78464 0.0
C1081 C 0.50807 0.7131 0.77469 0.0
C1082 C 0.49472 0.72333 0.75004 0.0
C1083 C 0.47471 0.70691 0.73574 0.0
C1084 C 0.4682 0.68035 0.74642 0.0
C1085 C 0.48111 0.66992 0.77038 0.0
C1086 C 0.46802 0.64226 0.77942 0.0
C1087 C 0.48958 0.61815 0.77748 0.0
C1088 C 0.45543 0.6445 0.80929 0.0
C1089 C 0.44519 0.63918 0.75732 0.0
C1090 C 0.44601 0.66105 0.73813 0.0
C1091 C 0.42592 0.66364 0.71684 0.0
C1092 C 0.40396 0.64386 0.71564 0.0
C1093 C 0.40202 0.62196 0.73586 0.0
C1094 C 0.42345 0.61928 0.75643 0.0
H1095 H 0.00383 0.82734 0.19147 0.0
H1096 H 1.00243 0.76953 0.2622 0.0
H1097 H 0.9685 0.80053 0.28692 0.0
H1098 H 0.99454 0.89362 0.23144 0.0
H1099 H 0.97131 0.90846 0.20531 0.0
H1100 H 0.99843 0.88393 0.19489 0.0
H1101 H 0.96077 0.85211 0.17138 0.0
H1102 H 0.93365 0.87659 0.18158 0.0
H1103 H 0.93105 0.84016 0.19191 0.0
H1104 H 0.93222 0.83581 0.30238 0.0
H1105 H 0.89317 0.86997 0.30561 0.0
H1106 H 0.91659 0.90397 0.22389 0.0
C1107 C 0.99689 0.8216 0.21246 0.0
C1108 C 0.00603 0.79626 0.22515 0.0
C1109 C 0.99579 0.78895 0.25222 0.0
C1110 C 0.97666 0.8065 0.26646 0.0
C1111 C 0.96776 0.83119 0.25325 0.0
C1112 C 0.97736 0.83863 0.22674 0.0
C1113 C 0.96216 0.86456 0.21591 0.0
C1114 C 0.98285 0.8891 0.21164 0.0
C1115 C 0.94595 0.85795 0.18859 0.0
C1116 C 0.9422 0.87029 0.24025 0.0
C1117 C 0.94612 0.85108 0.26177 0.0
C1118 C 0.92913 0.85112 0.28576 0.0
C1119 C 0.90699 0.87069 0.28742 0.0
C1120 C 0.90174 0.88981 0.26506 0.0
C1121 C 0.92019 0.88999 0.24156 0.0
H1122 H 0.49877 0.2055 0.7541 0.0
H1123 H 0.53028 0.22483 0.67021 0.0
H1124 H 0.57141 0.19492 0.67835 0.0
H1125 H 0.5712 0.2015 0.78788 0.0
H1126 H 0.56143 0.17264 0.81055 0.0
H1127 H 0.53531 0.19821 0.8001 0.0
H1128 H 0.50393 0.15813 0.78066 0.0
H1129 H 0.53003 0.13248 0.79075 0.0
H1130 H 0.51817 0.13427 0.75471 0.0
H1131 H 0.60301 0.15788 0.69026 0.0
H1132 H 0.63081 0.11934 0.7091 0.0
H1133 H 0.58564 0.12447 0.7887 0.0
C1134 C 0.51476 0.20383 0.73786 0.0
C1135 C 0.51115 0.21721 0.71136 0.0
C1136 C 0.53232 0.21443 0.69046 0.0
C1137 C 0.55589 0.19757 0.69489 0.0
C1138 C 0.55834 0.18373 0.72053 0.0
C1139 C 0.53891 0.1869 0.74203 0.0
C1140 C 0.54693 0.16824 0.767 0.0
C1141 C 0.55415 0.18622 0.79293 0.0
C1142 C 0.52336 0.14702 0.77366 0.0
C1143 C 0.57311 0.15345 0.75546 0.0
C1144 C 0.57885 0.16295 0.72851 0.0
C1145 C 0.59953 0.15096 0.71172 0.0
C1146 C 0.61527 0.12892 0.72274 0.0
C1147 C 0.61118 0.11933 0.75074 0.0
C1148 C 0.58975 0.13184 0.7675 0.0
H1149 H 0.08142 0.40931 0.27609 0.0
H1150 H 0.10354 0.3736 0.195 0.0
H1151 H 0.06509 0.33895 0.19969 0.0
H1152 H 0.07101 0.34741 0.3095 0.0
H1153 H 0.04137 0.35756 0.33108 0.0
H1154 H 0.06594 0.3838 0.31911 0.0
H1155 H 0.02542 0.41218 0.29607 0.0
H1156 H 1.00051 0.38634 0.30854 0.0
H1157 H 1.00204 0.39498 0.27158 0.0
H1158 H 0.03186 0.30264 0.2171 0.0
H1159 H 1.00134 0.27002 0.24385 0.0
H1160 H 0.99896 0.32913 0.31353 0.0
C1161 C 0.07702 0.39522 0.25869 0.0
C1162 C 0.09489 0.39452 0.23483 0.0
C1163 C 0.08961 0.37481 0.2131 0.0
C1164 C 0.06793 0.35496 0.21567 0.0
C1165 C 0.0516 0.35512 0.2401 0.0
C1166 C 0.05541 0.37508 0.26103 0.0
C1167 C 0.03696 0.36859 0.28643 0.0
C1168 C 0.0549 0.36407 0.31309 0.0
C1169 C 0.01492 0.39191 0.29091 0.0
C1170 C 0.02317 0.34136 0.27693 0.0
C1171 C 0.03186 0.33406 0.25009 0.0
C1172 C 0.02429 0.30848 0.23783 0.0
C1173 C 0.00718 0.28996 0.25327 0.0
C1174 C 0.99761 0.29717 0.2806 0.0
C1175 C 0.00552 0.32335 0.29243 0.0
H1176 H 0.25356 0.37628 0.0301 0.0
H1177 H 0.16868 0.35671 1.00196 0.0
H1178 H 0.14917 0.38011 0.04399 0.0
H1179 H 0.24185 0.36169 0.10084 0.0
H1180 H 0.26369 0.38952 0.11459 0.0
H1181 H 0.27111 0.37486 0.08042 0.0
H1182 H 0.26784 0.42459 0.0581 0.0
H1183 H 0.26044 0.43944 0.09231 0.0
H1184 H 0.23651 0.44548 0.06344 0.0
H1185 H 0.13898 0.39906 0.09156 0.0
H1186 H 0.13894 0.41404 0.1415 0.0
H1187 H 0.2299 0.4232 0.13864 0.0
C1188 C 0.23087 0.37762 0.03243 0.0
C1189 C 0.21264 0.36474 0.01273 0.0
C1190 C 0.18306 0.36638 0.01682 0.0
C1191 C 0.17174 0.37974 0.04056 0.0
C1192 C 0.19025 0.39155 0.05998 0.0
C1193 C 0.21917 0.39083 0.05615 0.0
C1194 C 0.23437 0.40302 0.08146 0.0
C1195 C 0.25389 0.38096 0.09512 0.0
C1196 C 0.25076 0.42973 0.07333 0.0
C1197 C 0.20949 0.40993 0.10033 0.0
C1198 C 0.18422 0.40327 0.08744 0.0
C1199 C 0.15853 0.40504 0.10167 0.0
C1200 C 0.15868 0.41348 0.12997 0.0
C1201 C 0.18431 0.42029 0.14355 0.0
C1202 C 0.20993 0.41901 0.12838 0.0
H1203 H 0.30503 0.66848 0.53852 0.0
H1204 H 0.26372 0.59711 0.49939 0.0
H1205 H 0.27393 0.56811 0.54155 0.0
H1206 H 0.35966 0.62956 0.57774 0.0
H1207 H 0.35663 0.65203 0.60823 0.0
H1208 H 0.34951 0.66591 0.57359 0.0
H1209 H 0.29997 0.68214 0.59019 0.0
H1210 H 0.30696 0.66839 0.62481 0.0
H1211 H 0.27625 0.65682 0.60569 0.0
H1212 H 0.28663 0.5476 0.58921 0.0
H1213 H 0.29623 0.53888 0.63977 0.0
H1214 H 0.32648 0.62464 0.64847 0.0
C1215 C 0.29876 0.64656 0.5386 0.0
C1216 C 0.284 0.63485 0.51558 0.0
C1217 C 0.27524 0.60637 0.51679 0.0
C1218 C 0.28106 0.58973 0.54057 0.0
C1219 C 0.29536 0.60198 0.56312 0.0
C1220 C 0.30385 0.62985 0.56243 0.0
C1221 C 0.31614 0.63884 0.59047 0.0
C1222 C 0.34734 0.64706 0.58731 0.0
C1223 C 0.29879 0.66296 0.60356 0.0
C1224 C 0.31293 0.61183 0.60717 0.0
C1225 C 0.30143 0.59063 0.59091 0.0
C1226 C 0.2958 0.56402 0.60209 0.0
C1227 C 0.30143 0.5592 0.6308 0.0
C1228 C 0.3121 0.58105 0.64808 0.0
C1229 C 0.31837 0.60748 0.63582 0.0
H1230 H 0.69885 0.16999 0.96712 0.0
H1231 H 0.74001 0.09917 0.00746 0.0
H1232 H 0.72955 0.06942 0.96589 0.0
H1233 H 0.64405 0.13059 0.92841 0.0
H1234 H 0.64723 0.15247 0.89753 0.0
H1235 H 0.65428 0.16697 0.93193 0.0
H1236 H 0.70392 0.18269 0.91519 0.0
H1237 H 0.69698 0.16834 0.8808 0.0
H1238 H 0.72761 0.15699 0.90021 0.0
H1239 H 0.71681 0.04821 0.919 0.0
H1240 H 0.70778 0.03847 0.86872 0.0
H1241 H 0.67782 0.12419 0.8577 0.0
C1242 C 0.70503 0.14803 0.9674 0.0
C1243 C 0.7198 0.13664 0.99059 0.0
C1244 C 0.72847 0.10813 0.98992 0.0
C1245 C 0.72249 0.09109 0.96649 0.0
C1246 C 0.70816 0.10302 0.94377 0.0
C1247 C 0.69982 0.13093 0.94391 0.0
C1248 C 0.68763 0.13946 0.91564 0.0
C1249 C 0.65644 0.14786 0.91856 0.0
C1250 C 0.70508 0.16326 0.90218 0.0
C1251 C 0.69081 0.11213 0.89945 0.0
C1252 C 0.70213 0.09121 0.91623 0.0
C1253 C 0.70781 0.06439 0.9057 0.0
C1254 C 0.70252 0.05904 0.87709 0.0
C1255 C 0.69211 0.08055 0.85917 0.0
C1256 C 0.68567 0.10724 0.8708 0.0
H1257 H 0.80944 0.83315 0.46509 0.0
H1258 H 0.77001 0.90438 0.50652 0.0
H1259 H 0.77866 0.93373 0.4643 0.0
H1260 H 0.86253 0.87266 0.4232 0.0
H1261 H 0.858 0.85033 0.39281 0.0
H1262 H 0.85276 0.83626 0.42772 0.0
H1263 H 0.80253 0.81994 0.4137 0.0
H1264 H 0.80761 0.83395 0.37884 0.0
H1265 H 0.7779 0.84528 0.39973 0.0
H1266 H 0.7885 0.95437 0.41627 0.0
H1267 H 0.79515 0.96342 0.36534 0.0
H1268 H 0.82562 0.8779 0.35439 0.0
C1269 C 0.80341 0.85516 0.46549 0.0
C1270 C 0.78954 0.86672 0.48918 0.0
C1271 C 0.78093 0.89527 0.48863 0.0
C1272 C 0.78585 0.9121 0.4648 0.0
C1273 C 0.7991 0.89998 0.44152 0.0
C1274 C 0.8076 0.87209 0.4416 0.0
C1275 C 0.81844 0.8633 0.41283 0.0
C1276 C 0.8498 0.85516 0.41423 0.0
C1277 C 0.80055 0.8392 0.40056 0.0
C1278 C 0.81426 0.89041 0.39648 0.0
C1279 C 0.80359 0.91149 0.4135 0.0
C1280 C 0.79706 0.93808 0.40279 0.0
C1281 C 0.80097 0.94307 0.37383 0.0
C1282 C 0.81088 0.92141 0.35581 0.0
C1283 C 0.81806 0.89495 0.36756 0.0
H1284 H 0.1433 0.17675 0.37845 0.0
H1285 H 0.13146 0.20326 0.46522 0.0
H1286 H 0.08073 0.21075 0.45597 0.0
H1287 H 0.09973 0.2259 0.3477 0.0
H1288 H 0.08547 0.20299 0.32099 0.0
H1289 H 0.11991 0.19618 0.33529 0.0
H1290 H 0.1045 0.14575 0.34931 0.0
H1291 H 0.06997 0.15232 0.33482 0.0
H1292 H 0.07354 0.14093 0.37089 0.0
H1293 H 0.03339 0.22285 0.43513 0.0
H1294 H 0.99196 0.23413 0.40547 0.0
H1295 H 0.03359 0.19673 0.33319 0.0
C1296 C 0.12992 0.18348 0.39571 0.0
C1297 C 0.14139 0.18942 0.42258 0.0
C1298 C 0.12317 0.19835 0.44454 0.0
C1299 C 0.09431 0.20273 0.43945 0.0
C1300 C 0.08388 0.19755 0.41246 0.0
C1301 C 0.10104 0.18757 0.3911 0.0
C1302 C 0.08499 0.18507 0.36359 0.0
C1303 C 0.09832 0.20365 0.34055 0.0
C1304 C 0.08314 0.15417 0.3541 0.0
C1305 C 0.05639 0.19618 0.37252 0.0
C1306 C 0.05617 0.20328 0.40081 0.0
C1307 C 0.03306 0.21667 0.41318 0.0
C1308 C 0.0097 0.22309 0.39619 0.0
C1309 C 0.00945 0.21576 0.36727 0.0
C1310 C 0.03293 0.20175 0.35546 0.0
H1311 H 0.35964 0.8288 0.88075 0.0
H1312 H 0.36889 0.79463 0.96505 0.0
H1313 H 0.41883 0.78341 0.95483 0.0
H1314 H 0.40045 0.77893 0.84545 0.0
H1315 H 0.41641 0.80325 0.82102 0.0
H1316 H 0.38221 0.8108 0.8357 0.0
H1317 H 0.40037 0.85875 0.85431 0.0
H1318 H 0.43462 0.85148 0.83945 0.0
H1319 H 0.43129 0.85977 0.87639 0.0
H1320 H 0.46586 0.77007 0.93297 0.0
H1321 H 0.50781 0.76077 0.90314 0.0
H1322 H 0.46909 0.80683 0.83444 0.0
C1323 C 0.37232 0.81946 0.89727 0.0
C1324 C 0.36032 0.81261 0.92373 0.0
C1325 C 0.37763 0.80032 0.94472 0.0
C1326 C 0.40601 0.79374 0.93906 0.0
C1327 C 0.41695 0.80008 0.91248 0.0
C1328 C 0.40078 0.81321 0.89213 0.0
C1329 C 0.41735 0.81722 0.86505 0.0
C1330 C 0.40326 0.80161 0.84036 0.0
C1331 C 0.42113 0.84868 0.85842 0.0
C1332 C 0.44516 0.80364 0.87305 0.0
C1333 C 0.44446 0.79371 0.90044 0.0
C1334 C 0.46685 0.77831 0.91173 0.0
C1335 C 0.49052 0.77303 0.89463 0.0
C1336 C 0.49184 0.78348 0.86671 0.0
C1337 C 0.46892 0.7992 0.85596 0.0
H1338 H 0.52245 0.2561 0.61365 0.0
H1339 H 0.50245 0.33713 0.65049 0.0
H1340 H 0.54673 0.35684 0.63139 0.0
H1341 H 0.59214 0.25706 0.63217 0.0
H1342 H 0.60574 0.23983 0.60115 0.0
H1343 H 0.57005 0.23344 0.61229 0.0
H1344 H 0.55147 0.24899 0.56332 0.0
H1345 H 0.58723 0.2551 0.55184 0.0
H1346 H 0.56143 0.28289 0.54941 0.0
H1347 H 0.59612 0.36542 0.61589 0.0
H1348 H 0.64653 0.36295 0.60254 0.0
H1349 H 0.63492 0.27652 0.57532 0.0
C1350 C 0.52686 0.27831 0.61639 0.0
C1351 C 0.50885 0.29543 0.63275 0.0
C1352 C 0.51583 0.324 0.63741 0.0
C1353 C 0.54092 0.33531 0.62671 0.0
C1354 C 0.55888 0.3177 0.61154 0.0
C1355 C 0.55209 0.28986 0.60611 0.0
C1356 C 0.57658 0.27462 0.59227 0.0
C1357 C 0.58671 0.24979 0.61056 0.0
C1358 C 0.5687 0.26483 0.56243 0.0
C1359 C 0.59831 0.29802 0.59141 0.0
C1360 C 0.58763 0.32273 0.60251 0.0
C1361 C 0.60455 0.34642 0.6065 0.0
C1362 C 0.63315 0.34481 0.59901 0.0
C1363 C 0.64447 0.31974 0.58752 0.0
C1364 C 0.62666 0.29623 0.58335 0.0
H1365 H 0.96918 0.69375 0.17112 0.0
H1366 H 0.00646 0.73929 0.10117 0.0
H1367 H 0.96567 0.72683 0.0713 0.0
H1368 H 0.93407 0.63743 0.12982 0.0
H1369 H 0.90305 0.63784 0.15183 0.0
H1370 H 0.93695 0.64666 0.16657 0.0
H1371 H 0.91704 0.69449 0.18396 0.0
H1372 H 0.88313 0.68572 0.16944 0.0
H1373 H 0.90043 0.71787 0.15904 0.0
H1374 H 0.91965 0.71314 0.05036 0.0
H1375 H 0.86972 0.70256 0.04071 0.0
H1376 H 0.8609 0.66723 0.12466 0.0
C1377 C 0.969 0.70045 0.1493 0.0
C1378 C 0.99106 0.71714 0.13824 0.0
C1379 C 0.98977 0.72637 0.10992 0.0
C1380 C 0.96681 0.71925 0.09277 0.0
C1381 C 0.94517 0.70309 0.10436 0.0
C1382 C 0.94592 0.69397 0.13203 0.0
C1383 C 0.91848 0.67967 0.14017 0.0
C1384 C 0.92345 0.64855 0.14753 0.0
C1385 C 0.90392 0.69538 0.16459 0.0
C1386 C 0.90203 0.68265 0.11293 0.0
C1387 C 0.91805 0.69581 0.09244 0.0
C1388 C 0.90699 0.70255 0.06611 0.0
C1389 C 0.87858 0.69647 0.06085 0.0
C1390 C 0.8614 0.68396 0.08186 0.0
C1391 C 0.87358 0.6763 0.10797 0.0
H1392 H 0.33624 0.03739 0.2114 0.0
H1393 H 0.41264 0.99342 0.23602 0.0
H1394 H 0.44067 0.0358 0.22413 0.0
H1395 H 0.36614 0.07773 0.15317 0.0
H1396 H 0.34534 0.10848 0.16128 0.0
H1397 H 0.33193 0.07392 0.16938 0.0
H1398 H 0.32501 0.08862 0.22159 0.0
H1399 H 0.33831 0.12318 0.21365 0.0
H1400 H 0.35454 0.1025 0.24105 0.0
H1401 H 0.45991 0.0846 0.21173 0.0
H1402 H 0.468 0.13528 0.20251 0.0
H1403 H 0.37845 0.14632 0.18693 0.0
C1404 C 0.35892 0.0364 0.21393 0.0
C1405 C 0.37223 0.01195 0.22452 0.0
C1406 C 0.40194 0.01186 0.22789 0.0
C1407 C 0.41805 0.03581 0.2211 0.0
C1408 C 0.40413 0.05967 0.21097 0.0
C1409 C 0.37519 0.06006 0.20749 0.0
C1410 C 0.36491 0.08871 0.19808 0.0
C1411 C 0.35128 0.0871 0.16873 0.0
C1412 C 0.3445 0.1015 0.21989 0.0
C1413 C 0.39252 0.1046 0.19715 0.0
C1414 C 0.41501 0.08753 0.20434 0.0
C1415 C 0.44244 0.09807 0.20589 0.0
C1416 C 0.44685 0.12689 0.20053 0.0
C1417 C 0.42389 0.14486 0.19398 0.0
C1418 C 0.39653 0.13324 0.19179 0.0
H1419 H 0.9393 0.3723 0.77643 0.0
H1420 H 0.90295 0.35523 0.85844 0.0
H1421 H 0.884 0.40364 0.86039 0.0
H1422 H 0.95507 0.44986 0.78866 0.0
H1423 H 0.94506 0.45886 0.75313 0.0
H1424 H 0.96049 0.42494 0.76049 0.0
H1425 H 0.91741 0.40061 0.73751 0.0
H1426 H 0.90169 0.43434 0.73039 0.0
H1427 H 0.88247 0.40841 0.75042 0.0
H1428 H 0.86215 0.44983 0.85017 0.0
H1429 H 0.8408 0.49254 0.82952 0.0
H1430 H 0.89151 0.4816 0.7542 0.0
C1431 C 0.92854 0.37937 0.79531 0.0
C1432 C 0.92328 0.36049 0.81774 0.0
C1433 C 0.90778 0.36974 0.84147 0.0
C1434 C 0.89688 0.39714 0.84269 0.0
C1435 C 0.90156 0.41507 0.8199 0.0
C1436 C 0.9173 0.40677 0.79675 0.0
C1437 C 0.91648 0.42918 0.77386 0.0
C1438 C 0.94604 0.44144 0.76874 0.0
C1439 C 0.90375 0.41742 0.74644 0.0
C1440 C 0.89709 0.45083 0.78738 0.0
C1441 C 0.88892 0.44226 0.81403 0.0
C1442 C 0.86893 0.45714 0.82965 0.0
C1443 C 0.85683 0.48128 0.81772 0.0
C1444 C 0.86487 0.49057 0.79055 0.0
C1445 C 0.88561 0.47537 0.77537 0.0
H1446 H 0.63049 0.52884 0.25036 0.0
H1447 H 0.64211 0.49677 0.33516 0.0
H1448 H 0.61712 0.53822 0.35437 0.0
H1449 H 0.64548 0.59855 0.26697 0.0
H1450 H 0.62034 0.61387 0.24296 0.0
H1451 H 0.63513 0.57977 0.23562 0.0
H1452 H 0.58481 0.55861 0.23257 0.0
H1453 H 0.56987 0.59275 0.23999 0.0
H1454 H 0.56079 0.56298 0.26175 0.0
H1455 H 0.59525 0.58509 0.36474 0.0
H1456 H 0.58035 0.6352 0.36533 0.0
H1457 H 0.58421 0.63738 0.27417 0.0
C1458 C 0.62708 0.53022 0.2729 0.0
C1459 C 0.63792 0.50953 0.29129 0.0
C1460 C 0.63385 0.51242 0.32073 0.0
C1461 C 0.61955 0.53577 0.33182 0.0
C1462 C 0.60957 0.55613 0.31318 0.0
C1463 C 0.61322 0.55365 0.28434 0.0
C1464 C 0.60319 0.57986 0.26916 0.0
C1465 C 0.62748 0.59383 0.25273 0.0
C1466 C 0.57817 0.57314 0.24972 0.0
C1467 C 0.594 0.59769 0.294 0.0
C1468 C 0.59737 0.58344 0.3192 0.0
C1469 C 0.59201 0.59629 0.34514 0.0
C1470 C 0.58351 0.62461 0.34534 0.0
C1471 C 0.58062 0.63954 0.31979 0.0
C1472 C 0.58557 0.6259 0.29387 0.0
H1473 H 0.14044 0.97218 0.75281 0.0
H1474 H 0.14269 0.00582 0.66787 0.0
H1475 H 0.12121 0.96187 0.64984 0.0
H1476 H 0.16289 0.90697 0.73076 0.0
H1477 H 0.14322 0.8846 0.75385 0.0
H1478 H 0.15348 0.91932 0.76547 0.0
H1479 H 0.1037 0.93741 0.77504 0.0
H1480 H 0.09134 0.90209 0.76896 0.0
H1481 H 0.07607 0.93109 0.74973 0.0
H1482 H 0.10362 0.91214 0.64077 0.0
H1483 H 0.08946 0.86173 0.64212 0.0
H1484 H 0.09834 0.86181 0.73297 0.0
C1485 C 0.13551 0.97066 0.73057 0.0
C1486 C 0.14264 0.9925 0.71177 0.0
C1487 C 0.13709 0.9893 0.68261 0.0
C1488 C 0.1249 0.96448 0.6722 0.0
C1489 C 0.11867 0.94302 0.69123 0.0
C1490 C 0.12377 0.94593 0.71981 0.0
C1491 C 0.11828 0.91874 0.73538 0.0
C1492 C 0.14608 0.90676 0.74714 0.0
C1493 C 0.09601 0.92257 0.75865 0.0
C1494 C 0.10748 0.90067 0.71154 0.0
C1495 C 0.10857 0.91467 0.68604 0.0
C1496 C 0.10214 0.90115 0.6607 0.0
C1497 C 0.0942 0.87264 0.6616 0.0
C1498 C 0.09226 0.85841 0.68769 0.0
C1499 C 0.0989 0.87262 0.71287 0.0
H1500 H 0.76623 0.58339 0.86022 0.0
H1501 H 0.85736 0.58734 0.85526 0.0
H1502 H 0.85943 0.60228 0.90525 0.0
H1503 H 0.75654 0.64332 0.9002 0.0
H1504 H 0.72834 0.6305 0.92229 0.0
H1505 H 0.73342 0.61586 0.88772 0.0
H1506 H 0.73755 0.56583 0.90773 0.0
H1507 H 0.73163 0.57961 0.94266 0.0
H1508 H 0.76254 0.55867 0.93544 0.0
H1509 H 0.85142 0.62175 0.9534 0.0
H1510 H 0.83418 0.64366 0.99726 0.0
H1511 H 0.74785 0.62652 0.97223 0.0
C1512 C 0.78657 0.5866 0.87008 0.0
C1513 C 0.81175 0.58372 0.85435 0.0
C1514 C 0.838 0.58896 0.86733 0.0
C1515 C 0.83932 0.59746 0.89562 0.0
C1516 C 0.81415 0.60051 0.9106 0.0
C1517 C 0.78825 0.595 0.89843 0.0
C1518 C 0.76435 0.6017 0.91875 0.0
C1519 C 0.74452 0.62423 0.90651 0.0
C1520 C 0.74806 0.57485 0.92661 0.0
C1521 C 0.78081 0.6129 0.94378 0.0
C1522 C 0.80951 0.6117 0.93868 0.0
C1523 C 0.82903 0.62239 0.9578 0.0
C1524 C 0.819 0.6349 0.98263 0.0
C1525 C 0.78967 0.63665 0.98829 0.0
C1526 C 0.77039 0.62504 0.96874 0.0
H1527 H 0.75236 0.37303 0.47373 0.0
H1528 H 0.66695 0.35117 0.49865 0.0
H1529 H 0.64864 0.3734 0.45552 0.0
H1530 H 0.73481 0.44126 0.43932 0.0
H1531 H 0.76009 0.43586 0.41141 0.0
H1532 H 0.76646 0.42125 0.4459 0.0
H1533 H 0.77214 0.37178 0.42368 0.0
H1534 H 0.76539 0.38606 0.38922 0.0
H1535 H 0.74404 0.35759 0.40239 0.0
H1536 H 0.63987 0.39218 0.40756 0.0
H1537 H 0.6413 0.40779 0.35787 0.0
H1538 H 0.73179 0.41936 0.36392 0.0
C1539 C 0.72976 0.37356 0.47044 0.0
C1540 C 0.71109 0.36042 0.48965 0.0
C1541 C 0.68169 0.36103 0.48425 0.0
C1542 C 0.67104 0.37373 0.45985 0.0
C1543 C 0.69 0.38589 0.44103 0.0
C1544 C 0.71873 0.38611 0.44604 0.0
C1545 C 0.73459 0.39875 0.42128 0.0
C1546 C 0.74989 0.4259 0.43001 0.0
C1547 C 0.75525 0.37725 0.4084 0.0
C1548 C 0.71034 0.40497 0.4014 0.0
C1549 C 0.68479 0.39747 0.41332 0.0
C1550 C 0.65963 0.39874 0.3982 0.0
C1551 C 0.66062 0.40757 0.37004 0.0
C1552 C 0.68652 0.41528 0.35741 0.0
C1553 C 0.7116 0.41443 0.37344 0.0
H1554 H 0.32189 0.87605 0.15132 0.0
H1555 H 0.31456 0.96631 0.13887 0.0
H1556 H 0.30751 0.95849 0.08779 0.0
H1557 H 0.35813 0.86011 0.08436 0.0
H1558 H 0.3393 0.82743 0.08009 0.0
H1559 H 0.34677 0.84058 0.11492 0.0
H1560 H 0.29351 0.83828 0.12721 0.0
H1561 H 0.28584 0.82535 0.09242 0.0
H1562 H 0.2685 0.85662 0.10526 0.0
H1563 H 0.29599 0.94002 0.03864 0.0
H1564 H 0.28328 0.91285 0.99596 0.0
H1565 H 0.29909 0.83505 0.04131 0.0
C1566 C 0.31936 0.89428 0.13785 0.0
C1567 C 0.31881 0.92182 0.1492 0.0
C1568 C 0.31524 0.94502 0.13072 0.0
C1569 C 0.31116 0.94077 0.10166 0.0
C1570 C 0.31102 0.91324 0.09135 0.0
C1571 C 0.31535 0.89044 0.10891 0.0
C1572 C 0.31275 0.86289 0.09308 0.0
C1573 C 0.34092 0.84681 0.09311 0.0
C1574 C 0.28872 0.84473 0.10521 0.0
C1575 C 0.30563 0.87365 0.06394 0.0
C1576 C 0.3048 0.90273 0.06324 0.0
C1577 C 0.29699 0.91726 0.03889 0.0
C1578 C 0.28972 0.90164 0.01476 0.0
C1579 C 0.29033 0.87179 0.01515 0.0
C1580 C 0.29875 0.85782 0.04008 0.0
H1581 H 0.17539 0.13199 0.64664 0.0
H1582 H 0.19503 0.04354 0.63508 0.0
H1583 H 0.20084 0.05133 0.584 0.0
H1584 H 0.1392 0.14308 0.57645 0.0
H1585 H 0.15452 0.17763 0.57283 0.0
H1586 H 0.14626 0.16402 0.60735 0.0
H1587 H 0.19798 0.17259 0.62279 0.0
H1588 H 0.20651 0.1858 0.58833 0.0
H1589 H 0.22629 0.15682 0.60285 0.0
H1590 H 0.21233 0.06991 0.53617 0.0
H1591 H 0.2264 0.09782 0.49448 0.0
H1592 H 0.19933 0.17412 0.5372 0.0
C1593 C 0.17976 0.1141 0.63315 0.0
C1594 C 0.18457 0.08715 0.64466 0.0
C1595 C 0.19119 0.06436 0.62655 0.0
C1596 C 0.19445 0.06855 0.59753 0.0
C1597 C 0.19088 0.09564 0.58693 0.0
C1598 C 0.18333 0.11799 0.60411 0.0
C1599 C 0.18392 0.1455 0.58803 0.0
C1600 C 0.1542 0.15831 0.58604 0.0
C1601 C 0.20492 0.16639 0.60129 0.0
C1602 C 0.19409 0.13525 0.55956 0.0
C1603 C 0.19764 0.1064 0.55921 0.0
C1604 C 0.20908 0.09246 0.53596 0.0
C1605 C 0.21718 0.10849 0.51245 0.0
C1606 C 0.2139 0.13813 0.51251 0.0
C1607 C 0.20181 0.15147 0.53629 0.0
H1608 H 0.97785 0.75507 0.62907 0.0
H1609 H 1.00033 0.83877 0.65832 0.0
H1610 H 0.95771 0.85808 0.63601 0.0
H1611 H 0.94612 0.77769 0.56096 0.0
H1612 H 0.9185 0.75169 0.563 0.0
H1613 H 0.95244 0.74465 0.57858 0.0
H1614 H 0.92822 0.73467 0.62653 0.0
H1615 H 0.89427 0.74184 0.61122 0.0
H1616 H 0.90564 0.7611 0.64191 0.0
H1617 H 0.91003 0.86759 0.61628 0.0
H1618 H 0.86106 0.86665 0.5983 0.0
H1619 H 0.86984 0.7777 0.5796 0.0
C1620 C 0.97415 0.77755 0.6302 0.0
C1621 C 0.99253 0.79535 0.6455 0.0
C1622 C 0.9866 0.82461 0.64685 0.0
C1623 C 0.96246 0.83586 0.63413 0.0
C1624 C 0.94443 0.8177 0.61985 0.0
C1625 C 0.95005 0.78921 0.61755 0.0
C1626 C 0.92618 0.77412 0.60254 0.0
C1627 C 0.93643 0.76128 0.5746 0.0
C1628 C 0.9128 0.75161 0.62169 0.0
C1629 C 0.90608 0.79848 0.59745 0.0
C1630 C 0.91708 0.82344 0.60756 0.0
C1631 C 0.90143 0.84833 0.60766 0.0
C1632 C 0.87367 0.84763 0.59746 0.0
C1633 C 0.86201 0.82232 0.58698 0.0
C1634 C 0.87862 0.79757 0.58659 0.0
H1635 H 0.54096 0.20942 0.17518 0.0
H1636 H 0.49401 0.22178 0.09763 0.0
H1637 H 0.53572 0.2067 0.07017 0.0
H1638 H 0.60534 0.23697 0.14954 0.0
H1639 H 0.62728 0.21273 0.16885 0.0
H1640 H 0.59304 0.22216 0.18231 0.0
H1641 H 0.57927 0.16933 0.18425 0.0
H1642 H 0.61345 0.15976 0.17057 0.0
H1643 H 0.58193 0.14816 0.1528 0.0
H1644 H 0.58345 0.19377 0.0511 0.0
H1645 H 0.63415 0.18583 0.04178 0.0
H1646 H 0.64992 0.18123 0.13168 0.0
C1647 C 0.53926 0.20856 0.15243 0.0
C1648 C 0.5141 0.21663 0.13856 0.0
C1649 C 0.51301 0.21569 0.10874 0.0
C1650 C 0.53656 0.20701 0.09297 0.0
C1651 C 0.56106 0.19936 0.10731 0.0
C1652 C 0.56261 0.20016 0.13638 0.0
C1653 C 0.592 0.1928 0.14659 0.0
C1654 C 0.60518 0.21764 0.16277 0.0
C1655 C 0.59163 0.16591 0.16462 0.0
C1656 C 0.60684 0.18788 0.11871 0.0
C1657 C 0.58857 0.19166 0.09631 0.0
C1658 C 0.59784 0.19032 0.06846 0.0
C1659 C 0.62663 0.18574 0.06336 0.0
C1660 C 0.64581 0.18236 0.08597 0.0
C1661 C 0.6356 0.18281 0.11397 0.0
H1662 H 0.36757 0.72409 0.43448 0.0
H1663 H 0.35727 0.63759 0.40703 0.0
H1664 H 0.40699 0.63654 0.39155 0.0
H1665 H 0.4068 0.74543 0.37686 0.0
H1666 H 0.42982 0.76911 0.39558 0.0
H1667 H 0.39514 0.76181 0.40913 0.0
H1668 H 0.41677 0.74576 0.45659 0.0
H1669 H 0.45162 0.75312 0.44321 0.0
H1670 H 0.44342 0.71865 0.45682 0.0
H1671 H 0.45476 0.64653 0.37307 0.0
H1672 H 0.49798 0.66698 0.35253 0.0
H1673 H 0.47875 0.74722 0.39162 0.0
C1674 C 0.37612 0.70464 0.42613 0.0
C1675 C 0.35869 0.68073 0.42233 0.0
C1676 C 0.37031 0.65602 0.41034 0.0
C1677 C 0.39855 0.65522 0.40157 0.0
C1678 C 0.41497 0.67934 0.40484 0.0
C1679 C 0.40429 0.7036 0.41692 0.0
C1680 C 0.42556 0.72749 0.41513 0.0
C1681 C 0.41361 0.75242 0.39816 0.0
C1682 C 0.4349 0.7368 0.4447 0.0
C1683 C 0.44951 0.71307 0.39943 0.0
C1684 C 0.44297 0.68519 0.39404 0.0
C1685 C 0.4604 0.66812 0.37769 0.0
C1686 C 0.48487 0.6799 0.36609 0.0
C1687 C 0.49189 0.70842 0.371 0.0
C1688 C 0.47428 0.7251 0.38835 0.0
H1689 H 0.14907 0.32682 0.87273 0.0
H1690 H 0.13676 0.31244 0.96216 0.0
H1691 H 0.08574 0.30586 0.95428 0.0
H1692 H 0.07938 0.36218 0.85895 0.0
H1693 H 0.0758 0.34492 0.8253 0.0
H1694 H 0.11035 0.35347 0.83863 0.0
H1695 H 0.12523 0.30122 0.83323 0.0
H1696 H 0.09071 0.29244 0.82027 0.0
H1697 H 0.10478 0.27423 0.85048 0.0
H1698 H 0.03764 0.29417 0.93605 0.0
H1699 H 0.99555 0.28003 0.90878 0.0
H1700 H 0.03916 0.3017 0.83119 0.0
C1701 C 0.13542 0.32339 0.89073 0.0
C1702 C 0.14672 0.32045 0.91809 0.0
C1703 C 0.12841 0.31493 0.94105 0.0
C1704 C 0.09942 0.3112 0.93679 0.0
C1705 C 0.08903 0.31307 0.90943 0.0
C1706 C 0.1064 0.31931 0.88679 0.0
C1707 C 0.09043 0.31732 0.85922 0.0
C1708 C 0.0889 0.34619 0.84467 0.0
C1709 C 0.10357 0.29497 0.83967 0.0
C1710 C 0.06171 0.30817 0.86985 0.0
C1711 C 0.06122 0.30611 0.89888 0.0
C1712 C 0.03758 0.29617 0.91332 0.0
C1713 C 0.01382 0.28806 0.89766 0.0
C1714 C 0.01394 0.28983 0.86786 0.0
C1715 C 0.03818 0.30037 0.85396 0.0
H1716 H 0.61475 0.98017 0.75965 0.0
H1717 H 0.66705 0.994 0.83324 0.0
H1718 H 0.64702 0.9517 0.85571 0.0
H1719 H 0.55245 0.948 0.79782 0.0
H1720 H 0.54674 0.92277 0.77002 0.0
H1721 H 0.5609 0.95705 0.76188 0.0
H1722 H 0.60383 0.93358 0.73747 0.0
H1723 H 0.5899 0.89934 0.7456 0.0
H1724 H 0.62496 0.90868 0.7569 0.0
H1725 H 0.62765 0.9046 0.86705 0.0
H1726 H 0.60991 0.85571 0.8664 0.0
H1727 H 0.56972 0.87166 0.78582 0.0
C1728 C 0.62109 0.97478 0.78091 0.0
C1729 C 0.64214 0.99044 0.79492 0.0
C1730 C 0.6508 0.98229 0.82228 0.0
C1731 C 0.63946 0.95838 0.83526 0.0
C1732 C 0.61945 0.94275 0.82061 0.0
C1733 C 0.61017 0.95064 0.79409 0.0
C1734 C 0.59105 0.92827 0.78164 0.0
C1735 C 0.561 0.93971 0.77761 0.0
C1736 C 0.60317 0.91679 0.75377 0.0
C1737 C 0.59198 0.90624 0.80479 0.0
C1738 C 0.60816 0.91521 0.82726 0.0
C1739 C 0.6144 0.89754 0.8499 0.0
C1740 C 0.60431 0.86978 0.84933 0.0
C1741 C 0.58816 0.85996 0.82628 0.0
C1742 C 0.58139 0.87873 0.80411 0.0
H1743 H 0.1231 0.52966 0.24962 0.0
H1744 H 0.1555 0.50756 0.16683 0.0
H1745 H 0.13514 0.5509 0.14717 0.0
H1746 H 0.05683 0.56378 0.22437 0.0
H1747 H 0.05847 0.59089 0.25092 0.0
H1748 H 0.07267 0.55641 0.25811 0.0
H1749 H 0.12091 0.57878 0.27065 0.0
H1750 H 0.1069 0.61325 0.26345 0.0
H1751 H 0.13815 0.60129 0.24535 0.0
H1752 H 0.11718 0.59903 0.1375 0.0
H1753 H 0.10069 0.64845 0.13839 0.0
H1754 H 0.07792 0.63918 0.2265 0.0
C1755 C 0.12529 0.53363 0.22725 0.0
C1756 C 0.14095 0.51519 0.20982 0.0
C1757 C 0.14375 0.5214 0.1807 0.0
C1758 C 0.13213 0.54593 0.16924 0.0
C1759 C 0.11751 0.56404 0.18706 0.0
C1760 C 0.11378 0.55815 0.21538 0.0
C1761 C 0.09882 0.58223 0.23018 0.0
C1762 C 0.06998 0.57275 0.24156 0.0
C1763 C 0.1173 0.59461 0.25379 0.0
C1764 C 0.09551 0.60276 0.20591 0.0
C1765 C 0.10633 0.59178 0.1812 0.0
C1766 C 0.10804 0.60768 0.15654 0.0
C1767 C 0.09871 0.6357 0.15723 0.0
C1768 C 0.0876 0.64738 0.18232 0.0
C1769 C 0.08556 0.6305 0.2068 0.0
H1770 H 0.37656 0.35782 0.69075 0.0
H1771 H 0.46689 0.37078 0.69825 0.0
H1772 H 0.45872 0.42166 0.70587 0.0
H1773 H 0.36061 0.42434 0.65477 0.0
H1774 H 0.32768 0.42854 0.67334 0.0
H1775 H 0.34109 0.39378 0.66605 0.0
H1776 H 0.33838 0.38169 0.7193 0.0
H1777 H 0.32516 0.41641 0.72678 0.0
H1778 H 0.35639 0.40382 0.74437 0.0
H1779 H 0.43988 0.47067 0.71732 0.0
H1780 H 0.41224 0.51333 0.72931 0.0
H1781 H 0.3348 0.46737 0.71307 0.0
C1782 C 0.39472 0.37134 0.69355 0.0
C1783 C 0.42237 0.36024 0.69394 0.0
C1784 C 0.4455 0.37877 0.69778 0.0
C1785 C 0.44107 0.40772 0.70215 0.0
C1786 C 0.41343 0.41782 0.70232 0.0
C1787 C 0.3907 0.40016 0.69781 0.0
C1788 C 0.36302 0.41582 0.70016 0.0
C1789 C 0.34718 0.41561 0.67189 0.0
C1790 C 0.34468 0.40371 0.72407 0.0
C1791 C 0.37363 0.44496 0.70728 0.0
C1792 C 0.40274 0.44583 0.70839 0.0
C1793 C 0.41709 0.47029 0.71612 0.0
C1794 C 0.40122 0.49439 0.72298 0.0
C1795 C 0.37135 0.4938 0.72199 0.0
C1796 C 0.35759 0.46874 0.71373 0.0
H1797 H 0.94043 0.12359 0.31398 0.0
H1798 H 0.86654 0.17385 0.29394 0.0
H1799 H 0.84178 0.13161 0.27776 0.0
H1800 H 0.93333 0.07266 0.25606 0.0
H1801 H 0.94335 0.0426 0.27699 0.0
H1802 H 0.95701 0.077 0.28546 0.0
H1803 H 0.93773 0.0724 0.33634 0.0
H1804 H 0.92418 0.03794 0.32808 0.0
H1805 H 0.90088 0.06469 0.34175 0.0
H1806 H 0.82432 0.08601 0.2645 0.0
H1807 H 0.81213 0.03639 0.25868 0.0
H1808 H 0.89516 0.01182 0.28872 0.0
C1809 C 0.91906 0.12547 0.30617 0.0
C1810 C 0.90528 0.15193 0.30538 0.0
C1811 C 0.87732 0.15375 0.29509 0.0
C1812 C 0.86314 0.12992 0.28559 0.0
C1813 C 0.87702 0.10419 0.28674 0.0
C1814 C 0.90413 0.10147 0.29706 0.0
C1815 C 0.91287 0.07056 0.29748 0.0
C1816 C 0.93814 0.06541 0.27782 0.0
C1817 C 0.91929 0.06083 0.32771 0.0
C1818 C 0.88626 0.05662 0.28612 0.0
C1819 C 0.86623 0.07679 0.27974 0.0
C1820 C 0.83971 0.06994 0.26952 0.0
C1821 C 0.83298 0.04161 0.26641 0.0
C1822 C 0.85254 0.02019 0.2736 0.0
C1823 C 0.87986 0.02776 0.28301 0.0
H1824 H 0.21699 0.35155 0.287 0.0
H1825 H 0.15355 0.39806 0.33406 0.0
H1826 H 0.16211 0.36759 0.37539 0.0
H1827 H 0.19862 0.28526 0.31075 0.0
H1828 H 0.23421 0.27193 0.31238 0.0
H1829 H 0.22556 0.29958 0.28803 0.0
H1830 H 0.26496 0.33055 0.30948 0.0
H1831 H 0.27353 0.3032 0.33438 0.0
H1832 H 0.2648 0.338 0.34675 0.0
H1833 H 0.17436 0.32934 0.40978 0.0
H1834 H 0.18758 0.28512 0.43365 0.0
H1835 H 0.24292 0.26408 0.36367 0.0
C1836 C 0.2051 0.35565 0.30608 0.0
C1837 C 0.18455 0.37717 0.30729 0.0
C1838 C 0.16941 0.38169 0.33265 0.0
C1839 C 0.17423 0.36461 0.35628 0.0
C1840 C 0.19442 0.34335 0.35421 0.0
C1841 C 0.20965 0.33889 0.32975 0.0
C1842 C 0.22854 0.31334 0.3321 0.0
C1843 C 0.22127 0.29123 0.30949 0.0
C1844 C 0.25981 0.32179 0.33059 0.0
C1845 C 0.22065 0.30337 0.3613 0.0
C1846 C 0.20139 0.32125 0.37395 0.0
C1847 C 0.18971 0.31538 0.40026 0.0
C1848 C 0.19736 0.2902 0.41365 0.0
C1849 C 0.21622 0.27111 0.40048 0.0
C1850 C 0.22853 0.27827 0.37434 0.0
H1851 H 0.26812 0.75054 0.8601 0.0
H1852 H 0.2946 0.71795 0.94136 0.0
H1853 H 0.3059 0.67218 0.91909 0.0
H1854 H 0.2388 0.68437 0.83121 0.0
H1855 H 0.25215 0.69204 0.79646 0.0
H1856 H 0.24218 0.72039 0.81968 0.0
H1857 H 0.29202 0.74217 0.81379 0.0
H1858 H 0.30214 0.71373 0.79089 0.0
H1859 H 0.32266 0.7212 0.82196 0.0
H1860 H 0.31804 0.63106 0.88668 0.0
H1861 H 0.33062 0.5992 0.84715 0.0
H1862 H 0.29787 0.66055 0.78781 0.0
C1863 C 0.27557 0.73361 0.87345 0.0
C1864 C 0.28027 0.7378 0.90255 0.0
C1865 C 0.29068 0.71519 0.91905 0.0
C1866 C 0.29712 0.68911 0.90659 0.0
C1867 C 0.29304 0.68601 0.87764 0.0
C1868 C 0.28237 0.70768 0.86135 0.0
C1869 C 0.28231 0.70014 0.8304 0.0
C1870 C 0.25205 0.69917 0.81877 0.0
C1871 C 0.30089 0.72051 0.81327 0.0
C1872 C 0.29517 0.67106 0.83169 0.0
C1873 C 0.30086 0.66299 0.85907 0.0
C1874 C 0.3135 0.63713 0.86517 0.0
C1875 C 0.32062 0.61921 0.84264 0.0
C1876 C 0.3155 0.62755 0.81444 0.0
C1877 C 0.30234 0.65368 0.80912 0.0
H1878 H 0.69397 0.24707 0.63846 0.0
H1879 H 0.73768 0.20839 0.56797 0.0
H1880 H 0.73093 0.16137 0.59015 0.0
H1881 H 0.72321 0.20576 0.69145 0.0
H1882 H 0.69139 0.20475 0.71225 0.0
H1883 H 0.69809 0.23421 0.68944 0.0
H1884 H 0.65006 0.22596 0.66423 0.0
H1885 H 0.64329 0.19667 0.68736 0.0
H1886 H 0.64234 0.19176 0.6497 0.0
H1887 H 0.72068 0.11821 0.62313 0.0
H1888 H 0.70933 0.08548 0.66261 0.0
H1889 H 0.67326 0.15537 0.70929 0.0
C1890 C 0.70209 0.22882 0.62741 0.0
C1891 C 0.71647 0.23145 0.6015 0.0
C1892 C 0.72653 0.20685 0.58785 0.0
C1893 C 0.72276 0.1801 0.60029 0.0
C1894 C 0.70864 0.17843 0.62615 0.0
C1895 C 0.6984 0.20233 0.63931 0.0
C1896 C 0.68497 0.19578 0.66734 0.0
C1897 C 0.70035 0.21102 0.69153 0.0
C1898 C 0.65329 0.20296 0.66712 0.0
C1899 C 0.68972 0.16445 0.66844 0.0
C1900 C 0.70308 0.15445 0.64454 0.0
C1901 C 0.71006 0.12593 0.64181 0.0
C1902 C 0.70352 0.10748 0.66425 0.0
C1903 C 0.6905 0.11783 0.68907 0.0
C1904 C 0.68332 0.14663 0.69073 0.0
H1905 H 0.80951 0.74945 0.13756 0.0
H1906 H 0.76714 0.78961 0.06711 0.0
H1907 H 0.7756 0.83633 0.08948 0.0
H1908 H 0.78191 0.79182 0.19084 0.0
H1909 H 0.81387 0.79144 0.21139 0.0
H1910 H 0.80573 0.76229 0.18864 0.0
H1911 H 0.85393 0.76835 0.16334 0.0
H1912 H 0.86223 0.79764 0.18598 0.0
H1913 H 0.86301 0.80199 0.14825 0.0
H1914 H 0.78792 0.87878 0.12215 0.0
H1915 H 0.80078 0.9111 0.16121 0.0
H1916 H 0.83422 0.8404 0.20842 0.0
C1917 C 0.80195 0.76791 0.12649 0.0
C1918 C 0.78754 0.7658 0.10053 0.0
C1919 C 0.77826 0.79072 0.08701 0.0
C1920 C 0.78303 0.81728 0.09955 0.0
C1921 C 0.79727 0.81836 0.12537 0.0
C1922 C 0.80656 0.79414 0.13849 0.0
C1923 C 0.82044 0.80008 0.16644 0.0
C1924 C 0.80452 0.78556 0.19075 0.0
C1925 C 0.85175 0.79151 0.16595 0.0
C1926 C 0.81711 0.83157 0.16758 0.0
C1927 C 0.80402 0.84202 0.1437 0.0
C1928 C 0.79829 0.87071 0.14079 0.0
C1929 C 0.80573 0.88892 0.16303 0.0
C1930 C 0.81842 0.87823 0.18788 0.0
C1931 C 0.82446 0.84925 0.18978 0.0
H1932 H 0.35649 0.23678 0.25686 0.0
H1933 H 0.43745 0.21098 0.29087 0.0
H1934 H 0.41486 0.20198 0.33707 0.0
H1935 H 0.32757 0.26946 0.32139 0.0
H1936 H 0.29271 0.25615 0.31424 0.0
H1937 H 0.31618 0.26437 0.2855 0.0
H1938 H 0.30991 0.21363 0.26621 0.0
H1939 H 0.28675 0.20531 0.29506 0.0
H1940 H 0.31765 0.18407 0.28877 0.0
H1941 H 0.38218 0.19233 0.37873 0.0
H1942 H 0.34234 0.18131 0.41088 0.0
H1943 H 0.28351 0.21188 0.34791 0.0
C1944 C 0.3697 0.22989 0.27414 0.0
C1945 C 0.39881 0.22477 0.27027 0.0
C1946 C 0.41512 0.21516 0.29337 0.0
C1947 C 0.40249 0.21007 0.31971 0.0
C1948 C 0.37356 0.2147 0.32256 0.0
C1949 C 0.35743 0.22445 0.30034 0.0
C1950 C 0.32644 0.22529 0.30781 0.0
C1951 C 0.31508 0.25563 0.3072 0.0
C1952 C 0.30919 0.20591 0.28831 0.0
C1953 C 0.32751 0.21394 0.33753 0.0
C1954 C 0.35484 0.20833 0.34595 0.0
C1955 C 0.36072 0.19684 0.3724 0.0
C1956 C 0.33802 0.19066 0.39051 0.0
C1957 C 0.30989 0.19554 0.38177 0.0
C1958 C 0.30479 0.2077 0.35511 0.0
H1959 H 0.19994 0.85073 0.85296 0.0
H1960 H 0.17637 0.78753 0.9144 0.0
H1961 H 0.13707 0.77208 0.88347 0.0
H1962 H 0.12598 0.86634 0.83492 0.0
H1963 H 0.13169 0.87266 0.79821 0.0
H1964 H 0.15871 0.88182 0.82335 0.0
H1965 H 0.197 0.85113 0.80122 0.0
H1966 H 0.17328 0.84353 0.77276 0.0
H1967 H 0.18936 0.81507 0.79209 0.0
H1968 H 0.10414 0.76001 0.84226 0.0
H1969 H 0.08061 0.75355 0.79589 0.0
H1970 H 0.12558 0.82597 0.7633 0.0
C1971 C 0.18619 0.83392 0.86001 0.0
C1972 C 0.19105 0.82015 0.8858 0.0
C1973 C 0.17266 0.79841 0.89468 0.0
C1974 C 0.15038 0.78952 0.87726 0.0
C1975 C 0.14644 0.80319 0.85151 0.0
C1976 C 0.16357 0.82531 0.84328 0.0
C1977 C 0.15518 0.83655 0.81476 0.0
C1978 C 0.14221 0.8661 0.81797 0.0
C1979 C 0.18019 0.83654 0.794 0.0
C1980 C 0.13292 0.81528 0.80668 0.0
C1981 C 0.12729 0.79678 0.82846 0.0
C1982 C 0.10812 0.77465 0.82523 0.0
C1983 C 0.09487 0.7711 0.79891 0.0
C1984 C 0.10147 0.78917 0.77615 0.0
C1985 C 0.12026 0.81179 0.78038 0.0
H1986 H 0.78856 0.27994 0.6528 0.0
H1987 H 0.83804 0.33804 0.60223 0.0
H1988 H 0.87885 0.33043 0.63367 0.0
H1989 H 0.81237 0.30236 0.71789 0.0
H1990 H 0.81288 0.26793 0.7339 0.0
H1991 H 0.78899 0.27514 0.70541 0.0
H1992 H 0.80953 0.23296 0.67766 0.0
H1993 H 0.83402 0.22574 0.70578 0.0
H1994 H 0.84687 0.23144 0.67049 0.0
H1995 H 0.91257 0.32011 0.67328 0.0
H1996 H 0.93588 0.30912 0.71846 0.0
H1997 H 0.86401 0.25785 0.74279 0.0
C1998 C 0.80809 0.29075 0.64798 0.0
C1999 C 0.81007 0.30961 0.62501 0.0
C2000 C 0.836 0.32346 0.61966 0.0
C2001 C 0.85934 0.31918 0.63733 0.0
C2002 C 0.85646 0.30082 0.66009 0.0
C2003 C 0.8315 0.28675 0.66536 0.0
C2004 C 0.8331 0.26981 0.69232 0.0
C2005 C 0.81051 0.27941 0.71363 0.0
C2006 C 0.83074 0.23811 0.68619 0.0
C2007 C 0.86247 0.27748 0.70204 0.0
C2008 C 0.87582 0.29497 0.68294 0.0
C2009 C 0.90248 0.30612 0.68821 0.0
C2010 C 0.91556 0.29974 0.71395 0.0
C2011 C 0.90179 0.28262 0.73421 0.0
C2012 C 0.8752 0.27087 0.72773 0.0
H2013 H 0.64367 0.73849 0.24755 0.0
H2014 H 0.57201 0.68637 0.22462 0.0
H2015 H 0.59622 0.67279 0.18059 0.0
H2016 H 0.66158 0.76153 0.17471 0.0
H2017 H 0.69883 0.76059 0.18223 0.0
H2018 H 0.67397 0.7685 0.2099 0.0
H2019 H 0.69522 0.72762 0.23949 0.0
H2020 H 0.71938 0.71926 0.21142 0.0
H2021 H 0.69593 0.69257 0.22487 0.0
H2022 H 0.63004 0.66139 0.14123 0.0
H2023 H 0.67025 0.65431 0.10884 0.0
H2024 H 0.71972 0.71388 0.15758 0.0
C2025 C 0.63278 0.72466 0.23304 0.0
C2026 C 0.60586 0.71357 0.23958 0.0
C2027 C 0.59252 0.69534 0.22005 0.0
C2028 C 0.60613 0.68744 0.19497 0.0
C2029 C 0.63295 0.69817 0.18956 0.0
C2030 C 0.64601 0.71663 0.20789 0.0
C2031 C 0.67545 0.72401 0.19786 0.0
C2032 C 0.67758 0.75553 0.19075 0.0
C2033 C 0.6978 0.71533 0.21971 0.0
C2034 C 0.67726 0.70609 0.17151 0.0
C2035 C 0.65244 0.69156 0.16692 0.0
C2036 C 0.64948 0.6729 0.14444 0.0
C2037 C 0.67248 0.66895 0.1262 0.0
C2038 C 0.6982 0.68351 0.13059 0.0
C2039 C 0.70037 0.70248 0.15349 0.0
H2040 H 0.34098 0.29061 0.17467 0.0
H2041 H 0.41282 0.34043 0.20134 0.0
H2042 H 0.38045 0.37939 0.21466 0.0
H2043 H 0.30012 0.34831 0.14562 0.0
H2044 H 0.26724 0.3332 0.1572 0.0
H2045 H 0.29656 0.31064 0.14858 0.0
H2046 H 0.29334 0.28775 0.19822 0.0
H2047 H 0.26421 0.31038 0.20708 0.0
H2048 H 0.29515 0.30981 0.22911 0.0
H2049 H 0.3381 0.4123 0.2272 0.0
H2050 H 0.29155 0.43514 0.23571 0.0
H2051 H 0.25006 0.36162 0.20059 0.0
C2052 C 0.35009 0.30975 0.18311 0.0
C2053 C 0.37944 0.31244 0.18704 0.0
C2054 C 0.39037 0.33796 0.19803 0.0
C2055 C 0.37213 0.36015 0.20572 0.0
C2056 C 0.34314 0.35648 0.20201 0.0
C2057 C 0.33238 0.3319 0.19068 0.0
C2058 C 0.30065 0.33246 0.18912 0.0
C2059 C 0.29056 0.33108 0.15831 0.0
C2060 C 0.28759 0.3087 0.20695 0.0
C2061 C 0.29498 0.36096 0.20188 0.0
C2062 C 0.31951 0.37483 0.20911 0.0
C2063 C 0.31881 0.40158 0.22147 0.0
C2064 C 0.29233 0.41438 0.2263 0.0
C2065 C 0.26708 0.40024 0.21889 0.0
C2066 C 0.26878 0.37319 0.20663 0.0
H2067 H 0.84727 0.22037 0.7986 0.0
H2068 H 0.91123 0.16125 0.82659 0.0
H2069 H 0.87925 0.12162 0.81475 0.0
H2070 H 0.78891 0.18502 0.82621 0.0
H2071 H 0.76586 0.19358 0.79725 0.0
H2072 H 0.79467 0.2166 0.80592 0.0
H2073 H 0.81344 0.21263 0.75481 0.0
H2074 H 0.78478 0.18942 0.74586 0.0
H2075 H 0.82072 0.17841 0.74004 0.0
H2076 H 0.83803 0.08898 0.80384 0.0
H2077 H 0.7922 0.06624 0.79388 0.0
H2078 H 0.75672 0.1476 0.77184 0.0
C2079 C 0.85472 0.1991 0.80215 0.0
C2080 C 0.88162 0.19385 0.81378 0.0
C2081 C 0.89065 0.16571 0.81774 0.0
C2082 C 0.87266 0.14313 0.81105 0.0
C2083 C 0.84602 0.14916 0.80002 0.0
C2084 C 0.83726 0.17651 0.79538 0.0
C2085 C 0.80739 0.17771 0.78437 0.0
C2086 C 0.78808 0.19419 0.80465 0.0
C2087 C 0.80655 0.19027 0.75449 0.0
C2088 C 0.80028 0.14672 0.78415 0.0
C2089 C 0.82279 0.13051 0.79312 0.0
C2090 C 0.82043 0.10144 0.79641 0.0
C2091 C 0.79429 0.08873 0.79076 0.0
C2092 C 0.77088 0.1051 0.78191 0.0
C2093 C 0.77425 0.13439 0.77814 0.0
H2094 H 0.74885 0.84999 0.27091 0.0
H2095 H 0.7115 0.93222 0.28523 0.0
H2096 H 0.66592 0.90964 0.29655 0.0
H2097 H 0.68553 0.81522 0.24134 0.0
H2098 H 0.6933 0.7826 0.25914 0.0
H2099 H 0.72161 0.80551 0.24838 0.0
H2100 H 0.74008 0.80633 0.29982 0.0
H2101 H 0.71164 0.78374 0.3107 0.0
H2102 H 0.71676 0.81723 0.32784 0.0
H2103 H 0.62521 0.87761 0.30994 0.0
H2104 H 0.5935 0.83879 0.32479 0.0
H2105 H 0.6587 0.77827 0.3031 0.0
C2106 C 0.73091 0.86331 0.27568 0.0
C2107 C 0.73368 0.89288 0.27698 0.0
C2108 C 0.70983 0.9095 0.28402 0.0
C2109 C 0.68383 0.89689 0.29042 0.0
C2110 C 0.68203 0.86762 0.28972 0.0
C2111 C 0.70494 0.85106 0.28241 0.0
C2112 C 0.69828 0.82009 0.28553 0.0
C2113 C 0.69976 0.80498 0.25689 0.0
C2114 C 0.71784 0.80604 0.30727 0.0
C2115 C 0.66826 0.82182 0.29624 0.0
C2116 C 0.65904 0.84933 0.2982 0.0
C2117 C 0.63216 0.85596 0.30832 0.0
C2118 C 0.61432 0.83383 0.31675 0.0
C2119 C 0.6237 0.80556 0.31537 0.0
C2120 C 0.65094 0.79967 0.30471 0.0
H2121 H 0.24195 0.6402 0.75347 0.0
H2122 H 0.21983 0.56878 0.70081 0.0
H2123 H 0.17424 0.59129 0.68963 0.0
H2124 H 0.16854 0.65605 0.77903 0.0
H2125 H 0.17553 0.69335 0.7781 0.0
H2126 H 0.20366 0.66893 0.78559 0.0
H2127 H 0.23258 0.69059 0.7443 0.0
H2128 H 0.20416 0.71438 0.73652 0.0
H2129 H 0.21747 0.69126 0.70945 0.0
H2130 H 0.1344 0.62475 0.67867 0.0
H2131 H 0.1031 0.66557 0.67028 0.0
H2132 H 0.15164 0.71453 0.73042 0.0
C2133 C 0.22725 0.6289 0.74017 0.0
C2134 C 0.2345 0.60273 0.728 0.0
C2135 C 0.21471 0.58878 0.71052 0.0
C2136 C 0.18873 0.6014 0.70405 0.0
C2137 C 0.18273 0.62775 0.71554 0.0
C2138 C 0.20129 0.64114 0.73357 0.0
C2139 C 0.19108 0.67033 0.74122 0.0
C2140 C 0.18429 0.67227 0.77286 0.0
C2141 C 0.2126 0.69295 0.73233 0.0
C2142 C 0.16454 0.6718 0.72364 0.0
C2143 C 0.15979 0.64694 0.70929 0.0
C2144 C 0.13761 0.64415 0.6902 0.0
C2145 C 0.12 0.66748 0.68549 0.0
C2146 C 0.12487 0.69328 0.69967 0.0
C2147 C 0.14717 0.69511 0.71934 0.0
H2148 H 0.84194 0.65929 0.70607 0.0
H2149 H 0.80577 0.58909 0.66027 0.0
H2150 H 0.79423 0.62117 0.62054 0.0
H2151 H 0.79134 0.7084 0.6886 0.0
H2152 H 0.8155 0.73756 0.68586 0.0
H2153 H 0.82367 0.7084 0.70858 0.0
H2154 H 0.87137 0.70082 0.68253 0.0
H2155 H 0.86335 0.73041 0.66019 0.0
H2156 H 0.87157 0.6967 0.64475 0.0
H2157 H 0.78256 0.66348 0.58765 0.0
H2158 H 0.7734 0.7102 0.56567 0.0
H2159 H 0.81805 0.75038 0.63459 0.0
C2160 C 0.832 0.65047 0.68752 0.0
C2161 C 0.82473 0.62172 0.68623 0.0
C2162 C 0.81174 0.61105 0.66156 0.0
C2163 C 0.80506 0.62914 0.63895 0.0
C2164 C 0.81189 0.65766 0.6413 0.0
C2165 C 0.82543 0.66804 0.66494 0.0
C2166 C 0.82928 0.69951 0.66349 0.0
C2167 C 0.81403 0.71432 0.68808 0.0
C2168 C 0.86077 0.7073 0.66268 0.0
C2169 C 0.81514 0.70555 0.63569 0.0
C2170 C 0.80536 0.68134 0.62286 0.0
C2171 C 0.79045 0.68248 0.59744 0.0
C2172 C 0.78531 0.70905 0.5851 0.0
C2173 C 0.79483 0.73398 0.59844 0.0
C2174 C 0.81026 0.73185 0.6238 0.0
H2175 H 0.67833 0.25698 0.12353 0.0
H2176 H 0.74701 0.29145 0.07399 0.0
H2177 H 0.74188 0.337 0.09927 0.0
H2178 H 0.63626 0.32352 0.13015 0.0
H2179 H 0.62596 0.31461 0.16565 0.0
H2180 H 0.63203 0.28714 0.14012 0.0
H2181 H 0.66805 0.26409 0.17398 0.0
H2182 H 0.66256 0.29169 0.1993 0.0
H2183 H 0.69763 0.28443 0.18645 0.0
H2184 H 0.73414 0.37555 0.13554 0.0
H2185 H 0.72244 0.40482 0.17736 0.0
H2186 H 0.65865 0.34454 0.20222 0.0
C2187 C 0.69181 0.27438 0.11745 0.0
C2188 C 0.71308 0.2709 0.09689 0.0
C2189 C 0.7304 0.29395 0.08949 0.0
C2190 C 0.72766 0.31977 0.1038 0.0
C2191 C 0.70717 0.32209 0.12492 0.0
C2192 C 0.6892 0.30009 0.13129 0.0
C2193 C 0.67053 0.30676 0.15631 0.0
C2194 C 0.63935 0.3081 0.14752 0.0
C2195 C 0.67499 0.28548 0.18042 0.0
C2196 C 0.68162 0.33554 0.16395 0.0
C2197 C 0.70252 0.34425 0.14546 0.0
C2198 C 0.7174 0.36923 0.14972 0.0
C2199 C 0.71076 0.38561 0.17345 0.0
C2200 C 0.68955 0.3768 0.19244 0.0
C2201 C 0.67465 0.35172 0.18754 0.0
H2202 H 0.27806 0.75283 0.363 0.0
H2203 H 0.28828 0.79047 0.44562 0.0
H2204 H 0.29678 0.83697 0.42298 0.0
H2205 H 0.33243 0.78824 0.33002 0.0
H2206 H 0.31466 0.79179 0.29664 0.0
H2207 H 0.30609 0.76293 0.3196 0.0
H2208 H 0.25355 0.77762 0.31902 0.0
H2209 H 0.2617 0.80658 0.29591 0.0
H2210 H 0.24368 0.81297 0.32877 0.0
H2211 H 0.30865 0.87871 0.38964 0.0
H2212 H 0.32131 0.91056 0.35007 0.0
H2213 H 0.30325 0.84341 0.29076 0.0
C2214 C 0.28168 0.7709 0.37646 0.0
C2215 C 0.28264 0.76807 0.40606 0.0
C2216 C 0.2873 0.79225 0.42289 0.0
C2217 C 0.29221 0.81867 0.41018 0.0
C2218 C 0.29199 0.82045 0.38074 0.0
C2219 C 0.28648 0.79712 0.36423 0.0
C2220 C 0.28885 0.80366 0.33317 0.0
C2221 C 0.31188 0.78559 0.31905 0.0
C2222 C 0.26024 0.80001 0.31835 0.0
C2223 C 0.29733 0.83421 0.33456 0.0
C2224 C 0.29882 0.84383 0.36203 0.0
C2225 C 0.30728 0.87136 0.36809 0.0
C2226 C 0.31448 0.88929 0.34551 0.0
C2227 C 0.31348 0.87944 0.31731 0.0
C2228 C 0.30447 0.85163 0.31203 0.0
H2229 H 0.23931 0.24763 0.86252 0.0
H2230 H 0.2084 0.21299 0.94122 0.0
H2231 H 0.1992 0.16737 0.91725 0.0
H2232 H 0.1889 0.21857 0.8197 0.0
H2233 H 0.21214 0.21213 0.79027 0.0
H2234 H 0.2198 0.24009 0.81461 0.0
H2235 H 0.26885 0.21896 0.82308 0.0
H2236 H 0.26176 0.1899 0.7998 0.0
H2237 H 0.27245 0.18325 0.8356 0.0
H2238 H 0.18683 0.12826 0.88219 0.0
H2239 H 0.17642 0.0982 0.84075 0.0
H2240 H 0.21709 0.15951 0.78639 0.0
C2241 C 0.23122 0.23021 0.87488 0.0
C2242 C 0.22449 0.23362 0.90359 0.0
C2243 C 0.21391 0.21054 0.91919 0.0
C2244 C 0.20853 0.18469 0.90572 0.0
C2245 C 0.21438 0.1824 0.87693 0.0
C2246 C 0.22597 0.2045 0.86191 0.0
C2247 C 0.22871 0.19775 0.83096 0.0
C2248 C 0.21134 0.21835 0.81284 0.0
C2249 C 0.25983 0.19742 0.82186 0.0
C2250 C 0.21618 0.1686 0.8306 0.0
C2251 C 0.20798 0.15995 0.8572 0.0
C2252 C 0.19369 0.13461 0.86137 0.0
C2253 C 0.18772 0.11778 0.83773 0.0
C2254 C 0.19609 0.12643 0.81038 0.0
C2255 C 0.21075 0.15203 0.80703 0.0
H2256 H 0.7209 0.79009 0.65974 0.0
H2257 H 0.66686 0.82803 0.59647 0.0
H2258 H 0.6254 0.82004 0.6271 0.0
H2259 H 0.66994 0.73716 0.68589 0.0
H2260 H 0.68123 0.74152 0.72188 0.0
H2261 H 0.70595 0.74673 0.69344 0.0
H2262 H 0.71707 0.79683 0.71214 0.0
H2263 H 0.69251 0.79176 0.7406 0.0
H2264 H 0.6886 0.8215 0.71733 0.0
H2265 H 0.59005 0.81069 0.66651 0.0
H2266 H 0.56531 0.80391 0.71226 0.0
H2267 H 0.64334 0.77415 0.74937 0.0
C2268 C 0.70029 0.79619 0.65203 0.0
C2269 C 0.69712 0.80955 0.62564 0.0
C2270 C 0.6698 0.81773 0.61662 0.0
C2271 C 0.64609 0.81314 0.6338 0.0
C2272 C 0.65003 0.80034 0.65993 0.0
C2273 C 0.6765 0.79202 0.66898 0.0
C2274 C 0.67561 0.78113 0.69891 0.0
C2275 C 0.68366 0.74978 0.70009 0.0
C2276 C 0.69456 0.79887 0.71838 0.0
C2277 C 0.64471 0.78539 0.70558 0.0
C2278 C 0.63005 0.79589 0.68274 0.0
C2279 C 0.6013 0.80227 0.68447 0.0
C2280 C 0.58739 0.79832 0.71042 0.0
C2281 C 0.60252 0.7887 0.73421 0.0
C2282 C 0.63133 0.78169 0.73147 0.0
H2283 H 0.89504 0.17979 0.23372 0.0
H2284 H 0.91753 0.26666 0.21775 0.0
H2285 H 0.88913 0.26585 0.17384 0.0
H2286 H 0.89292 0.15683 0.15709 0.0
H2287 H 0.86357 0.13371 0.164 0.0
H2288 H 0.88956 0.13998 0.19099 0.0
H2289 H 0.8499 0.1555 0.22509 0.0
H2290 H 0.82382 0.14992 0.19821 0.0
H2291 H 0.82663 0.18383 0.21506 0.0
H2292 H 0.85063 0.25821 0.1379 0.0
H2293 H 0.81029 0.24241 0.10864 0.0
H2294 H 0.81547 0.15944 0.14608 0.0
C2295 C 0.89498 0.19819 0.2202 0.0
C2296 C 0.9088 0.22314 0.22857 0.0
C2297 C 0.90766 0.24719 0.21112 0.0
C2298 C 0.89141 0.24692 0.18634 0.0
C2299 C 0.877 0.22226 0.17922 0.0
C2300 C 0.8793 0.19806 0.19528 0.0
C2301 C 0.86019 0.17494 0.18436 0.0
C2302 C 0.8776 0.14988 0.17345 0.0
C2303 C 0.83888 0.16553 0.20703 0.0
C2304 C 0.84573 0.19026 0.16042 0.0
C2305 C 0.85569 0.21754 0.15777 0.0
C2306 C 0.84332 0.23667 0.13918 0.0
C2307 C 0.82039 0.22762 0.1228 0.0
C2308 C 0.8104 0.19967 0.12488 0.0
C2309 C 0.82338 0.18071 0.14368 0.0
H2310 H 0.22054 0.70896 0.34245 0.0
H2311 H 0.16396 0.67665 0.4067 0.0
H2312 H 0.12303 0.68805 0.37635 0.0
H2313 H 0.17594 0.76601 0.31595 0.0
H2314 H 0.18654 0.75956 0.27998 0.0
H2315 H 0.21042 0.75182 0.30841 0.0
H2316 H 0.21509 0.70058 0.28992 0.0
H2317 H 0.19092 0.70838 0.26181 0.0
H2318 H 0.18374 0.67958 0.28549 0.0
H2319 H 0.0883 0.70109 0.33731 0.0
H2320 H 0.06395 0.71056 0.29191 0.0
H2321 H 0.14423 0.73267 0.25402 0.0
C2322 C 0.19953 0.7047 0.35037 0.0
C2323 C 0.19537 0.6921 0.37697 0.0
C2324 C 0.16757 0.68629 0.38631 0.0
C2325 C 0.14421 0.69286 0.36933 0.0
C2326 C 0.14909 0.7051 0.34306 0.0
C2327 C 0.17613 0.71075 0.33361 0.0
C2328 C 0.1761 0.72144 0.30365 0.0
C2329 C 0.18793 0.75152 0.30193 0.0
C2330 C 0.19241 0.70129 0.28408 0.0
C2331 C 0.14484 0.72089 0.29761 0.0
C2332 C 0.12943 0.71175 0.32059 0.0
C2333 C 0.10016 0.70847 0.31926 0.0
C2334 C 0.08648 0.714 0.29351 0.0
C2335 C 0.10227 0.72224 0.26959 0.0
C2336 C 0.13164 0.72633 0.27202 0.0
H2337 H 0.29261 0.27855 0.85447 0.0
H2338 H 0.34039 0.34175 0.90019 0.0
H2339 H 0.38135 0.33299 0.86914 0.0
H2340 H 0.35438 0.23066 0.8386 0.0
H2341 H 0.33908 0.22197 0.80492 0.0
H2342 H 0.31668 0.23034 0.83453 0.0
H2343 H 0.29284 0.26878 0.803 0.0
H2344 H 0.31663 0.26105 0.77452 0.0
H2345 H 0.3144 0.29638 0.78824 0.0
H2346 H 0.41516 0.32099 0.83009 0.0
H2347 H 0.43807 0.30864 0.78504 0.0
H2348 H 0.36776 0.25373 0.76467 0.0
C2349 C 0.31182 0.29025 0.85834 0.0
C2350 C 0.31323 0.31091 0.87978 0.0
C2351 C 0.33878 0.3258 0.88396 0.0
C2352 C 0.36221 0.32087 0.86651 0.0
C2353 C 0.35987 0.30075 0.84522 0.0
C2354 C 0.33536 0.28556 0.8412 0.0
C2355 C 0.33738 0.26685 0.81542 0.0
C2356 C 0.33684 0.2356 0.82385 0.0
C2357 C 0.31393 0.2737 0.79404 0.0
C2358 C 0.3662 0.2752 0.80455 0.0
C2359 C 0.37919 0.29414 0.82246 0.0
C2360 C 0.40537 0.30589 0.81611 0.0
C2361 C 0.41824 0.29869 0.79046 0.0
C2362 C 0.40472 0.28024 0.77126 0.0
C2363 C 0.37872 0.26781 0.7789 0.0
H2364 H 0.72718 0.6005 0.81224 0.0
H2365 H 0.73915 0.61757 0.72331 0.0
H2366 H 0.69645 0.64739 0.72326 0.0
H2367 H 0.648 0.6029 0.81373 0.0
H2368 H 0.64742 0.62131 0.84697 0.0
H2369 H 0.67569 0.5971 0.83912 0.0
H2370 H 0.71273 0.63662 0.84789 0.0
H2371 H 0.68434 0.66019 0.85673 0.0
H2372 H 0.70924 0.66958 0.82955 0.0
H2373 H 0.65813 0.68081 0.73404 0.0
H2374 H 0.62533 0.71538 0.75482 0.0
H2375 H 0.637 0.67758 0.83718 0.0
C2376 C 0.71998 0.60957 0.79257 0.0
C2377 C 0.73587 0.60624 0.76756 0.0
C2378 C 0.72684 0.61952 0.74248 0.0
C2379 C 0.70265 0.63646 0.74228 0.0
C2380 C 0.68784 0.64009 0.76743 0.0
C2381 C 0.69604 0.62701 0.79214 0.0
C2382 C 0.67854 0.63739 0.81692 0.0
C2383 C 0.66139 0.61323 0.82995 0.0
C2384 C 0.69731 0.65181 0.83909 0.0
C2385 C 0.65955 0.65858 0.80234 0.0
C2386 C 0.66529 0.65967 0.77375 0.0
C2387 C 0.65289 0.67966 0.75623 0.0
C2388 C 0.63439 0.69926 0.76823 0.0
C2389 C 0.62828 0.6987 0.79744 0.0
C2390 C 0.64062 0.67779 0.81464 0.0
H2391 H 0.24433 0.86259 0.24951 0.0
H2392 H 0.22289 0.93507 0.19795 0.0
H2393 H 0.17759 0.91273 0.18555 0.0
H2394 H 0.2198 0.81171 0.20445 0.0
H2395 H 0.20591 0.78862 0.23124 0.0
H2396 H 0.23459 0.81194 0.23946 0.0
H2397 H 0.20576 0.83272 0.2806 0.0
H2398 H 0.1763 0.81016 0.27248 0.0
H2399 H 0.17143 0.84772 0.27403 0.0
H2400 H 0.13763 0.88006 0.17398 0.0
H2401 H 0.10553 0.84009 0.16519 0.0
H2402 H 0.1532 0.78926 0.22455 0.0
C2403 C 0.22988 0.87409 0.23611 0.0
C2404 C 0.23722 0.90059 0.22468 0.0
C2405 C 0.21773 0.9148 0.20706 0.0
C2406 C 0.19192 0.90229 0.1999 0.0
C2407 C 0.18577 0.87575 0.21081 0.0
C2408 C 0.20406 0.86196 0.2288 0.0
C2409 C 0.19341 0.83282 0.23611 0.0
C2410 C 0.21469 0.80994 0.22727 0.0
C2411 C 0.18631 0.83075 0.26768 0.0
C2412 C 0.16698 0.83185 0.21828 0.0
C2413 C 0.16267 0.85696 0.20421 0.0
C2414 C 0.14053 0.86044 0.18521 0.0
C2415 C 0.12247 0.83758 0.18028 0.0
C2416 C 0.12683 0.8115 0.19412 0.0
C2417 C 0.14916 0.80891 0.21369 0.0
H2418 H 0.25846 0.14527 0.72922 0.0
H2419 H 0.29499 0.06331 0.71209 0.0
H2420 H 0.34152 0.08598 0.70361 0.0
H2421 H 0.29233 0.18096 0.67589 0.0
H2422 H 0.29671 0.2132 0.69546 0.0
H2423 H 0.26796 0.18996 0.70368 0.0
H2424 H 0.28445 0.18777 0.75536 0.0
H2425 H 0.31368 0.21072 0.74774 0.0
H2426 H 0.31993 0.1768 0.76361 0.0
H2427 H 0.38308 0.11968 0.6918 0.0
H2428 H 0.41443 0.15987 0.67958 0.0
H2429 H 0.34849 0.21796 0.70514 0.0
C2430 C 0.27633 0.13194 0.72416 0.0
C2431 C 0.27318 0.10259 0.72118 0.0
C2432 C 0.29706 0.08588 0.71462 0.0
C2433 C 0.3235 0.09859 0.70972 0.0
C2434 C 0.32559 0.12788 0.71191 0.0
C2435 C 0.30256 0.14418 0.71936 0.0
C2436 C 0.30924 0.1752 0.7186 0.0
C2437 C 0.29046 0.19071 0.69713 0.0
C2438 C 0.30671 0.18838 0.7481 0.0
C2439 C 0.33949 0.17406 0.70891 0.0
C2440 C 0.34888 0.14675 0.70527 0.0
C2441 C 0.37595 0.14111 0.69493 0.0
C2442 C 0.39359 0.16401 0.688 0.0
C2443 C 0.38385 0.19205 0.6912 0.0
C2444 C 0.35662 0.19683 0.70222 0.0
H2445 H 0.76721 0.39164 0.32334 0.0
H2446 H 0.78227 0.41422 0.23618 0.0
H2447 H 0.82819 0.38917 0.23758 0.0
H2448 H 0.84446 0.39579 0.34613 0.0
H2449 H 0.83932 0.36683 0.37016 0.0
H2450 H 0.8108 0.39096 0.3631 0.0
H2451 H 0.77938 0.3484 0.34888 0.0
H2452 H 0.80813 0.3246 0.35521 0.0
H2453 H 0.79118 0.32514 0.32121 0.0
H2454 H 0.86615 0.35341 0.24561 0.0
H2455 H 0.89666 0.31404 0.2613 0.0
H2456 H 0.8594 0.31818 0.34457 0.0
C2457 C 0.78075 0.39206 0.30491 0.0
C2458 C 0.77164 0.40478 0.27968 0.0
C2459 C 0.78935 0.40481 0.25574 0.0
C2460 C 0.81533 0.39064 0.25639 0.0
C2461 C 0.82339 0.37738 0.2814 0.0
C2462 C 0.80696 0.37866 0.30548 0.0
C2463 C 0.81929 0.36103 0.32902 0.0
C2464 C 0.82905 0.37977 0.35356 0.0
C2465 C 0.79824 0.33846 0.33914 0.0
C2466 C 0.84419 0.34805 0.31386 0.0
C2467 C 0.84635 0.35793 0.28647 0.0
C2468 C 0.86537 0.34629 0.26727 0.0
C2469 C 0.88247 0.32395 0.27626 0.0
C2470 C 0.88064 0.31389 0.30422 0.0
C2471 C 0.86171 0.32637 0.32338 0.0
loop_
_geom_bond_atom_site_label_1
_geom_bond_atom_site_label_2
_geom_bond_distance
_geom_bond_site_symmetry_2
_ccdc_geom_bond_type
Fe0 O2 1.918 . S
Fe0 O5 1.997 . S
Fe0 O6 2.002 . S
Fe0 O11 1.976 . S
Fe0 O14 1.996 . S
Fe1 O2 1.918 . S
Fe1 O9 1.997 . S
Fe1 O12 1.996 . S
Fe1 O16 1.976 . S
Fe1 O19 2.002 . S
O2 Fe0 1.918 . S
O2 Fe1 1.918 . S
O2 Fe3 1.918 . S
Fe3 O2 1.918 . S
Fe3 O4 2.002 . S
Fe3 O13 1.976 . S
Fe3 O17 1.996 . S
Fe3 O20 1.997 . S
O4 Fe3 2.002 . S
O4 C21 1.295 . S
O5 Fe0 1.997 . S
O5 C21 1.235 . S
O6 Fe0 2.002 . S
O6 C7 1.295 . S
C7 O6 1.295 . S
C7 O9 1.235 . S
C8 O13 1.287 . S
C8 O14 1.255 . S
O9 Fe1 1.997 . S
O9 C7 1.235 . S
C10 O16 1.287 . S
C10 O17 1.255 . S
O11 Fe0 1.976 . S
O11 C18 1.287 . S
O12 Fe1 1.996 . S
O12 C18 1.255 . S
O13 Fe3 1.976 . S
O13 C8 1.287 . S
O14 Fe0 1.996 . S
O14 C8 1.255 . S
C15 O19 1.295 . S
C15 O20 1.235 . S
O16 Fe1 1.976 . S
O16 C10 1.287 . S
O17 Fe3 1.996 . S
O17 C10 1.255 . S
C18 O11 1.287 . S
C18 O12 1.255 . S
O19 Fe1 2.002 . S
O19 C15 1.295 . S
O20 Fe3 1.997 . S
O20 C15 1.235 . S
C21 O4 1.295 . S
C21 O5 1.235 . S
Fe22 O24 1.918 . S
Fe22 O27 1.997 . S
Fe22 O28 2.002 . S
Fe22 O33 1.976 . S
Fe22 O36 1.996 . S
Fe23 O24 1.918 . S
Fe23 O31 1.997 . S
Fe23 O34 1.996 . S
Fe23 O38 1.976 . S
Fe23 O41 2.002 . S
O24 Fe22 1.918 . S
O24 Fe23 1.918 . S
O24 Fe25 1.918 . S
Fe25 O24 1.918 . S
Fe25 O26 2.002 . S
Fe25 O35 1.976 . S
Fe25 O39 1.996 . S
Fe25 O42 1.997 . S
O26 Fe25 2.002 . S
O26 C43 1.295 . S
O27 Fe22 1.997 . S
O27 C43 1.235 . S
O28 Fe22 2.002 . S
O28 C29 1.295 . S
C29 O28 1.295 . S
C29 O31 1.235 . S
C30 O35 1.287 . S
C30 O36 1.255 . S
O31 Fe23 1.997 . S
O31 C29 1.235 . S
C32 O38 1.287 . S
C32 O39 1.255 . S
O33 Fe22 1.976 . S
O33 C40 1.287 . S
O34 Fe23 1.996 . S
O34 C40 1.255 . S
O35 Fe25 1.976 . S
O35 C30 1.287 . S
O36 Fe22 1.996 . S
O36 C30 1.255 . S
C37 O41 1.295 . S
C37 O42 1.235 . S
O38 Fe23 1.976 . S
O38 C32 1.287 . S
O39 Fe25 1.996 . S
O39 C32 1.255 . S
C40 O33 1.287 . S
C40 O34 1.255 . S
O41 Fe23 2.002 . S
O41 C37 1.295 . S
O42 Fe25 1.997 . S
O42 C37 1.235 . S
C43 O26 1.295 . S
C43 O27 1.235 . S
Fe44 O46 1.918 . S
Fe44 O49 1.997 . S
Fe44 O50 2.002 . S
Fe44 O55 1.976 . S
Fe44 O58 1.996 . S
Fe45 O46 1.918 . S
Fe45 O53 1.997 . S
Fe45 O56 1.996 . S
Fe45 O60 1.976 . S
Fe45 O63 2.002 . S
O46 Fe44 1.918 . S
O46 Fe45 1.918 . S
O46 Fe47 1.918 . S
Fe47 O46 1.918 . S
Fe47 O48 2.002 . S
Fe47 O57 1.976 . S
Fe47 O61 1.996 . S
Fe47 O64 1.997 . S
O48 Fe47 2.002 . S
O48 C65 1.295 . S
O49 Fe44 1.997 . S
O49 C65 1.235 . S
O50 Fe44 2.002 . S
O50 C51 1.295 . S
C51 O50 1.295 . S
C51 O53 1.235 . S
C52 O57 1.287 . S
C52 O58 1.255 . S
O53 Fe45 1.997 . S
O53 C51 1.235 . S
C54 O60 1.287 . S
C54 O61 1.255 . S
O55 Fe44 1.976 . S
O55 C62 1.287 . S
O56 Fe45 1.996 . S
O56 C62 1.255 . S
O57 Fe47 1.976 . S
O57 C52 1.287 . S
O58 Fe44 1.996 . S
O58 C52 1.255 . S
C59 O63 1.295 . S
C59 O64 1.235 . S
O60 Fe45 1.976 . S
O60 C54 1.287 . S
O61 Fe47 1.996 . S
O61 C54 1.255 . S
C62 O55 1.287 . S
C62 O56 1.255 . S
O63 Fe45 2.002 . S
O63 C59 1.295 . S
O64 Fe47 1.997 . S
O64 C59 1.235 . S
C65 O48 1.295 . S
C65 O49 1.235 . S
Fe66 O68 1.918 . S
Fe66 O71 1.997 . S
Fe66 O72 2.002 . S
Fe66 O77 1.976 . S
Fe66 O80 1.996 . S
Fe67 O68 1.918 . S
Fe67 O75 1.997 . S
Fe67 O78 1.996 . S
Fe67 O82 1.976 . S
Fe67 O85 2.002 . S
O68 Fe66 1.918 . S
O68 Fe67 1.918 . S
O68 Fe69 1.918 . S
Fe69 O68 1.918 . S
Fe69 O70 2.002 . S
Fe69 O79 1.976 . S
Fe69 O83 1.996 . S
Fe69 O86 1.997 . S
O70 Fe69 2.002 . S
O70 C87 1.295 . S
O71 Fe66 1.997 . S
O71 C87 1.235 . S
O72 Fe66 2.002 . S
O72 C73 1.295 . S
C73 O72 1.295 . S
C73 O75 1.235 . S
C74 O79 1.287 . S
C74 O80 1.255 . S
O75 Fe67 1.997 . S
O75 C73 1.235 . S
C76 O82 1.287 . S
C76 O83 1.255 . S
O77 Fe66 1.976 . S
O77 C84 1.287 . S
O78 Fe67 1.996 . S
O78 C84 1.255 . S
O79 Fe69 1.976 . S
O79 C74 1.287 . S
O80 Fe66 1.996 . S
O80 C74 1.255 . S
C81 O85 1.295 . S
C81 O86 1.235 . S
O82 Fe67 1.976 . S
O82 C76 1.287 . S
O83 Fe69 1.996 . S
O83 C76 1.255 . S
C84 O77 1.287 . S
C84 O78 1.255 . S
O85 Fe67 2.002 . S
O85 C81 1.295 . S
O86 Fe69 1.997 . S
O86 C81 1.235 . S
C87 O70 1.295 . S
C87 O71 1.235 . S
Fe88 O90 1.918 . S
Fe88 O93 1.997 . S
Fe88 O94 2.002 . S
Fe88 O99 1.976 . S
Fe88 O102 1.996 . S
Fe89 O90 1.918 . S
Fe89 O97 1.997 . S
Fe89 O100 1.996 . S
Fe89 O104 1.976 . S
Fe89 O107 2.002 . S
O90 Fe88 1.918 . S
O90 Fe89 1.918 . S
O90 Fe91 1.918 . S
Fe91 O90 1.918 . S
Fe91 O92 2.002 . S
Fe91 O101 1.976 . S
Fe91 O105 1.996 . S
Fe91 O108 1.997 . S
O92 Fe91 2.002 . S
O92 C109 1.295 . S
O93 Fe88 1.997 . S
O93 C109 1.235 . S
O94 Fe88 2.002 . S
O94 C95 1.295 . S
C95 O94 1.295 . S
C95 O97 1.235 . S
C96 O101 1.287 . S
C96 O102 1.255 . S
O97 Fe89 1.997 . S
O97 C95 1.235 . S
C98 O104 1.287 . S
C98 O105 1.255 . S
O99 Fe88 1.976 . S
O99 C106 1.287 . S
O100 Fe89 1.996 . S
O100 C106 1.255 . S
O101 Fe91 1.976 . S
O101 C96 1.287 . S
O102 Fe88 1.996 . S
O102 C96 1.255 . S
C103 O107 1.295 . S
C103 O108 1.235 . S
O104 Fe89 1.976 . S
O104 C98 1.287 . S
O105 Fe91 1.996 . S
O105 C98 1.255 . S
C106 O99 1.287 . S
C106 O100 1.255 . S
O107 Fe89 2.002 . S
O107 C103 1.295 . S
O108 Fe91 1.997 . S
O108 C103 1.235 . S
C109 O92 1.295 . S
C109 O93 1.235 . S
Fe110 O112 1.918 . S
Fe110 O115 1.997 . S
Fe110 O116 2.002 . S
Fe110 O121 1.976 . S
Fe110 O124 1.996 . S
Fe111 O112 1.918 . S
Fe111 O119 1.997 . S
Fe111 O122 1.996 . S
Fe111 O126 1.976 . S
Fe111 O129 2.002 . S
O112 Fe110 1.918 . S
O112 Fe111 1.918 . S
O112 Fe113 1.918 . S
Fe113 O112 1.918 . S
Fe113 O114 2.002 . S
Fe113 O123 1.976 . S
Fe113 O127 1.996 . S
Fe113 O130 1.997 . S
O114 Fe113 2.002 . S
O114 C131 1.295 . S
O115 Fe110 1.997 . S
O115 C131 1.235 . S
O116 Fe110 2.002 . S
O116 C117 1.295 . S
C117 O116 1.295 . S
C117 O119 1.235 . S
C118 O123 1.287 . S
C118 O124 1.255 . S
O119 Fe111 1.997 . S
O119 C117 1.235 . S
C120 O126 1.287 . S
C120 O127 1.255 . S
O121 Fe110 1.976 . S
O121 C128 1.287 . S
O122 Fe111 1.996 . S
O122 C128 1.255 . S
O123 Fe113 1.976 . S
O123 C118 1.287 . S
O124 Fe110 1.996 . S
O124 C118 1.255 . S
C125 O129 1.295 . S
C125 O130 1.235 . S
O126 Fe111 1.976 . S
O126 C120 1.287 . S
O127 Fe113 1.996 . S
O127 C120 1.255 . S
C128 O121 1.287 . S
C128 O122 1.255 . S
O129 Fe111 2.002 . S
O129 C125 1.295 . S
O130 Fe113 1.997 . S
O130 C125 1.235 . S
C131 O114 1.295 . S
C131 O115 1.235 . S
Fe132 O134 1.918 . S
Fe132 O137 1.997 . S
Fe132 O138 2.002 . S
Fe132 O143 1.976 . S
Fe132 O146 1.996 . S
Fe133 O134 1.918 . S
Fe133 O141 1.997 . S
Fe133 O144 1.996 . S
Fe133 O148 1.976 . S
Fe133 O151 2.002 . S
O134 Fe132 1.918 . S
O134 Fe133 1.918 . S
O134 Fe135 1.918 . S
Fe135 O134 1.918 . S
Fe135 O136 2.002 . S
Fe135 O145 1.976 . S
Fe135 O149 1.996 . S
Fe135 O152 1.997 . S
O136 Fe135 2.002 . S
O136 C153 1.295 . S
O137 Fe132 1.997 . S
O137 C153 1.235 . S
O138 Fe132 2.002 . S
O138 C139 1.295 . S
C139 O138 1.295 . S
C139 O141 1.235 . S
C140 O145 1.287 . S
C140 O146 1.255 . S
O141 Fe133 1.997 . S
O141 C139 1.235 . S
C142 O148 1.287 . S
C142 O149 1.255 . S
O143 Fe132 1.976 . S
O143 C150 1.287 . S
O144 Fe133 1.996 . S
O144 C150 1.255 . S
O145 Fe135 1.976 . S
O145 C140 1.287 . S
O146 Fe132 1.996 . S
O146 C140 1.255 . S
C147 O151 1.295 . S
C147 O152 1.235 . S
O148 Fe133 1.976 . S
O148 C142 1.287 . S
O149 Fe135 1.996 . S
O149 C142 1.255 . S
C150 O143 1.287 . S
C150 O144 1.255 . S
O151 Fe133 2.002 . S
O151 C147 1.295 . S
O152 Fe135 1.997 . S
O152 C147 1.235 . S
C153 O136 1.295 . S
C153 O137 1.235 . S
Fe154 O156 1.918 . S
Fe154 O159 1.997 . S
Fe154 O160 2.002 . S
Fe154 O165 1.976 . S
Fe154 O168 1.996 . S
Fe155 O156 1.918 . S
Fe155 O163 1.997 . S
Fe155 O166 1.996 . S
Fe155 O170 1.976 . S
Fe155 O173 2.002 . S
O156 Fe154 1.918 . S
O156 Fe155 1.918 . S
O156 Fe157 1.918 . S
Fe157 O156 1.918 . S
Fe157 O158 2.002 . S
Fe157 O167 1.976 . S
Fe157 O171 1.996 . S
Fe157 O174 1.997 . S
O158 Fe157 2.002 . S
O158 C175 1.295 . S
O159 Fe154 1.997 . S
O159 C175 1.235 . S
O160 Fe154 2.002 . S
O160 C161 1.295 . S
C161 O160 1.295 . S
C161 O163 1.235 . S
C162 O167 1.287 . S
C162 O168 1.255 . S
O163 Fe155 1.997 . S
O163 C161 1.235 . S
C164 O170 1.287 . S
C164 O171 1.255 . S
O165 Fe154 1.976 . S
O165 C172 1.287 . S
O166 Fe155 1.996 . S
O166 C172 1.255 . S
O167 Fe157 1.976 . S
O167 C162 1.287 . S
O168 Fe154 1.996 . S
O168 C162 1.255 . S
C169 O173 1.295 . S
C169 O174 1.235 . S
O170 Fe155 1.976 . S
O170 C164 1.287 . S
O171 Fe157 1.996 . S
O171 C164 1.255 . S
C172 O165 1.287 . S
C172 O166 1.255 . S
O173 Fe155 2.002 . S
O173 C169 1.295 . S
O174 Fe157 1.997 . S
O174 C169 1.235 . S
C175 O158 1.295 . S
C175 O159 1.235 . S
Fe176 O178 1.918 . S
Fe176 O181 1.997 . S
Fe176 O182 2.002 . S
Fe176 O187 1.976 . S
Fe176 O190 1.996 . S
Fe177 O178 1.918 . S
Fe177 O185 1.997 . S
Fe177 O188 1.996 . S
Fe177 O192 1.976 . S
Fe177 O195 2.002 . S
O178 Fe176 1.918 . S
O178 Fe177 1.918 . S
O178 Fe179 1.918 . S
Fe179 O178 1.918 . S
Fe179 O180 2.002 . S
Fe179 O189 1.976 . S
Fe179 O193 1.996 . S
Fe179 O196 1.997 . S
O180 Fe179 2.002 . S
O180 C197 1.295 . S
O181 Fe176 1.997 . S
O181 C197 1.235 . S
O182 Fe176 2.002 . S
O182 C183 1.295 . S
C183 O182 1.295 . S
C183 O185 1.235 . S
C184 O189 1.287 . S
C184 O190 1.255 . S
O185 Fe177 1.997 . S
O185 C183 1.235 . S
C186 O192 1.287 . S
C186 O193 1.255 . S
O187 Fe176 1.976 . S
O187 C194 1.287 . S
O188 Fe177 1.996 . S
O188 C194 1.255 . S
O189 Fe179 1.976 . S
O189 C184 1.287 . S
O190 Fe176 1.996 . S
O190 C184 1.255 . S
C191 O195 1.295 . S
C191 O196 1.235 . S
O192 Fe177 1.976 . S
O192 C186 1.287 . S
O193 Fe179 1.996 . S
O193 C186 1.255 . S
C194 O187 1.287 . S
C194 O188 1.255 . S
O195 Fe177 2.002 . S
O195 C191 1.295 . S
O196 Fe179 1.997 . S
O196 C191 1.235 . S
C197 O180 1.295 . S
C197 O181 1.235 . S
Fe198 O200 1.918 . S
Fe198 O203 1.997 . S
Fe198 O204 2.002 . S
Fe198 O209 1.976 . S
Fe198 O212 1.996 . S
Fe199 O200 1.918 . S
Fe199 O207 1.997 . S
Fe199 O210 1.996 . S
Fe199 O214 1.976 . S
Fe199 O217 2.002 . S
O200 Fe198 1.918 . S
O200 Fe199 1.918 . S
O200 Fe201 1.918 . S
Fe201 O200 1.918 . S
Fe201 O202 2.002 . S
Fe201 O211 1.976 . S
Fe201 O215 1.996 . S
Fe201 O218 1.997 . S
O202 Fe201 2.002 . S
O202 C219 1.295 . S
O203 Fe198 1.997 . S
O203 C219 1.235 . S
O204 Fe198 2.002 . S
O204 C205 1.295 . S
C205 O204 1.295 . S
C205 O207 1.235 . S
C206 O211 1.287 . S
C206 O212 1.255 . S
O207 Fe199 1.997 . S
O207 C205 1.235 . S
C208 O214 1.287 . S
C208 O215 1.255 . S
O209 Fe198 1.976 . S
O209 C216 1.287 . S
O210 Fe199 1.996 . S
O210 C216 1.255 . S
O211 Fe201 1.976 . S
O211 C206 1.287 . S
O212 Fe198 1.996 . S
O212 C206 1.255 . S
C213 O217 1.295 . S
C213 O218 1.235 . S
O214 Fe199 1.976 . S
O214 C208 1.287 . S
O215 Fe201 1.996 . S
O215 C208 1.255 . S
C216 O209 1.287 . S
C216 O210 1.255 . S
O217 Fe199 2.002 . S
O217 C213 1.295 . S
O218 Fe201 1.997 . S
O218 C213 1.235 . S
C219 O202 1.295 . S
C219 O203 1.235 . S
Fe220 O222 1.918 . S
Fe220 O225 1.997 . S
Fe220 O226 2.002 . S
Fe220 O231 1.976 . S
Fe220 O234 1.996 . S
Fe221 O222 1.918 . S
Fe221 O229 1.997 . S
Fe221 O232 1.996 . S
Fe221 O236 1.976 . S
Fe221 O239 2.002 . S
O222 Fe220 1.918 . S
O222 Fe221 1.918 . S
O222 Fe223 1.918 . S
Fe223 O222 1.918 . S
Fe223 O224 2.002 . S
Fe223 O233 1.976 . S
Fe223 O237 1.996 . S
Fe223 O240 1.997 . S
O224 Fe223 2.002 . S
O224 C241 1.295 . S
O225 Fe220 1.997 . S
O225 C241 1.235 . S
O226 Fe220 2.002 . S
O226 C227 1.295 . S
C227 O226 1.295 . S
C227 O229 1.235 . S
C228 O233 1.287 . S
C228 O234 1.255 . S
O229 Fe221 1.997 . S
O229 C227 1.235 . S
C230 O236 1.287 . S
C230 O237 1.255 . S
O231 Fe220 1.976 . S
O231 C238 1.287 . S
O232 Fe221 1.996 . S
O232 C238 1.255 . S
O233 Fe223 1.976 . S
O233 C228 1.287 . S
O234 Fe220 1.996 . S
O234 C228 1.255 . S
C235 O239 1.295 . S
C235 O240 1.235 . S
O236 Fe221 1.976 . S
O236 C230 1.287 . S
O237 Fe223 1.996 . S
O237 C230 1.255 . S
C238 O231 1.287 . S
C238 O232 1.255 . S
O239 Fe221 2.002 . S
O239 C235 1.295 . S
O240 Fe223 1.997 . S
O240 C235 1.235 . S
C241 O224 1.295 . S
C241 O225 1.235 . S
Fe242 O244 1.918 . S
Fe242 O247 1.997 . S
Fe242 O248 2.002 . S
Fe242 O253 1.976 . S
Fe242 O256 1.996 . S
Fe243 O244 1.918 . S
Fe243 O251 1.997 . S
Fe243 O254 1.996 . S
Fe243 O258 1.976 . S
Fe243 O261 2.002 . S
O244 Fe242 1.918 . S
O244 Fe243 1.918 . S
O244 Fe245 1.918 . S
Fe245 O244 1.918 . S
Fe245 O246 2.002 . S
Fe245 O255 1.976 . S
Fe245 O259 1.996 . S
Fe245 O262 1.997 . S
O246 Fe245 2.002 . S
O246 C263 1.295 . S
O247 Fe242 1.997 . S
O247 C263 1.235 . S
O248 Fe242 2.002 . S
O248 C249 1.295 . S
C249 O248 1.295 . S
C249 O251 1.235 . S
C250 O255 1.287 . S
C250 O256 1.255 . S
O251 Fe243 1.997 . S
O251 C249 1.235 . S
C252 O258 1.287 . S
C252 O259 1.255 . S
O253 Fe242 1.976 . S
O253 C260 1.287 . S
O254 Fe243 1.996 . S
O254 C260 1.255 . S
O255 Fe245 1.976 . S
O255 C250 1.287 . S
O256 Fe242 1.996 . S
O256 C250 1.255 . S
C257 O261 1.295 . S
C257 O262 1.235 . S
O258 Fe243 1.976 . S
O258 C252 1.287 . S
O259 Fe245 1.996 . S
O259 C252 1.255 . S
C260 O253 1.287 . S
C260 O254 1.255 . S
O261 Fe243 2.002 . S
O261 C257 1.295 . S
O262 Fe245 1.997 . S
O262 C257 1.235 . S
C263 O246 1.295 . S
C263 O247 1.235 . S
Fe264 O266 1.918 . S
Fe264 O269 1.997 . S
Fe264 O270 2.002 . S
Fe264 O275 1.976 . S
Fe264 O278 1.996 . S
Fe265 O266 1.918 . S
Fe265 O273 1.997 . S
Fe265 O276 1.996 . S
Fe265 O280 1.976 . S
Fe265 O283 2.002 . S
O266 Fe264 1.918 . S
O266 Fe265 1.918 . S
O266 Fe267 1.918 . S
Fe267 O266 1.918 . S
Fe267 O268 2.002 . S
Fe267 O277 1.976 . S
Fe267 O281 1.996 . S
Fe267 O284 1.997 . S
O268 Fe267 2.002 . S
O268 C285 1.295 . S
O269 Fe264 1.997 . S
O269 C285 1.235 . S
O270 Fe264 2.002 . S
O270 C271 1.295 . S
C271 O270 1.295 . S
C271 O273 1.235 . S
C272 O277 1.287 . S
C272 O278 1.255 . S
O273 Fe265 1.997 . S
O273 C271 1.235 . S
C274 O280 1.287 . S
C274 O281 1.255 . S
O275 Fe264 1.976 . S
O275 C282 1.287 . S
O276 Fe265 1.996 . S
O276 C282 1.255 . S
O277 Fe267 1.976 . S
O277 C272 1.287 . S
O278 Fe264 1.996 . S
O278 C272 1.255 . S
C279 O283 1.295 . S
C279 O284 1.235 . S
O280 Fe265 1.976 . S
O280 C274 1.287 . S
O281 Fe267 1.996 . S
O281 C274 1.255 . S
C282 O275 1.287 . S
C282 O276 1.255 . S
O283 Fe265 2.002 . S
O283 C279 1.295 . S
O284 Fe267 1.997 . S
O284 C279 1.235 . S
C285 O268 1.295 . S
C285 O269 1.235 . S
Fe286 O288 1.918 . S
Fe286 O291 1.997 . S
Fe286 O292 2.002 . S
Fe286 O297 1.976 . S
Fe286 O300 1.996 . S
Fe287 O288 1.918 . S
Fe287 O295 1.997 . S
Fe287 O298 1.996 . S
Fe287 O302 1.976 . S
Fe287 O305 2.002 . S
O288 Fe286 1.918 . S
O288 Fe287 1.918 . S
O288 Fe289 1.918 . S
Fe289 O288 1.918 . S
Fe289 O290 2.002 . S
Fe289 O299 1.976 . S
Fe289 O303 1.996 . S
Fe289 O306 1.997 . S
O290 Fe289 2.002 . S
O290 C307 1.295 . S
O291 Fe286 1.997 . S
O291 C307 1.235 . S
O292 Fe286 2.002 . S
O292 C293 1.295 . S
C293 O292 1.295 . S
C293 O295 1.235 . S
C294 O299 1.287 . S
C294 O300 1.255 . S
O295 Fe287 1.997 . S
O295 C293 1.235 . S
C296 O302 1.287 . S
C296 O303 1.255 . S
O297 Fe286 1.976 . S
O297 C304 1.287 . S
O298 Fe287 1.996 . S
O298 C304 1.255 . S
O299 Fe289 1.976 . S
O299 C294 1.287 . S
O300 Fe286 1.996 . S
O300 C294 1.255 . S
C301 O305 1.295 . S
C301 O306 1.235 . S
O302 Fe287 1.976 . S
O302 C296 1.287 . S
O303 Fe289 1.996 . S
O303 C296 1.255 . S
C304 O297 1.287 . S
C304 O298 1.255 . S
O305 Fe287 2.002 . S
O305 C301 1.295 . S
O306 Fe289 1.997 . S
O306 C301 1.235 . S
C307 O290 1.295 . S
C307 O291 1.235 . S
Fe308 O310 1.918 . S
Fe308 O313 1.997 . S
Fe308 O314 2.002 . S
Fe308 O319 1.976 . S
Fe308 O322 1.996 . S
Fe309 O310 1.918 . S
Fe309 O317 1.997 . S
Fe309 O320 1.996 . S
Fe309 O324 1.976 . S
Fe309 O327 2.002 . S
O310 Fe308 1.918 . S
O310 Fe309 1.918 . S
O310 Fe311 1.918 . S
Fe311 O310 1.918 . S
Fe311 O312 2.002 . S
Fe311 O321 1.976 . S
Fe311 O325 1.996 . S
Fe311 O328 1.997 . S
O312 Fe311 2.002 . S
O312 C329 1.295 . S
O313 Fe308 1.997 . S
O313 C329 1.235 . S
O314 Fe308 2.002 . S
O314 C315 1.295 . S
C315 O314 1.295 . S
C315 O317 1.235 . S
C316 O321 1.287 . S
C316 O322 1.255 . S
O317 Fe309 1.997 . S
O317 C315 1.235 . S
C318 O324 1.287 . S
C318 O325 1.255 . S
O319 Fe308 1.976 . S
O319 C326 1.287 . S
O320 Fe309 1.996 . S
O320 C326 1.255 . S
O321 Fe311 1.976 . S
O321 C316 1.287 . S
O322 Fe308 1.996 . S
O322 C316 1.255 . S
C323 O327 1.295 . S
C323 O328 1.235 . S
O324 Fe309 1.976 . S
O324 C318 1.287 . S
O325 Fe311 1.996 . S
O325 C318 1.255 . S
C326 O319 1.287 . S
C326 O320 1.255 . S
O327 Fe309 2.002 . S
O327 C323 1.295 . S
O328 Fe311 1.997 . S
O328 C323 1.235 . S
C329 O312 1.295 . S
C329 O313 1.235 . S
Fe330 O332 1.918 . S
Fe330 O335 1.997 . S
Fe330 O336 2.002 . S
Fe330 O341 1.976 . S
Fe330 O344 1.996 . S
Fe331 O332 1.918 . S
Fe331 O339 1.997 . S
Fe331 O342 1.996 . S
Fe331 O346 1.976 . S
Fe331 O349 2.002 . S
O332 Fe330 1.918 . S
O332 Fe331 1.918 . S
O332 Fe333 1.918 . S
Fe333 O332 1.918 . S
Fe333 O334 2.002 . S
Fe333 O343 1.976 . S
Fe333 O347 1.996 . S
Fe333 O350 1.997 . S
O334 Fe333 2.002 . S
O334 C351 1.295 . S
O335 Fe330 1.997 . S
O335 C351 1.235 . S
O336 Fe330 2.002 . S
O336 C337 1.295 . S
C337 O336 1.295 . S
C337 O339 1.235 . S
C338 O343 1.287 . S
C338 O344 1.255 . S
O339 Fe331 1.997 . S
O339 C337 1.235 . S
C340 O346 1.287 . S
C340 O347 1.255 . S
O341 Fe330 1.976 . S
O341 C348 1.287 . S
O342 Fe331 1.996 . S
O342 C348 1.255 . S
O343 Fe333 1.976 . S
O343 C338 1.287 . S
O344 Fe330 1.996 . S
O344 C338 1.255 . S
C345 O349 1.295 . S
C345 O350 1.235 . S
O346 Fe331 1.976 . S
O346 C340 1.287 . S
O347 Fe333 1.996 . S
O347 C340 1.255 . S
C348 O341 1.287 . S
C348 O342 1.255 . S
O349 Fe331 2.002 . S
O349 C345 1.295 . S
O350 Fe333 1.997 . S
O350 C345 1.235 . S
C351 O334 1.295 . S
C351 O335 1.235 . S
Fe352 O354 1.918 . S
Fe352 O357 1.997 . S
Fe352 O358 2.002 . S
Fe352 O363 1.976 . S
Fe352 O366 1.996 . S
Fe353 O354 1.918 . S
Fe353 O361 1.997 . S
Fe353 O364 1.996 . S
Fe353 O368 1.976 . S
Fe353 O371 2.002 . S
O354 Fe352 1.918 . S
O354 Fe353 1.918 . S
O354 Fe355 1.918 . S
Fe355 O354 1.918 . S
Fe355 O356 2.002 . S
Fe355 O365 1.976 . S
Fe355 O369 1.996 . S
Fe355 O372 1.997 . S
O356 Fe355 2.002 . S
O356 C373 1.295 . S
O357 Fe352 1.997 . S
O357 C373 1.235 . S
O358 Fe352 2.002 . S
O358 C359 1.295 . S
C359 O358 1.295 . S
C359 O361 1.235 . S
C360 O365 1.287 . S
C360 O366 1.255 . S
O361 Fe353 1.997 . S
O361 C359 1.235 . S
C362 O368 1.287 . S
C362 O369 1.255 . S
O363 Fe352 1.976 . S
O363 C370 1.287 . S
O364 Fe353 1.996 . S
O364 C370 1.255 . S
O365 Fe355 1.976 . S
O365 C360 1.287 . S
O366 Fe352 1.996 . S
O366 C360 1.255 . S
C367 O371 1.295 . S
C367 O372 1.235 . S
O368 Fe353 1.976 . S
O368 C362 1.287 . S
O369 Fe355 1.996 . S
O369 C362 1.255 . S
C370 O363 1.287 . S
C370 O364 1.255 . S
O371 Fe353 2.002 . S
O371 C367 1.295 . S
O372 Fe355 1.997 . S
O372 C367 1.235 . S
C373 O356 1.295 . S
C373 O357 1.235 . S
Fe374 O376 1.918 . S
Fe374 O379 1.997 . S
Fe374 O380 2.002 . S
Fe374 O385 1.976 . S
Fe374 O388 1.996 . S
Fe375 O376 1.918 . S
Fe375 O383 1.997 . S
Fe375 O386 1.996 . S
Fe375 O390 1.976 . S
Fe375 O393 2.002 . S
O376 Fe374 1.918 . S
O376 Fe375 1.918 . S
O376 Fe377 1.918 . S
Fe377 O376 1.918 . S
Fe377 O378 2.002 . S
Fe377 O387 1.976 . S
Fe377 O391 1.996 . S
Fe377 O394 1.997 . S
O378 Fe377 2.002 . S
O378 C395 1.295 . S
O379 Fe374 1.997 . S
O379 C395 1.235 . S
O380 Fe374 2.002 . S
O380 C381 1.295 . S
C381 O380 1.295 . S
C381 O383 1.235 . S
C382 O387 1.287 . S
C382 O388 1.255 . S
O383 Fe375 1.997 . S
O383 C381 1.235 . S
C384 O390 1.287 . S
C384 O391 1.255 . S
O385 Fe374 1.976 . S
O385 C392 1.287 . S
O386 Fe375 1.996 . S
O386 C392 1.255 . S
O387 Fe377 1.976 . S
O387 C382 1.287 . S
O388 Fe374 1.996 . S
O388 C382 1.255 . S
C389 O393 1.295 . S
C389 O394 1.235 . S
O390 Fe375 1.976 . S
O390 C384 1.287 . S
O391 Fe377 1.996 . S
O391 C384 1.255 . S
C392 O385 1.287 . S
C392 O386 1.255 . S
O393 Fe375 2.002 . S
O393 C389 1.295 . S
O394 Fe377 1.997 . S
O394 C389 1.235 . S
C395 O378 1.295 . S
C395 O379 1.235 . S
Fe396 O398 1.918 . S
Fe396 O401 1.997 . S
Fe396 O402 2.002 . S
Fe396 O407 1.976 . S
Fe396 O410 1.996 . S
Fe397 O398 1.918 . S
Fe397 O405 1.997 . S
Fe397 O408 1.996 . S
Fe397 O412 1.976 . S
Fe397 O415 2.002 . S
O398 Fe396 1.918 . S
O398 Fe397 1.918 . S
O398 Fe399 1.918 . S
Fe399 O398 1.918 . S
Fe399 O400 2.002 . S
Fe399 O409 1.976 . S
Fe399 O413 1.996 . S
Fe399 O416 1.997 . S
O400 Fe399 2.002 . S
O400 C417 1.295 . S
O401 Fe396 1.997 . S
O401 C417 1.235 . S
O402 Fe396 2.002 . S
O402 C403 1.295 . S
C403 O402 1.295 . S
C403 O405 1.235 . S
C404 O409 1.287 . S
C404 O410 1.255 . S
O405 Fe397 1.997 . S
O405 C403 1.235 . S
C406 O412 1.287 . S
C406 O413 1.255 . S
O407 Fe396 1.976 . S
O407 C414 1.287 . S
O408 Fe397 1.996 . S
O408 C414 1.255 . S
O409 Fe399 1.976 . S
O409 C404 1.287 . S
O410 Fe396 1.996 . S
O410 C404 1.255 . S
C411 O415 1.295 . S
C411 O416 1.235 . S
O412 Fe397 1.976 . S
O412 C406 1.287 . S
O413 Fe399 1.996 . S
O413 C406 1.255 . S
C414 O407 1.287 . S
C414 O408 1.255 . S
O415 Fe397 2.002 . S
O415 C411 1.295 . S
O416 Fe399 1.997 . S
O416 C411 1.235 . S
C417 O400 1.295 . S
C417 O401 1.235 . S
Fe418 O420 1.918 . S
Fe418 O423 1.997 . S
Fe418 O424 2.002 . S
Fe418 O429 1.976 . S
Fe418 O432 1.996 . S
Fe419 O420 1.918 . S
Fe419 O427 1.997 . S
Fe419 O430 1.996 . S
Fe419 O434 1.976 . S
Fe419 O437 2.002 . S
O420 Fe418 1.918 . S
O420 Fe419 1.918 . S
O420 Fe421 1.918 . S
Fe421 O420 1.918 . S
Fe421 O422 2.002 . S
Fe421 O431 1.976 . S
Fe421 O435 1.996 . S
Fe421 O438 1.997 . S
O422 Fe421 2.002 . S
O422 C439 1.295 . S
O423 Fe418 1.997 . S
O423 C439 1.235 . S
O424 Fe418 2.002 . S
O424 C425 1.295 . S
C425 O424 1.295 . S
C425 O427 1.235 . S
C426 O431 1.287 . S
C426 O432 1.255 . S
O427 Fe419 1.997 . S
O427 C425 1.235 . S
C428 O434 1.287 . S
C428 O435 1.255 . S
O429 Fe418 1.976 . S
O429 C436 1.287 . S
O430 Fe419 1.996 . S
O430 C436 1.255 . S
O431 Fe421 1.976 . S
O431 C426 1.287 . S
O432 Fe418 1.996 . S
O432 C426 1.255 . S
C433 O437 1.295 . S
C433 O438 1.235 . S
O434 Fe419 1.976 . S
O434 C428 1.287 . S
O435 Fe421 1.996 . S
O435 C428 1.255 . S
C436 O429 1.287 . S
C436 O430 1.255 . S
O437 Fe419 2.002 . S
O437 C433 1.295 . S
O438 Fe421 1.997 . S
O438 C433 1.235 . S
C439 O422 1.295 . S
C439 O423 1.235 . S
Fe440 O442 1.918 . S
Fe440 O445 1.997 . S
Fe440 O446 2.002 . S
Fe440 O451 1.976 . S
Fe440 O454 1.996 . S
Fe441 O442 1.918 . S
Fe441 O449 1.997 . S
Fe441 O452 1.996 . S
Fe441 O456 1.976 . S
Fe441 O459 2.002 . S
O442 Fe440 1.918 . S
O442 Fe441 1.918 . S
O442 Fe443 1.918 . S
Fe443 O442 1.918 . S
Fe443 O444 2.002 . S
Fe443 O453 1.976 . S
Fe443 O457 1.996 . S
Fe443 O460 1.997 . S
O444 Fe443 2.002 . S
O444 C461 1.295 . S
O445 Fe440 1.997 . S
O445 C461 1.235 . S
O446 Fe440 2.002 . S
O446 C447 1.295 . S
C447 O446 1.295 . S
C447 O449 1.235 . S
C448 O453 1.287 . S
C448 O454 1.255 . S
O449 Fe441 1.997 . S
O449 C447 1.235 . S
C450 O456 1.287 . S
C450 O457 1.255 . S
O451 Fe440 1.976 . S
O451 C458 1.287 . S
O452 Fe441 1.996 . S
O452 C458 1.255 . S
O453 Fe443 1.976 . S
O453 C448 1.287 . S
O454 Fe440 1.996 . S
O454 C448 1.255 . S
C455 O459 1.295 . S
C455 O460 1.235 . S
O456 Fe441 1.976 . S
O456 C450 1.287 . S
O457 Fe443 1.996 . S
O457 C450 1.255 . S
C458 O451 1.287 . S
C458 O452 1.255 . S
O459 Fe441 2.002 . S
O459 C455 1.295 . S
O460 Fe443 1.997 . S
O460 C455 1.235 . S
C461 O444 1.295 . S
C461 O445 1.235 . S
Fe462 O464 1.918 . S
Fe462 O467 1.997 . S
Fe462 O468 2.002 . S
Fe462 O473 1.976 . S
Fe462 O476 1.996 . S
Fe463 O464 1.918 . S
Fe463 O471 1.997 . S
Fe463 O474 1.996 . S
Fe463 O478 1.976 . S
Fe463 O481 2.002 . S
O464 Fe462 1.918 . S
O464 Fe463 1.918 . S
O464 Fe465 1.918 . S
Fe465 O464 1.918 . S
Fe465 O466 2.002 . S
Fe465 O475 1.976 . S
Fe465 O479 1.996 . S
Fe465 O482 1.997 . S
O466 Fe465 2.002 . S
O466 C483 1.295 . S
O467 Fe462 1.997 . S
O467 C483 1.235 . S
O468 Fe462 2.002 . S
O468 C469 1.295 . S
C469 O468 1.295 . S
C469 O471 1.235 . S
C470 O475 1.287 . S
C470 O476 1.255 . S
O471 Fe463 1.997 . S
O471 C469 1.235 . S
C472 O478 1.287 . S
C472 O479 1.255 . S
O473 Fe462 1.976 . S
O473 C480 1.287 . S
O474 Fe463 1.996 . S
O474 C480 1.255 . S
O475 Fe465 1.976 . S
O475 C470 1.287 . S
O476 Fe462 1.996 . S
O476 C470 1.255 . S
C477 O481 1.295 . S
C477 O482 1.235 . S
O478 Fe463 1.976 . S
O478 C472 1.287 . S
O479 Fe465 1.996 . S
O479 C472 1.255 . S
C480 O473 1.287 . S
C480 O474 1.255 . S
O481 Fe463 2.002 . S
O481 C477 1.295 . S
O482 Fe465 1.997 . S
O482 C477 1.235 . S
C483 O466 1.295 . S
C483 O467 1.235 . S
Fe484 O486 1.918 . S
Fe484 O489 1.997 . S
Fe484 O490 2.002 . S
Fe484 O495 1.976 . S
Fe484 O498 1.996 . S
Fe485 O486 1.918 . S
Fe485 O493 1.997 . S
Fe485 O496 1.996 . S
Fe485 O500 1.976 . S
Fe485 O503 2.002 . S
O486 Fe484 1.918 . S
O486 Fe485 1.918 . S
O486 Fe487 1.918 . S
Fe487 O486 1.918 . S
Fe487 O488 2.002 . S
Fe487 O497 1.976 . S
Fe487 O501 1.996 . S
Fe487 O504 1.997 . S
O488 Fe487 2.002 . S
O488 C505 1.295 . S
O489 Fe484 1.997 . S
O489 C505 1.235 . S
O490 Fe484 2.002 . S
O490 C491 1.295 . S
C491 O490 1.295 . S
C491 O493 1.235 . S
C492 O497 1.287 . S
C492 O498 1.255 . S
O493 Fe485 1.997 . S
O493 C491 1.235 . S
C494 O500 1.287 . S
C494 O501 1.255 . S
O495 Fe484 1.976 . S
O495 C502 1.287 . S
O496 Fe485 1.996 . S
O496 C502 1.255 . S
O497 Fe487 1.976 . S
O497 C492 1.287 . S
O498 Fe484 1.996 . S
O498 C492 1.255 . S
C499 O503 1.295 . S
C499 O504 1.235 . S
O500 Fe485 1.976 . S
O500 C494 1.287 . S
O501 Fe487 1.996 . S
O501 C494 1.255 . S
C502 O495 1.287 . S
C502 O496 1.255 . S
O503 Fe485 2.002 . S
O503 C499 1.295 . S
O504 Fe487 1.997 . S
O504 C499 1.235 . S
C505 O488 1.295 . S
C505 O489 1.235 . S
Fe506 O508 1.918 . S
Fe506 O511 1.997 . S
Fe506 O512 2.002 . S
Fe506 O517 1.976 . S
Fe506 O520 1.996 . S
Fe507 O508 1.918 . S
Fe507 O515 1.997 . S
Fe507 O518 1.996 . S
Fe507 O522 1.976 . S
Fe507 O525 2.002 . S
O508 Fe506 1.918 . S
O508 Fe507 1.918 . S
O508 Fe509 1.918 . S
Fe509 O508 1.918 . S
Fe509 O510 2.002 . S
Fe509 O519 1.976 . S
Fe509 O523 1.996 . S
Fe509 O526 1.997 . S
O510 Fe509 2.002 . S
O510 C527 1.295 . S
O511 Fe506 1.997 . S
O511 C527 1.235 . S
O512 Fe506 2.002 . S
O512 C513 1.295 . S
C513 O512 1.295 . S
C513 O515 1.235 . S
C514 O519 1.287 . S
C514 O520 1.255 . S
O515 Fe507 1.997 . S
O515 C513 1.235 . S
C516 O522 1.287 . S
C516 O523 1.255 . S
O517 Fe506 1.976 . S
O517 C524 1.287 . S
O518 Fe507 1.996 . S
O518 C524 1.255 . S
O519 Fe509 1.976 . S
O519 C514 1.287 . S
O520 Fe506 1.996 . S
O520 C514 1.255 . S
C521 O525 1.295 . S
C521 O526 1.235 . S
O522 Fe507 1.976 . S
O522 C516 1.287 . S
O523 Fe509 1.996 . S
O523 C516 1.255 . S
C524 O517 1.287 . S
C524 O518 1.255 . S
O525 Fe507 2.002 . S
O525 C521 1.295 . S
O526 Fe509 1.997 . S
O526 C521 1.235 . S
C527 O510 1.295 . S
C527 O511 1.235 . S
H528 C540 0.930 . S
H529 C542 0.930 . S
H530 C543 0.930 . S
H531 C547 0.959 . S
H532 C547 0.959 . S
H533 C547 0.961 . S
H534 C548 0.960 . S
H535 C548 0.961 . S
H536 C548 0.959 . S
H537 C551 0.929 . S
H538 C552 0.931 . S
H539 C554 0.930 . S
C540 H528 0.930 . S
C540 C541 1.399 . S
C540 C545 1.399 . S
C541 C540 1.399 . S
C541 C542 1.376 . S
C542 H529 0.930 . S
C542 C541 1.376 . S
C542 C543 1.388 . S
C543 H530 0.930 . S
C543 C542 1.388 . S
C543 C544 1.390 . S
C544 C543 1.390 . S
C544 C545 1.394 . S
C544 C550 1.465 . S
C545 C540 1.399 . S
C545 C544 1.394 . S
C545 C546 1.516 . S
C546 C545 1.516 . S
C546 C547 1.502 . S
C546 C548 1.561 . S
C546 C549 1.526 . S
C547 H531 0.959 . S
C547 H532 0.959 . S
C547 H533 0.961 . S
C547 C546 1.502 . S
C548 H534 0.960 . S
C548 H535 0.961 . S
C548 H536 0.959 . S
C548 C546 1.561 . S
C549 C546 1.526 . S
C549 C550 1.396 . S
C549 C554 1.390 . S
C550 C544 1.465 . S
C550 C549 1.396 . S
C550 C551 1.399 . S
C551 H537 0.929 . S
C551 C550 1.399 . S
C551 C552 1.385 . S
C552 H538 0.931 . S
C552 C551 1.385 . S
C552 C553 1.389 . S
C553 C552 1.389 . S
C553 C554 1.387 . S
C554 H539 0.930 . S
C554 C549 1.390 . S
C554 C553 1.387 . S
H555 C567 0.930 . S
H556 C569 0.930 . S
H557 C570 0.930 . S
H558 C574 0.959 . S
H559 C574 0.959 . S
H560 C574 0.961 . S
H561 C575 0.960 . S
H562 C575 0.961 . S
H563 C575 0.959 . S
H564 C578 0.929 . S
H565 C579 0.931 . S
H566 C581 0.930 . S
C567 H555 0.930 . S
C567 C568 1.399 . S
C567 C572 1.399 . S
C568 C567 1.399 . S
C568 C569 1.376 . S
C569 H556 0.930 . S
C569 C568 1.376 . S
C569 C570 1.388 . S
C570 H557 0.930 . S
C570 C569 1.388 . S
C570 C571 1.390 . S
C571 C570 1.390 . S
C571 C572 1.394 . S
C571 C577 1.465 . S
C572 C567 1.399 . S
C572 C571 1.394 . S
C572 C573 1.516 . S
C573 C572 1.516 . S
C573 C574 1.502 . S
C573 C575 1.561 . S
C573 C576 1.526 . S
C574 H558 0.959 . S
C574 H559 0.959 . S
C574 H560 0.961 . S
C574 C573 1.502 . S
C575 H561 0.960 . S
C575 H562 0.961 . S
C575 H563 0.959 . S
C575 C573 1.561 . S
C576 C573 1.526 . S
C576 C577 1.396 . S
C576 C581 1.390 . S
C577 C571 1.465 . S
C577 C576 1.396 . S
C577 C578 1.399 . S
C578 H564 0.929 . S
C578 C577 1.399 . S
C578 C579 1.385 . S
C579 H565 0.931 . S
C579 C578 1.385 . S
C579 C580 1.389 . S
C580 C579 1.389 . S
C580 C581 1.387 . S
C581 H566 0.930 . S
C581 C576 1.390 . S
C581 C580 1.387 . S
H582 C594 0.930 . S
H583 C596 0.930 . S
H584 C597 0.930 . S
H585 C601 0.959 1_565 S
H586 C601 0.959 . S
H587 C601 0.961 1_565 S
H588 C602 0.951 1_565 S
H589 C602 1.000 . S
H590 C602 0.946 1_565 S
H591 C605 0.929 . S
H592 C606 0.931 . S
H593 C608 0.930 . S
C594 H582 0.930 . S
C594 C595 1.399 . S
C594 C599 1.399 . S
C595 C594 1.399 . S
C595 C596 1.376 . S
C596 H583 0.930 . S
C596 C595 1.376 . S
C596 C597 1.388 . S
C597 H584 0.930 . S
C597 C596 1.388 . S
C597 C598 1.390 . S
C598 C597 1.390 . S
C598 C599 1.394 . S
C598 C604 1.465 . S
C599 C594 1.399 . S
C599 C598 1.394 . S
C599 C600 1.516 . S
C600 C599 1.516 . S
C600 C601 1.502 1_565 S
C600 C602 1.547 1_565 S
C600 C603 1.526 . S
C601 H585 0.959 1_545 S
C601 H586 0.959 . S
C601 H587 0.961 1_545 S
C601 C600 1.502 1_545 S
C602 H588 0.951 1_545 S
C602 H589 1.000 . S
C602 H590 0.946 1_545 S
C602 C600 1.547 1_545 S
C603 C600 1.526 . S
C603 C604 1.396 . S
C603 C608 1.390 1_565 S
C604 C598 1.465 . S
C604 C603 1.396 . S
C604 C605 1.399 . S
C605 H591 0.929 . S
C605 C604 1.399 . S
C605 C606 1.385 . S
C606 H592 0.931 . S
C606 C605 1.385 . S
C606 C607 1.389 1_565 S
C607 C606 1.389 1_545 S
C607 C608 1.387 . S
C608 H593 0.930 . S
C608 C603 1.390 1_545 S
C608 C607 1.387 . S
H609 C621 0.930 . S
H610 C623 0.930 . S
H611 C624 0.930 . S
H612 C628 0.959 . S
H613 C628 0.959 . S
H614 C628 0.961 . S
H615 C629 0.960 . S
H616 C629 0.961 . S
H617 C629 0.959 . S
H618 C632 0.929 . S
H619 C633 0.931 . S
H620 C635 0.930 . S
C621 H609 0.930 . S
C621 C622 1.399 1_545 S
C621 C626 1.399 . S
C622 C621 1.399 1_565 S
C622 C623 1.376 . S
C623 H610 0.930 . S
C623 C622 1.376 . S
C623 C624 1.388 . S
C624 H611 0.930 . S
C624 C623 1.388 . S
C624 C625 1.390 1_565 S
C625 C624 1.390 1_545 S
C625 C626 1.394 . S
C625 C631 1.465 . S
C626 C621 1.399 . S
C626 C625 1.394 . S
C626 C627 1.516 . S
C627 C626 1.516 . S
C627 C628 1.502 . S
C627 C629 1.561 . S
C627 C630 1.526 . S
C628 H612 0.959 . S
C628 H613 0.959 . S
C628 H614 0.961 . S
C628 C627 1.502 . S
C629 H615 0.960 . S
C629 H616 0.961 . S
C629 H617 0.959 . S
C629 C627 1.561 . S
C630 C627 1.526 . S
C630 C631 1.396 . S
C630 C635 1.390 . S
C631 C625 1.465 . S
C631 C630 1.396 . S
C631 C632 1.399 . S
C632 H618 0.929 . S
C632 C631 1.399 . S
C632 C633 1.385 . S
C633 H619 0.931 . S
C633 C632 1.385 . S
C633 C634 1.389 . S
C634 C633 1.389 . S
C634 C635 1.387 . S
C635 H620 0.930 . S
C635 C630 1.390 . S
C635 C634 1.387 . S
H636 C648 0.930 . S
H637 C650 0.930 . S
H638 C651 0.930 . S
H639 C655 0.959 . S
H640 C655 0.959 . S
H641 C655 0.961 . S
H642 C656 0.960 . S
H643 C656 0.961 . S
H644 C656 0.959 . S
H645 C659 0.929 . S
H646 C660 0.931 . S
H647 C662 0.930 . S
C648 H636 0.930 . S
C648 C649 1.399 . S
C648 C653 1.399 . S
C649 C648 1.399 . S
C649 C650 1.376 . S
C650 H637 0.930 . S
C650 C649 1.376 . S
C650 C651 1.388 . S
C651 H638 0.930 . S
C651 C650 1.388 . S
C651 C652 1.390 . S
C652 C651 1.390 . S
C652 C653 1.394 . S
C652 C658 1.465 . S
C653 C648 1.399 . S
C653 C652 1.394 . S
C653 C654 1.516 . S
C654 C653 1.516 . S
C654 C655 1.502 . S
C654 C656 1.561 . S
C654 C657 1.526 . S
C655 H639 0.959 . S
C655 H640 0.959 . S
C655 H641 0.961 . S
C655 C654 1.502 . S
C656 H642 0.960 . S
C656 H643 0.961 . S
C656 H644 0.959 . S
C656 C654 1.561 . S
C657 C654 1.526 . S
C657 C658 1.396 . S
C657 C662 1.390 . S
C658 C652 1.465 . S
C658 C657 1.396 . S
C658 C659 1.399 . S
C659 H645 0.929 . S
C659 C658 1.399 . S
C659 C660 1.385 . S
C660 H646 0.931 . S
C660 C659 1.385 . S
C660 C661 1.389 . S
C661 C660 1.389 . S
C661 C662 1.387 . S
C662 H647 0.930 . S
C662 C657 1.390 . S
C662 C661 1.387 . S
H663 C675 0.930 . S
H664 C677 0.930 . S
H665 C678 0.930 . S
H666 C682 0.959 . S
H667 C682 0.959 . S
H668 C682 0.961 . S
H669 C683 0.960 . S
H670 C683 0.961 . S
H671 C683 0.959 . S
H672 C686 0.929 . S
H673 C687 0.931 . S
H674 C689 0.930 . S
C675 H663 0.930 . S
C675 C676 1.399 . S
C675 C680 1.399 . S
C676 C675 1.399 . S
C676 C677 1.376 . S
C677 H664 0.930 . S
C677 C676 1.376 . S
C677 C678 1.388 . S
C678 H665 0.930 . S
C678 C677 1.388 . S
C678 C679 1.390 . S
C679 C678 1.390 . S
C679 C680 1.394 . S
C679 C685 1.465 . S
C680 C675 1.399 . S
C680 C679 1.394 . S
C680 C681 1.516 . S
C681 C680 1.516 . S
C681 C682 1.502 . S
C681 C683 1.561 . S
C681 C684 1.526 . S
C682 H666 0.959 . S
C682 H667 0.959 . S
C682 H668 0.961 . S
C682 C681 1.502 . S
C683 H669 0.960 . S
C683 H670 0.961 . S
C683 H671 0.959 . S
C683 C681 1.561 . S
C684 C681 1.526 . S
C684 C685 1.396 . S
C684 C689 1.390 . S
C685 C679 1.465 . S
C685 C684 1.396 . S
C685 C686 1.399 1_554 S
C686 H672 0.929 . S
C686 C685 1.399 1_556 S
C686 C687 1.385 . S
C687 H673 0.931 . S
C687 C686 1.385 . S
C687 C688 1.389 . S
C688 C687 1.389 . S
C688 C689 1.387 1_556 S
C689 H674 0.930 . S
C689 C684 1.390 . S
C689 C688 1.387 1_554 S
H690 C702 0.930 . S
H691 C704 0.930 . S
H692 C705 0.930 . S
H693 C709 0.959 . S
H694 C709 0.959 . S
H695 C709 0.961 . S
H696 C710 0.960 . S
H697 C710 0.961 . S
H698 C710 0.959 . S
H699 C713 0.929 . S
H700 C714 0.931 . S
H701 C716 0.930 . S
C702 H690 0.930 . S
C702 C703 1.399 . S
C702 C707 1.399 . S
C703 C702 1.399 . S
C703 C704 1.376 . S
C704 H691 0.930 . S
C704 C703 1.376 . S
C704 C705 1.388 . S
C705 H692 0.930 . S
C705 C704 1.388 . S
C705 C706 1.390 . S
C706 C705 1.390 . S
C706 C707 1.394 . S
C706 C712 1.465 . S
C707 C702 1.399 . S
C707 C706 1.394 . S
C707 C708 1.516 . S
C708 C707 1.516 . S
C708 C709 1.502 . S
C708 C710 1.561 . S
C708 C711 1.526 . S
C709 H693 0.959 . S
C709 H694 0.959 . S
C709 H695 0.961 . S
C709 C708 1.502 . S
C710 H696 0.960 . S
C710 H697 0.961 . S
C710 H698 0.959 . S
C710 C708 1.561 . S
C711 C708 1.526 . S
C711 C712 1.396 . S
C711 C716 1.390 . S
C712 C706 1.465 . S
C712 C711 1.396 . S
C712 C713 1.399 . S
C713 H699 0.929 . S
C713 C712 1.399 . S
C713 C714 1.385 . S
C714 H700 0.931 . S
C714 C713 1.385 . S
C714 C715 1.389 . S
C715 C714 1.389 . S
C715 C716 1.387 . S
C716 H701 0.930 . S
C716 C711 1.390 . S
C716 C715 1.387 . S
H717 C729 0.930 . S
H718 C731 0.930 . S
H719 C732 0.930 . S
H720 C736 0.959 . S
H721 C736 0.959 . S
H722 C736 0.961 . S
H723 C737 0.960 . S
H724 C737 0.961 . S
H725 C737 0.959 . S
H726 C740 0.929 . S
H727 C741 0.931 . S
H728 C743 0.930 . S
C729 H717 0.930 . S
C729 C730 1.399 . S
C729 C734 1.399 . S
C730 C729 1.399 . S
C730 C731 1.376 . S
C731 H718 0.930 . S
C731 C730 1.376 . S
C731 C732 1.388 . S
C732 H719 0.930 . S
C732 C731 1.388 . S
C732 C733 1.390 . S
C733 C732 1.390 . S
C733 C734 1.394 . S
C733 C739 1.465 . S
C734 C729 1.399 . S
C734 C733 1.394 . S
C734 C735 1.516 . S
C735 C734 1.516 . S
C735 C736 1.502 . S
C735 C737 1.561 . S
C735 C738 1.526 . S
C736 H720 0.959 . S
C736 H721 0.959 . S
C736 H722 0.961 . S
C736 C735 1.502 . S
C737 H723 0.960 . S
C737 H724 0.961 . S
C737 H725 0.959 . S
C737 C735 1.561 . S
C738 C735 1.526 . S
C738 C739 1.396 . S
C738 C743 1.390 1_556 S
C739 C733 1.465 . S
C739 C738 1.396 . S
C739 C740 1.399 . S
C740 H726 0.929 . S
C740 C739 1.399 . S
C740 C741 1.385 1_556 S
C741 H727 0.931 . S
C741 C740 1.385 1_554 S
C741 C742 1.389 . S
C742 C741 1.389 . S
C742 C743 1.387 . S
C743 H728 0.930 . S
C743 C738 1.390 1_554 S
C743 C742 1.387 . S
H744 C756 0.930 . S
H745 C758 0.930 . S
H746 C759 0.930 . S
H747 C763 0.959 . S
H748 C763 0.959 . S
H749 C763 0.961 . S
H750 C764 0.960 . S
H751 C764 0.961 . S
H752 C764 0.959 . S
H753 C767 0.929 . S
H754 C768 0.931 . S
H755 C770 0.930 . S
C756 H744 0.930 . S
C756 C757 1.399 . S
C756 C761 1.399 . S
C757 C756 1.399 . S
C757 C758 1.376 . S
C758 H745 0.930 . S
C758 C757 1.376 . S
C758 C759 1.388 . S
C759 H746 0.930 . S
C759 C758 1.388 . S
C759 C760 1.390 . S
C760 C759 1.390 . S
C760 C761 1.394 . S
C760 C766 1.465 . S
C761 C756 1.399 . S
C761 C760 1.394 . S
C761 C762 1.516 . S
C762 C761 1.516 . S
C762 C763 1.502 . S
C762 C764 1.561 . S
C762 C765 1.526 . S
C763 H747 0.959 . S
C763 H748 0.959 . S
C763 H749 0.961 . S
C763 C762 1.502 . S
C764 H750 0.960 . S
C764 H751 0.961 . S
C764 H752 0.959 . S
C764 C762 1.561 . S
C765 C762 1.526 . S
C765 C766 1.396 . S
C765 C770 1.390 . S
C766 C760 1.465 . S
C766 C765 1.396 . S
C766 C767 1.399 . S
C767 H753 0.929 . S
C767 C766 1.399 . S
C767 C768 1.385 . S
C768 H754 0.931 . S
C768 C767 1.385 . S
C768 C769 1.389 . S
C769 C768 1.389 . S
C769 C770 1.387 . S
C770 H755 0.930 . S
C770 C765 1.390 . S
C770 C769 1.387 . S
H771 C783 0.930 . S
H772 C785 0.930 1_655 S
H773 C786 0.930 . S
H774 C790 0.959 1_655 S
H775 C790 0.959 . S
H776 C790 0.961 1_655 S
H777 C791 0.960 . S
H778 C791 0.961 . S
H779 C791 0.959 . S
H780 C794 0.929 . S
H781 C795 0.931 . S
H782 C797 0.930 . S
C783 H771 0.930 . S
C783 C784 1.399 . S
C783 C788 1.399 1_655 S
C784 C783 1.399 . S
C784 C785 1.376 1_655 S
C785 H772 0.930 1_455 S
C785 C784 1.376 1_455 S
C785 C786 1.388 . S
C786 H773 0.930 . S
C786 C785 1.388 . S
C786 C787 1.390 . S
C787 C786 1.390 . S
C787 C788 1.394 . S
C787 C793 1.465 . S
C788 C783 1.399 1_455 S
C788 C787 1.394 . S
C788 C789 1.516 . S
C789 C788 1.516 . S
C789 C790 1.502 . S
C789 C791 1.561 . S
C789 C792 1.526 . S
C790 H774 0.959 1_455 S
C790 H775 0.959 . S
C790 H776 0.961 1_455 S
C790 C789 1.502 . S
C791 H777 0.960 . S
C791 H778 0.961 . S
C791 H779 0.959 . S
C791 C789 1.561 . S
C792 C789 1.526 . S
C792 C793 1.396 . S
C792 C797 1.390 . S
C793 C787 1.465 . S
C793 C792 1.396 . S
C793 C794 1.399 . S
C794 H780 0.929 . S
C794 C793 1.399 . S
C794 C795 1.385 . S
C795 H781 0.931 . S
C795 C794 1.385 . S
C795 C796 1.389 . S
C796 C795 1.389 . S
C796 C797 1.387 . S
C797 H782 0.930 . S
C797 C792 1.390 . S
C797 C796 1.387 . S
H798 C810 0.930 . S
H799 C812 0.930 . S
H800 C813 0.930 . S
H801 C817 0.959 . S
H802 C817 0.959 . S
H803 C817 0.961 . S
H804 C818 0.960 . S
H805 C818 0.961 . S
H806 C818 0.959 . S
H807 C821 0.929 . S
H808 C822 0.931 . S
H809 C824 0.930 . S
C810 H798 0.930 . S
C810 C811 1.399 . S
C810 C815 1.399 . S
C811 C810 1.399 . S
C811 C812 1.376 . S
C812 H799 0.930 . S
C812 C811 1.376 . S
C812 C813 1.388 . S
C813 H800 0.930 . S
C813 C812 1.388 . S
C813 C814 1.390 . S
C814 C813 1.390 . S
C814 C815 1.394 . S
C814 C820 1.465 . S
C815 C810 1.399 . S
C815 C814 1.394 . S
C815 C816 1.516 . S
C816 C815 1.516 . S
C816 C817 1.502 . S
C816 C818 1.561 . S
C816 C819 1.526 . S
C817 H801 0.959 . S
C817 H802 0.959 . S
C817 H803 0.961 . S
C817 C816 1.502 . S
C818 H804 0.960 . S
C818 H805 0.961 . S
C818 H806 0.959 . S
C818 C816 1.561 . S
C819 C816 1.526 . S
C819 C820 1.396 . S
C819 C824 1.390 . S
C820 C814 1.465 . S
C820 C819 1.396 . S
C820 C821 1.399 . S
C821 H807 0.929 . S
C821 C820 1.399 . S
C821 C822 1.385 . S
C822 H808 0.931 . S
C822 C821 1.385 . S
C822 C823 1.389 . S
C823 C822 1.389 . S
C823 C824 1.387 . S
C824 H809 0.930 . S
C824 C819 1.390 . S
C824 C823 1.387 . S
H825 C837 0.930 . S
H826 C839 0.930 . S
H827 C840 0.930 . S
H828 C844 0.959 1_655 S
H829 C844 0.959 . S
H830 C844 0.961 1_655 S
H831 C845 0.971 . S
H832 C845 0.924 1_455 S
H833 C845 0.974 . S
H834 C848 0.929 . S
H835 C849 0.931 . S
H836 C851 0.930 . S
C837 H825 0.930 . S
C837 C838 1.399 . S
C837 C842 1.399 . S
C838 C837 1.399 . S
C838 C839 1.376 . S
C839 H826 0.930 . S
C839 C838 1.376 . S
C839 C840 1.388 . S
C840 H827 0.930 . S
C840 C839 1.388 . S
C840 C841 1.390 . S
C841 C840 1.390 . S
C841 C842 1.394 . S
C841 C847 1.465 . S
C842 C837 1.399 . S
C842 C841 1.394 . S
C842 C843 1.516 . S
C843 C842 1.516 . S
C843 C844 1.502 1_655 S
C843 C845 1.574 . S
C843 C846 1.526 . S
C844 H828 0.959 1_455 S
C844 H829 0.959 . S
C844 H830 0.961 1_455 S
C844 C843 1.502 1_455 S
C845 H831 0.971 . S
C845 H832 0.924 1_655 S
C845 H833 0.974 . S
C845 C843 1.574 . S
C846 C843 1.526 . S
C846 C847 1.396 . S
C846 C851 1.390 1_655 S
C847 C841 1.465 . S
C847 C846 1.396 . S
C847 C848 1.399 . S
C848 H834 0.929 . S
C848 C847 1.399 . S
C848 C849 1.385 . S
C849 H835 0.931 . S
C849 C848 1.385 . S
C849 C850 1.389 1_655 S
C850 C849 1.389 1_455 S
C850 C851 1.387 . S
C851 H836 0.930 . S
C851 C846 1.390 1_455 S
C851 C850 1.387 . S
H852 C864 0.930 . S
H853 C866 0.930 . S
H854 C867 0.930 . S
H855 C871 0.959 . S
H856 C871 0.959 . S
H857 C871 0.961 . S
H858 C872 0.960 . S
H859 C872 0.961 . S
H860 C872 0.959 . S
H861 C875 0.929 . S
H862 C876 0.931 . S
H863 C878 0.930 . S
C864 H852 0.930 . S
C864 C865 1.399 . S
C864 C869 1.399 . S
C865 C864 1.399 . S
C865 C866 1.376 . S
C866 H853 0.930 . S
C866 C865 1.376 . S
C866 C867 1.388 . S
C867 H854 0.930 . S
C867 C866 1.388 . S
C867 C868 1.390 . S
C868 C867 1.390 . S
C868 C869 1.394 . S
C868 C874 1.465 . S
C869 C864 1.399 . S
C869 C868 1.394 . S
C869 C870 1.516 . S
C870 C869 1.516 . S
C870 C871 1.502 . S
C870 C872 1.561 . S
C870 C873 1.526 . S
C871 H855 0.959 . S
C871 H856 0.959 . S
C871 H857 0.961 . S
C871 C870 1.502 . S
C872 H858 0.960 . S
C872 H859 0.961 . S
C872 H860 0.959 . S
C872 C870 1.561 . S
C873 C870 1.526 . S
C873 C874 1.396 . S
C873 C878 1.390 . S
C874 C868 1.465 . S
C874 C873 1.396 . S
C874 C875 1.399 . S
C875 H861 0.929 . S
C875 C874 1.399 . S
C875 C876 1.385 . S
C876 H862 0.931 . S
C876 C875 1.385 . S
C876 C877 1.389 . S
C877 C876 1.389 . S
C877 C878 1.387 . S
C878 H863 0.930 . S
C878 C873 1.390 . S
C878 C877 1.387 . S
H879 C891 0.930 . S
H880 C893 0.930 . S
H881 C894 0.930 . S
H882 C898 0.959 . S
H883 C898 0.959 . S
H884 C898 0.961 . S
H885 C899 0.960 . S
H886 C899 0.961 . S
H887 C899 0.959 . S
H888 C902 0.929 . S
H889 C903 0.931 . S
H890 C905 0.930 . S
C891 H879 0.930 . S
C891 C892 1.399 . S
C891 C896 1.399 . S
C892 C891 1.399 . S
C892 C893 1.376 . S
C893 H880 0.930 . S
C893 C892 1.376 . S
C893 C894 1.388 . S
C894 H881 0.930 . S
C894 C893 1.388 . S
C894 C895 1.390 . S
C895 C894 1.390 . S
C895 C896 1.394 . S
C895 C901 1.465 . S
C896 C891 1.399 . S
C896 C895 1.394 . S
C896 C897 1.516 . S
C897 C896 1.516 . S
C897 C898 1.502 . S
C897 C899 1.561 . S
C897 C900 1.526 . S
C898 H882 0.959 . S
C898 H883 0.959 . S
C898 H884 0.961 . S
C898 C897 1.502 . S
C899 H885 0.960 . S
C899 H886 0.961 . S
C899 H887 0.959 . S
C899 C897 1.561 . S
C900 C897 1.526 . S
C900 C901 1.396 . S
C900 C905 1.390 . S
C901 C895 1.465 . S
C901 C900 1.396 . S
C901 C902 1.399 . S
C902 H888 0.929 . S
C902 C901 1.399 . S
C902 C903 1.385 . S
C903 H889 0.931 . S
C903 C902 1.385 . S
C903 C904 1.389 . S
C904 C903 1.389 . S
C904 C905 1.387 . S
C905 H890 0.930 . S
C905 C900 1.390 . S
C905 C904 1.387 . S
H906 C918 0.930 . S
H907 C920 0.930 . S
H908 C921 0.930 . S
H909 C925 0.952 1_545 S
H910 C925 0.980 . S
H911 C925 0.956 1_545 S
H912 C926 0.960 1_545 S
H913 C926 0.961 . S
H914 C926 0.959 1_545 S
H915 C929 0.929 . S
H916 C930 0.931 . S
H917 C932 0.930 . S
C918 H906 0.930 . S
C918 C919 1.399 . S
C918 C923 1.399 . S
C919 C918 1.399 . S
C919 C920 1.376 . S
C920 H907 0.930 . S
C920 C919 1.376 . S
C920 C921 1.388 . S
C921 H908 0.930 . S
C921 C920 1.388 . S
C921 C922 1.390 . S
C922 C921 1.390 . S
C922 C923 1.394 . S
C922 C928 1.465 . S
C923 C918 1.399 . S
C923 C922 1.394 . S
C923 C924 1.516 . S
C924 C923 1.516 . S
C924 C925 1.494 1_545 S
C924 C926 1.561 1_545 S
C924 C927 1.526 . S
C925 H909 0.952 1_565 S
C925 H910 0.980 . S
C925 H911 0.956 1_565 S
C925 C924 1.494 1_565 S
C926 H912 0.960 1_565 S
C926 H913 0.961 . S
C926 H914 0.959 1_565 S
C926 C924 1.561 1_565 S
C927 C924 1.526 . S
C927 C928 1.396 . S
C927 C932 1.390 1_545 S
C928 C922 1.465 . S
C928 C927 1.396 . S
C928 C929 1.399 . S
C929 H915 0.929 . S
C929 C928 1.399 . S
C929 C930 1.385 . S
C930 H916 0.931 . S
C930 C929 1.385 . S
C930 C931 1.389 1_545 S
C931 C930 1.389 1_565 S
C931 C932 1.387 . S
C932 H917 0.930 . S
C932 C927 1.390 1_565 S
C932 C931 1.387 . S
H933 C945 0.930 . S
H934 C947 0.930 . S
H935 C948 0.930 . S
H936 C952 0.959 . S
H937 C952 0.959 . S
H938 C952 0.960 1_565 S
H939 C953 0.960 . S
H940 C953 0.961 1_545 S
H941 C953 0.959 . S
H942 C956 0.929 . S
H943 C957 0.931 . S
H944 C959 0.930 . S
C945 H933 0.930 . S
C945 C946 1.399 . S
C945 C950 1.399 . S
C946 C945 1.399 . S
C946 C947 1.376 . S
C947 H934 0.930 . S
C947 C946 1.376 . S
C947 C948 1.388 . S
C948 H935 0.930 . S
C948 C947 1.388 . S
C948 C949 1.390 . S
C949 C948 1.390 . S
C949 C950 1.394 . S
C949 C955 1.465 . S
C950 C945 1.399 . S
C950 C949 1.394 . S
C950 C951 1.516 . S
C951 C950 1.516 . S
C951 C952 1.502 1_565 S
C951 C953 1.561 . S
C951 C954 1.526 . S
C952 H936 0.959 . S
C952 H937 0.959 . S
C952 H938 0.960 1_545 S
C952 C951 1.502 1_545 S
C953 H939 0.960 . S
C953 H940 0.961 1_565 S
C953 H941 0.959 . S
C953 C951 1.561 . S
C954 C951 1.526 . S
C954 C955 1.396 . S
C954 C959 1.390 1_565 S
C955 C949 1.465 . S
C955 C954 1.396 . S
C955 C956 1.399 . S
C956 H942 0.929 . S
C956 C955 1.399 . S
C956 C957 1.385 . S
C957 H943 0.931 . S
C957 C956 1.385 . S
C957 C958 1.389 1_565 S
C958 C957 1.389 1_545 S
C958 C959 1.387 . S
C959 H944 0.930 . S
C959 C954 1.390 1_545 S
C959 C958 1.387 . S
H960 C972 0.930 . S
H961 C974 0.930 . S
H962 C975 0.930 . S
H963 C979 0.959 . S
H964 C979 0.959 . S
H965 C979 0.961 . S
H966 C980 0.960 . S
H967 C980 0.961 . S
H968 C980 0.959 . S
H969 C983 0.929 . S
H970 C984 0.931 . S
H971 C986 0.930 . S
C972 H960 0.930 . S
C972 C973 1.399 . S
C972 C977 1.399 . S
C973 C972 1.399 . S
C973 C974 1.376 . S
C974 H961 0.930 . S
C974 C973 1.376 . S
C974 C975 1.388 . S
C975 H962 0.930 . S
C975 C974 1.388 . S
C975 C976 1.390 . S
C976 C975 1.390 . S
C976 C977 1.394 . S
C976 C982 1.465 . S
C977 C972 1.399 . S
C977 C976 1.394 . S
C977 C978 1.516 . S
C978 C977 1.516 . S
C978 C979 1.502 . S
C978 C980 1.561 . S
C978 C981 1.526 . S
C979 H963 0.959 . S
C979 H964 0.959 . S
C979 H965 0.961 . S
C979 C978 1.502 . S
C980 H966 0.960 . S
C980 H967 0.961 . S
C980 H968 0.959 . S
C980 C978 1.561 . S
C981 C978 1.526 . S
C981 C982 1.396 . S
C981 C986 1.390 . S
C982 C976 1.465 . S
C982 C981 1.396 . S
C982 C983 1.399 . S
C983 H969 0.929 . S
C983 C982 1.399 . S
C983 C984 1.385 . S
C984 H970 0.931 . S
C984 C983 1.385 . S
C984 C985 1.389 . S
C985 C984 1.389 . S
C985 C986 1.387 . S
C986 H971 0.930 . S
C986 C981 1.390 . S
C986 C985 1.387 . S
H987 C999 0.930 . S
H988 C1001 0.930 . S
H989 C1002 0.930 . S
H990 C1006 0.959 . S
H991 C1006 0.959 . S
H992 C1006 0.961 1_556 S
H993 C1007 0.960 . S
H994 C1007 0.961 . S
H995 C1007 0.959 . S
H996 C1010 0.929 . S
H997 C1011 0.931 . S
H998 C1013 0.930 . S
C999 H987 0.930 . S
C999 C1000 1.399 . S
C999 C1004 1.399 . S
C1000 C999 1.399 . S
C1000 C1001 1.376 . S
C1001 H988 0.930 . S
C1001 C1000 1.376 . S
C1001 C1002 1.388 . S
C1002 H989 0.930 . S
C1002 C1001 1.388 . S
C1002 C1003 1.390 . S
C1003 C1002 1.390 . S
C1003 C1004 1.394 . S
C1003 C1009 1.465 . S
C1004 C999 1.399 . S
C1004 C1003 1.394 . S
C1004 C1005 1.516 . S
C1005 C1004 1.516 . S
C1005 C1006 1.502 1_556 S
C1005 C1007 1.561 . S
C1005 C1008 1.526 . S
C1006 H990 0.959 . S
C1006 H991 0.959 . S
C1006 H992 0.961 1_554 S
C1006 C1005 1.502 1_554 S
C1007 H993 0.960 . S
C1007 H994 0.961 . S
C1007 H995 0.959 . S
C1007 C1005 1.561 . S
C1008 C1005 1.526 . S
C1008 C1009 1.396 . S
C1008 C1013 1.390 1_556 S
C1009 C1003 1.465 . S
C1009 C1008 1.396 . S
C1009 C1010 1.399 . S
C1010 H996 0.929 . S
C1010 C1009 1.399 . S
C1010 C1011 1.385 . S
C1011 H997 0.931 . S
C1011 C1010 1.385 . S
C1011 C1012 1.389 1_556 S
C1012 C1011 1.389 1_554 S
C1012 C1013 1.387 . S
C1013 H998 0.930 . S
C1013 C1008 1.390 1_554 S
C1013 C1012 1.387 . S
H1014 C1026 0.930 . S
H1015 C1028 0.930 . S
H1016 C1029 0.930 . S
H1017 C1033 0.959 . S
H1018 C1033 0.959 . S
H1019 C1033 0.961 . S
H1020 C1034 0.960 . S
H1021 C1034 0.961 . S
H1022 C1034 0.959 . S
H1023 C1037 0.929 . S
H1024 C1038 0.931 . S
H1025 C1040 0.930 . S
C1026 H1014 0.930 . S
C1026 C1027 1.399 . S
C1026 C1031 1.399 . S
C1027 C1026 1.399 . S
C1027 C1028 1.376 . S
C1028 H1015 0.930 . S
C1028 C1027 1.376 . S
C1028 C1029 1.388 . S
C1029 H1016 0.930 . S
C1029 C1028 1.388 . S
C1029 C1030 1.390 . S
C1030 C1029 1.390 . S
C1030 C1031 1.394 . S
C1030 C1036 1.465 . S
C1031 C1026 1.399 . S
C1031 C1030 1.394 . S
C1031 C1032 1.516 . S
C1032 C1031 1.516 . S
C1032 C1033 1.502 . S
C1032 C1034 1.561 . S
C1032 C1035 1.526 . S
C1033 H1017 0.959 . S
C1033 H1018 0.959 . S
C1033 H1019 0.961 . S
C1033 C1032 1.502 . S
C1034 H1020 0.960 . S
C1034 H1021 0.961 . S
C1034 H1022 0.959 . S
C1034 C1032 1.561 . S
C1035 C1032 1.526 . S
C1035 C1036 1.396 . S
C1035 C1040 1.390 . S
C1036 C1030 1.465 . S
C1036 C1035 1.396 . S
C1036 C1037 1.399 . S
C1037 H1023 0.929 . S
C1037 C1036 1.399 . S
C1037 C1038 1.385 . S
C1038 H1024 0.931 . S
C1038 C1037 1.385 . S
C1038 C1039 1.389 . S
C1039 C1038 1.389 . S
C1039 C1040 1.387 . S
C1040 H1025 0.930 . S
C1040 C1035 1.390 . S
C1040 C1039 1.387 . S
H1041 C1053 0.932 . S
H1042 C1055 0.930 . S
H1043 C1056 0.930 . S
H1044 C1060 0.959 . S
H1045 C1060 0.959 . S
H1046 C1060 0.961 . S
H1047 C1061 0.960 . S
H1048 C1061 0.961 . S
H1049 C1061 0.959 . S
H1050 C1064 0.929 . S
H1051 C1065 0.931 . S
H1052 C1067 0.930 . S
C1053 H1041 0.932 . S
C1053 C1054 1.399 1_554 S
C1053 C1058 1.399 . S
C1054 C1053 1.399 1_556 S
C1054 C1055 1.376 . S
C1055 H1042 0.930 . S
C1055 C1054 1.376 . S
C1055 C1056 1.388 1_556 S
C1056 H1043 0.930 . S
C1056 C1055 1.388 1_554 S
C1056 C1057 1.390 . S
C1057 C1056 1.390 . S
C1057 C1058 1.394 . S
C1057 C1063 1.465 . S
C1058 C1053 1.399 . S
C1058 C1057 1.394 . S
C1058 C1059 1.516 . S
C1059 C1058 1.516 . S
C1059 C1060 1.502 . S
C1059 C1061 1.561 . S
C1059 C1062 1.526 . S
C1060 H1044 0.959 . S
C1060 H1045 0.959 . S
C1060 H1046 0.961 . S
C1060 C1059 1.502 . S
C1061 H1047 0.960 . S
C1061 H1048 0.961 . S
C1061 H1049 0.959 . S
C1061 C1059 1.561 . S
C1062 C1059 1.526 . S
C1062 C1063 1.396 . S
C1062 C1067 1.390 . S
C1063 C1057 1.465 . S
C1063 C1062 1.396 . S
C1063 C1064 1.399 . S
C1064 H1050 0.929 . S
C1064 C1063 1.399 . S
C1064 C1065 1.385 . S
C1065 H1051 0.931 . S
C1065 C1064 1.385 . S
C1065 C1066 1.389 . S
C1066 C1065 1.389 . S
C1066 C1067 1.387 . S
C1067 H1052 0.930 . S
C1067 C1062 1.390 . S
C1067 C1066 1.387 . S
H1068 C1080 0.930 . S
H1069 C1082 0.930 . S
H1070 C1083 0.930 . S
H1071 C1087 0.959 . S
H1072 C1087 0.959 . S
H1073 C1087 0.961 . S
H1074 C1088 0.960 . S
H1075 C1088 0.961 . S
H1076 C1088 0.959 . S
H1077 C1091 0.929 . S
H1078 C1092 0.931 . S
H1079 C1094 0.930 . S
C1080 H1068 0.930 . S
C1080 C1081 1.399 . S
C1080 C1085 1.399 . S
C1081 C1080 1.399 . S
C1081 C1082 1.376 . S
C1082 H1069 0.930 . S
C1082 C1081 1.376 . S
C1082 C1083 1.388 . S
C1083 H1070 0.930 . S
C1083 C1082 1.388 . S
C1083 C1084 1.390 . S
C1084 C1083 1.390 . S
C1084 C1085 1.394 . S
C1084 C1090 1.465 . S
C1085 C1080 1.399 . S
C1085 C1084 1.394 . S
C1085 C1086 1.516 . S
C1086 C1085 1.516 . S
C1086 C1087 1.502 . S
C1086 C1088 1.561 . S
C1086 C1089 1.526 . S
C1087 H1071 0.959 . S
C1087 H1072 0.959 . S
C1087 H1073 0.961 . S
C1087 C1086 1.502 . S
C1088 H1074 0.960 . S
C1088 H1075 0.961 . S
C1088 H1076 0.959 . S
C1088 C1086 1.561 . S
C1089 C1086 1.526 . S
C1089 C1090 1.396 . S
C1089 C1094 1.390 . S
C1090 C1084 1.465 . S
C1090 C1089 1.396 . S
C1090 C1091 1.399 . S
C1091 H1077 0.929 . S
C1091 C1090 1.399 . S
C1091 C1092 1.385 . S
C1092 H1078 0.931 . S
C1092 C1091 1.385 . S
C1092 C1093 1.389 . S
C1093 C1092 1.389 . S
C1093 C1094 1.387 . S
C1094 H1079 0.930 . S
C1094 C1089 1.390 . S
C1094 C1093 1.387 . S
H1095 C1107 0.930 . S
H1096 C1109 0.930 . S
H1097 C1110 0.930 . S
H1098 C1114 0.959 . S
H1099 C1114 0.959 . S
H1100 C1114 0.961 . S
H1101 C1115 0.960 . S
H1102 C1115 0.961 . S
H1103 C1115 0.959 . S
H1104 C1118 0.929 . S
H1105 C1119 0.931 . S
H1106 C1121 0.930 . S
C1107 H1095 0.930 . S
C1107 C1108 1.399 . S
C1107 C1112 1.399 1_455 S
C1108 C1107 1.399 . S
C1108 C1109 1.376 . S
C1109 H1096 0.930 . S
C1109 C1108 1.376 . S
C1109 C1110 1.388 1_455 S
C1110 H1097 0.930 . S
C1110 C1109 1.388 1_655 S
C1110 C1111 1.390 . S
C1111 C1110 1.390 . S
C1111 C1112 1.394 . S
C1111 C1117 1.465 . S
C1112 C1107 1.399 1_655 S
C1112 C1111 1.394 . S
C1112 C1113 1.516 . S
C1113 C1112 1.516 . S
C1113 C1114 1.502 . S
C1113 C1115 1.561 . S
C1113 C1116 1.526 . S
C1114 H1098 0.959 . S
C1114 H1099 0.959 . S
C1114 H1100 0.961 . S
C1114 C1113 1.502 . S
C1115 H1101 0.960 . S
C1115 H1102 0.961 . S
C1115 H1103 0.959 . S
C1115 C1113 1.561 . S
C1116 C1113 1.526 . S
C1116 C1117 1.396 . S
C1116 C1121 1.390 . S
C1117 C1111 1.465 . S
C1117 C1116 1.396 . S
C1117 C1118 1.399 . S
C1118 H1104 0.929 . S
C1118 C1117 1.399 . S
C1118 C1119 1.385 . S
C1119 H1105 0.931 . S
C1119 C1118 1.385 . S
C1119 C1120 1.389 . S
C1120 C1119 1.389 . S
C1120 C1121 1.387 . S
C1121 H1106 0.930 . S
C1121 C1116 1.390 . S
C1121 C1120 1.387 . S
H1122 C1134 0.930 . S
H1123 C1136 0.930 . S
H1124 C1137 0.930 . S
H1125 C1141 0.959 . S
H1126 C1141 0.959 . S
H1127 C1141 0.961 . S
H1128 C1142 0.960 . S
H1129 C1142 0.961 . S
H1130 C1142 0.959 . S
H1131 C1145 0.929 . S
H1132 C1146 0.931 . S
H1133 C1148 0.930 . S
C1134 H1122 0.930 . S
C1134 C1135 1.399 . S
C1134 C1139 1.399 . S
C1135 C1134 1.399 . S
C1135 C1136 1.376 . S
C1136 H1123 0.930 . S
C1136 C1135 1.376 . S
C1136 C1137 1.388 . S
C1137 H1124 0.930 . S
C1137 C1136 1.388 . S
C1137 C1138 1.390 . S
C1138 C1137 1.390 . S
C1138 C1139 1.394 . S
C1138 C1144 1.465 . S
C1139 C1134 1.399 . S
C1139 C1138 1.394 . S
C1139 C1140 1.516 . S
C1140 C1139 1.516 . S
C1140 C1141 1.502 . S
C1140 C1142 1.561 . S
C1140 C1143 1.526 . S
C1141 H1125 0.959 . S
C1141 H1126 0.959 . S
C1141 H1127 0.961 . S
C1141 C1140 1.502 . S
C1142 H1128 0.960 . S
C1142 H1129 0.961 . S
C1142 H1130 0.959 . S
C1142 C1140 1.561 . S
C1143 C1140 1.526 . S
C1143 C1144 1.396 . S
C1143 C1148 1.390 . S
C1144 C1138 1.465 . S
C1144 C1143 1.396 . S
C1144 C1145 1.399 . S
C1145 H1131 0.929 . S
C1145 C1144 1.399 . S
C1145 C1146 1.385 . S
C1146 H1132 0.931 . S
C1146 C1145 1.385 . S
C1146 C1147 1.389 . S
C1147 C1146 1.389 . S
C1147 C1148 1.387 . S
C1148 H1133 0.930 . S
C1148 C1143 1.390 . S
C1148 C1147 1.387 . S
H1149 C1161 0.930 . S
H1150 C1163 0.930 . S
H1151 C1164 0.930 . S
H1152 C1168 0.959 . S
H1153 C1168 0.959 . S
H1154 C1168 0.961 . S
H1155 C1169 0.960 . S
H1156 C1169 0.961 1_655 S
H1157 C1169 0.959 1_655 S
H1158 C1172 0.929 . S
H1159 C1173 0.931 . S
H1160 C1175 0.930 . S
C1161 H1149 0.930 . S
C1161 C1162 1.399 . S
C1161 C1166 1.399 . S
C1162 C1161 1.399 . S
C1162 C1163 1.376 . S
C1163 H1150 0.930 . S
C1163 C1162 1.376 . S
C1163 C1164 1.388 . S
C1164 H1151 0.930 . S
C1164 C1163 1.388 . S
C1164 C1165 1.390 . S
C1165 C1164 1.390 . S
C1165 C1166 1.394 . S
C1165 C1171 1.465 . S
C1166 C1161 1.399 . S
C1166 C1165 1.394 . S
C1166 C1167 1.516 . S
C1167 C1166 1.516 . S
C1167 C1168 1.502 . S
C1167 C1169 1.561 . S
C1167 C1170 1.526 . S
C1168 H1152 0.959 . S
C1168 H1153 0.959 . S
C1168 H1154 0.961 . S
C1168 C1167 1.502 . S
C1169 H1155 0.960 . S
C1169 H1156 0.961 1_455 S
C1169 H1157 0.959 1_455 S
C1169 C1167 1.561 . S
C1170 C1167 1.526 . S
C1170 C1171 1.396 . S
C1170 C1175 1.390 1_455 S
C1171 C1165 1.465 . S
C1171 C1170 1.396 . S
C1171 C1172 1.399 . S
C1172 H1158 0.929 . S
C1172 C1171 1.399 . S
C1172 C1173 1.385 1_455 S
C1173 H1159 0.931 . S
C1173 C1172 1.385 1_655 S
C1173 C1174 1.389 . S
C1174 C1173 1.389 . S
C1174 C1175 1.387 . S
C1175 H1160 0.930 . S
C1175 C1170 1.390 1_655 S
C1175 C1174 1.387 . S
H1176 C1188 0.930 . S
H1177 C1190 0.921 1_556 S
H1178 C1191 0.930 . S
H1179 C1195 0.959 . S
H1180 C1195 0.959 . S
H1181 C1195 0.961 . S
H1182 C1196 0.960 . S
H1183 C1196 0.961 . S
H1184 C1196 0.959 . S
H1185 C1199 0.929 . S
H1186 C1200 0.931 . S
H1187 C1202 0.930 . S
C1188 H1176 0.930 . S
C1188 C1189 1.399 1_554 S
C1188 C1193 1.399 . S
C1189 C1188 1.399 1_556 S
C1189 C1190 1.376 1_556 S
C1190 H1177 0.921 1_554 S
C1190 C1189 1.376 1_554 S
C1190 C1191 1.388 . S
C1191 H1178 0.930 . S
C1191 C1190 1.388 . S
C1191 C1192 1.390 . S
C1192 C1191 1.390 . S
C1192 C1193 1.394 . S
C1192 C1198 1.465 . S
C1193 C1188 1.399 . S
C1193 C1192 1.394 . S
C1193 C1194 1.516 . S
C1194 C1193 1.516 . S
C1194 C1195 1.502 . S
C1194 C1196 1.561 . S
C1194 C1197 1.526 . S
C1195 H1179 0.959 . S
C1195 H1180 0.959 . S
C1195 H1181 0.961 . S
C1195 C1194 1.502 . S
C1196 H1182 0.960 . S
C1196 H1183 0.961 . S
C1196 H1184 0.959 . S
C1196 C1194 1.561 . S
C1197 C1194 1.526 . S
C1197 C1198 1.396 . S
C1197 C1202 1.390 . S
C1198 C1192 1.465 . S
C1198 C1197 1.396 . S
C1198 C1199 1.399 . S
C1199 H1185 0.929 . S
C1199 C1198 1.399 . S
C1199 C1200 1.385 . S
C1200 H1186 0.931 . S
C1200 C1199 1.385 . S
C1200 C1201 1.389 . S
C1201 C1200 1.389 . S
C1201 C1202 1.387 . S
C1202 H1187 0.930 . S
C1202 C1197 1.390 . S
C1202 C1201 1.387 . S
H1203 C1215 0.930 . S
H1204 C1217 0.930 . S
H1205 C1218 0.930 . S
H1206 C1222 0.959 . S
H1207 C1222 0.959 . S
H1208 C1222 0.961 . S
H1209 C1223 0.960 . S
H1210 C1223 0.961 . S
H1211 C1223 0.959 . S
H1212 C1226 0.929 . S
H1213 C1227 0.931 . S
H1214 C1229 0.930 . S
C1215 H1203 0.930 . S
C1215 C1216 1.399 . S
C1215 C1220 1.399 . S
C1216 C1215 1.399 . S
C1216 C1217 1.376 . S
C1217 H1204 0.930 . S
C1217 C1216 1.376 . S
C1217 C1218 1.388 . S
C1218 H1205 0.930 . S
C1218 C1217 1.388 . S
C1218 C1219 1.390 . S
C1219 C1218 1.390 . S
C1219 C1220 1.394 . S
C1219 C1225 1.465 . S
C1220 C1215 1.399 . S
C1220 C1219 1.394 . S
C1220 C1221 1.516 . S
C1221 C1220 1.516 . S
C1221 C1222 1.502 . S
C1221 C1223 1.561 . S
C1221 C1224 1.526 . S
C1222 H1206 0.959 . S
C1222 H1207 0.959 . S
C1222 H1208 0.961 . S
C1222 C1221 1.502 . S
C1223 H1209 0.960 . S
C1223 H1210 0.961 . S
C1223 H1211 0.959 . S
C1223 C1221 1.561 . S
C1224 C1221 1.526 . S
C1224 C1225 1.396 . S
C1224 C1229 1.390 . S
C1225 C1219 1.465 . S
C1225 C1224 1.396 . S
C1225 C1226 1.399 . S
C1226 H1212 0.929 . S
C1226 C1225 1.399 . S
C1226 C1227 1.385 . S
C1227 H1213 0.931 . S
C1227 C1226 1.385 . S
C1227 C1228 1.389 . S
C1228 C1227 1.389 . S
C1228 C1229 1.387 . S
C1229 H1214 0.930 . S
C1229 C1224 1.390 . S
C1229 C1228 1.387 . S
H1230 C1242 0.930 . S
H1231 C1244 0.930 1_554 S
H1232 C1245 0.930 . S
H1233 C1249 0.959 . S
H1234 C1249 0.959 . S
H1235 C1249 0.961 . S
H1236 C1250 0.960 . S
H1237 C1250 0.961 . S
H1238 C1250 0.959 . S
H1239 C1253 0.929 . S
H1240 C1254 0.931 . S
H1241 C1256 0.930 . S
C1242 H1230 0.930 . S
C1242 C1243 1.399 1_556 S
C1242 C1247 1.399 . S
C1243 C1242 1.399 1_554 S
C1243 C1244 1.376 1_554 S
C1244 H1231 0.930 1_556 S
C1244 C1243 1.376 1_556 S
C1244 C1245 1.388 . S
C1245 H1232 0.930 . S
C1245 C1244 1.388 . S
C1245 C1246 1.390 . S
C1246 C1245 1.390 . S
C1246 C1247 1.394 . S
C1246 C1252 1.465 . S
C1247 C1242 1.399 . S
C1247 C1246 1.394 . S
C1247 C1248 1.516 . S
C1248 C1247 1.516 . S
C1248 C1249 1.502 . S
C1248 C1250 1.561 . S
C1248 C1251 1.526 . S
C1249 H1233 0.959 . S
C1249 H1234 0.959 . S
C1249 H1235 0.961 . S
C1249 C1248 1.502 . S
C1250 H1236 0.960 . S
C1250 H1237 0.961 . S
C1250 H1238 0.959 . S
C1250 C1248 1.561 . S
C1251 C1248 1.526 . S
C1251 C1252 1.396 . S
C1251 C1256 1.390 . S
C1252 C1246 1.465 . S
C1252 C1251 1.396 . S
C1252 C1253 1.399 . S
C1253 H1239 0.929 . S
C1253 C1252 1.399 . S
C1253 C1254 1.385 . S
C1254 H1240 0.931 . S
C1254 C1253 1.385 . S
C1254 C1255 1.389 . S
C1255 C1254 1.389 . S
C1255 C1256 1.387 . S
C1256 H1241 0.930 . S
C1256 C1251 1.390 . S
C1256 C1255 1.387 . S
H1257 C1269 0.930 . S
H1258 C1271 0.930 . S
H1259 C1272 0.930 . S
H1260 C1276 0.959 . S
H1261 C1276 0.959 . S
H1262 C1276 0.961 . S
H1263 C1277 0.960 . S
H1264 C1277 0.961 . S
H1265 C1277 0.959 . S
H1266 C1280 0.929 . S
H1267 C1281 0.931 . S
H1268 C1283 0.930 . S
C1269 H1257 0.930 . S
C1269 C1270 1.399 . S
C1269 C1274 1.399 . S
C1270 C1269 1.399 . S
C1270 C1271 1.376 . S
C1271 H1258 0.930 . S
C1271 C1270 1.376 . S
C1271 C1272 1.388 . S
C1272 H1259 0.930 . S
C1272 C1271 1.388 . S
C1272 C1273 1.390 . S
C1273 C1272 1.390 . S
C1273 C1274 1.394 . S
C1273 C1279 1.465 . S
C1274 C1269 1.399 . S
C1274 C1273 1.394 . S
C1274 C1275 1.516 . S
C1275 C1274 1.516 . S
C1275 C1276 1.502 . S
C1275 C1277 1.561 . S
C1275 C1278 1.526 . S
C1276 H1260 0.959 . S
C1276 H1261 0.959 . S
C1276 H1262 0.961 . S
C1276 C1275 1.502 . S
C1277 H1263 0.960 . S
C1277 H1264 0.961 . S
C1277 H1265 0.959 . S
C1277 C1275 1.561 . S
C1278 C1275 1.526 . S
C1278 C1279 1.396 . S
C1278 C1283 1.390 . S
C1279 C1273 1.465 . S
C1279 C1278 1.396 . S
C1279 C1280 1.399 . S
C1280 H1266 0.929 . S
C1280 C1279 1.399 . S
C1280 C1281 1.385 . S
C1281 H1267 0.931 . S
C1281 C1280 1.385 . S
C1281 C1282 1.389 . S
C1282 C1281 1.389 . S
C1282 C1283 1.387 . S
C1283 H1268 0.930 . S
C1283 C1278 1.390 . S
C1283 C1282 1.387 . S
H1284 C1296 0.930 . S
H1285 C1298 0.930 . S
H1286 C1299 0.930 . S
H1287 C1303 0.959 . S
H1288 C1303 0.959 . S
H1289 C1303 0.961 . S
H1290 C1304 0.960 . S
H1291 C1304 0.961 . S
H1292 C1304 0.959 . S
H1293 C1307 0.929 . S
H1294 C1308 0.931 1_655 S
H1295 C1310 0.930 . S
C1296 H1284 0.930 . S
C1296 C1297 1.399 . S
C1296 C1301 1.399 . S
C1297 C1296 1.399 . S
C1297 C1298 1.376 . S
C1298 H1285 0.930 . S
C1298 C1297 1.376 . S
C1298 C1299 1.388 . S
C1299 H1286 0.930 . S
C1299 C1298 1.388 . S
C1299 C1300 1.390 . S
C1300 C1299 1.390 . S
C1300 C1301 1.394 . S
C1300 C1306 1.465 . S
C1301 C1296 1.399 . S
C1301 C1300 1.394 . S
C1301 C1302 1.516 . S
C1302 C1301 1.516 . S
C1302 C1303 1.502 . S
C1302 C1304 1.561 . S
C1302 C1305 1.526 . S
C1303 H1287 0.959 . S
C1303 H1288 0.959 . S
C1303 H1289 0.961 . S
C1303 C1302 1.502 . S
C1304 H1290 0.960 . S
C1304 H1291 0.961 . S
C1304 H1292 0.959 . S
C1304 C1302 1.561 . S
C1305 C1302 1.526 . S
C1305 C1306 1.396 . S
C1305 C1310 1.390 . S
C1306 C1300 1.465 . S
C1306 C1305 1.396 . S
C1306 C1307 1.399 . S
C1307 H1293 0.929 . S
C1307 C1306 1.399 . S
C1307 C1308 1.385 . S
C1308 H1294 0.931 1_455 S
C1308 C1307 1.385 . S
C1308 C1309 1.389 1_455 S
C1309 C1308 1.389 1_655 S
C1309 C1310 1.387 1_655 S
C1310 H1295 0.930 . S
C1310 C1305 1.390 . S
C1310 C1309 1.387 1_455 S
H1311 C1323 0.930 . S
H1312 C1325 0.930 . S
H1313 C1326 0.930 . S
H1314 C1330 0.959 . S
H1315 C1330 0.959 . S
H1316 C1330 0.961 . S
H1317 C1331 0.960 . S
H1318 C1331 0.961 . S
H1319 C1331 0.959 . S
H1320 C1334 0.929 . S
H1321 C1335 0.931 . S
H1322 C1337 0.930 . S
C1323 H1311 0.930 . S
C1323 C1324 1.399 . S
C1323 C1328 1.399 . S
C1324 C1323 1.399 . S
C1324 C1325 1.376 . S
C1325 H1312 0.930 . S
C1325 C1324 1.376 . S
C1325 C1326 1.388 . S
C1326 H1313 0.930 . S
C1326 C1325 1.388 . S
C1326 C1327 1.390 . S
C1327 C1326 1.390 . S
C1327 C1328 1.394 . S
C1327 C1333 1.465 . S
C1328 C1323 1.399 . S
C1328 C1327 1.394 . S
C1328 C1329 1.516 . S
C1329 C1328 1.516 . S
C1329 C1330 1.502 . S
C1329 C1331 1.561 . S
C1329 C1332 1.526 . S
C1330 H1314 0.959 . S
C1330 H1315 0.959 . S
C1330 H1316 0.961 . S
C1330 C1329 1.502 . S
C1331 H1317 0.960 . S
C1331 H1318 0.961 . S
C1331 H1319 0.959 . S
C1331 C1329 1.561 . S
C1332 C1329 1.526 . S
C1332 C1333 1.396 . S
C1332 C1337 1.390 . S
C1333 C1327 1.465 . S
C1333 C1332 1.396 . S
C1333 C1334 1.399 . S
C1334 H1320 0.929 . S
C1334 C1333 1.399 . S
C1334 C1335 1.385 . S
C1335 H1321 0.931 . S
C1335 C1334 1.385 . S
C1335 C1336 1.389 . S
C1336 C1335 1.389 . S
C1336 C1337 1.387 . S
C1337 H1322 0.930 . S
C1337 C1332 1.390 . S
C1337 C1336 1.387 . S
H1338 C1350 0.930 . S
H1339 C1352 0.930 . S
H1340 C1353 0.930 . S
H1341 C1357 0.959 . S
H1342 C1357 0.959 . S
H1343 C1357 0.961 . S
H1344 C1358 0.960 . S
H1345 C1358 0.961 . S
H1346 C1358 0.959 . S
H1347 C1361 0.929 . S
H1348 C1362 0.931 . S
H1349 C1364 0.930 . S
C1350 H1338 0.930 . S
C1350 C1351 1.399 . S
C1350 C1355 1.399 . S
C1351 C1350 1.399 . S
C1351 C1352 1.376 . S
C1352 H1339 0.930 . S
C1352 C1351 1.376 . S
C1352 C1353 1.388 . S
C1353 H1340 0.930 . S
C1353 C1352 1.388 . S
C1353 C1354 1.390 . S
C1354 C1353 1.390 . S
C1354 C1355 1.394 . S
C1354 C1360 1.465 . S
C1355 C1350 1.399 . S
C1355 C1354 1.394 . S
C1355 C1356 1.516 . S
C1356 C1355 1.516 . S
C1356 C1357 1.502 . S
C1356 C1358 1.561 . S
C1356 C1359 1.526 . S
C1357 H1341 0.959 . S
C1357 H1342 0.959 . S
C1357 H1343 0.961 . S
C1357 C1356 1.502 . S
C1358 H1344 0.960 . S
C1358 H1345 0.961 . S
C1358 H1346 0.959 . S
C1358 C1356 1.561 . S
C1359 C1356 1.526 . S
C1359 C1360 1.396 . S
C1359 C1364 1.390 . S
C1360 C1354 1.465 . S
C1360 C1359 1.396 . S
C1360 C1361 1.399 . S
C1361 H1347 0.929 . S
C1361 C1360 1.399 . S
C1361 C1362 1.385 . S
C1362 H1348 0.931 . S
C1362 C1361 1.385 . S
C1362 C1363 1.389 . S
C1363 C1362 1.389 . S
C1363 C1364 1.387 . S
C1364 H1349 0.930 . S
C1364 C1359 1.390 . S
C1364 C1363 1.387 . S
H1365 C1377 0.930 . S
H1366 C1379 0.930 1_455 S
H1367 C1380 0.930 . S
H1368 C1384 0.959 . S
H1369 C1384 0.959 . S
H1370 C1384 0.961 . S
H1371 C1385 0.960 . S
H1372 C1385 0.961 . S
H1373 C1385 0.959 . S
H1374 C1388 0.929 . S
H1375 C1389 0.931 . S
H1376 C1391 0.930 . S
C1377 H1365 0.930 . S
C1377 C1378 1.399 1_655 S
C1377 C1382 1.399 . S
C1378 C1377 1.399 1_455 S
C1378 C1379 1.376 1_455 S
C1379 H1366 0.930 1_655 S
C1379 C1378 1.376 1_655 S
C1379 C1380 1.388 . S
C1380 H1367 0.930 . S
C1380 C1379 1.388 . S
C1380 C1381 1.390 . S
C1381 C1380 1.390 . S
C1381 C1382 1.394 . S
C1381 C1387 1.465 . S
C1382 C1377 1.399 . S
C1382 C1381 1.394 . S
C1382 C1383 1.516 . S
C1383 C1382 1.516 . S
C1383 C1384 1.502 . S
C1383 C1385 1.561 . S
C1383 C1386 1.526 . S
C1384 H1368 0.959 . S
C1384 H1369 0.959 . S
C1384 H1370 0.961 . S
C1384 C1383 1.502 . S
C1385 H1371 0.960 . S
C1385 H1372 0.961 . S
C1385 H1373 0.959 . S
C1385 C1383 1.561 . S
C1386 C1383 1.526 . S
C1386 C1387 1.396 . S
C1386 C1391 1.390 . S
C1387 C1381 1.465 . S
C1387 C1386 1.396 . S
C1387 C1388 1.399 . S
C1388 H1374 0.929 . S
C1388 C1387 1.399 . S
C1388 C1389 1.385 . S
C1389 H1375 0.931 . S
C1389 C1388 1.385 . S
C1389 C1390 1.389 . S
C1390 C1389 1.389 . S
C1390 C1391 1.387 . S
C1391 H1376 0.930 . S
C1391 C1386 1.390 . S
C1391 C1390 1.387 . S
H1392 C1404 0.930 . S
H1393 C1406 0.930 . S
H1394 C1407 0.930 . S
H1395 C1411 0.959 . S
H1396 C1411 0.959 . S
H1397 C1411 0.961 . S
H1398 C1412 0.960 . S
H1399 C1412 0.961 . S
H1400 C1412 0.959 . S
H1401 C1415 0.929 . S
H1402 C1416 0.931 . S
H1403 C1418 0.930 . S
C1404 H1392 0.930 . S
C1404 C1405 1.399 1_545 S
C1404 C1409 1.399 . S
C1405 C1404 1.399 1_565 S
C1405 C1406 1.376 . S
C1406 H1393 0.930 . S
C1406 C1405 1.376 . S
C1406 C1407 1.388 1_565 S
C1407 H1394 0.930 . S
C1407 C1406 1.388 1_545 S
C1407 C1408 1.390 . S
C1408 C1407 1.390 . S
C1408 C1409 1.394 . S
C1408 C1414 1.465 . S
C1409 C1404 1.399 . S
C1409 C1408 1.394 . S
C1409 C1410 1.516 . S
C1410 C1409 1.516 . S
C1410 C1411 1.502 . S
C1410 C1412 1.561 . S
C1410 C1413 1.526 . S
C1411 H1395 0.959 . S
C1411 H1396 0.959 . S
C1411 H1397 0.961 . S
C1411 C1410 1.502 . S
C1412 H1398 0.960 . S
C1412 H1399 0.961 . S
C1412 H1400 0.959 . S
C1412 C1410 1.561 . S
C1413 C1410 1.526 . S
C1413 C1414 1.396 . S
C1413 C1418 1.390 . S
C1414 C1408 1.465 . S
C1414 C1413 1.396 . S
C1414 C1415 1.399 . S
C1415 H1401 0.929 . S
C1415 C1414 1.399 . S
C1415 C1416 1.385 . S
C1416 H1402 0.931 . S
C1416 C1415 1.385 . S
C1416 C1417 1.389 . S
C1417 C1416 1.389 . S
C1417 C1418 1.387 . S
C1418 H1403 0.930 . S
C1418 C1413 1.390 . S
C1418 C1417 1.387 . S
H1419 C1431 0.930 . S
H1420 C1433 0.930 . S
H1421 C1434 0.930 . S
H1422 C1438 0.959 . S
H1423 C1438 0.959 . S
H1424 C1438 0.961 . S
H1425 C1439 0.960 . S
H1426 C1439 0.961 . S
H1427 C1439 0.959 . S
H1428 C1442 0.929 . S
H1429 C1443 0.931 . S
H1430 C1445 0.930 . S
C1431 H1419 0.930 . S
C1431 C1432 1.399 . S
C1431 C1436 1.399 . S
C1432 C1431 1.399 . S
C1432 C1433 1.376 . S
C1433 H1420 0.930 . S
C1433 C1432 1.376 . S
C1433 C1434 1.388 . S
C1434 H1421 0.930 . S
C1434 C1433 1.388 . S
C1434 C1435 1.390 . S
C1435 C1434 1.390 . S
C1435 C1436 1.394 . S
C1435 C1441 1.465 . S
C1436 C1431 1.399 . S
C1436 C1435 1.394 . S
C1436 C1437 1.516 . S
C1437 C1436 1.516 . S
C1437 C1438 1.502 . S
C1437 C1439 1.561 . S
C1437 C1440 1.526 . S
C1438 H1422 0.959 . S
C1438 H1423 0.959 . S
C1438 H1424 0.961 . S
C1438 C1437 1.502 . S
C1439 H1425 0.960 . S
C1439 H1426 0.961 . S
C1439 H1427 0.959 . S
C1439 C1437 1.561 . S
C1440 C1437 1.526 . S
C1440 C1441 1.396 . S
C1440 C1445 1.390 . S
C1441 C1435 1.465 . S
C1441 C1440 1.396 . S
C1441 C1442 1.399 . S
C1442 H1428 0.929 . S
C1442 C1441 1.399 . S
C1442 C1443 1.385 . S
C1443 H1429 0.931 . S
C1443 C1442 1.385 . S
C1443 C1444 1.389 . S
C1444 C1443 1.389 . S
C1444 C1445 1.387 . S
C1445 H1430 0.930 . S
C1445 C1440 1.390 . S
C1445 C1444 1.387 . S
H1446 C1458 0.930 . S
H1447 C1460 0.930 . S
H1448 C1461 0.930 . S
H1449 C1465 0.959 . S
H1450 C1465 0.959 . S
H1451 C1465 0.961 . S
H1452 C1466 0.960 . S
H1453 C1466 0.961 . S
H1454 C1466 0.959 . S
H1455 C1469 0.929 . S
H1456 C1470 0.931 . S
H1457 C1472 0.930 . S
C1458 H1446 0.930 . S
C1458 C1459 1.399 . S
C1458 C1463 1.399 . S
C1459 C1458 1.399 . S
C1459 C1460 1.376 . S
C1460 H1447 0.930 . S
C1460 C1459 1.376 . S
C1460 C1461 1.388 . S
C1461 H1448 0.930 . S
C1461 C1460 1.388 . S
C1461 C1462 1.390 . S
C1462 C1461 1.390 . S
C1462 C1463 1.394 . S
C1462 C1468 1.465 . S
C1463 C1458 1.399 . S
C1463 C1462 1.394 . S
C1463 C1464 1.516 . S
C1464 C1463 1.516 . S
C1464 C1465 1.502 . S
C1464 C1466 1.561 . S
C1464 C1467 1.526 . S
C1465 H1449 0.959 . S
C1465 H1450 0.959 . S
C1465 H1451 0.961 . S
C1465 C1464 1.502 . S
C1466 H1452 0.960 . S
C1466 H1453 0.961 . S
C1466 H1454 0.959 . S
C1466 C1464 1.561 . S
C1467 C1464 1.526 . S
C1467 C1468 1.396 . S
C1467 C1472 1.390 . S
C1468 C1462 1.465 . S
C1468 C1467 1.396 . S
C1468 C1469 1.399 . S
C1469 H1455 0.929 . S
C1469 C1468 1.399 . S
C1469 C1470 1.385 . S
C1470 H1456 0.931 . S
C1470 C1469 1.385 . S
C1470 C1471 1.389 . S
C1471 C1470 1.389 . S
C1471 C1472 1.387 . S
C1472 H1457 0.930 . S
C1472 C1467 1.390 . S
C1472 C1471 1.387 . S
H1473 C1485 0.930 . S
H1474 C1487 0.930 . S
H1475 C1488 0.930 . S
H1476 C1492 0.959 . S
H1477 C1492 0.959 . S
H1478 C1492 0.961 . S
H1479 C1493 0.960 . S
H1480 C1493 0.961 . S
H1481 C1493 0.959 . S
H1482 C1496 0.929 . S
H1483 C1497 0.931 . S
H1484 C1499 0.930 . S
C1485 H1473 0.930 . S
C1485 C1486 1.399 1_565 S
C1485 C1490 1.399 . S
C1486 C1485 1.399 1_545 S
C1486 C1487 1.376 . S
C1487 H1474 0.930 . S
C1487 C1486 1.376 . S
C1487 C1488 1.388 1_545 S
C1488 H1475 0.930 . S
C1488 C1487 1.388 1_565 S
C1488 C1489 1.390 . S
C1489 C1488 1.390 . S
C1489 C1490 1.394 . S
C1489 C1495 1.465 . S
C1490 C1485 1.399 . S
C1490 C1489 1.394 . S
C1490 C1491 1.516 . S
C1491 C1490 1.516 . S
C1491 C1492 1.502 . S
C1491 C1493 1.561 . S
C1491 C1494 1.526 . S
C1492 H1476 0.959 . S
C1492 H1477 0.959 . S
C1492 H1478 0.961 . S
C1492 C1491 1.502 . S
C1493 H1479 0.960 . S
C1493 H1480 0.961 . S
C1493 H1481 0.959 . S
C1493 C1491 1.561 . S
C1494 C1491 1.526 . S
C1494 C1495 1.396 . S
C1494 C1499 1.390 . S
C1495 C1489 1.465 . S
C1495 C1494 1.396 . S
C1495 C1496 1.399 . S
C1496 H1482 0.929 . S
C1496 C1495 1.399 . S
C1496 C1497 1.385 . S
C1497 H1483 0.931 . S
C1497 C1496 1.385 . S
C1497 C1498 1.389 . S
C1498 C1497 1.389 . S
C1498 C1499 1.387 . S
C1499 H1484 0.930 . S
C1499 C1494 1.390 . S
C1499 C1498 1.387 . S
H1500 C1512 0.930 . S
H1501 C1514 0.930 . S
H1502 C1515 0.930 . S
H1503 C1519 0.959 . S
H1504 C1519 0.959 . S
H1505 C1519 0.961 . S
H1506 C1520 0.960 . S
H1507 C1520 0.961 . S
H1508 C1520 0.959 . S
H1509 C1523 0.929 . S
H1510 C1524 0.938 . S
H1511 C1526 0.930 . S
C1512 H1500 0.930 . S
C1512 C1513 1.399 . S
C1512 C1517 1.399 . S
C1513 C1512 1.399 . S
C1513 C1514 1.376 . S
C1514 H1501 0.930 . S
C1514 C1513 1.376 . S
C1514 C1515 1.388 . S
C1515 H1502 0.930 . S
C1515 C1514 1.388 . S
C1515 C1516 1.390 . S
C1516 C1515 1.390 . S
C1516 C1517 1.394 . S
C1516 C1522 1.465 . S
C1517 C1512 1.399 . S
C1517 C1516 1.394 . S
C1517 C1518 1.516 . S
C1518 C1517 1.516 . S
C1518 C1519 1.502 . S
C1518 C1520 1.561 . S
C1518 C1521 1.526 . S
C1519 H1503 0.959 . S
C1519 H1504 0.959 . S
C1519 H1505 0.961 . S
C1519 C1518 1.502 . S
C1520 H1506 0.960 . S
C1520 H1507 0.961 . S
C1520 H1508 0.959 . S
C1520 C1518 1.561 . S
C1521 C1518 1.526 . S
C1521 C1522 1.396 . S
C1521 C1526 1.390 . S
C1522 C1516 1.465 . S
C1522 C1521 1.396 . S
C1522 C1523 1.399 . S
C1523 H1509 0.929 . S
C1523 C1522 1.399 . S
C1523 C1524 1.385 . S
C1524 H1510 0.938 . S
C1524 C1523 1.385 . S
C1524 C1525 1.389 1_556 S
C1525 C1524 1.389 1_554 S
C1525 C1526 1.387 1_554 S
C1526 H1511 0.930 . S
C1526 C1521 1.390 . S
C1526 C1525 1.387 1_556 S
H1527 C1539 0.930 . S
H1528 C1541 0.930 . S
H1529 C1542 0.930 . S
H1530 C1546 0.959 . S
H1531 C1546 0.959 . S
H1532 C1546 0.961 . S
H1533 C1547 0.960 . S
H1534 C1547 0.961 . S
H1535 C1547 0.959 . S
H1536 C1550 0.929 . S
H1537 C1551 0.931 . S
H1538 C1553 0.930 . S
C1539 H1527 0.930 . S
C1539 C1540 1.399 . S
C1539 C1544 1.399 . S
C1540 C1539 1.399 . S
C1540 C1541 1.376 . S
C1541 H1528 0.930 . S
C1541 C1540 1.376 . S
C1541 C1542 1.388 . S
C1542 H1529 0.930 . S
C1542 C1541 1.388 . S
C1542 C1543 1.390 . S
C1543 C1542 1.390 . S
C1543 C1544 1.394 . S
C1543 C1549 1.465 . S
C1544 C1539 1.399 . S
C1544 C1543 1.394 . S
C1544 C1545 1.516 . S
C1545 C1544 1.516 . S
C1545 C1546 1.502 . S
C1545 C1547 1.561 . S
C1545 C1548 1.526 . S
C1546 H1530 0.959 . S
C1546 H1531 0.959 . S
C1546 H1532 0.961 . S
C1546 C1545 1.502 . S
C1547 H1533 0.960 . S
C1547 H1534 0.961 . S
C1547 H1535 0.959 . S
C1547 C1545 1.561 . S
C1548 C1545 1.526 . S
C1548 C1549 1.396 . S
C1548 C1553 1.390 . S
C1549 C1543 1.465 . S
C1549 C1548 1.396 . S
C1549 C1550 1.399 . S
C1550 H1536 0.929 . S
C1550 C1549 1.399 . S
C1550 C1551 1.385 . S
C1551 H1537 0.931 . S
C1551 C1550 1.385 . S
C1551 C1552 1.389 . S
C1552 C1551 1.389 . S
C1552 C1553 1.387 . S
C1553 H1538 0.930 . S
C1553 C1548 1.390 . S
C1553 C1552 1.387 . S
H1554 C1566 0.930 . S
H1555 C1568 0.930 . S
H1556 C1569 0.930 . S
H1557 C1573 0.959 . S
H1558 C1573 0.959 . S
H1559 C1573 0.961 . S
H1560 C1574 0.960 . S
H1561 C1574 0.961 . S
H1562 C1574 0.959 . S
H1563 C1577 0.929 . S
H1564 C1578 0.931 . S
H1565 C1580 0.930 . S
C1566 H1554 0.930 . S
C1566 C1567 1.399 . S
C1566 C1571 1.399 . S
C1567 C1566 1.399 . S
C1567 C1568 1.376 . S
C1568 H1555 0.930 . S
C1568 C1567 1.376 . S
C1568 C1569 1.388 . S
C1569 H1556 0.930 . S
C1569 C1568 1.388 . S
C1569 C1570 1.390 . S
C1570 C1569 1.390 . S
C1570 C1571 1.394 . S
C1570 C1576 1.465 . S
C1571 C1566 1.399 . S
C1571 C1570 1.394 . S
C1571 C1572 1.516 . S
C1572 C1571 1.516 . S
C1572 C1573 1.502 . S
C1572 C1574 1.561 . S
C1572 C1575 1.526 . S
C1573 H1557 0.959 . S
C1573 H1558 0.959 . S
C1573 H1559 0.961 . S
C1573 C1572 1.502 . S
C1574 H1560 0.960 . S
C1574 H1561 0.961 . S
C1574 H1562 0.959 . S
C1574 C1572 1.561 . S
C1575 C1572 1.526 . S
C1575 C1576 1.396 . S
C1575 C1580 1.390 . S
C1576 C1570 1.465 . S
C1576 C1575 1.396 . S
C1576 C1577 1.399 . S
C1577 H1563 0.929 . S
C1577 C1576 1.399 . S
C1577 C1578 1.385 1_554 S
C1578 H1564 0.931 . S
C1578 C1577 1.385 1_556 S
C1578 C1579 1.389 . S
C1579 C1578 1.389 . S
C1579 C1580 1.387 1_556 S
C1580 H1565 0.930 . S
C1580 C1575 1.390 . S
C1580 C1579 1.387 1_554 S
H1581 C1593 0.930 . S
H1582 C1595 0.930 . S
H1583 C1596 0.930 . S
H1584 C1600 0.959 . S
H1585 C1600 0.959 . S
H1586 C1600 0.961 . S
H1587 C1601 0.960 . S
H1588 C1601 0.961 . S
H1589 C1601 0.959 . S
H1590 C1604 0.929 . S
H1591 C1605 0.931 . S
H1592 C1607 0.930 . S
C1593 H1581 0.930 . S
C1593 C1594 1.399 . S
C1593 C1598 1.399 . S
C1594 C1593 1.399 . S
C1594 C1595 1.376 . S
C1595 H1582 0.930 . S
C1595 C1594 1.376 . S
C1595 C1596 1.388 . S
C1596 H1583 0.930 . S
C1596 C1595 1.388 . S
C1596 C1597 1.390 . S
C1597 C1596 1.390 . S
C1597 C1598 1.394 . S
C1597 C1603 1.465 . S
C1598 C1593 1.399 . S
C1598 C1597 1.394 . S
C1598 C1599 1.516 . S
C1599 C1598 1.516 . S
C1599 C1600 1.502 . S
C1599 C1601 1.561 . S
C1599 C1602 1.526 . S
C1600 H1584 0.959 . S
C1600 H1585 0.959 . S
C1600 H1586 0.961 . S
C1600 C1599 1.502 . S
C1601 H1587 0.960 . S
C1601 H1588 0.961 . S
C1601 H1589 0.959 . S
C1601 C1599 1.561 . S
C1602 C1599 1.526 . S
C1602 C1603 1.396 . S
C1602 C1607 1.390 . S
C1603 C1597 1.465 . S
C1603 C1602 1.396 . S
C1603 C1604 1.399 . S
C1604 H1590 0.929 . S
C1604 C1603 1.399 . S
C1604 C1605 1.385 . S
C1605 H1591 0.931 . S
C1605 C1604 1.385 . S
C1605 C1606 1.389 . S
C1606 C1605 1.389 . S
C1606 C1607 1.387 . S
C1607 H1592 0.930 . S
C1607 C1602 1.390 . S
C1607 C1606 1.387 . S
H1608 C1620 0.930 . S
H1609 C1622 0.930 . S
H1610 C1623 0.930 . S
H1611 C1627 0.959 . S
H1612 C1627 0.959 . S
H1613 C1627 0.961 . S
H1614 C1628 0.960 . S
H1615 C1628 0.961 . S
H1616 C1628 0.959 . S
H1617 C1631 0.929 . S
H1618 C1632 0.931 . S
H1619 C1634 0.930 . S
C1620 H1608 0.930 . S
C1620 C1621 1.399 1_655 S
C1620 C1625 1.399 . S
C1621 C1620 1.399 1_455 S
C1621 C1622 1.376 1_455 S
C1622 H1609 0.930 . S
C1622 C1621 1.376 1_655 S
C1622 C1623 1.388 . S
C1623 H1610 0.930 . S
C1623 C1622 1.388 . S
C1623 C1624 1.390 . S
C1624 C1623 1.390 . S
C1624 C1625 1.394 . S
C1624 C1630 1.465 . S
C1625 C1620 1.399 . S
C1625 C1624 1.394 . S
C1625 C1626 1.516 . S
C1626 C1625 1.516 . S
C1626 C1627 1.502 . S
C1626 C1628 1.561 . S
C1626 C1629 1.526 . S
C1627 H1611 0.959 . S
C1627 H1612 0.959 . S
C1627 H1613 0.961 . S
C1627 C1626 1.502 . S
C1628 H1614 0.960 . S
C1628 H1615 0.961 . S
C1628 H1616 0.959 . S
C1628 C1626 1.561 . S
C1629 C1626 1.526 . S
C1629 C1630 1.396 . S
C1629 C1634 1.390 . S
C1630 C1624 1.465 . S
C1630 C1629 1.396 . S
C1630 C1631 1.399 . S
C1631 H1617 0.929 . S
C1631 C1630 1.399 . S
C1631 C1632 1.385 . S
C1632 H1618 0.931 . S
C1632 C1631 1.385 . S
C1632 C1633 1.389 . S
C1633 C1632 1.389 . S
C1633 C1634 1.387 . S
C1634 H1619 0.930 . S
C1634 C1629 1.390 . S
C1634 C1633 1.387 . S
H1635 C1647 0.930 . S
H1636 C1649 0.930 . S
H1637 C1650 0.930 . S
H1638 C1654 0.959 . S
H1639 C1654 0.959 . S
H1640 C1654 0.961 . S
H1641 C1655 0.960 . S
H1642 C1655 0.961 . S
H1643 C1655 0.959 . S
H1644 C1658 0.929 . S
H1645 C1659 0.931 . S
H1646 C1661 0.930 . S
C1647 H1635 0.930 . S
C1647 C1648 1.399 . S
C1647 C1652 1.399 . S
C1648 C1647 1.399 . S
C1648 C1649 1.376 . S
C1649 H1636 0.930 . S
C1649 C1648 1.376 . S
C1649 C1650 1.388 . S
C1650 H1637 0.930 . S
C1650 C1649 1.388 . S
C1650 C1651 1.390 . S
C1651 C1650 1.390 . S
C1651 C1652 1.394 . S
C1651 C1657 1.465 . S
C1652 C1647 1.399 . S
C1652 C1651 1.394 . S
C1652 C1653 1.516 . S
C1653 C1652 1.516 . S
C1653 C1654 1.502 . S
C1653 C1655 1.561 . S
C1653 C1656 1.526 . S
C1654 H1638 0.959 . S
C1654 H1639 0.959 . S
C1654 H1640 0.961 . S
C1654 C1653 1.502 . S
C1655 H1641 0.960 . S
C1655 H1642 0.961 . S
C1655 H1643 0.959 . S
C1655 C1653 1.561 . S
C1656 C1653 1.526 . S
C1656 C1657 1.396 . S
C1656 C1661 1.390 . S
C1657 C1651 1.465 . S
C1657 C1656 1.396 . S
C1657 C1658 1.399 . S
C1658 H1644 0.929 . S
C1658 C1657 1.399 . S
C1658 C1659 1.385 . S
C1659 H1645 0.931 . S
C1659 C1658 1.385 . S
C1659 C1660 1.389 . S
C1660 C1659 1.389 . S
C1660 C1661 1.387 . S
C1661 H1646 0.930 . S
C1661 C1656 1.390 . S
C1661 C1660 1.387 . S
H1662 C1674 0.930 . S
H1663 C1676 0.930 . S
H1664 C1677 0.930 . S
H1665 C1681 0.959 . S
H1666 C1681 0.959 . S
H1667 C1681 0.961 . S
H1668 C1682 0.960 . S
H1669 C1682 0.961 . S
H1670 C1682 0.959 . S
H1671 C1685 0.929 . S
H1672 C1686 0.931 . S
H1673 C1688 0.930 . S
C1674 H1662 0.930 . S
C1674 C1675 1.399 . S
C1674 C1679 1.399 . S
C1675 C1674 1.399 . S
C1675 C1676 1.376 . S
C1676 H1663 0.930 . S
C1676 C1675 1.376 . S
C1676 C1677 1.388 . S
C1677 H1664 0.930 . S
C1677 C1676 1.388 . S
C1677 C1678 1.390 . S
C1678 C1677 1.390 . S
C1678 C1679 1.394 . S
C1678 C1684 1.465 . S
C1679 C1674 1.399 . S
C1679 C1678 1.394 . S
C1679 C1680 1.516 . S
C1680 C1679 1.516 . S
C1680 C1681 1.502 . S
C1680 C1682 1.561 . S
C1680 C1683 1.526 . S
C1681 H1665 0.959 . S
C1681 H1666 0.959 . S
C1681 H1667 0.961 . S
C1681 C1680 1.502 . S
C1682 H1668 0.960 . S
C1682 H1669 0.961 . S
C1682 H1670 0.959 . S
C1682 C1680 1.561 . S
C1683 C1680 1.526 . S
C1683 C1684 1.396 . S
C1683 C1688 1.390 . S
C1684 C1678 1.465 . S
C1684 C1683 1.396 . S
C1684 C1685 1.399 . S
C1685 H1671 0.929 . S
C1685 C1684 1.399 . S
C1685 C1686 1.385 . S
C1686 H1672 0.931 . S
C1686 C1685 1.385 . S
C1686 C1687 1.389 . S
C1687 C1686 1.389 . S
C1687 C1688 1.387 . S
C1688 H1673 0.930 . S
C1688 C1683 1.390 . S
C1688 C1687 1.387 . S
H1689 C1701 0.930 . S
H1690 C1703 0.930 . S
H1691 C1704 0.930 . S
H1692 C1708 0.959 . S
H1693 C1708 0.959 . S
H1694 C1708 0.961 . S
H1695 C1709 0.960 . S
H1696 C1709 0.961 . S
H1697 C1709 0.959 . S
H1698 C1712 0.929 . S
H1699 C1713 0.931 . S
H1700 C1715 0.911 1_655 S
C1701 H1689 0.930 . S
C1701 C1702 1.399 . S
C1701 C1706 1.399 . S
C1702 C1701 1.399 . S
C1702 C1703 1.376 . S
C1703 H1690 0.930 . S
C1703 C1702 1.376 . S
C1703 C1704 1.388 . S
C1704 H1691 0.930 . S
C1704 C1703 1.388 . S
C1704 C1705 1.390 . S
C1705 C1704 1.390 . S
C1705 C1706 1.394 . S
C1705 C1711 1.465 . S
C1706 C1701 1.399 . S
C1706 C1705 1.394 . S
C1706 C1707 1.516 . S
C1707 C1706 1.516 . S
C1707 C1708 1.502 . S
C1707 C1709 1.561 . S
C1707 C1710 1.526 . S
C1708 H1692 0.959 . S
C1708 H1693 0.959 . S
C1708 H1694 0.961 . S
C1708 C1707 1.502 . S
C1709 H1695 0.960 . S
C1709 H1696 0.961 . S
C1709 H1697 0.959 . S
C1709 C1707 1.561 . S
C1710 C1707 1.526 . S
C1710 C1711 1.396 . S
C1710 C1715 1.390 . S
C1711 C1705 1.465 . S
C1711 C1710 1.396 . S
C1711 C1712 1.399 . S
C1712 H1698 0.929 . S
C1712 C1711 1.399 . S
C1712 C1713 1.385 . S
C1713 H1699 0.931 . S
C1713 C1712 1.385 . S
C1713 C1714 1.389 1_455 S
C1714 C1713 1.389 1_655 S
C1714 C1715 1.387 1_655 S
C1715 H1700 0.911 1_455 S
C1715 C1710 1.390 . S
C1715 C1714 1.387 1_455 S
H1716 C1728 0.930 . S
H1717 C1730 0.930 1_545 S
H1718 C1731 0.930 . S
H1719 C1735 0.959 . S
H1720 C1735 0.959 . S
H1721 C1735 0.961 . S
H1722 C1736 0.960 . S
H1723 C1736 0.961 . S
H1724 C1736 0.959 . S
H1725 C1739 0.929 . S
H1726 C1740 0.931 . S
H1727 C1742 0.930 . S
C1728 H1716 0.930 . S
C1728 C1729 1.399 1_565 S
C1728 C1733 1.399 . S
C1729 C1728 1.399 1_545 S
C1729 C1730 1.376 1_545 S
C1730 H1717 0.930 1_565 S
C1730 C1729 1.376 1_565 S
C1730 C1731 1.388 . S
C1731 H1718 0.930 . S
C1731 C1730 1.388 . S
C1731 C1732 1.390 . S
C1732 C1731 1.390 . S
C1732 C1733 1.394 . S
C1732 C1738 1.465 . S
C1733 C1728 1.399 . S
C1733 C1732 1.394 . S
C1733 C1734 1.516 . S
C1734 C1733 1.516 . S
C1734 C1735 1.502 . S
C1734 C1736 1.561 . S
C1734 C1737 1.526 . S
C1735 H1719 0.959 . S
C1735 H1720 0.959 . S
C1735 H1721 0.961 . S
C1735 C1734 1.502 . S
C1736 H1722 0.960 . S
C1736 H1723 0.961 . S
C1736 H1724 0.959 . S
C1736 C1734 1.561 . S
C1737 C1734 1.526 . S
C1737 C1738 1.396 . S
C1737 C1742 1.390 . S
C1738 C1732 1.465 . S
C1738 C1737 1.396 . S
C1738 C1739 1.399 . S
C1739 H1725 0.929 . S
C1739 C1738 1.399 . S
C1739 C1740 1.385 . S
C1740 H1726 0.931 . S
C1740 C1739 1.385 . S
C1740 C1741 1.389 . S
C1741 C1740 1.389 . S
C1741 C1742 1.387 . S
C1742 H1727 0.930 . S
C1742 C1737 1.390 . S
C1742 C1741 1.387 . S
H1743 C1755 0.930 . S
H1744 C1757 0.930 . S
H1745 C1758 0.930 . S
H1746 C1762 0.959 . S
H1747 C1762 0.959 . S
H1748 C1762 0.961 . S
H1749 C1763 0.960 . S
H1750 C1763 0.961 . S
H1751 C1763 0.959 . S
H1752 C1766 0.929 . S
H1753 C1767 0.931 . S
H1754 C1769 0.930 . S
C1755 H1743 0.930 . S
C1755 C1756 1.399 . S
C1755 C1760 1.399 . S
C1756 C1755 1.399 . S
C1756 C1757 1.376 . S
C1757 H1744 0.930 . S
C1757 C1756 1.376 . S
C1757 C1758 1.388 . S
C1758 H1745 0.930 . S
C1758 C1757 1.388 . S
C1758 C1759 1.390 . S
C1759 C1758 1.390 . S
C1759 C1760 1.394 . S
C1759 C1765 1.465 . S
C1760 C1755 1.399 . S
C1760 C1759 1.394 . S
C1760 C1761 1.516 . S
C1761 C1760 1.516 . S
C1761 C1762 1.502 . S
C1761 C1763 1.561 . S
C1761 C1764 1.526 . S
C1762 H1746 0.959 . S
C1762 H1747 0.959 . S
C1762 H1748 0.961 . S
C1762 C1761 1.502 . S
C1763 H1749 0.960 . S
C1763 H1750 0.961 . S
C1763 H1751 0.959 . S
C1763 C1761 1.561 . S
C1764 C1761 1.526 . S
C1764 C1765 1.396 . S
C1764 C1769 1.390 . S
C1765 C1759 1.465 . S
C1765 C1764 1.396 . S
C1765 C1766 1.399 . S
C1766 H1752 0.929 . S
C1766 C1765 1.399 . S
C1766 C1767 1.385 . S
C1767 H1753 0.931 . S
C1767 C1766 1.385 . S
C1767 C1768 1.389 . S
C1768 C1767 1.389 . S
C1768 C1769 1.387 . S
C1769 H1754 0.930 . S
C1769 C1764 1.390 . S
C1769 C1768 1.387 . S
H1770 C1782 0.930 . S
H1771 C1784 0.930 . S
H1772 C1785 0.930 . S
H1773 C1789 0.959 . S
H1774 C1789 0.959 . S
H1775 C1789 0.961 . S
H1776 C1790 0.960 . S
H1777 C1790 0.961 . S
H1778 C1790 0.959 . S
H1779 C1793 0.929 . S
H1780 C1794 0.931 . S
H1781 C1796 0.930 . S
C1782 H1770 0.930 . S
C1782 C1783 1.399 . S
C1782 C1787 1.399 . S
C1783 C1782 1.399 . S
C1783 C1784 1.376 . S
C1784 H1771 0.930 . S
C1784 C1783 1.376 . S
C1784 C1785 1.388 . S
C1785 H1772 0.930 . S
C1785 C1784 1.388 . S
C1785 C1786 1.390 . S
C1786 C1785 1.390 . S
C1786 C1787 1.394 . S
C1786 C1792 1.465 . S
C1787 C1782 1.399 . S
C1787 C1786 1.394 . S
C1787 C1788 1.516 . S
C1788 C1787 1.516 . S
C1788 C1789 1.502 . S
C1788 C1790 1.561 . S
C1788 C1791 1.526 . S
C1789 H1773 0.959 . S
C1789 H1774 0.959 . S
C1789 H1775 0.961 . S
C1789 C1788 1.502 . S
C1790 H1776 0.960 . S
C1790 H1777 0.961 . S
C1790 H1778 0.959 . S
C1790 C1788 1.561 . S
C1791 C1788 1.526 . S
C1791 C1792 1.396 . S
C1791 C1796 1.390 . S
C1792 C1786 1.465 . S
C1792 C1791 1.396 . S
C1792 C1793 1.399 . S
C1793 H1779 0.929 . S
C1793 C1792 1.399 . S
C1793 C1794 1.385 . S
C1794 H1780 0.931 . S
C1794 C1793 1.385 . S
C1794 C1795 1.389 . S
C1795 C1794 1.389 . S
C1795 C1796 1.387 . S
C1796 H1781 0.930 . S
C1796 C1791 1.390 . S
C1796 C1795 1.387 . S
H1797 C1809 0.930 . S
H1798 C1811 0.930 . S
H1799 C1812 0.930 . S
H1800 C1816 0.959 . S
H1801 C1816 0.959 . S
H1802 C1816 0.961 . S
H1803 C1817 0.960 . S
H1804 C1817 0.961 . S
H1805 C1817 0.959 . S
H1806 C1820 0.929 . S
H1807 C1821 0.931 . S
H1808 C1823 0.930 1_565 S
C1809 H1797 0.930 . S
C1809 C1810 1.399 . S
C1809 C1814 1.399 . S
C1810 C1809 1.399 . S
C1810 C1811 1.376 . S
C1811 H1798 0.930 . S
C1811 C1810 1.376 . S
C1811 C1812 1.388 . S
C1812 H1799 0.930 . S
C1812 C1811 1.388 . S
C1812 C1813 1.390 . S
C1813 C1812 1.390 . S
C1813 C1814 1.394 . S
C1813 C1819 1.465 . S
C1814 C1809 1.399 . S
C1814 C1813 1.394 . S
C1814 C1815 1.516 . S
C1815 C1814 1.516 . S
C1815 C1816 1.502 . S
C1815 C1817 1.561 . S
C1815 C1818 1.526 . S
C1816 H1800 0.959 . S
C1816 H1801 0.959 . S
C1816 H1802 0.961 . S
C1816 C1815 1.502 . S
C1817 H1803 0.960 . S
C1817 H1804 0.961 . S
C1817 H1805 0.959 . S
C1817 C1815 1.561 . S
C1818 C1815 1.526 . S
C1818 C1819 1.396 . S
C1818 C1823 1.390 . S
C1819 C1813 1.465 . S
C1819 C1818 1.396 . S
C1819 C1820 1.399 . S
C1820 H1806 0.929 . S
C1820 C1819 1.399 . S
C1820 C1821 1.385 . S
C1821 H1807 0.931 . S
C1821 C1820 1.385 . S
C1821 C1822 1.389 1_545 S
C1822 C1821 1.389 1_565 S
C1822 C1823 1.387 1_565 S
C1823 H1808 0.930 1_545 S
C1823 C1818 1.390 . S
C1823 C1822 1.387 1_545 S
H1824 C1836 0.930 . S
H1825 C1838 0.930 . S
H1826 C1839 0.930 . S
H1827 C1843 0.959 . S
H1828 C1843 0.959 . S
H1829 C1843 0.961 . S
H1830 C1844 0.960 . S
H1831 C1844 0.961 . S
H1832 C1844 0.959 . S
H1833 C1847 0.929 . S
H1834 C1848 0.931 . S
H1835 C1850 0.930 . S
C1836 H1824 0.930 . S
C1836 C1837 1.399 . S
C1836 C1841 1.399 . S
C1837 C1836 1.399 . S
C1837 C1838 1.376 . S
C1838 H1825 0.930 . S
C1838 C1837 1.376 . S
C1838 C1839 1.388 . S
C1839 H1826 0.930 . S
C1839 C1838 1.388 . S
C1839 C1840 1.390 . S
C1840 C1839 1.390 . S
C1840 C1841 1.394 . S
C1840 C1846 1.465 . S
C1841 C1836 1.399 . S
C1841 C1840 1.394 . S
C1841 C1842 1.516 . S
C1842 C1841 1.516 . S
C1842 C1843 1.502 . S
C1842 C1844 1.561 . S
C1842 C1845 1.526 . S
C1843 H1827 0.959 . S
C1843 H1828 0.959 . S
C1843 H1829 0.961 . S
C1843 C1842 1.502 . S
C1844 H1830 0.960 . S
C1844 H1831 0.961 . S
C1844 H1832 0.959 . S
C1844 C1842 1.561 . S
C1845 C1842 1.526 . S
C1845 C1846 1.396 . S
C1845 C1850 1.390 . S
C1846 C1840 1.465 . S
C1846 C1845 1.396 . S
C1846 C1847 1.399 . S
C1847 H1833 0.929 . S
C1847 C1846 1.399 . S
C1847 C1848 1.385 . S
C1848 H1834 0.931 . S
C1848 C1847 1.385 . S
C1848 C1849 1.389 . S
C1849 C1848 1.389 . S
C1849 C1850 1.387 . S
C1850 H1835 0.930 . S
C1850 C1845 1.390 . S
C1850 C1849 1.387 . S
H1851 C1863 0.930 . S
H1852 C1865 0.930 . S
H1853 C1866 0.930 . S
H1854 C1870 0.959 . S
H1855 C1870 0.959 . S
H1856 C1870 0.961 . S
H1857 C1871 0.960 . S
H1858 C1871 0.961 . S
H1859 C1871 0.959 . S
H1860 C1874 0.929 . S
H1861 C1875 0.931 . S
H1862 C1877 0.930 . S
C1863 H1851 0.930 . S
C1863 C1864 1.399 . S
C1863 C1868 1.399 . S
C1864 C1863 1.399 . S
C1864 C1865 1.376 . S
C1865 H1852 0.930 . S
C1865 C1864 1.376 . S
C1865 C1866 1.388 . S
C1866 H1853 0.930 . S
C1866 C1865 1.388 . S
C1866 C1867 1.390 . S
C1867 C1866 1.390 . S
C1867 C1868 1.394 . S
C1867 C1873 1.465 . S
C1868 C1863 1.399 . S
C1868 C1867 1.394 . S
C1868 C1869 1.516 . S
C1869 C1868 1.516 . S
C1869 C1870 1.502 . S
C1869 C1871 1.561 . S
C1869 C1872 1.526 . S
C1870 H1854 0.959 . S
C1870 H1855 0.959 . S
C1870 H1856 0.961 . S
C1870 C1869 1.502 . S
C1871 H1857 0.960 . S
C1871 H1858 0.961 . S
C1871 H1859 0.959 . S
C1871 C1869 1.561 . S
C1872 C1869 1.526 . S
C1872 C1873 1.396 . S
C1872 C1877 1.390 . S
C1873 C1867 1.465 . S
C1873 C1872 1.396 . S
C1873 C1874 1.399 . S
C1874 H1860 0.929 . S
C1874 C1873 1.399 . S
C1874 C1875 1.385 . S
C1875 H1861 0.931 . S
C1875 C1874 1.385 . S
C1875 C1876 1.389 . S
C1876 C1875 1.389 . S
C1876 C1877 1.387 . S
C1877 H1862 0.930 . S
C1877 C1872 1.390 . S
C1877 C1876 1.387 . S
H1878 C1890 0.930 . S
H1879 C1892 0.930 . S
H1880 C1893 0.930 . S
H1881 C1897 0.959 . S
H1882 C1897 0.959 . S
H1883 C1897 0.961 . S
H1884 C1898 0.960 . S
H1885 C1898 0.961 . S
H1886 C1898 0.959 . S
H1887 C1901 0.929 . S
H1888 C1902 0.931 . S
H1889 C1904 0.930 . S
C1890 H1878 0.930 . S
C1890 C1891 1.399 . S
C1890 C1895 1.399 . S
C1891 C1890 1.399 . S
C1891 C1892 1.376 . S
C1892 H1879 0.930 . S
C1892 C1891 1.376 . S
C1892 C1893 1.388 . S
C1893 H1880 0.930 . S
C1893 C1892 1.388 . S
C1893 C1894 1.390 . S
C1894 C1893 1.390 . S
C1894 C1895 1.394 . S
C1894 C1900 1.465 . S
C1895 C1890 1.399 . S
C1895 C1894 1.394 . S
C1895 C1896 1.516 . S
C1896 C1895 1.516 . S
C1896 C1897 1.502 . S
C1896 C1898 1.561 . S
C1896 C1899 1.526 . S
C1897 H1881 0.959 . S
C1897 H1882 0.959 . S
C1897 H1883 0.961 . S
C1897 C1896 1.502 . S
C1898 H1884 0.960 . S
C1898 H1885 0.961 . S
C1898 H1886 0.959 . S
C1898 C1896 1.561 . S
C1899 C1896 1.526 . S
C1899 C1900 1.396 . S
C1899 C1904 1.390 . S
C1900 C1894 1.465 . S
C1900 C1899 1.396 . S
C1900 C1901 1.399 . S
C1901 H1887 0.929 . S
C1901 C1900 1.399 . S
C1901 C1902 1.385 . S
C1902 H1888 0.931 . S
C1902 C1901 1.385 . S
C1902 C1903 1.389 . S
C1903 C1902 1.389 . S
C1903 C1904 1.387 . S
C1904 H1889 0.930 . S
C1904 C1899 1.390 . S
C1904 C1903 1.387 . S
H1905 C1917 0.930 . S
H1906 C1919 0.930 . S
H1907 C1920 0.930 . S
H1908 C1924 0.959 . S
H1909 C1924 0.959 . S
H1910 C1924 0.961 . S
H1911 C1925 0.960 . S
H1912 C1925 0.961 . S
H1913 C1925 0.959 . S
H1914 C1928 0.929 . S
H1915 C1929 0.931 . S
H1916 C1931 0.930 . S
C1917 H1905 0.930 . S
C1917 C1918 1.399 . S
C1917 C1922 1.399 . S
C1918 C1917 1.399 . S
C1918 C1919 1.376 . S
C1919 H1906 0.930 . S
C1919 C1918 1.376 . S
C1919 C1920 1.388 . S
C1920 H1907 0.930 . S
C1920 C1919 1.388 . S
C1920 C1921 1.390 . S
C1921 C1920 1.390 . S
C1921 C1922 1.394 . S
C1921 C1927 1.465 . S
C1922 C1917 1.399 . S
C1922 C1921 1.394 . S
C1922 C1923 1.516 . S
C1923 C1922 1.516 . S
C1923 C1924 1.502 . S
C1923 C1925 1.561 . S
C1923 C1926 1.526 . S
C1924 H1908 0.959 . S
C1924 H1909 0.959 . S
C1924 H1910 0.961 . S
C1924 C1923 1.502 . S
C1925 H1911 0.960 . S
C1925 H1912 0.961 . S
C1925 H1913 0.959 . S
C1925 C1923 1.561 . S
C1926 C1923 1.526 . S
C1926 C1927 1.396 . S
C1926 C1931 1.390 . S
C1927 C1921 1.465 . S
C1927 C1926 1.396 . S
C1927 C1928 1.399 . S
C1928 H1914 0.929 . S
C1928 C1927 1.399 . S
C1928 C1929 1.385 . S
C1929 H1915 0.931 . S
C1929 C1928 1.385 . S
C1929 C1930 1.389 . S
C1930 C1929 1.389 . S
C1930 C1931 1.387 . S
C1931 H1916 0.930 . S
C1931 C1926 1.390 . S
C1931 C1930 1.387 . S
H1932 C1944 0.930 . S
H1933 C1946 0.930 . S
H1934 C1947 0.930 . S
H1935 C1951 0.959 . S
H1936 C1951 0.959 . S
H1937 C1951 0.961 . S
H1938 C1952 0.960 . S
H1939 C1952 0.961 . S
H1940 C1952 0.959 . S
H1941 C1955 0.929 . S
H1942 C1956 0.931 . S
H1943 C1958 0.930 . S
C1944 H1932 0.930 . S
C1944 C1945 1.399 . S
C1944 C1949 1.399 . S
C1945 C1944 1.399 . S
C1945 C1946 1.376 . S
C1946 H1933 0.930 . S
C1946 C1945 1.376 . S
C1946 C1947 1.388 . S
C1947 H1934 0.930 . S
C1947 C1946 1.388 . S
C1947 C1948 1.390 . S
C1948 C1947 1.390 . S
C1948 C1949 1.394 . S
C1948 C1954 1.465 . S
C1949 C1944 1.399 . S
C1949 C1948 1.394 . S
C1949 C1950 1.516 . S
C1950 C1949 1.516 . S
C1950 C1951 1.502 . S
C1950 C1952 1.561 . S
C1950 C1953 1.526 . S
C1951 H1935 0.959 . S
C1951 H1936 0.959 . S
C1951 H1937 0.961 . S
C1951 C1950 1.502 . S
C1952 H1938 0.960 . S
C1952 H1939 0.961 . S
C1952 H1940 0.959 . S
C1952 C1950 1.561 . S
C1953 C1950 1.526 . S
C1953 C1954 1.396 . S
C1953 C1958 1.390 . S
C1954 C1948 1.465 . S
C1954 C1953 1.396 . S
C1954 C1955 1.399 . S
C1955 H1941 0.929 . S
C1955 C1954 1.399 . S
C1955 C1956 1.385 . S
C1956 H1942 0.931 . S
C1956 C1955 1.385 . S
C1956 C1957 1.389 . S
C1957 C1956 1.389 . S
C1957 C1958 1.387 . S
C1958 H1943 0.930 . S
C1958 C1953 1.390 . S
C1958 C1957 1.387 . S
H1959 C1971 0.930 . S
H1960 C1973 0.930 . S
H1961 C1974 0.930 . S
H1962 C1978 0.959 . S
H1963 C1978 0.959 . S
H1964 C1978 0.961 . S
H1965 C1979 0.960 . S
H1966 C1979 0.961 . S
H1967 C1979 0.959 . S
H1968 C1982 0.929 . S
H1969 C1983 0.931 . S
H1970 C1985 0.930 . S
C1971 H1959 0.930 . S
C1971 C1972 1.399 . S
C1971 C1976 1.399 . S
C1972 C1971 1.399 . S
C1972 C1973 1.376 . S
C1973 H1960 0.930 . S
C1973 C1972 1.376 . S
C1973 C1974 1.388 . S
C1974 H1961 0.930 . S
C1974 C1973 1.388 . S
C1974 C1975 1.390 . S
C1975 C1974 1.390 . S
C1975 C1976 1.394 . S
C1975 C1981 1.465 . S
C1976 C1971 1.399 . S
C1976 C1975 1.394 . S
C1976 C1977 1.516 . S
C1977 C1976 1.516 . S
C1977 C1978 1.502 . S
C1977 C1979 1.561 . S
C1977 C1980 1.526 . S
C1978 H1962 0.959 . S
C1978 H1963 0.959 . S
C1978 H1964 0.961 . S
C1978 C1977 1.502 . S
C1979 H1965 0.960 . S
C1979 H1966 0.961 . S
C1979 H1967 0.959 . S
C1979 C1977 1.561 . S
C1980 C1977 1.526 . S
C1980 C1981 1.396 . S
C1980 C1985 1.390 . S
C1981 C1975 1.465 . S
C1981 C1980 1.396 . S
C1981 C1982 1.399 . S
C1982 H1968 0.929 . S
C1982 C1981 1.399 . S
C1982 C1983 1.385 . S
C1983 H1969 0.931 . S
C1983 C1982 1.385 . S
C1983 C1984 1.389 . S
C1984 C1983 1.389 . S
C1984 C1985 1.387 . S
C1985 H1970 0.930 . S
C1985 C1980 1.390 . S
C1985 C1984 1.387 . S
H1986 C1998 0.930 . S
H1987 C2000 0.930 . S
H1988 C2001 0.930 . S
H1989 C2005 0.959 . S
H1990 C2005 0.959 . S
H1991 C2005 0.961 . S
H1992 C2006 0.960 . S
H1993 C2006 0.961 . S
H1994 C2006 0.959 . S
H1995 C2009 0.929 . S
H1996 C2010 0.931 . S
H1997 C2012 0.930 . S
C1998 H1986 0.930 . S
C1998 C1999 1.399 . S
C1998 C2003 1.399 . S
C1999 C1998 1.399 . S
C1999 C2000 1.376 . S
C2000 H1987 0.930 . S
C2000 C1999 1.376 . S
C2000 C2001 1.388 . S
C2001 H1988 0.930 . S
C2001 C2000 1.388 . S
C2001 C2002 1.390 . S
C2002 C2001 1.390 . S
C2002 C2003 1.394 . S
C2002 C2008 1.465 . S
C2003 C1998 1.399 . S
C2003 C2002 1.394 . S
C2003 C2004 1.516 . S
C2004 C2003 1.516 . S
C2004 C2005 1.502 . S
C2004 C2006 1.561 . S
C2004 C2007 1.526 . S
C2005 H1989 0.959 . S
C2005 H1990 0.959 . S
C2005 H1991 0.961 . S
C2005 C2004 1.502 . S
C2006 H1992 0.960 . S
C2006 H1993 0.961 . S
C2006 H1994 0.959 . S
C2006 C2004 1.561 . S
C2007 C2004 1.526 . S
C2007 C2008 1.396 . S
C2007 C2012 1.390 . S
C2008 C2002 1.465 . S
C2008 C2007 1.396 . S
C2008 C2009 1.399 . S
C2009 H1995 0.929 . S
C2009 C2008 1.399 . S
C2009 C2010 1.385 . S
C2010 H1996 0.931 . S
C2010 C2009 1.385 . S
C2010 C2011 1.389 . S
C2011 C2010 1.389 . S
C2011 C2012 1.387 . S
C2012 H1997 0.930 . S
C2012 C2007 1.390 . S
C2012 C2011 1.387 . S
H2013 C2025 0.930 . S
H2014 C2027 0.930 . S
H2015 C2028 0.930 . S
H2016 C2032 0.959 . S
H2017 C2032 0.959 . S
H2018 C2032 0.961 . S
H2019 C2033 0.960 . S
H2020 C2033 0.961 . S
H2021 C2033 0.959 . S
H2022 C2036 0.929 . S
H2023 C2037 0.931 . S
H2024 C2039 0.930 . S
C2025 H2013 0.930 . S
C2025 C2026 1.399 . S
C2025 C2030 1.399 . S
C2026 C2025 1.399 . S
C2026 C2027 1.376 . S
C2027 H2014 0.930 . S
C2027 C2026 1.376 . S
C2027 C2028 1.388 . S
C2028 H2015 0.930 . S
C2028 C2027 1.388 . S
C2028 C2029 1.390 . S
C2029 C2028 1.390 . S
C2029 C2030 1.394 . S
C2029 C2035 1.465 . S
C2030 C2025 1.399 . S
C2030 C2029 1.394 . S
C2030 C2031 1.516 . S
C2031 C2030 1.516 . S
C2031 C2032 1.502 . S
C2031 C2033 1.561 . S
C2031 C2034 1.526 . S
C2032 H2016 0.959 . S
C2032 H2017 0.959 . S
C2032 H2018 0.961 . S
C2032 C2031 1.502 . S
C2033 H2019 0.960 . S
C2033 H2020 0.961 . S
C2033 H2021 0.959 . S
C2033 C2031 1.561 . S
C2034 C2031 1.526 . S
C2034 C2035 1.396 . S
C2034 C2039 1.390 . S
C2035 C2029 1.465 . S
C2035 C2034 1.396 . S
C2035 C2036 1.399 . S
C2036 H2022 0.929 . S
C2036 C2035 1.399 . S
C2036 C2037 1.385 . S
C2037 H2023 0.931 . S
C2037 C2036 1.385 . S
C2037 C2038 1.389 . S
C2038 C2037 1.389 . S
C2038 C2039 1.387 . S
C2039 H2024 0.930 . S
C2039 C2034 1.390 . S
C2039 C2038 1.387 . S
H2040 C2052 0.930 . S
H2041 C2054 0.930 . S
H2042 C2055 0.930 . S
H2043 C2059 0.959 . S
H2044 C2059 0.959 . S
H2045 C2059 0.961 . S
H2046 C2060 0.960 . S
H2047 C2060 0.961 . S
H2048 C2060 0.959 . S
H2049 C2063 0.929 . S
H2050 C2064 0.931 . S
H2051 C2066 0.930 . S
C2052 H2040 0.930 . S
C2052 C2053 1.399 . S
C2052 C2057 1.399 . S
C2053 C2052 1.399 . S
C2053 C2054 1.376 . S
C2054 H2041 0.930 . S
C2054 C2053 1.376 . S
C2054 C2055 1.388 . S
C2055 H2042 0.930 . S
C2055 C2054 1.388 . S
C2055 C2056 1.390 . S
C2056 C2055 1.390 . S
C2056 C2057 1.394 . S
C2056 C2062 1.465 . S
C2057 C2052 1.399 . S
C2057 C2056 1.394 . S
C2057 C2058 1.516 . S
C2058 C2057 1.516 . S
C2058 C2059 1.502 . S
C2058 C2060 1.561 . S
C2058 C2061 1.526 . S
C2059 H2043 0.959 . S
C2059 H2044 0.959 . S
C2059 H2045 0.961 . S
C2059 C2058 1.502 . S
C2060 H2046 0.960 . S
C2060 H2047 0.961 . S
C2060 H2048 0.959 . S
C2060 C2058 1.561 . S
C2061 C2058 1.526 . S
C2061 C2062 1.396 . S
C2061 C2066 1.390 . S
C2062 C2056 1.465 . S
C2062 C2061 1.396 . S
C2062 C2063 1.399 . S
C2063 H2049 0.929 . S
C2063 C2062 1.399 . S
C2063 C2064 1.385 . S
C2064 H2050 0.931 . S
C2064 C2063 1.385 . S
C2064 C2065 1.389 . S
C2065 C2064 1.389 . S
C2065 C2066 1.387 . S
C2066 H2051 0.930 . S
C2066 C2061 1.390 . S
C2066 C2065 1.387 . S
H2067 C2079 0.930 . S
H2068 C2081 0.930 . S
H2069 C2082 0.930 . S
H2070 C2086 0.959 . S
H2071 C2086 0.959 . S
H2072 C2086 0.961 . S
H2073 C2087 0.960 . S
H2074 C2087 0.961 . S
H2075 C2087 0.959 . S
H2076 C2090 0.929 . S
H2077 C2091 0.931 . S
H2078 C2093 0.930 . S
C2079 H2067 0.930 . S
C2079 C2080 1.399 . S
C2079 C2084 1.399 . S
C2080 C2079 1.399 . S
C2080 C2081 1.376 . S
C2081 H2068 0.930 . S
C2081 C2080 1.376 . S
C2081 C2082 1.388 . S
C2082 H2069 0.930 . S
C2082 C2081 1.388 . S
C2082 C2083 1.390 . S
C2083 C2082 1.390 . S
C2083 C2084 1.394 . S
C2083 C2089 1.465 . S
C2084 C2079 1.399 . S
C2084 C2083 1.394 . S
C2084 C2085 1.516 . S
C2085 C2084 1.516 . S
C2085 C2086 1.502 . S
C2085 C2087 1.561 . S
C2085 C2088 1.526 . S
C2086 H2070 0.959 . S
C2086 H2071 0.959 . S
C2086 H2072 0.961 . S
C2086 C2085 1.502 . S
C2087 H2073 0.960 . S
C2087 H2074 0.961 . S
C2087 H2075 0.959 . S
C2087 C2085 1.561 . S
C2088 C2085 1.526 . S
C2088 C2089 1.396 . S
C2088 C2093 1.390 . S
C2089 C2083 1.465 . S
C2089 C2088 1.396 . S
C2089 C2090 1.399 . S
C2090 H2076 0.929 . S
C2090 C2089 1.399 . S
C2090 C2091 1.385 . S
C2091 H2077 0.931 . S
C2091 C2090 1.385 . S
C2091 C2092 1.389 . S
C2092 C2091 1.389 . S
C2092 C2093 1.387 . S
C2093 H2078 0.930 . S
C2093 C2088 1.390 . S
C2093 C2092 1.387 . S
H2094 C2106 0.930 . S
H2095 C2108 0.930 . S
H2096 C2109 0.930 . S
H2097 C2113 0.959 . S
H2098 C2113 0.959 . S
H2099 C2113 0.961 . S
H2100 C2114 0.960 . S
H2101 C2114 0.961 . S
H2102 C2114 0.959 . S
H2103 C2117 0.929 . S
H2104 C2118 0.931 . S
H2105 C2120 0.930 . S
C2106 H2094 0.930 . S
C2106 C2107 1.399 . S
C2106 C2111 1.399 . S
C2107 C2106 1.399 . S
C2107 C2108 1.376 . S
C2108 H2095 0.930 . S
C2108 C2107 1.376 . S
C2108 C2109 1.388 . S
C2109 H2096 0.930 . S
C2109 C2108 1.388 . S
C2109 C2110 1.390 . S
C2110 C2109 1.390 . S
C2110 C2111 1.394 . S
C2110 C2116 1.465 . S
C2111 C2106 1.399 . S
C2111 C2110 1.394 . S
C2111 C2112 1.516 . S
C2112 C2111 1.516 . S
C2112 C2113 1.502 . S
C2112 C2114 1.561 . S
C2112 C2115 1.526 . S
C2113 H2097 0.959 . S
C2113 H2098 0.959 . S
C2113 H2099 0.961 . S
C2113 C2112 1.502 . S
C2114 H2100 0.960 . S
C2114 H2101 0.961 . S
C2114 H2102 0.959 . S
C2114 C2112 1.561 . S
C2115 C2112 1.526 . S
C2115 C2116 1.396 . S
C2115 C2120 1.390 . S
C2116 C2110 1.465 . S
C2116 C2115 1.396 . S
C2116 C2117 1.399 . S
C2117 H2103 0.929 . S
C2117 C2116 1.399 . S
C2117 C2118 1.385 . S
C2118 H2104 0.931 . S
C2118 C2117 1.385 . S
C2118 C2119 1.389 . S
C2119 C2118 1.389 . S
C2119 C2120 1.387 . S
C2120 H2105 0.930 . S
C2120 C2115 1.390 . S
C2120 C2119 1.387 . S
H2121 C2133 0.930 . S
H2122 C2135 0.930 . S
H2123 C2136 0.930 . S
H2124 C2140 0.959 . S
H2125 C2140 0.959 . S
H2126 C2140 0.961 . S
H2127 C2141 0.960 . S
H2128 C2141 0.961 . S
H2129 C2141 0.959 . S
H2130 C2144 0.929 . S
H2131 C2145 0.931 . S
H2132 C2147 0.930 . S
C2133 H2121 0.930 . S
C2133 C2134 1.399 . S
C2133 C2138 1.399 . S
C2134 C2133 1.399 . S
C2134 C2135 1.376 . S
C2135 H2122 0.930 . S
C2135 C2134 1.376 . S
C2135 C2136 1.388 . S
C2136 H2123 0.930 . S
C2136 C2135 1.388 . S
C2136 C2137 1.390 . S
C2137 C2136 1.390 . S
C2137 C2138 1.394 . S
C2137 C2143 1.465 . S
C2138 C2133 1.399 . S
C2138 C2137 1.394 . S
C2138 C2139 1.516 . S
C2139 C2138 1.516 . S
C2139 C2140 1.502 . S
C2139 C2141 1.561 . S
C2139 C2142 1.526 . S
C2140 H2124 0.959 . S
C2140 H2125 0.959 . S
C2140 H2126 0.961 . S
C2140 C2139 1.502 . S
C2141 H2127 0.960 . S
C2141 H2128 0.961 . S
C2141 H2129 0.959 . S
C2141 C2139 1.561 . S
C2142 C2139 1.526 . S
C2142 C2143 1.396 . S
C2142 C2147 1.390 . S
C2143 C2137 1.465 . S
C2143 C2142 1.396 . S
C2143 C2144 1.399 . S
C2144 H2130 0.929 . S
C2144 C2143 1.399 . S
C2144 C2145 1.385 . S
C2145 H2131 0.931 . S
C2145 C2144 1.385 . S
C2145 C2146 1.389 . S
C2146 C2145 1.389 . S
C2146 C2147 1.387 . S
C2147 H2132 0.930 . S
C2147 C2142 1.390 . S
C2147 C2146 1.387 . S
H2148 C2160 0.930 . S
H2149 C2162 0.930 . S
H2150 C2163 0.930 . S
H2151 C2167 0.959 . S
H2152 C2167 0.959 . S
H2153 C2167 0.961 . S
H2154 C2168 0.960 . S
H2155 C2168 0.961 . S
H2156 C2168 0.959 . S
H2157 C2171 0.929 . S
H2158 C2172 0.931 . S
H2159 C2174 0.930 . S
C2160 H2148 0.930 . S
C2160 C2161 1.399 . S
C2160 C2165 1.399 . S
C2161 C2160 1.399 . S
C2161 C2162 1.376 . S
C2162 H2149 0.930 . S
C2162 C2161 1.376 . S
C2162 C2163 1.388 . S
C2163 H2150 0.930 . S
C2163 C2162 1.388 . S
C2163 C2164 1.390 . S
C2164 C2163 1.390 . S
C2164 C2165 1.394 . S
C2164 C2170 1.465 . S
C2165 C2160 1.399 . S
C2165 C2164 1.394 . S
C2165 C2166 1.516 . S
C2166 C2165 1.516 . S
C2166 C2167 1.502 . S
C2166 C2168 1.561 . S
C2166 C2169 1.526 . S
C2167 H2151 0.959 . S
C2167 H2152 0.959 . S
C2167 H2153 0.961 . S
C2167 C2166 1.502 . S
C2168 H2154 0.960 . S
C2168 H2155 0.961 . S
C2168 H2156 0.959 . S
C2168 C2166 1.561 . S
C2169 C2166 1.526 . S
C2169 C2170 1.396 . S
C2169 C2174 1.390 . S
C2170 C2164 1.465 . S
C2170 C2169 1.396 . S
C2170 C2171 1.399 . S
C2171 H2157 0.929 . S
C2171 C2170 1.399 . S
C2171 C2172 1.385 . S
C2172 H2158 0.931 . S
C2172 C2171 1.385 . S
C2172 C2173 1.389 . S
C2173 C2172 1.389 . S
C2173 C2174 1.387 . S
C2174 H2159 0.930 . S
C2174 C2169 1.390 . S
C2174 C2173 1.387 . S
H2175 C2187 0.930 . S
H2176 C2189 0.930 . S
H2177 C2190 0.930 . S
H2178 C2194 0.959 . S
H2179 C2194 0.959 . S
H2180 C2194 0.961 . S
H2181 C2195 0.960 . S
H2182 C2195 0.961 . S
H2183 C2195 0.959 . S
H2184 C2198 0.929 . S
H2185 C2199 0.931 . S
H2186 C2201 0.930 . S
C2187 H2175 0.930 . S
C2187 C2188 1.399 . S
C2187 C2192 1.399 . S
C2188 C2187 1.399 . S
C2188 C2189 1.376 . S
C2189 H2176 0.930 . S
C2189 C2188 1.376 . S
C2189 C2190 1.388 . S
C2190 H2177 0.930 . S
C2190 C2189 1.388 . S
C2190 C2191 1.390 . S
C2191 C2190 1.390 . S
C2191 C2192 1.394 . S
C2191 C2197 1.465 . S
C2192 C2187 1.399 . S
C2192 C2191 1.394 . S
C2192 C2193 1.516 . S
C2193 C2192 1.516 . S
C2193 C2194 1.502 . S
C2193 C2195 1.561 . S
C2193 C2196 1.526 . S
C2194 H2178 0.959 . S
C2194 H2179 0.959 . S
C2194 H2180 0.961 . S
C2194 C2193 1.502 . S
C2195 H2181 0.960 . S
C2195 H2182 0.961 . S
C2195 H2183 0.959 . S
C2195 C2193 1.561 . S
C2196 C2193 1.526 . S
C2196 C2197 1.396 . S
C2196 C2201 1.390 . S
C2197 C2191 1.465 . S
C2197 C2196 1.396 . S
C2197 C2198 1.399 . S
C2198 H2184 0.929 . S
C2198 C2197 1.399 . S
C2198 C2199 1.385 . S
C2199 H2185 0.931 . S
C2199 C2198 1.385 . S
C2199 C2200 1.389 . S
C2200 C2199 1.389 . S
C2200 C2201 1.387 . S
C2201 H2186 0.930 . S
C2201 C2196 1.390 . S
C2201 C2200 1.387 . S
H2202 C2214 0.930 . S
H2203 C2216 0.930 . S
H2204 C2217 0.930 . S
H2205 C2221 0.959 . S
H2206 C2221 0.959 . S
H2207 C2221 0.961 . S
H2208 C2222 0.960 . S
H2209 C2222 0.961 . S
H2210 C2222 0.959 . S
H2211 C2225 0.929 . S
H2212 C2226 0.931 . S
H2213 C2228 0.930 . S
C2214 H2202 0.930 . S
C2214 C2215 1.399 . S
C2214 C2219 1.399 . S
C2215 C2214 1.399 . S
C2215 C2216 1.376 . S
C2216 H2203 0.930 . S
C2216 C2215 1.376 . S
C2216 C2217 1.388 . S
C2217 H2204 0.930 . S
C2217 C2216 1.388 . S
C2217 C2218 1.390 . S
C2218 C2217 1.390 . S
C2218 C2219 1.394 . S
C2218 C2224 1.465 . S
C2219 C2214 1.399 . S
C2219 C2218 1.394 . S
C2219 C2220 1.516 . S
C2220 C2219 1.516 . S
C2220 C2221 1.502 . S
C2220 C2222 1.561 . S
C2220 C2223 1.526 . S
C2221 H2205 0.959 . S
C2221 H2206 0.959 . S
C2221 H2207 0.961 . S
C2221 C2220 1.502 . S
C2222 H2208 0.960 . S
C2222 H2209 0.961 . S
C2222 H2210 0.959 . S
C2222 C2220 1.561 . S
C2223 C2220 1.526 . S
C2223 C2224 1.396 . S
C2223 C2228 1.390 . S
C2224 C2218 1.465 . S
C2224 C2223 1.396 . S
C2224 C2225 1.399 . S
C2225 H2211 0.929 . S
C2225 C2224 1.399 . S
C2225 C2226 1.385 . S
C2226 H2212 0.931 . S
C2226 C2225 1.385 . S
C2226 C2227 1.389 . S
C2227 C2226 1.389 . S
C2227 C2228 1.387 . S
C2228 H2213 0.930 . S
C2228 C2223 1.390 . S
C2228 C2227 1.387 . S
H2229 C2241 0.930 . S
H2230 C2243 0.930 . S
H2231 C2244 0.930 . S
H2232 C2248 0.959 . S
H2233 C2248 0.959 . S
H2234 C2248 0.961 . S
H2235 C2249 0.960 . S
H2236 C2249 0.961 . S
H2237 C2249 0.959 . S
H2238 C2252 0.929 . S
H2239 C2253 0.931 . S
H2240 C2255 0.930 . S
C2241 H2229 0.930 . S
C2241 C2242 1.399 . S
C2241 C2246 1.399 . S
C2242 C2241 1.399 . S
C2242 C2243 1.376 . S
C2243 H2230 0.930 . S
C2243 C2242 1.376 . S
C2243 C2244 1.388 . S
C2244 H2231 0.930 . S
C2244 C2243 1.388 . S
C2244 C2245 1.390 . S
C2245 C2244 1.390 . S
C2245 C2246 1.394 . S
C2245 C2251 1.465 . S
C2246 C2241 1.399 . S
C2246 C2245 1.394 . S
C2246 C2247 1.516 . S
C2247 C2246 1.516 . S
C2247 C2248 1.502 . S
C2247 C2249 1.561 . S
C2247 C2250 1.526 . S
C2248 H2232 0.959 . S
C2248 H2233 0.959 . S
C2248 H2234 0.961 . S
C2248 C2247 1.502 . S
C2249 H2235 0.960 . S
C2249 H2236 0.961 . S
C2249 H2237 0.959 . S
C2249 C2247 1.561 . S
C2250 C2247 1.526 . S
C2250 C2251 1.396 . S
C2250 C2255 1.390 . S
C2251 C2245 1.465 . S
C2251 C2250 1.396 . S
C2251 C2252 1.399 . S
C2252 H2238 0.929 . S
C2252 C2251 1.399 . S
C2252 C2253 1.385 . S
C2253 H2239 0.931 . S
C2253 C2252 1.385 . S
C2253 C2254 1.389 . S
C2254 C2253 1.389 . S
C2254 C2255 1.387 . S
C2255 H2240 0.930 . S
C2255 C2250 1.390 . S
C2255 C2254 1.387 . S
H2256 C2268 0.930 . S
H2257 C2270 0.930 . S
H2258 C2271 0.930 . S
H2259 C2275 0.959 . S
H2260 C2275 0.959 . S
H2261 C2275 0.961 . S
H2262 C2276 0.960 . S
H2263 C2276 0.961 . S
H2264 C2276 0.959 . S
H2265 C2279 0.929 . S
H2266 C2280 0.931 . S
H2267 C2282 0.930 . S
C2268 H2256 0.930 . S
C2268 C2269 1.399 . S
C2268 C2273 1.399 . S
C2269 C2268 1.399 . S
C2269 C2270 1.376 . S
C2270 H2257 0.930 . S
C2270 C2269 1.376 . S
C2270 C2271 1.388 . S
C2271 H2258 0.930 . S
C2271 C2270 1.388 . S
C2271 C2272 1.390 . S
C2272 C2271 1.390 . S
C2272 C2273 1.394 . S
C2272 C2278 1.465 . S
C2273 C2268 1.399 . S
C2273 C2272 1.394 . S
C2273 C2274 1.516 . S
C2274 C2273 1.516 . S
C2274 C2275 1.502 . S
C2274 C2276 1.561 . S
C2274 C2277 1.526 . S
C2275 H2259 0.959 . S
C2275 H2260 0.959 . S
C2275 H2261 0.961 . S
C2275 C2274 1.502 . S
C2276 H2262 0.960 . S
C2276 H2263 0.961 . S
C2276 H2264 0.959 . S
C2276 C2274 1.561 . S
C2277 C2274 1.526 . S
C2277 C2278 1.396 . S
C2277 C2282 1.390 . S
C2278 C2272 1.465 . S
C2278 C2277 1.396 . S
C2278 C2279 1.399 . S
C2279 H2265 0.929 . S
C2279 C2278 1.399 . S
C2279 C2280 1.385 . S
C2280 H2266 0.931 . S
C2280 C2279 1.385 . S
C2280 C2281 1.389 . S
C2281 C2280 1.389 . S
C2281 C2282 1.387 . S
C2282 H2267 0.930 . S
C2282 C2277 1.390 . S
C2282 C2281 1.387 . S
H2283 C2295 0.930 . S
H2284 C2297 0.930 . S
H2285 C2298 0.930 . S
H2286 C2302 0.959 . S
H2287 C2302 0.959 . S
H2288 C2302 0.961 . S
H2289 C2303 0.960 . S
H2290 C2303 0.961 . S
H2291 C2303 0.959 . S
H2292 C2306 0.929 . S
H2293 C2307 0.931 . S
H2294 C2309 0.930 . S
C2295 H2283 0.930 . S
C2295 C2296 1.399 . S
C2295 C2300 1.399 . S
C2296 C2295 1.399 . S
C2296 C2297 1.376 . S
C2297 H2284 0.930 . S
C2297 C2296 1.376 . S
C2297 C2298 1.388 . S
C2298 H2285 0.930 . S
C2298 C2297 1.388 . S
C2298 C2299 1.390 . S
C2299 C2298 1.390 . S
C2299 C2300 1.394 . S
C2299 C2305 1.465 . S
C2300 C2295 1.399 . S
C2300 C2299 1.394 . S
C2300 C2301 1.516 . S
C2301 C2300 1.516 . S
C2301 C2302 1.502 . S
C2301 C2303 1.561 . S
C2301 C2304 1.526 . S
C2302 H2286 0.959 . S
C2302 H2287 0.959 . S
C2302 H2288 0.961 . S
C2302 C2301 1.502 . S
C2303 H2289 0.960 . S
C2303 H2290 0.961 . S
C2303 H2291 0.959 . S
C2303 C2301 1.561 . S
C2304 C2301 1.526 . S
C2304 C2305 1.396 . S
C2304 C2309 1.390 . S
C2305 C2299 1.465 . S
C2305 C2304 1.396 . S
C2305 C2306 1.399 . S
C2306 H2292 0.929 . S
C2306 C2305 1.399 . S
C2306 C2307 1.385 . S
C2307 H2293 0.931 . S
C2307 C2306 1.385 . S
C2307 C2308 1.389 . S
C2308 C2307 1.389 . S
C2308 C2309 1.387 . S
C2309 H2294 0.930 . S
C2309 C2304 1.390 . S
C2309 C2308 1.387 . S
H2310 C2322 0.930 . S
H2311 C2324 0.930 . S
H2312 C2325 0.930 . S
H2313 C2329 0.959 . S
H2314 C2329 0.959 . S
H2315 C2329 0.961 . S
H2316 C2330 0.960 . S
H2317 C2330 0.961 . S
H2318 C2330 0.959 . S
H2319 C2333 0.929 . S
H2320 C2334 0.931 . S
H2321 C2336 0.930 . S
C2322 H2310 0.930 . S
C2322 C2323 1.399 . S
C2322 C2327 1.399 . S
C2323 C2322 1.399 . S
C2323 C2324 1.376 . S
C2324 H2311 0.930 . S
C2324 C2323 1.376 . S
C2324 C2325 1.388 . S
C2325 H2312 0.930 . S
C2325 C2324 1.388 . S
C2325 C2326 1.390 . S
C2326 C2325 1.390 . S
C2326 C2327 1.394 . S
C2326 C2332 1.465 . S
C2327 C2322 1.399 . S
C2327 C2326 1.394 . S
C2327 C2328 1.516 . S
C2328 C2327 1.516 . S
C2328 C2329 1.502 . S
C2328 C2330 1.561 . S
C2328 C2331 1.526 . S
C2329 H2313 0.959 . S
C2329 H2314 0.959 . S
C2329 H2315 0.961 . S
C2329 C2328 1.502 . S
C2330 H2316 0.960 . S
C2330 H2317 0.961 . S
C2330 H2318 0.959 . S
C2330 C2328 1.561 . S
C2331 C2328 1.526 . S
C2331 C2332 1.396 . S
C2331 C2336 1.390 . S
C2332 C2326 1.465 . S
C2332 C2331 1.396 . S
C2332 C2333 1.399 . S
C2333 H2319 0.929 . S
C2333 C2332 1.399 . S
C2333 C2334 1.385 . S
C2334 H2320 0.931 . S
C2334 C2333 1.385 . S
C2334 C2335 1.389 . S
C2335 C2334 1.389 . S
C2335 C2336 1.387 . S
C2336 H2321 0.930 . S
C2336 C2331 1.390 . S
C2336 C2335 1.387 . S
H2337 C2349 0.930 . S
H2338 C2351 0.930 . S
H2339 C2352 0.930 . S
H2340 C2356 0.959 . S
H2341 C2356 0.959 . S
H2342 C2356 0.961 . S
H2343 C2357 0.960 . S
H2344 C2357 0.961 . S
H2345 C2357 0.959 . S
H2346 C2360 0.929 . S
H2347 C2361 0.931 . S
H2348 C2363 0.930 . S
C2349 H2337 0.930 . S
C2349 C2350 1.399 . S
C2349 C2354 1.399 . S
C2350 C2349 1.399 . S
C2350 C2351 1.376 . S
C2351 H2338 0.930 . S
C2351 C2350 1.376 . S
C2351 C2352 1.388 . S
C2352 H2339 0.930 . S
C2352 C2351 1.388 . S
C2352 C2353 1.390 . S
C2353 C2352 1.390 . S
C2353 C2354 1.394 . S
C2353 C2359 1.465 . S
C2354 C2349 1.399 . S
C2354 C2353 1.394 . S
C2354 C2355 1.516 . S
C2355 C2354 1.516 . S
C2355 C2356 1.502 . S
C2355 C2357 1.561 . S
C2355 C2358 1.526 . S
C2356 H2340 0.959 . S
C2356 H2341 0.959 . S
C2356 H2342 0.961 . S
C2356 C2355 1.502 . S
C2357 H2343 0.960 . S
C2357 H2344 0.961 . S
C2357 H2345 0.959 . S
C2357 C2355 1.561 . S
C2358 C2355 1.526 . S
C2358 C2359 1.396 . S
C2358 C2363 1.390 . S
C2359 C2353 1.465 . S
C2359 C2358 1.396 . S
C2359 C2360 1.399 . S
C2360 H2346 0.929 . S
C2360 C2359 1.399 . S
C2360 C2361 1.385 . S
C2361 H2347 0.931 . S
C2361 C2360 1.385 . S
C2361 C2362 1.389 . S
C2362 C2361 1.389 . S
C2362 C2363 1.387 . S
C2363 H2348 0.930 . S
C2363 C2358 1.390 . S
C2363 C2362 1.387 . S
H2364 C2376 0.930 . S
H2365 C2378 0.930 . S
H2366 C2379 0.930 . S
H2367 C2383 0.959 . S
H2368 C2383 0.959 . S
H2369 C2383 0.961 . S
H2370 C2384 0.960 . S
H2371 C2384 0.961 . S
H2372 C2384 0.959 . S
H2373 C2387 0.929 . S
H2374 C2388 0.931 . S
H2375 C2390 0.930 . S
C2376 H2364 0.930 . S
C2376 C2377 1.399 . S
C2376 C2381 1.399 . S
C2377 C2376 1.399 . S
C2377 C2378 1.376 . S
C2378 H2365 0.930 . S
C2378 C2377 1.376 . S
C2378 C2379 1.388 . S
C2379 H2366 0.930 . S
C2379 C2378 1.388 . S
C2379 C2380 1.390 . S
C2380 C2379 1.390 . S
C2380 C2381 1.394 . S
C2380 C2386 1.465 . S
C2381 C2376 1.399 . S
C2381 C2380 1.394 . S
C2381 C2382 1.516 . S
C2382 C2381 1.516 . S
C2382 C2383 1.502 . S
C2382 C2384 1.561 . S
C2382 C2385 1.526 . S
C2383 H2367 0.959 . S
C2383 H2368 0.959 . S
C2383 H2369 0.961 . S
C2383 C2382 1.502 . S
C2384 H2370 0.960 . S
C2384 H2371 0.961 . S
C2384 H2372 0.959 . S
C2384 C2382 1.561 . S
C2385 C2382 1.526 . S
C2385 C2386 1.396 . S
C2385 C2390 1.390 . S
C2386 C2380 1.465 . S
C2386 C2385 1.396 . S
C2386 C2387 1.399 . S
C2387 H2373 0.929 . S
C2387 C2386 1.399 . S
C2387 C2388 1.385 . S
C2388 H2374 0.931 . S
C2388 C2387 1.385 . S
C2388 C2389 1.389 . S
C2389 C2388 1.389 . S
C2389 C2390 1.387 . S
C2390 H2375 0.930 . S
C2390 C2385 1.390 . S
C2390 C2389 1.387 . S
H2391 C2403 0.930 . S
H2392 C2405 0.930 . S
H2393 C2406 0.930 . S
H2394 C2410 0.959 . S
H2395 C2410 0.959 . S
H2396 C2410 0.961 . S
H2397 C2411 0.960 . S
H2398 C2411 0.961 . S
H2399 C2411 0.959 . S
H2400 C2414 0.929 . S
H2401 C2415 0.931 . S
H2402 C2417 0.930 . S
C2403 H2391 0.930 . S
C2403 C2404 1.399 . S
C2403 C2408 1.399 . S
C2404 C2403 1.399 . S
C2404 C2405 1.376 . S
C2405 H2392 0.930 . S
C2405 C2404 1.376 . S
C2405 C2406 1.388 . S
C2406 H2393 0.930 . S
C2406 C2405 1.388 . S
C2406 C2407 1.390 . S
C2407 C2406 1.390 . S
C2407 C2408 1.394 . S
C2407 C2413 1.465 . S
C2408 C2403 1.399 . S
C2408 C2407 1.394 . S
C2408 C2409 1.516 . S
C2409 C2408 1.516 . S
C2409 C2410 1.502 . S
C2409 C2411 1.561 . S
C2409 C2412 1.526 . S
C2410 H2394 0.959 . S
C2410 H2395 0.959 . S
C2410 H2396 0.961 . S
C2410 C2409 1.502 . S
C2411 H2397 0.960 . S
C2411 H2398 0.961 . S
C2411 H2399 0.959 . S
C2411 C2409 1.561 . S
C2412 C2409 1.526 . S
C2412 C2413 1.396 . S
C2412 C2417 1.390 . S
C2413 C2407 1.465 . S
C2413 C2412 1.396 . S
C2413 C2414 1.399 . S
C2414 H2400 0.929 . S
C2414 C2413 1.399 . S
C2414 C2415 1.385 . S
C2415 H2401 0.931 . S
C2415 C2414 1.385 . S
C2415 C2416 1.389 . S
C2416 C2415 1.389 . S
C2416 C2417 1.387 . S
C2417 H2402 0.930 . S
C2417 C2412 1.390 . S
C2417 C2416 1.387 . S
H2418 C2430 0.930 . S
H2419 C2432 0.930 . S
H2420 C2433 0.930 . S
H2421 C2437 0.959 . S
H2422 C2437 0.959 . S
H2423 C2437 0.961 . S
H2424 C2438 0.960 . S
H2425 C2438 0.961 . S
H2426 C2438 0.959 . S
H2427 C2441 0.929 . S
H2428 C2442 0.931 . S
H2429 C2444 0.930 . S
C2430 H2418 0.930 . S
C2430 C2431 1.399 . S
C2430 C2435 1.399 . S
C2431 C2430 1.399 . S
C2431 C2432 1.376 . S
C2432 H2419 0.930 . S
C2432 C2431 1.376 . S
C2432 C2433 1.388 . S
C2433 H2420 0.930 . S
C2433 C2432 1.388 . S
C2433 C2434 1.390 . S
C2434 C2433 1.390 . S
C2434 C2435 1.394 . S
C2434 C2440 1.465 . S
C2435 C2430 1.399 . S
C2435 C2434 1.394 . S
C2435 C2436 1.516 . S
C2436 C2435 1.516 . S
C2436 C2437 1.502 . S
C2436 C2438 1.561 . S
C2436 C2439 1.526 . S
C2437 H2421 0.959 . S
C2437 H2422 0.959 . S
C2437 H2423 0.961 . S
C2437 C2436 1.502 . S
C2438 H2424 0.960 . S
C2438 H2425 0.961 . S
C2438 H2426 0.959 . S
C2438 C2436 1.561 . S
C2439 C2436 1.526 . S
C2439 C2440 1.396 . S
C2439 C2444 1.390 . S
C2440 C2434 1.465 . S
C2440 C2439 1.396 . S
C2440 C2441 1.399 . S
C2441 H2427 0.929 . S
C2441 C2440 1.399 . S
C2441 C2442 1.385 . S
C2442 H2428 0.931 . S
C2442 C2441 1.385 . S
C2442 C2443 1.389 . S
C2443 C2442 1.389 . S
C2443 C2444 1.387 . S
C2444 H2429 0.930 . S
C2444 C2439 1.390 . S
C2444 C2443 1.387 . S
H2445 C2457 0.930 . S
H2446 C2459 0.930 . S
H2447 C2460 0.930 . S
H2448 C2464 0.959 . S
H2449 C2464 0.959 . S
H2450 C2464 0.961 . S
H2451 C2465 0.960 . S
H2452 C2465 0.961 . S
H2453 C2465 0.959 . S
H2454 C2468 0.929 . S
H2455 C2469 0.931 . S
H2456 C2471 0.930 . S
C2457 H2445 0.930 . S
C2457 C2458 1.399 . S
C2457 C2462 1.399 . S
C2458 C2457 1.399 . S
C2458 C2459 1.376 . S
C2459 H2446 0.930 . S
C2459 C2458 1.376 . S
C2459 C2460 1.388 . S
C2460 H2447 0.930 . S
C2460 C2459 1.388 . S
C2460 C2461 1.390 . S
C2461 C2460 1.390 . S
C2461 C2462 1.394 . S
C2461 C2467 1.465 . S
C2462 C2457 1.399 . S
C2462 C2461 1.394 . S
C2462 C2463 1.516 . S
C2463 C2462 1.516 . S
C2463 C2464 1.502 . S
C2463 C2465 1.561 . S
C2463 C2466 1.526 . S
C2464 H2448 0.959 . S
C2464 H2449 0.959 . S
C2464 H2450 0.961 . S
C2464 C2463 1.502 . S
C2465 H2451 0.960 . S
C2465 H2452 0.961 . S
C2465 H2453 0.959 . S
C2465 C2463 1.561 . S
C2466 C2463 1.526 . S
C2466 C2467 1.396 . S
C2466 C2471 1.390 . S
C2467 C2461 1.465 . S
C2467 C2466 1.396 . S
C2467 C2468 1.399 . S
C2468 H2454 0.929 . S
C2468 C2467 1.399 . S
C2468 C2469 1.385 . S
C2469 H2455 0.931 . S
C2469 C2468 1.385 . S
C2469 C2470 1.389 . S
C2470 C2469 1.389 . S
C2470 C2471 1.387 . S
C2471 H2456 0.930 . S
C2471 C2466 1.390 . S
C2471 C2470 1.387 . S
C541 C21 1.518 . S
C553 C406 1.524 . S
C568 C436 1.536 . S
C580 C43 1.539 . S
C595 C370 1.471 . S
C607 C51 1.492 . S
C622 C87 1.524 . S
C634 C392 1.529 . S
C649 C502 1.532 . S
C661 C95 1.543 . S
C676 C472 1.518 . S
C688 C125 1.512 . S
C703 C516 1.471 . S
C715 C139 1.495 . S
C730 C448 1.509 . S
C742 C161 1.505 . S
C757 C183 1.523 . S
C769 C296 1.528 . S
C784 C205 1.488 . S
C796 C348 1.474 . S
C811 C235 1.543 . S
C823 C318 1.528 . S
C838 C282 1.471 . S
C850 C249 1.493 . S
C865 C142 1.491 . S
C877 C279 1.498 . S
C892 C307 1.484 . S
C904 C164 1.472 . S
C919 C98 1.484 . S
C931 C329 1.502 . S
C946 C118 1.476 . S
C958 C345 1.494 . S
C973 C367 1.542 . S
C985 C228 1.533 . S
C1000 C208 1.470 . S
C1012 C389 1.486 . S
C1027 C252 1.472 . S
C1039 C417 1.485 . S
C1054 C433 1.534 . S
C1066 C186 1.521 . S
C1081 C447 1.524 . S
C1093 C40 1.510 . S
C1108 C483 1.526 . S
C1120 C84 1.511 . S
C1135 C499 1.494 . S
C1147 C54 1.488 . S
C1162 C18 1.522 . S
C1174 C527 1.534 . S
C1189 C428 1.139 . S
C1201 C10 1.166 . S
C1216 C404 1.183 . S
C1228 C32 1.151 . S
C1243 C384 1.174 . S
C1255 C52 1.140 . S
C1270 C362 1.181 . S
C1282 C76 1.148 . S
C1297 C96 1.150 . S
C1309 C514 1.182 . S
C1324 C128 1.181 . S
C1336 C458 1.190 . S
C1351 C494 1.174 . S
C1363 C140 1.190 . S
C1378 C470 1.164 . S
C1390 C162 1.131 . S
C1405 C316 1.188 . S
C1417 C184 1.185 . S
C1432 C206 1.170 . S
C1444 C274 1.142 . S
C1459 C294 1.180 . S
C1471 C238 1.190 . S
C1486 C340 1.184 . S
C1498 C250 1.188 . S
C1513 C272 1.173 . S
C1525 C172 1.144 . S
C1540 C150 1.162 . S
C1552 C304 1.190 . S
C1567 C326 1.168 . S
C1579 C120 1.193 . S
C1594 C338 1.145 . S
C1606 C106 1.186 . S
C1621 C260 1.136 . S
C1633 C360 1.154 . S
C1648 C194 1.193 . S
C1660 C382 1.170 . S
C1675 C414 1.193 . S
C1687 C230 1.169 . S
C1702 C426 1.126 . S
C1714 C216 1.149 . S
C1729 C62 1.151 . S
C1741 C450 1.183 . S
C1756 C8 1.142 . S
C1768 C480 1.171 . S
C1783 C492 1.125 . S
C1795 C30 1.152 . S
C1810 C524 1.143 . S
C1822 C74 1.138 . S
C1837 C7 0.951 . S
C1849 C109 0.930 . S
C1864 C117 0.970 . S
C1876 C29 0.977 . S
C1891 C153 0.940 . S
C1903 C59 0.933 . S
C1918 C175 0.922 . S
C1930 C73 0.921 . S
C1945 C197 0.895 . S
C1957 C103 0.919 . S
C1972 C131 0.931 . S
C1984 C263 0.938 . S
C1999 C147 0.931 . S
C2011 C219 0.907 . S
C2026 C227 0.893 . S
C2038 C169 0.914 . S
C2053 C191 0.916 . S
C2065 C15 0.914 . S
C2080 C213 0.967 . S
C2092 C65 0.952 . S
C2107 C81 0.897 . S
C2119 C241 0.911 . S
C2134 C37 0.933 . S
C2146 C257 0.954 . S
C2161 C271 0.943 . S
C2173 C373 0.939 . S
C2188 C395 0.965 . S
C2200 C301 0.967 . S
C2215 C403 0.956 . S
C2227 C323 0.954 . S
C2242 C439 0.964 . S
C2254 C337 0.962 . S
C2269 C359 0.954 . S
C2281 C455 0.956 . S
C2296 C513 0.937 . S
C2308 C381 0.941 . S
C2323 C411 0.981 . S
C2335 C469 0.979 . S
C2350 C425 0.910 . S
C2362 C505 0.910 . S
C2377 C285 0.953 . S
C2389 C461 0.956 . S
C2404 C315 0.952 . S
C2416 C477 0.950 . S
C2431 C351 0.966 . S
C2443 C491 0.963 . S
C2458 C293 0.943 . S
C2470 C521 0.947 . S
