# Generated by pormake.
# Topology vby, (6)-cn, num edge types: 1
# Building blocks:
#     Node 0, Type 0, BuildingBlock: KUMBOL_clean_sbu_1, # of connection points: 6
#     Node 1, Type 0, BuildingBlock: KUMBOL_clean_sbu_1, # of connection points: 6
#     Node 2, Type 0, BuildingBlock: KUMBOL_clean_sbu_1, # of connection points: 6
#     Node 3, Type 0, BuildingBlock: KUMBOL_clean_sbu_1, # of connection points: 6
#     Node 4, Type 0, BuildingBlock: KUMBOL_clean_sbu_1, # of connection points: 6
#     Node 5, Type 0, BuildingBlock: KUMBOL_clean_sbu_1, # of connection points: 6
#     Node 6, Type 0, BuildingBlock: KUMBOL_clean_sbu_1, # of connection points: 6
#     Node 7, Type 0, BuildingBlock: KUMBOL_clean_sbu_1, # of connection points: 6
#     Edge 8, Type (0, 0), BuildingBlock: AJUNOK_clean_linker_0, # of connection points: 2
#     Edge 9, Type (0, 0), BuildingBlock: AJUNOK_clean_linker_0, # of connection points: 2
#     Edge 10, Type (0, 0), BuildingBlock: AJUNOK_clean_linker_0, # of connection points: 2
#     Edge 11, Type (0, 0), BuildingBlock: AJUNOK_clean_linker_0, # of connection points: 2
#     Edge 12, Type (0, 0), BuildingBlock: AJUNOK_clean_linker_0, # of connection points: 2
#     Edge 13, Type (0, 0), BuildingBlock: AJUNOK_clean_linker_0, # of connection points: 2
#     Edge 14, Type (0, 0), BuildingBlock: AJUNOK_clean_linker_0, # of connection points: 2
#     Edge 15, Type (0, 0), BuildingBlock: AJUNOK_clean_linker_0, # of connection points: 2
#     Edge 16, Type (0, 0), BuildingBlock: AJUNOK_clean_linker_0, # of connection points: 2
#     Edge 17, Type (0, 0), BuildingBlock: AJUNOK_clean_linker_0, # of connection points: 2
#     Edge 18, Type (0, 0), BuildingBlock: AJUNOK_clean_linker_0, # of connection points: 2
#     Edge 19, Type (0, 0), BuildingBlock: AJUNOK_clean_linker_0, # of connection points: 2
#     Edge 20, Type (0, 0), BuildingBlock: AJUNOK_clean_linker_0, # of connection points: 2
#     Edge 21, Type (0, 0), BuildingBlock: AJUNOK_clean_linker_0, # of connection points: 2
#     Edge 22, Type (0, 0), BuildingBlock: AJUNOK_clean_linker_0, # of connection points: 2
#     Edge 23, Type (0, 0), BuildingBlock: AJUNOK_clean_linker_0, # of connection points: 2
#     Edge 24, Type (0, 0), BuildingBlock: AJUNOK_clean_linker_0, # of connection points: 2
#     Edge 25, Type (0, 0), BuildingBlock: AJUNOK_clean_linker_0, # of connection points: 2
#     Edge 26, Type (0, 0), BuildingBlock: AJUNOK_clean_linker_0, # of connection points: 2
#     Edge 27, Type (0, 0), BuildingBlock: AJUNOK_clean_linker_0, # of connection points: 2
#     Edge 28, Type (0, 0), BuildingBlock: AJUNOK_clean_linker_0, # of connection points: 2
#     Edge 29, Type (0, 0), BuildingBlock: AJUNOK_clean_linker_0, # of connection points: 2
#     Edge 30, Type (0, 0), BuildingBlock: AJUNOK_clean_linker_0, # of connection points: 2
#     Edge 31, Type (0, 0), BuildingBlock: AJUNOK_clean_linker_0, # of connection points: 2
# Relax obj value: 0.086
# Max RMSD: 0.160
# Mean RMSD: 0.160
data_MOF--net-vby--node1-KUMBOL_clean_sbu_1--edge1-AJUNOK_clean_linker_0
_symmetry_space_group_name_H-M    P1
_symmetry_Int_Tables_number       1
_symmetry_cell_setting            triclinic
loop_
_symmetry_equiv_pos_as_xyz
'x, y, z'
_cell_length_a     11.18549
_cell_length_b     83.199226
_cell_length_c     21.625685
_cell_angle_alpha  113.24949
_cell_angle_beta   90.12313
_cell_angle_gamma 89.90546
loop_
_atom_site_label
_atom_site_type_symbol
_atom_site_fract_x
_atom_site_fract_y
_atom_site_fract_z
_atom_type_partial_charge
C0 C 0.30648 0.43686 0.15314 0.0
C1 C 0.47883 0.44019 0.0908 0.0
C2 C 0.36449 0.43326 0.0921 0.0
C3 C 0.53375 0.45092 0.15153 0.0
C4 C 0.36209 0.4475 0.21416 0.0
C5 C 0.47564 0.45456 0.21296 0.0
N6 N 0.19591 0.43003 0.15284 0.0
C7 C 0.13524 0.43359 0.21151 0.0
C8 C 0.30168 0.4508 0.27463 0.0
C9 C 0.18774 0.44383 0.27325 0.0
Gd10 Gd 0.10153 0.36285 0.9586 0.0
Gd11 Gd 0.1145 0.41475 0.04571 0.0
N12 N 0.31079 0.42246 0.03413 0.0
C13 C 0.53498 0.43593 0.02843 0.0
C14 C 0.36417 0.41844 0.97337 0.0
C15 C 0.47748 0.42499 0.96949 0.0
H16 H 0.3216 0.40942 0.92875 0.0
H17 H 0.52082 0.42145 0.9212 0.0
H18 H 0.90703 0.36166 0.07326 0.0
H19 H 0.04455 0.42917 0.21076 0.0
H20 H 0.69714 0.35269 0.07621 0.0
H21 H 0.62302 0.44082 0.02508 0.0
H22 H 0.62176 0.45632 0.15171 0.0
H23 H 0.18719 0.34641 0.79581 0.0
H24 H 0.34156 0.45889 0.32255 0.0
H25 H 0.13933 0.44663 0.31966 0.0
H26 H 0.58095 0.32745 0.84226 0.0
H27 H 0.51959 0.46279 0.25935 0.0
H28 H 0.87777 0.32313 0.67737 0.0
H29 H 0.09184 0.33117 0.68439 0.0
N30 N 1.02825 0.34679 0.8503 0.0
C31 C 0.9131 0.34134 0.84764 0.0
C32 C 0.09407 0.34271 0.79292 0.0
C33 C 0.91996 0.32939 0.72617 0.0
C34 C 0.04065 0.33401 0.72993 0.0
C35 C 0.85544 0.33266 0.78536 0.0
H36 H 0.68888 0.3212 0.73671 0.0
N37 N 0.90872 0.35353 0.96707 0.0
C38 C 0.85248 0.34445 0.90756 0.0
C39 C 0.67622 0.34263 0.96838 0.0
C40 C 0.73305 0.33915 0.90661 0.0
C41 C 0.85782 0.35557 0.02692 0.0
C42 C 0.73976 0.3504 0.02858 0.0
O43 O 0.28129 0.39876 0.04926 0.0
O44 O 0.28507 0.37363 0.95237 0.0
O45 O 0.15652 0.3473 0.01522 0.0
O46 O 0.15805 0.33599 0.90642 0.0
O47 O 0.0682 0.40234 0.93496 0.0
O48 O 0.1688 0.37602 0.89176 0.0
O49 O 0.92581 0.37753 0.96015 0.0
O50 O 0.92498 0.40497 0.04748 0.0
O51 O 0.08892 0.43249 0.99474 0.0
O52 O 0.04957 0.44106 0.10144 0.0
O53 O 0.13051 0.37673 0.07148 0.0
O54 O 1.02411 0.40237 0.1083 0.0
C55 C 0.34087 0.38591 1.00259 0.0
C56 C 0.11329 0.3891 0.88412 0.0
C57 C 0.27264 0.32134 0.96016 0.0
C58 C 0.33991 0.29572 0.97936 0.0
C59 C 0.46681 0.30849 0.92011 0.0
C60 C 0.38012 0.32119 0.92685 0.0
C61 C 0.44735 0.29592 0.94644 0.0
C62 C 0.2524 0.3085 0.9861 0.0
C63 C 0.17498 0.33328 0.96095 0.0
C64 C 0.67406 0.33107 0.8445 0.0
C65 C 0.73532 0.32767 0.78413 0.0
H66 H 0.58346 0.33954 0.97069 0.0
C67 C 0.86858 0.39134 0.00301 0.0
C68 C 0.06388 0.38855 0.11703 0.0
C69 C 0.97118 0.45838 0.04587 0.0
C70 C 0.94079 0.48582 0.03146 0.0
C71 C 0.77666 0.47231 0.06721 0.0
C72 C 0.85174 0.45869 0.06549 0.0
C73 C 0.82076 0.48583 0.05071 0.0
C74 C 1.01461 0.47175 0.0278 0.0
C75 C 0.0564 0.44541 0.04999 0.0
H76 H 0.54916 0.30812 0.89365 0.0
H77 H 0.39579 0.33071 0.90512 0.0
H78 H 0.51497 0.28601 0.93922 0.0
H79 H 0.16788 0.30821 0.01014 0.0
H80 H 0.68444 0.47261 0.08257 0.0
H81 H 0.81752 0.44858 0.0804 0.0
H82 H 0.76145 0.49646 0.0542 0.0
H83 H 0.1068 0.47126 0.01176 0.0
C84 C 0.07433 0.69444 0.21155 0.0
C85 C 0.27689 0.70434 0.21138 0.0
C86 C 0.17879 0.69406 0.17752 0.0
C87 C 0.27111 0.71403 0.28126 0.0
C88 C 0.06537 0.70475 0.28115 0.0
C89 C 0.16552 0.71416 0.31622 0.0
N90 N 0.97893 0.6856 0.17555 0.0
C91 C 0.86953 0.68742 0.20524 0.0
C92 C 0.95502 0.70571 0.31277 0.0
C93 C 0.85611 0.69719 0.27435 0.0
Gd94 Gd 0.99893 0.61519 0.97497 0.0
Gd95 Gd 1.01253 0.66768 0.06137 0.0
N96 N 0.18093 0.68472 0.1101 0.0
C97 C 0.37609 0.7051 0.17361 0.0
C98 C 0.27402 0.68633 0.07226 0.0
C99 C 0.37391 0.6963 0.10346 0.0
H100 H 0.27188 0.67951 0.01808 0.0
H101 H 0.44874 0.69702 0.07318 0.0
H102 H 0.82626 0.62263 0.11375 0.0
H103 H 0.7931 0.68115 0.17573 0.0
H104 H 0.63437 0.61254 0.13933 0.0
H105 H 0.45291 0.71274 0.19871 0.0
H106 H 0.3464 0.72186 0.30833 0.0
H107 H 1.02182 0.59809 0.80632 0.0
H108 H 0.94446 0.71338 0.36619 0.0
H109 H 0.76947 0.69821 0.2978 0.0
H110 H 0.4808 0.57482 0.92429 0.0
H111 H 0.161 0.72204 0.3698 0.0
H112 H 0.70684 0.56769 0.7275 0.0
H113 H 0.90203 0.57899 0.70907 0.0
N114 N 0.8934 0.59799 0.87868 0.0
C115 C 0.78716 0.59178 0.89036 0.0
C116 C 0.93571 0.59342 0.81479 0.0
C117 C 0.75859 0.57615 0.77037 0.0
C118 C 0.86862 0.58253 0.75969 0.0
C119 C 0.71662 0.58071 0.83615 0.0
H120 H 0.55136 0.56603 0.80801 0.0
N121 N 0.81505 0.60779 0.00848 0.0
C122 C 0.74728 0.5967 0.95667 0.0
C123 C 0.59549 0.5964 0.03573 0.0
C124 C 0.63558 0.59074 0.96924 0.0
C125 C 0.77553 0.61347 0.07324 0.0
C126 C 0.6655 0.60788 0.08784 0.0
O127 O 0.19181 0.65406 0.05511 0.0
O128 O 0.18803 0.62555 0.97394 0.0
O129 O 1.01619 0.59257 1.00116 0.0
O130 O 0.11041 0.59335 0.91303 0.0
O131 O 0.09392 0.65465 0.95729 0.0
O132 O 1.00237 0.6279 0.90183 0.0
O133 O 0.83311 0.63039 0.96719 0.0
O134 O 0.83228 0.65524 0.06441 0.0
O135 O 0.89161 0.6738 0.99409 0.0
O136 O 1.00556 0.69382 0.06394 0.0
O137 O 0.0615 0.62814 0.08227 0.0
O138 O 0.95544 0.65379 0.12734 0.0
C139 C 0.24596 0.63945 0.01595 0.0
C140 C 0.04749 0.64254 0.90306 0.0
C141 C 0.13509 0.56694 0.93501 0.0
C142 C 0.13432 0.53928 0.94957 0.0
C143 C 0.28458 0.54474 0.87936 0.0
C144 C 0.23477 0.56115 0.89258 0.0
C145 C 0.23504 0.53388 0.90778 0.0
C146 C 0.08422 0.55586 0.96311 0.0
C147 C 0.08543 0.5845 0.9496 0.0
C148 C 0.56629 0.57957 0.91526 0.0
C149 C 0.60653 0.57457 0.84902 0.0
H150 H 0.50992 0.59216 0.04728 0.0
C151 C 0.77466 0.64284 0.0154 0.0
C152 C 1.01477 0.64091 0.13385 0.0
C153 C 0.82749 0.70356 0.03554 0.0
C154 C 0.75893 0.73187 0.03967 0.0
C155 C 0.65647 0.71779 0.10327 0.0
C156 C 0.73471 0.70361 0.07891 0.0
C157 C 0.6671 0.73172 0.08337 0.0
C158 C 0.83988 0.71777 0.01619 0.0
C159 C 0.92218 0.69032 0.01861 0.0
H160 H 0.36182 0.54043 0.84686 0.0
H161 H 0.27498 0.56937 0.87002 0.0
H162 H 0.27435 0.52111 0.89642 0.0
H163 H 1.00646 0.56008 0.99542 0.0
H164 H 0.58943 0.71833 0.13935 0.0
H165 H 0.72544 0.69302 0.09573 0.0
H166 H 0.60595 0.74266 0.10396 0.0
H167 H 0.91375 0.71802 0.98417 0.0
C168 C 0.3124 0.59096 0.43931 0.0
C169 C 0.36332 0.5808 0.52708 0.0
C170 C 0.28901 0.59055 0.50199 0.0
C171 C 0.46022 0.57139 0.48833 0.0
C172 C 0.41126 0.58186 0.40111 0.0
C173 C 0.48427 0.57195 0.42566 0.0
N174 N 0.24148 0.60094 0.41727 0.0
C175 C 0.26355 0.60218 0.35731 0.0
C176 C 0.43446 0.58311 0.33956 0.0
C177 C 0.36052 0.59337 0.31774 0.0
Gd178 Gd 0.06861 0.66555 0.54922 0.0
Gd179 Gd 0.07104 0.61239 0.48263 0.0
N180 N 0.1956 0.60001 0.53899 0.0
C181 C 0.33933 0.58104 0.59097 0.0
C182 C 0.17036 0.6 0.6007 0.0
C183 C 0.24272 0.59073 0.62798 0.0
H184 H 0.09169 0.60649 0.62785 0.0
H185 H 0.22248 0.59079 0.67699 0.0
H186 H 0.90294 0.6778 0.44771 0.0
H187 H 0.20718 0.60995 0.33985 0.0
H188 H 0.70013 0.68982 0.44673 0.0
H189 H 0.39482 0.5738 0.61214 0.0
H190 H 0.51819 0.56382 0.50684 0.0
H191 H 0.1383 0.68046 0.71625 0.0
H192 H 0.50952 0.5763 0.3087 0.0
H193 H 0.37779 0.59444 0.27026 0.0
H194 H 0.53325 0.69558 0.66008 0.0
H195 H 0.56032 0.5648 0.39683 0.0
H196 H 0.80979 0.69406 0.82583 0.0
H197 H 1.02911 0.69006 0.82399 0.0
N198 N 0.98033 0.67674 0.65686 0.0
C199 C 0.86262 0.68085 0.65762 0.0
C200 C 0.04189 0.68146 0.71618 0.0
C201 C 0.85693 0.68939 0.77823 0.0
C202 C 0.98068 0.68718 0.77745 0.0
C203 C 0.79719 0.68695 0.71825 0.0
H204 H 0.62366 0.69571 0.76334 0.0
N205 N 0.87896 0.67641 0.54287 0.0
C206 C 0.81128 0.6811 0.59936 0.0
C207 C 0.65304 0.69008 0.54385 0.0
C208 C 0.69437 0.68744 0.60045 0.0
C209 C 0.84397 0.68044 0.4901 0.0
C210 C 0.72981 0.68722 0.48956 0.0
O211 O 0.255 0.62552 0.49892 0.0
O212 O 0.26026 0.65614 0.54328 0.0
O213 O 0.13276 0.68212 0.4988 0.0
O214 O 0.1098 0.69279 0.60637 0.0
O215 O 1.01526 0.62891 0.58788 0.0
O216 O 0.13805 0.65276 0.61817 0.0
O217 O 0.89863 0.65005 0.49977 0.0
O218 O 0.89961 0.62657 0.52983 0.0
O219 O 0.99395 0.58989 0.49476 0.0
O220 O 0.99038 0.59126 0.39718 0.0
O221 O 0.11947 0.64931 0.44155 0.0
O222 O 1.01672 0.62317 0.40576 0.0
C223 C 0.3127 0.64062 0.52012 0.0
C224 C 0.07945 0.64106 0.63308 0.0
C225 C 0.2391 0.70817 0.5635 0.0
C226 C 0.31436 0.73448 0.55309 0.0
C227 C 0.42289 0.72165 0.6196 0.0
C228 C 0.3371 0.70843 0.60429 0.0
C229 C 0.41219 0.73453 0.59388 0.0
C230 C 0.22798 0.72121 0.53792 0.0
C231 C 0.13966 0.69597 0.55443 0.0
C232 C 0.62509 0.69159 0.6588 0.0
C233 C 0.67645 0.69146 0.7177 0.0
H234 H 0.56353 0.69472 0.54199 0.0
C235 C 0.84071 0.63804 0.51358 0.0
C236 C 0.05782 0.63679 0.39573 0.0
C237 C 1.01642 0.56298 0.40091 0.0
C238 C 0.05466 0.53498 0.41036 0.0
C239 C 0.09073 0.53798 0.30482 0.0
C240 C 0.0538 0.55543 0.3334 0.0
C241 C 0.09095 0.52779 0.34293 0.0
C242 C 1.0176 0.5526 0.43935 0.0
C243 C 0.97385 0.58143 0.43091 0.0
H244 H 0.49723 0.72216 0.65232 0.0
H245 H 0.34476 0.69871 0.62567 0.0
H246 H 0.47833 0.74485 0.60775 0.0
H247 H 0.15053 0.72129 0.50776 0.0
H248 H 0.11928 0.53231 0.2528 0.0
H249 H 0.05425 0.56297 0.30246 0.0
H250 H 0.12033 0.5143 0.31993 0.0
H251 H 0.98966 0.55814 0.49156 0.0
C252 C 0.14433 0.33565 0.35642 0.0
C253 C 0.30959 0.33004 0.41819 0.0
C254 C 0.20165 0.33868 0.41701 0.0
C255 C 0.35938 0.31836 0.35746 0.0
C256 C 0.1921 0.32351 0.29556 0.0
C257 C 0.30068 0.31508 0.29633 0.0
N258 N 0.03836 0.34377 0.35737 0.0
C259 C 0.97308 0.33978 0.29969 0.0
C260 C 0.1274 0.31977 0.23597 0.0
C261 C 1.01702 0.32785 0.23816 0.0
Gd262 Gd 0.96236 0.41494 0.54299 0.0
Gd263 Gd 0.96702 0.36208 0.46393 0.0
N264 N 0.15109 0.34999 0.47499 0.0
C265 C 0.36336 0.33323 0.48048 0.0
C266 C 0.19965 0.35245 0.53602 0.0
C267 C 0.30758 0.34437 0.53967 0.0
H268 H 0.15537 0.36068 0.58178 0.0
H269 H 0.347 0.34661 0.58812 0.0
H270 H 0.78497 0.40615 0.40695 0.0
H271 H 0.88583 0.34554 0.30123 0.0
H272 H 0.59386 0.41681 0.38014 0.0
H273 H 0.44661 0.3269 0.48348 0.0
H274 H 0.4425 0.31164 0.35731 0.0
H275 H 0.96934 0.4267 0.71103 0.0
H276 H 0.16089 0.31046 0.18826 0.0
H277 H 0.96534 0.3248 0.19256 0.0
H278 H 0.43784 0.45372 0.59636 0.0
H279 H 0.33911 0.3058 0.25001 0.0
H280 H 0.65433 0.45678 0.79209 0.0
H281 H 0.84532 0.44401 0.80894 0.0
N282 N 0.84746 0.42898 0.63945 0.0
C283 C 0.7433 0.43601 0.62889 0.0
C284 C 0.88458 0.43172 0.70295 0.0
C285 C 0.70787 0.44903 0.74884 0.0
C286 C 0.81527 0.44175 0.75857 0.0
C287 C 0.67028 0.44614 0.68346 0.0
H288 H 0.50439 0.46066 0.7125 0.0
N289 N 0.77447 0.42143 0.51104 0.0
C290 C 0.70617 0.43224 0.5629 0.0
C291 C 0.55544 0.43301 0.48383 0.0
C292 C 0.59456 0.43831 0.55053 0.0
C293 C 0.73487 0.41571 0.44642 0.0
C294 C 0.6252 0.42146 0.43164 0.0
O295 O 0.15163 0.37418 0.46739 0.0
O296 O 0.15249 0.40407 0.53563 0.0
O297 O 0.99614 0.43632 0.50901 0.0
O298 O 0.03768 0.43927 0.61184 0.0
O299 O 0.94281 0.37752 0.5768 0.0
O300 O 0.05135 0.40287 0.60688 0.0
O301 O 0.79624 0.39977 0.55337 0.0
O302 O 0.798 0.37584 0.45468 0.0
O303 O 0.91989 0.34481 0.51496 0.0
O304 O 0.8452 0.34033 0.41783 0.0
O305 O 1.01205 0.40252 0.43299 0.0
O306 O 0.92899 0.37472 0.39022 0.0
C307 C 0.20778 0.38915 0.49994 0.0
C308 C 1.01418 0.38945 0.61894 0.0
C309 C 0.07629 0.46481 0.58731 0.0
C310 C 0.09511 0.49164 0.56608 0.0
C311 C 0.15563 0.49137 0.6739 0.0
C312 C 0.12382 0.47383 0.65208 0.0
C313 C 0.14078 0.50023 0.63167 0.0
C314 C 0.06285 0.47376 0.54398 0.0
C315 C 1.03374 0.44659 0.56873 0.0
C316 C 0.52358 0.44887 0.60494 0.0
C317 C 0.56135 0.45278 0.67114 0.0
H318 H 0.46989 0.4373 0.47228 0.0
C319 C 0.73832 0.38708 0.50547 0.0
C320 C 0.98562 0.38773 0.38266 0.0
C321 C 0.88741 0.31509 0.43935 0.0
C322 C 0.86999 0.28677 0.44878 0.0
C323 C 0.96707 0.2886 0.35175 0.0
C324 C 0.9441 0.30648 0.37687 0.0
C325 C 0.9298 0.27877 0.38721 0.0
C326 C 0.85084 0.30508 0.47564 0.0
C327 C 0.85937 0.3341 0.4638 0.0
H328 H 0.19082 0.49819 0.72421 0.0
H329 H 0.1349 0.46742 0.68667 0.0
H330 H 0.16421 0.51397 0.6508 0.0
H331 H 1.02751 0.46687 0.49371 0.0
H332 H 1.01128 0.28227 0.30367 0.0
H333 H 0.96782 0.31335 0.3459 0.0
H334 H 0.94606 0.26479 0.36603 0.0
H335 H 0.80382 0.31133 0.52294 0.0
C336 C 0.84987 0.93092 0.11649 0.0
C337 C 0.98277 0.93142 0.02837 0.0
C338 C 0.87223 0.92696 0.04817 0.0
C339 C 0.06912 0.93993 0.07706 0.0
C340 C 0.93726 0.93952 0.16545 0.0
C341 C 0.04676 0.9441 0.14536 0.0
N342 N 0.74493 0.92577 0.13466 0.0
C343 C 0.71967 0.92927 0.20036 0.0
C344 C 0.91267 0.94301 0.23307 0.0
C345 C 0.80332 0.93789 0.25056 0.0
Gd346 Gd 0.59244 0.86204 0.96976 0.0
Gd347 Gd 0.60833 0.91404 0.04736 0.0
N348 N 0.78786 0.91834 1.00114 0.0
C349 C 1.0041 0.92712 0.95992 0.0
C350 C 0.80516 0.91521 0.93494 0.0
C351 C 0.91442 0.91912 0.91309 0.0
H352 H 0.73417 0.91045 0.89907 0.0
H353 H 0.92837 0.91634 0.86034 0.0
H354 H 0.3951 0.85796 0.07749 0.0
H355 H 0.63407 0.92587 0.21438 0.0
H356 H 0.18887 0.84674 0.074 0.0
H357 H 0.08858 0.93025 0.94289 0.0
H358 H 0.15362 0.94317 0.06147 0.0
H359 H 0.68979 0.8474 0.80922 0.0
H360 H 0.97747 0.94965 0.27212 0.0
H361 H 0.78299 0.94071 0.30275 0.0
H362 H 0.08969 0.8227 0.83758 0.0
H363 H 0.11531 0.95066 0.18211 0.0
H364 H 0.39631 0.82137 0.68159 0.0
H365 H 0.6053 0.83194 0.69524 0.0
N366 N 0.52749 0.84656 0.85904 0.0
C367 C 0.41422 0.8402 0.85285 0.0
C368 C 0.59751 0.8432 0.80365 0.0
C369 C 0.43241 0.82833 0.73166 0.0
C370 C 0.55041 0.83429 0.73913 0.0
C371 C 0.36339 0.83101 0.78888 0.0
H372 H 0.20444 0.81788 0.73538 0.0
N373 N 0.40164 0.85122 0.97199 0.0
C374 C 0.35032 0.84232 0.91082 0.0
C375 C 0.17442 0.83781 0.96611 0.0
C376 C 0.2339 0.83564 0.90628 0.0
C377 C 0.3491 0.85187 0.02989 0.0
C378 C 0.23319 0.84554 0.02794 0.0
O379 O 0.76405 0.89695 0.05817 0.0
O380 O 0.7728 0.87297 0.9594 0.0
O381 O 0.67858 0.84857 0.02722 0.0
O382 O 0.63092 0.83443 0.92265 0.0
O383 O 0.54239 0.90049 0.94035 0.0
O384 O 0.65765 0.87588 0.90513 0.0
O385 O 0.41172 0.87591 0.98263 0.0
O386 O 0.41209 0.90606 0.0436 0.0
O387 O 0.59375 0.93539 0.01414 0.0
O388 O 0.55142 0.93982 0.11741 0.0
O389 O 0.60251 0.87625 0.08366 0.0
O390 O 0.51987 0.90399 0.11828 0.0
C391 C 0.82777 0.88539 0.00931 0.0
C392 C 0.58712 0.88671 0.8917 0.0
C393 C 0.76685 0.82027 0.9676 0.0
C394 C 0.827 0.79287 0.97553 0.0
C395 C 0.94481 0.80502 0.91038 0.0
C396 C 0.86547 0.81907 0.92623 0.0
C397 C 0.92647 0.79212 0.93514 0.0
C398 C 0.74786 0.80716 0.99234 0.0
C399 C 0.67297 0.83337 0.97686 0.0
C400 C 0.18106 0.82719 0.84256 0.0
C401 C 0.24599 0.82469 0.78409 0.0
H402 H 0.08393 0.83343 0.9655 0.0
C403 C 0.35596 0.89102 0.01185 0.0
C404 C 0.54532 0.88974 0.12832 0.0
C405 C 0.48423 0.961 0.07606 0.0
C406 C 0.45819 0.98883 0.06472 0.0
C407 C 0.29 0.97499 0.09511 0.0
C408 C 0.36428 0.96137 0.09432 0.0
C409 C 0.33636 0.98861 0.07994 0.0
C410 C 0.5312 0.97479 0.06174 0.0
C411 C 0.5643 0.94679 0.0734 0.0
H412 H 1.02018 0.80381 0.87786 0.0
H413 H 0.87961 0.82878 0.9052 0.0
H414 H 0.98814 0.7812 0.92068 0.0
H415 H 0.66985 0.80783 0.02297 0.0
H416 H 0.19677 0.97519 0.10861 0.0
H417 H 0.32953 0.9512 0.10853 0.0
H418 H 0.27802 0.99922 0.08212 0.0
H419 H 0.62493 0.97465 0.04872 0.0
C420 C 0.68243 0.18995 0.18029 0.0
C421 C 0.86039 0.19225 0.11996 0.0
C422 C 0.74121 0.18695 0.11992 0.0
C423 C 0.92045 0.20046 0.18166 0.0
C424 C 0.74101 0.19884 0.24218 0.0
C425 C 0.86051 0.20398 0.2425 0.0
N426 N 0.56837 0.18413 0.1784 0.0
C427 C 0.50518 0.18776 0.23638 0.0
C428 C 0.67819 0.2021 0.30192 0.0
C429 C 0.55943 0.19668 0.29896 0.0
Gd430 Gd 0.48136 0.11702 0.98904 0.0
Gd431 Gd 0.49129 0.16861 0.07031 0.0
N432 N 0.68393 0.17778 0.06083 0.0
C433 C 0.91602 0.1886 0.05772 0.0
C434 C 0.73369 0.17554 1.00051 0.0
C435 C 0.85154 0.18067 0.99795 0.0
H436 H 0.68369 0.16933 0.95449 0.0
H437 H 0.89328 0.17823 0.94997 0.0
H438 H 0.29174 0.12041 0.11186 0.0
H439 H 0.41263 0.18388 0.23451 0.0
H440 H 0.08836 0.11034 0.12321 0.0
H441 H 1.0086 0.19167 0.05469 0.0
H442 H 1.01345 0.20406 0.1833 0.0
H443 H 0.54258 0.10172 0.82251 0.0
H444 H 0.72026 0.20889 0.35049 0.0
H445 H 0.5097 0.19935 0.34485 0.0
H446 H 0.96737 0.07663 0.89503 0.0
H447 H 0.9078 0.21056 0.28956 0.0
H448 H 0.23839 0.0724 0.71786 0.0
H449 H 0.44117 0.08402 0.71607 0.0
N450 N 0.39486 0.10131 0.88388 0.0
C451 C 0.28404 0.09484 0.8862 0.0
C452 C 0.45211 0.09738 0.82395 0.0
C453 C 0.28139 0.08049 0.76479 0.0
C454 C 0.39571 0.08709 0.76352 0.0
C455 C 0.22444 0.08421 0.82657 0.0
H456 H 0.06335 0.06941 0.78512 0.0
N457 N 0.28785 0.10938 0.00538 0.0
C458 C 0.22966 0.09882 0.94857 0.0
C459 C 0.06304 0.09695 0.01615 0.0
C460 C 0.11486 0.09238 0.9525 0.0
C461 C 0.24112 0.11296 0.0675 0.0
C462 C 0.12689 0.1071 0.07388 0.0
O463 O 0.66764 0.15407 0.07013 0.0
O464 O 0.6698 0.12646 0.98422 0.0
O465 O 0.5064 0.10021 0.04349 0.0
O466 O 0.54803 0.09057 0.93669 0.0
O467 O 0.46517 0.15433 0.95704 0.0
O468 O 0.56979 0.12846 0.92242 0.0
O469 O 0.31348 0.13243 0.98237 0.0
O470 O 0.30741 0.15804 0.07702 0.0
O471 O 0.43511 0.18407 0.01358 0.0
O472 O 0.43721 0.19561 0.12245 0.0
O473 O 0.52939 0.13127 0.09904 0.0
O474 O 0.41294 0.15588 0.13607 0.0
C475 C 0.72565 0.14026 0.02776 0.0
C476 C 0.52884 0.14193 0.91162 0.0
C477 C 0.62396 0.07442 0.99778 0.0
C478 C 0.65465 0.04794 0.01856 0.0
C479 C 0.82317 0.06253 0.99203 0.0
C480 C 0.74659 0.07527 0.98696 0.0
C481 C 0.77773 0.04894 0.00765 0.0
C482 C 0.57842 0.06082 0.0137 0.0
C483 C 0.53934 0.08689 0.98974 0.0
C484 C 0.05567 0.08172 0.89312 0.0
C485 C 0.11038 0.07762 0.83042 0.0
H486 H 0.97431 0.09268 0.02168 0.0
C487 C 0.25266 0.14531 0.02801 0.0
C488 C 0.46972 0.14343 0.14701 0.0
C489 C 0.32231 0.21033 0.06894 0.0
C490 C 0.25835 0.23658 0.05311 0.0
C491 C 0.12586 0.22272 0.10574 0.0
C492 C 0.21248 0.21002 0.09932 0.0
C493 C 0.14808 0.23581 0.08243 0.0
C494 C 0.34513 0.22366 0.04584 0.0
C495 C 0.41906 0.19821 0.06774 0.0
H496 H 0.91782 0.06294 0.9827 0.0
H497 H 0.78208 0.08558 0.9737 0.0
H498 H 0.83847 0.039 0.00956 0.0
H499 H 0.48312 0.06019 0.02174 0.0
H500 H 0.04128 0.22271 0.12962 0.0
H501 H 0.19481 0.2001 0.11879 0.0
H502 H 0.08018 0.24566 0.0892 0.0
H503 H 0.43104 0.22417 0.02354 0.0
C504 C 0.78519 0.09347 0.37309 0.0
C505 C 0.95159 0.08848 0.43623 0.0
C506 C 0.83866 0.09582 0.43455 0.0
C507 C 1.01015 0.07871 0.37555 0.0
C508 C 0.84422 0.08367 0.31222 0.0
C509 C 0.95672 0.07631 0.31383 0.0
N510 N 0.67589 0.10071 0.37285 0.0
C511 C 0.61949 0.09823 0.31367 0.0
C512 C 0.78818 0.08146 0.25141 0.0
C513 C 0.6753 0.08873 0.25218 0.0
Gd514 Gd 0.59147 0.16708 0.56677 0.0
Gd515 Gd 0.58983 0.11469 0.47946 0.0
N516 N 0.78201 0.10583 0.49276 0.0
C517 C 1.00262 0.09136 0.49899 0.0
C518 C 0.82898 0.1082 0.55384 0.0
C519 C 0.94086 0.1012 0.55802 0.0
H520 H 0.77997 0.11557 0.59893 0.0
H521 H 0.97909 0.10332 0.60663 0.0
H522 H 0.40376 0.17026 0.45221 0.0
H523 H 0.52999 0.10307 0.31339 0.0
H524 H 0.21221 0.18474 0.44899 0.0
H525 H 0.08935 0.08602 0.50257 0.0
H526 H 0.09706 0.07299 0.37569 0.0
H527 H 0.67088 0.18115 0.72956 0.0
H528 H 0.83068 0.07401 0.2036 0.0
H529 H 0.63047 0.0868 0.20535 0.0
H530 H 0.11482 0.21662 0.68201 0.0
H531 H 1.00322 0.06872 0.26753 0.0
H532 H 0.39108 0.21408 0.84772 0.0
H533 H 0.5873 0.19969 0.84041 0.0
N534 N 0.51905 0.18387 0.67487 0.0
C535 C 0.41227 0.19195 0.67763 0.0
C536 C 0.58312 0.18684 0.73219 0.0
C537 C 0.42602 0.20563 0.79896 0.0
C538 C 0.53684 0.19754 0.79507 0.0
C539 C 0.36309 0.20311 0.7398 0.0
H540 H 0.21567 0.22042 0.78815 0.0
N541 N 0.40679 0.17936 0.55868 0.0
C542 C 0.35576 0.18995 0.61778 0.0
C543 C 0.19502 0.19664 0.55699 0.0
C544 C 0.24808 0.19883 0.61852 0.0
C545 C 0.35884 0.17786 0.4986 0.0
C546 C 0.25112 0.1862 0.49677 0.0
O547 O 0.7618 0.12961 0.47597 0.0
O548 O 0.76135 0.15356 0.57516 0.0
O549 O 0.64674 0.18348 0.51378 0.0
O550 O 0.70055 0.19007 0.61673 0.0
O551 O 0.54582 0.12717 0.59111 0.0
O552 O 0.65062 0.15311 0.63252 0.0
O553 O 0.40702 0.15459 0.56272 0.0
O554 O 0.40142 0.12553 0.48517 0.0
O555 O 0.56512 0.09569 0.52464 0.0
O556 O 0.51816 0.08896 0.41962 0.0
O557 O 0.6198 0.15227 0.4544 0.0
O558 O 0.50077 0.12793 0.41852 0.0
C559 C 0.8198 0.14216 0.5243 0.0
C560 C 0.59121 0.14059 0.64144 0.0
C561 C 0.66174 0.21374 0.58541 0.0
C562 C 0.68328 0.2413 0.5713 0.0
C563 C 0.55977 0.24001 0.66108 0.0
C564 C 0.58813 0.22239 0.64145 0.0
C565 C 0.60755 0.24947 0.62649 0.0
C566 C 0.70858 0.2233 0.54981 0.0
C567 C 0.69586 0.19521 0.56728 0.0
C568 C 0.19768 0.20971 0.68039 0.0
C569 C 0.25492 0.21182 0.74086 0.0
H570 H 0.11195 0.20319 0.55543 0.0
C571 C 0.34845 0.1401 0.526 0.0
C572 C 0.54466 0.14162 0.41054 0.0
C573 C 0.45217 0.06948 0.46945 0.0
C574 C 0.43445 0.04117 0.47832 0.0
C575 C 0.2604 0.05487 0.45163 0.0
C576 C 0.33017 0.06906 0.45437 0.0
C577 C 0.31197 0.041 0.46336 0.0
C578 C 0.50374 0.05562 0.482 0.0
C579 C 0.53033 0.08349 0.46805 0.0
H580 H 0.5028 0.24645 0.70427 0.0
H581 H 0.55508 0.21575 0.67162 0.0
H582 H 0.58673 0.26327 0.64332 0.0
H583 H 0.7676 0.21697 0.50736 0.0
H584 H 0.16609 0.05453 0.43998 0.0
H585 H 0.2896 0.07959 0.44416 0.0
H586 H 0.2559 0.03019 0.46124 0.0
H587 H 0.59865 0.05585 0.49276 0.0
C588 C 0.65014 0.83756 0.34557 0.0
C589 C 0.83797 0.83344 0.39418 0.0
C590 C 0.72225 0.84052 0.40181 0.0
C591 C 0.88237 0.82389 0.32914 0.0
C592 C 0.69216 0.82717 0.28063 0.0
C593 C 0.80944 0.82063 0.27264 0.0
N594 N 0.53677 0.84401 0.35479 0.0
C595 C 0.45844 0.83976 0.3022 0.0
C596 C 0.61427 0.8234 0.22582 0.0
C597 C 0.49646 0.82953 0.23678 0.0
Gd598 Gd 0.48061 0.91314 0.55746 0.0
Gd599 Gd 0.4874 0.86123 0.46622 0.0
N600 N 0.67864 0.85024 0.46425 0.0
C601 C 0.90492 0.8362 0.4524 0.0
C602 C 0.73776 0.85125 0.52087 0.0
C603 C 0.85358 0.84466 0.51591 0.0
H604 H 0.69657 0.85766 0.56949 0.0
H605 H 0.90336 0.84619 0.56085 0.0
H606 H 0.26541 0.91467 0.4545 0.0
H607 H 0.36704 0.84437 0.31084 0.0
H608 H 0.06197 0.92721 0.46286 0.0
H609 H 0.99535 0.83166 0.44929 0.0
H610 H 0.97274 0.81892 0.32166 0.0
H611 H 0.58409 0.92578 0.71776 0.0
H612 H 0.6434 0.81547 0.17509 0.0
H613 H 0.43507 0.82639 0.1949 0.0
H614 H 0.98295 0.95221 0.70032 0.0
H615 H 0.84423 0.81287 0.223 0.0
H616 H 0.29475 0.95054 0.84999 0.0
H617 H 0.50377 0.94002 0.83253 0.0
N618 N 0.41843 0.92658 0.66994 0.0
C619 C 0.30446 0.93284 0.6784 0.0
C620 C 0.49107 0.92957 0.72432 0.0
C621 C 0.32852 0.9439 0.79926 0.0
C622 C 0.44654 0.93795 0.78964 0.0
C623 C 0.25658 0.94168 0.7434 0.0
H624 H 0.10138 0.95516 0.80026 0.0
N625 N 0.28353 0.92221 0.55964 0.0
C626 C 0.23645 0.931 0.62189 0.0
C627 C 0.05756 0.93665 0.57112 0.0
C628 C 0.12075 0.93819 0.62917 0.0
C629 C 0.22473 0.92131 0.5031 0.0
C630 C 0.11 0.92831 0.50785 0.0
O631 O 0.66718 0.87496 0.47106 0.0
O632 O 0.67272 0.90362 0.55092 0.0
O633 O 0.495 0.93104 0.50658 0.0
O634 O 0.54262 0.93972 0.61214 0.0
O635 O 0.46636 0.87526 0.57927 0.0
O636 O 0.57998 0.89997 0.61541 0.0
O637 O 0.3119 0.89667 0.55412 0.0
O638 O 0.30938 0.87239 0.45446 0.0
O639 O 0.40097 0.84857 0.52655 0.0
O640 O 0.4518 0.83358 0.42333 0.0
O641 O 0.51865 0.90133 0.4455 0.0
O642 O 0.42315 0.87454 0.39923 0.0
C643 C 0.72565 0.8894 0.50773 0.0
C644 C 0.54201 0.88589 0.62241 0.0
C645 C 0.61184 0.95698 0.55407 0.0
C646 C 0.6394 0.98375 0.53449 0.0
C647 C 0.8073 0.97052 0.56881 0.0
C648 C 0.73305 0.95719 0.57047 0.0
C649 C 0.7608 0.98379 0.55138 0.0
C650 C 0.56551 0.9702 0.53569 0.0
C651 C 0.52917 0.94408 0.56093 0.0
C652 C 0.07223 0.94672 0.6938 0.0
C653 C 0.13969 0.94838 0.75071 0.0
H654 H 0.96867 0.94192 0.57462 0.0
C655 C 0.25265 0.88467 0.50391 0.0
C656 C 0.47303 0.88827 0.39393 0.0
C657 C 0.31123 0.82035 0.4678 0.0
C658 C 0.24751 0.79317 0.4755 0.0
C659 C 0.13954 0.80453 0.40434 0.0
C660 C 0.21794 0.81873 0.42238 0.0
C661 C 0.15299 0.79198 0.43134 0.0
C662 C 0.32591 0.80752 0.49426 0.0
C663 C 0.40718 0.83311 0.47774 0.0
H664 H 0.90084 0.97075 0.58199 0.0
H665 H 0.76887 0.94725 0.58579 0.0
H666 H 0.81963 0.99408 0.55098 0.0
H667 H 0.47094 0.97026 0.52456 0.0
H668 H 0.06906 0.80298 0.36837 0.0
H669 H 0.20787 0.82814 0.39953 0.0
H670 H 0.09236 0.78093 0.41555 0.0
H671 H 0.40097 0.80831 0.5272 0.0
C672 C 0.54349 0.37912 0.94458 0.0
C673 C 0.47595 0.38667 0.00421 0.0
C674 C 0.66916 0.38104 0.94442 0.0
C675 C 0.73386 0.39056 0.00382 0.0
H676 H 0.49883 0.3719 0.89721 0.0
H677 H 0.71614 0.37499 0.89705 0.0
S678 S 0.6025 0.41144 0.17473 0.0
N679 N 0.48631 0.40298 0.12541 0.0
N680 N 0.71997 0.40684 0.12461 0.0
C681 C 0.66769 0.39797 0.06387 0.0
C682 C 0.54001 0.39589 0.06421 0.0
C683 C 0.44822 0.62998 0.95898 0.0
C684 C 0.38055 0.63959 0.01684 0.0
C685 C 0.57453 0.63121 0.95872 0.0
C686 C 0.6395 0.64193 0.01652 0.0
H687 H 0.40326 0.62175 0.91297 0.0
H688 H 0.62147 0.62373 0.91248 0.0
S689 S 0.50546 0.66785 0.18375 0.0
N690 N 0.38942 0.65906 0.13501 0.0
N691 N 0.62372 0.66096 0.13494 0.0
C692 C 0.57239 0.65106 0.07516 0.0
C693 C 0.44429 0.64996 0.07525 0.0
C694 C 0.63959 0.64686 0.48113 0.0
C695 C 0.70537 0.63792 0.51358 0.0
C696 C 0.51352 0.6482 0.48516 0.0
C697 C 0.44661 0.63994 0.51927 0.0
H698 H 0.68575 0.65267 0.45138 0.0
H699 H 0.46794 0.65539 0.45986 0.0
S700 S 0.57064 0.61319 0.60638 0.0
N701 N 0.68964 0.61949 0.57689 0.0
N702 N 0.45467 0.62184 0.58349 0.0
C703 C 0.51004 0.63032 0.54933 0.0
C704 C 0.63837 0.62922 0.54629 0.0
C705 C 0.53551 0.39871 0.5588 0.0
C706 C 0.6027 0.38727 0.50358 0.0
C707 C 0.40915 0.39961 0.55676 0.0
C708 C 0.34288 0.38878 0.5 0.0
H709 H 0.58071 0.40709 0.60439 0.0
H710 H 0.36294 0.40863 0.60076 0.0
S711 S 0.47307 0.3567 0.34128 0.0
N712 N 0.59038 0.36502 0.38961 0.0
N713 N 0.35559 0.36651 0.38654 0.0
C714 C 0.40863 0.37723 0.4447 0.0
C715 C 0.53714 0.37648 0.44635 0.0
C716 C 1.02746 0.89574 0.06963 0.0
C717 C 0.96286 0.88672 0.00952 0.0
C718 C 0.1534 0.89776 0.06999 0.0
C719 C 0.22127 0.89043 0.01048 0.0
H720 H 0.98037 0.90127 0.11708 0.0
H721 H 0.19823 0.9047 0.11757 0.0
S722 S 0.09764 0.86609 0.83929 0.0
N723 N 0.97885 0.87098 0.8884 0.0
N724 N 0.21334 0.87398 0.88969 0.0
C725 C 0.15814 0.88125 0.95033 0.0
C726 C 1.03012 0.87953 0.9497 0.0
C727 C 0.05059 0.15232 0.08602 0.0
C728 C 0.11798 0.14444 0.02649 0.0
C729 C 0.92487 0.15062 0.08625 0.0
C730 C 0.86019 0.14097 0.02707 0.0
H731 H 0.09536 0.15968 0.13322 0.0
H732 H 0.87795 0.15697 0.13343 0.0
S733 S 0.99143 0.11933 0.85646 0.0
N734 N 0.10778 0.1278 0.90559 0.0
N735 N 0.87398 0.12419 0.90662 0.0
C736 C 0.92632 0.13321 0.96718 0.0
C737 C 0.05402 0.13511 0.96671 0.0
C738 C 0.14694 0.13033 0.46955 0.0
C739 C 0.21376 0.14071 0.52683 0.0
C740 C 1.02076 0.13115 0.46848 0.0
C741 C 0.95469 0.14205 0.52517 0.0
H742 H 0.19251 0.1217 0.4245 0.0
H743 H 0.97485 0.12318 0.42251 0.0
S744 S 0.0853 0.17144 0.68875 0.0
N745 N 0.20238 0.16209 0.64203 0.0
N746 N 0.96762 0.16338 0.6406 0.0
C747 C 1.02053 0.15244 0.58274 0.0
C748 C 0.14886 0.15179 0.58348 0.0
C749 C 0.92837 0.8962 0.56454 0.0
C750 C 0.85986 0.88858 0.50532 0.0
C751 C 0.05409 0.89444 0.56389 0.0
C752 C 0.11781 0.88527 0.50383 0.0
H753 H 0.88434 0.90328 0.61219 0.0
H754 H 0.10172 0.90036 0.61115 0.0
S755 S 0.98114 0.86373 0.33416 0.0
N756 N 0.86598 0.87194 0.3845 0.0
N757 N 0.10063 0.86879 0.38305 0.0
C758 C 0.05004 0.87764 0.44423 0.0
C759 C 0.92202 0.87932 0.44501 0.0
C760 C 0.96672 0.52021 0.95663 0.0
C761 C 0.08126 0.5272 0.97711 0.0
C762 C 0.92142 0.50701 0.97515 0.0
C763 C 0.98865 0.50045 0.01533 0.0
H764 H 0.91372 0.5245 0.92398 0.0
H765 H 0.83449 0.50155 0.95614 0.0
S766 S 0.28804 0.51626 0.08884 0.0
N767 N 0.25747 0.52771 0.0434 0.0
N768 N 0.17152 0.50339 0.08036 0.0
C769 C 0.10139 0.508 0.0386 0.0
C770 C 0.14776 0.52127 0.01904 0.0
C771 C 0.17581 0.51324 0.52203 0.0
C772 C 0.08311 0.50179 0.52258 0.0
C773 C 0.16458 0.5242 0.48692 0.0
C774 C 0.06057 0.52408 0.45044 0.0
H775 H 0.25821 0.51378 0.54919 0.0
H776 H 0.23825 0.53274 0.48786 0.0
S777 S 0.7919 0.49671 0.43403 0.0
N778 N 0.88287 0.49123 0.48284 0.0
N779 N 0.86379 0.51156 0.41545 0.0
C780 C 0.96779 0.51262 0.44939 0.0
C781 C 0.97867 0.5015 0.48555 0.0
C782 C 0.45833 1.00948 0.00616 0.0
C783 C 0.50964 1.00391 0.05374 0.0
C784 C 0.50527 0.02379 0.9954 0.0
C785 C 0.60488 0.0331 0.0321 0.0
H786 H 0.38226 1.00259 0.97645 0.0
H787 H 0.4643 0.02743 0.95735 0.0
S788 S 0.76417 0.02479 0.16719 0.0
N789 N 0.66099 1.00937 0.1405 0.0
N790 N 0.74784 0.03644 0.12111 0.0
C791 C 0.65528 0.02788 0.08083 0.0
C792 C 0.60806 1.01324 0.09142 0.0
C793 C 0.55866 0.02954 0.54847 0.0
C794 C 0.48954 0.02634 0.49032 0.0
C795 C 0.60751 0.01572 0.56211 0.0
C796 C 0.58911 0.99817 0.51811 0.0
H797 H 0.57311 0.04283 0.5844 0.0
H798 H 0.65827 0.01878 0.60808 0.0
S799 S 0.42638 0.98282 0.35546 0.0
N800 N 0.41336 1.00434 0.38586 0.0
N801 N 0.50409 0.9784 0.41189 0.0
C802 C 0.52266 0.9948 0.45907 0.0
C803 C 0.47331 1.00886 0.44505 0.0
C804 C 0.21659 0.27056 0.97832 0.0
C805 C 0.31749 0.28132 1.00186 0.0
C806 C 0.19956 0.25589 0.99392 0.0
C807 C 0.2828 0.25147 0.0336 0.0
H808 H 0.15177 0.27328 0.9464 0.0
H809 H 0.12094 0.24787 0.97449 0.0
S810 S 0.55625 0.27635 0.1122 0.0
N811 N 0.49811 0.28719 0.06976 0.0
N812 N 0.46607 0.25962 0.09922 0.0
C813 C 0.38301 0.2623 0.0583 0.0
C814 C 0.40019 0.27724 0.04252 0.0
C815 C 0.89836 0.77142 0.02234 0.0
C816 C 0.8043 0.77806 0.99588 0.0
C817 C 0.88361 0.75633 0.03541 0.0
C818 C 0.77403 0.74737 0.0228 0.0
H819 H 0.98449 0.7779 0.03258 0.0
H820 H 0.95809 0.75175 0.05618 0.0
S821 S 0.50114 0.75884 0.9514 0.0
N822 N 0.59862 0.77416 0.95591 0.0
N823 N 0.57067 0.7459 0.98131 0.0
C824 C 0.67902 0.75388 0.9968 0.0
C825 C 0.69407 0.76922 0.98328 0.0
C826 C 0.19 0.75844 0.54399 0.0
C827 C 0.2983 0.74908 0.53102 0.0
C828 C 0.17517 0.77294 0.5272 0.0
C829 C 0.26826 0.77862 0.49716 0.0
H830 H 0.11686 0.75469 0.56826 0.0
H831 H 0.09039 0.77982 0.53792 0.0
S832 S 0.56513 0.75765 0.44731 0.0
N833 N 0.49722 0.74581 0.48258 0.0
N834 N 0.46967 0.77322 0.45154 0.0
C835 C 0.37634 0.76925 0.4831 0.0
C836 C 0.3912 0.75442 0.49984 0.0
C837 C 0.74578 0.26152 0.44553 0.0
C838 C 0.8228 0.2755 0.4817 0.0
C839 C 0.70409 0.25 0.47368 0.0
C840 C 0.73827 0.25211 0.53887 0.0
H841 H 0.71696 0.25955 0.39519 0.0
H842 H 0.64275 0.23967 0.445 0.0
S843 S 0.9484 0.28516 0.65124 0.0
N844 N 0.93869 0.28983 0.58386 0.0
N845 N 0.85909 0.26829 0.63709 0.0
C846 C 0.81728 0.26571 0.57487 0.0
C847 C 0.85976 0.27742 0.54627 0.0
C848 C 0.95962 0.39868 0.22826 0.0
C849 C 0.04379 0.38753 0.18342 0.0
C850 C 0.94209 0.39876 0.29243 0.0
C851 C 1.00379 0.38712 0.31378 0.0
H852 H 0.90732 0.40768 0.21426 0.0
H853 H 0.88034 0.40823 0.32512 0.0
S854 S 0.24275 0.35642 0.21887 0.0
N855 N 0.19623 0.36533 0.16718 0.0
N856 N 0.16046 0.36526 0.28741 0.0
C857 C 0.08913 0.376 0.26998 0.0
C858 C 0.10907 0.37615 0.20482 0.0
C859 C 1.03695 0.65471 0.25923 0.0
C860 C 1.02173 0.63963 0.20019 0.0
C861 C 0.04921 0.65363 0.32202 0.0
C862 C 0.04237 0.63746 0.32856 0.0
H863 H 0.04329 0.66738 0.2568 0.0
H864 H 0.06389 0.66561 0.36575 0.0
S865 S 0.99919 0.59399 0.18895 0.0
N866 N 1.00312 0.60791 0.15185 0.0
N867 N 1.01403 0.60601 0.2701 0.0
C868 C 1.02342 0.62229 0.26995 0.0
C869 C 1.01661 0.62333 0.20575 0.0
C870 C 0.15554 0.65042 0.81648 0.0
C871 C 0.0534 0.64414 0.8376 0.0
C872 C 0.16354 0.64972 0.75038 0.0
C873 C 0.06908 0.64293 0.70409 0.0
H874 H 0.23108 0.65523 0.85016 0.0
H875 H 0.24496 0.65411 0.73494 0.0
S876 S 0.77728 0.62697 0.73911 0.0
N877 N 0.85317 0.63236 0.80972 0.0
N878 N 0.86653 0.63131 0.68705 0.0
C879 C 0.96477 0.63742 0.72635 0.0
C880 C 0.9573 0.638 0.79276 0.0
C881 C 0.98368 0.37753 0.70863 0.0
C882 C 0.04297 0.38913 0.68594 0.0
C883 C 1.0071 0.3776 0.77272 0.0
C884 C 0.09338 0.38878 0.81572 0.0
H885 H 0.91654 0.36862 0.67746 0.0
H886 H 0.95411 0.36926 0.78959 0.0
S887 S 0.26579 0.42277 0.78379 0.0
N888 N 0.18853 0.41275 0.71411 0.0
N889 N 0.22857 0.41296 0.83395 0.0
C890 C 0.15024 0.40076 0.79466 0.0
C891 C 0.12704 0.40076 0.72969 0.0
C892 C 0.56507 0.87563 0.21158 0.0
C893 C 0.52178 0.88955 0.19611 0.0
C894 C 0.54846 0.87532 0.27543 0.0
C895 C 0.48624 0.88871 0.32634 0.0
H896 H 0.61454 0.86496 0.17461 0.0
H897 H 0.58919 0.86487 0.28572 0.0
S898 S 0.35856 0.92853 0.31432 0.0
N899 N 0.41423 0.91732 0.23881 0.0
N900 N 0.38702 0.91677 0.35877 0.0
C901 C 0.44442 0.90285 0.31241 0.0
C902 C 0.46025 0.90319 0.24725 0.0
C903 C 0.3933 0.14025 0.25057 0.0
C904 C 0.48636 0.14469 0.21669 0.0
C905 C 0.41312 0.13921 0.31319 0.0
C906 C 0.52558 0.14314 0.34506 0.0
H907 H 0.30551 0.13709 0.22789 0.0
H908 H 0.33972 0.13537 0.33704 0.0
S909 S 0.79685 0.15627 0.27808 0.0
N910 N 0.69426 0.1532 0.21947 0.0
N911 N 0.73013 0.15223 0.3385 0.0
C912 C 0.61811 0.1482 0.31255 0.0
C913 C 0.59882 0.14871 0.248 0.0
C914 C 0.64214 0.13339 0.8029 0.0
C915 C 0.5445 0.14208 0.84345 0.0
C916 C 0.65826 0.13322 0.73814 0.0
C917 C 0.57594 0.1414 0.71078 0.0
H918 H 0.70714 0.12673 0.82138 0.0
H919 H 0.73552 0.12655 0.70955 0.0
S920 S 0.30296 0.16532 0.79467 0.0
N921 N 0.3639 0.15898 0.8508 0.0
N922 N 0.39183 0.15801 0.72838 0.0
C923 C 0.47752 0.14996 0.75034 0.0
C924 C 0.46239 0.15047 0.81679 0.0
C925 C 0.6608 0.88133 0.7126 0.0
C926 C 0.5517 0.88544 0.68983 0.0
C927 C 0.67066 0.88097 0.77696 0.0
C928 C 0.57309 0.8855 0.82168 0.0
H929 H 0.73904 0.8784 0.68062 0.0
H930 H 0.75631 0.87779 0.79274 0.0
S931 S 0.26985 0.8981 0.78677 0.0
N932 N 0.34438 0.89393 0.71625 0.0
N933 N 0.36532 0.89477 0.83893 0.0
C934 C 0.46437 0.88995 0.79963 0.0
C935 C 0.45305 0.88956 0.73328 0.0
loop_
_geom_bond_atom_site_label_1
_geom_bond_atom_site_label_2
_geom_bond_distance
_geom_bond_site_symmetry_2
_ccdc_geom_bond_type
C0 C2 1.422 . S
C0 C4 1.415 . S
C0 N6 1.369 . S
C1 C2 1.421 . S
C1 C3 1.417 . S
C1 C13 1.422 . S
C2 C0 1.422 . S
C2 C1 1.421 . S
C2 N12 1.359 . S
C3 C1 1.417 . S
C3 C5 1.329 . S
C3 H22 0.930 . S
C4 C0 1.415 . S
C4 C5 1.437 . S
C4 C8 1.413 . S
C5 C3 1.329 . S
C5 C4 1.437 . S
C5 H27 0.929 . S
N6 C0 1.369 . S
N6 C7 1.338 . S
N6 Gd11 2.622 . S
C7 N6 1.338 . S
C7 C9 1.378 . S
C7 H19 0.929 . S
C8 C4 1.413 . S
C8 C9 1.348 . S
C8 H24 0.931 . S
C9 C7 1.378 . S
C9 C8 1.348 . S
C9 H25 0.930 . S
Gd10 N30 2.622 1_455 S
Gd10 N37 2.570 1_455 S
Gd10 O44 2.353 . S
Gd10 O45 2.468 1_556 S
Gd10 O46 2.427 . S
Gd10 O48 2.388 . S
Gd10 O49 2.386 1_455 S
Gd10 O53 2.307 1_556 S
Gd10 C63 2.805 . S
Gd11 N6 2.622 . S
Gd11 N12 2.570 . S
Gd11 O43 2.386 . S
Gd11 O47 2.307 1_554 S
Gd11 O50 2.353 1_455 S
Gd11 O51 2.468 . S
Gd11 O52 2.427 1_455 S
Gd11 O54 2.388 . S
Gd11 C75 2.805 1_455 S
N12 C2 1.359 . S
N12 Gd11 2.570 . S
N12 C14 1.343 1_554 S
C13 C1 1.422 . S
C13 C15 1.321 1_554 S
C13 H21 0.931 1_554 S
C14 N12 1.343 1_556 S
C14 C15 1.390 . S
C14 H16 0.931 . S
C15 C13 1.321 1_556 S
C15 C14 1.390 . S
C15 H17 0.930 . S
H16 C14 0.931 . S
H17 C15 0.930 . S
H18 C41 0.931 . S
H19 C7 0.929 . S
H20 C42 0.930 . S
H21 C13 0.931 1_556 S
H22 C3 0.930 . S
H23 C32 0.929 . S
H24 C8 0.931 . S
H25 C9 0.930 . S
H26 C64 0.930 . S
H27 C5 0.929 . S
H28 C33 0.931 . S
H29 C34 0.930 . S
N30 Gd10 2.622 1_655 S
N30 C31 1.369 . S
N30 C32 1.338 . S
C31 N30 1.369 . S
C31 C35 1.415 . S
C31 C38 1.422 . S
C32 H23 0.929 . S
C32 N30 1.338 . S
C32 C34 1.378 . S
C33 H28 0.931 . S
C33 C34 1.348 . S
C33 C35 1.413 . S
C34 H29 0.930 . S
C34 C32 1.378 . S
C34 C33 1.348 . S
C35 C31 1.415 . S
C35 C33 1.413 . S
C35 C65 1.437 . S
H36 C65 0.929 . S
N37 Gd10 2.570 1_655 S
N37 C38 1.359 . S
N37 C41 1.343 1_556 S
C38 C31 1.422 . S
C38 N37 1.359 . S
C38 C40 1.421 . S
C39 C40 1.422 1_554 S
C39 C42 1.321 . S
C39 H66 0.931 . S
C40 C38 1.421 . S
C40 C39 1.422 1_556 S
C40 C64 1.417 . S
C41 H18 0.931 . S
C41 N37 1.343 1_554 S
C41 C42 1.390 . S
C42 H20 0.930 . S
C42 C39 1.321 . S
C42 C41 1.390 . S
O43 Gd11 2.386 . S
O43 C55 1.265 . S
O44 Gd10 2.353 . S
O44 C55 1.242 1_556 S
O45 Gd10 2.468 1_554 S
O45 C63 1.263 1_554 S
O46 Gd10 2.427 . S
O46 C63 1.252 . S
O47 Gd11 2.307 1_556 S
O47 C56 1.261 . S
O48 Gd10 2.388 . S
O48 C56 1.252 . S
O49 Gd10 2.386 1_655 S
O49 C67 1.265 1_556 S
O50 Gd11 2.353 1_655 S
O50 C67 1.242 . S
O51 Gd11 2.468 . S
O51 C75 1.263 1_455 S
O52 Gd11 2.427 1_655 S
O52 C75 1.252 . S
O53 Gd10 2.307 1_554 S
O53 C68 1.261 . S
O54 Gd11 2.388 . S
O54 C68 1.252 . S
C55 O43 1.265 . S
C55 O44 1.242 1_554 S
C56 O47 1.261 . S
C56 O48 1.252 . S
C57 C60 1.394 . S
C57 C62 1.370 . S
C57 C63 1.500 . S
C58 C61 1.383 . S
C58 C62 1.395 . S
C59 C60 1.396 . S
C59 C61 1.365 . S
C59 H76 0.929 . S
C60 C57 1.394 . S
C60 C59 1.396 . S
C60 H77 0.930 . S
C61 C58 1.383 . S
C61 C59 1.365 . S
C61 H78 0.931 . S
C62 C57 1.370 . S
C62 C58 1.395 . S
C62 H79 0.930 1_556 S
C63 Gd10 2.805 . S
C63 O45 1.263 1_556 S
C63 O46 1.252 . S
C63 C57 1.500 . S
C64 H26 0.930 . S
C64 C40 1.417 . S
C64 C65 1.329 . S
C65 C35 1.437 . S
C65 H36 0.929 . S
C65 C64 1.329 . S
H66 C39 0.931 . S
C67 O49 1.265 1_554 S
C67 O50 1.242 . S
C68 O53 1.261 . S
C68 O54 1.252 . S
C69 C72 1.394 . S
C69 C74 1.370 . S
C69 C75 1.500 . S
C70 C73 1.383 . S
C70 C74 1.395 . S
C71 C72 1.396 . S
C71 C73 1.365 . S
C71 H80 0.929 . S
C72 C69 1.394 . S
C72 C71 1.396 . S
C72 H81 0.930 . S
C73 C70 1.383 . S
C73 C71 1.365 . S
C73 H82 0.931 . S
C74 C69 1.370 . S
C74 C70 1.395 . S
C74 H83 0.930 1_554 S
C75 Gd11 2.805 1_655 S
C75 O51 1.263 1_655 S
C75 O52 1.252 . S
C75 C69 1.500 . S
H76 C59 0.929 . S
H77 C60 0.930 . S
H78 C61 0.931 . S
H79 C62 0.930 1_554 S
H80 C71 0.929 . S
H81 C72 0.930 . S
H82 C73 0.931 . S
H83 C74 0.930 1_556 S
C84 C86 1.422 . S
C84 C88 1.415 . S
C84 N90 1.369 . S
C85 C86 1.421 . S
C85 C87 1.417 . S
C85 C97 1.422 . S
C86 C84 1.422 . S
C86 C85 1.421 . S
C86 N96 1.359 . S
C87 C85 1.417 . S
C87 C89 1.329 . S
C87 H106 0.930 . S
C88 C84 1.415 . S
C88 C89 1.437 . S
C88 C92 1.413 . S
C89 C87 1.329 . S
C89 C88 1.437 . S
C89 H111 0.929 . S
N90 C84 1.369 . S
N90 C91 1.338 . S
N90 Gd95 2.622 1_455 S
C91 N90 1.338 . S
C91 C93 1.378 . S
C91 H103 0.929 . S
C92 C88 1.413 . S
C92 C93 1.348 . S
C92 H108 0.931 . S
C93 C91 1.378 . S
C93 C92 1.348 . S
C93 H109 0.930 . S
Gd94 N114 2.622 . S
Gd94 N121 2.570 . S
Gd94 O128 2.353 1_655 S
Gd94 O129 2.468 1_556 S
Gd94 O130 2.427 1_655 S
Gd94 O132 2.388 . S
Gd94 O133 2.386 . S
Gd94 O137 2.307 1_556 S
Gd94 C147 2.805 1_655 S
Gd95 N90 2.622 1_655 S
Gd95 N96 2.570 1_655 S
Gd95 O127 2.386 1_655 S
Gd95 O131 2.307 1_554 S
Gd95 O134 2.353 . S
Gd95 O135 2.468 . S
Gd95 O136 2.427 . S
Gd95 O138 2.388 . S
Gd95 C159 2.805 . S
N96 C86 1.359 . S
N96 Gd95 2.570 1_455 S
N96 C98 1.343 1_554 S
C97 C85 1.422 . S
C97 C99 1.321 1_554 S
C97 H105 0.931 1_554 S
C98 N96 1.343 1_556 S
C98 C99 1.390 . S
C98 H100 0.931 . S
C99 C97 1.321 1_556 S
C99 C98 1.390 . S
C99 H101 0.930 . S
H100 C98 0.931 . S
H101 C99 0.930 . S
H102 C125 0.931 . S
H103 C91 0.929 . S
H104 C126 0.930 . S
H105 C97 0.931 1_556 S
H106 C87 0.930 . S
H107 C116 0.929 . S
H108 C92 0.931 . S
H109 C93 0.930 . S
H110 C148 0.930 . S
H111 C89 0.929 . S
H112 C117 0.931 . S
H113 C118 0.930 . S
N114 Gd94 2.622 . S
N114 C115 1.369 . S
N114 C116 1.338 . S
C115 N114 1.369 . S
C115 C119 1.415 . S
C115 C122 1.422 . S
C116 H107 0.929 . S
C116 N114 1.338 . S
C116 C118 1.378 . S
C117 H112 0.931 . S
C117 C118 1.348 . S
C117 C119 1.413 . S
C118 H113 0.930 . S
C118 C116 1.378 . S
C118 C117 1.348 . S
C119 C115 1.415 . S
C119 C117 1.413 . S
C119 C149 1.437 . S
H120 C149 0.929 . S
N121 Gd94 2.570 . S
N121 C122 1.359 . S
N121 C125 1.343 1_556 S
C122 C115 1.422 . S
C122 N121 1.359 . S
C122 C124 1.421 . S
C123 C124 1.422 1_554 S
C123 C126 1.321 . S
C123 H150 0.931 . S
C124 C122 1.421 . S
C124 C123 1.422 1_556 S
C124 C148 1.417 . S
C125 H102 0.931 . S
C125 N121 1.343 1_554 S
C125 C126 1.390 . S
C126 H104 0.930 . S
C126 C123 1.321 . S
C126 C125 1.390 . S
O127 Gd95 2.386 1_455 S
O127 C139 1.265 . S
O128 Gd94 2.353 1_455 S
O128 C139 1.242 1_556 S
O129 Gd94 2.468 1_554 S
O129 C147 1.263 1_654 S
O130 Gd94 2.427 1_455 S
O130 C147 1.252 . S
O131 Gd95 2.307 1_556 S
O131 C140 1.261 . S
O132 Gd94 2.388 . S
O132 C140 1.252 . S
O133 Gd94 2.386 . S
O133 C151 1.265 1_556 S
O134 Gd95 2.353 . S
O134 C151 1.242 . S
O135 Gd95 2.468 . S
O135 C159 1.263 . S
O136 Gd95 2.427 . S
O136 C159 1.252 . S
O137 Gd94 2.307 1_554 S
O137 C152 1.261 . S
O138 Gd95 2.388 . S
O138 C152 1.252 . S
C139 O127 1.265 . S
C139 O128 1.242 1_554 S
C140 O131 1.261 . S
C140 O132 1.252 . S
C141 C144 1.394 . S
C141 C146 1.376 . S
C141 C147 1.500 . S
C142 C145 1.383 . S
C142 C146 1.394 . S
C143 C144 1.396 . S
C143 C145 1.365 . S
C143 H160 0.929 . S
C144 C141 1.394 . S
C144 C143 1.396 . S
C144 H161 0.930 . S
C145 C142 1.383 . S
C145 C143 1.365 . S
C145 H162 0.931 . S
C146 C141 1.376 . S
C146 C142 1.394 . S
C146 H163 0.926 1_556 S
C147 Gd94 2.805 1_455 S
C147 O129 1.263 1_456 S
C147 O130 1.252 . S
C147 C141 1.500 . S
C148 H110 0.930 . S
C148 C124 1.417 . S
C148 C149 1.329 . S
C149 C119 1.437 . S
C149 H120 0.929 . S
C149 C148 1.329 . S
H150 C123 0.931 . S
C151 O133 1.265 1_554 S
C151 O134 1.242 . S
C152 O137 1.261 . S
C152 O138 1.252 . S
C153 C156 1.394 . S
C153 C158 1.370 . S
C153 C159 1.500 . S
C154 C157 1.383 . S
C154 C158 1.395 . S
C155 C156 1.396 . S
C155 C157 1.365 . S
C155 H164 0.929 . S
C156 C153 1.394 . S
C156 C155 1.396 . S
C156 H165 0.930 . S
C157 C154 1.383 . S
C157 C155 1.365 . S
C157 H166 0.931 . S
C158 C153 1.370 . S
C158 C154 1.395 . S
C158 H167 0.930 1_554 S
C159 Gd95 2.805 . S
C159 O135 1.263 . S
C159 O136 1.252 . S
C159 C153 1.500 . S
H160 C143 0.929 . S
H161 C144 0.930 . S
H162 C145 0.931 . S
H163 C146 0.926 1_554 S
H164 C155 0.929 . S
H165 C156 0.930 . S
H166 C157 0.931 . S
H167 C158 0.930 1_556 S
C168 C170 1.422 . S
C168 C172 1.415 . S
C168 N174 1.369 . S
C169 C170 1.421 . S
C169 C171 1.417 . S
C169 C181 1.422 . S
C170 C168 1.422 . S
C170 C169 1.421 . S
C170 N180 1.359 . S
C171 C169 1.417 . S
C171 C173 1.329 . S
C171 H190 0.930 . S
C172 C168 1.415 . S
C172 C173 1.437 . S
C172 C176 1.413 . S
C173 C171 1.329 . S
C173 C172 1.437 . S
C173 H195 0.929 . S
N174 C168 1.369 . S
N174 C175 1.338 . S
N174 Gd179 2.622 . S
C175 N174 1.338 . S
C175 C177 1.378 . S
C175 H187 0.929 . S
C176 C172 1.413 . S
C176 C177 1.348 . S
C176 H192 0.931 . S
C177 C175 1.378 . S
C177 C176 1.348 . S
C177 H193 0.930 . S
Gd178 N198 2.622 1_455 S
Gd178 N205 2.570 1_455 S
Gd178 O212 2.353 . S
Gd178 O213 2.468 . S
Gd178 O214 2.427 . S
Gd178 O216 2.388 . S
Gd178 O217 2.386 1_455 S
Gd178 O221 2.307 . S
Gd178 C231 2.805 . S
Gd179 N174 2.622 . S
Gd179 N180 2.570 . S
Gd179 O211 2.386 . S
Gd179 O215 2.307 . S
Gd179 O218 2.353 1_455 S
Gd179 O219 2.468 . S
Gd179 O220 2.427 1_455 S
Gd179 O222 2.388 . S
Gd179 C243 2.805 1_455 S
N180 C170 1.359 . S
N180 Gd179 2.570 . S
N180 C182 1.343 . S
C181 C169 1.422 . S
C181 C183 1.321 . S
C181 H189 0.931 . S
C182 N180 1.343 . S
C182 C183 1.390 . S
C182 H184 0.931 . S
C183 C181 1.321 . S
C183 C182 1.390 . S
C183 H185 0.930 . S
H184 C182 0.931 . S
H185 C183 0.930 . S
H186 C209 0.931 . S
H187 C175 0.929 . S
H188 C210 0.930 . S
H189 C181 0.931 . S
H190 C171 0.930 . S
H191 C200 0.929 . S
H192 C176 0.931 . S
H193 C177 0.930 . S
H194 C232 0.930 . S
H195 C173 0.929 . S
H196 C201 0.931 . S
H197 C202 0.930 . S
N198 Gd178 2.622 1_655 S
N198 C199 1.369 . S
N198 C200 1.338 . S
C199 N198 1.369 . S
C199 C203 1.415 . S
C199 C206 1.422 . S
C200 H191 0.929 . S
C200 N198 1.338 . S
C200 C202 1.378 . S
C201 H196 0.931 . S
C201 C202 1.348 . S
C201 C203 1.413 . S
C202 H197 0.930 . S
C202 C200 1.378 . S
C202 C201 1.348 . S
C203 C199 1.415 . S
C203 C201 1.413 . S
C203 C233 1.437 . S
H204 C233 0.929 . S
N205 Gd178 2.570 1_655 S
N205 C206 1.359 . S
N205 C209 1.343 . S
C206 C199 1.422 . S
C206 N205 1.359 . S
C206 C208 1.421 . S
C207 C208 1.422 . S
C207 C210 1.321 . S
C207 H234 0.931 . S
C208 C206 1.421 . S
C208 C207 1.422 . S
C208 C232 1.417 . S
C209 H186 0.931 . S
C209 N205 1.343 . S
C209 C210 1.390 . S
C210 H188 0.930 . S
C210 C207 1.321 . S
C210 C209 1.390 . S
O211 Gd179 2.386 . S
O211 C223 1.265 . S
O212 Gd178 2.353 . S
O212 C223 1.242 . S
O213 Gd178 2.468 . S
O213 C231 1.263 . S
O214 Gd178 2.427 . S
O214 C231 1.252 . S
O215 Gd179 2.307 . S
O215 C224 1.261 . S
O216 Gd178 2.388 . S
O216 C224 1.252 . S
O217 Gd178 2.386 1_655 S
O217 C235 1.265 . S
O218 Gd179 2.353 1_655 S
O218 C235 1.242 . S
O219 Gd179 2.468 . S
O219 C243 1.263 1_455 S
O220 Gd179 2.427 1_655 S
O220 C243 1.252 . S
O221 Gd178 2.307 . S
O221 C236 1.261 . S
O222 Gd179 2.388 . S
O222 C236 1.252 . S
C223 O211 1.265 . S
C223 O212 1.242 . S
C224 O215 1.261 . S
C224 O216 1.252 . S
C225 C228 1.394 . S
C225 C230 1.370 . S
C225 C231 1.500 . S
C226 C229 1.383 . S
C226 C230 1.395 . S
C227 C228 1.396 . S
C227 C229 1.365 . S
C227 H244 0.929 . S
C228 C225 1.394 . S
C228 C227 1.396 . S
C228 H245 0.930 . S
C229 C226 1.383 . S
C229 C227 1.365 . S
C229 H246 0.931 . S
C230 C225 1.370 . S
C230 C226 1.395 . S
C230 H247 0.930 . S
C231 Gd178 2.805 . S
C231 O213 1.263 . S
C231 O214 1.252 . S
C231 C225 1.500 . S
C232 H194 0.930 . S
C232 C208 1.417 . S
C232 C233 1.329 . S
C233 C203 1.437 . S
C233 H204 0.929 . S
C233 C232 1.329 . S
H234 C207 0.931 . S
C235 O217 1.265 . S
C235 O218 1.242 . S
C236 O221 1.261 . S
C236 O222 1.252 . S
C237 C240 1.394 . S
C237 C242 1.370 . S
C237 C243 1.500 . S
C238 C241 1.383 . S
C238 C242 1.395 . S
C239 C240 1.396 . S
C239 C241 1.365 . S
C239 H248 0.929 . S
C240 C237 1.394 . S
C240 C239 1.396 . S
C240 H249 0.930 . S
C241 C238 1.383 . S
C241 C239 1.365 . S
C241 H250 0.931 . S
C242 C237 1.370 . S
C242 C238 1.395 . S
C242 H251 0.930 . S
C243 Gd179 2.805 1_655 S
C243 O219 1.263 1_655 S
C243 O220 1.252 . S
C243 C237 1.500 . S
H244 C227 0.929 . S
H245 C228 0.930 . S
H246 C229 0.931 . S
H247 C230 0.930 . S
H248 C239 0.929 . S
H249 C240 0.930 . S
H250 C241 0.931 . S
H251 C242 0.930 . S
C252 C254 1.422 . S
C252 C256 1.415 . S
C252 N258 1.369 . S
C253 C254 1.421 . S
C253 C255 1.417 . S
C253 C265 1.422 . S
C254 C252 1.422 . S
C254 C253 1.421 . S
C254 N264 1.359 . S
C255 C253 1.417 . S
C255 C257 1.329 . S
C255 H274 0.930 . S
C256 C252 1.415 . S
C256 C257 1.437 . S
C256 C260 1.413 . S
C257 C255 1.329 . S
C257 C256 1.437 . S
C257 H279 0.929 . S
N258 C252 1.369 . S
N258 C259 1.338 . S
N258 Gd263 2.622 1_455 S
C259 N258 1.338 . S
C259 C261 1.378 . S
C259 H271 0.929 . S
C260 C256 1.413 . S
C260 C261 1.348 . S
C260 H276 0.931 . S
C261 C259 1.378 . S
C261 C260 1.348 . S
C261 H277 0.930 . S
Gd262 N282 2.622 . S
Gd262 N289 2.570 . S
Gd262 O296 2.353 1_655 S
Gd262 O297 2.468 . S
Gd262 O298 2.427 1_655 S
Gd262 O300 2.388 . S
Gd262 O301 2.386 . S
Gd262 O305 2.307 . S
Gd262 C315 2.805 1_655 S
Gd263 N258 2.622 1_655 S
Gd263 N264 2.570 1_655 S
Gd263 O295 2.386 1_655 S
Gd263 O299 2.307 . S
Gd263 O302 2.353 . S
Gd263 O303 2.468 . S
Gd263 O304 2.427 . S
Gd263 O306 2.388 . S
Gd263 C327 2.805 . S
N264 C254 1.359 . S
N264 Gd263 2.570 1_455 S
N264 C266 1.343 . S
C265 C253 1.422 . S
C265 C267 1.321 . S
C265 H273 0.931 . S
C266 N264 1.343 . S
C266 C267 1.390 . S
C266 H268 0.931 . S
C267 C265 1.321 . S
C267 C266 1.390 . S
C267 H269 0.930 . S
H268 C266 0.931 . S
H269 C267 0.930 . S
H270 C293 0.931 . S
H271 C259 0.929 . S
H272 C294 0.930 . S
H273 C265 0.931 . S
H274 C255 0.930 . S
H275 C284 0.929 . S
H276 C260 0.931 . S
H277 C261 0.930 . S
H278 C316 0.930 . S
H279 C257 0.929 . S
H280 C285 0.931 . S
H281 C286 0.930 . S
N282 Gd262 2.622 . S
N282 C283 1.369 . S
N282 C284 1.338 . S
C283 N282 1.369 . S
C283 C287 1.415 . S
C283 C290 1.422 . S
C284 H275 0.929 . S
C284 N282 1.338 . S
C284 C286 1.378 . S
C285 H280 0.931 . S
C285 C286 1.348 . S
C285 C287 1.413 . S
C286 H281 0.930 . S
C286 C284 1.378 . S
C286 C285 1.348 . S
C287 C283 1.415 . S
C287 C285 1.413 . S
C287 C317 1.437 . S
H288 C317 0.929 . S
N289 Gd262 2.570 . S
N289 C290 1.359 . S
N289 C293 1.343 . S
C290 C283 1.422 . S
C290 N289 1.359 . S
C290 C292 1.421 . S
C291 C292 1.422 . S
C291 C294 1.321 . S
C291 H318 0.931 . S
C292 C290 1.421 . S
C292 C291 1.422 . S
C292 C316 1.417 . S
C293 H270 0.931 . S
C293 N289 1.343 . S
C293 C294 1.390 . S
C294 H272 0.930 . S
C294 C291 1.321 . S
C294 C293 1.390 . S
O295 Gd263 2.386 1_455 S
O295 C307 1.265 . S
O296 Gd262 2.353 1_455 S
O296 C307 1.242 . S
O297 Gd262 2.468 . S
O297 C315 1.263 1_655 S
O298 Gd262 2.427 1_455 S
O298 C315 1.252 . S
O299 Gd263 2.307 . S
O299 C308 1.261 . S
O300 Gd262 2.388 . S
O300 C308 1.252 . S
O301 Gd262 2.386 . S
O301 C319 1.265 . S
O302 Gd263 2.353 . S
O302 C319 1.242 . S
O303 Gd263 2.468 . S
O303 C327 1.263 . S
O304 Gd263 2.427 . S
O304 C327 1.252 . S
O305 Gd262 2.307 . S
O305 C320 1.261 . S
O306 Gd263 2.388 . S
O306 C320 1.252 . S
C307 O295 1.265 . S
C307 O296 1.242 . S
C308 O299 1.261 . S
C308 O300 1.252 . S
C309 C312 1.394 . S
C309 C314 1.370 . S
C309 C315 1.500 . S
C310 C313 1.383 . S
C310 C314 1.395 . S
C311 C312 1.396 . S
C311 C313 1.365 . S
C311 H328 0.929 . S
C312 C309 1.394 . S
C312 C311 1.396 . S
C312 H329 0.930 . S
C313 C310 1.383 . S
C313 C311 1.365 . S
C313 H330 0.931 . S
C314 C309 1.370 . S
C314 C310 1.395 . S
C314 H331 0.930 . S
C315 Gd262 2.805 1_455 S
C315 O297 1.263 1_455 S
C315 O298 1.252 . S
C315 C309 1.500 . S
C316 H278 0.930 . S
C316 C292 1.417 . S
C316 C317 1.329 . S
C317 C287 1.437 . S
C317 H288 0.929 . S
C317 C316 1.329 . S
H318 C291 0.931 . S
C319 O301 1.265 . S
C319 O302 1.242 . S
C320 O305 1.261 . S
C320 O306 1.252 . S
C321 C324 1.394 . S
C321 C326 1.370 . S
C321 C327 1.500 . S
C322 C325 1.383 . S
C322 C326 1.395 . S
C323 C324 1.396 . S
C323 C325 1.365 . S
C323 H332 0.929 . S
C324 C321 1.394 . S
C324 C323 1.396 . S
C324 H333 0.930 . S
C325 C322 1.383 . S
C325 C323 1.365 . S
C325 H334 0.931 . S
C326 C321 1.370 . S
C326 C322 1.395 . S
C326 H335 0.930 . S
C327 Gd263 2.805 . S
C327 O303 1.263 . S
C327 O304 1.252 . S
C327 C321 1.500 . S
H328 C311 0.929 . S
H329 C312 0.930 . S
H330 C313 0.931 . S
H331 C314 0.930 . S
H332 C323 0.929 . S
H333 C324 0.930 . S
H334 C325 0.931 . S
H335 C326 0.930 . S
C336 C338 1.422 . S
C336 C340 1.415 . S
C336 N342 1.369 . S
C337 C338 1.421 . S
C337 C339 1.417 1_655 S
C337 C349 1.422 . S
C338 C336 1.422 . S
C338 C337 1.421 . S
C338 N348 1.359 . S
C339 C337 1.417 1_455 S
C339 C341 1.329 1_455 S
C339 H358 0.930 . S
C340 C336 1.415 . S
C340 C341 1.437 . S
C340 C344 1.413 . S
C341 C339 1.329 1_655 S
C341 C340 1.437 . S
C341 H363 0.929 1_655 S
N342 C336 1.369 . S
N342 C343 1.338 . S
N342 Gd347 2.622 . S
C343 N342 1.338 . S
C343 C345 1.378 . S
C343 H355 0.929 . S
C344 C340 1.413 . S
C344 C345 1.348 . S
C344 H360 0.931 . S
C345 C343 1.378 . S
C345 C344 1.348 . S
C345 H361 0.930 . S
Gd346 N366 2.622 . S
Gd346 N373 2.570 . S
Gd346 O380 2.353 . S
Gd346 O381 2.468 1_556 S
Gd346 O382 2.427 . S
Gd346 O384 2.388 . S
Gd346 O385 2.386 . S
Gd346 O389 2.307 1_556 S
Gd346 C399 2.805 . S
Gd347 N342 2.622 . S
Gd347 N348 2.570 . S
Gd347 O379 2.386 . S
Gd347 O383 2.307 1_554 S
Gd347 O386 2.353 . S
Gd347 O387 2.468 . S
Gd347 O388 2.427 . S
Gd347 O390 2.388 . S
Gd347 C411 2.805 . S
N348 C338 1.359 . S
N348 Gd347 2.570 . S
N348 C350 1.343 1_554 S
C349 C337 1.422 . S
C349 C351 1.321 1_554 S
C349 H357 0.931 1_654 S
C350 N348 1.343 1_556 S
C350 C351 1.390 . S
C350 H352 0.931 . S
C351 C349 1.321 1_556 S
C351 C350 1.390 . S
C351 H353 0.930 . S
H352 C350 0.931 . S
H353 C351 0.930 . S
H354 C377 0.931 . S
H355 C343 0.929 . S
H356 C378 0.930 . S
H357 C349 0.931 1_456 S
H358 C339 0.930 . S
H359 C368 0.929 . S
H360 C344 0.931 . S
H361 C345 0.930 . S
H362 C400 0.930 . S
H363 C341 0.929 1_455 S
H364 C369 0.931 . S
H365 C370 0.930 . S
N366 Gd346 2.622 . S
N366 C367 1.369 . S
N366 C368 1.338 . S
C367 N366 1.369 . S
C367 C371 1.415 . S
C367 C374 1.422 . S
C368 H359 0.929 . S
C368 N366 1.338 . S
C368 C370 1.378 . S
C369 H364 0.931 . S
C369 C370 1.348 . S
C369 C371 1.413 . S
C370 H365 0.930 . S
C370 C368 1.378 . S
C370 C369 1.348 . S
C371 C367 1.415 . S
C371 C369 1.413 . S
C371 C401 1.437 . S
H372 C401 0.929 . S
N373 Gd346 2.570 . S
N373 C374 1.359 . S
N373 C377 1.343 1_556 S
C374 C367 1.422 . S
C374 N373 1.359 . S
C374 C376 1.421 . S
C375 C376 1.422 1_554 S
C375 C378 1.321 . S
C375 H402 0.931 . S
C376 C374 1.421 . S
C376 C375 1.422 1_556 S
C376 C400 1.417 . S
C377 H354 0.931 . S
C377 N373 1.343 1_554 S
C377 C378 1.390 . S
C378 H356 0.930 . S
C378 C375 1.321 . S
C378 C377 1.390 . S
O379 Gd347 2.386 . S
O379 C391 1.265 . S
O380 Gd346 2.353 . S
O380 C391 1.242 1_556 S
O381 Gd346 2.468 1_554 S
O381 C399 1.263 1_554 S
O382 Gd346 2.427 . S
O382 C399 1.252 . S
O383 Gd347 2.307 1_556 S
O383 C392 1.261 . S
O384 Gd346 2.388 . S
O384 C392 1.252 . S
O385 Gd346 2.386 . S
O385 C403 1.265 1_556 S
O386 Gd347 2.353 . S
O386 C403 1.242 . S
O387 Gd347 2.468 . S
O387 C411 1.263 . S
O388 Gd347 2.427 . S
O388 C411 1.252 . S
O389 Gd346 2.307 1_554 S
O389 C404 1.261 . S
O390 Gd347 2.388 . S
O390 C404 1.252 . S
C391 O379 1.265 . S
C391 O380 1.242 1_554 S
C392 O383 1.261 . S
C392 O384 1.252 . S
C393 C396 1.394 . S
C393 C398 1.370 . S
C393 C399 1.500 . S
C394 C397 1.383 . S
C394 C398 1.395 . S
C395 C396 1.396 . S
C395 C397 1.365 . S
C395 H412 0.929 . S
C396 C393 1.394 . S
C396 C395 1.396 . S
C396 H413 0.930 . S
C397 C394 1.383 . S
C397 C395 1.365 . S
C397 H414 0.931 . S
C398 C393 1.370 . S
C398 C394 1.395 . S
C398 H415 0.930 1_556 S
C399 Gd346 2.805 . S
C399 O381 1.263 1_556 S
C399 O382 1.252 . S
C399 C393 1.500 . S
C400 H362 0.930 . S
C400 C376 1.417 . S
C400 C401 1.329 . S
C401 C371 1.437 . S
C401 H372 0.929 . S
C401 C400 1.329 . S
H402 C375 0.931 . S
C403 O385 1.265 1_554 S
C403 O386 1.242 . S
C404 O389 1.261 . S
C404 O390 1.252 . S
C405 C408 1.394 . S
C405 C410 1.370 . S
C405 C411 1.500 . S
C406 C409 1.383 . S
C406 C410 1.395 . S
C407 C408 1.396 . S
C407 C409 1.365 . S
C407 H416 0.929 . S
C408 C405 1.394 . S
C408 C407 1.396 . S
C408 H417 0.930 . S
C409 C406 1.383 . S
C409 C407 1.365 . S
C409 H418 0.931 . S
C410 C405 1.370 . S
C410 C406 1.395 . S
C410 H419 0.930 1_554 S
C411 Gd347 2.805 . S
C411 O387 1.263 . S
C411 O388 1.252 . S
C411 C405 1.500 . S
H412 C395 0.929 . S
H413 C396 0.930 . S
H414 C397 0.931 . S
H415 C398 0.930 1_554 S
H416 C407 0.929 . S
H417 C408 0.930 . S
H418 C409 0.931 . S
H419 C410 0.930 1_556 S
C420 C422 1.422 . S
C420 C424 1.415 . S
C420 N426 1.369 . S
C421 C422 1.421 . S
C421 C423 1.417 . S
C421 C433 1.422 . S
C422 C420 1.422 . S
C422 C421 1.421 . S
C422 N432 1.359 . S
C423 C421 1.417 . S
C423 C425 1.329 . S
C423 H442 0.930 . S
C424 C420 1.415 . S
C424 C425 1.437 . S
C424 C428 1.413 . S
C425 C423 1.329 . S
C425 C424 1.437 . S
C425 H447 0.929 . S
N426 C420 1.369 . S
N426 C427 1.338 . S
N426 Gd431 2.622 . S
C427 N426 1.338 . S
C427 C429 1.378 . S
C427 H439 0.929 . S
C428 C424 1.413 . S
C428 C429 1.348 . S
C428 H444 0.931 . S
C429 C427 1.378 . S
C429 C428 1.348 . S
C429 H445 0.930 . S
Gd430 N450 2.622 . S
Gd430 N457 2.570 . S
Gd430 O464 2.353 . S
Gd430 O465 2.468 1_556 S
Gd430 O466 2.427 . S
Gd430 O468 2.388 . S
Gd430 O469 2.386 . S
Gd430 O473 2.307 1_556 S
Gd430 C483 2.805 . S
Gd431 N426 2.622 . S
Gd431 N432 2.570 . S
Gd431 O463 2.386 . S
Gd431 O467 2.307 1_554 S
Gd431 O470 2.353 . S
Gd431 O471 2.468 . S
Gd431 O472 2.427 . S
Gd431 O474 2.388 . S
Gd431 C495 2.805 . S
N432 C422 1.359 . S
N432 Gd431 2.570 . S
N432 C434 1.343 1_554 S
C433 C421 1.422 . S
C433 C435 1.321 1_554 S
C433 H441 0.931 1_554 S
C434 N432 1.343 1_556 S
C434 C435 1.390 . S
C434 H436 0.931 . S
C435 C433 1.321 1_556 S
C435 C434 1.390 . S
C435 H437 0.930 . S
H436 C434 0.931 . S
H437 C435 0.930 . S
H438 C461 0.931 . S
H439 C427 0.929 . S
H440 C462 0.930 . S
H441 C433 0.931 1_556 S
H442 C423 0.930 . S
H443 C452 0.929 . S
H444 C428 0.931 . S
H445 C429 0.930 . S
H446 C484 0.930 . S
H447 C425 0.929 . S
H448 C453 0.931 . S
H449 C454 0.930 . S
N450 Gd430 2.622 . S
N450 C451 1.369 . S
N450 C452 1.338 . S
C451 N450 1.369 . S
C451 C455 1.415 . S
C451 C458 1.422 . S
C452 H443 0.929 . S
C452 N450 1.338 . S
C452 C454 1.378 . S
C453 H448 0.931 . S
C453 C454 1.348 . S
C453 C455 1.413 . S
C454 H449 0.930 . S
C454 C452 1.378 . S
C454 C453 1.348 . S
C455 C451 1.415 . S
C455 C453 1.413 . S
C455 C485 1.437 . S
H456 C485 0.929 1_655 S
N457 Gd430 2.570 . S
N457 C458 1.359 . S
N457 C461 1.343 1_556 S
C458 C451 1.422 . S
C458 N457 1.359 . S
C458 C460 1.421 . S
C459 C460 1.422 1_554 S
C459 C462 1.321 . S
C459 H486 0.931 1_455 S
C460 C458 1.421 . S
C460 C459 1.422 1_556 S
C460 C484 1.417 1_455 S
C461 H438 0.931 . S
C461 N457 1.343 1_554 S
C461 C462 1.390 . S
C462 H440 0.930 . S
C462 C459 1.321 . S
C462 C461 1.390 . S
O463 Gd431 2.386 . S
O463 C475 1.265 . S
O464 Gd430 2.353 . S
O464 C475 1.242 1_556 S
O465 Gd430 2.468 1_554 S
O465 C483 1.263 1_554 S
O466 Gd430 2.427 . S
O466 C483 1.252 . S
O467 Gd431 2.307 1_556 S
O467 C476 1.261 . S
O468 Gd430 2.388 . S
O468 C476 1.252 . S
O469 Gd430 2.386 . S
O469 C487 1.265 1_556 S
O470 Gd431 2.353 . S
O470 C487 1.242 . S
O471 Gd431 2.468 . S
O471 C495 1.263 . S
O472 Gd431 2.427 . S
O472 C495 1.252 . S
O473 Gd430 2.307 1_554 S
O473 C488 1.261 . S
O474 Gd431 2.388 . S
O474 C488 1.252 . S
C475 O463 1.265 . S
C475 O464 1.242 1_554 S
C476 O467 1.261 . S
C476 O468 1.252 . S
C477 C480 1.394 . S
C477 C482 1.376 . S
C477 C483 1.500 . S
C478 C481 1.383 . S
C478 C482 1.393 . S
C479 C480 1.396 . S
C479 C481 1.365 . S
C479 H496 0.929 . S
C480 C477 1.394 . S
C480 C479 1.396 . S
C480 H497 0.930 . S
C481 C478 1.383 . S
C481 C479 1.365 . S
C481 H498 0.931 . S
C482 C477 1.376 . S
C482 C478 1.393 . S
C482 H499 0.926 1_556 S
C483 Gd430 2.805 . S
C483 O465 1.263 1_556 S
C483 O466 1.252 . S
C483 C477 1.500 . S
C484 H446 0.930 . S
C484 C460 1.417 1_655 S
C484 C485 1.329 1_655 S
C485 C455 1.437 . S
C485 H456 0.929 1_455 S
C485 C484 1.329 1_455 S
H486 C459 0.931 1_655 S
C487 O469 1.265 1_554 S
C487 O470 1.242 . S
C488 O473 1.261 . S
C488 O474 1.252 . S
C489 C492 1.394 . S
C489 C494 1.370 . S
C489 C495 1.500 . S
C490 C493 1.383 . S
C490 C494 1.395 . S
C491 C492 1.396 . S
C491 C493 1.365 . S
C491 H500 0.929 . S
C492 C489 1.394 . S
C492 C491 1.396 . S
C492 H501 0.930 . S
C493 C490 1.383 . S
C493 C491 1.365 . S
C493 H502 0.931 . S
C494 C489 1.370 . S
C494 C490 1.395 . S
C494 H503 0.930 1_554 S
C495 Gd431 2.805 . S
C495 O471 1.263 . S
C495 O472 1.252 . S
C495 C489 1.500 . S
H496 C479 0.929 . S
H497 C480 0.930 . S
H498 C481 0.931 . S
H499 C482 0.926 1_554 S
H500 C491 0.929 . S
H501 C492 0.930 . S
H502 C493 0.931 . S
H503 C494 0.930 1_556 S
C504 C506 1.422 . S
C504 C508 1.415 . S
C504 N510 1.369 . S
C505 C506 1.421 . S
C505 C507 1.417 1_655 S
C505 C517 1.422 . S
C506 C504 1.422 . S
C506 C505 1.421 . S
C506 N516 1.359 . S
C507 C505 1.417 1_455 S
C507 C509 1.329 1_455 S
C507 H526 0.930 . S
C508 C504 1.415 . S
C508 C509 1.437 . S
C508 C512 1.413 . S
C509 C507 1.329 1_655 S
C509 C508 1.437 . S
C509 H531 0.929 1_655 S
N510 C504 1.369 . S
N510 C511 1.338 . S
N510 Gd515 2.622 . S
C511 N510 1.338 . S
C511 C513 1.378 . S
C511 H523 0.929 . S
C512 C508 1.413 . S
C512 C513 1.348 . S
C512 H528 0.931 . S
C513 C511 1.378 . S
C513 C512 1.348 . S
C513 H529 0.930 . S
Gd514 N534 2.622 . S
Gd514 N541 2.570 . S
Gd514 O548 2.353 . S
Gd514 O549 2.468 . S
Gd514 O550 2.427 . S
Gd514 O552 2.388 . S
Gd514 O553 2.386 . S
Gd514 O557 2.307 . S
Gd514 C567 2.805 . S
Gd515 N510 2.622 . S
Gd515 N516 2.570 . S
Gd515 O547 2.386 . S
Gd515 O551 2.307 . S
Gd515 O554 2.353 . S
Gd515 O555 2.468 . S
Gd515 O556 2.427 . S
Gd515 O558 2.388 . S
Gd515 C579 2.805 . S
N516 C506 1.359 . S
N516 Gd515 2.570 . S
N516 C518 1.343 . S
C517 C505 1.422 . S
C517 C519 1.321 . S
C517 H525 0.931 1_655 S
C518 N516 1.343 . S
C518 C519 1.390 . S
C518 H520 0.931 . S
C519 C517 1.321 . S
C519 C518 1.390 . S
C519 H521 0.930 . S
H520 C518 0.931 . S
H521 C519 0.930 . S
H522 C545 0.931 . S
H523 C511 0.929 . S
H524 C546 0.930 . S
H525 C517 0.931 1_455 S
H526 C507 0.930 . S
H527 C536 0.929 . S
H528 C512 0.931 . S
H529 C513 0.930 . S
H530 C568 0.930 . S
H531 C509 0.929 1_455 S
H532 C537 0.931 . S
H533 C538 0.930 . S
N534 Gd514 2.622 . S
N534 C535 1.369 . S
N534 C536 1.338 . S
C535 N534 1.369 . S
C535 C539 1.415 . S
C535 C542 1.422 . S
C536 H527 0.929 . S
C536 N534 1.338 . S
C536 C538 1.378 . S
C537 H532 0.931 . S
C537 C538 1.348 . S
C537 C539 1.413 . S
C538 H533 0.930 . S
C538 C536 1.378 . S
C538 C537 1.348 . S
C539 C535 1.415 . S
C539 C537 1.413 . S
C539 C569 1.437 . S
H540 C569 0.929 . S
N541 Gd514 2.570 . S
N541 C542 1.359 . S
N541 C545 1.343 . S
C542 C535 1.422 . S
C542 N541 1.359 . S
C542 C544 1.421 . S
C543 C544 1.422 . S
C543 C546 1.321 . S
C543 H570 0.931 . S
C544 C542 1.421 . S
C544 C543 1.422 . S
C544 C568 1.417 . S
C545 H522 0.931 . S
C545 N541 1.343 . S
C545 C546 1.390 . S
C546 H524 0.930 . S
C546 C543 1.321 . S
C546 C545 1.390 . S
O547 Gd515 2.386 . S
O547 C559 1.265 . S
O548 Gd514 2.353 . S
O548 C559 1.242 . S
O549 Gd514 2.468 . S
O549 C567 1.263 . S
O550 Gd514 2.427 . S
O550 C567 1.252 . S
O551 Gd515 2.307 . S
O551 C560 1.261 . S
O552 Gd514 2.388 . S
O552 C560 1.252 . S
O553 Gd514 2.386 . S
O553 C571 1.265 . S
O554 Gd515 2.353 . S
O554 C571 1.242 . S
O555 Gd515 2.468 . S
O555 C579 1.263 . S
O556 Gd515 2.427 . S
O556 C579 1.252 . S
O557 Gd514 2.307 . S
O557 C572 1.261 . S
O558 Gd515 2.388 . S
O558 C572 1.252 . S
C559 O547 1.265 . S
C559 O548 1.242 . S
C560 O551 1.261 . S
C560 O552 1.252 . S
C561 C564 1.394 . S
C561 C566 1.370 . S
C561 C567 1.500 . S
C562 C565 1.383 . S
C562 C566 1.395 . S
C563 C564 1.396 . S
C563 C565 1.365 . S
C563 H580 0.929 . S
C564 C561 1.394 . S
C564 C563 1.396 . S
C564 H581 0.930 . S
C565 C562 1.383 . S
C565 C563 1.365 . S
C565 H582 0.931 . S
C566 C561 1.370 . S
C566 C562 1.395 . S
C566 H583 0.930 . S
C567 Gd514 2.805 . S
C567 O549 1.263 . S
C567 O550 1.252 . S
C567 C561 1.500 . S
C568 H530 0.930 . S
C568 C544 1.417 . S
C568 C569 1.329 . S
C569 C539 1.437 . S
C569 H540 0.929 . S
C569 C568 1.329 . S
H570 C543 0.931 . S
C571 O553 1.265 . S
C571 O554 1.242 . S
C572 O557 1.261 . S
C572 O558 1.252 . S
C573 C576 1.394 . S
C573 C578 1.370 . S
C573 C579 1.500 . S
C574 C577 1.383 . S
C574 C578 1.395 . S
C575 C576 1.396 . S
C575 C577 1.365 . S
C575 H584 0.929 . S
C576 C573 1.394 . S
C576 C575 1.396 . S
C576 H585 0.930 . S
C577 C574 1.383 . S
C577 C575 1.365 . S
C577 H586 0.931 . S
C578 C573 1.370 . S
C578 C574 1.395 . S
C578 H587 0.930 . S
C579 Gd515 2.805 . S
C579 O555 1.263 . S
C579 O556 1.252 . S
C579 C573 1.500 . S
H580 C563 0.929 . S
H581 C564 0.930 . S
H582 C565 0.931 . S
H583 C566 0.930 . S
H584 C575 0.929 . S
H585 C576 0.930 . S
H586 C577 0.931 . S
H587 C578 0.930 . S
C588 C590 1.422 . S
C588 C592 1.415 . S
C588 N594 1.369 . S
C589 C590 1.421 . S
C589 C591 1.417 . S
C589 C601 1.422 . S
C590 C588 1.422 . S
C590 C589 1.421 . S
C590 N600 1.359 . S
C591 C589 1.417 . S
C591 C593 1.329 . S
C591 H610 0.930 . S
C592 C588 1.415 . S
C592 C593 1.437 . S
C592 C596 1.413 . S
C593 C591 1.329 . S
C593 C592 1.437 . S
C593 H615 0.929 . S
N594 C588 1.369 . S
N594 C595 1.338 . S
N594 Gd599 2.622 . S
C595 N594 1.338 . S
C595 C597 1.378 . S
C595 H607 0.929 . S
C596 C592 1.413 . S
C596 C597 1.348 . S
C596 H612 0.931 . S
C597 C595 1.378 . S
C597 C596 1.348 . S
C597 H613 0.930 . S
Gd598 N618 2.622 . S
Gd598 N625 2.570 . S
Gd598 O632 2.353 . S
Gd598 O633 2.468 . S
Gd598 O634 2.427 . S
Gd598 O636 2.388 . S
Gd598 O637 2.386 . S
Gd598 O641 2.307 . S
Gd598 C651 2.805 . S
Gd599 N594 2.622 . S
Gd599 N600 2.570 . S
Gd599 O631 2.386 . S
Gd599 O635 2.307 . S
Gd599 O638 2.353 . S
Gd599 O639 2.468 . S
Gd599 O640 2.427 . S
Gd599 O642 2.388 . S
Gd599 C663 2.805 . S
N600 C590 1.359 . S
N600 Gd599 2.570 . S
N600 C602 1.343 . S
C601 C589 1.422 . S
C601 C603 1.321 . S
C601 H609 0.931 . S
C602 N600 1.343 . S
C602 C603 1.390 . S
C602 H604 0.931 . S
C603 C601 1.321 . S
C603 C602 1.390 . S
C603 H605 0.930 . S
H604 C602 0.931 . S
H605 C603 0.930 . S
H606 C629 0.931 . S
H607 C595 0.929 . S
H608 C630 0.930 . S
H609 C601 0.931 . S
H610 C591 0.930 . S
H611 C620 0.929 . S
H612 C596 0.931 . S
H613 C597 0.930 . S
H614 C652 0.930 . S
H615 C593 0.929 . S
H616 C621 0.931 . S
H617 C622 0.930 . S
N618 Gd598 2.622 . S
N618 C619 1.369 . S
N618 C620 1.338 . S
C619 N618 1.369 . S
C619 C623 1.415 . S
C619 C626 1.422 . S
C620 H611 0.929 . S
C620 N618 1.338 . S
C620 C622 1.378 . S
C621 H616 0.931 . S
C621 C622 1.348 . S
C621 C623 1.413 . S
C622 H617 0.930 . S
C622 C620 1.378 . S
C622 C621 1.348 . S
C623 C619 1.415 . S
C623 C621 1.413 . S
C623 C653 1.437 . S
H624 C653 0.929 1_655 S
N625 Gd598 2.570 . S
N625 C626 1.359 . S
N625 C629 1.343 . S
C626 C619 1.422 . S
C626 N625 1.359 . S
C626 C628 1.421 . S
C627 C628 1.422 . S
C627 C630 1.321 . S
C627 H654 0.931 1_455 S
C628 C626 1.421 . S
C628 C627 1.422 . S
C628 C652 1.417 1_455 S
C629 H606 0.931 . S
C629 N625 1.343 . S
C629 C630 1.390 . S
C630 H608 0.930 . S
C630 C627 1.321 . S
C630 C629 1.390 . S
O631 Gd599 2.386 . S
O631 C643 1.265 . S
O632 Gd598 2.353 . S
O632 C643 1.242 . S
O633 Gd598 2.468 . S
O633 C651 1.263 . S
O634 Gd598 2.427 . S
O634 C651 1.252 . S
O635 Gd599 2.307 . S
O635 C644 1.261 . S
O636 Gd598 2.388 . S
O636 C644 1.252 . S
O637 Gd598 2.386 . S
O637 C655 1.265 . S
O638 Gd599 2.353 . S
O638 C655 1.242 . S
O639 Gd599 2.468 . S
O639 C663 1.263 . S
O640 Gd599 2.427 . S
O640 C663 1.252 . S
O641 Gd598 2.307 . S
O641 C656 1.261 . S
O642 Gd599 2.388 . S
O642 C656 1.252 . S
C643 O631 1.265 . S
C643 O632 1.242 . S
C644 O635 1.261 . S
C644 O636 1.252 . S
C645 C648 1.394 . S
C645 C650 1.370 . S
C645 C651 1.500 . S
C646 C649 1.383 . S
C646 C650 1.395 . S
C647 C648 1.396 . S
C647 C649 1.365 . S
C647 H664 0.929 . S
C648 C645 1.394 . S
C648 C647 1.396 . S
C648 H665 0.930 . S
C649 C646 1.383 . S
C649 C647 1.365 . S
C649 H666 0.931 . S
C650 C645 1.370 . S
C650 C646 1.395 . S
C650 H667 0.930 . S
C651 Gd598 2.805 . S
C651 O633 1.263 . S
C651 O634 1.252 . S
C651 C645 1.500 . S
C652 H614 0.930 . S
C652 C628 1.417 1_655 S
C652 C653 1.329 1_655 S
C653 C623 1.437 . S
C653 H624 0.929 1_455 S
C653 C652 1.329 1_455 S
H654 C627 0.931 1_655 S
C655 O637 1.265 . S
C655 O638 1.242 . S
C656 O641 1.261 . S
C656 O642 1.252 . S
C657 C660 1.394 . S
C657 C662 1.370 . S
C657 C663 1.500 . S
C658 C661 1.383 . S
C658 C662 1.395 . S
C659 C660 1.396 . S
C659 C661 1.365 . S
C659 H668 0.929 . S
C660 C657 1.394 . S
C660 C659 1.396 . S
C660 H669 0.930 . S
C661 C658 1.383 . S
C661 C659 1.365 . S
C661 H670 0.931 . S
C662 C657 1.370 . S
C662 C658 1.395 . S
C662 H671 0.930 . S
C663 Gd599 2.805 . S
C663 O639 1.263 . S
C663 O640 1.252 . S
C663 C657 1.500 . S
H664 C647 0.929 . S
H665 C648 0.930 . S
H666 C649 0.931 . S
H667 C650 0.930 . S
H668 C659 0.929 . S
H669 C660 0.930 . S
H670 C661 0.931 . S
H671 C662 0.930 . S
C672 C673 1.369 1_556 S
C672 C674 1.419 . S
C672 H676 0.930 . S
C673 C672 1.369 1_554 S
C673 C682 1.429 . S
C674 C672 1.419 . S
C674 C675 1.363 1_556 S
C674 H677 0.929 . S
C675 C674 1.363 1_554 S
C675 C681 1.428 . S
H676 C672 0.930 . S
H677 C674 0.929 . S
S678 N679 1.613 . S
S678 N680 1.610 . S
N679 S678 1.613 . S
N679 C682 1.350 . S
N680 S678 1.610 . S
N680 C681 1.351 . S
C681 C675 1.428 . S
C681 N680 1.351 . S
C681 C682 1.434 . S
C682 C673 1.429 . S
C682 N679 1.350 . S
C682 C681 1.434 . S
C683 C684 1.369 1_556 S
C683 C685 1.419 . S
C683 H687 0.930 . S
C684 C683 1.369 1_554 S
C684 C693 1.429 . S
C685 C683 1.419 . S
C685 C686 1.363 1_556 S
C685 H688 0.929 . S
C686 C685 1.363 1_554 S
C686 C692 1.428 . S
H687 C683 0.930 . S
H688 C685 0.929 . S
S689 N690 1.613 . S
S689 N691 1.610 . S
N690 S689 1.613 . S
N690 C693 1.350 . S
N691 S689 1.610 . S
N691 C692 1.351 . S
C692 C686 1.428 . S
C692 N691 1.351 . S
C692 C693 1.434 . S
C693 C684 1.429 . S
C693 N690 1.350 . S
C693 C692 1.434 . S
C694 C695 1.369 . S
C694 C696 1.419 . S
C694 H698 0.930 . S
C695 C694 1.369 . S
C695 C704 1.429 . S
C696 C694 1.419 . S
C696 C697 1.363 . S
C696 H699 0.929 . S
C697 C696 1.363 . S
C697 C703 1.428 . S
H698 C694 0.930 . S
H699 C696 0.929 . S
S700 N701 1.613 . S
S700 N702 1.610 . S
N701 S700 1.613 . S
N701 C704 1.350 . S
N702 S700 1.610 . S
N702 C703 1.351 . S
C703 C697 1.428 . S
C703 N702 1.351 . S
C703 C704 1.434 . S
C704 C695 1.429 . S
C704 N701 1.350 . S
C704 C703 1.434 . S
C705 C706 1.369 . S
C705 C707 1.419 . S
C705 H709 0.930 . S
C706 C705 1.369 . S
C706 C715 1.429 . S
C707 C705 1.419 . S
C707 C708 1.363 . S
C707 H710 0.929 . S
C708 C707 1.363 . S
C708 C714 1.428 . S
H709 C705 0.930 . S
H710 C707 0.929 . S
S711 N712 1.613 . S
S711 N713 1.610 . S
N712 S711 1.613 . S
N712 C715 1.350 . S
N713 S711 1.610 . S
N713 C714 1.351 . S
C714 C708 1.428 . S
C714 N713 1.351 . S
C714 C715 1.434 . S
C715 C706 1.429 . S
C715 N712 1.350 . S
C715 C714 1.434 . S
C716 C717 1.369 1_455 S
C716 C718 1.419 . S
C716 H720 0.930 1_455 S
C717 C716 1.369 1_655 S
C717 C726 1.429 1_554 S
C718 C716 1.419 . S
C718 C719 1.363 . S
C718 H721 0.929 . S
C719 C718 1.363 . S
C719 C725 1.428 1_554 S
H720 C716 0.930 1_655 S
H721 C718 0.929 . S
S722 N723 1.613 1_455 S
S722 N724 1.610 . S
N723 S722 1.613 1_655 S
N723 C726 1.350 . S
N724 S722 1.610 . S
N724 C725 1.351 . S
C725 C719 1.428 1_556 S
C725 N724 1.351 . S
C725 C726 1.434 1_455 S
C726 C717 1.429 1_556 S
C726 N723 1.350 . S
C726 C725 1.434 1_655 S
C727 C728 1.369 1_655 S
C727 C729 1.419 . S
C727 H731 0.930 1_655 S
C728 C727 1.369 1_455 S
C728 C737 1.429 1_554 S
C729 C727 1.419 . S
C729 C730 1.363 . S
C729 H732 0.929 . S
C730 C729 1.363 . S
C730 C736 1.428 1_554 S
H731 C727 0.930 1_455 S
H732 C729 0.929 . S
S733 N734 1.613 1_655 S
S733 N735 1.610 . S
N734 S733 1.613 1_455 S
N734 C737 1.350 . S
N735 S733 1.610 . S
N735 C736 1.351 . S
C736 C730 1.428 1_556 S
C736 N735 1.351 . S
C736 C737 1.434 1_655 S
C737 C728 1.429 1_556 S
C737 N734 1.350 . S
C737 C736 1.434 1_455 S
C738 C739 1.369 . S
C738 C740 1.419 1_455 S
C738 H742 0.930 . S
C739 C738 1.369 . S
C739 C748 1.429 . S
C740 C738 1.419 1_655 S
C740 C741 1.363 . S
C740 H743 0.929 . S
C741 C740 1.363 . S
C741 C747 1.428 1_655 S
H742 C738 0.930 . S
H743 C740 0.929 . S
S744 N745 1.613 . S
S744 N746 1.610 1_455 S
N745 S744 1.613 . S
N745 C748 1.350 . S
N746 S744 1.610 1_655 S
N746 C747 1.351 1_655 S
C747 C741 1.428 1_455 S
C747 N746 1.351 1_455 S
C747 C748 1.434 . S
C748 C739 1.429 . S
C748 N745 1.350 . S
C748 C747 1.434 . S
C749 C750 1.369 . S
C749 C751 1.419 1_655 S
C749 H753 0.930 . S
C750 C749 1.369 . S
C750 C759 1.429 . S
C751 C749 1.419 1_455 S
C751 C752 1.363 . S
C751 H754 0.929 . S
C752 C751 1.363 . S
C752 C758 1.428 1_455 S
H753 C749 0.930 . S
H754 C751 0.929 . S
S755 N756 1.613 . S
S755 N757 1.610 1_655 S
N756 S755 1.613 . S
N756 C759 1.350 . S
N757 S755 1.610 1_455 S
N757 C758 1.351 1_455 S
C758 C752 1.428 1_655 S
C758 N757 1.351 1_655 S
C758 C759 1.434 . S
C759 C750 1.429 . S
C759 N756 1.350 . S
C759 C758 1.434 . S
C760 C761 1.369 1_655 S
C760 C762 1.419 . S
C760 H764 0.930 . S
C761 C760 1.369 1_455 S
C761 C770 1.429 1_554 S
C762 C760 1.419 . S
C762 C763 1.363 . S
C762 H765 0.929 . S
C763 C762 1.363 . S
C763 C769 1.428 1_654 S
H764 C760 0.930 . S
H765 C762 0.929 . S
S766 N767 1.613 . S
S766 N768 1.610 . S
N767 S766 1.613 . S
N767 C770 1.350 . S
N768 S766 1.610 . S
N768 C769 1.351 . S
C769 C763 1.428 1_456 S
C769 N768 1.351 . S
C769 C770 1.434 . S
C770 C761 1.429 1_556 S
C770 N767 1.350 . S
C770 C769 1.434 . S
C771 C772 1.369 . S
C771 C773 1.419 . S
C771 H775 0.930 . S
C772 C771 1.369 . S
C772 C781 1.429 1_455 S
C773 C771 1.419 . S
C773 C774 1.363 1_455 S
C773 H776 0.929 . S
C774 C773 1.363 1_655 S
C774 C780 1.428 . S
H775 C771 0.930 . S
H776 C773 0.929 . S
S777 N778 1.613 . S
S777 N779 1.610 . S
N778 S777 1.613 . S
N778 C781 1.350 . S
N779 S777 1.610 . S
N779 C780 1.351 . S
C780 C774 1.428 . S
C780 N779 1.351 . S
C780 C781 1.434 . S
C781 C772 1.429 1_655 S
C781 N778 1.350 . S
C781 C780 1.434 . S
C782 C783 1.369 1_556 S
C782 C784 1.419 1_565 S
C782 H786 0.930 . S
C783 C782 1.369 1_554 S
C783 C792 1.429 . S
C784 C782 1.419 1_545 S
C784 C785 1.363 1_556 S
C784 H787 0.929 . S
C785 C784 1.363 1_554 S
C785 C791 1.428 . S
H786 C782 0.930 . S
H787 C784 0.929 . S
S788 N789 1.613 . S
S788 N790 1.610 1_565 S
N789 S788 1.613 . S
N789 C792 1.350 . S
N790 S788 1.610 1_545 S
N790 C791 1.351 . S
C791 C785 1.428 . S
C791 N790 1.351 . S
C791 C792 1.434 1_545 S
C792 C783 1.429 . S
C792 N789 1.350 . S
C792 C791 1.434 1_565 S
C793 C794 1.369 . S
C793 C795 1.419 1_545 S
C793 H797 0.930 . S
C794 C793 1.369 . S
C794 C803 1.429 . S
C795 C793 1.419 1_565 S
C795 C796 1.363 . S
C795 H798 0.929 . S
C796 C795 1.363 . S
C796 C802 1.428 . S
H797 C793 0.930 . S
H798 C795 0.929 . S
S799 N800 1.613 1_565 S
S799 N801 1.610 . S
N800 S799 1.613 1_545 S
N800 C803 1.350 . S
N801 S799 1.610 . S
N801 C802 1.351 . S
C802 C796 1.428 . S
C802 N801 1.351 . S
C802 C803 1.434 1_565 S
C803 C794 1.429 . S
C803 N800 1.350 . S
C803 C802 1.434 1_545 S
C804 C805 1.369 . S
C804 C806 1.419 . S
C804 H808 0.930 . S
C805 C804 1.369 . S
C805 C814 1.429 . S
C806 C804 1.419 . S
C806 C807 1.363 . S
C806 H809 0.929 . S
C807 C806 1.363 . S
C807 C813 1.428 . S
H808 C804 0.930 . S
H809 C806 0.929 . S
S810 N811 1.613 . S
S810 N812 1.610 . S
N811 S810 1.613 . S
N811 C814 1.350 . S
N812 S810 1.610 . S
N812 C813 1.351 . S
C813 C807 1.428 . S
C813 N812 1.351 . S
C813 C814 1.434 . S
C814 C805 1.429 . S
C814 N811 1.350 . S
C814 C813 1.434 . S
C815 C816 1.369 . S
C815 C817 1.419 . S
C815 H819 0.930 . S
C816 C815 1.369 . S
C816 C825 1.429 1_554 S
C817 C815 1.419 . S
C817 C818 1.363 . S
C817 H820 0.929 . S
C818 C817 1.363 . S
C818 C824 1.428 1_554 S
H819 C815 0.930 . S
H820 C817 0.929 . S
S821 N822 1.613 . S
S821 N823 1.610 . S
N822 S821 1.613 . S
N822 C825 1.350 . S
N823 S821 1.610 . S
N823 C824 1.351 . S
C824 C818 1.428 1_556 S
C824 N823 1.351 . S
C824 C825 1.434 . S
C825 C816 1.429 1_556 S
C825 N822 1.350 . S
C825 C824 1.434 . S
C826 C827 1.369 . S
C826 C828 1.419 . S
C826 H830 0.930 . S
C827 C826 1.369 . S
C827 C836 1.429 . S
C828 C826 1.419 . S
C828 C829 1.363 . S
C828 H831 0.929 . S
C829 C828 1.363 . S
C829 C835 1.428 . S
H830 C826 0.930 . S
H831 C828 0.929 . S
S832 N833 1.613 . S
S832 N834 1.610 . S
N833 S832 1.613 . S
N833 C836 1.350 . S
N834 S832 1.610 . S
N834 C835 1.351 . S
C835 C829 1.428 . S
C835 N834 1.351 . S
C835 C836 1.434 . S
C836 C827 1.429 . S
C836 N833 1.350 . S
C836 C835 1.434 . S
C837 C838 1.369 . S
C837 C839 1.419 . S
C837 H841 0.930 . S
C838 C837 1.369 . S
C838 C847 1.429 . S
C839 C837 1.419 . S
C839 C840 1.363 . S
C839 H842 0.929 . S
C840 C839 1.363 . S
C840 C846 1.428 . S
H841 C837 0.930 . S
H842 C839 0.929 . S
S843 N844 1.613 1_455 S
S843 N845 1.610 1_455 S
N844 S843 1.613 1_655 S
N844 C847 1.350 . S
N845 S843 1.610 1_655 S
N845 C846 1.351 . S
C846 C840 1.428 . S
C846 N845 1.351 . S
C846 C847 1.434 . S
C847 C838 1.429 . S
C847 N844 1.350 . S
C847 C846 1.434 . S
C848 C849 1.369 1_655 S
C848 C850 1.419 . S
C848 H852 0.930 . S
C849 C848 1.369 1_455 S
C849 C858 1.429 . S
C850 C848 1.419 . S
C850 C851 1.363 . S
C850 H853 0.929 . S
C851 C850 1.363 . S
C851 C857 1.428 . S
H852 C848 0.930 . S
H853 C850 0.929 . S
S854 N855 1.613 . S
S854 N856 1.610 1_455 S
N855 S854 1.613 . S
N855 C858 1.350 . S
N856 S854 1.610 1_655 S
N856 C857 1.351 . S
C857 C851 1.428 . S
C857 N856 1.351 . S
C857 C858 1.434 1_655 S
C858 C849 1.429 . S
C858 N855 1.350 . S
C858 C857 1.434 1_455 S
C859 C860 1.369 . S
C859 C861 1.419 . S
C859 H863 0.930 . S
C860 C859 1.369 . S
C860 C869 1.429 . S
C861 C859 1.419 . S
C861 C862 1.363 1_655 S
C861 H864 0.929 . S
C862 C861 1.363 1_455 S
C862 C868 1.428 . S
H863 C859 0.930 . S
H864 C861 0.929 . S
S865 N866 1.613 1_455 S
S865 N867 1.610 . S
N866 S865 1.613 1_655 S
N866 C869 1.350 . S
N867 S865 1.610 . S
N867 C868 1.351 . S
C868 C862 1.428 . S
C868 N867 1.351 . S
C868 C869 1.434 1_455 S
C869 C860 1.429 . S
C869 N866 1.350 . S
C869 C868 1.434 1_655 S
C870 C871 1.369 1_455 S
C870 C872 1.419 . S
C870 H874 0.930 1_455 S
C871 C870 1.369 1_655 S
C871 C880 1.429 . S
C872 C870 1.419 . S
C872 C873 1.363 . S
C872 H875 0.929 . S
C873 C872 1.363 . S
C873 C879 1.428 . S
H874 C870 0.930 1_655 S
H875 C872 0.929 . S
S876 N877 1.613 . S
S876 N878 1.610 1_655 S
N877 S876 1.613 . S
N877 C880 1.350 . S
N878 S876 1.610 1_455 S
N878 C879 1.351 . S
C879 C873 1.428 . S
C879 N878 1.351 . S
C879 C880 1.434 1_455 S
C880 C871 1.429 . S
C880 N877 1.350 . S
C880 C879 1.434 1_655 S
C881 C882 1.369 . S
C881 C883 1.419 1_655 S
C881 H885 0.930 . S
C882 C881 1.369 . S
C882 C891 1.429 . S
C883 C881 1.419 1_455 S
C883 C884 1.363 . S
C883 H886 0.929 . S
C884 C883 1.363 . S
C884 C890 1.428 . S
H885 C881 0.930 . S
H886 C883 0.929 . S
S887 N888 1.613 . S
S887 N889 1.610 1_655 S
N888 S887 1.613 . S
N888 C891 1.350 . S
N889 S887 1.610 1_455 S
N889 C890 1.351 . S
C890 C884 1.428 . S
C890 N889 1.351 . S
C890 C891 1.434 1_455 S
C891 C882 1.429 . S
C891 N888 1.350 . S
C891 C890 1.434 1_655 S
C892 C893 1.369 . S
C892 C894 1.419 . S
C892 H896 0.930 . S
C893 C892 1.369 . S
C893 C902 1.429 . S
C894 C892 1.419 . S
C894 C895 1.363 . S
C894 H897 0.929 . S
C895 C894 1.363 . S
C895 C901 1.428 . S
H896 C892 0.930 . S
H897 C894 0.929 . S
S898 N899 1.613 . S
S898 N900 1.610 . S
N899 S898 1.613 . S
N899 C902 1.350 . S
N900 S898 1.610 . S
N900 C901 1.351 . S
C901 C895 1.428 . S
C901 N900 1.351 . S
C901 C902 1.434 . S
C902 C893 1.429 . S
C902 N899 1.350 . S
C902 C901 1.434 . S
C903 C904 1.369 . S
C903 C905 1.419 . S
C903 H907 0.930 . S
C904 C903 1.369 . S
C904 C913 1.429 . S
C905 C903 1.419 . S
C905 C906 1.363 . S
C905 H908 0.929 . S
C906 C905 1.363 . S
C906 C912 1.428 . S
H907 C903 0.930 . S
H908 C905 0.929 . S
S909 N910 1.613 . S
S909 N911 1.610 . S
N910 S909 1.613 . S
N910 C913 1.350 . S
N911 S909 1.610 . S
N911 C912 1.351 . S
C912 C906 1.428 . S
C912 N911 1.351 . S
C912 C913 1.434 . S
C913 C904 1.429 . S
C913 N910 1.350 . S
C913 C912 1.434 . S
C914 C915 1.369 . S
C914 C916 1.419 . S
C914 H918 0.930 . S
C915 C914 1.369 . S
C915 C924 1.429 . S
C916 C914 1.419 . S
C916 C917 1.363 . S
C916 H919 0.929 . S
C917 C916 1.363 . S
C917 C923 1.428 . S
H918 C914 0.930 . S
H919 C916 0.929 . S
S920 N921 1.613 . S
S920 N922 1.610 . S
N921 S920 1.613 . S
N921 C924 1.350 . S
N922 S920 1.610 . S
N922 C923 1.351 . S
C923 C917 1.428 . S
C923 N922 1.351 . S
C923 C924 1.434 . S
C924 C915 1.429 . S
C924 N921 1.350 . S
C924 C923 1.434 . S
C925 C926 1.369 . S
C925 C927 1.419 . S
C925 H929 0.930 . S
C926 C925 1.369 . S
C926 C935 1.429 . S
C927 C925 1.419 . S
C927 C928 1.363 . S
C927 H930 0.929 . S
C928 C927 1.363 . S
C928 C934 1.428 . S
H929 C925 0.930 . S
H930 C927 0.929 . S
S931 N932 1.613 . S
S931 N933 1.610 . S
N932 S931 1.613 . S
N932 C935 1.350 . S
N933 S931 1.610 . S
N933 C934 1.351 . S
C934 C928 1.428 . S
C934 N933 1.351 . S
C934 C935 1.434 . S
C935 C926 1.429 . S
C935 N932 1.350 . S
C935 C934 1.434 . S
C673 C55 1.955 . S
C675 C67 1.959 . S
C684 C139 1.955 . S
C686 C151 1.959 . S
C695 C235 1.959 . S
C697 C223 1.955 . S
C706 C319 1.958 . S
C708 C307 1.956 . S
C717 C391 1.958 . S
C719 C403 1.956 . S
C728 C487 1.955 . S
C730 C475 1.959 . S
C739 C571 1.956 . S
C741 C559 1.958 . S
C750 C643 1.955 . S
C752 C655 1.959 . S
C761 C142 2.125 1_554 S
C763 C70 2.130 . S
C772 C310 2.131 . S
C774 C238 2.127 . S
C783 C406 2.123 . S
C785 C478 2.133 1_554 S
C794 C574 2.123 . S
C796 C646 2.132 . S
C805 C58 1.502 1_554 S
C807 C490 1.501 . S
C816 C394 1.498 1_554 S
C818 C154 1.505 . S
C827 C226 1.503 . S
C829 C658 1.501 . S
C838 C322 1.498 . S
C840 C562 1.504 . S
C849 C68 1.540 . S
C851 C320 1.583 . S
C860 C152 1.586 . S
C862 C236 1.536 . S
C871 C140 1.535 . S
C873 C224 1.586 . S
C882 C308 1.535 . S
C884 C56 1.586 . S
C893 C404 1.537 . S
C895 C656 1.586 . S
C904 C488 1.582 . S
C906 C572 1.541 . S
C915 C476 1.543 . S
C917 C560 1.582 . S
C926 C644 1.538 . S
C928 C392 1.585 . S
