# Generated by pormake.
# Topology wht, (6)-cn, num edge types: 1
# Building blocks:
#     Node 0, Type 0, BuildingBlock: IZENUY_clean_sbu_0, # of connection points: 6
#     Node 1, Type 0, BuildingBlock: IZENUY_clean_sbu_0, # of connection points: 6
#     Node 2, Type 0, BuildingBlock: IZENUY_clean_sbu_0, # of connection points: 6
#     Node 3, Type 0, BuildingBlock: IZENUY_clean_sbu_0, # of connection points: 6
#     Node 4, Type 0, BuildingBlock: IZENUY_clean_sbu_0, # of connection points: 6
#     Node 5, Type 0, BuildingBlock: IZENUY_clean_sbu_0, # of connection points: 6
#     Node 6, Type 0, BuildingBlock: IZENUY_clean_sbu_0, # of connection points: 6
#     Node 7, Type 0, BuildingBlock: IZENUY_clean_sbu_0, # of connection points: 6
#     Edge 8, Type (0, 0), BuildingBlock: KIFKEQ_clean_linker_1, # of connection points: 2
#     Edge 9, Type (0, 0), BuildingBlock: KIFKEQ_clean_linker_1, # of connection points: 2
#     Edge 10, Type (0, 0), BuildingBlock: KIFKEQ_clean_linker_1, # of connection points: 2
#     Edge 11, Type (0, 0), BuildingBlock: KIFKEQ_clean_linker_1, # of connection points: 2
#     Edge 12, Type (0, 0), BuildingBlock: KIFKEQ_clean_linker_1, # of connection points: 2
#     Edge 13, Type (0, 0), BuildingBlock: KIFKEQ_clean_linker_1, # of connection points: 2
#     Edge 14, Type (0, 0), BuildingBlock: KIFKEQ_clean_linker_1, # of connection points: 2
#     Edge 15, Type (0, 0), BuildingBlock: KIFKEQ_clean_linker_1, # of connection points: 2
#     Edge 16, Type (0, 0), BuildingBlock: KIFKEQ_clean_linker_1, # of connection points: 2
#     Edge 17, Type (0, 0), BuildingBlock: KIFKEQ_clean_linker_1, # of connection points: 2
#     Edge 18, Type (0, 0), BuildingBlock: KIFKEQ_clean_linker_1, # of connection points: 2
#     Edge 19, Type (0, 0), BuildingBlock: KIFKEQ_clean_linker_1, # of connection points: 2
#     Edge 20, Type (0, 0), BuildingBlock: KIFKEQ_clean_linker_1, # of connection points: 2
#     Edge 21, Type (0, 0), BuildingBlock: KIFKEQ_clean_linker_1, # of connection points: 2
#     Edge 22, Type (0, 0), BuildingBlock: KIFKEQ_clean_linker_1, # of connection points: 2
#     Edge 23, Type (0, 0), BuildingBlock: KIFKEQ_clean_linker_1, # of connection points: 2
#     Edge 24, Type (0, 0), BuildingBlock: KIFKEQ_clean_linker_1, # of connection points: 2
#     Edge 25, Type (0, 0), BuildingBlock: KIFKEQ_clean_linker_1, # of connection points: 2
#     Edge 26, Type (0, 0), BuildingBlock: KIFKEQ_clean_linker_1, # of connection points: 2
#     Edge 27, Type (0, 0), BuildingBlock: KIFKEQ_clean_linker_1, # of connection points: 2
#     Edge 28, Type (0, 0), BuildingBlock: KIFKEQ_clean_linker_1, # of connection points: 2
#     Edge 29, Type (0, 0), BuildingBlock: KIFKEQ_clean_linker_1, # of connection points: 2
#     Edge 30, Type (0, 0), BuildingBlock: KIFKEQ_clean_linker_1, # of connection points: 2
#     Edge 31, Type (0, 0), BuildingBlock: KIFKEQ_clean_linker_1, # of connection points: 2
# Relax obj value: 0.256
# Max RMSD: 0.239
# Mean RMSD: 0.239
data_MOF--net-wht--node1-IZENUY_clean_sbu_0--edge1-KIFKEQ_clean_linker_1
_symmetry_space_group_name_H-M    P1
_symmetry_Int_Tables_number       1
_symmetry_cell_setting            triclinic
loop_
_symmetry_equiv_pos_as_xyz
'x, y, z'
_cell_length_a     26.395223
_cell_length_b     26.445575
_cell_length_c     47.810741
_cell_angle_alpha  89.978534
_cell_angle_beta   89.947243
_cell_angle_gamma 89.914229
loop_
_atom_site_label
_atom_site_type_symbol
_atom_site_fract_x
_atom_site_fract_y
_atom_site_fract_z
_atom_type_partial_charge
Fe0 Fe 0.09031 0.21016 0.13562 0.0
Fe1 Fe 0.18393 0.27476 0.14709 0.0
O2 O 0.11768 0.26547 0.14964 0.0
Fe3 Fe 0.07826 0.31172 0.16545 0.0
O4 O 0.04239 0.32018 0.13345 0.0
O5 O 0.02924 0.23952 0.1265 0.0
O6 O 0.11145 0.2264 0.10101 0.0
C7 C 0.15703 0.23415 0.09451 0.0
C8 C 0.0376 0.21729 0.18408 0.0
O9 O 0.1901 0.243 0.11307 0.0
C10 C 0.15877 0.31326 0.20119 0.0
O11 O 0.14609 0.16991 0.14157 0.0
O12 O 0.19825 0.21693 0.16595 0.0
O13 O 0.03254 0.26464 0.1798 0.0
O14 O 0.06798 0.19154 0.16955 0.0
C15 C 0.14988 0.3699 0.13464 0.0
O16 O 0.18886 0.30928 0.18055 0.0
O17 O 0.11182 0.3066 0.19821 0.0
C18 C 0.18476 0.17413 0.15706 0.0
O19 O 0.17507 0.33181 0.12743 0.0
O20 O 0.11709 0.36682 0.15406 0.0
C21 C 0.0196 0.28523 0.12078 0.0
Fe22 Fe 0.26213 0.68578 0.39793 0.0
Fe23 Fe 0.22613 0.57905 0.41439 0.0
O24 O 0.27176 0.61954 0.39898 0.0
Fe25 Fe 0.32675 0.59353 0.38357 0.0
O26 O 0.30819 0.61689 0.34962 0.0
O27 O 0.29331 0.6945 0.3639 0.0
O28 O 0.20465 0.67819 0.37848 0.0
C29 C 0.16698 0.65188 0.38513 0.0
C30 C 0.36295 0.68594 0.40703 0.0
O31 O 0.17048 0.61801 0.40392 0.0
C32 C 0.32192 0.53757 0.43101 0.0
O33 O 0.22802 0.68846 0.43156 0.0
O34 O 0.23137 0.61065 0.44778 0.0
O35 O 0.36676 0.64909 0.39023 0.0
O36 O 0.32032 0.69847 0.41676 0.0
C37 C 0.25201 0.5231 0.36846 0.0
O38 O 0.27418 0.53319 0.42758 0.0
O39 O 0.34713 0.56877 0.4167 0.0
C40 C 0.22418 0.65726 0.45163 0.0
O41 O 0.2172 0.54487 0.38187 0.0
O42 O 0.29783 0.53301 0.37368 0.0
C43 C 0.29932 0.66274 0.34436 0.0
Fe44 Fe 0.9455 0.82775 0.63499 0.0
Fe45 Fe 0.85103 0.76669 0.65016 0.0
O46 O 0.9178 0.7737 0.65049 0.0
Fe47 Fe 0.95713 0.72631 0.66519 0.0
O48 O 0.99016 0.71666 0.6323 0.0
O49 O 1.00481 0.79673 0.62446 0.0
O50 O 0.92042 0.81027 0.60131 0.0
C51 C 0.87407 0.80326 0.59643 0.0
C52 C 1.00232 0.81994 0.68189 0.0
O53 O 0.84248 0.79822 0.6162 0.0
C54 C 0.88023 0.72722 0.70343 0.0
O55 O 0.89143 0.86975 0.64219 0.0
O56 O 0.8411 0.82525 0.66913 0.0
O57 O 1.00473 0.77224 0.67825 0.0
O58 O 0.97234 0.84707 0.66783 0.0
C59 C 0.88122 0.67051 0.63652 0.0
O60 O 0.84816 0.73266 0.68387 0.0
O61 O 0.92693 0.73218 0.69887 0.0
C62 C 0.85458 0.86729 0.65914 0.0
O63 O 0.85564 0.70906 0.63057 0.0
O64 O 0.91605 0.67243 0.65482 0.0
C65 C 1.01313 0.75074 0.61902 0.0
Fe66 Fe 0.81361 0.45983 0.91759 0.0
Fe67 Fe 0.71636 0.44897 0.88362 0.0
O68 O 0.7694 0.42092 0.89995 0.0
Fe69 Fe 0.77835 0.35469 0.89766 0.0
O70 O 0.83876 0.3626 0.88065 0.0
O71 O 0.86988 0.42121 0.90827 0.0
O72 O 0.82614 0.49624 0.88598 0.0
C73 C 0.79252 0.51962 0.87245 0.0
C74 C 0.81066 0.37891 0.95319 0.0
O75 O 0.74637 0.51016 0.87678 0.0
C76 C 0.67644 0.35414 0.90187 0.0
O77 O 0.76455 0.50493 0.93029 0.0
O78 O 0.69252 0.47037 0.91689 0.0
O79 O 0.80787 0.34893 0.9325 0.0
O80 O 0.80472 0.4259 0.95005 0.0
C81 C 0.74704 0.38311 0.84346 0.0
O82 O 0.67555 0.39332 0.88669 0.0
O83 O 0.71711 0.34117 0.91379 0.0
C84 C 0.71667 0.49999 0.93272 0.0
O85 O 0.73852 0.42874 0.84963 0.0
O86 O 0.75179 0.34969 0.86229 0.0
C87 C 0.87562 0.38825 0.88922 0.0
Fe88 Fe 0.58058 0.22799 0.57651 0.0
Fe89 Fe 0.5932 0.32948 0.60637 0.0
O90 O 0.62031 0.27468 0.59147 0.0
Fe91 Fe 0.68688 0.26648 0.59244 0.0
O92 O 0.68058 0.20945 0.61241 0.0
O93 O 0.62068 0.17346 0.58752 0.0
O94 O 0.54637 0.21935 0.6091 0.0
C95 C 0.52382 0.25405 0.62216 0.0
C96 C 0.65894 0.22667 0.53916 0.0
O97 O 0.53305 0.2998 0.61657 0.0
C98 C 0.68497 0.36686 0.58249 0.0
O99 O 0.53381 0.2748 0.56281 0.0
O100 O 0.5683 0.34839 0.57307 0.0
O101 O 0.69021 0.23156 0.55912 0.0
O102 O 0.61213 0.23289 0.54307 0.0
C103 C 0.66326 0.30545 0.64566 0.0
O104 O 0.64803 0.37028 0.59932 0.0
O105 O 0.69834 0.32434 0.57306 0.0
C106 C 0.53794 0.32233 0.55875 0.0
O107 O 0.617 0.31249 0.64045 0.0
O108 O 0.69505 0.2988 0.62614 0.0
C109 C 0.65501 0.1711 0.60616 0.0
Fe110 Fe 0.27859 0.179 0.84411 0.0
Fe111 Fe 0.31471 0.07476 0.82294 0.0
O112 O 0.2696 0.1129 0.84064 0.0
Fe113 Fe 0.21577 0.08413 0.85583 0.0
O114 O 0.23599 0.1028 0.89025 0.0
O115 O 0.25107 0.18229 0.8794 0.0
O116 O 0.33847 0.17005 0.86148 0.0
C117 C 0.37575 0.14517 0.85267 0.0
C118 C 0.17669 0.18014 0.83875 0.0
O119 O 0.37054 0.11297 0.83321 0.0
C120 C 0.21874 0.03457 0.80642 0.0
O121 O 0.30907 0.18633 0.80955 0.0
O122 O 0.3067 0.11011 0.79093 0.0
O123 O 0.17494 0.13983 0.85293 0.0
O124 O 0.21792 0.19383 0.82771 0.0
C125 C 0.29191 1.0139 0.86746 0.0
O126 O 0.26656 0.03025 0.8092 0.0
O127 O 0.19344 0.06362 0.82208 0.0
C128 C 0.31249 0.15723 0.78847 0.0
O129 O 0.32615 0.03685 0.85417 0.0
O130 O 0.24593 0.02304 0.86243 0.0
C131 C 0.24477 0.14776 0.89748 0.0
Fe132 Fe 0.35031 0.77361 0.0913 0.0
Fe133 Fe 0.4585 0.81008 0.07723 0.0
O134 O 0.41686 0.76459 0.0918 0.0
Fe135 Fe 0.44225 0.71004 0.10795 0.0
O136 O 0.41726 0.72965 0.14129 0.0
O137 O 0.34 0.74406 0.12575 0.0
O138 O 0.35566 0.83199 0.11008 0.0
C139 C 0.38294 0.86943 0.10438 0.0
C140 C 0.35108 0.67255 0.08367 0.0
O141 O 0.41908 0.86582 0.0869 0.0
C142 C 0.49964 0.71412 0.06099 0.0
O143 O 0.34969 0.80592 0.05701 0.0
O144 O 0.42943 0.80511 0.04335 0.0
O145 O 0.387 0.66974 0.10111 0.0
O146 O 0.33919 0.71454 0.07305 0.0
C147 C 0.5123 0.7845 0.12381 0.0
O148 O 0.50481 0.76166 0.06479 0.0
O149 O 0.46825 0.68902 0.07525 0.0
C150 C 0.38311 0.81107 0.03808 0.0
O151 O 0.4906 0.8191 0.11035 0.0
O152 O 0.50269 0.7388 0.1184 0.0
C153 C 0.37105 0.73866 0.14578 0.0
Fe154 Fe 0.82593 0.94427 0.3577 0.0
Fe155 Fe 0.76185 0.85147 0.34422 0.0
O156 O 0.77116 0.91767 0.34255 0.0
Fe157 Fe 0.72541 0.95754 0.32672 0.0
O158 O 0.71599 0.99258 0.35894 0.0
O159 O 0.79652 1.00495 0.36709 0.0
O160 O 0.80747 0.92186 0.39185 0.0
C161 C 0.79902 0.87613 0.39753 0.0
C162 C 0.82104 0.99909 0.30992 0.0
O163 O 0.79308 0.84379 0.37829 0.0
C164 C 0.72424 0.87823 0.29025 0.0
O165 O 0.8663 0.88863 0.35149 0.0
O166 O 0.8201 0.83836 0.32545 0.0
O167 O 0.77323 1.00332 0.31323 0.0
O168 O 0.84626 0.96812 0.32438 0.0
C169 C 0.66649 0.88545 0.35662 0.0
O170 O 0.72782 0.84773 0.31065 0.0
O171 O 0.73124 0.92497 0.29364 0.0
C172 C 0.86267 0.85129 0.335 0.0
O173 O 0.70432 0.85959 0.36364 0.0
O174 O 0.66993 0.91863 0.33745 0.0
C175 C 0.75059 1.01484 0.37218 0.0
H176 H 0.04371 0.11809 0.19803 0.0
H177 H 0.95448 0.25233 0.21391 0.0
H178 H 0.9882 0.06935 0.22764 0.0
H179 H 0.89867 0.20264 0.2447 0.0
H180 H 0.78459 0.07217 0.2735 0.0
H181 H 0.83486 0.12929 0.24381 0.0
H182 H 0.97232 0.06469 0.27733 0.0
H183 H 0.9233 1.00771 0.30594 0.0
C184 C 1.01235 0.13749 0.208 0.0
C185 C 1.00385 0.18941 0.2036 0.0
C186 C 0.98051 0.10936 0.22516 0.0
C187 C 0.93924 0.13213 0.23877 0.0
C188 C 0.9301 0.18401 0.23437 0.0
C189 C 0.96229 0.2125 0.21699 0.0
C190 C 0.82554 0.07025 0.2744 0.0
C191 C 0.84974 0.03474 0.29184 0.0
C192 C 0.85427 0.1032 0.25761 0.0
C193 C 0.90758 0.10111 0.25799 0.0
C194 C 0.93138 0.06663 0.27605 0.0
C195 C 0.90303 0.03386 0.29254 0.0
H196 H 0.28519 0.46381 0.46684 0.0
H197 H 0.42416 0.53026 0.43615 0.0
H198 H 0.33508 0.40736 0.49714 0.0
H199 H 0.47288 0.474 0.46544 0.0
H200 H 0.54104 0.42218 0.54589 0.0
H201 H 0.48563 0.46998 0.51575 0.0
H202 H 0.40095 0.33477 0.49671 0.0
H203 H 0.45673 0.28591 0.52796 0.0
C204 C 0.32613 0.46629 0.46644 0.0
C205 C 0.35049 0.50215 0.44931 0.0
C206 C 0.35465 0.43372 0.48359 0.0
C207 C 0.4079 0.43662 0.4839 0.0
C208 C 0.43193 0.47143 0.46615 0.0
C209 C 0.40377 0.50378 0.44927 0.0
C210 C 0.51075 0.40215 0.53541 0.0
C211 C 0.50367 0.3499 0.53933 0.0
C212 C 0.47897 0.42976 0.51795 0.0
C213 C 0.43917 0.40615 0.50358 0.0
C214 C 0.43126 0.354 0.50761 0.0
C215 C 0.46341 0.32601 0.52528 0.0
H216 H 0.03813 0.79083 0.73318 0.0
H217 H 0.05073 0.9077 0.67049 0.0
H218 H 0.09526 0.83912 0.76388 0.0
H219 H 0.10876 0.95466 0.7006 0.0
H220 H 0.25038 0.99313 0.75692 0.0
H221 H 0.20253 0.93565 0.72636 0.0
H222 H 0.07796 0.93737 0.7848 0.0
H223 H 0.12465 0.99574 0.81481 0.0
C224 C 0.05379 0.82629 0.72584 0.0
C225 C 0.03985 0.84582 0.69965 0.0
C226 C 0.08627 0.8538 0.74332 0.0
C227 C 0.10637 0.90033 0.73441 0.0
C228 C 0.09402 0.9187 0.70778 0.0
C229 C 0.06061 0.89201 0.6907 0.0
C230 C 0.21284 0.98106 0.7632 0.0
C231 C 0.19101 0.99923 0.78805 0.0
C232 C 0.18565 0.94823 0.74581 0.0
C233 C 0.13691 0.93194 0.75348 0.0
C234 C 0.1157 0.94904 0.77865 0.0
C235 C 0.14223 0.98279 0.79562 0.0
H236 H 0.49753 0.6133 0.05016 0.0
H237 H 0.57943 0.74951 0.02884 0.0
H238 H 0.55239 0.56452 0.02003 0.0
H239 H 0.63451 0.6998 -0.00226 0.0
H240 H 0.75158 0.57548 0.96763 0.0
H241 H 0.70103 0.63037 -0.00173 0.0
H242 H 0.56471 0.55609 0.97013 0.0
H243 H 0.61445 0.50117 0.94033 0.0
C244 C 0.52717 0.63308 0.03894 0.0
C245 C 0.53378 0.68561 0.04191 0.0
C246 C 0.55859 0.60492 0.02149 0.0
C247 C 0.59754 0.62826 0.00624 0.0
C248 C 0.60491 0.6807 0.00934 0.0
C249 C 0.57318 0.70919 0.02697 0.0
C250 C 0.71082 0.57086 0.9681 0.0
C251 C 0.68722 0.53355 0.95165 0.0
C252 C 0.68188 0.60257 0.98546 0.0
C253 C 0.62889 0.59736 0.98678 0.0
C254 C 0.6055 0.56058 0.97001 0.0
C255 C 0.63417 0.52909 0.9528 0.0
H256 H 0.24862 0.36138 0.21171 0.0
H257 H 0.10968 0.31345 0.25148 0.0
H258 H 0.2723 0.40696 0.25399 0.0
H259 H 0.13402 0.3577 0.29401 0.0
H260 H 0.15874 0.50057 0.34701 0.0
H261 H 0.13912 0.44394 0.30846 0.0
H262 H 0.29725 0.40281 0.30208 0.0
H263 H 0.31709 0.46068 0.34017 0.0
C264 C 0.22366 0.35961 0.22968 0.0
C265 C 0.17702 0.33422 0.2281 0.0
C266 C 0.23729 0.38567 0.254 0.0
C267 C 0.20478 0.38658 0.27736 0.0
C268 C 0.15943 0.35883 0.27623 0.0
C269 C 0.14564 0.33314 0.25188 0.0
C270 C 0.18927 0.47908 0.3376 0.0
C271 C 0.23949 0.4853 0.34666 0.0
C272 C 0.17799 0.44632 0.31554 0.0
C273 C 0.21661 0.41872 0.30208 0.0
C274 C 0.26667 0.42398 0.31166 0.0
C275 C 0.27799 0.45697 0.33364 0.0
H276 H 0.08022 0.81329 0.59251 0.0
H277 H 0.03091 0.65768 0.596 0.0
H278 H 0.13828 0.79225 0.55464 0.0
H279 H 0.08777 0.63693 0.55755 0.0
H280 H 0.21871 0.60388 0.50058 0.0
H281 H 0.17396 0.62731 0.54324 0.0
H282 H 0.13407 0.77109 0.50625 0.0
H283 H 0.18008 0.74831 0.46399 0.0
C284 C 0.08185 0.77453 0.58525 0.0
C285 C 0.05082 0.73717 0.59727 0.0
C286 C 0.11498 0.76252 0.56341 0.0
C287 C 0.11765 0.71294 0.55288 0.0
C288 C 0.08738 0.67536 0.56536 0.0
C289 C 0.0545 0.6873 0.58734 0.0
C290 C 0.20098 0.6408 0.5017 0.0
C291 C 0.2027 0.67407 0.47875 0.0
C292 C 0.17498 0.65409 0.5261 0.0
C293 C 0.14981 0.70085 0.52813 0.0
C294 C 0.15339 0.73496 0.50561 0.0
C295 C 0.17969 0.72181 0.48127 0.0
H296 H 0.72998 0.58821 0.8474 0.0
H297 H 0.88563 0.53753 0.84907 0.0
H298 H 0.74979 0.64556 0.80915 0.0
H299 H 0.90522 0.59395 0.81019 0.0
H300 H 0.9355 0.72335 0.75166 0.0
H301 H 0.91412 0.67985 0.79497 0.0
H302 H 0.76855 0.63916 0.7604 0.0
H303 H 0.78941 0.68386 0.71737 0.0
C304 C 0.76857 0.58952 0.83971 0.0
C305 C 0.80623 0.55814 0.85125 0.0
C306 C 0.77983 0.62221 0.81762 0.0
C307 C 0.82897 0.62416 0.80635 0.0
C308 C 0.86707 0.59396 0.81853 0.0
C309 C 0.85585 0.56144 0.84079 0.0
C310 C 0.89862 0.7057 0.75343 0.0
C311 C 0.86427 0.7068 0.73094 0.0
C312 C 0.88653 0.68043 0.77822 0.0
C313 C 0.83988 0.65542 0.78112 0.0
C314 C 0.80466 0.6584 0.75906 0.0
C315 C 0.81664 0.68397 0.7343 0.0
H316 H 0.99622 0.37822 0.09931 0.0
H317 H 0.95637 0.22021 0.09304 0.0
H318 H 0.93892 0.39775 0.06103 0.0
H319 H 0.89773 0.23999 0.05518 0.0
H320 H 0.85672 0.28828 0.96451 0.0
H321 H 0.90128 0.26435 0.00708 0.0
H322 H 0.8529 0.40345 0.04637 0.0
H323 H 0.80966 0.42806 0.00349 0.0
C324 C 0.97456 0.34772 0.0901 0.0
C325 C 0.98107 0.29762 0.09924 0.0
C326 C 0.94137 0.35897 0.06818 0.0
C327 C 0.91356 0.32046 0.05491 0.0
C328 C 0.91902 0.27052 0.06461 0.0
C329 C 0.95245 0.25922 0.08646 0.0
C330 C 0.85481 0.31336 0.98239 0.0
C331 C 0.83004 0.36034 0.98045 0.0
C332 C 0.88032 0.29958 0.00689 0.0
C333 C 0.88134 0.33226 0.03013 0.0
C334 C 0.85398 0.37787 0.0287 0.0
C335 C 0.82882 0.39182 0.00415 0.0
H336 H 0.74964 0.1812 0.52716 0.0
H337 H 0.60642 0.22296 0.48996 0.0
H338 H 0.77237 0.1353 0.48485 0.0
H339 H 0.62982 0.17844 0.44728 0.0
H340 H 0.65749 0.0354 0.39461 0.0
H341 H 0.6376 0.09258 0.43293 0.0
H342 H 0.79447 0.1388 0.43657 0.0
H343 H 0.81464 0.08031 0.3988 0.0
C344 C 0.72345 0.18154 0.50973 0.0
C345 C 0.676 0.20534 0.51207 0.0
C346 C 0.73656 0.15531 0.48537 0.0
C347 C 0.70271 0.15263 0.46268 0.0
C348 C 0.65635 0.1787 0.46454 0.0
C349 C 0.64308 0.20456 0.48897 0.0
C350 C 0.68766 0.05815 0.40337 0.0
C351 C 0.73767 0.05311 0.39368 0.0
C352 C 0.67621 0.09122 0.42529 0.0
C353 C 0.71444 0.12036 0.43795 0.0
C354 C 0.76421 0.11639 0.42765 0.0
C355 C 0.77572 0.08304 0.40586 0.0
H356 H 0.35998 0.2476 0.77858 0.0
H357 H 0.31144 0.11045 0.73756 0.0
H358 H 0.40572 0.27247 0.73649 0.0
H359 H 0.35595 0.13595 0.69524 0.0
H360 H 0.5004 0.1607 0.64315 0.0
H361 H 0.44282 0.1407 0.68132 0.0
H362 H 0.40266 0.29865 0.68846 0.0
H363 H 0.46141 0.31887 0.65072 0.0
C364 C 0.358 0.22335 0.76036 0.0
C365 C 0.33248 0.17678 0.76156 0.0
C366 C 0.38421 0.23765 0.73616 0.0
C367 C 0.38518 0.20588 0.71253 0.0
C368 C 0.35707 0.16077 0.71324 0.0
C369 C 0.33119 0.14633 0.73746 0.0
C370 C 0.47895 0.19114 0.65266 0.0
C371 C 0.48568 0.2414 0.64387 0.0
C372 C 0.44562 0.17964 0.67449 0.0
C373 C 0.41795 0.21806 0.68803 0.0
C374 C 0.42381 0.26819 0.67878 0.0
C375 C 0.45732 0.27974 0.65701 0.0
H376 H 0.28967 0.81261 0.01274 0.0
H377 H 0.44546 0.85759 0.00082 0.0
H378 H 0.26715 0.85338 0.96863 0.0
H379 H 0.42286 0.90077 0.9581 0.0
H380 H 0.3787 0.95751 0.87367 0.0
H381 H 0.39919 0.89969 0.91188 0.0
H382 H 0.25463 0.93315 0.95053 0.0
H383 H 0.23336 0.98776 0.91165 0.0
C384 C 0.31906 0.83114 0.00069 0.0
C385 C 0.36924 0.83192 0.01035 0.0
C386 C 0.30619 0.85494 0.97548 0.0
C387 C 0.34302 0.88103 0.95968 0.0
C388 C 0.39343 0.88047 0.96916 0.0
C389 C 0.4064 0.85588 0.99394 0.0
C390 C 0.35124 0.95182 0.89022 0.0
C391 C 0.30445 0.97699 0.88963 0.0
C392 C 0.36299 0.91895 0.91228 0.0
C393 C 0.32872 0.91161 0.9346 0.0
C394 C 0.28167 0.93657 0.93361 0.0
C395 C 0.26955 0.96838 0.91132 0.0
H396 H 0.57673 0.72027 0.15128 0.0
H397 H 0.53302 0.8775 0.14584 0.0
H398 H 0.63545 0.74069 0.18892 0.0
H399 H 0.59037 0.89764 0.184 0.0
H400 H 0.7213 0.9291 0.24046 0.0
H401 H 0.67664 0.90483 0.198 0.0
H402 H 0.63228 0.76422 0.23702 0.0
H403 H 0.6783 0.78777 0.27909 0.0
C404 C 0.57973 0.75922 0.15807 0.0
C405 C 0.55013 0.79725 0.14556 0.0
C406 C 0.61322 0.77089 0.17976 0.0
C407 C 0.61765 0.8208 0.18961 0.0
C408 C 0.58869 0.85893 0.17669 0.0
C409 C 0.55549 0.84733 0.15488 0.0
C410 C 0.70263 0.89267 0.23983 0.0
C411 C 0.70304 0.86057 0.26328 0.0
C412 C 0.67669 0.8789 0.21553 0.0
C413 C 0.65019 0.83286 0.21416 0.0
C414 C 0.6526 0.79975 0.23717 0.0
C415 C 0.6789 0.81335 0.2614 0.0
H416 H 0.21784 0.08575 0.94041 0.0
H417 H 0.26123 0.23997 0.92173 0.0
H418 H 0.20073 0.10972 0.98858 0.0
H419 H 0.24423 0.26351 0.97036 0.0
H420 H 0.24838 0.25681 0.0706 0.0
H421 H 0.27559 0.2373 0.02275 0.0
H422 H 0.12867 0.17309 0.00545 0.0
H423 H 0.10115 0.19262 0.05273 0.0
C424 C 0.22424 0.12462 0.94661 0.0
C425 C 0.24 0.16124 0.92718 0.0
C426 C 0.21441 0.13821 0.97414 0.0
C427 C 0.22072 0.18841 0.98278 0.0
C428 C 0.23919 0.22456 0.96394 0.0
C429 C 0.24859 0.2111 0.93621 0.0
C430 C 0.2219 0.23876 0.05649 0.0
C431 C 0.17286 0.22575 0.06543 0.0
C432 C 0.23742 0.22786 0.02924 0.0
C433 C 0.20426 0.20326 0.01087 0.0
C434 C 0.15497 0.19147 0.01955 0.0
C435 C 0.13926 0.20288 0.04654 0.0
H436 H 0.42346 0.76363 0.19228 0.0
H437 H 0.27754 0.70991 0.1642 0.0
H438 H 0.39691 0.75281 0.24078 0.0
H439 H 0.25122 0.6984 0.21299 0.0
H440 H 0.28222 0.60672 0.29781 0.0
H441 H 0.29048 0.63374 0.24921 0.0
H442 H 0.32823 0.78461 0.27661 0.0
H443 H 0.31944 0.75787 0.32538 0.0
C444 C 0.38552 0.75003 0.19656 0.0
C445 C 0.35266 0.737 0.17468 0.0
C446 C 0.37023 0.74433 0.22423 0.0
C447 C 0.32215 0.72481 0.23039 0.0
C448 C 0.28851 0.71351 0.20856 0.0
C449 C 0.30349 0.72013 0.1808 0.0
C450 C 0.2918 0.64577 0.29343 0.0
C451 C 0.30089 0.6801 0.31523 0.0
C452 C 0.29592 0.66129 0.2657 0.0
C453 C 0.30986 0.71116 0.2594 0.0
C454 C 0.31739 0.74596 0.28113 0.0
C455 C 0.31244 0.73065 0.30891 0.0
H456 H 0.82181 0.78201 0.41713 0.0
H457 H 0.78139 0.93309 0.44366 0.0
H458 H 0.8325 0.75695 0.46606 0.0
H459 H 0.79153 0.90774 0.49243 0.0
H460 H 0.78055 0.83174 0.57795 0.0
H461 H 0.75415 0.84294 0.52921 0.0
H462 H 0.90106 0.79139 0.50131 0.0
H463 H 0.92773 0.78081 0.5498 0.0
C464 C 0.8145 0.80955 0.43342 0.0
C465 C 0.80147 0.85961 0.42676 0.0
C466 C 0.82058 0.79522 0.46128 0.0
C467 C 0.8127 0.83051 0.48275 0.0
C468 C 0.79731 0.87984 0.47613 0.0
C469 C 0.79207 0.89441 0.44831 0.0
C470 C 0.80686 0.82224 0.56135 0.0
C471 C 0.8563 0.80605 0.56746 0.0
C472 C 0.7918 0.82865 0.53362 0.0
C473 C 0.82566 0.81788 0.51178 0.0
C474 C 0.87422 0.79944 0.5179 0.0
C475 C 0.88957 0.79391 0.54555 0.0
H476 H 0.757 0.3347 0.66303 0.0
H477 H 0.60946 0.28885 0.69305 0.0
H478 H 0.78441 0.3492 0.71128 0.0
H479 H 0.63723 0.30268 0.74114 0.0
H480 H 0.72184 0.29004 0.82385 0.0
H481 H 0.70751 0.26598 0.77519 0.0
H482 H 0.74939 0.41621 0.74848 0.0
H483 H 0.76329 0.44073 0.7972 0.0
C484 C 0.73076 0.32713 0.67995 0.0
C485 C 0.68106 0.31105 0.67448 0.0
C486 C 0.74639 0.33552 0.7074 0.0
C487 C 0.71283 0.32687 0.72963 0.0
C488 C 0.66377 0.30913 0.72421 0.0
C489 C 0.64785 0.30164 0.6968 0.0
C490 C 0.72872 0.31769 0.80756 0.0
C491 C 0.74324 0.36735 0.81416 0.0
C492 C 0.72041 0.30394 0.77985 0.0
C493 C 0.72739 0.33937 0.75839 0.0
C494 C 0.74419 0.38828 0.76482 0.0
C495 C 0.75171 0.40233 0.79258 0.0
H496 H 0.28833 0.1776 0.15442 0.0
H497 H 0.16226 0.07415 0.15871 0.0
H498 H 0.34577 0.10657 0.14475 0.0
H499 H 0.21942 1.00349 0.14958 0.0
H500 H 0.33527 0.88219 0.15386 0.0
H501 H 0.29427 0.95796 0.17159 0.0
H502 H 0.35382 0.04355 0.10211 0.0
H503 H 0.39528 0.96675 0.08401 0.0
C504 C 0.27318 0.13956 0.1542 0.0
C505 C 0.22086 0.13127 0.15761 0.0
C506 C 0.30595 0.09908 0.14829 0.0
C507 C 0.28709 0.04955 0.14633 0.0
C508 C 0.23519 0.04117 0.15119 0.0
C509 C 0.20243 0.08157 0.1565 0.0
C510 C 0.3404 0.91727 0.14248 0.0
C511 C 0.3678 0.91827 0.1172 0.0
C512 C 0.31682 0.96067 0.1527 0.0
C513 C 0.32011 1.00644 0.13803 0.0
C514 C 0.35073 1.00868 0.11388 0.0
C515 C 0.37446 0.96482 0.10351 0.0
H516 H 0.46328 0.66409 0.4087 0.0
H517 H 0.35817 0.78912 0.40539 0.0
H518 H 0.53354 0.72217 0.40038 0.0
H519 H 0.42871 0.84736 0.39635 0.0
H520 H 0.5698 0.89555 0.33498 0.0
H521 H 0.49289 0.85392 0.35274 0.0
H522 H 0.57655 0.79922 0.42412 0.0
H523 H 0.65245 0.84074 0.40685 0.0
C524 C 0.45543 0.70419 0.40688 0.0
C525 C 0.40545 0.72216 0.40806 0.0
C526 C 0.49554 0.73743 0.40202 0.0
C527 C 0.48646 0.78924 0.3976 0.0
C528 C 0.43664 0.80759 0.3996 0.0
C529 C 0.39648 0.77438 0.40513 0.0
C530 C 0.57125 0.87589 0.35483 0.0
C531 C 0.61735 0.87067 0.36923 0.0
C532 C 0.52734 0.85206 0.36499 0.0
C533 C 0.52914 0.82273 0.38959 0.0
C534 C 0.5743 0.82092 0.40493 0.0
C535 C 0.61773 0.84474 0.39496 0.0
H536 H 0.70444 0.15955 0.65526 0.0
H537 H 0.643 0.07332 0.58649 0.0
H538 H 0.74647 0.08437 0.673 0.0
H539 H 0.68527 0.99711 0.60474 0.0
H540 H 0.75101 0.86475 0.65861 0.0
H541 H 0.69369 0.93577 0.64884 0.0
H542 H 0.82107 0.03789 0.64966 0.0
H543 H 0.87821 0.96711 0.65878 0.0
C544 C 0.6992 0.12426 0.64413 0.0
C545 C 0.67108 0.12264 0.61911 0.0
C546 C 0.72335 0.08121 0.65437 0.0
C547 C 0.71978 0.03514 0.64006 0.0
C548 C 0.68856 0.03226 0.61621 0.0
C549 C 0.66437 0.07578 0.60576 0.0
C550 C 0.76648 0.90262 0.6575 0.0
C551 C 0.81905 0.91058 0.65979 0.0
C552 C 0.73376 0.94305 0.65153 0.0
C553 C 0.75293 0.99225 0.6484 0.0
C554 C 0.80514 1.00043 0.65216 0.0
C555 C 0.83786 0.96 0.65749 0.0
H556 H 0.39945 0.18146 0.90416 0.0
H557 H 0.46603 0.14487 0.82417 0.0
H558 H 0.47778 0.22325 0.91835 0.0
H559 H 0.54448 0.18729 0.83835 0.0
H560 H 0.6174 0.3452 0.85598 0.0
H561 H 0.55222 0.28349 0.84616 0.0
H562 H 0.57657 0.21467 0.9269 0.0
H563 H 0.64391 0.27686 0.93678 0.0
C564 C 0.43133 0.1813 0.88986 0.0
C565 C 0.42648 0.16033 0.86293 0.0
C566 C 0.47626 0.20498 0.89809 0.0
C567 C 0.51705 0.2089 0.8794 0.0
C568 C 0.51343 0.18501 0.85313 0.0
C569 C 0.46869 0.16053 0.84505 0.0
C570 C 0.60901 0.3172 0.87186 0.0
C571 C 0.63546 0.31653 0.89743 0.0
C572 C 0.57203 0.28127 0.86597 0.0
C573 C 0.55964 0.2439 0.88559 0.0
C574 C 0.58564 0.24301 0.91133 0.0
C575 C 0.62389 0.2786 0.91704 0.0
H576 H 0.89397 0.57241 0.6555 0.0
H577 H 0.83189 0.66004 0.58733 0.0
H578 H 0.85298 0.49634 0.63651 0.0
H579 H 0.79139 0.58487 0.56871 0.0
H580 H 0.66112 0.46648 0.581 0.0
H581 H 0.71759 0.53749 0.5901 0.0
H582 H 0.84529 0.43547 0.59337 0.0
H583 H 0.78852 0.36413 0.58376 0.0
C584 C 0.87268 0.57522 0.6362 0.0
C585 C 0.86535 0.62238 0.62326 0.0
C586 C 0.84929 0.53176 0.62531 0.0
C587 C 0.81835 0.53496 0.60135 0.0
C588 C 0.81423 0.58142 0.58743 0.0
C589 C 0.83748 0.62447 0.59818 0.0
C590 C 0.70144 0.45944 0.58278 0.0
C591 C 0.72047 0.40995 0.58133 0.0
C592 C 0.73381 0.50001 0.58809 0.0
C593 C 0.78586 0.49195 0.59259 0.0
C594 C 0.80532 0.44268 0.59012 0.0
C595 C 0.77295 0.40204 0.58423 0.0
H596 H 0.14761 0.26139 0.80565 0.0
H597 H 0.11317 0.18434 0.8831 0.0
H598 H 0.08016 0.32348 0.81602 0.0
H599 H 0.04808 0.2461 0.89347 0.0
H600 H 0.96501 0.38598 0.91838 0.0
H601 H 0.04355 0.34355 0.90395 0.0
H602 H 0.97898 0.31376 0.82276 0.0
H603 H 0.90043 0.3553 0.83724 0.0
C604 C 0.12583 0.25769 0.82475 0.0
C605 C 0.13531 0.21744 0.84327 0.0
C606 C 0.08755 0.29324 0.83074 0.0
C607 C 0.05948 0.28994 0.85577 0.0
C608 C 0.06958 0.25012 0.87428 0.0
C609 C 0.10653 0.21423 0.86804 0.0
C610 C 0.96821 0.37172 0.89721 0.0
C611 C 0.92653 0.37349 0.87903 0.0
C612 C 1.01299 0.34728 0.88898 0.0
C613 C 1.01716 0.32515 0.86227 0.0
C614 C 0.97697 0.33072 0.84335 0.0
C615 C 0.93196 0.35424 0.85174 0.0
H616 H 0.24767 0.67715 0.08497 0.0
H617 H 0.37315 0.57243 0.08289 0.0
H618 H 0.18932 0.60684 0.09435 0.0
H619 H 0.31498 0.50237 0.09153 0.0
H620 H 0.19597 0.38351 0.08467 0.0
H621 H 0.23813 0.45899 0.0675 0.0
H622 H 0.18211 0.54324 0.13835 0.0
H623 H 0.13985 0.46671 0.15606 0.0
C624 C 0.26248 0.63894 0.08557 0.0
C625 C 0.31485 0.63003 0.08284 0.0
C626 C 0.22921 0.59892 0.09131 0.0
C627 C 0.24765 0.54927 0.09373 0.0
C628 C 0.29964 0.54023 0.08957 0.0
C629 C 0.33293 0.58022 0.0845 0.0
C630 C 0.19181 0.41824 0.09648 0.0
C631 C 0.16525 0.41886 0.12205 0.0
C632 C 0.21603 0.46146 0.08656 0.0
C633 C 0.214 0.50669 0.10176 0.0
C634 C 0.18416 0.50873 0.1262 0.0
C635 C 0.15996 0.46503 0.13632 0.0
H636 H 0.96291 0.87349 0.33382 0.0
H637 H 0.85857 0.74804 0.33632 0.0
H638 H 0.03344 0.81553 0.34204 0.0
H639 H 0.92937 0.68992 0.34523 0.0
H640 H 0.07015 0.64087 0.40647 0.0
H641 H 0.99314 0.68261 0.38882 0.0
H642 H 0.0772 0.73922 0.31801 0.0
H643 H 0.15321 0.69763 0.33519 0.0
C644 C 0.95528 0.83335 0.33546 0.0
C645 C 0.90543 0.81523 0.33409 0.0
C646 C 0.99555 0.80017 0.34026 0.0
C647 C 0.98676 0.74826 0.34439 0.0
C648 C 0.93708 0.72977 0.3422 0.0
C649 C 0.89677 0.76293 0.33675 0.0
C650 C 0.07167 0.66099 0.38676 0.0
C651 C 0.11789 0.66673 0.37251 0.0
C652 C 0.02771 0.68487 0.37666 0.0
C653 C 0.02959 0.71477 0.35228 0.0
C654 C 0.07489 0.71709 0.33705 0.0
C655 C 0.11838 0.69323 0.34696 0.0
loop_
_geom_bond_atom_site_label_1
_geom_bond_atom_site_label_2
_geom_bond_distance
_geom_bond_site_symmetry_2
_ccdc_geom_bond_type
Fe0 O2 1.918 . S
Fe0 O5 1.997 . S
Fe0 O6 2.002 . S
Fe0 O11 1.976 . S
Fe0 O14 1.996 . S
Fe1 O2 1.918 . S
Fe1 O9 1.997 . S
Fe1 O12 1.996 . S
Fe1 O16 1.976 . S
Fe1 O19 2.002 . S
O2 Fe0 1.918 . S
O2 Fe1 1.918 . S
O2 Fe3 1.918 . S
Fe3 O2 1.918 . S
Fe3 O4 2.002 . S
Fe3 O13 1.976 . S
Fe3 O17 1.996 . S
Fe3 O20 1.997 . S
O4 Fe3 2.002 . S
O4 C21 1.295 1_455 S
O5 Fe0 1.997 . S
O5 C21 1.235 1_455 S
O6 Fe0 2.002 . S
O6 C7 1.295 . S
C7 O6 1.295 . S
C7 O9 1.235 . S
C8 O13 1.287 1_655 S
C8 O14 1.255 1_655 S
O9 Fe1 1.997 . S
O9 C7 1.235 . S
C10 O16 1.287 . S
C10 O17 1.255 . S
O11 Fe0 1.976 . S
O11 C18 1.287 . S
O12 Fe1 1.996 . S
O12 C18 1.255 . S
O13 Fe3 1.976 . S
O13 C8 1.287 1_455 S
O14 Fe0 1.996 . S
O14 C8 1.255 1_455 S
C15 O19 1.295 . S
C15 O20 1.235 . S
O16 Fe1 1.976 . S
O16 C10 1.287 . S
O17 Fe3 1.996 . S
O17 C10 1.255 . S
C18 O11 1.287 . S
C18 O12 1.255 . S
O19 Fe1 2.002 . S
O19 C15 1.295 . S
O20 Fe3 1.997 . S
O20 C15 1.235 . S
C21 O4 1.295 1_655 S
C21 O5 1.235 1_655 S
Fe22 O24 1.918 . S
Fe22 O27 1.997 . S
Fe22 O28 2.002 . S
Fe22 O33 1.976 . S
Fe22 O36 1.996 . S
Fe23 O24 1.918 . S
Fe23 O31 1.997 . S
Fe23 O34 1.996 . S
Fe23 O38 1.976 . S
Fe23 O41 2.002 . S
O24 Fe22 1.918 . S
O24 Fe23 1.918 . S
O24 Fe25 1.918 . S
Fe25 O24 1.918 . S
Fe25 O26 2.002 . S
Fe25 O35 1.976 . S
Fe25 O39 1.996 . S
Fe25 O42 1.997 . S
O26 Fe25 2.002 . S
O26 C43 1.295 . S
O27 Fe22 1.997 . S
O27 C43 1.235 . S
O28 Fe22 2.002 . S
O28 C29 1.295 . S
C29 O28 1.295 . S
C29 O31 1.235 . S
C30 O35 1.287 . S
C30 O36 1.255 . S
O31 Fe23 1.997 . S
O31 C29 1.235 . S
C32 O38 1.287 . S
C32 O39 1.255 . S
O33 Fe22 1.976 . S
O33 C40 1.287 . S
O34 Fe23 1.996 . S
O34 C40 1.255 . S
O35 Fe25 1.976 . S
O35 C30 1.287 . S
O36 Fe22 1.996 . S
O36 C30 1.255 . S
C37 O41 1.295 . S
C37 O42 1.235 . S
O38 Fe23 1.976 . S
O38 C32 1.287 . S
O39 Fe25 1.996 . S
O39 C32 1.255 . S
C40 O33 1.287 . S
C40 O34 1.255 . S
O41 Fe23 2.002 . S
O41 C37 1.295 . S
O42 Fe25 1.997 . S
O42 C37 1.235 . S
C43 O26 1.295 . S
C43 O27 1.235 . S
Fe44 O46 1.918 . S
Fe44 O49 1.997 . S
Fe44 O50 2.002 . S
Fe44 O55 1.976 . S
Fe44 O58 1.996 . S
Fe45 O46 1.918 . S
Fe45 O53 1.997 . S
Fe45 O56 1.996 . S
Fe45 O60 1.976 . S
Fe45 O63 2.002 . S
O46 Fe44 1.918 . S
O46 Fe45 1.918 . S
O46 Fe47 1.918 . S
Fe47 O46 1.918 . S
Fe47 O48 2.002 . S
Fe47 O57 1.976 . S
Fe47 O61 1.996 . S
Fe47 O64 1.997 . S
O48 Fe47 2.002 . S
O48 C65 1.295 1_655 S
O49 Fe44 1.997 . S
O49 C65 1.235 1_655 S
O50 Fe44 2.002 . S
O50 C51 1.295 . S
C51 O50 1.295 . S
C51 O53 1.235 . S
C52 O57 1.287 1_455 S
C52 O58 1.255 1_455 S
O53 Fe45 1.997 . S
O53 C51 1.235 . S
C54 O60 1.287 . S
C54 O61 1.255 . S
O55 Fe44 1.976 . S
O55 C62 1.287 . S
O56 Fe45 1.996 . S
O56 C62 1.255 . S
O57 Fe47 1.976 . S
O57 C52 1.287 1_655 S
O58 Fe44 1.996 . S
O58 C52 1.255 1_655 S
C59 O63 1.295 . S
C59 O64 1.235 . S
O60 Fe45 1.976 . S
O60 C54 1.287 . S
O61 Fe47 1.996 . S
O61 C54 1.255 . S
C62 O55 1.287 . S
C62 O56 1.255 . S
O63 Fe45 2.002 . S
O63 C59 1.295 . S
O64 Fe47 1.997 . S
O64 C59 1.235 . S
C65 O48 1.295 1_455 S
C65 O49 1.235 1_455 S
Fe66 O68 1.918 . S
Fe66 O71 1.997 . S
Fe66 O72 2.002 . S
Fe66 O77 1.976 . S
Fe66 O80 1.996 . S
Fe67 O68 1.918 . S
Fe67 O75 1.997 . S
Fe67 O78 1.996 . S
Fe67 O82 1.976 . S
Fe67 O85 2.002 . S
O68 Fe66 1.918 . S
O68 Fe67 1.918 . S
O68 Fe69 1.918 . S
Fe69 O68 1.918 . S
Fe69 O70 2.002 . S
Fe69 O79 1.976 . S
Fe69 O83 1.996 . S
Fe69 O86 1.997 . S
O70 Fe69 2.002 . S
O70 C87 1.295 . S
O71 Fe66 1.997 . S
O71 C87 1.235 . S
O72 Fe66 2.002 . S
O72 C73 1.295 . S
C73 O72 1.295 . S
C73 O75 1.235 . S
C74 O79 1.287 . S
C74 O80 1.255 . S
O75 Fe67 1.997 . S
O75 C73 1.235 . S
C76 O82 1.287 . S
C76 O83 1.255 . S
O77 Fe66 1.976 . S
O77 C84 1.287 . S
O78 Fe67 1.996 . S
O78 C84 1.255 . S
O79 Fe69 1.976 . S
O79 C74 1.287 . S
O80 Fe66 1.996 . S
O80 C74 1.255 . S
C81 O85 1.295 . S
C81 O86 1.235 . S
O82 Fe67 1.976 . S
O82 C76 1.287 . S
O83 Fe69 1.996 . S
O83 C76 1.255 . S
C84 O77 1.287 . S
C84 O78 1.255 . S
O85 Fe67 2.002 . S
O85 C81 1.295 . S
O86 Fe69 1.997 . S
O86 C81 1.235 . S
C87 O70 1.295 . S
C87 O71 1.235 . S
Fe88 O90 1.918 . S
Fe88 O93 1.997 . S
Fe88 O94 2.002 . S
Fe88 O99 1.976 . S
Fe88 O102 1.996 . S
Fe89 O90 1.918 . S
Fe89 O97 1.997 . S
Fe89 O100 1.996 . S
Fe89 O104 1.976 . S
Fe89 O107 2.002 . S
O90 Fe88 1.918 . S
O90 Fe89 1.918 . S
O90 Fe91 1.918 . S
Fe91 O90 1.918 . S
Fe91 O92 2.002 . S
Fe91 O101 1.976 . S
Fe91 O105 1.996 . S
Fe91 O108 1.997 . S
O92 Fe91 2.002 . S
O92 C109 1.295 . S
O93 Fe88 1.997 . S
O93 C109 1.235 . S
O94 Fe88 2.002 . S
O94 C95 1.295 . S
C95 O94 1.295 . S
C95 O97 1.235 . S
C96 O101 1.287 . S
C96 O102 1.255 . S
O97 Fe89 1.997 . S
O97 C95 1.235 . S
C98 O104 1.287 . S
C98 O105 1.255 . S
O99 Fe88 1.976 . S
O99 C106 1.287 . S
O100 Fe89 1.996 . S
O100 C106 1.255 . S
O101 Fe91 1.976 . S
O101 C96 1.287 . S
O102 Fe88 1.996 . S
O102 C96 1.255 . S
C103 O107 1.295 . S
C103 O108 1.235 . S
O104 Fe89 1.976 . S
O104 C98 1.287 . S
O105 Fe91 1.996 . S
O105 C98 1.255 . S
C106 O99 1.287 . S
C106 O100 1.255 . S
O107 Fe89 2.002 . S
O107 C103 1.295 . S
O108 Fe91 1.997 . S
O108 C103 1.235 . S
C109 O92 1.295 . S
C109 O93 1.235 . S
Fe110 O112 1.918 . S
Fe110 O115 1.997 . S
Fe110 O116 2.002 . S
Fe110 O121 1.976 . S
Fe110 O124 1.996 . S
Fe111 O112 1.918 . S
Fe111 O119 1.997 . S
Fe111 O122 1.996 . S
Fe111 O126 1.976 . S
Fe111 O129 2.002 . S
O112 Fe110 1.918 . S
O112 Fe111 1.918 . S
O112 Fe113 1.918 . S
Fe113 O112 1.918 . S
Fe113 O114 2.002 . S
Fe113 O123 1.976 . S
Fe113 O127 1.996 . S
Fe113 O130 1.997 . S
O114 Fe113 2.002 . S
O114 C131 1.295 . S
O115 Fe110 1.997 . S
O115 C131 1.235 . S
O116 Fe110 2.002 . S
O116 C117 1.295 . S
C117 O116 1.295 . S
C117 O119 1.235 . S
C118 O123 1.287 . S
C118 O124 1.255 . S
O119 Fe111 1.997 . S
O119 C117 1.235 . S
C120 O126 1.287 1_565 S
C120 O127 1.255 1_565 S
O121 Fe110 1.976 . S
O121 C128 1.287 . S
O122 Fe111 1.996 . S
O122 C128 1.255 . S
O123 Fe113 1.976 . S
O123 C118 1.287 . S
O124 Fe110 1.996 . S
O124 C118 1.255 . S
C125 O129 1.295 1_565 S
C125 O130 1.235 1_565 S
O126 Fe111 1.976 . S
O126 C120 1.287 1_545 S
O127 Fe113 1.996 . S
O127 C120 1.255 1_545 S
C128 O121 1.287 . S
C128 O122 1.255 . S
O129 Fe111 2.002 . S
O129 C125 1.295 1_545 S
O130 Fe113 1.997 . S
O130 C125 1.235 1_545 S
C131 O114 1.295 . S
C131 O115 1.235 . S
Fe132 O134 1.918 . S
Fe132 O137 1.997 . S
Fe132 O138 2.002 . S
Fe132 O143 1.976 . S
Fe132 O146 1.996 . S
Fe133 O134 1.918 . S
Fe133 O141 1.997 . S
Fe133 O144 1.996 . S
Fe133 O148 1.976 . S
Fe133 O151 2.002 . S
O134 Fe132 1.918 . S
O134 Fe133 1.918 . S
O134 Fe135 1.918 . S
Fe135 O134 1.918 . S
Fe135 O136 2.002 . S
Fe135 O145 1.976 . S
Fe135 O149 1.996 . S
Fe135 O152 1.997 . S
O136 Fe135 2.002 . S
O136 C153 1.295 . S
O137 Fe132 1.997 . S
O137 C153 1.235 . S
O138 Fe132 2.002 . S
O138 C139 1.295 . S
C139 O138 1.295 . S
C139 O141 1.235 . S
C140 O145 1.287 . S
C140 O146 1.255 . S
O141 Fe133 1.997 . S
O141 C139 1.235 . S
C142 O148 1.287 . S
C142 O149 1.255 . S
O143 Fe132 1.976 . S
O143 C150 1.287 . S
O144 Fe133 1.996 . S
O144 C150 1.255 . S
O145 Fe135 1.976 . S
O145 C140 1.287 . S
O146 Fe132 1.996 . S
O146 C140 1.255 . S
C147 O151 1.295 . S
C147 O152 1.235 . S
O148 Fe133 1.976 . S
O148 C142 1.287 . S
O149 Fe135 1.996 . S
O149 C142 1.255 . S
C150 O143 1.287 . S
C150 O144 1.255 . S
O151 Fe133 2.002 . S
O151 C147 1.295 . S
O152 Fe135 1.997 . S
O152 C147 1.235 . S
C153 O136 1.295 . S
C153 O137 1.235 . S
Fe154 O156 1.918 . S
Fe154 O159 1.997 . S
Fe154 O160 2.002 . S
Fe154 O165 1.976 . S
Fe154 O168 1.996 . S
Fe155 O156 1.918 . S
Fe155 O163 1.997 . S
Fe155 O166 1.996 . S
Fe155 O170 1.976 . S
Fe155 O173 2.002 . S
O156 Fe154 1.918 . S
O156 Fe155 1.918 . S
O156 Fe157 1.918 . S
Fe157 O156 1.918 . S
Fe157 O158 2.002 . S
Fe157 O167 1.976 . S
Fe157 O171 1.996 . S
Fe157 O174 1.997 . S
O158 Fe157 2.002 . S
O158 C175 1.295 1_565 S
O159 Fe154 1.997 . S
O159 C175 1.235 1_565 S
O160 Fe154 2.002 . S
O160 C161 1.295 . S
C161 O160 1.295 . S
C161 O163 1.235 . S
C162 O167 1.287 1_545 S
C162 O168 1.255 1_545 S
O163 Fe155 1.997 . S
O163 C161 1.235 . S
C164 O170 1.287 . S
C164 O171 1.255 . S
O165 Fe154 1.976 . S
O165 C172 1.287 . S
O166 Fe155 1.996 . S
O166 C172 1.255 . S
O167 Fe157 1.976 . S
O167 C162 1.287 1_565 S
O168 Fe154 1.996 . S
O168 C162 1.255 1_565 S
C169 O173 1.295 . S
C169 O174 1.235 . S
O170 Fe155 1.976 . S
O170 C164 1.287 . S
O171 Fe157 1.996 . S
O171 C164 1.255 . S
C172 O165 1.287 . S
C172 O166 1.255 . S
O173 Fe155 2.002 . S
O173 C169 1.295 . S
O174 Fe157 1.997 . S
O174 C169 1.235 . S
C175 O158 1.295 1_545 S
C175 O159 1.235 1_545 S
H176 C184 0.950 1_455 S
H177 C189 0.950 . S
H178 C186 0.950 . S
H179 C188 0.950 . S
H180 C190 0.950 . S
H181 C192 0.950 . S
H182 C194 0.950 . S
H183 C195 0.950 . S
C184 H176 0.950 1_655 S
C184 C185 1.386 . S
C184 C186 1.391 . S
C185 C184 1.386 . S
C185 C189 1.393 . S
C186 H178 0.950 . S
C186 C184 1.391 . S
C186 C187 1.400 . S
C187 C186 1.400 . S
C187 C188 1.398 . S
C187 C193 1.491 . S
C188 H179 0.950 . S
C188 C187 1.398 . S
C188 C189 1.391 . S
C189 H177 0.950 . S
C189 C185 1.393 . S
C189 C188 1.391 . S
C190 H180 0.950 . S
C190 C191 1.386 . S
C190 C192 1.391 . S
C191 C190 1.386 . S
C191 C195 1.393 . S
C192 H181 0.950 . S
C192 C190 1.391 . S
C192 C193 1.400 . S
C193 C187 1.491 . S
C193 C192 1.400 . S
C193 C194 1.398 . S
C194 H182 0.950 . S
C194 C193 1.398 . S
C194 C195 1.391 . S
C195 H183 0.950 . S
C195 C191 1.393 . S
C195 C194 1.391 . S
H196 C204 0.950 . S
H197 C209 0.950 . S
H198 C206 0.950 . S
H199 C208 0.950 . S
H200 C210 0.950 . S
H201 C212 0.950 . S
H202 C214 0.950 . S
H203 C215 0.950 . S
C204 H196 0.950 . S
C204 C205 1.386 . S
C204 C206 1.391 . S
C205 C204 1.386 . S
C205 C209 1.393 . S
C206 H198 0.950 . S
C206 C204 1.391 . S
C206 C207 1.400 . S
C207 C206 1.400 . S
C207 C208 1.398 . S
C207 C213 1.491 . S
C208 H199 0.950 . S
C208 C207 1.398 . S
C208 C209 1.391 . S
C209 H197 0.950 . S
C209 C205 1.393 . S
C209 C208 1.391 . S
C210 H200 0.950 . S
C210 C211 1.386 . S
C210 C212 1.391 . S
C211 C210 1.386 . S
C211 C215 1.393 . S
C212 H201 0.950 . S
C212 C210 1.391 . S
C212 C213 1.400 . S
C213 C207 1.491 . S
C213 C212 1.400 . S
C213 C214 1.398 . S
C214 H202 0.950 . S
C214 C213 1.398 . S
C214 C215 1.391 . S
C215 H203 0.950 . S
C215 C211 1.393 . S
C215 C214 1.391 . S
H216 C224 0.950 . S
H217 C229 0.950 . S
H218 C226 0.950 . S
H219 C228 0.950 . S
H220 C230 0.950 . S
H221 C232 0.950 . S
H222 C234 0.950 . S
H223 C235 0.950 . S
C224 H216 0.950 . S
C224 C225 1.386 . S
C224 C226 1.391 . S
C225 C224 1.386 . S
C225 C229 1.393 . S
C226 H218 0.950 . S
C226 C224 1.391 . S
C226 C227 1.400 . S
C227 C226 1.400 . S
C227 C228 1.398 . S
C227 C233 1.491 . S
C228 H219 0.950 . S
C228 C227 1.398 . S
C228 C229 1.391 . S
C229 H217 0.950 . S
C229 C225 1.393 . S
C229 C228 1.391 . S
C230 H220 0.950 . S
C230 C231 1.386 . S
C230 C232 1.391 . S
C231 C230 1.386 . S
C231 C235 1.393 . S
C232 H221 0.950 . S
C232 C230 1.391 . S
C232 C233 1.400 . S
C233 C227 1.491 . S
C233 C232 1.400 . S
C233 C234 1.398 . S
C234 H222 0.950 . S
C234 C233 1.398 . S
C234 C235 1.391 . S
C235 H223 0.950 . S
C235 C231 1.393 . S
C235 C234 1.391 . S
H236 C244 0.950 . S
H237 C249 0.950 . S
H238 C246 0.950 . S
H239 C248 0.950 1_556 S
H240 C250 0.950 . S
H241 C252 0.950 . S
H242 C254 0.950 1_554 S
H243 C255 0.950 . S
C244 H236 0.950 . S
C244 C245 1.386 . S
C244 C246 1.391 . S
C245 C244 1.386 . S
C245 C249 1.393 . S
C246 H238 0.950 . S
C246 C244 1.391 . S
C246 C247 1.400 . S
C247 C246 1.400 . S
C247 C248 1.398 . S
C247 C253 1.491 1_554 S
C248 H239 0.950 1_554 S
C248 C247 1.398 . S
C248 C249 1.391 . S
C249 H237 0.950 . S
C249 C245 1.393 . S
C249 C248 1.391 . S
C250 H240 0.950 . S
C250 C251 1.386 . S
C250 C252 1.391 . S
C251 C250 1.386 . S
C251 C255 1.393 . S
C252 H241 0.950 . S
C252 C250 1.391 . S
C252 C253 1.400 . S
C253 C247 1.491 1_556 S
C253 C252 1.400 . S
C253 C254 1.398 . S
C254 H242 0.950 1_556 S
C254 C253 1.398 . S
C254 C255 1.391 . S
C255 H243 0.950 . S
C255 C251 1.393 . S
C255 C254 1.391 . S
H256 C264 0.950 . S
H257 C269 0.950 . S
H258 C266 0.950 . S
H259 C268 0.950 . S
H260 C270 0.950 . S
H261 C272 0.950 . S
H262 C274 0.950 . S
H263 C275 0.950 . S
C264 H256 0.950 . S
C264 C265 1.386 . S
C264 C266 1.391 . S
C265 C264 1.386 . S
C265 C269 1.393 . S
C266 H258 0.950 . S
C266 C264 1.391 . S
C266 C267 1.400 . S
C267 C266 1.400 . S
C267 C268 1.398 . S
C267 C273 1.491 . S
C268 H259 0.950 . S
C268 C267 1.398 . S
C268 C269 1.391 . S
C269 H257 0.950 . S
C269 C265 1.393 . S
C269 C268 1.391 . S
C270 H260 0.950 . S
C270 C271 1.386 . S
C270 C272 1.391 . S
C271 C270 1.386 . S
C271 C275 1.393 . S
C272 H261 0.950 . S
C272 C270 1.391 . S
C272 C273 1.400 . S
C273 C267 1.491 . S
C273 C272 1.400 . S
C273 C274 1.398 . S
C274 H262 0.950 . S
C274 C273 1.398 . S
C274 C275 1.391 . S
C275 H263 0.950 . S
C275 C271 1.393 . S
C275 C274 1.391 . S
H276 C284 0.950 . S
H277 C289 0.950 . S
H278 C286 0.950 . S
H279 C288 0.950 . S
H280 C290 0.950 . S
H281 C292 0.950 . S
H282 C294 0.950 . S
H283 C295 0.950 . S
C284 H276 0.950 . S
C284 C285 1.386 . S
C284 C286 1.391 . S
C285 C284 1.386 . S
C285 C289 1.393 . S
C286 H278 0.950 . S
C286 C284 1.391 . S
C286 C287 1.400 . S
C287 C286 1.400 . S
C287 C288 1.398 . S
C287 C293 1.491 . S
C288 H279 0.950 . S
C288 C287 1.398 . S
C288 C289 1.391 . S
C289 H277 0.950 . S
C289 C285 1.393 . S
C289 C288 1.391 . S
C290 H280 0.950 . S
C290 C291 1.386 . S
C290 C292 1.391 . S
C291 C290 1.386 . S
C291 C295 1.393 . S
C292 H281 0.950 . S
C292 C290 1.391 . S
C292 C293 1.400 . S
C293 C287 1.491 . S
C293 C292 1.400 . S
C293 C294 1.398 . S
C294 H282 0.950 . S
C294 C293 1.398 . S
C294 C295 1.391 . S
C295 H283 0.950 . S
C295 C291 1.393 . S
C295 C294 1.391 . S
H296 C304 0.950 . S
H297 C309 0.950 . S
H298 C306 0.950 . S
H299 C308 0.950 . S
H300 C310 0.950 . S
H301 C312 0.950 . S
H302 C314 0.950 . S
H303 C315 0.950 . S
C304 H296 0.950 . S
C304 C305 1.386 . S
C304 C306 1.391 . S
C305 C304 1.386 . S
C305 C309 1.393 . S
C306 H298 0.950 . S
C306 C304 1.391 . S
C306 C307 1.400 . S
C307 C306 1.400 . S
C307 C308 1.398 . S
C307 C313 1.491 . S
C308 H299 0.950 . S
C308 C307 1.398 . S
C308 C309 1.391 . S
C309 H297 0.950 . S
C309 C305 1.393 . S
C309 C308 1.391 . S
C310 H300 0.950 . S
C310 C311 1.386 . S
C310 C312 1.391 . S
C311 C310 1.386 . S
C311 C315 1.393 . S
C312 H301 0.950 . S
C312 C310 1.391 . S
C312 C313 1.400 . S
C313 C307 1.491 . S
C313 C312 1.400 . S
C313 C314 1.398 . S
C314 H302 0.950 . S
C314 C313 1.398 . S
C314 C315 1.391 . S
C315 H303 0.950 . S
C315 C311 1.393 . S
C315 C314 1.391 . S
H316 C324 0.966 . S
H317 C329 0.950 . S
H318 C326 0.950 . S
H319 C328 0.950 . S
H320 C330 0.950 . S
H321 C332 0.950 . S
H322 C334 0.950 . S
H323 C335 0.950 . S
C324 H316 0.966 . S
C324 C325 1.386 . S
C324 C326 1.391 . S
C325 C324 1.386 . S
C325 C329 1.393 . S
C326 H318 0.950 . S
C326 C324 1.391 . S
C326 C327 1.400 . S
C327 C326 1.400 . S
C327 C328 1.398 . S
C327 C333 1.491 . S
C328 H319 0.950 . S
C328 C327 1.398 . S
C328 C329 1.391 . S
C329 H317 0.950 . S
C329 C325 1.393 . S
C329 C328 1.391 . S
C330 H320 0.950 . S
C330 C331 1.386 . S
C330 C332 1.391 1_556 S
C331 C330 1.386 . S
C331 C335 1.393 . S
C332 H321 0.950 . S
C332 C330 1.391 1_554 S
C332 C333 1.400 . S
C333 C327 1.491 . S
C333 C332 1.400 . S
C333 C334 1.398 . S
C334 H322 0.950 . S
C334 C333 1.398 . S
C334 C335 1.391 1_554 S
C335 H323 0.950 . S
C335 C331 1.393 . S
C335 C334 1.391 1_556 S
H336 C344 0.950 . S
H337 C349 0.950 . S
H338 C346 0.950 . S
H339 C348 0.950 . S
H340 C350 0.950 . S
H341 C352 0.950 . S
H342 C354 0.950 . S
H343 C355 0.950 . S
C344 H336 0.950 . S
C344 C345 1.386 . S
C344 C346 1.391 . S
C345 C344 1.386 . S
C345 C349 1.393 . S
C346 H338 0.950 . S
C346 C344 1.391 . S
C346 C347 1.400 . S
C347 C346 1.400 . S
C347 C348 1.398 . S
C347 C353 1.491 . S
C348 H339 0.950 . S
C348 C347 1.398 . S
C348 C349 1.391 . S
C349 H337 0.950 . S
C349 C345 1.393 . S
C349 C348 1.391 . S
C350 H340 0.950 . S
C350 C351 1.386 . S
C350 C352 1.391 . S
C351 C350 1.386 . S
C351 C355 1.393 . S
C352 H341 0.950 . S
C352 C350 1.391 . S
C352 C353 1.400 . S
C353 C347 1.491 . S
C353 C352 1.400 . S
C353 C354 1.398 . S
C354 H342 0.950 . S
C354 C353 1.398 . S
C354 C355 1.391 . S
C355 H343 0.950 . S
C355 C351 1.393 . S
C355 C354 1.391 . S
H356 C364 0.950 . S
H357 C369 0.950 . S
H358 C366 0.950 . S
H359 C368 0.950 . S
H360 C370 0.950 . S
H361 C372 0.950 . S
H362 C374 0.950 . S
H363 C375 0.950 . S
C364 H356 0.950 . S
C364 C365 1.386 . S
C364 C366 1.391 . S
C365 C364 1.386 . S
C365 C369 1.393 . S
C366 H358 0.950 . S
C366 C364 1.391 . S
C366 C367 1.400 . S
C367 C366 1.400 . S
C367 C368 1.398 . S
C367 C373 1.491 . S
C368 H359 0.950 . S
C368 C367 1.398 . S
C368 C369 1.391 . S
C369 H357 0.950 . S
C369 C365 1.393 . S
C369 C368 1.391 . S
C370 H360 0.950 . S
C370 C371 1.386 . S
C370 C372 1.391 . S
C371 C370 1.386 . S
C371 C375 1.393 . S
C372 H361 0.950 . S
C372 C370 1.391 . S
C372 C373 1.400 . S
C373 C367 1.491 . S
C373 C372 1.400 . S
C373 C374 1.398 . S
C374 H362 0.950 . S
C374 C373 1.398 . S
C374 C375 1.391 . S
C375 H363 0.950 . S
C375 C371 1.393 . S
C375 C374 1.391 . S
H376 C384 0.950 . S
H377 C389 0.950 . S
H378 C386 0.950 . S
H379 C388 0.950 . S
H380 C390 0.950 . S
H381 C392 0.950 . S
H382 C394 0.950 . S
H383 C395 0.950 1_545 S
C384 H376 0.950 . S
C384 C385 1.386 . S
C384 C386 1.391 . S
C385 C384 1.386 . S
C385 C389 1.393 1_554 S
C386 H378 0.950 . S
C386 C384 1.391 . S
C386 C387 1.400 1_554 S
C387 C386 1.400 1_556 S
C387 C388 1.398 . S
C387 C393 1.491 . S
C388 H379 0.950 . S
C388 C387 1.398 . S
C388 C389 1.391 . S
C389 H377 0.950 . S
C389 C385 1.393 1_556 S
C389 C388 1.391 . S
C390 H380 0.950 . S
C390 C391 1.386 . S
C390 C392 1.391 . S
C391 C390 1.386 . S
C391 C395 1.393 . S
C392 H381 0.950 . S
C392 C390 1.391 . S
C392 C393 1.400 . S
C393 C387 1.491 . S
C393 C392 1.400 . S
C393 C394 1.398 . S
C394 H382 0.950 . S
C394 C393 1.398 . S
C394 C395 1.391 . S
C395 H383 0.950 1_565 S
C395 C391 1.393 . S
C395 C394 1.391 . S
H396 C404 0.950 . S
H397 C409 0.950 . S
H398 C406 0.950 . S
H399 C408 0.950 . S
H400 C410 0.950 . S
H401 C412 0.950 . S
H402 C414 0.950 . S
H403 C415 0.950 . S
C404 H396 0.950 . S
C404 C405 1.386 . S
C404 C406 1.391 . S
C405 C404 1.386 . S
C405 C409 1.393 . S
C406 H398 0.950 . S
C406 C404 1.391 . S
C406 C407 1.400 . S
C407 C406 1.400 . S
C407 C408 1.398 . S
C407 C413 1.491 . S
C408 H399 0.950 . S
C408 C407 1.398 . S
C408 C409 1.391 . S
C409 H397 0.950 . S
C409 C405 1.393 . S
C409 C408 1.391 . S
C410 H400 0.950 . S
C410 C411 1.386 . S
C410 C412 1.391 . S
C411 C410 1.386 . S
C411 C415 1.393 . S
C412 H401 0.950 . S
C412 C410 1.391 . S
C412 C413 1.400 . S
C413 C407 1.491 . S
C413 C412 1.400 . S
C413 C414 1.398 . S
C414 H402 0.950 . S
C414 C413 1.398 . S
C414 C415 1.391 . S
C415 H403 0.950 . S
C415 C411 1.393 . S
C415 C414 1.391 . S
H416 C424 0.950 . S
H417 C429 0.950 . S
H418 C426 0.950 . S
H419 C428 0.950 . S
H420 C430 0.950 . S
H421 C432 0.950 . S
H422 C434 0.950 . S
H423 C435 0.950 . S
C424 H416 0.950 . S
C424 C425 1.386 . S
C424 C426 1.391 . S
C425 C424 1.386 . S
C425 C429 1.393 . S
C426 H418 0.950 . S
C426 C424 1.391 . S
C426 C427 1.400 . S
C427 C426 1.400 . S
C427 C428 1.398 . S
C427 C433 1.491 1_556 S
C428 H419 0.950 . S
C428 C427 1.398 . S
C428 C429 1.391 . S
C429 H417 0.950 . S
C429 C425 1.393 . S
C429 C428 1.391 . S
C430 H420 0.950 . S
C430 C431 1.386 . S
C430 C432 1.391 . S
C431 C430 1.386 . S
C431 C435 1.393 . S
C432 H421 0.950 . S
C432 C430 1.391 . S
C432 C433 1.400 . S
C433 C427 1.491 1_554 S
C433 C432 1.400 . S
C433 C434 1.398 . S
C434 H422 0.950 . S
C434 C433 1.398 . S
C434 C435 1.391 . S
C435 H423 0.950 . S
C435 C431 1.393 . S
C435 C434 1.391 . S
H436 C444 0.950 . S
H437 C449 0.950 . S
H438 C446 0.950 . S
H439 C448 0.950 . S
H440 C450 0.950 . S
H441 C452 0.950 . S
H442 C454 0.950 . S
H443 C455 0.950 . S
C444 H436 0.950 . S
C444 C445 1.386 . S
C444 C446 1.391 . S
C445 C444 1.386 . S
C445 C449 1.393 . S
C446 H438 0.950 . S
C446 C444 1.391 . S
C446 C447 1.400 . S
C447 C446 1.400 . S
C447 C448 1.398 . S
C447 C453 1.491 . S
C448 H439 0.950 . S
C448 C447 1.398 . S
C448 C449 1.391 . S
C449 H437 0.950 . S
C449 C445 1.393 . S
C449 C448 1.391 . S
C450 H440 0.950 . S
C450 C451 1.386 . S
C450 C452 1.391 . S
C451 C450 1.386 . S
C451 C455 1.393 . S
C452 H441 0.950 . S
C452 C450 1.391 . S
C452 C453 1.400 . S
C453 C447 1.491 . S
C453 C452 1.400 . S
C453 C454 1.398 . S
C454 H442 0.950 . S
C454 C453 1.398 . S
C454 C455 1.391 . S
C455 H443 0.950 . S
C455 C451 1.393 . S
C455 C454 1.391 . S
H456 C464 0.950 . S
H457 C469 0.950 . S
H458 C466 0.950 . S
H459 C468 0.950 . S
H460 C470 0.950 . S
H461 C472 0.950 . S
H462 C474 0.950 . S
H463 C475 0.950 . S
C464 H456 0.950 . S
C464 C465 1.386 . S
C464 C466 1.391 . S
C465 C464 1.386 . S
C465 C469 1.393 . S
C466 H458 0.950 . S
C466 C464 1.391 . S
C466 C467 1.400 . S
C467 C466 1.400 . S
C467 C468 1.398 . S
C467 C473 1.491 . S
C468 H459 0.950 . S
C468 C467 1.398 . S
C468 C469 1.391 . S
C469 H457 0.950 . S
C469 C465 1.393 . S
C469 C468 1.391 . S
C470 H460 0.950 . S
C470 C471 1.386 . S
C470 C472 1.391 . S
C471 C470 1.386 . S
C471 C475 1.393 . S
C472 H461 0.950 . S
C472 C470 1.391 . S
C472 C473 1.400 . S
C473 C467 1.491 . S
C473 C472 1.400 . S
C473 C474 1.398 . S
C474 H462 0.950 . S
C474 C473 1.398 . S
C474 C475 1.391 . S
C475 H463 0.950 . S
C475 C471 1.393 . S
C475 C474 1.391 . S
H476 C484 0.950 . S
H477 C489 0.950 . S
H478 C486 0.950 . S
H479 C488 0.950 . S
H480 C490 0.950 . S
H481 C492 0.950 . S
H482 C494 0.950 . S
H483 C495 0.950 . S
C484 H476 0.950 . S
C484 C485 1.386 . S
C484 C486 1.391 . S
C485 C484 1.386 . S
C485 C489 1.393 . S
C486 H478 0.950 . S
C486 C484 1.391 . S
C486 C487 1.400 . S
C487 C486 1.400 . S
C487 C488 1.398 . S
C487 C493 1.491 . S
C488 H479 0.950 . S
C488 C487 1.398 . S
C488 C489 1.391 . S
C489 H477 0.950 . S
C489 C485 1.393 . S
C489 C488 1.391 . S
C490 H480 0.950 . S
C490 C491 1.386 . S
C490 C492 1.391 . S
C491 C490 1.386 . S
C491 C495 1.393 . S
C492 H481 0.950 . S
C492 C490 1.391 . S
C492 C493 1.400 . S
C493 C487 1.491 . S
C493 C492 1.400 . S
C493 C494 1.398 . S
C494 H482 0.950 . S
C494 C493 1.398 . S
C494 C495 1.391 . S
C495 H483 0.950 . S
C495 C491 1.393 . S
C495 C494 1.391 . S
H496 C504 0.950 . S
H497 C509 0.950 . S
H498 C506 0.950 . S
H499 C508 0.950 1_565 S
H500 C510 0.950 . S
H501 C512 0.950 . S
H502 C514 0.950 1_545 S
H503 C515 0.950 . S
C504 H496 0.950 . S
C504 C505 1.386 . S
C504 C506 1.391 . S
C505 C504 1.386 . S
C505 C509 1.393 . S
C506 H498 0.950 . S
C506 C504 1.391 . S
C506 C507 1.400 . S
C507 C506 1.400 . S
C507 C508 1.398 . S
C507 C513 1.491 1_545 S
C508 H499 0.950 1_545 S
C508 C507 1.398 . S
C508 C509 1.391 . S
C509 H497 0.950 . S
C509 C505 1.393 . S
C509 C508 1.391 . S
C510 H500 0.950 . S
C510 C511 1.386 . S
C510 C512 1.391 . S
C511 C510 1.386 . S
C511 C515 1.393 . S
C512 H501 0.950 . S
C512 C510 1.391 . S
C512 C513 1.400 . S
C513 C507 1.491 1_565 S
C513 C512 1.400 . S
C513 C514 1.398 . S
C514 H502 0.950 1_565 S
C514 C513 1.398 . S
C514 C515 1.391 . S
C515 H503 0.950 . S
C515 C511 1.393 . S
C515 C514 1.391 . S
H516 C524 0.950 . S
H517 C529 0.950 . S
H518 C526 0.950 . S
H519 C528 0.950 . S
H520 C530 0.950 . S
H521 C532 0.950 . S
H522 C534 0.950 . S
H523 C535 0.950 . S
C524 H516 0.950 . S
C524 C525 1.386 . S
C524 C526 1.391 . S
C525 C524 1.386 . S
C525 C529 1.393 . S
C526 H518 0.950 . S
C526 C524 1.391 . S
C526 C527 1.400 . S
C527 C526 1.400 . S
C527 C528 1.398 . S
C527 C533 1.491 . S
C528 H519 0.950 . S
C528 C527 1.398 . S
C528 C529 1.391 . S
C529 H517 0.950 . S
C529 C525 1.393 . S
C529 C528 1.391 . S
C530 H520 0.950 . S
C530 C531 1.386 . S
C530 C532 1.391 . S
C531 C530 1.386 . S
C531 C535 1.393 . S
C532 H521 0.950 . S
C532 C530 1.391 . S
C532 C533 1.400 . S
C533 C527 1.491 . S
C533 C532 1.400 . S
C533 C534 1.398 . S
C534 H522 0.950 . S
C534 C533 1.398 . S
C534 C535 1.391 . S
C535 H523 0.950 . S
C535 C531 1.393 . S
C535 C534 1.391 . S
H536 C544 0.950 . S
H537 C549 0.950 . S
H538 C546 0.950 . S
H539 C548 0.950 1_565 S
H540 C550 0.950 . S
H541 C552 0.950 . S
H542 C554 0.950 1_545 S
H543 C555 0.950 . S
C544 H536 0.950 . S
C544 C545 1.386 . S
C544 C546 1.391 . S
C545 C544 1.386 . S
C545 C549 1.393 . S
C546 H538 0.950 . S
C546 C544 1.391 . S
C546 C547 1.400 . S
C547 C546 1.400 . S
C547 C548 1.398 . S
C547 C553 1.491 1_545 S
C548 H539 0.950 1_545 S
C548 C547 1.398 . S
C548 C549 1.391 . S
C549 H537 0.950 . S
C549 C545 1.393 . S
C549 C548 1.391 . S
C550 H540 0.950 . S
C550 C551 1.386 . S
C550 C552 1.391 . S
C551 C550 1.386 . S
C551 C555 1.393 . S
C552 H541 0.950 . S
C552 C550 1.391 . S
C552 C553 1.400 . S
C553 C547 1.491 1_565 S
C553 C552 1.400 . S
C553 C554 1.398 . S
C554 H542 0.950 1_565 S
C554 C553 1.398 . S
C554 C555 1.391 . S
C555 H543 0.950 . S
C555 C551 1.393 . S
C555 C554 1.391 . S
H556 C564 0.950 . S
H557 C569 0.950 . S
H558 C566 0.950 . S
H559 C568 0.950 . S
H560 C570 0.950 . S
H561 C572 0.950 . S
H562 C574 0.950 . S
H563 C575 0.950 . S
C564 H556 0.950 . S
C564 C565 1.386 . S
C564 C566 1.391 . S
C565 C564 1.386 . S
C565 C569 1.393 . S
C566 H558 0.950 . S
C566 C564 1.391 . S
C566 C567 1.400 . S
C567 C566 1.400 . S
C567 C568 1.398 . S
C567 C573 1.491 . S
C568 H559 0.950 . S
C568 C567 1.398 . S
C568 C569 1.391 . S
C569 H557 0.950 . S
C569 C565 1.393 . S
C569 C568 1.391 . S
C570 H560 0.950 . S
C570 C571 1.386 . S
C570 C572 1.391 . S
C571 C570 1.386 . S
C571 C575 1.393 . S
C572 H561 0.950 . S
C572 C570 1.391 . S
C572 C573 1.400 . S
C573 C567 1.491 . S
C573 C572 1.400 . S
C573 C574 1.398 . S
C574 H562 0.950 . S
C574 C573 1.398 . S
C574 C575 1.391 . S
C575 H563 0.950 . S
C575 C571 1.393 . S
C575 C574 1.391 . S
H576 C584 0.950 . S
H577 C589 0.950 . S
H578 C586 0.950 . S
H579 C588 0.950 . S
H580 C590 0.950 . S
H581 C592 0.950 . S
H582 C594 0.950 . S
H583 C595 0.950 . S
C584 H576 0.950 . S
C584 C585 1.386 . S
C584 C586 1.391 . S
C585 C584 1.386 . S
C585 C589 1.393 . S
C586 H578 0.950 . S
C586 C584 1.391 . S
C586 C587 1.400 . S
C587 C586 1.400 . S
C587 C588 1.398 . S
C587 C593 1.491 . S
C588 H579 0.950 . S
C588 C587 1.398 . S
C588 C589 1.391 . S
C589 H577 0.950 . S
C589 C585 1.393 . S
C589 C588 1.391 . S
C590 H580 0.950 . S
C590 C591 1.386 . S
C590 C592 1.391 . S
C591 C590 1.386 . S
C591 C595 1.393 . S
C592 H581 0.950 . S
C592 C590 1.391 . S
C592 C593 1.400 . S
C593 C587 1.491 . S
C593 C592 1.400 . S
C593 C594 1.398 . S
C594 H582 0.950 . S
C594 C593 1.398 . S
C594 C595 1.391 . S
C595 H583 0.950 . S
C595 C591 1.393 . S
C595 C594 1.391 . S
H596 C604 0.950 . S
H597 C609 0.950 . S
H598 C606 0.950 . S
H599 C608 0.950 . S
H600 C610 0.950 . S
H601 C612 0.950 . S
H602 C614 0.950 . S
H603 C615 0.950 . S
C604 H596 0.950 . S
C604 C605 1.386 . S
C604 C606 1.391 . S
C605 C604 1.386 . S
C605 C609 1.393 . S
C606 H598 0.950 . S
C606 C604 1.391 . S
C606 C607 1.400 . S
C607 C606 1.400 . S
C607 C608 1.398 . S
C607 C613 1.491 1_455 S
C608 H599 0.950 . S
C608 C607 1.398 . S
C608 C609 1.391 . S
C609 H597 0.950 . S
C609 C605 1.393 . S
C609 C608 1.391 . S
C610 H600 0.950 . S
C610 C611 1.386 . S
C610 C612 1.391 . S
C611 C610 1.386 . S
C611 C615 1.393 . S
C612 H601 0.950 . S
C612 C610 1.391 . S
C612 C613 1.400 . S
C613 C607 1.491 1_655 S
C613 C612 1.400 . S
C613 C614 1.398 . S
C614 H602 0.950 . S
C614 C613 1.398 . S
C614 C615 1.391 . S
C615 H603 0.950 . S
C615 C611 1.393 . S
C615 C614 1.391 . S
H616 C624 0.950 . S
H617 C629 0.950 . S
H618 C626 0.950 . S
H619 C628 0.950 . S
H620 C630 0.950 . S
H621 C632 0.950 . S
H622 C634 0.950 . S
H623 C635 0.950 . S
C624 H616 0.950 . S
C624 C625 1.386 . S
C624 C626 1.391 . S
C625 C624 1.386 . S
C625 C629 1.393 . S
C626 H618 0.950 . S
C626 C624 1.391 . S
C626 C627 1.400 . S
C627 C626 1.400 . S
C627 C628 1.398 . S
C627 C633 1.491 . S
C628 H619 0.950 . S
C628 C627 1.398 . S
C628 C629 1.391 . S
C629 H617 0.950 . S
C629 C625 1.393 . S
C629 C628 1.391 . S
C630 H620 0.950 . S
C630 C631 1.386 . S
C630 C632 1.391 . S
C631 C630 1.386 . S
C631 C635 1.393 . S
C632 H621 0.950 . S
C632 C630 1.391 . S
C632 C633 1.400 . S
C633 C627 1.491 . S
C633 C632 1.400 . S
C633 C634 1.398 . S
C634 H622 0.950 . S
C634 C633 1.398 . S
C634 C635 1.391 . S
C635 H623 0.950 . S
C635 C631 1.393 . S
C635 C634 1.391 . S
H636 C644 0.950 . S
H637 C649 0.950 . S
H638 C646 0.950 1_455 S
H639 C648 0.950 . S
H640 C650 0.950 . S
H641 C652 0.950 1_655 S
H642 C654 0.950 . S
H643 C655 0.950 . S
C644 H636 0.950 . S
C644 C645 1.386 . S
C644 C646 1.391 . S
C645 C644 1.386 . S
C645 C649 1.393 . S
C646 H638 0.950 1_655 S
C646 C644 1.391 . S
C646 C647 1.400 . S
C647 C646 1.400 . S
C647 C648 1.398 . S
C647 C653 1.491 1_655 S
C648 H639 0.950 . S
C648 C647 1.398 . S
C648 C649 1.391 . S
C649 H637 0.950 . S
C649 C645 1.393 . S
C649 C648 1.391 . S
C650 H640 0.950 . S
C650 C651 1.386 . S
C650 C652 1.391 . S
C651 C650 1.386 . S
C651 C655 1.393 . S
C652 H641 0.950 1_455 S
C652 C650 1.391 . S
C652 C653 1.400 . S
C653 C647 1.491 1_455 S
C653 C652 1.400 . S
C653 C654 1.398 . S
C654 H642 0.950 . S
C654 C653 1.398 . S
C654 C655 1.391 . S
C655 H643 0.950 . S
C655 C651 1.393 . S
C655 C654 1.391 . S
C185 C8 1.577 . S
C191 C162 1.571 . S
C205 C32 1.579 . S
C211 C106 1.573 . S
C225 C52 1.580 . S
C231 C120 1.570 . S
C245 C142 1.572 . S
C251 C84 1.577 . S
C265 C10 1.315 . S
C271 C37 1.356 . S
C285 C65 1.358 . S
C291 C40 1.315 . S
C305 C73 1.359 . S
C311 C54 1.318 . S
C325 C21 1.352 . S
C331 C74 1.331 . S
C345 C96 1.315 . S
C351 C175 1.356 . S
C365 C128 1.316 . S
C371 C95 1.358 . S
C385 C150 1.319 . S
C391 C125 1.354 . S
C405 C147 1.355 . S
C411 C164 1.315 . S
C425 C131 0.709 . S
C431 C7 0.709 . S
C445 C153 0.713 . S
C451 C43 0.691 . S
C465 C161 0.690 . S
C471 C51 0.713 . S
C485 C103 0.694 . S
C491 C81 0.715 . S
C505 C18 1.557 . S
C511 C139 1.535 . S
C525 C30 1.541 . S
C531 C169 1.544 . S
C545 C109 1.556 . S
C551 C62 1.548 . S
C565 C117 1.557 . S
C571 C76 1.555 . S
C585 C59 1.541 . S
C591 C98 1.562 . S
C605 C118 1.554 . S
C611 C87 1.557 . S
C625 C140 1.563 . S
C631 C15 1.545 . S
C645 C172 1.541 . S
C651 C29 1.550 . S
