# Generated by pormake.
# Topology unf, (4)-cn, num edge types: 1
# Building blocks:
#     Node 0, Type 0, BuildingBlock: KUFVIS_clean_sbu_0, # of connection points: 4
#     Node 1, Type 0, BuildingBlock: KUFVIS_clean_sbu_0, # of connection points: 4
#     Node 2, Type 0, BuildingBlock: KUFVIS_clean_sbu_0, # of connection points: 4
#     Node 3, Type 0, BuildingBlock: KUFVIS_clean_sbu_0, # of connection points: 4
#     Node 4, Type 0, BuildingBlock: KUFVIS_clean_sbu_0, # of connection points: 4
#     Node 5, Type 0, BuildingBlock: KUFVIS_clean_sbu_0, # of connection points: 4
#     Node 6, Type 0, BuildingBlock: KUFVIS_clean_sbu_0, # of connection points: 4
#     Node 7, Type 0, BuildingBlock: KUFVIS_clean_sbu_0, # of connection points: 4
#     Node 8, Type 0, BuildingBlock: KUFVIS_clean_sbu_0, # of connection points: 4
#     Node 9, Type 0, BuildingBlock: KUFVIS_clean_sbu_0, # of connection points: 4
#     Node 10, Type 0, BuildingBlock: KUFVIS_clean_sbu_0, # of connection points: 4
#     Node 11, Type 0, BuildingBlock: KUFVIS_clean_sbu_0, # of connection points: 4
#     Edge 12, Type (0, 0), BuildingBlock: MIFKUJ_clean_linker_0, # of connection points: 2
#     Edge 13, Type (0, 0), BuildingBlock: MIFKUJ_clean_linker_0, # of connection points: 2
#     Edge 14, Type (0, 0), BuildingBlock: MIFKUJ_clean_linker_0, # of connection points: 2
#     Edge 15, Type (0, 0), BuildingBlock: MIFKUJ_clean_linker_0, # of connection points: 2
#     Edge 16, Type (0, 0), BuildingBlock: MIFKUJ_clean_linker_0, # of connection points: 2
#     Edge 17, Type (0, 0), BuildingBlock: MIFKUJ_clean_linker_0, # of connection points: 2
#     Edge 18, Type (0, 0), BuildingBlock: MIFKUJ_clean_linker_0, # of connection points: 2
#     Edge 19, Type (0, 0), BuildingBlock: MIFKUJ_clean_linker_0, # of connection points: 2
#     Edge 20, Type (0, 0), BuildingBlock: MIFKUJ_clean_linker_0, # of connection points: 2
#     Edge 21, Type (0, 0), BuildingBlock: MIFKUJ_clean_linker_0, # of connection points: 2
#     Edge 22, Type (0, 0), BuildingBlock: MIFKUJ_clean_linker_0, # of connection points: 2
#     Edge 23, Type (0, 0), BuildingBlock: MIFKUJ_clean_linker_0, # of connection points: 2
#     Edge 24, Type (0, 0), BuildingBlock: MIFKUJ_clean_linker_0, # of connection points: 2
#     Edge 25, Type (0, 0), BuildingBlock: MIFKUJ_clean_linker_0, # of connection points: 2
#     Edge 26, Type (0, 0), BuildingBlock: MIFKUJ_clean_linker_0, # of connection points: 2
#     Edge 27, Type (0, 0), BuildingBlock: MIFKUJ_clean_linker_0, # of connection points: 2
#     Edge 28, Type (0, 0), BuildingBlock: MIFKUJ_clean_linker_0, # of connection points: 2
#     Edge 29, Type (0, 0), BuildingBlock: MIFKUJ_clean_linker_0, # of connection points: 2
#     Edge 30, Type (0, 0), BuildingBlock: MIFKUJ_clean_linker_0, # of connection points: 2
#     Edge 31, Type (0, 0), BuildingBlock: MIFKUJ_clean_linker_0, # of connection points: 2
#     Edge 32, Type (0, 0), BuildingBlock: MIFKUJ_clean_linker_0, # of connection points: 2
#     Edge 33, Type (0, 0), BuildingBlock: MIFKUJ_clean_linker_0, # of connection points: 2
#     Edge 34, Type (0, 0), BuildingBlock: MIFKUJ_clean_linker_0, # of connection points: 2
#     Edge 35, Type (0, 0), BuildingBlock: MIFKUJ_clean_linker_0, # of connection points: 2
# Relax obj value: 0.237
# Max RMSD: 0.187
# Mean RMSD: 0.183
data_MOF--net-unf--node1-KUFVIS_clean_sbu_0--edge1-MIFKUJ_clean_linker_0
_symmetry_space_group_name_H-M    P1
_symmetry_Int_Tables_number       1
_symmetry_cell_setting            triclinic
loop_
_symmetry_equiv_pos_as_xyz
'x, y, z'
_cell_length_a     48.977841
_cell_length_b     49.845935
_cell_length_c     46.121914
_cell_angle_alpha  90.086747
_cell_angle_beta   89.820153
_cell_angle_gamma 119.4484
loop_
_atom_site_label
_atom_site_type_symbol
_atom_site_fract_x
_atom_site_fract_y
_atom_site_fract_z
_atom_type_partial_charge
Mn0 Mn 0.06393 0.38337 0.08889 0.0
Mn1 Mn 0.04816 0.32356 0.13309 0.0
C2 C 0.02304 0.33491 0.07835 0.0
C3 C 0.05765 0.42476 0.07474 0.0
C4 C 0.09911 0.34663 0.08759 0.0
O5 O 0.08963 0.40524 0.12458 0.0
O6 O 0.0776 0.36334 0.15158 0.0
C7 C 0.01339 0.3383 0.17708 0.0
N8 N 0.01452 0.31803 0.15794 0.0
C9 C 0.96284 0.27853 0.17166 0.0
C10 C 0.96114 0.29891 0.19164 0.0
C11 C 0.98647 0.32899 0.19422 0.0
C12 C 0.99002 0.28931 0.15478 0.0
H13 H 0.03289 0.36137 0.17929 0.0
C14 C 0.09216 0.39249 0.14757 0.0
O15 O 0.08205 0.42271 0.06689 0.0
O16 O 0.03804 0.40382 0.09236 0.0
N17 N 0.02002 0.28323 0.11882 0.0
C18 C 0.0259 0.26609 0.09935 0.0
C19 C 0.00299 0.23535 0.09431 0.0
C20 C 0.97476 0.22228 0.11004 0.0
C21 C 0.96962 0.24012 0.13058 0.0
C22 C 0.99309 0.27075 0.13434 0.0
H23 H 0.04787 0.27583 0.0877 0.0
O24 O 0.03517 0.35594 0.05852 0.0
O25 O 0.03415 0.34312 0.10447 0.0
O26 O 0.09531 0.36889 0.07897 0.0
O27 O 0.08248 0.32773 0.1075 0.0
C28 C 0.94251 0.22853 0.14801 0.0
C29 C 0.93887 0.24781 0.1682 0.0
H30 H 0.94056 0.29167 0.20514 0.0
H31 H 0.98534 0.34488 0.20955 0.0
H32 H 0.00726 0.22165 0.07864 0.0
H33 H 0.95743 0.19841 0.10646 0.0
H34 H 0.9246 0.20467 0.14652 0.0
H35 H 0.91778 0.23861 0.1813 0.0
Mn36 Mn 0.62399 0.69239 0.08598 0.0
Mn37 Mn 0.69549 0.7433 0.11184 0.0
C38 C 0.66813 0.69618 0.06446 0.0
C39 C 0.58055 0.64326 0.08557 0.0
C40 C 0.6574 0.76137 0.07297 0.0
O41 O 0.61372 0.70437 0.12496 0.0
O42 O 0.66266 0.73592 0.14123 0.0
C43 C 0.69913 0.70437 0.15833 0.0
N44 N 0.71138 0.72167 0.13399 0.0
C45 C 0.75522 0.71246 0.13429 0.0
C46 C 0.74319 0.6947 0.15948 0.0
C47 C 0.71499 0.69059 0.17151 0.0
C48 C 0.73844 0.72569 0.12218 0.0
H49 H 0.6774 0.70107 0.16756 0.0
C50 C 0.63276 0.72213 0.14417 0.0
O51 O 0.5789 0.66679 0.07555 0.0
O52 O 0.60654 0.64884 0.09795 0.0
N53 N 0.7297 0.75298 0.08592 0.0
C54 C 0.73765 0.77003 0.0611 0.0
C55 C 0.76498 0.77582 0.04604 0.0
C56 C 0.78406 0.76438 0.05684 0.0
C57 C 0.77574 0.74745 0.08273 0.0
C58 C 0.74833 0.74257 0.09689 0.0
H59 H 0.72312 0.77894 0.05272 0.0
O60 O 0.64169 0.68386 0.05076 0.0
O61 O 0.66791 0.70516 0.09098 0.0
O62 O 0.63408 0.73438 0.06944 0.0
O63 O 0.68113 0.76717 0.08867 0.0
C64 C 0.79327 0.73475 0.09479 0.0
C65 C 0.78297 0.71719 0.1205 0.0
H66 H 0.75528 0.68394 0.16966 0.0
H67 H 0.70548 0.6768 0.19087 0.0
H68 H 0.77129 0.789 0.02613 0.0
H69 H 0.80497 0.76866 0.04502 0.0
H70 H 0.81452 0.73805 0.08429 0.0
H71 H 0.79645 0.70725 0.12937 0.0
Mn72 Mn 0.31627 0.92055 0.0986 0.0
Mn73 Mn 0.32255 0.85873 0.07929 0.0
C74 C 0.36477 0.92583 0.08804 0.0
C75 C 0.30885 0.96127 0.08468 0.0
C76 C 0.30839 0.87021 0.14084 0.0
O77 O 0.27199 0.88938 0.08668 0.0
O78 O 0.27933 0.85052 0.07049 0.0
C79 C 0.31605 0.8607 0.01564 0.0
N80 N 0.33334 0.86162 0.03909 0.0
C81 C 0.37638 0.86873 0.00862 0.0
C82 C 0.35899 0.86776 0.98415 0.0
C83 C 0.32868 0.86368 0.98769 0.0
C84 C 0.36243 0.86527 0.03592 0.0
H85 H 0.29284 0.85784 0.01825 0.0
C86 C 0.26224 0.86313 0.0747 0.0
O87 O 0.30312 0.95093 0.11114 0.0
O88 O 0.31858 0.94789 0.06661 0.0
N89 N 0.36375 0.86491 0.08636 0.0
C90 C 0.37812 0.8672 0.11221 0.0
C91 C 0.40891 0.8721 0.11249 0.0
C92 C 0.42462 0.87467 0.08622 0.0
C93 C 0.40935 0.87223 0.05988 0.0
C94 C 0.37852 0.86697 0.06095 0.0
H95 H 0.36625 0.86552 0.13245 0.0
O96 O 0.36272 0.94612 0.10421 0.0
O97 O 0.33831 0.90295 0.07964 0.0
O98 O 0.31108 0.89664 0.13609 0.0
O99 O 0.31187 0.85408 0.1211 0.0
C100 C 0.42375 0.87548 0.03262 0.0
C101 C 0.40726 0.87369 0.00701 0.0
H102 H 0.36877 0.87037 0.96257 0.0
H103 H 0.31515 0.86302 0.96892 0.0
H104 H 0.4206 0.8741 0.1329 0.0
H105 H 0.4485 0.87881 0.08653 0.0
H106 H 0.44763 0.87974 0.03112 0.0
H107 H 0.41871 0.87657 0.98621 0.0
Mn108 Mn 0.58613 0.91689 0.41743 0.0
Mn109 Mn 0.51401 0.85515 0.42259 0.0
C110 C 0.54236 0.9229 0.41504 0.0
C111 C 0.62992 0.95819 0.43806 0.0
C112 C 0.55394 0.86946 0.36884 0.0
O113 O 0.59494 0.8853 0.43639 0.0
O114 O 0.54582 0.84459 0.43718 0.0
C115 C 0.50888 0.85031 0.48655 0.0
N116 N 0.49771 0.85366 0.4606 0.0
C117 C 0.45398 0.85436 0.48375 0.0
C118 C 0.46493 0.85078 0.51072 0.0
C119 C 0.49256 0.84883 0.51212 0.0
C120 C 0.47117 0.85557 0.45899 0.0
H121 H 0.5301 0.84879 0.48773 0.0
C122 C 0.57541 0.85713 0.4418 0.0
O123 O 0.63182 0.94679 0.41327 0.0
O124 O 0.60305 0.94493 0.45121 0.0
N125 N 0.48139 0.86269 0.40946 0.0
C126 C 0.47544 0.86855 0.38206 0.0
C127 C 0.44933 0.87246 0.37706 0.0
C128 C 0.42955 0.87007 0.40023 0.0
C129 C 0.43623 0.86405 0.42824 0.0
C130 C 0.46258 0.86045 0.43191 0.0
H131 H 0.49058 0.87034 0.36422 0.0
O132 O 0.56837 0.94259 0.40252 0.0
O133 O 0.54249 0.8994 0.42713 0.0
O134 O 0.57755 0.89346 0.37894 0.0
O135 O 0.52829 0.85428 0.38281 0.0
C136 C 0.41793 0.86174 0.45271 0.0
C137 C 0.42691 0.85717 0.48047 0.0
H138 H 0.45247 0.84974 0.5305 0.0
H139 H 0.50124 0.84619 0.53286 0.0
H140 H 0.44442 0.87724 0.3554 0.0
H141 H 0.40945 0.87312 0.3963 0.0
H142 H 0.39692 0.86347 0.45042 0.0
H143 H 0.41293 0.85601 0.49916 0.0
Mn144 Mn 0.08172 0.69655 0.43651 0.0
Mn145 Mn 0.0643 0.74972 0.41135 0.0
C146 C 0.03951 0.69927 0.4557 0.0
C147 C 0.0757 0.64724 0.43689 0.0
C148 C 0.11333 0.76407 0.4566 0.0
O149 O 0.10684 0.70933 0.39907 0.0
O150 O 0.09766 0.74799 0.38805 0.0
C151 C 0.03603 0.71637 0.35667 0.0
N152 N 0.034 0.73049 0.38125 0.0
C153 C 0.98269 0.72156 0.36807 0.0
C154 C 0.98432 0.7071 0.34254 0.0
C155 C 0.01107 0.7044 0.33687 0.0
C156 C 0.00825 0.73294 0.38702 0.0
H157 H 0.05651 0.71423 0.3522 0.0
C158 C 0.11183 0.73254 0.38375 0.0
O159 O 0.10016 0.67039 0.44835 0.0
O160 O 0.05632 0.65332 0.4232 0.0
N161 N 0.03276 0.75513 0.43064 0.0
C162 C 0.03498 0.7699 0.45612 0.0
C163 C 0.01047 0.77507 0.4647 0.0
C164 C 0.98383 0.76493 0.44713 0.0
C165 C 0.98232 0.75035 0.42071 0.0
C166 C 0.00786 0.74653 0.41293 0.0
H167 H 0.05548 0.778 0.46959 0.0
O168 O 0.05326 0.68699 0.47002 0.0
O169 O 0.0504 0.70939 0.42967 0.0
O170 O 0.11295 0.73828 0.45496 0.0
O171 O 0.09478 0.77044 0.4426 0.0
C172 C 0.95649 0.73944 0.40181 0.0
C173 C 0.95661 0.7249 0.37557 0.0
H174 H 0.96512 0.69785 0.32721 0.0
H175 H 0.01246 0.69317 0.31727 0.0
H176 H 0.01236 0.78725 0.48462 0.0
H177 H 0.96483 0.76873 0.45401 0.0
H178 H 0.93634 0.74194 0.40733 0.0
H179 H 0.93651 0.71637 0.36133 0.0
Mn180 Mn 0.30791 0.36998 0.39887 0.0
Mn181 Mn 0.26215 0.30517 0.3614 0.0
C182 C 0.30115 0.32317 0.4148 0.0
C183 C 0.35632 0.4124 0.40967 0.0
C184 C 0.23607 0.33212 0.40436 0.0
O185 O 0.30311 0.38763 0.36074 0.0
O186 O 0.26904 0.34267 0.34019 0.0
C187 C 0.3087 0.31812 0.31469 0.0
N188 N 0.28952 0.29913 0.33589 0.0
C189 C 0.30483 0.26112 0.3252 0.0
C190 C 0.32466 0.28021 0.30321 0.0
C191 C 0.32667 0.30888 0.29801 0.0
C192 C 0.28774 0.2717 0.34132 0.0
H193 H 0.31031 0.34014 0.31052 0.0
C194 C 0.28458 0.37214 0.34031 0.0
O195 O 0.3303 0.41164 0.41701 0.0
O196 O 0.35403 0.38962 0.39425 0.0
N197 N 0.25314 0.26671 0.37833 0.0
C198 C 0.232 0.25052 0.39955 0.0
C199 C 0.2267 0.22109 0.40705 0.0
C200 C 0.24263 0.20835 0.39216 0.0
C201 C 0.26383 0.22512 0.37002 0.0
C202 C 0.26814 0.25435 0.36351 0.0
H203 H 0.21951 0.26012 0.41082 0.0
O204 O 0.31022 0.34628 0.43232 0.0
O205 O 0.29729 0.32821 0.38777 0.0
O206 O 0.26208 0.35668 0.40903 0.0
O207 O 0.23327 0.31012 0.38803 0.0
C208 C 0.28053 0.21385 0.35389 0.0
C209 C 0.30121 0.23193 0.33166 0.0
H210 H 0.33842 0.27308 0.29019 0.0
H211 H 0.34195 0.32378 0.2811 0.0
H212 H 0.21019 0.20815 0.42407 0.0
H213 H 0.23796 0.18548 0.39758 0.0
H214 H 0.27755 0.19126 0.35827 0.0
H215 H 0.31399 0.22304 0.31947 0.0
Mn216 Mn 0.94392 0.63742 0.89945 0.0
Mn217 Mn 0.96099 0.70424 0.86634 0.0
C218 C 0.98193 0.68352 0.91842 0.0
C219 C 0.95144 0.59541 0.90694 0.0
C220 C 0.90562 0.6707 0.90639 0.0
O221 O 0.92317 0.62241 0.86035 0.0
O222 O 0.93468 0.66826 0.84118 0.0
C223 C 0.0015 0.70083 0.82036 0.0
N224 N 0.99727 0.71637 0.84265 0.0
C225 C 0.04908 0.75957 0.83617 0.0
C226 C 0.05395 0.7441 0.81303 0.0
C227 C 0.03008 0.71456 0.80516 0.0
C228 C 0.02013 0.74471 0.85051 0.0
H229 H 0.98321 0.67813 0.81424 0.0
C230 C 0.92145 0.63883 0.84008 0.0
O231 O 0.92545 0.5946 0.91438 0.0
O232 O 0.97207 0.61979 0.89331 0.0
N233 N 0.98618 0.7413 0.88752 0.0
C234 C 0.97802 0.75268 0.91084 0.0
C235 C -0.00073 0.78201 0.9215 0.0
C236 C 0.02857 0.79944 0.90796 0.0
C237 C 0.03639 0.78729 0.88393 0.0
C238 C 0.01408 0.75809 0.87403 0.0
H239 H 0.95546 0.73946 0.92121 0.0
O240 O 0.96815 0.65899 0.93431 0.0
O241 O 0.97383 0.68039 0.89115 0.0
O242 O 0.90964 0.64761 0.91084 0.0
O243 O 0.92392 0.69375 0.89071 0.0
C244 C 0.06552 0.80291 0.86955 0.0
C245 C 0.07191 0.789 0.84576 0.0
H246 H 0.07597 0.7546 0.80127 0.0
H247 H 0.0337 0.70243 0.78739 0.0
H248 H 0.99293 0.7912 0.93997 0.0
H249 H 0.04484 0.82216 0.91607 0.0
H250 H 0.08329 0.8255 0.87678 0.0
H251 H 0.09452 0.80109 0.83506 0.0
Mn252 Mn 0.38211 0.30288 0.9405 0.0
Mn253 Mn 0.31621 0.25557 0.90367 0.0
C254 C 0.33484 0.29795 0.95477 0.0
C255 C 0.42532 0.35139 0.94766 0.0
C256 C 0.34552 0.23292 0.94823 0.0
O257 O 0.39935 0.29436 0.90349 0.0
O258 O 0.35391 0.26492 0.88004 0.0
C259 C 0.32268 0.29949 0.85746 0.0
N260 N 0.30571 0.28026 0.87948 0.0
C261 C 0.26427 0.29244 0.87311 0.0
C262 C 0.2812 0.31221 0.85023 0.0
C263 C 0.31055 0.31577 0.8424 0.0
C264 C 0.2775 0.27675 0.88725 0.0
H265 H 0.34534 0.30245 0.8515 0.0
C266 C 0.38391 0.27876 0.8815 0.0
O267 O 0.42471 0.3268 0.95787 0.0
O268 O 0.40197 0.3474 0.93157 0.0
N269 N 0.27778 0.24458 0.92362 0.0
C270 C 0.26449 0.2247 0.94623 0.0
C271 C 0.23512 0.21875 0.95686 0.0
C272 C 0.21958 0.23298 0.94393 0.0
C273 C 0.23338 0.25273 0.92022 0.0
C274 C 0.26255 0.25757 0.91041 0.0
H275 H 0.27632 0.21371 0.95628 0.0
O276 O 0.3583 0.30862 0.9725 0.0
O277 O 0.33994 0.29138 0.92868 0.0
O278 O 0.36831 0.25929 0.95506 0.0
O279 O 0.32516 0.22879 0.92887 0.0
C280 C 0.2195 0.2681 0.90617 0.0
C281 C 0.23497 0.28799 0.88267 0.0
H282 H 0.27198 0.3249 0.83863 0.0
H283 H 0.32382 0.33109 0.82486 0.0
H284 H 0.22457 0.20335 0.97507 0.0
H285 H 0.19709 0.22856 0.95237 0.0
H286 H 0.19705 0.26496 0.9134 0.0
H287 H 0.22418 0.29986 0.87218 0.0
Mn288 Mn 0.69628 0.06776 0.90809 0.0
Mn289 Mn 0.75125 0.0564 0.87513 0.0
C290 C 0.70774 0.03112 0.92522 0.0
C291 C 0.6443 0.0547 0.91507 0.0
C292 C 0.76692 0.10907 0.91671 0.0
O293 O 0.70171 0.08967 0.86956 0.0
O294 O 0.73837 0.08036 0.84962 0.0
C295 C 0.71098 0.01516 0.82853 0.0
N296 N 0.73029 0.02033 0.85156 0.0
C297 C 0.72354 0.96924 0.8481 0.0
C298 C 0.70379 0.96346 0.82419 0.0
C299 C 0.69748 0.98652 0.81439 0.0
C300 C 0.73653 0.9983 0.86117 0.0
H301 H 0.70579 0.03269 0.82109 0.0
C302 C 0.72029 0.09219 0.84894 0.0
O303 O 0.66685 0.0813 0.92353 0.0
O304 O 0.65203 0.03746 0.90007 0.0
N305 N 0.76556 0.03331 0.89733 0.0
C306 C 0.78451 0.04232 0.92108 0.0
C307 C 0.79268 0.0217 0.93388 0.0
C308 C 0.78146 0.99215 0.92205 0.0
C309 C 0.76249 0.98362 0.89729 0.0
C310 C 0.75541 0.00526 0.88527 0.0
H311 H 0.79303 0.06494 0.93038 0.0
O312 O 0.69477 0.04251 0.942 0.0
O313 O 0.71343 0.04132 0.89873 0.0
O314 O 0.73868 0.10269 0.92154 0.0
O315 O 0.77433 0.09326 0.89981 0.0
C316 C 0.74991 0.95432 0.88432 0.0
C317 C 0.73043 0.94713 0.85976 0.0
H318 H 0.69316 0.94133 0.81335 0.0
H319 H 0.6821 0.98217 0.79606 0.0
H320 H 0.80739 0.02849 0.95296 0.0
H321 H 0.78748 0.97617 0.93221 0.0
H322 H 0.75483 0.93705 0.89323 0.0
H323 H 0.72067 0.92443 0.85014 0.0
Mn324 Mn 0.38794 0.08715 0.5994 0.0
Mn325 Mn 0.32358 0.07033 0.63911 0.0
C326 C 0.33964 0.04672 0.58594 0.0
C327 C 0.43011 0.0803 0.58699 0.0
C328 C 0.35083 0.12171 0.59495 0.0
O329 O 0.40741 0.11083 0.63661 0.0
O330 O 0.36253 0.09869 0.66023 0.0
C331 C 0.33452 0.03497 0.68478 0.0
N332 N 0.3155 0.03683 0.66435 0.0
C333 C 0.27381 0.98604 0.67612 0.0
C334 C 0.29284 0.98368 0.69747 0.0
C335 C 0.32338 0.00821 0.70173 0.0
C336 C 0.28624 0.01323 0.65984 0.0
H337 H 0.35802 0.05373 0.6881 0.0
C338 C 0.39249 0.11268 0.65854 0.0
O339 O 0.42933 0.10501 0.57943 0.0
O340 O 0.40793 0.06121 0.60401 0.0
N341 N 0.28389 0.04298 0.62212 0.0
C342 C 0.26894 0.04854 0.60004 0.0
C343 C 0.23802 0.02645 0.5932 0.0
C344 C 0.22279 0.99893 0.60917 0.0
C345 C 0.23875 0.99357 0.63158 0.0
C346 C 0.26933 0.01668 0.63776 0.0
H347 H 0.28044 0.06977 0.58789 0.0
O348 O 0.36225 0.05997 0.56735 0.0
O349 O 0.34592 0.05708 0.61245 0.0
O350 O 0.37448 0.11864 0.58847 0.0
O351 O 0.3298 0.10446 0.6132 0.0
C352 C 0.2255 0.96622 0.64802 0.0
C353 C 0.2431 0.96237 0.67016 0.0
H354 H 0.28433 0.96308 0.71059 0.0
H355 H 0.33829 0.00651 0.71805 0.0
H356 H 0.22588 0.03082 0.57589 0.0
H357 H 0.19875 0.98217 0.60428 0.0
H358 H 0.20191 0.94789 0.64365 0.0
H359 H 0.23282 0.9411 0.68243 0.0
Mn360 Mn 0.92028 0.30162 0.57137 0.0
Mn361 Mn 0.93835 0.25084 0.60194 0.0
C362 C 0.96006 0.29507 0.55176 0.0
C363 C 0.92758 0.35126 0.56704 0.0
C364 C 0.88452 0.23178 0.56025 0.0
O365 O 0.89761 0.29338 0.61002 0.0
O366 O 0.90998 0.25858 0.62723 0.0
C367 C 0.97559 0.29146 0.65026 0.0
N368 N 0.97309 0.27312 0.62735 0.0
C369 C 0.02474 0.28042 0.63591 0.0
C370 C 0.02779 0.2992 0.65974 0.0
C371 C 0.00314 0.30483 0.66687 0.0
C372 C 0.99674 0.26777 0.62017 0.0
H373 H 0.95672 0.29585 0.65582 0.0
C374 C 0.89587 0.27434 0.62929 0.0
O375 O 0.90214 0.32752 0.5577 0.0
O376 O 0.94745 0.34582 0.58065 0.0
N377 N 0.96558 0.24047 0.58098 0.0
C378 C 0.95927 0.22266 0.55684 0.0
C379 C 0.98147 0.21478 0.54682 0.0
C380 C 0.00995 0.22529 0.56165 0.0
C381 C 0.01584 0.24343 0.58657 0.0
C382 C 0.99255 0.25003 0.59588 0.0
H383 H 0.93745 0.21449 0.54537 0.0
O384 O 0.9462 0.30676 0.53675 0.0
O385 O 0.95103 0.28825 0.57876 0.0
O386 O 0.88724 0.25851 0.55735 0.0
O387 O 0.90293 0.22641 0.57569 0.0
C388 C 0.044 0.25546 0.60237 0.0
C389 C 0.04851 0.27406 0.62695 0.0
H390 H 0.04901 0.30958 0.67258 0.0
H391 H 0.00536 0.31941 0.68514 0.0
H392 H 0.97644 0.20037 0.5279 0.0
H393 H 0.02708 0.21925 0.55377 0.0
H394 H 0.06248 0.25081 0.59562 0.0
H395 H 0.0704 0.28347 0.63874 0.0
Mn396 Mn 0.67736 0.61526 0.58497 0.0
Mn397 Mn 0.7212 0.68627 0.61322 0.0
C398 C 0.67743 0.65711 0.56391 0.0
C399 C 0.62993 0.56976 0.58071 0.0
C400 C 0.74822 0.65537 0.57557 0.0
O401 O 0.68754 0.60548 0.6248 0.0
O402 O 0.71746 0.65405 0.64103 0.0
C403 C 0.67701 0.68091 0.65973 0.0
N404 N 0.69436 0.69579 0.63592 0.0
C405 C 0.67639 0.73285 0.63762 0.0
C406 C 0.65848 0.71804 0.66227 0.0
C407 C 0.65877 0.69193 0.67334 0.0
C408 C 0.69427 0.72093 0.6251 0.0
H409 H 0.67703 0.66074 0.66821 0.0
C410 C 0.70494 0.62475 0.64397 0.0
O411 O 0.65608 0.57119 0.57266 0.0
O412 O 0.63189 0.59386 0.59337 0.0
N413 N 0.72676 0.71966 0.58886 0.0
C414 C 0.74433 0.73053 0.56428 0.0
C415 C 0.74597 0.7562 0.55008 0.0
C416 C 0.72974 0.77055 0.56142 0.0
C417 C 0.71221 0.75925 0.58699 0.0
C418 C 0.71166 0.73375 0.60032 0.0
H419 H 0.75662 0.71942 0.55534 0.0
O420 O 0.66953 0.63232 0.54904 0.0
O421 O 0.68493 0.65674 0.59089 0.0
O422 O 0.72272 0.62995 0.57237 0.0
O423 O 0.75019 0.67838 0.58962 0.0
C424 C 0.69471 0.77187 0.59944 0.0
C425 C 0.67679 0.75866 0.62472 0.0
H426 H 0.64424 0.72636 0.67274 0.0
H427 H 0.6449 0.68029 0.69228 0.0
H428 H 0.75952 0.76475 0.53034 0.0
H429 H 0.73074 0.7901 0.55021 0.0
H430 H 0.69457 0.79149 0.58954 0.0
H431 H 0.66317 0.76835 0.63391 0.0
H432 H 0.13577 0.37829 0.04121 0.0
H433 H 0.17341 0.36846 0.0153 0.0
H434 H 0.15573 0.29508 0.075 0.0
H435 H 0.11737 0.30414 0.10067 0.0
H436 H 0.22649 0.37139 0.03022 0.0
H437 H 0.16088 0.23777 0.03988 0.0
H438 H 0.10653 0.1949 0.04363 0.0
H439 H 0.073 0.2496 0.00099 0.0
H440 H 0.12716 0.29258 0.99653 0.0
H441 H 0.29881 0.27018 0.0015 0.0
H442 H 0.25551 0.27665 0.02033 0.0
H443 H 0.26602 0.33603 0.94817 0.0
H444 H 0.30923 0.32928 0.9292 0.0
H445 H 0.19725 0.26652 0.99494 0.0
H446 H 0.26152 0.39741 0.9799 0.0
H447 H 0.31554 0.44064 0.97463 0.0
H448 H 0.35022 0.39172 0.02545 0.0
H449 H 0.29639 0.34846 0.03138 0.0
C450 C 0.13985 0.36004 0.04892 0.0
C451 C 0.1233 0.34183 0.07293 0.0
C452 C 0.16144 0.35451 0.03406 0.0
C453 C 0.16698 0.33071 0.0429 0.0
C454 C 0.15128 0.31312 0.0674 0.0
C455 C 0.12947 0.31845 0.08214 0.0
C456 C 0.18923 0.32435 0.0265 0.0
C457 C 0.21989 0.34855 0.02212 0.0
C458 C 0.18072 0.29448 0.01613 0.0
C459 C 0.14808 0.26852 0.01817 0.0
C460 C 0.14193 0.24059 0.03117 0.0
C461 C 0.11115 0.21628 0.03344 0.0
C462 C 0.08632 0.21957 0.02265 0.0
C463 C 0.09224 0.24712 0.00944 0.0
C464 C 0.12297 0.27147 0.00706 0.0
C465 C 0.29129 0.28402 0.98942 0.0
C466 C 0.30641 0.29848 0.96355 0.0
C467 C 0.26664 0.28764 9e-05 0.0
C468 C 0.25762 0.30672 0.98556 0.0
C469 C 0.27265 0.32112 0.95957 0.0
C470 C 0.29706 0.31713 0.94869 0.0
C471 C 0.23431 0.31346 0.99902 0.0
C472 C 0.20355 0.28936 0.00284 0.0
C473 C 0.24258 0.34345 0.00862 0.0
C474 C 0.27499 0.36958 0.00576 0.0
C475 C 0.28068 0.39596 0.99002 0.0
C476 C 0.31126 0.42045 0.98692 0.0
C477 C 0.33631 0.41887 0.9996 0.0
C478 C 0.33082 0.39286 0.01553 0.0
C479 C 0.30028 0.36834 0.01874 0.0
H480 H 0.35997 0.43784 0.99713 0.0
H481 H 0.06251 0.20074 0.02448 0.0
H482 H 0.62379 0.75885 0.02459 0.0
H483 H 0.63133 0.80226 0.99415 0.0
H484 H 0.70025 0.86557 0.05431 0.0
H485 H 0.69333 0.82258 0.08446 0.0
H486 H 0.62663 0.85439 0.00164 0.0
H487 H 0.76216 0.91955 0.01761 0.0
H488 H 0.80382 0.90673 0.02786 0.0
H489 H 0.74803 0.81718 0.99011 0.0
H490 H 0.70634 0.82968 0.97908 0.0
H491 H 0.73317 0.02277 0.97388 0.0
H492 H 0.72518 0.97358 0.99321 0.0
H493 H 0.67101 0.92662 0.91756 0.0
H494 H 0.67925 0.9759 0.89813 0.0
H495 H 0.73616 0.92521 0.97021 0.0
H496 H 0.60476 0.86218 0.94712 0.0
H497 H 0.56254 0.87407 0.93608 0.0
H498 H 0.6096 0.95737 0.98594 0.0
H499 H 0.65173 0.94566 0.99773 0.0
C500 C 0.64021 0.78206 0.03152 0.0
C501 C 0.65832 0.78729 0.05669 0.0
C502 C 0.64449 0.80679 0.01411 0.0
C503 C 0.66686 0.83699 0.02167 0.0
C504 C 0.68341 0.84234 0.04775 0.0
C505 C 0.67937 0.81774 0.06498 0.0
C506 C 0.67429 0.86302 0.00186 0.0
C507 C 0.65045 0.86954 0.99431 0.0
C508 C 0.70541 0.88273 0.99229 0.0
C509 C 0.73099 0.8755 0.99774 0.0
C510 C 0.75889 0.89723 0.01126 0.0
C511 C 0.7825 0.88999 0.01725 0.0
C512 C 0.77854 0.86112 0.00973 0.0
C513 C 0.75105 0.8395 0.996 0.0
C514 C 0.72743 0.84666 0.98987 0.0
C515 C 0.72031 0.00199 0.96114 0.0
C516 C 0.70752 0.00294 0.9343 0.0
C517 C 0.71582 0.97405 0.97208 0.0
C518 C 0.69754 0.94663 0.95675 0.0
C519 C 0.68529 0.94763 0.92958 0.0
C520 C 0.69013 0.97567 0.91847 0.0
C521 C 0.6887 0.91691 0.97078 0.0
C522 C 0.71228 0.9097 0.97718 0.0
C523 C 0.65732 0.89643 0.979 0.0
C524 C 0.63158 0.90321 0.97297 0.0
C525 C 0.60599 0.88294 0.95584 0.0
C526 C 0.58209 0.88965 0.94946 0.0
C527 C 0.58346 0.91652 0.96021 0.0
C528 C 0.60862 0.93662 0.97754 0.0
C529 C 0.63252 0.92996 0.98407 0.0
H530 H 0.56498 0.92172 0.95516 0.0
H531 H 0.79678 0.85552 0.0145 0.0
H532 H 0.22342 0.80147 0.06736 0.0
H533 H 0.17387 0.77658 0.04087 0.0
H534 H 0.18083 0.86525 0.02612 0.0
H535 H 0.22955 0.89004 0.05382 0.0
H536 H 0.12279 0.8254 0.03276 0.0
H537 H 0.20524 0.83067 0.97468 0.0
H538 H 0.25074 0.82406 0.96296 0.0
H539 H 0.19318 0.7259 0.97033 0.0
H540 H 0.14744 0.73195 0.98265 0.0
H541 H 0.03954 0.71948 0.89425 0.0
H542 H 0.08597 0.76015 0.9181 0.0
H543 H 0.03243 0.74351 0.99723 0.0
H544 H 0.98544 0.70645 0.97199 0.0
H545 H 0.11713 0.75471 0.95431 0.0
H546 H 0.06111 0.7895 0.04724 0.0
H547 H 0.02055 0.80462 0.05463 0.0
H548 H 0.03363 0.83826 0.96722 0.0
H549 H 0.07391 0.82278 0.95922 0.0
C550 C 0.21406 0.81555 0.05887 0.0
C551 C 0.2304 0.84766 0.0624 0.0
C552 C 0.18587 0.80136 0.04361 0.0
C553 C 0.1741 0.81915 0.0308 0.0
C554 C 0.18952 0.85107 0.03567 0.0
C555 C 0.21736 0.8652 0.05151 0.0
C556 C 0.14679 0.80469 0.01099 0.0
C557 C 0.12154 0.81003 0.01548 0.0
C558 C 0.14565 0.78564 0.98772 0.0
C559 C 0.17296 0.78179 0.9798 0.0
C560 C 0.20232 0.80768 0.97395 0.0
C561 C 0.22816 0.80404 0.96721 0.0
C562 C 0.22486 0.77459 0.96594 0.0
C563 C 0.1957 0.74871 0.97134 0.0
C564 C 0.1698 0.75222 0.9782 0.0
C565 C 0.03741 0.72614 0.91613 0.0
C566 C 0.00869 0.71103 0.93085 0.0
C567 C 0.06411 0.74889 0.93007 0.0
C568 C 0.063 0.75558 0.9596 0.0
C569 C 0.03408 0.74023 0.97424 0.0
C570 C 0.00718 0.71857 0.95989 0.0
C571 C 0.0925 0.77501 0.97603 0.0
C572 C 0.1183 0.77046 0.97112 0.0
C573 C 0.09472 0.79598 0.99797 0.0
C574 C 0.07013 0.80466 0.0025 0.0
C575 C 0.0552 0.80001 0.02958 0.0
C576 C 0.0322 0.80851 0.03384 0.0
C577 C 0.02432 0.82214 0.01131 0.0
C578 C 0.03946 0.82732 0.9845 0.0
C579 C 0.06218 0.81848 0.98002 0.0
H580 H 0.0066 0.82882 0.01467 0.0
H581 H 0.2449 0.77181 0.96073 0.0
H582 H 0.64239 0.67924 0.58874 0.0
H583 H 0.62714 0.71484 0.56728 0.0
H584 H 0.67851 0.71952 0.48942 0.0
H585 H 0.69467 0.68475 0.51144 0.0
H586 H 0.68726 0.77438 0.50149 0.0
H587 H 0.59938 0.67461 0.49177 0.0
H588 H 0.55792 0.62285 0.50648 0.0
H589 H 0.51947 0.66326 0.56445 0.0
H590 H 0.56091 0.71529 0.5503 0.0
H591 H 0.5532 0.79633 0.4312 0.0
H592 H 0.57288 0.76344 0.45029 0.0
H593 H 0.64325 0.84029 0.49907 0.0
H594 H 0.62456 0.87365 0.47874 0.0
H595 H 0.57432 0.74353 0.49903 0.0
H596 H 0.70722 0.83335 0.51104 0.0
H597 H 0.74733 0.88029 0.48651 0.0
H598 H 0.69435 0.85182 0.40752 0.0
H599 H 0.65417 0.80454 0.43143 0.0
C600 C 0.65102 0.68858 0.56735 0.0
C601 C 0.67057 0.68037 0.55203 0.0
C602 C 0.64197 0.7085 0.55495 0.0
C603 C 0.65157 0.7197 0.52668 0.0
C604 C 0.67106 0.71135 0.51134 0.0
C605 C 0.68021 0.69152 0.52383 0.0
C606 C 0.64045 0.73931 0.5128 0.0
C607 C 0.66258 0.76771 0.50093 0.0
C608 C 0.60818 0.73008 0.51123 0.0
C609 C 0.58345 0.69885 0.52019 0.0
C610 C 0.58226 0.67246 0.50786 0.0
C611 C 0.55872 0.64307 0.51604 0.0
C612 C 0.53612 0.63977 0.53643 0.0
C613 C 0.53701 0.66585 0.54868 0.0
C614 C 0.5605 0.6953 0.54056 0.0
C615 C 0.57295 0.80619 0.44593 0.0
C616 C 0.58742 0.83748 0.45352 0.0
C617 C 0.58418 0.78739 0.45683 0.0
C618 C 0.60981 0.79938 0.47588 0.0
C619 C 0.62398 0.83062 0.48384 0.0
C620 C 0.6132 0.84963 0.47237 0.0
C621 C 0.62113 0.77894 0.48783 0.0
C622 C 0.59903 0.75035 0.4995 0.0
C623 C 0.6533 0.78732 0.48781 0.0
C624 C 0.67751 0.81558 0.47316 0.0
C625 C 0.70419 0.83707 0.48841 0.0
C626 C 0.72693 0.86374 0.47461 0.0
C627 C 0.72333 0.86909 0.44551 0.0
C628 C 0.69705 0.84771 0.4301 0.0
C629 C 0.67427 0.82099 0.44377 0.0
H630 H 0.74095 0.88976 0.43488 0.0
H631 H 0.51789 0.617 0.54269 0.0
H632 H 0.17686 0.78822 0.45725 0.0
H633 H 0.21492 0.83464 0.48336 0.0
H634 H 0.1387 0.84004 0.52508 0.0
H635 H 0.10104 0.79465 0.49831 0.0
H636 H 0.17626 0.89226 0.50185 0.0
H637 H 0.19001 0.82059 0.56197 0.0
H638 H 0.20179 0.77868 0.57157 0.0
H639 H 0.29342 0.83259 0.53418 0.0
H640 H 0.28203 0.87468 0.52404 0.0
H641 H 0.30975 0.99236 0.61554 0.0
H642 H 0.26731 0.94318 0.59784 0.0
H643 H 0.26978 0.98616 0.51589 0.0
H644 H 0.30908 0.03571 0.53503 0.0
H645 H 0.26836 0.90895 0.55979 0.0
H646 H 0.21878 0.95484 0.47641 0.0
H647 H 0.20135 0.99313 0.46856 0.0
H648 H 0.17264 0.98473 0.55766 0.0
H649 H 0.19059 0.94679 0.56601 0.0
C650 C 0.16845 0.79908 0.47249 0.0
C651 C 0.13618 0.78822 0.47571 0.0
C652 C 0.19012 0.82552 0.48742 0.0
C653 C 0.17967 0.84091 0.50617 0.0
C654 C 0.14734 0.82879 0.51053 0.0
C655 C 0.12582 0.80287 0.49527 0.0
C656 C 0.20187 0.87109 0.51929 0.0
C657 C 0.19629 0.89578 0.5147 0.0
C658 C 0.22815 0.87591 0.53585 0.0
C659 C 0.23505 0.85066 0.54202 0.0
C660 C 0.21258 0.82341 0.55561 0.0
C661 C 0.21921 0.79964 0.56118 0.0
C662 C 0.2483 0.80294 0.55343 0.0
C663 C 0.27088 0.83005 0.54015 0.0
C664 C 0.26436 0.85388 0.53452 0.0
C665 C 0.29971 0.99153 0.59446 0.0
C666 C 0.3114 0.01809 0.57725 0.0
C667 C 0.27596 0.96329 0.58402 0.0
C668 C 0.26449 0.96076 0.55561 0.0
C669 C 0.27672 0.98738 0.5383 0.0
C670 C 0.29959 0.01575 0.54913 0.0
C671 C 0.24212 0.92999 0.54325 0.0
C672 C 0.24804 0.90532 0.54739 0.0
C673 C 0.21577 0.9249 0.52656 0.0
C674 C 0.20671 0.9488 0.52205 0.0
C675 C 0.2091 0.96153 0.49437 0.0
C676 C 0.1992 0.98314 0.48984 0.0
C677 C 0.18625 0.99164 0.51271 0.0
C678 C 0.18315 0.97849 0.54012 0.0
C679 C 0.19348 0.95722 0.54484 0.0
H680 H 0.17839 0.00821 0.50915 0.0
H681 H 0.25339 0.78451 0.55776 0.0
H682 H 0.96543 0.28247 0.496 0.0
H683 H 0.01203 0.28965 0.47092 0.0
H684 H 0.06191 0.31152 0.5524 0.0
H685 H 0.01683 0.31063 0.57608 0.0
H686 H 0.0999 0.34414 0.52002 0.0
H687 H 0.03514 0.23189 0.50104 0.0
H688 H 0.98897 0.18412 0.48377 0.0
H689 H 0.99259 0.22771 0.40259 0.0
H690 H 0.03921 0.27528 0.4191 0.0
H691 H 0.18748 0.27907 0.42517 0.0
H692 H 0.14183 0.27264 0.45187 0.0
H693 H 0.1738 0.36989 0.44282 0.0
H694 H 0.22094 0.37668 0.41769 0.0
H695 H 0.09574 0.27742 0.43853 0.0
H696 H 0.14507 0.39553 0.49601 0.0
H697 H 0.19506 0.43617 0.51614 0.0
H698 H 0.22578 0.36993 0.52946 0.0
H699 H 0.17585 0.32886 0.50976 0.0
C700 C 0.9863 0.28843 0.50857 0.0
C701 C 0.98694 0.2941 0.53844 0.0
C702 C 0.01296 0.29191 0.49424 0.0
C703 C 0.04058 0.29957 0.50964 0.0
C704 C 0.04108 0.30521 0.53967 0.0
C705 C 0.01494 0.30371 0.55361 0.0
C706 C 0.06955 0.30422 0.49421 0.0
C707 C 0.09876 0.32906 0.50255 0.0
C708 C 0.06886 0.28518 0.47096 0.0
C709 C 0.04006 0.25722 0.46158 0.0
C710 C 0.02572 0.23132 0.47972 0.0
C711 C -0.00033 0.20428 0.46999 0.0
C712 C 0.98758 0.20306 0.44231 0.0
C713 C 0.00182 0.22874 0.42411 0.0
C714 C 0.02817 0.25564 0.43355 0.0
C715 C 0.18493 0.29912 0.42898 0.0
C716 C 0.20785 0.32838 0.41951 0.0
C717 C 0.15871 0.29543 0.44422 0.0
C718 C 0.15437 0.3208 0.44973 0.0
C719 C 0.17693 0.35005 0.4396 0.0
C720 C 0.20373 0.35389 0.42506 0.0
C721 C 0.12577 0.31611 0.46542 0.0
C722 C 0.09671 0.29184 0.45659 0.0
C723 C 0.12684 0.33471 0.48906 0.0
C724 C 0.15687 0.35922 0.5011 0.0
C725 C 0.16247 0.38964 0.50331 0.0
C726 C 0.19079 0.41275 0.51463 0.0
C727 C 0.21362 0.40565 0.52397 0.0
C728 C 0.20813 0.37542 0.52211 0.0
C729 C 0.17984 0.35223 0.51084 0.0
H730 H 0.23554 0.42358 0.53272 0.0
H731 H 0.96736 0.18214 0.43489 0.0
H732 H 0.69104 0.71569 0.01082 0.0
H733 H 0.73127 0.70883 0.98548 0.0
H734 H 0.74355 0.66578 0.06163 0.0
H735 H 0.70245 0.67176 0.08674 0.0
H736 H 0.8018 0.71436 0.03165 0.0
H737 H 0.70551 0.61965 0.01592 0.0
H738 H 0.64997 0.58844 0.00201 0.0
H739 H 0.67184 0.62655 0.91614 0.0
H740 H 0.72747 0.65841 0.9297 0.0
H741 H 0.85559 0.62323 0.93382 0.0
H742 H 0.81468 0.62587 0.96211 0.0
H743 H 0.85501 0.72229 0.9412 0.0
H744 H 0.89597 0.71998 0.91284 0.0
H745 H 0.77014 0.64308 0.94752 0.0
H746 H 0.85136 0.75865 0.00459 0.0
H747 H 0.90702 0.78988 0.01824 0.0
H748 H 0.91527 0.70814 0.02305 0.0
H749 H 0.85955 0.67638 0.00994 0.0
C750 C 0.7027 0.70516 0.02219 0.0
C751 C 0.69477 0.69531 0.05098 0.0
C752 C 0.7255 0.7012 0.00776 0.0
C753 C 0.74035 0.68698 0.02183 0.0
C754 C 0.73247 0.67709 0.05062 0.0
C755 C 0.70934 0.68075 0.06497 0.0
C756 C 0.76325 0.68151 0.00588 0.0
C757 C 0.79497 0.69873 0.01334 0.0
C758 C 0.75403 0.66089 0.98218 0.0
C759 C 0.72061 0.64165 0.97392 0.0
C760 C 0.69844 0.62162 0.99416 0.0
C761 C 0.66694 0.60376 0.98632 0.0
C762 C 0.65736 0.60556 0.95823 0.0
C763 C 0.67928 0.6252 0.93791 0.0
C764 C 0.71081 0.64315 0.94565 0.0
C765 C 0.8557 0.64498 0.9351 0.0
C766 C 0.8793 0.67149 0.92137 0.0
C767 C 0.83224 0.64639 0.95118 0.0
C768 C 0.83221 0.67437 0.95405 0.0
C769 C 0.85498 0.70059 0.93952 0.0
C770 C 0.87829 0.69917 0.92325 0.0
C771 C 0.80888 0.67639 0.97292 0.0
C772 C 0.77703 0.65859 0.96595 0.0
C773 C 0.81801 0.69642 0.99715 0.0
C774 C 0.85134 0.71518 0.00592 0.0
C775 C 0.865 0.74732 0.0087 0.0
C776 C 0.89657 0.76512 0.01634 0.0
C777 C 0.91471 0.75102 0.02138 0.0
C778 C 0.90124 0.71906 0.01901 0.0
C779 C 0.86967 0.70115 0.01145 0.0
H780 H 0.93917 0.76485 0.0272 0.0
H781 H 0.63297 0.5917 0.9522 0.0
H782 H 0.36292 0.23113 0.00396 0.0
H783 H 0.35267 0.18568 0.03219 0.0
H784 H 0.309 0.12804 0.95758 0.0
H785 H 0.31777 0.17329 0.92977 0.0
H786 H 0.27564 0.10121 0.00195 0.0
H787 H 0.3864 0.14971 0.98241 0.0
H788 H 0.44118 0.19203 0.98208 0.0
H789 H 0.43998 0.19695 0.075 0.0
H790 H 0.38504 0.15488 0.07585 0.0
H791 H 0.29849 0.97392 0.0301 0.0
H792 H 0.29963 0.02072 0.01277 0.0
H793 H 0.31486 0.0562 0.10008 0.0
H794 H 0.31309 0.00882 0.11778 0.0
H795 H 0.36 0.09557 0.05616 0.0
H796 H 0.24923 0.0398 0.07332 0.0
H797 H 0.19601 0.99498 0.07041 0.0
H798 H 0.19933 0.00114 0.9775 0.0
H799 H 0.25277 0.04573 0.97981 0.0
C800 C 0.35138 0.20877 0.99354 0.0
C801 C 0.34135 0.20574 0.96461 0.0
C802 C 0.34556 0.1828 0.00968 0.0
C803 C 0.33044 0.15339 0.99694 0.0
C804 C 0.32062 0.15042 0.96795 0.0
C805 C 0.3258 0.1763 0.95201 0.0
C806 C 0.32454 0.12562 0.01375 0.0
C807 C 0.2942 0.09996 0.01359 0.0
C808 C 0.34849 0.12414 0.02964 0.0
C809 C 0.38151 0.14941 0.02917 0.0
C810 C 0.39775 0.15998 0.00276 0.0
C811 C 0.42883 0.18389 0.00248 0.0
C812 C 0.44402 0.19724 0.0285 0.0
C813 C 0.42817 0.18663 0.05486 0.0
C814 C 0.39707 0.16275 0.05526 0.0
C815 C 0.30157 0.99146 0.0457 0.0
C816 C 0.30579 0.98787 0.07526 0.0
C817 C 0.30211 0.0181 0.03578 0.0
C818 C 0.30726 0.04179 0.05518 0.0
C819 C 0.31074 0.03803 0.08486 0.0
C820 C 0.3096 0.01101 0.09492 0.0
C821 C 0.31142 0.07123 0.04374 0.0
C822 C 0.34142 0.09714 0.04487 0.0
C823 C 0.28738 0.07271 0.02822 0.0
C824 C 0.25512 0.04601 0.02675 0.0
C825 C 0.23872 0.03146 0.05225 0.0
C826 C 0.20848 0.00612 0.05071 0.0
C827 C 0.19432 0.99518 0.02378 0.0
C828 C 0.21033 0.00963 0.99834 0.0
C829 C 0.24058 0.03497 0.99976 0.0
H830 H 0.17092 0.97555 0.02264 0.0
H831 H 0.46809 0.21575 0.02824 0.0
H832 H 0.96353 0.30784 0.10006 0.0
H833 H 0.91684 0.26661 0.0765 0.0
H834 H 0.97609 0.25422 0.01464 0.0
H835 H 0.02231 0.29637 0.03723 0.0
H836 H 0.93788 0.26596 0.98734 0.0
H837 H 0.91212 0.17943 0.0595 0.0
H838 H 0.8985 0.15347 0.10718 0.0
H839 H 0.8402 0.19342 0.12603 0.0
H840 H 0.85272 0.21871 0.07804 0.0
H841 H 0.83028 0.13236 0.91095 0.0
H842 H 0.8717 0.1716 0.94082 0.0
H843 H 0.80293 0.18358 0.98917 0.0
H844 H 0.76119 0.14421 0.95952 0.0
H845 H 0.8421 0.17492 0.02431 0.0
H846 H 0.85198 0.23953 0.94457 0.0
H847 H 0.8571 0.25516 0.89327 0.0
H848 H 0.94501 0.25597 0.88748 0.0
H849 H 0.94021 0.23988 0.93865 0.0
C850 C 0.96643 0.29542 0.0821 0.0
C851 C 0.99634 0.30489 0.07052 0.0
C852 C 0.93977 0.27176 0.06867 0.0
C853 C 0.94283 0.25721 0.04367 0.0
C854 C 0.97302 0.26516 0.03374 0.0
C855 C -0.00055 0.28914 0.04668 0.0
C856 C 0.91536 0.23785 0.02496 0.0
C857 C 0.91716 0.24577 0.99544 0.0
C858 C 0.88754 0.21246 0.03549 0.0
C859 C 0.88385 0.2014 0.06562 0.0
C860 C 0.89681 0.18302 0.07406 0.0
C861 C 0.88887 0.16802 0.10088 0.0
C862 C 0.86841 0.17172 0.11957 0.0
C863 C 0.85601 0.19056 0.11154 0.0
C864 C 0.8634 0.2051 0.0845 0.0
C865 C 0.8239 0.14356 0.92767 0.0
C866 C 0.79233 0.13499 0.93286 0.0
C867 C 0.84767 0.16611 0.94465 0.0
C868 C 0.84037 0.18059 0.96709 0.0
C869 C 0.80902 0.17268 0.97192 0.0
C870 C 0.78521 0.15021 0.95487 0.0
C871 C 0.86532 0.20236 0.98673 0.0
C872 C 0.86288 0.19516 0.01631 0.0
C873 C 0.89253 0.22842 0.97621 0.0
C874 C 0.8956 0.23825 0.94543 0.0
C875 C 0.87229 0.24279 0.93231 0.0
C876 C 0.87515 0.25179 0.90326 0.0
C877 C 0.90133 0.25649 0.88711 0.0
C878 C 0.92473 0.25229 0.90001 0.0
C879 C 0.92197 0.24327 0.92905 0.0
H880 H 0.9035 0.26345 0.86462 0.0
H881 H 0.86237 0.16015 0.14036 0.0
H882 H 0.39377 0.16923 0.56151 0.0
H883 H 0.38409 0.20282 0.52963 0.0
H884 H 0.28809 0.15968 0.55891 0.0
H885 H 0.29752 0.12631 0.59118 0.0
H886 H 0.29626 0.15943 0.49773 0.0
H887 H 0.33403 0.22942 0.57873 0.0
H888 H 0.37189 0.26079 0.61649 0.0
H889 H 0.44051 0.31199 0.55107 0.0
H890 H 0.40322 0.28054 0.5129 0.0
H891 H 0.26787 0.29097 0.46115 0.0
H892 H 0.2732 0.2511 0.48726 0.0
H893 H 0.33704 0.25304 0.42169 0.0
H894 H 0.33144 0.29295 0.39519 0.0
H895 H 0.34686 0.27339 0.4984 0.0
H896 H 0.31638 0.19066 0.42195 0.0
H897 H 0.28241 0.1506 0.38697 0.0
H898 H 0.20324 0.12341 0.44349 0.0
H899 H 0.23704 0.16287 0.47906 0.0
C900 C 0.37071 0.16718 0.56153 0.0
C901 C 0.34632 0.14482 0.57869 0.0
C902 C 0.36529 0.18647 0.54337 0.0
C903 C 0.33538 0.18357 0.54191 0.0
C904 C 0.31132 0.16215 0.55976 0.0
C905 C 0.3168 0.14314 0.57821 0.0
C906 C 0.32843 0.20102 0.52008 0.0
C907 C 0.30713 0.18438 0.49803 0.0
C908 C 0.34344 0.23354 0.52 0.0
C909 C 0.36594 0.25235 0.54296 0.0
C910 C 0.35731 0.24712 0.57239 0.0
C911 C 0.37864 0.26497 0.59387 0.0
C912 C 0.40862 0.28829 0.58619 0.0
C913 C 0.4173 0.29386 0.55699 0.0
C914 C 0.39607 0.27603 0.53543 0.0
C915 C 0.28212 0.28204 0.45179 0.0
C916 C 0.29879 0.29449 0.42597 0.0
C917 C 0.28503 0.25922 0.46661 0.0
C918 C 0.30519 0.24891 0.4562 0.0
C919 C 0.32086 0.26027 0.42971 0.0
C920 C 0.31768 0.28301 0.41464 0.0
C921 C 0.31452 0.23172 0.47615 0.0
C922 C 0.33619 0.24848 0.49803 0.0
C923 C 0.30024 0.19934 0.47594 0.0
C924 C 0.27897 0.1801 0.45272 0.0
C925 C 0.29157 0.17659 0.42654 0.0
C926 C 0.27248 0.15367 0.40685 0.0
C927 C 0.24068 0.13445 0.41299 0.0
C928 C 0.22786 0.1383 0.43875 0.0
C929 C 0.24696 0.16092 0.45867 0.0
H930 H 0.22596 0.11672 0.39773 0.0
H931 H 0.42509 0.30211 0.60285 0.0
H932 H 0.82841 0.22559 0.54228 0.0
H933 H 0.78479 0.18029 0.51948 0.0
H934 H 0.83902 0.13353 0.52061 0.0
H935 H 0.88215 0.17802 0.54411 0.0
H936 H 0.80408 0.1325 0.46452 0.0
H937 H 0.79272 0.11337 0.56959 0.0
H938 H 0.78827 0.12928 0.61927 0.0
H939 H 0.70626 0.13409 0.5949 0.0
H940 H 0.71055 0.11872 0.54492 0.0
H941 H 0.69262 0.97825 0.43238 0.0
H942 H 0.73601 0.0257 0.4521 0.0
H943 H 0.66964 0.05024 0.48797 0.0
H944 H 0.6265 0.00184 0.47026 0.0
H945 H 0.71086 0.06543 0.52449 0.0
H946 H 0.71677 0.08397 0.42283 0.0
H947 H 0.71991 0.07452 0.37075 0.0
H948 H 0.80807 0.07752 0.38424 0.0
H949 H 0.80527 0.0866 0.43649 0.0
C950 C 0.83111 0.20575 0.53747 0.0
C951 C 0.85872 0.20539 0.54503 0.0
C952 C 0.80622 0.17996 0.52448 0.0
C953 C 0.80888 0.15375 0.51839 0.0
C954 C 0.83669 0.15366 0.52508 0.0
C955 C 0.86125 0.17908 0.53861 0.0
C956 C 0.78216 0.1257 0.50634 0.0
C957 C 0.78372 0.11758 0.47755 0.0
C958 C 0.75531 0.10707 0.52319 0.0
C959 C 0.75218 0.11526 0.55346 0.0
C960 C 0.77388 0.11804 0.57478 0.0
C961 C 0.77136 0.12692 0.60299 0.0
C962 C 0.7471 0.13285 0.61017 0.0
C963 C 0.7251 0.12959 0.58926 0.0
C964 C 0.72755 0.12077 0.561 0.0
C965 C 0.68746 0.9938 0.44463 0.0
C966 C 0.65634 0.98646 0.4499 0.0
C967 C 0.71223 0.02107 0.45566 0.0
C968 C 0.70628 0.04209 0.47107 0.0
C969 C 0.67503 0.03455 0.47628 0.0
C970 C 0.65034 0.00688 0.46611 0.0
C971 C 0.73243 0.07163 0.48226 0.0
C972 C 0.73093 0.08016 0.51107 0.0
C973 C 0.75888 0.09119 0.46503 0.0
C974 C 0.76065 0.08566 0.43363 0.0
C975 C 0.73672 0.08239 0.41473 0.0
C976 C 0.73845 0.07713 0.38517 0.0
C977 C 0.76413 0.07534 0.37421 0.0
C978 C 0.78817 0.07887 0.39277 0.0
C979 C 0.78654 0.0841 0.42236 0.0
H980 H 0.76544 0.07128 0.35132 0.0
H981 H 0.74534 0.13998 0.63193 0.0
H982 H 0.98526 0.68577 0.42746 0.0
H983 H 0.9373 0.68093 0.4485 0.0
H984 H 0.97691 0.68982 0.53399 0.0
H985 H 0.02666 0.70146 0.51229 0.0
H986 H 0.89535 0.64467 0.47521 0.0
H987 H 0.94086 0.69578 0.58545 0.0
H988 H 0.98664 0.73741 0.61047 0.0
H989 H 0.00784 0.79502 0.53532 0.0
H990 H 0.96209 0.7534 0.5098 0.0
H991 H 0.76166 0.60947 0.56274 0.0
H992 H 0.81084 0.61521 0.5434 0.0
H993 H 0.84901 0.71379 0.53936 0.0
H994 H 0.80066 0.7083 0.55985 0.0
H995 H 0.8904 0.70295 0.56026 0.0
H996 H 0.82212 0.66407 0.47746 0.0
H997 H 0.77474 0.62721 0.45086 0.0
H998 H 0.79753 0.55547 0.46572 0.0
H999 H 0.84487 0.59185 0.49271 0.0
C1000 C 0.98432 0.68908 0.45055 0.0
C1001 C 0.0105 0.69676 0.46794 0.0
C1002 C 0.95646 0.68518 0.46285 0.0
C1003 C 0.95328 0.68624 0.49319 0.0
C1004 C 0.97886 0.69126 0.51064 0.0
C1005 C 0.00732 0.6973 0.49817 0.0
C1006 C 0.92278 0.68043 0.50625 0.0
C1007 C 0.8946 0.6579 0.49355 0.0
C1008 C 0.9209 0.69674 0.53079 0.0
C1009 C 0.94871 0.72142 0.54551 0.0
C1010 C 0.95547 0.71728 0.57422 0.0
C1011 C 0.98136 0.74078 0.58845 0.0
C1012 C 0.00033 0.7687 0.57432 0.0
C1013 C 0.99337 0.77317 0.54598 0.0
C1014 C 0.96763 0.74961 0.53157 0.0
C1015 C 0.7805 0.63233 0.55751 0.0
C1016 C 0.77725 0.65843 0.56266 0.0
C1017 C 0.80857 0.63558 0.54639 0.0
C1018 C 0.83356 0.66492 0.53958 0.0
C1019 C 0.83015 0.69091 0.54452 0.0
C1020 C 0.80241 0.68774 0.55614 0.0
C1021 C 0.86366 0.66896 0.52794 0.0
C1022 C 0.89153 0.69042 0.54144 0.0
C1023 C 0.86523 0.65249 0.5036 0.0
C1024 C 0.83684 0.63059 0.48734 0.0
C1025 C 0.8169 0.64038 0.47522 0.0
C1026 C 0.79008 0.61959 0.46005 0.0
C1027 C 0.78308 0.589 0.45667 0.0
C1028 C 0.80295 0.57916 0.46839 0.0
C1029 C 0.82979 0.59986 0.48361 0.0
H1030 H 0.76231 0.57293 0.44492 0.0
H1031 H 0.02029 0.78695 0.5854 0.0
H1032 H 0.30134 0.43365 0.33626 0.0
H1033 H 0.28204 0.45693 0.30071 0.0
H1034 H 0.23277 0.36975 0.25611 0.0
H1035 H 0.25279 0.34697 0.29036 0.0
H1036 H 0.25107 0.41221 0.21812 0.0
H1037 H 0.1986 0.39323 0.31209 0.0
H1038 H 0.19712 0.4007 0.36488 0.0
H1039 H 0.23373 0.49774 0.35181 0.0
H1040 H 0.23576 0.49083 0.29896 0.0
H1041 H 0.08957 0.38218 0.20547 0.0
H1042 H 0.13442 0.40014 0.23771 0.0
H1043 H 0.19455 0.4617 0.1711 0.0
H1044 H 0.14945 0.44345 0.13846 0.0
H1045 H 0.18307 0.44937 0.26196 0.0
H1046 H 0.2564 0.44828 0.16537 0.0
H1047 H 0.24892 0.42938 0.11485 0.0
H1048 H 0.15735 0.35543 0.13669 0.0
H1049 H 0.16454 0.37361 0.1873 0.0
C1050 C 0.28706 0.41971 0.31842 0.0
C1051 C 0.27816 0.38827 0.31651 0.0
C1052 C 0.27589 0.43301 0.2982 0.0
C1053 C 0.25539 0.41496 0.27602 0.0
C1054 C 0.24848 0.38425 0.27297 0.0
C1055 C 0.25979 0.37112 0.29284 0.0
C1056 C 0.23815 0.42627 0.2577 0.0
C1057 C 0.23682 0.42109 0.22765 0.0
C1058 C 0.21912 0.43746 0.27003 0.0
C1059 C 0.21772 0.44159 0.3017 0.0
C1060 C 0.20649 0.41617 0.32053 0.0
C1061 C 0.20554 0.4203 0.35043 0.0
C1062 C 0.21542 0.4497 0.36169 0.0
C1063 C 0.22617 0.475 0.34306 0.0
C1064 C 0.22724 0.471 0.31314 0.0
C1065 C 0.11211 0.40043 0.19806 0.0
C1066 C 0.11615 0.41105 0.16932 0.0
C1067 C 0.13777 0.41081 0.21658 0.0
C1068 C 0.16796 0.43178 0.20661 0.0
C1069 C 0.17147 0.44525 0.17911 0.0
C1070 C 0.14565 0.43494 0.16053 0.0
C1071 C 0.19534 0.4343 0.22271 0.0
C1072 C 0.19853 0.44203 0.25225 0.0
C1073 C 0.21504 0.42403 0.21021 0.0
C1074 C 0.21086 0.41259 0.17995 0.0
C1075 C 0.23474 0.42796 0.15935 0.0
C1076 C 0.23054 0.41735 0.13071 0.0
C1077 C 0.20262 0.3913 0.12251 0.0
C1078 C 0.17892 0.37566 0.14299 0.0
C1079 C 0.18305 0.38609 0.17164 0.0
H1080 H 0.19937 0.38317 0.10033 0.0
H1081 H 0.21466 0.45285 0.38485 0.0
H1082 H 0.57502 0.71756 0.15025 0.0
H1083 H 0.5584 0.74057 0.18846 0.0
H1084 H 0.64525 0.76905 0.23378 0.0
H1085 H 0.66218 0.74627 0.19565 0.0
H1086 H 0.59301 0.74819 0.27103 0.0
H1087 H 0.64204 0.81862 0.19172 0.0
H1088 H 0.64894 0.83394 0.14024 0.0
H1089 H 0.55551 0.82082 0.13806 0.0
H1090 H 0.54785 0.80484 0.18942 0.0
H1091 H 0.60282 0.89518 0.32991 0.0
H1092 H 0.61315 0.86886 0.29004 0.0
H1093 H 0.52475 0.78699 0.30624 0.0
H1094 H 0.51392 0.81298 0.34574 0.0
H1095 H 0.57912 0.83565 0.23836 0.0
H1096 H 0.54391 0.72811 0.30895 0.0
H1097 H 0.5401 0.71417 0.36071 0.0
H1098 H 0.6125 0.80588 0.38122 0.0
H1099 H 0.61714 0.8202 0.32953 0.0
C1100 C 0.59027 0.72803 0.16869 0.0
C1101 C 0.62006 0.73033 0.16978 0.0
C1102 C 0.5808 0.74132 0.19041 0.0
C1103 C 0.6008 0.75686 0.21369 0.0
C1104 C 0.62954 0.75724 0.21592 0.0
C1105 C 0.63919 0.74428 0.19407 0.0
C1106 C 0.59303 0.7749 0.23437 0.0
C1107 C 0.58977 0.76716 0.26388 0.0
C1108 C 0.58951 0.80009 0.22506 0.0
C1109 C 0.59426 0.81023 0.19433 0.0
C1110 C 0.62288 0.81877 0.18021 0.0
C1111 C 0.62695 0.8276 0.15106 0.0
C1112 C 0.60266 0.82828 0.13587 0.0
C1113 C 0.57429 0.82023 0.14984 0.0
C1114 C 0.57007 0.81129 0.17897 0.0
C1115 C 0.58522 0.87182 0.32459 0.0
C1116 C 0.55768 0.85615 0.3413 0.0
C1117 C 0.59116 0.85685 0.30177 0.0
C1118 C 0.56989 0.82591 0.29555 0.0
C1119 C 0.54155 0.81083 0.31092 0.0
C1120 C 0.53541 0.82582 0.33347 0.0
C1121 C 0.57844 0.80848 0.27488 0.0
C1122 C 0.58201 0.81645 0.24543 0.0
C1123 C 0.58273 0.78379 0.2843 0.0
C1124 C 0.58059 0.77529 0.3154 0.0
C1125 C 0.5591 0.74525 0.32449 0.0
C1126 C 0.5568 0.73729 0.35381 0.0
C1127 C 0.57598 0.75915 0.37423 0.0
C1128 C 0.59758 0.78901 0.36538 0.0
C1129 C 0.60003 0.79706 0.33607 0.0
H1130 H 0.57416 0.75291 0.39689 0.0
H1131 H 0.60584 0.8351 0.1133 0.0
H1132 H 0.29917 0.81426 0.16014 0.0
H1133 H 0.27314 0.78775 0.20489 0.0
H1134 H 0.26614 0.86703 0.23188 0.0
H1135 H 0.2925 0.89392 0.1875 0.0
H1136 H 0.2779 0.8406 0.27756 0.0
H1137 H 0.20616 0.80735 0.19654 0.0
H1138 H 0.18782 0.78557 0.14781 0.0
H1139 H 0.18478 0.70144 0.17375 0.0
H1140 H 0.2036 0.72294 0.22254 0.0
H1141 H 0.13979 0.7887 0.35764 0.0
H1142 H 0.17996 0.80786 0.32015 0.0
H1143 H 0.17924 0.72103 0.31927 0.0
H1144 H 0.13879 0.70145 0.35743 0.0
H1145 H 0.17625 0.74494 0.26298 0.0
H1146 H 0.23941 0.77712 0.34794 0.0
H1147 H 0.25577 0.80024 0.39647 0.0
H1148 H 0.273 0.88761 0.3632 0.0
H1149 H 0.25626 0.86491 0.31453 0.0
C1150 C 0.29262 0.82633 0.1758 0.0
C1151 C 0.29757 0.85613 0.16994 0.0
C1152 C 0.27764 0.81106 0.20136 0.0
C1153 C 0.26715 0.82518 0.22147 0.0
C1154 C 0.27393 0.85563 0.21662 0.0
C1155 C 0.28897 0.87096 0.19113 0.0
C1156 C 0.24691 0.80762 0.24633 0.0
C1157 C 0.25569 0.81969 0.27439 0.0
C1158 C 0.2182 0.77992 0.24227 0.0
C1159 C 0.20666 0.76689 0.21305 0.0
C1160 C 0.20181 0.7843 0.19178 0.0
C1161 C 0.1913 0.772 0.16416 0.0
C1162 C 0.18523 0.74218 0.15766 0.0
C1163 C 0.18957 0.72456 0.1788 0.0
C1164 C 0.20016 0.73679 0.20643 0.0
C1165 C 0.14801 0.7735 0.34956 0.0
C1166 C 0.13596 0.74345 0.36055 0.0
C1167 C 0.17118 0.78463 0.32822 0.0
C1168 C 0.18279 0.76599 0.31718 0.0
C1169 C 0.17065 0.73581 0.32769 0.0
C1170 C 0.14761 0.7247 0.34946 0.0
C1171 C 0.20698 0.7783 0.29407 0.0
C1172 C 0.19885 0.76536 0.26628 0.0
C1173 C 0.23611 0.80537 0.29835 0.0
C1174 C 0.24639 0.81923 0.32758 0.0
C1175 C 0.24645 0.80121 0.35099 0.0
C1176 C 0.25584 0.81425 0.37853 0.0
C1177 C 0.26538 0.84537 0.38292 0.0
C1178 C 0.2656 0.86351 0.35976 0.0
C1179 C 0.25621 0.85057 0.33218 0.0
H1180 H 0.27264 0.85543 0.40426 0.0
H1181 H 0.17709 0.73269 0.13627 0.0
H1182 H 0.92336 0.66195 0.78622 0.0
H1183 H 0.87982 0.6439 0.75223 0.0
H1184 H 0.8256 0.56377 0.80551 0.0
H1185 H 0.86919 0.58176 0.83979 0.0
H1186 H 0.84041 0.59359 0.71948 0.0
H1187 H 0.75341 0.56037 0.81421 0.0
H1188 H 0.75381 0.56902 0.867 0.0
H1189 H 0.83773 0.65645 0.85804 0.0
H1190 H 0.83746 0.64856 0.80519 0.0
H1191 H 0.7022 0.56879 0.65043 0.0
H1192 H 0.7309 0.55599 0.68609 0.0
H1193 H 0.76001 0.64258 0.72944 0.0
H1194 H 0.73119 0.65538 0.69427 0.0
H1195 H 0.75223 0.59839 0.76795 0.0
H1196 H 0.80383 0.63874 0.67558 0.0
H1197 H 0.80794 0.63842 0.62226 0.0
H1198 H 0.80197 0.54959 0.62568 0.0
H1199 H 0.79736 0.54922 0.67903 0.0
C1200 C 0.90256 0.63997 0.79024 0.0
C1201 C 0.89948 0.62353 0.81589 0.0
C1202 C 0.87773 0.62961 0.77072 0.0
C1203 C 0.84932 0.60281 0.77666 0.0
C1204 C 0.84728 0.58467 0.80071 0.0
C1205 C 0.87227 0.59492 0.82019 0.0
C1206 C 0.82094 0.59699 0.76033 0.0
C1207 C 0.82078 0.59391 0.7301 0.0
C1208 C 0.79572 0.59824 0.77419 0.0
C1209 C 0.79562 0.60363 0.80583 0.0
C1210 C 0.77186 0.58147 0.82352 0.0
C1211 C 0.77206 0.58626 0.85343 0.0
C1212 C 0.79585 0.61322 0.86588 0.0
C1213 C 0.81937 0.63554 0.8484 0.0
C1214 C 0.81919 0.63092 0.81847 0.0
C1215 C 0.71382 0.58465 0.66812 0.0
C1216 C 0.71492 0.61339 0.6692 0.0
C1217 C 0.73032 0.57733 0.68841 0.0
C1218 C 0.74808 0.59861 0.71004 0.0
C1219 C 0.74658 0.62588 0.71285 0.0
C1220 C 0.73021 0.63325 0.69259 0.0
C1221 C 0.77167 0.59496 0.72705 0.0
C1222 C 0.77113 0.59664 0.7574 0.0
C1223 C 0.79676 0.59343 0.71324 0.0
C1224 C 0.79986 0.59377 0.68122 0.0
C1225 C 0.80318 0.61905 0.66493 0.0
C1226 C 0.80561 0.61901 0.63472 0.0
C1227 C 0.80511 0.59395 0.62059 0.0
C1228 C 0.80227 0.56894 0.63666 0.0
C1229 C 0.79974 0.56884 0.66687 0.0
H1230 H 0.80702 0.59394 0.59721 0.0
H1231 H 0.79601 0.61684 0.88904 0.0
H1232 H 0.4432 0.28566 0.88094 0.0
H1233 H 0.46708 0.27033 0.84208 0.0
H1234 H 0.38625 0.2457 0.78825 0.0
H1235 H 0.36264 0.26117 0.82647 0.0
H1236 H 0.44497 0.21395 0.82188 0.0
H1237 H 0.40221 0.25178 0.71882 0.0
H1238 H 0.39949 0.2973 0.70201 0.0
H1239 H 0.4722 0.35451 0.76165 0.0
H1240 H 0.47577 0.30945 0.77852 0.0
H1241 H 0.37438 0.10616 0.71482 0.0
H1242 H 0.39582 0.14481 0.75276 0.0
H1243 H 0.47062 0.20564 0.69553 0.0
H1244 H 0.44882 0.16663 0.65696 0.0
H1245 H 0.4414 0.23376 0.71698 0.0
H1246 H 0.48855 0.18149 0.759 0.0
H1247 H 0.49444 0.13763 0.77558 0.0
H1248 H 0.42033 0.11335 0.83754 0.0
H1249 H 0.41362 0.15674 0.82107 0.0
C1250 C 0.43092 0.27771 0.86052 0.0
C1251 C 0.4009 0.27441 0.85688 0.0
C1252 C 0.44456 0.26887 0.83839 0.0
C1253 C 0.42861 0.25707 0.81213 0.0
C1254 C 0.39935 0.25525 0.80804 0.0
C1255 C 0.3857 0.26386 0.83009 0.0
C1256 C 0.44009 0.24302 0.79021 0.0
C1257 C 0.44475 0.21859 0.79894 0.0
C1258 C 0.44107 0.24983 0.76031 0.0
C1259 C 0.43921 0.27713 0.75 0.0
C1260 C 0.41782 0.27409 0.72821 0.0
C1261 C 0.41607 0.29982 0.7187 0.0
C1262 C 0.43563 0.32877 0.73078 0.0
C1263 C 0.45701 0.33206 0.75236 0.0
C1264 C 0.45888 0.30641 0.76193 0.0
C1265 C 0.39588 0.12742 0.71047 0.0
C1266 C 0.4098 0.13344 0.68284 0.0
C1267 C 0.40831 0.14948 0.73233 0.0
C1268 C 0.435 0.17814 0.72714 0.0
C1269 C 0.45009 0.18363 0.70006 0.0
C1270 C 0.43773 0.16129 0.67811 0.0
C1271 C 0.44368 0.20325 0.74868 0.0
C1272 C 0.44278 0.22975 0.7399 0.0
C1273 C 0.44668 0.19864 0.77852 0.0
C1274 C 0.45061 0.17247 0.78875 0.0
C1275 C 0.47339 0.16672 0.77606 0.0
C1276 C 0.47688 0.14193 0.78546 0.0
C1277 C 0.45778 0.12272 0.80761 0.0
C1278 C 0.43516 0.12829 0.82043 0.0
C1279 C 0.43156 0.15304 0.81111 0.0
H1280 H 0.46052 0.10353 0.81484 0.0
H1281 H 0.43423 0.34866 0.7234 0.0
H1282 H 0.71162 0.14247 0.84741 0.0
H1283 H 0.72913 0.18153 0.80898 0.0
H1284 H 0.75591 0.1266 0.75629 0.0
H1285 H 0.73855 0.08778 0.79428 0.0
H1286 H 0.7895 0.2137 0.79206 0.0
H1287 H 0.75336 0.13865 0.6873 0.0
H1288 H 0.70717 0.09246 0.6682 0.0
H1289 H 0.64709 0.10884 0.72475 0.0
H1290 H 0.69286 0.15538 0.7439 0.0
H1291 H 0.90127 0.25475 0.6828 0.0
H1292 H 0.86152 0.2341 0.72082 0.0
H1293 H 0.80167 0.25668 0.67019 0.0
H1294 H 0.84171 0.27768 0.63186 0.0
H1295 H 0.77239 0.1963 0.68617 0.0
H1296 H 0.82761 0.29198 0.73401 0.0
H1297 H 0.87313 0.33852 0.75342 0.0
H1298 H 0.89299 0.28284 0.81116 0.0
H1299 H 0.84795 0.2359 0.79178 0.0
C1300 C 0.72029 0.13831 0.82722 0.0
C1301 C 0.72391 0.11217 0.8239 0.0
C1302 C 0.73043 0.16071 0.80537 0.0
C1303 C 0.74372 0.15696 0.77971 0.0
C1304 C 0.7453 0.12984 0.77567 0.0
C1305 C 0.73554 0.10771 0.79752 0.0
C1306 C 0.76003 0.18269 0.75882 0.0
C1307 C 0.78547 0.21019 0.76891 0.0
C1308 C 0.75428 0.17838 0.72868 0.0
C1309 C 0.72659 0.15056 0.71701 0.0
C1310 C 0.73027 0.13257 0.69548 0.0
C1311 C 0.70417 0.10626 0.6847 0.0
C1312 C 0.67422 0.09772 0.69525 0.0
C1313 C 0.67031 0.11546 0.71661 0.0
C1314 C 0.69634 0.14179 0.72747 0.0
C1315 C 0.87998 0.25604 0.68004 0.0
C1316 C 0.87454 0.26772 0.65431 0.0
C1317 C 0.85732 0.24437 0.70187 0.0
C1318 C 0.82866 0.24396 0.69841 0.0
C1319 C 0.8237 0.25693 0.67334 0.0
C1320 C 0.84664 0.26905 0.65156 0.0
C1321 C 0.80291 0.22645 0.71941 0.0
C1322 C 0.77583 0.20039 0.70932 0.0
C1323 C 0.80708 0.23217 0.74958 0.0
C1324 C 0.83436 0.26035 0.76133 0.0
C1325 C 0.84181 0.28961 0.75069 0.0
C1326 C 0.86753 0.31609 0.76172 0.0
C1327 C 0.88595 0.31364 0.78349 0.0
C1328 C 0.87869 0.28471 0.7943 0.0
C1329 C 0.85302 0.25815 0.78333 0.0
H1330 H 0.90584 0.33417 0.79201 0.0
H1331 H 0.65404 0.07735 0.68688 0.0
H1332 H 0.09175 0.46821 0.03383 0.0
H1333 H 0.07419 0.49754 0.00435 0.0
H1334 H 0.98824 0.45992 0.05371 0.0
H1335 H 0.00551 0.43035 0.08314 0.0
H1336 H 0.97727 0.45245 0.99589 0.0
H1337 H 0.04311 0.53506 0.06004 0.0
H1338 H 0.09201 0.57007 0.08567 0.0
H1339 H 0.13929 0.60373 0.00421 0.0
H1340 H 0.09077 0.56859 0.97807 0.0
H1341 H 0.91746 0.54768 0.94402 0.0
H1342 H 0.93605 0.51736 0.97032 0.0
H1343 H 0.02259 0.56101 0.92167 0.0
H1344 H 0.00439 0.59195 0.89569 0.0
H1345 H 0.03426 0.56504 0.97774 0.0
H1346 H 0.96858 0.48371 0.91332 0.0
H1347 H 0.91999 0.44869 0.88729 0.0
H1348 H 0.87283 0.41239 0.96833 0.0
H1349 H 0.92103 0.4475 0.99488 0.0
C1350 C 0.06942 0.4667 0.03884 0.0
C1351 C 0.04997 0.44687 0.06075 0.0
C1352 C 0.0594 0.48347 0.02195 0.0
C1353 C 0.02985 0.48082 0.02678 0.0
C1354 C 0.01105 0.46216 0.04953 0.0
C1355 C 0.02106 0.44544 0.06645 0.0
C1356 C 0.01764 0.49581 0.00694 0.0
C1357 C 0.98948 0.47714 0.9922 0.0
C1358 C 0.03416 0.52784 0.00142 0.0
C1359 C 0.06338 0.54895 0.0171 0.0
C1360 C 0.06401 0.54972 0.04759 0.0
C1361 C 0.09164 0.56964 0.06221 0.0
C1362 C 0.11876 0.58905 0.04658 0.0
C1363 C 0.11828 0.58864 0.01629 0.0
C1364 C 0.09071 0.56875 0.00156 0.0
C1365 C 0.94011 0.55028 0.93837 0.0
C1366 C 0.95953 0.57234 0.91788 0.0
C1367 C 0.95073 0.53288 0.95343 0.0
C1368 C 0.98076 0.53693 0.94801 0.0
C1369 C -0.00059 0.55763 0.92632 0.0
C1370 C 0.98888 0.57515 0.91136 0.0
C1371 C 0.99374 0.52171 0.96673 0.0
C1372 C 0.02206 0.54033 0.98128 0.0
C1373 C 0.97743 0.4896 0.97199 0.0
C1374 C 0.94837 0.46845 0.9561 0.0
C1375 C 0.94778 0.46844 0.9256 0.0
C1376 C 0.92032 0.44853 0.91075 0.0
C1377 C 0.89332 0.42838 0.92615 0.0
C1378 C 0.89375 0.42804 0.95643 0.0
C1379 C 0.92115 0.44791 0.97139 0.0
H1380 H 0.87208 0.41298 0.91461 0.0
H1381 H 0.14012 0.60446 0.05794 0.0
H1382 H 0.53362 0.62444 0.04562 0.0
H1383 H 0.50529 0.57331 0.0235 0.0
H1384 H 0.54747 0.53914 0.08451 0.0
H1385 H 0.57586 0.59011 0.10671 0.0
H1386 H 0.53728 0.54734 0.9971 0.0
H1387 H 0.49837 0.46082 0.09246 0.0
H1388 H 0.47842 0.45564 0.14249 0.0
H1389 H 0.44084 0.51514 0.12232 0.0
H1390 H 0.46017 0.52034 0.07209 0.0
H1391 H 0.46816 0.36688 0.99137 0.0
H1392 H 0.4965 0.417 0.01551 0.0
H1393 H 0.46059 0.45586 0.95279 0.0
H1394 H 0.43267 0.40618 0.92844 0.0
H1395 H 0.46862 0.44524 0.04165 0.0
H1396 H 0.50951 0.53269 0.94611 0.0
H1397 H 0.53072 0.53816 0.89656 0.0
H1398 H 0.56608 0.47703 0.91756 0.0
H1399 H 0.54549 0.47151 0.96734 0.0
C1400 C 0.53605 0.60581 0.05496 0.0
C1401 C 0.55713 0.61134 0.07778 0.0
C1402 C 0.52005 0.57667 0.04213 0.0
C1403 C 0.52449 0.55253 0.05221 0.0
C1404 C 0.54358 0.55739 0.07647 0.0
C1405 C 0.55977 0.58655 0.08916 0.0
C1406 C 0.51204 0.52342 0.03556 0.0
C1407 C 0.52181 0.52501 0.00666 0.0
C1408 C 0.49294 0.49432 0.04845 0.0
C1409 C 0.48105 0.49123 0.07858 0.0
C1410 C 0.48578 0.47273 0.09868 0.0
C1411 C 0.47458 0.4698 0.12708 0.0
C1412 C 0.45847 0.48514 0.13561 0.0
C1413 C 0.45345 0.50338 0.11573 0.0
C1414 C 0.46458 0.50638 0.0873 0.0
C1415 C 0.4671 0.38634 0.98222 0.0
C1416 C 0.44809 0.38255 0.95806 0.0
C1417 C 0.48308 0.41489 0.99618 0.0
C1418 C 0.48058 0.44015 0.98603 0.0
C1419 C 0.46316 0.43683 0.96087 0.0
C1420 C 0.44716 0.40835 0.94696 0.0
C1421 C 0.49367 0.46913 0.00306 0.0
C1422 C 0.4841 0.46754 0.03205 0.0
C1423 C 0.51312 0.49826 0.9903 0.0
C1424 C 0.52564 0.50144 0.96039 0.0
C1425 C 0.52189 0.52048 0.94018 0.0
C1426 C 0.5338 0.52358 0.91205 0.0
C1427 C 0.54964 0.50787 0.90389 0.0
C1428 C 0.55368 0.48908 0.92387 0.0
C1429 C 0.54183 0.48591 0.95203 0.0
H1430 H 0.55885 0.51031 0.8821 0.0
H1431 H 0.44983 0.48284 0.1576 0.0
H1432 H 0.42467 0.94398 0.10606 0.0
H1433 H 0.47179 0.96428 0.07522 0.0
H1434 H 0.41496 0.95321 0.99988 0.0
H1435 H 0.36827 0.93166 0.03031 0.0
H1436 H 0.45467 0.93836 0.98506 0.0
H1437 H 0.46084 0.02475 0.03634 0.0
H1438 H 0.46213 0.05486 0.07932 0.0
H1439 H 0.54552 0.05569 0.10911 0.0
H1440 H 0.54449 0.02524 0.06646 0.0
H1441 H 0.61295 0.0846 0.93363 0.0
H1442 H 0.56306 0.06174 0.96034 0.0
H1443 H 0.55748 0.97262 0.95529 0.0
H1444 H 0.6053 0.99473 0.92683 0.0
H1445 H 0.54792 0.03834 0.00933 0.0
H1446 H 0.48655 0.91373 0.96265 0.0
H1447 H 0.4816 0.88732 0.9161 0.0
H1448 H 0.50175 0.9698 0.8699 0.0
H1449 H 0.50649 0.99662 0.91617 0.0
C1450 C 0.42247 0.94555 0.08285 0.0
C1451 C 0.39304 0.93577 0.07034 0.0
C1452 C 0.44929 0.95735 0.06528 0.0
C1453 C 0.44704 0.96069 0.03519 0.0
C1454 C 0.41742 0.95075 0.02291 0.0
C1455 C 0.39074 0.93842 0.0403 0.0
C1456 C 0.4753 0.97517 0.01628 0.0
C1457 C 0.47508 0.96021 0.99041 0.0
C1458 C 0.50165 0.00409 0.02277 0.0
C1459 C 0.5024 0.02246 0.04838 0.0
C1460 C 0.47933 0.03119 0.05216 0.0
C1461 C 0.48003 0.04833 0.07644 0.0
C1462 C 0.50385 0.05711 0.09697 0.0
C1463 C 0.52706 0.04883 0.09322 0.0
C1464 C 0.52644 0.03165 0.06899 0.0
C1465 C 0.60039 0.05998 0.9375 0.0
C1466 C 0.61257 0.04135 0.92763 0.0
C1467 C 0.57209 0.04695 0.953 0.0
C1468 C 0.55602 0.01524 0.95953 0.0
C1469 C 0.5685 0.99681 0.9497 0.0
C1470 C 0.59603 0.00957 0.93342 0.0
C1471 C 0.52726 0.0016 0.97793 0.0
C1472 C 0.52748 0.01657 0.00385 0.0
C1473 C 0.5003 0.97327 0.97088 0.0
C1474 C 0.49717 0.95726 0.9429 0.0
C1475 C 0.4898 0.9262 0.94256 0.0
C1476 C 0.48707 0.91117 0.91622 0.0
C1477 C 0.49145 0.9269 0.89006 0.0
C1478 C 0.49848 0.95768 0.89018 0.0
C1479 C 0.50124 0.97282 0.91646 0.0
H1480 H 0.48934 0.91523 0.8697 0.0
H1481 H 0.50435 0.07038 0.11576 0.0
H1482 H 0.5168 0.91456 0.46856 0.0
H1483 H 0.49193 0.94147 0.49039 0.0
H1484 H 0.50324 0.99052 0.41044 0.0
H1485 H 0.52539 0.96087 0.38734 0.0
H1486 H 0.53715 0.02363 0.46983 0.0
H1487 H 0.44101 0.9644 0.42177 0.0
H1488 H 0.39233 0.92058 0.40339 0.0
H1489 H 0.36169 0.8905 0.49055 0.0
H1490 H 0.41064 0.93368 0.5095 0.0
H1491 H 0.46962 0.10862 0.54113 0.0
H1492 H 0.48962 0.08434 0.50739 0.0
H1493 H 0.45473 0.00491 0.56329 0.0
H1494 H 0.43479 0.02892 0.59707 0.0
H1495 H 0.43047 0.99135 0.50734 0.0
H1496 H 0.53131 0.04946 0.55412 0.0
H1497 H 0.57788 0.09668 0.57107 0.0
H1498 H 0.59805 0.13098 0.48379 0.0
H1499 H 0.55133 0.08411 0.46636 0.0
C1500 C 0.51167 0.92908 0.45485 0.0
C1501 C 0.52146 0.93426 0.42576 0.0
C1502 C 0.49805 0.94503 0.46758 0.0
C1503 C 0.49542 0.96766 0.45191 0.0
C1504 C 0.50457 0.97267 0.42267 0.0
C1505 C 0.51716 0.95576 0.40955 0.0
C1506 C 0.48832 0.98913 0.46796 0.0
C1507 C 0.5137 0.01699 0.47752 0.0
C1508 C 0.45785 0.97999 0.47833 0.0
C1509 C 0.42974 0.95223 0.46707 0.0
C1510 C 0.42426 0.9481 0.43704 0.0
C1511 C 0.39646 0.9235 0.42651 0.0
C1512 C 0.37379 0.90296 0.44579 0.0
C1513 C 0.37916 0.9066 0.47564 0.0
C1514 C 0.407 0.93107 0.48628 0.0
C1515 C 0.46719 0.08646 0.54675 0.0
C1516 C 0.45028 0.07052 0.57161 0.0
C1517 C 0.47851 0.07256 0.52736 0.0
C1518 C 0.47318 0.04265 0.53267 0.0
C1519 C 0.45875 0.02789 0.55868 0.0
C1520 C 0.44755 0.04175 0.57806 0.0
C1521 C 0.4794 0.02527 0.50997 0.0
C1522 C 0.45384 0.99817 0.49933 0.0
C1523 C 0.50965 0.03521 0.49848 0.0
C1524 C 0.53759 0.06346 0.50899 0.0
C1525 C 0.54548 0.06722 0.53858 0.0
C1526 C 0.57195 0.09388 0.54827 0.0
C1527 C 0.59085 0.11686 0.52854 0.0
C1528 C 0.58336 0.11319 0.49906 0.0
C1529 C 0.55689 0.08658 0.48927 0.0
H1530 H 0.61136 0.13747 0.53607 0.0
H1531 H 0.3522 0.88403 0.43759 0.0
H1532 H 0.90338 0.36914 0.5226 0.0
H1533 H 0.92779 0.42011 0.49987 0.0
H1534 H 0.99766 0.45578 0.56724 0.0
H1535 H 0.97359 0.40488 0.58993 0.0
H1536 H 0.97817 0.49811 0.54847 0.0
H1537 H 0.01519 0.43195 0.50948 0.0
H1538 H 0.00856 0.38395 0.4876 0.0
H1539 H 0.96394 0.39773 0.41355 0.0
H1540 H 0.9698 0.44557 0.43527 0.0
H1541 H 0.09924 0.62709 0.47999 0.0
H1542 H 0.07378 0.57539 0.50108 0.0
H1543 H 0.00487 0.54305 0.43288 0.0
H1544 H 0.02999 0.59476 0.41178 0.0
H1545 H 0.02287 0.49888 0.45142 0.0
H1546 H 0.98634 0.56529 0.48991 0.0
H1547 H 0.99306 0.61342 0.51157 0.0
H1548 H 0.03638 0.59915 0.58635 0.0
H1549 H 0.03046 0.5512 0.56485 0.0
C1550 C 0.92333 0.38805 0.53308 0.0
C1551 C 0.93674 0.38298 0.55791 0.0
C1552 C 0.93738 0.4171 0.51996 0.0
C1553 C 0.96482 0.44152 0.53164 0.0
C1554 C 0.97657 0.43718 0.55784 0.0
C1555 C 0.96278 0.40809 0.57077 0.0
C1556 C 0.98309 0.4705 0.51512 0.0
C1557 C 0.98815 0.49833 0.52738 0.0
C1558 C 0.99579 0.47067 0.48743 0.0
C1559 C 0.99261 0.44215 0.47415 0.0
C1560 C 0.00373 0.42461 0.48864 0.0
C1561 C 0.00014 0.39746 0.47626 0.0
C1562 C 0.98577 0.38776 0.44923 0.0
C1563 C 0.97502 0.40525 0.43451 0.0
C1564 C 0.97847 0.43239 0.44684 0.0
C1565 C 0.07932 0.60877 0.4689 0.0
C1566 C 0.06642 0.61505 0.44439 0.0
C1567 C 0.06468 0.57929 0.4811 0.0
C1568 C 0.03714 0.55562 0.46881 0.0
C1569 C 0.02601 0.56107 0.44275 0.0
C1570 C 0.04043 0.59063 0.43072 0.0
C1571 C 0.01803 0.52647 0.48483 0.0
C1572 C 0.01281 0.49864 0.47248 0.0
C1573 C 0.00514 0.52628 0.51241 0.0
C1574 C 0.00827 0.55483 0.52563 0.0
C1575 C 0.99754 0.57254 0.51087 0.0
C1576 C 0.00117 0.59978 0.52312 0.0
C1577 C 0.01521 0.60937 0.55029 0.0
C1578 C 0.02556 0.59171 0.56529 0.0
C1579 C 0.02207 0.5645 0.55308 0.0
H1580 H 0.018 0.63046 0.55975 0.0
H1581 H 0.98301 0.36673 0.43968 0.0
H1582 H 0.36731 0.45588 0.45119 0.0
H1583 H 0.4147 0.48335 0.48055 0.0
H1584 H 0.46096 0.44604 0.4278 0.0
H1585 H 0.41371 0.41839 0.39854 0.0
H1586 H 0.46268 0.43378 0.4841 0.0
H1587 H 0.48346 0.52198 0.42727 0.0
H1588 H 0.47412 0.56174 0.40521 0.0
H1589 H 0.46478 0.59254 0.48976 0.0
H1590 H 0.47334 0.55251 0.51237 0.0
H1591 H 0.61824 0.52428 0.54126 0.0
H1592 H 0.56966 0.49489 0.51392 0.0
H1593 H 0.52393 0.53157 0.5682 0.0
H1594 H 0.5723 0.56102 0.59552 0.0
H1595 H 0.52167 0.54404 0.51168 0.0
H1596 H 0.49968 0.45564 0.56858 0.0
H1597 H 0.50957 0.41641 0.59109 0.0
H1598 H 0.52192 0.38691 0.50694 0.0
H1599 H 0.51255 0.42628 0.48391 0.0
C1600 C 0.38787 0.45424 0.44532 0.0
C1601 C 0.38668 0.43475 0.42269 0.0
C1602 C 0.41494 0.46993 0.46216 0.0
C1603 C 0.44128 0.46654 0.45651 0.0
C1604 C 0.44081 0.44878 0.43268 0.0
C1605 C 0.41382 0.43312 0.41587 0.0
C1606 C 0.46805 0.47887 0.47697 0.0
C1607 C 0.4759 0.458 0.48981 0.0
C1608 C 0.48458 0.51027 0.48513 0.0
C1609 C 0.47857 0.53386 0.47152 0.0
C1610 C 0.47893 0.53689 0.44118 0.0
C1611 C 0.47387 0.55956 0.42857 0.0
C1612 C 0.46871 0.57956 0.44607 0.0
C1613 C 0.46864 0.57695 0.47622 0.0
C1614 C 0.47357 0.55425 0.48894 0.0
C1615 C 0.59753 0.52521 0.54805 0.0
C1616 C 0.5992 0.54524 0.57032 0.0
C1617 C 0.56978 0.50846 0.53234 0.0
C1618 C 0.54331 0.51136 0.53883 0.0
C1619 C 0.54419 0.52924 0.56268 0.0
C1620 C 0.57183 0.54592 0.57837 0.0
C1621 C 0.51621 0.49895 0.51879 0.0
C1622 C 0.50834 0.51982 0.50602 0.0
C1623 C 0.49963 0.46757 0.51073 0.0
C1624 C 0.50574 0.44416 0.52453 0.0
C1625 C 0.50485 0.44102 0.55488 0.0
C1626 C 0.51028 0.4187 0.56773 0.0
C1627 C 0.51645 0.39923 0.55046 0.0
C1628 C 0.51718 0.40203 0.5203 0.0
C1629 C 0.51179 0.42434 0.50733 0.0
H1630 H 0.52059 0.38193 0.56046 0.0
H1631 H 0.4649 0.59715 0.43625 0.0
loop_
_geom_bond_atom_site_label_1
_geom_bond_atom_site_label_2
_geom_bond_distance
_geom_bond_site_symmetry_2
_ccdc_geom_bond_type
Mn0 O5 2.095 . S
Mn0 O15 2.162 . S
Mn0 O16 2.297 . S
Mn0 O24 2.385 . S
Mn0 O25 2.209 . S
Mn0 O26 2.094 . S
Mn1 O6 2.121 . S
Mn1 N8 2.257 . S
Mn1 N17 2.282 . S
Mn1 O25 2.215 . S
Mn1 O27 2.117 . S
C2 O24 1.234 . S
C2 O25 1.283 . S
C3 O15 1.281 . S
C3 O16 1.236 . S
C4 O26 1.240 . S
C4 O27 1.264 . S
O5 Mn0 2.095 . S
O5 C14 1.250 . S
O6 Mn1 2.121 . S
O6 C14 1.258 . S
C7 N8 1.326 . S
C7 C11 1.442 1_455 S
C7 H13 0.929 . S
N8 Mn1 2.257 . S
N8 C7 1.326 . S
N8 C12 1.362 . S
C9 C10 1.258 . S
C9 C12 1.431 1_655 S
C9 C29 1.449 . S
C10 C9 1.258 . S
C10 C11 1.483 . S
C10 H30 0.931 . S
C11 C7 1.442 1_655 S
C11 C10 1.483 . S
C11 H31 0.943 . S
C12 N8 1.362 . S
C12 C9 1.431 1_455 S
C12 C22 1.476 . S
H13 C7 0.929 . S
C14 O5 1.250 . S
C14 O6 1.258 . S
O15 Mn0 2.162 . S
O15 C3 1.281 . S
O16 Mn0 2.297 . S
O16 C3 1.236 . S
N17 Mn1 2.282 . S
N17 C18 1.328 . S
N17 C22 1.318 . S
C18 N17 1.328 . S
C18 C19 1.457 . S
C18 H23 0.929 . S
C19 C18 1.457 . S
C19 C20 1.291 . S
C19 H32 0.931 1_554 S
C20 C19 1.291 . S
C20 C21 1.373 . S
C20 H33 0.929 1_455 S
C21 C20 1.373 . S
C21 C22 1.396 . S
C21 C28 1.403 1_455 S
C22 C12 1.476 . S
C22 N17 1.318 . S
C22 C21 1.396 . S
H23 C18 0.929 . S
O24 Mn0 2.385 . S
O24 C2 1.234 . S
O25 Mn0 2.209 . S
O25 Mn1 2.215 . S
O25 C2 1.283 . S
O26 Mn0 2.094 . S
O26 C4 1.240 . S
O27 Mn1 2.117 . S
O27 C4 1.264 . S
C28 C21 1.403 1_655 S
C28 C29 1.399 . S
C28 H34 0.929 . S
C29 C9 1.449 . S
C29 C28 1.399 . S
C29 H35 0.930 . S
H30 C10 0.931 . S
H31 C11 0.943 . S
H32 C19 0.931 1_556 S
H33 C20 0.929 1_655 S
H34 C28 0.929 . S
H35 C29 0.930 . S
Mn36 O41 2.095 . S
Mn36 O51 2.162 . S
Mn36 O52 2.297 . S
Mn36 O60 2.385 . S
Mn36 O61 2.209 . S
Mn36 O62 2.094 . S
Mn37 O42 2.121 . S
Mn37 N44 2.257 . S
Mn37 N53 2.282 . S
Mn37 O61 2.215 . S
Mn37 O63 2.117 . S
C38 O60 1.234 . S
C38 O61 1.283 . S
C39 O51 1.281 . S
C39 O52 1.236 . S
C40 O62 1.240 . S
C40 O63 1.264 . S
O41 Mn36 2.095 . S
O41 C50 1.250 . S
O42 Mn37 2.121 . S
O42 C50 1.258 . S
C43 N44 1.326 . S
C43 C47 1.460 . S
C43 H49 0.929 . S
N44 Mn37 2.257 . S
N44 C43 1.326 . S
N44 C48 1.362 . S
C45 C46 1.258 . S
C45 C48 1.431 . S
C45 C65 1.449 . S
C46 C45 1.258 . S
C46 C47 1.477 . S
C46 H66 0.931 . S
C47 C43 1.460 . S
C47 C46 1.477 . S
C47 H67 0.930 . S
C48 N44 1.362 . S
C48 C45 1.431 . S
C48 C58 1.476 . S
H49 C43 0.929 . S
C50 O41 1.250 . S
C50 O42 1.258 . S
O51 Mn36 2.162 . S
O51 C39 1.281 . S
O52 Mn36 2.297 . S
O52 C39 1.236 . S
N53 Mn37 2.282 . S
N53 C54 1.328 . S
N53 C58 1.318 . S
C54 N53 1.328 . S
C54 C55 1.457 . S
C54 H59 0.929 . S
C55 C54 1.457 . S
C55 C56 1.291 . S
C55 H68 0.931 1_554 S
C56 C55 1.291 . S
C56 C57 1.373 . S
C56 H69 0.929 . S
C57 C56 1.373 . S
C57 C58 1.396 . S
C57 C64 1.403 . S
C58 C48 1.476 . S
C58 N53 1.318 . S
C58 C57 1.396 . S
H59 C54 0.929 . S
O60 Mn36 2.385 . S
O60 C38 1.234 . S
O61 Mn36 2.209 . S
O61 Mn37 2.215 . S
O61 C38 1.283 . S
O62 Mn36 2.094 . S
O62 C40 1.240 . S
O63 Mn37 2.117 . S
O63 C40 1.264 . S
C64 C57 1.403 . S
C64 C65 1.399 . S
C64 H70 0.929 . S
C65 C45 1.449 . S
C65 C64 1.399 . S
C65 H71 0.930 . S
H66 C46 0.931 . S
H67 C47 0.930 . S
H68 C55 0.931 1_556 S
H69 C56 0.929 . S
H70 C64 0.929 . S
H71 C65 0.930 . S
Mn72 O77 2.095 . S
Mn72 O87 2.162 . S
Mn72 O88 2.297 . S
Mn72 O96 2.385 . S
Mn72 O97 2.209 . S
Mn72 O98 2.094 . S
Mn73 O78 2.121 . S
Mn73 N80 2.257 . S
Mn73 N89 2.282 . S
Mn73 O97 2.215 . S
Mn73 O99 2.117 . S
C74 O96 1.234 . S
C74 O97 1.283 . S
C75 O87 1.281 . S
C75 O88 1.236 . S
C76 O98 1.240 . S
C76 O99 1.264 . S
O77 Mn72 2.095 . S
O77 C86 1.250 . S
O78 Mn73 2.121 . S
O78 C86 1.258 . S
C79 N80 1.326 . S
C79 C83 1.460 1_554 S
C79 H85 0.929 . S
N80 Mn73 2.257 . S
N80 C79 1.326 . S
N80 C84 1.362 . S
C81 C82 1.258 . S
C81 C84 1.431 . S
C81 C101 1.449 . S
C82 C81 1.258 . S
C82 C83 1.477 1_554 S
C82 H102 0.931 1_554 S
C83 C79 1.460 1_556 S
C83 C82 1.477 1_556 S
C83 H103 0.930 . S
C84 N80 1.362 . S
C84 C81 1.431 . S
C84 C94 1.476 . S
H85 C79 0.929 . S
C86 O77 1.250 . S
C86 O78 1.258 . S
O87 Mn72 2.162 . S
O87 C75 1.281 . S
O88 Mn72 2.297 . S
O88 C75 1.236 . S
N89 Mn73 2.282 . S
N89 C90 1.328 . S
N89 C94 1.318 . S
C90 N89 1.328 . S
C90 C91 1.457 . S
C90 H95 0.929 . S
C91 C90 1.457 . S
C91 C92 1.291 . S
C91 H104 0.931 . S
C92 C91 1.291 . S
C92 C93 1.373 . S
C92 H105 0.929 . S
C93 C92 1.373 . S
C93 C94 1.396 . S
C93 C100 1.403 . S
C94 C84 1.476 . S
C94 N89 1.318 . S
C94 C93 1.396 . S
H95 C90 0.929 . S
O96 Mn72 2.385 . S
O96 C74 1.234 . S
O97 Mn72 2.209 . S
O97 Mn73 2.215 . S
O97 C74 1.283 . S
O98 Mn72 2.094 . S
O98 C76 1.240 . S
O99 Mn73 2.117 . S
O99 C76 1.264 . S
C100 C93 1.403 . S
C100 C101 1.399 . S
C100 H106 0.929 . S
C101 C81 1.449 . S
C101 C100 1.399 . S
C101 H107 0.930 . S
H102 C82 0.931 1_556 S
H103 C83 0.930 . S
H104 C91 0.931 . S
H105 C92 0.929 . S
H106 C100 0.929 . S
H107 C101 0.930 . S
Mn108 O113 2.095 . S
Mn108 O123 2.162 . S
Mn108 O124 2.297 . S
Mn108 O132 2.385 . S
Mn108 O133 2.209 . S
Mn108 O134 2.094 . S
Mn109 O114 2.121 . S
Mn109 N116 2.257 . S
Mn109 N125 2.282 . S
Mn109 O133 2.215 . S
Mn109 O135 2.117 . S
C110 O132 1.234 . S
C110 O133 1.283 . S
C111 O123 1.281 . S
C111 O124 1.236 . S
C112 O134 1.240 . S
C112 O135 1.264 . S
O113 Mn108 2.095 . S
O113 C122 1.250 . S
O114 Mn109 2.121 . S
O114 C122 1.258 . S
C115 N116 1.326 . S
C115 C119 1.460 . S
C115 H121 0.929 . S
N116 Mn109 2.257 . S
N116 C115 1.326 . S
N116 C120 1.362 . S
C117 C118 1.258 . S
C117 C120 1.431 . S
C117 C137 1.449 . S
C118 C117 1.258 . S
C118 C119 1.477 . S
C118 H138 0.931 . S
C119 C115 1.460 . S
C119 C118 1.477 . S
C119 H139 0.930 . S
C120 N116 1.362 . S
C120 C117 1.431 . S
C120 C130 1.476 . S
H121 C115 0.929 . S
C122 O113 1.250 . S
C122 O114 1.258 . S
O123 Mn108 2.162 . S
O123 C111 1.281 . S
O124 Mn108 2.297 . S
O124 C111 1.236 . S
N125 Mn109 2.282 . S
N125 C126 1.328 . S
N125 C130 1.318 . S
C126 N125 1.328 . S
C126 C127 1.457 . S
C126 H131 0.929 . S
C127 C126 1.457 . S
C127 C128 1.291 . S
C127 H140 0.931 . S
C128 C127 1.291 . S
C128 C129 1.373 . S
C128 H141 0.929 . S
C129 C128 1.373 . S
C129 C130 1.396 . S
C129 C136 1.403 . S
C130 C120 1.476 . S
C130 N125 1.318 . S
C130 C129 1.396 . S
H131 C126 0.929 . S
O132 Mn108 2.385 . S
O132 C110 1.234 . S
O133 Mn108 2.209 . S
O133 Mn109 2.215 . S
O133 C110 1.283 . S
O134 Mn108 2.094 . S
O134 C112 1.240 . S
O135 Mn109 2.117 . S
O135 C112 1.264 . S
C136 C129 1.403 . S
C136 C137 1.399 . S
C136 H142 0.929 . S
C137 C117 1.449 . S
C137 C136 1.399 . S
C137 H143 0.930 . S
H138 C118 0.931 . S
H139 C119 0.930 . S
H140 C127 0.931 . S
H141 C128 0.929 . S
H142 C136 0.929 . S
H143 C137 0.930 . S
Mn144 O149 2.095 . S
Mn144 O159 2.162 . S
Mn144 O160 2.297 . S
Mn144 O168 2.385 . S
Mn144 O169 2.209 . S
Mn144 O170 2.094 . S
Mn145 O150 2.121 . S
Mn145 N152 2.257 . S
Mn145 N161 2.282 . S
Mn145 O169 2.215 . S
Mn145 O171 2.117 . S
C146 O168 1.234 . S
C146 O169 1.283 . S
C147 O159 1.281 . S
C147 O160 1.236 . S
C148 O170 1.240 . S
C148 O171 1.264 . S
O149 Mn144 2.095 . S
O149 C158 1.250 . S
O150 Mn145 2.121 . S
O150 C158 1.258 . S
C151 N152 1.326 . S
C151 C155 1.460 . S
C151 H157 0.929 . S
N152 Mn145 2.257 . S
N152 C151 1.326 . S
N152 C156 1.362 . S
C153 C154 1.258 . S
C153 C156 1.431 1_655 S
C153 C173 1.449 . S
C154 C153 1.258 . S
C154 C155 1.477 1_655 S
C154 H174 0.931 . S
C155 C151 1.460 . S
C155 C154 1.477 1_455 S
C155 H175 0.930 1_455 S
C156 N152 1.362 . S
C156 C153 1.431 1_455 S
C156 C166 1.476 . S
H157 C151 0.929 . S
C158 O149 1.250 . S
C158 O150 1.258 . S
O159 Mn144 2.162 . S
O159 C147 1.281 . S
O160 Mn144 2.297 . S
O160 C147 1.236 . S
N161 Mn145 2.282 . S
N161 C162 1.328 . S
N161 C166 1.318 . S
C162 N161 1.328 . S
C162 C163 1.457 . S
C162 H167 0.929 . S
C163 C162 1.457 . S
C163 C164 1.291 . S
C163 H176 0.931 . S
C164 C163 1.291 . S
C164 C165 1.373 . S
C164 H177 0.946 . S
C165 C164 1.373 . S
C165 C166 1.396 . S
C165 C172 1.403 1_455 S
C166 C156 1.476 . S
C166 N161 1.318 . S
C166 C165 1.396 . S
H167 C162 0.929 . S
O168 Mn144 2.385 . S
O168 C146 1.234 . S
O169 Mn144 2.209 . S
O169 Mn145 2.215 . S
O169 C146 1.283 . S
O170 Mn144 2.094 . S
O170 C148 1.240 . S
O171 Mn145 2.117 . S
O171 C148 1.264 . S
C172 C165 1.403 1_655 S
C172 C173 1.399 . S
C172 H178 0.929 . S
C173 C153 1.449 . S
C173 C172 1.399 . S
C173 H179 0.930 . S
H174 C154 0.931 . S
H175 C155 0.930 1_655 S
H176 C163 0.931 . S
H177 C164 0.946 . S
H178 C172 0.929 . S
H179 C173 0.930 . S
Mn180 O185 2.095 . S
Mn180 O195 2.162 . S
Mn180 O196 2.297 . S
Mn180 O204 2.385 . S
Mn180 O205 2.209 . S
Mn180 O206 2.094 . S
Mn181 O186 2.121 . S
Mn181 N188 2.257 . S
Mn181 N197 2.282 . S
Mn181 O205 2.215 . S
Mn181 O207 2.117 . S
C182 O204 1.234 . S
C182 O205 1.283 . S
C183 O195 1.281 . S
C183 O196 1.236 . S
C184 O206 1.240 . S
C184 O207 1.264 . S
O185 Mn180 2.095 . S
O185 C194 1.250 . S
O186 Mn181 2.121 . S
O186 C194 1.258 . S
C187 N188 1.326 . S
C187 C191 1.460 . S
C187 H193 0.929 . S
N188 Mn181 2.257 . S
N188 C187 1.326 . S
N188 C192 1.362 . S
C189 C190 1.258 . S
C189 C192 1.431 . S
C189 C209 1.449 . S
C190 C189 1.258 . S
C190 C191 1.477 . S
C190 H210 0.931 . S
C191 C187 1.460 . S
C191 C190 1.477 . S
C191 H211 0.930 . S
C192 N188 1.362 . S
C192 C189 1.431 . S
C192 C202 1.476 . S
H193 C187 0.929 . S
C194 O185 1.250 . S
C194 O186 1.258 . S
O195 Mn180 2.162 . S
O195 C183 1.281 . S
O196 Mn180 2.297 . S
O196 C183 1.236 . S
N197 Mn181 2.282 . S
N197 C198 1.328 . S
N197 C202 1.318 . S
C198 N197 1.328 . S
C198 C199 1.457 . S
C198 H203 0.929 . S
C199 C198 1.457 . S
C199 C200 1.291 . S
C199 H212 0.931 . S
C200 C199 1.291 . S
C200 C201 1.373 . S
C200 H213 0.929 . S
C201 C200 1.373 . S
C201 C202 1.396 . S
C201 C208 1.403 . S
C202 C192 1.476 . S
C202 N197 1.318 . S
C202 C201 1.396 . S
H203 C198 0.929 . S
O204 Mn180 2.385 . S
O204 C182 1.234 . S
O205 Mn180 2.209 . S
O205 Mn181 2.215 . S
O205 C182 1.283 . S
O206 Mn180 2.094 . S
O206 C184 1.240 . S
O207 Mn181 2.117 . S
O207 C184 1.264 . S
C208 C201 1.403 . S
C208 C209 1.399 . S
C208 H214 0.929 . S
C209 C189 1.449 . S
C209 C208 1.399 . S
C209 H215 0.930 . S
H210 C190 0.931 . S
H211 C191 0.930 . S
H212 C199 0.931 . S
H213 C200 0.929 . S
H214 C208 0.929 . S
H215 C209 0.930 . S
Mn216 O221 2.095 . S
Mn216 O231 2.162 . S
Mn216 O232 2.297 . S
Mn216 O240 2.385 . S
Mn216 O241 2.209 . S
Mn216 O242 2.094 . S
Mn217 O222 2.121 . S
Mn217 N224 2.257 . S
Mn217 N233 2.282 . S
Mn217 O241 2.215 . S
Mn217 O243 2.117 . S
C218 O240 1.234 . S
C218 O241 1.283 . S
C219 O231 1.281 . S
C219 O232 1.236 . S
C220 O242 1.240 . S
C220 O243 1.264 . S
O221 Mn216 2.095 . S
O221 C230 1.250 . S
O222 Mn217 2.121 . S
O222 C230 1.258 . S
C223 N224 1.326 . S
C223 C227 1.460 1_655 S
C223 H229 0.929 . S
N224 Mn217 2.257 . S
N224 C223 1.326 . S
N224 C228 1.362 . S
C225 C226 1.258 . S
C225 C228 1.431 1_455 S
C225 C245 1.449 . S
C226 C225 1.258 . S
C226 C227 1.477 . S
C226 H246 0.931 . S
C227 C223 1.460 1_455 S
C227 C226 1.477 . S
C227 H247 0.930 . S
C228 N224 1.362 . S
C228 C225 1.431 1_655 S
C228 C238 1.476 . S
H229 C223 0.929 . S
C230 O221 1.250 . S
C230 O222 1.258 . S
O231 Mn216 2.162 . S
O231 C219 1.281 . S
O232 Mn216 2.297 . S
O232 C219 1.236 . S
N233 Mn217 2.282 . S
N233 C234 1.328 . S
N233 C238 1.318 . S
C234 N233 1.328 . S
C234 C235 1.457 . S
C234 H239 0.929 . S
C235 C234 1.457 . S
C235 C236 1.291 . S
C235 H248 0.931 1_556 S
C236 C235 1.291 . S
C236 C237 1.363 1_655 S
C236 H249 0.929 1_655 S
C237 C236 1.363 1_455 S
C237 C238 1.389 1_455 S
C237 C244 1.421 . S
C238 C228 1.476 . S
C238 N233 1.318 . S
C238 C237 1.389 1_655 S
H239 C234 0.929 . S
O240 Mn216 2.385 . S
O240 C218 1.234 . S
O241 Mn216 2.209 . S
O241 Mn217 2.215 . S
O241 C218 1.283 . S
O242 Mn216 2.094 . S
O242 C220 1.240 . S
O243 Mn217 2.117 . S
O243 C220 1.264 . S
C244 C237 1.421 . S
C244 C245 1.399 . S
C244 H250 0.929 . S
C245 C225 1.449 . S
C245 C244 1.399 . S
C245 H251 0.930 . S
H246 C226 0.931 . S
H247 C227 0.930 . S
H248 C235 0.931 1_554 S
H249 C236 0.929 1_455 S
H250 C244 0.929 . S
H251 C245 0.930 . S
Mn252 O257 2.095 . S
Mn252 O267 2.162 . S
Mn252 O268 2.297 . S
Mn252 O276 2.385 . S
Mn252 O277 2.209 . S
Mn252 O278 2.094 . S
Mn253 O258 2.121 . S
Mn253 N260 2.257 . S
Mn253 N269 2.282 . S
Mn253 O277 2.215 . S
Mn253 O279 2.117 . S
C254 O276 1.234 . S
C254 O277 1.283 . S
C255 O267 1.281 . S
C255 O268 1.236 . S
C256 O278 1.240 . S
C256 O279 1.264 . S
O257 Mn252 2.095 . S
O257 C266 1.250 . S
O258 Mn253 2.121 . S
O258 C266 1.258 . S
C259 N260 1.326 . S
C259 C263 1.460 . S
C259 H265 0.929 . S
N260 Mn253 2.257 . S
N260 C259 1.326 . S
N260 C264 1.362 . S
C261 C262 1.258 . S
C261 C264 1.431 . S
C261 C281 1.449 . S
C262 C261 1.258 . S
C262 C263 1.477 . S
C262 H282 0.931 . S
C263 C259 1.460 . S
C263 C262 1.477 . S
C263 H283 0.930 . S
C264 N260 1.362 . S
C264 C261 1.431 . S
C264 C274 1.476 . S
H265 C259 0.929 . S
C266 O257 1.250 . S
C266 O258 1.258 . S
O267 Mn252 2.162 . S
O267 C255 1.281 . S
O268 Mn252 2.297 . S
O268 C255 1.236 . S
N269 Mn253 2.282 . S
N269 C270 1.328 . S
N269 C274 1.318 . S
C270 N269 1.328 . S
C270 C271 1.457 . S
C270 H275 0.929 . S
C271 C270 1.457 . S
C271 C272 1.291 . S
C271 H284 0.931 1_556 S
C272 C271 1.291 . S
C272 C273 1.373 . S
C272 H285 0.929 . S
C273 C272 1.373 . S
C273 C274 1.396 . S
C273 C280 1.403 . S
C274 C264 1.476 . S
C274 N269 1.318 . S
C274 C273 1.396 . S
H275 C270 0.929 . S
O276 Mn252 2.385 . S
O276 C254 1.234 . S
O277 Mn252 2.209 . S
O277 Mn253 2.215 . S
O277 C254 1.283 . S
O278 Mn252 2.094 . S
O278 C256 1.240 . S
O279 Mn253 2.117 . S
O279 C256 1.264 . S
C280 C273 1.403 . S
C280 C281 1.399 . S
C280 H286 0.929 . S
C281 C261 1.449 . S
C281 C280 1.399 . S
C281 H287 0.930 . S
H282 C262 0.931 . S
H283 C263 0.930 . S
H284 C271 0.931 1_554 S
H285 C272 0.929 . S
H286 C280 0.929 . S
H287 C281 0.930 . S
Mn288 O293 2.095 . S
Mn288 O303 2.162 . S
Mn288 O304 2.297 . S
Mn288 O312 2.385 . S
Mn288 O313 2.209 . S
Mn288 O314 2.094 . S
Mn289 O294 2.121 . S
Mn289 N296 2.257 . S
Mn289 N305 2.282 . S
Mn289 O313 2.215 . S
Mn289 O315 2.117 . S
C290 O312 1.234 . S
C290 O313 1.283 . S
C291 O303 1.281 . S
C291 O304 1.236 . S
C292 O314 1.240 . S
C292 O315 1.264 . S
O293 Mn288 2.095 . S
O293 C302 1.250 . S
O294 Mn289 2.121 . S
O294 C302 1.258 . S
C295 N296 1.326 . S
C295 C299 1.456 . S
C295 H301 0.929 . S
N296 Mn289 2.257 . S
N296 C295 1.326 . S
N296 C300 1.362 . S
C297 C298 1.258 . S
C297 C300 1.431 1_565 S
C297 C317 1.449 . S
C298 C297 1.258 . S
C298 C299 1.480 1_565 S
C298 H318 0.931 . S
C299 C295 1.456 . S
C299 C298 1.480 1_545 S
C299 H319 0.930 1_545 S
C300 N296 1.362 . S
C300 C297 1.431 1_545 S
C300 C310 1.476 . S
H301 C295 0.929 . S
C302 O293 1.250 . S
C302 O294 1.258 . S
O303 Mn288 2.162 . S
O303 C291 1.281 . S
O304 Mn288 2.297 . S
O304 C291 1.236 . S
N305 Mn289 2.282 . S
N305 C306 1.328 . S
N305 C310 1.318 . S
C306 N305 1.328 . S
C306 C307 1.457 . S
C306 H311 0.929 . S
C307 C306 1.457 . S
C307 C308 1.291 . S
C307 H320 0.931 1_556 S
C308 C307 1.291 . S
C308 C309 1.373 . S
C308 H321 0.929 1_545 S
C309 C308 1.373 . S
C309 C310 1.396 . S
C309 C316 1.403 1_545 S
C310 C300 1.476 . S
C310 N305 1.318 . S
C310 C309 1.396 . S
H311 C306 0.929 . S
O312 Mn288 2.385 . S
O312 C290 1.234 . S
O313 Mn288 2.209 . S
O313 Mn289 2.215 . S
O313 C290 1.283 . S
O314 Mn288 2.094 . S
O314 C292 1.240 . S
O315 Mn289 2.117 . S
O315 C292 1.264 . S
C316 C309 1.403 1_565 S
C316 C317 1.399 . S
C316 H322 0.929 . S
C317 C297 1.449 . S
C317 C316 1.399 . S
C317 H323 0.930 . S
H318 C298 0.931 . S
H319 C299 0.930 1_565 S
H320 C307 0.931 1_554 S
H321 C308 0.929 1_565 S
H322 C316 0.929 . S
H323 C317 0.930 . S
Mn324 O329 2.095 . S
Mn324 O339 2.162 . S
Mn324 O340 2.297 . S
Mn324 O348 2.385 . S
Mn324 O349 2.209 . S
Mn324 O350 2.094 . S
Mn325 O330 2.121 . S
Mn325 N332 2.257 . S
Mn325 N341 2.282 . S
Mn325 O349 2.215 . S
Mn325 O351 2.117 . S
C326 O348 1.234 . S
C326 O349 1.283 . S
C327 O339 1.281 . S
C327 O340 1.236 . S
C328 O350 1.240 . S
C328 O351 1.264 . S
O329 Mn324 2.095 . S
O329 C338 1.250 . S
O330 Mn325 2.121 . S
O330 C338 1.258 . S
C331 N332 1.326 . S
C331 C335 1.458 . S
C331 H337 0.929 . S
N332 Mn325 2.257 . S
N332 C331 1.326 . S
N332 C336 1.362 . S
C333 C334 1.258 . S
C333 C336 1.431 1_565 S
C333 C353 1.449 . S
C334 C333 1.258 . S
C334 C335 1.478 1_565 S
C334 H354 0.931 . S
C335 C331 1.458 . S
C335 C334 1.478 1_545 S
C335 H355 0.931 1_545 S
C336 N332 1.362 . S
C336 C333 1.431 1_545 S
C336 C346 1.476 . S
H337 C331 0.929 . S
C338 O329 1.250 . S
C338 O330 1.258 . S
O339 Mn324 2.162 . S
O339 C327 1.281 . S
O340 Mn324 2.297 . S
O340 C327 1.236 . S
N341 Mn325 2.282 . S
N341 C342 1.328 . S
N341 C346 1.318 . S
C342 N341 1.328 . S
C342 C343 1.457 . S
C342 H347 0.929 . S
C343 C342 1.457 . S
C343 C344 1.291 . S
C343 H356 0.931 . S
C344 C343 1.291 . S
C344 C345 1.373 . S
C344 H357 0.929 1_545 S
C345 C344 1.373 . S
C345 C346 1.396 . S
C345 C352 1.403 1_545 S
C346 C336 1.476 . S
C346 N341 1.318 . S
C346 C345 1.396 . S
H347 C342 0.929 . S
O348 Mn324 2.385 . S
O348 C326 1.234 . S
O349 Mn324 2.209 . S
O349 Mn325 2.215 . S
O349 C326 1.283 . S
O350 Mn324 2.094 . S
O350 C328 1.240 . S
O351 Mn325 2.117 . S
O351 C328 1.264 . S
C352 C345 1.403 1_565 S
C352 C353 1.399 . S
C352 H358 0.929 . S
C353 C333 1.449 . S
C353 C352 1.399 . S
C353 H359 0.930 . S
H354 C334 0.931 . S
H355 C335 0.931 1_565 S
H356 C343 0.931 . S
H357 C344 0.929 1_565 S
H358 C352 0.929 . S
H359 C353 0.930 . S
Mn360 O365 2.095 . S
Mn360 O375 2.162 . S
Mn360 O376 2.297 . S
Mn360 O384 2.385 . S
Mn360 O385 2.209 . S
Mn360 O386 2.094 . S
Mn361 O366 2.121 . S
Mn361 N368 2.257 . S
Mn361 N377 2.282 . S
Mn361 O385 2.215 . S
Mn361 O387 2.117 . S
C362 O384 1.234 . S
C362 O385 1.283 . S
C363 O375 1.281 . S
C363 O376 1.236 . S
C364 O386 1.240 . S
C364 O387 1.264 . S
O365 Mn360 2.095 . S
O365 C374 1.250 . S
O366 Mn361 2.121 . S
O366 C374 1.258 . S
C367 N368 1.326 . S
C367 C371 1.460 . S
C367 H373 0.929 . S
N368 Mn361 2.257 . S
N368 C367 1.326 . S
N368 C372 1.362 . S
C369 C370 1.258 . S
C369 C372 1.431 1_455 S
C369 C389 1.449 . S
C370 C369 1.258 . S
C370 C371 1.477 1_455 S
C370 H390 0.931 . S
C371 C367 1.460 . S
C371 C370 1.477 1_655 S
C371 H391 0.930 1_655 S
C372 N368 1.362 . S
C372 C369 1.431 1_655 S
C372 C382 1.476 . S
H373 C367 0.929 . S
C374 O365 1.250 . S
C374 O366 1.258 . S
O375 Mn360 2.162 . S
O375 C363 1.281 . S
O376 Mn360 2.297 . S
O376 C363 1.236 . S
N377 Mn361 2.282 . S
N377 C378 1.328 . S
N377 C382 1.318 . S
C378 N377 1.328 . S
C378 C379 1.457 . S
C378 H383 0.929 . S
C379 C378 1.457 . S
C379 C380 1.291 . S
C379 H392 0.931 . S
C380 C379 1.291 . S
C380 C381 1.373 . S
C380 H393 0.929 1_655 S
C381 C380 1.373 . S
C381 C382 1.396 . S
C381 C388 1.403 1_655 S
C382 C372 1.476 . S
C382 N377 1.318 . S
C382 C381 1.396 . S
H383 C378 0.929 . S
O384 Mn360 2.385 . S
O384 C362 1.234 . S
O385 Mn360 2.209 . S
O385 Mn361 2.215 . S
O385 C362 1.283 . S
O386 Mn360 2.094 . S
O386 C364 1.240 . S
O387 Mn361 2.117 . S
O387 C364 1.264 . S
C388 C381 1.403 1_455 S
C388 C389 1.399 . S
C388 H394 0.929 . S
C389 C369 1.449 . S
C389 C388 1.399 . S
C389 H395 0.930 . S
H390 C370 0.931 . S
H391 C371 0.930 1_455 S
H392 C379 0.931 . S
H393 C380 0.929 1_455 S
H394 C388 0.929 . S
H395 C389 0.930 . S
Mn396 O401 2.095 . S
Mn396 O411 2.162 . S
Mn396 O412 2.297 . S
Mn396 O420 2.385 . S
Mn396 O421 2.209 . S
Mn396 O422 2.094 . S
Mn397 O402 2.121 . S
Mn397 N404 2.257 . S
Mn397 N413 2.282 . S
Mn397 O421 2.215 . S
Mn397 O423 2.117 . S
C398 O420 1.234 . S
C398 O421 1.283 . S
C399 O411 1.281 . S
C399 O412 1.236 . S
C400 O422 1.240 . S
C400 O423 1.264 . S
O401 Mn396 2.095 . S
O401 C410 1.250 . S
O402 Mn397 2.121 . S
O402 C410 1.258 . S
C403 N404 1.326 . S
C403 C407 1.460 . S
C403 H409 0.929 . S
N404 Mn397 2.257 . S
N404 C403 1.326 . S
N404 C408 1.362 . S
C405 C406 1.258 . S
C405 C408 1.431 . S
C405 C425 1.449 . S
C406 C405 1.258 . S
C406 C407 1.477 . S
C406 H426 0.931 . S
C407 C403 1.460 . S
C407 C406 1.477 . S
C407 H427 0.930 . S
C408 N404 1.362 . S
C408 C405 1.431 . S
C408 C418 1.476 . S
H409 C403 0.929 . S
C410 O401 1.250 . S
C410 O402 1.258 . S
O411 Mn396 2.162 . S
O411 C399 1.281 . S
O412 Mn396 2.297 . S
O412 C399 1.236 . S
N413 Mn397 2.282 . S
N413 C414 1.328 . S
N413 C418 1.318 . S
C414 N413 1.328 . S
C414 C415 1.457 . S
C414 H419 0.929 . S
C415 C414 1.457 . S
C415 C416 1.291 . S
C415 H428 0.931 . S
C416 C415 1.291 . S
C416 C417 1.373 . S
C416 H429 0.929 . S
C417 C416 1.373 . S
C417 C418 1.396 . S
C417 C424 1.403 . S
C418 C408 1.476 . S
C418 N413 1.318 . S
C418 C417 1.396 . S
H419 C414 0.929 . S
O420 Mn396 2.385 . S
O420 C398 1.234 . S
O421 Mn396 2.209 . S
O421 Mn397 2.215 . S
O421 C398 1.283 . S
O422 Mn396 2.094 . S
O422 C400 1.240 . S
O423 Mn397 2.117 . S
O423 C400 1.264 . S
C424 C417 1.403 . S
C424 C425 1.399 . S
C424 H430 0.929 . S
C425 C405 1.449 . S
C425 C424 1.399 . S
C425 H431 0.930 . S
H426 C406 0.931 . S
H427 C407 0.930 . S
H428 C415 0.931 . S
H429 C416 0.929 . S
H430 C424 0.929 . S
H431 C425 0.930 . S
H432 C450 0.951 . S
H433 C452 0.951 1_556 S
H434 C454 0.950 . S
H435 C455 0.950 . S
H436 C457 0.950 . S
H437 C460 0.950 . S
H438 C461 0.950 . S
H439 C463 0.950 . S
H440 C464 0.950 . S
H441 C465 0.951 . S
H442 C467 0.951 . S
H443 C469 0.950 . S
H444 C470 0.950 . S
H445 C472 0.950 . S
H446 C475 0.950 . S
H447 C476 0.950 . S
H448 C478 0.950 . S
H449 C479 0.950 1_554 S
C450 H432 0.951 . S
C450 C451 1.366 . S
C450 C452 1.388 . S
C451 C450 1.366 . S
C451 C455 1.385 . S
C452 H433 0.951 1_554 S
C452 C450 1.388 . S
C452 C453 1.366 . S
C453 C452 1.366 . S
C453 C454 1.414 . S
C453 C456 1.499 . S
C454 H434 0.950 . S
C454 C453 1.414 . S
C454 C455 1.374 . S
C455 H435 0.950 . S
C455 C451 1.385 . S
C455 C454 1.374 . S
C456 C453 1.499 . S
C456 C457 1.373 1_554 S
C456 C458 1.389 1_554 S
C457 H436 0.950 . S
C457 C456 1.373 1_556 S
C457 C473 1.377 . S
C458 C456 1.389 1_556 S
C458 C459 1.524 1_556 S
C458 C472 1.377 . S
C459 C458 1.524 1_554 S
C459 C460 1.397 . S
C459 C464 1.363 1_554 S
C460 H437 0.950 . S
C460 C459 1.397 . S
C460 C461 1.334 . S
C461 H438 0.950 . S
C461 C460 1.334 . S
C461 C462 1.287 . S
C462 C461 1.287 . S
C462 C463 1.524 1_554 S
C462 H481 0.913 . S
C463 H439 0.950 . S
C463 C462 1.524 1_556 S
C463 C464 1.415 . S
C464 H440 0.950 . S
C464 C459 1.363 1_556 S
C464 C463 1.415 . S
C465 H441 0.951 . S
C465 C466 1.366 . S
C465 C467 1.388 . S
C466 C465 1.366 . S
C466 C470 1.385 . S
C467 H442 0.951 . S
C467 C465 1.388 . S
C467 C468 1.366 . S
C468 C467 1.366 . S
C468 C469 1.414 . S
C468 C471 1.499 . S
C469 H443 0.950 . S
C469 C468 1.414 . S
C469 C470 1.374 . S
C470 H444 0.950 . S
C470 C466 1.385 . S
C470 C469 1.374 . S
C471 C468 1.499 . S
C471 C472 1.373 . S
C471 C473 1.389 . S
C472 H445 0.950 . S
C472 C458 1.377 . S
C472 C471 1.373 . S
C473 C457 1.377 . S
C473 C471 1.389 . S
C473 C474 1.524 . S
C474 C473 1.524 . S
C474 C475 1.397 . S
C474 C479 1.363 . S
C475 H446 0.950 . S
C475 C474 1.397 . S
C475 C476 1.334 . S
C476 H447 0.950 . S
C476 C475 1.334 . S
C476 C477 1.287 . S
C477 C476 1.287 . S
C477 C478 1.524 . S
C477 H480 0.999 . S
C478 H448 0.950 . S
C478 C477 1.524 . S
C478 C479 1.415 . S
C479 H449 0.950 1_556 S
C479 C474 1.363 . S
C479 C478 1.415 . S
H480 C477 0.999 . S
H481 C462 0.913 . S
H482 C500 0.951 1_556 S
H483 C502 0.951 . S
H484 C504 0.950 . S
H485 C505 0.950 . S
H486 C507 0.950 1_554 S
H487 C510 0.950 . S
H488 C511 0.950 . S
H489 C513 0.950 . S
H490 C514 0.950 . S
H491 C515 0.951 . S
H492 C517 0.951 1_554 S
H493 C519 0.950 . S
H494 C520 0.950 . S
H495 C522 0.950 . S
H496 C525 0.950 . S
H497 C526 0.950 . S
H498 C528 0.950 1_554 S
H499 C529 0.950 . S
C500 H482 0.951 1_554 S
C500 C501 1.366 . S
C500 C502 1.388 1_554 S
C501 C500 1.366 . S
C501 C505 1.385 . S
C502 H483 0.951 . S
C502 C500 1.388 1_556 S
C502 C503 1.366 1_556 S
C503 C502 1.366 1_554 S
C503 C504 1.414 . S
C503 C506 1.511 . S
C504 H484 0.950 . S
C504 C503 1.414 . S
C504 C505 1.374 . S
C505 H485 0.950 . S
C505 C501 1.385 . S
C505 C504 1.374 . S
C506 C503 1.511 . S
C506 C507 1.369 1_554 S
C506 C508 1.379 1_554 S
C507 H486 0.950 1_556 S
C507 C506 1.369 1_556 S
C507 C523 1.377 . S
C508 C506 1.379 1_556 S
C508 C509 1.524 . S
C508 C522 1.377 . S
C509 C508 1.524 . S
C509 C510 1.397 1_556 S
C509 C514 1.363 . S
C510 H487 0.950 . S
C510 C509 1.397 1_554 S
C510 C511 1.334 . S
C511 H488 0.950 . S
C511 C510 1.334 . S
C511 C512 1.287 . S
C512 C511 1.287 . S
C512 C513 1.524 1_554 S
C512 H531 0.913 . S
C513 H489 0.950 . S
C513 C512 1.524 1_556 S
C513 C514 1.415 . S
C514 H490 0.950 . S
C514 C509 1.363 . S
C514 C513 1.415 . S
C515 H491 0.951 . S
C515 C516 1.366 . S
C515 C517 1.388 1_545 S
C516 C515 1.366 . S
C516 C520 1.385 . S
C517 H492 0.951 1_556 S
C517 C515 1.388 1_565 S
C517 C518 1.366 . S
C518 C517 1.366 . S
C518 C519 1.414 . S
C518 C521 1.499 . S
C519 H493 0.950 . S
C519 C518 1.414 . S
C519 C520 1.374 1_565 S
C520 H494 0.950 . S
C520 C516 1.385 . S
C520 C519 1.374 1_545 S
C521 C518 1.499 . S
C521 C522 1.373 . S
C521 C523 1.389 . S
C522 H495 0.950 . S
C522 C508 1.377 . S
C522 C521 1.373 . S
C523 C507 1.377 . S
C523 C521 1.389 . S
C523 C524 1.524 . S
C524 C523 1.524 . S
C524 C525 1.397 . S
C524 C529 1.363 1_556 S
C525 H496 0.950 . S
C525 C524 1.397 . S
C525 C526 1.334 . S
C526 H497 0.950 . S
C526 C525 1.334 . S
C526 C527 1.287 . S
C527 C526 1.287 . S
C527 C528 1.524 . S
C527 H530 0.999 . S
C528 H498 0.950 1_556 S
C528 C527 1.524 . S
C528 C529 1.415 1_556 S
C529 H499 0.950 . S
C529 C524 1.363 1_554 S
C529 C528 1.415 1_554 S
H530 C527 0.999 . S
H531 C512 0.913 . S
H532 C550 0.951 . S
H533 C552 0.951 . S
H534 C554 0.950 1_556 S
H535 C555 0.950 . S
H536 C557 0.950 . S
H537 C560 0.950 . S
H538 C561 0.950 . S
H539 C563 0.950 . S
H540 C564 0.950 . S
H541 C565 0.951 1_655 S
H542 C567 0.951 . S
H543 C569 0.950 1_554 S
H544 C570 0.950 . S
H545 C572 0.950 . S
H546 C575 0.950 1_554 S
H547 C576 0.950 1_654 S
H548 C578 0.950 . S
H549 C579 0.950 . S
C550 H532 0.951 . S
C550 C551 1.366 . S
C550 C552 1.388 . S
C551 C550 1.366 . S
C551 C555 1.385 . S
C552 H533 0.951 . S
C552 C550 1.388 . S
C552 C553 1.366 . S
C553 C552 1.366 . S
C553 C554 1.414 . S
C553 C556 1.499 . S
C554 H534 0.950 1_554 S
C554 C553 1.414 . S
C554 C555 1.374 . S
C555 H535 0.950 . S
C555 C551 1.385 . S
C555 C554 1.374 . S
C556 C553 1.499 . S
C556 C557 1.373 1_554 S
C556 C558 1.389 . S
C557 H536 0.950 . S
C557 C556 1.373 1_556 S
C557 C573 1.377 . S
C558 C556 1.389 . S
C558 C559 1.524 . S
C558 C572 1.377 1_554 S
C559 C558 1.524 . S
C559 C560 1.397 1_554 S
C559 C564 1.363 . S
C560 H537 0.950 . S
C560 C559 1.397 1_556 S
C560 C561 1.334 . S
C561 H538 0.950 . S
C561 C560 1.334 . S
C561 C562 1.287 1_556 S
C562 C561 1.287 1_554 S
C562 C563 1.524 . S
C562 H581 0.913 . S
C563 H539 0.950 . S
C563 C562 1.524 . S
C563 C564 1.415 . S
C564 H540 0.950 . S
C564 C559 1.363 . S
C564 C563 1.415 . S
C565 H541 0.951 1_455 S
C565 C566 1.366 1_455 S
C565 C567 1.388 . S
C566 C565 1.366 1_655 S
C566 C570 1.385 . S
C567 H542 0.951 . S
C567 C565 1.388 . S
C567 C568 1.366 . S
C568 C567 1.366 . S
C568 C569 1.414 . S
C568 C571 1.499 . S
C569 H543 0.950 1_556 S
C569 C568 1.414 . S
C569 C570 1.374 1_455 S
C570 H544 0.950 . S
C570 C566 1.385 . S
C570 C569 1.374 1_655 S
C571 C568 1.499 . S
C571 C572 1.373 . S
C571 C573 1.389 . S
C572 H545 0.950 . S
C572 C558 1.377 1_556 S
C572 C571 1.373 . S
C573 C557 1.377 . S
C573 C571 1.389 . S
C573 C574 1.524 . S
C574 C573 1.524 . S
C574 C575 1.397 . S
C574 C579 1.363 . S
C575 H546 0.950 1_556 S
C575 C574 1.397 . S
C575 C576 1.334 . S
C576 H547 0.950 1_456 S
C576 C575 1.334 . S
C576 C577 1.287 . S
C577 C576 1.287 . S
C577 C578 1.524 . S
C577 H580 0.999 . S
C578 H548 0.950 . S
C578 C577 1.524 . S
C578 C579 1.415 . S
C579 H549 0.950 . S
C579 C574 1.363 . S
C579 C578 1.415 . S
H580 C577 0.999 . S
H581 C562 0.913 . S
H582 C600 0.951 . S
H583 C602 0.951 . S
H584 C604 0.950 . S
H585 C605 0.950 . S
H586 C607 0.950 . S
H587 C610 0.950 . S
H588 C611 0.950 . S
H589 C613 0.950 . S
H590 C614 0.950 . S
H591 C615 0.951 . S
H592 C617 0.951 . S
H593 C619 0.950 . S
H594 C620 0.950 . S
H595 C622 0.950 . S
H596 C625 0.950 . S
H597 C626 0.950 . S
H598 C628 0.950 . S
H599 C629 0.950 . S
C600 H582 0.951 . S
C600 C601 1.366 . S
C600 C602 1.388 . S
C601 C600 1.366 . S
C601 C605 1.385 . S
C602 H583 0.951 . S
C602 C600 1.388 . S
C602 C603 1.366 . S
C603 C602 1.366 . S
C603 C604 1.414 . S
C603 C606 1.499 . S
C604 H584 0.950 . S
C604 C603 1.414 . S
C604 C605 1.374 . S
C605 H585 0.950 . S
C605 C601 1.385 . S
C605 C604 1.374 . S
C606 C603 1.499 . S
C606 C607 1.373 . S
C606 C608 1.389 . S
C607 H586 0.950 . S
C607 C606 1.373 . S
C607 C623 1.377 . S
C608 C606 1.389 . S
C608 C609 1.524 . S
C608 C622 1.377 . S
C609 C608 1.524 . S
C609 C610 1.397 . S
C609 C614 1.363 . S
C610 H587 0.950 . S
C610 C609 1.397 . S
C610 C611 1.334 . S
C611 H588 0.950 . S
C611 C610 1.334 . S
C611 C612 1.287 . S
C612 C611 1.287 . S
C612 C613 1.524 . S
C612 H631 0.913 . S
C613 H589 0.950 . S
C613 C612 1.524 . S
C613 C614 1.415 . S
C614 H590 0.950 . S
C614 C609 1.363 . S
C614 C613 1.415 . S
C615 H591 0.951 . S
C615 C616 1.366 . S
C615 C617 1.388 . S
C616 C615 1.366 . S
C616 C620 1.385 . S
C617 H592 0.951 . S
C617 C615 1.388 . S
C617 C618 1.366 . S
C618 C617 1.366 . S
C618 C619 1.414 . S
C618 C621 1.499 . S
C619 H593 0.950 . S
C619 C618 1.414 . S
C619 C620 1.374 . S
C620 H594 0.950 . S
C620 C616 1.385 . S
C620 C619 1.374 . S
C621 C618 1.499 . S
C621 C622 1.373 . S
C621 C623 1.389 . S
C622 H595 0.950 . S
C622 C608 1.377 . S
C622 C621 1.373 . S
C623 C607 1.377 . S
C623 C621 1.389 . S
C623 C624 1.524 . S
C624 C623 1.524 . S
C624 C625 1.397 . S
C624 C629 1.363 . S
C625 H596 0.950 . S
C625 C624 1.397 . S
C625 C626 1.334 . S
C626 H597 0.950 . S
C626 C625 1.334 . S
C626 C627 1.287 . S
C627 C626 1.287 . S
C627 C628 1.524 . S
C627 H630 0.999 . S
C628 H598 0.950 . S
C628 C627 1.524 . S
C628 C629 1.415 . S
C629 H599 0.950 . S
C629 C624 1.363 . S
C629 C628 1.415 . S
H630 C627 0.999 . S
H631 C612 0.913 . S
H632 C650 0.951 . S
H633 C652 0.951 . S
H634 C654 0.950 . S
H635 C655 0.950 . S
H636 C657 0.950 . S
H637 C660 0.950 . S
H638 C661 0.950 . S
H639 C663 0.950 . S
H640 C664 0.950 . S
H641 C665 0.951 . S
H642 C667 0.951 . S
H643 C669 0.950 . S
H644 C670 0.950 . S
H645 C672 0.950 . S
H646 C675 0.950 . S
H647 C676 0.950 1_545 S
H648 C678 0.950 . S
H649 C679 0.950 . S
C650 H632 0.951 . S
C650 C651 1.366 . S
C650 C652 1.388 . S
C651 C650 1.366 . S
C651 C655 1.385 . S
C652 H633 0.951 . S
C652 C650 1.388 . S
C652 C653 1.366 . S
C653 C652 1.366 . S
C653 C654 1.414 . S
C653 C656 1.499 . S
C654 H634 0.950 . S
C654 C653 1.414 . S
C654 C655 1.374 . S
C655 H635 0.950 . S
C655 C651 1.385 . S
C655 C654 1.374 . S
C656 C653 1.499 . S
C656 C657 1.373 . S
C656 C658 1.389 . S
C657 H636 0.950 . S
C657 C656 1.373 . S
C657 C673 1.377 . S
C658 C656 1.389 . S
C658 C659 1.524 . S
C658 C672 1.377 . S
C659 C658 1.524 . S
C659 C660 1.397 . S
C659 C664 1.363 . S
C660 H637 0.950 . S
C660 C659 1.397 . S
C660 C661 1.334 . S
C661 H638 0.950 . S
C661 C660 1.334 . S
C661 C662 1.287 . S
C662 C661 1.287 . S
C662 C663 1.524 . S
C662 H681 0.913 . S
C663 H639 0.950 . S
C663 C662 1.524 . S
C663 C664 1.415 . S
C664 H640 0.950 . S
C664 C659 1.363 . S
C664 C663 1.415 . S
C665 H641 0.951 . S
C665 C666 1.366 . S
C665 C667 1.388 1_545 S
C666 C665 1.366 . S
C666 C670 1.385 . S
C667 H642 0.951 . S
C667 C665 1.388 1_565 S
C667 C668 1.366 . S
C668 C667 1.366 . S
C668 C669 1.414 . S
C668 C671 1.499 . S
C669 H643 0.950 . S
C669 C668 1.414 . S
C669 C670 1.374 1_565 S
C670 H644 0.950 . S
C670 C666 1.385 . S
C670 C669 1.374 1_545 S
C671 C668 1.499 . S
C671 C672 1.373 . S
C671 C673 1.389 . S
C672 H645 0.950 . S
C672 C658 1.377 . S
C672 C671 1.373 . S
C673 C657 1.377 . S
C673 C671 1.389 . S
C673 C674 1.524 . S
C674 C673 1.524 . S
C674 C675 1.397 . S
C674 C679 1.363 . S
C675 H646 0.950 . S
C675 C674 1.397 . S
C675 C676 1.334 . S
C676 H647 0.950 1_565 S
C676 C675 1.334 . S
C676 C677 1.287 . S
C677 C676 1.287 . S
C677 C678 1.524 . S
C677 H680 0.999 1_565 S
C678 H648 0.950 . S
C678 C677 1.524 . S
C678 C679 1.415 . S
C679 H649 0.950 . S
C679 C674 1.363 . S
C679 C678 1.415 . S
H680 C677 0.999 1_545 S
H681 C662 0.913 . S
H682 C700 0.951 . S
H683 C702 0.951 . S
H684 C704 0.950 . S
H685 C705 0.950 . S
H686 C707 0.950 . S
H687 C710 0.950 . S
H688 C711 0.950 . S
H689 C713 0.950 . S
H690 C714 0.950 . S
H691 C715 0.951 . S
H692 C717 0.951 . S
H693 C719 0.950 . S
H694 C720 0.950 . S
H695 C722 0.950 . S
H696 C725 0.950 . S
H697 C726 0.950 . S
H698 C728 0.950 . S
H699 C729 0.950 . S
C700 H682 0.951 . S
C700 C701 1.366 . S
C700 C702 1.388 1_655 S
C701 C700 1.366 . S
C701 C705 1.385 . S
C702 H683 0.951 . S
C702 C700 1.388 1_455 S
C702 C703 1.366 . S
C703 C702 1.366 . S
C703 C704 1.414 . S
C703 C706 1.499 . S
C704 H684 0.950 . S
C704 C703 1.414 . S
C704 C705 1.374 1_455 S
C705 H685 0.950 . S
C705 C701 1.385 . S
C705 C704 1.374 1_655 S
C706 C703 1.499 . S
C706 C707 1.373 . S
C706 C708 1.389 . S
C707 H686 0.950 . S
C707 C706 1.373 . S
C707 C723 1.377 . S
C708 C706 1.389 . S
C708 C709 1.524 . S
C708 C722 1.377 . S
C709 C708 1.524 . S
C709 C710 1.397 . S
C709 C714 1.363 . S
C710 H687 0.950 . S
C710 C709 1.397 . S
C710 C711 1.334 1_455 S
C711 H688 0.950 . S
C711 C710 1.334 1_655 S
C711 C712 1.279 . S
C712 C711 1.279 . S
C712 C713 1.510 1_655 S
C712 H731 0.944 . S
C713 H689 0.950 . S
C713 C712 1.510 1_455 S
C713 C714 1.415 . S
C714 H690 0.950 . S
C714 C709 1.363 . S
C714 C713 1.415 . S
C715 H691 0.951 . S
C715 C716 1.366 . S
C715 C717 1.388 . S
C716 C715 1.366 . S
C716 C720 1.385 . S
C717 H692 0.951 . S
C717 C715 1.388 . S
C717 C718 1.366 . S
C718 C717 1.366 . S
C718 C719 1.414 . S
C718 C721 1.499 . S
C719 H693 0.950 . S
C719 C718 1.414 . S
C719 C720 1.374 . S
C720 H694 0.950 . S
C720 C716 1.385 . S
C720 C719 1.374 . S
C721 C718 1.499 . S
C721 C722 1.373 . S
C721 C723 1.389 . S
C722 H695 0.950 . S
C722 C708 1.377 . S
C722 C721 1.373 . S
C723 C707 1.377 . S
C723 C721 1.389 . S
C723 C724 1.524 . S
C724 C723 1.524 . S
C724 C725 1.397 . S
C724 C729 1.363 . S
C725 H696 0.950 . S
C725 C724 1.397 . S
C725 C726 1.334 . S
C726 H697 0.950 . S
C726 C725 1.334 . S
C726 C727 1.287 . S
C727 C726 1.287 . S
C727 C728 1.524 . S
C727 H730 0.999 . S
C728 H698 0.950 . S
C728 C727 1.524 . S
C728 C729 1.415 . S
C729 H699 0.950 . S
C729 C724 1.363 . S
C729 C728 1.415 . S
H730 C727 0.999 . S
H731 C712 0.944 . S
H732 C750 0.951 . S
H733 C752 0.951 1_556 S
H734 C754 0.950 . S
H735 C755 0.950 . S
H736 C757 0.950 . S
H737 C760 0.950 . S
H738 C761 0.950 . S
H739 C763 0.950 . S
H740 C764 0.950 . S
H741 C765 0.951 . S
H742 C767 0.951 1_554 S
H743 C769 0.950 . S
H744 C770 0.950 . S
H745 C772 0.950 . S
H746 C775 0.950 . S
H747 C776 0.950 . S
H748 C778 0.950 . S
H749 C779 0.950 . S
C750 H732 0.951 . S
C750 C751 1.366 . S
C750 C752 1.388 . S
C751 C750 1.366 . S
C751 C755 1.385 . S
C752 H733 0.951 1_554 S
C752 C750 1.388 . S
C752 C753 1.366 . S
C753 C752 1.366 . S
C753 C754 1.414 . S
C753 C756 1.499 . S
C754 H734 0.950 . S
C754 C753 1.414 . S
C754 C755 1.374 . S
C755 H735 0.950 . S
C755 C751 1.385 . S
C755 C754 1.374 . S
C756 C753 1.499 . S
C756 C757 1.373 . S
C756 C758 1.389 . S
C757 H736 0.950 . S
C757 C756 1.373 . S
C757 C773 1.377 . S
C758 C756 1.389 . S
C758 C759 1.524 . S
C758 C772 1.377 1_554 S
C759 C758 1.524 . S
C759 C760 1.397 . S
C759 C764 1.363 1_554 S
C760 H737 0.950 . S
C760 C759 1.397 . S
C760 C761 1.334 . S
C761 H738 0.950 . S
C761 C760 1.334 . S
C761 C762 1.287 . S
C762 C761 1.287 . S
C762 C763 1.524 1_554 S
C762 H781 0.913 . S
C763 H739 0.950 . S
C763 C762 1.524 1_556 S
C763 C764 1.415 . S
C764 H740 0.950 . S
C764 C759 1.363 1_556 S
C764 C763 1.415 . S
C765 H741 0.951 . S
C765 C766 1.366 . S
C765 C767 1.388 . S
C766 C765 1.366 . S
C766 C770 1.385 . S
C767 H742 0.951 1_556 S
C767 C765 1.388 . S
C767 C768 1.366 . S
C768 C767 1.366 . S
C768 C769 1.414 . S
C768 C771 1.499 . S
C769 H743 0.950 . S
C769 C768 1.414 . S
C769 C770 1.374 . S
C770 H744 0.950 . S
C770 C766 1.385 . S
C770 C769 1.374 . S
C771 C768 1.499 . S
C771 C772 1.373 . S
C771 C773 1.389 1_556 S
C772 H745 0.950 . S
C772 C758 1.377 1_556 S
C772 C771 1.373 . S
C773 C757 1.377 . S
C773 C771 1.389 1_554 S
C773 C774 1.524 1_554 S
C774 C773 1.524 1_556 S
C774 C775 1.397 . S
C774 C779 1.363 1_556 S
C775 H746 0.950 . S
C775 C774 1.397 . S
C775 C776 1.334 . S
C776 H747 0.950 . S
C776 C775 1.334 . S
C776 C777 1.287 . S
C777 C776 1.287 . S
C777 C778 1.524 1_556 S
C777 H780 0.999 . S
C778 H748 0.950 . S
C778 C777 1.524 1_554 S
C778 C779 1.415 . S
C779 H749 0.950 . S
C779 C774 1.363 1_554 S
C779 C778 1.415 . S
H780 C777 0.999 . S
H781 C762 0.913 . S
H782 C800 0.951 . S
H783 C802 0.951 1_554 S
H784 C804 0.950 . S
H785 C805 0.950 . S
H786 C807 0.950 . S
H787 C810 0.950 . S
H788 C811 0.950 . S
H789 C813 0.950 . S
H790 C814 0.950 . S
H791 C815 0.951 . S
H792 C817 0.951 . S
H793 C819 0.950 . S
H794 C820 0.950 . S
H795 C822 0.950 . S
H796 C825 0.950 . S
H797 C826 0.950 1_565 S
H798 C828 0.950 . S
H799 C829 0.950 . S
C800 H782 0.951 . S
C800 C801 1.366 . S
C800 C802 1.388 . S
C801 C800 1.366 . S
C801 C805 1.385 . S
C802 H783 0.951 1_556 S
C802 C800 1.388 . S
C802 C803 1.366 . S
C803 C802 1.366 . S
C803 C804 1.414 . S
C803 C806 1.499 . S
C804 H784 0.950 . S
C804 C803 1.414 . S
C804 C805 1.374 . S
C805 H785 0.950 . S
C805 C801 1.385 . S
C805 C804 1.374 . S
C806 C803 1.499 . S
C806 C807 1.373 . S
C806 C808 1.389 1_556 S
C807 H786 0.950 . S
C807 C806 1.373 . S
C807 C823 1.377 . S
C808 C806 1.389 1_554 S
C808 C809 1.524 . S
C808 C822 1.377 . S
C809 C808 1.524 . S
C809 C810 1.397 . S
C809 C814 1.363 . S
C810 H787 0.950 . S
C810 C809 1.397 . S
C810 C811 1.334 . S
C811 H788 0.950 . S
C811 C810 1.334 . S
C811 C812 1.287 . S
C812 C811 1.287 . S
C812 C813 1.524 . S
C812 H831 0.913 . S
C813 H789 0.950 . S
C813 C812 1.524 . S
C813 C814 1.415 . S
C814 H790 0.950 . S
C814 C809 1.363 . S
C814 C813 1.415 . S
C815 H791 0.951 . S
C815 C816 1.366 . S
C815 C817 1.388 1_565 S
C816 C815 1.366 . S
C816 C820 1.385 . S
C817 H792 0.951 . S
C817 C815 1.388 1_545 S
C817 C818 1.366 . S
C818 C817 1.366 . S
C818 C819 1.414 . S
C818 C821 1.499 . S
C819 H793 0.950 . S
C819 C818 1.414 . S
C819 C820 1.374 1_545 S
C820 H794 0.950 . S
C820 C816 1.385 . S
C820 C819 1.374 1_565 S
C821 C818 1.499 . S
C821 C822 1.373 . S
C821 C823 1.389 1_554 S
C822 H795 0.950 . S
C822 C808 1.377 . S
C822 C821 1.373 . S
C823 C807 1.377 . S
C823 C821 1.389 1_556 S
C823 C824 1.524 . S
C824 C823 1.524 . S
C824 C825 1.397 . S
C824 C829 1.363 . S
C825 H796 0.950 . S
C825 C824 1.397 . S
C825 C826 1.334 . S
C826 H797 0.950 1_545 S
C826 C825 1.334 . S
C826 C827 1.287 . S
C827 C826 1.287 . S
C827 C828 1.524 . S
C827 H830 0.999 1_545 S
C828 H798 0.950 . S
C828 C827 1.524 . S
C828 C829 1.415 . S
C829 H799 0.950 . S
C829 C824 1.363 . S
C829 C828 1.415 . S
H830 C827 0.999 1_565 S
H831 C812 0.913 . S
H832 C850 0.951 . S
H833 C852 0.951 . S
H834 C854 0.950 1_556 S
H835 C855 0.950 . S
H836 C857 0.950 . S
H837 C860 0.950 . S
H838 C861 0.950 . S
H839 C863 0.950 . S
H840 C864 0.950 . S
H841 C865 0.951 . S
H842 C867 0.951 . S
H843 C869 0.950 . S
H844 C870 0.950 1_554 S
H845 C872 0.950 . S
H846 C875 0.950 . S
H847 C876 0.950 . S
H848 C878 0.950 . S
H849 C879 0.950 . S
C850 H832 0.951 . S
C850 C851 1.366 1_655 S
C850 C852 1.388 . S
C851 C850 1.366 1_455 S
C851 C855 1.385 . S
C852 H833 0.951 . S
C852 C850 1.388 . S
C852 C853 1.366 . S
C853 C852 1.366 . S
C853 C854 1.414 . S
C853 C856 1.499 . S
C854 H834 0.950 1_554 S
C854 C853 1.414 . S
C854 C855 1.374 1_655 S
C855 H835 0.950 . S
C855 C851 1.385 . S
C855 C854 1.374 1_455 S
C856 C853 1.499 . S
C856 C857 1.373 1_554 S
C856 C858 1.389 . S
C857 H836 0.950 . S
C857 C856 1.373 1_556 S
C857 C873 1.377 . S
C858 C856 1.389 . S
C858 C859 1.524 . S
C858 C872 1.377 . S
C859 C858 1.524 . S
C859 C860 1.397 . S
C859 C864 1.363 . S
C860 H837 0.950 . S
C860 C859 1.397 . S
C860 C861 1.334 . S
C861 H838 0.950 . S
C861 C860 1.334 . S
C861 C862 1.287 . S
C862 C861 1.287 . S
C862 C863 1.524 . S
C862 H881 0.913 . S
C863 H839 0.950 . S
C863 C862 1.524 . S
C863 C864 1.415 . S
C864 H840 0.950 . S
C864 C859 1.363 . S
C864 C863 1.415 . S
C865 H841 0.951 . S
C865 C866 1.366 . S
C865 C867 1.388 . S
C866 C865 1.366 . S
C866 C870 1.385 . S
C867 H842 0.951 . S
C867 C865 1.388 . S
C867 C868 1.366 . S
C868 C867 1.366 . S
C868 C869 1.414 1_556 S
C868 C871 1.502 . S
C869 H843 0.950 . S
C869 C868 1.414 1_554 S
C869 C870 1.374 1_554 S
C870 H844 0.950 1_556 S
C870 C866 1.385 . S
C870 C869 1.374 1_556 S
C871 C868 1.502 . S
C871 C872 1.365 1_556 S
C871 C873 1.394 . S
C872 H845 0.950 . S
C872 C858 1.377 . S
C872 C871 1.365 1_554 S
C873 C857 1.377 . S
C873 C871 1.394 . S
C873 C874 1.524 . S
C874 C873 1.524 . S
C874 C875 1.397 . S
C874 C879 1.363 . S
C875 H846 0.950 . S
C875 C874 1.397 . S
C875 C876 1.334 . S
C876 H847 0.950 . S
C876 C875 1.334 . S
C876 C877 1.287 . S
C877 C876 1.287 . S
C877 C878 1.524 . S
C877 H880 0.999 . S
C878 H848 0.950 . S
C878 C877 1.524 . S
C878 C879 1.415 . S
C879 H849 0.950 . S
C879 C874 1.363 . S
C879 C878 1.415 . S
H880 C877 0.999 . S
H881 C862 0.913 . S
H882 C900 0.951 . S
H883 C902 0.951 . S
H884 C904 0.950 . S
H885 C905 0.950 . S
H886 C907 0.950 . S
H887 C910 0.950 . S
H888 C911 0.950 . S
H889 C913 0.950 . S
H890 C914 0.950 . S
H891 C915 0.951 . S
H892 C917 0.951 . S
H893 C919 0.950 . S
H894 C920 0.950 . S
H895 C922 0.950 . S
H896 C925 0.950 . S
H897 C926 0.950 . S
H898 C928 0.950 . S
H899 C929 0.950 . S
C900 H882 0.951 . S
C900 C901 1.366 . S
C900 C902 1.388 . S
C901 C900 1.366 . S
C901 C905 1.385 . S
C902 H883 0.951 . S
C902 C900 1.388 . S
C902 C903 1.366 . S
C903 C902 1.366 . S
C903 C904 1.414 . S
C903 C906 1.499 . S
C904 H884 0.950 . S
C904 C903 1.414 . S
C904 C905 1.374 . S
C905 H885 0.950 . S
C905 C901 1.385 . S
C905 C904 1.374 . S
C906 C903 1.499 . S
C906 C907 1.373 . S
C906 C908 1.389 . S
C907 H886 0.950 . S
C907 C906 1.373 . S
C907 C923 1.377 . S
C908 C906 1.389 . S
C908 C909 1.524 . S
C908 C922 1.377 . S
C909 C908 1.524 . S
C909 C910 1.397 . S
C909 C914 1.363 . S
C910 H887 0.950 . S
C910 C909 1.397 . S
C910 C911 1.334 . S
C911 H888 0.950 . S
C911 C910 1.334 . S
C911 C912 1.287 . S
C912 C911 1.287 . S
C912 C913 1.524 . S
C912 H931 0.913 . S
C913 H889 0.950 . S
C913 C912 1.524 . S
C913 C914 1.415 . S
C914 H890 0.950 . S
C914 C909 1.363 . S
C914 C913 1.415 . S
C915 H891 0.951 . S
C915 C916 1.366 . S
C915 C917 1.388 . S
C916 C915 1.366 . S
C916 C920 1.385 . S
C917 H892 0.951 . S
C917 C915 1.388 . S
C917 C918 1.366 . S
C918 C917 1.366 . S
C918 C919 1.414 . S
C918 C921 1.499 . S
C919 H893 0.950 . S
C919 C918 1.414 . S
C919 C920 1.374 . S
C920 H894 0.950 . S
C920 C916 1.385 . S
C920 C919 1.374 . S
C921 C918 1.499 . S
C921 C922 1.373 . S
C921 C923 1.389 . S
C922 H895 0.950 . S
C922 C908 1.377 . S
C922 C921 1.373 . S
C923 C907 1.377 . S
C923 C921 1.389 . S
C923 C924 1.524 . S
C924 C923 1.524 . S
C924 C925 1.397 . S
C924 C929 1.363 . S
C925 H896 0.950 . S
C925 C924 1.397 . S
C925 C926 1.334 . S
C926 H897 0.950 . S
C926 C925 1.334 . S
C926 C927 1.287 . S
C927 C926 1.287 . S
C927 C928 1.524 . S
C927 H930 0.999 . S
C928 H898 0.950 . S
C928 C927 1.524 . S
C928 C929 1.415 . S
C929 H899 0.950 . S
C929 C924 1.363 . S
C929 C928 1.415 . S
H930 C927 0.999 . S
H931 C912 0.913 . S
H932 C950 0.951 . S
H933 C952 0.951 . S
H934 C954 0.950 . S
H935 C955 0.950 . S
H936 C957 0.950 . S
H937 C960 0.950 . S
H938 C961 0.950 . S
H939 C963 0.950 . S
H940 C964 0.950 . S
H941 C965 0.951 . S
H942 C967 0.951 . S
H943 C969 0.950 . S
H944 C970 0.950 . S
H945 C972 0.950 . S
H946 C975 0.950 . S
H947 C976 0.950 . S
H948 C978 0.950 . S
H949 C979 0.950 . S
C950 H932 0.951 . S
C950 C951 1.366 . S
C950 C952 1.388 . S
C951 C950 1.366 . S
C951 C955 1.385 . S
C952 H933 0.951 . S
C952 C950 1.388 . S
C952 C953 1.366 . S
C953 C952 1.366 . S
C953 C954 1.414 . S
C953 C956 1.499 . S
C954 H934 0.950 . S
C954 C953 1.414 . S
C954 C955 1.374 . S
C955 H935 0.950 . S
C955 C951 1.385 . S
C955 C954 1.374 . S
C956 C953 1.499 . S
C956 C957 1.373 . S
C956 C958 1.389 . S
C957 H936 0.950 . S
C957 C956 1.373 . S
C957 C973 1.377 . S
C958 C956 1.389 . S
C958 C959 1.524 . S
C958 C972 1.377 . S
C959 C958 1.524 . S
C959 C960 1.397 . S
C959 C964 1.363 . S
C960 H937 0.950 . S
C960 C959 1.397 . S
C960 C961 1.334 . S
C961 H938 0.950 . S
C961 C960 1.334 . S
C961 C962 1.287 . S
C962 C961 1.287 . S
C962 C963 1.524 . S
C962 H981 0.913 . S
C963 H939 0.950 . S
C963 C962 1.524 . S
C963 C964 1.415 . S
C964 H940 0.950 . S
C964 C959 1.363 . S
C964 C963 1.415 . S
C965 H941 0.951 . S
C965 C966 1.366 . S
C965 C967 1.388 1_565 S
C966 C965 1.366 . S
C966 C970 1.385 1_565 S
C967 H942 0.951 . S
C967 C965 1.388 1_545 S
C967 C968 1.366 . S
C968 C967 1.366 . S
C968 C969 1.414 . S
C968 C971 1.499 . S
C969 H943 0.950 . S
C969 C968 1.414 . S
C969 C970 1.374 . S
C970 H944 0.950 . S
C970 C966 1.385 1_545 S
C970 C969 1.374 . S
C971 C968 1.499 . S
C971 C972 1.373 . S
C971 C973 1.389 . S
C972 H945 0.950 . S
C972 C958 1.377 . S
C972 C971 1.373 . S
C973 C957 1.377 . S
C973 C971 1.389 . S
C973 C974 1.524 . S
C974 C973 1.524 . S
C974 C975 1.397 . S
C974 C979 1.363 . S
C975 H946 0.950 . S
C975 C974 1.397 . S
C975 C976 1.334 . S
C976 H947 0.950 . S
C976 C975 1.334 . S
C976 C977 1.287 . S
C977 C976 1.287 . S
C977 C978 1.524 . S
C977 H980 0.999 . S
C978 H948 0.950 . S
C978 C977 1.524 . S
C978 C979 1.415 . S
C979 H949 0.950 . S
C979 C974 1.363 . S
C979 C978 1.415 . S
H980 C977 0.999 . S
H981 C962 0.913 . S
H982 C1000 0.951 . S
H983 C1002 0.951 . S
H984 C1004 0.950 . S
H985 C1005 0.950 . S
H986 C1007 0.950 . S
H987 C1010 0.950 . S
H988 C1011 0.950 . S
H989 C1013 0.950 . S
H990 C1014 0.950 . S
H991 C1015 0.951 . S
H992 C1017 0.951 . S
H993 C1019 0.950 . S
H994 C1020 0.950 . S
H995 C1022 0.950 . S
H996 C1025 0.950 . S
H997 C1026 0.950 . S
H998 C1028 0.950 . S
H999 C1029 0.950 . S
C1000 H982 0.951 . S
C1000 C1001 1.366 . S
C1000 C1002 1.388 1_455 S
C1001 C1000 1.366 . S
C1001 C1005 1.385 . S
C1002 H983 0.951 . S
C1002 C1000 1.388 1_655 S
C1002 C1003 1.366 . S
C1003 C1002 1.366 . S
C1003 C1004 1.414 . S
C1003 C1006 1.499 . S
C1004 H984 0.950 . S
C1004 C1003 1.414 . S
C1004 C1005 1.374 1_655 S
C1005 H985 0.950 . S
C1005 C1001 1.385 . S
C1005 C1004 1.374 1_455 S
C1006 C1003 1.499 . S
C1006 C1007 1.373 . S
C1006 C1008 1.389 . S
C1007 H986 0.950 . S
C1007 C1006 1.373 . S
C1007 C1023 1.377 . S
C1008 C1006 1.389 . S
C1008 C1009 1.524 . S
C1008 C1022 1.377 . S
C1009 C1008 1.524 . S
C1009 C1010 1.397 . S
C1009 C1014 1.363 . S
C1010 H987 0.950 . S
C1010 C1009 1.397 . S
C1010 C1011 1.334 1_655 S
C1011 H988 0.950 . S
C1011 C1010 1.334 1_455 S
C1011 C1012 1.287 . S
C1012 C1011 1.287 . S
C1012 C1013 1.524 1_455 S
C1012 H1031 0.913 . S
C1013 H989 0.950 . S
C1013 C1012 1.524 1_655 S
C1013 C1014 1.415 . S
C1014 H990 0.950 . S
C1014 C1009 1.363 . S
C1014 C1013 1.415 . S
C1015 H991 0.951 . S
C1015 C1016 1.366 . S
C1015 C1017 1.388 . S
C1016 C1015 1.366 . S
C1016 C1020 1.385 . S
C1017 H992 0.951 . S
C1017 C1015 1.388 . S
C1017 C1018 1.366 . S
C1018 C1017 1.366 . S
C1018 C1019 1.414 . S
C1018 C1021 1.499 . S
C1019 H993 0.950 . S
C1019 C1018 1.414 . S
C1019 C1020 1.374 . S
C1020 H994 0.950 . S
C1020 C1016 1.385 . S
C1020 C1019 1.374 . S
C1021 C1018 1.499 . S
C1021 C1022 1.373 . S
C1021 C1023 1.389 . S
C1022 H995 0.950 . S
C1022 C1008 1.377 . S
C1022 C1021 1.373 . S
C1023 C1007 1.377 . S
C1023 C1021 1.389 . S
C1023 C1024 1.524 . S
C1024 C1023 1.524 . S
C1024 C1025 1.397 . S
C1024 C1029 1.363 . S
C1025 H996 0.950 . S
C1025 C1024 1.397 . S
C1025 C1026 1.334 . S
C1026 H997 0.950 . S
C1026 C1025 1.334 . S
C1026 C1027 1.287 . S
C1027 C1026 1.287 . S
C1027 C1028 1.524 . S
C1027 H1030 0.999 . S
C1028 H998 0.950 . S
C1028 C1027 1.524 . S
C1028 C1029 1.415 . S
C1029 H999 0.950 . S
C1029 C1024 1.363 . S
C1029 C1028 1.415 . S
H1030 C1027 0.999 . S
H1031 C1012 0.913 . S
H1032 C1050 0.951 . S
H1033 C1052 0.951 . S
H1034 C1054 0.950 . S
H1035 C1055 0.950 . S
H1036 C1057 0.950 . S
H1037 C1060 0.950 . S
H1038 C1061 0.950 . S
H1039 C1063 0.950 . S
H1040 C1064 0.950 . S
H1041 C1065 0.951 . S
H1042 C1067 0.951 . S
H1043 C1069 0.950 . S
H1044 C1070 0.950 . S
H1045 C1072 0.950 . S
H1046 C1075 0.950 . S
H1047 C1076 0.950 . S
H1048 C1078 0.950 . S
H1049 C1079 0.950 . S
C1050 H1032 0.951 . S
C1050 C1051 1.366 . S
C1050 C1052 1.388 . S
C1051 C1050 1.366 . S
C1051 C1055 1.385 . S
C1052 H1033 0.951 . S
C1052 C1050 1.388 . S
C1052 C1053 1.366 . S
C1053 C1052 1.366 . S
C1053 C1054 1.414 . S
C1053 C1056 1.499 . S
C1054 H1034 0.950 . S
C1054 C1053 1.414 . S
C1054 C1055 1.374 . S
C1055 H1035 0.950 . S
C1055 C1051 1.385 . S
C1055 C1054 1.374 . S
C1056 C1053 1.499 . S
C1056 C1057 1.373 . S
C1056 C1058 1.389 . S
C1057 H1036 0.950 . S
C1057 C1056 1.373 . S
C1057 C1073 1.377 . S
C1058 C1056 1.389 . S
C1058 C1059 1.524 . S
C1058 C1072 1.377 . S
C1059 C1058 1.524 . S
C1059 C1060 1.397 . S
C1059 C1064 1.363 . S
C1060 H1037 0.950 . S
C1060 C1059 1.397 . S
C1060 C1061 1.334 . S
C1061 H1038 0.950 . S
C1061 C1060 1.334 . S
C1061 C1062 1.287 . S
C1062 C1061 1.287 . S
C1062 C1063 1.524 . S
C1062 H1081 0.913 . S
C1063 H1039 0.950 . S
C1063 C1062 1.524 . S
C1063 C1064 1.415 . S
C1064 H1040 0.950 . S
C1064 C1059 1.363 . S
C1064 C1063 1.415 . S
C1065 H1041 0.951 . S
C1065 C1066 1.366 . S
C1065 C1067 1.388 . S
C1066 C1065 1.366 . S
C1066 C1070 1.385 . S
C1067 H1042 0.951 . S
C1067 C1065 1.388 . S
C1067 C1068 1.366 . S
C1068 C1067 1.366 . S
C1068 C1069 1.414 . S
C1068 C1071 1.499 . S
C1069 H1043 0.950 . S
C1069 C1068 1.414 . S
C1069 C1070 1.374 . S
C1070 H1044 0.950 . S
C1070 C1066 1.385 . S
C1070 C1069 1.374 . S
C1071 C1068 1.499 . S
C1071 C1072 1.373 . S
C1071 C1073 1.389 . S
C1072 H1045 0.950 . S
C1072 C1058 1.377 . S
C1072 C1071 1.373 . S
C1073 C1057 1.377 . S
C1073 C1071 1.389 . S
C1073 C1074 1.524 . S
C1074 C1073 1.524 . S
C1074 C1075 1.397 . S
C1074 C1079 1.363 . S
C1075 H1046 0.950 . S
C1075 C1074 1.397 . S
C1075 C1076 1.334 . S
C1076 H1047 0.950 . S
C1076 C1075 1.334 . S
C1076 C1077 1.287 . S
C1077 C1076 1.287 . S
C1077 C1078 1.524 . S
C1077 H1080 0.999 . S
C1078 H1048 0.950 . S
C1078 C1077 1.524 . S
C1078 C1079 1.415 . S
C1079 H1049 0.950 . S
C1079 C1074 1.363 . S
C1079 C1078 1.415 . S
H1080 C1077 0.999 . S
H1081 C1062 0.913 . S
H1082 C1100 0.951 . S
H1083 C1102 0.951 . S
H1084 C1104 0.950 . S
H1085 C1105 0.950 . S
H1086 C1107 0.950 . S
H1087 C1110 0.950 . S
H1088 C1111 0.950 . S
H1089 C1113 0.950 . S
H1090 C1114 0.950 . S
H1091 C1115 0.951 . S
H1092 C1117 0.951 . S
H1093 C1119 0.950 . S
H1094 C1120 0.950 . S
H1095 C1122 0.950 . S
H1096 C1125 0.950 . S
H1097 C1126 0.950 . S
H1098 C1128 0.950 . S
H1099 C1129 0.950 . S
C1100 H1082 0.951 . S
C1100 C1101 1.366 . S
C1100 C1102 1.388 . S
C1101 C1100 1.366 . S
C1101 C1105 1.385 . S
C1102 H1083 0.951 . S
C1102 C1100 1.388 . S
C1102 C1103 1.366 . S
C1103 C1102 1.366 . S
C1103 C1104 1.414 . S
C1103 C1106 1.499 . S
C1104 H1084 0.950 . S
C1104 C1103 1.414 . S
C1104 C1105 1.374 . S
C1105 H1085 0.950 . S
C1105 C1101 1.385 . S
C1105 C1104 1.374 . S
C1106 C1103 1.499 . S
C1106 C1107 1.373 . S
C1106 C1108 1.389 . S
C1107 H1086 0.950 . S
C1107 C1106 1.373 . S
C1107 C1123 1.377 . S
C1108 C1106 1.389 . S
C1108 C1109 1.524 . S
C1108 C1122 1.377 . S
C1109 C1108 1.524 . S
C1109 C1110 1.397 . S
C1109 C1114 1.363 . S
C1110 H1087 0.950 . S
C1110 C1109 1.397 . S
C1110 C1111 1.334 . S
C1111 H1088 0.950 . S
C1111 C1110 1.334 . S
C1111 C1112 1.287 . S
C1112 C1111 1.287 . S
C1112 C1113 1.524 . S
C1112 H1131 0.913 . S
C1113 H1089 0.950 . S
C1113 C1112 1.524 . S
C1113 C1114 1.415 . S
C1114 H1090 0.950 . S
C1114 C1109 1.363 . S
C1114 C1113 1.415 . S
C1115 H1091 0.951 . S
C1115 C1116 1.366 . S
C1115 C1117 1.388 . S
C1116 C1115 1.366 . S
C1116 C1120 1.385 . S
C1117 H1092 0.951 . S
C1117 C1115 1.388 . S
C1117 C1118 1.366 . S
C1118 C1117 1.366 . S
C1118 C1119 1.414 . S
C1118 C1121 1.499 . S
C1119 H1093 0.950 . S
C1119 C1118 1.414 . S
C1119 C1120 1.374 . S
C1120 H1094 0.950 . S
C1120 C1116 1.385 . S
C1120 C1119 1.374 . S
C1121 C1118 1.499 . S
C1121 C1122 1.373 . S
C1121 C1123 1.389 . S
C1122 H1095 0.950 . S
C1122 C1108 1.377 . S
C1122 C1121 1.373 . S
C1123 C1107 1.377 . S
C1123 C1121 1.389 . S
C1123 C1124 1.524 . S
C1124 C1123 1.524 . S
C1124 C1125 1.397 . S
C1124 C1129 1.363 . S
C1125 H1096 0.950 . S
C1125 C1124 1.397 . S
C1125 C1126 1.334 . S
C1126 H1097 0.950 . S
C1126 C1125 1.334 . S
C1126 C1127 1.287 . S
C1127 C1126 1.287 . S
C1127 C1128 1.524 . S
C1127 H1130 0.999 . S
C1128 H1098 0.950 . S
C1128 C1127 1.524 . S
C1128 C1129 1.415 . S
C1129 H1099 0.950 . S
C1129 C1124 1.363 . S
C1129 C1128 1.415 . S
H1130 C1127 0.999 . S
H1131 C1112 0.913 . S
H1132 C1150 0.951 . S
H1133 C1152 0.951 . S
H1134 C1154 0.950 . S
H1135 C1155 0.950 . S
H1136 C1157 0.950 . S
H1137 C1160 0.950 . S
H1138 C1161 0.950 . S
H1139 C1163 0.950 . S
H1140 C1164 0.950 . S
H1141 C1165 0.951 . S
H1142 C1167 0.951 . S
H1143 C1169 0.950 . S
H1144 C1170 0.950 . S
H1145 C1172 0.950 . S
H1146 C1175 0.950 . S
H1147 C1176 0.950 . S
H1148 C1178 0.950 . S
H1149 C1179 0.950 . S
C1150 H1132 0.951 . S
C1150 C1151 1.366 . S
C1150 C1152 1.388 . S
C1151 C1150 1.366 . S
C1151 C1155 1.385 . S
C1152 H1133 0.951 . S
C1152 C1150 1.388 . S
C1152 C1153 1.366 . S
C1153 C1152 1.366 . S
C1153 C1154 1.414 . S
C1153 C1156 1.499 . S
C1154 H1134 0.950 . S
C1154 C1153 1.414 . S
C1154 C1155 1.374 . S
C1155 H1135 0.950 . S
C1155 C1151 1.385 . S
C1155 C1154 1.374 . S
C1156 C1153 1.499 . S
C1156 C1157 1.373 . S
C1156 C1158 1.389 . S
C1157 H1136 0.950 . S
C1157 C1156 1.373 . S
C1157 C1173 1.377 . S
C1158 C1156 1.389 . S
C1158 C1159 1.524 . S
C1158 C1172 1.377 . S
C1159 C1158 1.524 . S
C1159 C1160 1.397 . S
C1159 C1164 1.363 . S
C1160 H1137 0.950 . S
C1160 C1159 1.397 . S
C1160 C1161 1.334 . S
C1161 H1138 0.950 . S
C1161 C1160 1.334 . S
C1161 C1162 1.287 . S
C1162 C1161 1.287 . S
C1162 C1163 1.524 . S
C1162 H1181 0.913 . S
C1163 H1139 0.950 . S
C1163 C1162 1.524 . S
C1163 C1164 1.415 . S
C1164 H1140 0.950 . S
C1164 C1159 1.363 . S
C1164 C1163 1.415 . S
C1165 H1141 0.951 . S
C1165 C1166 1.366 . S
C1165 C1167 1.388 . S
C1166 C1165 1.366 . S
C1166 C1170 1.385 . S
C1167 H1142 0.951 . S
C1167 C1165 1.388 . S
C1167 C1168 1.366 . S
C1168 C1167 1.366 . S
C1168 C1169 1.414 . S
C1168 C1171 1.499 . S
C1169 H1143 0.950 . S
C1169 C1168 1.414 . S
C1169 C1170 1.374 . S
C1170 H1144 0.950 . S
C1170 C1166 1.385 . S
C1170 C1169 1.374 . S
C1171 C1168 1.499 . S
C1171 C1172 1.373 . S
C1171 C1173 1.389 . S
C1172 H1145 0.950 . S
C1172 C1158 1.377 . S
C1172 C1171 1.373 . S
C1173 C1157 1.377 . S
C1173 C1171 1.389 . S
C1173 C1174 1.524 . S
C1174 C1173 1.524 . S
C1174 C1175 1.397 . S
C1174 C1179 1.363 . S
C1175 H1146 0.950 . S
C1175 C1174 1.397 . S
C1175 C1176 1.334 . S
C1176 H1147 0.950 . S
C1176 C1175 1.334 . S
C1176 C1177 1.287 . S
C1177 C1176 1.287 . S
C1177 C1178 1.524 . S
C1177 H1180 0.999 . S
C1178 H1148 0.950 . S
C1178 C1177 1.524 . S
C1178 C1179 1.415 . S
C1179 H1149 0.950 . S
C1179 C1174 1.363 . S
C1179 C1178 1.415 . S
H1180 C1177 0.999 . S
H1181 C1162 0.913 . S
H1182 C1200 0.951 . S
H1183 C1202 0.951 . S
H1184 C1204 0.950 . S
H1185 C1205 0.950 . S
H1186 C1207 0.950 . S
H1187 C1210 0.950 . S
H1188 C1211 0.950 . S
H1189 C1213 0.950 . S
H1190 C1214 0.950 . S
H1191 C1215 0.951 . S
H1192 C1217 0.951 . S
H1193 C1219 0.950 . S
H1194 C1220 0.950 . S
H1195 C1222 0.950 . S
H1196 C1225 0.950 . S
H1197 C1226 0.950 . S
H1198 C1228 0.950 . S
H1199 C1229 0.950 . S
C1200 H1182 0.951 . S
C1200 C1201 1.366 . S
C1200 C1202 1.388 . S
C1201 C1200 1.366 . S
C1201 C1205 1.385 . S
C1202 H1183 0.951 . S
C1202 C1200 1.388 . S
C1202 C1203 1.366 . S
C1203 C1202 1.366 . S
C1203 C1204 1.414 . S
C1203 C1206 1.499 . S
C1204 H1184 0.950 . S
C1204 C1203 1.414 . S
C1204 C1205 1.374 . S
C1205 H1185 0.950 . S
C1205 C1201 1.385 . S
C1205 C1204 1.374 . S
C1206 C1203 1.499 . S
C1206 C1207 1.373 . S
C1206 C1208 1.389 . S
C1207 H1186 0.950 . S
C1207 C1206 1.373 . S
C1207 C1223 1.377 . S
C1208 C1206 1.389 . S
C1208 C1209 1.524 . S
C1208 C1222 1.377 . S
C1209 C1208 1.524 . S
C1209 C1210 1.397 . S
C1209 C1214 1.363 . S
C1210 H1187 0.950 . S
C1210 C1209 1.397 . S
C1210 C1211 1.334 . S
C1211 H1188 0.950 . S
C1211 C1210 1.334 . S
C1211 C1212 1.287 . S
C1212 C1211 1.287 . S
C1212 C1213 1.524 . S
C1212 H1231 0.913 . S
C1213 H1189 0.950 . S
C1213 C1212 1.524 . S
C1213 C1214 1.415 . S
C1214 H1190 0.950 . S
C1214 C1209 1.363 . S
C1214 C1213 1.415 . S
C1215 H1191 0.951 . S
C1215 C1216 1.366 . S
C1215 C1217 1.388 . S
C1216 C1215 1.366 . S
C1216 C1220 1.385 . S
C1217 H1192 0.951 . S
C1217 C1215 1.388 . S
C1217 C1218 1.366 . S
C1218 C1217 1.366 . S
C1218 C1219 1.414 . S
C1218 C1221 1.499 . S
C1219 H1193 0.950 . S
C1219 C1218 1.414 . S
C1219 C1220 1.374 . S
C1220 H1194 0.950 . S
C1220 C1216 1.385 . S
C1220 C1219 1.374 . S
C1221 C1218 1.499 . S
C1221 C1222 1.373 . S
C1221 C1223 1.389 . S
C1222 H1195 0.950 . S
C1222 C1208 1.377 . S
C1222 C1221 1.373 . S
C1223 C1207 1.377 . S
C1223 C1221 1.389 . S
C1223 C1224 1.524 . S
C1224 C1223 1.524 . S
C1224 C1225 1.397 . S
C1224 C1229 1.363 . S
C1225 H1196 0.950 . S
C1225 C1224 1.397 . S
C1225 C1226 1.334 . S
C1226 H1197 0.950 . S
C1226 C1225 1.334 . S
C1226 C1227 1.287 . S
C1227 C1226 1.287 . S
C1227 C1228 1.524 . S
C1227 H1230 0.999 . S
C1228 H1198 0.950 . S
C1228 C1227 1.524 . S
C1228 C1229 1.415 . S
C1229 H1199 0.950 . S
C1229 C1224 1.363 . S
C1229 C1228 1.415 . S
H1230 C1227 0.999 . S
H1231 C1212 0.913 . S
H1232 C1250 0.951 . S
H1233 C1252 0.951 . S
H1234 C1254 0.950 . S
H1235 C1255 0.950 . S
H1236 C1257 0.950 . S
H1237 C1260 0.950 . S
H1238 C1261 0.950 . S
H1239 C1263 0.950 . S
H1240 C1264 0.950 . S
H1241 C1265 0.951 . S
H1242 C1267 0.951 . S
H1243 C1269 0.950 . S
H1244 C1270 0.950 . S
H1245 C1272 0.950 . S
H1246 C1275 0.950 . S
H1247 C1276 0.950 . S
H1248 C1278 0.950 . S
H1249 C1279 0.950 . S
C1250 H1232 0.951 . S
C1250 C1251 1.366 . S
C1250 C1252 1.388 . S
C1251 C1250 1.366 . S
C1251 C1255 1.385 . S
C1252 H1233 0.951 . S
C1252 C1250 1.388 . S
C1252 C1253 1.366 . S
C1253 C1252 1.366 . S
C1253 C1254 1.414 . S
C1253 C1256 1.499 . S
C1254 H1234 0.950 . S
C1254 C1253 1.414 . S
C1254 C1255 1.374 . S
C1255 H1235 0.950 . S
C1255 C1251 1.385 . S
C1255 C1254 1.374 . S
C1256 C1253 1.499 . S
C1256 C1257 1.373 . S
C1256 C1258 1.389 . S
C1257 H1236 0.950 . S
C1257 C1256 1.373 . S
C1257 C1273 1.377 . S
C1258 C1256 1.389 . S
C1258 C1259 1.524 . S
C1258 C1272 1.377 . S
C1259 C1258 1.524 . S
C1259 C1260 1.397 . S
C1259 C1264 1.363 . S
C1260 H1237 0.950 . S
C1260 C1259 1.397 . S
C1260 C1261 1.334 . S
C1261 H1238 0.950 . S
C1261 C1260 1.334 . S
C1261 C1262 1.287 . S
C1262 C1261 1.287 . S
C1262 C1263 1.524 . S
C1262 H1281 0.913 . S
C1263 H1239 0.950 . S
C1263 C1262 1.524 . S
C1263 C1264 1.415 . S
C1264 H1240 0.950 . S
C1264 C1259 1.363 . S
C1264 C1263 1.415 . S
C1265 H1241 0.951 . S
C1265 C1266 1.366 . S
C1265 C1267 1.388 . S
C1266 C1265 1.366 . S
C1266 C1270 1.385 . S
C1267 H1242 0.951 . S
C1267 C1265 1.388 . S
C1267 C1268 1.366 . S
C1268 C1267 1.366 . S
C1268 C1269 1.414 . S
C1268 C1271 1.499 . S
C1269 H1243 0.950 . S
C1269 C1268 1.414 . S
C1269 C1270 1.374 . S
C1270 H1244 0.950 . S
C1270 C1266 1.385 . S
C1270 C1269 1.374 . S
C1271 C1268 1.499 . S
C1271 C1272 1.373 . S
C1271 C1273 1.389 . S
C1272 H1245 0.950 . S
C1272 C1258 1.377 . S
C1272 C1271 1.373 . S
C1273 C1257 1.377 . S
C1273 C1271 1.389 . S
C1273 C1274 1.524 . S
C1274 C1273 1.524 . S
C1274 C1275 1.397 . S
C1274 C1279 1.363 . S
C1275 H1246 0.950 . S
C1275 C1274 1.397 . S
C1275 C1276 1.334 . S
C1276 H1247 0.950 . S
C1276 C1275 1.334 . S
C1276 C1277 1.287 . S
C1277 C1276 1.287 . S
C1277 C1278 1.524 . S
C1277 H1280 0.999 . S
C1278 H1248 0.950 . S
C1278 C1277 1.524 . S
C1278 C1279 1.415 . S
C1279 H1249 0.950 . S
C1279 C1274 1.363 . S
C1279 C1278 1.415 . S
H1280 C1277 0.999 . S
H1281 C1262 0.913 . S
H1282 C1300 0.951 . S
H1283 C1302 0.951 . S
H1284 C1304 0.950 . S
H1285 C1305 0.950 . S
H1286 C1307 0.950 . S
H1287 C1310 0.950 . S
H1288 C1311 0.950 . S
H1289 C1313 0.950 . S
H1290 C1314 0.950 . S
H1291 C1315 0.951 . S
H1292 C1317 0.951 . S
H1293 C1319 0.950 . S
H1294 C1320 0.950 . S
H1295 C1322 0.950 . S
H1296 C1325 0.950 . S
H1297 C1326 0.950 . S
H1298 C1328 0.950 . S
H1299 C1329 0.950 . S
C1300 H1282 0.951 . S
C1300 C1301 1.366 . S
C1300 C1302 1.388 . S
C1301 C1300 1.366 . S
C1301 C1305 1.385 . S
C1302 H1283 0.951 . S
C1302 C1300 1.388 . S
C1302 C1303 1.366 . S
C1303 C1302 1.366 . S
C1303 C1304 1.414 . S
C1303 C1306 1.499 . S
C1304 H1284 0.950 . S
C1304 C1303 1.414 . S
C1304 C1305 1.374 . S
C1305 H1285 0.950 . S
C1305 C1301 1.385 . S
C1305 C1304 1.374 . S
C1306 C1303 1.499 . S
C1306 C1307 1.373 . S
C1306 C1308 1.389 . S
C1307 H1286 0.950 . S
C1307 C1306 1.373 . S
C1307 C1323 1.377 . S
C1308 C1306 1.389 . S
C1308 C1309 1.524 . S
C1308 C1322 1.377 . S
C1309 C1308 1.524 . S
C1309 C1310 1.397 . S
C1309 C1314 1.363 . S
C1310 H1287 0.950 . S
C1310 C1309 1.397 . S
C1310 C1311 1.334 . S
C1311 H1288 0.950 . S
C1311 C1310 1.334 . S
C1311 C1312 1.287 . S
C1312 C1311 1.287 . S
C1312 C1313 1.524 . S
C1312 H1331 0.913 . S
C1313 H1289 0.950 . S
C1313 C1312 1.524 . S
C1313 C1314 1.415 . S
C1314 H1290 0.950 . S
C1314 C1309 1.363 . S
C1314 C1313 1.415 . S
C1315 H1291 0.951 . S
C1315 C1316 1.366 . S
C1315 C1317 1.388 . S
C1316 C1315 1.366 . S
C1316 C1320 1.385 . S
C1317 H1292 0.951 . S
C1317 C1315 1.388 . S
C1317 C1318 1.366 . S
C1318 C1317 1.366 . S
C1318 C1319 1.414 . S
C1318 C1321 1.499 . S
C1319 H1293 0.950 . S
C1319 C1318 1.414 . S
C1319 C1320 1.374 . S
C1320 H1294 0.950 . S
C1320 C1316 1.385 . S
C1320 C1319 1.374 . S
C1321 C1318 1.499 . S
C1321 C1322 1.373 . S
C1321 C1323 1.389 . S
C1322 H1295 0.950 . S
C1322 C1308 1.377 . S
C1322 C1321 1.373 . S
C1323 C1307 1.377 . S
C1323 C1321 1.389 . S
C1323 C1324 1.524 . S
C1324 C1323 1.524 . S
C1324 C1325 1.397 . S
C1324 C1329 1.363 . S
C1325 H1296 0.950 . S
C1325 C1324 1.397 . S
C1325 C1326 1.334 . S
C1326 H1297 0.950 . S
C1326 C1325 1.334 . S
C1326 C1327 1.287 . S
C1327 C1326 1.287 . S
C1327 C1328 1.524 . S
C1327 H1330 0.999 . S
C1328 H1298 0.950 . S
C1328 C1327 1.524 . S
C1328 C1329 1.415 . S
C1329 H1299 0.950 . S
C1329 C1324 1.363 . S
C1329 C1328 1.415 . S
H1330 C1327 0.999 . S
H1331 C1312 0.913 . S
H1332 C1350 0.951 . S
H1333 C1352 0.951 1_556 S
H1334 C1354 0.950 . S
H1335 C1355 0.950 . S
H1336 C1357 0.950 . S
H1337 C1360 0.950 . S
H1338 C1361 0.950 . S
H1339 C1363 0.950 . S
H1340 C1364 0.950 . S
H1341 C1365 0.951 . S
H1342 C1367 0.951 1_554 S
H1343 C1369 0.950 . S
H1344 C1370 0.950 . S
H1345 C1372 0.950 . S
H1346 C1375 0.950 . S
H1347 C1376 0.950 . S
H1348 C1378 0.950 . S
H1349 C1379 0.950 . S
C1350 H1332 0.951 . S
C1350 C1351 1.366 . S
C1350 C1352 1.388 . S
C1351 C1350 1.366 . S
C1351 C1355 1.385 . S
C1352 H1333 0.951 1_554 S
C1352 C1350 1.388 . S
C1352 C1353 1.366 . S
C1353 C1352 1.366 . S
C1353 C1354 1.414 . S
C1353 C1356 1.499 . S
C1354 H1334 0.950 . S
C1354 C1353 1.414 . S
C1354 C1355 1.374 . S
C1355 H1335 0.950 . S
C1355 C1351 1.385 . S
C1355 C1354 1.374 . S
C1356 C1353 1.499 . S
C1356 C1357 1.373 1_455 S
C1356 C1358 1.389 1_554 S
C1357 H1336 0.950 . S
C1357 C1356 1.373 1_655 S
C1357 C1373 1.377 . S
C1358 C1356 1.389 1_556 S
C1358 C1359 1.524 . S
C1358 C1372 1.377 . S
C1359 C1358 1.524 . S
C1359 C1360 1.397 1_556 S
C1359 C1364 1.363 . S
C1360 H1337 0.950 . S
C1360 C1359 1.397 1_554 S
C1360 C1361 1.334 . S
C1361 H1338 0.950 . S
C1361 C1360 1.334 . S
C1361 C1362 1.287 1_554 S
C1362 C1361 1.287 1_556 S
C1362 C1363 1.524 . S
C1362 H1381 0.913 . S
C1363 H1339 0.950 . S
C1363 C1362 1.524 . S
C1363 C1364 1.415 . S
C1364 H1340 0.950 . S
C1364 C1359 1.363 . S
C1364 C1363 1.415 . S
C1365 H1341 0.951 . S
C1365 C1366 1.366 . S
C1365 C1367 1.388 . S
C1366 C1365 1.366 . S
C1366 C1370 1.385 . S
C1367 H1342 0.951 1_556 S
C1367 C1365 1.388 . S
C1367 C1368 1.366 . S
C1368 C1367 1.366 . S
C1368 C1369 1.414 . S
C1368 C1371 1.499 . S
C1369 H1343 0.950 . S
C1369 C1368 1.414 . S
C1369 C1370 1.374 . S
C1370 H1344 0.950 . S
C1370 C1366 1.385 . S
C1370 C1369 1.374 . S
C1371 C1368 1.499 . S
C1371 C1372 1.373 1_655 S
C1371 C1373 1.389 1_556 S
C1372 H1345 0.950 . S
C1372 C1358 1.377 . S
C1372 C1371 1.373 1_455 S
C1373 C1357 1.377 . S
C1373 C1371 1.389 1_554 S
C1373 C1374 1.524 . S
C1374 C1373 1.524 . S
C1374 C1375 1.397 1_554 S
C1374 C1379 1.363 . S
C1375 H1346 0.950 . S
C1375 C1374 1.397 1_556 S
C1375 C1376 1.334 . S
C1376 H1347 0.950 . S
C1376 C1375 1.334 . S
C1376 C1377 1.287 1_556 S
C1377 C1376 1.287 1_554 S
C1377 C1378 1.524 . S
C1377 H1380 0.999 . S
C1378 H1348 0.950 . S
C1378 C1377 1.524 . S
C1378 C1379 1.415 . S
C1379 H1349 0.950 . S
C1379 C1374 1.363 . S
C1379 C1378 1.415 . S
H1380 C1377 0.999 . S
H1381 C1362 0.913 . S
H1382 C1400 0.951 . S
H1383 C1402 0.951 . S
H1384 C1404 0.945 1_556 S
H1385 C1405 0.950 . S
H1386 C1407 0.950 . S
H1387 C1410 0.950 . S
H1388 C1411 0.950 . S
H1389 C1413 0.950 . S
H1390 C1414 0.950 . S
H1391 C1415 0.951 . S
H1392 C1417 0.951 . S
H1393 C1419 0.950 . S
H1394 C1420 0.950 . S
H1395 C1422 0.950 . S
H1396 C1425 0.950 . S
H1397 C1426 0.950 . S
H1398 C1428 0.950 . S
H1399 C1429 0.950 . S
C1400 H1382 0.951 . S
C1400 C1401 1.366 . S
C1400 C1402 1.388 . S
C1401 C1400 1.366 . S
C1401 C1405 1.385 . S
C1402 H1383 0.951 . S
C1402 C1400 1.388 . S
C1402 C1403 1.366 . S
C1403 C1402 1.366 . S
C1403 C1404 1.414 . S
C1403 C1406 1.499 . S
C1404 H1384 0.945 1_554 S
C1404 C1403 1.414 . S
C1404 C1405 1.374 . S
C1405 H1385 0.950 . S
C1405 C1401 1.385 . S
C1405 C1404 1.374 . S
C1406 C1403 1.499 . S
C1406 C1407 1.373 1_554 S
C1406 C1408 1.389 . S
C1407 H1386 0.950 . S
C1407 C1406 1.373 1_556 S
C1407 C1423 1.377 . S
C1408 C1406 1.389 . S
C1408 C1409 1.524 . S
C1408 C1422 1.377 . S
C1409 C1408 1.524 . S
C1409 C1410 1.397 . S
C1409 C1414 1.363 . S
C1410 H1387 0.950 . S
C1410 C1409 1.397 . S
C1410 C1411 1.334 . S
C1411 H1388 0.950 . S
C1411 C1410 1.334 . S
C1411 C1412 1.287 . S
C1412 C1411 1.287 . S
C1412 C1413 1.524 . S
C1412 H1431 0.913 . S
C1413 H1389 0.950 . S
C1413 C1412 1.524 . S
C1413 C1414 1.415 . S
C1414 H1390 0.950 . S
C1414 C1409 1.363 . S
C1414 C1413 1.415 . S
C1415 H1391 0.951 . S
C1415 C1416 1.366 . S
C1415 C1417 1.388 . S
C1416 C1415 1.366 . S
C1416 C1420 1.385 . S
C1417 H1392 0.951 . S
C1417 C1415 1.388 . S
C1417 C1418 1.366 . S
C1418 C1417 1.366 . S
C1418 C1419 1.414 . S
C1418 C1421 1.499 . S
C1419 H1393 0.950 . S
C1419 C1418 1.414 . S
C1419 C1420 1.374 . S
C1420 H1394 0.950 . S
C1420 C1416 1.385 . S
C1420 C1419 1.374 . S
C1421 C1418 1.499 . S
C1421 C1422 1.373 1_556 S
C1421 C1423 1.389 . S
C1422 H1395 0.950 . S
C1422 C1408 1.377 . S
C1422 C1421 1.373 1_554 S
C1423 C1407 1.377 . S
C1423 C1421 1.389 . S
C1423 C1424 1.524 . S
C1424 C1423 1.524 . S
C1424 C1425 1.397 . S
C1424 C1429 1.363 . S
C1425 H1396 0.950 . S
C1425 C1424 1.397 . S
C1425 C1426 1.334 . S
C1426 H1397 0.950 . S
C1426 C1425 1.334 . S
C1426 C1427 1.287 . S
C1427 C1426 1.287 . S
C1427 C1428 1.524 . S
C1427 H1430 0.999 . S
C1428 H1398 0.950 . S
C1428 C1427 1.524 . S
C1428 C1429 1.415 . S
C1429 H1399 0.950 . S
C1429 C1424 1.363 . S
C1429 C1428 1.415 . S
H1430 C1427 0.999 . S
H1431 C1412 0.913 . S
H1432 C1450 0.951 . S
H1433 C1452 0.951 . S
H1434 C1454 0.950 . S
H1435 C1455 0.950 . S
H1436 C1457 0.950 . S
H1437 C1460 0.950 . S
H1438 C1461 0.950 . S
H1439 C1463 0.950 . S
H1440 C1464 0.950 . S
H1441 C1465 0.951 . S
H1442 C1467 0.951 . S
H1443 C1469 0.950 1_565 S
H1444 C1470 0.950 . S
H1445 C1472 0.950 . S
H1446 C1475 0.950 . S
H1447 C1476 0.950 . S
H1448 C1478 0.950 . S
H1449 C1479 0.950 . S
C1450 H1432 0.951 . S
C1450 C1451 1.366 . S
C1450 C1452 1.388 . S
C1451 C1450 1.366 . S
C1451 C1455 1.385 . S
C1452 H1433 0.951 . S
C1452 C1450 1.388 . S
C1452 C1453 1.366 . S
C1453 C1452 1.366 . S
C1453 C1454 1.414 . S
C1453 C1456 1.499 . S
C1454 H1434 0.950 . S
C1454 C1453 1.414 . S
C1454 C1455 1.374 . S
C1455 H1435 0.950 . S
C1455 C1451 1.385 . S
C1455 C1454 1.374 . S
C1456 C1453 1.499 . S
C1456 C1457 1.373 1_554 S
C1456 C1458 1.389 . S
C1457 H1436 0.950 . S
C1457 C1456 1.373 1_556 S
C1457 C1473 1.376 . S
C1458 C1456 1.389 . S
C1458 C1459 1.524 . S
C1458 C1472 1.377 1_565 S
C1459 C1458 1.524 . S
C1459 C1460 1.397 1_565 S
C1459 C1464 1.363 . S
C1460 H1437 0.950 . S
C1460 C1459 1.397 1_545 S
C1460 C1461 1.334 . S
C1461 H1438 0.950 . S
C1461 C1460 1.334 . S
C1461 C1462 1.287 1_545 S
C1462 C1461 1.287 1_565 S
C1462 C1463 1.524 . S
C1462 H1481 0.913 . S
C1463 H1439 0.950 . S
C1463 C1462 1.524 . S
C1463 C1464 1.415 . S
C1464 H1440 0.950 . S
C1464 C1459 1.363 . S
C1464 C1463 1.415 . S
C1465 H1441 0.951 . S
C1465 C1466 1.366 . S
C1465 C1467 1.388 . S
C1466 C1465 1.366 . S
C1466 C1470 1.385 . S
C1467 H1442 0.951 . S
C1467 C1465 1.388 . S
C1467 C1468 1.366 . S
C1468 C1467 1.366 . S
C1468 C1469 1.414 . S
C1468 C1471 1.499 . S
C1469 H1443 0.950 1_545 S
C1469 C1468 1.414 . S
C1469 C1470 1.374 . S
C1470 H1444 0.950 . S
C1470 C1466 1.385 . S
C1470 C1469 1.374 . S
C1471 C1468 1.499 . S
C1471 C1472 1.373 1_556 S
C1471 C1473 1.391 1_545 S
C1472 H1445 0.950 . S
C1472 C1458 1.377 1_545 S
C1472 C1471 1.373 1_554 S
C1473 C1457 1.376 . S
C1473 C1471 1.391 1_565 S
C1473 C1474 1.524 1_565 S
C1474 C1473 1.524 1_545 S
C1474 C1475 1.397 1_545 S
C1474 C1479 1.363 . S
C1475 H1446 0.950 . S
C1475 C1474 1.397 1_565 S
C1475 C1476 1.334 . S
C1476 H1447 0.950 . S
C1476 C1475 1.334 . S
C1476 C1477 1.287 . S
C1477 C1476 1.287 . S
C1477 C1478 1.524 1_565 S
C1477 H1480 1.001 . S
C1478 H1448 0.950 . S
C1478 C1477 1.524 1_545 S
C1478 C1479 1.415 . S
C1479 H1449 0.950 . S
C1479 C1474 1.363 . S
C1479 C1478 1.415 . S
H1480 C1477 1.001 . S
H1481 C1462 0.913 . S
H1482 C1500 0.951 . S
H1483 C1502 0.951 . S
H1484 C1504 0.950 . S
H1485 C1505 0.950 . S
H1486 C1507 0.950 . S
H1487 C1510 0.950 . S
H1488 C1511 0.950 . S
H1489 C1513 0.950 . S
H1490 C1514 0.950 . S
H1491 C1515 0.951 . S
H1492 C1517 0.951 . S
H1493 C1519 0.950 . S
H1494 C1520 0.950 . S
H1495 C1522 0.950 . S
H1496 C1525 0.950 . S
H1497 C1526 0.950 . S
H1498 C1528 0.950 . S
H1499 C1529 0.950 . S
C1500 H1482 0.951 . S
C1500 C1501 1.366 . S
C1500 C1502 1.388 . S
C1501 C1500 1.366 . S
C1501 C1505 1.385 . S
C1502 H1483 0.951 . S
C1502 C1500 1.388 . S
C1502 C1503 1.366 . S
C1503 C1502 1.366 . S
C1503 C1504 1.414 . S
C1503 C1506 1.499 . S
C1504 H1484 0.950 . S
C1504 C1503 1.414 . S
C1504 C1505 1.374 . S
C1505 H1485 0.950 . S
C1505 C1501 1.385 . S
C1505 C1504 1.374 . S
C1506 C1503 1.499 . S
C1506 C1507 1.373 1_565 S
C1506 C1508 1.389 . S
C1507 H1486 0.950 . S
C1507 C1506 1.373 1_545 S
C1507 C1523 1.377 . S
C1508 C1506 1.389 . S
C1508 C1509 1.524 . S
C1508 C1522 1.377 . S
C1509 C1508 1.524 . S
C1509 C1510 1.397 . S
C1509 C1514 1.363 . S
C1510 H1487 0.950 . S
C1510 C1509 1.397 . S
C1510 C1511 1.334 . S
C1511 H1488 0.950 . S
C1511 C1510 1.334 . S
C1511 C1512 1.287 . S
C1512 C1511 1.287 . S
C1512 C1513 1.524 . S
C1512 H1531 0.913 . S
C1513 H1489 0.950 . S
C1513 C1512 1.524 . S
C1513 C1514 1.415 . S
C1514 H1490 0.950 . S
C1514 C1509 1.363 . S
C1514 C1513 1.415 . S
C1515 H1491 0.951 . S
C1515 C1516 1.366 . S
C1515 C1517 1.388 . S
C1516 C1515 1.366 . S
C1516 C1520 1.385 . S
C1517 H1492 0.951 . S
C1517 C1515 1.388 . S
C1517 C1518 1.366 . S
C1518 C1517 1.366 . S
C1518 C1519 1.414 . S
C1518 C1521 1.499 . S
C1519 H1493 0.950 . S
C1519 C1518 1.414 . S
C1519 C1520 1.374 . S
C1520 H1494 0.950 . S
C1520 C1516 1.385 . S
C1520 C1519 1.374 . S
C1521 C1518 1.499 . S
C1521 C1522 1.373 1_545 S
C1521 C1523 1.389 . S
C1522 H1495 0.950 . S
C1522 C1508 1.377 . S
C1522 C1521 1.373 1_565 S
C1523 C1507 1.377 . S
C1523 C1521 1.389 . S
C1523 C1524 1.524 . S
C1524 C1523 1.524 . S
C1524 C1525 1.397 . S
C1524 C1529 1.363 . S
C1525 H1496 0.950 . S
C1525 C1524 1.397 . S
C1525 C1526 1.334 . S
C1526 H1497 0.950 . S
C1526 C1525 1.334 . S
C1526 C1527 1.287 . S
C1527 C1526 1.287 . S
C1527 C1528 1.524 . S
C1527 H1530 0.999 . S
C1528 H1498 0.950 . S
C1528 C1527 1.524 . S
C1528 C1529 1.415 . S
C1529 H1499 0.950 . S
C1529 C1524 1.363 . S
C1529 C1528 1.415 . S
H1530 C1527 0.999 . S
H1531 C1512 0.913 . S
H1532 C1550 0.951 . S
H1533 C1552 0.951 . S
H1534 C1554 0.950 . S
H1535 C1555 0.950 . S
H1536 C1557 0.950 . S
H1537 C1560 0.950 . S
H1538 C1561 0.950 . S
H1539 C1563 0.950 . S
H1540 C1564 0.950 . S
H1541 C1565 0.951 . S
H1542 C1567 0.951 . S
H1543 C1569 0.950 . S
H1544 C1570 0.950 . S
H1545 C1572 0.950 . S
H1546 C1575 0.950 . S
H1547 C1576 0.950 . S
H1548 C1578 0.950 . S
H1549 C1579 0.950 . S
C1550 H1532 0.951 . S
C1550 C1551 1.366 . S
C1550 C1552 1.388 . S
C1551 C1550 1.366 . S
C1551 C1555 1.385 . S
C1552 H1533 0.951 . S
C1552 C1550 1.388 . S
C1552 C1553 1.366 . S
C1553 C1552 1.366 . S
C1553 C1554 1.414 . S
C1553 C1556 1.499 . S
C1554 H1534 0.950 . S
C1554 C1553 1.414 . S
C1554 C1555 1.374 . S
C1555 H1535 0.950 . S
C1555 C1551 1.385 . S
C1555 C1554 1.374 . S
C1556 C1553 1.499 . S
C1556 C1557 1.373 . S
C1556 C1558 1.389 1_655 S
C1557 H1536 0.950 . S
C1557 C1556 1.373 . S
C1557 C1573 1.377 . S
C1558 C1556 1.389 1_455 S
C1558 C1559 1.524 . S
C1558 C1572 1.377 . S
C1559 C1558 1.524 . S
C1559 C1560 1.397 . S
C1559 C1564 1.363 . S
C1560 H1537 0.950 . S
C1560 C1559 1.397 . S
C1560 C1561 1.334 . S
C1561 H1538 0.950 . S
C1561 C1560 1.334 . S
C1561 C1562 1.287 . S
C1562 C1561 1.287 . S
C1562 C1563 1.524 . S
C1562 H1581 0.913 . S
C1563 H1539 0.950 . S
C1563 C1562 1.524 . S
C1563 C1564 1.415 . S
C1564 H1540 0.950 . S
C1564 C1559 1.363 . S
C1564 C1563 1.415 . S
C1565 H1541 0.951 . S
C1565 C1566 1.366 . S
C1565 C1567 1.388 . S
C1566 C1565 1.366 . S
C1566 C1570 1.385 . S
C1567 H1542 0.951 . S
C1567 C1565 1.388 . S
C1567 C1568 1.366 . S
C1568 C1567 1.366 . S
C1568 C1569 1.414 . S
C1568 C1571 1.499 . S
C1569 H1543 0.950 . S
C1569 C1568 1.414 . S
C1569 C1570 1.374 . S
C1570 H1544 0.950 . S
C1570 C1566 1.385 . S
C1570 C1569 1.374 . S
C1571 C1568 1.499 . S
C1571 C1572 1.373 . S
C1571 C1573 1.389 1_455 S
C1572 H1545 0.950 . S
C1572 C1558 1.377 . S
C1572 C1571 1.373 . S
C1573 C1557 1.377 . S
C1573 C1571 1.389 1_655 S
C1573 C1574 1.524 . S
C1574 C1573 1.524 . S
C1574 C1575 1.397 . S
C1574 C1579 1.363 . S
C1575 H1546 0.950 . S
C1575 C1574 1.397 . S
C1575 C1576 1.334 . S
C1576 H1547 0.950 . S
C1576 C1575 1.334 . S
C1576 C1577 1.287 . S
C1577 C1576 1.287 . S
C1577 C1578 1.524 . S
C1577 H1580 0.999 . S
C1578 H1548 0.950 . S
C1578 C1577 1.524 . S
C1578 C1579 1.415 . S
C1579 H1549 0.950 . S
C1579 C1574 1.363 . S
C1579 C1578 1.415 . S
H1580 C1577 0.999 . S
H1581 C1562 0.913 . S
H1582 C1600 0.951 . S
H1583 C1602 0.951 . S
H1584 C1604 0.950 . S
H1585 C1605 0.950 . S
H1586 C1607 0.950 . S
H1587 C1610 0.950 . S
H1588 C1611 0.950 . S
H1589 C1613 0.950 . S
H1590 C1614 0.950 . S
H1591 C1615 0.951 . S
H1592 C1617 0.951 . S
H1593 C1619 0.950 . S
H1594 C1620 0.950 . S
H1595 C1622 0.950 . S
H1596 C1625 0.950 . S
H1597 C1626 0.950 . S
H1598 C1628 0.950 . S
H1599 C1629 0.950 . S
C1600 H1582 0.951 . S
C1600 C1601 1.366 . S
C1600 C1602 1.388 . S
C1601 C1600 1.366 . S
C1601 C1605 1.385 . S
C1602 H1583 0.951 . S
C1602 C1600 1.388 . S
C1602 C1603 1.366 . S
C1603 C1602 1.366 . S
C1603 C1604 1.414 . S
C1603 C1606 1.499 . S
C1604 H1584 0.950 . S
C1604 C1603 1.414 . S
C1604 C1605 1.374 . S
C1605 H1585 0.950 . S
C1605 C1601 1.385 . S
C1605 C1604 1.374 . S
C1606 C1603 1.499 . S
C1606 C1607 1.373 . S
C1606 C1608 1.389 . S
C1607 H1586 0.950 . S
C1607 C1606 1.373 . S
C1607 C1623 1.377 . S
C1608 C1606 1.389 . S
C1608 C1609 1.524 . S
C1608 C1622 1.377 . S
C1609 C1608 1.524 . S
C1609 C1610 1.397 . S
C1609 C1614 1.363 . S
C1610 H1587 0.950 . S
C1610 C1609 1.397 . S
C1610 C1611 1.334 . S
C1611 H1588 0.950 . S
C1611 C1610 1.334 . S
C1611 C1612 1.287 . S
C1612 C1611 1.287 . S
C1612 C1613 1.524 . S
C1612 H1631 0.913 . S
C1613 H1589 0.950 . S
C1613 C1612 1.524 . S
C1613 C1614 1.415 . S
C1614 H1590 0.950 . S
C1614 C1609 1.363 . S
C1614 C1613 1.415 . S
C1615 H1591 0.951 . S
C1615 C1616 1.366 . S
C1615 C1617 1.388 . S
C1616 C1615 1.366 . S
C1616 C1620 1.385 . S
C1617 H1592 0.951 . S
C1617 C1615 1.388 . S
C1617 C1618 1.366 . S
C1618 C1617 1.366 . S
C1618 C1619 1.414 . S
C1618 C1621 1.499 . S
C1619 H1593 0.950 . S
C1619 C1618 1.414 . S
C1619 C1620 1.374 . S
C1620 H1594 0.950 . S
C1620 C1616 1.385 . S
C1620 C1619 1.374 . S
C1621 C1618 1.499 . S
C1621 C1622 1.373 . S
C1621 C1623 1.389 . S
C1622 H1595 0.950 . S
C1622 C1608 1.377 . S
C1622 C1621 1.373 . S
C1623 C1607 1.377 . S
C1623 C1621 1.389 . S
C1623 C1624 1.524 . S
C1624 C1623 1.524 . S
C1624 C1625 1.397 . S
C1624 C1629 1.363 . S
C1625 H1596 0.950 . S
C1625 C1624 1.397 . S
C1625 C1626 1.334 . S
C1626 H1597 0.950 . S
C1626 C1625 1.334 . S
C1626 C1627 1.287 . S
C1627 C1626 1.287 . S
C1627 C1628 1.524 . S
C1627 H1630 0.999 . S
C1628 H1598 0.950 . S
C1628 C1627 1.524 . S
C1628 C1629 1.415 . S
C1629 H1599 0.950 . S
C1629 C1624 1.363 . S
C1629 C1628 1.415 . S
H1630 C1627 0.999 . S
H1631 C1612 0.913 . S
C451 C4 0.454 . S
C466 C254 0.464 . S
C501 C40 0.439 . S
C516 C290 0.437 . S
C551 C86 0.530 . S
C566 C218 0.500 . S
C601 C398 0.499 . S
C616 C122 0.530 . S
C651 C148 0.437 . S
C666 C326 0.437 . S
C701 C362 0.465 . S
C716 C184 0.452 . S
C751 C38 0.413 . S
C766 C220 0.414 . S
C801 C256 0.401 . S
C816 C75 0.366 . S
C851 C2 0.521 . S
C866 C292 0.522 . S
C901 C328 0.522 . S
C916 C182 0.521 . S
C951 C364 0.403 . S
C966 C111 0.367 . S
C1001 C146 0.413 . S
C1016 C400 0.412 . S
C1051 C194 1.490 . S
C1066 C14 1.492 . S
C1101 C50 1.431 . S
C1116 C112 1.537 . S
C1151 C76 1.537 . S
C1166 C158 1.430 . S
C1201 C230 1.441 . S
C1216 C410 1.442 . S
C1251 C266 1.456 . S
C1266 C338 1.456 . S
C1301 C302 1.456 . S
C1316 C374 1.456 . S
C1351 C3 1.634 . S
C1366 C219 1.635 . S
C1401 C39 1.596 . S
C1416 C255 1.594 . S
C1451 C74 1.627 . S
C1466 C291 1.653 . S
C1501 C110 1.626 . S
C1516 C327 1.653 . S
C1551 C363 1.595 . S
C1566 C147 1.596 . S
C1601 C183 1.634 . S
C1616 C399 1.635 . S
