# Generated by pormake.
# Topology umb, (4)-cn, num edge types: 1
# Building blocks:
#     Node 0, Type 0, BuildingBlock: ICAMEG_clean_sbu_1, # of connection points: 4
#     Node 1, Type 0, BuildingBlock: ICAMEG_clean_sbu_1, # of connection points: 4
#     Node 2, Type 0, BuildingBlock: ICAMEG_clean_sbu_1, # of connection points: 4
#     Node 3, Type 0, BuildingBlock: ICAMEG_clean_sbu_1, # of connection points: 4
#     Node 4, Type 0, BuildingBlock: ICAMEG_clean_sbu_1, # of connection points: 4
#     Node 5, Type 0, BuildingBlock: ICAMEG_clean_sbu_1, # of connection points: 4
#     Node 6, Type 0, BuildingBlock: ICAMEG_clean_sbu_1, # of connection points: 4
#     Node 7, Type 0, BuildingBlock: ICAMEG_clean_sbu_1, # of connection points: 4
#     Node 8, Type 0, BuildingBlock: ICAMEG_clean_sbu_1, # of connection points: 4
#     Node 9, Type 0, BuildingBlock: ICAMEG_clean_sbu_1, # of connection points: 4
#     Node 10, Type 0, BuildingBlock: ICAMEG_clean_sbu_1, # of connection points: 4
#     Node 11, Type 0, BuildingBlock: ICAMEG_clean_sbu_1, # of connection points: 4
#     Edge 12, Type (0, 0), BuildingBlock: XUDNAN_clean_linker_2, # of connection points: 2
#     Edge 13, Type (0, 0), BuildingBlock: XUDNAN_clean_linker_2, # of connection points: 2
#     Edge 14, Type (0, 0), BuildingBlock: XUDNAN_clean_linker_2, # of connection points: 2
#     Edge 15, Type (0, 0), BuildingBlock: XUDNAN_clean_linker_2, # of connection points: 2
#     Edge 16, Type (0, 0), BuildingBlock: XUDNAN_clean_linker_2, # of connection points: 2
#     Edge 17, Type (0, 0), BuildingBlock: XUDNAN_clean_linker_2, # of connection points: 2
#     Edge 18, Type (0, 0), BuildingBlock: XUDNAN_clean_linker_2, # of connection points: 2
#     Edge 19, Type (0, 0), BuildingBlock: XUDNAN_clean_linker_2, # of connection points: 2
#     Edge 20, Type (0, 0), BuildingBlock: XUDNAN_clean_linker_2, # of connection points: 2
#     Edge 21, Type (0, 0), BuildingBlock: XUDNAN_clean_linker_2, # of connection points: 2
#     Edge 22, Type (0, 0), BuildingBlock: XUDNAN_clean_linker_2, # of connection points: 2
#     Edge 23, Type (0, 0), BuildingBlock: XUDNAN_clean_linker_2, # of connection points: 2
#     Edge 24, Type (0, 0), BuildingBlock: XUDNAN_clean_linker_2, # of connection points: 2
#     Edge 25, Type (0, 0), BuildingBlock: XUDNAN_clean_linker_2, # of connection points: 2
#     Edge 26, Type (0, 0), BuildingBlock: XUDNAN_clean_linker_2, # of connection points: 2
#     Edge 27, Type (0, 0), BuildingBlock: XUDNAN_clean_linker_2, # of connection points: 2
#     Edge 28, Type (0, 0), BuildingBlock: XUDNAN_clean_linker_2, # of connection points: 2
#     Edge 29, Type (0, 0), BuildingBlock: XUDNAN_clean_linker_2, # of connection points: 2
#     Edge 30, Type (0, 0), BuildingBlock: XUDNAN_clean_linker_2, # of connection points: 2
#     Edge 31, Type (0, 0), BuildingBlock: XUDNAN_clean_linker_2, # of connection points: 2
#     Edge 32, Type (0, 0), BuildingBlock: XUDNAN_clean_linker_2, # of connection points: 2
#     Edge 33, Type (0, 0), BuildingBlock: XUDNAN_clean_linker_2, # of connection points: 2
#     Edge 34, Type (0, 0), BuildingBlock: XUDNAN_clean_linker_2, # of connection points: 2
#     Edge 35, Type (0, 0), BuildingBlock: XUDNAN_clean_linker_2, # of connection points: 2
# Relax obj value: 0.161
# Max RMSD: 0.174
# Mean RMSD: 0.174
data_MOF--net-umb--node1-ICAMEG_clean_sbu_1--edge1-XUDNAN_clean_linker_2
_symmetry_space_group_name_H-M    P1
_symmetry_Int_Tables_number       1
_symmetry_cell_setting            triclinic
loop_
_symmetry_equiv_pos_as_xyz
'x, y, z'
_cell_length_a     50.587507
_cell_length_b     50.623318
_cell_length_c     40.639629
_cell_angle_alpha  89.929205
_cell_angle_beta   90.048801
_cell_angle_gamma 120.08064
loop_
_atom_site_label
_atom_site_type_symbol
_atom_site_fract_x
_atom_site_fract_y
_atom_site_fract_z
_atom_type_partial_charge
Co0 Co 0.51257 0.18437 0.35804 0.0
Co1 Co 0.56504 0.16004 0.34934 0.0
O2 O 0.52791 0.16027 0.33676 0.0
C3 C 0.52535 0.20784 0.28971 0.0
O4 O 0.55132 0.20819 0.29294 0.0
C5 C 0.51445 0.09783 0.35986 0.0
O6 O 0.50018 0.11079 0.37313 0.0
O7 O 0.55632 0.15956 0.39708 0.0
O8 O 0.51987 0.17226 0.40301 0.0
H9 H 0.66282 0.19489 0.41179 0.0
H10 H 0.47525 0.13972 0.30655 0.0
O11 O 0.50586 0.19773 0.31316 0.0
H12 H 0.41204 0.106 0.40695 0.0
H13 H 0.44094 0.22565 0.36976 0.0
H14 H 0.53147 0.22604 0.41549 0.0
H15 H 0.46303 0.15232 0.40751 0.0
H16 H 0.46065 0.19474 0.34422 0.0
O17 O 0.54161 0.11416 0.34899 0.0
H18 H 0.61608 0.19549 0.39585 0.0
H19 H 0.59276 0.12285 0.32865 0.0
H20 H 0.51242 0.25712 0.44194 0.0
H21 H 0.4243 0.09338 0.3048 0.0
H22 H 0.46683 0.25705 0.41905 0.0
H23 H 0.39239 0.0762 0.35531 0.0
O24 O 0.55399 0.22083 0.35938 0.0
H25 H 0.54058 0.12625 0.23156 0.0
H26 H 0.62007 0.19752 0.30808 0.0
H27 H 0.63178 0.19988 0.24887 0.0
H28 H 0.59187 0.16403 0.21018 0.0
H29 H 0.52978 0.12487 0.29092 0.0
H30 H 0.63916 0.1213 0.34405 0.0
H31 H 0.67461 0.15758 0.38582 0.0
O32 O 0.58824 0.20555 0.35053 0.0
C33 C 0.53861 0.16467 0.41483 0.0
C34 C 0.6476 0.17902 0.39348 0.0
C35 C 0.63429 0.13769 0.3555 0.0
N36 N 0.60182 0.15935 0.36121 0.0
C37 C 0.62115 0.17931 0.38428 0.0
C38 C 0.60803 0.13862 0.34694 0.0
C39 C 0.65418 0.15806 0.37893 0.0
C40 C 0.46133 0.13255 0.32852 0.0
N41 N 0.47198 0.14876 0.35704 0.0
C42 C 0.43257 0.10623 0.32742 0.0
C43 C 0.4147 0.09658 0.35578 0.0
C44 C 0.42572 0.11328 0.38478 0.0
C45 C 0.45461 0.13945 0.38497 0.0
C46 C 0.46078 0.22581 0.38001 0.0
C47 C 0.51149 0.22572 0.40554 0.0
C48 C 0.47206 0.2084 0.36563 0.0
N49 N 0.497 0.20838 0.37856 0.0
C50 C 0.50087 0.24344 0.42055 0.0
C51 C 0.47531 0.24342 0.40767 0.0
C52 C 0.58129 0.22619 0.35587 0.0
C53 C 0.55818 0.14193 0.24819 0.0
C54 C 0.60258 0.18187 0.29138 0.0
C55 C 0.60936 0.18328 0.25789 0.0
C56 C 0.58696 0.16315 0.2362 0.0
N57 N 0.57433 0.16093 0.30294 0.0
C58 C 0.55224 0.14116 0.28183 0.0
Co59 Co 0.31187 0.49733 0.69276 0.0
Co60 Co 0.38688 0.55296 0.67844 0.0
O61 O 0.3514 0.51261 0.67099 0.0
C62 C 0.29942 0.50322 0.62278 0.0
O63 O 0.32603 0.52838 0.62346 0.0
C64 C 0.40926 0.51246 0.70146 0.0
O65 O 0.38384 0.49707 0.7182 0.0
O66 O 0.38005 0.54969 0.72704 0.0
O67 O 0.33321 0.50942 0.73687 0.0
H68 H 0.44281 0.65854 0.72655 0.0
H69 H 0.32004 0.4576 0.64537 0.0
O70 O 0.29009 0.48614 0.64837 0.0
H71 H 0.29671 0.40322 0.75158 0.0
H72 H 0.20031 0.42211 0.71031 0.0
H73 H 0.28894 0.5184 0.74813 0.0
H74 H 0.29878 0.45284 0.74702 0.0
H75 H 0.25052 0.44238 0.68338 0.0
O76 O 0.41364 0.53465 0.68308 0.0
H77 H 0.39834 0.60739 0.71708 0.0
H78 H 0.45161 0.5844 0.65548 0.0
H79 H 0.23922 0.49888 0.77594 0.0
H80 H 0.31792 0.40787 0.6487 0.0
H81 H 0.19448 0.45039 0.75701 0.0
H82 H 0.30625 0.38039 0.70214 0.0
O83 O 0.31365 0.53745 0.68984 0.0
H84 H 0.39701 0.51632 0.56687 0.0
H85 H 0.39831 0.60081 0.62853 0.0
H86 H 0.40534 0.60499 0.56832 0.0
H87 H 0.40474 0.56255 0.53709 0.0
H88 H 0.38972 0.51295 0.62708 0.0
H89 H 0.49679 0.63523 0.66459 0.0
H90 H 0.4925 0.67275 0.70022 0.0
O91 O 0.36123 0.5719 0.67431 0.0
C92 C 0.35899 0.53156 0.74661 0.0
C93 C 0.44495 0.64243 0.7109 0.0
C94 C 0.47525 0.62933 0.67615 0.0
N95 N 0.4223 0.59302 0.68552 0.0
C96 C 0.41982 0.61345 0.70536 0.0
C97 C 0.44961 0.60056 0.67114 0.0
C98 C 0.47283 0.65037 0.69614 0.0
C99 C 0.31472 0.44562 0.66862 0.0
N100 N 0.3094 0.45797 0.69592 0.0
C101 C 0.31365 0.41755 0.6704 0.0
C102 C 0.30713 0.40216 0.7004 0.0
C103 C 0.30179 0.41496 0.72815 0.0
C104 C 0.30308 0.44309 0.72545 0.0
C105 C 0.21965 0.44323 0.71882 0.0
C106 C 0.26961 0.49719 0.73992 0.0
C107 C 0.24811 0.45484 0.70363 0.0
N108 N 0.27264 0.48141 0.71436 0.0
C109 C 0.2415 0.48629 0.75568 0.0
C110 C 0.2164 0.45911 0.74503 0.0
C111 C 0.33383 0.56429 0.68125 0.0
C112 C 0.39739 0.535 0.58022 0.0
C113 C 0.39797 0.58222 0.61511 0.0
C114 C 0.40202 0.58474 0.58103 0.0
C115 C 0.40169 0.56093 0.56352 0.0
N116 N 0.39375 0.5567 0.6313 0.0
C117 C 0.39341 0.53326 0.61432 0.0
Co118 Co 0.79343 0.31595 0.02217 0.0
Co119 Co 0.85156 0.38977 1.00733 0.0
O120 O 0.83425 0.34559 1.00644 0.0
C121 C 0.79364 0.30186 0.95181 0.0
O122 O 0.80901 0.33148 0.94745 0.0
C123 C 0.89894 0.38598 0.04703 0.0
O124 O 0.87824 0.36875 0.06878 0.0
O125 O 0.83972 0.38845 0.05425 0.0
O126 O 0.79962 0.34122 0.06297 0.0
H127 H 0.85406 0.48787 0.03445 0.0
H128 H 0.83548 0.29433 1.00151 0.0
O129 O 0.78572 0.29079 0.98078 0.0
H130 H 0.81326 0.26577 0.11851 0.0
H131 H 0.7053 0.20986 0.04143 0.0
H132 H 0.74285 0.31991 0.0543 0.0
H133 H 0.7899 0.29212 0.09003 0.0
H134 H 0.75696 0.24803 0.02251 0.0
O135 O 0.89155 0.39466 0.02095 0.0
H136 H 0.83119 0.43194 0.0318 0.0
H137 H 0.91138 0.44225 0.98619 0.0
H138 H 0.69128 0.28256 0.07405 0.0
H139 H 0.85917 0.26777 0.02892 0.0
H140 H 0.67214 0.22709 0.06753 0.0
H141 H 0.84811 0.25335 0.08785 0.0
O142 O 0.77497 0.33745 1.00007 0.0
H143 H 0.89764 0.36506 0.91105 0.0
H144 H 0.84405 0.4189 0.94692 0.0
H145 H 0.85766 0.42035 0.88842 0.0
H146 H 0.88468 0.39332 0.87017 0.0
H147 H 0.88331 0.36393 0.96926 0.0
H148 H 0.93523 0.49825 0.98872 0.0
H149 H 0.90647 0.52143 1.01285 0.0
O150 O 0.81199 0.3862 0.99388 0.0
C151 C 0.81831 0.36858 0.07223 0.0
C152 C 0.86676 0.47804 0.02373 0.0
C153 C 0.91233 0.48388 0.99809 0.0
N154 N 0.86975 0.43382 1.00848 0.0
C155 C 0.85388 0.44639 0.02203 0.0
C156 C 0.8987 0.45214 0.99676 0.0
C157 C 0.89618 0.49686 1.01164 0.0
C158 C 0.83042 0.28791 0.02709 0.0
N159 N 0.81122 0.29457 0.04412 0.0
C160 C 0.84396 0.27298 0.04251 0.0
C161 C 0.83777 0.26493 0.07559 0.0
C162 C 0.81823 0.2719 0.09281 0.0
C163 C 0.80513 0.28688 0.07659 0.0
C164 C 0.71341 0.23397 0.04447 0.0
C165 C 0.73484 0.29581 0.05175 0.0
C166 C 0.74261 0.25567 0.03377 0.0
N167 N 0.75303 0.28614 0.03766 0.0
C168 C 0.70555 0.27477 0.06282 0.0
C169 C 0.69482 0.24365 0.05913 0.0
C170 C 0.78424 0.36495 0.99179 0.0
C171 C 0.88593 0.37698 0.91872 0.0
C172 C 0.85568 0.40696 0.93915 0.0
C173 C 0.86341 0.40794 0.906 0.0
C174 C 0.87861 0.3928 0.89578 0.0
N175 N 0.86293 0.39138 0.96149 0.0
C176 C 0.87788 0.37654 0.95167 0.0
Co177 Co 0.47409 0.80962 0.35587 0.0
Co178 Co 0.4078 0.81248 0.3445 0.0
O179 O 0.44984 0.82445 0.33341 0.0
C180 C 0.46555 0.78528 0.28804 0.0
O181 O 0.43805 0.78143 0.29083 0.0
C182 C 0.44353 0.87886 0.35494 0.0
O183 O 0.46506 0.87447 0.36705 0.0
O184 O 0.41644 0.81529 0.39253 0.0
O185 O 0.46245 0.81938 0.40012 0.0
H186 H 0.3081 0.75142 0.40415 0.0
H187 H 0.50216 0.85486 0.30208 0.0
O188 O 0.48481 0.79825 0.31149 0.0
H189 H 0.56261 0.90584 0.40117 0.0
H190 H 0.56633 0.79767 0.37013 0.0
H191 H 0.46618 0.77285 0.41581 0.0
H192 H 0.51993 0.85268 0.40388 0.0
H193 H 0.53476 0.81576 0.3427 0.0
O194 O 0.4186 0.85636 0.34461 0.0
H195 H 0.36135 0.76704 0.38984 0.0
H196 H 0.36453 0.83275 0.32244 0.0
H197 H 0.49707 0.75448 0.44419 0.0
H198 H 0.54478 0.90799 0.29818 0.0
H199 H 0.54754 0.76688 0.42133 0.0
H200 H 0.5752 0.93387 0.34803 0.0
O201 O 0.43903 0.76727 0.35888 0.0
H202 H 0.42787 0.84868 0.22714 0.0
H203 H 0.35886 0.76571 0.30176 0.0
H204 H 0.34848 0.76055 0.24212 0.0
H205 H 0.38313 0.80227 0.20436 0.0
H206 H 0.43763 0.85267 0.28694 0.0
H207 H 0.31137 0.81799 0.33617 0.0
H208 H 0.28275 0.77695 0.37719 0.0
O209 O 0.39688 0.769 0.34473 0.0
C210 C 0.43831 0.81877 0.41104 0.0
C211 C 0.32029 0.76926 0.38615 0.0
C212 C 0.32214 0.80666 0.34804 0.0
N213 N 0.36593 0.80062 0.35517 0.0
C214 C 0.35041 0.77814 0.37788 0.0
C215 C 0.35226 0.81497 0.34042 0.0
C216 C 0.3061 0.78362 0.37104 0.0
C217 C 0.51556 0.86588 0.32376 0.0
N218 N 0.5087 0.85071 0.35312 0.0
C219 C 0.53955 0.896 0.32145 0.0
C220 C 0.55659 0.91052 0.34944 0.0
C221 C 0.54953 0.89481 0.37928 0.0
C222 C 0.52533 0.86474 0.38067 0.0
C223 C 0.54441 0.79217 0.38037 0.0
C224 C 0.48821 0.77851 0.40586 0.0
C225 C 0.52643 0.8023 0.36492 0.0
N226 N 0.49881 0.79556 0.37782 0.0
C227 C 0.50555 0.76796 0.42197 0.0
C228 C 0.53386 0.7749 0.4091 0.0
C229 C 0.41071 0.75457 0.35218 0.0
C230 C 0.41257 0.83038 0.24335 0.0
C231 C 0.37407 0.78392 0.28548 0.0
C232 C 0.36804 0.78091 0.25174 0.0
C233 C 0.38748 0.80432 0.23058 0.0
N234 N 0.39879 0.8095 0.29781 0.0
C235 C 0.41791 0.83259 0.27723 0.0
Co236 Co 0.68593 0.49843 0.68942 0.0
Co237 Co 0.60837 0.45176 0.6763 0.0
O238 O 0.64714 0.48922 0.66932 0.0
C239 C 0.69644 0.49612 0.61865 0.0
O240 O 0.66956 0.47123 0.619 0.0
C241 C 0.59381 0.49777 0.70032 0.0
O242 O 0.61828 0.50871 0.7189 0.0
O243 O 0.61479 0.45422 0.72473 0.0
O244 O 0.66547 0.48364 0.73367 0.0
H245 H 0.5389 0.34844 0.72545 0.0
H246 H 0.68282 0.54585 0.64958 0.0
O247 O 0.70678 0.51192 0.64494 0.0
H248 H 0.71213 0.58926 0.76113 0.0
H249 H 0.79935 0.56305 0.70691 0.0
H250 H 0.70596 0.46749 0.73706 0.0
H251 H 0.70405 0.53798 0.74892 0.0
H252 H 0.74956 0.55027 0.68273 0.0
O253 O 0.58731 0.47599 0.68037 0.0
H254 H 0.58801 0.3957 0.71618 0.0
H255 H 0.54493 0.42885 0.65188 0.0
H256 H 0.75518 0.47945 0.76207 0.0
H257 H 0.69093 0.59734 0.6606 0.0
H258 H 0.80234 0.52756 0.747 0.0
H259 H 0.70564 0.61932 0.71674 0.0
O260 O 0.67886 0.45686 0.68069 0.0
H261 H 0.60604 0.49268 0.56431 0.0
H262 H 0.59074 0.4024 0.62659 0.0
H263 H 0.58404 0.39903 0.56632 0.0
H264 H 0.59167 0.44439 0.53478 0.0
H265 H 0.61281 0.49514 0.62458 0.0
H266 H 0.49524 0.3821 0.66078 0.0
H267 H 0.49204 0.34142 0.69765 0.0
O268 O 0.62837 0.42669 0.67298 0.0
C269 C 0.63795 0.46652 0.74374 0.0
C270 C 0.54001 0.36593 0.70919 0.0
C271 C 0.51551 0.38484 0.67293 0.0
N272 N 0.56943 0.41479 0.68312 0.0
C273 C 0.56779 0.39268 0.70373 0.0
C274 C 0.5437 0.41127 0.66801 0.0
C275 C 0.51373 0.36202 0.69362 0.0
C276 C 0.68946 0.5554 0.67399 0.0
N277 N 0.69313 0.53907 0.69853 0.0
C278 C 0.69391 0.5845 0.68012 0.0
C279 C 0.70212 0.5968 0.71164 0.0
C280 C 0.70575 0.57994 0.73656 0.0
C281 C 0.70108 0.5509 0.72953 0.0
C282 C 0.77895 0.54209 0.71379 0.0
C283 C 0.72632 0.48862 0.7307 0.0
C284 C 0.75071 0.53474 0.70018 0.0
N285 N 0.72483 0.50839 0.70891 0.0
C286 C 0.75415 0.4952 0.74479 0.0
C287 C 0.78061 0.52217 0.73628 0.0
C288 C 0.65533 0.43094 0.67548 0.0
C289 C 0.60258 0.47275 0.57779 0.0
C290 C 0.59417 0.42226 0.61302 0.0
C291 C 0.59029 0.42019 0.57891 0.0
C292 C 0.59455 0.44565 0.56123 0.0
N293 N 0.60202 0.44891 0.62907 0.0
C294 C 0.60626 0.47397 0.61192 0.0
Co295 Co 0.17287 0.65836 0.02006 0.0
Co296 Co 0.15595 0.58775 0.99122 0.0
O297 O 0.14666 0.62062 0.9958 0.0
C298 C 0.18055 0.67615 0.94959 0.0
O299 O 0.17384 0.64803 0.94401 0.0
C300 C 0.09871 0.55919 0.02978 0.0
O301 O 0.10895 0.58496 0.04583 0.0
O302 O 0.16968 0.59246 0.03786 0.0
O303 O 0.16945 0.63295 0.06035 0.0
H304 H 0.22066 0.53889 1.00494 0.0
H305 H 0.11976 0.65317 0.98367 0.0
O306 O 0.17854 0.6843 0.97895 0.0
H307 H 0.09996 0.66329 0.10047 0.0
H308 H 0.20888 0.76659 0.05448 0.0
H309 H 0.22305 0.6777 0.06864 0.0
H310 H 0.14714 0.66383 0.08382 0.0
H311 H 0.17685 0.71894 0.0237 0.0
O312 O 0.11379 0.55703 1.00589 0.0
H313 H 0.20874 0.58041 1.00926 0.0
H314 H 0.12231 0.52439 0.96445 0.0
H315 H 0.25542 0.72478 0.10009 0.0
H316 H 0.07238 0.6528 0.99913 0.0
H317 H 0.24842 0.76965 0.09308 0.0
H318 H 0.06224 0.65783 0.05793 0.0
O319 O 0.21098 0.65904 1.00723 0.0
H320 H 0.08332 0.57599 0.90052 0.0
H321 H 0.18202 0.58347 0.92696 0.0
H322 H 0.16546 0.5783 0.86906 0.0
H323 H 0.11575 0.57444 0.85555 0.0
H324 H 0.10098 0.58159 0.95808 0.0
H325 H 0.13331 0.48227 0.95963 0.0
H326 H 0.18285 0.48944 0.97986 0.0
O327 O 0.19816 0.61741 0.97701 0.0
C328 C 0.17149 0.6087 0.06273 0.0
C329 C 0.19909 0.53557 0.99582 0.0
C330 C 0.15004 0.50377 0.97047 0.0
N331 N 0.16501 0.55496 0.98678 0.0
C332 C 0.19224 0.55903 0.99812 0.0
C333 C 0.14393 0.5277 0.97328 0.0
C334 C 0.17783 0.50781 0.98181 0.0
C335 C 0.11556 0.65561 1.00925 0.0
N336 N 0.13618 0.65869 0.0328 0.0
C337 C 0.08868 0.65528 0.01788 0.0
C338 C 0.08299 0.65806 0.05088 0.0
C339 C 0.10413 0.66111 0.07477 0.0
C340 C 0.13075 0.66133 0.06522 0.0
C341 C 0.2121 0.74717 0.05779 0.0
C342 C 0.21973 0.69706 0.06565 0.0
C343 C 0.19408 0.72018 0.0404 0.0
N344 N 0.19794 0.69553 0.0446 0.0
C345 C 0.2382 0.72369 0.08343 0.0
C346 C 0.23428 0.74887 0.07946 0.0
C347 C 0.21773 0.6436 0.98791 0.0
C348 C 0.10499 0.57757 0.90611 0.0
C349 C 0.1604 0.58189 0.92125 0.0
C350 C 0.15112 0.57891 0.88844 0.0
C351 C 0.12321 0.57674 0.88088 0.0
N352 N 0.14239 0.58268 0.94585 0.0
C353 C 0.11503 0.5806 0.93864 0.0
Co354 Co 0.80854 0.4917 0.34218 0.0
Co355 Co 0.83793 0.4437 0.35341 0.0
O356 O 0.83675 0.48088 0.36266 0.0
C357 C 0.79498 0.48964 0.41282 0.0
O358 O 0.79425 0.46337 0.41248 0.0
C359 C 0.90041 0.4939 0.34112 0.0
O360 O 0.88823 0.50811 0.32589 0.0
O361 O 0.83814 0.45026 0.30523 0.0
O362 O 0.81345 0.47651 0.29782 0.0
H363 H 0.80579 0.34405 0.29648 0.0
H364 H 0.8597 0.53808 0.3823 0.0
O365 O 0.80191 0.50574 0.38658 0.0
H366 H 0.87624 0.58186 0.27066 0.0
H367 H 0.76363 0.5596 0.32442 0.0
H368 H 0.75724 0.46218 0.29465 0.0
H369 H 0.8316 0.53133 0.2827 0.0
H370 H 0.79929 0.54507 0.34867 0.0
O371 O 0.88352 0.4676 0.35364 0.0
H372 H 0.80393 0.39076 0.30893 0.0
H373 H 0.87606 0.41813 0.37802 0.0
H374 H 0.72129 0.47587 0.26958 0.0
H375 H 0.90451 0.5888 0.37145 0.0
H376 H 0.72437 0.52492 0.28446 0.0
H377 H 0.91304 0.61095 0.31525 0.0
O378 O 0.77326 0.45067 0.35087 0.0
H379 H 0.87189 0.47497 0.47017 0.0
H380 H 0.80191 0.3905 0.39774 0.0
H381 H 0.80011 0.38211 0.45768 0.0
H382 H 0.8353 0.42453 0.49433 0.0
H383 H 0.87273 0.48246 0.4101 0.0
H384 H 0.87893 0.37185 0.36606 0.0
H385 H 0.84352 0.33438 0.32512 0.0
O386 O 0.79244 0.41911 0.3528 0.0
C387 C 0.82566 0.46135 0.28686 0.0
C388 C 0.82126 0.36015 0.31445 0.0
C389 C 0.86234 0.37578 0.35348 0.0
N390 N 0.83967 0.40699 0.34439 0.0
C391 C 0.82025 0.38659 0.32169 0.0
C392 C 0.86065 0.40196 0.3601 0.0
C393 C 0.84246 0.35476 0.33051 0.0
C394 C 0.86311 0.54774 0.35788 0.0
N395 N 0.84303 0.53187 0.33319 0.0
C396 C 0.88858 0.57639 0.35185 0.0
C397 C 0.89339 0.58878 0.32029 0.0
C398 C 0.87276 0.57246 0.29525 0.0
C399 C 0.84758 0.54383 0.30218 0.0
C400 C 0.76216 0.53824 0.31761 0.0
C401 C 0.75895 0.48371 0.30091 0.0
C402 C 0.78228 0.5299 0.33126 0.0
N403 N 0.78067 0.50305 0.32261 0.0
C404 C 0.73843 0.49127 0.28679 0.0
C405 C 0.74014 0.51877 0.29519 0.0
C406 C 0.77014 0.42415 0.35283 0.0
C407 C 0.85651 0.45629 0.45445 0.0
C408 C 0.81727 0.40909 0.41353 0.0
C409 C 0.81618 0.40419 0.44745 0.0
C410 C 0.83594 0.42799 0.46799 0.0
N411 N 0.83752 0.43691 0.40043 0.0
C412 C 0.85697 0.46036 0.42041 0.0
Co413 Co 0.31855 0.80457 0.68348 0.0
Co414 Co 0.3887 0.819 0.71247 0.0
O415 O 0.35279 0.82334 0.71393 0.0
C416 C 0.29355 0.77859 0.74857 0.0
O417 O 0.31683 0.77402 0.74947 0.0
C418 C 0.41287 0.88465 0.70728 0.0
O419 O 0.39314 0.87821 0.68336 0.0
O420 O 0.39351 0.82784 0.66465 0.0
O421 O 0.34753 0.81649 0.64411 0.0
H422 H 0.45728 0.78312 0.66593 0.0
H423 H 0.32135 0.84881 0.73317 0.0
O424 O 0.2898 0.79151 0.72321 0.0
H425 H 0.32208 0.89408 0.62542 0.0
H426 H 0.21418 0.77897 0.64384 0.0
H427 H 0.30365 0.76703 0.62289 0.0
H428 H 0.31897 0.84392 0.62882 0.0
H429 H 0.25874 0.8023 0.68109 0.0
O430 O 0.41445 0.86348 0.72246 0.0
H431 H 0.41144 0.78842 0.66789 0.0
H432 H 0.44476 0.8431 0.75378 0.0
H433 H 0.25978 0.74359 0.58482 0.0
H434 H 0.32425 0.89891 0.73094 0.0
H435 H 0.21462 0.74948 0.59522 0.0
H436 H 0.32471 0.92189 0.67675 0.0
O437 O 0.31701 0.7647 0.68511 0.0
H438 H 0.36866 0.83451 0.82998 0.0
H439 H 0.38788 0.77005 0.75406 0.0
H440 H 0.37852 0.75622 0.81284 0.0
H441 H 0.36872 0.78851 0.85121 0.0
H442 H 0.37782 0.84734 0.77096 0.0
H443 H 0.49123 0.83878 0.75253 0.0
H444 H 0.4976 0.80843 0.70849 0.0
O445 O 0.3636 0.77489 0.70193 0.0
C446 C 0.37597 0.82484 0.64057 0.0
C447 C 0.4547 0.79624 0.68537 0.0
C448 C 0.47376 0.82752 0.73395 0.0
N449 N 0.42517 0.81554 0.71128 0.0
C450 C 0.4287 0.79917 0.68671 0.0
C451 C 0.44742 0.8299 0.73452 0.0
C452 C 0.47732 0.81048 0.70923 0.0
C453 C 0.32125 0.85855 0.70952 0.0
N454 N 0.31981 0.84342 0.68117 0.0
C455 C 0.32302 0.88697 0.7084 0.0
C456 C 0.32332 0.89987 0.67799 0.0
C457 C 0.32186 0.88428 0.64917 0.0
C458 C 0.32015 0.85593 0.65125 0.0
C459 C 0.23375 0.77629 0.63901 0.0
C460 C 0.28418 0.76988 0.62742 0.0
C461 C 0.25898 0.78938 0.66004 0.0
N462 N 0.28382 0.78623 0.65397 0.0
C463 C 0.25936 0.75647 0.60586 0.0
C464 C 0.23401 0.75976 0.61173 0.0
C465 C 0.33662 0.75673 0.69163 0.0
C466 C 0.37299 0.82031 0.81352 0.0
C467 C 0.38374 0.78428 0.77063 0.0
C468 C 0.37847 0.77634 0.80389 0.0
C469 C 0.37299 0.79448 0.82541 0.0
N470 N 0.38358 0.80959 0.75913 0.0
C471 C 0.37837 0.82757 0.78011 0.0
Co472 Co 0.53564 0.33452 1.01656 0.0
Co473 Co 0.56581 0.41143 0.02752 0.0
O474 O 0.53645 0.36913 0.03861 0.0
C475 C 0.53929 0.32058 0.08668 0.0
O476 O 0.56399 0.34761 0.08815 0.0
C477 C 0.50619 0.40917 0.02724 0.0
O478 O 0.49433 0.38318 1.01127 0.0
O479 O 0.5538 0.40378 0.98028 0.0
O480 O 0.54835 0.35732 0.97338 0.0
H481 H 0.64903 0.4955 0.96054 0.0
H482 H 0.48155 0.32354 0.05564 0.0
O483 O 0.52418 0.31151 0.05982 0.0
H484 H 0.44385 0.29293 0.94223 0.0
H485 H 0.49316 0.22255 0.9948 0.0
H486 H 0.57499 0.32683 0.96768 0.0
H487 H 0.49807 0.31218 0.95566 0.0
H488 H 0.49429 0.26722 0.02056 0.0
O489 O 0.53417 0.42303 0.03564 0.0
H490 H 0.61299 0.44209 0.97571 0.0
H491 H 0.58018 0.47158 0.05565 0.0
H492 H 0.57469 0.28289 0.94131 0.0
H493 H 0.42708 0.30407 0.04341 0.0
H494 H 0.53355 0.23026 0.95483 0.0
H495 H 0.40795 0.2887 0.98632 0.0
O496 O 0.57957 0.35089 0.02594 0.0
H497 H 0.54622 0.40477 0.14925 0.0
H498 H 0.62545 0.44107 0.06312 0.0
H499 H 0.64079 0.44913 0.12151 0.0
H500 H 0.60102 0.43095 0.16505 0.0
H501 H 0.53189 0.39698 0.09054 0.0
H502 H 0.6157 0.52536 0.04116 0.0
H503 H 0.65053 0.53761 0.99335 0.0
O504 O 0.59842 0.40118 0.01898 0.0
C505 C 0.55328 0.38303 0.9621 0.0
C506 C 0.63402 0.49046 0.98147 0.0
C507 C 0.61529 0.50722 0.02669 0.0
N508 N 0.59455 0.45368 1.0166 0.0
C509 C 0.61358 0.46024 0.99022 0.0
C510 C 0.59517 0.47672 0.03472 0.0
C511 C 0.63483 0.51407 0.99987 0.0
C512 C 0.47331 0.31658 0.03082 0.0
N513 N 0.4929 0.31887 1.00641 0.0
C514 C 0.44248 0.30572 0.02401 0.0
C515 C 0.43177 0.29715 0.99196 0.0
C516 C 0.45192 0.29955 0.9672 0.0
C517 C 0.4826 0.31056 0.97492 0.0
C518 C 0.51117 0.24537 0.98866 0.0
C519 C 0.55689 0.30405 0.97355 0.0
C520 C 0.51195 0.27074 1.00319 0.0
N521 N 0.53456 0.29963 0.99547 0.0
C522 C 0.5569 0.27923 0.9586 0.0
C523 C 0.53384 0.24971 0.96623 0.0
C524 C 0.60173 0.3779 0.02125 0.0
C525 C 0.56376 0.41287 0.13051 0.0
C526 C 0.60801 0.43304 0.08192 0.0
C527 C 0.61683 0.43772 0.11494 0.0
C528 C 0.59451 0.42753 0.13936 0.0
N529 N 0.5778 0.4187 0.07344 0.0
C530 C 0.55579 0.40863 0.09723 0.0
Co531 Co 0.17721 0.5068 0.34965 0.0
Co532 Co 0.18063 0.57663 0.357 0.0
O533 O 0.16676 0.53487 0.37115 0.0
C534 C 0.20189 0.51376 0.41682 0.0
O535 O 0.2124 0.54296 0.41183 0.0
C536 C 0.11407 0.54616 0.35458 0.0
O537 O 0.11533 0.52311 0.34157 0.0
O538 O 0.17055 0.56403 0.3105 0.0
O539 O 0.17044 0.51977 0.30452 0.0
H540 H 0.23758 0.66905 0.28479 0.0
H541 H 0.13098 0.48372 0.40292 0.0
O542 O 0.18552 0.49455 0.39458 0.0
H543 H 0.07649 0.42559 0.30393 0.0
H544 H 0.17543 0.40697 0.33861 0.0
H545 H 0.21308 0.50928 0.29078 0.0
H546 H 0.13153 0.46355 0.30162 0.0
H547 H 0.16295 0.44345 0.36451 0.0
O548 O 0.13851 0.57008 0.36334 0.0
H549 H 0.22012 0.61635 0.30305 0.0
H550 H 0.16989 0.62603 0.38114 0.0
H551 H 0.22588 0.47345 0.26389 0.0
H552 H 0.07598 0.44583 0.40642 0.0
H553 H 0.20701 0.42188 0.28784 0.0
H554 H 0.04834 0.41661 0.35661 0.0
O555 O 0.22107 0.53835 0.34675 0.0
H556 H 0.16105 0.56948 0.47876 0.0
H557 H 0.23585 0.6253 0.39094 0.0
H558 H 0.25007 0.64037 0.44883 0.0
H559 H 0.21253 0.61235 0.4932 0.0
H560 H 0.1479 0.55499 0.42054 0.0
H561 H 0.18684 0.67888 0.36375 0.0
H562 H 0.22105 0.70075 0.31534 0.0
O563 O 0.22236 0.58349 0.3494 0.0
C564 C 0.16861 0.5424 0.29279 0.0
C565 C 0.22286 0.65985 0.30607 0.0
C566 C 0.19432 0.66534 0.35033 0.0
N567 N 0.1943 0.61825 0.34335 0.0
C568 C 0.21296 0.63005 0.31657 0.0
C569 C 0.18478 0.63541 0.36005 0.0
C570 C 0.21352 0.6776 0.32317 0.0
C571 C 0.11917 0.47079 0.38127 0.0
N572 N 0.13443 0.47571 0.35214 0.0
C573 C 0.08801 0.44948 0.38335 0.0
C574 C 0.07251 0.43313 0.35538 0.0
C575 C 0.08828 0.43818 0.3258 0.0
C576 C 0.11943 0.45971 0.32463 0.0
C577 C 0.18373 0.42935 0.3279 0.0
C578 C 0.20461 0.4868 0.3012 0.0
C579 C 0.17679 0.45011 0.34249 0.0
N580 N 0.18706 0.47833 0.32898 0.0
C581 C 0.21202 0.46665 0.28594 0.0
C582 C 0.20144 0.43773 0.29941 0.0
C583 C 0.23504 0.56735 0.34583 0.0
C584 C 0.17757 0.58192 0.45964 0.0
C585 C 0.21939 0.61302 0.41012 0.0
C586 C 0.22756 0.62167 0.44284 0.0
C587 C 0.20647 0.60595 0.46773 0.0
N588 N 0.191 0.58941 0.4024 0.0
C589 C 0.1702 0.57392 0.42663 0.0
Co590 Co 0.65389 0.18268 0.68758 0.0
Co591 Co 0.58507 0.16846 0.7207 0.0
O592 O 0.62044 0.16304 0.71898 0.0
C593 C 0.68025 0.2046 0.7532 0.0
O594 O 0.6564 0.20789 0.75756 0.0
C595 C 0.55967 0.10301 0.71031 0.0
O596 O 0.57902 0.11048 0.68584 0.0
O597 O 0.57945 0.16301 0.67233 0.0
O598 O 0.62392 0.17193 0.64981 0.0
H599 H 0.51821 0.21009 0.68386 0.0
H600 H 0.65227 0.13687 0.73437 0.0
O601 O 0.68394 0.19466 0.72561 0.0
H602 H 0.64871 0.09509 0.62384 0.0
H603 H 0.7569 0.20958 0.64227 0.0
H604 H 0.66685 0.222 0.62865 0.0
H605 H 0.65189 0.14507 0.63039 0.0
H606 H 0.71358 0.18502 0.68099 0.0
O607 O 0.55863 0.12349 0.72744 0.0
H608 H 0.56345 0.20376 0.68209 0.0
H609 H 0.52929 0.14208 0.76267 0.0
H610 H 0.70948 0.24667 0.58916 0.0
H611 H 0.64932 0.08691 0.72898 0.0
H612 H 0.75493 0.24054 0.59588 0.0
H613 H 0.64745 0.06569 0.67339 0.0
O614 O 0.65564 0.22244 0.69191 0.0
H615 H 0.60474 0.14325 0.83455 0.0
H616 H 0.58755 0.21473 0.76786 0.0
H617 H 0.59702 0.22373 0.82747 0.0
H618 H 0.60574 0.18785 0.86121 0.0
H619 H 0.59555 0.13529 0.77482 0.0
H620 H 0.48346 0.14744 0.76508 0.0
H621 H 0.4778 0.18178 0.72559 0.0
O622 O 0.61092 0.21324 0.71356 0.0
C623 C 0.59601 0.16558 0.64745 0.0
C624 C 0.52048 0.19517 0.70131 0.0
C625 C 0.50096 0.15998 0.74687 0.0
N626 N 0.54921 0.17293 0.72256 0.0
C627 C 0.54611 0.19161 0.70053 0.0
C628 C 0.52694 0.15701 0.74536 0.0
C629 C 0.4978 0.17925 0.72471 0.0
C630 C 0.65174 0.12789 0.71011 0.0
N631 N 0.65246 0.14391 0.68273 0.0
C632 C 0.64995 0.09955 0.70721 0.0
C633 C 0.64886 0.08764 0.676 0.0
C634 C 0.64955 0.10412 0.64819 0.0
C635 C 0.65131 0.13236 0.65205 0.0
C636 C 0.7372 0.21236 0.63905 0.0
C637 C 0.68645 0.21904 0.63157 0.0
C638 C 0.71265 0.19858 0.66092 0.0
N639 N 0.68764 0.20188 0.65688 0.0
C640 C 0.71056 0.23315 0.60921 0.0
C641 C 0.73607 0.22973 0.61302 0.0
C642 C 0.63738 0.23115 0.70178 0.0
C643 C 0.60083 0.15895 0.82013 0.0
C644 C 0.59127 0.19899 0.78239 0.0
C645 C 0.59658 0.20418 0.81614 0.0
C646 C 0.60143 0.18402 0.83507 0.0
N647 N 0.59079 0.1744 0.76791 0.0
C648 C 0.59546 0.15448 0.78632 0.0
Co649 Co 0.46052 0.64763 0.02221 0.0
Co650 Co 0.39466 0.58048 0.04252 0.0
O651 O 0.43617 0.613 0.05113 0.0
C652 C 0.45465 0.67388 0.08469 0.0
O653 O 0.42554 0.6538 0.0814 0.0
C654 C 0.43031 0.55015 0.04927 0.0
O655 O 0.45106 0.57326 0.03223 0.0
O656 O 0.40534 0.57577 0.9971 0.0
O657 O 0.44652 0.62012 0.98156 0.0
H658 H 0.29774 0.5244 0.97684 0.0
H659 H 0.48976 0.63755 0.08053 0.0
O660 O 0.47347 0.67533 0.06265 0.0
H661 H 0.54481 0.62952 0.98447 0.0
H662 H 0.55447 0.74703 0.99352 0.0
H663 H 0.45183 0.66835 0.95679 0.0
H664 H 0.50344 0.6414 0.97716 0.0
H665 H 0.52245 0.70221 0.02841 0.0
O666 O 0.40553 0.54926 0.05728 0.0
H667 H 0.3506 0.5653 0.98769 0.0
H668 H 0.35032 0.52471 0.07922 0.0
H669 H 0.48314 0.7126 0.92097 0.0
H670 H 0.53117 0.62592 0.089 0.0
H671 H 0.53487 0.75234 0.93931 0.0
H672 H 0.55882 0.62158 0.04072 0.0
O673 O 0.4262 0.65527 1.01519 0.0
H674 H 0.41076 0.59323 0.16475 0.0
H675 H 0.34511 0.58816 0.07234 0.0
H676 H 0.33325 0.59752 0.12854 0.0
H677 H 0.36629 0.60024 0.17518 0.0
H678 H 0.42191 0.58413 0.1081 0.0
H679 H 0.29758 0.48305 0.06921 0.0
H680 H 0.27086 0.48287 0.01782 0.0
O681 O 0.38339 0.61058 0.02603 0.0
C682 C 0.4248 0.59279 0.97561 0.0
C683 C 0.30904 0.52434 0.99945 0.0
C684 C 0.30897 0.50111 0.05126 0.0
N685 N 0.35326 0.54776 0.03436 0.0
C686 C 0.3389 0.54756 1.00581 0.0
C687 C 0.33883 0.52475 0.0568 0.0
C688 C 0.294 0.50102 0.02242 0.0
C689 C 0.50202 0.63618 0.05945 0.0
N690 N 0.49431 0.64028 0.0284 0.0
C691 C 0.52532 0.62941 0.06437 0.0
C692 C 0.5408 0.62693 0.03727 0.0
C693 C 0.53292 0.63135 1.0057 0.0
C694 C 0.50946 0.63803 1.0017 0.0
C695 C 0.532 0.72983 0.98522 0.0
C696 C 0.47441 0.68542 0.96481 0.0
C697 C 0.51377 0.70445 1.00489 0.0
N698 N 0.48546 0.68258 0.99448 0.0
C699 C 0.49199 0.71049 0.94448 0.0
C700 C 0.52099 0.73279 0.9548 0.0
C701 C 0.39731 0.63822 1.01605 0.0
C702 C 0.39615 0.592 0.14464 0.0
C703 C 0.3595 0.58917 0.09255 0.0
C704 C 0.35267 0.59447 0.12431 0.0
C705 C 0.37121 0.59597 0.15047 0.0
N706 N 0.38406 0.58541 0.08704 0.0
C707 C 0.40224 0.58668 0.11257 0.0
H708 H 0.58638 0.16762 0.45011 0.0
H709 H 0.49615 0.15679 0.46183 0.0
H710 H 0.50049 0.15348 0.52216 0.0
H711 H 0.58172 0.11725 0.51601 0.0
H712 H 0.62085 0.14133 0.52865 0.0
H713 H 0.61015 0.14136 0.48635 0.0
H714 H 0.63266 0.19985 0.48878 0.0
H715 H 0.64349 0.20008 0.53106 0.0
H716 H 0.61968 0.21586 0.52016 0.0
H717 H 0.5146 0.15143 0.58084 0.0
H718 H 0.53821 0.15419 0.63435 0.0
H719 H 0.62086 0.16878 0.58534 0.0
C720 C 0.56734 0.16423 0.46528 0.0
C721 C 0.5407 0.16213 0.4511 0.0
C722 C 0.51668 0.15834 0.47201 0.0
C723 C 0.51893 0.15636 0.5063 0.0
C724 C 0.5455 0.15854 0.51938 0.0
C725 C 0.5694 0.16267 0.49956 0.0
C726 C 0.59604 0.16582 0.51997 0.0
C727 C 0.60256 0.13989 0.51228 0.0
C728 C 0.62466 0.19728 0.51467 0.0
C729 C 0.58338 0.16279 0.55449 0.0
C730 C 0.55408 0.15833 0.55343 0.0
C731 C 0.53753 0.15495 0.58194 0.0
C732 C 0.55129 0.15655 0.61235 0.0
C733 C 0.5816 0.16176 0.6144 0.0
C734 C 0.59771 0.16469 0.58484 0.0
H735 H 0.3941 0.58488 0.78087 0.0
H736 H 0.34104 0.48657 0.79291 0.0
H737 H 0.35694 0.49215 0.85125 0.0
H738 H 0.45679 0.59963 0.83463 0.0
H739 H 0.46038 0.63408 0.85183 0.0
H740 H 0.44596 0.62267 0.81061 0.0
H741 H 0.3969 0.62392 0.82585 0.0
H742 H 0.41141 0.63581 0.86692 0.0
H743 H 0.37455 0.60227 0.86078 0.0
H744 H 0.37944 0.50799 0.90736 0.0
H745 H 0.39976 0.53287 0.96061 0.0
H746 H 0.43615 0.62185 0.91457 0.0
C747 C 0.38582 0.56455 0.79586 0.0
C748 C 0.36639 0.5352 0.78231 0.0
C749 C 0.35573 0.50921 0.80277 0.0
C750 C 0.3649 0.51218 0.83585 0.0
C751 C 0.38438 0.54135 0.84831 0.0
C752 C 0.3942 0.56716 0.82921 0.0
C753 C 0.41339 0.59591 0.84942 0.0
C754 C 0.44607 0.61415 0.8358 0.0
C755 C 0.39815 0.61564 0.85083 0.0
C756 C 0.41294 0.58221 0.8829 0.0
C757 C 0.39643 0.55066 0.88135 0.0
C758 C 0.39225 0.53265 0.90888 0.0
C759 C 0.40405 0.54709 0.93906 0.0
C760 C 0.41963 0.57939 0.94196 0.0
C761 C 0.42484 0.5972 0.91318 0.0
H762 H 0.86484 0.45307 0.24697 0.0
H763 H 0.77606 0.44659 0.24816 0.0
H764 H 0.76407 0.4208 0.19418 0.0
H765 H 0.87748 0.4684 0.15722 0.0
H766 H 0.89712 0.44709 0.15344 0.0
H767 H 0.89897 0.4662 0.19148 0.0
H768 H 0.87884 0.41499 0.22265 0.0
H769 H 0.87626 0.39559 0.18463 0.0
H770 H 0.84303 0.38245 0.21046 0.0
H771 H 0.75931 0.38984 0.14337 0.0
H772 H 0.76612 0.3656 0.09368 0.0
H773 H 0.85977 0.39672 0.12215 0.0
C774 C 0.84318 0.44689 0.23544 0.0
C775 C 0.82142 0.452 0.25175 0.0
C776 C 0.79326 0.44336 0.236 0.0
C777 C 0.78611 0.42837 0.20546 0.0
C778 C 0.80765 0.42279 0.19054 0.0
C779 C 0.83602 0.43265 0.20449 0.0
C780 C 0.8553 0.42435 0.18294 0.0
C781 C 0.88391 0.45323 0.17053 0.0
C782 C 0.86385 0.40308 0.20127 0.0
C783 C 0.83313 0.40775 0.15506 0.0
C784 C 0.80557 0.40661 0.16025 0.0
C785 C 0.78095 0.39102 0.13882 0.0
C786 C 0.78488 0.37702 0.11088 0.0
C787 C 0.81335 0.3792 0.10428 0.0
C788 C 0.83774 0.3947 0.12672 0.0
H789 H 0.38542 0.80182 0.44571 0.0
H790 H 0.48371 0.84497 0.45781 0.0
H791 H 0.47809 0.85377 0.51666 0.0
H792 H 0.37279 0.85022 0.50061 0.0
H793 H 0.33748 0.81968 0.51688 0.0
H794 H 0.34907 0.81728 0.47558 0.0
H795 H 0.34523 0.76556 0.48933 0.0
H796 H 0.33336 0.76762 0.53057 0.0
H797 H 0.36602 0.76295 0.52405 0.0
H798 H 0.46195 0.85875 0.57369 0.0
H799 H 0.43681 0.85509 0.62642 0.0
H800 H 0.34803 0.80666 0.57879 0.0
C801 C 0.40585 0.81322 0.46067 0.0
C802 C 0.43515 0.82293 0.44691 0.0
C803 C 0.46111 0.83731 0.46762 0.0
C804 C 0.45811 0.84254 0.50107 0.0
C805 C 0.42896 0.83299 0.51363 0.0
C806 C 0.40322 0.81825 0.49419 0.0
C807 C 0.37443 0.80913 0.51416 0.0
C808 C 0.35744 0.82503 0.50102 0.0
C809 C 0.35353 0.77424 0.51455 0.0
C810 C 0.38797 0.82114 0.54799 0.0
C811 C 0.4195 0.83506 0.54689 0.0
C812 C 0.4373 0.84778 0.57481 0.0
C813 C 0.42263 0.84556 0.60478 0.0
C814 C 0.39024 0.83045 0.60713 0.0
C815 C 0.37275 0.81857 0.578 0.0
H816 H 0.5389 0.40906 0.90986 0.0
H817 H 0.60208 0.37983 0.94168 0.0
H818 H 0.63259 0.40161 0.89135 0.0
H819 H 0.54067 0.39019 0.82287 0.0
H820 H 0.53735 0.42192 0.80787 0.0
H821 H 0.5209 0.4048 0.84697 0.0
H822 H 0.55185 0.45776 0.8748 0.0
H823 H 0.56881 0.47489 0.83584 0.0
H824 H 0.59283 0.47895 0.8705 0.0
H825 H 0.65842 0.42971 0.83972 0.0
H826 H 0.67235 0.45297 0.78441 0.0
H827 H 0.58995 0.45923 0.78202 0.0
C828 C 0.55891 0.40693 0.90585 0.0
C829 C 0.568 0.3925 0.92945 0.0
C830 C 0.5944 0.39025 0.92358 0.0
C831 C 0.6121 0.4029 0.89526 0.0
C832 C 0.60283 0.41726 0.87258 0.0
C833 C 0.5764 0.41859 0.87698 0.0
C834 C 0.57074 0.43367 0.84756 0.0
C835 C 0.54063 0.41131 0.83029 0.0
C836 C 0.57108 0.46306 0.8578 0.0
C837 C 0.5982 0.44075 0.82624 0.0
C838 C 0.61677 0.43173 0.84157 0.0
C839 C 0.64393 0.43661 0.8273 0.0
C840 C 0.65183 0.45013 0.796 0.0
C841 C 0.63232 0.45795 0.77897 0.0
C842 C 0.60533 0.45349 0.79454 0.0
H843 H 0.16093 0.58565 0.25954 0.0
H844 H 0.17278 0.50735 0.24344 0.0
H845 H 0.1756 0.51685 0.18354 0.0
H846 H 0.11404 0.57481 0.18683 0.0
H847 H 0.13116 0.61518 0.17914 0.0
H848 H 0.12881 0.60145 0.22058 0.0
H849 H 0.18729 0.63647 0.22701 0.0
H850 H 0.1899 0.65006 0.18547 0.0
H851 H 0.21257 0.63342 0.19801 0.0
H852 H 0.18011 0.5364 0.12609 0.0
H853 H 0.18143 0.56127 0.07401 0.0
H854 H 0.16563 0.62709 0.1261 0.0
C855 C 0.16372 0.57016 0.24349 0.0
C856 C 0.16658 0.54559 0.25648 0.0
C857 C 0.17034 0.52614 0.23435 0.0
C858 C 0.17214 0.53148 0.20023 0.0
C859 C 0.16996 0.55627 0.18848 0.0
C860 C 0.16545 0.57508 0.20937 0.0
C861 C 0.16403 0.60028 0.19033 0.0
C862 C 0.13264 0.59777 0.19447 0.0
C863 C 0.18999 0.63193 0.20084 0.0
C864 C 0.16862 0.5928 0.15533 0.0
C865 C 0.17214 0.5674 0.15506 0.0
C866 C 0.1771 0.55611 0.12602 0.0
C867 C 0.17784 0.57061 0.09641 0.0
C868 C 0.17344 0.59625 0.09553 0.0
C869 C 0.16912 0.60766 0.12569 0.0
H870 H 0.75293 0.36353 0.3512 0.0
H871 H 0.71677 0.42512 0.3598 0.0
H872 H 0.66456 0.38093 0.36254 0.0
H873 H 0.69416 0.30928 0.29935 0.0
H874 H 0.6935 0.27669 0.31817 0.0
H875 H 0.72823 0.31315 0.31812 0.0
H876 H 0.73131 0.31089 0.38164 0.0
H877 H 0.69661 0.27438 0.38191 0.0
H878 H 0.69931 0.30535 0.40631 0.0
H879 H 0.61659 0.33056 0.36334 0.0
H880 H 0.57544 0.27688 0.36193 0.0
H881 H 0.64306 0.24828 0.35223 0.0
C882 C 0.7341 0.36781 0.35387 0.0
C883 C 0.73896 0.39779 0.35533 0.0
C884 C 0.71363 0.40235 0.35861 0.0
C885 C 0.68389 0.37742 0.36023 0.0
C886 C 0.67996 0.34822 0.3585 0.0
C887 C 0.70432 0.34327 0.3554 0.0
C888 C 0.69379 0.3096 0.35334 0.0
C889 C 0.70296 0.30173 0.32027 0.0
C890 C 0.70598 0.29947 0.38255 0.0
C891 C 0.65964 0.29641 0.35563 0.0
C892 C 0.65218 0.31907 0.3587 0.0
C893 C 0.62208 0.31256 0.36102 0.0
C894 C 0.5989 0.28197 0.36019 0.0
C895 C 0.60601 0.25831 0.35696 0.0
C896 C 0.63684 0.26577 0.35469 0.0
H897 H 0.37385 0.73535 0.67436 0.0
H898 H 0.27977 0.70618 0.69909 0.0
H899 H 0.26679 0.65208 0.69467 0.0
H900 H 0.35699 0.67447 0.61509 0.0
H901 H 0.39 0.67213 0.6274 0.0
H902 H 0.39065 0.70798 0.63002 0.0
H903 H 0.40481 0.71196 0.69192 0.0
H904 H 0.4042 0.67621 0.6895 0.0
H905 H 0.38067 0.68115 0.71931 0.0
H906 H 0.26625 0.60145 0.6931 0.0
H907 H 0.27764 0.55922 0.69248 0.0
H908 H 0.37176 0.62392 0.66638 0.0
C909 C 0.35046 0.71763 0.67859 0.0
C910 C 0.32783 0.72468 0.68726 0.0
C911 C 0.29737 0.70097 0.69231 0.0
C912 C 0.28983 0.67033 0.68983 0.0
C913 C 0.31297 0.66416 0.68165 0.0
C914 C 0.34257 0.68727 0.67572 0.0
C915 C 0.36368 0.67512 0.66853 0.0
C916 C 0.37604 0.68288 0.63315 0.0
C917 C 0.38986 0.68679 0.69383 0.0
C918 C 0.34163 0.64151 0.67251 0.0
C919 C 0.31243 0.6354 0.67986 0.0
C920 C 0.2889 0.6059 0.68681 0.0
C921 C 0.2956 0.58213 0.68648 0.0
C922 C 0.32557 0.58827 0.67932 0.0
C923 C 0.34854 0.61829 0.67172 0.0
H924 H 0.61714 0.33374 1.012 0.0
H925 H 0.65534 0.4321 1.01417 0.0
H926 H 0.70545 0.43937 0.99791 0.0
H927 H 0.68053 0.33243 0.04576 0.0
H928 H 0.67593 0.30144 0.01997 0.0
H929 H 0.64331 0.30498 0.03021 0.0
H930 H 0.63216 0.30463 0.96768 0.0
H931 H 0.66567 0.30235 0.95768 0.0
H932 H 0.66107 0.33286 0.94113 0.0
H933 H 0.75196 0.43603 0.98504 0.0
H934 H 0.79225 0.42227 0.98229 0.0
H935 H 0.72284 0.3262 0.98623 0.0
C936 C 0.63599 0.35683 1.00909 0.0
C937 C 0.63227 0.3823 1.0144 0.0
C938 C 0.6576 0.41216 1.01028 0.0
C939 C 0.6861 0.41657 1.00073 0.0
C940 C 0.68878 0.39092 0.99505 0.0
C941 C 0.66446 0.36165 0.99927 0.0
C942 C 0.6737 0.33796 0.99337 0.0
C943 C 0.66805 0.31807 0.02418 0.0
C944 C 0.65717 0.3183 0.96316 0.0
C945 C 0.70738 0.35854 0.98671 0.0
C946 C 0.71555 0.38899 0.9871 0.0
C947 C 0.74585 0.41227 0.98425 0.0
C948 C 0.76858 0.40421 0.98262 0.0
C949 C 0.76074 0.37315 0.98428 0.0
C950 C 0.72964 0.35014 0.98473 0.0
H951 H 0.36978 0.72251 0.30525 0.0
H952 H 0.41335 0.71245 0.39228 0.0
H953 H 0.37882 0.65637 0.39023 0.0
H954 H 0.29888 0.67633 0.32698 0.0
H955 H 0.28424 0.66042 0.28692 0.0
H956 H 0.31757 0.69735 0.29017 0.0
H957 H 0.34714 0.67875 0.25376 0.0
H958 H 0.31369 0.64131 0.2511 0.0
H959 H 0.34925 0.64557 0.26581 0.0
H960 H 0.33219 0.60522 0.38723 0.0
H961 H 0.27766 0.56512 0.38478 0.0
H962 H 0.2654 0.60832 0.29892 0.0
C963 C 0.37244 0.70832 0.32337 0.0
C964 C 0.39357 0.72136 0.34919 0.0
C965 C 0.39703 0.70251 0.37236 0.0
C966 C 0.37775 0.67074 0.37115 0.0
C967 C 0.35598 0.6585 0.34607 0.0
C968 C 0.35365 0.67682 0.32226 0.0
C969 C 0.32561 0.65933 0.30116 0.0
C970 C 0.30541 0.67424 0.30141 0.0
C971 C 0.33447 0.65604 0.26587 0.0
C972 C 0.31075 0.6291 0.31894 0.0
C973 C 0.32911 0.62851 0.34395 0.0
C974 C 0.31806 0.60487 0.36704 0.0
C975 C 0.28716 0.5822 0.36551 0.0
C976 C 0.26801 0.58394 0.34141 0.0
C977 C 0.28018 0.60657 0.31701 0.0
H978 H 0.61063 0.37139 0.68084 0.0
H979 H 0.70867 0.42963 0.6687 0.0
H980 H 0.71495 0.38438 0.67329 0.0
H981 H 0.61475 0.32527 0.74242 0.0
H982 H 0.58169 0.29063 0.72858 0.0
H983 H 0.58452 0.32697 0.72076 0.0
H984 H 0.57739 0.3153 0.65826 0.0
H985 H 0.57409 0.27871 0.66592 0.0
H986 H 0.60229 0.30494 0.63732 0.0
H987 H 0.71038 0.33288 0.68128 0.0
H988 H 0.69534 0.27904 0.69171 0.0
H989 H 0.60082 0.25644 0.70229 0.0
C990 C 0.63342 0.37471 0.67858 0.0
C991 C 0.65915 0.404 0.67433 0.0
C992 C 0.68861 0.40732 0.67191 0.0
C993 C 0.69241 0.38181 0.6745 0.0
C994 C 0.66655 0.35337 0.67971 0.0
C995 C 0.63765 0.34973 0.68166 0.0
C996 C 0.61375 0.31716 0.68927 0.0
C997 C 0.59775 0.31489 0.72222 0.0
C998 C 0.59052 0.30321 0.661 0.0
C999 C 0.63376 0.303 0.69151 0.0
C1000 C 0.66409 0.32412 0.68563 0.0
C1001 C 0.68671 0.31612 0.68593 0.0
C1002 C 0.67796 0.28556 0.69195 0.0
C1003 C 0.64692 0.26361 0.69794 0.0
C1004 C 0.62473 0.27267 0.69807 0.0
H1005 H 0.24238 0.61413 0.95546 0.0
H1006 H 0.26635 0.6994 1.0044 0.0
H1007 H 0.32041 0.71335 1.00413 0.0
H1008 H 0.2807 0.59512 1.00195 0.0
H1009 H 0.2945 0.57836 0.97236 0.0
H1010 H 0.2605 0.57969 0.96381 0.0
H1011 H 0.28315 0.60883 0.90955 0.0
H1012 H 0.31731 0.6069 0.91699 0.0
H1013 H 0.31993 0.64326 0.90965 0.0
H1014 H 0.36786 0.71166 1.01278 0.0
H1015 H 0.40413 0.69436 0.02843 0.0
H1016 H 0.34874 0.60966 0.97607 0.0
C1017 C 0.25916 0.63635 0.96476 0.0
C1018 C 0.25019 0.65547 0.98026 0.0
C1019 C 0.27272 0.68425 0.99254 0.0
C1020 C 0.30357 0.69252 0.99225 0.0
C1021 C 0.31146 0.67198 0.97919 0.0
C1022 C 0.2899 0.64467 0.96503 0.0
C1023 C 0.30278 0.62393 0.95863 0.0
C1024 C 0.2835 0.59248 0.97523 0.0
C1025 C 0.30599 0.62055 0.9215 0.0
C1026 C 0.33366 0.64237 0.97464 0.0
C1027 C 0.33891 0.6706 0.98503 0.0
C1028 C 0.36444 0.69003 1.00391 0.0
C1029 C 0.38475 0.68002 1.01289 0.0
C1030 C 0.37867 0.65061 1.00369 0.0
C1031 C 0.3535 0.63212 0.98355 0.0
H1032 H 0.53964 0.06091 0.35691 0.0
H1033 H 0.45309 0.05939 0.35669 0.0
H1034 H 0.42558 0.00316 0.35303 0.0
H1035 H 0.51792 -0.00304 0.30134 0.0
H1036 H 0.53857 0.98241 0.324 0.0
H1037 H 0.55163 0.02271 0.32431 0.0
H1038 H 0.54969 0.02192 0.38805 0.0
H1039 H 0.5366 0.98165 0.3879 0.0
H1040 H 0.51461 0.99568 0.40865 0.0
H1041 H 0.40745 0.94736 0.34949 0.0
H1042 H 0.39972 0.89514 0.35023 0.0
H1043 H 0.49785 0.93273 0.35619 0.0
C1044 C 0.51492 0.04869 0.35572 0.0
C1045 C 0.49843 0.06437 0.35686 0.0
C1046 C 0.4661 0.04771 0.35587 0.0
C1047 C 0.45029 0.01583 0.35366 0.0
C1048 C 0.46716 0.00098 0.35285 0.0
C1049 C 0.49873 0.01679 0.35412 0.0
C1050 C 0.51123 0.99516 0.35479 0.0
C1051 C 0.531 -0.00042 0.32429 0.0
C1052 C 0.52908 -0.00117 0.38675 0.0
C1053 C 0.48174 0.96478 0.35381 0.0
C1054 C 0.45662 0.96867 0.35225 0.0
C1055 C 0.42692 0.94398 0.35079 0.0
C1056 C 0.42276 0.91446 0.35116 0.0
C1057 C 0.44817 0.90998 0.35347 0.0
C1058 C 0.478 0.9355 0.35471 0.0
H1059 H 0.44889 0.51243 0.65647 0.0
H1060 H 0.42806 0.50304 0.76073 0.0
H1061 H 0.47593 0.50259 0.7723 0.0
H1062 H 0.4792 0.46068 0.65642 0.0
H1063 H 0.50751 0.48226 0.62556 0.0
H1064 H 0.47201 0.48243 0.6262 0.0
H1065 H 0.50227 0.54158 0.6291 0.0
H1066 H 0.53785 0.54153 0.62921 0.0
H1067 H 0.52938 0.56018 0.6619 0.0
H1068 H 0.52771 0.50668 0.77239 0.0
H1069 H 0.5745 0.50438 0.76046 0.0
H1070 H 0.55872 0.50634 0.65585 0.0
C1071 C 0.45435 0.50993 0.68166 0.0
C1072 C 0.43509 0.50775 0.70778 0.0
C1073 C 0.44258 0.5044 0.74046 0.0
C1074 C 0.4698 0.50447 0.74724 0.0
C1075 C 0.48874 0.50734 0.72095 0.0
C1076 C 0.48093 0.50913 0.68874 0.0
C1077 C 0.50429 0.51017 0.66482 0.0
C1078 C 0.48989 0.48222 0.64191 0.0
C1079 C 0.51933 0.54015 0.6451 0.0
C1080 C 0.52662 0.5089 0.68859 0.0
C1081 C 0.51762 0.50797 0.72089 0.0
C1082 C 0.53491 0.50723 0.74721 0.0
C1083 C 0.56156 0.50627 0.74025 0.0
C1084 C 0.57006 0.50543 0.7073 0.0
C1085 C 0.55265 0.5072 0.68123 0.0
H1086 H 0.94605 0.40291 1.00529 0.0
H1087 H 0.92424 0.40867 0.10709 0.0
H1088 H 0.97684 0.45134 0.11594 0.0
H1089 H 0.03058 0.42862 0.01816 0.0
H1090 H 0.04004 0.44939 0.97987 0.0
H1091 H 0.0039 0.41459 0.98437 0.0
H1092 H 0.97621 0.44374 0.96695 0.0
H1093 H 0.01194 0.47884 0.96354 0.0
H1094 H 0.98246 0.4767 0.9902 0.0
H1095 H 0.02651 0.50059 0.10959 0.0
H1096 H 0.07267 0.54769 0.09099 0.0
H1097 H 0.06189 0.50887 0.99344 0.0
C1098 C 0.95296 0.41209 0.02987 0.0
C1099 C 0.93147 0.40245 0.05561 0.0
C1100 C 0.94072 0.41537 0.0873 0.0
C1101 C 0.97045 0.43979 0.09242 0.0
C1102 C 0.99053 0.45035 0.06576 0.0
C1103 C 0.98243 0.43627 0.03532 0.0
C1104 C 0.00654 0.454 1.00964 0.0
C1105 C 0.02114 0.43555 0.99729 0.0
C1106 C 0.99349 0.4639 0.98092 0.0
C1107 C 0.02879 0.48104 0.0299 0.0
C1108 C 0.01933 0.47855 0.06224 0.0
C1109 C 0.03461 0.50238 0.0846 0.0
C1110 C 0.06053 0.52915 0.07372 0.0
C1111 C 0.0708 0.53171 0.04086 0.0
C1112 C 0.05477 0.50728 0.01885 0.0
H1113 H 0.05762 0.4954 0.35674 0.0
H1114 H 0.1039 0.59438 0.35617 0.0
H1115 H 0.0539 0.59209 0.35374 0.0
H1116 H -0.00084 0.48208 0.3011 0.0
H1117 H 0.9698 0.44914 0.32236 0.0
H1118 H 0.00907 0.45865 0.3257 0.0
H1119 H 0.00591 0.46013 0.38925 0.0
H1120 H 0.9665 0.45034 0.38615 0.0
H1121 H 0.99339 0.4842 0.40812 0.0
H1122 H -0.00114 0.57857 0.34603 0.0
H1123 H 0.94277 0.5549 0.33982 0.0
H1124 H 0.93319 0.46509 0.34878 0.0
C1125 C 0.05721 0.5166 0.35645 0.0
C1126 C 0.08449 0.54506 0.35651 0.0
C1127 C 0.08315 0.57233 0.3563 0.0
C1128 C 0.05491 0.57125 0.35479 0.0
C1129 C 0.02838 0.54275 0.35409 0.0
C1130 C 0.02931 0.51593 0.35551 0.0
C1131 C -0.00237 0.48823 0.35437 0.0
C1132 C 0.9937 0.46837 0.32408 0.0
C1133 C 0.99044 0.46964 0.38639 0.0
C1134 C 0.97872 0.50362 0.3514 0.0
C1135 C -0.00319 0.53505 0.35106 0.0
C1136 C 0.98442 0.554 0.34676 0.0
C1137 C 0.95265 0.5404 0.34306 0.0
C1138 C 0.93379 0.50826 0.3441 0.0
C1139 C 0.94707 0.48976 0.34837 0.0
H1140 H 0.53056 0.05785 0.66558 0.0
H1141 H 0.54042 0.0761 0.77039 0.0
H1142 H 0.50439 0.0213 0.7816 0.0
H1143 H 0.44996 0.00524 0.66852 0.0
H1144 H 0.45083 0.98127 0.63627 0.0
H1145 H 0.47875 0.02137 0.63688 0.0
H1146 H 0.52236 0.00854 0.63613 0.0
H1147 H 0.49458 0.9684 0.63551 0.0
H1148 H 0.52334 0.98362 0.66724 0.0
H1149 H 0.46918 0.96398 0.78079 0.0
H1150 H 0.43268 0.9096 0.76806 0.0
H1151 H 0.44215 0.93099 0.66391 0.0
C1152 C 0.52526 0.05018 0.69086 0.0
C1153 C 0.53833 0.07076 0.7172 0.0
C1154 C 0.53052 0.06035 0.74999 0.0
C1155 C 0.51025 0.02939 0.75654 0.0
C1156 C 0.49765 0.00956 0.72993 0.0
C1157 C 0.50449 0.01965 0.69776 0.0
C1158 C 0.48655 0.99421 0.67354 0.0
C1159 C 0.46526 0.00093 0.65258 0.0
C1160 C 0.50799 0.98835 0.65184 0.0
C1161 C 0.4687 0.96811 0.69709 0.0
C1162 C 0.47576 0.97723 0.72951 0.0
C1163 C 0.46316 0.95664 0.75554 0.0
C1164 C 0.4426 0.92594 0.74814 0.0
C1165 C 0.43451 0.91658 0.71513 0.0
C1166 C 0.44764 0.93789 0.68939 0.0
H1167 H 0.48399 0.55113 0.05541 0.0
H1168 H 0.38599 0.48981 0.05365 0.0
H1169 H 0.39421 0.44549 0.05172 0.0
H1170 H 0.50298 0.51334 0.99912 0.0
H1171 H 0.53764 0.52006 0.01909 0.0
H1172 H 0.52395 0.54633 0.02504 0.0
H1173 H 0.52356 0.53917 0.08823 0.0
H1174 H 0.53775 0.51318 0.08254 0.0
H1175 H 0.50309 0.50128 0.10549 0.0
H1176 H 0.414 0.40871 0.04117 0.0
H1177 H 0.4435 0.38266 0.02946 0.0
H1178 H 0.52788 0.469 0.04054 0.0
C1179 C 0.46426 0.52833 0.05554 0.0
C1180 C 0.43441 0.52373 0.05475 0.0
C1181 C 0.40907 0.49367 0.05467 0.0
C1182 C 0.41353 0.46843 0.0534 0.0
C1183 C 0.44342 0.47382 0.05289 0.0
C1184 C 0.46831 0.50308 0.05471 0.0
C1185 C 0.4981 0.50316 0.05204 0.0
C1186 C 0.51674 0.52182 0.02204 0.0
C1187 C 0.51671 0.51488 0.08399 0.0
C1188 C 0.48618 0.46949 0.04733 0.0
C1189 C 0.45463 0.45279 0.04786 0.0
C1190 C 0.43872 0.42148 0.04143 0.0
C1191 C 0.45559 0.40692 0.03459 0.0
C1192 C 0.48791 0.42377 0.03448 0.0
C1193 C 0.50319 0.45536 0.04109 0.0
H1194 H 0.56842 0.25271 0.25108 0.0
H1195 H 0.47052 0.19322 0.26039 0.0
H1196 H 0.46285 0.21495 0.2088 0.0
H1197 H 0.56487 0.31818 0.22219 0.0
H1198 H 0.59723 0.33073 0.19517 0.0
H1199 H 0.59457 0.30965 0.23195 0.0
H1200 H 0.59989 0.26973 0.1971 0.0
H1201 H 0.60251 0.29063 0.1602 0.0
H1202 H 0.57376 0.25089 0.16357 0.0
H1203 H 0.46689 0.24204 0.15367 0.0
H1204 H 0.48163 0.2753 0.10422 0.0
H1205 H 0.57644 0.31957 0.13479 0.0
C1206 C 0.54533 0.24413 0.24222 0.0
C1207 C 0.52004 0.22101 0.25949 0.0
C1208 C 0.49019 0.21086 0.24745 0.0
C1209 C 0.48567 0.22302 0.21815 0.0
C1210 C 0.51122 0.24573 0.20158 0.0
C1211 C 0.54043 0.25647 0.21358 0.0
C1212 C 0.56407 0.2818 0.19216 0.0
C1213 C 0.58118 0.31187 0.21153 0.0
C1214 C 0.58636 0.2727 0.17739 0.0
C1215 C 0.54373 0.28356 0.16594 0.0
C1216 C 0.51334 0.26234 0.17143 0.0
C1217 C 0.49059 0.25895 0.14944 0.0
C1218 C 0.49915 0.27785 0.12138 0.0
C1219 C 0.5301 0.30024 0.11589 0.0
C1220 C 0.55253 0.30302 0.13859 0.0
H1221 H 0.2494 0.54988 0.45711 0.0
H1222 H 0.17582 0.45642 0.44577 0.0
H1223 H 0.19202 0.4425 0.4977 0.0
H1224 H 0.30498 0.53176 0.48745 0.0
H1225 H 0.32209 0.56401 0.51494 0.0
H1226 H 0.30396 0.56597 0.47761 0.0
H1227 H 0.26904 0.57969 0.5114 0.0
H1228 H 0.28707 0.57777 0.54882 0.0
H1229 H 0.24621 0.55485 0.54434 0.0
H1230 H 0.21654 0.44021 0.55361 0.0
H1231 H 0.24813 0.44904 0.6038 0.0
H1232 H 0.30624 0.54345 0.57452 0.0
C1233 C 0.23649 0.52643 0.46548 0.0
C1234 C 0.2111 0.50428 0.44746 0.0
C1235 C 0.19528 0.4738 0.45918 0.0
C1236 C 0.20432 0.46575 0.4887 0.0
C1237 C 0.22947 0.48834 0.50594 0.0
C1238 C 0.24542 0.51801 0.49437 0.0
C1239 C 0.27206 0.53815 0.51651 0.0
C1240 C 0.30257 0.5507 0.49802 0.0
C1241 C 0.26836 0.56414 0.53113 0.0
C1242 C 0.26869 0.51538 0.54264 0.0
C1243 C 0.24392 0.48677 0.53653 0.0
C1244 C 0.23612 0.46251 0.55832 0.0
C1245 C 0.25414 0.4677 0.5868 0.0
C1246 C 0.27989 0.49682 0.59301 0.0
C1247 C 0.28702 0.52076 0.57043 0.0
H1248 H 0.73496 0.2595 0.93619 0.0
H1249 H 0.82786 0.30245 0.90006 0.0
H1250 H 0.80919 0.27595 0.84663 0.0
H1251 H 0.70273 0.18608 0.8895 0.0
H1252 H 0.66754 0.18575 0.88128 0.0
H1253 H 0.68855 0.20293 0.91853 0.0
H1254 H 0.68995 0.2534 0.9036 0.0
H1255 H 0.66913 0.23641 0.86636 0.0
H1256 H 0.70548 0.27127 0.86447 0.0
H1257 H 0.7797 0.24822 0.79516 0.0
H1258 H 0.74216 0.2259 0.74954 0.0
H1259 H 0.66883 0.20494 0.81843 0.0
C1260 C 0.75134 0.26223 0.91742 0.0
C1261 C 0.78288 0.2821 0.92243 0.0
C1262 C 0.80366 0.28663 0.89681 0.0
C1263 C 0.79325 0.27169 0.86643 0.0
C1264 C 0.76188 0.25272 0.86185 0.0
C1265 C 0.74121 0.24814 0.88664 0.0
C1266 C 0.70865 0.23027 0.87411 0.0
C1267 C 0.69082 0.19942 0.89192 0.0
C1268 C 0.69237 0.24896 0.87732 0.0
C1269 C 0.71423 0.22599 0.83839 0.0
C1270 C 0.74499 0.23845 0.83185 0.0
C1271 C 0.75553 0.23815 0.80011 0.0
C1272 C 0.7341 0.22537 0.77435 0.0
C1273 C 0.70264 0.21371 0.78044 0.0
C1274 C 0.69274 0.21362 0.81301 0.0
H1275 H 0.41779 0.67804 0.13072 0.0
H1276 H 0.51342 0.71567 0.10589 0.0
H1277 H 0.52786 0.7482 0.156 0.0
H1278 H 0.42335 0.74692 0.16004 0.0
H1279 H 0.39537 0.72797 0.19199 0.0
H1280 H 0.39347 0.70781 0.15481 0.0
H1281 H 0.39457 0.66538 0.18937 0.0
H1282 H 0.39695 0.68554 0.22673 0.0
H1283 H 0.42553 0.67528 0.2178 0.0
H1284 H 0.53085 0.77657 0.21131 0.0
H1285 H 0.52183 0.79846 0.26208 0.0
H1286 H 0.42414 0.74197 0.24705 0.0
C1287 C 0.44187 0.69307 0.1356 0.0
C1288 C 0.46447 0.69419 0.1142 0.0
C1289 C 0.49565 0.71437 0.12181 0.0
C1290 C 0.50403 0.73288 0.1503 0.0
C1291 C 0.48098 0.73107 0.17088 0.0
C1292 C 0.45052 0.71165 0.16355 0.0
C1293 C 0.42977 0.71385 0.18882 0.0
C1294 C 0.4093 0.7248 0.17296 0.0
C1295 C 0.41058 0.68319 0.20673 0.0
C1296 C 0.45315 0.73776 0.21157 0.0
C1297 C 0.48265 0.74739 0.2013 0.0
C1298 C 0.50777 0.76918 0.21931 0.0
C1299 C 0.50249 0.78149 0.24816 0.0
C1300 C 0.47232 0.77226 0.25846 0.0
C1301 C 0.44756 0.74996 0.23979 0.0
H1302 H 0.6954 0.45523 0.57503 0.0
H1303 H 0.74093 0.55232 0.59501 0.0
H1304 H 0.77123 0.5623 0.54359 0.0
H1305 H 0.76198 0.45498 0.54506 0.0
H1306 H 0.74085 0.4256 0.51507 0.0
H1307 H 0.72252 0.42694 0.55248 0.0
H1308 H 0.68015 0.42884 0.51838 0.0
H1309 H 0.69838 0.42757 0.48087 0.0
H1310 H 0.69066 0.45823 0.48774 0.0
H1311 H 0.79453 0.56067 0.48697 0.0
H1312 H 0.81214 0.54748 0.43563 0.0
H1313 H 0.75369 0.45135 0.45746 0.0
C1314 C 0.71162 0.47867 0.56855 0.0
C1315 C 0.71555 0.50308 0.58871 0.0
C1316 C 0.73751 0.53332 0.57977 0.0
C1317 C 0.7547 0.53915 0.55059 0.0
C1318 C 0.75005 0.51441 0.5311 0.0
C1319 C 0.72932 0.48475 0.54017 0.0
C1320 C 0.72924 0.46188 0.51622 0.0
C1321 C 0.73925 0.44114 0.53322 0.0
C1322 C 0.69774 0.44303 0.49984 0.0
C1323 C 0.75296 0.48317 0.49187 0.0
C1324 C 0.76453 0.51343 0.5004 0.0
C1325 C 0.78584 0.53702 0.48041 0.0
C1326 C 0.79566 0.52937 0.45127 0.0
C1327 C 0.78461 0.49844 0.44285 0.0
C1328 C 0.763 0.47523 0.46353 0.0
H1329 H 0.22163 0.67655 0.90754 0.0
H1330 H 0.1741 0.72553 0.93007 0.0
H1331 H 0.19684 0.75766 0.87994 0.0
H1332 H 0.2913 0.74158 0.87763 0.0
H1333 H 0.29691 0.71909 0.84708 0.0
H1334 H 0.27732 0.70158 0.88485 0.0
H1335 H 0.231 0.66117 0.85134 0.0
H1336 H 0.25024 0.67877 0.81348 0.0
H1337 H 0.21291 0.67355 0.82172 0.0
H1338 H 0.2237 0.78211 0.82299 0.0
H1339 H 0.25494 0.79898 0.77168 0.0
H1340 H 0.28448 0.73348 0.79069 0.0
C1341 C 0.21607 0.69417 0.90212 0.0
C1342 C 0.19592 0.69843 0.92251 0.0
C1343 C 0.18958 0.72198 0.9148 0.0
C1344 C 0.20227 0.74015 0.88627 0.0
C1345 C 0.22155 0.7347 0.86615 0.0
C1346 C 0.22871 0.7125 0.87436 0.0
C1347 C 0.25005 0.71078 0.84962 0.0
C1348 C 0.2807 0.71874 0.86576 0.0
C1349 C 0.23515 0.6792 0.83307 0.0
C1350 C 0.25372 0.73522 0.82567 0.0
C1351 C 0.23711 0.74883 0.83514 0.0
C1352 C 0.2369 0.77164 0.81571 0.0
C1353 C 0.25452 0.78096 0.78647 0.0
C1354 C 0.27229 0.76769 0.77719 0.0
C1355 C 0.27142 0.74437 0.79711 0.0
loop_
_geom_bond_atom_site_label_1
_geom_bond_atom_site_label_2
_geom_bond_distance
_geom_bond_site_symmetry_2
_ccdc_geom_bond_type
Co0 O2 2.143 . S
Co0 O8 2.074 . S
Co0 O11 2.093 . S
Co0 O24 2.097 . S
Co0 N41 2.151 . S
Co0 N49 2.214 . S
Co1 O2 2.160 . S
Co1 O7 2.058 . S
Co1 O17 2.057 . S
Co1 O32 2.037 . S
Co1 N36 2.145 . S
Co1 N57 2.257 . S
O2 Co0 2.143 . S
O2 Co1 2.160 . S
C3 O4 1.278 . S
C3 O11 1.224 . S
O4 C3 1.278 . S
C5 O6 1.245 . S
C5 O17 1.232 . S
O6 C5 1.245 . S
O7 Co1 2.058 . S
O7 C33 1.269 . S
O8 Co0 2.074 . S
O8 C33 1.257 . S
H9 C34 0.930 . S
H10 C40 0.930 . S
O11 Co0 2.093 . S
O11 C3 1.224 . S
H12 C44 0.929 . S
H13 C46 0.930 . S
H14 C47 0.930 . S
H15 C45 0.929 . S
H16 C48 0.928 . S
O17 Co1 2.057 . S
O17 C5 1.232 . S
H18 C37 0.929 . S
H19 C38 0.929 . S
H20 C50 0.931 . S
H21 C42 0.929 . S
H22 C51 0.930 . S
H23 C43 0.931 . S
O24 Co0 2.097 . S
O24 C52 1.214 . S
H25 C53 0.929 . S
H26 C54 0.929 . S
H27 C55 0.930 . S
H28 C56 0.929 . S
H29 C58 0.930 . S
H30 C35 0.930 . S
H31 C39 0.930 . S
O32 Co1 2.037 . S
O32 C52 1.234 . S
C33 O7 1.269 . S
C33 O8 1.257 . S
C34 H9 0.930 . S
C34 C37 1.388 . S
C34 C39 1.418 . S
C35 H30 0.930 . S
C35 C38 1.404 . S
C35 C39 1.353 . S
N36 Co1 2.145 . S
N36 C37 1.397 . S
N36 C38 1.334 . S
C37 H18 0.929 . S
C37 C34 1.388 . S
C37 N36 1.397 . S
C38 H19 0.929 . S
C38 C35 1.404 . S
C38 N36 1.334 . S
C39 H31 0.930 . S
C39 C34 1.418 . S
C39 C35 1.353 . S
C40 H10 0.930 . S
C40 N41 1.330 . S
C40 C42 1.446 . S
N41 Co0 2.151 . S
N41 C40 1.330 . S
N41 C45 1.418 . S
C42 H21 0.929 . S
C42 C40 1.446 . S
C42 C43 1.332 . S
C43 H23 0.931 . S
C43 C42 1.332 . S
C43 C44 1.267 . S
C44 H12 0.929 . S
C44 C43 1.267 . S
C44 C45 1.251 . S
C45 H15 0.929 . S
C45 N41 1.418 . S
C45 C44 1.251 . S
C46 H13 0.930 . S
C46 C48 1.406 . S
C46 C51 1.261 . S
C47 H14 0.930 . S
C47 N49 1.325 . S
C47 C50 1.357 . S
C48 H16 0.928 . S
C48 C46 1.406 . S
C48 N49 1.261 . S
N49 Co0 2.214 . S
N49 C47 1.325 . S
N49 C48 1.261 . S
C50 H20 0.931 . S
C50 C47 1.357 . S
C50 C51 1.312 . S
C51 H22 0.930 . S
C51 C46 1.261 . S
C51 C50 1.312 . S
C52 O24 1.214 . S
C52 O32 1.234 . S
C53 H25 0.929 . S
C53 C56 1.391 . S
C53 C58 1.391 . S
C54 H26 0.929 . S
C54 C55 1.390 . S
C54 N57 1.391 . S
C55 H27 0.930 . S
C55 C54 1.390 . S
C55 C56 1.392 . S
C56 H28 0.929 . S
C56 C53 1.391 . S
C56 C55 1.392 . S
N57 Co1 2.257 . S
N57 C54 1.391 . S
N57 C58 1.388 . S
C58 H29 0.930 . S
C58 C53 1.391 . S
C58 N57 1.388 . S
Co59 O61 2.143 . S
Co59 O67 2.074 . S
Co59 O70 2.093 . S
Co59 O83 2.097 . S
Co59 N100 2.151 . S
Co59 N108 2.214 . S
Co60 O61 2.160 . S
Co60 O66 2.058 . S
Co60 O76 2.057 . S
Co60 O91 2.037 . S
Co60 N95 2.145 . S
Co60 N116 2.257 . S
O61 Co59 2.143 . S
O61 Co60 2.160 . S
C62 O63 1.278 . S
C62 O70 1.224 . S
O63 C62 1.278 . S
C64 O65 1.245 . S
C64 O76 1.232 . S
O65 C64 1.245 . S
O66 Co60 2.058 . S
O66 C92 1.269 . S
O67 Co59 2.074 . S
O67 C92 1.257 . S
H68 C93 0.930 . S
H69 C99 0.930 . S
O70 Co59 2.093 . S
O70 C62 1.224 . S
H71 C103 0.929 . S
H72 C105 0.930 . S
H73 C106 0.930 . S
H74 C104 0.929 . S
H75 C107 0.928 . S
O76 Co60 2.057 . S
O76 C64 1.232 . S
H77 C96 0.929 . S
H78 C97 0.929 . S
H79 C109 0.931 . S
H80 C101 0.929 . S
H81 C110 0.930 . S
H82 C102 0.931 . S
O83 Co59 2.097 . S
O83 C111 1.214 . S
H84 C112 0.929 . S
H85 C113 0.929 . S
H86 C114 0.930 . S
H87 C115 0.929 . S
H88 C117 0.930 . S
H89 C94 0.930 . S
H90 C98 0.930 . S
O91 Co60 2.037 . S
O91 C111 1.234 . S
C92 O66 1.269 . S
C92 O67 1.257 . S
C93 H68 0.930 . S
C93 C96 1.388 . S
C93 C98 1.418 . S
C94 H89 0.930 . S
C94 C97 1.404 . S
C94 C98 1.353 . S
N95 Co60 2.145 . S
N95 C96 1.397 . S
N95 C97 1.334 . S
C96 H77 0.929 . S
C96 C93 1.388 . S
C96 N95 1.397 . S
C97 H78 0.929 . S
C97 C94 1.404 . S
C97 N95 1.334 . S
C98 H90 0.930 . S
C98 C93 1.418 . S
C98 C94 1.353 . S
C99 H69 0.930 . S
C99 N100 1.330 . S
C99 C101 1.446 . S
N100 Co59 2.151 . S
N100 C99 1.330 . S
N100 C104 1.418 . S
C101 H80 0.929 . S
C101 C99 1.446 . S
C101 C102 1.332 . S
C102 H82 0.931 . S
C102 C101 1.332 . S
C102 C103 1.267 . S
C103 H71 0.929 . S
C103 C102 1.267 . S
C103 C104 1.251 . S
C104 H74 0.929 . S
C104 N100 1.418 . S
C104 C103 1.251 . S
C105 H72 0.930 . S
C105 C107 1.406 . S
C105 C110 1.261 . S
C106 H73 0.930 . S
C106 N108 1.325 . S
C106 C109 1.357 . S
C107 H75 0.928 . S
C107 C105 1.406 . S
C107 N108 1.261 . S
N108 Co59 2.214 . S
N108 C106 1.325 . S
N108 C107 1.261 . S
C109 H79 0.931 . S
C109 C106 1.357 . S
C109 C110 1.312 . S
C110 H81 0.930 . S
C110 C105 1.261 . S
C110 C109 1.312 . S
C111 O83 1.214 . S
C111 O91 1.234 . S
C112 H84 0.929 . S
C112 C115 1.391 . S
C112 C117 1.391 . S
C113 H85 0.929 . S
C113 C114 1.390 . S
C113 N116 1.391 . S
C114 H86 0.930 . S
C114 C113 1.390 . S
C114 C115 1.392 . S
C115 H87 0.929 . S
C115 C112 1.391 . S
C115 C114 1.392 . S
N116 Co60 2.257 . S
N116 C113 1.391 . S
N116 C117 1.388 . S
C117 H88 0.930 . S
C117 C112 1.391 . S
C117 N116 1.388 . S
Co118 O120 2.131 1_554 S
Co118 O126 2.104 . S
Co118 O129 2.063 1_554 S
Co118 O142 2.091 1_554 S
Co118 N159 2.158 . S
Co118 N167 2.226 . S
Co119 O120 2.160 1_554 S
Co119 O125 2.058 . S
Co119 O135 2.057 1_554 S
Co119 O150 2.037 . S
Co119 N154 2.145 . S
Co119 N175 2.257 1_554 S
O120 Co118 2.131 1_556 S
O120 Co119 2.160 1_556 S
C121 O122 1.278 . S
C121 O129 1.224 . S
O122 C121 1.278 . S
C123 O124 1.245 . S
C123 O135 1.232 . S
O124 C123 1.245 . S
O125 Co119 2.058 . S
O125 C151 1.269 . S
O126 Co118 2.104 . S
O126 C151 1.257 . S
H127 C152 0.930 . S
H128 C158 0.930 . S
O129 Co118 2.063 1_556 S
O129 C121 1.224 . S
H130 C162 0.929 . S
H131 C164 0.930 . S
H132 C165 0.930 . S
H133 C163 0.929 . S
H134 C166 0.953 . S
O135 Co119 2.057 1_556 S
O135 C123 1.232 . S
H136 C155 0.929 . S
H137 C156 0.914 1_556 S
H138 C168 0.931 . S
H139 C160 0.929 . S
H140 C169 0.930 . S
H141 C161 0.931 . S
O142 Co118 2.091 1_556 S
O142 C170 1.225 . S
H143 C171 0.929 . S
H144 C172 0.929 . S
H145 C173 0.930 . S
H146 C174 0.929 . S
H147 C176 0.930 . S
H148 C153 0.930 . S
H149 C157 0.930 . S
O150 Co119 2.037 . S
O150 C170 1.228 1_554 S
C151 O125 1.269 . S
C151 O126 1.257 . S
C152 H127 0.930 . S
C152 C155 1.388 . S
C152 C157 1.418 . S
C153 H148 0.930 . S
C153 C156 1.404 . S
C153 C157 1.353 . S
N154 Co119 2.145 . S
N154 C155 1.397 . S
N154 C156 1.334 . S
C155 H136 0.929 . S
C155 C152 1.388 . S
C155 N154 1.397 . S
C156 H137 0.914 1_554 S
C156 C153 1.404 . S
C156 N154 1.334 . S
C157 H149 0.930 . S
C157 C152 1.418 . S
C157 C153 1.353 . S
C158 H128 0.930 . S
C158 N159 1.330 1_556 S
C158 C160 1.446 . S
N159 Co118 2.158 . S
N159 C158 1.330 1_554 S
N159 C163 1.418 . S
C160 H139 0.929 . S
C160 C158 1.446 . S
C160 C161 1.332 1_556 S
C161 H141 0.931 . S
C161 C160 1.332 1_554 S
C161 C162 1.267 . S
C162 H130 0.929 . S
C162 C161 1.267 . S
C162 C163 1.251 . S
C163 H133 0.929 . S
C163 N159 1.418 . S
C163 C162 1.251 . S
C164 H131 0.930 . S
C164 C166 1.406 . S
C164 C169 1.261 . S
C165 H132 0.930 . S
C165 N167 1.325 . S
C165 C168 1.357 . S
C166 H134 0.953 . S
C166 C164 1.406 . S
C166 N167 1.261 . S
N167 Co118 2.226 . S
N167 C165 1.325 . S
N167 C166 1.261 . S
C168 H138 0.931 . S
C168 C165 1.357 . S
C168 C169 1.312 . S
C169 H140 0.930 . S
C169 C164 1.261 . S
C169 C168 1.312 . S
C170 O142 1.225 . S
C170 O150 1.228 1_556 S
C171 H143 0.929 . S
C171 C174 1.391 . S
C171 C176 1.391 . S
C172 H144 0.929 . S
C172 C173 1.390 . S
C172 N175 1.391 . S
C173 H145 0.930 . S
C173 C172 1.390 . S
C173 C174 1.392 . S
C174 H146 0.929 . S
C174 C171 1.391 . S
C174 C173 1.392 . S
N175 Co119 2.257 1_556 S
N175 C172 1.391 . S
N175 C176 1.388 . S
C176 H147 0.930 . S
C176 C171 1.391 . S
C176 N175 1.388 . S
Co177 O179 2.143 . S
Co177 O185 2.074 . S
Co177 O188 2.093 . S
Co177 O201 2.097 . S
Co177 N218 2.151 . S
Co177 N226 2.214 . S
Co178 O179 2.160 . S
Co178 O184 2.058 . S
Co178 O194 2.057 . S
Co178 O209 2.037 . S
Co178 N213 2.145 . S
Co178 N234 2.257 . S
O179 Co177 2.143 . S
O179 Co178 2.160 . S
C180 O181 1.278 . S
C180 O188 1.224 . S
O181 C180 1.278 . S
C182 O183 1.245 . S
C182 O194 1.232 . S
O183 C182 1.245 . S
O184 Co178 2.058 . S
O184 C210 1.269 . S
O185 Co177 2.074 . S
O185 C210 1.257 . S
H186 C211 0.930 . S
H187 C217 0.930 . S
O188 Co177 2.093 . S
O188 C180 1.224 . S
H189 C221 0.929 . S
H190 C223 0.930 . S
H191 C224 0.930 . S
H192 C222 0.929 . S
H193 C225 0.928 . S
O194 Co178 2.057 . S
O194 C182 1.232 . S
H195 C214 0.929 . S
H196 C215 0.929 . S
H197 C227 0.931 . S
H198 C219 0.929 . S
H199 C228 0.930 . S
H200 C220 0.931 . S
O201 Co177 2.097 . S
O201 C229 1.214 . S
H202 C230 0.929 . S
H203 C231 0.929 . S
H204 C232 0.930 . S
H205 C233 0.929 . S
H206 C235 0.930 . S
H207 C212 0.930 . S
H208 C216 0.930 . S
O209 Co178 2.037 . S
O209 C229 1.234 . S
C210 O184 1.269 . S
C210 O185 1.257 . S
C211 H186 0.930 . S
C211 C214 1.388 . S
C211 C216 1.418 . S
C212 H207 0.930 . S
C212 C215 1.404 . S
C212 C216 1.353 . S
N213 Co178 2.145 . S
N213 C214 1.397 . S
N213 C215 1.334 . S
C214 H195 0.929 . S
C214 C211 1.388 . S
C214 N213 1.397 . S
C215 H196 0.929 . S
C215 C212 1.404 . S
C215 N213 1.334 . S
C216 H208 0.930 . S
C216 C211 1.418 . S
C216 C212 1.353 . S
C217 H187 0.930 . S
C217 N218 1.330 . S
C217 C219 1.446 . S
N218 Co177 2.151 . S
N218 C217 1.330 . S
N218 C222 1.418 . S
C219 H198 0.929 . S
C219 C217 1.446 . S
C219 C220 1.332 . S
C220 H200 0.931 . S
C220 C219 1.332 . S
C220 C221 1.267 . S
C221 H189 0.929 . S
C221 C220 1.267 . S
C221 C222 1.251 . S
C222 H192 0.929 . S
C222 N218 1.418 . S
C222 C221 1.251 . S
C223 H190 0.930 . S
C223 C225 1.406 . S
C223 C228 1.261 . S
C224 H191 0.930 . S
C224 N226 1.325 . S
C224 C227 1.357 . S
C225 H193 0.928 . S
C225 C223 1.406 . S
C225 N226 1.261 . S
N226 Co177 2.214 . S
N226 C224 1.325 . S
N226 C225 1.261 . S
C227 H197 0.931 . S
C227 C224 1.357 . S
C227 C228 1.312 . S
C228 H199 0.930 . S
C228 C223 1.261 . S
C228 C227 1.312 . S
C229 O201 1.214 . S
C229 O209 1.234 . S
C230 H202 0.929 . S
C230 C233 1.391 . S
C230 C235 1.391 . S
C231 H203 0.929 . S
C231 C232 1.390 . S
C231 N234 1.391 . S
C232 H204 0.930 . S
C232 C231 1.390 . S
C232 C233 1.392 . S
C233 H205 0.929 . S
C233 C230 1.391 . S
C233 C232 1.392 . S
N234 Co178 2.257 . S
N234 C231 1.391 . S
N234 C235 1.388 . S
C235 H206 0.930 . S
C235 C230 1.391 . S
C235 N234 1.388 . S
Co236 O238 2.143 . S
Co236 O244 2.074 . S
Co236 O247 2.093 . S
Co236 O260 2.097 . S
Co236 N277 2.151 . S
Co236 N285 2.214 . S
Co237 O238 2.160 . S
Co237 O243 2.058 . S
Co237 O253 2.057 . S
Co237 O268 2.037 . S
Co237 N272 2.145 . S
Co237 N293 2.257 . S
O238 Co236 2.143 . S
O238 Co237 2.160 . S
C239 O240 1.278 . S
C239 O247 1.224 . S
O240 C239 1.278 . S
C241 O242 1.245 . S
C241 O253 1.232 . S
O242 C241 1.245 . S
O243 Co237 2.058 . S
O243 C269 1.269 . S
O244 Co236 2.074 . S
O244 C269 1.257 . S
H245 C270 0.930 . S
H246 C276 0.930 . S
O247 Co236 2.093 . S
O247 C239 1.224 . S
H248 C280 0.929 . S
H249 C282 0.930 . S
H250 C283 0.930 . S
H251 C281 0.929 . S
H252 C284 0.928 . S
O253 Co237 2.057 . S
O253 C241 1.232 . S
H254 C273 0.929 . S
H255 C274 0.929 . S
H256 C286 0.931 . S
H257 C278 0.929 . S
H258 C287 0.930 . S
H259 C279 0.931 . S
O260 Co236 2.097 . S
O260 C288 1.214 . S
H261 C289 0.929 . S
H262 C290 0.929 . S
H263 C291 0.930 . S
H264 C292 0.929 . S
H265 C294 0.930 . S
H266 C271 0.930 . S
H267 C275 0.930 . S
O268 Co237 2.037 . S
O268 C288 1.234 . S
C269 O243 1.269 . S
C269 O244 1.257 . S
C270 H245 0.930 . S
C270 C273 1.388 . S
C270 C275 1.418 . S
C271 H266 0.930 . S
C271 C274 1.404 . S
C271 C275 1.353 . S
N272 Co237 2.145 . S
N272 C273 1.397 . S
N272 C274 1.334 . S
C273 H254 0.929 . S
C273 C270 1.388 . S
C273 N272 1.397 . S
C274 H255 0.929 . S
C274 C271 1.404 . S
C274 N272 1.334 . S
C275 H267 0.930 . S
C275 C270 1.418 . S
C275 C271 1.353 . S
C276 H246 0.930 . S
C276 N277 1.330 . S
C276 C278 1.446 . S
N277 Co236 2.151 . S
N277 C276 1.330 . S
N277 C281 1.418 . S
C278 H257 0.929 . S
C278 C276 1.446 . S
C278 C279 1.332 . S
C279 H259 0.931 . S
C279 C278 1.332 . S
C279 C280 1.267 . S
C280 H248 0.929 . S
C280 C279 1.267 . S
C280 C281 1.251 . S
C281 H251 0.929 . S
C281 N277 1.418 . S
C281 C280 1.251 . S
C282 H249 0.930 . S
C282 C284 1.406 . S
C282 C287 1.261 . S
C283 H250 0.930 . S
C283 N285 1.325 . S
C283 C286 1.357 . S
C284 H252 0.928 . S
C284 C282 1.406 . S
C284 N285 1.261 . S
N285 Co236 2.214 . S
N285 C283 1.325 . S
N285 C284 1.261 . S
C286 H256 0.931 . S
C286 C283 1.357 . S
C286 C287 1.312 . S
C287 H258 0.930 . S
C287 C282 1.261 . S
C287 C286 1.312 . S
C288 O260 1.214 . S
C288 O268 1.234 . S
C289 H261 0.929 . S
C289 C292 1.391 . S
C289 C294 1.391 . S
C290 H262 0.929 . S
C290 C291 1.390 . S
C290 N293 1.391 . S
C291 H263 0.930 . S
C291 C290 1.390 . S
C291 C292 1.392 . S
C292 H264 0.929 . S
C292 C289 1.391 . S
C292 C291 1.392 . S
N293 Co237 2.257 . S
N293 C290 1.391 . S
N293 C294 1.388 . S
C294 H265 0.930 . S
C294 C289 1.391 . S
C294 N293 1.388 . S
Co295 O297 2.131 1_554 S
Co295 O303 2.104 . S
Co295 O306 2.063 1_554 S
Co295 O319 2.091 1_554 S
Co295 N336 2.158 . S
Co295 N344 2.226 . S
Co296 O297 2.160 1_554 S
Co296 O302 2.058 . S
Co296 O312 2.057 1_554 S
Co296 O327 2.037 . S
Co296 N331 2.145 . S
Co296 N352 2.257 1_554 S
O297 Co295 2.131 1_556 S
O297 Co296 2.160 1_556 S
C298 O299 1.278 . S
C298 O306 1.224 . S
O299 C298 1.278 . S
C300 O301 1.245 . S
C300 O312 1.232 . S
O301 C300 1.245 . S
O302 Co296 2.058 . S
O302 C328 1.269 . S
O303 Co295 2.104 . S
O303 C328 1.257 . S
H304 C329 0.930 . S
H305 C335 0.930 . S
O306 Co295 2.063 1_556 S
O306 C298 1.224 . S
H307 C339 0.929 . S
H308 C341 0.930 . S
H309 C342 0.930 . S
H310 C340 0.929 . S
H311 C343 0.953 . S
O312 Co296 2.057 1_556 S
O312 C300 1.232 . S
H313 C332 0.929 . S
H314 C333 0.914 1_556 S
H315 C345 0.931 . S
H316 C337 0.929 . S
H317 C346 0.930 . S
H318 C338 0.931 . S
O319 Co295 2.091 1_556 S
O319 C347 1.225 . S
H320 C348 0.929 . S
H321 C349 0.929 . S
H322 C350 0.930 . S
H323 C351 0.929 . S
H324 C353 0.930 . S
H325 C330 0.930 . S
H326 C334 0.930 . S
O327 Co296 2.037 . S
O327 C347 1.228 1_554 S
C328 O302 1.269 . S
C328 O303 1.257 . S
C329 H304 0.930 . S
C329 C332 1.388 . S
C329 C334 1.418 . S
C330 H325 0.930 . S
C330 C333 1.404 . S
C330 C334 1.353 . S
N331 Co296 2.145 . S
N331 C332 1.397 . S
N331 C333 1.334 . S
C332 H313 0.929 . S
C332 C329 1.388 . S
C332 N331 1.397 . S
C333 H314 0.914 1_554 S
C333 C330 1.404 . S
C333 N331 1.334 . S
C334 H326 0.930 . S
C334 C329 1.418 . S
C334 C330 1.353 . S
C335 H305 0.930 . S
C335 N336 1.330 1_556 S
C335 C337 1.446 . S
N336 Co295 2.158 . S
N336 C335 1.330 1_554 S
N336 C340 1.418 . S
C337 H316 0.929 . S
C337 C335 1.446 . S
C337 C338 1.332 1_556 S
C338 H318 0.931 . S
C338 C337 1.332 1_554 S
C338 C339 1.267 . S
C339 H307 0.929 . S
C339 C338 1.267 . S
C339 C340 1.251 . S
C340 H310 0.929 . S
C340 N336 1.418 . S
C340 C339 1.251 . S
C341 H308 0.930 . S
C341 C343 1.406 . S
C341 C346 1.261 . S
C342 H309 0.930 . S
C342 N344 1.325 . S
C342 C345 1.357 . S
C343 H311 0.953 . S
C343 C341 1.406 . S
C343 N344 1.261 . S
N344 Co295 2.226 . S
N344 C342 1.325 . S
N344 C343 1.261 . S
C345 H315 0.931 . S
C345 C342 1.357 . S
C345 C346 1.312 . S
C346 H317 0.930 . S
C346 C341 1.261 . S
C346 C345 1.312 . S
C347 O319 1.225 . S
C347 O327 1.228 1_556 S
C348 H320 0.929 . S
C348 C351 1.391 . S
C348 C353 1.391 . S
C349 H321 0.929 . S
C349 C350 1.390 . S
C349 N352 1.391 . S
C350 H322 0.930 . S
C350 C349 1.390 . S
C350 C351 1.392 . S
C351 H323 0.929 . S
C351 C348 1.391 . S
C351 C350 1.392 . S
N352 Co296 2.257 1_556 S
N352 C349 1.391 . S
N352 C353 1.388 . S
C353 H324 0.930 . S
C353 C348 1.391 . S
C353 N352 1.388 . S
Co354 O356 2.143 . S
Co354 O362 2.074 . S
Co354 O365 2.093 . S
Co354 O378 2.097 . S
Co354 N395 2.151 . S
Co354 N403 2.214 . S
Co355 O356 2.160 . S
Co355 O361 2.058 . S
Co355 O371 2.057 . S
Co355 O386 2.037 . S
Co355 N390 2.145 . S
Co355 N411 2.257 . S
O356 Co354 2.143 . S
O356 Co355 2.160 . S
C357 O358 1.278 . S
C357 O365 1.224 . S
O358 C357 1.278 . S
C359 O360 1.245 . S
C359 O371 1.232 . S
O360 C359 1.245 . S
O361 Co355 2.058 . S
O361 C387 1.269 . S
O362 Co354 2.074 . S
O362 C387 1.257 . S
H363 C388 0.930 . S
H364 C394 0.930 . S
O365 Co354 2.093 . S
O365 C357 1.224 . S
H366 C398 0.929 . S
H367 C400 0.930 . S
H368 C401 0.930 . S
H369 C399 0.929 . S
H370 C402 0.928 . S
O371 Co355 2.057 . S
O371 C359 1.232 . S
H372 C391 0.929 . S
H373 C392 0.929 . S
H374 C404 0.931 . S
H375 C396 0.929 . S
H376 C405 0.930 . S
H377 C397 0.931 . S
O378 Co354 2.097 . S
O378 C406 1.214 . S
H379 C407 0.929 . S
H380 C408 0.929 . S
H381 C409 0.930 . S
H382 C410 0.929 . S
H383 C412 0.930 . S
H384 C389 0.930 . S
H385 C393 0.930 . S
O386 Co355 2.037 . S
O386 C406 1.234 . S
C387 O361 1.269 . S
C387 O362 1.257 . S
C388 H363 0.930 . S
C388 C391 1.388 . S
C388 C393 1.418 . S
C389 H384 0.930 . S
C389 C392 1.404 . S
C389 C393 1.353 . S
N390 Co355 2.145 . S
N390 C391 1.397 . S
N390 C392 1.334 . S
C391 H372 0.929 . S
C391 C388 1.388 . S
C391 N390 1.397 . S
C392 H373 0.929 . S
C392 C389 1.404 . S
C392 N390 1.334 . S
C393 H385 0.930 . S
C393 C388 1.418 . S
C393 C389 1.353 . S
C394 H364 0.930 . S
C394 N395 1.330 . S
C394 C396 1.446 . S
N395 Co354 2.151 . S
N395 C394 1.330 . S
N395 C399 1.418 . S
C396 H375 0.929 . S
C396 C394 1.446 . S
C396 C397 1.332 . S
C397 H377 0.931 . S
C397 C396 1.332 . S
C397 C398 1.267 . S
C398 H366 0.929 . S
C398 C397 1.267 . S
C398 C399 1.251 . S
C399 H369 0.929 . S
C399 N395 1.418 . S
C399 C398 1.251 . S
C400 H367 0.930 . S
C400 C402 1.406 . S
C400 C405 1.261 . S
C401 H368 0.930 . S
C401 N403 1.325 . S
C401 C404 1.357 . S
C402 H370 0.928 . S
C402 C400 1.406 . S
C402 N403 1.261 . S
N403 Co354 2.214 . S
N403 C401 1.325 . S
N403 C402 1.261 . S
C404 H374 0.931 . S
C404 C401 1.357 . S
C404 C405 1.312 . S
C405 H376 0.930 . S
C405 C400 1.261 . S
C405 C404 1.312 . S
C406 O378 1.214 . S
C406 O386 1.234 . S
C407 H379 0.929 . S
C407 C410 1.391 . S
C407 C412 1.391 . S
C408 H380 0.929 . S
C408 C409 1.390 . S
C408 N411 1.391 . S
C409 H381 0.930 . S
C409 C408 1.390 . S
C409 C410 1.392 . S
C410 H382 0.929 . S
C410 C407 1.391 . S
C410 C409 1.392 . S
N411 Co355 2.257 . S
N411 C408 1.391 . S
N411 C412 1.388 . S
C412 H383 0.930 . S
C412 C407 1.391 . S
C412 N411 1.388 . S
Co413 O415 2.143 . S
Co413 O421 2.074 . S
Co413 O424 2.093 . S
Co413 O437 2.097 . S
Co413 N454 2.151 . S
Co413 N462 2.214 . S
Co414 O415 2.160 . S
Co414 O420 2.058 . S
Co414 O430 2.057 . S
Co414 O445 2.037 . S
Co414 N449 2.145 . S
Co414 N470 2.257 . S
O415 Co413 2.143 . S
O415 Co414 2.160 . S
C416 O417 1.278 . S
C416 O424 1.224 . S
O417 C416 1.278 . S
C418 O419 1.245 . S
C418 O430 1.232 . S
O419 C418 1.245 . S
O420 Co414 2.058 . S
O420 C446 1.269 . S
O421 Co413 2.074 . S
O421 C446 1.257 . S
H422 C447 0.930 . S
H423 C453 0.930 . S
O424 Co413 2.093 . S
O424 C416 1.224 . S
H425 C457 0.929 . S
H426 C459 0.930 . S
H427 C460 0.930 . S
H428 C458 0.929 . S
H429 C461 0.928 . S
O430 Co414 2.057 . S
O430 C418 1.232 . S
H431 C450 0.929 . S
H432 C451 0.929 . S
H433 C463 0.931 . S
H434 C455 0.929 . S
H435 C464 0.930 . S
H436 C456 0.931 . S
O437 Co413 2.097 . S
O437 C465 1.214 . S
H438 C466 0.929 . S
H439 C467 0.929 . S
H440 C468 0.930 . S
H441 C469 0.929 . S
H442 C471 0.930 . S
H443 C448 0.930 . S
H444 C452 0.930 . S
O445 Co414 2.037 . S
O445 C465 1.234 . S
C446 O420 1.269 . S
C446 O421 1.257 . S
C447 H422 0.930 . S
C447 C450 1.388 . S
C447 C452 1.418 . S
C448 H443 0.930 . S
C448 C451 1.404 . S
C448 C452 1.353 . S
N449 Co414 2.145 . S
N449 C450 1.397 . S
N449 C451 1.334 . S
C450 H431 0.929 . S
C450 C447 1.388 . S
C450 N449 1.397 . S
C451 H432 0.929 . S
C451 C448 1.404 . S
C451 N449 1.334 . S
C452 H444 0.930 . S
C452 C447 1.418 . S
C452 C448 1.353 . S
C453 H423 0.930 . S
C453 N454 1.330 . S
C453 C455 1.446 . S
N454 Co413 2.151 . S
N454 C453 1.330 . S
N454 C458 1.418 . S
C455 H434 0.929 . S
C455 C453 1.446 . S
C455 C456 1.332 . S
C456 H436 0.931 . S
C456 C455 1.332 . S
C456 C457 1.267 . S
C457 H425 0.929 . S
C457 C456 1.267 . S
C457 C458 1.251 . S
C458 H428 0.929 . S
C458 N454 1.418 . S
C458 C457 1.251 . S
C459 H426 0.930 . S
C459 C461 1.406 . S
C459 C464 1.261 . S
C460 H427 0.930 . S
C460 N462 1.325 . S
C460 C463 1.357 . S
C461 H429 0.928 . S
C461 C459 1.406 . S
C461 N462 1.261 . S
N462 Co413 2.214 . S
N462 C460 1.325 . S
N462 C461 1.261 . S
C463 H433 0.931 . S
C463 C460 1.357 . S
C463 C464 1.312 . S
C464 H435 0.930 . S
C464 C459 1.261 . S
C464 C463 1.312 . S
C465 O437 1.214 . S
C465 O445 1.234 . S
C466 H438 0.929 . S
C466 C469 1.391 . S
C466 C471 1.391 . S
C467 H439 0.929 . S
C467 C468 1.390 . S
C467 N470 1.391 . S
C468 H440 0.930 . S
C468 C467 1.390 . S
C468 C469 1.392 . S
C469 H441 0.929 . S
C469 C466 1.391 . S
C469 C468 1.392 . S
N470 Co414 2.257 . S
N470 C467 1.391 . S
N470 C471 1.388 . S
C471 H442 0.930 . S
C471 C466 1.391 . S
C471 N470 1.388 . S
Co472 O474 2.143 . S
Co472 O480 2.074 1_554 S
Co472 O483 2.093 . S
Co472 O496 2.097 . S
Co472 N513 2.151 1_554 S
Co472 N521 2.214 1_554 S
Co473 O474 2.160 . S
Co473 O479 2.058 1_554 S
Co473 O489 2.057 . S
Co473 O504 2.037 . S
Co473 N508 2.145 1_554 S
Co473 N529 2.257 . S
O474 Co472 2.143 . S
O474 Co473 2.160 . S
C475 O476 1.278 . S
C475 O483 1.224 . S
O476 C475 1.278 . S
C477 O478 1.245 . S
C477 O489 1.232 . S
O478 C477 1.245 . S
O479 Co473 2.058 1_556 S
O479 C505 1.269 . S
O480 Co472 2.074 1_556 S
O480 C505 1.257 . S
H481 C506 0.930 . S
H482 C512 0.930 . S
O483 Co472 2.093 . S
O483 C475 1.224 . S
H484 C516 0.929 . S
H485 C518 0.930 . S
H486 C519 0.930 . S
H487 C517 0.929 . S
H488 C520 0.928 1_554 S
O489 Co473 2.057 . S
O489 C477 1.232 . S
H490 C509 0.929 . S
H491 C510 0.929 1_554 S
H492 C522 0.931 . S
H493 C514 0.929 . S
H494 C523 0.930 . S
H495 C515 0.931 . S
O496 Co472 2.097 . S
O496 C524 1.214 . S
H497 C525 0.929 . S
H498 C526 0.929 . S
H499 C527 0.930 . S
H500 C528 0.929 . S
H501 C530 0.930 . S
H502 C507 0.930 . S
H503 C511 0.930 . S
O504 Co473 2.037 . S
O504 C524 1.234 . S
C505 O479 1.269 . S
C505 O480 1.257 . S
C506 H481 0.930 . S
C506 C509 1.388 . S
C506 C511 1.418 . S
C507 H502 0.930 . S
C507 C510 1.404 . S
C507 C511 1.353 . S
N508 Co473 2.145 1_556 S
N508 C509 1.397 . S
N508 C510 1.334 . S
C509 H490 0.929 . S
C509 C506 1.388 . S
C509 N508 1.397 . S
C510 H491 0.929 1_556 S
C510 C507 1.404 . S
C510 N508 1.334 . S
C511 H503 0.930 . S
C511 C506 1.418 . S
C511 C507 1.353 . S
C512 H482 0.930 . S
C512 N513 1.330 1_554 S
C512 C514 1.446 . S
N513 Co472 2.151 1_556 S
N513 C512 1.330 1_556 S
N513 C517 1.418 . S
C514 H493 0.929 . S
C514 C512 1.446 . S
C514 C515 1.332 1_554 S
C515 H495 0.931 . S
C515 C514 1.332 1_556 S
C515 C516 1.267 . S
C516 H484 0.929 . S
C516 C515 1.267 . S
C516 C517 1.251 . S
C517 H487 0.929 . S
C517 N513 1.418 . S
C517 C516 1.251 . S
C518 H485 0.930 . S
C518 C520 1.406 . S
C518 C523 1.261 . S
C519 H486 0.930 . S
C519 N521 1.325 . S
C519 C522 1.357 . S
C520 H488 0.928 1_556 S
C520 C518 1.406 . S
C520 N521 1.261 . S
N521 Co472 2.214 1_556 S
N521 C519 1.325 . S
N521 C520 1.261 . S
C522 H492 0.931 . S
C522 C519 1.357 . S
C522 C523 1.312 . S
C523 H494 0.930 . S
C523 C518 1.261 . S
C523 C522 1.312 . S
C524 O496 1.214 . S
C524 O504 1.234 . S
C525 H497 0.929 . S
C525 C528 1.391 . S
C525 C530 1.391 . S
C526 H498 0.929 . S
C526 C527 1.390 . S
C526 N529 1.391 . S
C527 H499 0.930 . S
C527 C526 1.390 . S
C527 C528 1.392 . S
C528 H500 0.929 . S
C528 C525 1.391 . S
C528 C527 1.392 . S
N529 Co473 2.257 . S
N529 C526 1.391 . S
N529 C530 1.388 . S
C530 H501 0.930 . S
C530 C525 1.391 . S
C530 N529 1.388 . S
Co531 O533 2.143 . S
Co531 O539 2.074 . S
Co531 O542 2.093 . S
Co531 O555 2.097 . S
Co531 N572 2.151 . S
Co531 N580 2.214 . S
Co532 O533 2.160 . S
Co532 O538 2.058 . S
Co532 O548 2.057 . S
Co532 O563 2.037 . S
Co532 N567 2.145 . S
Co532 N588 2.257 . S
O533 Co531 2.143 . S
O533 Co532 2.160 . S
C534 O535 1.278 . S
C534 O542 1.224 . S
O535 C534 1.278 . S
C536 O537 1.245 . S
C536 O548 1.232 . S
O537 C536 1.245 . S
O538 Co532 2.058 . S
O538 C564 1.269 . S
O539 Co531 2.074 . S
O539 C564 1.257 . S
H540 C565 0.930 . S
H541 C571 0.930 . S
O542 Co531 2.093 . S
O542 C534 1.224 . S
H543 C575 0.929 . S
H544 C577 0.930 . S
H545 C578 0.930 . S
H546 C576 0.929 . S
H547 C579 0.928 . S
O548 Co532 2.057 . S
O548 C536 1.232 . S
H549 C568 0.929 . S
H550 C569 0.929 . S
H551 C581 0.931 . S
H552 C573 0.929 . S
H553 C582 0.930 . S
H554 C574 0.931 . S
O555 Co531 2.097 . S
O555 C583 1.214 . S
H556 C584 0.929 . S
H557 C585 0.929 . S
H558 C586 0.930 . S
H559 C587 0.929 . S
H560 C589 0.930 . S
H561 C566 0.930 . S
H562 C570 0.930 . S
O563 Co532 2.037 . S
O563 C583 1.234 . S
C564 O538 1.269 . S
C564 O539 1.257 . S
C565 H540 0.930 . S
C565 C568 1.388 . S
C565 C570 1.418 . S
C566 H561 0.930 . S
C566 C569 1.404 . S
C566 C570 1.353 . S
N567 Co532 2.145 . S
N567 C568 1.397 . S
N567 C569 1.334 . S
C568 H549 0.929 . S
C568 C565 1.388 . S
C568 N567 1.397 . S
C569 H550 0.929 . S
C569 C566 1.404 . S
C569 N567 1.334 . S
C570 H562 0.930 . S
C570 C565 1.418 . S
C570 C566 1.353 . S
C571 H541 0.930 . S
C571 N572 1.330 . S
C571 C573 1.446 . S
N572 Co531 2.151 . S
N572 C571 1.330 . S
N572 C576 1.418 . S
C573 H552 0.929 . S
C573 C571 1.446 . S
C573 C574 1.332 . S
C574 H554 0.931 . S
C574 C573 1.332 . S
C574 C575 1.267 . S
C575 H543 0.929 . S
C575 C574 1.267 . S
C575 C576 1.251 . S
C576 H546 0.929 . S
C576 N572 1.418 . S
C576 C575 1.251 . S
C577 H544 0.930 . S
C577 C579 1.406 . S
C577 C582 1.261 . S
C578 H545 0.930 . S
C578 N580 1.325 . S
C578 C581 1.357 . S
C579 H547 0.928 . S
C579 C577 1.406 . S
C579 N580 1.261 . S
N580 Co531 2.214 . S
N580 C578 1.325 . S
N580 C579 1.261 . S
C581 H551 0.931 . S
C581 C578 1.357 . S
C581 C582 1.312 . S
C582 H553 0.930 . S
C582 C577 1.261 . S
C582 C581 1.312 . S
C583 O555 1.214 . S
C583 O563 1.234 . S
C584 H556 0.929 . S
C584 C587 1.391 . S
C584 C589 1.391 . S
C585 H557 0.929 . S
C585 C586 1.390 . S
C585 N588 1.391 . S
C586 H558 0.930 . S
C586 C585 1.390 . S
C586 C587 1.392 . S
C587 H559 0.929 . S
C587 C584 1.391 . S
C587 C586 1.392 . S
N588 Co532 2.257 . S
N588 C585 1.391 . S
N588 C589 1.388 . S
C589 H560 0.930 . S
C589 C584 1.391 . S
C589 N588 1.388 . S
Co590 O592 2.143 . S
Co590 O598 2.074 . S
Co590 O601 2.093 . S
Co590 O614 2.097 . S
Co590 N631 2.151 . S
Co590 N639 2.214 . S
Co591 O592 2.160 . S
Co591 O597 2.058 . S
Co591 O607 2.057 . S
Co591 O622 2.037 . S
Co591 N626 2.145 . S
Co591 N647 2.257 . S
O592 Co590 2.143 . S
O592 Co591 2.160 . S
C593 O594 1.278 . S
C593 O601 1.224 . S
O594 C593 1.278 . S
C595 O596 1.245 . S
C595 O607 1.232 . S
O596 C595 1.245 . S
O597 Co591 2.058 . S
O597 C623 1.269 . S
O598 Co590 2.074 . S
O598 C623 1.257 . S
H599 C624 0.930 . S
H600 C630 0.930 . S
O601 Co590 2.093 . S
O601 C593 1.224 . S
H602 C634 0.929 . S
H603 C636 0.930 . S
H604 C637 0.930 . S
H605 C635 0.929 . S
H606 C638 0.928 . S
O607 Co591 2.057 . S
O607 C595 1.232 . S
H608 C627 0.929 . S
H609 C628 0.929 . S
H610 C640 0.931 . S
H611 C632 0.929 . S
H612 C641 0.930 . S
H613 C633 0.931 . S
O614 Co590 2.097 . S
O614 C642 1.214 . S
H615 C643 0.929 . S
H616 C644 0.929 . S
H617 C645 0.930 . S
H618 C646 0.929 . S
H619 C648 0.930 . S
H620 C625 0.930 . S
H621 C629 0.930 . S
O622 Co591 2.037 . S
O622 C642 1.234 . S
C623 O597 1.269 . S
C623 O598 1.257 . S
C624 H599 0.930 . S
C624 C627 1.388 . S
C624 C629 1.418 . S
C625 H620 0.930 . S
C625 C628 1.404 . S
C625 C629 1.353 . S
N626 Co591 2.145 . S
N626 C627 1.397 . S
N626 C628 1.334 . S
C627 H608 0.929 . S
C627 C624 1.388 . S
C627 N626 1.397 . S
C628 H609 0.929 . S
C628 C625 1.404 . S
C628 N626 1.334 . S
C629 H621 0.930 . S
C629 C624 1.418 . S
C629 C625 1.353 . S
C630 H600 0.930 . S
C630 N631 1.330 . S
C630 C632 1.446 . S
N631 Co590 2.151 . S
N631 C630 1.330 . S
N631 C635 1.418 . S
C632 H611 0.929 . S
C632 C630 1.446 . S
C632 C633 1.332 . S
C633 H613 0.931 . S
C633 C632 1.332 . S
C633 C634 1.267 . S
C634 H602 0.929 . S
C634 C633 1.267 . S
C634 C635 1.251 . S
C635 H605 0.929 . S
C635 N631 1.418 . S
C635 C634 1.251 . S
C636 H603 0.930 . S
C636 C638 1.406 . S
C636 C641 1.261 . S
C637 H604 0.930 . S
C637 N639 1.325 . S
C637 C640 1.357 . S
C638 H606 0.928 . S
C638 C636 1.406 . S
C638 N639 1.261 . S
N639 Co590 2.214 . S
N639 C637 1.325 . S
N639 C638 1.261 . S
C640 H610 0.931 . S
C640 C637 1.357 . S
C640 C641 1.312 . S
C641 H612 0.930 . S
C641 C636 1.261 . S
C641 C640 1.312 . S
C642 O614 1.214 . S
C642 O622 1.234 . S
C643 H615 0.929 . S
C643 C646 1.391 . S
C643 C648 1.391 . S
C644 H616 0.929 . S
C644 C645 1.390 . S
C644 N647 1.391 . S
C645 H617 0.930 . S
C645 C644 1.390 . S
C645 C646 1.392 . S
C646 H618 0.929 . S
C646 C643 1.391 . S
C646 C645 1.392 . S
N647 Co591 2.257 . S
N647 C644 1.391 . S
N647 C648 1.388 . S
C648 H619 0.930 . S
C648 C643 1.391 . S
C648 N647 1.388 . S
Co649 O651 2.143 . S
Co649 O657 2.074 1_554 S
Co649 O660 2.093 . S
Co649 O673 2.097 . S
Co649 N690 2.151 1_554 S
Co649 N698 2.214 1_554 S
Co650 O651 2.160 . S
Co650 O656 2.058 1_554 S
Co650 O666 2.057 . S
Co650 O681 2.037 . S
Co650 N685 2.145 1_554 S
Co650 N706 2.257 . S
O651 Co649 2.143 . S
O651 Co650 2.160 . S
C652 O653 1.278 . S
C652 O660 1.224 . S
O653 C652 1.278 . S
C654 O655 1.245 . S
C654 O666 1.232 . S
O655 C654 1.245 . S
O656 Co650 2.058 1_556 S
O656 C682 1.269 . S
O657 Co649 2.074 1_556 S
O657 C682 1.257 . S
H658 C683 0.930 . S
H659 C689 0.930 . S
O660 Co649 2.093 . S
O660 C652 1.224 . S
H661 C693 0.929 . S
H662 C695 0.930 . S
H663 C696 0.930 . S
H664 C694 0.929 . S
H665 C697 0.928 1_554 S
O666 Co650 2.057 . S
O666 C654 1.232 . S
H667 C686 0.929 . S
H668 C687 0.929 1_554 S
H669 C699 0.931 . S
H670 C691 0.929 . S
H671 C700 0.930 . S
H672 C692 0.931 . S
O673 Co649 2.097 . S
O673 C701 1.214 . S
H674 C702 0.929 . S
H675 C703 0.929 . S
H676 C704 0.930 . S
H677 C705 0.929 . S
H678 C707 0.930 . S
H679 C684 0.930 . S
H680 C688 0.930 . S
O681 Co650 2.037 . S
O681 C701 1.234 . S
C682 O656 1.269 . S
C682 O657 1.257 . S
C683 H658 0.930 . S
C683 C686 1.388 . S
C683 C688 1.418 . S
C684 H679 0.930 . S
C684 C687 1.404 . S
C684 C688 1.353 . S
N685 Co650 2.145 1_556 S
N685 C686 1.397 . S
N685 C687 1.334 . S
C686 H667 0.929 . S
C686 C683 1.388 . S
C686 N685 1.397 . S
C687 H668 0.929 1_556 S
C687 C684 1.404 . S
C687 N685 1.334 . S
C688 H680 0.930 . S
C688 C683 1.418 . S
C688 C684 1.353 . S
C689 H659 0.930 . S
C689 N690 1.330 1_554 S
C689 C691 1.446 . S
N690 Co649 2.151 1_556 S
N690 C689 1.330 1_556 S
N690 C694 1.418 . S
C691 H670 0.929 . S
C691 C689 1.446 . S
C691 C692 1.332 1_554 S
C692 H672 0.931 . S
C692 C691 1.332 1_556 S
C692 C693 1.267 . S
C693 H661 0.929 . S
C693 C692 1.267 . S
C693 C694 1.251 . S
C694 H664 0.929 . S
C694 N690 1.418 . S
C694 C693 1.251 . S
C695 H662 0.930 . S
C695 C697 1.406 . S
C695 C700 1.261 . S
C696 H663 0.930 . S
C696 N698 1.325 . S
C696 C699 1.357 . S
C697 H665 0.928 1_556 S
C697 C695 1.406 . S
C697 N698 1.261 . S
N698 Co649 2.214 1_556 S
N698 C696 1.325 . S
N698 C697 1.261 . S
C699 H669 0.931 . S
C699 C696 1.357 . S
C699 C700 1.312 . S
C700 H671 0.930 . S
C700 C695 1.261 . S
C700 C699 1.312 . S
C701 O673 1.214 . S
C701 O681 1.234 . S
C702 H674 0.929 . S
C702 C705 1.391 . S
C702 C707 1.391 . S
C703 H675 0.929 . S
C703 C704 1.390 . S
C703 N706 1.391 . S
C704 H676 0.930 . S
C704 C703 1.390 . S
C704 C705 1.392 . S
C705 H677 0.929 . S
C705 C702 1.391 . S
C705 C704 1.392 . S
N706 Co650 2.257 . S
N706 C703 1.391 . S
N706 C707 1.388 . S
C707 H678 0.930 . S
C707 C702 1.391 . S
C707 N706 1.388 . S
H708 C720 0.930 . S
H709 C722 0.930 . S
H710 C723 0.930 . S
H711 C727 0.959 . S
H712 C727 0.959 . S
H713 C727 0.961 . S
H714 C728 0.960 . S
H715 C728 0.961 . S
H716 C728 0.959 . S
H717 C731 0.929 . S
H718 C732 0.931 . S
H719 C734 0.930 . S
C720 H708 0.930 . S
C720 C721 1.399 . S
C720 C725 1.399 . S
C721 C720 1.399 . S
C721 C722 1.376 . S
C722 H709 0.930 . S
C722 C721 1.376 . S
C722 C723 1.388 . S
C723 H710 0.930 . S
C723 C722 1.388 . S
C723 C724 1.390 . S
C724 C723 1.390 . S
C724 C725 1.394 . S
C724 C730 1.465 . S
C725 C720 1.399 . S
C725 C724 1.394 . S
C725 C726 1.516 . S
C726 C725 1.516 . S
C726 C727 1.502 . S
C726 C728 1.561 . S
C726 C729 1.526 . S
C727 H711 0.959 . S
C727 H712 0.959 . S
C727 H713 0.961 . S
C727 C726 1.502 . S
C728 H714 0.960 . S
C728 H715 0.961 . S
C728 H716 0.959 . S
C728 C726 1.561 . S
C729 C726 1.526 . S
C729 C730 1.396 . S
C729 C734 1.390 . S
C730 C724 1.465 . S
C730 C729 1.396 . S
C730 C731 1.399 . S
C731 H717 0.929 . S
C731 C730 1.399 . S
C731 C732 1.385 . S
C732 H718 0.931 . S
C732 C731 1.385 . S
C732 C733 1.389 . S
C733 C732 1.389 . S
C733 C734 1.387 . S
C734 H719 0.930 . S
C734 C729 1.390 . S
C734 C733 1.387 . S
H735 C747 0.930 . S
H736 C749 0.930 . S
H737 C750 0.930 . S
H738 C754 0.959 . S
H739 C754 0.959 . S
H740 C754 0.961 . S
H741 C755 0.960 . S
H742 C755 0.961 . S
H743 C755 0.959 . S
H744 C758 0.929 . S
H745 C759 0.931 . S
H746 C761 0.930 . S
C747 H735 0.930 . S
C747 C748 1.399 . S
C747 C752 1.399 . S
C748 C747 1.399 . S
C748 C749 1.376 . S
C749 H736 0.930 . S
C749 C748 1.376 . S
C749 C750 1.388 . S
C750 H737 0.930 . S
C750 C749 1.388 . S
C750 C751 1.390 . S
C751 C750 1.390 . S
C751 C752 1.394 . S
C751 C757 1.465 . S
C752 C747 1.399 . S
C752 C751 1.394 . S
C752 C753 1.516 . S
C753 C752 1.516 . S
C753 C754 1.502 . S
C753 C755 1.561 . S
C753 C756 1.526 . S
C754 H738 0.959 . S
C754 H739 0.959 . S
C754 H740 0.961 . S
C754 C753 1.502 . S
C755 H741 0.960 . S
C755 H742 0.961 . S
C755 H743 0.959 . S
C755 C753 1.561 . S
C756 C753 1.526 . S
C756 C757 1.396 . S
C756 C761 1.390 . S
C757 C751 1.465 . S
C757 C756 1.396 . S
C757 C758 1.399 . S
C758 H744 0.929 . S
C758 C757 1.399 . S
C758 C759 1.385 . S
C759 H745 0.931 . S
C759 C758 1.385 . S
C759 C760 1.389 . S
C760 C759 1.389 . S
C760 C761 1.387 . S
C761 H746 0.930 . S
C761 C756 1.390 . S
C761 C760 1.387 . S
H762 C774 0.930 . S
H763 C776 0.930 . S
H764 C777 0.930 . S
H765 C781 0.959 . S
H766 C781 0.959 . S
H767 C781 0.961 . S
H768 C782 0.960 . S
H769 C782 0.961 . S
H770 C782 0.959 . S
H771 C785 0.929 . S
H772 C786 0.931 . S
H773 C788 0.930 . S
C774 H762 0.930 . S
C774 C775 1.399 . S
C774 C779 1.399 . S
C775 C774 1.399 . S
C775 C776 1.376 . S
C776 H763 0.930 . S
C776 C775 1.376 . S
C776 C777 1.388 . S
C777 H764 0.930 . S
C777 C776 1.388 . S
C777 C778 1.390 . S
C778 C777 1.390 . S
C778 C779 1.394 . S
C778 C784 1.465 . S
C779 C774 1.399 . S
C779 C778 1.394 . S
C779 C780 1.516 . S
C780 C779 1.516 . S
C780 C781 1.502 . S
C780 C782 1.561 . S
C780 C783 1.526 . S
C781 H765 0.959 . S
C781 H766 0.959 . S
C781 H767 0.961 . S
C781 C780 1.502 . S
C782 H768 0.960 . S
C782 H769 0.961 . S
C782 H770 0.959 . S
C782 C780 1.561 . S
C783 C780 1.526 . S
C783 C784 1.396 . S
C783 C788 1.390 . S
C784 C778 1.465 . S
C784 C783 1.396 . S
C784 C785 1.399 . S
C785 H771 0.929 . S
C785 C784 1.399 . S
C785 C786 1.385 . S
C786 H772 0.931 . S
C786 C785 1.385 . S
C786 C787 1.389 . S
C787 C786 1.389 . S
C787 C788 1.387 . S
C788 H773 0.930 . S
C788 C783 1.390 . S
C788 C787 1.387 . S
H789 C801 0.930 . S
H790 C803 0.930 . S
H791 C804 0.930 . S
H792 C808 0.959 . S
H793 C808 0.959 . S
H794 C808 0.961 . S
H795 C809 0.960 . S
H796 C809 0.961 . S
H797 C809 0.959 . S
H798 C812 0.929 . S
H799 C813 0.931 . S
H800 C815 0.930 . S
C801 H789 0.930 . S
C801 C802 1.399 . S
C801 C806 1.399 . S
C802 C801 1.399 . S
C802 C803 1.376 . S
C803 H790 0.930 . S
C803 C802 1.376 . S
C803 C804 1.388 . S
C804 H791 0.930 . S
C804 C803 1.388 . S
C804 C805 1.390 . S
C805 C804 1.390 . S
C805 C806 1.394 . S
C805 C811 1.465 . S
C806 C801 1.399 . S
C806 C805 1.394 . S
C806 C807 1.516 . S
C807 C806 1.516 . S
C807 C808 1.502 . S
C807 C809 1.561 . S
C807 C810 1.526 . S
C808 H792 0.959 . S
C808 H793 0.959 . S
C808 H794 0.961 . S
C808 C807 1.502 . S
C809 H795 0.960 . S
C809 H796 0.961 . S
C809 H797 0.959 . S
C809 C807 1.561 . S
C810 C807 1.526 . S
C810 C811 1.396 . S
C810 C815 1.390 . S
C811 C805 1.465 . S
C811 C810 1.396 . S
C811 C812 1.399 . S
C812 H798 0.929 . S
C812 C811 1.399 . S
C812 C813 1.385 . S
C813 H799 0.931 . S
C813 C812 1.385 . S
C813 C814 1.389 . S
C814 C813 1.389 . S
C814 C815 1.387 . S
C815 H800 0.930 . S
C815 C810 1.390 . S
C815 C814 1.387 . S
H816 C828 0.930 . S
H817 C830 0.930 . S
H818 C831 0.930 . S
H819 C835 0.959 . S
H820 C835 0.959 . S
H821 C835 0.961 . S
H822 C836 0.960 . S
H823 C836 0.961 . S
H824 C836 0.959 . S
H825 C839 0.929 . S
H826 C840 0.931 . S
H827 C842 0.930 . S
C828 H816 0.930 . S
C828 C829 1.399 . S
C828 C833 1.399 . S
C829 C828 1.399 . S
C829 C830 1.376 . S
C830 H817 0.930 . S
C830 C829 1.376 . S
C830 C831 1.388 . S
C831 H818 0.930 . S
C831 C830 1.388 . S
C831 C832 1.390 . S
C832 C831 1.390 . S
C832 C833 1.394 . S
C832 C838 1.465 . S
C833 C828 1.399 . S
C833 C832 1.394 . S
C833 C834 1.516 . S
C834 C833 1.516 . S
C834 C835 1.502 . S
C834 C836 1.561 . S
C834 C837 1.526 . S
C835 H819 0.959 . S
C835 H820 0.959 . S
C835 H821 0.961 . S
C835 C834 1.502 . S
C836 H822 0.960 . S
C836 H823 0.961 . S
C836 H824 0.959 . S
C836 C834 1.561 . S
C837 C834 1.526 . S
C837 C838 1.396 . S
C837 C842 1.390 . S
C838 C832 1.465 . S
C838 C837 1.396 . S
C838 C839 1.399 . S
C839 H825 0.929 . S
C839 C838 1.399 . S
C839 C840 1.385 . S
C840 H826 0.931 . S
C840 C839 1.385 . S
C840 C841 1.389 . S
C841 C840 1.389 . S
C841 C842 1.387 . S
C842 H827 0.930 . S
C842 C837 1.390 . S
C842 C841 1.387 . S
H843 C855 0.930 . S
H844 C857 0.930 . S
H845 C858 0.930 . S
H846 C862 0.959 . S
H847 C862 0.959 . S
H848 C862 0.961 . S
H849 C863 0.960 . S
H850 C863 0.961 . S
H851 C863 0.959 . S
H852 C866 0.929 . S
H853 C867 0.931 . S
H854 C869 0.930 . S
C855 H843 0.930 . S
C855 C856 1.399 . S
C855 C860 1.399 . S
C856 C855 1.399 . S
C856 C857 1.376 . S
C857 H844 0.930 . S
C857 C856 1.376 . S
C857 C858 1.388 . S
C858 H845 0.930 . S
C858 C857 1.388 . S
C858 C859 1.390 . S
C859 C858 1.390 . S
C859 C860 1.394 . S
C859 C865 1.465 . S
C860 C855 1.399 . S
C860 C859 1.394 . S
C860 C861 1.516 . S
C861 C860 1.516 . S
C861 C862 1.502 . S
C861 C863 1.561 . S
C861 C864 1.526 . S
C862 H846 0.959 . S
C862 H847 0.959 . S
C862 H848 0.961 . S
C862 C861 1.502 . S
C863 H849 0.960 . S
C863 H850 0.961 . S
C863 H851 0.959 . S
C863 C861 1.561 . S
C864 C861 1.526 . S
C864 C865 1.396 . S
C864 C869 1.390 . S
C865 C859 1.465 . S
C865 C864 1.396 . S
C865 C866 1.399 . S
C866 H852 0.929 . S
C866 C865 1.399 . S
C866 C867 1.385 . S
C867 H853 0.931 . S
C867 C866 1.385 . S
C867 C868 1.389 . S
C868 C867 1.389 . S
C868 C869 1.387 . S
C869 H854 0.930 . S
C869 C864 1.390 . S
C869 C868 1.387 . S
H870 C882 0.930 . S
H871 C884 0.930 . S
H872 C885 0.930 . S
H873 C889 0.959 . S
H874 C889 0.959 . S
H875 C889 0.961 . S
H876 C890 0.960 . S
H877 C890 0.961 . S
H878 C890 0.959 . S
H879 C893 0.929 . S
H880 C894 0.931 . S
H881 C896 0.930 . S
C882 H870 0.930 . S
C882 C883 1.399 . S
C882 C887 1.399 . S
C883 C882 1.399 . S
C883 C884 1.376 . S
C884 H871 0.930 . S
C884 C883 1.376 . S
C884 C885 1.388 . S
C885 H872 0.930 . S
C885 C884 1.388 . S
C885 C886 1.390 . S
C886 C885 1.390 . S
C886 C887 1.394 . S
C886 C892 1.465 . S
C887 C882 1.399 . S
C887 C886 1.394 . S
C887 C888 1.516 . S
C888 C887 1.516 . S
C888 C889 1.502 . S
C888 C890 1.561 . S
C888 C891 1.526 . S
C889 H873 0.959 . S
C889 H874 0.959 . S
C889 H875 0.961 . S
C889 C888 1.502 . S
C890 H876 0.960 . S
C890 H877 0.961 . S
C890 H878 0.959 . S
C890 C888 1.561 . S
C891 C888 1.526 . S
C891 C892 1.396 . S
C891 C896 1.390 . S
C892 C886 1.465 . S
C892 C891 1.396 . S
C892 C893 1.399 . S
C893 H879 0.929 . S
C893 C892 1.399 . S
C893 C894 1.385 . S
C894 H880 0.931 . S
C894 C893 1.385 . S
C894 C895 1.389 . S
C895 C894 1.389 . S
C895 C896 1.387 . S
C896 H881 0.930 . S
C896 C891 1.390 . S
C896 C895 1.387 . S
H897 C909 0.930 . S
H898 C911 0.930 . S
H899 C912 0.930 . S
H900 C916 0.959 . S
H901 C916 0.959 . S
H902 C916 0.961 . S
H903 C917 0.960 . S
H904 C917 0.961 . S
H905 C917 0.959 . S
H906 C920 0.929 . S
H907 C921 0.931 . S
H908 C923 0.930 . S
C909 H897 0.930 . S
C909 C910 1.399 . S
C909 C914 1.399 . S
C910 C909 1.399 . S
C910 C911 1.376 . S
C911 H898 0.930 . S
C911 C910 1.376 . S
C911 C912 1.388 . S
C912 H899 0.930 . S
C912 C911 1.388 . S
C912 C913 1.390 . S
C913 C912 1.390 . S
C913 C914 1.394 . S
C913 C919 1.465 . S
C914 C909 1.399 . S
C914 C913 1.394 . S
C914 C915 1.516 . S
C915 C914 1.516 . S
C915 C916 1.502 . S
C915 C917 1.561 . S
C915 C918 1.526 . S
C916 H900 0.959 . S
C916 H901 0.959 . S
C916 H902 0.961 . S
C916 C915 1.502 . S
C917 H903 0.960 . S
C917 H904 0.961 . S
C917 H905 0.959 . S
C917 C915 1.561 . S
C918 C915 1.526 . S
C918 C919 1.396 . S
C918 C923 1.390 . S
C919 C913 1.465 . S
C919 C918 1.396 . S
C919 C920 1.399 . S
C920 H906 0.929 . S
C920 C919 1.399 . S
C920 C921 1.385 . S
C921 H907 0.931 . S
C921 C920 1.385 . S
C921 C922 1.389 . S
C922 C921 1.389 . S
C922 C923 1.387 . S
C923 H908 0.930 . S
C923 C918 1.390 . S
C923 C922 1.387 . S
H924 C936 0.930 . S
H925 C938 0.930 . S
H926 C939 0.930 . S
H927 C943 0.959 . S
H928 C943 0.959 . S
H929 C943 0.961 . S
H930 C944 0.960 . S
H931 C944 0.961 . S
H932 C944 0.959 . S
H933 C947 0.929 . S
H934 C948 0.931 . S
H935 C950 0.930 . S
C936 H924 0.930 . S
C936 C937 1.399 . S
C936 C941 1.399 . S
C937 C936 1.399 . S
C937 C938 1.376 1_554 S
C938 H925 0.930 . S
C938 C937 1.376 1_556 S
C938 C939 1.388 . S
C939 H926 0.930 . S
C939 C938 1.388 . S
C939 C940 1.390 . S
C940 C939 1.390 . S
C940 C941 1.394 1_556 S
C940 C946 1.465 . S
C941 C936 1.399 . S
C941 C940 1.394 1_554 S
C941 C942 1.516 . S
C942 C941 1.516 . S
C942 C943 1.502 . S
C942 C944 1.561 1_554 S
C942 C945 1.526 . S
C943 H927 0.959 . S
C943 H928 0.959 . S
C943 H929 0.961 . S
C943 C942 1.502 . S
C944 H930 0.960 . S
C944 H931 0.961 . S
C944 H932 0.959 . S
C944 C942 1.561 1_556 S
C945 C942 1.526 . S
C945 C946 1.396 1_554 S
C945 C950 1.390 . S
C946 C940 1.465 . S
C946 C945 1.396 1_556 S
C946 C947 1.399 . S
C947 H933 0.929 . S
C947 C946 1.399 . S
C947 C948 1.385 . S
C948 H934 0.931 . S
C948 C947 1.385 . S
C948 C949 1.395 . S
C949 C948 1.395 . S
C949 C950 1.382 1_556 S
C950 H935 0.930 . S
C950 C945 1.390 . S
C950 C949 1.382 1_554 S
H951 C963 0.930 . S
H952 C965 0.930 . S
H953 C966 0.930 . S
H954 C970 0.959 . S
H955 C970 0.959 . S
H956 C970 0.961 . S
H957 C971 0.960 . S
H958 C971 0.961 . S
H959 C971 0.959 . S
H960 C974 0.929 . S
H961 C975 0.931 . S
H962 C977 0.930 . S
C963 H951 0.930 . S
C963 C964 1.399 . S
C963 C968 1.399 . S
C964 C963 1.399 . S
C964 C965 1.376 . S
C965 H952 0.930 . S
C965 C964 1.376 . S
C965 C966 1.388 . S
C966 H953 0.930 . S
C966 C965 1.388 . S
C966 C967 1.390 . S
C967 C966 1.390 . S
C967 C968 1.394 . S
C967 C973 1.465 . S
C968 C963 1.399 . S
C968 C967 1.394 . S
C968 C969 1.516 . S
C969 C968 1.516 . S
C969 C970 1.502 . S
C969 C971 1.561 . S
C969 C972 1.526 . S
C970 H954 0.959 . S
C970 H955 0.959 . S
C970 H956 0.961 . S
C970 C969 1.502 . S
C971 H957 0.960 . S
C971 H958 0.961 . S
C971 H959 0.959 . S
C971 C969 1.561 . S
C972 C969 1.526 . S
C972 C973 1.396 . S
C972 C977 1.390 . S
C973 C967 1.465 . S
C973 C972 1.396 . S
C973 C974 1.399 . S
C974 H960 0.929 . S
C974 C973 1.399 . S
C974 C975 1.385 . S
C975 H961 0.931 . S
C975 C974 1.385 . S
C975 C976 1.389 . S
C976 C975 1.389 . S
C976 C977 1.387 . S
C977 H962 0.930 . S
C977 C972 1.390 . S
C977 C976 1.387 . S
H978 C990 0.930 . S
H979 C992 0.930 . S
H980 C993 0.930 . S
H981 C997 0.959 . S
H982 C997 0.959 . S
H983 C997 0.961 . S
H984 C998 0.960 . S
H985 C998 0.961 . S
H986 C998 0.959 . S
H987 C1001 0.929 . S
H988 C1002 0.931 . S
H989 C1004 0.930 . S
C990 H978 0.930 . S
C990 C991 1.399 . S
C990 C995 1.399 . S
C991 C990 1.399 . S
C991 C992 1.376 . S
C992 H979 0.930 . S
C992 C991 1.376 . S
C992 C993 1.388 . S
C993 H980 0.930 . S
C993 C992 1.388 . S
C993 C994 1.390 . S
C994 C993 1.390 . S
C994 C995 1.394 . S
C994 C1000 1.465 . S
C995 C990 1.399 . S
C995 C994 1.394 . S
C995 C996 1.516 . S
C996 C995 1.516 . S
C996 C997 1.502 . S
C996 C998 1.561 . S
C996 C999 1.526 . S
C997 H981 0.959 . S
C997 H982 0.959 . S
C997 H983 0.961 . S
C997 C996 1.502 . S
C998 H984 0.960 . S
C998 H985 0.961 . S
C998 H986 0.959 . S
C998 C996 1.561 . S
C999 C996 1.526 . S
C999 C1000 1.396 . S
C999 C1004 1.390 . S
C1000 C994 1.465 . S
C1000 C999 1.396 . S
C1000 C1001 1.399 . S
C1001 H987 0.929 . S
C1001 C1000 1.399 . S
C1001 C1002 1.385 . S
C1002 H988 0.931 . S
C1002 C1001 1.385 . S
C1002 C1003 1.389 . S
C1003 C1002 1.389 . S
C1003 C1004 1.387 . S
C1004 H989 0.930 . S
C1004 C999 1.390 . S
C1004 C1003 1.387 . S
H1005 C1017 0.930 . S
H1006 C1019 0.930 . S
H1007 C1020 0.930 . S
H1008 C1024 0.959 . S
H1009 C1024 0.959 . S
H1010 C1024 0.961 . S
H1011 C1025 0.960 . S
H1012 C1025 0.961 . S
H1013 C1025 0.959 . S
H1014 C1028 0.929 . S
H1015 C1029 0.931 . S
H1016 C1031 0.930 . S
C1017 H1005 0.930 . S
C1017 C1018 1.399 1_554 S
C1017 C1022 1.399 . S
C1018 C1017 1.399 1_556 S
C1018 C1019 1.376 . S
C1019 H1006 0.930 . S
C1019 C1018 1.376 . S
C1019 C1020 1.388 . S
C1020 H1007 0.930 . S
C1020 C1019 1.388 . S
C1020 C1021 1.390 . S
C1021 C1020 1.390 . S
C1021 C1022 1.394 1_556 S
C1021 C1027 1.465 . S
C1022 C1017 1.399 . S
C1022 C1021 1.394 1_554 S
C1022 C1023 1.516 . S
C1023 C1022 1.516 . S
C1023 C1024 1.502 . S
C1023 C1025 1.561 1_554 S
C1023 C1026 1.526 . S
C1024 H1008 0.959 . S
C1024 H1009 0.959 . S
C1024 H1010 0.961 . S
C1024 C1023 1.502 . S
C1025 H1011 0.960 . S
C1025 H1012 0.961 . S
C1025 H1013 0.959 . S
C1025 C1023 1.561 1_556 S
C1026 C1023 1.526 . S
C1026 C1027 1.396 1_554 S
C1026 C1031 1.390 . S
C1027 C1021 1.465 . S
C1027 C1026 1.396 1_556 S
C1027 C1028 1.399 . S
C1028 H1014 0.929 . S
C1028 C1027 1.399 . S
C1028 C1029 1.385 . S
C1029 H1015 0.931 . S
C1029 C1028 1.385 . S
C1029 C1030 1.389 1_556 S
C1030 C1029 1.389 1_554 S
C1030 C1031 1.387 . S
C1031 H1016 0.930 . S
C1031 C1026 1.390 . S
C1031 C1030 1.387 . S
H1032 C1044 0.930 . S
H1033 C1046 0.930 . S
H1034 C1047 0.930 . S
H1035 C1051 0.959 . S
H1036 C1051 0.959 . S
H1037 C1051 0.924 1_545 S
H1038 C1052 0.960 . S
H1039 C1052 0.961 1_565 S
H1040 C1052 0.959 . S
H1041 C1055 0.929 . S
H1042 C1056 0.931 . S
H1043 C1058 0.930 . S
C1044 H1032 0.930 . S
C1044 C1045 1.399 . S
C1044 C1049 1.399 . S
C1045 C1044 1.399 . S
C1045 C1046 1.376 . S
C1046 H1033 0.930 . S
C1046 C1045 1.376 . S
C1046 C1047 1.388 . S
C1047 H1034 0.930 . S
C1047 C1046 1.388 . S
C1047 C1048 1.390 . S
C1048 C1047 1.390 . S
C1048 C1049 1.394 . S
C1048 C1054 1.465 1_545 S
C1049 C1044 1.399 . S
C1049 C1048 1.394 . S
C1049 C1050 1.516 1_545 S
C1050 C1049 1.516 1_565 S
C1050 C1051 1.502 . S
C1050 C1052 1.561 1_565 S
C1050 C1053 1.526 . S
C1051 H1035 0.959 . S
C1051 H1036 0.959 . S
C1051 H1037 0.924 1_565 S
C1051 C1050 1.502 . S
C1052 H1038 0.960 . S
C1052 H1039 0.961 1_545 S
C1052 H1040 0.959 . S
C1052 C1050 1.561 1_545 S
C1053 C1050 1.526 . S
C1053 C1054 1.396 . S
C1053 C1058 1.390 . S
C1054 C1048 1.465 1_565 S
C1054 C1053 1.396 . S
C1054 C1055 1.399 . S
C1055 H1041 0.929 . S
C1055 C1054 1.399 . S
C1055 C1056 1.385 . S
C1056 H1042 0.931 . S
C1056 C1055 1.385 . S
C1056 C1057 1.389 . S
C1057 C1056 1.389 . S
C1057 C1058 1.387 . S
C1058 H1043 0.930 . S
C1058 C1053 1.390 . S
C1058 C1057 1.387 . S
H1059 C1071 0.930 . S
H1060 C1073 0.930 . S
H1061 C1074 0.930 . S
H1062 C1078 0.959 . S
H1063 C1078 0.959 . S
H1064 C1078 0.961 . S
H1065 C1079 0.960 . S
H1066 C1079 0.961 . S
H1067 C1079 0.959 . S
H1068 C1082 0.929 . S
H1069 C1083 0.931 . S
H1070 C1085 0.930 . S
C1071 H1059 0.930 . S
C1071 C1072 1.399 . S
C1071 C1076 1.399 . S
C1072 C1071 1.399 . S
C1072 C1073 1.376 . S
C1073 H1060 0.930 . S
C1073 C1072 1.376 . S
C1073 C1074 1.388 . S
C1074 H1061 0.930 . S
C1074 C1073 1.388 . S
C1074 C1075 1.390 . S
C1075 C1074 1.390 . S
C1075 C1076 1.394 . S
C1075 C1081 1.465 . S
C1076 C1071 1.399 . S
C1076 C1075 1.394 . S
C1076 C1077 1.516 . S
C1077 C1076 1.516 . S
C1077 C1078 1.502 . S
C1077 C1079 1.561 . S
C1077 C1080 1.526 . S
C1078 H1062 0.959 . S
C1078 H1063 0.959 . S
C1078 H1064 0.961 . S
C1078 C1077 1.502 . S
C1079 H1065 0.960 . S
C1079 H1066 0.961 . S
C1079 H1067 0.959 . S
C1079 C1077 1.561 . S
C1080 C1077 1.526 . S
C1080 C1081 1.396 . S
C1080 C1085 1.390 . S
C1081 C1075 1.465 . S
C1081 C1080 1.396 . S
C1081 C1082 1.399 . S
C1082 H1068 0.929 . S
C1082 C1081 1.399 . S
C1082 C1083 1.385 . S
C1083 H1069 0.931 . S
C1083 C1082 1.385 . S
C1083 C1084 1.389 . S
C1084 C1083 1.389 . S
C1084 C1085 1.387 . S
C1085 H1070 0.930 . S
C1085 C1080 1.390 . S
C1085 C1084 1.387 . S
H1086 C1098 0.930 . S
H1087 C1100 0.937 . S
H1088 C1101 0.930 . S
H1089 C1105 0.959 . S
H1090 C1105 0.959 . S
H1091 C1105 0.961 . S
H1092 C1106 0.960 1_655 S
H1093 C1106 0.961 . S
H1094 C1106 0.953 1_655 S
H1095 C1109 0.929 . S
H1096 C1110 0.931 . S
H1097 C1112 0.930 . S
C1098 H1086 0.930 . S
C1098 C1099 1.399 . S
C1098 C1103 1.399 . S
C1099 C1098 1.399 . S
C1099 C1100 1.368 1_556 S
C1100 H1087 0.937 . S
C1100 C1099 1.368 1_554 S
C1100 C1101 1.390 . S
C1101 H1088 0.930 . S
C1101 C1100 1.390 . S
C1101 C1102 1.390 1_554 S
C1102 C1101 1.390 1_556 S
C1102 C1103 1.394 . S
C1102 C1108 1.465 1_655 S
C1103 C1098 1.399 . S
C1103 C1102 1.394 . S
C1103 C1104 1.516 1_655 S
C1104 C1103 1.516 1_455 S
C1104 C1105 1.502 . S
C1104 C1106 1.561 . S
C1104 C1107 1.526 . S
C1105 H1089 0.959 . S
C1105 H1090 0.959 . S
C1105 H1091 0.961 . S
C1105 C1104 1.502 . S
C1106 H1092 0.960 1_455 S
C1106 H1093 0.961 . S
C1106 H1094 0.953 1_455 S
C1106 C1104 1.561 . S
C1107 C1104 1.526 . S
C1107 C1108 1.396 . S
C1107 C1112 1.390 . S
C1108 C1102 1.465 1_455 S
C1108 C1107 1.396 . S
C1108 C1109 1.399 1_556 S
C1109 H1095 0.929 . S
C1109 C1108 1.399 1_554 S
C1109 C1110 1.385 . S
C1110 H1096 0.931 . S
C1110 C1109 1.385 . S
C1110 C1111 1.389 1_554 S
C1111 C1110 1.389 1_556 S
C1111 C1112 1.387 . S
C1112 H1097 0.930 . S
C1112 C1107 1.390 . S
C1112 C1111 1.387 . S
H1113 C1125 0.930 . S
H1114 C1127 0.930 . S
H1115 C1128 0.930 . S
H1116 C1132 0.954 . S
H1117 C1132 0.959 . S
H1118 C1132 0.961 1_455 S
H1119 C1133 0.960 . S
H1120 C1133 0.961 . S
H1121 C1133 0.959 . S
H1122 C1136 0.929 . S
H1123 C1137 0.931 . S
H1124 C1139 0.930 . S
C1125 H1113 0.930 . S
C1125 C1126 1.399 . S
C1125 C1130 1.399 . S
C1126 C1125 1.399 . S
C1126 C1127 1.376 . S
C1127 H1114 0.930 . S
C1127 C1126 1.376 . S
C1127 C1128 1.388 . S
C1128 H1115 0.930 . S
C1128 C1127 1.388 . S
C1128 C1129 1.390 . S
C1129 C1128 1.390 . S
C1129 C1130 1.394 . S
C1129 C1135 1.465 1_455 S
C1130 C1125 1.399 . S
C1130 C1129 1.394 . S
C1130 C1131 1.516 1_455 S
C1131 C1130 1.516 1_655 S
C1131 C1132 1.502 . S
C1131 C1133 1.561 . S
C1131 C1134 1.526 . S
C1132 H1116 0.954 . S
C1132 H1117 0.959 . S
C1132 H1118 0.961 1_655 S
C1132 C1131 1.502 . S
C1133 H1119 0.960 . S
C1133 H1120 0.961 . S
C1133 H1121 0.959 . S
C1133 C1131 1.561 . S
C1134 C1131 1.526 . S
C1134 C1135 1.396 . S
C1134 C1139 1.390 . S
C1135 C1129 1.465 1_655 S
C1135 C1134 1.396 . S
C1135 C1136 1.399 . S
C1136 H1122 0.929 . S
C1136 C1135 1.399 . S
C1136 C1137 1.385 . S
C1137 H1123 0.931 . S
C1137 C1136 1.385 . S
C1137 C1138 1.389 . S
C1138 C1137 1.389 . S
C1138 C1139 1.387 . S
C1139 H1124 0.930 . S
C1139 C1134 1.390 . S
C1139 C1138 1.387 . S
H1140 C1152 0.930 . S
H1141 C1154 0.930 . S
H1142 C1155 0.930 . S
H1143 C1159 0.959 . S
H1144 C1159 0.959 1_565 S
H1145 C1159 0.961 . S
H1146 C1160 0.960 1_545 S
H1147 C1160 0.961 . S
H1148 C1160 0.959 . S
H1149 C1163 0.929 . S
H1150 C1164 0.931 . S
H1151 C1166 0.930 . S
C1152 H1140 0.930 . S
C1152 C1153 1.399 . S
C1152 C1157 1.399 . S
C1153 C1152 1.399 . S
C1153 C1154 1.376 . S
C1154 H1141 0.930 . S
C1154 C1153 1.376 . S
C1154 C1155 1.388 . S
C1155 H1142 0.930 . S
C1155 C1154 1.388 . S
C1155 C1156 1.390 . S
C1156 C1155 1.390 . S
C1156 C1157 1.394 . S
C1156 C1162 1.465 1_545 S
C1157 C1152 1.399 . S
C1157 C1156 1.394 . S
C1157 C1158 1.516 1_545 S
C1158 C1157 1.516 1_565 S
C1158 C1159 1.502 1_565 S
C1158 C1160 1.561 . S
C1158 C1161 1.526 . S
C1159 H1143 0.959 . S
C1159 H1144 0.959 1_545 S
C1159 H1145 0.961 . S
C1159 C1158 1.502 1_545 S
C1160 H1146 0.960 1_565 S
C1160 H1147 0.961 . S
C1160 H1148 0.959 . S
C1160 C1158 1.561 . S
C1161 C1158 1.526 . S
C1161 C1162 1.396 . S
C1161 C1166 1.390 . S
C1162 C1156 1.465 1_565 S
C1162 C1161 1.396 . S
C1162 C1163 1.399 . S
C1163 H1149 0.929 . S
C1163 C1162 1.399 . S
C1163 C1164 1.385 . S
C1164 H1150 0.931 . S
C1164 C1163 1.385 . S
C1164 C1165 1.389 . S
C1165 C1164 1.389 . S
C1165 C1166 1.387 . S
C1166 H1151 0.930 . S
C1166 C1161 1.390 . S
C1166 C1165 1.387 . S
H1167 C1179 0.930 1_556 S
H1168 C1181 0.930 . S
H1169 C1182 0.930 . S
H1170 C1186 0.959 . S
H1171 C1186 0.959 . S
H1172 C1186 0.961 . S
H1173 C1187 0.960 . S
H1174 C1187 0.961 . S
H1175 C1187 0.959 . S
H1176 C1190 0.929 . S
H1177 C1191 0.931 . S
H1178 C1193 0.930 1_556 S
C1179 H1167 0.930 1_554 S
C1179 C1180 1.399 . S
C1179 C1184 1.399 . S
C1180 C1179 1.399 . S
C1180 C1181 1.376 . S
C1181 H1168 0.930 . S
C1181 C1180 1.376 . S
C1181 C1182 1.388 . S
C1182 H1169 0.930 . S
C1182 C1181 1.388 . S
C1182 C1183 1.390 . S
C1183 C1182 1.390 . S
C1183 C1184 1.394 . S
C1183 C1189 1.465 . S
C1184 C1179 1.399 . S
C1184 C1183 1.394 . S
C1184 C1185 1.516 1_554 S
C1185 C1184 1.516 1_556 S
C1185 C1186 1.502 . S
C1185 C1187 1.561 . S
C1185 C1188 1.526 1_556 S
C1186 H1170 0.959 . S
C1186 H1171 0.959 . S
C1186 H1172 0.961 . S
C1186 C1185 1.502 . S
C1187 H1173 0.960 . S
C1187 H1174 0.961 . S
C1187 H1175 0.959 . S
C1187 C1185 1.561 . S
C1188 C1185 1.526 1_554 S
C1188 C1189 1.396 . S
C1188 C1193 1.390 . S
C1189 C1183 1.465 . S
C1189 C1188 1.396 . S
C1189 C1190 1.399 . S
C1190 H1176 0.929 . S
C1190 C1189 1.399 . S
C1190 C1191 1.385 . S
C1191 H1177 0.931 . S
C1191 C1190 1.385 . S
C1191 C1192 1.389 . S
C1192 C1191 1.389 . S
C1192 C1193 1.387 . S
C1193 H1178 0.930 1_554 S
C1193 C1188 1.390 . S
C1193 C1192 1.387 . S
H1194 C1206 0.930 . S
H1195 C1208 0.930 . S
H1196 C1209 0.930 . S
H1197 C1213 0.959 . S
H1198 C1213 0.959 . S
H1199 C1213 0.961 . S
H1200 C1214 0.960 . S
H1201 C1214 0.961 . S
H1202 C1214 0.959 . S
H1203 C1217 0.929 . S
H1204 C1218 0.931 . S
H1205 C1220 0.930 . S
C1206 H1194 0.930 . S
C1206 C1207 1.399 . S
C1206 C1211 1.399 . S
C1207 C1206 1.399 . S
C1207 C1208 1.376 . S
C1208 H1195 0.930 . S
C1208 C1207 1.376 . S
C1208 C1209 1.388 . S
C1209 H1196 0.930 . S
C1209 C1208 1.388 . S
C1209 C1210 1.390 . S
C1210 C1209 1.390 . S
C1210 C1211 1.394 . S
C1210 C1216 1.465 . S
C1211 C1206 1.399 . S
C1211 C1210 1.394 . S
C1211 C1212 1.516 . S
C1212 C1211 1.516 . S
C1212 C1213 1.502 . S
C1212 C1214 1.561 . S
C1212 C1215 1.526 . S
C1213 H1197 0.959 . S
C1213 H1198 0.959 . S
C1213 H1199 0.961 . S
C1213 C1212 1.502 . S
C1214 H1200 0.960 . S
C1214 H1201 0.961 . S
C1214 H1202 0.959 . S
C1214 C1212 1.561 . S
C1215 C1212 1.526 . S
C1215 C1216 1.396 . S
C1215 C1220 1.390 . S
C1216 C1210 1.465 . S
C1216 C1215 1.396 . S
C1216 C1217 1.399 . S
C1217 H1203 0.929 . S
C1217 C1216 1.399 . S
C1217 C1218 1.385 . S
C1218 H1204 0.931 . S
C1218 C1217 1.385 . S
C1218 C1219 1.389 . S
C1219 C1218 1.389 . S
C1219 C1220 1.387 . S
C1220 H1205 0.930 . S
C1220 C1215 1.390 . S
C1220 C1219 1.387 . S
H1221 C1233 0.930 . S
H1222 C1235 0.930 . S
H1223 C1236 0.930 . S
H1224 C1240 0.959 . S
H1225 C1240 0.959 . S
H1226 C1240 0.961 . S
H1227 C1241 0.960 . S
H1228 C1241 0.961 . S
H1229 C1241 0.959 . S
H1230 C1244 0.929 . S
H1231 C1245 0.931 . S
H1232 C1247 0.930 . S
C1233 H1221 0.930 . S
C1233 C1234 1.399 . S
C1233 C1238 1.399 . S
C1234 C1233 1.399 . S
C1234 C1235 1.376 . S
C1235 H1222 0.930 . S
C1235 C1234 1.376 . S
C1235 C1236 1.388 . S
C1236 H1223 0.930 . S
C1236 C1235 1.388 . S
C1236 C1237 1.390 . S
C1237 C1236 1.390 . S
C1237 C1238 1.394 . S
C1237 C1243 1.465 . S
C1238 C1233 1.399 . S
C1238 C1237 1.394 . S
C1238 C1239 1.516 . S
C1239 C1238 1.516 . S
C1239 C1240 1.502 . S
C1239 C1241 1.561 . S
C1239 C1242 1.526 . S
C1240 H1224 0.959 . S
C1240 H1225 0.959 . S
C1240 H1226 0.961 . S
C1240 C1239 1.502 . S
C1241 H1227 0.960 . S
C1241 H1228 0.961 . S
C1241 H1229 0.959 . S
C1241 C1239 1.561 . S
C1242 C1239 1.526 . S
C1242 C1243 1.396 . S
C1242 C1247 1.390 . S
C1243 C1237 1.465 . S
C1243 C1242 1.396 . S
C1243 C1244 1.399 . S
C1244 H1230 0.929 . S
C1244 C1243 1.399 . S
C1244 C1245 1.385 . S
C1245 H1231 0.931 . S
C1245 C1244 1.385 . S
C1245 C1246 1.389 . S
C1246 C1245 1.389 . S
C1246 C1247 1.387 . S
C1247 H1232 0.930 . S
C1247 C1242 1.390 . S
C1247 C1246 1.387 . S
H1248 C1260 0.930 . S
H1249 C1262 0.930 . S
H1250 C1263 0.930 . S
H1251 C1267 0.959 . S
H1252 C1267 0.959 . S
H1253 C1267 0.961 . S
H1254 C1268 0.960 . S
H1255 C1268 0.961 . S
H1256 C1268 0.959 . S
H1257 C1271 0.929 . S
H1258 C1272 0.931 . S
H1259 C1274 0.930 . S
C1260 H1248 0.930 . S
C1260 C1261 1.399 . S
C1260 C1265 1.399 . S
C1261 C1260 1.399 . S
C1261 C1262 1.376 . S
C1262 H1249 0.930 . S
C1262 C1261 1.376 . S
C1262 C1263 1.388 . S
C1263 H1250 0.930 . S
C1263 C1262 1.388 . S
C1263 C1264 1.390 . S
C1264 C1263 1.390 . S
C1264 C1265 1.394 . S
C1264 C1270 1.465 . S
C1265 C1260 1.399 . S
C1265 C1264 1.394 . S
C1265 C1266 1.516 . S
C1266 C1265 1.516 . S
C1266 C1267 1.502 . S
C1266 C1268 1.561 . S
C1266 C1269 1.526 . S
C1267 H1251 0.959 . S
C1267 H1252 0.959 . S
C1267 H1253 0.961 . S
C1267 C1266 1.502 . S
C1268 H1254 0.960 . S
C1268 H1255 0.961 . S
C1268 H1256 0.959 . S
C1268 C1266 1.561 . S
C1269 C1266 1.526 . S
C1269 C1270 1.396 . S
C1269 C1274 1.390 . S
C1270 C1264 1.465 . S
C1270 C1269 1.396 . S
C1270 C1271 1.399 . S
C1271 H1257 0.929 . S
C1271 C1270 1.399 . S
C1271 C1272 1.385 . S
C1272 H1258 0.931 . S
C1272 C1271 1.385 . S
C1272 C1273 1.389 . S
C1273 C1272 1.389 . S
C1273 C1274 1.387 . S
C1274 H1259 0.930 . S
C1274 C1269 1.390 . S
C1274 C1273 1.387 . S
H1275 C1287 0.930 . S
H1276 C1289 0.930 . S
H1277 C1290 0.930 . S
H1278 C1294 0.959 . S
H1279 C1294 0.959 . S
H1280 C1294 0.961 . S
H1281 C1295 0.960 . S
H1282 C1295 0.961 . S
H1283 C1295 0.959 . S
H1284 C1298 0.929 . S
H1285 C1299 0.931 . S
H1286 C1301 0.930 . S
C1287 H1275 0.930 . S
C1287 C1288 1.399 . S
C1287 C1292 1.399 . S
C1288 C1287 1.399 . S
C1288 C1289 1.376 . S
C1289 H1276 0.930 . S
C1289 C1288 1.376 . S
C1289 C1290 1.388 . S
C1290 H1277 0.930 . S
C1290 C1289 1.388 . S
C1290 C1291 1.390 . S
C1291 C1290 1.390 . S
C1291 C1292 1.394 . S
C1291 C1297 1.465 . S
C1292 C1287 1.399 . S
C1292 C1291 1.394 . S
C1292 C1293 1.516 . S
C1293 C1292 1.516 . S
C1293 C1294 1.502 . S
C1293 C1295 1.561 . S
C1293 C1296 1.526 . S
C1294 H1278 0.959 . S
C1294 H1279 0.959 . S
C1294 H1280 0.961 . S
C1294 C1293 1.502 . S
C1295 H1281 0.960 . S
C1295 H1282 0.961 . S
C1295 H1283 0.959 . S
C1295 C1293 1.561 . S
C1296 C1293 1.526 . S
C1296 C1297 1.396 . S
C1296 C1301 1.390 . S
C1297 C1291 1.465 . S
C1297 C1296 1.396 . S
C1297 C1298 1.399 . S
C1298 H1284 0.929 . S
C1298 C1297 1.399 . S
C1298 C1299 1.385 . S
C1299 H1285 0.931 . S
C1299 C1298 1.385 . S
C1299 C1300 1.389 . S
C1300 C1299 1.389 . S
C1300 C1301 1.387 . S
C1301 H1286 0.930 . S
C1301 C1296 1.390 . S
C1301 C1300 1.387 . S
H1302 C1314 0.930 . S
H1303 C1316 0.930 . S
H1304 C1317 0.930 . S
H1305 C1321 0.959 . S
H1306 C1321 0.959 . S
H1307 C1321 0.961 . S
H1308 C1322 0.960 . S
H1309 C1322 0.961 . S
H1310 C1322 0.959 . S
H1311 C1325 0.929 . S
H1312 C1326 0.931 . S
H1313 C1328 0.930 . S
C1314 H1302 0.930 . S
C1314 C1315 1.399 . S
C1314 C1319 1.399 . S
C1315 C1314 1.399 . S
C1315 C1316 1.376 . S
C1316 H1303 0.930 . S
C1316 C1315 1.376 . S
C1316 C1317 1.388 . S
C1317 H1304 0.930 . S
C1317 C1316 1.388 . S
C1317 C1318 1.390 . S
C1318 C1317 1.390 . S
C1318 C1319 1.394 . S
C1318 C1324 1.465 . S
C1319 C1314 1.399 . S
C1319 C1318 1.394 . S
C1319 C1320 1.516 . S
C1320 C1319 1.516 . S
C1320 C1321 1.502 . S
C1320 C1322 1.561 . S
C1320 C1323 1.526 . S
C1321 H1305 0.959 . S
C1321 H1306 0.959 . S
C1321 H1307 0.961 . S
C1321 C1320 1.502 . S
C1322 H1308 0.960 . S
C1322 H1309 0.961 . S
C1322 H1310 0.959 . S
C1322 C1320 1.561 . S
C1323 C1320 1.526 . S
C1323 C1324 1.396 . S
C1323 C1328 1.390 . S
C1324 C1318 1.465 . S
C1324 C1323 1.396 . S
C1324 C1325 1.399 . S
C1325 H1311 0.929 . S
C1325 C1324 1.399 . S
C1325 C1326 1.385 . S
C1326 H1312 0.931 . S
C1326 C1325 1.385 . S
C1326 C1327 1.389 . S
C1327 C1326 1.389 . S
C1327 C1328 1.387 . S
C1328 H1313 0.930 . S
C1328 C1323 1.390 . S
C1328 C1327 1.387 . S
H1329 C1341 0.930 . S
H1330 C1343 0.930 . S
H1331 C1344 0.930 . S
H1332 C1348 0.959 . S
H1333 C1348 0.959 . S
H1334 C1348 0.961 . S
H1335 C1349 0.960 . S
H1336 C1349 0.961 . S
H1337 C1349 0.959 . S
H1338 C1352 0.929 . S
H1339 C1353 0.931 . S
H1340 C1355 0.930 . S
C1341 H1329 0.930 . S
C1341 C1342 1.399 . S
C1341 C1346 1.399 . S
C1342 C1341 1.399 . S
C1342 C1343 1.376 . S
C1343 H1330 0.930 . S
C1343 C1342 1.376 . S
C1343 C1344 1.388 . S
C1344 H1331 0.930 . S
C1344 C1343 1.388 . S
C1344 C1345 1.390 . S
C1345 C1344 1.390 . S
C1345 C1346 1.394 . S
C1345 C1351 1.465 . S
C1346 C1341 1.399 . S
C1346 C1345 1.394 . S
C1346 C1347 1.516 . S
C1347 C1346 1.516 . S
C1347 C1348 1.502 . S
C1347 C1349 1.561 . S
C1347 C1350 1.526 . S
C1348 H1332 0.959 . S
C1348 H1333 0.959 . S
C1348 H1334 0.961 . S
C1348 C1347 1.502 . S
C1349 H1335 0.960 . S
C1349 H1336 0.961 . S
C1349 H1337 0.959 . S
C1349 C1347 1.561 . S
C1350 C1347 1.526 . S
C1350 C1351 1.396 . S
C1350 C1355 1.390 . S
C1351 C1345 1.465 . S
C1351 C1350 1.396 . S
C1351 C1352 1.399 . S
C1352 H1338 0.929 . S
C1352 C1351 1.399 . S
C1352 C1353 1.385 . S
C1353 H1339 0.931 . S
C1353 C1352 1.385 . S
C1353 C1354 1.389 . S
C1354 C1353 1.389 . S
C1354 C1355 1.387 . S
C1355 H1340 0.930 . S
C1355 C1350 1.390 . S
C1355 C1354 1.387 . S
C721 C33 1.814 . S
C733 C623 1.777 . S
C748 C92 1.825 . S
C760 C682 1.757 . S
C775 C387 1.758 . S
C787 C151 1.812 . S
C802 C210 1.816 . S
C814 C446 1.775 . S
C829 C505 1.772 . S
C841 C269 1.794 . S
C856 C564 1.818 . S
C868 C328 1.756 . S
C883 C406 0.602 . S
C895 C52 0.633 . S
C910 C465 0.608 . S
C922 C111 0.633 . S
C937 C524 0.632 . S
C949 C170 0.611 . S
C964 C229 0.621 . S
C976 C583 0.599 . S
C991 C288 0.623 . S
C1003 C642 0.598 . S
C1018 C347 0.601 . S
C1030 C701 0.620 . S
C1045 C5 1.499 . S
C1057 C182 1.513 . S
C1072 C64 1.500 . S
C1084 C241 1.520 . S
C1099 C123 1.502 . S
C1111 C300 1.524 . S
C1126 C536 1.535 . S
C1138 C359 1.543 . S
C1153 C595 1.542 . S
C1165 C418 1.536 . S
C1180 C654 1.543 . S
C1192 C477 1.535 . S
C1207 C3 1.398 . S
C1219 C475 1.400 . S
C1234 C534 1.315 . S
C1246 C62 1.323 . S
C1261 C121 1.311 . S
C1273 C593 1.310 . S
C1288 C652 1.397 . S
C1300 C180 1.400 . S
C1315 C239 1.395 . S
C1327 C357 1.388 . S
C1342 C298 1.360 . S
C1354 C416 1.371 . S
