# Generated by pormake.
# Topology sog, (5)-cn, num edge types: 1
# Building blocks:
#     Node 0, Type 0, BuildingBlock: BEQFEK_clean_sbu_0, # of connection points: 5
#     Node 1, Type 0, BuildingBlock: BEQFEK_clean_sbu_0, # of connection points: 5
#     Node 2, Type 0, BuildingBlock: BEQFEK_clean_sbu_0, # of connection points: 5
#     Node 3, Type 0, BuildingBlock: BEQFEK_clean_sbu_0, # of connection points: 5
#     Node 4, Type 0, BuildingBlock: BEQFEK_clean_sbu_0, # of connection points: 5
#     Node 5, Type 0, BuildingBlock: BEQFEK_clean_sbu_0, # of connection points: 5
#     Node 6, Type 0, BuildingBlock: BEQFEK_clean_sbu_0, # of connection points: 5
#     Node 7, Type 0, BuildingBlock: BEQFEK_clean_sbu_0, # of connection points: 5
#     Node 8, Type 0, BuildingBlock: BEQFEK_clean_sbu_0, # of connection points: 5
#     Node 9, Type 0, BuildingBlock: BEQFEK_clean_sbu_0, # of connection points: 5
#     Node 10, Type 0, BuildingBlock: BEQFEK_clean_sbu_0, # of connection points: 5
#     Node 11, Type 0, BuildingBlock: BEQFEK_clean_sbu_0, # of connection points: 5
#     Node 12, Type 0, BuildingBlock: BEQFEK_clean_sbu_0, # of connection points: 5
#     Node 13, Type 0, BuildingBlock: BEQFEK_clean_sbu_0, # of connection points: 5
#     Node 14, Type 0, BuildingBlock: BEQFEK_clean_sbu_0, # of connection points: 5
#     Node 15, Type 0, BuildingBlock: BEQFEK_clean_sbu_0, # of connection points: 5
#     Node 16, Type 0, BuildingBlock: BEQFEK_clean_sbu_0, # of connection points: 5
#     Node 17, Type 0, BuildingBlock: BEQFEK_clean_sbu_0, # of connection points: 5
#     Node 18, Type 0, BuildingBlock: BEQFEK_clean_sbu_0, # of connection points: 5
#     Node 19, Type 0, BuildingBlock: BEQFEK_clean_sbu_0, # of connection points: 5
#     Node 20, Type 0, BuildingBlock: BEQFEK_clean_sbu_0, # of connection points: 5
#     Node 21, Type 0, BuildingBlock: BEQFEK_clean_sbu_0, # of connection points: 5
#     Node 22, Type 0, BuildingBlock: BEQFEK_clean_sbu_0, # of connection points: 5
#     Node 23, Type 0, BuildingBlock: BEQFEK_clean_sbu_0, # of connection points: 5
#     Node 24, Type 0, BuildingBlock: BEQFEK_clean_sbu_0, # of connection points: 5
#     Node 25, Type 0, BuildingBlock: BEQFEK_clean_sbu_0, # of connection points: 5
#     Node 26, Type 0, BuildingBlock: BEQFEK_clean_sbu_0, # of connection points: 5
#     Node 27, Type 0, BuildingBlock: BEQFEK_clean_sbu_0, # of connection points: 5
#     Node 28, Type 0, BuildingBlock: BEQFEK_clean_sbu_0, # of connection points: 5
#     Node 29, Type 0, BuildingBlock: BEQFEK_clean_sbu_0, # of connection points: 5
#     Node 30, Type 0, BuildingBlock: BEQFEK_clean_sbu_0, # of connection points: 5
#     Node 31, Type 0, BuildingBlock: BEQFEK_clean_sbu_0, # of connection points: 5
#     Edge 32, Type (0, 0), BuildingBlock: OJICUG_clean_linker_0, # of connection points: 2
#     Edge 33, Type (0, 0), BuildingBlock: OJICUG_clean_linker_0, # of connection points: 2
#     Edge 34, Type (0, 0), BuildingBlock: OJICUG_clean_linker_0, # of connection points: 2
#     Edge 35, Type (0, 0), BuildingBlock: OJICUG_clean_linker_0, # of connection points: 2
#     Edge 36, Type (0, 0), BuildingBlock: OJICUG_clean_linker_0, # of connection points: 2
#     Edge 37, Type (0, 0), BuildingBlock: OJICUG_clean_linker_0, # of connection points: 2
#     Edge 38, Type (0, 0), BuildingBlock: OJICUG_clean_linker_0, # of connection points: 2
#     Edge 39, Type (0, 0), BuildingBlock: OJICUG_clean_linker_0, # of connection points: 2
#     Edge 40, Type (0, 0), BuildingBlock: OJICUG_clean_linker_0, # of connection points: 2
#     Edge 41, Type (0, 0), BuildingBlock: OJICUG_clean_linker_0, # of connection points: 2
#     Edge 42, Type (0, 0), BuildingBlock: OJICUG_clean_linker_0, # of connection points: 2
#     Edge 43, Type (0, 0), BuildingBlock: OJICUG_clean_linker_0, # of connection points: 2
#     Edge 44, Type (0, 0), BuildingBlock: OJICUG_clean_linker_0, # of connection points: 2
#     Edge 45, Type (0, 0), BuildingBlock: OJICUG_clean_linker_0, # of connection points: 2
#     Edge 46, Type (0, 0), BuildingBlock: OJICUG_clean_linker_0, # of connection points: 2
#     Edge 47, Type (0, 0), BuildingBlock: OJICUG_clean_linker_0, # of connection points: 2
#     Edge 48, Type (0, 0), BuildingBlock: OJICUG_clean_linker_0, # of connection points: 2
#     Edge 49, Type (0, 0), BuildingBlock: OJICUG_clean_linker_0, # of connection points: 2
#     Edge 50, Type (0, 0), BuildingBlock: OJICUG_clean_linker_0, # of connection points: 2
#     Edge 51, Type (0, 0), BuildingBlock: OJICUG_clean_linker_0, # of connection points: 2
#     Edge 52, Type (0, 0), BuildingBlock: OJICUG_clean_linker_0, # of connection points: 2
#     Edge 53, Type (0, 0), BuildingBlock: OJICUG_clean_linker_0, # of connection points: 2
#     Edge 54, Type (0, 0), BuildingBlock: OJICUG_clean_linker_0, # of connection points: 2
#     Edge 55, Type (0, 0), BuildingBlock: OJICUG_clean_linker_0, # of connection points: 2
#     Edge 56, Type (0, 0), BuildingBlock: OJICUG_clean_linker_0, # of connection points: 2
#     Edge 57, Type (0, 0), BuildingBlock: OJICUG_clean_linker_0, # of connection points: 2
#     Edge 58, Type (0, 0), BuildingBlock: OJICUG_clean_linker_0, # of connection points: 2
#     Edge 59, Type (0, 0), BuildingBlock: OJICUG_clean_linker_0, # of connection points: 2
#     Edge 60, Type (0, 0), BuildingBlock: OJICUG_clean_linker_0, # of connection points: 2
#     Edge 61, Type (0, 0), BuildingBlock: OJICUG_clean_linker_0, # of connection points: 2
#     Edge 62, Type (0, 0), BuildingBlock: OJICUG_clean_linker_0, # of connection points: 2
#     Edge 63, Type (0, 0), BuildingBlock: OJICUG_clean_linker_0, # of connection points: 2
#     Edge 64, Type (0, 0), BuildingBlock: OJICUG_clean_linker_0, # of connection points: 2
#     Edge 65, Type (0, 0), BuildingBlock: OJICUG_clean_linker_0, # of connection points: 2
#     Edge 66, Type (0, 0), BuildingBlock: OJICUG_clean_linker_0, # of connection points: 2
#     Edge 67, Type (0, 0), BuildingBlock: OJICUG_clean_linker_0, # of connection points: 2
#     Edge 68, Type (0, 0), BuildingBlock: OJICUG_clean_linker_0, # of connection points: 2
#     Edge 69, Type (0, 0), BuildingBlock: OJICUG_clean_linker_0, # of connection points: 2
#     Edge 70, Type (0, 0), BuildingBlock: OJICUG_clean_linker_0, # of connection points: 2
#     Edge 71, Type (0, 0), BuildingBlock: OJICUG_clean_linker_0, # of connection points: 2
#     Edge 72, Type (0, 0), BuildingBlock: OJICUG_clean_linker_0, # of connection points: 2
#     Edge 73, Type (0, 0), BuildingBlock: OJICUG_clean_linker_0, # of connection points: 2
#     Edge 74, Type (0, 0), BuildingBlock: OJICUG_clean_linker_0, # of connection points: 2
#     Edge 75, Type (0, 0), BuildingBlock: OJICUG_clean_linker_0, # of connection points: 2
#     Edge 76, Type (0, 0), BuildingBlock: OJICUG_clean_linker_0, # of connection points: 2
#     Edge 77, Type (0, 0), BuildingBlock: OJICUG_clean_linker_0, # of connection points: 2
#     Edge 78, Type (0, 0), BuildingBlock: OJICUG_clean_linker_0, # of connection points: 2
#     Edge 79, Type (0, 0), BuildingBlock: OJICUG_clean_linker_0, # of connection points: 2
#     Edge 80, Type (0, 0), BuildingBlock: OJICUG_clean_linker_0, # of connection points: 2
#     Edge 81, Type (0, 0), BuildingBlock: OJICUG_clean_linker_0, # of connection points: 2
#     Edge 82, Type (0, 0), BuildingBlock: OJICUG_clean_linker_0, # of connection points: 2
#     Edge 83, Type (0, 0), BuildingBlock: OJICUG_clean_linker_0, # of connection points: 2
#     Edge 84, Type (0, 0), BuildingBlock: OJICUG_clean_linker_0, # of connection points: 2
#     Edge 85, Type (0, 0), BuildingBlock: OJICUG_clean_linker_0, # of connection points: 2
#     Edge 86, Type (0, 0), BuildingBlock: OJICUG_clean_linker_0, # of connection points: 2
#     Edge 87, Type (0, 0), BuildingBlock: OJICUG_clean_linker_0, # of connection points: 2
#     Edge 88, Type (0, 0), BuildingBlock: OJICUG_clean_linker_0, # of connection points: 2
#     Edge 89, Type (0, 0), BuildingBlock: OJICUG_clean_linker_0, # of connection points: 2
#     Edge 90, Type (0, 0), BuildingBlock: OJICUG_clean_linker_0, # of connection points: 2
#     Edge 91, Type (0, 0), BuildingBlock: OJICUG_clean_linker_0, # of connection points: 2
#     Edge 92, Type (0, 0), BuildingBlock: OJICUG_clean_linker_0, # of connection points: 2
#     Edge 93, Type (0, 0), BuildingBlock: OJICUG_clean_linker_0, # of connection points: 2
#     Edge 94, Type (0, 0), BuildingBlock: OJICUG_clean_linker_0, # of connection points: 2
#     Edge 95, Type (0, 0), BuildingBlock: OJICUG_clean_linker_0, # of connection points: 2
#     Edge 96, Type (0, 0), BuildingBlock: OJICUG_clean_linker_0, # of connection points: 2
#     Edge 97, Type (0, 0), BuildingBlock: OJICUG_clean_linker_0, # of connection points: 2
#     Edge 98, Type (0, 0), BuildingBlock: OJICUG_clean_linker_0, # of connection points: 2
#     Edge 99, Type (0, 0), BuildingBlock: OJICUG_clean_linker_0, # of connection points: 2
#     Edge 100, Type (0, 0), BuildingBlock: OJICUG_clean_linker_0, # of connection points: 2
#     Edge 101, Type (0, 0), BuildingBlock: OJICUG_clean_linker_0, # of connection points: 2
#     Edge 102, Type (0, 0), BuildingBlock: OJICUG_clean_linker_0, # of connection points: 2
#     Edge 103, Type (0, 0), BuildingBlock: OJICUG_clean_linker_0, # of connection points: 2
#     Edge 104, Type (0, 0), BuildingBlock: OJICUG_clean_linker_0, # of connection points: 2
#     Edge 105, Type (0, 0), BuildingBlock: OJICUG_clean_linker_0, # of connection points: 2
#     Edge 106, Type (0, 0), BuildingBlock: OJICUG_clean_linker_0, # of connection points: 2
#     Edge 107, Type (0, 0), BuildingBlock: OJICUG_clean_linker_0, # of connection points: 2
#     Edge 108, Type (0, 0), BuildingBlock: OJICUG_clean_linker_0, # of connection points: 2
#     Edge 109, Type (0, 0), BuildingBlock: OJICUG_clean_linker_0, # of connection points: 2
#     Edge 110, Type (0, 0), BuildingBlock: OJICUG_clean_linker_0, # of connection points: 2
#     Edge 111, Type (0, 0), BuildingBlock: OJICUG_clean_linker_0, # of connection points: 2
# Relax obj value: 0.299
# Max RMSD: 0.224
# Mean RMSD: 0.224
data_MOF--net-sog--node1-BEQFEK_clean_sbu_0--edge1-OJICUG_clean_linker_0
_symmetry_space_group_name_H-M    P1
_symmetry_Int_Tables_number       1
_symmetry_cell_setting            triclinic
loop_
_symmetry_equiv_pos_as_xyz
'x, y, z'
_cell_length_a     57.375612
_cell_length_b     14.367178
_cell_length_c     87.199777
_cell_angle_alpha  89.984901
_cell_angle_beta   90.018757
_cell_angle_gamma 89.997762
loop_
_atom_site_label
_atom_site_type_symbol
_atom_site_fract_x
_atom_site_fract_y
_atom_site_fract_z
_atom_type_partial_charge
Co0 Co 0.46626 0.24804 0.06794 0.0
Co1 Co 0.43669 0.06653 0.06948 0.0
C2 C 0.46632 0.1391 0.09625 0.0
O3 O 0.47514 0.20669 0.08884 0.0
O4 O 0.45155 0.0849 0.09003 0.0
C5 C 0.47761 0.42826 0.07443 0.0
O6 O 0.47695 0.39308 0.08832 0.0
C7 C 0.44346 0.87199 0.07309 0.0
C8 C 0.41127 0.80567 0.06459 0.0
C9 C 0.43349 0.78659 0.07005 0.0
N10 N 0.42804 0.93888 0.0696 0.0
N11 N 0.40862 0.89913 0.06472 0.0
C12 C 0.46847 0.89027 0.07709 0.0
H13 H 0.47368 0.96176 0.07381 0.0
H14 H 0.48005 0.83953 0.07125 0.0
H15 H 0.47083 0.88215 0.08963 0.0
C16 C 0.48565 0.15251 0.04019 0.0
N17 N 0.47177 0.15695 0.05266 0.0
N18 N 0.45792 0.08394 0.05279 0.0
C19 C 0.46206 0.03225 0.04017 0.0
C20 C 0.47987 0.07333 0.03183 0.0
C21 C 0.50278 0.22628 0.03584 0.0
H22 H 0.49376 0.27955 0.02879 0.0
H23 H 0.50972 0.26076 0.04628 0.0
H24 H 0.51727 0.19668 0.02897 0.0
O25 O 0.43284 0.27822 0.06799 0.0
O26 O 0.4098 0.15467 0.06763 0.0
H27 H 0.43045 0.95292 0.03891 0.0
H28 H 0.45087 0.92737 0.0238 0.0
C29 C 0.44917 0.945 0.03611 0.0
H30 H 0.45647 0.88614 0.04276 0.0
H31 H 0.39404 0.9356 0.06082 0.0
O32 O 0.47846 0.37285 0.06308 0.0
C33 C 0.41257 0.24288 0.0676 0.0
Co34 Co 0.78045 0.99607 0.06808 0.0
Co35 Co 0.80986 0.17768 0.07021 0.0
C36 C 0.77929 0.10465 0.09643 0.0
O37 O 0.77077 0.03707 0.08886 0.0
O38 O 0.79427 0.159 0.09047 0.0
C39 C 0.76851 0.8159 0.07425 0.0
O40 O 0.76838 0.8507 0.08817 0.0
C41 C 0.80271 0.37209 0.07351 0.0
C42 C 0.83535 0.4388 0.06588 0.0
C43 C 0.81278 0.4576 0.07072 0.0
N44 N 0.8184 0.30539 0.07048 0.0
N45 N 0.83807 0.34538 0.06612 0.0
C46 C 0.77754 0.35351 0.07697 0.0
H47 H 0.77258 0.2817 0.07373 0.0
H48 H 0.7662 0.40365 0.07078 0.0
H49 H 0.77453 0.36232 0.08944 0.0
C50 C 0.76186 0.09345 0.04014 0.0
N51 N 0.77547 0.08762 0.05274 0.0
N52 N 0.78917 0.16094 0.05326 0.0
C53 C 0.7851 0.21464 0.04087 0.0
C54 C 0.76737 0.17499 0.03225 0.0
C55 C 0.74401 0.02233 0.03585 0.0
H56 H 0.7377 0.98542 0.04623 0.0
H57 H 0.72917 0.0554 0.02976 0.0
H58 H 0.75211 0.97047 0.02808 0.0
O59 O 0.81389 0.96545 0.06881 0.0
O60 O 0.83675 0.0896 0.06881 0.0
H61 H 0.79952 0.30714 0.02376 0.0
H62 H 0.79259 0.36038 0.04185 0.0
C63 C 0.79967 0.29674 0.03637 0.0
H64 H 0.81792 0.2863 0.04013 0.0
H65 H 0.85292 0.30909 0.06265 0.0
O66 O 0.76836 0.8716 0.06292 0.0
C67 C 0.83412 0.00132 0.0688 0.0
Co68 Co 0.46662 0.99337 0.19014 0.0
Co69 Co 0.43699 0.17484 0.18839 0.0
C70 C 0.46645 0.10127 0.16168 0.0
O71 O 0.47529 0.03395 0.16915 0.0
O72 O 0.4517 0.15577 0.16785 0.0
C73 C 0.47847 0.81305 0.1838 0.0
O74 O 0.47824 0.8478 0.16988 0.0
C75 C 0.4441 0.36927 0.18494 0.0
C76 C 0.41181 0.43624 0.19312 0.0
C77 C 0.4342 0.45486 0.18792 0.0
N78 N 0.42848 0.30269 0.18821 0.0
N79 N 0.40901 0.34284 0.1929 0.0
C80 C 0.46911 0.35049 0.18105 0.0
H81 H 0.47414 0.27847 0.18413 0.0
H82 H 0.48072 0.40022 0.18711 0.0
H83 H 0.47167 0.35981 0.16855 0.0
C84 C 0.48608 0.09094 0.21774 0.0
N85 N 0.47217 0.08527 0.20529 0.0
N86 N 0.45841 0.15843 0.20495 0.0
C87 C 0.46276 0.21194 0.21732 0.0
C88 C 0.48071 0.17224 0.22573 0.0
C89 C 0.50394 0.01946 0.22188 0.0
H90 H 0.49587 0.9673 0.22963 0.0
H91 H 0.51013 0.98297 0.21143 0.0
H92 H 0.51885 0.05211 0.22796 0.0
O93 O 0.43321 0.9632 0.19021 0.0
O94 O 0.41014 0.08671 0.19043 0.0
H95 H 0.42983 0.28254 0.21853 0.0
H96 H 0.44866 0.30357 0.23467 0.0
C97 C 0.44817 0.29346 0.22205 0.0
H98 H 0.45496 0.35745 0.21653 0.0
H99 H 0.39428 0.30667 0.19662 0.0
O100 O 0.47891 0.8688 0.19512 0.0
C101 C 0.41294 0.99851 0.1906 0.0
Co102 Co 0.78092 0.25066 0.19004 0.0
Co103 Co 0.81031 0.06909 0.18789 0.0
C104 C 0.7795 0.14172 0.16174 0.0
O105 O 0.77102 0.20933 0.16931 0.0
O106 O 0.79454 0.08751 0.16767 0.0
C107 C 0.76913 0.43079 0.18384 0.0
O108 O 0.7691 0.39585 0.16993 0.0
C109 C 0.80319 0.87466 0.18463 0.0
C110 C 0.83592 0.80809 0.19215 0.0
C111 C 0.81332 0.78921 0.18737 0.0
N112 N 0.81888 0.94142 0.18762 0.0
N113 N 0.8386 0.90153 0.19192 0.0
C114 C 0.77799 0.89309 0.18123 0.0
H115 H 0.77302 0.96483 0.18451 0.0
H116 H 0.76672 0.84279 0.18743 0.0
H117 H 0.77491 0.88443 0.16877 0.0
C118 C 0.76262 0.15383 0.21811 0.0
N119 N 0.7761 0.1594 0.20545 0.0
N120 N 0.78977 0.08602 0.20491 0.0
C121 C 0.78581 0.03251 0.21734 0.0
C122 C 0.76818 0.0724 0.22602 0.0
C123 C 0.74481 0.22507 0.22242 0.0
H124 H 0.75298 0.27703 0.23015 0.0
H125 H 0.73842 0.26183 0.21204 0.0
H126 H 0.73001 0.19214 0.22857 0.0
O127 O 0.81435 0.28131 0.18914 0.0
O128 O 0.83722 0.15719 0.18914 0.0
H129 H 0.81859 0.96056 0.21798 0.0
H130 H 0.8003 0.93983 0.2344 0.0
C131 C 0.80036 0.95028 0.22179 0.0
H132 H 0.79321 0.88672 0.21632 0.0
H133 H 0.85347 0.9379 0.19534 0.0
O134 O 0.76889 0.37522 0.19519 0.0
C135 C 0.83458 0.24547 0.18909 0.0
Co136 Co 0.53127 0.74886 0.93962 0.0
Co137 Co 0.56058 0.93066 0.93783 0.0
C138 C 0.5299 0.85911 0.91151 0.0
O139 O 0.52144 0.79095 0.91895 0.0
O140 O 0.54488 0.91309 0.91756 0.0
C141 C 0.51982 0.56893 0.93326 0.0
O142 O 0.52026 0.60415 0.91937 0.0
C143 C 0.55372 0.12518 0.93446 0.0
C144 C 0.58631 0.19128 0.94233 0.0
C145 C 0.56387 0.21048 0.93727 0.0
N146 N 0.56924 0.05819 0.93768 0.0
N147 N 0.58889 0.09779 0.94219 0.0
C148 C 0.52855 0.10714 0.93091 0.0
H149 H 0.52342 0.03573 0.93429 0.0
H150 H 0.51724 0.15807 0.93693 0.0
H151 H 0.52569 0.11518 0.91841 0.0
C152 C 0.51271 0.84336 0.96771 0.0
N153 N 0.52631 0.83926 0.9551 0.0
N154 N 0.54007 0.91246 0.95485 0.0
C155 C 0.53621 0.96392 0.96754 0.0
C156 C 0.51863 0.92251 0.97604 0.0
C157 C 0.49562 0.76963 0.97213 0.0
H158 H 0.50495 0.71391 0.97845 0.0
H159 H 0.48776 0.73831 0.9617 0.0
H160 H 0.48179 0.79816 0.97967 0.0
O161 O 0.56471 0.71835 0.93884 0.0
O162 O 0.58751 0.84267 0.93905 0.0
H163 H 0.56766 0.04449 0.96833 0.0
H164 H 0.54778 0.06852 0.98382 0.0
C165 C 0.54904 0.05153 0.97146 0.0
H166 H 0.54133 0.11035 0.96499 0.0
H167 H 0.60362 0.06121 0.9458 0.0
O168 O 0.51918 0.62427 0.94463 0.0
C169 C 0.58492 0.75439 0.93892 0.0
Co170 Co 0.21554 0.00396 0.93975 0.0
Co171 Co 0.18607 0.82248 0.93755 0.0
C172 C 0.21702 0.89506 0.91148 0.0
O173 O 0.22548 0.96269 0.91906 0.0
O174 O 0.20193 0.84096 0.91738 0.0
C175 C 0.22743 0.18413 0.93362 0.0
O176 O 0.22756 0.14931 0.9197 0.0
C177 C 0.1933 0.62805 0.93434 0.0
C178 C 0.16056 0.56128 0.94177 0.0
C179 C 0.18319 0.54253 0.93706 0.0
N180 N 0.17756 0.69472 0.93727 0.0
N181 N 0.15783 0.6547 0.94152 0.0
C182 C 0.21851 0.64664 0.93102 0.0
H183 H 0.22343 0.71847 0.93428 0.0
H184 H 0.22977 0.59652 0.93727 0.0
H185 H 0.22169 0.63779 0.91857 0.0
C186 C 0.23375 0.90685 0.9678 0.0
N187 N 0.22028 0.9126 0.95514 0.0
N188 N 0.20653 0.83947 0.9546 0.0
C189 C 0.2104 0.78601 0.96704 0.0
C190 C 0.22806 0.8256 0.97572 0.0
C191 C 0.25169 0.97766 0.97209 0.0
H192 H 0.25807 0.01432 0.9617 0.0
H193 H 0.26647 0.94435 0.9782 0.0
H194 H 0.24364 0.02977 0.97984 0.0
O195 O 0.18211 0.03459 0.93883 0.0
O196 O 0.15919 0.91063 0.93878 0.0
H197 H 0.19568 0.69408 0.98412 0.0
H198 H 0.20279 0.64036 0.9661 0.0
C199 C 0.1957 0.70421 0.9715 0.0
H200 H 0.17751 0.71481 0.96763 0.0
H201 H 0.14293 0.69097 0.94489 0.0
O202 O 0.22757 0.12846 0.94495 0.0
C203 C 0.16187 0.99888 0.93876 0.0
Co204 Co 0.53088 0.00949 0.81811 0.0
Co205 Co 0.56039 0.82803 0.81999 0.0
C206 C 0.52962 0.89974 0.84626 0.0
O207 O 0.52107 0.96765 0.8388 0.0
O208 O 0.54466 0.84593 0.84023 0.0
C209 C 0.51944 0.18963 0.82442 0.0
O210 O 0.51975 0.15443 0.83832 0.0
C211 C 0.55346 0.63347 0.82342 0.0
C212 C 0.58605 0.56715 0.81561 0.0
C213 C 0.56359 0.54808 0.82062 0.0
N214 N 0.56903 0.70038 0.82023 0.0
N215 N 0.58868 0.66063 0.81576 0.0
C216 C 0.52829 0.65168 0.82691 0.0
H217 H 0.52321 0.72317 0.82353 0.0
H218 H 0.51699 0.60092 0.82084 0.0
H219 H 0.52535 0.64351 0.8394 0.0
C220 C 0.51235 0.91375 0.79008 0.0
N221 N 0.52601 0.91869 0.80265 0.0
N222 N 0.5399 0.84586 0.80294 0.0
C223 C 0.53607 0.79394 0.79029 0.0
C224 C 0.51837 0.83452 0.78179 0.0
C225 C 0.49503 0.98663 0.78564 0.0
H226 H 0.50395 0.04036 0.77863 0.0
H227 H 0.48787 0.02078 0.79604 0.0
H228 H 0.48071 0.95631 0.77869 0.0
O229 O 0.56431 0.04008 0.81896 0.0
O230 O 0.58729 0.9163 0.8188 0.0
H231 H 0.56761 0.71385 0.78963 0.0
H232 H 0.54791 0.68955 0.77406 0.0
C233 C 0.54903 0.70653 0.78642 0.0
H234 H 0.54131 0.64756 0.79285 0.0
H235 H 0.60343 0.6971 0.81218 0.0
O236 O 0.51887 0.13425 0.81306 0.0
C237 C 0.58457 0.00453 0.81893 0.0
Co238 Co 0.21625 0.74837 0.81791 0.0
Co239 Co 0.18688 0.93011 0.81993 0.0
C240 C 0.21737 0.85724 0.84621 0.0
O241 O 0.22588 0.78952 0.83869 0.0
O242 O 0.20241 0.91157 0.84021 0.0
C243 C 0.22813 0.56828 0.82413 0.0
O244 O 0.22814 0.60312 0.83805 0.0
C245 C 0.19399 0.12453 0.82324 0.0
C246 C 0.16136 0.19114 0.81554 0.0
C247 C 0.1839 0.20999 0.82043 0.0
N248 N 0.17832 0.05779 0.82017 0.0
N249 N 0.15866 0.09771 0.81576 0.0
C250 C 0.21914 0.10605 0.82675 0.0
H251 H 0.22414 0.03425 0.82353 0.0
H252 H 0.23049 0.15622 0.82059 0.0
H253 H 0.22211 0.11494 0.83923 0.0
C254 C 0.23509 0.84567 0.79007 0.0
N255 N 0.22132 0.83982 0.80258 0.0
N256 N 0.20765 0.91319 0.80305 0.0
C257 C 0.21187 0.96695 0.79068 0.0
C258 C 0.2297 0.92727 0.78216 0.0
C259 C 0.25304 0.77465 0.7859 0.0
H260 H 0.2592 0.73771 0.79632 0.0
H261 H 0.26797 0.80782 0.77992 0.0
H262 H 0.24508 0.72281 0.77806 0.0
O263 O 0.18279 0.71784 0.81859 0.0
O264 O 0.15998 0.84214 0.8185 0.0
H265 H 0.19769 0.0597 0.77353 0.0
H266 H 0.20449 0.11278 0.79165 0.0
C267 C 0.19741 0.04925 0.78614 0.0
H268 H 0.17912 0.03905 0.78982 0.0
H269 H 0.14384 0.06137 0.81225 0.0
O270 O 0.22837 0.62393 0.81279 0.0
C271 C 0.16258 0.75385 0.81853 0.0
Co272 Co 0.46686 0.756 0.56834 0.0
Co273 Co 0.43746 0.57436 0.57062 0.0
C274 C 0.46825 0.64766 0.5967 0.0
O275 O 0.4767 0.71518 0.5891 0.0
O276 O 0.45322 0.59326 0.59081 0.0
C277 C 0.47899 0.93618 0.57444 0.0
O278 O 0.47941 0.90141 0.58836 0.0
C279 C 0.44468 0.37996 0.57393 0.0
C280 C 0.41198 0.31314 0.56644 0.0
C281 C 0.43459 0.29442 0.57119 0.0
N282 N 0.42894 0.44661 0.57096 0.0
N283 N 0.40923 0.40655 0.56668 0.0
C284 C 0.46988 0.39864 0.57729 0.0
H285 H 0.47479 0.47049 0.57404 0.0
H286 H 0.48116 0.34859 0.57106 0.0
H287 H 0.47302 0.38978 0.58975 0.0
C288 C 0.48521 0.65827 0.54038 0.0
N289 N 0.47169 0.66429 0.55302 0.0
N290 N 0.45798 0.59104 0.5536 0.0
C291 C 0.46193 0.53723 0.54121 0.0
C292 C 0.4796 0.5767 0.53253 0.0
C293 C 0.50307 0.72921 0.53603 0.0
H294 H 0.50945 0.76623 0.54639 0.0
H295 H 0.51787 0.69596 0.52994 0.0
H296 H 0.49496 0.78101 0.52824 0.0
O297 O 0.43341 0.78655 0.56917 0.0
O298 O 0.41055 0.66239 0.56928 0.0
H299 H 0.4473 0.44486 0.52417 0.0
H300 H 0.45438 0.39155 0.54223 0.0
C301 C 0.44728 0.45525 0.53678 0.0
H302 H 0.42907 0.46581 0.54061 0.0
H303 H 0.39435 0.44279 0.56327 0.0
O304 O 0.4789 0.88047 0.56311 0.0
C305 C 0.41319 0.75067 0.56924 0.0
Co306 Co 0.78044 0.48887 0.56814 0.0
Co307 Co 0.80958 0.67108 0.57028 0.0
C308 C 0.77912 0.59674 0.5965 0.0
O309 O 0.77076 0.52889 0.58895 0.0
O310 O 0.79393 0.6518 0.59053 0.0
C311 C 0.76816 0.30871 0.57426 0.0
O312 O 0.76747 0.34342 0.58817 0.0
C313 C 0.80265 0.86546 0.57387 0.0
C314 C 0.83523 0.93185 0.56606 0.0
C315 C 0.81277 0.95089 0.57107 0.0
N316 N 0.81821 0.79862 0.57065 0.0
N317 N 0.83786 0.83839 0.5662 0.0
C318 C 0.77748 0.84708 0.57735 0.0
H319 H 0.77244 0.77551 0.574 0.0
H320 H 0.76615 0.89767 0.57125 0.0
H321 H 0.77453 0.85531 0.58983 0.0
C322 C 0.76167 0.58577 0.54025 0.0
N323 N 0.77532 0.58064 0.55283 0.0
N324 N 0.78907 0.65389 0.55322 0.0
C325 C 0.78515 0.7063 0.54063 0.0
C326 C 0.76754 0.66559 0.53207 0.0
C327 C 0.74453 0.51249 0.5357 0.0
H328 H 0.75363 0.45913 0.52872 0.0
H329 H 0.73731 0.47797 0.54605 0.0
H330 H 0.73024 0.54254 0.52869 0.0
O331 O 0.81393 0.45877 0.56884 0.0
O332 O 0.83656 0.58361 0.56892 0.0
H333 H 0.8166 0.787 0.54003 0.0
H334 H 0.79685 0.81144 0.52449 0.0
C335 C 0.798 0.79408 0.53684 0.0
H336 H 0.79022 0.85267 0.54331 0.0
H337 H 0.85261 0.80195 0.5626 0.0
O338 O 0.76841 0.36444 0.56293 0.0
C339 C 0.83409 0.49528 0.56886 0.0
Co340 Co 0.46697 0.50185 0.69024 0.0
Co341 Co 0.43759 0.68355 0.68821 0.0
C342 C 0.46834 0.6109 0.662 0.0
O343 O 0.47682 0.54314 0.66954 0.0
O344 O 0.45334 0.66511 0.66797 0.0
C345 C 0.47875 0.32171 0.68401 0.0
O346 O 0.47883 0.35677 0.67011 0.0
C347 C 0.44454 0.87802 0.6847 0.0
C348 C 0.41197 0.94442 0.69253 0.0
C349 C 0.43443 0.96345 0.68752 0.0
N350 N 0.42897 0.81117 0.6879 0.0
N351 N 0.40933 0.85096 0.69237 0.0
C352 C 0.46971 0.85967 0.68121 0.0
H353 H 0.47477 0.78825 0.68463 0.0
H354 H 0.48104 0.91054 0.68723 0.0
H355 H 0.47262 0.86744 0.66871 0.0
C356 C 0.48552 0.59802 0.71823 0.0
N357 N 0.47189 0.59299 0.70564 0.0
N358 N 0.45806 0.666 0.70529 0.0
C359 C 0.46189 0.71815 0.71791 0.0
C360 C 0.47954 0.67751 0.72646 0.0
C361 C 0.50275 0.52499 0.72273 0.0
H362 H 0.49372 0.47112 0.72965 0.0
H363 H 0.51005 0.49105 0.71236 0.0
H364 H 0.51698 0.5551 0.72979 0.0
O365 O 0.43352 0.4714 0.68942 0.0
O366 O 0.41066 0.59556 0.68945 0.0
H367 H 0.43039 0.79848 0.71852 0.0
H368 H 0.4501 0.82292 0.73408 0.0
C369 C 0.44898 0.80573 0.72173 0.0
H370 H 0.45673 0.86451 0.71527 0.0
H371 H 0.39457 0.81453 0.69597 0.0
O372 O 0.47899 0.3772 0.69537 0.0
C373 C 0.41329 0.50729 0.68941 0.0
Co374 Co 0.78015 0.75719 0.689 0.0
Co375 Co 0.80977 0.57657 0.68846 0.0
C376 C 0.77879 0.63976 0.66173 0.0
O377 O 0.77001 0.70851 0.66883 0.0
O378 O 0.79408 0.58835 0.66804 0.0
C379 C 0.77564 0.93241 0.68055 0.0
O380 O 0.78163 0.88676 0.66812 0.0
C381 C 0.80314 0.38011 0.68834 0.0
C382 C 0.83851 0.32008 0.68918 0.0
C383 C 0.81504 0.29703 0.68865 0.0
N384 N 0.81864 0.44983 0.68905 0.0
N385 N 0.83983 0.41388 0.68959 0.0
C386 C 0.77742 0.39304 0.68629 0.0
H387 H 0.77167 0.35704 0.67568 0.0
H388 H 0.77276 0.46775 0.68562 0.0
H389 H 0.76798 0.3609 0.69605 0.0
C390 C 0.76161 0.66775 0.71788 0.0
N391 N 0.77525 0.67109 0.70527 0.0
N392 N 0.78958 0.5995 0.70552 0.0
C393 C 0.78632 0.55125 0.71862 0.0
C394 C 0.76825 0.59171 0.72677 0.0
C395 C 0.74329 0.73787 0.72171 0.0
H396 H 0.742 0.79163 0.71261 0.0
H397 H 0.72622 0.70238 0.72303 0.0
H398 H 0.74752 0.77119 0.73285 0.0
O399 O 0.81385 0.78635 0.68818 0.0
O400 O 0.83683 0.66303 0.68905 0.0
H401 H 0.81804 0.47111 0.71828 0.0
H402 H 0.80211 0.46375 0.73596 0.0
C403 C 0.80036 0.46804 0.72334 0.0
H404 H 0.79141 0.40381 0.71949 0.0
H405 H 0.85513 0.45314 0.68999 0.0
O406 O 0.76876 0.88577 0.69213 0.0
C407 C 0.83412 0.75104 0.68847 0.0
Co408 Co 0.52987 0.24494 0.44031 0.0
Co409 Co 0.55955 0.42621 0.43838 0.0
C410 C 0.52934 0.35348 0.41194 0.0
O411 O 0.5206 0.2861 0.41944 0.0
O412 O 0.54428 0.40755 0.41801 0.0
C413 C 0.5182 0.06469 0.43404 0.0
O414 O 0.51843 0.09961 0.42012 0.0
C415 C 0.55243 0.62074 0.43502 0.0
C416 C 0.58491 0.68753 0.44293 0.0
C417 C 0.56242 0.70628 0.43792 0.0
N418 N 0.56809 0.55406 0.43815 0.0
N419 N 0.58767 0.59411 0.44269 0.0
C420 C 0.52733 0.60214 0.43136 0.0
H421 H 0.52233 0.53025 0.43452 0.0
H422 H 0.51588 0.65212 0.43748 0.0
H423 H 0.52452 0.61119 0.41887 0.0
C424 C 0.51098 0.34273 0.4681 0.0
N425 N 0.52476 0.33662 0.4556 0.0
N426 N 0.53856 0.40964 0.45516 0.0
C427 C 0.53438 0.46341 0.46753 0.0
C428 C 0.51648 0.42414 0.47602 0.0
C429 C 0.493 0.27191 0.47229 0.0
H430 H 0.4868 0.23503 0.46188 0.0
H431 H 0.4781 0.30526 0.47828 0.0
H432 H 0.50093 0.21998 0.48013 0.0
O433 O 0.56328 0.21418 0.43983 0.0
O434 O 0.58637 0.33764 0.43998 0.0
H435 H 0.54871 0.55535 0.48474 0.0
H436 H 0.54212 0.60897 0.46663 0.0
C437 C 0.54902 0.54509 0.47213 0.0
H438 H 0.56731 0.53423 0.46849 0.0
H439 H 0.60246 0.55785 0.44628 0.0
O440 O 0.51772 0.12031 0.44537 0.0
C441 C 0.58357 0.24943 0.43998 0.0
Co442 Co 0.2165 0.49926 0.43997 0.0
Co443 Co 0.18724 0.31734 0.43818 0.0
C444 C 0.21773 0.3894 0.41182 0.0
O445 O 0.22623 0.45747 0.41926 0.0
O446 O 0.20281 0.33524 0.41788 0.0
C447 C 0.22806 0.67922 0.43362 0.0
O448 O 0.22773 0.64411 0.41972 0.0
C449 C 0.19409 0.12289 0.43475 0.0
C450 C 0.16156 0.05672 0.44271 0.0
C451 C 0.18396 0.03757 0.43759 0.0
N452 N 0.17858 0.18984 0.43802 0.0
N453 N 0.15897 0.15021 0.44257 0.0
C454 C 0.21923 0.14102 0.43113 0.0
H455 H 0.22437 0.21236 0.43454 0.0
H456 H 0.23059 0.08998 0.4371 0.0
H457 H 0.222 0.13328 0.41862 0.0
C458 C 0.2352 0.4046 0.46802 0.0
N459 N 0.22156 0.40873 0.45543 0.0
N460 N 0.20783 0.33541 0.45517 0.0
C461 C 0.21178 0.28382 0.46784 0.0
C462 C 0.22936 0.32528 0.47634 0.0
C463 C 0.25225 0.47851 0.47244 0.0
H464 H 0.24284 0.53456 0.47863 0.0
H465 H 0.26023 0.50932 0.46201 0.0
H466 H 0.26599 0.45034 0.4801 0.0
O467 O 0.18304 0.5297 0.43921 0.0
O468 O 0.1603 0.4052 0.43944 0.0
H469 H 0.18037 0.20297 0.46867 0.0
H470 H 0.20038 0.17865 0.48409 0.0
C471 C 0.19902 0.19599 0.47175 0.0
H472 H 0.20671 0.13742 0.46522 0.0
H473 H 0.14426 0.18676 0.44622 0.0
O474 O 0.22861 0.6238 0.44498 0.0
C475 C 0.16285 0.49351 0.43929 0.0
Co476 Co 0.53099 0.49983 0.31824 0.0
Co477 Co 0.56038 0.31808 0.32028 0.0
C478 C 0.53005 0.39112 0.3466 0.0
O479 O 0.52152 0.45878 0.33905 0.0
O480 O 0.54497 0.33667 0.3406 0.0
C481 C 0.51906 0.67991 0.32446 0.0
O482 O 0.51905 0.64507 0.33838 0.0
C483 C 0.55327 0.12365 0.32358 0.0
C484 C 0.58585 0.05699 0.31583 0.0
C485 C 0.56332 0.03816 0.32075 0.0
N486 N 0.56893 0.19037 0.3205 0.0
N487 N 0.58857 0.15041 0.31607 0.0
C488 C 0.52813 0.14218 0.32714 0.0
H489 H 0.52313 0.21403 0.32394 0.0
H490 H 0.51674 0.09212 0.32098 0.0
H491 H 0.52522 0.1332 0.33962 0.0
C492 C 0.51222 0.4028 0.29036 0.0
N493 N 0.52586 0.40831 0.30294 0.0
N494 N 0.53953 0.33492 0.30342 0.0
C495 C 0.53543 0.28147 0.29101 0.0
C496 C 0.5177 0.32141 0.28243 0.0
C497 C 0.49441 0.47419 0.28611 0.0
H498 H 0.48806 0.51071 0.29651 0.0
H499 H 0.47958 0.44147 0.27995 0.0
H500 H 0.50256 0.52634 0.2784 0.0
O501 O 0.56443 0.53039 0.31876 0.0
O502 O 0.58725 0.40612 0.3187 0.0
H503 H 0.56827 0.21002 0.29017 0.0
H504 H 0.54979 0.18931 0.27384 0.0
C505 C 0.55 0.19953 0.28645 0.0
H506 H 0.54298 0.13576 0.29192 0.0
H507 H 0.60338 0.18673 0.31255 0.0
O508 O 0.51882 0.62426 0.31313 0.0
C509 C 0.58464 0.49441 0.31864 0.0
Co510 Co 0.21539 0.24149 0.31831 0.0
Co511 Co 0.18592 0.42296 0.3205 0.0
C512 C 0.21696 0.35058 0.34656 0.0
O513 O 0.2254 0.28289 0.33899 0.0
O514 O 0.20185 0.40464 0.34066 0.0
C515 C 0.22721 0.06134 0.32445 0.0
O516 O 0.22728 0.0962 0.33837 0.0
C517 C 0.19315 0.6174 0.32367 0.0
C518 C 0.16037 0.68413 0.31629 0.0
C519 C 0.18302 0.7029 0.32096 0.0
N520 N 0.1774 0.55071 0.32076 0.0
N521 N 0.15766 0.5907 0.31654 0.0
C522 C 0.21837 0.59885 0.32697 0.0
H523 H 0.22329 0.52702 0.32372 0.0
H524 H 0.2296 0.64897 0.3207 0.0
H525 H 0.22159 0.60777 0.33942 0.0
C526 C 0.23347 0.33831 0.29021 0.0
N527 N 0.22007 0.33275 0.30289 0.0
N528 N 0.20632 0.40588 0.30344 0.0
C529 C 0.21012 0.45915 0.29096 0.0
C530 C 0.22773 0.41942 0.28226 0.0
C531 C 0.25138 0.26742 0.28592 0.0
H532 H 0.24329 0.21513 0.27822 0.0
H533 H 0.25784 0.23098 0.29632 0.0
H534 H 0.26613 0.3006 0.27976 0.0
O535 O 0.18197 0.21085 0.31924 0.0
O536 O 0.15903 0.3348 0.31929 0.0
H537 H 0.17721 0.53024 0.2904 0.0
H538 H 0.1953 0.55085 0.27388 0.0
C539 C 0.19538 0.54086 0.2865 0.0
H540 H 0.20248 0.60479 0.29187 0.0
H541 H 0.14274 0.55442 0.31319 0.0
O542 O 0.22741 0.11698 0.31312 0.0
C543 C 0.16172 0.24655 0.31932 0.0
Co544 Co 0.96694 0.25018 0.56789 0.0
Co545 Co 0.93778 0.06805 0.57021 0.0
C546 C 0.9684 0.14224 0.59629 0.0
O547 O 0.97676 0.20982 0.58866 0.0
O548 O 0.95346 0.08738 0.59042 0.0
C549 C 0.97938 0.43024 0.57394 0.0
O550 O 0.98012 0.39557 0.58786 0.0
C551 C 0.94496 0.87374 0.5736 0.0
C552 C 0.91228 0.807 0.56604 0.0
C553 C 0.93487 0.78823 0.57085 0.0
N554 N 0.92925 0.9404 0.57058 0.0
N555 N 0.90956 0.90041 0.56627 0.0
C556 C 0.97015 0.89241 0.57701 0.0
H557 H 0.97508 0.9642 0.57374 0.0
H558 H 0.98146 0.84223 0.57083 0.0
H559 H 0.97322 0.88383 0.58949 0.0
C560 C 0.98552 0.15255 0.54003 0.0
N561 N 0.97194 0.15835 0.55263 0.0
N562 N 0.95836 0.08472 0.55323 0.0
C563 C 0.96246 0.03083 0.54087 0.0
C564 C 0.9801 0.07073 0.5322 0.0
C565 C 0.00328 0.22394 0.53569 0.0
H566 H 0.99507 0.27571 0.52793 0.0
H567 H 0.00963 0.26091 0.54605 0.0
H568 H 0.01811 0.19112 0.52956 0.0
O569 O 0.93346 0.28041 0.56867 0.0
O570 O 0.91082 0.1556 0.56881 0.0
H571 H 0.92975 0.95833 0.54022 0.0
H572 H 0.94813 0.93757 0.52385 0.0
C573 C 0.94801 0.94827 0.53645 0.0
H574 H 0.95521 0.88493 0.54196 0.0
H575 H 0.8947 0.93669 0.56281 0.0
O576 O 0.97902 0.37447 0.56263 0.0
C577 C 0.9133 0.24393 0.56873 0.0
Co578 Co 0.28086 -0.00052 0.5685 0.0
Co579 Co 0.31022 0.18121 0.57028 0.0
C580 C 0.27959 0.10954 0.59662 0.0
O581 O 0.27107 0.04151 0.58917 0.0
O582 O 0.29457 0.16349 0.59056 0.0
C583 C 0.26949 0.8195 0.57487 0.0
O584 O 0.26996 0.85473 0.58876 0.0
C585 C 0.30339 0.37574 0.57369 0.0
C586 C 0.33595 0.44184 0.56577 0.0
C587 C 0.31354 0.46105 0.57086 0.0
N588 N 0.31889 0.30875 0.57044 0.0
N589 N 0.33852 0.34834 0.56591 0.0
C590 C 0.27823 0.3577 0.57727 0.0
H591 H 0.27309 0.28634 0.57387 0.0
H592 H 0.2669 0.40872 0.57128 0.0
H593 H 0.27542 0.36559 0.58978 0.0
C594 C 0.26227 0.09417 0.54042 0.0
N595 N 0.27589 0.08996 0.55302 0.0
N596 N 0.28966 0.16315 0.55327 0.0
C597 C 0.28576 0.21473 0.54059 0.0
C598 C 0.26817 0.1734 0.53209 0.0
C599 C 0.24517 0.02043 0.536 0.0
H600 H 0.25451 0.96472 0.52968 0.0
H601 H 0.23733 0.9891 0.54642 0.0
H602 H 0.23134 0.04894 0.52844 0.0
O603 O 0.3143 0.96897 0.5693 0.0
O604 O 0.33714 0.09315 0.56907 0.0
H605 H 0.3172 0.29538 0.5398 0.0
H606 H 0.29726 0.31972 0.52435 0.0
C607 C 0.29857 0.30245 0.53669 0.0
H608 H 0.29088 0.36112 0.5432 0.0
H609 H 0.35323 0.31176 0.56228 0.0
O610 O 0.2688 0.87484 0.5635 0.0
C611 C 0.33452 0.00488 0.56923 0.0
Co612 Co 0.96644 0.99922 0.68983 0.0
Co613 Co 0.93719 0.18107 0.68761 0.0
C614 C 0.96824 0.10794 0.6616 0.0
O615 O 0.97662 0.0403 0.6692 0.0
O616 O 0.95317 0.16227 0.66746 0.0
C617 C 0.97842 0.8191 0.6837 0.0
O618 O 0.97885 0.85409 0.66979 0.0
C619 C 0.94418 0.37547 0.68409 0.0
C620 C 0.91155 0.44186 0.69181 0.0
C621 C 0.93405 0.46089 0.68687 0.0
N622 N 0.92858 0.30864 0.68724 0.0
N623 N 0.90891 0.34841 0.69164 0.0
C624 C 0.96938 0.35706 0.68069 0.0
H625 H 0.97442 0.28573 0.68418 0.0
H626 H 0.98066 0.40808 0.68671 0.0
H627 H 0.97238 0.36447 0.66819 0.0
C628 C 0.9847 0.09523 0.71788 0.0
N629 N 0.97119 0.09032 0.70523 0.0
N630 N 0.95743 0.16349 0.7048 0.0
C631 C 0.96118 0.21569 0.71743 0.0
C632 C 0.97871 0.17487 0.72606 0.0
C633 C 0.00183 0.02197 0.72246 0.0
H634 H 0.99257 0.96718 0.72905 0.0
H635 H 0.00954 0.98925 0.71211 0.0
H636 H 0.01576 0.05141 0.72983 0.0
O637 O 0.93299 0.96911 0.68875 0.0
O638 O 0.91019 0.09342 0.68868 0.0
H639 H 0.92977 0.29661 0.71789 0.0
H640 H 0.94939 0.321 0.73351 0.0
C641 C 0.94834 0.30358 0.72116 0.0
H642 H 0.9562 0.36209 0.7147 0.0
H643 H 0.89414 0.31196 0.6952 0.0
O644 O 0.97837 0.87463 0.69505 0.0
C645 C 0.91278 0.00514 0.68861 0.0
Co646 Co 0.28096 0.25827 0.69014 0.0
Co647 Co 0.31038 0.07663 0.68814 0.0
C648 C 0.27977 0.14912 0.66188 0.0
O649 O 0.27126 0.2169 0.66939 0.0
O650 O 0.29477 0.09494 0.66787 0.0
C651 C 0.26921 0.43837 0.68391 0.0
O652 O 0.26931 0.40346 0.67 0.0
C653 C 0.30328 0.88217 0.68487 0.0
C654 C 0.33594 0.81561 0.69251 0.0
C655 C 0.31339 0.79672 0.68765 0.0
N656 N 0.31894 0.94894 0.68791 0.0
N657 N 0.33863 0.90905 0.69229 0.0
C658 C 0.2781 0.90056 0.6814 0.0
H659 H 0.27311 0.97239 0.6846 0.0
H660 H 0.26679 0.85045 0.6876 0.0
H661 H 0.27508 0.89149 0.66893 0.0
C662 C 0.26222 0.1611 0.71803 0.0
N663 N 0.27596 0.16694 0.7055 0.0
N664 N 0.28966 0.09364 0.70504 0.0
C665 C 0.28547 0.03993 0.71742 0.0
C666 C 0.26765 0.07958 0.72595 0.0
C667 C 0.24425 0.23203 0.7222 0.0
H668 H 0.23808 0.26894 0.71177 0.0
H669 H 0.22934 0.19879 0.72817 0.0
H670 H 0.2522 0.28392 0.73004 0.0
O671 O 0.31441 0.28886 0.68941 0.0
O672 O 0.33727 0.16473 0.6895 0.0
H673 H 0.29971 0.9473 0.73457 0.0
H674 H 0.29287 0.89411 0.71647 0.0
C675 C 0.29996 0.95768 0.72196 0.0
H676 H 0.31824 0.96788 0.71826 0.0
H677 H 0.35346 0.94542 0.69577 0.0
O678 O 0.26887 0.38276 0.69525 0.0
C679 C 0.33464 0.253 0.68945 0.0
Co680 Co 0.03025 0.74052 0.4399 0.0
Co681 Co 0.05952 0.92242 0.43771 0.0
C682 C 0.02881 0.84931 0.41158 0.0
O683 O 0.02042 0.78154 0.41915 0.0
O684 O 0.0438 0.9038 0.41749 0.0
C685 C 0.01818 0.56048 0.43375 0.0
O686 O 0.0179 0.59532 0.41983 0.0
C687 C 0.05238 0.11682 0.43441 0.0
C688 C 0.08508 0.1834 0.44198 0.0
C689 C 0.0625 0.20227 0.43717 0.0
N690 N 0.06807 0.05007 0.43742 0.0
N691 N 0.08778 0.08996 0.44174 0.0
C692 C 0.02719 0.09836 0.431 0.0
H693 H 0.02223 0.02654 0.43424 0.0
H694 H 0.0159 0.14849 0.43722 0.0
H695 H 0.0241 0.1073 0.41854 0.0
C696 C 0.01168 0.83768 0.46781 0.0
N697 N 0.02528 0.832 0.45522 0.0
N698 N 0.03891 0.9055 0.45467 0.0
C699 C 0.03481 0.9592 0.46706 0.0
C700 C 0.01714 0.9193 0.47568 0.0
C701 C 0.99388 0.76638 0.47211 0.0
H702 H 0.00203 0.71449 0.47986 0.0
H703 H 0.98754 0.72955 0.46172 0.0
H704 H 0.97904 0.79927 0.47822 0.0
O705 O 0.06371 0.71007 0.43913 0.0
O706 O 0.08645 0.83458 0.43908 0.0
H707 H 0.06755 0.03149 0.46777 0.0
H708 H 0.04915 0.05208 0.48413 0.0
C709 C 0.04929 0.0416 0.47152 0.0
H710 H 0.04213 0.10507 0.46604 0.0
H711 H 0.10263 0.0536 0.44519 0.0
O712 O 0.01816 0.61613 0.44508 0.0
C713 C 0.0839 0.74627 0.43911 0.0
Co714 Co 0.71528 0.99619 0.44036 0.0
Co715 Co 0.68561 0.8152 0.43879 0.0
C716 C 0.71591 0.88631 0.4122 0.0
O717 O 0.72474 0.95374 0.41964 0.0
O718 O 0.70089 0.83282 0.41834 0.0
C719 C 0.72557 0.17625 0.43375 0.0
O720 O 0.72406 0.1403 0.41995 0.0
C721 C 0.6921 0.6204 0.43528 0.0
C722 C 0.65976 0.55498 0.44373 0.0
C723 C 0.68197 0.53531 0.43832 0.0
N724 N 0.67677 0.68773 0.43872 0.0
N725 N 0.65727 0.64852 0.44356 0.0
C726 C 0.71714 0.63792 0.43134 0.0
H727 H 0.72251 0.70903 0.43473 0.0
H728 H 0.7286 0.58641 0.43711 0.0
H729 H 0.7195 0.63041 0.41879 0.0
C730 C 0.73431 0.90059 0.46833 0.0
N731 N 0.72044 0.9056 0.45585 0.0
N732 N 0.70653 0.8328 0.45567 0.0
C733 C 0.71056 0.78088 0.46829 0.0
C734 C 0.72841 0.82141 0.47667 0.0
C735 C 0.75176 0.97321 0.47265 0.0
H736 H 0.74364 0.02194 0.48095 0.0
H737 H 0.75728 0.01312 0.46238 0.0
H738 H 0.76713 0.941 0.47826 0.0
O739 O 0.68187 0.02694 0.43979 0.0
O740 O 0.65877 0.90367 0.44023 0.0
H741 H 0.67895 0.7015 0.4694 0.0
H742 H 0.69925 0.67574 0.48458 0.0
C743 C 0.69765 0.69354 0.47227 0.0
H744 H 0.70501 0.63479 0.46562 0.0
H745 H 0.64273 0.68541 0.44741 0.0
O746 O 0.72724 0.12146 0.44516 0.0
C747 C 0.66157 0.99184 0.44003 0.0
Co748 Co 0.02958 0.99674 0.31813 0.0
Co749 Co 0.05901 0.81513 0.32009 0.0
C750 C 0.02818 0.88715 0.3463 0.0
O751 O 0.01966 0.95496 0.3388 0.0
O752 O 0.04322 0.83322 0.34031 0.0
C753 C 0.01806 0.17684 0.32442 0.0
O754 O 0.01826 0.14164 0.33832 0.0
C755 C 0.0521 0.62063 0.32353 0.0
C756 C 0.08469 0.55436 0.31572 0.0
C757 C 0.06223 0.53525 0.32073 0.0
N758 N 0.06765 0.68754 0.32034 0.0
N759 N 0.08731 0.64784 0.31588 0.0
C760 C 0.02692 0.63885 0.32702 0.0
H761 H 0.02183 0.71022 0.32359 0.0
H762 H 0.01562 0.58786 0.32101 0.0
H763 H 0.02401 0.63112 0.33952 0.0
C764 C 0.0113 0.90155 0.29 0.0
N765 N 0.02478 0.90604 0.30266 0.0
N766 N 0.0386 0.833 0.30299 0.0
C767 C 0.03488 0.7813 0.29031 0.0
C768 C 0.01735 0.82234 0.28172 0.0
C769 C 0.99419 0.975 0.28546 0.0
H770 H 0.00343 0.0296 0.27883 0.0
H771 H 0.98658 0.00788 0.29583 0.0
H772 H 0.98017 0.94563 0.27815 0.0
O773 O 0.063 0.02722 0.31907 0.0
O774 O 0.08592 0.90325 0.31895 0.0
H775 H 0.06641 0.70115 0.28968 0.0
H776 H 0.04667 0.67652 0.27413 0.0
C777 C 0.04782 0.69379 0.28648 0.0
H778 H 0.04012 0.63499 0.29295 0.0
H779 H 0.10206 0.68434 0.31229 0.0
O780 O 0.01759 0.12147 0.31305 0.0
C781 C 0.08324 0.9915 0.31909 0.0
Co782 Co 0.71701 0.74254 0.31825 0.0
Co783 Co 0.68765 0.92449 0.32019 0.0
C784 C 0.71728 0.85006 0.34675 0.0
O785 O 0.72595 0.78267 0.33923 0.0
O786 O 0.70258 0.90513 0.34066 0.0
C787 C 0.72911 0.56233 0.32449 0.0
O788 O 0.72931 0.59701 0.33842 0.0
C789 C 0.69464 0.11886 0.32368 0.0
C790 C 0.66228 0.18552 0.31552 0.0
C791 C 0.68467 0.20436 0.32071 0.0
N792 N 0.67906 0.05215 0.32042 0.0
N793 N 0.65954 0.09211 0.31575 0.0
C794 C 0.71967 0.10022 0.32755 0.0
H795 H 0.72476 0.02851 0.32433 0.0
H796 H 0.73124 0.15055 0.3216 0.0
H797 H 0.72219 0.10857 0.34008 0.0
C798 C 0.73632 0.84032 0.29058 0.0
N799 N 0.72247 0.83458 0.30306 0.0
N800 N 0.70885 0.90813 0.30349 0.0
C801 C 0.71323 0.96194 0.29115 0.0
C802 C 0.73106 0.92205 0.28267 0.0
C803 C 0.75411 0.7687 0.28639 0.0
H804 H 0.74598 0.71688 0.27861 0.0
H805 H 0.76028 0.73183 0.29681 0.0
H806 H 0.76904 0.80129 0.28034 0.0
O807 O 0.68357 0.71216 0.31853 0.0
O808 O 0.66078 0.83651 0.3184 0.0
H809 H 0.68044 0.03372 0.29007 0.0
H810 H 0.69926 0.05493 0.27394 0.0
C811 C 0.69879 0.0442 0.28654 0.0
H812 H 0.70574 0.10767 0.29214 0.0
H813 H 0.64483 0.05579 0.31204 0.0
O814 O 0.72923 0.61811 0.31317 0.0
C815 C 0.66337 0.74821 0.31834 0.0
Co816 Co 0.96645 0.75238 0.06781 0.0
Co817 Co 0.93709 0.57067 0.06979 0.0
C818 C 0.96792 0.64281 0.096 0.0
O819 O 0.97637 0.71073 0.08849 0.0
O820 O 0.95289 0.58873 0.09001 0.0
C821 C 0.9781 0.93244 0.07408 0.0
O822 O 0.97802 0.89731 0.08798 0.0
C823 C 0.94401 0.37617 0.07323 0.0
C824 C 0.9114 0.30989 0.06543 0.0
C825 C 0.93388 0.29079 0.07044 0.0
N826 N 0.92845 0.44308 0.07004 0.0
N827 N 0.90879 0.40336 0.06559 0.0
C828 C 0.9692 0.39439 0.07671 0.0
H829 H 0.97427 0.46581 0.0733 0.0
H830 H 0.98049 0.3435 0.07067 0.0
H831 H 0.97214 0.38648 0.0892 0.0
C832 C 0.98485 0.65694 0.03974 0.0
N833 N 0.9713 0.66156 0.05237 0.0
N834 N 0.9575 0.58847 0.0527 0.0
C835 C 0.96129 0.53662 0.04004 0.0
C836 C 0.97885 0.57759 0.03148 0.0
C837 C 0.00199 0.73032 0.03523 0.0
H838 H 0.99276 0.78508 0.02862 0.0
H839 H 0.00961 0.76303 0.04562 0.0
H840 H 0.01598 0.70096 0.02791 0.0
O841 O 0.93301 0.7829 0.06868 0.0
O842 O 0.91016 0.65873 0.06861 0.0
H843 H 0.9298 0.4562 0.03941 0.0
H844 H 0.94953 0.4318 0.02386 0.0
C845 C 0.94839 0.44901 0.03621 0.0
H846 H 0.95614 0.39025 0.04267 0.0
H847 H 0.89403 0.43986 0.06201 0.0
O848 O 0.97847 0.87702 0.06272 0.0
C849 C 0.91278 0.74701 0.06869 0.0
Co850 Co 0.28086 0.49899 0.06793 0.0
Co851 Co 0.3116 0.67714 0.0684 0.0
C852 C 0.28349 0.60509 0.09598 0.0
O853 O 0.27202 0.54355 0.08873 0.0
O854 O 0.29913 0.65331 0.08937 0.0
C855 C 0.2714 0.3184 0.07486 0.0
O856 O 0.27435 0.35451 0.08855 0.0
C857 C 0.30454 0.87157 0.07257 0.0
C858 C 0.3358 0.93948 0.06297 0.0
C859 C 0.31394 0.95758 0.06911 0.0
N860 N 0.31993 0.80543 0.06862 0.0
N861 N 0.33881 0.84621 0.0631 0.0
C862 C 0.28012 0.85163 0.0777 0.0
H863 H 0.27468 0.78074 0.07423 0.0
H864 H 0.26778 0.90337 0.07286 0.0
H865 H 0.27934 0.85597 0.0904 0.0
C866 C 0.26068 0.59468 0.0403 0.0
N867 N 0.27514 0.58878 0.05247 0.0
N868 N 0.28912 0.6613 0.05246 0.0
C869 C 0.28434 0.71463 0.04014 0.0
C870 C 0.2659 0.6755 0.03213 0.0
C871 C 0.24238 0.52413 0.03662 0.0
H872 H 0.23673 0.48772 0.04722 0.0
H873 H 0.22721 0.55762 0.03096 0.0
H874 H 0.24979 0.47177 0.02864 0.0
O875 O 0.31453 0.46809 0.06791 0.0
O876 O 0.33805 0.58958 0.06563 0.0
H877 H 0.29765 0.80633 0.02251 0.0
H878 H 0.29271 0.85959 0.04089 0.0
C879 C 0.29889 0.79554 0.03508 0.0
H880 H 0.3174 0.78333 0.03809 0.0
H881 H 0.35318 0.81051 0.05872 0.0
O882 O 0.26874 0.37317 0.06352 0.0
C883 C 0.33493 0.5018 0.06664 0.0
Co884 Co 0.96688 0.49448 0.18949 0.0
Co885 Co 0.93751 0.67621 0.18755 0.0
C886 C 0.96816 0.60396 0.16128 0.0
O887 O 0.97666 0.53607 0.16878 0.0
O888 O 0.95318 0.65807 0.16729 0.0
C889 C 0.97856 0.31441 0.18319 0.0
O890 O 0.97844 0.34952 0.16929 0.0
C891 C 0.94444 0.87071 0.18408 0.0
C892 C 0.91188 0.93705 0.19195 0.0
C893 C 0.93432 0.95611 0.1869 0.0
N894 N 0.92888 0.80383 0.1873 0.0
N895 N 0.90925 0.84358 0.1918 0.0
C896 C 0.9696 0.85243 0.18055 0.0
H897 H 0.97468 0.78099 0.18395 0.0
H898 H 0.98093 0.90328 0.18658 0.0
H899 H 0.97248 0.86035 0.16806 0.0
C900 C 0.98536 0.58983 0.21756 0.0
N901 N 0.97182 0.58534 0.20492 0.0
N902 N 0.95803 0.65846 0.20459 0.0
C903 C 0.96182 0.71022 0.21726 0.0
C904 C 0.97938 0.66914 0.22583 0.0
C905 C 0.00245 0.51626 0.22208 0.0
H906 H 0.99319 0.46168 0.22871 0.0
H907 H 0.01004 0.48338 0.21171 0.0
H908 H 0.01647 0.54552 0.2294 0.0
O909 O 0.93344 0.46397 0.18871 0.0
O910 O 0.91059 0.58814 0.18882 0.0
H911 H 0.9303 0.79043 0.21796 0.0
H912 H 0.95012 0.8151 0.23346 0.0
C913 C 0.94891 0.79777 0.22111 0.0
H914 H 0.95659 0.85653 0.21462 0.0
H915 H 0.89451 0.80712 0.19542 0.0
O916 O 0.97895 0.36986 0.19455 0.0
C917 C 0.91322 0.49986 0.18874 0.0
Co918 Co 0.28137 0.7416 0.18975 0.0
Co919 Co 0.3122 0.56354 0.19002 0.0
C920 C 0.28472 0.6334 0.16194 0.0
O921 O 0.27308 0.69598 0.16885 0.0
O922 O 0.2999 0.58523 0.16902 0.0
C923 C 0.27235 0.92223 0.18267 0.0
O924 O 0.27596 0.88616 0.16904 0.0
C925 C 0.30522 0.36903 0.18594 0.0
C926 C 0.33627 0.3011 0.19582 0.0
C927 C 0.31456 0.28303 0.18945 0.0
N928 N 0.3205 0.43519 0.19006 0.0
N929 N 0.33926 0.3944 0.19577 0.0
C930 C 0.28094 0.38887 0.18051 0.0
H931 H 0.27525 0.45917 0.18414 0.0
H932 H 0.26852 0.33626 0.185 0.0
H933 H 0.28058 0.38605 0.1678 0.0
C934 C 0.26064 0.64749 0.2174 0.0
N935 N 0.27536 0.6527 0.20535 0.0
N936 N 0.28943 0.58047 0.20568 0.0
C937 C 0.28442 0.52795 0.21805 0.0
C938 C 0.26577 0.56736 0.22578 0.0
C939 C 0.24223 0.7181 0.22078 0.0
H940 H 0.24948 0.77111 0.22872 0.0
H941 H 0.23675 0.75367 0.21007 0.0
H942 H 0.22699 0.68486 0.2264 0.0
O943 O 0.31502 0.77271 0.19007 0.0
O944 O 0.33855 0.65155 0.19278 0.0
H945 H 0.31747 0.45967 0.22053 0.0
H946 H 0.29738 0.43734 0.23595 0.0
C947 C 0.29891 0.44746 0.22338 0.0
H948 H 0.2929 0.38305 0.2176 0.0
H949 H 0.35354 0.43009 0.20028 0.0
O950 O 0.26912 0.86743 0.19393 0.0
C951 C 0.3354 0.73924 0.1916 0.0
Co952 Co 0.0297 0.24861 0.93946 0.0
Co953 Co 0.05913 0.43024 0.93757 0.0
C954 C 0.02844 0.35815 0.91128 0.0
O955 O 0.0199 0.29033 0.91877 0.0
O956 O 0.04345 0.41215 0.9173 0.0
C957 C 0.01821 0.06852 0.93314 0.0
O958 O 0.01846 0.10373 0.91925 0.0
C959 C 0.05225 0.62476 0.9341 0.0
C960 C 0.08482 0.69096 0.942 0.0
C961 C 0.06238 0.71011 0.93693 0.0
N962 N 0.06779 0.55782 0.93733 0.0
N963 N 0.08742 0.59748 0.94185 0.0
C964 C 0.0271 0.60659 0.93054 0.0
H965 H 0.02198 0.5352 0.93395 0.0
H966 H 0.01577 0.65755 0.93654 0.0
H967 H 0.02425 0.61443 0.91804 0.0
C968 C 0.01122 0.344 0.96752 0.0
N969 N 0.0248 0.3394 0.95491 0.0
N970 N 0.03862 0.41244 0.9546 0.0
C971 C 0.03481 0.46424 0.96726 0.0
C972 C 0.01721 0.42328 0.9758 0.0
C973 C 0.99407 0.27062 0.97201 0.0
H974 H 0.00322 0.21634 0.97877 0.0
H975 H 0.98663 0.2373 0.96162 0.0
H976 H 0.97994 0.3002 0.97919 0.0
O977 O 0.06313 0.21813 0.93865 0.0
O978 O 0.08604 0.34213 0.9388 0.0
H979 H 0.06632 0.54443 0.96798 0.0
H980 H 0.0465 0.56908 0.98347 0.0
C981 C 0.04772 0.55178 0.97113 0.0
H982 H 0.04004 0.61055 0.96463 0.0
H983 H 0.10215 0.56095 0.94548 0.0
O984 O 0.01769 0.12388 0.94451 0.0
C985 C 0.08337 0.25387 0.93869 0.0
Co986 Co 0.71737 0.50642 0.93991 0.0
Co987 Co 0.68804 0.32463 0.93767 0.0
C988 C 0.71858 0.39848 0.91151 0.0
O989 O 0.72706 0.46591 0.91912 0.0
O990 O 0.70363 0.34384 0.91742 0.0
C991 C 0.72957 0.68661 0.93381 0.0
O992 O 0.73004 0.65191 0.91989 0.0
C993 C 0.69521 0.13028 0.93429 0.0
C994 C 0.66257 0.06349 0.94191 0.0
C995 C 0.68514 0.04474 0.93708 0.0
N996 N 0.6795 0.19693 0.93732 0.0
N997 N 0.65983 0.1569 0.94168 0.0
C998 C 0.72037 0.14898 0.93084 0.0
H999 H 0.72532 0.22076 0.9341 0.0
H1000 H 0.73172 0.09879 0.93701 0.0
H1001 H 0.72338 0.14039 0.91836 0.0
C1002 C 0.73595 0.40863 0.96781 0.0
N1003 N 0.72236 0.41458 0.9552 0.0
N1004 N 0.7087 0.34118 0.95463 0.0
C1005 C 0.71277 0.2873 0.96701 0.0
C1006 C 0.73046 0.32693 0.97566 0.0
C1007 C 0.75377 0.4798 0.97214 0.0
H1008 H 0.7601 0.51683 0.96177 0.0
H1009 H 0.76861 0.44675 0.97824 0.0
H1010 H 0.74563 0.53155 0.97991 0.0
O1011 O 0.68392 0.53686 0.93916 0.0
O1012 O 0.66112 0.41253 0.93908 0.0
H1013 H 0.69834 0.19446 0.98406 0.0
H1014 H 0.70532 0.14154 0.96596 0.0
C1015 C 0.69821 0.20506 0.97146 0.0
H1016 H 0.67997 0.21546 0.96769 0.0
H1017 H 0.64498 0.19315 0.94515 0.0
O1018 O 0.72945 0.63084 0.94513 0.0
C1019 C 0.66371 0.50082 0.93912 0.0
Co1020 Co 0.03011 0.50596 0.81777 0.0
Co1021 Co 0.05942 0.32409 0.81974 0.0
C1022 C 0.02874 0.39659 0.84598 0.0
O1023 O 0.0203 0.46451 0.83847 0.0
O1024 O 0.04371 0.34232 0.83999 0.0
C1025 C 0.01839 0.686 0.82404 0.0
O1026 O 0.01841 0.65089 0.83794 0.0
C1027 C 0.05253 0.12961 0.82323 0.0
C1028 C 0.0851 0.06337 0.81536 0.0
C1029 C 0.06266 0.04424 0.82041 0.0
N1030 N 0.06807 0.19653 0.82 0.0
N1031 N 0.0877 0.15684 0.81551 0.0
C1032 C 0.02737 0.14781 0.82676 0.0
H1033 H 0.02227 0.21923 0.82336 0.0
H1034 H 0.01604 0.09692 0.82075 0.0
H1035 H 0.02449 0.13992 0.83926 0.0
C1036 C 0.0115 0.41031 0.78977 0.0
N1037 N 0.02513 0.415 0.80236 0.0
N1038 N 0.0389 0.34181 0.80269 0.0
C1039 C 0.03501 0.28982 0.79006 0.0
C1040 C 0.0174 0.3308 0.78152 0.0
C1041 C 0.99436 0.48375 0.78528 0.0
H1042 H 0.00356 0.53836 0.77863 0.0
H1043 H 0.98682 0.51663 0.79567 0.0
H1044 H 0.9803 0.4544 0.778 0.0
O1045 O 0.06357 0.53637 0.81856 0.0
O1046 O 0.08636 0.41202 0.81848 0.0
H1047 H 0.06645 0.20911 0.78939 0.0
H1048 H 0.04661 0.18464 0.77389 0.0
C1049 C 0.04783 0.20203 0.78623 0.0
H1050 H 0.04009 0.14344 0.79273 0.0
H1051 H 0.10243 0.19335 0.81189 0.0
O1052 O 0.01806 0.63056 0.81268 0.0
C1053 C 0.08377 0.50031 0.81854 0.0
Co1054 Co 0.71662 0.25537 0.81787 0.0
Co1055 Co 0.68711 0.43674 0.82008 0.0
C1056 C 0.71812 0.36366 0.84617 0.0
O1057 O 0.7266 0.29622 0.83857 0.0
O1058 O 0.70303 0.41785 0.84027 0.0
C1059 C 0.72845 0.07501 0.82402 0.0
O1060 O 0.72876 0.10996 0.83793 0.0
C1061 C 0.69414 0.63122 0.82359 0.0
C1062 C 0.66152 0.69781 0.81588 0.0
C1063 C 0.68404 0.71672 0.8208 0.0
N1064 N 0.67851 0.56445 0.82047 0.0
N1065 N 0.65884 0.60436 0.81607 0.0
C1066 C 0.71933 0.61268 0.827 0.0
H1067 H 0.72434 0.54124 0.82356 0.0
H1068 H 0.73063 0.6635 0.82094 0.0
H1069 H 0.72235 0.62036 0.83949 0.0
C1070 C 0.73505 0.35308 0.78996 0.0
N1071 N 0.72139 0.34704 0.80252 0.0
N1072 N 0.70743 0.41964 0.80292 0.0
C1073 C 0.71117 0.47231 0.79034 0.0
C1074 C 0.72892 0.43266 0.78179 0.0
C1075 C 0.75259 0.28127 0.78544 0.0
H1076 H 0.74415 0.23026 0.77766 0.0
H1077 H 0.75902 0.24366 0.79572 0.0
H1078 H 0.76738 0.31367 0.77921 0.0
O1079 O 0.68318 0.22488 0.8188 0.0
O1080 O 0.66019 0.34863 0.8189 0.0
H1081 H 0.67952 0.55181 0.78987 0.0
H1082 H 0.69894 0.57607 0.77415 0.0
C1083 C 0.69804 0.55942 0.78653 0.0
H1084 H 0.70581 0.61864 0.79286 0.0
H1085 H 0.64404 0.56802 0.81252 0.0
O1086 O 0.72853 0.1306 0.81267 0.0
C1087 C 0.66292 0.26039 0.8189 0.0
C1088 C 0.47206 0.20836 0.12224 0.0
C1089 C 0.47096 0.12909 0.11284 0.0
H1090 H 0.47112 0.26156 0.14521 0.0
C1091 C 0.47124 0.04057 0.1197 0.0
H1092 H 0.47162 0.27743 0.11726 0.0
C1093 C 0.47169 0.03151 0.13568 0.0
C1094 C 0.47105 0.11085 0.14508 0.0
H1095 H 0.4703 0.9784 0.11273 0.0
H1096 H 0.47094 0.96249 0.14067 0.0
C1097 C 0.4717 0.19933 0.13822 0.0
C1098 C 0.77336 0.03475 0.12235 0.0
C1099 C 0.77423 0.11418 0.11297 0.0
H1100 H 0.7747 0.98136 0.1453 0.0
C1101 C 0.77365 0.2026 0.11985 0.0
H1102 H 0.77405 0.96577 0.11735 0.0
C1103 C 0.77329 0.21147 0.13583 0.0
C1104 C 0.77433 0.13207 0.14521 0.0
H1105 H 0.77441 0.26489 0.11288 0.0
H1106 H 0.77393 0.28047 0.14083 0.0
C1107 C 0.77381 0.04364 0.13833 0.0
C1108 C 0.52426 0.95851 0.88824 0.0
C1109 C 0.52477 0.86971 0.89499 0.0
H1110 H 0.52446 0.0375 0.86737 0.0
C1111 C 0.52368 0.79082 0.88551 0.0
H1112 H 0.52517 0.0204 0.89529 0.0
C1113 C 0.524 0.80055 0.86954 0.0
C1114 C 0.52459 0.88933 0.86279 0.0
H1115 H 0.5243 0.72155 0.89041 0.0
H1116 H 0.52472 0.73864 0.86249 0.0
C1117 C 0.52377 0.96825 0.87227 0.0
C1118 C 0.22295 0.95551 0.8696 0.0
C1119 C 0.22241 0.867 0.86275 0.0
H1120 H 0.2226 0.03363 0.89054 0.0
C1121 C 0.22331 0.78768 0.87215 0.0
H1122 H 0.22218 0.01771 0.8626 0.0
C1123 C 0.22283 0.79675 0.88813 0.0
C1124 C 0.22225 0.88527 0.89497 0.0
H1125 H 0.22266 0.71864 0.86718 0.0
H1126 H 0.22195 0.73456 0.89511 0.0
C1127 C 0.22328 0.96458 0.88557 0.0
C1128 C 0.47453 0.54116 0.63611 0.0
C1129 C 0.47343 0.6206 0.64547 0.0
H1130 H 0.47341 0.4876 0.61317 0.0
C1131 C 0.47383 0.70901 0.63857 0.0
H1132 H 0.474 0.47218 0.64112 0.0
C1133 C 0.47423 0.71781 0.62259 0.0
C1134 C 0.47342 0.63831 0.61323 0.0
H1135 H 0.4729 0.7713 0.64552 0.0
H1136 H 0.47345 0.78675 0.61757 0.0
C1137 C 0.47413 0.54994 0.62013 0.0
C1138 C 0.77152 0.70494 0.63564 0.0
C1139 C 0.77389 0.62685 0.64522 0.0
H1140 H 0.77167 0.75648 0.61257 0.0
C1141 C 0.77484 0.53782 0.63857 0.0
H1142 H 0.77098 0.77444 0.64044 0.0
C1143 C 0.77451 0.52747 0.6226 0.0
C1144 C 0.77402 0.60617 0.61303 0.0
H1145 H 0.77674 0.47654 0.64571 0.0
H1146 H 0.77633 0.45843 0.61775 0.0
C1147 C 0.772 0.69478 0.61969 0.0
C1148 C 0.52378 0.28383 0.38597 0.0
C1149 C 0.52456 0.36317 0.39536 0.0
H1150 H 0.52528 0.23064 0.36302 0.0
C1151 C 0.5241 0.45166 0.3885 0.0
H1152 H 0.52438 0.21481 0.39096 0.0
C1153 C 0.5239 0.46068 0.37252 0.0
C1154 C 0.52496 0.38135 0.36313 0.0
H1155 H 0.52481 0.51388 0.39548 0.0
H1156 H 0.52458 0.52973 0.36754 0.0
C1157 C 0.52438 0.29286 0.36999 0.0
C1158 C 0.22334 0.2814 0.37248 0.0
C1159 C 0.22228 0.36058 0.36305 0.0
H1160 H 0.22238 0.22861 0.39547 0.0
C1161 C 0.22293 0.44918 0.36986 0.0
H1162 H 0.2226 0.21229 0.36753 0.0
C1163 C 0.22353 0.45848 0.38583 0.0
C1164 C 0.22267 0.37931 0.39527 0.0
H1165 H 0.22204 0.51128 0.36285 0.0
H1166 H 0.22294 0.52761 0.39078 0.0
C1167 C 0.22313 0.2907 0.38845 0.0
C1168 C 0.97462 0.03726 0.6358 0.0
C1169 C 0.97345 0.11707 0.64507 0.0
H1170 H 0.97359 0.98282 0.61291 0.0
C1171 C 0.97386 0.2052 0.63809 0.0
H1172 H 0.97408 0.96847 0.64088 0.0
C1173 C 0.97431 0.21339 0.6221 0.0
C1174 C 0.97354 0.13352 0.61283 0.0
H1175 H 0.97288 0.26776 0.64498 0.0
H1176 H 0.97351 0.28214 0.61702 0.0
C1177 C 0.97426 0.04542 0.61981 0.0
C1178 C 0.27416 0.20861 0.61994 0.0
C1179 C 0.27456 0.11992 0.61315 0.0
H1180 H 0.27455 0.28728 0.64083 0.0
C1181 C 0.27352 0.04088 0.62261 0.0
H1182 H 0.27505 0.27061 0.61291 0.0
C1183 C 0.27397 0.05036 0.63858 0.0
C1184 C 0.27465 0.13903 0.64536 0.0
H1185 H 0.27407 0.97168 0.61769 0.0
H1186 H 0.27471 0.98833 0.64561 0.0
C1187 C 0.27379 0.21811 0.63591 0.0
C1188 C 0.02255 0.77968 0.38568 0.0
C1189 C 0.02354 0.85901 0.39507 0.0
H1190 H 0.02359 0.72655 0.36272 0.0
C1191 C 0.02283 0.9475 0.38821 0.0
H1192 H 0.02333 0.71064 0.39066 0.0
C1193 C 0.02224 0.95655 0.37224 0.0
C1194 C 0.02317 0.87725 0.36284 0.0
H1195 H 0.02366 0.00971 0.3952 0.0
H1196 H 0.02279 0.02561 0.36726 0.0
C1197 C 0.02278 0.78874 0.3697 0.0
C1198 C 0.72357 0.94616 0.37031 0.0
C1199 C 0.72172 0.85821 0.36339 0.0
H1200 H 0.7241 0.02365 0.39132 0.0
C1201 C 0.72077 0.77866 0.37273 0.0
H1202 H 0.7242 0.00853 0.36336 0.0
C1203 C 0.71995 0.78742 0.3887 0.0
C1204 C 0.72087 0.87565 0.39564 0.0
H1205 H 0.71901 0.71013 0.36767 0.0
H1206 H 0.71776 0.72541 0.3956 0.0
C1207 C 0.72357 0.9547 0.38631 0.0
C1208 C 0.97376 0.70257 0.13792 0.0
C1209 C 0.9732 0.61398 0.14474 0.0
H1210 H 0.97345 0.781 0.117 0.0
C1211 C 0.97408 0.5348 0.13532 0.0
H1212 H 0.973 0.76467 0.14493 0.0
C1213 C 0.97361 0.5441 0.11934 0.0
C1214 C 0.97307 0.63271 0.11252 0.0
H1215 H 0.97341 0.46569 0.14027 0.0
H1216 H 0.97273 0.48201 0.11234 0.0
C1217 C 0.9741 0.71187 0.12195 0.0
C1218 C 0.26209 0.634 0.12079 0.0
C1219 C 0.2824 0.60872 0.11282 0.0
H1220 H 0.24688 0.6639 0.14286 0.0
C1221 C 0.30278 0.58923 0.12105 0.0
H1222 H 0.2462 0.64963 0.11459 0.0
C1223 C 0.30304 0.59485 0.13698 0.0
C1224 C 0.28306 0.62257 0.14509 0.0
H1225 H 0.31864 0.56961 0.11512 0.0
H1226 H 0.31921 0.58002 0.14291 0.0
C1227 C 0.26251 0.64236 0.13687 0.0
C1228 C 0.02302 0.2981 0.86934 0.0
C1229 C 0.02362 0.38665 0.86251 0.0
H1230 H 0.02314 0.21981 0.89028 0.0
C1231 C 0.02265 0.46589 0.87192 0.0
H1232 H 0.02385 0.23595 0.86235 0.0
C1233 C 0.02296 0.45669 0.8879 0.0
C1234 C 0.02344 0.36814 0.89473 0.0
H1235 H 0.02334 0.53497 0.86696 0.0
H1236 H 0.02376 0.51883 0.89489 0.0
C1237 C 0.02253 0.28891 0.88532 0.0
C1238 C 0.72455 0.29322 0.872 0.0
C1239 C 0.72331 0.37294 0.8627 0.0
H1240 H 0.72368 0.23895 0.8949 0.0
C1241 C 0.7237 0.46113 0.86966 0.0
H1242 H 0.72402 0.22438 0.86694 0.0
C1243 C 0.72424 0.46945 0.88565 0.0
C1244 C 0.72358 0.38966 0.89495 0.0
H1245 H 0.72266 0.52362 0.86276 0.0
H1246 H 0.72345 0.53823 0.89071 0.0
C1247 C 0.72428 0.30151 0.88799 0.0
C1248 C 0.48536 0.98968 0.99081 0.0
C1249 C 0.50845 0.95778 0.99049 0.0
H1250 H 0.45838 0.05401 0.00419 0.0
C1251 C 0.52231 0.96651 1.0037 0.0
H1252 H 0.47449 0.98473 0.98069 0.0
C1253 C 0.51322 0.00675 0.01703 0.0
C1254 C 0.49012 0.03853 0.01737 0.0
H1255 H 0.54021 0.9425 1.00365 0.0
H1256 H 0.52408 0.01163 0.02717 0.0
C1257 C 0.47628 0.02999 0.00415 0.0
C1258 C 0.75464 0.15631 0.00485 0.0
C1259 C 0.75729 0.21279 0.01785 0.0
H1260 H 0.74472 0.14918 0.98118 0.0
C1261 C 0.7514 0.3077 0.01683 0.0
H1262 H 0.75943 0.08344 0.00522 0.0
C1263 C 0.74315 0.34553 1.00307 0.0
C1264 C 0.74051 0.28907 0.99007 0.0
H1265 H 0.75308 0.35268 0.02673 0.0
H1266 H 0.73836 0.4184 1.0027 0.0
C1267 C 0.74639 0.19415 0.99109 0.0
C1268 C 0.49679 0.30408 0.24125 0.0
C1269 C 0.4909 0.20925 0.24013 0.0
H1270 H 0.50984 0.41413 0.2555 0.0
C1271 C 0.49353 0.15216 0.25306 0.0
H1272 H 0.49509 0.3495 0.2314 0.0
C1273 C 0.50178 0.18937 0.26686 0.0
C1274 C 0.50766 0.28423 0.26799 0.0
H1275 H 0.48872 0.07934 0.25261 0.0
H1276 H 0.50344 0.14397 0.27672 0.0
C1277 C 0.50505 0.34129 0.25505 0.0
C1278 C 0.75557 0.09163 0.25343 0.0
C1279 C 0.75819 0.03486 0.24046 0.0
H1280 H 0.74557 0.09942 0.27708 0.0
C1281 C 0.75226 0.94002 0.24154 0.0
H1282 H 0.76038 0.16446 0.25302 0.0
C1283 C 0.74395 0.90257 0.25532 0.0
C1284 C 0.7413 0.95937 0.26828 0.0
H1285 H 0.75391 0.89481 0.23166 0.0
H1286 H 0.73911 0.82978 0.25572 0.0
C1287 C 0.74726 0.05418 0.26721 0.0
C1288 C 0.2437 0.69279 0.99126 0.0
C1289 C 0.23804 0.78788 0.99016 0.0
H1290 H 0.25682 0.5824 0.00544 0.0
C1291 C 0.24099 0.84486 1.00306 0.0
H1292 H 0.24181 0.64741 0.98143 0.0
C1293 C 0.24945 0.80746 0.0168 0.0
C1294 C 0.25521 0.71248 0.01788 0.0
H1295 H 0.23637 0.91789 1.00263 0.0
H1296 H 0.25152 0.85291 0.02662 0.0
C1297 C 0.25213 0.65536 0.00501 0.0
C1298 C 0.476 0.72346 0.75404 0.0
C1299 C 0.48978 0.71406 0.74081 0.0
H1300 H 0.47428 0.77074 0.77739 0.0
C1301 C 0.5128 0.74686 0.741 0.0
H1302 H 0.45816 0.6988 0.7541 0.0
C1303 C 0.52188 0.78877 0.7542 0.0
C1304 C 0.5081 0.79812 0.76743 0.0
H1305 H 0.52361 0.74143 0.73085 0.0
H1306 H 0.53972 0.81344 0.75414 0.0
C1307 C 0.48508 0.76534 0.76724 0.0
C1308 C 0.25446 0.09802 0.75323 0.0
C1309 C 0.25735 0.04163 0.74025 0.0
H1310 H 0.24408 0.105 0.77681 0.0
C1311 C 0.25143 0.94673 0.7412 0.0
H1312 H 0.25926 0.17089 0.75292 0.0
C1313 C 0.24291 0.90881 0.75488 0.0
C1314 C 0.24002 0.96521 0.76786 0.0
H1315 H 0.25329 0.90183 0.7313 0.0
H1316 H 0.23811 0.83595 0.75519 0.0
C1317 C 0.24594 0.0601 0.76691 0.0
C1318 C 0.49229 0.59504 0.50512 0.0
C1319 C 0.48959 0.53864 0.51813 0.0
H1320 H 0.50229 0.60198 0.48147 0.0
C1321 C 0.49536 0.44361 0.51712 0.0
H1322 H 0.48759 0.668 0.50548 0.0
C1323 C 0.50358 0.4056 0.50337 0.0
C1324 C 0.50631 0.46203 0.49038 0.0
H1325 H 0.49364 0.39869 0.52704 0.0
H1326 H 0.5083 0.33266 0.50302 0.0
C1327 C 0.50052 0.55703 0.49138 0.0
C1328 C 0.76185 0.75319 0.49124 0.0
C1329 C 0.73878 0.78549 0.49105 0.0
H1330 H 0.78888 0.68734 0.5044 0.0
C1331 C 0.72506 0.77617 0.50431 0.0
H1332 H 0.77262 0.75854 0.48108 0.0
C1333 C 0.73421 0.73461 0.51752 0.0
C1334 C 0.75726 0.70217 0.51771 0.0
H1335 H 0.70719 0.80054 0.50438 0.0
H1336 H 0.72343 0.7291 0.52768 0.0
C1337 C 0.77101 0.7117 0.50447 0.0
C1338 C 0.76199 0.50617 0.76765 0.0
C1339 C 0.73924 0.47054 0.76756 0.0
H1340 H 0.78876 0.57592 0.75485 0.0
C1341 C 0.72575 0.47844 0.75418 0.0
H1342 H 0.77254 0.50221 0.77794 0.0
C1343 C 0.73491 0.52096 0.74105 0.0
C1344 C 0.75773 0.55603 0.74111 0.0
H1345 H 0.70808 0.45186 0.75392 0.0
H1346 H 0.72438 0.52465 0.73075 0.0
C1347 C 0.77114 0.5489 0.75454 0.0
C1348 C 0.23481 0.2401 0.51729 0.0
C1349 C 0.25795 0.20878 0.51764 0.0
H1350 H 0.20777 0.30418 0.50392 0.0
C1351 C 0.27183 0.2182 0.50446 0.0
H1352 H 0.22392 0.23458 0.5274 0.0
C1353 C 0.26273 0.25871 0.49114 0.0
C1354 C 0.23958 0.29 0.49079 0.0
H1355 H 0.28976 0.1946 0.50451 0.0
H1356 H 0.27362 0.26423 0.48104 0.0
C1357 C 0.22571 0.2806 0.50397 0.0
C1358 C 0.25168 0.58883 0.2528 0.0
C1359 C 0.25484 0.53118 0.24 0.0
H1360 H 0.24132 0.59764 0.27636 0.0
C1361 C 0.24907 0.43625 0.24117 0.0
H1362 H 0.25637 0.66178 0.2523 0.0
C1363 C 0.24057 0.39936 0.25492 0.0
C1364 C 0.23761 0.4568 0.26778 0.0
H1365 H 0.25122 0.3904 0.23141 0.0
H1366 H 0.23599 0.32632 0.25543 0.0
C1367 C 0.24323 0.5519 0.26657 0.0
C1368 C 0.00448 0.90049 0.50307 0.0
C1369 C 0.00703 0.95697 0.49006 0.0
H1370 H 0.99458 0.89328 0.52674 0.0
C1371 C 0.00101 0.05174 0.49105 0.0
H1372 H 0.00936 0.82773 0.50272 0.0
C1373 C 0.99271 0.08946 0.5048 0.0
C1374 C 0.99017 0.033 0.51781 0.0
H1375 H 0.00262 0.09668 0.48114 0.0
H1376 H 0.98782 0.16222 0.50515 0.0
C1377 C 0.99618 0.93822 0.51682 0.0
C1378 C 0.01197 0.24336 0.74071 0.0
C1379 C 0.98888 0.2114 0.74044 0.0
H1380 H 0.03893 0.30894 0.75395 0.0
C1381 C 0.97501 0.22134 0.75361 0.0
H1382 H 0.02285 0.23749 0.73061 0.0
C1383 C 0.98408 0.26288 0.76686 0.0
C1384 C 0.00717 0.29475 0.76713 0.0
H1385 H 0.95711 0.1973 0.75362 0.0
H1386 H 0.9732 0.26868 0.77696 0.0
C1387 C 0.02103 0.28493 0.75395 0.0
C1388 C 0.98427 0.75461 0.26679 0.0
C1389 C 0.00734 0.7867 0.26723 0.0
H1390 H 0.95749 0.68954 0.25332 0.0
C1391 C 0.02136 0.77763 0.25411 0.0
H1392 H 0.97326 0.75983 0.27685 0.0
C1393 C 0.01248 0.73672 0.24076 0.0
C1394 C 0.9894 0.70465 0.24033 0.0
H1395 H 0.03925 0.80179 0.25423 0.0
H1396 H 0.02348 0.73151 0.2307 0.0
C1397 C 0.97538 0.71369 0.25345 0.0
C1398 C 0.02101 0.46832 1.00341 0.0
C1399 C 0.00708 0.45908 0.99025 0.0
H1400 H 0.02297 0.51488 0.0268 0.0
C1401 C 0.98401 0.49122 0.99058 0.0
H1402 H 0.0389 0.44411 1.00336 0.0
C1403 C 0.97503 0.5324 1.00388 0.0
C1404 C 0.98897 0.54168 0.01704 0.0
H1405 H 0.97308 0.48588 0.98049 0.0
H1406 H 0.95715 0.55662 1.00393 0.0
C1407 C 0.01204 0.50951 0.0167 0.0
C1408 C 0.44434 0.63352 0.05844 0.0
C1409 C 0.44525 0.69551 0.07085 0.0
H1410 H 0.45483 0.50105 0.04954 0.0
C1411 C 0.45842 0.67207 0.08385 0.0
H1412 H 0.43443 0.6507 0.04825 0.0
C1413 C 0.47019 0.58729 0.08457 0.0
C1414 C 0.46911 0.52434 0.07228 0.0
H1415 H 0.4592 0.71846 0.09362 0.0
H1416 H 0.47958 0.56977 0.09496 0.0
C1417 C 0.45639 0.5489 0.05908 0.0
C1418 C 0.7906 0.69574 0.05936 0.0
C1419 C 0.7771 0.71987 0.07224 0.0
H1420 H 0.81314 0.59418 0.04902 0.0
C1421 C 0.77527 0.6565 0.08444 0.0
H1422 H 0.79274 0.74393 0.04991 0.0
C1423 C 0.78705 0.57169 0.08394 0.0
C1424 C 0.80097 0.54862 0.07128 0.0
H1425 H 0.76529 0.67371 0.09459 0.0
H1426 H 0.78571 0.52504 0.09366 0.0
C1427 C 0.80263 0.61104 0.05896 0.0
C1428 C 0.45698 0.69255 0.19903 0.0
C1429 C 0.46995 0.71694 0.18593 0.0
H1430 H 0.4348 0.59092 0.20969 0.0
C1431 C 0.47128 0.65378 0.17368 0.0
H1432 H 0.45524 0.74052 0.20854 0.0
C1433 C 0.45949 0.56902 0.17433 0.0
C1434 C 0.44605 0.54577 0.18721 0.0
H1435 H 0.48086 0.67114 0.16336 0.0
H1436 H 0.46043 0.52258 0.16457 0.0
C1437 C 0.44492 0.60792 0.19959 0.0
C1438 C 0.77585 0.59019 0.17365 0.0
C1439 C 0.77771 0.52684 0.18585 0.0
H1440 H 0.78624 0.72172 0.16443 0.0
C1441 C 0.79123 0.55098 0.19872 0.0
H1442 H 0.76586 0.57294 0.1635 0.0
C1443 C 0.80324 0.6357 0.19912 0.0
C1444 C 0.80155 0.69813 0.18681 0.0
H1445 H 0.79339 0.50278 0.20817 0.0
H1446 H 0.81377 0.65259 0.20906 0.0
C1447 C 0.78761 0.67504 0.17414 0.0
C1448 C 0.55357 0.36403 0.9489 0.0
C1449 C 0.55218 0.30168 0.93656 0.0
H1450 H 0.54348 0.49689 0.95784 0.0
C1451 C 0.53858 0.32482 0.92375 0.0
H1452 H 0.56383 0.34708 0.95895 0.0
C1453 C 0.52683 0.40967 0.92313 0.0
C1454 C 0.52837 0.47292 0.93535 0.0
H1455 H 0.53743 0.27814 0.91403 0.0
H1456 H 0.51709 0.42698 0.91287 0.0
C1457 C 0.54156 0.44874 0.94837 0.0
C1458 C 0.22079 0.34364 0.92344 0.0
C1459 C 0.21885 0.28019 0.93562 0.0
H1460 H 0.21046 0.47521 0.91421 0.0
C1461 C 0.20526 0.30428 0.94846 0.0
H1462 H 0.23085 0.32645 0.91332 0.0
C1463 C 0.19324 0.38901 0.94883 0.0
C1464 C 0.19501 0.45151 0.93653 0.0
H1465 H 0.20303 0.25602 0.95789 0.0
H1466 H 0.18264 0.40582 0.95873 0.0
C1467 C 0.20903 0.42849 0.92391 0.0
C1468 C 0.53813 0.43376 0.83403 0.0
C1469 C 0.55185 0.45693 0.82127 0.0
H1470 H 0.51655 0.33159 0.84481 0.0
C1471 C 0.55332 0.39461 0.80893 0.0
H1472 H 0.53692 0.4804 0.84375 0.0
C1473 C 0.54129 0.30991 0.8094 0.0
C1474 C 0.528 0.28568 0.82237 0.0
H1475 H 0.56366 0.41156 0.79892 0.0
H1476 H 0.54328 0.26179 0.79993 0.0
C1477 C 0.52637 0.34892 0.83459 0.0
C1478 C 0.2095 0.32411 0.83376 0.0
C1479 C 0.19568 0.30104 0.82104 0.0
H1480 H 0.23119 0.42613 0.84449 0.0
C1481 C 0.19412 0.36345 0.80872 0.0
H1482 H 0.21077 0.27745 0.84348 0.0
C1483 C 0.20614 0.44813 0.80917 0.0
C1484 C 0.21954 0.47226 0.82209 0.0
H1485 H 0.18368 0.34658 0.79874 0.0
H1486 H 0.20407 0.49632 0.79971 0.0
C1487 C 0.22128 0.40891 0.8343 0.0
C1488 C 0.44461 0.14108 0.55936 0.0
C1489 C 0.44644 0.20343 0.57168 0.0
H1490 H 0.45439 0.00828 0.55025 0.0
C1491 C 0.46055 0.18032 0.58426 0.0
H1492 H 0.43396 0.15796 0.54949 0.0
C1493 C 0.47235 0.09553 0.58468 0.0
C1494 C 0.47035 0.03222 0.57249 0.0
H1495 H 0.46202 0.2269 0.59397 0.0
H1496 H 0.48248 0.07829 0.59477 0.0
C1497 C 0.45666 0.05641 0.55969 0.0
C1498 C 0.80273 0.10421 0.55926 0.0
C1499 C 0.80098 0.04196 0.57159 0.0
H1500 H 0.79282 0.23675 0.5501 0.0
C1501 C 0.78694 0.0651 0.5842 0.0
H1502 H 0.81333 0.0873 0.54937 0.0
C1503 C 0.77507 0.14972 0.58459 0.0
C1504 C 0.77695 0.21287 0.57236 0.0
H1505 H 0.78553 0.0186 0.59392 0.0
H1506 H 0.76495 0.16692 0.59469 0.0
C1507 C 0.79063 0.18874 0.55957 0.0
C1508 C 0.46007 0.07777 0.67425 0.0
C1509 C 0.44621 0.05455 0.68694 0.0
H1510 H 0.48183 0.17987 0.6636 0.0
C1511 C 0.44461 0.1168 0.69928 0.0
H1512 H 0.46138 0.03121 0.66453 0.0
C1513 C 0.45666 0.20145 0.69889 0.0
C1514 C 0.47012 0.22571 0.68599 0.0
H1515 H 0.43414 0.09983 0.70923 0.0
H1516 H 0.45457 0.24949 0.70836 0.0
C1517 C 0.47187 0.16254 0.67377 0.0
C1518 C 0.77789 0.08332 0.69508 0.0
C1519 C 0.78401 0.029 0.68232 0.0
H1520 H 0.78316 0.21211 0.70711 0.0
C1521 C 0.80047 0.06395 0.6718 0.0
H1522 H 0.76546 0.05785 0.70344 0.0
C1523 C 0.81103 0.14996 0.67417 0.0
C1524 C 0.80488 0.20397 0.68685 0.0
H1525 H 0.80585 0.02363 0.66192 0.0
H1526 H 0.82378 0.17491 0.66597 0.0
C1527 C 0.78809 0.17088 0.69723 0.0
C1528 C 0.55195 0.85952 0.44963 0.0
C1529 C 0.55059 0.79729 0.43728 0.0
H1530 H 0.54183 0.99227 0.45862 0.0
C1531 C 0.53695 0.82054 0.42448 0.0
H1532 H 0.56224 0.84253 0.45967 0.0
C1533 C 0.52518 0.90536 0.42389 0.0
C1534 C 0.52672 0.96857 0.43612 0.0
H1535 H 0.53584 0.77403 0.41474 0.0
H1536 H 0.51544 0.92272 0.41364 0.0
C1537 C 0.53992 0.94422 0.44914 0.0
C1538 C 0.19429 0.88404 0.44922 0.0
C1539 C 0.19566 0.9464 0.43688 0.0
H1540 H 0.2044 0.75122 0.45818 0.0
C1541 C 0.20926 0.92328 0.42407 0.0
H1542 H 0.18403 0.90098 0.45927 0.0
C1543 C 0.22102 0.83846 0.42346 0.0
C1544 C 0.2195 0.7752 0.43569 0.0
H1545 H 0.21039 0.96996 0.41435 0.0
H1546 H 0.23076 0.82119 0.41321 0.0
C1547 C 0.20631 0.79936 0.44871 0.0
C1548 C 0.55304 0.88481 0.30902 0.0
C1549 C 0.55152 0.94714 0.32136 0.0
H1550 H 0.54303 0.75201 0.30001 0.0
C1551 C 0.53774 0.924 0.33409 0.0
H1552 H 0.56344 0.90173 0.29904 0.0
C1553 C 0.52596 0.83922 0.33463 0.0
C1554 C 0.52764 0.77594 0.32242 0.0
H1555 H 0.53651 0.97059 0.34381 0.0
H1556 H 0.51608 0.82195 0.34483 0.0
C1557 C 0.541 0.80014 0.30948 0.0
C1558 C 0.20884 0.81693 0.33414 0.0
C1559 C 0.19482 0.79394 0.32151 0.0
H1560 H 0.23065 0.91898 0.34475 0.0
C1561 C 0.19305 0.85647 0.30921 0.0
H1562 H 0.21028 0.77018 0.34383 0.0
C1563 C 0.20506 0.9412 0.3096 0.0
C1564 C 0.21865 0.96527 0.32244 0.0
H1565 H 0.18246 0.83967 0.2993 0.0
H1566 H 0.20283 0.98949 0.30017 0.0
C1567 C 0.22059 0.9018 0.33462 0.0
C1568 C 0.9727 0.58941 0.58425 0.0
C1569 C 0.97067 0.52619 0.57205 0.0
H1570 H 0.96237 0.72064 0.59359 0.0
C1571 C 0.9569 0.55036 0.55929 0.0
H1572 H 0.9829 0.57217 0.59431 0.0
C1573 C 0.94484 0.63497 0.559 0.0
C1574 C 0.94671 0.69726 0.57131 0.0
H1575 H 0.95461 0.50231 0.54984 0.0
H1576 H 0.93414 0.65189 0.54914 0.0
C1577 C 0.96087 0.67412 0.58387 0.0
C1578 C 0.28827 0.5754 0.5844 0.0
C1579 C 0.30185 0.55225 0.57158 0.0
H1580 H 0.26681 0.67755 0.59528 0.0
C1581 C 0.3032 0.61461 0.55923 0.0
H1582 H 0.28716 0.52871 0.59412 0.0
C1583 C 0.29119 0.69931 0.55976 0.0
C1584 C 0.27803 0.72349 0.57278 0.0
H1585 H 0.31344 0.59765 0.54918 0.0
H1586 H 0.29308 0.74745 0.55028 0.0
C1587 C 0.27653 0.66025 0.58502 0.0
C1588 C 0.94403 0.6142 0.6987 0.0
C1589 C 0.94583 0.55197 0.68637 0.0
H1590 H 0.95383 0.74686 0.70786 0.0
C1591 C 0.9599 0.57523 0.67379 0.0
H1592 H 0.9334 0.5972 0.70858 0.0
C1593 C 0.97171 0.65999 0.67339 0.0
C1594 C 0.96975 0.72313 0.68561 0.0
H1595 H 0.96136 0.5287 0.66407 0.0
H1596 H 0.98183 0.67733 0.6633 0.0
C1597 C 0.95608 0.69884 0.6984 0.0
C1598 C 0.28782 0.68259 0.67431 0.0
C1599 C 0.30162 0.70565 0.68703 0.0
H1600 H 0.26616 0.58054 0.66356 0.0
C1601 C 0.30318 0.64322 0.69936 0.0
H1602 H 0.28655 0.72927 0.66459 0.0
C1603 C 0.29116 0.55852 0.6989 0.0
C1604 C 0.27777 0.5344 0.68596 0.0
H1605 H 0.31359 0.66009 0.70934 0.0
H1606 H 0.29321 0.51031 0.70836 0.0
C1607 C 0.27605 0.59776 0.67376 0.0
C1608 C 0.05242 0.35564 0.44895 0.0
C1609 C 0.05071 0.29331 0.43663 0.0
H1610 H 0.04256 0.48843 0.45803 0.0
C1611 C 0.03673 0.31644 0.42399 0.0
H1612 H 0.06298 0.33873 0.45887 0.0
C1613 C 0.02493 0.40121 0.42352 0.0
C1614 C 0.02681 0.46448 0.43572 0.0
H1615 H 0.03534 0.26985 0.41427 0.0
H1616 H 0.01489 0.41847 0.41339 0.0
C1617 C 0.04038 0.44031 0.44857 0.0
C1618 C 0.69286 0.38221 0.44993 0.0
C1619 C 0.69355 0.44393 0.43748 0.0
H1620 H 0.70343 0.24968 0.45882 0.0
C1621 C 0.70641 0.42007 0.42438 0.0
H1622 H 0.68319 0.39977 0.4602 0.0
C1623 C 0.71807 0.33509 0.4236 0.0
C1624 C 0.71723 0.27245 0.43594 0.0
H1625 H 0.70704 0.46635 0.41458 0.0
H1626 H 0.7272 0.31718 0.41313 0.0
C1627 C 0.70481 0.29738 0.44924 0.0
C1628 C 0.02496 0.33605 0.33462 0.0
C1629 C 0.02664 0.27286 0.3224 0.0
H1630 H 0.03548 0.4675 0.34381 0.0
C1631 C 0.03999 0.29713 0.30946 0.0
H1632 H 0.0151 0.31871 0.34482 0.0
C1633 C 0.05202 0.38182 0.30901 0.0
C1634 C 0.0505 0.4441 0.32135 0.0
H1635 H 0.04202 0.24904 0.29999 0.0
H1636 H 0.0624 0.3988 0.29903 0.0
C1637 C 0.03673 0.42089 0.33409 0.0
C1638 C 0.71009 0.31862 0.33416 0.0
C1639 C 0.69649 0.29534 0.32136 0.0
H1640 H 0.73168 0.4206 0.34498 0.0
C1641 C 0.69518 0.35747 0.30898 0.0
H1642 H 0.71117 0.27221 0.34392 0.0
C1643 C 0.70725 0.44205 0.30946 0.0
C1644 C 0.72045 0.46637 0.32247 0.0
H1645 H 0.68492 0.34044 0.29893 0.0
H1646 H 0.70538 0.48998 0.29995 0.0
C1647 C 0.72193 0.40328 0.33473 0.0
C1648 C 0.9561 0.05268 0.05915 0.0
C1649 C 0.9695 0.02845 0.07207 0.0
H1650 H 0.93364 0.15432 0.04874 0.0
C1651 C 0.97121 0.09165 0.08429 0.0
H1652 H 0.95405 0.00459 0.04968 0.0
C1653 C 0.95943 0.17646 0.08377 0.0
C1654 C 0.94562 0.19965 0.07105 0.0
H1655 H 0.98112 0.07433 0.09448 0.0
H1656 H 0.96071 0.22307 0.09349 0.0
C1657 C 0.94406 0.13735 0.05872 0.0
C1658 C 0.30233 0.11074 0.05778 0.0
C1659 C 0.30208 0.04851 0.07019 0.0
H1660 H 0.29184 0.24424 0.04926 0.0
C1661 C 0.28985 0.07249 0.08355 0.0
H1662 H 0.31152 0.0933 0.04732 0.0
C1663 C 0.27857 0.15828 0.08467 0.0
C1664 C 0.27909 0.22148 0.07238 0.0
H1665 H 0.28958 0.02599 0.09333 0.0
H1666 H 0.27005 0.17643 0.09534 0.0
C1667 C 0.29071 0.19619 0.0588 0.0
C1668 C 0.94458 0.10952 0.19861 0.0
C1669 C 0.94608 0.04723 0.18627 0.0
H1670 H 0.9546 0.24226 0.20764 0.0
C1671 C 0.95984 0.07041 0.17353 0.0
H1672 H 0.93419 0.09256 0.2086 0.0
C1673 C 0.97162 0.15521 0.17299 0.0
C1674 C 0.96996 0.21841 0.18522 0.0
H1675 H 0.96107 0.02381 0.16381 0.0
H1676 H 0.98148 0.17252 0.16279 0.0
C1677 C 0.95662 0.19418 0.19816 0.0
C1678 C 0.29114 0.1684 0.17448 0.0
C1679 C 0.30281 0.19202 0.18808 0.0
H1680 H 0.27184 0.06473 0.16226 0.0
C1681 C 0.3026 0.12942 0.20043 0.0
H1682 H 0.29122 0.21526 0.16475 0.0
C1683 C 0.29103 0.04397 0.19914 0.0
C1684 C 0.27996 0.01906 0.18533 0.0
H1685 H 0.31136 0.14659 0.21106 0.0
H1686 H 0.29179 0.99565 0.20866 0.0
C1687 C 0.27993 0.08259 0.17309 0.0
C1688 C 0.04007 0.94821 0.94816 0.0
C1689 C 0.02679 0.9725 0.93519 0.0
H1690 H 0.06243 0.84651 0.95865 0.0
C1691 C 0.02519 0.90935 0.92295 0.0
H1692 H 0.04204 0.99627 0.95764 0.0
C1693 C 0.03696 0.82453 0.92351 0.0
C1694 C 0.05065 0.80128 0.93628 0.0
H1695 H 0.01538 0.92671 0.91272 0.0
H1696 H 0.03577 0.77794 0.91378 0.0
C1697 C 0.0521 0.86353 0.94863 0.0
C1698 C 0.72284 0.8459 0.92355 0.0
C1699 C 0.72091 0.7826 0.93575 0.0
H1700 H 0.71245 0.97722 0.91426 0.0
C1701 C 0.70727 0.80677 0.94857 0.0
H1702 H 0.73294 0.82867 0.91345 0.0
C1703 C 0.69522 0.89142 0.9489 0.0
C1704 C 0.69698 0.95376 0.93658 0.0
H1705 H 0.70505 0.75866 0.95802 0.0
H1706 H 0.68461 0.9083 0.95879 0.0
C1707 C 0.71103 0.93065 0.92398 0.0
C1708 C 0.02535 0.84511 0.83427 0.0
C1709 C 0.02701 0.78197 0.82204 0.0
H1710 H 0.0359 0.97642 0.84349 0.0
C1711 C 0.04038 0.80624 0.80911 0.0
H1712 H 0.01547 0.82777 0.84447 0.0
C1713 C 0.05243 0.89088 0.80868 0.0
C1714 C 0.05092 0.95311 0.82103 0.0
H1715 H 0.0424 0.75822 0.79963 0.0
H1716 H 0.06282 0.90789 0.7987 0.0
C1717 C 0.03714 0.92987 0.83376 0.0
C1718 C 0.70616 0.95471 0.80927 0.0
C1719 C 0.7198 0.97898 0.82209 0.0
H1720 H 0.68349 0.8531 0.79906 0.0
C1721 C 0.72172 0.91579 0.8343 0.0
H1722 H 0.70394 0.00276 0.79981 0.0
C1723 C 0.70991 0.83101 0.83389 0.0
C1724 C 0.69586 0.80778 0.82129 0.0
H1725 H 0.73181 0.9331 0.84441 0.0
H1726 H 0.71135 0.78447 0.84362 0.0
C1727 C 0.6941 0.87006 0.80896 0.0
C1728 C 0.35084 0.33886 0.06701 0.0
C1729 C 0.35486 0.43582 0.06647 0.0
H1730 H 0.36569 0.20184 0.06775 0.0
C1731 C 0.3779 0.46797 0.06607 0.0
H1732 H 0.33327 0.31136 0.06734 0.0
C1733 C 0.39645 0.40494 0.06637 0.0
C1734 C 0.39247 0.30799 0.06702 0.0
H1735 H 0.38167 0.54183 0.06566 0.0
H1736 H 0.41399 0.43269 0.06615 0.0
C1737 C 0.36941 0.27571 0.06726 0.0
C1738 C 0.85077 0.83969 0.0687 0.0
C1739 C 0.8544 0.93696 0.06874 0.0
H1740 H 0.86611 0.70358 0.06864 0.0
C1741 C 0.87733 0.97061 0.06877 0.0
H1742 H 0.83332 0.81094 0.06871 0.0
C1743 C 0.89613 0.90863 0.06876 0.0
C1744 C 0.8925 0.81136 0.06871 0.0
H1745 H 0.88079 0.04474 0.06881 0.0
H1746 H 0.91358 0.93738 0.06881 0.0
C1747 C 0.86957 0.77771 0.06867 0.0
C1748 C 0.35124 0.90225 0.19111 0.0
C1749 C 0.3553 0.80536 0.19182 0.0
H1750 H 0.36605 0.03931 0.19021 0.0
C1751 C 0.37835 0.77337 0.19242 0.0
H1752 H 0.33367 0.92962 0.19064 0.0
C1753 C 0.39687 0.83649 0.19211 0.0
C1754 C 0.39286 0.93336 0.19126 0.0
H1755 H 0.38213 0.69956 0.19296 0.0
H1756 H 0.41442 0.80887 0.19247 0.0
C1757 C 0.36979 0.9655 0.19086 0.0
C1758 C 0.85121 0.40712 0.18902 0.0
C1759 C 0.85485 0.30985 0.18902 0.0
H1760 H 0.86655 0.54325 0.18894 0.0
C1761 C 0.87778 0.27623 0.18891 0.0
H1762 H 0.83376 0.43585 0.18907 0.0
C1763 C 0.89658 0.33823 0.1888 0.0
C1764 C 0.89294 0.4355 0.18882 0.0
H1765 H 0.88125 0.20211 0.1889 0.0
H1766 H 0.91403 0.30949 0.18869 0.0
C1767 C 0.87001 0.46912 0.18893 0.0
C1768 C 0.64698 0.66228 0.93922 0.0
C1769 C 0.6434 0.56499 0.93913 0.0
H1770 H 0.63155 0.79824 0.93923 0.0
C1771 C 0.62049 0.53112 0.93897 0.0
H1772 H 0.66441 0.6912 0.93931 0.0
C1773 C 0.60166 0.59293 0.93889 0.0
C1774 C 0.60523 0.69022 0.93898 0.0
H1775 H 0.61708 0.45697 0.93888 0.0
H1776 H 0.58423 0.56402 0.93873 0.0
C1777 C 0.62814 0.72409 0.93915 0.0
C1778 C 0.11869 0.02998 0.93866 0.0
C1779 C 0.14163 0.06342 0.93873 0.0
H1780 H 0.08246 0.06354 0.93855 0.0
C1781 C 0.14532 0.16065 0.93877 0.0
H1782 H 0.11519 0.95588 0.93862 0.0
C1783 C 0.12656 0.22281 0.93877 0.0
C1784 C 0.10361 0.18936 0.9387 0.0
H1785 H 0.16279 0.18924 0.9388 0.0
H1786 H 0.13006 0.29691 0.93881 0.0
C1787 C 0.09992 0.09213 0.93863 0.0
C1788 C 0.64647 0.09844 0.81889 0.0
C1789 C 0.64272 0.19564 0.81893 0.0
H1790 H 0.6313 0.96202 0.81884 0.0
C1791 C 0.61975 0.22883 0.819 0.0
H1792 H 0.66395 0.07004 0.81886 0.0
C1793 C 0.60103 0.16647 0.81903 0.0
C1794 C 0.60478 0.06927 0.81895 0.0
H1795 H 0.61619 0.30289 0.81905 0.0
H1796 H 0.58354 0.19487 0.81911 0.0
C1797 C 0.62775 0.03608 0.81889 0.0
C1798 C 0.10052 0.66176 0.81851 0.0
C1799 C 0.10409 0.56446 0.8185 0.0
H1800 H 0.11594 0.79771 0.81851 0.0
C1801 C 0.127 0.53058 0.81846 0.0
H1802 H 0.08309 0.69068 0.81856 0.0
C1803 C 0.14584 0.59237 0.81846 0.0
C1804 C 0.14227 0.68967 0.81847 0.0
H1805 H 0.13041 0.45642 0.81845 0.0
H1806 H 0.16327 0.56345 0.81846 0.0
C1807 C 0.11936 0.72355 0.81849 0.0
C1808 C 0.39653 0.91228 0.56913 0.0
C1809 C 0.39291 0.81501 0.56922 0.0
H1810 H 0.38118 0.04837 0.56904 0.0
C1811 C 0.36998 0.78134 0.56932 0.0
H1812 H 0.41398 0.94104 0.56907 0.0
C1813 C 0.35118 0.8433 0.56934 0.0
C1814 C 0.3548 0.94056 0.56923 0.0
H1815 H 0.36653 0.70721 0.5694 0.0
H1816 H 0.33373 0.81453 0.56944 0.0
C1817 C 0.37773 0.97424 0.56912 0.0
C1818 C 0.85109 0.33429 0.56879 0.0
C1819 C 0.8545 0.43167 0.56878 0.0
H1820 H 0.86676 0.19879 0.56877 0.0
C1821 C 0.87735 0.46619 0.56872 0.0
H1822 H 0.83371 0.3049 0.56886 0.0
C1823 C 0.8963 0.40494 0.56868 0.0
C1824 C 0.89289 0.30756 0.5687 0.0
H1825 H 0.88064 0.54044 0.56871 0.0
H1826 H 0.91368 0.43433 0.56867 0.0
C1827 C 0.87004 0.27304 0.56875 0.0
C1828 C 0.37784 0.2837 0.68947 0.0
C1829 C 0.35491 0.31736 0.68948 0.0
H1830 H 0.41409 0.31692 0.6894 0.0
C1831 C 0.35128 0.41462 0.68947 0.0
H1832 H 0.3813 0.20957 0.68946 0.0
C1833 C 0.37009 0.4766 0.68946 0.0
C1834 C 0.39302 0.44294 0.68944 0.0
H1835 H 0.33384 0.44338 0.68946 0.0
H1836 H 0.36663 0.55073 0.68946 0.0
C1837 C 0.39664 0.34568 0.68944 0.0
C1838 C 0.85074 0.91272 0.68851 0.0
C1839 C 0.85437 0.8155 0.6884 0.0
H1840 H 0.8661 0.04881 0.68864 0.0
C1841 C 0.87729 0.7818 0.68831 0.0
H1842 H 0.8333 0.94138 0.68865 0.0
C1843 C 0.8961 0.8437 0.68833 0.0
C1844 C 0.89248 0.94095 0.68847 0.0
H1845 H 0.88075 0.70767 0.68822 0.0
H1846 H 0.91354 0.81488 0.68825 0.0
C1847 C 0.86955 0.97468 0.68853 0.0
C1848 C 0.61845 0.02437 0.44035 0.0
C1849 C 0.64146 0.05703 0.44014 0.0
H1850 H 0.5823 0.05915 0.44045 0.0
C1851 C 0.64535 0.15415 0.43998 0.0
H1852 H 0.61479 0.95039 0.44049 0.0
C1853 C 0.62671 0.21696 0.44 0.0
C1854 C 0.6037 0.18429 0.44015 0.0
H1855 H 0.66286 0.18215 0.43979 0.0
H1856 H 0.63037 0.29093 0.43984 0.0
C1857 C 0.59982 0.08717 0.44034 0.0
C1858 C 0.12713 0.71641 0.43917 0.0
C1859 C 0.10425 0.6823 0.43919 0.0
H1860 H 0.16343 0.68389 0.43915 0.0
C1861 C 0.10073 0.58498 0.43928 0.0
H1862 H 0.1305 0.7906 0.4391 0.0
C1863 C 0.11961 0.52338 0.43933 0.0
C1864 C 0.1425 0.55748 0.43929 0.0
H1865 H 0.08332 0.55589 0.43928 0.0
H1866 H 0.11624 0.44918 0.43939 0.0
C1867 C 0.14601 0.65481 0.4392 0.0
C1868 C 0.62784 0.52486 0.31822 0.0
C1869 C 0.60493 0.55865 0.31839 0.0
H1870 H 0.6641 0.55787 0.31805 0.0
C1871 C 0.60133 0.65593 0.31837 0.0
H1872 H 0.63128 0.45071 0.31821 0.0
C1873 C 0.62015 0.71781 0.31825 0.0
C1874 C 0.64307 0.68401 0.31817 0.0
H1875 H 0.58389 0.68478 0.3185 0.0
H1876 H 0.61672 0.79195 0.3183 0.0
C1877 C 0.64667 0.58673 0.31811 0.0
C1878 C 0.11854 0.21543 0.3193 0.0
C1879 C 0.14149 0.182 0.3193 0.0
H1880 H 0.08232 0.18183 0.31926 0.0
C1881 C 0.14519 0.08477 0.31927 0.0
H1882 H 0.11503 0.28952 0.31933 0.0
C1883 C 0.12643 0.0226 0.3192 0.0
C1884 C 0.10348 0.05603 0.31918 0.0
H1885 H 0.16265 0.0562 0.3193 0.0
H1886 H 0.12993 0.94851 0.31915 0.0
C1887 C 0.09978 0.15325 0.31925 0.0
loop_
_geom_bond_atom_site_label_1
_geom_bond_atom_site_label_2
_geom_bond_distance
_geom_bond_site_symmetry_2
_ccdc_geom_bond_type
Co0 O3 1.970 . S
Co0 N17 1.989 . S
Co0 O25 1.967 . S
Co0 O32 1.920 . S
Co1 O4 1.966 . S
Co1 N10 2.022 1_545 S
Co1 N18 1.993 . S
Co1 O26 1.941 . S
C2 O3 1.258 . S
C2 O4 1.263 . S
O3 Co0 1.970 . S
O3 C2 1.258 . S
O4 Co1 1.966 . S
O4 C2 1.263 . S
C5 O6 1.235 . S
C5 O32 1.289 . S
O6 C5 1.235 . S
C7 C9 1.400 . S
C7 N10 1.351 . S
C7 C12 1.501 . S
C8 C9 1.387 . S
C8 N11 1.341 . S
C9 C7 1.400 . S
C9 C8 1.387 . S
N10 Co1 2.022 1_565 S
N10 C7 1.351 . S
N10 N11 1.365 . S
N11 C8 1.341 . S
N11 N10 1.365 . S
N11 H31 0.862 . S
C12 C7 1.501 . S
C12 H13 0.961 . S
C12 H14 0.961 . S
C12 H15 0.960 . S
H13 C12 0.961 . S
H14 C12 0.961 . S
H15 C12 0.960 . S
C16 N17 1.342 . S
C16 C20 1.401 . S
C16 C21 1.499 . S
N17 Co0 1.989 . S
N17 C16 1.342 . S
N17 N18 1.388 . S
N18 Co1 1.993 . S
N18 N17 1.388 . S
N18 C19 1.346 . S
C19 N18 1.346 . S
C19 C20 1.396 . S
C19 C29 1.510 1_545 S
C20 C16 1.401 . S
C20 C19 1.396 . S
C21 C16 1.499 . S
C21 H22 0.959 . S
C21 H23 0.960 . S
C21 H24 0.961 . S
H22 C21 0.959 . S
H23 C21 0.960 . S
H24 C21 0.961 . S
O25 Co0 1.967 . S
O25 C33 1.258 . S
O26 Co1 1.941 . S
O26 C33 1.266 . S
H27 C29 0.959 . S
H28 C29 0.961 . S
C29 C19 1.510 1_565 S
C29 H27 0.959 . S
C29 H28 0.961 . S
C29 H30 0.960 . S
H30 C29 0.960 . S
H31 N11 0.862 . S
O32 Co0 1.920 . S
O32 C5 1.289 . S
C33 O25 1.258 . S
C33 O26 1.266 . S
Co34 O37 1.970 1_565 S
Co34 N51 1.989 1_565 S
Co34 O59 1.967 . S
Co34 O66 1.920 . S
Co35 O38 1.966 . S
Co35 N44 2.022 . S
Co35 N52 1.993 . S
Co35 O60 1.941 . S
C36 O37 1.258 . S
C36 O38 1.263 . S
O37 Co34 1.970 1_545 S
O37 C36 1.258 . S
O38 Co35 1.966 . S
O38 C36 1.263 . S
C39 O40 1.235 . S
C39 O66 1.289 . S
O40 C39 1.235 . S
C41 C43 1.400 . S
C41 N44 1.351 . S
C41 C46 1.501 . S
C42 C43 1.387 . S
C42 N45 1.341 . S
C43 C41 1.400 . S
C43 C42 1.387 . S
N44 Co35 2.022 . S
N44 C41 1.351 . S
N44 N45 1.365 . S
N45 C42 1.341 . S
N45 N44 1.365 . S
N45 H65 0.862 . S
C46 C41 1.501 . S
C46 H47 0.961 . S
C46 H48 0.961 . S
C46 H49 0.960 . S
H47 C46 0.961 . S
H48 C46 0.961 . S
H49 C46 0.960 . S
C50 N51 1.342 . S
C50 C54 1.401 . S
C50 C55 1.499 1_545 S
N51 Co34 1.989 1_545 S
N51 C50 1.342 . S
N51 N52 1.388 . S
N52 Co35 1.993 . S
N52 N51 1.388 . S
N52 C53 1.346 . S
C53 N52 1.346 . S
C53 C54 1.396 . S
C53 C63 1.510 . S
C54 C50 1.401 . S
C54 C53 1.396 . S
C55 C50 1.499 1_565 S
C55 H56 0.959 . S
C55 H57 0.960 . S
C55 H58 0.961 . S
H56 C55 0.959 . S
H57 C55 0.960 . S
H58 C55 0.961 . S
O59 Co34 1.967 . S
O59 C67 1.258 1_565 S
O60 Co35 1.941 . S
O60 C67 1.266 . S
H61 C63 0.959 . S
H62 C63 0.961 . S
C63 C53 1.510 . S
C63 H61 0.959 . S
C63 H62 0.961 . S
C63 H64 0.960 . S
H64 C63 0.960 . S
H65 N45 0.862 . S
O66 Co34 1.920 . S
O66 C39 1.289 . S
C67 O59 1.258 1_545 S
C67 O60 1.266 . S
Co68 O71 1.970 1_565 S
Co68 N85 1.989 1_565 S
Co68 O93 1.967 . S
Co68 O100 1.920 . S
Co69 O72 1.966 . S
Co69 N78 2.022 . S
Co69 N86 1.993 . S
Co69 O94 1.941 . S
C70 O71 1.258 . S
C70 O72 1.263 . S
O71 Co68 1.970 1_545 S
O71 C70 1.258 . S
O72 Co69 1.966 . S
O72 C70 1.263 . S
C73 O74 1.235 . S
C73 O100 1.289 . S
O74 C73 1.235 . S
C75 C77 1.400 . S
C75 N78 1.351 . S
C75 C80 1.501 . S
C76 C77 1.387 . S
C76 N79 1.341 . S
C77 C75 1.400 . S
C77 C76 1.387 . S
N78 Co69 2.022 . S
N78 C75 1.351 . S
N78 N79 1.365 . S
N79 C76 1.341 . S
N79 N78 1.365 . S
N79 H99 0.862 . S
C80 C75 1.501 . S
C80 H81 0.961 . S
C80 H82 0.961 . S
C80 H83 0.960 . S
H81 C80 0.961 . S
H82 C80 0.961 . S
H83 C80 0.960 . S
C84 N85 1.342 . S
C84 C88 1.401 . S
C84 C89 1.499 1_545 S
N85 Co68 1.989 1_545 S
N85 C84 1.342 . S
N85 N86 1.388 . S
N86 Co69 1.993 . S
N86 N85 1.388 . S
N86 C87 1.346 . S
C87 N86 1.346 . S
C87 C88 1.396 . S
C87 C97 1.510 . S
C88 C84 1.401 . S
C88 C87 1.396 . S
C89 C84 1.499 1_565 S
C89 H90 0.959 . S
C89 H91 0.960 . S
C89 H92 0.961 . S
H90 C89 0.959 . S
H91 C89 0.960 . S
H92 C89 0.961 . S
O93 Co68 1.967 . S
O93 C101 1.258 1_565 S
O94 Co69 1.941 . S
O94 C101 1.266 . S
H95 C97 0.959 . S
H96 C97 0.961 . S
C97 C87 1.510 . S
C97 H95 0.959 . S
C97 H96 0.961 . S
C97 H98 0.960 . S
H98 C97 0.960 . S
H99 N79 0.862 . S
O100 Co68 1.920 . S
O100 C73 1.289 . S
C101 O93 1.258 1_545 S
C101 O94 1.266 . S
Co102 O105 1.970 . S
Co102 N119 1.989 . S
Co102 O127 1.967 . S
Co102 O134 1.920 . S
Co103 O106 1.966 . S
Co103 N112 2.022 1_545 S
Co103 N120 1.993 . S
Co103 O128 1.941 . S
C104 O105 1.258 . S
C104 O106 1.263 . S
O105 Co102 1.970 . S
O105 C104 1.258 . S
O106 Co103 1.966 . S
O106 C104 1.263 . S
C107 O108 1.235 . S
C107 O134 1.289 . S
O108 C107 1.235 . S
C109 C111 1.400 . S
C109 N112 1.351 . S
C109 C114 1.501 . S
C110 C111 1.387 . S
C110 N113 1.341 . S
C111 C109 1.400 . S
C111 C110 1.387 . S
N112 Co103 2.022 1_565 S
N112 C109 1.351 . S
N112 N113 1.365 . S
N113 C110 1.341 . S
N113 N112 1.365 . S
N113 H133 0.862 . S
C114 C109 1.501 . S
C114 H115 0.961 . S
C114 H116 0.961 . S
C114 H117 0.960 . S
H115 C114 0.961 . S
H116 C114 0.961 . S
H117 C114 0.960 . S
C118 N119 1.342 . S
C118 C122 1.401 . S
C118 C123 1.499 . S
N119 Co102 1.989 . S
N119 C118 1.342 . S
N119 N120 1.388 . S
N120 Co103 1.993 . S
N120 N119 1.388 . S
N120 C121 1.346 . S
C121 N120 1.346 . S
C121 C122 1.396 . S
C121 C131 1.510 1_545 S
C122 C118 1.401 . S
C122 C121 1.396 . S
C123 C118 1.499 . S
C123 H124 0.959 . S
C123 H125 0.960 . S
C123 H126 0.961 . S
H124 C123 0.959 . S
H125 C123 0.960 . S
H126 C123 0.961 . S
O127 Co102 1.967 . S
O127 C135 1.258 . S
O128 Co103 1.941 . S
O128 C135 1.266 . S
H129 C131 0.959 . S
H130 C131 0.961 . S
C131 C121 1.510 1_565 S
C131 H129 0.959 . S
C131 H130 0.961 . S
C131 H132 0.960 . S
H132 C131 0.960 . S
H133 N113 0.862 . S
O134 Co102 1.920 . S
O134 C107 1.289 . S
C135 O127 1.258 . S
C135 O128 1.266 . S
Co136 O139 1.970 . S
Co136 N153 1.989 . S
Co136 O161 1.967 . S
Co136 O168 1.920 . S
Co137 O140 1.966 . S
Co137 N146 2.022 1_565 S
Co137 N154 1.993 . S
Co137 O162 1.941 . S
C138 O139 1.258 . S
C138 O140 1.263 . S
O139 Co136 1.970 . S
O139 C138 1.258 . S
O140 Co137 1.966 . S
O140 C138 1.263 . S
C141 O142 1.235 . S
C141 O168 1.289 . S
O142 C141 1.235 . S
C143 C145 1.400 . S
C143 N146 1.351 . S
C143 C148 1.501 . S
C144 C145 1.387 . S
C144 N147 1.341 . S
C145 C143 1.400 . S
C145 C144 1.387 . S
N146 Co137 2.022 1_545 S
N146 C143 1.351 . S
N146 N147 1.365 . S
N147 C144 1.341 . S
N147 N146 1.365 . S
N147 H167 0.862 . S
C148 C143 1.501 . S
C148 H149 0.961 . S
C148 H150 0.961 . S
C148 H151 0.960 . S
H149 C148 0.961 . S
H150 C148 0.961 . S
H151 C148 0.960 . S
C152 N153 1.342 . S
C152 C156 1.401 . S
C152 C157 1.499 . S
N153 Co136 1.989 . S
N153 C152 1.342 . S
N153 N154 1.388 . S
N154 Co137 1.993 . S
N154 N153 1.388 . S
N154 C155 1.346 . S
C155 N154 1.346 . S
C155 C156 1.396 . S
C155 C165 1.510 1_565 S
C156 C152 1.401 . S
C156 C155 1.396 . S
C157 C152 1.499 . S
C157 H158 0.959 . S
C157 H159 0.960 . S
C157 H160 0.961 . S
H158 C157 0.959 . S
H159 C157 0.960 . S
H160 C157 0.961 . S
O161 Co136 1.967 . S
O161 C169 1.258 . S
O162 Co137 1.941 . S
O162 C169 1.266 . S
H163 C165 0.959 . S
H164 C165 0.961 . S
C165 C155 1.510 1_545 S
C165 H163 0.959 . S
C165 H164 0.961 . S
C165 H166 0.960 . S
H166 C165 0.960 . S
H167 N147 0.862 . S
O168 Co136 1.920 . S
O168 C141 1.289 . S
C169 O161 1.258 . S
C169 O162 1.266 . S
Co170 O173 1.970 1_545 S
Co170 N187 1.989 1_545 S
Co170 O195 1.967 . S
Co170 O202 1.920 . S
Co171 O174 1.966 . S
Co171 N180 2.022 . S
Co171 N188 1.993 . S
Co171 O196 1.941 . S
C172 O173 1.258 . S
C172 O174 1.263 . S
O173 Co170 1.970 1_565 S
O173 C172 1.258 . S
O174 Co171 1.966 . S
O174 C172 1.263 . S
C175 O176 1.235 . S
C175 O202 1.289 . S
O176 C175 1.235 . S
C177 C179 1.400 . S
C177 N180 1.351 . S
C177 C182 1.501 . S
C178 C179 1.387 . S
C178 N181 1.341 . S
C179 C177 1.400 . S
C179 C178 1.387 . S
N180 Co171 2.022 . S
N180 C177 1.351 . S
N180 N181 1.365 . S
N181 C178 1.341 . S
N181 N180 1.365 . S
N181 H201 0.862 . S
C182 C177 1.501 . S
C182 H183 0.961 . S
C182 H184 0.961 . S
C182 H185 0.960 . S
H183 C182 0.961 . S
H184 C182 0.961 . S
H185 C182 0.960 . S
C186 N187 1.342 . S
C186 C190 1.401 . S
C186 C191 1.499 1_565 S
N187 Co170 1.989 1_565 S
N187 C186 1.342 . S
N187 N188 1.388 . S
N188 Co171 1.993 . S
N188 N187 1.388 . S
N188 C189 1.346 . S
C189 N188 1.346 . S
C189 C190 1.396 . S
C189 C199 1.510 . S
C190 C186 1.401 . S
C190 C189 1.396 . S
C191 C186 1.499 1_545 S
C191 H192 0.959 . S
C191 H193 0.960 . S
C191 H194 0.961 . S
H192 C191 0.959 . S
H193 C191 0.960 . S
H194 C191 0.961 . S
O195 Co170 1.967 . S
O195 C203 1.258 1_545 S
O196 Co171 1.941 . S
O196 C203 1.266 . S
H197 C199 0.959 . S
H198 C199 0.961 . S
C199 C189 1.510 . S
C199 H197 0.959 . S
C199 H198 0.961 . S
C199 H200 0.960 . S
H200 C199 0.960 . S
H201 N181 0.862 . S
O202 Co170 1.920 . S
O202 C175 1.289 . S
C203 O195 1.258 1_565 S
C203 O196 1.266 . S
Co204 O207 1.970 1_545 S
Co204 N221 1.989 1_545 S
Co204 O229 1.967 . S
Co204 O236 1.920 . S
Co205 O208 1.966 . S
Co205 N214 2.022 . S
Co205 N222 1.993 . S
Co205 O230 1.941 . S
C206 O207 1.258 . S
C206 O208 1.263 . S
O207 Co204 1.970 1_565 S
O207 C206 1.258 . S
O208 Co205 1.966 . S
O208 C206 1.263 . S
C209 O210 1.235 . S
C209 O236 1.289 . S
O210 C209 1.235 . S
C211 C213 1.400 . S
C211 N214 1.351 . S
C211 C216 1.501 . S
C212 C213 1.387 . S
C212 N215 1.341 . S
C213 C211 1.400 . S
C213 C212 1.387 . S
N214 Co205 2.022 . S
N214 C211 1.351 . S
N214 N215 1.365 . S
N215 C212 1.341 . S
N215 N214 1.365 . S
N215 H235 0.862 . S
C216 C211 1.501 . S
C216 H217 0.961 . S
C216 H218 0.961 . S
C216 H219 0.960 . S
H217 C216 0.961 . S
H218 C216 0.961 . S
H219 C216 0.960 . S
C220 N221 1.342 . S
C220 C224 1.401 . S
C220 C225 1.499 1_565 S
N221 Co204 1.989 1_565 S
N221 C220 1.342 . S
N221 N222 1.388 . S
N222 Co205 1.993 . S
N222 N221 1.388 . S
N222 C223 1.346 . S
C223 N222 1.346 . S
C223 C224 1.396 . S
C223 C233 1.510 . S
C224 C220 1.401 . S
C224 C223 1.396 . S
C225 C220 1.499 1_545 S
C225 H226 0.959 . S
C225 H227 0.960 . S
C225 H228 0.961 . S
H226 C225 0.959 . S
H227 C225 0.960 . S
H228 C225 0.961 . S
O229 Co204 1.967 . S
O229 C237 1.258 1_545 S
O230 Co205 1.941 . S
O230 C237 1.266 . S
H231 C233 0.959 . S
H232 C233 0.961 . S
C233 C223 1.510 . S
C233 H231 0.959 . S
C233 H232 0.961 . S
C233 H234 0.960 . S
H234 C233 0.960 . S
H235 N215 0.862 . S
O236 Co204 1.920 . S
O236 C209 1.289 . S
C237 O229 1.258 1_565 S
C237 O230 1.266 . S
Co238 O241 1.970 . S
Co238 N255 1.989 . S
Co238 O263 1.967 . S
Co238 O270 1.920 . S
Co239 O242 1.966 . S
Co239 N248 2.022 1_565 S
Co239 N256 1.993 . S
Co239 O264 1.941 . S
C240 O241 1.258 . S
C240 O242 1.263 . S
O241 Co238 1.970 . S
O241 C240 1.258 . S
O242 Co239 1.966 . S
O242 C240 1.263 . S
C243 O244 1.235 . S
C243 O270 1.289 . S
O244 C243 1.235 . S
C245 C247 1.400 . S
C245 N248 1.351 . S
C245 C250 1.501 . S
C246 C247 1.387 . S
C246 N249 1.341 . S
C247 C245 1.400 . S
C247 C246 1.387 . S
N248 Co239 2.022 1_545 S
N248 C245 1.351 . S
N248 N249 1.365 . S
N249 C246 1.341 . S
N249 N248 1.365 . S
N249 H269 0.862 . S
C250 C245 1.501 . S
C250 H251 0.961 . S
C250 H252 0.961 . S
C250 H253 0.960 . S
H251 C250 0.961 . S
H252 C250 0.961 . S
H253 C250 0.960 . S
C254 N255 1.342 . S
C254 C258 1.401 . S
C254 C259 1.499 . S
N255 Co238 1.989 . S
N255 C254 1.342 . S
N255 N256 1.388 . S
N256 Co239 1.993 . S
N256 N255 1.388 . S
N256 C257 1.346 . S
C257 N256 1.346 . S
C257 C258 1.396 . S
C257 C267 1.510 1_565 S
C258 C254 1.401 . S
C258 C257 1.396 . S
C259 C254 1.499 . S
C259 H260 0.959 . S
C259 H261 0.960 . S
C259 H262 0.961 . S
H260 C259 0.959 . S
H261 C259 0.960 . S
H262 C259 0.961 . S
O263 Co238 1.967 . S
O263 C271 1.258 . S
O264 Co239 1.941 . S
O264 C271 1.266 . S
H265 C267 0.959 . S
H266 C267 0.961 . S
C267 C257 1.510 1_545 S
C267 H265 0.959 . S
C267 H266 0.961 . S
C267 H268 0.960 . S
H268 C267 0.960 . S
H269 N249 0.862 . S
O270 Co238 1.920 . S
O270 C243 1.289 . S
C271 O263 1.258 . S
C271 O264 1.266 . S
Co272 O275 1.970 . S
Co272 N289 1.989 . S
Co272 O297 1.967 . S
Co272 O304 1.920 . S
Co273 O276 1.966 . S
Co273 N282 2.022 . S
Co273 N290 1.993 . S
Co273 O298 1.941 . S
C274 O275 1.258 . S
C274 O276 1.263 . S
O275 Co272 1.970 . S
O275 C274 1.258 . S
O276 Co273 1.966 . S
O276 C274 1.263 . S
C277 O278 1.235 . S
C277 O304 1.289 . S
O278 C277 1.235 . S
C279 C281 1.400 . S
C279 N282 1.351 . S
C279 C284 1.501 . S
C280 C281 1.387 . S
C280 N283 1.341 . S
C281 C279 1.400 . S
C281 C280 1.387 . S
N282 Co273 2.022 . S
N282 C279 1.351 . S
N282 N283 1.365 . S
N283 C280 1.341 . S
N283 N282 1.365 . S
N283 H303 0.862 . S
C284 C279 1.501 . S
C284 H285 0.961 . S
C284 H286 0.961 . S
C284 H287 0.960 . S
H285 C284 0.961 . S
H286 C284 0.961 . S
H287 C284 0.960 . S
C288 N289 1.342 . S
C288 C292 1.401 . S
C288 C293 1.499 . S
N289 Co272 1.989 . S
N289 C288 1.342 . S
N289 N290 1.388 . S
N290 Co273 1.993 . S
N290 N289 1.388 . S
N290 C291 1.346 . S
C291 N290 1.346 . S
C291 C292 1.396 . S
C291 C301 1.510 . S
C292 C288 1.401 . S
C292 C291 1.396 . S
C293 C288 1.499 . S
C293 H294 0.959 . S
C293 H295 0.960 . S
C293 H296 0.961 . S
H294 C293 0.959 . S
H295 C293 0.960 . S
H296 C293 0.961 . S
O297 Co272 1.967 . S
O297 C305 1.258 . S
O298 Co273 1.941 . S
O298 C305 1.266 . S
H299 C301 0.959 . S
H300 C301 0.961 . S
C301 C291 1.510 . S
C301 H299 0.959 . S
C301 H300 0.961 . S
C301 H302 0.960 . S
H302 C301 0.960 . S
H303 N283 0.862 . S
O304 Co272 1.920 . S
O304 C277 1.289 . S
C305 O297 1.258 . S
C305 O298 1.266 . S
Co306 O309 1.970 . S
Co306 N323 1.989 . S
Co306 O331 1.967 . S
Co306 O338 1.920 . S
Co307 O310 1.966 . S
Co307 N316 2.022 . S
Co307 N324 1.993 . S
Co307 O332 1.941 . S
C308 O309 1.258 . S
C308 O310 1.263 . S
O309 Co306 1.970 . S
O309 C308 1.258 . S
O310 Co307 1.966 . S
O310 C308 1.263 . S
C311 O312 1.235 . S
C311 O338 1.289 . S
O312 C311 1.235 . S
C313 C315 1.400 . S
C313 N316 1.351 . S
C313 C318 1.501 . S
C314 C315 1.387 . S
C314 N317 1.341 . S
C315 C313 1.400 . S
C315 C314 1.387 . S
N316 Co307 2.022 . S
N316 C313 1.351 . S
N316 N317 1.365 . S
N317 C314 1.341 . S
N317 N316 1.365 . S
N317 H337 0.862 . S
C318 C313 1.501 . S
C318 H319 0.961 . S
C318 H320 0.961 . S
C318 H321 0.960 . S
H319 C318 0.961 . S
H320 C318 0.961 . S
H321 C318 0.960 . S
C322 N323 1.342 . S
C322 C326 1.401 . S
C322 C327 1.499 . S
N323 Co306 1.989 . S
N323 C322 1.342 . S
N323 N324 1.388 . S
N324 Co307 1.993 . S
N324 N323 1.388 . S
N324 C325 1.346 . S
C325 N324 1.346 . S
C325 C326 1.396 . S
C325 C335 1.510 . S
C326 C322 1.401 . S
C326 C325 1.396 . S
C327 C322 1.499 . S
C327 H328 0.959 . S
C327 H329 0.960 . S
C327 H330 0.961 . S
H328 C327 0.959 . S
H329 C327 0.960 . S
H330 C327 0.961 . S
O331 Co306 1.967 . S
O331 C339 1.258 . S
O332 Co307 1.941 . S
O332 C339 1.266 . S
H333 C335 0.959 . S
H334 C335 0.961 . S
C335 C325 1.510 . S
C335 H333 0.959 . S
C335 H334 0.961 . S
C335 H336 0.960 . S
H336 C335 0.960 . S
H337 N317 0.862 . S
O338 Co306 1.920 . S
O338 C311 1.289 . S
C339 O331 1.258 . S
C339 O332 1.266 . S
Co340 O343 1.970 . S
Co340 N357 1.989 . S
Co340 O365 1.967 . S
Co340 O372 1.920 . S
Co341 O344 1.966 . S
Co341 N350 2.022 . S
Co341 N358 1.993 . S
Co341 O366 1.941 . S
C342 O343 1.258 . S
C342 O344 1.263 . S
O343 Co340 1.970 . S
O343 C342 1.258 . S
O344 Co341 1.966 . S
O344 C342 1.263 . S
C345 O346 1.235 . S
C345 O372 1.289 . S
O346 C345 1.235 . S
C347 C349 1.400 . S
C347 N350 1.351 . S
C347 C352 1.501 . S
C348 C349 1.387 . S
C348 N351 1.341 . S
C349 C347 1.400 . S
C349 C348 1.387 . S
N350 Co341 2.022 . S
N350 C347 1.351 . S
N350 N351 1.365 . S
N351 C348 1.341 . S
N351 N350 1.365 . S
N351 H371 0.862 . S
C352 C347 1.501 . S
C352 H353 0.961 . S
C352 H354 0.961 . S
C352 H355 0.960 . S
H353 C352 0.961 . S
H354 C352 0.961 . S
H355 C352 0.960 . S
C356 N357 1.342 . S
C356 C360 1.401 . S
C356 C361 1.499 . S
N357 Co340 1.989 . S
N357 C356 1.342 . S
N357 N358 1.388 . S
N358 Co341 1.993 . S
N358 N357 1.388 . S
N358 C359 1.346 . S
C359 N358 1.346 . S
C359 C360 1.396 . S
C359 C369 1.510 . S
C360 C356 1.401 . S
C360 C359 1.396 . S
C361 C356 1.499 . S
C361 H362 0.959 . S
C361 H363 0.960 . S
C361 H364 0.961 . S
H362 C361 0.959 . S
H363 C361 0.960 . S
H364 C361 0.961 . S
O365 Co340 1.967 . S
O365 C373 1.258 . S
O366 Co341 1.941 . S
O366 C373 1.266 . S
H367 C369 0.959 . S
H368 C369 0.961 . S
C369 C359 1.510 . S
C369 H367 0.959 . S
C369 H368 0.961 . S
C369 H370 0.960 . S
H370 C369 0.960 . S
H371 N351 0.862 . S
O372 Co340 1.920 . S
O372 C345 1.289 . S
C373 O365 1.258 . S
C373 O366 1.266 . S
Co374 O377 1.970 . S
Co374 N391 1.989 . S
Co374 O399 1.967 . S
Co374 O406 1.920 . S
Co375 O378 1.966 . S
Co375 N384 2.022 . S
Co375 N392 1.993 . S
Co375 O400 1.941 . S
C376 O377 1.258 . S
C376 O378 1.263 . S
O377 Co374 1.970 . S
O377 C376 1.258 . S
O378 Co375 1.966 . S
O378 C376 1.263 . S
C379 O380 1.235 . S
C379 O406 1.289 . S
O380 C379 1.235 . S
C381 C383 1.400 . S
C381 N384 1.351 . S
C381 C386 1.501 . S
C382 C383 1.387 . S
C382 N385 1.341 . S
C383 C381 1.400 . S
C383 C382 1.387 . S
N384 Co375 2.022 . S
N384 C381 1.351 . S
N384 N385 1.365 . S
N385 C382 1.341 . S
N385 N384 1.365 . S
N385 H405 0.862 . S
C386 C381 1.501 . S
C386 H387 0.961 . S
C386 H388 0.961 . S
C386 H389 0.960 . S
H387 C386 0.961 . S
H388 C386 0.961 . S
H389 C386 0.960 . S
C390 N391 1.342 . S
C390 C394 1.401 . S
C390 C395 1.499 . S
N391 Co374 1.989 . S
N391 C390 1.342 . S
N391 N392 1.388 . S
N392 Co375 1.993 . S
N392 N391 1.388 . S
N392 C393 1.346 . S
C393 N392 1.346 . S
C393 C394 1.396 . S
C393 C403 1.510 . S
C394 C390 1.401 . S
C394 C393 1.396 . S
C395 C390 1.499 . S
C395 H396 0.959 . S
C395 H397 0.960 . S
C395 H398 0.961 . S
H396 C395 0.959 . S
H397 C395 0.960 . S
H398 C395 0.961 . S
O399 Co374 1.967 . S
O399 C407 1.258 . S
O400 Co375 1.941 . S
O400 C407 1.266 . S
H401 C403 0.959 . S
H402 C403 0.961 . S
C403 C393 1.510 . S
C403 H401 0.959 . S
C403 H402 0.961 . S
C403 H404 0.960 . S
H404 C403 0.960 . S
H405 N385 0.862 . S
O406 Co374 1.920 . S
O406 C379 1.289 . S
C407 O399 1.258 . S
C407 O400 1.266 . S
Co408 O411 1.970 . S
Co408 N425 1.989 . S
Co408 O433 1.967 . S
Co408 O440 1.920 . S
Co409 O412 1.966 . S
Co409 N418 2.022 . S
Co409 N426 1.993 . S
Co409 O434 1.941 . S
C410 O411 1.258 . S
C410 O412 1.263 . S
O411 Co408 1.970 . S
O411 C410 1.258 . S
O412 Co409 1.966 . S
O412 C410 1.263 . S
C413 O414 1.235 . S
C413 O440 1.289 . S
O414 C413 1.235 . S
C415 C417 1.400 . S
C415 N418 1.351 . S
C415 C420 1.501 . S
C416 C417 1.387 . S
C416 N419 1.341 . S
C417 C415 1.400 . S
C417 C416 1.387 . S
N418 Co409 2.022 . S
N418 C415 1.351 . S
N418 N419 1.365 . S
N419 C416 1.341 . S
N419 N418 1.365 . S
N419 H439 0.862 . S
C420 C415 1.501 . S
C420 H421 0.961 . S
C420 H422 0.961 . S
C420 H423 0.960 . S
H421 C420 0.961 . S
H422 C420 0.961 . S
H423 C420 0.960 . S
C424 N425 1.342 . S
C424 C428 1.401 . S
C424 C429 1.499 . S
N425 Co408 1.989 . S
N425 C424 1.342 . S
N425 N426 1.388 . S
N426 Co409 1.993 . S
N426 N425 1.388 . S
N426 C427 1.346 . S
C427 N426 1.346 . S
C427 C428 1.396 . S
C427 C437 1.510 . S
C428 C424 1.401 . S
C428 C427 1.396 . S
C429 C424 1.499 . S
C429 H430 0.959 . S
C429 H431 0.960 . S
C429 H432 0.961 . S
H430 C429 0.959 . S
H431 C429 0.960 . S
H432 C429 0.961 . S
O433 Co408 1.967 . S
O433 C441 1.258 . S
O434 Co409 1.941 . S
O434 C441 1.266 . S
H435 C437 0.959 . S
H436 C437 0.961 . S
C437 C427 1.510 . S
C437 H435 0.959 . S
C437 H436 0.961 . S
C437 H438 0.960 . S
H438 C437 0.960 . S
H439 N419 0.862 . S
O440 Co408 1.920 . S
O440 C413 1.289 . S
C441 O433 1.258 . S
C441 O434 1.266 . S
Co442 O445 1.970 . S
Co442 N459 1.989 . S
Co442 O467 1.967 . S
Co442 O474 1.920 . S
Co443 O446 1.966 . S
Co443 N452 2.022 . S
Co443 N460 1.993 . S
Co443 O468 1.941 . S
C444 O445 1.258 . S
C444 O446 1.263 . S
O445 Co442 1.970 . S
O445 C444 1.258 . S
O446 Co443 1.966 . S
O446 C444 1.263 . S
C447 O448 1.235 . S
C447 O474 1.289 . S
O448 C447 1.235 . S
C449 C451 1.400 . S
C449 N452 1.351 . S
C449 C454 1.501 . S
C450 C451 1.387 . S
C450 N453 1.341 . S
C451 C449 1.400 . S
C451 C450 1.387 . S
N452 Co443 2.022 . S
N452 C449 1.351 . S
N452 N453 1.365 . S
N453 C450 1.341 . S
N453 N452 1.365 . S
N453 H473 0.862 . S
C454 C449 1.501 . S
C454 H455 0.961 . S
C454 H456 0.961 . S
C454 H457 0.960 . S
H455 C454 0.961 . S
H456 C454 0.961 . S
H457 C454 0.960 . S
C458 N459 1.342 . S
C458 C462 1.401 . S
C458 C463 1.499 . S
N459 Co442 1.989 . S
N459 C458 1.342 . S
N459 N460 1.388 . S
N460 Co443 1.993 . S
N460 N459 1.388 . S
N460 C461 1.346 . S
C461 N460 1.346 . S
C461 C462 1.396 . S
C461 C471 1.510 . S
C462 C458 1.401 . S
C462 C461 1.396 . S
C463 C458 1.499 . S
C463 H464 0.959 . S
C463 H465 0.960 . S
C463 H466 0.961 . S
H464 C463 0.959 . S
H465 C463 0.960 . S
H466 C463 0.961 . S
O467 Co442 1.967 . S
O467 C475 1.258 . S
O468 Co443 1.941 . S
O468 C475 1.266 . S
H469 C471 0.959 . S
H470 C471 0.961 . S
C471 C461 1.510 . S
C471 H469 0.959 . S
C471 H470 0.961 . S
C471 H472 0.960 . S
H472 C471 0.960 . S
H473 N453 0.862 . S
O474 Co442 1.920 . S
O474 C447 1.289 . S
C475 O467 1.258 . S
C475 O468 1.266 . S
Co476 O479 1.970 . S
Co476 N493 1.989 . S
Co476 O501 1.967 . S
Co476 O508 1.920 . S
Co477 O480 1.966 . S
Co477 N486 2.022 . S
Co477 N494 1.993 . S
Co477 O502 1.941 . S
C478 O479 1.258 . S
C478 O480 1.263 . S
O479 Co476 1.970 . S
O479 C478 1.258 . S
O480 Co477 1.966 . S
O480 C478 1.263 . S
C481 O482 1.235 . S
C481 O508 1.289 . S
O482 C481 1.235 . S
C483 C485 1.400 . S
C483 N486 1.351 . S
C483 C488 1.501 . S
C484 C485 1.387 . S
C484 N487 1.341 . S
C485 C483 1.400 . S
C485 C484 1.387 . S
N486 Co477 2.022 . S
N486 C483 1.351 . S
N486 N487 1.365 . S
N487 C484 1.341 . S
N487 N486 1.365 . S
N487 H507 0.862 . S
C488 C483 1.501 . S
C488 H489 0.961 . S
C488 H490 0.961 . S
C488 H491 0.960 . S
H489 C488 0.961 . S
H490 C488 0.961 . S
H491 C488 0.960 . S
C492 N493 1.342 . S
C492 C496 1.401 . S
C492 C497 1.499 . S
N493 Co476 1.989 . S
N493 C492 1.342 . S
N493 N494 1.388 . S
N494 Co477 1.993 . S
N494 N493 1.388 . S
N494 C495 1.346 . S
C495 N494 1.346 . S
C495 C496 1.396 . S
C495 C505 1.510 . S
C496 C492 1.401 . S
C496 C495 1.396 . S
C497 C492 1.499 . S
C497 H498 0.959 . S
C497 H499 0.960 . S
C497 H500 0.961 . S
H498 C497 0.959 . S
H499 C497 0.960 . S
H500 C497 0.961 . S
O501 Co476 1.967 . S
O501 C509 1.258 . S
O502 Co477 1.941 . S
O502 C509 1.266 . S
H503 C505 0.959 . S
H504 C505 0.961 . S
C505 C495 1.510 . S
C505 H503 0.959 . S
C505 H504 0.961 . S
C505 H506 0.960 . S
H506 C505 0.960 . S
H507 N487 0.862 . S
O508 Co476 1.920 . S
O508 C481 1.289 . S
C509 O501 1.258 . S
C509 O502 1.266 . S
Co510 O513 1.970 . S
Co510 N527 1.989 . S
Co510 O535 1.967 . S
Co510 O542 1.920 . S
Co511 O514 1.966 . S
Co511 N520 2.022 . S
Co511 N528 1.993 . S
Co511 O536 1.941 . S
C512 O513 1.258 . S
C512 O514 1.263 . S
O513 Co510 1.970 . S
O513 C512 1.258 . S
O514 Co511 1.966 . S
O514 C512 1.263 . S
C515 O516 1.235 . S
C515 O542 1.289 . S
O516 C515 1.235 . S
C517 C519 1.400 . S
C517 N520 1.351 . S
C517 C522 1.501 . S
C518 C519 1.387 . S
C518 N521 1.341 . S
C519 C517 1.400 . S
C519 C518 1.387 . S
N520 Co511 2.022 . S
N520 C517 1.351 . S
N520 N521 1.365 . S
N521 C518 1.341 . S
N521 N520 1.365 . S
N521 H541 0.862 . S
C522 C517 1.501 . S
C522 H523 0.961 . S
C522 H524 0.961 . S
C522 H525 0.960 . S
H523 C522 0.961 . S
H524 C522 0.961 . S
H525 C522 0.960 . S
C526 N527 1.342 . S
C526 C530 1.401 . S
C526 C531 1.499 . S
N527 Co510 1.989 . S
N527 C526 1.342 . S
N527 N528 1.388 . S
N528 Co511 1.993 . S
N528 N527 1.388 . S
N528 C529 1.346 . S
C529 N528 1.346 . S
C529 C530 1.396 . S
C529 C539 1.510 . S
C530 C526 1.401 . S
C530 C529 1.396 . S
C531 C526 1.499 . S
C531 H532 0.959 . S
C531 H533 0.960 . S
C531 H534 0.961 . S
H532 C531 0.959 . S
H533 C531 0.960 . S
H534 C531 0.961 . S
O535 Co510 1.967 . S
O535 C543 1.258 . S
O536 Co511 1.941 . S
O536 C543 1.266 . S
H537 C539 0.959 . S
H538 C539 0.961 . S
C539 C529 1.510 . S
C539 H537 0.959 . S
C539 H538 0.961 . S
C539 H540 0.960 . S
H540 C539 0.960 . S
H541 N521 0.862 . S
O542 Co510 1.920 . S
O542 C515 1.289 . S
C543 O535 1.258 . S
C543 O536 1.266 . S
Co544 O547 1.970 . S
Co544 N561 1.989 . S
Co544 O569 1.967 . S
Co544 O576 1.920 . S
Co545 O548 1.966 . S
Co545 N554 2.022 1_545 S
Co545 N562 1.993 . S
Co545 O570 1.941 . S
C546 O547 1.258 . S
C546 O548 1.263 . S
O547 Co544 1.970 . S
O547 C546 1.258 . S
O548 Co545 1.966 . S
O548 C546 1.263 . S
C549 O550 1.235 1_655 S
C549 O576 1.289 . S
O550 C549 1.235 1_455 S
C551 C553 1.400 . S
C551 N554 1.351 . S
C551 C556 1.501 . S
C552 C553 1.387 . S
C552 N555 1.341 . S
C553 C551 1.400 . S
C553 C552 1.387 . S
N554 Co545 2.022 1_565 S
N554 C551 1.351 . S
N554 N555 1.365 . S
N555 C552 1.341 . S
N555 N554 1.365 . S
N555 H575 0.862 . S
C556 C551 1.501 . S
C556 H557 0.961 . S
C556 H558 0.961 . S
C556 H559 0.960 . S
H557 C556 0.961 . S
H558 C556 0.961 . S
H559 C556 0.960 . S
C560 N561 1.342 . S
C560 C564 1.401 . S
C560 C565 1.499 . S
N561 Co544 1.989 . S
N561 C560 1.342 . S
N561 N562 1.388 . S
N562 Co545 1.993 . S
N562 N561 1.388 . S
N562 C563 1.346 . S
C563 N562 1.346 . S
C563 C564 1.396 . S
C563 C573 1.510 1_545 S
C564 C560 1.401 . S
C564 C563 1.396 . S
C565 C560 1.499 . S
C565 H566 0.959 . S
C565 H567 0.960 1_655 S
C565 H568 0.961 . S
H566 C565 0.959 . S
H567 C565 0.960 1_455 S
H568 C565 0.961 . S
O569 Co544 1.967 . S
O569 C577 1.258 . S
O570 Co545 1.941 . S
O570 C577 1.266 . S
H571 C573 0.959 . S
H572 C573 0.961 . S
C573 C563 1.510 1_565 S
C573 H571 0.959 . S
C573 H572 0.961 . S
C573 H574 0.960 . S
H574 C573 0.960 . S
H575 N555 0.862 . S
O576 Co544 1.920 . S
O576 C549 1.289 . S
C577 O569 1.258 . S
C577 O570 1.266 . S
Co578 O581 1.970 1_565 S
Co578 N595 1.989 1_565 S
Co578 O603 1.967 . S
Co578 O610 1.920 . S
Co579 O582 1.966 . S
Co579 N588 2.022 . S
Co579 N596 1.993 . S
Co579 O604 1.941 . S
C580 O581 1.258 . S
C580 O582 1.263 . S
O581 Co578 1.970 1_545 S
O581 C580 1.258 . S
O582 Co579 1.966 . S
O582 C580 1.263 . S
C583 O584 1.235 . S
C583 O610 1.289 . S
O584 C583 1.235 . S
C585 C587 1.400 . S
C585 N588 1.351 . S
C585 C590 1.501 . S
C586 C587 1.387 . S
C586 N589 1.341 . S
C587 C585 1.400 . S
C587 C586 1.387 . S
N588 Co579 2.022 . S
N588 C585 1.351 . S
N588 N589 1.365 . S
N589 C586 1.341 . S
N589 N588 1.365 . S
N589 H609 0.862 . S
C590 C585 1.501 . S
C590 H591 0.961 . S
C590 H592 0.961 . S
C590 H593 0.960 . S
H591 C590 0.961 . S
H592 C590 0.961 . S
H593 C590 0.960 . S
C594 N595 1.342 . S
C594 C598 1.401 . S
C594 C599 1.499 1_545 S
N595 Co578 1.989 1_545 S
N595 C594 1.342 . S
N595 N596 1.388 . S
N596 Co579 1.993 . S
N596 N595 1.388 . S
N596 C597 1.346 . S
C597 N596 1.346 . S
C597 C598 1.396 . S
C597 C607 1.510 . S
C598 C594 1.401 . S
C598 C597 1.396 . S
C599 C594 1.499 1_565 S
C599 H600 0.959 . S
C599 H601 0.960 . S
C599 H602 0.961 . S
H600 C599 0.959 . S
H601 C599 0.960 . S
H602 C599 0.961 . S
O603 Co578 1.967 . S
O603 C611 1.258 1_565 S
O604 Co579 1.941 . S
O604 C611 1.266 . S
H605 C607 0.959 . S
H606 C607 0.961 . S
C607 C597 1.510 . S
C607 H605 0.959 . S
C607 H606 0.961 . S
C607 H608 0.960 . S
H608 C607 0.960 . S
H609 N589 0.862 . S
O610 Co578 1.920 . S
O610 C583 1.289 . S
C611 O603 1.258 1_545 S
C611 O604 1.266 . S
Co612 O615 1.970 1_565 S
Co612 N629 1.989 1_565 S
Co612 O637 1.967 . S
Co612 O644 1.920 . S
Co613 O616 1.966 . S
Co613 N622 2.022 . S
Co613 N630 1.993 . S
Co613 O638 1.941 . S
C614 O615 1.258 . S
C614 O616 1.263 . S
O615 Co612 1.970 1_545 S
O615 C614 1.258 . S
O616 Co613 1.966 . S
O616 C614 1.263 . S
C617 O618 1.235 1_655 S
C617 O644 1.289 . S
O618 C617 1.235 1_455 S
C619 C621 1.400 . S
C619 N622 1.351 . S
C619 C624 1.501 . S
C620 C621 1.387 . S
C620 N623 1.341 . S
C621 C619 1.400 . S
C621 C620 1.387 . S
N622 Co613 2.022 . S
N622 C619 1.351 . S
N622 N623 1.365 . S
N623 C620 1.341 . S
N623 N622 1.365 . S
N623 H643 0.862 . S
C624 C619 1.501 . S
C624 H625 0.961 . S
C624 H626 0.961 . S
C624 H627 0.960 . S
H625 C624 0.961 . S
H626 C624 0.961 . S
H627 C624 0.960 . S
C628 N629 1.342 . S
C628 C632 1.401 . S
C628 C633 1.499 1_545 S
N629 Co612 1.989 1_545 S
N629 C628 1.342 . S
N629 N630 1.388 . S
N630 Co613 1.993 . S
N630 N629 1.388 . S
N630 C631 1.346 . S
C631 N630 1.346 . S
C631 C632 1.396 . S
C631 C641 1.510 . S
C632 C628 1.401 . S
C632 C631 1.396 . S
C633 C628 1.499 1_565 S
C633 H634 0.959 . S
C633 H635 0.960 1_655 S
C633 H636 0.961 . S
H634 C633 0.959 . S
H635 C633 0.960 1_455 S
H636 C633 0.961 . S
O637 Co612 1.967 . S
O637 C645 1.258 1_565 S
O638 Co613 1.941 . S
O638 C645 1.266 . S
H639 C641 0.959 . S
H640 C641 0.961 . S
C641 C631 1.510 . S
C641 H639 0.959 . S
C641 H640 0.961 . S
C641 H642 0.960 . S
H642 C641 0.960 . S
H643 N623 0.862 . S
O644 Co612 1.920 . S
O644 C617 1.289 . S
C645 O637 1.258 1_545 S
C645 O638 1.266 . S
Co646 O649 1.970 . S
Co646 N663 1.989 . S
Co646 O671 1.967 . S
Co646 O678 1.920 . S
Co647 O650 1.966 . S
Co647 N656 2.022 1_545 S
Co647 N664 1.993 . S
Co647 O672 1.941 . S
C648 O649 1.258 . S
C648 O650 1.263 . S
O649 Co646 1.970 . S
O649 C648 1.258 . S
O650 Co647 1.966 . S
O650 C648 1.263 . S
C651 O652 1.235 . S
C651 O678 1.289 . S
O652 C651 1.235 . S
C653 C655 1.400 . S
C653 N656 1.351 . S
C653 C658 1.501 . S
C654 C655 1.387 . S
C654 N657 1.341 . S
C655 C653 1.400 . S
C655 C654 1.387 . S
N656 Co647 2.022 1_565 S
N656 C653 1.351 . S
N656 N657 1.365 . S
N657 C654 1.341 . S
N657 N656 1.365 . S
N657 H677 0.862 . S
C658 C653 1.501 . S
C658 H659 0.961 . S
C658 H660 0.961 . S
C658 H661 0.960 . S
H659 C658 0.961 . S
H660 C658 0.961 . S
H661 C658 0.960 . S
C662 N663 1.342 . S
C662 C666 1.401 . S
C662 C667 1.499 . S
N663 Co646 1.989 . S
N663 C662 1.342 . S
N663 N664 1.388 . S
N664 Co647 1.993 . S
N664 N663 1.388 . S
N664 C665 1.346 . S
C665 N664 1.346 . S
C665 C666 1.396 . S
C665 C675 1.510 1_545 S
C666 C662 1.401 . S
C666 C665 1.396 . S
C667 C662 1.499 . S
C667 H668 0.959 . S
C667 H669 0.960 . S
C667 H670 0.961 . S
H668 C667 0.959 . S
H669 C667 0.960 . S
H670 C667 0.961 . S
O671 Co646 1.967 . S
O671 C679 1.258 . S
O672 Co647 1.941 . S
O672 C679 1.266 . S
H673 C675 0.959 . S
H674 C675 0.961 . S
C675 C665 1.510 1_565 S
C675 H673 0.959 . S
C675 H674 0.961 . S
C675 H676 0.960 . S
H676 C675 0.960 . S
H677 N657 0.862 . S
O678 Co646 1.920 . S
O678 C651 1.289 . S
C679 O671 1.258 . S
C679 O672 1.266 . S
Co680 O683 1.970 . S
Co680 N697 1.989 . S
Co680 O705 1.967 . S
Co680 O712 1.920 . S
Co681 O684 1.966 . S
Co681 N690 2.022 1_565 S
Co681 N698 1.993 . S
Co681 O706 1.941 . S
C682 O683 1.258 . S
C682 O684 1.263 . S
O683 Co680 1.970 . S
O683 C682 1.258 . S
O684 Co681 1.966 . S
O684 C682 1.263 . S
C685 O686 1.235 1_455 S
C685 O712 1.289 . S
O686 C685 1.235 1_655 S
C687 C689 1.400 . S
C687 N690 1.351 . S
C687 C692 1.501 . S
C688 C689 1.387 . S
C688 N691 1.341 . S
C689 C687 1.400 . S
C689 C688 1.387 . S
N690 Co681 2.022 1_545 S
N690 C687 1.351 . S
N690 N691 1.365 . S
N691 C688 1.341 . S
N691 N690 1.365 . S
N691 H711 0.862 . S
C692 C687 1.501 . S
C692 H693 0.961 . S
C692 H694 0.961 . S
C692 H695 0.960 . S
H693 C692 0.961 . S
H694 C692 0.961 . S
H695 C692 0.960 . S
C696 N697 1.342 . S
C696 C700 1.401 . S
C696 C701 1.499 . S
N697 Co680 1.989 . S
N697 C696 1.342 . S
N697 N698 1.388 . S
N698 Co681 1.993 . S
N698 N697 1.388 . S
N698 C699 1.346 . S
C699 N698 1.346 . S
C699 C700 1.396 . S
C699 C709 1.510 1_565 S
C700 C696 1.401 . S
C700 C699 1.396 . S
C701 C696 1.499 . S
C701 H702 0.959 . S
C701 H703 0.960 1_455 S
C701 H704 0.961 . S
H702 C701 0.959 . S
H703 C701 0.960 1_655 S
H704 C701 0.961 . S
O705 Co680 1.967 . S
O705 C713 1.258 . S
O706 Co681 1.941 . S
O706 C713 1.266 . S
H707 C709 0.959 . S
H708 C709 0.961 . S
C709 C699 1.510 1_545 S
C709 H707 0.959 . S
C709 H708 0.961 . S
C709 H710 0.960 . S
H710 C709 0.960 . S
H711 N691 0.862 . S
O712 Co680 1.920 . S
O712 C685 1.289 . S
C713 O705 1.258 . S
C713 O706 1.266 . S
Co714 O717 1.970 1_545 S
Co714 N731 1.989 1_545 S
Co714 O739 1.967 . S
Co714 O746 1.920 . S
Co715 O718 1.966 . S
Co715 N724 2.022 . S
Co715 N732 1.993 . S
Co715 O740 1.941 . S
C716 O717 1.258 . S
C716 O718 1.263 . S
O717 Co714 1.970 1_565 S
O717 C716 1.258 . S
O718 Co715 1.966 . S
O718 C716 1.263 . S
C719 O720 1.235 . S
C719 O746 1.289 . S
O720 C719 1.235 . S
C721 C723 1.400 . S
C721 N724 1.351 . S
C721 C726 1.501 . S
C722 C723 1.387 . S
C722 N725 1.341 . S
C723 C721 1.400 . S
C723 C722 1.387 . S
N724 Co715 2.022 . S
N724 C721 1.351 . S
N724 N725 1.365 . S
N725 C722 1.341 . S
N725 N724 1.365 . S
N725 H745 0.862 . S
C726 C721 1.501 . S
C726 H727 0.961 . S
C726 H728 0.961 . S
C726 H729 0.960 . S
H727 C726 0.961 . S
H728 C726 0.961 . S
H729 C726 0.960 . S
C730 N731 1.342 . S
C730 C734 1.401 . S
C730 C735 1.499 1_565 S
N731 Co714 1.989 1_565 S
N731 C730 1.342 . S
N731 N732 1.388 . S
N732 Co715 1.993 . S
N732 N731 1.388 . S
N732 C733 1.346 . S
C733 N732 1.346 . S
C733 C734 1.396 . S
C733 C743 1.510 . S
C734 C730 1.401 . S
C734 C733 1.396 . S
C735 C730 1.499 1_545 S
C735 H736 0.959 . S
C735 H737 0.960 . S
C735 H738 0.961 . S
H736 C735 0.959 . S
H737 C735 0.960 . S
H738 C735 0.961 . S
O739 Co714 1.967 . S
O739 C747 1.258 1_545 S
O740 Co715 1.941 . S
O740 C747 1.266 . S
H741 C743 0.959 . S
H742 C743 0.961 . S
C743 C733 1.510 . S
C743 H741 0.959 . S
C743 H742 0.961 . S
C743 H744 0.960 . S
H744 C743 0.960 . S
H745 N725 0.862 . S
O746 Co714 1.920 . S
O746 C719 1.289 . S
C747 O739 1.258 1_565 S
C747 O740 1.266 . S
Co748 O751 1.970 1_545 S
Co748 N765 1.989 1_545 S
Co748 O773 1.967 . S
Co748 O780 1.920 . S
Co749 O752 1.966 . S
Co749 N758 2.022 . S
Co749 N766 1.993 . S
Co749 O774 1.941 . S
C750 O751 1.258 . S
C750 O752 1.263 . S
O751 Co748 1.970 1_565 S
O751 C750 1.258 . S
O752 Co749 1.966 . S
O752 C750 1.263 . S
C753 O754 1.235 1_455 S
C753 O780 1.289 . S
O754 C753 1.235 1_655 S
C755 C757 1.400 . S
C755 N758 1.351 . S
C755 C760 1.501 . S
C756 C757 1.387 . S
C756 N759 1.341 . S
C757 C755 1.400 . S
C757 C756 1.387 . S
N758 Co749 2.022 . S
N758 C755 1.351 . S
N758 N759 1.365 . S
N759 C756 1.341 . S
N759 N758 1.365 . S
N759 H779 0.862 . S
C760 C755 1.501 . S
C760 H761 0.961 . S
C760 H762 0.961 . S
C760 H763 0.960 . S
H761 C760 0.961 . S
H762 C760 0.961 . S
H763 C760 0.960 . S
C764 N765 1.342 . S
C764 C768 1.401 . S
C764 C769 1.499 1_565 S
N765 Co748 1.989 1_565 S
N765 C764 1.342 . S
N765 N766 1.388 . S
N766 Co749 1.993 . S
N766 N765 1.388 . S
N766 C767 1.346 . S
C767 N766 1.346 . S
C767 C768 1.396 . S
C767 C777 1.510 . S
C768 C764 1.401 . S
C768 C767 1.396 . S
C769 C764 1.499 1_545 S
C769 H770 0.959 . S
C769 H771 0.960 1_455 S
C769 H772 0.961 . S
H770 C769 0.959 . S
H771 C769 0.960 1_655 S
H772 C769 0.961 . S
O773 Co748 1.967 . S
O773 C781 1.258 1_545 S
O774 Co749 1.941 . S
O774 C781 1.266 . S
H775 C777 0.959 . S
H776 C777 0.961 . S
C777 C767 1.510 . S
C777 H775 0.959 . S
C777 H776 0.961 . S
C777 H778 0.960 . S
H778 C777 0.960 . S
H779 N759 0.862 . S
O780 Co748 1.920 . S
O780 C753 1.289 . S
C781 O773 1.258 1_565 S
C781 O774 1.266 . S
Co782 O785 1.970 . S
Co782 N799 1.989 . S
Co782 O807 1.967 . S
Co782 O814 1.920 . S
Co783 O786 1.966 . S
Co783 N792 2.022 1_565 S
Co783 N800 1.993 . S
Co783 O808 1.941 . S
C784 O785 1.258 . S
C784 O786 1.263 . S
O785 Co782 1.970 . S
O785 C784 1.258 . S
O786 Co783 1.966 . S
O786 C784 1.263 . S
C787 O788 1.235 . S
C787 O814 1.289 . S
O788 C787 1.235 . S
C789 C791 1.400 . S
C789 N792 1.351 . S
C789 C794 1.501 . S
C790 C791 1.387 . S
C790 N793 1.341 . S
C791 C789 1.400 . S
C791 C790 1.387 . S
N792 Co783 2.022 1_545 S
N792 C789 1.351 . S
N792 N793 1.365 . S
N793 C790 1.341 . S
N793 N792 1.365 . S
N793 H813 0.862 . S
C794 C789 1.501 . S
C794 H795 0.961 . S
C794 H796 0.961 . S
C794 H797 0.960 . S
H795 C794 0.961 . S
H796 C794 0.961 . S
H797 C794 0.960 . S
C798 N799 1.342 . S
C798 C802 1.401 . S
C798 C803 1.499 . S
N799 Co782 1.989 . S
N799 C798 1.342 . S
N799 N800 1.388 . S
N800 Co783 1.993 . S
N800 N799 1.388 . S
N800 C801 1.346 . S
C801 N800 1.346 . S
C801 C802 1.396 . S
C801 C811 1.510 1_565 S
C802 C798 1.401 . S
C802 C801 1.396 . S
C803 C798 1.499 . S
C803 H804 0.959 . S
C803 H805 0.960 . S
C803 H806 0.961 . S
H804 C803 0.959 . S
H805 C803 0.960 . S
H806 C803 0.961 . S
O807 Co782 1.967 . S
O807 C815 1.258 . S
O808 Co783 1.941 . S
O808 C815 1.266 . S
H809 C811 0.959 . S
H810 C811 0.961 . S
C811 C801 1.510 1_545 S
C811 H809 0.959 . S
C811 H810 0.961 . S
C811 H812 0.960 . S
H812 C811 0.960 . S
H813 N793 0.862 . S
O814 Co782 1.920 . S
O814 C787 1.289 . S
C815 O807 1.258 . S
C815 O808 1.266 . S
Co816 O819 1.970 . S
Co816 N833 1.989 . S
Co816 O841 1.967 . S
Co816 O848 1.920 . S
Co817 O820 1.966 . S
Co817 N826 2.022 . S
Co817 N834 1.993 . S
Co817 O842 1.941 . S
C818 O819 1.258 . S
C818 O820 1.263 . S
O819 Co816 1.970 . S
O819 C818 1.258 . S
O820 Co817 1.966 . S
O820 C818 1.263 . S
C821 O822 1.235 1_655 S
C821 O848 1.289 . S
O822 C821 1.235 1_455 S
C823 C825 1.400 . S
C823 N826 1.351 . S
C823 C828 1.501 . S
C824 C825 1.387 . S
C824 N827 1.341 . S
C825 C823 1.400 . S
C825 C824 1.387 . S
N826 Co817 2.022 . S
N826 C823 1.351 . S
N826 N827 1.365 . S
N827 C824 1.341 . S
N827 N826 1.365 . S
N827 H847 0.862 . S
C828 C823 1.501 . S
C828 H829 0.961 . S
C828 H830 0.961 . S
C828 H831 0.960 . S
H829 C828 0.961 . S
H830 C828 0.961 . S
H831 C828 0.960 . S
C832 N833 1.342 . S
C832 C836 1.401 . S
C832 C837 1.499 . S
N833 Co816 1.989 . S
N833 C832 1.342 . S
N833 N834 1.388 . S
N834 Co817 1.993 . S
N834 N833 1.388 . S
N834 C835 1.346 . S
C835 N834 1.346 . S
C835 C836 1.396 . S
C835 C845 1.510 . S
C836 C832 1.401 . S
C836 C835 1.396 . S
C837 C832 1.499 . S
C837 H838 0.959 . S
C837 H839 0.960 1_655 S
C837 H840 0.961 . S
H838 C837 0.959 . S
H839 C837 0.960 1_455 S
H840 C837 0.961 . S
O841 Co816 1.967 . S
O841 C849 1.258 . S
O842 Co817 1.941 . S
O842 C849 1.266 . S
H843 C845 0.959 . S
H844 C845 0.961 . S
C845 C835 1.510 . S
C845 H843 0.959 . S
C845 H844 0.961 . S
C845 H846 0.960 . S
H846 C845 0.960 . S
H847 N827 0.862 . S
O848 Co816 1.920 . S
O848 C821 1.289 . S
C849 O841 1.258 . S
C849 O842 1.266 . S
Co850 O853 1.970 . S
Co850 N867 1.989 . S
Co850 O875 1.967 . S
Co850 O882 1.920 . S
Co851 O854 1.966 . S
Co851 N860 2.022 . S
Co851 N868 1.993 . S
Co851 O876 1.941 . S
C852 O853 1.258 . S
C852 O854 1.263 . S
O853 Co850 1.970 . S
O853 C852 1.258 . S
O854 Co851 1.966 . S
O854 C852 1.263 . S
C855 O856 1.235 . S
C855 O882 1.289 . S
O856 C855 1.235 . S
C857 C859 1.400 . S
C857 N860 1.351 . S
C857 C862 1.501 . S
C858 C859 1.387 . S
C858 N861 1.341 . S
C859 C857 1.400 . S
C859 C858 1.387 . S
N860 Co851 2.022 . S
N860 C857 1.351 . S
N860 N861 1.365 . S
N861 C858 1.341 . S
N861 N860 1.365 . S
N861 H881 0.862 . S
C862 C857 1.501 . S
C862 H863 0.961 . S
C862 H864 0.961 . S
C862 H865 0.960 . S
H863 C862 0.961 . S
H864 C862 0.961 . S
H865 C862 0.960 . S
C866 N867 1.342 . S
C866 C870 1.401 . S
C866 C871 1.499 . S
N867 Co850 1.989 . S
N867 C866 1.342 . S
N867 N868 1.388 . S
N868 Co851 1.993 . S
N868 N867 1.388 . S
N868 C869 1.346 . S
C869 N868 1.346 . S
C869 C870 1.396 . S
C869 C879 1.510 . S
C870 C866 1.401 . S
C870 C869 1.396 . S
C871 C866 1.499 . S
C871 H872 0.959 . S
C871 H873 0.960 . S
C871 H874 0.961 . S
H872 C871 0.959 . S
H873 C871 0.960 . S
H874 C871 0.961 . S
O875 Co850 1.967 . S
O875 C883 1.258 . S
O876 Co851 1.941 . S
O876 C883 1.266 . S
H877 C879 0.959 . S
H878 C879 0.961 . S
C879 C869 1.510 . S
C879 H877 0.959 . S
C879 H878 0.961 . S
C879 H880 0.960 . S
H880 C879 0.960 . S
H881 N861 0.862 . S
O882 Co850 1.920 . S
O882 C855 1.289 . S
C883 O875 1.258 . S
C883 O876 1.266 . S
Co884 O887 1.970 . S
Co884 N901 1.989 . S
Co884 O909 1.967 . S
Co884 O916 1.920 . S
Co885 O888 1.966 . S
Co885 N894 2.022 . S
Co885 N902 1.993 . S
Co885 O910 1.941 . S
C886 O887 1.258 . S
C886 O888 1.263 . S
O887 Co884 1.970 . S
O887 C886 1.258 . S
O888 Co885 1.966 . S
O888 C886 1.263 . S
C889 O890 1.235 1_655 S
C889 O916 1.289 . S
O890 C889 1.235 1_455 S
C891 C893 1.400 . S
C891 N894 1.351 . S
C891 C896 1.501 . S
C892 C893 1.387 . S
C892 N895 1.341 . S
C893 C891 1.400 . S
C893 C892 1.387 . S
N894 Co885 2.022 . S
N894 C891 1.351 . S
N894 N895 1.365 . S
N895 C892 1.341 . S
N895 N894 1.365 . S
N895 H915 0.862 . S
C896 C891 1.501 . S
C896 H897 0.961 . S
C896 H898 0.961 . S
C896 H899 0.960 . S
H897 C896 0.961 . S
H898 C896 0.961 . S
H899 C896 0.960 . S
C900 N901 1.342 . S
C900 C904 1.401 . S
C900 C905 1.499 . S
N901 Co884 1.989 . S
N901 C900 1.342 . S
N901 N902 1.388 . S
N902 Co885 1.993 . S
N902 N901 1.388 . S
N902 C903 1.346 . S
C903 N902 1.346 . S
C903 C904 1.396 . S
C903 C913 1.510 . S
C904 C900 1.401 . S
C904 C903 1.396 . S
C905 C900 1.499 . S
C905 H906 0.959 . S
C905 H907 0.960 1_655 S
C905 H908 0.961 . S
H906 C905 0.959 . S
H907 C905 0.960 1_455 S
H908 C905 0.961 . S
O909 Co884 1.967 . S
O909 C917 1.258 . S
O910 Co885 1.941 . S
O910 C917 1.266 . S
H911 C913 0.959 . S
H912 C913 0.961 . S
C913 C903 1.510 . S
C913 H911 0.959 . S
C913 H912 0.961 . S
C913 H914 0.960 . S
H914 C913 0.960 . S
H915 N895 0.862 . S
O916 Co884 1.920 . S
O916 C889 1.289 . S
C917 O909 1.258 . S
C917 O910 1.266 . S
Co918 O921 1.970 . S
Co918 N935 1.989 . S
Co918 O943 1.967 . S
Co918 O950 1.920 . S
Co919 O922 1.966 . S
Co919 N928 2.022 . S
Co919 N936 1.993 . S
Co919 O944 1.941 . S
C920 O921 1.258 . S
C920 O922 1.263 . S
O921 Co918 1.970 . S
O921 C920 1.258 . S
O922 Co919 1.966 . S
O922 C920 1.263 . S
C923 O924 1.235 . S
C923 O950 1.289 . S
O924 C923 1.235 . S
C925 C927 1.400 . S
C925 N928 1.351 . S
C925 C930 1.501 . S
C926 C927 1.387 . S
C926 N929 1.341 . S
C927 C925 1.400 . S
C927 C926 1.387 . S
N928 Co919 2.022 . S
N928 C925 1.351 . S
N928 N929 1.365 . S
N929 C926 1.341 . S
N929 N928 1.365 . S
N929 H949 0.862 . S
C930 C925 1.501 . S
C930 H931 0.961 . S
C930 H932 0.961 . S
C930 H933 0.960 . S
H931 C930 0.961 . S
H932 C930 0.961 . S
H933 C930 0.960 . S
C934 N935 1.342 . S
C934 C938 1.401 . S
C934 C939 1.499 . S
N935 Co918 1.989 . S
N935 C934 1.342 . S
N935 N936 1.388 . S
N936 Co919 1.993 . S
N936 N935 1.388 . S
N936 C937 1.346 . S
C937 N936 1.346 . S
C937 C938 1.396 . S
C937 C947 1.510 . S
C938 C934 1.401 . S
C938 C937 1.396 . S
C939 C934 1.499 . S
C939 H940 0.959 . S
C939 H941 0.960 . S
C939 H942 0.961 . S
H940 C939 0.959 . S
H941 C939 0.960 . S
H942 C939 0.961 . S
O943 Co918 1.967 . S
O943 C951 1.258 . S
O944 Co919 1.941 . S
O944 C951 1.266 . S
H945 C947 0.959 . S
H946 C947 0.961 . S
C947 C937 1.510 . S
C947 H945 0.959 . S
C947 H946 0.961 . S
C947 H948 0.960 . S
H948 C947 0.960 . S
H949 N929 0.862 . S
O950 Co918 1.920 . S
O950 C923 1.289 . S
C951 O943 1.258 . S
C951 O944 1.266 . S
Co952 O955 1.970 . S
Co952 N969 1.989 . S
Co952 O977 1.967 . S
Co952 O984 1.920 . S
Co953 O956 1.966 . S
Co953 N962 2.022 . S
Co953 N970 1.993 . S
Co953 O978 1.941 . S
C954 O955 1.258 . S
C954 O956 1.263 . S
O955 Co952 1.970 . S
O955 C954 1.258 . S
O956 Co953 1.966 . S
O956 C954 1.263 . S
C957 O958 1.235 1_455 S
C957 O984 1.289 . S
O958 C957 1.235 1_655 S
C959 C961 1.400 . S
C959 N962 1.351 . S
C959 C964 1.501 . S
C960 C961 1.387 . S
C960 N963 1.341 . S
C961 C959 1.400 . S
C961 C960 1.387 . S
N962 Co953 2.022 . S
N962 C959 1.351 . S
N962 N963 1.365 . S
N963 C960 1.341 . S
N963 N962 1.365 . S
N963 H983 0.862 . S
C964 C959 1.501 . S
C964 H965 0.961 . S
C964 H966 0.961 . S
C964 H967 0.960 . S
H965 C964 0.961 . S
H966 C964 0.961 . S
H967 C964 0.960 . S
C968 N969 1.342 . S
C968 C972 1.401 . S
C968 C973 1.499 . S
N969 Co952 1.989 . S
N969 C968 1.342 . S
N969 N970 1.388 . S
N970 Co953 1.993 . S
N970 N969 1.388 . S
N970 C971 1.346 . S
C971 N970 1.346 . S
C971 C972 1.396 . S
C971 C981 1.510 . S
C972 C968 1.401 . S
C972 C971 1.396 . S
C973 C968 1.499 . S
C973 H974 0.959 . S
C973 H975 0.960 1_455 S
C973 H976 0.961 . S
H974 C973 0.959 . S
H975 C973 0.960 1_655 S
H976 C973 0.961 . S
O977 Co952 1.967 . S
O977 C985 1.258 . S
O978 Co953 1.941 . S
O978 C985 1.266 . S
H979 C981 0.959 . S
H980 C981 0.961 . S
C981 C971 1.510 . S
C981 H979 0.959 . S
C981 H980 0.961 . S
C981 H982 0.960 . S
H982 C981 0.960 . S
H983 N963 0.862 . S
O984 Co952 1.920 . S
O984 C957 1.289 . S
C985 O977 1.258 . S
C985 O978 1.266 . S
Co986 O989 1.970 . S
Co986 N1003 1.989 . S
Co986 O1011 1.967 . S
Co986 O1018 1.920 . S
Co987 O990 1.966 . S
Co987 N996 2.022 . S
Co987 N1004 1.993 . S
Co987 O1012 1.941 . S
C988 O989 1.258 . S
C988 O990 1.263 . S
O989 Co986 1.970 . S
O989 C988 1.258 . S
O990 Co987 1.966 . S
O990 C988 1.263 . S
C991 O992 1.235 . S
C991 O1018 1.289 . S
O992 C991 1.235 . S
C993 C995 1.400 . S
C993 N996 1.351 . S
C993 C998 1.501 . S
C994 C995 1.387 . S
C994 N997 1.341 . S
C995 C993 1.400 . S
C995 C994 1.387 . S
N996 Co987 2.022 . S
N996 C993 1.351 . S
N996 N997 1.365 . S
N997 C994 1.341 . S
N997 N996 1.365 . S
N997 H1017 0.862 . S
C998 C993 1.501 . S
C998 H999 0.961 . S
C998 H1000 0.961 . S
C998 H1001 0.960 . S
H999 C998 0.961 . S
H1000 C998 0.961 . S
H1001 C998 0.960 . S
C1002 N1003 1.342 . S
C1002 C1006 1.401 . S
C1002 C1007 1.499 . S
N1003 Co986 1.989 . S
N1003 C1002 1.342 . S
N1003 N1004 1.388 . S
N1004 Co987 1.993 . S
N1004 N1003 1.388 . S
N1004 C1005 1.346 . S
C1005 N1004 1.346 . S
C1005 C1006 1.396 . S
C1005 C1015 1.510 . S
C1006 C1002 1.401 . S
C1006 C1005 1.396 . S
C1007 C1002 1.499 . S
C1007 H1008 0.959 . S
C1007 H1009 0.960 . S
C1007 H1010 0.961 . S
H1008 C1007 0.959 . S
H1009 C1007 0.960 . S
H1010 C1007 0.961 . S
O1011 Co986 1.967 . S
O1011 C1019 1.258 . S
O1012 Co987 1.941 . S
O1012 C1019 1.266 . S
H1013 C1015 0.959 . S
H1014 C1015 0.961 . S
C1015 C1005 1.510 . S
C1015 H1013 0.959 . S
C1015 H1014 0.961 . S
C1015 H1016 0.960 . S
H1016 C1015 0.960 . S
H1017 N997 0.862 . S
O1018 Co986 1.920 . S
O1018 C991 1.289 . S
C1019 O1011 1.258 . S
C1019 O1012 1.266 . S
Co1020 O1023 1.970 . S
Co1020 N1037 1.989 . S
Co1020 O1045 1.967 . S
Co1020 O1052 1.920 . S
Co1021 O1024 1.966 . S
Co1021 N1030 2.022 . S
Co1021 N1038 1.993 . S
Co1021 O1046 1.941 . S
C1022 O1023 1.258 . S
C1022 O1024 1.263 . S
O1023 Co1020 1.970 . S
O1023 C1022 1.258 . S
O1024 Co1021 1.966 . S
O1024 C1022 1.263 . S
C1025 O1026 1.235 1_455 S
C1025 O1052 1.289 . S
O1026 C1025 1.235 1_655 S
C1027 C1029 1.400 . S
C1027 N1030 1.351 . S
C1027 C1032 1.501 . S
C1028 C1029 1.387 . S
C1028 N1031 1.341 . S
C1029 C1027 1.400 . S
C1029 C1028 1.387 . S
N1030 Co1021 2.022 . S
N1030 C1027 1.351 . S
N1030 N1031 1.365 . S
N1031 C1028 1.341 . S
N1031 N1030 1.365 . S
N1031 H1051 0.862 . S
C1032 C1027 1.501 . S
C1032 H1033 0.961 . S
C1032 H1034 0.961 . S
C1032 H1035 0.960 . S
H1033 C1032 0.961 . S
H1034 C1032 0.961 . S
H1035 C1032 0.960 . S
C1036 N1037 1.342 . S
C1036 C1040 1.401 . S
C1036 C1041 1.499 . S
N1037 Co1020 1.989 . S
N1037 C1036 1.342 . S
N1037 N1038 1.388 . S
N1038 Co1021 1.993 . S
N1038 N1037 1.388 . S
N1038 C1039 1.346 . S
C1039 N1038 1.346 . S
C1039 C1040 1.396 . S
C1039 C1049 1.510 . S
C1040 C1036 1.401 . S
C1040 C1039 1.396 . S
C1041 C1036 1.499 . S
C1041 H1042 0.959 . S
C1041 H1043 0.960 1_455 S
C1041 H1044 0.961 . S
H1042 C1041 0.959 . S
H1043 C1041 0.960 1_655 S
H1044 C1041 0.961 . S
O1045 Co1020 1.967 . S
O1045 C1053 1.258 . S
O1046 Co1021 1.941 . S
O1046 C1053 1.266 . S
H1047 C1049 0.959 . S
H1048 C1049 0.961 . S
C1049 C1039 1.510 . S
C1049 H1047 0.959 . S
C1049 H1048 0.961 . S
C1049 H1050 0.960 . S
H1050 C1049 0.960 . S
H1051 N1031 0.862 . S
O1052 Co1020 1.920 . S
O1052 C1025 1.289 . S
C1053 O1045 1.258 . S
C1053 O1046 1.266 . S
Co1054 O1057 1.970 . S
Co1054 N1071 1.989 . S
Co1054 O1079 1.967 . S
Co1054 O1086 1.920 . S
Co1055 O1058 1.966 . S
Co1055 N1064 2.022 . S
Co1055 N1072 1.993 . S
Co1055 O1080 1.941 . S
C1056 O1057 1.258 . S
C1056 O1058 1.263 . S
O1057 Co1054 1.970 . S
O1057 C1056 1.258 . S
O1058 Co1055 1.966 . S
O1058 C1056 1.263 . S
C1059 O1060 1.235 . S
C1059 O1086 1.289 . S
O1060 C1059 1.235 . S
C1061 C1063 1.400 . S
C1061 N1064 1.351 . S
C1061 C1066 1.501 . S
C1062 C1063 1.387 . S
C1062 N1065 1.341 . S
C1063 C1061 1.400 . S
C1063 C1062 1.387 . S
N1064 Co1055 2.022 . S
N1064 C1061 1.351 . S
N1064 N1065 1.365 . S
N1065 C1062 1.341 . S
N1065 N1064 1.365 . S
N1065 H1085 0.862 . S
C1066 C1061 1.501 . S
C1066 H1067 0.961 . S
C1066 H1068 0.961 . S
C1066 H1069 0.960 . S
H1067 C1066 0.961 . S
H1068 C1066 0.961 . S
H1069 C1066 0.960 . S
C1070 N1071 1.342 . S
C1070 C1074 1.401 . S
C1070 C1075 1.499 . S
N1071 Co1054 1.989 . S
N1071 C1070 1.342 . S
N1071 N1072 1.388 . S
N1072 Co1055 1.993 . S
N1072 N1071 1.388 . S
N1072 C1073 1.346 . S
C1073 N1072 1.346 . S
C1073 C1074 1.396 . S
C1073 C1083 1.510 . S
C1074 C1070 1.401 . S
C1074 C1073 1.396 . S
C1075 C1070 1.499 . S
C1075 H1076 0.959 . S
C1075 H1077 0.960 . S
C1075 H1078 0.961 . S
H1076 C1075 0.959 . S
H1077 C1075 0.960 . S
H1078 C1075 0.961 . S
O1079 Co1054 1.967 . S
O1079 C1087 1.258 . S
O1080 Co1055 1.941 . S
O1080 C1087 1.266 . S
H1081 C1083 0.959 . S
H1082 C1083 0.961 . S
C1083 C1073 1.510 . S
C1083 H1081 0.959 . S
C1083 H1082 0.961 . S
C1083 H1084 0.960 . S
H1084 C1083 0.960 . S
H1085 N1065 0.862 . S
O1086 Co1054 1.920 . S
O1086 C1059 1.289 . S
C1087 O1079 1.258 . S
C1087 O1080 1.266 . S
C1088 C1089 1.387 . S
C1088 H1092 0.950 . S
C1088 C1097 1.390 . S
C1089 C1088 1.387 . S
C1089 C1091 1.387 . S
H1090 C1097 0.950 . S
C1091 C1089 1.387 . S
C1091 C1093 1.390 . S
C1091 H1095 0.950 . S
H1092 C1088 0.950 . S
C1093 C1091 1.390 . S
C1093 C1094 1.387 . S
C1093 H1096 0.950 . S
C1094 C1093 1.387 . S
C1094 C1097 1.387 . S
H1095 C1091 0.950 . S
H1096 C1093 0.950 . S
C1097 C1088 1.390 . S
C1097 H1090 0.950 . S
C1097 C1094 1.387 . S
C1098 C1099 1.387 . S
C1098 H1102 0.950 . S
C1098 C1107 1.390 . S
C1099 C1098 1.387 . S
C1099 C1101 1.387 . S
H1100 C1107 0.950 . S
C1101 C1099 1.387 . S
C1101 C1103 1.390 . S
C1101 H1105 0.950 . S
H1102 C1098 0.950 . S
C1103 C1101 1.390 . S
C1103 C1104 1.387 . S
C1103 H1106 0.950 . S
C1104 C1103 1.387 . S
C1104 C1107 1.387 . S
H1105 C1101 0.950 . S
H1106 C1103 0.950 . S
C1107 C1098 1.390 . S
C1107 H1100 0.950 . S
C1107 C1104 1.387 . S
C1108 C1109 1.387 . S
C1108 H1112 0.950 . S
C1108 C1117 1.390 . S
C1109 C1108 1.387 . S
C1109 C1111 1.387 . S
H1110 C1117 0.950 . S
C1111 C1109 1.387 . S
C1111 C1113 1.390 . S
C1111 H1115 0.950 . S
H1112 C1108 0.950 . S
C1113 C1111 1.390 . S
C1113 C1114 1.387 . S
C1113 H1116 0.950 . S
C1114 C1113 1.387 . S
C1114 C1117 1.387 . S
H1115 C1111 0.950 . S
H1116 C1113 0.950 . S
C1117 C1108 1.390 . S
C1117 H1110 0.950 . S
C1117 C1114 1.387 . S
C1118 C1119 1.387 . S
C1118 H1122 0.950 . S
C1118 C1127 1.390 . S
C1119 C1118 1.387 . S
C1119 C1121 1.387 . S
H1120 C1127 0.950 . S
C1121 C1119 1.387 . S
C1121 C1123 1.390 . S
C1121 H1125 0.950 . S
H1122 C1118 0.950 . S
C1123 C1121 1.390 . S
C1123 C1124 1.387 . S
C1123 H1126 0.950 . S
C1124 C1123 1.387 . S
C1124 C1127 1.387 . S
H1125 C1121 0.950 . S
H1126 C1123 0.950 . S
C1127 C1118 1.390 . S
C1127 H1120 0.950 . S
C1127 C1124 1.387 . S
C1128 C1129 1.387 . S
C1128 H1132 0.950 . S
C1128 C1137 1.390 . S
C1129 C1128 1.387 . S
C1129 C1131 1.387 . S
H1130 C1137 0.950 . S
C1131 C1129 1.387 . S
C1131 C1133 1.390 . S
C1131 H1135 0.950 . S
H1132 C1128 0.950 . S
C1133 C1131 1.390 . S
C1133 C1134 1.387 . S
C1133 H1136 0.950 . S
C1134 C1133 1.387 . S
C1134 C1137 1.387 . S
H1135 C1131 0.950 . S
H1136 C1133 0.950 . S
C1137 C1128 1.390 . S
C1137 H1130 0.950 . S
C1137 C1134 1.387 . S
C1138 C1139 1.387 . S
C1138 H1142 0.950 . S
C1138 C1147 1.390 . S
C1139 C1138 1.387 . S
C1139 C1141 1.387 . S
H1140 C1147 0.950 . S
C1141 C1139 1.387 . S
C1141 C1143 1.390 . S
C1141 H1145 0.950 . S
H1142 C1138 0.950 . S
C1143 C1141 1.390 . S
C1143 C1144 1.387 . S
C1143 H1146 0.950 . S
C1144 C1143 1.387 . S
C1144 C1147 1.387 . S
H1145 C1141 0.950 . S
H1146 C1143 0.950 . S
C1147 C1138 1.390 . S
C1147 H1140 0.950 . S
C1147 C1144 1.387 . S
C1148 C1149 1.387 . S
C1148 H1152 0.950 . S
C1148 C1157 1.390 . S
C1149 C1148 1.387 . S
C1149 C1151 1.387 . S
H1150 C1157 0.950 . S
C1151 C1149 1.387 . S
C1151 C1153 1.390 . S
C1151 H1155 0.950 . S
H1152 C1148 0.950 . S
C1153 C1151 1.390 . S
C1153 C1154 1.387 . S
C1153 H1156 0.950 . S
C1154 C1153 1.387 . S
C1154 C1157 1.387 . S
H1155 C1151 0.950 . S
H1156 C1153 0.950 . S
C1157 C1148 1.390 . S
C1157 H1150 0.950 . S
C1157 C1154 1.387 . S
C1158 C1159 1.387 . S
C1158 H1162 0.950 . S
C1158 C1167 1.390 . S
C1159 C1158 1.387 . S
C1159 C1161 1.387 . S
H1160 C1167 0.950 . S
C1161 C1159 1.387 . S
C1161 C1163 1.390 . S
C1161 H1165 0.950 . S
H1162 C1158 0.950 . S
C1163 C1161 1.390 . S
C1163 C1164 1.387 . S
C1163 H1166 0.950 . S
C1164 C1163 1.387 . S
C1164 C1167 1.387 . S
H1165 C1161 0.950 . S
H1166 C1163 0.950 . S
C1167 C1158 1.390 . S
C1167 H1160 0.950 . S
C1167 C1164 1.387 . S
C1168 C1169 1.387 . S
C1168 H1172 0.950 . S
C1168 C1177 1.390 . S
C1169 C1168 1.387 . S
C1169 C1171 1.387 . S
H1170 C1177 0.950 . S
C1171 C1169 1.387 . S
C1171 C1173 1.390 . S
C1171 H1175 0.950 . S
H1172 C1168 0.950 . S
C1173 C1171 1.390 . S
C1173 C1174 1.387 . S
C1173 H1176 0.950 . S
C1174 C1173 1.387 . S
C1174 C1177 1.387 . S
H1175 C1171 0.950 . S
H1176 C1173 0.950 . S
C1177 C1168 1.390 . S
C1177 H1170 0.950 . S
C1177 C1174 1.387 . S
C1178 C1179 1.387 . S
C1178 H1182 0.950 . S
C1178 C1187 1.390 . S
C1179 C1178 1.387 . S
C1179 C1181 1.387 . S
H1180 C1187 0.950 . S
C1181 C1179 1.387 . S
C1181 C1183 1.390 . S
C1181 H1185 0.950 . S
H1182 C1178 0.950 . S
C1183 C1181 1.390 . S
C1183 C1184 1.387 . S
C1183 H1186 0.950 . S
C1184 C1183 1.387 . S
C1184 C1187 1.387 . S
H1185 C1181 0.950 . S
H1186 C1183 0.950 . S
C1187 C1178 1.390 . S
C1187 H1180 0.950 . S
C1187 C1184 1.387 . S
C1188 C1189 1.387 . S
C1188 H1192 0.950 . S
C1188 C1197 1.390 . S
C1189 C1188 1.387 . S
C1189 C1191 1.387 . S
H1190 C1197 0.950 . S
C1191 C1189 1.387 . S
C1191 C1193 1.390 . S
C1191 H1195 0.950 . S
H1192 C1188 0.950 . S
C1193 C1191 1.390 . S
C1193 C1194 1.387 . S
C1193 H1196 0.950 . S
C1194 C1193 1.387 . S
C1194 C1197 1.387 . S
H1195 C1191 0.950 . S
H1196 C1193 0.950 . S
C1197 C1188 1.390 . S
C1197 H1190 0.950 . S
C1197 C1194 1.387 . S
C1198 C1199 1.387 . S
C1198 H1202 0.950 . S
C1198 C1207 1.390 . S
C1199 C1198 1.387 . S
C1199 C1201 1.387 . S
H1200 C1207 0.950 . S
C1201 C1199 1.387 . S
C1201 C1203 1.390 . S
C1201 H1205 0.950 . S
H1202 C1198 0.950 . S
C1203 C1201 1.390 . S
C1203 C1204 1.387 . S
C1203 H1206 0.950 . S
C1204 C1203 1.387 . S
C1204 C1207 1.387 . S
H1205 C1201 0.950 . S
H1206 C1203 0.950 . S
C1207 C1198 1.390 . S
C1207 H1200 0.950 . S
C1207 C1204 1.387 . S
C1208 C1209 1.387 . S
C1208 H1212 0.950 . S
C1208 C1217 1.390 . S
C1209 C1208 1.387 . S
C1209 C1211 1.387 . S
H1210 C1217 0.950 . S
C1211 C1209 1.387 . S
C1211 C1213 1.390 . S
C1211 H1215 0.950 . S
H1212 C1208 0.950 . S
C1213 C1211 1.390 . S
C1213 C1214 1.387 . S
C1213 H1216 0.950 . S
C1214 C1213 1.387 . S
C1214 C1217 1.387 . S
H1215 C1211 0.950 . S
H1216 C1213 0.950 . S
C1217 C1208 1.390 . S
C1217 H1210 0.950 . S
C1217 C1214 1.387 . S
C1218 C1219 1.387 . S
C1218 H1222 0.950 . S
C1218 C1227 1.390 . S
C1219 C1218 1.387 . S
C1219 C1221 1.387 . S
H1220 C1227 0.950 . S
C1221 C1219 1.387 . S
C1221 C1223 1.390 . S
C1221 H1225 0.950 . S
H1222 C1218 0.950 . S
C1223 C1221 1.390 . S
C1223 C1224 1.387 . S
C1223 H1226 0.950 . S
C1224 C1223 1.387 . S
C1224 C1227 1.387 . S
H1225 C1221 0.950 . S
H1226 C1223 0.950 . S
C1227 C1218 1.390 . S
C1227 H1220 0.950 . S
C1227 C1224 1.387 . S
C1228 C1229 1.387 . S
C1228 H1232 0.950 . S
C1228 C1237 1.390 . S
C1229 C1228 1.387 . S
C1229 C1231 1.387 . S
H1230 C1237 0.950 . S
C1231 C1229 1.387 . S
C1231 C1233 1.390 . S
C1231 H1235 0.950 . S
H1232 C1228 0.950 . S
C1233 C1231 1.390 . S
C1233 C1234 1.387 . S
C1233 H1236 0.950 . S
C1234 C1233 1.387 . S
C1234 C1237 1.387 . S
H1235 C1231 0.950 . S
H1236 C1233 0.950 . S
C1237 C1228 1.390 . S
C1237 H1230 0.950 . S
C1237 C1234 1.387 . S
C1238 C1239 1.387 . S
C1238 H1242 0.950 . S
C1238 C1247 1.390 . S
C1239 C1238 1.387 . S
C1239 C1241 1.387 . S
H1240 C1247 0.950 . S
C1241 C1239 1.387 . S
C1241 C1243 1.390 . S
C1241 H1245 0.950 . S
H1242 C1238 0.950 . S
C1243 C1241 1.390 . S
C1243 C1244 1.387 . S
C1243 H1246 0.950 . S
C1244 C1243 1.387 . S
C1244 C1247 1.387 . S
H1245 C1241 0.950 . S
H1246 C1243 0.950 . S
C1247 C1238 1.390 . S
C1247 H1240 0.950 . S
C1247 C1244 1.387 . S
C1248 C1249 1.387 1_545 S
C1248 H1252 0.950 . S
C1248 C1257 1.390 . S
C1249 C1248 1.387 1_565 S
C1249 C1251 1.387 1_556 S
H1250 C1257 0.950 . S
C1251 C1249 1.387 1_554 S
C1251 C1253 1.390 . S
C1251 H1255 0.950 . S
H1252 C1248 0.950 . S
C1253 C1251 1.390 . S
C1253 C1254 1.387 1_565 S
C1253 H1256 0.950 . S
C1254 C1253 1.387 1_545 S
C1254 C1257 1.387 1_554 S
H1255 C1251 0.950 . S
H1256 C1253 0.950 . S
C1257 C1248 1.390 . S
C1257 H1250 0.950 . S
C1257 C1254 1.387 1_556 S
C1258 C1259 1.387 1_556 S
C1258 H1262 0.950 . S
C1258 C1267 1.390 . S
C1259 C1258 1.387 1_554 S
C1259 C1261 1.387 . S
H1260 C1267 0.950 . S
C1261 C1259 1.387 . S
C1261 C1263 1.390 . S
C1261 H1265 0.950 . S
H1262 C1258 0.950 . S
C1263 C1261 1.390 . S
C1263 C1264 1.387 1_554 S
C1263 H1266 0.950 . S
C1264 C1263 1.387 1_556 S
C1264 C1267 1.387 . S
H1265 C1261 0.950 . S
H1266 C1263 0.950 . S
C1267 C1258 1.390 . S
C1267 H1260 0.950 . S
C1267 C1264 1.387 . S
C1268 C1269 1.387 . S
C1268 H1272 0.950 . S
C1268 C1277 1.390 . S
C1269 C1268 1.387 . S
C1269 C1271 1.387 . S
H1270 C1277 0.950 . S
C1271 C1269 1.387 . S
C1271 C1273 1.390 . S
C1271 H1275 0.950 . S
H1272 C1268 0.950 . S
C1273 C1271 1.390 . S
C1273 C1274 1.387 . S
C1273 H1276 0.950 . S
C1274 C1273 1.387 . S
C1274 C1277 1.387 . S
H1275 C1271 0.950 . S
H1276 C1273 0.950 . S
C1277 C1268 1.390 . S
C1277 H1270 0.950 . S
C1277 C1274 1.387 . S
C1278 C1279 1.387 . S
C1278 H1282 0.950 . S
C1278 C1287 1.390 . S
C1279 C1278 1.387 . S
C1279 C1281 1.387 1_545 S
H1280 C1287 0.950 . S
C1281 C1279 1.387 1_565 S
C1281 C1283 1.390 . S
C1281 H1285 0.950 . S
H1282 C1278 0.950 . S
C1283 C1281 1.390 . S
C1283 C1284 1.387 . S
C1283 H1286 0.950 . S
C1284 C1283 1.387 . S
C1284 C1287 1.387 1_565 S
H1285 C1281 0.950 . S
H1286 C1283 0.950 . S
C1287 C1278 1.390 . S
C1287 H1280 0.950 . S
C1287 C1284 1.387 1_545 S
C1288 C1289 1.387 . S
C1288 H1292 0.950 . S
C1288 C1297 1.390 . S
C1289 C1288 1.387 . S
C1289 C1291 1.387 1_556 S
H1290 C1297 0.950 . S
C1291 C1289 1.387 1_554 S
C1291 C1293 1.390 . S
C1291 H1295 0.950 . S
H1292 C1288 0.950 . S
C1293 C1291 1.390 . S
C1293 C1294 1.387 . S
C1293 H1296 0.950 . S
C1294 C1293 1.387 . S
C1294 C1297 1.387 1_554 S
H1295 C1291 0.950 . S
H1296 C1293 0.950 . S
C1297 C1288 1.390 . S
C1297 H1290 0.950 . S
C1297 C1294 1.387 1_556 S
C1298 C1299 1.387 . S
C1298 H1302 0.950 . S
C1298 C1307 1.390 . S
C1299 C1298 1.387 . S
C1299 C1301 1.387 . S
H1300 C1307 0.950 . S
C1301 C1299 1.387 . S
C1301 C1303 1.390 . S
C1301 H1305 0.950 . S
H1302 C1298 0.950 . S
C1303 C1301 1.390 . S
C1303 C1304 1.387 . S
C1303 H1306 0.950 . S
C1304 C1303 1.387 . S
C1304 C1307 1.387 . S
H1305 C1301 0.950 . S
H1306 C1303 0.950 . S
C1307 C1298 1.390 . S
C1307 H1300 0.950 . S
C1307 C1304 1.387 . S
C1308 C1309 1.387 . S
C1308 H1312 0.950 . S
C1308 C1317 1.390 . S
C1309 C1308 1.387 . S
C1309 C1311 1.387 1_545 S
H1310 C1317 0.950 . S
C1311 C1309 1.387 1_565 S
C1311 C1313 1.390 . S
C1311 H1315 0.950 . S
H1312 C1308 0.950 . S
C1313 C1311 1.390 . S
C1313 C1314 1.387 . S
C1313 H1316 0.950 . S
C1314 C1313 1.387 . S
C1314 C1317 1.387 1_565 S
H1315 C1311 0.950 . S
H1316 C1313 0.950 . S
C1317 C1308 1.390 . S
C1317 H1310 0.950 . S
C1317 C1314 1.387 1_545 S
C1318 C1319 1.387 . S
C1318 H1322 0.950 . S
C1318 C1327 1.390 . S
C1319 C1318 1.387 . S
C1319 C1321 1.387 . S
H1320 C1327 0.950 . S
C1321 C1319 1.387 . S
C1321 C1323 1.390 . S
C1321 H1325 0.950 . S
H1322 C1318 0.950 . S
C1323 C1321 1.390 . S
C1323 C1324 1.387 . S
C1323 H1326 0.950 . S
C1324 C1323 1.387 . S
C1324 C1327 1.387 . S
H1325 C1321 0.950 . S
H1326 C1323 0.950 . S
C1327 C1318 1.390 . S
C1327 H1320 0.950 . S
C1327 C1324 1.387 . S
C1328 C1329 1.387 . S
C1328 H1332 0.950 . S
C1328 C1337 1.390 . S
C1329 C1328 1.387 . S
C1329 C1331 1.387 . S
H1330 C1337 0.950 . S
C1331 C1329 1.387 . S
C1331 C1333 1.390 . S
C1331 H1335 0.950 . S
H1332 C1328 0.950 . S
C1333 C1331 1.390 . S
C1333 C1334 1.387 . S
C1333 H1336 0.950 . S
C1334 C1333 1.387 . S
C1334 C1337 1.387 . S
H1335 C1331 0.950 . S
H1336 C1333 0.950 . S
C1337 C1328 1.390 . S
C1337 H1330 0.950 . S
C1337 C1334 1.387 . S
C1338 C1339 1.387 . S
C1338 H1342 0.950 . S
C1338 C1347 1.390 . S
C1339 C1338 1.387 . S
C1339 C1341 1.387 . S
H1340 C1347 0.950 . S
C1341 C1339 1.387 . S
C1341 C1343 1.390 . S
C1341 H1345 0.950 . S
H1342 C1338 0.950 . S
C1343 C1341 1.390 . S
C1343 C1344 1.387 . S
C1343 H1346 0.950 . S
C1344 C1343 1.387 . S
C1344 C1347 1.387 . S
H1345 C1341 0.950 . S
H1346 C1343 0.950 . S
C1347 C1338 1.390 . S
C1347 H1340 0.950 . S
C1347 C1344 1.387 . S
C1348 C1349 1.387 . S
C1348 H1352 0.950 . S
C1348 C1357 1.390 . S
C1349 C1348 1.387 . S
C1349 C1351 1.387 . S
H1350 C1357 0.950 . S
C1351 C1349 1.387 . S
C1351 C1353 1.390 . S
C1351 H1355 0.950 . S
H1352 C1348 0.950 . S
C1353 C1351 1.390 . S
C1353 C1354 1.387 . S
C1353 H1356 0.950 . S
C1354 C1353 1.387 . S
C1354 C1357 1.387 . S
H1355 C1351 0.950 . S
H1356 C1353 0.950 . S
C1357 C1348 1.390 . S
C1357 H1350 0.950 . S
C1357 C1354 1.387 . S
C1358 C1359 1.387 . S
C1358 H1362 0.950 . S
C1358 C1367 1.390 . S
C1359 C1358 1.387 . S
C1359 C1361 1.387 . S
H1360 C1367 0.950 . S
C1361 C1359 1.387 . S
C1361 C1363 1.390 . S
C1361 H1365 0.950 . S
H1362 C1358 0.950 . S
C1363 C1361 1.390 . S
C1363 C1364 1.387 . S
C1363 H1366 0.950 . S
C1364 C1363 1.387 . S
C1364 C1367 1.387 . S
H1365 C1361 0.950 . S
H1366 C1363 0.950 . S
C1367 C1358 1.390 . S
C1367 H1360 0.950 . S
C1367 C1364 1.387 . S
C1368 C1369 1.387 . S
C1368 H1372 0.950 . S
C1368 C1377 1.390 . S
C1369 C1368 1.387 . S
C1369 C1371 1.387 1_465 S
H1370 C1377 0.950 . S
C1371 C1369 1.387 1_645 S
C1371 C1373 1.390 . S
C1371 H1375 0.950 . S
H1372 C1368 0.950 . S
C1373 C1371 1.390 . S
C1373 C1374 1.387 . S
C1373 H1376 0.950 . S
C1374 C1373 1.387 . S
C1374 C1377 1.387 1_645 S
H1375 C1371 0.950 . S
H1376 C1373 0.950 . S
C1377 C1368 1.390 . S
C1377 H1370 0.950 . S
C1377 C1374 1.387 1_465 S
C1378 C1379 1.387 1_455 S
C1378 H1382 0.950 . S
C1378 C1387 1.390 . S
C1379 C1378 1.387 1_655 S
C1379 C1381 1.387 . S
H1380 C1387 0.950 . S
C1381 C1379 1.387 . S
C1381 C1383 1.390 . S
C1381 H1385 0.950 . S
H1382 C1378 0.950 . S
C1383 C1381 1.390 . S
C1383 C1384 1.387 1_655 S
C1383 H1386 0.950 . S
C1384 C1383 1.387 1_455 S
C1384 C1387 1.387 . S
H1385 C1381 0.950 . S
H1386 C1383 0.950 . S
C1387 C1378 1.390 . S
C1387 H1380 0.950 . S
C1387 C1384 1.387 . S
C1388 C1389 1.387 1_655 S
C1388 H1392 0.950 . S
C1388 C1397 1.390 . S
C1389 C1388 1.387 1_455 S
C1389 C1391 1.387 . S
H1390 C1397 0.950 . S
C1391 C1389 1.387 . S
C1391 C1393 1.390 . S
C1391 H1395 0.950 . S
H1392 C1388 0.950 . S
C1393 C1391 1.390 . S
C1393 C1394 1.387 1_455 S
C1393 H1396 0.950 . S
C1394 C1393 1.387 1_655 S
C1394 C1397 1.387 . S
H1395 C1391 0.950 . S
H1396 C1393 0.950 . S
C1397 C1388 1.390 . S
C1397 H1390 0.950 . S
C1397 C1394 1.387 . S
C1398 C1399 1.387 . S
C1398 H1402 0.950 . S
C1398 C1407 1.390 1_556 S
C1399 C1398 1.387 . S
C1399 C1401 1.387 1_455 S
H1400 C1407 0.950 . S
C1401 C1399 1.387 1_655 S
C1401 C1403 1.390 1_556 S
C1401 H1405 0.950 . S
H1402 C1398 0.950 . S
C1403 C1401 1.390 1_554 S
C1403 C1404 1.387 . S
C1403 H1406 0.950 . S
C1404 C1403 1.387 . S
C1404 C1407 1.387 1_655 S
H1405 C1401 0.950 . S
H1406 C1403 0.950 . S
C1407 C1398 1.390 1_554 S
C1407 H1400 0.950 . S
C1407 C1404 1.387 1_455 S
C1408 C1409 1.387 . S
C1408 H1412 0.950 . S
C1408 C1417 1.390 . S
C1409 C1408 1.387 . S
C1409 C1411 1.387 . S
H1410 C1417 0.950 . S
C1411 C1409 1.387 . S
C1411 C1413 1.390 . S
C1411 H1415 0.950 . S
H1412 C1408 0.950 . S
C1413 C1411 1.390 . S
C1413 C1414 1.387 . S
C1413 H1416 0.950 . S
C1414 C1413 1.387 . S
C1414 C1417 1.387 . S
H1415 C1411 0.950 . S
H1416 C1413 0.950 . S
C1417 C1408 1.390 . S
C1417 H1410 0.950 . S
C1417 C1414 1.387 . S
C1418 C1419 1.387 . S
C1418 H1422 0.950 . S
C1418 C1427 1.390 . S
C1419 C1418 1.387 . S
C1419 C1421 1.387 . S
H1420 C1427 0.950 . S
C1421 C1419 1.387 . S
C1421 C1423 1.390 . S
C1421 H1425 0.950 . S
H1422 C1418 0.950 . S
C1423 C1421 1.390 . S
C1423 C1424 1.387 . S
C1423 H1426 0.950 . S
C1424 C1423 1.387 . S
C1424 C1427 1.387 . S
H1425 C1421 0.950 . S
H1426 C1423 0.950 . S
C1427 C1418 1.390 . S
C1427 H1420 0.950 . S
C1427 C1424 1.387 . S
C1428 C1429 1.387 . S
C1428 H1432 0.950 . S
C1428 C1437 1.390 . S
C1429 C1428 1.387 . S
C1429 C1431 1.387 . S
H1430 C1437 0.950 . S
C1431 C1429 1.387 . S
C1431 C1433 1.390 . S
C1431 H1435 0.950 . S
H1432 C1428 0.950 . S
C1433 C1431 1.390 . S
C1433 C1434 1.387 . S
C1433 H1436 0.950 . S
C1434 C1433 1.387 . S
C1434 C1437 1.387 . S
H1435 C1431 0.950 . S
H1436 C1433 0.950 . S
C1437 C1428 1.390 . S
C1437 H1430 0.950 . S
C1437 C1434 1.387 . S
C1438 C1439 1.387 . S
C1438 H1442 0.950 . S
C1438 C1447 1.390 . S
C1439 C1438 1.387 . S
C1439 C1441 1.387 . S
H1440 C1447 0.950 . S
C1441 C1439 1.387 . S
C1441 C1443 1.390 . S
C1441 H1445 0.950 . S
H1442 C1438 0.950 . S
C1443 C1441 1.390 . S
C1443 C1444 1.387 . S
C1443 H1446 0.950 . S
C1444 C1443 1.387 . S
C1444 C1447 1.387 . S
H1445 C1441 0.950 . S
H1446 C1443 0.950 . S
C1447 C1438 1.390 . S
C1447 H1440 0.950 . S
C1447 C1444 1.387 . S
C1448 C1449 1.387 . S
C1448 H1452 0.950 . S
C1448 C1457 1.390 . S
C1449 C1448 1.387 . S
C1449 C1451 1.387 . S
H1450 C1457 0.950 . S
C1451 C1449 1.387 . S
C1451 C1453 1.390 . S
C1451 H1455 0.950 . S
H1452 C1448 0.950 . S
C1453 C1451 1.390 . S
C1453 C1454 1.387 . S
C1453 H1456 0.950 . S
C1454 C1453 1.387 . S
C1454 C1457 1.387 . S
H1455 C1451 0.950 . S
H1456 C1453 0.950 . S
C1457 C1448 1.390 . S
C1457 H1450 0.950 . S
C1457 C1454 1.387 . S
C1458 C1459 1.387 . S
C1458 H1462 0.950 . S
C1458 C1467 1.390 . S
C1459 C1458 1.387 . S
C1459 C1461 1.387 . S
H1460 C1467 0.950 . S
C1461 C1459 1.387 . S
C1461 C1463 1.390 . S
C1461 H1465 0.950 . S
H1462 C1458 0.950 . S
C1463 C1461 1.390 . S
C1463 C1464 1.387 . S
C1463 H1466 0.950 . S
C1464 C1463 1.387 . S
C1464 C1467 1.387 . S
H1465 C1461 0.950 . S
H1466 C1463 0.950 . S
C1467 C1458 1.390 . S
C1467 H1460 0.950 . S
C1467 C1464 1.387 . S
C1468 C1469 1.387 . S
C1468 H1472 0.950 . S
C1468 C1477 1.390 . S
C1469 C1468 1.387 . S
C1469 C1471 1.387 . S
H1470 C1477 0.950 . S
C1471 C1469 1.387 . S
C1471 C1473 1.390 . S
C1471 H1475 0.950 . S
H1472 C1468 0.950 . S
C1473 C1471 1.390 . S
C1473 C1474 1.387 . S
C1473 H1476 0.950 . S
C1474 C1473 1.387 . S
C1474 C1477 1.387 . S
H1475 C1471 0.950 . S
H1476 C1473 0.950 . S
C1477 C1468 1.390 . S
C1477 H1470 0.950 . S
C1477 C1474 1.387 . S
C1478 C1479 1.387 . S
C1478 H1482 0.950 . S
C1478 C1487 1.390 . S
C1479 C1478 1.387 . S
C1479 C1481 1.387 . S
H1480 C1487 0.950 . S
C1481 C1479 1.387 . S
C1481 C1483 1.390 . S
C1481 H1485 0.950 . S
H1482 C1478 0.950 . S
C1483 C1481 1.390 . S
C1483 C1484 1.387 . S
C1483 H1486 0.950 . S
C1484 C1483 1.387 . S
C1484 C1487 1.387 . S
H1485 C1481 0.950 . S
H1486 C1483 0.950 . S
C1487 C1478 1.390 . S
C1487 H1480 0.950 . S
C1487 C1484 1.387 . S
C1488 C1489 1.387 . S
C1488 H1492 0.950 . S
C1488 C1497 1.390 . S
C1489 C1488 1.387 . S
C1489 C1491 1.387 . S
H1490 C1497 0.950 . S
C1491 C1489 1.387 . S
C1491 C1493 1.390 . S
C1491 H1495 0.950 . S
H1492 C1488 0.950 . S
C1493 C1491 1.390 . S
C1493 C1494 1.387 . S
C1493 H1496 0.950 . S
C1494 C1493 1.387 . S
C1494 C1497 1.387 . S
H1495 C1491 0.950 . S
H1496 C1493 0.950 . S
C1497 C1488 1.390 . S
C1497 H1490 0.950 . S
C1497 C1494 1.387 . S
C1498 C1499 1.387 . S
C1498 H1502 0.950 . S
C1498 C1507 1.390 . S
C1499 C1498 1.387 . S
C1499 C1501 1.387 . S
H1500 C1507 0.950 . S
C1501 C1499 1.387 . S
C1501 C1503 1.390 . S
C1501 H1505 0.950 . S
H1502 C1498 0.950 . S
C1503 C1501 1.390 . S
C1503 C1504 1.387 . S
C1503 H1506 0.950 . S
C1504 C1503 1.387 . S
C1504 C1507 1.387 . S
H1505 C1501 0.950 . S
H1506 C1503 0.950 . S
C1507 C1498 1.390 . S
C1507 H1500 0.950 . S
C1507 C1504 1.387 . S
C1508 C1509 1.387 . S
C1508 H1512 0.950 . S
C1508 C1517 1.390 . S
C1509 C1508 1.387 . S
C1509 C1511 1.387 . S
H1510 C1517 0.950 . S
C1511 C1509 1.387 . S
C1511 C1513 1.390 . S
C1511 H1515 0.950 . S
H1512 C1508 0.950 . S
C1513 C1511 1.390 . S
C1513 C1514 1.387 . S
C1513 H1516 0.950 . S
C1514 C1513 1.387 . S
C1514 C1517 1.387 . S
H1515 C1511 0.950 . S
H1516 C1513 0.950 . S
C1517 C1508 1.390 . S
C1517 H1510 0.950 . S
C1517 C1514 1.387 . S
C1518 C1519 1.387 . S
C1518 H1522 0.950 . S
C1518 C1527 1.390 . S
C1519 C1518 1.387 . S
C1519 C1521 1.387 . S
H1520 C1527 0.950 . S
C1521 C1519 1.387 . S
C1521 C1523 1.390 . S
C1521 H1525 0.950 1_545 S
H1522 C1518 0.950 . S
C1523 C1521 1.390 . S
C1523 C1524 1.387 . S
C1523 H1526 0.950 . S
C1524 C1523 1.387 . S
C1524 C1527 1.387 . S
H1525 C1521 0.950 1_565 S
H1526 C1523 0.950 . S
C1527 C1518 1.390 . S
C1527 H1520 0.950 . S
C1527 C1524 1.387 . S
C1528 C1529 1.387 . S
C1528 H1532 0.950 . S
C1528 C1537 1.390 . S
C1529 C1528 1.387 . S
C1529 C1531 1.387 . S
H1530 C1537 0.950 . S
C1531 C1529 1.387 . S
C1531 C1533 1.390 . S
C1531 H1535 0.950 . S
H1532 C1528 0.950 . S
C1533 C1531 1.390 . S
C1533 C1534 1.387 . S
C1533 H1536 0.950 . S
C1534 C1533 1.387 . S
C1534 C1537 1.387 . S
H1535 C1531 0.950 . S
H1536 C1533 0.950 . S
C1537 C1528 1.390 . S
C1537 H1530 0.950 . S
C1537 C1534 1.387 . S
C1538 C1539 1.387 . S
C1538 H1542 0.950 . S
C1538 C1547 1.390 . S
C1539 C1538 1.387 . S
C1539 C1541 1.387 . S
H1540 C1547 0.950 . S
C1541 C1539 1.387 . S
C1541 C1543 1.390 . S
C1541 H1545 0.950 . S
H1542 C1538 0.950 . S
C1543 C1541 1.390 . S
C1543 C1544 1.387 . S
C1543 H1546 0.950 . S
C1544 C1543 1.387 . S
C1544 C1547 1.387 . S
H1545 C1541 0.950 . S
H1546 C1543 0.950 . S
C1547 C1538 1.390 . S
C1547 H1540 0.950 . S
C1547 C1544 1.387 . S
C1548 C1549 1.387 . S
C1548 H1552 0.950 . S
C1548 C1557 1.390 . S
C1549 C1548 1.387 . S
C1549 C1551 1.387 . S
H1550 C1557 0.950 . S
C1551 C1549 1.387 . S
C1551 C1553 1.390 . S
C1551 H1555 0.950 . S
H1552 C1548 0.950 . S
C1553 C1551 1.390 . S
C1553 C1554 1.387 . S
C1553 H1556 0.950 . S
C1554 C1553 1.387 . S
C1554 C1557 1.387 . S
H1555 C1551 0.950 . S
H1556 C1553 0.950 . S
C1557 C1548 1.390 . S
C1557 H1550 0.950 . S
C1557 C1554 1.387 . S
C1558 C1559 1.387 . S
C1558 H1562 0.950 . S
C1558 C1567 1.390 . S
C1559 C1558 1.387 . S
C1559 C1561 1.387 . S
H1560 C1567 0.950 . S
C1561 C1559 1.387 . S
C1561 C1563 1.390 . S
C1561 H1565 0.950 . S
H1562 C1558 0.950 . S
C1563 C1561 1.390 . S
C1563 C1564 1.387 . S
C1563 H1566 0.950 . S
C1564 C1563 1.387 . S
C1564 C1567 1.387 . S
H1565 C1561 0.950 . S
H1566 C1563 0.950 . S
C1567 C1558 1.390 . S
C1567 H1560 0.950 . S
C1567 C1564 1.387 . S
C1568 C1569 1.387 . S
C1568 H1572 0.950 . S
C1568 C1577 1.390 . S
C1569 C1568 1.387 . S
C1569 C1571 1.387 . S
H1570 C1577 0.950 . S
C1571 C1569 1.387 . S
C1571 C1573 1.390 . S
C1571 H1575 0.950 . S
H1572 C1568 0.950 . S
C1573 C1571 1.390 . S
C1573 C1574 1.387 . S
C1573 H1576 0.950 . S
C1574 C1573 1.387 . S
C1574 C1577 1.387 . S
H1575 C1571 0.950 . S
H1576 C1573 0.950 . S
C1577 C1568 1.390 . S
C1577 H1570 0.950 . S
C1577 C1574 1.387 . S
C1578 C1579 1.387 . S
C1578 H1582 0.950 . S
C1578 C1587 1.390 . S
C1579 C1578 1.387 . S
C1579 C1581 1.387 . S
H1580 C1587 0.950 . S
C1581 C1579 1.387 . S
C1581 C1583 1.390 . S
C1581 H1585 0.950 . S
H1582 C1578 0.950 . S
C1583 C1581 1.390 . S
C1583 C1584 1.387 . S
C1583 H1586 0.950 . S
C1584 C1583 1.387 . S
C1584 C1587 1.387 . S
H1585 C1581 0.950 . S
H1586 C1583 0.950 . S
C1587 C1578 1.390 . S
C1587 H1580 0.950 . S
C1587 C1584 1.387 . S
C1588 C1589 1.387 . S
C1588 H1592 0.950 . S
C1588 C1597 1.390 . S
C1589 C1588 1.387 . S
C1589 C1591 1.387 . S
H1590 C1597 0.950 . S
C1591 C1589 1.387 . S
C1591 C1593 1.390 . S
C1591 H1595 0.950 . S
H1592 C1588 0.950 . S
C1593 C1591 1.390 . S
C1593 C1594 1.387 . S
C1593 H1596 0.950 . S
C1594 C1593 1.387 . S
C1594 C1597 1.387 . S
H1595 C1591 0.950 . S
H1596 C1593 0.950 . S
C1597 C1588 1.390 . S
C1597 H1590 0.950 . S
C1597 C1594 1.387 . S
C1598 C1599 1.387 . S
C1598 H1602 0.950 . S
C1598 C1607 1.390 . S
C1599 C1598 1.387 . S
C1599 C1601 1.387 . S
H1600 C1607 0.950 . S
C1601 C1599 1.387 . S
C1601 C1603 1.390 . S
C1601 H1605 0.950 . S
H1602 C1598 0.950 . S
C1603 C1601 1.390 . S
C1603 C1604 1.387 . S
C1603 H1606 0.950 . S
C1604 C1603 1.387 . S
C1604 C1607 1.387 . S
H1605 C1601 0.950 . S
H1606 C1603 0.950 . S
C1607 C1598 1.390 . S
C1607 H1600 0.950 . S
C1607 C1604 1.387 . S
C1608 C1609 1.387 . S
C1608 H1612 0.950 . S
C1608 C1617 1.390 . S
C1609 C1608 1.387 . S
C1609 C1611 1.387 . S
H1610 C1617 0.950 . S
C1611 C1609 1.387 . S
C1611 C1613 1.390 . S
C1611 H1615 0.950 . S
H1612 C1608 0.950 . S
C1613 C1611 1.390 . S
C1613 C1614 1.387 . S
C1613 H1616 0.950 . S
C1614 C1613 1.387 . S
C1614 C1617 1.387 . S
H1615 C1611 0.950 . S
H1616 C1613 0.950 . S
C1617 C1608 1.390 . S
C1617 H1610 0.950 . S
C1617 C1614 1.387 . S
C1618 C1619 1.387 . S
C1618 H1622 0.950 . S
C1618 C1627 1.390 . S
C1619 C1618 1.387 . S
C1619 C1621 1.387 . S
H1620 C1627 0.950 . S
C1621 C1619 1.387 . S
C1621 C1623 1.390 . S
C1621 H1625 0.950 . S
H1622 C1618 0.950 . S
C1623 C1621 1.390 . S
C1623 C1624 1.387 . S
C1623 H1626 0.950 . S
C1624 C1623 1.387 . S
C1624 C1627 1.387 . S
H1625 C1621 0.950 . S
H1626 C1623 0.950 . S
C1627 C1618 1.390 . S
C1627 H1620 0.950 . S
C1627 C1624 1.387 . S
C1628 C1629 1.387 . S
C1628 H1632 0.950 . S
C1628 C1637 1.390 . S
C1629 C1628 1.387 . S
C1629 C1631 1.387 . S
H1630 C1637 0.950 . S
C1631 C1629 1.387 . S
C1631 C1633 1.390 . S
C1631 H1635 0.950 . S
H1632 C1628 0.950 . S
C1633 C1631 1.390 . S
C1633 C1634 1.387 . S
C1633 H1636 0.950 . S
C1634 C1633 1.387 . S
C1634 C1637 1.387 . S
H1635 C1631 0.950 . S
H1636 C1633 0.950 . S
C1637 C1628 1.390 . S
C1637 H1630 0.950 . S
C1637 C1634 1.387 . S
C1638 C1639 1.387 . S
C1638 H1642 0.950 . S
C1638 C1647 1.390 . S
C1639 C1638 1.387 . S
C1639 C1641 1.387 . S
H1640 C1647 0.950 . S
C1641 C1639 1.387 . S
C1641 C1643 1.390 . S
C1641 H1645 0.950 . S
H1642 C1638 0.950 . S
C1643 C1641 1.390 . S
C1643 C1644 1.387 . S
C1643 H1646 0.950 . S
C1644 C1643 1.387 . S
C1644 C1647 1.387 . S
H1645 C1641 0.950 . S
H1646 C1643 0.950 . S
C1647 C1638 1.390 . S
C1647 H1640 0.950 . S
C1647 C1644 1.387 . S
C1648 C1649 1.387 . S
C1648 H1652 0.950 . S
C1648 C1657 1.390 . S
C1649 C1648 1.387 . S
C1649 C1651 1.387 . S
H1650 C1657 0.950 . S
C1651 C1649 1.387 . S
C1651 C1653 1.390 . S
C1651 H1655 0.950 . S
H1652 C1648 0.950 . S
C1653 C1651 1.390 . S
C1653 C1654 1.387 . S
C1653 H1656 0.950 . S
C1654 C1653 1.387 . S
C1654 C1657 1.387 . S
H1655 C1651 0.950 . S
H1656 C1653 0.950 . S
C1657 C1648 1.390 . S
C1657 H1650 0.950 . S
C1657 C1654 1.387 . S
C1658 C1659 1.387 . S
C1658 H1662 0.950 . S
C1658 C1667 1.390 . S
C1659 C1658 1.387 . S
C1659 C1661 1.387 . S
H1660 C1667 0.950 . S
C1661 C1659 1.387 . S
C1661 C1663 1.390 . S
C1661 H1665 0.950 . S
H1662 C1658 0.950 . S
C1663 C1661 1.390 . S
C1663 C1664 1.387 . S
C1663 H1666 0.950 . S
C1664 C1663 1.387 . S
C1664 C1667 1.387 . S
H1665 C1661 0.950 . S
H1666 C1663 0.950 . S
C1667 C1658 1.390 . S
C1667 H1660 0.950 . S
C1667 C1664 1.387 . S
C1668 C1669 1.387 . S
C1668 H1672 0.950 . S
C1668 C1677 1.390 . S
C1669 C1668 1.387 . S
C1669 C1671 1.387 . S
H1670 C1677 0.950 . S
C1671 C1669 1.387 . S
C1671 C1673 1.390 . S
C1671 H1675 0.950 . S
H1672 C1668 0.950 . S
C1673 C1671 1.390 . S
C1673 C1674 1.387 . S
C1673 H1676 0.950 . S
C1674 C1673 1.387 . S
C1674 C1677 1.387 . S
H1675 C1671 0.950 . S
H1676 C1673 0.950 . S
C1677 C1668 1.390 . S
C1677 H1670 0.950 . S
C1677 C1674 1.387 . S
C1678 C1679 1.387 . S
C1678 H1682 0.950 . S
C1678 C1687 1.390 . S
C1679 C1678 1.387 . S
C1679 C1681 1.387 . S
H1680 C1687 0.950 . S
C1681 C1679 1.387 . S
C1681 C1683 1.390 . S
C1681 H1685 0.950 . S
H1682 C1678 0.950 . S
C1683 C1681 1.390 . S
C1683 C1684 1.387 . S
C1683 H1686 0.950 . S
C1684 C1683 1.387 . S
C1684 C1687 1.387 . S
H1685 C1681 0.950 . S
H1686 C1683 0.950 . S
C1687 C1678 1.390 . S
C1687 H1680 0.950 . S
C1687 C1684 1.387 . S
C1688 C1689 1.387 . S
C1688 H1692 0.950 . S
C1688 C1697 1.390 . S
C1689 C1688 1.387 . S
C1689 C1691 1.387 . S
H1690 C1697 0.950 . S
C1691 C1689 1.387 . S
C1691 C1693 1.390 . S
C1691 H1695 0.950 . S
H1692 C1688 0.950 . S
C1693 C1691 1.390 . S
C1693 C1694 1.387 . S
C1693 H1696 0.950 . S
C1694 C1693 1.387 . S
C1694 C1697 1.387 . S
H1695 C1691 0.950 . S
H1696 C1693 0.950 . S
C1697 C1688 1.390 . S
C1697 H1690 0.950 . S
C1697 C1694 1.387 . S
C1698 C1699 1.387 . S
C1698 H1702 0.950 . S
C1698 C1707 1.390 . S
C1699 C1698 1.387 . S
C1699 C1701 1.387 . S
H1700 C1707 0.950 . S
C1701 C1699 1.387 . S
C1701 C1703 1.390 . S
C1701 H1705 0.950 . S
H1702 C1698 0.950 . S
C1703 C1701 1.390 . S
C1703 C1704 1.387 . S
C1703 H1706 0.950 . S
C1704 C1703 1.387 . S
C1704 C1707 1.387 . S
H1705 C1701 0.950 . S
H1706 C1703 0.950 . S
C1707 C1698 1.390 . S
C1707 H1700 0.950 . S
C1707 C1704 1.387 . S
C1708 C1709 1.387 . S
C1708 H1712 0.950 . S
C1708 C1717 1.390 . S
C1709 C1708 1.387 . S
C1709 C1711 1.387 . S
H1710 C1717 0.950 . S
C1711 C1709 1.387 . S
C1711 C1713 1.390 . S
C1711 H1715 0.950 . S
H1712 C1708 0.950 . S
C1713 C1711 1.390 . S
C1713 C1714 1.387 . S
C1713 H1716 0.950 . S
C1714 C1713 1.387 . S
C1714 C1717 1.387 . S
H1715 C1711 0.950 . S
H1716 C1713 0.950 . S
C1717 C1708 1.390 . S
C1717 H1710 0.950 . S
C1717 C1714 1.387 . S
C1718 C1719 1.387 . S
C1718 H1722 0.950 . S
C1718 C1727 1.390 . S
C1719 C1718 1.387 . S
C1719 C1721 1.387 . S
H1720 C1727 0.950 . S
C1721 C1719 1.387 . S
C1721 C1723 1.390 . S
C1721 H1725 0.950 . S
H1722 C1718 0.950 . S
C1723 C1721 1.390 . S
C1723 C1724 1.387 . S
C1723 H1726 0.950 . S
C1724 C1723 1.387 . S
C1724 C1727 1.387 . S
H1725 C1721 0.950 . S
H1726 C1723 0.950 . S
C1727 C1718 1.390 . S
C1727 H1720 0.950 . S
C1727 C1724 1.387 . S
C1728 C1729 1.387 . S
C1728 H1732 0.950 . S
C1728 C1737 1.390 . S
C1729 C1728 1.387 . S
C1729 C1731 1.387 . S
H1730 C1737 0.950 . S
C1731 C1729 1.387 . S
C1731 C1733 1.390 . S
C1731 H1735 0.950 . S
H1732 C1728 0.950 . S
C1733 C1731 1.390 . S
C1733 C1734 1.387 . S
C1733 H1736 0.950 . S
C1734 C1733 1.387 . S
C1734 C1737 1.387 . S
H1735 C1731 0.950 . S
H1736 C1733 0.950 . S
C1737 C1728 1.390 . S
C1737 H1730 0.950 . S
C1737 C1734 1.387 . S
C1738 C1739 1.387 . S
C1738 H1742 0.950 . S
C1738 C1747 1.390 . S
C1739 C1738 1.387 . S
C1739 C1741 1.387 . S
H1740 C1747 0.950 . S
C1741 C1739 1.387 . S
C1741 C1743 1.390 . S
C1741 H1745 0.950 . S
H1742 C1738 0.950 . S
C1743 C1741 1.390 . S
C1743 C1744 1.387 . S
C1743 H1746 0.950 . S
C1744 C1743 1.387 . S
C1744 C1747 1.387 . S
H1745 C1741 0.950 . S
H1746 C1743 0.950 . S
C1747 C1738 1.390 . S
C1747 H1740 0.950 . S
C1747 C1744 1.387 . S
C1748 C1749 1.387 . S
C1748 H1752 0.950 . S
C1748 C1757 1.390 . S
C1749 C1748 1.387 . S
C1749 C1751 1.387 . S
H1750 C1757 0.950 . S
C1751 C1749 1.387 . S
C1751 C1753 1.390 . S
C1751 H1755 0.950 . S
H1752 C1748 0.950 . S
C1753 C1751 1.390 . S
C1753 C1754 1.387 . S
C1753 H1756 0.950 . S
C1754 C1753 1.387 . S
C1754 C1757 1.387 . S
H1755 C1751 0.950 . S
H1756 C1753 0.950 . S
C1757 C1748 1.390 . S
C1757 H1750 0.950 . S
C1757 C1754 1.387 . S
C1758 C1759 1.387 . S
C1758 H1762 0.950 . S
C1758 C1767 1.390 . S
C1759 C1758 1.387 . S
C1759 C1761 1.387 . S
H1760 C1767 0.950 . S
C1761 C1759 1.387 . S
C1761 C1763 1.390 . S
C1761 H1765 0.950 . S
H1762 C1758 0.950 . S
C1763 C1761 1.390 . S
C1763 C1764 1.387 . S
C1763 H1766 0.950 . S
C1764 C1763 1.387 . S
C1764 C1767 1.387 . S
H1765 C1761 0.950 . S
H1766 C1763 0.950 . S
C1767 C1758 1.390 . S
C1767 H1760 0.950 . S
C1767 C1764 1.387 . S
C1768 C1769 1.387 . S
C1768 H1772 0.950 . S
C1768 C1777 1.390 . S
C1769 C1768 1.387 . S
C1769 C1771 1.387 . S
H1770 C1777 0.950 . S
C1771 C1769 1.387 . S
C1771 C1773 1.390 . S
C1771 H1775 0.950 . S
H1772 C1768 0.950 . S
C1773 C1771 1.390 . S
C1773 C1774 1.387 . S
C1773 H1776 0.950 . S
C1774 C1773 1.387 . S
C1774 C1777 1.387 . S
H1775 C1771 0.950 . S
H1776 C1773 0.950 . S
C1777 C1768 1.390 . S
C1777 H1770 0.950 . S
C1777 C1774 1.387 . S
C1778 C1779 1.387 . S
C1778 H1782 0.950 . S
C1778 C1787 1.390 . S
C1779 C1778 1.387 . S
C1779 C1781 1.387 . S
H1780 C1787 0.950 . S
C1781 C1779 1.387 . S
C1781 C1783 1.390 . S
C1781 H1785 0.950 . S
H1782 C1778 0.950 . S
C1783 C1781 1.390 . S
C1783 C1784 1.387 . S
C1783 H1786 0.950 . S
C1784 C1783 1.387 . S
C1784 C1787 1.387 . S
H1785 C1781 0.950 . S
H1786 C1783 0.950 . S
C1787 C1778 1.390 . S
C1787 H1780 0.950 . S
C1787 C1784 1.387 . S
C1788 C1789 1.387 . S
C1788 H1792 0.950 . S
C1788 C1797 1.390 . S
C1789 C1788 1.387 . S
C1789 C1791 1.387 . S
H1790 C1797 0.950 . S
C1791 C1789 1.387 . S
C1791 C1793 1.390 . S
C1791 H1795 0.950 . S
H1792 C1788 0.950 . S
C1793 C1791 1.390 . S
C1793 C1794 1.387 . S
C1793 H1796 0.950 . S
C1794 C1793 1.387 . S
C1794 C1797 1.387 . S
H1795 C1791 0.950 . S
H1796 C1793 0.950 . S
C1797 C1788 1.390 . S
C1797 H1790 0.950 . S
C1797 C1794 1.387 . S
C1798 C1799 1.387 . S
C1798 H1802 0.950 . S
C1798 C1807 1.390 . S
C1799 C1798 1.387 . S
C1799 C1801 1.387 . S
H1800 C1807 0.950 . S
C1801 C1799 1.387 . S
C1801 C1803 1.390 . S
C1801 H1805 0.950 . S
H1802 C1798 0.950 . S
C1803 C1801 1.390 . S
C1803 C1804 1.387 . S
C1803 H1806 0.950 . S
C1804 C1803 1.387 . S
C1804 C1807 1.387 . S
H1805 C1801 0.950 . S
H1806 C1803 0.950 . S
C1807 C1798 1.390 . S
C1807 H1800 0.950 . S
C1807 C1804 1.387 . S
C1808 C1809 1.387 . S
C1808 H1812 0.950 . S
C1808 C1817 1.390 . S
C1809 C1808 1.387 . S
C1809 C1811 1.387 . S
H1810 C1817 0.950 . S
C1811 C1809 1.387 . S
C1811 C1813 1.390 . S
C1811 H1815 0.950 . S
H1812 C1808 0.950 . S
C1813 C1811 1.390 . S
C1813 C1814 1.387 . S
C1813 H1816 0.950 . S
C1814 C1813 1.387 . S
C1814 C1817 1.387 . S
H1815 C1811 0.950 . S
H1816 C1813 0.950 . S
C1817 C1808 1.390 . S
C1817 H1810 0.950 . S
C1817 C1814 1.387 . S
C1818 C1819 1.387 . S
C1818 H1822 0.950 . S
C1818 C1827 1.390 . S
C1819 C1818 1.387 . S
C1819 C1821 1.387 . S
H1820 C1827 0.950 . S
C1821 C1819 1.387 . S
C1821 C1823 1.390 . S
C1821 H1825 0.950 . S
H1822 C1818 0.950 . S
C1823 C1821 1.390 . S
C1823 C1824 1.387 . S
C1823 H1826 0.950 . S
C1824 C1823 1.387 . S
C1824 C1827 1.387 . S
H1825 C1821 0.950 . S
H1826 C1823 0.950 . S
C1827 C1818 1.390 . S
C1827 H1820 0.950 . S
C1827 C1824 1.387 . S
C1828 C1829 1.387 . S
C1828 H1832 0.950 . S
C1828 C1837 1.390 . S
C1829 C1828 1.387 . S
C1829 C1831 1.387 . S
H1830 C1837 0.950 . S
C1831 C1829 1.387 . S
C1831 C1833 1.390 . S
C1831 H1835 0.950 . S
H1832 C1828 0.950 . S
C1833 C1831 1.390 . S
C1833 C1834 1.387 . S
C1833 H1836 0.950 . S
C1834 C1833 1.387 . S
C1834 C1837 1.387 . S
H1835 C1831 0.950 . S
H1836 C1833 0.950 . S
C1837 C1828 1.390 . S
C1837 H1830 0.950 . S
C1837 C1834 1.387 . S
C1838 C1839 1.387 . S
C1838 H1842 0.950 . S
C1838 C1847 1.390 . S
C1839 C1838 1.387 . S
C1839 C1841 1.387 . S
H1840 C1847 0.950 . S
C1841 C1839 1.387 . S
C1841 C1843 1.390 . S
C1841 H1845 0.950 . S
H1842 C1838 0.950 . S
C1843 C1841 1.390 . S
C1843 C1844 1.387 . S
C1843 H1846 0.950 . S
C1844 C1843 1.387 . S
C1844 C1847 1.387 . S
H1845 C1841 0.950 . S
H1846 C1843 0.950 . S
C1847 C1838 1.390 . S
C1847 H1840 0.950 . S
C1847 C1844 1.387 . S
C1848 C1849 1.387 . S
C1848 H1852 0.950 . S
C1848 C1857 1.390 . S
C1849 C1848 1.387 . S
C1849 C1851 1.387 . S
H1850 C1857 0.950 . S
C1851 C1849 1.387 . S
C1851 C1853 1.390 . S
C1851 H1855 0.950 . S
H1852 C1848 0.950 . S
C1853 C1851 1.390 . S
C1853 C1854 1.387 . S
C1853 H1856 0.950 . S
C1854 C1853 1.387 . S
C1854 C1857 1.387 . S
H1855 C1851 0.950 . S
H1856 C1853 0.950 . S
C1857 C1848 1.390 . S
C1857 H1850 0.950 . S
C1857 C1854 1.387 . S
C1858 C1859 1.387 . S
C1858 H1862 0.950 . S
C1858 C1867 1.390 . S
C1859 C1858 1.387 . S
C1859 C1861 1.387 . S
H1860 C1867 0.950 . S
C1861 C1859 1.387 . S
C1861 C1863 1.390 . S
C1861 H1865 0.950 . S
H1862 C1858 0.950 . S
C1863 C1861 1.390 . S
C1863 C1864 1.387 . S
C1863 H1866 0.950 . S
C1864 C1863 1.387 . S
C1864 C1867 1.387 . S
H1865 C1861 0.950 . S
H1866 C1863 0.950 . S
C1867 C1858 1.390 . S
C1867 H1860 0.950 . S
C1867 C1864 1.387 . S
C1868 C1869 1.387 . S
C1868 H1872 0.950 . S
C1868 C1877 1.390 . S
C1869 C1868 1.387 . S
C1869 C1871 1.387 . S
H1870 C1877 0.950 . S
C1871 C1869 1.387 . S
C1871 C1873 1.390 . S
C1871 H1875 0.950 . S
H1872 C1868 0.950 . S
C1873 C1871 1.390 . S
C1873 C1874 1.387 . S
C1873 H1876 0.950 . S
C1874 C1873 1.387 . S
C1874 C1877 1.387 . S
H1875 C1871 0.950 . S
H1876 C1873 0.950 . S
C1877 C1868 1.390 . S
C1877 H1870 0.950 . S
C1877 C1874 1.387 . S
C1878 C1879 1.387 . S
C1878 H1882 0.950 . S
C1878 C1887 1.390 . S
C1879 C1878 1.387 . S
C1879 C1881 1.387 . S
H1880 C1887 0.950 . S
C1881 C1879 1.387 . S
C1881 C1883 1.390 . S
C1881 H1885 0.950 . S
H1882 C1878 0.950 . S
C1883 C1881 1.390 . S
C1883 C1884 1.387 . S
C1883 H1886 0.950 . S
C1884 C1883 1.387 . S
C1884 C1887 1.387 . S
H1885 C1881 0.950 . S
H1886 C1883 0.950 . S
C1887 C1878 1.390 . S
C1887 H1880 0.950 . S
C1887 C1884 1.387 . S
C1089 C2 1.532 . S
C1094 C70 1.532 . S
C1099 C36 1.533 . S
C1104 C104 1.533 . S
C1109 C138 1.532 . S
C1114 C206 1.532 . S
C1119 C240 1.532 . S
C1124 C172 1.532 . S
C1129 C342 1.532 . S
C1134 C274 1.532 . S
C1139 C376 1.532 . S
C1144 C308 1.532 . S
C1149 C410 1.532 . S
C1154 C478 1.532 . S
C1159 C512 1.533 . S
C1164 C444 1.533 . S
C1169 C614 1.533 . S
C1174 C546 1.533 . S
C1179 C580 1.533 . S
C1184 C648 1.533 . S
C1189 C682 1.533 . S
C1194 C750 1.533 . S
C1199 C784 1.533 . S
C1204 C716 1.533 . S
C1209 C886 1.532 . S
C1214 C818 1.532 . S
C1219 C852 1.532 . S
C1224 C920 1.532 . S
C1229 C1022 1.533 . S
C1234 C954 1.533 . S
C1239 C1056 1.533 . S
C1244 C988 1.533 . S
C1249 C156 1.695 . S
C1254 C20 1.695 . S
C1259 C54 1.696 . S
C1264 C1006 1.696 . S
C1269 C88 1.697 . S
C1274 C496 1.697 . S
C1279 C122 1.695 . S
C1284 C802 1.695 . S
C1289 C190 1.696 . S
C1294 C870 1.696 . S
C1299 C360 1.695 . S
C1304 C224 1.695 . S
C1309 C666 1.696 . S
C1314 C258 1.696 . S
C1319 C292 1.696 . S
C1324 C428 1.696 . S
C1329 C734 1.696 . S
C1334 C326 1.696 . S
C1339 C1074 1.695 . S
C1344 C394 1.695 . S
C1349 C598 1.697 . S
C1354 C462 1.697 . S
C1359 C938 1.695 . S
C1364 C530 1.695 . S
C1369 C700 1.698 . S
C1374 C564 1.698 . S
C1379 C632 1.697 . S
C1384 C1040 1.697 . S
C1389 C768 1.696 . S
C1394 C904 1.696 . S
C1399 C972 1.698 . S
C1404 C836 1.698 . S
C1409 C9 1.351 . S
C1414 C5 1.303 . S
C1419 C39 1.302 . S
C1424 C43 1.350 . S
C1429 C73 1.302 . S
C1434 C77 1.351 . S
C1439 C107 1.298 . S
C1444 C111 1.350 . S
C1449 C145 1.350 . S
C1454 C141 1.299 . S
C1459 C175 1.302 . S
C1464 C179 1.351 . S
C1469 C213 1.351 . S
C1474 C209 1.302 . S
C1479 C247 1.351 . S
C1484 C243 1.303 . S
C1489 C281 1.351 . S
C1494 C277 1.302 1_545 S
C1499 C315 1.351 1_545 S
C1504 C311 1.302 . S
C1509 C349 1.350 1_545 S
C1514 C345 1.298 . S
C1519 C379 1.301 1_545 S
C1524 C383 1.349 . S
C1529 C417 1.350 . S
C1534 C413 1.298 1_565 S
C1539 C451 1.350 1_565 S
C1544 C447 1.298 . S
C1549 C485 1.350 1_565 S
C1554 C481 1.298 . S
C1559 C519 1.351 . S
C1564 C515 1.302 1_565 S
C1569 C549 1.298 . S
C1574 C553 1.350 . S
C1579 C587 1.350 . S
C1584 C583 1.298 . S
C1589 C621 1.351 . S
C1594 C617 1.302 . S
C1599 C655 1.350 . S
C1604 C651 1.298 . S
C1609 C689 1.350 . S
C1614 C685 1.298 . S
C1619 C723 1.350 . S
C1624 C719 1.298 . S
C1629 C753 1.302 . S
C1634 C757 1.351 . S
C1639 C791 1.351 . S
C1644 C787 1.302 . S
C1649 C821 1.303 1_545 S
C1654 C825 1.351 . S
C1659 C859 1.351 1_545 S
C1664 C855 1.302 . S
C1669 C893 1.351 1_545 S
C1674 C889 1.302 . S
C1679 C927 1.350 . S
C1684 C923 1.298 1_545 S
C1689 C957 1.298 1_565 S
C1694 C961 1.350 . S
C1699 C991 1.302 . S
C1704 C995 1.351 1_565 S
C1709 C1025 1.302 . S
C1714 C1029 1.351 1_565 S
C1719 C1059 1.298 1_565 S
C1724 C1063 1.350 . S
C1729 C883 1.749 . S
C1734 C33 1.749 . S
C1739 C67 1.749 1_565 S
C1744 C849 1.749 . S
C1749 C951 1.749 . S
C1754 C101 1.749 1_565 S
C1759 C135 1.752 . S
C1764 C917 1.752 . S
C1769 C1019 1.752 . S
C1774 C169 1.752 . S
C1779 C203 1.749 1_545 S
C1784 C985 1.749 . S
C1789 C1087 1.749 . S
C1794 C237 1.749 1_545 S
C1799 C1053 1.752 . S
C1804 C271 1.752 . S
C1809 C305 1.749 . S
C1814 C611 1.749 1_565 S
C1819 C339 1.749 . S
C1824 C577 1.749 . S
C1829 C679 1.752 . S
C1834 C373 1.752 . S
C1839 C407 1.752 . S
C1844 C645 1.752 1_565 S
C1849 C747 1.752 1_545 S
C1854 C441 1.752 . S
C1859 C713 1.752 . S
C1864 C475 1.752 . S
C1869 C509 1.752 . S
C1874 C815 1.752 . S
C1879 C543 1.752 . S
C1884 C781 1.752 1_545 S
