# Generated by pormake.
# Topology sow, (4)-cn, num edge types: 1
# Building blocks:
#     Node 0, Type 0, BuildingBlock: NAWXER_clean_sbu_0, # of connection points: 4
#     Node 1, Type 0, BuildingBlock: NAWXER_clean_sbu_0, # of connection points: 4
#     Node 2, Type 0, BuildingBlock: NAWXER_clean_sbu_0, # of connection points: 4
#     Node 3, Type 0, BuildingBlock: NAWXER_clean_sbu_0, # of connection points: 4
#     Node 4, Type 0, BuildingBlock: NAWXER_clean_sbu_0, # of connection points: 4
#     Node 5, Type 0, BuildingBlock: NAWXER_clean_sbu_0, # of connection points: 4
#     Node 6, Type 0, BuildingBlock: NAWXER_clean_sbu_0, # of connection points: 4
#     Node 7, Type 0, BuildingBlock: NAWXER_clean_sbu_0, # of connection points: 4
#     Edge 8, Type (0, 0), BuildingBlock: XIVTED_clean_linker_0, # of connection points: 2
#     Edge 9, Type (0, 0), BuildingBlock: XIVTED_clean_linker_0, # of connection points: 2
#     Edge 10, Type (0, 0), BuildingBlock: XIVTED_clean_linker_0, # of connection points: 2
#     Edge 11, Type (0, 0), BuildingBlock: XIVTED_clean_linker_0, # of connection points: 2
#     Edge 12, Type (0, 0), BuildingBlock: XIVTED_clean_linker_0, # of connection points: 2
#     Edge 13, Type (0, 0), BuildingBlock: XIVTED_clean_linker_0, # of connection points: 2
#     Edge 14, Type (0, 0), BuildingBlock: XIVTED_clean_linker_0, # of connection points: 2
#     Edge 15, Type (0, 0), BuildingBlock: XIVTED_clean_linker_0, # of connection points: 2
#     Edge 16, Type (0, 0), BuildingBlock: XIVTED_clean_linker_0, # of connection points: 2
#     Edge 17, Type (0, 0), BuildingBlock: XIVTED_clean_linker_0, # of connection points: 2
#     Edge 18, Type (0, 0), BuildingBlock: XIVTED_clean_linker_0, # of connection points: 2
#     Edge 19, Type (0, 0), BuildingBlock: XIVTED_clean_linker_0, # of connection points: 2
#     Edge 20, Type (0, 0), BuildingBlock: XIVTED_clean_linker_0, # of connection points: 2
#     Edge 21, Type (0, 0), BuildingBlock: XIVTED_clean_linker_0, # of connection points: 2
#     Edge 22, Type (0, 0), BuildingBlock: XIVTED_clean_linker_0, # of connection points: 2
#     Edge 23, Type (0, 0), BuildingBlock: XIVTED_clean_linker_0, # of connection points: 2
# Relax obj value: 0.113
# Max RMSD: 0.238
# Mean RMSD: 0.237
data_MOF--net-sow--node1-NAWXER_clean_sbu_0--edge1-XIVTED_clean_linker_0
_symmetry_space_group_name_H-M    P1
_symmetry_Int_Tables_number       1
_symmetry_cell_setting            triclinic
loop_
_symmetry_equiv_pos_as_xyz
'x, y, z'
_cell_length_a     44.005087
_cell_length_b     19.390977
_cell_length_c     23.04196
_cell_angle_alpha  89.991492
_cell_angle_beta   90.015909
_cell_angle_gamma 89.987169
loop_
_atom_site_label
_atom_site_type_symbol
_atom_site_fract_x
_atom_site_fract_y
_atom_site_fract_z
_atom_type_partial_charge
C0 C 0.18351 0.20217 0.15442 0.0
C1 C 0.09883 0.11891 0.0403 0.0
O2 O 0.17482 0.14116 0.14387 0.0
Zn3 Zn 0.14309 0.16202 0.09081 0.0
O4 O 0.17039 0.25286 0.12862 0.0
Zn5 Zn 0.13391 0.26222 0.06506 0.0
O6 O 0.10593 0.32227 0.10274 0.0
O7 O 0.10995 0.21921 0.14333 0.0
O8 O 0.10184 0.18448 0.03485 0.0
O9 O 0.11904 0.08485 0.06719 0.0
O10 O 0.16657 0.19191 0.01245 0.0
O11 O 0.15224 0.2988 0.99652 0.0
C12 C 0.09769 0.27937 0.14129 0.0
C13 C 0.16771 0.24677 0.98141 0.0
C14 C 0.31639 0.29748 0.65504 0.0
C15 C 0.40055 0.38438 0.54163 0.0
O16 O 0.3249 0.35882 0.64537 0.0
Zn17 Zn 0.35654 0.33958 0.59177 0.0
O18 O 0.32956 0.24753 0.62835 0.0
Zn19 Zn 0.36592 0.24004 0.56439 0.0
O20 O 0.3942 0.17963 0.60104 0.0
O21 O 0.38988 0.28171 0.64321 0.0
O22 O 0.39768 0.31891 0.53519 0.0
O23 O 0.38033 0.41761 0.56918 0.0
O24 O 0.33293 0.31108 0.51321 0.0
O25 O 0.34746 0.20474 0.49541 0.0
C26 C 0.40232 0.22181 0.64023 0.0
C27 C 0.33182 0.25693 0.48131 0.0
C28 C 0.68212 0.29901 0.84032 0.0
C29 C 0.59931 0.38634 0.95718 0.0
O30 O 0.6739 0.36037 0.85081 0.0
Zn31 Zn 0.64275 0.34105 0.90543 0.0
O32 O 0.66906 0.24899 0.86711 0.0
Zn33 Zn 0.63324 0.24156 0.93228 0.0
O34 O 0.60453 0.18185 0.8963 0.0
O35 O 0.60872 0.28421 0.85454 0.0
O36 O 0.60193 0.32072 0.96299 0.0
O37 O 0.61948 0.41939 0.9294 0.0
O38 O 0.66707 0.3111 0.98302 0.0
O39 O 0.65211 0.20497 0.00026 0.0
C40 C 0.59617 0.22442 0.85759 0.0
C41 C 0.66818 0.25645 0.01434 0.0
C42 C 0.81761 0.20422 0.34025 0.0
C43 C 0.90037 0.11764 0.45796 0.0
O44 O 0.82582 0.14288 0.35089 0.0
Zn45 Zn 0.85696 0.16235 0.40567 0.0
O46 O 0.83064 0.25431 0.36701 0.0
Zn47 Zn 0.86634 0.2621 0.4323 0.0
O48 O 0.89516 0.32158 0.39629 0.0
O49 O 0.89101 0.21901 0.3549 0.0
O50 O 0.89758 0.18323 0.46363 0.0
O51 O 0.88037 0.08429 0.42994 0.0
O52 O 0.8326 0.19246 0.48313 0.0
O53 O 0.84732 0.29885 0.50002 0.0
C54 C 0.90357 0.27878 0.35781 0.0
C55 C 0.83136 0.24725 0.51426 0.0
C56 C 0.89633 0.90155 0.9639 0.0
C57 C 0.81421 0.81363 0.84461 0.0
O58 O 0.89462 0.83549 0.96654 0.0
Zn59 Zn 0.86487 0.75565 0.93248 0.0
O60 O 0.87564 0.93518 0.93787 0.0
Zn61 Zn 0.85326 0.85697 0.91022 0.0
O62 O 0.83039 0.81933 0.98641 0.0
O63 O 0.84697 0.71334 -0.00066 0.0
O64 O 0.82131 0.87556 0.85591 0.0
O65 O 0.82839 0.76436 0.87016 0.0
O66 O 0.89414 0.70166 0.89041 0.0
O67 O 0.88797 0.80772 0.85735 0.0
C68 C 0.83026 0.76296 0.01555 0.0
C69 C 0.90166 0.74924 0.85529 0.0
C70 C 0.60257 0.60349 0.46501 0.0
C71 C 0.68446 0.68756 0.34382 0.0
O72 O 0.60447 0.66957 0.46707 0.0
Zn73 Zn 0.63448 0.74856 0.43175 0.0
O74 O 0.62304 0.56926 0.43896 0.0
Zn75 Zn 0.64542 0.64659 0.41032 0.0
O76 O 0.66858 0.68412 0.48561 0.0
O77 O 0.65313 0.79094 0.49853 0.0
O78 O 0.67709 0.62621 0.35656 0.0
O79 O 0.6706 0.73801 0.3684 0.0
O80 O 0.60496 0.80232 0.38967 0.0
O81 O 0.61076 0.69573 0.3576 0.0
C82 C 0.6694 0.74047 0.51464 0.0
C83 C 0.59715 0.75427 0.35519 0.0
C84 C 0.39732 0.60768 0.03146 0.0
C85 C 0.3125 0.68752 0.14724 0.0
O86 O 0.3953 0.67379 0.03025 0.0
Zn87 Zn 0.36401 0.75136 0.06417 0.0
O88 O 0.37629 0.57271 0.05505 0.0
Zn89 Zn 0.35301 0.64907 0.08288 0.0
O90 O 0.33128 0.688 0.00613 0.0
O91 O 0.34681 0.79526 0.99706 0.0
O92 O 0.32029 0.62664 0.13386 0.0
O93 O 0.32668 0.73875 0.12458 0.0
O94 O 0.39203 0.80534 0.10912 0.0
O95 O 0.38642 0.69791 0.1393 0.0
C96 C 0.33103 0.74531 0.97838 0.0
C97 C 0.39949 0.75697 0.14353 0.0
C98 C 0.10133 0.89116 0.53168 0.0
C99 C 0.18585 0.8093 0.6477 0.0
O100 O 0.1035 0.82511 0.52973 0.0
Zn101 Zn 0.13452 0.74706 0.56335 0.0
O102 O 0.12215 0.92598 0.55611 0.0
Zn103 Zn 0.14553 0.84929 0.58335 0.0
O104 O 0.16735 0.81155 0.50643 0.0
O105 O 0.152 0.70431 0.4959 0.0
O106 O 0.17818 0.87051 0.63503 0.0
O107 O 0.17166 0.75861 0.62421 0.0
O108 O 0.10616 0.69288 0.60762 0.0
O109 O 0.11205 0.79983 0.63877 0.0
C110 C 0.16774 0.75474 0.47799 0.0
C111 C 0.09879 0.74097 0.64239 0.0
H112 H 0.29973 0.1746 0.70612 0.0
H113 H 0.17476 0.35578 0.90781 0.0
H114 H 0.27785 0.3916 0.70263 0.0
H115 H 0.20531 0.14678 0.93586 0.0
H116 H 0.20856 0.36437 0.8247 0.0
H117 H 0.26149 0.15825 0.78263 0.0
C118 C 0.28675 0.21862 0.72104 0.0
C119 C 0.29213 0.28465 0.6982 0.0
C120 C 0.20789 0.31648 0.84885 0.0
C121 C 0.24851 0.26634 0.78534 0.0
C122 C 0.18852 0.31148 0.89642 0.0
C123 C 0.18731 0.2506 0.92925 0.0
C124 C 0.22634 0.26023 0.83363 0.0
C125 C 0.20562 0.19484 0.91197 0.0
C126 C 0.26504 0.20929 0.7648 0.0
C127 C 0.27469 0.33985 0.71921 0.0
N128 N 0.2245 0.20107 0.86541 0.0
N129 N 0.25378 0.32944 0.76152 0.0
H130 H 0.22236 0.10682 0.19935 0.0
H131 H 0.29459 0.35832 0.43695 0.0
H132 H 0.2001 0.32337 0.20827 0.0
H133 H 0.32377 0.14868 0.40721 0.0
H134 H 0.26036 0.34885 0.35323 0.0
H135 H 0.26014 0.12331 0.27505 0.0
C136 C 0.22551 0.15805 0.2171 0.0
C137 C 0.2079 0.21374 0.19759 0.0
C138 C 0.27442 0.30517 0.36494 0.0
C139 C 0.25122 0.23303 0.28509 0.0
C140 C 0.29392 0.31047 0.41274 0.0
C141 C 0.31197 0.25406 0.42941 0.0
C142 C 0.27287 0.24291 0.33386 0.0
C143 C 0.31023 0.19344 0.39629 0.0
C144 C 0.24717 0.16748 0.26039 0.0
C145 C 0.21319 0.27901 0.22204 0.0
N146 N 0.29095 0.18944 0.35045 0.0
N147 N 0.23424 0.2868 0.26493 0.0
H148 H 0.80112 0.32709 0.28884 0.0
H149 H 0.67606 0.14671 0.08683 0.0
H150 H 0.77985 0.10978 0.29076 0.0
H151 H 0.70637 0.35591 0.05912 0.0
H152 H 0.71052 0.13739 0.16888 0.0
H153 H 0.76319 0.3435 0.21171 0.0
C154 C 0.78836 0.283 0.27339 0.0
C155 C 0.79377 0.2169 0.29613 0.0
C156 C 0.70968 0.18547 0.14502 0.0
C157 C 0.75049 0.23529 0.20828 0.0
C158 C 0.68991 0.1909 0.09806 0.0
C159 C 0.68839 0.2521 0.06568 0.0
C160 C 0.72819 0.24162 0.16017 0.0
C161 C 0.70689 0.30764 0.0827 0.0
C162 C 0.76683 0.29236 0.22928 0.0
C163 C 0.77664 0.1616 0.27439 0.0
N164 N 0.72611 0.30104 0.12875 0.0
N165 N 0.75586 0.17207 0.2318 0.0
H166 H 0.69873 0.17607 0.78913 0.0
H167 H 0.82316 0.35727 0.58624 0.0
H168 H 0.7198 0.39349 0.79077 0.0
H169 H 0.79354 0.14738 0.55952 0.0
H170 H 0.78878 0.36644 0.66837 0.0
H171 H 0.73663 0.15976 0.71195 0.0
C172 C 0.71144 0.2202 0.77362 0.0
C173 C 0.70598 0.2863 0.79628 0.0
C174 C 0.78975 0.31823 0.64472 0.0
C175 C 0.74921 0.26804 0.70836 0.0
C176 C 0.80947 0.3129 0.59771 0.0
C177 C 0.81116 0.25155 0.56559 0.0
C178 C 0.77146 0.26183 0.66018 0.0
C179 C 0.79288 0.19578 0.58289 0.0
C180 C 0.73295 0.2109 0.72948 0.0
C181 C 0.72305 0.34166 0.77446 0.0
N182 N 0.7737 0.20228 0.62899 0.0
N183 N 0.74379 0.33125 0.73184 0.0
H184 H 0.79311 0.85994 0.06568 0.0
H185 H 0.72206 0.59326 0.29287 0.0
H186 H 0.82193 0.648 0.08244 0.0
H187 H 0.70049 0.81049 0.293 0.0
H188 H 0.7589 0.6133 0.21583 0.0
H189 H 0.75915 0.84388 0.14872 0.0
C190 C 0.79238 0.81011 0.08688 0.0
C191 C 0.81033 0.75515 0.06689 0.0
C192 C 0.74626 0.65674 0.23283 0.0
C193 C 0.77148 0.73643 0.16179 0.0
C194 C 0.72515 0.64532 0.27686 0.0
C195 C 0.70806 0.70026 0.29935 0.0
C196 C 0.75024 0.72356 0.21062 0.0
C197 C 0.71317 0.76662 0.27696 0.0
C198 C 0.77302 0.80103 0.13434 0.0
C199 C 0.8085 0.69181 0.09619 0.0
N200 N 0.73368 0.77637 0.23355 0.0
N201 N 0.78934 0.68416 0.14191 0.0
H202 H 0.70725 0.64235 0.55994 0.0
H203 H 0.79271 0.68727 0.81079 0.0
H204 H 0.67771 0.85242 0.58583 0.0
H205 H 0.78216 0.9051 0.77763 0.0
H206 H 0.75603 0.66296 0.7344 0.0
H207 H 0.74146 0.65388 0.64214 0.0
C208 C 0.70768 0.69073 0.58342 0.0
C209 C 0.68947 0.74643 0.56596 0.0
C210 C 0.76201 0.71607 0.74295 0.0
C211 C 0.72823 0.75968 0.66173 0.0
C212 C 0.78278 0.73003 0.7872 0.0
C213 C 0.7908 0.79831 0.8003 0.0
C214 C 0.74933 0.77084 0.71106 0.0
C215 C 0.77685 0.85162 0.76879 0.0
C216 C 0.72709 0.69711 0.63099 0.0
C217 C 0.69126 0.80804 0.59778 0.0
N218 N 0.75688 0.83671 0.72557 0.0
N219 N 0.7104 0.81307 0.64392 0.0
H220 H 0.32287 0.86163 0.9128 0.0
H221 H 0.20359 0.68607 0.69561 0.0
H222 H 0.29584 0.64799 0.92405 0.0
H223 H 0.22278 0.90438 0.69983 0.0
H224 H 0.241 0.66852 0.77282 0.0
H225 H 0.28989 0.87554 0.82847 0.0
C226 C 0.31009 0.81752 0.89744 0.0
C227 C 0.31202 0.75362 0.92582 0.0
C228 C 0.2371 0.7202 0.75663 0.0
C229 C 0.27414 0.76926 0.82908 0.0
C230 C 0.21581 0.73025 0.71243 0.0
C231 C 0.20989 0.79687 0.6914 0.0
C232 C 0.25266 0.77714 0.77985 0.0
C233 C 0.22644 0.85215 0.71488 0.0
C234 C 0.29122 0.82555 0.84926 0.0
C235 C 0.29496 0.6983 0.90374 0.0
N236 N 0.24696 0.84106 0.7579 0.0
N237 N 0.27668 0.70744 0.85678 0.0
H238 H 0.27506 0.59125 0.19627 0.0
H239 H 0.20236 0.85388 0.42485 0.0
H240 H 0.29498 0.80925 0.19809 0.0
H241 H 0.17682 0.63949 0.41145 0.0
H242 H 0.23537 0.83967 0.34038 0.0
H243 H 0.23784 0.60906 0.27318 0.0
C244 C 0.27149 0.643 0.21261 0.0
C245 C 0.28831 0.69881 0.19085 0.0
C246 C 0.22243 0.79584 0.35576 0.0
C247 C 0.24575 0.71951 0.27941 0.0
C248 C 0.2036 0.80386 0.40407 0.0
C249 C 0.18689 0.74768 0.42551 0.0
C250 C 0.22471 0.73107 0.32881 0.0
C251 C 0.18933 0.68419 0.39661 0.0
C252 C 0.2502 0.65313 0.25658 0.0
C253 C 0.28258 0.76471 0.2136 0.0
N254 N 0.20799 0.67756 0.34998 0.0
N255 N 0.26192 0.77316 0.25693 0.0
H256 H 0.08732 0.24229 0.25411 0.0
H257 H 0.91415 0.24469 0.24446 0.0
H258 H 0.04646 0.34625 0.10811 0.0
H259 H 0.95522 0.34217 0.39332 0.0
H260 H 0.96259 0.25703 0.19183 0.0
H261 H 0.03906 0.25415 0.30744 0.0
C262 C 0.06835 0.26844 0.23377 0.0
C263 C 0.0708 0.29403 0.17709 0.0
C264 C 0.96067 0.27646 0.23577 0.0
C265 C 0.01586 0.30504 0.23631 0.0
C266 C 0.93323 0.26947 0.26561 0.0
C267 C 0.93078 0.2932 0.32284 0.0
C268 C 0.9859 0.30475 0.26435 0.0
C269 C 0.95619 0.32422 0.34886 0.0
C270 C 0.041 0.27514 0.26401 0.0
C271 C 0.04552 0.32679 0.15213 0.0
N272 N 0.98299 0.32787 0.31979 0.0
N273 N 0.01879 0.33012 0.18148 0.0
H274 H 0.4123 0.25584 0.7538 0.0
H275 H 0.58563 0.25871 0.74422 0.0
H276 H 0.45398 0.15737 0.60604 0.0
H277 H 0.54473 0.15971 0.89253 0.0
H278 H 0.53735 0.24536 0.69116 0.0
H279 H 0.46057 0.24416 0.80715 0.0
C280 C 0.43146 0.23088 0.73307 0.0
C281 C 0.42924 0.20683 0.67589 0.0
C282 C 0.53928 0.22581 0.73507 0.0
C283 C 0.48419 0.19607 0.73518 0.0
C284 C 0.56663 0.23341 0.76516 0.0
C285 C 0.56908 0.20959 0.82238 0.0
C286 C 0.51413 0.1968 0.76338 0.0
C287 C 0.54377 0.17782 0.84809 0.0
C288 C 0.45881 0.22429 0.76332 0.0
C289 C 0.45476 0.17561 0.65044 0.0
N290 N 0.51705 0.17357 0.8188 0.0
N291 N 0.48148 0.1724 0.67986 0.0
H292 H 0.06399 0.62527 0.66352 0.0
H293 H 0.92932 0.8491 0.7914 0.0
H294 H 0.07176 0.84138 0.70661 0.0
H295 H 0.93644 0.63319 0.83567 0.0
H296 H 0.97815 0.84203 0.74251 0.0
H297 H 0.01479 0.62209 0.71418 0.0
C298 C 0.05564 0.67165 0.68428 0.0
C299 C 0.07196 0.73379 0.68052 0.0
C300 C 0.96897 0.79608 0.7627 0.0
C301 C 0.01572 0.73072 0.73663 0.0
C302 C 0.94091 0.79983 0.79018 0.0
C303 C 0.92882 0.74171 0.81809 0.0
C304 C 0.98503 0.73364 0.76238 0.0
C305 C 0.94503 0.67931 0.81492 0.0
C306 C 0.02758 0.66977 0.71289 0.0
C307 C 0.06003 0.79234 0.70812 0.0
N308 N 0.97245 0.67685 0.78757 0.0
N309 N 0.03249 0.78954 0.73425 0.0
H310 H 0.43303 0.87381 0.16701 0.0
H311 H 0.57001 0.65402 0.29097 0.0
H312 H 0.42755 0.65623 0.20592 0.0
H313 H 0.56124 0.86907 0.33709 0.0
H314 H 0.52092 0.65941 0.24299 0.0
H315 H 0.48217 0.87834 0.21777 0.0
C316 C 0.44188 0.82734 0.18689 0.0
C317 C 0.42622 0.76443 0.1819 0.0
C318 C 0.52978 0.70554 0.2634 0.0
C319 C 0.48241 0.76912 0.23822 0.0
C320 C 0.55799 0.70278 0.29038 0.0
C321 C 0.56974 0.76113 0.31851 0.0
C322 C 0.51318 0.76723 0.26379 0.0
C323 C 0.55296 0.8228 0.3161 0.0
C324 C 0.46989 0.83001 0.21559 0.0
C325 C 0.43876 0.70584 0.20843 0.0
N326 N 0.52539 0.82431 0.28921 0.0
N327 N 0.46626 0.70946 0.23469 0.0
H328 H 0.08412 0.98198 0.04808 0.0
H329 H 0.91033 0.0392 0.95661 0.0
H330 H 0.04748 0.17905 0.99581 0.0
H331 H 0.94721 0.84341 0.01158 0.0
H332 H 0.95999 0.09217 0.97286 0.0
H333 H 0.0342 0.93015 0.03323 0.0
C334 C 0.06569 0.01424 0.03275 0.0
C335 C 0.07005 0.08505 0.0232 0.0
C336 C 0.95715 0.03772 0.98176 0.0
C337 C 0.0126 0.02612 0.00706 0.0
C338 C 0.92871 0.00752 0.97293 0.0
C339 C 0.92455 0.93665 0.98261 0.0
C340 C 0.98165 0.99677 0.00025 0.0
C341 C 0.9493 0.8982 0.0035 0.0
C342 C 0.0371 0.98466 0.02468 0.0
C343 C 0.04524 0.12423 0.00357 0.0
N344 N 0.9768 0.92865 0.01123 0.0
N345 N 0.01755 0.09432 0.99644 0.0
H346 H 0.58895 0.46563 0.46074 0.0
H347 H 0.41494 0.52143 0.55084 0.0
H348 H 0.55141 0.66254 0.51099 0.0
H349 H 0.45198 0.32557 0.49651 0.0
H350 H 0.46475 0.57408 0.53639 0.0
H351 H 0.53941 0.41254 0.47739 0.0
C352 C 0.57043 0.49758 0.47611 0.0
C353 C 0.57438 0.56877 0.48431 0.0
C354 C 0.46195 0.51967 0.52729 0.0
C355 C 0.51739 0.50841 0.50245 0.0
C356 C 0.43343 0.48963 0.53514 0.0
C357 C 0.42922 0.41891 0.52487 0.0
C358 C 0.48652 0.47872 0.50922 0.0
C359 C 0.4541 0.3803 0.50482 0.0
C360 C 0.54206 0.46728 0.48517 0.0
C361 C 0.54948 0.6075 0.50409 0.0
N362 N 0.4817 0.41063 0.49796 0.0
N363 N 0.52202 0.57691 0.5121 0.0
H364 H 0.41073 0.4697 0.03382 0.0
H365 H 0.58579 0.52414 0.95086 0.0
H366 H 0.44961 0.66779 0.99126 0.0
H367 H 0.54755 0.32807 0.00141 0.0
H368 H 0.53623 0.57793 0.966 0.0
H369 H 0.46037 0.41644 0.01892 0.0
C370 C 0.42959 0.50193 0.02056 0.0
C371 C 0.42594 0.57342 0.01383 0.0
C372 C 0.53873 0.52323 0.97417 0.0
C373 C 0.48306 0.51277 0.99766 0.0
C374 C 0.56709 0.49252 0.96591 0.0
C375 C 0.57088 0.42139 0.97481 0.0
C376 C 0.51388 0.48255 0.99121 0.0
C377 C 0.54576 0.38307 0.99412 0.0
C378 C 0.45802 0.4715 0.0125 0.0
C379 C 0.4513 0.61249 0.99684 0.0
N380 N 0.51831 0.41404 0.00129 0.0
N381 N 0.4788 0.58171 0.98964 0.0
H382 H 0.05032 0.83116 0.48586 0.0
H383 H 0.95084 0.17612 0.5072 0.0
H384 H 0.08646 0.02817 0.53939 0.0
H385 H 0.91535 0.98094 0.44768 0.0
H386 H 0.00023 0.12175 0.5225 0.0
H387 H 0.00079 0.88514 0.47112 0.0
C388 C 0.04799 0.88598 0.49372 0.0
C389 C 0.07266 0.92514 0.51393 0.0
C390 C 0.98159 0.09069 0.50645 0.0
C391 C 0.01576 0.98705 0.49813 0.0
C392 C 0.95327 0.12159 0.49814 0.0
C393 C 0.92886 0.0831 0.47601 0.0
C394 C 0.9856 0.02075 0.4925 0.0
C395 C 0.93349 0.01269 0.46478 0.0
C396 C 0.0196 0.91667 0.48571 0.0
C397 C 0.06815 0.99591 0.52369 0.0
N398 N 0.96134 0.9839 0.47286 0.0
N399 N 0.04023 0.02446 0.51602 0.0
loop_
_geom_bond_atom_site_label_1
_geom_bond_atom_site_label_2
_geom_bond_distance
_geom_bond_site_symmetry_2
_ccdc_geom_bond_type
C0 O2 1.247 . S
C0 O4 1.258 . S
C1 O8 1.247 . S
C1 O9 1.258 . S
O2 C0 1.247 . S
O2 Zn3 2.028 . S
Zn3 O2 2.028 . S
Zn3 O7 2.035 . S
Zn3 O9 2.035 . S
Zn3 O10 2.028 . S
O4 C0 1.258 . S
O4 Zn5 2.035 . S
Zn5 O4 2.035 . S
Zn5 O6 2.028 . S
Zn5 O8 2.028 . S
Zn5 O11 2.035 . S
O6 Zn5 2.028 . S
O6 C12 1.247 . S
O7 Zn3 2.035 . S
O7 C12 1.258 . S
O8 C1 1.247 . S
O8 Zn5 2.028 . S
O9 C1 1.258 . S
O9 Zn3 2.035 . S
O10 Zn3 2.028 . S
O10 C13 1.247 . S
O11 Zn5 2.035 . S
O11 C13 1.258 . S
C12 O6 1.247 . S
C12 O7 1.258 . S
C13 O10 1.247 . S
C13 O11 1.258 . S
C14 O16 1.247 . S
C14 O18 1.258 . S
C15 O22 1.247 . S
C15 O23 1.258 . S
O16 C14 1.247 . S
O16 Zn17 2.028 . S
Zn17 O16 2.028 . S
Zn17 O21 2.035 . S
Zn17 O23 2.035 . S
Zn17 O24 2.028 . S
O18 C14 1.258 . S
O18 Zn19 2.035 . S
Zn19 O18 2.035 . S
Zn19 O20 2.028 . S
Zn19 O22 2.028 . S
Zn19 O25 2.035 . S
O20 Zn19 2.028 . S
O20 C26 1.247 . S
O21 Zn17 2.035 . S
O21 C26 1.258 . S
O22 C15 1.247 . S
O22 Zn19 2.028 . S
O23 C15 1.258 . S
O23 Zn17 2.035 . S
O24 Zn17 2.028 . S
O24 C27 1.247 . S
O25 Zn19 2.035 . S
O25 C27 1.258 . S
C26 O20 1.247 . S
C26 O21 1.258 . S
C27 O24 1.247 . S
C27 O25 1.258 . S
C28 O30 1.247 . S
C28 O32 1.258 . S
C29 O36 1.247 . S
C29 O37 1.258 . S
O30 C28 1.247 . S
O30 Zn31 2.028 . S
Zn31 O30 2.028 . S
Zn31 O35 2.035 . S
Zn31 O37 2.035 . S
Zn31 O38 2.028 . S
O32 C28 1.258 . S
O32 Zn33 2.035 . S
Zn33 O32 2.035 . S
Zn33 O34 2.028 . S
Zn33 O36 2.028 . S
Zn33 O39 2.035 . S
O34 Zn33 2.028 . S
O34 C40 1.247 . S
O35 Zn31 2.035 . S
O35 C40 1.258 . S
O36 C29 1.247 . S
O36 Zn33 2.028 . S
O37 C29 1.258 . S
O37 Zn31 2.035 . S
O38 Zn31 2.028 . S
O38 C41 1.247 . S
O39 Zn33 2.035 . S
O39 C41 1.258 . S
C40 O34 1.247 . S
C40 O35 1.258 . S
C41 O38 1.247 . S
C41 O39 1.258 . S
C42 O44 1.247 . S
C42 O46 1.258 . S
C43 O50 1.247 . S
C43 O51 1.258 . S
O44 C42 1.247 . S
O44 Zn45 2.028 . S
Zn45 O44 2.028 . S
Zn45 O49 2.035 . S
Zn45 O51 2.035 . S
Zn45 O52 2.028 . S
O46 C42 1.258 . S
O46 Zn47 2.035 . S
Zn47 O46 2.035 . S
Zn47 O48 2.028 . S
Zn47 O50 2.028 . S
Zn47 O53 2.035 . S
O48 Zn47 2.028 . S
O48 C54 1.247 . S
O49 Zn45 2.035 . S
O49 C54 1.258 . S
O50 C43 1.247 . S
O50 Zn47 2.028 . S
O51 C43 1.258 . S
O51 Zn45 2.035 . S
O52 Zn45 2.028 . S
O52 C55 1.247 . S
O53 Zn47 2.035 . S
O53 C55 1.258 . S
C54 O48 1.247 . S
C54 O49 1.258 . S
C55 O52 1.247 . S
C55 O53 1.258 . S
C56 O58 1.247 . S
C56 O60 1.258 . S
C57 O64 1.247 . S
C57 O65 1.258 . S
O58 C56 1.247 . S
O58 Zn59 2.028 . S
Zn59 O58 2.028 . S
Zn59 O63 2.035 . S
Zn59 O65 2.035 . S
Zn59 O66 2.028 . S
O60 C56 1.258 . S
O60 Zn61 2.035 . S
Zn61 O60 2.035 . S
Zn61 O62 2.028 . S
Zn61 O64 2.028 . S
Zn61 O67 2.035 . S
O62 Zn61 2.028 . S
O62 C68 1.247 . S
O63 Zn59 2.035 . S
O63 C68 1.258 . S
O64 C57 1.247 . S
O64 Zn61 2.028 . S
O65 C57 1.258 . S
O65 Zn59 2.035 . S
O66 Zn59 2.028 . S
O66 C69 1.247 . S
O67 Zn61 2.035 . S
O67 C69 1.258 . S
C68 O62 1.247 . S
C68 O63 1.258 . S
C69 O66 1.247 . S
C69 O67 1.258 . S
C70 O72 1.247 . S
C70 O74 1.258 . S
C71 O78 1.247 . S
C71 O79 1.258 . S
O72 C70 1.247 . S
O72 Zn73 2.028 . S
Zn73 O72 2.028 . S
Zn73 O77 2.035 . S
Zn73 O79 2.035 . S
Zn73 O80 2.028 . S
O74 C70 1.258 . S
O74 Zn75 2.035 . S
Zn75 O74 2.035 . S
Zn75 O76 2.028 . S
Zn75 O78 2.028 . S
Zn75 O81 2.035 . S
O76 Zn75 2.028 . S
O76 C82 1.247 . S
O77 Zn73 2.035 . S
O77 C82 1.258 . S
O78 C71 1.247 . S
O78 Zn75 2.028 . S
O79 C71 1.258 . S
O79 Zn73 2.035 . S
O80 Zn73 2.028 . S
O80 C83 1.247 . S
O81 Zn75 2.035 . S
O81 C83 1.258 . S
C82 O76 1.247 . S
C82 O77 1.258 . S
C83 O80 1.247 . S
C83 O81 1.258 . S
C84 O86 1.247 . S
C84 O88 1.258 . S
C85 O92 1.247 . S
C85 O93 1.258 . S
O86 C84 1.247 . S
O86 Zn87 2.028 . S
Zn87 O86 2.028 . S
Zn87 O91 2.035 . S
Zn87 O93 2.035 . S
Zn87 O94 2.028 . S
O88 C84 1.258 . S
O88 Zn89 2.035 . S
Zn89 O88 2.035 . S
Zn89 O90 2.028 . S
Zn89 O92 2.028 . S
Zn89 O95 2.035 . S
O90 Zn89 2.028 . S
O90 C96 1.247 . S
O91 Zn87 2.035 . S
O91 C96 1.258 . S
O92 C85 1.247 . S
O92 Zn89 2.028 . S
O93 C85 1.258 . S
O93 Zn87 2.035 . S
O94 Zn87 2.028 . S
O94 C97 1.247 . S
O95 Zn89 2.035 . S
O95 C97 1.258 . S
C96 O90 1.247 . S
C96 O91 1.258 . S
C97 O94 1.247 . S
C97 O95 1.258 . S
C98 O100 1.247 . S
C98 O102 1.258 . S
C99 O106 1.247 . S
C99 O107 1.258 . S
O100 C98 1.247 . S
O100 Zn101 2.028 . S
Zn101 O100 2.028 . S
Zn101 O105 2.035 . S
Zn101 O107 2.035 . S
Zn101 O108 2.028 . S
O102 C98 1.258 . S
O102 Zn103 2.035 . S
Zn103 O102 2.035 . S
Zn103 O104 2.028 . S
Zn103 O106 2.028 . S
Zn103 O109 2.035 . S
O104 Zn103 2.028 . S
O104 C110 1.247 . S
O105 Zn101 2.035 . S
O105 C110 1.258 . S
O106 C99 1.247 . S
O106 Zn103 2.028 . S
O107 C99 1.258 . S
O107 Zn101 2.035 . S
O108 Zn101 2.028 . S
O108 C111 1.247 . S
O109 Zn103 2.035 . S
O109 C111 1.258 . S
C110 O104 1.247 . S
C110 O105 1.258 . S
C111 O108 1.247 . S
C111 O109 1.258 . S
H112 C118 0.930 . S
H113 C122 0.930 . S
H114 C127 0.929 . S
H115 C125 0.929 . S
H116 C120 0.929 . S
H117 C126 0.929 . S
C118 H112 0.930 . S
C118 C119 1.367 . S
C118 C126 1.378 . S
C119 C118 1.367 . S
C119 C127 1.433 . S
C120 H116 0.929 . S
C120 C122 1.378 . S
C120 C124 1.350 . S
C121 C124 1.463 . S
C121 C126 1.350 . S
C121 N129 1.427 . S
C122 H113 0.930 . S
C122 C120 1.378 . S
C122 C123 1.367 . S
C123 C122 1.367 . S
C123 C125 1.433 . S
C124 C120 1.350 . S
C124 C121 1.463 . S
C124 N128 1.427 . S
C125 H115 0.929 . S
C125 C123 1.433 . S
C125 N128 1.384 . S
C126 H117 0.929 . S
C126 C118 1.378 . S
C126 C121 1.350 . S
C127 H114 0.929 . S
C127 C119 1.433 . S
C127 N129 1.384 . S
N128 C124 1.427 . S
N128 C125 1.384 . S
N129 C121 1.427 . S
N129 C127 1.384 . S
H130 C136 0.930 . S
H131 C140 0.930 . S
H132 C145 0.929 . S
H133 C143 0.929 . S
H134 C138 0.929 . S
H135 C144 0.929 . S
C136 H130 0.930 . S
C136 C137 1.367 . S
C136 C144 1.378 . S
C137 C136 1.367 . S
C137 C145 1.433 . S
C138 H134 0.929 . S
C138 C140 1.378 . S
C138 C142 1.350 . S
C139 C142 1.463 . S
C139 C144 1.350 . S
C139 N147 1.427 . S
C140 H131 0.930 . S
C140 C138 1.378 . S
C140 C141 1.367 . S
C141 C140 1.367 . S
C141 C143 1.433 . S
C142 C138 1.350 . S
C142 C139 1.463 . S
C142 N146 1.427 . S
C143 H133 0.929 . S
C143 C141 1.433 . S
C143 N146 1.384 . S
C144 H135 0.929 . S
C144 C136 1.378 . S
C144 C139 1.350 . S
C145 H132 0.929 . S
C145 C137 1.433 . S
C145 N147 1.384 . S
N146 C142 1.427 . S
N146 C143 1.384 . S
N147 C139 1.427 . S
N147 C145 1.384 . S
H148 C154 0.930 . S
H149 C158 0.930 . S
H150 C163 0.929 . S
H151 C161 0.929 1_556 S
H152 C156 0.929 . S
H153 C162 0.929 . S
C154 H148 0.930 . S
C154 C155 1.367 . S
C154 C162 1.378 . S
C155 C154 1.367 . S
C155 C163 1.433 . S
C156 H152 0.929 . S
C156 C158 1.378 . S
C156 C160 1.350 . S
C157 C160 1.463 . S
C157 C162 1.350 . S
C157 N165 1.427 . S
C158 H149 0.930 . S
C158 C156 1.378 . S
C158 C159 1.367 . S
C159 C158 1.367 . S
C159 C161 1.433 . S
C160 C156 1.350 . S
C160 C157 1.463 . S
C160 N164 1.427 . S
C161 H151 0.929 1_554 S
C161 C159 1.433 . S
C161 N164 1.384 . S
C162 H153 0.929 . S
C162 C154 1.378 . S
C162 C157 1.350 . S
C163 H150 0.929 . S
C163 C155 1.433 . S
C163 N165 1.384 . S
N164 C160 1.427 . S
N164 C161 1.384 . S
N165 C157 1.427 . S
N165 C163 1.384 . S
H166 C172 0.930 . S
H167 C176 0.930 . S
H168 C181 0.929 . S
H169 C179 0.929 . S
H170 C174 0.929 . S
H171 C180 0.929 . S
C172 H166 0.930 . S
C172 C173 1.367 . S
C172 C180 1.378 . S
C173 C172 1.367 . S
C173 C181 1.433 . S
C174 H170 0.929 . S
C174 C176 1.378 . S
C174 C178 1.350 . S
C175 C178 1.463 . S
C175 C180 1.350 . S
C175 N183 1.427 . S
C176 H167 0.930 . S
C176 C174 1.378 . S
C176 C177 1.367 . S
C177 C176 1.367 . S
C177 C179 1.433 . S
C178 C174 1.350 . S
C178 C175 1.463 . S
C178 N182 1.427 . S
C179 H169 0.929 . S
C179 C177 1.433 . S
C179 N182 1.384 . S
C180 H171 0.929 . S
C180 C172 1.378 . S
C180 C175 1.350 . S
C181 H168 0.929 . S
C181 C173 1.433 . S
C181 N183 1.384 . S
N182 C178 1.427 . S
N182 C179 1.384 . S
N183 C175 1.427 . S
N183 C181 1.384 . S
H184 C190 0.930 . S
H185 C194 0.930 . S
H186 C199 0.929 . S
H187 C197 0.929 . S
H188 C192 0.929 . S
H189 C198 0.929 . S
C190 H184 0.930 . S
C190 C191 1.367 . S
C190 C198 1.378 . S
C191 C190 1.367 . S
C191 C199 1.433 . S
C192 H188 0.929 . S
C192 C194 1.378 . S
C192 C196 1.350 . S
C193 C196 1.463 . S
C193 C198 1.350 . S
C193 N201 1.427 . S
C194 H185 0.930 . S
C194 C192 1.378 . S
C194 C195 1.367 . S
C195 C194 1.367 . S
C195 C197 1.433 . S
C196 C192 1.350 . S
C196 C193 1.463 . S
C196 N200 1.427 . S
C197 H187 0.929 . S
C197 C195 1.433 . S
C197 N200 1.384 . S
C198 H189 0.929 . S
C198 C190 1.378 . S
C198 C193 1.350 . S
C199 H186 0.929 . S
C199 C191 1.433 . S
C199 N201 1.384 . S
N200 C196 1.427 . S
N200 C197 1.384 . S
N201 C193 1.427 . S
N201 C199 1.384 . S
H202 C208 0.930 . S
H203 C212 0.930 . S
H204 C217 0.929 . S
H205 C215 0.929 . S
H206 C210 0.929 . S
H207 C216 0.929 . S
C208 H202 0.930 . S
C208 C209 1.367 . S
C208 C216 1.378 . S
C209 C208 1.367 . S
C209 C217 1.433 . S
C210 H206 0.929 . S
C210 C212 1.378 . S
C210 C214 1.350 . S
C211 C214 1.463 . S
C211 C216 1.350 . S
C211 N219 1.427 . S
C212 H203 0.930 . S
C212 C210 1.378 . S
C212 C213 1.367 . S
C213 C212 1.367 . S
C213 C215 1.433 . S
C214 C210 1.350 . S
C214 C211 1.463 . S
C214 N218 1.427 . S
C215 H205 0.929 . S
C215 C213 1.433 . S
C215 N218 1.384 . S
C216 H207 0.929 . S
C216 C208 1.378 . S
C216 C211 1.350 . S
C217 H204 0.929 . S
C217 C209 1.433 . S
C217 N219 1.384 . S
N218 C214 1.427 . S
N218 C215 1.384 . S
N219 C211 1.427 . S
N219 C217 1.384 . S
H220 C226 0.930 . S
H221 C230 0.930 . S
H222 C235 0.929 . S
H223 C233 0.929 . S
H224 C228 0.929 . S
H225 C234 0.929 . S
C226 H220 0.930 . S
C226 C227 1.367 . S
C226 C234 1.378 . S
C227 C226 1.367 . S
C227 C235 1.433 . S
C228 H224 0.929 . S
C228 C230 1.378 . S
C228 C232 1.350 . S
C229 C232 1.463 . S
C229 C234 1.350 . S
C229 N237 1.427 . S
C230 H221 0.930 . S
C230 C228 1.378 . S
C230 C231 1.367 . S
C231 C230 1.367 . S
C231 C233 1.433 . S
C232 C228 1.350 . S
C232 C229 1.463 . S
C232 N236 1.427 . S
C233 H223 0.929 . S
C233 C231 1.433 . S
C233 N236 1.384 . S
C234 H225 0.929 . S
C234 C226 1.378 . S
C234 C229 1.350 . S
C235 H222 0.929 . S
C235 C227 1.433 . S
C235 N237 1.384 . S
N236 C232 1.427 . S
N236 C233 1.384 . S
N237 C229 1.427 . S
N237 C235 1.384 . S
H238 C244 0.930 . S
H239 C248 0.930 . S
H240 C253 0.929 . S
H241 C251 0.929 . S
H242 C246 0.929 . S
H243 C252 0.929 . S
C244 H238 0.930 . S
C244 C245 1.367 . S
C244 C252 1.378 . S
C245 C244 1.367 . S
C245 C253 1.433 . S
C246 H242 0.929 . S
C246 C248 1.378 . S
C246 C250 1.350 . S
C247 C250 1.463 . S
C247 C252 1.350 . S
C247 N255 1.427 . S
C248 H239 0.930 . S
C248 C246 1.378 . S
C248 C249 1.367 . S
C249 C248 1.367 . S
C249 C251 1.433 . S
C250 C246 1.350 . S
C250 C247 1.463 . S
C250 N254 1.427 . S
C251 H241 0.929 . S
C251 C249 1.433 . S
C251 N254 1.384 . S
C252 H243 0.929 . S
C252 C244 1.378 . S
C252 C247 1.350 . S
C253 H240 0.929 . S
C253 C245 1.433 . S
C253 N255 1.384 . S
N254 C250 1.427 . S
N254 C251 1.384 . S
N255 C247 1.427 . S
N255 C253 1.384 . S
H256 C262 0.930 . S
H257 C266 0.930 . S
H258 C271 0.929 . S
H259 C269 0.929 . S
H260 C264 0.929 . S
H261 C270 0.929 . S
C262 H256 0.930 . S
C262 C263 1.367 . S
C262 C270 1.378 . S
C263 C262 1.367 . S
C263 C271 1.433 . S
C264 H260 0.929 . S
C264 C266 1.378 . S
C264 C268 1.350 . S
C265 C268 1.463 1_455 S
C265 C270 1.350 . S
C265 N273 1.427 . S
C266 H257 0.930 . S
C266 C264 1.378 . S
C266 C267 1.367 . S
C267 C266 1.367 . S
C267 C269 1.433 . S
C268 C264 1.350 . S
C268 C265 1.463 1_655 S
C268 N272 1.427 . S
C269 H259 0.929 . S
C269 C267 1.433 . S
C269 N272 1.384 . S
C270 H261 0.929 . S
C270 C262 1.378 . S
C270 C265 1.350 . S
C271 H258 0.929 . S
C271 C263 1.433 . S
C271 N273 1.384 . S
N272 C268 1.427 . S
N272 C269 1.384 . S
N273 C265 1.427 . S
N273 C271 1.384 . S
H274 C280 0.930 . S
H275 C284 0.930 . S
H276 C289 0.929 . S
H277 C287 0.929 . S
H278 C282 0.929 . S
H279 C288 0.929 . S
C280 H274 0.930 . S
C280 C281 1.367 . S
C280 C288 1.378 . S
C281 C280 1.367 . S
C281 C289 1.433 . S
C282 H278 0.929 . S
C282 C284 1.378 . S
C282 C286 1.350 . S
C283 C286 1.463 . S
C283 C288 1.350 . S
C283 N291 1.427 . S
C284 H275 0.930 . S
C284 C282 1.378 . S
C284 C285 1.367 . S
C285 C284 1.367 . S
C285 C287 1.433 . S
C286 C282 1.350 . S
C286 C283 1.463 . S
C286 N290 1.427 . S
C287 H277 0.929 . S
C287 C285 1.433 . S
C287 N290 1.384 . S
C288 H279 0.929 . S
C288 C280 1.378 . S
C288 C283 1.350 . S
C289 H276 0.929 . S
C289 C281 1.433 . S
C289 N291 1.384 . S
N290 C286 1.427 . S
N290 C287 1.384 . S
N291 C283 1.427 . S
N291 C289 1.384 . S
H292 C298 0.930 . S
H293 C302 0.930 . S
H294 C307 0.929 . S
H295 C305 0.929 . S
H296 C300 0.929 . S
H297 C306 0.929 . S
C298 H292 0.930 . S
C298 C299 1.367 . S
C298 C306 1.378 . S
C299 C298 1.367 . S
C299 C307 1.433 . S
C300 H296 0.929 . S
C300 C302 1.378 . S
C300 C304 1.350 . S
C301 C304 1.463 1_455 S
C301 C306 1.350 . S
C301 N309 1.427 . S
C302 H293 0.930 . S
C302 C300 1.378 . S
C302 C303 1.367 . S
C303 C302 1.367 . S
C303 C305 1.433 . S
C304 C300 1.350 . S
C304 C301 1.463 1_655 S
C304 N308 1.427 . S
C305 H295 0.929 . S
C305 C303 1.433 . S
C305 N308 1.384 . S
C306 H297 0.929 . S
C306 C298 1.378 . S
C306 C301 1.350 . S
C307 H294 0.929 . S
C307 C299 1.433 . S
C307 N309 1.384 . S
N308 C304 1.427 . S
N308 C305 1.384 . S
N309 C301 1.427 . S
N309 C307 1.384 . S
H310 C316 0.930 . S
H311 C320 0.930 . S
H312 C325 0.929 . S
H313 C323 0.929 . S
H314 C318 0.929 . S
H315 C324 0.929 . S
C316 H310 0.930 . S
C316 C317 1.367 . S
C316 C324 1.378 . S
C317 C316 1.367 . S
C317 C325 1.433 . S
C318 H314 0.929 . S
C318 C320 1.378 . S
C318 C322 1.350 . S
C319 C322 1.463 . S
C319 C324 1.350 . S
C319 N327 1.427 . S
C320 H311 0.930 . S
C320 C318 1.378 . S
C320 C321 1.367 . S
C321 C320 1.367 . S
C321 C323 1.433 . S
C322 C318 1.350 . S
C322 C319 1.463 . S
C322 N326 1.427 . S
C323 H313 0.929 . S
C323 C321 1.433 . S
C323 N326 1.384 . S
C324 H315 0.929 . S
C324 C316 1.378 . S
C324 C319 1.350 . S
C325 H312 0.929 . S
C325 C317 1.433 . S
C325 N327 1.384 . S
N326 C322 1.427 . S
N326 C323 1.384 . S
N327 C319 1.427 . S
N327 C325 1.384 . S
H328 C334 0.930 . S
H329 C338 0.930 . S
H330 C343 0.929 . S
H331 C341 0.929 . S
H332 C336 0.929 . S
H333 C342 0.929 . S
C334 H328 0.930 . S
C334 C335 1.367 . S
C334 C342 1.378 . S
C335 C334 1.367 . S
C335 C343 1.433 1_554 S
C336 H332 0.929 . S
C336 C338 1.378 . S
C336 C340 1.350 . S
C337 C340 1.463 1_444 S
C337 C342 1.350 . S
C337 N345 1.427 1_554 S
C338 H329 0.930 . S
C338 C336 1.378 . S
C338 C339 1.367 . S
C339 C338 1.367 . S
C339 C341 1.433 1_556 S
C340 C336 1.350 . S
C340 C337 1.463 1_666 S
C340 N344 1.427 1_556 S
C341 H331 0.929 . S
C341 C339 1.433 1_554 S
C341 N344 1.384 . S
C342 H333 0.929 . S
C342 C334 1.378 . S
C342 C337 1.350 . S
C343 H330 0.929 . S
C343 C335 1.433 1_556 S
C343 N345 1.384 . S
N344 C340 1.427 1_554 S
N344 C341 1.384 . S
N345 C337 1.427 1_556 S
N345 C343 1.384 . S
H346 C352 0.930 . S
H347 C356 0.930 . S
H348 C361 0.929 . S
H349 C359 0.929 . S
H350 C354 0.929 . S
H351 C360 0.929 . S
C352 H346 0.930 . S
C352 C353 1.367 . S
C352 C360 1.378 . S
C353 C352 1.367 . S
C353 C361 1.433 . S
C354 H350 0.929 . S
C354 C356 1.378 . S
C354 C358 1.350 . S
C355 C358 1.463 . S
C355 C360 1.350 . S
C355 N363 1.427 . S
C356 H347 0.930 . S
C356 C354 1.378 . S
C356 C357 1.367 . S
C357 C356 1.367 . S
C357 C359 1.433 . S
C358 C354 1.350 . S
C358 C355 1.463 . S
C358 N362 1.427 . S
C359 H349 0.929 . S
C359 C357 1.433 . S
C359 N362 1.384 . S
C360 H351 0.929 . S
C360 C352 1.378 . S
C360 C355 1.350 . S
C361 H348 0.929 . S
C361 C353 1.433 . S
C361 N363 1.384 . S
N362 C358 1.427 . S
N362 C359 1.384 . S
N363 C355 1.427 . S
N363 C361 1.384 . S
H364 C370 0.930 . S
H365 C374 0.930 . S
H366 C379 0.929 . S
H367 C377 0.929 . S
H368 C372 0.929 . S
H369 C378 0.929 . S
C370 H364 0.930 . S
C370 C371 1.367 . S
C370 C378 1.378 . S
C371 C370 1.367 . S
C371 C379 1.433 1_554 S
C372 H368 0.929 . S
C372 C374 1.378 . S
C372 C376 1.350 . S
C373 C376 1.463 1_554 S
C373 C378 1.350 . S
C373 N381 1.427 1_554 S
C374 H365 0.930 . S
C374 C372 1.378 . S
C374 C375 1.367 . S
C375 C374 1.367 . S
C375 C377 1.433 1_556 S
C376 C372 1.350 . S
C376 C373 1.463 1_556 S
C376 N380 1.427 1_556 S
C377 H367 0.929 . S
C377 C375 1.433 1_554 S
C377 N380 1.384 . S
C378 H369 0.929 . S
C378 C370 1.378 . S
C378 C373 1.350 . S
C379 H366 0.929 . S
C379 C371 1.433 1_556 S
C379 N381 1.384 . S
N380 C376 1.427 1_554 S
N380 C377 1.384 . S
N381 C373 1.427 1_556 S
N381 C379 1.384 . S
H382 C388 0.930 . S
H383 C392 0.930 . S
H384 C397 0.929 . S
H385 C395 0.929 . S
H386 C390 0.929 1_455 S
H387 C396 0.929 1_655 S
C388 H382 0.930 . S
C388 C389 1.367 . S
C388 C396 1.378 . S
C389 C388 1.367 . S
C389 C397 1.433 . S
C390 H386 0.929 1_655 S
C390 C392 1.378 . S
C390 C394 1.350 . S
C391 C394 1.463 1_465 S
C391 C396 1.350 . S
C391 N399 1.427 . S
C392 H383 0.930 . S
C392 C390 1.378 . S
C392 C393 1.367 . S
C393 C392 1.367 . S
C393 C395 1.433 . S
C394 C390 1.350 . S
C394 C391 1.463 1_645 S
C394 N398 1.427 . S
C395 H385 0.929 . S
C395 C393 1.433 . S
C395 N398 1.384 . S
C396 H387 0.929 1_455 S
C396 C388 1.378 . S
C396 C391 1.350 . S
C397 H384 0.929 . S
C397 C389 1.433 . S
C397 N399 1.384 . S
N398 C394 1.427 . S
N398 C395 1.384 . S
N399 C391 1.427 . S
N399 C397 1.384 . S
C119 C14 1.983 . S
C123 C13 2.023 1_556 S
C137 C0 1.977 . S
C141 C27 2.024 . S
C155 C42 1.980 . S
C159 C41 2.022 1_554 S
C173 C28 1.985 . S
C177 C55 2.026 . S
C191 C68 2.021 1_554 S
C195 C71 1.975 . S
C209 C82 2.026 . S
C213 C57 1.983 . S
C227 C96 2.023 1_556 S
C231 C99 1.983 . S
C245 C85 1.975 . S
C249 C110 2.022 . S
C263 C12 0.648 . S
C267 C54 0.648 . S
C281 C26 0.648 . S
C285 C40 0.647 . S
C299 C111 0.638 . S
C303 C69 0.640 . S
C317 C97 0.637 . S
C321 C83 0.639 . S
C335 C1 1.827 . S
C339 C56 1.827 . S
C353 C70 1.825 . S
C357 C15 1.825 . S
C371 C84 1.825 . S
C375 C29 1.825 . S
C389 C98 1.837 . S
C393 C43 1.837 . S
