# Generated by pormake.
# Topology sml, (6)-cn, num edge types: 1
# Building blocks:
#     Node 0, Type 0, BuildingBlock: OJICUG_clean_sbu_0, # of connection points: 6
#     Node 1, Type 0, BuildingBlock: OJICUG_clean_sbu_0, # of connection points: 6
#     Node 2, Type 0, BuildingBlock: OJICUG_clean_sbu_0, # of connection points: 6
#     Node 3, Type 0, BuildingBlock: OJICUG_clean_sbu_0, # of connection points: 6
#     Node 4, Type 0, BuildingBlock: OJICUG_clean_sbu_0, # of connection points: 6
#     Node 5, Type 0, BuildingBlock: OJICUG_clean_sbu_0, # of connection points: 6
#     Edge 6, Type (0, 0), BuildingBlock: UVAHIK_clean_linker_0, # of connection points: 2
#     Edge 7, Type (0, 0), BuildingBlock: UVAHIK_clean_linker_0, # of connection points: 2
#     Edge 8, Type (0, 0), BuildingBlock: UVAHIK_clean_linker_0, # of connection points: 2
#     Edge 9, Type (0, 0), BuildingBlock: UVAHIK_clean_linker_0, # of connection points: 2
#     Edge 10, Type (0, 0), BuildingBlock: UVAHIK_clean_linker_0, # of connection points: 2
#     Edge 11, Type (0, 0), BuildingBlock: UVAHIK_clean_linker_0, # of connection points: 2
#     Edge 12, Type (0, 0), BuildingBlock: UVAHIK_clean_linker_0, # of connection points: 2
#     Edge 13, Type (0, 0), BuildingBlock: UVAHIK_clean_linker_0, # of connection points: 2
#     Edge 14, Type (0, 0), BuildingBlock: UVAHIK_clean_linker_0, # of connection points: 2
#     Edge 15, Type (0, 0), BuildingBlock: UVAHIK_clean_linker_0, # of connection points: 2
#     Edge 16, Type (0, 0), BuildingBlock: UVAHIK_clean_linker_0, # of connection points: 2
#     Edge 17, Type (0, 0), BuildingBlock: UVAHIK_clean_linker_0, # of connection points: 2
#     Edge 18, Type (0, 0), BuildingBlock: UVAHIK_clean_linker_0, # of connection points: 2
#     Edge 19, Type (0, 0), BuildingBlock: UVAHIK_clean_linker_0, # of connection points: 2
#     Edge 20, Type (0, 0), BuildingBlock: UVAHIK_clean_linker_0, # of connection points: 2
#     Edge 21, Type (0, 0), BuildingBlock: UVAHIK_clean_linker_0, # of connection points: 2
#     Edge 22, Type (0, 0), BuildingBlock: UVAHIK_clean_linker_0, # of connection points: 2
#     Edge 23, Type (0, 0), BuildingBlock: UVAHIK_clean_linker_0, # of connection points: 2
# Relax obj value: 0.230
# Max RMSD: 0.261
# Mean RMSD: 0.261
data_MOF--net-sml--node1-OJICUG_clean_sbu_0--edge1-UVAHIK_clean_linker_0
_symmetry_space_group_name_H-M    P1
_symmetry_Int_Tables_number       1
_symmetry_cell_setting            triclinic
loop_
_symmetry_equiv_pos_as_xyz
'x, y, z'
_cell_length_a     53.231968
_cell_length_b     53.235033
_cell_length_c     19.852617
_cell_angle_alpha  89.992281
_cell_angle_beta   89.917905
_cell_angle_gamma 119.96737
loop_
_atom_site_label
_atom_site_type_symbol
_atom_site_fract_x
_atom_site_fract_y
_atom_site_fract_z
_atom_type_partial_charge
Sc0 Sc 0.19244 0.37562 0.02438 0.0
Sc1 Sc 0.25283 0.44302 0.06719 0.0
Sc2 Sc 0.19436 0.4404 0.97783 0.0
O3 O 0.21321 0.41973 0.02323 0.0
C4 C 0.17974 0.38883 0.87551 0.0
C5 C 0.25764 0.39173 -0.00293 0.0
C6 C 0.26093 0.48029 0.93601 0.0
C7 C 0.21897 0.39174 0.17248 0.0
C8 C 0.1402 0.38729 0.04961 0.0
C9 C 0.22275 0.4802 0.10586 0.0
O10 O 0.18184 0.37241 0.9189 0.0
O11 O 0.26895 0.41675 0.02347 0.0
O12 O 0.23417 0.47215 0.92893 0.0
O13 O 0.20094 0.37418 0.1299 0.0
O14 O 0.15261 0.41229 0.02271 0.0
O15 O 0.24251 0.47364 0.11367 0.0
O16 O 0.152 0.37172 0.05358 0.0
O17 O 0.23872 0.41727 0.15719 0.0
O18 O 0.20323 0.46887 0.06111 0.0
O19 O 0.23048 0.37465 -0.00533 0.0
O20 O 0.18375 0.41386 0.88951 0.0
O21 O 0.27051 0.47073 0.98185 0.0
Sc22 Sc 0.74073 0.18957 0.24609 0.0
Sc23 Sc 0.794 0.23549 0.36239 0.0
Sc24 Sc 0.79729 0.17676 0.29083 0.0
O25 O 0.77734 0.20067 0.29966 0.0
C26 C 0.7303 0.12786 0.28808 0.0
C27 C 0.72643 0.20831 0.38735 0.0
C28 C 0.8023 0.18907 0.44709 0.0
C29 C 0.77356 0.25831 0.23688 0.0
C30 C 0.77936 0.17831 0.14036 0.0
C31 C 0.8513 0.24118 0.29997 0.0
O32 O 0.7208 0.14495 0.27543 0.0
O33 O 0.75248 0.22299 0.40776 0.0
O34 O 0.79904 0.17255 0.3978 0.0
O35 O 0.75612 0.23348 0.21243 0.0
O36 O 0.79715 0.17849 0.1831 0.0
O37 O 0.83705 0.25248 0.32342 0.0
O38 O 0.75759 0.18093 0.15581 0.0
O39 O 0.78799 0.26193 0.29042 0.0
O40 O 0.84004 0.21419 0.28883 0.0
O41 O 0.71946 0.19592 0.33035 0.0
O42 O 0.75716 0.13618 0.29175 0.0
O43 O 0.80216 0.21279 0.44133 0.0
Sc44 Sc 0.61589 0.80673 0.62721 0.0
Sc45 Sc 0.5495 0.80061 0.67608 0.0
Sc46 Sc 0.55011 0.74344 0.58777 0.0
O47 O 0.57178 0.78354 0.63036 0.0
C48 C 0.59998 0.77912 0.48005 0.0
C49 C 0.59951 0.85567 0.6002 0.0
C50 C 0.50952 0.76967 0.54959 0.0
C51 C 0.60249 0.819 0.77642 0.0
C52 C 0.60426 0.74304 0.65546 0.0
C53 C 0.513 0.73403 0.72029 0.0
O54 O 0.61712 0.798 0.5218 0.0
O55 O 0.5749 0.84222 0.6287 0.0
O56 O 0.51752 0.75097 0.54166 0.0
O57 O 0.61926 0.81772 0.73263 0.0
O58 O 0.5788 0.73016 0.63109 0.0
O59 O 0.52013 0.76055 0.72699 0.0
O60 O 0.62 0.77042 0.65675 0.0
O61 O 0.57691 0.81352 0.7631 0.0
O62 O 0.52298 0.72495 0.67411 0.0
O63 O 0.61662 0.84561 0.59676 0.0
O64 O 0.57518 0.75827 0.49659 0.0
O65 O 0.52004 0.78934 0.59412 0.0
Sc66 Sc 0.79785 0.55595 0.93857 0.0
Sc67 Sc 0.74939 0.55988 0.05359 0.0
Sc68 Sc 0.80961 0.62401 -0.00702 0.0
O69 O 0.78559 0.57992 -0.00497 0.0
C70 C 0.85867 0.60646 -0.00847 0.0
C71 C 0.77725 0.5196 0.07485 0.0
C72 C 0.79256 0.61237 0.14774 0.0
C73 C 0.72907 0.51958 0.92359 0.0
C74 C 0.8111 0.60812 0.83907 0.0
C75 C 0.74494 0.61293 -0.00649 0.0
O76 O 0.84243 0.58118 0.96837 0.0
O77 O 0.76066 0.52906 0.09386 0.0
O78 O 0.80914 0.62781 0.10042 0.0
O79 O 0.75444 0.52673 0.90324 0.0
O80 O 0.81304 0.62545 0.88534 0.0
O81 O 0.73359 0.58762 0.01851 0.0
O82 O 0.80543 0.58229 0.85045 0.0
O83 O 0.72419 0.53011 0.97598 0.0
O84 O 0.77197 0.62859 0.98251 0.0
O85 O 0.79198 0.5276 0.02082 0.0
O86 O 0.84985 0.62426 0.00291 0.0
O87 O 0.77035 0.58761 0.13825 0.0
Sc88 Sc 0.1773 0.80159 0.34272 0.0
Sc89 Sc 0.18399 0.74091 0.38486 0.0
Sc90 Sc 0.2407 0.80012 0.29892 0.0
O91 O 0.20072 0.78087 0.34224 0.0
C92 C 0.20422 0.81468 0.19464 0.0
C93 C 0.12836 0.73651 0.31363 0.0
C94 C 0.21486 0.73388 0.25542 0.0
C95 C 0.1661 0.77441 0.49041 0.0
C96 C 0.2409 0.85382 0.37062 0.0
C97 C 0.25083 0.77068 0.42686 0.0
O98 O 0.1853 0.81231 0.2373 0.0
O99 O 0.14201 0.72503 0.33954 0.0
O100 O 0.23336 0.76073 0.24971 0.0
O101 O 0.16698 0.7928 0.44817 0.0
O102 O 0.25383 0.84155 0.34471 0.0
O103 O 0.22441 0.75095 0.43296 0.0
O104 O 0.21351 0.84199 0.37279 0.0
O105 O 0.17158 0.75448 0.4747 0.0
O106 O 0.25958 0.79071 0.38308 0.0
O107 O 0.13841 0.76369 0.31227 0.0
O108 O 0.2254 0.81106 0.20978 0.0
O109 O 0.19499 0.72382 0.29974 0.0
Sc110 Sc 0.43635 0.24482 0.60152 0.0
Sc111 Sc 0.43224 0.19297 0.71829 0.0
Sc112 Sc 0.3682 0.1891 0.6574 0.0
O113 O 0.41229 0.20895 0.65902 0.0
C114 C 0.38614 0.25579 0.65412 0.0
C115 C 0.47275 0.26116 0.73751 0.0
C116 C 0.3799 0.18442 0.8124 0.0
C117 C 0.47233 0.21192 0.58773 0.0
C118 C 0.38397 0.20565 0.50305 0.0
C119 C 0.37886 0.13525 0.66038 0.0
O120 O 0.4114 0.2646 0.63084 0.0
O121 O 0.46321 0.23522 0.7574 0.0
O122 O 0.36447 0.18543 0.76499 0.0
O123 O 0.4653 0.23013 0.56668 0.0
O124 O 0.36665 0.19049 0.54966 0.0
O125 O 0.40426 0.14926 0.68476 0.0
O126 O 0.40983 0.22576 0.51397 0.0
O127 O 0.46185 0.19689 0.64067 0.0
O128 O 0.36331 0.1467 0.64866 0.0
O129 O 0.46482 0.26762 0.6831 0.0
O130 O 0.36823 0.22927 0.66599 0.0
O131 O 0.40461 0.18681 0.80295 0.0
C132 C 0.34817 0.26874 0.67917 0.0
C133 C 0.3776 0.2774 0.6714 0.0
C134 C 0.34 0.28835 0.70196 0.0
C135 C 0.3652 0.35013 0.81162 0.0
H136 H 0.29545 0.34853 0.74892 0.0
C137 C 0.30637 0.40235 0.95357 0.0
C138 C 0.27642 0.38305 0.96105 0.0
C139 C 0.32308 0.39521 0.91181 0.0
C140 C 0.3151 0.34936 0.76667 0.0
H141 H 0.42158 0.31363 0.67901 0.0
H142 H 0.40713 0.34792 0.72006 0.0
H143 H 0.31745 0.32655 0.68047 0.0
H144 H 0.2409 0.3406 0.93286 0.0
H145 H 0.26997 0.32836 0.86089 0.0
H146 H 0.36194 0.37175 0.89949 0.0
C147 C 0.3905 0.32596 0.70812 0.0
C148 C 0.32766 0.33686 0.72754 0.0
C149 C 0.3987 0.30638 0.68445 0.0
C150 C 0.26383 0.35612 0.92804 0.0
C151 C 0.2804 0.34917 0.8862 0.0
C152 C 0.3526 0.3627 0.85085 0.0
C153 C 0.36109 0.31694 0.718 0.0
C154 C 0.35207 0.33602 0.75106 0.0
C155 C 0.31 0.36885 0.87657 0.0
C156 C 0.32673 0.36122 0.82994 0.0
H157 H 0.33142 0.24661 0.66914 0.0
H158 H 0.31716 0.2807 0.71 0.0
H159 H 0.38396 0.34963 0.83101 0.0
H160 H 0.31674 0.42328 0.97825 0.0
H161 H 0.34596 0.41062 0.90545 0.0
C162 C 0.0962 0.34754 0.10519 0.0
C163 C 0.11114 0.37598 0.07984 0.0
C164 C 0.06936 0.33697 0.13632 0.0
C165 C 0.00657 0.34738 0.14752 0.0
H166 H 0.98864 0.29674 0.30245 0.0
C167 C 0.89404 0.29035 0.27747 0.0
C168 C 0.88231 0.26023 0.28433 0.0
C169 C 0.92317 0.30809 0.26013 0.0
C170 C -0.00659 0.31092 0.25935 0.0
H171 H 0.10943 0.41562 0.06708 0.0
H172 H 0.06232 0.39701 0.12201 0.0
H173 H 0.03784 0.32178 0.25729 0.0
H174 H 0.89204 0.22522 0.28015 0.0
H175 H 0.94282 0.25622 0.25035 0.0
H176 H 0.96187 0.33599 0.14914 0.0
C177 C 0.07147 0.38293 0.1172 0.0
C178 C 0.02148 0.32516 0.23338 0.0
C179 C 0.09843 0.39356 0.08581 0.0
C180 C 0.90039 0.24831 0.27497 0.0
C181 C 0.92951 0.26607 0.25847 0.0
C182 C 0.97847 0.33324 0.17384 0.0
C183 C 0.0568 0.35458 0.14317 0.0
C184 C 0.02812 0.34282 0.17595 0.0
C185 C 0.94109 0.29605 0.25038 0.0
C186 C 0.97152 0.31425 0.22874 0.0
H187 H 0.10521 0.33331 0.10115 0.0
H188 H 0.05827 0.3148 0.1544 0.0
H189 H 0.01102 0.36073 0.10301 0.0
H190 H 0.88062 0.30015 0.28423 0.0
H191 H 0.93169 0.33119 0.2543 0.0
C192 C 0.71842 0.07654 0.30175 0.0
C193 C 0.70933 0.09716 0.30238 0.0
C194 C 0.69956 0.04809 0.32159 0.0
C195 C 0.63987 0.00796 0.43594 0.0
H196 H 0.64081 0.94197 0.35601 0.0
C197 C 0.58912 0.89473 0.56354 0.0
C198 C 0.60773 0.88306 0.56443 0.0
C199 C 0.59597 0.9192 0.52455 0.0
C200 C 0.64025 0.96019 0.3787 0.0
H201 H 0.67294 0.1039 0.32151 0.0
H202 H 0.63998 0.05397 0.35705 0.0
H203 H 0.66189 0.98779 0.29463 0.0
H204 H 0.6484 0.88839 0.52612 0.0
H205 H 0.66028 0.93099 0.45918 0.0
H206 H 0.6194 0.98068 0.52137 0.0
C207 C 0.66174 0.05998 0.34111 0.0
C208 C 0.65222 0.98632 0.34358 0.0
C209 C 0.68058 0.08847 0.32059 0.0
C210 C 0.63351 0.8967 0.52664 0.0
C211 C 0.64021 0.92095 0.48758 0.0
C212 C 0.62787 0.98177 0.47113 0.0
C213 C 0.67126 0.0397 0.34287 0.0
C214 C 0.65315 0.01073 0.37302 0.0
C215 C 0.62136 0.93222 0.48549 0.0
C216 C 0.62904 0.95805 0.44387 0.0
H217 H 0.74037 0.08251 0.28752 0.0
H218 H 0.70761 0.033 0.32329 0.0
H219 H 0.64048 0.02652 0.45998 0.0
H220 H 0.56907 0.88471 0.59192 0.0
H221 H 0.58114 0.92759 0.52389 0.0
C222 C 0.5971 0.69629 0.70383 0.0
C223 C 0.61545 0.72585 0.68906 0.0
C224 C 0.60712 0.68127 0.74303 0.0
C225 C 0.66278 0.69501 0.8697 0.0
H226 H 0.65189 0.6199 0.81881 0.0
C227 C 0.73763 0.65369 0.95714 0.0
C228 C 0.72578 0.6242 0.97301 0.0
C229 C 0.72007 0.66401 0.93208 0.0
C230 C 0.65459 0.64061 0.83439 0.0
H231 H 0.65912 0.76235 0.70093 0.0
H232 H 0.67647 0.73613 0.76819 0.0
H233 H 0.62874 0.6415 0.75276 0.0
H234 H 0.686 0.58253 0.97702 0.0
H235 H 0.65529 0.60072 0.93262 0.0
H236 H 0.68933 0.69461 0.94991 0.0
C237 C 0.65419 0.72476 0.75094 0.0
C238 C 0.64141 0.65296 0.79655 0.0
C239 C 0.64427 0.7397 0.71189 0.0
C240 C 0.69578 0.60539 0.9653 0.0
C241 C 0.67822 0.61572 0.9396 0.0
C242 C 0.67592 0.6827 0.90738 0.0
C243 C 0.63557 0.69562 0.76815 0.0
C244 C 0.64616 0.68067 0.8127 0.0
C245 C 0.69031 0.64505 0.92199 0.0
C246 C 0.67265 0.65579 0.8889 0.0
H247 H 0.57475 0.68501 0.68713 0.0
H248 H 0.59237 0.65876 0.75549 0.0
H249 H 0.66621 0.71612 0.88416 0.0
H250 H 0.76063 0.66876 0.96275 0.0
H251 H 0.73003 0.68668 0.91816 0.0
C252 C 0.08964 0.68787 0.27158 0.0
C253 C 0.10082 0.71795 0.27797 0.0
C254 C 0.06524 0.67117 0.2316 0.0
C255 C 0.02489 0.67868 0.09051 0.0
H256 H 0.95769 0.61041 0.1623 0.0
C257 C 0.9095 0.64481 0.01559 0.0
C258 C 0.88892 0.61531 0.00832 0.0
C259 C 0.93758 0.65327 0.03639 0.0
C260 C 0.97652 0.62901 0.14087 0.0
H261 H 0.09446 0.75379 0.24908 0.0
H262 H 0.05213 0.72473 0.18037 0.0
H263 H 0.00321 0.63276 0.22534 0.0
H264 H 0.88177 0.5715 0.01531 0.0
H265 H 0.93104 0.58647 0.05299 0.0
H266 H -0.00209 0.67586 0.0078 0.0
C267 C 0.0625 0.71416 0.20513 0.0
C268 C 0.0025 0.6418 0.17696 0.0
C269 C 0.08662 0.73075 0.24516 0.0
C270 C 0.89722 0.59443 0.02038 0.0
C271 C 0.9253 0.60292 0.04209 0.0
C272 C -0.001 0.66595 0.05457 0.0
C273 C 0.05187 0.68435 0.19704 0.0
C274 C 0.02647 0.66745 0.15337 0.0
C275 C 0.94559 0.63241 0.05095 0.0
C276 C 0.97429 0.64175 0.08083 0.0
H277 H 0.10009 0.67734 0.29612 0.0
H278 H 0.05726 0.64815 0.22638 0.0
H279 H 0.04333 0.69811 0.07061 0.0
H280 H 0.9038 0.6614 0.00631 0.0
H281 H 0.95269 0.67616 0.04374 0.0
C282 C 0.33723 0.08662 0.63112 0.0
C283 C 0.36705 0.10443 0.64303 0.0
C284 C 0.32614 0.05795 0.61106 0.0
C285 C 0.34626 0.0117 0.52013 0.0
H286 H 0.27308 0.95015 0.58949 0.0
C287 C 0.28824 0.89467 0.41264 0.0
C288 C 0.25819 0.88243 0.40305 0.0
C289 C 0.30393 0.92074 0.44778 0.0
C290 C 0.29349 0.96714 0.5695 0.0
H291 H 0.4086 0.10599 0.64451 0.0
H292 H 0.38906 0.0557 0.60854 0.0
H293 H 0.29632 -0.00246 0.64381 0.0
H294 H 0.22126 0.88844 0.42119 0.0
H295 H 0.24862 0.93387 0.48109 0.0
H296 H 0.34287 0.98161 0.4442 0.0
C297 C 0.3744 0.06409 0.61498 0.0
C298 C 0.3068 0.99417 0.60071 0.0
C299 C 0.3855 0.09277 0.6358 0.0
C300 C 0.24433 0.8971 0.42802 0.0
C301 C 0.25996 0.92304 0.46294 0.0
C302 C 0.33286 0.98463 0.48865 0.0
C303 C 0.34466 0.04653 0.60198 0.0
C304 C 0.33289 0.01689 0.57521 0.0
C305 C 0.28982 0.93495 0.47396 0.0
C306 C 0.30594 0.96238 0.51194 0.0
H307 H 0.32243 0.09491 0.63653 0.0
H308 H 0.30316 0.04496 0.60056 0.0
H309 H 0.3663 0.02897 0.49925 0.0
H310 H 0.29956 0.88386 0.39426 0.0
H311 H 0.32694 0.92945 0.45567 0.0
C312 C 0.18216 0.35913 0.78059 0.0
C313 C 0.17517 0.3798 0.80423 0.0
C314 C 0.18308 0.35471 0.71143 0.0
C315 C 0.17565 0.34475 0.55819 0.0
H316 H 0.2169 0.4186 0.4652 0.0
C317 C 0.18906 0.35994 0.2678 0.0
C318 C 0.21537 0.3832 0.24416 0.0
C319 C 0.18394 0.3551 0.33692 0.0
C320 C 0.20563 0.39781 0.49052 0.0
H321 H 0.16082 0.40984 0.77456 0.0
H322 H 0.16198 0.40178 0.65428 0.0
H323 H 0.20512 0.41753 0.58351 0.0
H324 H 0.25791 0.4178 0.27411 0.0
H325 H 0.24906 0.40909 0.39435 0.0
H326 H 0.17661 0.3252 0.46434 0.0
C327 C 0.16754 0.3896 0.68899 0.0
C328 C 0.19844 0.39715 0.55805 0.0
C329 C 0.1668 0.39416 0.75784 0.0
C330 C 0.23723 0.40004 0.2907 0.0
C331 C 0.23215 0.39511 0.35957 0.0
C332 C 0.18276 0.3454 0.49005 0.0
C333 C 0.17688 0.3708 0.66506 0.0
C334 C 0.18332 0.37067 0.59261 0.0
C335 C 0.20507 0.37336 0.38337 0.0
C336 C 0.19797 0.372 0.45579 0.0
H337 H 0.18868 0.3477 0.81516 0.0
H338 H 0.1904 0.34012 0.69434 0.0
H339 H 0.16399 0.32405 0.58377 0.0
H340 H 0.1718 0.3465 0.23319 0.0
H341 H 0.16284 0.33822 0.35393 0.0
C342 C 0.7592 0.1515 0.03403 0.0
C343 C 0.78299 0.17268 0.06996 0.0
C344 C 0.76254 0.14532 0.96755 0.0
C345 C 0.81877 0.16167 0.83414 0.0
H346 H 0.75487 0.14686 0.71601 0.0
C347 C 0.82298 0.20058 0.56238 0.0
C348 C 0.80512 0.17985 0.51486 0.0
C349 C 0.82298 0.19249 0.62908 0.0
C350 C 0.77264 0.15033 0.74862 0.0
H351 H 0.82888 0.20384 0.06635 0.0
H352 H 0.83446 0.19497 0.94837 0.0
H353 H 0.74856 0.1472 0.83674 0.0
H354 H 0.77431 0.13435 0.49813 0.0
H355 H 0.77323 0.12046 0.61645 0.0
H356 H 0.84352 0.16777 0.74399 0.0
C357 C 0.81344 0.18202 0.97176 0.0
C358 C 0.76908 0.15046 0.81802 0.0
C359 C 0.81025 0.18748 0.03904 0.0
C360 C 0.78831 0.15065 0.5341 0.0
C361 C 0.78773 0.14269 0.60133 0.0
C362 C 0.82252 0.16233 0.76441 0.0
C363 C 0.78956 0.16095 0.93494 0.0
C364 C 0.79232 0.15687 0.86178 0.0
C365 C 0.80464 0.16372 0.64929 0.0
C366 C 0.79961 0.15724 0.72145 0.0
H367 H 0.7381 0.13937 0.0578 0.0
H368 H 0.74382 0.12838 0.94178 0.0
H369 H 0.83691 0.1659 0.86612 0.0
H370 H 0.83625 0.22318 0.54836 0.0
H371 H 0.83586 0.20905 0.66573 0.0
C372 C 0.63103 0.80944 0.38415 0.0
C373 C 0.60807 0.78296 0.40794 0.0
C374 C 0.63565 0.81468 0.31502 0.0
C375 C 0.64552 0.81623 0.16215 0.0
H376 H 0.57346 0.79294 0.06766 0.0
C377 C 0.63274 0.81762 0.87129 0.0
C378 C 0.61169 0.82404 0.84759 0.0
C379 C 0.637 0.81659 0.9405 0.0
C380 C 0.59382 0.79988 0.09341 0.0
H381 H 0.5736 0.74034 0.37791 0.0
H382 H 0.58192 0.74942 0.25761 0.0
H383 H 0.57221 0.781 0.18591 0.0
H384 H 0.58083 0.83735 0.87721 0.0
H385 H 0.58865 0.83606 -0.00245 0.0
H386 H 0.66703 0.83544 0.06884 0.0
C387 C 0.59587 0.76635 0.29238 0.0
C388 C 0.59307 0.7926 0.16092 0.0
C389 C 0.59118 0.76114 0.36132 0.0
C390 C 0.59683 0.83183 0.89399 0.0
C391 C 0.60123 0.831 0.96288 0.0
C392 C 0.64627 0.82344 0.09406 0.0
C393 C 0.61744 0.79352 0.26855 0.0
C394 C 0.61886 0.80062 0.19606 0.0
C395 C 0.62038 0.82211 0.98686 0.0
C396 C 0.62037 0.81546 0.05925 0.0
H397 H 0.64451 0.8267 0.41872 0.0
H398 H 0.65238 0.83586 0.29807 0.0
H399 H 0.66572 0.82265 0.1881 0.0
H400 H 0.64454 0.81152 0.8367 0.0
H401 H 0.6519 0.80966 0.9576 0.0
C402 C 0.82088 0.60313 0.71825 0.0
C403 C 0.81611 0.61868 0.76893 0.0
C404 C 0.82528 0.61285 0.65185 0.0
C405 C 0.8047 0.65146 0.53649 0.0
H406 H 0.85771 0.64282 0.41729 0.0
C407 C 0.82756 0.64539 0.23452 0.0
C408 C 0.79939 0.62358 0.2171 0.0
C409 C 0.83426 0.65452 0.30132 0.0
C410 C 0.84324 0.64604 0.44998 0.0
H411 H 0.81276 0.65696 0.78993 0.0
H412 H 0.81996 0.67361 0.67313 0.0
H413 H 0.86297 0.64108 0.53904 0.0
H414 H 0.75585 0.59539 0.25497 0.0
H415 H 0.76755 0.6113 0.37116 0.0
H416 H 0.78398 0.65479 0.44734 0.0
C417 C 0.82045 0.65402 0.68528 0.0
C418 C 0.8461 0.64478 0.51949 0.0
C419 C 0.81632 0.64445 0.75196 0.0
C420 C 0.7778 0.61202 0.26697 0.0
C421 C 0.78441 0.6214 0.33335 0.0
C422 C 0.80174 0.65255 0.46697 0.0
C423 C 0.8248 0.63819 0.63466 0.0
C424 C 0.82607 0.64621 0.56312 0.0
C425 C 0.81279 0.64232 0.35134 0.0
C426 C 0.82021 0.64856 0.42322 0.0
H427 H 0.82105 0.58331 0.72971 0.0
H428 H 0.82807 0.59995 0.61353 0.0
H429 H 0.78894 0.65258 0.56908 0.0
H430 H 0.84463 0.65472 0.19703 0.0
H431 H 0.8563 0.67066 0.31414 0.0
C432 C 0.16482 0.80437 0.58634 0.0
C433 C 0.16132 0.77794 0.56233 0.0
C434 C 0.16549 0.80948 0.65556 0.0
C435 C 0.18615 0.78688 0.80895 0.0
H436 H 0.15591 0.83019 0.90229 0.0
C437 C 0.17247 0.81255 0.09915 0.0
C438 C 0.1999 0.81882 0.12285 0.0
C439 C 0.16705 0.81121 0.02998 0.0
C440 C 0.16442 0.81804 0.87675 0.0
H441 H 0.15305 0.73521 0.59191 0.0
H442 H 0.15379 0.744 0.71231 0.0
H443 H 0.14405 0.81763 0.78317 0.0
H444 H 0.24383 0.8313 0.09283 0.0
H445 H 0.23447 0.82941 0.97252 0.0
H446 H 0.2062 0.78683 0.9018 0.0
C447 C 0.1568 0.76104 0.67772 0.0
C448 C 0.15775 0.81097 0.8087 0.0
C449 C 0.15628 0.75598 0.60874 0.0
C450 C 0.22234 0.82593 0.07622 0.0
C451 C 0.21696 0.82475 0.0073 0.0
C452 C 0.19288 0.794 0.87646 0.0
C453 C 0.16256 0.78821 0.70183 0.0
C454 C 0.16848 0.79519 0.77431 0.0
C455 C 0.18899 0.81624 0.98349 0.0
C456 C 0.1822 0.80973 0.91109 0.0
H457 H 0.16872 0.82174 0.5519 0.0
H458 H 0.17002 0.83065 0.6727 0.0
H459 H 0.19519 0.77515 0.7836 0.0
H460 H 0.1547 0.80698 0.13379 0.0
H461 H 0.14527 0.80454 0.01307 0.0
C462 C 0.38874 0.22038 0.3823 0.0
C463 C 0.37329 0.20006 0.43307 0.0
C464 C 0.37882 0.21516 0.31613 0.0
C465 C 0.33982 0.1563 0.20056 0.0
H466 H 0.34863 0.21839 0.08284 0.0
C467 C 0.34678 0.18646 0.8992 0.0
C468 C 0.36862 0.1801 0.88176 0.0
C469 C 0.33741 0.18381 0.96594 0.0
C470 C 0.34534 0.20058 0.11511 0.0
H471 H 0.33501 0.1585 0.45447 0.0
H472 H 0.31802 0.14919 0.33796 0.0
H473 H 0.35029 0.22496 0.20474 0.0
H474 H 0.39665 0.16456 0.91953 0.0
H475 H 0.38036 0.15998 0.03555 0.0
H476 H 0.33655 0.13257 0.11083 0.0
C477 C 0.33767 0.16921 0.34991 0.0
C478 C 0.34655 0.20444 0.18471 0.0
C479 C 0.34744 0.17456 0.41641 0.0
C480 C 0.38001 0.1699 0.93155 0.0
C481 C 0.3704 0.1669 -0.00218 0.0
C482 C 0.33878 0.1525 0.13095 0.0
C483 C 0.35337 0.18943 0.29922 0.0
C484 C 0.34513 0.18284 0.22779 0.0
C485 C 0.3494 0.17429 0.01584 0.0
C486 C 0.34287 0.17513 0.08773 0.0
H487 H 0.40861 0.24031 0.39352 0.0
H488 H 0.39164 0.23087 0.27774 0.0
H489 H 0.3387 0.13932 0.23272 0.0
H490 H 0.33756 0.19431 0.86177 0.0
H491 H 0.32123 0.18968 0.9788 0.0
C492 C 0.19954 0.50703 0.15135 0.0
C493 C 0.22481 0.50544 0.14136 0.0
C494 C 0.20135 0.53361 0.16391 0.0
C495 C 0.24929 0.61048 0.20677 0.0
H496 H 0.1967 0.6207 0.08969 0.0
C497 C 0.24662 0.71718 0.2032 0.0
C498 C 0.21867 0.71255 0.21621 0.0
C499 C 0.25039 0.69406 0.18334 0.0
C500 C 0.21154 0.61819 0.12253 0.0
H501 H 0.2718 0.52979 0.143 0.0
H502 H 0.27497 0.5765 0.16521 0.0
H503 H 0.19707 0.57516 0.08777 0.0
H504 H 0.17275 0.68112 0.21283 0.0
H505 H 0.17923 0.64105 0.17712 0.0
H506 H 0.26328 0.65344 0.24248 0.0
C507 C 0.25379 0.55716 0.16322 0.0
C508 C 0.21162 0.59207 0.12187 0.0
C509 C 0.25198 0.5304 0.151 0.0
C510 C 0.19453 0.68522 0.20318 0.0
C511 C 0.19827 0.6623 0.18261 0.0
C512 C 0.24918 0.6367 0.2075 0.0
C513 C 0.22845 0.55914 0.16624 0.0
C514 C 0.22993 0.58766 0.16521 0.0
C515 C 0.22625 0.66619 0.17523 0.0
C516 C 0.22981 0.64052 0.16646 0.0
H517 H 0.17833 0.48803 0.14473 0.0
H518 H 0.18146 0.53441 0.16809 0.0
H519 H 0.2637 0.60769 0.24044 0.0
H520 H 0.26561 0.73802 0.21337 0.0
H521 H 0.27218 0.69768 0.17722 0.0
C522 C 0.67576 0.18221 0.42945 0.0
C523 C 0.70298 0.2076 0.42777 0.0
C524 C 0.65166 0.18285 0.45482 0.0
C525 C 0.62217 0.22953 0.45488 0.0
H526 H 0.56673 0.17743 0.58638 0.0
C527 C 0.52094 0.23599 0.53315 0.0
C528 C 0.49638 0.21048 0.55504 0.0
C529 C 0.54636 0.2358 0.51663 0.0
C530 C 0.58168 0.19178 0.54855 0.0
H531 H 0.72686 0.25321 0.45355 0.0
H532 H 0.68424 0.2545 0.4964 0.0
H533 H 0.61181 0.177 0.56793 0.0
H534 H 0.47811 0.1644 0.5718 0.0
H535 H 0.52177 0.16358 0.53884 0.0
H536 H 0.59173 0.24336 0.43249 0.0
C537 C 0.68181 0.23411 0.47903 0.0
C538 C 0.60764 0.19175 0.53885 0.0
C539 C 0.70611 0.23331 0.45514 0.0
C540 C 0.4969 0.1844 0.55542 0.0
C541 C 0.52206 0.18406 0.53748 0.0
C542 C 0.59597 0.22917 0.46353 0.0
C543 C 0.65434 0.20904 0.47735 0.0
C544 C 0.62803 0.21062 0.49198 0.0
C545 C 0.54748 0.20996 0.52047 0.0
C546 C 0.57531 0.21021 0.51034 0.0
H547 H 0.67291 0.16218 0.40832 0.0
H548 H 0.63062 0.16331 0.45284 0.0
H549 H 0.63747 0.24391 0.41754 0.0
H550 H 0.52117 0.25645 0.53333 0.0
H551 H 0.56549 0.25622 0.50435 0.0
C552 C 0.27996 0.52918 0.8843 0.0
C553 C 0.28281 0.50471 0.89601 0.0
C554 C 0.30409 0.55543 0.86471 0.0
C555 C 0.38319 0.59185 0.88343 0.0
H556 H 0.38481 0.64907 0.76002 0.0
C557 C 0.4874 0.68493 0.77194 0.0
C558 C 0.48928 0.71191 0.76171 0.0
C559 C 0.46208 0.66164 0.79752 0.0
C560 C 0.38449 0.63347 0.79557 0.0
H561 H 0.31189 0.48737 0.88975 0.0
H562 H 0.35361 0.5327 0.85305 0.0
H563 H 0.33966 0.60316 0.77654 0.0
H564 H 0.46687 0.73624 0.77376 0.0
H565 H 0.42232 0.69525 0.81847 0.0
H566 H 0.42807 0.62179 0.90142 0.0
C567 C 0.33318 0.53207 0.86139 0.0
C568 C 0.35872 0.60716 0.80469 0.0
C569 C 0.30926 0.50605 0.88158 0.0
C570 C 0.46605 0.71571 0.78161 0.0
C571 C 0.44049 0.69223 0.80642 0.0
C572 C 0.40887 0.61801 0.87417 0.0
C573 C 0.33125 0.55737 0.85616 0.0
C574 C 0.358 0.58585 0.84767 0.0
C575 C 0.43803 0.6648 0.81273 0.0
C576 C 0.40993 0.63886 0.82929 0.0
H577 H 0.25982 0.52872 0.89572 0.0
H578 H 0.30192 0.57455 0.86085 0.0
H579 H 0.38311 0.57623 0.91851 0.0
H580 H 0.50502 0.68144 0.75707 0.0
H581 H 0.46076 0.64072 0.80153 0.0
C582 C 0.80075 0.31096 0.21053 0.0
C583 C 0.77485 0.28426 0.20742 0.0
C584 C 0.80086 0.33666 0.19642 0.0
C585 C 0.75579 0.3666 0.12895 0.0
H586 H 0.80635 0.43178 0.24261 0.0
C587 C 0.75104 0.47223 0.13461 0.0
C588 C 0.77728 0.4958 0.11221 0.0
C589 C 0.74997 0.44656 0.15475 0.0
C590 C 0.79205 0.41366 0.21091 0.0
H591 H 0.72901 0.26316 0.1846 0.0
H592 H 0.72884 0.30807 0.16211 0.0
H593 H 0.80618 0.3861 0.25386 0.0
H594 H 0.82325 0.51214 0.09814 0.0
H595 H 0.82155 0.46761 0.13598 0.0
H596 H 0.74128 0.3943 0.0874 0.0
C597 C 0.74929 0.30929 0.17372 0.0
C598 C 0.79218 0.3876 0.21654 0.0
C599 C 0.74934 0.2835 0.18646 0.0
C600 C 0.80279 0.49421 0.11538 0.0
C601 C 0.80183 0.46882 0.13696 0.0
C602 C 0.7553 0.39251 0.12428 0.0
C603 C 0.77491 0.33626 0.18056 0.0
C604 C 0.77436 0.36384 0.17491 0.0
C605 C 0.77524 0.44447 0.15426 0.0
C606 C 0.77365 0.4163 0.16469 0.0
H607 H 0.82075 0.31202 0.22626 0.0
H608 H 0.82118 0.3569 0.19995 0.0
H609 H 0.74206 0.34898 0.09548 0.0
H610 H 0.73105 0.47289 0.13185 0.0
H611 H 0.72926 0.42798 0.16819 0.0
C612 C 0.30073 0.79261 0.4731 0.0
C613 C 0.27335 0.76798 0.46379 0.0
C614 C 0.3245 0.78968 0.4903 0.0
C615 C 0.35052 0.73903 0.46272 0.0
H616 H 0.41511 0.79417 0.57123 0.0
C617 C 0.4588 0.73871 0.50951 0.0
C618 C 0.48372 0.76623 0.51432 0.0
C619 C 0.43166 0.73625 0.49907 0.0
C620 C 0.39732 0.77877 0.54022 0.0
H621 H 0.2488 0.72105 0.47042 0.0
H622 H 0.29052 0.71593 0.50102 0.0
H623 H 0.36929 0.79392 0.57557 0.0
H624 H 0.50057 0.81242 0.5039 0.0
H625 H 0.45346 0.80812 0.48359 0.0
H626 H 0.37891 0.72416 0.42693 0.0
C627 C 0.29356 0.73747 0.49424 0.0
C628 C 0.37106 0.77851 0.54311 0.0
C629 C 0.26965 0.74043 0.47762 0.0
C630 C 0.4816 0.79098 0.50087 0.0
C631 C 0.45464 0.78853 0.49007 0.0
C632 C 0.37688 0.73923 0.46001 0.0
C633 C 0.32139 0.76203 0.49819 0.0
C634 C 0.34758 0.75912 0.50325 0.0
C635 C 0.42928 0.7613 0.49304 0.0
C636 C 0.40073 0.75963 0.49745 0.0
H637 H 0.30417 0.8141 0.46286 0.0
H638 H 0.34566 0.80903 0.49266 0.0
H639 H 0.33288 0.72404 0.4308 0.0
H640 H 0.45987 0.71931 0.52035 0.0
H641 H 0.41243 0.71498 0.50117 0.0
C642 C 0.67694 0.4941 0.89181 0.0
C643 C 0.70386 0.49528 0.89096 0.0
C644 C 0.65174 0.46861 0.8743 0.0
C645 C 0.62416 0.39485 0.8011 0.0
H646 H 0.55667 0.37739 0.90976 0.0
C647 C 0.51993 0.28307 0.79813 0.0
C648 C 0.49617 0.28521 0.775 0.0
C649 C 0.5451 0.30789 0.81949 0.0
C650 C 0.57543 0.38202 0.87941 0.0
H651 H 0.72589 0.47134 0.86844 0.0
H652 H 0.68188 0.42649 0.84006 0.0
H653 H 0.60155 0.42322 0.92577 0.0
H654 H 0.47897 0.31411 0.76046 0.0
H655 H 0.52257 0.35728 0.80043 0.0
H656 H 0.59788 0.35308 0.75621 0.0
C657 C 0.68011 0.44534 0.85254 0.0
C658 C 0.60105 0.40839 0.88777 0.0
C659 C 0.70541 0.47107 0.86872 0.0
C660 C 0.49707 0.31199 0.77826 0.0
C661 C 0.52192 0.33661 0.80105 0.0
C662 C 0.59867 0.36825 0.7937 0.0
C663 C 0.65285 0.44354 0.85715 0.0
C664 C 0.62565 0.41534 0.8481 0.0
C665 C 0.54646 0.33492 0.81949 0.0
C666 C 0.57407 0.36178 0.83233 0.0
H667 H 0.67525 0.5126 0.90837 0.0
H668 H 0.63129 0.46836 0.87624 0.0
H669 H 0.64246 0.39953 0.76906 0.0
H670 H 0.5198 0.26268 0.7953 0.0
H671 H 0.56383 0.30618 0.83379 0.0
loop_
_geom_bond_atom_site_label_1
_geom_bond_atom_site_label_2
_geom_bond_distance
_geom_bond_site_symmetry_2
_ccdc_geom_bond_type
Sc0 O3 2.025 . S
Sc0 O10 2.105 1_554 S
Sc0 O13 2.105 . S
Sc0 O16 2.105 . S
Sc0 O19 2.105 1_554 S
Sc1 O3 2.025 . S
Sc1 O11 2.105 . S
Sc1 O15 2.105 . S
Sc1 O17 2.105 . S
Sc1 O21 2.105 1_554 S
Sc2 O3 2.025 1_556 S
Sc2 O12 2.105 . S
Sc2 O14 2.105 . S
Sc2 O18 2.105 1_556 S
Sc2 O20 2.105 . S
O3 Sc0 2.025 . S
O3 Sc1 2.025 . S
O3 Sc2 2.025 1_554 S
C4 O10 1.268 . S
C4 O20 1.268 . S
C5 O11 1.261 1_556 S
C5 O19 1.270 . S
C6 O12 1.268 . S
C6 O21 1.268 . S
C7 O13 1.268 . S
C7 O17 1.268 . S
C8 O14 1.268 1_554 S
C8 O16 1.268 . S
C9 O15 1.268 . S
C9 O18 1.268 . S
O10 Sc0 2.105 1_556 S
O10 C4 1.268 . S
O11 Sc1 2.105 . S
O11 C5 1.261 1_554 S
O12 Sc2 2.105 . S
O12 C6 1.268 . S
O13 Sc0 2.105 . S
O13 C7 1.268 . S
O14 Sc2 2.105 . S
O14 C8 1.268 1_556 S
O15 Sc1 2.105 . S
O15 C9 1.268 . S
O16 Sc0 2.105 . S
O16 C8 1.268 . S
O17 Sc1 2.105 . S
O17 C7 1.268 . S
O18 Sc2 2.105 1_554 S
O18 C9 1.268 . S
O19 Sc0 2.105 1_556 S
O19 C5 1.270 . S
O20 Sc2 2.105 . S
O20 C4 1.268 . S
O21 Sc1 2.105 1_556 S
O21 C6 1.268 . S
Sc22 O25 2.025 . S
Sc22 O32 2.105 . S
Sc22 O35 2.105 . S
Sc22 O38 2.105 . S
Sc22 O41 2.105 . S
Sc23 O25 2.025 . S
Sc23 O33 2.105 . S
Sc23 O37 2.105 . S
Sc23 O39 2.105 . S
Sc23 O43 2.105 . S
Sc24 O25 2.025 . S
Sc24 O34 2.105 . S
Sc24 O36 2.105 . S
Sc24 O40 2.105 . S
Sc24 O42 2.105 . S
O25 Sc22 2.025 . S
O25 Sc23 2.025 . S
O25 Sc24 2.025 . S
C26 O32 1.268 . S
C26 O42 1.268 . S
C27 O33 1.268 . S
C27 O41 1.268 . S
C28 O34 1.268 . S
C28 O43 1.268 . S
C29 O35 1.268 . S
C29 O39 1.268 . S
C30 O36 1.268 . S
C30 O38 1.268 . S
C31 O37 1.268 . S
C31 O40 1.268 . S
O32 Sc22 2.105 . S
O32 C26 1.268 . S
O33 Sc23 2.105 . S
O33 C27 1.268 . S
O34 Sc24 2.105 . S
O34 C28 1.268 . S
O35 Sc22 2.105 . S
O35 C29 1.268 . S
O36 Sc24 2.105 . S
O36 C30 1.268 . S
O37 Sc23 2.105 . S
O37 C31 1.268 . S
O38 Sc22 2.105 . S
O38 C30 1.268 . S
O39 Sc23 2.105 . S
O39 C29 1.268 . S
O40 Sc24 2.105 . S
O40 C31 1.268 . S
O41 Sc22 2.105 . S
O41 C27 1.268 . S
O42 Sc24 2.105 . S
O42 C26 1.268 . S
O43 Sc23 2.105 . S
O43 C28 1.268 . S
Sc44 O47 2.025 . S
Sc44 O54 2.105 . S
Sc44 O57 2.105 . S
Sc44 O60 2.105 . S
Sc44 O63 2.105 . S
Sc45 O47 2.025 . S
Sc45 O55 2.105 . S
Sc45 O59 2.105 . S
Sc45 O61 2.105 . S
Sc45 O65 2.105 . S
Sc46 O47 2.025 . S
Sc46 O56 2.105 . S
Sc46 O58 2.105 . S
Sc46 O62 2.105 . S
Sc46 O64 2.105 . S
O47 Sc44 2.025 . S
O47 Sc45 2.025 . S
O47 Sc46 2.025 . S
C48 O54 1.268 . S
C48 O64 1.268 . S
C49 O55 1.268 . S
C49 O63 1.268 . S
C50 O56 1.268 . S
C50 O65 1.268 . S
C51 O57 1.268 . S
C51 O61 1.268 . S
C52 O58 1.268 . S
C52 O60 1.268 . S
C53 O59 1.268 . S
C53 O62 1.268 . S
O54 Sc44 2.105 . S
O54 C48 1.268 . S
O55 Sc45 2.105 . S
O55 C49 1.268 . S
O56 Sc46 2.105 . S
O56 C50 1.268 . S
O57 Sc44 2.105 . S
O57 C51 1.268 . S
O58 Sc46 2.105 . S
O58 C52 1.268 . S
O59 Sc45 2.105 . S
O59 C53 1.268 . S
O60 Sc44 2.105 . S
O60 C52 1.268 . S
O61 Sc45 2.105 . S
O61 C51 1.268 . S
O62 Sc46 2.105 . S
O62 C53 1.268 . S
O63 Sc44 2.105 . S
O63 C49 1.268 . S
O64 Sc46 2.105 . S
O64 C48 1.268 . S
O65 Sc45 2.105 . S
O65 C50 1.268 . S
Sc66 O69 2.025 1_556 S
Sc66 O76 2.105 . S
Sc66 O79 2.105 . S
Sc66 O82 2.105 . S
Sc66 O85 2.105 1_556 S
Sc67 O69 2.025 . S
Sc67 O77 2.105 . S
Sc67 O81 2.105 . S
Sc67 O83 2.105 1_554 S
Sc67 O87 2.105 . S
Sc68 O69 2.025 . S
Sc68 O78 2.105 . S
Sc68 O80 2.105 1_554 S
Sc68 O84 2.105 1_554 S
Sc68 O86 2.105 . S
O69 Sc66 2.025 1_554 S
O69 Sc67 2.025 . S
O69 Sc68 2.025 . S
C70 O76 1.268 1_554 S
C70 O86 1.268 . S
C71 O77 1.268 . S
C71 O85 1.268 . S
C72 O78 1.268 . S
C72 O87 1.268 . S
C73 O79 1.268 . S
C73 O83 1.268 . S
C74 O80 1.268 . S
C74 O82 1.268 . S
C75 O81 1.261 1_556 S
C75 O84 1.270 . S
O76 Sc66 2.105 . S
O76 C70 1.268 1_556 S
O77 Sc67 2.105 . S
O77 C71 1.268 . S
O78 Sc68 2.105 . S
O78 C72 1.268 . S
O79 Sc66 2.105 . S
O79 C73 1.268 . S
O80 Sc68 2.105 1_556 S
O80 C74 1.268 . S
O81 Sc67 2.105 . S
O81 C75 1.261 1_554 S
O82 Sc66 2.105 . S
O82 C74 1.268 . S
O83 Sc67 2.105 1_556 S
O83 C73 1.268 . S
O84 Sc68 2.105 1_556 S
O84 C75 1.270 . S
O85 Sc66 2.105 1_554 S
O85 C71 1.268 . S
O86 Sc68 2.105 . S
O86 C70 1.268 . S
O87 Sc67 2.105 . S
O87 C72 1.268 . S
Sc88 O91 2.025 . S
Sc88 O98 2.105 . S
Sc88 O101 2.105 . S
Sc88 O104 2.105 . S
Sc88 O107 2.105 . S
Sc89 O91 2.025 . S
Sc89 O99 2.105 . S
Sc89 O103 2.105 . S
Sc89 O105 2.105 . S
Sc89 O109 2.105 . S
Sc90 O91 2.025 . S
Sc90 O100 2.105 . S
Sc90 O102 2.105 . S
Sc90 O106 2.105 . S
Sc90 O108 2.105 . S
O91 Sc88 2.025 . S
O91 Sc89 2.025 . S
O91 Sc90 2.025 . S
C92 O98 1.268 . S
C92 O108 1.268 . S
C93 O99 1.268 . S
C93 O107 1.268 . S
C94 O100 1.268 . S
C94 O109 1.268 . S
C95 O101 1.268 . S
C95 O105 1.268 . S
C96 O102 1.268 . S
C96 O104 1.268 . S
C97 O103 1.268 . S
C97 O106 1.268 . S
O98 Sc88 2.105 . S
O98 C92 1.268 . S
O99 Sc89 2.105 . S
O99 C93 1.268 . S
O100 Sc90 2.105 . S
O100 C94 1.268 . S
O101 Sc88 2.105 . S
O101 C95 1.268 . S
O102 Sc90 2.105 . S
O102 C96 1.268 . S
O103 Sc89 2.105 . S
O103 C97 1.268 . S
O104 Sc88 2.105 . S
O104 C96 1.268 . S
O105 Sc89 2.105 . S
O105 C95 1.268 . S
O106 Sc90 2.105 . S
O106 C97 1.268 . S
O107 Sc88 2.105 . S
O107 C93 1.268 . S
O108 Sc90 2.105 . S
O108 C92 1.268 . S
O109 Sc89 2.105 . S
O109 C94 1.268 . S
Sc110 O113 2.025 . S
Sc110 O120 2.105 . S
Sc110 O123 2.105 . S
Sc110 O126 2.105 . S
Sc110 O129 2.105 . S
Sc111 O113 2.025 . S
Sc111 O121 2.105 . S
Sc111 O125 2.105 . S
Sc111 O127 2.105 . S
Sc111 O131 2.105 . S
Sc112 O113 2.025 . S
Sc112 O122 2.105 . S
Sc112 O124 2.105 . S
Sc112 O128 2.105 . S
Sc112 O130 2.105 . S
O113 Sc110 2.025 . S
O113 Sc111 2.025 . S
O113 Sc112 2.025 . S
C114 O120 1.268 . S
C114 O130 1.268 . S
C115 O121 1.268 . S
C115 O129 1.268 . S
C116 O122 1.268 . S
C116 O131 1.268 . S
C117 O123 1.268 . S
C117 O127 1.268 . S
C118 O124 1.268 . S
C118 O126 1.268 . S
C119 O125 1.268 . S
C119 O128 1.268 . S
O120 Sc110 2.105 . S
O120 C114 1.268 . S
O121 Sc111 2.105 . S
O121 C115 1.268 . S
O122 Sc112 2.105 . S
O122 C116 1.268 . S
O123 Sc110 2.105 . S
O123 C117 1.268 . S
O124 Sc112 2.105 . S
O124 C118 1.268 . S
O125 Sc111 2.105 . S
O125 C119 1.268 . S
O126 Sc110 2.105 . S
O126 C118 1.268 . S
O127 Sc111 2.105 . S
O127 C117 1.268 . S
O128 Sc112 2.105 . S
O128 C119 1.268 . S
O129 Sc110 2.105 . S
O129 C115 1.268 . S
O130 Sc112 2.105 . S
O130 C114 1.268 . S
O131 Sc111 2.105 . S
O131 C116 1.268 . S
C132 C133 1.349 . S
C132 C134 1.327 . S
C132 H157 0.950 . S
C133 C132 1.349 . S
C133 C149 1.349 . S
C134 C132 1.327 . S
C134 C153 1.429 . S
C134 H158 0.950 . S
C135 C152 1.574 . S
C135 C154 1.368 . S
C135 H159 0.949 . S
H136 C140 0.949 . S
C137 C138 1.349 1_554 S
C137 C139 1.327 1_554 S
C137 H160 0.950 . S
C138 C137 1.349 1_556 S
C138 C150 1.349 . S
C139 C137 1.327 1_556 S
C139 C155 1.429 . S
C139 H161 0.950 1_556 S
C140 H136 0.949 . S
C140 C148 1.574 . S
C140 C156 1.368 . S
H141 C149 0.950 . S
H142 C147 0.950 . S
H143 C148 0.949 . S
H144 C150 0.950 . S
H145 C151 0.950 . S
H146 C152 0.949 . S
C147 H142 0.950 . S
C147 C149 1.327 . S
C147 C153 1.429 . S
C148 C140 1.574 . S
C148 H143 0.949 . S
C148 C154 1.368 . S
C149 C133 1.349 . S
C149 H141 0.950 . S
C149 C147 1.327 . S
C150 C138 1.349 . S
C150 H144 0.950 . S
C150 C151 1.327 . S
C151 H145 0.950 . S
C151 C150 1.327 . S
C151 C155 1.429 . S
C152 C135 1.574 . S
C152 H146 0.949 . S
C152 C156 1.368 . S
C153 C134 1.429 . S
C153 C147 1.429 . S
C153 C154 1.523 . S
C154 C135 1.368 . S
C154 C148 1.368 . S
C154 C153 1.523 . S
C155 C139 1.429 . S
C155 C151 1.429 . S
C155 C156 1.523 . S
C156 C140 1.368 . S
C156 C152 1.368 . S
C156 C155 1.523 . S
H157 C132 0.950 . S
H158 C134 0.950 . S
H159 C135 0.949 . S
H160 C137 0.950 . S
H161 C139 0.950 1_554 S
C162 C163 1.349 . S
C162 C164 1.327 . S
C162 H187 0.950 . S
C163 C162 1.349 . S
C163 C179 1.349 . S
C164 C162 1.327 . S
C164 C183 1.429 . S
C164 H188 0.950 . S
C165 C182 1.574 1_455 S
C165 C184 1.368 . S
C165 H189 0.949 . S
H166 C170 0.949 . S
C167 C168 1.349 . S
C167 C169 1.327 . S
C167 H190 0.950 . S
C168 C167 1.349 . S
C168 C180 1.349 . S
C169 C167 1.327 . S
C169 C185 1.429 . S
C169 H191 0.950 . S
C170 H166 0.949 . S
C170 C178 1.574 1_655 S
C170 C186 1.368 . S
H171 C179 0.950 . S
H172 C177 0.950 . S
H173 C178 0.949 . S
H174 C180 0.950 . S
H175 C181 0.950 . S
H176 C182 0.949 . S
C177 H172 0.950 . S
C177 C179 1.327 . S
C177 C183 1.429 . S
C178 C170 1.574 1_455 S
C178 H173 0.949 . S
C178 C184 1.368 . S
C179 C163 1.349 . S
C179 H171 0.950 . S
C179 C177 1.327 . S
C180 C168 1.349 . S
C180 H174 0.950 . S
C180 C181 1.327 . S
C181 H175 0.950 . S
C181 C180 1.327 . S
C181 C185 1.429 . S
C182 C165 1.574 1_655 S
C182 H176 0.949 . S
C182 C186 1.368 . S
C183 C164 1.429 . S
C183 C177 1.429 . S
C183 C184 1.523 . S
C184 C165 1.368 . S
C184 C178 1.368 . S
C184 C183 1.523 . S
C185 C169 1.429 . S
C185 C181 1.429 . S
C185 C186 1.523 . S
C186 C170 1.368 . S
C186 C182 1.368 . S
C186 C185 1.523 . S
H187 C162 0.950 . S
H188 C164 0.950 . S
H189 C165 0.949 . S
H190 C167 0.950 . S
H191 C169 0.950 . S
C192 C193 1.349 . S
C192 C194 1.327 . S
C192 H217 0.950 . S
C193 C192 1.349 . S
C193 C209 1.349 . S
C194 C192 1.327 . S
C194 C213 1.429 . S
C194 H218 0.950 . S
C195 C212 1.574 1_545 S
C195 C214 1.368 . S
C195 H219 0.949 . S
H196 C200 0.949 . S
C197 C198 1.349 . S
C197 C199 1.327 . S
C197 H220 0.950 . S
C198 C197 1.349 . S
C198 C210 1.349 . S
C199 C197 1.327 . S
C199 C215 1.429 . S
C199 H221 0.950 . S
C200 H196 0.949 . S
C200 C208 1.574 1_565 S
C200 C216 1.368 . S
H201 C209 0.950 . S
H202 C207 0.950 . S
H203 C208 0.949 . S
H204 C210 0.950 . S
H205 C211 0.950 . S
H206 C212 0.949 . S
C207 H202 0.950 . S
C207 C209 1.327 . S
C207 C213 1.429 . S
C208 C200 1.574 1_545 S
C208 H203 0.949 . S
C208 C214 1.368 . S
C209 C193 1.349 . S
C209 H201 0.950 . S
C209 C207 1.327 . S
C210 C198 1.349 . S
C210 H204 0.950 . S
C210 C211 1.327 . S
C211 H205 0.950 . S
C211 C210 1.327 . S
C211 C215 1.429 . S
C212 C195 1.574 1_565 S
C212 H206 0.949 . S
C212 C216 1.368 . S
C213 C194 1.429 . S
C213 C207 1.429 . S
C213 C214 1.523 . S
C214 C195 1.368 . S
C214 C208 1.368 . S
C214 C213 1.523 . S
C215 C199 1.429 . S
C215 C211 1.429 . S
C215 C216 1.523 . S
C216 C200 1.368 . S
C216 C212 1.368 . S
C216 C215 1.523 . S
H217 C192 0.950 . S
H218 C194 0.950 . S
H219 C195 0.949 . S
H220 C197 0.950 . S
H221 C199 0.950 . S
C222 C223 1.349 . S
C222 C224 1.327 . S
C222 H247 0.950 . S
C223 C222 1.349 . S
C223 C239 1.349 . S
C224 C222 1.327 . S
C224 C243 1.429 . S
C224 H248 0.950 . S
C225 C242 1.574 . S
C225 C244 1.368 . S
C225 H249 0.949 . S
H226 C230 0.949 . S
C227 C228 1.349 . S
C227 C229 1.327 . S
C227 H250 0.950 . S
C228 C227 1.349 . S
C228 C240 1.349 1_556 S
C229 C227 1.327 . S
C229 C245 1.429 . S
C229 H251 0.950 . S
C230 H226 0.949 . S
C230 C238 1.574 . S
C230 C246 1.368 . S
H231 C239 0.950 . S
H232 C237 0.950 . S
H233 C238 0.949 . S
H234 C240 0.949 . S
H235 C241 0.958 . S
H236 C242 0.949 . S
C237 H232 0.950 . S
C237 C239 1.327 . S
C237 C243 1.429 . S
C238 C230 1.574 . S
C238 H233 0.949 . S
C238 C244 1.368 . S
C239 C223 1.349 . S
C239 H231 0.950 . S
C239 C237 1.327 . S
C240 C228 1.349 1_554 S
C240 H234 0.949 . S
C240 C241 1.327 1_554 S
C241 H235 0.958 . S
C241 C240 1.327 1_556 S
C241 C245 1.429 . S
C242 C225 1.574 . S
C242 H236 0.949 . S
C242 C246 1.368 . S
C243 C224 1.429 . S
C243 C237 1.429 . S
C243 C244 1.523 . S
C244 C225 1.368 . S
C244 C238 1.368 . S
C244 C243 1.523 . S
C245 C229 1.429 . S
C245 C241 1.429 . S
C245 C246 1.523 . S
C246 C230 1.368 . S
C246 C242 1.368 . S
C246 C245 1.523 . S
H247 C222 0.950 . S
H248 C224 0.950 . S
H249 C225 0.949 . S
H250 C227 0.950 . S
H251 C229 0.950 . S
C252 C253 1.349 . S
C252 C254 1.327 . S
C252 H277 0.950 . S
C253 C252 1.349 . S
C253 C269 1.349 . S
C254 C252 1.327 . S
C254 C273 1.429 . S
C254 H278 0.950 . S
C255 C272 1.574 1_455 S
C255 C274 1.368 . S
C255 H279 0.949 . S
H256 C260 0.949 . S
C257 C258 1.349 . S
C257 C259 1.327 . S
C257 H280 0.950 . S
C258 C257 1.349 . S
C258 C270 1.349 . S
C259 C257 1.327 . S
C259 C275 1.429 . S
C259 H281 0.950 . S
C260 H256 0.949 . S
C260 C268 1.574 1_655 S
C260 C276 1.368 . S
H261 C269 0.950 . S
H262 C267 0.950 . S
H263 C268 0.949 . S
H264 C270 0.950 1_556 S
H265 C271 0.950 . S
H266 C272 0.949 . S
C267 H262 0.950 . S
C267 C269 1.327 . S
C267 C273 1.429 . S
C268 C260 1.574 1_455 S
C268 H263 0.949 . S
C268 C274 1.368 . S
C269 C253 1.349 . S
C269 H261 0.950 . S
C269 C267 1.327 . S
C270 C258 1.349 . S
C270 H264 0.950 1_554 S
C270 C271 1.327 . S
C271 H265 0.950 . S
C271 C270 1.327 . S
C271 C275 1.429 . S
C272 C255 1.574 1_655 S
C272 H266 0.949 . S
C272 C276 1.368 . S
C273 C254 1.429 . S
C273 C267 1.429 . S
C273 C274 1.523 . S
C274 C255 1.368 . S
C274 C268 1.368 . S
C274 C273 1.523 . S
C275 C259 1.429 . S
C275 C271 1.429 . S
C275 C276 1.523 . S
C276 C260 1.368 . S
C276 C272 1.368 . S
C276 C275 1.523 . S
H277 C252 0.950 . S
H278 C254 0.950 . S
H279 C255 0.949 . S
H280 C257 0.950 . S
H281 C259 0.950 . S
C282 C283 1.349 . S
C282 C284 1.327 . S
C282 H307 0.950 . S
C283 C282 1.349 . S
C283 C299 1.349 . S
C284 C282 1.327 . S
C284 C303 1.429 . S
C284 H308 0.950 . S
C285 C302 1.574 1_545 S
C285 C304 1.368 . S
C285 H309 0.949 . S
H286 C290 0.949 . S
C287 C288 1.349 . S
C287 C289 1.327 . S
C287 H310 0.950 . S
C288 C287 1.349 . S
C288 C300 1.349 . S
C289 C287 1.327 . S
C289 C305 1.429 . S
C289 H311 0.950 . S
C290 H286 0.949 . S
C290 C298 1.574 1_565 S
C290 C306 1.368 . S
H291 C299 0.950 . S
H292 C297 0.950 . S
H293 C298 0.949 . S
H294 C300 0.950 . S
H295 C301 0.950 . S
H296 C302 0.949 . S
C297 H292 0.950 . S
C297 C299 1.327 . S
C297 C303 1.429 . S
C298 C290 1.574 1_545 S
C298 H293 0.949 . S
C298 C304 1.368 . S
C299 C283 1.349 . S
C299 H291 0.950 . S
C299 C297 1.327 . S
C300 C288 1.349 . S
C300 H294 0.950 . S
C300 C301 1.327 . S
C301 H295 0.950 . S
C301 C300 1.327 . S
C301 C305 1.429 . S
C302 C285 1.574 1_565 S
C302 H296 0.949 . S
C302 C306 1.368 . S
C303 C284 1.429 . S
C303 C297 1.429 . S
C303 C304 1.523 . S
C304 C285 1.368 . S
C304 C298 1.368 . S
C304 C303 1.523 . S
C305 C289 1.429 . S
C305 C301 1.429 . S
C305 C306 1.523 . S
C306 C290 1.368 . S
C306 C302 1.368 . S
C306 C305 1.523 . S
H307 C282 0.950 . S
H308 C284 0.950 . S
H309 C285 0.949 . S
H310 C287 0.950 . S
H311 C289 0.950 . S
C312 C313 1.349 . S
C312 C314 1.327 . S
C312 H337 0.950 . S
C313 C312 1.349 . S
C313 C329 1.349 . S
C314 C312 1.327 . S
C314 C333 1.429 . S
C314 H338 0.950 . S
C315 C332 1.574 . S
C315 C334 1.368 . S
C315 H339 0.949 . S
H316 C320 0.949 . S
C317 C318 1.349 . S
C317 C319 1.327 . S
C317 H340 0.950 . S
C318 C317 1.349 . S
C318 C330 1.349 . S
C319 C317 1.327 . S
C319 C335 1.429 . S
C319 H341 0.950 . S
C320 H316 0.949 . S
C320 C328 1.574 . S
C320 C336 1.368 . S
H321 C329 0.950 . S
H322 C327 0.950 . S
H323 C328 0.949 . S
H324 C330 0.950 . S
H325 C331 0.950 . S
H326 C332 0.949 . S
C327 H322 0.950 . S
C327 C329 1.327 . S
C327 C333 1.429 . S
C328 C320 1.574 . S
C328 H323 0.949 . S
C328 C334 1.368 . S
C329 C313 1.349 . S
C329 H321 0.950 . S
C329 C327 1.327 . S
C330 C318 1.349 . S
C330 H324 0.950 . S
C330 C331 1.327 . S
C331 H325 0.950 . S
C331 C330 1.327 . S
C331 C335 1.429 . S
C332 C315 1.574 . S
C332 H326 0.949 . S
C332 C336 1.368 . S
C333 C314 1.429 . S
C333 C327 1.429 . S
C333 C334 1.523 . S
C334 C315 1.368 . S
C334 C328 1.368 . S
C334 C333 1.523 . S
C335 C319 1.429 . S
C335 C331 1.429 . S
C335 C336 1.523 . S
C336 C320 1.368 . S
C336 C332 1.368 . S
C336 C335 1.523 . S
H337 C312 0.950 . S
H338 C314 0.950 . S
H339 C315 0.949 . S
H340 C317 0.950 . S
H341 C319 0.950 . S
C342 C343 1.349 . S
C342 C344 1.327 . S
C342 H367 0.950 . S
C343 C342 1.349 . S
C343 C359 1.349 . S
C344 C342 1.327 . S
C344 C363 1.429 1_554 S
C344 H368 0.950 1_554 S
C345 C362 1.574 . S
C345 C364 1.368 . S
C345 H369 0.949 . S
H346 C350 0.949 . S
C347 C348 1.349 . S
C347 C349 1.327 . S
C347 H370 0.950 . S
C348 C347 1.349 . S
C348 C360 1.349 . S
C349 C347 1.327 . S
C349 C365 1.429 . S
C349 H371 0.950 . S
C350 H346 0.949 . S
C350 C358 1.574 . S
C350 C366 1.368 . S
H351 C359 0.950 . S
H352 C357 0.950 . S
H353 C358 0.949 . S
H354 C360 0.950 . S
H355 C361 0.950 . S
H356 C362 0.949 . S
C357 H352 0.950 . S
C357 C359 1.327 . S
C357 C363 1.429 1_554 S
C358 C350 1.574 . S
C358 H353 0.949 . S
C358 C364 1.368 . S
C359 C343 1.349 . S
C359 H351 0.950 . S
C359 C357 1.327 . S
C360 C348 1.349 . S
C360 H354 0.950 . S
C360 C361 1.327 . S
C361 H355 0.950 . S
C361 C360 1.327 . S
C361 C365 1.429 . S
C362 C345 1.574 . S
C362 H356 0.949 . S
C362 C366 1.368 . S
C363 C344 1.429 1_556 S
C363 C357 1.429 1_556 S
C363 C364 1.523 . S
C364 C345 1.368 . S
C364 C358 1.368 . S
C364 C363 1.523 . S
C365 C349 1.429 . S
C365 C361 1.429 . S
C365 C366 1.523 . S
C366 C350 1.368 . S
C366 C362 1.368 . S
C366 C365 1.523 . S
H367 C342 0.950 . S
H368 C344 0.950 1_556 S
H369 C345 0.949 . S
H370 C347 0.950 . S
H371 C349 0.950 . S
C372 C373 1.349 . S
C372 C374 1.327 . S
C372 H397 0.950 . S
C373 C372 1.349 . S
C373 C389 1.349 . S
C374 C372 1.327 . S
C374 C393 1.429 . S
C374 H398 0.950 . S
C375 C392 1.574 . S
C375 C394 1.368 . S
C375 H399 0.949 . S
H376 C380 0.949 . S
C377 C378 1.349 . S
C377 C379 1.327 . S
C377 H400 0.950 . S
C378 C377 1.349 . S
C378 C390 1.349 . S
C379 C377 1.327 . S
C379 C395 1.429 1_556 S
C379 H401 0.950 1_556 S
C380 H376 0.949 . S
C380 C388 1.574 . S
C380 C396 1.368 . S
H381 C389 0.950 . S
H382 C387 0.950 . S
H383 C388 0.949 . S
H384 C390 0.950 . S
H385 C391 0.950 1_554 S
H386 C392 0.949 . S
C387 H382 0.950 . S
C387 C389 1.327 . S
C387 C393 1.429 . S
C388 C380 1.574 . S
C388 H383 0.949 . S
C388 C394 1.368 . S
C389 C373 1.349 . S
C389 H381 0.950 . S
C389 C387 1.327 . S
C390 C378 1.349 . S
C390 H384 0.950 . S
C390 C391 1.327 . S
C391 H385 0.950 1_556 S
C391 C390 1.327 . S
C391 C395 1.429 1_556 S
C392 C375 1.574 . S
C392 H386 0.949 . S
C392 C396 1.368 . S
C393 C374 1.429 . S
C393 C387 1.429 . S
C393 C394 1.523 . S
C394 C375 1.368 . S
C394 C388 1.368 . S
C394 C393 1.523 . S
C395 C379 1.429 1_554 S
C395 C391 1.429 1_554 S
C395 C396 1.523 . S
C396 C380 1.368 . S
C396 C392 1.368 . S
C396 C395 1.523 . S
H397 C372 0.950 . S
H398 C374 0.950 . S
H399 C375 0.949 . S
H400 C377 0.950 . S
H401 C379 0.950 1_554 S
C402 C403 1.349 . S
C402 C404 1.327 . S
C402 H427 0.950 . S
C403 C402 1.349 . S
C403 C419 1.349 . S
C404 C402 1.327 . S
C404 C423 1.429 . S
C404 H428 0.950 . S
C405 C422 1.574 . S
C405 C424 1.368 . S
C405 H429 0.949 . S
H406 C410 0.949 . S
C407 C408 1.349 . S
C407 C409 1.327 . S
C407 H430 0.950 . S
C408 C407 1.349 . S
C408 C420 1.349 . S
C409 C407 1.327 . S
C409 C425 1.429 . S
C409 H431 0.950 . S
C410 H406 0.949 . S
C410 C418 1.574 . S
C410 C426 1.368 . S
H411 C419 0.950 . S
H412 C417 0.950 . S
H413 C418 0.949 . S
H414 C420 0.950 . S
H415 C421 0.950 . S
H416 C422 0.949 . S
C417 H412 0.950 . S
C417 C419 1.327 . S
C417 C423 1.429 . S
C418 C410 1.574 . S
C418 H413 0.949 . S
C418 C424 1.368 . S
C419 C403 1.349 . S
C419 H411 0.950 . S
C419 C417 1.327 . S
C420 C408 1.349 . S
C420 H414 0.950 . S
C420 C421 1.327 . S
C421 H415 0.950 . S
C421 C420 1.327 . S
C421 C425 1.429 . S
C422 C405 1.574 . S
C422 H416 0.949 . S
C422 C426 1.368 . S
C423 C404 1.429 . S
C423 C417 1.429 . S
C423 C424 1.523 . S
C424 C405 1.368 . S
C424 C418 1.368 . S
C424 C423 1.523 . S
C425 C409 1.429 . S
C425 C421 1.429 . S
C425 C426 1.523 . S
C426 C410 1.368 . S
C426 C422 1.368 . S
C426 C425 1.523 . S
H427 C402 0.950 . S
H428 C404 0.950 . S
H429 C405 0.949 . S
H430 C407 0.950 . S
H431 C409 0.950 . S
C432 C433 1.349 . S
C432 C434 1.327 . S
C432 H457 0.950 . S
C433 C432 1.349 . S
C433 C449 1.349 . S
C434 C432 1.327 . S
C434 C453 1.429 . S
C434 H458 0.950 . S
C435 C452 1.574 . S
C435 C454 1.368 . S
C435 H459 0.949 . S
H436 C440 0.949 . S
C437 C438 1.349 . S
C437 C439 1.327 . S
C437 H460 0.950 . S
C438 C437 1.349 . S
C438 C450 1.349 . S
C439 C437 1.327 . S
C439 C455 1.429 1_554 S
C439 H461 0.950 . S
C440 H436 0.949 . S
C440 C448 1.574 . S
C440 C456 1.368 . S
H441 C449 0.950 . S
H442 C447 0.950 . S
H443 C448 0.949 . S
H444 C450 0.950 . S
H445 C451 0.950 1_556 S
H446 C452 0.949 . S
C447 H442 0.950 . S
C447 C449 1.327 . S
C447 C453 1.429 . S
C448 C440 1.574 . S
C448 H443 0.949 . S
C448 C454 1.368 . S
C449 C433 1.349 . S
C449 H441 0.950 . S
C449 C447 1.327 . S
C450 C438 1.349 . S
C450 H444 0.950 . S
C450 C451 1.327 . S
C451 H445 0.950 1_554 S
C451 C450 1.327 . S
C451 C455 1.429 1_554 S
C452 C435 1.574 . S
C452 H446 0.949 . S
C452 C456 1.368 . S
C453 C434 1.429 . S
C453 C447 1.429 . S
C453 C454 1.523 . S
C454 C435 1.368 . S
C454 C448 1.368 . S
C454 C453 1.523 . S
C455 C439 1.429 1_556 S
C455 C451 1.429 1_556 S
C455 C456 1.523 . S
C456 C440 1.368 . S
C456 C452 1.368 . S
C456 C455 1.523 . S
H457 C432 0.950 . S
H458 C434 0.950 . S
H459 C435 0.949 . S
H460 C437 0.950 . S
H461 C439 0.950 . S
C462 C463 1.349 . S
C462 C464 1.327 . S
C462 H487 0.950 . S
C463 C462 1.349 . S
C463 C479 1.349 . S
C464 C462 1.327 . S
C464 C483 1.429 . S
C464 H488 0.950 . S
C465 C482 1.574 . S
C465 C484 1.368 . S
C465 H489 0.949 . S
H466 C470 0.949 . S
C467 C468 1.349 . S
C467 C469 1.327 . S
C467 H490 0.950 . S
C468 C467 1.349 . S
C468 C480 1.349 . S
C469 C467 1.327 . S
C469 C485 1.429 1_556 S
C469 H491 0.950 1_556 S
C470 H466 0.949 . S
C470 C478 1.574 . S
C470 C486 1.368 . S
H471 C479 0.950 . S
H472 C477 0.950 . S
H473 C478 0.949 . S
H474 C480 0.950 . S
H475 C481 0.950 1_554 S
H476 C482 0.949 . S
C477 H472 0.950 . S
C477 C479 1.327 . S
C477 C483 1.429 . S
C478 C470 1.574 . S
C478 H473 0.949 . S
C478 C484 1.368 . S
C479 C463 1.349 . S
C479 H471 0.950 . S
C479 C477 1.327 . S
C480 C468 1.349 . S
C480 H474 0.950 . S
C480 C481 1.327 . S
C481 H475 0.950 1_556 S
C481 C480 1.327 . S
C481 C485 1.429 1_556 S
C482 C465 1.574 . S
C482 H476 0.949 . S
C482 C486 1.368 . S
C483 C464 1.429 . S
C483 C477 1.429 . S
C483 C484 1.523 . S
C484 C465 1.368 . S
C484 C478 1.368 . S
C484 C483 1.523 . S
C485 C469 1.429 1_554 S
C485 C481 1.429 1_554 S
C485 C486 1.523 . S
C486 C470 1.368 . S
C486 C482 1.368 . S
C486 C485 1.523 . S
H487 C462 0.950 . S
H488 C464 0.950 . S
H489 C465 0.949 . S
H490 C467 0.950 . S
H491 C469 0.950 1_554 S
C492 C493 1.349 . S
C492 C494 1.327 . S
C492 H517 0.950 . S
C493 C492 1.349 . S
C493 C509 1.349 . S
C494 C492 1.327 . S
C494 C513 1.429 . S
C494 H518 0.950 . S
C495 C512 1.574 . S
C495 C514 1.368 . S
C495 H519 0.949 . S
H496 C500 0.949 . S
C497 C498 1.349 . S
C497 C499 1.327 . S
C497 H520 0.950 . S
C498 C497 1.349 . S
C498 C510 1.349 . S
C499 C497 1.327 . S
C499 C515 1.429 . S
C499 H521 0.950 . S
C500 H496 0.949 . S
C500 C508 1.574 . S
C500 C516 1.368 . S
H501 C509 0.950 . S
H502 C507 0.950 . S
H503 C508 0.949 . S
H504 C510 0.950 . S
H505 C511 0.950 . S
H506 C512 0.949 . S
C507 H502 0.950 . S
C507 C509 1.327 . S
C507 C513 1.429 . S
C508 C500 1.574 . S
C508 H503 0.949 . S
C508 C514 1.368 . S
C509 C493 1.349 . S
C509 H501 0.950 . S
C509 C507 1.327 . S
C510 C498 1.349 . S
C510 H504 0.950 . S
C510 C511 1.327 . S
C511 H505 0.950 . S
C511 C510 1.327 . S
C511 C515 1.429 . S
C512 C495 1.574 . S
C512 H506 0.949 . S
C512 C516 1.368 . S
C513 C494 1.429 . S
C513 C507 1.429 . S
C513 C514 1.523 . S
C514 C495 1.368 . S
C514 C508 1.368 . S
C514 C513 1.523 . S
C515 C499 1.429 . S
C515 C511 1.429 . S
C515 C516 1.523 . S
C516 C500 1.368 . S
C516 C512 1.368 . S
C516 C515 1.523 . S
H517 C492 0.950 . S
H518 C494 0.950 . S
H519 C495 0.949 . S
H520 C497 0.950 . S
H521 C499 0.950 . S
C522 C523 1.349 . S
C522 C524 1.327 . S
C522 H547 0.950 . S
C523 C522 1.349 . S
C523 C539 1.349 . S
C524 C522 1.327 . S
C524 C543 1.429 . S
C524 H548 0.950 . S
C525 C542 1.574 . S
C525 C544 1.368 . S
C525 H549 0.949 . S
H526 C530 0.949 . S
C527 C528 1.349 . S
C527 C529 1.327 . S
C527 H550 0.950 . S
C528 C527 1.349 . S
C528 C540 1.349 . S
C529 C527 1.327 . S
C529 C545 1.429 . S
C529 H551 0.950 . S
C530 H526 0.949 . S
C530 C538 1.574 . S
C530 C546 1.368 . S
H531 C539 0.950 . S
H532 C537 0.950 . S
H533 C538 0.949 . S
H534 C540 0.950 . S
H535 C541 0.950 . S
H536 C542 0.949 . S
C537 H532 0.950 . S
C537 C539 1.327 . S
C537 C543 1.429 . S
C538 C530 1.574 . S
C538 H533 0.949 . S
C538 C544 1.368 . S
C539 C523 1.349 . S
C539 H531 0.950 . S
C539 C537 1.327 . S
C540 C528 1.349 . S
C540 H534 0.950 . S
C540 C541 1.327 . S
C541 H535 0.950 . S
C541 C540 1.327 . S
C541 C545 1.429 . S
C542 C525 1.574 . S
C542 H536 0.949 . S
C542 C546 1.368 . S
C543 C524 1.429 . S
C543 C537 1.429 . S
C543 C544 1.523 . S
C544 C525 1.368 . S
C544 C538 1.368 . S
C544 C543 1.523 . S
C545 C529 1.429 . S
C545 C541 1.429 . S
C545 C546 1.523 . S
C546 C530 1.368 . S
C546 C542 1.368 . S
C546 C545 1.523 . S
H547 C522 0.950 . S
H548 C524 0.950 . S
H549 C525 0.949 . S
H550 C527 0.950 . S
H551 C529 0.950 . S
C552 C553 1.349 . S
C552 C554 1.327 . S
C552 H577 0.950 . S
C553 C552 1.349 . S
C553 C569 1.349 . S
C554 C552 1.327 . S
C554 C573 1.429 . S
C554 H578 0.950 . S
C555 C572 1.574 . S
C555 C574 1.368 . S
C555 H579 0.949 . S
H556 C560 0.949 . S
C557 C558 1.349 . S
C557 C559 1.327 . S
C557 H580 0.950 . S
C558 C557 1.349 . S
C558 C570 1.349 . S
C559 C557 1.327 . S
C559 C575 1.429 . S
C559 H581 0.950 . S
C560 H556 0.949 . S
C560 C568 1.574 . S
C560 C576 1.368 . S
H561 C569 0.950 . S
H562 C567 0.950 . S
H563 C568 0.949 . S
H564 C570 0.950 . S
H565 C571 0.950 . S
H566 C572 0.949 . S
C567 H562 0.950 . S
C567 C569 1.327 . S
C567 C573 1.429 . S
C568 C560 1.574 . S
C568 H563 0.949 . S
C568 C574 1.368 . S
C569 C553 1.349 . S
C569 H561 0.950 . S
C569 C567 1.327 . S
C570 C558 1.349 . S
C570 H564 0.950 . S
C570 C571 1.327 . S
C571 H565 0.950 . S
C571 C570 1.327 . S
C571 C575 1.429 . S
C572 C555 1.574 . S
C572 H566 0.949 . S
C572 C576 1.368 . S
C573 C554 1.429 . S
C573 C567 1.429 . S
C573 C574 1.523 . S
C574 C555 1.368 . S
C574 C568 1.368 . S
C574 C573 1.523 . S
C575 C559 1.429 . S
C575 C571 1.429 . S
C575 C576 1.523 . S
C576 C560 1.368 . S
C576 C572 1.368 . S
C576 C575 1.523 . S
H577 C552 0.950 . S
H578 C554 0.950 . S
H579 C555 0.949 . S
H580 C557 0.950 . S
H581 C559 0.950 . S
C582 C583 1.349 . S
C582 C584 1.327 . S
C582 H607 0.950 . S
C583 C582 1.349 . S
C583 C599 1.349 . S
C584 C582 1.327 . S
C584 C603 1.429 . S
C584 H608 0.950 . S
C585 C602 1.574 . S
C585 C604 1.368 . S
C585 H609 0.949 . S
H586 C590 0.949 . S
C587 C588 1.349 . S
C587 C589 1.327 . S
C587 H610 0.950 . S
C588 C587 1.349 . S
C588 C600 1.349 . S
C589 C587 1.327 . S
C589 C605 1.429 . S
C589 H611 0.950 . S
C590 H586 0.949 . S
C590 C598 1.574 . S
C590 C606 1.368 . S
H591 C599 0.950 . S
H592 C597 0.950 . S
H593 C598 0.949 . S
H594 C600 0.950 . S
H595 C601 0.950 . S
H596 C602 0.949 . S
C597 H592 0.950 . S
C597 C599 1.327 . S
C597 C603 1.429 . S
C598 C590 1.574 . S
C598 H593 0.949 . S
C598 C604 1.368 . S
C599 C583 1.349 . S
C599 H591 0.950 . S
C599 C597 1.327 . S
C600 C588 1.349 . S
C600 H594 0.950 . S
C600 C601 1.327 . S
C601 H595 0.950 . S
C601 C600 1.327 . S
C601 C605 1.429 . S
C602 C585 1.574 . S
C602 H596 0.949 . S
C602 C606 1.368 . S
C603 C584 1.429 . S
C603 C597 1.429 . S
C603 C604 1.523 . S
C604 C585 1.368 . S
C604 C598 1.368 . S
C604 C603 1.523 . S
C605 C589 1.429 . S
C605 C601 1.429 . S
C605 C606 1.523 . S
C606 C590 1.368 . S
C606 C602 1.368 . S
C606 C605 1.523 . S
H607 C582 0.950 . S
H608 C584 0.950 . S
H609 C585 0.949 . S
H610 C587 0.950 . S
H611 C589 0.950 . S
C612 C613 1.349 . S
C612 C614 1.327 . S
C612 H637 0.950 . S
C613 C612 1.349 . S
C613 C629 1.349 . S
C614 C612 1.327 . S
C614 C633 1.429 . S
C614 H638 0.950 . S
C615 C632 1.574 . S
C615 C634 1.368 . S
C615 H639 0.949 . S
H616 C620 0.949 . S
C617 C618 1.349 . S
C617 C619 1.327 . S
C617 H640 0.950 . S
C618 C617 1.349 . S
C618 C630 1.349 . S
C619 C617 1.327 . S
C619 C635 1.429 . S
C619 H641 0.950 . S
C620 H616 0.949 . S
C620 C628 1.574 . S
C620 C636 1.368 . S
H621 C629 0.950 . S
H622 C627 0.950 . S
H623 C628 0.949 . S
H624 C630 0.950 . S
H625 C631 0.950 . S
H626 C632 0.949 . S
C627 H622 0.950 . S
C627 C629 1.327 . S
C627 C633 1.429 . S
C628 C620 1.574 . S
C628 H623 0.949 . S
C628 C634 1.368 . S
C629 C613 1.349 . S
C629 H621 0.950 . S
C629 C627 1.327 . S
C630 C618 1.349 . S
C630 H624 0.950 . S
C630 C631 1.327 . S
C631 H625 0.950 . S
C631 C630 1.327 . S
C631 C635 1.429 . S
C632 C615 1.574 . S
C632 H626 0.949 . S
C632 C636 1.368 . S
C633 C614 1.429 . S
C633 C627 1.429 . S
C633 C634 1.523 . S
C634 C615 1.368 . S
C634 C628 1.368 . S
C634 C633 1.523 . S
C635 C619 1.429 . S
C635 C631 1.429 . S
C635 C636 1.523 . S
C636 C620 1.368 . S
C636 C632 1.368 . S
C636 C635 1.523 . S
H637 C612 0.950 . S
H638 C614 0.950 . S
H639 C615 0.949 . S
H640 C617 0.950 . S
H641 C619 0.950 . S
C642 C643 1.349 . S
C642 C644 1.327 . S
C642 H667 0.950 . S
C643 C642 1.349 . S
C643 C659 1.349 . S
C644 C642 1.327 . S
C644 C663 1.429 . S
C644 H668 0.950 . S
C645 C662 1.574 . S
C645 C664 1.368 . S
C645 H669 0.949 . S
H646 C650 0.949 . S
C647 C648 1.349 . S
C647 C649 1.327 . S
C647 H670 0.950 . S
C648 C647 1.349 . S
C648 C660 1.349 . S
C649 C647 1.327 . S
C649 C665 1.429 . S
C649 H671 0.950 . S
C650 H646 0.949 . S
C650 C658 1.574 . S
C650 C666 1.368 . S
H651 C659 0.950 . S
H652 C657 0.950 . S
H653 C658 0.949 . S
H654 C660 0.950 . S
H655 C661 0.950 . S
H656 C662 0.949 . S
C657 H652 0.950 . S
C657 C659 1.327 . S
C657 C663 1.429 . S
C658 C650 1.574 . S
C658 H653 0.949 . S
C658 C664 1.368 . S
C659 C643 1.349 . S
C659 H651 0.950 . S
C659 C657 1.327 . S
C660 C648 1.349 . S
C660 H654 0.950 . S
C660 C661 1.327 . S
C661 H655 0.950 . S
C661 C660 1.327 . S
C661 C665 1.429 . S
C662 C645 1.574 . S
C662 H656 0.949 . S
C662 C666 1.368 . S
C663 C644 1.429 . S
C663 C657 1.429 . S
C663 C664 1.523 . S
C664 C645 1.368 . S
C664 C658 1.368 . S
C664 C663 1.523 . S
C665 C649 1.429 . S
C665 C661 1.429 . S
C665 C666 1.523 . S
C666 C650 1.368 . S
C666 C662 1.368 . S
C666 C665 1.523 . S
H667 C642 0.950 . S
H668 C644 0.950 . S
H669 C645 0.949 . S
H670 C647 0.950 . S
H671 C649 0.950 . S
C133 C114 1.656 . S
C138 C5 1.662 . S
C163 C8 1.656 . S
C168 C31 1.656 . S
C193 C26 1.656 . S
C198 C49 1.656 . S
C223 C52 1.656 . S
C228 C75 1.662 . S
C253 C93 1.656 . S
C258 C70 1.656 . S
C283 C119 1.656 . S
C288 C96 1.656 . S
C313 C4 1.099 . S
C318 C7 1.099 . S
C343 C30 1.099 . S
C348 C28 1.099 . S
C373 C48 1.099 . S
C378 C51 1.099 . S
C403 C74 1.099 . S
C408 C72 1.099 . S
C433 C95 1.099 . S
C438 C92 1.099 . S
C463 C118 1.099 . S
C468 C116 1.099 . S
C493 C9 1.072 . S
C498 C94 1.072 . S
C523 C27 1.072 . S
C528 C117 1.072 . S
C553 C6 1.072 . S
C558 C53 1.072 . S
C583 C29 1.072 . S
C588 C71 1.072 . S
C613 C97 1.072 . S
C618 C50 1.072 . S
C643 C73 1.072 . S
C648 C115 1.072 . S
