# Generated by pormake.
# Topology upa, (4)-cn, num edge types: 1
# Building blocks:
#     Node 0, Type 0, BuildingBlock: UXUYUI_clean_sbu_0, # of connection points: 4
#     Node 1, Type 0, BuildingBlock: UXUYUI_clean_sbu_0, # of connection points: 4
#     Node 2, Type 0, BuildingBlock: UXUYUI_clean_sbu_0, # of connection points: 4
#     Node 3, Type 0, BuildingBlock: UXUYUI_clean_sbu_0, # of connection points: 4
#     Node 4, Type 0, BuildingBlock: UXUYUI_clean_sbu_0, # of connection points: 4
#     Node 5, Type 0, BuildingBlock: UXUYUI_clean_sbu_0, # of connection points: 4
#     Node 6, Type 0, BuildingBlock: UXUYUI_clean_sbu_0, # of connection points: 4
#     Node 7, Type 0, BuildingBlock: UXUYUI_clean_sbu_0, # of connection points: 4
#     Edge 8, Type (0, 0), BuildingBlock: OJICUG_clean_linker_0, # of connection points: 2
#     Edge 9, Type (0, 0), BuildingBlock: OJICUG_clean_linker_0, # of connection points: 2
#     Edge 10, Type (0, 0), BuildingBlock: OJICUG_clean_linker_0, # of connection points: 2
#     Edge 11, Type (0, 0), BuildingBlock: OJICUG_clean_linker_0, # of connection points: 2
#     Edge 12, Type (0, 0), BuildingBlock: OJICUG_clean_linker_0, # of connection points: 2
#     Edge 13, Type (0, 0), BuildingBlock: OJICUG_clean_linker_0, # of connection points: 2
#     Edge 14, Type (0, 0), BuildingBlock: OJICUG_clean_linker_0, # of connection points: 2
#     Edge 15, Type (0, 0), BuildingBlock: OJICUG_clean_linker_0, # of connection points: 2
#     Edge 16, Type (0, 0), BuildingBlock: OJICUG_clean_linker_0, # of connection points: 2
#     Edge 17, Type (0, 0), BuildingBlock: OJICUG_clean_linker_0, # of connection points: 2
#     Edge 18, Type (0, 0), BuildingBlock: OJICUG_clean_linker_0, # of connection points: 2
#     Edge 19, Type (0, 0), BuildingBlock: OJICUG_clean_linker_0, # of connection points: 2
#     Edge 20, Type (0, 0), BuildingBlock: OJICUG_clean_linker_0, # of connection points: 2
#     Edge 21, Type (0, 0), BuildingBlock: OJICUG_clean_linker_0, # of connection points: 2
#     Edge 22, Type (0, 0), BuildingBlock: OJICUG_clean_linker_0, # of connection points: 2
#     Edge 23, Type (0, 0), BuildingBlock: OJICUG_clean_linker_0, # of connection points: 2
# Relax obj value: 0.344
# Max RMSD: 0.248
# Mean RMSD: 0.248
data_MOF--net-upa--node1-UXUYUI_clean_sbu_0--edge1-OJICUG_clean_linker_0
_symmetry_space_group_name_H-M    P1
_symmetry_Int_Tables_number       1
_symmetry_cell_setting            triclinic
loop_
_symmetry_equiv_pos_as_xyz
'x, y, z'
_cell_length_a     31.63526
_cell_length_b     31.345255
_cell_length_c     51.637126
_cell_angle_alpha  89.972205
_cell_angle_beta   89.975905
_cell_angle_gamma 89.979292
loop_
_atom_site_label
_atom_site_type_symbol
_atom_site_fract_x
_atom_site_fract_y
_atom_site_fract_z
_atom_type_partial_charge
Li0 Li 0.15593 0.23197 0.31594 0.0
Li1 Li 0.1919 0.21622 0.35896 0.0
Li2 Li 0.23114 0.2088 0.3167 0.0
Li3 Li 0.17449 0.16197 0.3277 0.0
C4 C 0.1954 0.30266 0.34018 0.0
N5 N 0.17414 0.38396 0.3562 0.0
C6 C 0.16268 0.30869 0.35798 0.0
C7 C 0.21734 0.33792 0.33052 0.0
C8 C 0.15241 0.35005 0.36586 0.0
C9 C 0.20608 0.37879 0.33884 0.0
C10 C 0.10361 0.17474 0.35456 0.0
C11 C 0.07606 0.1223 0.38434 0.0
N12 N 0.03971 0.12049 0.37033 0.0
C13 C 0.06584 0.17258 0.34058 0.0
C14 C 0.10874 0.1495 0.37668 0.0
C15 C 0.03398 0.14484 0.34881 0.0
C16 C 0.09339 0.23393 0.27876 0.0
N17 N 0.10926 0.25894 0.29797 0.0
C18 C 0.0504 0.30674 0.2936 0.0
C19 C 0.08873 0.29513 0.30542 0.0
C20 C 0.03339 0.28098 0.27387 0.0
C21 C 0.05588 0.24457 0.26627 0.0
H22 H 0.10855 0.20419 0.27396 0.0
H23 H 0.10093 0.31411 0.32114 0.0
C24 C 0.23707 0.22979 0.40569 0.0
N25 N 0.19767 0.22808 0.39517 0.0
C26 C 0.24223 0.23102 0.43261 0.0
C27 C 0.16622 0.22994 0.43725 0.0
C28 C 0.16253 0.22942 0.41032 0.0
C29 C 0.20646 0.22977 0.4487 0.0
H30 H 0.26449 0.22824 0.39319 0.0
H31 H 0.13155 0.22827 0.40152 0.0
C32 C 0.1927 0.2058 0.26984 0.0
N33 N 0.20732 0.23969 0.22124 0.0
C34 C 0.19059 0.17977 0.24792 0.0
C35 C 0.20219 0.24914 0.26703 0.0
C36 C 0.1981 0.19748 0.22352 0.0
C37 C 0.20949 0.26564 0.24229 0.0
C38 C 0.24116 0.12923 0.35286 0.0
C39 C 0.25596 0.10184 0.33355 0.0
C40 C 0.23975 0.11535 0.37857 0.0
C41 C 0.26879 0.06065 0.34028 0.0
C42 C 0.25297 0.07396 0.38452 0.0
N43 N 0.26705 0.04768 0.3654 0.0
C44 C 0.31504 0.24014 0.31078 0.0
C45 C 0.2959 0.18524 0.28157 0.0
C46 C 0.35592 0.24144 0.30042 0.0
N47 N 0.28606 0.2123 0.30125 0.0
C48 C 0.33617 0.18581 0.27044 0.0
C49 C 0.36709 0.21403 0.27989 0.0
H50 H 0.30657 0.26091 0.32668 0.0
H51 H 0.27252 0.1629 0.27459 0.0
C52 C 0.12298 0.1069 0.30244 0.0
N53 N 0.14901 0.10731 0.32333 0.0
C54 C 0.09145 0.07624 0.30026 0.0
C55 C 0.11668 0.04406 0.33987 0.0
C56 C 0.1475 0.07591 0.34149 0.0
C57 C 0.08686 0.04517 0.31965 0.0
H58 H 0.12416 0.13272 0.28862 0.0
H59 H 0.16747 0.07746 0.35838 0.0
O60 O 0.20645 0.26249 0.33238 0.0
O61 O 0.1355 0.20115 0.34653 0.0
O62 O 0.18534 0.18856 0.29381 0.0
O63 O 0.22872 0.1697 0.34672 0.0
H64 H 0.14493 0.28186 0.36534 0.0
H65 H 0.24282 0.33371 0.31675 0.0
H66 H 0.12705 0.3552 0.37957 0.0
H67 H 0.22277 0.4064 0.33152 0.0
H68 H 0.07977 0.10233 0.40127 0.0
H69 H 0.06123 0.19187 0.32346 0.0
H70 H 0.13803 0.15017 0.38748 0.0
H71 H 0.00473 0.14261 0.33806 0.0
H72 H 0.0339 0.33504 0.30011 0.0
H73 H 0.04347 0.22313 0.25169 0.0
H74 H 0.27377 0.23066 0.44076 0.0
H75 H 0.1379 0.22936 0.44906 0.0
H76 H 0.18324 0.14617 0.24977 0.0
H77 H 0.20381 0.26995 0.28364 0.0
H78 H 0.19659 0.17767 0.20639 0.0
H79 H 0.21685 0.2991 0.23984 0.0
H80 H 0.2572 0.11219 0.31357 0.0
H81 H 0.22838 0.13624 0.39374 0.0
H82 H 0.28014 0.03898 0.32553 0.0
H83 H 0.25194 0.06269 0.40431 0.0
H84 H 0.37867 0.26321 0.30879 0.0
H85 H 0.34279 0.16447 0.25446 0.0
H86 H 0.06903 0.07908 0.28452 0.0
H87 H 0.11484 0.02032 0.35506 0.0
Li88 Li 0.29161 0.73048 0.82101 0.0
Li89 Li 0.28368 0.6933 0.86266 0.0
Li90 Li 0.33851 0.67205 0.83372 0.0
Li91 Li 0.26558 0.65273 0.82394 0.0
C92 C 0.3701 0.73812 0.86 0.0
N93 N 0.44941 0.7568 0.87927 0.0
C94 C 0.38189 0.7239 0.88462 0.0
C95 C 0.39845 0.76227 0.8453 0.0
C96 C 0.42218 0.73355 0.89398 0.0
C97 C 0.43846 0.77127 0.85535 0.0
C98 C 0.20714 0.71647 0.85386 0.0
C99 C 0.15379 0.69487 0.88451 0.0
N100 N 0.14753 0.73647 0.89098 0.0
C101 C 0.20014 0.759 0.86072 0.0
C102 C 0.18377 0.6841 0.86574 0.0
C103 C 0.16985 0.76846 0.87956 0.0
C104 C 0.27878 0.78804 0.77838 0.0
N105 N 0.28812 0.78467 0.80401 0.0
C106 C 0.29873 0.86009 0.80702 0.0
C107 C 0.29772 0.81964 0.81841 0.0
C108 C 0.29013 0.86459 0.78046 0.0
C109 C 0.27987 0.82788 0.76612 0.0
H110 H 0.27128 0.7597 0.76735 0.0
H111 H 0.30523 0.81598 0.83873 0.0
C112 C 0.26436 0.66948 0.91448 0.0
N113 N 0.27182 0.70305 0.89848 0.0
C114 C 0.26205 0.67561 0.94126 0.0
C115 C 0.27329 0.75103 0.93446 0.0
C116 C 0.27562 0.74339 0.90784 0.0
C117 C 0.26742 0.71675 0.95169 0.0
H118 H 0.2617 0.63772 0.90651 0.0
H119 H 0.28188 0.76946 0.89464 0.0
C120 C 0.33311 0.68252 0.7787 0.0
N121 N 0.3835 0.68905 0.73512 0.0
C122 C 0.33342 0.64983 0.76027 0.0
C123 C 0.35864 0.71841 0.77499 0.0
C124 C 0.35909 0.65375 0.73838 0.0
C125 C 0.38379 0.72117 0.75282 0.0
C126 C 0.31184 0.59274 0.85135 0.0
C127 C 0.32382 0.57688 0.82709 0.0
C128 C 0.31353 0.56598 0.87298 0.0
C129 C 0.33696 0.5345 0.82489 0.0
C130 C 0.32687 0.52377 0.86997 0.0
N131 N 0.3382 0.50904 0.8462 0.0
C132 C 0.40478 0.62843 0.85659 0.0
C133 C 0.41459 0.63625 0.81138 0.0
C134 C 0.43457 0.59568 0.85743 0.0
N135 N 0.39376 0.64643 0.83358 0.0
C136 C 0.4445 0.60355 0.81132 0.0
C137 C 0.45315 0.58132 0.83434 0.0
H138 H 0.38726 0.63626 0.87391 0.0
H139 H 0.40585 0.65059 0.79328 0.0
C140 C 0.23064 0.60682 0.78194 0.0
N141 N 0.23343 0.6076 0.80818 0.0
C142 C 0.22094 0.5688 0.76907 0.0
C143 C 0.21377 0.534 0.81056 0.0
C144 C 0.22288 0.57288 0.82261 0.0
C145 C 0.21457 0.53103 0.78335 0.0
H146 H 0.23886 0.63495 0.77091 0.0
H147 H 0.22532 0.57426 0.84348 0.0
O148 O 0.33086 0.72884 0.85044 0.0
O149 O 0.23753 0.70644 0.83609 0.0
O150 O 0.30803 0.6793 0.80021 0.0
O151 O 0.30025 0.63464 0.8542 0.0
H152 H 0.36035 0.70519 0.89627 0.0
H153 H 0.38963 0.77412 0.8264 0.0
H154 H 0.43183 0.72249 0.91292 0.0
H155 H 0.46077 0.78983 0.84416 0.0
H156 H 0.13561 0.67017 0.89399 0.0
H157 H 0.21822 0.78435 0.85176 0.0
H158 H 0.18911 0.651 0.86072 0.0
H159 H 0.16419 0.80121 0.88518 0.0
H160 H 0.30708 0.88743 0.81876 0.0
H161 H 0.27253 0.82997 0.74567 0.0
H162 H 0.25798 0.64807 0.95368 0.0
H163 H 0.27688 0.78337 0.94148 0.0
H164 H 0.31444 0.62149 0.76292 0.0
H165 H 0.35926 0.74372 0.78914 0.0
H166 H 0.35969 0.62866 0.724 0.0
H167 H 0.40365 0.7488 0.74972 0.0
H168 H 0.32325 0.59712 0.81016 0.0
H169 H 0.30498 0.57777 0.89196 0.0
H170 H 0.34632 0.52192 0.80624 0.0
H171 H 0.32837 0.50276 0.88657 0.0
H172 H 0.44095 0.58004 0.87572 0.0
H173 H 0.458 0.59362 0.79302 0.0
H174 H 0.22048 0.56869 0.74812 0.0
H175 H 0.20924 0.50607 0.82257 0.0
Li176 Li 0.84623 0.76324 0.31631 0.0
Li177 Li 0.81217 0.78075 0.35915 0.0
Li178 Li 0.77464 0.79207 0.31616 0.0
Li179 Li 0.8348 0.8351 0.32805 0.0
C180 C 0.80575 0.69559 0.32884 0.0
N181 N 0.8328 0.6129 0.32081 0.0
C182 C 0.82271 0.67203 0.34933 0.0
C183 C 0.8024 0.67716 0.3043 0.0
C184 C 0.83622 0.63022 0.34487 0.0
C185 C 0.81632 0.63529 0.30062 0.0
C186 C 0.90538 0.81309 0.354 0.0
C187 C 0.94254 0.86016 0.38313 0.0
N188 N 0.97726 0.85794 0.36765 0.0
C189 C 0.94156 0.81109 0.33847 0.0
C190 C 0.90595 0.83766 0.37659 0.0
C191 C 0.97753 0.83405 0.34567 0.0
C192 C 0.89788 0.74433 0.2744 0.0
N193 N 0.88948 0.73133 0.29897 0.0
C194 C 0.9556 0.69426 0.30084 0.0
C195 C 0.91691 0.70583 0.31209 0.0
C196 C 0.96631 0.70962 0.27603 0.0
C197 C 0.93605 0.73379 0.26253 0.0
H198 H 0.8765 0.76585 0.26474 0.0
H199 H 0.91026 0.69714 0.33195 0.0
C200 C 0.7654 0.77007 0.40531 0.0
N201 N 0.80494 0.76796 0.39504 0.0
C202 C 0.75965 0.76878 0.43216 0.0
C203 C 0.83527 0.76161 0.43725 0.0
C204 C 0.8395 0.76249 0.41032 0.0
C205 C 0.79502 0.76583 0.4485 0.0
H206 H 0.73854 0.77495 0.39269 0.0
H207 H 0.87057 0.76076 0.40164 0.0
C208 C 0.80617 0.83361 0.27496 0.0
N209 N 0.77092 0.88349 0.23641 0.0
C210 C 0.79209 0.87487 0.28049 0.0
C211 C 0.80216 0.8177 0.24978 0.0
C212 C 0.77444 0.89961 0.26076 0.0
C213 C 0.78429 0.8434 0.23058 0.0
C214 C 0.77154 0.86944 0.35867 0.0
C215 C 0.74733 0.90072 0.34629 0.0
C216 C 0.78616 0.87668 0.38384 0.0
C217 C 0.73891 0.93904 0.3591 0.0
C218 C 0.77696 0.91537 0.39602 0.0
N219 N 0.75378 0.94552 0.38349 0.0
C220 C 0.68745 0.81249 0.31078 0.0
C221 C 0.7158 0.77037 0.27689 0.0
C222 C 0.64781 0.81297 0.29877 0.0
N223 N 0.72043 0.79145 0.2997 0.0
C224 C 0.6768 0.7701 0.26419 0.0
C225 C 0.64197 0.7914 0.27517 0.0
H226 H 0.6918 0.82856 0.32909 0.0
H227 H 0.74247 0.75376 0.26853 0.0
C228 C 0.89482 0.88262 0.30435 0.0
N229 N 0.8668 0.88633 0.32416 0.0
C230 C 0.92861 0.9107 0.30219 0.0
C231 C 0.90237 0.94843 0.3397 0.0
C232 C 0.86919 0.91906 0.34136 0.0
C233 C 0.93354 0.94351 0.32044 0.0
H234 H 0.89299 0.85555 0.29144 0.0
H235 H 0.84722 0.921 0.35726 0.0
O236 O 0.79332 0.73686 0.33267 0.0
O237 O 0.86946 0.79162 0.34695 0.0
O238 O 0.82273 0.80839 0.29414 0.0
O239 O 0.77954 0.8314 0.34658 0.0
H240 H 0.82569 0.686 0.36841 0.0
H241 H 0.7896 0.69517 0.28822 0.0
H242 H 0.84954 0.61161 0.36051 0.0
H243 H 0.81412 0.62064 0.2817 0.0
H244 H 0.94326 0.87954 0.40045 0.0
H245 H 0.94171 0.79272 0.32077 0.0
H246 H 0.8783 0.83983 0.3888 0.0
H247 H 0.00558 0.83307 0.3337 0.0
H248 H 0.97763 0.67517 0.31194 0.0
H249 H 0.94286 0.74722 0.24366 0.0
H250 H 0.72815 0.77243 0.44008 0.0
H251 H 0.86328 0.75883 0.4492 0.0
H252 H 0.79466 0.88771 0.29978 0.0
H253 H 0.81212 0.78557 0.24516 0.0
H254 H 0.76344 0.9316 0.26483 0.0
H255 H 0.78088 0.83139 0.21105 0.0
H256 H 0.73493 0.89546 0.32704 0.0
H257 H 0.80463 0.85292 0.39387 0.0
H258 H 0.72037 0.96356 0.34969 0.0
H259 H 0.7883 0.92143 0.41544 0.0
H260 H 0.62179 0.82916 0.30822 0.0
H261 H 0.67401 0.75339 0.24592 0.0
H262 H 0.95204 0.90481 0.28734 0.0
H263 H 0.90439 0.97367 0.35394 0.0
Li264 Li 0.73262 0.35241 0.81911 0.0
Li265 Li 0.65951 0.33327 0.8266 0.0
Li266 Li 0.71061 0.3114 0.85926 0.0
Li267 Li 0.70762 0.27566 0.81546 0.0
C268 C 0.6789 0.40806 0.85416 0.0
N269 N 0.6417 0.48554 0.86584 0.0
C270 C 0.66634 0.43566 0.83433 0.0
C271 C 0.67298 0.42016 0.87996 0.0
C272 C 0.64749 0.4746 0.84061 0.0
C273 C 0.654 0.45938 0.88547 0.0
C274 C 0.67477 0.33803 0.7712 0.0
C275 C 0.63596 0.32078 0.73233 0.0
N276 N 0.63853 0.36221 0.72468 0.0
C277 C 0.67705 0.38046 0.76285 0.0
C278 C 0.6541 0.30793 0.75573 0.0
C279 C 0.65853 0.39204 0.73933 0.0
C280 C 0.77783 0.39769 0.77992 0.0
N281 N 0.76601 0.39833 0.80523 0.0
C282 C 0.77987 0.47324 0.80775 0.0
C283 C 0.76899 0.43463 0.81952 0.0
C284 C 0.78832 0.47452 0.78101 0.0
C285 C 0.78917 0.43562 0.76736 0.0
H286 H 0.77497 0.36847 0.76891 0.0
H287 H 0.75975 0.43441 0.83966 0.0
C288 C 0.58775 0.36856 0.8487 0.0
N289 N 0.60396 0.35769 0.8252 0.0
C290 C 0.55731 0.40063 0.85059 0.0
C291 C 0.55679 0.40556 0.8039 0.0
C292 C 0.58705 0.37328 0.80293 0.0
C293 C 0.54351 0.42124 0.828 0.0
H294 H 0.60179 0.35574 0.86613 0.0
H295 H 0.59901 0.36337 0.78442 0.0
C296 C 0.79754 0.30915 0.84524 0.0
N297 N 0.87466 0.33036 0.86676 0.0
C298 C 0.83293 0.2835 0.84077 0.0
C299 C 0.80138 0.34565 0.86062 0.0
C300 C 0.87165 0.29475 0.85184 0.0
C301 C 0.84064 0.35581 0.87133 0.0
C302 C 0.62481 0.26025 0.8421 0.0
C303 C 0.59953 0.25733 0.86424 0.0
C304 C 0.60883 0.24673 0.81827 0.0
C305 C 0.55849 0.24127 0.86208 0.0
C306 C 0.56765 0.23085 0.81689 0.0
N307 N 0.54352 0.2285 0.83865 0.0
C308 C 0.68012 0.31233 0.90916 0.0
C309 C 0.75082 0.2877 0.90824 0.0
C310 C 0.67807 0.30649 0.93589 0.0
N311 N 0.71596 0.30295 0.89587 0.0
C312 C 0.75045 0.28206 0.93519 0.0
C313 C 0.71362 0.29146 0.94948 0.0
H314 H 0.65286 0.3243 0.89885 0.0
H315 H 0.77887 0.27978 0.8973 0.0
C316 C 0.72009 0.21797 0.77282 0.0
N317 N 0.71297 0.22143 0.79872 0.0
C318 C 0.71974 0.17788 0.76086 0.0
C319 C 0.70676 0.1456 0.80262 0.0
C320 C 0.7067 0.18629 0.81368 0.0
C321 C 0.71281 0.14104 0.77581 0.0
H322 H 0.72537 0.24637 0.76137 0.0
H323 H 0.7009 0.18998 0.83421 0.0
O324 O 0.69674 0.36934 0.84842 0.0
O325 O 0.69309 0.3259 0.79411 0.0
O326 O 0.75954 0.29862 0.83435 0.0
O327 O 0.66484 0.2766 0.84364 0.0
H328 H 0.67057 0.42685 0.81431 0.0
H329 H 0.68303 0.39957 0.89559 0.0
H330 H 0.63733 0.49606 0.82542 0.0
H331 H 0.64909 0.46903 0.90535 0.0
H332 H 0.61983 0.29779 0.72024 0.0
H333 H 0.69257 0.40441 0.77442 0.0
H334 H 0.65192 0.27498 0.76167 0.0
H335 H 0.66002 0.42478 0.73274 0.0
H336 H 0.7786 0.50213 0.8192 0.0
H337 H 0.79644 0.43474 0.74688 0.0
H338 H 0.54773 0.41177 0.86956 0.0
H339 H 0.54587 0.41992 0.78603 0.0
H340 H 0.83048 0.25519 0.82885 0.0
H341 H 0.77436 0.36577 0.86444 0.0
H342 H 0.89931 0.27517 0.84856 0.0
H343 H 0.84403 0.3839 0.88332 0.0
H344 H 0.61138 0.26724 0.8829 0.0
H345 H 0.628 0.24859 0.80101 0.0
H346 H 0.53855 0.23893 0.87904 0.0
H347 H 0.55488 0.22041 0.79853 0.0
H348 H 0.64854 0.31324 0.94565 0.0
H349 H 0.77885 0.27081 0.94467 0.0
H350 H 0.72507 0.17566 0.74018 0.0
H351 H 0.70111 0.11806 0.81481 0.0
Li352 Li 0.67004 0.33772 0.18205 0.0
Li353 Li 0.72959 0.29288 0.19271 0.0
Li354 Li 0.68928 0.28251 0.15058 0.0
Li355 Li 0.6572 0.26611 0.19418 0.0
C356 C 0.73238 0.37013 0.15018 0.0
N357 N 0.75103 0.44593 0.12527 0.0
C358 C 0.75757 0.40081 0.16234 0.0
C359 C 0.71723 0.37782 0.12517 0.0
C360 C 0.76644 0.439 0.14949 0.0
C361 C 0.7269 0.41636 0.11294 0.0
C362 C 0.70154 0.33492 0.23471 0.0
C363 C 0.72635 0.34284 0.27865 0.0
N364 N 0.7403 0.38276 0.2729 0.0
C365 C 0.71618 0.37601 0.22928 0.0
C366 C 0.70667 0.31817 0.25962 0.0
C367 C 0.73565 0.3997 0.24882 0.0
C368 C 0.61209 0.3865 0.20647 0.0
N369 N 0.63974 0.38986 0.18645 0.0
C370 C 0.60458 0.45239 0.17113 0.0
C371 C 0.63751 0.42273 0.16932 0.0
C372 C 0.57344 0.44754 0.19043 0.0
C373 C 0.57848 0.41479 0.20874 0.0
H374 H 0.61384 0.35935 0.21935 0.0
H375 H 0.65923 0.42444 0.15328 0.0
C376 C 0.8169 0.31145 0.19466 0.0
N377 N 0.78507 0.29157 0.2076 0.0
C378 C 0.85755 0.31306 0.20521 0.0
C379 C 0.83215 0.2733 0.24216 0.0
C380 C 0.79199 0.27227 0.2308 0.0
C381 C 0.86564 0.29396 0.22934 0.0
H382 H 0.81073 0.32617 0.17612 0.0
H383 H 0.7663 0.25614 0.24054 0.0
C384 C 0.59746 0.31779 0.15755 0.0
N385 N 0.5263 0.36487 0.14517 0.0
C386 C 0.56168 0.31625 0.17345 0.0
C387 C 0.59684 0.3431 0.13525 0.0
C388 C 0.52608 0.34031 0.16689 0.0
C389 C 0.56063 0.3667 0.12935 0.0
C390 C 0.69514 0.19734 0.1811 0.0
C391 C 0.67634 0.17401 0.16114 0.0
C392 C 0.69939 0.17915 0.20567 0.0
C393 C 0.66194 0.13269 0.16615 0.0
C394 C 0.68452 0.13776 0.20991 0.0
N395 N 0.66626 0.1156 0.19023 0.0
C396 C 0.73342 0.26911 0.10366 0.0
C397 C 0.65877 0.26703 0.09982 0.0
C398 C 0.73793 0.26807 0.07671 0.0
N399 N 0.69426 0.26962 0.11456 0.0
C400 C 0.66179 0.26672 0.07283 0.0
C401 C 0.70174 0.26827 0.06098 0.0
H402 H 0.76108 0.27176 0.11587 0.0
H403 H 0.62804 0.26727 0.10897 0.0
C404 C 0.60655 0.25026 0.23691 0.0
N405 N 0.61374 0.23584 0.21249 0.0
C406 C 0.56822 0.24203 0.24926 0.0
C407 C 0.54609 0.20149 0.21188 0.0
C408 C 0.58498 0.21083 0.20008 0.0
C409 C 0.53676 0.21881 0.23635 0.0
H410 H 0.62909 0.27114 0.24606 0.0
H411 H 0.59061 0.20121 0.18027 0.0
O412 O 0.72389 0.33222 0.16231 0.0
O413 O 0.68318 0.3107 0.2157 0.0
O414 O 0.63306 0.29521 0.16399 0.0
O415 O 0.70848 0.23815 0.17676 0.0
H416 H 0.77042 0.39516 0.18144 0.0
H417 H 0.69805 0.35449 0.11529 0.0
H418 H 0.78574 0.46305 0.15873 0.0
H419 H 0.71517 0.42276 0.09365 0.0
H420 H 0.73068 0.33016 0.29795 0.0
H421 H 0.71264 0.38952 0.2102 0.0
H422 H 0.69621 0.28617 0.26415 0.0
H423 H 0.74712 0.43154 0.24482 0.0
H424 H 0.60259 0.47763 0.15688 0.0
H425 H 0.55515 0.40891 0.22365 0.0
H426 H 0.88228 0.32948 0.19468 0.0
H427 H 0.83707 0.25745 0.26055 0.0
H428 H 0.56159 0.29739 0.19097 0.0
H429 H 0.62423 0.34505 0.1228 0.0
H430 H 0.49836 0.33968 0.17916 0.0
H431 H 0.5599 0.38667 0.11226 0.0
H432 H 0.67265 0.18782 0.14205 0.0
H433 H 0.71364 0.19701 0.22134 0.0
H434 H 0.64719 0.11427 0.15092 0.0
H435 H 0.6874 0.12331 0.22885 0.0
H436 H 0.76923 0.26955 0.06825 0.0
H437 H 0.63319 0.2665 0.0613 0.0
H438 H 0.56239 0.25568 0.2682 0.0
H439 H 0.52245 0.18377 0.2012 0.0
Li440 Li 0.2104 0.22921 0.69454 0.0
Li441 Li 0.21401 0.1933 0.65079 0.0
Li442 Li 0.16226 0.17174 0.68323 0.0
Li443 Li 0.23524 0.15243 0.69106 0.0
C444 C 0.12794 0.24454 0.66729 0.0
N445 N 0.04639 0.27586 0.67001 0.0
C446 C 0.10304 0.24686 0.64498 0.0
C447 C 0.11146 0.25845 0.69092 0.0
C448 C 0.06185 0.26271 0.64677 0.0
C449 C 0.07016 0.27411 0.69193 0.0
C450 C 0.30066 0.19525 0.66519 0.0
C451 C 0.34376 0.14835 0.63921 0.0
N452 N 0.3779 0.1735 0.64396 0.0
C453 C 0.33617 0.2206 0.66984 0.0
C454 C 0.30444 0.15878 0.64977 0.0
C455 C 0.37495 0.20909 0.65892 0.0
C456 C 0.22234 0.28674 0.73728 0.0
N457 N 0.2156 0.28343 0.71134 0.0
C458 C 0.20957 0.35929 0.70755 0.0
C459 C 0.20961 0.31865 0.69641 0.0
C460 C 0.21522 0.36371 0.73439 0.0
C461 C 0.22187 0.32678 0.74931 0.0
H462 H 0.22738 0.25827 0.7487 0.0
H463 H 0.2041 0.31507 0.67585 0.0
C464 C 0.18445 0.1909 0.6008 0.0
N465 N 0.21994 0.20115 0.61417 0.0
C466 C 0.18286 0.19569 0.57399 0.0
C467 C 0.2549 0.22106 0.57481 0.0
C468 C 0.25483 0.2164 0.60184 0.0
C469 C 0.2185 0.21058 0.56043 0.0
H470 H 0.15715 0.17894 0.61108 0.0
H471 H 0.28259 0.22497 0.61286 0.0
C472 C 0.17643 0.16706 0.73859 0.0
N473 N 0.13889 0.14313 0.78478 0.0
C474 C 0.17833 0.12464 0.74698 0.0
C475 C 0.15547 0.19729 0.75384 0.0
C476 C 0.15916 0.11319 0.77034 0.0
C477 C 0.13668 0.18456 0.77708 0.0
C478 C 0.18268 0.09653 0.65584 0.0
C479 C 0.16891 0.06934 0.67559 0.0
C480 C 0.17898 0.08363 0.63004 0.0
C481 C 0.15112 0.02997 0.66919 0.0
C482 C 0.16107 0.04396 0.62442 0.0
N483 N 0.14758 0.0182 0.64394 0.0
C484 C 0.09103 0.13636 0.66074 0.0
C485 C 0.08871 0.13266 0.7065 0.0
C486 C 0.05989 0.10506 0.65874 0.0
N487 N 0.10664 0.14746 0.68432 0.0
C488 C 0.05764 0.10117 0.70543 0.0
C489 C 0.04461 0.08527 0.68129 0.0
H490 H 0.10572 0.14868 0.64337 0.0
H491 H 0.10041 0.14256 0.72506 0.0
C492 C 0.27949 0.10708 0.73055 0.0
N493 N 0.26828 0.10644 0.70514 0.0
C494 C 0.2905 0.06915 0.74321 0.0
C495 C 0.28217 0.03153 0.70274 0.0
C496 C 0.2716 0.07014 0.69088 0.0
C497 C 0.28994 0.03025 0.72955 0.0
H498 H 0.27638 0.13631 0.74152 0.0
H499 H 0.26289 0.07036 0.67066 0.0
O500 O 0.16809 0.22838 0.66611 0.0
O501 O 0.26259 0.20604 0.67592 0.0
O502 O 0.19541 0.17908 0.71586 0.0
O503 O 0.19963 0.1356 0.66167 0.0
H504 H 0.11529 0.23661 0.62647 0.0
H505 H 0.13034 0.25706 0.70831 0.0
H506 H 0.0422 0.26457 0.62967 0.0
H507 H 0.057 0.28484 0.71013 0.0
H508 H 0.34711 0.12028 0.6272 0.0
H509 H 0.33376 0.24888 0.68178 0.0
H510 H 0.27733 0.13888 0.6458 0.0
H511 H 0.4027 0.22843 0.66234 0.0
H512 H 0.20414 0.38691 0.69538 0.0
H513 H 0.22688 0.32888 0.77002 0.0
H514 H 0.15363 0.18817 0.56411 0.0
H515 H 0.28332 0.23232 0.56535 0.0
H516 H 0.19408 0.1006 0.73557 0.0
H517 H 0.15356 0.23023 0.74785 0.0
H518 H 0.16036 0.08046 0.77696 0.0
H519 H 0.12032 0.20765 0.789 0.0
H520 H 0.17141 0.0788 0.6956 0.0
H521 H 0.19 0.10389 0.6145 0.0
H522 H 0.13997 0.00885 0.68429 0.0
H523 H 0.15792 0.03364 0.60452 0.0
H524 H 0.04991 0.0946 0.63972 0.0
H525 H 0.04659 0.08716 0.72336 0.0
H526 H 0.29727 0.07003 0.76375 0.0
H527 H 0.28117 0.00263 0.69129 0.0
Li528 Li 0.27108 0.70737 0.19534 0.0
Li529 Li 0.32783 0.66164 0.18322 0.0
Li530 Li 0.34581 0.73198 0.19457 0.0
Li531 Li 0.30764 0.71566 0.15248 0.0
C532 C 0.31223 0.70544 0.24138 0.0
N533 N 0.30002 0.73949 0.29018 0.0
C534 C 0.31604 0.67961 0.26333 0.0
C535 C 0.30232 0.74867 0.24428 0.0
C536 C 0.30971 0.6974 0.28782 0.0
C537 C 0.29624 0.76524 0.26911 0.0
C538 C 0.26113 0.62716 0.16013 0.0
C539 C 0.24932 0.57014 0.12968 0.0
N540 N 0.2377 0.54415 0.14955 0.0
C541 C 0.24885 0.60003 0.18024 0.0
C542 C 0.26126 0.61226 0.13463 0.0
C543 C 0.23723 0.5581 0.1745 0.0
C544 C 0.18594 0.73468 0.2015 0.0
N545 N 0.21672 0.70939 0.21159 0.0
C546 C 0.16861 0.68175 0.24323 0.0
C547 C 0.20878 0.68308 0.23199 0.0
C548 C 0.13601 0.70707 0.23303 0.0
C549 C 0.14509 0.7339 0.21191 0.0
H550 H 0.19298 0.75492 0.18507 0.0
H551 H 0.23341 0.66239 0.23924 0.0
C552 C 0.37963 0.6063 0.2084 0.0
N553 N 0.35456 0.60737 0.18709 0.0
C554 C 0.41195 0.57645 0.21044 0.0
C555 C 0.38932 0.54601 0.16978 0.0
C556 C 0.35772 0.57712 0.16831 0.0
C557 C 0.41826 0.54667 0.19049 0.0
H558 H 0.37697 0.63096 0.22285 0.0
H559 H 0.33834 0.57913 0.15117 0.0
C560 C 0.30403 0.80164 0.17058 0.0
N561 N 0.3235 0.8823 0.15258 0.0
C562 C 0.33809 0.80755 0.15372 0.0
C563 C 0.27986 0.83673 0.1783 0.0
C564 C 0.34741 0.84857 0.14482 0.0
C565 C 0.29024 0.87727 0.169 0.0
C566 C 0.39574 0.67532 0.15371 0.0
C567 C 0.43437 0.67103 0.16659 0.0
C568 C 0.3886 0.6525 0.13087 0.0
C569 C 0.46508 0.6436 0.15653 0.0
C570 C 0.4202 0.62557 0.12136 0.0
N571 N 0.45743 0.62165 0.13431 0.0
C572 C 0.41148 0.73091 0.22858 0.0
C573 C 0.41278 0.79626 0.20564 0.0
C574 C 0.45071 0.7393 0.23951 0.0
N575 N 0.39346 0.75865 0.21161 0.0
C576 C 0.45261 0.80602 0.21622 0.0
C577 C 0.47258 0.77653 0.23277 0.0
H578 H 0.39661 0.70073 0.23257 0.0
H579 H 0.39854 0.81774 0.19182 0.0
C580 C 0.25877 0.72569 0.10738 0.0
N581 N 0.29894 0.72805 0.11659 0.0
C582 C 0.251 0.72825 0.08076 0.0
C583 C 0.32598 0.73705 0.07367 0.0
C584 C 0.33226 0.73453 0.10042 0.0
C585 C 0.28496 0.73305 0.0634 0.0
H586 H 0.23288 0.72031 0.12068 0.0
H587 H 0.36397 0.73598 0.10818 0.0
O588 O 0.31851 0.68812 0.21731 0.0
O589 O 0.2725 0.66828 0.16533 0.0
O590 O 0.29384 0.76177 0.17934 0.0
O591 O 0.36493 0.70141 0.16352 0.0
H592 H 0.32373 0.6461 0.26143 0.0
H593 H 0.29946 0.76936 0.22766 0.0
H594 H 0.31251 0.67774 0.30496 0.0
H595 H 0.28856 0.79862 0.27162 0.0
H596 H 0.2494 0.55808 0.11005 0.0
H597 H 0.24866 0.61116 0.20008 0.0
H598 H 0.27072 0.63292 0.11886 0.0
H599 H 0.22784 0.53663 0.18987 0.0
H600 H 0.16281 0.66027 0.25928 0.0
H601 H 0.12088 0.75413 0.20359 0.0
H602 H 0.43352 0.57897 0.22662 0.0
H603 H 0.39236 0.52319 0.15416 0.0
H604 H 0.35745 0.7809 0.14779 0.0
H605 H 0.25334 0.83262 0.19132 0.0
H606 H 0.37375 0.85361 0.13181 0.0
H607 H 0.27181 0.90472 0.17482 0.0
H608 H 0.44052 0.68843 0.18425 0.0
H609 H 0.35863 0.65479 0.12089 0.0
H610 H 0.49498 0.63972 0.16641 0.0
H611 H 0.41497 0.60748 0.10382 0.0
H612 H 0.4645 0.71595 0.25247 0.0
H613 H 0.46849 0.83514 0.2105 0.0
H614 H 0.21879 0.72572 0.07386 0.0
H615 H 0.35326 0.74021 0.06115 0.0
Li616 Li 0.76614 0.85236 0.68708 0.0
Li617 Li 0.83957 0.83376 0.6783 0.0
Li618 Li 0.78608 0.81249 0.6485 0.0
Li619 Li 0.79256 0.77481 0.6901 0.0
C620 C 0.8129 0.91324 0.66146 0.0
N621 N 0.8376 0.99699 0.66898 0.0
C622 C 0.82383 0.92769 0.68621 0.0
C623 C 0.81477 0.9415 0.64053 0.0
C624 C 0.83617 0.97009 0.68962 0.0
C625 C 0.82725 0.9837 0.64474 0.0
C626 C 0.83238 0.82209 0.73308 0.0
C627 C 0.883 0.78317 0.75884 0.0
N628 N 0.88174 0.81454 0.77701 0.0
C629 C 0.83168 0.85401 0.752 0.0
C630 C 0.85838 0.78646 0.73648 0.0
C631 C 0.85685 0.84959 0.77406 0.0
C632 C 0.72948 0.89782 0.72874 0.0
N633 N 0.73291 0.89703 0.70253 0.0
C634 C 0.71284 0.9705 0.69994 0.0
C635 C 0.72245 0.93165 0.68799 0.0
C636 C 0.71306 0.97353 0.72715 0.0
C637 C 0.71928 0.93581 0.7415 0.0
H638 H 0.73764 0.86976 0.73986 0.0
H639 H 0.72544 0.93028 0.66714 0.0
C640 C 0.90627 0.87756 0.65628 0.0
N641 N 0.89458 0.8598 0.67925 0.0
C642 C 0.93565 0.91068 0.65564 0.0
C643 C 0.94354 0.90403 0.70198 0.0
C644 C 0.91419 0.87083 0.70171 0.0
C645 C 0.95293 0.92569 0.6789 0.0
H646 H 0.88936 0.86939 0.6388 0.0
H647 H 0.90485 0.85674 0.71979 0.0
C648 C 0.70887 0.78936 0.65623 0.0
N649 N 0.64954 0.77065 0.61873 0.0
C650 C 0.7001 0.74694 0.64994 0.0
C651 C 0.68739 0.82229 0.64359 0.0
C652 C 0.66998 0.73813 0.6309 0.0
C653 C 0.65754 0.81216 0.62464 0.0
C654 C 0.87239 0.76803 0.65183 0.0
C655 C 0.8844 0.78244 0.62729 0.0
C656 C 0.90066 0.74385 0.66656 0.0
C657 C 0.92486 0.77302 0.61807 0.0
C658 C 0.94083 0.73509 0.65665 0.0
N659 N 0.95202 0.74978 0.63283 0.0
C660 C 0.77411 0.83719 0.59627 0.0
C661 C 0.77603 0.76244 0.60307 0.0
C662 C 0.7741 0.83132 0.56945 0.0
N663 N 0.77596 0.80302 0.61242 0.0
C664 C 0.77537 0.75506 0.57635 0.0
C665 C 0.77555 0.78984 0.5592 0.0
H666 H 0.77423 0.86904 0.60421 0.0
H667 H 0.77832 0.73585 0.61637 0.0
C668 C 0.77867 0.71689 0.73239 0.0
N669 N 0.7887 0.72042 0.70686 0.0
C670 C 0.77943 0.67698 0.74458 0.0
C671 C 0.79938 0.645 0.7038 0.0
C672 C 0.79868 0.68552 0.69248 0.0
C673 C 0.79008 0.64034 0.73026 0.0
H674 H 0.77086 0.74517 0.7434 0.0
H675 H 0.80674 0.6893 0.67225 0.0
O676 O 0.80194 0.87138 0.65746 0.0
O677 O 0.80785 0.82584 0.71136 0.0
O678 O 0.739 0.79871 0.67429 0.0
O679 O 0.83298 0.7771 0.66126 0.0
H680 H 0.82301 0.90642 0.70264 0.0
H681 H 0.80698 0.93097 0.62118 0.0
H682 H 0.84472 0.98156 0.70866 0.0
H683 H 0.82883 0.00585 0.6287 0.0
H684 H 0.90321 0.75572 0.76171 0.0
H685 H 0.81232 0.88216 0.74959 0.0
H686 H 0.8597 0.76172 0.72198 0.0
H687 H 0.85668 0.87409 0.78881 0.0
H688 H 0.70845 0.99839 0.68787 0.0
H689 H 0.71837 0.93596 0.76245 0.0
H690 H 0.94185 0.92675 0.63745 0.0
H691 H 0.95687 0.91429 0.72026 0.0
H692 H 0.71667 0.72114 0.65952 0.0
H693 H 0.69408 0.8553 0.64818 0.0
H694 H 0.66296 0.70545 0.62573 0.0
H695 H 0.64081 0.83729 0.61457 0.0
H696 H 0.86293 0.80112 0.61558 0.0
H697 H 0.89167 0.73178 0.68539 0.0
H698 H 0.93468 0.78425 0.59919 0.0
H699 H 0.96309 0.71653 0.66789 0.0
H700 H 0.77387 0.85894 0.55684 0.0
H701 H 0.77685 0.72262 0.56919 0.0
H702 H 0.77153 0.67478 0.76494 0.0
H703 H 0.80805 0.61771 0.69208 0.0
C704 C 0.03039 0.00339 0.29665 0.0
C705 C 0.04884 0.01723 0.31995 0.0
H706 H 0.97888 0.97151 0.27839 0.0
C707 C 0.02876 0.00689 0.34344 0.0
H708 H 0.04507 0.01028 0.27817 0.0
C709 C 0.99129 0.98332 0.34361 0.0
C710 C 0.97248 0.97013 0.32027 0.0
H711 H 0.04144 0.01767 0.36178 0.0
H712 H 0.97738 0.9751 0.36212 0.0
C713 C 0.99252 0.98063 0.2968 0.0
C714 C 0.51256 0.53637 0.81716 0.0
C715 C 0.4776 0.54089 0.8337 0.0
H716 H 0.56054 0.49493 0.80239 0.0
C717 C 0.46431 0.50547 0.8484 0.0
H718 H 0.52394 0.56309 0.80582 0.0
C719 C 0.48545 0.46644 0.84652 0.0
C720 C 0.5199 0.4619 0.82964 0.0
H721 H 0.4369 0.50752 0.86091 0.0
H722 H 0.47446 0.43965 0.85793 0.0
C723 C 0.53338 0.49728 0.8151 0.0
C724 C 0.51345 0.48361 0.21377 0.0
C725 C 0.53423 0.47387 0.19043 0.0
H726 H 0.45981 0.5116 0.2321 0.0
C727 C 0.51576 0.48725 0.167 0.0
H728 H 0.52676 0.4744 0.23226 0.0
C729 C 0.47789 0.51019 0.16698 0.0
C730 C 0.45696 0.5196 0.19035 0.0
H731 H 0.53018 0.47961 0.14857 0.0
H732 H 0.46552 0.52115 0.1486 0.0
C733 C 0.4751 0.50556 0.21371 0.0
C734 C 0.98727 0.03696 0.69789 0.0
C735 C 0.01929 0.04545 0.67974 0.0
H736 H 0.94133 0.99241 0.7118 0.0
C737 C 0.02926 0.01408 0.6612 0.0
H738 H 0.97843 0.06057 0.71221 0.0
C739 C 0.00799 0.97505 0.66098 0.0
C740 C 0.97659 0.96639 0.67944 0.0
H741 H 0.0543 0.01915 0.64724 0.0
H742 H 0.01655 0.95136 0.64664 0.0
C743 C 0.96622 0.99783 0.69777 0.0
C744 C 0.18939 0.19171 0.48985 0.0
C745 C 0.2108 0.22486 0.47715 0.0
H746 H 0.1765 0.15998 0.5255 0.0
C747 C 0.23625 0.25257 0.49176 0.0
H748 H 0.17026 0.16935 0.47897 0.0
C749 C 0.23912 0.24793 0.51873 0.0
C750 C 0.21717 0.21499 0.53158 0.0
H751 H 0.2531 0.27839 0.48238 0.0
H752 H 0.2578 0.27076 0.52949 0.0
C753 C 0.19285 0.18656 0.51661 0.0
C754 C 0.24397 0.69926 0.99719 0.0
C755 C 0.26945 0.72334 0.9803 0.0
H756 H 0.22912 0.68297 0.03636 0.0
C757 C 0.29849 0.75237 0.99106 0.0
H758 H 0.22088 0.677 0.98967 0.0
C759 C 0.30267 0.75643 0.01792 0.0
C760 C 0.2781 0.73141 0.0348 0.0
H761 H 0.31906 0.77114 0.97876 0.0
H762 H 0.32554 0.77893 0.02543 0.0
C763 C 0.2483 0.70315 0.02405 0.0
C764 C 0.75461 0.75379 0.51755 0.0
C765 C 0.78021 0.78313 0.53087 0.0
H766 H 0.73895 0.72548 0.4809 0.0
C767 C 0.8111 0.80587 0.51702 0.0
H768 H 0.73054 0.73587 0.52778 0.0
C769 C 0.8163 0.79951 0.49044 0.0
C770 C 0.79038 0.77066 0.47699 0.0
H771 H 0.83158 0.82834 0.52683 0.0
H772 H 0.84016 0.81782 0.48028 0.0
C773 C 0.75933 0.74794 0.49078 0.0
C774 C 0.73441 0.25284 0.99072 0.0
C775 C 0.7118 0.28574 0.97825 0.0
H776 H 0.74909 0.22156 0.02668 0.0
C777 C 0.68655 0.31291 0.99353 0.0
H778 H 0.75376 0.23087 0.97972 0.0
C779 C 0.68306 0.30671 0.02023 0.0
C780 C 0.70537 0.27377 0.03253 0.0
H781 H 0.66961 0.33941 0.98498 0.0
H782 H 0.66336 0.32823 0.03137 0.0
C783 C 0.73152 0.24719 0.01761 0.0
C784 C 0.47396 0.25438 0.25641 0.0
C785 C 0.49332 0.2169 0.2473 0.0
H786 H 0.41909 0.28322 0.27296 0.0
C787 C 0.47076 0.17841 0.24854 0.0
H788 H 0.49023 0.28473 0.2552 0.0
C789 C 0.42999 0.17733 0.2592 0.0
C790 C 0.41057 0.21488 0.26847 0.0
H791 H 0.48496 0.14904 0.24172 0.0
H792 H 0.41403 0.14687 0.26052 0.0
C793 C 0.43313 0.25345 0.26671 0.0
C794 C 0.27387 0.94312 0.78002 0.0
C795 C 0.29183 0.90733 0.76786 0.0
H796 H 0.25858 0.00939 0.77746 0.0
C797 C 0.31119 0.91268 0.74356 0.0
H798 H 0.25831 0.94001 0.79861 0.0
C799 C 0.31201 0.95274 0.73153 0.0
C800 C 0.29313 0.98845 0.74339 0.0
H801 H 0.32593 0.88588 0.73387 0.0
H802 H 0.32732 0.95563 0.71286 0.0
C803 C 0.27433 0.98306 0.76791 0.0
C804 C 0.58548 0.75077 0.25166 0.0
C805 C 0.59941 0.78915 0.2628 0.0
H806 H 0.53523 0.71715 0.2331 0.0
C807 C 0.57184 0.82451 0.26271 0.0
H808 H 0.60552 0.72275 0.25156 0.0
C809 C 0.53101 0.82114 0.25224 0.0
C810 C 0.51685 0.78224 0.2419 0.0
H811 H 0.58174 0.85473 0.27085 0.0
H812 H 0.51016 0.84852 0.25294 0.0
C813 C 0.54489 0.74741 0.24132 0.0
C814 C 0.68819 0.0906 0.74106 0.0
C815 C 0.71188 0.09806 0.76362 0.0
H816 H 0.66835 0.04542 0.71248 0.0
C817 C 0.73465 0.06411 0.77457 0.0
H818 H 0.66986 0.11606 0.73238 0.0
C819 C 0.73443 0.02379 0.76298 0.0
C820 C 0.71083 0.01605 0.74031 0.0
H821 H 0.75357 0.06901 0.7918 0.0
H822 H 0.75384 0.99905 0.7715 0.0
C823 C 0.6874 0.05004 0.72965 0.0
C824 C 0.95606 0.29857 0.278 0.0
C825 C 0.99119 0.28956 0.26224 0.0
H826 H 0.88883 0.30701 0.28001 0.0
C827 C 0.98495 0.28452 0.23546 0.0
H828 H 0.95977 0.30222 0.29873 0.0
C829 C 0.94443 0.28696 0.22478 0.0
C830 C 0.90901 0.29431 0.24062 0.0
H831 H 0.01141 0.27775 0.22278 0.0
H832 H 0.94073 0.28158 0.20418 0.0
C833 C 0.91537 0.30073 0.26732 0.0
C834 C 0.23704 0.44063 0.7359 0.0
C835 C 0.21412 0.40662 0.74667 0.0
H836 H 0.25613 0.50567 0.73919 0.0
C837 C 0.19009 0.41399 0.76912 0.0
H838 H 0.25622 0.43581 0.71876 0.0
C839 C 0.1891 0.45449 0.7806 0.0
C840 C 0.21266 0.48853 0.77012 0.0
H841 H 0.17163 0.38849 0.77766 0.0
H842 H 0.16976 0.45902 0.79768 0.0
C843 C 0.23661 0.4809 0.74756 0.0
C844 C 0.05726 0.70171 0.22791 0.0
C845 C 0.09269 0.7051 0.24416 0.0
H846 H 0.98991 0.69842 0.22515 0.0
C847 C 0.08642 0.70691 0.27108 0.0
H848 H 0.06115 0.69945 0.20711 0.0
C849 C 0.04553 0.70691 0.28147 0.0
C850 C 0.00987 0.70456 0.26521 0.0
H851 H 0.11314 0.70976 0.28408 0.0
H852 H 0.04198 0.71042 0.30222 0.0
C853 C 0.01641 0.70111 0.2383 0.0
C854 C 0.81056 0.55198 0.77929 0.0
C855 C 0.79196 0.51634 0.76722 0.0
H856 H 0.82461 0.61883 0.77715 0.0
C857 C 0.77387 0.52182 0.74251 0.0
H858 H 0.82534 0.54903 0.79811 0.0
C859 C 0.7738 0.5618 0.73044 0.0
C860 C 0.79144 0.59753 0.7428 0.0
H861 H 0.75837 0.49555 0.73278 0.0
H862 H 0.75877 0.56499 0.71169 0.0
C863 C 0.81012 0.59208 0.76729 0.0
loop_
_geom_bond_atom_site_label_1
_geom_bond_atom_site_label_2
_geom_bond_distance
_geom_bond_site_symmetry_2
_ccdc_geom_bond_type
Li0 N17 1.990 . S
Li0 O60 1.956 . S
Li0 O61 1.970 . S
Li0 O62 1.961 . S
Li1 N25 1.990 . S
Li1 O60 1.970 . S
Li1 O61 1.956 . S
Li1 O63 1.961 . S
Li2 N47 1.990 . S
Li2 O60 1.961 . S
Li2 O62 1.956 . S
Li2 O63 1.970 . S
Li3 N53 1.990 . S
Li3 O61 1.961 . S
Li3 O62 1.970 . S
Li3 O63 1.956 . S
C4 C6 1.348 . S
C4 C7 1.356 . S
C4 O60 1.325 . S
N5 C8 1.314 . S
N5 C9 1.279 . S
C6 C4 1.348 . S
C6 C8 1.353 . S
C6 H64 0.929 . S
C7 C4 1.356 . S
C7 C9 1.358 . S
C7 H65 0.930 . S
C8 N5 1.314 . S
C8 C6 1.353 . S
C8 H66 0.930 . S
C9 N5 1.279 . S
C9 C7 1.358 . S
C9 H67 0.930 . S
C10 C13 1.348 1_455 S
C10 C14 1.356 . S
C10 O61 1.325 . S
C11 N12 1.279 . S
C11 C14 1.358 1_655 S
C11 H68 0.930 . S
N12 C11 1.279 . S
N12 C15 1.314 . S
C13 C10 1.348 1_655 S
C13 C15 1.353 . S
C13 H69 0.929 . S
C14 C10 1.356 . S
C14 C11 1.358 1_455 S
C14 H70 0.930 . S
C15 N12 1.314 . S
C15 C13 1.353 . S
C15 H71 0.930 . S
C16 N17 1.314 1_655 S
C16 C21 1.353 . S
C16 H22 0.930 . S
N17 Li0 1.990 . S
N17 C16 1.314 1_455 S
N17 C19 1.279 . S
C18 C19 1.358 1_655 S
C18 C20 1.356 . S
C18 H72 0.930 . S
C19 N17 1.279 . S
C19 C18 1.358 1_455 S
C19 H23 0.930 . S
C20 C18 1.356 . S
C20 C21 1.348 . S
C21 C16 1.353 . S
C21 C20 1.348 . S
C21 H73 0.929 . S
H22 C16 0.930 . S
H23 C19 0.930 . S
C24 N25 1.314 . S
C24 C26 1.353 . S
C24 H30 0.930 . S
N25 Li1 1.990 . S
N25 C24 1.314 . S
N25 C28 1.279 . S
C26 C24 1.353 . S
C26 C29 1.348 . S
C26 H74 0.929 . S
C27 C28 1.358 . S
C27 C29 1.356 . S
C27 H75 0.930 . S
C28 N25 1.279 . S
C28 C27 1.358 . S
C28 H31 0.930 . S
C29 C26 1.348 . S
C29 C27 1.356 . S
H30 C24 0.930 . S
H31 C28 0.930 . S
C32 C34 1.348 . S
C32 C35 1.356 . S
C32 O62 1.325 . S
N33 C36 1.314 . S
N33 C37 1.279 . S
C34 C32 1.348 . S
C34 C36 1.353 . S
C34 H76 0.929 . S
C35 C32 1.356 . S
C35 C37 1.358 . S
C35 H77 0.930 . S
C36 N33 1.314 . S
C36 C34 1.353 . S
C36 H78 0.930 . S
C37 N33 1.279 . S
C37 C35 1.358 . S
C37 H79 0.930 . S
C38 C39 1.348 . S
C38 C40 1.356 . S
C38 O63 1.325 . S
C39 C38 1.348 . S
C39 C41 1.353 . S
C39 H80 0.929 . S
C40 C38 1.356 . S
C40 C42 1.358 . S
C40 H81 0.930 . S
C41 C39 1.353 . S
C41 N43 1.314 . S
C41 H82 0.930 . S
C42 C40 1.358 . S
C42 N43 1.279 . S
C42 H83 0.930 . S
N43 C41 1.314 . S
N43 C42 1.279 . S
C44 C46 1.353 . S
C44 N47 1.314 . S
C44 H50 0.930 . S
C45 N47 1.279 . S
C45 C48 1.358 . S
C45 H51 0.930 . S
C46 C44 1.353 . S
C46 C49 1.348 . S
C46 H84 0.929 . S
N47 Li2 1.990 . S
N47 C44 1.314 . S
N47 C45 1.279 . S
C48 C45 1.358 . S
C48 C49 1.356 . S
C48 H85 0.930 . S
C49 C46 1.348 . S
C49 C48 1.356 . S
H50 C44 0.930 . S
H51 C45 0.930 . S
C52 N53 1.314 . S
C52 C54 1.353 . S
C52 H58 0.930 . S
N53 Li3 1.990 . S
N53 C52 1.314 . S
N53 C56 1.279 . S
C54 C52 1.353 . S
C54 C57 1.348 . S
C54 H86 0.955 . S
C55 C56 1.358 . S
C55 C57 1.356 . S
C55 H87 0.930 . S
C56 N53 1.279 . S
C56 C55 1.358 . S
C56 H59 0.930 . S
C57 C54 1.348 . S
C57 C55 1.356 . S
H58 C52 0.930 . S
H59 C56 0.930 . S
O60 Li0 1.956 . S
O60 Li1 1.970 . S
O60 Li2 1.961 . S
O60 C4 1.325 . S
O61 Li0 1.970 . S
O61 Li1 1.956 . S
O61 Li3 1.961 . S
O61 C10 1.325 . S
O62 Li0 1.961 . S
O62 Li2 1.956 . S
O62 Li3 1.970 . S
O62 C32 1.325 . S
O63 Li1 1.961 . S
O63 Li2 1.970 . S
O63 Li3 1.956 . S
O63 C38 1.325 . S
H64 C6 0.929 . S
H65 C7 0.930 . S
H66 C8 0.930 . S
H67 C9 0.930 . S
H68 C11 0.930 . S
H69 C13 0.929 . S
H70 C14 0.930 . S
H71 C15 0.930 . S
H72 C18 0.930 . S
H73 C21 0.929 . S
H74 C26 0.929 . S
H75 C27 0.930 . S
H76 C34 0.929 . S
H77 C35 0.930 . S
H78 C36 0.930 . S
H79 C37 0.930 . S
H80 C39 0.929 . S
H81 C40 0.930 . S
H82 C41 0.930 . S
H83 C42 0.930 . S
H84 C46 0.929 . S
H85 C48 0.930 . S
H86 C54 0.955 . S
H87 C55 0.930 . S
Li88 N105 1.990 . S
Li88 O148 1.956 . S
Li88 O149 1.970 . S
Li88 O150 1.961 . S
Li89 N113 1.990 . S
Li89 O148 1.970 . S
Li89 O149 1.956 . S
Li89 O151 1.961 . S
Li90 N135 1.990 . S
Li90 O148 1.961 . S
Li90 O150 1.956 . S
Li90 O151 1.970 . S
Li91 N141 1.990 . S
Li91 O149 1.961 . S
Li91 O150 1.970 . S
Li91 O151 1.956 . S
C92 C94 1.348 . S
C92 C95 1.356 . S
C92 O148 1.325 . S
N93 C96 1.314 . S
N93 C97 1.279 . S
C94 C92 1.348 . S
C94 C96 1.353 . S
C94 H152 0.929 . S
C95 C92 1.356 . S
C95 C97 1.358 . S
C95 H153 0.930 . S
C96 N93 1.314 . S
C96 C94 1.353 . S
C96 H154 0.930 . S
C97 N93 1.279 . S
C97 C95 1.358 . S
C97 H155 0.930 . S
C98 C101 1.348 . S
C98 C102 1.356 . S
C98 O149 1.325 . S
C99 N100 1.279 . S
C99 C102 1.358 . S
C99 H156 0.930 . S
N100 C99 1.279 . S
N100 C103 1.314 . S
C101 C98 1.348 . S
C101 C103 1.353 . S
C101 H157 0.929 . S
C102 C98 1.356 . S
C102 C99 1.358 . S
C102 H158 0.930 . S
C103 N100 1.314 . S
C103 C101 1.353 . S
C103 H159 0.930 . S
C104 N105 1.314 . S
C104 C109 1.353 . S
C104 H110 0.930 . S
N105 Li88 1.990 . S
N105 C104 1.314 . S
N105 C107 1.279 . S
C106 C107 1.358 . S
C106 C108 1.356 . S
C106 H160 0.930 . S
C107 N105 1.279 . S
C107 C106 1.358 . S
C107 H111 0.930 . S
C108 C106 1.356 . S
C108 C109 1.348 . S
C109 C104 1.353 . S
C109 C108 1.348 . S
C109 H161 0.929 . S
H110 C104 0.930 . S
H111 C107 0.930 . S
C112 N113 1.314 . S
C112 C114 1.353 . S
C112 H118 0.930 . S
N113 Li89 1.990 . S
N113 C112 1.314 . S
N113 C116 1.279 . S
C114 C112 1.353 . S
C114 C117 1.348 . S
C114 H162 0.929 . S
C115 C116 1.358 . S
C115 C117 1.356 . S
C115 H163 0.930 . S
C116 N113 1.279 . S
C116 C115 1.358 . S
C116 H119 0.930 . S
C117 C114 1.348 . S
C117 C115 1.356 . S
H118 C112 0.930 . S
H119 C116 0.930 . S
C120 C122 1.348 . S
C120 C123 1.356 . S
C120 O150 1.325 . S
N121 C124 1.314 . S
N121 C125 1.279 . S
C122 C120 1.348 . S
C122 C124 1.353 . S
C122 H164 0.929 . S
C123 C120 1.356 . S
C123 C125 1.358 . S
C123 H165 0.930 . S
C124 N121 1.314 . S
C124 C122 1.353 . S
C124 H166 0.930 . S
C125 N121 1.279 . S
C125 C123 1.358 . S
C125 H167 0.930 . S
C126 C127 1.348 . S
C126 C128 1.356 . S
C126 O151 1.325 . S
C127 C126 1.348 . S
C127 C129 1.353 . S
C127 H168 0.929 . S
C128 C126 1.356 . S
C128 C130 1.358 . S
C128 H169 0.930 . S
C129 C127 1.353 . S
C129 N131 1.314 . S
C129 H170 0.930 . S
C130 C128 1.358 . S
C130 N131 1.279 . S
C130 H171 0.930 . S
N131 C129 1.314 . S
N131 C130 1.279 . S
C132 C134 1.353 . S
C132 N135 1.314 . S
C132 H138 0.930 . S
C133 N135 1.279 . S
C133 C136 1.358 . S
C133 H139 0.930 . S
C134 C132 1.353 . S
C134 C137 1.348 . S
C134 H172 0.929 . S
N135 Li90 1.990 . S
N135 C132 1.314 . S
N135 C133 1.279 . S
C136 C133 1.358 . S
C136 C137 1.356 . S
C136 H173 0.930 . S
C137 C134 1.348 . S
C137 C136 1.356 . S
H138 C132 0.930 . S
H139 C133 0.930 . S
C140 N141 1.314 . S
C140 C142 1.353 . S
C140 H146 0.930 . S
N141 Li91 1.990 . S
N141 C140 1.314 . S
N141 C144 1.279 . S
C142 C140 1.353 . S
C142 C145 1.348 . S
C142 H174 0.929 . S
C143 C144 1.358 . S
C143 C145 1.356 . S
C143 H175 0.930 . S
C144 N141 1.279 . S
C144 C143 1.358 . S
C144 H147 0.930 . S
C145 C142 1.348 . S
C145 C143 1.356 . S
H146 C140 0.930 . S
H147 C144 0.930 . S
O148 Li88 1.956 . S
O148 Li89 1.970 . S
O148 Li90 1.961 . S
O148 C92 1.325 . S
O149 Li88 1.970 . S
O149 Li89 1.956 . S
O149 Li91 1.961 . S
O149 C98 1.325 . S
O150 Li88 1.961 . S
O150 Li90 1.956 . S
O150 Li91 1.970 . S
O150 C120 1.325 . S
O151 Li89 1.961 . S
O151 Li90 1.970 . S
O151 Li91 1.956 . S
O151 C126 1.325 . S
H152 C94 0.929 . S
H153 C95 0.930 . S
H154 C96 0.930 . S
H155 C97 0.930 . S
H156 C99 0.930 . S
H157 C101 0.929 . S
H158 C102 0.930 . S
H159 C103 0.930 . S
H160 C106 0.930 . S
H161 C109 0.929 . S
H162 C114 0.929 . S
H163 C115 0.930 . S
H164 C122 0.929 . S
H165 C123 0.930 . S
H166 C124 0.930 . S
H167 C125 0.930 . S
H168 C127 0.929 . S
H169 C128 0.930 . S
H170 C129 0.930 . S
H171 C130 0.930 . S
H172 C134 0.929 . S
H173 C136 0.930 . S
H174 C142 0.929 . S
H175 C143 0.930 . S
Li176 N193 1.990 . S
Li176 O236 1.956 . S
Li176 O237 1.970 . S
Li176 O238 1.961 . S
Li177 N201 1.990 . S
Li177 O236 1.970 . S
Li177 O237 1.956 . S
Li177 O239 1.961 . S
Li178 N223 1.990 . S
Li178 O236 1.961 . S
Li178 O238 1.956 . S
Li178 O239 1.970 . S
Li179 N229 1.990 . S
Li179 O237 1.961 . S
Li179 O238 1.970 . S
Li179 O239 1.956 . S
C180 C182 1.348 . S
C180 C183 1.356 . S
C180 O236 1.325 . S
N181 C184 1.314 . S
N181 C185 1.279 . S
C182 C180 1.348 . S
C182 C184 1.353 . S
C182 H240 0.929 . S
C183 C180 1.356 . S
C183 C185 1.358 . S
C183 H241 0.930 . S
C184 N181 1.314 . S
C184 C182 1.353 . S
C184 H242 0.930 . S
C185 N181 1.279 . S
C185 C183 1.358 . S
C185 H243 0.930 . S
C186 C189 1.348 1_655 S
C186 C190 1.356 . S
C186 O237 1.325 . S
C187 N188 1.279 . S
C187 C190 1.358 1_455 S
C187 H244 0.930 . S
N188 C187 1.279 . S
N188 C191 1.314 . S
C189 C186 1.348 1_455 S
C189 C191 1.353 . S
C189 H245 0.929 . S
C190 C186 1.356 . S
C190 C187 1.358 1_655 S
C190 H246 0.930 . S
C191 N188 1.314 . S
C191 C189 1.353 . S
C191 H247 0.930 . S
C192 N193 1.314 1_455 S
C192 C197 1.353 . S
C192 H198 0.930 . S
N193 Li176 1.990 . S
N193 C192 1.314 1_655 S
N193 C195 1.279 . S
C194 C195 1.358 1_455 S
C194 C196 1.356 . S
C194 H248 0.930 . S
C195 N193 1.279 . S
C195 C194 1.358 1_655 S
C195 H199 0.930 . S
C196 C194 1.356 . S
C196 C197 1.348 . S
C197 C192 1.353 . S
C197 C196 1.348 . S
C197 H249 0.929 . S
H198 C192 0.930 . S
H199 C195 0.930 . S
C200 N201 1.314 . S
C200 C202 1.353 . S
C200 H206 0.930 . S
N201 Li177 1.990 . S
N201 C200 1.314 . S
N201 C204 1.279 . S
C202 C200 1.353 . S
C202 C205 1.348 . S
C202 H250 0.929 . S
C203 C204 1.358 . S
C203 C205 1.356 . S
C203 H251 0.930 . S
C204 N201 1.279 . S
C204 C203 1.358 . S
C204 H207 0.930 . S
C205 C202 1.348 . S
C205 C203 1.356 . S
H206 C200 0.930 . S
H207 C204 0.930 . S
C208 C210 1.348 . S
C208 C211 1.356 . S
C208 O238 1.325 . S
N209 C212 1.314 . S
N209 C213 1.279 . S
C210 C208 1.348 . S
C210 C212 1.353 . S
C210 H252 0.929 . S
C211 C208 1.356 . S
C211 C213 1.358 . S
C211 H253 0.930 . S
C212 N209 1.314 . S
C212 C210 1.353 . S
C212 H254 0.930 . S
C213 N209 1.279 . S
C213 C211 1.358 . S
C213 H255 0.930 . S
C214 C215 1.348 . S
C214 C216 1.356 . S
C214 O239 1.325 . S
C215 C214 1.348 . S
C215 C217 1.353 . S
C215 H256 0.929 . S
C216 C214 1.356 . S
C216 C218 1.358 . S
C216 H257 0.930 . S
C217 C215 1.353 . S
C217 N219 1.314 . S
C217 H258 0.930 . S
C218 C216 1.358 . S
C218 N219 1.279 . S
C218 H259 0.930 . S
N219 C217 1.314 . S
N219 C218 1.279 . S
C220 C222 1.353 . S
C220 N223 1.314 . S
C220 H226 0.930 . S
C221 N223 1.279 . S
C221 C224 1.358 . S
C221 H227 0.930 . S
C222 C220 1.353 . S
C222 C225 1.348 . S
C222 H260 0.929 . S
N223 Li178 1.990 . S
N223 C220 1.314 . S
N223 C221 1.279 . S
C224 C221 1.358 . S
C224 C225 1.356 . S
C224 H261 0.930 . S
C225 C222 1.348 . S
C225 C224 1.356 . S
H226 C220 0.930 . S
H227 C221 0.930 . S
C228 N229 1.314 . S
C228 C230 1.353 . S
C228 H234 0.930 . S
N229 Li179 1.990 . S
N229 C228 1.314 . S
N229 C232 1.279 . S
C230 C228 1.353 . S
C230 C233 1.348 . S
C230 H262 0.955 . S
C231 C232 1.358 . S
C231 C233 1.356 . S
C231 H263 0.930 . S
C232 N229 1.279 . S
C232 C231 1.358 . S
C232 H235 0.930 . S
C233 C230 1.348 . S
C233 C231 1.356 . S
H234 C228 0.930 . S
H235 C232 0.930 . S
O236 Li176 1.956 . S
O236 Li177 1.970 . S
O236 Li178 1.961 . S
O236 C180 1.325 . S
O237 Li176 1.970 . S
O237 Li177 1.956 . S
O237 Li179 1.961 . S
O237 C186 1.325 . S
O238 Li176 1.961 . S
O238 Li178 1.956 . S
O238 Li179 1.970 . S
O238 C208 1.325 . S
O239 Li177 1.961 . S
O239 Li178 1.970 . S
O239 Li179 1.956 . S
O239 C214 1.325 . S
H240 C182 0.929 . S
H241 C183 0.930 . S
H242 C184 0.930 . S
H243 C185 0.930 . S
H244 C187 0.930 . S
H245 C189 0.929 . S
H246 C190 0.930 . S
H247 C191 0.930 . S
H248 C194 0.930 . S
H249 C197 0.929 . S
H250 C202 0.929 . S
H251 C203 0.930 . S
H252 C210 0.929 . S
H253 C211 0.930 . S
H254 C212 0.930 . S
H255 C213 0.930 . S
H256 C215 0.929 . S
H257 C216 0.930 . S
H258 C217 0.930 . S
H259 C218 0.930 . S
H260 C222 0.929 . S
H261 C224 0.930 . S
H262 C230 0.955 . S
H263 C231 0.930 . S
Li264 N281 1.990 . S
Li264 O324 1.956 . S
Li264 O325 1.970 . S
Li264 O326 1.961 . S
Li265 N289 1.990 . S
Li265 O324 1.970 . S
Li265 O325 1.956 . S
Li265 O327 1.961 . S
Li266 N311 1.990 . S
Li266 O324 1.961 . S
Li266 O326 1.956 . S
Li266 O327 1.970 . S
Li267 N317 1.990 . S
Li267 O325 1.961 . S
Li267 O326 1.970 . S
Li267 O327 1.956 . S
C268 C270 1.348 . S
C268 C271 1.356 . S
C268 O324 1.325 . S
N269 C272 1.314 . S
N269 C273 1.279 . S
C270 C268 1.348 . S
C270 C272 1.353 . S
C270 H328 0.929 . S
C271 C268 1.356 . S
C271 C273 1.358 . S
C271 H329 0.930 . S
C272 N269 1.314 . S
C272 C270 1.353 . S
C272 H330 0.930 . S
C273 N269 1.279 . S
C273 C271 1.358 . S
C273 H331 0.930 . S
C274 C277 1.348 . S
C274 C278 1.356 . S
C274 O325 1.325 . S
C275 N276 1.279 . S
C275 C278 1.358 . S
C275 H332 0.930 . S
N276 C275 1.279 . S
N276 C279 1.314 . S
C277 C274 1.348 . S
C277 C279 1.353 . S
C277 H333 0.929 . S
C278 C274 1.356 . S
C278 C275 1.358 . S
C278 H334 0.930 . S
C279 N276 1.314 . S
C279 C277 1.353 . S
C279 H335 0.930 . S
C280 N281 1.314 . S
C280 C285 1.353 . S
C280 H286 0.930 . S
N281 Li264 1.990 . S
N281 C280 1.314 . S
N281 C283 1.279 . S
C282 C283 1.358 . S
C282 C284 1.356 . S
C282 H336 0.930 . S
C283 N281 1.279 . S
C283 C282 1.358 . S
C283 H287 0.930 . S
C284 C282 1.356 . S
C284 C285 1.348 . S
C285 C280 1.353 . S
C285 C284 1.348 . S
C285 H337 0.929 . S
H286 C280 0.930 . S
H287 C283 0.930 . S
C288 N289 1.314 . S
C288 C290 1.353 . S
C288 H294 0.930 . S
N289 Li265 1.990 . S
N289 C288 1.314 . S
N289 C292 1.279 . S
C290 C288 1.353 . S
C290 C293 1.348 . S
C290 H338 0.929 . S
C291 C292 1.358 . S
C291 C293 1.356 . S
C291 H339 0.930 . S
C292 N289 1.279 . S
C292 C291 1.358 . S
C292 H295 0.930 . S
C293 C290 1.348 . S
C293 C291 1.356 . S
H294 C288 0.930 . S
H295 C292 0.930 . S
C296 C298 1.348 . S
C296 C299 1.356 . S
C296 O326 1.325 . S
N297 C300 1.314 . S
N297 C301 1.279 . S
C298 C296 1.348 . S
C298 C300 1.353 . S
C298 H340 0.929 . S
C299 C296 1.356 . S
C299 C301 1.358 . S
C299 H341 0.930 . S
C300 N297 1.314 . S
C300 C298 1.353 . S
C300 H342 0.930 . S
C301 N297 1.279 . S
C301 C299 1.358 . S
C301 H343 0.930 . S
C302 C303 1.348 . S
C302 C304 1.356 . S
C302 O327 1.325 . S
C303 C302 1.348 . S
C303 C305 1.353 . S
C303 H344 0.929 . S
C304 C302 1.356 . S
C304 C306 1.358 . S
C304 H345 0.930 . S
C305 C303 1.353 . S
C305 N307 1.314 . S
C305 H346 0.930 . S
C306 C304 1.358 . S
C306 N307 1.279 . S
C306 H347 0.930 . S
N307 C305 1.314 . S
N307 C306 1.279 . S
C308 C310 1.353 . S
C308 N311 1.314 . S
C308 H314 0.930 . S
C309 N311 1.279 . S
C309 C312 1.358 . S
C309 H315 0.930 . S
C310 C308 1.353 . S
C310 C313 1.348 . S
C310 H348 0.929 . S
N311 Li266 1.990 . S
N311 C308 1.314 . S
N311 C309 1.279 . S
C312 C309 1.358 . S
C312 C313 1.356 . S
C312 H349 0.930 . S
C313 C310 1.348 . S
C313 C312 1.356 . S
H314 C308 0.930 . S
H315 C309 0.930 . S
C316 N317 1.314 . S
C316 C318 1.353 . S
C316 H322 0.930 . S
N317 Li267 1.990 . S
N317 C316 1.314 . S
N317 C320 1.279 . S
C318 C316 1.353 . S
C318 C321 1.348 . S
C318 H350 0.929 . S
C319 C320 1.358 . S
C319 C321 1.356 . S
C319 H351 0.930 . S
C320 N317 1.279 . S
C320 C319 1.358 . S
C320 H323 0.930 . S
C321 C318 1.348 . S
C321 C319 1.356 . S
H322 C316 0.930 . S
H323 C320 0.930 . S
O324 Li264 1.956 . S
O324 Li265 1.970 . S
O324 Li266 1.961 . S
O324 C268 1.325 . S
O325 Li264 1.970 . S
O325 Li265 1.956 . S
O325 Li267 1.961 . S
O325 C274 1.325 . S
O326 Li264 1.961 . S
O326 Li266 1.956 . S
O326 Li267 1.970 . S
O326 C296 1.325 . S
O327 Li265 1.961 . S
O327 Li266 1.970 . S
O327 Li267 1.956 . S
O327 C302 1.325 . S
H328 C270 0.929 . S
H329 C271 0.930 . S
H330 C272 0.930 . S
H331 C273 0.930 . S
H332 C275 0.930 . S
H333 C277 0.929 . S
H334 C278 0.930 . S
H335 C279 0.930 . S
H336 C282 0.930 . S
H337 C285 0.929 . S
H338 C290 0.929 . S
H339 C291 0.930 . S
H340 C298 0.929 . S
H341 C299 0.930 . S
H342 C300 0.930 . S
H343 C301 0.930 . S
H344 C303 0.929 . S
H345 C304 0.930 . S
H346 C305 0.930 . S
H347 C306 0.930 . S
H348 C310 0.929 . S
H349 C312 0.930 . S
H350 C318 0.929 . S
H351 C319 0.930 . S
Li352 N369 1.990 . S
Li352 O412 1.956 . S
Li352 O413 1.970 . S
Li352 O414 1.961 . S
Li353 N377 1.990 . S
Li353 O412 1.970 . S
Li353 O413 1.956 . S
Li353 O415 1.961 . S
Li354 N399 1.990 . S
Li354 O412 1.961 . S
Li354 O414 1.956 . S
Li354 O415 1.970 . S
Li355 N405 1.990 . S
Li355 O413 1.961 . S
Li355 O414 1.970 . S
Li355 O415 1.956 . S
C356 C358 1.348 . S
C356 C359 1.356 . S
C356 O412 1.325 . S
N357 C360 1.314 . S
N357 C361 1.279 . S
C358 C356 1.348 . S
C358 C360 1.353 . S
C358 H416 0.929 . S
C359 C356 1.356 . S
C359 C361 1.358 . S
C359 H417 0.930 . S
C360 N357 1.314 . S
C360 C358 1.353 . S
C360 H418 0.930 . S
C361 N357 1.279 . S
C361 C359 1.358 . S
C361 H419 0.930 . S
C362 C365 1.348 . S
C362 C366 1.356 . S
C362 O413 1.325 . S
C363 N364 1.279 . S
C363 C366 1.358 . S
C363 H420 0.930 . S
N364 C363 1.279 . S
N364 C367 1.314 . S
C365 C362 1.348 . S
C365 C367 1.353 . S
C365 H421 0.929 . S
C366 C362 1.356 . S
C366 C363 1.358 . S
C366 H422 0.930 . S
C367 N364 1.314 . S
C367 C365 1.353 . S
C367 H423 0.930 . S
C368 N369 1.314 . S
C368 C373 1.353 . S
C368 H374 0.930 . S
N369 Li352 1.990 . S
N369 C368 1.314 . S
N369 C371 1.279 . S
C370 C371 1.358 . S
C370 C372 1.356 . S
C370 H424 0.930 . S
C371 N369 1.279 . S
C371 C370 1.358 . S
C371 H375 0.930 . S
C372 C370 1.356 . S
C372 C373 1.348 . S
C373 C368 1.353 . S
C373 C372 1.348 . S
C373 H425 0.929 . S
H374 C368 0.930 . S
H375 C371 0.930 . S
C376 N377 1.314 . S
C376 C378 1.353 . S
C376 H382 0.930 . S
N377 Li353 1.990 . S
N377 C376 1.314 . S
N377 C380 1.279 . S
C378 C376 1.353 . S
C378 C381 1.348 . S
C378 H426 0.929 . S
C379 C380 1.358 . S
C379 C381 1.356 . S
C379 H427 0.930 . S
C380 N377 1.279 . S
C380 C379 1.358 . S
C380 H383 0.930 . S
C381 C378 1.348 . S
C381 C379 1.356 . S
H382 C376 0.930 . S
H383 C380 0.930 . S
C384 C386 1.348 . S
C384 C387 1.356 . S
C384 O414 1.325 . S
N385 C388 1.314 . S
N385 C389 1.279 . S
C386 C384 1.348 . S
C386 C388 1.353 . S
C386 H428 0.929 . S
C387 C384 1.356 . S
C387 C389 1.358 . S
C387 H429 0.930 . S
C388 N385 1.314 . S
C388 C386 1.353 . S
C388 H430 0.930 . S
C389 N385 1.279 . S
C389 C387 1.358 . S
C389 H431 0.930 . S
C390 C391 1.348 . S
C390 C392 1.356 . S
C390 O415 1.325 . S
C391 C390 1.348 . S
C391 C393 1.353 . S
C391 H432 0.929 . S
C392 C390 1.356 . S
C392 C394 1.358 . S
C392 H433 0.930 . S
C393 C391 1.353 . S
C393 N395 1.314 . S
C393 H434 0.930 . S
C394 C392 1.358 . S
C394 N395 1.279 . S
C394 H435 0.930 . S
N395 C393 1.314 . S
N395 C394 1.279 . S
C396 C398 1.353 . S
C396 N399 1.314 . S
C396 H402 0.930 . S
C397 N399 1.279 . S
C397 C400 1.358 . S
C397 H403 0.930 . S
C398 C396 1.353 . S
C398 C401 1.348 . S
C398 H436 0.929 . S
N399 Li354 1.990 . S
N399 C396 1.314 . S
N399 C397 1.279 . S
C400 C397 1.358 . S
C400 C401 1.356 . S
C400 H437 0.930 . S
C401 C398 1.348 . S
C401 C400 1.356 . S
H402 C396 0.930 . S
H403 C397 0.930 . S
C404 N405 1.314 . S
C404 C406 1.353 . S
C404 H410 0.930 . S
N405 Li355 1.990 . S
N405 C404 1.314 . S
N405 C408 1.279 . S
C406 C404 1.353 . S
C406 C409 1.348 . S
C406 H438 0.929 . S
C407 C408 1.358 . S
C407 C409 1.356 . S
C407 H439 0.930 . S
C408 N405 1.279 . S
C408 C407 1.358 . S
C408 H411 0.930 . S
C409 C406 1.348 . S
C409 C407 1.356 . S
H410 C404 0.930 . S
H411 C408 0.930 . S
O412 Li352 1.956 . S
O412 Li353 1.970 . S
O412 Li354 1.961 . S
O412 C356 1.325 . S
O413 Li352 1.970 . S
O413 Li353 1.956 . S
O413 Li355 1.961 . S
O413 C362 1.325 . S
O414 Li352 1.961 . S
O414 Li354 1.956 . S
O414 Li355 1.970 . S
O414 C384 1.325 . S
O415 Li353 1.961 . S
O415 Li354 1.970 . S
O415 Li355 1.956 . S
O415 C390 1.325 . S
H416 C358 0.929 . S
H417 C359 0.930 . S
H418 C360 0.930 . S
H419 C361 0.930 . S
H420 C363 0.930 . S
H421 C365 0.929 . S
H422 C366 0.930 . S
H423 C367 0.930 . S
H424 C370 0.930 . S
H425 C373 0.929 . S
H426 C378 0.929 . S
H427 C379 0.930 . S
H428 C386 0.929 . S
H429 C387 0.930 . S
H430 C388 0.930 . S
H431 C389 0.930 . S
H432 C391 0.929 . S
H433 C392 0.930 . S
H434 C393 0.930 . S
H435 C394 0.930 . S
H436 C398 0.929 . S
H437 C400 0.930 . S
H438 C406 0.929 . S
H439 C407 0.930 . S
Li440 N457 1.990 . S
Li440 O500 1.956 . S
Li440 O501 1.970 . S
Li440 O502 1.961 . S
Li441 N465 1.990 . S
Li441 O500 1.970 . S
Li441 O501 1.956 . S
Li441 O503 1.961 . S
Li442 N487 1.990 . S
Li442 O500 1.961 . S
Li442 O502 1.956 . S
Li442 O503 1.970 . S
Li443 N493 1.990 . S
Li443 O501 1.961 . S
Li443 O502 1.970 . S
Li443 O503 1.956 . S
C444 C446 1.348 . S
C444 C447 1.356 . S
C444 O500 1.325 . S
N445 C448 1.314 . S
N445 C449 1.279 . S
C446 C444 1.348 . S
C446 C448 1.353 . S
C446 H504 0.929 . S
C447 C444 1.356 . S
C447 C449 1.358 . S
C447 H505 0.930 . S
C448 N445 1.314 . S
C448 C446 1.353 . S
C448 H506 0.930 . S
C449 N445 1.279 . S
C449 C447 1.358 . S
C449 H507 0.930 . S
C450 C453 1.348 . S
C450 C454 1.356 . S
C450 O501 1.325 . S
C451 N452 1.279 . S
C451 C454 1.358 . S
C451 H508 0.930 . S
N452 C451 1.279 . S
N452 C455 1.314 . S
C453 C450 1.348 . S
C453 C455 1.353 . S
C453 H509 0.929 . S
C454 C450 1.356 . S
C454 C451 1.358 . S
C454 H510 0.930 . S
C455 N452 1.314 . S
C455 C453 1.353 . S
C455 H511 0.930 . S
C456 N457 1.314 . S
C456 C461 1.353 . S
C456 H462 0.930 . S
N457 Li440 1.990 . S
N457 C456 1.314 . S
N457 C459 1.279 . S
C458 C459 1.358 . S
C458 C460 1.356 . S
C458 H512 0.930 . S
C459 N457 1.279 . S
C459 C458 1.358 . S
C459 H463 0.930 . S
C460 C458 1.356 . S
C460 C461 1.348 . S
C461 C456 1.353 . S
C461 C460 1.348 . S
C461 H513 0.929 . S
H462 C456 0.930 . S
H463 C459 0.930 . S
C464 N465 1.314 . S
C464 C466 1.353 . S
C464 H470 0.930 . S
N465 Li441 1.990 . S
N465 C464 1.314 . S
N465 C468 1.279 . S
C466 C464 1.353 . S
C466 C469 1.348 . S
C466 H514 0.929 . S
C467 C468 1.358 . S
C467 C469 1.356 . S
C467 H515 0.930 . S
C468 N465 1.279 . S
C468 C467 1.358 . S
C468 H471 0.930 . S
C469 C466 1.348 . S
C469 C467 1.356 . S
H470 C464 0.930 . S
H471 C468 0.930 . S
C472 C474 1.348 . S
C472 C475 1.356 . S
C472 O502 1.325 . S
N473 C476 1.314 . S
N473 C477 1.279 . S
C474 C472 1.348 . S
C474 C476 1.353 . S
C474 H516 0.929 . S
C475 C472 1.356 . S
C475 C477 1.358 . S
C475 H517 0.930 . S
C476 N473 1.314 . S
C476 C474 1.353 . S
C476 H518 0.930 . S
C477 N473 1.279 . S
C477 C475 1.358 . S
C477 H519 0.930 . S
C478 C479 1.348 . S
C478 C480 1.356 . S
C478 O503 1.325 . S
C479 C478 1.348 . S
C479 C481 1.353 1_545 S
C479 H520 0.929 . S
C480 C478 1.356 . S
C480 C482 1.358 1_545 S
C480 H521 0.930 . S
C481 C479 1.353 1_565 S
C481 N483 1.314 . S
C481 H522 0.930 . S
C482 C480 1.358 1_565 S
C482 N483 1.279 . S
C482 H523 0.930 . S
N483 C481 1.314 . S
N483 C482 1.279 . S
C484 C486 1.353 . S
C484 N487 1.314 . S
C484 H490 0.930 . S
C485 N487 1.279 . S
C485 C488 1.358 . S
C485 H491 0.930 . S
C486 C484 1.353 . S
C486 C489 1.348 . S
C486 H524 0.929 . S
N487 Li442 1.990 . S
N487 C484 1.314 . S
N487 C485 1.279 . S
C488 C485 1.358 . S
C488 C489 1.356 . S
C488 H525 0.930 . S
C489 C486 1.348 . S
C489 C488 1.356 . S
H490 C484 0.930 . S
H491 C485 0.930 . S
C492 N493 1.314 . S
C492 C494 1.368 . S
C492 H498 0.930 . S
N493 Li443 1.990 . S
N493 C492 1.314 . S
N493 C496 1.279 1_545 S
C494 C492 1.368 . S
C494 C497 1.326 1_545 S
C494 H526 0.936 . S
C495 C496 1.358 . S
C495 C497 1.356 . S
C495 H527 0.930 . S
C496 N493 1.279 1_565 S
C496 C495 1.358 . S
C496 H499 0.930 . S
C497 C494 1.326 1_565 S
C497 C495 1.356 . S
H498 C492 0.930 . S
H499 C496 0.930 . S
O500 Li440 1.956 . S
O500 Li441 1.970 . S
O500 Li442 1.961 . S
O500 C444 1.325 . S
O501 Li440 1.970 . S
O501 Li441 1.956 . S
O501 Li443 1.961 . S
O501 C450 1.325 . S
O502 Li440 1.961 . S
O502 Li442 1.956 . S
O502 Li443 1.970 . S
O502 C472 1.325 . S
O503 Li441 1.961 . S
O503 Li442 1.970 . S
O503 Li443 1.956 . S
O503 C478 1.325 . S
H504 C446 0.929 . S
H505 C447 0.930 . S
H506 C448 0.930 . S
H507 C449 0.930 . S
H508 C451 0.930 . S
H509 C453 0.929 . S
H510 C454 0.930 . S
H511 C455 0.930 . S
H512 C458 0.930 . S
H513 C461 0.929 . S
H514 C466 0.929 . S
H515 C467 0.930 . S
H516 C474 0.929 . S
H517 C475 0.930 . S
H518 C476 0.930 . S
H519 C477 0.930 . S
H520 C479 0.929 . S
H521 C480 0.930 . S
H522 C481 0.930 . S
H523 C482 0.930 . S
H524 C486 0.929 . S
H525 C488 0.930 . S
H526 C494 0.936 . S
H527 C495 0.930 . S
Li528 N545 1.990 . S
Li528 O588 1.956 . S
Li528 O589 1.970 . S
Li528 O590 1.961 . S
Li529 N553 1.990 . S
Li529 O588 1.970 . S
Li529 O589 1.956 . S
Li529 O591 1.961 . S
Li530 N575 1.990 . S
Li530 O588 1.961 . S
Li530 O590 1.956 . S
Li530 O591 1.970 . S
Li531 N581 1.990 . S
Li531 O589 1.961 . S
Li531 O590 1.970 . S
Li531 O591 1.956 . S
C532 C534 1.348 . S
C532 C535 1.356 . S
C532 O588 1.325 . S
N533 C536 1.314 . S
N533 C537 1.279 . S
C534 C532 1.348 . S
C534 C536 1.353 . S
C534 H592 0.929 . S
C535 C532 1.356 . S
C535 C537 1.358 . S
C535 H593 0.930 . S
C536 N533 1.314 . S
C536 C534 1.353 . S
C536 H594 0.930 . S
C537 N533 1.279 . S
C537 C535 1.358 . S
C537 H595 0.930 . S
C538 C541 1.348 . S
C538 C542 1.356 . S
C538 O589 1.325 . S
C539 N540 1.279 . S
C539 C542 1.358 . S
C539 H596 0.930 . S
N540 C539 1.279 . S
N540 C543 1.314 . S
C541 C538 1.348 . S
C541 C543 1.353 . S
C541 H597 0.929 . S
C542 C538 1.356 . S
C542 C539 1.358 . S
C542 H598 0.930 . S
C543 N540 1.314 . S
C543 C541 1.353 . S
C543 H599 0.930 . S
C544 N545 1.314 . S
C544 C549 1.353 . S
C544 H550 0.930 . S
N545 Li528 1.990 . S
N545 C544 1.314 . S
N545 C547 1.279 . S
C546 C547 1.358 . S
C546 C548 1.356 . S
C546 H600 0.930 . S
C547 N545 1.279 . S
C547 C546 1.358 . S
C547 H551 0.930 . S
C548 C546 1.356 . S
C548 C549 1.348 . S
C549 C544 1.353 . S
C549 C548 1.348 . S
C549 H601 0.929 . S
H550 C544 0.930 . S
H551 C547 0.930 . S
C552 N553 1.314 . S
C552 C554 1.353 . S
C552 H558 0.930 . S
N553 Li529 1.990 . S
N553 C552 1.314 . S
N553 C556 1.279 . S
C554 C552 1.353 . S
C554 C557 1.348 . S
C554 H602 0.929 . S
C555 C556 1.358 . S
C555 C557 1.356 . S
C555 H603 0.930 . S
C556 N553 1.279 . S
C556 C555 1.358 . S
C556 H559 0.930 . S
C557 C554 1.348 . S
C557 C555 1.356 . S
H558 C552 0.930 . S
H559 C556 0.930 . S
C560 C562 1.348 . S
C560 C563 1.356 . S
C560 O590 1.325 . S
N561 C564 1.314 . S
N561 C565 1.279 . S
C562 C560 1.348 . S
C562 C564 1.353 . S
C562 H604 0.929 . S
C563 C560 1.356 . S
C563 C565 1.358 . S
C563 H605 0.930 . S
C564 N561 1.314 . S
C564 C562 1.353 . S
C564 H606 0.930 . S
C565 N561 1.279 . S
C565 C563 1.358 . S
C565 H607 0.930 . S
C566 C567 1.348 . S
C566 C568 1.356 . S
C566 O591 1.325 . S
C567 C566 1.348 . S
C567 C569 1.353 . S
C567 H608 0.929 . S
C568 C566 1.356 . S
C568 C570 1.358 . S
C568 H609 0.930 . S
C569 C567 1.353 . S
C569 N571 1.314 . S
C569 H610 0.930 . S
C570 C568 1.358 . S
C570 N571 1.279 . S
C570 H611 0.930 . S
N571 C569 1.314 . S
N571 C570 1.279 . S
C572 C574 1.353 . S
C572 N575 1.314 . S
C572 H578 0.930 . S
C573 N575 1.279 . S
C573 C576 1.358 . S
C573 H579 0.930 . S
C574 C572 1.353 . S
C574 C577 1.348 . S
C574 H612 0.929 . S
N575 Li530 1.990 . S
N575 C572 1.314 . S
N575 C573 1.279 . S
C576 C573 1.358 . S
C576 C577 1.356 . S
C576 H613 0.930 . S
C577 C574 1.348 . S
C577 C576 1.356 . S
H578 C572 0.930 . S
H579 C573 0.930 . S
C580 N581 1.314 . S
C580 C582 1.353 . S
C580 H586 0.930 . S
N581 Li531 1.990 . S
N581 C580 1.314 . S
N581 C584 1.279 . S
C582 C580 1.353 . S
C582 C585 1.348 . S
C582 H614 0.929 . S
C583 C584 1.358 . S
C583 C585 1.356 . S
C583 H615 0.930 . S
C584 N581 1.279 . S
C584 C583 1.358 . S
C584 H587 0.930 . S
C585 C582 1.348 . S
C585 C583 1.356 . S
H586 C580 0.930 . S
H587 C584 0.930 . S
O588 Li528 1.956 . S
O588 Li529 1.970 . S
O588 Li530 1.961 . S
O588 C532 1.325 . S
O589 Li528 1.970 . S
O589 Li529 1.956 . S
O589 Li531 1.961 . S
O589 C538 1.325 . S
O590 Li528 1.961 . S
O590 Li530 1.956 . S
O590 Li531 1.970 . S
O590 C560 1.325 . S
O591 Li529 1.961 . S
O591 Li530 1.970 . S
O591 Li531 1.956 . S
O591 C566 1.325 . S
H592 C534 0.929 . S
H593 C535 0.930 . S
H594 C536 0.930 . S
H595 C537 0.930 . S
H596 C539 0.930 . S
H597 C541 0.929 . S
H598 C542 0.930 . S
H599 C543 0.930 . S
H600 C546 0.930 . S
H601 C549 0.929 . S
H602 C554 0.929 . S
H603 C555 0.930 . S
H604 C562 0.929 . S
H605 C563 0.930 . S
H606 C564 0.930 . S
H607 C565 0.930 . S
H608 C567 0.929 . S
H609 C568 0.930 . S
H610 C569 0.930 . S
H611 C570 0.930 . S
H612 C574 0.929 . S
H613 C576 0.930 . S
H614 C582 0.929 . S
H615 C583 0.930 . S
Li616 N633 1.990 . S
Li616 O676 1.956 . S
Li616 O677 1.970 . S
Li616 O678 1.961 . S
Li617 N641 1.990 . S
Li617 O676 1.970 . S
Li617 O677 1.956 . S
Li617 O679 1.961 . S
Li618 N663 1.990 . S
Li618 O676 1.961 . S
Li618 O678 1.956 . S
Li618 O679 1.970 . S
Li619 N669 1.990 . S
Li619 O677 1.961 . S
Li619 O678 1.970 . S
Li619 O679 1.956 . S
C620 C622 1.348 . S
C620 C623 1.356 . S
C620 O676 1.325 . S
N621 C624 1.314 . S
N621 C625 1.279 . S
C622 C620 1.348 . S
C622 C624 1.353 1_565 S
C622 H680 0.929 . S
C623 C620 1.356 . S
C623 C625 1.358 1_565 S
C623 H681 0.930 . S
C624 N621 1.314 . S
C624 C622 1.353 1_545 S
C624 H682 0.930 . S
C625 N621 1.279 . S
C625 C623 1.358 1_545 S
C625 H683 0.930 . S
C626 C629 1.348 . S
C626 C630 1.356 . S
C626 O677 1.325 . S
C627 N628 1.279 . S
C627 C630 1.358 . S
C627 H684 0.930 . S
N628 C627 1.279 . S
N628 C631 1.314 . S
C629 C626 1.348 . S
C629 C631 1.353 . S
C629 H685 0.929 . S
C630 C626 1.356 . S
C630 C627 1.358 . S
C630 H686 0.930 . S
C631 N628 1.314 . S
C631 C629 1.353 . S
C631 H687 0.930 . S
C632 N633 1.314 . S
C632 C637 1.368 . S
C632 H638 0.930 . S
N633 Li616 1.990 . S
N633 C632 1.314 . S
N633 C635 1.279 1_565 S
C634 C635 1.358 . S
C634 C636 1.356 . S
C634 H688 0.930 . S
C635 N633 1.279 1_545 S
C635 C634 1.358 . S
C635 H639 0.930 . S
C636 C634 1.356 . S
C636 C637 1.326 1_545 S
C637 C632 1.368 . S
C637 C636 1.326 1_565 S
C637 H689 0.936 . S
H638 C632 0.930 . S
H639 C635 0.930 . S
C640 N641 1.314 . S
C640 C642 1.353 . S
C640 H646 0.930 . S
N641 Li617 1.990 . S
N641 C640 1.314 . S
N641 C644 1.279 . S
C642 C640 1.353 . S
C642 C645 1.348 . S
C642 H690 0.929 . S
C643 C644 1.358 . S
C643 C645 1.356 . S
C643 H691 0.930 . S
C644 N641 1.279 . S
C644 C643 1.358 . S
C644 H647 0.930 . S
C645 C642 1.348 . S
C645 C643 1.356 . S
H646 C640 0.930 . S
H647 C644 0.930 . S
C648 C650 1.348 . S
C648 C651 1.356 . S
C648 O678 1.325 . S
N649 C652 1.314 . S
N649 C653 1.279 . S
C650 C648 1.348 . S
C650 C652 1.353 . S
C650 H692 0.929 . S
C651 C648 1.356 . S
C651 C653 1.358 . S
C651 H693 0.930 . S
C652 N649 1.314 . S
C652 C650 1.353 . S
C652 H694 0.930 . S
C653 N649 1.279 . S
C653 C651 1.358 . S
C653 H695 0.930 . S
C654 C655 1.348 . S
C654 C656 1.356 . S
C654 O679 1.325 . S
C655 C654 1.348 . S
C655 C657 1.353 . S
C655 H696 0.929 . S
C656 C654 1.356 . S
C656 C658 1.358 . S
C656 H697 0.930 . S
C657 C655 1.353 . S
C657 N659 1.314 . S
C657 H698 0.930 . S
C658 C656 1.358 . S
C658 N659 1.279 . S
C658 H699 0.930 . S
N659 C657 1.314 . S
N659 C658 1.279 . S
C660 C662 1.353 . S
C660 N663 1.314 . S
C660 H666 0.930 . S
C661 N663 1.279 . S
C661 C664 1.358 . S
C661 H667 0.930 . S
C662 C660 1.353 . S
C662 C665 1.348 . S
C662 H700 0.929 . S
N663 Li618 1.990 . S
N663 C660 1.314 . S
N663 C661 1.279 . S
C664 C661 1.358 . S
C664 C665 1.356 . S
C664 H701 0.930 . S
C665 C662 1.348 . S
C665 C664 1.356 . S
H666 C660 0.930 . S
H667 C661 0.930 . S
C668 N669 1.314 . S
C668 C670 1.353 . S
C668 H674 0.930 . S
N669 Li619 1.990 . S
N669 C668 1.314 . S
N669 C672 1.279 . S
C670 C668 1.353 . S
C670 C673 1.348 . S
C670 H702 0.929 . S
C671 C672 1.358 . S
C671 C673 1.356 . S
C671 H703 0.930 . S
C672 N669 1.279 . S
C672 C671 1.358 . S
C672 H675 0.930 . S
C673 C670 1.348 . S
C673 C671 1.356 . S
H674 C668 0.930 . S
H675 C672 0.930 . S
O676 Li616 1.956 . S
O676 Li617 1.970 . S
O676 Li618 1.961 . S
O676 C620 1.325 . S
O677 Li616 1.970 . S
O677 Li617 1.956 . S
O677 Li619 1.961 . S
O677 C626 1.325 . S
O678 Li616 1.961 . S
O678 Li618 1.956 . S
O678 Li619 1.970 . S
O678 C648 1.325 . S
O679 Li617 1.961 . S
O679 Li618 1.970 . S
O679 Li619 1.956 . S
O679 C654 1.325 . S
H680 C622 0.929 . S
H681 C623 0.930 . S
H682 C624 0.930 . S
H683 C625 0.930 . S
H684 C627 0.930 . S
H685 C629 0.929 . S
H686 C630 0.930 . S
H687 C631 0.930 . S
H688 C634 0.930 . S
H689 C637 0.936 . S
H690 C642 0.929 . S
H691 C643 0.930 . S
H692 C650 0.929 . S
H693 C651 0.930 . S
H694 C652 0.930 . S
H695 C653 0.930 . S
H696 C655 0.929 . S
H697 C656 0.930 . S
H698 C657 0.930 . S
H699 C658 0.930 . S
H700 C662 0.929 . S
H701 C664 0.930 . S
H702 C670 0.929 . S
H703 C671 0.930 . S
C704 C705 1.387 . S
C704 H708 0.950 . S
C704 C713 1.390 1_465 S
C705 C704 1.387 . S
C705 C707 1.387 . S
H706 C713 0.950 . S
C707 C705 1.387 . S
C707 C709 1.390 1_465 S
C707 H711 0.950 . S
H708 C704 0.950 . S
C709 C707 1.390 1_645 S
C709 C710 1.387 . S
C709 H712 0.950 . S
C710 C709 1.387 . S
C710 C713 1.387 . S
H711 C707 0.950 . S
H712 C709 0.950 . S
C713 C704 1.390 1_645 S
C713 H706 0.950 . S
C713 C710 1.387 . S
C714 C715 1.387 . S
C714 H718 0.950 . S
C714 C723 1.390 . S
C715 C714 1.387 . S
C715 C717 1.387 . S
H716 C723 0.950 . S
C717 C715 1.387 . S
C717 C719 1.390 . S
C717 H721 0.950 . S
H718 C714 0.950 . S
C719 C717 1.390 . S
C719 C720 1.387 . S
C719 H722 0.950 . S
C720 C719 1.387 . S
C720 C723 1.387 . S
H721 C717 0.950 . S
H722 C719 0.950 . S
C723 C714 1.390 . S
C723 H716 0.950 . S
C723 C720 1.387 . S
C724 C725 1.387 . S
C724 H728 0.950 . S
C724 C733 1.390 . S
C725 C724 1.387 . S
C725 C727 1.387 . S
H726 C733 0.950 . S
C727 C725 1.387 . S
C727 C729 1.390 . S
C727 H731 0.950 . S
H728 C724 0.950 . S
C729 C727 1.390 . S
C729 C730 1.387 . S
C729 H732 0.950 . S
C730 C729 1.387 . S
C730 C733 1.387 . S
H731 C727 0.950 . S
H732 C729 0.950 . S
C733 C724 1.390 . S
C733 H726 0.950 . S
C733 C730 1.387 . S
C734 C735 1.387 . S
C734 H738 0.950 . S
C734 C743 1.390 1_645 S
C735 C734 1.387 . S
C735 C737 1.387 . S
H736 C743 0.950 . S
C737 C735 1.387 . S
C737 C739 1.390 1_645 S
C737 H741 0.950 . S
H738 C734 0.950 . S
C739 C737 1.390 1_465 S
C739 C740 1.387 . S
C739 H742 0.950 . S
C740 C739 1.387 . S
C740 C743 1.387 . S
H741 C737 0.950 . S
H742 C739 0.950 . S
C743 C734 1.390 1_465 S
C743 H736 0.950 . S
C743 C740 1.387 . S
C744 C745 1.387 . S
C744 H748 0.950 . S
C744 C753 1.390 . S
C745 C744 1.387 . S
C745 C747 1.387 . S
H746 C753 0.950 . S
C747 C745 1.387 . S
C747 C749 1.390 . S
C747 H751 0.950 . S
H748 C744 0.950 . S
C749 C747 1.390 . S
C749 C750 1.387 . S
C749 H752 0.950 . S
C750 C749 1.387 . S
C750 C753 1.387 . S
H751 C747 0.950 . S
H752 C749 0.950 . S
C753 C744 1.390 . S
C753 H746 0.950 . S
C753 C750 1.387 . S
C754 C755 1.387 1_554 S
C754 H758 0.950 . S
C754 C763 1.390 . S
C755 C754 1.387 1_556 S
C755 C757 1.387 . S
H756 C763 0.950 . S
C757 C755 1.387 . S
C757 C759 1.390 . S
C757 H761 0.950 . S
H758 C754 0.950 . S
C759 C757 1.390 . S
C759 C760 1.387 1_556 S
C759 H762 0.950 . S
C760 C759 1.387 1_554 S
C760 C763 1.387 . S
H761 C757 0.950 . S
H762 C759 0.950 . S
C763 C754 1.390 . S
C763 H756 0.950 . S
C763 C760 1.387 . S
C764 C765 1.387 . S
C764 H768 0.950 . S
C764 C773 1.390 . S
C765 C764 1.387 . S
C765 C767 1.387 . S
H766 C773 0.950 . S
C767 C765 1.387 . S
C767 C769 1.390 . S
C767 H771 0.950 . S
H768 C764 0.950 . S
C769 C767 1.390 . S
C769 C770 1.387 . S
C769 H772 0.950 . S
C770 C769 1.387 . S
C770 C773 1.387 . S
H771 C767 0.950 . S
H772 C769 0.950 . S
C773 C764 1.390 . S
C773 H766 0.950 . S
C773 C770 1.387 . S
C774 C775 1.387 . S
C774 H778 0.950 . S
C774 C783 1.390 . S
C775 C774 1.387 . S
C775 C777 1.387 1_556 S
H776 C783 0.950 . S
C777 C775 1.387 1_554 S
C777 C779 1.390 . S
C777 H781 0.950 . S
H778 C774 0.950 . S
C779 C777 1.390 . S
C779 C780 1.387 . S
C779 H782 0.950 . S
C780 C779 1.387 . S
C780 C783 1.387 1_554 S
H781 C777 0.950 . S
H782 C779 0.950 . S
C783 C774 1.390 . S
C783 H776 0.950 . S
C783 C780 1.387 1_556 S
C784 C785 1.387 . S
C784 H788 0.950 . S
C784 C793 1.390 . S
C785 C784 1.387 . S
C785 C787 1.387 . S
H786 C793 0.950 . S
C787 C785 1.387 . S
C787 C789 1.390 . S
C787 H791 0.950 . S
H788 C784 0.950 . S
C789 C787 1.390 . S
C789 C790 1.387 . S
C789 H792 0.950 . S
C790 C789 1.387 . S
C790 C793 1.387 . S
H791 C787 0.950 . S
H792 C789 0.950 . S
C793 C784 1.390 . S
C793 H786 0.950 . S
C793 C790 1.387 . S
C794 C795 1.387 . S
C794 H798 0.950 . S
C794 C803 1.390 . S
C795 C794 1.387 . S
C795 C797 1.387 . S
H796 C803 0.950 . S
C797 C795 1.387 . S
C797 C799 1.390 . S
C797 H801 0.950 . S
H798 C794 0.950 . S
C799 C797 1.390 . S
C799 C800 1.387 . S
C799 H802 0.950 . S
C800 C799 1.387 . S
C800 C803 1.387 . S
H801 C797 0.950 . S
H802 C799 0.950 . S
C803 C794 1.390 . S
C803 H796 0.950 . S
C803 C800 1.387 . S
C804 C805 1.387 . S
C804 H808 0.950 . S
C804 C813 1.390 . S
C805 C804 1.387 . S
C805 C807 1.387 . S
H806 C813 0.950 . S
C807 C805 1.387 . S
C807 C809 1.390 . S
C807 H811 0.950 . S
H808 C804 0.950 . S
C809 C807 1.390 . S
C809 C810 1.387 . S
C809 H812 0.950 . S
C810 C809 1.387 . S
C810 C813 1.387 . S
H811 C807 0.950 . S
H812 C809 0.950 . S
C813 C804 1.390 . S
C813 H806 0.950 . S
C813 C810 1.387 . S
C814 C815 1.387 . S
C814 H818 0.950 . S
C814 C823 1.390 . S
C815 C814 1.387 . S
C815 C817 1.387 . S
H816 C823 0.950 . S
C817 C815 1.387 . S
C817 C819 1.390 . S
C817 H821 0.950 . S
H818 C814 0.950 . S
C819 C817 1.390 . S
C819 C820 1.387 . S
C819 H822 0.950 . S
C820 C819 1.387 . S
C820 C823 1.387 . S
H821 C817 0.950 . S
H822 C819 0.950 . S
C823 C814 1.390 . S
C823 H816 0.950 . S
C823 C820 1.387 . S
C824 C825 1.387 . S
C824 H828 0.950 . S
C824 C833 1.390 . S
C825 C824 1.387 . S
C825 C827 1.387 . S
H826 C833 0.950 . S
C827 C825 1.387 . S
C827 C829 1.390 . S
C827 H831 0.950 . S
H828 C824 0.950 . S
C829 C827 1.390 . S
C829 C830 1.387 . S
C829 H832 0.950 . S
C830 C829 1.387 . S
C830 C833 1.387 . S
H831 C827 0.950 . S
H832 C829 0.950 . S
C833 C824 1.390 . S
C833 H826 0.950 . S
C833 C830 1.387 . S
C834 C835 1.387 . S
C834 H838 0.950 . S
C834 C843 1.390 . S
C835 C834 1.387 . S
C835 C837 1.387 . S
H836 C843 0.950 . S
C837 C835 1.387 . S
C837 C839 1.390 . S
C837 H841 0.950 . S
H838 C834 0.950 . S
C839 C837 1.390 . S
C839 C840 1.387 . S
C839 H842 0.950 . S
C840 C839 1.387 . S
C840 C843 1.387 . S
H841 C837 0.950 . S
H842 C839 0.950 . S
C843 C834 1.390 . S
C843 H836 0.950 . S
C843 C840 1.387 . S
C844 C845 1.387 . S
C844 H848 0.950 . S
C844 C853 1.390 . S
C845 C844 1.387 . S
C845 C847 1.387 . S
H846 C853 0.950 . S
C847 C845 1.387 . S
C847 C849 1.390 . S
C847 H851 0.950 . S
H848 C844 0.950 . S
C849 C847 1.390 . S
C849 C850 1.387 . S
C849 H852 0.950 . S
C850 C849 1.387 . S
C850 C853 1.387 . S
H851 C847 0.950 . S
H852 C849 0.950 . S
C853 C844 1.390 . S
C853 H846 0.950 . S
C853 C850 1.387 . S
C854 C855 1.387 . S
C854 H858 0.950 . S
C854 C863 1.390 . S
C855 C854 1.387 . S
C855 C857 1.387 . S
H856 C863 0.950 . S
C857 C855 1.387 . S
C857 C859 1.390 . S
C857 H861 0.950 . S
H858 C854 0.950 . S
C859 C857 1.390 . S
C859 C860 1.387 . S
C859 H862 0.950 . S
C860 C859 1.387 . S
C860 C863 1.387 . S
H861 C857 0.950 . S
H862 C859 0.950 . S
C863 C854 1.390 . S
C863 H856 0.950 . S
C863 C860 1.387 . S
C705 C57 0.811 1_565 S
C710 C233 0.811 1_545 S
C715 C137 0.836 . S
C720 C293 0.836 . S
C725 C372 0.811 . S
C730 C557 0.811 . S
C735 C489 0.836 1_655 S
C740 C645 0.836 1_455 S
C745 C29 2.121 . S
C750 C469 2.149 . S
C755 C117 2.149 . S
C760 C585 2.120 . S
C765 C665 2.147 . S
C770 C205 2.118 . S
C775 C313 2.147 . S
C780 C401 2.119 . S
C785 C409 1.963 . S
C790 C49 2.132 . S
C795 C108 2.084 . S
C800 C497 1.925 . S
C805 C225 2.131 . S
C810 C577 1.962 . S
C815 C321 2.081 . S
C820 C636 1.921 . S
C825 C20 1.963 . S
C830 C381 2.131 . S
C835 C460 2.084 . S
C840 C145 1.925 . S
C845 C548 2.133 . S
C850 C196 1.966 . S
C855 C284 1.921 . S
C860 C673 2.081 . S
