# Generated by pormake.
# Topology ske, (6)-cn, num edge types: 1
# Building blocks:
#     Node 0, Type 0, BuildingBlock: GEDQOX_clean_sbu_0, # of connection points: 6
#     Node 1, Type 0, BuildingBlock: GEDQOX_clean_sbu_0, # of connection points: 6
#     Node 2, Type 0, BuildingBlock: GEDQOX_clean_sbu_0, # of connection points: 6
#     Node 3, Type 0, BuildingBlock: GEDQOX_clean_sbu_0, # of connection points: 6
#     Node 4, Type 0, BuildingBlock: GEDQOX_clean_sbu_0, # of connection points: 6
#     Node 5, Type 0, BuildingBlock: GEDQOX_clean_sbu_0, # of connection points: 6
#     Node 6, Type 0, BuildingBlock: GEDQOX_clean_sbu_0, # of connection points: 6
#     Node 7, Type 0, BuildingBlock: GEDQOX_clean_sbu_0, # of connection points: 6
#     Edge 8, Type (0, 0), None
#     Edge 9, Type (0, 0), None
#     Edge 10, Type (0, 0), None
#     Edge 11, Type (0, 0), None
#     Edge 12, Type (0, 0), None
#     Edge 13, Type (0, 0), None
#     Edge 14, Type (0, 0), None
#     Edge 15, Type (0, 0), None
#     Edge 16, Type (0, 0), None
#     Edge 17, Type (0, 0), None
#     Edge 18, Type (0, 0), None
#     Edge 19, Type (0, 0), None
#     Edge 20, Type (0, 0), None
#     Edge 21, Type (0, 0), None
#     Edge 22, Type (0, 0), None
#     Edge 23, Type (0, 0), None
#     Edge 24, Type (0, 0), None
#     Edge 25, Type (0, 0), None
#     Edge 26, Type (0, 0), None
#     Edge 27, Type (0, 0), None
#     Edge 28, Type (0, 0), None
#     Edge 29, Type (0, 0), None
#     Edge 30, Type (0, 0), None
#     Edge 31, Type (0, 0), None
# Relax obj value: 0.285
# Max RMSD: 0.334
# Mean RMSD: 0.334
data_MOF--net-ske--node1-GEDQOX_clean_sbu_0--edge1-none
_symmetry_space_group_name_H-M    P1
_symmetry_Int_Tables_number       1
_symmetry_cell_setting            triclinic
loop_
_symmetry_equiv_pos_as_xyz
'x, y, z'
_cell_length_a     23.152207
_cell_length_b     12.836173
_cell_length_c     15.468954
_cell_angle_alpha  89.998811
_cell_angle_beta   90.005196
_cell_angle_gamma 86.322471
loop_
_atom_site_label
_atom_site_type_symbol
_atom_site_fract_x
_atom_site_fract_y
_atom_site_fract_z
_atom_type_partial_charge
Nd0 Nd 0.15601 0.27822 0.60209 0.0
Nd1 Nd 0.08624 0.34139 0.71213 0.0
C2 C 0.19828 0.29396 0.44459 0.0
C3 C 0.168 0.30633 0.36119 0.0
C4 C 0.17204 0.39908 0.31422 0.0
C5 C 0.14267 0.41383 0.23605 0.0
C6 C 0.10849 0.33612 0.20336 0.0
C7 C 0.10378 0.24395 0.25119 0.0
C8 C 0.13312 0.22918 0.32951 0.0
C9 C 0.12803 0.09136 0.63739 0.0
C10 C 0.00655 0.28472 0.56953 0.0
C11 C 0.03209 0.4047 0.85486 0.0
C12 C 0.0414 0.3816 0.9469 0.0
C13 C 0.06245 0.28183 0.97394 0.0
C14 C 0.08185 0.26587 1.05861 0.0
C15 C 0.08056 0.34944 0.11751 0.0
C16 C 0.05628 0.44765 0.09141 0.0
C17 C 0.03683 0.46346 1.00676 0.0
C18 C 0.11233 0.50191 0.59726 0.0
C19 C 0.2099 0.26247 0.80049 0.0
O20 O 0.19084 0.37279 0.4965 0.0
O21 O 0.1964 0.20518 0.48474 0.0
O22 O 0.18229 0.11408 0.63635 0.0
O23 O 0.09112 0.17076 0.64983 0.0
O24 O 0.05958 0.24667 0.5462 0.0
O25 O 0.00462 0.34653 0.63539 0.0
O26 O 0.01536 0.32869 0.80656 0.0
O27 O 0.07269 0.45581 0.81854 0.0
O28 O 0.06073 0.47489 0.61245 0.0
O29 O 0.14751 0.44452 0.64194 0.0
O30 O 0.15421 0.27676 0.81476 0.0
O31 O 0.2258 0.26746 0.71767 0.0
H32 H 0.19854 0.45977 0.33757 0.0
H33 H 0.14809 0.48499 0.20013 0.0
H34 H 0.07727 0.18336 0.2282 0.0
H35 H 0.12851 0.15746 0.36501 0.0
H36 H 0.06663 0.21738 0.92867 0.0
H37 H 0.1008 0.18952 1.07636 0.0
H38 H 0.05359 0.51299 0.13584 0.0
H39 H 0.0202 0.54062 0.98714 0.0
Nd40 Nd 0.80667 0.22357 0.60247 0.0
Nd41 Nd 0.87604 0.15949 0.7123 0.0
C42 C 0.76406 0.20881 0.44512 0.0
C43 C 0.79432 0.19477 0.36183 0.0
C44 C 0.78989 0.10154 0.31562 0.0
C45 C 0.81909 0.08561 0.2374 0.0
C46 C 0.85342 0.16263 0.20394 0.0
C47 C 0.85864 0.25508 0.25115 0.0
C48 C 0.82948 0.27104 0.32944 0.0
C49 C 0.83459 0.41025 0.63859 0.0
C50 C 0.95617 0.21772 0.57062 0.0
C51 C 0.92887 0.09254 0.85513 0.0
C52 C 0.91972 0.11571 0.94717 0.0
C53 C 0.89895 0.21566 0.97409 0.0
C54 C 0.87971 0.23196 1.05876 0.0
C55 C 0.88093 0.14858 0.11786 0.0
C56 C 0.90489 0.05011 0.09184 0.0
C57 C 0.92421 0.03399 1.00716 0.0
C58 C 0.85023 0.99993 0.59599 0.0
C59 C 0.75287 0.24007 0.80077 0.0
O60 O 0.77028 0.13009 0.49739 0.0
O61 O 0.76715 0.29756 0.48492 0.0
O62 O 0.78034 0.38749 0.63739 0.0
O63 O 0.87147 0.33077 0.65096 0.0
O64 O 0.90309 0.25426 0.54607 0.0
O65 O 0.95837 0.15796 0.6378 0.0
O66 O 0.947 0.16772 0.80725 0.0
O67 O 0.88742 0.04404 0.81837 0.0
O68 O 0.90177 0.02715 0.61145 0.0
O69 O 0.81503 0.05683 0.64099 0.0
O70 O 0.8086 0.22635 0.81484 0.0
O71 O 0.7369 0.23428 0.71805 0.0
H72 H 0.76319 0.04147 0.33953 0.0
H73 H 0.81335 0.01419 0.202 0.0
H74 H 0.88533 0.31505 0.22762 0.0
H75 H 0.83442 0.34309 0.36431 0.0
H76 H 0.89494 0.28005 0.92874 0.0
H77 H 0.86099 0.3085 1.07642 0.0
H78 H 0.90753 0.98492 0.13643 0.0
H79 H 0.94081 0.95679 0.98766 0.0
Nd80 Nd 0.08636 0.84103 0.46599 0.0
Nd81 Nd 0.15601 0.77803 0.57596 0.0
C82 C 0.03226 0.90417 0.32316 0.0
C83 C 0.04159 0.8811 0.23112 0.0
C84 C 0.06261 0.78131 0.20407 0.0
C85 C 0.08202 0.76537 0.11941 0.0
C86 C 0.08078 0.84897 1.06053 0.0
C87 C 0.05655 0.94721 1.08666 0.0
C88 C 0.03709 0.963 0.17129 0.0
C89 C 0.11245 0.00214 0.58039 0.0
C90 C 0.20995 0.76202 0.37763 0.0
C91 C 0.1984 0.79368 0.73341 0.0
C92 C 0.16818 0.80594 0.81685 0.0
C93 C 0.17225 0.89866 0.86385 0.0
C94 C 0.1429 0.91337 0.94204 0.0
C95 C 0.10872 0.83566 0.9747 0.0
C96 C 0.10398 0.74352 0.92684 0.0
C97 C 0.13331 0.72879 0.8485 0.0
C98 C 0.12784 0.59117 0.54024 0.0
C99 C 0.00656 0.7847 0.60858 0.0
O100 O 0.01556 0.82814 0.37146 0.0
O101 O 0.07281 0.95536 0.35951 0.0
O102 O 0.06086 0.97497 0.56531 0.0
O103 O 0.14767 0.94443 0.53606 0.0
O104 O 0.15426 0.77619 0.36336 0.0
O105 O 0.22584 0.76715 0.46044 0.0
O106 O 0.19083 0.87256 0.68156 0.0
O107 O 0.19655 0.70492 0.69321 0.0
O108 O 0.18211 0.6138 0.54108 0.0
O109 O 0.09101 0.67081 0.5288 0.0
O110 O 0.05959 0.74666 0.63196 0.0
O111 O 0.00468 0.84638 0.54262 0.0
H112 H 0.06674 0.71684 0.24932 0.0
H113 H 0.10095 0.68902 0.10165 0.0
H114 H 0.05391 0.01258 1.04226 0.0
H115 H 0.02051 0.04018 0.19094 0.0
H116 H 0.19875 0.95936 0.84052 0.0
H117 H 0.14835 0.98451 0.97798 0.0
H118 H 0.07747 0.68293 0.94981 0.0
H119 H 0.12867 0.6571 0.81297 0.0
Nd120 Nd 0.87591 0.65986 0.46587 0.0
Nd121 Nd 0.80667 0.72377 0.57558 0.0
C122 C 0.9287 0.59307 0.32297 0.0
C123 C 0.91952 0.61623 0.23093 0.0
C124 C 0.89879 0.71619 0.20398 0.0
C125 C 0.87953 0.73248 0.11931 0.0
C126 C 0.8807 0.64907 1.06024 0.0
C127 C 0.90463 0.55059 1.08629 0.0
C128 C 0.92395 0.53448 0.17098 0.0
C129 C 0.8501 0.4997 0.58169 0.0
C130 C 0.75282 0.74052 0.37732 0.0
C131 C 0.76395 0.70911 0.73285 0.0
C132 C 0.79414 0.69519 0.81621 0.0
C133 C 0.78969 0.60199 0.86246 0.0
C134 C 0.81886 0.58609 0.9407 0.0
C135 C 0.85319 0.66312 0.97416 0.0
C136 C 0.85841 0.75556 0.92693 0.0
C137 C 0.82928 0.77148 0.8486 0.0
C138 C 0.83479 0.91046 0.53905 0.0
C139 C 0.95617 0.7177 0.60754 0.0
O140 O 0.9468 0.66827 0.37086 0.0
O141 O 0.88728 0.5445 0.35973 0.0
O142 O 0.90163 0.52707 0.56638 0.0
O143 O 0.81486 0.55692 0.53703 0.0
O144 O 0.80855 0.7269 0.36328 0.0
O145 O 0.73686 0.73461 0.46003 0.0
O146 O 0.77031 0.63034 0.68066 0.0
O147 O 0.767 0.79784 0.693 0.0
O148 O 0.78053 0.88779 0.54002 0.0
O149 O 0.87159 0.83074 0.5277 0.0
O150 O 0.9031 0.7543 0.63209 0.0
O151 O 0.9583 0.65799 0.54032 0.0
H152 H 0.89482 0.7806 0.24931 0.0
H153 H 0.86083 0.80902 0.10164 0.0
H154 H 0.90723 0.48537 1.04174 0.0
H155 H 0.9405 0.45725 0.1905 0.0
H156 H 0.763 0.5419 0.83854 0.0
H157 H 0.8131 0.5147 0.97612 0.0
H158 H 0.8851 0.81553 0.95045 0.0
H159 H 0.83423 0.84351 0.8137 0.0
Nd160 Nd 0.656 0.77822 0.10207 0.0
Nd161 Nd 0.58624 0.8414 0.2121 0.0
C162 C 0.69827 0.79395 0.94457 0.0
C163 C 0.66799 0.80633 0.86117 0.0
C164 C 0.67203 0.89908 0.8142 0.0
C165 C 0.64266 0.91384 0.73603 0.0
C166 C 0.60848 0.83612 0.70334 0.0
C167 C 0.60377 0.74395 0.75117 0.0
C168 C 0.63311 0.72919 0.82949 0.0
C169 C 0.62803 0.59136 0.13737 0.0
C170 C 0.50654 0.78473 1.06952 0.0
C171 C 0.53209 0.9047 0.35484 0.0
C172 C 0.54139 0.88161 0.44688 0.0
C173 C 0.56245 0.78183 0.47392 0.0
C174 C 0.58184 0.76587 0.55858 0.0
C175 C 0.58055 0.84944 0.61749 0.0
C176 C 0.55627 0.94766 0.59138 0.0
C177 C 0.53682 0.96346 0.50674 0.0
C178 C 0.61234 0.00191 0.09724 0.0
C179 C 0.70989 0.76247 0.30047 0.0
O180 O 0.69084 0.87279 0.99648 0.0
O181 O 0.69639 0.70518 0.98472 0.0
O182 O 0.68228 0.61409 0.13633 0.0
O183 O 0.59112 0.67076 0.14981 0.0
O184 O 0.55958 0.74667 1.0462 0.0
O185 O 0.50462 0.84656 0.13536 0.0
O186 O 0.51536 0.82869 0.30653 0.0
O187 O 0.57269 0.95581 0.31852 0.0
O188 O 0.56073 0.9749 0.11242 0.0
O189 O 0.64751 0.94452 0.14192 0.0
O190 O 0.65421 0.77677 0.31475 0.0
O191 O 0.7258 0.76746 0.21765 0.0
H192 H 0.69854 0.95977 0.83755 0.0
H193 H 0.64808 0.98499 0.70011 0.0
H194 H 0.57726 0.68337 0.72818 0.0
H195 H 0.6285 0.65746 0.86498 0.0
H196 H 0.56662 0.71738 0.42864 0.0
H197 H 0.60079 0.68953 0.57634 0.0
H198 H 0.55358 0.013 0.63581 0.0
H199 H 0.5202 0.04063 0.48711 0.0
Nd200 Nd 0.30667 0.72356 0.10249 0.0
Nd201 Nd 0.37604 0.65949 0.21232 0.0
C202 C 0.26405 0.70881 0.94514 0.0
C203 C 0.29432 0.69476 0.86185 0.0
C204 C 0.28988 0.60154 0.81564 0.0
C205 C 0.31908 0.5856 0.73742 0.0
C206 C 0.35342 0.66262 0.70396 0.0
C207 C 0.35863 0.75508 0.75117 0.0
C208 C 0.32947 0.77104 0.82946 0.0
C209 C 0.33458 0.91025 0.13861 0.0
C210 C 0.45617 0.71773 1.07063 0.0
C211 C 0.42887 0.59254 0.35515 0.0
C212 C 0.41971 0.61571 0.44719 0.0
C213 C 0.39894 0.71566 0.47411 0.0
C214 C 0.3797 0.73196 0.55878 0.0
C215 C 0.38092 0.64857 0.61788 0.0
C216 C 0.40489 0.55011 0.59186 0.0
C217 C 0.42421 0.53399 0.50718 0.0
C218 C 0.35024 0.49993 0.09601 0.0
C219 C 0.25287 0.74006 0.30079 0.0
O220 O 0.27027 0.63009 0.99741 0.0
O221 O 0.26714 0.79755 0.98494 0.0
O222 O 0.28034 0.88748 0.13741 0.0
O223 O 0.37146 0.83076 0.15098 0.0
O224 O 0.40308 0.75425 1.04607 0.0
O225 O 0.45837 0.65798 0.13783 0.0
O226 O 0.447 0.66772 0.30727 0.0
O227 O 0.38742 0.54404 0.31839 0.0
O228 O 0.40178 0.52715 0.11147 0.0
O229 O 0.31503 0.55683 0.14101 0.0
O230 O 0.3086 0.72635 0.31486 0.0
O231 O 0.2369 0.73428 0.21807 0.0
H232 H 0.26318 0.54146 0.83955 0.0
H233 H 0.31334 0.51419 0.70202 0.0
H234 H 0.38532 0.81505 0.72764 0.0
H235 H 0.33441 0.84309 0.86433 0.0
H236 H 0.39493 0.78004 0.42877 0.0
H237 H 0.36099 0.80849 0.57644 0.0
H238 H 0.40753 0.48492 0.63645 0.0
H239 H 0.44081 0.45679 0.48768 0.0
Nd240 Nd 0.58636 0.34103 0.96597 0.0
Nd241 Nd 0.65601 0.27804 1.07595 0.0
C242 C 0.53226 0.40417 0.82313 0.0
C243 C 0.5416 0.3811 0.7311 0.0
C244 C 0.56261 0.28131 0.70405 0.0
C245 C 0.58203 0.26537 0.61939 0.0
C246 C 0.58079 0.34897 0.56051 0.0
C247 C 0.55656 0.44721 0.58664 0.0
C248 C 0.5371 0.463 0.67127 0.0
C249 C 0.61245 0.50214 1.08037 0.0
C250 C 0.70995 0.26202 0.87761 0.0
C251 C 0.69841 0.29368 0.23339 0.0
C252 C 0.66819 0.30594 0.31683 0.0
C253 C 0.67226 0.39866 0.36383 0.0
C254 C 0.64291 0.41338 0.44202 0.0
C255 C 0.60873 0.33566 0.47467 0.0
C256 C 0.60399 0.24352 0.42682 0.0
C257 C 0.63332 0.22879 0.34848 0.0
C258 C 0.62784 0.09117 1.04022 0.0
C259 C 0.50657 0.2847 0.10857 0.0
O260 O 0.51556 0.32814 0.87143 0.0
O261 O 0.57281 0.45537 0.85949 0.0
O262 O 0.56085 0.47497 1.06529 0.0
O263 O 0.64766 0.44443 1.03605 0.0
O264 O 0.65426 0.27619 0.86334 0.0
O265 O 0.72585 0.26716 0.96042 0.0
O266 O 0.69084 0.37256 0.18154 0.0
O267 O 0.69656 0.20493 0.19319 0.0
O268 O 0.68212 0.1138 1.04106 0.0
O269 O 0.59101 0.17082 1.02878 0.0
O270 O 0.5596 0.24666 0.13196 0.0
O271 O 0.50468 0.34636 1.0426 0.0
H272 H 0.56674 0.21684 0.7493 0.0
H273 H 0.60095 0.18902 0.60163 0.0
H274 H 0.55391 0.51258 0.54224 0.0
H275 H 0.52051 0.54018 0.69092 0.0
H276 H 0.69875 0.45936 0.3405 0.0
H277 H 0.64835 0.48451 0.47796 0.0
H278 H 0.57748 0.18293 0.44979 0.0
H279 H 0.62868 0.15711 0.31295 0.0
Nd280 Nd 0.37591 0.15986 0.96589 0.0
Nd281 Nd 0.30668 0.22376 1.0756 0.0
C282 C 0.4287 0.09307 0.82299 0.0
C283 C 0.41953 0.11622 0.73095 0.0
C284 C 0.39879 0.21619 0.70401 0.0
C285 C 0.37954 0.23247 0.61933 0.0
C286 C 0.38071 0.14906 0.56027 0.0
C287 C 0.40463 0.05058 0.58632 0.0
C288 C 0.42396 0.03447 0.671 0.0
C289 C 0.3501 0.99969 1.08171 0.0
C290 C 0.25282 0.24052 0.87734 0.0
C291 C 0.26396 0.20911 0.23287 0.0
C292 C 0.29415 0.19518 0.31623 0.0
C293 C 0.2897 0.10199 0.36248 0.0
C294 C 0.31887 0.08609 0.44072 0.0
C295 C 0.3532 0.16311 0.47418 0.0
C296 C 0.35842 0.25555 0.42695 0.0
C297 C 0.32929 0.27148 0.34862 0.0
C298 C 0.33479 0.41046 1.03907 0.0
C299 C 0.45618 0.2177 0.10755 0.0
O300 O 0.4468 0.16826 0.87088 0.0
O301 O 0.38728 0.0445 0.85975 0.0
O302 O 0.40163 0.02707 1.06641 0.0
O303 O 0.31486 0.05692 1.03705 0.0
O304 O 0.30855 0.2269 0.8633 0.0
O305 O 0.23686 0.23461 0.96005 0.0
O306 O 0.27032 0.13034 0.18068 0.0
O307 O 0.26701 0.29784 0.19302 0.0
O308 O 0.28053 0.38779 1.04004 0.0
O309 O 0.37159 0.33074 1.02772 0.0
O310 O 0.40311 0.25431 0.1321 0.0
O311 O 0.4583 0.15796 1.04035 0.0
H312 H 0.39482 0.2806 0.74933 0.0
H313 H 0.36084 0.30901 0.60166 0.0
H314 H 0.40723 0.98536 0.54176 0.0
H315 H 0.44051 0.95724 0.69053 0.0
H316 H 0.263 0.04189 0.33856 0.0
H317 H 0.31311 0.01469 0.47614 0.0
H318 H 0.38511 0.31552 0.45047 0.0
H319 H 0.33425 0.3435 0.31372 0.0
loop_
_geom_bond_atom_site_label_1
_geom_bond_atom_site_label_2
_geom_bond_distance
_geom_bond_site_symmetry_2
_ccdc_geom_bond_type
Nd0 C2 2.836 . S
Nd0 O20 2.500 . S
Nd0 O21 2.492 . S
Nd0 O22 2.487 . S
Nd0 O23 2.682 . S
Nd0 O24 2.410 . S
Nd0 O29 2.414 . S
Nd0 O31 2.424 . S
Nd1 C11 2.836 . S
Nd1 O23 2.414 . S
Nd1 O25 2.424 . S
Nd1 O26 2.500 . S
Nd1 O27 2.492 . S
Nd1 O28 2.487 . S
Nd1 O29 2.682 . S
Nd1 O30 2.410 . S
C2 Nd0 2.836 . S
C2 C3 1.498 . S
C2 O20 1.258 . S
C2 O21 1.239 . S
C3 C2 1.498 . S
C3 C4 1.366 . S
C3 C8 1.407 . S
C4 C3 1.366 . S
C4 C5 1.392 . S
C4 H32 0.930 . S
C5 C4 1.392 . S
C5 C6 1.398 . S
C5 H33 0.929 . S
C6 C5 1.398 . S
C6 C7 1.352 . S
C7 C6 1.352 . S
C7 C8 1.384 . S
C7 H34 0.930 . S
C8 C3 1.407 . S
C8 C7 1.384 . S
C8 H35 0.929 . S
C9 O22 1.241 . S
C9 O23 1.273 . S
C10 O24 1.251 . S
C10 O25 1.268 . S
C11 Nd1 2.836 . S
C11 C12 1.498 . S
C11 O26 1.258 . S
C11 O27 1.239 . S
C12 C11 1.498 . S
C12 C13 1.366 . S
C12 C17 1.407 . S
C13 C12 1.366 . S
C13 C14 1.392 . S
C13 H36 0.930 . S
C14 C13 1.392 . S
C14 C15 1.398 1_556 S
C14 H37 0.929 . S
C15 C14 1.398 1_554 S
C15 C16 1.352 1_554 S
C16 C15 1.352 1_556 S
C16 C17 1.384 . S
C16 H38 0.930 1_556 S
C17 C12 1.407 . S
C17 C16 1.384 . S
C17 H39 0.929 . S
C18 O28 1.241 . S
C18 O29 1.273 . S
C19 O30 1.251 . S
C19 O31 1.268 . S
O20 Nd0 2.500 . S
O20 C2 1.258 . S
O21 Nd0 2.492 . S
O21 C2 1.239 . S
O22 Nd0 2.487 . S
O22 C9 1.241 . S
O23 Nd0 2.682 . S
O23 Nd1 2.414 . S
O23 C9 1.273 . S
O24 Nd0 2.410 . S
O24 C10 1.251 . S
O25 Nd1 2.424 . S
O25 C10 1.268 . S
O26 Nd1 2.500 . S
O26 C11 1.258 . S
O27 Nd1 2.492 . S
O27 C11 1.239 . S
O28 Nd1 2.487 . S
O28 C18 1.241 . S
O29 Nd0 2.414 . S
O29 Nd1 2.682 . S
O29 C18 1.273 . S
O30 Nd1 2.410 . S
O30 C19 1.251 . S
O31 Nd0 2.424 . S
O31 C19 1.268 . S
H32 C4 0.930 . S
H33 C5 0.929 . S
H34 C7 0.930 . S
H35 C8 0.929 . S
H36 C13 0.930 . S
H37 C14 0.929 . S
H38 C16 0.930 1_554 S
H39 C17 0.929 . S
Nd40 C42 2.836 . S
Nd40 O60 2.500 . S
Nd40 O61 2.492 . S
Nd40 O62 2.487 . S
Nd40 O63 2.682 . S
Nd40 O64 2.410 . S
Nd40 O69 2.414 . S
Nd40 O71 2.424 . S
Nd41 C51 2.836 . S
Nd41 O63 2.414 . S
Nd41 O65 2.424 . S
Nd41 O66 2.500 . S
Nd41 O67 2.492 . S
Nd41 O68 2.487 . S
Nd41 O69 2.682 . S
Nd41 O70 2.410 . S
C42 Nd40 2.836 . S
C42 C43 1.498 . S
C42 O60 1.258 . S
C42 O61 1.239 . S
C43 C42 1.498 . S
C43 C44 1.366 . S
C43 C48 1.407 . S
C44 C43 1.366 . S
C44 C45 1.392 . S
C44 H72 0.930 . S
C45 C44 1.392 . S
C45 C46 1.398 . S
C45 H73 0.929 . S
C46 C45 1.398 . S
C46 C47 1.352 . S
C47 C46 1.352 . S
C47 C48 1.384 . S
C47 H74 0.930 . S
C48 C43 1.407 . S
C48 C47 1.384 . S
C48 H75 0.929 . S
C49 O62 1.241 . S
C49 O63 1.273 . S
C50 O64 1.251 . S
C50 O65 1.268 . S
C51 Nd41 2.836 . S
C51 C52 1.498 . S
C51 O66 1.258 . S
C51 O67 1.239 . S
C52 C51 1.498 . S
C52 C53 1.366 . S
C52 C57 1.407 . S
C53 C52 1.366 . S
C53 C54 1.392 . S
C53 H76 0.930 . S
C54 C53 1.392 . S
C54 C55 1.398 1_556 S
C54 H77 0.929 . S
C55 C54 1.398 1_554 S
C55 C56 1.352 1_554 S
C56 C55 1.352 1_556 S
C56 C57 1.384 . S
C56 H78 0.930 1_556 S
C57 C52 1.407 . S
C57 C56 1.384 . S
C57 H79 0.929 . S
C58 O68 1.241 . S
C58 O69 1.273 . S
C59 O70 1.251 . S
C59 O71 1.268 . S
O60 Nd40 2.500 . S
O60 C42 1.258 . S
O61 Nd40 2.492 . S
O61 C42 1.239 . S
O62 Nd40 2.487 . S
O62 C49 1.241 . S
O63 Nd40 2.682 . S
O63 Nd41 2.414 . S
O63 C49 1.273 . S
O64 Nd40 2.410 . S
O64 C50 1.251 . S
O65 Nd41 2.424 . S
O65 C50 1.268 . S
O66 Nd41 2.500 . S
O66 C51 1.258 . S
O67 Nd41 2.492 . S
O67 C51 1.239 . S
O68 Nd41 2.487 . S
O68 C58 1.241 . S
O69 Nd40 2.414 . S
O69 Nd41 2.682 . S
O69 C58 1.273 . S
O70 Nd41 2.410 . S
O70 C59 1.251 . S
O71 Nd40 2.424 . S
O71 C59 1.268 . S
H72 C44 0.930 . S
H73 C45 0.929 . S
H74 C47 0.930 . S
H75 C48 0.929 . S
H76 C53 0.930 . S
H77 C54 0.929 . S
H78 C56 0.930 1_554 S
H79 C57 0.929 . S
Nd80 C82 2.836 . S
Nd80 O100 2.500 . S
Nd80 O101 2.492 . S
Nd80 O102 2.487 . S
Nd80 O103 2.682 . S
Nd80 O104 2.410 . S
Nd80 O109 2.414 . S
Nd80 O111 2.424 . S
Nd81 C91 2.836 . S
Nd81 O103 2.414 . S
Nd81 O105 2.424 . S
Nd81 O106 2.500 . S
Nd81 O107 2.492 . S
Nd81 O108 2.487 . S
Nd81 O109 2.682 . S
Nd81 O110 2.410 . S
C82 Nd80 2.836 . S
C82 C83 1.498 . S
C82 O100 1.258 . S
C82 O101 1.239 . S
C83 C82 1.498 . S
C83 C84 1.366 . S
C83 C88 1.407 . S
C84 C83 1.366 . S
C84 C85 1.392 . S
C84 H112 0.930 . S
C85 C84 1.392 . S
C85 C86 1.398 1_554 S
C85 H113 0.929 . S
C86 C85 1.398 1_556 S
C86 C87 1.352 1_556 S
C87 C86 1.352 1_554 S
C87 C88 1.384 . S
C87 H114 0.930 1_554 S
C88 C83 1.407 . S
C88 C87 1.384 . S
C88 H115 0.929 . S
C89 O102 1.241 . S
C89 O103 1.273 . S
C90 O104 1.251 . S
C90 O105 1.268 . S
C91 Nd81 2.836 . S
C91 C92 1.498 . S
C91 O106 1.258 . S
C91 O107 1.239 . S
C92 C91 1.498 . S
C92 C93 1.366 . S
C92 C97 1.407 . S
C93 C92 1.366 . S
C93 C94 1.392 . S
C93 H116 0.930 . S
C94 C93 1.392 . S
C94 C95 1.398 . S
C94 H117 0.929 . S
C95 C94 1.398 . S
C95 C96 1.352 . S
C96 C95 1.352 . S
C96 C97 1.384 . S
C96 H118 0.930 . S
C97 C92 1.407 . S
C97 C96 1.384 . S
C97 H119 0.929 . S
C98 O108 1.241 . S
C98 O109 1.273 . S
C99 O110 1.251 . S
C99 O111 1.268 . S
O100 Nd80 2.500 . S
O100 C82 1.258 . S
O101 Nd80 2.492 . S
O101 C82 1.239 . S
O102 Nd80 2.487 . S
O102 C89 1.241 . S
O103 Nd80 2.682 . S
O103 Nd81 2.414 . S
O103 C89 1.273 . S
O104 Nd80 2.410 . S
O104 C90 1.251 . S
O105 Nd81 2.424 . S
O105 C90 1.268 . S
O106 Nd81 2.500 . S
O106 C91 1.258 . S
O107 Nd81 2.492 . S
O107 C91 1.239 . S
O108 Nd81 2.487 . S
O108 C98 1.241 . S
O109 Nd80 2.414 . S
O109 Nd81 2.682 . S
O109 C98 1.273 . S
O110 Nd81 2.410 . S
O110 C99 1.251 . S
O111 Nd80 2.424 . S
O111 C99 1.268 . S
H112 C84 0.930 . S
H113 C85 0.929 . S
H114 C87 0.930 1_556 S
H115 C88 0.929 . S
H116 C93 0.930 . S
H117 C94 0.929 . S
H118 C96 0.930 . S
H119 C97 0.929 . S
Nd120 C122 2.836 . S
Nd120 O140 2.500 . S
Nd120 O141 2.492 . S
Nd120 O142 2.487 . S
Nd120 O143 2.682 . S
Nd120 O144 2.410 . S
Nd120 O149 2.414 . S
Nd120 O151 2.424 . S
Nd121 C131 2.836 . S
Nd121 O143 2.414 . S
Nd121 O145 2.424 . S
Nd121 O146 2.500 . S
Nd121 O147 2.492 . S
Nd121 O148 2.487 . S
Nd121 O149 2.682 . S
Nd121 O150 2.410 . S
C122 Nd120 2.836 . S
C122 C123 1.498 . S
C122 O140 1.258 . S
C122 O141 1.239 . S
C123 C122 1.498 . S
C123 C124 1.366 . S
C123 C128 1.407 . S
C124 C123 1.366 . S
C124 C125 1.392 . S
C124 H152 0.930 . S
C125 C124 1.392 . S
C125 C126 1.398 1_554 S
C125 H153 0.929 . S
C126 C125 1.398 1_556 S
C126 C127 1.352 1_556 S
C127 C126 1.352 1_554 S
C127 C128 1.384 . S
C127 H154 0.930 1_554 S
C128 C123 1.407 . S
C128 C127 1.384 . S
C128 H155 0.929 . S
C129 O142 1.241 . S
C129 O143 1.273 . S
C130 O144 1.251 . S
C130 O145 1.268 . S
C131 Nd121 2.836 . S
C131 C132 1.498 . S
C131 O146 1.258 . S
C131 O147 1.239 . S
C132 C131 1.498 . S
C132 C133 1.366 . S
C132 C137 1.407 . S
C133 C132 1.366 . S
C133 C134 1.392 . S
C133 H156 0.930 . S
C134 C133 1.392 . S
C134 C135 1.398 . S
C134 H157 0.929 . S
C135 C134 1.398 . S
C135 C136 1.352 . S
C136 C135 1.352 . S
C136 C137 1.384 . S
C136 H158 0.930 . S
C137 C132 1.407 . S
C137 C136 1.384 . S
C137 H159 0.929 . S
C138 O148 1.241 . S
C138 O149 1.273 . S
C139 O150 1.251 . S
C139 O151 1.268 . S
O140 Nd120 2.500 . S
O140 C122 1.258 . S
O141 Nd120 2.492 . S
O141 C122 1.239 . S
O142 Nd120 2.487 . S
O142 C129 1.241 . S
O143 Nd120 2.682 . S
O143 Nd121 2.414 . S
O143 C129 1.273 . S
O144 Nd120 2.410 . S
O144 C130 1.251 . S
O145 Nd121 2.424 . S
O145 C130 1.268 . S
O146 Nd121 2.500 . S
O146 C131 1.258 . S
O147 Nd121 2.492 . S
O147 C131 1.239 . S
O148 Nd121 2.487 . S
O148 C138 1.241 . S
O149 Nd120 2.414 . S
O149 Nd121 2.682 . S
O149 C138 1.273 . S
O150 Nd121 2.410 . S
O150 C139 1.251 . S
O151 Nd120 2.424 . S
O151 C139 1.268 . S
H152 C124 0.930 . S
H153 C125 0.929 . S
H154 C127 0.930 1_556 S
H155 C128 0.929 . S
H156 C133 0.930 . S
H157 C134 0.929 . S
H158 C136 0.930 . S
H159 C137 0.929 . S
Nd160 C162 2.836 . S
Nd160 O180 2.500 . S
Nd160 O181 2.492 . S
Nd160 O182 2.487 . S
Nd160 O183 2.682 1_556 S
Nd160 O184 2.410 . S
Nd160 O189 2.414 1_556 S
Nd160 O191 2.424 1_556 S
Nd161 C171 2.836 . S
Nd161 O183 2.414 . S
Nd161 O185 2.424 . S
Nd161 O186 2.500 . S
Nd161 O187 2.492 . S
Nd161 O188 2.487 . S
Nd161 O189 2.682 . S
Nd161 O190 2.410 . S
C162 Nd160 2.836 . S
C162 C163 1.498 . S
C162 O180 1.258 . S
C162 O181 1.239 . S
C163 C162 1.498 . S
C163 C164 1.366 . S
C163 C168 1.407 . S
C164 C163 1.366 . S
C164 C165 1.392 . S
C164 H192 0.930 . S
C165 C164 1.392 . S
C165 C166 1.398 . S
C165 H193 0.929 . S
C166 C165 1.398 . S
C166 C167 1.352 . S
C167 C166 1.352 . S
C167 C168 1.384 . S
C167 H194 0.930 . S
C168 C163 1.407 . S
C168 C167 1.384 . S
C168 H195 0.929 . S
C169 O182 1.241 1_554 S
C169 O183 1.273 . S
C170 O184 1.251 . S
C170 O185 1.268 1_556 S
C171 Nd161 2.836 . S
C171 C172 1.498 . S
C171 O186 1.258 . S
C171 O187 1.239 . S
C172 C171 1.498 . S
C172 C173 1.366 . S
C172 C177 1.407 . S
C173 C172 1.366 . S
C173 C174 1.392 . S
C173 H196 0.930 . S
C174 C173 1.392 . S
C174 C175 1.398 . S
C174 H197 0.929 . S
C175 C174 1.398 . S
C175 C176 1.352 . S
C176 C175 1.352 . S
C176 C177 1.384 . S
C176 H198 0.930 . S
C177 C172 1.407 . S
C177 C176 1.384 . S
C177 H199 0.929 . S
C178 O188 1.241 . S
C178 O189 1.273 . S
C179 O190 1.251 . S
C179 O191 1.268 . S
O180 Nd160 2.500 . S
O180 C162 1.258 . S
O181 Nd160 2.492 . S
O181 C162 1.239 . S
O182 Nd160 2.487 . S
O182 C169 1.241 1_556 S
O183 Nd160 2.682 1_554 S
O183 Nd161 2.414 . S
O183 C169 1.273 . S
O184 Nd160 2.410 . S
O184 C170 1.251 . S
O185 Nd161 2.424 . S
O185 C170 1.268 1_554 S
O186 Nd161 2.500 . S
O186 C171 1.258 . S
O187 Nd161 2.492 . S
O187 C171 1.239 . S
O188 Nd161 2.487 . S
O188 C178 1.241 . S
O189 Nd160 2.414 1_554 S
O189 Nd161 2.682 . S
O189 C178 1.273 . S
O190 Nd161 2.410 . S
O190 C179 1.251 . S
O191 Nd160 2.424 1_554 S
O191 C179 1.268 . S
H192 C164 0.930 . S
H193 C165 0.929 . S
H194 C167 0.930 . S
H195 C168 0.929 . S
H196 C173 0.930 . S
H197 C174 0.929 . S
H198 C176 0.930 . S
H199 C177 0.929 . S
Nd200 C202 2.836 . S
Nd200 O220 2.500 . S
Nd200 O221 2.492 . S
Nd200 O222 2.487 . S
Nd200 O223 2.682 1_556 S
Nd200 O224 2.410 . S
Nd200 O229 2.414 1_556 S
Nd200 O231 2.424 1_556 S
Nd201 C211 2.836 . S
Nd201 O223 2.414 . S
Nd201 O225 2.424 . S
Nd201 O226 2.500 . S
Nd201 O227 2.492 . S
Nd201 O228 2.487 . S
Nd201 O229 2.682 . S
Nd201 O230 2.410 . S
C202 Nd200 2.836 . S
C202 C203 1.498 . S
C202 O220 1.258 . S
C202 O221 1.239 . S
C203 C202 1.498 . S
C203 C204 1.366 . S
C203 C208 1.407 . S
C204 C203 1.366 . S
C204 C205 1.392 . S
C204 H232 0.930 . S
C205 C204 1.392 . S
C205 C206 1.398 . S
C205 H233 0.929 . S
C206 C205 1.398 . S
C206 C207 1.352 . S
C207 C206 1.352 . S
C207 C208 1.384 . S
C207 H234 0.930 . S
C208 C203 1.407 . S
C208 C207 1.384 . S
C208 H235 0.929 . S
C209 O222 1.241 1_554 S
C209 O223 1.273 . S
C210 O224 1.251 . S
C210 O225 1.268 1_556 S
C211 Nd201 2.836 . S
C211 C212 1.498 . S
C211 O226 1.258 . S
C211 O227 1.239 . S
C212 C211 1.498 . S
C212 C213 1.366 . S
C212 C217 1.407 . S
C213 C212 1.366 . S
C213 C214 1.392 . S
C213 H236 0.930 . S
C214 C213 1.392 . S
C214 C215 1.398 . S
C214 H237 0.929 . S
C215 C214 1.398 . S
C215 C216 1.352 . S
C216 C215 1.352 . S
C216 C217 1.384 . S
C216 H238 0.930 . S
C217 C212 1.407 . S
C217 C216 1.384 . S
C217 H239 0.929 . S
C218 O228 1.241 . S
C218 O229 1.273 . S
C219 O230 1.251 . S
C219 O231 1.268 . S
O220 Nd200 2.500 . S
O220 C202 1.258 . S
O221 Nd200 2.492 . S
O221 C202 1.239 . S
O222 Nd200 2.487 . S
O222 C209 1.241 1_556 S
O223 Nd200 2.682 1_554 S
O223 Nd201 2.414 . S
O223 C209 1.273 . S
O224 Nd200 2.410 . S
O224 C210 1.251 . S
O225 Nd201 2.424 . S
O225 C210 1.268 1_554 S
O226 Nd201 2.500 . S
O226 C211 1.258 . S
O227 Nd201 2.492 . S
O227 C211 1.239 . S
O228 Nd201 2.487 . S
O228 C218 1.241 . S
O229 Nd200 2.414 1_554 S
O229 Nd201 2.682 . S
O229 C218 1.273 . S
O230 Nd201 2.410 . S
O230 C219 1.251 . S
O231 Nd200 2.424 1_554 S
O231 C219 1.268 . S
H232 C204 0.930 . S
H233 C205 0.929 . S
H234 C207 0.930 . S
H235 C208 0.929 . S
H236 C213 0.930 . S
H237 C214 0.929 . S
H238 C216 0.930 . S
H239 C217 0.929 . S
Nd240 C242 2.836 . S
Nd240 O260 2.500 . S
Nd240 O261 2.492 . S
Nd240 O262 2.487 . S
Nd240 O263 2.682 . S
Nd240 O264 2.410 . S
Nd240 O269 2.414 . S
Nd240 O271 2.424 . S
Nd241 C251 2.836 . S
Nd241 O263 2.414 1_554 S
Nd241 O265 2.424 1_554 S
Nd241 O266 2.500 . S
Nd241 O267 2.492 . S
Nd241 O268 2.487 . S
Nd241 O269 2.682 1_554 S
Nd241 O270 2.410 . S
C242 Nd240 2.836 . S
C242 C243 1.498 . S
C242 O260 1.258 . S
C242 O261 1.239 . S
C243 C242 1.498 . S
C243 C244 1.366 . S
C243 C248 1.407 . S
C244 C243 1.366 . S
C244 C245 1.392 . S
C244 H272 0.930 . S
C245 C244 1.392 . S
C245 C246 1.398 . S
C245 H273 0.929 . S
C246 C245 1.398 . S
C246 C247 1.352 . S
C247 C246 1.352 . S
C247 C248 1.384 . S
C247 H274 0.930 . S
C248 C243 1.407 . S
C248 C247 1.384 . S
C248 H275 0.929 . S
C249 O262 1.241 . S
C249 O263 1.273 . S
C250 O264 1.251 . S
C250 O265 1.268 . S
C251 Nd241 2.836 . S
C251 C252 1.498 . S
C251 O266 1.258 . S
C251 O267 1.239 . S
C252 C251 1.498 . S
C252 C253 1.366 . S
C252 C257 1.407 . S
C253 C252 1.366 . S
C253 C254 1.392 . S
C253 H276 0.930 . S
C254 C253 1.392 . S
C254 C255 1.398 . S
C254 H277 0.929 . S
C255 C254 1.398 . S
C255 C256 1.352 . S
C256 C255 1.352 . S
C256 C257 1.384 . S
C256 H278 0.930 . S
C257 C252 1.407 . S
C257 C256 1.384 . S
C257 H279 0.929 . S
C258 O268 1.241 1_556 S
C258 O269 1.273 . S
C259 O270 1.251 . S
C259 O271 1.268 1_554 S
O260 Nd240 2.500 . S
O260 C242 1.258 . S
O261 Nd240 2.492 . S
O261 C242 1.239 . S
O262 Nd240 2.487 . S
O262 C249 1.241 . S
O263 Nd240 2.682 . S
O263 Nd241 2.414 1_556 S
O263 C249 1.273 . S
O264 Nd240 2.410 . S
O264 C250 1.251 . S
O265 Nd241 2.424 1_556 S
O265 C250 1.268 . S
O266 Nd241 2.500 . S
O266 C251 1.258 . S
O267 Nd241 2.492 . S
O267 C251 1.239 . S
O268 Nd241 2.487 . S
O268 C258 1.241 1_554 S
O269 Nd240 2.414 . S
O269 Nd241 2.682 1_556 S
O269 C258 1.273 . S
O270 Nd241 2.410 . S
O270 C259 1.251 . S
O271 Nd240 2.424 . S
O271 C259 1.268 1_556 S
H272 C244 0.930 . S
H273 C245 0.929 . S
H274 C247 0.930 . S
H275 C248 0.929 . S
H276 C253 0.930 . S
H277 C254 0.929 . S
H278 C256 0.930 . S
H279 C257 0.929 . S
Nd280 C282 2.836 . S
Nd280 O300 2.500 . S
Nd280 O301 2.492 . S
Nd280 O302 2.487 . S
Nd280 O303 2.682 . S
Nd280 O304 2.410 . S
Nd280 O309 2.414 . S
Nd280 O311 2.424 . S
Nd281 C291 2.836 . S
Nd281 O303 2.414 1_554 S
Nd281 O305 2.424 1_554 S
Nd281 O306 2.500 . S
Nd281 O307 2.492 . S
Nd281 O308 2.487 . S
Nd281 O309 2.682 1_554 S
Nd281 O310 2.410 . S
C282 Nd280 2.836 . S
C282 C283 1.498 . S
C282 O300 1.258 . S
C282 O301 1.239 . S
C283 C282 1.498 . S
C283 C284 1.366 . S
C283 C288 1.407 . S
C284 C283 1.366 . S
C284 C285 1.392 . S
C284 H312 0.930 . S
C285 C284 1.392 . S
C285 C286 1.398 . S
C285 H313 0.929 . S
C286 C285 1.398 . S
C286 C287 1.352 . S
C287 C286 1.352 . S
C287 C288 1.384 . S
C287 H314 0.930 . S
C288 C283 1.407 . S
C288 C287 1.384 . S
C288 H315 0.929 . S
C289 O302 1.241 . S
C289 O303 1.273 . S
C290 O304 1.251 . S
C290 O305 1.268 . S
C291 Nd281 2.836 . S
C291 C292 1.498 . S
C291 O306 1.258 . S
C291 O307 1.239 . S
C292 C291 1.498 . S
C292 C293 1.366 . S
C292 C297 1.407 . S
C293 C292 1.366 . S
C293 C294 1.392 . S
C293 H316 0.930 . S
C294 C293 1.392 . S
C294 C295 1.398 . S
C294 H317 0.929 . S
C295 C294 1.398 . S
C295 C296 1.352 . S
C296 C295 1.352 . S
C296 C297 1.384 . S
C296 H318 0.930 . S
C297 C292 1.407 . S
C297 C296 1.384 . S
C297 H319 0.929 . S
C298 O308 1.241 1_556 S
C298 O309 1.273 . S
C299 O310 1.251 . S
C299 O311 1.268 1_554 S
O300 Nd280 2.500 . S
O300 C282 1.258 . S
O301 Nd280 2.492 . S
O301 C282 1.239 . S
O302 Nd280 2.487 . S
O302 C289 1.241 . S
O303 Nd280 2.682 . S
O303 Nd281 2.414 1_556 S
O303 C289 1.273 . S
O304 Nd280 2.410 . S
O304 C290 1.251 . S
O305 Nd281 2.424 1_556 S
O305 C290 1.268 . S
O306 Nd281 2.500 . S
O306 C291 1.258 . S
O307 Nd281 2.492 . S
O307 C291 1.239 . S
O308 Nd281 2.487 . S
O308 C298 1.241 1_554 S
O309 Nd280 2.414 . S
O309 Nd281 2.682 1_556 S
O309 C298 1.273 . S
O310 Nd281 2.410 . S
O310 C299 1.251 . S
O311 Nd280 2.424 . S
O311 C299 1.268 1_556 S
H312 C284 0.930 . S
H313 C285 0.929 . S
H314 C287 0.930 . S
H315 C288 0.929 . S
H316 C293 0.930 . S
H317 C294 0.929 . S
H318 C296 0.930 . S
H319 C297 0.929 . S
C19 C290 4.585 . S
C250 C59 4.585 . S
C219 C90 4.585 . S
C179 C130 4.585 . S
C89 C9 2.084 1_565 S
C49 C129 2.084 . S
C138 C58 2.084 1_565 S
C98 C18 2.084 . S
C169 C249 2.084 1_554 S
C209 C289 2.084 1_564 S
C298 C218 2.084 1_556 S
C258 C178 2.084 1_546 S
C6 C15 1.419 . S
C46 C55 1.419 . S
C86 C95 1.419 . S
C135 C126 1.419 . S
C175 C166 1.419 . S
C206 C215 1.419 . S
C255 C246 1.419 . S
C295 C286 1.419 . S
C10 C50 2.716 1_455 S
C139 C99 2.716 1_655 S
C170 C210 2.716 . S
C299 C259 2.716 . S
