# Generated by pormake.
# Topology wjh, (4)-cn, num edge types: 1
# Building blocks:
#     Node 0, Type 0, BuildingBlock: TATPOV_clean_sbu_0, # of connection points: 4
#     Node 1, Type 0, BuildingBlock: TATPOV_clean_sbu_0, # of connection points: 4
#     Node 2, Type 0, BuildingBlock: TATPOV_clean_sbu_0, # of connection points: 4
#     Node 3, Type 0, BuildingBlock: TATPOV_clean_sbu_0, # of connection points: 4
#     Node 4, Type 0, BuildingBlock: TATPOV_clean_sbu_0, # of connection points: 4
#     Node 5, Type 0, BuildingBlock: TATPOV_clean_sbu_0, # of connection points: 4
#     Node 6, Type 0, BuildingBlock: TATPOV_clean_sbu_0, # of connection points: 4
#     Node 7, Type 0, BuildingBlock: TATPOV_clean_sbu_0, # of connection points: 4
#     Node 8, Type 0, BuildingBlock: TATPOV_clean_sbu_0, # of connection points: 4
#     Node 9, Type 0, BuildingBlock: TATPOV_clean_sbu_0, # of connection points: 4
#     Node 10, Type 0, BuildingBlock: TATPOV_clean_sbu_0, # of connection points: 4
#     Node 11, Type 0, BuildingBlock: TATPOV_clean_sbu_0, # of connection points: 4
#     Edge 12, Type (0, 0), BuildingBlock: MIFKUJ_clean_linker_0, # of connection points: 2
#     Edge 13, Type (0, 0), BuildingBlock: MIFKUJ_clean_linker_0, # of connection points: 2
#     Edge 14, Type (0, 0), BuildingBlock: MIFKUJ_clean_linker_0, # of connection points: 2
#     Edge 15, Type (0, 0), BuildingBlock: MIFKUJ_clean_linker_0, # of connection points: 2
#     Edge 16, Type (0, 0), BuildingBlock: MIFKUJ_clean_linker_0, # of connection points: 2
#     Edge 17, Type (0, 0), BuildingBlock: MIFKUJ_clean_linker_0, # of connection points: 2
#     Edge 18, Type (0, 0), BuildingBlock: MIFKUJ_clean_linker_0, # of connection points: 2
#     Edge 19, Type (0, 0), BuildingBlock: MIFKUJ_clean_linker_0, # of connection points: 2
#     Edge 20, Type (0, 0), BuildingBlock: MIFKUJ_clean_linker_0, # of connection points: 2
#     Edge 21, Type (0, 0), BuildingBlock: MIFKUJ_clean_linker_0, # of connection points: 2
#     Edge 22, Type (0, 0), BuildingBlock: MIFKUJ_clean_linker_0, # of connection points: 2
#     Edge 23, Type (0, 0), BuildingBlock: MIFKUJ_clean_linker_0, # of connection points: 2
#     Edge 24, Type (0, 0), BuildingBlock: MIFKUJ_clean_linker_0, # of connection points: 2
#     Edge 25, Type (0, 0), BuildingBlock: MIFKUJ_clean_linker_0, # of connection points: 2
#     Edge 26, Type (0, 0), BuildingBlock: MIFKUJ_clean_linker_0, # of connection points: 2
#     Edge 27, Type (0, 0), BuildingBlock: MIFKUJ_clean_linker_0, # of connection points: 2
#     Edge 28, Type (0, 0), BuildingBlock: MIFKUJ_clean_linker_0, # of connection points: 2
#     Edge 29, Type (0, 0), BuildingBlock: MIFKUJ_clean_linker_0, # of connection points: 2
#     Edge 30, Type (0, 0), BuildingBlock: MIFKUJ_clean_linker_0, # of connection points: 2
#     Edge 31, Type (0, 0), BuildingBlock: MIFKUJ_clean_linker_0, # of connection points: 2
#     Edge 32, Type (0, 0), BuildingBlock: MIFKUJ_clean_linker_0, # of connection points: 2
#     Edge 33, Type (0, 0), BuildingBlock: MIFKUJ_clean_linker_0, # of connection points: 2
#     Edge 34, Type (0, 0), BuildingBlock: MIFKUJ_clean_linker_0, # of connection points: 2
#     Edge 35, Type (0, 0), BuildingBlock: MIFKUJ_clean_linker_0, # of connection points: 2
# Relax obj value: 0.159
# Max RMSD: 0.151
# Mean RMSD: 0.151
data_MOF--net-wjh--node1-TATPOV_clean_sbu_0--edge1-MIFKUJ_clean_linker_0
_symmetry_space_group_name_H-M    P1
_symmetry_Int_Tables_number       1
_symmetry_cell_setting            triclinic
loop_
_symmetry_equiv_pos_as_xyz
'x, y, z'
_cell_length_a     78.573081
_cell_length_b     78.639103
_cell_length_c     32.815862
_cell_angle_alpha  89.994654
_cell_angle_beta   90.041982
_cell_angle_gamma 119.98872
loop_
_atom_site_label
_atom_site_type_symbol
_atom_site_fract_x
_atom_site_fract_y
_atom_site_fract_z
_atom_type_partial_charge
Zn0 Zn 0.46031 0.12878 0.09625 0.0
Zn1 Zn 0.48202 0.12657 0.03904 0.0
O2 O 0.48572 0.15449 0.03448 0.0
O3 O 0.46296 0.15364 0.07475 0.0
O4 O 0.49684 0.12527 0.98988 0.0
O5 O 0.43691 0.10324 0.083 0.0
O6 O 0.45438 0.10162 0.03243 0.0
C7 C 0.47665 0.16272 0.04932 0.0
C8 C 0.49418 0.12729 0.12662 0.0
O9 O 0.49684 0.12501 0.08914 0.0
O10 O 0.48004 0.12975 0.13706 0.0
C11 C 0.51551 0.13455 0.98813 0.0
O12 O 0.52563 0.14493 0.01977 0.0
C13 C 0.43836 0.09418 0.05262 0.0
Zn14 Zn 0.32337 0.46139 0.21376 0.0
Zn15 Zn 0.35161 0.49027 0.17207 0.0
O16 O 0.32716 0.49368 0.16782 0.0
O17 O 0.30261 0.46682 0.1936 0.0
O18 O 0.37053 0.50924 0.13022 0.0
O19 O 0.32711 0.44024 0.18942 0.0
O20 O 0.35163 0.46476 0.15747 0.0
C21 C 0.30898 0.48331 0.17653 0.0
C22 C 0.35641 0.49128 0.26232 0.0
O23 O 0.36395 0.49909 0.22811 0.0
O24 O 0.33955 0.47598 0.26389 0.0
C25 C 0.37129 0.52516 0.11958 0.0
O26 O 0.36005 0.53067 0.13826 0.0
C27 C 0.34184 0.44653 0.16614 0.0
Zn28 Zn 0.85613 0.3283 0.38221 0.0
Zn29 Zn 0.85996 0.35736 0.33526 0.0
O30 O 0.8303 0.33709 0.33686 0.0
O31 O 0.82768 0.31119 0.36828 0.0
O32 O 0.86207 0.37602 0.29056 0.0
O33 O 0.87707 0.32523 0.35465 0.0
O34 O 0.88146 0.35086 0.31947 0.0
C35 C 0.81977 0.3196 0.34991 0.0
C36 C 0.86863 0.36616 0.4236 0.0
O37 O 0.86783 0.37253 0.38835 0.0
O38 O 0.8642 0.34838 0.42837 0.0
C39 C 0.85573 0.36827 0.25577 0.0
O40 O 0.84825 0.34922 0.25182 0.0
C41 C 0.88684 0.33851 0.32883 0.0
Zn42 Zn 0.51273 0.87384 0.6514 0.0
Zn43 Zn 0.49165 0.87439 0.58757 0.0
O44 O 0.49117 0.84798 0.58292 0.0
O45 O 0.51203 0.8497 0.62989 0.0
O46 O 0.47734 0.87485 0.53662 0.0
O47 O 0.53509 0.90038 0.63731 0.0
O48 O 0.51842 0.89999 0.58304 0.0
C49 C 0.50047 0.84069 0.60073 0.0
C50 C 0.47635 0.87264 0.67324 0.0
O51 O 0.47485 0.87464 0.63509 0.0
O52 O 0.49066 0.87128 0.68722 0.0
C53 C 0.48215 0.87077 0.50253 0.0
O54 O 0.49629 0.86646 0.50154 0.0
C55 C 0.53385 0.9085 0.60506 0.0
Zn56 Zn 0.63805 0.51118 0.81959 0.0
Zn57 Zn 0.62564 0.49224 0.74958 0.0
O58 O 0.65142 0.49187 0.75985 0.0
O59 O 0.65946 0.50448 0.82157 0.0
O60 O 0.61671 0.48032 0.69333 0.0
O61 O 0.64273 0.5367 0.79665 0.0
O62 O 0.62804 0.51944 0.74188 0.0
C63 C 0.66256 0.49656 0.79108 0.0
C64 C 0.59971 0.47715 0.82504 0.0
O65 O 0.60331 0.47409 0.78873 0.0
O66 O 0.61177 0.49259 0.84382 0.0
C67 C 0.6057 0.46209 0.68623 0.0
O68 O 0.5998 0.44965 0.71681 0.0
C69 C 0.63546 0.53554 0.7617 0.0
Zn70 Zn 0.14905 0.65917 0.93341 0.0
Zn71 Zn 0.14846 0.63392 0.87879 0.0
O72 O 0.17744 0.65612 0.88041 0.0
O73 O 0.17663 0.67884 0.91813 0.0
O74 O 0.14749 0.61693 0.83164 0.0
O75 O 0.12655 0.66047 0.9088 0.0
O76 O 0.12604 0.63942 0.86405 0.0
C77 C 0.1861 0.67318 0.89627 0.0
C78 C 0.14141 0.62146 0.96684 0.0
O79 O 0.14223 0.61704 0.9298 0.0
O80 O 0.14402 0.63829 0.97586 0.0
C81 C 0.1538 0.62526 0.79734 0.0
O82 O 0.16104 0.64433 0.79467 0.0
C83 C 0.11891 0.6497 0.87791 0.0
Zn84 Zn 0.88858 0.52829 0.76463 0.0
Zn85 Zn 0.8847 0.50681 0.83023 0.0
O86 O 0.85765 0.505 0.8248 0.0
O87 O 0.86027 0.52084 0.76767 0.0
O88 O 0.8824 0.4924 0.88285 0.0
O89 O 0.90972 0.55294 0.79037 0.0
O90 O 0.90886 0.53408 0.84076 0.0
C91 C 0.85006 0.51073 0.79755 0.0
C92 C 0.89458 0.49555 0.74859 0.0
O93 O 0.88961 0.49126 0.7858 0.0
O94 O 0.89596 0.51097 0.73325 0.0
C95 C 0.87181 0.47386 0.886 0.0
O96 O 0.86212 0.46358 0.8539 0.0
C97 C 0.91671 0.55084 0.82348 0.0
Zn98 Zn 0.3156 0.85367 0.04273 0.0
Zn99 Zn 0.34599 0.86156 0.08859 0.0
O100 O 0.32536 0.83253 0.09846 0.0
O101 O 0.2982 0.82761 0.06892 0.0
O102 O 0.3658 0.86718 0.13323 0.0
O103 O 0.31456 0.8778 0.05699 0.0
O104 O 0.34064 0.88465 0.09358 0.0
C105 C 0.30731 0.82119 0.08988 0.0
C106 C 0.35125 0.86017 0.99928 0.0
O107 O 0.35927 0.86368 0.03435 0.0
O108 O 0.3333 0.85535 0.99563 0.0
C109 C 0.37677 0.85959 0.13482 0.0
O110 O 0.37603 0.84804 0.10509 0.0
C111 C 0.32856 0.88956 0.07958 0.0
Zn112 Zn 0.45818 0.32753 0.20528 0.0
Zn113 Zn 0.48771 0.35335 0.2462 0.0
O114 O 0.48792 0.3271 0.24827 0.0
O115 O 0.46034 0.30431 0.22128 0.0
O116 O 0.50658 0.3688 0.29164 0.0
O117 O 0.4378 0.33239 0.22936 0.0
O118 O 0.46371 0.35705 0.25768 0.0
C119 C 0.47662 0.30924 0.23811 0.0
C120 C 0.49063 0.35915 0.15732 0.0
O121 O 0.49914 0.36585 0.19146 0.0
O122 O 0.47384 0.34373 0.15603 0.0
C123 C 0.51877 0.38712 0.29341 0.0
O124 O 0.52049 0.39832 0.26217 0.0
C125 C 0.44532 0.34803 0.25002 0.0
Zn126 Zn 0.12249 0.45687 0.32631 0.0
Zn127 Zn 0.12412 0.48208 0.38061 0.0
O128 O 0.15142 0.48406 0.38215 0.0
O129 O 0.14852 0.46041 0.34192 0.0
O130 O 0.12514 0.49849 0.42889 0.0
O131 O 0.09787 0.43426 0.3476 0.0
O132 O 0.09794 0.45598 0.38989 0.0
C133 C 0.15881 0.47453 0.36571 0.0
C134 C 0.12172 0.49108 0.29279 0.0
O135 O 0.12253 0.49617 0.32992 0.0
O136 O 0.12141 0.47522 0.28389 0.0
C137 C 0.13642 0.51699 0.43041 0.0
O138 O 0.14761 0.5261 0.3989 0.0
C139 C 0.08962 0.43858 0.37549 0.0
Zn140 Zn 0.65717 0.14223 0.48744 0.0
Zn141 Zn 0.63135 0.14222 0.5407 0.0
O142 O 0.65374 0.17097 0.53948 0.0
O143 O 0.67663 0.17015 0.50225 0.0
O144 O 0.61398 0.1415 0.58685 0.0
O145 O 0.65787 0.11971 0.51388 0.0
O146 O 0.63653 0.11986 0.55694 0.0
C147 C 0.67083 0.17964 0.52373 0.0
C148 C 0.61967 0.13455 0.45215 0.0
O149 O 0.61507 0.13601 0.48871 0.0
O150 O 0.63643 0.13669 0.44422 0.0
C151 C 0.62185 0.14611 0.62199 0.0
O152 O 0.64054 0.15152 0.62569 0.0
C153 C 0.64672 0.11239 0.54438 0.0
Zn154 Zn 0.5149 0.63949 0.60507 0.0
Zn155 Zn 0.49158 0.62343 0.67041 0.0
O156 O 0.49125 0.64933 0.66123 0.0
O157 O 0.51132 0.66278 0.60912 0.0
O158 O 0.47609 0.61149 0.72247 0.0
O159 O 0.53792 0.64026 0.63207 0.0
O160 O 0.5184 0.62565 0.68427 0.0
C161 C 0.50001 0.66334 0.63581 0.0
C162 C 0.47997 0.60216 0.58864 0.0
O163 O 0.47606 0.60306 0.626 0.0
O164 O 0.4957 0.61566 0.57306 0.0
C165 C 0.46819 0.61897 0.74452 0.0
O166 O 0.46932 0.63553 0.73319 0.0
C167 C 0.53516 0.63268 0.66712 0.0
H168 H 0.52589 0.12181 0.11727 0.0
H169 H 0.54778 0.1221 0.17087 0.0
H170 H 0.51438 0.13287 0.26111 0.0
H171 H 0.49273 0.13289 0.20812 0.0
H172 H 0.55288 0.15652 0.27227 0.0
H173 H 0.50913 0.08736 0.24884 0.0
H174 H 0.49266 0.0572 0.20736 0.0
H175 H 0.54865 0.06384 0.17539 0.0
H176 H 0.56547 0.09421 0.21627 0.0
H177 H 0.58499 0.13485 0.45528 0.0
H178 H 0.56394 0.13237 0.39799 0.0
H179 H 0.60228 0.1248 0.31529 0.0
H180 H 0.62337 0.12716 0.37228 0.0
H181 H 0.56302 0.1 0.29767 0.0
H182 H 0.6067 0.16846 0.32259 0.0
H183 H 0.6233 0.19856 0.36419 0.0
H184 H 0.56757 0.19333 0.39291 0.0
H185 H 0.5506 0.16301 0.35194 0.0
C186 C 0.52321 0.12421 0.14854 0.0
C187 C 0.50751 0.12724 0.15842 0.0
C188 C 0.53568 0.1243 0.17912 0.0
C189 C 0.53258 0.12734 0.22 0.0
C190 C 0.51703 0.1305 0.22978 0.0
C191 C 0.50461 0.13042 0.19939 0.0
C192 C 0.54557 0.12747 0.25287 0.0
C193 C 0.55492 0.14407 0.27807 0.0
C194 C 0.54865 0.11143 0.25973 0.0
C195 C 0.53856 0.09317 0.23524 0.0
C196 C 0.51793 0.08248 0.23269 0.0
C197 C 0.50854 0.06533 0.20934 0.0
C198 C 0.51961 0.05864 0.18865 0.0
C199 C 0.5401 0.06906 0.19137 0.0
C200 C 0.54957 0.08623 0.21464 0.0
C201 C 0.58885 0.13246 0.42498 0.0
C202 C 0.60595 0.13137 0.4183 0.0
C203 C 0.57684 0.13112 0.39228 0.0
C204 C 0.58173 0.12866 0.35241 0.0
C205 C 0.59831 0.12675 0.34584 0.0
C206 C 0.61037 0.12818 0.37845 0.0
C207 C 0.56998 0.12889 0.3174 0.0
C208 C 0.56097 0.11244 0.29174 0.0
C209 C 0.56721 0.14507 0.31003 0.0
C210 C 0.57737 0.16336 0.33452 0.0
C211 C 0.59797 0.17364 0.33804 0.0
C212 C 0.60745 0.19075 0.36146 0.0
C213 C 0.59649 0.19782 0.38127 0.0
C214 C 0.57604 0.18782 0.3776 0.0
C215 C 0.56648 0.17067 0.35425 0.0
H216 H 0.60386 0.21108 0.39938 0.0
H217 H 0.5123 0.04536 0.1706 0.0
H218 H 0.39591 0.51569 0.27141 0.0
H219 H 0.41405 0.52894 0.33504 0.0
H220 H 0.35991 0.49913 0.40296 0.0
H221 H 0.34165 0.48559 0.33949 0.0
H222 H 0.38362 0.53881 0.42388 0.0
H223 H 0.38888 0.48144 0.41222 0.0
H224 H 0.39536 0.45694 0.3799 0.0
H225 H 0.4554 0.50129 0.3593 0.0
H226 H 0.44926 0.52612 0.39125 0.0
H227 H 0.44153 0.5747 0.60492 0.0
H228 H 0.41762 0.55036 0.55745 0.0
H229 H 0.46267 0.56908 0.46547 0.0
H230 H 0.48653 0.59312 0.51243 0.0
H231 H 0.43911 0.52946 0.46566 0.0
H232 H 0.43181 0.58741 0.46805 0.0
H233 H 0.42534 0.61173 0.50139 0.0
H234 H 0.36856 0.56565 0.53943 0.0
H235 H 0.37481 0.54103 0.50672 0.0
C236 C 0.38787 0.51198 0.29988 0.0
C237 C 0.36738 0.49965 0.3005 0.0
C238 C 0.39825 0.51941 0.33618 0.0
C239 C 0.3883 0.51482 0.37362 0.0
C240 C 0.36783 0.50272 0.37434 0.0
C241 C 0.35746 0.49501 0.3381 0.0
C242 C 0.39933 0.52343 0.41171 0.0
C243 C 0.39548 0.53645 0.43361 0.0
C244 C 0.41487 0.52042 0.42404 0.0
C245 C 0.41857 0.50567 0.40394 0.0
C246 C 0.40343 0.48601 0.4005 0.0
C247 C 0.40707 0.47204 0.38243 0.0
C248 C 0.4258 0.47755 0.36767 0.0
C249 C 0.44091 0.49704 0.37085 0.0
C250 C 0.43737 0.51106 0.38903 0.0
C251 C 0.44637 0.5734 0.57478 0.0
C252 C 0.46586 0.58598 0.56227 0.0
C253 C 0.4327 0.55955 0.5477 0.0
C254 C 0.43835 0.55809 0.50783 0.0
C255 C 0.458 0.56996 0.49608 0.0
C256 C 0.4716 0.58379 0.52294 0.0
C257 C 0.42379 0.54529 0.47706 0.0
C258 C 0.42699 0.53149 0.45646 0.0
C259 C 0.40765 0.54758 0.46591 0.0
C260 C 0.40388 0.56237 0.48543 0.0
C261 C 0.41801 0.58246 0.48381 0.0
C262 C 0.41438 0.59629 0.50254 0.0
C263 C 0.39658 0.59023 0.52264 0.0
C264 C 0.38235 0.57032 0.52394 0.0
C265 C 0.38593 0.55642 0.50531 0.0
H266 H 0.39379 0.60097 0.53711 0.0
H267 H 0.42858 0.46671 0.3537 0.0
H268 H 0.91002 0.50309 0.67231 0.0
H269 H 0.909 0.47954 0.62292 0.0
H270 H 0.88427 0.43377 0.71349 0.0
H271 H 0.88508 0.45738 0.76366 0.0
H272 H 0.9146 0.43426 0.65095 0.0
H273 H 0.85236 0.43267 0.66367 0.0
H274 H 0.8319 0.44823 0.66934 0.0
H275 H 0.85328 0.47639 0.5536 0.0
H276 H 0.87412 0.46124 0.54759 0.0
H277 H 0.8703 0.35689 0.50326 0.0
H278 H 0.87802 0.37816 0.56272 0.0
H279 H 0.88805 0.42643 0.48459 0.0
H280 H 0.88 0.40518 0.42496 0.0
H281 H 0.8644 0.42262 0.54586 0.0
H282 H 0.92617 0.42454 0.5314 0.0
H283 H 0.94781 0.41036 0.52482 0.0
H284 H 0.9285 0.38245 0.64141 0.0
H285 H 0.90661 0.39636 0.64856 0.0
C286 C 0.90469 0.48812 0.68214 0.0
C287 C 0.89727 0.482 0.72171 0.0
C288 C 0.90424 0.47472 0.65388 0.0
C289 C 0.89641 0.45497 0.66459 0.0
C290 C 0.89041 0.44902 0.70487 0.0
C291 C 0.89082 0.46249 0.73335 0.0
C292 C 0.892 0.44042 0.63202 0.0
C293 C 0.90341 0.43136 0.62829 0.0
C294 C 0.87769 0.4371 0.60218 0.0
C295 C 0.86492 0.44596 0.60537 0.0
C296 C 0.85281 0.44231 0.6396 0.0
C297 C 0.84113 0.45103 0.64285 0.0
C298 C 0.84132 0.46333 0.6119 0.0
C299 C 0.85316 0.46688 0.57757 0.0
C300 C 0.86489 0.45821 0.57421 0.0
C301 C 0.87426 0.37207 0.49865 0.0
C302 C 0.87439 0.37931 0.45937 0.0
C303 C 0.87879 0.38423 0.53269 0.0
C304 C 0.88371 0.40389 0.52804 0.0
C305 C 0.88425 0.41127 0.48882 0.0
C306 C 0.87965 0.39911 0.45478 0.0
C307 C 0.88717 0.41651 0.56412 0.0
C308 C 0.8755 0.42526 0.56857 0.0
C309 C 0.90129 0.41954 0.59437 0.0
C310 C 0.9146 0.41133 0.59033 0.0
C311 C 0.92643 0.41527 0.55551 0.0
C312 C 0.93876 0.4073 0.55169 0.0
C313 C 0.93945 0.39543 0.58258 0.0
C314 C 0.92791 0.39161 0.61747 0.0
C315 C 0.91557 0.39957 0.62146 0.0
H316 H 0.94899 0.38925 0.57952 0.0
H317 H 0.83227 0.47008 0.61447 0.0
H318 H 0.46818 0.85654 0.74886 0.0
H319 H 0.44393 0.85513 0.79719 0.0
H320 H 0.42667 0.88533 0.71154 0.0
H321 H 0.4508 0.88648 0.66223 0.0
H322 H 0.43517 0.90034 0.79821 0.0
H323 H 0.39595 0.84257 0.71862 0.0
H324 H 0.38843 0.8118 0.68381 0.0
H325 H 0.39121 0.78665 0.79803 0.0
H326 H 0.39906 0.8174 0.83346 0.0
H327 H 0.33751 0.84947 0.9217 0.0
H328 H 0.35643 0.8526 0.86036 0.0
H329 H 0.40969 0.87769 0.93159 0.0
H330 H 0.39089 0.87461 0.9933 0.0
H331 H 0.37948 0.83628 0.84294 0.0
H332 H 0.44629 0.91346 0.8733 0.0
H333 H 0.45339 0.94389 0.90917 0.0
H334 H 0.39378 0.93038 0.89131 0.0
H335 H 0.38641 0.90006 0.85474 0.0
C336 C 0.45923 0.86288 0.74019 0.0
C337 C 0.46137 0.87163 0.70178 0.0
C338 C 0.44538 0.86202 0.7678 0.0
C339 C 0.43358 0.87011 0.75777 0.0
C340 C 0.43571 0.87902 0.71965 0.0
C341 C 0.44938 0.87958 0.69157 0.0
C342 C 0.41914 0.86914 0.78771 0.0
C343 C 0.42286 0.8864 0.80779 0.0
C344 C 0.40306 0.85092 0.79977 0.0
C345 C 0.39825 0.83235 0.77864 0.0
C346 C 0.39513 0.83054 0.73627 0.0
C347 C 0.39077 0.81309 0.71643 0.0
C348 C 0.38938 0.79729 0.73868 0.0
C349 C 0.39231 0.79891 0.78083 0.0
C350 C 0.39669 0.81633 0.80081 0.0
C351 C 0.35327 0.85571 0.92438 0.0
C352 C 0.36273 0.86186 0.96237 0.0
C353 C 0.36401 0.85742 0.8893 0.0
C354 C 0.38443 0.86555 0.89147 0.0
C355 C 0.39394 0.8716 0.92931 0.0
C356 C 0.38318 0.86975 0.96452 0.0
C357 C 0.39578 0.86742 0.85422 0.0
C358 C 0.39156 0.85029 0.83296 0.0
C359 C 0.41129 0.88579 0.84094 0.0
C360 C 0.41578 0.9044 0.86153 0.0
C361 C 0.43474 0.91706 0.87674 0.0
C362 C 0.4388 0.93427 0.89726 0.0
C363 C 0.42403 0.93903 0.90262 0.0
C364 C 0.40519 0.92665 0.88725 0.0
C365 C 0.40107 0.90944 0.86664 0.0
H366 H 0.42718 0.95233 0.91864 0.0
H367 H 0.386 0.78379 0.72327 0.0
H368 H 0.52763 0.39064 0.14641 0.0
H369 H 0.54261 0.40737 0.08232 0.0
H370 H 0.49006 0.36689 0.01716 0.0
H371 H 0.47488 0.35027 0.08086 0.0
H372 H 0.55081 0.39438 0.01139 0.0
H373 H 0.48307 0.39313 0.9412 0.0
H374 H 0.45212 0.39119 0.96327 0.0
H375 H 0.47879 0.41846 0.07709 0.0
H376 H 0.50995 0.42081 0.05546 0.0
H377 H 0.58066 0.43719 0.81584 0.0
H378 H 0.55703 0.41288 0.86385 0.0
H379 H 0.55672 0.4594 0.93295 0.0
H380 H 0.58026 0.48359 0.88558 0.0
H381 H 0.52011 0.4256 0.93136 0.0
H382 H 0.58882 0.44606 0.95741 0.0
H383 H 0.62104 0.45019 0.93832 0.0
H384 H 0.59444 0.38806 0.9187 0.0
H385 H 0.562 0.38363 0.93714 0.0
C386 C 0.51927 0.3853 0.11845 0.0
C387 C 0.50004 0.36919 0.11879 0.0
C388 C 0.52788 0.39479 0.08186 0.0
C389 C 0.51737 0.38842 0.04511 0.0
C390 C 0.49833 0.37215 0.04525 0.0
C391 C 0.48972 0.36265 0.08174 0.0
C392 C 0.52618 0.39918 0.00684 0.0
C393 C 0.544 0.40104 0.99369 0.0
C394 C 0.51728 0.40788 0.98382 0.0
C395 C 0.49875 0.40691 0.99688 0.0
C396 C 0.48233 0.39877 0.97087 0.0
C397 C 0.46476 0.39759 0.98331 0.0
C398 C 0.46347 0.40462 0.02163 0.0
C399 C 0.47978 0.41294 0.04749 0.0
C400 C 0.4974 0.41418 0.03517 0.0
C401 C 0.57505 0.44211 0.84058 0.0
C402 C 0.58243 0.46224 0.84742 0.0
C403 C 0.56164 0.42826 0.86799 0.0
C404 C 0.55536 0.43442 0.90215 0.0
C405 C 0.5614 0.45436 0.90681 0.0
C406 C 0.57492 0.46816 0.87986 0.0
C407 C 0.54475 0.42083 0.93604 0.0
C408 C 0.52663 0.41848 0.94849 0.0
C409 C 0.55349 0.41191 0.95881 0.0
C410 C 0.57299 0.41455 0.94816 0.0
C411 C 0.58984 0.43331 0.94874 0.0
C412 C 0.60813 0.4357 0.93807 0.0
C413 C 0.60978 0.4194 0.92718 0.0
C414 C 0.59314 0.40067 0.92705 0.0
C415 C 0.5748 0.39821 0.9376 0.0
H416 H 0.62395 0.42128 0.91893 0.0
H417 H 0.44984 0.40366 0.03123 0.0
H418 H 0.12018 0.48437 0.21095 0.0
H419 H 0.12234 0.50617 0.15595 0.0
H420 H 0.12618 0.54874 0.24382 0.0
H421 H 0.12388 0.52688 0.29941 0.0
H422 H 0.10137 0.54409 0.18028 0.0
H423 H 0.16794 0.5576 0.19616 0.0
H424 H 0.19401 0.54901 0.2028 0.0
H425 H 0.17789 0.51982 0.08686 0.0
H426 H 0.15187 0.5285 0.0793 0.0
H427 H 0.13901 0.62644 0.04856 0.0
H428 H 0.13412 0.60342 0.10319 0.0
H429 H 0.13091 0.56128 0.01489 0.0
H430 H 0.13601 0.58435 0.9598 0.0
H431 H 0.15491 0.56535 0.07848 0.0
H432 H 0.08975 0.5548 0.0608 0.0
H433 H 0.06449 0.56454 0.05496 0.0
H434 H 0.07785 0.58838 0.17606 0.0
H435 H 0.1034 0.57904 0.18241 0.0
C436 C 0.1214 0.49833 0.21873 0.0
C437 C 0.12196 0.50393 0.25963 0.0
C438 C 0.12271 0.5108 0.18719 0.0
C439 C 0.12469 0.52916 0.19585 0.0
C440 C 0.12472 0.53463 0.23657 0.0
C441 C 0.12343 0.52214 0.26825 0.0
C442 C 0.12698 0.54269 0.16224 0.0
C443 C 0.11321 0.54897 0.1583 0.0
C444 C 0.14219 0.54866 0.13314 0.0
C445 C 0.15789 0.54355 0.13733 0.0
C446 C 0.16992 0.54929 0.17216 0.0
C447 C 0.18471 0.54445 0.17604 0.0
C448 C 0.18752 0.53375 0.14542 0.0
C449 C 0.17567 0.52807 0.11061 0.0
C450 C 0.16098 0.53304 0.10639 0.0
C451 C 0.13716 0.61224 0.04062 0.0
C452 C 0.13784 0.60721 0.99975 0.0
C453 C 0.1343 0.59908 0.07193 0.0
C454 C 0.13194 0.58058 0.06303 0.0
C455 C 0.13265 0.57549 0.02234 0.0
C456 C 0.13551 0.58866 0.99092 0.0
C457 C 0.12928 0.56679 0.0964 0.0
C458 C 0.14302 0.56046 0.10034 0.0
C459 C 0.11408 0.56086 0.12556 0.0
C460 C 0.09862 0.56638 0.12193 0.0
C461 C 0.08741 0.56226 0.08607 0.0
C462 C 0.07302 0.56768 0.08269 0.0
C463 C 0.0696 0.57711 0.11508 0.0
C464 C 0.08053 0.58109 0.15098 0.0
C465 C 0.09495 0.57572 0.1545 0.0
H466 H 0.05846 0.5813 0.1124 0.0
H467 H 0.19889 0.5299 0.14864 0.0
H468 H 0.5151 0.31836 0.2378 0.0
H469 H 0.52722 0.29851 0.20502 0.0
H470 H 0.46796 0.24996 0.19652 0.0
H471 H 0.4557 0.26953 0.22931 0.0
H472 H 0.51026 0.24663 0.20825 0.0
H473 H 0.46655 0.2606 0.09277 0.0
H474 H 0.45788 0.28583 0.07469 0.0
H475 H 0.5154 0.33129 0.11061 0.0
H476 H 0.52447 0.30631 0.12829 0.0
H477 H 0.45637 0.18217 0.04519 0.0
H478 H 0.46858 0.21536 0.07082 0.0
H479 H 0.52736 0.22428 0.07543 0.0
H480 H 0.51518 0.19103 0.04914 0.0
H481 H 0.49758 0.25508 0.06335 0.0
H482 H 0.54131 0.23736 0.17519 0.0
H483 H 0.54539 0.2094 0.19598 0.0
H484 H 0.48455 0.16941 0.1698 0.0
H485 H 0.48008 0.19716 0.14957 0.0
C486 C 0.50474 0.30313 0.23092 0.0
C487 C 0.48438 0.29562 0.23526 0.0
C488 C 0.51172 0.29185 0.21206 0.0
C489 C 0.4984 0.27299 0.19779 0.0
C490 C 0.47841 0.26457 0.20726 0.0
C491 C 0.47143 0.27578 0.22598 0.0
C492 C 0.50409 0.26366 0.16571 0.0
C493 C 0.50835 0.24897 0.17638 0.0
C494 C 0.50112 0.26651 0.12431 0.0
C495 C 0.49613 0.28162 0.11202 0.0
C496 C 0.47738 0.27599 0.09649 0.0
C497 C 0.47239 0.29023 0.08639 0.0
C498 C 0.48607 0.31014 0.09158 0.0
C499 C 0.50481 0.31586 0.10668 0.0
C500 C 0.50988 0.30167 0.11674 0.0
C501 C 0.47206 0.19161 0.04944 0.0
C502 C 0.48479 0.18403 0.04582 0.0
C503 C 0.47905 0.21058 0.06414 0.0
C504 C 0.49878 0.22204 0.07595 0.0
C505 C 0.51205 0.21555 0.06677 0.0
C506 C 0.50508 0.1966 0.05148 0.0
C507 C 0.50389 0.23802 0.10567 0.0
C508 C 0.50101 0.25361 0.09474 0.0
C509 C 0.50815 0.23598 0.14682 0.0
C510 C 0.51045 0.21929 0.16046 0.0
C511 C 0.52881 0.2226 0.17411 0.0
C512 C 0.53118 0.2068 0.18578 0.0
C513 C 0.51525 0.18763 0.18408 0.0
C514 C 0.49688 0.18425 0.17103 0.0
C515 C 0.49442 0.2 0.15951 0.0
H516 H 0.51715 0.17542 0.19294 0.0
H517 H 0.48216 0.32112 0.08384 0.0
H518 H 0.32011 0.52182 0.18792 0.0
H519 H 0.29911 0.53327 0.21786 0.0
H520 H 0.24837 0.47604 0.19877 0.0
H521 H 0.26923 0.46451 0.16926 0.0
H522 H 0.2389 0.50586 0.19834 0.0
H523 H 0.27624 0.48283 0.28017 0.0
H524 H 0.30754 0.48552 0.30225 0.0
H525 H 0.3281 0.54456 0.34294 0.0
H526 H 0.29702 0.54229 0.32042 0.0
H527 H 0.17812 0.45462 0.35112 0.0
H528 H 0.2109 0.46907 0.32178 0.0
H529 H 0.22086 0.52705 0.34793 0.0
H530 H 0.18779 0.51267 0.37703 0.0
H531 H 0.25582 0.51026 0.34533 0.0
H532 H 0.21209 0.5285 0.27336 0.0
H533 H 0.17845 0.52049 0.25467 0.0
H534 H 0.16908 0.46787 0.1952 0.0
H535 H 0.20233 0.47511 0.21521 0.0
C536 C 0.30435 0.512 0.1881 0.0
C537 C 0.29629 0.49216 0.17704 0.0
C538 C 0.29239 0.51855 0.20546 0.0
C539 C 0.2723 0.50535 0.21141 0.0
C540 C 0.26387 0.48643 0.19468 0.0
C541 C 0.27581 0.47983 0.17781 0.0
C542 C 0.26086 0.50929 0.24201 0.0
C543 C 0.24286 0.50747 0.23036 0.0
C544 C 0.266 0.51129 0.2839 0.0
C545 C 0.28445 0.51248 0.29823 0.0
C546 C 0.28749 0.49641 0.29366 0.0
C547 C 0.30518 0.49786 0.30622 0.0
C548 C 0.31982 0.51522 0.32389 0.0
C549 C 0.31677 0.53114 0.32915 0.0
C550 C 0.29913 0.52979 0.31647 0.0
C551 C 0.18758 0.47041 0.35239 0.0
C552 C 0.18025 0.48253 0.36547 0.0
C553 C 0.20631 0.47865 0.33561 0.0
C554 C 0.21799 0.49907 0.33193 0.0
C555 C 0.21191 0.51123 0.35033 0.0
C556 C 0.19305 0.50297 0.36714 0.0
C557 C 0.23394 0.50682 0.30154 0.0
C558 C 0.25251 0.5102 0.31321 0.0
C559 C 0.22933 0.50626 0.25966 0.0
C560 C 0.20963 0.50227 0.24613 0.0
C561 C 0.20278 0.51512 0.25665 0.0
C562 C 0.18378 0.51071 0.24588 0.0
C563 C 0.17166 0.49371 0.22369 0.0
C564 C 0.17849 0.48104 0.21239 0.0
C565 C 0.19738 0.48525 0.22358 0.0
H566 H 0.157 0.49038 0.2152 0.0
H567 H 0.33351 0.51633 0.33358 0.0
H568 H 0.71049 0.20238 0.52759 0.0
H569 H 0.72963 0.23613 0.50317 0.0
H570 H 0.67642 0.23874 0.48854 0.0
H571 H 0.65721 0.20505 0.51434 0.0
H572 H 0.69739 0.24278 0.41572 0.0
H573 H 0.70923 0.27319 0.54407 0.0
H574 H 0.71713 0.27803 0.61735 0.0
H575 H 0.77471 0.28695 0.5929 0.0
H576 H 0.76709 0.28187 0.51955 0.0
H577 H 0.79914 0.33815 0.3652 0.0
H578 H 0.76585 0.32261 0.39356 0.0
H579 H 0.75901 0.26553 0.37046 0.0
H580 H 0.79241 0.28095 0.34348 0.0
H581 H 0.76016 0.29907 0.46382 0.0
H582 H 0.7105 0.23366 0.35563 0.0
H583 H 0.70308 0.22818 0.28224 0.0
H584 H 0.72108 0.28908 0.26644 0.0
H585 H 0.72832 0.29489 0.33985 0.0
C586 C 0.703 0.21049 0.52106 0.0
C587 C 0.68244 0.20119 0.52273 0.0
C588 C 0.71391 0.22976 0.50713 0.0
C589 C 0.7044 0.23987 0.49394 0.0
C590 C 0.684 0.23119 0.49883 0.0
C591 C 0.67309 0.21202 0.51377 0.0
C592 C 0.71541 0.25741 0.46799 0.0
C593 C 0.71091 0.25537 0.42623 0.0
C594 C 0.73276 0.27398 0.48203 0.0
C595 C 0.73756 0.27716 0.52618 0.0
C596 C 0.72355 0.27608 0.5543 0.0
C597 C 0.72799 0.27888 0.59588 0.0
C598 C 0.74641 0.28281 0.60977 0.0
C599 C 0.76045 0.28395 0.58209 0.0
C600 C 0.75609 0.28116 0.54047 0.0
C601 C 0.79018 0.32229 0.36448 0.0
C602 C 0.7983 0.31068 0.3524 0.0
C603 C 0.77123 0.31346 0.38088 0.0
C604 C 0.76004 0.29297 0.38414 0.0
C605 C 0.76736 0.28138 0.36784 0.0
C606 C 0.78643 0.29018 0.35244 0.0
C607 C 0.7428 0.28357 0.41141 0.0
C608 C 0.74622 0.28703 0.4534 0.0
C609 C 0.72452 0.26821 0.39757 0.0
C610 C 0.71997 0.26472 0.35337 0.0
C611 C 0.71272 0.24586 0.33662 0.0
C612 C 0.70859 0.2427 0.29496 0.0
C613 C 0.71162 0.25827 0.26969 0.0
C614 C 0.71877 0.27704 0.28604 0.0
C615 C 0.72293 0.28028 0.32767 0.0
H616 H 0.70842 0.25579 0.23745 0.0
H617 H 0.74981 0.28496 0.64197 0.0
H618 H 0.52682 0.82814 0.59959 0.0
H619 H 0.51975 0.79419 0.59521 0.0
H620 H 0.45821 0.7744 0.57789 0.0
H621 H 0.46534 0.80863 0.58093 0.0
H622 H 0.47039 0.75781 0.64842 0.0
H623 H 0.47501 0.76533 0.50415 0.0
H624 H 0.48941 0.78211 0.43919 0.0
H625 H 0.54223 0.78065 0.46519 0.0
H626 H 0.52828 0.76412 0.53062 0.0
H627 H 0.46566 0.66317 0.6509 0.0
H628 H 0.45918 0.69018 0.63763 0.0
H629 H 0.52026 0.72795 0.6065 0.0
H630 H 0.52646 0.70092 0.61784 0.0
H631 H 0.4987 0.73064 0.55055 0.0
H632 H 0.49818 0.73098 0.69898 0.0
H633 H 0.48614 0.71644 0.76687 0.0
H634 H 0.42828 0.70518 0.73611 0.0
H635 H 0.43995 0.71947 0.66784 0.0
C636 C 0.51188 0.8166 0.59375 0.0
C637 C 0.49662 0.82089 0.59052 0.0
C638 C 0.50785 0.79726 0.59128 0.0
C639 C 0.48848 0.7819 0.58632 0.0
C640 C 0.47325 0.78615 0.58158 0.0
C641 C 0.47735 0.80563 0.58305 0.0
C642 C 0.48438 0.76152 0.59011 0.0
C643 C 0.47605 0.7515 0.62659 0.0
C644 C 0.49214 0.75368 0.56189 0.0
C645 C 0.5006 0.76355 0.52243 0.0
C646 C 0.48976 0.76871 0.49618 0.0
C647 C 0.49783 0.77816 0.45923 0.0
C648 C 0.51673 0.78246 0.44808 0.0
C649 C 0.52758 0.77729 0.47385 0.0
C650 C 0.51958 0.76786 0.51085 0.0
C651 C 0.4777 0.67738 0.64193 0.0
C652 C 0.49653 0.68005 0.63524 0.0
C653 C 0.47399 0.69276 0.63425 0.0
C654 C 0.48922 0.71108 0.62081 0.0
C655 C 0.50822 0.71389 0.61624 0.0
C656 C 0.51179 0.6985 0.62303 0.0
C657 C 0.48567 0.72735 0.60997 0.0
C658 C 0.49251 0.73657 0.57203 0.0
C659 C 0.47685 0.73463 0.63721 0.0
C660 C 0.46986 0.72604 0.67817 0.0
C661 C 0.48285 0.72525 0.7066 0.0
C662 C 0.47611 0.71709 0.74516 0.0
C663 C 0.45644 0.70982 0.75574 0.0
C664 C 0.44349 0.71077 0.72783 0.0
C665 C 0.45016 0.7189 0.68922 0.0
H666 H 0.45125 0.70351 0.78561 0.0
H667 H 0.52296 0.78977 0.41947 0.0
H668 H 0.68024 0.49261 0.8585 0.0
H669 H 0.70983 0.49003 0.86205 0.0
H670 H 0.71288 0.49062 0.73072 0.0
H671 H 0.68267 0.49255 0.72694 0.0
H672 H 0.72397 0.46614 0.76189 0.0
H673 H 0.73996 0.53265 0.78595 0.0
H674 H 0.73723 0.55935 0.819 0.0
H675 H 0.75221 0.54457 0.93441 0.0
H676 H 0.75477 0.51759 0.90212 0.0
H677 H 0.82698 0.50969 0.73494 0.0
H678 H 0.79281 0.50186 0.7377 0.0
H679 H 0.79163 0.49178 0.86711 0.0
H680 H 0.82599 0.49934 0.86455 0.0
H681 H 0.77886 0.51867 0.84142 0.0
H682 H 0.76637 0.45383 0.81232 0.0
H683 H 0.77049 0.42881 0.77547 0.0
H684 H 0.75059 0.44247 0.6649 0.0
H685 H 0.74662 0.4678 0.70094 0.0
C686 C 0.6871 0.49202 0.83032 0.0
C687 C 0.67935 0.4931 0.79241 0.0
C688 C 0.70402 0.49056 0.83242 0.0
C689 C 0.71381 0.49062 0.79669 0.0
C690 C 0.70558 0.49068 0.75868 0.0
C691 C 0.68839 0.49183 0.75653 0.0
C692 C 0.73321 0.49182 0.79926 0.0
C693 C 0.73602 0.47771 0.77899 0.0
C694 C 0.74882 0.50673 0.82221 0.0
C695 C 0.74734 0.52297 0.8417 0.0
C696 C 0.74252 0.535 0.81844 0.0
C697 C 0.74103 0.55019 0.83702 0.0
C698 C 0.74449 0.55361 0.8788 0.0
C699 C 0.7495 0.54188 0.90206 0.0
C700 C 0.75099 0.52664 0.88363 0.0
C701 C 0.81946 0.50571 0.76401 0.0
C702 C 0.82918 0.50526 0.79963 0.0
C703 C 0.79989 0.5011 0.76543 0.0
C704 C 0.78974 0.49612 0.80252 0.0
C705 C 0.79928 0.49549 0.83818 0.0
C706 C 0.81884 0.4998 0.83668 0.0
C707 C 0.76961 0.49305 0.80403 0.0
C708 C 0.7667 0.50692 0.82486 0.0
C709 C 0.75408 0.47813 0.78108 0.0
C710 C 0.75635 0.46284 0.7593 0.0
C711 C 0.76303 0.45163 0.78007 0.0
C712 C 0.7653 0.43736 0.75934 0.0
C713 C 0.76084 0.43408 0.71785 0.0
C714 C 0.75405 0.44503 0.69703 0.0
C715 C 0.75176 0.45933 0.71762 0.0
H716 H 0.76262 0.42303 0.70185 0.0
H717 H 0.74333 0.56539 0.89312 0.0
H718 H 0.21103 0.65981 0.91387 0.0
H719 H 0.24243 0.67946 0.94907 0.0
H720 H 0.24053 0.73208 0.92109 0.0
H721 H 0.20903 0.71248 0.88698 0.0
H722 H 0.27982 0.73839 0.93305 0.0
H723 H 0.21323 0.70719 0.99799 0.0
H724 H 0.18166 0.67712 0.01221 0.0
H725 H 0.21247 0.65034 0.06551 0.0
H726 H 0.24423 0.68021 0.05105 0.0
H727 H 0.26848 0.79346 0.09005 0.0
H728 H 0.25547 0.76005 0.06528 0.0
H729 H 0.31343 0.76694 0.0705 0.0
H730 H 0.32659 0.80046 0.09552 0.0
H731 H 0.25422 0.72419 0.07474 0.0
H732 H 0.3211 0.75537 0.97507 0.0
H733 H 0.35012 0.78706 0.95642 0.0
H734 H 0.31629 0.81592 0.96992 0.0
H735 H 0.28709 0.78437 0.98829 0.0
C736 C 0.21794 0.67567 0.91307 0.0
C737 C 0.20762 0.68471 0.89825 0.0
C738 C 0.23583 0.68686 0.93336 0.0
C739 C 0.24356 0.70714 0.93826 0.0
C740 C 0.23479 0.71643 0.91763 0.0
C741 C 0.21678 0.70525 0.89811 0.0
C742 C 0.25691 0.71779 0.97249 0.0
C743 C 0.27469 0.73494 0.96428 0.0
C744 C 0.25003 0.71339 0.01316 0.0
C745 C 0.23102 0.6958 0.02329 0.0
C746 C 0.21322 0.69487 0.01276 0.0
C747 C 0.19532 0.67787 0.02077 0.0
C748 C 0.19506 0.66182 0.0397 0.0
C749 C 0.2127 0.66278 0.05081 0.0
C750 C 0.23065 0.67972 0.04271 0.0
C751 C 0.2783 0.78754 0.08795 0.0
C752 C 0.29861 0.79973 0.09363 0.0
C753 C 0.27083 0.76839 0.07384 0.0
C754 C 0.28361 0.76125 0.06499 0.0
C755 C 0.30339 0.7723 0.0767 0.0
C756 C 0.31087 0.79146 0.09119 0.0
C757 C 0.27702 0.74501 0.03524 0.0
C758 C 0.26027 0.72697 0.04415 0.0
C759 C 0.28476 0.74868 0.99512 0.0
C760 C 0.30206 0.76762 0.98344 0.0
C761 C 0.3199 0.7685 0.97396 0.0
C762 C 0.33636 0.78642 0.96347 0.0
C763 C 0.33508 0.80351 0.96216 0.0
C764 C 0.3173 0.8027 0.9711 0.0
C765 C 0.30079 0.78481 0.98152 0.0
H766 H 0.34786 0.81735 0.95413 0.0
H767 H 0.18119 0.64865 0.0458 0.0
H768 H 0.58203 0.1313 0.6275 0.0
H769 H 0.56294 0.12821 0.6888 0.0
H770 H 0.6162 0.15502 0.76022 0.0
H771 H 0.63527 0.15776 0.69944 0.0
H772 H 0.58867 0.12419 0.79878 0.0
H773 H 0.59236 0.18034 0.73202 0.0
H774 H 0.58842 0.19856 0.67508 0.0
H775 H 0.52628 0.1581 0.67336 0.0
H776 H 0.52989 0.13948 0.72998 0.0
H777 H 0.55501 0.15014 0.97622 0.0
H778 H 0.57184 0.15068 0.91319 0.0
H779 H 0.51608 0.11923 0.85124 0.0
H780 H 0.4991 0.11864 0.91417 0.0
H781 H 0.54335 0.15084 0.80702 0.0
H782 H 0.53992 0.09563 0.87652 0.0
H783 H 0.5443 0.07804 0.93413 0.0
H784 H 0.60662 0.11759 0.93138 0.0
H785 H 0.60259 0.1356 0.87409 0.0
C786 C 0.58968 0.13662 0.65623 0.0
C787 C 0.61018 0.14481 0.65854 0.0
C788 C 0.57875 0.13489 0.69125 0.0
C789 C 0.58815 0.14154 0.72914 0.0
C790 C 0.60861 0.14975 0.7314 0.0
C791 C 0.6195 0.15137 0.69653 0.0
C792 C 0.57673 0.13977 0.76662 0.0
C793 C 0.57894 0.13023 0.80069 0.0
C794 C 0.56364 0.1472 0.7689 0.0
C795 C 0.56143 0.1584 0.73494 0.0
C796 C 0.57788 0.17524 0.71928 0.0
C797 C 0.5757 0.18565 0.68711 0.0
C798 C 0.55712 0.17946 0.67053 0.0
C799 C 0.54067 0.16286 0.68619 0.0
C800 C 0.54277 0.15238 0.71834 0.0
C801 C 0.54629 0.14326 0.94926 0.0
C802 C 0.52569 0.13432 0.95028 0.0
C803 C 0.55594 0.14352 0.91327 0.0
C804 C 0.5452 0.13487 0.87757 0.0
C805 C 0.52465 0.12597 0.87844 0.0
C806 C 0.51497 0.12559 0.91449 0.0
C807 C 0.55549 0.13547 0.83918 0.0
C808 C 0.55303 0.14475 0.80498 0.0
C809 C 0.56844 0.1279 0.83684 0.0
C810 C 0.57092 0.11708 0.87125 0.0
C811 C 0.55454 0.10068 0.88842 0.0
C812 C 0.55697 0.09061 0.92097 0.0
C813 C 0.57572 0.09672 0.93647 0.0
C814 C 0.5921 0.11289 0.91937 0.0
C815 C 0.58975 0.12302 0.88683 0.0
H816 H 0.57757 0.08891 0.96167 0.0
H817 H 0.55547 0.18754 0.64563 0.0
H818 H 0.44881 0.63032 0.79749 0.0
H819 H 0.43332 0.61504 0.86216 0.0
H820 H 0.45023 0.57112 0.84485 0.0
H821 H 0.46544 0.5861 0.77975 0.0
H822 H 0.41351 0.55457 0.87114 0.0
H823 H 0.47495 0.6098 0.91187 0.0
H824 H 0.50082 0.64465 0.91451 0.0
H825 H 0.45987 0.65972 0.96608 0.0
H826 H 0.43368 0.62498 0.96324 0.0
H827 H 0.3945 0.51659 0.07156 0.0
H828 H 0.41193 0.53332 0.00942 0.0
H829 H 0.39238 0.57538 0.02382 0.0
H830 H 0.37504 0.55884 0.08633 0.0
H831 H 0.43066 0.59299 0.99954 0.0
H832 H 0.3692 0.53766 0.95794 0.0
H833 H 0.34353 0.50272 0.95576 0.0
H834 H 0.38495 0.48784 0.90602 0.0
H835 H 0.41095 0.52268 0.90843 0.0
C836 C 0.44923 0.6174 0.80738 0.0
C837 C 0.45843 0.60948 0.78342 0.0
C838 C 0.44045 0.60873 0.84452 0.0
C839 C 0.44084 0.59208 0.85873 0.0
C840 C 0.44978 0.58398 0.83461 0.0
C841 C 0.4585 0.59259 0.79738 0.0
C842 C 0.43175 0.58295 0.89848 0.0
C843 C 0.41748 0.56293 0.89928 0.0
C844 C 0.43657 0.59391 0.93516 0.0
C845 C 0.4523 0.61481 0.93696 0.0
C846 C 0.47142 0.62057 0.92347 0.0
C847 C 0.48615 0.6403 0.92506 0.0
C848 C 0.48198 0.6544 0.94035 0.0
C849 C 0.46308 0.64879 0.95419 0.0
C850 C 0.44829 0.62907 0.95263 0.0
C851 C 0.39402 0.5295 0.06177 0.0
C852 C 0.38324 0.53628 0.08383 0.0
C853 C 0.40394 0.539 0.02609 0.0
C854 C 0.40321 0.55542 0.01159 0.0
C855 C 0.39309 0.56269 0.03435 0.0
C856 C 0.38315 0.55318 0.07006 0.0
C857 C 0.4125 0.56465 0.9721 0.0
C858 C 0.42675 0.58466 0.97136 0.0
C859 C 0.4077 0.55368 0.93546 0.0
C860 C 0.39206 0.53275 0.93374 0.0
C861 C 0.37287 0.52692 0.94682 0.0
C862 C 0.35826 0.50714 0.9455 0.0
C863 C 0.36262 0.49307 0.93086 0.0
C864 C 0.3816 0.49876 0.9174 0.0
C865 C 0.39628 0.51852 0.91871 0.0
H866 H 0.35129 0.47776 0.92986 0.0
H867 H 0.4934 0.66967 0.94156 0.0
H868 H 0.85212 0.43445 0.90206 0.0
H869 H 0.84939 0.41823 0.96714 0.0
H870 H 0.88486 0.47456 0.02468 0.0
H871 H 0.888 0.49092 0.95942 0.0
H872 H 0.89603 0.44954 0.04952 0.0
H873 H 0.83477 0.44817 0.03856 0.0
H874 H 0.80385 0.44183 0.006 0.0
H875 H 0.7844 0.38023 1.00044 0.0
H876 H 0.81534 0.38622 0.03246 0.0
H877 H 0.87328 0.40844 0.25057 0.0
H878 H 0.87593 0.42799 0.19018 0.0
H879 H 0.84391 0.37491 0.11965 0.0
H880 H 0.84109 0.35535 0.17962 0.0
H881 H 0.83095 0.40046 0.10477 0.0
H882 H 0.89344 0.40265 0.11244 0.0
H883 H 0.92433 0.40933 0.14573 0.0
H884 H 0.94123 0.4701 0.15875 0.0
H885 H 0.91029 0.46371 0.12602 0.0
C886 C 0.85934 0.44342 0.92853 0.0
C887 C 0.87022 0.464 0.92551 0.0
C888 C 0.85768 0.43411 0.96581 0.0
C889 C 0.86667 0.44517 0.00101 0.0
C890 C 0.87775 0.46571 0.998 0.0
C891 C 0.87949 0.47504 0.96065 0.0
C892 C 0.86468 0.43525 0.04077 0.0
C893 C 0.88178 0.43905 0.06193 0.0
C894 C 0.84611 0.42136 0.05679 0.0
C895 C 0.82746 0.41768 0.03759 0.0
C896 C 0.82397 0.43329 0.03011 0.0
C897 C 0.80642 0.42975 0.0118 0.0
C898 C 0.79219 0.41064 0.00108 0.0
C899 C 0.79545 0.39502 0.00873 0.0
C900 C 0.81298 0.39848 0.027 0.0
C901 C 0.86676 0.40095 0.22222 0.0
C902 C 0.85703 0.38033 0.2199 0.0
C903 C 0.86834 0.41214 0.18771 0.0
C904 C 0.86025 0.40291 0.15031 0.0
C905 C 0.85026 0.38235 0.14817 0.0
C906 C 0.84873 0.37118 0.18251 0.0
C907 C 0.86228 0.41454 0.11309 0.0
C908 C 0.84518 0.41107 0.09247 0.0
C909 C 0.88083 0.42879 0.0977 0.0
C910 C 0.89946 0.43266 0.1172 0.0
C911 C 0.90367 0.4174 0.12271 0.0
C912 C 0.9212 0.42114 0.14141 0.0
C913 C 0.93471 0.44012 0.15446 0.0
C914 C 0.93074 0.45541 0.1487 0.0
C915 C 0.91322 0.45174 0.13005 0.0
H916 H 0.94827 0.44299 0.16893 0.0
H917 H 0.77861 0.40794 0.98691 0.0
H918 H 0.45533 0.883 0.4916 0.0
H919 H 0.43844 0.88249 0.42859 0.0
H920 H 0.46852 0.85727 0.36461 0.0
H921 H 0.48584 0.85824 0.42714 0.0
H922 H 0.46796 0.88434 0.31909 0.0
H923 H 0.41974 0.82928 0.39527 0.0
H924 H 0.39915 0.81208 0.45481 0.0
H925 H 0.37231 0.84803 0.44866 0.0
H926 H 0.39294 0.86563 0.38937 0.0
H927 H 0.40361 0.84748 0.14677 0.0
H928 H 0.42257 0.85098 0.20856 0.0
H929 H 0.3968 0.88183 0.26716 0.0
H930 H 0.37781 0.87842 0.20563 0.0
H931 H 0.39527 0.85241 0.31503 0.0
H932 H 0.44348 0.90669 0.23624 0.0
H933 H 0.46377 0.92267 0.17562 0.0
H934 H 0.49022 0.88648 0.18546 0.0
H935 H 0.46988 0.87007 0.24584 0.0
C936 C 0.45836 0.87735 0.46411 0.0
C937 C 0.47188 0.87059 0.46447 0.0
C938 C 0.44862 0.87699 0.42812 0.0
C939 C 0.45198 0.86958 0.39189 0.0
C940 C 0.46566 0.86305 0.39211 0.0
C941 C 0.47552 0.86356 0.42798 0.0
C942 C 0.44122 0.86856 0.35378 0.0
C943 C 0.45205 0.87714 0.31813 0.0
C944 C 0.42047 0.85948 0.35254 0.0
C945 C 0.40803 0.84891 0.38815 0.0
C946 C 0.40955 0.83362 0.40681 0.0
C947 C 0.39786 0.82378 0.44048 0.0
C948 C 0.38447 0.82899 0.45558 0.0
C949 C 0.38271 0.84403 0.43697 0.0
C950 C 0.39439 0.85393 0.40331 0.0
C951 C 0.40208 0.85514 0.17269 0.0
C952 C 0.38917 0.86265 0.17124 0.0
C953 C 0.41298 0.85718 0.20794 0.0
C954 C 0.41115 0.86674 0.24241 0.0
C955 C 0.39842 0.87439 0.24092 0.0
C956 C 0.38763 0.87248 0.20564 0.0
C957 C 0.42201 0.86818 0.28051 0.0
C958 C 0.41118 0.85965 0.3161 0.0
C959 C 0.44273 0.87713 0.28157 0.0
C960 C 0.45501 0.88702 0.24533 0.0
C961 C 0.4535 0.90202 0.22528 0.0
C962 C 0.46503 0.91118 0.191 0.0
C963 C 0.47823 0.90556 0.17663 0.0
C964 C 0.47997 0.8908 0.19659 0.0
C965 C 0.46845 0.88158 0.23087 0.0
H966 H 0.48715 0.91267 0.15009 0.0
H967 H 0.37543 0.82136 0.48164 0.0
H968 H 0.58064 0.42447 0.66089 0.0
H969 H 0.56866 0.41315 0.59189 0.0
H970 H 0.60357 0.47233 0.54691 0.0
H971 H 0.61538 0.48385 0.61602 0.0
H972 H 0.56752 0.45562 0.51588 0.0
H973 H 0.6169 0.43739 0.52903 0.0
H974 H 0.63426 0.42205 0.56129 0.0
H975 H 0.58227 0.36539 0.55196 0.0
H976 H 0.5645 0.38043 0.52014 0.0
H977 H 0.54722 0.42538 0.30801 0.0
H978 H 0.5648 0.43942 0.37194 0.0
H979 H 0.53316 0.38248 0.42895 0.0
H980 H 0.51594 0.36829 0.36519 0.0
H981 H 0.57036 0.40009 0.45118 0.0
H982 H 0.52042 0.41872 0.44299 0.0
H983 H 0.50292 0.43402 0.41109 0.0
H984 H 0.5561 0.48997 0.41133 0.0
H985 H 0.57397 0.47494 0.44278 0.0
C986 C 0.58587 0.43508 0.63633 0.0
C987 C 0.59901 0.45507 0.64406 0.0
C988 C 0.57907 0.42856 0.59679 0.0
C989 C 0.58538 0.44184 0.56403 0.0
C990 C 0.59851 0.4618 0.57164 0.0
C991 C 0.60529 0.46835 0.6112 0.0
C992 C 0.57778 0.43496 0.52212 0.0
C993 C 0.56845 0.4437 0.50146 0.0
C994 C 0.57866 0.41918 0.50348 0.0
C995 C 0.58932 0.41007 0.5225 0.0
C996 C 0.60912 0.42168 0.53413 0.0
C997 C 0.61904 0.41303 0.55229 0.0
C998 C 0.60936 0.39276 0.55875 0.0
C999 C 0.58975 0.38109 0.54697 0.0
C1000 C 0.57975 0.38967 0.52883 0.0
C1001 C 0.54407 0.41583 0.33411 0.0
C1002 C 0.53009 0.39572 0.33146 0.0
C1003 C 0.55408 0.4239 0.37071 0.0
C1004 C 0.55012 0.41207 0.40551 0.0
C1005 C 0.53648 0.39192 0.4026 0.0
C1006 C 0.52659 0.38384 0.36606 0.0
C1007 C 0.55984 0.42055 0.44524 0.0
C1008 C 0.56959 0.41212 0.46549 0.0
C1009 C 0.55932 0.43661 0.46352 0.0
C1010 C 0.54857 0.44566 0.44482 0.0
C1011 C 0.52841 0.43426 0.43597 0.0
C1012 C 0.51842 0.44288 0.41802 0.0
C1013 C 0.5284 0.46294 0.40908 0.0
C1014 C 0.54839 0.47443 0.4182 0.0
C1015 C 0.55845 0.46587 0.43611 0.0
H1016 H 0.52065 0.46959 0.39519 0.0
H1017 H 0.61707 0.3861 0.57281 0.0
H1018 H 0.15726 0.55675 0.4426 0.0
H1019 H 0.15988 0.57468 0.50529 0.0
H1020 H 0.12119 0.52013 0.56621 0.0
H1021 H 0.11812 0.50213 0.50338 0.0
H1022 H 0.11198 0.54705 0.58648 0.0
H1023 H 0.17146 0.54426 0.58103 0.0
H1024 H 0.20202 0.54858 0.55039 0.0
H1025 H 0.22457 0.61069 0.54112 0.0
H1026 H 0.19402 0.60671 0.57121 0.0
H1027 H 0.13495 0.58521 0.78897 0.0
H1028 H 0.13181 0.56644 0.72706 0.0
H1029 H 0.1662 0.62039 0.66064 0.0
H1030 H 0.16944 0.63924 0.72223 0.0
H1031 H 0.17755 0.59325 0.64434 0.0
H1032 H 0.1175 0.59552 0.64973 0.0
H1033 H 0.08698 0.59081 0.68136 0.0
H1034 H 0.06561 0.52896 0.69213 0.0
H1035 H 0.09615 0.53335 0.66107 0.0
C1036 C 0.14926 0.54856 0.46929 0.0
C1037 C 0.13756 0.52798 0.468 0.0
C1038 C 0.15085 0.55883 0.5052 0.0
C1039 C 0.14099 0.54874 0.54071 0.0
C1040 C 0.12898 0.52824 0.53926 0.0
C1041 C 0.12728 0.51796 0.5033 0.0
C1042 C 0.14325 0.55953 0.5794 0.0
C1043 C 0.12632 0.55693 0.5994 0.0
C1044 C 0.16196 0.5727 0.59601 0.0
C1045 C 0.18037 0.57516 0.57801 0.0
C1046 C 0.18288 0.55882 0.57217 0.0
C1047 C 0.20021 0.56121 0.55495 0.0
C1048 C 0.21521 0.57989 0.54372 0.0
C1049 C 0.21293 0.59623 0.54978 0.0
C1050 C 0.19561 0.59391 0.56695 0.0
C1051 C 0.14191 0.59308 0.76123 0.0
C1052 C 0.1524 0.61373 0.76051 0.0
C1053 C 0.14003 0.58233 0.72585 0.0
C1054 C 0.14863 0.59203 0.68916 0.0
C1055 C 0.15943 0.61262 0.6886 0.0
C1056 C 0.16122 0.62336 0.72384 0.0
C1057 C 0.1463 0.58079 0.65122 0.0
C1058 C 0.16323 0.58331 0.6314 0.0
C1059 C 0.1276 0.56747 0.63493 0.0
C1060 C 0.1092 0.5648 0.65348 0.0
C1061 C 0.10637 0.58094 0.65916 0.0
C1062 C 0.08905 0.57833 0.67692 0.0
C1063 C 0.07439 0.55961 0.68885 0.0
C1064 C 0.077 0.54346 0.68293 0.0
C1065 C 0.0943 0.546 0.66523 0.0
H1066 H 0.061 0.55761 0.70259 0.0
H1067 H 0.22861 0.58171 0.53039 0.0
H1068 H 0.43383 0.07036 0.98714 0.0
H1069 H 0.40927 0.03547 0.97988 0.0
H1070 H 0.3832 0.03747 0.09429 0.0
H1071 H 0.40662 0.07211 0.10037 0.0
H1072 H 0.40548 0.00741 0.02121 0.0
H1073 H 0.33797 0.00321 0.10828 0.0
H1074 H 0.32022 0.02164 0.1107 0.0
H1075 H 0.34227 0.04561 0.99215 0.0
H1076 H 0.35992 0.0271 0.9887 0.0
H1077 H 0.3585 0.91946 0.12212 0.0
H1078 H 0.37231 0.95448 0.10936 0.0
H1079 H 0.32463 0.94195 0.02702 0.0
H1080 H 0.31045 0.9069 0.04019 0.0
H1081 H 0.33579 0.97557 0.06504 0.0
H1082 H 0.3663 0.94813 0.98788 0.0
H1083 H 0.38235 0.92876 0.97272 0.0
H1084 H 0.43103 0.96673 0.0493 0.0
H1085 H 0.41513 0.98618 0.06543 0.0
C1086 C 0.42249 0.06342 0.01009 0.0
C1087 C 0.42222 0.07401 0.04433 0.0
C1088 C 0.4085 0.04347 0.00601 0.0
C1089 C 0.39418 0.03377 0.03633 0.0
C1090 C 0.39361 0.04458 0.06977 0.0
C1091 C 0.40724 0.06448 0.07342 0.0
C1092 C 0.38137 0.01206 0.03612 0.0
C1093 C 0.39019 0.00051 0.03033 0.0
C1094 C 0.36117 0.00279 0.04663 0.0
C1095 C 0.35037 0.0138 0.04834 0.0
C1096 C 0.33893 0.01229 0.08259 0.0
C1097 C 0.32891 0.02279 0.08418 0.0
C1098 C 0.33014 0.03481 0.05164 0.0
C1099 C 0.34137 0.03633 0.01739 0.0
C1100 C 0.35141 0.02586 0.01563 0.0
C1101 C 0.3506 0.92414 0.10224 0.0
C1102 C 0.33357 0.91035 0.0816 0.0
C1103 C 0.35862 0.94417 0.09469 0.0
C1104 C 0.34983 0.95071 0.06619 0.0
C1105 C 0.33178 0.93717 0.04871 0.0
C1106 C 0.32367 0.91712 0.05642 0.0
C1107 C 0.36033 0.97142 0.05244 0.0
C1108 C 0.35101 0.9826 0.05538 0.0
C1109 C 0.37979 0.98023 0.03741 0.0
C1110 C 0.38943 0.96853 0.02813 0.0
C1111 C 0.38035 0.95226 0.00178 0.0
C1112 C 0.38943 0.94128 0.99295 0.0
C1113 C 0.40768 0.94649 0.01009 0.0
C1114 C 0.41688 0.96271 0.03607 0.0
C1115 C 0.40785 0.97373 0.04503 0.0
H1116 H 0.4147 0.93799 0.00316 0.0
H1117 H 0.32238 0.04294 0.05295 0.0
H1118 H 0.40548 0.33101 0.2551 0.0
H1119 H 0.38649 0.34735 0.24237 0.0
H1120 H 0.43996 0.40353 0.242 0.0
H1121 H 0.45894 0.38734 0.25628 0.0
H1122 H 0.41069 0.40804 0.26815 0.0
H1123 H 0.42198 0.3776 0.15353 0.0
H1124 H 0.42193 0.35075 0.11464 0.0
H1125 H 0.35899 0.31713 0.1223 0.0
H1126 H 0.3587 0.34371 0.16176 0.0
H1127 H 0.37917 0.45787 0.14135 0.0
H1128 H 0.39613 0.43941 0.15253 0.0
H1129 H 0.34131 0.3883 0.18545 0.0
H1130 H 0.32415 0.40668 0.17481 0.0
H1131 H 0.37142 0.38172 0.1414 0.0
H1132 H 0.3625 0.41487 0.25941 0.0
H1133 H 0.36484 0.4447 0.28963 0.0
H1134 H 0.42697 0.47636 0.26716 0.0
H1135 H 0.42494 0.44675 0.23631 0.0
C1136 C 0.4131 0.3469 0.25385 0.0
C1137 C 0.4337 0.35788 0.25607 0.0
C1138 C 0.40226 0.35621 0.24621 0.0
C1139 C 0.4119 0.37658 0.23972 0.0
C1140 C 0.43224 0.38777 0.24641 0.0
C1141 C 0.44307 0.37848 0.25477 0.0
C1142 C 0.40119 0.38582 0.22146 0.0
C1143 C 0.40221 0.40231 0.24038 0.0
C1144 C 0.39025 0.37852 0.18487 0.0
C1145 C 0.39033 0.36255 0.16096 0.0
C1146 C 0.40814 0.36442 0.14716 0.0
C1147 C 0.40817 0.34926 0.12499 0.0
C1148 C 0.39047 0.33222 0.11611 0.0
C1149 C 0.37269 0.33033 0.12928 0.0
C1150 C 0.37258 0.34544 0.15152 0.0
C1151 C 0.37053 0.44248 0.14934 0.0
C1152 C 0.35036 0.43385 0.15806 0.0
C1153 C 0.3803 0.43199 0.15587 0.0
C1154 C 0.36997 0.41269 0.17062 0.0
C1155 C 0.34949 0.40325 0.1743 0.0
C1156 C 0.33972 0.41379 0.1682 0.0
C1157 C 0.38076 0.4036 0.18844 0.0
C1158 C 0.37981 0.38725 0.16935 0.0
C1159 C 0.3921 0.41127 0.22429 0.0
C1160 C 0.39355 0.42866 0.24529 0.0
C1161 C 0.37665 0.4282 0.26089 0.0
C1162 C 0.37791 0.44507 0.27806 0.0
C1163 C 0.39601 0.46244 0.28005 0.0
C1164 C 0.41294 0.46291 0.26539 0.0
C1165 C 0.41176 0.44608 0.24818 0.0
H1166 H 0.39694 0.47552 0.29314 0.0
H1167 H 0.39052 0.32049 0.09893 0.0
H1168 H 0.07128 0.39864 0.37283 0.0
H1169 H 0.03582 0.37617 0.36914 0.0
H1170 H 0.02578 0.42454 0.39167 0.0
H1171 H 0.06113 0.4468 0.39751 0.0
H1172 H -0.00348 0.39327 0.42069 0.0
H1173 H 0.03099 0.41025 0.29292 0.0
H1174 H 0.05585 0.41309 0.24331 0.0
H1175 H 0.03095 0.35048 0.24425 0.0
H1176 H 0.00609 0.3473 0.29433 0.0
H1177 H 0.9162 0.37188 0.29433 0.0
H1178 H 0.95123 0.38376 0.30211 0.0
H1179 H 0.93849 0.32745 0.34912 0.0
H1180 H 0.90326 0.31541 0.34231 0.0
H1181 H 0.97802 0.35886 0.28718 0.0
H1182 H 0.94316 0.345 0.4218 0.0
H1183 H 0.9177 0.34603 0.46405 0.0
H1184 H 0.94361 0.40782 0.44104 0.0
H1185 H 0.96907 0.40705 0.39822 0.0
C1186 C 0.06145 0.40431 0.37844 0.0
C1187 C 0.06891 0.42447 0.38495 0.0
C1188 C 0.04121 0.39151 0.37596 0.0
C1189 C 0.02817 0.39879 0.37862 0.0
C1190 C 0.03555 0.41858 0.38911 0.0
C1191 C 0.05578 0.43131 0.39256 0.0
C1192 C 0.00731 0.38653 0.36612 0.0
C1193 C 0.99256 0.38565 0.39165 0.0
C1194 C 0.00199 0.3767 0.32793 0.0
C1195 C 0.01685 0.37856 0.2977 0.0
C1196 C 0.0309 0.3971 0.28274 0.0
C1197 C 0.04498 0.39877 0.25453 0.0
C1198 C 0.04502 0.38198 0.24074 0.0
C1199 C 0.03093 0.36348 0.25504 0.0
C1200 C 0.01685 0.36173 0.28333 0.0
C1201 C 0.92077 0.36171 0.30479 0.0
C1202 C 0.90692 0.34283 0.31859 0.0
C1203 C 0.94082 0.36857 0.30931 0.0
C1204 C 0.94725 0.35654 0.32686 0.0
C1205 C 0.93366 0.33692 0.33574 0.0
C1206 C 0.91355 0.33008 0.33173 0.0
C1207 C 0.96757 0.36549 0.34202 0.0
C1208 C 0.98211 0.36599 0.31673 0.0
C1209 C 0.97278 0.37535 0.3799 0.0
C1210 C 0.95788 0.37593 0.40663 0.0
C1211 C 0.94334 0.35877 0.42561 0.0
C1212 C 0.92893 0.35931 0.44966 0.0
C1213 C 0.92901 0.37697 0.45515 0.0
C1214 C 0.94356 0.39414 0.43673 0.0
C1215 C 0.95799 0.39367 0.41262 0.0
H1216 H 0.91783 0.37736 0.47373 0.0
H1217 H 0.05593 0.3833 0.21889 0.0
H1218 H 0.53678 0.9308 0.53837 0.0
H1219 H 0.56104 0.96536 0.52692 0.0
H1220 H 0.59039 0.96633 0.63886 0.0
H1221 H 0.56665 0.93182 0.64991 0.0
H1222 H 0.56596 0.99462 0.57147 0.0
H1223 H 0.63828 0.00169 0.63659 0.0
H1224 H 0.65518 0.9824 0.63877 0.0
H1225 H 0.62449 0.95128 0.53085 0.0
H1226 H 0.60762 0.97056 0.52768 0.0
H1227 H 0.62543 0.09305 0.61198 0.0
H1228 H 0.61148 0.0581 0.62641 0.0
H1229 H 0.64401 0.05301 0.52589 0.0
H1230 H 0.65855 0.08798 0.51217 0.0
H1231 H 0.63853 0.0267 0.583 0.0
H1232 H 0.59877 0.04707 0.50975 0.0
H1233 H 0.58244 0.06656 0.49914 0.0
H1234 H 0.5482 0.04185 0.60749 0.0
H1235 H 0.56456 0.02241 0.61906 0.0
C1236 C 0.54861 0.93828 0.56013 0.0
C1237 C 0.5497 0.92859 0.59517 0.0
C1238 C 0.56244 0.95803 0.55361 0.0
C1239 C 0.57756 0.96842 0.58198 0.0
C1240 C 0.57907 0.95857 0.61619 0.0
C1241 C 0.56537 0.93882 0.62258 0.0
C1242 C 0.59061 0.98992 0.57796 0.0
C1243 C 0.58182 0.00157 0.57385 0.0
C1244 C 0.61133 -0.00096 0.58069 0.0
C1245 C 0.62154 0.98746 0.58216 0.0
C1246 C 0.63519 0.99079 0.61324 0.0
C1247 C 0.64476 0.97984 0.61466 0.0
C1248 C 0.64087 0.96558 0.58505 0.0
C1249 C 0.62744 0.96228 0.55387 0.0
C1250 C 0.61784 0.97319 0.55229 0.0
C1251 C 0.63012 0.08463 0.59381 0.0
C1252 C 0.64271 0.09317 0.56031 0.0
C1253 C 0.62209 0.06465 0.60201 0.0
C1254 C 0.62624 0.05289 0.57635 0.0
C1255 C 0.64046 0.06179 0.5458 0.0
C1256 C 0.64872 0.08182 0.53794 0.0
C1257 C 0.61378 0.03124 0.57732 0.0
C1258 C 0.62265 0.01963 0.58077 0.0
C1259 C 0.59313 0.02206 0.57274 0.0
C1260 C 0.583 0.03343 0.56546 0.0
C1261 C 0.58782 0.04586 0.53141 0.0
C1262 C 0.57856 0.0569 0.52523 0.0
C1263 C 0.56432 0.05548 0.55268 0.0
C1264 C 0.55926 0.04295 0.58629 0.0
C1265 C 0.56851 0.03192 0.59266 0.0
H1266 H 0.55718 0.06404 0.54786 0.0
H1267 H 0.64828 0.95712 0.58621 0.0
H1268 H 0.61236 0.53518 0.69915 0.0
H1269 H 0.60359 0.56015 0.68398 0.0
H1270 H 0.64467 0.59825 0.77498 0.0
H1271 H 0.65312 0.57304 0.79118 0.0
H1272 H 0.61101 0.59524 0.78804 0.0
H1273 H 0.65148 0.61053 0.67192 0.0
H1274 H 0.66548 0.6046 0.60997 0.0
H1275 H 0.60913 0.5789 0.55133 0.0
H1276 H 0.5947 0.58441 0.61312 0.0
H1277 H 0.57427 0.65366 0.65036 0.0
H1278 H 0.59949 0.64596 0.67125 0.0
H1279 H 0.55673 0.59802 0.74458 0.0
H1280 H 0.53164 0.60609 0.72486 0.0
H1281 H 0.59984 0.61481 0.65143 0.0
H1282 H 0.57732 0.5854 0.81783 0.0
H1283 H 0.56596 0.59411 0.88027 0.0
H1284 H 0.59199 0.65387 0.8397 0.0
H1285 H 0.60376 0.6456 0.77728 0.0
C1286 C 0.6199 0.54905 0.71524 0.0
C1287 C 0.63328 0.55206 0.74665 0.0
C1288 C 0.61493 0.56338 0.70643 0.0
C1289 C 0.62351 0.58112 0.7283 0.0
C1290 C 0.63781 0.58465 0.75786 0.0
C1291 C 0.64265 0.57024 0.76699 0.0
C1292 C 0.61584 0.59481 0.72346 0.0
C1293 C 0.60878 0.59975 0.75821 0.0
C1294 C 0.61341 0.60116 0.68469 0.0
C1295 C 0.62199 0.59782 0.6473 0.0
C1296 C 0.64204 0.6035 0.64592 0.0
C1297 C 0.65005 0.60023 0.6108 0.0
C1298 C 0.6382 0.59136 0.57675 0.0
C1299 C 0.6183 0.58577 0.57773 0.0
C1300 C 0.6102 0.589 0.61277 0.0
C1301 C 0.57038 0.64178 0.67176 0.0
C1302 C 0.55096 0.63035 0.68575 0.0
C1303 C 0.5848 0.63739 0.6836 0.0
C1304 C 0.58004 0.62141 0.70941 0.0
C1305 C 0.56088 0.61065 0.72519 0.0
C1306 C 0.5465 0.61521 0.71379 0.0
C1307 C 0.59427 0.61449 0.71586 0.0
C1308 C 0.60249 0.61075 0.68138 0.0
C1309 C 0.59819 0.6097 0.75496 0.0
C1310 C 0.59133 0.61483 0.79271 0.0
C1311 C 0.58073 0.60043 0.82232 0.0
C1312 C 0.57419 0.60529 0.8577 0.0
C1313 C 0.57822 0.62452 0.86391 0.0
C1314 C 0.58883 0.63896 0.8348 0.0
C1315 C 0.59541 0.63419 0.79938 0.0
H1316 H 0.57313 0.62825 0.89131 0.0
H1317 H 0.64443 0.58884 0.5496 0.0
H1318 H 0.10126 0.67119 0.89587 0.0
H1319 H 0.0669 0.66151 0.88389 0.0
H1320 H 0.05902 0.61139 0.81481 0.0
H1321 H 0.09342 0.62118 0.82584 0.0
H1322 H 0.03655 0.6248 0.78456 0.0
H1323 H 0.05052 0.60793 0.91728 0.0
H1324 H 0.06708 0.61497 0.9841 0.0
H1325 H 0.04406 0.65269 0.01455 0.0
H1326 H 0.02755 0.64605 0.94763 0.0
H1327 H 0.94124 0.5489 0.87992 0.0
H1328 H 0.97584 0.573 0.89008 0.0
H1329 H 0.97007 0.6135 0.81045 0.0
H1330 H 0.9355 0.58924 0.79924 0.0
H1331 H -0.00052 0.60957 0.91461 0.0
H1332 H 0.00954 0.63366 0.7468 0.0
H1333 H 0.99277 0.62188 0.68054 0.0
H1334 H 0.96743 0.56219 0.72131 0.0
H1335 H 0.98425 0.57363 0.78753 0.0
C1336 C 0.09235 0.6584 0.87719 0.0
C1337 C 0.09994 0.64672 0.86245 0.0
C1338 C 0.07271 0.65287 0.8705 0.0
C1339 C 0.06032 0.63547 0.84939 0.0
C1340 C 0.06832 0.62482 0.83142 0.0
C1341 C 0.088 0.63042 0.8378 0.0
C1342 C 0.03874 0.62706 0.84996 0.0
C1343 C 0.02846 0.62175 0.81295 0.0
C1344 C 0.02816 0.62273 0.88708 0.0
C1345 C 0.03802 0.6267 0.92731 0.0
C1346 C 0.04911 0.61784 0.93812 0.0
C1347 C 0.05847 0.62174 0.97602 0.0
C1348 C 0.05668 0.63432 0.0035 0.0
C1349 C 0.04547 0.64299 0.99319 0.0
C1350 C 0.03611 0.63916 0.95529 0.0
C1351 C 0.94716 0.56312 0.86542 0.0
C1352 C 0.93576 0.56701 0.83807 0.0
C1353 C 0.96696 0.57692 0.87132 0.0
C1354 C 0.97561 0.59483 0.85019 0.0
C1355 C 0.96375 0.59957 0.82633 0.0
C1356 C 0.94399 0.58571 0.82006 0.0
C1357 C -0.00271 0.60721 0.84922 0.0
C1358 C 0.00759 0.61319 0.88617 0.0
C1359 C 0.00788 0.61158 0.81211 0.0
C1360 C -0.00206 0.60452 0.77221 0.0
C1361 C 0.00043 0.61803 0.74153 0.0
C1362 C 0.99092 0.61141 0.70401 0.0
C1363 C 0.97898 0.5913 0.69678 0.0
C1364 C 0.97661 0.57776 0.72699 0.0
C1365 C 0.98612 0.58431 0.76451 0.0
H1366 H 0.97161 0.58621 0.66774 0.0
H1367 H 0.06393 0.63731 0.03284 0.0
loop_
_geom_bond_atom_site_label_1
_geom_bond_atom_site_label_2
_geom_bond_distance
_geom_bond_site_symmetry_2
_ccdc_geom_bond_type
Zn0 O3 2.031 . S
Zn0 O5 2.049 . S
Zn0 O10 2.067 . S
Zn1 O2 1.962 . S
Zn1 O4 1.986 1_554 S
Zn1 O6 1.996 . S
Zn1 O9 1.943 . S
O2 Zn1 1.962 . S
O2 C7 1.254 . S
O3 Zn0 2.031 . S
O3 C7 1.269 . S
O4 Zn1 1.986 1_556 S
O4 C11 1.262 . S
O5 Zn0 2.049 . S
O5 C13 1.260 . S
O6 Zn1 1.996 . S
O6 C13 1.257 . S
C7 O2 1.254 . S
C7 O3 1.269 . S
C8 O9 1.249 . S
C8 O10 1.270 . S
O9 Zn1 1.943 . S
O9 C8 1.249 . S
O10 Zn0 2.067 . S
O10 C8 1.270 . S
C11 O4 1.262 . S
C11 O12 1.232 . S
O12 C11 1.232 . S
C13 O5 1.260 . S
C13 O6 1.257 . S
Zn14 O17 2.031 . S
Zn14 O19 2.049 . S
Zn14 O24 2.067 . S
Zn15 O16 1.962 . S
Zn15 O18 1.986 . S
Zn15 O20 1.996 . S
Zn15 O23 1.943 . S
O16 Zn15 1.962 . S
O16 C21 1.254 . S
O17 Zn14 2.031 . S
O17 C21 1.269 . S
O18 Zn15 1.986 . S
O18 C25 1.262 . S
O19 Zn14 2.049 . S
O19 C27 1.260 . S
O20 Zn15 1.996 . S
O20 C27 1.257 . S
C21 O16 1.254 . S
C21 O17 1.269 . S
C22 O23 1.249 . S
C22 O24 1.270 . S
O23 Zn15 1.943 . S
O23 C22 1.249 . S
O24 Zn14 2.067 . S
O24 C22 1.270 . S
C25 O18 1.262 . S
C25 O26 1.232 . S
O26 C25 1.232 . S
C27 O19 1.260 . S
C27 O20 1.257 . S
Zn28 O31 2.031 . S
Zn28 O33 2.049 . S
Zn28 O38 2.067 . S
Zn29 O30 1.962 . S
Zn29 O32 1.986 . S
Zn29 O34 1.996 . S
Zn29 O37 1.943 . S
O30 Zn29 1.962 . S
O30 C35 1.254 . S
O31 Zn28 2.031 . S
O31 C35 1.269 . S
O32 Zn29 1.986 . S
O32 C39 1.262 . S
O33 Zn28 2.049 . S
O33 C41 1.260 . S
O34 Zn29 1.996 . S
O34 C41 1.257 . S
C35 O30 1.254 . S
C35 O31 1.269 . S
C36 O37 1.249 . S
C36 O38 1.270 . S
O37 Zn29 1.943 . S
O37 C36 1.249 . S
O38 Zn28 2.067 . S
O38 C36 1.270 . S
C39 O32 1.262 . S
C39 O40 1.232 . S
O40 C39 1.232 . S
C41 O33 1.260 . S
C41 O34 1.257 . S
Zn42 O45 2.031 . S
Zn42 O47 2.049 . S
Zn42 O52 2.067 . S
Zn43 O44 1.962 . S
Zn43 O46 1.986 . S
Zn43 O48 1.996 . S
Zn43 O51 1.943 . S
O44 Zn43 1.962 . S
O44 C49 1.254 . S
O45 Zn42 2.031 . S
O45 C49 1.269 . S
O46 Zn43 1.986 . S
O46 C53 1.262 . S
O47 Zn42 2.049 . S
O47 C55 1.260 . S
O48 Zn43 1.996 . S
O48 C55 1.257 . S
C49 O44 1.254 . S
C49 O45 1.269 . S
C50 O51 1.249 . S
C50 O52 1.270 . S
O51 Zn43 1.943 . S
O51 C50 1.249 . S
O52 Zn42 2.067 . S
O52 C50 1.270 . S
C53 O46 1.262 . S
C53 O54 1.232 . S
O54 C53 1.232 . S
C55 O47 1.260 . S
C55 O48 1.257 . S
Zn56 O59 2.031 . S
Zn56 O61 2.049 . S
Zn56 O66 2.067 . S
Zn57 O58 1.962 . S
Zn57 O60 1.986 . S
Zn57 O62 1.996 . S
Zn57 O65 1.943 . S
O58 Zn57 1.962 . S
O58 C63 1.254 . S
O59 Zn56 2.031 . S
O59 C63 1.269 . S
O60 Zn57 1.986 . S
O60 C67 1.262 . S
O61 Zn56 2.049 . S
O61 C69 1.260 . S
O62 Zn57 1.996 . S
O62 C69 1.257 . S
C63 O58 1.254 . S
C63 O59 1.269 . S
C64 O65 1.249 . S
C64 O66 1.270 . S
O65 Zn57 1.943 . S
O65 C64 1.249 . S
O66 Zn56 2.067 . S
O66 C64 1.270 . S
C67 O60 1.262 . S
C67 O68 1.232 . S
O68 C67 1.232 . S
C69 O61 1.260 . S
C69 O62 1.257 . S
Zn70 O73 2.031 . S
Zn70 O75 2.049 . S
Zn70 O80 2.067 . S
Zn71 O72 1.962 . S
Zn71 O74 1.986 . S
Zn71 O76 1.996 . S
Zn71 O79 1.943 . S
O72 Zn71 1.962 . S
O72 C77 1.254 . S
O73 Zn70 2.031 . S
O73 C77 1.269 . S
O74 Zn71 1.986 . S
O74 C81 1.262 . S
O75 Zn70 2.049 . S
O75 C83 1.260 . S
O76 Zn71 1.996 . S
O76 C83 1.257 . S
C77 O72 1.254 . S
C77 O73 1.269 . S
C78 O79 1.249 . S
C78 O80 1.270 . S
O79 Zn71 1.943 . S
O79 C78 1.249 . S
O80 Zn70 2.067 . S
O80 C78 1.270 . S
C81 O74 1.262 . S
C81 O82 1.232 . S
O82 C81 1.232 . S
C83 O75 1.260 . S
C83 O76 1.257 . S
Zn84 O87 2.031 . S
Zn84 O89 2.049 . S
Zn84 O94 2.067 . S
Zn85 O86 1.962 . S
Zn85 O88 1.986 . S
Zn85 O90 1.996 . S
Zn85 O93 1.943 . S
O86 Zn85 1.962 . S
O86 C91 1.254 . S
O87 Zn84 2.031 . S
O87 C91 1.269 . S
O88 Zn85 1.986 . S
O88 C95 1.262 . S
O89 Zn84 2.049 . S
O89 C97 1.260 . S
O90 Zn85 1.996 . S
O90 C97 1.257 . S
C91 O86 1.254 . S
C91 O87 1.269 . S
C92 O93 1.249 . S
C92 O94 1.270 . S
O93 Zn85 1.943 . S
O93 C92 1.249 . S
O94 Zn84 2.067 . S
O94 C92 1.270 . S
C95 O88 1.262 . S
C95 O96 1.232 . S
O96 C95 1.232 . S
C97 O89 1.260 . S
C97 O90 1.257 . S
Zn98 O101 2.031 . S
Zn98 O103 2.049 . S
Zn98 O108 2.067 . S
Zn99 O100 1.962 . S
Zn99 O102 1.986 . S
Zn99 O104 1.996 . S
Zn99 O107 1.943 . S
O100 Zn99 1.962 . S
O100 C105 1.254 . S
O101 Zn98 2.031 . S
O101 C105 1.269 1_556 S
O102 Zn99 1.986 . S
O102 C109 1.262 . S
O103 Zn98 2.049 . S
O103 C111 1.260 1_556 S
O104 Zn99 1.996 . S
O104 C111 1.257 . S
C105 O100 1.254 . S
C105 O101 1.269 1_554 S
C106 O107 1.249 1_556 S
C106 O108 1.270 . S
O107 Zn99 1.943 . S
O107 C106 1.249 1_554 S
O108 Zn98 2.067 . S
O108 C106 1.270 . S
C109 O102 1.262 . S
C109 O110 1.232 . S
O110 C109 1.232 . S
C111 O103 1.260 1_554 S
C111 O104 1.257 . S
Zn112 O115 2.031 . S
Zn112 O117 2.049 . S
Zn112 O122 2.067 . S
Zn113 O114 1.962 . S
Zn113 O116 1.986 . S
Zn113 O118 1.996 . S
Zn113 O121 1.943 . S
O114 Zn113 1.962 . S
O114 C119 1.254 . S
O115 Zn112 2.031 . S
O115 C119 1.269 . S
O116 Zn113 1.986 . S
O116 C123 1.262 . S
O117 Zn112 2.049 . S
O117 C125 1.260 . S
O118 Zn113 1.996 . S
O118 C125 1.257 . S
C119 O114 1.254 . S
C119 O115 1.269 . S
C120 O121 1.249 . S
C120 O122 1.270 . S
O121 Zn113 1.943 . S
O121 C120 1.249 . S
O122 Zn112 2.067 . S
O122 C120 1.270 . S
C123 O116 1.262 . S
C123 O124 1.232 . S
O124 C123 1.232 . S
C125 O117 1.260 . S
C125 O118 1.257 . S
Zn126 O129 2.031 . S
Zn126 O131 2.049 . S
Zn126 O136 2.067 . S
Zn127 O128 1.962 . S
Zn127 O130 1.986 . S
Zn127 O132 1.996 . S
Zn127 O135 1.943 . S
O128 Zn127 1.962 . S
O128 C133 1.254 . S
O129 Zn126 2.031 . S
O129 C133 1.269 . S
O130 Zn127 1.986 . S
O130 C137 1.262 . S
O131 Zn126 2.049 . S
O131 C139 1.260 . S
O132 Zn127 1.996 . S
O132 C139 1.257 . S
C133 O128 1.254 . S
C133 O129 1.269 . S
C134 O135 1.249 . S
C134 O136 1.270 . S
O135 Zn127 1.943 . S
O135 C134 1.249 . S
O136 Zn126 2.067 . S
O136 C134 1.270 . S
C137 O130 1.262 . S
C137 O138 1.232 . S
O138 C137 1.232 . S
C139 O131 1.260 . S
C139 O132 1.257 . S
Zn140 O143 2.031 . S
Zn140 O145 2.049 . S
Zn140 O150 2.067 . S
Zn141 O142 1.962 . S
Zn141 O144 1.986 . S
Zn141 O146 1.996 . S
Zn141 O149 1.943 . S
O142 Zn141 1.962 . S
O142 C147 1.254 . S
O143 Zn140 2.031 . S
O143 C147 1.269 . S
O144 Zn141 1.986 . S
O144 C151 1.262 . S
O145 Zn140 2.049 . S
O145 C153 1.260 . S
O146 Zn141 1.996 . S
O146 C153 1.257 . S
C147 O142 1.254 . S
C147 O143 1.269 . S
C148 O149 1.249 . S
C148 O150 1.270 . S
O149 Zn141 1.943 . S
O149 C148 1.249 . S
O150 Zn140 2.067 . S
O150 C148 1.270 . S
C151 O144 1.262 . S
C151 O152 1.232 . S
O152 C151 1.232 . S
C153 O145 1.260 . S
C153 O146 1.257 . S
Zn154 O157 2.031 . S
Zn154 O159 2.049 . S
Zn154 O164 2.067 . S
Zn155 O156 1.962 . S
Zn155 O158 1.986 . S
Zn155 O160 1.996 . S
Zn155 O163 1.943 . S
O156 Zn155 1.962 . S
O156 C161 1.254 . S
O157 Zn154 2.031 . S
O157 C161 1.269 . S
O158 Zn155 1.986 . S
O158 C165 1.262 . S
O159 Zn154 2.049 . S
O159 C167 1.260 . S
O160 Zn155 1.996 . S
O160 C167 1.257 . S
C161 O156 1.254 . S
C161 O157 1.269 . S
C162 O163 1.249 . S
C162 O164 1.270 . S
O163 Zn155 1.943 . S
O163 C162 1.249 . S
O164 Zn154 2.067 . S
O164 C162 1.270 . S
C165 O158 1.262 . S
C165 O166 1.232 . S
O166 C165 1.232 . S
C167 O159 1.260 . S
C167 O160 1.257 . S
H168 C186 0.951 . S
H169 C188 0.951 . S
H170 C190 0.950 . S
H171 C191 0.950 . S
H172 C193 0.950 . S
H173 C196 0.950 . S
H174 C197 0.950 . S
H175 C199 0.950 . S
H176 C200 0.950 . S
H177 C201 0.951 . S
H178 C203 0.951 . S
H179 C205 0.950 . S
H180 C206 0.950 . S
H181 C208 0.950 . S
H182 C211 0.950 . S
H183 C212 0.950 . S
H184 C214 0.950 . S
H185 C215 0.950 . S
C186 H168 0.951 . S
C186 C187 1.366 . S
C186 C188 1.388 . S
C187 C186 1.366 . S
C187 C191 1.385 . S
C188 H169 0.951 . S
C188 C186 1.388 . S
C188 C189 1.366 . S
C189 C188 1.366 . S
C189 C190 1.414 . S
C189 C192 1.499 . S
C190 H170 0.950 . S
C190 C189 1.414 . S
C190 C191 1.374 . S
C191 H171 0.950 . S
C191 C187 1.385 . S
C191 C190 1.374 . S
C192 C189 1.499 . S
C192 C193 1.373 . S
C192 C194 1.389 . S
C193 H172 0.950 . S
C193 C192 1.373 . S
C193 C209 1.377 . S
C194 C192 1.389 . S
C194 C195 1.524 . S
C194 C208 1.377 . S
C195 C194 1.524 . S
C195 C196 1.397 . S
C195 C200 1.363 . S
C196 H173 0.950 . S
C196 C195 1.397 . S
C196 C197 1.334 . S
C197 H174 0.950 . S
C197 C196 1.334 . S
C197 C198 1.287 . S
C198 C197 1.287 . S
C198 C199 1.524 . S
C198 H217 0.913 . S
C199 H175 0.950 . S
C199 C198 1.524 . S
C199 C200 1.415 . S
C200 H176 0.950 . S
C200 C195 1.363 . S
C200 C199 1.415 . S
C201 H177 0.951 . S
C201 C202 1.366 . S
C201 C203 1.388 . S
C202 C201 1.366 . S
C202 C206 1.385 . S
C203 H178 0.951 . S
C203 C201 1.388 . S
C203 C204 1.366 . S
C204 C203 1.366 . S
C204 C205 1.414 . S
C204 C207 1.499 . S
C205 H179 0.950 . S
C205 C204 1.414 . S
C205 C206 1.374 . S
C206 H180 0.950 . S
C206 C202 1.385 . S
C206 C205 1.374 . S
C207 C204 1.499 . S
C207 C208 1.373 . S
C207 C209 1.389 . S
C208 H181 0.950 . S
C208 C194 1.377 . S
C208 C207 1.373 . S
C209 C193 1.377 . S
C209 C207 1.389 . S
C209 C210 1.524 . S
C210 C209 1.524 . S
C210 C211 1.397 . S
C210 C215 1.363 . S
C211 H182 0.950 . S
C211 C210 1.397 . S
C211 C212 1.334 . S
C212 H183 0.950 . S
C212 C211 1.334 . S
C212 C213 1.287 . S
C213 C212 1.287 . S
C213 C214 1.524 . S
C213 H216 0.999 . S
C214 H184 0.950 . S
C214 C213 1.524 . S
C214 C215 1.415 . S
C215 H185 0.950 . S
C215 C210 1.363 . S
C215 C214 1.415 . S
H216 C213 0.999 . S
H217 C198 0.913 . S
H218 C236 0.951 . S
H219 C238 0.951 . S
H220 C240 0.950 . S
H221 C241 0.950 . S
H222 C243 0.950 . S
H223 C246 0.950 . S
H224 C247 0.950 . S
H225 C249 0.950 . S
H226 C250 0.950 . S
H227 C251 0.951 . S
H228 C253 0.951 . S
H229 C255 0.950 . S
H230 C256 0.950 . S
H231 C258 0.950 . S
H232 C261 0.950 . S
H233 C262 0.950 . S
H234 C264 0.950 . S
H235 C265 0.950 . S
C236 H218 0.951 . S
C236 C237 1.366 . S
C236 C238 1.388 . S
C237 C236 1.366 . S
C237 C241 1.385 . S
C238 H219 0.951 . S
C238 C236 1.388 . S
C238 C239 1.366 . S
C239 C238 1.366 . S
C239 C240 1.414 . S
C239 C242 1.499 . S
C240 H220 0.950 . S
C240 C239 1.414 . S
C240 C241 1.374 . S
C241 H221 0.950 . S
C241 C237 1.385 . S
C241 C240 1.374 . S
C242 C239 1.499 . S
C242 C243 1.373 . S
C242 C244 1.389 . S
C243 H222 0.950 . S
C243 C242 1.373 . S
C243 C259 1.377 . S
C244 C242 1.389 . S
C244 C245 1.524 . S
C244 C258 1.377 . S
C245 C244 1.524 . S
C245 C246 1.397 . S
C245 C250 1.363 . S
C246 H223 0.950 . S
C246 C245 1.397 . S
C246 C247 1.334 . S
C247 H224 0.950 . S
C247 C246 1.334 . S
C247 C248 1.287 . S
C248 C247 1.287 . S
C248 C249 1.524 . S
C248 H267 0.913 . S
C249 H225 0.950 . S
C249 C248 1.524 . S
C249 C250 1.415 . S
C250 H226 0.950 . S
C250 C245 1.363 . S
C250 C249 1.415 . S
C251 H227 0.951 . S
C251 C252 1.366 . S
C251 C253 1.388 . S
C252 C251 1.366 . S
C252 C256 1.385 . S
C253 H228 0.951 . S
C253 C251 1.388 . S
C253 C254 1.366 . S
C254 C253 1.366 . S
C254 C255 1.414 . S
C254 C257 1.499 . S
C255 H229 0.950 . S
C255 C254 1.414 . S
C255 C256 1.374 . S
C256 H230 0.950 . S
C256 C252 1.385 . S
C256 C255 1.374 . S
C257 C254 1.499 . S
C257 C258 1.373 . S
C257 C259 1.389 . S
C258 H231 0.950 . S
C258 C244 1.377 . S
C258 C257 1.373 . S
C259 C243 1.377 . S
C259 C257 1.389 . S
C259 C260 1.524 . S
C260 C259 1.524 . S
C260 C261 1.397 . S
C260 C265 1.363 . S
C261 H232 0.950 . S
C261 C260 1.397 . S
C261 C262 1.334 . S
C262 H233 0.950 . S
C262 C261 1.334 . S
C262 C263 1.287 . S
C263 C262 1.287 . S
C263 C264 1.524 . S
C263 H266 0.999 . S
C264 H234 0.950 . S
C264 C263 1.524 . S
C264 C265 1.415 . S
C265 H235 0.950 . S
C265 C260 1.363 . S
C265 C264 1.415 . S
H266 C263 0.999 . S
H267 C248 0.913 . S
H268 C286 0.951 . S
H269 C288 0.951 . S
H270 C290 0.950 . S
H271 C291 0.950 . S
H272 C293 0.950 . S
H273 C296 0.950 . S
H274 C297 0.950 . S
H275 C299 0.950 . S
H276 C300 0.950 . S
H277 C301 0.951 . S
H278 C303 0.951 . S
H279 C305 0.950 . S
H280 C306 0.950 . S
H281 C308 0.950 . S
H282 C311 0.950 . S
H283 C312 0.950 . S
H284 C314 0.950 . S
H285 C315 0.950 . S
C286 H268 0.951 . S
C286 C287 1.366 . S
C286 C288 1.388 . S
C287 C286 1.366 . S
C287 C291 1.385 . S
C288 H269 0.951 . S
C288 C286 1.388 . S
C288 C289 1.366 . S
C289 C288 1.366 . S
C289 C290 1.414 . S
C289 C292 1.499 . S
C290 H270 0.950 . S
C290 C289 1.414 . S
C290 C291 1.374 . S
C291 H271 0.950 . S
C291 C287 1.385 . S
C291 C290 1.374 . S
C292 C289 1.499 . S
C292 C293 1.373 . S
C292 C294 1.389 . S
C293 H272 0.950 . S
C293 C292 1.373 . S
C293 C309 1.377 . S
C294 C292 1.389 . S
C294 C295 1.524 . S
C294 C308 1.377 . S
C295 C294 1.524 . S
C295 C296 1.397 . S
C295 C300 1.363 . S
C296 H273 0.950 . S
C296 C295 1.397 . S
C296 C297 1.334 . S
C297 H274 0.950 . S
C297 C296 1.334 . S
C297 C298 1.287 . S
C298 C297 1.287 . S
C298 C299 1.524 . S
C298 H317 0.913 . S
C299 H275 0.950 . S
C299 C298 1.524 . S
C299 C300 1.415 . S
C300 H276 0.950 . S
C300 C295 1.363 . S
C300 C299 1.415 . S
C301 H277 0.951 . S
C301 C302 1.366 . S
C301 C303 1.388 . S
C302 C301 1.366 . S
C302 C306 1.385 . S
C303 H278 0.951 . S
C303 C301 1.388 . S
C303 C304 1.366 . S
C304 C303 1.366 . S
C304 C305 1.414 . S
C304 C307 1.499 . S
C305 H279 0.950 . S
C305 C304 1.414 . S
C305 C306 1.374 . S
C306 H280 0.950 . S
C306 C302 1.385 . S
C306 C305 1.374 . S
C307 C304 1.499 . S
C307 C308 1.373 . S
C307 C309 1.389 . S
C308 H281 0.950 . S
C308 C294 1.377 . S
C308 C307 1.373 . S
C309 C293 1.377 . S
C309 C307 1.389 . S
C309 C310 1.524 . S
C310 C309 1.524 . S
C310 C311 1.397 . S
C310 C315 1.363 . S
C311 H282 0.950 . S
C311 C310 1.397 . S
C311 C312 1.334 . S
C312 H283 0.950 . S
C312 C311 1.334 . S
C312 C313 1.287 . S
C313 C312 1.287 . S
C313 C314 1.524 . S
C313 H316 0.999 . S
C314 H284 0.950 . S
C314 C313 1.524 . S
C314 C315 1.415 . S
C315 H285 0.950 . S
C315 C310 1.363 . S
C315 C314 1.415 . S
H316 C313 0.999 . S
H317 C298 0.913 . S
H318 C336 0.951 . S
H319 C338 0.951 . S
H320 C340 0.950 . S
H321 C341 0.950 . S
H322 C343 0.950 . S
H323 C346 0.950 . S
H324 C347 0.950 . S
H325 C349 0.950 . S
H326 C350 0.950 . S
H327 C351 0.951 . S
H328 C353 0.951 . S
H329 C355 0.950 . S
H330 C356 0.950 . S
H331 C358 0.950 . S
H332 C361 0.950 . S
H333 C362 0.950 . S
H334 C364 0.950 . S
H335 C365 0.950 . S
C336 H318 0.951 . S
C336 C337 1.366 . S
C336 C338 1.388 . S
C337 C336 1.366 . S
C337 C341 1.385 . S
C338 H319 0.951 . S
C338 C336 1.388 . S
C338 C339 1.366 . S
C339 C338 1.366 . S
C339 C340 1.414 . S
C339 C342 1.499 . S
C340 H320 0.950 . S
C340 C339 1.414 . S
C340 C341 1.374 . S
C341 H321 0.950 . S
C341 C337 1.385 . S
C341 C340 1.374 . S
C342 C339 1.499 . S
C342 C343 1.373 . S
C342 C344 1.389 . S
C343 H322 0.950 . S
C343 C342 1.373 . S
C343 C359 1.377 . S
C344 C342 1.389 . S
C344 C345 1.524 . S
C344 C358 1.377 . S
C345 C344 1.524 . S
C345 C346 1.397 . S
C345 C350 1.363 . S
C346 H323 0.950 . S
C346 C345 1.397 . S
C346 C347 1.334 . S
C347 H324 0.950 . S
C347 C346 1.334 . S
C347 C348 1.287 . S
C348 C347 1.287 . S
C348 C349 1.524 . S
C348 H367 0.913 . S
C349 H325 0.950 . S
C349 C348 1.524 . S
C349 C350 1.415 . S
C350 H326 0.950 . S
C350 C345 1.363 . S
C350 C349 1.415 . S
C351 H327 0.951 . S
C351 C352 1.366 . S
C351 C353 1.388 . S
C352 C351 1.366 . S
C352 C356 1.385 . S
C353 H328 0.951 . S
C353 C351 1.388 . S
C353 C354 1.366 . S
C354 C353 1.366 . S
C354 C355 1.414 . S
C354 C357 1.499 . S
C355 H329 0.950 . S
C355 C354 1.414 . S
C355 C356 1.374 . S
C356 H330 0.950 . S
C356 C352 1.385 . S
C356 C355 1.374 . S
C357 C354 1.499 . S
C357 C358 1.373 . S
C357 C359 1.389 . S
C358 H331 0.950 . S
C358 C344 1.377 . S
C358 C357 1.373 . S
C359 C343 1.377 . S
C359 C357 1.389 . S
C359 C360 1.524 . S
C360 C359 1.524 . S
C360 C361 1.397 . S
C360 C365 1.363 . S
C361 H332 0.950 . S
C361 C360 1.397 . S
C361 C362 1.334 . S
C362 H333 0.950 . S
C362 C361 1.334 . S
C362 C363 1.287 . S
C363 C362 1.287 . S
C363 C364 1.524 . S
C363 H366 0.999 . S
C364 H334 0.950 . S
C364 C363 1.524 . S
C364 C365 1.415 . S
C365 H335 0.950 . S
C365 C360 1.363 . S
C365 C364 1.415 . S
H366 C363 0.999 . S
H367 C348 0.913 . S
H368 C386 0.951 . S
H369 C388 0.951 . S
H370 C390 0.950 . S
H371 C391 0.950 . S
H372 C393 0.950 1_554 S
H373 C396 0.950 . S
H374 C397 0.950 . S
H375 C399 0.950 . S
H376 C400 0.950 . S
H377 C401 0.951 . S
H378 C403 0.951 . S
H379 C405 0.950 . S
H380 C406 0.950 . S
H381 C408 0.950 . S
H382 C411 0.950 . S
H383 C412 0.950 . S
H384 C414 0.950 . S
H385 C415 0.950 . S
C386 H368 0.951 . S
C386 C387 1.366 . S
C386 C388 1.388 . S
C387 C386 1.366 . S
C387 C391 1.385 . S
C388 H369 0.951 . S
C388 C386 1.388 . S
C388 C389 1.366 . S
C389 C388 1.366 . S
C389 C390 1.414 . S
C389 C392 1.499 1_554 S
C390 H370 0.950 . S
C390 C389 1.414 . S
C390 C391 1.374 . S
C391 H371 0.950 . S
C391 C387 1.385 . S
C391 C390 1.374 . S
C392 C389 1.499 1_556 S
C392 C393 1.373 . S
C392 C394 1.389 . S
C393 H372 0.950 1_556 S
C393 C392 1.373 . S
C393 C409 1.377 . S
C394 C392 1.389 . S
C394 C395 1.524 . S
C394 C408 1.377 . S
C395 C394 1.524 . S
C395 C396 1.397 . S
C395 C400 1.363 . S
C396 H373 0.950 . S
C396 C395 1.397 . S
C396 C397 1.334 . S
C397 H374 0.950 . S
C397 C396 1.334 . S
C397 C398 1.287 . S
C398 C397 1.287 . S
C398 C399 1.524 . S
C398 H417 0.913 . S
C399 H375 0.950 . S
C399 C398 1.524 . S
C399 C400 1.415 . S
C400 H376 0.950 . S
C400 C395 1.363 . S
C400 C399 1.415 . S
C401 H377 0.951 . S
C401 C402 1.366 . S
C401 C403 1.388 . S
C402 C401 1.366 . S
C402 C406 1.385 . S
C403 H378 0.951 . S
C403 C401 1.388 . S
C403 C404 1.366 . S
C404 C403 1.366 . S
C404 C405 1.414 . S
C404 C407 1.499 . S
C405 H379 0.950 . S
C405 C404 1.414 . S
C405 C406 1.374 . S
C406 H380 0.950 . S
C406 C402 1.385 . S
C406 C405 1.374 . S
C407 C404 1.499 . S
C407 C408 1.373 . S
C407 C409 1.389 . S
C408 H381 0.950 . S
C408 C394 1.377 . S
C408 C407 1.373 . S
C409 C393 1.377 . S
C409 C407 1.389 . S
C409 C410 1.524 . S
C410 C409 1.524 . S
C410 C411 1.397 . S
C410 C415 1.363 . S
C411 H382 0.950 . S
C411 C410 1.397 . S
C411 C412 1.334 . S
C412 H383 0.950 . S
C412 C411 1.334 . S
C412 C413 1.287 . S
C413 C412 1.287 . S
C413 C414 1.524 . S
C413 H416 0.999 . S
C414 H384 0.950 . S
C414 C413 1.524 . S
C414 C415 1.415 . S
C415 H385 0.950 . S
C415 C410 1.363 . S
C415 C414 1.415 . S
H416 C413 0.999 . S
H417 C398 0.913 . S
H418 C436 0.951 . S
H419 C438 0.951 . S
H420 C440 0.950 . S
H421 C441 0.950 . S
H422 C443 0.950 . S
H423 C446 0.950 . S
H424 C447 0.950 . S
H425 C449 0.950 . S
H426 C450 0.950 . S
H427 C451 0.951 . S
H428 C453 0.951 . S
H429 C455 0.950 . S
H430 C456 0.950 . S
H431 C458 0.950 . S
H432 C461 0.950 . S
H433 C462 0.950 . S
H434 C464 0.950 . S
H435 C465 0.950 . S
C436 H418 0.951 . S
C436 C437 1.366 . S
C436 C438 1.388 . S
C437 C436 1.366 . S
C437 C441 1.385 . S
C438 H419 0.951 . S
C438 C436 1.388 . S
C438 C439 1.366 . S
C439 C438 1.366 . S
C439 C440 1.414 . S
C439 C442 1.499 . S
C440 H420 0.950 . S
C440 C439 1.414 . S
C440 C441 1.374 . S
C441 H421 0.950 . S
C441 C437 1.385 . S
C441 C440 1.374 . S
C442 C439 1.499 . S
C442 C443 1.373 . S
C442 C444 1.389 . S
C443 H422 0.950 . S
C443 C442 1.373 . S
C443 C459 1.377 . S
C444 C442 1.389 . S
C444 C445 1.524 . S
C444 C458 1.377 . S
C445 C444 1.524 . S
C445 C446 1.397 . S
C445 C450 1.363 . S
C446 H423 0.950 . S
C446 C445 1.397 . S
C446 C447 1.334 . S
C447 H424 0.950 . S
C447 C446 1.334 . S
C447 C448 1.287 . S
C448 C447 1.287 . S
C448 C449 1.524 . S
C448 H467 0.913 . S
C449 H425 0.950 . S
C449 C448 1.524 . S
C449 C450 1.415 . S
C450 H426 0.950 . S
C450 C445 1.363 . S
C450 C449 1.415 . S
C451 H427 0.951 . S
C451 C452 1.366 1_554 S
C451 C453 1.388 . S
C452 C451 1.366 1_556 S
C452 C456 1.385 . S
C453 H428 0.951 . S
C453 C451 1.388 . S
C453 C454 1.366 . S
C454 C453 1.366 . S
C454 C455 1.414 . S
C454 C457 1.499 . S
C455 H429 0.950 . S
C455 C454 1.414 . S
C455 C456 1.374 1_554 S
C456 H430 0.950 . S
C456 C452 1.385 . S
C456 C455 1.374 1_556 S
C457 C454 1.499 . S
C457 C458 1.373 . S
C457 C459 1.389 . S
C458 H431 0.950 . S
C458 C444 1.377 . S
C458 C457 1.373 . S
C459 C443 1.377 . S
C459 C457 1.389 . S
C459 C460 1.524 . S
C460 C459 1.524 . S
C460 C461 1.397 . S
C460 C465 1.363 . S
C461 H432 0.950 . S
C461 C460 1.397 . S
C461 C462 1.334 . S
C462 H433 0.950 . S
C462 C461 1.334 . S
C462 C463 1.287 . S
C463 C462 1.287 . S
C463 C464 1.524 . S
C463 H466 0.999 . S
C464 H434 0.950 . S
C464 C463 1.524 . S
C464 C465 1.415 . S
C465 H435 0.950 . S
C465 C460 1.363 . S
C465 C464 1.415 . S
H466 C463 0.999 . S
H467 C448 0.913 . S
H468 C486 0.951 . S
H469 C488 0.951 . S
H470 C490 0.950 . S
H471 C491 0.950 . S
H472 C493 0.950 . S
H473 C496 0.950 . S
H474 C497 0.950 . S
H475 C499 0.950 1_556 S
H476 C500 0.950 . S
H477 C501 0.951 . S
H478 C503 0.951 . S
H479 C505 0.950 . S
H480 C506 0.950 . S
H481 C508 0.950 . S
H482 C511 0.950 . S
H483 C512 0.950 . S
H484 C514 0.950 . S
H485 C515 0.950 . S
C486 H468 0.951 . S
C486 C487 1.366 . S
C486 C488 1.388 . S
C487 C486 1.366 . S
C487 C491 1.385 . S
C488 H469 0.951 . S
C488 C486 1.388 . S
C488 C489 1.366 . S
C489 C488 1.366 . S
C489 C490 1.414 . S
C489 C492 1.499 . S
C490 H470 0.950 . S
C490 C489 1.414 . S
C490 C491 1.374 . S
C491 H471 0.950 . S
C491 C487 1.385 . S
C491 C490 1.374 . S
C492 C489 1.499 . S
C492 C493 1.373 . S
C492 C494 1.389 . S
C493 H472 0.950 . S
C493 C492 1.373 . S
C493 C509 1.377 . S
C494 C492 1.389 . S
C494 C495 1.524 . S
C494 C508 1.377 . S
C495 C494 1.524 . S
C495 C496 1.397 . S
C495 C500 1.363 . S
C496 H473 0.950 . S
C496 C495 1.397 . S
C496 C497 1.334 . S
C497 H474 0.950 . S
C497 C496 1.334 . S
C497 C498 1.287 . S
C498 C497 1.287 . S
C498 C499 1.524 . S
C498 H517 0.913 . S
C499 H475 0.950 1_554 S
C499 C498 1.524 . S
C499 C500 1.415 . S
C500 H476 0.950 . S
C500 C495 1.363 . S
C500 C499 1.415 . S
C501 H477 0.951 . S
C501 C502 1.366 . S
C501 C503 1.388 . S
C502 C501 1.366 . S
C502 C506 1.385 . S
C503 H478 0.951 . S
C503 C501 1.388 . S
C503 C504 1.366 . S
C504 C503 1.366 . S
C504 C505 1.414 . S
C504 C507 1.499 . S
C505 H479 0.950 . S
C505 C504 1.414 . S
C505 C506 1.374 . S
C506 H480 0.950 . S
C506 C502 1.385 . S
C506 C505 1.374 . S
C507 C504 1.499 . S
C507 C508 1.373 . S
C507 C509 1.389 . S
C508 H481 0.950 . S
C508 C494 1.377 . S
C508 C507 1.373 . S
C509 C493 1.377 . S
C509 C507 1.389 . S
C509 C510 1.524 . S
C510 C509 1.524 . S
C510 C511 1.397 . S
C510 C515 1.363 . S
C511 H482 0.950 . S
C511 C510 1.397 . S
C511 C512 1.334 . S
C512 H483 0.950 . S
C512 C511 1.334 . S
C512 C513 1.287 . S
C513 C512 1.287 . S
C513 C514 1.524 . S
C513 H516 0.999 . S
C514 H484 0.950 . S
C514 C513 1.524 . S
C514 C515 1.415 . S
C515 H485 0.950 . S
C515 C510 1.363 . S
C515 C514 1.415 . S
H516 C513 0.999 . S
H517 C498 0.913 . S
H518 C536 0.951 . S
H519 C538 0.951 . S
H520 C540 0.950 . S
H521 C541 0.950 . S
H522 C543 0.950 . S
H523 C546 0.950 . S
H524 C547 0.950 . S
H525 C549 0.950 . S
H526 C550 0.950 . S
H527 C551 0.951 . S
H528 C553 0.951 . S
H529 C555 0.950 . S
H530 C556 0.950 . S
H531 C558 0.950 . S
H532 C561 0.950 . S
H533 C562 0.950 . S
H534 C564 0.950 . S
H535 C565 0.950 . S
C536 H518 0.951 . S
C536 C537 1.366 . S
C536 C538 1.388 . S
C537 C536 1.366 . S
C537 C541 1.385 . S
C538 H519 0.951 . S
C538 C536 1.388 . S
C538 C539 1.366 . S
C539 C538 1.366 . S
C539 C540 1.414 . S
C539 C542 1.499 . S
C540 H520 0.950 . S
C540 C539 1.414 . S
C540 C541 1.374 . S
C541 H521 0.950 . S
C541 C537 1.385 . S
C541 C540 1.374 . S
C542 C539 1.499 . S
C542 C543 1.373 . S
C542 C544 1.389 . S
C543 H522 0.950 . S
C543 C542 1.373 . S
C543 C559 1.377 . S
C544 C542 1.389 . S
C544 C545 1.524 . S
C544 C558 1.377 . S
C545 C544 1.524 . S
C545 C546 1.397 . S
C545 C550 1.363 . S
C546 H523 0.950 . S
C546 C545 1.397 . S
C546 C547 1.334 . S
C547 H524 0.950 . S
C547 C546 1.334 . S
C547 C548 1.287 . S
C548 C547 1.287 . S
C548 C549 1.524 . S
C548 H567 0.913 . S
C549 H525 0.950 . S
C549 C548 1.524 . S
C549 C550 1.415 . S
C550 H526 0.950 . S
C550 C545 1.363 . S
C550 C549 1.415 . S
C551 H527 0.951 . S
C551 C552 1.366 . S
C551 C553 1.388 . S
C552 C551 1.366 . S
C552 C556 1.385 . S
C553 H528 0.951 . S
C553 C551 1.388 . S
C553 C554 1.366 . S
C554 C553 1.366 . S
C554 C555 1.414 . S
C554 C557 1.499 . S
C555 H529 0.950 . S
C555 C554 1.414 . S
C555 C556 1.374 . S
C556 H530 0.950 . S
C556 C552 1.385 . S
C556 C555 1.374 . S
C557 C554 1.499 . S
C557 C558 1.373 . S
C557 C559 1.389 . S
C558 H531 0.950 . S
C558 C544 1.377 . S
C558 C557 1.373 . S
C559 C543 1.377 . S
C559 C557 1.389 . S
C559 C560 1.524 . S
C560 C559 1.524 . S
C560 C561 1.397 . S
C560 C565 1.363 . S
C561 H532 0.950 . S
C561 C560 1.397 . S
C561 C562 1.334 . S
C562 H533 0.950 . S
C562 C561 1.334 . S
C562 C563 1.287 . S
C563 C562 1.287 . S
C563 C564 1.524 . S
C563 H566 0.999 . S
C564 H534 0.950 . S
C564 C563 1.524 . S
C564 C565 1.415 . S
C565 H535 0.950 . S
C565 C560 1.363 . S
C565 C564 1.415 . S
H566 C563 0.999 . S
H567 C548 0.913 . S
H568 C586 0.951 . S
H569 C588 0.951 . S
H570 C590 0.950 . S
H571 C591 0.950 . S
H572 C593 0.950 . S
H573 C596 0.950 . S
H574 C597 0.950 . S
H575 C599 0.950 . S
H576 C600 0.950 . S
H577 C601 0.951 . S
H578 C603 0.951 . S
H579 C605 0.950 . S
H580 C606 0.950 . S
H581 C608 0.950 . S
H582 C611 0.950 . S
H583 C612 0.950 . S
H584 C614 0.950 . S
H585 C615 0.950 . S
C586 H568 0.951 . S
C586 C587 1.366 . S
C586 C588 1.388 . S
C587 C586 1.366 . S
C587 C591 1.385 . S
C588 H569 0.951 . S
C588 C586 1.388 . S
C588 C589 1.366 . S
C589 C588 1.366 . S
C589 C590 1.414 . S
C589 C592 1.499 . S
C590 H570 0.950 . S
C590 C589 1.414 . S
C590 C591 1.374 . S
C591 H571 0.950 . S
C591 C587 1.385 . S
C591 C590 1.374 . S
C592 C589 1.499 . S
C592 C593 1.373 . S
C592 C594 1.389 . S
C593 H572 0.950 . S
C593 C592 1.373 . S
C593 C609 1.377 . S
C594 C592 1.389 . S
C594 C595 1.524 . S
C594 C608 1.377 . S
C595 C594 1.524 . S
C595 C596 1.397 . S
C595 C600 1.363 . S
C596 H573 0.950 . S
C596 C595 1.397 . S
C596 C597 1.334 . S
C597 H574 0.950 . S
C597 C596 1.334 . S
C597 C598 1.287 . S
C598 C597 1.287 . S
C598 C599 1.524 . S
C598 H617 0.913 . S
C599 H575 0.950 . S
C599 C598 1.524 . S
C599 C600 1.415 . S
C600 H576 0.950 . S
C600 C595 1.363 . S
C600 C599 1.415 . S
C601 H577 0.951 . S
C601 C602 1.366 . S
C601 C603 1.388 . S
C602 C601 1.366 . S
C602 C606 1.385 . S
C603 H578 0.951 . S
C603 C601 1.388 . S
C603 C604 1.366 . S
C604 C603 1.366 . S
C604 C605 1.414 . S
C604 C607 1.499 . S
C605 H579 0.950 . S
C605 C604 1.414 . S
C605 C606 1.374 . S
C606 H580 0.950 . S
C606 C602 1.385 . S
C606 C605 1.374 . S
C607 C604 1.499 . S
C607 C608 1.373 . S
C607 C609 1.389 . S
C608 H581 0.950 . S
C608 C594 1.377 . S
C608 C607 1.373 . S
C609 C593 1.377 . S
C609 C607 1.389 . S
C609 C610 1.524 . S
C610 C609 1.524 . S
C610 C611 1.397 . S
C610 C615 1.363 . S
C611 H582 0.950 . S
C611 C610 1.397 . S
C611 C612 1.334 . S
C612 H583 0.950 . S
C612 C611 1.334 . S
C612 C613 1.287 . S
C613 C612 1.287 . S
C613 C614 1.524 . S
C613 H616 0.999 . S
C614 H584 0.950 . S
C614 C613 1.524 . S
C614 C615 1.415 . S
C615 H585 0.950 . S
C615 C610 1.363 . S
C615 C614 1.415 . S
H616 C613 0.999 . S
H617 C598 0.913 . S
H618 C636 0.951 . S
H619 C638 0.951 . S
H620 C640 0.950 . S
H621 C641 0.950 . S
H622 C643 0.950 . S
H623 C646 0.950 . S
H624 C647 0.950 . S
H625 C649 0.950 . S
H626 C650 0.950 . S
H627 C651 0.951 . S
H628 C653 0.951 . S
H629 C655 0.950 . S
H630 C656 0.950 . S
H631 C658 0.950 . S
H632 C661 0.950 . S
H633 C662 0.950 . S
H634 C664 0.950 . S
H635 C665 0.950 . S
C636 H618 0.951 . S
C636 C637 1.366 . S
C636 C638 1.388 . S
C637 C636 1.366 . S
C637 C641 1.385 . S
C638 H619 0.951 . S
C638 C636 1.388 . S
C638 C639 1.366 . S
C639 C638 1.366 . S
C639 C640 1.414 . S
C639 C642 1.499 . S
C640 H620 0.950 . S
C640 C639 1.414 . S
C640 C641 1.374 . S
C641 H621 0.950 . S
C641 C637 1.385 . S
C641 C640 1.374 . S
C642 C639 1.499 . S
C642 C643 1.373 . S
C642 C644 1.389 . S
C643 H622 0.950 . S
C643 C642 1.373 . S
C643 C659 1.377 . S
C644 C642 1.389 . S
C644 C645 1.524 . S
C644 C658 1.377 . S
C645 C644 1.524 . S
C645 C646 1.397 . S
C645 C650 1.363 . S
C646 H623 0.950 . S
C646 C645 1.397 . S
C646 C647 1.334 . S
C647 H624 0.950 . S
C647 C646 1.334 . S
C647 C648 1.287 . S
C648 C647 1.287 . S
C648 C649 1.524 . S
C648 H667 0.913 . S
C649 H625 0.950 . S
C649 C648 1.524 . S
C649 C650 1.415 . S
C650 H626 0.950 . S
C650 C645 1.363 . S
C650 C649 1.415 . S
C651 H627 0.951 . S
C651 C652 1.366 . S
C651 C653 1.388 . S
C652 C651 1.366 . S
C652 C656 1.385 . S
C653 H628 0.951 . S
C653 C651 1.388 . S
C653 C654 1.366 . S
C654 C653 1.366 . S
C654 C655 1.414 . S
C654 C657 1.499 . S
C655 H629 0.950 . S
C655 C654 1.414 . S
C655 C656 1.374 . S
C656 H630 0.950 . S
C656 C652 1.385 . S
C656 C655 1.374 . S
C657 C654 1.499 . S
C657 C658 1.373 . S
C657 C659 1.389 . S
C658 H631 0.950 . S
C658 C644 1.377 . S
C658 C657 1.373 . S
C659 C643 1.377 . S
C659 C657 1.389 . S
C659 C660 1.524 . S
C660 C659 1.524 . S
C660 C661 1.397 . S
C660 C665 1.363 . S
C661 H632 0.950 . S
C661 C660 1.397 . S
C661 C662 1.334 . S
C662 H633 0.950 . S
C662 C661 1.334 . S
C662 C663 1.287 . S
C663 C662 1.287 . S
C663 C664 1.524 . S
C663 H666 0.999 . S
C664 H634 0.950 . S
C664 C663 1.524 . S
C664 C665 1.415 . S
C665 H635 0.950 . S
C665 C660 1.363 . S
C665 C664 1.415 . S
H666 C663 0.999 . S
H667 C648 0.913 . S
H668 C686 0.951 . S
H669 C688 0.951 . S
H670 C690 0.950 . S
H671 C691 0.950 . S
H672 C693 0.950 . S
H673 C696 0.950 . S
H674 C697 0.950 . S
H675 C699 0.950 . S
H676 C700 0.950 . S
H677 C701 0.951 . S
H678 C703 0.951 . S
H679 C705 0.950 . S
H680 C706 0.950 . S
H681 C708 0.950 . S
H682 C711 0.950 . S
H683 C712 0.950 . S
H684 C714 0.950 . S
H685 C715 0.950 . S
C686 H668 0.951 . S
C686 C687 1.366 . S
C686 C688 1.388 . S
C687 C686 1.366 . S
C687 C691 1.385 . S
C688 H669 0.951 . S
C688 C686 1.388 . S
C688 C689 1.366 . S
C689 C688 1.366 . S
C689 C690 1.414 . S
C689 C692 1.499 . S
C690 H670 0.950 . S
C690 C689 1.414 . S
C690 C691 1.374 . S
C691 H671 0.950 . S
C691 C687 1.385 . S
C691 C690 1.374 . S
C692 C689 1.499 . S
C692 C693 1.373 . S
C692 C694 1.389 . S
C693 H672 0.950 . S
C693 C692 1.373 . S
C693 C709 1.377 . S
C694 C692 1.389 . S
C694 C695 1.524 . S
C694 C708 1.377 . S
C695 C694 1.524 . S
C695 C696 1.397 . S
C695 C700 1.363 . S
C696 H673 0.950 . S
C696 C695 1.397 . S
C696 C697 1.334 . S
C697 H674 0.950 . S
C697 C696 1.334 . S
C697 C698 1.287 . S
C698 C697 1.287 . S
C698 C699 1.524 . S
C698 H717 0.913 . S
C699 H675 0.950 . S
C699 C698 1.524 . S
C699 C700 1.415 . S
C700 H676 0.950 . S
C700 C695 1.363 . S
C700 C699 1.415 . S
C701 H677 0.951 . S
C701 C702 1.366 . S
C701 C703 1.388 . S
C702 C701 1.366 . S
C702 C706 1.385 . S
C703 H678 0.951 . S
C703 C701 1.388 . S
C703 C704 1.366 . S
C704 C703 1.366 . S
C704 C705 1.414 . S
C704 C707 1.499 . S
C705 H679 0.950 . S
C705 C704 1.414 . S
C705 C706 1.374 . S
C706 H680 0.950 . S
C706 C702 1.385 . S
C706 C705 1.374 . S
C707 C704 1.499 . S
C707 C708 1.373 . S
C707 C709 1.389 . S
C708 H681 0.950 . S
C708 C694 1.377 . S
C708 C707 1.373 . S
C709 C693 1.377 . S
C709 C707 1.389 . S
C709 C710 1.524 . S
C710 C709 1.524 . S
C710 C711 1.397 . S
C710 C715 1.363 . S
C711 H682 0.950 . S
C711 C710 1.397 . S
C711 C712 1.334 . S
C712 H683 0.950 . S
C712 C711 1.334 . S
C712 C713 1.287 . S
C713 C712 1.287 . S
C713 C714 1.524 . S
C713 H716 0.999 . S
C714 H684 0.950 . S
C714 C713 1.524 . S
C714 C715 1.415 . S
C715 H685 0.950 . S
C715 C710 1.363 . S
C715 C714 1.415 . S
H716 C713 0.999 . S
H717 C698 0.913 . S
H718 C736 0.951 . S
H719 C738 0.951 . S
H720 C740 0.950 . S
H721 C741 0.950 . S
H722 C743 0.950 . S
H723 C746 0.950 . S
H724 C747 0.950 . S
H725 C749 0.950 . S
H726 C750 0.950 . S
H727 C751 0.951 . S
H728 C753 0.951 . S
H729 C755 0.950 . S
H730 C756 0.950 . S
H731 C758 0.950 1_554 S
H732 C761 0.950 . S
H733 C762 0.950 . S
H734 C764 0.950 . S
H735 C765 0.950 . S
C736 H718 0.951 . S
C736 C737 1.366 . S
C736 C738 1.388 . S
C737 C736 1.366 . S
C737 C741 1.385 . S
C738 H719 0.951 . S
C738 C736 1.388 . S
C738 C739 1.366 . S
C739 C738 1.366 . S
C739 C740 1.414 . S
C739 C742 1.499 . S
C740 H720 0.950 . S
C740 C739 1.414 . S
C740 C741 1.374 . S
C741 H721 0.950 . S
C741 C737 1.385 . S
C741 C740 1.374 . S
C742 C739 1.499 . S
C742 C743 1.373 . S
C742 C744 1.389 . S
C743 H722 0.950 . S
C743 C742 1.373 . S
C743 C759 1.377 . S
C744 C742 1.389 . S
C744 C745 1.524 . S
C744 C758 1.377 . S
C745 C744 1.524 . S
C745 C746 1.397 . S
C745 C750 1.363 1_556 S
C746 H723 0.950 . S
C746 C745 1.397 . S
C746 C747 1.334 . S
C747 H724 0.950 . S
C747 C746 1.334 . S
C747 C748 1.287 1_556 S
C748 C747 1.287 1_554 S
C748 C749 1.524 . S
C748 H767 0.913 . S
C749 H725 0.950 . S
C749 C748 1.524 . S
C749 C750 1.415 . S
C750 H726 0.950 . S
C750 C745 1.363 1_554 S
C750 C749 1.415 . S
C751 H727 0.951 . S
C751 C752 1.366 1_556 S
C751 C753 1.388 . S
C752 C751 1.366 1_554 S
C752 C756 1.385 . S
C753 H728 0.951 . S
C753 C751 1.388 . S
C753 C754 1.366 . S
C754 C753 1.366 . S
C754 C755 1.414 1_556 S
C754 C757 1.499 . S
C755 H729 0.950 . S
C755 C754 1.414 1_554 S
C755 C756 1.374 . S
C756 H730 0.950 . S
C756 C752 1.385 . S
C756 C755 1.374 . S
C757 C754 1.499 . S
C757 C758 1.373 . S
C757 C759 1.389 . S
C758 H731 0.950 1_556 S
C758 C744 1.377 . S
C758 C757 1.373 . S
C759 C743 1.377 . S
C759 C757 1.389 . S
C759 C760 1.524 . S
C760 C759 1.524 . S
C760 C761 1.397 . S
C760 C765 1.363 . S
C761 H732 0.950 . S
C761 C760 1.397 . S
C761 C762 1.334 . S
C762 H733 0.950 . S
C762 C761 1.334 . S
C762 C763 1.287 . S
C763 C762 1.287 . S
C763 C764 1.524 . S
C763 H766 0.999 . S
C764 H734 0.950 . S
C764 C763 1.524 . S
C764 C765 1.415 . S
C765 H735 0.950 . S
C765 C760 1.363 . S
C765 C764 1.415 . S
H766 C763 0.999 . S
H767 C748 0.913 . S
H768 C786 0.951 . S
H769 C788 0.951 . S
H770 C790 0.950 . S
H771 C791 0.950 . S
H772 C793 0.950 . S
H773 C796 0.950 . S
H774 C797 0.950 . S
H775 C799 0.950 . S
H776 C800 0.950 . S
H777 C801 0.951 . S
H778 C803 0.951 . S
H779 C805 0.950 . S
H780 C806 0.950 . S
H781 C808 0.950 . S
H782 C811 0.950 . S
H783 C812 0.950 . S
H784 C814 0.950 . S
H785 C815 0.950 . S
C786 H768 0.951 . S
C786 C787 1.366 . S
C786 C788 1.388 . S
C787 C786 1.366 . S
C787 C791 1.385 . S
C788 H769 0.951 . S
C788 C786 1.388 . S
C788 C789 1.366 . S
C789 C788 1.366 . S
C789 C790 1.414 . S
C789 C792 1.499 . S
C790 H770 0.950 . S
C790 C789 1.414 . S
C790 C791 1.374 . S
C791 H771 0.950 . S
C791 C787 1.385 . S
C791 C790 1.374 . S
C792 C789 1.499 . S
C792 C793 1.373 . S
C792 C794 1.389 . S
C793 H772 0.950 . S
C793 C792 1.373 . S
C793 C809 1.377 . S
C794 C792 1.389 . S
C794 C795 1.524 . S
C794 C808 1.377 . S
C795 C794 1.524 . S
C795 C796 1.397 . S
C795 C800 1.363 . S
C796 H773 0.950 . S
C796 C795 1.397 . S
C796 C797 1.334 . S
C797 H774 0.950 . S
C797 C796 1.334 . S
C797 C798 1.287 . S
C798 C797 1.287 . S
C798 C799 1.524 . S
C798 H817 0.913 . S
C799 H775 0.950 . S
C799 C798 1.524 . S
C799 C800 1.415 . S
C800 H776 0.950 . S
C800 C795 1.363 . S
C800 C799 1.415 . S
C801 H777 0.951 . S
C801 C802 1.366 . S
C801 C803 1.388 . S
C802 C801 1.366 . S
C802 C806 1.385 . S
C803 H778 0.951 . S
C803 C801 1.388 . S
C803 C804 1.366 . S
C804 C803 1.366 . S
C804 C805 1.414 . S
C804 C807 1.499 . S
C805 H779 0.950 . S
C805 C804 1.414 . S
C805 C806 1.374 . S
C806 H780 0.950 . S
C806 C802 1.385 . S
C806 C805 1.374 . S
C807 C804 1.499 . S
C807 C808 1.373 . S
C807 C809 1.389 . S
C808 H781 0.950 . S
C808 C794 1.377 . S
C808 C807 1.373 . S
C809 C793 1.377 . S
C809 C807 1.389 . S
C809 C810 1.524 . S
C810 C809 1.524 . S
C810 C811 1.397 . S
C810 C815 1.363 . S
C811 H782 0.950 . S
C811 C810 1.397 . S
C811 C812 1.334 . S
C812 H783 0.950 . S
C812 C811 1.334 . S
C812 C813 1.287 . S
C813 C812 1.287 . S
C813 C814 1.524 . S
C813 H816 0.999 . S
C814 H784 0.950 . S
C814 C813 1.524 . S
C814 C815 1.415 . S
C815 H785 0.950 . S
C815 C810 1.363 . S
C815 C814 1.415 . S
H816 C813 0.999 . S
H817 C798 0.913 . S
H818 C836 0.951 . S
H819 C838 0.951 . S
H820 C840 0.950 . S
H821 C841 0.950 . S
H822 C843 0.950 . S
H823 C846 0.950 . S
H824 C847 0.950 . S
H825 C849 0.950 1_554 S
H826 C850 0.944 1_554 S
H827 C851 0.951 . S
H828 C853 0.951 . S
H829 C855 0.950 . S
H830 C856 0.950 . S
H831 C858 0.950 1_554 S
H832 C861 0.950 . S
H833 C862 0.950 . S
H834 C864 0.950 . S
H835 C865 0.950 . S
C836 H818 0.951 . S
C836 C837 1.366 . S
C836 C838 1.388 . S
C837 C836 1.366 . S
C837 C841 1.385 . S
C838 H819 0.951 . S
C838 C836 1.388 . S
C838 C839 1.366 . S
C839 C838 1.366 . S
C839 C840 1.414 . S
C839 C842 1.499 . S
C840 H820 0.950 . S
C840 C839 1.414 . S
C840 C841 1.374 . S
C841 H821 0.950 . S
C841 C837 1.385 . S
C841 C840 1.374 . S
C842 C839 1.499 . S
C842 C843 1.373 . S
C842 C844 1.389 . S
C843 H822 0.950 . S
C843 C842 1.373 . S
C843 C859 1.377 . S
C844 C842 1.389 . S
C844 C845 1.524 . S
C844 C858 1.377 . S
C845 C844 1.524 . S
C845 C846 1.397 . S
C845 C850 1.363 . S
C846 H823 0.950 . S
C846 C845 1.397 . S
C846 C847 1.334 . S
C847 H824 0.950 . S
C847 C846 1.334 . S
C847 C848 1.287 . S
C848 C847 1.287 . S
C848 C849 1.524 . S
C848 H867 0.913 . S
C849 H825 0.950 1_556 S
C849 C848 1.524 . S
C849 C850 1.415 . S
C850 H826 0.944 1_556 S
C850 C845 1.363 . S
C850 C849 1.415 . S
C851 H827 0.951 . S
C851 C852 1.366 . S
C851 C853 1.388 . S
C852 C851 1.366 . S
C852 C856 1.385 . S
C853 H828 0.951 . S
C853 C851 1.388 . S
C853 C854 1.366 . S
C854 C853 1.366 . S
C854 C855 1.414 . S
C854 C857 1.499 1_554 S
C855 H829 0.950 . S
C855 C854 1.414 . S
C855 C856 1.374 . S
C856 H830 0.950 . S
C856 C852 1.385 . S
C856 C855 1.374 . S
C857 C854 1.499 1_556 S
C857 C858 1.373 . S
C857 C859 1.389 . S
C858 H831 0.950 1_556 S
C858 C844 1.377 . S
C858 C857 1.373 . S
C859 C843 1.377 . S
C859 C857 1.389 . S
C859 C860 1.524 . S
C860 C859 1.524 . S
C860 C861 1.397 . S
C860 C865 1.363 . S
C861 H832 0.950 . S
C861 C860 1.397 . S
C861 C862 1.334 . S
C862 H833 0.950 . S
C862 C861 1.334 . S
C862 C863 1.287 . S
C863 C862 1.287 . S
C863 C864 1.524 . S
C863 H866 0.999 . S
C864 H834 0.950 . S
C864 C863 1.524 . S
C864 C865 1.415 . S
C865 H835 0.950 . S
C865 C860 1.363 . S
C865 C864 1.415 . S
H866 C863 0.999 . S
H867 C848 0.913 . S
H868 C886 0.951 . S
H869 C888 0.951 . S
H870 C890 0.950 . S
H871 C891 0.950 . S
H872 C893 0.950 . S
H873 C896 0.950 . S
H874 C897 0.950 . S
H875 C899 0.950 . S
H876 C900 0.950 . S
H877 C901 0.951 . S
H878 C903 0.951 . S
H879 C905 0.950 . S
H880 C906 0.950 . S
H881 C908 0.950 . S
H882 C911 0.950 . S
H883 C912 0.950 . S
H884 C914 0.950 . S
H885 C915 0.950 . S
C886 H868 0.951 . S
C886 C887 1.366 . S
C886 C888 1.388 1_556 S
C887 C886 1.366 . S
C887 C891 1.385 1_556 S
C888 H869 0.951 . S
C888 C886 1.388 1_554 S
C888 C889 1.366 . S
C889 C888 1.366 . S
C889 C890 1.414 . S
C889 C892 1.499 . S
C890 H870 0.950 . S
C890 C889 1.414 . S
C890 C891 1.374 . S
C891 H871 0.950 . S
C891 C887 1.385 1_554 S
C891 C890 1.374 . S
C892 C889 1.499 . S
C892 C893 1.373 . S
C892 C894 1.389 . S
C893 H872 0.950 . S
C893 C892 1.373 . S
C893 C909 1.377 . S
C894 C892 1.389 . S
C894 C895 1.524 . S
C894 C908 1.377 . S
C895 C894 1.524 . S
C895 C896 1.397 . S
C895 C900 1.363 . S
C896 H873 0.950 . S
C896 C895 1.397 . S
C896 C897 1.334 . S
C897 H874 0.950 . S
C897 C896 1.334 . S
C897 C898 1.287 . S
C898 C897 1.287 . S
C898 C899 1.524 . S
C898 H917 0.913 . S
C899 H875 0.950 . S
C899 C898 1.524 . S
C899 C900 1.415 . S
C900 H876 0.950 . S
C900 C895 1.363 . S
C900 C899 1.415 . S
C901 H877 0.951 . S
C901 C902 1.366 . S
C901 C903 1.388 . S
C902 C901 1.366 . S
C902 C906 1.385 . S
C903 H878 0.951 . S
C903 C901 1.388 . S
C903 C904 1.366 . S
C904 C903 1.366 . S
C904 C905 1.414 . S
C904 C907 1.499 . S
C905 H879 0.950 . S
C905 C904 1.414 . S
C905 C906 1.374 . S
C906 H880 0.950 . S
C906 C902 1.385 . S
C906 C905 1.374 . S
C907 C904 1.499 . S
C907 C908 1.373 . S
C907 C909 1.389 . S
C908 H881 0.950 . S
C908 C894 1.377 . S
C908 C907 1.373 . S
C909 C893 1.377 . S
C909 C907 1.389 . S
C909 C910 1.524 . S
C910 C909 1.524 . S
C910 C911 1.397 . S
C910 C915 1.363 . S
C911 H882 0.950 . S
C911 C910 1.397 . S
C911 C912 1.334 . S
C912 H883 0.950 . S
C912 C911 1.334 . S
C912 C913 1.287 . S
C913 C912 1.287 . S
C913 C914 1.524 . S
C913 H916 0.999 . S
C914 H884 0.950 . S
C914 C913 1.524 . S
C914 C915 1.415 . S
C915 H885 0.950 . S
C915 C910 1.363 . S
C915 C914 1.415 . S
H916 C913 0.999 . S
H917 C898 0.913 . S
H918 C936 0.951 . S
H919 C938 0.951 . S
H920 C940 0.950 . S
H921 C941 0.950 . S
H922 C943 0.950 . S
H923 C946 0.950 . S
H924 C947 0.950 . S
H925 C949 0.950 . S
H926 C950 0.950 . S
H927 C951 0.951 . S
H928 C953 0.951 . S
H929 C955 0.950 . S
H930 C956 0.950 . S
H931 C958 0.950 . S
H932 C961 0.950 . S
H933 C962 0.950 . S
H934 C964 0.950 . S
H935 C965 0.950 . S
C936 H918 0.951 . S
C936 C937 1.366 . S
C936 C938 1.388 . S
C937 C936 1.366 . S
C937 C941 1.385 . S
C938 H919 0.951 . S
C938 C936 1.388 . S
C938 C939 1.366 . S
C939 C938 1.366 . S
C939 C940 1.414 . S
C939 C942 1.499 . S
C940 H920 0.950 . S
C940 C939 1.414 . S
C940 C941 1.374 . S
C941 H921 0.950 . S
C941 C937 1.385 . S
C941 C940 1.374 . S
C942 C939 1.499 . S
C942 C943 1.373 . S
C942 C944 1.389 . S
C943 H922 0.950 . S
C943 C942 1.373 . S
C943 C959 1.377 . S
C944 C942 1.389 . S
C944 C945 1.524 . S
C944 C958 1.377 . S
C945 C944 1.524 . S
C945 C946 1.397 . S
C945 C950 1.363 . S
C946 H923 0.950 . S
C946 C945 1.397 . S
C946 C947 1.334 . S
C947 H924 0.950 . S
C947 C946 1.334 . S
C947 C948 1.287 . S
C948 C947 1.287 . S
C948 C949 1.524 . S
C948 H967 0.913 . S
C949 H925 0.950 . S
C949 C948 1.524 . S
C949 C950 1.415 . S
C950 H926 0.950 . S
C950 C945 1.363 . S
C950 C949 1.415 . S
C951 H927 0.951 . S
C951 C952 1.366 . S
C951 C953 1.388 . S
C952 C951 1.366 . S
C952 C956 1.385 . S
C953 H928 0.951 . S
C953 C951 1.388 . S
C953 C954 1.366 . S
C954 C953 1.366 . S
C954 C955 1.414 . S
C954 C957 1.499 . S
C955 H929 0.950 . S
C955 C954 1.414 . S
C955 C956 1.374 . S
C956 H930 0.950 . S
C956 C952 1.385 . S
C956 C955 1.374 . S
C957 C954 1.499 . S
C957 C958 1.373 . S
C957 C959 1.389 . S
C958 H931 0.950 . S
C958 C944 1.377 . S
C958 C957 1.373 . S
C959 C943 1.377 . S
C959 C957 1.389 . S
C959 C960 1.524 . S
C960 C959 1.524 . S
C960 C961 1.397 . S
C960 C965 1.363 . S
C961 H932 0.950 . S
C961 C960 1.397 . S
C961 C962 1.334 . S
C962 H933 0.950 . S
C962 C961 1.334 . S
C962 C963 1.287 . S
C963 C962 1.287 . S
C963 C964 1.524 . S
C963 H966 0.999 . S
C964 H934 0.950 . S
C964 C963 1.524 . S
C964 C965 1.415 . S
C965 H935 0.950 . S
C965 C960 1.363 . S
C965 C964 1.415 . S
H966 C963 0.999 . S
H967 C948 0.913 . S
H968 C986 0.951 . S
H969 C988 0.951 . S
H970 C990 0.950 . S
H971 C991 0.950 . S
H972 C993 0.950 . S
H973 C996 0.950 . S
H974 C997 0.950 . S
H975 C999 0.950 . S
H976 C1000 0.950 . S
H977 C1001 0.951 . S
H978 C1003 0.951 . S
H979 C1005 0.950 . S
H980 C1006 0.950 . S
H981 C1008 0.950 . S
H982 C1011 0.950 . S
H983 C1012 0.950 . S
H984 C1014 0.950 . S
H985 C1015 0.950 . S
C986 H968 0.951 . S
C986 C987 1.366 . S
C986 C988 1.388 . S
C987 C986 1.366 . S
C987 C991 1.385 . S
C988 H969 0.951 . S
C988 C986 1.388 . S
C988 C989 1.366 . S
C989 C988 1.366 . S
C989 C990 1.414 . S
C989 C992 1.499 . S
C990 H970 0.950 . S
C990 C989 1.414 . S
C990 C991 1.374 . S
C991 H971 0.950 . S
C991 C987 1.385 . S
C991 C990 1.374 . S
C992 C989 1.499 . S
C992 C993 1.373 . S
C992 C994 1.389 . S
C993 H972 0.950 . S
C993 C992 1.373 . S
C993 C1009 1.377 . S
C994 C992 1.389 . S
C994 C995 1.524 . S
C994 C1008 1.377 . S
C995 C994 1.524 . S
C995 C996 1.397 . S
C995 C1000 1.363 . S
C996 H973 0.950 . S
C996 C995 1.397 . S
C996 C997 1.334 . S
C997 H974 0.950 . S
C997 C996 1.334 . S
C997 C998 1.287 . S
C998 C997 1.287 . S
C998 C999 1.524 . S
C998 H1017 0.913 . S
C999 H975 0.950 . S
C999 C998 1.524 . S
C999 C1000 1.415 . S
C1000 H976 0.950 . S
C1000 C995 1.363 . S
C1000 C999 1.415 . S
C1001 H977 0.951 . S
C1001 C1002 1.366 . S
C1001 C1003 1.388 . S
C1002 C1001 1.366 . S
C1002 C1006 1.385 . S
C1003 H978 0.951 . S
C1003 C1001 1.388 . S
C1003 C1004 1.366 . S
C1004 C1003 1.366 . S
C1004 C1005 1.414 . S
C1004 C1007 1.499 . S
C1005 H979 0.950 . S
C1005 C1004 1.414 . S
C1005 C1006 1.374 . S
C1006 H980 0.950 . S
C1006 C1002 1.385 . S
C1006 C1005 1.374 . S
C1007 C1004 1.499 . S
C1007 C1008 1.373 . S
C1007 C1009 1.389 . S
C1008 H981 0.950 . S
C1008 C994 1.377 . S
C1008 C1007 1.373 . S
C1009 C993 1.377 . S
C1009 C1007 1.389 . S
C1009 C1010 1.524 . S
C1010 C1009 1.524 . S
C1010 C1011 1.397 . S
C1010 C1015 1.363 . S
C1011 H982 0.950 . S
C1011 C1010 1.397 . S
C1011 C1012 1.334 . S
C1012 H983 0.950 . S
C1012 C1011 1.334 . S
C1012 C1013 1.287 . S
C1013 C1012 1.287 . S
C1013 C1014 1.524 . S
C1013 H1016 0.999 . S
C1014 H984 0.950 . S
C1014 C1013 1.524 . S
C1014 C1015 1.415 . S
C1015 H985 0.950 . S
C1015 C1010 1.363 . S
C1015 C1014 1.415 . S
H1016 C1013 0.999 . S
H1017 C998 0.913 . S
H1018 C1036 0.951 . S
H1019 C1038 0.951 . S
H1020 C1040 0.950 . S
H1021 C1041 0.950 . S
H1022 C1043 0.950 . S
H1023 C1046 0.950 . S
H1024 C1047 0.950 . S
H1025 C1049 0.950 . S
H1026 C1050 0.950 . S
H1027 C1051 0.951 . S
H1028 C1053 0.951 . S
H1029 C1055 0.950 . S
H1030 C1056 0.950 . S
H1031 C1058 0.950 . S
H1032 C1061 0.950 . S
H1033 C1062 0.950 . S
H1034 C1064 0.950 . S
H1035 C1065 0.950 . S
C1036 H1018 0.951 . S
C1036 C1037 1.366 . S
C1036 C1038 1.388 . S
C1037 C1036 1.366 . S
C1037 C1041 1.385 . S
C1038 H1019 0.951 . S
C1038 C1036 1.388 . S
C1038 C1039 1.366 . S
C1039 C1038 1.366 . S
C1039 C1040 1.414 . S
C1039 C1042 1.499 . S
C1040 H1020 0.950 . S
C1040 C1039 1.414 . S
C1040 C1041 1.374 . S
C1041 H1021 0.950 . S
C1041 C1037 1.385 . S
C1041 C1040 1.374 . S
C1042 C1039 1.499 . S
C1042 C1043 1.373 . S
C1042 C1044 1.389 . S
C1043 H1022 0.950 . S
C1043 C1042 1.373 . S
C1043 C1059 1.377 . S
C1044 C1042 1.389 . S
C1044 C1045 1.524 . S
C1044 C1058 1.377 . S
C1045 C1044 1.524 . S
C1045 C1046 1.397 . S
C1045 C1050 1.363 . S
C1046 H1023 0.950 . S
C1046 C1045 1.397 . S
C1046 C1047 1.334 . S
C1047 H1024 0.950 . S
C1047 C1046 1.334 . S
C1047 C1048 1.287 . S
C1048 C1047 1.287 . S
C1048 C1049 1.524 . S
C1048 H1067 0.913 . S
C1049 H1025 0.950 . S
C1049 C1048 1.524 . S
C1049 C1050 1.415 . S
C1050 H1026 0.950 . S
C1050 C1045 1.363 . S
C1050 C1049 1.415 . S
C1051 H1027 0.951 . S
C1051 C1052 1.366 . S
C1051 C1053 1.388 . S
C1052 C1051 1.366 . S
C1052 C1056 1.385 . S
C1053 H1028 0.951 . S
C1053 C1051 1.388 . S
C1053 C1054 1.366 . S
C1054 C1053 1.366 . S
C1054 C1055 1.414 . S
C1054 C1057 1.499 . S
C1055 H1029 0.950 . S
C1055 C1054 1.414 . S
C1055 C1056 1.374 . S
C1056 H1030 0.950 . S
C1056 C1052 1.385 . S
C1056 C1055 1.374 . S
C1057 C1054 1.499 . S
C1057 C1058 1.373 . S
C1057 C1059 1.389 . S
C1058 H1031 0.950 . S
C1058 C1044 1.377 . S
C1058 C1057 1.373 . S
C1059 C1043 1.377 . S
C1059 C1057 1.389 . S
C1059 C1060 1.524 . S
C1060 C1059 1.524 . S
C1060 C1061 1.397 . S
C1060 C1065 1.363 . S
C1061 H1032 0.950 . S
C1061 C1060 1.397 . S
C1061 C1062 1.334 . S
C1062 H1033 0.950 . S
C1062 C1061 1.334 . S
C1062 C1063 1.287 . S
C1063 C1062 1.287 . S
C1063 C1064 1.524 . S
C1063 H1066 0.999 . S
C1064 H1034 0.950 . S
C1064 C1063 1.524 . S
C1064 C1065 1.415 . S
C1065 H1035 0.950 . S
C1065 C1060 1.363 . S
C1065 C1064 1.415 . S
H1066 C1063 0.999 . S
H1067 C1048 0.913 . S
H1068 C1086 0.951 1_556 S
H1069 C1088 0.951 1_556 S
H1070 C1090 0.950 . S
H1071 C1091 0.950 . S
H1072 C1093 0.950 . S
H1073 C1096 0.950 . S
H1074 C1097 0.950 . S
H1075 C1099 0.950 . S
H1076 C1100 0.950 . S
H1077 C1101 0.951 . S
H1078 C1103 0.951 . S
H1079 C1105 0.950 1_556 S
H1080 C1106 0.944 1_556 S
H1081 C1108 0.950 . S
H1082 C1111 0.950 . S
H1083 C1112 0.950 . S
H1084 C1114 0.950 . S
H1085 C1115 0.950 . S
C1086 H1068 0.951 1_554 S
C1086 C1087 1.366 . S
C1086 C1088 1.388 . S
C1087 C1086 1.366 . S
C1087 C1091 1.385 . S
C1088 H1069 0.951 1_554 S
C1088 C1086 1.388 . S
C1088 C1089 1.366 . S
C1089 C1088 1.366 . S
C1089 C1090 1.414 . S
C1089 C1092 1.499 . S
C1090 H1070 0.950 . S
C1090 C1089 1.414 . S
C1090 C1091 1.374 . S
C1091 H1071 0.950 . S
C1091 C1087 1.385 . S
C1091 C1090 1.374 . S
C1092 C1089 1.499 . S
C1092 C1093 1.373 . S
C1092 C1094 1.389 . S
C1093 H1072 0.950 . S
C1093 C1092 1.373 . S
C1093 C1109 1.377 1_545 S
C1094 C1092 1.389 . S
C1094 C1095 1.524 . S
C1094 C1108 1.377 1_545 S
C1095 C1094 1.524 . S
C1095 C1096 1.397 . S
C1095 C1100 1.363 1_554 S
C1096 H1073 0.950 . S
C1096 C1095 1.397 . S
C1096 C1097 1.334 . S
C1097 H1074 0.950 . S
C1097 C1096 1.334 . S
C1097 C1098 1.287 . S
C1098 C1097 1.287 . S
C1098 C1099 1.524 1_554 S
C1098 H1117 0.913 . S
C1099 H1075 0.950 . S
C1099 C1098 1.524 1_556 S
C1099 C1100 1.415 . S
C1100 H1076 0.950 . S
C1100 C1095 1.363 1_556 S
C1100 C1099 1.415 . S
C1101 H1077 0.951 . S
C1101 C1102 1.366 . S
C1101 C1103 1.388 . S
C1102 C1101 1.366 . S
C1102 C1106 1.390 . S
C1103 H1078 0.951 . S
C1103 C1101 1.388 . S
C1103 C1104 1.366 . S
C1104 C1103 1.366 . S
C1104 C1105 1.414 . S
C1104 C1107 1.499 . S
C1105 H1079 0.950 1_554 S
C1105 C1104 1.414 . S
C1105 C1106 1.374 . S
C1106 H1080 0.944 1_554 S
C1106 C1102 1.390 . S
C1106 C1105 1.374 . S
C1107 C1104 1.499 . S
C1107 C1108 1.373 . S
C1107 C1109 1.389 . S
C1108 H1081 0.950 . S
C1108 C1094 1.377 1_565 S
C1108 C1107 1.373 . S
C1109 C1093 1.377 1_565 S
C1109 C1107 1.389 . S
C1109 C1110 1.524 . S
C1110 C1109 1.524 . S
C1110 C1111 1.397 . S
C1110 C1115 1.363 . S
C1111 H1082 0.950 . S
C1111 C1110 1.397 . S
C1111 C1112 1.334 . S
C1112 H1083 0.950 . S
C1112 C1111 1.334 . S
C1112 C1113 1.287 . S
C1113 C1112 1.287 . S
C1113 C1114 1.524 . S
C1113 H1116 0.999 . S
C1114 H1084 0.950 . S
C1114 C1113 1.524 . S
C1114 C1115 1.415 . S
C1115 H1085 0.950 . S
C1115 C1110 1.363 . S
C1115 C1114 1.415 . S
H1116 C1113 0.999 . S
H1117 C1098 0.913 . S
H1118 C1136 0.951 . S
H1119 C1138 0.951 . S
H1120 C1140 0.950 . S
H1121 C1141 0.950 . S
H1122 C1143 0.950 . S
H1123 C1146 0.950 . S
H1124 C1147 0.950 . S
H1125 C1149 0.950 . S
H1126 C1150 0.950 . S
H1127 C1151 0.951 . S
H1128 C1153 0.951 . S
H1129 C1155 0.950 . S
H1130 C1156 0.950 . S
H1131 C1158 0.950 . S
H1132 C1161 0.950 . S
H1133 C1162 0.950 . S
H1134 C1164 0.950 . S
H1135 C1165 0.950 . S
C1136 H1118 0.951 . S
C1136 C1137 1.366 . S
C1136 C1138 1.388 . S
C1137 C1136 1.366 . S
C1137 C1141 1.385 . S
C1138 H1119 0.951 . S
C1138 C1136 1.388 . S
C1138 C1139 1.366 . S
C1139 C1138 1.366 . S
C1139 C1140 1.414 . S
C1139 C1142 1.499 . S
C1140 H1120 0.950 . S
C1140 C1139 1.414 . S
C1140 C1141 1.374 . S
C1141 H1121 0.950 . S
C1141 C1137 1.385 . S
C1141 C1140 1.374 . S
C1142 C1139 1.499 . S
C1142 C1143 1.373 . S
C1142 C1144 1.389 . S
C1143 H1122 0.950 . S
C1143 C1142 1.373 . S
C1143 C1159 1.377 . S
C1144 C1142 1.389 . S
C1144 C1145 1.524 . S
C1144 C1158 1.377 . S
C1145 C1144 1.524 . S
C1145 C1146 1.397 . S
C1145 C1150 1.363 . S
C1146 H1123 0.950 . S
C1146 C1145 1.397 . S
C1146 C1147 1.334 . S
C1147 H1124 0.950 . S
C1147 C1146 1.334 . S
C1147 C1148 1.287 . S
C1148 C1147 1.287 . S
C1148 C1149 1.524 . S
C1148 H1167 0.913 . S
C1149 H1125 0.950 . S
C1149 C1148 1.524 . S
C1149 C1150 1.415 . S
C1150 H1126 0.950 . S
C1150 C1145 1.363 . S
C1150 C1149 1.415 . S
C1151 H1127 0.951 . S
C1151 C1152 1.366 . S
C1151 C1153 1.388 . S
C1152 C1151 1.366 . S
C1152 C1156 1.385 . S
C1153 H1128 0.951 . S
C1153 C1151 1.388 . S
C1153 C1154 1.366 . S
C1154 C1153 1.366 . S
C1154 C1155 1.414 . S
C1154 C1157 1.499 . S
C1155 H1129 0.950 . S
C1155 C1154 1.414 . S
C1155 C1156 1.374 . S
C1156 H1130 0.950 . S
C1156 C1152 1.385 . S
C1156 C1155 1.374 . S
C1157 C1154 1.499 . S
C1157 C1158 1.373 . S
C1157 C1159 1.389 . S
C1158 H1131 0.950 . S
C1158 C1144 1.377 . S
C1158 C1157 1.373 . S
C1159 C1143 1.377 . S
C1159 C1157 1.389 . S
C1159 C1160 1.524 . S
C1160 C1159 1.524 . S
C1160 C1161 1.397 . S
C1160 C1165 1.363 . S
C1161 H1132 0.950 . S
C1161 C1160 1.397 . S
C1161 C1162 1.334 . S
C1162 H1133 0.950 . S
C1162 C1161 1.334 . S
C1162 C1163 1.287 . S
C1163 C1162 1.287 . S
C1163 C1164 1.524 . S
C1163 H1166 0.999 . S
C1164 H1134 0.950 . S
C1164 C1163 1.524 . S
C1164 C1165 1.415 . S
C1165 H1135 0.950 . S
C1165 C1160 1.363 . S
C1165 C1164 1.415 . S
H1166 C1163 0.999 . S
H1167 C1148 0.913 . S
H1168 C1186 0.951 . S
H1169 C1188 0.951 . S
H1170 C1190 0.950 . S
H1171 C1191 0.950 . S
H1172 C1193 0.950 . S
H1173 C1196 0.950 . S
H1174 C1197 0.950 . S
H1175 C1199 0.950 . S
H1176 C1200 0.950 . S
H1177 C1201 0.951 . S
H1178 C1203 0.951 . S
H1179 C1205 0.950 . S
H1180 C1206 0.950 . S
H1181 C1208 0.950 . S
H1182 C1211 0.950 . S
H1183 C1212 0.950 . S
H1184 C1214 0.950 . S
H1185 C1215 0.950 . S
C1186 H1168 0.951 . S
C1186 C1187 1.366 . S
C1186 C1188 1.388 . S
C1187 C1186 1.366 . S
C1187 C1191 1.385 . S
C1188 H1169 0.951 . S
C1188 C1186 1.388 . S
C1188 C1189 1.366 . S
C1189 C1188 1.366 . S
C1189 C1190 1.414 . S
C1189 C1192 1.499 . S
C1190 H1170 0.950 . S
C1190 C1189 1.414 . S
C1190 C1191 1.374 . S
C1191 H1171 0.950 . S
C1191 C1187 1.385 . S
C1191 C1190 1.374 . S
C1192 C1189 1.499 . S
C1192 C1193 1.373 . S
C1192 C1194 1.389 . S
C1193 H1172 0.950 . S
C1193 C1192 1.373 . S
C1193 C1209 1.377 1_455 S
C1194 C1192 1.389 . S
C1194 C1195 1.524 . S
C1194 C1208 1.377 1_455 S
C1195 C1194 1.524 . S
C1195 C1196 1.397 . S
C1195 C1200 1.363 . S
C1196 H1173 0.950 . S
C1196 C1195 1.397 . S
C1196 C1197 1.334 . S
C1197 H1174 0.950 . S
C1197 C1196 1.334 . S
C1197 C1198 1.287 . S
C1198 C1197 1.287 . S
C1198 C1199 1.524 . S
C1198 H1217 0.913 . S
C1199 H1175 0.950 . S
C1199 C1198 1.524 . S
C1199 C1200 1.415 . S
C1200 H1176 0.950 . S
C1200 C1195 1.363 . S
C1200 C1199 1.415 . S
C1201 H1177 0.951 . S
C1201 C1202 1.366 . S
C1201 C1203 1.388 . S
C1202 C1201 1.366 . S
C1202 C1206 1.385 . S
C1203 H1178 0.951 . S
C1203 C1201 1.388 . S
C1203 C1204 1.366 . S
C1204 C1203 1.366 . S
C1204 C1205 1.414 . S
C1204 C1207 1.499 . S
C1205 H1179 0.950 . S
C1205 C1204 1.414 . S
C1205 C1206 1.374 . S
C1206 H1180 0.950 . S
C1206 C1202 1.385 . S
C1206 C1205 1.374 . S
C1207 C1204 1.499 . S
C1207 C1208 1.373 . S
C1207 C1209 1.389 . S
C1208 H1181 0.950 . S
C1208 C1194 1.377 1_655 S
C1208 C1207 1.373 . S
C1209 C1193 1.377 1_655 S
C1209 C1207 1.389 . S
C1209 C1210 1.524 . S
C1210 C1209 1.524 . S
C1210 C1211 1.397 . S
C1210 C1215 1.363 . S
C1211 H1182 0.950 . S
C1211 C1210 1.397 . S
C1211 C1212 1.334 . S
C1212 H1183 0.950 . S
C1212 C1211 1.334 . S
C1212 C1213 1.287 . S
C1213 C1212 1.287 . S
C1213 C1214 1.524 . S
C1213 H1216 0.999 . S
C1214 H1184 0.950 . S
C1214 C1213 1.524 . S
C1214 C1215 1.415 . S
C1215 H1185 0.950 . S
C1215 C1210 1.363 . S
C1215 C1214 1.415 . S
H1216 C1213 0.999 . S
H1217 C1198 0.913 . S
H1218 C1236 0.951 . S
H1219 C1238 0.951 . S
H1220 C1240 0.950 . S
H1221 C1241 0.950 . S
H1222 C1243 0.950 . S
H1223 C1246 0.950 . S
H1224 C1247 0.950 . S
H1225 C1249 0.950 . S
H1226 C1250 0.950 . S
H1227 C1251 0.951 . S
H1228 C1253 0.951 . S
H1229 C1255 0.950 . S
H1230 C1256 0.950 . S
H1231 C1258 0.950 . S
H1232 C1261 0.950 . S
H1233 C1262 0.950 . S
H1234 C1264 0.950 . S
H1235 C1265 0.950 . S
C1236 H1218 0.951 . S
C1236 C1237 1.366 . S
C1236 C1238 1.388 . S
C1237 C1236 1.366 . S
C1237 C1241 1.385 . S
C1238 H1219 0.951 . S
C1238 C1236 1.388 . S
C1238 C1239 1.366 . S
C1239 C1238 1.366 . S
C1239 C1240 1.414 . S
C1239 C1242 1.499 . S
C1240 H1220 0.950 . S
C1240 C1239 1.414 . S
C1240 C1241 1.374 . S
C1241 H1221 0.950 . S
C1241 C1237 1.385 . S
C1241 C1240 1.374 . S
C1242 C1239 1.499 . S
C1242 C1243 1.373 . S
C1242 C1244 1.389 . S
C1243 H1222 0.950 . S
C1243 C1242 1.373 . S
C1243 C1259 1.377 1_565 S
C1244 C1242 1.389 . S
C1244 C1245 1.524 . S
C1244 C1258 1.377 1_565 S
C1245 C1244 1.524 . S
C1245 C1246 1.397 . S
C1245 C1250 1.363 . S
C1246 H1223 0.950 . S
C1246 C1245 1.397 . S
C1246 C1247 1.334 . S
C1247 H1224 0.950 . S
C1247 C1246 1.334 . S
C1247 C1248 1.287 . S
C1248 C1247 1.287 . S
C1248 C1249 1.524 . S
C1248 H1267 0.913 . S
C1249 H1225 0.950 . S
C1249 C1248 1.524 . S
C1249 C1250 1.415 . S
C1250 H1226 0.950 . S
C1250 C1245 1.363 . S
C1250 C1249 1.415 . S
C1251 H1227 0.951 . S
C1251 C1252 1.366 . S
C1251 C1253 1.388 . S
C1252 C1251 1.366 . S
C1252 C1256 1.385 . S
C1253 H1228 0.951 . S
C1253 C1251 1.388 . S
C1253 C1254 1.366 . S
C1254 C1253 1.366 . S
C1254 C1255 1.414 . S
C1254 C1257 1.499 . S
C1255 H1229 0.950 . S
C1255 C1254 1.414 . S
C1255 C1256 1.374 . S
C1256 H1230 0.950 . S
C1256 C1252 1.385 . S
C1256 C1255 1.374 . S
C1257 C1254 1.499 . S
C1257 C1258 1.373 . S
C1257 C1259 1.389 . S
C1258 H1231 0.950 . S
C1258 C1244 1.377 1_545 S
C1258 C1257 1.373 . S
C1259 C1243 1.377 1_545 S
C1259 C1257 1.389 . S
C1259 C1260 1.524 . S
C1260 C1259 1.524 . S
C1260 C1261 1.397 . S
C1260 C1265 1.363 . S
C1261 H1232 0.950 . S
C1261 C1260 1.397 . S
C1261 C1262 1.334 . S
C1262 H1233 0.950 . S
C1262 C1261 1.334 . S
C1262 C1263 1.287 . S
C1263 C1262 1.287 . S
C1263 C1264 1.524 . S
C1263 H1266 0.999 . S
C1264 H1234 0.950 . S
C1264 C1263 1.524 . S
C1264 C1265 1.415 . S
C1265 H1235 0.950 . S
C1265 C1260 1.363 . S
C1265 C1264 1.415 . S
H1266 C1263 0.999 . S
H1267 C1248 0.913 . S
H1268 C1286 0.951 . S
H1269 C1288 0.951 . S
H1270 C1290 0.950 . S
H1271 C1291 0.950 . S
H1272 C1293 0.950 . S
H1273 C1296 0.950 . S
H1274 C1297 0.950 . S
H1275 C1299 0.950 . S
H1276 C1300 0.950 . S
H1277 C1301 0.951 . S
H1278 C1303 0.951 . S
H1279 C1305 0.950 . S
H1280 C1306 0.950 . S
H1281 C1308 0.950 . S
H1282 C1311 0.950 . S
H1283 C1312 0.950 . S
H1284 C1314 0.950 . S
H1285 C1315 0.950 . S
C1286 H1268 0.951 . S
C1286 C1287 1.366 . S
C1286 C1288 1.388 . S
C1287 C1286 1.366 . S
C1287 C1291 1.385 . S
C1288 H1269 0.951 . S
C1288 C1286 1.388 . S
C1288 C1289 1.366 . S
C1289 C1288 1.366 . S
C1289 C1290 1.414 . S
C1289 C1292 1.499 . S
C1290 H1270 0.950 . S
C1290 C1289 1.414 . S
C1290 C1291 1.374 . S
C1291 H1271 0.950 . S
C1291 C1287 1.385 . S
C1291 C1290 1.374 . S
C1292 C1289 1.499 . S
C1292 C1293 1.373 . S
C1292 C1294 1.389 . S
C1293 H1272 0.950 . S
C1293 C1292 1.373 . S
C1293 C1309 1.377 . S
C1294 C1292 1.389 . S
C1294 C1295 1.524 . S
C1294 C1308 1.377 . S
C1295 C1294 1.524 . S
C1295 C1296 1.397 . S
C1295 C1300 1.363 . S
C1296 H1273 0.950 . S
C1296 C1295 1.397 . S
C1296 C1297 1.334 . S
C1297 H1274 0.950 . S
C1297 C1296 1.334 . S
C1297 C1298 1.287 . S
C1298 C1297 1.287 . S
C1298 C1299 1.524 . S
C1298 H1317 0.913 . S
C1299 H1275 0.950 . S
C1299 C1298 1.524 . S
C1299 C1300 1.415 . S
C1300 H1276 0.950 . S
C1300 C1295 1.363 . S
C1300 C1299 1.415 . S
C1301 H1277 0.951 . S
C1301 C1302 1.366 . S
C1301 C1303 1.388 . S
C1302 C1301 1.366 . S
C1302 C1306 1.385 . S
C1303 H1278 0.951 . S
C1303 C1301 1.388 . S
C1303 C1304 1.366 . S
C1304 C1303 1.366 . S
C1304 C1305 1.414 . S
C1304 C1307 1.499 . S
C1305 H1279 0.950 . S
C1305 C1304 1.414 . S
C1305 C1306 1.374 . S
C1306 H1280 0.950 . S
C1306 C1302 1.385 . S
C1306 C1305 1.374 . S
C1307 C1304 1.499 . S
C1307 C1308 1.373 . S
C1307 C1309 1.389 . S
C1308 H1281 0.950 . S
C1308 C1294 1.377 . S
C1308 C1307 1.373 . S
C1309 C1293 1.377 . S
C1309 C1307 1.389 . S
C1309 C1310 1.524 . S
C1310 C1309 1.524 . S
C1310 C1311 1.397 . S
C1310 C1315 1.363 . S
C1311 H1282 0.950 . S
C1311 C1310 1.397 . S
C1311 C1312 1.334 . S
C1312 H1283 0.950 . S
C1312 C1311 1.334 . S
C1312 C1313 1.287 . S
C1313 C1312 1.287 . S
C1313 C1314 1.524 . S
C1313 H1316 0.999 . S
C1314 H1284 0.950 . S
C1314 C1313 1.524 . S
C1314 C1315 1.415 . S
C1315 H1285 0.950 . S
C1315 C1310 1.363 . S
C1315 C1314 1.415 . S
H1316 C1313 0.999 . S
H1317 C1298 0.913 . S
H1318 C1336 0.951 . S
H1319 C1338 0.951 . S
H1320 C1340 0.950 . S
H1321 C1341 0.950 . S
H1322 C1343 0.950 . S
H1323 C1346 0.950 . S
H1324 C1347 0.950 . S
H1325 C1349 0.950 . S
H1326 C1350 0.950 . S
H1327 C1351 0.951 . S
H1328 C1353 0.951 . S
H1329 C1355 0.950 . S
H1330 C1356 0.950 . S
H1331 C1358 0.950 . S
H1332 C1361 0.950 . S
H1333 C1362 0.950 . S
H1334 C1364 0.950 . S
H1335 C1365 0.950 . S
C1336 H1318 0.951 . S
C1336 C1337 1.366 . S
C1336 C1338 1.388 . S
C1337 C1336 1.366 . S
C1337 C1341 1.385 . S
C1338 H1319 0.951 . S
C1338 C1336 1.388 . S
C1338 C1339 1.366 . S
C1339 C1338 1.366 . S
C1339 C1340 1.414 . S
C1339 C1342 1.499 . S
C1340 H1320 0.950 . S
C1340 C1339 1.414 . S
C1340 C1341 1.374 . S
C1341 H1321 0.950 . S
C1341 C1337 1.385 . S
C1341 C1340 1.374 . S
C1342 C1339 1.499 . S
C1342 C1343 1.373 . S
C1342 C1344 1.389 . S
C1343 H1322 0.950 . S
C1343 C1342 1.373 . S
C1343 C1359 1.377 1_455 S
C1344 C1342 1.389 . S
C1344 C1345 1.524 . S
C1344 C1358 1.377 1_455 S
C1345 C1344 1.524 . S
C1345 C1346 1.397 . S
C1345 C1350 1.363 . S
C1346 H1323 0.950 . S
C1346 C1345 1.397 . S
C1346 C1347 1.334 1_556 S
C1347 H1324 0.950 . S
C1347 C1346 1.334 1_554 S
C1347 C1348 1.287 . S
C1348 C1347 1.287 . S
C1348 C1349 1.524 . S
C1348 H1367 0.913 . S
C1349 H1325 0.950 . S
C1349 C1348 1.524 . S
C1349 C1350 1.415 1_554 S
C1350 H1326 0.950 . S
C1350 C1345 1.363 . S
C1350 C1349 1.415 1_556 S
C1351 H1327 0.951 . S
C1351 C1352 1.366 . S
C1351 C1353 1.388 . S
C1352 C1351 1.366 . S
C1352 C1356 1.385 . S
C1353 H1328 0.951 . S
C1353 C1351 1.388 . S
C1353 C1354 1.366 . S
C1354 C1353 1.366 . S
C1354 C1355 1.414 . S
C1354 C1357 1.499 . S
C1355 H1329 0.950 . S
C1355 C1354 1.414 . S
C1355 C1356 1.374 . S
C1356 H1330 0.950 . S
C1356 C1352 1.385 . S
C1356 C1355 1.374 . S
C1357 C1354 1.499 . S
C1357 C1358 1.373 . S
C1357 C1359 1.389 . S
C1358 H1331 0.950 . S
C1358 C1344 1.377 1_655 S
C1358 C1357 1.373 . S
C1359 C1343 1.377 1_655 S
C1359 C1357 1.389 . S
C1359 C1360 1.524 . S
C1360 C1359 1.524 . S
C1360 C1361 1.397 . S
C1360 C1365 1.363 . S
C1361 H1332 0.950 . S
C1361 C1360 1.397 . S
C1361 C1362 1.334 . S
C1362 H1333 0.950 . S
C1362 C1361 1.334 . S
C1362 C1363 1.287 . S
C1363 C1362 1.287 . S
C1363 C1364 1.524 . S
C1363 H1366 0.999 . S
C1364 H1334 0.950 . S
C1364 C1363 1.524 . S
C1364 C1365 1.415 . S
C1365 H1335 0.950 . S
C1365 C1360 1.363 . S
C1365 C1364 1.415 . S
H1366 C1363 0.999 . S
H1367 C1348 0.913 . S
C187 C8 1.563 . S
C202 C148 1.562 . S
C237 C22 1.563 . S
C252 C162 1.563 . S
C287 C92 1.563 . S
C302 C36 1.563 . S
C337 C50 1.562 . S
C352 C106 1.562 . S
C387 C120 1.563 . S
C402 C64 1.563 . S
C437 C134 1.563 . S
C452 C78 1.563 . S
C487 C119 0.934 . S
C502 C7 0.934 . S
C537 C21 0.934 . S
C552 C133 0.934 . S
C587 C147 0.933 . S
C602 C35 0.933 . S
C637 C49 0.934 . S
C652 C161 0.934 . S
C687 C63 0.934 . S
C702 C91 0.935 . S
C737 C77 0.934 . S
C752 C105 0.934 . S
C787 C151 1.391 . S
C802 C11 1.391 . S
C837 C165 1.391 . S
C852 C25 1.391 . S
C887 C95 1.391 . S
C902 C39 1.391 . S
C937 C53 1.391 . S
C952 C109 1.391 . S
C987 C67 1.391 . S
C1002 C123 1.391 . S
C1037 C137 1.391 . S
C1052 C81 1.391 . S
C1087 C13 1.065 . S
C1102 C111 1.065 . S
C1137 C125 1.066 . S
C1152 C27 1.065 . S
C1187 C139 1.066 . S
C1202 C41 1.066 . S
C1237 C55 1.065 . S
C1252 C153 1.064 . S
C1287 C69 1.064 . S
C1302 C167 1.064 . S
C1337 C83 1.066 . S
C1352 C97 1.066 . S
