# Generated by pormake.
# Topology ukl, (4)-cn, num edge types: 1
# Building blocks:
#     Node 0, Type 0, BuildingBlock: ESEHIV_clean_sbu_0, # of connection points: 4
#     Node 1, Type 0, BuildingBlock: ESEHIV_clean_sbu_0, # of connection points: 4
#     Node 2, Type 0, BuildingBlock: ESEHIV_clean_sbu_0, # of connection points: 4
#     Node 3, Type 0, BuildingBlock: ESEHIV_clean_sbu_0, # of connection points: 4
#     Node 4, Type 0, BuildingBlock: ESEHIV_clean_sbu_0, # of connection points: 4
#     Node 5, Type 0, BuildingBlock: ESEHIV_clean_sbu_0, # of connection points: 4
#     Node 6, Type 0, BuildingBlock: ESEHIV_clean_sbu_0, # of connection points: 4
#     Node 7, Type 0, BuildingBlock: ESEHIV_clean_sbu_0, # of connection points: 4
#     Node 8, Type 0, BuildingBlock: ESEHIV_clean_sbu_0, # of connection points: 4
#     Node 9, Type 0, BuildingBlock: ESEHIV_clean_sbu_0, # of connection points: 4
#     Node 10, Type 0, BuildingBlock: ESEHIV_clean_sbu_0, # of connection points: 4
#     Node 11, Type 0, BuildingBlock: ESEHIV_clean_sbu_0, # of connection points: 4
#     Node 12, Type 0, BuildingBlock: ESEHIV_clean_sbu_0, # of connection points: 4
#     Node 13, Type 0, BuildingBlock: ESEHIV_clean_sbu_0, # of connection points: 4
#     Node 14, Type 0, BuildingBlock: ESEHIV_clean_sbu_0, # of connection points: 4
#     Node 15, Type 0, BuildingBlock: ESEHIV_clean_sbu_0, # of connection points: 4
#     Edge 16, Type (0, 0), BuildingBlock: XUDNAN_clean_linker_2, # of connection points: 2
#     Edge 17, Type (0, 0), BuildingBlock: XUDNAN_clean_linker_2, # of connection points: 2
#     Edge 18, Type (0, 0), BuildingBlock: XUDNAN_clean_linker_2, # of connection points: 2
#     Edge 19, Type (0, 0), BuildingBlock: XUDNAN_clean_linker_2, # of connection points: 2
#     Edge 20, Type (0, 0), BuildingBlock: XUDNAN_clean_linker_2, # of connection points: 2
#     Edge 21, Type (0, 0), BuildingBlock: XUDNAN_clean_linker_2, # of connection points: 2
#     Edge 22, Type (0, 0), BuildingBlock: XUDNAN_clean_linker_2, # of connection points: 2
#     Edge 23, Type (0, 0), BuildingBlock: XUDNAN_clean_linker_2, # of connection points: 2
#     Edge 24, Type (0, 0), BuildingBlock: XUDNAN_clean_linker_2, # of connection points: 2
#     Edge 25, Type (0, 0), BuildingBlock: XUDNAN_clean_linker_2, # of connection points: 2
#     Edge 26, Type (0, 0), BuildingBlock: XUDNAN_clean_linker_2, # of connection points: 2
#     Edge 27, Type (0, 0), BuildingBlock: XUDNAN_clean_linker_2, # of connection points: 2
#     Edge 28, Type (0, 0), BuildingBlock: XUDNAN_clean_linker_2, # of connection points: 2
#     Edge 29, Type (0, 0), BuildingBlock: XUDNAN_clean_linker_2, # of connection points: 2
#     Edge 30, Type (0, 0), BuildingBlock: XUDNAN_clean_linker_2, # of connection points: 2
#     Edge 31, Type (0, 0), BuildingBlock: XUDNAN_clean_linker_2, # of connection points: 2
#     Edge 32, Type (0, 0), BuildingBlock: XUDNAN_clean_linker_2, # of connection points: 2
#     Edge 33, Type (0, 0), BuildingBlock: XUDNAN_clean_linker_2, # of connection points: 2
#     Edge 34, Type (0, 0), BuildingBlock: XUDNAN_clean_linker_2, # of connection points: 2
#     Edge 35, Type (0, 0), BuildingBlock: XUDNAN_clean_linker_2, # of connection points: 2
#     Edge 36, Type (0, 0), BuildingBlock: XUDNAN_clean_linker_2, # of connection points: 2
#     Edge 37, Type (0, 0), BuildingBlock: XUDNAN_clean_linker_2, # of connection points: 2
#     Edge 38, Type (0, 0), BuildingBlock: XUDNAN_clean_linker_2, # of connection points: 2
#     Edge 39, Type (0, 0), BuildingBlock: XUDNAN_clean_linker_2, # of connection points: 2
#     Edge 40, Type (0, 0), BuildingBlock: XUDNAN_clean_linker_2, # of connection points: 2
#     Edge 41, Type (0, 0), BuildingBlock: XUDNAN_clean_linker_2, # of connection points: 2
#     Edge 42, Type (0, 0), BuildingBlock: XUDNAN_clean_linker_2, # of connection points: 2
#     Edge 43, Type (0, 0), BuildingBlock: XUDNAN_clean_linker_2, # of connection points: 2
#     Edge 44, Type (0, 0), BuildingBlock: XUDNAN_clean_linker_2, # of connection points: 2
#     Edge 45, Type (0, 0), BuildingBlock: XUDNAN_clean_linker_2, # of connection points: 2
#     Edge 46, Type (0, 0), BuildingBlock: XUDNAN_clean_linker_2, # of connection points: 2
#     Edge 47, Type (0, 0), BuildingBlock: XUDNAN_clean_linker_2, # of connection points: 2
# Relax obj value: 0.080
# Max RMSD: 0.169
# Mean RMSD: 0.149
data_MOF--net-ukl--node1-ESEHIV_clean_sbu_0--edge1-XUDNAN_clean_linker_2
_symmetry_space_group_name_H-M    P1
_symmetry_Int_Tables_number       1
_symmetry_cell_setting            triclinic
loop_
_symmetry_equiv_pos_as_xyz
'x, y, z'
_cell_length_a     33.86902
_cell_length_b     32.821502
_cell_length_c     22.045333
_cell_angle_alpha  90.247393
_cell_angle_beta   89.686889
_cell_angle_gamma 85.012708
loop_
_atom_site_label
_atom_site_type_symbol
_atom_site_fract_x
_atom_site_fract_y
_atom_site_fract_z
_atom_type_partial_charge
Cu0 Cu 0.34297 0.09905 0.05234 0.0
N1 N 0.37176 0.12435 -0.00626 0.0
N2 N 0.42508 0.15522 0.96525 0.0
C3 C 0.40872 0.13271 0.00779 0.0
C4 C 0.39713 0.16099 0.9217 0.0
C5 C 0.36403 0.14185 0.93956 0.0
O6 O 0.38327 0.0565 0.07861 0.0
C7 C 0.30281 0.17178 0.08507 0.0
O8 O 0.29136 0.16677 0.02887 0.0
H9 H 0.42291 0.12333 0.04996 0.0
H10 H 0.33598 0.1423 0.91623 0.0
N11 N 0.29626 0.07721 0.02721 0.0
N12 N 0.23235 0.0645 0.03349 0.0
C13 C 0.26332 0.07928 0.06197 0.0
C14 C 0.28605 0.06001 0.97469 0.0
C15 C 0.24669 0.05186 0.9787 0.0
C16 C 0.39631 0.0321 0.03617 0.0
O17 O 0.37565 0.03126 0.98603 0.0
H18 H 0.26195 0.09255 0.10704 0.0
H19 H 0.30529 0.05502 0.93557 0.0
O20 O 0.32658 0.14384 0.10864 0.0
H21 H 0.39956 0.17945 0.88151 0.0
H22 H 0.22959 0.03949 0.9431 0.0
Cu23 Cu 0.64523 0.60676 0.31981 0.0
N24 N 0.59971 0.59467 0.27836 0.0
N25 N 0.54389 0.56371 0.26579 0.0
C26 C 0.58256 0.55928 0.28163 0.0
C27 C 0.53716 0.6034 0.24954 0.0
C28 C 0.57154 0.62232 0.25738 0.0
O29 O 0.67695 0.55605 0.34022 0.0
C30 C 0.59465 0.6371 0.41608 0.0
O31 O 0.57717 0.60335 0.40786 0.0
H32 H 0.59745 0.53176 0.30004 0.0
H33 H 0.5746 0.65477 0.25418 0.0
N34 N 0.67531 0.63857 0.27082 0.0
N35 N 0.71497 0.68659 0.24406 0.0
C36 C 0.69939 0.66632 0.29044 0.0
C37 C 0.67549 0.64123 0.20997 0.0
C38 C 0.69992 0.67087 0.19328 0.0
C39 C 0.66524 0.52841 0.37469 0.0
O40 O 0.63143 0.53514 0.40394 0.0
H41 H 0.7042 0.67245 0.33798 0.0
H42 H 0.65845 0.62344 0.17999 0.0
O43 O 0.62702 0.64147 0.3881 0.0
H44 H 0.50865 0.61886 0.23829 0.0
H45 H 0.70594 0.68018 0.14735 0.0
Cu46 Cu 0.20675 0.94324 0.51935 0.0
N47 N 0.1823 0.91432 0.45977 0.0
N48 N 0.13629 0.87321 0.43303 0.0
C49 C 0.14487 0.90472 0.46826 0.0
C50 C 0.16938 0.86296 0.40003 0.0
C51 C 0.19787 0.88821 0.41689 0.0
O52 O 0.16666 0.98765 0.53774 0.0
C53 C 0.24234 0.8724 0.56271 0.0
O54 O 0.26298 0.87779 0.5133 0.0
H55 H 0.12604 0.91726 0.50486 0.0
H56 H 0.22872 0.8843 0.40376 0.0
N57 N 0.25474 0.96217 0.49347 0.0
N58 N 0.3165 0.98083 0.49669 0.0
C59 C 0.28273 0.97746 0.52828 0.0
C60 C 0.2714 0.95655 0.43815 0.0
C61 C 0.30966 0.96726 0.44043 0.0
C62 C 0.16086 1.01419 0.49592 0.0
O63 O 0.18674 1.0141 0.4513 0.0
H64 H 0.27911 0.98405 0.57624 0.0
H65 H 0.25738 0.94404 0.39931 0.0
O66 O 0.21694 0.90099 0.58044 0.0
H67 H 0.1737 0.83691 0.36968 0.0
H68 H 0.33117 0.96386 0.40426 0.0
Cu69 Cu 0.91531 0.44102 0.78726 0.0
N70 N 0.96678 0.44703 0.7585 0.0
N71 N 0.02984 0.46356 0.76194 0.0
C72 C 0.99126 0.47586 0.77361 0.0
C73 C 0.02923 0.42571 0.73779 0.0
C74 C 0.99068 0.41563 0.73637 0.0
O75 O 0.88744 0.49529 0.80002 0.0
C76 C 0.93011 0.37171 0.86399 0.0
O77 O 0.90913 0.35159 0.82628 0.0
H78 H 0.98125 0.50433 0.79569 0.0
H79 H 0.98107 0.38592 0.72533 0.0
N80 N 0.88812 0.41086 0.73006 0.0
N81 N 0.84884 0.36782 0.68586 0.0
C82 C 0.85769 0.38716 0.7378 0.0
C83 C 0.89794 0.40698 0.67095 0.0
C84 C 0.87392 0.38059 0.64368 0.0
C85 C 0.89937 0.51916 0.84028 0.0
O86 O 0.92831 0.50551 0.87624 0.0
H87 H 0.84287 0.38348 0.78081 0.0
H88 H 0.92178 0.42151 0.64954 0.0
O89 O 0.92792 0.41064 0.86162 0.0
H90 H 0.0549 0.40528 0.72592 0.0
H91 H 0.87583 0.37032 0.59692 0.0
Cu92 Cu 0.71866 0.85774 0.93825 0.0
N93 N 0.69594 0.83321 0.00482 0.0
N94 N 0.64296 0.81876 0.06008 0.0
C95 C 0.66189 0.84819 0.03191 0.0
C96 C 0.66681 0.78401 0.05099 0.0
C97 C 0.69897 0.79293 0.01666 0.0
O98 O 0.67238 0.89081 0.90561 0.0
C99 C 0.77528 0.79518 0.90877 0.0
O100 O 0.78946 0.80946 0.95909 0.0
H101 H 0.64958 0.8793 0.0258 0.0
H102 H 0.72059 0.77075 -0.00366 0.0
N103 N 0.75878 0.89147 0.96068 0.0
N104 N 0.81271 0.92655 0.95408 0.0
C105 C 0.79 0.90023 0.92614 0.0
C106 C 0.76187 0.91301 0.01228 0.0
C107 C 0.79499 0.93471 0.00831 0.0
C108 C 0.66775 0.92915 0.91663 0.0
O109 O 0.6993 0.94881 0.92595 0.0
H110 H 0.7955 0.88802 0.88089 0.0
H111 H 0.74105 0.91357 0.04963 0.0
O112 O 0.74292 0.81237 0.88784 0.0
H113 H 0.65995 0.75349 0.06292 0.0
H114 H 0.80534 0.9547 0.04285 0.0
Cu115 Cu 0.41007 0.50123 0.69755 0.0
N116 N 0.4409 0.48162 0.76235 0.0
N117 N 0.4806 0.42835 0.79392 0.0
C118 C 0.44471 0.44124 0.77242 0.0
C119 C 0.50018 0.46213 0.79962 0.0
C120 C 0.47533 0.49523 0.78082 0.0
O121 O 0.37311 0.45891 0.6833 0.0
C122 C 0.47208 0.53627 0.63801 0.0
O123 O 0.46164 0.56656 0.67551 0.0
H124 H 0.42487 0.42056 0.75327 0.0
H125 H 0.48417 0.52555 0.77235 0.0
N126 N 0.38218 0.55108 0.7174 0.0
N127 N 0.34176 0.60842 0.71008 0.0
C128 C 0.3593 0.57544 0.68041 0.0
C129 C 0.37919 0.56905 0.77235 0.0
C130 C 0.3543 0.60439 0.76804 0.0
C131 C 0.34883 0.45476 0.72689 0.0
O132 O 0.34706 0.48209 0.77076 0.0
H133 H 0.35606 0.56911 0.63259 0.0
H134 H 0.39371 0.55697 0.81285 0.0
O135 O 0.44993 0.50678 0.63411 0.0
H136 H 0.53156 0.46217 0.80871 0.0
H137 H 0.34584 0.62512 0.80507 0.0
Cu138 Cu 0.81566 0.17627 0.46526 0.0
N139 N 0.83559 0.20706 0.5265 0.0
N140 N 0.88153 0.2479 0.55499 0.0
C141 C 0.86028 0.23442 0.50891 0.0
C142 C 0.8686 0.22886 0.60466 0.0
C143 C 0.84011 0.20347 0.58685 0.0
O144 O 0.86271 0.14544 0.43233 0.0
C145 C 0.76255 0.23962 0.42641 0.0
O146 O 0.73999 0.22479 0.46788 0.0
H147 H 0.86618 0.2399 0.46147 0.0
H148 H 0.8266 0.18165 0.61498 0.0
N149 N 0.77784 0.14168 0.49084 0.0
N150 N 0.7301 0.09889 0.48585 0.0
C151 C 0.74968 0.12695 0.4561 0.0
C152 C 0.77585 0.12241 0.54441 0.0
C153 C 0.74661 0.09587 0.54135 0.0
C154 C 0.88111 0.11886 0.46626 0.0
O155 O 0.8646 0.10937 0.51773 0.0
H156 H 0.74492 0.13531 0.40908 0.0
H157 H 0.79525 0.12606 0.58234 0.0
O158 O 0.79449 0.21886 0.41082 0.0
H159 H 0.88108 0.23046 0.64958 0.0
H160 H 0.73863 0.07543 0.5769 0.0
Cu161 Cu 0.14511 0.56108 0.17271 0.0
N162 N 0.11033 0.57427 0.23686 0.0
N163 N 0.05924 0.60998 0.28238 0.0
C164 C 0.07803 0.60052 0.22957 0.0
C165 C 0.08067 0.58842 0.32491 0.0
C166 C 0.11206 0.56598 0.2965 0.0
O167 O 0.17217 0.6106 0.15571 0.0
C168 C 0.08443 0.52313 0.11869 0.0
O169 O 0.08888 0.50059 0.16768 0.0
H170 H 0.07054 0.61525 0.18678 0.0
H171 H 0.13568 0.54713 0.3181 0.0
N172 N 0.18249 0.51666 0.19002 0.0
N173 N 0.21623 0.45483 0.19685 0.0
C174 C 0.18301 0.47629 0.17627 0.0
C175 C 0.21675 0.52059 0.21916 0.0
C176 C 0.23747 0.48284 0.22333 0.0
C177 C 0.18552 0.63167 0.19877 0.0
O178 O 0.18195 0.61918 0.2549 0.0
H179 H 0.15959 0.46282 0.15223 0.0
H180 H 0.22629 0.54913 0.23579 0.0
O181 O 0.10917 0.54935 0.10786 0.0
H182 H 0.07552 0.59065 0.37336 0.0
H183 H 0.26639 0.47655 0.24339 0.0
Cu184 Cu 0.85462 0.60668 0.5704 0.0
N185 N 0.88249 0.62521 0.50408 0.0
N186 N 0.92503 0.66363 0.45853 0.0
C187 C 0.91479 0.64601 0.51063 0.0
C188 C 0.89795 0.65391 0.41749 0.0
C189 C 0.87186 0.62983 0.44558 0.0
O190 O 0.89627 0.57544 0.61638 0.0
C191 C 0.8081 0.67775 0.57233 0.0
O192 O 0.79819 0.66048 0.52141 0.0
H193 H 0.92812 0.65148 0.55413 0.0
H194 H 0.84514 0.61969 0.42613 0.0
N195 N 0.81331 0.57504 0.54608 0.0
N196 N 0.75462 0.54817 0.54091 0.0
C197 C 0.77754 0.57238 0.57285 0.0
C198 C 0.81257 0.55223 0.4953 0.0
C199 C 0.7768 0.53549 0.49224 0.0
C200 C 0.90914 0.54103 0.59351 0.0
O201 O 0.88928 0.52631 0.54872 0.0
H202 H 0.76849 0.58804 0.61462 0.0
H203 H 0.83631 0.54839 0.46222 0.0
O204 O 0.83183 0.65735 0.60786 0.0
H205 H 0.89536 0.66611 0.37198 0.0
H206 H 0.76748 0.51629 0.456 0.0
Cu207 Cu 0.14467 0.11823 0.82855 0.0
N208 N 0.0903 0.11111 0.81986 0.0
N209 N 0.03265 0.08261 0.82769 0.0
C210 C 0.07253 0.07645 0.83032 0.0
C211 C 0.02486 0.12239 0.81367 0.0
C212 C 0.06043 0.1399 0.80882 0.0
O213 O 0.17556 0.06616 0.81085 0.0
C214 C 0.14436 0.16193 0.94575 0.0
O215 O 0.15875 0.16438 0.00061 0.0
H216 H 0.08822 0.04746 0.8417 0.0
H217 H 0.0642 0.1717 0.79972 0.0
N218 N 0.16218 0.16046 0.78069 0.0
N219 N 0.19716 0.21294 0.7548 0.0
C220 C 0.19221 0.18294 0.79545 0.0
C221 C 0.14767 0.17641 0.7284 0.0
C222 C 0.1692 0.20872 0.71228 0.0
C223 C 0.17348 0.03914 0.85171 0.0
O224 O 0.15171 0.04874 0.89992 0.0
H225 H 0.20969 0.17756 0.83601 0.0
H226 H 0.12261 0.16595 0.70449 0.0
O227 O 0.15569 0.13102 0.91293 0.0
H228 H 0.99552 0.13764 0.80772 0.0
H229 H 0.16363 0.22848 0.67353 0.0
Cu230 Cu 0.71687 0.43051 0.01576 0.0
N231 N 0.6967 0.39316 0.96378 0.0
N232 N 0.6591 0.34191 0.94648 0.0
C233 C 0.6642 0.37524 0.98023 0.0
C234 C 0.68937 0.33924 0.90604 0.0
C235 C 0.71289 0.37081 0.91725 0.0
O236 O 0.67208 0.47198 0.02737 0.0
C237 C 0.76176 0.36798 0.06807 0.0
O238 O 0.78283 0.37538 0.01983 0.0
H239 H 0.64599 0.38531 0.01886 0.0
H240 H 0.7412 0.37508 0.8964 0.0
N241 N 0.76079 0.45433 0.98316 0.0
N242 N 0.81808 0.48293 0.97793 0.0
C243 C 0.79121 0.46758 0.01473 0.0
C244 C 0.76924 0.46116 0.92442 0.0
C245 C 0.80453 0.47907 0.92114 0.0
C246 C 0.66079 0.48827 0.97715 0.0
O247 O 0.68148 0.47779 0.92817 0.0
H248 H 0.79385 0.46554 0.06357 0.0
H249 H 0.7514 0.45305 0.88644 0.0
O250 O 0.73283 0.39382 0.08257 0.0
H251 H 0.69557 0.31467 0.87367 0.0
H252 H 0.8197 0.48736 0.8803 0.0
Cu253 Cu 0.3998 0.94754 0.30258 0.0
N254 N 0.44785 0.96363 0.27271 0.0
N255 N 0.50878 0.98421 0.28384 0.0
C256 C 0.48218 0.95884 0.30339 0.0
C257 C 0.49056 1.00534 0.23791 0.0
C258 C 0.45297 0.99269 0.23136 0.0
O259 O 0.37131 0.99836 0.3328 0.0
C260 C 0.43706 0.87701 0.34748 0.0
O261 O 0.44809 0.87486 0.29025 0.0
H262 H 0.4858 0.94059 0.34384 0.0
H263 H 0.42969 1.00659 0.20289 0.0
N264 N 0.37161 0.92171 0.24235 0.0
N265 N 0.33587 0.876 0.19619 0.0
C266 C 0.34898 0.89009 0.24976 0.0
C267 C 0.37307 0.92784 0.18221 0.0
C268 C 0.35114 0.89997 0.15377 0.0
C269 C 0.39012 1.02126 0.36716 0.0
O270 O 0.4259 1.00805 0.38481 0.0
H271 H 0.3428 0.87748 0.2937 0.0
H272 H 0.38983 0.95028 0.16036 0.0
O273 O 0.41362 0.90721 0.36532 0.0
H274 H 0.50228 0.03025 0.21369 0.0
H275 H 0.34784 0.8971 0.10523 0.0
Cu276 Cu 0.21989 0.37198 0.44166 0.0
N277 N 0.18109 0.3575 0.38692 0.0
N278 N 0.12161 0.33383 0.37377 0.0
C279 C 0.14207 0.36272 0.39957 0.0
C280 C 0.14859 0.31124 0.33963 0.0
C281 C 0.18512 0.3262 0.34714 0.0
O282 O 0.19241 0.39996 0.51047 0.0
C283 C 0.24298 0.28689 0.46298 0.0
O284 O 0.20481 0.28291 0.4621 0.0
H285 H 0.1299 0.38271 0.43521 0.0
H286 H 0.21329 0.31084 0.33322 0.0
N287 N 0.2499 0.41062 0.40685 0.0
N288 N 0.30155 0.44291 0.37506 0.0
C289 C 0.2892 0.40746 0.39602 0.0
C290 C 0.23696 0.44936 0.39317 0.0
C291 C 0.26873 0.46938 0.37353 0.0
C292 C 0.16572 0.38449 0.54142 0.0
O293 O 0.16143 0.34533 0.53541 0.0
H294 H 0.30823 0.37973 0.40345 0.0
H295 H 0.20665 0.46231 0.3984 0.0
O296 O 0.25502 0.32267 0.4602 0.0
H297 H 0.14371 0.2821 0.31906 0.0
H298 H 0.26782 0.50119 0.36042 0.0
Cu299 Cu 0.90381 0.98818 0.20761 0.0
N300 N 0.93187 0.95531 0.26421 0.0
N301 N 0.95701 0.89385 0.29571 0.0
C302 C 0.94131 0.91594 0.24925 0.0
C303 C 0.95843 0.92072 0.34212 0.0
C304 C 0.94266 0.95888 0.32254 0.0
O305 O 0.86643 0.95012 0.18027 0.0
C306 C 0.96456 0.03111 0.1765 0.0
O307 O 0.9559 0.04248 0.23258 0.0
H308 H 0.93497 0.90329 0.20529 0.0
H309 H 0.9378 0.98646 0.34956 0.0
N310 N 0.8749 0.03621 0.23515 0.0
N311 N 0.83896 0.09638 0.22427 0.0
C312 C 0.85768 0.06347 0.19607 0.0
C313 C 0.86723 0.05229 0.2907 0.0
C314 C 0.845 0.08948 0.2841 0.0
C315 C 0.84356 0.94156 0.22381 0.0
O316 O 0.84183 0.96519 0.27212 0.0
H317 H 0.86001 0.05937 0.14744 0.0
H318 H 0.87717 0.03819 0.33281 0.0
O319 O 0.94405 1.00492 0.15154 0.0
H320 H 0.96785 0.91294 0.38771 0.0
H321 H 0.83416 0.10965 0.32059 0.0
Cu322 Cu 0.32853 0.68783 0.96361 0.0
N323 N 0.34129 0.70939 0.03905 0.0
N324 N 0.37815 0.74617 0.09845 0.0
C325 C 0.36236 0.74219 0.04304 0.0
C326 C 0.3662 0.71478 0.13109 0.0
C327 C 0.34304 0.69234 0.09455 0.0
O328 O 0.37609 0.65526 0.93644 0.0
C329 C 0.28754 0.75992 0.93451 0.0
O330 O 0.2679 0.74796 0.9818 0.0
H331 H 0.37009 0.75976 0.00392 0.0
H332 H 0.33203 0.66339 0.10596 0.0
N333 N 0.28508 0.65594 0.96642 0.0
N334 N 0.23613 0.61865 0.93702 0.0
C335 C 0.26839 0.63731 0.91948 0.0
C336 C 0.26286 0.64839 0.01518 0.0
C337 C 0.2326 0.62559 -0.00278 0.0
C338 C 0.39092 0.6268 0.97079 0.0
O339 O 0.37138 0.6176 0.01974 0.0
H340 H 0.27925 0.63805 0.87325 0.0
H341 H 0.26824 0.6588 0.06062 0.0
O342 O 0.31594 0.7359 0.91358 0.0
H343 H 0.37665 0.70647 0.17602 0.0
H344 H 0.21012 0.61439 0.02634 0.0
Cu345 Cu 0.64375 0.06573 0.65335 0.0
N346 N 0.60393 0.08424 0.70645 0.0
N347 N 0.5484 0.12423 0.72353 0.0
C348 C 0.58332 0.11978 0.694 0.0
C349 C 0.54721 0.09019 0.7575 0.0
C350 C 0.58139 0.06493 0.74569 0.0
O351 O 0.67543 0.11185 0.6385 0.0
C352 C 0.5911 0.02265 0.58882 0.0
O353 O 0.60001 0.99563 0.63145 0.0
H354 H 0.5934 0.14152 0.66183 0.0
H355 H 0.58807 0.03395 0.7615 0.0
N356 N 0.67458 1.0196 0.68095 0.0
N357 N 0.71019 0.95888 0.67717 0.0
C358 C 0.68922 0.98847 0.64546 0.0
C359 C 0.6865 1.00963 0.7375 0.0
C360 C 0.70847 0.9721 0.73535 0.0
C361 C 0.69298 0.12865 0.6819 0.0
O362 O 0.69166 0.11286 0.73645 0.0
H363 H 0.68332 0.98719 0.59743 0.0
H364 H 0.67957 0.02822 0.77742 0.0
O365 O 0.61194 0.053 0.58382 0.0
H366 H 0.52298 0.0836 0.78709 0.0
H367 H 0.7222 0.95606 0.77363 0.0
H368 H 0.59112 0.92448 0.874 0.0
H369 H 0.65831 0.97313 0.02041 0.0
H370 H 0.59628 0.99953 0.07113 0.0
H371 H 0.5176 1.01318 0.87255 0.0
H372 H 0.47728 0.98348 0.85243 0.0
H373 H 0.52709 0.96686 0.82875 0.0
H374 H 0.52069 0.897 0.87999 0.0
H375 H 0.47113 0.91353 0.90506 0.0
H376 H 0.50801 0.8952 0.95929 0.0
H377 H 0.52723 0.0224 0.10544 0.0
H378 H 0.45584 0.04429 0.11691 0.0
H379 H 0.43246 0.98167 0.94885 0.0
C380 C 0.5926 0.94071 0.91667 0.0
C381 C 0.62958 0.94683 0.94312 0.0
C382 C 0.63038 0.96855 -0.0012 0.0
C383 C 0.59525 0.98338 0.02834 0.0
C384 C 0.55928 0.97692 0.00133 0.0
C385 C 0.55761 0.95675 0.94625 0.0
C386 C 0.515 0.9568 0.92515 0.0
C387 C 0.50889 0.98154 0.86625 0.0
C388 C 0.50301 0.91303 0.91694 0.0
C389 C 0.4931 0.97858 0.97809 0.0
C390 C 0.51926 0.99016 0.02134 0.0
C391 C 0.5063 1.01292 0.07243 0.0
C392 C 0.4656 0.02487 0.07898 0.0
C393 C 0.43817 1.01384 0.03493 0.0
C394 C 0.45236 0.98987 0.98428 0.0
H395 H 0.79906 0.89655 0.14769 0.0
H396 H 0.86064 0.89304 0.31976 0.0
H397 H 0.83848 0.82489 0.34068 0.0
H398 H 0.71576 0.85438 0.20702 0.0
H399 H 0.70459 0.82354 0.14322 0.0
H400 H 0.72873 0.86966 0.13168 0.0
H401 H 0.7869 0.83227 0.07603 0.0
H402 H 0.76664 0.78337 0.0831 0.0
H403 H 0.81538 0.78979 0.11087 0.0
H404 H 0.80653 0.75885 0.34584 0.0
H405 H 0.7657 0.70053 0.3356 0.0
H406 H 0.72203 0.748 0.16277 0.0
C407 C 0.80844 0.88095 0.18904 0.0
C408 C 0.83189 0.89967 0.23176 0.0
C409 C 0.84262 0.87904 0.28641 0.0
C410 C 0.83036 0.84027 0.29865 0.0
C411 C 0.80674 0.82272 0.2562 0.0
C412 C 0.79563 0.84244 0.20279 0.0
C413 C 0.76726 0.81832 0.16765 0.0
C414 C 0.72674 0.84298 0.16189 0.0
C415 C 0.78504 0.80521 0.10565 0.0
C416 C 0.7645 0.7819 0.20896 0.0
C417 C 0.78757 0.78501 0.25986 0.0
C418 C 0.78846 0.75601 0.30594 0.0
C419 C 0.7649 0.72311 0.29992 0.0
C420 C 0.74053 0.7195 0.24838 0.0
C421 C 0.74077 0.7493 0.2022 0.0
H422 H 0.08951 1.00065 0.54973 0.0
H423 H 0.14384 0.08007 0.42289 0.0
H424 H 0.07778 0.11278 0.39676 0.0
H425 H 1.00518 0.985 0.45869 0.0
H426 H 0.97108 0.98498 0.5217 0.0
H427 H 1.02272 0.96863 0.53246 0.0
H428 H 0.02703 0.02245 0.61829 0.0
H429 H 0.97526 0.03838 0.60848 0.0
H430 H 1.01146 0.07537 0.60343 0.0
H431 H 1.00535 0.13487 0.38079 0.0
H432 H 0.93265 0.15044 0.38596 0.0
H433 H 0.92561 0.05692 0.5233 0.0
C434 C 0.0876 0.02555 0.51752 0.0
C435 C 0.12193 0.03799 0.48868 0.0
C436 C 0.11798 0.07012 0.44576 0.0
C437 C 0.08056 0.08873 0.4303 0.0
C438 C 0.04723 0.07487 0.45802 0.0
C439 C 0.05039 0.04438 0.50129 0.0
C440 C 1.00986 0.03501 0.52403 0.0
C441 C 1.00175 0.99079 0.50827 0.0
C442 C 1.00566 0.04332 0.59261 0.0
C443 C 0.98352 0.06552 0.48764 0.0
C444 C 1.00559 0.08777 0.44912 0.0
C445 C 0.98776 0.11773 0.41097 0.0
C446 C 0.94639 0.12617 0.41388 0.0
C447 C 0.92339 0.105 0.45509 0.0
C448 C 0.94232 0.07368 0.49132 0.0
H449 H 0.74238 0.1658 0.75996 0.0
H450 H 0.68663 0.17956 0.5835 0.0
H451 H 0.71662 0.24498 0.56991 0.0
H452 H 0.73084 0.27511 0.79535 0.0
H453 H 0.77688 0.2746 0.83616 0.0
H454 H 0.74988 0.22963 0.8347 0.0
H455 H 0.81135 0.18702 0.79283 0.0
H456 H 0.83926 0.23129 0.79292 0.0
H457 H 0.83465 0.20235 0.72412 0.0
H458 H 0.76032 0.30293 0.56717 0.0
H459 H 0.80489 0.35734 0.58594 0.0
H460 H 0.83089 0.30822 0.76493 0.0
C461 C 0.73702 0.18214 0.71783 0.0
C462 C 0.71264 0.16699 0.67228 0.0
C463 C 0.70581 0.18988 0.61848 0.0
C464 C 0.72309 0.22682 0.60988 0.0
C465 C 0.74792 0.24013 0.65457 0.0
C466 C 0.75448 0.21888 0.70798 0.0
C467 C 0.78107 0.24106 0.7499 0.0
C468 C 0.75833 0.25598 0.80749 0.0
C469 C 0.81882 0.21384 0.76581 0.0
C470 C 0.7901 0.27691 0.71023 0.0
C471 C 0.77038 0.27586 0.65558 0.0
C472 C 0.77528 0.30453 0.61028 0.0
C473 C 0.80079 0.33522 0.6212 0.0
C474 C 0.82097 0.33738 0.67711 0.0
C475 C 0.81521 0.30789 0.72231 0.0
H476 H 0.22499 0.25963 0.663 0.0
H477 H 0.2302 0.24011 0.85776 0.0
H478 H 0.2727 0.2963 0.8682 0.0
H479 H 0.3286 0.2877 0.64697 0.0
H480 H 0.31564 0.32569 0.58997 0.0
H481 H 0.28771 0.28161 0.59672 0.0
H482 H 0.22354 0.32909 0.60846 0.0
H483 H 0.25116 0.37338 0.60233 0.0
H484 H 0.21953 0.36763 0.66727 0.0
H485 H 0.30946 0.35715 0.86072 0.0
H486 H 0.34112 0.41933 0.83545 0.0
H487 H 0.31593 0.4017 0.64463 0.0
C488 C 0.23524 0.26703 0.70778 0.0
C489 C 0.22393 0.245 0.75958 0.0
C490 C 0.23841 0.25576 0.81719 0.0
C491 C 0.26267 0.28789 0.82371 0.0
C492 C 0.27286 0.30905 0.77216 0.0
C493 C 0.26008 0.299 0.71514 0.0
C494 C 0.27499 0.32782 0.66774 0.0
C495 C 0.30344 0.3043 0.6227 0.0
C496 C 0.24021 0.35092 0.63453 0.0
C497 C 0.29678 0.3565 0.70757 0.0
C498 C 0.29521 0.34455 0.76757 0.0
C499 C 0.31119 0.36665 0.8139 0.0
C500 C 0.32892 0.40218 0.79898 0.0
C501 C 0.33093 0.41562 0.73811 0.0
C502 C 0.31515 0.39203 0.69148 0.0
H503 H 0.31827 0.8158 0.27628 0.0
H504 H 0.29695 0.85873 0.09205 0.0
H505 H 0.25624 0.80186 0.07353 0.0
H506 H 0.32337 0.70692 0.24666 0.0
H507 H 0.2974 0.69701 0.31556 0.0
H508 H 0.32623 0.74051 0.31114 0.0
H509 H 0.26251 0.7861 0.34446 0.0
H510 H 0.23425 0.74206 0.34495 0.0
H511 H 0.2184 0.78572 0.29916 0.0
H512 H 0.21678 0.73985 0.07406 0.0
H513 H 0.18394 0.67679 0.09391 0.0
H514 H 0.22975 0.67427 0.2774 0.0
C515 C 0.30512 0.81351 0.23198 0.0
C516 C 0.31156 0.84222 0.18569 0.0
C517 C 0.29349 0.83731 0.12837 0.0
C518 C 0.26999 0.80493 0.11723 0.0
C519 C 0.26442 0.77734 0.16363 0.0
C520 C 0.28137 0.78131 0.21998 0.0
C521 C 0.26978 0.74797 0.26255 0.0
C522 C 0.30641 0.7216 0.28528 0.0
C523 C 0.24476 0.76658 0.31593 0.0
C524 C 0.24496 0.72385 0.22053 0.0
C525 C 0.24174 0.74166 0.16395 0.0
C526 C 0.21964 0.72535 0.11795 0.0
C527 C 0.20112 0.68941 0.12958 0.0
C528 C 0.20479 0.67 0.18673 0.0
C529 C 0.22665 0.68799 0.23291 0.0
H530 H 0.93967 0.46592 0.55654 0.0
H531 H 0.97066 0.57286 0.65574 0.0
H532 H 0.04094 0.54386 0.6578 0.0
H533 H 1.00555 0.3865 0.62177 0.0
H534 H 1.01566 0.36329 0.54929 0.0
H535 H 0.9688 0.39211 0.56286 0.0
H536 H 0.98371 0.43902 0.46741 0.0
H537 H 0.02908 0.40635 0.45732 0.0
H538 H 0.03041 0.46082 0.46492 0.0
H539 H 0.11045 0.50684 0.63018 0.0
H540 H 0.16812 0.45846 0.60071 0.0
H541 H 0.08775 0.37476 0.52929 0.0
C542 C 0.96088 0.48295 0.58025 0.0
C543 C 0.94949 0.52158 0.60635 0.0
C544 C 0.97855 0.54301 0.63589 0.0
C545 C 1.01861 0.52695 0.63667 0.0
C546 C 0.02894 0.48938 0.6081 0.0
C547 C 1.00055 0.46745 0.58153 0.0
C548 C 1.01891 0.42937 0.55021 0.0
C549 C 1.00105 0.39062 0.57244 0.0
C550 C 1.01528 0.43405 0.48091 0.0
C551 C 0.06152 0.43053 0.56897 0.0
C552 C 0.06752 0.46667 0.59855 0.0
C553 C 0.10579 0.47765 0.60967 0.0
C554 C 0.13834 0.45004 0.59295 0.0
C555 C 0.13229 0.41196 0.56561 0.0
C556 C 0.09331 0.40241 0.55356 0.0
H557 H 0.43894 0.58289 0.05163 0.0
H558 H 0.43506 0.62772 0.86647 0.0
H559 H 0.50435 0.59926 0.85093 0.0
H560 H 0.53972 0.60469 0.08141 0.0
H561 H 0.55102 0.55962 0.12667 0.0
H562 H 0.50092 0.58299 0.1234 0.0
H563 H 0.4765 0.51421 0.08864 0.0
H564 H 0.52645 0.49061 0.09198 0.0
H565 H 0.49865 0.48856 0.02267 0.0
H566 H 0.57351 0.56822 0.85588 0.0
H567 H 0.63786 0.53125 0.87699 0.0
H568 H 0.59836 0.50486 0.05947 0.0
C569 C 0.45255 0.58644 0.00761 0.0
C570 C 0.43157 0.60755 0.96009 0.0
C571 C 0.45058 0.61185 0.90347 0.0
C572 C 0.48992 0.59587 0.89432 0.0
C573 C 0.50994 0.57597 0.9424 0.0
C574 C 0.49196 0.57096 -0.00214 0.0
C575 C 0.52037 0.54829 0.04189 0.0
C576 C 0.52848 0.57553 0.09657 0.0
C577 C 0.50454 0.50802 0.06246 0.0
C578 C 0.55699 0.54063 0.002 0.0
C579 C 0.5502 0.55743 0.94513 0.0
C580 C 0.57914 0.55481 0.90011 0.0
C581 C 0.61573 0.53367 0.91278 0.0
C582 C 0.62331 0.51484 0.9699 0.0
C583 C 0.59363 0.51902 0.01554 0.0
H584 H 0.20134 0.40107 0.10583 0.0
H585 H 0.25747 0.40984 0.28046 0.0
H586 H 0.28129 0.33696 0.2756 0.0
H587 H 0.17275 0.2952 0.1226 0.0
H588 H 0.18423 0.28208 0.0446 0.0
H589 H 0.16784 0.33408 0.06495 0.0
H590 H 0.23094 0.35883 0.01511 0.0
H591 H 0.2474 0.30695 -0.00522 0.0
H592 H 0.279 0.33695 0.03893 0.0
H593 H 0.30282 0.26367 0.24893 0.0
H594 H 0.32211 0.1966 0.2003 0.0
H595 H 0.25341 0.2353 0.04175 0.0
C596 C 0.21788 0.38733 0.1435 0.0
C597 C 0.22726 0.41123 0.19414 0.0
C598 C 0.24989 0.39224 0.24167 0.0
C599 C 0.26348 0.35073 0.23925 0.0
C600 C 0.25438 0.32814 0.1885 0.0
C601 C 0.23216 0.34571 0.14132 0.0
C602 C 0.2292 0.3152 0.08996 0.0
C603 C 0.18593 0.3061 0.07997 0.0
C604 C 0.24775 0.33039 0.03125 0.0
C605 C 0.25365 0.27823 0.11541 0.0
C606 C 0.26755 0.28613 0.17258 0.0
C607 C 0.29191 0.25701 0.20423 0.0
C608 C 0.30277 0.21899 0.17631 0.0
C609 C 0.28943 0.21052 0.11723 0.0
C610 C 0.26413 0.24056 0.08706 0.0
H611 H 0.32408 0.50023 0.29587 0.0
H612 H 0.36982 0.40545 0.41994 0.0
H613 H 0.43795 0.42179 0.39685 0.0
H614 H 0.40555 0.48562 0.18374 0.0
H615 H 0.40504 0.53959 0.16874 0.0
H616 H 0.35994 0.51802 0.19065 0.0
H617 H 0.35069 0.56962 0.27999 0.0
H618 H 0.39562 0.59133 0.25828 0.0
H619 H 0.39003 0.57244 0.33423 0.0
H620 H 0.50026 0.45214 0.36742 0.0
H621 H 0.55238 0.49442 0.33547 0.0
H622 H 0.46685 0.56882 0.22727 0.0
C623 C 0.34837 0.48263 0.31782 0.0
C624 C 0.34146 0.45132 0.35952 0.0
C625 C 0.37425 0.42907 0.38714 0.0
C626 C 0.41311 0.4382 0.37439 0.0
C627 C 0.41877 0.46937 0.33339 0.0
C628 C 0.38735 0.49113 0.30521 0.0
C629 C 0.40149 0.52446 0.26516 0.0
C630 C 0.39246 0.51643 0.19809 0.0
C631 C 0.38339 0.56697 0.28568 0.0
C632 C 0.44566 0.51898 0.27704 0.0
C633 C 0.45497 0.48673 0.31592 0.0
C634 C 0.49343 0.47709 0.3362 0.0
C635 C 0.52307 0.50149 0.31728 0.0
C636 C 0.51427 0.53552 0.27843 0.0
C637 C 0.47497 0.54345 0.25709 0.0
H638 H 0.26361 0.84099 0.67415 0.0
H639 H 0.2217 0.80884 0.49652 0.0
H640 H 0.23431 0.73551 0.52055 0.0
H641 H 0.3425 0.77098 0.678 0.0
H642 H 0.33963 0.75795 0.75705 0.0
H643 H 0.31909 0.80725 0.73126 0.0
H644 H 0.24895 0.79333 0.77621 0.0
H645 H 0.27112 0.74472 0.80362 0.0
H646 H 0.22817 0.7467 0.75582 0.0
H647 H 0.26189 0.66674 0.55709 0.0
H648 H 0.30002 0.60807 0.60443 0.0
H649 H 0.32587 0.68506 0.75736 0.0
C650 C 0.25547 0.81836 0.64168 0.0
C651 C 0.2411 0.8302 0.58407 0.0
C652 C 0.2322 0.80004 0.54135 0.0
C653 C 0.23926 0.75836 0.55456 0.0
C654 C 0.25513 0.74738 0.61087 0.0
C655 C 0.26258 0.77645 0.6541 0.0
C656 C 0.28351 0.75664 0.70826 0.0
C657 C 0.32352 0.77427 0.71935 0.0
C658 C 0.2564 0.76064 0.76442 0.0
C659 C 0.28922 0.71263 0.68708 0.0
C660 C 0.27173 0.70767 0.63148 0.0
C661 C 0.2752 0.67019 0.60113 0.0
C662 C 0.29738 0.63706 0.62819 0.0
C663 C 0.31636 0.64168 0.68474 0.0
C664 C 0.31144 0.67999 0.71472 0.0
H665 H 0.03496 0.52702 0.84273 0.0
H666 H 0.1057 0.44453 0.72249 0.0
H667 H 0.16482 0.47925 0.74754 0.0
H668 H 0.08568 0.61844 0.82188 0.0
H669 H 0.08367 0.63199 0.90124 0.0
H670 H 0.04571 0.60353 0.86894 0.0
H671 H 0.06001 0.54598 0.94803 0.0
H672 H 0.09699 0.57536 0.98159 0.0
H673 H 0.10993 0.52333 0.95757 0.0
H674 H 0.21704 0.52401 0.78512 0.0
H675 H 0.25914 0.56806 0.84347 0.0
H676 H 0.15636 0.61595 0.94753 0.0
C677 C 0.06255 0.51668 0.82045 0.0
C678 C 0.06476 0.48393 0.77804 0.0
C679 C 0.10238 0.47033 0.75316 0.0
C680 C 0.13644 0.48988 0.76729 0.0
C681 C 0.133 0.52236 0.80829 0.0
C682 C 0.09719 0.53504 0.83556 0.0
C683 C 0.10241 0.56753 0.88327 0.0
C684 C 0.07791 0.60776 0.86787 0.0
C685 C 0.09172 0.55214 0.94643 0.0
C686 C 0.14655 0.57171 0.87776 0.0
C687 C 0.16359 0.54575 0.8336 0.0
C688 C 0.204 0.54429 0.82003 0.0
C689 C 0.22768 0.56951 0.85316 0.0
C690 C 0.21109 0.59521 0.90018 0.0
C691 C 0.1699 0.59636 0.91218 0.0
H692 H 0.82305 0.55729 0.83223 0.0
H693 H 0.94648 0.58091 0.84987 0.0
H694 H 0.92721 0.65503 0.85324 0.0
H695 H 0.78854 0.64973 0.74432 0.0
H696 H 0.74262 0.65826 0.786 0.0
H697 H 0.76567 0.60701 0.77622 0.0
H698 H 0.76599 0.59661 0.8927 0.0
H699 H 0.74249 0.64755 0.90276 0.0
H700 H 0.78856 0.63266 0.94047 0.0
H701 H 0.89583 0.72518 0.86191 0.0
H702 H 0.85354 0.78777 0.88754 0.0
H703 H 0.74878 0.72172 0.86976 0.0
C704 C 0.84592 0.57826 0.83553 0.0
C705 C 0.88637 0.56346 0.83999 0.0
C706 C 0.91541 0.59163 0.84616 0.0
C707 C 0.90475 0.63381 0.8477 0.0
C708 C 0.86476 0.64757 0.84385 0.0
C709 C 0.83561 0.62079 0.83878 0.0
C710 C 0.79463 0.64385 0.84295 0.0
C711 C 0.77151 0.63944 0.78384 0.0
C712 C 0.77156 0.62931 0.89798 0.0
C713 C 0.80544 0.68759 0.85174 0.0
C714 C 0.84616 0.68879 0.85095 0.0
C715 C 0.86392 0.72476 0.86193 0.0
C716 C 0.83965 0.7602 0.87634 0.0
C717 C 0.79797 0.75977 0.87947 0.0
C718 C 0.7805 0.72318 0.86561 0.0
H719 H 0.52969 0.58963 0.6516 0.0
H720 H 0.50803 0.47356 0.56838 0.0
H721 H 0.57855 0.46349 0.53755 0.0
H722 H 0.60051 0.62029 0.54071 0.0
H723 H 0.63047 0.64308 0.5965 0.0
H724 H 0.57806 0.64134 0.60952 0.0
H725 H 0.59352 0.60382 0.71126 0.0
H726 H 0.64594 0.6047 0.69756 0.0
H727 H 0.62522 0.55678 0.71105 0.0
H728 H 0.65225 0.46385 0.5229 0.0
H729 H 0.7219 0.47864 0.50982 0.0
H730 H 0.696 0.59532 0.60121 0.0
C731 C 0.53952 0.56231 0.62611 0.0
C732 C 0.51303 0.53243 0.61222 0.0
C733 C 0.52748 0.497 0.57929 0.0
C734 C 0.56761 0.49089 0.56197 0.0
C735 C 0.59302 0.52042 0.57797 0.0
C736 C 0.57947 0.55565 0.60869 0.0
C737 C 0.61302 0.58249 0.62068 0.0
C738 C 0.60503 0.62433 0.59007 0.0
C739 C 0.61982 0.58722 0.6892 0.0
C740 C 0.6475 0.55724 0.59076 0.0
C741 C 0.63534 0.52125 0.56741 0.0
C742 C 0.66189 0.49236 0.53929 0.0
C743 C 0.70145 0.5011 0.5322 0.0
C744 C 0.71447 0.5385 0.55342 0.0
C745 C 0.6871 0.56652 0.58429 0.0
H746 H 0.69297 0.28815 0.43673 0.0
H747 H 0.81532 0.28972 0.37837 0.0
H748 H 0.8036 0.36349 0.35583 0.0
H749 H 0.64989 0.36148 0.32689 0.0
H750 H 0.61415 0.38465 0.38035 0.0
H751 H 0.63174 0.33152 0.38771 0.0
H752 H 0.65453 0.3444 0.49842 0.0
H753 H 0.63524 0.39687 0.49073 0.0
H754 H 0.68618 0.38479 0.51258 0.0
H755 H 0.77854 0.43824 0.34295 0.0
H756 H 0.74248 0.50715 0.34095 0.0
H757 H 0.63728 0.45647 0.41073 0.0
C758 C 0.71716 0.30388 0.41841 0.0
C759 C 0.75482 0.28294 0.40796 0.0
C760 C 0.78592 0.30484 0.3851 0.0
C761 C 0.77961 0.34685 0.37263 0.0
C762 C 0.74213 0.36662 0.38383 0.0
C763 C 0.71144 0.34578 0.40612 0.0
C764 C 0.67434 0.37426 0.41625 0.0
C765 C 0.64054 0.36226 0.37535 0.0
C766 C 0.66189 0.37515 0.4835 0.0
C767 C 0.68901 0.41454 0.39684 0.0
C768 C 0.72811 0.40953 0.37795 0.0
C769 C 0.74793 0.44248 0.3577 0.0
C770 C 0.72722 0.48149 0.3567 0.0
C771 C 0.68727 0.48734 0.37655 0.0
C772 C 0.66802 0.45321 0.39635 0.0
H773 H 0.03819 0.46012 0.10175 0.0
H774 H 0.04368 0.58932 0.06621 0.0
H775 H 0.97586 0.59304 0.02418 0.0
H776 H 0.97972 0.43781 0.96702 0.0
H777 H 0.95211 0.40184 0.00732 0.0
H778 H 1.00223 0.40898 0.02915 0.0
H779 H 0.97787 0.42563 0.13905 0.0
H780 H 0.92764 0.41918 0.11727 0.0
H781 H 0.93952 0.46643 0.15184 0.0
H782 H 0.90553 0.58328 -0.00818 0.0
H783 H 0.83974 0.55951 0.96706 0.0
H784 H 0.88001 0.43756 0.02609 0.0
C785 C 0.02537 0.48898 0.08394 0.0
C786 C 0.04644 0.52422 0.08588 0.0
C787 C 0.02842 0.56171 0.06358 0.0
C788 C 0.98982 0.56417 0.04009 0.0
C789 C 0.96961 0.52892 0.03962 0.0
C790 C 0.98693 0.49193 0.06045 0.0
C791 C 0.95852 0.45885 0.05686 0.0
C792 C 0.97408 0.42485 0.01246 0.0
C793 C 0.95042 0.44152 0.12002 0.0
C794 C 0.92219 0.48313 0.03205 0.0
C795 C 0.92918 0.52347 0.02207 0.0
C796 C 0.89985 0.55174 -0.00069 0.0
C797 C 0.86274 0.53815 0.98537 0.0
C798 C 0.85536 0.49696 -0.00515 0.0
C799 C 0.88525 0.46927 0.01895 0.0
H800 H 0.79322 0.72265 0.67864 0.0
H801 H 0.79965 0.73298 0.48253 0.0
H802 H 0.78003 0.80658 0.48995 0.0
H803 H 0.70699 0.78992 0.69741 0.0
H804 H 0.72171 0.81394 0.76631 0.0
H805 H 0.74093 0.76236 0.74856 0.0
H806 H 0.81371 0.78192 0.75448 0.0
H807 H 0.79409 0.83266 0.77716 0.0
H808 H 0.82754 0.82575 0.71334 0.0
H809 H 0.75828 0.87761 0.51622 0.0
H810 H 0.73109 0.94287 0.55967 0.0
H811 H 0.73352 0.88843 0.73932 0.0
C812 C 0.79097 0.74068 0.63757 0.0
C813 C 0.79792 0.72214 0.58002 0.0
C814 C 0.79417 0.74647 0.52707 0.0
C815 C 0.7833 0.78841 0.53075 0.0
C816 C 0.776 0.80576 0.58775 0.0
C817 C 0.77945 0.78291 0.64031 0.0
C818 C 0.76731 0.80935 0.69521 0.0
C819 C 0.73215 0.79289 0.72885 0.0
C820 C 0.80275 0.81265 0.73763 0.0
C821 C 0.75545 0.85006 0.6648 0.0
C822 C 0.76161 0.84722 0.60295 0.0
C823 C 0.75308 0.88028 0.56461 0.0
C824 C 0.73721 0.91729 0.58989 0.0
C825 C 0.72925 0.92105 0.65302 0.0
C826 C 0.73918 0.8869 0.691 0.0
H827 H 0.83926 1.00131 0.97743 0.0
H828 H 0.86708 0.88822 0.87761 0.0
H829 H 0.9276 0.91531 0.8367 0.0
H830 H 0.86977 0.06804 0.86278 0.0
H831 H 0.89037 0.10312 0.91449 0.0
H832 H 0.85051 0.0741 0.93901 0.0
H833 H 0.89306 0.04525 0.02904 0.0
H834 H 0.933 0.07436 0.00494 0.0
H835 H 0.94153 1.01983 0.01435 0.0
H836 H 0.98607 0.95444 0.80778 0.0
H837 H 0.03483 1.00484 0.78667 0.0
H838 H 0.96724 0.09403 0.8998 0.0
C839 C 0.8583 0.98209 0.94747 0.0
C840 C 0.84835 0.9425 0.93084 0.0
C841 C 0.87381 0.91868 0.89063 0.0
C842 C 0.90843 0.93374 0.86748 0.0
C843 C 0.91725 0.97289 0.88452 0.0
C844 C 0.8928 0.99689 0.92333 0.0
C845 C 0.90825 0.03858 0.93247 0.0
C846 C 0.87792 0.07299 0.91088 0.0
C847 C 0.91962 0.04486 -0.00085 0.0
C848 C 0.94474 0.03456 0.8918 0.0
C849 C 0.94986 0.99611 0.86558 0.0
C850 C 0.98216 0.98471 0.82774 0.0
C851 C 1.00971 1.0134 0.81602 0.0
C852 C 1.00442 0.05332 0.84088 0.0
C853 C 0.97151 0.0639 0.87937 0.0
H854 H 0.82002 0.17284 0.27311 0.0
H855 H 0.81095 0.10081 0.10861 0.0
H856 H 0.78357 0.16196 0.055 0.0
H857 H 0.72481 0.24094 0.23928 0.0
H858 H 0.74488 0.28368 0.27562 0.0
H859 H 0.75852 0.23197 0.30115 0.0
H860 H 0.8331 0.24605 0.28608 0.0
H861 H 0.81879 0.29638 0.25722 0.0
H862 H 0.84943 0.26033 0.2118 0.0
H863 H 0.76428 0.23122 0.01564 0.0
H864 H 0.75397 0.3047 -0.00671 0.0
H865 H 0.77212 0.3337 0.18265 0.0
C866 C 0.81156 0.16962 0.22622 0.0
C867 C 0.81863 0.1317 0.19519 0.0
C868 C 0.80707 0.12932 0.13353 0.0
C869 C 0.79093 0.16395 0.10257 0.0
C870 C 0.78552 0.20087 0.13394 0.0
C871 C 0.79483 0.20394 0.19454 0.0
C872 C 0.78696 0.24784 0.21658 0.0
C873 C 0.75175 0.25141 0.26094 0.0
C874 C 0.82428 0.26358 0.2446 0.0
C875 C 0.77557 0.26945 0.15777 0.0
C876 C 0.77361 0.24136 0.11116 0.0
C877 C 0.76512 0.25341 0.05196 0.0
C878 C 0.75932 0.29525 0.03975 0.0
C879 C 0.76201 0.32475 0.08633 0.0
C880 C 0.76933 0.31172 0.14649 0.0
H881 H 0.54607 0.05491 0.28111 0.0
H882 H 0.55295 0.93315 0.35907 0.0
H883 H 0.60983 0.94984 0.42069 0.0
H884 H 0.65209 0.06239 0.27106 0.0
H885 H 0.64814 0.11606 0.29007 0.0
H886 H 0.608 0.09435 0.25176 0.0
H887 H 0.55964 0.12151 0.33727 0.0
H888 H 0.59967 0.14306 0.37604 0.0
H889 H 0.57053 0.10773 0.41487 0.0
H890 H 0.66536 0.98021 0.47554 0.0
H891 H 0.71717 1.02124 0.51596 0.0
H892 H 0.67471 0.12256 0.40138 0.0
C893 C 0.55983 0.03136 0.31011 0.0
C894 C 0.54462 0.99267 0.31508 0.0
C895 C 0.56349 0.9632 0.35478 0.0
C896 C 0.59599 0.97231 0.38994 0.0
C897 C 0.6097 1.01092 0.38456 0.0
C898 C 0.59245 0.03984 0.34529 0.0
C899 C 0.61279 0.07914 0.34829 0.0
C900 C 0.63136 0.08852 0.28663 0.0
C901 C 0.58393 0.11497 0.37045 0.0
C902 C 0.64429 0.06771 0.39516 0.0
C903 C 0.64185 0.02831 0.41579 0.0
C904 C 0.66755 1.01109 0.45967 0.0
C905 C 0.69664 0.03473 0.48278 0.0
C906 C 0.69983 0.07512 0.46208 0.0
C907 C 0.67323 0.09166 0.41763 0.0
H908 H 0.31171 0.05412 0.37237 0.0
H909 H 0.43265 0.08381 0.40102 0.0
H910 H 0.40825 0.15356 0.4325 0.0
H911 H 0.27408 0.15213 0.31349 0.0
H912 H 0.22679 0.15243 0.35147 0.0
H913 H 0.25369 0.10457 0.331 0.0
H914 H 0.25122 0.08076 0.44301 0.0
H915 H 0.22406 0.12858 0.46329 0.0
H916 H 0.26949 0.11237 0.50181 0.0
H917 H 0.37133 0.22105 0.45808 0.0
H918 H 0.32387 0.28156 0.47606 0.0
H919 H 0.22648 0.20835 0.43533 0.0
C920 C 0.33297 0.07544 0.38489 0.0
C921 C 0.37413 0.06341 0.38411 0.0
C922 C 0.40099 0.09216 0.40134 0.0
C923 C 0.38743 0.13194 0.41943 0.0
C924 C 0.34679 0.14274 0.42053 0.0
C925 C 0.31987 0.11539 0.40389 0.0
C926 C 0.27772 0.13505 0.40954 0.0
C927 C 0.25686 0.13611 0.34769 0.0
C928 C 0.25424 0.11287 0.45725 0.0
C929 C 0.28532 0.17781 0.43085 0.0
C930 C 0.32538 0.18152 0.43697 0.0
C931 C 0.33982 0.21846 0.45391 0.0
C932 C 0.31265 0.2527 0.46408 0.0
C933 C 0.27142 0.24981 0.45769 0.0
C934 C 0.25775 0.21157 0.44153 0.0
H935 H 1.01372 0.99582 0.08598 0.0
H936 H 0.99488 0.10226 0.20344 0.0
H937 H 0.05926 0.12455 0.17237 0.0
H938 H 0.11347 0.97246 0.11438 0.0
H939 H 0.12686 0.95836 0.03738 0.0
H940 H 0.07718 0.95425 0.06362 0.0
H941 H 0.04998 1.00196 0.97506 0.0
H942 H 0.10017 1.0029 0.94932 0.0
H943 H 0.07062 0.05021 0.9644 0.0
H944 H 0.12842 0.12977 0.14355 0.0
H945 H 0.19742 0.12267 0.10808 0.0
H946 H 0.17486 1.01326 0.00779 0.0
C947 C 1.02274 0.02442 0.10356 0.0
C948 C 0.99937 0.04722 0.14728 0.0
C949 C 1.01236 0.08418 0.17008 0.0
C950 C 0.04892 0.09719 0.15267 0.0
C951 C 0.07218 0.07315 0.11185 0.0
C952 C 0.05953 0.03797 0.08663 0.0
C953 C 0.09152 1.01702 0.04594 0.0
C954 C 0.10293 0.97293 0.06669 0.0
C955 C 0.07731 1.01814 0.97978 0.0
C956 C 0.1251 0.04442 0.0559 0.0
C957 C 0.1127 0.07691 0.09343 0.0
C958 C 0.13841 0.10494 0.1132 0.0
C959 C 0.17785 0.10023 0.09351 0.0
C960 C 0.19159 0.06771 0.05427 0.0
C961 C 0.16479 0.03921 0.03578 0.0
H962 H 0.22663 0.81413 0.96977 0.0
H963 H 0.32728 0.80114 0.84703 0.0
H964 H 0.3081 0.8706 0.80632 0.0
H965 H 0.15607 0.87122 0.88197 0.0
H966 H 0.13856 0.90417 0.94388 0.0
H967 H 0.15949 0.85299 0.95897 0.0
H968 H 0.2095 0.88183 0.03203 0.0
H969 H 0.19112 0.9338 0.01629 0.0
H970 H 0.24262 0.91781 0.00461 0.0
H971 H 0.27423 0.94312 0.77796 0.0
H972 H 0.23546 1.01114 0.77455 0.0
H973 H 0.16185 0.97388 0.92217 0.0
C974 C 0.24461 0.82549 0.9339 0.0
C975 C 0.27759 0.80151 0.9098 0.0
C976 C 0.30102 0.81845 0.86451 0.0
C977 C 0.29043 0.85793 0.84144 0.0
C978 C 0.25706 0.88044 0.86561 0.0
C979 C 0.2352 0.86484 0.91186 0.0
C980 C 0.20323 0.89584 0.9351 0.0
C981 C 0.1619 0.8801 0.9296 0.0
C982 C 0.21209 0.90801 0.00087 0.0
C983 C 0.20841 0.93056 0.89203 0.0
C984 C 0.23976 0.92175 0.85246 0.0
C985 C 0.24976 0.9502 0.8091 0.0
C986 C 0.22744 0.98864 0.80713 0.0
C987 C 0.19562 0.99805 0.8483 0.0
C988 C 0.18606 0.96815 0.89039 0.0
H989 H 0.38445 0.93391 0.51719 0.0
H990 H 0.33092 0.05835 0.52192 0.0
H991 H 0.39694 0.08357 0.54027 0.0
H992 H 0.45588 0.95208 0.64185 0.0
H993 H 0.4934 0.91583 0.60983 0.0
H994 H 0.44175 0.90862 0.59944 0.0
H995 H 0.45324 0.9057 0.48379 0.0
H996 H 0.50473 0.91396 0.49318 0.0
H997 H 0.47361 0.94788 0.44616 0.0
H998 H 0.47051 0.09485 0.54319 0.0
H999 H 0.54283 0.09124 0.56077 0.0
H1000 H 0.54718 0.95881 0.56409 0.0
C1001 C 0.38684 0.96637 0.52316 0.0
C1002 C 0.35313 0.99448 0.51769 0.0
C1003 C 0.35671 0.03666 0.52614 0.0
C1004 C 0.39403 0.05112 0.53599 0.0
C1005 C 0.42717 0.02276 0.53831 0.0
C1006 C 0.42365 0.98115 0.53487 0.0
C1007 C 0.46342 0.95699 0.54328 0.0
C1008 C 0.46362 0.93192 0.6021 0.0
C1009 C 0.47443 0.92947 0.48825 0.0
C1010 C 0.49022 0.99143 0.54821 0.0
C1011 C 0.46885 0.02917 0.54471 0.0
C1012 C 0.48744 0.06545 0.54686 0.0
C1013 C 0.52864 0.06308 0.5559 0.0
C1014 C 0.55063 0.02471 0.56346 0.0
C1015 C 0.53116 0.98853 0.5581 0.0
H1016 H 0.47019 0.17148 0.87568 0.0
H1017 H 0.45534 0.18144 0.06751 0.0
H1018 H 0.51171 0.22033 0.08531 0.0
H1019 H 0.62121 0.2114 0.82357 0.0
H1020 H 0.58581 0.18526 0.7824 0.0
H1021 H 0.59769 0.17022 0.8586 0.0
H1022 H 0.47254 0.27382 0.7801 0.0
H1023 H 0.564 0.25176 0.76068 0.0
H1024 H 0.56165 0.28642 0.80994 0.0
H1025 H 0.57803 0.27747 0.08054 0.0
H1026 H 0.62817 0.32342 0.05395 0.0
H1027 H 0.62751 0.29693 0.86035 0.0
C1028 C 0.48467 0.17877 0.91679 0.0
C1029 C 0.46253 0.17299 0.97032 0.0
C1030 C 0.47426 0.18605 0.0289 0.0
C1031 C 0.50682 0.20822 0.04052 0.0
C1032 C 0.53089 0.21679 -0.00686 0.0
C1033 C 0.52086 0.19703 0.91854 0.0
C1034 C 0.56023 0.22827 0.85318 0.0
C1035 C 0.59298 0.19679 0.82775 0.0
C1036 C 0.54366 0.25999 0.80025 0.0
C1037 C 0.58801 0.26528 0.91415 0.0
C1038 C 0.57054 0.25812 0.98907 0.0
C1039 C 0.58688 0.28048 0.03366 0.0
C1040 C 0.6157 0.30703 0.01702 0.0
C1041 C 0.62995 0.31308 0.95637 0.0
C1042 C 0.61648 0.29196 0.90563 0.0
H1043 H 0.51541 0.86015 0.36414 0.0
H1044 H 0.40108 0.82528 0.42257 0.0
H1045 H 0.43395 0.76435 0.47357 0.0
H1046 H 0.55871 0.7706 0.32252 0.0
H1047 H 0.60723 0.77756 0.35103 0.0
H1048 H 0.5741 0.8214 0.33339 0.0
H1049 H 0.58387 0.84655 0.44486 0.0
H1050 H 0.61505 0.80055 0.46123 0.0
H1051 H 0.57181 0.81447 0.50726 0.0
H1052 H 0.47652 0.69992 0.49185 0.0
H1053 H 0.52378 0.63934 0.47687 0.0
H1054 H 0.61191 0.71701 0.41156 0.0
C1055 C 0.49765 0.84043 0.39001 0.0
C1056 C 0.45596 0.84706 0.39001 0.0
C1057 C 0.43314 0.82078 0.42313 0.0
C1058 C 0.45164 0.78624 0.45224 0.0
C1059 C 0.49296 0.77937 0.44923 0.0
C1060 C 0.5158 0.80647 0.4203 0.0
C1061 C 0.55901 0.78999 0.41734 0.0
C1062 C 0.57566 0.78996 0.35217 0.0
C1063 C 0.5839 0.81433 0.46025 0.0
C1064 C 0.55594 0.74702 0.44071 0.0
C1065 C 0.518 0.7421 0.46161 0.0
C1066 C 0.50653 0.7037 0.47725 0.0
C1067 C 0.5336 0.66932 0.46822 0.0
C1068 C 0.57152 0.6734 0.44269 0.0
C1069 C 0.58341 0.71297 0.43208 0.0
H1070 H 0.13945 0.79144 0.43879 0.0
H1071 H 0.06134 0.90305 0.45356 0.0
H1072 H 1.00063 0.867 0.46055 0.0
H1073 H 0.10171 0.70416 0.34634 0.0
H1074 H 0.11452 0.66957 0.40086 0.0
H1075 H 0.13556 0.71712 0.4015 0.0
H1076 H 0.10873 0.66958 0.49458 0.0
H1077 H 0.07571 0.6959 0.53927 0.0
H1078 H 0.12004 0.71948 0.51792 0.0
H1079 H 0.93491 0.80294 0.4474 0.0
H1080 H 0.8989 0.74114 0.45288 0.0
H1081 H 1.00483 0.65674 0.45831 0.0
C1082 C 0.10976 0.80654 0.43996 0.0
C1083 C 0.10284 0.84956 0.4402 0.0
C1084 C 0.0642 0.87004 0.44942 0.0
C1085 C 0.02896 0.85008 0.4521 0.0
C1086 C 0.03116 0.80858 0.43948 0.0
C1087 C 0.07779 0.78349 0.43872 0.0
C1088 C 0.07528 0.72356 0.44273 0.0
C1089 C 0.10715 0.70304 0.39521 0.0
C1090 C 0.09582 0.70163 0.50126 0.0
C1091 C 1.01555 0.71976 0.44575 0.0
C1092 C 0.99157 0.76868 0.44407 0.0
C1093 C 0.95094 0.77297 0.44816 0.0
C1094 C 0.93098 0.73727 0.45136 0.0
C1095 C 0.94992 0.69668 0.45405 0.0
C1096 C 0.9917 0.68784 0.45412 0.0
H1097 H 0.06364 0.16815 0.94575 0.0
H1098 H 0.16558 0.23432 0.90499 0.0
H1099 H 0.12162 0.29753 0.88877 0.0
H1100 H 0.99609 0.21694 0.83922 0.0
H1101 H 0.95337 0.22062 0.88874 0.0
H1102 H 0.99163 0.17993 0.89891 0.0
H1103 H 1.00179 0.19943 0.00929 0.0
H1104 H 0.96252 0.23986 0.00266 0.0
H1105 H 1.01075 0.25123 0.02859 0.0
H1106 H 0.06683 0.35416 0.88249 0.0
H1107 H 1.00441 0.39763 0.86877 0.0
H1108 H 0.93741 0.29457 0.9112 0.0
C1109 C 0.07638 0.19575 0.93152 0.0
C1110 C 0.11772 0.19632 0.9239 0.0
C1111 C 0.13381 0.23319 0.90834 0.0
C1112 C 0.10912 0.26927 0.90011 0.0
C1113 C 0.06845 0.26802 0.90885 0.0
C1114 C 0.05207 0.23212 0.92342 0.0
C1115 C 1.00744 0.23933 0.9308 0.0
C1116 C 0.9859 0.21266 0.88661 0.0
C1117 C 0.9949 0.23203 -0.00324 0.0
C1118 C 1.00115 0.2843 0.91496 0.0
C1119 C 0.03685 0.30059 0.90466 0.0
C1120 C 0.0387 0.34168 0.89019 0.0
C1121 C 1.00305 0.36626 0.88306 0.0
C1122 C 0.9661 0.34942 0.88901 0.0
C1123 C 0.96527 0.30822 0.90681 0.0
H1124 H 0.44851 0.71773 0.14514 0.0
H1125 H 0.3833 0.82585 0.07346 0.0
H1126 H 0.44458 0.86207 0.074 0.0
H1127 H 0.52078 0.77164 0.23658 0.0
H1128 H 0.56194 0.73475 0.21818 0.0
H1129 H 0.51245 0.71878 0.22459 0.0
H1130 H 0.51534 0.6889 0.11677 0.0
H1131 H 0.56534 0.70236 0.10884 0.0
H1132 H 0.5285 0.72026 0.05411 0.0
H1133 H 0.51454 0.88186 0.06673 0.0
H1134 H 0.58556 0.88266 0.04576 0.0
H1135 H 0.60606 0.76086 0.1226 0.0
C1136 C 0.44689 0.74963 0.13235 0.0
C1137 C 0.41118 0.76955 0.11077 0.0
C1138 C 0.41037 0.81063 0.09138 0.0
C1139 C 0.44499 0.83128 0.09152 0.0
C1140 C 0.48023 0.8102 0.11083 0.0
C1141 C 0.48133 0.77026 0.13104 0.0
C1142 C 0.52348 0.75252 0.14165 0.0
C1143 C 0.53012 0.74387 0.20932 0.0
C1144 C 0.53373 0.71376 0.103 0.0
C1145 C 0.54614 0.78778 0.12074 0.0
C1146 C 0.5207 0.82113 0.10469 0.0
C1147 C 0.53473 0.85599 0.07948 0.0
C1148 C 0.57553 0.85612 0.06792 0.0
C1149 C 0.60217 0.82147 0.08142 0.0
C1150 C 0.58699 0.78769 0.11059 0.0
H1151 H 0.51667 0.1585 0.81698 0.0
H1152 H 0.5284 0.1675 0.62577 0.0
H1153 H 0.51707 0.24168 0.62248 0.0
H1154 H 0.43801 0.30248 0.90143 0.0
H1155 H 0.43948 0.24938 0.92104 0.0
H1156 H 0.42416 0.26553 0.8467 0.0
H1157 H 0.57237 0.21249 0.9336 0.0
H1158 H 0.49882 0.27581 0.95766 0.0
H1159 H 0.52642 0.29926 0.91568 0.0
H1160 H 0.51825 0.3323 0.64857 0.0
H1161 H 0.50998 0.40233 0.6888 0.0
H1162 H 0.48435 0.36752 0.87333 0.0
C1163 C 0.50779 0.17723 0.77905 0.0
C1164 C 0.52173 0.16084 0.72266 0.0
C1165 C 0.51903 0.18319 0.66742 0.0
C1166 C 0.51244 0.22563 0.66433 0.0
C1167 C 0.50371 0.24667 0.71699 0.0
C1168 C 0.49378 0.21875 0.78531 0.0
C1169 C 0.48845 0.26554 0.86127 0.0
C1170 C 0.44495 0.27086 0.88404 0.0
C1171 C 0.51889 0.26664 0.91812 0.0
C1172 C 0.49898 0.31795 0.81233 0.0
C1173 C 0.50766 0.30551 0.73462 0.0
C1174 C 0.51282 0.33755 0.69648 0.0
C1175 C 0.50835 0.37749 0.72067 0.0
C1176 C 0.49759 0.38774 0.7822 0.0
C1177 C 0.49403 0.35853 0.82798 0.0
H1178 H 0.04269 0.34122 0.34699 0.0
H1179 H 0.12962 0.28835 0.47354 0.0
H1180 H 0.07654 0.26696 0.5399 0.0
H1181 H 0.96138 0.37571 0.45238 0.0
H1182 H 0.92585 0.35936 0.39986 0.0
H1183 H 0.97268 0.37411 0.37214 0.0
H1184 H 0.97826 0.30073 0.31896 0.0
H1185 H 0.93358 0.28775 0.35617 0.0
H1186 H 0.97916 0.25602 0.36636 0.0
H1187 H 1.01464 0.25409 0.59477 0.0
H1188 H 0.94766 0.23797 0.62527 0.0
H1189 H 0.89975 0.29773 0.46291 0.0
C1190 C 0.05019 0.32484 0.38844 0.0
C1191 C 0.09005 0.31691 0.40613 0.0
C1192 C 0.09917 0.29502 0.46011 0.0
C1193 C 0.06926 0.2829 0.49802 0.0
C1194 C 0.0302 0.29201 0.48049 0.0
C1195 C 1.02042 0.31156 0.42636 0.0
C1196 C 0.97599 0.31421 0.41641 0.0
C1197 C 0.95806 0.35853 0.40967 0.0
C1198 C 0.96618 0.28812 0.36122 0.0
C1199 C 0.9626 0.2956 0.47506 0.0
C1200 C 0.99432 0.28283 0.51119 0.0
C1201 C 0.98943 0.26372 0.56676 0.0
C1202 C 0.95114 0.25527 0.58424 0.0
C1203 C 0.91834 0.2661 0.54626 0.0
C1204 C 0.92422 0.28842 0.49258 0.0
H1205 H 1.0186 0.8499 0.34202 0.0
H1206 H 0.91323 0.83977 0.2406 0.0
H1207 H 0.92722 0.76573 0.23593 0.0
H1208 H 0.06862 0.76335 0.27529 0.0
H1209 H 0.10336 0.76562 0.33375 0.0
H1210 H 0.07174 0.80714 0.3218 0.0
H1211 H 0.06742 0.76819 0.5398 0.0
H1212 H 0.02665 0.73846 0.54387 0.0
H1213 H 1.02074 0.78783 0.53814 0.0
H1214 H 0.95869 0.70213 0.21689 0.0
H1215 H 0.99627 0.63464 0.21221 0.0
H1216 H 0.05448 0.66167 0.37463 0.0
C1217 C 0.99673 0.8304 0.32694 0.0
C1218 C 0.96382 0.84985 0.29685 0.0
C1219 C 0.93831 0.82582 0.26533 0.0
C1220 C 0.94601 0.78358 0.26299 0.0
C1221 C 0.97823 0.76524 0.2951 0.0
C1222 C 1.00225 0.78675 0.33183 0.0
C1223 C 0.03704 0.75763 0.36734 0.0
C1224 C 0.07187 0.77333 0.32325 0.0
C1225 C 0.03957 0.76218 0.51473 0.0
C1226 C 0.02473 0.7162 0.33125 0.0
C1227 C 0.99348 0.72374 0.29116 0.0
C1228 C 0.98179 0.6946 0.24968 0.0
C1229 C 1.00259 0.65609 0.24758 0.0
C1230 C 0.03176 0.6456 0.29089 0.0
C1231 C 0.03876 0.67406 0.33627 0.0
loop_
_geom_bond_atom_site_label_1
_geom_bond_atom_site_label_2
_geom_bond_distance
_geom_bond_site_symmetry_2
_ccdc_geom_bond_type
Cu0 N1 1.999 . S
Cu0 O6 1.974 . S
Cu0 N11 1.985 . S
Cu0 O20 1.959 . S
N1 Cu0 1.999 . S
N1 C3 1.263 1_554 S
N1 C5 1.389 . S
N2 C3 1.358 . S
N2 C4 1.400 1_556 S
C3 N1 1.263 1_556 S
C3 N2 1.358 . S
C3 H9 0.930 . S
C4 N2 1.400 1_554 S
C4 C5 1.351 . S
C4 H21 0.930 . S
C5 N1 1.389 . S
C5 C4 1.351 . S
C5 H10 0.930 . S
O6 Cu0 1.974 . S
O6 C16 1.282 1_554 S
C7 O8 1.261 1_554 S
C7 O20 1.251 . S
O8 C7 1.261 1_556 S
H9 C3 0.930 . S
H10 C5 0.930 . S
N11 Cu0 1.985 . S
N11 C13 1.335 . S
N11 C14 1.390 . S
N12 C13 1.345 . S
N12 C15 1.336 . S
C13 N11 1.335 . S
C13 N12 1.345 . S
C13 H18 0.930 . S
C14 N11 1.390 . S
C14 C15 1.346 . S
C14 H19 0.930 1_554 S
C15 N12 1.336 . S
C15 C14 1.346 . S
C15 H22 0.926 1_554 S
C16 O6 1.282 1_556 S
C16 O17 1.216 . S
O17 C16 1.216 . S
H18 C13 0.930 . S
H19 C14 0.930 1_556 S
O20 Cu0 1.959 . S
O20 C7 1.251 . S
H21 C4 0.930 . S
H22 C15 0.926 1_556 S
Cu23 N24 1.999 . S
Cu23 O29 1.974 . S
Cu23 N34 1.985 . S
Cu23 O43 1.959 . S
N24 Cu23 1.999 . S
N24 C26 1.263 . S
N24 C28 1.389 . S
N25 C26 1.358 . S
N25 C27 1.400 . S
C26 N24 1.263 . S
C26 N25 1.358 . S
C26 H32 0.930 . S
C27 N25 1.400 . S
C27 C28 1.351 . S
C27 H44 0.930 . S
C28 N24 1.389 . S
C28 C27 1.351 . S
C28 H33 0.930 . S
O29 Cu23 1.974 . S
O29 C39 1.282 . S
C30 O31 1.261 . S
C30 O43 1.251 . S
O31 C30 1.261 . S
H32 C26 0.930 . S
H33 C28 0.930 . S
N34 Cu23 1.985 . S
N34 C36 1.335 . S
N34 C37 1.390 . S
N35 C36 1.345 . S
N35 C38 1.336 . S
C36 N34 1.335 . S
C36 N35 1.345 . S
C36 H41 0.930 . S
C37 N34 1.390 . S
C37 C38 1.346 . S
C37 H42 0.930 . S
C38 N35 1.336 . S
C38 C37 1.346 . S
C38 H45 0.929 . S
C39 O29 1.282 . S
C39 O40 1.216 . S
O40 C39 1.216 . S
H41 C36 0.930 . S
H42 C37 0.930 . S
O43 Cu23 1.959 . S
O43 C30 1.251 . S
H44 C27 0.930 . S
H45 C38 0.929 . S
Cu46 N47 1.999 . S
Cu46 O52 1.974 . S
Cu46 N57 1.985 . S
Cu46 O66 1.959 . S
N47 Cu46 1.999 . S
N47 C49 1.263 . S
N47 C51 1.389 . S
N48 C49 1.358 . S
N48 C50 1.400 . S
C49 N47 1.263 . S
C49 N48 1.358 . S
C49 H55 0.930 . S
C50 N48 1.400 . S
C50 C51 1.351 . S
C50 H67 0.930 . S
C51 N47 1.389 . S
C51 C50 1.351 . S
C51 H56 0.930 . S
O52 Cu46 1.974 . S
O52 C62 1.282 . S
C53 O54 1.261 . S
C53 O66 1.251 . S
O54 C53 1.261 . S
H55 C49 0.930 . S
H56 C51 0.930 . S
N57 Cu46 1.985 . S
N57 C59 1.335 . S
N57 C60 1.390 . S
N58 C59 1.345 . S
N58 C61 1.336 . S
C59 N57 1.335 . S
C59 N58 1.345 . S
C59 H64 0.930 . S
C60 N57 1.390 . S
C60 C61 1.346 . S
C60 H65 0.930 . S
C61 N58 1.336 . S
C61 C60 1.346 . S
C61 H68 0.929 . S
C62 O52 1.282 . S
C62 O63 1.216 . S
O63 C62 1.216 . S
H64 C59 0.930 . S
H65 C60 0.930 . S
O66 Cu46 1.959 . S
O66 C53 1.251 . S
H67 C50 0.930 . S
H68 C61 0.929 . S
Cu69 N70 1.999 . S
Cu69 O75 1.974 . S
Cu69 N80 1.985 . S
Cu69 O89 1.959 . S
N70 Cu69 1.999 . S
N70 C72 1.263 . S
N70 C74 1.389 . S
N71 C72 1.358 . S
N71 C73 1.400 1_655 S
C72 N70 1.263 . S
C72 N71 1.358 . S
C72 H78 0.930 . S
C73 N71 1.400 1_455 S
C73 C74 1.351 1_455 S
C73 H90 0.930 . S
C74 N70 1.389 . S
C74 C73 1.351 1_655 S
C74 H79 0.930 . S
O75 Cu69 1.974 . S
O75 C85 1.282 . S
C76 O77 1.261 . S
C76 O89 1.251 . S
O77 C76 1.261 . S
H78 C72 0.930 . S
H79 C74 0.930 . S
N80 Cu69 1.985 . S
N80 C82 1.335 . S
N80 C83 1.390 . S
N81 C82 1.345 . S
N81 C84 1.336 . S
C82 N80 1.335 . S
C82 N81 1.345 . S
C82 H87 0.930 . S
C83 N80 1.390 . S
C83 C84 1.346 . S
C83 H88 0.930 . S
C84 N81 1.336 . S
C84 C83 1.346 . S
C84 H91 0.929 . S
C85 O75 1.282 . S
C85 O86 1.216 . S
O86 C85 1.216 . S
H87 C82 0.930 . S
H88 C83 0.930 . S
O89 Cu69 1.959 . S
O89 C76 1.251 . S
H90 C73 0.930 . S
H91 C84 0.929 . S
Cu92 N93 1.999 . S
Cu92 O98 1.974 . S
Cu92 N103 1.985 . S
Cu92 O112 1.959 . S
N93 Cu92 1.999 . S
N93 C95 1.263 1_556 S
N93 C97 1.389 . S
N94 C95 1.361 . S
N94 C96 1.387 1_554 S
C95 N93 1.263 1_554 S
C95 N94 1.361 . S
C95 H101 0.930 . S
C96 N94 1.387 1_556 S
C96 C97 1.351 . S
C96 H113 0.930 . S
C97 N93 1.389 . S
C97 C96 1.351 . S
C97 H102 0.930 . S
O98 Cu92 1.974 . S
O98 C108 1.282 1_556 S
C99 O100 1.261 1_556 S
C99 O112 1.251 . S
O100 C99 1.261 1_554 S
H101 C95 0.930 . S
H102 C97 0.930 . S
N103 Cu92 1.985 . S
N103 C105 1.335 . S
N103 C106 1.390 1_556 S
N104 C105 1.345 . S
N104 C107 1.336 . S
C105 N103 1.335 . S
C105 N104 1.345 . S
C105 H110 0.930 . S
C106 N103 1.390 1_554 S
C106 C107 1.346 1_554 S
C106 H111 0.930 . S
C107 N104 1.336 . S
C107 C106 1.346 1_556 S
C107 H114 0.929 1_556 S
C108 O98 1.282 1_554 S
C108 O109 1.216 . S
O109 C108 1.216 . S
H110 C105 0.930 . S
H111 C106 0.930 . S
O112 Cu92 1.959 . S
O112 C99 1.251 . S
H113 C96 0.930 . S
H114 C107 0.929 1_554 S
Cu115 N116 1.999 . S
Cu115 O121 1.974 . S
Cu115 N126 1.985 . S
Cu115 O135 1.959 . S
N116 Cu115 1.999 . S
N116 C118 1.263 . S
N116 C120 1.389 . S
N117 C118 1.358 . S
N117 C119 1.400 . S
C118 N116 1.263 . S
C118 N117 1.358 . S
C118 H124 0.930 . S
C119 N117 1.400 . S
C119 C120 1.351 . S
C119 H136 0.930 . S
C120 N116 1.389 . S
C120 C119 1.351 . S
C120 H125 0.930 . S
O121 Cu115 1.974 . S
O121 C131 1.282 . S
C122 O123 1.261 . S
C122 O135 1.251 . S
O123 C122 1.261 . S
H124 C118 0.930 . S
H125 C120 0.930 . S
N126 Cu115 1.985 . S
N126 C128 1.335 . S
N126 C129 1.390 . S
N127 C128 1.345 . S
N127 C130 1.336 . S
C128 N126 1.335 . S
C128 N127 1.345 . S
C128 H133 0.930 . S
C129 N126 1.390 . S
C129 C130 1.346 . S
C129 H134 0.930 . S
C130 N127 1.336 . S
C130 C129 1.346 . S
C130 H137 0.929 . S
C131 O121 1.282 . S
C131 O132 1.216 . S
O132 C131 1.216 . S
H133 C128 0.930 . S
H134 C129 0.930 . S
O135 Cu115 1.959 . S
O135 C122 1.251 . S
H136 C119 0.930 . S
H137 C130 0.929 . S
Cu138 N139 1.999 . S
Cu138 O144 1.974 . S
Cu138 N149 1.985 . S
Cu138 O158 1.959 . S
N139 Cu138 1.999 . S
N139 C141 1.263 . S
N139 C143 1.389 . S
N140 C141 1.358 . S
N140 C142 1.400 . S
C141 N139 1.263 . S
C141 N140 1.358 . S
C141 H147 0.930 . S
C142 N140 1.400 . S
C142 C143 1.351 . S
C142 H159 0.930 . S
C143 N139 1.389 . S
C143 C142 1.351 . S
C143 H148 0.930 . S
O144 Cu138 1.974 . S
O144 C154 1.282 . S
C145 O146 1.261 . S
C145 O158 1.251 . S
O146 C145 1.261 . S
H147 C141 0.930 . S
H148 C143 0.930 . S
N149 Cu138 1.985 . S
N149 C151 1.335 . S
N149 C152 1.390 . S
N150 C151 1.345 . S
N150 C153 1.336 . S
C151 N149 1.335 . S
C151 N150 1.345 . S
C151 H156 0.930 . S
C152 N149 1.390 . S
C152 C153 1.346 . S
C152 H157 0.930 . S
C153 N150 1.336 . S
C153 C152 1.346 . S
C153 H160 0.929 . S
C154 O144 1.282 . S
C154 O155 1.216 . S
O155 C154 1.216 . S
H156 C151 0.930 . S
H157 C152 0.930 . S
O158 Cu138 1.959 . S
O158 C145 1.251 . S
H159 C142 0.930 . S
H160 C153 0.929 . S
Cu161 N162 1.999 . S
Cu161 O167 1.974 . S
Cu161 N172 1.985 . S
Cu161 O181 1.959 . S
N162 Cu161 1.999 . S
N162 C164 1.263 . S
N162 C166 1.389 . S
N163 C164 1.358 . S
N163 C165 1.400 . S
C164 N162 1.263 . S
C164 N163 1.358 . S
C164 H170 0.930 . S
C165 N163 1.400 . S
C165 C166 1.351 . S
C165 H182 0.930 1_455 S
C166 N162 1.389 . S
C166 C165 1.351 . S
C166 H171 0.930 . S
O167 Cu161 1.974 . S
O167 C177 1.282 . S
C168 O169 1.261 . S
C168 O181 1.251 . S
O169 C168 1.261 . S
H170 C164 0.930 . S
H171 C166 0.930 . S
N172 Cu161 1.985 . S
N172 C174 1.335 . S
N172 C175 1.390 . S
N173 C174 1.345 . S
N173 C176 1.336 . S
C174 N172 1.335 . S
C174 N173 1.345 . S
C174 H179 0.930 . S
C175 N172 1.390 . S
C175 C176 1.346 . S
C175 H180 0.930 . S
C176 N173 1.336 . S
C176 C175 1.346 . S
C176 H183 0.929 . S
C177 O167 1.282 . S
C177 O178 1.216 . S
O178 C177 1.216 . S
H179 C174 0.930 . S
H180 C175 0.930 . S
O181 Cu161 1.959 . S
O181 C168 1.251 . S
H182 C165 0.930 1_655 S
H183 C176 0.929 . S
Cu184 N185 1.999 . S
Cu184 O190 1.974 . S
Cu184 N195 1.985 . S
Cu184 O204 1.959 . S
N185 Cu184 1.999 . S
N185 C187 1.263 . S
N185 C189 1.389 . S
N186 C187 1.358 . S
N186 C188 1.400 . S
C187 N185 1.263 . S
C187 N186 1.358 . S
C187 H193 0.930 . S
C188 N186 1.400 . S
C188 C189 1.351 . S
C188 H205 0.930 . S
C189 N185 1.389 . S
C189 C188 1.351 . S
C189 H194 0.930 . S
O190 Cu184 1.974 . S
O190 C200 1.282 . S
C191 O192 1.261 . S
C191 O204 1.251 . S
O192 C191 1.261 . S
H193 C187 0.930 . S
H194 C189 0.930 . S
N195 Cu184 1.985 . S
N195 C197 1.335 . S
N195 C198 1.390 . S
N196 C197 1.345 . S
N196 C199 1.336 . S
C197 N195 1.335 . S
C197 N196 1.345 . S
C197 H202 0.930 . S
C198 N195 1.390 . S
C198 C199 1.346 . S
C198 H203 0.930 . S
C199 N196 1.336 . S
C199 C198 1.346 . S
C199 H206 0.929 . S
C200 O190 1.282 . S
C200 O201 1.216 . S
O201 C200 1.216 . S
H202 C197 0.930 . S
H203 C198 0.930 . S
O204 Cu184 1.959 . S
O204 C191 1.251 . S
H205 C188 0.930 . S
H206 C199 0.929 . S
Cu207 N208 1.999 . S
Cu207 O213 1.974 . S
Cu207 N218 1.985 . S
Cu207 O227 1.959 . S
N208 Cu207 1.999 . S
N208 C210 1.263 . S
N208 C212 1.389 . S
N209 C210 1.357 1_565 S
N209 C211 1.399 1_465 S
C210 N208 1.263 . S
C210 N209 1.357 1_545 S
C210 H216 0.930 . S
C211 N209 1.399 1_645 S
C211 C212 1.351 1_655 S
C211 H228 0.930 . S
C212 N208 1.389 . S
C212 C211 1.351 1_455 S
C212 H217 0.930 . S
O213 Cu207 1.974 . S
O213 C223 1.282 . S
C214 O215 1.261 . S
C214 O227 1.251 . S
O215 C214 1.261 . S
H216 C210 0.930 . S
H217 C212 0.930 . S
N218 Cu207 1.985 . S
N218 C220 1.335 . S
N218 C221 1.390 . S
N219 C220 1.345 . S
N219 C222 1.336 . S
C220 N218 1.335 . S
C220 N219 1.345 . S
C220 H225 0.930 . S
C221 N218 1.390 . S
C221 C222 1.346 . S
C221 H226 0.930 . S
C222 N219 1.336 . S
C222 C221 1.346 . S
C222 H229 0.929 . S
C223 O213 1.282 . S
C223 O224 1.216 . S
O224 C223 1.216 . S
H225 C220 0.930 . S
H226 C221 0.930 . S
O227 Cu207 1.959 . S
O227 C214 1.251 . S
H228 C211 0.930 . S
H229 C222 0.929 . S
Cu230 N231 1.999 . S
Cu230 O236 1.974 . S
Cu230 N241 1.985 . S
Cu230 O250 1.959 . S
N231 Cu230 1.999 . S
N231 C233 1.263 1_554 S
N231 C235 1.389 . S
N232 C233 1.358 . S
N232 C234 1.400 1_556 S
C233 N231 1.263 1_556 S
C233 N232 1.358 . S
C233 H239 0.930 . S
C234 N232 1.400 1_554 S
C234 C235 1.351 . S
C234 H251 0.930 . S
C235 N231 1.389 . S
C235 C234 1.351 . S
C235 H240 0.930 . S
O236 Cu230 1.974 . S
O236 C246 1.282 1_554 S
C237 O238 1.261 1_554 S
C237 O250 1.251 . S
O238 C237 1.261 1_556 S
H239 C233 0.930 . S
H240 C235 0.930 . S
N241 Cu230 1.985 . S
N241 C243 1.335 . S
N241 C244 1.390 . S
N242 C243 1.345 . S
N242 C245 1.336 . S
C243 N241 1.335 . S
C243 N242 1.345 . S
C243 H248 0.930 . S
C244 N241 1.390 . S
C244 C245 1.346 . S
C244 H249 0.930 1_554 S
C245 N242 1.336 . S
C245 C244 1.346 . S
C245 H252 0.926 1_554 S
C246 O236 1.282 1_556 S
C246 O247 1.216 . S
O247 C246 1.216 . S
H248 C243 0.930 . S
H249 C244 0.930 1_556 S
O250 Cu230 1.959 . S
O250 C237 1.251 . S
H251 C234 0.930 . S
H252 C245 0.926 1_556 S
Cu253 N254 1.999 . S
Cu253 O259 1.974 . S
Cu253 N264 1.985 . S
Cu253 O273 1.959 . S
N254 Cu253 1.999 . S
N254 C256 1.263 . S
N254 C258 1.389 . S
N255 C256 1.358 1_545 S
N255 C257 1.400 1_545 S
C256 N254 1.263 . S
C256 N255 1.358 1_565 S
C256 H262 0.927 1_565 S
C257 N255 1.400 1_565 S
C257 C258 1.351 . S
C257 H274 0.930 . S
C258 N254 1.389 . S
C258 C257 1.351 . S
C258 H263 0.930 . S
O259 Cu253 1.974 . S
O259 C269 1.282 . S
C260 O261 1.261 . S
C260 O273 1.251 . S
O261 C260 1.261 . S
H262 C256 0.927 1_545 S
H263 C258 0.930 . S
N264 Cu253 1.985 . S
N264 C266 1.335 . S
N264 C267 1.390 . S
N265 C266 1.345 . S
N265 C268 1.336 . S
C266 N264 1.335 . S
C266 N265 1.345 . S
C266 H271 0.930 . S
C267 N264 1.390 . S
C267 C268 1.346 . S
C267 H272 0.930 . S
C268 N265 1.336 . S
C268 C267 1.346 . S
C268 H275 0.929 . S
C269 O259 1.282 . S
C269 O270 1.216 . S
O270 C269 1.216 . S
H271 C266 0.930 . S
H272 C267 0.930 . S
O273 Cu253 1.959 . S
O273 C260 1.251 . S
H274 C257 0.930 . S
H275 C268 0.929 . S
Cu276 N277 1.999 . S
Cu276 O282 1.974 . S
Cu276 N287 1.985 . S
Cu276 O296 1.959 . S
N277 Cu276 1.999 . S
N277 C279 1.263 . S
N277 C281 1.389 . S
N278 C279 1.358 . S
N278 C280 1.400 . S
C279 N277 1.263 . S
C279 N278 1.358 . S
C279 H285 0.930 . S
C280 N278 1.400 . S
C280 C281 1.351 . S
C280 H297 0.930 . S
C281 N277 1.389 . S
C281 C280 1.351 . S
C281 H286 0.930 . S
O282 Cu276 1.974 . S
O282 C292 1.282 . S
C283 O284 1.261 . S
C283 O296 1.251 . S
O284 C283 1.261 . S
H285 C279 0.930 . S
H286 C281 0.930 . S
N287 Cu276 1.985 . S
N287 C289 1.335 . S
N287 C290 1.390 . S
N288 C289 1.345 . S
N288 C291 1.336 . S
C289 N287 1.335 . S
C289 N288 1.345 . S
C289 H294 0.930 . S
C290 N287 1.390 . S
C290 C291 1.346 . S
C290 H295 0.930 . S
C291 N288 1.336 . S
C291 C290 1.346 . S
C291 H298 0.929 . S
C292 O282 1.282 . S
C292 O293 1.216 . S
O293 C292 1.216 . S
H294 C289 0.930 . S
H295 C290 0.930 . S
O296 Cu276 1.959 . S
O296 C283 1.251 . S
H297 C280 0.930 . S
H298 C291 0.929 . S
Cu299 N300 1.999 . S
Cu299 O305 1.974 . S
Cu299 N310 1.985 1_565 S
Cu299 O319 1.959 . S
N300 Cu299 1.999 . S
N300 C302 1.263 . S
N300 C304 1.389 . S
N301 C302 1.358 . S
N301 C303 1.400 . S
C302 N300 1.263 . S
C302 N301 1.358 . S
C302 H308 0.930 . S
C303 N301 1.400 . S
C303 C304 1.351 . S
C303 H320 0.930 1_655 S
C304 N300 1.389 . S
C304 C303 1.351 . S
C304 H309 0.930 . S
O305 Cu299 1.974 . S
O305 C315 1.282 . S
C306 O307 1.261 1_545 S
C306 O319 1.251 1_545 S
O307 C306 1.261 1_565 S
H308 C302 0.930 . S
H309 C304 0.930 . S
N310 Cu299 1.985 1_545 S
N310 C312 1.335 . S
N310 C313 1.390 . S
N311 C312 1.345 . S
N311 C314 1.336 . S
C312 N310 1.335 . S
C312 N311 1.345 . S
C312 H317 0.930 . S
C313 N310 1.390 . S
C313 C314 1.346 . S
C313 H318 0.930 1_545 S
C314 N311 1.336 . S
C314 C313 1.346 . S
C314 H321 0.929 . S
C315 O305 1.282 . S
C315 O316 1.216 . S
O316 C315 1.216 . S
H317 C312 0.930 . S
H318 C313 0.930 1_565 S
O319 Cu299 1.959 . S
O319 C306 1.251 1_565 S
H320 C303 0.930 1_455 S
H321 C314 0.929 . S
Cu322 N323 1.999 . S
Cu322 O328 1.974 . S
Cu322 N333 1.985 . S
Cu322 O342 1.959 . S
N323 Cu322 1.999 . S
N323 C325 1.263 1_556 S
N323 C327 1.389 . S
N324 C325 1.361 . S
N324 C326 1.387 1_554 S
C325 N323 1.263 1_554 S
C325 N324 1.361 . S
C325 H331 0.930 . S
C326 N324 1.387 1_556 S
C326 C327 1.351 . S
C326 H343 0.930 . S
C327 N323 1.389 . S
C327 C326 1.351 . S
C327 H332 0.930 . S
O328 Cu322 1.974 . S
O328 C338 1.282 1_556 S
C329 O330 1.261 1_556 S
C329 O342 1.251 . S
O330 C329 1.261 1_554 S
H331 C325 0.930 . S
H332 C327 0.930 . S
N333 Cu322 1.985 . S
N333 C335 1.335 . S
N333 C336 1.390 1_556 S
N334 C335 1.345 . S
N334 C337 1.336 . S
C335 N333 1.335 . S
C335 N334 1.345 . S
C335 H340 0.930 . S
C336 N333 1.390 1_554 S
C336 C337 1.346 1_554 S
C336 H341 0.930 . S
C337 N334 1.336 . S
C337 C336 1.346 1_556 S
C337 H344 0.929 1_556 S
C338 O328 1.282 1_554 S
C338 O339 1.216 . S
O339 C338 1.216 . S
H340 C335 0.930 . S
H341 C336 0.930 . S
O342 Cu322 1.959 . S
O342 C329 1.251 . S
H343 C326 0.930 . S
H344 C337 0.929 1_554 S
Cu345 N346 1.999 . S
Cu345 O351 1.974 . S
Cu345 N356 1.985 1_545 S
Cu345 O365 1.959 . S
N346 Cu345 1.999 . S
N346 C348 1.263 . S
N346 C350 1.389 . S
N347 C348 1.358 . S
N347 C349 1.400 . S
C348 N346 1.263 . S
C348 N347 1.358 . S
C348 H354 0.930 . S
C349 N347 1.400 . S
C349 C350 1.351 . S
C349 H366 0.930 . S
C350 N346 1.389 . S
C350 C349 1.351 . S
C350 H355 0.930 . S
O351 Cu345 1.974 . S
O351 C361 1.282 . S
C352 O353 1.261 1_565 S
C352 O365 1.251 1_565 S
O353 C352 1.261 1_545 S
H354 C348 0.930 . S
H355 C350 0.930 . S
N356 Cu345 1.985 1_565 S
N356 C358 1.335 . S
N356 C359 1.390 . S
N357 C358 1.345 . S
N357 C360 1.336 . S
C358 N356 1.335 . S
C358 N357 1.345 . S
C358 H363 0.930 . S
C359 N356 1.390 . S
C359 C360 1.346 . S
C359 H364 0.930 1_565 S
C360 N357 1.336 . S
C360 C359 1.346 . S
C360 H367 0.929 . S
C361 O351 1.282 . S
C361 O362 1.216 . S
O362 C361 1.216 . S
H363 C358 0.930 . S
H364 C359 0.930 1_545 S
O365 Cu345 1.959 . S
O365 C352 1.251 1_545 S
H366 C349 0.930 . S
H367 C360 0.929 . S
H368 C380 0.930 . S
H369 C382 0.930 . S
H370 C383 0.930 . S
H371 C387 0.957 . S
H372 C387 0.959 . S
H373 C387 0.962 1_565 S
H374 C388 0.960 . S
H375 C388 0.961 . S
H376 C388 0.959 . S
H377 C391 0.929 . S
H378 C392 0.931 . S
H379 C394 0.930 . S
C380 H368 0.930 . S
C380 C381 1.399 1_556 S
C380 C385 1.399 . S
C381 C380 1.399 1_554 S
C381 C382 1.376 . S
C382 H369 0.930 . S
C382 C381 1.376 . S
C382 C383 1.388 . S
C383 H370 0.930 . S
C383 C382 1.388 . S
C383 C384 1.390 . S
C384 C383 1.390 . S
C384 C385 1.394 1_554 S
C384 C390 1.465 . S
C385 C380 1.399 . S
C385 C384 1.394 1_556 S
C385 C386 1.516 . S
C386 C385 1.516 . S
C386 C387 1.503 1_565 S
C386 C388 1.561 . S
C386 C389 1.538 . S
C387 H371 0.957 . S
C387 H372 0.959 . S
C387 H373 0.962 1_545 S
C387 C386 1.503 1_545 S
C388 H374 0.960 . S
C388 H375 0.961 . S
C388 H376 0.959 . S
C388 C386 1.561 . S
C389 C386 1.538 . S
C389 C390 1.398 1_556 S
C389 C394 1.378 1_565 S
C390 C384 1.465 . S
C390 C389 1.398 1_554 S
C390 C391 1.399 1_565 S
C391 H377 0.929 . S
C391 C390 1.399 1_545 S
C391 C392 1.385 . S
C392 H378 0.931 . S
C392 C391 1.385 . S
C392 C393 1.389 1_554 S
C393 C392 1.389 1_556 S
C393 C394 1.387 . S
C394 H379 0.930 . S
C394 C389 1.378 1_545 S
C394 C393 1.387 . S
H395 C407 0.930 . S
H396 C409 0.930 . S
H397 C410 0.930 . S
H398 C414 0.959 . S
H399 C414 0.959 . S
H400 C414 0.961 . S
H401 C415 0.960 . S
H402 C415 0.961 . S
H403 C415 0.959 . S
H404 C418 0.929 . S
H405 C419 0.931 . S
H406 C421 0.930 . S
C407 H395 0.930 . S
C407 C408 1.399 . S
C407 C412 1.399 . S
C408 C407 1.399 . S
C408 C409 1.376 . S
C409 H396 0.930 . S
C409 C408 1.376 . S
C409 C410 1.388 . S
C410 H397 0.930 . S
C410 C409 1.388 . S
C410 C411 1.390 . S
C411 C410 1.390 . S
C411 C412 1.394 . S
C411 C417 1.465 . S
C412 C407 1.399 . S
C412 C411 1.394 . S
C412 C413 1.516 . S
C413 C412 1.516 . S
C413 C414 1.502 . S
C413 C415 1.561 . S
C413 C416 1.526 . S
C414 H398 0.959 . S
C414 H399 0.959 . S
C414 H400 0.961 . S
C414 C413 1.502 . S
C415 H401 0.960 . S
C415 H402 0.961 . S
C415 H403 0.959 . S
C415 C413 1.561 . S
C416 C413 1.526 . S
C416 C417 1.396 . S
C416 C421 1.390 . S
C417 C411 1.465 . S
C417 C416 1.396 . S
C417 C418 1.399 . S
C418 H404 0.929 . S
C418 C417 1.399 . S
C418 C419 1.385 . S
C419 H405 0.931 . S
C419 C418 1.385 . S
C419 C420 1.389 . S
C420 C419 1.389 . S
C420 C421 1.387 . S
C421 H406 0.930 . S
C421 C416 1.390 . S
C421 C420 1.387 . S
H422 C434 0.930 . S
H423 C436 0.930 . S
H424 C437 0.930 . S
H425 C441 0.959 . S
H426 C441 0.959 . S
H427 C441 0.961 . S
H428 C442 0.960 . S
H429 C442 0.961 1_655 S
H430 C442 0.961 . S
H431 C445 0.929 . S
H432 C446 0.931 . S
H433 C448 0.930 . S
C434 H422 0.930 . S
C434 C435 1.399 . S
C434 C439 1.399 . S
C435 C434 1.399 . S
C435 C436 1.376 1_565 S
C436 H423 0.930 . S
C436 C435 1.376 1_545 S
C436 C437 1.388 . S
C437 H424 0.930 . S
C437 C436 1.388 . S
C437 C438 1.390 . S
C438 C437 1.390 . S
C438 C439 1.394 1_545 S
C438 C444 1.465 1_455 S
C439 C434 1.399 . S
C439 C438 1.394 1_565 S
C439 C440 1.516 1_455 S
C440 C439 1.516 1_655 S
C440 C441 1.502 . S
C440 C442 1.561 1_655 S
C440 C443 1.526 1_565 S
C441 H425 0.959 . S
C441 H426 0.959 . S
C441 H427 0.961 . S
C441 C440 1.502 . S
C442 H428 0.960 . S
C442 H429 0.961 1_455 S
C442 H430 0.961 . S
C442 C440 1.561 1_455 S
C443 C440 1.526 1_545 S
C443 C444 1.396 . S
C443 C448 1.390 . S
C444 C438 1.465 1_655 S
C444 C443 1.396 . S
C444 C445 1.399 . S
C445 H431 0.929 . S
C445 C444 1.399 . S
C445 C446 1.385 . S
C446 H432 0.931 . S
C446 C445 1.385 . S
C446 C447 1.389 . S
C447 C446 1.389 . S
C447 C448 1.387 . S
C448 H433 0.930 . S
C448 C443 1.390 . S
C448 C447 1.387 . S
H449 C461 0.930 . S
H450 C463 0.930 . S
H451 C464 0.930 . S
H452 C468 0.959 . S
H453 C468 0.959 . S
H454 C468 0.961 . S
H455 C469 0.960 . S
H456 C469 0.961 . S
H457 C469 0.959 . S
H458 C472 0.929 . S
H459 C473 0.931 . S
H460 C475 0.930 . S
C461 H449 0.930 . S
C461 C462 1.399 . S
C461 C466 1.399 . S
C462 C461 1.399 . S
C462 C463 1.376 . S
C463 H450 0.930 . S
C463 C462 1.376 . S
C463 C464 1.388 . S
C464 H451 0.930 . S
C464 C463 1.388 . S
C464 C465 1.390 . S
C465 C464 1.390 . S
C465 C466 1.394 . S
C465 C471 1.465 . S
C466 C461 1.399 . S
C466 C465 1.394 . S
C466 C467 1.516 . S
C467 C466 1.516 . S
C467 C468 1.502 . S
C467 C469 1.561 . S
C467 C470 1.526 . S
C468 H452 0.959 . S
C468 H453 0.959 . S
C468 H454 0.961 . S
C468 C467 1.502 . S
C469 H455 0.960 . S
C469 H456 0.961 . S
C469 H457 0.959 . S
C469 C467 1.561 . S
C470 C467 1.526 . S
C470 C471 1.396 . S
C470 C475 1.390 . S
C471 C465 1.465 . S
C471 C470 1.396 . S
C471 C472 1.399 . S
C472 H458 0.929 . S
C472 C471 1.399 . S
C472 C473 1.385 . S
C473 H459 0.931 . S
C473 C472 1.385 . S
C473 C474 1.389 . S
C474 C473 1.389 . S
C474 C475 1.387 . S
C475 H460 0.930 . S
C475 C470 1.390 . S
C475 C474 1.387 . S
H476 C488 0.930 . S
H477 C490 0.930 . S
H478 C491 0.930 . S
H479 C495 0.959 . S
H480 C495 0.959 . S
H481 C495 0.961 . S
H482 C496 0.960 . S
H483 C496 0.961 . S
H484 C496 0.959 . S
H485 C499 0.929 . S
H486 C500 0.931 . S
H487 C502 0.930 . S
C488 H476 0.930 . S
C488 C489 1.399 . S
C488 C493 1.399 . S
C489 C488 1.399 . S
C489 C490 1.376 . S
C490 H477 0.930 . S
C490 C489 1.376 . S
C490 C491 1.388 . S
C491 H478 0.930 . S
C491 C490 1.388 . S
C491 C492 1.390 . S
C492 C491 1.390 . S
C492 C493 1.394 . S
C492 C498 1.465 . S
C493 C488 1.399 . S
C493 C492 1.394 . S
C493 C494 1.516 . S
C494 C493 1.516 . S
C494 C495 1.502 . S
C494 C496 1.561 . S
C494 C497 1.526 . S
C495 H479 0.959 . S
C495 H480 0.959 . S
C495 H481 0.961 . S
C495 C494 1.502 . S
C496 H482 0.960 . S
C496 H483 0.961 . S
C496 H484 0.959 . S
C496 C494 1.561 . S
C497 C494 1.526 . S
C497 C498 1.396 . S
C497 C502 1.390 . S
C498 C492 1.465 . S
C498 C497 1.396 . S
C498 C499 1.399 . S
C499 H485 0.929 . S
C499 C498 1.399 . S
C499 C500 1.385 . S
C500 H486 0.931 . S
C500 C499 1.385 . S
C500 C501 1.389 . S
C501 C500 1.389 . S
C501 C502 1.387 . S
C502 H487 0.930 . S
C502 C497 1.390 . S
C502 C501 1.387 . S
H503 C515 0.930 . S
H504 C517 0.930 . S
H505 C518 0.930 . S
H506 C522 0.959 . S
H507 C522 0.959 . S
H508 C522 0.961 . S
H509 C523 0.960 . S
H510 C523 0.961 . S
H511 C523 0.959 . S
H512 C526 0.929 . S
H513 C527 0.931 . S
H514 C529 0.930 . S
C515 H503 0.930 . S
C515 C516 1.399 . S
C515 C520 1.399 . S
C516 C515 1.399 . S
C516 C517 1.376 . S
C517 H504 0.930 . S
C517 C516 1.376 . S
C517 C518 1.388 . S
C518 H505 0.930 . S
C518 C517 1.388 . S
C518 C519 1.390 . S
C519 C518 1.390 . S
C519 C520 1.394 . S
C519 C525 1.465 . S
C520 C515 1.399 . S
C520 C519 1.394 . S
C520 C521 1.516 . S
C521 C520 1.516 . S
C521 C522 1.502 . S
C521 C523 1.561 . S
C521 C524 1.526 . S
C522 H506 0.959 . S
C522 H507 0.959 . S
C522 H508 0.961 . S
C522 C521 1.502 . S
C523 H509 0.960 . S
C523 H510 0.961 . S
C523 H511 0.959 . S
C523 C521 1.561 . S
C524 C521 1.526 . S
C524 C525 1.396 . S
C524 C529 1.390 . S
C525 C519 1.465 . S
C525 C524 1.396 . S
C525 C526 1.399 . S
C526 H512 0.929 . S
C526 C525 1.399 . S
C526 C527 1.385 . S
C527 H513 0.931 . S
C527 C526 1.385 . S
C527 C528 1.389 . S
C528 C527 1.389 . S
C528 C529 1.387 . S
C529 H514 0.930 . S
C529 C524 1.390 . S
C529 C528 1.387 . S
H530 C542 0.930 . S
H531 C544 0.930 . S
H532 C545 0.930 . S
H533 C549 0.959 . S
H534 C549 0.959 . S
H535 C549 0.961 . S
H536 C550 0.960 1_655 S
H537 C550 0.961 . S
H538 C550 0.959 . S
H539 C553 0.929 . S
H540 C554 0.931 . S
H541 C556 0.930 . S
C542 H530 0.930 . S
C542 C543 1.399 . S
C542 C547 1.399 . S
C543 C542 1.399 . S
C543 C544 1.376 . S
C544 H531 0.930 . S
C544 C543 1.376 . S
C544 C545 1.388 . S
C545 H532 0.930 . S
C545 C544 1.388 . S
C545 C546 1.390 . S
C546 C545 1.390 . S
C546 C547 1.394 . S
C546 C552 1.465 1_655 S
C547 C542 1.399 . S
C547 C546 1.394 . S
C547 C548 1.516 . S
C548 C547 1.516 . S
C548 C549 1.502 . S
C548 C550 1.561 1_655 S
C548 C551 1.526 1_655 S
C549 H533 0.959 . S
C549 H534 0.959 . S
C549 H535 0.961 . S
C549 C548 1.502 . S
C550 H536 0.960 1_455 S
C550 H537 0.961 . S
C550 H538 0.959 . S
C550 C548 1.561 1_455 S
C551 C548 1.526 1_455 S
C551 C552 1.396 . S
C551 C556 1.390 . S
C552 C546 1.465 1_455 S
C552 C551 1.396 . S
C552 C553 1.399 . S
C553 H539 0.929 . S
C553 C552 1.399 . S
C553 C554 1.385 . S
C554 H540 0.931 . S
C554 C553 1.385 . S
C554 C555 1.389 . S
C555 C554 1.389 . S
C555 C556 1.387 . S
C556 H541 0.930 . S
C556 C551 1.390 . S
C556 C555 1.387 . S
H557 C569 0.930 . S
H558 C571 0.930 . S
H559 C572 0.930 . S
H560 C576 0.959 . S
H561 C576 0.959 . S
H562 C576 0.961 . S
H563 C577 0.960 . S
H564 C577 0.961 . S
H565 C577 0.959 . S
H566 C580 0.929 . S
H567 C581 0.931 . S
H568 C583 0.930 . S
C569 H557 0.930 . S
C569 C570 1.399 . S
C569 C574 1.399 . S
C570 C569 1.399 . S
C570 C571 1.376 1_554 S
C571 H558 0.930 . S
C571 C570 1.376 1_556 S
C571 C572 1.388 . S
C572 H559 0.930 . S
C572 C571 1.388 . S
C572 C573 1.390 . S
C573 C572 1.390 . S
C573 C574 1.394 1_556 S
C573 C579 1.465 . S
C574 C569 1.399 . S
C574 C573 1.394 1_554 S
C574 C575 1.516 . S
C575 C574 1.516 . S
C575 C576 1.502 . S
C575 C577 1.561 . S
C575 C578 1.526 . S
C576 H560 0.959 . S
C576 H561 0.959 . S
C576 H562 0.961 . S
C576 C575 1.502 . S
C577 H563 0.960 . S
C577 H564 0.961 . S
C577 H565 0.959 . S
C577 C575 1.561 . S
C578 C575 1.526 . S
C578 C579 1.396 1_554 S
C578 C583 1.390 . S
C579 C573 1.465 . S
C579 C578 1.396 1_556 S
C579 C580 1.399 . S
C580 H566 0.929 . S
C580 C579 1.399 . S
C580 C581 1.385 . S
C581 H567 0.931 . S
C581 C580 1.385 . S
C581 C582 1.389 . S
C582 C581 1.389 . S
C582 C583 1.387 1_556 S
C583 H568 0.930 . S
C583 C578 1.390 . S
C583 C582 1.387 1_554 S
H584 C596 0.930 . S
H585 C598 0.930 . S
H586 C599 0.930 . S
H587 C603 0.959 . S
H588 C603 0.959 . S
H589 C603 0.961 . S
H590 C604 0.960 . S
H591 C604 0.961 1_556 S
H592 C604 0.959 . S
H593 C607 0.929 . S
H594 C608 0.931 . S
H595 C610 0.930 . S
C596 H584 0.930 . S
C596 C597 1.399 . S
C596 C601 1.399 . S
C597 C596 1.399 . S
C597 C598 1.376 . S
C598 H585 0.930 . S
C598 C597 1.376 . S
C598 C599 1.388 . S
C599 H586 0.930 . S
C599 C598 1.388 . S
C599 C600 1.390 . S
C600 C599 1.390 . S
C600 C601 1.394 . S
C600 C606 1.465 . S
C601 C596 1.399 . S
C601 C600 1.394 . S
C601 C602 1.516 . S
C602 C601 1.516 . S
C602 C603 1.502 . S
C602 C604 1.561 . S
C602 C605 1.526 . S
C603 H587 0.959 . S
C603 H588 0.959 . S
C603 H589 0.961 . S
C603 C602 1.502 . S
C604 H590 0.960 . S
C604 H591 0.961 1_554 S
C604 H592 0.959 . S
C604 C602 1.561 . S
C605 C602 1.526 . S
C605 C606 1.396 . S
C605 C610 1.390 . S
C606 C600 1.465 . S
C606 C605 1.396 . S
C606 C607 1.399 . S
C607 H593 0.929 . S
C607 C606 1.399 . S
C607 C608 1.385 . S
C608 H594 0.931 . S
C608 C607 1.385 . S
C608 C609 1.389 . S
C609 C608 1.389 . S
C609 C610 1.387 . S
C610 H595 0.930 . S
C610 C605 1.390 . S
C610 C609 1.387 . S
H611 C623 0.930 . S
H612 C625 0.930 . S
H613 C626 0.930 . S
H614 C630 0.959 . S
H615 C630 0.959 . S
H616 C630 0.961 . S
H617 C631 0.960 . S
H618 C631 0.961 . S
H619 C631 0.959 . S
H620 C634 0.929 . S
H621 C635 0.931 . S
H622 C637 0.930 . S
C623 H611 0.930 . S
C623 C624 1.399 . S
C623 C628 1.399 . S
C624 C623 1.399 . S
C624 C625 1.376 . S
C625 H612 0.930 . S
C625 C624 1.376 . S
C625 C626 1.388 . S
C626 H613 0.930 . S
C626 C625 1.388 . S
C626 C627 1.390 . S
C627 C626 1.390 . S
C627 C628 1.394 . S
C627 C633 1.465 . S
C628 C623 1.399 . S
C628 C627 1.394 . S
C628 C629 1.516 . S
C629 C628 1.516 . S
C629 C630 1.502 . S
C629 C631 1.561 . S
C629 C632 1.526 . S
C630 H614 0.959 . S
C630 H615 0.959 . S
C630 H616 0.961 . S
C630 C629 1.502 . S
C631 H617 0.960 . S
C631 H618 0.961 . S
C631 H619 0.959 . S
C631 C629 1.561 . S
C632 C629 1.526 . S
C632 C633 1.396 . S
C632 C637 1.390 . S
C633 C627 1.465 . S
C633 C632 1.396 . S
C633 C634 1.399 . S
C634 H620 0.929 . S
C634 C633 1.399 . S
C634 C635 1.385 . S
C635 H621 0.931 . S
C635 C634 1.385 . S
C635 C636 1.389 . S
C636 C635 1.389 . S
C636 C637 1.387 . S
C637 H622 0.930 . S
C637 C632 1.390 . S
C637 C636 1.387 . S
H638 C650 0.930 . S
H639 C652 0.930 . S
H640 C653 0.930 . S
H641 C657 0.959 . S
H642 C657 0.959 . S
H643 C657 0.961 . S
H644 C658 0.960 . S
H645 C658 0.961 . S
H646 C658 0.959 . S
H647 C661 0.929 . S
H648 C662 0.931 . S
H649 C664 0.930 . S
C650 H638 0.930 . S
C650 C651 1.399 . S
C650 C655 1.399 . S
C651 C650 1.399 . S
C651 C652 1.376 . S
C652 H639 0.930 . S
C652 C651 1.376 . S
C652 C653 1.388 . S
C653 H640 0.930 . S
C653 C652 1.388 . S
C653 C654 1.390 . S
C654 C653 1.390 . S
C654 C655 1.394 . S
C654 C660 1.465 . S
C655 C650 1.399 . S
C655 C654 1.394 . S
C655 C656 1.516 . S
C656 C655 1.516 . S
C656 C657 1.502 . S
C656 C658 1.561 . S
C656 C659 1.526 . S
C657 H641 0.959 . S
C657 H642 0.959 . S
C657 H643 0.961 . S
C657 C656 1.502 . S
C658 H644 0.960 . S
C658 H645 0.961 . S
C658 H646 0.959 . S
C658 C656 1.561 . S
C659 C656 1.526 . S
C659 C660 1.396 . S
C659 C664 1.390 . S
C660 C654 1.465 . S
C660 C659 1.396 . S
C660 C661 1.399 . S
C661 H647 0.929 . S
C661 C660 1.399 . S
C661 C662 1.385 . S
C662 H648 0.931 . S
C662 C661 1.385 . S
C662 C663 1.389 . S
C663 C662 1.389 . S
C663 C664 1.387 . S
C664 H649 0.930 . S
C664 C659 1.390 . S
C664 C663 1.387 . S
H665 C677 0.930 . S
H666 C679 0.930 . S
H667 C680 0.930 . S
H668 C684 0.959 . S
H669 C684 0.959 . S
H670 C684 0.961 . S
H671 C685 0.960 . S
H672 C685 0.961 . S
H673 C685 0.959 . S
H674 C688 0.929 . S
H675 C689 0.931 . S
H676 C691 0.930 . S
C677 H665 0.930 . S
C677 C678 1.399 . S
C677 C682 1.399 . S
C678 C677 1.399 . S
C678 C679 1.376 . S
C679 H666 0.930 . S
C679 C678 1.376 . S
C679 C680 1.388 . S
C680 H667 0.930 . S
C680 C679 1.388 . S
C680 C681 1.390 . S
C681 C680 1.390 . S
C681 C682 1.394 . S
C681 C687 1.465 . S
C682 C677 1.399 . S
C682 C681 1.394 . S
C682 C683 1.516 . S
C683 C682 1.516 . S
C683 C684 1.502 . S
C683 C685 1.561 . S
C683 C686 1.526 . S
C684 H668 0.959 . S
C684 H669 0.959 . S
C684 H670 0.961 . S
C684 C683 1.502 . S
C685 H671 0.960 . S
C685 H672 0.961 . S
C685 H673 0.959 . S
C685 C683 1.561 . S
C686 C683 1.526 . S
C686 C687 1.396 . S
C686 C691 1.390 . S
C687 C681 1.465 . S
C687 C686 1.396 . S
C687 C688 1.399 . S
C688 H674 0.929 . S
C688 C687 1.399 . S
C688 C689 1.385 . S
C689 H675 0.931 . S
C689 C688 1.385 . S
C689 C690 1.389 . S
C690 C689 1.389 . S
C690 C691 1.387 . S
C691 H676 0.930 . S
C691 C686 1.390 . S
C691 C690 1.387 . S
H692 C704 0.930 . S
H693 C706 0.930 . S
H694 C707 0.930 . S
H695 C711 0.959 . S
H696 C711 0.959 . S
H697 C711 0.961 . S
H698 C712 0.960 . S
H699 C712 0.961 . S
H700 C712 0.959 . S
H701 C715 0.929 . S
H702 C716 0.931 . S
H703 C718 0.930 . S
C704 H692 0.930 . S
C704 C705 1.399 . S
C704 C709 1.399 . S
C705 C704 1.399 . S
C705 C706 1.376 . S
C706 H693 0.930 . S
C706 C705 1.376 . S
C706 C707 1.388 . S
C707 H694 0.930 . S
C707 C706 1.388 . S
C707 C708 1.390 . S
C708 C707 1.390 . S
C708 C709 1.394 . S
C708 C714 1.465 . S
C709 C704 1.399 . S
C709 C708 1.394 . S
C709 C710 1.516 . S
C710 C709 1.516 . S
C710 C711 1.502 . S
C710 C712 1.561 . S
C710 C713 1.526 . S
C711 H695 0.959 . S
C711 H696 0.959 . S
C711 H697 0.961 . S
C711 C710 1.502 . S
C712 H698 0.960 . S
C712 H699 0.961 . S
C712 H700 0.959 . S
C712 C710 1.561 . S
C713 C710 1.526 . S
C713 C714 1.396 . S
C713 C718 1.390 . S
C714 C708 1.465 . S
C714 C713 1.396 . S
C714 C715 1.399 . S
C715 H701 0.929 . S
C715 C714 1.399 . S
C715 C716 1.385 . S
C716 H702 0.931 . S
C716 C715 1.385 . S
C716 C717 1.389 . S
C717 C716 1.389 . S
C717 C718 1.387 . S
C718 H703 0.930 . S
C718 C713 1.390 . S
C718 C717 1.387 . S
H719 C731 0.930 . S
H720 C733 0.930 . S
H721 C734 0.930 . S
H722 C738 0.959 . S
H723 C738 0.959 . S
H724 C738 0.961 . S
H725 C739 0.960 . S
H726 C739 0.961 . S
H727 C739 0.959 . S
H728 C742 0.929 . S
H729 C743 0.931 . S
H730 C745 0.930 . S
C731 H719 0.930 . S
C731 C732 1.399 . S
C731 C736 1.399 . S
C732 C731 1.399 . S
C732 C733 1.376 . S
C733 H720 0.930 . S
C733 C732 1.376 . S
C733 C734 1.388 . S
C734 H721 0.930 . S
C734 C733 1.388 . S
C734 C735 1.390 . S
C735 C734 1.390 . S
C735 C736 1.394 . S
C735 C741 1.465 . S
C736 C731 1.399 . S
C736 C735 1.394 . S
C736 C737 1.516 . S
C737 C736 1.516 . S
C737 C738 1.502 . S
C737 C739 1.561 . S
C737 C740 1.526 . S
C738 H722 0.959 . S
C738 H723 0.959 . S
C738 H724 0.961 . S
C738 C737 1.502 . S
C739 H725 0.960 . S
C739 H726 0.961 . S
C739 H727 0.959 . S
C739 C737 1.561 . S
C740 C737 1.526 . S
C740 C741 1.396 . S
C740 C745 1.390 . S
C741 C735 1.465 . S
C741 C740 1.396 . S
C741 C742 1.399 . S
C742 H728 0.929 . S
C742 C741 1.399 . S
C742 C743 1.385 . S
C743 H729 0.931 . S
C743 C742 1.385 . S
C743 C744 1.389 . S
C744 C743 1.389 . S
C744 C745 1.387 . S
C745 H730 0.930 . S
C745 C740 1.390 . S
C745 C744 1.387 . S
H746 C758 0.930 . S
H747 C760 0.930 . S
H748 C761 0.930 . S
H749 C765 0.959 . S
H750 C765 0.959 . S
H751 C765 0.961 . S
H752 C766 0.960 . S
H753 C766 0.961 . S
H754 C766 0.959 . S
H755 C769 0.929 . S
H756 C770 0.931 . S
H757 C772 0.930 . S
C758 H746 0.930 . S
C758 C759 1.399 . S
C758 C763 1.399 . S
C759 C758 1.399 . S
C759 C760 1.376 . S
C760 H747 0.930 . S
C760 C759 1.376 . S
C760 C761 1.388 . S
C761 H748 0.930 . S
C761 C760 1.388 . S
C761 C762 1.390 . S
C762 C761 1.390 . S
C762 C763 1.394 . S
C762 C768 1.465 . S
C763 C758 1.399 . S
C763 C762 1.394 . S
C763 C764 1.516 . S
C764 C763 1.516 . S
C764 C765 1.502 . S
C764 C766 1.561 . S
C764 C767 1.526 . S
C765 H749 0.959 . S
C765 H750 0.959 . S
C765 H751 0.961 . S
C765 C764 1.502 . S
C766 H752 0.960 . S
C766 H753 0.961 . S
C766 H754 0.959 . S
C766 C764 1.561 . S
C767 C764 1.526 . S
C767 C768 1.396 . S
C767 C772 1.390 . S
C768 C762 1.465 . S
C768 C767 1.396 . S
C768 C769 1.399 . S
C769 H755 0.929 . S
C769 C768 1.399 . S
C769 C770 1.385 . S
C770 H756 0.931 . S
C770 C769 1.385 . S
C770 C771 1.389 . S
C771 C770 1.389 . S
C771 C772 1.387 . S
C772 H757 0.930 . S
C772 C767 1.390 . S
C772 C771 1.387 . S
H773 C785 0.930 1_455 S
H774 C787 0.930 . S
H775 C788 0.930 . S
H776 C792 0.959 . S
H777 C792 0.959 . S
H778 C792 0.961 . S
H779 C793 0.960 . S
H780 C793 0.961 . S
H781 C793 0.959 . S
H782 C796 0.929 . S
H783 C797 0.931 . S
H784 C799 0.930 . S
C785 H773 0.930 1_655 S
C785 C786 1.399 . S
C785 C790 1.399 . S
C786 C785 1.399 . S
C786 C787 1.376 . S
C787 H774 0.930 . S
C787 C786 1.376 . S
C787 C788 1.388 . S
C788 H775 0.930 . S
C788 C787 1.388 . S
C788 C789 1.390 . S
C789 C788 1.390 . S
C789 C790 1.394 . S
C789 C795 1.465 . S
C790 C785 1.399 . S
C790 C789 1.394 . S
C790 C791 1.516 . S
C791 C790 1.516 . S
C791 C792 1.502 . S
C791 C793 1.561 . S
C791 C794 1.526 . S
C792 H776 0.959 . S
C792 H777 0.959 . S
C792 H778 0.961 . S
C792 C791 1.502 . S
C793 H779 0.960 . S
C793 H780 0.961 . S
C793 H781 0.959 . S
C793 C791 1.561 . S
C794 C791 1.526 . S
C794 C795 1.396 . S
C794 C799 1.390 . S
C795 C789 1.465 . S
C795 C794 1.396 . S
C795 C796 1.399 . S
C796 H782 0.929 . S
C796 C795 1.399 . S
C796 C797 1.385 . S
C797 H783 0.931 . S
C797 C796 1.385 . S
C797 C798 1.389 . S
C798 C797 1.389 . S
C798 C799 1.387 . S
C799 H784 0.930 . S
C799 C794 1.390 . S
C799 C798 1.387 . S
H800 C812 0.930 . S
H801 C814 0.930 . S
H802 C815 0.930 . S
H803 C819 0.959 . S
H804 C819 0.959 . S
H805 C819 0.961 . S
H806 C820 0.960 . S
H807 C820 0.961 . S
H808 C820 0.959 . S
H809 C823 0.929 . S
H810 C824 0.931 . S
H811 C826 0.930 . S
C812 H800 0.930 . S
C812 C813 1.399 . S
C812 C817 1.399 . S
C813 C812 1.399 . S
C813 C814 1.376 . S
C814 H801 0.930 . S
C814 C813 1.376 . S
C814 C815 1.388 . S
C815 H802 0.930 . S
C815 C814 1.388 . S
C815 C816 1.390 . S
C816 C815 1.390 . S
C816 C817 1.394 . S
C816 C822 1.465 . S
C817 C812 1.399 . S
C817 C816 1.394 . S
C817 C818 1.516 . S
C818 C817 1.516 . S
C818 C819 1.502 . S
C818 C820 1.561 . S
C818 C821 1.526 . S
C819 H803 0.959 . S
C819 H804 0.959 . S
C819 H805 0.961 . S
C819 C818 1.502 . S
C820 H806 0.960 . S
C820 H807 0.961 . S
C820 H808 0.959 . S
C820 C818 1.561 . S
C821 C818 1.526 . S
C821 C822 1.396 . S
C821 C826 1.390 . S
C822 C816 1.465 . S
C822 C821 1.396 . S
C822 C823 1.399 . S
C823 H809 0.929 . S
C823 C822 1.399 . S
C823 C824 1.385 . S
C824 H810 0.931 . S
C824 C823 1.385 . S
C824 C825 1.389 . S
C825 C824 1.389 . S
C825 C826 1.387 . S
C826 H811 0.930 . S
C826 C821 1.390 . S
C826 C825 1.387 . S
H827 C839 0.930 . S
H828 C841 0.930 . S
H829 C842 0.930 . S
H830 C846 0.959 . S
H831 C846 0.959 . S
H832 C846 0.961 . S
H833 C847 0.960 . S
H834 C847 0.961 1_545 S
H835 C847 0.959 . S
H836 C850 0.929 . S
H837 C851 0.931 1_455 S
H838 C853 0.930 1_545 S
C839 H827 0.930 . S
C839 C840 1.399 . S
C839 C844 1.399 . S
C840 C839 1.399 . S
C840 C841 1.376 . S
C841 H828 0.930 . S
C841 C840 1.376 . S
C841 C842 1.388 . S
C842 H829 0.930 . S
C842 C841 1.388 . S
C842 C843 1.390 . S
C843 C842 1.390 . S
C843 C844 1.394 . S
C843 C849 1.465 . S
C844 C839 1.399 . S
C844 C843 1.394 . S
C844 C845 1.516 . S
C845 C844 1.516 . S
C845 C846 1.502 1_565 S
C845 C847 1.561 . S
C845 C848 1.526 . S
C846 H830 0.959 . S
C846 H831 0.959 . S
C846 H832 0.961 . S
C846 C845 1.502 1_545 S
C847 H833 0.960 . S
C847 H834 0.961 1_565 S
C847 H835 0.959 . S
C847 C845 1.561 . S
C848 C845 1.526 . S
C848 C849 1.396 . S
C848 C853 1.390 . S
C849 C843 1.465 . S
C849 C848 1.396 . S
C849 C850 1.399 . S
C850 H836 0.929 . S
C850 C849 1.399 . S
C850 C851 1.385 . S
C851 H837 0.931 1_655 S
C851 C850 1.385 . S
C851 C852 1.389 . S
C852 C851 1.389 . S
C852 C853 1.387 . S
C853 H838 0.930 1_565 S
C853 C848 1.390 . S
C853 C852 1.387 . S
H854 C866 0.930 . S
H855 C868 0.930 . S
H856 C869 0.930 . S
H857 C873 0.959 . S
H858 C873 0.959 . S
H859 C873 0.961 . S
H860 C874 0.960 . S
H861 C874 0.961 . S
H862 C874 0.959 . S
H863 C877 0.929 1_556 S
H864 C878 0.931 . S
H865 C880 0.930 . S
C866 H854 0.930 . S
C866 C867 1.399 . S
C866 C871 1.399 . S
C867 C866 1.399 . S
C867 C868 1.376 . S
C868 H855 0.930 . S
C868 C867 1.376 . S
C868 C869 1.388 . S
C869 H856 0.930 . S
C869 C868 1.388 . S
C869 C870 1.390 . S
C870 C869 1.390 . S
C870 C871 1.394 . S
C870 C876 1.465 . S
C871 C866 1.399 . S
C871 C870 1.394 . S
C871 C872 1.516 . S
C872 C871 1.516 . S
C872 C873 1.502 . S
C872 C874 1.561 . S
C872 C875 1.526 . S
C873 H857 0.959 . S
C873 H858 0.959 . S
C873 H859 0.961 . S
C873 C872 1.502 . S
C874 H860 0.960 . S
C874 H861 0.961 . S
C874 H862 0.959 . S
C874 C872 1.561 . S
C875 C872 1.526 . S
C875 C876 1.396 . S
C875 C880 1.390 . S
C876 C870 1.465 . S
C876 C875 1.396 . S
C876 C877 1.399 . S
C877 H863 0.929 1_554 S
C877 C876 1.399 . S
C877 C878 1.385 1_554 S
C878 H864 0.931 . S
C878 C877 1.385 1_556 S
C878 C879 1.389 1_556 S
C879 C878 1.389 1_554 S
C879 C880 1.387 . S
C880 H865 0.930 . S
C880 C875 1.390 . S
C880 C879 1.387 . S
H881 C893 0.930 . S
H882 C895 0.930 . S
H883 C896 0.930 1_565 S
H884 C900 0.959 . S
H885 C900 0.959 . S
H886 C900 0.961 . S
H887 C901 0.960 . S
H888 C901 0.961 . S
H889 C901 0.959 . S
H890 C904 0.929 . S
H891 C905 0.931 . S
H892 C907 0.930 . S
C893 H881 0.930 . S
C893 C894 1.399 . S
C893 C898 1.399 . S
C894 C893 1.399 . S
C894 C895 1.376 1_545 S
C895 H882 0.930 . S
C895 C894 1.376 1_565 S
C895 C896 1.388 1_565 S
C896 H883 0.930 1_545 S
C896 C895 1.388 1_545 S
C896 C897 1.390 . S
C897 C896 1.390 . S
C897 C898 1.394 . S
C897 C903 1.465 . S
C898 C893 1.399 . S
C898 C897 1.394 . S
C898 C899 1.516 . S
C899 C898 1.516 . S
C899 C900 1.502 . S
C899 C901 1.561 . S
C899 C902 1.526 . S
C900 H884 0.959 . S
C900 H885 0.959 . S
C900 H886 0.961 . S
C900 C899 1.502 . S
C901 H887 0.960 . S
C901 H888 0.961 . S
C901 H889 0.959 . S
C901 C899 1.561 . S
C902 C899 1.526 . S
C902 C903 1.396 . S
C902 C907 1.390 . S
C903 C897 1.465 . S
C903 C902 1.396 . S
C903 C904 1.399 . S
C904 H890 0.929 . S
C904 C903 1.399 . S
C904 C905 1.385 . S
C905 H891 0.931 . S
C905 C904 1.385 . S
C905 C906 1.389 . S
C906 C905 1.389 . S
C906 C907 1.387 . S
C907 H892 0.930 . S
C907 C902 1.390 . S
C907 C906 1.387 . S
H908 C920 0.930 . S
H909 C922 0.930 . S
H910 C923 0.930 . S
H911 C927 0.959 . S
H912 C927 0.959 . S
H913 C927 0.961 . S
H914 C928 0.960 . S
H915 C928 0.961 . S
H916 C928 0.959 . S
H917 C931 0.929 . S
H918 C932 0.931 . S
H919 C934 0.930 . S
C920 H908 0.930 . S
C920 C921 1.399 . S
C920 C925 1.399 . S
C921 C920 1.399 . S
C921 C922 1.376 . S
C922 H909 0.930 . S
C922 C921 1.376 . S
C922 C923 1.388 . S
C923 H910 0.930 . S
C923 C922 1.388 . S
C923 C924 1.390 . S
C924 C923 1.390 . S
C924 C925 1.394 . S
C924 C930 1.465 . S
C925 C920 1.399 . S
C925 C924 1.394 . S
C925 C926 1.516 . S
C926 C925 1.516 . S
C926 C927 1.502 . S
C926 C928 1.561 . S
C926 C929 1.526 . S
C927 H911 0.959 . S
C927 H912 0.959 . S
C927 H913 0.961 . S
C927 C926 1.502 . S
C928 H914 0.960 . S
C928 H915 0.961 . S
C928 H916 0.959 . S
C928 C926 1.561 . S
C929 C926 1.526 . S
C929 C930 1.396 . S
C929 C934 1.390 . S
C930 C924 1.465 . S
C930 C929 1.396 . S
C930 C931 1.399 . S
C931 H917 0.929 . S
C931 C930 1.399 . S
C931 C932 1.385 . S
C932 H918 0.931 . S
C932 C931 1.385 . S
C932 C933 1.389 . S
C933 C932 1.389 . S
C933 C934 1.387 . S
C934 H919 0.930 . S
C934 C929 1.390 . S
C934 C933 1.387 . S
H935 C947 0.930 1_565 S
H936 C949 0.944 . S
H937 C950 0.930 . S
H938 C954 0.959 . S
H939 C954 0.959 . S
H940 C954 0.961 . S
H941 C955 0.960 1_565 S
H942 C955 0.961 1_565 S
H943 C955 0.959 . S
H944 C958 0.929 . S
H945 C959 0.931 . S
H946 C961 0.930 . S
C947 H935 0.930 1_545 S
C947 C948 1.399 . S
C947 C952 1.399 . S
C948 C947 1.399 . S
C948 C949 1.376 . S
C949 H936 0.944 . S
C949 C948 1.376 . S
C949 C950 1.388 . S
C950 H937 0.930 . S
C950 C949 1.388 . S
C950 C951 1.390 . S
C951 C950 1.390 . S
C951 C952 1.394 . S
C951 C957 1.465 . S
C952 C947 1.399 . S
C952 C951 1.394 . S
C952 C953 1.516 . S
C953 C952 1.516 . S
C953 C954 1.502 1_545 S
C953 C955 1.561 . S
C953 C956 1.526 . S
C954 H938 0.959 . S
C954 H939 0.959 . S
C954 H940 0.961 . S
C954 C953 1.502 1_565 S
C955 H941 0.960 1_545 S
C955 H942 0.961 1_545 S
C955 H943 0.959 . S
C955 C953 1.561 . S
C956 C953 1.526 . S
C956 C957 1.396 . S
C956 C961 1.390 . S
C957 C951 1.465 . S
C957 C956 1.396 . S
C957 C958 1.399 . S
C958 H944 0.929 . S
C958 C957 1.399 . S
C958 C959 1.385 . S
C959 H945 0.931 . S
C959 C958 1.385 . S
C959 C960 1.389 . S
C960 C959 1.389 . S
C960 C961 1.387 . S
C961 H946 0.930 . S
C961 C956 1.390 . S
C961 C960 1.387 . S
H962 C974 0.930 1_554 S
H963 C976 0.930 . S
H964 C977 0.930 . S
H965 C981 0.959 . S
H966 C981 0.959 . S
H967 C981 0.961 1_554 S
H968 C982 0.960 1_554 S
H969 C982 0.958 1_554 S
H970 C982 0.959 . S
H971 C985 0.929 . S
H972 C986 0.931 . S
H973 C988 0.930 . S
C974 H962 0.930 1_556 S
C974 C975 1.399 . S
C974 C979 1.399 . S
C975 C974 1.399 . S
C975 C976 1.376 . S
C976 H963 0.930 . S
C976 C975 1.376 . S
C976 C977 1.388 . S
C977 H964 0.930 . S
C977 C976 1.388 . S
C977 C978 1.390 . S
C978 C977 1.390 . S
C978 C979 1.394 . S
C978 C984 1.465 . S
C979 C974 1.399 . S
C979 C978 1.394 . S
C979 C980 1.516 . S
C980 C979 1.516 . S
C980 C981 1.502 . S
C980 C982 1.561 . S
C980 C983 1.526 . S
C981 H965 0.959 . S
C981 H966 0.959 . S
C981 H967 0.961 1_556 S
C981 C980 1.502 . S
C982 H968 0.960 1_556 S
C982 H969 0.958 1_556 S
C982 H970 0.959 . S
C982 C980 1.561 . S
C983 C980 1.526 . S
C983 C984 1.396 . S
C983 C988 1.390 . S
C984 C978 1.465 . S
C984 C983 1.396 . S
C984 C985 1.399 . S
C985 H971 0.929 . S
C985 C984 1.399 . S
C985 C986 1.385 . S
C986 H972 0.931 . S
C986 C985 1.385 . S
C986 C987 1.389 . S
C987 C986 1.389 . S
C987 C988 1.387 . S
C988 H973 0.930 . S
C988 C983 1.390 . S
C988 C987 1.387 . S
H989 C1001 0.930 . S
H990 C1003 0.930 . S
H991 C1004 0.930 . S
H992 C1008 0.959 . S
H993 C1008 0.959 . S
H994 C1008 0.961 . S
H995 C1009 0.960 . S
H996 C1009 0.961 . S
H997 C1009 0.971 . S
H998 C1012 0.929 . S
H999 C1013 0.931 . S
H1000 C1015 0.930 . S
C1001 H989 0.930 . S
C1001 C1002 1.399 . S
C1001 C1006 1.399 . S
C1002 C1001 1.399 . S
C1002 C1003 1.376 . S
C1003 H990 0.930 . S
C1003 C1002 1.376 . S
C1003 C1004 1.388 . S
C1004 H991 0.930 . S
C1004 C1003 1.388 . S
C1004 C1005 1.390 . S
C1005 C1004 1.390 . S
C1005 C1006 1.394 . S
C1005 C1011 1.465 . S
C1006 C1001 1.399 . S
C1006 C1005 1.394 . S
C1006 C1007 1.516 . S
C1007 C1006 1.516 . S
C1007 C1008 1.502 . S
C1007 C1009 1.561 . S
C1007 C1010 1.526 . S
C1008 H992 0.959 . S
C1008 H993 0.959 . S
C1008 H994 0.961 . S
C1008 C1007 1.502 . S
C1009 H995 0.960 . S
C1009 H996 0.961 . S
C1009 H997 0.971 . S
C1009 C1007 1.561 . S
C1010 C1007 1.526 . S
C1010 C1011 1.396 . S
C1010 C1015 1.390 . S
C1011 C1005 1.465 . S
C1011 C1010 1.396 . S
C1011 C1012 1.399 . S
C1012 H998 0.929 . S
C1012 C1011 1.399 . S
C1012 C1013 1.385 . S
C1013 H999 0.931 . S
C1013 C1012 1.385 . S
C1013 C1014 1.389 . S
C1014 C1013 1.389 . S
C1014 C1015 1.387 . S
C1015 H1000 0.930 . S
C1015 C1010 1.390 . S
C1015 C1014 1.387 . S
H1016 C1028 0.930 . S
H1017 C1030 0.930 . S
H1018 C1031 0.930 . S
H1019 C1035 0.959 . S
H1020 C1035 0.959 . S
H1021 C1035 0.961 . S
H1022 C1036 0.960 . S
H1023 C1036 0.961 . S
H1024 C1036 0.959 . S
H1025 C1039 0.929 . S
H1026 C1040 0.931 . S
H1027 C1042 0.930 . S
C1028 H1016 0.930 . S
C1028 C1029 1.399 . S
C1028 C1033 1.399 . S
C1029 C1028 1.399 . S
C1029 C1030 1.376 1_556 S
C1030 H1017 0.930 . S
C1030 C1029 1.376 1_554 S
C1030 C1031 1.388 . S
C1031 H1018 0.930 . S
C1031 C1030 1.388 . S
C1031 C1032 1.380 1_554 S
C1032 C1031 1.380 1_556 S
C1032 C1033 1.407 . S
C1032 C1038 1.465 . S
C1033 C1028 1.399 . S
C1033 C1032 1.407 . S
C1033 C1034 1.516 . S
C1034 C1033 1.516 . S
C1034 C1035 1.502 . S
C1034 C1036 1.561 . S
C1034 C1037 1.526 . S
C1035 H1019 0.959 . S
C1035 H1020 0.959 . S
C1035 H1021 0.961 . S
C1035 C1034 1.502 . S
C1036 H1022 0.960 . S
C1036 H1023 0.961 . S
C1036 H1024 0.959 . S
C1036 C1034 1.561 . S
C1037 C1034 1.526 . S
C1037 C1038 1.394 . S
C1037 C1042 1.390 . S
C1038 C1032 1.465 . S
C1038 C1037 1.394 . S
C1038 C1039 1.400 1_556 S
C1039 H1025 0.929 . S
C1039 C1038 1.400 1_554 S
C1039 C1040 1.385 . S
C1040 H1026 0.931 . S
C1040 C1039 1.385 . S
C1040 C1041 1.389 1_554 S
C1041 C1040 1.389 1_556 S
C1041 C1042 1.387 . S
C1042 H1027 0.930 . S
C1042 C1037 1.390 . S
C1042 C1041 1.387 . S
H1043 C1055 0.930 . S
H1044 C1057 0.930 . S
H1045 C1058 0.930 . S
H1046 C1062 0.959 . S
H1047 C1062 0.959 . S
H1048 C1062 0.961 . S
H1049 C1063 0.960 . S
H1050 C1063 0.961 . S
H1051 C1063 0.959 . S
H1052 C1066 0.929 . S
H1053 C1067 0.931 . S
H1054 C1069 0.930 . S
C1055 H1043 0.930 . S
C1055 C1056 1.399 . S
C1055 C1060 1.399 . S
C1056 C1055 1.399 . S
C1056 C1057 1.376 . S
C1057 H1044 0.930 . S
C1057 C1056 1.376 . S
C1057 C1058 1.388 . S
C1058 H1045 0.930 . S
C1058 C1057 1.388 . S
C1058 C1059 1.390 . S
C1059 C1058 1.390 . S
C1059 C1060 1.394 . S
C1059 C1065 1.465 . S
C1060 C1055 1.399 . S
C1060 C1059 1.394 . S
C1060 C1061 1.516 . S
C1061 C1060 1.516 . S
C1061 C1062 1.502 . S
C1061 C1063 1.561 . S
C1061 C1064 1.526 . S
C1062 H1046 0.959 . S
C1062 H1047 0.959 . S
C1062 H1048 0.961 . S
C1062 C1061 1.502 . S
C1063 H1049 0.960 . S
C1063 H1050 0.961 . S
C1063 H1051 0.959 . S
C1063 C1061 1.561 . S
C1064 C1061 1.526 . S
C1064 C1065 1.396 . S
C1064 C1069 1.390 . S
C1065 C1059 1.465 . S
C1065 C1064 1.396 . S
C1065 C1066 1.399 . S
C1066 H1052 0.929 . S
C1066 C1065 1.399 . S
C1066 C1067 1.385 . S
C1067 H1053 0.931 . S
C1067 C1066 1.385 . S
C1067 C1068 1.389 . S
C1068 C1067 1.389 . S
C1068 C1069 1.387 . S
C1069 H1054 0.930 . S
C1069 C1064 1.390 . S
C1069 C1068 1.387 . S
H1070 C1082 0.930 . S
H1071 C1084 0.930 . S
H1072 C1085 0.942 . S
H1073 C1089 0.959 . S
H1074 C1089 0.959 . S
H1075 C1089 0.961 . S
H1076 C1090 0.960 . S
H1077 C1090 0.961 1_655 S
H1078 C1090 0.959 1_655 S
H1079 C1093 0.929 . S
H1080 C1094 0.931 . S
H1081 C1096 0.930 . S
C1082 H1070 0.930 . S
C1082 C1083 1.399 . S
C1082 C1087 1.399 . S
C1083 C1082 1.399 . S
C1083 C1084 1.376 . S
C1084 H1071 0.930 . S
C1084 C1083 1.376 . S
C1084 C1085 1.388 . S
C1085 H1072 0.942 . S
C1085 C1084 1.388 . S
C1085 C1086 1.390 . S
C1086 C1085 1.390 . S
C1086 C1087 1.394 . S
C1086 C1092 1.465 1_455 S
C1087 C1082 1.399 . S
C1087 C1086 1.394 . S
C1087 C1088 1.516 . S
C1088 C1087 1.516 . S
C1088 C1089 1.502 . S
C1088 C1090 1.561 . S
C1088 C1091 1.526 1_455 S
C1089 H1073 0.959 . S
C1089 H1074 0.959 . S
C1089 H1075 0.961 . S
C1089 C1088 1.502 . S
C1090 H1076 0.960 . S
C1090 H1077 0.961 1_455 S
C1090 H1078 0.959 1_455 S
C1090 C1088 1.561 . S
C1091 C1088 1.526 1_655 S
C1091 C1092 1.396 . S
C1091 C1096 1.390 . S
C1092 C1086 1.465 1_655 S
C1092 C1091 1.396 . S
C1092 C1093 1.399 . S
C1093 H1079 0.929 . S
C1093 C1092 1.399 . S
C1093 C1094 1.385 . S
C1094 H1080 0.931 . S
C1094 C1093 1.385 . S
C1094 C1095 1.389 . S
C1095 C1094 1.389 . S
C1095 C1096 1.387 . S
C1096 H1081 0.930 . S
C1096 C1091 1.390 . S
C1096 C1095 1.387 . S
H1097 C1109 0.930 . S
H1098 C1111 0.930 . S
H1099 C1112 0.930 . S
H1100 C1116 0.959 . S
H1101 C1116 0.959 . S
H1102 C1116 0.961 . S
H1103 C1117 0.960 . S
H1104 C1117 0.961 . S
H1105 C1117 0.959 . S
H1106 C1120 0.929 . S
H1107 C1121 0.931 . S
H1108 C1123 0.930 . S
C1109 H1097 0.930 . S
C1109 C1110 1.399 . S
C1109 C1114 1.399 . S
C1110 C1109 1.399 . S
C1110 C1111 1.376 . S
C1111 H1098 0.930 . S
C1111 C1110 1.376 . S
C1111 C1112 1.388 . S
C1112 H1099 0.930 . S
C1112 C1111 1.388 . S
C1112 C1113 1.390 . S
C1113 C1112 1.390 . S
C1113 C1114 1.394 . S
C1113 C1119 1.465 1_455 S
C1114 C1109 1.399 . S
C1114 C1113 1.394 . S
C1114 C1115 1.516 1_455 S
C1115 C1114 1.516 1_655 S
C1115 C1116 1.502 . S
C1115 C1117 1.561 1_655 S
C1115 C1118 1.526 . S
C1116 H1100 0.959 . S
C1116 H1101 0.959 . S
C1116 H1102 0.961 . S
C1116 C1115 1.502 . S
C1117 H1103 0.960 . S
C1117 H1104 0.961 . S
C1117 H1105 0.959 . S
C1117 C1115 1.561 1_455 S
C1118 C1115 1.526 . S
C1118 C1119 1.396 . S
C1118 C1123 1.390 . S
C1119 C1113 1.465 1_655 S
C1119 C1118 1.396 . S
C1119 C1120 1.399 . S
C1120 H1106 0.929 . S
C1120 C1119 1.399 . S
C1120 C1121 1.385 . S
C1121 H1107 0.931 . S
C1121 C1120 1.385 . S
C1121 C1122 1.389 . S
C1122 C1121 1.389 . S
C1122 C1123 1.387 . S
C1123 H1108 0.930 . S
C1123 C1118 1.390 . S
C1123 C1122 1.387 . S
H1124 C1136 0.930 . S
H1125 C1138 0.930 . S
H1126 C1139 0.930 . S
H1127 C1143 0.959 . S
H1128 C1143 0.959 . S
H1129 C1143 0.961 . S
H1130 C1144 0.960 . S
H1131 C1144 0.961 . S
H1132 C1144 0.959 . S
H1133 C1147 0.929 . S
H1134 C1148 0.931 . S
H1135 C1150 0.930 . S
C1136 H1124 0.930 . S
C1136 C1137 1.399 . S
C1136 C1141 1.399 . S
C1137 C1136 1.399 . S
C1137 C1138 1.376 1_554 S
C1138 H1125 0.930 . S
C1138 C1137 1.376 1_556 S
C1138 C1139 1.388 . S
C1139 H1126 0.930 . S
C1139 C1138 1.388 . S
C1139 C1140 1.390 . S
C1140 C1139 1.390 . S
C1140 C1141 1.394 1_556 S
C1140 C1146 1.465 . S
C1141 C1136 1.399 . S
C1141 C1140 1.394 1_554 S
C1141 C1142 1.516 . S
C1142 C1141 1.516 . S
C1142 C1143 1.502 . S
C1142 C1144 1.561 . S
C1142 C1145 1.526 . S
C1143 H1127 0.959 . S
C1143 H1128 0.959 . S
C1143 H1129 0.961 . S
C1143 C1142 1.502 . S
C1144 H1130 0.960 . S
C1144 H1131 0.961 . S
C1144 H1132 0.959 . S
C1144 C1142 1.561 . S
C1145 C1142 1.526 . S
C1145 C1146 1.396 1_554 S
C1145 C1150 1.390 . S
C1146 C1140 1.465 . S
C1146 C1145 1.396 1_556 S
C1146 C1147 1.399 . S
C1147 H1133 0.929 . S
C1147 C1146 1.399 . S
C1147 C1148 1.385 . S
C1148 H1134 0.931 . S
C1148 C1147 1.385 . S
C1148 C1149 1.389 1_556 S
C1149 C1148 1.389 1_554 S
C1149 C1150 1.387 . S
C1150 H1135 0.930 . S
C1150 C1145 1.390 . S
C1150 C1149 1.387 . S
H1151 C1163 0.930 . S
H1152 C1165 0.930 . S
H1153 C1166 0.930 . S
H1154 C1170 0.959 . S
H1155 C1170 0.959 . S
H1156 C1170 0.961 . S
H1157 C1171 0.960 . S
H1158 C1171 0.961 . S
H1159 C1171 0.959 . S
H1160 C1174 0.929 . S
H1161 C1175 0.931 . S
H1162 C1177 0.930 . S
C1163 H1151 0.930 . S
C1163 C1164 1.399 . S
C1163 C1168 1.399 . S
C1164 C1163 1.399 . S
C1164 C1165 1.376 . S
C1165 H1152 0.930 . S
C1165 C1164 1.376 . S
C1165 C1166 1.388 . S
C1166 H1153 0.930 . S
C1166 C1165 1.388 . S
C1166 C1167 1.390 . S
C1167 C1166 1.390 . S
C1167 C1168 1.394 . S
C1167 C1173 1.465 . S
C1168 C1163 1.399 . S
C1168 C1167 1.394 . S
C1168 C1169 1.516 . S
C1169 C1168 1.516 . S
C1169 C1170 1.502 . S
C1169 C1171 1.561 . S
C1169 C1172 1.526 . S
C1170 H1154 0.959 . S
C1170 H1155 0.959 . S
C1170 H1156 0.961 . S
C1170 C1169 1.502 . S
C1171 H1157 0.960 . S
C1171 H1158 0.961 . S
C1171 H1159 0.959 . S
C1171 C1169 1.561 . S
C1172 C1169 1.526 . S
C1172 C1173 1.396 . S
C1172 C1177 1.390 . S
C1173 C1167 1.465 . S
C1173 C1172 1.396 . S
C1173 C1174 1.399 . S
C1174 H1160 0.929 . S
C1174 C1173 1.399 . S
C1174 C1175 1.385 . S
C1175 H1161 0.931 . S
C1175 C1174 1.385 . S
C1175 C1176 1.389 . S
C1176 C1175 1.389 . S
C1176 C1177 1.387 . S
C1177 H1162 0.930 . S
C1177 C1172 1.390 . S
C1177 C1176 1.387 . S
H1178 C1190 0.930 . S
H1179 C1192 0.930 . S
H1180 C1193 0.930 . S
H1181 C1197 0.959 . S
H1182 C1197 0.959 . S
H1183 C1197 0.961 1_455 S
H1184 C1198 0.960 . S
H1185 C1198 0.961 1_655 S
H1186 C1198 0.959 . S
H1187 C1201 0.929 . S
H1188 C1202 0.931 . S
H1189 C1204 0.930 . S
C1190 H1178 0.930 . S
C1190 C1191 1.399 . S
C1190 C1195 1.399 . S
C1191 C1190 1.399 . S
C1191 C1192 1.376 . S
C1192 H1179 0.930 . S
C1192 C1191 1.376 . S
C1192 C1193 1.388 . S
C1193 H1180 0.930 . S
C1193 C1192 1.388 . S
C1193 C1194 1.390 . S
C1194 C1193 1.390 . S
C1194 C1195 1.394 . S
C1194 C1200 1.465 1_455 S
C1195 C1190 1.399 . S
C1195 C1194 1.394 . S
C1195 C1196 1.516 1_455 S
C1196 C1195 1.516 1_655 S
C1196 C1197 1.502 . S
C1196 C1198 1.561 1_655 S
C1196 C1199 1.526 . S
C1197 H1181 0.959 . S
C1197 H1182 0.959 . S
C1197 H1183 0.961 1_655 S
C1197 C1196 1.502 . S
C1198 H1184 0.960 . S
C1198 H1185 0.961 1_455 S
C1198 H1186 0.959 . S
C1198 C1196 1.561 1_455 S
C1199 C1196 1.526 . S
C1199 C1200 1.396 . S
C1199 C1204 1.390 . S
C1200 C1194 1.465 1_655 S
C1200 C1199 1.396 . S
C1200 C1201 1.399 . S
C1201 H1187 0.929 . S
C1201 C1200 1.399 . S
C1201 C1202 1.385 . S
C1202 H1188 0.931 . S
C1202 C1201 1.385 . S
C1202 C1203 1.389 . S
C1203 C1202 1.389 . S
C1203 C1204 1.387 . S
C1204 H1189 0.930 . S
C1204 C1199 1.390 . S
C1204 C1203 1.387 . S
H1205 C1217 0.930 . S
H1206 C1219 0.930 . S
H1207 C1220 0.930 . S
H1208 C1224 0.959 . S
H1209 C1224 0.959 . S
H1210 C1224 0.961 . S
H1211 C1225 0.960 . S
H1212 C1225 0.961 . S
H1213 C1225 0.959 . S
H1214 C1228 0.929 . S
H1215 C1229 0.931 . S
H1216 C1231 0.930 . S
C1217 H1205 0.930 . S
C1217 C1218 1.399 . S
C1217 C1222 1.399 . S
C1218 C1217 1.399 . S
C1218 C1219 1.376 . S
C1219 H1206 0.930 . S
C1219 C1218 1.376 . S
C1219 C1220 1.388 . S
C1220 H1207 0.930 . S
C1220 C1219 1.388 . S
C1220 C1221 1.390 . S
C1221 C1220 1.390 . S
C1221 C1222 1.394 . S
C1221 C1227 1.465 . S
C1222 C1217 1.399 . S
C1222 C1221 1.394 . S
C1222 C1223 1.516 1_655 S
C1223 C1222 1.516 1_455 S
C1223 C1224 1.502 . S
C1223 C1225 1.561 1_455 S
C1223 C1226 1.526 . S
C1224 H1208 0.959 . S
C1224 H1209 0.959 . S
C1224 H1210 0.961 . S
C1224 C1223 1.502 . S
C1225 H1211 0.960 . S
C1225 H1212 0.961 . S
C1225 H1213 0.959 . S
C1225 C1223 1.561 1_655 S
C1226 C1223 1.526 . S
C1226 C1227 1.396 1_455 S
C1226 C1231 1.390 . S
C1227 C1221 1.465 . S
C1227 C1226 1.396 1_655 S
C1227 C1228 1.399 . S
C1228 H1214 0.929 . S
C1228 C1227 1.399 . S
C1228 C1229 1.385 1_655 S
C1229 H1215 0.931 . S
C1229 C1228 1.385 1_455 S
C1229 C1230 1.389 . S
C1230 C1229 1.389 . S
C1230 C1231 1.387 . S
C1231 H1216 0.930 . S
C1231 C1226 1.390 . S
C1231 C1230 1.387 . S
C381 C108 2.553 . S
C393 C16 2.537 . S
C408 C315 2.578 . S
C420 N35 2.487 . S
C435 C62 2.630 . S
C447 C154 2.610 . S
C462 C361 2.559 . S
C474 N81 2.518 . S
C489 N219 2.488 . S
C501 C131 2.587 . S
C516 N265 2.489 . S
C528 C177 2.574 . S
C543 C200 2.609 . S
C555 C292 2.637 . S
C570 C338 2.548 . S
C582 C246 2.553 . S
C597 N173 1.657 . S
C609 C7 1.626 . S
C624 N288 1.731 . S
C636 N25 1.723 . S
C651 C53 1.699 . S
C663 N127 1.700 . S
C678 N71 1.718 1_455 S
C690 N334 1.732 . S
C705 C85 2.037 . S
C717 C99 2.069 . S
C732 C122 1.993 . S
C744 N196 2.048 . S
C759 C145 2.049 . S
C771 C39 2.109 . S
C786 C168 2.010 1_655 S
C798 N242 2.050 . S
C813 C191 1.686 . S
C825 N357 1.694 . S
C840 N104 1.780 . S
C852 N209 1.771 1_655 S
C867 N311 1.679 . S
C879 C237 1.684 . S
C894 N255 1.730 . S
C906 N150 1.738 . S
C921 C269 2.109 1_545 S
C933 C283 2.061 . S
C948 C306 2.037 1_455 S
C960 N12 2.071 . S
C975 C329 2.022 . S
C987 C223 2.073 1_565 S
C1002 N58 2.044 . S
C1014 C352 2.013 . S
C1029 N2 0.597 . S
C1041 N232 0.654 . S
C1056 C260 0.819 . S
C1068 C30 0.835 . S
C1083 N48 0.782 . S
C1095 N186 0.720 . S
C1110 C214 0.875 . S
C1122 C76 0.863 . S
C1137 N324 0.310 . S
C1149 N94 0.275 . S
C1164 N347 0.356 . S
C1176 N117 0.277 . S
C1191 N278 0.493 . S
C1203 N140 0.534 . S
C1218 N301 0.366 . S
C1230 N163 0.277 . S
