# Generated by pormake.
# Topology svh, (7)-cn, num edge types: 1
# Building blocks:
#     Node 0, Type 0, BuildingBlock: HICVOG_clean_sbu_0, # of connection points: 7
#     Node 1, Type 0, BuildingBlock: HICVOG_clean_sbu_0, # of connection points: 7
#     Node 2, Type 0, BuildingBlock: HICVOG_clean_sbu_0, # of connection points: 7
#     Node 3, Type 0, BuildingBlock: HICVOG_clean_sbu_0, # of connection points: 7
#     Node 4, Type 0, BuildingBlock: HICVOG_clean_sbu_0, # of connection points: 7
#     Node 5, Type 0, BuildingBlock: HICVOG_clean_sbu_0, # of connection points: 7
#     Node 6, Type 0, BuildingBlock: HICVOG_clean_sbu_0, # of connection points: 7
#     Node 7, Type 0, BuildingBlock: HICVOG_clean_sbu_0, # of connection points: 7
#     Edge 8, Type (0, 0), BuildingBlock: ZUJKAS_clean_linker_0, # of connection points: 2
#     Edge 9, Type (0, 0), BuildingBlock: ZUJKAS_clean_linker_0, # of connection points: 2
#     Edge 10, Type (0, 0), BuildingBlock: ZUJKAS_clean_linker_0, # of connection points: 2
#     Edge 11, Type (0, 0), BuildingBlock: ZUJKAS_clean_linker_0, # of connection points: 2
#     Edge 12, Type (0, 0), BuildingBlock: ZUJKAS_clean_linker_0, # of connection points: 2
#     Edge 13, Type (0, 0), BuildingBlock: ZUJKAS_clean_linker_0, # of connection points: 2
#     Edge 14, Type (0, 0), BuildingBlock: ZUJKAS_clean_linker_0, # of connection points: 2
#     Edge 15, Type (0, 0), BuildingBlock: ZUJKAS_clean_linker_0, # of connection points: 2
#     Edge 16, Type (0, 0), BuildingBlock: ZUJKAS_clean_linker_0, # of connection points: 2
#     Edge 17, Type (0, 0), BuildingBlock: ZUJKAS_clean_linker_0, # of connection points: 2
#     Edge 18, Type (0, 0), BuildingBlock: ZUJKAS_clean_linker_0, # of connection points: 2
#     Edge 19, Type (0, 0), BuildingBlock: ZUJKAS_clean_linker_0, # of connection points: 2
#     Edge 20, Type (0, 0), BuildingBlock: ZUJKAS_clean_linker_0, # of connection points: 2
#     Edge 21, Type (0, 0), BuildingBlock: ZUJKAS_clean_linker_0, # of connection points: 2
#     Edge 22, Type (0, 0), BuildingBlock: ZUJKAS_clean_linker_0, # of connection points: 2
#     Edge 23, Type (0, 0), BuildingBlock: ZUJKAS_clean_linker_0, # of connection points: 2
#     Edge 24, Type (0, 0), BuildingBlock: ZUJKAS_clean_linker_0, # of connection points: 2
#     Edge 25, Type (0, 0), BuildingBlock: ZUJKAS_clean_linker_0, # of connection points: 2
#     Edge 26, Type (0, 0), BuildingBlock: ZUJKAS_clean_linker_0, # of connection points: 2
#     Edge 27, Type (0, 0), BuildingBlock: ZUJKAS_clean_linker_0, # of connection points: 2
#     Edge 28, Type (0, 0), BuildingBlock: ZUJKAS_clean_linker_0, # of connection points: 2
#     Edge 29, Type (0, 0), BuildingBlock: ZUJKAS_clean_linker_0, # of connection points: 2
#     Edge 30, Type (0, 0), BuildingBlock: ZUJKAS_clean_linker_0, # of connection points: 2
#     Edge 31, Type (0, 0), BuildingBlock: ZUJKAS_clean_linker_0, # of connection points: 2
#     Edge 32, Type (0, 0), BuildingBlock: ZUJKAS_clean_linker_0, # of connection points: 2
#     Edge 33, Type (0, 0), BuildingBlock: ZUJKAS_clean_linker_0, # of connection points: 2
#     Edge 34, Type (0, 0), BuildingBlock: ZUJKAS_clean_linker_0, # of connection points: 2
#     Edge 35, Type (0, 0), BuildingBlock: ZUJKAS_clean_linker_0, # of connection points: 2
# Relax obj value: 0.255
# Max RMSD: 0.245
# Mean RMSD: 0.245
data_MOF--net-svh--node1-HICVOG_clean_sbu_0--edge1-ZUJKAS_clean_linker_0
_symmetry_space_group_name_H-M    P1
_symmetry_Int_Tables_number       1
_symmetry_cell_setting            triclinic
loop_
_symmetry_equiv_pos_as_xyz
'x, y, z'
_cell_length_a     23.013892
_cell_length_b     22.984903
_cell_length_c     135.10524
_cell_angle_alpha  89.71365
_cell_angle_beta   90.61746
_cell_angle_gamma 90.377356
loop_
_atom_site_label
_atom_site_type_symbol
_atom_site_fract_x
_atom_site_fract_y
_atom_site_fract_z
_atom_type_partial_charge
Zn0 Zn 0.0396 0.8134 0.07926 0.0
C1 C 0.91661 0.73448 0.06216 0.0
N2 N 0.9174 0.78655 0.05759 0.0
C3 C 0.95525 0.81773 0.06297 0.0
N4 N 0.97714 0.78666 0.07061 0.0
N5 N 0.95274 0.734 0.07022 0.0
C6 C 0.03087 0.56537 0.08307 0.0
O7 O 0.03471 0.58373 0.09225 0.0
O8 O 0.05113 0.90271 0.07794 0.0
Zn9 Zn 0.96169 0.67273 0.08054 0.0
N10 N 0.10887 0.77306 0.07527 0.0
C11 C 0.1483 0.68432 0.06951 0.0
C12 C 0.10106 0.71685 0.07248 0.0
C13 C 0.16258 0.79829 0.07531 0.0
N14 N 0.20182 0.70913 0.06957 0.0
C15 C 0.21094 0.76529 0.07242 0.0
O16 O 0.98952 0.70374 0.094 0.0
C17 C 1.00985 0.74842 0.09847 0.0
O18 O 0.02601 0.79384 0.09375 0.0
H19 H 0.05842 0.6974 0.07258 0.0
H20 H 0.16703 0.84328 0.0775 0.0
C21 C 0.83877 0.68269 0.08318 0.0
C22 C 0.78195 0.66179 0.08478 0.0
C23 C 0.81952 0.56607 0.08658 0.0
C24 C 0.87536 0.587 0.0849 0.0
N25 N 0.88387 0.64472 0.08318 0.0
N26 N 0.77443 0.60371 0.08645 0.0
H27 H 0.84778 0.72836 0.08201 0.0
C28 C 1.0097 0.93756 0.07978 0.0
O29 O 0.95951 0.91555 0.08252 0.0
O30 O 1.0075 0.59859 0.07658 0.0
H31 H 0.91148 0.55732 0.08491 0.0
H32 H 0.14266 0.63954 0.06724 0.0
H33 H 0.81193 0.52024 0.08793 0.0
Zn34 Zn 0.4541 0.82545 0.33496 0.0
C35 C 0.57746 0.85629 0.31422 0.0
N36 N 0.53704 0.8917 0.31032 0.0
C37 C 0.491 0.88318 0.3162 0.0
N38 N 0.50312 0.84487 0.32356 0.0
N39 N 0.55723 0.82738 0.32221 0.0
C40 C 0.71129 0.7986 0.32866 0.0
O41 O 0.68773 0.84616 0.33213 0.0
O42 O 0.36786 0.81804 0.33127 0.0
Zn43 Zn 0.59006 0.76004 0.32868 0.0
N44 N 0.45747 0.89032 0.34402 0.0
C45 C 0.44296 0.92193 0.36054 0.0
C46 C 0.44161 0.87817 0.35347 0.0
C47 C 0.47379 0.94506 0.34128 0.0
N48 N 0.45922 0.97647 0.35783 0.0
C49 C 0.47475 0.9898 0.34838 0.0
O50 O 0.57664 0.76215 0.34343 0.0
C51 C 0.52973 0.75433 0.34819 0.0
O52 O 0.48051 0.75682 0.34374 0.0
H53 H 0.42761 0.83478 0.35547 0.0
H54 H 0.48433 0.95357 0.33364 0.0
C55 C 0.5627 0.63709 0.32622 0.0
C56 C 0.53356 0.58967 0.32175 0.0
C57 C 0.48215 0.65546 0.31132 0.0
C58 C 0.51088 0.702 0.31575 0.0
N59 N 0.55083 0.6922 0.32306 0.0
N60 N 0.49416 0.60067 0.3144 0.0
H61 H 0.59495 0.63056 0.33199 0.0
C62 C 0.3384 0.77138 0.33015 0.0
O63 O 0.36484 0.72104 0.33089 0.0
O64 O 0.67828 0.75556 0.32656 0.0
H65 H 0.50178 0.74555 0.31321 0.0
H66 H 0.43066 0.91282 0.3681 0.0
H67 H 0.45058 0.66273 0.30546 0.0
Zn68 Zn 0.50446 0.30125 0.58394 0.0
C69 C 0.53072 0.17787 0.56296 0.0
N70 N 0.56387 0.21964 0.55886 0.0
C71 C 0.55695 0.26529 0.5649 0.0
N72 N 0.52218 0.25153 0.57258 0.0
N73 N 0.50477 0.19702 0.57126 0.0
C74 C 0.47475 0.04368 0.57984 0.0
O75 O 0.51649 0.06789 0.58513 0.0
O76 O 0.49095 0.38585 0.57982 0.0
Zn77 Zn 0.43954 0.16374 0.57822 0.0
N78 N 0.57141 0.30203 0.59279 0.0
C79 C 0.60687 0.32087 0.60907 0.0
C80 C 0.56148 0.31977 0.6022 0.0
C81 C 0.6254 0.28548 0.58994 0.0
N82 N 0.66069 0.30458 0.60625 0.0
C83 C 0.67169 0.28669 0.59686 0.0
O84 O 0.4478 0.17751 0.59297 0.0
C85 C 0.44068 0.22508 0.59756 0.0
O86 O 0.43805 0.273 0.59279 0.0
H87 H 0.51852 0.33303 0.60434 0.0
H88 H 0.63215 0.27271 0.58235 0.0
C89 C 0.31504 0.18817 0.57617 0.0
C90 C 0.26678 0.21508 0.57157 0.0
C91 C 0.33054 0.26749 0.56105 0.0
C92 C 0.37789 0.24066 0.56553 0.0
N93 N 0.36962 0.20132 0.57296 0.0
N94 N 0.27636 0.25397 0.56413 0.0
H95 H 0.30941 0.15633 0.58201 0.0
C96 C 0.46619 0.42143 0.58558 0.0
O97 O 0.44669 0.40226 0.5941 0.0
O98 O 0.43562 0.07602 0.57606 0.0
H99 H 0.42082 0.25036 0.56288 0.0
H100 H 0.5995 0.3348 0.61659 0.0
H101 H 0.3367 0.29848 0.55509 0.0
Zn102 Zn 0.96509 0.28516 0.82839 0.0
C103 C 0.05353 0.15744 0.81556 0.0
N104 N 1.00529 0.15178 0.80992 0.0
C105 C 0.96864 0.18998 0.81395 0.0
N106 N 0.99334 0.21768 0.82173 0.0
N107 N 0.04661 0.197 0.82282 0.0
C108 C 0.22151 0.25592 0.83442 0.0
O109 O 0.20355 0.27637 0.84291 0.0
O110 O 0.87726 0.29098 0.82625 0.0
Zn111 Zn 0.1016 0.21681 0.83358 0.0
N112 N 1.00463 0.35205 0.82266 0.0
C113 C 0.07316 0.38825 0.81104 0.0
C114 C 0.04502 0.34185 0.8156 0.0
C115 C 0.99195 0.4073 0.82547 0.0
N116 N 0.06033 0.44322 0.81378 0.0
C117 C 0.02062 0.45447 0.8209 0.0
O118 O 0.07794 0.28458 0.84251 0.0
C119 C 0.03111 0.28686 0.84746 0.0
O120 O 0.98198 0.28082 0.84314 0.0
H121 H 0.05484 0.2981 0.81335 0.0
H122 H 0.9594 0.41411 0.83106 0.0
C123 C 0.08771 0.09679 0.83997 0.0
C124 C 0.09012 0.05128 0.84698 0.0
C125 C 0.12787 0.11765 0.85888 0.0
C126 C 0.12546 0.1623 0.85191 0.0
N127 N 0.10519 0.15124 0.84262 0.0
N128 N 0.11034 0.06342 0.85626 0.0
H129 H 0.07328 0.08915 0.83246 0.0
C130 C 0.84432 0.25289 0.8302 0.0
O131 O 0.86801 0.21184 0.83568 0.0
O132 O 0.18496 0.23015 0.82878 0.0
H133 H 0.13976 0.2055 0.85388 0.0
H134 H 0.10496 0.3807 0.80536 0.0
H135 H 0.14375 0.12592 0.86631 0.0
Zn136 Zn 0.96839 0.36724 0.97068 0.0
C137 C 0.9441 0.22507 0.98853 0.0
N138 N 0.90612 0.25956 0.9931 0.0
C139 C 0.91088 0.31026 0.98816 0.0
N140 N 0.94963 0.30685 0.9807 0.0
N141 N 0.97073 0.2532 0.98102 0.0
C142 C 1.00829 0.10337 0.97305 0.0
O143 O 0.96085 0.12527 0.96907 0.0
O144 O 1.00277 0.44455 0.9758 0.0
Zn145 Zn 0.0398 0.22702 0.97433 0.0
N146 N 0.89739 0.39194 0.96437 0.0
C147 C 0.85621 0.45244 0.95188 0.0
C148 C 0.90397 0.43431 0.95742 0.0
C149 C 0.84491 0.36645 0.96599 0.0
N150 N 0.8038 0.42714 0.95348 0.0
C151 C 0.79617 0.38433 0.96037 0.0
O152 O 0.04154 0.2461 0.95957 0.0
C153 C 0.03204 0.29246 0.9546 0.0
O154 O 1.00981 0.33701 0.9586 0.0
H155 H 0.94633 0.45313 0.95609 0.0
H156 H 0.84202 0.33288 0.97155 0.0
C157 C 0.15982 0.25217 0.97825 0.0
C158 C 0.20655 0.2792 0.98321 0.0
C159 C 0.14003 0.33252 0.99286 0.0
C160 C 0.09389 0.30612 0.98786 0.0
N161 N 0.10458 0.266 0.98073 0.0
N162 N 0.19513 0.31849 0.99043 0.0
H163 H 0.16693 0.21999 0.97258 0.0
C164 C 0.03766 0.47675 0.97093 0.0
O165 O 0.06055 0.45624 0.9628 0.0
O166 O 0.0485 0.13815 0.97588 0.0
H167 H 0.05002 0.31683 0.98984 0.0
H168 H 0.86071 0.48603 0.9463 0.0
H169 H 0.13218 0.36396 0.99861 0.0
Zn170 Zn 0.98615 0.74772 0.22575 0.0
C171 C 0.07942 0.87115 0.23976 0.0
N172 N 0.02963 0.8795 0.24465 0.0
C173 C 0.99195 0.84398 0.23997 0.0
N174 N 0.01739 0.81501 0.23254 0.0
N175 N 0.07234 0.83267 0.23228 0.0
C176 C 0.23722 0.74776 0.22148 0.0
O177 O 0.21719 0.73323 0.21269 0.0
O178 O 0.89755 0.74192 0.22753 0.0
Zn179 Zn 0.12936 0.81524 0.222 0.0
N180 N 0.02201 0.68003 0.23182 0.0
C181 C 0.0831 0.64063 0.24447 0.0
C182 C 0.05859 0.68833 0.23968 0.0
C183 C 1.00953 0.62556 0.22847 0.0
N184 N 0.07043 0.58638 0.24118 0.0
C185 C 0.03442 0.57713 0.23328 0.0
O186 O 0.09545 0.7767 0.20954 0.0
C187 C 0.04809 0.7572 0.20579 0.0
O188 O 1.00303 0.74871 0.21103 0.0
H189 H 0.06801 0.73151 0.24236 0.0
H190 H 0.97981 0.62032 0.22227 0.0
C191 C 0.12461 0.9389 0.21772 0.0
C192 C 0.1436 0.99014 0.21301 0.0
C193 C 0.22361 0.93893 0.20648 0.0
C194 C 0.20464 0.88829 0.21115 0.0
N195 N 0.15563 0.88911 0.21668 0.0
N196 N 0.19267 0.98847 0.20748 0.0
H197 H 0.08481 0.93817 0.2219 0.0
C198 C 0.86219 0.77616 0.22316 0.0
O199 O 0.88303 0.81635 0.21721 0.0
O200 O 0.20477 0.77733 0.22713 0.0
H201 H 0.22826 0.84838 0.2102 0.0
H202 H 0.11187 0.64661 0.25077 0.0
H203 H 0.26235 0.93879 0.20202 0.0
Zn204 Zn 0.48815 0.80486 0.46885 0.0
C205 C 0.46306 0.68101 0.49006 0.0
N206 N 0.43047 0.72254 0.49418 0.0
C207 C 0.43715 0.7682 0.48803 0.0
N208 N 0.47128 0.75471 0.48031 0.0
N209 N 0.48848 0.7003 0.48167 0.0
C210 C 0.51277 0.54684 0.47545 0.0
O211 O 0.46309 0.5712 0.47303 0.0
O212 O 0.49582 0.8907 0.47263 0.0
Zn213 Zn 0.5534 0.66764 0.47465 0.0
N214 N 0.42196 0.80247 0.45991 0.0
C215 C 0.3873 0.8224 0.4436 0.0
C216 C 0.43213 0.82217 0.45058 0.0
C217 C 0.36814 0.78383 0.46262 0.0
N218 N 0.3336 0.80407 0.44629 0.0
C219 C 0.32226 0.78475 0.45562 0.0
O220 O 0.54652 0.68362 0.45993 0.0
C221 C 0.55426 0.73157 0.45535 0.0
O222 O 0.55559 0.77946 0.46009 0.0
H223 H 0.47477 0.83811 0.44863 0.0
H224 H 0.36112 0.7702 0.47019 0.0
C225 C 0.67784 0.69183 0.47677 0.0
C226 C 0.72651 0.71857 0.48131 0.0
C227 C 0.66363 0.77106 0.49177 0.0
C228 C 0.61584 0.74439 0.48732 0.0
N229 N 0.6235 0.70505 0.47995 0.0
N230 N 0.71761 0.75742 0.4887 0.0
H231 H 0.68295 0.66005 0.47096 0.0
C232 C 0.5423 0.92076 0.47344 0.0
O233 O 0.59259 0.89548 0.47208 0.0
O234 O 0.55755 0.57914 0.47657 0.0
H235 H 0.57305 0.75422 0.48995 0.0
H236 H 0.39487 0.83772 0.43614 0.0
H237 H 0.65797 0.80205 0.49767 0.0
Zn238 Zn 0.40305 0.1882 0.72353 0.0
C239 C 0.54796 0.18888 0.74098 0.0
N240 N 0.5153 0.15388 0.74667 0.0
C241 C 0.46395 0.15325 0.74186 0.0
N242 N 0.465 0.1864 0.73358 0.0
N243 N 0.51814 0.2089 0.73302 0.0
C244 C 0.66793 0.23413 0.72354 0.0
O245 O 0.64506 0.1829 0.72156 0.0
O246 O 0.32848 0.2327 0.72724 0.0
Zn247 Zn 0.54474 0.26653 0.72352 0.0
N248 N 0.37668 0.10844 0.72242 0.0
C249 C 0.29866 0.04022 0.72186 0.0
C250 C 0.31859 0.09732 0.72244 0.0
C251 C 0.4159 0.06453 0.72186 0.0
N252 N 0.33763 0.99644 0.72133 0.0
C253 C 0.39603 1.00656 0.72134 0.0
O254 O 0.52188 0.247 0.70924 0.0
C255 C 0.47567 0.22885 0.70489 0.0
O256 O 0.43197 0.21014 0.70974 0.0
H257 H 0.28779 0.13233 0.72293 0.0
H258 H 0.46174 0.07513 0.72176 0.0
C259 C 0.53269 0.39071 0.72734 0.0
C260 C 0.49986 0.44008 0.72978 0.0
C261 C 0.41541 0.38039 0.73092 0.0
C262 C 0.44785 0.33209 0.7284 0.0
N263 N 0.50568 0.33791 0.72674 0.0
N264 N 0.44204 0.43298 0.73154 0.0
H265 H 0.57887 0.39377 0.72602 0.0
C266 C 0.29474 0.25378 0.7206 0.0
O267 O 0.31282 0.25576 0.71142 0.0
O268 O 0.63392 0.27719 0.72463 0.0
H269 H 0.42717 0.29011 0.72775 0.0
H270 H 0.25257 0.03065 0.72185 0.0
H271 H 0.36935 0.3763 0.73231 0.0
H272 H 0.13655 0.73827 0.19276 0.0
H273 H 0.13039 0.73249 0.1747 0.0
H274 H 0.94494 0.75719 0.17591 0.0
H275 H 0.95053 0.7596 0.19399 0.0
H276 H 0.96469 0.68322 0.1624 0.0
H277 H 0.11899 0.86456 0.15613 0.0
H278 H 0.15266 0.8064 0.16289 0.0
H279 H 0.09347 0.84577 0.1683 0.0
C280 C 0.09439 0.74208 0.18918 0.0
C281 C 0.04408 0.74964 0.19484 0.0
C282 C 0.09097 0.73946 0.17881 0.0
C283 C 0.03742 0.74626 0.17382 0.0
C284 C 0.98694 0.75221 0.17951 0.0
H285 H 0.01207 0.84136 0.11113 0.0
H286 H 0.01632 0.83974 0.12923 0.0
C287 C 0.99016 0.75352 0.18988 0.0
C288 C 0.03369 0.74696 0.16272 0.0
H289 H 0.09223 0.80892 0.14197 0.0
C290 C 0.99244 0.71103 0.15795 0.0
C291 C 0.06888 0.78398 0.15681 0.0
C292 C 0.11049 0.82779 0.1613 0.0
C293 C 0.98574 0.71064 0.14757 0.0
C294 C 0.02308 0.74534 0.14165 0.0
C295 C 0.06397 0.78164 0.14641 0.0
C296 C 0.01978 0.74583 0.13054 0.0
C297 C 0.9372 0.67439 0.14314 0.0
C298 C 0.02093 0.6938 0.1251 0.0
C299 C 0.0171 0.69464 0.11473 0.0
C300 C 0.0139 0.74763 0.10949 0.0
C301 C 0.01452 0.79976 0.11491 0.0
C302 C 0.01702 0.79884 0.12529 0.0
H303 H 0.9017 0.66711 0.14853 0.0
H304 H 0.91843 0.69532 0.13642 0.0
H305 H 0.95432 0.63113 0.1411 0.0
H306 H 0.02526 0.65233 0.12885 0.0
H307 H 0.0176 0.65369 0.1108 0.0
H308 H 0.62554 0.76192 0.36033 0.0
H309 H 0.63005 0.75479 0.37834 0.0
H310 H 0.44589 0.71987 0.37908 0.0
H311 H 0.44076 0.72772 0.36099 0.0
H312 H 0.47806 0.80112 0.39274 0.0
H313 H 0.62528 0.61229 0.39591 0.0
H314 H 0.655 0.67012 0.38853 0.0
H315 H 0.59036 0.6326 0.38439 0.0
C316 C 0.58596 0.75197 0.36428 0.0
C317 C 0.53275 0.74523 0.35914 0.0
C318 C 0.58872 0.74769 0.37462 0.0
C319 C 0.53852 0.73591 0.38012 0.0
C320 C 0.48534 0.72876 0.37503 0.0
H321 H 0.53302 0.64076 0.44272 0.0
H322 H 0.5291 0.64257 0.42465 0.0
C323 C 0.4825 0.73313 0.36466 0.0
C324 C 0.54131 0.73327 0.39118 0.0
H325 H 0.60996 0.66618 0.41068 0.0
C326 C 0.50671 0.77139 0.39665 0.0
C327 C 0.57814 0.69406 0.39635 0.0
C328 C 0.61387 0.64954 0.391 0.0
C329 C 0.50874 0.77216 0.40708 0.0
C330 C 0.54731 0.73457 0.41223 0.0
C331 C 0.58102 0.69564 0.40677 0.0
C332 C 0.55199 0.73366 0.42328 0.0
C333 C 0.4686 0.81247 0.41249 0.0
C334 C 0.56766 0.78389 0.42861 0.0
C335 C 0.57003 0.78301 0.439 0.0
C336 C 0.55702 0.73177 0.44431 0.0
C337 C 0.54331 0.68107 0.43893 0.0
C338 C 0.5409 0.68203 0.42856 0.0
H339 H 0.43145 0.82628 0.40773 0.0
H340 H 0.45125 0.79141 0.41927 0.0
H341 H 0.49305 0.85211 0.41473 0.0
H342 H 0.57791 0.82395 0.42474 0.0
H343 H 0.58129 0.82274 0.44287 0.0
H344 H 0.40495 0.31186 0.61002 0.0
H345 H 0.4098 0.31307 0.62814 0.0
H346 H 0.48247 0.14059 0.62821 0.0
H347 H 0.47585 0.13835 0.61016 0.0
H348 H 0.40609 0.14774 0.64225 0.0
H349 H 0.55 0.34083 0.64513 0.0
H350 H 0.48367 0.35643 0.63859 0.0
H351 H 0.53444 0.30568 0.63349 0.0
C352 C 0.4217 0.27407 0.6139 0.0
C353 C 0.44009 0.22506 0.6086 0.0
C354 C 0.42506 0.27504 0.62428 0.0
C355 C 0.44786 0.22747 0.62961 0.0
C356 C 0.465 0.17804 0.62433 0.0
H357 H 0.56467 0.24083 0.69155 0.0
H358 H 0.55816 0.23905 0.67344 0.0
C359 C 0.46104 0.17677 0.61397 0.0
C360 C 0.45314 0.22847 0.64067 0.0
H361 H 0.5083 0.30668 0.66016 0.0
C362 C 0.42864 0.18247 0.64615 0.0
C363 C 0.48357 0.27304 0.64583 0.0
C364 C 0.51496 0.32143 0.64046 0.0
C365 C 0.43295 0.18013 0.65655 0.0
C366 C 0.46088 0.22614 0.66174 0.0
C367 C 0.48618 0.27172 0.65626 0.0
C368 C 0.46473 0.22757 0.67282 0.0
C369 C 0.40883 0.12732 0.66181 0.0
C370 C 0.41446 0.22268 0.67859 0.0
C371 C 0.41819 0.22279 0.68895 0.0
C372 C 0.4722 0.22913 0.69384 0.0
C373 C 0.52237 0.23572 0.68806 0.0
C374 C 0.51867 0.23479 0.67768 0.0
H375 H 0.40671 0.08896 0.65685 0.0
H376 H 0.43555 0.11581 0.66842 0.0
H377 H 0.36394 0.13653 0.66425 0.0
H378 H 0.37207 0.21904 0.67509 0.0
H379 H 0.37847 0.21847 0.69313 0.0
H380 H 0.08049 0.20828 0.94279 0.0
H381 H 0.08853 0.20888 0.9247 0.0
H382 H 1.00895 0.3781 0.92351 0.0
H383 H 1.00238 0.37869 0.94147 0.0
H384 H 1.00642 0.2111 0.91081 0.0
H385 H 0.1436 0.40676 0.90574 0.0
H386 H 0.13308 0.37342 0.91771 0.0
H387 H 0.0799 0.423 0.9127 0.0
C388 C 0.06554 0.24603 0.93869 0.0
C389 C 0.04116 0.29357 0.94366 0.0
C390 C 0.07 0.24625 0.92832 0.0
C391 C 0.05029 0.29399 0.92268 0.0
C392 C 0.02609 0.34143 0.92764 0.0
H393 H 0.94148 0.2823 0.86072 0.0
H394 H 0.94751 0.2847 0.87878 0.0
C395 C 0.02203 0.34147 0.93797 0.0
C396 C 0.05192 0.29313 0.9116 0.0
H397 H 0.09169 0.37333 0.89133 0.0
C398 C 0.02556 0.24638 0.90656 0.0
C399 C 0.07766 0.33855 0.90598 0.0
C400 C 0.1107 0.3879 0.91082 0.0
C401 C 0.02274 0.2446 0.89615 0.0
C402 C 0.04536 0.29176 0.89054 0.0
C403 C 0.07332 0.33763 0.89557 0.0
C404 C 0.04115 0.29392 0.87948 0.0
C405 C 0.9964 0.19154 0.89128 0.0
C406 C 0.09127 0.30166 0.87375 0.0
C407 C 0.08779 0.30166 0.86338 0.0
C408 C 0.03411 0.29346 0.85845 0.0
C409 C 0.98369 0.28809 0.86421 0.0
C410 C 0.98715 0.28873 0.87458 0.0
H411 H 0.99824 0.15295 0.89625 0.0
H412 H 0.95001 0.19999 0.88952 0.0
H413 H 0.01899 0.18092 0.8843 0.0
H414 H 0.13343 0.30651 0.8773 0.0
H415 H 0.12747 0.30688 0.85923 0.0
H416 H 0.80895 0.32872 0.99738 0.0
H417 H 0.79326 0.39904 1.01051 0.0
H418 H 0.95618 0.48297 1.00349 0.0
H419 H 0.97528 0.40704 0.99155 0.0
H420 H 0.9574 0.46344 1.02137 0.0
H421 H 0.74065 0.55746 1.01436 0.0
H422 H 0.73607 0.47981 1.01513 0.0
H423 H 0.77654 0.51376 1.00527 0.0
C424 C 0.84019 0.36375 0.99838 0.0
C425 C 0.89211 0.36431 0.993 0.0
C426 C 0.83108 0.40426 1.0059 0.0
C427 C 0.87294 0.44747 1.00798 0.0
C428 C 0.92275 0.45063 1.00204 0.0
H429 H 0.84449 0.73812 0.04622 0.0
H430 H 0.82852 0.66225 0.03422 0.0
C431 C 0.93284 0.40863 0.99482 0.0
C432 C 0.86931 0.4838 1.0171 0.0
H433 H 0.77967 0.56932 0.03071 0.0
C434 C 0.91867 0.48729 1.02331 0.0
C435 C 0.81874 0.51452 1.01979 0.0
C436 C 0.76531 0.51667 1.01322 0.0
C437 C 0.91993 0.52209 0.03182 0.0
C438 C 0.86884 0.55159 0.03467 0.0
C439 C 0.81873 0.54638 0.02866 0.0
C440 C 0.86878 0.59416 0.04301 0.0
C441 C 0.97725 0.52906 0.03726 0.0
C442 C 0.89305 0.58125 0.05238 0.0
C443 C 0.90473 0.62592 0.05918 0.0
C444 C 0.89024 0.68366 0.05693 0.0
C445 C 0.85813 0.69449 0.04818 0.0
C446 C 0.84847 0.6507 0.04125 0.0
H447 H 0.01455 0.51621 0.03261 0.0
H448 H 0.98439 0.57477 0.03962 0.0
H449 H 0.97756 0.50059 0.04392 0.0
H450 H 0.90613 0.53735 0.05422 0.0
H451 H 0.92784 0.61559 0.06586 0.0
H452 H 0.61619 0.7479 0.30919 0.0
H453 H 0.68424 0.72593 0.29591 0.0
H454 H 0.71858 0.90918 0.29208 0.0
H455 H 0.65086 0.93118 0.30537 0.0
H456 H 0.67084 0.83666 0.27451 0.0
H457 H 0.86883 0.74739 0.29305 0.0
H458 H 0.79743 0.72907 0.2975 0.0
H459 H 0.82531 0.80124 0.29921 0.0
C460 C 0.64005 0.78322 0.30581 0.0
C461 C 0.62909 0.84117 0.30844 0.0
C462 C 0.67852 0.77067 0.29816 0.0
C463 C 0.7062 0.816 0.29302 0.0
C464 C 0.69763 0.87363 0.29598 0.0
H465 H 0.90736 0.91835 0.24489 0.0
H466 H 0.82901 0.90011 0.25657 0.0
C467 C 0.65936 0.8861 0.30361 0.0
C468 C 0.73963 0.80461 0.28395 0.0
H469 H 0.87411 0.76672 0.27599 0.0
C470 C 0.71505 0.82058 0.27479 0.0
C471 C 0.79658 0.78243 0.28434 0.0
C472 C 0.82404 0.7639 0.29403 0.0
C473 C 0.74711 0.81761 0.26603 0.0
C474 C 0.80581 0.79987 0.26651 0.0
C475 C 0.82918 0.78055 0.27561 0.0
C476 C 0.8457 0.8078 0.25804 0.0
C477 C 0.71805 0.83451 0.25638 0.0
C478 C 0.88081 0.76196 0.25484 0.0
C479 C 0.92573 0.77254 0.24815 0.0
C480 C 0.93601 0.82901 0.24453 0.0
C481 C 0.89919 0.87416 0.24737 0.0
C482 C 0.85437 0.86368 0.25404 0.0
H483 H 0.67079 0.82435 0.25652 0.0
H484 H 0.72287 0.88213 0.25524 0.0
H485 H 0.73761 0.81187 0.25 0.0
H486 H 0.8753 0.71863 0.2579 0.0
H487 H 0.95459 0.73738 0.24632 0.0
H488 H 0.47145 0.34388 0.56232 0.0
H489 H 0.47001 0.42083 0.54988 0.0
H490 H 0.65159 0.3923 0.54419 0.0
H491 H 0.65292 0.3144 0.5567 0.0
H492 H 0.52954 0.52329 0.54547 0.0
H493 H 0.57277 0.35033 0.51786 0.0
H494 H 0.55589 0.33402 0.53058 0.0
H495 H 0.6273 0.35925 0.52735 0.0
C496 C 0.51194 0.3562 0.55886 0.0
C497 C 0.56276 0.32424 0.5607 0.0
C498 C 0.51081 0.39959 0.55159 0.0
C499 C 0.56033 0.41144 0.54595 0.0
C500 C 0.61258 0.38315 0.54835 0.0
H501 H 0.57248 0.63707 0.49335 0.0
H502 H 0.60096 0.56863 0.50643 0.0
C503 C 0.61362 0.33944 0.55561 0.0
C504 C 0.55492 0.4488 0.53698 0.0
H505 H 0.55581 0.44456 0.51166 0.0
C506 C 0.53592 0.50626 0.53809 0.0
C507 C 0.56267 0.42627 0.52733 0.0
C508 C 0.5803 0.36398 0.52565 0.0
C509 C 0.52379 0.54153 0.52981 0.0
C510 C 0.53032 0.51858 0.52019 0.0
C511 C 0.55093 0.46183 0.51906 0.0
C512 C 0.5131 0.55241 0.51129 0.0
C513 C 0.50323 0.60295 0.53139 0.0
C514 C 0.45422 0.56365 0.5094 0.0
C515 C 0.43792 0.60196 0.50182 0.0
C516 C 0.48013 0.62946 0.49596 0.0
C517 C 0.53889 0.61554 0.49752 0.0
C518 C 0.55526 0.57687 0.50508 0.0
H519 H 0.51151 0.61782 0.5391 0.0
H520 H 0.52504 0.63344 0.5262 0.0
H521 H 0.45576 0.605 0.52991 0.0
H522 H 0.42103 0.54478 0.51407 0.0
H523 H 0.39237 0.61253 0.50088 0.0
H524 H 0.88243 0.1212 0.80691 0.0
H525 H 0.81093 0.14647 0.79405 0.0
H526 H 0.8692 0.32497 0.79484 0.0
H527 H 0.9404 0.29984 0.80779 0.0
H528 H 0.71991 0.24887 0.79268 0.0
H529 H 0.90222 0.24893 0.7658 0.0
H530 H 0.90721 0.2097 0.7774 0.0
H531 H 0.91012 0.2876 0.77733 0.0
C532 C 0.87843 0.16622 0.8046 0.0
C533 C 0.91624 0.20875 0.80846 0.0
C534 C 0.83788 0.18055 0.79722 0.0
C535 C 0.83524 0.23744 0.79345 0.0
C536 C 0.87067 0.28081 0.79767 0.0
H537 H 0.57557 0.30013 0.74609 0.0
H538 H 0.6525 0.32746 0.75802 0.0
C539 C 0.91092 0.26653 0.80513 0.0
C540 C 0.79944 0.24921 0.7845 0.0
H541 H 0.80732 0.25195 0.75924 0.0
C542 C 0.73888 0.251 0.78537 0.0
C543 C 0.82462 0.2515 0.77499 0.0
C544 C 0.8896 0.24924 0.77372 0.0
C545 C 0.7026 0.25255 0.77694 0.0
C546 C 0.72768 0.25228 0.76741 0.0
C547 C 0.78835 0.25283 0.76655 0.0
C548 C 0.69139 0.24203 0.75845 0.0
C549 C 0.63756 0.25081 0.77826 0.0
C550 C 0.69019 0.18617 0.75432 0.0
C551 C 0.64644 0.17062 0.74759 0.0
C552 C 0.60401 0.21102 0.74472 0.0
C553 C 0.60863 0.26865 0.74806 0.0
C554 C 0.6521 0.28407 0.75493 0.0
H555 H 0.62517 0.24631 0.78616 0.0
H556 H 0.61833 0.29152 0.77528 0.0
H557 H 0.61833 0.2139 0.77405 0.0
H558 H 0.72009 0.15313 0.75694 0.0
H559 H 0.64305 0.12574 0.74522 0.0
H560 H 0.08299 0.04957 0.80953 0.0
H561 H 0.15818 0.02783 0.79737 0.0
H562 H 0.22071 0.20468 0.79927 0.0
H563 H 0.14487 0.22665 0.81113 0.0
H564 H 0.15605 0.09222 0.77926 0.0
H565 H 0.37178 0.10833 0.79786 0.0
H566 H 0.30556 0.09443 0.80457 0.0
H567 H 0.32325 0.16693 0.80054 0.0
C568 C 0.11481 0.08281 0.80772 0.0
C569 C 0.10973 0.13914 0.81158 0.0
C570 C 0.1573 0.07056 0.80071 0.0
C571 C 0.19539 0.11448 0.79749 0.0
C572 C 0.19281 0.16972 0.80184 0.0
H573 H 0.36215 0.20979 0.74432 0.0
H574 H 0.28961 0.18817 0.7569 0.0
C575 C 0.15008 0.18204 0.80878 0.0
C576 C 0.23144 0.10573 0.78859 0.0
H577 H 0.37037 0.11561 0.78017 0.0
C578 C 0.20303 0.09631 0.77947 0.0
C579 C 0.29259 0.11128 0.78888 0.0
C580 C 0.32528 0.12031 0.7985 0.0
C581 C 0.23405 0.09468 0.77057 0.0
C582 C 0.29493 0.10253 0.77083 0.0
C583 C 0.32359 0.10954 0.77999 0.0
C584 C 0.32962 0.10771 0.76168 0.0
C585 C 0.2015 0.08567 0.76095 0.0
C586 C 0.37469 0.06847 0.7599 0.0
C587 C 0.41518 0.08009 0.7525 0.0
C588 C 0.41144 0.13129 0.74681 0.0
C589 C 0.36413 0.16849 0.74815 0.0
C590 C 0.32329 0.15664 0.7555 0.0
H591 H 0.15763 0.06663 0.76216 0.0
H592 H 0.19608 0.12827 0.75715 0.0
H593 H 0.22608 0.05675 0.75596 0.0
H594 H 0.38052 0.03067 0.76462 0.0
H595 H 0.45196 0.05133 0.75172 0.0
H596 H 0.40494 0.80488 0.31273 0.0
H597 H 0.32956 0.81491 0.29996 0.0
H598 H 0.3764 0.99536 0.2961 0.0
H599 H 0.45084 0.98579 0.30912 0.0
H600 H 0.23207 0.90488 0.29488 0.0
H601 H 0.42369 0.89853 0.27007 0.0
H602 H 0.42686 0.87304 0.28273 0.0
H603 H 0.42582 0.94961 0.28014 0.0
C604 C 0.39628 0.8477 0.3097 0.0
C605 C 0.43254 0.89503 0.31215 0.0
C606 C 0.35397 0.85311 0.30224 0.0
C607 C 0.34801 0.90567 0.297 0.0
C608 C 0.38047 0.9544 0.30005 0.0
H609 H 0.1114 0.975 0.24752 0.0
H610 H 0.18248 0.98866 0.26099 0.0
C611 C 0.42245 0.94909 0.30756 0.0
C612 C 0.31451 0.90709 0.28756 0.0
H613 H 0.3315 0.90554 0.26243 0.0
C614 C 0.25366 0.90557 0.28779 0.0
C615 C 0.34302 0.90701 0.27832 0.0
C616 C 0.40846 0.90677 0.27771 0.0
C617 C 0.2205 0.90434 0.27898 0.0
C618 C 0.24902 0.90479 0.26974 0.0
C619 C 0.30987 0.90592 0.26952 0.0
C620 C 0.21581 0.90108 0.26028 0.0
C621 C 0.15513 0.90118 0.2796 0.0
C622 C 0.21358 0.84848 0.25506 0.0
C623 C 0.17321 0.84073 0.24734 0.0
C624 C 0.13519 0.8858 0.24463 0.0
C625 C 0.14112 0.94003 0.24931 0.0
C626 C 0.18118 0.94764 0.25707 0.0
H627 H 0.14021 0.89231 0.28726 0.0
H628 H 0.13643 0.94321 0.2771 0.0
H629 H 0.13776 0.86663 0.27465 0.0
H630 H 0.23971 0.8119 0.25747 0.0
H631 H 0.16747 0.79763 0.24429 0.0
H632 H 0.42092 0.13454 0.55943 0.0
H633 H 0.39228 0.06765 0.5462 0.0
H634 H 0.57239 0.04385 0.53891 0.0
H635 H 0.60117 0.11007 0.55226 0.0
H636 H 0.49319 0.08631 0.5229 0.0
H637 H 0.41371 0.88655 0.54215 0.0
H638 H 0.39014 0.95603 0.54666 0.0
H639 H 0.46504 0.93614 0.54788 0.0
C640 C 0.45449 0.11308 0.55534 0.0
C641 C 0.51336 0.12655 0.55705 0.0
C642 C 0.43803 0.07527 0.54769 0.0
C643 C 0.48025 0.05089 0.54157 0.0
C644 C 0.53916 0.06218 0.54356 0.0
H645 H 0.52308 0.84705 0.49044 0.0
H646 H 0.52475 0.92598 0.50233 0.0
C647 C 0.55553 0.09959 0.55123 0.0
C648 C 0.46328 0.01793 0.53258 0.0
H649 H 0.40895 0.88751 0.52475 0.0
C650 C 0.4744 0.04295 0.52328 0.0
C651 C 0.43811 0.96187 0.53312 0.0
C652 C 0.42614 0.93308 0.54296 0.0
C653 C 0.46209 0.0128 0.51447 0.0
C654 C 0.43914 0.95562 0.515 0.0
C655 C 0.42622 0.93145 0.52432 0.0
C656 C 0.43392 0.91767 0.50615 0.0
C657 C 0.47388 0.04248 0.5047 0.0
C658 C 0.38195 0.88742 0.50407 0.0
C659 C 0.38088 0.84245 0.49711 0.0
C660 C 0.43163 0.82725 0.49208 0.0
C661 C 0.48254 0.85986 0.49375 0.0
C662 C 0.48366 0.90476 0.50067 0.0
H663 H 0.47133 0.09056 0.50536 0.0
H664 H 0.51848 0.03179 0.50228 0.0
H665 H 0.4427 0.02796 0.49887 0.0
H666 H 0.34318 0.89618 0.50827 0.0
H667 H 0.34164 0.8166 0.49622 0.0
H668 H 0.89648 0.91649 0.05939 0.0
H669 H 0.92199 0.98942 0.04691 0.0
H670 H 0.09037 0.91086 0.04378 0.0
H671 H 0.06493 0.83795 0.05643 0.0
H672 H 0.01986 0.0703 0.04274 0.0
H673 H 0.99834 0.88248 1.01695 0.0
H674 H 0.97239 0.87891 0.0295 0.0
H675 H 0.04889 0.87649 0.02716 0.0
C676 C 0.93999 0.91669 0.05641 0.0
C677 C 0.979 0.87223 0.05892 0.0
C678 C 0.9544 0.95804 0.04922 0.0
C679 C 1.00761 0.95483 0.0443 0.0
C680 C 0.0489 0.91375 0.04745 0.0
H681 H 0.05479 0.20042 0.99469 0.0
H682 H 0.08234 0.12947 1.00742 0.0
C683 C 0.03467 0.87266 0.05476 0.0
C684 C 0.01528 0.9888 0.03502 0.0
H685 H 1.00364 0.9756 1.00986 0.0
C686 C 0.01773 0.04968 0.03554 0.0
C687 C 0.01153 0.96161 1.02564 0.0
C688 C 1.00732 0.89631 1.02469 0.0
C689 C 0.0146 0.08421 1.02693 0.0
C690 C 1.00889 0.05703 1.01758 0.0
C691 C 1.00846 0.99615 1.01704 0.0
C692 C 0.99646 0.09139 1.00848 0.0
C693 C 0.01413 0.14958 0.02791 0.0
C694 C 0.93995 0.09132 1.00447 0.0
C695 C 0.92432 0.13166 0.99715 0.0
C696 C 0.96517 0.17204 0.99359 0.0
C697 C 0.02281 0.16904 0.99708 0.0
C698 C 0.03842 0.12891 1.00445 0.0
H699 H 0.01237 0.16364 0.03576 0.0
H700 H 0.05409 0.16809 1.02458 0.0
H701 H 0.97626 0.16806 1.02385 0.0
H702 H 0.90689 0.06273 1.00749 0.0
H703 H 0.87934 0.13382 0.99473 0.0
H704 H 0.25895 0.85487 0.08372 0.0
H705 H 0.36187 0.87978 0.08542 0.0
H706 H 0.40374 0.74782 0.06409 0.0
H707 H 0.30174 0.72532 0.06189 0.0
H708 H 0.43989 0.81491 0.09288 0.0
H709 H 0.51686 0.8662 0.05568 0.0
H710 H 0.44031 0.86516 0.05847 0.0
H711 H 0.47675 0.79958 0.0547 0.0
C712 C 0.28969 0.83274 0.07908 0.0
C713 C 0.27162 0.78797 0.07263 0.0
C714 C 0.34879 0.84685 0.08012 0.0
C715 C 0.39084 0.81649 0.07477 0.0
C716 C 0.37247 0.77346 0.06808 0.0
H717 H 0.67586 0.6373 0.09241 0.0
H718 H 0.58732 0.69287 0.09093 0.0
C719 C 0.31377 0.75986 0.06695 0.0
C720 C 0.45383 0.82233 0.07714 0.0
H721 H 0.5854 0.80759 0.06612 0.0
C722 C 0.47187 0.81525 0.08704 0.0
C723 C 0.49636 0.82498 0.06965 0.0
C724 C 0.48133 0.84016 0.05906 0.0
C725 C 0.53005 0.80363 0.08946 0.0
C726 C 0.57066 0.79661 0.08177 0.0
C727 C 0.55409 0.81092 0.07203 0.0
C728 C 0.62684 0.7664 0.08343 0.0
C729 C 0.5467 0.79665 0.10023 0.0
C730 C 0.67877 0.78801 0.07942 0.0
C731 C 0.72981 0.75521 0.07999 0.0
C732 C 0.72994 0.7001 0.08464 0.0
C733 C 0.67792 0.67941 0.0888 0.0
C734 C 0.62708 0.71176 0.08811 0.0
H735 H 0.52167 0.82717 0.10487 0.0
H736 H 0.53567 0.75187 0.10272 0.0
H737 H 0.59381 0.80461 0.10152 0.0
H738 H 0.67949 0.82962 0.07562 0.0
H739 H 0.76819 0.77251 0.07646 0.0
H740 H 0.54482 0.03255 0.33334 0.0
H741 H 0.56485 0.1345 0.32936 0.0
H742 H 0.46099 0.18816 0.35401 0.0
H743 H 0.43918 0.08684 0.35791 0.0
H744 H 0.43277 0.24388 0.33628 0.0
H745 H 0.67038 0.25312 0.34393 0.0
H746 H 0.64698 0.19578 0.33578 0.0
H747 H 0.62442 0.19502 0.34846 0.0
C748 C 0.5257 0.06584 0.33788 0.0
C749 C 0.48958 0.05118 0.34589 0.0
C750 C 0.53804 0.12418 0.33568 0.0
C751 C 0.51491 0.1688 0.34146 0.0
C752 C 0.47952 0.15434 0.34949 0.0
H753 H 0.56251 0.54559 0.34025 0.0
H754 H 0.56408 0.44281 0.3452 0.0
C755 C 0.46721 0.09627 0.35171 0.0
C756 C 0.52427 0.23075 0.33883 0.0
H757 H 0.62816 0.33663 0.33632 0.0
C758 C 0.47547 0.26418 0.33632 0.0
C759 C 0.57999 0.25716 0.33899 0.0
C760 C 0.6335 0.22369 0.34201 0.0
C761 C 0.48092 0.32312 0.3338 0.0
C762 C 0.53671 0.34917 0.33369 0.0
C763 C 0.58554 0.31622 0.33637 0.0
C764 C 0.54443 0.41035 0.33054 0.0
C765 C 0.42694 0.35729 0.33126 0.0
C766 C 0.53465 0.42563 0.32063 0.0
C767 C 0.53391 0.48397 0.31777 0.0
C768 C 0.54317 0.5283 0.32477 0.0
C769 C 0.55598 0.51269 0.33464 0.0
C770 C 0.55664 0.454 0.3375 0.0
H771 H 0.38673 0.33415 0.33357 0.0
H772 H 0.42833 0.40064 0.33486 0.0
H773 H 0.4246 0.36431 0.32313 0.0
H774 H 0.52554 0.39241 0.31515 0.0
H775 H 0.52448 0.49441 0.31009 0.0
H776 H 0.77137 0.3282 0.60522 0.0
H777 H 0.8714 0.30416 0.60115 0.0
H778 H 0.81014 0.18542 0.57871 0.0
H779 H 0.70942 0.20842 0.5828 0.0
H780 H 0.9076 0.14522 0.59291 0.0
H781 H 0.94517 0.35689 0.57376 0.0
H782 H 0.91224 0.36025 0.58576 0.0
H783 H 0.87328 0.32713 0.57566 0.0
C784 C 0.77891 0.29674 0.59944 0.0
C785 C 0.73214 0.27103 0.59424 0.0
C786 C 0.83617 0.28316 0.59713 0.0
C787 C 0.84795 0.24338 0.58961 0.0
C788 C 0.8017 0.21644 0.58453 0.0
H789 H 0.17286 0.21172 0.55941 0.0
H790 H 0.07072 0.20991 0.56398 0.0
C791 C 0.74418 0.23022 0.5868 0.0
C792 C 0.90879 0.23199 0.58683 0.0
H793 H 0.02671 0.29669 0.57627 0.0
C794 C 0.93376 0.17809 0.58923 0.0
C795 C 0.94243 0.275 0.58202 0.0
C796 C 0.91706 0.33301 0.57906 0.0
C797 C 0.99214 0.16642 0.58703 0.0
C798 C 0.02603 0.20992 0.58236 0.0
C799 C 1.00065 0.26349 0.57988 0.0
C800 C 0.08759 0.20101 0.57969 0.0
C801 C 0.017 0.10762 0.58957 0.0
C802 C 0.13106 0.19503 0.587 0.0
C803 C 0.1899 0.19592 0.5844 0.0
C804 C 0.20586 0.20332 0.57445 0.0
C805 C 0.16198 0.20639 0.56714 0.0
C806 C 0.10356 0.20524 0.56974 0.0
H807 H 0.98245 0.07523 0.59128 0.0
H808 H 0.04346 0.09107 0.58337 0.0
H809 H 0.04587 0.11173 0.59616 0.0
H810 H 0.11962 0.19269 0.59475 0.0
H811 H 0.22264 0.19432 0.59021 0.0
H812 H 0.01202 0.01139 0.8327 0.0
H813 H 0.98927 0.91029 0.82866 0.0
H814 H 0.10475 0.85213 0.85196 0.0
H815 H 0.12939 0.9527 0.85588 0.0
H816 H 0.12399 0.79978 0.8338 0.0
H817 H 0.89067 0.78955 0.8439 0.0
H818 H 0.91027 0.8482 0.83571 0.0
H819 H 0.93891 0.84679 0.84812 0.0
C820 C 0.03314 0.97731 0.83692 0.0
C821 C 0.07342 0.99045 0.84453 0.0
C822 C 0.01924 0.91945 0.8347 0.0
C823 C 0.04487 0.87386 0.84009 0.0
C824 C 0.08428 0.88678 0.84775 0.0
H825 H 0.99418 0.49921 0.83923 0.0
H826 H 0.99321 0.60216 0.84386 0.0
C827 C 0.09821 0.94439 0.84998 0.0
C828 C 0.03402 0.81249 0.83735 0.0
H829 H 0.92896 0.70713 0.83568 0.0
C830 C 0.08138 0.7795 0.83423 0.0
C831 C 0.97844 0.78617 0.83801 0.0
C832 C 0.92664 0.81923 0.8417 0.0
C833 C 0.07464 0.72096 0.83163 0.0
C834 C 0.01887 0.69497 0.83205 0.0
C835 C 0.97151 0.72755 0.8353 0.0
C836 C 1.00977 0.63389 0.82905 0.0
C837 C 0.12737 0.68711 0.82853 0.0
C838 C 0.01733 0.61816 0.81915 0.0
C839 C 0.01789 0.55968 0.81648 0.0
C840 C 1.01044 0.5158 0.82366 0.0
C841 C 0.99933 0.53184 0.8335 0.0
C842 C 0.99898 0.59061 0.83617 0.0
H843 H 0.16853 0.70965 0.83062 0.0
H844 H 0.12727 0.64304 0.83194 0.0
H845 H 0.12653 0.68185 0.82037 0.0
H846 H 0.02517 0.65112 0.81355 0.0
H847 H 0.02597 0.54876 0.80883 0.0
H848 H 0.29897 0.27534 0.99576 0.0
H849 H 0.40174 0.27541 0.99139 0.0
H850 H 0.35504 0.26092 0.9605 0.0
H851 H 0.252 0.26033 0.9648 0.0
H852 H 0.45961 0.19637 0.96688 0.0
H853 H 0.4572 0.42916 0.97787 0.0
H854 H 0.43294 0.37911 0.98723 0.0
H855 H 0.39155 0.38721 0.97596 0.0
C856 C 0.31063 0.27092 0.98806 0.0
C857 C 0.26757 0.26824 0.98062 0.0
C858 C 0.36922 0.27084 0.98558 0.0
C859 C 0.38558 0.26897 0.97563 0.0
C860 C 0.34297 0.26224 0.96823 0.0
H861 H 0.69489 0.4258 0.95262 0.0
H862 H 0.59668 0.39128 0.95541 0.0
C863 C 0.28419 0.26181 0.9707 0.0
C864 C 0.4462 0.28166 0.97293 0.0
H865 H 0.54785 0.38998 0.97359 0.0
C866 C 0.47915 0.2386 0.96833 0.0
C867 C 0.4708 0.33721 0.97469 0.0
C868 C 0.43627 0.38609 0.97913 0.0
C869 C 0.53687 0.24957 0.96556 0.0
C870 C 0.56186 0.30467 0.96758 0.0
C871 C 0.52854 0.34769 0.9721 0.0
C872 C 0.62217 0.3199 0.96495 0.0
C873 C 0.57018 0.20269 0.96035 0.0
C874 C 0.66923 0.29055 0.96929 0.0
C875 C 0.72605 0.30986 0.96766 0.0
C876 C 0.73675 0.3597 0.96178 0.0
C877 C 0.68905 0.38763 0.95724 0.0
C878 C 0.63256 0.36797 0.95881 0.0
H879 H 0.54072 0.1691 0.95713 0.0
H880 H 0.59717 0.22146 0.95435 0.0
H881 H 0.5996 0.18091 0.96575 0.0
H882 H 0.66199 0.25377 0.97417 0.0
H883 H 0.7608 0.28566 0.97113 0.0
H884 H 0.09085 0.03556 0.22935 0.0
H885 H 0.05153 0.13355 0.23105 0.0
H886 H 0.08652 0.1682 0.20025 0.0
H887 H 0.12742 0.07098 0.1986 0.0
H888 H 0.13281 0.24878 0.21159 0.0
H889 H 0.90493 0.21595 0.22308 0.0
H890 H 0.95485 0.1769 0.23088 0.0
H891 H 0.94786 0.15801 0.218 0.0
C892 C 0.08871 0.06355 0.22288 0.0
C893 C 0.11213 0.04571 0.21383 0.0
C894 C 0.06595 0.11949 0.22385 0.0
C895 C 0.06528 0.15804 0.21574 0.0
C896 C 0.08638 0.13919 0.2066 0.0
H897 H 0.01718 0.5366 0.21428 0.0
H898 H 0.01426 0.43474 0.20904 0.0
C899 C 0.10985 0.08372 0.20567 0.0
C900 C 0.04977 0.22003 0.21706 0.0
H901 H 0.94684 0.3106 0.22635 0.0
C902 C 0.09165 0.26231 0.21464 0.0
C903 C 0.99614 0.23767 0.22107 0.0
C904 C 0.94817 0.19473 0.22331 0.0
C905 C 0.08245 0.32142 0.21648 0.0
C906 C 0.02975 0.33881 0.22079 0.0
C907 C 0.98713 0.29694 0.223 0.0
C908 C 0.02109 0.39966 0.22389 0.0
C909 C 0.13028 0.36461 0.21421 0.0
C910 C 0.0238 0.41327 0.23397 0.0
C911 C 0.02544 0.4712 0.23699 0.0
C912 C 0.02387 0.51659 0.22998 0.0
C913 C 0.01777 0.50277 0.21988 0.0
C914 C 0.01645 0.44463 0.21687 0.0
H915 H 0.1715 0.34294 0.21221 0.0
H916 H 0.11659 0.39264 0.20791 0.0
H917 H 0.13871 0.3932 0.22068 0.0
H918 H 0.02751 0.37908 0.23949 0.0
H919 H 0.02972 0.48044 0.24482 0.0
H920 H 0.22313 0.82601 0.44717 0.0
H921 H 0.12282 0.80226 0.45133 0.0
H922 H 0.18258 0.68261 0.47382 0.0
H923 H 0.28361 0.70533 0.46965 0.0
H924 H 0.08199 0.64514 0.45929 0.0
H925 H 0.05403 0.85374 0.47941 0.0
H926 H 0.08746 0.85787 0.46744 0.0
H927 H 0.12451 0.82186 0.47746 0.0
C928 C 0.21521 0.79427 0.45296 0.0
C929 C 0.26166 0.76834 0.45817 0.0
C930 C 0.1578 0.78086 0.45532 0.0
C931 C 0.14556 0.741 0.4629 0.0
C932 C 0.19143 0.71365 0.46796 0.0
H933 H 0.82042 0.71359 0.49346 0.0
H934 H 0.92248 0.71029 0.48885 0.0
C935 C 0.24912 0.72727 0.46564 0.0
C936 C 0.08468 0.7304 0.4658 0.0
H937 H 0.97031 0.79573 0.47696 0.0
C938 C 0.05744 0.67776 0.4632 0.0
C939 C 0.05321 0.77311 0.47091 0.0
C940 C 0.08113 0.82978 0.47405 0.0
C941 C 0.99884 0.66709 0.46549 0.0
C942 C 0.96704 0.71038 0.47044 0.0
C943 C 0.99475 0.76265 0.47313 0.0
C944 C 0.90522 0.7027 0.47314 0.0
C945 C 0.97158 0.60953 0.46272 0.0
C946 C 0.8615 0.69804 0.46584 0.0
C947 C 0.80276 0.69965 0.46846 0.0
C948 C 0.78713 0.70657 0.47842 0.0
C949 C 0.83111 0.7086 0.48572 0.0
C950 C 0.88946 0.70662 0.48311 0.0
H951 H 1.00487 0.57634 0.46102 0.0
H952 H 0.94369 0.59285 0.46878 0.0
H953 H 0.94377 0.61553 0.45604 0.0
H954 H 0.87276 0.69609 0.45809 0.0
H955 H 0.76991 0.69891 0.46267 0.0
H956 H 0.59228 0.48701 0.71932 0.0
H957 H 0.61964 0.58988 0.71825 0.0
H958 H 0.4871 0.63149 0.73938 0.0
H959 H 0.46172 0.52951 0.74085 0.0
H960 H 0.55445 0.66966 0.71095 0.0
H961 H 0.60754 0.74224 0.74847 0.0
H962 H 0.60624 0.66596 0.74532 0.0
H963 H 0.54092 0.70207 0.74925 0.0
C964 C 0.57061 0.51772 0.72405 0.0
C965 C 0.52468 0.49983 0.73019 0.0
C966 C 0.58612 0.5767 0.72338 0.0
C967 C 0.55617 0.61865 0.72885 0.0
C968 C 0.51232 0.60022 0.73531 0.0
H969 H 0.37226 0.90088 0.71345 0.0
H970 H 0.43073 0.81369 0.71418 0.0
C971 C 0.49713 0.54165 0.73603 0.0
C972 C 0.56287 0.68186 0.72673 0.0
H973 H 0.54881 0.81233 0.73832 0.0
C974 C 0.55525 0.70103 0.71692 0.0
C975 C 0.56601 0.72357 0.7344 0.0
C976 C 0.58138 0.70716 0.74492 0.0
C977 C 0.54321 0.75948 0.71476 0.0
C978 C 0.53668 0.79921 0.72263 0.0
C979 C 0.55187 0.78165 0.73228 0.0
C980 C 0.50506 0.85486 0.72128 0.0
C981 C 0.5347 0.7773 0.70408 0.0
C982 C 0.52648 0.90723 0.72526 0.0
C983 C 0.49228 0.95749 0.72504 0.0
C984 C 0.4359 0.95607 0.72086 0.0
C985 C 0.41537 0.90378 0.71671 0.0
C986 C 0.44927 0.85385 0.71698 0.0
H987 H 0.56458 0.75288 0.69924 0.0
H988 H 0.48965 0.76643 0.70169 0.0
H989 H 0.5423 0.82464 0.70297 0.0
H990 H 0.56901 0.90883 0.72876 0.0
H991 H 0.50924 0.99646 0.72851 0.0
H992 H 0.09293 0.48787 0.09427 0.0
H993 H 0.09841 0.38247 0.09233 0.0
H994 H 0.9954 0.39397 0.06555 0.0
H995 H 0.99126 0.4999 0.0673 0.0
H996 H 0.01219 0.30839 0.09322 0.0
H997 H 0.11505 0.28019 0.05674 0.0
H998 H 0.11453 0.34926 0.06304 0.0
H999 H 0.05174 0.3252 0.05609 0.0
C1000 C 0.07254 0.46822 0.08783 0.0
C1001 C 0.04185 0.50268 0.08093 0.0
C1002 C 0.07551 0.40767 0.08674 0.0
C1003 C 0.0477 0.37959 0.07875 0.0
C1004 C 0.01848 0.41414 0.07166 0.0
H1005 H 0.92606 0.0206 0.08152 0.0
H1006 H 0.93698 0.12615 0.08081 0.0
C1007 C 0.01598 0.47498 0.07269 0.0
C1008 C 0.04528 0.31427 0.0784 0.0
H1009 H 0.0698 0.19567 0.06375 0.0
C1010 C 0.02522 0.28396 0.08678 0.0
C1011 C 0.06271 0.28165 0.07006 0.0
C1012 C 0.08777 0.31067 0.06101 0.0
C1013 C 0.02124 0.22281 0.08702 0.0
C1014 C 0.03634 0.19031 0.07855 0.0
C1015 C 0.05756 0.22032 0.07022 0.0
C1016 C 0.02958 0.12539 0.07823 0.0
C1017 C 1.00165 0.19358 0.09645 0.0
C1018 C 0.07748 0.08903 0.0766 0.0
C1019 C 0.07127 0.02804 0.07692 0.0
C1020 C 0.01692 1.00209 0.07887 0.0
C1021 C 0.96879 0.03874 0.08015 0.0
C1022 C 0.97499 0.0994 0.07979 0.0
H1023 H 1.00843 0.22217 0.10297 0.0
H1024 H 0.95451 0.18357 0.09586 0.0
H1025 H 0.02525 0.15224 0.09777 0.0
H1026 H 0.12003 0.10781 0.0753 0.0
H1027 H 0.1092 1.00131 0.07582 0.0
H1028 H 0.79215 0.88303 0.33272 0.0
H1029 H 0.89773 0.87699 0.33165 0.0
H1030 H 0.88257 0.70064 0.32116 0.0
H1031 H 0.77642 0.70672 0.32203 0.0
H1032 H 0.96947 0.80454 0.34179 0.0
H1033 H 0.99657 0.76879 0.3015 0.0
H1034 H 0.93038 0.79636 0.3067 0.0
H1035 H 0.94618 0.71989 0.30735 0.0
C1036 C 0.81106 0.84303 0.33009 0.0
C1037 C 0.77554 0.79526 0.3275 0.0
C1038 C 0.87164 0.83965 0.32949 0.0
C1039 C 0.89847 0.78859 0.32624 0.0
C1040 C 0.86314 0.74098 0.32351 0.0
H1041 H 0.26243 0.68098 0.32663 0.0
H1042 H 0.15614 0.68486 0.32533 0.0
C1043 C 0.80234 0.74435 0.32409 0.0
C1044 C 0.9633 0.7846 0.32626 0.0
H1045 H 0.08092 0.75957 0.31158 0.0
C1046 C 0.99371 0.79488 0.33517 0.0
C1047 C 0.99529 0.77209 0.31762 0.0
C1048 C 0.96566 0.76411 0.30772 0.0
C1049 C 0.05474 0.79251 0.3357 0.0
C1050 C 0.08657 0.77979 0.32709 0.0
C1051 C 0.05641 0.76909 0.31818 0.0
C1052 C 0.15126 0.77802 0.32723 0.0
C1053 C 0.08493 0.80304 0.3455 0.0
C1054 C 0.18395 0.82928 0.32851 0.0
C1055 C 0.24472 0.82732 0.32919 0.0
C1056 C 0.27419 0.77392 0.32866 0.0
C1057 C 0.2413 0.72281 0.32712 0.0
C1058 C 0.18049 0.72492 0.32636 0.0
H1059 H 0.0541 0.80201 0.35177 0.0
H1060 H 0.11909 0.76994 0.34684 0.0
H1061 H 0.10638 0.84642 0.34535 0.0
H1062 H 0.16233 0.87082 0.32911 0.0
H1063 H 0.2685 0.86759 0.33034 0.0
H1064 H 0.42368 0.50849 0.59703 0.0
H1065 H 0.42162 0.61242 0.59348 0.0
H1066 H 0.49693 0.58202 0.56488 0.0
H1067 H 0.50086 0.47752 0.56854 0.0
H1068 H 0.55015 0.6706 0.57389 0.0
H1069 H 0.3138 0.70554 0.57629 0.0
H1070 H 0.34098 0.6712 0.58732 0.0
H1071 H 0.34481 0.63376 0.57566 0.0
C1072 C 0.43933 0.52362 0.58993 0.0
C1073 C 0.46211 0.48437 0.58305 0.0
C1074 C 0.43766 0.58326 0.58787 0.0
C1075 C 0.45787 0.60525 0.57882 0.0
C1076 C 0.48055 0.56619 0.57189 0.0
H1077 H 0.40607 0.97967 0.56708 0.0
H1078 H 0.40316 0.8735 0.56526 0.0
C1079 C 0.48262 0.50636 0.57398 0.0
C1080 C 0.45843 0.66926 0.57692 0.0
H1081 H 0.37435 0.79093 0.57839 0.0
C1082 C 0.51149 0.69677 0.57474 0.0
C1083 C 0.40789 0.70369 0.57778 0.0
C1084 C 0.34859 0.6769 0.57928 0.0
C1085 C 0.51597 0.75768 0.57395 0.0
C1086 C 0.46638 0.79231 0.57564 0.0
C1087 C 0.41268 0.76466 0.57726 0.0
C1088 C 0.46987 0.857 0.57632 0.0
C1089 C 0.57397 0.78423 0.57133 0.0
C1090 C 0.50792 0.88326 0.58319 0.0
C1091 C 0.5099 0.94375 0.5842 0.0
C1092 C 0.47314 0.97956 0.57849 0.0
C1093 C 0.43479 0.95334 0.57163 0.0
C1094 C 0.43315 0.89265 0.57057 0.0
H1095 H 0.60048 0.75355 0.56697 0.0
H1096 H 0.56867 0.82511 0.56701 0.0
H1097 H 0.59849 0.79423 0.57824 0.0
H1098 H 0.53549 0.85687 0.58793 0.0
H1099 H 0.53964 0.96235 0.58961 0.0
H1100 H 0.78074 0.31688 0.81669 0.0
H1101 H 0.67462 0.31923 0.81468 0.0
H1102 H 0.65708 0.19522 0.83854 0.0
H1103 H 0.76253 0.19156 0.84041 0.0
H1104 H 0.5846 0.16909 0.82327 0.0
H1105 H 0.56414 0.40301 0.83274 0.0
H1106 H 0.60998 0.38821 0.8224 0.0
H1107 H 0.63093 0.36358 0.83456 0.0
C1108 C 0.75419 0.29028 0.82152 0.0
C1109 C 0.78017 0.25453 0.82879 0.0
C1110 C 0.69349 0.29179 0.82039 0.0
C1111 C 0.65757 0.25818 0.82658 0.0
C1112 C 0.68365 0.22167 0.83369 0.0
H1113 H 0.30964 0.29838 0.84597 0.0
H1114 H 0.41335 0.29928 0.84266 0.0
C1115 C 0.74411 0.21976 0.83476 0.0
C1116 C 0.59285 0.26108 0.82588 0.0
H1117 H 0.47774 0.35227 0.82896 0.0
C1118 C 0.56118 0.20924 0.82444 0.0
C1119 C 0.5622 0.3134 0.82746 0.0
C1120 C 0.59337 0.37018 0.82946 0.0
C1121 C 0.50006 0.20788 0.82483 0.0
C1122 C 0.46942 0.26013 0.8265 0.0
C1123 C 0.50107 0.31226 0.82763 0.0
C1124 C 0.40531 0.26097 0.82811 0.0
C1125 C 0.46918 0.14997 0.82393 0.0
C1126 C 0.36553 0.23992 0.82097 0.0
C1127 C 0.30564 0.23876 0.8229 0.0
C1128 C 0.28434 0.25942 0.83195 0.0
C1129 C 0.32423 0.28204 0.83892 0.0
C1130 C 0.3838 0.2827 0.83703 0.0
H1131 H 0.49943 0.11288 0.82495 0.0
H1132 H 0.4341 0.14593 0.82948 0.0
H1133 H 0.4492 0.1464 0.81645 0.0
H1134 H 0.38076 0.2242 0.81393 0.0
H1135 H 0.27617 0.22138 0.81734 0.0
H1136 H 0.09883 0.0413 0.98139 0.0
H1137 H 0.10928 0.93506 0.98232 0.0
H1138 H 0.94148 0.91369 0.96829 0.0
H1139 H 0.93102 0.01912 0.96722 0.0
H1140 H 0.0413 0.84642 0.9911 0.0
H1141 H 0.04753 0.82013 0.95038 0.0
H1142 H 0.05567 0.89001 0.95628 0.0
H1143 H 0.98461 0.85838 0.95452 0.0
C1144 C 0.06419 0.01397 0.97849 0.0
C1145 C 0.01444 0.039 0.9741 0.0
C1146 C 0.07013 0.95318 0.97906 0.0
C1147 C 0.02667 0.91615 0.9752 0.0
C1148 C 0.97623 0.94112 0.97112 0.0
H1149 H 0.97256 0.54237 0.98362 0.0
H1150 H 0.97352 0.64827 0.98539 0.0
C1151 C 0.97024 1.00165 0.97055 0.0
C1152 C 0.0341 0.85154 0.97522 0.0
H1153 H 0.03643 0.73369 0.95989 0.0
C1154 C 0.04063 0.82174 0.98428 0.0
C1155 C 0.03407 0.81919 0.96633 0.0
C1156 C 0.03068 0.84852 0.95632 0.0
C1157 C 0.04567 0.76058 0.98468 0.0
C1158 C 0.04322 0.72802 0.97578 0.0
C1159 C 0.03796 0.75815 0.96674 0.0
C1160 C 0.04602 0.66287 0.97557 0.0
C1161 C 0.05447 0.73169 0.99462 0.0
C1162 C 0.08611 0.63503 0.96943 0.0
C1163 C 0.08508 0.57444 0.96829 0.0
C1164 C 0.04401 0.53985 0.97329 0.0
C1165 C 1.00525 0.56744 0.97974 0.0
C1166 C 1.00593 0.62823 0.98079 0.0
H1167 H 0.07341 0.76241 1.00012 0.0
H1168 H 0.01179 0.71676 0.99745 0.0
H1169 H 0.08339 0.69339 0.99408 0.0
H1170 H 0.11753 0.66042 0.9653 0.0
H1171 H 0.11557 0.55485 0.96327 0.0
H1172 H 0.2978 0.78134 0.23828 0.0
H1173 H 0.4034 0.78067 0.24093 0.0
H1174 H 0.4254 0.70031 0.21245 0.0
H1175 H 0.32039 0.69914 0.2099 0.0
H1176 H 0.49941 0.65468 0.22563 0.0
H1177 H 0.51169 0.89549 0.22808 0.0
H1178 H 0.46688 0.86181 0.2373 0.0
H1179 H 0.44603 0.85772 0.22445 0.0
C1180 C 0.32506 0.76275 0.23264 0.0
C1181 C 0.30033 0.74066 0.22383 0.0
C1182 C 0.38563 0.76296 0.23412 0.0
C1183 C 0.42287 0.74181 0.22678 0.0
C1184 C 0.39796 0.71728 0.21821 0.0
H1185 H 0.77574 0.83191 0.21293 0.0
H1186 H 0.67085 0.82172 0.21485 0.0
C1187 C 0.33761 0.71665 0.21676 0.0
C1188 C 0.48765 0.74656 0.22775 0.0
H1189 H 0.59967 0.84461 0.2299 0.0
C1190 C 0.5213 0.6962 0.22663 0.0
C1191 C 0.51657 0.8008 0.22894 0.0
C1192 C 0.48359 0.85714 0.22967 0.0
C1193 C 0.58251 0.69861 0.22647 0.0
C1194 C 0.61139 0.75281 0.2277 0.0
C1195 C 0.57779 0.80299 0.22903 0.0
C1196 C 0.67595 0.75925 0.22686 0.0
C1197 C 0.61551 0.64335 0.22455 0.0
C1198 C 0.71445 0.7282 0.23306 0.0
C1199 C 0.77489 0.7336 0.23191 0.0
C1200 C 0.7982 0.77068 0.22461 0.0
C1201 C 0.75955 0.80277 0.21861 0.0
C1202 C 0.69934 0.79708 0.21971 0.0
H1203 H 0.58697 0.60879 0.22139 0.0
H1204 H 0.6519 0.6514 0.21938 0.0
H1205 H 0.63395 0.62678 0.23163 0.0
H1206 H 0.69782 0.69993 0.23882 0.0
H1207 H 0.80331 0.70887 0.23677 0.0
H1208 H 0.42415 0.46736 0.47415 0.0
H1209 H 0.42965 0.36159 0.47556 0.0
H1210 H 0.61438 0.3741 0.48086 0.0
H1211 H 0.60907 0.48035 0.47965 0.0
H1212 H 0.48872 0.28854 0.46387 0.0
H1213 H 0.56651 0.26209 0.5026 0.0
H1214 H 0.53852 0.33007 0.49787 0.0
H1215 H 0.61187 0.30892 0.49529 0.0
C1216 C 0.46597 0.4478 0.47571 0.0
C1217 C 0.51622 0.48255 0.47675 0.0
C1218 C 0.46901 0.38715 0.47652 0.0
C1219 C 0.52228 0.35959 0.47843 0.0
C1220 C 0.57252 0.39418 0.47959 0.0
H1221 H 0.63264 0.99851 0.47551 0.0
H1222 H 0.62706 0.10429 0.47744 0.0
C1223 C 0.56949 0.45502 0.47881 0.0
C1224 C 0.52544 0.2947 0.47855 0.0
H1225 H 0.56693 0.17705 0.49253 0.0
C1226 C 0.50549 0.26427 0.47017 0.0
C1227 C 0.54737 0.26277 0.48677 0.0
C1228 C 0.56678 0.29251 0.49618 0.0
C1229 C 0.50767 0.20324 0.4697 0.0
C1230 C 0.52992 0.17137 0.47787 0.0
C1231 C 0.54995 0.20156 0.48627 0.0
C1232 C 0.53319 0.10669 0.47768 0.0
C1233 C 0.48713 0.17322 0.46038 0.0
C1234 C 0.48231 0.07266 0.47743 0.0
C1235 C 0.4853 0.01215 0.47635 0.0
C1236 C 0.53933 0.98434 0.47545 0.0
C1237 C 0.5903 0.0184 0.4761 0.0
C1238 C 0.58723 0.07892 0.47723 0.0
H1239 H 0.48187 0.20419 0.4541 0.0
H1240 H 0.51815 0.13884 0.45822 0.0
H1241 H 0.44445 0.1521 0.46174 0.0
H1242 H 0.44015 0.09307 0.4779 0.0
H1243 H 0.44516 0.98735 0.476 0.0
H1244 H 0.74945 0.14838 0.72296 0.0
H1245 H 0.85493 0.15771 0.72407 0.0
H1246 H 0.83919 0.34332 0.72746 0.0
H1247 H 0.73291 0.33414 0.72654 0.0
H1248 H 0.92589 0.21384 0.71176 0.0
H1249 H 0.95513 0.30547 0.74936 0.0
H1250 H 0.88723 0.27411 0.74513 0.0
H1251 H 0.90699 0.34703 0.74157 0.0
C1252 C 0.76817 0.19128 0.72401 0.0
C1253 C 0.73236 0.24056 0.7246 0.0
C1254 C 0.82877 0.19653 0.72466 0.0
C1255 C 0.85553 0.25113 0.72595 0.0
C1256 C 0.81992 0.30049 0.72667 0.0
H1257 H 0.21614 0.31243 0.70908 0.0
H1258 H 0.11072 0.3161 0.71093 0.0
C1259 C 0.75901 0.29524 0.72605 0.0
C1260 C 0.92054 0.25611 0.7259 0.0
H1261 H 0.03915 0.30379 0.73919 0.0
C1262 C 0.95051 0.23351 0.71778 0.0
C1263 C 0.95317 0.28087 0.7338 0.0
C1264 C 0.92415 0.30275 0.74301 0.0
C1265 C 0.01154 0.23542 0.71727 0.0
C1266 C 0.04419 0.2622 0.72498 0.0
C1267 C 0.01439 0.28405 0.7332 0.0
C1268 C 0.10915 0.26685 0.72462 0.0
C1269 C 0.04047 0.20721 0.70856 0.0
C1270 C 0.14428 0.24115 0.73201 0.0
C1271 C 0.20508 0.23988 0.73105 0.0
C1272 C 0.23204 0.26419 0.72266 0.0
C1273 C 0.19696 0.29279 0.71559 0.0
C1274 C 0.13644 0.29453 0.7166 0.0
H1275 H 0.01151 0.17461 0.70494 0.0
H1276 H 0.05111 0.24105 0.70297 0.0
H1277 H 0.08136 0.1853 0.71085 0.0
H1278 H 0.12454 0.21984 0.73831 0.0
H1279 H 0.23061 0.2173 0.73663 0.0
loop_
_geom_bond_atom_site_label_1
_geom_bond_atom_site_label_2
_geom_bond_distance
_geom_bond_site_symmetry_2
_ccdc_geom_bond_type
Zn0 N4 2.020 . S
Zn0 O8 2.019 . S
Zn0 N10 2.119 . S
Zn0 O18 1.975 . S
C1 N2 1.334 1_655 S
C1 N5 1.336 . S
N2 C1 1.334 1_455 S
N2 C3 1.334 . S
C3 N2 1.334 . S
C3 N4 1.336 . S
N4 Zn0 2.020 . S
N4 C3 1.336 . S
N4 N5 1.354 1_455 S
N5 C1 1.336 . S
N5 N4 1.354 1_655 S
N5 Zn9 2.020 . S
C6 O7 1.244 1_655 S
C6 O30 1.257 . S
O7 C6 1.244 1_455 S
O8 Zn0 2.019 . S
O8 C28 1.257 . S
Zn9 N5 2.020 . S
Zn9 O16 1.975 . S
Zn9 N25 2.119 . S
Zn9 O30 2.019 . S
N10 Zn0 2.119 . S
N10 C12 1.334 . S
N10 C13 1.328 . S
C11 C12 1.391 . S
C11 N14 1.329 . S
C11 H32 0.930 . S
C12 N10 1.334 . S
C12 C11 1.391 . S
C12 H19 0.930 . S
C13 N10 1.328 . S
C13 C15 1.392 . S
C13 H20 0.930 . S
N14 C11 1.329 . S
N14 C15 1.331 . S
C15 C13 1.392 . S
C15 N14 1.331 . S
O16 Zn9 1.975 . S
O16 C17 1.252 1_655 S
C17 O16 1.252 1_455 S
C17 O18 1.252 . S
O18 Zn0 1.975 . S
O18 C17 1.252 . S
H19 C12 0.930 . S
H20 C13 0.930 . S
C21 C22 1.392 . S
C21 N25 1.328 . S
C21 H27 0.930 . S
C22 C21 1.392 . S
C22 N26 1.331 . S
C23 C24 1.391 . S
C23 N26 1.329 . S
C23 H33 0.930 . S
C24 C23 1.391 . S
C24 N25 1.334 . S
C24 H31 0.930 . S
N25 Zn9 2.119 . S
N25 C21 1.328 . S
N25 C24 1.334 . S
N26 C22 1.331 . S
N26 C23 1.329 . S
H27 C21 0.930 . S
C28 O8 1.257 . S
C28 O29 1.244 1_455 S
O29 C28 1.244 1_655 S
O30 C6 1.257 . S
O30 Zn9 2.019 . S
H31 C24 0.930 . S
H32 C11 0.930 . S
H33 C23 0.930 . S
Zn34 N38 2.020 . S
Zn34 O42 2.019 . S
Zn34 N44 2.119 . S
Zn34 O52 1.975 . S
C35 N36 1.334 . S
C35 N39 1.336 . S
N36 C35 1.334 . S
N36 C37 1.334 . S
C37 N36 1.334 . S
C37 N38 1.336 . S
N38 Zn34 2.020 . S
N38 C37 1.336 . S
N38 N39 1.354 . S
N39 C35 1.336 . S
N39 N38 1.354 . S
N39 Zn43 2.020 . S
C40 O41 1.244 . S
C40 O64 1.257 . S
O41 C40 1.244 . S
O42 Zn34 2.019 . S
O42 C62 1.257 . S
Zn43 N39 2.020 . S
Zn43 O50 1.975 . S
Zn43 N59 2.119 . S
Zn43 O64 2.019 . S
N44 Zn34 2.119 . S
N44 C46 1.334 . S
N44 C47 1.328 . S
C45 C46 1.391 . S
C45 N48 1.329 . S
C45 H66 0.930 . S
C46 N44 1.334 . S
C46 C45 1.391 . S
C46 H53 0.930 . S
C47 N44 1.328 . S
C47 C49 1.392 . S
C47 H54 0.930 . S
N48 C45 1.329 . S
N48 C49 1.331 . S
C49 C47 1.392 . S
C49 N48 1.331 . S
O50 Zn43 1.975 . S
O50 C51 1.252 . S
C51 O50 1.252 . S
C51 O52 1.252 . S
O52 Zn34 1.975 . S
O52 C51 1.252 . S
H53 C46 0.930 . S
H54 C47 0.930 . S
C55 C56 1.392 . S
C55 N59 1.328 . S
C55 H61 0.930 . S
C56 C55 1.392 . S
C56 N60 1.331 . S
C57 C58 1.391 . S
C57 N60 1.329 . S
C57 H67 0.930 . S
C58 C57 1.391 . S
C58 N59 1.334 . S
C58 H65 0.930 . S
N59 Zn43 2.119 . S
N59 C55 1.328 . S
N59 C58 1.334 . S
N60 C56 1.331 . S
N60 C57 1.329 . S
H61 C55 0.930 . S
C62 O42 1.257 . S
C62 O63 1.244 . S
O63 C62 1.244 . S
O64 C40 1.257 . S
O64 Zn43 2.019 . S
H65 C58 0.930 . S
H66 C45 0.930 . S
H67 C57 0.930 . S
Zn68 N72 2.020 . S
Zn68 O76 2.019 . S
Zn68 N78 2.119 . S
Zn68 O86 1.975 . S
C69 N70 1.334 . S
C69 N73 1.336 . S
N70 C69 1.334 . S
N70 C71 1.334 . S
C71 N70 1.334 . S
C71 N72 1.336 . S
N72 Zn68 2.020 . S
N72 C71 1.336 . S
N72 N73 1.354 . S
N73 C69 1.336 . S
N73 N72 1.354 . S
N73 Zn77 2.020 . S
C74 O75 1.244 . S
C74 O98 1.257 . S
O75 C74 1.244 . S
O76 Zn68 2.019 . S
O76 C96 1.257 . S
Zn77 N73 2.020 . S
Zn77 O84 1.975 . S
Zn77 N93 2.119 . S
Zn77 O98 2.019 . S
N78 Zn68 2.119 . S
N78 C80 1.334 . S
N78 C81 1.328 . S
C79 C80 1.391 . S
C79 N82 1.329 . S
C79 H100 0.930 . S
C80 N78 1.334 . S
C80 C79 1.391 . S
C80 H87 0.930 . S
C81 N78 1.328 . S
C81 C83 1.392 . S
C81 H88 0.930 . S
N82 C79 1.329 . S
N82 C83 1.331 . S
C83 C81 1.392 . S
C83 N82 1.331 . S
O84 Zn77 1.975 . S
O84 C85 1.252 . S
C85 O84 1.252 . S
C85 O86 1.252 . S
O86 Zn68 1.975 . S
O86 C85 1.252 . S
H87 C80 0.930 . S
H88 C81 0.930 . S
C89 C90 1.392 . S
C89 N93 1.328 . S
C89 H95 0.930 . S
C90 C89 1.392 . S
C90 N94 1.331 . S
C91 C92 1.391 . S
C91 N94 1.329 . S
C91 H101 0.930 . S
C92 C91 1.391 . S
C92 N93 1.334 . S
C92 H99 0.930 . S
N93 Zn77 2.119 . S
N93 C89 1.328 . S
N93 C92 1.334 . S
N94 C90 1.331 . S
N94 C91 1.329 . S
H95 C89 0.930 . S
C96 O76 1.257 . S
C96 O97 1.244 . S
O97 C96 1.244 . S
O98 C74 1.257 . S
O98 Zn77 2.019 . S
H99 C92 0.930 . S
H100 C79 0.930 . S
H101 C91 0.930 . S
Zn102 N106 2.020 . S
Zn102 O110 2.019 . S
Zn102 N112 2.119 . S
Zn102 O120 1.975 . S
C103 N104 1.334 . S
C103 N107 1.336 . S
N104 C103 1.334 . S
N104 C105 1.334 1_455 S
C105 N104 1.334 1_655 S
C105 N106 1.336 . S
N106 Zn102 2.020 . S
N106 C105 1.336 . S
N106 N107 1.354 1_655 S
N107 C103 1.336 . S
N107 N106 1.354 1_455 S
N107 Zn111 2.020 . S
C108 O109 1.244 . S
C108 O132 1.257 . S
O109 C108 1.244 . S
O110 Zn102 2.019 . S
O110 C130 1.257 . S
Zn111 N107 2.020 . S
Zn111 O118 1.975 . S
Zn111 N127 2.119 . S
Zn111 O132 2.019 . S
N112 Zn102 2.119 . S
N112 C114 1.334 1_655 S
N112 C115 1.328 . S
C113 C114 1.391 . S
C113 N116 1.323 1_455 S
C113 H134 0.930 . S
C114 N112 1.334 1_455 S
C114 C113 1.391 . S
C114 H121 0.930 . S
C115 N112 1.328 . S
C115 C117 1.392 . S
C115 H122 0.930 . S
N116 C113 1.323 1_655 S
N116 C117 1.340 . S
C117 C115 1.392 . S
C117 N116 1.340 . S
O118 Zn111 1.975 . S
O118 C119 1.252 . S
C119 O118 1.252 . S
C119 O120 1.252 1_455 S
O120 Zn102 1.975 . S
O120 C119 1.252 1_655 S
H121 C114 0.930 . S
H122 C115 0.930 . S
C123 C124 1.392 . S
C123 N127 1.328 . S
C123 H129 0.930 . S
C124 C123 1.392 . S
C124 N128 1.345 . S
C125 C126 1.391 . S
C125 N128 1.320 1_655 S
C125 H135 0.930 . S
C126 C125 1.391 . S
C126 N127 1.334 1_655 S
C126 H133 0.930 . S
N127 Zn111 2.119 . S
N127 C123 1.328 . S
N127 C126 1.334 1_455 S
N128 C124 1.345 . S
N128 C125 1.320 1_455 S
H129 C123 0.930 . S
C130 O110 1.257 . S
C130 O131 1.244 . S
O131 C130 1.244 . S
O132 C108 1.257 . S
O132 Zn111 2.019 . S
H133 C126 0.930 . S
H134 C113 0.930 . S
H135 C125 0.930 . S
Zn136 N140 2.020 . S
Zn136 O144 2.019 . S
Zn136 N146 2.119 . S
Zn136 O154 1.975 . S
C137 N138 1.334 . S
C137 N141 1.336 . S
N138 C137 1.334 . S
N138 C139 1.334 1_455 S
C139 N138 1.334 1_655 S
C139 N140 1.336 . S
N140 Zn136 2.020 . S
N140 C139 1.336 . S
N140 N141 1.354 1_655 S
N141 C137 1.336 . S
N141 N140 1.354 1_455 S
N141 Zn145 2.020 . S
C142 O143 1.244 1_455 S
C142 O166 1.257 . S
O143 C142 1.244 1_655 S
O144 Zn136 2.019 . S
O144 C164 1.257 . S
Zn145 N141 2.020 . S
Zn145 O152 1.975 . S
Zn145 N161 2.119 . S
Zn145 O166 2.019 . S
N146 Zn136 2.119 . S
N146 C148 1.334 . S
N146 C149 1.328 . S
C147 C148 1.391 . S
C147 N150 1.329 . S
C147 H168 0.930 . S
C148 N146 1.334 . S
C148 C147 1.391 . S
C148 H155 0.930 . S
C149 N146 1.328 . S
C149 C151 1.392 . S
C149 H156 0.930 . S
N150 C147 1.329 . S
N150 C151 1.331 . S
C151 C149 1.392 . S
C151 N150 1.331 . S
O152 Zn145 1.975 . S
O152 C153 1.252 . S
C153 O152 1.252 . S
C153 O154 1.252 1_455 S
O154 Zn136 1.975 . S
O154 C153 1.252 1_655 S
H155 C148 0.930 . S
H156 C149 0.930 . S
C157 C158 1.392 . S
C157 N161 1.328 . S
C157 H163 0.930 . S
C158 C157 1.392 . S
C158 N162 1.331 . S
C159 C160 1.391 . S
C159 N162 1.329 . S
C159 H169 0.930 . S
C160 C159 1.391 . S
C160 N161 1.334 . S
C160 H167 0.930 . S
N161 Zn145 2.119 . S
N161 C157 1.328 . S
N161 C160 1.334 . S
N162 C158 1.331 . S
N162 C159 1.329 . S
H163 C157 0.930 . S
C164 O144 1.257 . S
C164 O165 1.244 1_655 S
O165 C164 1.244 1_455 S
O166 C142 1.257 . S
O166 Zn145 2.019 . S
H167 C160 0.930 . S
H168 C147 0.930 . S
H169 C159 0.930 . S
Zn170 N174 2.020 . S
Zn170 O178 2.019 . S
Zn170 N180 2.119 . S
Zn170 O188 1.975 . S
C171 N172 1.334 . S
C171 N175 1.336 . S
N172 C171 1.334 . S
N172 C173 1.334 1_455 S
C173 N172 1.334 1_655 S
C173 N174 1.336 . S
N174 Zn170 2.020 . S
N174 C173 1.336 . S
N174 N175 1.354 1_655 S
N175 C171 1.336 . S
N175 N174 1.354 1_455 S
N175 Zn179 2.020 . S
C176 O177 1.244 . S
C176 O200 1.257 . S
O177 C176 1.244 . S
O178 Zn170 2.019 . S
O178 C198 1.257 . S
Zn179 N175 2.020 . S
Zn179 O186 1.975 . S
Zn179 N195 2.119 . S
Zn179 O200 2.019 . S
N180 Zn170 2.119 . S
N180 C182 1.334 1_655 S
N180 C183 1.328 . S
C181 C182 1.391 . S
C181 N184 1.323 1_455 S
C181 H202 0.930 . S
C182 N180 1.334 1_455 S
C182 C181 1.391 . S
C182 H189 0.930 . S
C183 N180 1.328 . S
C183 C185 1.392 . S
C183 H190 0.930 . S
N184 C181 1.323 1_655 S
N184 C185 1.340 . S
C185 C183 1.392 . S
C185 N184 1.340 . S
O186 Zn179 1.975 . S
O186 C187 1.252 . S
C187 O186 1.252 . S
C187 O188 1.252 1_455 S
O188 Zn170 1.975 . S
O188 C187 1.252 1_655 S
H189 C182 0.930 . S
H190 C183 0.930 . S
C191 C192 1.392 . S
C191 N195 1.328 . S
C191 H197 0.930 . S
C192 C191 1.392 . S
C192 N196 1.345 . S
C193 C194 1.391 . S
C193 N196 1.320 1_655 S
C193 H203 0.930 . S
C194 C193 1.391 . S
C194 N195 1.334 1_655 S
C194 H201 0.930 . S
N195 Zn179 2.119 . S
N195 C191 1.328 . S
N195 C194 1.334 1_455 S
N196 C192 1.345 . S
N196 C193 1.320 1_455 S
H197 C191 0.930 . S
C198 O178 1.257 . S
C198 O199 1.244 . S
O199 C198 1.244 . S
O200 C176 1.257 . S
O200 Zn179 2.019 . S
H201 C194 0.930 . S
H202 C181 0.930 . S
H203 C193 0.930 . S
Zn204 N208 2.020 . S
Zn204 O212 2.019 . S
Zn204 N214 2.119 . S
Zn204 O222 1.975 . S
C205 N206 1.334 . S
C205 N209 1.336 . S
N206 C205 1.334 . S
N206 C207 1.334 . S
C207 N206 1.334 . S
C207 N208 1.336 . S
N208 Zn204 2.020 . S
N208 C207 1.336 . S
N208 N209 1.354 . S
N209 C205 1.336 . S
N209 N208 1.354 . S
N209 Zn213 2.020 . S
C210 O211 1.244 . S
C210 O234 1.257 . S
O211 C210 1.244 . S
O212 Zn204 2.019 . S
O212 C232 1.257 . S
Zn213 N209 2.020 . S
Zn213 O220 1.975 . S
Zn213 N229 2.119 . S
Zn213 O234 2.019 . S
N214 Zn204 2.119 . S
N214 C216 1.334 . S
N214 C217 1.328 . S
C215 C216 1.391 . S
C215 N218 1.329 . S
C215 H236 0.930 . S
C216 N214 1.334 . S
C216 C215 1.391 . S
C216 H223 0.930 . S
C217 N214 1.328 . S
C217 C219 1.392 . S
C217 H224 0.930 . S
N218 C215 1.329 . S
N218 C219 1.331 . S
C219 C217 1.392 . S
C219 N218 1.331 . S
O220 Zn213 1.975 . S
O220 C221 1.252 . S
C221 O220 1.252 . S
C221 O222 1.252 . S
O222 Zn204 1.975 . S
O222 C221 1.252 . S
H223 C216 0.930 . S
H224 C217 0.930 . S
C225 C226 1.392 . S
C225 N229 1.328 . S
C225 H231 0.930 . S
C226 C225 1.392 . S
C226 N230 1.331 . S
C227 C228 1.391 . S
C227 N230 1.329 . S
C227 H237 0.930 . S
C228 C227 1.391 . S
C228 N229 1.334 . S
C228 H235 0.930 . S
N229 Zn213 2.119 . S
N229 C225 1.328 . S
N229 C228 1.334 . S
N230 C226 1.331 . S
N230 C227 1.329 . S
H231 C225 0.930 . S
C232 O212 1.257 . S
C232 O233 1.244 . S
O233 C232 1.244 . S
O234 C210 1.257 . S
O234 Zn213 2.019 . S
H235 C228 0.930 . S
H236 C215 0.930 . S
H237 C227 0.930 . S
Zn238 N242 2.020 . S
Zn238 O246 2.019 . S
Zn238 N248 2.119 . S
Zn238 O256 1.975 . S
C239 N240 1.334 . S
C239 N243 1.336 . S
N240 C239 1.334 . S
N240 C241 1.334 . S
C241 N240 1.334 . S
C241 N242 1.336 . S
N242 Zn238 2.020 . S
N242 C241 1.336 . S
N242 N243 1.354 . S
N243 C239 1.336 . S
N243 N242 1.354 . S
N243 Zn247 2.020 . S
C244 O245 1.244 . S
C244 O268 1.257 . S
O245 C244 1.244 . S
O246 Zn238 2.019 . S
O246 C266 1.257 . S
Zn247 N243 2.020 . S
Zn247 O254 1.975 . S
Zn247 N263 2.119 . S
Zn247 O268 2.019 . S
N248 Zn238 2.119 . S
N248 C250 1.334 . S
N248 C251 1.328 . S
C249 C250 1.391 . S
C249 N252 1.329 . S
C249 H270 0.930 . S
C250 N248 1.334 . S
C250 C249 1.391 . S
C250 H257 0.930 . S
C251 N248 1.328 . S
C251 C253 1.392 . S
C251 H258 0.930 . S
N252 C249 1.329 . S
N252 C253 1.331 . S
C253 C251 1.392 . S
C253 N252 1.331 . S
O254 Zn247 1.975 . S
O254 C255 1.252 . S
C255 O254 1.252 . S
C255 O256 1.252 . S
O256 Zn238 1.975 . S
O256 C255 1.252 . S
H257 C250 0.930 . S
H258 C251 0.930 . S
C259 C260 1.392 . S
C259 N263 1.328 . S
C259 H265 0.930 . S
C260 C259 1.392 . S
C260 N264 1.331 . S
C261 C262 1.391 . S
C261 N264 1.329 . S
C261 H271 0.930 . S
C262 C261 1.391 . S
C262 N263 1.334 . S
C262 H269 0.930 . S
N263 Zn247 2.119 . S
N263 C259 1.328 . S
N263 C262 1.334 . S
N264 C260 1.331 . S
N264 C261 1.329 . S
H265 C259 0.930 . S
C266 O246 1.257 . S
C266 O267 1.244 . S
O267 C266 1.244 . S
O268 C244 1.257 . S
O268 Zn247 2.019 . S
H269 C262 0.930 . S
H270 C249 0.930 . S
H271 C261 0.930 . S
H272 C280 0.929 . S
H273 C282 0.930 . S
H274 C284 0.930 . S
H275 C287 0.929 . S
H276 C290 0.930 . S
H277 C292 0.960 . S
H278 C292 0.960 . S
H279 C292 0.960 1_655 S
C280 H272 0.929 . S
C280 C281 1.392 . S
C280 C282 1.384 . S
C281 C280 1.392 . S
C281 C287 1.375 1_455 S
C282 H273 0.930 . S
C282 C280 1.384 . S
C282 C283 1.372 . S
C283 C282 1.372 . S
C283 C284 1.400 1_455 S
C283 C288 1.490 . S
C284 H274 0.930 . S
C284 C283 1.400 1_655 S
C284 C287 1.386 . S
H285 C301 0.930 . S
H286 C302 0.931 . S
C287 H275 0.929 . S
C287 C281 1.375 1_655 S
C287 C284 1.386 . S
C288 C283 1.490 . S
C288 C290 1.395 . S
C288 C291 1.403 . S
H289 C295 0.930 1_655 S
C290 H276 0.930 . S
C290 C288 1.395 . S
C290 C293 1.403 . S
C291 C288 1.403 . S
C291 C292 1.524 . S
C291 C295 1.400 . S
C292 H277 0.960 . S
C292 H278 0.960 . S
C292 H279 0.960 1_455 S
C292 C291 1.524 . S
C293 C290 1.403 . S
C293 C294 1.392 . S
C293 C297 1.495 . S
C294 C293 1.392 . S
C294 C295 1.385 . S
C294 C296 1.478 . S
C295 H289 0.930 1_455 S
C295 C291 1.400 . S
C295 C294 1.385 . S
C296 C294 1.478 . S
C296 C298 1.393 . S
C296 C302 1.371 1_455 S
C297 C293 1.495 . S
C297 H303 0.959 . S
C297 H304 0.961 1_455 S
C297 H305 0.960 . S
C298 C296 1.393 . S
C298 C299 1.394 . S
C298 H306 0.930 . S
C299 C298 1.394 . S
C299 C300 1.383 1_455 S
C299 H307 0.929 . S
C300 C299 1.383 1_655 S
C300 C301 1.377 . S
C301 H285 0.930 . S
C301 C300 1.377 . S
C301 C302 1.379 . S
C302 H286 0.931 . S
C302 C296 1.371 1_655 S
C302 C301 1.379 . S
H303 C297 0.959 . S
H304 C297 0.961 1_655 S
H305 C297 0.960 . S
H306 C298 0.930 . S
H307 C299 0.929 . S
H308 C316 0.929 . S
H309 C318 0.930 . S
H310 C320 0.930 . S
H311 C323 0.929 . S
H312 C326 0.930 . S
H313 C328 0.960 . S
H314 C328 0.960 . S
H315 C328 0.960 . S
C316 H308 0.929 . S
C316 C317 1.377 . S
C316 C318 1.384 . S
C317 C316 1.377 . S
C317 C323 1.390 . S
C318 H309 0.930 . S
C318 C316 1.384 . S
C318 C319 1.372 . S
C319 C318 1.372 . S
C319 C320 1.400 . S
C319 C324 1.490 . S
C320 H310 0.930 . S
C320 C319 1.400 . S
C320 C323 1.386 . S
H321 C337 0.930 . S
H322 C338 0.931 . S
C323 H311 0.929 . S
C323 C317 1.390 . S
C323 C320 1.386 . S
C324 C319 1.490 . S
C324 C326 1.395 . S
C324 C327 1.403 . S
H325 C331 0.930 . S
C326 H312 0.930 . S
C326 C324 1.395 . S
C326 C329 1.403 . S
C327 C324 1.403 . S
C327 C328 1.524 . S
C327 C331 1.400 . S
C328 H313 0.960 . S
C328 H314 0.960 . S
C328 H315 0.960 . S
C328 C327 1.524 . S
C329 C326 1.403 . S
C329 C330 1.392 . S
C329 C333 1.495 . S
C330 C329 1.392 . S
C330 C331 1.385 . S
C330 C332 1.478 . S
C331 H325 0.930 . S
C331 C327 1.400 . S
C331 C330 1.385 . S
C332 C330 1.478 . S
C332 C334 1.381 . S
C332 C338 1.383 . S
C333 C329 1.495 . S
C333 H339 0.959 . S
C333 H340 0.961 . S
C333 H341 0.960 . S
C334 C332 1.381 . S
C334 C335 1.394 . S
C334 H342 0.930 . S
C335 C334 1.394 . S
C335 C336 1.383 . S
C335 H343 0.929 . S
C336 C335 1.383 . S
C336 C337 1.377 . S
C337 H321 0.930 . S
C337 C336 1.377 . S
C337 C338 1.379 . S
C338 H322 0.931 . S
C338 C332 1.383 . S
C338 C337 1.379 . S
H339 C333 0.959 . S
H340 C333 0.961 . S
H341 C333 0.960 . S
H342 C334 0.930 . S
H343 C335 0.929 . S
H344 C352 0.929 . S
H345 C354 0.930 . S
H346 C356 0.930 . S
H347 C359 0.929 . S
H348 C362 0.930 . S
H349 C364 0.960 . S
H350 C364 0.960 . S
H351 C364 0.960 . S
C352 H344 0.929 . S
C352 C353 1.377 . S
C352 C354 1.384 . S
C353 C352 1.377 . S
C353 C359 1.390 . S
C354 H345 0.930 . S
C354 C352 1.384 . S
C354 C355 1.372 . S
C355 C354 1.372 . S
C355 C356 1.400 . S
C355 C360 1.490 . S
C356 H346 0.930 . S
C356 C355 1.400 . S
C356 C359 1.386 . S
H357 C373 0.930 . S
H358 C374 0.931 . S
C359 H347 0.929 . S
C359 C353 1.390 . S
C359 C356 1.386 . S
C360 C355 1.490 . S
C360 C362 1.395 . S
C360 C363 1.403 . S
H361 C367 0.930 . S
C362 H348 0.930 . S
C362 C360 1.395 . S
C362 C365 1.403 . S
C363 C360 1.403 . S
C363 C364 1.524 . S
C363 C367 1.400 . S
C364 H349 0.960 . S
C364 H350 0.960 . S
C364 H351 0.960 . S
C364 C363 1.524 . S
C365 C362 1.403 . S
C365 C366 1.392 . S
C365 C369 1.495 . S
C366 C365 1.392 . S
C366 C367 1.385 . S
C366 C368 1.478 . S
C367 H361 0.930 . S
C367 C363 1.400 . S
C367 C366 1.385 . S
C368 C366 1.478 . S
C368 C370 1.381 . S
C368 C374 1.383 . S
C369 C365 1.495 . S
C369 H375 0.959 . S
C369 H376 0.961 . S
C369 H377 0.960 . S
C370 C368 1.381 . S
C370 C371 1.394 . S
C370 H378 0.930 . S
C371 C370 1.394 . S
C371 C372 1.383 . S
C371 H379 0.929 . S
C372 C371 1.383 . S
C372 C373 1.377 . S
C373 H357 0.930 . S
C373 C372 1.377 . S
C373 C374 1.379 . S
C374 H358 0.931 . S
C374 C368 1.383 . S
C374 C373 1.379 . S
H375 C369 0.959 . S
H376 C369 0.961 . S
H377 C369 0.960 . S
H378 C370 0.930 . S
H379 C371 0.929 . S
H380 C388 0.929 . S
H381 C390 0.930 . S
H382 C392 0.930 . S
H383 C395 0.929 . S
H384 C398 0.930 . S
H385 C400 0.960 . S
H386 C400 0.960 . S
H387 C400 0.960 1_655 S
C388 H380 0.929 . S
C388 C389 1.391 . S
C388 C390 1.384 . S
C389 C388 1.391 . S
C389 C395 1.377 1_455 S
C390 H381 0.930 . S
C390 C388 1.384 . S
C390 C391 1.372 . S
C391 C390 1.372 . S
C391 C392 1.400 1_455 S
C391 C396 1.490 . S
C392 H382 0.930 . S
C392 C391 1.400 1_655 S
C392 C395 1.386 . S
H393 C409 0.930 . S
H394 C410 0.931 . S
C395 H383 0.929 . S
C395 C389 1.377 1_655 S
C395 C392 1.386 . S
C396 C391 1.490 . S
C396 C398 1.395 1_455 S
C396 C399 1.403 . S
H397 C403 0.930 . S
C398 H384 0.930 . S
C398 C396 1.395 1_655 S
C398 C401 1.403 . S
C399 C396 1.403 . S
C399 C400 1.524 . S
C399 C403 1.400 . S
C400 H385 0.960 . S
C400 H386 0.960 . S
C400 H387 0.960 1_455 S
C400 C399 1.524 . S
C401 C398 1.403 . S
C401 C402 1.394 . S
C401 C405 1.495 . S
C402 C401 1.394 . S
C402 C403 1.384 1_655 S
C402 C404 1.478 . S
C403 H397 0.930 . S
C403 C399 1.400 . S
C403 C402 1.384 1_455 S
C404 C402 1.478 . S
C404 C406 1.381 1_655 S
C404 C410 1.383 . S
C405 C401 1.495 . S
C405 H411 0.959 . S
C405 H412 0.961 . S
C405 H413 0.960 1_655 S
C406 C404 1.381 1_455 S
C406 C407 1.394 . S
C406 H414 0.930 . S
C407 C406 1.394 . S
C407 C408 1.383 1_455 S
C407 H415 0.929 . S
C408 C407 1.383 1_655 S
C408 C409 1.377 . S
C409 H393 0.930 . S
C409 C408 1.377 . S
C409 C410 1.379 . S
C410 H394 0.931 . S
C410 C404 1.383 . S
C410 C409 1.379 . S
H411 C405 0.959 . S
H412 C405 0.961 . S
H413 C405 0.960 1_455 S
H414 C406 0.930 . S
H415 C407 0.929 . S
H416 C424 0.929 . S
H417 C426 0.930 . S
H418 C428 0.930 . S
H419 C431 0.929 . S
H420 C434 0.930 . S
H421 C436 0.960 . S
H422 C436 0.960 . S
H423 C436 0.960 . S
C424 H416 0.929 . S
C424 C425 1.377 . S
C424 C426 1.384 . S
C425 C424 1.377 . S
C425 C431 1.390 . S
C426 H417 0.930 . S
C426 C424 1.384 . S
C426 C427 1.372 . S
C427 C426 1.372 . S
C427 C428 1.400 . S
C427 C432 1.490 . S
C428 H418 0.930 . S
C428 C427 1.400 . S
C428 C431 1.386 . S
H429 C445 0.930 . S
H430 C446 0.931 . S
C431 H419 0.929 . S
C431 C425 1.390 . S
C431 C428 1.386 . S
C432 C427 1.490 . S
C432 C434 1.395 1_655 S
C432 C435 1.403 . S
H433 C439 0.930 . S
C434 H420 0.930 . S
C434 C432 1.395 1_455 S
C434 C437 1.403 1_556 S
C435 C432 1.403 . S
C435 C436 1.524 . S
C435 C439 1.400 1_556 S
C436 H421 0.960 . S
C436 H422 0.960 . S
C436 H423 0.960 . S
C436 C435 1.524 . S
C437 C434 1.403 1_554 S
C437 C438 1.392 1_455 S
C437 C441 1.495 . S
C438 C437 1.392 1_655 S
C438 C439 1.385 . S
C438 C440 1.478 . S
C439 H433 0.930 . S
C439 C435 1.400 1_554 S
C439 C438 1.385 . S
C440 C438 1.478 . S
C440 C442 1.381 . S
C440 C446 1.383 . S
C441 C437 1.495 . S
C441 H447 0.959 . S
C441 H448 0.961 . S
C441 H449 0.960 . S
C442 C440 1.381 . S
C442 C443 1.394 . S
C442 H450 0.930 . S
C443 C442 1.394 . S
C443 C444 1.383 . S
C443 H451 0.929 . S
C444 C443 1.383 . S
C444 C445 1.377 . S
C445 H429 0.930 . S
C445 C444 1.377 . S
C445 C446 1.379 . S
C446 H430 0.931 . S
C446 C440 1.383 . S
C446 C445 1.379 . S
H447 C441 0.959 . S
H448 C441 0.961 . S
H449 C441 0.960 . S
H450 C442 0.930 . S
H451 C443 0.929 . S
H452 C460 0.929 . S
H453 C462 0.930 . S
H454 C464 0.930 . S
H455 C467 0.929 . S
H456 C470 0.930 . S
H457 C472 0.960 . S
H458 C472 0.960 . S
H459 C472 0.960 . S
C460 H452 0.929 . S
C460 C461 1.377 . S
C460 C462 1.384 . S
C461 C460 1.377 . S
C461 C467 1.390 . S
C462 H453 0.930 . S
C462 C460 1.384 . S
C462 C463 1.372 . S
C463 C462 1.372 . S
C463 C464 1.400 . S
C463 C468 1.490 . S
C464 H454 0.930 . S
C464 C463 1.400 . S
C464 C467 1.386 . S
H465 C481 0.930 . S
H466 C482 0.931 . S
C467 H455 0.929 . S
C467 C461 1.390 . S
C467 C464 1.386 . S
C468 C463 1.490 . S
C468 C470 1.395 . S
C468 C471 1.403 . S
H469 C475 0.930 . S
C470 H456 0.930 . S
C470 C468 1.395 . S
C470 C473 1.403 . S
C471 C468 1.403 . S
C471 C472 1.524 . S
C471 C475 1.400 . S
C472 H457 0.960 . S
C472 H458 0.960 . S
C472 H459 0.960 . S
C472 C471 1.524 . S
C473 C470 1.403 . S
C473 C474 1.392 . S
C473 C477 1.495 . S
C474 C473 1.392 . S
C474 C475 1.385 . S
C474 C476 1.478 . S
C475 H469 0.930 . S
C475 C471 1.400 . S
C475 C474 1.385 . S
C476 C474 1.478 . S
C476 C478 1.381 . S
C476 C482 1.383 . S
C477 C473 1.495 . S
C477 H483 0.959 . S
C477 H484 0.961 . S
C477 H485 0.960 . S
C478 C476 1.381 . S
C478 C479 1.394 . S
C478 H486 0.930 . S
C479 C478 1.394 . S
C479 C480 1.383 . S
C479 H487 0.929 . S
C480 C479 1.383 . S
C480 C481 1.377 . S
C481 H465 0.930 . S
C481 C480 1.377 . S
C481 C482 1.379 . S
C482 H466 0.931 . S
C482 C476 1.383 . S
C482 C481 1.379 . S
H483 C477 0.959 . S
H484 C477 0.961 . S
H485 C477 0.960 . S
H486 C478 0.930 . S
H487 C479 0.929 . S
H488 C496 0.929 . S
H489 C498 0.930 . S
H490 C500 0.930 . S
H491 C503 0.929 . S
H492 C506 0.930 . S
H493 C508 0.960 . S
H494 C508 0.960 . S
H495 C508 0.960 . S
C496 H488 0.929 . S
C496 C497 1.377 . S
C496 C498 1.384 . S
C497 C496 1.377 . S
C497 C503 1.390 . S
C498 H489 0.930 . S
C498 C496 1.384 . S
C498 C499 1.372 . S
C499 C498 1.372 . S
C499 C500 1.400 . S
C499 C504 1.490 . S
C500 H490 0.930 . S
C500 C499 1.400 . S
C500 C503 1.386 . S
H501 C517 0.930 . S
H502 C518 0.931 . S
C503 H491 0.929 . S
C503 C497 1.390 . S
C503 C500 1.386 . S
C504 C499 1.490 . S
C504 C506 1.395 . S
C504 C507 1.403 . S
H505 C511 0.930 . S
C506 H492 0.930 . S
C506 C504 1.395 . S
C506 C509 1.403 . S
C507 C504 1.403 . S
C507 C508 1.524 . S
C507 C511 1.400 . S
C508 H493 0.960 . S
C508 H494 0.960 . S
C508 H495 0.960 . S
C508 C507 1.524 . S
C509 C506 1.403 . S
C509 C510 1.392 . S
C509 C513 1.495 . S
C510 C509 1.392 . S
C510 C511 1.385 . S
C510 C512 1.478 . S
C511 H505 0.930 . S
C511 C507 1.400 . S
C511 C510 1.385 . S
C512 C510 1.478 . S
C512 C514 1.381 . S
C512 C518 1.383 . S
C513 C509 1.495 . S
C513 H519 0.959 . S
C513 H520 0.961 . S
C513 H521 0.960 . S
C514 C512 1.381 . S
C514 C515 1.394 . S
C514 H522 0.930 . S
C515 C514 1.394 . S
C515 C516 1.383 . S
C515 H523 0.929 . S
C516 C515 1.383 . S
C516 C517 1.377 . S
C517 H501 0.930 . S
C517 C516 1.377 . S
C517 C518 1.379 . S
C518 H502 0.931 . S
C518 C512 1.383 . S
C518 C517 1.379 . S
H519 C513 0.959 . S
H520 C513 0.961 . S
H521 C513 0.960 . S
H522 C514 0.930 . S
H523 C515 0.929 . S
H524 C532 0.929 . S
H525 C534 0.930 . S
H526 C536 0.930 . S
H527 C539 0.929 . S
H528 C542 0.930 . S
H529 C544 0.960 . S
H530 C544 0.960 . S
H531 C544 0.960 . S
C532 H524 0.929 . S
C532 C533 1.377 . S
C532 C534 1.384 . S
C533 C532 1.377 . S
C533 C539 1.390 . S
C534 H525 0.930 . S
C534 C532 1.384 . S
C534 C535 1.372 . S
C535 C534 1.372 . S
C535 C536 1.400 . S
C535 C540 1.490 . S
C536 H526 0.930 . S
C536 C535 1.400 . S
C536 C539 1.386 . S
H537 C553 0.930 . S
H538 C554 0.931 . S
C539 H527 0.929 . S
C539 C533 1.390 . S
C539 C536 1.386 . S
C540 C535 1.490 . S
C540 C542 1.395 . S
C540 C543 1.403 . S
H541 C547 0.930 . S
C542 H528 0.930 . S
C542 C540 1.395 . S
C542 C545 1.403 . S
C543 C540 1.403 . S
C543 C544 1.524 . S
C543 C547 1.400 . S
C544 H529 0.960 . S
C544 H530 0.960 . S
C544 H531 0.960 . S
C544 C543 1.524 . S
C545 C542 1.403 . S
C545 C546 1.392 . S
C545 C549 1.495 . S
C546 C545 1.392 . S
C546 C547 1.385 . S
C546 C548 1.478 . S
C547 H541 0.930 . S
C547 C543 1.400 . S
C547 C546 1.385 . S
C548 C546 1.478 . S
C548 C550 1.381 . S
C548 C554 1.383 . S
C549 C545 1.495 . S
C549 H555 0.959 . S
C549 H556 0.961 . S
C549 H557 0.960 . S
C550 C548 1.381 . S
C550 C551 1.394 . S
C550 H558 0.930 . S
C551 C550 1.394 . S
C551 C552 1.383 . S
C551 H559 0.929 . S
C552 C551 1.383 . S
C552 C553 1.377 . S
C553 H537 0.930 . S
C553 C552 1.377 . S
C553 C554 1.379 . S
C554 H538 0.931 . S
C554 C548 1.383 . S
C554 C553 1.379 . S
H555 C549 0.959 . S
H556 C549 0.961 . S
H557 C549 0.960 . S
H558 C550 0.930 . S
H559 C551 0.929 . S
H560 C568 0.929 . S
H561 C570 0.930 . S
H562 C572 0.930 . S
H563 C575 0.929 . S
H564 C578 0.930 . S
H565 C580 0.960 . S
H566 C580 0.960 . S
H567 C580 0.960 . S
C568 H560 0.929 . S
C568 C569 1.377 . S
C568 C570 1.384 . S
C569 C568 1.377 . S
C569 C575 1.390 . S
C570 H561 0.930 . S
C570 C568 1.384 . S
C570 C571 1.372 . S
C571 C570 1.372 . S
C571 C572 1.400 . S
C571 C576 1.490 . S
C572 H562 0.930 . S
C572 C571 1.400 . S
C572 C575 1.386 . S
H573 C589 0.930 . S
H574 C590 0.931 . S
C575 H563 0.929 . S
C575 C569 1.390 . S
C575 C572 1.386 . S
C576 C571 1.490 . S
C576 C578 1.395 . S
C576 C579 1.403 . S
H577 C583 0.930 . S
C578 H564 0.930 . S
C578 C576 1.395 . S
C578 C581 1.403 . S
C579 C576 1.403 . S
C579 C580 1.524 . S
C579 C583 1.400 . S
C580 H565 0.960 . S
C580 H566 0.960 . S
C580 H567 0.960 . S
C580 C579 1.524 . S
C581 C578 1.403 . S
C581 C582 1.392 . S
C581 C585 1.495 . S
C582 C581 1.392 . S
C582 C583 1.385 . S
C582 C584 1.478 . S
C583 H577 0.930 . S
C583 C579 1.400 . S
C583 C582 1.385 . S
C584 C582 1.478 . S
C584 C586 1.381 . S
C584 C590 1.383 . S
C585 C581 1.495 . S
C585 H591 0.959 . S
C585 H592 0.961 . S
C585 H593 0.960 . S
C586 C584 1.381 . S
C586 C587 1.394 . S
C586 H594 0.930 . S
C587 C586 1.394 . S
C587 C588 1.383 . S
C587 H595 0.929 . S
C588 C587 1.383 . S
C588 C589 1.377 . S
C589 H573 0.930 . S
C589 C588 1.377 . S
C589 C590 1.379 . S
C590 H574 0.931 . S
C590 C584 1.383 . S
C590 C589 1.379 . S
H591 C585 0.959 . S
H592 C585 0.961 . S
H593 C585 0.960 . S
H594 C586 0.930 . S
H595 C587 0.929 . S
H596 C604 0.929 . S
H597 C606 0.930 . S
H598 C608 0.930 . S
H599 C611 0.929 . S
H600 C614 0.930 . S
H601 C616 0.960 . S
H602 C616 0.960 . S
H603 C616 0.960 . S
C604 H596 0.929 . S
C604 C605 1.377 . S
C604 C606 1.384 . S
C605 C604 1.377 . S
C605 C611 1.390 . S
C606 H597 0.930 . S
C606 C604 1.384 . S
C606 C607 1.372 . S
C607 C606 1.372 . S
C607 C608 1.400 . S
C607 C612 1.490 . S
C608 H598 0.930 . S
C608 C607 1.400 . S
C608 C611 1.386 . S
H609 C625 0.930 . S
H610 C626 0.931 . S
C611 H599 0.929 . S
C611 C605 1.390 . S
C611 C608 1.386 . S
C612 C607 1.490 . S
C612 C614 1.395 . S
C612 C615 1.403 . S
H613 C619 0.930 . S
C614 H600 0.930 . S
C614 C612 1.395 . S
C614 C617 1.403 . S
C615 C612 1.403 . S
C615 C616 1.524 . S
C615 C619 1.400 . S
C616 H601 0.960 . S
C616 H602 0.960 . S
C616 H603 0.960 . S
C616 C615 1.524 . S
C617 C614 1.403 . S
C617 C618 1.392 . S
C617 C621 1.495 . S
C618 C617 1.392 . S
C618 C619 1.385 . S
C618 C620 1.478 . S
C619 H613 0.930 . S
C619 C615 1.400 . S
C619 C618 1.385 . S
C620 C618 1.478 . S
C620 C622 1.381 . S
C620 C626 1.383 . S
C621 C617 1.495 . S
C621 H627 0.959 . S
C621 H628 0.961 . S
C621 H629 0.960 . S
C622 C620 1.381 . S
C622 C623 1.394 . S
C622 H630 0.930 . S
C623 C622 1.394 . S
C623 C624 1.383 . S
C623 H631 0.929 . S
C624 C623 1.383 . S
C624 C625 1.377 . S
C625 H609 0.930 . S
C625 C624 1.377 . S
C625 C626 1.379 . S
C626 H610 0.931 . S
C626 C620 1.383 . S
C626 C625 1.379 . S
H627 C621 0.959 . S
H628 C621 0.961 . S
H629 C621 0.960 . S
H630 C622 0.930 . S
H631 C623 0.929 . S
H632 C640 0.929 . S
H633 C642 0.930 . S
H634 C644 0.930 . S
H635 C647 0.929 . S
H636 C650 0.930 . S
H637 C652 0.960 . S
H638 C652 0.960 . S
H639 C652 0.960 . S
C640 H632 0.929 . S
C640 C641 1.377 . S
C640 C642 1.384 . S
C641 C640 1.377 . S
C641 C647 1.390 . S
C642 H633 0.930 . S
C642 C640 1.384 . S
C642 C643 1.372 . S
C643 C642 1.372 . S
C643 C644 1.400 . S
C643 C648 1.490 . S
C644 H634 0.930 . S
C644 C643 1.400 . S
C644 C647 1.386 . S
H645 C661 0.930 . S
H646 C662 0.931 . S
C647 H635 0.929 . S
C647 C641 1.390 . S
C647 C644 1.386 . S
C648 C643 1.490 . S
C648 C650 1.395 . S
C648 C651 1.403 1_545 S
H649 C655 0.930 . S
C650 H636 0.930 . S
C650 C648 1.395 . S
C650 C653 1.403 . S
C651 C648 1.403 1_565 S
C651 C652 1.524 . S
C651 C655 1.400 . S
C652 H637 0.960 . S
C652 H638 0.960 . S
C652 H639 0.960 . S
C652 C651 1.524 . S
C653 C650 1.403 . S
C653 C654 1.392 1_545 S
C653 C657 1.495 . S
C654 C653 1.392 1_565 S
C654 C655 1.385 . S
C654 C656 1.478 . S
C655 H649 0.930 . S
C655 C651 1.400 . S
C655 C654 1.385 . S
C656 C654 1.478 . S
C656 C658 1.381 . S
C656 C662 1.383 . S
C657 C653 1.495 . S
C657 H663 0.959 . S
C657 H664 0.961 . S
C657 H665 0.960 . S
C658 C656 1.381 . S
C658 C659 1.394 . S
C658 H666 0.930 . S
C659 C658 1.394 . S
C659 C660 1.383 . S
C659 H667 0.929 . S
C660 C659 1.383 . S
C660 C661 1.377 . S
C661 H645 0.930 . S
C661 C660 1.377 . S
C661 C662 1.379 . S
C662 H646 0.931 . S
C662 C656 1.383 . S
C662 C661 1.379 . S
H663 C657 0.959 . S
H664 C657 0.961 . S
H665 C657 0.960 . S
H666 C658 0.930 . S
H667 C659 0.929 . S
H668 C676 0.929 . S
H669 C678 0.930 . S
H670 C680 0.930 . S
H671 C683 0.929 . S
H672 C686 0.930 . S
H673 C688 0.960 . S
H674 C688 0.960 1_655 S
H675 C688 0.960 . S
C676 H668 0.929 . S
C676 C677 1.377 1_655 S
C676 C678 1.384 . S
C677 C676 1.377 1_455 S
C677 C683 1.390 . S
C678 H669 0.930 . S
C678 C676 1.384 . S
C678 C679 1.372 1_655 S
C679 C678 1.372 1_455 S
C679 C680 1.400 . S
C679 C684 1.490 . S
C680 H670 0.930 . S
C680 C679 1.400 . S
C680 C683 1.386 . S
H681 C697 0.930 . S
H682 C698 0.931 . S
C683 H671 0.929 . S
C683 C677 1.390 . S
C683 C680 1.386 . S
C684 C679 1.490 . S
C684 C686 1.395 1_565 S
C684 C687 1.403 1_554 S
H685 C691 0.930 . S
C686 H672 0.930 . S
C686 C684 1.395 1_545 S
C686 C689 1.403 . S
C687 C684 1.403 1_556 S
C687 C688 1.524 . S
C687 C691 1.400 . S
C688 H673 0.960 . S
C688 H674 0.960 1_455 S
C688 H675 0.960 . S
C688 C687 1.524 . S
C689 C686 1.403 . S
C689 C690 1.392 1_554 S
C689 C693 1.495 . S
C690 C689 1.392 1_556 S
C690 C691 1.385 1_545 S
C690 C692 1.478 . S
C691 H685 0.930 . S
C691 C687 1.400 . S
C691 C690 1.385 1_565 S
C692 C690 1.478 . S
C692 C694 1.381 1_455 S
C692 C698 1.383 . S
C693 C689 1.495 . S
C693 H699 0.959 . S
C693 H700 0.961 . S
C693 H701 0.960 . S
C694 C692 1.381 1_655 S
C694 C695 1.394 . S
C694 H702 0.930 . S
C695 C694 1.394 . S
C695 C696 1.383 1_655 S
C695 H703 0.929 . S
C696 C695 1.383 1_455 S
C696 C697 1.377 . S
C697 H681 0.930 . S
C697 C696 1.377 . S
C697 C698 1.379 . S
C698 H682 0.931 . S
C698 C692 1.383 . S
C698 C697 1.379 . S
H699 C693 0.959 . S
H700 C693 0.961 . S
H701 C693 0.960 . S
H702 C694 0.930 . S
H703 C695 0.929 . S
H704 C712 0.929 . S
H705 C714 0.930 . S
H706 C716 0.930 . S
H707 C719 0.929 . S
H708 C722 0.930 . S
H709 C724 0.960 . S
H710 C724 0.960 . S
H711 C724 0.960 . S
C712 H704 0.929 . S
C712 C713 1.377 . S
C712 C714 1.384 . S
C713 C712 1.377 . S
C713 C719 1.390 . S
C714 H705 0.930 . S
C714 C712 1.384 . S
C714 C715 1.372 . S
C715 C714 1.372 . S
C715 C716 1.400 . S
C715 C720 1.490 . S
C716 H706 0.930 . S
C716 C715 1.400 . S
C716 C719 1.386 . S
H717 C733 0.930 . S
H718 C734 0.931 . S
C719 H707 0.929 . S
C719 C713 1.390 . S
C719 C716 1.386 . S
C720 C715 1.490 . S
C720 C722 1.395 . S
C720 C723 1.403 . S
H721 C727 0.930 . S
C722 H708 0.930 . S
C722 C720 1.395 . S
C722 C725 1.403 . S
C723 C720 1.403 . S
C723 C724 1.524 . S
C723 C727 1.400 . S
C724 H709 0.960 . S
C724 H710 0.960 . S
C724 H711 0.960 . S
C724 C723 1.524 . S
C725 C722 1.403 . S
C725 C726 1.392 . S
C725 C729 1.495 . S
C726 C725 1.392 . S
C726 C727 1.385 . S
C726 C728 1.478 . S
C727 H721 0.930 . S
C727 C723 1.400 . S
C727 C726 1.385 . S
C728 C726 1.478 . S
C728 C730 1.381 . S
C728 C734 1.383 . S
C729 C725 1.495 . S
C729 H735 0.959 . S
C729 H736 0.961 . S
C729 H737 0.960 . S
C730 C728 1.381 . S
C730 C731 1.394 . S
C730 H738 0.930 . S
C731 C730 1.394 . S
C731 C732 1.383 . S
C731 H739 0.929 . S
C732 C731 1.383 . S
C732 C733 1.377 . S
C733 H717 0.930 . S
C733 C732 1.377 . S
C733 C734 1.379 . S
C734 H718 0.931 . S
C734 C728 1.383 . S
C734 C733 1.379 . S
H735 C729 0.959 . S
H736 C729 0.961 . S
H737 C729 0.960 . S
H738 C730 0.930 . S
H739 C731 0.929 . S
H740 C748 0.929 . S
H741 C750 0.930 . S
H742 C752 0.930 . S
H743 C755 0.929 . S
H744 C758 0.930 . S
H745 C760 0.960 . S
H746 C760 0.960 . S
H747 C760 0.960 . S
C748 H740 0.929 . S
C748 C749 1.377 . S
C748 C750 1.384 . S
C749 C748 1.377 . S
C749 C755 1.390 . S
C750 H741 0.930 . S
C750 C748 1.384 . S
C750 C751 1.372 . S
C751 C750 1.372 . S
C751 C752 1.400 . S
C751 C756 1.490 . S
C752 H742 0.930 . S
C752 C751 1.400 . S
C752 C755 1.386 . S
H753 C769 0.930 . S
H754 C770 0.931 . S
C755 H743 0.929 . S
C755 C749 1.390 . S
C755 C752 1.386 . S
C756 C751 1.490 . S
C756 C758 1.395 . S
C756 C759 1.403 . S
H757 C763 0.930 . S
C758 H744 0.930 . S
C758 C756 1.395 . S
C758 C761 1.403 . S
C759 C756 1.403 . S
C759 C760 1.524 . S
C759 C763 1.400 . S
C760 H745 0.960 . S
C760 H746 0.960 . S
C760 H747 0.960 . S
C760 C759 1.524 . S
C761 C758 1.403 . S
C761 C762 1.392 . S
C761 C765 1.495 . S
C762 C761 1.392 . S
C762 C763 1.385 . S
C762 C764 1.478 . S
C763 H757 0.930 . S
C763 C759 1.400 . S
C763 C762 1.385 . S
C764 C762 1.478 . S
C764 C766 1.381 . S
C764 C770 1.383 . S
C765 C761 1.495 . S
C765 H771 0.959 . S
C765 H772 0.961 . S
C765 H773 0.960 . S
C766 C764 1.381 . S
C766 C767 1.394 . S
C766 H774 0.930 . S
C767 C766 1.394 . S
C767 C768 1.383 . S
C767 H775 0.929 . S
C768 C767 1.383 . S
C768 C769 1.377 . S
C769 H753 0.930 . S
C769 C768 1.377 . S
C769 C770 1.379 . S
C770 H754 0.931 . S
C770 C764 1.383 . S
C770 C769 1.379 . S
H771 C765 0.959 . S
H772 C765 0.961 . S
H773 C765 0.960 . S
H774 C766 0.930 . S
H775 C767 0.929 . S
H776 C784 0.929 . S
H777 C786 0.930 . S
H778 C788 0.930 . S
H779 C791 0.929 . S
H780 C794 0.930 . S
H781 C796 0.960 1_455 S
H782 C796 0.960 . S
H783 C796 0.960 . S
C784 H776 0.929 . S
C784 C785 1.377 . S
C784 C786 1.384 . S
C785 C784 1.377 . S
C785 C791 1.390 . S
C786 H777 0.930 . S
C786 C784 1.384 . S
C786 C787 1.372 . S
C787 C786 1.372 . S
C787 C788 1.400 . S
C787 C792 1.490 . S
C788 H778 0.930 . S
C788 C787 1.400 . S
C788 C791 1.386 . S
H789 C805 0.930 . S
H790 C806 0.931 . S
C791 H779 0.929 . S
C791 C785 1.390 . S
C791 C788 1.386 . S
C792 C787 1.490 . S
C792 C794 1.395 . S
C792 C795 1.403 . S
H793 C799 0.930 . S
C794 H780 0.930 . S
C794 C792 1.395 . S
C794 C797 1.403 1_655 S
C795 C792 1.403 . S
C795 C796 1.524 . S
C795 C799 1.400 1_655 S
C796 H781 0.960 1_655 S
C796 H782 0.960 . S
C796 H783 0.960 . S
C796 C795 1.524 . S
C797 C794 1.403 1_455 S
C797 C798 1.392 . S
C797 C801 1.495 . S
C798 C797 1.392 . S
C798 C799 1.385 . S
C798 C800 1.478 . S
C799 H793 0.930 . S
C799 C795 1.400 1_455 S
C799 C798 1.385 . S
C800 C798 1.478 . S
C800 C802 1.381 . S
C800 C806 1.383 . S
C801 C797 1.495 . S
C801 H807 0.959 1_455 S
C801 H808 0.961 . S
C801 H809 0.960 . S
C802 C800 1.381 . S
C802 C803 1.394 . S
C802 H810 0.930 . S
C803 C802 1.394 . S
C803 C804 1.383 . S
C803 H811 0.929 . S
C804 C803 1.383 . S
C804 C805 1.377 . S
C805 H789 0.930 . S
C805 C804 1.377 . S
C805 C806 1.379 . S
C806 H790 0.931 . S
C806 C800 1.383 . S
C806 C805 1.379 . S
H807 C801 0.959 1_655 S
H808 C801 0.961 . S
H809 C801 0.960 . S
H810 C802 0.930 . S
H811 C803 0.929 . S
H812 C820 0.929 . S
H813 C822 0.930 . S
H814 C824 0.930 . S
H815 C827 0.929 . S
H816 C830 0.930 . S
H817 C832 0.960 . S
H818 C832 0.960 . S
H819 C832 0.960 . S
C820 H812 0.929 . S
C820 C821 1.377 . S
C820 C822 1.384 . S
C821 C820 1.377 . S
C821 C827 1.390 . S
C822 H813 0.930 . S
C822 C820 1.384 . S
C822 C823 1.372 . S
C823 C822 1.372 . S
C823 C824 1.400 . S
C823 C828 1.490 . S
C824 H814 0.930 . S
C824 C823 1.400 . S
C824 C827 1.386 . S
H825 C841 0.930 . S
H826 C842 0.931 . S
C827 H815 0.929 . S
C827 C821 1.390 . S
C827 C824 1.386 . S
C828 C823 1.490 . S
C828 C830 1.395 . S
C828 C831 1.403 1_455 S
H829 C835 0.930 . S
C830 H816 0.930 . S
C830 C828 1.395 . S
C830 C833 1.403 . S
C831 C828 1.403 1_655 S
C831 C832 1.524 . S
C831 C835 1.400 . S
C832 H817 0.960 . S
C832 H818 0.960 . S
C832 H819 0.960 . S
C832 C831 1.524 . S
C833 C830 1.403 . S
C833 C834 1.392 1_455 S
C833 C837 1.495 . S
C834 C833 1.392 1_655 S
C834 C835 1.385 . S
C834 C836 1.478 . S
C835 H829 0.930 . S
C835 C831 1.400 . S
C835 C834 1.385 . S
C836 C834 1.478 . S
C836 C838 1.381 . S
C836 C842 1.383 . S
C837 C833 1.495 . S
C837 H843 0.959 . S
C837 H844 0.961 . S
C837 H845 0.960 . S
C838 C836 1.381 . S
C838 C839 1.394 . S
C838 H846 0.930 . S
C839 C838 1.394 . S
C839 C840 1.383 . S
C839 H847 0.929 . S
C840 C839 1.383 . S
C840 C841 1.377 . S
C841 H825 0.930 . S
C841 C840 1.377 . S
C841 C842 1.379 . S
C842 H826 0.931 . S
C842 C836 1.383 . S
C842 C841 1.379 . S
H843 C837 0.959 . S
H844 C837 0.961 . S
H845 C837 0.960 . S
H846 C838 0.930 . S
H847 C839 0.929 . S
H848 C856 0.929 . S
H849 C858 0.930 . S
H850 C860 0.930 . S
H851 C863 0.929 . S
H852 C866 0.930 . S
H853 C868 0.960 . S
H854 C868 0.960 . S
H855 C868 0.960 . S
C856 H848 0.929 . S
C856 C857 1.377 . S
C856 C858 1.384 . S
C857 C856 1.377 . S
C857 C863 1.390 . S
C858 H849 0.930 . S
C858 C856 1.384 . S
C858 C859 1.372 . S
C859 C858 1.372 . S
C859 C860 1.400 . S
C859 C864 1.490 . S
C860 H850 0.930 . S
C860 C859 1.400 . S
C860 C863 1.386 . S
H861 C877 0.930 . S
H862 C878 0.931 . S
C863 H851 0.929 . S
C863 C857 1.390 . S
C863 C860 1.386 . S
C864 C859 1.490 . S
C864 C866 1.395 . S
C864 C867 1.403 . S
H865 C871 0.930 . S
C866 H852 0.930 . S
C866 C864 1.395 . S
C866 C869 1.403 . S
C867 C864 1.403 . S
C867 C868 1.524 . S
C867 C871 1.400 . S
C868 H853 0.960 . S
C868 H854 0.960 . S
C868 H855 0.960 . S
C868 C867 1.524 . S
C869 C866 1.403 . S
C869 C870 1.392 . S
C869 C873 1.495 . S
C870 C869 1.392 . S
C870 C871 1.385 . S
C870 C872 1.478 . S
C871 H865 0.930 . S
C871 C867 1.400 . S
C871 C870 1.385 . S
C872 C870 1.478 . S
C872 C874 1.381 . S
C872 C878 1.383 . S
C873 C869 1.495 . S
C873 H879 0.959 . S
C873 H880 0.961 . S
C873 H881 0.960 . S
C874 C872 1.381 . S
C874 C875 1.394 . S
C874 H882 0.930 . S
C875 C874 1.394 . S
C875 C876 1.383 . S
C875 H883 0.929 . S
C876 C875 1.383 . S
C876 C877 1.377 . S
C877 H861 0.930 . S
C877 C876 1.377 . S
C877 C878 1.379 . S
C878 H862 0.931 . S
C878 C872 1.383 . S
C878 C877 1.379 . S
H879 C873 0.959 . S
H880 C873 0.961 . S
H881 C873 0.960 . S
H882 C874 0.930 . S
H883 C875 0.929 . S
H884 C892 0.929 . S
H885 C894 0.930 . S
H886 C896 0.939 . S
H887 C899 0.929 1_655 S
H888 C902 0.930 . S
H889 C904 0.960 . S
H890 C904 0.960 . S
H891 C904 0.960 . S
C892 H884 0.929 . S
C892 C893 1.377 . S
C892 C894 1.384 . S
C893 C892 1.377 . S
C893 C899 1.390 . S
C894 H885 0.930 . S
C894 C892 1.384 . S
C894 C895 1.372 . S
C895 C894 1.372 . S
C895 C896 1.394 1_455 S
C895 C900 1.490 . S
C896 H886 0.939 . S
C896 C895 1.394 1_655 S
C896 C899 1.383 1_655 S
H897 C913 0.930 . S
H898 C914 0.931 . S
C899 H887 0.929 1_455 S
C899 C893 1.390 . S
C899 C896 1.383 1_455 S
C900 C895 1.490 . S
C900 C902 1.395 . S
C900 C903 1.403 1_455 S
H901 C907 0.930 . S
C902 H888 0.930 . S
C902 C900 1.395 . S
C902 C905 1.403 . S
C903 C900 1.403 1_655 S
C903 C904 1.524 . S
C903 C907 1.400 . S
C904 H889 0.960 . S
C904 H890 0.960 . S
C904 H891 0.960 . S
C904 C903 1.524 . S
C905 C902 1.403 . S
C905 C906 1.392 1_455 S
C905 C909 1.495 . S
C906 C905 1.392 1_655 S
C906 C907 1.385 . S
C906 C908 1.478 . S
C907 H901 0.930 . S
C907 C903 1.400 . S
C907 C906 1.385 . S
C908 C906 1.478 . S
C908 C910 1.381 1_655 S
C908 C914 1.383 . S
C909 C905 1.495 . S
C909 H915 0.959 . S
C909 H916 0.961 . S
C909 H917 0.960 . S
C910 C908 1.381 1_455 S
C910 C911 1.394 1_455 S
C910 H918 0.930 . S
C911 C910 1.394 1_655 S
C911 C912 1.383 . S
C911 H919 0.929 1_655 S
C912 C911 1.383 . S
C912 C913 1.377 . S
C913 H897 0.930 . S
C913 C912 1.377 . S
C913 C914 1.379 . S
C914 H898 0.931 . S
C914 C908 1.383 . S
C914 C913 1.379 . S
H915 C909 0.959 . S
H916 C909 0.961 . S
H917 C909 0.960 . S
H918 C910 0.930 . S
H919 C911 0.929 1_455 S
H920 C928 0.929 . S
H921 C930 0.930 . S
H922 C932 0.930 . S
H923 C935 0.929 . S
H924 C938 0.930 . S
H925 C940 0.960 . S
H926 C940 0.960 . S
H927 C940 0.960 . S
C928 H920 0.929 . S
C928 C929 1.377 . S
C928 C930 1.384 . S
C929 C928 1.377 . S
C929 C935 1.390 . S
C930 H921 0.930 . S
C930 C928 1.384 . S
C930 C931 1.372 . S
C931 C930 1.372 . S
C931 C932 1.400 . S
C931 C936 1.490 . S
C932 H922 0.930 . S
C932 C931 1.400 . S
C932 C935 1.386 . S
H933 C949 0.930 . S
H934 C950 0.931 . S
C935 H923 0.929 . S
C935 C929 1.390 . S
C935 C932 1.386 . S
C936 C931 1.490 . S
C936 C938 1.395 . S
C936 C939 1.403 . S
H937 C943 0.930 . S
C938 H924 0.930 . S
C938 C936 1.395 . S
C938 C941 1.403 1_455 S
C939 C936 1.403 . S
C939 C940 1.524 . S
C939 C943 1.400 1_455 S
C940 H925 0.960 . S
C940 H926 0.960 . S
C940 H927 0.960 . S
C940 C939 1.524 . S
C941 C938 1.403 1_655 S
C941 C942 1.392 . S
C941 C945 1.495 . S
C942 C941 1.392 . S
C942 C943 1.385 . S
C942 C944 1.478 . S
C943 H937 0.930 . S
C943 C939 1.400 1_655 S
C943 C942 1.385 . S
C944 C942 1.478 . S
C944 C946 1.381 . S
C944 C950 1.383 . S
C945 C941 1.495 . S
C945 H951 0.959 . S
C945 H952 0.961 . S
C945 H953 0.960 . S
C946 C944 1.381 . S
C946 C947 1.394 . S
C946 H954 0.930 . S
C947 C946 1.394 . S
C947 C948 1.383 . S
C947 H955 0.929 . S
C948 C947 1.383 . S
C948 C949 1.377 . S
C949 H933 0.930 . S
C949 C948 1.377 . S
C949 C950 1.379 . S
C950 H934 0.931 . S
C950 C944 1.383 . S
C950 C949 1.379 . S
H951 C945 0.959 . S
H952 C945 0.961 . S
H953 C945 0.960 . S
H954 C946 0.930 . S
H955 C947 0.929 . S
H956 C964 0.929 . S
H957 C966 0.930 . S
H958 C968 0.930 . S
H959 C971 0.929 . S
H960 C974 0.930 . S
H961 C976 0.960 . S
H962 C976 0.960 . S
H963 C976 0.960 . S
C964 H956 0.929 . S
C964 C965 1.377 . S
C964 C966 1.384 . S
C965 C964 1.377 . S
C965 C971 1.390 . S
C966 H957 0.930 . S
C966 C964 1.384 . S
C966 C967 1.372 . S
C967 C966 1.372 . S
C967 C968 1.400 . S
C967 C972 1.490 . S
C968 H958 0.930 . S
C968 C967 1.400 . S
C968 C971 1.386 . S
H969 C985 0.930 . S
H970 C986 0.931 . S
C971 H959 0.929 . S
C971 C965 1.390 . S
C971 C968 1.386 . S
C972 C967 1.490 . S
C972 C974 1.395 . S
C972 C975 1.403 . S
H973 C979 0.930 . S
C974 H960 0.930 . S
C974 C972 1.395 . S
C974 C977 1.403 . S
C975 C972 1.403 . S
C975 C976 1.524 . S
C975 C979 1.400 . S
C976 H961 0.960 . S
C976 H962 0.960 . S
C976 H963 0.960 . S
C976 C975 1.524 . S
C977 C974 1.403 . S
C977 C978 1.392 . S
C977 C981 1.495 . S
C978 C977 1.392 . S
C978 C979 1.385 . S
C978 C980 1.478 . S
C979 H973 0.930 . S
C979 C975 1.400 . S
C979 C978 1.385 . S
C980 C978 1.478 . S
C980 C982 1.381 . S
C980 C986 1.383 . S
C981 C977 1.495 . S
C981 H987 0.959 . S
C981 H988 0.961 . S
C981 H989 0.960 . S
C982 C980 1.381 . S
C982 C983 1.394 . S
C982 H990 0.930 . S
C983 C982 1.394 . S
C983 C984 1.383 . S
C983 H991 0.932 . S
C984 C983 1.383 . S
C984 C985 1.377 . S
C985 H969 0.930 . S
C985 C984 1.377 . S
C985 C986 1.379 . S
C986 H970 0.931 . S
C986 C980 1.383 . S
C986 C985 1.379 . S
H987 C981 0.959 . S
H988 C981 0.961 . S
H989 C981 0.960 . S
H990 C982 0.930 . S
H991 C983 0.932 . S
H992 C1000 0.929 . S
H993 C1002 0.930 . S
H994 C1004 0.930 . S
H995 C1007 0.929 . S
H996 C1010 0.930 . S
H997 C1012 0.960 . S
H998 C1012 0.960 . S
H999 C1012 0.960 . S
C1000 H992 0.929 . S
C1000 C1001 1.377 1_455 S
C1000 C1002 1.384 . S
C1001 C1000 1.377 1_655 S
C1001 C1007 1.390 . S
C1002 H993 0.930 . S
C1002 C1000 1.384 . S
C1002 C1003 1.372 1_455 S
C1003 C1002 1.372 1_655 S
C1003 C1004 1.400 . S
C1003 C1008 1.490 . S
C1004 H994 0.930 . S
C1004 C1003 1.400 . S
C1004 C1007 1.386 . S
H1005 C1021 0.930 . S
H1006 C1022 0.931 . S
C1007 H995 0.929 . S
C1007 C1001 1.390 . S
C1007 C1004 1.386 . S
C1008 C1003 1.490 . S
C1008 C1010 1.395 . S
C1008 C1011 1.403 1_655 S
H1009 C1015 0.930 . S
C1010 H996 0.930 . S
C1010 C1008 1.395 . S
C1010 C1013 1.403 . S
C1011 C1008 1.403 1_455 S
C1011 C1012 1.524 . S
C1011 C1015 1.400 . S
C1012 H997 0.960 . S
C1012 H998 0.960 . S
C1012 H999 0.960 . S
C1012 C1011 1.524 . S
C1013 C1010 1.403 . S
C1013 C1014 1.393 1_655 S
C1013 C1017 1.495 . S
C1014 C1013 1.393 1_455 S
C1014 C1015 1.384 . S
C1014 C1016 1.477 . S
C1015 H1009 0.930 . S
C1015 C1011 1.400 . S
C1015 C1014 1.384 . S
C1016 C1014 1.477 . S
C1016 C1018 1.381 . S
C1016 C1022 1.383 1_455 S
C1017 C1013 1.495 . S
C1017 H1023 0.959 . S
C1017 H1024 0.961 . S
C1017 H1025 0.960 . S
C1018 C1016 1.381 . S
C1018 C1019 1.394 . S
C1018 H1026 0.930 . S
C1019 C1018 1.394 . S
C1019 C1020 1.383 . S
C1019 H1027 0.929 . S
C1020 C1019 1.383 . S
C1020 C1021 1.377 1_455 S
C1021 H1005 0.930 . S
C1021 C1020 1.377 1_655 S
C1021 C1022 1.379 . S
C1022 H1006 0.931 . S
C1022 C1016 1.383 1_655 S
C1022 C1021 1.379 . S
H1023 C1017 0.959 . S
H1024 C1017 0.961 . S
H1025 C1017 0.960 . S
H1026 C1018 0.930 . S
H1027 C1019 0.929 . S
H1028 C1036 0.929 . S
H1029 C1038 0.930 . S
H1030 C1040 0.930 . S
H1031 C1043 0.929 . S
H1032 C1046 0.930 . S
H1033 C1048 0.960 . S
H1034 C1048 0.960 . S
H1035 C1048 0.960 . S
C1036 H1028 0.929 . S
C1036 C1037 1.377 . S
C1036 C1038 1.384 . S
C1037 C1036 1.377 . S
C1037 C1043 1.390 . S
C1038 H1029 0.930 . S
C1038 C1036 1.384 . S
C1038 C1039 1.372 . S
C1039 C1038 1.372 . S
C1039 C1040 1.400 . S
C1039 C1044 1.490 . S
C1040 H1030 0.930 . S
C1040 C1039 1.400 . S
C1040 C1043 1.386 . S
H1041 C1057 0.930 . S
H1042 C1058 0.931 . S
C1043 H1031 0.929 . S
C1043 C1037 1.390 . S
C1043 C1040 1.386 . S
C1044 C1039 1.490 . S
C1044 C1046 1.395 . S
C1044 C1047 1.403 . S
H1045 C1051 0.930 . S
C1046 H1032 0.930 . S
C1046 C1044 1.395 . S
C1046 C1049 1.403 1_655 S
C1047 C1044 1.403 . S
C1047 C1048 1.524 . S
C1047 C1051 1.400 1_655 S
C1048 H1033 0.960 . S
C1048 H1034 0.960 . S
C1048 H1035 0.960 . S
C1048 C1047 1.524 . S
C1049 C1046 1.403 1_455 S
C1049 C1050 1.392 . S
C1049 C1053 1.495 . S
C1050 C1049 1.392 . S
C1050 C1051 1.385 . S
C1050 C1052 1.478 . S
C1051 H1045 0.930 . S
C1051 C1047 1.400 1_455 S
C1051 C1050 1.385 . S
C1052 C1050 1.478 . S
C1052 C1054 1.381 . S
C1052 C1058 1.383 . S
C1053 C1049 1.495 . S
C1053 H1059 0.959 . S
C1053 H1060 0.961 . S
C1053 H1061 0.960 . S
C1054 C1052 1.381 . S
C1054 C1055 1.394 . S
C1054 H1062 0.930 . S
C1055 C1054 1.394 . S
C1055 C1056 1.383 . S
C1055 H1063 0.929 . S
C1056 C1055 1.383 . S
C1056 C1057 1.377 . S
C1057 H1041 0.930 . S
C1057 C1056 1.377 . S
C1057 C1058 1.379 . S
C1058 H1042 0.931 . S
C1058 C1052 1.383 . S
C1058 C1057 1.379 . S
H1059 C1053 0.959 . S
H1060 C1053 0.961 . S
H1061 C1053 0.960 . S
H1062 C1054 0.930 . S
H1063 C1055 0.929 . S
H1064 C1072 0.929 . S
H1065 C1074 0.930 . S
H1066 C1076 0.930 . S
H1067 C1079 0.929 . S
H1068 C1082 0.930 . S
H1069 C1084 0.960 . S
H1070 C1084 0.960 . S
H1071 C1084 0.960 . S
C1072 H1064 0.929 . S
C1072 C1073 1.377 . S
C1072 C1074 1.384 . S
C1073 C1072 1.377 . S
C1073 C1079 1.390 . S
C1074 H1065 0.930 . S
C1074 C1072 1.384 . S
C1074 C1075 1.372 . S
C1075 C1074 1.372 . S
C1075 C1076 1.400 . S
C1075 C1080 1.490 . S
C1076 H1066 0.930 . S
C1076 C1075 1.400 . S
C1076 C1079 1.386 . S
H1077 C1093 0.930 . S
H1078 C1094 0.931 . S
C1079 H1067 0.929 . S
C1079 C1073 1.390 . S
C1079 C1076 1.386 . S
C1080 C1075 1.490 . S
C1080 C1082 1.395 . S
C1080 C1083 1.403 . S
H1081 C1087 0.930 . S
C1082 H1068 0.930 . S
C1082 C1080 1.395 . S
C1082 C1085 1.403 . S
C1083 C1080 1.403 . S
C1083 C1084 1.524 . S
C1083 C1087 1.400 . S
C1084 H1069 0.960 . S
C1084 H1070 0.960 . S
C1084 H1071 0.960 . S
C1084 C1083 1.524 . S
C1085 C1082 1.403 . S
C1085 C1086 1.392 . S
C1085 C1089 1.495 . S
C1086 C1085 1.392 . S
C1086 C1087 1.385 . S
C1086 C1088 1.478 . S
C1087 H1081 0.930 . S
C1087 C1083 1.400 . S
C1087 C1086 1.385 . S
C1088 C1086 1.478 . S
C1088 C1090 1.381 . S
C1088 C1094 1.383 . S
C1089 C1085 1.495 . S
C1089 H1095 0.959 . S
C1089 H1096 0.961 . S
C1089 H1097 0.960 . S
C1090 C1088 1.381 . S
C1090 C1091 1.394 . S
C1090 H1098 0.930 . S
C1091 C1090 1.394 . S
C1091 C1092 1.383 . S
C1091 H1099 0.929 . S
C1092 C1091 1.383 . S
C1092 C1093 1.377 . S
C1093 H1077 0.930 . S
C1093 C1092 1.377 . S
C1093 C1094 1.379 . S
C1094 H1078 0.931 . S
C1094 C1088 1.383 . S
C1094 C1093 1.379 . S
H1095 C1089 0.959 . S
H1096 C1089 0.961 . S
H1097 C1089 0.960 . S
H1098 C1090 0.930 . S
H1099 C1091 0.929 . S
H1100 C1108 0.929 . S
H1101 C1110 0.930 . S
H1102 C1112 0.930 . S
H1103 C1115 0.929 . S
H1104 C1118 0.930 . S
H1105 C1120 0.960 . S
H1106 C1120 0.960 . S
H1107 C1120 0.960 . S
C1108 H1100 0.929 . S
C1108 C1109 1.377 . S
C1108 C1110 1.384 . S
C1109 C1108 1.377 . S
C1109 C1115 1.390 . S
C1110 H1101 0.930 . S
C1110 C1108 1.384 . S
C1110 C1111 1.372 . S
C1111 C1110 1.372 . S
C1111 C1112 1.400 . S
C1111 C1116 1.490 . S
C1112 H1102 0.930 . S
C1112 C1111 1.400 . S
C1112 C1115 1.386 . S
H1113 C1129 0.930 . S
H1114 C1130 0.931 . S
C1115 H1103 0.929 . S
C1115 C1109 1.390 . S
C1115 C1112 1.386 . S
C1116 C1111 1.490 . S
C1116 C1118 1.395 . S
C1116 C1119 1.403 . S
H1117 C1123 0.930 . S
C1118 H1104 0.930 . S
C1118 C1116 1.395 . S
C1118 C1121 1.403 . S
C1119 C1116 1.403 . S
C1119 C1120 1.524 . S
C1119 C1123 1.400 . S
C1120 H1105 0.960 . S
C1120 H1106 0.960 . S
C1120 H1107 0.960 . S
C1120 C1119 1.524 . S
C1121 C1118 1.403 . S
C1121 C1122 1.392 . S
C1121 C1125 1.495 . S
C1122 C1121 1.392 . S
C1122 C1123 1.385 . S
C1122 C1124 1.478 . S
C1123 H1117 0.930 . S
C1123 C1119 1.400 . S
C1123 C1122 1.385 . S
C1124 C1122 1.478 . S
C1124 C1126 1.381 . S
C1124 C1130 1.383 . S
C1125 C1121 1.495 . S
C1125 H1131 0.959 . S
C1125 H1132 0.961 . S
C1125 H1133 0.960 . S
C1126 C1124 1.381 . S
C1126 C1127 1.394 . S
C1126 H1134 0.930 . S
C1127 C1126 1.394 . S
C1127 C1128 1.383 . S
C1127 H1135 0.929 . S
C1128 C1127 1.383 . S
C1128 C1129 1.377 . S
C1129 H1113 0.930 . S
C1129 C1128 1.377 . S
C1129 C1130 1.379 . S
C1130 H1114 0.931 . S
C1130 C1124 1.383 . S
C1130 C1129 1.379 . S
H1131 C1125 0.959 . S
H1132 C1125 0.961 . S
H1133 C1125 0.960 . S
H1134 C1126 0.930 . S
H1135 C1127 0.929 . S
H1136 C1144 0.929 . S
H1137 C1146 0.930 . S
H1138 C1148 0.930 . S
H1139 C1151 0.929 . S
H1140 C1154 0.930 . S
H1141 C1156 0.960 . S
H1142 C1156 0.960 . S
H1143 C1156 0.960 . S
C1144 H1136 0.929 . S
C1144 C1145 1.377 . S
C1144 C1146 1.384 . S
C1145 C1144 1.377 . S
C1145 C1151 1.390 1_455 S
C1146 H1137 0.930 . S
C1146 C1144 1.384 . S
C1146 C1147 1.372 . S
C1147 C1146 1.372 . S
C1147 C1148 1.400 1_455 S
C1147 C1152 1.490 . S
C1148 H1138 0.930 . S
C1148 C1147 1.400 1_655 S
C1148 C1151 1.386 . S
H1149 C1165 0.930 . S
H1150 C1166 0.931 . S
C1151 H1139 0.929 . S
C1151 C1145 1.390 1_655 S
C1151 C1148 1.386 . S
C1152 C1147 1.490 . S
C1152 C1154 1.395 1_455 S
C1152 C1155 1.403 . S
H1153 C1159 0.930 . S
C1154 H1140 0.930 . S
C1154 C1152 1.395 1_655 S
C1154 C1157 1.403 . S
C1155 C1152 1.403 . S
C1155 C1156 1.524 . S
C1155 C1159 1.400 . S
C1156 H1141 0.960 . S
C1156 H1142 0.960 . S
C1156 H1143 0.960 . S
C1156 C1155 1.524 . S
C1157 C1154 1.403 . S
C1157 C1158 1.392 . S
C1157 C1161 1.495 . S
C1158 C1157 1.392 . S
C1158 C1159 1.385 1_655 S
C1158 C1160 1.478 . S
C1159 H1153 0.930 . S
C1159 C1155 1.400 . S
C1159 C1158 1.385 1_455 S
C1160 C1158 1.478 . S
C1160 C1162 1.381 1_655 S
C1160 C1166 1.383 . S
C1161 C1157 1.495 . S
C1161 H1167 0.959 . S
C1161 H1168 0.961 . S
C1161 H1169 0.960 . S
C1162 C1160 1.381 1_455 S
C1162 C1163 1.394 . S
C1162 H1170 0.930 . S
C1163 C1162 1.394 . S
C1163 C1164 1.383 1_455 S
C1163 H1171 0.929 . S
C1164 C1163 1.383 1_655 S
C1164 C1165 1.377 . S
C1165 H1149 0.930 . S
C1165 C1164 1.377 . S
C1165 C1166 1.379 . S
C1166 H1150 0.931 . S
C1166 C1160 1.383 . S
C1166 C1165 1.379 . S
H1167 C1161 0.959 . S
H1168 C1161 0.961 . S
H1169 C1161 0.960 . S
H1170 C1162 0.930 . S
H1171 C1163 0.929 . S
H1172 C1180 0.929 . S
H1173 C1182 0.930 . S
H1174 C1184 0.930 . S
H1175 C1187 0.929 . S
H1176 C1190 0.930 . S
H1177 C1192 0.960 . S
H1178 C1192 0.960 . S
H1179 C1192 0.960 . S
C1180 H1172 0.929 . S
C1180 C1181 1.377 . S
C1180 C1182 1.384 . S
C1181 C1180 1.377 . S
C1181 C1187 1.390 . S
C1182 H1173 0.930 . S
C1182 C1180 1.384 . S
C1182 C1183 1.372 . S
C1183 C1182 1.372 . S
C1183 C1184 1.400 . S
C1183 C1188 1.490 . S
C1184 H1174 0.930 . S
C1184 C1183 1.400 . S
C1184 C1187 1.386 . S
H1185 C1201 0.930 . S
H1186 C1202 0.931 . S
C1187 H1175 0.929 . S
C1187 C1181 1.390 . S
C1187 C1184 1.386 . S
C1188 C1183 1.490 . S
C1188 C1190 1.395 . S
C1188 C1191 1.403 . S
H1189 C1195 0.930 . S
C1190 H1176 0.930 . S
C1190 C1188 1.395 . S
C1190 C1193 1.403 . S
C1191 C1188 1.403 . S
C1191 C1192 1.524 . S
C1191 C1195 1.400 . S
C1192 H1177 0.960 . S
C1192 H1178 0.960 . S
C1192 H1179 0.960 . S
C1192 C1191 1.524 . S
C1193 C1190 1.403 . S
C1193 C1194 1.392 . S
C1193 C1197 1.495 . S
C1194 C1193 1.392 . S
C1194 C1195 1.385 . S
C1194 C1196 1.478 . S
C1195 H1189 0.930 . S
C1195 C1191 1.400 . S
C1195 C1194 1.385 . S
C1196 C1194 1.478 . S
C1196 C1198 1.381 . S
C1196 C1202 1.383 . S
C1197 C1193 1.495 . S
C1197 H1203 0.959 . S
C1197 H1204 0.961 . S
C1197 H1205 0.960 . S
C1198 C1196 1.381 . S
C1198 C1199 1.394 . S
C1198 H1206 0.930 . S
C1199 C1198 1.394 . S
C1199 C1200 1.383 . S
C1199 H1207 0.929 . S
C1200 C1199 1.383 . S
C1200 C1201 1.377 . S
C1201 H1185 0.930 . S
C1201 C1200 1.377 . S
C1201 C1202 1.379 . S
C1202 H1186 0.931 . S
C1202 C1196 1.383 . S
C1202 C1201 1.379 . S
H1203 C1197 0.959 . S
H1204 C1197 0.961 . S
H1205 C1197 0.960 . S
H1206 C1198 0.930 . S
H1207 C1199 0.929 . S
H1208 C1216 0.929 . S
H1209 C1218 0.930 . S
H1210 C1220 0.930 . S
H1211 C1223 0.929 . S
H1212 C1226 0.930 . S
H1213 C1228 0.960 . S
H1214 C1228 0.960 . S
H1215 C1228 0.960 . S
C1216 H1208 0.929 . S
C1216 C1217 1.377 . S
C1216 C1218 1.384 . S
C1217 C1216 1.377 . S
C1217 C1223 1.390 . S
C1218 H1209 0.930 . S
C1218 C1216 1.384 . S
C1218 C1219 1.372 . S
C1219 C1218 1.372 . S
C1219 C1220 1.400 . S
C1219 C1224 1.490 . S
C1220 H1210 0.930 . S
C1220 C1219 1.400 . S
C1220 C1223 1.386 . S
H1221 C1237 0.930 . S
H1222 C1238 0.931 . S
C1223 H1211 0.929 . S
C1223 C1217 1.390 . S
C1223 C1220 1.386 . S
C1224 C1219 1.490 . S
C1224 C1226 1.395 . S
C1224 C1227 1.403 . S
H1225 C1231 0.930 . S
C1226 H1212 0.930 . S
C1226 C1224 1.395 . S
C1226 C1229 1.403 . S
C1227 C1224 1.403 . S
C1227 C1228 1.524 . S
C1227 C1231 1.400 . S
C1228 H1213 0.960 . S
C1228 H1214 0.960 . S
C1228 H1215 0.960 . S
C1228 C1227 1.524 . S
C1229 C1226 1.403 . S
C1229 C1230 1.392 . S
C1229 C1233 1.495 . S
C1230 C1229 1.392 . S
C1230 C1231 1.385 . S
C1230 C1232 1.478 . S
C1231 H1225 0.930 . S
C1231 C1227 1.400 . S
C1231 C1230 1.385 . S
C1232 C1230 1.478 . S
C1232 C1234 1.381 . S
C1232 C1238 1.383 . S
C1233 C1229 1.495 . S
C1233 H1239 0.959 . S
C1233 H1240 0.961 . S
C1233 H1241 0.960 . S
C1234 C1232 1.381 . S
C1234 C1235 1.394 . S
C1234 H1242 0.930 . S
C1235 C1234 1.394 . S
C1235 C1236 1.383 . S
C1235 H1243 0.929 . S
C1236 C1235 1.383 . S
C1236 C1237 1.377 . S
C1237 H1221 0.930 . S
C1237 C1236 1.377 . S
C1237 C1238 1.379 . S
C1238 H1222 0.931 . S
C1238 C1232 1.383 . S
C1238 C1237 1.379 . S
H1239 C1233 0.959 . S
H1240 C1233 0.961 . S
H1241 C1233 0.960 . S
H1242 C1234 0.930 . S
H1243 C1235 0.929 . S
H1244 C1252 0.929 . S
H1245 C1254 0.930 . S
H1246 C1256 0.930 . S
H1247 C1259 0.929 . S
H1248 C1262 0.930 . S
H1249 C1264 0.960 . S
H1250 C1264 0.960 . S
H1251 C1264 0.960 . S
C1252 H1244 0.929 . S
C1252 C1253 1.377 . S
C1252 C1254 1.384 . S
C1253 C1252 1.377 . S
C1253 C1259 1.390 . S
C1254 H1245 0.930 . S
C1254 C1252 1.384 . S
C1254 C1255 1.372 . S
C1255 C1254 1.372 . S
C1255 C1256 1.400 . S
C1255 C1260 1.490 . S
C1256 H1246 0.930 . S
C1256 C1255 1.400 . S
C1256 C1259 1.386 . S
H1257 C1273 0.930 . S
H1258 C1274 0.931 . S
C1259 H1247 0.929 . S
C1259 C1253 1.390 . S
C1259 C1256 1.386 . S
C1260 C1255 1.490 . S
C1260 C1262 1.395 . S
C1260 C1263 1.403 . S
H1261 C1267 0.930 . S
C1262 H1248 0.930 . S
C1262 C1260 1.395 . S
C1262 C1265 1.403 1_655 S
C1263 C1260 1.403 . S
C1263 C1264 1.524 . S
C1263 C1267 1.400 1_655 S
C1264 H1249 0.960 . S
C1264 H1250 0.960 . S
C1264 H1251 0.960 . S
C1264 C1263 1.524 . S
C1265 C1262 1.403 1_455 S
C1265 C1266 1.392 . S
C1265 C1269 1.495 . S
C1266 C1265 1.392 . S
C1266 C1267 1.385 . S
C1266 C1268 1.478 . S
C1267 H1261 0.930 . S
C1267 C1263 1.400 1_455 S
C1267 C1266 1.385 . S
C1268 C1266 1.478 . S
C1268 C1270 1.381 . S
C1268 C1274 1.383 . S
C1269 C1265 1.495 . S
C1269 H1275 0.959 . S
C1269 H1276 0.961 . S
C1269 H1277 0.960 . S
C1270 C1268 1.381 . S
C1270 C1271 1.394 . S
C1270 H1278 0.930 . S
C1271 C1270 1.394 . S
C1271 C1272 1.383 . S
C1271 H1279 0.929 . S
C1272 C1271 1.383 . S
C1272 C1273 1.377 . S
C1273 H1257 0.930 . S
C1273 C1272 1.377 . S
C1273 C1274 1.379 . S
C1274 H1258 0.931 . S
C1274 C1268 1.383 . S
C1274 C1273 1.379 . S
H1275 C1269 0.959 . S
H1276 C1269 0.961 . S
H1277 C1269 0.960 . S
H1278 C1270 0.930 . S
H1279 C1271 0.929 . S
C281 C187 1.545 . S
C300 C17 1.541 1_655 S
C317 C51 1.544 . S
C336 C221 1.541 . S
C353 C85 1.544 . S
C372 C255 1.541 . S
C389 C153 1.545 . S
C408 C119 1.541 1_655 S
C425 C139 1.835 . S
C444 C1 1.819 . S
C461 C35 1.840 . S
C480 C173 1.847 . S
C497 C71 1.829 . S
C516 C205 1.811 . S
C533 C105 1.829 . S
C552 C239 1.814 . S
C569 C103 1.838 . S
C588 C241 1.834 . S
C605 C37 1.829 . S
C624 C171 1.810 . S
C641 C69 1.839 . S
C660 C207 1.838 . S
C677 C3 1.829 . S
C696 C137 1.814 . S
C713 C15 1.074 . S
C732 C22 1.062 . S
C749 C49 1.062 1_545 S
C768 C56 1.007 . S
C785 C83 1.068 . S
C804 C90 1.120 . S
C821 C124 1.056 1_565 S
C840 C117 1.001 . S
C857 C158 1.054 . S
C876 C151 1.005 . S
C893 C192 1.068 1_545 S
C912 C185 1.025 . S
C929 C219 1.073 . S
C948 C226 1.054 . S
C965 C260 1.073 . S
C984 C253 1.050 1_565 S
C1001 C6 1.883 . S
C1020 C28 1.879 1_545 S
C1037 C40 1.882 . S
C1056 C62 1.886 . S
C1073 C96 1.883 . S
C1092 C74 1.876 1_565 S
C1109 C130 1.883 . S
C1128 C108 1.884 . S
C1145 C142 1.884 1_565 S
C1164 C164 1.879 . S
C1181 C176 1.883 . S
C1200 C198 1.884 . S
C1217 C210 1.882 . S
C1236 C232 1.886 1_545 S
C1253 C244 1.883 . S
C1272 C266 1.885 . S
