# Generated by pormake.
# Topology vci, (7)-cn, num edge types: 1
# Building blocks:
#     Node 0, Type 0, BuildingBlock: NUHQUE_clean_sbu_2, # of connection points: 7
#     Node 1, Type 0, BuildingBlock: NUHQUE_clean_sbu_2, # of connection points: 7
#     Node 2, Type 0, BuildingBlock: NUHQUE_clean_sbu_2, # of connection points: 7
#     Node 3, Type 0, BuildingBlock: NUHQUE_clean_sbu_2, # of connection points: 7
#     Node 4, Type 0, BuildingBlock: NUHQUE_clean_sbu_2, # of connection points: 7
#     Node 5, Type 0, BuildingBlock: NUHQUE_clean_sbu_2, # of connection points: 7
#     Node 6, Type 0, BuildingBlock: NUHQUE_clean_sbu_2, # of connection points: 7
#     Node 7, Type 0, BuildingBlock: NUHQUE_clean_sbu_2, # of connection points: 7
#     Node 8, Type 0, BuildingBlock: NUHQUE_clean_sbu_2, # of connection points: 7
#     Node 9, Type 0, BuildingBlock: NUHQUE_clean_sbu_2, # of connection points: 7
#     Node 10, Type 0, BuildingBlock: NUHQUE_clean_sbu_2, # of connection points: 7
#     Node 11, Type 0, BuildingBlock: NUHQUE_clean_sbu_2, # of connection points: 7
#     Node 12, Type 0, BuildingBlock: NUHQUE_clean_sbu_2, # of connection points: 7
#     Node 13, Type 0, BuildingBlock: NUHQUE_clean_sbu_2, # of connection points: 7
#     Node 14, Type 0, BuildingBlock: NUHQUE_clean_sbu_2, # of connection points: 7
#     Node 15, Type 0, BuildingBlock: NUHQUE_clean_sbu_2, # of connection points: 7
#     Edge 16, Type (0, 0), BuildingBlock: AJUNOK_clean_linker_0, # of connection points: 2
#     Edge 17, Type (0, 0), BuildingBlock: AJUNOK_clean_linker_0, # of connection points: 2
#     Edge 18, Type (0, 0), BuildingBlock: AJUNOK_clean_linker_0, # of connection points: 2
#     Edge 19, Type (0, 0), BuildingBlock: AJUNOK_clean_linker_0, # of connection points: 2
#     Edge 20, Type (0, 0), BuildingBlock: AJUNOK_clean_linker_0, # of connection points: 2
#     Edge 21, Type (0, 0), BuildingBlock: AJUNOK_clean_linker_0, # of connection points: 2
#     Edge 22, Type (0, 0), BuildingBlock: AJUNOK_clean_linker_0, # of connection points: 2
#     Edge 23, Type (0, 0), BuildingBlock: AJUNOK_clean_linker_0, # of connection points: 2
#     Edge 24, Type (0, 0), BuildingBlock: AJUNOK_clean_linker_0, # of connection points: 2
#     Edge 25, Type (0, 0), BuildingBlock: AJUNOK_clean_linker_0, # of connection points: 2
#     Edge 26, Type (0, 0), BuildingBlock: AJUNOK_clean_linker_0, # of connection points: 2
#     Edge 27, Type (0, 0), BuildingBlock: AJUNOK_clean_linker_0, # of connection points: 2
#     Edge 28, Type (0, 0), BuildingBlock: AJUNOK_clean_linker_0, # of connection points: 2
#     Edge 29, Type (0, 0), BuildingBlock: AJUNOK_clean_linker_0, # of connection points: 2
#     Edge 30, Type (0, 0), BuildingBlock: AJUNOK_clean_linker_0, # of connection points: 2
#     Edge 31, Type (0, 0), BuildingBlock: AJUNOK_clean_linker_0, # of connection points: 2
#     Edge 32, Type (0, 0), BuildingBlock: AJUNOK_clean_linker_0, # of connection points: 2
#     Edge 33, Type (0, 0), BuildingBlock: AJUNOK_clean_linker_0, # of connection points: 2
#     Edge 34, Type (0, 0), BuildingBlock: AJUNOK_clean_linker_0, # of connection points: 2
#     Edge 35, Type (0, 0), BuildingBlock: AJUNOK_clean_linker_0, # of connection points: 2
#     Edge 36, Type (0, 0), BuildingBlock: AJUNOK_clean_linker_0, # of connection points: 2
#     Edge 37, Type (0, 0), BuildingBlock: AJUNOK_clean_linker_0, # of connection points: 2
#     Edge 38, Type (0, 0), BuildingBlock: AJUNOK_clean_linker_0, # of connection points: 2
#     Edge 39, Type (0, 0), BuildingBlock: AJUNOK_clean_linker_0, # of connection points: 2
#     Edge 40, Type (0, 0), BuildingBlock: AJUNOK_clean_linker_0, # of connection points: 2
#     Edge 41, Type (0, 0), BuildingBlock: AJUNOK_clean_linker_0, # of connection points: 2
#     Edge 42, Type (0, 0), BuildingBlock: AJUNOK_clean_linker_0, # of connection points: 2
#     Edge 43, Type (0, 0), BuildingBlock: AJUNOK_clean_linker_0, # of connection points: 2
#     Edge 44, Type (0, 0), BuildingBlock: AJUNOK_clean_linker_0, # of connection points: 2
#     Edge 45, Type (0, 0), BuildingBlock: AJUNOK_clean_linker_0, # of connection points: 2
#     Edge 46, Type (0, 0), BuildingBlock: AJUNOK_clean_linker_0, # of connection points: 2
#     Edge 47, Type (0, 0), BuildingBlock: AJUNOK_clean_linker_0, # of connection points: 2
#     Edge 48, Type (0, 0), BuildingBlock: AJUNOK_clean_linker_0, # of connection points: 2
#     Edge 49, Type (0, 0), BuildingBlock: AJUNOK_clean_linker_0, # of connection points: 2
#     Edge 50, Type (0, 0), BuildingBlock: AJUNOK_clean_linker_0, # of connection points: 2
#     Edge 51, Type (0, 0), BuildingBlock: AJUNOK_clean_linker_0, # of connection points: 2
#     Edge 52, Type (0, 0), BuildingBlock: AJUNOK_clean_linker_0, # of connection points: 2
#     Edge 53, Type (0, 0), BuildingBlock: AJUNOK_clean_linker_0, # of connection points: 2
#     Edge 54, Type (0, 0), BuildingBlock: AJUNOK_clean_linker_0, # of connection points: 2
#     Edge 55, Type (0, 0), BuildingBlock: AJUNOK_clean_linker_0, # of connection points: 2
#     Edge 56, Type (0, 0), BuildingBlock: AJUNOK_clean_linker_0, # of connection points: 2
#     Edge 57, Type (0, 0), BuildingBlock: AJUNOK_clean_linker_0, # of connection points: 2
#     Edge 58, Type (0, 0), BuildingBlock: AJUNOK_clean_linker_0, # of connection points: 2
#     Edge 59, Type (0, 0), BuildingBlock: AJUNOK_clean_linker_0, # of connection points: 2
#     Edge 60, Type (0, 0), BuildingBlock: AJUNOK_clean_linker_0, # of connection points: 2
#     Edge 61, Type (0, 0), BuildingBlock: AJUNOK_clean_linker_0, # of connection points: 2
#     Edge 62, Type (0, 0), BuildingBlock: AJUNOK_clean_linker_0, # of connection points: 2
#     Edge 63, Type (0, 0), BuildingBlock: AJUNOK_clean_linker_0, # of connection points: 2
#     Edge 64, Type (0, 0), BuildingBlock: AJUNOK_clean_linker_0, # of connection points: 2
#     Edge 65, Type (0, 0), BuildingBlock: AJUNOK_clean_linker_0, # of connection points: 2
#     Edge 66, Type (0, 0), BuildingBlock: AJUNOK_clean_linker_0, # of connection points: 2
#     Edge 67, Type (0, 0), BuildingBlock: AJUNOK_clean_linker_0, # of connection points: 2
#     Edge 68, Type (0, 0), BuildingBlock: AJUNOK_clean_linker_0, # of connection points: 2
#     Edge 69, Type (0, 0), BuildingBlock: AJUNOK_clean_linker_0, # of connection points: 2
#     Edge 70, Type (0, 0), BuildingBlock: AJUNOK_clean_linker_0, # of connection points: 2
#     Edge 71, Type (0, 0), BuildingBlock: AJUNOK_clean_linker_0, # of connection points: 2
# Relax obj value: 0.133
# Max RMSD: 0.210
# Mean RMSD: 0.210
data_MOF--net-vci--node1-NUHQUE_clean_sbu_2--edge1-AJUNOK_clean_linker_0
_symmetry_space_group_name_H-M    P1
_symmetry_Int_Tables_number       1
_symmetry_cell_setting            triclinic
loop_
_symmetry_equiv_pos_as_xyz
'x, y, z'
_cell_length_a     38.127847
_cell_length_b     53.714676
_cell_length_c     17.281262
_cell_angle_alpha  90.100832
_cell_angle_beta   90.024116
_cell_angle_gamma 90.091775
loop_
_atom_site_label
_atom_site_type_symbol
_atom_site_fract_x
_atom_site_fract_y
_atom_site_fract_z
_atom_type_partial_charge
O0 O 0.13765 0.20152 0.22688 0.0
Tb1 Tb 0.14851 0.16183 0.22477 0.0
Eu2 Eu 0.15095 0.11796 0.03062 0.0
C3 C 0.16093 0.21718 0.19905 0.0
O4 O 0.18817 0.20825 0.1618 0.0
C5 C 0.20472 0.13095 0.15311 0.0
O6 O 0.14182 0.07668 0.02205 0.0
C7 C 0.17679 0.1351 0.90255 0.0
C8 C 0.11316 0.0657 0.04699 0.0
O9 O 0.08788 0.07926 0.07675 0.0
C10 C 0.08234 0.14219 0.12397 0.0
C11 C 0.16991 0.15212 0.83726 0.0
C12 C 0.16456 0.17785 0.84898 0.0
C13 C 0.16193 0.19409 0.7854 0.0
C14 C 0.16414 0.18421 0.71042 0.0
C15 C 0.16881 0.15871 0.69801 0.0
C16 C 0.17159 0.14265 0.76136 0.0
O17 O 0.18719 0.15143 0.14082 0.0
O18 O 0.19378 0.11124 0.11652 0.0
O19 O 0.17949 0.16712 0.32975 0.0
O20 O 0.1421 0.13799 0.32705 0.0
C21 C 0.16566 0.14909 0.36931 0.0
O22 O 0.09924 0.13696 0.05884 0.0
O23 O 0.09737 0.14704 0.19155 0.0
O24 O 0.15789 0.11463 0.906 0.0
O25 O 0.18338 0.14504 0.97075 0.0
H26 H 0.16275 0.18522 0.90722 0.0
H27 H 0.16303 0.19653 0.66078 0.0
H28 H 0.17621 0.12298 0.75157 0.0
O29 O 0.36234 0.80955 0.70209 0.0
Tb30 Tb 0.34719 0.8484 0.70711 0.0
Eu31 Eu 0.34617 0.88865 0.51069 0.0
C32 C 0.34035 0.79328 0.67252 0.0
O33 O 0.31089 0.8013 0.64207 0.0
C34 C 0.29131 0.87895 0.63529 0.0
O35 O 0.36132 0.92869 0.49189 0.0
C36 C 0.31662 0.87075 0.38683 0.0
C37 C 0.36263 0.94463 0.54961 0.0
O38 O 0.35685 0.93657 0.62022 0.0
C39 C 0.41319 0.86555 0.60818 0.0
C40 C 0.32062 0.85354 0.32057 0.0
C41 C 0.32609 0.82783 0.33177 0.0
C42 C 0.32798 0.81174 0.26791 0.0
C43 C 0.32342 0.82126 0.1933 0.0
C44 C 0.31802 0.84668 0.18086 0.0
C45 C 0.31684 0.86286 0.24472 0.0
O46 O 0.3068 0.85752 0.62564 0.0
O47 O 0.30458 0.8978 0.59791 0.0
O48 O 0.34892 0.87172 0.81165 0.0
O49 O 0.31735 0.83924 0.81094 0.0
C50 C 0.32753 0.85811 0.85236 0.0
O51 O 0.39703 0.86861 0.54082 0.0
O52 O 0.39707 0.86561 0.67597 0.0
O53 O 0.33587 0.89107 0.38683 0.0
O54 O 0.31248 0.86105 0.45612 0.0
H55 H 0.32917 0.82035 0.38957 0.0
H56 H 0.32453 0.8087 0.14409 0.0
H57 H 0.31231 0.88255 0.2355 0.0
O58 O 0.14429 0.8138 0.806 0.0
Tb59 Tb 0.13544 0.85367 0.80811 0.0
Eu60 Eu 0.1419 0.90392 0.00718 0.0
C61 C 0.15665 0.80306 0.74319 0.0
O62 O 0.16571 0.81696 0.68403 0.0
C63 C 0.18915 0.8891 0.88275 0.0
O64 O 0.13899 0.94548 0.02171 0.0
C65 C 0.15973 0.88152 0.13433 0.0
C66 C 0.10912 0.95715 0.0328 0.0
O67 O 0.08002 0.94413 0.03747 0.0
C68 C 0.0712 0.87705 0.91208 0.0
C69 C 0.14976 0.86483 0.19896 0.0
C70 C 0.15162 0.83871 0.19088 0.0
C71 C 0.14623 0.8231 0.25509 0.0
C72 C 0.1384 0.83372 0.32701 0.0
C73 C 0.13742 0.85956 0.33647 0.0
C74 C 0.14316 0.87509 0.27265 0.0
O75 O 0.16399 0.87308 0.89486 0.0
O76 O 0.1889 0.90773 0.93025 0.0
O77 O 0.16081 0.87016 0.70662 0.0
O78 O 0.10615 0.86328 0.7038 0.0
C79 C 0.13269 0.87156 0.66423 0.0
O80 O 0.08781 0.89286 0.95944 0.0
O81 O 0.0853 0.86027 0.86467 0.0
O82 O 0.14616 0.90403 0.13273 0.0
O83 O 0.16432 0.87173 0.06514 0.0
H84 H 0.1582 0.83047 0.13548 0.0
H85 H 0.13523 0.82182 0.37722 0.0
H86 H 0.14355 0.8951 0.28106 0.0
O87 O 0.35863 0.1949 0.31742 0.0
Tb88 Tb 0.36288 0.15472 0.32392 0.0
Eu89 Eu 0.35184 0.10757 0.52847 0.0
C90 C 0.3508 0.20588 0.25164 0.0
O91 O 0.34396 0.19234 0.19011 0.0
C92 C 0.3066 0.12232 0.40123 0.0
O93 O 0.35972 0.06673 0.55067 0.0
C94 C 0.33446 0.13136 0.65363 0.0
C95 C 0.3673 0.05159 0.49329 0.0
O96 O 0.37112 0.06094 0.4236 0.0
C97 C 0.42453 0.13422 0.44106 0.0
C98 C 0.34921 0.1455 0.71978 0.0
C99 C 0.35491 0.17141 0.71448 0.0
C100 C 0.36577 0.18509 0.77962 0.0
C101 C 0.37249 0.17254 0.84901 0.0
C102 C 0.36547 0.1471 0.85621 0.0
C103 C 0.35378 0.13361 0.79173 0.0
O104 O 0.33305 0.13731 0.41237 0.0
O105 O 0.30536 0.10402 0.44973 0.0
O106 O 0.39147 0.14032 0.22391 0.0
O107 O 0.33594 0.1398 0.22213 0.0
C108 C 0.36403 0.13461 0.1827 0.0
O109 O 0.40693 0.11905 0.48848 0.0
O110 O 0.41191 0.14824 0.38419 0.0
O111 O 0.34052 0.10728 0.65159 0.0
O112 O 0.33523 0.14185 0.58487 0.0
H113 H 0.34927 0.18114 0.66103 0.0
H114 H 0.38109 0.18296 0.89944 0.0
H115 H 0.34739 0.11405 0.79833 0.0
O116 O 0.85308 0.81009 0.80529 0.0
Tb117 Tb 0.8542 0.85081 0.80726 0.0
Eu118 Eu 0.84791 0.90546 0.00303 0.0
C119 C 0.842 0.79778 0.7436 0.0
O120 O 0.82835 0.81019 0.68559 0.0
C121 C 0.80015 0.8859 0.88139 0.0
O122 O 0.84807 0.9477 0.01784 0.0
C123 C 0.83178 0.88241 0.13078 0.0
C124 C 0.87634 0.96125 0.00462 0.0
O125 O 0.90517 0.94981 0.98297 0.0
C126 C 0.91818 0.87778 0.90778 0.0
C127 C 0.84255 0.86515 0.19358 0.0
C128 C 0.84627 0.83926 0.18072 0.0
C129 C 0.85299 0.82299 0.24298 0.0
C130 C 0.85568 0.83282 0.31793 0.0
C131 C 0.85152 0.85829 0.33176 0.0
C132 C 0.84494 0.8744 0.26978 0.0
O133 O 0.82511 0.86983 0.89492 0.0
O134 O 0.80123 0.90585 0.92399 0.0
O135 O 0.82485 0.86254 0.70449 0.0
O136 O 0.88032 0.86416 0.70265 0.0
C137 C 0.85205 0.86791 0.66223 0.0
O138 O 0.90152 0.89364 0.95484 0.0
O139 O 0.90434 0.86094 0.85977 0.0
O140 O 0.84574 0.90482 0.12926 0.0
O141 O 0.8257 0.87319 0.06152 0.0
H142 H 0.84335 0.83167 0.12293 0.0
H143 H 0.85937 0.82042 0.36675 0.0
H144 H 0.84074 0.89403 0.28126 0.0
O145 O 0.64701 0.19434 0.32274 0.0
Tb146 Tb 0.63979 0.15432 0.32565 0.0
Eu147 Eu 0.64716 0.10466 0.52598 0.0
C148 C 0.65984 0.20518 0.26062 0.0
O149 O 0.67015 0.19147 0.20196 0.0
C150 C 0.69328 0.1188 0.39871 0.0
O151 O 0.63844 0.06355 0.53746 0.0
C152 C 0.66799 0.12513 0.65399 0.0
C153 C 0.61826 0.05158 0.48824 0.0
O154 O 0.60271 0.06417 0.43286 0.0
C155 C 0.57653 0.13427 0.43989 0.0
C156 C 0.65666 0.14204 0.7167 0.0
C157 C 0.65228 0.16774 0.70363 0.0
C158 C 0.64438 0.18394 0.76518 0.0
C159 C 0.64054 0.17412 0.83982 0.0
C160 C 0.64466 0.14862 0.85354 0.0
C161 C 0.653 0.13265 0.79217 0.0
O162 O 0.66925 0.13553 0.41214 0.0
O163 O 0.69236 0.09996 0.44526 0.0
O164 O 0.66674 0.13917 0.22434 0.0
O165 O 0.61152 0.14301 0.22137 0.0
C166 C 0.63892 0.13624 0.18184 0.0
O167 O 0.59363 0.11928 0.48825 0.0
O168 O 0.58965 0.14782 0.38232 0.0
O169 O 0.65327 0.10297 0.65111 0.0
O170 O 0.67366 0.13493 0.58533 0.0
H171 H 0.65557 0.17529 0.64598 0.0
H172 H 0.63589 0.18647 0.88844 0.0
H173 H 0.65711 0.11302 0.80345 0.0
O174 O 0.86564 0.17551 0.22649 0.0
Tb175 Tb 0.87304 0.13515 0.24255 0.0
Eu176 Eu 0.85482 0.12694 0.03793 0.0
C177 C 0.85237 0.18967 0.28213 0.0
O178 O 0.84068 0.17889 0.34524 0.0
C179 C 0.80458 0.12012 0.17436 0.0
O180 O 0.85358 0.08459 0.04666 0.0
C181 C 0.83847 0.1426 0.90117 0.0
C182 C 0.8796 0.07077 0.02045 0.0
O183 O 0.90723 0.08205 0.99149 0.0
C184 C 0.93053 0.1317 0.11883 0.0
C185 C 0.85542 0.15322 0.83191 0.0
C186 C 0.85541 0.17917 0.81945 0.0
C187 C 0.86813 0.18897 0.74971 0.0
C188 C 0.88191 0.17297 0.69393 0.0
C189 C 0.88096 0.14718 0.70439 0.0
C190 C 0.86808 0.13732 0.77356 0.0
O191 O 0.8324 0.10996 0.20423 0.0
O192 O 0.80882 0.13493 0.11542 0.0
O193 O 0.90642 0.13079 0.34419 0.0
O194 O 0.85157 0.12474 0.35432 0.0
C195 C 0.88131 0.12429 0.3908 0.0
O196 O 0.91058 0.13954 0.0617 0.0
O197 O 0.9174 0.12061 0.1798 0.0
O198 O 0.84491 0.11909 0.91679 0.0
O199 O 0.83716 0.15682 0.96309 0.0
H200 H 0.84393 0.19161 0.86187 0.0
H201 H 0.89065 0.18058 0.63906 0.0
H202 H 0.86627 0.11728 0.77984 0.0
O203 O 0.62977 0.80533 0.70992 0.0
Tb204 Tb 0.63607 0.84541 0.71015 0.0
Eu205 Eu 0.6373 0.88896 0.5238 0.0
C206 C 0.65284 0.79143 0.6737 0.0
O207 O 0.67696 0.80238 0.63156 0.0
C208 C 0.69389 0.87543 0.6418 0.0
O209 O 0.63326 0.93059 0.52588 0.0
C210 C 0.66114 0.87227 0.39277 0.0
C211 C 0.60934 0.94335 0.4885 0.0
O212 O 0.58623 0.93159 0.44542 0.0
C213 C 0.56689 0.86347 0.61369 0.0
C214 C 0.6544 0.85568 0.32566 0.0
C215 C 0.64991 0.82979 0.33566 0.0
C216 C 0.64707 0.81397 0.27116 0.0
C217 C 0.64928 0.82408 0.19677 0.0
C218 C 0.65397 0.84964 0.18535 0.0
C219 C 0.65612 0.86551 0.24994 0.0
O220 O 0.67694 0.8547 0.62994 0.0
O221 O 0.68119 0.89512 0.60828 0.0
O222 O 0.66203 0.83834 0.82025 0.0
O223 O 0.63176 0.87119 0.80902 0.0
C224 C 0.65125 0.85818 0.8559 0.0
O225 O 0.58303 0.87407 0.55397 0.0
O226 O 0.58251 0.85427 0.67601 0.0
O227 O 0.64258 0.89284 0.39848 0.0
O228 O 0.66785 0.86176 0.46008 0.0
H229 H 0.64911 0.82185 0.39324 0.0
H230 H 0.64826 0.8118 0.14687 0.0
H231 H 0.66051 0.88526 0.24134 0.0
O232 O 0.63934 0.69435 0.20341 0.0
Tb233 Tb 0.64355 0.65424 0.18889 0.0
Eu234 Eu 0.65219 0.61103 0.9859 0.0
C235 C 0.6535 0.70622 0.26244 0.0
O236 O 0.67254 0.69386 0.31263 0.0
C237 C 0.70204 0.62505 0.11378 0.0
O238 O 0.64177 0.57054 0.96399 0.0
C239 C 0.67292 0.63338 0.8609 0.0
C240 C 0.63741 0.55548 0.02297 0.0
O241 O 0.63814 0.56485 0.09322 0.0
C242 C 0.57922 0.63394 0.075 0.0
C243 C 0.66107 0.6459 0.78916 0.0
C244 C 0.65803 0.67206 0.78702 0.0
C245 C 0.65136 0.68427 0.71689 0.0
C246 C 0.64642 0.67035 0.6495 0.0
C247 C 0.64995 0.64448 0.65008 0.0
C248 C 0.65746 0.63222 0.71967 0.0
O249 O 0.68146 0.64417 0.1029 0.0
O250 O 0.6966 0.60606 0.06876 0.0
O251 O 0.67453 0.64376 0.29025 0.0
O252 O 0.62153 0.63262 0.28492 0.0
C253 C 0.6498 0.6321 0.32691 0.0
O254 O 0.59664 0.62176 0.02014 0.0
O255 O 0.59299 0.64575 0.13556 0.0
O256 O 0.6682 0.60918 0.8656 0.0
O257 O 0.66842 0.64503 0.92734 0.0
H258 H 0.66272 0.68305 0.8387 0.0
H259 H 0.64183 0.67987 0.59505 0.0
H260 H 0.66165 0.61227 0.7189 0.0
O261 O 0.87637 0.30935 0.69647 0.0
Tb262 Tb 0.86136 0.34807 0.6999 0.0
Eu263 Eu 0.8522 0.38819 0.49527 0.0
C264 C 0.85515 0.29296 0.66507 0.0
O265 O 0.82773 0.30086 0.62632 0.0
C266 C 0.80185 0.37532 0.62355 0.0
O267 O 0.85807 0.42951 0.46711 0.0
C268 C 0.8324 0.35927 0.38122 0.0
C269 C 0.88021 0.44337 0.50735 0.0
O270 O 0.89904 0.43264 0.56148 0.0
C271 C 0.92524 0.37209 0.59784 0.0
C272 C 0.84063 0.34181 0.31589 0.0
C273 C 0.84444 0.31572 0.32732 0.0
C274 C 0.84745 0.29921 0.2634 0.0
C275 C 0.84521 0.30917 0.18844 0.0
C276 C 0.84138 0.33479 0.17592 0.0
C277 C 0.83965 0.35101 0.23949 0.0
O278 O 0.82273 0.35638 0.61395 0.0
O279 O 0.80763 0.39428 0.57855 0.0
O280 O 0.83095 0.33776 0.80177 0.0
O281 O 0.86475 0.36894 0.80965 0.0
C282 C 0.84276 0.35494 0.84782 0.0
O283 O 0.90781 0.37886 0.53449 0.0
O284 O 0.91155 0.36382 0.66386 0.0
O285 O 0.83938 0.38316 0.37311 0.0
O286 O 0.83549 0.35154 0.45307 0.0
H287 H 0.84465 0.30823 0.38548 0.0
H288 H 0.84571 0.2968 0.13879 0.0
H289 H 0.83573 0.37071 0.22912 0.0
O290 O 0.63652 0.30564 0.79687 0.0
Tb291 Tb 0.6404 0.34599 0.79496 0.0
Eu292 Eu 0.64793 0.39219 0.99339 0.0
C293 C 0.64923 0.29179 0.74065 0.0
O294 O 0.66559 0.30238 0.68256 0.0
C295 C 0.69667 0.37851 0.86744 0.0
O296 O 0.63875 0.43253 0.02008 0.0
C297 C 0.67088 0.36894 0.11505 0.0
C298 C 0.63532 0.44873 0.96384 0.0
O299 O 0.63624 0.44075 0.89194 0.0
C300 C 0.57545 0.36888 0.90035 0.0
C301 C 0.66263 0.35391 0.18457 0.0
C302 C 0.66142 0.3277 0.17987 0.0
C303 C 0.65828 0.31321 0.24717 0.0
C304 C 0.65616 0.3251 0.31911 0.0
C305 C 0.6573 0.35102 0.32491 0.0
C306 C 0.6605 0.36547 0.25784 0.0
O307 O 0.67494 0.36027 0.88173 0.0
O308 O 0.69224 0.39814 0.91012 0.0
O309 O 0.62004 0.36434 0.69083 0.0
O310 O 0.6728 0.35258 0.6927 0.0
C311 C 0.64887 0.36317 0.65091 0.0
O312 O 0.5925 0.38065 0.95712 0.0
O313 O 0.58943 0.35668 0.84096 0.0
O314 O 0.66196 0.39257 0.1153 0.0
O315 O 0.66818 0.35838 0.04648 0.0
H316 H 0.6634 0.31853 0.12415 0.0
H317 H 0.65445 0.31409 0.37157 0.0
H318 H 0.66245 0.38553 0.26315 0.0
O319 O 0.86511 0.70081 0.28347 0.0
Tb320 Tb 0.86299 0.66016 0.28265 0.0
Eu321 Eu 0.86091 0.60822 0.47591 0.0
C322 C 0.84545 0.71451 0.23738 0.0
O323 O 0.82209 0.70352 0.19307 0.0
C324 C 0.80969 0.62459 0.35279 0.0
O325 O 0.86058 0.56589 0.48754 0.0
C326 C 0.84164 0.63094 0.60237 0.0
C327 C 0.88917 0.55224 0.48093 0.0
O328 O 0.91929 0.56353 0.46928 0.0
C329 C 0.93013 0.63588 0.38048 0.0
C330 C 0.84945 0.64779 0.66885 0.0
C331 C 0.85066 0.67407 0.66079 0.0
C332 C 0.85415 0.68957 0.72663 0.0
C333 C 0.85545 0.67854 0.79997 0.0
C334 C 0.85408 0.65275 0.80895 0.0
C335 C 0.85122 0.63739 0.7437 0.0
O336 O 0.82937 0.64394 0.36811 0.0
O337 O 0.81553 0.6049 0.39445 0.0
O338 O 0.83142 0.65334 0.17889 0.0
O339 O 0.88456 0.64232 0.17872 0.0
C340 C 0.85601 0.64321 0.13762 0.0
O341 O 0.91475 0.62061 0.43121 0.0
O342 O 0.91461 0.65085 0.32954 0.0
O343 O 0.85594 0.60863 0.60155 0.0
O344 O 0.83739 0.64048 0.53289 0.0
H345 H 0.84845 0.68245 0.60404 0.0
H346 H 0.85636 0.69017 0.85134 0.0
H347 H 0.84905 0.61743 0.75157 0.0
O348 O 0.35726 0.3069 0.83205 0.0
Tb349 Tb 0.35209 0.34692 0.82187 0.0
Eu350 Eu 0.35294 0.39234 0.01111 0.0
C351 C 0.37165 0.2936 0.77655 0.0
O352 O 0.38536 0.30509 0.71667 0.0
C353 C 0.2979 0.38037 0.89033 0.0
O354 O 0.36259 0.43313 0.03026 0.0
C355 C 0.3297 0.37206 0.1378 0.0
C356 C 0.36582 0.44841 0.97144 0.0
O357 O 0.36426 0.43935 0.90084 0.0
C358 C 0.42196 0.36778 0.91243 0.0
C359 C 0.33684 0.35545 0.20441 0.0
C360 C 0.34201 0.32972 0.19333 0.0
C361 C 0.34427 0.31362 0.25707 0.0
C362 C 0.34163 0.32338 0.33193 0.0
C363 C 0.33652 0.34885 0.34445 0.0
C364 C 0.33438 0.36495 0.28057 0.0
O365 O 0.31449 0.35969 0.90462 0.0
O366 O 0.30898 0.39989 0.92783 0.0
O367 O 0.32416 0.34002 0.7135 0.0
O368 O 0.35906 0.37068 0.71953 0.0
C369 C 0.33757 0.35845 0.67483 0.0
O370 O 0.40694 0.37873 0.97317 0.0
O371 O 0.40561 0.35671 0.85381 0.0
O372 O 0.3453 0.3939 0.13624 0.0
O373 O 0.32596 0.36193 0.0688 0.0
H374 H 0.34373 0.3221 0.13536 0.0
H375 H 0.3428 0.31092 0.38124 0.0
H376 H 0.32951 0.38459 0.29004 0.0
O377 O 0.14546 0.70138 0.29196 0.0
Tb378 Tb 0.15337 0.66128 0.29248 0.0
Eu379 Eu 0.15353 0.61661 0.48414 0.0
C380 C 0.17158 0.71654 0.27536 0.0
O381 O 0.20309 0.70721 0.26572 0.0
C382 C 0.20842 0.62909 0.36311 0.0
O383 O 0.14563 0.57551 0.50117 0.0
C384 C 0.17641 0.63731 0.61064 0.0
C385 C 0.1284 0.56206 0.45016 0.0
O386 O 0.11435 0.57318 0.39002 0.0
C387 C 0.08394 0.63994 0.38568 0.0
C388 C 0.16957 0.65334 0.67901 0.0
C389 C 0.16481 0.67927 0.67116 0.0
C390 C 0.1636 0.69476 0.73692 0.0
C391 C 0.16679 0.684 0.8104 0.0
C392 C 0.17087 0.65831 0.81954 0.0
C393 C 0.17213 0.64296 0.75382 0.0
O394 O 0.19152 0.6498 0.37609 0.0
O395 O 0.19744 0.60962 0.4008 0.0
O396 O 0.1447 0.63697 0.19154 0.0
O397 O 0.18387 0.66478 0.18614 0.0
C398 C 0.16858 0.64705 0.14778 0.0
O399 O 0.09929 0.62946 0.44664 0.0
O400 O 0.10014 0.65074 0.32639 0.0
O401 O 0.16207 0.61504 0.60881 0.0
O402 O 0.17894 0.64781 0.542 0.0
H403 H 0.16248 0.6874 0.6141 0.0
H404 H 0.1666 0.69578 0.86146 0.0
H405 H 0.1764 0.62314 0.76089 0.0
O406 O 0.35505 0.69457 0.19917 0.0
Tb407 Tb 0.36353 0.6549 0.18894 0.0
Eu408 Eu 0.35254 0.61115 0.97819 0.0
C409 C 0.3411 0.70459 0.26141 0.0
O410 O 0.32889 0.6902 0.3166 0.0
C411 C 0.30707 0.62315 0.10728 0.0
O412 O 0.36174 0.57048 0.95679 0.0
C413 C 0.33744 0.63547 0.8528 0.0
C414 C 0.36652 0.5559 0.01681 0.0
O415 O 0.36681 0.56598 0.08613 0.0
C416 C 0.42548 0.63534 0.07223 0.0
C417 C 0.35202 0.64823 0.78386 0.0
C418 C 0.35235 0.6745 0.78041 0.0
C419 C 0.36189 0.68678 0.71175 0.0
C420 C 0.37297 0.67269 0.64821 0.0
C421 C 0.37105 0.64672 0.64921 0.0
C422 C 0.36056 0.63447 0.71682 0.0
O423 O 0.33432 0.63758 0.0998 0.0
O424 O 0.30472 0.60675 0.05281 0.0
O425 O 0.39564 0.64185 0.28495 0.0
O426 O 0.3406 0.63654 0.29008 0.0
C427 C 0.37005 0.63329 0.32693 0.0
O428 O 0.40771 0.62031 0.02441 0.0
O429 O 0.41231 0.65076 0.12513 0.0
O430 O 0.3402 0.61108 0.85581 0.0
O431 O 0.34098 0.64635 0.92077 0.0
H432 H 0.34319 0.68533 0.82936 0.0
H433 H 0.38042 0.68206 0.59508 0.0
H434 H 0.35785 0.61438 0.71592 0.0
O435 O 0.14543 0.31278 0.72079 0.0
Tb436 Tb 0.14265 0.35295 0.70908 0.0
Eu437 Eu 0.15136 0.39968 0.50817 0.0
C438 C 0.15749 0.30227 0.78421 0.0
O439 O 0.16932 0.31635 0.84068 0.0
C440 C 0.19981 0.38424 0.6327 0.0
O441 O 0.14888 0.44144 0.50228 0.0
C442 C 0.16957 0.37885 0.37862 0.0
C443 C 0.12405 0.45361 0.46575 0.0
O444 O 0.09972 0.4411 0.42836 0.0
C445 C 0.07885 0.37413 0.59757 0.0
C446 C 0.15847 0.36438 0.30962 0.0
C447 C 0.15797 0.33803 0.31036 0.0
C448 C 0.15204 0.32458 0.24154 0.0
C449 C 0.14575 0.33758 0.1729 0.0
C450 C 0.14679 0.36354 0.17103 0.0
C451 C 0.15322 0.37695 0.239 0.0
O452 O 0.17607 0.36712 0.62062 0.0
O453 O 0.19804 0.40298 0.58598 0.0
O454 O 0.17058 0.36788 0.80958 0.0
O455 O 0.11531 0.37015 0.80666 0.0
C456 C 0.14304 0.37512 0.84759 0.0
O457 O 0.09622 0.38877 0.54836 0.0
O458 O 0.0926 0.35967 0.65216 0.0
O459 O 0.15897 0.40211 0.38396 0.0
O460 O 0.17151 0.36742 0.4459 0.0
H461 H 0.16386 0.32801 0.36314 0.0
H462 H 0.14145 0.32736 0.11947 0.0
H463 H 0.15529 0.39706 0.23614 0.0
C464 C 0.98888 0.13088 0.05239 0.0
C465 C 0.9686 0.13644 0.11784 0.0
C466 C 0.02557 0.13327 0.05431 0.0
C467 C 0.04323 0.14163 0.12149 0.0
H468 H 0.97645 0.12381 1.0004 0.0
H469 H 0.04014 0.12798 0.00311 0.0
S470 S 1.00043 0.16191 0.3046 0.0
N471 N 0.96776 0.15271 0.24882 0.0
N472 N 0.0363 0.15775 0.2528 0.0
C473 C 0.02265 0.14843 0.18604 0.0
C474 C 0.98547 0.14569 0.18409 0.0
C475 C 0.47217 0.87453 0.54905 0.0
C476 C 0.45216 0.86363 0.60845 0.0
C477 C 0.50903 0.87409 0.5507 0.0
C478 C 0.52759 0.86253 0.61154 0.0
H479 H 0.45931 0.88405 0.50169 0.0
H480 H 0.52297 0.88325 0.50418 0.0
S481 S 0.48706 0.82902 0.77755 0.0
N482 N 0.45343 0.8395 0.72723 0.0
N483 N 0.52231 0.83841 0.73052 0.0
C484 C 0.50768 0.85082 0.67011 0.0
C485 C 0.47016 0.85145 0.66854 0.0
C486 C 0.97594 0.88514 0.97539 0.0
C487 C 0.95714 0.87882 0.90789 0.0
C488 C 0.01286 0.88489 0.97656 0.0
C489 C 0.03226 0.87827 0.91031 0.0
H490 H 0.96206 0.88976 0.02816 0.0
H491 H 0.02624 0.88937 0.03012 0.0
S492 S 0.99564 0.86393 0.71583 0.0
N493 N 0.96094 0.86834 0.77109 0.0
N494 N 0.02977 0.86784 0.77325 0.0
C495 C 0.0137 0.87294 0.84173 0.0
C496 C 0.97634 0.87322 0.84053 0.0
C497 C 0.51898 0.11429 0.4728 0.0
C498 C 0.53798 0.13547 0.44924 0.0
C499 C 0.48215 0.11426 0.47337 0.0
C500 C 0.46311 0.13542 0.45047 0.0
H501 H 0.53258 0.09726 0.48773 0.0
H502 H 0.46858 0.09723 0.48858 0.0
S503 S 0.50057 0.19693 0.39696 0.0
N504 N 0.53506 0.17903 0.41163 0.0
N505 N 0.4661 0.17907 0.4131 0.0
C506 C 0.48189 0.15718 0.43153 0.0
C507 C 0.51924 0.15718 0.43076 0.0
C508 C 0.52057 0.64336 0.13335 0.0
C509 C 0.54004 0.63414 0.07026 0.0
C510 C 0.48394 0.64366 0.13264 0.0
C511 C 0.46458 0.63477 0.06884 0.0
H512 H 0.53356 0.65028 0.1848 0.0
H513 H 0.47077 0.65072 0.18371 0.0
S514 S 0.50229 0.60922 0.88721 0.0
N515 N 0.53682 0.61619 0.94074 0.0
N516 N 0.46774 0.61681 0.9397 0.0
C517 C 0.48348 0.62552 0.00492 0.0
C518 C 0.52112 0.62523 0.00554 0.0
C519 C 0.02059 0.3575 0.64132 0.0
C520 C 0.03963 0.37387 0.5932 0.0
C521 C 0.98392 0.35723 0.64219 0.0
C522 C 0.96423 0.37317 0.59464 0.0
H523 H 0.03395 0.34466 0.67951 0.0
H524 H 0.97094 0.34416 0.68032 0.0
S525 S 1.00043 0.41991 0.45793 0.0
N526 N 0.03538 0.40674 0.49653 0.0
N527 N 0.96635 0.40597 0.49785 0.0
C528 C 0.98262 0.38952 0.54546 0.0
C529 C 0.02023 0.38994 0.54485 0.0
C530 C 0.48136 0.37151 0.97601 0.0
C531 C 0.46105 0.36836 0.90848 0.0
C532 C 0.51824 0.37198 0.9731 0.0
C533 C 0.53635 0.36932 0.90252 0.0
H534 H 0.46873 0.37329 0.03188 0.0
H535 H 0.53263 0.37401 0.02679 0.0
S536 S 0.49558 0.36345 0.70774 0.0
N537 N 0.46209 0.36445 0.76803 0.0
N538 N 0.53088 0.36537 0.76261 0.0
C539 C 0.51631 0.36685 0.83432 0.0
C540 C 0.47888 0.36635 0.83727 0.0
C541 C 0.02524 0.63223 0.4491 0.0
C542 C 0.04469 0.63908 0.38295 0.0
C543 C 0.98839 0.63093 0.44775 0.0
C544 C 0.96927 0.63654 0.38031 0.0
H545 H 0.03848 0.62793 0.50288 0.0
H546 H 0.97481 0.62586 0.50046 0.0
S547 S 0.00717 0.65345 0.18923 0.0
N548 N 0.0415 0.65019 0.24639 0.0
N549 N 0.97272 0.6478 0.24416 0.0
C550 C 0.98832 0.643 0.31334 0.0
C551 C 0.02579 0.64427 0.31458 0.0
C552 C 0.13523 0.23462 0.74584 0.0
C553 C 0.15828 0.22154 0.79476 0.0
C554 C 0.13491 0.26065 0.74381 0.0
C555 C 0.15719 0.27478 0.7916 0.0
H556 H 0.11782 0.22462 0.70713 0.0
H557 H 0.11721 0.26973 0.70378 0.0
S558 S 0.22074 0.24981 0.93447 0.0
N559 N 0.20312 0.22481 0.89449 0.0
N560 N 0.20153 0.27385 0.8929 0.0
C561 C 0.17913 0.26205 0.84378 0.0
C562 C 0.17985 0.23542 0.845 0.0
C563 C 0.31153 0.76961 0.31857 0.0
C564 C 0.33478 0.78481 0.2767 0.0
C565 C 0.31415 0.74355 0.315 0.0
C566 C 0.34008 0.73197 0.26948 0.0
H567 H 0.29016 0.77787 0.35094 0.0
H568 H 0.29489 0.73242 0.34546 0.0
S569 S 0.4104 0.76386 0.15878 0.0
N570 N 0.38671 0.78667 0.19564 0.0
N571 N 0.3917 0.73786 0.18867 0.0
C572 C 0.36462 0.7471 0.23103 0.0
C573 C 0.36201 0.77348 0.23491 0.0
C574 C 0.13266 0.7539 0.28643 0.0
C575 C 0.16527 0.74365 0.2654 0.0
C576 C 0.12619 0.77949 0.27974 0.0
C577 C 0.15187 0.79582 0.25079 0.0
H578 H 0.11212 0.74218 0.30983 0.0
H579 H 0.10109 0.78667 0.29878 0.0
S580 S 0.24112 0.77865 0.18473 0.0
N581 N 0.2233 0.75203 0.21198 0.0
N582 N 0.21088 0.80008 0.19966 0.0
C583 C 0.18423 0.78585 0.22754 0.0
C584 C 0.19101 0.7598 0.23491 0.0
C585 C 0.3871 0.25174 0.72103 0.0
C586 C 0.37033 0.26595 0.77891 0.0
C587 C 0.38532 0.22561 0.72078 0.0
C588 C 0.36678 0.21274 0.7785 0.0
H589 H 0.40178 0.26083 0.67544 0.0
H590 H 0.39889 0.21541 0.67574 0.0
S591 S 0.31645 0.24088 0.94008 0.0
N592 N 0.33356 0.26488 0.89409 0.0
N593 N 0.32968 0.21602 0.89234 0.0
C594 C 0.34941 0.22667 0.8358 0.0
C595 C 0.35135 0.25318 0.8364 0.0
C596 C 0.82404 0.7568 0.19691 0.0
C597 C 0.84941 0.74212 0.23488 0.0
C598 C 0.82632 0.78292 0.19604 0.0
C599 C 0.85413 0.79543 0.23287 0.0
H600 H 0.80164 0.74812 0.16922 0.0
H601 H 0.80538 0.79341 0.16911 0.0
S602 S 0.92965 0.76591 0.33225 0.0
N603 N 0.90484 0.74227 0.30484 0.0
N604 N 0.9092 0.7912 0.30235 0.0
C605 C 0.88051 0.781 0.26789 0.0
C606 C 0.87813 0.75443 0.26918 0.0
C607 C 0.67117 0.24938 0.7064 0.0
C608 C 0.64611 0.26437 0.74376 0.0
C609 C 0.66979 0.22336 0.71153 0.0
C610 C 0.64305 0.21134 0.75346 0.0
H611 H 0.69267 0.25782 0.67488 0.0
H612 H 0.69051 0.21263 0.68458 0.0
S613 S 0.5685 0.24207 0.8531 0.0
N614 N 0.59225 0.26531 0.81898 0.0
N615 N 0.58904 0.21639 0.82666 0.0
C616 C 0.61694 0.22611 0.78812 0.0
C617 C 0.61862 0.25261 0.78379 0.0
C618 C 0.87861 0.25909 0.74947 0.0
C619 C 0.85891 0.26628 0.68411 0.0
C620 C 0.88068 0.23409 0.77216 0.0
C621 C 0.86349 0.21546 0.72967 0.0
H622 H 0.89214 0.2729 0.78419 0.0
H623 H 0.89628 0.22924 0.82232 0.0
S624 S 0.8085 0.2242 0.55469 0.0
N625 N 0.82176 0.25254 0.57769 0.0
N626 N 0.82583 0.20559 0.62028 0.0
C627 C 0.84366 0.22232 0.6645 0.0
C628 C 0.84135 0.24772 0.64168 0.0
C629 C 0.67236 0.7474 0.31725 0.0
C630 C 0.64895 0.73351 0.27099 0.0
C631 C 0.67032 0.77347 0.32109 0.0
C632 C 0.64465 0.78653 0.27924 0.0
H633 H 0.6933 0.73819 0.34839 0.0
H634 H 0.69 0.78352 0.35393 0.0
S635 S 0.57373 0.75886 0.15982 0.0
N636 N 0.59692 0.73475 0.1894 0.0
N637 N 0.59296 0.78362 0.19754 0.0
C638 C 0.61977 0.77279 0.23689 0.0
C639 C 0.62196 0.74633 0.23246 0.0
C640 C 0.6282 0.75266 0.73362 0.0
C641 C 0.65325 0.76407 0.68509 0.0
C642 C 0.62834 0.72685 0.74626 0.0
C643 C 0.65341 0.71163 0.71049 0.0
H644 H 0.60816 0.76369 0.76184 0.0
H645 H 0.60824 0.71869 0.78258 0.0
S646 S 0.72598 0.7319 0.58252 0.0
N647 N 0.70488 0.75781 0.60408 0.0
N648 N 0.70481 0.70945 0.62798 0.0
C649 C 0.67901 0.72271 0.6634 0.0
C650 C 0.67901 0.74889 0.65059 0.0
C651 C 0.82882 0.25796 0.32231 0.0
C652 C 0.85103 0.2714 0.27234 0.0
C653 C 0.82933 0.23168 0.32463 0.0
C654 C 0.85186 0.21757 0.27669 0.0
H655 H 0.81018 0.26777 0.35845 0.0
H656 H 0.81144 0.22233 0.36367 0.0
S657 S 0.91787 0.24365 0.14138 0.0
N658 N 0.89841 0.26838 0.17846 0.0
N659 N 0.89857 0.21935 0.18142 0.0
C660 C 0.87473 0.23078 0.22782 0.0
C661 C 0.87455 0.2575 0.22613 0.0
C662 C 0.63326 0.27237 0.28857 0.0
C663 C 0.65813 0.28558 0.24457 0.0
C664 C 0.63431 0.24641 0.2939 0.0
C665 C 0.65997 0.23259 0.25453 0.0
H666 H 0.61293 0.28224 0.31985 0.0
H667 H 0.61462 0.2371 0.32862 0.0
S668 S 0.73191 0.25812 0.13373 0.0
N669 N 0.70995 0.2829 0.16295 0.0
N670 N 0.71119 0.23389 0.17079 0.0
C671 C 0.68476 0.24544 0.2094 0.0
C672 C 0.68399 0.27199 0.20481 0.0
C673 C 0.82365 0.75613 0.68995 0.0
C674 C 0.84645 0.77033 0.73698 0.0
C675 C 0.82729 0.73012 0.68319 0.0
C676 C 0.85417 0.71736 0.72236 0.0
H677 H 0.80221 0.76509 0.65977 0.0
H678 H 0.80813 0.71984 0.64957 0.0
S679 S 0.92374 0.74628 0.84353 0.0
N680 N 0.8986 0.76985 0.81772 0.0
N681 N 0.90613 0.72134 0.80319 0.0
C682 C 0.8782 0.73157 0.76613 0.0
C683 C 0.87413 0.7579 0.77405 0.0
C684 C 0.37265 0.27331 0.29172 0.0
C685 C 0.34772 0.28631 0.24741 0.0
C686 C 0.37357 0.24728 0.29212 0.0
C687 C 0.34995 0.23328 0.2473 0.0
H688 H 0.39113 0.28338 0.32777 0.0
H689 H 0.39287 0.23805 0.32802 0.0
S690 S 0.27876 0.25819 0.12357 0.0
N691 N 0.29812 0.28319 0.15949 0.0
N692 N 0.30072 0.23414 0.15786 0.0
C693 C 0.32542 0.24596 0.2012 0.0
C694 C 0.32412 0.27252 0.20174 0.0
C695 C 0.13706 0.761 0.78657 0.0
C696 C 0.15809 0.77555 0.7375 0.0
C697 C 0.13784 0.73497 0.78305 0.0
C698 C 0.16013 0.72233 0.73125 0.0
H699 H 0.11968 0.76974 0.82806 0.0
H700 H 0.12113 0.72463 0.82226 0.0
S701 S 0.22018 0.75189 0.5895 0.0
N702 N 0.20111 0.77553 0.63364 0.0
N703 N 0.20362 0.72651 0.62911 0.0
C704 C 0.18088 0.73666 0.68075 0.0
C705 C 0.17967 0.76327 0.68355 0.0
C706 C 0.37089 0.73122 0.75382 0.0
C707 C 0.35625 0.71396 0.70178 0.0
C708 C 0.3665 0.75696 0.74278 0.0
C709 C 0.34687 0.76624 0.68003 0.0
H710 H 0.38611 0.7248 0.8028 0.0
H711 H 0.37798 0.76964 0.78455 0.0
S712 S 0.30362 0.7287 0.5269 0.0
N713 N 0.3213 0.70795 0.58531 0.0
N714 N 0.31351 0.75613 0.56429 0.0
C715 C 0.33219 0.74914 0.62765 0.0
C716 C 0.33675 0.72306 0.63863 0.0
C717 C 0.17786 0.28653 0.18164 0.0
C718 C 0.15537 0.29707 0.23731 0.0
C719 C 0.17922 0.26078 0.16975 0.0
C720 C 0.15807 0.24441 0.21284 0.0
H721 H 0.19432 0.29837 0.14615 0.0
H722 H 0.19672 0.25372 0.12554 0.0
S723 S 0.09566 0.2626 0.36798 0.0
N724 N 0.11214 0.28928 0.3374 0.0
N725 N 0.11472 0.24067 0.31573 0.0
C726 C 0.13587 0.25467 0.26984 0.0
C727 C 0.13464 0.28102 0.28214 0.0
C728 C 0.13989 0.99811 0.0234 0.0
C729 C 0.10874 0.98479 0.03753 0.0
C730 C 0.14079 0.02412 0.02624 0.0
C731 C 0.11062 0.0381 0.04383 0.0
H732 H 0.16399 0.98841 0.00957 0.0
H733 H 0.16557 0.03329 0.01496 0.0
S734 S 0.02207 0.01245 0.08494 0.0
N735 N 0.04665 0.98766 0.06931 0.0
N736 N 0.04842 0.03666 0.07506 0.0
C737 C 0.07919 0.02511 0.05821 0.0
C738 C 0.07821 0.99848 0.05491 0.0
C739 C 0.36128 0.98896 0.5946 0.0
C740 C 0.36701 0.9717 0.53458 0.0
C741 C 0.36224 0.01467 0.58094 0.0
C742 C 0.36904 0.02427 0.50665 0.0
H743 H 0.35511 0.98264 0.65253 0.0
H744 H 0.35689 0.02706 0.62897 0.0
S745 S 0.38871 0.98705 0.33055 0.0
N746 N 0.38185 0.96611 0.39866 0.0
N747 N 0.38367 0.01436 0.373 0.0
C748 C 0.37603 0.00724 0.44656 0.0
C749 C 0.37501 0.98101 0.46047 0.0
C750 C 0.90646 0.00281 0.99287 0.0
C751 C 0.8761 0.98911 0.01194 0.0
C752 C 0.90727 0.02894 0.99682 0.0
C753 C 0.8778 0.04285 0.02034 0.0
H754 H 0.93 0.99331 0.9739 0.0
H755 H 0.93137 0.03829 0.98075 0.0
S756 S 0.79181 0.01628 0.07914 0.0
N757 N 0.81577 0.99168 0.05707 0.0
N758 N 0.81734 0.0407 0.06477 0.0
C759 C 0.84734 0.02945 0.04085 0.0
C760 C 0.84646 0.00271 0.03655 0.0
C761 C 0.59196 0.9852 0.43723 0.0
C762 C 0.60997 0.97092 0.49259 0.0
C763 C 0.5943 0.01127 0.43708 0.0
C764 C 0.61457 0.02409 0.4925 0.0
H765 H 0.57661 0.97619 0.39249 0.0
H766 H 0.58048 0.02137 0.39226 0.0
S767 S 0.66441 0.99542 0.65423 0.0
N768 N 0.64705 0.97164 0.60736 0.0
N769 N 0.65139 0.02044 0.60711 0.0
C770 C 0.63178 0.01005 0.54978 0.0
C771 C 0.62949 0.98353 0.54975 0.0
C772 C 0.63428 0.49306 0.91985 0.0
C773 C 0.63318 0.47578 0.98091 0.0
C774 C 0.63484 0.51873 0.93413 0.0
C775 C 0.63426 0.52824 0.01006 0.0
H776 H 0.63544 0.48678 0.86034 0.0
H777 H 0.63634 0.53116 0.88494 0.0
S778 S 0.62897 0.49096 0.19058 0.0
N779 N 0.62974 0.47007 0.12048 0.0
N780 N 0.6308 0.51828 0.14724 0.0
C781 C 0.63207 0.51121 0.07174 0.0
C782 C 0.63154 0.48501 0.05716 0.0
C783 C 0.85384 0.4853 0.47517 0.0
C784 C 0.88322 0.47087 0.49567 0.0
C785 C 0.85583 0.51153 0.47119 0.0
C786 C 0.88747 0.52439 0.48581 0.0
H787 H 0.82886 0.47633 0.46428 0.0
H788 H 0.83236 0.52179 0.45615 0.0
S789 S 0.9725 0.49509 0.5379 0.0
N790 N 0.94515 0.47142 0.52879 0.0
N791 N 0.94915 0.52025 0.51949 0.0
C792 C 0.91722 0.51004 0.50444 0.0
C793 C 0.91502 0.48346 0.50985 0.0
C794 C 0.36573 0.51798 0.93239 0.0
C795 C 0.36892 0.5285 0.00671 0.0
C796 C 0.3656 0.49212 0.92144 0.0
C797 C 0.36859 0.47567 0.9844 0.0
H798 H 0.36266 0.52977 0.88202 0.0
H799 H 0.36237 0.48504 0.86318 0.0
S800 S 0.38011 0.49363 0.1906 0.0
N801 N 0.377 0.52034 0.14415 0.0
N802 N 0.37674 0.47183 0.12361 0.0
C803 C 0.37283 0.48592 0.05888 0.0
C804 C 0.37301 0.51228 0.07006 0.0
C805 C 0.10399 0.49443 0.41116 0.0
C806 C 0.12433 0.48126 0.46529 0.0
C807 C 0.10516 0.52052 0.40735 0.0
C808 C 0.12641 0.53453 0.458 0.0
H809 H 0.08753 0.48454 0.37033 0.0
H810 H 0.08938 0.52974 0.3638 0.0
S811 S 0.18318 0.50905 0.61372 0.0
N812 N 0.16531 0.48429 0.57299 0.0
N813 N 0.16736 0.53315 0.5661 0.0
C814 C 0.14621 0.5216 0.51379 0.0
C815 C 0.14521 0.49504 0.51729 0.0
C816 C 0.24032 0.10566 0.24597 0.0
C817 C 0.23078 0.12908 0.21627 0.0
C818 C 0.2651 0.10356 0.3056 0.0
C819 C 0.28163 0.12475 0.33654 0.0
H820 H 0.22838 0.08882 0.2236 0.0
H821 H 0.27147 0.0852 0.32731 0.0
S822 S 0.26538 0.19031 0.28036 0.0
N823 N 0.23996 0.17382 0.22242 0.0
N824 N 0.28602 0.16987 0.33509 0.0
C825 C 0.27233 0.14823 0.30752 0.0
C826 C 0.24714 0.15038 0.24699 0.0
C827 C 0.2499 0.86129 0.73277 0.0
C828 C 0.2652 0.88236 0.69792 0.0
C829 C 0.22518 0.86368 0.79225 0.0
C830 C 0.21435 0.88723 0.81822 0.0
H831 H 0.25707 0.84272 0.7141 0.0
H832 H 0.21447 0.84695 0.81809 0.0
S833 S 0.24556 0.9483 0.74566 0.0
N834 N 0.26732 0.92764 0.69373 0.0
N835 N 0.22048 0.93205 0.80491 0.0
C836 C 0.22924 0.90846 0.78397 0.0
C837 C 0.25456 0.90605 0.72356 0.0
C838 C 0.73357 0.90117 0.72552 0.0
C839 C 0.72119 0.87755 0.70275 0.0
C840 C 0.75931 0.90374 0.78298 0.0
C841 C 0.77395 0.88277 0.81917 0.0
H842 H 0.72322 0.9179 0.6991 0.0
H843 H 0.76793 0.92227 0.79885 0.0
S844 S 0.75059 0.8168 0.78195 0.0
N845 N 0.72603 0.83276 0.72106 0.0
N846 N 0.77356 0.83771 0.83049 0.0
C847 C 0.7617 0.85909 0.79765 0.0
C848 C 0.73567 0.85643 0.73883 0.0
C849 C 0.73152 0.09768 0.30249 0.0
C850 C 0.7183 0.11992 0.33392 0.0
C851 C 0.75841 0.09804 0.24745 0.0
C852 C 0.77262 0.12062 0.22139 0.0
H853 H 0.72168 0.07984 0.32206 0.0
H854 H 0.76883 0.0805 0.2266 0.0
S855 S 0.74863 0.18386 0.28806 0.0
N856 N 0.72249 0.16511 0.33725 0.0
N857 N 0.77229 0.1657 0.23131 0.0
C858 C 0.75923 0.14301 0.25083 0.0
C859 C 0.73229 0.14267 0.30803 0.0
C860 C 0.76752 0.64671 0.26577 0.0
C861 C 0.7832 0.62435 0.29006 0.0
C862 C 0.74121 0.64678 0.20892 0.0
C863 C 0.72899 0.62444 0.17564 0.0
H864 H 0.77562 0.66429 0.29087 0.0
H865 H 0.73031 0.66448 0.19106 0.0
S866 S 0.7609 0.56082 0.22068 0.0
N867 N 0.78452 0.57929 0.27665 0.0
N868 N 0.7345 0.57934 0.17174 0.0
C869 C 0.74428 0.60195 0.19993 0.0
C870 C 0.77132 0.60192 0.25707 0.0
C871 C 0.76254 0.39876 0.71459 0.0
C872 C 0.7755 0.37596 0.68655 0.0
C873 C 0.737 0.39951 0.77315 0.0
C874 C 0.72318 0.37747 0.80493 0.0
H875 H 0.77229 0.41617 0.69144 0.0
H876 H 0.72782 0.41747 0.79316 0.0
S877 S 0.74747 0.31296 0.74975 0.0
N878 N 0.77152 0.33083 0.69309 0.0
N879 N 0.72467 0.33221 0.80461 0.0
C880 C 0.73616 0.35458 0.77782 0.0
C881 C 0.76184 0.35383 0.71791 0.0
C882 C 0.23559 0.36112 0.72959 0.0
C883 C 0.22427 0.38396 0.69909 0.0
C884 C 0.25915 0.36027 0.79178 0.0
C885 C 0.27302 0.38219 0.82461 0.0
H886 H 0.22597 0.34376 0.70559 0.0
H887 H 0.26658 0.3422 0.8142 0.0
S888 S 0.252 0.44682 0.76473 0.0
N889 N 0.22856 0.42909 0.70607 0.0
N890 N 0.27353 0.42749 0.82167 0.0
C891 C 0.26206 0.40519 0.79424 0.0
C892 C 0.23776 0.40606 0.73135 0.0
C893 C 0.27494 0.64682 0.20932 0.0
C894 C 0.28266 0.62396 0.17359 0.0
C895 C 0.25092 0.64822 0.27061 0.0
C896 C 0.23341 0.62686 0.2978 0.0
H897 H 0.28747 0.66377 0.18957 0.0
H898 H 0.24612 0.66618 0.29704 0.0
S899 S 0.2441 0.56254 0.22247 0.0
N900 N 0.27085 0.57952 0.16902 0.0
N901 N 0.22546 0.58211 0.28363 0.0
C902 C 0.24086 0.60388 0.26226 0.0
C903 C 0.26535 0.60247 0.1999 0.0
C904 C 0.14429 0.13797 0.58023 0.0
C905 C 0.17251 0.14982 0.61758 0.0
C906 C 0.14351 0.13579 0.49912 0.0
C907 C 0.17067 0.14577 0.45344 0.0
H908 H 0.1217 0.13196 0.61333 0.0
H909 H 0.12035 0.12797 0.472 0.0
S910 S 0.25262 0.17501 0.52549 0.0
N911 N 0.23001 0.16865 0.60449 0.0
N912 N 0.22824 0.16519 0.45253 0.0
C913 C 0.20013 0.15586 0.49097 0.0
C914 C 0.20111 0.15775 0.57308 0.0
C915 C 0.29112 0.84347 0.04981 0.0
C916 C 0.31488 0.85549 0.09983 0.0
C917 C 0.29386 0.84598 0.96941 0.0
C918 C 0.32036 0.86067 0.93607 0.0
H919 H 0.2717 0.83073 0.07289 0.0
H920 H 0.27628 0.83521 0.93309 0.0
S921 S 0.38606 0.89865 0.04199 0.0
N922 N 0.36345 0.88457 0.11079 0.0
N923 N 0.36831 0.88965 0.95928 0.0
C924 C 0.34227 0.87457 0.98546 0.0
C925 C 0.33958 0.8719 0.06759 0.0
C926 C 0.10196 0.86877 0.53751 0.0
C927 C 0.13238 0.87505 0.57946 0.0
C928 C 0.10298 0.86582 0.45698 0.0
C929 C 0.13424 0.86955 0.41571 0.0
H930 H 0.07778 0.86437 0.56746 0.0
H931 H 0.07975 0.85911 0.42735 0.0
S932 S 0.21989 0.8892 0.49664 0.0
N933 N 0.19379 0.88724 0.57269 0.0
N934 N 0.19544 0.88192 0.42094 0.0
C935 C 0.16406 0.8778 0.45595 0.0
C936 C 0.16318 0.88055 0.53808 0.0
C937 C 0.39707 0.13627 0.97754 0.0
C938 C 0.3658 0.13621 0.93458 0.0
C939 C 0.39658 0.1332 0.05803 0.0
C940 C 0.36471 0.13047 0.09821 0.0
H941 H 0.42178 0.1404 0.94935 0.0
H942 H 0.42108 0.13494 0.08937 0.0
S943 S 0.27605 0.1263 0.01065 0.0
N944 N 0.30259 0.13078 0.93644 0.0
N945 N 0.30149 0.12522 0.08797 0.0
C946 C 0.33356 0.12837 0.05509 0.0
C947 C 0.33414 0.13124 0.97304 0.0
C948 C 0.88314 0.86729 0.45468 0.0
C949 C 0.85158 0.86706 0.41281 0.0
C950 C 0.88316 0.86961 0.53552 0.0
C951 C 0.85154 0.87129 0.57726 0.0
H952 H 0.90783 0.8643 0.42506 0.0
H953 H 0.90801 0.86849 0.56571 0.0
S954 S 0.76204 0.87346 0.49321 0.0
N955 N 0.78818 0.87044 0.41758 0.0
N956 N 0.78798 0.87451 0.56976 0.0
C957 C 0.81992 0.87254 0.53547 0.0
C958 C 0.81999 0.87044 0.45306 0.0
C959 C 0.6104 0.14215 0.97414 0.0
C960 C 0.64212 0.13947 0.93376 0.0
C961 C 0.60896 0.13882 0.0544 0.0
C962 C 0.63935 0.13317 0.097 0.0
H963 H 0.58697 0.14812 0.94394 0.0
H964 H 0.58435 0.14238 0.08369 0.0
S965 S 0.72814 0.12185 0.01669 0.0
N966 N 0.70388 0.12878 0.94048 0.0
N967 N 0.70142 0.1228 0.09187 0.0
C968 C 0.67075 0.12881 0.05649 0.0
C969 C 0.67209 0.13194 0.97458 0.0
C970 C 0.91623 0.13463 0.59067 0.0
C971 C 0.88576 0.13155 0.63539 0.0
C972 C 0.9158 0.12968 0.51124 0.0
C973 C 0.88481 0.1217 0.47484 0.0
H974 H 0.93924 0.1434 0.61558 0.0
H975 H 0.93877 0.13441 0.47737 0.0
S976 S 0.8007 0.10552 0.56983 0.0
N977 N 0.82589 0.11601 0.6405 0.0
N978 N 0.82515 0.10648 0.49105 0.0
C979 C 0.85573 0.11543 0.52064 0.0
C980 C 0.85623 0.12036 0.60141 0.0
C981 C 0.68356 0.84979 0.97768 0.0
C982 C 0.65608 0.86227 0.93994 0.0
C983 C 0.68458 0.84802 0.05847 0.0
C984 C 0.65806 0.85856 0.10462 0.0
H985 H 0.70335 0.84005 0.94439 0.0
H986 H 0.70495 0.83682 0.08484 0.0
S987 S 0.5827 0.89569 0.03479 0.0
N988 N 0.60371 0.88758 0.95502 0.0
N989 N 0.60542 0.88387 0.10741 0.0
C990 C 0.63205 0.87283 0.06814 0.0
C991 C 0.63111 0.87479 0.98551 0.0
C992 C 0.61905 0.62867 0.53343 0.0
C993 C 0.65056 0.63174 0.57452 0.0
C994 C 0.61914 0.62589 0.45268 0.0
C995 C 0.65074 0.6267 0.41067 0.0
H996 H 0.59415 0.6306 0.56304 0.0
H997 H 0.5942 0.62549 0.42268 0.0
S998 S 0.74034 0.6308 0.49327 0.0
N999 N 0.71409 0.6324 0.56911 0.0
N1000 N 0.71444 0.6275 0.41724 0.0
C1001 C 0.68249 0.62737 0.45202 0.0
C1002 C 0.68234 0.62986 0.53417 0.0
C1003 C 0.86343 0.36484 0.98261 0.0
C1004 C 0.83803 0.35435 0.93305 0.0
C1005 C 0.86329 0.35974 0.06259 0.0
C1006 C 0.83772 0.34404 0.09532 0.0
H1007 H 0.88473 0.3758 0.95893 0.0
H1008 H 0.88439 0.36695 0.09819 0.0
S1009 S 0.76219 0.31552 0.99312 0.0
N1010 N 0.78433 0.33006 0.92458 0.0
N1011 N 0.78399 0.32073 0.07414 0.0
C1012 C 0.81079 0.33506 0.04738 0.0
C1013 C 0.81095 0.34016 0.96642 0.0
C1014 C 0.68441 0.36246 0.53039 0.0
C1015 C 0.65204 0.36716 0.56663 0.0
C1016 C 0.68668 0.35983 0.44989 0.0
C1017 C 0.65674 0.36207 0.40305 0.0
H1018 H 0.70772 0.35905 0.56469 0.0
H1019 H 0.71145 0.35419 0.42466 0.0
S1020 S 0.56692 0.37764 0.46798 0.0
N1021 N 0.5902 0.3767 0.54859 0.0
N1022 N 0.59468 0.37162 0.39699 0.0
C1023 C 0.62492 0.36887 0.43767 0.0
C1024 C 0.62253 0.37153 0.51973 0.0
C1025 C 0.88512 0.63684 0.00959 0.0
C1026 C 0.85404 0.63918 0.05298 0.0
C1027 C 0.88471 0.63886 0.92856 0.0
C1028 C 0.85316 0.64282 0.8885 0.0
H1029 H 0.91022 0.63525 0.03857 0.0
H1030 H 0.90941 0.63903 0.89758 0.0
S1031 S 0.7643 0.64697 0.97362 0.0
N1032 N 0.79052 0.64316 0.04879 0.0
N1033 N 0.78994 0.64676 0.89664 0.0
C1034 C 0.82171 0.64319 0.9305 0.0
C1035 C 0.82209 0.64135 0.01283 0.0
C1036 C 0.30576 0.34671 0.47126 0.0
C1037 C 0.33223 0.3575 0.42549 0.0
C1038 C 0.30636 0.34873 0.55207 0.0
C1039 C 0.33344 0.36163 0.59021 0.0
H1040 H 0.28566 0.33528 0.44457 0.0
H1041 H 0.2865 0.33896 0.58505 0.0
S1042 S 0.40675 0.39554 0.49626 0.0
N1043 N 0.3845 0.38331 0.42341 0.0
N1044 N 0.38554 0.3874 0.5757 0.0
C1045 C 0.35849 0.37421 0.5449 0.0
C1046 C 0.35791 0.37206 0.46231 0.0
C1047 C 0.2015 0.65481 0.0262 0.0
C1048 C 0.17293 0.64338 0.06343 0.0
C1049 C 0.20231 0.65738 0.94558 0.0
C1050 C 0.17465 0.64852 0.89922 0.0
H1051 H 0.22236 0.66327 0.05986 0.0
H1052 H 0.22355 0.6679 0.9197 0.0
S1053 S 0.09617 0.61424 0.96712 0.0
N1054 N 0.11818 0.62066 0.04714 0.0
N1055 N 0.11974 0.62567 0.89518 0.0
C1056 C 0.14748 0.63513 0.93492 0.0
C1057 C 0.14663 0.63248 0.01728 0.0
C1058 C 0.34247 0.62762 0.53513 0.0
C1059 C 0.37366 0.63373 0.57423 0.0
C1060 C 0.34202 0.62488 0.45442 0.0
C1061 C 0.37279 0.62814 0.41066 0.0
H1062 H 0.31774 0.62748 0.56603 0.0
H1063 H 0.31696 0.62235 0.42582 0.0
S1064 S 0.46219 0.6393 0.48843 0.0
N1065 N 0.43659 0.63938 0.56551 0.0
N1066 N 0.43618 0.63366 0.41393 0.0
C1067 C 0.40475 0.63132 0.45029 0.0
C1068 C 0.40507 0.63431 0.53226 0.0
C1069 C 0.176 0.3786 0.05227 0.0
C1070 C 0.14491 0.37565 0.09485 0.0
C1071 C 0.17506 0.38107 0.97159 0.0
C1072 C 0.14298 0.38054 0.93133 0.0
H1073 H 0.20121 0.37671 0.08062 0.0
H1074 H 0.19968 0.38132 0.94028 0.0
S1075 S 0.05426 0.37746 0.01886 0.0
N1076 N 0.08138 0.37546 0.09315 0.0
N1077 N 0.07929 0.38052 0.94143 0.0
C1078 C 0.11166 0.38028 0.97434 0.0
C1079 C 0.11272 0.37763 0.05637 0.0
loop_
_geom_bond_atom_site_label_1
_geom_bond_atom_site_label_2
_geom_bond_distance
_geom_bond_site_symmetry_2
_ccdc_geom_bond_type
O0 Tb1 2.292 . S
O0 C3 1.255 . S
Tb1 O0 2.292 . S
Tb1 O17 2.326 . S
Tb1 O19 2.500 . S
Tb1 O20 2.473 . S
Tb1 O23 2.324 . S
Eu2 O6 2.292 1_554 S
Eu2 C7 2.852 1_554 S
Eu2 O18 2.324 . S
Eu2 O22 2.326 . S
Eu2 O24 2.500 1_554 S
Eu2 O25 2.473 1_554 S
C3 O0 1.255 . S
C3 O4 1.247 . S
O4 C3 1.247 . S
C5 O17 1.242 . S
C5 O18 1.258 . S
O6 Eu2 2.292 1_556 S
O6 C8 1.255 1_556 S
C7 Eu2 2.852 1_556 S
C7 C11 1.503 . S
C7 O24 1.273 . S
C7 O25 1.257 . S
C8 O6 1.255 1_554 S
C8 O9 1.247 . S
O9 C8 1.247 . S
C10 O22 1.242 . S
C10 O23 1.258 . S
C11 C7 1.503 . S
C11 C12 1.379 . S
C11 C16 1.392 . S
C12 C11 1.379 . S
C12 C13 1.404 . S
C12 H26 0.929 . S
C13 C12 1.404 . S
C13 C14 1.389 . S
C14 C13 1.389 . S
C14 C15 1.399 . S
C14 H27 0.931 . S
C15 C14 1.399 . S
C15 C16 1.390 . S
C16 C11 1.392 . S
C16 C15 1.390 . S
C16 H28 0.929 . S
O17 Tb1 2.326 . S
O17 C5 1.242 . S
O18 Eu2 2.324 . S
O18 C5 1.258 . S
O19 Tb1 2.500 . S
O19 C21 1.273 . S
O20 Tb1 2.473 . S
O20 C21 1.257 . S
C21 O19 1.273 . S
C21 O20 1.257 . S
O22 Eu2 2.326 . S
O22 C10 1.242 . S
O23 Tb1 2.324 . S
O23 C10 1.258 . S
O24 Eu2 2.500 1_556 S
O24 C7 1.273 . S
O25 Eu2 2.473 1_556 S
O25 C7 1.257 . S
H26 C12 0.929 . S
H27 C14 0.931 . S
H28 C16 0.929 . S
O29 Tb30 2.292 . S
O29 C32 1.255 . S
Tb30 O29 2.292 . S
Tb30 O46 2.326 . S
Tb30 O48 2.500 . S
Tb30 O49 2.473 . S
Tb30 O52 2.324 . S
Eu31 O35 2.292 . S
Eu31 C36 2.852 . S
Eu31 O47 2.324 . S
Eu31 O51 2.326 . S
Eu31 O53 2.500 . S
Eu31 O54 2.473 . S
C32 O29 1.255 . S
C32 O33 1.247 . S
O33 C32 1.247 . S
C34 O46 1.242 . S
C34 O47 1.258 . S
O35 Eu31 2.292 . S
O35 C37 1.255 . S
C36 Eu31 2.852 . S
C36 C40 1.503 . S
C36 O53 1.273 . S
C36 O54 1.257 . S
C37 O35 1.255 . S
C37 O38 1.247 . S
O38 C37 1.247 . S
C39 O51 1.242 . S
C39 O52 1.258 . S
C40 C36 1.503 . S
C40 C41 1.379 . S
C40 C45 1.392 . S
C41 C40 1.379 . S
C41 C42 1.404 . S
C41 H55 0.929 . S
C42 C41 1.404 . S
C42 C43 1.389 . S
C43 C42 1.389 . S
C43 C44 1.399 . S
C43 H56 0.931 . S
C44 C43 1.399 . S
C44 C45 1.390 . S
C45 C40 1.392 . S
C45 C44 1.390 . S
C45 H57 0.929 . S
O46 Tb30 2.326 . S
O46 C34 1.242 . S
O47 Eu31 2.324 . S
O47 C34 1.258 . S
O48 Tb30 2.500 . S
O48 C50 1.273 . S
O49 Tb30 2.473 . S
O49 C50 1.257 . S
C50 O48 1.273 . S
C50 O49 1.257 . S
O51 Eu31 2.326 . S
O51 C39 1.242 . S
O52 Tb30 2.324 . S
O52 C39 1.258 . S
O53 Eu31 2.500 . S
O53 C36 1.273 . S
O54 Eu31 2.473 . S
O54 C36 1.257 . S
H55 C41 0.929 . S
H56 C43 0.931 . S
H57 C45 0.929 . S
O58 Tb59 2.292 . S
O58 C61 1.255 . S
Tb59 O58 2.292 . S
Tb59 O75 2.326 . S
Tb59 O77 2.500 . S
Tb59 O78 2.473 . S
Tb59 O81 2.324 . S
Eu60 O64 2.292 1_556 S
Eu60 C65 2.852 1_556 S
Eu60 O76 2.324 . S
Eu60 O80 2.326 . S
Eu60 O82 2.500 1_556 S
Eu60 O83 2.473 1_556 S
C61 O58 1.255 . S
C61 O62 1.247 . S
O62 C61 1.247 . S
C63 O75 1.242 . S
C63 O76 1.258 . S
O64 Eu60 2.292 1_554 S
O64 C66 1.255 1_554 S
C65 Eu60 2.852 1_554 S
C65 C69 1.503 . S
C65 O82 1.273 . S
C65 O83 1.257 . S
C66 O64 1.255 1_556 S
C66 O67 1.247 . S
O67 C66 1.247 . S
C68 O80 1.242 . S
C68 O81 1.258 . S
C69 C65 1.503 . S
C69 C70 1.379 . S
C69 C74 1.392 . S
C70 C69 1.379 . S
C70 C71 1.404 . S
C70 H84 0.929 . S
C71 C70 1.404 . S
C71 C72 1.389 . S
C72 C71 1.389 . S
C72 C73 1.399 . S
C72 H85 0.931 . S
C73 C72 1.399 . S
C73 C74 1.390 . S
C74 C69 1.392 . S
C74 C73 1.390 . S
C74 H86 0.929 . S
O75 Tb59 2.326 . S
O75 C63 1.242 . S
O76 Eu60 2.324 . S
O76 C63 1.258 . S
O77 Tb59 2.500 . S
O77 C79 1.273 . S
O78 Tb59 2.473 . S
O78 C79 1.257 . S
C79 O77 1.273 . S
C79 O78 1.257 . S
O80 Eu60 2.326 . S
O80 C68 1.242 . S
O81 Tb59 2.324 . S
O81 C68 1.258 . S
O82 Eu60 2.500 1_554 S
O82 C65 1.273 . S
O83 Eu60 2.473 1_554 S
O83 C65 1.257 . S
H84 C70 0.929 . S
H85 C72 0.931 . S
H86 C74 0.929 . S
O87 Tb88 2.292 . S
O87 C90 1.255 . S
Tb88 O87 2.292 . S
Tb88 O104 2.326 . S
Tb88 O106 2.500 . S
Tb88 O107 2.473 . S
Tb88 O110 2.324 . S
Eu89 O93 2.292 . S
Eu89 C94 2.852 . S
Eu89 O105 2.324 . S
Eu89 O109 2.326 . S
Eu89 O111 2.500 . S
Eu89 O112 2.473 . S
C90 O87 1.255 . S
C90 O91 1.247 . S
O91 C90 1.247 . S
C92 O104 1.242 . S
C92 O105 1.258 . S
O93 Eu89 2.292 . S
O93 C95 1.255 . S
C94 Eu89 2.852 . S
C94 C98 1.503 . S
C94 O111 1.273 . S
C94 O112 1.257 . S
C95 O93 1.255 . S
C95 O96 1.247 . S
O96 C95 1.247 . S
C97 O109 1.242 . S
C97 O110 1.258 . S
C98 C94 1.503 . S
C98 C99 1.379 . S
C98 C103 1.392 . S
C99 C98 1.379 . S
C99 C100 1.404 . S
C99 H113 0.929 . S
C100 C99 1.404 . S
C100 C101 1.389 . S
C101 C100 1.389 . S
C101 C102 1.399 . S
C101 H114 0.931 . S
C102 C101 1.399 . S
C102 C103 1.390 . S
C103 C98 1.392 . S
C103 C102 1.390 . S
C103 H115 0.929 . S
O104 Tb88 2.326 . S
O104 C92 1.242 . S
O105 Eu89 2.324 . S
O105 C92 1.258 . S
O106 Tb88 2.500 . S
O106 C108 1.273 . S
O107 Tb88 2.473 . S
O107 C108 1.257 . S
C108 O106 1.273 . S
C108 O107 1.257 . S
O109 Eu89 2.326 . S
O109 C97 1.242 . S
O110 Tb88 2.324 . S
O110 C97 1.258 . S
O111 Eu89 2.500 . S
O111 C94 1.273 . S
O112 Eu89 2.473 . S
O112 C94 1.257 . S
H113 C99 0.929 . S
H114 C101 0.931 . S
H115 C103 0.929 . S
O116 Tb117 2.292 . S
O116 C119 1.255 . S
Tb117 O116 2.292 . S
Tb117 O133 2.326 . S
Tb117 O135 2.500 . S
Tb117 O136 2.473 . S
Tb117 O139 2.324 . S
Eu118 O122 2.292 1_556 S
Eu118 C123 2.852 1_556 S
Eu118 O134 2.324 . S
Eu118 O138 2.326 . S
Eu118 O140 2.500 1_556 S
Eu118 O141 2.473 1_556 S
C119 O116 1.255 . S
C119 O120 1.247 . S
O120 C119 1.247 . S
C121 O133 1.242 . S
C121 O134 1.258 . S
O122 Eu118 2.292 1_554 S
O122 C124 1.255 1_554 S
C123 Eu118 2.852 1_554 S
C123 C127 1.503 . S
C123 O140 1.273 . S
C123 O141 1.257 . S
C124 O122 1.255 1_556 S
C124 O125 1.247 . S
O125 C124 1.247 . S
C126 O138 1.242 . S
C126 O139 1.258 . S
C127 C123 1.503 . S
C127 C128 1.379 . S
C127 C132 1.392 . S
C128 C127 1.379 . S
C128 C129 1.404 . S
C128 H142 0.929 . S
C129 C128 1.404 . S
C129 C130 1.389 . S
C130 C129 1.389 . S
C130 C131 1.399 . S
C130 H143 0.931 . S
C131 C130 1.399 . S
C131 C132 1.390 . S
C132 C127 1.392 . S
C132 C131 1.390 . S
C132 H144 0.929 . S
O133 Tb117 2.326 . S
O133 C121 1.242 . S
O134 Eu118 2.324 . S
O134 C121 1.258 . S
O135 Tb117 2.500 . S
O135 C137 1.273 . S
O136 Tb117 2.473 . S
O136 C137 1.257 . S
C137 O135 1.273 . S
C137 O136 1.257 . S
O138 Eu118 2.326 . S
O138 C126 1.242 . S
O139 Tb117 2.324 . S
O139 C126 1.258 . S
O140 Eu118 2.500 1_554 S
O140 C123 1.273 . S
O141 Eu118 2.473 1_554 S
O141 C123 1.257 . S
H142 C128 0.929 . S
H143 C130 0.931 . S
H144 C132 0.929 . S
O145 Tb146 2.292 . S
O145 C148 1.255 . S
Tb146 O145 2.292 . S
Tb146 O162 2.326 . S
Tb146 O164 2.500 . S
Tb146 O165 2.473 . S
Tb146 O168 2.324 . S
Eu147 O151 2.292 . S
Eu147 C152 2.852 . S
Eu147 O163 2.324 . S
Eu147 O167 2.326 . S
Eu147 O169 2.500 . S
Eu147 O170 2.473 . S
C148 O145 1.255 . S
C148 O149 1.247 . S
O149 C148 1.247 . S
C150 O162 1.242 . S
C150 O163 1.258 . S
O151 Eu147 2.292 . S
O151 C153 1.255 . S
C152 Eu147 2.852 . S
C152 C156 1.503 . S
C152 O169 1.273 . S
C152 O170 1.257 . S
C153 O151 1.255 . S
C153 O154 1.247 . S
O154 C153 1.247 . S
C155 O167 1.242 . S
C155 O168 1.258 . S
C156 C152 1.503 . S
C156 C157 1.379 . S
C156 C161 1.392 . S
C157 C156 1.379 . S
C157 C158 1.404 . S
C157 H171 0.929 . S
C158 C157 1.404 . S
C158 C159 1.389 . S
C159 C158 1.389 . S
C159 C160 1.399 . S
C159 H172 0.931 . S
C160 C159 1.399 . S
C160 C161 1.390 . S
C161 C156 1.392 . S
C161 C160 1.390 . S
C161 H173 0.929 . S
O162 Tb146 2.326 . S
O162 C150 1.242 . S
O163 Eu147 2.324 . S
O163 C150 1.258 . S
O164 Tb146 2.500 . S
O164 C166 1.273 . S
O165 Tb146 2.473 . S
O165 C166 1.257 . S
C166 O164 1.273 . S
C166 O165 1.257 . S
O167 Eu147 2.326 . S
O167 C155 1.242 . S
O168 Tb146 2.324 . S
O168 C155 1.258 . S
O169 Eu147 2.500 . S
O169 C152 1.273 . S
O170 Eu147 2.473 . S
O170 C152 1.257 . S
H171 C157 0.929 . S
H172 C159 0.931 . S
H173 C161 0.929 . S
O174 Tb175 2.292 . S
O174 C177 1.255 . S
Tb175 O174 2.292 . S
Tb175 O191 2.326 . S
Tb175 O193 2.500 . S
Tb175 O194 2.473 . S
Tb175 O197 2.324 . S
Eu176 O180 2.292 1_554 S
Eu176 C181 2.852 1_554 S
Eu176 O192 2.324 . S
Eu176 O196 2.326 . S
Eu176 O198 2.500 1_554 S
Eu176 O199 2.473 1_554 S
C177 O174 1.255 . S
C177 O178 1.247 . S
O178 C177 1.247 . S
C179 O191 1.242 . S
C179 O192 1.258 . S
O180 Eu176 2.292 1_556 S
O180 C182 1.255 1_556 S
C181 Eu176 2.852 1_556 S
C181 C185 1.503 . S
C181 O198 1.273 . S
C181 O199 1.257 . S
C182 O180 1.255 1_554 S
C182 O183 1.247 . S
O183 C182 1.247 . S
C184 O196 1.242 . S
C184 O197 1.258 . S
C185 C181 1.503 . S
C185 C186 1.379 . S
C185 C190 1.392 . S
C186 C185 1.379 . S
C186 C187 1.404 . S
C186 H200 0.929 . S
C187 C186 1.404 . S
C187 C188 1.389 . S
C188 C187 1.389 . S
C188 C189 1.399 . S
C188 H201 0.931 . S
C189 C188 1.399 . S
C189 C190 1.390 . S
C190 C185 1.392 . S
C190 C189 1.390 . S
C190 H202 0.929 . S
O191 Tb175 2.326 . S
O191 C179 1.242 . S
O192 Eu176 2.324 . S
O192 C179 1.258 . S
O193 Tb175 2.500 . S
O193 C195 1.273 . S
O194 Tb175 2.473 . S
O194 C195 1.257 . S
C195 O193 1.273 . S
C195 O194 1.257 . S
O196 Eu176 2.326 . S
O196 C184 1.242 . S
O197 Tb175 2.324 . S
O197 C184 1.258 . S
O198 Eu176 2.500 1_556 S
O198 C181 1.273 . S
O199 Eu176 2.473 1_556 S
O199 C181 1.257 . S
H200 C186 0.929 . S
H201 C188 0.931 . S
H202 C190 0.929 . S
O203 Tb204 2.292 . S
O203 C206 1.255 . S
Tb204 O203 2.292 . S
Tb204 O220 2.326 . S
Tb204 O222 2.500 . S
Tb204 O223 2.473 . S
Tb204 O226 2.324 . S
Eu205 O209 2.292 . S
Eu205 C210 2.852 . S
Eu205 O221 2.324 . S
Eu205 O225 2.326 . S
Eu205 O227 2.500 . S
Eu205 O228 2.473 . S
C206 O203 1.255 . S
C206 O207 1.247 . S
O207 C206 1.247 . S
C208 O220 1.242 . S
C208 O221 1.258 . S
O209 Eu205 2.292 . S
O209 C211 1.255 . S
C210 Eu205 2.852 . S
C210 C214 1.503 . S
C210 O227 1.273 . S
C210 O228 1.257 . S
C211 O209 1.255 . S
C211 O212 1.247 . S
O212 C211 1.247 . S
C213 O225 1.242 . S
C213 O226 1.258 . S
C214 C210 1.503 . S
C214 C215 1.379 . S
C214 C219 1.392 . S
C215 C214 1.379 . S
C215 C216 1.404 . S
C215 H229 0.929 . S
C216 C215 1.404 . S
C216 C217 1.389 . S
C217 C216 1.389 . S
C217 C218 1.399 . S
C217 H230 0.931 . S
C218 C217 1.399 . S
C218 C219 1.390 . S
C219 C214 1.392 . S
C219 C218 1.390 . S
C219 H231 0.929 . S
O220 Tb204 2.326 . S
O220 C208 1.242 . S
O221 Eu205 2.324 . S
O221 C208 1.258 . S
O222 Tb204 2.500 . S
O222 C224 1.273 . S
O223 Tb204 2.473 . S
O223 C224 1.257 . S
C224 O222 1.273 . S
C224 O223 1.257 . S
O225 Eu205 2.326 . S
O225 C213 1.242 . S
O226 Tb204 2.324 . S
O226 C213 1.258 . S
O227 Eu205 2.500 . S
O227 C210 1.273 . S
O228 Eu205 2.473 . S
O228 C210 1.257 . S
H229 C215 0.929 . S
H230 C217 0.931 . S
H231 C219 0.929 . S
O232 Tb233 2.292 . S
O232 C235 1.255 . S
Tb233 O232 2.292 . S
Tb233 O249 2.326 . S
Tb233 O251 2.500 . S
Tb233 O252 2.473 . S
Tb233 O255 2.324 . S
Eu234 O238 2.292 1_554 S
Eu234 C239 2.852 1_554 S
Eu234 O250 2.324 . S
Eu234 O254 2.326 . S
Eu234 O256 2.500 1_554 S
Eu234 O257 2.473 1_554 S
C235 O232 1.255 . S
C235 O236 1.247 . S
O236 C235 1.247 . S
C237 O249 1.242 . S
C237 O250 1.258 . S
O238 Eu234 2.292 1_556 S
O238 C240 1.255 1_556 S
C239 Eu234 2.852 1_556 S
C239 C243 1.503 . S
C239 O256 1.273 . S
C239 O257 1.257 . S
C240 O238 1.255 1_554 S
C240 O241 1.247 . S
O241 C240 1.247 . S
C242 O254 1.242 . S
C242 O255 1.258 . S
C243 C239 1.503 . S
C243 C244 1.379 . S
C243 C248 1.392 . S
C244 C243 1.379 . S
C244 C245 1.404 . S
C244 H258 0.929 . S
C245 C244 1.404 . S
C245 C246 1.389 . S
C246 C245 1.389 . S
C246 C247 1.399 . S
C246 H259 0.931 . S
C247 C246 1.399 . S
C247 C248 1.390 . S
C248 C243 1.392 . S
C248 C247 1.390 . S
C248 H260 0.929 . S
O249 Tb233 2.326 . S
O249 C237 1.242 . S
O250 Eu234 2.324 . S
O250 C237 1.258 . S
O251 Tb233 2.500 . S
O251 C253 1.273 . S
O252 Tb233 2.473 . S
O252 C253 1.257 . S
C253 O251 1.273 . S
C253 O252 1.257 . S
O254 Eu234 2.326 . S
O254 C242 1.242 . S
O255 Tb233 2.324 . S
O255 C242 1.258 . S
O256 Eu234 2.500 1_556 S
O256 C239 1.273 . S
O257 Eu234 2.473 1_556 S
O257 C239 1.257 . S
H258 C244 0.929 . S
H259 C246 0.931 . S
H260 C248 0.929 . S
O261 Tb262 2.292 . S
O261 C264 1.255 . S
Tb262 O261 2.292 . S
Tb262 O278 2.326 . S
Tb262 O280 2.500 . S
Tb262 O281 2.473 . S
Tb262 O284 2.324 . S
Eu263 O267 2.292 . S
Eu263 C268 2.852 . S
Eu263 O279 2.324 . S
Eu263 O283 2.326 . S
Eu263 O285 2.500 . S
Eu263 O286 2.473 . S
C264 O261 1.255 . S
C264 O265 1.247 . S
O265 C264 1.247 . S
C266 O278 1.242 . S
C266 O279 1.258 . S
O267 Eu263 2.292 . S
O267 C269 1.255 . S
C268 Eu263 2.852 . S
C268 C272 1.503 . S
C268 O285 1.273 . S
C268 O286 1.257 . S
C269 O267 1.255 . S
C269 O270 1.247 . S
O270 C269 1.247 . S
C271 O283 1.242 . S
C271 O284 1.258 . S
C272 C268 1.503 . S
C272 C273 1.379 . S
C272 C277 1.392 . S
C273 C272 1.379 . S
C273 C274 1.404 . S
C273 H287 0.929 . S
C274 C273 1.404 . S
C274 C275 1.389 . S
C275 C274 1.389 . S
C275 C276 1.399 . S
C275 H288 0.931 . S
C276 C275 1.399 . S
C276 C277 1.390 . S
C277 C272 1.392 . S
C277 C276 1.390 . S
C277 H289 0.929 . S
O278 Tb262 2.326 . S
O278 C266 1.242 . S
O279 Eu263 2.324 . S
O279 C266 1.258 . S
O280 Tb262 2.500 . S
O280 C282 1.273 . S
O281 Tb262 2.473 . S
O281 C282 1.257 . S
C282 O280 1.273 . S
C282 O281 1.257 . S
O283 Eu263 2.326 . S
O283 C271 1.242 . S
O284 Tb262 2.324 . S
O284 C271 1.258 . S
O285 Eu263 2.500 . S
O285 C268 1.273 . S
O286 Eu263 2.473 . S
O286 C268 1.257 . S
H287 C273 0.929 . S
H288 C275 0.931 . S
H289 C277 0.929 . S
O290 Tb291 2.292 . S
O290 C293 1.255 . S
Tb291 O290 2.292 . S
Tb291 O307 2.326 . S
Tb291 O309 2.500 . S
Tb291 O310 2.473 . S
Tb291 O313 2.324 . S
Eu292 O296 2.292 1_556 S
Eu292 C297 2.852 1_556 S
Eu292 O308 2.324 . S
Eu292 O312 2.326 . S
Eu292 O314 2.500 1_556 S
Eu292 O315 2.473 1_556 S
C293 O290 1.255 . S
C293 O294 1.247 . S
O294 C293 1.247 . S
C295 O307 1.242 . S
C295 O308 1.258 . S
O296 Eu292 2.292 1_554 S
O296 C298 1.255 1_554 S
C297 Eu292 2.852 1_554 S
C297 C301 1.503 . S
C297 O314 1.273 . S
C297 O315 1.257 . S
C298 O296 1.255 1_556 S
C298 O299 1.247 . S
O299 C298 1.247 . S
C300 O312 1.242 . S
C300 O313 1.258 . S
C301 C297 1.503 . S
C301 C302 1.379 . S
C301 C306 1.392 . S
C302 C301 1.379 . S
C302 C303 1.404 . S
C302 H316 0.929 . S
C303 C302 1.404 . S
C303 C304 1.389 . S
C304 C303 1.389 . S
C304 C305 1.399 . S
C304 H317 0.931 . S
C305 C304 1.399 . S
C305 C306 1.390 . S
C306 C301 1.392 . S
C306 C305 1.390 . S
C306 H318 0.929 . S
O307 Tb291 2.326 . S
O307 C295 1.242 . S
O308 Eu292 2.324 . S
O308 C295 1.258 . S
O309 Tb291 2.500 . S
O309 C311 1.273 . S
O310 Tb291 2.473 . S
O310 C311 1.257 . S
C311 O309 1.273 . S
C311 O310 1.257 . S
O312 Eu292 2.326 . S
O312 C300 1.242 . S
O313 Tb291 2.324 . S
O313 C300 1.258 . S
O314 Eu292 2.500 1_554 S
O314 C297 1.273 . S
O315 Eu292 2.473 1_554 S
O315 C297 1.257 . S
H316 C302 0.929 . S
H317 C304 0.931 . S
H318 C306 0.929 . S
O319 Tb320 2.292 . S
O319 C322 1.255 . S
Tb320 O319 2.292 . S
Tb320 O336 2.326 . S
Tb320 O338 2.500 . S
Tb320 O339 2.473 . S
Tb320 O342 2.324 . S
Eu321 O325 2.292 . S
Eu321 C326 2.852 . S
Eu321 O337 2.324 . S
Eu321 O341 2.326 . S
Eu321 O343 2.500 . S
Eu321 O344 2.473 . S
C322 O319 1.255 . S
C322 O323 1.247 . S
O323 C322 1.247 . S
C324 O336 1.242 . S
C324 O337 1.258 . S
O325 Eu321 2.292 . S
O325 C327 1.255 . S
C326 Eu321 2.852 . S
C326 C330 1.503 . S
C326 O343 1.273 . S
C326 O344 1.257 . S
C327 O325 1.255 . S
C327 O328 1.247 . S
O328 C327 1.247 . S
C329 O341 1.242 . S
C329 O342 1.258 . S
C330 C326 1.503 . S
C330 C331 1.379 . S
C330 C335 1.392 . S
C331 C330 1.379 . S
C331 C332 1.404 . S
C331 H345 0.929 . S
C332 C331 1.404 . S
C332 C333 1.389 . S
C333 C332 1.389 . S
C333 C334 1.399 . S
C333 H346 0.931 . S
C334 C333 1.399 . S
C334 C335 1.390 . S
C335 C330 1.392 . S
C335 C334 1.390 . S
C335 H347 0.929 . S
O336 Tb320 2.326 . S
O336 C324 1.242 . S
O337 Eu321 2.324 . S
O337 C324 1.258 . S
O338 Tb320 2.500 . S
O338 C340 1.273 . S
O339 Tb320 2.473 . S
O339 C340 1.257 . S
C340 O338 1.273 . S
C340 O339 1.257 . S
O341 Eu321 2.326 . S
O341 C329 1.242 . S
O342 Tb320 2.324 . S
O342 C329 1.258 . S
O343 Eu321 2.500 . S
O343 C326 1.273 . S
O344 Eu321 2.473 . S
O344 C326 1.257 . S
H345 C331 0.929 . S
H346 C333 0.931 . S
H347 C335 0.929 . S
O348 Tb349 2.292 . S
O348 C351 1.255 . S
Tb349 O348 2.292 . S
Tb349 O365 2.326 . S
Tb349 O367 2.500 . S
Tb349 O368 2.473 . S
Tb349 O371 2.324 . S
Eu350 O354 2.292 1_556 S
Eu350 C355 2.852 1_556 S
Eu350 O366 2.324 . S
Eu350 O370 2.326 . S
Eu350 O372 2.500 1_556 S
Eu350 O373 2.473 1_556 S
C351 O348 1.255 . S
C351 O352 1.247 . S
O352 C351 1.247 . S
C353 O365 1.242 . S
C353 O366 1.258 . S
O354 Eu350 2.292 1_554 S
O354 C356 1.255 1_554 S
C355 Eu350 2.852 1_554 S
C355 C359 1.503 . S
C355 O372 1.273 . S
C355 O373 1.257 . S
C356 O354 1.255 1_556 S
C356 O357 1.247 . S
O357 C356 1.247 . S
C358 O370 1.242 . S
C358 O371 1.258 . S
C359 C355 1.503 . S
C359 C360 1.379 . S
C359 C364 1.392 . S
C360 C359 1.379 . S
C360 C361 1.404 . S
C360 H374 0.929 . S
C361 C360 1.404 . S
C361 C362 1.389 . S
C362 C361 1.389 . S
C362 C363 1.399 . S
C362 H375 0.931 . S
C363 C362 1.399 . S
C363 C364 1.390 . S
C364 C359 1.392 . S
C364 C363 1.390 . S
C364 H376 0.929 . S
O365 Tb349 2.326 . S
O365 C353 1.242 . S
O366 Eu350 2.324 . S
O366 C353 1.258 . S
O367 Tb349 2.500 . S
O367 C369 1.273 . S
O368 Tb349 2.473 . S
O368 C369 1.257 . S
C369 O367 1.273 . S
C369 O368 1.257 . S
O370 Eu350 2.326 . S
O370 C358 1.242 . S
O371 Tb349 2.324 . S
O371 C358 1.258 . S
O372 Eu350 2.500 1_554 S
O372 C355 1.273 . S
O373 Eu350 2.473 1_554 S
O373 C355 1.257 . S
H374 C360 0.929 . S
H375 C362 0.931 . S
H376 C364 0.929 . S
O377 Tb378 2.292 . S
O377 C380 1.255 . S
Tb378 O377 2.292 . S
Tb378 O394 2.326 . S
Tb378 O396 2.500 . S
Tb378 O397 2.473 . S
Tb378 O400 2.324 . S
Eu379 O383 2.292 . S
Eu379 C384 2.852 . S
Eu379 O395 2.324 . S
Eu379 O399 2.326 . S
Eu379 O401 2.500 . S
Eu379 O402 2.473 . S
C380 O377 1.255 . S
C380 O381 1.247 . S
O381 C380 1.247 . S
C382 O394 1.242 . S
C382 O395 1.258 . S
O383 Eu379 2.292 . S
O383 C385 1.255 . S
C384 Eu379 2.852 . S
C384 C388 1.503 . S
C384 O401 1.273 . S
C384 O402 1.257 . S
C385 O383 1.255 . S
C385 O386 1.247 . S
O386 C385 1.247 . S
C387 O399 1.242 . S
C387 O400 1.258 . S
C388 C384 1.503 . S
C388 C389 1.379 . S
C388 C393 1.392 . S
C389 C388 1.379 . S
C389 C390 1.404 . S
C389 H403 0.929 . S
C390 C389 1.404 . S
C390 C391 1.389 . S
C391 C390 1.389 . S
C391 C392 1.399 . S
C391 H404 0.931 . S
C392 C391 1.399 . S
C392 C393 1.390 . S
C393 C388 1.392 . S
C393 C392 1.390 . S
C393 H405 0.929 . S
O394 Tb378 2.326 . S
O394 C382 1.242 . S
O395 Eu379 2.324 . S
O395 C382 1.258 . S
O396 Tb378 2.500 . S
O396 C398 1.273 . S
O397 Tb378 2.473 . S
O397 C398 1.257 . S
C398 O396 1.273 . S
C398 O397 1.257 . S
O399 Eu379 2.326 . S
O399 C387 1.242 . S
O400 Tb378 2.324 . S
O400 C387 1.258 . S
O401 Eu379 2.500 . S
O401 C384 1.273 . S
O402 Eu379 2.473 . S
O402 C384 1.257 . S
H403 C389 0.929 . S
H404 C391 0.931 . S
H405 C393 0.929 . S
O406 Tb407 2.292 . S
O406 C409 1.255 . S
Tb407 O406 2.292 . S
Tb407 O423 2.326 . S
Tb407 O425 2.500 . S
Tb407 O426 2.473 . S
Tb407 O429 2.324 . S
Eu408 O412 2.292 1_554 S
Eu408 C413 2.852 1_554 S
Eu408 O424 2.324 . S
Eu408 O428 2.326 . S
Eu408 O430 2.500 1_554 S
Eu408 O431 2.473 1_554 S
C409 O406 1.255 . S
C409 O410 1.247 . S
O410 C409 1.247 . S
C411 O423 1.242 . S
C411 O424 1.258 . S
O412 Eu408 2.292 1_556 S
O412 C414 1.255 1_556 S
C413 Eu408 2.852 1_556 S
C413 C417 1.503 . S
C413 O430 1.273 . S
C413 O431 1.257 . S
C414 O412 1.255 1_554 S
C414 O415 1.247 . S
O415 C414 1.247 . S
C416 O428 1.242 . S
C416 O429 1.258 . S
C417 C413 1.503 . S
C417 C418 1.379 . S
C417 C422 1.392 . S
C418 C417 1.379 . S
C418 C419 1.404 . S
C418 H432 0.929 . S
C419 C418 1.404 . S
C419 C420 1.389 . S
C420 C419 1.389 . S
C420 C421 1.399 . S
C420 H433 0.931 . S
C421 C420 1.399 . S
C421 C422 1.390 . S
C422 C417 1.392 . S
C422 C421 1.390 . S
C422 H434 0.929 . S
O423 Tb407 2.326 . S
O423 C411 1.242 . S
O424 Eu408 2.324 . S
O424 C411 1.258 . S
O425 Tb407 2.500 . S
O425 C427 1.273 . S
O426 Tb407 2.473 . S
O426 C427 1.257 . S
C427 O425 1.273 . S
C427 O426 1.257 . S
O428 Eu408 2.326 . S
O428 C416 1.242 . S
O429 Tb407 2.324 . S
O429 C416 1.258 . S
O430 Eu408 2.500 1_556 S
O430 C413 1.273 . S
O431 Eu408 2.473 1_556 S
O431 C413 1.257 . S
H432 C418 0.929 . S
H433 C420 0.931 . S
H434 C422 0.929 . S
O435 Tb436 2.292 . S
O435 C438 1.255 . S
Tb436 O435 2.292 . S
Tb436 O452 2.326 . S
Tb436 O454 2.500 . S
Tb436 O455 2.473 . S
Tb436 O458 2.324 . S
Eu437 O441 2.292 . S
Eu437 C442 2.852 . S
Eu437 O453 2.324 . S
Eu437 O457 2.326 . S
Eu437 O459 2.500 . S
Eu437 O460 2.473 . S
C438 O435 1.255 . S
C438 O439 1.247 . S
O439 C438 1.247 . S
C440 O452 1.242 . S
C440 O453 1.258 . S
O441 Eu437 2.292 . S
O441 C443 1.255 . S
C442 Eu437 2.852 . S
C442 C446 1.503 . S
C442 O459 1.273 . S
C442 O460 1.257 . S
C443 O441 1.255 . S
C443 O444 1.247 . S
O444 C443 1.247 . S
C445 O457 1.242 . S
C445 O458 1.258 . S
C446 C442 1.503 . S
C446 C447 1.379 . S
C446 C451 1.392 . S
C447 C446 1.379 . S
C447 C448 1.404 . S
C447 H461 0.929 . S
C448 C447 1.404 . S
C448 C449 1.389 . S
C449 C448 1.389 . S
C449 C450 1.399 . S
C449 H462 0.931 . S
C450 C449 1.399 . S
C450 C451 1.390 . S
C451 C446 1.392 . S
C451 C450 1.390 . S
C451 H463 0.929 . S
O452 Tb436 2.326 . S
O452 C440 1.242 . S
O453 Eu437 2.324 . S
O453 C440 1.258 . S
O454 Tb436 2.500 . S
O454 C456 1.273 . S
O455 Tb436 2.473 . S
O455 C456 1.257 . S
C456 O454 1.273 . S
C456 O455 1.257 . S
O457 Eu437 2.326 . S
O457 C445 1.242 . S
O458 Tb436 2.324 . S
O458 C445 1.258 . S
O459 Eu437 2.500 . S
O459 C442 1.273 . S
O460 Eu437 2.473 . S
O460 C442 1.257 . S
H461 C447 0.929 . S
H462 C449 0.931 . S
H463 C451 0.929 . S
C464 C465 1.369 . S
C464 C466 1.419 1_655 S
C464 H468 0.930 . S
C465 C464 1.369 . S
C465 C474 1.429 . S
C466 C464 1.419 1_455 S
C466 C467 1.363 . S
C466 H469 0.929 . S
C467 C466 1.363 . S
C467 C473 1.428 . S
H468 C464 0.930 . S
H469 C466 0.929 . S
S470 N471 1.615 1_455 S
S470 N472 1.608 . S
N471 S470 1.615 1_655 S
N471 C474 1.350 1_556 S
N472 S470 1.608 . S
N472 C473 1.351 1_556 S
C473 C467 1.428 . S
C473 N472 1.351 1_554 S
C473 C474 1.434 1_455 S
C474 C465 1.429 . S
C474 N471 1.350 1_554 S
C474 C473 1.434 1_655 S
C475 C476 1.369 . S
C475 C477 1.419 . S
C475 H479 0.930 . S
C476 C475 1.369 . S
C476 C485 1.429 . S
C477 C475 1.419 . S
C477 C478 1.363 . S
C477 H480 0.929 . S
C478 C477 1.363 . S
C478 C484 1.428 . S
H479 C475 0.930 . S
H480 C477 0.929 . S
S481 N482 1.613 . S
S481 N483 1.610 . S
N482 S481 1.613 . S
N482 C485 1.350 . S
N483 S481 1.610 . S
N483 C484 1.351 . S
C484 C478 1.428 . S
C484 N483 1.351 . S
C484 C485 1.434 . S
C485 C476 1.429 . S
C485 N482 1.350 . S
C485 C484 1.434 . S
C486 C487 1.369 1_554 S
C486 C488 1.419 1_655 S
C486 H490 0.930 . S
C487 C486 1.369 1_556 S
C487 C496 1.429 . S
C488 C486 1.419 1_455 S
C488 C489 1.363 1_554 S
C488 H491 0.929 . S
C489 C488 1.363 1_556 S
C489 C495 1.428 . S
H490 C486 0.930 . S
H491 C488 0.929 . S
S492 N493 1.615 1_455 S
S492 N494 1.608 . S
N493 S492 1.615 1_655 S
N493 C496 1.350 . S
N494 S492 1.608 . S
N494 C495 1.351 . S
C495 C489 1.428 . S
C495 N494 1.351 . S
C495 C496 1.434 1_455 S
C496 C487 1.429 . S
C496 N493 1.350 . S
C496 C495 1.434 1_655 S
C497 C498 1.369 . S
C497 C499 1.419 . S
C497 H501 0.930 . S
C498 C497 1.369 . S
C498 C507 1.429 . S
C499 C497 1.419 . S
C499 C500 1.363 . S
C499 H502 0.929 . S
C500 C499 1.363 . S
C500 C506 1.428 . S
H501 C497 0.930 . S
H502 C499 0.929 . S
S503 N504 1.613 . S
S503 N505 1.610 . S
N504 S503 1.613 . S
N504 C507 1.350 . S
N505 S503 1.610 . S
N505 C506 1.351 . S
C506 C500 1.428 . S
C506 N505 1.351 . S
C506 C507 1.434 . S
C507 C498 1.429 . S
C507 N504 1.350 . S
C507 C506 1.434 . S
C508 C509 1.369 . S
C508 C510 1.419 . S
C508 H512 0.930 . S
C509 C508 1.369 . S
C509 C518 1.429 1_554 S
C510 C508 1.419 . S
C510 C511 1.363 . S
C510 H513 0.929 . S
C511 C510 1.363 . S
C511 C517 1.428 1_554 S
H512 C508 0.930 . S
H513 C510 0.929 . S
S514 N515 1.613 . S
S514 N516 1.610 . S
N515 S514 1.613 . S
N515 C518 1.350 . S
N516 S514 1.610 . S
N516 C517 1.351 . S
C517 C511 1.428 1_556 S
C517 N516 1.351 . S
C517 C518 1.434 . S
C518 C509 1.429 1_556 S
C518 N515 1.350 . S
C518 C517 1.434 . S
C519 C520 1.369 . S
C519 C521 1.419 1_455 S
C519 H523 0.930 . S
C520 C519 1.369 . S
C520 C529 1.429 . S
C521 C519 1.419 1_655 S
C521 C522 1.363 . S
C521 H524 0.929 . S
C522 C521 1.363 . S
C522 C528 1.428 . S
H523 C519 0.930 . S
H524 C521 0.929 . S
S525 N526 1.615 1_655 S
S525 N527 1.608 . S
N526 S525 1.615 1_455 S
N526 C529 1.350 . S
N527 S525 1.608 . S
N527 C528 1.351 . S
C528 C522 1.428 . S
C528 N527 1.351 . S
C528 C529 1.434 1_655 S
C529 C520 1.429 . S
C529 N526 1.350 . S
C529 C528 1.434 1_455 S
C530 C531 1.369 1_554 S
C530 C532 1.419 . S
C530 H534 0.930 . S
C531 C530 1.369 1_556 S
C531 C540 1.429 . S
C532 C530 1.419 . S
C532 C533 1.363 1_554 S
C532 H535 0.929 . S
C533 C532 1.363 1_556 S
C533 C539 1.428 . S
H534 C530 0.930 . S
H535 C532 0.929 . S
S536 N537 1.613 . S
S536 N538 1.610 . S
N537 S536 1.613 . S
N537 C540 1.350 . S
N538 S536 1.610 . S
N538 C539 1.351 . S
C539 C533 1.428 . S
C539 N538 1.351 . S
C539 C540 1.434 . S
C540 C531 1.429 . S
C540 N537 1.350 . S
C540 C539 1.434 . S
C541 C542 1.369 . S
C541 C543 1.419 1_455 S
C541 H545 0.930 . S
C542 C541 1.369 . S
C542 C551 1.429 . S
C543 C541 1.419 1_655 S
C543 C544 1.363 . S
C543 H546 0.929 . S
C544 C543 1.363 . S
C544 C550 1.428 . S
H545 C541 0.930 . S
H546 C543 0.929 . S
S547 N548 1.615 1_655 S
S547 N549 1.608 . S
N548 S547 1.615 1_455 S
N548 C551 1.350 . S
N549 S547 1.608 . S
N549 C550 1.351 . S
C550 C544 1.428 . S
C550 N549 1.351 . S
C550 C551 1.434 1_655 S
C551 C542 1.429 . S
C551 N548 1.350 . S
C551 C550 1.434 1_455 S
C552 C553 1.369 . S
C552 C554 1.419 . S
C552 H556 0.930 . S
C553 C552 1.369 . S
C553 C562 1.429 . S
C554 C552 1.419 . S
C554 C555 1.363 . S
C554 H557 0.929 . S
C555 C554 1.363 . S
C555 C561 1.428 . S
H556 C552 0.930 . S
H557 C554 0.929 . S
S558 N559 1.613 . S
S558 N560 1.610 . S
N559 S558 1.613 . S
N559 C562 1.350 . S
N560 S558 1.610 . S
N560 C561 1.351 . S
C561 C555 1.428 . S
C561 N560 1.351 . S
C561 C562 1.434 . S
C562 C553 1.429 . S
C562 N559 1.350 . S
C562 C561 1.434 . S
C563 C564 1.369 . S
C563 C565 1.419 . S
C563 H567 0.930 . S
C564 C563 1.369 . S
C564 C573 1.429 . S
C565 C563 1.419 . S
C565 C566 1.363 . S
C565 H568 0.929 . S
C566 C565 1.363 . S
C566 C572 1.428 . S
H567 C563 0.930 . S
H568 C565 0.929 . S
S569 N570 1.613 . S
S569 N571 1.610 . S
N570 S569 1.613 . S
N570 C573 1.350 . S
N571 S569 1.610 . S
N571 C572 1.351 . S
C572 C566 1.428 . S
C572 N571 1.351 . S
C572 C573 1.434 . S
C573 C564 1.429 . S
C573 N570 1.350 . S
C573 C572 1.434 . S
C574 C575 1.369 . S
C574 C576 1.419 . S
C574 H578 0.930 . S
C575 C574 1.369 . S
C575 C584 1.429 . S
C576 C574 1.419 . S
C576 C577 1.363 . S
C576 H579 0.929 . S
C577 C576 1.363 . S
C577 C583 1.428 . S
H578 C574 0.930 . S
H579 C576 0.929 . S
S580 N581 1.613 . S
S580 N582 1.610 . S
N581 S580 1.613 . S
N581 C584 1.350 . S
N582 S580 1.610 . S
N582 C583 1.351 . S
C583 C577 1.428 . S
C583 N582 1.351 . S
C583 C584 1.434 . S
C584 C575 1.429 . S
C584 N581 1.350 . S
C584 C583 1.434 . S
C585 C586 1.369 . S
C585 C587 1.419 . S
C585 H589 0.930 . S
C586 C585 1.369 . S
C586 C595 1.429 . S
C587 C585 1.419 . S
C587 C588 1.363 . S
C587 H590 0.929 . S
C588 C587 1.363 . S
C588 C594 1.428 . S
H589 C585 0.930 . S
H590 C587 0.929 . S
S591 N592 1.613 . S
S591 N593 1.610 . S
N592 S591 1.613 . S
N592 C595 1.350 . S
N593 S591 1.610 . S
N593 C594 1.351 . S
C594 C588 1.428 . S
C594 N593 1.351 . S
C594 C595 1.434 . S
C595 C586 1.429 . S
C595 N592 1.350 . S
C595 C594 1.434 . S
C596 C597 1.369 . S
C596 C598 1.419 . S
C596 H600 0.930 . S
C597 C596 1.369 . S
C597 C606 1.429 . S
C598 C596 1.419 . S
C598 C599 1.363 . S
C598 H601 0.929 . S
C599 C598 1.363 . S
C599 C605 1.428 . S
H600 C596 0.930 . S
H601 C598 0.929 . S
S602 N603 1.613 . S
S602 N604 1.610 . S
N603 S602 1.613 . S
N603 C606 1.350 . S
N604 S602 1.610 . S
N604 C605 1.351 . S
C605 C599 1.428 . S
C605 N604 1.351 . S
C605 C606 1.434 . S
C606 C597 1.429 . S
C606 N603 1.350 . S
C606 C605 1.434 . S
C607 C608 1.369 . S
C607 C609 1.419 . S
C607 H611 0.930 . S
C608 C607 1.369 . S
C608 C617 1.429 . S
C609 C607 1.419 . S
C609 C610 1.363 . S
C609 H612 0.929 . S
C610 C609 1.363 . S
C610 C616 1.428 . S
H611 C607 0.930 . S
H612 C609 0.929 . S
S613 N614 1.613 . S
S613 N615 1.610 . S
N614 S613 1.613 . S
N614 C617 1.350 . S
N615 S613 1.610 . S
N615 C616 1.351 . S
C616 C610 1.428 . S
C616 N615 1.351 . S
C616 C617 1.434 . S
C617 C608 1.429 . S
C617 N614 1.350 . S
C617 C616 1.434 . S
C618 C619 1.369 . S
C618 C620 1.419 . S
C618 H622 0.930 . S
C619 C618 1.369 . S
C619 C628 1.429 . S
C620 C618 1.419 . S
C620 C621 1.363 . S
C620 H623 0.929 . S
C621 C620 1.363 . S
C621 C627 1.428 . S
H622 C618 0.930 . S
H623 C620 0.929 . S
S624 N625 1.613 . S
S624 N626 1.610 . S
N625 S624 1.613 . S
N625 C628 1.350 . S
N626 S624 1.610 . S
N626 C627 1.351 . S
C627 C621 1.428 . S
C627 N626 1.351 . S
C627 C628 1.434 . S
C628 C619 1.429 . S
C628 N625 1.350 . S
C628 C627 1.434 . S
C629 C630 1.369 . S
C629 C631 1.419 . S
C629 H633 0.930 . S
C630 C629 1.369 . S
C630 C639 1.429 . S
C631 C629 1.419 . S
C631 C632 1.363 . S
C631 H634 0.929 . S
C632 C631 1.363 . S
C632 C638 1.428 . S
H633 C629 0.930 . S
H634 C631 0.929 . S
S635 N636 1.613 . S
S635 N637 1.610 . S
N636 S635 1.613 . S
N636 C639 1.350 . S
N637 S635 1.610 . S
N637 C638 1.351 . S
C638 C632 1.428 . S
C638 N637 1.351 . S
C638 C639 1.434 . S
C639 C630 1.429 . S
C639 N636 1.350 . S
C639 C638 1.434 . S
C640 C641 1.369 . S
C640 C642 1.419 . S
C640 H644 0.930 . S
C641 C640 1.369 . S
C641 C650 1.429 . S
C642 C640 1.419 . S
C642 C643 1.363 . S
C642 H645 0.929 . S
C643 C642 1.363 . S
C643 C649 1.428 . S
H644 C640 0.930 . S
H645 C642 0.929 . S
S646 N647 1.613 . S
S646 N648 1.610 . S
N647 S646 1.613 . S
N647 C650 1.350 . S
N648 S646 1.610 . S
N648 C649 1.351 . S
C649 C643 1.428 . S
C649 N648 1.351 . S
C649 C650 1.434 . S
C650 C641 1.429 . S
C650 N647 1.350 . S
C650 C649 1.434 . S
C651 C652 1.369 . S
C651 C653 1.419 . S
C651 H655 0.930 . S
C652 C651 1.369 . S
C652 C661 1.429 . S
C653 C651 1.419 . S
C653 C654 1.363 . S
C653 H656 0.929 . S
C654 C653 1.363 . S
C654 C660 1.428 . S
H655 C651 0.930 . S
H656 C653 0.929 . S
S657 N658 1.613 . S
S657 N659 1.610 . S
N658 S657 1.613 . S
N658 C661 1.350 . S
N659 S657 1.610 . S
N659 C660 1.351 . S
C660 C654 1.428 . S
C660 N659 1.351 . S
C660 C661 1.434 . S
C661 C652 1.429 . S
C661 N658 1.350 . S
C661 C660 1.434 . S
C662 C663 1.369 . S
C662 C664 1.419 . S
C662 H666 0.930 . S
C663 C662 1.369 . S
C663 C672 1.429 . S
C664 C662 1.419 . S
C664 C665 1.363 . S
C664 H667 0.929 . S
C665 C664 1.363 . S
C665 C671 1.428 . S
H666 C662 0.930 . S
H667 C664 0.929 . S
S668 N669 1.613 . S
S668 N670 1.610 . S
N669 S668 1.613 . S
N669 C672 1.350 . S
N670 S668 1.610 . S
N670 C671 1.351 . S
C671 C665 1.428 . S
C671 N670 1.351 . S
C671 C672 1.434 . S
C672 C663 1.429 . S
C672 N669 1.350 . S
C672 C671 1.434 . S
C673 C674 1.369 . S
C673 C675 1.419 . S
C673 H677 0.930 . S
C674 C673 1.369 . S
C674 C683 1.429 . S
C675 C673 1.419 . S
C675 C676 1.363 . S
C675 H678 0.929 . S
C676 C675 1.363 . S
C676 C682 1.428 . S
H677 C673 0.930 . S
H678 C675 0.929 . S
S679 N680 1.613 . S
S679 N681 1.610 . S
N680 S679 1.613 . S
N680 C683 1.350 . S
N681 S679 1.610 . S
N681 C682 1.351 . S
C682 C676 1.428 . S
C682 N681 1.351 . S
C682 C683 1.434 . S
C683 C674 1.429 . S
C683 N680 1.350 . S
C683 C682 1.434 . S
C684 C685 1.369 . S
C684 C686 1.419 . S
C684 H688 0.930 . S
C685 C684 1.369 . S
C685 C694 1.429 . S
C686 C684 1.419 . S
C686 C687 1.363 . S
C686 H689 0.929 . S
C687 C686 1.363 . S
C687 C693 1.428 . S
H688 C684 0.930 . S
H689 C686 0.929 . S
S690 N691 1.613 . S
S690 N692 1.610 . S
N691 S690 1.613 . S
N691 C694 1.350 . S
N692 S690 1.610 . S
N692 C693 1.351 . S
C693 C687 1.428 . S
C693 N692 1.351 . S
C693 C694 1.434 . S
C694 C685 1.429 . S
C694 N691 1.350 . S
C694 C693 1.434 . S
C695 C696 1.369 . S
C695 C697 1.419 . S
C695 H699 0.930 . S
C696 C695 1.369 . S
C696 C705 1.429 . S
C697 C695 1.419 . S
C697 C698 1.363 . S
C697 H700 0.929 . S
C698 C697 1.363 . S
C698 C704 1.428 . S
H699 C695 0.930 . S
H700 C697 0.929 . S
S701 N702 1.613 . S
S701 N703 1.610 . S
N702 S701 1.613 . S
N702 C705 1.350 . S
N703 S701 1.610 . S
N703 C704 1.351 . S
C704 C698 1.428 . S
C704 N703 1.351 . S
C704 C705 1.434 . S
C705 C696 1.429 . S
C705 N702 1.350 . S
C705 C704 1.434 . S
C706 C707 1.369 . S
C706 C708 1.419 . S
C706 H710 0.930 . S
C707 C706 1.369 . S
C707 C716 1.429 . S
C708 C706 1.419 . S
C708 C709 1.363 . S
C708 H711 0.929 . S
C709 C708 1.363 . S
C709 C715 1.428 . S
H710 C706 0.930 . S
H711 C708 0.929 . S
S712 N713 1.613 . S
S712 N714 1.610 . S
N713 S712 1.613 . S
N713 C716 1.350 . S
N714 S712 1.610 . S
N714 C715 1.351 . S
C715 C709 1.428 . S
C715 N714 1.351 . S
C715 C716 1.434 . S
C716 C707 1.429 . S
C716 N713 1.350 . S
C716 C715 1.434 . S
C717 C718 1.369 . S
C717 C719 1.419 . S
C717 H721 0.930 . S
C718 C717 1.369 . S
C718 C727 1.429 . S
C719 C717 1.419 . S
C719 C720 1.363 . S
C719 H722 0.929 . S
C720 C719 1.363 . S
C720 C726 1.428 . S
H721 C717 0.930 . S
H722 C719 0.929 . S
S723 N724 1.613 . S
S723 N725 1.610 . S
N724 S723 1.613 . S
N724 C727 1.350 . S
N725 S723 1.610 . S
N725 C726 1.351 . S
C726 C720 1.428 . S
C726 N725 1.351 . S
C726 C727 1.434 . S
C727 C718 1.429 . S
C727 N724 1.350 . S
C727 C726 1.434 . S
C728 C729 1.369 1_556 S
C728 C730 1.419 1_565 S
C728 H732 0.930 . S
C729 C728 1.369 1_554 S
C729 C738 1.429 . S
C730 C728 1.419 1_545 S
C730 C731 1.363 . S
C730 H733 0.929 . S
C731 C730 1.363 . S
C731 C737 1.428 1_556 S
H732 C728 0.930 . S
H733 C730 0.929 . S
S734 N735 1.613 1_545 S
S734 N736 1.610 . S
N735 S734 1.613 1_565 S
N735 C738 1.350 . S
N736 S734 1.610 . S
N736 C737 1.351 . S
C737 C731 1.428 1_554 S
C737 N736 1.351 . S
C737 C738 1.434 1_545 S
C738 C729 1.429 . S
C738 N735 1.350 . S
C738 C737 1.434 1_565 S
C739 C740 1.369 . S
C739 C741 1.419 1_565 S
C739 H743 0.930 . S
C740 C739 1.369 . S
C740 C749 1.429 . S
C741 C739 1.419 1_545 S
C741 C742 1.363 . S
C741 H744 0.929 . S
C742 C741 1.363 . S
C742 C748 1.428 . S
H743 C739 0.930 . S
H744 C741 0.929 . S
S745 N746 1.613 1_545 S
S745 N747 1.610 . S
N746 S745 1.613 1_565 S
N746 C749 1.350 . S
N747 S745 1.610 . S
N747 C748 1.351 . S
C748 C742 1.428 . S
C748 N747 1.351 . S
C748 C749 1.434 1_545 S
C749 C740 1.429 . S
C749 N746 1.350 . S
C749 C748 1.434 1_565 S
C750 C751 1.369 . S
C750 C752 1.419 1_565 S
C750 H754 0.930 . S
C751 C750 1.369 . S
C751 C760 1.429 1_554 S
C752 C750 1.419 1_545 S
C752 C753 1.363 1_554 S
C752 H755 0.929 . S
C753 C752 1.363 1_556 S
C753 C759 1.428 . S
H754 C750 0.930 . S
H755 C752 0.929 . S
S756 N757 1.613 . S
S756 N758 1.610 1_565 S
N757 S756 1.613 . S
N757 C760 1.350 . S
N758 S756 1.610 1_545 S
N758 C759 1.351 . S
C759 C753 1.428 . S
C759 N758 1.351 . S
C759 C760 1.434 1_545 S
C760 C751 1.429 1_556 S
C760 N757 1.350 . S
C760 C759 1.434 1_565 S
C761 C762 1.369 . S
C761 C763 1.419 1_565 S
C761 H765 0.930 . S
C762 C761 1.369 . S
C762 C771 1.429 . S
C763 C761 1.419 1_545 S
C763 C764 1.363 . S
C763 H766 0.929 . S
C764 C763 1.363 . S
C764 C770 1.428 . S
H765 C761 0.930 . S
H766 C763 0.929 . S
S767 N768 1.613 . S
S767 N769 1.610 1_565 S
N768 S767 1.613 . S
N768 C771 1.350 . S
N769 S767 1.610 1_545 S
N769 C770 1.351 . S
C770 C764 1.428 . S
C770 N769 1.351 . S
C770 C771 1.434 1_545 S
C771 C762 1.429 . S
C771 N768 1.350 . S
C771 C770 1.434 1_565 S
C772 C773 1.369 1_556 S
C772 C774 1.419 . S
C772 H776 0.930 . S
C773 C772 1.369 1_554 S
C773 C782 1.429 . S
C774 C772 1.419 . S
C774 C775 1.363 . S
C774 H777 0.929 . S
C775 C774 1.363 . S
C775 C781 1.428 1_556 S
H776 C772 0.930 . S
H777 C774 0.929 . S
S778 N779 1.613 . S
S778 N780 1.610 . S
N779 S778 1.613 . S
N779 C782 1.350 . S
N780 S778 1.610 . S
N780 C781 1.351 . S
C781 C775 1.428 1_554 S
C781 N780 1.351 . S
C781 C782 1.434 . S
C782 C773 1.429 . S
C782 N779 1.350 . S
C782 C781 1.434 . S
C783 C784 1.369 . S
C783 C785 1.419 . S
C783 H787 0.930 . S
C784 C783 1.369 . S
C784 C793 1.429 . S
C785 C783 1.419 . S
C785 C786 1.363 . S
C785 H788 0.929 . S
C786 C785 1.363 . S
C786 C792 1.428 . S
H787 C783 0.930 . S
H788 C785 0.929 . S
S789 N790 1.613 . S
S789 N791 1.610 . S
N790 S789 1.613 . S
N790 C793 1.350 . S
N791 S789 1.610 . S
N791 C792 1.351 . S
C792 C786 1.428 . S
C792 N791 1.351 . S
C792 C793 1.434 . S
C793 C784 1.429 . S
C793 N790 1.350 . S
C793 C792 1.434 . S
C794 C795 1.369 . S
C794 C796 1.419 . S
C794 H798 0.930 . S
C795 C794 1.369 . S
C795 C804 1.429 1_556 S
C796 C794 1.419 . S
C796 C797 1.363 1_556 S
C796 H799 0.929 . S
C797 C796 1.363 1_554 S
C797 C803 1.428 . S
H798 C794 0.930 . S
H799 C796 0.929 . S
S800 N801 1.613 . S
S800 N802 1.610 . S
N801 S800 1.613 . S
N801 C804 1.350 . S
N802 S800 1.610 . S
N802 C803 1.351 . S
C803 C797 1.428 . S
C803 N802 1.351 . S
C803 C804 1.434 . S
C804 C795 1.429 1_554 S
C804 N801 1.350 . S
C804 C803 1.434 . S
C805 C806 1.369 . S
C805 C807 1.419 . S
C805 H809 0.930 . S
C806 C805 1.369 . S
C806 C815 1.429 . S
C807 C805 1.419 . S
C807 C808 1.363 . S
C807 H810 0.929 . S
C808 C807 1.363 . S
C808 C814 1.428 . S
H809 C805 0.930 . S
H810 C807 0.929 . S
S811 N812 1.613 . S
S811 N813 1.610 . S
N812 S811 1.613 . S
N812 C815 1.350 . S
N813 S811 1.610 . S
N813 C814 1.351 . S
C814 C808 1.428 . S
C814 N813 1.351 . S
C814 C815 1.434 . S
C815 C806 1.429 . S
C815 N812 1.350 . S
C815 C814 1.434 . S
C816 C817 1.369 . S
C816 C818 1.419 . S
C816 H820 0.930 . S
C817 C816 1.369 . S
C817 C826 1.429 . S
C818 C816 1.419 . S
C818 C819 1.363 . S
C818 H821 0.929 . S
C819 C818 1.363 . S
C819 C825 1.428 . S
H820 C816 0.930 . S
H821 C818 0.929 . S
S822 N823 1.613 . S
S822 N824 1.610 . S
N823 S822 1.613 . S
N823 C826 1.350 . S
N824 S822 1.610 . S
N824 C825 1.351 . S
C825 C819 1.428 . S
C825 N824 1.351 . S
C825 C826 1.434 . S
C826 C817 1.429 . S
C826 N823 1.350 . S
C826 C825 1.434 . S
C827 C828 1.369 . S
C827 C829 1.419 . S
C827 H831 0.930 . S
C828 C827 1.369 . S
C828 C837 1.429 . S
C829 C827 1.419 . S
C829 C830 1.363 . S
C829 H832 0.929 . S
C830 C829 1.363 . S
C830 C836 1.428 . S
H831 C827 0.930 . S
H832 C829 0.929 . S
S833 N834 1.613 . S
S833 N835 1.610 . S
N834 S833 1.613 . S
N834 C837 1.350 . S
N835 S833 1.610 . S
N835 C836 1.351 . S
C836 C830 1.428 . S
C836 N835 1.351 . S
C836 C837 1.434 . S
C837 C828 1.429 . S
C837 N834 1.350 . S
C837 C836 1.434 . S
C838 C839 1.369 . S
C838 C840 1.419 . S
C838 H842 0.930 . S
C839 C838 1.369 . S
C839 C848 1.429 . S
C840 C838 1.419 . S
C840 C841 1.363 . S
C840 H843 0.929 . S
C841 C840 1.363 . S
C841 C847 1.428 . S
H842 C838 0.930 . S
H843 C840 0.929 . S
S844 N845 1.613 . S
S844 N846 1.610 . S
N845 S844 1.613 . S
N845 C848 1.350 . S
N846 S844 1.610 . S
N846 C847 1.351 . S
C847 C841 1.428 . S
C847 N846 1.351 . S
C847 C848 1.434 . S
C848 C839 1.429 . S
C848 N845 1.350 . S
C848 C847 1.434 . S
C849 C850 1.369 . S
C849 C851 1.419 . S
C849 H853 0.930 . S
C850 C849 1.369 . S
C850 C859 1.429 . S
C851 C849 1.419 . S
C851 C852 1.363 . S
C851 H854 0.929 . S
C852 C851 1.363 . S
C852 C858 1.428 . S
H853 C849 0.930 . S
H854 C851 0.929 . S
S855 N856 1.613 . S
S855 N857 1.610 . S
N856 S855 1.613 . S
N856 C859 1.350 . S
N857 S855 1.610 . S
N857 C858 1.351 . S
C858 C852 1.428 . S
C858 N857 1.351 . S
C858 C859 1.434 . S
C859 C850 1.429 . S
C859 N856 1.350 . S
C859 C858 1.434 . S
C860 C861 1.369 . S
C860 C862 1.419 . S
C860 H864 0.930 . S
C861 C860 1.369 . S
C861 C870 1.429 . S
C862 C860 1.419 . S
C862 C863 1.363 . S
C862 H865 0.929 . S
C863 C862 1.363 . S
C863 C869 1.428 . S
H864 C860 0.930 . S
H865 C862 0.929 . S
S866 N867 1.613 . S
S866 N868 1.610 . S
N867 S866 1.613 . S
N867 C870 1.350 . S
N868 S866 1.610 . S
N868 C869 1.351 . S
C869 C863 1.428 . S
C869 N868 1.351 . S
C869 C870 1.434 . S
C870 C861 1.429 . S
C870 N867 1.350 . S
C870 C869 1.434 . S
C871 C872 1.369 . S
C871 C873 1.419 . S
C871 H875 0.930 . S
C872 C871 1.369 . S
C872 C881 1.429 . S
C873 C871 1.419 . S
C873 C874 1.363 . S
C873 H876 0.929 . S
C874 C873 1.363 . S
C874 C880 1.428 . S
H875 C871 0.930 . S
H876 C873 0.929 . S
S877 N878 1.613 . S
S877 N879 1.610 . S
N878 S877 1.613 . S
N878 C881 1.350 . S
N879 S877 1.610 . S
N879 C880 1.351 . S
C880 C874 1.428 . S
C880 N879 1.351 . S
C880 C881 1.434 . S
C881 C872 1.429 . S
C881 N878 1.350 . S
C881 C880 1.434 . S
C882 C883 1.369 . S
C882 C884 1.419 . S
C882 H886 0.930 . S
C883 C882 1.369 . S
C883 C892 1.429 . S
C884 C882 1.419 . S
C884 C885 1.363 . S
C884 H887 0.929 . S
C885 C884 1.363 . S
C885 C891 1.428 . S
H886 C882 0.930 . S
H887 C884 0.929 . S
S888 N889 1.613 . S
S888 N890 1.610 . S
N889 S888 1.613 . S
N889 C892 1.350 . S
N890 S888 1.610 . S
N890 C891 1.351 . S
C891 C885 1.428 . S
C891 N890 1.351 . S
C891 C892 1.434 . S
C892 C883 1.429 . S
C892 N889 1.350 . S
C892 C891 1.434 . S
C893 C894 1.369 . S
C893 C895 1.419 . S
C893 H897 0.930 . S
C894 C893 1.369 . S
C894 C903 1.429 . S
C895 C893 1.419 . S
C895 C896 1.363 . S
C895 H898 0.929 . S
C896 C895 1.363 . S
C896 C902 1.428 . S
H897 C893 0.930 . S
H898 C895 0.929 . S
S899 N900 1.613 . S
S899 N901 1.610 . S
N900 S899 1.613 . S
N900 C903 1.350 . S
N901 S899 1.610 . S
N901 C902 1.351 . S
C902 C896 1.428 . S
C902 N901 1.351 . S
C902 C903 1.434 . S
C903 C894 1.429 . S
C903 N900 1.350 . S
C903 C902 1.434 . S
C904 C905 1.369 . S
C904 C906 1.419 . S
C904 H908 0.930 . S
C905 C904 1.369 . S
C905 C914 1.429 . S
C906 C904 1.419 . S
C906 C907 1.363 . S
C906 H909 0.929 . S
C907 C906 1.363 . S
C907 C913 1.428 . S
H908 C904 0.930 . S
H909 C906 0.929 . S
S910 N911 1.613 . S
S910 N912 1.610 . S
N911 S910 1.613 . S
N911 C914 1.350 . S
N912 S910 1.610 . S
N912 C913 1.351 . S
C913 C907 1.428 . S
C913 N912 1.351 . S
C913 C914 1.434 . S
C914 C905 1.429 . S
C914 N911 1.350 . S
C914 C913 1.434 . S
C915 C916 1.369 . S
C915 C917 1.419 1_554 S
C915 H919 0.930 . S
C916 C915 1.369 . S
C916 C925 1.429 . S
C917 C915 1.419 1_556 S
C917 C918 1.363 . S
C917 H920 0.929 . S
C918 C917 1.363 . S
C918 C924 1.428 . S
H919 C915 0.930 . S
H920 C917 0.929 . S
S921 N922 1.613 1_556 S
S921 N923 1.610 . S
N922 S921 1.613 1_554 S
N922 C925 1.350 . S
N923 S921 1.610 . S
N923 C924 1.351 . S
C924 C918 1.428 . S
C924 N923 1.351 . S
C924 C925 1.434 1_556 S
C925 C916 1.429 . S
C925 N922 1.350 . S
C925 C924 1.434 1_554 S
C926 C927 1.369 . S
C926 C928 1.419 . S
C926 H930 0.930 . S
C927 C926 1.369 . S
C927 C936 1.429 . S
C928 C926 1.419 . S
C928 C929 1.363 . S
C928 H931 0.929 . S
C929 C928 1.363 . S
C929 C935 1.428 . S
H930 C926 0.930 . S
H931 C928 0.929 . S
S932 N933 1.613 . S
S932 N934 1.610 . S
N933 S932 1.613 . S
N933 C936 1.350 . S
N934 S932 1.610 . S
N934 C935 1.351 . S
C935 C929 1.428 . S
C935 N934 1.351 . S
C935 C936 1.434 . S
C936 C927 1.429 . S
C936 N933 1.350 . S
C936 C935 1.434 . S
C937 C938 1.369 . S
C937 C939 1.419 1_556 S
C937 H941 0.930 . S
C938 C937 1.369 . S
C938 C947 1.429 . S
C939 C937 1.419 1_554 S
C939 C940 1.363 . S
C939 H942 0.929 . S
C940 C939 1.363 . S
C940 C946 1.428 . S
H941 C937 0.930 . S
H942 C939 0.929 . S
S943 N944 1.613 1_554 S
S943 N945 1.610 . S
N944 S943 1.613 1_556 S
N944 C947 1.350 . S
N945 S943 1.610 . S
N945 C946 1.351 . S
C946 C940 1.428 . S
C946 N945 1.351 . S
C946 C947 1.434 1_554 S
C947 C938 1.429 . S
C947 N944 1.350 . S
C947 C946 1.434 1_556 S
C948 C949 1.369 . S
C948 C950 1.419 . S
C948 H952 0.930 . S
C949 C948 1.369 . S
C949 C958 1.429 . S
C950 C948 1.419 . S
C950 C951 1.363 . S
C950 H953 0.929 . S
C951 C950 1.363 . S
C951 C957 1.428 . S
H952 C948 0.930 . S
H953 C950 0.929 . S
S954 N955 1.613 . S
S954 N956 1.610 . S
N955 S954 1.613 . S
N955 C958 1.350 . S
N956 S954 1.610 . S
N956 C957 1.351 . S
C957 C951 1.428 . S
C957 N956 1.351 . S
C957 C958 1.434 . S
C958 C949 1.429 . S
C958 N955 1.350 . S
C958 C957 1.434 . S
C959 C960 1.369 . S
C959 C961 1.419 1_556 S
C959 H963 0.930 . S
C960 C959 1.369 . S
C960 C969 1.429 . S
C961 C959 1.419 1_554 S
C961 C962 1.363 . S
C961 H964 0.929 . S
C962 C961 1.363 . S
C962 C968 1.428 . S
H963 C959 0.930 . S
H964 C961 0.929 . S
S965 N966 1.613 1_554 S
S965 N967 1.610 . S
N966 S965 1.613 1_556 S
N966 C969 1.350 . S
N967 S965 1.610 . S
N967 C968 1.351 . S
C968 C962 1.428 . S
C968 N967 1.351 . S
C968 C969 1.434 1_554 S
C969 C960 1.429 . S
C969 N966 1.350 . S
C969 C968 1.434 1_556 S
C970 C971 1.369 . S
C970 C972 1.419 . S
C970 H974 0.930 . S
C971 C970 1.369 . S
C971 C980 1.429 . S
C972 C970 1.419 . S
C972 C973 1.363 . S
C972 H975 0.929 . S
C973 C972 1.363 . S
C973 C979 1.428 . S
H974 C970 0.930 . S
H975 C972 0.929 . S
S976 N977 1.613 . S
S976 N978 1.610 . S
N977 S976 1.613 . S
N977 C980 1.350 . S
N978 S976 1.610 . S
N978 C979 1.351 . S
C979 C973 1.428 . S
C979 N978 1.351 . S
C979 C980 1.434 . S
C980 C971 1.429 . S
C980 N977 1.350 . S
C980 C979 1.434 . S
C981 C982 1.369 . S
C981 C983 1.419 1_556 S
C981 H985 0.930 . S
C982 C981 1.369 . S
C982 C991 1.429 . S
C983 C981 1.419 1_554 S
C983 C984 1.363 . S
C983 H986 0.929 . S
C984 C983 1.363 . S
C984 C990 1.428 . S
H985 C981 0.930 . S
H986 C983 0.929 . S
S987 N988 1.613 . S
S987 N989 1.610 1_556 S
N988 S987 1.613 . S
N988 C991 1.350 . S
N989 S987 1.610 1_554 S
N989 C990 1.351 . S
C990 C984 1.428 . S
C990 N989 1.351 . S
C990 C991 1.434 1_554 S
C991 C982 1.429 . S
C991 N988 1.350 . S
C991 C990 1.434 1_556 S
C992 C993 1.369 . S
C992 C994 1.419 . S
C992 H996 0.930 . S
C993 C992 1.369 . S
C993 C1002 1.429 . S
C994 C992 1.419 . S
C994 C995 1.363 . S
C994 H997 0.929 . S
C995 C994 1.363 . S
C995 C1001 1.428 . S
H996 C992 0.930 . S
H997 C994 0.929 . S
S998 N999 1.613 . S
S998 N1000 1.610 . S
N999 S998 1.613 . S
N999 C1002 1.350 . S
N1000 S998 1.610 . S
N1000 C1001 1.351 . S
C1001 C995 1.428 . S
C1001 N1000 1.351 . S
C1001 C1002 1.434 . S
C1002 C993 1.429 . S
C1002 N999 1.350 . S
C1002 C1001 1.434 . S
C1003 C1004 1.369 . S
C1003 C1005 1.419 1_556 S
C1003 H1007 0.930 . S
C1004 C1003 1.369 . S
C1004 C1013 1.429 . S
C1005 C1003 1.419 1_554 S
C1005 C1006 1.363 . S
C1005 H1008 0.929 . S
C1006 C1005 1.363 . S
C1006 C1012 1.428 . S
H1007 C1003 0.930 . S
H1008 C1005 0.929 . S
S1009 N1010 1.613 . S
S1009 N1011 1.610 1_556 S
N1010 S1009 1.613 . S
N1010 C1013 1.350 . S
N1011 S1009 1.610 1_554 S
N1011 C1012 1.351 . S
C1012 C1006 1.428 . S
C1012 N1011 1.351 . S
C1012 C1013 1.434 1_554 S
C1013 C1004 1.429 . S
C1013 N1010 1.350 . S
C1013 C1012 1.434 1_556 S
C1014 C1015 1.369 . S
C1014 C1016 1.419 . S
C1014 H1018 0.930 . S
C1015 C1014 1.369 . S
C1015 C1024 1.429 . S
C1016 C1014 1.419 . S
C1016 C1017 1.363 . S
C1016 H1019 0.929 . S
C1017 C1016 1.363 . S
C1017 C1023 1.428 . S
H1018 C1014 0.930 . S
H1019 C1016 0.929 . S
S1020 N1021 1.613 . S
S1020 N1022 1.610 . S
N1021 S1020 1.613 . S
N1021 C1024 1.350 . S
N1022 S1020 1.610 . S
N1022 C1023 1.351 . S
C1023 C1017 1.428 . S
C1023 N1022 1.351 . S
C1023 C1024 1.434 . S
C1024 C1015 1.429 . S
C1024 N1021 1.350 . S
C1024 C1023 1.434 . S
C1025 C1026 1.369 . S
C1025 C1027 1.419 1_554 S
C1025 H1029 0.930 . S
C1026 C1025 1.369 . S
C1026 C1035 1.429 . S
C1027 C1025 1.419 1_556 S
C1027 C1028 1.363 . S
C1027 H1030 0.929 . S
C1028 C1027 1.363 . S
C1028 C1034 1.428 . S
H1029 C1025 0.930 . S
H1030 C1027 0.929 . S
S1031 N1032 1.613 . S
S1031 N1033 1.610 1_554 S
N1032 S1031 1.613 . S
N1032 C1035 1.350 . S
N1033 S1031 1.610 1_556 S
N1033 C1034 1.351 . S
C1034 C1028 1.428 . S
C1034 N1033 1.351 . S
C1034 C1035 1.434 1_556 S
C1035 C1026 1.429 . S
C1035 N1032 1.350 . S
C1035 C1034 1.434 1_554 S
C1036 C1037 1.369 . S
C1036 C1038 1.419 . S
C1036 H1040 0.930 . S
C1037 C1036 1.369 . S
C1037 C1046 1.429 . S
C1038 C1036 1.419 . S
C1038 C1039 1.363 . S
C1038 H1041 0.929 . S
C1039 C1038 1.363 . S
C1039 C1045 1.428 . S
H1040 C1036 0.930 . S
H1041 C1038 0.929 . S
S1042 N1043 1.613 . S
S1042 N1044 1.610 . S
N1043 S1042 1.613 . S
N1043 C1046 1.350 . S
N1044 S1042 1.610 . S
N1044 C1045 1.351 . S
C1045 C1039 1.428 . S
C1045 N1044 1.351 . S
C1045 C1046 1.434 . S
C1046 C1037 1.429 . S
C1046 N1043 1.350 . S
C1046 C1045 1.434 . S
C1047 C1048 1.369 . S
C1047 C1049 1.419 1_554 S
C1047 H1051 0.930 . S
C1048 C1047 1.369 . S
C1048 C1057 1.429 . S
C1049 C1047 1.419 1_556 S
C1049 C1050 1.363 . S
C1049 H1052 0.929 . S
C1050 C1049 1.363 . S
C1050 C1056 1.428 . S
H1051 C1047 0.930 . S
H1052 C1049 0.929 . S
S1053 N1054 1.613 1_556 S
S1053 N1055 1.610 . S
N1054 S1053 1.613 1_554 S
N1054 C1057 1.350 . S
N1055 S1053 1.610 . S
N1055 C1056 1.351 . S
C1056 C1050 1.428 . S
C1056 N1055 1.351 . S
C1056 C1057 1.434 1_556 S
C1057 C1048 1.429 . S
C1057 N1054 1.350 . S
C1057 C1056 1.434 1_554 S
C1058 C1059 1.369 . S
C1058 C1060 1.419 . S
C1058 H1062 0.930 . S
C1059 C1058 1.369 . S
C1059 C1068 1.429 . S
C1060 C1058 1.419 . S
C1060 C1061 1.363 . S
C1060 H1063 0.929 . S
C1061 C1060 1.363 . S
C1061 C1067 1.428 . S
H1062 C1058 0.930 . S
H1063 C1060 0.929 . S
S1064 N1065 1.613 . S
S1064 N1066 1.610 . S
N1065 S1064 1.613 . S
N1065 C1068 1.350 . S
N1066 S1064 1.610 . S
N1066 C1067 1.351 . S
C1067 C1061 1.428 . S
C1067 N1066 1.351 . S
C1067 C1068 1.434 . S
C1068 C1059 1.429 . S
C1068 N1065 1.350 . S
C1068 C1067 1.434 . S
C1069 C1070 1.369 . S
C1069 C1071 1.419 1_554 S
C1069 H1073 0.930 . S
C1070 C1069 1.369 . S
C1070 C1079 1.429 . S
C1071 C1069 1.419 1_556 S
C1071 C1072 1.363 . S
C1071 H1074 0.929 . S
C1072 C1071 1.363 . S
C1072 C1078 1.428 . S
H1073 C1069 0.930 . S
H1074 C1071 0.929 . S
S1075 N1076 1.613 . S
S1075 N1077 1.610 1_554 S
N1076 S1075 1.613 . S
N1076 C1079 1.350 . S
N1077 S1075 1.610 1_556 S
N1077 C1078 1.351 . S
C1078 C1072 1.428 . S
C1078 N1077 1.351 . S
C1078 C1079 1.434 1_556 S
C1079 C1070 1.429 . S
C1079 N1076 1.350 . S
C1079 C1078 1.434 1_554 S
C465 C184 1.603 . S
C467 C10 1.602 . S
C476 C39 1.599 . S
C478 C213 1.600 . S
C487 C126 1.598 . S
C489 C68 1.599 . S
C498 C155 1.603 . S
C500 C97 1.602 . S
C509 C242 1.608 . S
C511 C416 1.607 . S
C520 C445 1.601 . S
C522 C271 1.602 . S
C531 C358 1.599 . S
C533 C300 1.600 . S
C542 C387 1.598 . S
C544 C329 1.599 . S
C553 C13 1.270 . S
C555 C438 1.228 . S
C564 C42 1.267 . S
C566 C409 1.219 . S
C575 C380 1.226 . S
C577 C71 1.269 . S
C586 C351 1.218 . S
C588 C100 1.268 . S
C597 C322 1.218 . S
C599 C129 1.270 . S
C608 C293 1.228 . S
C610 C158 1.274 . S
C619 C264 1.231 . S
C621 C187 1.271 . S
C630 C235 1.224 . S
C632 C216 1.274 . S
C641 C206 1.219 . S
C643 C245 1.268 . S
C652 C274 1.270 . S
C654 C177 1.220 . S
C663 C303 1.273 . S
C665 C148 1.230 . S
C674 C119 1.227 . S
C676 C332 1.274 . S
C685 C361 1.267 . S
C687 C90 1.222 . S
C696 C61 1.231 . S
C698 C390 1.273 . S
C707 C419 1.267 . S
C709 C32 1.223 . S
C718 C448 1.274 . S
C720 C3 1.224 . S
C729 C66 1.372 1_554 S
C731 C8 1.367 1_556 S
C740 C37 1.375 . S
C742 C95 1.363 . S
C751 C124 1.359 1_554 S
C753 C182 1.371 1_556 S
C762 C211 1.360 . S
C764 C153 1.372 . S
C773 C298 1.374 1_554 S
C775 C240 1.363 1_556 S
C784 C269 1.362 . S
C786 C327 1.373 . S
C795 C414 1.363 1_556 S
C797 C356 1.373 1_554 S
C806 C443 1.360 . S
C808 C385 1.372 . S
C817 C5 1.390 . S
C819 C92 1.389 . S
C828 C34 1.383 . S
C830 C63 1.384 . S
C839 C208 1.386 . S
C841 C121 1.387 . S
C850 C150 1.388 . S
C852 C179 1.387 . S
C861 C324 1.385 . S
C863 C237 1.386 . S
C872 C266 1.388 . S
C874 C295 1.388 . S
C883 C440 1.388 . S
C885 C353 1.387 . S
C894 C411 1.383 . S
C896 C382 1.384 . S
C905 C15 2.034 . S
C907 C21 1.861 . S
C916 C44 2.036 . S
C918 C50 1.855 . S
C927 C79 1.862 . S
C929 C73 2.034 . S
C938 C102 2.034 . S
C940 C108 1.857 . S
C949 C131 2.037 . S
C951 C137 1.864 . S
C960 C160 2.034 . S
C962 C166 1.856 . S
C971 C189 2.036 . S
C973 C195 1.864 . S
C982 C224 1.858 . S
C984 C218 2.038 . S
C993 C247 2.034 . S
C995 C253 1.860 . S
C1004 C282 1.861 . S
C1006 C276 2.034 . S
C1015 C311 1.863 . S
C1017 C305 2.037 . S
C1026 C340 1.855 . S
C1028 C334 2.035 . S
C1037 C363 2.038 . S
C1039 C369 1.860 . S
C1048 C398 1.865 . S
C1050 C392 2.036 . S
C1059 C421 2.038 . S
C1061 C427 1.862 . S
C1070 C450 2.038 . S
C1072 C456 1.860 . S
