# Generated by pormake.
# Topology bcu-l, (5)-cn, num edge types: 1
# Building blocks:
#     Node 0, Type 0, BuildingBlock: BEQFEK_clean_sbu_0, # of connection points: 5
#     Node 1, Type 0, BuildingBlock: BEQFEK_clean_sbu_0, # of connection points: 5
#     Node 2, Type 0, BuildingBlock: BEQFEK_clean_sbu_0, # of connection points: 5
#     Node 3, Type 0, BuildingBlock: BEQFEK_clean_sbu_0, # of connection points: 5
#     Node 4, Type 0, BuildingBlock: BEQFEK_clean_sbu_0, # of connection points: 5
#     Node 5, Type 0, BuildingBlock: BEQFEK_clean_sbu_0, # of connection points: 5
#     Node 6, Type 0, BuildingBlock: BEQFEK_clean_sbu_0, # of connection points: 5
#     Node 7, Type 0, BuildingBlock: BEQFEK_clean_sbu_0, # of connection points: 5
#     Node 8, Type 0, BuildingBlock: BEQFEK_clean_sbu_0, # of connection points: 5
#     Node 9, Type 0, BuildingBlock: BEQFEK_clean_sbu_0, # of connection points: 5
#     Node 10, Type 0, BuildingBlock: BEQFEK_clean_sbu_0, # of connection points: 5
#     Node 11, Type 0, BuildingBlock: BEQFEK_clean_sbu_0, # of connection points: 5
#     Node 12, Type 0, BuildingBlock: BEQFEK_clean_sbu_0, # of connection points: 5
#     Node 13, Type 0, BuildingBlock: BEQFEK_clean_sbu_0, # of connection points: 5
#     Node 14, Type 0, BuildingBlock: BEQFEK_clean_sbu_0, # of connection points: 5
#     Node 15, Type 0, BuildingBlock: BEQFEK_clean_sbu_0, # of connection points: 5
#     Node 16, Type 0, BuildingBlock: BEQFEK_clean_sbu_0, # of connection points: 5
#     Node 17, Type 0, BuildingBlock: BEQFEK_clean_sbu_0, # of connection points: 5
#     Node 18, Type 0, BuildingBlock: BEQFEK_clean_sbu_0, # of connection points: 5
#     Node 19, Type 0, BuildingBlock: BEQFEK_clean_sbu_0, # of connection points: 5
#     Node 20, Type 0, BuildingBlock: BEQFEK_clean_sbu_0, # of connection points: 5
#     Node 21, Type 0, BuildingBlock: BEQFEK_clean_sbu_0, # of connection points: 5
#     Node 22, Type 0, BuildingBlock: BEQFEK_clean_sbu_0, # of connection points: 5
#     Node 23, Type 0, BuildingBlock: BEQFEK_clean_sbu_0, # of connection points: 5
#     Node 24, Type 0, BuildingBlock: BEQFEK_clean_sbu_0, # of connection points: 5
#     Node 25, Type 0, BuildingBlock: BEQFEK_clean_sbu_0, # of connection points: 5
#     Node 26, Type 0, BuildingBlock: BEQFEK_clean_sbu_0, # of connection points: 5
#     Node 27, Type 0, BuildingBlock: BEQFEK_clean_sbu_0, # of connection points: 5
#     Node 28, Type 0, BuildingBlock: BEQFEK_clean_sbu_0, # of connection points: 5
#     Node 29, Type 0, BuildingBlock: BEQFEK_clean_sbu_0, # of connection points: 5
#     Node 30, Type 0, BuildingBlock: BEQFEK_clean_sbu_0, # of connection points: 5
#     Node 31, Type 0, BuildingBlock: BEQFEK_clean_sbu_0, # of connection points: 5
#     Node 32, Type 0, BuildingBlock: BEQFEK_clean_sbu_0, # of connection points: 5
#     Node 33, Type 0, BuildingBlock: BEQFEK_clean_sbu_0, # of connection points: 5
#     Node 34, Type 0, BuildingBlock: BEQFEK_clean_sbu_0, # of connection points: 5
#     Node 35, Type 0, BuildingBlock: BEQFEK_clean_sbu_0, # of connection points: 5
#     Node 36, Type 0, BuildingBlock: BEQFEK_clean_sbu_0, # of connection points: 5
#     Node 37, Type 0, BuildingBlock: BEQFEK_clean_sbu_0, # of connection points: 5
#     Node 38, Type 0, BuildingBlock: BEQFEK_clean_sbu_0, # of connection points: 5
#     Node 39, Type 0, BuildingBlock: BEQFEK_clean_sbu_0, # of connection points: 5
#     Node 40, Type 0, BuildingBlock: BEQFEK_clean_sbu_0, # of connection points: 5
#     Node 41, Type 0, BuildingBlock: BEQFEK_clean_sbu_0, # of connection points: 5
#     Node 42, Type 0, BuildingBlock: BEQFEK_clean_sbu_0, # of connection points: 5
#     Node 43, Type 0, BuildingBlock: BEQFEK_clean_sbu_0, # of connection points: 5
#     Node 44, Type 0, BuildingBlock: BEQFEK_clean_sbu_0, # of connection points: 5
#     Node 45, Type 0, BuildingBlock: BEQFEK_clean_sbu_0, # of connection points: 5
#     Node 46, Type 0, BuildingBlock: BEQFEK_clean_sbu_0, # of connection points: 5
#     Node 47, Type 0, BuildingBlock: BEQFEK_clean_sbu_0, # of connection points: 5
#     Edge 48, Type (0, 0), None
#     Edge 49, Type (0, 0), None
#     Edge 50, Type (0, 0), None
#     Edge 51, Type (0, 0), None
#     Edge 52, Type (0, 0), None
#     Edge 53, Type (0, 0), None
#     Edge 54, Type (0, 0), None
#     Edge 55, Type (0, 0), None
#     Edge 56, Type (0, 0), None
#     Edge 57, Type (0, 0), None
#     Edge 58, Type (0, 0), None
#     Edge 59, Type (0, 0), None
#     Edge 60, Type (0, 0), None
#     Edge 61, Type (0, 0), None
#     Edge 62, Type (0, 0), None
#     Edge 63, Type (0, 0), None
#     Edge 64, Type (0, 0), None
#     Edge 65, Type (0, 0), None
#     Edge 66, Type (0, 0), None
#     Edge 67, Type (0, 0), None
#     Edge 68, Type (0, 0), None
#     Edge 69, Type (0, 0), None
#     Edge 70, Type (0, 0), None
#     Edge 71, Type (0, 0), None
#     Edge 72, Type (0, 0), None
#     Edge 73, Type (0, 0), None
#     Edge 74, Type (0, 0), None
#     Edge 75, Type (0, 0), None
#     Edge 76, Type (0, 0), None
#     Edge 77, Type (0, 0), None
#     Edge 78, Type (0, 0), None
#     Edge 79, Type (0, 0), None
#     Edge 80, Type (0, 0), None
#     Edge 81, Type (0, 0), None
#     Edge 82, Type (0, 0), None
#     Edge 83, Type (0, 0), None
#     Edge 84, Type (0, 0), None
#     Edge 85, Type (0, 0), None
#     Edge 86, Type (0, 0), None
#     Edge 87, Type (0, 0), None
#     Edge 88, Type (0, 0), None
#     Edge 89, Type (0, 0), None
#     Edge 90, Type (0, 0), None
#     Edge 91, Type (0, 0), None
#     Edge 92, Type (0, 0), None
#     Edge 93, Type (0, 0), None
#     Edge 94, Type (0, 0), None
#     Edge 95, Type (0, 0), None
#     Edge 96, Type (0, 0), None
#     Edge 97, Type (0, 0), None
#     Edge 98, Type (0, 0), None
#     Edge 99, Type (0, 0), None
#     Edge 100, Type (0, 0), None
#     Edge 101, Type (0, 0), None
#     Edge 102, Type (0, 0), None
#     Edge 103, Type (0, 0), None
#     Edge 104, Type (0, 0), None
#     Edge 105, Type (0, 0), None
#     Edge 106, Type (0, 0), None
#     Edge 107, Type (0, 0), None
#     Edge 108, Type (0, 0), None
#     Edge 109, Type (0, 0), None
#     Edge 110, Type (0, 0), None
#     Edge 111, Type (0, 0), None
#     Edge 112, Type (0, 0), None
#     Edge 113, Type (0, 0), None
#     Edge 114, Type (0, 0), None
#     Edge 115, Type (0, 0), None
#     Edge 116, Type (0, 0), None
#     Edge 117, Type (0, 0), None
#     Edge 118, Type (0, 0), None
#     Edge 119, Type (0, 0), None
#     Edge 120, Type (0, 0), None
#     Edge 121, Type (0, 0), None
#     Edge 122, Type (0, 0), None
#     Edge 123, Type (0, 0), None
#     Edge 124, Type (0, 0), None
#     Edge 125, Type (0, 0), None
#     Edge 126, Type (0, 0), None
#     Edge 127, Type (0, 0), None
#     Edge 128, Type (0, 0), None
#     Edge 129, Type (0, 0), None
#     Edge 130, Type (0, 0), None
#     Edge 131, Type (0, 0), None
#     Edge 132, Type (0, 0), None
#     Edge 133, Type (0, 0), None
#     Edge 134, Type (0, 0), None
#     Edge 135, Type (0, 0), None
#     Edge 136, Type (0, 0), None
#     Edge 137, Type (0, 0), None
#     Edge 138, Type (0, 0), None
#     Edge 139, Type (0, 0), None
#     Edge 140, Type (0, 0), None
#     Edge 141, Type (0, 0), None
#     Edge 142, Type (0, 0), None
#     Edge 143, Type (0, 0), None
#     Edge 144, Type (0, 0), None
#     Edge 145, Type (0, 0), None
#     Edge 146, Type (0, 0), None
#     Edge 147, Type (0, 0), None
#     Edge 148, Type (0, 0), None
#     Edge 149, Type (0, 0), None
#     Edge 150, Type (0, 0), None
#     Edge 151, Type (0, 0), None
#     Edge 152, Type (0, 0), None
#     Edge 153, Type (0, 0), None
#     Edge 154, Type (0, 0), None
#     Edge 155, Type (0, 0), None
#     Edge 156, Type (0, 0), None
#     Edge 157, Type (0, 0), None
#     Edge 158, Type (0, 0), None
#     Edge 159, Type (0, 0), None
#     Edge 160, Type (0, 0), None
#     Edge 161, Type (0, 0), None
#     Edge 162, Type (0, 0), None
#     Edge 163, Type (0, 0), None
#     Edge 164, Type (0, 0), None
#     Edge 165, Type (0, 0), None
#     Edge 166, Type (0, 0), None
#     Edge 167, Type (0, 0), None
# Relax obj value: 0.218
# Max RMSD: 0.118
# Mean RMSD: 0.118
data_MOF--net-bcu-l--node1-BEQFEK_clean_sbu_0--edge1-none
_symmetry_space_group_name_H-M    P1
_symmetry_Int_Tables_number       1
_symmetry_cell_setting            triclinic
loop_
_symmetry_equiv_pos_as_xyz
'x, y, z'
_cell_length_a     33.905461
_cell_length_b     33.906259
_cell_length_c     33.905686
_cell_angle_alpha  89.999948
_cell_angle_beta   89.999929
_cell_angle_gamma 89.999971
loop_
_atom_site_label
_atom_site_type_symbol
_atom_site_fract_x
_atom_site_fract_y
_atom_site_fract_z
_atom_type_partial_charge
Co0 Co 0.0794 0.31405 0.44526 0.0
Co1 Co 1.02144 0.26642 0.39627 0.0
C2 C 0.99317 0.32065 0.46357 0.0
O3 O 1.02887 0.32855 0.47043 0.0
O4 O 0.98476 0.29645 0.43599 0.0
C5 C 0.10932 0.32412 0.51694 0.0
O6 O 0.07835 0.30259 0.52553 0.0
C7 C 0.97578 0.1964 0.40821 0.0
C8 C 0.96217 0.17255 0.34942 0.0
C9 C 0.95887 0.16431 0.38945 0.0
N10 N 0.98902 0.22214 0.38094 0.0
N11 N 0.98055 0.20781 0.34567 0.0
C12 C 0.98143 0.20148 0.45176 0.0
H13 H 1.00949 0.21694 0.45806 0.0
H14 H 0.98095 0.17261 0.46719 0.0
H15 H 0.95721 0.22002 0.46359 0.0
C16 C 0.12945 0.24684 0.43432 0.0
N17 N 0.09239 0.26119 0.43774 0.0
N18 N 0.06852 0.24079 0.41524 0.0
C19 C 0.08975 0.21217 0.39706 0.0
C20 C 0.12913 0.21512 0.40839 0.0
C21 C 0.16537 0.27001 0.44574 0.0
H22 H 0.16249 0.30078 0.43505 0.0
H23 H 0.1679 0.27044 0.47831 0.0
H24 H 0.19285 0.25767 0.43314 0.0
O25 O 0.08612 0.33756 0.39396 0.0
O26 O 0.04446 0.30488 0.35441 0.0
H27 H 0.06305 0.20566 0.34029 0.0
H28 H 0.09668 0.16617 0.35303 0.0
C29 C 0.07404 0.18673 0.3646 0.0
H30 H 0.04912 0.16894 0.37598 0.0
H31 H 0.98846 0.22128 0.31915 0.0
O32 O 0.11658 0.33409 0.48174 0.0
C33 C 0.07252 0.33015 0.35981 0.0
Co34 Co 0.84148 0.07939 0.44526 0.0
Co35 Co 0.8891 1.02143 0.39627 0.0
C36 C 0.83488 0.99316 0.46357 0.0
O37 O 0.82699 1.02886 0.47043 0.0
O38 O 0.85908 0.98476 0.43599 0.0
C39 C 0.83143 0.10931 0.51693 0.0
O40 O 0.85297 0.07835 0.52551 0.0
C41 C 0.95913 0.97577 0.40821 0.0
C42 C 0.98297 0.96215 0.34941 0.0
C43 C 0.99121 0.95886 0.38945 0.0
N44 N 0.93338 0.98901 0.38093 0.0
N45 N 0.9477 0.98052 0.34566 0.0
C46 C 0.95405 0.98144 0.45176 0.0
H47 H 0.93859 1.00951 0.45805 0.0
H48 H 0.98292 0.98097 0.46718 0.0
H49 H 0.93551 0.95723 0.4636 0.0
C50 C 0.90865 0.12947 0.43425 0.0
N51 N 0.89433 0.09239 0.43772 0.0
N52 N 0.91473 0.06852 0.41521 0.0
C53 C 0.94332 0.08975 0.39699 0.0
C54 C 0.94031 0.12914 0.40825 0.0
C55 C 0.88547 0.16537 0.44567 0.0
H56 H 0.8547 0.16248 0.43501 0.0
H57 H 0.88507 0.16792 0.47825 0.0
H58 H 0.89779 0.19285 0.43306 0.0
O59 O 0.81796 0.0861 0.39396 0.0
O60 O 0.85064 0.04444 0.35441 0.0
H61 H 0.94983 0.06301 0.34023 0.0
H62 H 0.98931 0.09667 0.35295 0.0
C63 C 0.96876 0.07403 0.36453 0.0
H64 H 0.98656 0.04913 0.37593 0.0
H65 H 0.93423 0.98842 0.31914 0.0
O66 O 0.82144 0.11656 0.48173 0.0
C67 C 0.82537 0.0725 0.35981 0.0
Co68 Co 0.07613 0.84147 0.44526 0.0
Co69 Co 0.13409 0.88908 0.39626 0.0
C70 C 0.16236 0.83487 0.46357 0.0
O71 O 0.12666 0.82698 0.47043 0.0
O72 O 0.17077 0.85906 0.43599 0.0
C73 C 0.04621 0.8314 0.51693 0.0
O74 O 0.07718 0.85294 0.52552 0.0
C75 C 0.17975 0.95911 0.4082 0.0
C76 C 0.19338 0.98295 0.34941 0.0
C77 C 0.19667 0.99119 0.38945 0.0
N78 N 0.16651 0.93336 0.38093 0.0
N79 N 0.175 0.94768 0.34566 0.0
C80 C 0.17408 0.95403 0.45175 0.0
H81 H 0.14602 0.93857 0.45805 0.0
H82 H 0.17455 0.9829 0.46718 0.0
H83 H 0.1983 0.93549 0.46359 0.0
C84 C 1.02606 0.90864 0.43425 0.0
N85 N 0.06313 0.89432 0.43772 0.0
N86 N 0.087 0.91472 0.41521 0.0
C87 C 0.06578 0.9433 0.39698 0.0
C88 C 1.02638 0.9403 0.40825 0.0
C89 C 0.99015 0.88547 0.44568 0.0
H90 H 0.99304 0.8547 0.43502 0.0
H91 H 0.98762 0.88506 0.47826 0.0
H92 H 0.96267 0.8978 0.43308 0.0
O93 O 0.06941 0.81795 0.39396 0.0
O94 O 0.11108 0.85062 0.35441 0.0
H95 H 0.09252 0.94981 0.34023 0.0
H96 H 0.05885 0.98928 0.35293 0.0
C97 C 0.08149 0.96874 0.36452 0.0
H98 H 0.1064 0.98654 0.37592 0.0
H99 H 0.1671 0.93421 0.31914 0.0
O100 O 0.03895 0.82143 0.48173 0.0
C101 C 0.08302 0.82535 0.35981 0.0
Co102 Co 0.31406 0.07611 0.44526 0.0
Co103 Co 0.26644 0.13407 0.39627 0.0
C104 C 0.32065 0.16234 0.46357 0.0
O105 O 0.32854 0.12664 0.47044 0.0
O106 O 0.29646 0.17075 0.43599 0.0
C107 C 0.32412 0.04619 0.51693 0.0
O108 O 0.30257 0.07715 0.52551 0.0
C109 C 0.19641 0.17971 0.40827 0.0
C110 C 0.17252 0.19337 0.3495 0.0
C111 C 0.16431 0.19663 0.38954 0.0
N112 N 0.22214 0.1665 0.38096 0.0
N113 N 0.20779 0.175 0.34571 0.0
C114 C 0.20151 0.17402 0.45181 0.0
H115 H 0.21702 0.14598 0.45808 0.0
H116 H 0.17265 0.17443 0.46725 0.0
H117 H 0.22002 0.19825 0.46366 0.0
C118 C 0.24689 1.02604 0.43425 0.0
N119 N 0.26121 0.06311 0.43772 0.0
N120 N 0.24081 0.08698 0.41521 0.0
C121 C 0.21223 0.06575 0.39698 0.0
C122 C 0.21523 1.02636 0.40825 0.0
C123 C 0.27006 0.99013 0.44568 0.0
H124 H 0.30083 0.99302 0.43501 0.0
H125 H 0.27046 0.98759 0.47826 0.0
H126 H 0.25773 0.96265 0.43308 0.0
O127 O 0.33757 0.06941 0.39396 0.0
O128 O 0.30489 0.11107 0.3544 0.0
H129 H 0.20572 0.09251 0.34023 0.0
H130 H 0.16625 0.05883 0.35292 0.0
C131 C 0.18678 0.08147 0.36452 0.0
H132 H 0.16897 0.10637 0.37592 0.0
H133 H 0.22125 0.16712 0.31918 0.0
O134 O 0.3341 0.03894 0.48173 0.0
C135 C 0.33016 0.08301 0.3598 0.0
Co136 Co 0.0794 0.84145 0.71027 0.0
Co137 Co 1.02144 0.88908 0.75926 0.0
C138 C 0.99316 0.83486 0.69197 0.0
O139 O 1.02886 0.82696 0.6851 0.0
O140 O 0.98476 0.85906 0.71954 0.0
C141 C 0.10931 0.83139 0.6386 0.0
O142 O 0.07834 0.85293 0.63001 0.0
C143 C 0.97577 0.9591 0.74732 0.0
C144 C 0.96217 0.98296 0.80612 0.0
C145 C 0.95886 0.9912 0.76608 0.0
N146 N 0.98902 0.93337 0.7746 0.0
N147 N 0.98055 0.94769 0.80987 0.0
C148 C 0.98142 0.95402 0.70377 0.0
H149 H 1.00948 0.93856 0.69747 0.0
H150 H 0.98095 0.98289 0.68834 0.0
H151 H 0.95721 0.93548 0.69194 0.0
C152 C 0.12945 0.90866 0.72122 0.0
N153 N 0.09239 0.89431 0.71779 0.0
N154 N 0.06852 0.91472 0.74029 0.0
C155 C 0.08974 0.94333 0.75847 0.0
C156 C 0.12912 0.94039 0.74714 0.0
C157 C 0.16536 0.88549 0.7098 0.0
H158 H 0.16247 0.85472 0.72049 0.0
H159 H 0.16791 0.88506 0.67723 0.0
H160 H 0.19284 0.89782 0.72241 0.0
O161 O 0.08612 0.81795 0.76157 0.0
O162 O 0.04445 0.85063 0.80112 0.0
H163 H 0.06304 0.94986 0.81524 0.0
H164 H 0.09667 0.98935 0.80248 0.0
C165 C 0.07404 0.96879 0.79092 0.0
H166 H 0.04912 0.98657 0.77954 0.0
H167 H 0.98846 0.93422 0.83638 0.0
O168 O 0.11657 0.82141 0.67379 0.0
C169 C 0.07252 0.82536 0.79572 0.0
Co170 Co 0.31407 0.07939 0.71027 0.0
Co171 Co 0.26643 1.02143 0.75925 0.0
C172 C 0.32067 0.99315 0.69196 0.0
O173 O 0.32857 1.02885 0.6851 0.0
O174 O 0.29646 0.98475 0.71954 0.0
C175 C 0.32414 0.1093 0.6386 0.0
O176 O 0.3026 0.07834 0.63002 0.0
C177 C 0.19641 0.97579 0.74726 0.0
C178 C 0.17251 0.96216 0.80603 0.0
C179 C 0.1643 0.95887 0.76599 0.0
N180 N 0.22214 0.98901 0.77456 0.0
N181 N 0.20778 0.98052 0.80981 0.0
C182 C 0.20152 0.98146 0.70372 0.0
H183 H 0.21703 1.0095 0.69744 0.0
H184 H 0.17266 0.98104 0.68828 0.0
H185 H 0.22003 0.95722 0.69188 0.0
C186 C 0.24687 0.12945 0.72122 0.0
N187 N 0.26122 0.09238 0.71779 0.0
N188 N 0.24081 0.06851 0.74029 0.0
C189 C 0.21219 0.08974 0.75847 0.0
C190 C 0.21514 0.12912 0.74714 0.0
C191 C 0.27004 0.16536 0.7098 0.0
H192 H 0.30081 0.16247 0.72049 0.0
H193 H 0.27046 0.1679 0.67723 0.0
H194 H 0.25771 0.19284 0.72241 0.0
O195 O 0.33757 0.0861 0.76157 0.0
O196 O 0.30488 0.04444 0.80112 0.0
H197 H 0.20567 0.06302 0.81523 0.0
H198 H 0.16619 0.09667 0.8025 0.0
C199 C 0.18674 0.07403 0.79093 0.0
H200 H 0.16895 0.04912 0.77953 0.0
H201 H 0.22124 0.98842 0.83635 0.0
O202 O 0.33411 0.11656 0.6738 0.0
C203 C 0.33016 0.0725 0.79573 0.0
Co204 Co 0.07613 0.31406 0.71027 0.0
Co205 Co 0.13409 0.26642 0.75925 0.0
C206 C 0.16237 0.32066 0.69196 0.0
O207 O 0.12666 0.32855 0.6851 0.0
O208 O 0.17077 0.29646 0.71954 0.0
C209 C 0.04622 0.32413 0.6386 0.0
O210 O 0.07718 0.3026 0.63001 0.0
C211 C 0.17974 0.19641 0.74726 0.0
C212 C 0.19337 0.17251 0.80603 0.0
C213 C 0.19665 0.1643 0.76599 0.0
N214 N 0.16651 0.22213 0.77456 0.0
N215 N 0.17501 0.20778 0.80982 0.0
C216 C 0.17406 0.20151 0.70372 0.0
H217 H 0.14602 0.21702 0.69744 0.0
H218 H 0.17448 0.17265 0.68828 0.0
H219 H 0.1983 0.22002 0.69188 0.0
C220 C 1.02608 0.24685 0.72121 0.0
N221 N 0.06314 0.2612 0.71779 0.0
N222 N 0.08701 0.2408 0.74029 0.0
C223 C 0.06578 0.21218 0.75847 0.0
C224 C 1.0264 0.21512 0.74714 0.0
C225 C 0.99016 0.27002 0.70979 0.0
H226 H 0.99304 0.30078 0.72048 0.0
H227 H 0.98763 0.27044 0.67722 0.0
H228 H 0.96268 0.25767 0.72239 0.0
O229 O 0.06942 0.33756 0.76157 0.0
O230 O 0.11108 0.30488 0.80112 0.0
H231 H 0.0925 0.20567 0.81524 0.0
H232 H 0.05885 0.16619 0.80251 0.0
C233 C 0.08149 0.18674 0.79093 0.0
H234 H 0.1064 0.16894 0.77955 0.0
H235 H 0.16711 0.22123 0.83635 0.0
O236 O 0.03896 0.3341 0.6738 0.0
C237 C 0.08302 0.33015 0.79573 0.0
Co238 Co 0.84147 0.07611 0.71027 0.0
Co239 Co 0.8891 0.13407 0.75926 0.0
C240 C 0.83488 0.16235 0.69196 0.0
O241 O 0.82698 0.12664 0.68509 0.0
O242 O 0.85907 0.17075 0.71954 0.0
C243 C 0.83143 0.04619 0.6386 0.0
O244 O 0.85298 0.07715 0.63003 0.0
C245 C 0.95912 0.17971 0.74726 0.0
C246 C 0.983 0.19337 0.80603 0.0
C247 C 0.99122 0.19664 0.76599 0.0
N248 N 0.93339 0.1665 0.77456 0.0
N249 N 0.94774 0.17501 0.80982 0.0
C250 C 0.95402 0.17402 0.70372 0.0
H251 H 0.93851 0.14598 0.69745 0.0
H252 H 0.98289 0.17444 0.68829 0.0
H253 H 0.93551 0.19826 0.69187 0.0
C254 C 0.90864 1.02604 0.72129 0.0
N255 N 0.89432 0.06311 0.71781 0.0
N256 N 0.91472 0.08698 0.74032 0.0
C257 C 0.94331 0.06576 0.75855 0.0
C258 C 0.9403 1.02636 0.74728 0.0
C259 C 0.88547 0.99013 0.70986 0.0
H260 H 0.85469 0.99303 0.72052 0.0
H261 H 0.88506 0.98759 0.67729 0.0
H262 H 0.89779 0.96265 0.72248 0.0
O263 O 0.81796 0.06941 0.76157 0.0
O264 O 0.85064 0.11107 0.80112 0.0
H265 H 0.94982 0.09252 0.81529 0.0
H266 H 0.98929 0.05884 0.8026 0.0
C267 C 0.96875 0.08148 0.791 0.0
H268 H 0.98656 0.10637 0.77959 0.0
H269 H 0.93428 0.16712 0.83635 0.0
O270 O 0.82144 0.03894 0.6738 0.0
C271 C 0.82537 0.08301 0.79573 0.0
Co272 Co 0.44527 0.07939 0.31404 0.0
Co273 Co 0.39626 1.02144 0.26643 0.0
C274 C 0.46355 0.99315 0.32065 0.0
O275 O 0.47043 1.02885 0.32854 0.0
O276 O 0.43597 0.98475 0.29646 0.0
C277 C 0.51695 0.1093 0.3241 0.0
O278 O 0.52553 0.07833 0.30256 0.0
C279 C 0.40819 0.97577 0.19642 0.0
C280 C 0.34939 0.96216 0.17256 0.0
C281 C 0.38943 0.95886 0.16432 0.0
N282 N 0.38091 0.98902 0.22215 0.0
N283 N 0.34565 0.98054 0.20783 0.0
C284 C 0.45174 0.98142 0.2015 0.0
H285 H 0.45804 1.00948 0.21696 0.0
H286 H 0.46717 0.98095 0.17263 0.0
H287 H 0.46357 0.9572 0.22004 0.0
C288 C 0.43431 0.12944 0.24684 0.0
N289 N 0.43774 0.09237 0.26119 0.0
N290 N 0.41523 0.06851 0.24079 0.0
C291 C 0.39704 0.08973 0.21218 0.0
C292 C 0.40838 0.12911 0.21512 0.0
C293 C 0.44574 0.16535 0.27001 0.0
H294 H 0.43506 0.16247 0.30078 0.0
H295 H 0.47831 0.16789 0.27042 0.0
H296 H 0.43314 0.19283 0.25767 0.0
O297 O 0.39398 0.08613 0.33756 0.0
O298 O 0.35441 0.04447 0.30489 0.0
H299 H 0.34027 0.06304 0.20568 0.0
H300 H 0.353 0.09667 0.16619 0.0
C301 C 0.36457 0.07404 0.18674 0.0
H302 H 0.37595 0.04911 0.16896 0.0
H303 H 0.31913 0.98846 0.2213 0.0
O304 O 0.48176 0.11656 0.33407 0.0
C305 C 0.35982 0.07255 0.33014 0.0
Co306 Co 0.07613 0.44525 0.31405 0.0
Co307 Co 0.13409 0.39625 0.26644 0.0
C308 C 0.16237 0.46354 0.32066 0.0
O309 O 0.12667 0.47041 0.32855 0.0
O310 O 0.17077 0.43596 0.29646 0.0
C311 C 0.04622 0.51693 0.3241 0.0
O312 O 0.07719 0.52551 0.30256 0.0
C313 C 0.17976 0.40818 0.19642 0.0
C314 C 0.19337 0.34939 0.17257 0.0
C315 C 0.19667 0.38943 0.16433 0.0
N316 N 0.16651 0.38091 0.22216 0.0
N317 N 0.17499 0.34564 0.20783 0.0
C318 C 0.17411 0.45173 0.20151 0.0
H319 H 0.14605 0.45803 0.21697 0.0
H320 H 0.17458 0.46716 0.17264 0.0
H321 H 0.19833 0.46356 0.22004 0.0
C322 C 1.02609 0.4343 0.24684 0.0
N323 N 0.06315 0.43773 0.26119 0.0
N324 N 0.08702 0.41522 0.2408 0.0
C325 C 0.06579 0.39703 0.21218 0.0
C326 C 1.02641 0.40837 0.21512 0.0
C327 C 0.99017 0.44572 0.27001 0.0
H328 H 0.99305 0.43504 0.30078 0.0
H329 H 0.98764 0.4783 0.27042 0.0
H330 H 0.96269 0.43313 0.25767 0.0
O331 O 0.06939 0.39396 0.33756 0.0
O332 O 0.11106 0.35439 0.3049 0.0
H333 H 0.09249 0.34026 0.20568 0.0
H334 H 0.05886 0.353 0.16619 0.0
C335 C 0.08149 0.36456 0.18675 0.0
H336 H 0.10642 0.37594 0.16896 0.0
H337 H 0.16708 0.31912 0.2213 0.0
O338 O 0.03896 0.48174 0.33408 0.0
C339 C 0.08298 0.3598 0.33014 0.0
Co340 Co 0.71026 0.07612 0.31404 0.0
Co341 Co 0.75927 0.13407 0.26643 0.0
C342 C 0.69198 0.16235 0.32065 0.0
O343 O 0.6851 0.12665 0.32854 0.0
O344 O 0.71956 0.17076 0.29646 0.0
C345 C 0.63858 0.04621 0.32409 0.0
O346 O 0.63 0.07718 0.30256 0.0
C347 C 0.74733 0.17974 0.19642 0.0
C348 C 0.80613 0.19335 0.17256 0.0
C349 C 0.76609 0.19665 0.16432 0.0
N350 N 0.77461 0.16649 0.22216 0.0
N351 N 0.80988 0.17497 0.20783 0.0
C352 C 0.70379 0.17408 0.2015 0.0
H353 H 0.69748 0.14602 0.21696 0.0
H354 H 0.68836 0.17456 0.17263 0.0
H355 H 0.69195 0.1983 0.22004 0.0
C356 C 0.72122 1.02607 0.24684 0.0
N357 N 0.71779 0.06313 0.26119 0.0
N358 N 0.7403 0.087 0.24079 0.0
C359 C 0.75849 0.06578 0.21218 0.0
C360 C 0.74715 1.0264 0.21512 0.0
C361 C 0.70979 0.99016 0.27 0.0
H362 H 0.72047 0.99304 0.30078 0.0
H363 H 0.67722 0.98762 0.27042 0.0
H364 H 0.72239 0.96268 0.25767 0.0
O365 O 0.76155 0.06938 0.33756 0.0
O366 O 0.80112 0.11104 0.30489 0.0
H367 H 0.81526 0.09247 0.20568 0.0
H368 H 0.80253 0.05884 0.16619 0.0
C369 C 0.79096 0.08148 0.18674 0.0
H370 H 0.77958 0.1064 0.16896 0.0
H371 H 0.8364 0.16706 0.2213 0.0
O372 O 0.67377 0.03895 0.33407 0.0
C373 C 0.79571 0.08297 0.33014 0.0
Co374 Co 0.0794 0.71025 0.31405 0.0
Co375 Co 1.02145 0.75925 0.26644 0.0
C376 C 0.99316 0.69196 0.32066 0.0
O377 O 1.02886 0.68509 0.32855 0.0
O378 O 0.98476 0.71954 0.29646 0.0
C379 C 0.1093 0.63857 0.3241 0.0
O380 O 0.07833 0.62999 0.30257 0.0
C381 C 0.97578 0.74732 0.19642 0.0
C382 C 0.96217 0.80611 0.17256 0.0
C383 C 0.95887 0.76608 0.16433 0.0
N384 N 0.98902 0.7746 0.22216 0.0
N385 N 0.98055 0.80986 0.20783 0.0
C386 C 0.98143 0.70377 0.2015 0.0
H387 H 1.00949 0.69747 0.21696 0.0
H388 H 0.98096 0.68834 0.17263 0.0
H389 H 0.95721 0.69194 0.22004 0.0
C390 C 0.12945 0.7212 0.24684 0.0
N391 N 0.09238 0.71777 0.26119 0.0
N392 N 0.06852 0.74028 0.2408 0.0
C393 C 0.08974 0.75847 0.21218 0.0
C394 C 0.12912 0.74713 0.21512 0.0
C395 C 0.16536 0.70977 0.27001 0.0
H396 H 0.16248 0.72045 0.30078 0.0
H397 H 0.16789 0.6772 0.27043 0.0
H398 H 0.19284 0.72236 0.25767 0.0
O399 O 0.08614 0.76154 0.33756 0.0
O400 O 0.04447 0.80111 0.30489 0.0
H401 H 0.06305 0.81524 0.20568 0.0
H402 H 0.09668 0.8025 0.16619 0.0
C403 C 0.07404 0.79094 0.18675 0.0
H404 H 0.04912 0.77956 0.16896 0.0
H405 H 0.98846 0.83638 0.2213 0.0
O406 O 0.11656 0.67376 0.33408 0.0
C407 C 0.07255 0.7957 0.33014 0.0
Co408 Co 0.44526 0.07611 0.84148 0.0
Co409 Co 0.39625 0.13407 0.8891 0.0
C410 C 0.46355 0.16235 0.83488 0.0
O411 O 0.47042 0.12665 0.82698 0.0
O412 O 0.43597 0.17075 0.85907 0.0
C413 C 0.51694 0.04621 0.83143 0.0
O414 O 0.52552 0.07717 0.85297 0.0
C415 C 0.40819 0.17974 0.95911 0.0
C416 C 0.3494 0.19335 0.98297 0.0
C417 C 0.38944 0.19665 0.9912 0.0
N418 N 0.38092 0.16649 0.93337 0.0
N419 N 0.34565 0.17497 0.9477 0.0
C420 C 0.45174 0.17408 0.95403 0.0
H421 H 0.45804 0.14602 0.93857 0.0
H422 H 0.46717 0.17456 0.9829 0.0
H423 H 0.46357 0.19829 0.93549 0.0
C424 C 0.43431 1.02607 0.90869 0.0
N425 N 0.43774 0.06313 0.89434 0.0
N426 N 0.41523 0.08699 0.91474 0.0
C427 C 0.39704 0.06577 0.94335 0.0
C428 C 0.40838 1.02639 0.94041 0.0
C429 C 0.44573 0.99015 0.88552 0.0
H430 H 0.43505 0.99304 0.85475 0.0
H431 H 0.47831 0.98762 0.8851 0.0
H432 H 0.43314 0.96267 0.89786 0.0
O433 O 0.39397 0.06937 0.81798 0.0
O434 O 0.3544 0.11104 0.85064 0.0
H435 H 0.34026 0.09247 0.94985 0.0
H436 H 0.353 0.05884 0.98934 0.0
C437 C 0.36457 0.08147 0.96879 0.0
H438 H 0.37595 0.10639 0.98657 0.0
H439 H 0.31913 0.16705 0.93423 0.0
O440 O 0.48175 0.03895 0.82145 0.0
C441 C 0.35981 0.08296 0.82539 0.0
Co442 Co 0.0794 0.44525 0.84148 0.0
Co443 Co 1.02145 0.39625 0.88909 0.0
C444 C 0.99316 0.46354 0.83487 0.0
O445 O 1.02886 0.47041 0.82698 0.0
O446 O 0.98476 0.43596 0.85907 0.0
C447 C 0.1093 0.51693 0.83142 0.0
O448 O 0.07833 0.52551 0.85296 0.0
C449 C 0.97577 0.40818 0.9591 0.0
C450 C 0.96217 0.34939 0.98296 0.0
C451 C 0.95886 0.38942 0.9912 0.0
N452 N 0.98902 0.38091 0.93337 0.0
N453 N 0.98055 0.34564 0.9477 0.0
C454 C 0.98142 0.45173 0.95402 0.0
H455 H 1.00948 0.45803 0.93856 0.0
H456 H 0.98096 0.46716 0.98289 0.0
H457 H 0.9572 0.46356 0.93549 0.0
C458 C 0.12945 0.43431 0.90869 0.0
N459 N 0.09238 0.43773 0.89433 0.0
N460 N 0.06852 0.41522 0.91473 0.0
C461 C 0.08974 0.39704 0.94335 0.0
C462 C 0.12912 0.40838 0.94041 0.0
C463 C 0.16536 0.44573 0.88552 0.0
H464 H 0.16248 0.43505 0.85475 0.0
H465 H 0.16789 0.47831 0.8851 0.0
H466 H 0.19284 0.43314 0.89786 0.0
O467 O 0.08615 0.39396 0.81797 0.0
O468 O 0.04448 0.35439 0.85064 0.0
H469 H 0.06305 0.34026 0.94985 0.0
H470 H 0.09668 0.353 0.98934 0.0
C471 C 0.07404 0.36457 0.96879 0.0
H472 H 0.04912 0.37594 0.98657 0.0
H473 H 0.98847 0.31912 0.93423 0.0
O474 O 0.11657 0.48174 0.82145 0.0
C475 C 0.07256 0.3598 0.82539 0.0
Co476 Co 0.71026 0.07939 0.84149 0.0
Co477 Co 0.75927 1.02144 0.88909 0.0
C478 C 0.69198 0.99315 0.83488 0.0
O479 O 0.6851 1.02885 0.82699 0.0
O480 O 0.71956 0.98475 0.85907 0.0
C481 C 0.63858 0.10929 0.83143 0.0
O482 O 0.63 0.07832 0.85297 0.0
C483 C 0.74734 0.97577 0.95911 0.0
C484 C 0.80614 0.96217 0.98296 0.0
C485 C 0.7661 0.95886 0.9912 0.0
N486 N 0.77462 0.98902 0.93337 0.0
N487 N 0.80989 0.98055 0.9477 0.0
C488 C 0.70379 0.98142 0.95403 0.0
H489 H 0.69749 1.00948 0.93856 0.0
H490 H 0.68836 0.98095 0.9829 0.0
H491 H 0.69196 0.9572 0.93549 0.0
C492 C 0.72121 0.12944 0.90869 0.0
N493 N 0.71779 0.09238 0.89434 0.0
N494 N 0.7403 0.06851 0.91474 0.0
C495 C 0.75849 0.08974 0.94335 0.0
C496 C 0.74715 0.12912 0.94041 0.0
C497 C 0.70979 0.16535 0.88552 0.0
H498 H 0.72047 0.16247 0.85475 0.0
H499 H 0.67721 0.16789 0.88511 0.0
H500 H 0.72238 0.19283 0.89786 0.0
O501 O 0.76155 0.08614 0.81797 0.0
O502 O 0.80112 0.04447 0.85064 0.0
H503 H 0.81526 0.06304 0.94985 0.0
H504 H 0.80252 0.09667 0.98935 0.0
C505 C 0.79096 0.07404 0.96879 0.0
H506 H 0.77958 0.04911 0.98657 0.0
H507 H 0.8364 0.98846 0.93423 0.0
O508 O 0.67377 0.11655 0.82146 0.0
C509 C 0.79571 0.07255 0.82539 0.0
Co510 Co 0.07613 0.71025 0.84148 0.0
Co511 Co 0.13408 0.75926 0.88909 0.0
C512 C 0.16237 0.69197 0.83487 0.0
O513 O 0.12666 0.68509 0.82698 0.0
O514 O 0.17077 0.71954 0.85907 0.0
C515 C 0.04623 0.63857 0.83142 0.0
O516 O 0.0772 0.63 0.85296 0.0
C517 C 0.17976 0.74732 0.95911 0.0
C518 C 0.19336 0.80611 0.98296 0.0
C519 C 0.19667 0.76608 0.9912 0.0
N520 N 0.16651 0.7746 0.93337 0.0
N521 N 0.17498 0.80987 0.9477 0.0
C522 C 0.1741 0.70377 0.95403 0.0
H523 H 0.14604 0.69747 0.93856 0.0
H524 H 0.17457 0.68834 0.9829 0.0
H525 H 0.19832 0.69194 0.93549 0.0
C526 C 1.02608 0.7212 0.90869 0.0
N527 N 0.06314 0.71778 0.89433 0.0
N528 N 0.08701 0.74029 0.91473 0.0
C529 C 0.06579 0.75847 0.94335 0.0
C530 C 1.0264 0.74714 0.94041 0.0
C531 C 0.99017 0.70978 0.88552 0.0
H532 H 0.99305 0.72046 0.85475 0.0
H533 H 0.98763 0.6772 0.8851 0.0
H534 H 0.96269 0.72237 0.89786 0.0
O535 O 0.06939 0.76155 0.81797 0.0
O536 O 0.11106 0.80111 0.85064 0.0
H537 H 0.09248 0.81525 0.94985 0.0
H538 H 0.05885 0.80251 0.98934 0.0
C539 C 0.08148 0.79094 0.96878 0.0
H540 H 0.10641 0.77956 0.98657 0.0
H541 H 0.16707 0.83638 0.93423 0.0
O542 O 0.03896 0.67377 0.82145 0.0
C543 C 0.08298 0.79571 0.82539 0.0
Co544 Co 0.31406 0.44524 0.07941 0.0
Co545 Co 0.26643 0.39626 1.02145 0.0
C546 C 0.32066 0.46355 0.99318 0.0
O547 O 0.32855 0.47042 1.02888 0.0
O548 O 0.29646 0.43597 0.98477 0.0
C549 C 0.3241 0.51691 0.10933 0.0
O550 O 0.30254 0.52549 0.07837 0.0
C551 C 0.19641 0.40825 0.97582 0.0
C552 C 0.17252 0.34948 0.96216 0.0
C553 C 0.1643 0.38953 0.95889 0.0
N554 N 0.22214 0.38095 0.98903 0.0
N555 N 0.20779 0.3457 0.98052 0.0
C556 C 0.20151 0.45179 0.98151 0.0
H557 H 0.21701 0.45806 1.00955 0.0
H558 H 0.17264 0.46723 0.98109 0.0
H559 H 0.22002 0.46364 0.95728 0.0
C560 C 0.24689 0.43423 0.12949 0.0
N561 N 0.26121 0.4377 0.09241 0.0
N562 N 0.2408 0.4152 0.06854 0.0
C563 C 0.21222 0.39697 0.08977 0.0
C564 C 0.21523 0.40823 0.12916 0.0
C565 C 0.27006 0.44565 0.16539 0.0
H566 H 0.30084 0.43499 0.1625 0.0
H567 H 0.27047 0.47823 0.16794 0.0
H568 H 0.25774 0.43304 0.19287 0.0
O569 O 0.33757 0.39395 0.08612 0.0
O570 O 0.30489 0.35439 0.04446 0.0
H571 H 0.20571 0.34023 0.06301 0.0
H572 H 0.16624 0.35291 0.09669 0.0
C573 C 0.18678 0.36451 0.07405 0.0
H574 H 0.16897 0.37592 0.04915 0.0
H575 H 0.22125 0.31917 0.9884 0.0
O576 O 0.33409 0.48172 0.11658 0.0
C577 C 0.33015 0.35979 0.07252 0.0
Co578 Co 0.31405 0.71026 0.07612 0.0
Co579 Co 0.26643 0.75925 0.13408 0.0
C580 C 0.32065 0.69195 0.16235 0.0
O581 O 0.32854 0.68508 0.12665 0.0
O582 O 0.29646 0.71953 0.17075 0.0
C583 C 0.32409 0.63859 0.0462 0.0
O584 O 0.30255 0.63001 0.07717 0.0
C585 C 0.19641 0.74725 0.17971 0.0
C586 C 0.17252 0.80602 0.19338 0.0
C587 C 0.1643 0.76598 0.19664 0.0
N588 N 0.22214 0.77455 0.1665 0.0
N589 N 0.20779 0.80981 0.17501 0.0
C590 C 0.20151 0.70371 0.17402 0.0
H591 H 0.21701 0.69744 0.14598 0.0
H592 H 0.17264 0.68828 0.17444 0.0
H593 H 0.22002 0.69186 0.19825 0.0
C594 C 0.24688 0.72128 1.02604 0.0
N595 N 0.2612 0.7178 0.06312 0.0
N596 N 0.2408 0.74031 0.08699 0.0
C597 C 0.21222 0.75854 0.06576 0.0
C598 C 0.21522 0.74728 1.02637 0.0
C599 C 0.27006 0.70985 0.99014 0.0
H600 H 0.30083 0.72051 0.99303 0.0
H601 H 0.27046 0.67728 0.98759 0.0
H602 H 0.25774 0.72247 0.96266 0.0
O603 O 0.33757 0.76156 0.06941 0.0
O604 O 0.30489 0.80111 0.11107 0.0
H605 H 0.20571 0.81528 0.09252 0.0
H606 H 0.16624 0.80259 0.05884 0.0
C607 C 0.18678 0.79099 0.08148 0.0
H608 H 0.16897 0.77959 0.10638 0.0
H609 H 0.22125 0.83634 0.16713 0.0
O610 O 0.33408 0.67378 0.03894 0.0
C611 C 0.33016 0.79571 0.08301 0.0
Co612 Co 0.44526 0.31403 0.07612 0.0
Co613 Co 0.39625 0.26642 0.13408 0.0
C614 C 0.46355 0.32064 0.16235 0.0
O615 O 0.47043 0.32852 0.12665 0.0
O616 O 0.43597 0.29645 0.17076 0.0
C617 C 0.51693 0.32407 0.0462 0.0
O618 O 0.52551 0.30252 0.07717 0.0
C619 C 0.40825 0.1964 0.17971 0.0
C620 C 0.34948 0.17251 0.19337 0.0
C621 C 0.38953 0.16429 0.19664 0.0
N622 N 0.38095 0.22213 0.1665 0.0
N623 N 0.3457 0.20778 0.17501 0.0
C624 C 0.45179 0.2015 0.17402 0.0
H625 H 0.45806 0.21701 0.14598 0.0
H626 H 0.46723 0.17264 0.17444 0.0
H627 H 0.46364 0.22001 0.19826 0.0
C628 C 0.43424 0.24686 1.02605 0.0
N629 N 0.43771 0.26118 0.06312 0.0
N630 N 0.4152 0.24079 0.08699 0.0
C631 C 0.39697 0.21221 0.06576 0.0
C632 C 0.40823 0.21521 1.02637 0.0
C633 C 0.44567 0.27003 0.99014 0.0
H634 H 0.43501 0.30081 0.99303 0.0
H635 H 0.47825 0.27043 0.9876 0.0
H636 H 0.43306 0.25771 0.96266 0.0
O637 O 0.39397 0.33754 0.06939 0.0
O638 O 0.3544 0.30488 0.11106 0.0
H639 H 0.34022 0.20571 0.09252 0.0
H640 H 0.35291 0.16624 0.05884 0.0
C641 C 0.36451 0.18677 0.08148 0.0
H642 H 0.37591 0.16896 0.10638 0.0
H643 H 0.31916 0.22124 0.16713 0.0
O644 O 0.48174 0.33406 0.03895 0.0
C645 C 0.35981 0.33013 0.08299 0.0
Co646 Co 0.84148 0.44524 0.07612 0.0
Co647 Co 0.8891 0.39625 0.13408 0.0
C648 C 0.83489 0.46355 0.16235 0.0
O649 O 0.827 0.47042 0.12665 0.0
O650 O 0.85908 0.43596 0.17076 0.0
C651 C 0.83145 0.51691 0.0462 0.0
O652 O 0.85301 0.52548 0.07716 0.0
C653 C 0.95913 0.40824 0.17971 0.0
C654 C 0.98301 0.34947 0.19337 0.0
C655 C 0.99123 0.38952 0.19664 0.0
N656 N 0.9334 0.38094 0.1665 0.0
N657 N 0.94774 0.34569 0.17501 0.0
C658 C 0.95403 0.45178 0.17402 0.0
H659 H 0.93853 0.45805 0.14597 0.0
H660 H 0.98289 0.46722 0.17444 0.0
H661 H 0.93552 0.46363 0.19825 0.0
C662 C 0.90865 0.43422 1.02604 0.0
N663 N 0.89433 0.43769 0.06312 0.0
N664 N 0.91473 0.41519 0.08699 0.0
C665 C 0.94331 0.39696 0.06576 0.0
C666 C 0.94031 0.40822 1.02637 0.0
C667 C 0.88547 0.44565 0.99013 0.0
H668 H 0.85469 0.43499 0.99304 0.0
H669 H 0.88507 0.47822 0.98759 0.0
H670 H 0.89779 0.43303 0.96265 0.0
O671 O 0.81796 0.39395 0.06941 0.0
O672 O 0.85064 0.35439 0.11107 0.0
H673 H 0.94982 0.34022 0.09252 0.0
H674 H 0.98929 0.3529 0.05884 0.0
C675 C 0.96876 0.3645 0.08148 0.0
H676 H 0.98657 0.37591 0.10637 0.0
H677 H 0.93428 0.31916 0.16713 0.0
O678 O 0.82145 0.48172 0.03895 0.0
C679 C 0.82537 0.35979 0.08301 0.0
Co680 Co 0.71028 0.84148 0.07612 0.0
Co681 Co 0.75928 0.88909 0.13408 0.0
C682 C 0.69197 0.83488 0.16235 0.0
O683 O 0.6851 0.82699 0.12665 0.0
O684 O 0.71956 0.85907 0.17076 0.0
C685 C 0.6386 0.83146 0.0462 0.0
O686 O 0.63003 0.85301 0.07716 0.0
C687 C 0.74728 0.95911 0.17971 0.0
C688 C 0.80605 0.983 0.19338 0.0
C689 C 0.766 0.99122 0.19664 0.0
N690 N 0.77458 0.93338 0.1665 0.0
N691 N 0.80983 0.94773 0.17501 0.0
C692 C 0.70374 0.95401 0.17402 0.0
H693 H 0.69747 0.93851 0.14598 0.0
H694 H 0.6883 0.98288 0.17444 0.0
H695 H 0.69189 0.9355 0.19825 0.0
C696 C 0.7213 0.90864 1.02604 0.0
N697 N 0.71783 0.89432 0.06312 0.0
N698 N 0.74033 0.91472 0.08699 0.0
C699 C 0.75857 0.9433 0.06576 0.0
C700 C 0.7473 0.9403 1.02637 0.0
C701 C 0.70987 0.88547 0.99014 0.0
H702 H 0.72053 0.85469 0.99304 0.0
H703 H 0.6773 0.88507 0.98759 0.0
H704 H 0.72249 0.89778 0.96266 0.0
O705 O 0.76157 0.81795 0.06941 0.0
O706 O 0.80113 0.85063 0.11107 0.0
H707 H 0.81531 0.94981 0.09252 0.0
H708 H 0.80262 0.98928 0.05884 0.0
C709 C 0.79102 0.96874 0.08148 0.0
H710 H 0.77962 0.98655 0.10638 0.0
H711 H 0.83637 0.93427 0.16713 0.0
O712 O 0.67379 0.82145 0.03895 0.0
C713 C 0.79573 0.82536 0.08301 0.0
Co714 Co 0.84149 0.71025 0.07941 0.0
Co715 Co 0.8891 0.75925 1.02145 0.0
C716 C 0.83488 0.69195 0.99318 0.0
O717 O 0.82699 0.68508 1.02888 0.0
O718 O 0.85907 0.71954 0.98477 0.0
C719 C 0.83147 0.63858 0.10933 0.0
O720 O 0.85302 0.63001 0.07836 0.0
C721 C 0.95912 0.74726 0.97581 0.0
C722 C 0.983 0.80603 0.96215 0.0
C723 C 0.99122 0.76598 0.95889 0.0
N724 N 0.93339 0.77456 0.98903 0.0
N725 N 0.94773 0.80981 0.98052 0.0
C726 C 0.95402 0.70372 0.9815 0.0
H727 H 0.93851 0.69745 1.00955 0.0
H728 H 0.98289 0.68828 0.98109 0.0
H729 H 0.93551 0.69187 0.95727 0.0
C730 C 0.90865 0.72128 0.12948 0.0
N731 N 0.89433 0.7178 0.09241 0.0
N732 N 0.91473 0.74031 0.06854 0.0
C733 C 0.94331 0.75855 0.08977 0.0
C734 C 0.94031 0.74728 0.12916 0.0
C735 C 0.88548 0.70985 0.16539 0.0
H736 H 0.8547 0.7205 0.16249 0.0
H737 H 0.88509 0.67727 0.16794 0.0
H738 H 0.8978 0.72247 0.19287 0.0
O739 O 0.81797 0.76155 0.08614 0.0
O740 O 0.85064 0.80111 0.04447 0.0
H741 H 0.94981 0.81529 0.06301 0.0
H742 H 0.98928 0.80261 0.09668 0.0
C743 C 0.96875 0.791 0.07405 0.0
H744 H 0.98656 0.7796 0.04915 0.0
H745 H 0.93427 0.83635 0.9884 0.0
O746 O 0.82147 0.67377 0.11658 0.0
C747 C 0.82539 0.7957 0.07254 0.0
Co748 Co 0.44526 0.84148 0.07941 0.0
Co749 Co 0.39625 0.88908 1.02145 0.0
C750 C 0.46356 0.83487 0.99318 0.0
O751 O 0.47043 0.82699 1.02888 0.0
O752 O 0.43597 0.85906 0.98477 0.0
C753 C 0.51693 0.83146 0.10933 0.0
O754 O 0.5255 0.85302 0.07837 0.0
C755 C 0.40825 0.95911 0.97581 0.0
C756 C 0.34948 0.98299 0.96215 0.0
C757 C 0.38952 0.99121 0.95889 0.0
N758 N 0.38095 0.93338 0.98903 0.0
N759 N 0.34569 0.94772 0.98052 0.0
C760 C 0.45179 0.954 0.98151 0.0
H761 H 0.45806 0.9385 1.00955 0.0
H762 H 0.46723 0.98287 0.98109 0.0
H763 H 0.46364 0.9355 0.95727 0.0
C764 C 0.43424 0.90865 0.12948 0.0
N765 N 0.43771 0.89433 0.09241 0.0
N766 N 0.4152 0.91472 0.06854 0.0
C767 C 0.39696 0.9433 0.08976 0.0
C768 C 0.40823 0.9403 0.12916 0.0
C769 C 0.44567 0.88547 0.16539 0.0
H770 H 0.43501 0.8547 0.16249 0.0
H771 H 0.47824 0.88508 0.16794 0.0
H772 H 0.43305 0.89779 0.19287 0.0
O773 O 0.39397 0.81796 0.08613 0.0
O774 O 0.3544 0.85063 0.04447 0.0
H775 H 0.34022 0.9498 0.06301 0.0
H776 H 0.3529 0.98927 0.09668 0.0
C777 C 0.3645 0.96874 0.07405 0.0
H778 H 0.3759 0.98655 0.04915 0.0
H779 H 0.31916 0.93426 0.9884 0.0
O780 O 0.48175 0.82146 0.11658 0.0
C781 C 0.35981 0.82538 0.07254 0.0
Co782 Co 0.71027 0.31403 0.07941 0.0
Co783 Co 0.75927 0.26642 1.02145 0.0
C784 C 0.69197 0.32064 0.99318 0.0
O785 O 0.68509 0.32853 1.02888 0.0
O786 O 0.71956 0.29645 0.98477 0.0
C787 C 0.63859 0.32406 0.10932 0.0
O788 O 0.63002 0.30251 0.07836 0.0
C789 C 0.74727 0.1964 0.97581 0.0
C790 C 0.80604 0.17251 0.96215 0.0
C791 C 0.766 0.1643 0.95889 0.0
N792 N 0.77458 0.22213 0.98903 0.0
N793 N 0.80983 0.20778 0.98052 0.0
C794 C 0.70373 0.2015 0.98151 0.0
H795 H 0.69746 0.21701 1.00955 0.0
H796 H 0.68829 0.17264 0.98109 0.0
H797 H 0.69188 0.22001 0.95727 0.0
C798 C 0.72129 0.24686 0.12948 0.0
N799 N 0.71781 0.26118 0.09241 0.0
N800 N 0.74032 0.24079 0.06854 0.0
C801 C 0.75856 0.21221 0.08976 0.0
C802 C 0.74729 0.21521 0.12916 0.0
C803 C 0.70986 0.27004 0.16539 0.0
H804 H 0.72051 0.30081 0.16249 0.0
H805 H 0.67728 0.27043 0.16793 0.0
H806 H 0.72247 0.25772 0.19287 0.0
O807 O 0.76156 0.33755 0.08614 0.0
O808 O 0.80113 0.30488 0.04447 0.0
H809 H 0.8153 0.20571 0.06301 0.0
H810 H 0.80262 0.16624 0.09668 0.0
C811 C 0.79102 0.18677 0.07405 0.0
H812 H 0.77962 0.16896 0.04915 0.0
H813 H 0.83636 0.22124 0.9884 0.0
O814 O 0.67378 0.33405 0.11658 0.0
C815 C 0.79572 0.33013 0.07255 0.0
Co816 Co 0.5794 0.81405 0.94526 0.0
Co817 Co 0.52144 0.76642 0.89627 0.0
C818 C 0.49317 0.82064 0.96357 0.0
O819 O 0.52887 0.82855 0.97043 0.0
O820 O 0.48476 0.79645 0.93599 0.0
C821 C 0.60931 0.82416 1.01694 0.0
O822 O 0.57835 0.80262 1.02554 0.0
C823 C 0.47578 0.6964 0.90821 0.0
C824 C 0.46217 0.67255 0.84942 0.0
C825 C 0.45887 0.66431 0.88946 0.0
N826 N 0.48902 0.72214 0.88094 0.0
N827 N 0.48055 0.70781 0.84567 0.0
C828 C 0.48143 0.70148 0.95176 0.0
H829 H 0.50949 0.71694 0.95806 0.0
H830 H 0.48095 0.67261 0.96719 0.0
H831 H 0.45722 0.72003 0.96359 0.0
C832 C 0.62945 0.74684 0.93432 0.0
N833 N 0.59239 0.7612 0.93775 0.0
N834 N 0.56852 0.74079 0.91524 0.0
C835 C 0.58975 0.71217 0.89706 0.0
C836 C 0.62913 0.71512 0.9084 0.0
C837 C 0.66537 0.77001 0.94574 0.0
H838 H 0.66249 0.80078 0.93505 0.0
H839 H 0.6679 0.77044 0.97832 0.0
H840 H 0.69285 0.75767 0.93316 0.0
O841 O 0.58612 0.83756 0.89396 0.0
O842 O 0.54446 0.80488 0.85441 0.0
H843 H 0.56305 0.70566 0.84029 0.0
H844 H 0.59668 0.66617 0.85304 0.0
C845 C 0.57405 0.68673 0.8646 0.0
H846 H 0.54912 0.66894 0.87598 0.0
H847 H 0.48846 0.72128 0.81915 0.0
O848 O 0.61658 0.8341 0.98173 0.0
C849 C 0.57252 0.83015 0.85981 0.0
Co850 Co 0.34147 0.57939 0.94526 0.0
Co851 Co 0.3891 0.52143 0.89627 0.0
C852 C 0.33489 0.49316 0.96357 0.0
O853 O 0.32699 0.52886 0.97044 0.0
O854 O 0.35908 0.48475 0.93599 0.0
C855 C 0.33139 0.60931 1.01693 0.0
O856 O 0.35294 0.57835 1.02552 0.0
C857 C 0.45913 0.47577 0.90821 0.0
C858 C 0.48297 0.46214 0.84942 0.0
C859 C 0.49121 0.45885 0.88946 0.0
N860 N 0.43338 0.48901 0.88093 0.0
N861 N 0.44771 0.48052 0.84567 0.0
C862 C 0.45405 0.48144 0.95176 0.0
H863 H 0.4386 0.50951 0.95805 0.0
H864 H 0.48292 0.48096 0.96719 0.0
H865 H 0.4355 0.45723 0.9636 0.0
C866 C 0.40864 0.62947 0.93425 0.0
N867 N 0.39432 0.59239 0.93772 0.0
N868 N 0.41473 0.56852 0.91522 0.0
C869 C 0.44331 0.58975 0.89699 0.0
C870 C 0.44031 0.62914 0.90825 0.0
C871 C 0.38547 0.66537 0.94568 0.0
H872 H 0.3547 0.66248 0.93501 0.0
H873 H 0.38506 0.66791 0.97825 0.0
H874 H 0.3978 0.69285 0.93307 0.0
O875 O 0.31796 0.5861 0.89396 0.0
O876 O 0.35064 0.54444 0.85441 0.0
H877 H 0.44983 0.56301 0.84024 0.0
H878 H 0.48931 0.59667 0.85295 0.0
C879 C 0.46876 0.57403 0.86454 0.0
H880 H 0.48656 0.54913 0.87594 0.0
H881 H 0.43423 0.48842 0.81915 0.0
O882 O 0.32143 0.61656 0.98173 0.0
C883 C 0.32537 0.5725 0.8598 0.0
Co884 Co 0.57613 0.34146 0.94526 0.0
Co885 Co 0.63409 0.38908 0.89626 0.0
C886 C 0.66236 0.33487 0.96357 0.0
O887 O 0.62666 0.32698 0.97044 0.0
O888 O 0.67077 0.35906 0.93598 0.0
C889 C 0.54622 0.33137 1.01693 0.0
O890 O 0.57718 0.35291 1.02553 0.0
C891 C 0.67975 0.45911 0.90821 0.0
C892 C 0.69338 0.48295 0.84941 0.0
C893 C 0.69667 0.49119 0.88945 0.0
N894 N 0.66651 0.43336 0.88093 0.0
N895 N 0.675 0.44769 0.84566 0.0
C896 C 0.67408 0.45403 0.95175 0.0
H897 H 0.64602 0.43858 0.95805 0.0
H898 H 0.67456 0.4829 0.96718 0.0
H899 H 0.69829 0.43549 0.96359 0.0
C900 C 0.52606 0.40864 0.93425 0.0
N901 N 0.56313 0.39431 0.93772 0.0
N902 N 0.587 0.41471 0.91521 0.0
C903 C 0.56578 0.4433 0.89698 0.0
C904 C 0.52638 0.4403 0.90825 0.0
C905 C 0.49015 0.38547 0.94569 0.0
H906 H 0.49304 0.3547 0.93502 0.0
H907 H 0.48762 0.38506 0.97827 0.0
H908 H 0.46267 0.3978 0.9331 0.0
O909 O 0.56942 0.31795 0.89396 0.0
O910 O 0.61108 0.35062 0.85441 0.0
H911 H 0.59252 0.4498 0.84023 0.0
H912 H 0.55885 0.48928 0.85294 0.0
C913 C 0.58149 0.46874 0.86453 0.0
H914 H 0.6064 0.48654 0.87592 0.0
H915 H 0.6671 0.43421 0.81914 0.0
O916 O 0.53896 0.32142 0.98173 0.0
C917 C 0.58302 0.32535 0.85981 0.0
Co918 Co 0.81406 0.57611 0.94526 0.0
Co919 Co 0.76644 0.63407 0.89627 0.0
C920 C 0.82065 0.66234 0.96357 0.0
O921 O 0.82854 0.62664 0.97044 0.0
O922 O 0.79646 0.67075 0.93599 0.0
C923 C 0.82415 0.54619 1.01693 0.0
O924 O 0.8026 0.57715 1.02553 0.0
C925 C 0.69641 0.67971 0.90827 0.0
C926 C 0.67252 0.69337 0.8495 0.0
C927 C 0.66431 0.69663 0.88955 0.0
N928 N 0.72214 0.6665 0.88097 0.0
N929 N 0.70779 0.67501 0.84571 0.0
C930 C 0.70151 0.67402 0.95181 0.0
H931 H 0.71702 0.64597 0.95808 0.0
H932 H 0.67265 0.67444 0.96725 0.0
H933 H 0.72002 0.69825 0.96366 0.0
C934 C 0.74689 0.52604 0.93425 0.0
N935 N 0.76121 0.56311 0.93772 0.0
N936 N 0.74081 0.58698 0.91521 0.0
C937 C 0.71223 0.56575 0.89698 0.0
C938 C 0.71523 0.52636 0.90825 0.0
C939 C 0.77006 0.49013 0.94569 0.0
H940 H 0.80083 0.49302 0.93502 0.0
H941 H 0.77047 0.4876 0.97827 0.0
H942 H 0.75772 0.46265 0.93309 0.0
O943 O 0.83757 0.56941 0.89396 0.0
O944 O 0.80489 0.61107 0.8544 0.0
H945 H 0.70572 0.59251 0.84024 0.0
H946 H 0.66626 0.55883 0.85292 0.0
C947 C 0.68679 0.58147 0.86452 0.0
H948 H 0.66897 0.60637 0.87593 0.0
H949 H 0.72125 0.66712 0.81918 0.0
O950 O 0.83411 0.53894 0.98173 0.0
C951 C 0.83016 0.58301 0.8598 0.0
Co952 Co 0.5794 0.34145 0.21027 0.0
Co953 Co 0.52144 0.38908 0.25926 0.0
C954 C 0.49316 0.33486 0.19196 0.0
O955 O 0.52886 0.32696 0.1851 0.0
O956 O 0.48476 0.35906 0.21954 0.0
C957 C 0.6093 0.33136 0.13859 0.0
O958 O 0.57834 0.3529 0.13 0.0
C959 C 0.47577 0.4591 0.24732 0.0
C960 C 0.46217 0.48296 0.30611 0.0
C961 C 0.45886 0.4912 0.26608 0.0
N962 N 0.48902 0.43337 0.27459 0.0
N963 N 0.48055 0.44769 0.30986 0.0
C964 C 0.48142 0.45402 0.20377 0.0
H965 H 0.50949 0.43857 0.19747 0.0
H966 H 0.48094 0.48289 0.18834 0.0
H967 H 0.45721 0.43548 0.19194 0.0
C968 C 0.62945 0.40866 0.22121 0.0
N969 N 0.59239 0.39431 0.21778 0.0
N970 N 0.56852 0.41472 0.24029 0.0
C971 C 0.58974 0.44333 0.25846 0.0
C972 C 0.62912 0.44039 0.24713 0.0
C973 C 0.66536 0.38548 0.2098 0.0
H974 H 0.66248 0.35472 0.22048 0.0
H975 H 0.6679 0.38506 0.17722 0.0
H976 H 0.69284 0.39782 0.22239 0.0
O977 O 0.58612 0.31795 0.26157 0.0
O978 O 0.54445 0.35063 0.30112 0.0
H979 H 0.56304 0.44986 0.31524 0.0
H980 H 0.59667 0.48935 0.30248 0.0
C981 C 0.57404 0.46878 0.29092 0.0
H982 H 0.54912 0.48656 0.27954 0.0
H983 H 0.48846 0.43423 0.33638 0.0
O984 O 0.61657 0.32141 0.17379 0.0
C985 C 0.57252 0.32536 0.29572 0.0
Co986 Co 0.81407 0.57939 0.21027 0.0
Co987 Co 0.76643 0.52143 0.25925 0.0
C988 C 0.82066 0.49315 0.19196 0.0
O989 O 0.82857 0.52885 0.1851 0.0
O990 O 0.79646 0.48475 0.21954 0.0
C991 C 0.82417 0.60929 0.1386 0.0
O992 O 0.80263 0.57834 0.13 0.0
C993 C 0.69641 0.47579 0.24726 0.0
C994 C 0.67251 0.46215 0.30603 0.0
C995 C 0.6643 0.45887 0.26598 0.0
N996 N 0.72214 0.48901 0.27456 0.0
N997 N 0.70778 0.48052 0.30981 0.0
C998 C 0.70152 0.48146 0.20372 0.0
H999 H 0.71702 0.50951 0.19744 0.0
H1000 H 0.67266 0.48104 0.18827 0.0
H1001 H 0.72003 0.45723 0.19188 0.0
C1002 C 0.74687 0.62944 0.22121 0.0
N1003 N 0.76122 0.59238 0.21778 0.0
N1004 N 0.74081 0.56851 0.24028 0.0
C1005 C 0.71219 0.58974 0.25847 0.0
C1006 C 0.71514 0.62912 0.24713 0.0
C1007 C 0.77004 0.66535 0.2098 0.0
H1008 H 0.80081 0.66247 0.22048 0.0
H1009 H 0.77047 0.66789 0.17722 0.0
H1010 H 0.7577 0.69284 0.22239 0.0
O1011 O 0.83757 0.5861 0.26157 0.0
O1012 O 0.80488 0.54444 0.30112 0.0
H1013 H 0.70567 0.56302 0.31523 0.0
H1014 H 0.66619 0.59667 0.30249 0.0
C1015 C 0.68674 0.57404 0.29092 0.0
H1016 H 0.66895 0.54912 0.27953 0.0
H1017 H 0.72124 0.48841 0.33634 0.0
O1018 O 0.83412 0.61656 0.1738 0.0
C1019 C 0.83016 0.5725 0.29573 0.0
Co1020 Co 0.57613 0.81406 0.21027 0.0
Co1021 Co 0.63409 0.76643 0.25925 0.0
C1022 C 0.66236 0.82065 0.19196 0.0
O1023 O 0.62666 0.82855 0.18509 0.0
O1024 O 0.67077 0.79646 0.21954 0.0
C1025 C 0.54622 0.82417 0.1386 0.0
O1026 O 0.57718 0.80263 0.12999 0.0
C1027 C 0.67974 0.69641 0.24726 0.0
C1028 C 0.69337 0.67251 0.30603 0.0
C1029 C 0.69665 0.6643 0.26598 0.0
N1030 N 0.66651 0.72213 0.27456 0.0
N1031 N 0.67501 0.70778 0.30981 0.0
C1032 C 0.67406 0.70152 0.20372 0.0
H1033 H 0.64602 0.71702 0.19744 0.0
H1034 H 0.67448 0.67265 0.18827 0.0
H1035 H 0.6983 0.72003 0.19188 0.0
C1036 C 0.52608 0.74685 0.22121 0.0
N1037 N 0.56314 0.7612 0.21778 0.0
N1038 N 0.58701 0.7408 0.24029 0.0
C1039 C 0.56578 0.71218 0.25847 0.0
C1040 C 0.5264 0.71513 0.24713 0.0
C1041 C 0.49016 0.77002 0.20979 0.0
H1042 H 0.49304 0.80078 0.22048 0.0
H1043 H 0.48763 0.77045 0.17721 0.0
H1044 H 0.46268 0.75767 0.22237 0.0
O1045 O 0.56942 0.83756 0.26157 0.0
O1046 O 0.61108 0.80488 0.30112 0.0
H1047 H 0.5925 0.70567 0.31523 0.0
H1048 H 0.55885 0.66619 0.30251 0.0
C1049 C 0.58149 0.68674 0.29093 0.0
H1050 H 0.6064 0.66894 0.27954 0.0
H1051 H 0.66711 0.72123 0.33635 0.0
O1052 O 0.53896 0.83411 0.1738 0.0
C1053 C 0.58302 0.83015 0.29573 0.0
Co1054 Co 0.34147 0.57611 0.21027 0.0
Co1055 Co 0.3891 0.63407 0.25926 0.0
C1056 C 0.33488 0.66234 0.19196 0.0
O1057 O 0.32698 0.62664 0.18509 0.0
O1058 O 0.35907 0.67075 0.21954 0.0
C1059 C 0.33139 0.5462 0.1386 0.0
O1060 O 0.35295 0.57715 0.13001 0.0
C1061 C 0.45912 0.67971 0.24726 0.0
C1062 C 0.48301 0.69337 0.30603 0.0
C1063 C 0.49122 0.69664 0.26598 0.0
N1064 N 0.43339 0.6665 0.27456 0.0
N1065 N 0.44774 0.67501 0.30982 0.0
C1066 C 0.45402 0.67402 0.20372 0.0
H1067 H 0.43852 0.64598 0.19745 0.0
H1068 H 0.48288 0.67444 0.18828 0.0
H1069 H 0.43551 0.69825 0.19187 0.0
C1070 C 0.40864 0.52604 0.22128 0.0
N1071 N 0.39432 0.56311 0.21781 0.0
N1072 N 0.41472 0.58698 0.24031 0.0
C1073 C 0.4433 0.56576 0.25854 0.0
C1074 C 0.4403 0.52636 0.24728 0.0
C1075 C 0.38546 0.49013 0.20985 0.0
H1076 H 0.35469 0.49303 0.22052 0.0
H1077 H 0.38506 0.48759 0.17728 0.0
H1078 H 0.39779 0.46265 0.22246 0.0
O1079 O 0.31796 0.56941 0.26157 0.0
O1080 O 0.35064 0.61107 0.30113 0.0
H1081 H 0.44982 0.59251 0.31529 0.0
H1082 H 0.48929 0.55884 0.30259 0.0
C1083 C 0.46875 0.58148 0.291 0.0
H1084 H 0.48656 0.60637 0.27959 0.0
H1085 H 0.43428 0.66712 0.33635 0.0
O1086 O 0.32143 0.53894 0.1738 0.0
C1087 C 0.32537 0.58301 0.29573 0.0
Co1088 Co 0.94527 0.57939 0.81405 0.0
Co1089 Co 0.89626 0.52144 0.76643 0.0
C1090 C 0.96356 0.49315 0.82065 0.0
O1091 O 0.97043 0.52885 0.82854 0.0
O1092 O 0.93597 0.48475 0.79646 0.0
C1093 C 1.01695 0.60929 0.82413 0.0
O1094 O 1.02555 0.57833 0.80259 0.0
C1095 C 0.90819 0.47577 0.69642 0.0
C1096 C 0.8494 0.46216 0.67256 0.0
C1097 C 0.88944 0.45886 0.66432 0.0
N1098 N 0.88092 0.48902 0.72215 0.0
N1099 N 0.84565 0.48054 0.70783 0.0
C1100 C 0.95174 0.48142 0.7015 0.0
H1101 H 0.95804 0.50949 0.71695 0.0
H1102 H 0.96717 0.48095 0.67263 0.0
H1103 H 0.96357 0.45721 0.72004 0.0
C1104 C 0.93432 0.62944 0.74684 0.0
N1105 N 0.93775 0.59237 0.76119 0.0
N1106 N 0.91523 0.56851 0.74079 0.0
C1107 C 0.89705 0.58974 0.71218 0.0
C1108 C 0.90838 0.62911 0.71512 0.0
C1109 C 0.94575 0.66535 0.77001 0.0
H1110 H 0.93506 0.66247 0.80078 0.0
H1111 H 0.97832 0.66788 0.77043 0.0
H1112 H 0.93316 0.69283 0.75767 0.0
O1113 O 0.89398 0.58613 0.83756 0.0
O1114 O 0.8544 0.54447 0.80489 0.0
H1115 H 0.84027 0.56304 0.70568 0.0
H1116 H 0.85301 0.59667 0.66619 0.0
C1117 C 0.86457 0.57404 0.68674 0.0
H1118 H 0.87595 0.54911 0.66896 0.0
H1119 H 0.81913 0.48845 0.7213 0.0
O1120 O 0.98175 0.61656 0.83408 0.0
C1121 C 0.85982 0.57254 0.83014 0.0
Co1122 Co 0.57613 0.94525 0.81405 0.0
Co1123 Co 0.63409 0.89625 0.76644 0.0
C1124 C 0.66237 0.96354 0.82065 0.0
O1125 O 0.62667 0.97042 0.82855 0.0
O1126 O 0.67077 0.93596 0.79646 0.0
C1127 C 0.54623 1.01693 0.82413 0.0
O1128 O 0.57719 1.02553 0.80259 0.0
C1129 C 0.67976 0.90819 0.69642 0.0
C1130 C 0.69337 0.8494 0.67257 0.0
C1131 C 0.69667 0.88943 0.66433 0.0
N1132 N 0.66651 0.88091 0.72216 0.0
N1133 N 0.67499 0.84564 0.70783 0.0
C1134 C 0.67411 0.95173 0.70151 0.0
H1135 H 0.64605 0.95804 0.71697 0.0
H1136 H 0.67458 0.96717 0.67264 0.0
H1137 H 0.69833 0.96357 0.72005 0.0
C1138 C 0.52609 0.93431 0.74684 0.0
N1139 N 0.56315 0.93773 0.7612 0.0
N1140 N 0.58702 0.91522 0.7408 0.0
C1141 C 0.56579 0.89703 0.71218 0.0
C1142 C 0.52641 0.90837 0.71512 0.0
C1143 C 0.49017 0.94573 0.77001 0.0
H1144 H 0.49305 0.93505 0.80078 0.0
H1145 H 0.48764 0.97831 0.77043 0.0
H1146 H 0.46269 0.93314 0.75766 0.0
O1147 O 0.56939 0.89396 0.83756 0.0
O1148 O 0.61106 0.85439 0.80489 0.0
H1149 H 0.59249 0.84026 0.70568 0.0
H1150 H 0.55886 0.853 0.66619 0.0
C1151 C 0.58149 0.86457 0.68675 0.0
H1152 H 0.60642 0.87594 0.66896 0.0
H1153 H 0.66708 0.81912 0.7213 0.0
O1154 O 0.53896 0.98173 0.83409 0.0
C1155 C 0.58299 0.8598 0.83014 0.0
Co1156 Co 0.21026 0.57612 0.81405 0.0
Co1157 Co 0.25927 0.63407 0.76644 0.0
C1158 C 0.19197 0.66235 0.82065 0.0
O1159 O 0.1851 0.62665 0.82854 0.0
O1160 O 0.21956 0.67076 0.79646 0.0
C1161 C 0.13858 0.54622 0.82413 0.0
O1162 O 0.12998 0.57718 0.80259 0.0
C1163 C 0.24733 0.67974 0.69642 0.0
C1164 C 0.30613 0.69335 0.67256 0.0
C1165 C 0.26609 0.69665 0.66433 0.0
N1166 N 0.27461 0.66649 0.72215 0.0
N1167 N 0.30988 0.67497 0.70783 0.0
C1168 C 0.20378 0.67408 0.7015 0.0
H1169 H 0.19748 0.64602 0.71695 0.0
H1170 H 0.18835 0.67456 0.67263 0.0
H1171 H 0.19195 0.6983 0.72005 0.0
C1172 C 0.22121 0.52607 0.74684 0.0
N1173 N 0.21778 0.56313 0.76119 0.0
N1174 N 0.2403 0.587 0.74079 0.0
C1175 C 0.25849 0.56578 0.71218 0.0
C1176 C 0.24715 0.5264 0.71512 0.0
C1177 C 0.20978 0.49016 0.77001 0.0
H1178 H 0.22047 0.49304 0.80078 0.0
H1179 H 0.17721 0.48763 0.77043 0.0
H1180 H 0.22237 0.46268 0.75767 0.0
O1181 O 0.26155 0.56938 0.83756 0.0
O1182 O 0.30112 0.61104 0.80489 0.0
H1183 H 0.31526 0.59247 0.70568 0.0
H1184 H 0.30252 0.55884 0.66619 0.0
C1185 C 0.29096 0.58147 0.68675 0.0
H1186 H 0.27958 0.6064 0.66896 0.0
H1187 H 0.3364 0.66706 0.72129 0.0
O1188 O 0.17378 0.53895 0.83408 0.0
C1189 C 0.29571 0.58297 0.83014 0.0
Co1190 Co 0.5794 0.21024 0.81405 0.0
Co1191 Co 0.52145 0.25925 0.76644 0.0
C1192 C 0.49316 0.19196 0.82065 0.0
O1193 O 0.52886 0.18508 0.82855 0.0
O1194 O 0.48476 0.21954 0.79646 0.0
C1195 C 0.60929 0.13856 0.82414 0.0
O1196 O 0.57833 0.12997 0.8026 0.0
C1197 C 0.47578 0.24732 0.69642 0.0
C1198 C 0.46217 0.30611 0.67256 0.0
C1199 C 0.45887 0.26607 0.66433 0.0
N1200 N 0.48902 0.27459 0.72216 0.0
N1201 N 0.48055 0.30986 0.70783 0.0
C1202 C 0.48143 0.20377 0.7015 0.0
H1203 H 0.50949 0.19747 0.71696 0.0
H1204 H 0.48095 0.18834 0.67263 0.0
H1205 H 0.45721 0.19194 0.72004 0.0
C1206 C 0.62945 0.22119 0.74684 0.0
N1207 N 0.59238 0.21777 0.7612 0.0
N1208 N 0.56852 0.24028 0.7408 0.0
C1209 C 0.58974 0.25846 0.71219 0.0
C1210 C 0.62912 0.24712 0.71512 0.0
C1211 C 0.66536 0.20976 0.77001 0.0
H1212 H 0.66248 0.22045 0.80078 0.0
H1213 H 0.66789 0.17719 0.77043 0.0
H1214 H 0.69284 0.22235 0.75767 0.0
O1215 O 0.58614 0.26154 0.83756 0.0
O1216 O 0.54447 0.30111 0.80489 0.0
H1217 H 0.56305 0.31524 0.70568 0.0
H1218 H 0.59668 0.3025 0.66619 0.0
C1219 C 0.57404 0.29093 0.68675 0.0
H1220 H 0.54912 0.27956 0.66896 0.0
H1221 H 0.48846 0.33638 0.7213 0.0
O1222 O 0.61656 0.17376 0.83409 0.0
C1223 C 0.57255 0.2957 0.83014 0.0
Co1224 Co 0.94526 0.57611 0.34148 0.0
Co1225 Co 0.89625 0.63407 0.38909 0.0
C1226 C 0.96355 0.66235 0.33488 0.0
O1227 O 0.97043 0.62665 0.32698 0.0
O1228 O 0.93597 0.67075 0.35907 0.0
C1229 C 1.01695 0.54621 0.3314 0.0
O1230 O 1.02554 0.57717 0.35294 0.0
C1231 C 0.9082 0.67974 0.45911 0.0
C1232 C 0.8494 0.69335 0.48297 0.0
C1233 C 0.88944 0.69665 0.4912 0.0
N1234 N 0.88092 0.66649 0.43338 0.0
N1235 N 0.84565 0.67497 0.4477 0.0
C1236 C 0.95174 0.67408 0.45403 0.0
H1237 H 0.95804 0.64601 0.43858 0.0
H1238 H 0.96718 0.67456 0.4829 0.0
H1239 H 0.96357 0.69829 0.43548 0.0
C1240 C 0.93432 0.52607 0.40869 0.0
N1241 N 0.93774 0.56313 0.39434 0.0
N1242 N 0.91523 0.58699 0.41474 0.0
C1243 C 0.89704 0.56577 0.44335 0.0
C1244 C 0.90838 0.52639 0.44041 0.0
C1245 C 0.94574 0.49016 0.38552 0.0
H1246 H 0.93506 0.49304 0.35475 0.0
H1247 H 0.97832 0.48762 0.3851 0.0
H1248 H 0.93315 0.46267 0.39786 0.0
O1249 O 0.89397 0.56937 0.31798 0.0
O1250 O 0.8544 0.61104 0.35064 0.0
H1251 H 0.84027 0.59247 0.44985 0.0
H1252 H 0.853 0.55883 0.48934 0.0
C1253 C 0.86457 0.58147 0.46878 0.0
H1254 H 0.87595 0.60639 0.48657 0.0
H1255 H 0.81913 0.66706 0.43424 0.0
O1256 O 0.98175 0.53895 0.32144 0.0
C1257 C 0.85981 0.58296 0.32539 0.0
Co1258 Co 0.5794 0.94525 0.34148 0.0
Co1259 Co 0.52145 0.89625 0.38909 0.0
C1260 C 0.49316 0.96354 0.33487 0.0
O1261 O 0.52886 0.97041 0.32697 0.0
O1262 O 0.48476 0.93596 0.35906 0.0
C1263 C 0.6093 1.01694 0.33139 0.0
O1264 O 0.57833 1.02553 0.35293 0.0
C1265 C 0.47577 0.90818 0.4591 0.0
C1266 C 0.46217 0.84939 0.48296 0.0
C1267 C 0.45886 0.88943 0.4912 0.0
N1268 N 0.48902 0.88091 0.43337 0.0
N1269 N 0.48055 0.84564 0.4477 0.0
C1270 C 0.48143 0.95173 0.45402 0.0
H1271 H 0.50948 0.95803 0.43856 0.0
H1272 H 0.48095 0.96716 0.48289 0.0
H1273 H 0.45721 0.96356 0.43548 0.0
C1274 C 0.62945 0.93431 0.40869 0.0
N1275 N 0.59238 0.93774 0.39433 0.0
N1276 N 0.56852 0.91522 0.41473 0.0
C1277 C 0.58974 0.89704 0.44335 0.0
C1278 C 0.62912 0.90838 0.44041 0.0
C1279 C 0.66536 0.94574 0.38552 0.0
H1280 H 0.66248 0.93505 0.35475 0.0
H1281 H 0.66789 0.97832 0.3851 0.0
H1282 H 0.69284 0.93315 0.39786 0.0
O1283 O 0.58614 0.89396 0.31797 0.0
O1284 O 0.54448 0.85439 0.35064 0.0
H1285 H 0.56305 0.84026 0.44985 0.0
H1286 H 0.59668 0.85301 0.48934 0.0
C1287 C 0.57404 0.86457 0.46878 0.0
H1288 H 0.54912 0.87595 0.48657 0.0
H1289 H 0.48846 0.81912 0.43423 0.0
O1290 O 0.61657 0.98174 0.32144 0.0
C1291 C 0.57255 0.8598 0.32539 0.0
Co1292 Co 0.21026 0.57939 0.34148 0.0
Co1293 Co 0.25927 0.52144 0.38909 0.0
C1294 C 0.19198 0.49315 0.33488 0.0
O1295 O 0.1851 0.52885 0.32699 0.0
O1296 O 0.21956 0.48475 0.35907 0.0
C1297 C 0.13857 0.60928 0.3314 0.0
O1298 O 0.12998 0.57832 0.35294 0.0
C1299 C 0.24734 0.47577 0.45911 0.0
C1300 C 0.30613 0.46216 0.48296 0.0
C1301 C 0.2661 0.45886 0.4912 0.0
N1302 N 0.27461 0.48902 0.43337 0.0
N1303 N 0.30988 0.48054 0.4477 0.0
C1304 C 0.20379 0.48142 0.45403 0.0
H1305 H 0.19749 0.50948 0.43857 0.0
H1306 H 0.18836 0.48094 0.4829 0.0
H1307 H 0.19196 0.4572 0.43549 0.0
C1308 C 0.22121 0.62944 0.40869 0.0
N1309 N 0.21778 0.59237 0.39434 0.0
N1310 N 0.2403 0.56851 0.41474 0.0
C1311 C 0.25848 0.58974 0.44335 0.0
C1312 C 0.24714 0.62912 0.44041 0.0
C1313 C 0.20978 0.66535 0.38552 0.0
H1314 H 0.22046 0.66247 0.35475 0.0
H1315 H 0.1772 0.66788 0.3851 0.0
H1316 H 0.22237 0.69283 0.39786 0.0
O1317 O 0.26155 0.58613 0.31797 0.0
O1318 O 0.30113 0.54447 0.35064 0.0
H1319 H 0.31526 0.56305 0.44985 0.0
H1320 H 0.30252 0.59667 0.48934 0.0
C1321 C 0.29095 0.57404 0.46879 0.0
H1322 H 0.27958 0.54911 0.48657 0.0
H1323 H 0.3364 0.48846 0.43423 0.0
O1324 O 0.17377 0.61655 0.32145 0.0
C1325 C 0.29571 0.57255 0.32539 0.0
Co1326 Co 0.57613 0.21025 0.34148 0.0
Co1327 Co 0.63408 0.25926 0.38909 0.0
C1328 C 0.66237 0.19196 0.33488 0.0
O1329 O 0.62666 0.18509 0.32698 0.0
O1330 O 0.67077 0.21955 0.35907 0.0
C1331 C 0.54623 0.13857 0.33139 0.0
O1332 O 0.57719 0.12998 0.35293 0.0
C1333 C 0.67976 0.24732 0.45911 0.0
C1334 C 0.69336 0.30611 0.48296 0.0
C1335 C 0.69667 0.26607 0.4912 0.0
N1336 N 0.66651 0.2746 0.43337 0.0
N1337 N 0.67498 0.30986 0.4477 0.0
C1338 C 0.6741 0.20377 0.45402 0.0
H1339 H 0.64604 0.19747 0.43857 0.0
H1340 H 0.67458 0.18834 0.48289 0.0
H1341 H 0.69832 0.19194 0.43548 0.0
C1342 C 0.52608 0.2212 0.40869 0.0
N1343 N 0.56315 0.21777 0.39433 0.0
N1344 N 0.58701 0.24029 0.41473 0.0
C1345 C 0.56578 0.25847 0.44334 0.0
C1346 C 0.5264 0.24713 0.4404 0.0
C1347 C 0.49017 0.20977 0.38552 0.0
H1348 H 0.49305 0.22046 0.35475 0.0
H1349 H 0.48764 0.1772 0.3851 0.0
H1350 H 0.46269 0.22236 0.39786 0.0
O1351 O 0.56939 0.26155 0.31797 0.0
O1352 O 0.61106 0.30111 0.35064 0.0
H1353 H 0.59248 0.31525 0.44984 0.0
H1354 H 0.55885 0.3025 0.48934 0.0
C1355 C 0.58148 0.29094 0.46878 0.0
H1356 H 0.60641 0.27956 0.48657 0.0
H1357 H 0.66707 0.33638 0.43423 0.0
O1358 O 0.53896 0.17377 0.32144 0.0
C1359 C 0.58298 0.29571 0.32539 0.0
Co1360 Co 0.81406 0.94525 0.57941 0.0
Co1361 Co 0.76643 0.89626 0.52145 0.0
C1362 C 0.82065 0.96355 0.49318 0.0
O1363 O 0.82855 0.97043 0.52888 0.0
O1364 O 0.79646 0.93597 0.48477 0.0
C1365 C 0.82413 1.01692 0.60933 0.0
O1366 O 0.80257 1.0255 0.57837 0.0
C1367 C 0.69641 0.90825 0.47582 0.0
C1368 C 0.67252 0.84949 0.46215 0.0
C1369 C 0.6643 0.88953 0.45889 0.0
N1370 N 0.72214 0.88095 0.48903 0.0
N1371 N 0.70779 0.8457 0.48052 0.0
C1372 C 0.70151 0.9518 0.48151 0.0
H1373 H 0.717 0.95807 0.50956 0.0
H1374 H 0.67264 0.96723 0.48108 0.0
H1375 H 0.72002 0.96364 0.45728 0.0
C1376 C 0.74689 0.93423 0.62949 0.0
N1377 N 0.76121 0.93771 0.59241 0.0
N1378 N 0.74081 0.9152 0.56854 0.0
C1379 C 0.71222 0.89697 0.58977 0.0
C1380 C 0.71523 0.90823 0.62916 0.0
C1381 C 0.77007 0.94566 0.66539 0.0
H1382 H 0.80084 0.93499 0.6625 0.0
H1383 H 0.77047 0.97824 0.66794 0.0
H1384 H 0.75774 0.93305 0.69287 0.0
O1385 O 0.83757 0.89395 0.58612 0.0
O1386 O 0.80488 0.85439 0.54446 0.0
H1387 H 0.70571 0.84023 0.56301 0.0
H1388 H 0.66625 0.85292 0.59669 0.0
C1389 C 0.68678 0.86452 0.57405 0.0
H1390 H 0.66897 0.87592 0.54915 0.0
H1391 H 0.72125 0.81917 0.4884 0.0
O1392 O 0.8341 0.98172 0.61658 0.0
C1393 C 0.83015 0.85979 0.57252 0.0
Co1394 Co 0.81405 0.21026 0.57612 0.0
Co1395 Co 0.76643 0.25925 0.63408 0.0
C1396 C 0.82065 0.19195 0.66235 0.0
O1397 O 0.82854 0.18508 0.62665 0.0
O1398 O 0.79646 0.21953 0.67076 0.0
C1399 C 0.82413 0.13859 0.54621 0.0
O1400 O 0.80258 0.13 0.57716 0.0
C1401 C 0.69641 0.24725 0.67971 0.0
C1402 C 0.67252 0.30602 0.69338 0.0
C1403 C 0.6643 0.26597 0.69664 0.0
N1404 N 0.72214 0.27455 0.6665 0.0
N1405 N 0.70779 0.3098 0.67501 0.0
C1406 C 0.70151 0.20371 0.67402 0.0
H1407 H 0.71701 0.19744 0.64597 0.0
H1408 H 0.67264 0.18827 0.67444 0.0
H1409 H 0.72002 0.19186 0.69825 0.0
C1410 C 0.74689 0.22127 0.52604 0.0
N1411 N 0.7612 0.2178 0.56312 0.0
N1412 N 0.7408 0.2403 0.58699 0.0
C1413 C 0.71222 0.25854 0.56576 0.0
C1414 C 0.71523 0.24727 0.52637 0.0
C1415 C 0.77006 0.20984 0.49014 0.0
H1416 H 0.80083 0.22051 0.49303 0.0
H1417 H 0.77047 0.17727 0.4876 0.0
H1418 H 0.75774 0.22245 0.46266 0.0
O1419 O 0.83757 0.26156 0.56941 0.0
O1420 O 0.80488 0.30111 0.61107 0.0
H1421 H 0.70571 0.31528 0.59252 0.0
H1422 H 0.66624 0.30259 0.55884 0.0
C1423 C 0.68678 0.29099 0.58148 0.0
H1424 H 0.66897 0.27959 0.60638 0.0
H1425 H 0.72125 0.33634 0.66713 0.0
O1426 O 0.83409 0.17378 0.53894 0.0
C1427 C 0.83015 0.29571 0.58301 0.0
Co1428 Co 0.94526 0.81403 0.57612 0.0
Co1429 Co 0.89625 0.76642 0.63408 0.0
C1430 C 0.96355 0.82063 0.66235 0.0
O1431 O 0.97043 0.82852 0.62665 0.0
O1432 O 0.93597 0.79645 0.67076 0.0
C1433 C 1.01694 0.8241 0.54621 0.0
O1434 O 1.02552 0.80255 0.57717 0.0
C1435 C 0.90825 0.6964 0.67971 0.0
C1436 C 0.84949 0.67251 0.69338 0.0
C1437 C 0.88953 0.6643 0.69664 0.0
N1438 N 0.88095 0.72213 0.6665 0.0
N1439 N 0.8457 0.70778 0.67501 0.0
C1440 C 0.95179 0.7015 0.67402 0.0
H1441 H 0.95807 0.717 0.64598 0.0
H1442 H 0.96724 0.67264 0.67444 0.0
H1443 H 0.96364 0.72001 0.69825 0.0
C1444 C 0.93425 0.74686 0.52605 0.0
N1445 N 0.93772 0.76118 0.56312 0.0
N1446 N 0.9152 0.74079 0.58699 0.0
C1447 C 0.89697 0.71221 0.56576 0.0
C1448 C 0.90824 0.71521 0.52637 0.0
C1449 C 0.94568 0.77003 0.49014 0.0
H1450 H 0.93501 0.80081 0.49303 0.0
H1451 H 0.97826 0.77044 0.4876 0.0
H1452 H 0.93308 0.75771 0.46266 0.0
O1453 O 0.89397 0.83754 0.5694 0.0
O1454 O 0.85439 0.80487 0.61106 0.0
H1455 H 0.84022 0.70571 0.59252 0.0
H1456 H 0.85291 0.66624 0.55884 0.0
C1457 C 0.86451 0.68677 0.58148 0.0
H1458 H 0.87591 0.66896 0.60638 0.0
H1459 H 0.81916 0.72124 0.66713 0.0
O1460 O 0.98174 0.83407 0.53895 0.0
C1461 C 0.85981 0.83013 0.58299 0.0
Co1462 Co 0.34148 0.94524 0.57612 0.0
Co1463 Co 0.3891 0.89625 0.63408 0.0
C1464 C 0.33489 0.96355 0.66235 0.0
O1465 O 0.327 0.97042 0.62665 0.0
O1466 O 0.35908 0.93596 0.67076 0.0
C1467 C 0.33142 1.01691 0.5462 0.0
O1468 O 0.35298 1.02549 0.57716 0.0
C1469 C 0.45913 0.90824 0.67971 0.0
C1470 C 0.48301 0.84948 0.69338 0.0
C1471 C 0.49123 0.88952 0.69664 0.0
N1472 N 0.4334 0.88094 0.6665 0.0
N1473 N 0.44774 0.84569 0.67501 0.0
C1474 C 0.45403 0.95178 0.67402 0.0
H1475 H 0.43853 0.95806 0.64597 0.0
H1476 H 0.48289 0.96722 0.67444 0.0
H1477 H 0.43551 0.96363 0.69825 0.0
C1478 C 0.40864 0.93422 0.52604 0.0
N1479 N 0.39433 0.9377 0.56312 0.0
N1480 N 0.41473 0.91519 0.58699 0.0
C1481 C 0.44331 0.89696 0.56576 0.0
C1482 C 0.4403 0.90822 0.52637 0.0
C1483 C 0.38547 0.94565 0.49014 0.0
H1484 H 0.35469 0.93499 0.49303 0.0
H1485 H 0.38507 0.97823 0.48759 0.0
H1486 H 0.39779 0.93304 0.46265 0.0
O1487 O 0.31796 0.89395 0.56941 0.0
O1488 O 0.35065 0.85439 0.61107 0.0
H1489 H 0.44982 0.84022 0.59252 0.0
H1490 H 0.48929 0.85291 0.55884 0.0
C1491 C 0.46876 0.86451 0.58148 0.0
H1492 H 0.48656 0.87591 0.60637 0.0
H1493 H 0.43429 0.81916 0.66713 0.0
O1494 O 0.32144 0.98172 0.53895 0.0
C1495 C 0.32537 0.85979 0.58301 0.0
Co1496 Co 0.21028 0.34147 0.57612 0.0
Co1497 Co 0.25927 0.38909 0.63408 0.0
C1498 C 0.19197 0.33488 0.66235 0.0
O1499 O 0.1851 0.32699 0.62665 0.0
O1500 O 0.21956 0.35907 0.67076 0.0
C1501 C 0.1386 0.33142 0.54621 0.0
O1502 O 0.13002 0.35298 0.57716 0.0
C1503 C 0.24728 0.45911 0.67971 0.0
C1504 C 0.30605 0.483 0.69338 0.0
C1505 C 0.266 0.49122 0.69664 0.0
N1506 N 0.27458 0.43338 0.6665 0.0
N1507 N 0.30983 0.44773 0.67501 0.0
C1508 C 0.20374 0.45401 0.67402 0.0
H1509 H 0.19746 0.43851 0.64597 0.0
H1510 H 0.1883 0.48288 0.67444 0.0
H1511 H 0.19189 0.4355 0.69825 0.0
C1512 C 0.2213 0.40864 0.52604 0.0
N1513 N 0.21782 0.39432 0.56312 0.0
N1514 N 0.24033 0.41472 0.58699 0.0
C1515 C 0.25856 0.4433 0.56576 0.0
C1516 C 0.2473 0.4403 0.52637 0.0
C1517 C 0.20987 0.38547 0.49014 0.0
H1518 H 0.22053 0.35469 0.49304 0.0
H1519 H 0.17729 0.38507 0.48759 0.0
H1520 H 0.22248 0.39779 0.46266 0.0
O1521 O 0.26157 0.31795 0.56941 0.0
O1522 O 0.30113 0.35063 0.61107 0.0
H1523 H 0.31531 0.44981 0.59252 0.0
H1524 H 0.30262 0.48928 0.55884 0.0
C1525 C 0.29102 0.46874 0.58148 0.0
H1526 H 0.27962 0.48655 0.60638 0.0
H1527 H 0.33637 0.43427 0.66713 0.0
O1528 O 0.17379 0.32144 0.53895 0.0
C1529 C 0.29573 0.32536 0.58301 0.0
Co1530 Co 0.34148 0.21025 0.57941 0.0
Co1531 Co 0.3891 0.25925 0.52145 0.0
C1532 C 0.33488 0.19195 0.49318 0.0
O1533 O 0.32699 0.18508 0.52888 0.0
O1534 O 0.35907 0.21954 0.48477 0.0
C1535 C 0.33143 0.13858 0.60932 0.0
O1536 O 0.35299 0.13 0.57836 0.0
C1537 C 0.45912 0.24726 0.47581 0.0
C1538 C 0.483 0.30603 0.46215 0.0
C1539 C 0.49122 0.26598 0.45889 0.0
N1540 N 0.43339 0.27456 0.48903 0.0
N1541 N 0.44773 0.30981 0.48051 0.0
C1542 C 0.45402 0.20372 0.48151 0.0
H1543 H 0.43852 0.19744 0.50955 0.0
H1544 H 0.48288 0.18828 0.48108 0.0
H1545 H 0.43551 0.19187 0.45727 0.0
C1546 C 0.40865 0.22127 0.62948 0.0
N1547 N 0.39433 0.2178 0.59241 0.0
N1548 N 0.41473 0.24031 0.56854 0.0
C1549 C 0.44331 0.25854 0.58977 0.0
C1550 C 0.44031 0.24728 0.62916 0.0
C1551 C 0.38548 0.20984 0.66539 0.0
H1552 H 0.3547 0.2205 0.66249 0.0
H1553 H 0.38508 0.17727 0.66793 0.0
H1554 H 0.3978 0.22245 0.69287 0.0
O1555 O 0.31797 0.26155 0.58613 0.0
O1556 O 0.35064 0.30111 0.54447 0.0
H1557 H 0.44981 0.31529 0.56301 0.0
H1558 H 0.48928 0.3026 0.59668 0.0
C1559 C 0.46875 0.291 0.57405 0.0
H1560 H 0.48656 0.2796 0.54915 0.0
H1561 H 0.43428 0.33634 0.4884 0.0
O1562 O 0.32146 0.17377 0.61658 0.0
C1563 C 0.32539 0.29571 0.57254 0.0
Co1564 Co 0.94526 0.34148 0.57941 0.0
Co1565 Co 0.89625 0.38908 0.52145 0.0
C1566 C 0.96356 0.33487 0.49318 0.0
O1567 O 0.97044 0.32699 0.52888 0.0
O1568 O 0.93597 0.35906 0.48477 0.0
C1569 C 1.01694 0.33143 0.60932 0.0
O1570 O 1.02552 0.35299 0.57837 0.0
C1571 C 0.90825 0.45911 0.47581 0.0
C1572 C 0.84948 0.48299 0.46215 0.0
C1573 C 0.88953 0.49121 0.45889 0.0
N1574 N 0.88095 0.43338 0.48903 0.0
N1575 N 0.8457 0.44772 0.48051 0.0
C1576 C 0.95179 0.454 0.48151 0.0
H1577 H 0.95806 0.4385 0.50955 0.0
H1578 H 0.96723 0.48287 0.48108 0.0
H1579 H 0.96364 0.43549 0.45727 0.0
C1580 C 0.93424 0.40864 0.62948 0.0
N1581 N 0.93771 0.39432 0.59241 0.0
N1582 N 0.9152 0.41472 0.56854 0.0
C1583 C 0.89697 0.4433 0.58976 0.0
C1584 C 0.90823 0.4403 0.62916 0.0
C1585 C 0.94567 0.38547 0.66539 0.0
H1586 H 0.93501 0.3547 0.66249 0.0
H1587 H 0.97825 0.38507 0.66793 0.0
H1588 H 0.93306 0.39779 0.69287 0.0
O1589 O 0.89397 0.31796 0.58613 0.0
O1590 O 0.8544 0.35063 0.54447 0.0
H1591 H 0.84022 0.4498 0.56301 0.0
H1592 H 0.8529 0.48927 0.59668 0.0
C1593 C 0.86451 0.46874 0.57405 0.0
H1594 H 0.87591 0.48654 0.54915 0.0
H1595 H 0.81916 0.43427 0.4884 0.0
O1596 O 0.98174 0.32145 0.61658 0.0
C1597 C 0.85981 0.32538 0.57254 0.0
Co1598 Co 0.21026 0.81403 0.57941 0.0
Co1599 Co 0.25927 0.76642 0.52145 0.0
C1600 C 0.19197 0.82064 0.49318 0.0
O1601 O 0.18509 0.82853 0.52888 0.0
O1602 O 0.21956 0.79645 0.48477 0.0
C1603 C 0.13859 0.82409 0.60932 0.0
O1604 O 0.13 0.80254 0.57836 0.0
C1605 C 0.24727 0.6964 0.47581 0.0
C1606 C 0.30604 0.67251 0.46215 0.0
C1607 C 0.26599 0.6643 0.45889 0.0
N1608 N 0.27457 0.72213 0.48903 0.0
N1609 N 0.30983 0.70778 0.48051 0.0
C1610 C 0.20373 0.7015 0.48151 0.0
H1611 H 0.19746 0.717 0.50955 0.0
H1612 H 0.18829 0.67264 0.48108 0.0
H1613 H 0.19188 0.72002 0.45727 0.0
C1614 C 0.22128 0.74687 0.62948 0.0
N1615 N 0.21781 0.76118 0.59241 0.0
N1616 N 0.24032 0.74079 0.56854 0.0
C1617 C 0.25856 0.71221 0.58976 0.0
C1618 C 0.24729 0.71521 0.62916 0.0
C1619 C 0.20985 0.77004 0.66539 0.0
H1620 H 0.22051 0.80081 0.66249 0.0
H1621 H 0.17727 0.77044 0.66793 0.0
H1622 H 0.22246 0.75771 0.69287 0.0
O1623 O 0.26156 0.83755 0.58613 0.0
O1624 O 0.30113 0.80487 0.54447 0.0
H1625 H 0.3153 0.70571 0.56301 0.0
H1626 H 0.30262 0.66624 0.59668 0.0
C1627 C 0.29101 0.68677 0.57405 0.0
H1628 H 0.27961 0.66896 0.54915 0.0
H1629 H 0.33636 0.72124 0.4884 0.0
O1630 O 0.17378 0.83406 0.61658 0.0
C1631 C 0.29572 0.83013 0.57254 0.0
loop_
_geom_bond_atom_site_label_1
_geom_bond_atom_site_label_2
_geom_bond_distance
_geom_bond_site_symmetry_2
_ccdc_geom_bond_type
Co0 O3 1.970 . S
Co0 N17 1.989 . S
Co0 O25 1.967 . S
Co0 O32 1.920 . S
Co1 O4 1.966 . S
Co1 N10 2.022 . S
Co1 N18 1.993 1_655 S
Co1 O26 1.941 1_655 S
C2 O3 1.258 1_655 S
C2 O4 1.263 . S
O3 Co0 1.970 . S
O3 C2 1.258 1_455 S
O4 Co1 1.966 . S
O4 C2 1.263 . S
C5 O6 1.235 . S
C5 O32 1.289 . S
O6 C5 1.235 . S
C7 C9 1.400 . S
C7 N10 1.351 . S
C7 C12 1.501 . S
C8 C9 1.387 . S
C8 N11 1.341 . S
C9 C7 1.400 . S
C9 C8 1.387 . S
N10 Co1 2.022 . S
N10 C7 1.351 . S
N10 N11 1.365 . S
N11 C8 1.341 . S
N11 N10 1.365 . S
N11 H31 0.862 . S
C12 C7 1.501 . S
C12 H13 0.961 . S
C12 H14 0.961 . S
C12 H15 0.960 . S
H13 C12 0.961 . S
H14 C12 0.961 . S
H15 C12 0.960 . S
C16 N17 1.342 . S
C16 C20 1.401 . S
C16 C21 1.499 . S
N17 Co0 1.989 . S
N17 C16 1.342 . S
N17 N18 1.388 . S
N18 Co1 1.993 1_455 S
N18 N17 1.388 . S
N18 C19 1.346 . S
C19 N18 1.346 . S
C19 C20 1.396 . S
C19 C29 1.510 . S
C20 C16 1.401 . S
C20 C19 1.396 . S
C21 C16 1.499 . S
C21 H22 0.959 . S
C21 H23 0.960 . S
C21 H24 0.961 . S
H22 C21 0.959 . S
H23 C21 0.960 . S
H24 C21 0.961 . S
O25 Co0 1.967 . S
O25 C33 1.258 . S
O26 Co1 1.941 1_455 S
O26 C33 1.266 . S
H27 C29 0.959 . S
H28 C29 0.961 . S
C29 C19 1.510 . S
C29 H27 0.959 . S
C29 H28 0.961 . S
C29 H30 0.960 . S
H30 C29 0.960 . S
H31 N11 0.862 . S
O32 Co0 1.920 . S
O32 C5 1.289 . S
C33 O25 1.258 . S
C33 O26 1.266 . S
Co34 O37 1.970 . S
Co34 N51 1.989 . S
Co34 O59 1.967 . S
Co34 O66 1.920 . S
Co35 O38 1.966 . S
Co35 N44 2.022 . S
Co35 N52 1.993 1_565 S
Co35 O60 1.941 1_565 S
C36 O37 1.258 1_565 S
C36 O38 1.263 . S
O37 Co34 1.970 . S
O37 C36 1.258 1_545 S
O38 Co35 1.966 . S
O38 C36 1.263 . S
C39 O40 1.235 . S
C39 O66 1.289 . S
O40 C39 1.235 . S
C41 C43 1.400 . S
C41 N44 1.351 . S
C41 C46 1.501 . S
C42 C43 1.387 . S
C42 N45 1.341 . S
C43 C41 1.400 . S
C43 C42 1.387 . S
N44 Co35 2.022 . S
N44 C41 1.351 . S
N44 N45 1.365 . S
N45 C42 1.341 . S
N45 N44 1.365 . S
N45 H65 0.862 . S
C46 C41 1.501 . S
C46 H47 0.961 . S
C46 H48 0.961 . S
C46 H49 0.960 . S
H47 C46 0.961 . S
H48 C46 0.961 . S
H49 C46 0.960 . S
C50 N51 1.342 . S
C50 C54 1.401 . S
C50 C55 1.499 . S
N51 Co34 1.989 . S
N51 C50 1.342 . S
N51 N52 1.388 . S
N52 Co35 1.993 1_545 S
N52 N51 1.388 . S
N52 C53 1.346 . S
C53 N52 1.346 . S
C53 C54 1.396 . S
C53 C63 1.510 . S
C54 C50 1.401 . S
C54 C53 1.396 . S
C55 C50 1.499 . S
C55 H56 0.959 . S
C55 H57 0.960 . S
C55 H58 0.961 . S
H56 C55 0.959 . S
H57 C55 0.960 . S
H58 C55 0.961 . S
O59 Co34 1.967 . S
O59 C67 1.258 . S
O60 Co35 1.941 1_545 S
O60 C67 1.266 . S
H61 C63 0.959 . S
H62 C63 0.961 . S
C63 C53 1.510 . S
C63 H61 0.959 . S
C63 H62 0.961 . S
C63 H64 0.960 . S
H64 C63 0.960 . S
H65 N45 0.862 . S
O66 Co34 1.920 . S
O66 C39 1.289 . S
C67 O59 1.258 . S
C67 O60 1.266 . S
Co68 O71 1.970 . S
Co68 N85 1.989 . S
Co68 O93 1.967 . S
Co68 O100 1.920 1_455 S
Co69 O72 1.966 . S
Co69 N78 2.022 . S
Co69 N86 1.993 . S
Co69 O94 1.941 . S
C70 O71 1.258 . S
C70 O72 1.263 . S
O71 Co68 1.970 . S
O71 C70 1.258 . S
O72 Co69 1.966 . S
O72 C70 1.263 . S
C73 O74 1.235 . S
C73 O100 1.289 . S
O74 C73 1.235 . S
C75 C77 1.400 . S
C75 N78 1.351 . S
C75 C80 1.501 . S
C76 C77 1.387 . S
C76 N79 1.341 . S
C77 C75 1.400 . S
C77 C76 1.387 . S
N78 Co69 2.022 . S
N78 C75 1.351 . S
N78 N79 1.365 . S
N79 C76 1.341 . S
N79 N78 1.365 . S
N79 H99 0.862 . S
C80 C75 1.501 . S
C80 H81 0.961 . S
C80 H82 0.961 . S
C80 H83 0.960 . S
H81 C80 0.961 . S
H82 C80 0.961 . S
H83 C80 0.960 . S
C84 N85 1.342 1_655 S
C84 C88 1.401 . S
C84 C89 1.499 . S
N85 Co68 1.989 . S
N85 C84 1.342 1_455 S
N85 N86 1.388 . S
N86 Co69 1.993 . S
N86 N85 1.388 . S
N86 C87 1.346 . S
C87 N86 1.346 . S
C87 C88 1.396 1_455 S
C87 C97 1.510 . S
C88 C84 1.401 . S
C88 C87 1.396 1_655 S
C89 C84 1.499 . S
C89 H90 0.959 . S
C89 H91 0.960 . S
C89 H92 0.961 . S
H90 C89 0.959 . S
H91 C89 0.960 . S
H92 C89 0.961 . S
O93 Co68 1.967 . S
O93 C101 1.258 . S
O94 Co69 1.941 . S
O94 C101 1.266 . S
H95 C97 0.959 . S
H96 C97 0.961 . S
C97 C87 1.510 . S
C97 H95 0.959 . S
C97 H96 0.961 . S
C97 H98 0.960 . S
H98 C97 0.960 . S
H99 N79 0.862 . S
O100 Co68 1.920 1_655 S
O100 C73 1.289 . S
C101 O93 1.258 . S
C101 O94 1.266 . S
Co102 O105 1.970 . S
Co102 N119 1.989 . S
Co102 O127 1.967 . S
Co102 O134 1.920 1_545 S
Co103 O106 1.966 . S
Co103 N112 2.022 . S
Co103 N120 1.993 . S
Co103 O128 1.941 . S
C104 O105 1.258 . S
C104 O106 1.263 . S
O105 Co102 1.970 . S
O105 C104 1.258 . S
O106 Co103 1.966 . S
O106 C104 1.263 . S
C107 O108 1.235 . S
C107 O134 1.289 . S
O108 C107 1.235 . S
C109 C111 1.400 . S
C109 N112 1.351 . S
C109 C114 1.501 . S
C110 C111 1.387 . S
C110 N113 1.341 . S
C111 C109 1.400 . S
C111 C110 1.387 . S
N112 Co103 2.022 . S
N112 C109 1.351 . S
N112 N113 1.365 . S
N113 C110 1.341 . S
N113 N112 1.365 . S
N113 H133 0.862 . S
C114 C109 1.501 . S
C114 H115 0.961 . S
C114 H116 0.961 . S
C114 H117 0.960 . S
H115 C114 0.961 . S
H116 C114 0.961 . S
H117 C114 0.960 . S
C118 N119 1.342 1_565 S
C118 C122 1.401 . S
C118 C123 1.499 . S
N119 Co102 1.989 . S
N119 C118 1.342 1_545 S
N119 N120 1.388 . S
N120 Co103 1.993 . S
N120 N119 1.388 . S
N120 C121 1.346 . S
C121 N120 1.346 . S
C121 C122 1.396 1_545 S
C121 C131 1.510 . S
C122 C118 1.401 . S
C122 C121 1.396 1_565 S
C123 C118 1.499 . S
C123 H124 0.959 . S
C123 H125 0.960 . S
C123 H126 0.961 . S
H124 C123 0.959 . S
H125 C123 0.960 . S
H126 C123 0.961 . S
O127 Co102 1.967 . S
O127 C135 1.258 . S
O128 Co103 1.941 . S
O128 C135 1.266 . S
H129 C131 0.959 . S
H130 C131 0.961 . S
C131 C121 1.510 . S
C131 H129 0.959 . S
C131 H130 0.961 . S
C131 H132 0.960 . S
H132 C131 0.960 . S
H133 N113 0.862 . S
O134 Co102 1.920 1_565 S
O134 C107 1.289 . S
C135 O127 1.258 . S
C135 O128 1.266 . S
Co136 O139 1.970 . S
Co136 N153 1.989 . S
Co136 O161 1.967 . S
Co136 O168 1.920 . S
Co137 O140 1.966 . S
Co137 N146 2.022 . S
Co137 N154 1.993 1_655 S
Co137 O162 1.941 1_655 S
C138 O139 1.258 1_655 S
C138 O140 1.263 . S
O139 Co136 1.970 . S
O139 C138 1.258 1_455 S
O140 Co137 1.966 . S
O140 C138 1.263 . S
C141 O142 1.235 . S
C141 O168 1.289 . S
O142 C141 1.235 . S
C143 C145 1.400 . S
C143 N146 1.351 . S
C143 C148 1.501 . S
C144 C145 1.387 . S
C144 N147 1.341 . S
C145 C143 1.400 . S
C145 C144 1.387 . S
N146 Co137 2.022 . S
N146 C143 1.351 . S
N146 N147 1.365 . S
N147 C144 1.341 . S
N147 N146 1.365 . S
N147 H167 0.862 . S
C148 C143 1.501 . S
C148 H149 0.961 . S
C148 H150 0.961 . S
C148 H151 0.960 . S
H149 C148 0.961 . S
H150 C148 0.961 . S
H151 C148 0.960 . S
C152 N153 1.342 . S
C152 C156 1.401 . S
C152 C157 1.499 . S
N153 Co136 1.989 . S
N153 C152 1.342 . S
N153 N154 1.388 . S
N154 Co137 1.993 1_455 S
N154 N153 1.388 . S
N154 C155 1.346 . S
C155 N154 1.346 . S
C155 C156 1.396 . S
C155 C165 1.510 . S
C156 C152 1.401 . S
C156 C155 1.396 . S
C157 C152 1.499 . S
C157 H158 0.959 . S
C157 H159 0.960 . S
C157 H160 0.961 . S
H158 C157 0.959 . S
H159 C157 0.960 . S
H160 C157 0.961 . S
O161 Co136 1.967 . S
O161 C169 1.258 . S
O162 Co137 1.941 1_455 S
O162 C169 1.266 . S
H163 C165 0.959 . S
H164 C165 0.961 . S
C165 C155 1.510 . S
C165 H163 0.959 . S
C165 H164 0.961 . S
C165 H166 0.960 . S
H166 C165 0.960 . S
H167 N147 0.862 . S
O168 Co136 1.920 . S
O168 C141 1.289 . S
C169 O161 1.258 . S
C169 O162 1.266 . S
Co170 O173 1.970 . S
Co170 N187 1.989 . S
Co170 O195 1.967 . S
Co170 O202 1.920 . S
Co171 O174 1.966 . S
Co171 N180 2.022 . S
Co171 N188 1.993 1_565 S
Co171 O196 1.941 1_565 S
C172 O173 1.258 1_565 S
C172 O174 1.263 . S
O173 Co170 1.970 . S
O173 C172 1.258 1_545 S
O174 Co171 1.966 . S
O174 C172 1.263 . S
C175 O176 1.235 . S
C175 O202 1.289 . S
O176 C175 1.235 . S
C177 C179 1.400 . S
C177 N180 1.351 . S
C177 C182 1.501 . S
C178 C179 1.387 . S
C178 N181 1.341 . S
C179 C177 1.400 . S
C179 C178 1.387 . S
N180 Co171 2.022 . S
N180 C177 1.351 . S
N180 N181 1.365 . S
N181 C178 1.341 . S
N181 N180 1.365 . S
N181 H201 0.862 . S
C182 C177 1.501 . S
C182 H183 0.961 . S
C182 H184 0.961 . S
C182 H185 0.960 . S
H183 C182 0.961 . S
H184 C182 0.961 . S
H185 C182 0.960 . S
C186 N187 1.342 . S
C186 C190 1.401 . S
C186 C191 1.499 . S
N187 Co170 1.989 . S
N187 C186 1.342 . S
N187 N188 1.388 . S
N188 Co171 1.993 1_545 S
N188 N187 1.388 . S
N188 C189 1.346 . S
C189 N188 1.346 . S
C189 C190 1.396 . S
C189 C199 1.510 . S
C190 C186 1.401 . S
C190 C189 1.396 . S
C191 C186 1.499 . S
C191 H192 0.959 . S
C191 H193 0.960 . S
C191 H194 0.961 . S
H192 C191 0.959 . S
H193 C191 0.960 . S
H194 C191 0.961 . S
O195 Co170 1.967 . S
O195 C203 1.258 . S
O196 Co171 1.941 1_545 S
O196 C203 1.266 . S
H197 C199 0.959 . S
H198 C199 0.961 . S
C199 C189 1.510 . S
C199 H197 0.959 . S
C199 H198 0.961 . S
C199 H200 0.960 . S
H200 C199 0.960 . S
H201 N181 0.862 . S
O202 Co170 1.920 . S
O202 C175 1.289 . S
C203 O195 1.258 . S
C203 O196 1.266 . S
Co204 O207 1.970 . S
Co204 N221 1.989 . S
Co204 O229 1.967 . S
Co204 O236 1.920 1_455 S
Co205 O208 1.966 . S
Co205 N214 2.022 . S
Co205 N222 1.993 . S
Co205 O230 1.941 . S
C206 O207 1.258 . S
C206 O208 1.263 . S
O207 Co204 1.970 . S
O207 C206 1.258 . S
O208 Co205 1.966 . S
O208 C206 1.263 . S
C209 O210 1.235 . S
C209 O236 1.289 . S
O210 C209 1.235 . S
C211 C213 1.400 . S
C211 N214 1.351 . S
C211 C216 1.501 . S
C212 C213 1.387 . S
C212 N215 1.341 . S
C213 C211 1.400 . S
C213 C212 1.387 . S
N214 Co205 2.022 . S
N214 C211 1.351 . S
N214 N215 1.365 . S
N215 C212 1.341 . S
N215 N214 1.365 . S
N215 H235 0.862 . S
C216 C211 1.501 . S
C216 H217 0.961 . S
C216 H218 0.961 . S
C216 H219 0.960 . S
H217 C216 0.961 . S
H218 C216 0.961 . S
H219 C216 0.960 . S
C220 N221 1.342 1_655 S
C220 C224 1.401 . S
C220 C225 1.499 . S
N221 Co204 1.989 . S
N221 C220 1.342 1_455 S
N221 N222 1.388 . S
N222 Co205 1.993 . S
N222 N221 1.388 . S
N222 C223 1.346 . S
C223 N222 1.346 . S
C223 C224 1.396 1_455 S
C223 C233 1.510 . S
C224 C220 1.401 . S
C224 C223 1.396 1_655 S
C225 C220 1.499 . S
C225 H226 0.959 . S
C225 H227 0.960 . S
C225 H228 0.961 . S
H226 C225 0.959 . S
H227 C225 0.960 . S
H228 C225 0.961 . S
O229 Co204 1.967 . S
O229 C237 1.258 . S
O230 Co205 1.941 . S
O230 C237 1.266 . S
H231 C233 0.959 . S
H232 C233 0.961 . S
C233 C223 1.510 . S
C233 H231 0.959 . S
C233 H232 0.961 . S
C233 H234 0.960 . S
H234 C233 0.960 . S
H235 N215 0.862 . S
O236 Co204 1.920 1_655 S
O236 C209 1.289 . S
C237 O229 1.258 . S
C237 O230 1.266 . S
Co238 O241 1.970 . S
Co238 N255 1.989 . S
Co238 O263 1.967 . S
Co238 O270 1.920 1_545 S
Co239 O242 1.966 . S
Co239 N248 2.022 . S
Co239 N256 1.993 . S
Co239 O264 1.941 . S
C240 O241 1.258 . S
C240 O242 1.263 . S
O241 Co238 1.970 . S
O241 C240 1.258 . S
O242 Co239 1.966 . S
O242 C240 1.263 . S
C243 O244 1.235 . S
C243 O270 1.289 . S
O244 C243 1.235 . S
C245 C247 1.400 . S
C245 N248 1.351 . S
C245 C250 1.501 . S
C246 C247 1.387 . S
C246 N249 1.341 . S
C247 C245 1.400 . S
C247 C246 1.387 . S
N248 Co239 2.022 . S
N248 C245 1.351 . S
N248 N249 1.365 . S
N249 C246 1.341 . S
N249 N248 1.365 . S
N249 H269 0.862 . S
C250 C245 1.501 . S
C250 H251 0.961 . S
C250 H252 0.961 . S
C250 H253 0.960 . S
H251 C250 0.961 . S
H252 C250 0.961 . S
H253 C250 0.960 . S
C254 N255 1.342 1_565 S
C254 C258 1.401 . S
C254 C259 1.499 . S
N255 Co238 1.989 . S
N255 C254 1.342 1_545 S
N255 N256 1.388 . S
N256 Co239 1.993 . S
N256 N255 1.388 . S
N256 C257 1.346 . S
C257 N256 1.346 . S
C257 C258 1.396 1_545 S
C257 C267 1.510 . S
C258 C254 1.401 . S
C258 C257 1.396 1_565 S
C259 C254 1.499 . S
C259 H260 0.959 . S
C259 H261 0.960 . S
C259 H262 0.961 . S
H260 C259 0.959 . S
H261 C259 0.960 . S
H262 C259 0.961 . S
O263 Co238 1.967 . S
O263 C271 1.258 . S
O264 Co239 1.941 . S
O264 C271 1.266 . S
H265 C267 0.959 . S
H266 C267 0.961 . S
C267 C257 1.510 . S
C267 H265 0.959 . S
C267 H266 0.961 . S
C267 H268 0.960 . S
H268 C267 0.960 . S
H269 N249 0.862 . S
O270 Co238 1.920 1_565 S
O270 C243 1.289 . S
C271 O263 1.258 . S
C271 O264 1.266 . S
Co272 O275 1.970 . S
Co272 N289 1.989 . S
Co272 O297 1.967 . S
Co272 O304 1.920 . S
Co273 O276 1.966 . S
Co273 N282 2.022 . S
Co273 N290 1.993 1_565 S
Co273 O298 1.941 1_565 S
C274 O275 1.258 1_565 S
C274 O276 1.263 . S
O275 Co272 1.970 . S
O275 C274 1.258 1_545 S
O276 Co273 1.966 . S
O276 C274 1.263 . S
C277 O278 1.235 . S
C277 O304 1.289 . S
O278 C277 1.235 . S
C279 C281 1.400 . S
C279 N282 1.351 . S
C279 C284 1.501 . S
C280 C281 1.387 . S
C280 N283 1.341 . S
C281 C279 1.400 . S
C281 C280 1.387 . S
N282 Co273 2.022 . S
N282 C279 1.351 . S
N282 N283 1.365 . S
N283 C280 1.341 . S
N283 N282 1.365 . S
N283 H303 0.862 . S
C284 C279 1.501 . S
C284 H285 0.961 . S
C284 H286 0.961 . S
C284 H287 0.960 . S
H285 C284 0.961 . S
H286 C284 0.961 . S
H287 C284 0.960 . S
C288 N289 1.342 . S
C288 C292 1.401 . S
C288 C293 1.499 . S
N289 Co272 1.989 . S
N289 C288 1.342 . S
N289 N290 1.388 . S
N290 Co273 1.993 1_545 S
N290 N289 1.388 . S
N290 C291 1.346 . S
C291 N290 1.346 . S
C291 C292 1.396 . S
C291 C301 1.510 . S
C292 C288 1.401 . S
C292 C291 1.396 . S
C293 C288 1.499 . S
C293 H294 0.959 . S
C293 H295 0.960 . S
C293 H296 0.961 . S
H294 C293 0.959 . S
H295 C293 0.960 . S
H296 C293 0.961 . S
O297 Co272 1.967 . S
O297 C305 1.258 . S
O298 Co273 1.941 1_545 S
O298 C305 1.266 . S
H299 C301 0.959 . S
H300 C301 0.961 . S
C301 C291 1.510 . S
C301 H299 0.959 . S
C301 H300 0.961 . S
C301 H302 0.960 . S
H302 C301 0.960 . S
H303 N283 0.862 . S
O304 Co272 1.920 . S
O304 C277 1.289 . S
C305 O297 1.258 . S
C305 O298 1.266 . S
Co306 O309 1.970 . S
Co306 N323 1.989 . S
Co306 O331 1.967 . S
Co306 O338 1.920 1_455 S
Co307 O310 1.966 . S
Co307 N316 2.022 . S
Co307 N324 1.993 . S
Co307 O332 1.941 . S
C308 O309 1.258 . S
C308 O310 1.263 . S
O309 Co306 1.970 . S
O309 C308 1.258 . S
O310 Co307 1.966 . S
O310 C308 1.263 . S
C311 O312 1.235 . S
C311 O338 1.289 . S
O312 C311 1.235 . S
C313 C315 1.400 . S
C313 N316 1.351 . S
C313 C318 1.501 . S
C314 C315 1.387 . S
C314 N317 1.341 . S
C315 C313 1.400 . S
C315 C314 1.387 . S
N316 Co307 2.022 . S
N316 C313 1.351 . S
N316 N317 1.365 . S
N317 C314 1.341 . S
N317 N316 1.365 . S
N317 H337 0.862 . S
C318 C313 1.501 . S
C318 H319 0.961 . S
C318 H320 0.961 . S
C318 H321 0.960 . S
H319 C318 0.961 . S
H320 C318 0.961 . S
H321 C318 0.960 . S
C322 N323 1.342 1_655 S
C322 C326 1.401 . S
C322 C327 1.499 . S
N323 Co306 1.989 . S
N323 C322 1.342 1_455 S
N323 N324 1.388 . S
N324 Co307 1.993 . S
N324 N323 1.388 . S
N324 C325 1.346 . S
C325 N324 1.346 . S
C325 C326 1.396 1_455 S
C325 C335 1.510 . S
C326 C322 1.401 . S
C326 C325 1.396 1_655 S
C327 C322 1.499 . S
C327 H328 0.959 . S
C327 H329 0.960 . S
C327 H330 0.961 . S
H328 C327 0.959 . S
H329 C327 0.960 . S
H330 C327 0.961 . S
O331 Co306 1.967 . S
O331 C339 1.258 . S
O332 Co307 1.941 . S
O332 C339 1.266 . S
H333 C335 0.959 . S
H334 C335 0.961 . S
C335 C325 1.510 . S
C335 H333 0.959 . S
C335 H334 0.961 . S
C335 H336 0.960 . S
H336 C335 0.960 . S
H337 N317 0.862 . S
O338 Co306 1.920 1_655 S
O338 C311 1.289 . S
C339 O331 1.258 . S
C339 O332 1.266 . S
Co340 O343 1.970 . S
Co340 N357 1.989 . S
Co340 O365 1.967 . S
Co340 O372 1.920 1_545 S
Co341 O344 1.966 . S
Co341 N350 2.022 . S
Co341 N358 1.993 . S
Co341 O366 1.941 . S
C342 O343 1.258 . S
C342 O344 1.263 . S
O343 Co340 1.970 . S
O343 C342 1.258 . S
O344 Co341 1.966 . S
O344 C342 1.263 . S
C345 O346 1.235 . S
C345 O372 1.289 . S
O346 C345 1.235 . S
C347 C349 1.400 . S
C347 N350 1.351 . S
C347 C352 1.501 . S
C348 C349 1.387 . S
C348 N351 1.341 . S
C349 C347 1.400 . S
C349 C348 1.387 . S
N350 Co341 2.022 . S
N350 C347 1.351 . S
N350 N351 1.365 . S
N351 C348 1.341 . S
N351 N350 1.365 . S
N351 H371 0.862 . S
C352 C347 1.501 . S
C352 H353 0.961 . S
C352 H354 0.961 . S
C352 H355 0.960 . S
H353 C352 0.961 . S
H354 C352 0.961 . S
H355 C352 0.960 . S
C356 N357 1.342 1_565 S
C356 C360 1.401 . S
C356 C361 1.499 . S
N357 Co340 1.989 . S
N357 C356 1.342 1_545 S
N357 N358 1.388 . S
N358 Co341 1.993 . S
N358 N357 1.388 . S
N358 C359 1.346 . S
C359 N358 1.346 . S
C359 C360 1.396 1_545 S
C359 C369 1.510 . S
C360 C356 1.401 . S
C360 C359 1.396 1_565 S
C361 C356 1.499 . S
C361 H362 0.959 . S
C361 H363 0.960 . S
C361 H364 0.961 . S
H362 C361 0.959 . S
H363 C361 0.960 . S
H364 C361 0.961 . S
O365 Co340 1.967 . S
O365 C373 1.258 . S
O366 Co341 1.941 . S
O366 C373 1.266 . S
H367 C369 0.959 . S
H368 C369 0.961 . S
C369 C359 1.510 . S
C369 H367 0.959 . S
C369 H368 0.961 . S
C369 H370 0.960 . S
H370 C369 0.960 . S
H371 N351 0.862 . S
O372 Co340 1.920 1_565 S
O372 C345 1.289 . S
C373 O365 1.258 . S
C373 O366 1.266 . S
Co374 O377 1.970 . S
Co374 N391 1.989 . S
Co374 O399 1.967 . S
Co374 O406 1.920 . S
Co375 O378 1.966 . S
Co375 N384 2.022 . S
Co375 N392 1.993 1_655 S
Co375 O400 1.941 1_655 S
C376 O377 1.258 1_655 S
C376 O378 1.263 . S
O377 Co374 1.970 . S
O377 C376 1.258 1_455 S
O378 Co375 1.966 . S
O378 C376 1.263 . S
C379 O380 1.235 . S
C379 O406 1.289 . S
O380 C379 1.235 . S
C381 C383 1.400 . S
C381 N384 1.351 . S
C381 C386 1.501 . S
C382 C383 1.387 . S
C382 N385 1.341 . S
C383 C381 1.400 . S
C383 C382 1.387 . S
N384 Co375 2.022 . S
N384 C381 1.351 . S
N384 N385 1.365 . S
N385 C382 1.341 . S
N385 N384 1.365 . S
N385 H405 0.862 . S
C386 C381 1.501 . S
C386 H387 0.961 . S
C386 H388 0.961 . S
C386 H389 0.960 . S
H387 C386 0.961 . S
H388 C386 0.961 . S
H389 C386 0.960 . S
C390 N391 1.342 . S
C390 C394 1.401 . S
C390 C395 1.499 . S
N391 Co374 1.989 . S
N391 C390 1.342 . S
N391 N392 1.388 . S
N392 Co375 1.993 1_455 S
N392 N391 1.388 . S
N392 C393 1.346 . S
C393 N392 1.346 . S
C393 C394 1.396 . S
C393 C403 1.510 . S
C394 C390 1.401 . S
C394 C393 1.396 . S
C395 C390 1.499 . S
C395 H396 0.959 . S
C395 H397 0.960 . S
C395 H398 0.961 . S
H396 C395 0.959 . S
H397 C395 0.960 . S
H398 C395 0.961 . S
O399 Co374 1.967 . S
O399 C407 1.258 . S
O400 Co375 1.941 1_455 S
O400 C407 1.266 . S
H401 C403 0.959 . S
H402 C403 0.961 . S
C403 C393 1.510 . S
C403 H401 0.959 . S
C403 H402 0.961 . S
C403 H404 0.960 . S
H404 C403 0.960 . S
H405 N385 0.862 . S
O406 Co374 1.920 . S
O406 C379 1.289 . S
C407 O399 1.258 . S
C407 O400 1.266 . S
Co408 O411 1.970 . S
Co408 N425 1.989 . S
Co408 O433 1.967 . S
Co408 O440 1.920 1_545 S
Co409 O412 1.966 . S
Co409 N418 2.022 . S
Co409 N426 1.993 . S
Co409 O434 1.941 . S
C410 O411 1.258 . S
C410 O412 1.263 . S
O411 Co408 1.970 . S
O411 C410 1.258 . S
O412 Co409 1.966 . S
O412 C410 1.263 . S
C413 O414 1.235 . S
C413 O440 1.289 . S
O414 C413 1.235 . S
C415 C417 1.400 . S
C415 N418 1.351 . S
C415 C420 1.501 . S
C416 C417 1.387 . S
C416 N419 1.341 . S
C417 C415 1.400 . S
C417 C416 1.387 . S
N418 Co409 2.022 . S
N418 C415 1.351 . S
N418 N419 1.365 . S
N419 C416 1.341 . S
N419 N418 1.365 . S
N419 H439 0.862 . S
C420 C415 1.501 . S
C420 H421 0.961 . S
C420 H422 0.961 . S
C420 H423 0.960 . S
H421 C420 0.961 . S
H422 C420 0.961 . S
H423 C420 0.960 . S
C424 N425 1.342 1_565 S
C424 C428 1.401 . S
C424 C429 1.499 . S
N425 Co408 1.989 . S
N425 C424 1.342 1_545 S
N425 N426 1.388 . S
N426 Co409 1.993 . S
N426 N425 1.388 . S
N426 C427 1.346 . S
C427 N426 1.346 . S
C427 C428 1.396 1_545 S
C427 C437 1.510 . S
C428 C424 1.401 . S
C428 C427 1.396 1_565 S
C429 C424 1.499 . S
C429 H430 0.959 . S
C429 H431 0.960 . S
C429 H432 0.961 . S
H430 C429 0.959 . S
H431 C429 0.960 . S
H432 C429 0.961 . S
O433 Co408 1.967 . S
O433 C441 1.258 . S
O434 Co409 1.941 . S
O434 C441 1.266 . S
H435 C437 0.959 . S
H436 C437 0.961 . S
C437 C427 1.510 . S
C437 H435 0.959 . S
C437 H436 0.961 . S
C437 H438 0.960 . S
H438 C437 0.960 . S
H439 N419 0.862 . S
O440 Co408 1.920 1_565 S
O440 C413 1.289 . S
C441 O433 1.258 . S
C441 O434 1.266 . S
Co442 O445 1.970 . S
Co442 N459 1.989 . S
Co442 O467 1.967 . S
Co442 O474 1.920 . S
Co443 O446 1.966 . S
Co443 N452 2.022 . S
Co443 N460 1.993 1_655 S
Co443 O468 1.941 1_655 S
C444 O445 1.258 1_655 S
C444 O446 1.263 . S
O445 Co442 1.970 . S
O445 C444 1.258 1_455 S
O446 Co443 1.966 . S
O446 C444 1.263 . S
C447 O448 1.235 . S
C447 O474 1.289 . S
O448 C447 1.235 . S
C449 C451 1.400 . S
C449 N452 1.351 . S
C449 C454 1.501 . S
C450 C451 1.387 . S
C450 N453 1.341 . S
C451 C449 1.400 . S
C451 C450 1.387 . S
N452 Co443 2.022 . S
N452 C449 1.351 . S
N452 N453 1.365 . S
N453 C450 1.341 . S
N453 N452 1.365 . S
N453 H473 0.862 . S
C454 C449 1.501 . S
C454 H455 0.961 . S
C454 H456 0.961 . S
C454 H457 0.960 . S
H455 C454 0.961 . S
H456 C454 0.961 . S
H457 C454 0.960 . S
C458 N459 1.342 . S
C458 C462 1.401 . S
C458 C463 1.499 . S
N459 Co442 1.989 . S
N459 C458 1.342 . S
N459 N460 1.388 . S
N460 Co443 1.993 1_455 S
N460 N459 1.388 . S
N460 C461 1.346 . S
C461 N460 1.346 . S
C461 C462 1.396 . S
C461 C471 1.510 . S
C462 C458 1.401 . S
C462 C461 1.396 . S
C463 C458 1.499 . S
C463 H464 0.959 . S
C463 H465 0.960 . S
C463 H466 0.961 . S
H464 C463 0.959 . S
H465 C463 0.960 . S
H466 C463 0.961 . S
O467 Co442 1.967 . S
O467 C475 1.258 . S
O468 Co443 1.941 1_455 S
O468 C475 1.266 . S
H469 C471 0.959 . S
H470 C471 0.961 . S
C471 C461 1.510 . S
C471 H469 0.959 . S
C471 H470 0.961 . S
C471 H472 0.960 . S
H472 C471 0.960 . S
H473 N453 0.862 . S
O474 Co442 1.920 . S
O474 C447 1.289 . S
C475 O467 1.258 . S
C475 O468 1.266 . S
Co476 O479 1.970 . S
Co476 N493 1.989 . S
Co476 O501 1.967 . S
Co476 O508 1.920 . S
Co477 O480 1.966 . S
Co477 N486 2.022 . S
Co477 N494 1.993 1_565 S
Co477 O502 1.941 1_565 S
C478 O479 1.258 1_565 S
C478 O480 1.263 . S
O479 Co476 1.970 . S
O479 C478 1.258 1_545 S
O480 Co477 1.966 . S
O480 C478 1.263 . S
C481 O482 1.235 . S
C481 O508 1.289 . S
O482 C481 1.235 . S
C483 C485 1.400 . S
C483 N486 1.351 . S
C483 C488 1.501 . S
C484 C485 1.387 . S
C484 N487 1.341 . S
C485 C483 1.400 . S
C485 C484 1.387 . S
N486 Co477 2.022 . S
N486 C483 1.351 . S
N486 N487 1.365 . S
N487 C484 1.341 . S
N487 N486 1.365 . S
N487 H507 0.862 . S
C488 C483 1.501 . S
C488 H489 0.961 . S
C488 H490 0.961 . S
C488 H491 0.960 . S
H489 C488 0.961 . S
H490 C488 0.961 . S
H491 C488 0.960 . S
C492 N493 1.342 . S
C492 C496 1.401 . S
C492 C497 1.499 . S
N493 Co476 1.989 . S
N493 C492 1.342 . S
N493 N494 1.388 . S
N494 Co477 1.993 1_545 S
N494 N493 1.388 . S
N494 C495 1.346 . S
C495 N494 1.346 . S
C495 C496 1.396 . S
C495 C505 1.510 . S
C496 C492 1.401 . S
C496 C495 1.396 . S
C497 C492 1.499 . S
C497 H498 0.959 . S
C497 H499 0.960 . S
C497 H500 0.961 . S
H498 C497 0.959 . S
H499 C497 0.960 . S
H500 C497 0.961 . S
O501 Co476 1.967 . S
O501 C509 1.258 . S
O502 Co477 1.941 1_545 S
O502 C509 1.266 . S
H503 C505 0.959 . S
H504 C505 0.961 . S
C505 C495 1.510 . S
C505 H503 0.959 . S
C505 H504 0.961 . S
C505 H506 0.960 . S
H506 C505 0.960 . S
H507 N487 0.862 . S
O508 Co476 1.920 . S
O508 C481 1.289 . S
C509 O501 1.258 . S
C509 O502 1.266 . S
Co510 O513 1.970 . S
Co510 N527 1.989 . S
Co510 O535 1.967 . S
Co510 O542 1.920 1_455 S
Co511 O514 1.966 . S
Co511 N520 2.022 . S
Co511 N528 1.993 . S
Co511 O536 1.941 . S
C512 O513 1.258 . S
C512 O514 1.263 . S
O513 Co510 1.970 . S
O513 C512 1.258 . S
O514 Co511 1.966 . S
O514 C512 1.263 . S
C515 O516 1.235 . S
C515 O542 1.289 . S
O516 C515 1.235 . S
C517 C519 1.400 . S
C517 N520 1.351 . S
C517 C522 1.501 . S
C518 C519 1.387 . S
C518 N521 1.341 . S
C519 C517 1.400 . S
C519 C518 1.387 . S
N520 Co511 2.022 . S
N520 C517 1.351 . S
N520 N521 1.365 . S
N521 C518 1.341 . S
N521 N520 1.365 . S
N521 H541 0.862 . S
C522 C517 1.501 . S
C522 H523 0.961 . S
C522 H524 0.961 . S
C522 H525 0.960 . S
H523 C522 0.961 . S
H524 C522 0.961 . S
H525 C522 0.960 . S
C526 N527 1.342 1_655 S
C526 C530 1.401 . S
C526 C531 1.499 . S
N527 Co510 1.989 . S
N527 C526 1.342 1_455 S
N527 N528 1.388 . S
N528 Co511 1.993 . S
N528 N527 1.388 . S
N528 C529 1.346 . S
C529 N528 1.346 . S
C529 C530 1.396 1_455 S
C529 C539 1.510 . S
C530 C526 1.401 . S
C530 C529 1.396 1_655 S
C531 C526 1.499 . S
C531 H532 0.959 . S
C531 H533 0.960 . S
C531 H534 0.961 . S
H532 C531 0.959 . S
H533 C531 0.960 . S
H534 C531 0.961 . S
O535 Co510 1.967 . S
O535 C543 1.258 . S
O536 Co511 1.941 . S
O536 C543 1.266 . S
H537 C539 0.959 . S
H538 C539 0.961 . S
C539 C529 1.510 . S
C539 H537 0.959 . S
C539 H538 0.961 . S
C539 H540 0.960 . S
H540 C539 0.960 . S
H541 N521 0.862 . S
O542 Co510 1.920 1_655 S
O542 C515 1.289 . S
C543 O535 1.258 . S
C543 O536 1.266 . S
Co544 O547 1.970 . S
Co544 N561 1.989 . S
Co544 O569 1.967 . S
Co544 O576 1.920 . S
Co545 O548 1.966 . S
Co545 N554 2.022 . S
Co545 N562 1.993 1_556 S
Co545 O570 1.941 1_556 S
C546 O547 1.258 1_556 S
C546 O548 1.263 . S
O547 Co544 1.970 . S
O547 C546 1.258 1_554 S
O548 Co545 1.966 . S
O548 C546 1.263 . S
C549 O550 1.235 . S
C549 O576 1.289 . S
O550 C549 1.235 . S
C551 C553 1.400 . S
C551 N554 1.351 . S
C551 C556 1.501 . S
C552 C553 1.387 . S
C552 N555 1.341 . S
C553 C551 1.400 . S
C553 C552 1.387 . S
N554 Co545 2.022 . S
N554 C551 1.351 . S
N554 N555 1.365 . S
N555 C552 1.341 . S
N555 N554 1.365 . S
N555 H575 0.862 . S
C556 C551 1.501 . S
C556 H557 0.961 . S
C556 H558 0.961 . S
C556 H559 0.960 . S
H557 C556 0.961 . S
H558 C556 0.961 . S
H559 C556 0.960 . S
C560 N561 1.342 . S
C560 C564 1.401 . S
C560 C565 1.499 . S
N561 Co544 1.989 . S
N561 C560 1.342 . S
N561 N562 1.388 . S
N562 Co545 1.993 1_554 S
N562 N561 1.388 . S
N562 C563 1.346 . S
C563 N562 1.346 . S
C563 C564 1.396 . S
C563 C573 1.510 . S
C564 C560 1.401 . S
C564 C563 1.396 . S
C565 C560 1.499 . S
C565 H566 0.959 . S
C565 H567 0.960 . S
C565 H568 0.961 . S
H566 C565 0.959 . S
H567 C565 0.960 . S
H568 C565 0.961 . S
O569 Co544 1.967 . S
O569 C577 1.258 . S
O570 Co545 1.941 1_554 S
O570 C577 1.266 . S
H571 C573 0.959 . S
H572 C573 0.961 . S
C573 C563 1.510 . S
C573 H571 0.959 . S
C573 H572 0.961 . S
C573 H574 0.960 . S
H574 C573 0.960 . S
H575 N555 0.862 . S
O576 Co544 1.920 . S
O576 C549 1.289 . S
C577 O569 1.258 . S
C577 O570 1.266 . S
Co578 O581 1.970 . S
Co578 N595 1.989 . S
Co578 O603 1.967 . S
Co578 O610 1.920 1_554 S
Co579 O582 1.966 . S
Co579 N588 2.022 . S
Co579 N596 1.993 . S
Co579 O604 1.941 . S
C580 O581 1.258 . S
C580 O582 1.263 . S
O581 Co578 1.970 . S
O581 C580 1.258 . S
O582 Co579 1.966 . S
O582 C580 1.263 . S
C583 O584 1.235 . S
C583 O610 1.289 . S
O584 C583 1.235 . S
C585 C587 1.400 . S
C585 N588 1.351 . S
C585 C590 1.501 . S
C586 C587 1.387 . S
C586 N589 1.341 . S
C587 C585 1.400 . S
C587 C586 1.387 . S
N588 Co579 2.022 . S
N588 C585 1.351 . S
N588 N589 1.365 . S
N589 C586 1.341 . S
N589 N588 1.365 . S
N589 H609 0.862 . S
C590 C585 1.501 . S
C590 H591 0.961 . S
C590 H592 0.961 . S
C590 H593 0.960 . S
H591 C590 0.961 . S
H592 C590 0.961 . S
H593 C590 0.960 . S
C594 N595 1.342 1_556 S
C594 C598 1.401 . S
C594 C599 1.499 . S
N595 Co578 1.989 . S
N595 C594 1.342 1_554 S
N595 N596 1.388 . S
N596 Co579 1.993 . S
N596 N595 1.388 . S
N596 C597 1.346 . S
C597 N596 1.346 . S
C597 C598 1.396 1_554 S
C597 C607 1.510 . S
C598 C594 1.401 . S
C598 C597 1.396 1_556 S
C599 C594 1.499 . S
C599 H600 0.959 . S
C599 H601 0.960 . S
C599 H602 0.961 . S
H600 C599 0.959 . S
H601 C599 0.960 . S
H602 C599 0.961 . S
O603 Co578 1.967 . S
O603 C611 1.258 . S
O604 Co579 1.941 . S
O604 C611 1.266 . S
H605 C607 0.959 . S
H606 C607 0.961 . S
C607 C597 1.510 . S
C607 H605 0.959 . S
C607 H606 0.961 . S
C607 H608 0.960 . S
H608 C607 0.960 . S
H609 N589 0.862 . S
O610 Co578 1.920 1_556 S
O610 C583 1.289 . S
C611 O603 1.258 . S
C611 O604 1.266 . S
Co612 O615 1.970 . S
Co612 N629 1.989 . S
Co612 O637 1.967 . S
Co612 O644 1.920 1_554 S
Co613 O616 1.966 . S
Co613 N622 2.022 . S
Co613 N630 1.993 . S
Co613 O638 1.941 . S
C614 O615 1.258 . S
C614 O616 1.263 . S
O615 Co612 1.970 . S
O615 C614 1.258 . S
O616 Co613 1.966 . S
O616 C614 1.263 . S
C617 O618 1.235 . S
C617 O644 1.289 . S
O618 C617 1.235 . S
C619 C621 1.400 . S
C619 N622 1.351 . S
C619 C624 1.501 . S
C620 C621 1.387 . S
C620 N623 1.341 . S
C621 C619 1.400 . S
C621 C620 1.387 . S
N622 Co613 2.022 . S
N622 C619 1.351 . S
N622 N623 1.365 . S
N623 C620 1.341 . S
N623 N622 1.365 . S
N623 H643 0.862 . S
C624 C619 1.501 . S
C624 H625 0.961 . S
C624 H626 0.961 . S
C624 H627 0.960 . S
H625 C624 0.961 . S
H626 C624 0.961 . S
H627 C624 0.960 . S
C628 N629 1.342 1_556 S
C628 C632 1.401 . S
C628 C633 1.499 . S
N629 Co612 1.989 . S
N629 C628 1.342 1_554 S
N629 N630 1.388 . S
N630 Co613 1.993 . S
N630 N629 1.388 . S
N630 C631 1.346 . S
C631 N630 1.346 . S
C631 C632 1.396 1_554 S
C631 C641 1.510 . S
C632 C628 1.401 . S
C632 C631 1.396 1_556 S
C633 C628 1.499 . S
C633 H634 0.959 . S
C633 H635 0.960 . S
C633 H636 0.961 . S
H634 C633 0.959 . S
H635 C633 0.960 . S
H636 C633 0.961 . S
O637 Co612 1.967 . S
O637 C645 1.258 . S
O638 Co613 1.941 . S
O638 C645 1.266 . S
H639 C641 0.959 . S
H640 C641 0.961 . S
C641 C631 1.510 . S
C641 H639 0.959 . S
C641 H640 0.961 . S
C641 H642 0.960 . S
H642 C641 0.960 . S
H643 N623 0.862 . S
O644 Co612 1.920 1_556 S
O644 C617 1.289 . S
C645 O637 1.258 . S
C645 O638 1.266 . S
Co646 O649 1.970 . S
Co646 N663 1.989 . S
Co646 O671 1.967 . S
Co646 O678 1.920 1_554 S
Co647 O650 1.966 . S
Co647 N656 2.022 . S
Co647 N664 1.993 . S
Co647 O672 1.941 . S
C648 O649 1.258 . S
C648 O650 1.263 . S
O649 Co646 1.970 . S
O649 C648 1.258 . S
O650 Co647 1.966 . S
O650 C648 1.263 . S
C651 O652 1.235 . S
C651 O678 1.289 . S
O652 C651 1.235 . S
C653 C655 1.400 . S
C653 N656 1.351 . S
C653 C658 1.501 . S
C654 C655 1.387 . S
C654 N657 1.341 . S
C655 C653 1.400 . S
C655 C654 1.387 . S
N656 Co647 2.022 . S
N656 C653 1.351 . S
N656 N657 1.365 . S
N657 C654 1.341 . S
N657 N656 1.365 . S
N657 H677 0.862 . S
C658 C653 1.501 . S
C658 H659 0.961 . S
C658 H660 0.961 . S
C658 H661 0.960 . S
H659 C658 0.961 . S
H660 C658 0.961 . S
H661 C658 0.960 . S
C662 N663 1.342 1_556 S
C662 C666 1.401 . S
C662 C667 1.499 . S
N663 Co646 1.989 . S
N663 C662 1.342 1_554 S
N663 N664 1.388 . S
N664 Co647 1.993 . S
N664 N663 1.388 . S
N664 C665 1.346 . S
C665 N664 1.346 . S
C665 C666 1.396 1_554 S
C665 C675 1.510 . S
C666 C662 1.401 . S
C666 C665 1.396 1_556 S
C667 C662 1.499 . S
C667 H668 0.959 . S
C667 H669 0.960 . S
C667 H670 0.961 . S
H668 C667 0.959 . S
H669 C667 0.960 . S
H670 C667 0.961 . S
O671 Co646 1.967 . S
O671 C679 1.258 . S
O672 Co647 1.941 . S
O672 C679 1.266 . S
H673 C675 0.959 . S
H674 C675 0.961 . S
C675 C665 1.510 . S
C675 H673 0.959 . S
C675 H674 0.961 . S
C675 H676 0.960 . S
H676 C675 0.960 . S
H677 N657 0.862 . S
O678 Co646 1.920 1_556 S
O678 C651 1.289 . S
C679 O671 1.258 . S
C679 O672 1.266 . S
Co680 O683 1.970 . S
Co680 N697 1.989 . S
Co680 O705 1.967 . S
Co680 O712 1.920 1_554 S
Co681 O684 1.966 . S
Co681 N690 2.022 . S
Co681 N698 1.993 . S
Co681 O706 1.941 . S
C682 O683 1.258 . S
C682 O684 1.263 . S
O683 Co680 1.970 . S
O683 C682 1.258 . S
O684 Co681 1.966 . S
O684 C682 1.263 . S
C685 O686 1.235 . S
C685 O712 1.289 . S
O686 C685 1.235 . S
C687 C689 1.400 . S
C687 N690 1.351 . S
C687 C692 1.501 . S
C688 C689 1.387 . S
C688 N691 1.341 . S
C689 C687 1.400 . S
C689 C688 1.387 . S
N690 Co681 2.022 . S
N690 C687 1.351 . S
N690 N691 1.365 . S
N691 C688 1.341 . S
N691 N690 1.365 . S
N691 H711 0.862 . S
C692 C687 1.501 . S
C692 H693 0.961 . S
C692 H694 0.961 . S
C692 H695 0.960 . S
H693 C692 0.961 . S
H694 C692 0.961 . S
H695 C692 0.960 . S
C696 N697 1.342 1_556 S
C696 C700 1.401 . S
C696 C701 1.499 . S
N697 Co680 1.989 . S
N697 C696 1.342 1_554 S
N697 N698 1.388 . S
N698 Co681 1.993 . S
N698 N697 1.388 . S
N698 C699 1.346 . S
C699 N698 1.346 . S
C699 C700 1.396 1_554 S
C699 C709 1.510 . S
C700 C696 1.401 . S
C700 C699 1.396 1_556 S
C701 C696 1.499 . S
C701 H702 0.959 . S
C701 H703 0.960 . S
C701 H704 0.961 . S
H702 C701 0.959 . S
H703 C701 0.960 . S
H704 C701 0.961 . S
O705 Co680 1.967 . S
O705 C713 1.258 . S
O706 Co681 1.941 . S
O706 C713 1.266 . S
H707 C709 0.959 . S
H708 C709 0.961 . S
C709 C699 1.510 . S
C709 H707 0.959 . S
C709 H708 0.961 . S
C709 H710 0.960 . S
H710 C709 0.960 . S
H711 N691 0.862 . S
O712 Co680 1.920 1_556 S
O712 C685 1.289 . S
C713 O705 1.258 . S
C713 O706 1.266 . S
Co714 O717 1.970 . S
Co714 N731 1.989 . S
Co714 O739 1.967 . S
Co714 O746 1.920 . S
Co715 O718 1.966 . S
Co715 N724 2.022 . S
Co715 N732 1.993 1_556 S
Co715 O740 1.941 1_556 S
C716 O717 1.258 1_556 S
C716 O718 1.263 . S
O717 Co714 1.970 . S
O717 C716 1.258 1_554 S
O718 Co715 1.966 . S
O718 C716 1.263 . S
C719 O720 1.235 . S
C719 O746 1.289 . S
O720 C719 1.235 . S
C721 C723 1.400 . S
C721 N724 1.351 . S
C721 C726 1.501 . S
C722 C723 1.387 . S
C722 N725 1.341 . S
C723 C721 1.400 . S
C723 C722 1.387 . S
N724 Co715 2.022 . S
N724 C721 1.351 . S
N724 N725 1.365 . S
N725 C722 1.341 . S
N725 N724 1.365 . S
N725 H745 0.862 . S
C726 C721 1.501 . S
C726 H727 0.961 . S
C726 H728 0.961 . S
C726 H729 0.960 . S
H727 C726 0.961 . S
H728 C726 0.961 . S
H729 C726 0.960 . S
C730 N731 1.342 . S
C730 C734 1.401 . S
C730 C735 1.499 . S
N731 Co714 1.989 . S
N731 C730 1.342 . S
N731 N732 1.388 . S
N732 Co715 1.993 1_554 S
N732 N731 1.388 . S
N732 C733 1.346 . S
C733 N732 1.346 . S
C733 C734 1.396 . S
C733 C743 1.510 . S
C734 C730 1.401 . S
C734 C733 1.396 . S
C735 C730 1.499 . S
C735 H736 0.959 . S
C735 H737 0.960 . S
C735 H738 0.961 . S
H736 C735 0.959 . S
H737 C735 0.960 . S
H738 C735 0.961 . S
O739 Co714 1.967 . S
O739 C747 1.258 . S
O740 Co715 1.941 1_554 S
O740 C747 1.266 . S
H741 C743 0.959 . S
H742 C743 0.961 . S
C743 C733 1.510 . S
C743 H741 0.959 . S
C743 H742 0.961 . S
C743 H744 0.960 . S
H744 C743 0.960 . S
H745 N725 0.862 . S
O746 Co714 1.920 . S
O746 C719 1.289 . S
C747 O739 1.258 . S
C747 O740 1.266 . S
Co748 O751 1.970 . S
Co748 N765 1.989 . S
Co748 O773 1.967 . S
Co748 O780 1.920 . S
Co749 O752 1.966 . S
Co749 N758 2.022 . S
Co749 N766 1.993 1_556 S
Co749 O774 1.941 1_556 S
C750 O751 1.258 1_556 S
C750 O752 1.263 . S
O751 Co748 1.970 . S
O751 C750 1.258 1_554 S
O752 Co749 1.966 . S
O752 C750 1.263 . S
C753 O754 1.235 . S
C753 O780 1.289 . S
O754 C753 1.235 . S
C755 C757 1.400 . S
C755 N758 1.351 . S
C755 C760 1.501 . S
C756 C757 1.387 . S
C756 N759 1.341 . S
C757 C755 1.400 . S
C757 C756 1.387 . S
N758 Co749 2.022 . S
N758 C755 1.351 . S
N758 N759 1.365 . S
N759 C756 1.341 . S
N759 N758 1.365 . S
N759 H779 0.862 . S
C760 C755 1.501 . S
C760 H761 0.961 . S
C760 H762 0.961 . S
C760 H763 0.960 . S
H761 C760 0.961 . S
H762 C760 0.961 . S
H763 C760 0.960 . S
C764 N765 1.342 . S
C764 C768 1.401 . S
C764 C769 1.499 . S
N765 Co748 1.989 . S
N765 C764 1.342 . S
N765 N766 1.388 . S
N766 Co749 1.993 1_554 S
N766 N765 1.388 . S
N766 C767 1.346 . S
C767 N766 1.346 . S
C767 C768 1.396 . S
C767 C777 1.510 . S
C768 C764 1.401 . S
C768 C767 1.396 . S
C769 C764 1.499 . S
C769 H770 0.959 . S
C769 H771 0.960 . S
C769 H772 0.961 . S
H770 C769 0.959 . S
H771 C769 0.960 . S
H772 C769 0.961 . S
O773 Co748 1.967 . S
O773 C781 1.258 . S
O774 Co749 1.941 1_554 S
O774 C781 1.266 . S
H775 C777 0.959 . S
H776 C777 0.961 . S
C777 C767 1.510 . S
C777 H775 0.959 . S
C777 H776 0.961 . S
C777 H778 0.960 . S
H778 C777 0.960 . S
H779 N759 0.862 . S
O780 Co748 1.920 . S
O780 C753 1.289 . S
C781 O773 1.258 . S
C781 O774 1.266 . S
Co782 O785 1.970 . S
Co782 N799 1.989 . S
Co782 O807 1.967 . S
Co782 O814 1.920 . S
Co783 O786 1.966 . S
Co783 N792 2.022 . S
Co783 N800 1.993 1_556 S
Co783 O808 1.941 1_556 S
C784 O785 1.258 1_556 S
C784 O786 1.263 . S
O785 Co782 1.970 . S
O785 C784 1.258 1_554 S
O786 Co783 1.966 . S
O786 C784 1.263 . S
C787 O788 1.235 . S
C787 O814 1.289 . S
O788 C787 1.235 . S
C789 C791 1.400 . S
C789 N792 1.351 . S
C789 C794 1.501 . S
C790 C791 1.387 . S
C790 N793 1.341 . S
C791 C789 1.400 . S
C791 C790 1.387 . S
N792 Co783 2.022 . S
N792 C789 1.351 . S
N792 N793 1.365 . S
N793 C790 1.341 . S
N793 N792 1.365 . S
N793 H813 0.862 . S
C794 C789 1.501 . S
C794 H795 0.961 . S
C794 H796 0.961 . S
C794 H797 0.960 . S
H795 C794 0.961 . S
H796 C794 0.961 . S
H797 C794 0.960 . S
C798 N799 1.342 . S
C798 C802 1.401 . S
C798 C803 1.499 . S
N799 Co782 1.989 . S
N799 C798 1.342 . S
N799 N800 1.388 . S
N800 Co783 1.993 1_554 S
N800 N799 1.388 . S
N800 C801 1.346 . S
C801 N800 1.346 . S
C801 C802 1.396 . S
C801 C811 1.510 . S
C802 C798 1.401 . S
C802 C801 1.396 . S
C803 C798 1.499 . S
C803 H804 0.959 . S
C803 H805 0.960 . S
C803 H806 0.961 . S
H804 C803 0.959 . S
H805 C803 0.960 . S
H806 C803 0.961 . S
O807 Co782 1.967 . S
O807 C815 1.258 . S
O808 Co783 1.941 1_554 S
O808 C815 1.266 . S
H809 C811 0.959 . S
H810 C811 0.961 . S
C811 C801 1.510 . S
C811 H809 0.959 . S
C811 H810 0.961 . S
C811 H812 0.960 . S
H812 C811 0.960 . S
H813 N793 0.862 . S
O814 Co782 1.920 . S
O814 C787 1.289 . S
C815 O807 1.258 . S
C815 O808 1.266 . S
Co816 O819 1.970 . S
Co816 N833 1.989 . S
Co816 O841 1.967 . S
Co816 O848 1.920 . S
Co817 O820 1.966 . S
Co817 N826 2.022 . S
Co817 N834 1.993 . S
Co817 O842 1.941 . S
C818 O819 1.258 . S
C818 O820 1.263 . S
O819 Co816 1.970 . S
O819 C818 1.258 . S
O820 Co817 1.966 . S
O820 C818 1.263 . S
C821 O822 1.235 . S
C821 O848 1.289 . S
O822 C821 1.235 . S
C823 C825 1.400 . S
C823 N826 1.351 . S
C823 C828 1.501 . S
C824 C825 1.387 . S
C824 N827 1.341 . S
C825 C823 1.400 . S
C825 C824 1.387 . S
N826 Co817 2.022 . S
N826 C823 1.351 . S
N826 N827 1.365 . S
N827 C824 1.341 . S
N827 N826 1.365 . S
N827 H847 0.862 . S
C828 C823 1.501 . S
C828 H829 0.961 . S
C828 H830 0.961 . S
C828 H831 0.960 . S
H829 C828 0.961 . S
H830 C828 0.961 . S
H831 C828 0.960 . S
C832 N833 1.342 . S
C832 C836 1.401 . S
C832 C837 1.499 . S
N833 Co816 1.989 . S
N833 C832 1.342 . S
N833 N834 1.388 . S
N834 Co817 1.993 . S
N834 N833 1.388 . S
N834 C835 1.346 . S
C835 N834 1.346 . S
C835 C836 1.396 . S
C835 C845 1.510 . S
C836 C832 1.401 . S
C836 C835 1.396 . S
C837 C832 1.499 . S
C837 H838 0.959 . S
C837 H839 0.960 . S
C837 H840 0.961 . S
H838 C837 0.959 . S
H839 C837 0.960 . S
H840 C837 0.961 . S
O841 Co816 1.967 . S
O841 C849 1.258 . S
O842 Co817 1.941 . S
O842 C849 1.266 . S
H843 C845 0.959 . S
H844 C845 0.961 . S
C845 C835 1.510 . S
C845 H843 0.959 . S
C845 H844 0.961 . S
C845 H846 0.960 . S
H846 C845 0.960 . S
H847 N827 0.862 . S
O848 Co816 1.920 . S
O848 C821 1.289 . S
C849 O841 1.258 . S
C849 O842 1.266 . S
Co850 O853 1.970 . S
Co850 N867 1.989 . S
Co850 O875 1.967 . S
Co850 O882 1.920 . S
Co851 O854 1.966 . S
Co851 N860 2.022 . S
Co851 N868 1.993 . S
Co851 O876 1.941 . S
C852 O853 1.258 . S
C852 O854 1.263 . S
O853 Co850 1.970 . S
O853 C852 1.258 . S
O854 Co851 1.966 . S
O854 C852 1.263 . S
C855 O856 1.235 . S
C855 O882 1.289 . S
O856 C855 1.235 . S
C857 C859 1.400 . S
C857 N860 1.351 . S
C857 C862 1.501 . S
C858 C859 1.387 . S
C858 N861 1.341 . S
C859 C857 1.400 . S
C859 C858 1.387 . S
N860 Co851 2.022 . S
N860 C857 1.351 . S
N860 N861 1.365 . S
N861 C858 1.341 . S
N861 N860 1.365 . S
N861 H881 0.862 . S
C862 C857 1.501 . S
C862 H863 0.961 . S
C862 H864 0.961 . S
C862 H865 0.960 . S
H863 C862 0.961 . S
H864 C862 0.961 . S
H865 C862 0.960 . S
C866 N867 1.342 . S
C866 C870 1.401 . S
C866 C871 1.499 . S
N867 Co850 1.989 . S
N867 C866 1.342 . S
N867 N868 1.388 . S
N868 Co851 1.993 . S
N868 N867 1.388 . S
N868 C869 1.346 . S
C869 N868 1.346 . S
C869 C870 1.396 . S
C869 C879 1.510 . S
C870 C866 1.401 . S
C870 C869 1.396 . S
C871 C866 1.499 . S
C871 H872 0.959 . S
C871 H873 0.960 . S
C871 H874 0.961 . S
H872 C871 0.959 . S
H873 C871 0.960 . S
H874 C871 0.961 . S
O875 Co850 1.967 . S
O875 C883 1.258 . S
O876 Co851 1.941 . S
O876 C883 1.266 . S
H877 C879 0.959 . S
H878 C879 0.961 . S
C879 C869 1.510 . S
C879 H877 0.959 . S
C879 H878 0.961 . S
C879 H880 0.960 . S
H880 C879 0.960 . S
H881 N861 0.862 . S
O882 Co850 1.920 . S
O882 C855 1.289 . S
C883 O875 1.258 . S
C883 O876 1.266 . S
Co884 O887 1.970 . S
Co884 N901 1.989 . S
Co884 O909 1.967 . S
Co884 O916 1.920 . S
Co885 O888 1.966 . S
Co885 N894 2.022 . S
Co885 N902 1.993 . S
Co885 O910 1.941 . S
C886 O887 1.258 . S
C886 O888 1.263 . S
O887 Co884 1.970 . S
O887 C886 1.258 . S
O888 Co885 1.966 . S
O888 C886 1.263 . S
C889 O890 1.235 . S
C889 O916 1.289 . S
O890 C889 1.235 . S
C891 C893 1.400 . S
C891 N894 1.351 . S
C891 C896 1.501 . S
C892 C893 1.387 . S
C892 N895 1.341 . S
C893 C891 1.400 . S
C893 C892 1.387 . S
N894 Co885 2.022 . S
N894 C891 1.351 . S
N894 N895 1.365 . S
N895 C892 1.341 . S
N895 N894 1.365 . S
N895 H915 0.862 . S
C896 C891 1.501 . S
C896 H897 0.961 . S
C896 H898 0.961 . S
C896 H899 0.960 . S
H897 C896 0.961 . S
H898 C896 0.961 . S
H899 C896 0.960 . S
C900 N901 1.342 . S
C900 C904 1.401 . S
C900 C905 1.499 . S
N901 Co884 1.989 . S
N901 C900 1.342 . S
N901 N902 1.388 . S
N902 Co885 1.993 . S
N902 N901 1.388 . S
N902 C903 1.346 . S
C903 N902 1.346 . S
C903 C904 1.396 . S
C903 C913 1.510 . S
C904 C900 1.401 . S
C904 C903 1.396 . S
C905 C900 1.499 . S
C905 H906 0.959 . S
C905 H907 0.960 . S
C905 H908 0.961 . S
H906 C905 0.959 . S
H907 C905 0.960 . S
H908 C905 0.961 . S
O909 Co884 1.967 . S
O909 C917 1.258 . S
O910 Co885 1.941 . S
O910 C917 1.266 . S
H911 C913 0.959 . S
H912 C913 0.961 . S
C913 C903 1.510 . S
C913 H911 0.959 . S
C913 H912 0.961 . S
C913 H914 0.960 . S
H914 C913 0.960 . S
H915 N895 0.862 . S
O916 Co884 1.920 . S
O916 C889 1.289 . S
C917 O909 1.258 . S
C917 O910 1.266 . S
Co918 O921 1.970 . S
Co918 N935 1.989 . S
Co918 O943 1.967 . S
Co918 O950 1.920 . S
Co919 O922 1.966 . S
Co919 N928 2.022 . S
Co919 N936 1.993 . S
Co919 O944 1.941 . S
C920 O921 1.258 . S
C920 O922 1.263 . S
O921 Co918 1.970 . S
O921 C920 1.258 . S
O922 Co919 1.966 . S
O922 C920 1.263 . S
C923 O924 1.235 . S
C923 O950 1.289 . S
O924 C923 1.235 . S
C925 C927 1.400 . S
C925 N928 1.351 . S
C925 C930 1.501 . S
C926 C927 1.387 . S
C926 N929 1.341 . S
C927 C925 1.400 . S
C927 C926 1.387 . S
N928 Co919 2.022 . S
N928 C925 1.351 . S
N928 N929 1.365 . S
N929 C926 1.341 . S
N929 N928 1.365 . S
N929 H949 0.862 . S
C930 C925 1.501 . S
C930 H931 0.961 . S
C930 H932 0.961 . S
C930 H933 0.960 . S
H931 C930 0.961 . S
H932 C930 0.961 . S
H933 C930 0.960 . S
C934 N935 1.342 . S
C934 C938 1.401 . S
C934 C939 1.499 . S
N935 Co918 1.989 . S
N935 C934 1.342 . S
N935 N936 1.388 . S
N936 Co919 1.993 . S
N936 N935 1.388 . S
N936 C937 1.346 . S
C937 N936 1.346 . S
C937 C938 1.396 . S
C937 C947 1.510 . S
C938 C934 1.401 . S
C938 C937 1.396 . S
C939 C934 1.499 . S
C939 H940 0.959 . S
C939 H941 0.960 . S
C939 H942 0.961 . S
H940 C939 0.959 . S
H941 C939 0.960 . S
H942 C939 0.961 . S
O943 Co918 1.967 . S
O943 C951 1.258 . S
O944 Co919 1.941 . S
O944 C951 1.266 . S
H945 C947 0.959 . S
H946 C947 0.961 . S
C947 C937 1.510 . S
C947 H945 0.959 . S
C947 H946 0.961 . S
C947 H948 0.960 . S
H948 C947 0.960 . S
H949 N929 0.862 . S
O950 Co918 1.920 . S
O950 C923 1.289 . S
C951 O943 1.258 . S
C951 O944 1.266 . S
Co952 O955 1.970 . S
Co952 N969 1.989 . S
Co952 O977 1.967 . S
Co952 O984 1.920 . S
Co953 O956 1.966 . S
Co953 N962 2.022 . S
Co953 N970 1.993 . S
Co953 O978 1.941 . S
C954 O955 1.258 . S
C954 O956 1.263 . S
O955 Co952 1.970 . S
O955 C954 1.258 . S
O956 Co953 1.966 . S
O956 C954 1.263 . S
C957 O958 1.235 . S
C957 O984 1.289 . S
O958 C957 1.235 . S
C959 C961 1.400 . S
C959 N962 1.351 . S
C959 C964 1.501 . S
C960 C961 1.387 . S
C960 N963 1.341 . S
C961 C959 1.400 . S
C961 C960 1.387 . S
N962 Co953 2.022 . S
N962 C959 1.351 . S
N962 N963 1.365 . S
N963 C960 1.341 . S
N963 N962 1.365 . S
N963 H983 0.862 . S
C964 C959 1.501 . S
C964 H965 0.961 . S
C964 H966 0.961 . S
C964 H967 0.960 . S
H965 C964 0.961 . S
H966 C964 0.961 . S
H967 C964 0.960 . S
C968 N969 1.342 . S
C968 C972 1.401 . S
C968 C973 1.499 . S
N969 Co952 1.989 . S
N969 C968 1.342 . S
N969 N970 1.388 . S
N970 Co953 1.993 . S
N970 N969 1.388 . S
N970 C971 1.346 . S
C971 N970 1.346 . S
C971 C972 1.396 . S
C971 C981 1.510 . S
C972 C968 1.401 . S
C972 C971 1.396 . S
C973 C968 1.499 . S
C973 H974 0.959 . S
C973 H975 0.960 . S
C973 H976 0.961 . S
H974 C973 0.959 . S
H975 C973 0.960 . S
H976 C973 0.961 . S
O977 Co952 1.967 . S
O977 C985 1.258 . S
O978 Co953 1.941 . S
O978 C985 1.266 . S
H979 C981 0.959 . S
H980 C981 0.961 . S
C981 C971 1.510 . S
C981 H979 0.959 . S
C981 H980 0.961 . S
C981 H982 0.960 . S
H982 C981 0.960 . S
H983 N963 0.862 . S
O984 Co952 1.920 . S
O984 C957 1.289 . S
C985 O977 1.258 . S
C985 O978 1.266 . S
Co986 O989 1.970 . S
Co986 N1003 1.989 . S
Co986 O1011 1.967 . S
Co986 O1018 1.920 . S
Co987 O990 1.966 . S
Co987 N996 2.022 . S
Co987 N1004 1.993 . S
Co987 O1012 1.941 . S
C988 O989 1.258 . S
C988 O990 1.263 . S
O989 Co986 1.970 . S
O989 C988 1.258 . S
O990 Co987 1.966 . S
O990 C988 1.263 . S
C991 O992 1.235 . S
C991 O1018 1.289 . S
O992 C991 1.235 . S
C993 C995 1.400 . S
C993 N996 1.351 . S
C993 C998 1.501 . S
C994 C995 1.387 . S
C994 N997 1.341 . S
C995 C993 1.400 . S
C995 C994 1.387 . S
N996 Co987 2.022 . S
N996 C993 1.351 . S
N996 N997 1.365 . S
N997 C994 1.341 . S
N997 N996 1.365 . S
N997 H1017 0.862 . S
C998 C993 1.501 . S
C998 H999 0.961 . S
C998 H1000 0.961 . S
C998 H1001 0.960 . S
H999 C998 0.961 . S
H1000 C998 0.961 . S
H1001 C998 0.960 . S
C1002 N1003 1.342 . S
C1002 C1006 1.401 . S
C1002 C1007 1.499 . S
N1003 Co986 1.989 . S
N1003 C1002 1.342 . S
N1003 N1004 1.388 . S
N1004 Co987 1.993 . S
N1004 N1003 1.388 . S
N1004 C1005 1.346 . S
C1005 N1004 1.346 . S
C1005 C1006 1.396 . S
C1005 C1015 1.510 . S
C1006 C1002 1.401 . S
C1006 C1005 1.396 . S
C1007 C1002 1.499 . S
C1007 H1008 0.959 . S
C1007 H1009 0.960 . S
C1007 H1010 0.961 . S
H1008 C1007 0.959 . S
H1009 C1007 0.960 . S
H1010 C1007 0.961 . S
O1011 Co986 1.967 . S
O1011 C1019 1.258 . S
O1012 Co987 1.941 . S
O1012 C1019 1.266 . S
H1013 C1015 0.959 . S
H1014 C1015 0.961 . S
C1015 C1005 1.510 . S
C1015 H1013 0.959 . S
C1015 H1014 0.961 . S
C1015 H1016 0.960 . S
H1016 C1015 0.960 . S
H1017 N997 0.862 . S
O1018 Co986 1.920 . S
O1018 C991 1.289 . S
C1019 O1011 1.258 . S
C1019 O1012 1.266 . S
Co1020 O1023 1.970 . S
Co1020 N1037 1.989 . S
Co1020 O1045 1.967 . S
Co1020 O1052 1.920 . S
Co1021 O1024 1.966 . S
Co1021 N1030 2.022 . S
Co1021 N1038 1.993 . S
Co1021 O1046 1.941 . S
C1022 O1023 1.258 . S
C1022 O1024 1.263 . S
O1023 Co1020 1.970 . S
O1023 C1022 1.258 . S
O1024 Co1021 1.966 . S
O1024 C1022 1.263 . S
C1025 O1026 1.235 . S
C1025 O1052 1.289 . S
O1026 C1025 1.235 . S
C1027 C1029 1.400 . S
C1027 N1030 1.351 . S
C1027 C1032 1.501 . S
C1028 C1029 1.387 . S
C1028 N1031 1.341 . S
C1029 C1027 1.400 . S
C1029 C1028 1.387 . S
N1030 Co1021 2.022 . S
N1030 C1027 1.351 . S
N1030 N1031 1.365 . S
N1031 C1028 1.341 . S
N1031 N1030 1.365 . S
N1031 H1051 0.862 . S
C1032 C1027 1.501 . S
C1032 H1033 0.961 . S
C1032 H1034 0.961 . S
C1032 H1035 0.960 . S
H1033 C1032 0.961 . S
H1034 C1032 0.961 . S
H1035 C1032 0.960 . S
C1036 N1037 1.342 . S
C1036 C1040 1.401 . S
C1036 C1041 1.499 . S
N1037 Co1020 1.989 . S
N1037 C1036 1.342 . S
N1037 N1038 1.388 . S
N1038 Co1021 1.993 . S
N1038 N1037 1.388 . S
N1038 C1039 1.346 . S
C1039 N1038 1.346 . S
C1039 C1040 1.396 . S
C1039 C1049 1.510 . S
C1040 C1036 1.401 . S
C1040 C1039 1.396 . S
C1041 C1036 1.499 . S
C1041 H1042 0.959 . S
C1041 H1043 0.960 . S
C1041 H1044 0.961 . S
H1042 C1041 0.959 . S
H1043 C1041 0.960 . S
H1044 C1041 0.961 . S
O1045 Co1020 1.967 . S
O1045 C1053 1.258 . S
O1046 Co1021 1.941 . S
O1046 C1053 1.266 . S
H1047 C1049 0.959 . S
H1048 C1049 0.961 . S
C1049 C1039 1.510 . S
C1049 H1047 0.959 . S
C1049 H1048 0.961 . S
C1049 H1050 0.960 . S
H1050 C1049 0.960 . S
H1051 N1031 0.862 . S
O1052 Co1020 1.920 . S
O1052 C1025 1.289 . S
C1053 O1045 1.258 . S
C1053 O1046 1.266 . S
Co1054 O1057 1.970 . S
Co1054 N1071 1.989 . S
Co1054 O1079 1.967 . S
Co1054 O1086 1.920 . S
Co1055 O1058 1.966 . S
Co1055 N1064 2.022 . S
Co1055 N1072 1.993 . S
Co1055 O1080 1.941 . S
C1056 O1057 1.258 . S
C1056 O1058 1.263 . S
O1057 Co1054 1.970 . S
O1057 C1056 1.258 . S
O1058 Co1055 1.966 . S
O1058 C1056 1.263 . S
C1059 O1060 1.235 . S
C1059 O1086 1.289 . S
O1060 C1059 1.235 . S
C1061 C1063 1.400 . S
C1061 N1064 1.351 . S
C1061 C1066 1.501 . S
C1062 C1063 1.387 . S
C1062 N1065 1.341 . S
C1063 C1061 1.400 . S
C1063 C1062 1.387 . S
N1064 Co1055 2.022 . S
N1064 C1061 1.351 . S
N1064 N1065 1.365 . S
N1065 C1062 1.341 . S
N1065 N1064 1.365 . S
N1065 H1085 0.862 . S
C1066 C1061 1.501 . S
C1066 H1067 0.961 . S
C1066 H1068 0.961 . S
C1066 H1069 0.960 . S
H1067 C1066 0.961 . S
H1068 C1066 0.961 . S
H1069 C1066 0.960 . S
C1070 N1071 1.342 . S
C1070 C1074 1.401 . S
C1070 C1075 1.499 . S
N1071 Co1054 1.989 . S
N1071 C1070 1.342 . S
N1071 N1072 1.388 . S
N1072 Co1055 1.993 . S
N1072 N1071 1.388 . S
N1072 C1073 1.346 . S
C1073 N1072 1.346 . S
C1073 C1074 1.396 . S
C1073 C1083 1.510 . S
C1074 C1070 1.401 . S
C1074 C1073 1.396 . S
C1075 C1070 1.499 . S
C1075 H1076 0.959 . S
C1075 H1077 0.960 . S
C1075 H1078 0.961 . S
H1076 C1075 0.959 . S
H1077 C1075 0.960 . S
H1078 C1075 0.961 . S
O1079 Co1054 1.967 . S
O1079 C1087 1.258 . S
O1080 Co1055 1.941 . S
O1080 C1087 1.266 . S
H1081 C1083 0.959 . S
H1082 C1083 0.961 . S
C1083 C1073 1.510 . S
C1083 H1081 0.959 . S
C1083 H1082 0.961 . S
C1083 H1084 0.960 . S
H1084 C1083 0.960 . S
H1085 N1065 0.862 . S
O1086 Co1054 1.920 . S
O1086 C1059 1.289 . S
C1087 O1079 1.258 . S
C1087 O1080 1.266 . S
Co1088 O1091 1.970 . S
Co1088 N1105 1.989 . S
Co1088 O1113 1.967 . S
Co1088 O1120 1.920 . S
Co1089 O1092 1.966 . S
Co1089 N1098 2.022 . S
Co1089 N1106 1.993 . S
Co1089 O1114 1.941 . S
C1090 O1091 1.258 . S
C1090 O1092 1.263 . S
O1091 Co1088 1.970 . S
O1091 C1090 1.258 . S
O1092 Co1089 1.966 . S
O1092 C1090 1.263 . S
C1093 O1094 1.235 . S
C1093 O1120 1.289 . S
O1094 C1093 1.235 . S
C1095 C1097 1.400 . S
C1095 N1098 1.351 . S
C1095 C1100 1.501 . S
C1096 C1097 1.387 . S
C1096 N1099 1.341 . S
C1097 C1095 1.400 . S
C1097 C1096 1.387 . S
N1098 Co1089 2.022 . S
N1098 C1095 1.351 . S
N1098 N1099 1.365 . S
N1099 C1096 1.341 . S
N1099 N1098 1.365 . S
N1099 H1119 0.862 . S
C1100 C1095 1.501 . S
C1100 H1101 0.961 . S
C1100 H1102 0.961 . S
C1100 H1103 0.960 . S
H1101 C1100 0.961 . S
H1102 C1100 0.961 . S
H1103 C1100 0.960 . S
C1104 N1105 1.342 . S
C1104 C1108 1.401 . S
C1104 C1109 1.499 . S
N1105 Co1088 1.989 . S
N1105 C1104 1.342 . S
N1105 N1106 1.388 . S
N1106 Co1089 1.993 . S
N1106 N1105 1.388 . S
N1106 C1107 1.346 . S
C1107 N1106 1.346 . S
C1107 C1108 1.396 . S
C1107 C1117 1.510 . S
C1108 C1104 1.401 . S
C1108 C1107 1.396 . S
C1109 C1104 1.499 . S
C1109 H1110 0.959 . S
C1109 H1111 0.960 . S
C1109 H1112 0.961 . S
H1110 C1109 0.959 . S
H1111 C1109 0.960 . S
H1112 C1109 0.961 . S
O1113 Co1088 1.967 . S
O1113 C1121 1.258 . S
O1114 Co1089 1.941 . S
O1114 C1121 1.266 . S
H1115 C1117 0.959 . S
H1116 C1117 0.961 . S
C1117 C1107 1.510 . S
C1117 H1115 0.959 . S
C1117 H1116 0.961 . S
C1117 H1118 0.960 . S
H1118 C1117 0.960 . S
H1119 N1099 0.862 . S
O1120 Co1088 1.920 . S
O1120 C1093 1.289 . S
C1121 O1113 1.258 . S
C1121 O1114 1.266 . S
Co1122 O1125 1.970 . S
Co1122 N1139 1.989 . S
Co1122 O1147 1.967 . S
Co1122 O1154 1.920 . S
Co1123 O1126 1.966 . S
Co1123 N1132 2.022 . S
Co1123 N1140 1.993 . S
Co1123 O1148 1.941 . S
C1124 O1125 1.258 . S
C1124 O1126 1.263 . S
O1125 Co1122 1.970 . S
O1125 C1124 1.258 . S
O1126 Co1123 1.966 . S
O1126 C1124 1.263 . S
C1127 O1128 1.235 . S
C1127 O1154 1.289 . S
O1128 C1127 1.235 . S
C1129 C1131 1.400 . S
C1129 N1132 1.351 . S
C1129 C1134 1.501 . S
C1130 C1131 1.387 . S
C1130 N1133 1.341 . S
C1131 C1129 1.400 . S
C1131 C1130 1.387 . S
N1132 Co1123 2.022 . S
N1132 C1129 1.351 . S
N1132 N1133 1.365 . S
N1133 C1130 1.341 . S
N1133 N1132 1.365 . S
N1133 H1153 0.862 . S
C1134 C1129 1.501 . S
C1134 H1135 0.961 . S
C1134 H1136 0.961 . S
C1134 H1137 0.960 . S
H1135 C1134 0.961 . S
H1136 C1134 0.961 . S
H1137 C1134 0.960 . S
C1138 N1139 1.342 . S
C1138 C1142 1.401 . S
C1138 C1143 1.499 . S
N1139 Co1122 1.989 . S
N1139 C1138 1.342 . S
N1139 N1140 1.388 . S
N1140 Co1123 1.993 . S
N1140 N1139 1.388 . S
N1140 C1141 1.346 . S
C1141 N1140 1.346 . S
C1141 C1142 1.396 . S
C1141 C1151 1.510 . S
C1142 C1138 1.401 . S
C1142 C1141 1.396 . S
C1143 C1138 1.499 . S
C1143 H1144 0.959 . S
C1143 H1145 0.960 . S
C1143 H1146 0.961 . S
H1144 C1143 0.959 . S
H1145 C1143 0.960 . S
H1146 C1143 0.961 . S
O1147 Co1122 1.967 . S
O1147 C1155 1.258 . S
O1148 Co1123 1.941 . S
O1148 C1155 1.266 . S
H1149 C1151 0.959 . S
H1150 C1151 0.961 . S
C1151 C1141 1.510 . S
C1151 H1149 0.959 . S
C1151 H1150 0.961 . S
C1151 H1152 0.960 . S
H1152 C1151 0.960 . S
H1153 N1133 0.862 . S
O1154 Co1122 1.920 . S
O1154 C1127 1.289 . S
C1155 O1147 1.258 . S
C1155 O1148 1.266 . S
Co1156 O1159 1.970 . S
Co1156 N1173 1.989 . S
Co1156 O1181 1.967 . S
Co1156 O1188 1.920 . S
Co1157 O1160 1.966 . S
Co1157 N1166 2.022 . S
Co1157 N1174 1.993 . S
Co1157 O1182 1.941 . S
C1158 O1159 1.258 . S
C1158 O1160 1.263 . S
O1159 Co1156 1.970 . S
O1159 C1158 1.258 . S
O1160 Co1157 1.966 . S
O1160 C1158 1.263 . S
C1161 O1162 1.235 . S
C1161 O1188 1.289 . S
O1162 C1161 1.235 . S
C1163 C1165 1.400 . S
C1163 N1166 1.351 . S
C1163 C1168 1.501 . S
C1164 C1165 1.387 . S
C1164 N1167 1.341 . S
C1165 C1163 1.400 . S
C1165 C1164 1.387 . S
N1166 Co1157 2.022 . S
N1166 C1163 1.351 . S
N1166 N1167 1.365 . S
N1167 C1164 1.341 . S
N1167 N1166 1.365 . S
N1167 H1187 0.862 . S
C1168 C1163 1.501 . S
C1168 H1169 0.961 . S
C1168 H1170 0.961 . S
C1168 H1171 0.960 . S
H1169 C1168 0.961 . S
H1170 C1168 0.961 . S
H1171 C1168 0.960 . S
C1172 N1173 1.342 . S
C1172 C1176 1.401 . S
C1172 C1177 1.499 . S
N1173 Co1156 1.989 . S
N1173 C1172 1.342 . S
N1173 N1174 1.388 . S
N1174 Co1157 1.993 . S
N1174 N1173 1.388 . S
N1174 C1175 1.346 . S
C1175 N1174 1.346 . S
C1175 C1176 1.396 . S
C1175 C1185 1.510 . S
C1176 C1172 1.401 . S
C1176 C1175 1.396 . S
C1177 C1172 1.499 . S
C1177 H1178 0.959 . S
C1177 H1179 0.960 . S
C1177 H1180 0.961 . S
H1178 C1177 0.959 . S
H1179 C1177 0.960 . S
H1180 C1177 0.961 . S
O1181 Co1156 1.967 . S
O1181 C1189 1.258 . S
O1182 Co1157 1.941 . S
O1182 C1189 1.266 . S
H1183 C1185 0.959 . S
H1184 C1185 0.961 . S
C1185 C1175 1.510 . S
C1185 H1183 0.959 . S
C1185 H1184 0.961 . S
C1185 H1186 0.960 . S
H1186 C1185 0.960 . S
H1187 N1167 0.862 . S
O1188 Co1156 1.920 . S
O1188 C1161 1.289 . S
C1189 O1181 1.258 . S
C1189 O1182 1.266 . S
Co1190 O1193 1.970 . S
Co1190 N1207 1.989 . S
Co1190 O1215 1.967 . S
Co1190 O1222 1.920 . S
Co1191 O1194 1.966 . S
Co1191 N1200 2.022 . S
Co1191 N1208 1.993 . S
Co1191 O1216 1.941 . S
C1192 O1193 1.258 . S
C1192 O1194 1.263 . S
O1193 Co1190 1.970 . S
O1193 C1192 1.258 . S
O1194 Co1191 1.966 . S
O1194 C1192 1.263 . S
C1195 O1196 1.235 . S
C1195 O1222 1.289 . S
O1196 C1195 1.235 . S
C1197 C1199 1.400 . S
C1197 N1200 1.351 . S
C1197 C1202 1.501 . S
C1198 C1199 1.387 . S
C1198 N1201 1.341 . S
C1199 C1197 1.400 . S
C1199 C1198 1.387 . S
N1200 Co1191 2.022 . S
N1200 C1197 1.351 . S
N1200 N1201 1.365 . S
N1201 C1198 1.341 . S
N1201 N1200 1.365 . S
N1201 H1221 0.862 . S
C1202 C1197 1.501 . S
C1202 H1203 0.961 . S
C1202 H1204 0.961 . S
C1202 H1205 0.960 . S
H1203 C1202 0.961 . S
H1204 C1202 0.961 . S
H1205 C1202 0.960 . S
C1206 N1207 1.342 . S
C1206 C1210 1.401 . S
C1206 C1211 1.499 . S
N1207 Co1190 1.989 . S
N1207 C1206 1.342 . S
N1207 N1208 1.388 . S
N1208 Co1191 1.993 . S
N1208 N1207 1.388 . S
N1208 C1209 1.346 . S
C1209 N1208 1.346 . S
C1209 C1210 1.396 . S
C1209 C1219 1.510 . S
C1210 C1206 1.401 . S
C1210 C1209 1.396 . S
C1211 C1206 1.499 . S
C1211 H1212 0.959 . S
C1211 H1213 0.960 . S
C1211 H1214 0.961 . S
H1212 C1211 0.959 . S
H1213 C1211 0.960 . S
H1214 C1211 0.961 . S
O1215 Co1190 1.967 . S
O1215 C1223 1.258 . S
O1216 Co1191 1.941 . S
O1216 C1223 1.266 . S
H1217 C1219 0.959 . S
H1218 C1219 0.961 . S
C1219 C1209 1.510 . S
C1219 H1217 0.959 . S
C1219 H1218 0.961 . S
C1219 H1220 0.960 . S
H1220 C1219 0.960 . S
H1221 N1201 0.862 . S
O1222 Co1190 1.920 . S
O1222 C1195 1.289 . S
C1223 O1215 1.258 . S
C1223 O1216 1.266 . S
Co1224 O1227 1.970 . S
Co1224 N1241 1.989 . S
Co1224 O1249 1.967 . S
Co1224 O1256 1.920 . S
Co1225 O1228 1.966 . S
Co1225 N1234 2.022 . S
Co1225 N1242 1.993 . S
Co1225 O1250 1.941 . S
C1226 O1227 1.258 . S
C1226 O1228 1.263 . S
O1227 Co1224 1.970 . S
O1227 C1226 1.258 . S
O1228 Co1225 1.966 . S
O1228 C1226 1.263 . S
C1229 O1230 1.235 . S
C1229 O1256 1.289 . S
O1230 C1229 1.235 . S
C1231 C1233 1.400 . S
C1231 N1234 1.351 . S
C1231 C1236 1.501 . S
C1232 C1233 1.387 . S
C1232 N1235 1.341 . S
C1233 C1231 1.400 . S
C1233 C1232 1.387 . S
N1234 Co1225 2.022 . S
N1234 C1231 1.351 . S
N1234 N1235 1.365 . S
N1235 C1232 1.341 . S
N1235 N1234 1.365 . S
N1235 H1255 0.862 . S
C1236 C1231 1.501 . S
C1236 H1237 0.961 . S
C1236 H1238 0.961 . S
C1236 H1239 0.960 . S
H1237 C1236 0.961 . S
H1238 C1236 0.961 . S
H1239 C1236 0.960 . S
C1240 N1241 1.342 . S
C1240 C1244 1.401 . S
C1240 C1245 1.499 . S
N1241 Co1224 1.989 . S
N1241 C1240 1.342 . S
N1241 N1242 1.388 . S
N1242 Co1225 1.993 . S
N1242 N1241 1.388 . S
N1242 C1243 1.346 . S
C1243 N1242 1.346 . S
C1243 C1244 1.396 . S
C1243 C1253 1.510 . S
C1244 C1240 1.401 . S
C1244 C1243 1.396 . S
C1245 C1240 1.499 . S
C1245 H1246 0.959 . S
C1245 H1247 0.960 . S
C1245 H1248 0.961 . S
H1246 C1245 0.959 . S
H1247 C1245 0.960 . S
H1248 C1245 0.961 . S
O1249 Co1224 1.967 . S
O1249 C1257 1.258 . S
O1250 Co1225 1.941 . S
O1250 C1257 1.266 . S
H1251 C1253 0.959 . S
H1252 C1253 0.961 . S
C1253 C1243 1.510 . S
C1253 H1251 0.959 . S
C1253 H1252 0.961 . S
C1253 H1254 0.960 . S
H1254 C1253 0.960 . S
H1255 N1235 0.862 . S
O1256 Co1224 1.920 . S
O1256 C1229 1.289 . S
C1257 O1249 1.258 . S
C1257 O1250 1.266 . S
Co1258 O1261 1.970 . S
Co1258 N1275 1.989 . S
Co1258 O1283 1.967 . S
Co1258 O1290 1.920 . S
Co1259 O1262 1.966 . S
Co1259 N1268 2.022 . S
Co1259 N1276 1.993 . S
Co1259 O1284 1.941 . S
C1260 O1261 1.258 . S
C1260 O1262 1.263 . S
O1261 Co1258 1.970 . S
O1261 C1260 1.258 . S
O1262 Co1259 1.966 . S
O1262 C1260 1.263 . S
C1263 O1264 1.235 . S
C1263 O1290 1.289 . S
O1264 C1263 1.235 . S
C1265 C1267 1.400 . S
C1265 N1268 1.351 . S
C1265 C1270 1.501 . S
C1266 C1267 1.387 . S
C1266 N1269 1.341 . S
C1267 C1265 1.400 . S
C1267 C1266 1.387 . S
N1268 Co1259 2.022 . S
N1268 C1265 1.351 . S
N1268 N1269 1.365 . S
N1269 C1266 1.341 . S
N1269 N1268 1.365 . S
N1269 H1289 0.862 . S
C1270 C1265 1.501 . S
C1270 H1271 0.961 . S
C1270 H1272 0.961 . S
C1270 H1273 0.960 . S
H1271 C1270 0.961 . S
H1272 C1270 0.961 . S
H1273 C1270 0.960 . S
C1274 N1275 1.342 . S
C1274 C1278 1.401 . S
C1274 C1279 1.499 . S
N1275 Co1258 1.989 . S
N1275 C1274 1.342 . S
N1275 N1276 1.388 . S
N1276 Co1259 1.993 . S
N1276 N1275 1.388 . S
N1276 C1277 1.346 . S
C1277 N1276 1.346 . S
C1277 C1278 1.396 . S
C1277 C1287 1.510 . S
C1278 C1274 1.401 . S
C1278 C1277 1.396 . S
C1279 C1274 1.499 . S
C1279 H1280 0.959 . S
C1279 H1281 0.960 . S
C1279 H1282 0.961 . S
H1280 C1279 0.959 . S
H1281 C1279 0.960 . S
H1282 C1279 0.961 . S
O1283 Co1258 1.967 . S
O1283 C1291 1.258 . S
O1284 Co1259 1.941 . S
O1284 C1291 1.266 . S
H1285 C1287 0.959 . S
H1286 C1287 0.961 . S
C1287 C1277 1.510 . S
C1287 H1285 0.959 . S
C1287 H1286 0.961 . S
C1287 H1288 0.960 . S
H1288 C1287 0.960 . S
H1289 N1269 0.862 . S
O1290 Co1258 1.920 . S
O1290 C1263 1.289 . S
C1291 O1283 1.258 . S
C1291 O1284 1.266 . S
Co1292 O1295 1.970 . S
Co1292 N1309 1.989 . S
Co1292 O1317 1.967 . S
Co1292 O1324 1.920 . S
Co1293 O1296 1.966 . S
Co1293 N1302 2.022 . S
Co1293 N1310 1.993 . S
Co1293 O1318 1.941 . S
C1294 O1295 1.258 . S
C1294 O1296 1.263 . S
O1295 Co1292 1.970 . S
O1295 C1294 1.258 . S
O1296 Co1293 1.966 . S
O1296 C1294 1.263 . S
C1297 O1298 1.235 . S
C1297 O1324 1.289 . S
O1298 C1297 1.235 . S
C1299 C1301 1.400 . S
C1299 N1302 1.351 . S
C1299 C1304 1.501 . S
C1300 C1301 1.387 . S
C1300 N1303 1.341 . S
C1301 C1299 1.400 . S
C1301 C1300 1.387 . S
N1302 Co1293 2.022 . S
N1302 C1299 1.351 . S
N1302 N1303 1.365 . S
N1303 C1300 1.341 . S
N1303 N1302 1.365 . S
N1303 H1323 0.862 . S
C1304 C1299 1.501 . S
C1304 H1305 0.961 . S
C1304 H1306 0.961 . S
C1304 H1307 0.960 . S
H1305 C1304 0.961 . S
H1306 C1304 0.961 . S
H1307 C1304 0.960 . S
C1308 N1309 1.342 . S
C1308 C1312 1.401 . S
C1308 C1313 1.499 . S
N1309 Co1292 1.989 . S
N1309 C1308 1.342 . S
N1309 N1310 1.388 . S
N1310 Co1293 1.993 . S
N1310 N1309 1.388 . S
N1310 C1311 1.346 . S
C1311 N1310 1.346 . S
C1311 C1312 1.396 . S
C1311 C1321 1.510 . S
C1312 C1308 1.401 . S
C1312 C1311 1.396 . S
C1313 C1308 1.499 . S
C1313 H1314 0.959 . S
C1313 H1315 0.960 . S
C1313 H1316 0.961 . S
H1314 C1313 0.959 . S
H1315 C1313 0.960 . S
H1316 C1313 0.961 . S
O1317 Co1292 1.967 . S
O1317 C1325 1.258 . S
O1318 Co1293 1.941 . S
O1318 C1325 1.266 . S
H1319 C1321 0.959 . S
H1320 C1321 0.961 . S
C1321 C1311 1.510 . S
C1321 H1319 0.959 . S
C1321 H1320 0.961 . S
C1321 H1322 0.960 . S
H1322 C1321 0.960 . S
H1323 N1303 0.862 . S
O1324 Co1292 1.920 . S
O1324 C1297 1.289 . S
C1325 O1317 1.258 . S
C1325 O1318 1.266 . S
Co1326 O1329 1.970 . S
Co1326 N1343 1.989 . S
Co1326 O1351 1.967 . S
Co1326 O1358 1.920 . S
Co1327 O1330 1.966 . S
Co1327 N1336 2.022 . S
Co1327 N1344 1.993 . S
Co1327 O1352 1.941 . S
C1328 O1329 1.258 . S
C1328 O1330 1.263 . S
O1329 Co1326 1.970 . S
O1329 C1328 1.258 . S
O1330 Co1327 1.966 . S
O1330 C1328 1.263 . S
C1331 O1332 1.235 . S
C1331 O1358 1.289 . S
O1332 C1331 1.235 . S
C1333 C1335 1.400 . S
C1333 N1336 1.351 . S
C1333 C1338 1.501 . S
C1334 C1335 1.387 . S
C1334 N1337 1.341 . S
C1335 C1333 1.400 . S
C1335 C1334 1.387 . S
N1336 Co1327 2.022 . S
N1336 C1333 1.351 . S
N1336 N1337 1.365 . S
N1337 C1334 1.341 . S
N1337 N1336 1.365 . S
N1337 H1357 0.862 . S
C1338 C1333 1.501 . S
C1338 H1339 0.961 . S
C1338 H1340 0.961 . S
C1338 H1341 0.960 . S
H1339 C1338 0.961 . S
H1340 C1338 0.961 . S
H1341 C1338 0.960 . S
C1342 N1343 1.342 . S
C1342 C1346 1.401 . S
C1342 C1347 1.499 . S
N1343 Co1326 1.989 . S
N1343 C1342 1.342 . S
N1343 N1344 1.388 . S
N1344 Co1327 1.993 . S
N1344 N1343 1.388 . S
N1344 C1345 1.346 . S
C1345 N1344 1.346 . S
C1345 C1346 1.396 . S
C1345 C1355 1.510 . S
C1346 C1342 1.401 . S
C1346 C1345 1.396 . S
C1347 C1342 1.499 . S
C1347 H1348 0.959 . S
C1347 H1349 0.960 . S
C1347 H1350 0.961 . S
H1348 C1347 0.959 . S
H1349 C1347 0.960 . S
H1350 C1347 0.961 . S
O1351 Co1326 1.967 . S
O1351 C1359 1.258 . S
O1352 Co1327 1.941 . S
O1352 C1359 1.266 . S
H1353 C1355 0.959 . S
H1354 C1355 0.961 . S
C1355 C1345 1.510 . S
C1355 H1353 0.959 . S
C1355 H1354 0.961 . S
C1355 H1356 0.960 . S
H1356 C1355 0.960 . S
H1357 N1337 0.862 . S
O1358 Co1326 1.920 . S
O1358 C1331 1.289 . S
C1359 O1351 1.258 . S
C1359 O1352 1.266 . S
Co1360 O1363 1.970 . S
Co1360 N1377 1.989 . S
Co1360 O1385 1.967 . S
Co1360 O1392 1.920 . S
Co1361 O1364 1.966 . S
Co1361 N1370 2.022 . S
Co1361 N1378 1.993 . S
Co1361 O1386 1.941 . S
C1362 O1363 1.258 . S
C1362 O1364 1.263 . S
O1363 Co1360 1.970 . S
O1363 C1362 1.258 . S
O1364 Co1361 1.966 . S
O1364 C1362 1.263 . S
C1365 O1366 1.235 . S
C1365 O1392 1.289 . S
O1366 C1365 1.235 . S
C1367 C1369 1.400 . S
C1367 N1370 1.351 . S
C1367 C1372 1.501 . S
C1368 C1369 1.387 . S
C1368 N1371 1.341 . S
C1369 C1367 1.400 . S
C1369 C1368 1.387 . S
N1370 Co1361 2.022 . S
N1370 C1367 1.351 . S
N1370 N1371 1.365 . S
N1371 C1368 1.341 . S
N1371 N1370 1.365 . S
N1371 H1391 0.862 . S
C1372 C1367 1.501 . S
C1372 H1373 0.961 . S
C1372 H1374 0.961 . S
C1372 H1375 0.960 . S
H1373 C1372 0.961 . S
H1374 C1372 0.961 . S
H1375 C1372 0.960 . S
C1376 N1377 1.342 . S
C1376 C1380 1.401 . S
C1376 C1381 1.499 . S
N1377 Co1360 1.989 . S
N1377 C1376 1.342 . S
N1377 N1378 1.388 . S
N1378 Co1361 1.993 . S
N1378 N1377 1.388 . S
N1378 C1379 1.346 . S
C1379 N1378 1.346 . S
C1379 C1380 1.396 . S
C1379 C1389 1.510 . S
C1380 C1376 1.401 . S
C1380 C1379 1.396 . S
C1381 C1376 1.499 . S
C1381 H1382 0.959 . S
C1381 H1383 0.960 . S
C1381 H1384 0.961 . S
H1382 C1381 0.959 . S
H1383 C1381 0.960 . S
H1384 C1381 0.961 . S
O1385 Co1360 1.967 . S
O1385 C1393 1.258 . S
O1386 Co1361 1.941 . S
O1386 C1393 1.266 . S
H1387 C1389 0.959 . S
H1388 C1389 0.961 . S
C1389 C1379 1.510 . S
C1389 H1387 0.959 . S
C1389 H1388 0.961 . S
C1389 H1390 0.960 . S
H1390 C1389 0.960 . S
H1391 N1371 0.862 . S
O1392 Co1360 1.920 . S
O1392 C1365 1.289 . S
C1393 O1385 1.258 . S
C1393 O1386 1.266 . S
Co1394 O1397 1.970 . S
Co1394 N1411 1.989 . S
Co1394 O1419 1.967 . S
Co1394 O1426 1.920 . S
Co1395 O1398 1.966 . S
Co1395 N1404 2.022 . S
Co1395 N1412 1.993 . S
Co1395 O1420 1.941 . S
C1396 O1397 1.258 . S
C1396 O1398 1.263 . S
O1397 Co1394 1.970 . S
O1397 C1396 1.258 . S
O1398 Co1395 1.966 . S
O1398 C1396 1.263 . S
C1399 O1400 1.235 . S
C1399 O1426 1.289 . S
O1400 C1399 1.235 . S
C1401 C1403 1.400 . S
C1401 N1404 1.351 . S
C1401 C1406 1.501 . S
C1402 C1403 1.387 . S
C1402 N1405 1.341 . S
C1403 C1401 1.400 . S
C1403 C1402 1.387 . S
N1404 Co1395 2.022 . S
N1404 C1401 1.351 . S
N1404 N1405 1.365 . S
N1405 C1402 1.341 . S
N1405 N1404 1.365 . S
N1405 H1425 0.862 . S
C1406 C1401 1.501 . S
C1406 H1407 0.961 . S
C1406 H1408 0.961 . S
C1406 H1409 0.960 . S
H1407 C1406 0.961 . S
H1408 C1406 0.961 . S
H1409 C1406 0.960 . S
C1410 N1411 1.342 . S
C1410 C1414 1.401 . S
C1410 C1415 1.499 . S
N1411 Co1394 1.989 . S
N1411 C1410 1.342 . S
N1411 N1412 1.388 . S
N1412 Co1395 1.993 . S
N1412 N1411 1.388 . S
N1412 C1413 1.346 . S
C1413 N1412 1.346 . S
C1413 C1414 1.396 . S
C1413 C1423 1.510 . S
C1414 C1410 1.401 . S
C1414 C1413 1.396 . S
C1415 C1410 1.499 . S
C1415 H1416 0.959 . S
C1415 H1417 0.960 . S
C1415 H1418 0.961 . S
H1416 C1415 0.959 . S
H1417 C1415 0.960 . S
H1418 C1415 0.961 . S
O1419 Co1394 1.967 . S
O1419 C1427 1.258 . S
O1420 Co1395 1.941 . S
O1420 C1427 1.266 . S
H1421 C1423 0.959 . S
H1422 C1423 0.961 . S
C1423 C1413 1.510 . S
C1423 H1421 0.959 . S
C1423 H1422 0.961 . S
C1423 H1424 0.960 . S
H1424 C1423 0.960 . S
H1425 N1405 0.862 . S
O1426 Co1394 1.920 . S
O1426 C1399 1.289 . S
C1427 O1419 1.258 . S
C1427 O1420 1.266 . S
Co1428 O1431 1.970 . S
Co1428 N1445 1.989 . S
Co1428 O1453 1.967 . S
Co1428 O1460 1.920 . S
Co1429 O1432 1.966 . S
Co1429 N1438 2.022 . S
Co1429 N1446 1.993 . S
Co1429 O1454 1.941 . S
C1430 O1431 1.258 . S
C1430 O1432 1.263 . S
O1431 Co1428 1.970 . S
O1431 C1430 1.258 . S
O1432 Co1429 1.966 . S
O1432 C1430 1.263 . S
C1433 O1434 1.235 . S
C1433 O1460 1.289 . S
O1434 C1433 1.235 . S
C1435 C1437 1.400 . S
C1435 N1438 1.351 . S
C1435 C1440 1.501 . S
C1436 C1437 1.387 . S
C1436 N1439 1.341 . S
C1437 C1435 1.400 . S
C1437 C1436 1.387 . S
N1438 Co1429 2.022 . S
N1438 C1435 1.351 . S
N1438 N1439 1.365 . S
N1439 C1436 1.341 . S
N1439 N1438 1.365 . S
N1439 H1459 0.862 . S
C1440 C1435 1.501 . S
C1440 H1441 0.961 . S
C1440 H1442 0.961 . S
C1440 H1443 0.960 . S
H1441 C1440 0.961 . S
H1442 C1440 0.961 . S
H1443 C1440 0.960 . S
C1444 N1445 1.342 . S
C1444 C1448 1.401 . S
C1444 C1449 1.499 . S
N1445 Co1428 1.989 . S
N1445 C1444 1.342 . S
N1445 N1446 1.388 . S
N1446 Co1429 1.993 . S
N1446 N1445 1.388 . S
N1446 C1447 1.346 . S
C1447 N1446 1.346 . S
C1447 C1448 1.396 . S
C1447 C1457 1.510 . S
C1448 C1444 1.401 . S
C1448 C1447 1.396 . S
C1449 C1444 1.499 . S
C1449 H1450 0.959 . S
C1449 H1451 0.960 . S
C1449 H1452 0.961 . S
H1450 C1449 0.959 . S
H1451 C1449 0.960 . S
H1452 C1449 0.961 . S
O1453 Co1428 1.967 . S
O1453 C1461 1.258 . S
O1454 Co1429 1.941 . S
O1454 C1461 1.266 . S
H1455 C1457 0.959 . S
H1456 C1457 0.961 . S
C1457 C1447 1.510 . S
C1457 H1455 0.959 . S
C1457 H1456 0.961 . S
C1457 H1458 0.960 . S
H1458 C1457 0.960 . S
H1459 N1439 0.862 . S
O1460 Co1428 1.920 . S
O1460 C1433 1.289 . S
C1461 O1453 1.258 . S
C1461 O1454 1.266 . S
Co1462 O1465 1.970 . S
Co1462 N1479 1.989 . S
Co1462 O1487 1.967 . S
Co1462 O1494 1.920 . S
Co1463 O1466 1.966 . S
Co1463 N1472 2.022 . S
Co1463 N1480 1.993 . S
Co1463 O1488 1.941 . S
C1464 O1465 1.258 . S
C1464 O1466 1.263 . S
O1465 Co1462 1.970 . S
O1465 C1464 1.258 . S
O1466 Co1463 1.966 . S
O1466 C1464 1.263 . S
C1467 O1468 1.235 . S
C1467 O1494 1.289 . S
O1468 C1467 1.235 . S
C1469 C1471 1.400 . S
C1469 N1472 1.351 . S
C1469 C1474 1.501 . S
C1470 C1471 1.387 . S
C1470 N1473 1.341 . S
C1471 C1469 1.400 . S
C1471 C1470 1.387 . S
N1472 Co1463 2.022 . S
N1472 C1469 1.351 . S
N1472 N1473 1.365 . S
N1473 C1470 1.341 . S
N1473 N1472 1.365 . S
N1473 H1493 0.862 . S
C1474 C1469 1.501 . S
C1474 H1475 0.961 . S
C1474 H1476 0.961 . S
C1474 H1477 0.960 . S
H1475 C1474 0.961 . S
H1476 C1474 0.961 . S
H1477 C1474 0.960 . S
C1478 N1479 1.342 . S
C1478 C1482 1.401 . S
C1478 C1483 1.499 . S
N1479 Co1462 1.989 . S
N1479 C1478 1.342 . S
N1479 N1480 1.388 . S
N1480 Co1463 1.993 . S
N1480 N1479 1.388 . S
N1480 C1481 1.346 . S
C1481 N1480 1.346 . S
C1481 C1482 1.396 . S
C1481 C1491 1.510 . S
C1482 C1478 1.401 . S
C1482 C1481 1.396 . S
C1483 C1478 1.499 . S
C1483 H1484 0.959 . S
C1483 H1485 0.960 . S
C1483 H1486 0.961 . S
H1484 C1483 0.959 . S
H1485 C1483 0.960 . S
H1486 C1483 0.961 . S
O1487 Co1462 1.967 . S
O1487 C1495 1.258 . S
O1488 Co1463 1.941 . S
O1488 C1495 1.266 . S
H1489 C1491 0.959 . S
H1490 C1491 0.961 . S
C1491 C1481 1.510 . S
C1491 H1489 0.959 . S
C1491 H1490 0.961 . S
C1491 H1492 0.960 . S
H1492 C1491 0.960 . S
H1493 N1473 0.862 . S
O1494 Co1462 1.920 . S
O1494 C1467 1.289 . S
C1495 O1487 1.258 . S
C1495 O1488 1.266 . S
Co1496 O1499 1.970 . S
Co1496 N1513 1.989 . S
Co1496 O1521 1.967 . S
Co1496 O1528 1.920 . S
Co1497 O1500 1.966 . S
Co1497 N1506 2.022 . S
Co1497 N1514 1.993 . S
Co1497 O1522 1.941 . S
C1498 O1499 1.258 . S
C1498 O1500 1.263 . S
O1499 Co1496 1.970 . S
O1499 C1498 1.258 . S
O1500 Co1497 1.966 . S
O1500 C1498 1.263 . S
C1501 O1502 1.235 . S
C1501 O1528 1.289 . S
O1502 C1501 1.235 . S
C1503 C1505 1.400 . S
C1503 N1506 1.351 . S
C1503 C1508 1.501 . S
C1504 C1505 1.387 . S
C1504 N1507 1.341 . S
C1505 C1503 1.400 . S
C1505 C1504 1.387 . S
N1506 Co1497 2.022 . S
N1506 C1503 1.351 . S
N1506 N1507 1.365 . S
N1507 C1504 1.341 . S
N1507 N1506 1.365 . S
N1507 H1527 0.862 . S
C1508 C1503 1.501 . S
C1508 H1509 0.961 . S
C1508 H1510 0.961 . S
C1508 H1511 0.960 . S
H1509 C1508 0.961 . S
H1510 C1508 0.961 . S
H1511 C1508 0.960 . S
C1512 N1513 1.342 . S
C1512 C1516 1.401 . S
C1512 C1517 1.499 . S
N1513 Co1496 1.989 . S
N1513 C1512 1.342 . S
N1513 N1514 1.388 . S
N1514 Co1497 1.993 . S
N1514 N1513 1.388 . S
N1514 C1515 1.346 . S
C1515 N1514 1.346 . S
C1515 C1516 1.396 . S
C1515 C1525 1.510 . S
C1516 C1512 1.401 . S
C1516 C1515 1.396 . S
C1517 C1512 1.499 . S
C1517 H1518 0.959 . S
C1517 H1519 0.960 . S
C1517 H1520 0.961 . S
H1518 C1517 0.959 . S
H1519 C1517 0.960 . S
H1520 C1517 0.961 . S
O1521 Co1496 1.967 . S
O1521 C1529 1.258 . S
O1522 Co1497 1.941 . S
O1522 C1529 1.266 . S
H1523 C1525 0.959 . S
H1524 C1525 0.961 . S
C1525 C1515 1.510 . S
C1525 H1523 0.959 . S
C1525 H1524 0.961 . S
C1525 H1526 0.960 . S
H1526 C1525 0.960 . S
H1527 N1507 0.862 . S
O1528 Co1496 1.920 . S
O1528 C1501 1.289 . S
C1529 O1521 1.258 . S
C1529 O1522 1.266 . S
Co1530 O1533 1.970 . S
Co1530 N1547 1.989 . S
Co1530 O1555 1.967 . S
Co1530 O1562 1.920 . S
Co1531 O1534 1.966 . S
Co1531 N1540 2.022 . S
Co1531 N1548 1.993 . S
Co1531 O1556 1.941 . S
C1532 O1533 1.258 . S
C1532 O1534 1.263 . S
O1533 Co1530 1.970 . S
O1533 C1532 1.258 . S
O1534 Co1531 1.966 . S
O1534 C1532 1.263 . S
C1535 O1536 1.235 . S
C1535 O1562 1.289 . S
O1536 C1535 1.235 . S
C1537 C1539 1.400 . S
C1537 N1540 1.351 . S
C1537 C1542 1.501 . S
C1538 C1539 1.387 . S
C1538 N1541 1.341 . S
C1539 C1537 1.400 . S
C1539 C1538 1.387 . S
N1540 Co1531 2.022 . S
N1540 C1537 1.351 . S
N1540 N1541 1.365 . S
N1541 C1538 1.341 . S
N1541 N1540 1.365 . S
N1541 H1561 0.862 . S
C1542 C1537 1.501 . S
C1542 H1543 0.961 . S
C1542 H1544 0.961 . S
C1542 H1545 0.960 . S
H1543 C1542 0.961 . S
H1544 C1542 0.961 . S
H1545 C1542 0.960 . S
C1546 N1547 1.342 . S
C1546 C1550 1.401 . S
C1546 C1551 1.499 . S
N1547 Co1530 1.989 . S
N1547 C1546 1.342 . S
N1547 N1548 1.388 . S
N1548 Co1531 1.993 . S
N1548 N1547 1.388 . S
N1548 C1549 1.346 . S
C1549 N1548 1.346 . S
C1549 C1550 1.396 . S
C1549 C1559 1.510 . S
C1550 C1546 1.401 . S
C1550 C1549 1.396 . S
C1551 C1546 1.499 . S
C1551 H1552 0.959 . S
C1551 H1553 0.960 . S
C1551 H1554 0.961 . S
H1552 C1551 0.959 . S
H1553 C1551 0.960 . S
H1554 C1551 0.961 . S
O1555 Co1530 1.967 . S
O1555 C1563 1.258 . S
O1556 Co1531 1.941 . S
O1556 C1563 1.266 . S
H1557 C1559 0.959 . S
H1558 C1559 0.961 . S
C1559 C1549 1.510 . S
C1559 H1557 0.959 . S
C1559 H1558 0.961 . S
C1559 H1560 0.960 . S
H1560 C1559 0.960 . S
H1561 N1541 0.862 . S
O1562 Co1530 1.920 . S
O1562 C1535 1.289 . S
C1563 O1555 1.258 . S
C1563 O1556 1.266 . S
Co1564 O1567 1.970 . S
Co1564 N1581 1.989 . S
Co1564 O1589 1.967 . S
Co1564 O1596 1.920 . S
Co1565 O1568 1.966 . S
Co1565 N1574 2.022 . S
Co1565 N1582 1.993 . S
Co1565 O1590 1.941 . S
C1566 O1567 1.258 . S
C1566 O1568 1.263 . S
O1567 Co1564 1.970 . S
O1567 C1566 1.258 . S
O1568 Co1565 1.966 . S
O1568 C1566 1.263 . S
C1569 O1570 1.235 . S
C1569 O1596 1.289 . S
O1570 C1569 1.235 . S
C1571 C1573 1.400 . S
C1571 N1574 1.351 . S
C1571 C1576 1.501 . S
C1572 C1573 1.387 . S
C1572 N1575 1.341 . S
C1573 C1571 1.400 . S
C1573 C1572 1.387 . S
N1574 Co1565 2.022 . S
N1574 C1571 1.351 . S
N1574 N1575 1.365 . S
N1575 C1572 1.341 . S
N1575 N1574 1.365 . S
N1575 H1595 0.862 . S
C1576 C1571 1.501 . S
C1576 H1577 0.961 . S
C1576 H1578 0.961 . S
C1576 H1579 0.960 . S
H1577 C1576 0.961 . S
H1578 C1576 0.961 . S
H1579 C1576 0.960 . S
C1580 N1581 1.342 . S
C1580 C1584 1.401 . S
C1580 C1585 1.499 . S
N1581 Co1564 1.989 . S
N1581 C1580 1.342 . S
N1581 N1582 1.388 . S
N1582 Co1565 1.993 . S
N1582 N1581 1.388 . S
N1582 C1583 1.346 . S
C1583 N1582 1.346 . S
C1583 C1584 1.396 . S
C1583 C1593 1.510 . S
C1584 C1580 1.401 . S
C1584 C1583 1.396 . S
C1585 C1580 1.499 . S
C1585 H1586 0.959 . S
C1585 H1587 0.960 . S
C1585 H1588 0.961 . S
H1586 C1585 0.959 . S
H1587 C1585 0.960 . S
H1588 C1585 0.961 . S
O1589 Co1564 1.967 . S
O1589 C1597 1.258 . S
O1590 Co1565 1.941 . S
O1590 C1597 1.266 . S
H1591 C1593 0.959 . S
H1592 C1593 0.961 . S
C1593 C1583 1.510 . S
C1593 H1591 0.959 . S
C1593 H1592 0.961 . S
C1593 H1594 0.960 . S
H1594 C1593 0.960 . S
H1595 N1575 0.862 . S
O1596 Co1564 1.920 . S
O1596 C1569 1.289 . S
C1597 O1589 1.258 . S
C1597 O1590 1.266 . S
Co1598 O1601 1.970 . S
Co1598 N1615 1.989 . S
Co1598 O1623 1.967 . S
Co1598 O1630 1.920 . S
Co1599 O1602 1.966 . S
Co1599 N1608 2.022 . S
Co1599 N1616 1.993 . S
Co1599 O1624 1.941 . S
C1600 O1601 1.258 . S
C1600 O1602 1.263 . S
O1601 Co1598 1.970 . S
O1601 C1600 1.258 . S
O1602 Co1599 1.966 . S
O1602 C1600 1.263 . S
C1603 O1604 1.235 . S
C1603 O1630 1.289 . S
O1604 C1603 1.235 . S
C1605 C1607 1.400 . S
C1605 N1608 1.351 . S
C1605 C1610 1.501 . S
C1606 C1607 1.387 . S
C1606 N1609 1.341 . S
C1607 C1605 1.400 . S
C1607 C1606 1.387 . S
N1608 Co1599 2.022 . S
N1608 C1605 1.351 . S
N1608 N1609 1.365 . S
N1609 C1606 1.341 . S
N1609 N1608 1.365 . S
N1609 H1629 0.862 . S
C1610 C1605 1.501 . S
C1610 H1611 0.961 . S
C1610 H1612 0.961 . S
C1610 H1613 0.960 . S
H1611 C1610 0.961 . S
H1612 C1610 0.961 . S
H1613 C1610 0.960 . S
C1614 N1615 1.342 . S
C1614 C1618 1.401 . S
C1614 C1619 1.499 . S
N1615 Co1598 1.989 . S
N1615 C1614 1.342 . S
N1615 N1616 1.388 . S
N1616 Co1599 1.993 . S
N1616 N1615 1.388 . S
N1616 C1617 1.346 . S
C1617 N1616 1.346 . S
C1617 C1618 1.396 . S
C1617 C1627 1.510 . S
C1618 C1614 1.401 . S
C1618 C1617 1.396 . S
C1619 C1614 1.499 . S
C1619 H1620 0.959 . S
C1619 H1621 0.960 . S
C1619 H1622 0.961 . S
H1620 C1619 0.959 . S
H1621 C1619 0.960 . S
H1622 C1619 0.961 . S
O1623 Co1598 1.967 . S
O1623 C1631 1.258 . S
O1624 Co1599 1.941 . S
O1624 C1631 1.266 . S
H1625 C1627 0.959 . S
H1626 C1627 0.961 . S
C1627 C1617 1.510 . S
C1627 H1625 0.959 . S
C1627 H1626 0.961 . S
C1627 H1628 0.960 . S
H1628 C1627 0.960 . S
H1629 N1609 0.862 . S
O1630 Co1598 1.920 . S
O1630 C1603 1.289 . S
C1631 O1623 1.258 . S
C1631 O1624 1.266 . S
C1501 C5 1.782 . S
C1399 C39 1.782 . S
C1433 C73 1.782 . S
C107 C1467 1.782 . S
C141 C1603 1.782 . S
C175 C1535 1.782 . S
C209 C1569 1.782 . S
C1365 C243 1.782 . S
C1331 C277 1.782 . S
C311 C1229 1.782 . S
C345 C1263 1.782 . S
C1297 C379 1.782 . S
C413 C1127 1.782 . S
C447 C1161 1.782 . S
C1195 C481 1.782 . S
C515 C1093 1.782 . S
C549 C1059 1.782 . S
C855 C583 1.782 . S
C889 C617 1.782 . S
C651 C923 1.782 . S
C821 C685 1.782 . S
C719 C991 1.782 . S
C1025 C753 1.782 . S
C787 C957 1.782 . S
C138 C1430 3.152 . S
C1464 C172 3.152 . S
C206 C1498 3.152 . S
C1396 C240 3.152 . S
C1566 C2 3.152 . S
C36 C1362 3.152 . S
C1600 C70 3.152 . S
C1532 C104 3.152 . S
C1124 C478 3.152 . S
C512 C1158 3.152 . S
C1192 C410 3.152 . S
C444 C1090 3.152 . S
C1328 C342 3.152 . S
C1226 C376 3.152 . S
C1260 C274 3.152 . S
C1294 C308 3.152 . S
C920 C716 3.152 . S
C648 C988 3.152 . S
C682 C1022 3.152 . S
C1056 C580 3.152 . S
C614 C954 3.152 . S
C852 C546 3.152 . S
C784 C886 3.152 . S
C818 C750 3.152 . S
C111 C20 2.474 . S
C9 C54 2.474 . S
C88 C43 2.474 . S
C122 C77 2.474 . S
C179 C156 2.474 . S
C190 C213 2.474 . S
C224 C247 2.474 . S
C145 C258 2.474 . S
C621 C292 2.474 . S
C655 C326 2.474 . S
C689 C360 2.474 . S
C394 C587 2.474 . S
C757 C428 2.474 . S
C462 C553 2.474 . S
C496 C791 2.474 . S
C723 C530 2.474 . S
C564 C315 2.474 . S
C519 C598 2.474 . S
C632 C417 2.474 . S
C451 C666 2.474 . S
C700 C485 2.474 . S
C383 C734 2.474 . S
C281 C768 2.474 . S
C802 C349 2.474 . S
C836 C927 2.474 . S
C870 C825 2.474 . S
C859 C904 2.474 . S
C893 C938 2.474 . S
C972 C995 2.474 . S
C1006 C1029 2.474 . S
C1040 C1063 2.474 . S
C961 C1074 2.474 . S
C1437 C1108 2.474 . S
C1471 C1142 2.474 . S
C1176 C1505 2.474 . S
C1403 C1210 2.474 . S
C1244 C1573 2.474 . S
C1369 C1278 2.474 . S
C1607 C1312 2.474 . S
C1346 C1539 2.474 . S
C1131 C1380 2.474 . S
C1414 C1335 2.474 . S
C1448 C1233 2.474 . S
C1482 C1267 2.474 . S
C1516 C1301 2.474 . S
C1550 C1199 2.474 . S
C1097 C1584 2.474 . S
C1165 C1618 2.474 . S
C33 C339 2.203 . S
C373 C67 2.203 . S
C407 C101 2.203 . S
C305 C135 2.203 . S
C169 C543 2.203 . S
C441 C203 2.203 . S
C237 C475 2.203 . S
C271 C509 2.203 . S
C645 C577 2.203 . S
C781 C611 2.203 . S
C815 C679 2.203 . S
C747 C713 2.203 . S
C849 C1155 2.203 . S
C883 C1189 2.203 . S
C1223 C917 2.203 . S
C1121 C951 2.203 . S
C1359 C985 2.203 . S
C1019 C1257 2.203 . S
C1053 C1291 2.203 . S
C1087 C1325 2.203 . S
C1393 C1461 2.203 . S
C1427 C1597 2.203 . S
C1495 C1631 2.203 . S
C1529 C1563 2.203 . S
