# Generated by pormake.
# Topology umy, (4)-cn, num edge types: 1
# Building blocks:
#     Node 0, Type 0, BuildingBlock: QUQFOY_clean_sbu_3, # of connection points: 4
#     Node 1, Type 0, BuildingBlock: QUQFOY_clean_sbu_3, # of connection points: 4
#     Node 2, Type 0, BuildingBlock: QUQFOY_clean_sbu_3, # of connection points: 4
#     Node 3, Type 0, BuildingBlock: QUQFOY_clean_sbu_3, # of connection points: 4
#     Node 4, Type 0, BuildingBlock: QUQFOY_clean_sbu_3, # of connection points: 4
#     Node 5, Type 0, BuildingBlock: QUQFOY_clean_sbu_3, # of connection points: 4
#     Node 6, Type 0, BuildingBlock: QUQFOY_clean_sbu_3, # of connection points: 4
#     Node 7, Type 0, BuildingBlock: QUQFOY_clean_sbu_3, # of connection points: 4
#     Node 8, Type 0, BuildingBlock: QUQFOY_clean_sbu_3, # of connection points: 4
#     Node 9, Type 0, BuildingBlock: QUQFOY_clean_sbu_3, # of connection points: 4
#     Node 10, Type 0, BuildingBlock: QUQFOY_clean_sbu_3, # of connection points: 4
#     Node 11, Type 0, BuildingBlock: QUQFOY_clean_sbu_3, # of connection points: 4
#     Edge 12, Type (0, 0), BuildingBlock: XUDNAN_clean_linker_2, # of connection points: 2
#     Edge 13, Type (0, 0), BuildingBlock: XUDNAN_clean_linker_2, # of connection points: 2
#     Edge 14, Type (0, 0), BuildingBlock: XUDNAN_clean_linker_2, # of connection points: 2
#     Edge 15, Type (0, 0), BuildingBlock: XUDNAN_clean_linker_2, # of connection points: 2
#     Edge 16, Type (0, 0), BuildingBlock: XUDNAN_clean_linker_2, # of connection points: 2
#     Edge 17, Type (0, 0), BuildingBlock: XUDNAN_clean_linker_2, # of connection points: 2
#     Edge 18, Type (0, 0), BuildingBlock: XUDNAN_clean_linker_2, # of connection points: 2
#     Edge 19, Type (0, 0), BuildingBlock: XUDNAN_clean_linker_2, # of connection points: 2
#     Edge 20, Type (0, 0), BuildingBlock: XUDNAN_clean_linker_2, # of connection points: 2
#     Edge 21, Type (0, 0), BuildingBlock: XUDNAN_clean_linker_2, # of connection points: 2
#     Edge 22, Type (0, 0), BuildingBlock: XUDNAN_clean_linker_2, # of connection points: 2
#     Edge 23, Type (0, 0), BuildingBlock: XUDNAN_clean_linker_2, # of connection points: 2
#     Edge 24, Type (0, 0), BuildingBlock: XUDNAN_clean_linker_2, # of connection points: 2
#     Edge 25, Type (0, 0), BuildingBlock: XUDNAN_clean_linker_2, # of connection points: 2
#     Edge 26, Type (0, 0), BuildingBlock: XUDNAN_clean_linker_2, # of connection points: 2
#     Edge 27, Type (0, 0), BuildingBlock: XUDNAN_clean_linker_2, # of connection points: 2
#     Edge 28, Type (0, 0), BuildingBlock: XUDNAN_clean_linker_2, # of connection points: 2
#     Edge 29, Type (0, 0), BuildingBlock: XUDNAN_clean_linker_2, # of connection points: 2
#     Edge 30, Type (0, 0), BuildingBlock: XUDNAN_clean_linker_2, # of connection points: 2
#     Edge 31, Type (0, 0), BuildingBlock: XUDNAN_clean_linker_2, # of connection points: 2
#     Edge 32, Type (0, 0), BuildingBlock: XUDNAN_clean_linker_2, # of connection points: 2
#     Edge 33, Type (0, 0), BuildingBlock: XUDNAN_clean_linker_2, # of connection points: 2
#     Edge 34, Type (0, 0), BuildingBlock: XUDNAN_clean_linker_2, # of connection points: 2
#     Edge 35, Type (0, 0), BuildingBlock: XUDNAN_clean_linker_2, # of connection points: 2
# Relax obj value: 0.100
# Max RMSD: 0.073
# Mean RMSD: 0.073
data_MOF--net-umy--node1-QUQFOY_clean_sbu_3--edge1-XUDNAN_clean_linker_2
_symmetry_space_group_name_H-M    P1
_symmetry_Int_Tables_number       1
_symmetry_cell_setting            triclinic
loop_
_symmetry_equiv_pos_as_xyz
'x, y, z'
_cell_length_a     39.995625
_cell_length_b     39.867441
_cell_length_c     52.787442
_cell_angle_alpha  89.91529
_cell_angle_beta   90.229061
_cell_angle_gamma 120.06562
loop_
_atom_site_label
_atom_site_type_symbol
_atom_site_fract_x
_atom_site_fract_y
_atom_site_fract_z
_atom_type_partial_charge
C0 C 0.95928 0.2568 0.12019 0.0
O1 O 0.97598 0.2376 0.11525 0.0
Cd2 Cd 0.04268 0.26694 0.10307 0.0
O3 O 0.97732 0.29354 0.11788 0.0
Cd4 Cd 0.04129 0.34768 0.10572 0.0
C5 C 0.08501 0.32722 0.1542 0.0
O6 O 0.05414 0.31498 0.0716 0.0
O7 O 0.10109 0.37168 0.08207 0.0
O8 O 0.01792 0.38415 0.08139 0.0
C9 C 0.08846 0.34222 0.06775 0.0
O10 O 0.07761 0.29638 0.14241 0.0
C11 C 0.02659 0.40984 0.0983 0.0
O12 O 0.0747 0.35034 0.14524 0.0
O13 O 0.04242 0.40691 0.11841 0.0
C14 C 0.7312 0.98366 0.28677 0.0
O15 O 0.76549 0.00536 0.27903 0.0
Cd16 Cd 0.79125 0.07193 0.26853 0.0
O17 O 0.70735 -0.00395 0.28758 0.0
Cd18 Cd 0.705 0.05552 0.27623 0.0
C19 C 0.76991 0.10527 0.32283 0.0
O20 O 0.74587 0.07293 0.23936 0.0
O21 O 0.73268 0.11645 0.25189 0.0
O22 O 0.64315 0.02289 0.25386 0.0
C23 C 0.74844 0.10551 0.23556 0.0
O24 O 0.79485 0.10251 0.30947 0.0
C25 C 0.62492 0.03015 0.27054 0.0
O26 O 0.73514 0.09092 0.31527 0.0
O27 O 0.64369 0.04875 0.29003 0.0
C28 C 0.72154 0.71525 0.46772 0.0
O29 O 0.7429 0.75158 0.46474 0.0
Cd30 Cd 0.71808 0.79091 0.44842 0.0
O31 O 0.686 0.69832 0.4614 0.0
Cd32 Cd 0.63892 0.7143 0.44261 0.0
C33 C 0.65001 0.76971 0.494 0.0
O34 O 0.6829 0.75745 0.41087 0.0
O35 O 0.6297 0.75844 0.41436 0.0
O36 O 0.61287 0.65036 0.42383 0.0
C37 C 0.66056 0.7686 0.40215 0.0
O38 O 0.68122 0.79578 0.48398 0.0
C39 C 0.57769 0.64062 0.42687 0.0
O40 O 0.63017 0.73678 0.48348 0.0
O41 O 0.57087 0.66523 0.43733 0.0
C42 C -0.01064 0.71207 0.62634 0.0
O43 O 0.97332 0.73142 0.61998 0.0
Cd44 Cd 0.90669 0.70173 0.60768 0.0
O45 O 0.9707 0.67519 0.62532 0.0
Cd46 Cd 0.90647 0.62062 0.61386 0.0
C47 C 0.86553 0.6465 0.66091 0.0
O48 O 0.89418 0.65098 0.57824 0.0
O49 O 0.84591 0.59632 0.59026 0.0
O50 O 0.93044 0.58398 0.59077 0.0
C51 C 0.8594 0.62449 0.57481 0.0
O52 O 0.87293 0.67623 0.64775 0.0
C53 C 0.92058 0.55784 0.60749 0.0
O54 O 0.87492 0.62207 0.65319 0.0
O55 O 0.90391 0.56065 0.62713 0.0
C56 C 0.24269 -0.00736 0.79583 0.0
O57 O 0.20619 0.97225 0.79386 0.0
Cd58 Cd 0.1742 0.90481 0.78164 0.0
O59 O 0.26382 0.97806 0.79077 0.0
Cd60 Cd 0.2572 0.91624 0.77714 0.0
C61 C 0.20676 0.87212 0.83024 0.0
O62 O 0.20615 0.89703 0.74564 0.0
O63 O 0.2198 0.85309 0.75708 0.0
O64 O 0.31024 0.94918 0.74762 0.0
C65 C 0.2018 0.86357 0.74215 0.0
O66 O 0.17781 0.87084 0.81914 0.0
C67 C 0.33142 0.93745 0.75763 0.0
O68 O 0.24009 0.88936 0.82009 0.0
O69 O 0.31863 0.91662 0.7774 0.0
C70 C 0.23879 0.25922 0.96739 0.0
O71 O 0.22014 0.2226 0.96492 0.0
Cd72 Cd 0.24981 0.18609 0.95081 0.0
O73 O 0.27454 0.27847 0.96193 0.0
Cd74 Cd 0.32582 0.26692 0.94621 0.0
C75 C 0.31898 0.21096 -0.00331 0.0
O76 O 0.28862 0.21732 0.91431 0.0
O77 O 0.34607 0.22786 0.92281 0.0
O78 O 0.3502 0.32204 0.9178 0.0
C79 C 0.31598 0.21107 0.9091 0.0
O80 O 0.28816 0.18455 0.98636 0.0
C81 C 0.38338 0.34079 0.92795 0.0
O82 O 0.33741 0.2447 0.98697 0.0
O83 O 0.38966 0.32579 0.94733 0.0
C84 C 0.72049 -0.00923 0.69517 0.0
O85 O 0.73267 0.96942 0.70441 0.0
Cd86 Cd 0.69215 0.90419 0.71817 0.0
O87 O 0.68438 0.97837 0.69319 0.0
Cd88 Cd 0.62405 0.9177 0.70414 0.0
C89 C 0.64278 0.86468 0.66315 0.0
O90 O 0.64478 0.90626 0.74438 0.0
O91 O 0.59487 0.85623 0.72883 0.0
O92 O 0.59173 0.94986 0.72227 0.0
C93 C 0.61706 0.87218 0.74767 0.0
O94 O 0.66525 0.86401 0.68003 0.0
C95 C 0.5646 0.93706 0.70608 0.0
O96 O 0.62628 0.88458 0.66606 0.0
O97 O 0.56544 0.91584 0.68847 0.0
C98 C 0.69435 0.7306 0.85498 0.0
O99 O 0.72991 0.75139 0.8605 0.0
Cd100 Cd 0.77068 0.72681 0.87283 0.0
O101 O 0.67717 0.69373 0.85658 0.0
Cd102 Cd 0.69385 0.64401 0.87115 0.0
C103 C 0.76009 0.66451 0.82463 0.0
O104 O 0.73315 0.68256 0.90566 0.0
O105 O 0.73624 0.63085 0.89953 0.0
O106 O 0.63395 0.60303 0.89441 0.0
C107 C 0.74553 0.66061 0.91303 0.0
O108 O 0.78137 0.6973 0.83508 0.0
C109 C 0.6204 0.57602 0.8781 0.0
O110 O 0.72735 0.64054 0.83386 0.0
O111 O 0.6411 0.58038 0.85887 0.0
C112 C 0.97418 0.74591 0.01961 0.0
O113 O -0.00409 0.78094 0.0263 0.0
Cd114 Cd 0.05847 0.80681 0.04496 0.0
O115 O -0.01515 0.72093 0.02273 0.0
Cd116 Cd 0.04276 0.72198 0.04136 0.0
C117 C 0.10402 0.78558 -0.00155 0.0
O118 O 0.04915 0.76172 0.07754 0.0
O119 O 0.09905 0.75604 0.07063 0.0
O120 O 0.00266 0.66033 0.06237 0.0
C121 C 0.08139 0.7671 0.08529 0.0
O122 O 0.10369 0.81183 0.01196 0.0
C123 C 0.01956 0.64346 0.05308 0.0
O124 O 0.0818 0.74984 0.00334 0.0
O125 O 0.04649 0.66261 0.03736 0.0
C126 C 0.24106 0.98551 0.194 0.0
O127 O 0.2294 0.00852 0.20067 0.0
Cd128 Cd 0.26999 0.07482 0.21234 0.0
O129 O 0.2769 -0.00385 0.19449 0.0
Cd130 Cd 0.33838 0.05425 0.20812 0.0
C131 C 0.33129 0.10746 0.16082 0.0
O132 O 0.31318 0.07409 0.2428 0.0
O133 O 0.37036 0.11683 0.23106 0.0
O134 O 0.35668 0.01477 0.233 0.0
C135 C 0.34264 0.10708 0.24637 0.0
O136 O 0.30506 0.10821 0.17398 0.0
C137 C 0.38862 0.02584 0.22192 0.0
O138 O 0.34716 0.08808 0.16774 0.0
O139 O 0.39676 0.04925 0.20352 0.0
C140 C 0.25985 0.26031 0.34354 0.0
O141 O 0.22505 0.23794 0.35011 0.0
Cd142 Cd 0.18632 0.26223 0.36712 0.0
O143 O 0.27583 0.29677 0.34712 0.0
Cd144 Cd 0.26175 0.34533 0.36641 0.0
C145 C 0.19698 0.32687 0.31978 0.0
O146 O 0.22491 0.30383 0.40108 0.0
O147 O 0.2221 0.35622 0.39738 0.0
O148 O 0.32798 0.37145 0.38035 0.0
C149 C 0.21387 0.32606 0.41007 0.0
O150 O 0.17615 0.29441 0.3307 0.0
C151 C 0.33784 0.40675 0.37727 0.0
O152 O 0.23018 0.35116 0.32846 0.0
O153 O 0.31213 0.41387 0.36904 0.0
C154 C -0.00269 0.2398 0.52467 0.0
O155 O 0.97814 0.2044 0.53107 0.0
Cd156 Cd 0.91261 0.17268 0.54337 0.0
O157 O -0.01746 0.26166 0.52622 0.0
Cd158 Cd 0.92076 0.25544 0.54263 0.0
C159 C 0.87248 0.19672 0.49351 0.0
O160 O 0.91304 0.21268 0.57711 0.0
O161 O 0.86221 0.21639 0.5688 0.0
O162 O 0.95536 0.31448 0.56747 0.0
C163 C 0.87961 0.20511 0.58364 0.0
O164 O 0.87814 0.1716 0.50459 0.0
C165 C 0.93862 0.33137 0.55782 0.0
O166 O 0.88506 0.23025 0.50304 0.0
O167 O 0.91454 0.31367 0.54011 0.0
H168 H 0.0357 0.59185 0.02956 0.0
H169 H -0.01545 0.60861 0.09726 0.0
H170 H 0.9773 0.5482 0.11525 0.0
H171 H 0.97325 0.48438 0.02834 0.0
H172 H 0.01184 0.47762 0.01683 0.0
H173 H 0.0103 0.52067 0.00846 0.0
H174 H 0.07954 0.56308 0.02637 0.0
H175 H 0.08117 0.52025 0.03501 0.0
H176 H 0.08966 0.55623 0.05869 0.0
H177 H -0.01533 0.4921 0.1284 0.0
H178 H -0.00224 0.43799 0.13348 0.0
H179 H 0.03796 0.45344 0.0559 0.0
C180 C 0.02231 0.58235 0.04796 0.0
C181 C 0.01075 0.60485 0.06206 0.0
C182 C -0.00661 0.59164 0.08608 0.0
C183 C -0.01075 0.55745 0.09649 0.0
C184 C 0.00179 0.53639 0.08239 0.0
C185 C 0.01713 0.54778 0.0584 0.0
C186 C 0.0289 0.52012 0.04746 0.0
C187 C 0.00461 0.49947 0.02388 0.0
C188 C 0.0724 0.54119 0.04155 0.0
C189 C 0.01907 0.49226 0.06941 0.0
C190 C 0.0037 0.50236 0.08943 0.0
C191 C -0.00426 0.48325 0.11266 0.0
C192 C 0.00346 0.45283 0.11543 0.0
C193 C 0.01824 0.44147 0.09495 0.0
C194 C 0.0258 0.46116 0.07161 0.0
H195 H 0.59088 0.03357 0.22672 0.0
H196 H 0.56858 0.00468 0.30634 0.0
H197 H 0.5015 -0.00871 0.30067 0.0
H198 H 0.54399 0.08696 0.22475 0.0
H199 H 0.52535 0.07319 0.193 0.0
H200 H 0.56881 0.07341 0.20214 0.0
H201 H 0.53825 0.00147 0.18857 0.0
H202 H 0.49458 0.00104 0.17937 0.0
H203 H 0.49253 0.9659 0.20178 0.0
H204 H 0.43889 0.98532 0.28703 0.0
H205 H 0.38777 -0.00521 0.26808 0.0
H206 H 0.45296 0.03345 0.19814 0.0
C207 C 0.57142 0.02336 0.24274 0.0
C208 C 0.58431 0.01934 0.26685 0.0
C209 C 0.55883 0.00746 0.28769 0.0
C210 C 0.52074 -0.00039 0.28459 0.0
C211 C 0.50897 0.00441 0.26062 0.0
C212 C 0.53369 0.01647 0.2401 0.0
C213 C 0.51569 0.02447 0.21727 0.0
C214 C 0.53989 0.06703 0.20881 0.0
C215 C 0.50992 -0.00345 0.19546 0.0
C216 C 0.47737 0.01598 0.22834 0.0
C217 C 0.47367 0.0034 0.25313 0.0
C218 C 0.44133 -0.00509 0.26759 0.0
C219 C 0.41243 0.00032 0.25663 0.0
C220 C 0.41649 0.01491 0.23167 0.0
C221 C 0.44907 0.02215 0.21723 0.0
H222 H 0.50173 0.61863 0.41886 0.0
H223 H 0.58288 0.5765 0.41611 0.0
H224 H 0.53028 0.51214 0.40263 0.0
H225 H 0.42059 0.53175 0.44232 0.0
H226 H 0.38571 0.53637 0.42317 0.0
H227 H 0.42968 0.57904 0.4328 0.0
H228 H 0.44553 0.59995 0.38584 0.0
H229 H 0.40161 0.55732 0.37606 0.0
H230 H 0.44732 0.56699 0.36327 0.0
H231 H 0.46868 0.45197 0.39131 0.0
H232 H 0.40248 0.40054 0.38039 0.0
H233 H 0.36211 0.48279 0.38804 0.0
C234 C 0.50837 0.59581 0.41547 0.0
C235 C 0.54626 0.60237 0.41863 0.0
C236 C 0.554 0.57201 0.41376 0.0
C237 C 0.52435 0.53539 0.40615 0.0
C238 C 0.4873 0.52986 0.4032 0.0
C239 C 0.47925 0.55928 0.40747 0.0
C240 C 0.43709 0.54586 0.40246 0.0
C241 C 0.4171 0.5484 0.42663 0.0
C242 C 0.43265 0.5689 0.3806 0.0
C243 C 0.42262 0.50418 0.39494 0.0
C244 C 0.45202 0.4955 0.39566 0.0
C245 C 0.44548 0.45847 0.39044 0.0
C246 C 0.40782 0.42948 0.38433 0.0
C247 C 0.37738 0.43786 0.38321 0.0
C248 C 0.38499 0.47576 0.38843 0.0
H249 H 0.91529 0.51857 0.56402 0.0
H250 H 0.94268 0.52472 0.64402 0.0
H251 H 0.95625 0.47097 0.63886 0.0
H252 H 0.86369 0.4156 0.56138 0.0
H253 H 0.87915 0.41288 0.52979 0.0
H254 H 0.8758 0.45446 0.53922 0.0
H255 H 0.94739 0.49951 0.52673 0.0
H256 H 0.95101 0.45799 0.51738 0.0
H257 H -0.01577 0.4916 0.54043 0.0
H258 H 0.96681 0.41701 0.62498 0.0
H259 H 0.96469 0.36006 0.60501 0.0
H260 H 0.92423 0.38475 0.53487 0.0
C261 C 0.92463 0.50881 0.58032 0.0
C262 C 0.9285 0.52586 0.60435 0.0
C263 C 0.93973 0.51192 0.62547 0.0
C264 C 0.94772 0.48168 0.62267 0.0
C265 C 0.94359 0.46535 0.59872 0.0
C266 C 0.93164 0.47793 0.57799 0.0
C267 C 0.92588 0.453 0.55493 0.0
C268 C 0.88362 0.43278 0.54581 0.0
C269 C 0.9538 0.47697 0.53361 0.0
C270 C 0.9362 0.42426 0.56597 0.0
C271 C 0.9472 0.4325 0.59109 0.0
C272 C 0.95817 0.41019 0.60535 0.0
C273 C 0.95702 0.37801 0.59381 0.0
C274 C 0.9442 0.36803 0.56845 0.0
C275 C 0.93408 0.39174 0.5543 0.0
H276 H 0.53199 0.94183 0.74987 0.0
H277 H 0.5233 0.94647 0.66821 0.0
H278 H 0.46605 0.95445 0.673 0.0
H279 H 0.43278 0.88245 0.75948 0.0
H280 H 0.43159 0.90417 0.78914 0.0
H281 H 0.47511 0.90508 0.77947 0.0
H282 H 0.51324 0.97992 0.78379 0.0
H283 H 0.46977 0.97924 0.79353 0.0
H284 H 0.4969 0.00843 0.76691 0.0
H285 H 0.40865 0.95942 0.68679 0.0
H286 H 0.35079 0.95315 0.70792 0.0
H287 H 0.39367 0.93865 0.78033 0.0
C288 C 0.51853 0.94549 0.73305 0.0
C289 C 0.53222 0.94432 0.70869 0.0
C290 C 0.51325 0.94772 0.68702 0.0
C291 C 0.48094 0.95243 0.68958 0.0
C292 C 0.46779 0.95299 0.71393 0.0
C293 C 0.48571 0.94912 0.73527 0.0
C294 C 0.46333 0.94605 0.75905 0.0
C295 C 0.4499 0.90712 0.77257 0.0
C296 C 0.48724 0.98047 0.77687 0.0
C297 C 0.42963 0.94814 0.74773 0.0
C298 C 0.43327 0.95315 0.72176 0.0
C299 C 0.40553 0.95557 0.70711 0.0
C300 C 0.37285 0.95207 0.71928 0.0
C301 C 0.36786 0.94531 0.7457 0.0
C302 C 0.39681 0.94373 0.76009 0.0
H303 H 0.44786 0.39915 0.95115 0.0
H304 H 0.38805 0.36342 0.87888 0.0
H305 H 0.44167 0.42079 0.85845 0.0
H306 H 0.48639 0.50351 0.94105 0.0
H307 H 0.53119 0.51691 0.95716 0.0
H308 H 0.48754 0.47354 0.96626 0.0
H309 H 0.5212 0.43325 0.95891 0.0
H310 H 0.56482 0.4764 0.94963 0.0
H311 H 0.54265 0.43531 0.92855 0.0
H312 H 0.50438 0.47766 0.84513 0.0
H313 H 0.56915 0.5357 0.84063 0.0
H314 H 0.58582 0.53826 0.92198 0.0
C315 C 0.44596 0.40369 0.93109 0.0
C316 C 0.41398 0.3769 0.91653 0.0
C317 C 0.41227 0.38377 0.89037 0.0
C318 C 0.44262 0.41615 0.87858 0.0
C319 C 0.47402 0.44175 0.89336 0.0
C320 C 0.47561 0.43639 0.91912 0.0
C321 C 0.51259 0.46857 0.93062 0.0
C322 C 0.50389 0.49202 0.94991 0.0
C323 C 0.53673 0.4524 0.94263 0.0
C324 C 0.5319 0.49227 0.90718 0.0
C325 C 0.50929 0.47604 0.88586 0.0
C326 C 0.52207 0.49109 0.86172 0.0
C327 C 0.55887 0.52384 0.85933 0.0
C328 C 0.58201 0.54146 0.88099 0.0
C329 C 0.56826 0.52561 0.9052 0.0
H330 H 0.077 0.27591 0.04448 0.0
H331 H 0.15775 0.39947 0.04993 0.0
H332 H 0.20253 0.39231 0.02135 0.0
H333 H 0.14657 0.24737 0.04731 0.0
H334 H 0.12245 0.20754 0.02542 0.0
H335 H 0.09477 0.22297 0.04378 0.0
H336 H 0.06515 0.23268 0.0026 0.0
H337 H 0.09274 0.21719 0.98407 0.0
H338 H 0.09663 0.2635 0.97792 0.0
H339 H 0.24038 0.37119 -0.00501 0.0
H340 H 0.26981 0.33742 0.97364 0.0
H341 H 0.1649 0.22721 0.98596 0.0
C342 C 0.10375 0.30157 0.03924 0.0
C343 C 0.11385 0.33831 0.04924 0.0
C344 C 0.14946 0.37108 0.0424 0.0
C345 C 0.17498 0.36733 0.02612 0.0
C346 C 0.16445 0.3306 0.01689 0.0
C347 C 0.12971 0.29828 0.02319 0.0
C348 C 0.12668 0.26172 0.0123 0.0
C349 C 0.12238 0.23324 0.03347 0.0
C350 C 0.09332 0.24266 -0.00692 0.0
C351 C 0.1655 0.27846 -0.00066 0.0
C352 C 0.18661 0.31829 0.00196 0.0
C353 C 0.224 0.34005 -0.0074 0.0
C354 C 0.24048 0.32055 0.98053 0.0
C355 C 0.21967 0.27963 0.97807 0.0
C356 C 0.18146 0.25851 0.98732 0.0
H357 H 0.79448 0.0933 0.20341 0.0
H358 H 0.75742 0.17581 0.22145 0.0
H359 H 0.8017 0.22044 0.18887 0.0
H360 H 0.89135 0.16034 0.19752 0.0
H361 H 0.90039 0.1361 0.17191 0.0
H362 H 0.86176 0.10858 0.19373 0.0
H363 H 0.81316 0.08116 0.1563 0.0
H364 H 0.85175 0.10875 0.13431 0.0
H365 H 0.80958 0.11408 0.1345 0.0
H366 H 0.8549 0.25866 0.15784 0.0
H367 H 0.91446 0.2886 0.13235 0.0
H368 H 0.91674 0.18089 0.13498 0.0
C369 C 0.79501 0.12038 0.20014 0.0
C370 C 0.77241 0.13106 0.21485 0.0
C371 C 0.77443 0.16704 0.21032 0.0
C372 C 0.79933 0.19246 0.19177 0.0
C373 C 0.82176 0.1813 0.1779 0.0
C374 C 0.81975 0.14606 0.18185 0.0
C375 C 0.84945 0.14243 0.16627 0.0
C376 C 0.87738 0.13654 0.18338 0.0
C377 C 0.8298 0.10966 0.14668 0.0
C378 C 0.86948 0.18171 0.15359 0.0
C379 C 0.85267 0.20346 0.16018 0.0
C380 C 0.86794 0.24171 0.15225 0.0
C381 C 0.90184 0.25847 0.13778 0.0
C382 C 0.92027 0.23708 0.13159 0.0
C383 C 0.90313 0.19789 0.13907 0.0
H384 H 0.62923 0.81254 0.38616 0.0
H385 H 0.71776 0.78371 0.36846 0.0
H386 H 0.73977 0.83003 0.33294 0.0
H387 H 0.60913 0.82961 0.31988 0.0
H388 H 0.60325 0.86991 0.32899 0.0
H389 H 0.59077 0.83059 0.35084 0.0
H390 H 0.6368 0.87933 0.38448 0.0
H391 H 0.6493 0.91868 0.36281 0.0
H392 H 0.68671 0.91165 0.37649 0.0
H393 H 0.75668 0.88367 0.30263 0.0
H394 H 0.76898 0.94313 0.28035 0.0
H395 H 0.66982 0.9379 0.31752 0.0
C396 C 0.65269 0.81541 0.37445 0.0
C397 C 0.6717 0.79446 0.37995 0.0
C398 C 0.70279 0.7995 0.36455 0.0
C399 C 0.71535 0.82554 0.34424 0.0
C400 C 0.69645 0.84625 0.33954 0.0
C401 C 0.66579 0.84154 0.35417 0.0
C402 C 0.65296 0.87003 0.34657 0.0
C403 C 0.61157 0.84875 0.33593 0.0
C404 C 0.65669 0.89649 0.36891 0.0
C405 C 0.68206 0.89231 0.32599 0.0
C406 C 0.70645 0.87767 0.32198 0.0
C407 C 0.73743 0.89508 0.30529 0.0
C408 C 0.74423 0.9289 0.29277 0.0
C409 C 0.72026 0.94504 0.2971 0.0
C410 C 0.68823 0.92588 0.31347 0.0
H411 H 0.79545 0.74215 0.48493 0.0
H412 H 0.68331 0.63757 0.4786 0.0
H413 H 0.70825 0.60135 0.50237 0.0
H414 H 0.85402 0.69443 0.47994 0.0
H415 H 0.88899 0.7268 0.50271 0.0
H416 H 0.86343 0.74346 0.48291 0.0
H417 H 0.84011 0.76342 0.52288 0.0
H418 H 0.86539 0.74669 0.54278 0.0
H419 H 0.81437 0.72785 0.54713 0.0
H420 H 0.74327 0.57823 0.53052 0.0
H421 H 0.78653 0.56965 0.56005 0.0
H422 H 0.87587 0.689 0.54726 0.0
C423 C 0.77628 0.71148 0.48812 0.0
C424 C 0.73742 0.69272 0.47987 0.0
C425 C 0.71323 0.65259 0.48467 0.0
C426 C 0.72713 0.63173 0.49813 0.0
C427 C 0.76536 0.65132 0.50644 0.0
C428 C 0.78969 0.69022 0.50144 0.0
C429 C 0.82886 0.70499 0.51373 0.0
C430 C 0.8607 0.71819 0.49362 0.0
C431 C 0.83767 0.73765 0.53276 0.0
C432 C 0.82239 0.66858 0.527 0.0
C433 C 0.78569 0.63786 0.52243 0.0
C434 C 0.77228 0.6019 0.53394 0.0
C435 C 0.79698 0.59734 0.55073 0.0
C436 C 0.83457 0.62858 0.55579 0.0
C437 C 0.84748 0.66443 0.54348 0.0
H438 H 0.03068 0.78756 0.64212 0.0
H439 H 0.03497 0.681 0.63811 0.0
H440 H 0.09426 0.71094 0.66415 0.0
H441 H 0.13758 0.85582 0.64285 0.0
H442 H 0.13293 0.88758 0.66502 0.0
H443 H 0.09476 0.86005 0.64257 0.0
H444 H 0.04596 0.83101 0.67953 0.0
H445 H 0.08393 0.85791 0.70208 0.0
H446 H 0.0549 0.80596 0.70477 0.0
H447 H 0.14718 0.7488 0.69535 0.0
H448 H 0.19201 0.79327 0.72784 0.0
H449 H 0.15299 0.87494 0.71157 0.0
C450 C 0.04474 0.7709 0.646 0.0
C451 C 0.02826 0.73199 0.63798 0.0
C452 C 0.04713 0.71091 0.64397 0.0
C453 C 0.08087 0.72768 0.65873 0.0
C454 C 0.09547 0.76558 0.66719 0.0
C455 C 0.07829 0.78712 0.6608 0.0
C456 C 0.09764 0.82594 0.67417 0.0
C457 C 0.11688 0.85932 0.65501 0.0
C458 C 0.06889 0.83043 0.69114 0.0
C459 C 0.12746 0.82229 0.68977 0.0
C460 C 0.12603 0.78745 0.68527 0.0
C461 C 0.14906 0.77647 0.69871 0.0
C462 C 0.17424 0.8018 0.71722 0.0
C463 C 0.17603 0.83757 0.72215 0.0
C464 C 0.15254 0.84796 0.70804 0.0
H465 H 0.20691 0.02838 0.81833 0.0
H466 H 0.3198 0.04562 0.79863 0.0
H467 H 0.35082 0.107 0.82243 0.0
H468 H 0.23491 0.1332 0.81721 0.0
H469 H 0.20451 0.12734 0.84392 0.0
H470 H 0.19113 0.08765 0.82225 0.0
H471 H 0.18724 0.04391 0.85979 0.0
H472 H 0.20103 0.08346 0.88151 0.0
H473 H 0.22874 0.05917 0.88011 0.0
H474 H 0.3695 0.16086 0.85303 0.0
H475 H 0.37467 0.20655 0.88639 0.0
H476 H 0.25003 0.15569 0.88569 0.0
C477 C 0.23814 0.04562 0.81838 0.0
C478 C 0.2609 0.03219 0.80657 0.0
C479 C 0.30172 0.05529 0.8075 0.0
C480 C 0.31966 0.09027 0.82094 0.0
C481 C 0.29641 0.10196 0.83314 0.0
C482 C 0.25655 0.08067 0.83173 0.0
C483 C 0.23831 0.09825 0.84816 0.0
C484 C 0.21589 0.11246 0.83191 0.0
C485 C 0.21231 0.06948 0.8686 0.0
C486 C 0.27412 0.13191 0.8597 0.0
C487 C 0.30732 0.13365 0.85064 0.0
C488 C 0.34379 0.16033 0.85991 0.0
C489 C 0.34641 0.18597 0.87895 0.0
C490 C 0.31278 0.18477 0.88844 0.0
C491 C 0.27625 0.15764 0.87847 0.0
H492 H 0.64436 0.71137 0.81495 0.0
H493 H 0.69924 0.795 0.87543 0.0
H494 H 0.67229 0.83402 0.85822 0.0
H495 H 0.66855 0.77785 0.76833 0.0
H496 H 0.62508 0.75229 0.74963 0.0
H497 H 0.63979 0.72573 0.76988 0.0
H498 H 0.57349 0.69408 0.79246 0.0
H499 H 0.55849 0.72059 0.77215 0.0
H500 H 0.55666 0.72438 0.80608 0.0
H501 H 0.65102 0.86952 0.83118 0.0
H502 H 0.63856 0.90082 0.79496 0.0
H503 H 0.59755 0.79581 0.75072 0.0
C504 C 0.64922 0.73708 0.82503 0.0
C505 C 0.67323 0.75005 0.84668 0.0
C506 C 0.68056 0.78458 0.85893 0.0
C507 C 0.66516 0.80674 0.8494 0.0
C508 C 0.64266 0.79403 0.8275 0.0
C509 C 0.63458 0.75999 0.81541 0.0
C510 C 0.61496 0.75623 0.79006 0.0
C511 C 0.63852 0.75285 0.7682 0.0
C512 C 0.57342 0.72177 0.79021 0.0
C513 C 0.6153 0.79443 0.78921 0.0
C514 C 0.63052 0.81525 0.81133 0.0
C515 C 0.63811 0.85317 0.81404 0.0
C516 C 0.63108 0.87075 0.79337 0.0
C517 C 0.61663 0.85045 0.77032 0.0
C518 C 0.60747 0.81144 0.76846 0.0
H519 H 0.79539 0.63386 0.92496 0.0
H520 H 0.75995 0.71586 0.94807 0.0
H521 H 0.81139 0.74248 0.98031 0.0
H522 H 0.82449 0.61853 0.98932 0.0
H523 H 0.86531 0.61607 0.97727 0.0
H524 H 0.82272 0.59997 0.95792 0.0
H525 H 0.86455 0.64701 0.92236 0.0
H526 H 0.90716 0.66343 0.94163 0.0
H527 H 0.89455 0.69789 0.92937 0.0
H528 H 0.87014 0.76544 0.00617 0.0
H529 H 0.93228 0.78181 0.02606 0.0
H530 H 0.9304 0.6847 0.98756 0.0
C531 C 0.79794 0.65675 0.93725 0.0
C532 C 0.77365 0.67276 0.93407 0.0
C533 C 0.77826 0.70319 0.95017 0.0
C534 C 0.80732 0.71846 0.9686 0.0
C535 C 0.83145 0.70285 0.97083 0.0
C536 C 0.82701 0.67249 0.95582 0.0
C537 C 0.8587 0.66303 0.96114 0.0
C538 C 0.84179 0.62196 0.97207 0.0
C539 C 0.88265 0.66816 0.9372 0.0
C540 C 0.88213 0.69358 0.98089 0.0
C541 C 0.86563 0.71602 0.98625 0.0
C542 C 0.88308 0.74773 0.0025 0.0
C543 C 0.91847 0.75692 0.01357 0.0
C544 C 0.93601 0.7344 0.00845 0.0
C545 C 0.91732 0.70202 -0.00788 0.0
H546 H 0.25301 0.93956 0.16091 0.0
H547 H 0.16443 0.94453 0.20522 0.0
H548 H 0.11499 0.88294 0.18622 0.0
H549 H 0.20017 0.90906 0.10566 0.0
H550 H 0.21752 0.87739 0.09542 0.0
H551 H 0.24706 0.9179 0.11569 0.0
H552 H 0.25162 0.87173 0.14833 0.0
H553 H 0.22209 0.83096 0.12807 0.0
H554 H 0.20797 0.83114 0.16043 0.0
H555 H 0.07456 0.82678 0.15895 0.0
H556 H 0.04499 0.77971 0.12414 0.0
H557 H 0.1589 0.81033 0.09665 0.0
C558 C 0.22337 0.927 0.16715 0.0
C559 C 0.21253 0.94657 0.18468 0.0
C560 C 0.17333 0.92993 0.19186 0.0
C561 C 0.14509 0.89485 0.18129 0.0
C562 C 0.1565 0.87677 0.16357 0.0
C563 C 0.19468 0.89213 0.15654 0.0
C564 C 0.19849 0.86916 0.13499 0.0
C565 C 0.21688 0.89491 0.11156 0.0
C566 C 0.2214 0.84958 0.14347 0.0
C567 C 0.15637 0.83948 0.13038 0.0
C568 C 0.13278 0.84406 0.14742 0.0
C569 C 0.09269 0.82239 0.14578 0.0
C570 C 0.07618 0.79586 0.12589 0.0
C571 C 0.09969 0.79128 0.10785 0.0
C572 C 0.14029 0.81272 0.11049 0.0
H573 H 0.28297 0.0949 0.27701 0.0
H574 H 0.3981 0.18318 0.25417 0.0
H575 H 0.39161 0.23171 0.27959 0.0
H576 H 0.24059 0.15198 0.27196 0.0
H577 H 0.20921 0.13142 0.29889 0.0
H578 H 0.22486 0.10291 0.28165 0.0
H579 H 0.25247 0.0908 0.32297 0.0
H580 H 0.23662 0.11908 0.34044 0.0
H581 H 0.28657 0.13151 0.34173 0.0
H582 H 0.36969 0.27159 0.30422 0.0
H583 H 0.33479 0.29924 0.32652 0.0
H584 H 0.23408 0.18416 0.33255 0.0
C585 C 0.30718 0.12426 0.27774 0.0
C586 C 0.34107 0.1353 0.26368 0.0
C587 C 0.37191 0.17409 0.2649 0.0
C588 C 0.3685 0.20182 0.27929 0.0
C589 C 0.33419 0.19012 0.29241 0.0
C590 C 0.30422 0.15216 0.29189 0.0
C591 C 0.26941 0.14736 0.30617 0.0
C592 C 0.23395 0.13256 0.28861 0.0
C593 C 0.26078 0.12061 0.32919 0.0
C594 C 0.28404 0.18876 0.31427 0.0
C595 C 0.32157 0.21299 0.3064 0.0
C596 C 0.34046 0.25282 0.31074 0.0
C597 C 0.32035 0.26825 0.32335 0.0
C598 C 0.28169 0.24388 0.33132 0.0
C599 C 0.26364 0.2036 0.32686 0.0
H600 H 0.16493 0.352 0.42467 0.0
H601 H 0.20607 0.2737 0.44592 0.0
H602 H 0.16047 0.2498 0.48166 0.0
H603 H 0.14415 0.37229 0.49025 0.0
H604 H 0.10101 0.37216 0.4801 0.0
H605 H 0.14111 0.38784 0.45866 0.0
H606 H 0.09589 0.33716 0.42564 0.0
H607 H 0.05578 0.32133 0.44693 0.0
H608 H 0.06821 0.28684 0.43464 0.0
H609 H 0.10614 0.22873 0.51126 0.0
H610 H 0.04477 0.21034 0.53267 0.0
H611 H 0.0374 0.30157 0.49256 0.0
C612 C 0.165 0.33059 0.43729 0.0
C613 C 0.18915 0.31485 0.43271 0.0
C614 C 0.18783 0.28616 0.44918 0.0
C615 C 0.16221 0.27259 0.4696 0.0
C616 C 0.13815 0.28802 0.47329 0.0
C617 C 0.13927 0.31642 0.45767 0.0
C618 C 0.10744 0.32503 0.46425 0.0
C619 C 0.12446 0.36682 0.47389 0.0
C620 C 0.08023 0.3171 0.44151 0.0
C621 C 0.08745 0.296 0.48536 0.0
C622 C 0.10612 0.27547 0.49051 0.0
C623 C 0.0916 0.24501 0.50775 0.0
C624 C 0.05663 0.23468 0.51972 0.0
C625 C 0.03647 0.25467 0.51435 0.0
C626 C 0.05259 0.28631 0.49738 0.0
H627 H 0.80197 0.16031 0.59369 0.0
H628 H 0.9158 0.19429 0.62364 0.0
H629 H 0.88617 0.14886 0.65918 0.0
H630 H 0.75152 0.14202 0.6564 0.0
H631 H 0.70853 0.10041 0.64436 0.0
H632 H 0.73818 0.14024 0.62356 0.0
H633 H 0.74444 0.09288 0.593 0.0
H634 H 0.715 0.05304 0.61368 0.0
H635 H 0.76248 0.06252 0.60495 0.0
H636 H 0.84585 0.09462 0.68771 0.0
H637 H 0.79674 0.03393 0.70766 0.0
H638 H 0.70826 0.03403 0.65981 0.0
C639 C 0.8205 0.1589 0.60815 0.0
C640 C 0.86111 0.18087 0.60606 0.0
C641 C 0.88459 0.17766 0.62494 0.0
C642 C 0.86805 0.15214 0.64528 0.0
C643 C 0.82797 0.13007 0.6465 0.0
C644 C 0.80439 0.1332 0.62854 0.0
C645 C 0.76237 0.10315 0.63291 0.0
C646 C 0.73876 0.12263 0.63972 0.0
C647 C 0.74508 0.07632 0.60977 0.0
C648 C 0.7663 0.08176 0.65545 0.0
C649 C 0.80436 0.09823 0.66319 0.0
C650 C 0.81583 0.08183 0.68218 0.0
C651 C 0.78776 0.04727 0.69331 0.0
C652 C 0.7487 0.02945 0.68539 0.0
C653 C 0.73778 0.04744 0.66659 0.0
H654 H 0.14706 0.27486 0.28528 0.0
H655 H 0.21648 0.39814 0.30037 0.0
H656 H 0.19425 0.41203 0.25989 0.0
H657 H 0.16768 0.28175 0.21919 0.0
H658 H 0.12021 0.24326 0.21043 0.0
H659 H 0.13967 0.2432 0.24123 0.0
H660 H 0.07963 0.23965 0.26244 0.0
H661 H 0.05993 0.23959 0.2317 0.0
H662 H 0.0665 0.27565 0.25481 0.0
H663 H 0.16314 0.41195 0.21793 0.0
H664 H 0.12963 0.39819 0.17646 0.0
H665 H 0.08486 0.27518 0.18793 0.0
C666 C 0.15723 0.30478 0.28021 0.0
C667 C 0.1831 0.33547 0.29604 0.0
C668 C 0.19651 0.37424 0.2885 0.0
C669 C 0.18399 0.38237 0.26561 0.0
C670 C 0.15858 0.35139 0.25037 0.0
C671 C 0.14568 0.31339 0.25727 0.0
C672 C 0.12011 0.28538 0.23699 0.0
C673 C 0.138 0.26204 0.22633 0.0
C674 C 0.07911 0.25849 0.24709 0.0
C675 C 0.1205 0.31352 0.2176 0.0
C676 C 0.14243 0.35144 0.22576 0.0
C677 C 0.14611 0.38239 0.21128 0.0
C678 C 0.12695 0.37431 0.18781 0.0
C679 C 0.10501 0.33569 0.17893 0.0
C680 C 0.10189 0.30504 0.19408 0.0
H681 H 0.876 0.15093 0.45668 0.0
H682 H 0.82529 0.22205 0.47426 0.0
H683 H 0.7925 0.20599 0.4324 0.0
H684 H 0.8958 0.18006 0.39155 0.0
H685 H 0.88594 0.13313 0.38064 0.0
H686 H 0.90352 0.14867 0.41239 0.0
H687 H 0.84446 0.08696 0.43037 0.0
H688 H 0.82674 0.07119 0.39869 0.0
H689 H 0.79639 0.07612 0.42177 0.0
H690 H 0.76287 0.1791 0.38914 0.0
H691 H 0.74422 0.14918 0.34648 0.0
H692 H 0.81987 0.10144 0.35622 0.0
C693 C 0.85772 0.16284 0.45178 0.0
C694 C 0.85266 0.18727 0.46872 0.0
C695 C 0.82931 0.20312 0.4615 0.0
C696 C 0.81056 0.19409 0.43784 0.0
C697 C 0.8162 0.16988 0.42152 0.0
C698 C 0.83968 0.15496 0.42808 0.0
C699 C 0.84262 0.13128 0.40675 0.0
C700 C 0.88446 0.14938 0.39728 0.0
C701 C 0.82659 0.08888 0.41489 0.0
C702 C 0.81686 0.13486 0.3872 0.0
C703 C 0.80139 0.15674 0.39615 0.0
C704 C 0.77521 0.16235 0.38183 0.0
C705 C 0.76474 0.14524 0.3577 0.0
C706 C 0.7811 0.1236 0.34803 0.0
C707 C 0.80756 0.11854 0.36299 0.0
H708 H 0.66299 0.89423 0.61569 0.0
H709 H 0.60999 0.78669 0.65796 0.0
H710 H 0.60019 0.74996 0.61809 0.0
H711 H 0.60543 0.85865 0.5577 0.0
H712 H 0.64605 0.8869 0.53726 0.0
H713 H 0.64498 0.90424 0.56858 0.0
H714 H 0.71093 0.90972 0.57895 0.0
H715 H 0.7123 0.89262 0.54765 0.0
H716 H 0.71652 0.86788 0.57502 0.0
H717 H 0.59672 0.72546 0.57382 0.0
H718 H 0.60778 0.71487 0.52933 0.0
H719 H 0.66871 0.8391 0.51648 0.0
C720 C 0.64885 0.8629 0.61635 0.0
C721 C 0.6366 0.84293 0.63956 0.0
C722 C 0.61918 0.80215 0.64015 0.0
C723 C 0.61337 0.78119 0.61765 0.0
C724 C 0.62582 0.80168 0.59495 0.0
C725 C 0.64378 0.84167 0.59418 0.0
C726 C 0.65782 0.85691 0.56773 0.0
C727 C 0.63734 0.87791 0.5572 0.0
C728 C 0.70201 0.88333 0.56732 0.0
C729 C 0.64527 0.81926 0.55377 0.0
C730 C 0.62606 0.78773 0.5697 0.0
C731 C 0.61174 0.74991 0.56117 0.0
C732 C 0.618 0.74419 0.53584 0.0
C733 C 0.63913 0.77617 0.51948 0.0
C734 C 0.65249 0.81413 0.52856 0.0
H735 H 0.86759 0.70239 0.69185 0.0
H736 H 0.82152 0.57828 0.68625 0.0
H737 H 0.78976 0.56932 0.72784 0.0
H738 H 0.88848 0.70905 0.75882 0.0
H739 H 0.87603 0.74607 0.7643 0.0
H740 H 0.8943 0.7425 0.7339 0.0
H741 H 0.83364 0.73697 0.71197 0.0
H742 H 0.8152 0.74057 0.74229 0.0
H743 H 0.78633 0.69975 0.72193 0.0
H744 H 0.76059 0.57388 0.769 0.0
H745 H 0.73995 0.59186 0.8083 0.0
H746 H 0.80905 0.71342 0.78829 0.0
C747 C 0.85066 0.6733 0.69932 0.0
C748 C 0.84666 0.64094 0.68577 0.0
C749 C 0.82486 0.60342 0.69635 0.0
C750 C 0.8067 0.59807 0.7199 0.0
C751 C 0.81121 0.63061 0.73276 0.0
C752 C 0.83301 0.66753 0.72298 0.0
C753 C 0.83422 0.69776 0.74089 0.0
C754 C 0.87573 0.72547 0.75002 0.0
C755 C 0.81627 0.72006 0.72853 0.0
C756 C 0.80928 0.67204 0.76218 0.0
C757 C 0.79601 0.63338 0.75702 0.0
C758 C 0.77112 0.60406 0.77337 0.0
C759 C 0.75949 0.61455 0.79558 0.0
C760 C 0.7732 0.65402 0.8014 0.0
C761 C 0.7986 0.68306 0.78451 0.0
H762 H 0.14154 0.81267 0.85114 0.0
H763 H 0.26055 0.89816 0.86823 0.0
H764 H 0.24908 0.88017 0.91351 0.0
H765 H 0.09964 0.82789 0.90276 0.0
H766 H 0.0639 0.77789 0.90831 0.0
H767 H 0.08272 0.79358 0.87697 0.0
H768 H 0.10347 0.74162 0.87498 0.0
H769 H 0.08431 0.72544 0.90631 0.0
H770 H 0.13387 0.73983 0.89962 0.0
H771 H 0.22113 0.8619 0.95729 0.0
H772 H 0.18084 0.83834 -0.00406 0.0
H773 H 0.08197 0.7603 0.95024 0.0
C774 C 0.16543 0.82684 0.86434 0.0
C775 C 0.20191 0.85678 0.85626 0.0
C776 C 0.23248 0.87488 0.87403 0.0
C777 C 0.2262 0.86493 0.89978 0.0
C778 C 0.18949 0.83613 0.90728 0.0
C779 C 0.15988 0.81663 0.88998 0.0
C780 C 0.12265 0.78814 0.90303 0.0
C781 C 0.09035 0.79746 0.89744 0.0
C782 C 0.11036 0.74627 0.89554 0.0
C783 C 0.13541 0.796 0.93045 0.0
C784 C 0.17408 0.82381 0.93253 0.0
C785 C 0.1912 0.83921 0.95594 0.0
C786 C 0.16817 0.82586 0.97772 0.0
C787 C 0.12878 0.79699 0.97592 0.0
C788 C 0.11241 0.78149 0.95207 0.0
H789 H 0.30217 0.07896 0.11436 0.0
H790 H 0.38256 0.18389 0.15407 0.0
H791 H 0.39401 0.22168 0.11447 0.0
H792 H 0.35215 0.10492 0.05162 0.0
H793 H 0.30695 0.08301 0.03457 0.0
H794 H 0.31007 0.0638 0.06487 0.0
H795 H 0.2537 0.07205 0.08145 0.0
H796 H 0.25058 0.0915 0.05136 0.0
H797 H 0.25754 0.11905 0.07991 0.0
H798 H 0.39139 0.24852 0.07169 0.0
H799 H 0.37386 0.2627 0.02968 0.0
H800 H 0.29354 0.13998 0.01854 0.0
C801 C 0.32308 0.10969 0.11436 0.0
C802 C 0.34226 0.12869 0.13681 0.0
C803 C 0.36836 0.16903 0.13671 0.0
C804 C 0.37496 0.19059 0.11438 0.0
C805 C 0.35507 0.17118 0.09248 0.0
C806 C 0.32976 0.13158 0.09229 0.0
C807 C 0.30925 0.11823 0.06704 0.0
C808 C 0.32028 0.09087 0.05374 0.0
C809 C 0.26517 0.0991 0.07014 0.0
C810 C 0.32587 0.15663 0.05335 0.0
C811 C 0.35277 0.18675 0.06812 0.0
C812 C 0.37071 0.2251 0.05984 0.0
C813 C 0.36055 0.23288 0.03596 0.0
C814 C 0.3323 0.20248 0.02081 0.0
C815 C 0.31527 0.16388 0.02961 0.0
loop_
_geom_bond_atom_site_label_1
_geom_bond_atom_site_label_2
_geom_bond_distance
_geom_bond_site_symmetry_2
_ccdc_geom_bond_type
C0 O1 1.306 . S
C0 O3 1.160 1_655 S
O1 C0 1.306 . S
O1 Cd2 2.228 1_655 S
Cd2 O1 2.228 1_455 S
Cd2 O6 2.273 . S
Cd2 O10 2.277 . S
O3 C0 1.160 1_455 S
O3 Cd4 2.203 . S
Cd4 O3 2.203 . S
Cd4 O6 2.411 . S
Cd4 O7 2.333 . S
Cd4 O8 2.352 . S
Cd4 O12 2.277 . S
Cd4 O13 2.356 . S
C5 O10 1.209 . S
C5 O12 1.226 . S
O6 Cd2 2.273 . S
O6 Cd4 2.411 . S
O6 C9 1.320 . S
O7 Cd4 2.333 . S
O7 C9 1.214 . S
O8 Cd4 2.352 . S
O8 C11 1.258 . S
C9 O6 1.320 . S
C9 O7 1.214 . S
O10 Cd2 2.277 . S
O10 C5 1.209 . S
C11 O8 1.258 . S
C11 O13 1.282 . S
O12 Cd4 2.277 . S
O12 C5 1.226 . S
O13 Cd4 2.356 . S
O13 C11 1.282 . S
C14 O15 1.306 . S
C14 O17 1.160 1_565 S
O15 C14 1.306 . S
O15 Cd16 2.228 1_565 S
Cd16 O15 2.228 1_545 S
Cd16 O20 2.273 . S
Cd16 O24 2.277 . S
O17 C14 1.160 1_545 S
O17 Cd18 2.203 . S
Cd18 O17 2.203 . S
Cd18 O20 2.411 . S
Cd18 O21 2.333 . S
Cd18 O22 2.352 . S
Cd18 O26 2.277 . S
Cd18 O27 2.356 . S
C19 O24 1.209 . S
C19 O26 1.226 . S
O20 Cd16 2.273 . S
O20 Cd18 2.411 . S
O20 C23 1.320 . S
O21 Cd18 2.333 . S
O21 C23 1.214 . S
O22 Cd18 2.352 . S
O22 C25 1.258 . S
C23 O20 1.320 . S
C23 O21 1.214 . S
O24 Cd16 2.277 . S
O24 C19 1.209 . S
C25 O22 1.258 . S
C25 O27 1.282 . S
O26 Cd18 2.277 . S
O26 C19 1.226 . S
O27 Cd18 2.356 . S
O27 C25 1.282 . S
C28 O29 1.306 . S
C28 O31 1.160 . S
O29 C28 1.306 . S
O29 Cd30 2.228 . S
Cd30 O29 2.228 . S
Cd30 O34 2.273 . S
Cd30 O38 2.277 . S
O31 C28 1.160 . S
O31 Cd32 2.203 . S
Cd32 O31 2.203 . S
Cd32 O34 2.411 . S
Cd32 O35 2.333 . S
Cd32 O36 2.352 . S
Cd32 O40 2.277 . S
Cd32 O41 2.356 . S
C33 O38 1.209 . S
C33 O40 1.226 . S
O34 Cd30 2.273 . S
O34 Cd32 2.411 . S
O34 C37 1.320 . S
O35 Cd32 2.333 . S
O35 C37 1.214 . S
O36 Cd32 2.352 . S
O36 C39 1.258 . S
C37 O34 1.320 . S
C37 O35 1.214 . S
O38 Cd30 2.277 . S
O38 C33 1.209 . S
C39 O36 1.258 . S
C39 O41 1.282 . S
O40 Cd32 2.277 . S
O40 C33 1.226 . S
O41 Cd32 2.356 . S
O41 C39 1.282 . S
C42 O43 1.306 . S
C42 O45 1.160 1_455 S
O43 C42 1.306 . S
O43 Cd44 2.228 1_455 S
Cd44 O43 2.228 1_655 S
Cd44 O48 2.273 . S
Cd44 O52 2.277 . S
O45 C42 1.160 1_655 S
O45 Cd46 2.203 . S
Cd46 O45 2.203 . S
Cd46 O48 2.411 . S
Cd46 O49 2.333 . S
Cd46 O50 2.352 . S
Cd46 O54 2.277 . S
Cd46 O55 2.356 . S
C47 O52 1.209 . S
C47 O54 1.226 . S
O48 Cd44 2.273 . S
O48 Cd46 2.411 . S
O48 C51 1.320 . S
O49 Cd46 2.333 . S
O49 C51 1.214 . S
O50 Cd46 2.352 . S
O50 C53 1.258 . S
C51 O48 1.320 . S
C51 O49 1.214 . S
O52 Cd44 2.277 . S
O52 C47 1.209 . S
C53 O50 1.258 . S
C53 O55 1.282 . S
O54 Cd46 2.277 . S
O54 C47 1.226 . S
O55 Cd46 2.356 . S
O55 C53 1.282 . S
C56 O57 1.306 . S
C56 O59 1.160 1_545 S
O57 C56 1.306 . S
O57 Cd58 2.228 1_545 S
Cd58 O57 2.228 1_565 S
Cd58 O62 2.273 . S
Cd58 O66 2.277 . S
O59 C56 1.160 1_565 S
O59 Cd60 2.203 . S
Cd60 O59 2.203 . S
Cd60 O62 2.411 . S
Cd60 O63 2.333 . S
Cd60 O64 2.352 . S
Cd60 O68 2.277 . S
Cd60 O69 2.356 . S
C61 O66 1.209 . S
C61 O68 1.226 . S
O62 Cd58 2.273 . S
O62 Cd60 2.411 . S
O62 C65 1.320 . S
O63 Cd60 2.333 . S
O63 C65 1.214 . S
O64 Cd60 2.352 . S
O64 C67 1.258 . S
C65 O62 1.320 . S
C65 O63 1.214 . S
O66 Cd58 2.277 . S
O66 C61 1.209 . S
C67 O64 1.258 . S
C67 O69 1.282 . S
O68 Cd60 2.277 . S
O68 C61 1.226 . S
O69 Cd60 2.356 . S
O69 C67 1.282 . S
C70 O71 1.306 . S
C70 O73 1.160 . S
O71 C70 1.306 . S
O71 Cd72 2.228 . S
Cd72 O71 2.228 . S
Cd72 O76 2.273 . S
Cd72 O80 2.277 . S
O73 C70 1.160 . S
O73 Cd74 2.203 . S
Cd74 O73 2.203 . S
Cd74 O76 2.411 . S
Cd74 O77 2.333 . S
Cd74 O78 2.352 . S
Cd74 O82 2.277 1_556 S
Cd74 O83 2.356 . S
C75 O80 1.209 1_554 S
C75 O82 1.226 . S
O76 Cd72 2.273 . S
O76 Cd74 2.411 . S
O76 C79 1.320 . S
O77 Cd74 2.333 . S
O77 C79 1.214 . S
O78 Cd74 2.352 . S
O78 C81 1.258 . S
C79 O76 1.320 . S
C79 O77 1.214 . S
O80 Cd72 2.277 . S
O80 C75 1.209 1_556 S
C81 O78 1.258 . S
C81 O83 1.282 . S
O82 Cd74 2.277 1_554 S
O82 C75 1.226 . S
O83 Cd74 2.356 . S
O83 C81 1.282 . S
C84 O85 1.306 . S
C84 O87 1.160 1_545 S
O85 C84 1.306 . S
O85 Cd86 2.228 1_545 S
Cd86 O85 2.228 1_565 S
Cd86 O90 2.273 . S
Cd86 O94 2.277 . S
O87 C84 1.160 1_565 S
O87 Cd88 2.203 . S
Cd88 O87 2.203 . S
Cd88 O90 2.411 . S
Cd88 O91 2.333 . S
Cd88 O92 2.352 . S
Cd88 O96 2.277 . S
Cd88 O97 2.356 . S
C89 O94 1.209 . S
C89 O96 1.226 . S
O90 Cd86 2.273 . S
O90 Cd88 2.411 . S
O90 C93 1.320 . S
O91 Cd88 2.333 . S
O91 C93 1.214 . S
O92 Cd88 2.352 . S
O92 C95 1.258 . S
C93 O90 1.320 . S
C93 O91 1.214 . S
O94 Cd86 2.277 . S
O94 C89 1.209 . S
C95 O92 1.258 . S
C95 O97 1.282 . S
O96 Cd88 2.277 . S
O96 C89 1.226 . S
O97 Cd88 2.356 . S
O97 C95 1.282 . S
C98 O99 1.306 . S
C98 O101 1.160 . S
O99 C98 1.306 . S
O99 Cd100 2.228 . S
Cd100 O99 2.228 . S
Cd100 O104 2.273 . S
Cd100 O108 2.277 . S
O101 C98 1.160 . S
O101 Cd102 2.203 . S
Cd102 O101 2.203 . S
Cd102 O104 2.411 . S
Cd102 O105 2.333 . S
Cd102 O106 2.352 . S
Cd102 O110 2.277 . S
Cd102 O111 2.356 . S
C103 O108 1.209 . S
C103 O110 1.226 . S
O104 Cd100 2.273 . S
O104 Cd102 2.411 . S
O104 C107 1.320 . S
O105 Cd102 2.333 . S
O105 C107 1.214 . S
O106 Cd102 2.352 . S
O106 C109 1.258 . S
C107 O104 1.320 . S
C107 O105 1.214 . S
O108 Cd100 2.277 . S
O108 C103 1.209 . S
C109 O106 1.258 . S
C109 O111 1.282 . S
O110 Cd102 2.277 . S
O110 C103 1.226 . S
O111 Cd102 2.356 . S
O111 C109 1.282 . S
C112 O113 1.306 . S
C112 O115 1.160 1_655 S
O113 C112 1.306 . S
O113 Cd114 2.228 1_655 S
Cd114 O113 2.228 1_455 S
Cd114 O118 2.273 . S
Cd114 O122 2.277 . S
O115 C112 1.160 1_455 S
O115 Cd116 2.203 . S
Cd116 O115 2.203 . S
Cd116 O118 2.411 . S
Cd116 O119 2.333 . S
Cd116 O120 2.352 . S
Cd116 O124 2.277 1_554 S
Cd116 O125 2.356 . S
C117 O122 1.209 1_556 S
C117 O124 1.226 . S
O118 Cd114 2.273 . S
O118 Cd116 2.411 . S
O118 C121 1.320 . S
O119 Cd116 2.333 . S
O119 C121 1.214 . S
O120 Cd116 2.352 . S
O120 C123 1.258 . S
C121 O118 1.320 . S
C121 O119 1.214 . S
O122 Cd114 2.277 . S
O122 C117 1.209 1_554 S
C123 O120 1.258 . S
C123 O125 1.282 . S
O124 Cd116 2.277 1_556 S
O124 C117 1.226 . S
O125 Cd116 2.356 . S
O125 C123 1.282 . S
C126 O127 1.306 . S
C126 O129 1.160 1_565 S
O127 C126 1.306 . S
O127 Cd128 2.228 1_565 S
Cd128 O127 2.228 1_545 S
Cd128 O132 2.273 . S
Cd128 O136 2.277 . S
O129 C126 1.160 1_545 S
O129 Cd130 2.203 . S
Cd130 O129 2.203 . S
Cd130 O132 2.411 . S
Cd130 O133 2.333 . S
Cd130 O134 2.352 . S
Cd130 O138 2.277 . S
Cd130 O139 2.356 . S
C131 O136 1.209 . S
C131 O138 1.226 . S
O132 Cd128 2.273 . S
O132 Cd130 2.411 . S
O132 C135 1.320 . S
O133 Cd130 2.333 . S
O133 C135 1.214 . S
O134 Cd130 2.352 . S
O134 C137 1.258 . S
C135 O132 1.320 . S
C135 O133 1.214 . S
O136 Cd128 2.277 . S
O136 C131 1.209 . S
C137 O134 1.258 . S
C137 O139 1.282 . S
O138 Cd130 2.277 . S
O138 C131 1.226 . S
O139 Cd130 2.356 . S
O139 C137 1.282 . S
C140 O141 1.306 . S
C140 O143 1.160 . S
O141 C140 1.306 . S
O141 Cd142 2.228 . S
Cd142 O141 2.228 . S
Cd142 O146 2.273 . S
Cd142 O150 2.277 . S
O143 C140 1.160 . S
O143 Cd144 2.203 . S
Cd144 O143 2.203 . S
Cd144 O146 2.411 . S
Cd144 O147 2.333 . S
Cd144 O148 2.352 . S
Cd144 O152 2.277 . S
Cd144 O153 2.356 . S
C145 O150 1.209 . S
C145 O152 1.226 . S
O146 Cd142 2.273 . S
O146 Cd144 2.411 . S
O146 C149 1.320 . S
O147 Cd144 2.333 . S
O147 C149 1.214 . S
O148 Cd144 2.352 . S
O148 C151 1.258 . S
C149 O146 1.320 . S
C149 O147 1.214 . S
O150 Cd142 2.277 . S
O150 C145 1.209 . S
C151 O148 1.258 . S
C151 O153 1.282 . S
O152 Cd144 2.277 . S
O152 C145 1.226 . S
O153 Cd144 2.356 . S
O153 C151 1.282 . S
C154 O155 1.306 . S
C154 O157 1.160 1_455 S
O155 C154 1.306 . S
O155 Cd156 2.228 1_455 S
Cd156 O155 2.228 1_655 S
Cd156 O160 2.273 . S
Cd156 O164 2.277 . S
O157 C154 1.160 1_655 S
O157 Cd158 2.203 . S
Cd158 O157 2.203 . S
Cd158 O160 2.411 . S
Cd158 O161 2.333 . S
Cd158 O162 2.352 . S
Cd158 O166 2.277 . S
Cd158 O167 2.356 . S
C159 O164 1.209 . S
C159 O166 1.226 . S
O160 Cd156 2.273 . S
O160 Cd158 2.411 . S
O160 C163 1.320 . S
O161 Cd158 2.333 . S
O161 C163 1.214 . S
O162 Cd158 2.352 . S
O162 C165 1.258 . S
C163 O160 1.320 . S
C163 O161 1.214 . S
O164 Cd156 2.277 . S
O164 C159 1.209 . S
C165 O162 1.258 . S
C165 O167 1.282 . S
O166 Cd158 2.277 . S
O166 C159 1.226 . S
O167 Cd158 2.356 . S
O167 C165 1.282 . S
H168 C180 0.930 . S
H169 C182 0.930 . S
H170 C183 0.930 . S
H171 C187 0.959 . S
H172 C187 0.959 . S
H173 C187 0.961 . S
H174 C188 0.960 . S
H175 C188 0.961 . S
H176 C188 0.959 . S
H177 C191 0.929 . S
H178 C192 0.931 . S
H179 C194 0.930 . S
C180 H168 0.930 . S
C180 C181 1.399 . S
C180 C185 1.399 . S
C181 C180 1.399 . S
C181 C182 1.376 . S
C182 H169 0.930 . S
C182 C181 1.376 . S
C182 C183 1.388 . S
C183 H170 0.930 . S
C183 C182 1.388 . S
C183 C184 1.390 . S
C184 C183 1.390 . S
C184 C185 1.394 . S
C184 C190 1.465 . S
C185 C180 1.399 . S
C185 C184 1.394 . S
C185 C186 1.516 . S
C186 C185 1.516 . S
C186 C187 1.502 1_455 S
C186 C188 1.561 . S
C186 C189 1.526 . S
C187 H171 0.959 . S
C187 H172 0.959 . S
C187 H173 0.961 . S
C187 C186 1.502 1_655 S
C188 H174 0.960 . S
C188 H175 0.961 . S
C188 H176 0.959 . S
C188 C186 1.561 . S
C189 C186 1.526 . S
C189 C190 1.396 . S
C189 C194 1.390 . S
C190 C184 1.465 . S
C190 C189 1.396 . S
C190 C191 1.399 . S
C191 H177 0.929 . S
C191 C190 1.399 . S
C191 C192 1.385 . S
C192 H178 0.931 . S
C192 C191 1.385 . S
C192 C193 1.389 . S
C193 C192 1.389 . S
C193 C194 1.387 . S
C194 H179 0.930 . S
C194 C189 1.390 . S
C194 C193 1.387 . S
H195 C207 0.930 1_565 S
H196 C209 0.930 . S
H197 C210 0.930 . S
H198 C214 0.959 1_545 S
H199 C214 0.959 . S
H200 C214 0.961 . S
H201 C215 0.960 . S
H202 C215 0.961 . S
H203 C215 0.959 . S
H204 C218 0.929 . S
H205 C219 0.931 . S
H206 C221 0.930 1_565 S
C207 H195 0.930 1_545 S
C207 C208 1.399 . S
C207 C212 1.399 . S
C208 C207 1.399 . S
C208 C209 1.376 . S
C209 H196 0.930 . S
C209 C208 1.376 . S
C209 C210 1.388 . S
C210 H197 0.930 . S
C210 C209 1.388 . S
C210 C211 1.390 . S
C211 C210 1.390 . S
C211 C212 1.394 . S
C211 C217 1.465 . S
C212 C207 1.399 . S
C212 C211 1.394 . S
C212 C213 1.516 1_545 S
C213 C212 1.516 1_565 S
C213 C214 1.502 . S
C213 C215 1.561 . S
C213 C216 1.526 1_565 S
C214 H198 0.959 1_565 S
C214 H199 0.959 . S
C214 H200 0.961 . S
C214 C213 1.502 . S
C215 H201 0.960 . S
C215 H202 0.961 . S
C215 H203 0.959 . S
C215 C213 1.561 . S
C216 C213 1.526 1_545 S
C216 C217 1.396 . S
C216 C221 1.390 . S
C217 C211 1.465 . S
C217 C216 1.396 . S
C217 C218 1.399 . S
C218 H204 0.929 . S
C218 C217 1.399 . S
C218 C219 1.385 . S
C219 H205 0.931 . S
C219 C218 1.385 . S
C219 C220 1.389 . S
C220 C219 1.389 . S
C220 C221 1.387 . S
C221 H206 0.930 1_545 S
C221 C216 1.390 . S
C221 C220 1.387 . S
H222 C234 0.930 . S
H223 C236 0.930 . S
H224 C237 0.930 . S
H225 C241 0.959 . S
H226 C241 0.959 . S
H227 C241 0.961 . S
H228 C242 0.960 . S
H229 C242 0.961 . S
H230 C242 0.959 . S
H231 C245 0.929 . S
H232 C246 0.931 . S
H233 C248 0.930 . S
C234 H222 0.930 . S
C234 C235 1.399 . S
C234 C239 1.399 . S
C235 C234 1.399 . S
C235 C236 1.376 . S
C236 H223 0.930 . S
C236 C235 1.376 . S
C236 C237 1.388 . S
C237 H224 0.930 . S
C237 C236 1.388 . S
C237 C238 1.390 . S
C238 C237 1.390 . S
C238 C239 1.394 . S
C238 C244 1.465 . S
C239 C234 1.399 . S
C239 C238 1.394 . S
C239 C240 1.516 . S
C240 C239 1.516 . S
C240 C241 1.502 . S
C240 C242 1.561 . S
C240 C243 1.526 . S
C241 H225 0.959 . S
C241 H226 0.959 . S
C241 H227 0.961 . S
C241 C240 1.502 . S
C242 H228 0.960 . S
C242 H229 0.961 . S
C242 H230 0.959 . S
C242 C240 1.561 . S
C243 C240 1.526 . S
C243 C244 1.396 . S
C243 C248 1.390 . S
C244 C238 1.465 . S
C244 C243 1.396 . S
C244 C245 1.399 . S
C245 H231 0.929 . S
C245 C244 1.399 . S
C245 C246 1.385 . S
C246 H232 0.931 . S
C246 C245 1.385 . S
C246 C247 1.389 . S
C247 C246 1.389 . S
C247 C248 1.387 . S
C248 H233 0.930 . S
C248 C243 1.390 . S
C248 C247 1.387 . S
H249 C261 0.930 . S
H250 C263 0.930 . S
H251 C264 0.930 . S
H252 C268 0.959 . S
H253 C268 0.959 . S
H254 C268 0.961 . S
H255 C269 0.960 . S
H256 C269 0.961 . S
H257 C269 0.959 . S
H258 C272 0.929 . S
H259 C273 0.931 . S
H260 C275 0.930 . S
C261 H249 0.930 . S
C261 C262 1.399 . S
C261 C266 1.399 . S
C262 C261 1.399 . S
C262 C263 1.376 . S
C263 H250 0.930 . S
C263 C262 1.376 . S
C263 C264 1.388 . S
C264 H251 0.930 . S
C264 C263 1.388 . S
C264 C265 1.390 . S
C265 C264 1.390 . S
C265 C266 1.394 . S
C265 C271 1.465 . S
C266 C261 1.399 . S
C266 C265 1.394 . S
C266 C267 1.516 . S
C267 C266 1.516 . S
C267 C268 1.502 . S
C267 C269 1.561 1_655 S
C267 C270 1.526 . S
C268 H252 0.959 . S
C268 H253 0.959 . S
C268 H254 0.961 . S
C268 C267 1.502 . S
C269 H255 0.960 . S
C269 H256 0.961 . S
C269 H257 0.959 . S
C269 C267 1.561 1_455 S
C270 C267 1.526 . S
C270 C271 1.396 . S
C270 C275 1.390 . S
C271 C265 1.465 . S
C271 C270 1.396 . S
C271 C272 1.399 . S
C272 H258 0.929 . S
C272 C271 1.399 . S
C272 C273 1.385 . S
C273 H259 0.931 . S
C273 C272 1.385 . S
C273 C274 1.389 . S
C274 C273 1.389 . S
C274 C275 1.387 . S
C275 H260 0.930 . S
C275 C270 1.390 . S
C275 C274 1.387 . S
H276 C288 0.930 1_545 S
H277 C290 0.930 . S
H278 C291 0.930 . S
H279 C295 0.959 1_565 S
H280 C295 0.959 . S
H281 C295 0.961 . S
H282 C296 0.960 . S
H283 C296 0.961 . S
H284 C296 0.959 . S
H285 C299 0.929 . S
H286 C300 0.931 . S
H287 C302 0.930 1_545 S
C288 H276 0.930 1_565 S
C288 C289 1.399 . S
C288 C293 1.399 . S
C289 C288 1.399 . S
C289 C290 1.376 . S
C290 H277 0.930 . S
C290 C289 1.376 . S
C290 C291 1.388 . S
C291 H278 0.930 . S
C291 C290 1.388 . S
C291 C292 1.390 . S
C292 C291 1.390 . S
C292 C293 1.394 . S
C292 C298 1.465 . S
C293 C288 1.399 . S
C293 C292 1.394 . S
C293 C294 1.516 1_565 S
C294 C293 1.516 1_545 S
C294 C295 1.502 . S
C294 C296 1.561 . S
C294 C297 1.526 1_545 S
C295 H279 0.959 1_545 S
C295 H280 0.959 . S
C295 H281 0.961 . S
C295 C294 1.502 . S
C296 H282 0.960 . S
C296 H283 0.961 . S
C296 H284 0.959 . S
C296 C294 1.561 . S
C297 C294 1.526 1_565 S
C297 C298 1.396 . S
C297 C302 1.390 . S
C298 C292 1.465 . S
C298 C297 1.396 . S
C298 C299 1.399 . S
C299 H285 0.929 . S
C299 C298 1.399 . S
C299 C300 1.385 . S
C300 H286 0.931 . S
C300 C299 1.385 . S
C300 C301 1.389 . S
C301 C300 1.389 . S
C301 C302 1.387 . S
C302 H287 0.930 1_565 S
C302 C297 1.390 . S
C302 C301 1.387 . S
H303 C315 0.930 . S
H304 C317 0.930 . S
H305 C318 0.930 . S
H306 C322 0.959 . S
H307 C322 0.959 . S
H308 C322 0.961 . S
H309 C323 0.960 . S
H310 C323 0.961 . S
H311 C323 0.959 . S
H312 C326 0.929 . S
H313 C327 0.931 . S
H314 C329 0.930 . S
C315 H303 0.930 . S
C315 C316 1.399 . S
C315 C320 1.399 . S
C316 C315 1.399 . S
C316 C317 1.376 . S
C317 H304 0.930 . S
C317 C316 1.376 . S
C317 C318 1.388 . S
C318 H305 0.930 . S
C318 C317 1.388 . S
C318 C319 1.390 . S
C319 C318 1.390 . S
C319 C320 1.394 . S
C319 C325 1.465 . S
C320 C315 1.399 . S
C320 C319 1.394 . S
C320 C321 1.516 . S
C321 C320 1.516 . S
C321 C322 1.502 . S
C321 C323 1.561 . S
C321 C324 1.526 . S
C322 H306 0.959 . S
C322 H307 0.959 . S
C322 H308 0.961 . S
C322 C321 1.502 . S
C323 H309 0.960 . S
C323 H310 0.961 . S
C323 H311 0.959 . S
C323 C321 1.561 . S
C324 C321 1.526 . S
C324 C325 1.396 . S
C324 C329 1.390 . S
C325 C319 1.465 . S
C325 C324 1.396 . S
C325 C326 1.399 . S
C326 H312 0.929 . S
C326 C325 1.399 . S
C326 C327 1.385 . S
C327 H313 0.931 . S
C327 C326 1.385 . S
C327 C328 1.389 . S
C328 C327 1.389 . S
C328 C329 1.387 . S
C329 H314 0.930 . S
C329 C324 1.390 . S
C329 C328 1.387 . S
H330 C342 0.930 . S
H331 C344 0.930 . S
H332 C345 0.930 . S
H333 C349 0.959 . S
H334 C349 0.959 . S
H335 C349 0.961 . S
H336 C350 0.960 . S
H337 C350 0.961 . S
H338 C350 0.959 . S
H339 C353 0.929 . S
H340 C354 0.931 . S
H341 C356 0.930 . S
C342 H330 0.930 . S
C342 C343 1.399 . S
C342 C347 1.399 . S
C343 C342 1.399 . S
C343 C344 1.376 . S
C344 H331 0.930 . S
C344 C343 1.376 . S
C344 C345 1.388 . S
C345 H332 0.930 . S
C345 C344 1.388 . S
C345 C346 1.390 . S
C346 C345 1.390 . S
C346 C347 1.394 . S
C346 C352 1.465 . S
C347 C342 1.399 . S
C347 C346 1.394 . S
C347 C348 1.516 . S
C348 C347 1.516 . S
C348 C349 1.502 . S
C348 C350 1.561 . S
C348 C351 1.526 . S
C349 H333 0.959 . S
C349 H334 0.959 . S
C349 H335 0.961 . S
C349 C348 1.502 . S
C350 H336 0.960 . S
C350 H337 0.961 . S
C350 H338 0.959 . S
C350 C348 1.561 . S
C351 C348 1.526 . S
C351 C352 1.396 . S
C351 C356 1.390 . S
C352 C346 1.465 . S
C352 C351 1.396 . S
C352 C353 1.399 . S
C353 H339 0.929 . S
C353 C352 1.399 . S
C353 C354 1.385 1_554 S
C354 H340 0.931 . S
C354 C353 1.385 1_556 S
C354 C355 1.398 . S
C355 C354 1.398 . S
C355 C356 1.358 1_556 S
C356 H341 0.930 . S
C356 C351 1.390 . S
C356 C355 1.358 1_554 S
H357 C369 0.930 . S
H358 C371 0.930 . S
H359 C372 0.930 . S
H360 C376 0.959 . S
H361 C376 0.959 . S
H362 C376 0.961 . S
H363 C377 0.960 . S
H364 C377 0.961 . S
H365 C377 0.959 . S
H366 C380 0.929 . S
H367 C381 0.931 . S
H368 C383 0.930 . S
C369 H357 0.930 . S
C369 C370 1.399 . S
C369 C374 1.399 . S
C370 C369 1.399 . S
C370 C371 1.376 . S
C371 H358 0.930 . S
C371 C370 1.376 . S
C371 C372 1.388 . S
C372 H359 0.930 . S
C372 C371 1.388 . S
C372 C373 1.390 . S
C373 C372 1.390 . S
C373 C374 1.394 . S
C373 C379 1.465 . S
C374 C369 1.399 . S
C374 C373 1.394 . S
C374 C375 1.516 . S
C375 C374 1.516 . S
C375 C376 1.502 . S
C375 C377 1.561 . S
C375 C378 1.526 . S
C376 H360 0.959 . S
C376 H361 0.959 . S
C376 H362 0.961 . S
C376 C375 1.502 . S
C377 H363 0.960 . S
C377 H364 0.961 . S
C377 H365 0.959 . S
C377 C375 1.561 . S
C378 C375 1.526 . S
C378 C379 1.396 . S
C378 C383 1.390 . S
C379 C373 1.465 . S
C379 C378 1.396 . S
C379 C380 1.399 . S
C380 H366 0.929 . S
C380 C379 1.399 . S
C380 C381 1.385 . S
C381 H367 0.931 . S
C381 C380 1.385 . S
C381 C382 1.389 . S
C382 C381 1.389 . S
C382 C383 1.387 . S
C383 H368 0.930 . S
C383 C378 1.390 . S
C383 C382 1.387 . S
H384 C396 0.930 . S
H385 C398 0.930 . S
H386 C399 0.930 . S
H387 C403 0.959 . S
H388 C403 0.959 . S
H389 C403 0.961 . S
H390 C404 0.960 . S
H391 C404 0.961 . S
H392 C404 0.959 . S
H393 C407 0.929 . S
H394 C408 0.931 . S
H395 C410 0.930 . S
C396 H384 0.930 . S
C396 C397 1.399 . S
C396 C401 1.399 . S
C397 C396 1.399 . S
C397 C398 1.376 . S
C398 H385 0.930 . S
C398 C397 1.376 . S
C398 C399 1.388 . S
C399 H386 0.930 . S
C399 C398 1.388 . S
C399 C400 1.390 . S
C400 C399 1.390 . S
C400 C401 1.394 . S
C400 C406 1.465 . S
C401 C396 1.399 . S
C401 C400 1.394 . S
C401 C402 1.516 . S
C402 C401 1.516 . S
C402 C403 1.502 . S
C402 C404 1.561 . S
C402 C405 1.526 . S
C403 H387 0.959 . S
C403 H388 0.959 . S
C403 H389 0.961 . S
C403 C402 1.502 . S
C404 H390 0.960 . S
C404 H391 0.961 . S
C404 H392 0.959 . S
C404 C402 1.561 . S
C405 C402 1.526 . S
C405 C406 1.396 . S
C405 C410 1.390 . S
C406 C400 1.465 . S
C406 C405 1.396 . S
C406 C407 1.399 . S
C407 H393 0.929 . S
C407 C406 1.399 . S
C407 C408 1.385 . S
C408 H394 0.931 . S
C408 C407 1.385 . S
C408 C409 1.389 . S
C409 C408 1.389 . S
C409 C410 1.387 . S
C410 H395 0.930 . S
C410 C405 1.390 . S
C410 C409 1.387 . S
H411 C423 0.930 . S
H412 C425 0.930 . S
H413 C426 0.930 . S
H414 C430 0.959 . S
H415 C430 0.959 . S
H416 C430 0.961 . S
H417 C431 0.960 . S
H418 C431 0.961 . S
H419 C431 0.959 . S
H420 C434 0.929 . S
H421 C435 0.931 . S
H422 C437 0.930 . S
C423 H411 0.930 . S
C423 C424 1.399 . S
C423 C428 1.399 . S
C424 C423 1.399 . S
C424 C425 1.376 . S
C425 H412 0.930 . S
C425 C424 1.376 . S
C425 C426 1.388 . S
C426 H413 0.930 . S
C426 C425 1.388 . S
C426 C427 1.390 . S
C427 C426 1.390 . S
C427 C428 1.394 . S
C427 C433 1.465 . S
C428 C423 1.399 . S
C428 C427 1.394 . S
C428 C429 1.516 . S
C429 C428 1.516 . S
C429 C430 1.502 . S
C429 C431 1.561 . S
C429 C432 1.526 . S
C430 H414 0.959 . S
C430 H415 0.959 . S
C430 H416 0.961 . S
C430 C429 1.502 . S
C431 H417 0.960 . S
C431 H418 0.961 . S
C431 H419 0.959 . S
C431 C429 1.561 . S
C432 C429 1.526 . S
C432 C433 1.396 . S
C432 C437 1.390 . S
C433 C427 1.465 . S
C433 C432 1.396 . S
C433 C434 1.399 . S
C434 H420 0.929 . S
C434 C433 1.399 . S
C434 C435 1.385 . S
C435 H421 0.931 . S
C435 C434 1.385 . S
C435 C436 1.389 . S
C436 C435 1.389 . S
C436 C437 1.387 . S
C437 H422 0.930 . S
C437 C432 1.390 . S
C437 C436 1.387 . S
H438 C450 0.930 . S
H439 C452 0.930 . S
H440 C453 0.930 . S
H441 C457 0.959 . S
H442 C457 0.959 . S
H443 C457 0.961 . S
H444 C458 0.960 . S
H445 C458 0.961 . S
H446 C458 0.959 . S
H447 C461 0.929 . S
H448 C462 0.931 . S
H449 C464 0.930 . S
C450 H438 0.930 . S
C450 C451 1.399 . S
C450 C455 1.399 . S
C451 C450 1.399 . S
C451 C452 1.376 . S
C452 H439 0.930 . S
C452 C451 1.376 . S
C452 C453 1.388 . S
C453 H440 0.930 . S
C453 C452 1.388 . S
C453 C454 1.390 . S
C454 C453 1.390 . S
C454 C455 1.394 . S
C454 C460 1.465 . S
C455 C450 1.399 . S
C455 C454 1.394 . S
C455 C456 1.516 . S
C456 C455 1.516 . S
C456 C457 1.502 . S
C456 C458 1.561 . S
C456 C459 1.526 . S
C457 H441 0.959 . S
C457 H442 0.959 . S
C457 H443 0.961 . S
C457 C456 1.502 . S
C458 H444 0.960 . S
C458 H445 0.961 . S
C458 H446 0.959 . S
C458 C456 1.561 . S
C459 C456 1.526 . S
C459 C460 1.396 . S
C459 C464 1.390 . S
C460 C454 1.465 . S
C460 C459 1.396 . S
C460 C461 1.399 . S
C461 H447 0.929 . S
C461 C460 1.399 . S
C461 C462 1.385 . S
C462 H448 0.931 . S
C462 C461 1.385 . S
C462 C463 1.389 . S
C463 C462 1.389 . S
C463 C464 1.387 . S
C464 H449 0.930 . S
C464 C459 1.390 . S
C464 C463 1.387 . S
H465 C477 0.930 . S
H466 C479 0.930 . S
H467 C480 0.930 . S
H468 C484 0.959 . S
H469 C484 0.959 . S
H470 C484 0.961 . S
H471 C485 0.960 . S
H472 C485 0.961 . S
H473 C485 0.959 . S
H474 C488 0.929 . S
H475 C489 0.931 . S
H476 C491 0.930 . S
C477 H465 0.930 . S
C477 C478 1.399 . S
C477 C482 1.399 . S
C478 C477 1.399 . S
C478 C479 1.376 . S
C479 H466 0.930 . S
C479 C478 1.376 . S
C479 C480 1.388 . S
C480 H467 0.930 . S
C480 C479 1.388 . S
C480 C481 1.390 . S
C481 C480 1.390 . S
C481 C482 1.394 . S
C481 C487 1.465 . S
C482 C477 1.399 . S
C482 C481 1.394 . S
C482 C483 1.516 . S
C483 C482 1.516 . S
C483 C484 1.502 . S
C483 C485 1.561 . S
C483 C486 1.526 . S
C484 H468 0.959 . S
C484 H469 0.959 . S
C484 H470 0.961 . S
C484 C483 1.502 . S
C485 H471 0.960 . S
C485 H472 0.961 . S
C485 H473 0.959 . S
C485 C483 1.561 . S
C486 C483 1.526 . S
C486 C487 1.396 . S
C486 C491 1.390 . S
C487 C481 1.465 . S
C487 C486 1.396 . S
C487 C488 1.399 . S
C488 H474 0.929 . S
C488 C487 1.399 . S
C488 C489 1.385 . S
C489 H475 0.931 . S
C489 C488 1.385 . S
C489 C490 1.389 . S
C490 C489 1.389 . S
C490 C491 1.387 . S
C491 H476 0.930 . S
C491 C486 1.390 . S
C491 C490 1.387 . S
H492 C504 0.930 . S
H493 C506 0.930 . S
H494 C507 0.930 . S
H495 C511 0.959 . S
H496 C511 0.959 . S
H497 C511 0.961 . S
H498 C512 0.960 . S
H499 C512 0.961 . S
H500 C512 0.959 . S
H501 C515 0.929 . S
H502 C516 0.931 . S
H503 C518 0.930 . S
C504 H492 0.930 . S
C504 C505 1.399 . S
C504 C509 1.399 . S
C505 C504 1.399 . S
C505 C506 1.376 . S
C506 H493 0.930 . S
C506 C505 1.376 . S
C506 C507 1.388 . S
C507 H494 0.930 . S
C507 C506 1.388 . S
C507 C508 1.390 . S
C508 C507 1.390 . S
C508 C509 1.394 . S
C508 C514 1.465 . S
C509 C504 1.399 . S
C509 C508 1.394 . S
C509 C510 1.516 . S
C510 C509 1.516 . S
C510 C511 1.502 . S
C510 C512 1.561 . S
C510 C513 1.526 . S
C511 H495 0.959 . S
C511 H496 0.959 . S
C511 H497 0.961 . S
C511 C510 1.502 . S
C512 H498 0.960 . S
C512 H499 0.961 . S
C512 H500 0.959 . S
C512 C510 1.561 . S
C513 C510 1.526 . S
C513 C514 1.396 . S
C513 C518 1.390 . S
C514 C508 1.465 . S
C514 C513 1.396 . S
C514 C515 1.399 . S
C515 H501 0.929 . S
C515 C514 1.399 . S
C515 C516 1.385 . S
C516 H502 0.931 . S
C516 C515 1.385 . S
C516 C517 1.389 . S
C517 C516 1.389 . S
C517 C518 1.387 . S
C518 H503 0.930 . S
C518 C513 1.390 . S
C518 C517 1.387 . S
H519 C531 0.930 . S
H520 C533 0.930 . S
H521 C534 0.930 . S
H522 C538 0.959 . S
H523 C538 0.959 . S
H524 C538 0.961 . S
H525 C539 0.960 . S
H526 C539 0.961 . S
H527 C539 0.959 . S
H528 C542 0.929 . S
H529 C543 0.931 . S
H530 C545 0.912 1_554 S
C531 H519 0.930 . S
C531 C532 1.399 . S
C531 C536 1.399 . S
C532 C531 1.399 . S
C532 C533 1.376 . S
C533 H520 0.930 . S
C533 C532 1.376 . S
C533 C534 1.388 . S
C534 H521 0.930 . S
C534 C533 1.388 . S
C534 C535 1.390 . S
C535 C534 1.390 . S
C535 C536 1.394 . S
C535 C541 1.465 . S
C536 C531 1.399 . S
C536 C535 1.394 . S
C536 C537 1.516 . S
C537 C536 1.516 . S
C537 C538 1.502 . S
C537 C539 1.561 . S
C537 C540 1.526 . S
C538 H522 0.959 . S
C538 H523 0.959 . S
C538 H524 0.961 . S
C538 C537 1.502 . S
C539 H525 0.960 . S
C539 H526 0.961 . S
C539 H527 0.959 . S
C539 C537 1.561 . S
C540 C537 1.526 . S
C540 C541 1.396 . S
C540 C545 1.390 . S
C541 C535 1.465 . S
C541 C540 1.396 . S
C541 C542 1.399 . S
C542 H528 0.929 . S
C542 C541 1.399 . S
C542 C543 1.385 . S
C543 H529 0.931 . S
C543 C542 1.385 . S
C543 C544 1.389 . S
C544 C543 1.389 . S
C544 C545 1.387 . S
C545 H530 0.912 1_556 S
C545 C540 1.390 . S
C545 C544 1.387 . S
H546 C558 0.930 . S
H547 C560 0.930 . S
H548 C561 0.930 . S
H549 C565 0.959 . S
H550 C565 0.959 . S
H551 C565 0.961 . S
H552 C566 0.960 . S
H553 C566 0.961 . S
H554 C566 0.959 . S
H555 C569 0.929 . S
H556 C570 0.931 . S
H557 C572 0.930 . S
C558 H546 0.930 . S
C558 C559 1.399 . S
C558 C563 1.399 . S
C559 C558 1.399 . S
C559 C560 1.376 . S
C560 H547 0.930 . S
C560 C559 1.376 . S
C560 C561 1.388 . S
C561 H548 0.930 . S
C561 C560 1.388 . S
C561 C562 1.390 . S
C562 C561 1.390 . S
C562 C563 1.394 . S
C562 C568 1.465 . S
C563 C558 1.399 . S
C563 C562 1.394 . S
C563 C564 1.516 . S
C564 C563 1.516 . S
C564 C565 1.502 . S
C564 C566 1.561 . S
C564 C567 1.526 . S
C565 H549 0.959 . S
C565 H550 0.959 . S
C565 H551 0.961 . S
C565 C564 1.502 . S
C566 H552 0.960 . S
C566 H553 0.961 . S
C566 H554 0.959 . S
C566 C564 1.561 . S
C567 C564 1.526 . S
C567 C568 1.396 . S
C567 C572 1.390 . S
C568 C562 1.465 . S
C568 C567 1.396 . S
C568 C569 1.399 . S
C569 H555 0.929 . S
C569 C568 1.399 . S
C569 C570 1.385 . S
C570 H556 0.931 . S
C570 C569 1.385 . S
C570 C571 1.389 . S
C571 C570 1.389 . S
C571 C572 1.387 . S
C572 H557 0.930 . S
C572 C567 1.390 . S
C572 C571 1.387 . S
H573 C585 0.930 . S
H574 C587 0.930 . S
H575 C588 0.930 . S
H576 C592 0.959 . S
H577 C592 0.959 . S
H578 C592 0.961 . S
H579 C593 0.960 . S
H580 C593 0.961 . S
H581 C593 0.959 . S
H582 C596 0.929 . S
H583 C597 0.931 . S
H584 C599 0.930 . S
C585 H573 0.930 . S
C585 C586 1.399 . S
C585 C590 1.399 . S
C586 C585 1.399 . S
C586 C587 1.376 . S
C587 H574 0.930 . S
C587 C586 1.376 . S
C587 C588 1.388 . S
C588 H575 0.930 . S
C588 C587 1.388 . S
C588 C589 1.390 . S
C589 C588 1.390 . S
C589 C590 1.394 . S
C589 C595 1.465 . S
C590 C585 1.399 . S
C590 C589 1.394 . S
C590 C591 1.516 . S
C591 C590 1.516 . S
C591 C592 1.502 . S
C591 C593 1.561 . S
C591 C594 1.526 . S
C592 H576 0.959 . S
C592 H577 0.959 . S
C592 H578 0.961 . S
C592 C591 1.502 . S
C593 H579 0.960 . S
C593 H580 0.961 . S
C593 H581 0.959 . S
C593 C591 1.561 . S
C594 C591 1.526 . S
C594 C595 1.396 . S
C594 C599 1.390 . S
C595 C589 1.465 . S
C595 C594 1.396 . S
C595 C596 1.399 . S
C596 H582 0.929 . S
C596 C595 1.399 . S
C596 C597 1.385 . S
C597 H583 0.931 . S
C597 C596 1.385 . S
C597 C598 1.389 . S
C598 C597 1.389 . S
C598 C599 1.387 . S
C599 H584 0.930 . S
C599 C594 1.390 . S
C599 C598 1.387 . S
H600 C612 0.930 . S
H601 C614 0.930 . S
H602 C615 0.930 . S
H603 C619 0.959 . S
H604 C619 0.959 . S
H605 C619 0.961 . S
H606 C620 0.960 . S
H607 C620 0.961 . S
H608 C620 0.959 . S
H609 C623 0.929 . S
H610 C624 0.931 . S
H611 C626 0.930 . S
C612 H600 0.930 . S
C612 C613 1.399 . S
C612 C617 1.399 . S
C613 C612 1.399 . S
C613 C614 1.376 . S
C614 H601 0.930 . S
C614 C613 1.376 . S
C614 C615 1.388 . S
C615 H602 0.930 . S
C615 C614 1.388 . S
C615 C616 1.390 . S
C616 C615 1.390 . S
C616 C617 1.394 . S
C616 C622 1.465 . S
C617 C612 1.399 . S
C617 C616 1.394 . S
C617 C618 1.516 . S
C618 C617 1.516 . S
C618 C619 1.502 . S
C618 C620 1.561 . S
C618 C621 1.526 . S
C619 H603 0.959 . S
C619 H604 0.959 . S
C619 H605 0.961 . S
C619 C618 1.502 . S
C620 H606 0.960 . S
C620 H607 0.961 . S
C620 H608 0.959 . S
C620 C618 1.561 . S
C621 C618 1.526 . S
C621 C622 1.396 . S
C621 C626 1.390 . S
C622 C616 1.465 . S
C622 C621 1.396 . S
C622 C623 1.399 . S
C623 H609 0.929 . S
C623 C622 1.399 . S
C623 C624 1.385 . S
C624 H610 0.931 . S
C624 C623 1.385 . S
C624 C625 1.389 . S
C625 C624 1.389 . S
C625 C626 1.387 . S
C626 H611 0.930 . S
C626 C621 1.390 . S
C626 C625 1.387 . S
H627 C639 0.930 . S
H628 C641 0.930 . S
H629 C642 0.930 . S
H630 C646 0.959 . S
H631 C646 0.959 . S
H632 C646 0.961 . S
H633 C647 0.960 . S
H634 C647 0.961 . S
H635 C647 0.959 . S
H636 C650 0.929 . S
H637 C651 0.931 . S
H638 C653 0.930 . S
C639 H627 0.930 . S
C639 C640 1.399 . S
C639 C644 1.399 . S
C640 C639 1.399 . S
C640 C641 1.376 . S
C641 H628 0.930 . S
C641 C640 1.376 . S
C641 C642 1.388 . S
C642 H629 0.930 . S
C642 C641 1.388 . S
C642 C643 1.390 . S
C643 C642 1.390 . S
C643 C644 1.394 . S
C643 C649 1.465 . S
C644 C639 1.399 . S
C644 C643 1.394 . S
C644 C645 1.516 . S
C645 C644 1.516 . S
C645 C646 1.502 . S
C645 C647 1.561 . S
C645 C648 1.526 . S
C646 H630 0.959 . S
C646 H631 0.959 . S
C646 H632 0.961 . S
C646 C645 1.502 . S
C647 H633 0.960 . S
C647 H634 0.961 . S
C647 H635 0.959 . S
C647 C645 1.561 . S
C648 C645 1.526 . S
C648 C649 1.396 . S
C648 C653 1.390 . S
C649 C643 1.465 . S
C649 C648 1.396 . S
C649 C650 1.399 . S
C650 H636 0.929 . S
C650 C649 1.399 . S
C650 C651 1.385 . S
C651 H637 0.931 . S
C651 C650 1.385 . S
C651 C652 1.389 . S
C652 C651 1.389 . S
C652 C653 1.387 . S
C653 H638 0.930 . S
C653 C648 1.390 . S
C653 C652 1.387 . S
H654 C666 0.930 . S
H655 C668 0.930 . S
H656 C669 0.930 . S
H657 C673 0.959 . S
H658 C673 0.959 . S
H659 C673 0.961 . S
H660 C674 0.960 . S
H661 C674 0.961 . S
H662 C674 0.959 . S
H663 C677 0.929 . S
H664 C678 0.931 . S
H665 C680 0.930 . S
C666 H654 0.930 . S
C666 C667 1.399 . S
C666 C671 1.399 . S
C667 C666 1.399 . S
C667 C668 1.376 . S
C668 H655 0.930 . S
C668 C667 1.376 . S
C668 C669 1.388 . S
C669 H656 0.930 . S
C669 C668 1.388 . S
C669 C670 1.390 . S
C670 C669 1.390 . S
C670 C671 1.394 . S
C670 C676 1.465 . S
C671 C666 1.399 . S
C671 C670 1.394 . S
C671 C672 1.516 . S
C672 C671 1.516 . S
C672 C673 1.502 . S
C672 C674 1.561 . S
C672 C675 1.526 . S
C673 H657 0.959 . S
C673 H658 0.959 . S
C673 H659 0.961 . S
C673 C672 1.502 . S
C674 H660 0.960 . S
C674 H661 0.961 . S
C674 H662 0.959 . S
C674 C672 1.561 . S
C675 C672 1.526 . S
C675 C676 1.396 . S
C675 C680 1.390 . S
C676 C670 1.465 . S
C676 C675 1.396 . S
C676 C677 1.399 . S
C677 H663 0.929 . S
C677 C676 1.399 . S
C677 C678 1.385 . S
C678 H664 0.931 . S
C678 C677 1.385 . S
C678 C679 1.389 . S
C679 C678 1.389 . S
C679 C680 1.387 . S
C680 H665 0.930 . S
C680 C675 1.390 . S
C680 C679 1.387 . S
H681 C693 0.930 . S
H682 C695 0.930 . S
H683 C696 0.930 . S
H684 C700 0.959 . S
H685 C700 0.959 . S
H686 C700 0.961 . S
H687 C701 0.960 . S
H688 C701 0.961 . S
H689 C701 0.959 . S
H690 C704 0.929 . S
H691 C705 0.931 . S
H692 C707 0.930 . S
C693 H681 0.930 . S
C693 C694 1.399 . S
C693 C698 1.399 . S
C694 C693 1.399 . S
C694 C695 1.376 . S
C695 H682 0.930 . S
C695 C694 1.376 . S
C695 C696 1.388 . S
C696 H683 0.930 . S
C696 C695 1.388 . S
C696 C697 1.390 . S
C697 C696 1.390 . S
C697 C698 1.394 . S
C697 C703 1.465 . S
C698 C693 1.399 . S
C698 C697 1.394 . S
C698 C699 1.516 . S
C699 C698 1.516 . S
C699 C700 1.502 . S
C699 C701 1.561 . S
C699 C702 1.526 . S
C700 H684 0.959 . S
C700 H685 0.959 . S
C700 H686 0.961 . S
C700 C699 1.502 . S
C701 H687 0.960 . S
C701 H688 0.961 . S
C701 H689 0.959 . S
C701 C699 1.561 . S
C702 C699 1.526 . S
C702 C703 1.396 . S
C702 C707 1.390 . S
C703 C697 1.465 . S
C703 C702 1.396 . S
C703 C704 1.399 . S
C704 H690 0.929 . S
C704 C703 1.399 . S
C704 C705 1.385 . S
C705 H691 0.931 . S
C705 C704 1.385 . S
C705 C706 1.389 . S
C706 C705 1.389 . S
C706 C707 1.387 . S
C707 H692 0.930 . S
C707 C702 1.390 . S
C707 C706 1.387 . S
H708 C720 0.930 . S
H709 C722 0.930 . S
H710 C723 0.930 . S
H711 C727 0.959 . S
H712 C727 0.959 . S
H713 C727 0.961 . S
H714 C728 0.960 . S
H715 C728 0.961 . S
H716 C728 0.959 . S
H717 C731 0.929 . S
H718 C732 0.931 . S
H719 C734 0.930 . S
C720 H708 0.930 . S
C720 C721 1.399 . S
C720 C725 1.399 . S
C721 C720 1.399 . S
C721 C722 1.376 . S
C722 H709 0.930 . S
C722 C721 1.376 . S
C722 C723 1.388 . S
C723 H710 0.930 . S
C723 C722 1.388 . S
C723 C724 1.390 . S
C724 C723 1.390 . S
C724 C725 1.394 . S
C724 C730 1.465 . S
C725 C720 1.399 . S
C725 C724 1.394 . S
C725 C726 1.516 . S
C726 C725 1.516 . S
C726 C727 1.502 . S
C726 C728 1.561 . S
C726 C729 1.526 . S
C727 H711 0.959 . S
C727 H712 0.959 . S
C727 H713 0.961 . S
C727 C726 1.502 . S
C728 H714 0.960 . S
C728 H715 0.961 . S
C728 H716 0.959 . S
C728 C726 1.561 . S
C729 C726 1.526 . S
C729 C730 1.396 . S
C729 C734 1.390 . S
C730 C724 1.465 . S
C730 C729 1.396 . S
C730 C731 1.399 . S
C731 H717 0.929 . S
C731 C730 1.399 . S
C731 C732 1.385 . S
C732 H718 0.931 . S
C732 C731 1.385 . S
C732 C733 1.389 . S
C733 C732 1.389 . S
C733 C734 1.387 . S
C734 H719 0.930 . S
C734 C729 1.390 . S
C734 C733 1.387 . S
H735 C747 0.930 . S
H736 C749 0.930 . S
H737 C750 0.930 . S
H738 C754 0.959 . S
H739 C754 0.959 . S
H740 C754 0.961 . S
H741 C755 0.960 . S
H742 C755 0.961 . S
H743 C755 0.959 . S
H744 C758 0.929 . S
H745 C759 0.931 . S
H746 C761 0.930 . S
C747 H735 0.930 . S
C747 C748 1.399 . S
C747 C752 1.399 . S
C748 C747 1.399 . S
C748 C749 1.376 . S
C749 H736 0.930 . S
C749 C748 1.376 . S
C749 C750 1.388 . S
C750 H737 0.930 . S
C750 C749 1.388 . S
C750 C751 1.390 . S
C751 C750 1.390 . S
C751 C752 1.394 . S
C751 C757 1.465 . S
C752 C747 1.399 . S
C752 C751 1.394 . S
C752 C753 1.516 . S
C753 C752 1.516 . S
C753 C754 1.502 . S
C753 C755 1.561 . S
C753 C756 1.526 . S
C754 H738 0.959 . S
C754 H739 0.959 . S
C754 H740 0.961 . S
C754 C753 1.502 . S
C755 H741 0.960 . S
C755 H742 0.961 . S
C755 H743 0.959 . S
C755 C753 1.561 . S
C756 C753 1.526 . S
C756 C757 1.396 . S
C756 C761 1.390 . S
C757 C751 1.465 . S
C757 C756 1.396 . S
C757 C758 1.399 . S
C758 H744 0.929 . S
C758 C757 1.399 . S
C758 C759 1.385 . S
C759 H745 0.931 . S
C759 C758 1.385 . S
C759 C760 1.389 . S
C760 C759 1.389 . S
C760 C761 1.387 . S
C761 H746 0.930 . S
C761 C756 1.390 . S
C761 C760 1.387 . S
H762 C774 0.930 . S
H763 C776 0.930 . S
H764 C777 0.930 . S
H765 C781 0.959 . S
H766 C781 0.959 . S
H767 C781 0.961 . S
H768 C782 0.960 . S
H769 C782 0.961 . S
H770 C782 0.959 . S
H771 C785 0.929 . S
H772 C786 0.931 . S
H773 C788 0.930 . S
C774 H762 0.930 . S
C774 C775 1.399 . S
C774 C779 1.399 . S
C775 C774 1.399 . S
C775 C776 1.376 . S
C776 H763 0.930 . S
C776 C775 1.376 . S
C776 C777 1.388 . S
C777 H764 0.930 . S
C777 C776 1.388 . S
C777 C778 1.390 . S
C778 C777 1.390 . S
C778 C779 1.394 . S
C778 C784 1.465 . S
C779 C774 1.399 . S
C779 C778 1.394 . S
C779 C780 1.516 . S
C780 C779 1.516 . S
C780 C781 1.502 . S
C780 C782 1.561 . S
C780 C783 1.526 . S
C781 H765 0.959 . S
C781 H766 0.959 . S
C781 H767 0.961 . S
C781 C780 1.502 . S
C782 H768 0.960 . S
C782 H769 0.961 . S
C782 H770 0.959 . S
C782 C780 1.561 . S
C783 C780 1.526 . S
C783 C784 1.396 . S
C783 C788 1.390 . S
C784 C778 1.465 . S
C784 C783 1.396 . S
C784 C785 1.399 . S
C785 H771 0.929 . S
C785 C784 1.399 . S
C785 C786 1.385 . S
C786 H772 0.931 . S
C786 C785 1.385 . S
C786 C787 1.389 . S
C787 C786 1.389 . S
C787 C788 1.387 . S
C788 H773 0.930 . S
C788 C783 1.390 . S
C788 C787 1.387 . S
H789 C801 0.930 . S
H790 C803 0.930 . S
H791 C804 0.930 . S
H792 C808 0.959 . S
H793 C808 0.959 . S
H794 C808 0.961 . S
H795 C809 0.960 . S
H796 C809 0.961 . S
H797 C809 0.959 . S
H798 C812 0.929 . S
H799 C813 0.931 . S
H800 C815 0.930 . S
C801 H789 0.930 . S
C801 C802 1.399 . S
C801 C806 1.399 . S
C802 C801 1.399 . S
C802 C803 1.376 . S
C803 H790 0.930 . S
C803 C802 1.376 . S
C803 C804 1.388 . S
C804 H791 0.930 . S
C804 C803 1.388 . S
C804 C805 1.390 . S
C805 C804 1.390 . S
C805 C806 1.394 . S
C805 C811 1.465 . S
C806 C801 1.399 . S
C806 C805 1.394 . S
C806 C807 1.516 . S
C807 C806 1.516 . S
C807 C808 1.502 . S
C807 C809 1.561 . S
C807 C810 1.526 . S
C808 H792 0.959 . S
C808 H793 0.959 . S
C808 H794 0.961 . S
C808 C807 1.502 . S
C809 H795 0.960 . S
C809 H796 0.961 . S
C809 H797 0.959 . S
C809 C807 1.561 . S
C810 C807 1.526 . S
C810 C811 1.396 . S
C810 C815 1.390 . S
C811 C805 1.465 . S
C811 C810 1.396 . S
C811 C812 1.399 . S
C812 H798 0.929 . S
C812 C811 1.399 . S
C812 C813 1.385 . S
C813 H799 0.931 . S
C813 C812 1.385 . S
C813 C814 1.389 . S
C814 C813 1.389 . S
C814 C815 1.387 . S
C815 H800 0.930 . S
C815 C810 1.390 . S
C815 C814 1.387 . S
C181 C123 1.396 . S
C193 C11 1.374 . S
C208 C25 1.372 . S
C220 C137 1.394 . S
C235 C39 1.419 . S
C247 C151 1.416 . S
C262 C53 1.385 . S
C274 C165 1.414 . S
C289 C95 1.372 . S
C301 C67 1.392 . S
C316 C81 1.398 . S
C328 C109 1.374 . S
C343 C9 1.514 . S
C355 C70 1.543 . S
C370 C23 1.526 . S
C382 C0 1.518 . S
C397 C37 1.531 . S
C409 C14 1.462 . S
C424 C28 1.499 . S
C436 C51 1.497 . S
C451 C42 1.507 . S
C463 C65 1.498 . S
C478 C56 1.524 . S
C490 C79 1.514 . S
C505 C98 1.488 . S
C517 C93 1.538 . S
C532 C107 1.524 . S
C544 C112 1.458 1_556 S
C559 C126 1.462 . S
C571 C121 1.532 . S
C586 C135 1.497 . S
C598 C140 1.496 . S
C613 C149 1.510 . S
C625 C154 1.463 . S
C640 C163 1.538 . S
C652 C84 1.485 . S
C667 C145 1.283 . S
C679 C5 1.286 . S
C694 C159 1.286 . S
C706 C19 1.287 . S
C721 C89 1.283 . S
C733 C33 1.280 . S
C748 C47 1.287 . S
C760 C103 1.285 . S
C775 C61 1.284 . S
C787 C117 1.287 . S
C802 C131 1.280 . S
C814 C75 1.278 . S
