# Generated by pormake.
# Topology smc, (6)-cn, num edge types: 1
# Building blocks:
#     Node 0, Type 0, BuildingBlock: MAKGUD_clean_sbu_1, # of connection points: 6
#     Node 1, Type 0, BuildingBlock: MAKGUD_clean_sbu_1, # of connection points: 6
#     Node 2, Type 0, BuildingBlock: MAKGUD_clean_sbu_1, # of connection points: 6
#     Node 3, Type 0, BuildingBlock: MAKGUD_clean_sbu_1, # of connection points: 6
#     Node 4, Type 0, BuildingBlock: MAKGUD_clean_sbu_1, # of connection points: 6
#     Node 5, Type 0, BuildingBlock: MAKGUD_clean_sbu_1, # of connection points: 6
#     Node 6, Type 0, BuildingBlock: MAKGUD_clean_sbu_1, # of connection points: 6
#     Node 7, Type 0, BuildingBlock: MAKGUD_clean_sbu_1, # of connection points: 6
#     Node 8, Type 0, BuildingBlock: MAKGUD_clean_sbu_1, # of connection points: 6
#     Edge 9, Type (0, 0), BuildingBlock: EZIPEK_clean_linker_0, # of connection points: 2
#     Edge 10, Type (0, 0), BuildingBlock: EZIPEK_clean_linker_0, # of connection points: 2
#     Edge 11, Type (0, 0), BuildingBlock: EZIPEK_clean_linker_0, # of connection points: 2
#     Edge 12, Type (0, 0), BuildingBlock: EZIPEK_clean_linker_0, # of connection points: 2
#     Edge 13, Type (0, 0), BuildingBlock: EZIPEK_clean_linker_0, # of connection points: 2
#     Edge 14, Type (0, 0), BuildingBlock: EZIPEK_clean_linker_0, # of connection points: 2
#     Edge 15, Type (0, 0), BuildingBlock: EZIPEK_clean_linker_0, # of connection points: 2
#     Edge 16, Type (0, 0), BuildingBlock: EZIPEK_clean_linker_0, # of connection points: 2
#     Edge 17, Type (0, 0), BuildingBlock: EZIPEK_clean_linker_0, # of connection points: 2
#     Edge 18, Type (0, 0), BuildingBlock: EZIPEK_clean_linker_0, # of connection points: 2
#     Edge 19, Type (0, 0), BuildingBlock: EZIPEK_clean_linker_0, # of connection points: 2
#     Edge 20, Type (0, 0), BuildingBlock: EZIPEK_clean_linker_0, # of connection points: 2
#     Edge 21, Type (0, 0), BuildingBlock: EZIPEK_clean_linker_0, # of connection points: 2
#     Edge 22, Type (0, 0), BuildingBlock: EZIPEK_clean_linker_0, # of connection points: 2
#     Edge 23, Type (0, 0), BuildingBlock: EZIPEK_clean_linker_0, # of connection points: 2
#     Edge 24, Type (0, 0), BuildingBlock: EZIPEK_clean_linker_0, # of connection points: 2
#     Edge 25, Type (0, 0), BuildingBlock: EZIPEK_clean_linker_0, # of connection points: 2
#     Edge 26, Type (0, 0), BuildingBlock: EZIPEK_clean_linker_0, # of connection points: 2
#     Edge 27, Type (0, 0), BuildingBlock: EZIPEK_clean_linker_0, # of connection points: 2
#     Edge 28, Type (0, 0), BuildingBlock: EZIPEK_clean_linker_0, # of connection points: 2
#     Edge 29, Type (0, 0), BuildingBlock: EZIPEK_clean_linker_0, # of connection points: 2
#     Edge 30, Type (0, 0), BuildingBlock: EZIPEK_clean_linker_0, # of connection points: 2
#     Edge 31, Type (0, 0), BuildingBlock: EZIPEK_clean_linker_0, # of connection points: 2
#     Edge 32, Type (0, 0), BuildingBlock: EZIPEK_clean_linker_0, # of connection points: 2
#     Edge 33, Type (0, 0), BuildingBlock: EZIPEK_clean_linker_0, # of connection points: 2
#     Edge 34, Type (0, 0), BuildingBlock: EZIPEK_clean_linker_0, # of connection points: 2
#     Edge 35, Type (0, 0), BuildingBlock: EZIPEK_clean_linker_0, # of connection points: 2
# Relax obj value: 0.131
# Max RMSD: 0.303
# Mean RMSD: 0.303
data_MOF--net-smc--node1-MAKGUD_clean_sbu_1--edge1-EZIPEK_clean_linker_0
_symmetry_space_group_name_H-M    P1
_symmetry_Int_Tables_number       1
_symmetry_cell_setting            triclinic
loop_
_symmetry_equiv_pos_as_xyz
'x, y, z'
_cell_length_a     28.902353
_cell_length_b     28.766087
_cell_length_c     25.465607
_cell_angle_alpha  90.098714
_cell_angle_beta   89.790918
_cell_angle_gamma 119.78484
loop_
_atom_site_label
_atom_site_type_symbol
_atom_site_fract_x
_atom_site_fract_y
_atom_site_fract_z
_atom_type_partial_charge
O0 O 0.88517 0.35706 0.06763 0.0
Tb1 Tb 0.96334 0.42247 0.04527 0.0
C2 C 0.05438 0.44401 0.96232 0.0
O3 O 0.08086 0.48984 0.08189 0.0
Tb4 Tb 0.15065 0.52027 0.0302 0.0
C5 C 0.23585 0.51356 0.06051 0.0
O6 O 1.00789 0.41652 0.11219 0.0
O7 O 0.18166 0.60462 1.0111 0.0
C8 C 0.19056 0.63864 0.0497 0.0
O9 O 0.17301 0.61964 0.09697 0.0
O10 O 1.03242 0.46424 0.99361 0.0
O11 O 0.1068 0.46602 0.96471 0.0
O12 O 0.93617 0.48085 0.04958 0.0
C13 C 0.06015 0.44809 0.11383 0.0
C14 C 0.87501 0.33062 0.02375 0.0
O15 O 0.21465 0.50264 1.0139 0.0
O16 O 0.20766 0.5271 0.09023 0.0
C17 C 0.91392 0.48787 1.00752 0.0
O18 O 0.9135 0.46323 0.96392 0.0
O19 O 0.91616 0.35486 0.99235 0.0
O20 O 0.74175 0.56284 0.06093 0.0
Tb21 Tb 0.67678 0.56913 0.02504 0.0
C22 C 0.63331 0.62374 0.93124 0.0
O23 O 0.60688 0.61947 0.05916 0.0
Tb24 Tb 0.57252 0.65767 1.01107 0.0
C25 C 0.59485 0.75998 0.01991 0.0
O26 O 0.67771 0.61752 0.09268 0.0
O27 O 0.486 0.60791 1.01426 0.0
C28 C 0.46203 0.59837 0.06026 0.0
O29 O 0.49133 0.61584 0.10268 0.0
O30 O 0.64056 0.60534 0.9761 0.0
O31 O 0.60485 0.64818 0.93551 0.0
O32 O 0.62243 0.48258 0.02849 0.0
C33 C 0.64633 0.63882 0.09322 0.0
C34 C 0.77266 0.57655 0.01993 0.0
O35 O 0.59083 0.72859 0.05888 0.0
O36 O 0.58722 0.73307 0.97666 0.0
C37 C 0.58347 0.45432 0.99527 0.0
O38 O 0.56734 0.47847 0.96246 0.0
O39 O 0.75015 0.58835 0.98177 0.0
O40 O 0.37747 0.8745 0.97689 0.0
Tb41 Tb 0.44208 0.95301 1.00083 0.0
C42 C 0.46263 0.04497 0.08466 0.0
O43 O 0.5082 0.075 0.96181 0.0
Tb44 Tb 0.53392 0.14207 1.01723 0.0
C45 C 0.52669 0.23001 0.99832 0.0
O46 O 0.43529 0.99865 0.9348 0.0
O47 O 0.61772 0.17304 0.0362 0.0
C48 C 0.65047 0.17901 0.99729 0.0
O49 O 0.63032 0.15974 0.95085 0.0
O50 O 0.48073 1.02513 0.04867 0.0
O51 O 0.48604 0.09766 0.08594 0.0
O52 O 0.50521 0.93194 0.99741 0.0
C53 C 0.46474 0.05164 0.93277 0.0
C54 C 0.3509 0.86267 0.02089 0.0
O55 O 0.50051 0.19427 0.03425 0.0
O56 O 0.55375 0.21369 0.97039 0.0
C57 C 0.50077 0.89195 0.02651 0.0
O58 O 0.45979 0.86779 0.05831 0.0
O59 O 0.37486 0.9031 0.05332 0.0
O60 O 0.56679 0.67993 0.40134 0.0
Tb61 Tb 0.6265 0.74884 0.35678 0.0
C62 C 0.72421 0.78206 0.26429 0.0
O63 O 0.74612 0.79998 0.39311 0.0
Tb64 Tb 0.81818 0.83409 0.34342 0.0
C65 C 0.89814 0.81267 0.34945 0.0
O66 O 0.66709 0.76018 0.43292 0.0
O67 O 0.85897 0.92049 0.32865 0.0
C68 C 0.89596 0.95397 0.3613 0.0
O69 O 0.90315 0.93609 0.40602 0.0
O70 O 0.69969 0.77561 0.30994 0.0
O71 O 0.77676 0.80538 0.26773 0.0
O72 O 0.5975 0.80607 0.35231 0.0
C73 C 0.71949 0.78333 0.43783 0.0
C74 C 0.54015 0.65095 0.36144 0.0
O75 O 0.8862 0.83779 0.38455 0.0
O76 O 0.86137 0.79467 0.31348 0.0
C77 C 0.54861 0.78936 0.33543 0.0
O78 O 0.52047 0.74012 0.31797 0.0
O79 O 0.56497 0.67546 0.31862 0.0
O80 O 0.37392 0.8613 0.38341 0.0
Tb81 Tb 0.321 0.88848 0.3516 0.0
C82 C 0.3121 0.95335 0.25527 0.0
O83 O 0.25709 0.94718 0.39997 0.0
Tb84 Tb 0.24218 0.9822 0.33151 0.0
C85 C 0.23147 0.0701 0.34008 0.0
O86 O 0.33625 0.94972 0.41112 0.0
O87 O 0.16211 0.91461 0.32085 0.0
C88 C 0.124 0.91194 0.35143 0.0
O89 O 0.13682 0.9479 0.38869 0.0
O90 O 0.291 0.90588 0.27855 0.0
O91 O 0.30172 0.99074 0.27287 0.0
O92 O 0.2593 0.80455 0.36525 0.0
C93 C 0.30426 0.96887 0.42198 0.0
C94 C 0.40829 0.87803 0.3453 0.0
O95 O 0.25996 0.05789 0.37102 0.0
O96 O 0.20952 1.0327 0.30467 0.0
C97 C 0.25707 0.76758 0.33256 0.0
O98 O 0.28484 0.78343 0.28891 0.0
O99 O 0.39432 0.9022 0.31086 0.0
O100 O 0.17207 0.50974 0.39735 0.0
Tb101 Tb 0.19695 0.45258 0.3715 0.0
C102 C 0.14088 0.36895 0.27679 0.0
O103 O 0.1201 0.30964 0.4144 0.0
Tb104 Tb 0.13189 0.27887 0.33807 0.0
C105 C 0.05908 0.17491 0.33555 0.0
O106 O 0.15083 0.40076 0.4377 0.0
O107 O 0.21572 0.30163 0.35124 0.0
C108 C 0.24167 0.27449 0.35664 0.0
O109 O 0.29303 0.30265 0.36602 0.0
O110 O 0.1657 0.38419 0.32166 0.0
O111 O 0.12139 0.31791 0.26897 0.0
O112 O 0.28081 0.48192 0.38774 0.0
C113 C 0.12614 0.34806 0.44811 0.0
C114 C 0.18982 0.54126 0.35653 0.0
O115 O 0.05314 0.21221 0.35791 0.0
O116 O 0.1066 0.1961 0.31483 0.0
C117 C 0.31452 0.49472 0.3482 0.0
O118 O 0.29584 0.48321 0.30013 0.0
O119 O 0.20753 0.51995 0.32221 0.0
O120 O 0.24259 1.00748 0.7064 0.0
Tb121 Tb 0.29296 0.09428 0.69256 0.0
C122 C 0.38455 0.12161 0.59236 0.0
O123 O 0.40751 0.15097 0.71734 0.0
Tb124 Tb 0.48006 0.18622 0.66991 0.0
C125 C 0.56651 0.17651 0.68642 0.0
O126 O 0.33591 0.09993 0.76561 0.0
O127 O 0.51068 0.27221 0.66832 0.0
C128 C 0.51836 0.29791 0.71312 0.0
O129 O 0.50062 0.27025 0.75679 0.0
O130 O 0.35937 0.11875 0.63656 0.0
O131 O 0.43746 0.14791 0.59592 0.0
O132 O 0.26922 0.15479 0.70472 0.0
C133 C 0.38836 0.1247 0.76152 0.0
C134 C 0.20023 1.00274 0.68341 0.0
O135 O 0.53708 0.18083 0.72303 0.0
O136 O 0.54542 0.17528 0.641 0.0
C137 C 0.26632 0.18228 0.6647 0.0
O138 O 0.28899 0.1821 0.61996 0.0
O139 O 0.21085 0.04898 0.66486 0.0
O140 O 0.07501 0.22041 0.73028 0.0
Tb141 Tb 1.0079 0.23098 0.70877 0.0
C142 C 0.9799 0.29516 0.62301 0.0
O143 O 0.95616 0.29985 0.74523 0.0
Tb144 Tb 0.91228 0.32498 0.69186 0.0
C145 C 0.91788 0.42032 0.69946 0.0
O146 O 1.00597 0.26973 0.78304 0.0
O147 O 0.82803 0.26803 0.67527 0.0
C148 C 0.79221 0.24746 0.71337 0.0
O149 O 0.80825 0.25493 0.76233 0.0
O150 O 0.9648 0.26006 0.66149 0.0
O151 O 0.95612 0.32412 0.62131 0.0
O152 O 0.95357 0.14482 0.70548 0.0
C153 C 0.97907 0.29576 0.78872 0.0
C154 C 0.10355 0.24192 0.6884 0.0
O155 O 0.89362 0.38081 0.73208 0.0
O156 O 0.94091 0.40682 0.66333 0.0
C157 C 0.95179 0.11895 0.66214 0.0
O158 O 0.97931 0.14653 0.62111 0.0
O159 O 0.07902 0.25969 0.6584 0.0
O160 O 0.69552 0.53512 0.65543 0.0
Tb161 Tb 0.76373 0.61119 0.6786 0.0
C162 C 0.7843 0.70135 0.7624 0.0
O163 O 0.83002 0.72881 0.64402 0.0
Tb164 Tb 0.86009 0.79845 0.69584 0.0
C165 C 0.86123 0.88899 0.67083 0.0
O166 O 0.75721 0.6565 0.61284 0.0
O167 O 0.9433 0.82398 0.71192 0.0
C168 C 0.9781 0.84164 0.67306 0.0
O169 O 0.96079 0.83553 0.62458 0.0
O170 O 0.80485 0.68009 0.73067 0.0
O171 O 0.80578 0.75397 0.76073 0.0
O172 O 0.82229 0.58554 0.66856 0.0
C173 C 0.78908 0.70887 0.6116 0.0
C174 C 0.67233 0.52289 0.70114 0.0
O175 O 0.85731 0.85287 0.63723 0.0
O176 O 0.86106 0.87212 0.71819 0.0
C177 C 0.83189 0.56234 0.70822 0.0
O178 O 0.80952 0.55966 0.75391 0.0
O179 O 0.69961 0.56186 0.73408 0.0
C180 C 0.37902 0.59346 0.09783 0.0
C181 C 0.40284 0.57117 0.06483 0.0
C182 C 0.31352 0.49929 0.03984 0.0
C183 C 0.29049 0.52278 0.07222 0.0
N184 N 0.30227 0.57414 0.1511 0.0
N185 N 0.39266 0.4945 1.01631 0.0
C186 C 0.32343 0.56397 0.10754 0.0
C187 C 0.37005 0.5215 0.03917 0.0
N188 N 0.40854 0.64411 0.11756 0.0
N189 N 0.28121 0.45529 1.01038 0.0
H190 H 0.43358 0.50857 1.01682 0.0
H191 H 0.37079 0.45598 1.00104 0.0
H192 H 0.23999 0.43367 1.01591 0.0
H193 H 0.29507 0.44059 0.98048 0.0
H194 H 0.39151 0.66337 0.13794 0.0
H195 H 0.44866 0.66922 0.10843 0.0
H196 H 0.32566 0.602 0.17954 0.0
H197 H 0.26295 0.54909 0.16292 0.0
C198 C 0.56015 0.86357 0.0718 0.0
C199 C 0.54002 0.87242 0.0241 0.0
C200 C 0.58561 0.83294 0.9759 0.0
C201 C 0.59164 0.81058 0.02316 0.0
N202 N 0.59943 0.81712 0.11727 0.0
N203 N 0.53285 0.86321 0.92944 0.0
C204 C 0.58384 0.83011 0.07168 0.0
C205 C 0.55351 0.8576 0.97561 0.0
N206 N 0.55789 0.88856 0.11666 0.0
N207 N 0.61159 0.83164 0.93156 0.0
H208 H 0.50782 0.87947 0.92684 0.0
H209 H 0.53695 0.8473 0.89407 0.0
H210 H 0.63883 0.8178 0.93206 0.0
H211 H 0.61175 0.85082 0.89681 0.0
H212 H 0.57509 0.88738 0.15208 0.0
H213 H 0.54273 0.91478 0.11723 0.0
H214 H 0.58861 0.82343 0.15445 0.0
H215 H 0.62476 0.80103 0.11766 0.0
C216 C 0.31102 0.77687 0.07358 0.0
C217 C 0.30552 0.80792 0.03327 0.0
C218 C 0.22045 0.7289 1.00719 0.0
C219 C 0.22981 0.69686 0.04316 0.0
N220 N 0.29061 0.68849 0.10201 0.0
N221 N 0.25591 0.81309 0.95976 0.0
C222 C 0.27667 0.7204 0.07431 0.0
C223 C 0.26045 0.78369 0.99944 0.0
N224 N 0.34922 0.8008 0.11123 0.0
N225 N 0.17263 0.70748 0.98179 0.0
H226 H 0.28169 0.85418 0.95564 0.0
H227 H 0.22803 0.79648 0.92972 0.0
H228 H 0.14276 0.66768 0.98654 0.0
H229 H 0.16081 0.7299 0.95925 0.0
H230 H 0.35074 0.78092 0.14478 0.0
H231 H 0.37625 0.84157 0.11195 0.0
H232 H 0.32727 0.70294 0.12059 0.0
H233 H 0.26836 0.64678 0.10166 0.0
C234 C 0.53917 0.31411 0.04412 0.0
C235 C 0.53432 0.2855 0.99671 0.0
C236 C 0.56056 0.3682 0.94677 0.0
C237 C 0.56043 0.39492 0.99384 0.0
N238 N 0.53417 0.38768 0.08464 0.0
N239 N 0.52817 0.28314 0.90211 0.0
C240 C 0.54445 0.36588 0.04154 0.0
C241 C 0.54107 0.31186 0.94776 0.0
N242 N 0.54355 0.29459 0.09162 0.0
N243 N 0.58227 0.39668 0.90174 0.0
H244 H 0.51273 0.24181 0.90122 0.0
H245 H 0.52748 0.29943 0.8658 0.0
H246 H 0.59868 0.43805 0.89919 0.0
H247 H 0.58856 0.37985 0.86813 0.0
H248 H 0.55213 0.31672 0.12624 0.0
H249 H 0.54587 0.2599 0.09616 0.0
H250 H 0.51754 0.3661 0.11906 0.0
H251 H 0.53664 0.42512 0.08385 0.0
C252 C 0.73507 0.2609 0.96906 0.0
C253 C 0.70912 0.21537 1.00238 0.0
C254 C 0.79466 0.24169 0.04549 0.0
C255 C 0.82084 0.28575 1.01034 0.0
N256 N 0.81744 0.32851 0.92978 0.0
N257 N 0.71538 0.15679 0.0658 0.0
C258 C 0.79165 0.2922 0.96899 0.0
C259 C 0.73928 0.20412 0.03882 0.0
N260 N 0.70557 0.27673 0.94003 0.0
N261 N 0.82281 0.23599 0.08553 0.0
H262 H 0.67505 0.12859 0.06182 0.0
H263 H 0.73612 0.14347 0.0889 0.0
H264 H 0.86411 0.25972 0.08881 0.0
H265 H 0.80515 0.20921 0.11648 0.0
H266 H 0.72216 0.31303 0.91991 0.0
H267 H 0.66403 0.25677 0.94061 0.0
H268 H 0.79834 0.33046 0.89593 0.0
H269 H 0.85856 0.35313 0.92804 0.0
C270 C 0.90049 0.56758 0.02184 0.0
C271 C 0.87891 0.51205 1.0116 0.0
C272 C 0.7907 0.50264 0.9973 0.0
C273 C 0.81104 0.55695 1.01213 0.0
N274 N 0.88346 0.64019 0.04364 0.0
N275 N 0.80147 0.42449 1.00116 0.0
C276 C 0.86551 0.58924 0.02587 0.0
C277 C 0.82347 0.479 1.00226 0.0
N278 N 0.95444 0.59977 0.0261 0.0
N279 N 0.73994 0.47346 0.97824 0.0
H280 H 0.82361 0.40536 1.00717 0.0
H281 H 0.76057 0.39795 0.99998 0.0
H282 H 0.71391 0.48855 0.97508 0.0
H283 H 0.7251 0.43577 0.96122 0.0
H284 H 0.97331 0.64137 0.02812 0.0
H285 H 0.98086 0.58499 0.02402 0.0
H286 H 0.92112 0.66401 0.05975 0.0
H287 H 0.85931 0.65766 0.04491 0.0
C288 C 0.98479 0.85468 0.29818 0.0
C289 C 0.95393 0.82382 0.342 0.0
C290 C 1.03594 0.83991 0.3864 0.0
C291 C 0.06657 0.87199 0.34338 0.0
N292 N 0.06925 0.8955 0.25198 0.0
N293 N 0.94843 0.77637 0.42139 0.0
C294 C 1.04063 0.87389 0.29697 0.0
C295 C 0.97913 0.81283 0.38397 0.0
N296 N 0.96241 0.87069 0.26009 0.0
N297 N 0.06145 0.83654 0.43009 0.0
H298 H 0.90684 0.75578 0.41993 0.0
H299 H 0.96365 0.76309 0.45111 0.0
H300 H 0.10269 0.85235 0.43133 0.0
H301 H 1.04229 0.81969 0.46543 0.0
H302 H 0.98475 0.89958 0.23199 0.0
H303 H 0.92233 0.85957 0.25863 0.0
H304 H 0.05146 0.89222 0.21561 0.0
H305 H 0.11035 0.91193 0.24942 0.0
C306 C 0.21623 0.18578 0.39804 0.0
C307 C 0.21889 0.21515 0.3522 0.0
C308 C 0.22775 0.14881 0.29819 0.0
C309 C 0.22473 0.11888 0.34405 0.0
N310 N 0.20135 0.10192 0.43588 0.0
N311 N 0.2135 0.2177 0.25855 0.0
C312 C 0.21461 0.13534 0.39353 0.0
C313 C 0.21944 0.19378 0.30227 0.0
N314 N 0.21638 0.20694 0.44614 0.0
N315 N 0.24294 0.1373 0.25127 0.0
H316 H 0.2081 0.25094 0.26092 0.0
H317 H 0.20841 0.20157 0.22097 0.0
H318 H 0.25287 0.10734 0.24665 0.0
H319 H 0.25117 0.16098 0.21787 0.0
H320 H 0.22132 0.19154 0.48134 0.0
H321 H 0.21359 0.24158 0.4504 0.0
H322 H 0.18866 0.10926 0.47168 0.0
H323 H 0.19777 0.06408 0.4338 0.0
C324 C 1.03105 0.07752 0.34872 0.0
C325 C 1.01769 0.11716 0.33492 0.0
C326 C 0.92273 0.04834 0.33311 0.0
C327 C 0.93672 1.00877 0.34478 0.0
N328 N 1.00485 0.98359 0.34719 0.0
N329 N 0.95233 0.13781 0.3001 0.0
C330 C 0.99117 1.02277 0.34706 0.0
C331 C 0.96391 0.10182 0.32288 0.0
N332 N 0.08067 0.09194 0.36723 0.0
N333 N 0.87046 0.03555 0.33405 0.0
H334 H 0.98158 0.1766 0.29006 0.0
H335 H 0.91462 0.12751 0.28609 0.0
H336 H 0.8393 0.99673 0.34072 0.0
H337 H 0.85833 0.06407 0.33193 0.0
H338 H 0.09067 0.06464 0.38284 0.0
H339 H 0.11004 0.13161 0.37255 0.0
H340 H 1.04407 0.99155 0.34368 0.0
H341 H 0.97661 0.94298 0.34502 0.0
C342 C 0.24877 0.69103 0.38907 0.0
C343 C 0.23051 0.70896 0.34601 0.0
C344 C 0.1839 0.61669 0.31081 0.0
C345 C 0.20073 0.59825 0.35461 0.0
N346 N 0.24452 0.61766 0.43931 0.0
N347 N 0.17158 0.68716 0.27234 0.0
C348 C 0.23096 0.63519 0.39521 0.0
C349 C 0.19523 0.67108 0.30892 0.0
N350 N 0.28678 0.72765 0.42192 0.0
N351 N 0.15794 0.58248 0.27027 0.0
H352 H 0.17833 0.72631 0.27074 0.0
H353 H 0.14163 0.66102 0.2471 0.0
H354 H 0.14672 0.54206 0.27128 0.0
H355 H 0.15042 0.59465 0.23436 0.0
H356 H 0.30808 0.71828 0.44865 0.0
H357 H 0.29999 0.76846 0.42048 0.0
H358 H 0.25841 0.64043 0.47344 0.0
H359 H 0.24017 0.57974 0.44328 0.0
C360 C 0.3891 0.58425 0.37658 0.0
C361 C 0.37238 0.53242 0.35611 0.0
C362 C 0.46595 0.55816 0.33864 0.0
C363 C 0.48283 0.60846 0.36318 0.0
N364 N 0.45952 0.66608 0.41326 0.0
N365 N 0.39434 0.46681 0.32453 0.0
C366 C 0.44423 0.62018 0.38511 0.0
C367 C 0.41071 0.51847 0.33902 0.0
N368 N 0.35278 0.6011 0.38395 0.0
N369 N 0.50263 0.5485 0.31443 0.0
H370 H 0.35433 0.4369 0.32467 0.0
H371 H 0.42038 0.45249 0.31663 0.0
H372 H 0.54356 0.5752 0.31592 0.0
H373 H 0.49243 0.5155 0.2904 0.0
H374 H 0.36341 0.64065 0.3922 0.0
H375 H 0.31219 0.57729 0.37643 0.0
H376 H 0.43308 0.67215 0.43624 0.0
H377 H 0.49857 0.69706 0.41685 0.0
C378 C 0.48659 0.87315 0.38231 0.0
C379 C 0.45159 0.86425 0.33966 0.0
C380 C 0.4959 0.82429 0.28986 0.0
C381 C 0.52351 0.82386 0.33556 0.0
N382 N 0.54032 0.84317 0.42823 0.0
N383 N 0.41565 0.81944 0.25709 0.0
C384 C 0.51828 0.84772 0.38253 0.0
C385 C 0.45474 0.83736 0.29413 0.0
N386 N 0.48991 0.90623 0.42243 0.0
N387 N 0.50858 0.81148 0.24231 0.0
H388 H 0.38182 0.82301 0.26139 0.0
H389 H 0.41352 0.79519 0.22568 0.0
H390 H 0.53932 0.80268 0.2378 0.0
H391 H 0.49259 0.81533 0.20703 0.0
H392 H 0.5183 0.91824 0.45211 0.0
H393 H 0.46784 0.92596 0.42311 0.0
H394 H 0.53234 0.85422 0.46465 0.0
H395 H 0.56318 0.82445 0.43066 0.0
C396 C 0.6962 0.17288 0.70786 0.0
C397 C 0.73461 0.22811 0.70272 0.0
C398 C 0.66287 0.24842 0.68456 0.0
C399 C 0.62418 0.1937 0.69289 0.0
N400 N 0.60266 0.10439 0.7168 0.0
N401 N 0.75423 0.3197 0.69487 0.0
C402 C 0.64051 0.15604 0.70581 0.0
C403 C 0.71785 0.26616 0.69311 0.0
N404 N 0.71322 0.13652 0.71348 0.0
N405 N 0.64717 0.28362 0.66779 0.0
H406 H 0.79489 0.33452 0.70001 0.0
H407 H 0.74397 0.34964 0.69529 0.0
H408 H 0.60738 0.27354 0.66403 0.0
H409 H 0.67352 0.32211 0.65437 0.0
H410 H 0.68806 0.09522 0.71276 0.0
H411 H 0.75351 0.14777 0.71529 0.0
H412 H 0.61112 0.07582 0.73176 0.0
H413 H 0.56191 0.09078 0.71375 0.0
C414 C 0.86237 0.45519 0.65952 0.0
C415 C 0.90401 0.46322 0.69428 0.0
C416 C 0.90594 0.54369 0.72937 0.0
C417 C 0.8596 0.53122 0.69985 0.0
N418 N 0.78822 0.46981 0.64329 0.0
N419 N 0.96516 0.51356 0.76328 0.0
C420 C 0.83673 0.48602 0.66602 0.0
C421 C 0.92594 0.50728 0.72936 0.0
N422 N 0.8466 0.41749 0.62069 0.0
N423 N 0.93125 0.59085 0.75655 0.0
H424 H 0.98274 0.48947 0.76181 0.0
H425 H 0.97861 0.54082 0.79421 0.0
H426 H 0.91767 0.61837 0.75694 0.0
H427 H 0.96782 0.60482 0.77509 0.0
H428 H 0.82078 0.41419 0.59064 0.0
H429 H 0.86247 0.39224 0.61568 0.0
H430 H 0.76646 0.43337 0.62385 0.0
H431 H 0.76694 0.49004 0.64792 0.0
C432 C 0.63504 0.43519 0.74913 0.0
C433 C 0.62709 0.46868 0.71376 0.0
C434 C 0.54175 0.39144 0.6865 0.0
C435 C 0.55421 0.35698 0.71539 0.0
N436 N 0.61751 0.34541 0.76758 0.0
N437 N 0.57307 0.47951 0.64849 0.0
C438 C 0.60177 0.37866 0.74553 0.0
C439 C 0.58029 0.44698 0.68252 0.0
N440 N 0.67475 0.45692 0.7857 0.0
N441 N 0.49256 0.37128 0.6641 0.0
H442 H 0.59809 0.52098 0.64774 0.0
H443 H 0.54365 0.46534 0.61975 0.0
H444 H 0.46342 0.33095 0.66671 0.0
H445 H 0.4789 0.39498 0.64685 0.0
H446 H 0.67865 0.43466 0.81583 0.0
H447 H 0.70058 0.49784 0.78968 0.0
H448 H 0.65483 0.3591 0.78449 0.0
H449 H 0.59585 0.30382 0.7644 0.0
C450 C 0.84957 0.96988 0.6781 0.0
C451 C 0.87936 0.94622 0.65901 0.0
C452 C 0.95699 0.03555 0.64621 0.0
C453 C 0.92625 0.05943 0.66154 0.0
N454 N 0.84036 0.0493 0.68274 0.0
N455 N 0.95738 0.95737 0.61227 0.0
C456 C 0.8716 1.02658 0.67487 0.0
C457 C 0.9315 0.97928 0.63853 0.0
N458 N 0.80038 0.93815 0.69981 0.0
N459 N 1.01131 0.06598 0.64265 0.0
H460 H 0.94103 0.91654 0.60579 0.0
H461 H 0.99317 0.98033 0.5922 0.0
H462 H 1.03226 0.10679 0.65126 0.0
H463 H 1.03614 0.04971 0.63732 0.0
H464 H 0.77934 0.95319 0.72019 0.0
H465 H 0.78165 0.8964 0.69953 0.0
H466 H 0.79914 1.02717 0.68741 0.0
H467 H 0.85502 0.09047 0.68013 0.0
C468 C 0.05148 0.92976 0.70642 0.0
C469 C 1.03557 0.87899 0.68342 0.0
C470 C 0.12956 0.90675 0.66524 0.0
C471 C 0.14503 0.95703 0.6889 0.0
N472 N 0.12264 1.01007 0.74574 0.0
N473 N 0.05892 0.81515 0.64955 0.0
C474 C 0.10651 0.96646 0.7138 0.0
C475 C 0.07458 0.86623 0.66552 0.0
N476 N 1.01441 0.94456 0.71831 0.0
N477 N 0.16707 0.89858 0.64078 0.0
H478 H 1.01905 0.78487 0.64948 0.0
H479 H 0.08533 0.80159 0.64042 0.0
H480 H 0.20765 0.92672 0.64164 0.0
H481 H 0.15799 0.8654 0.61745 0.0
H482 H 1.02441 0.98352 0.72856 0.0
H483 H 0.97357 0.91949 0.7135 0.0
H484 H 0.09653 1.01621 0.76915 0.0
H485 H 0.16269 0.03709 0.75334 0.0
C486 C 0.23478 0.24185 0.70574 0.0
C487 C 0.22878 0.20388 0.66685 0.0
C488 C 0.15108 0.20691 0.63148 0.0
C489 C 0.15194 0.23794 0.67528 0.0
N490 N 0.19456 0.28543 0.75463 0.0
N491 N 0.17481 0.1427 0.5983 0.0
C492 C 0.194 0.2557 0.71246 0.0
C493 C 0.18566 0.1849 0.63071 0.0
N494 N 0.28016 0.26572 0.73529 0.0
N495 N 0.11674 0.19739 0.59087 0.0
H496 H 0.1969 0.12307 0.59791 0.0
H497 H 0.14036 0.12321 0.5757 0.0
H498 H 0.08987 0.21148 0.58996 0.0
H499 H 0.11862 0.18005 0.55555 0.0
H500 H 0.28961 0.2975 0.76079 0.0
H501 H 0.31079 0.25674 0.73099 0.0
H502 H 0.21971 0.29383 0.78673 0.0
H503 H 0.16818 0.30013 0.7584 0.0
C504 C 0.14941 0.4052 0.18579 0.0
C505 C 0.13168 0.40281 0.23828 0.0
C506 C 0.08007 0.44533 0.20966 0.0
C507 C 0.09131 0.43984 0.15625 0.0
N508 N 0.13318 0.41016 0.09329 0.0
N509 N 0.07884 0.41931 0.30082 0.0
C510 C 0.1256 0.41919 0.14432 0.0
C511 C 0.09729 0.42336 0.25059 0.0
N512 N 0.18989 0.39483 0.17573 0.0
N513 N 0.05295 0.47181 0.22109 0.0
H514 H 0.09166 0.4049 0.33177 0.0
H515 H 1.04891 0.42759 0.31156 0.0
H516 H 1.0407 0.48898 0.19216 0.0
H517 H 1.04672 0.48108 0.25903 0.0
H518 H 0.20836 0.40099 0.13919 0.0
H519 H 0.2086 0.38531 0.20541 0.0
H520 H 0.1515 0.38835 0.08198 0.0
H521 H 0.11941 0.42337 0.06222 0.0
C522 C 0.73012 0.77045 0.16587 0.0
C523 C 0.69814 0.76047 0.21159 0.0
C524 C 0.62513 0.68279 0.16901 0.0
C525 C 0.66011 0.68583 0.12803 0.0
N526 N 0.74362 0.73734 0.08243 0.0
N527 N 0.60823 0.73447 0.23346 0.0
C528 C 0.71179 0.73172 0.12453 0.0
C529 C 0.64321 0.72471 0.2067 0.0
N530 N 0.77559 0.81882 0.16042 0.0
N531 N 0.57649 0.63813 0.17514 0.0
H532 H 0.62134 0.76787 0.25783 0.0
H533 H 0.56736 0.71348 0.22585 0.0
H534 H 0.56291 0.60498 0.15045 0.0
H535 H 0.55194 0.63286 0.20737 0.0
H536 H 0.79967 0.83055 0.1271 0.0
H537 H 0.78547 0.85005 0.18695 0.0
H538 H 0.78393 0.7658 0.08024 0.0
H539 H 0.72966 0.71218 0.04975 0.0
C540 C 0.37366 1.02293 0.125 0.0
C541 C 0.41628 1.01161 0.12025 0.0
C542 C 0.37404 0.94327 0.18911 0.0
C543 C 0.33928 0.96313 0.20203 0.0
N544 N 0.28897 1.00127 0.16584 0.0
N545 N 0.4588 0.96279 0.15175 0.0
C546 C 0.33425 0.99741 0.16519 0.0
C547 C 0.41662 0.97183 0.15294 0.0
N548 N 0.37122 0.05856 0.09136 0.0
N549 N 0.36371 0.89452 0.20692 0.0
H550 H 0.49113 0.98252 0.12633 0.0
H551 H 0.46374 0.93883 0.17929 0.0
H552 H 0.32881 0.86849 0.22667 0.0
H553 H 0.38567 0.87677 0.19476 0.0
H554 H 0.34651 0.07489 0.09669 0.0
H555 H 0.39518 0.07289 0.05808 0.0
H556 H 0.28013 1.02252 0.13851 0.0
H557 H 0.2568 0.97765 0.19048 0.0
C558 C 0.4657 0.0702 0.83628 0.0
C559 C 0.45632 0.08076 0.8886 0.0
C560 C 0.41936 0.13542 0.85461 0.0
C561 C 0.42061 0.11752 0.80294 0.0
N562 N 0.44257 0.06554 0.7441 0.0
N563 N 0.42298 0.12206 0.94825 0.0
C564 C 0.44397 0.08497 0.79344 0.0
C565 C 0.43354 0.11374 0.89795 0.0
N566 N 0.49574 0.04625 0.82771 0.0
N567 N 0.40492 0.17358 0.86199 0.0
H568 H 0.43455 0.10806 0.98044 0.0
H569 H 0.40075 0.1403 0.95804 0.0
H570 H 0.39516 0.1906 0.83082 0.0
H571 H 0.40741 0.19194 0.89795 0.0
H572 H 0.50792 0.04127 0.79066 0.0
H573 H 0.5126 0.03554 0.85823 0.0
H574 H 0.45287 0.0364 0.73572 0.0
H575 H 0.42814 0.07632 0.71161 0.0
C576 C 0.98962 0.40195 0.88625 0.0
C577 C 1.02291 0.39833 0.92519 0.0
C578 C 1.00661 0.31333 0.88507 0.0
C579 C 0.98259 0.3232 0.84099 0.0
N580 N 0.92048 0.35277 0.82264 0.0
N581 N 0.05788 0.34641 0.9652 0.0
C582 C 0.96506 0.36069 0.84782 0.0
C583 C 1.02954 0.35251 0.92575 0.0
N584 N 0.98372 0.44609 0.88349 0.0
N585 N 1.00195 0.26396 0.89094 0.0
H586 H 0.06888 0.37008 0.99876 0.0
H587 H 0.07139 0.31894 0.96412 0.0
H588 H 0.97777 0.23186 0.86652 0.0
H589 H 1.01504 0.25232 0.92375 0.0
H590 H 0.96349 0.45226 0.85294 0.0
H591 H 1.00223 0.47834 0.90926 0.0
H592 H 0.90142 0.37454 0.83154 0.0
H593 H 0.89849 0.31893 0.79957 0.0
C594 C 0.69291 0.67702 0.79686 0.0
C595 C 0.73755 0.66879 0.79766 0.0
C596 C 0.69686 0.60765 0.8728 0.0
C597 C 0.6603 0.62625 0.87926 0.0
N598 N 0.60308 0.64692 0.82788 0.0
N599 N 0.78188 0.62521 0.83803 0.0
C600 C 0.65206 0.65176 0.83545 0.0
C601 C 0.73889 0.63275 0.83524 0.0
N602 N 0.68982 0.7098 0.75998 0.0
N603 N 0.68783 0.56224 0.89791 0.0
H604 H 0.81447 0.64371 0.81275 0.0
H605 H 0.78685 0.60373 0.86829 0.0
H606 H 0.65541 0.54166 0.92294 0.0
H607 H 0.70874 0.54227 0.88918 0.0
H608 H 0.66233 0.72318 0.76194 0.0
H609 H 0.71643 0.72588 0.72868 0.0
H610 H 0.59297 0.66089 0.79462 0.0
H611 H 0.57016 0.62156 0.85087 0.0
C612 C 0.70852 0.75835 0.53487 0.0
C613 C 0.7426 0.78178 0.49078 0.0
C614 C 0.81374 0.77604 0.53727 0.0
C615 C 0.77628 0.74206 0.57571 0.0
N616 N 0.68783 0.7037 0.61307 0.0
N617 N 0.83342 0.84382 0.47135 0.0
C618 C 0.72375 0.7346 0.57541 0.0
C619 C 0.7972 0.79975 0.49785 0.0
N620 N 0.66443 0.76378 0.54062 0.0
N621 N 0.86395 0.78285 0.53562 0.0
H622 H 0.82121 0.86448 0.44658 0.0
H623 H 0.87396 0.86358 0.48029 0.0
H624 H 0.8778 0.76548 0.56259 0.0
H625 H 0.89049 0.8027 0.50493 0.0
H626 H 0.64002 0.75123 0.57376 0.0
H627 H 0.65709 0.78836 0.51606 0.0
H628 H 0.64721 0.69063 0.61077 0.0
H629 H 0.69817 0.68883 0.64551 0.0
C630 C 0.37084 0.06116 0.45548 0.0
C631 C 0.32095 1.01314 0.46126 0.0
C632 C 0.30421 0.05021 0.54144 0.0
C633 C 0.35806 0.09152 0.54233 0.0
N634 N 0.43106 0.15135 0.48697 0.0
N635 N 0.24118 0.96062 0.51314 0.0
C636 C 0.38849 0.10139 0.49545 0.0
C637 C 0.28753 1.0076 0.50471 0.0
N638 N 0.40131 0.06829 0.41179 0.0
N639 N 0.26767 0.05458 0.57155 0.0
H640 H 0.22817 0.92699 0.48931 0.0
H641 H 0.21818 0.95345 0.54693 0.0
H642 H 0.27774 0.08952 0.59228 0.0
H643 H 0.22678 1.02849 0.56812 0.0
H644 H 0.44094 0.09825 0.40813 0.0
H645 H 0.38733 0.04308 0.37919 0.0
H646 H 0.45353 0.16314 0.4526 0.0
H647 H 0.43965 0.18349 0.51183 0.0
C648 C 1.01636 0.26548 0.54777 0.0
C649 C 1.02355 0.30531 0.58491 0.0
C650 C 0.10947 0.36762 0.5426 0.0
C651 C 0.09832 0.32998 0.50139 0.0
N652 N 0.05991 0.23441 0.48789 0.0
N653 N 0.07813 0.39414 0.61973 0.0
C654 C 0.05723 0.27613 0.5104 0.0
C655 C 0.07076 0.35625 0.58314 0.0
N656 N 0.9693 0.21815 0.54613 0.0
N657 N 0.15924 0.41153 0.54588 0.0
H658 H 0.05307 0.38591 0.65216 0.0
H659 H 0.10759 0.43419 0.61693 0.0
H660 H 0.19043 0.41647 0.52147 0.0
H661 H 0.17188 0.43898 0.57659 0.0
H662 H 0.95966 0.19053 0.51574 0.0
H663 H 0.93828 0.20831 0.57275 0.0
H664 H 1.03252 0.19443 0.49593 0.0
H665 H 0.09434 0.23917 0.46971 0.0
loop_
_geom_bond_atom_site_label_1
_geom_bond_atom_site_label_2
_geom_bond_distance
_geom_bond_site_symmetry_2
_ccdc_geom_bond_type
O0 Tb1 2.506 . S
O0 C14 1.265 . S
Tb1 O0 2.506 . S
Tb1 O6 2.312 . S
Tb1 O10 2.271 1_554 S
Tb1 O12 2.338 . S
Tb1 O19 2.441 1_554 S
C2 O10 1.252 . S
C2 O11 1.253 1_655 S
O3 Tb4 2.271 1_554 S
O3 C13 1.252 . S
Tb4 O3 2.271 1_556 S
Tb4 O7 2.338 . S
Tb4 O11 2.312 . S
Tb4 O15 2.441 1_556 S
Tb4 O16 2.506 . S
C5 O15 1.244 1_556 S
C5 O16 1.265 . S
O6 Tb1 2.312 . S
O6 C13 1.253 1_655 S
O7 Tb4 2.338 . S
O7 C8 1.258 1_556 S
C8 O7 1.258 1_554 S
C8 O9 1.251 . S
O9 C8 1.251 . S
O10 Tb1 2.271 1_556 S
O10 C2 1.252 . S
O11 C2 1.253 1_455 S
O11 Tb4 2.312 . S
O12 Tb1 2.338 . S
O12 C17 1.258 1_554 S
C13 O3 1.252 . S
C13 O6 1.253 1_455 S
C14 O0 1.265 . S
C14 O19 1.244 1_554 S
O15 Tb4 2.441 1_554 S
O15 C5 1.244 1_554 S
O16 Tb4 2.506 . S
O16 C5 1.265 . S
C17 O12 1.258 1_556 S
C17 O18 1.251 . S
O18 C17 1.251 . S
O19 Tb1 2.441 1_556 S
O19 C14 1.244 1_556 S
O20 Tb21 2.506 . S
O20 C34 1.265 . S
Tb21 O20 2.506 . S
Tb21 O26 2.312 . S
Tb21 O30 2.271 1_554 S
Tb21 O32 2.338 . S
Tb21 O39 2.429 1_554 S
C22 O30 1.252 . S
C22 O31 1.253 . S
O23 Tb24 2.271 1_554 S
O23 C33 1.252 . S
Tb24 O23 2.271 1_556 S
Tb24 O27 2.338 . S
Tb24 O31 2.312 . S
Tb24 O35 2.441 1_556 S
Tb24 O36 2.506 . S
C25 O35 1.244 1_556 S
C25 O36 1.265 . S
O26 Tb21 2.312 . S
O26 C33 1.253 . S
O27 Tb24 2.338 . S
O27 C28 1.258 1_556 S
C28 O27 1.258 1_554 S
C28 O29 1.251 . S
O29 C28 1.251 . S
O30 Tb21 2.271 1_556 S
O30 C22 1.252 . S
O31 C22 1.253 . S
O31 Tb24 2.312 . S
O32 Tb21 2.338 . S
O32 C37 1.258 1_554 S
C33 O23 1.252 . S
C33 O26 1.253 . S
C34 O20 1.265 . S
C34 O39 1.227 1_554 S
O35 Tb24 2.441 1_554 S
O35 C25 1.244 1_554 S
O36 Tb24 2.506 . S
O36 C25 1.265 . S
C37 O32 1.258 1_556 S
C37 O38 1.251 . S
O38 C37 1.251 . S
O39 Tb21 2.429 1_556 S
O39 C34 1.227 1_556 S
O40 Tb41 2.506 . S
O40 C54 1.265 . S
Tb41 O40 2.506 . S
Tb41 O46 2.312 . S
Tb41 O50 2.271 1_556 S
Tb41 O52 2.338 . S
Tb41 O59 2.441 1_556 S
C42 O50 1.252 . S
C42 O51 1.253 1_565 S
O43 Tb44 2.271 1_556 S
O43 C53 1.252 . S
Tb44 O43 2.271 1_554 S
Tb44 O47 2.338 . S
Tb44 O51 2.312 . S
Tb44 O55 2.429 1_554 S
Tb44 O56 2.506 . S
C45 O55 1.227 1_554 S
C45 O56 1.265 . S
O46 Tb41 2.312 . S
O46 C53 1.253 1_565 S
O47 Tb44 2.338 . S
O47 C48 1.258 1_554 S
C48 O47 1.258 1_556 S
C48 O49 1.251 . S
O49 C48 1.251 . S
O50 Tb41 2.271 1_554 S
O50 C42 1.252 . S
O51 C42 1.253 1_545 S
O51 Tb44 2.312 . S
O52 Tb41 2.338 . S
O52 C57 1.258 1_556 S
C53 O43 1.252 . S
C53 O46 1.253 1_545 S
C54 O40 1.265 . S
C54 O59 1.244 1_556 S
O55 Tb44 2.429 1_556 S
O55 C45 1.227 1_556 S
O56 Tb44 2.506 . S
O56 C45 1.265 . S
C57 O52 1.258 1_554 S
C57 O58 1.251 . S
O58 C57 1.251 . S
O59 Tb41 2.441 1_554 S
O59 C54 1.244 1_554 S
O60 Tb61 2.506 . S
O60 C74 1.265 . S
Tb61 O60 2.506 . S
Tb61 O66 2.312 . S
Tb61 O70 2.271 . S
Tb61 O72 2.338 . S
Tb61 O79 2.441 . S
C62 O70 1.252 . S
C62 O71 1.253 . S
O63 Tb64 2.271 . S
O63 C73 1.252 . S
Tb64 O63 2.271 . S
Tb64 O67 2.338 . S
Tb64 O71 2.312 . S
Tb64 O75 2.441 . S
Tb64 O76 2.506 . S
C65 O75 1.244 . S
C65 O76 1.265 . S
O66 Tb61 2.312 . S
O66 C73 1.253 . S
O67 Tb64 2.338 . S
O67 C68 1.258 . S
C68 O67 1.258 . S
C68 O69 1.251 . S
O69 C68 1.251 . S
O70 Tb61 2.271 . S
O70 C62 1.252 . S
O71 C62 1.253 . S
O71 Tb64 2.312 . S
O72 Tb61 2.338 . S
O72 C77 1.258 . S
C73 O63 1.252 . S
C73 O66 1.253 . S
C74 O60 1.265 . S
C74 O79 1.244 . S
O75 Tb64 2.441 . S
O75 C65 1.244 . S
O76 Tb64 2.506 . S
O76 C65 1.265 . S
C77 O72 1.258 . S
C77 O78 1.251 . S
O78 C77 1.251 . S
O79 Tb61 2.441 . S
O79 C74 1.244 . S
O80 Tb81 2.506 . S
O80 C94 1.265 . S
Tb81 O80 2.506 . S
Tb81 O86 2.312 . S
Tb81 O90 2.271 . S
Tb81 O92 2.338 . S
Tb81 O99 2.441 . S
C82 O90 1.252 . S
C82 O91 1.253 . S
O83 Tb84 2.271 . S
O83 C93 1.252 . S
Tb84 O83 2.271 . S
Tb84 O87 2.338 . S
Tb84 O91 2.312 . S
Tb84 O95 2.441 . S
Tb84 O96 2.506 . S
C85 O95 1.244 1_545 S
C85 O96 1.265 1_545 S
O86 Tb81 2.312 . S
O86 C93 1.253 . S
O87 Tb84 2.338 . S
O87 C88 1.258 . S
C88 O87 1.258 . S
C88 O89 1.251 . S
O89 C88 1.251 . S
O90 Tb81 2.271 . S
O90 C82 1.252 . S
O91 C82 1.253 . S
O91 Tb84 2.312 . S
O92 Tb81 2.338 . S
O92 C97 1.258 . S
C93 O83 1.252 . S
C93 O86 1.253 . S
C94 O80 1.265 . S
C94 O99 1.244 . S
O95 Tb84 2.441 . S
O95 C85 1.244 1_565 S
O96 Tb84 2.506 . S
O96 C85 1.265 1_565 S
C97 O92 1.258 . S
C97 O98 1.251 . S
O98 C97 1.251 . S
O99 Tb81 2.441 . S
O99 C94 1.244 . S
O100 Tb101 2.506 . S
O100 C114 1.265 . S
Tb101 O100 2.506 . S
Tb101 O106 2.312 . S
Tb101 O110 2.271 . S
Tb101 O112 2.338 . S
Tb101 O119 2.441 . S
C102 O110 1.252 . S
C102 O111 1.253 . S
O103 Tb104 2.271 . S
O103 C113 1.252 . S
Tb104 O103 2.271 . S
Tb104 O107 2.338 . S
Tb104 O111 2.312 . S
Tb104 O115 2.441 . S
Tb104 O116 2.506 . S
C105 O115 1.244 1_655 S
C105 O116 1.265 1_655 S
O106 Tb101 2.312 . S
O106 C113 1.253 . S
O107 Tb104 2.338 . S
O107 C108 1.258 . S
C108 O107 1.258 . S
C108 O109 1.251 . S
O109 C108 1.251 . S
O110 Tb101 2.271 . S
O110 C102 1.252 . S
O111 C102 1.253 . S
O111 Tb104 2.312 . S
O112 Tb101 2.338 . S
O112 C117 1.258 . S
C113 O103 1.252 . S
C113 O106 1.253 . S
C114 O100 1.265 . S
C114 O119 1.244 . S
O115 Tb104 2.441 . S
O115 C105 1.244 1_455 S
O116 Tb104 2.506 . S
O116 C105 1.265 1_455 S
C117 O112 1.258 . S
C117 O118 1.251 . S
O118 C117 1.251 . S
O119 Tb101 2.441 . S
O119 C114 1.244 . S
O120 Tb121 2.506 . S
O120 C134 1.265 1_545 S
Tb121 O120 2.506 . S
Tb121 O126 2.312 . S
Tb121 O130 2.271 . S
Tb121 O132 2.338 . S
Tb121 O139 2.441 . S
C122 O130 1.252 . S
C122 O131 1.253 . S
O123 Tb124 2.271 . S
O123 C133 1.252 . S
Tb124 O123 2.271 . S
Tb124 O127 2.338 . S
Tb124 O131 2.312 . S
Tb124 O135 2.441 . S
Tb124 O136 2.506 . S
C125 O135 1.244 . S
C125 O136 1.265 . S
O126 Tb121 2.312 . S
O126 C133 1.253 . S
O127 Tb124 2.338 . S
O127 C128 1.258 . S
C128 O127 1.258 . S
C128 O129 1.251 . S
O129 C128 1.251 . S
O130 Tb121 2.271 . S
O130 C122 1.252 . S
O131 C122 1.253 . S
O131 Tb124 2.312 . S
O132 Tb121 2.338 . S
O132 C137 1.258 . S
C133 O123 1.252 . S
C133 O126 1.253 . S
C134 O120 1.265 1_565 S
C134 O139 1.244 1_565 S
O135 Tb124 2.441 . S
O135 C125 1.244 . S
O136 Tb124 2.506 . S
O136 C125 1.265 . S
C137 O132 1.258 . S
C137 O138 1.251 . S
O138 C137 1.251 . S
O139 Tb121 2.441 . S
O139 C134 1.244 1_545 S
O140 Tb141 2.506 . S
O140 C154 1.265 1_655 S
Tb141 O140 2.506 . S
Tb141 O146 2.312 . S
Tb141 O150 2.271 . S
Tb141 O152 2.338 . S
Tb141 O159 2.441 . S
C142 O150 1.252 . S
C142 O151 1.253 . S
O143 Tb144 2.271 . S
O143 C153 1.252 . S
Tb144 O143 2.271 . S
Tb144 O147 2.338 . S
Tb144 O151 2.312 . S
Tb144 O155 2.441 . S
Tb144 O156 2.506 . S
C145 O155 1.244 . S
C145 O156 1.265 . S
O146 Tb141 2.312 . S
O146 C153 1.253 . S
O147 Tb144 2.338 . S
O147 C148 1.258 . S
C148 O147 1.258 . S
C148 O149 1.251 . S
O149 C148 1.251 . S
O150 Tb141 2.271 . S
O150 C142 1.252 . S
O151 C142 1.253 . S
O151 Tb144 2.312 . S
O152 Tb141 2.338 . S
O152 C157 1.258 . S
C153 O143 1.252 . S
C153 O146 1.253 . S
C154 O140 1.265 1_455 S
C154 O159 1.244 1_455 S
O155 Tb144 2.441 . S
O155 C145 1.244 . S
O156 Tb144 2.506 . S
O156 C145 1.265 . S
C157 O152 1.258 . S
C157 O158 1.251 . S
O158 C157 1.251 . S
O159 Tb141 2.441 . S
O159 C154 1.244 1_655 S
O160 Tb161 2.506 . S
O160 C174 1.265 . S
Tb161 O160 2.506 . S
Tb161 O166 2.312 . S
Tb161 O170 2.271 . S
Tb161 O172 2.338 . S
Tb161 O179 2.441 . S
C162 O170 1.252 . S
C162 O171 1.253 . S
O163 Tb164 2.271 . S
O163 C173 1.252 . S
Tb164 O163 2.271 . S
Tb164 O167 2.338 . S
Tb164 O171 2.312 . S
Tb164 O175 2.441 . S
Tb164 O176 2.506 . S
C165 O175 1.244 . S
C165 O176 1.265 . S
O166 Tb161 2.312 . S
O166 C173 1.253 . S
O167 Tb164 2.338 . S
O167 C168 1.258 . S
C168 O167 1.258 . S
C168 O169 1.251 . S
O169 C168 1.251 . S
O170 Tb161 2.271 . S
O170 C162 1.252 . S
O171 C162 1.253 . S
O171 Tb164 2.312 . S
O172 Tb161 2.338 . S
O172 C177 1.258 . S
C173 O163 1.252 . S
C173 O166 1.253 . S
C174 O160 1.265 . S
C174 O179 1.244 . S
O175 Tb164 2.441 . S
O175 C165 1.244 . S
O176 Tb164 2.506 . S
O176 C165 1.265 . S
C177 O172 1.258 . S
C177 O178 1.251 . S
O178 C177 1.251 . S
O179 Tb161 2.441 . S
O179 C174 1.244 . S
C180 C181 1.363 . S
C180 C186 1.379 . S
C180 N188 1.356 . S
C181 C180 1.363 . S
C181 C187 1.363 1_554 S
C182 C183 1.363 . S
C182 C187 1.379 . S
C182 N189 1.356 . S
C183 C182 1.363 . S
C183 C186 1.363 1_556 S
N184 C186 1.356 . S
N184 H196 0.984 . S
N184 H197 0.985 . S
N185 C187 1.356 . S
N185 H190 0.984 . S
N185 H191 0.985 . S
C186 C180 1.379 . S
C186 C183 1.363 1_554 S
C186 N184 1.356 . S
C187 C181 1.363 1_556 S
C187 C182 1.379 . S
C187 N185 1.356 . S
N188 C180 1.356 . S
N188 H194 0.984 . S
N188 H195 0.984 . S
N189 C182 1.356 . S
N189 H192 0.984 . S
N189 H193 0.985 . S
H190 N185 0.984 . S
H191 N185 0.985 . S
H192 N189 0.984 . S
H193 N189 0.985 . S
H194 N188 0.984 . S
H195 N188 0.984 . S
H196 N184 0.984 . S
H197 N184 0.985 . S
C198 C199 1.363 . S
C198 C204 1.379 . S
C198 N206 1.356 . S
C199 C198 1.363 . S
C199 C205 1.363 1_554 S
C200 C201 1.363 . S
C200 C205 1.379 . S
C200 N207 1.356 . S
C201 C200 1.363 . S
C201 C204 1.363 1_556 S
N202 C204 1.356 . S
N202 H214 0.984 . S
N202 H215 0.985 . S
N203 C205 1.356 . S
N203 H208 0.984 . S
N203 H209 0.985 . S
C204 C198 1.379 . S
C204 C201 1.363 1_554 S
C204 N202 1.356 . S
C205 C199 1.363 1_556 S
C205 C200 1.379 . S
C205 N203 1.356 . S
N206 C198 1.356 . S
N206 H212 0.984 . S
N206 H213 0.984 . S
N207 C200 1.356 . S
N207 H210 0.984 . S
N207 H211 0.985 . S
H208 N203 0.984 . S
H209 N203 0.985 . S
H210 N207 0.984 . S
H211 N207 0.985 . S
H212 N206 0.984 . S
H213 N206 0.984 . S
H214 N202 0.984 . S
H215 N202 0.985 . S
C216 C217 1.363 1_554 S
C216 C222 1.379 . S
C216 N224 1.356 . S
C217 C216 1.363 1_556 S
C217 C223 1.363 . S
C218 C219 1.363 1_556 S
C218 C223 1.379 . S
C218 N225 1.356 . S
C219 C218 1.363 1_554 S
C219 C222 1.363 . S
N220 C222 1.356 . S
N220 H232 0.984 . S
N220 H233 0.985 . S
N221 C223 1.356 . S
N221 H226 0.984 . S
N221 H227 0.985 . S
C222 C216 1.379 . S
C222 C219 1.363 . S
C222 N220 1.356 . S
C223 C217 1.363 . S
C223 C218 1.379 . S
C223 N221 1.356 . S
N224 C216 1.356 . S
N224 H230 0.984 . S
N224 H231 0.984 . S
N225 C218 1.356 . S
N225 H228 0.984 . S
N225 H229 0.985 . S
H226 N221 0.984 . S
H227 N221 0.985 . S
H228 N225 0.984 . S
H229 N225 0.985 . S
H230 N224 0.984 . S
H231 N224 0.984 . S
H232 N220 0.984 . S
H233 N220 0.985 . S
C234 C235 1.363 . S
C234 C240 1.379 . S
C234 N242 1.356 . S
C235 C234 1.363 . S
C235 C241 1.363 1_554 S
C236 C237 1.363 . S
C236 C241 1.379 . S
C236 N243 1.356 . S
C237 C236 1.363 . S
C237 C240 1.363 1_556 S
N238 C240 1.356 . S
N238 H250 0.984 . S
N238 H251 0.985 . S
N239 C241 1.356 . S
N239 H244 0.984 . S
N239 H245 0.985 . S
C240 C234 1.379 . S
C240 C237 1.363 1_554 S
C240 N238 1.356 . S
C241 C235 1.363 1_556 S
C241 C236 1.379 . S
C241 N239 1.356 . S
N242 C234 1.356 . S
N242 H248 0.984 . S
N242 H249 0.984 . S
N243 C236 1.356 . S
N243 H246 0.984 . S
N243 H247 0.985 . S
H244 N239 0.984 . S
H245 N239 0.985 . S
H246 N243 0.984 . S
H247 N243 0.985 . S
H248 N242 0.984 . S
H249 N242 0.984 . S
H250 N238 0.984 . S
H251 N238 0.985 . S
C252 C253 1.363 . S
C252 C258 1.379 . S
C252 N260 1.356 . S
C253 C252 1.363 . S
C253 C259 1.363 1_556 S
C254 C255 1.363 . S
C254 C259 1.379 . S
C254 N261 1.356 . S
C255 C254 1.363 . S
C255 C258 1.363 1_554 S
N256 C258 1.356 . S
N256 H268 0.984 . S
N256 H269 0.985 . S
N257 C259 1.356 . S
N257 H262 0.984 . S
N257 H263 0.985 . S
C258 C252 1.379 . S
C258 C255 1.363 1_556 S
C258 N256 1.356 . S
C259 C253 1.363 1_554 S
C259 C254 1.379 . S
C259 N257 1.356 . S
N260 C252 1.356 . S
N260 H266 0.984 . S
N260 H267 0.984 . S
N261 C254 1.356 . S
N261 H264 0.984 . S
N261 H265 0.985 . S
H262 N257 0.984 . S
H263 N257 0.985 . S
H264 N261 0.984 . S
H265 N261 0.985 . S
H266 N260 0.984 . S
H267 N260 0.984 . S
H268 N256 0.984 . S
H269 N256 0.985 . S
C270 C271 1.363 1_554 S
C270 C276 1.379 . S
C270 N278 1.356 . S
C271 C270 1.363 1_556 S
C271 C277 1.363 . S
C272 C273 1.363 1_556 S
C272 C277 1.379 . S
C272 N279 1.356 . S
C273 C272 1.363 1_554 S
C273 C276 1.363 . S
N274 C276 1.356 . S
N274 H286 0.984 . S
N274 H287 0.985 . S
N275 C277 1.356 . S
N275 H280 0.984 . S
N275 H281 0.985 . S
C276 C270 1.379 . S
C276 C273 1.363 . S
C276 N274 1.356 . S
C277 C271 1.363 . S
C277 C272 1.379 . S
C277 N275 1.356 . S
N278 C270 1.356 . S
N278 H284 0.984 . S
N278 H285 0.984 1_554 S
N279 C272 1.356 . S
N279 H282 0.984 . S
N279 H283 0.985 . S
H280 N275 0.984 . S
H281 N275 0.985 . S
H282 N279 0.984 . S
H283 N279 0.985 . S
H284 N278 0.984 . S
H285 N278 0.984 1_556 S
H286 N274 0.984 . S
H287 N274 0.985 . S
C288 C289 1.363 . S
C288 C294 1.379 1_655 S
C288 N296 1.356 . S
C289 C288 1.363 . S
C289 C295 1.363 . S
C290 C291 1.363 1_655 S
C290 C295 1.379 . S
C290 N297 1.356 . S
C291 C290 1.363 1_455 S
C291 C294 1.363 . S
N292 C294 1.356 . S
N292 H304 0.984 . S
N292 H305 0.985 . S
N293 C295 1.356 . S
N293 H298 0.984 . S
N293 H299 0.985 . S
C294 C288 1.379 1_455 S
C294 C291 1.363 . S
C294 N292 1.356 . S
C295 C289 1.363 . S
C295 C290 1.379 . S
C295 N293 1.356 . S
N296 C288 1.356 . S
N296 H302 0.984 . S
N296 H303 0.984 . S
N297 C290 1.356 . S
N297 H300 0.984 1_655 S
N297 H301 0.985 . S
H298 N293 0.984 . S
H299 N293 0.985 . S
H300 N297 0.984 1_455 S
H301 N297 0.985 . S
H302 N296 0.984 . S
H303 N296 0.984 . S
H304 N292 0.984 . S
H305 N292 0.985 . S
C306 C307 1.363 . S
C306 C312 1.379 . S
C306 N314 1.356 . S
C307 C306 1.363 . S
C307 C313 1.363 . S
C308 C309 1.363 . S
C308 C313 1.379 . S
C308 N315 1.356 . S
C309 C308 1.363 . S
C309 C312 1.363 . S
N310 C312 1.356 . S
N310 H322 0.984 . S
N310 H323 0.985 . S
N311 C313 1.356 . S
N311 H316 0.984 . S
N311 H317 0.985 . S
C312 C306 1.379 . S
C312 C309 1.363 . S
C312 N310 1.356 . S
C313 C307 1.363 . S
C313 C308 1.379 . S
C313 N311 1.356 . S
N314 C306 1.356 . S
N314 H320 0.984 . S
N314 H321 0.984 . S
N315 C308 1.356 . S
N315 H318 0.984 . S
N315 H319 0.985 . S
H316 N311 0.984 . S
H317 N311 0.985 . S
H318 N315 0.984 . S
H319 N315 0.985 . S
H320 N314 0.984 . S
H321 N314 0.984 . S
H322 N310 0.984 . S
H323 N310 0.985 . S
C324 C325 1.363 . S
C324 C330 1.379 . S
C324 N332 1.356 . S
C325 C324 1.363 . S
C325 C331 1.363 . S
C326 C327 1.363 1_545 S
C326 C331 1.379 . S
C326 N333 1.356 1_545 S
C327 C326 1.363 1_565 S
C327 C330 1.363 1_565 S
N328 C330 1.356 1_565 S
N328 H340 0.984 1_565 S
N328 H341 0.985 . S
N329 C331 1.356 . S
N329 H334 0.984 . S
N329 H335 0.985 . S
C330 C324 1.379 . S
C330 C327 1.363 1_545 S
C330 N328 1.356 1_545 S
C331 C325 1.363 . S
C331 C326 1.379 . S
C331 N329 1.356 . S
N332 C324 1.356 . S
N332 H338 0.984 1_655 S
N332 H339 0.984 1_655 S
N333 C326 1.356 1_565 S
N333 H336 0.984 . S
N333 H337 0.985 . S
H334 N329 0.984 . S
H335 N329 0.985 . S
H336 N333 0.984 . S
H337 N333 0.985 . S
H338 N332 0.984 1_455 S
H339 N332 0.984 1_455 S
H340 N328 0.984 1_545 S
H341 N328 0.985 . S
C342 C343 1.363 . S
C342 C348 1.379 . S
C342 N350 1.356 . S
C343 C342 1.363 . S
C343 C349 1.363 . S
C344 C345 1.363 . S
C344 C349 1.379 . S
C344 N351 1.356 . S
C345 C344 1.363 . S
C345 C348 1.363 . S
N346 C348 1.356 . S
N346 H358 0.984 . S
N346 H359 0.985 . S
N347 C349 1.356 . S
N347 H352 0.984 . S
N347 H353 0.985 . S
C348 C342 1.379 . S
C348 C345 1.363 . S
C348 N346 1.356 . S
C349 C343 1.363 . S
C349 C344 1.379 . S
C349 N347 1.356 . S
N350 C342 1.356 . S
N350 H356 0.984 . S
N350 H357 0.984 . S
N351 C344 1.356 . S
N351 H354 0.984 . S
N351 H355 0.985 . S
H352 N347 0.984 . S
H353 N347 0.985 . S
H354 N351 0.984 . S
H355 N351 0.985 . S
H356 N350 0.984 . S
H357 N350 0.984 . S
H358 N346 0.984 . S
H359 N346 0.985 . S
C360 C361 1.363 . S
C360 C366 1.379 . S
C360 N368 1.356 . S
C361 C360 1.363 . S
C361 C367 1.363 . S
C362 C363 1.363 . S
C362 C367 1.379 . S
C362 N369 1.356 . S
C363 C362 1.363 . S
C363 C366 1.363 . S
N364 C366 1.356 . S
N364 H376 0.984 . S
N364 H377 0.985 . S
N365 C367 1.356 . S
N365 H370 0.984 . S
N365 H371 0.985 . S
C366 C360 1.379 . S
C366 C363 1.363 . S
C366 N364 1.356 . S
C367 C361 1.363 . S
C367 C362 1.379 . S
C367 N365 1.356 . S
N368 C360 1.356 . S
N368 H374 0.984 . S
N368 H375 0.984 . S
N369 C362 1.356 . S
N369 H372 0.984 . S
N369 H373 0.985 . S
H370 N365 0.984 . S
H371 N365 0.985 . S
H372 N369 0.984 . S
H373 N369 0.985 . S
H374 N368 0.984 . S
H375 N368 0.984 . S
H376 N364 0.984 . S
H377 N364 0.985 . S
C378 C379 1.363 . S
C378 C384 1.379 . S
C378 N386 1.356 . S
C379 C378 1.363 . S
C379 C385 1.363 . S
C380 C381 1.363 . S
C380 C385 1.379 . S
C380 N387 1.356 . S
C381 C380 1.363 . S
C381 C384 1.363 . S
N382 C384 1.356 . S
N382 H394 0.984 . S
N382 H395 0.985 . S
N383 C385 1.356 . S
N383 H388 0.984 . S
N383 H389 0.985 . S
C384 C378 1.379 . S
C384 C381 1.363 . S
C384 N382 1.356 . S
C385 C379 1.363 . S
C385 C380 1.379 . S
C385 N383 1.356 . S
N386 C378 1.356 . S
N386 H392 0.984 . S
N386 H393 0.984 . S
N387 C380 1.356 . S
N387 H390 0.984 . S
N387 H391 0.985 . S
H388 N383 0.984 . S
H389 N383 0.985 . S
H390 N387 0.984 . S
H391 N387 0.985 . S
H392 N386 0.984 . S
H393 N386 0.984 . S
H394 N382 0.984 . S
H395 N382 0.985 . S
C396 C397 1.363 . S
C396 C402 1.379 . S
C396 N404 1.356 . S
C397 C396 1.363 . S
C397 C403 1.363 . S
C398 C399 1.363 . S
C398 C403 1.379 . S
C398 N405 1.356 . S
C399 C398 1.363 . S
C399 C402 1.363 . S
N400 C402 1.356 . S
N400 H412 0.984 . S
N400 H413 0.985 . S
N401 C403 1.356 . S
N401 H406 0.984 . S
N401 H407 0.985 . S
C402 C396 1.379 . S
C402 C399 1.363 . S
C402 N400 1.356 . S
C403 C397 1.363 . S
C403 C398 1.379 . S
C403 N401 1.356 . S
N404 C396 1.356 . S
N404 H410 0.984 . S
N404 H411 0.984 . S
N405 C398 1.356 . S
N405 H408 0.984 . S
N405 H409 0.985 . S
H406 N401 0.984 . S
H407 N401 0.985 . S
H408 N405 0.984 . S
H409 N405 0.985 . S
H410 N404 0.984 . S
H411 N404 0.984 . S
H412 N400 0.984 . S
H413 N400 0.985 . S
C414 C415 1.363 . S
C414 C420 1.379 . S
C414 N422 1.356 . S
C415 C414 1.363 . S
C415 C421 1.363 . S
C416 C417 1.363 . S
C416 C421 1.379 . S
C416 N423 1.356 . S
C417 C416 1.363 . S
C417 C420 1.363 . S
N418 C420 1.356 . S
N418 H430 0.984 . S
N418 H431 0.985 . S
N419 C421 1.356 . S
N419 H424 0.984 . S
N419 H425 0.985 . S
C420 C414 1.379 . S
C420 C417 1.363 . S
C420 N418 1.356 . S
C421 C415 1.363 . S
C421 C416 1.379 . S
C421 N419 1.356 . S
N422 C414 1.356 . S
N422 H428 0.984 . S
N422 H429 0.984 . S
N423 C416 1.356 . S
N423 H426 0.984 . S
N423 H427 0.985 . S
H424 N419 0.984 . S
H425 N419 0.985 . S
H426 N423 0.984 . S
H427 N423 0.985 . S
H428 N422 0.984 . S
H429 N422 0.984 . S
H430 N418 0.984 . S
H431 N418 0.985 . S
C432 C433 1.363 . S
C432 C438 1.379 . S
C432 N440 1.356 . S
C433 C432 1.363 . S
C433 C439 1.363 . S
C434 C435 1.363 . S
C434 C439 1.379 . S
C434 N441 1.356 . S
C435 C434 1.363 . S
C435 C438 1.363 . S
N436 C438 1.356 . S
N436 H448 0.984 . S
N436 H449 0.985 . S
N437 C439 1.356 . S
N437 H442 0.984 . S
N437 H443 0.985 . S
C438 C432 1.379 . S
C438 C435 1.363 . S
C438 N436 1.356 . S
C439 C433 1.363 . S
C439 C434 1.379 . S
C439 N437 1.356 . S
N440 C432 1.356 . S
N440 H446 0.984 . S
N440 H447 0.984 . S
N441 C434 1.356 . S
N441 H444 0.984 . S
N441 H445 0.985 . S
H442 N437 0.984 . S
H443 N437 0.985 . S
H444 N441 0.984 . S
H445 N441 0.985 . S
H446 N440 0.984 . S
H447 N440 0.984 . S
H448 N436 0.984 . S
H449 N436 0.985 . S
C450 C451 1.363 . S
C450 C456 1.379 . S
C450 N458 1.356 . S
C451 C450 1.363 . S
C451 C457 1.363 . S
C452 C453 1.363 1_565 S
C452 C457 1.379 . S
C452 N459 1.356 1_565 S
C453 C452 1.363 1_545 S
C453 C456 1.363 1_545 S
N454 C456 1.356 1_545 S
N454 H466 0.984 . S
N454 H467 0.985 . S
N455 C457 1.356 . S
N455 H460 0.984 . S
N455 H461 0.985 . S
C456 C450 1.379 . S
C456 C453 1.363 1_565 S
C456 N454 1.356 1_565 S
C457 C451 1.363 . S
C457 C452 1.379 . S
C457 N455 1.356 . S
N458 C450 1.356 . S
N458 H464 0.984 . S
N458 H465 0.984 . S
N459 C452 1.356 1_545 S
N459 H462 0.984 . S
N459 H463 0.985 . S
H460 N455 0.984 . S
H461 N455 0.985 . S
H462 N459 0.984 . S
H463 N459 0.985 . S
H464 N458 0.984 . S
H465 N458 0.984 . S
H466 N454 0.984 . S
H467 N454 0.985 . S
C468 C469 1.363 1_455 S
C468 C474 1.379 . S
C468 N476 1.356 1_455 S
C469 C468 1.363 1_655 S
C469 C475 1.363 1_655 S
C470 C471 1.363 . S
C470 C475 1.379 . S
C470 N477 1.356 . S
C471 C470 1.363 . S
C471 C474 1.363 . S
N472 C474 1.356 1_545 S
N472 H484 0.984 . S
N472 H485 0.985 . S
N473 C475 1.356 1_655 S
N473 H478 0.984 . S
N473 H479 0.985 1_655 S
C474 C468 1.379 . S
C474 C471 1.363 . S
C474 N472 1.356 1_565 S
C475 C469 1.363 1_455 S
C475 C470 1.379 . S
C475 N473 1.356 1_455 S
N476 C468 1.356 1_655 S
N476 H482 0.984 . S
N476 H483 0.984 . S
N477 C470 1.356 . S
N477 H480 0.984 . S
N477 H481 0.985 . S
H478 N473 0.984 . S
H479 N473 0.985 1_455 S
H480 N477 0.984 . S
H481 N477 0.985 . S
H482 N476 0.984 . S
H483 N476 0.984 . S
H484 N472 0.984 . S
H485 N472 0.985 . S
C486 C487 1.363 . S
C486 C492 1.379 . S
C486 N494 1.356 . S
C487 C486 1.363 . S
C487 C493 1.363 . S
C488 C489 1.363 . S
C488 C493 1.379 . S
C488 N495 1.356 . S
C489 C488 1.363 . S
C489 C492 1.363 . S
N490 C492 1.356 . S
N490 H502 0.984 . S
N490 H503 0.985 . S
N491 C493 1.356 . S
N491 H496 0.984 . S
N491 H497 0.985 . S
C492 C486 1.379 . S
C492 C489 1.363 . S
C492 N490 1.356 . S
C493 C487 1.363 . S
C493 C488 1.379 . S
C493 N491 1.356 . S
N494 C486 1.356 . S
N494 H500 0.984 . S
N494 H501 0.984 . S
N495 C488 1.356 . S
N495 H498 0.964 1_455 S
N495 H499 0.985 . S
H496 N491 0.984 . S
H497 N491 0.985 . S
H498 N495 0.964 1_655 S
H499 N495 0.985 . S
H500 N494 0.984 . S
H501 N494 0.984 . S
H502 N490 0.984 . S
H503 N490 0.985 . S
C504 C505 1.363 . S
C504 C510 1.379 . S
C504 N512 1.356 . S
C505 C504 1.363 . S
C505 C511 1.363 . S
C506 C507 1.363 . S
C506 C511 1.379 . S
C506 N513 1.356 . S
C507 C506 1.363 . S
C507 C510 1.363 . S
N508 C510 1.356 . S
N508 H520 0.984 . S
N508 H521 0.985 . S
N509 C511 1.356 . S
N509 H514 0.984 . S
N509 H515 0.985 . S
C510 C504 1.379 . S
C510 C507 1.363 . S
C510 N508 1.356 . S
C511 C505 1.363 . S
C511 C506 1.379 . S
C511 N509 1.356 . S
N512 C504 1.356 . S
N512 H518 0.984 . S
N512 H519 0.984 . S
N513 C506 1.356 . S
N513 H516 0.984 . S
N513 H517 0.985 . S
H514 N509 0.984 . S
H515 N509 0.985 . S
H516 N513 0.984 . S
H517 N513 0.985 . S
H518 N512 0.984 . S
H519 N512 0.984 . S
H520 N508 0.984 . S
H521 N508 0.985 . S
C522 C523 1.363 . S
C522 C528 1.379 . S
C522 N530 1.356 . S
C523 C522 1.363 . S
C523 C529 1.363 . S
C524 C525 1.363 . S
C524 C529 1.379 . S
C524 N531 1.356 . S
C525 C524 1.363 . S
C525 C528 1.363 . S
N526 C528 1.356 . S
N526 H538 0.984 . S
N526 H539 0.985 . S
N527 C529 1.356 . S
N527 H532 0.984 . S
N527 H533 0.985 . S
C528 C522 1.379 . S
C528 C525 1.363 . S
C528 N526 1.356 . S
C529 C523 1.363 . S
C529 C524 1.379 . S
C529 N527 1.356 . S
N530 C522 1.356 . S
N530 H536 0.984 . S
N530 H537 0.984 . S
N531 C524 1.356 . S
N531 H534 0.984 . S
N531 H535 0.985 . S
H532 N527 0.984 . S
H533 N527 0.985 . S
H534 N531 0.984 . S
H535 N531 0.985 . S
H536 N530 0.984 . S
H537 N530 0.984 . S
H538 N526 0.984 . S
H539 N526 0.985 . S
C540 C541 1.363 . S
C540 C546 1.379 . S
C540 N548 1.356 . S
C541 C540 1.363 . S
C541 C547 1.363 . S
C542 C543 1.363 . S
C542 C547 1.379 . S
C542 N549 1.356 . S
C543 C542 1.363 . S
C543 C546 1.363 . S
N544 C546 1.356 . S
N544 H556 0.984 . S
N544 H557 0.985 . S
N545 C547 1.356 . S
N545 H550 0.984 . S
N545 H551 0.985 . S
C546 C540 1.379 . S
C546 C543 1.363 . S
C546 N544 1.356 . S
C547 C541 1.363 . S
C547 C542 1.379 . S
C547 N545 1.356 . S
N548 C540 1.356 . S
N548 H554 0.984 . S
N548 H555 0.984 . S
N549 C542 1.356 . S
N549 H552 0.984 . S
N549 H553 0.985 . S
H550 N545 0.984 . S
H551 N545 0.985 . S
H552 N549 0.984 . S
H553 N549 0.985 . S
H554 N548 0.984 . S
H555 N548 0.984 . S
H556 N544 0.984 . S
H557 N544 0.985 . S
C558 C559 1.363 . S
C558 C564 1.379 . S
C558 N566 1.356 . S
C559 C558 1.363 . S
C559 C565 1.363 . S
C560 C561 1.363 . S
C560 C565 1.379 . S
C560 N567 1.356 . S
C561 C560 1.363 . S
C561 C564 1.363 . S
N562 C564 1.356 . S
N562 H574 0.984 . S
N562 H575 0.985 . S
N563 C565 1.356 . S
N563 H568 0.984 . S
N563 H569 0.985 . S
C564 C558 1.379 . S
C564 C561 1.363 . S
C564 N562 1.356 . S
C565 C559 1.363 . S
C565 C560 1.379 . S
C565 N563 1.356 . S
N566 C558 1.356 . S
N566 H572 0.984 . S
N566 H573 0.984 . S
N567 C560 1.356 . S
N567 H570 0.984 . S
N567 H571 0.985 . S
H568 N563 0.984 . S
H569 N563 0.985 . S
H570 N567 0.984 . S
H571 N567 0.985 . S
H572 N566 0.984 . S
H573 N566 0.984 . S
H574 N562 0.984 . S
H575 N562 0.985 . S
C576 C577 1.363 . S
C576 C582 1.379 . S
C576 N584 1.356 . S
C577 C576 1.363 . S
C577 C583 1.363 . S
C578 C579 1.363 . S
C578 C583 1.379 . S
C578 N585 1.356 . S
C579 C578 1.363 . S
C579 C582 1.363 . S
N580 C582 1.356 . S
N580 H592 0.984 . S
N580 H593 0.985 . S
N581 C583 1.356 . S
N581 H586 0.984 . S
N581 H587 0.985 . S
C582 C576 1.379 . S
C582 C579 1.363 . S
C582 N580 1.356 . S
C583 C577 1.363 . S
C583 C578 1.379 . S
C583 N581 1.356 . S
N584 C576 1.356 . S
N584 H590 0.984 . S
N584 H591 0.984 . S
N585 C578 1.356 . S
N585 H588 0.984 . S
N585 H589 0.985 . S
H586 N581 0.984 . S
H587 N581 0.985 . S
H588 N585 0.984 . S
H589 N585 0.985 . S
H590 N584 0.984 . S
H591 N584 0.984 . S
H592 N580 0.984 . S
H593 N580 0.985 . S
C594 C595 1.363 . S
C594 C600 1.379 . S
C594 N602 1.356 . S
C595 C594 1.363 . S
C595 C601 1.363 . S
C596 C597 1.363 . S
C596 C601 1.379 . S
C596 N603 1.356 . S
C597 C596 1.363 . S
C597 C600 1.363 . S
N598 C600 1.356 . S
N598 H610 0.984 . S
N598 H611 0.985 . S
N599 C601 1.356 . S
N599 H604 0.984 . S
N599 H605 0.985 . S
C600 C594 1.379 . S
C600 C597 1.363 . S
C600 N598 1.356 . S
C601 C595 1.363 . S
C601 C596 1.379 . S
C601 N599 1.356 . S
N602 C594 1.356 . S
N602 H608 0.984 . S
N602 H609 0.984 . S
N603 C596 1.356 . S
N603 H606 0.984 . S
N603 H607 0.985 . S
H604 N599 0.984 . S
H605 N599 0.985 . S
H606 N603 0.984 . S
H607 N603 0.985 . S
H608 N602 0.984 . S
H609 N602 0.984 . S
H610 N598 0.984 . S
H611 N598 0.985 . S
C612 C613 1.363 . S
C612 C618 1.379 . S
C612 N620 1.356 . S
C613 C612 1.363 . S
C613 C619 1.363 . S
C614 C615 1.363 . S
C614 C619 1.379 . S
C614 N621 1.356 . S
C615 C614 1.363 . S
C615 C618 1.363 . S
N616 C618 1.356 . S
N616 H628 0.984 . S
N616 H629 0.985 . S
N617 C619 1.356 . S
N617 H622 0.984 . S
N617 H623 0.985 . S
C618 C612 1.379 . S
C618 C615 1.363 . S
C618 N616 1.356 . S
C619 C613 1.363 . S
C619 C614 1.379 . S
C619 N617 1.356 . S
N620 C612 1.356 . S
N620 H626 0.984 . S
N620 H627 0.984 . S
N621 C614 1.356 . S
N621 H624 0.984 . S
N621 H625 0.985 . S
H622 N617 0.984 . S
H623 N617 0.985 . S
H624 N621 0.984 . S
H625 N621 0.985 . S
H626 N620 0.984 . S
H627 N620 0.984 . S
H628 N616 0.984 . S
H629 N616 0.985 . S
C630 C631 1.370 . S
C630 C636 1.365 1_565 S
C630 N638 1.367 . S
C631 C630 1.370 . S
C631 C637 1.363 . S
C632 C633 1.363 . S
C632 C637 1.379 1_545 S
C632 N639 1.356 . S
C633 C632 1.363 . S
C633 C636 1.363 . S
N634 C636 1.356 . S
N634 H646 0.984 . S
N634 H647 0.985 . S
N635 C637 1.356 . S
N635 H640 0.984 . S
N635 H641 0.985 . S
C636 C630 1.365 1_545 S
C636 C633 1.363 . S
C636 N634 1.356 . S
C637 C631 1.363 . S
C637 C632 1.379 1_565 S
C637 N635 1.356 . S
N638 C630 1.367 . S
N638 H644 0.984 1_565 S
N638 H645 0.984 . S
N639 C632 1.356 . S
N639 H642 0.984 . S
N639 H643 0.985 . S
H640 N635 0.984 . S
H641 N635 0.985 . S
H642 N639 0.984 . S
H643 N639 0.985 . S
H644 N638 0.984 1_545 S
H645 N638 0.984 . S
H646 N634 0.984 . S
H647 N634 0.985 . S
C648 C649 1.363 . S
C648 C654 1.379 1_655 S
C648 N656 1.356 . S
C649 C648 1.363 . S
C649 C655 1.363 . S
C650 C651 1.363 . S
C650 C655 1.379 1_455 S
C650 N657 1.356 . S
C651 C650 1.363 . S
C651 C654 1.363 . S
N652 C654 1.356 . S
N652 H664 0.984 . S
N652 H665 0.985 . S
N653 C655 1.356 . S
N653 H658 0.984 . S
N653 H659 0.985 . S
C654 C648 1.379 1_455 S
C654 C651 1.363 . S
C654 N652 1.356 . S
C655 C649 1.363 . S
C655 C650 1.379 1_655 S
C655 N653 1.356 . S
N656 C648 1.356 . S
N656 H662 0.984 . S
N656 H663 0.984 . S
N657 C650 1.356 . S
N657 H660 0.984 . S
N657 H661 0.985 . S
H658 N653 0.984 . S
H659 N653 0.985 . S
H660 N657 0.984 . S
H661 N657 0.985 . S
H662 N656 0.984 . S
H663 N656 0.984 . S
H664 N652 0.984 . S
H665 N652 0.985 . S
C181 C28 1.620 . S
C183 C5 1.913 . S
C199 C57 1.620 . S
C201 C25 1.913 . S
C217 C54 1.913 . S
C219 C8 1.620 . S
C235 C45 1.913 . S
C237 C37 1.620 . S
C253 C48 1.620 . S
C255 C14 1.913 . S
C271 C17 1.620 . S
C273 C34 1.913 . S
C289 C65 1.913 . S
C291 C88 1.620 . S
C307 C108 1.620 . S
C309 C85 1.913 . S
C325 C105 1.913 . S
C327 C68 1.620 . S
C343 C97 1.620 . S
C345 C114 1.913 . S
C361 C117 1.620 . S
C363 C74 1.913 . S
C379 C94 1.913 . S
C381 C77 1.620 . S
C397 C148 1.620 . S
C399 C125 1.913 . S
C415 C145 1.913 . S
C417 C177 1.620 . S
C433 C174 1.913 . S
C435 C128 1.620 . S
C451 C165 1.913 . S
C453 C157 1.620 . S
C469 C168 1.620 . S
C471 C134 1.913 . S
C487 C137 1.620 . S
C489 C154 1.913 . S
C505 C102 2.264 . S
C507 C13 2.264 . S
C523 C62 2.264 . S
C525 C33 2.264 . S
C541 C42 2.264 . S
C543 C82 2.264 . S
C559 C53 2.264 . S
C561 C133 2.264 . S
C577 C2 2.264 . S
C579 C153 2.264 . S
C595 C162 2.264 . S
C597 C22 2.264 . S
C613 C73 2.264 . S
C615 C173 2.264 . S
C631 C93 2.264 . S
C633 C122 2.264 . S
C649 C142 2.264 . S
C651 C113 2.264 . S
