# Generated by pormake.
# Topology dia, (4)-cn, num edge types: 1
# Building blocks:
#     Node 0, Type 0, BuildingBlock: KUFVIS_clean_sbu_0, # of connection points: 4
#     Node 1, Type 0, BuildingBlock: KUFVIS_clean_sbu_0, # of connection points: 4
#     Node 2, Type 0, BuildingBlock: KUFVIS_clean_sbu_0, # of connection points: 4
#     Node 3, Type 0, BuildingBlock: KUFVIS_clean_sbu_0, # of connection points: 4
#     Node 4, Type 0, BuildingBlock: KUFVIS_clean_sbu_0, # of connection points: 4
#     Node 5, Type 0, BuildingBlock: KUFVIS_clean_sbu_0, # of connection points: 4
#     Node 6, Type 0, BuildingBlock: KUFVIS_clean_sbu_0, # of connection points: 4
#     Node 7, Type 0, BuildingBlock: KUFVIS_clean_sbu_0, # of connection points: 4
#     Edge 8, Type (0, 0), BuildingBlock: MIFKUJ_clean_linker_0, # of connection points: 2
#     Edge 9, Type (0, 0), BuildingBlock: MIFKUJ_clean_linker_0, # of connection points: 2
#     Edge 10, Type (0, 0), BuildingBlock: MIFKUJ_clean_linker_0, # of connection points: 2
#     Edge 11, Type (0, 0), BuildingBlock: MIFKUJ_clean_linker_0, # of connection points: 2
#     Edge 12, Type (0, 0), BuildingBlock: MIFKUJ_clean_linker_0, # of connection points: 2
#     Edge 13, Type (0, 0), BuildingBlock: MIFKUJ_clean_linker_0, # of connection points: 2
#     Edge 14, Type (0, 0), BuildingBlock: MIFKUJ_clean_linker_0, # of connection points: 2
#     Edge 15, Type (0, 0), BuildingBlock: MIFKUJ_clean_linker_0, # of connection points: 2
#     Edge 16, Type (0, 0), BuildingBlock: MIFKUJ_clean_linker_0, # of connection points: 2
#     Edge 17, Type (0, 0), BuildingBlock: MIFKUJ_clean_linker_0, # of connection points: 2
#     Edge 18, Type (0, 0), BuildingBlock: MIFKUJ_clean_linker_0, # of connection points: 2
#     Edge 19, Type (0, 0), BuildingBlock: MIFKUJ_clean_linker_0, # of connection points: 2
#     Edge 20, Type (0, 0), BuildingBlock: MIFKUJ_clean_linker_0, # of connection points: 2
#     Edge 21, Type (0, 0), BuildingBlock: MIFKUJ_clean_linker_0, # of connection points: 2
#     Edge 22, Type (0, 0), BuildingBlock: MIFKUJ_clean_linker_0, # of connection points: 2
#     Edge 23, Type (0, 0), BuildingBlock: MIFKUJ_clean_linker_0, # of connection points: 2
# Relax obj value: 0.070
# Max RMSD: 0.124
# Mean RMSD: 0.124
data_MOF--net-dia--node1-KUFVIS_clean_sbu_0--edge1-MIFKUJ_clean_linker_0
_symmetry_space_group_name_H-M    P1
_symmetry_Int_Tables_number       1
_symmetry_cell_setting            triclinic
loop_
_symmetry_equiv_pos_as_xyz
'x, y, z'
_cell_length_a     49.011897
_cell_length_b     42.300983
_cell_length_c     42.462005
_cell_angle_alpha  91.226494
_cell_angle_beta   92.080691
_cell_angle_gamma 91.601017
loop_
_atom_site_label
_atom_site_type_symbol
_atom_site_fract_x
_atom_site_fract_y
_atom_site_fract_z
_atom_type_partial_charge
Mn0 Mn 0.1373 0.14128 0.63016 0.0
Mn1 Mn 0.15914 0.07833 0.58842 0.0
C2 C 0.11106 0.11996 0.588 0.0
C3 C 0.11335 0.1636 0.67167 0.0
C4 C 0.18129 0.14507 0.58034 0.0
O5 O 0.16683 0.12367 0.6598 0.0
O6 O 0.17883 0.08186 0.63001 0.0
C7 C 0.13787 0.02777 0.62884 0.0
N8 N 0.13921 0.04115 0.60003 0.0
C9 C 0.10996 1.00001 0.57613 0.0
C10 C 0.10838 0.9857 0.60553 0.0
C11 C 0.12234 0.99969 0.632 0.0
C12 C 0.12576 0.02797 0.57444 0.0
H13 H 0.14855 0.03847 0.64924 0.0
C14 C 0.18101 0.09917 0.65515 0.0
O15 O 0.13275 0.17918 0.65821 0.0
O16 O 0.10869 0.13459 0.66195 0.0
N17 N 0.14179 0.07173 0.54761 0.0
C18 C 0.14462 0.08915 0.52124 0.0
C19 C 0.1318 0.07851 0.4927 0.0
C20 C 0.11641 0.04997 0.4915 0.0
C21 C 0.11387 0.03238 0.51891 0.0
C22 C 0.12737 0.04399 0.54659 0.0
H23 H 0.15659 0.11099 0.52196 0.0
O24 O 0.10781 0.14891 0.5975 0.0
O25 O 0.12948 0.10435 0.60338 0.0
O26 O 0.16649 0.15822 0.60071 0.0
O27 O 0.18036 0.11537 0.57425 0.0
C28 C 0.09823 1.00399 0.51994 0.0
C29 C 0.09618 0.98788 0.54856 0.0
H30 H 0.09637 0.96408 0.60809 0.0
H31 H 0.12114 0.98885 0.65479 0.0
H32 H 0.13382 0.09222 0.47165 0.0
H33 H 0.10664 0.0418 0.46942 0.0
H34 H 0.08739 0.99456 0.49895 0.0
H35 H 0.08379 0.96631 0.54915 0.0
Mn36 Mn 0.89784 0.38005 0.87577 0.0
Mn37 Mn 0.87197 0.41859 0.93824 0.0
C38 C 0.92189 0.4225 0.90007 0.0
C39 C 0.92359 0.34042 0.85251 0.0
C40 C 0.85322 0.43003 0.87109 0.0
O41 O 0.86865 0.34829 0.88999 0.0
O42 O 0.85262 0.37738 0.92992 0.0
C43 C 0.89048 0.37379 0.98671 0.0
N44 N 0.88923 0.40385 0.976 0.0
C45 C 0.91254 0.4249 0.02301 0.0
C46 C 0.91397 0.39419 0.03464 0.0
C47 C 0.90315 0.3685 0.01625 0.0
C48 C 0.90019 0.42863 0.99314 0.0
H49 H 0.88189 0.35402 0.97281 0.0
C50 C 0.85222 0.35247 0.9123 0.0
O51 O 0.90419 0.35425 0.837 0.0
O52 O 0.9274 0.34873 0.88201 0.0
N53 N 0.88828 0.45893 0.94992 0.0
C54 C 0.88654 0.4868 0.93456 0.0
C55 C 0.89712 0.51476 0.94936 0.0
C56 C 0.90871 0.5139 0.98006 0.0
C57 C 0.9099 0.48501 0.99558 0.0
C58 C 0.89932 0.45789 0.97952 0.0
H59 H 0.87714 0.48766 0.9112 0.0
O60 O 0.92636 0.4142 0.87117 0.0
O61 O 0.90361 0.40564 0.91423 0.0
O62 O 0.86819 0.40932 0.85858 0.0
O63 O 0.8533 0.43579 0.90072 0.0
C64 C 0.92127 0.48201 0.02631 0.0
C65 C 0.92297 0.45193 0.03983 0.0
H66 H 0.9235 0.39004 0.05754 0.0
H67 H 0.90446 0.34471 0.02493 0.0
H68 H 0.89609 0.53697 0.93725 0.0
H69 H 0.91673 0.53555 0.99145 0.0
H70 H 0.9291 0.50264 0.03962 0.0
H71 H 0.93232 0.44987 0.06318 0.0
Mn72 Mn 0.63615 0.13474 0.12955 0.0
Mn73 Mn 0.66141 0.07223 0.09011 0.0
C74 C 0.61142 0.11088 0.0873 0.0
C75 C 0.6109 0.15749 0.16971 0.0
C76 C 0.68003 0.13964 0.07937 0.0
O77 O 0.66583 0.1198 0.16067 0.0
O78 O 0.68133 0.07989 0.13102 0.0
C79 C 0.64436 0.02278 0.13425 0.0
N80 N 0.64457 0.0342 0.10451 0.0
C81 C 0.62143 0.98721 0.08314 0.0
C82 C 0.62103 0.97487 0.11352 0.0
C83 C 0.63239 0.99283 0.13921 0.0
C84 C 0.63328 0.01738 0.07972 0.0
H85 H 0.65337 0.03634 0.154 0.0
C86 C 0.68214 0.09723 0.1561 0.0
O87 O 0.63013 0.17326 0.15621 0.0
O88 O 0.60695 0.12813 0.16076 0.0
N89 N 0.64441 0.06118 0.04999 0.0
C90 C 0.64549 0.07704 0.02245 0.0
C91 C 0.63439 0.06266 0.99455 0.0
C92 C 0.62299 0.03184 0.99512 0.0
C93 C 0.62252 0.01579 0.02367 0.0
C94 C 0.63349 0.03151 0.05077 0.0
H95 H 0.65476 0.10048 0.0218 0.0
O96 O 0.60708 0.13989 0.09584 0.0
O97 O 0.63004 0.09646 0.1037 0.0
O98 O 0.66539 0.15219 0.10029 0.0
O99 O 0.67975 0.10996 0.07326 0.0
C100 C 0.61156 0.98483 0.02634 0.0
C101 C 0.61065 0.97073 0.05609 0.0
H102 H 0.61202 0.95167 0.11739 0.0
H103 H 0.63215 0.9835 0.16274 0.0
H104 H 0.63489 0.07517 0.97261 0.0
H105 H 0.61459 0.02076 0.97353 0.0
H106 H 0.6035 0.97176 0.00569 0.0
H107 H 0.60167 0.94718 0.05789 0.0
Mn108 Mn 0.89976 0.88107 0.37629 0.0
Mn109 Mn 0.87484 0.92099 0.43844 0.0
C110 C 0.92438 0.92356 0.39979 0.0
C111 C 0.92536 0.84075 0.35401 0.0
C112 C 0.8556 0.93159 0.37126 0.0
O113 O 0.8705 0.84988 0.39137 0.0
O114 O 0.85503 0.88001 0.43086 0.0
C115 C 0.89245 0.87671 0.48779 0.0
N116 N 0.892 0.90654 0.47637 0.0
C117 C 0.91525 0.928 0.52325 0.0
C118 C 0.91588 0.89753 0.53559 0.0
C119 C 0.9046 0.87175 0.51768 0.0
C120 C 0.90325 0.9314 0.49314 0.0
H121 H 0.88349 0.85689 0.47428 0.0
C122 C 0.85428 0.85472 0.41377 0.0
O123 O 0.90594 0.85414 0.33807 0.0
O124 O 0.92918 0.84986 0.38325 0.0
N125 N 0.89176 0.9612 0.4494 0.0
C126 C 0.89046 0.98882 0.43356 0.0
C127 C 0.90148 0.0168 0.44788 0.0
C128 C 0.913 0.01626 0.47865 0.0
C129 C 0.91368 0.98764 0.49469 0.0
C130 C 0.90282 0.96043 0.47901 0.0
H131 H 0.88108 0.98946 0.41017 0.0
O132 O 0.9285 0.91487 0.3709 0.0
O133 O 0.90604 0.90718 0.4143 0.0
O134 O 0.87009 0.91035 0.35877 0.0
O135 O 0.85626 0.93789 0.4008 0.0
C136 C 0.92475 0.98499 0.5256 0.0
C137 C 0.92591 0.95514 0.53969 0.0
H138 H 0.92502 0.89366 0.55875 0.0
H139 H 0.90504 0.84815 0.52701 0.0
H140 H 0.90082 0.03881 0.43538 0.0
H141 H 0.92132 0.03793 0.48969 0.0
H142 H 0.93272 1.00572 0.53863 0.0
H143 H 0.93498 0.95336 0.56321 0.0
Mn144 Mn 0.13463 0.63776 0.13056 0.0
Mn145 Mn 0.15438 0.57614 0.08546 0.0
C146 C 0.10778 0.6196 0.08733 0.0
C147 C 0.11097 0.65884 0.17288 0.0
C148 C 0.1792 0.64236 0.08164 0.0
O149 O 0.16345 0.61711 0.1592 0.0
O150 O 0.17327 0.57584 0.12749 0.0
C151 C 0.1304 0.5239 0.12175 0.0
N152 N 0.13277 0.53923 0.09406 0.0
C153 C 0.10255 0.50112 0.0668 0.0
C154 C 0.09987 0.48485 0.09501 0.0
C155 C 0.1138 0.49635 0.1226 0.0
C156 C 0.11935 0.52846 0.0674 0.0
H157 H 0.14108 0.53266 0.143 0.0
C158 C 0.17616 0.59166 0.15354 0.0
O159 O 0.13115 0.67428 0.16076 0.0
O160 O 0.10545 0.63057 0.16154 0.0
N161 N 0.13742 0.57334 0.04414 0.0
C162 C 0.14119 0.5926 0.01925 0.0
C163 C 0.12843 0.58464 0.9899 0.0
C164 C 0.11213 0.55687 0.98636 0.0
C165 C 0.10857 0.53739 0.01229 0.0
C166 C 0.122 0.54639 0.04089 0.0
H167 H 0.15388 0.61385 0.02175 0.0
O168 O 0.10548 0.64826 0.09822 0.0
O169 O 0.12574 0.60267 0.10183 0.0
O170 O 0.1645 0.65516 0.10232 0.0
O171 O 0.17738 0.61296 0.07416 0.0
C172 C 0.09201 0.50959 0.01097 0.0
C173 C 0.08888 0.49156 0.03825 0.0
H174 H 0.08704 0.46363 0.09579 0.0
H175 H 0.11175 0.48399 0.14448 0.0
H176 H 0.13123 0.59982 0.97001 0.0
H177 H 0.1024 0.55079 0.96365 0.0
H178 H 0.08129 0.50209 0.9892 0.0
H179 H 0.07575 0.47051 0.03706 0.0
Mn180 Mn 0.40056 0.38069 0.37409 0.0
Mn181 Mn 0.37508 0.42063 0.43588 0.0
C182 C 0.425 0.42314 0.39799 0.0
C183 C 0.42624 0.34051 0.35159 0.0
C184 C 0.35663 0.43152 0.36861 0.0
O185 O 0.37133 0.34936 0.38888 0.0
O186 O 0.35496 0.37991 0.42749 0.0
C187 C 0.39153 0.37554 0.48503 0.0
N188 N 0.3915 0.40553 0.47397 0.0
C189 C 0.41421 0.42619 0.52151 0.0
C190 C 0.41441 0.39555 0.53348 0.0
C191 C 0.40319 0.37009 0.51506 0.0
C192 C 0.4027 0.43008 0.49124 0.0
H193 H 0.38264 0.35596 0.47112 0.0
C194 C 0.35455 0.35447 0.41063 0.0
O195 O 0.40683 0.354 0.33575 0.0
O196 O 0.43008 0.34949 0.38088 0.0
N197 N 0.39216 0.46055 0.44768 0.0
C198 C 0.39125 0.48841 0.43221 0.0
C199 C 0.40214 0.51614 0.44714 0.0
C200 C 0.41316 0.5151 0.4781 0.0
C201 C 0.41349 0.48623 0.49373 0.0
C202 C 0.40271 0.45931 0.47748 0.0
H203 H 0.38228 0.48943 0.40866 0.0
O204 O 0.42926 0.41465 0.36908 0.0
O205 O 0.40656 0.40668 0.41226 0.0
O206 O 0.37078 0.40977 0.35648 0.0
O207 O 0.35732 0.43824 0.39807 0.0
C208 C 0.42411 0.48308 0.52477 0.0
C209 C 0.42484 0.45303 0.53848 0.0
H210 H 0.42316 0.39129 0.55675 0.0
H211 H 0.4033 0.34636 0.5241 0.0
H212 H 0.40179 0.53834 0.43495 0.0
H213 H 0.42138 0.53659 0.48961 0.0
H214 H 0.43204 0.50358 0.5382 0.0
H215 H 0.43355 0.45086 0.56212 0.0
Mn216 Mn 0.39651 0.8794 0.87345 0.0
Mn217 Mn 0.37549 0.92215 0.93595 0.0
C218 C 0.42293 0.92181 0.89403 0.0
C219 C 0.4203 0.83765 0.85105 0.0
C220 C 0.35214 0.92934 0.86956 0.0
O221 O 0.36737 0.84999 0.8917 0.0
O222 O 0.3562 0.88028 0.93345 0.0
C223 C 0.39817 0.88269 0.98681 0.0
N224 N 0.39625 0.91131 0.97294 0.0
C225 C 0.42608 0.93616 0.013 0.0
C226 C 0.42826 0.90698 0.02782 0.0
C227 C 0.4143 0.88012 0.01461 0.0
C228 C 0.4097 0.93727 0.98536 0.0
H229 H 0.38749 0.86199 0.9767 0.0
C230 C 0.35377 0.85488 0.91645 0.0
O231 O 0.40059 0.85117 0.83575 0.0
O232 O 0.42532 0.84732 0.87996 0.0
N233 N 0.39256 0.96324 0.94146 0.0
C234 C 0.38917 0.98932 0.92358 0.0
C235 C 0.40193 0.01817 0.93339 0.0
C236 C 0.41786 0.01998 0.96158 0.0
C237 C 0.42099 0.99287 0.97964 0.0
C238 C 0.40751 0.96486 0.96886 0.0
H239 H 0.3768 0.98813 0.902 0.0
O240 O 0.42575 0.91197 0.86522 0.0
O241 O 0.40481 0.90664 0.90992 0.0
O242 O 0.367 0.90887 0.85654 0.0
O243 O 0.35341 0.93568 0.89911 0.0
C244 C 0.4372 0.99245 0.00772 0.0
C245 C 0.43983 0.96408 0.02431 0.0
H246 H 0.44073 0.90488 0.04921 0.0
H247 H 0.41597 0.85749 0.02583 0.0
H248 H 0.39945 0.03899 0.91931 0.0
H249 H 0.4276 0.04231 0.9691 0.0
H250 H 0.44802 0.01371 0.01652 0.0
H251 H 0.45266 0.96395 0.04563 0.0
Mn252 Mn 0.63635 0.64028 0.63093 0.0
Mn253 Mn 0.65773 0.57733 0.5888 0.0
C254 C 0.60987 0.61925 0.58879 0.0
C255 C 0.61263 0.66269 0.67253 0.0
C256 C 0.68028 0.64396 0.58105 0.0
O257 O 0.66593 0.6224 0.66037 0.0
O258 O 0.67737 0.58043 0.63043 0.0
C259 C 0.63594 0.5267 0.62878 0.0
N260 N 0.63751 0.54024 0.60007 0.0
C261 C 0.60812 0.49945 0.57576 0.0
C262 C 0.60631 0.48497 0.60504 0.0
C263 C 0.62022 0.49871 0.63167 0.0
C264 C 0.62408 0.52733 0.57433 0.0
H265 H 0.64659 0.5372 0.6493 0.0
C266 C 0.67984 0.5977 0.65558 0.0
O267 O 0.63197 0.67822 0.65892 0.0
O268 O 0.60791 0.63364 0.66295 0.0
N269 N 0.64041 0.57119 0.54792 0.0
C270 C 0.64348 0.58876 0.52168 0.0
C271 C 0.63079 0.57834 0.49299 0.0
C272 C 0.61531 0.54988 0.49151 0.0
C273 C 0.61249 0.53216 0.51879 0.0
C274 C 0.62588 0.54353 0.54663 0.0
H275 H 0.65556 0.61052 0.52261 0.0
O276 O 0.60676 0.64818 0.59844 0.0
O277 O 0.62827 0.60348 0.60402 0.0
O278 O 0.66548 0.65717 0.6014 0.0
O279 O 0.67922 0.61427 0.57493 0.0
C280 C 0.59671 0.50385 0.51953 0.0
C281 C 0.59442 0.48759 0.54803 0.0
H282 H 0.59416 0.46342 0.60739 0.0
H283 H 0.61883 0.48774 0.65437 0.0
H284 H 0.63303 0.59216 0.47204 0.0
H285 H 0.60568 0.54186 0.46929 0.0
H286 H 0.58595 0.4946 0.49841 0.0
H287 H 0.58192 0.46608 0.54841 0.0
H288 H 0.35873 0.28963 0.40664 0.0
H289 H 0.32905 0.25037 0.43171 0.0
H290 H 0.2758 0.32457 0.45978 0.0
H291 H 0.30515 0.36351 0.4352 0.0
H292 H 0.29286 0.29048 0.50941 0.0
H293 H 0.25558 0.26959 0.40373 0.0
H294 H 0.25805 0.25473 0.34745 0.0
H295 H 0.2906 0.16503 0.37226 0.0
H296 H 0.28866 0.17954 0.42872 0.0
H297 H 0.18153 0.20952 0.57439 0.0
H298 H 0.21103 0.24199 0.54218 0.0
H299 H 0.25307 0.15881 0.51254 0.0
H300 H 0.22306 0.12604 0.54386 0.0
H301 H 0.24499 0.19432 0.46392 0.0
H302 H 0.28157 0.2133 0.56868 0.0
H303 H 0.28068 0.22733 0.6253 0.0
H304 H 0.25218 0.31956 0.60297 0.0
H305 H 0.25254 0.30593 0.54621 0.0
C306 C 0.34028 0.29734 0.41741 0.0
C307 C 0.33439 0.32966 0.41919 0.0
C308 C 0.3234 0.27495 0.43183 0.0
C309 C 0.30033 0.28461 0.44792 0.0
C310 C 0.29362 0.3166 0.44784 0.0
C311 C 0.3104 0.33882 0.43367 0.0
C312 C 0.28428 0.26235 0.46715 0.0
C313 C 0.28214 0.26962 0.49937 0.0
C314 C 0.27115 0.23453 0.45435 0.0
C315 C 0.27226 0.22579 0.42043 0.0
C316 C 0.26349 0.24681 0.39718 0.0
C317 C 0.26474 0.23843 0.36525 0.0
C318 C 0.27455 0.209 0.35628 0.0
C319 C 0.28305 0.18785 0.37923 0.0
C320 C 0.28186 0.19612 0.4112 0.0
C321 C 0.19715 0.19812 0.5612 0.0
C322 C 0.19998 0.16516 0.56193 0.0
C323 C 0.21409 0.21675 0.54279 0.0
C324 C 0.23462 0.20297 0.52521 0.0
C325 C 0.23743 0.17006 0.52585 0.0
C326 C 0.22029 0.15135 0.54393 0.0
C327 C 0.25303 0.22288 0.5061 0.0
C328 C 0.25577 0.2151 0.47401 0.0
C329 C 0.26701 0.25016 0.51906 0.0
C330 C 0.26687 0.25849 0.55319 0.0
C331 C 0.27493 0.23649 0.57585 0.0
C332 C 0.27455 0.24439 0.60797 0.0
C333 C 0.26632 0.27429 0.61773 0.0
C334 C 0.25852 0.29639 0.59538 0.0
C335 C 0.25884 0.28861 0.56323 0.0
H336 H 0.26604 0.28035 0.64261 0.0
H337 H 0.2755 0.20255 0.33155 0.0
H338 H 0.67853 0.60591 0.72013 0.0
H339 H 0.70797 0.58067 0.75984 0.0
H340 H 0.75495 0.54036 0.68576 0.0
H341 H 0.72555 0.56472 0.6464 0.0
H342 H 0.73993 0.49614 0.72443 0.0
H343 H 0.77993 0.60178 0.736 0.0
H344 H 0.77931 0.65931 0.74654 0.0
H345 H 0.7493 0.64307 0.83874 0.0
H346 H 0.74942 0.58542 0.82858 0.0
H347 H 0.85263 0.43332 0.80659 0.0
H348 H 0.82324 0.4649 0.77277 0.0
H349 H 0.78311 0.50064 0.85441 0.0
H350 H 0.81294 0.46984 0.88851 0.0
H351 H 0.79163 0.54712 0.81529 0.0
H352 H 0.75302 0.44198 0.80488 0.0
H353 H 0.7531 0.38435 0.79479 0.0
H354 H 0.77925 0.39952 0.70074 0.0
H355 H 0.77968 0.45725 0.7104 0.0
C356 C 0.69546 0.59214 0.71246 0.0
C357 C 0.69957 0.58709 0.68016 0.0
C358 C 0.71227 0.57771 0.73513 0.0
C359 C 0.73364 0.55844 0.72579 0.0
C360 C 0.73845 0.55478 0.69359 0.0
C361 C 0.72163 0.56882 0.67109 0.0
C362 C 0.75009 0.54026 0.74895 0.0
C363 C 0.75148 0.5074 0.74409 0.0
C364 C 0.76441 0.55467 0.77528 0.0
C365 C 0.7644 0.58931 0.7814 0.0
C366 C 0.77299 0.61049 0.75842 0.0
C367 C 0.77277 0.64311 0.76434 0.0
C368 C 0.76419 0.65484 0.79325 0.0
C369 C 0.75589 0.63396 0.81634 0.0
C370 C 0.75605 0.60131 0.81052 0.0
C371 C 0.83751 0.4478 0.8174 0.0
C372 C 0.83508 0.44879 0.85031 0.0
C373 C 0.82064 0.46583 0.798 0.0
C374 C 0.80061 0.48483 0.81096 0.0
C375 C 0.79835 0.48616 0.84381 0.0
C376 C 0.81538 0.46838 0.86328 0.0
C377 C 0.78199 0.50314 0.79022 0.0
C378 C 0.78003 0.5359 0.79566 0.0
C379 C 0.767 0.48866 0.76441 0.0
C380 C 0.76659 0.45394 0.75846 0.0
C381 C 0.75896 0.43302 0.78211 0.0
C382 C 0.75889 0.40033 0.77646 0.0
C383 C 0.76623 0.38828 0.74716 0.0
C384 C 0.77359 0.40889 0.72343 0.0
C385 C 0.77372 0.44159 0.72897 0.0
H386 H 0.76617 0.36297 0.74283 0.0
H387 H 0.76404 0.68011 0.7978 0.0
H388 H 0.5924 0.13098 0.03016 0.0
H389 H 0.56072 0.10226 0.99261 0.0
H390 H 0.55496 0.02517 0.05718 0.0
H391 H 0.58618 0.05397 0.09465 0.0
H392 H 0.56539 1.00515 0.99719 0.0
H393 H 0.50335 0.0746 0.04783 0.0
H394 H 0.48608 0.12619 0.06481 0.0
H395 H 0.4791 0.15449 0.9684 0.0
H396 H 0.49671 0.10318 0.95087 0.0
H397 H 0.45286 0.91054 0.94679 0.0
H398 H 0.48641 0.94582 0.97439 0.0
H399 H 0.47524 0.01526 0.90231 0.0
H400 H 0.44075 0.97994 0.87508 0.0
H401 H 0.47599 0.0433 0.95869 0.0
H402 H 0.53351 0.97103 0.90805 0.0
H403 H 0.55045 0.9192 0.89131 0.0
H404 H 0.56678 0.89589 0.98797 0.0
H405 H 0.54946 0.94731 0.00534 0.0
C406 C 0.58425 0.10792 0.03619 0.0
C407 C 0.59238 0.09406 0.06465 0.0
C408 C 0.56614 0.09161 0.01486 0.0
C409 C 0.55557 0.0615 0.02204 0.0
C410 C 0.56303 0.04823 0.05102 0.0
C411 C 0.58101 0.06454 0.07228 0.0
C412 C 0.53742 0.04311 0.99918 0.0
C413 C 0.54578 0.0133 0.98905 0.0
C414 C 0.51217 0.05437 0.98756 0.0
C415 C 0.50171 0.08524 0.99808 0.0
C416 C 0.49841 0.09195 0.03027 0.0
C417 C 0.48849 0.12111 0.03999 0.0
C418 C 0.48159 0.14365 0.01771 0.0
C419 C 0.48452 0.13704 0.98564 0.0
C420 C 0.49446 0.10792 0.9758 0.0
C421 C 0.45752 0.93342 0.93697 0.0
C422 C 0.44376 0.94311 0.90949 0.0
C423 C 0.47694 0.95341 0.95249 0.0
C424 C 0.48356 0.98317 0.94033 0.0
C425 C 0.4704 0.99247 0.91219 0.0
C426 C 0.45084 0.97236 0.89663 0.0
C427 C 0.50364 1.00461 0.95779 0.0
C428 C 0.49574 0.0351 0.96671 0.0
C429 C 0.52944 0.99398 0.96837 0.0
C430 C 0.53999 0.963 0.958 0.0
C431 C 0.54052 0.95476 0.92575 0.0
C432 C 0.55021 0.92545 0.91615 0.0
C433 C 0.55964 0.90424 0.93856 0.0
C434 C 0.55944 0.91232 0.97063 0.0
C435 C 0.54969 0.94156 0.98036 0.0
H436 H 0.56714 0.88156 0.93108 0.0
H437 H 0.4739 0.16621 0.02528 0.0
H438 H 0.91612 0.8066 0.29891 0.0
H439 H 0.94813 0.77251 0.27195 0.0
H440 H 1.00858 0.79117 0.34671 0.0
H441 H 0.97648 0.82443 0.37432 0.0
H442 H 0.01948 0.80219 0.27115 0.0
H443 H 0.99365 0.72847 0.35346 0.0
H444 H 0.95929 0.69874 0.38291 0.0
H445 H 0.9274 0.65474 0.29669 0.0
H446 H 0.96134 0.68463 0.26668 0.0
H447 H 0.12421 0.70764 0.21458 0.0
H448 H 0.09365 0.73546 0.24933 0.0
H449 H 0.02649 0.67389 0.21597 0.0
H450 H 0.05746 0.64476 0.18301 0.0
H451 H 0.01845 0.68493 0.27235 0.0
H452 H 0.04001 0.75426 0.18889 0.0
H453 H 0.06931 0.78504 0.15401 0.0
H454 H 0.10315 0.83869 0.23382 0.0
H455 H 0.07428 0.80796 0.26924 0.0
C456 C 0.9361 0.80309 0.30982 0.0
C457 C 0.94373 0.81813 0.33881 0.0
C458 C 0.95434 0.78364 0.29438 0.0
C459 C 0.98068 0.77933 0.30738 0.0
C460 C 0.9883 0.79411 0.33638 0.0
C461 C 0.96989 0.813 0.35216 0.0
C462 C 1.00065 0.76055 0.28995 0.0
C463 C 0.01963 0.77657 0.27171 0.0
C464 C 1.00001 0.72716 0.28976 0.0
C465 C 0.97979 0.70907 0.30782 0.0
C466 C 0.97911 0.71273 0.34075 0.0
C467 C 0.95977 0.69578 0.35755 0.0
C468 C 0.94111 0.67494 0.34167 0.0
C469 C 0.94183 0.67093 0.30896 0.0
C470 C 0.96112 0.68785 0.29205 0.0
C471 C 0.10299 0.69982 0.21504 0.0
C472 C 0.09324 0.67406 0.19603 0.0
C473 C 0.0854 0.71596 0.23468 0.0
C474 C 0.05738 0.70753 0.2348 0.0
C475 C 0.04789 0.68111 0.21645 0.0
C476 C 0.06564 0.66441 0.19753 0.0
C477 C 0.03788 0.72647 0.2534 0.0
C478 C 0.01871 0.71055 0.27176 0.0
C479 C 0.03782 0.76005 0.25296 0.0
C480 C 0.05521 0.77858 0.23174 0.0
C481 C 0.05384 0.77248 0.19902 0.0
C482 C 0.07035 0.78993 0.17915 0.0
C483 C 0.08814 0.81374 0.1917 0.0
C484 C 0.0894 0.8202 0.22414 0.0
C485 C 0.07296 0.80279 0.24412 0.0
H486 H 0.1009 0.82723 0.17628 0.0
H487 H 0.92615 0.66184 0.35471 0.0
H488 H 0.34899 0.93146 0.80495 0.0
H489 H 0.32002 0.96471 0.77224 0.0
H490 H 0.28383 1.00273 0.85544 0.0
H491 H 0.31267 0.9696 0.88842 0.0
H492 H 0.24538 0.98831 0.80717 0.0
H493 H 0.33058 0.04586 0.82126 0.0
H494 H 0.38064 0.05326 0.82092 0.0
H495 H 0.37892 0.03343 0.72125 0.0
H496 H 0.32886 0.02539 0.72108 0.0
H497 H 0.18007 0.1096 0.7194 0.0
H498 H 0.2097 0.0858 0.7599 0.0
H499 H 0.25535 0.04118 0.68713 0.0
H500 H 0.22617 0.06471 0.64694 0.0
H501 H 0.28891 0.06381 0.73509 0.0
H502 H 0.20543 1.00101 0.7215 0.0
H503 H 0.15548 0.99205 0.7207 0.0
H504 H 0.15413 0.02039 0.81834 0.0
H505 H 0.20407 0.03005 0.81955 0.0
C506 C 0.33475 0.94668 0.81635 0.0
C507 C 0.3333 0.94787 0.84939 0.0
C508 C 0.31828 0.96581 0.7976 0.0
C509 C 0.29999 0.98648 0.81144 0.0
C510 C 0.29785 0.98703 0.84429 0.0
C511 C 0.31444 0.96809 0.86309 0.0
C512 C 0.28349 0.00789 0.79159 0.0
C513 C 0.25488 1.00523 0.79182 0.0
C514 C 0.29589 0.02967 0.77126 0.0
C515 C 0.32598 0.03477 0.77121 0.0
C516 C 0.34089 0.04284 0.7993 0.0
C517 C 0.36926 0.04718 0.7992 0.0
C518 C 0.38296 0.04375 0.77109 0.0
C519 C 0.36829 0.03605 0.74301 0.0
C520 C 0.33991 0.03163 0.743 0.0
C521 C 0.19674 0.09518 0.71213 0.0
C522 C 0.20063 0.08883 0.67999 0.0
C523 C 0.21354 0.08146 0.73524 0.0
C524 C 0.23456 0.06142 0.72651 0.0
C525 C 0.23927 0.05649 0.69445 0.0
C526 C 0.22245 0.06987 0.67149 0.0
C527 C 0.2508 0.04391 0.7503 0.0
C528 C 0.2794 0.04724 0.75079 0.0
C529 C 0.23839 0.02263 0.77114 0.0
C530 C 0.20842 0.01664 0.77051 0.0
C531 C 0.19445 1.0056 0.74273 0.0
C532 C 0.16615 1.00035 0.74221 0.0
C533 C 0.15163 1.00574 0.76943 0.0
C534 C 0.1654 0.0163 0.79725 0.0
C535 C 0.1937 0.02167 0.79787 0.0
H536 H 0.12972 1.00165 0.769 0.0
H537 H 0.40493 0.04712 0.77106 0.0
H538 H 0.93882 0.4803 0.87992 0.0
H539 H 0.96948 0.5191 0.90835 0.0
H540 H 0.97809 0.45482 0.98541 0.0
H541 H 0.94781 0.41611 0.95688 0.0
H542 H 0.9658 0.51438 0.00524 0.0
H543 H 0.0292 0.46623 0.93632 0.0
H544 H 0.04693 0.44959 0.88514 0.0
H545 H 0.04988 0.5462 0.8561 0.0
H546 H 0.03179 0.56337 0.90699 0.0
H547 H 0.07774 0.56733 0.09878 0.0
H548 H 0.04384 0.54 0.06391 0.0
H549 H 0.05356 0.61268 0.99498 0.0
H550 H 0.08858 0.63963 0.02992 0.0
H551 H 0.05323 0.55683 0.96673 0.0
H552 H 0.99458 0.60507 0.03897 0.0
H553 H 0.97725 0.62109 0.09055 0.0
H554 H 0.96494 0.52359 0.11388 0.0
H555 H 0.98262 0.50695 0.06269 0.0
C556 C 0.94736 0.47461 0.90292 0.0
C557 C 0.94028 0.44586 0.91686 0.0
C558 C 0.96491 0.49664 0.91905 0.0
C559 C 0.97598 0.4899 0.94906 0.0
C560 C 0.9696 0.46064 0.96241 0.0
C561 C 0.95216 0.43867 0.94627 0.0
C562 C 0.99345 0.51357 0.96728 0.0
C563 C 0.98499 0.52341 0.99698 0.0
C564 C 0.0181 0.52632 0.95593 0.0
C565 C 0.02876 0.51602 0.92526 0.0
C566 C 0.03334 0.48388 0.91888 0.0
C567 C 0.04352 0.47436 0.88996 0.0
C568 C 0.04942 0.49681 0.86733 0.0
C569 C 0.04523 0.52883 0.87362 0.0
C570 C 0.03502 0.53847 0.90249 0.0
C571 C 0.07262 0.57743 0.07615 0.0
C572 C 0.0862 0.60493 0.06647 0.0
C573 C 0.05296 0.56206 0.05639 0.0
C574 C 0.04585 0.5744 0.02686 0.0
C575 C 0.05873 0.60269 0.01763 0.0
C576 C 0.07859 0.61809 0.03752 0.0
C577 C 0.02598 0.55659 0.00542 0.0
C578 C 0.03386 0.54802 0.97498 0.0
C579 C 1.00071 0.54486 0.01612 0.0
C580 C 0.99007 0.55478 0.04701 0.0
C581 C 0.98836 0.58704 0.05519 0.0
C582 C 0.97846 0.59623 0.08436 0.0
C583 C 0.97004 0.57338 0.1055 0.0
C584 C 0.97148 0.54127 0.0975 0.0
C585 C 0.98143 0.53195 0.0684 0.0
H586 H 0.96237 0.58055 0.12806 0.0
H587 H 0.05733 0.48939 0.84496 0.0
H588 H 0.41656 0.30659 0.29648 0.0
H589 H 0.4482 0.27239 0.26911 0.0
H590 H 0.50917 0.29033 0.34346 0.0
H591 H 0.4774 0.32375 0.37149 0.0
H592 H 0.51907 0.30157 0.26707 0.0
H593 H 0.49483 0.22798 0.3504 0.0
H594 H 0.46093 0.19833 0.38058 0.0
H595 H 0.4277 0.15431 0.29499 0.0
H596 H 0.46117 0.18412 0.26426 0.0
H597 H 0.62365 0.20748 0.20989 0.0
H598 H 0.59309 0.2355 0.24443 0.0
H599 H 0.52635 0.17242 0.21292 0.0
H600 H 0.55747 0.14299 0.18027 0.0
H601 H 0.51851 0.18435 0.26904 0.0
H602 H 0.53872 0.25303 0.18467 0.0
H603 H 0.56737 0.2837 0.14902 0.0
H604 H 0.60183 0.33835 0.22784 0.0
H605 H 0.57362 0.30774 0.26402 0.0
C606 C 0.43657 0.30291 0.30722 0.0
C607 C 0.44444 0.3178 0.33622 0.0
C608 C 0.45461 0.28339 0.29155 0.0
C609 C 0.48098 0.27882 0.3043 0.0
C610 C 0.48885 0.29345 0.33332 0.0
C611 C 0.47063 0.31243 0.34934 0.0
C612 C 0.50073 0.26 0.28657 0.0
C613 C 0.51933 0.27596 0.2678 0.0
C614 C 0.50019 0.22661 0.28654 0.0
C615 C 0.48026 0.20856 0.30503 0.0
C616 C 0.4801 0.21225 0.338 0.0
C617 C 0.46102 0.19535 0.35521 0.0
C618 C 0.44211 0.17452 0.3397 0.0
C619 C 0.44232 0.17048 0.30696 0.0
C620 C 0.46135 0.18736 0.28965 0.0
C621 C 0.60251 0.19942 0.21067 0.0
C622 C 0.59294 0.17311 0.19233 0.0
C623 C 0.58491 0.21567 0.23018 0.0
C624 C 0.557 0.20686 0.23078 0.0
C625 C 0.54766 0.17996 0.21302 0.0
C626 C 0.56548 0.1631 0.19427 0.0
C627 C 0.53751 0.22582 0.24943 0.0
C628 C 0.51866 0.20996 0.26826 0.0
C629 C 0.53729 0.2594 0.24876 0.0
C630 C 0.55427 0.27787 0.22708 0.0
C631 C 0.55255 0.27145 0.19442 0.0
C632 C 0.56869 0.28884 0.17411 0.0
C633 C 0.58647 0.3129 0.18617 0.0
C634 C 0.58808 0.31967 0.21855 0.0
C635 C 0.57201 0.30233 0.23896 0.0
H636 H 0.59895 0.32633 0.17041 0.0
H637 H 0.42735 0.16146 0.35307 0.0
H638 H 0.85743 0.78984 0.40722 0.0
H639 H 0.82795 0.7501 0.43195 0.0
H640 H 0.77706 0.82423 0.46563 0.0
H641 H 0.80611 0.8636 0.44134 0.0
H642 H 0.7952 0.7872 0.51298 0.0
H643 H 0.75414 0.77305 0.40802 0.0
H644 H 0.75446 0.76091 0.35098 0.0
H645 H 0.78503 0.66878 0.36977 0.0
H646 H 0.78523 0.68055 0.42695 0.0
H647 H 0.68252 0.70869 0.57751 0.0
H648 H 0.7125 0.74111 0.54583 0.0
H649 H 0.75098 0.6572 0.51167 0.0
H650 H 0.72055 0.62452 0.54255 0.0
H651 H 0.74292 0.69536 0.46468 0.0
H652 H 0.78253 0.70746 0.56877 0.0
H653 H 0.78354 0.7187 0.62604 0.0
H654 H 0.75826 0.81348 0.60948 0.0
H655 H 0.75672 0.80267 0.55212 0.0
C656 C 0.83955 0.79747 0.41921 0.0
C657 C 0.83425 0.82985 0.4226 0.0
C658 C 0.82279 0.7748 0.43343 0.0
C659 C 0.80046 0.78427 0.45094 0.0
C660 C 0.79433 0.8164 0.45258 0.0
C661 C 0.81096 0.83888 0.43858 0.0
C662 C 0.78452 0.76153 0.46973 0.0
C663 C 0.78355 0.76728 0.50236 0.0
C664 C 0.77015 0.7349 0.45609 0.0
C665 C 0.77001 0.72783 0.42174 0.0
C666 C 0.76117 0.75032 0.39998 0.0
C667 C 0.76121 0.74348 0.36763 0.0
C668 C 0.76985 0.71413 0.35675 0.0
C669 C 0.77839 0.69153 0.37822 0.0
C670 C 0.77842 0.69826 0.4106 0.0
C671 C 0.69744 0.69709 0.56342 0.0
C672 C 0.69917 0.66396 0.5628 0.0
C673 C 0.71466 0.7157 0.54533 0.0
C674 C 0.73433 0.70167 0.52664 0.0
C675 C 0.73601 0.66861 0.52587 0.0
C676 C 0.71863 0.64996 0.5437 0.0
C677 C 0.75302 0.72154 0.50788 0.0
C678 C 0.75467 0.71516 0.47536 0.0
C679 C 0.76829 0.74752 0.52164 0.0
C680 C 0.76929 0.75416 0.55614 0.0
C681 C 0.777 0.73063 0.57735 0.0
C682 C 0.77769 0.73694 0.60983 0.0
C683 C 0.77091 0.76676 0.62139 0.0
C684 C 0.76348 0.79037 0.60049 0.0
C685 C 0.76273 0.78418 0.56799 0.0
H686 H 0.77146 0.7716 0.64654 0.0
H687 H 0.76985 0.70887 0.33169 0.0
H688 H 0.1893 0.6147 0.214 0.0
H689 H 0.21944 0.59063 0.2538 0.0
H690 H 0.23548 0.51498 0.18794 0.0
H691 H 0.20569 0.53825 0.14864 0.0
H692 H 0.2239 0.49186 0.24375 0.0
H693 H 0.2822 0.57492 0.20453 0.0
H694 H 0.29516 0.63004 0.1927 0.0
H695 H 0.29184 0.65592 0.2908 0.0
H696 H 0.27849 0.601 0.30315 0.0
H697 H 0.34167 0.41963 0.30637 0.0
H698 H 0.31061 0.44976 0.27291 0.0
H699 H 0.29929 0.51565 0.34989 0.0
H700 H 0.33029 0.48583 0.3835 0.0
H701 H 0.30614 0.54593 0.29354 0.0
H702 H 0.25094 0.46142 0.33282 0.0
H703 H 0.23881 0.40595 0.34411 0.0
H704 H 0.2366 0.38259 0.24513 0.0
H705 H 0.24913 0.43785 0.23326 0.0
C706 C 0.19934 0.59302 0.20801 0.0
C707 C 0.19494 0.57853 0.17802 0.0
C708 C 0.2166 0.57931 0.23075 0.0
C709 C 0.22976 0.55096 0.22384 0.0
C710 C 0.22547 0.53671 0.19394 0.0
C711 C 0.2084 0.55026 0.17137 0.0
C712 C 0.24778 0.53542 0.24748 0.0
C713 C 0.24198 0.50367 0.25444 0.0
C714 C 0.27102 0.55096 0.26209 0.0
C715 C 0.27901 0.58396 0.2547 0.0
C716 C 0.28399 0.59244 0.22354 0.0
C717 C 0.29145 0.62362 0.21675 0.0
C718 C 0.29423 0.64649 0.24097 0.0
C719 C 0.28962 0.6382 0.27205 0.0
C720 C 0.28211 0.60704 0.27896 0.0
C721 C 0.33268 0.44058 0.3162 0.0
C722 C 0.3384 0.4501 0.34775 0.0
C723 C 0.31485 0.45774 0.29705 0.0
C724 C 0.30242 0.48481 0.309 0.0
C725 C 0.3086 0.49483 0.34019 0.0
C726 C 0.32625 0.47759 0.35941 0.0
C727 C 0.28254 0.50222 0.28912 0.0
C728 C 0.28793 0.53426 0.28301 0.0
C729 C 0.25893 0.48694 0.27515 0.0
C730 C 0.25122 0.45372 0.28218 0.0
C731 C 0.24808 0.44441 0.31347 0.0
C732 C 0.24109 0.41301 0.31998 0.0
C733 C 0.237 0.39074 0.29536 0.0
C734 C 0.23981 0.39985 0.26418 0.0
C735 C 0.24683 0.43122 0.25755 0.0
H736 H 0.23159 0.36645 0.30044 0.0
H737 H 0.30002 0.67062 0.23567 0.0
H738 H 0.80176 0.36064 0.93422 0.0
H739 H 0.77209 0.32127 0.95781 0.0
H740 H 0.82766 0.24813 0.93349 0.0
H741 H 0.85755 0.28779 0.90916 0.0
H742 H 0.77133 0.22818 0.92839 0.0
H743 H 0.83381 0.2785 0.00525 0.0
H744 H 0.8574 0.3242 0.03221 0.0
H745 H 0.78044 0.35986 0.05968 0.0
H746 H 0.75632 0.31432 0.03277 0.0
H747 H 0.72162 0.12198 0.04205 0.0
H748 H 0.75048 0.15559 0.01033 0.0
H749 H 0.70753 0.23761 0.04132 0.0
H750 H 0.6791 0.2042 0.07401 0.0
H751 H 0.75956 0.25107 0.04218 0.0
H752 H 0.69663 0.20116 0.96597 0.0
H753 H 0.67238 0.15605 0.9386 0.0
H754 H 0.74875 0.12047 0.9089 0.0
H755 H 0.77349 0.16513 0.93652 0.0
C756 C 0.80744 0.33607 0.93327 0.0
C757 C 0.83213 0.32732 0.92014 0.0
C758 C 0.79047 0.3136 0.94684 0.0
C759 C 0.79796 0.2819 0.94807 0.0
C760 C 0.82158 0.27254 0.93293 0.0
C761 C 0.83859 0.29515 0.91898 0.0
C762 C 0.78225 0.25959 0.96762 0.0
C763 C 0.76905 0.23284 0.95337 0.0
C764 C 0.77884 0.26605 1.00008 0.0
C765 C 0.79327 0.29314 0.01681 0.0
C766 C 0.82191 0.29617 0.01692 0.0
C767 C 0.83538 0.32205 0.03219 0.0
C768 C 0.82045 0.34504 0.0475 0.0
C769 C 0.79199 0.34206 0.04777 0.0
C770 C 0.77841 0.31617 0.03259 0.0
C771 C 0.71827 0.14718 0.04218 0.0
C772 C 0.69793 0.16035 0.06059 0.0
C773 C 0.73473 0.16638 0.02381 0.0
C774 C 0.73092 0.19913 0.02288 0.0
C775 C 0.71086 0.2124 0.04153 0.0
C776 C 0.69458 0.19325 0.06024 0.0
C777 C 0.74816 0.21967 1.00299 0.0
C778 C 0.76178 0.24618 0.01723 0.0
C779 C 0.75179 0.21298 0.97052 0.0
C780 C 0.73693 0.18633 0.95357 0.0
C781 C 0.70826 0.18361 0.95377 0.0
C782 C 0.69443 0.15813 0.9382 0.0
C783 C 0.70902 0.13537 0.92209 0.0
C784 C 0.73747 0.1381 0.92143 0.0
C785 C 0.75141 0.1635 0.93702 0.0
H786 H 0.69828 0.11565 0.91006 0.0
H787 H 0.83094 0.3651 0.05924 0.0
H788 H 0.8524 0.93266 0.30645 0.0
H789 H 0.82368 0.96586 0.27324 0.0
H790 H 0.78924 0.00703 0.35607 0.0
H791 H 0.81768 0.97401 0.38944 0.0
H792 H 0.74997 0.99195 0.30989 0.0
H793 H 0.83666 0.0479 0.31833 0.0
H794 H 0.88667 0.05369 0.31509 0.0
H795 H 0.88048 0.03036 0.21612 0.0
H796 H 0.83044 0.02397 0.21887 0.0
H797 H 0.68154 0.10898 0.22035 0.0
H798 H 0.71227 0.08701 0.26089 0.0
H799 H 0.75865 0.04332 0.18819 0.0
H800 H 0.72876 0.06547 0.14806 0.0
H801 H 0.79211 0.06453 0.23404 0.0
H802 H 0.70772 1.00278 0.22551 0.0
H803 H 0.65777 0.99456 0.22695 0.0
H804 H 0.65965 0.026 0.32387 0.0
H805 H 0.7096 0.03489 0.32283 0.0
C806 C 0.83865 0.94865 0.31764 0.0
C807 C 0.8375 0.95065 0.35069 0.0
C808 C 0.82232 0.96774 0.29861 0.0
C809 C 0.80451 0.98919 0.3122 0.0
C810 C 0.80286 0.99072 0.34508 0.0
C811 C 0.81925 0.97182 0.36412 0.0
C812 C 0.78775 0.01019 0.29214 0.0
C813 C 0.75919 0.00822 0.29367 0.0
C814 C 0.79975 0.03107 0.27065 0.0
C815 C 0.82981 0.03522 0.26887 0.0
C816 C 0.84597 0.0438 0.29592 0.0
C817 C 0.87433 0.04721 0.29416 0.0
C818 C 0.88675 0.04233 0.26543 0.0
C819 C 0.87083 0.03411 0.23837 0.0
C820 C 0.84247 0.03062 0.24001 0.0
C821 C 0.69865 0.09526 0.21311 0.0
C822 C 0.7025 0.08871 0.18099 0.0
C823 C 0.71606 0.08251 0.23626 0.0
C824 C 0.73754 0.06304 0.2276 0.0
C825 C 0.74225 0.05813 0.19554 0.0
C826 C 0.72497 0.07073 0.17257 0.0
C827 C 0.75426 0.04596 0.25137 0.0
C828 C 0.78287 0.04861 0.25056 0.0
C829 C 0.74229 0.02542 0.27324 0.0
C830 C 0.71232 0.01987 0.27398 0.0
C831 C 0.69744 0.00817 0.24706 0.0
C832 C 0.66914 1.00336 0.24781 0.0
C833 C 0.65553 0.00984 0.27546 0.0
C834 C 0.67021 0.02106 0.30245 0.0
C835 C 0.69852 0.02599 0.30179 0.0
H836 H 0.63362 1.00609 0.27601 0.0
H837 H 0.90871 0.04498 0.26412 0.0
H838 H 0.94284 0.9808 0.37953 0.0
H839 H 0.97448 0.01854 0.40803 0.0
H840 H 0.98151 0.95378 0.48488 0.0
H841 H 0.95022 0.91621 0.45638 0.0
H842 H 0.97058 0.01311 0.50499 0.0
H843 H 0.03295 0.96432 0.43521 0.0
H844 H 0.05015 0.94798 0.38367 0.0
H845 H 0.05484 0.04501 0.35612 0.0
H846 H 0.03729 0.06189 0.40738 0.0
H847 H 0.08218 0.06667 0.59946 0.0
H848 H 0.04913 0.03815 0.56429 0.0
H849 H 0.05842 0.11034 0.49477 0.0
H850 H 0.09255 0.13841 0.52994 0.0
H851 H 0.05857 0.05426 0.46687 0.0
H852 H 0.99999 0.10303 0.53917 0.0
H853 H 0.98269 0.119 0.59078 0.0
H854 H 0.96991 0.02147 0.61377 0.0
H855 H 0.98755 1.00489 0.56254 0.0
C856 C 0.95128 0.97477 0.40249 0.0
C857 C 0.94346 0.94626 0.4164 0.0
C858 C 0.96938 0.99619 0.41865 0.0
C859 C 0.9803 0.98901 0.44863 0.0
C860 C 0.97319 0.95993 0.4619 0.0
C861 C 0.95517 0.93862 0.44577 0.0
C862 C 0.99818 0.01211 0.46703 0.0
C863 C 0.98989 0.02183 0.49683 0.0
C864 C 0.02303 0.02444 0.45579 0.0
C865 C 0.03345 0.01432 0.42495 0.0
C866 C 0.03737 0.98214 0.41803 0.0
C867 C 0.04725 0.97279 0.3889 0.0
C868 C 0.05349 0.99543 0.36658 0.0
C869 C 0.04994 0.02749 0.3734 0.0
C870 C 0.04004 0.03696 0.40249 0.0
C871 C 0.07723 0.0763 0.57658 0.0
C872 C 0.09041 0.10402 0.56681 0.0
C873 C 0.05807 0.06027 0.55665 0.0
C874 C 0.05105 0.0722 0.5269 0.0
C875 C 0.06358 0.10063 0.51754 0.0
C876 C 0.08293 0.11666 0.53757 0.0
C877 C 0.03127 0.05422 0.50553 0.0
C878 C 0.03911 0.04565 0.47507 0.0
C879 C 1.00587 0.04283 0.51614 0.0
C880 C 0.99528 0.05273 0.54706 0.0
C881 C 0.99369 0.08498 0.55533 0.0
C882 C 0.9838 0.09414 0.58451 0.0
C883 C 0.97526 0.07127 0.60557 0.0
C884 C 0.97656 0.03917 0.59746 0.0
C885 C 0.98649 0.02988 0.56835 0.0
H886 H 0.96759 0.07841 0.62814 0.0
H887 H 0.06115 0.98815 0.34405 0.0
H888 H 0.91868 0.31732 0.79193 0.0
H889 H 0.95043 0.28422 0.76405 0.0
H890 H 1.00209 0.28094 0.8483 0.0
H891 H 0.97004 0.31358 0.87653 0.0
H892 H 1.00064 0.29574 0.7495 0.0
H893 H 0.03807 0.21274 0.84803 0.0
H894 H 0.02046 0.1873 0.89524 0.0
H895 H 0.93855 0.19125 0.85638 0.0
H896 H 0.95569 0.21631 0.80878 0.0
H897 H 0.11936 0.22323 0.69791 0.0
H898 H 0.08771 0.25052 0.73167 0.0
H899 H 0.03528 0.16687 0.73077 0.0
H900 H 0.06719 0.13921 0.69764 0.0
H901 H 0.03592 0.19399 0.78735 0.0
H902 H 0.02209 0.22918 0.6816 0.0
H903 H 0.03559 0.25148 0.63109 0.0
H904 H 0.06269 0.33785 0.67884 0.0
H905 H 0.04968 0.31588 0.72973 0.0
C906 C 0.93662 0.30925 0.80468 0.0
C907 C 0.94176 0.31808 0.83651 0.0
C908 C 0.95486 0.29041 0.78863 0.0
C909 C 0.97871 0.2799 0.80398 0.0
C910 C 0.98369 0.28829 0.83596 0.0
C911 C 0.96535 0.30704 0.85209 0.0
C912 C 0.99878 0.26132 0.78609 0.0
C913 C 1.00834 0.27352 0.75789 0.0
C914 C 1.00866 0.23203 0.79659 0.0
C915 C 0.99816 0.21672 0.825 0.0
C916 C 1.01631 0.20809 0.84953 0.0
C917 C 1.00641 0.19374 0.87636 0.0
C918 C 0.9784 0.18776 0.87886 0.0
C919 C 0.96023 0.19601 0.85448 0.0
C920 C 0.97003 0.21033 0.82759 0.0
C921 C 0.10127 0.21049 0.70522 0.0
C922 C 0.09575 0.17907 0.69489 0.0
C923 C 0.08308 0.2262 0.72441 0.0
C924 C 0.05877 0.21101 0.73337 0.0
C925 C 0.05381 0.17919 0.72418 0.0
C926 C 0.07209 0.16339 0.70516 0.0
C927 C 0.03797 0.22865 0.75102 0.0
C928 C 0.02829 0.2163 0.77913 0.0
C929 C 0.02743 0.25745 0.74006 0.0
C930 C 0.03516 0.27077 0.7095 0.0
C931 C 0.03111 0.25285 0.68135 0.0
C932 C 0.03864 0.26543 0.65266 0.0
C933 C 0.05005 0.29603 0.65177 0.0
C934 C 0.05388 0.31413 0.67957 0.0
C935 C 0.04642 0.30164 0.70834 0.0
H936 H 0.05587 0.30574 0.62953 0.0
H937 H 0.97077 0.17667 0.89965 0.0
H938 H 0.57393 0.63517 0.70899 0.0
H939 H 0.54196 0.66169 0.74299 0.0
H940 H 0.57861 0.75213 0.72109 0.0
H941 H 0.6112 0.72566 0.68807 0.0
H942 H 0.56613 0.75403 0.77936 0.0
H943 H 0.51776 0.7216 0.68343 0.0
H944 H 0.50092 0.68384 0.64161 0.0
H945 H 0.45715 0.63069 0.70954 0.0
H946 H 0.47404 0.66791 0.75186 0.0
H947 H 0.42037 0.82156 0.78838 0.0
H948 H 0.45309 0.78913 0.76133 0.0
H949 H 0.49281 0.76872 0.85065 0.0
H950 H 0.46066 0.80215 0.87775 0.0
H951 H 0.46712 0.73108 0.75939 0.0
H952 H 0.56085 0.76161 0.8425 0.0
H953 H 0.5777 0.80469 0.8789 0.0
H954 H 0.53044 0.87132 0.82696 0.0
H955 H 0.51361 0.82874 0.79002 0.0
C956 C 0.5754 0.66068 0.71175 0.0
C957 C 0.59506 0.67829 0.69568 0.0
C958 C 0.55696 0.67587 0.73105 0.0
C959 C 0.55739 0.70906 0.7342 0.0
C960 C 0.57771 0.72655 0.7191 0.0
C961 C 0.59637 0.71135 0.70014 0.0
C962 C 0.53617 0.72572 0.75219 0.0
C963 C 0.5445 0.74884 0.77507 0.0
C964 C 0.50782 0.7196 0.74629 0.0
C965 C 0.4974 0.69736 0.72086 0.0
C966 C 0.50468 0.70175 0.68948 0.0
C967 C 0.49511 0.68046 0.66568 0.0
C968 C 0.47804 0.65483 0.67292 0.0
C969 C 0.47042 0.65051 0.70397 0.0
C970 C 0.47997 0.67171 0.72787 0.0
C971 C 0.4359 0.80993 0.80234 0.0
C972 C 0.438 0.81466 0.83524 0.0
C973 C 0.45463 0.79131 0.7868 0.0
C974 C 0.47584 0.77682 0.80378 0.0
C975 C 0.47709 0.78019 0.83685 0.0
C976 C 0.45855 0.79915 0.85238 0.0
C977 C 0.49709 0.75928 0.78668 0.0
C978 C 0.48876 0.73602 0.76393 0.0
C979 C 0.52542 0.76603 0.79195 0.0
C980 C 0.53575 0.7919 0.81373 0.0
C981 C 0.55414 0.78548 0.8388 0.0
C982 C 0.56367 0.8098 0.85952 0.0
C983 C 0.55507 0.84069 0.8553 0.0
C984 C 0.53701 0.84736 0.83026 0.0
C985 C 0.52745 0.82314 0.80944 0.0
H986 H 0.56246 0.85947 0.87138 0.0
H987 H 0.47066 0.63837 0.65447 0.0
H988 H 0.21904 0.62345 0.04228 0.0
H989 H 0.2488 0.65661 0.011 0.0
H990 H 0.21275 0.74021 0.04931 0.0
H991 H 0.18282 0.70725 0.08079 0.0
H992 H 0.21602 0.7414 0.98453 0.0
H993 H 0.27509 0.7208 0.07413 0.0
H994 H 0.29907 0.68742 0.11247 0.0
H995 H 0.34116 0.64247 0.03751 0.0
H996 H 0.3171 0.6753 0.99863 0.0
H997 H 0.30988 0.86369 0.95246 0.0
H998 H 0.2804 0.82385 0.97536 0.0
H999 H 0.324 0.75009 0.92896 0.0
H1000 H 0.35399 0.7903 0.90568 0.0
H1001 H 0.31721 0.73943 0.99296 0.0
H1002 H 0.2608 0.76361 0.90369 0.0
H1003 H 0.23701 0.79763 0.86579 0.0
H1004 H 0.18995 0.8361 0.94008 0.0
H1005 H 0.21375 0.80265 0.97855 0.0
C1006 C 0.21751 0.6489 0.04429 0.0
C1007 C 0.1985 0.66264 0.06419 0.0
C1008 C 0.23462 0.66782 0.02639 0.0
C1009 C 0.23307 0.70089 0.02787 0.0
C1010 C 0.21426 0.71472 0.04778 0.0
C1011 C 0.19728 0.69583 0.06591 0.0
C1012 C 0.25069 0.72105 0.00821 0.0
C1013 C 0.23814 0.74119 0.98658 0.0
C1014 C 0.27955 0.71999 0.01012 0.0
C1015 C 0.29405 0.70024 0.03343 0.0
C1016 C 0.28926 0.70359 0.06578 0.0
C1017 C 0.30291 0.68481 0.08762 0.0
C1018 C 0.32156 0.66277 0.07742 0.0
C1019 C 0.32666 0.65952 0.04536 0.0
C1020 C 0.31304 0.67821 0.02342 0.0
C1021 C 0.31314 0.83903 0.94679 0.0
C1022 C 0.33436 0.83019 0.92725 0.0
C1023 C 0.29613 0.81624 0.95983 0.0
C1024 C 0.29985 0.78398 0.95376 0.0
C1025 C 0.32073 0.7749 0.93388 0.0
C1026 C 0.33771 0.79786 0.92044 0.0
C1027 C 0.28253 0.76016 0.96962 0.0
C1028 C 0.29509 0.73934 0.99058 0.0
C1029 C 0.25365 0.76059 0.96712 0.0
C1030 C 0.23922 0.78075 0.94406 0.0
C1031 C 0.24553 0.7795 0.91201 0.0
C1032 C 0.23202 0.79865 0.89041 0.0
C1033 C 0.21202 0.81905 0.90053 0.0
C1034 C 0.20546 0.82029 0.93227 0.0
C1035 C 0.21893 0.80121 0.95398 0.0
H1036 H 0.20157 0.83386 0.88377 0.0
H1037 H 0.33212 0.64826 0.09437 0.0
H1038 H 0.44372 0.48047 0.37815 0.0
H1039 H 0.47476 0.51832 0.40734 0.0
H1040 H 0.4809 0.45344 0.48418 0.0
H1041 H 0.45021 0.41573 0.45497 0.0
H1042 H 0.46967 0.51285 0.50432 0.0
H1043 H 0.53304 0.46412 0.43583 0.0
H1044 H 0.55104 0.44758 0.38475 0.0
H1045 H 0.55578 0.54444 0.35669 0.0
H1046 H 0.53743 0.56153 0.40747 0.0
H1047 H 0.58063 0.56614 0.59994 0.0
H1048 H 0.5476 0.53795 0.56447 0.0
H1049 H 0.55762 0.6103 0.49526 0.0
H1050 H 0.59168 0.63806 0.53074 0.0
H1051 H 0.55798 0.55427 0.46733 0.0
H1052 H 0.49887 0.60309 0.53866 0.0
H1053 H 0.48138 0.6193 0.59011 0.0
H1054 H 0.46793 0.5219 0.61317 0.0
H1055 H 0.48582 0.50507 0.56214 0.0
C1056 C 0.45184 0.47442 0.40124 0.0
C1057 C 0.44393 0.44582 0.41492 0.0
C1058 C 0.4696 0.49592 0.41782 0.0
C1059 C 0.48006 0.48876 0.44801 0.0
C1060 C 0.4729 0.4596 0.46106 0.0
C1061 C 0.45524 0.43819 0.4445 0.0
C1062 C 0.49769 0.5119 0.46672 0.0
C1063 C 0.48904 0.52164 0.49639 0.0
C1064 C 0.52264 0.52429 0.45584 0.0
C1065 C 0.5335 0.51405 0.42525 0.0
C1066 C 0.53764 0.48186 0.41863 0.0
C1067 C 0.54797 0.47239 0.38977 0.0
C1068 C 0.55445 0.49493 0.36744 0.0
C1069 C 0.55069 0.527 0.37397 0.0
C1070 C 0.54033 0.53659 0.40279 0.0
C1071 C 0.57583 0.57589 0.57707 0.0
C1072 C 0.58918 0.60356 0.56747 0.0
C1073 C 0.55668 0.56005 0.55698 0.0
C1074 C 0.54989 0.5721 0.52722 0.0
C1075 C 0.56259 0.6005 0.51804 0.0
C1076 C 0.58191 0.61636 0.53825 0.0
C1077 C 0.53028 0.55419 0.50558 0.0
C1078 C 0.53845 0.54561 0.47527 0.0
C1079 C 0.50477 0.54279 0.51586 0.0
C1080 C 0.49386 0.55282 0.5466 0.0
C1081 C 0.49237 0.58512 0.55479 0.0
C1082 C 0.48237 0.59442 0.58388 0.0
C1083 C 0.47359 0.57165 0.60491 0.0
C1084 C 0.47476 0.53952 0.59687 0.0
C1085 C 0.48482 0.53009 0.56786 0.0
H1086 H 0.46585 0.57889 0.62742 0.0
H1087 H 0.56247 0.48756 0.34511 0.0
loop_
_geom_bond_atom_site_label_1
_geom_bond_atom_site_label_2
_geom_bond_distance
_geom_bond_site_symmetry_2
_ccdc_geom_bond_type
Mn0 O5 2.095 . S
Mn0 O15 2.162 . S
Mn0 O16 2.297 . S
Mn0 O24 2.385 . S
Mn0 O25 2.209 . S
Mn0 O26 2.094 . S
Mn1 O6 2.121 . S
Mn1 N8 2.257 . S
Mn1 N17 2.282 . S
Mn1 O25 2.215 . S
Mn1 O27 2.117 . S
C2 O24 1.234 . S
C2 O25 1.283 . S
C3 O15 1.281 . S
C3 O16 1.236 . S
C4 O26 1.240 . S
C4 O27 1.264 . S
O5 Mn0 2.095 . S
O5 C14 1.250 . S
O6 Mn1 2.121 . S
O6 C14 1.258 . S
C7 N8 1.326 . S
C7 C11 1.460 1_545 S
C7 H13 0.929 . S
N8 Mn1 2.257 . S
N8 C7 1.326 . S
N8 C12 1.362 . S
C9 C10 1.258 . S
C9 C12 1.431 1_565 S
C9 C29 1.449 . S
C10 C9 1.258 . S
C10 C11 1.477 . S
C10 H30 0.931 . S
C11 C7 1.460 1_565 S
C11 C10 1.477 . S
C11 H31 0.930 . S
C12 N8 1.362 . S
C12 C9 1.431 1_545 S
C12 C22 1.476 . S
H13 C7 0.929 . S
C14 O5 1.250 . S
C14 O6 1.258 . S
O15 Mn0 2.162 . S
O15 C3 1.281 . S
O16 Mn0 2.297 . S
O16 C3 1.236 . S
N17 Mn1 2.282 . S
N17 C18 1.328 . S
N17 C22 1.318 . S
C18 N17 1.328 . S
C18 C19 1.457 . S
C18 H23 0.929 . S
C19 C18 1.457 . S
C19 C20 1.291 . S
C19 H32 0.931 . S
C20 C19 1.291 . S
C20 C21 1.373 . S
C20 H33 0.929 . S
C21 C20 1.373 . S
C21 C22 1.396 . S
C21 C28 1.403 . S
C22 C12 1.476 . S
C22 N17 1.318 . S
C22 C21 1.396 . S
H23 C18 0.929 . S
O24 Mn0 2.385 . S
O24 C2 1.234 . S
O25 Mn0 2.209 . S
O25 Mn1 2.215 . S
O25 C2 1.283 . S
O26 Mn0 2.094 . S
O26 C4 1.240 . S
O27 Mn1 2.117 . S
O27 C4 1.264 . S
C28 C21 1.403 . S
C28 C29 1.399 1_545 S
C28 H34 0.929 1_545 S
C29 C9 1.449 . S
C29 C28 1.399 1_565 S
C29 H35 0.930 . S
H30 C10 0.931 . S
H31 C11 0.930 . S
H32 C19 0.931 . S
H33 C20 0.929 . S
H34 C28 0.929 1_565 S
H35 C29 0.930 . S
Mn36 O41 2.095 . S
Mn36 O51 2.162 . S
Mn36 O52 2.297 . S
Mn36 O60 2.385 . S
Mn36 O61 2.209 . S
Mn36 O62 2.094 . S
Mn37 O42 2.121 . S
Mn37 N44 2.257 . S
Mn37 N53 2.282 . S
Mn37 O61 2.215 . S
Mn37 O63 2.117 . S
C38 O60 1.234 . S
C38 O61 1.283 . S
C39 O51 1.281 . S
C39 O52 1.236 . S
C40 O62 1.240 . S
C40 O63 1.264 . S
O41 Mn36 2.095 . S
O41 C50 1.250 . S
O42 Mn37 2.121 . S
O42 C50 1.258 . S
C43 N44 1.326 . S
C43 C47 1.460 1_556 S
C43 H49 0.929 . S
N44 Mn37 2.257 . S
N44 C43 1.326 . S
N44 C48 1.362 . S
C45 C46 1.258 . S
C45 C48 1.431 1_554 S
C45 C65 1.449 . S
C46 C45 1.258 . S
C46 C47 1.477 . S
C46 H66 0.931 . S
C47 C43 1.460 1_554 S
C47 C46 1.477 . S
C47 H67 0.930 . S
C48 N44 1.362 . S
C48 C45 1.431 1_556 S
C48 C58 1.476 . S
H49 C43 0.929 . S
C50 O41 1.250 . S
C50 O42 1.258 . S
O51 Mn36 2.162 . S
O51 C39 1.281 . S
O52 Mn36 2.297 . S
O52 C39 1.236 . S
N53 Mn37 2.282 . S
N53 C54 1.328 . S
N53 C58 1.318 . S
C54 N53 1.328 . S
C54 C55 1.457 . S
C54 H59 0.929 . S
C55 C54 1.457 . S
C55 C56 1.291 . S
C55 H68 0.931 . S
C56 C55 1.291 . S
C56 C57 1.373 . S
C56 H69 0.929 . S
C57 C56 1.373 . S
C57 C58 1.396 . S
C57 C64 1.403 . S
C58 C48 1.476 . S
C58 N53 1.318 . S
C58 C57 1.396 . S
H59 C54 0.929 . S
O60 Mn36 2.385 . S
O60 C38 1.234 . S
O61 Mn36 2.209 . S
O61 Mn37 2.215 . S
O61 C38 1.283 . S
O62 Mn36 2.094 . S
O62 C40 1.240 . S
O63 Mn37 2.117 . S
O63 C40 1.264 . S
C64 C57 1.403 . S
C64 C65 1.399 1_556 S
C64 H70 0.929 1_556 S
C65 C45 1.449 . S
C65 C64 1.399 1_554 S
C65 H71 0.930 . S
H66 C46 0.931 . S
H67 C47 0.930 . S
H68 C55 0.931 . S
H69 C56 0.929 . S
H70 C64 0.929 1_554 S
H71 C65 0.930 . S
Mn72 O77 2.095 . S
Mn72 O87 2.162 . S
Mn72 O88 2.297 . S
Mn72 O96 2.385 . S
Mn72 O97 2.209 . S
Mn72 O98 2.094 . S
Mn73 O78 2.121 . S
Mn73 N80 2.257 . S
Mn73 N89 2.282 . S
Mn73 O97 2.215 . S
Mn73 O99 2.117 . S
C74 O96 1.234 . S
C74 O97 1.283 . S
C75 O87 1.281 . S
C75 O88 1.236 . S
C76 O98 1.240 . S
C76 O99 1.264 . S
O77 Mn72 2.095 . S
O77 C86 1.250 . S
O78 Mn73 2.121 . S
O78 C86 1.258 . S
C79 N80 1.326 . S
C79 C83 1.460 1_545 S
C79 H85 0.929 . S
N80 Mn73 2.257 . S
N80 C79 1.326 . S
N80 C84 1.362 . S
C81 C82 1.258 . S
C81 C84 1.431 1_565 S
C81 C101 1.449 . S
C82 C81 1.258 . S
C82 C83 1.477 . S
C82 H102 0.931 . S
C83 C79 1.460 1_565 S
C83 C82 1.477 . S
C83 H103 0.930 . S
C84 N80 1.362 . S
C84 C81 1.431 1_545 S
C84 C94 1.476 . S
H85 C79 0.929 . S
C86 O77 1.250 . S
C86 O78 1.258 . S
O87 Mn72 2.162 . S
O87 C75 1.281 . S
O88 Mn72 2.297 . S
O88 C75 1.236 . S
N89 Mn73 2.282 . S
N89 C90 1.328 . S
N89 C94 1.318 . S
C90 N89 1.328 . S
C90 C91 1.457 1_554 S
C90 H95 0.929 . S
C91 C90 1.457 1_556 S
C91 C92 1.291 . S
C91 H104 0.931 . S
C92 C91 1.291 . S
C92 C93 1.373 1_556 S
C92 H105 0.929 . S
C93 C92 1.373 1_554 S
C93 C94 1.396 . S
C93 C100 1.403 1_554 S
C94 C84 1.476 . S
C94 N89 1.318 . S
C94 C93 1.396 . S
H95 C90 0.929 . S
O96 Mn72 2.385 . S
O96 C74 1.234 . S
O97 Mn72 2.209 . S
O97 Mn73 2.215 . S
O97 C74 1.283 . S
O98 Mn72 2.094 . S
O98 C76 1.240 . S
O99 Mn73 2.117 . S
O99 C76 1.264 . S
C100 C93 1.403 1_556 S
C100 C101 1.399 1_546 S
C100 H106 0.929 1_545 S
C101 C81 1.449 . S
C101 C100 1.399 1_564 S
C101 H107 0.930 . S
H102 C82 0.931 . S
H103 C83 0.930 . S
H104 C91 0.931 . S
H105 C92 0.929 . S
H106 C100 0.929 1_565 S
H107 C101 0.930 . S
Mn108 O113 2.095 . S
Mn108 O123 2.162 . S
Mn108 O124 2.297 . S
Mn108 O132 2.385 . S
Mn108 O133 2.209 . S
Mn108 O134 2.094 . S
Mn109 O114 2.121 . S
Mn109 N116 2.257 . S
Mn109 N125 2.282 . S
Mn109 O133 2.215 . S
Mn109 O135 2.117 . S
C110 O132 1.234 . S
C110 O133 1.283 . S
C111 O123 1.281 . S
C111 O124 1.236 . S
C112 O134 1.240 . S
C112 O135 1.264 . S
O113 Mn108 2.095 . S
O113 C122 1.250 . S
O114 Mn109 2.121 . S
O114 C122 1.258 . S
C115 N116 1.326 . S
C115 C119 1.460 . S
C115 H121 0.929 . S
N116 Mn109 2.257 . S
N116 C115 1.326 . S
N116 C120 1.362 . S
C117 C118 1.258 . S
C117 C120 1.431 . S
C117 C137 1.449 . S
C118 C117 1.258 . S
C118 C119 1.477 . S
C118 H138 0.931 . S
C119 C115 1.460 . S
C119 C118 1.477 . S
C119 H139 0.930 . S
C120 N116 1.362 . S
C120 C117 1.431 . S
C120 C130 1.476 . S
H121 C115 0.929 . S
C122 O113 1.250 . S
C122 O114 1.258 . S
O123 Mn108 2.162 . S
O123 C111 1.281 . S
O124 Mn108 2.297 . S
O124 C111 1.236 . S
N125 Mn109 2.282 . S
N125 C126 1.328 . S
N125 C130 1.318 . S
C126 N125 1.328 . S
C126 C127 1.457 1_565 S
C126 H131 0.929 . S
C127 C126 1.457 1_545 S
C127 C128 1.291 . S
C127 H140 0.931 . S
C128 C127 1.291 . S
C128 C129 1.373 1_545 S
C128 H141 0.929 . S
C129 C128 1.373 1_565 S
C129 C130 1.396 . S
C129 C136 1.403 1_565 S
C130 C120 1.476 . S
C130 N125 1.318 . S
C130 C129 1.396 . S
H131 C126 0.929 . S
O132 Mn108 2.385 . S
O132 C110 1.234 . S
O133 Mn108 2.209 . S
O133 Mn109 2.215 . S
O133 C110 1.283 . S
O134 Mn108 2.094 . S
O134 C112 1.240 . S
O135 Mn109 2.117 . S
O135 C112 1.264 . S
C136 C129 1.403 1_545 S
C136 C137 1.399 1_545 S
C136 H142 0.929 . S
C137 C117 1.449 . S
C137 C136 1.399 1_565 S
C137 H143 0.930 . S
H138 C118 0.931 . S
H139 C119 0.930 . S
H140 C127 0.931 . S
H141 C128 0.929 . S
H142 C136 0.929 . S
H143 C137 0.930 . S
Mn144 O149 2.095 . S
Mn144 O159 2.162 . S
Mn144 O160 2.297 . S
Mn144 O168 2.385 . S
Mn144 O169 2.209 . S
Mn144 O170 2.094 . S
Mn145 O150 2.121 . S
Mn145 N152 2.257 . S
Mn145 N161 2.282 . S
Mn145 O169 2.215 . S
Mn145 O171 2.117 . S
C146 O168 1.234 . S
C146 O169 1.283 . S
C147 O159 1.281 . S
C147 O160 1.236 . S
C148 O170 1.240 . S
C148 O171 1.264 . S
O149 Mn144 2.095 . S
O149 C158 1.250 . S
O150 Mn145 2.121 . S
O150 C158 1.258 . S
C151 N152 1.326 . S
C151 C155 1.460 . S
C151 H157 0.929 . S
N152 Mn145 2.257 . S
N152 C151 1.326 . S
N152 C156 1.362 . S
C153 C154 1.258 . S
C153 C156 1.431 . S
C153 C173 1.449 . S
C154 C153 1.258 . S
C154 C155 1.477 . S
C154 H174 0.931 . S
C155 C151 1.460 . S
C155 C154 1.477 . S
C155 H175 0.930 . S
C156 N152 1.362 . S
C156 C153 1.431 . S
C156 C166 1.476 . S
H157 C151 0.929 . S
C158 O149 1.250 . S
C158 O150 1.258 . S
O159 Mn144 2.162 . S
O159 C147 1.281 . S
O160 Mn144 2.297 . S
O160 C147 1.236 . S
N161 Mn145 2.282 . S
N161 C162 1.328 . S
N161 C166 1.318 . S
C162 N161 1.328 . S
C162 C163 1.457 1_554 S
C162 H167 0.929 . S
C163 C162 1.457 1_556 S
C163 C164 1.291 . S
C163 H176 0.931 . S
C164 C163 1.291 . S
C164 C165 1.373 1_556 S
C164 H177 0.929 . S
C165 C164 1.373 1_554 S
C165 C166 1.396 . S
C165 C172 1.403 1_554 S
C166 C156 1.476 . S
C166 N161 1.318 . S
C166 C165 1.396 . S
H167 C162 0.929 . S
O168 Mn144 2.385 . S
O168 C146 1.234 . S
O169 Mn144 2.209 . S
O169 Mn145 2.215 . S
O169 C146 1.283 . S
O170 Mn144 2.094 . S
O170 C148 1.240 . S
O171 Mn145 2.117 . S
O171 C148 1.264 . S
C172 C165 1.403 1_556 S
C172 C173 1.399 1_556 S
C172 H178 0.929 . S
C173 C153 1.449 . S
C173 C172 1.399 1_554 S
C173 H179 0.930 . S
H174 C154 0.931 . S
H175 C155 0.930 . S
H176 C163 0.931 . S
H177 C164 0.929 . S
H178 C172 0.929 . S
H179 C173 0.930 . S
Mn180 O185 2.095 . S
Mn180 O195 2.162 . S
Mn180 O196 2.297 . S
Mn180 O204 2.385 . S
Mn180 O205 2.209 . S
Mn180 O206 2.094 . S
Mn181 O186 2.121 . S
Mn181 N188 2.257 . S
Mn181 N197 2.282 . S
Mn181 O205 2.215 . S
Mn181 O207 2.117 . S
C182 O204 1.234 . S
C182 O205 1.283 . S
C183 O195 1.281 . S
C183 O196 1.236 . S
C184 O206 1.240 . S
C184 O207 1.264 . S
O185 Mn180 2.095 . S
O185 C194 1.250 . S
O186 Mn181 2.121 . S
O186 C194 1.258 . S
C187 N188 1.326 . S
C187 C191 1.460 . S
C187 H193 0.929 . S
N188 Mn181 2.257 . S
N188 C187 1.326 . S
N188 C192 1.362 . S
C189 C190 1.258 . S
C189 C192 1.431 . S
C189 C209 1.449 . S
C190 C189 1.258 . S
C190 C191 1.477 . S
C190 H210 0.931 . S
C191 C187 1.460 . S
C191 C190 1.477 . S
C191 H211 0.930 . S
C192 N188 1.362 . S
C192 C189 1.431 . S
C192 C202 1.476 . S
H193 C187 0.929 . S
C194 O185 1.250 . S
C194 O186 1.258 . S
O195 Mn180 2.162 . S
O195 C183 1.281 . S
O196 Mn180 2.297 . S
O196 C183 1.236 . S
N197 Mn181 2.282 . S
N197 C198 1.328 . S
N197 C202 1.318 . S
C198 N197 1.328 . S
C198 C199 1.457 . S
C198 H203 0.929 . S
C199 C198 1.457 . S
C199 C200 1.291 . S
C199 H212 0.931 . S
C200 C199 1.291 . S
C200 C201 1.373 . S
C200 H213 0.929 . S
C201 C200 1.373 . S
C201 C202 1.396 . S
C201 C208 1.403 . S
C202 C192 1.476 . S
C202 N197 1.318 . S
C202 C201 1.396 . S
H203 C198 0.929 . S
O204 Mn180 2.385 . S
O204 C182 1.234 . S
O205 Mn180 2.209 . S
O205 Mn181 2.215 . S
O205 C182 1.283 . S
O206 Mn180 2.094 . S
O206 C184 1.240 . S
O207 Mn181 2.117 . S
O207 C184 1.264 . S
C208 C201 1.403 . S
C208 C209 1.399 . S
C208 H214 0.929 . S
C209 C189 1.449 . S
C209 C208 1.399 . S
C209 H215 0.930 . S
H210 C190 0.931 . S
H211 C191 0.930 . S
H212 C199 0.931 . S
H213 C200 0.929 . S
H214 C208 0.929 . S
H215 C209 0.930 . S
Mn216 O221 2.095 . S
Mn216 O231 2.162 . S
Mn216 O232 2.297 . S
Mn216 O240 2.385 . S
Mn216 O241 2.209 . S
Mn216 O242 2.094 . S
Mn217 O222 2.121 . S
Mn217 N224 2.257 . S
Mn217 N233 2.282 . S
Mn217 O241 2.215 . S
Mn217 O243 2.117 . S
C218 O240 1.234 . S
C218 O241 1.283 . S
C219 O231 1.281 . S
C219 O232 1.236 . S
C220 O242 1.240 . S
C220 O243 1.264 . S
O221 Mn216 2.095 . S
O221 C230 1.250 . S
O222 Mn217 2.121 . S
O222 C230 1.258 . S
C223 N224 1.326 . S
C223 C227 1.460 1_556 S
C223 H229 0.929 . S
N224 Mn217 2.257 . S
N224 C223 1.326 . S
N224 C228 1.362 . S
C225 C226 1.258 . S
C225 C228 1.431 1_554 S
C225 C245 1.449 . S
C226 C225 1.258 . S
C226 C227 1.477 . S
C226 H246 0.931 . S
C227 C223 1.460 1_554 S
C227 C226 1.477 . S
C227 H247 0.930 . S
C228 N224 1.362 . S
C228 C225 1.431 1_556 S
C228 C238 1.476 . S
H229 C223 0.929 . S
C230 O221 1.250 . S
C230 O222 1.258 . S
O231 Mn216 2.162 . S
O231 C219 1.281 . S
O232 Mn216 2.297 . S
O232 C219 1.236 . S
N233 Mn217 2.282 . S
N233 C234 1.328 . S
N233 C238 1.318 . S
C234 N233 1.328 . S
C234 C235 1.457 1_565 S
C234 H239 0.929 . S
C235 C234 1.457 1_545 S
C235 C236 1.291 . S
C235 H248 0.931 . S
C236 C235 1.291 . S
C236 C237 1.373 1_545 S
C236 H249 0.929 . S
C237 C236 1.373 1_565 S
C237 C238 1.396 . S
C237 C244 1.403 1_565 S
C238 C228 1.476 . S
C238 N233 1.318 . S
C238 C237 1.396 . S
H239 C234 0.929 . S
O240 Mn216 2.385 . S
O240 C218 1.234 . S
O241 Mn216 2.209 . S
O241 Mn217 2.215 . S
O241 C218 1.283 . S
O242 Mn216 2.094 . S
O242 C220 1.240 . S
O243 Mn217 2.117 . S
O243 C220 1.264 . S
C244 C237 1.403 1_545 S
C244 C245 1.399 1_546 S
C244 H250 0.929 1_556 S
C245 C225 1.449 . S
C245 C244 1.399 1_564 S
C245 H251 0.930 . S
H246 C226 0.931 . S
H247 C227 0.930 . S
H248 C235 0.931 . S
H249 C236 0.929 . S
H250 C244 0.929 1_554 S
H251 C245 0.930 . S
Mn252 O257 2.095 . S
Mn252 O267 2.162 . S
Mn252 O268 2.297 . S
Mn252 O276 2.385 . S
Mn252 O277 2.209 . S
Mn252 O278 2.094 . S
Mn253 O258 2.121 . S
Mn253 N260 2.257 . S
Mn253 N269 2.282 . S
Mn253 O277 2.215 . S
Mn253 O279 2.117 . S
C254 O276 1.234 . S
C254 O277 1.283 . S
C255 O267 1.281 . S
C255 O268 1.236 . S
C256 O278 1.240 . S
C256 O279 1.264 . S
O257 Mn252 2.095 . S
O257 C266 1.250 . S
O258 Mn253 2.121 . S
O258 C266 1.258 . S
C259 N260 1.326 . S
C259 C263 1.460 . S
C259 H265 0.929 . S
N260 Mn253 2.257 . S
N260 C259 1.326 . S
N260 C264 1.362 . S
C261 C262 1.258 . S
C261 C264 1.431 . S
C261 C281 1.449 . S
C262 C261 1.258 . S
C262 C263 1.477 . S
C262 H282 0.931 . S
C263 C259 1.460 . S
C263 C262 1.477 . S
C263 H283 0.930 . S
C264 N260 1.362 . S
C264 C261 1.431 . S
C264 C274 1.476 . S
H265 C259 0.929 . S
C266 O257 1.250 . S
C266 O258 1.258 . S
O267 Mn252 2.162 . S
O267 C255 1.281 . S
O268 Mn252 2.297 . S
O268 C255 1.236 . S
N269 Mn253 2.282 . S
N269 C270 1.328 . S
N269 C274 1.318 . S
C270 N269 1.328 . S
C270 C271 1.457 . S
C270 H275 0.929 . S
C271 C270 1.457 . S
C271 C272 1.291 . S
C271 H284 0.931 . S
C272 C271 1.291 . S
C272 C273 1.373 . S
C272 H285 0.929 . S
C273 C272 1.373 . S
C273 C274 1.396 . S
C273 C280 1.403 . S
C274 C264 1.476 . S
C274 N269 1.318 . S
C274 C273 1.396 . S
H275 C270 0.929 . S
O276 Mn252 2.385 . S
O276 C254 1.234 . S
O277 Mn252 2.209 . S
O277 Mn253 2.215 . S
O277 C254 1.283 . S
O278 Mn252 2.094 . S
O278 C256 1.240 . S
O279 Mn253 2.117 . S
O279 C256 1.264 . S
C280 C273 1.403 . S
C280 C281 1.399 . S
C280 H286 0.929 . S
C281 C261 1.449 . S
C281 C280 1.399 . S
C281 H287 0.930 . S
H282 C262 0.931 . S
H283 C263 0.930 . S
H284 C271 0.931 . S
H285 C272 0.929 . S
H286 C280 0.929 . S
H287 C281 0.930 . S
H288 C306 0.951 . S
H289 C308 0.951 . S
H290 C310 0.950 . S
H291 C311 0.950 . S
H292 C313 0.950 . S
H293 C316 0.950 . S
H294 C317 0.950 . S
H295 C319 0.950 . S
H296 C320 0.950 . S
H297 C321 0.951 . S
H298 C323 0.951 . S
H299 C325 0.950 . S
H300 C326 0.950 . S
H301 C328 0.950 . S
H302 C331 0.950 . S
H303 C332 0.950 . S
H304 C334 0.950 . S
H305 C335 0.950 . S
C306 H288 0.951 . S
C306 C307 1.366 . S
C306 C308 1.388 . S
C307 C306 1.366 . S
C307 C311 1.385 . S
C308 H289 0.951 . S
C308 C306 1.388 . S
C308 C309 1.366 . S
C309 C308 1.366 . S
C309 C310 1.414 . S
C309 C312 1.499 . S
C310 H290 0.950 . S
C310 C309 1.414 . S
C310 C311 1.374 . S
C311 H291 0.950 . S
C311 C307 1.385 . S
C311 C310 1.374 . S
C312 C309 1.499 . S
C312 C313 1.373 . S
C312 C314 1.389 . S
C313 H292 0.950 . S
C313 C312 1.373 . S
C313 C329 1.377 . S
C314 C312 1.389 . S
C314 C315 1.524 . S
C314 C328 1.377 . S
C315 C314 1.524 . S
C315 C316 1.397 . S
C315 C320 1.363 . S
C316 H293 0.950 . S
C316 C315 1.397 . S
C316 C317 1.334 . S
C317 H294 0.950 . S
C317 C316 1.334 . S
C317 C318 1.287 . S
C318 C317 1.287 . S
C318 C319 1.524 . S
C318 H337 0.913 . S
C319 H295 0.950 . S
C319 C318 1.524 . S
C319 C320 1.415 . S
C320 H296 0.950 . S
C320 C315 1.363 . S
C320 C319 1.415 . S
C321 H297 0.951 . S
C321 C322 1.366 . S
C321 C323 1.388 . S
C322 C321 1.366 . S
C322 C326 1.385 . S
C323 H298 0.951 . S
C323 C321 1.388 . S
C323 C324 1.366 . S
C324 C323 1.366 . S
C324 C325 1.414 . S
C324 C327 1.499 . S
C325 H299 0.950 . S
C325 C324 1.414 . S
C325 C326 1.374 . S
C326 H300 0.950 . S
C326 C322 1.385 . S
C326 C325 1.374 . S
C327 C324 1.499 . S
C327 C328 1.373 . S
C327 C329 1.389 . S
C328 H301 0.950 . S
C328 C314 1.377 . S
C328 C327 1.373 . S
C329 C313 1.377 . S
C329 C327 1.389 . S
C329 C330 1.524 . S
C330 C329 1.524 . S
C330 C331 1.397 . S
C330 C335 1.363 . S
C331 H302 0.950 . S
C331 C330 1.397 . S
C331 C332 1.334 . S
C332 H303 0.950 . S
C332 C331 1.334 . S
C332 C333 1.287 . S
C333 C332 1.287 . S
C333 C334 1.524 . S
C333 H336 0.999 . S
C334 H304 0.950 . S
C334 C333 1.524 . S
C334 C335 1.415 . S
C335 H305 0.950 . S
C335 C330 1.363 . S
C335 C334 1.415 . S
H336 C333 0.999 . S
H337 C318 0.913 . S
H338 C356 0.951 . S
H339 C358 0.951 . S
H340 C360 0.950 . S
H341 C361 0.950 . S
H342 C363 0.950 . S
H343 C366 0.950 . S
H344 C367 0.950 . S
H345 C369 0.950 . S
H346 C370 0.950 . S
H347 C371 0.951 . S
H348 C373 0.951 . S
H349 C375 0.950 . S
H350 C376 0.950 . S
H351 C378 0.950 . S
H352 C381 0.950 . S
H353 C382 0.950 . S
H354 C384 0.950 . S
H355 C385 0.950 . S
C356 H338 0.951 . S
C356 C357 1.366 . S
C356 C358 1.388 . S
C357 C356 1.366 . S
C357 C361 1.385 . S
C358 H339 0.951 . S
C358 C356 1.388 . S
C358 C359 1.366 . S
C359 C358 1.366 . S
C359 C360 1.414 . S
C359 C362 1.499 . S
C360 H340 0.950 . S
C360 C359 1.414 . S
C360 C361 1.374 . S
C361 H341 0.950 . S
C361 C357 1.385 . S
C361 C360 1.374 . S
C362 C359 1.499 . S
C362 C363 1.373 . S
C362 C364 1.389 . S
C363 H342 0.950 . S
C363 C362 1.373 . S
C363 C379 1.377 . S
C364 C362 1.389 . S
C364 C365 1.524 . S
C364 C378 1.377 . S
C365 C364 1.524 . S
C365 C366 1.397 . S
C365 C370 1.363 . S
C366 H343 0.950 . S
C366 C365 1.397 . S
C366 C367 1.334 . S
C367 H344 0.950 . S
C367 C366 1.334 . S
C367 C368 1.287 . S
C368 C367 1.287 . S
C368 C369 1.524 . S
C368 H387 0.913 . S
C369 H345 0.950 . S
C369 C368 1.524 . S
C369 C370 1.415 . S
C370 H346 0.950 . S
C370 C365 1.363 . S
C370 C369 1.415 . S
C371 H347 0.951 . S
C371 C372 1.366 . S
C371 C373 1.388 . S
C372 C371 1.366 . S
C372 C376 1.385 . S
C373 H348 0.951 . S
C373 C371 1.388 . S
C373 C374 1.366 . S
C374 C373 1.366 . S
C374 C375 1.414 . S
C374 C377 1.499 . S
C375 H349 0.950 . S
C375 C374 1.414 . S
C375 C376 1.374 . S
C376 H350 0.950 . S
C376 C372 1.385 . S
C376 C375 1.374 . S
C377 C374 1.499 . S
C377 C378 1.373 . S
C377 C379 1.389 . S
C378 H351 0.950 . S
C378 C364 1.377 . S
C378 C377 1.373 . S
C379 C363 1.377 . S
C379 C377 1.389 . S
C379 C380 1.524 . S
C380 C379 1.524 . S
C380 C381 1.397 . S
C380 C385 1.363 . S
C381 H352 0.950 . S
C381 C380 1.397 . S
C381 C382 1.334 . S
C382 H353 0.950 . S
C382 C381 1.334 . S
C382 C383 1.287 . S
C383 C382 1.287 . S
C383 C384 1.524 . S
C383 H386 0.999 . S
C384 H354 0.950 . S
C384 C383 1.524 . S
C384 C385 1.415 . S
C385 H355 0.950 . S
C385 C380 1.363 . S
C385 C384 1.415 . S
H386 C383 0.999 . S
H387 C368 0.913 . S
H388 C406 0.951 . S
H389 C408 0.951 . S
H390 C410 0.950 . S
H391 C411 0.950 . S
H392 C413 0.950 . S
H393 C416 0.950 . S
H394 C417 0.950 . S
H395 C419 0.950 . S
H396 C420 0.950 . S
H397 C421 0.951 . S
H398 C423 0.951 . S
H399 C425 0.950 . S
H400 C426 0.950 . S
H401 C428 0.950 . S
H402 C431 0.950 . S
H403 C432 0.950 . S
H404 C434 0.950 . S
H405 C435 0.950 . S
C406 H388 0.951 . S
C406 C407 1.366 . S
C406 C408 1.388 . S
C407 C406 1.366 . S
C407 C411 1.385 . S
C408 H389 0.951 . S
C408 C406 1.388 . S
C408 C409 1.366 . S
C409 C408 1.366 . S
C409 C410 1.414 . S
C409 C412 1.499 . S
C410 H390 0.950 . S
C410 C409 1.414 . S
C410 C411 1.374 . S
C411 H391 0.950 . S
C411 C407 1.385 . S
C411 C410 1.374 . S
C412 C409 1.499 . S
C412 C413 1.373 . S
C412 C414 1.389 1_554 S
C413 H392 0.950 . S
C413 C412 1.373 . S
C413 C429 1.377 1_545 S
C414 C412 1.389 1_556 S
C414 C415 1.524 . S
C414 C428 1.377 . S
C415 C414 1.524 . S
C415 C416 1.397 . S
C415 C420 1.363 . S
C416 H393 0.950 . S
C416 C415 1.397 . S
C416 C417 1.334 . S
C417 H394 0.950 . S
C417 C416 1.334 . S
C417 C418 1.287 . S
C418 C417 1.287 . S
C418 C419 1.524 . S
C418 H437 0.913 . S
C419 H395 0.950 . S
C419 C418 1.524 . S
C419 C420 1.415 . S
C420 H396 0.950 . S
C420 C415 1.363 . S
C420 C419 1.415 . S
C421 H397 0.951 . S
C421 C422 1.366 . S
C421 C423 1.388 . S
C422 C421 1.366 . S
C422 C426 1.385 . S
C423 H398 0.951 . S
C423 C421 1.388 . S
C423 C424 1.366 . S
C424 C423 1.366 . S
C424 C425 1.414 . S
C424 C427 1.499 . S
C425 H399 0.950 . S
C425 C424 1.414 . S
C425 C426 1.374 . S
C426 H400 0.950 . S
C426 C422 1.385 . S
C426 C425 1.374 . S
C427 C424 1.499 . S
C427 C428 1.373 1_565 S
C427 C429 1.389 1_556 S
C428 H401 0.950 . S
C428 C414 1.377 . S
C428 C427 1.373 1_545 S
C429 C413 1.377 1_565 S
C429 C427 1.389 1_554 S
C429 C430 1.524 . S
C430 C429 1.524 . S
C430 C431 1.397 . S
C430 C435 1.363 . S
C431 H402 0.950 . S
C431 C430 1.397 . S
C431 C432 1.334 . S
C432 H403 0.950 . S
C432 C431 1.334 . S
C432 C433 1.287 . S
C433 C432 1.287 . S
C433 C434 1.524 . S
C433 H436 0.999 . S
C434 H404 0.950 . S
C434 C433 1.524 . S
C434 C435 1.415 . S
C435 H405 0.950 . S
C435 C430 1.363 . S
C435 C434 1.415 . S
H436 C433 0.999 . S
H437 C418 0.913 . S
H438 C456 0.951 . S
H439 C458 0.951 . S
H440 C460 0.950 . S
H441 C461 0.950 . S
H442 C463 0.950 . S
H443 C466 0.950 . S
H444 C467 0.950 . S
H445 C469 0.950 . S
H446 C470 0.950 . S
H447 C471 0.951 . S
H448 C473 0.951 . S
H449 C475 0.950 . S
H450 C476 0.950 . S
H451 C478 0.950 . S
H452 C481 0.950 . S
H453 C482 0.950 . S
H454 C484 0.950 . S
H455 C485 0.950 . S
C456 H438 0.951 . S
C456 C457 1.366 . S
C456 C458 1.388 . S
C457 C456 1.366 . S
C457 C461 1.385 . S
C458 H439 0.951 . S
C458 C456 1.388 . S
C458 C459 1.366 . S
C459 C458 1.366 . S
C459 C460 1.414 . S
C459 C462 1.499 . S
C460 H440 0.950 . S
C460 C459 1.414 . S
C460 C461 1.374 . S
C461 H441 0.950 . S
C461 C457 1.385 . S
C461 C460 1.374 . S
C462 C459 1.499 . S
C462 C463 1.373 1_655 S
C462 C464 1.389 . S
C463 H442 0.950 . S
C463 C462 1.373 1_455 S
C463 C479 1.377 . S
C464 C462 1.389 . S
C464 C465 1.524 . S
C464 C478 1.377 . S
C465 C464 1.524 . S
C465 C466 1.397 . S
C465 C470 1.363 . S
C466 H443 0.950 . S
C466 C465 1.397 . S
C466 C467 1.334 . S
C467 H444 0.950 . S
C467 C466 1.334 . S
C467 C468 1.287 . S
C468 C467 1.287 . S
C468 C469 1.524 . S
C468 H487 0.913 . S
C469 H445 0.950 . S
C469 C468 1.524 . S
C469 C470 1.415 . S
C470 H446 0.950 . S
C470 C465 1.363 . S
C470 C469 1.415 . S
C471 H447 0.951 . S
C471 C472 1.366 . S
C471 C473 1.388 . S
C472 C471 1.366 . S
C472 C476 1.385 . S
C473 H448 0.951 . S
C473 C471 1.388 . S
C473 C474 1.366 . S
C474 C473 1.366 . S
C474 C475 1.414 . S
C474 C477 1.499 . S
C475 H449 0.950 . S
C475 C474 1.414 . S
C475 C476 1.374 . S
C476 H450 0.950 . S
C476 C472 1.385 . S
C476 C475 1.374 . S
C477 C474 1.499 . S
C477 C478 1.373 1_455 S
C477 C479 1.389 . S
C478 H451 0.950 . S
C478 C464 1.377 . S
C478 C477 1.373 1_655 S
C479 C463 1.377 . S
C479 C477 1.389 . S
C479 C480 1.524 . S
C480 C479 1.524 . S
C480 C481 1.397 . S
C480 C485 1.363 . S
C481 H452 0.950 . S
C481 C480 1.397 . S
C481 C482 1.334 . S
C482 H453 0.950 . S
C482 C481 1.334 . S
C482 C483 1.287 . S
C483 C482 1.287 . S
C483 C484 1.524 . S
C483 H486 0.999 . S
C484 H454 0.950 . S
C484 C483 1.524 . S
C484 C485 1.415 . S
C485 H455 0.950 . S
C485 C480 1.363 . S
C485 C484 1.415 . S
H486 C483 0.999 . S
H487 C468 0.913 . S
H488 C506 0.951 . S
H489 C508 0.951 . S
H490 C510 0.950 . S
H491 C511 0.950 . S
H492 C513 0.950 . S
H493 C516 0.950 . S
H494 C517 0.950 . S
H495 C519 0.950 . S
H496 C520 0.950 . S
H497 C521 0.951 . S
H498 C523 0.951 . S
H499 C525 0.950 . S
H500 C526 0.950 . S
H501 C528 0.950 . S
H502 C531 0.950 . S
H503 C532 0.950 . S
H504 C534 0.950 . S
H505 C535 0.950 . S
C506 H488 0.951 . S
C506 C507 1.366 . S
C506 C508 1.388 . S
C507 C506 1.366 . S
C507 C511 1.385 . S
C508 H489 0.951 . S
C508 C506 1.388 . S
C508 C509 1.366 . S
C509 C508 1.366 . S
C509 C510 1.414 . S
C509 C512 1.499 . S
C510 H490 0.950 . S
C510 C509 1.414 . S
C510 C511 1.374 . S
C511 H491 0.950 . S
C511 C507 1.385 . S
C511 C510 1.374 . S
C512 C509 1.499 . S
C512 C513 1.373 . S
C512 C514 1.389 1_565 S
C513 H492 0.950 . S
C513 C512 1.373 . S
C513 C529 1.377 1_565 S
C514 C512 1.389 1_545 S
C514 C515 1.524 . S
C514 C528 1.377 . S
C515 C514 1.524 . S
C515 C516 1.397 . S
C515 C520 1.363 . S
C516 H493 0.950 . S
C516 C515 1.397 . S
C516 C517 1.334 . S
C517 H494 0.950 . S
C517 C516 1.334 . S
C517 C518 1.287 . S
C518 C517 1.287 . S
C518 C519 1.524 . S
C518 H537 0.913 . S
C519 H495 0.950 . S
C519 C518 1.524 . S
C519 C520 1.415 . S
C520 H496 0.950 . S
C520 C515 1.363 . S
C520 C519 1.415 . S
C521 H497 0.951 . S
C521 C522 1.366 . S
C521 C523 1.388 . S
C522 C521 1.366 . S
C522 C526 1.385 . S
C523 H498 0.951 . S
C523 C521 1.388 . S
C523 C524 1.366 . S
C524 C523 1.366 . S
C524 C525 1.414 . S
C524 C527 1.499 . S
C525 H499 0.950 . S
C525 C524 1.414 . S
C525 C526 1.374 . S
C526 H500 0.950 . S
C526 C522 1.385 . S
C526 C525 1.374 . S
C527 C524 1.499 . S
C527 C528 1.373 . S
C527 C529 1.389 . S
C528 H501 0.950 . S
C528 C514 1.377 . S
C528 C527 1.373 . S
C529 C513 1.377 1_545 S
C529 C527 1.389 . S
C529 C530 1.524 1_545 S
C530 C529 1.524 1_565 S
C530 C531 1.397 . S
C530 C535 1.363 . S
C531 H502 0.950 . S
C531 C530 1.397 . S
C531 C532 1.334 . S
C532 H503 0.950 . S
C532 C531 1.334 . S
C532 C533 1.287 . S
C533 C532 1.287 . S
C533 C534 1.524 . S
C533 H536 0.999 . S
C534 H504 0.950 . S
C534 C533 1.524 . S
C534 C535 1.415 . S
C535 H505 0.950 . S
C535 C530 1.363 . S
C535 C534 1.415 . S
H536 C533 0.999 . S
H537 C518 0.913 . S
H538 C556 0.951 . S
H539 C558 0.951 . S
H540 C560 0.950 . S
H541 C561 0.950 . S
H542 C563 0.950 . S
H543 C566 0.939 1_455 S
H544 C567 0.950 1_455 S
H545 C569 0.950 . S
H546 C570 0.950 . S
H547 C571 0.951 . S
H548 C573 0.951 . S
H549 C575 0.950 . S
H550 C576 0.950 . S
H551 C578 0.950 . S
H552 C581 0.939 1_655 S
H553 C582 0.950 1_655 S
H554 C584 0.950 . S
H555 C585 0.950 . S
C556 H538 0.951 . S
C556 C557 1.366 . S
C556 C558 1.388 . S
C557 C556 1.366 . S
C557 C561 1.385 . S
C558 H539 0.951 . S
C558 C556 1.388 . S
C558 C559 1.366 . S
C559 C558 1.366 . S
C559 C560 1.414 . S
C559 C562 1.499 . S
C560 H540 0.950 . S
C560 C559 1.414 . S
C560 C561 1.374 . S
C561 H541 0.950 . S
C561 C557 1.385 . S
C561 C560 1.374 . S
C562 C559 1.499 . S
C562 C563 1.373 1_556 S
C562 C564 1.389 . S
C563 H542 0.950 . S
C563 C562 1.373 1_554 S
C563 C579 1.377 1_655 S
C564 C562 1.389 . S
C564 C565 1.524 . S
C564 C578 1.377 1_655 S
C565 C564 1.524 . S
C565 C566 1.408 . S
C565 C570 1.363 . S
C566 H543 0.939 1_655 S
C566 C565 1.408 . S
C566 C567 1.334 . S
C567 H544 0.950 1_655 S
C567 C566 1.334 . S
C567 C568 1.287 . S
C568 C567 1.287 . S
C568 C569 1.524 . S
C568 H587 0.913 . S
C569 H545 0.950 . S
C569 C568 1.524 . S
C569 C570 1.415 . S
C570 H546 0.950 . S
C570 C565 1.363 . S
C570 C569 1.415 . S
C571 H547 0.951 . S
C571 C572 1.366 . S
C571 C573 1.388 . S
C572 C571 1.366 . S
C572 C576 1.385 . S
C573 H548 0.951 . S
C573 C571 1.388 . S
C573 C574 1.366 . S
C574 C573 1.366 . S
C574 C575 1.414 . S
C574 C577 1.499 . S
C575 H549 0.950 . S
C575 C574 1.414 . S
C575 C576 1.374 . S
C576 H550 0.950 . S
C576 C572 1.385 . S
C576 C575 1.374 . S
C577 C574 1.499 . S
C577 C578 1.373 1_554 S
C577 C579 1.389 . S
C578 H551 0.950 . S
C578 C564 1.377 1_455 S
C578 C577 1.373 1_556 S
C579 C563 1.377 1_455 S
C579 C577 1.389 . S
C579 C580 1.524 . S
C580 C579 1.524 . S
C580 C581 1.408 . S
C580 C585 1.363 . S
C581 H552 0.939 1_455 S
C581 C580 1.408 . S
C581 C582 1.334 . S
C582 H553 0.950 1_455 S
C582 C581 1.334 . S
C582 C583 1.287 . S
C583 C582 1.287 . S
C583 C584 1.524 . S
C583 H586 0.999 . S
C584 H554 0.950 . S
C584 C583 1.524 . S
C584 C585 1.415 . S
C585 H555 0.950 . S
C585 C580 1.363 . S
C585 C584 1.415 . S
H586 C583 0.999 . S
H587 C568 0.913 . S
H588 C606 0.951 . S
H589 C608 0.951 . S
H590 C610 0.950 . S
H591 C611 0.950 . S
H592 C613 0.950 . S
H593 C616 0.950 . S
H594 C617 0.950 . S
H595 C619 0.950 . S
H596 C620 0.950 . S
H597 C621 0.951 . S
H598 C623 0.951 . S
H599 C625 0.950 . S
H600 C626 0.950 . S
H601 C628 0.950 . S
H602 C631 0.950 . S
H603 C632 0.950 . S
H604 C634 0.950 . S
H605 C635 0.950 . S
C606 H588 0.951 . S
C606 C607 1.366 . S
C606 C608 1.388 . S
C607 C606 1.366 . S
C607 C611 1.385 . S
C608 H589 0.951 . S
C608 C606 1.388 . S
C608 C609 1.366 . S
C609 C608 1.366 . S
C609 C610 1.414 . S
C609 C612 1.499 . S
C610 H590 0.950 . S
C610 C609 1.414 . S
C610 C611 1.374 . S
C611 H591 0.950 . S
C611 C607 1.385 . S
C611 C610 1.374 . S
C612 C609 1.499 . S
C612 C613 1.373 . S
C612 C614 1.389 . S
C613 H592 0.950 . S
C613 C612 1.373 . S
C613 C629 1.377 . S
C614 C612 1.389 . S
C614 C615 1.524 . S
C614 C628 1.377 . S
C615 C614 1.524 . S
C615 C616 1.397 . S
C615 C620 1.363 . S
C616 H593 0.950 . S
C616 C615 1.397 . S
C616 C617 1.334 . S
C617 H594 0.950 . S
C617 C616 1.334 . S
C617 C618 1.287 . S
C618 C617 1.287 . S
C618 C619 1.524 . S
C618 H637 0.913 . S
C619 H595 0.950 . S
C619 C618 1.524 . S
C619 C620 1.415 . S
C620 H596 0.950 . S
C620 C615 1.363 . S
C620 C619 1.415 . S
C621 H597 0.951 . S
C621 C622 1.366 . S
C621 C623 1.388 . S
C622 C621 1.366 . S
C622 C626 1.385 . S
C623 H598 0.951 . S
C623 C621 1.388 . S
C623 C624 1.366 . S
C624 C623 1.366 . S
C624 C625 1.414 . S
C624 C627 1.499 . S
C625 H599 0.950 . S
C625 C624 1.414 . S
C625 C626 1.374 . S
C626 H600 0.950 . S
C626 C622 1.385 . S
C626 C625 1.374 . S
C627 C624 1.499 . S
C627 C628 1.373 . S
C627 C629 1.389 . S
C628 H601 0.950 . S
C628 C614 1.377 . S
C628 C627 1.373 . S
C629 C613 1.377 . S
C629 C627 1.389 . S
C629 C630 1.524 . S
C630 C629 1.524 . S
C630 C631 1.397 . S
C630 C635 1.363 . S
C631 H602 0.950 . S
C631 C630 1.397 . S
C631 C632 1.334 . S
C632 H603 0.950 . S
C632 C631 1.334 . S
C632 C633 1.287 . S
C633 C632 1.287 . S
C633 C634 1.524 . S
C633 H636 0.999 . S
C634 H604 0.950 . S
C634 C633 1.524 . S
C634 C635 1.415 . S
C635 H605 0.950 . S
C635 C630 1.363 . S
C635 C634 1.415 . S
H636 C633 0.999 . S
H637 C618 0.913 . S
H638 C656 0.951 . S
H639 C658 0.951 . S
H640 C660 0.950 . S
H641 C661 0.950 . S
H642 C663 0.950 . S
H643 C666 0.950 . S
H644 C667 0.950 . S
H645 C669 0.950 . S
H646 C670 0.950 . S
H647 C671 0.951 . S
H648 C673 0.951 . S
H649 C675 0.950 . S
H650 C676 0.950 . S
H651 C678 0.950 . S
H652 C681 0.950 . S
H653 C682 0.950 . S
H654 C684 0.950 . S
H655 C685 0.950 . S
C656 H638 0.951 . S
C656 C657 1.366 . S
C656 C658 1.388 . S
C657 C656 1.366 . S
C657 C661 1.385 . S
C658 H639 0.951 . S
C658 C656 1.388 . S
C658 C659 1.366 . S
C659 C658 1.366 . S
C659 C660 1.414 . S
C659 C662 1.499 . S
C660 H640 0.950 . S
C660 C659 1.414 . S
C660 C661 1.374 . S
C661 H641 0.950 . S
C661 C657 1.385 . S
C661 C660 1.374 . S
C662 C659 1.499 . S
C662 C663 1.373 . S
C662 C664 1.389 . S
C663 H642 0.950 . S
C663 C662 1.373 . S
C663 C679 1.377 . S
C664 C662 1.389 . S
C664 C665 1.524 . S
C664 C678 1.377 . S
C665 C664 1.524 . S
C665 C666 1.397 . S
C665 C670 1.363 . S
C666 H643 0.950 . S
C666 C665 1.397 . S
C666 C667 1.334 . S
C667 H644 0.950 . S
C667 C666 1.334 . S
C667 C668 1.287 . S
C668 C667 1.287 . S
C668 C669 1.524 . S
C668 H687 0.913 . S
C669 H645 0.950 . S
C669 C668 1.524 . S
C669 C670 1.415 . S
C670 H646 0.950 . S
C670 C665 1.363 . S
C670 C669 1.415 . S
C671 H647 0.951 . S
C671 C672 1.366 . S
C671 C673 1.388 . S
C672 C671 1.366 . S
C672 C676 1.385 . S
C673 H648 0.951 . S
C673 C671 1.388 . S
C673 C674 1.366 . S
C674 C673 1.366 . S
C674 C675 1.414 . S
C674 C677 1.499 . S
C675 H649 0.950 . S
C675 C674 1.414 . S
C675 C676 1.374 . S
C676 H650 0.950 . S
C676 C672 1.385 . S
C676 C675 1.374 . S
C677 C674 1.499 . S
C677 C678 1.373 . S
C677 C679 1.389 . S
C678 H651 0.950 . S
C678 C664 1.377 . S
C678 C677 1.373 . S
C679 C663 1.377 . S
C679 C677 1.389 . S
C679 C680 1.524 . S
C680 C679 1.524 . S
C680 C681 1.397 . S
C680 C685 1.363 . S
C681 H652 0.950 . S
C681 C680 1.397 . S
C681 C682 1.334 . S
C682 H653 0.950 . S
C682 C681 1.334 . S
C682 C683 1.287 . S
C683 C682 1.287 . S
C683 C684 1.524 . S
C683 H686 0.999 . S
C684 H654 0.950 . S
C684 C683 1.524 . S
C684 C685 1.415 . S
C685 H655 0.950 . S
C685 C680 1.363 . S
C685 C684 1.415 . S
H686 C683 0.999 . S
H687 C668 0.913 . S
H688 C706 0.951 . S
H689 C708 0.951 . S
H690 C710 0.950 . S
H691 C711 0.950 . S
H692 C713 0.950 . S
H693 C716 0.950 . S
H694 C717 0.950 . S
H695 C719 0.950 . S
H696 C720 0.950 . S
H697 C721 0.951 . S
H698 C723 0.951 . S
H699 C725 0.950 . S
H700 C726 0.950 . S
H701 C728 0.950 . S
H702 C731 0.950 . S
H703 C732 0.950 . S
H704 C734 0.950 . S
H705 C735 0.950 . S
C706 H688 0.951 . S
C706 C707 1.366 . S
C706 C708 1.388 . S
C707 C706 1.366 . S
C707 C711 1.385 . S
C708 H689 0.951 . S
C708 C706 1.388 . S
C708 C709 1.366 . S
C709 C708 1.366 . S
C709 C710 1.414 . S
C709 C712 1.499 . S
C710 H690 0.950 . S
C710 C709 1.414 . S
C710 C711 1.374 . S
C711 H691 0.950 . S
C711 C707 1.385 . S
C711 C710 1.374 . S
C712 C709 1.499 . S
C712 C713 1.373 . S
C712 C714 1.389 . S
C713 H692 0.950 . S
C713 C712 1.373 . S
C713 C729 1.377 . S
C714 C712 1.389 . S
C714 C715 1.524 . S
C714 C728 1.377 . S
C715 C714 1.524 . S
C715 C716 1.397 . S
C715 C720 1.363 . S
C716 H693 0.950 . S
C716 C715 1.397 . S
C716 C717 1.334 . S
C717 H694 0.950 . S
C717 C716 1.334 . S
C717 C718 1.287 . S
C718 C717 1.287 . S
C718 C719 1.524 . S
C718 H737 0.913 . S
C719 H695 0.950 . S
C719 C718 1.524 . S
C719 C720 1.415 . S
C720 H696 0.950 . S
C720 C715 1.363 . S
C720 C719 1.415 . S
C721 H697 0.951 . S
C721 C722 1.366 . S
C721 C723 1.388 . S
C722 C721 1.366 . S
C722 C726 1.385 . S
C723 H698 0.951 . S
C723 C721 1.388 . S
C723 C724 1.366 . S
C724 C723 1.366 . S
C724 C725 1.414 . S
C724 C727 1.499 . S
C725 H699 0.950 . S
C725 C724 1.414 . S
C725 C726 1.374 . S
C726 H700 0.950 . S
C726 C722 1.385 . S
C726 C725 1.374 . S
C727 C724 1.499 . S
C727 C728 1.373 . S
C727 C729 1.389 . S
C728 H701 0.950 . S
C728 C714 1.377 . S
C728 C727 1.373 . S
C729 C713 1.377 . S
C729 C727 1.389 . S
C729 C730 1.524 . S
C730 C729 1.524 . S
C730 C731 1.397 . S
C730 C735 1.363 . S
C731 H702 0.950 . S
C731 C730 1.397 . S
C731 C732 1.334 . S
C732 H703 0.950 . S
C732 C731 1.334 . S
C732 C733 1.287 . S
C733 C732 1.287 . S
C733 C734 1.524 . S
C733 H736 0.999 . S
C734 H704 0.950 . S
C734 C733 1.524 . S
C734 C735 1.415 . S
C735 H705 0.950 . S
C735 C730 1.363 . S
C735 C734 1.415 . S
H736 C733 0.999 . S
H737 C718 0.913 . S
H738 C756 0.951 . S
H739 C758 0.951 . S
H740 C760 0.950 . S
H741 C761 0.950 . S
H742 C763 0.950 . S
H743 C766 0.950 . S
H744 C767 0.950 . S
H745 C769 0.950 . S
H746 C770 0.950 . S
H747 C771 0.951 . S
H748 C773 0.951 . S
H749 C775 0.930 1_556 S
H750 C776 0.950 . S
H751 C778 0.950 1_554 S
H752 C781 0.950 . S
H753 C782 0.942 1_556 S
H754 C784 0.950 . S
H755 C785 0.950 . S
C756 H738 0.951 . S
C756 C757 1.366 . S
C756 C758 1.388 . S
C757 C756 1.366 . S
C757 C761 1.385 . S
C758 H739 0.951 . S
C758 C756 1.388 . S
C758 C759 1.366 . S
C759 C758 1.366 . S
C759 C760 1.414 . S
C759 C762 1.499 . S
C760 H740 0.950 . S
C760 C759 1.414 . S
C760 C761 1.374 . S
C761 H741 0.950 . S
C761 C757 1.385 . S
C761 C760 1.374 . S
C762 C759 1.499 . S
C762 C763 1.373 . S
C762 C764 1.389 . S
C763 H742 0.950 . S
C763 C762 1.373 . S
C763 C779 1.362 1_556 S
C764 C762 1.389 . S
C764 C765 1.524 . S
C764 C778 1.377 . S
C765 C764 1.524 . S
C765 C766 1.397 . S
C765 C770 1.363 . S
C766 H743 0.950 . S
C766 C765 1.397 . S
C766 C767 1.334 . S
C767 H744 0.950 . S
C767 C766 1.334 . S
C767 C768 1.287 . S
C768 C767 1.287 . S
C768 C769 1.524 . S
C768 H787 0.913 . S
C769 H745 0.950 . S
C769 C768 1.524 . S
C769 C770 1.415 . S
C770 H746 0.950 . S
C770 C765 1.363 . S
C770 C769 1.415 . S
C771 H747 0.951 . S
C771 C772 1.366 . S
C771 C773 1.388 . S
C772 C771 1.366 . S
C772 C776 1.385 . S
C773 H748 0.951 . S
C773 C771 1.388 . S
C773 C774 1.366 . S
C774 C773 1.366 . S
C774 C775 1.414 . S
C774 C777 1.499 . S
C775 H749 0.930 1_554 S
C775 C774 1.414 . S
C775 C776 1.374 . S
C776 H750 0.950 . S
C776 C772 1.385 . S
C776 C775 1.374 . S
C777 C774 1.499 . S
C777 C778 1.373 1_554 S
C777 C779 1.396 . S
C778 H751 0.950 1_556 S
C778 C764 1.377 . S
C778 C777 1.373 1_556 S
C779 C763 1.362 1_554 S
C779 C777 1.396 . S
C779 C780 1.530 . S
C780 C779 1.530 . S
C780 C781 1.397 1_554 S
C780 C785 1.363 . S
C781 H752 0.950 . S
C781 C780 1.397 1_556 S
C781 C782 1.329 1_556 S
C782 H753 0.942 1_554 S
C782 C781 1.329 1_554 S
C782 C783 1.302 . S
C783 C782 1.302 . S
C783 C784 1.524 . S
C783 H786 0.999 . S
C784 H754 0.950 . S
C784 C783 1.524 . S
C784 C785 1.415 . S
C785 H755 0.950 . S
C785 C780 1.363 . S
C785 C784 1.415 . S
H786 C783 0.999 . S
H787 C768 0.913 . S
H788 C806 0.951 . S
H789 C808 0.951 . S
H790 C810 0.950 . S
H791 C811 0.950 . S
H792 C813 0.950 . S
H793 C816 0.950 . S
H794 C817 0.950 . S
H795 C819 0.950 . S
H796 C820 0.950 . S
H797 C821 0.951 . S
H798 C823 0.951 . S
H799 C825 0.950 . S
H800 C826 0.950 . S
H801 C828 0.950 . S
H802 C831 0.950 1_565 S
H803 C832 0.956 . S
H804 C834 0.950 . S
H805 C835 0.950 . S
C806 H788 0.951 . S
C806 C807 1.366 . S
C806 C808 1.388 . S
C807 C806 1.366 . S
C807 C811 1.385 . S
C808 H789 0.951 . S
C808 C806 1.388 . S
C808 C809 1.366 . S
C809 C808 1.366 . S
C809 C810 1.414 . S
C809 C812 1.499 . S
C810 H790 0.950 . S
C810 C809 1.414 . S
C810 C811 1.374 . S
C811 H791 0.950 . S
C811 C807 1.385 . S
C811 C810 1.374 . S
C812 C809 1.499 . S
C812 C813 1.373 . S
C812 C814 1.389 1_565 S
C813 H792 0.950 . S
C813 C812 1.373 . S
C813 C829 1.377 1_565 S
C814 C812 1.389 1_545 S
C814 C815 1.521 1_545 S
C814 C828 1.377 . S
C815 C814 1.521 1_565 S
C815 C816 1.387 1_565 S
C815 C820 1.374 . S
C816 H793 0.950 . S
C816 C815 1.387 1_545 S
C816 C817 1.334 . S
C817 H794 0.950 . S
C817 C816 1.334 . S
C817 C818 1.285 1_545 S
C818 C817 1.285 1_565 S
C818 C819 1.526 . S
C818 H837 0.914 . S
C819 H795 0.950 . S
C819 C818 1.526 . S
C819 C820 1.415 . S
C820 H796 0.950 . S
C820 C815 1.374 . S
C820 C819 1.415 . S
C821 H797 0.951 . S
C821 C822 1.366 . S
C821 C823 1.388 . S
C822 C821 1.366 . S
C822 C826 1.385 . S
C823 H798 0.951 . S
C823 C821 1.388 . S
C823 C824 1.366 . S
C824 C823 1.366 . S
C824 C825 1.414 . S
C824 C827 1.499 . S
C825 H799 0.950 . S
C825 C824 1.414 . S
C825 C826 1.374 . S
C826 H800 0.950 . S
C826 C822 1.385 . S
C826 C825 1.374 . S
C827 C824 1.499 . S
C827 C828 1.373 . S
C827 C829 1.389 . S
C828 H801 0.950 . S
C828 C814 1.377 . S
C828 C827 1.373 . S
C829 C813 1.377 1_545 S
C829 C827 1.389 . S
C829 C830 1.524 . S
C830 C829 1.524 . S
C830 C831 1.397 . S
C830 C835 1.363 . S
C831 H802 0.950 1_545 S
C831 C830 1.397 . S
C831 C832 1.334 . S
C832 H803 0.956 . S
C832 C831 1.334 . S
C832 C833 1.287 . S
C833 C832 1.287 . S
C833 C834 1.524 . S
C833 H836 0.999 . S
C834 H804 0.950 . S
C834 C833 1.524 . S
C834 C835 1.415 . S
C835 H805 0.950 . S
C835 C830 1.363 . S
C835 C834 1.415 . S
H836 C833 0.999 . S
H837 C818 0.914 . S
H838 C856 0.951 . S
H839 C858 0.951 1_545 S
H840 C860 0.950 . S
H841 C861 0.950 . S
H842 C863 0.950 . S
H843 C866 0.950 1_465 S
H844 C867 0.954 1_565 S
H845 C869 0.950 . S
H846 C870 0.950 . S
H847 C871 0.951 . S
H848 C873 0.951 . S
H849 C875 0.950 . S
H850 C876 0.950 . S
H851 C878 0.950 . S
H852 C881 0.950 1_655 S
H853 C882 0.954 . S
H854 C884 0.950 . S
H855 C885 0.950 . S
C856 H838 0.951 . S
C856 C857 1.366 . S
C856 C858 1.388 . S
C857 C856 1.366 . S
C857 C861 1.385 . S
C858 H839 0.951 1_565 S
C858 C856 1.388 . S
C858 C859 1.366 . S
C859 C858 1.366 . S
C859 C860 1.414 . S
C859 C862 1.499 . S
C860 H840 0.950 . S
C860 C859 1.414 . S
C860 C861 1.374 . S
C861 H841 0.950 . S
C861 C857 1.385 . S
C861 C860 1.374 . S
C862 C859 1.499 . S
C862 C863 1.373 . S
C862 C864 1.389 1_565 S
C863 H842 0.950 . S
C863 C862 1.373 . S
C863 C879 1.377 1_655 S
C864 C862 1.389 1_545 S
C864 C865 1.524 . S
C864 C878 1.377 1_655 S
C865 C864 1.524 . S
C865 C866 1.397 . S
C865 C870 1.363 . S
C866 H843 0.950 1_645 S
C866 C865 1.397 . S
C866 C867 1.334 . S
C867 H844 0.954 1_545 S
C867 C866 1.334 . S
C867 C868 1.287 . S
C868 C867 1.287 . S
C868 C869 1.524 . S
C868 H887 0.913 . S
C869 H845 0.950 . S
C869 C868 1.524 . S
C869 C870 1.415 . S
C870 H846 0.950 . S
C870 C865 1.363 . S
C870 C869 1.415 . S
C871 H847 0.951 . S
C871 C872 1.366 . S
C871 C873 1.388 . S
C872 C871 1.366 . S
C872 C876 1.385 . S
C873 H848 0.951 . S
C873 C871 1.388 . S
C873 C874 1.366 . S
C874 C873 1.366 . S
C874 C875 1.414 . S
C874 C877 1.499 . S
C875 H849 0.950 . S
C875 C874 1.414 . S
C875 C876 1.374 . S
C876 H850 0.950 . S
C876 C872 1.385 . S
C876 C875 1.374 . S
C877 C874 1.499 . S
C877 C878 1.373 . S
C877 C879 1.389 1_545 S
C878 H851 0.950 . S
C878 C864 1.377 1_455 S
C878 C877 1.373 . S
C879 C863 1.377 1_455 S
C879 C877 1.389 1_565 S
C879 C880 1.524 . S
C880 C879 1.524 . S
C880 C881 1.397 1_565 S
C880 C885 1.363 . S
C881 H852 0.950 1_455 S
C881 C880 1.397 1_545 S
C881 C882 1.334 . S
C882 H853 0.954 . S
C882 C881 1.334 . S
C882 C883 1.287 1_545 S
C883 C882 1.287 1_565 S
C883 C884 1.524 . S
C883 H886 0.999 . S
C884 H854 0.950 . S
C884 C883 1.524 . S
C884 C885 1.415 . S
C885 H855 0.950 . S
C885 C880 1.363 . S
C885 C884 1.415 . S
H886 C883 0.999 . S
H887 C868 0.913 . S
H888 C906 0.951 . S
H889 C908 0.951 . S
H890 C910 0.950 . S
H891 C911 0.950 . S
H892 C913 0.950 . S
H893 C916 0.950 . S
H894 C917 0.950 . S
H895 C919 0.950 . S
H896 C920 0.950 . S
H897 C921 0.951 . S
H898 C923 0.951 . S
H899 C925 0.950 . S
H900 C926 0.950 . S
H901 C928 0.950 . S
H902 C931 0.950 . S
H903 C932 0.950 . S
H904 C934 0.950 . S
H905 C935 0.950 . S
C906 H888 0.951 . S
C906 C907 1.366 . S
C906 C908 1.388 . S
C907 C906 1.366 . S
C907 C911 1.385 . S
C908 H889 0.951 . S
C908 C906 1.388 . S
C908 C909 1.366 . S
C909 C908 1.366 . S
C909 C910 1.414 . S
C909 C912 1.499 . S
C910 H890 0.950 . S
C910 C909 1.414 . S
C910 C911 1.374 . S
C911 H891 0.950 . S
C911 C907 1.385 . S
C911 C910 1.374 . S
C912 C909 1.499 . S
C912 C913 1.373 1_655 S
C912 C914 1.389 . S
C913 H892 0.950 . S
C913 C912 1.373 1_455 S
C913 C929 1.377 . S
C914 C912 1.389 . S
C914 C915 1.524 . S
C914 C928 1.377 . S
C915 C914 1.524 . S
C915 C916 1.397 . S
C915 C920 1.363 . S
C916 H893 0.950 . S
C916 C915 1.397 . S
C916 C917 1.334 . S
C917 H894 0.950 . S
C917 C916 1.334 . S
C917 C918 1.287 . S
C918 C917 1.287 . S
C918 C919 1.524 . S
C918 H937 0.913 . S
C919 H895 0.950 . S
C919 C918 1.524 . S
C919 C920 1.415 . S
C920 H896 0.950 . S
C920 C915 1.363 . S
C920 C919 1.415 . S
C921 H897 0.951 . S
C921 C922 1.366 . S
C921 C923 1.388 . S
C922 C921 1.366 . S
C922 C926 1.385 . S
C923 H898 0.951 . S
C923 C921 1.388 . S
C923 C924 1.366 . S
C924 C923 1.366 . S
C924 C925 1.414 . S
C924 C927 1.499 . S
C925 H899 0.950 . S
C925 C924 1.414 . S
C925 C926 1.374 . S
C926 H900 0.950 . S
C926 C922 1.385 . S
C926 C925 1.374 . S
C927 C924 1.499 . S
C927 C928 1.373 1_455 S
C927 C929 1.389 . S
C928 H901 0.950 . S
C928 C914 1.377 . S
C928 C927 1.373 1_655 S
C929 C913 1.377 . S
C929 C927 1.389 . S
C929 C930 1.524 . S
C930 C929 1.524 . S
C930 C931 1.397 . S
C930 C935 1.363 . S
C931 H902 0.950 . S
C931 C930 1.397 . S
C931 C932 1.334 . S
C932 H903 0.950 . S
C932 C931 1.334 . S
C932 C933 1.287 . S
C933 C932 1.287 . S
C933 C934 1.524 . S
C933 H936 0.999 . S
C934 H904 0.950 . S
C934 C933 1.524 . S
C934 C935 1.415 . S
C935 H905 0.950 . S
C935 C930 1.363 . S
C935 C934 1.415 . S
H936 C933 0.999 . S
H937 C918 0.913 . S
H938 C956 0.951 . S
H939 C958 0.951 . S
H940 C960 0.950 . S
H941 C961 0.950 . S
H942 C963 0.950 . S
H943 C966 0.950 . S
H944 C967 0.950 . S
H945 C969 0.950 . S
H946 C970 0.950 . S
H947 C971 0.951 . S
H948 C973 0.951 . S
H949 C975 0.950 . S
H950 C976 0.950 . S
H951 C978 0.950 . S
H952 C981 0.950 . S
H953 C982 0.950 . S
H954 C984 0.950 . S
H955 C985 0.950 . S
C956 H938 0.951 . S
C956 C957 1.366 . S
C956 C958 1.388 . S
C957 C956 1.366 . S
C957 C961 1.385 . S
C958 H939 0.951 . S
C958 C956 1.388 . S
C958 C959 1.366 . S
C959 C958 1.366 . S
C959 C960 1.414 . S
C959 C962 1.499 . S
C960 H940 0.950 . S
C960 C959 1.414 . S
C960 C961 1.374 . S
C961 H941 0.950 . S
C961 C957 1.385 . S
C961 C960 1.374 . S
C962 C959 1.499 . S
C962 C963 1.373 . S
C962 C964 1.389 . S
C963 H942 0.950 . S
C963 C962 1.373 . S
C963 C979 1.377 . S
C964 C962 1.389 . S
C964 C965 1.524 . S
C964 C978 1.377 . S
C965 C964 1.524 . S
C965 C966 1.397 . S
C965 C970 1.363 . S
C966 H943 0.950 . S
C966 C965 1.397 . S
C966 C967 1.334 . S
C967 H944 0.950 . S
C967 C966 1.334 . S
C967 C968 1.287 . S
C968 C967 1.287 . S
C968 C969 1.524 . S
C968 H987 0.913 . S
C969 H945 0.950 . S
C969 C968 1.524 . S
C969 C970 1.415 . S
C970 H946 0.950 . S
C970 C965 1.363 . S
C970 C969 1.415 . S
C971 H947 0.951 . S
C971 C972 1.366 . S
C971 C973 1.388 . S
C972 C971 1.366 . S
C972 C976 1.385 . S
C973 H948 0.951 . S
C973 C971 1.388 . S
C973 C974 1.366 . S
C974 C973 1.366 . S
C974 C975 1.414 . S
C974 C977 1.499 . S
C975 H949 0.950 . S
C975 C974 1.414 . S
C975 C976 1.374 . S
C976 H950 0.950 . S
C976 C972 1.385 . S
C976 C975 1.374 . S
C977 C974 1.499 . S
C977 C978 1.373 . S
C977 C979 1.389 . S
C978 H951 0.950 . S
C978 C964 1.377 . S
C978 C977 1.373 . S
C979 C963 1.377 . S
C979 C977 1.389 . S
C979 C980 1.524 . S
C980 C979 1.524 . S
C980 C981 1.397 . S
C980 C985 1.363 . S
C981 H952 0.950 . S
C981 C980 1.397 . S
C981 C982 1.334 . S
C982 H953 0.950 . S
C982 C981 1.334 . S
C982 C983 1.287 . S
C983 C982 1.287 . S
C983 C984 1.524 . S
C983 H986 0.999 . S
C984 H954 0.950 . S
C984 C983 1.524 . S
C984 C985 1.415 . S
C985 H955 0.950 . S
C985 C980 1.363 . S
C985 C984 1.415 . S
H986 C983 0.999 . S
H987 C968 0.913 . S
H988 C1006 0.951 . S
H989 C1008 0.951 . S
H990 C1010 0.950 . S
H991 C1011 0.950 . S
H992 C1013 0.950 . S
H993 C1016 0.950 . S
H994 C1017 0.950 . S
H995 C1019 0.950 . S
H996 C1020 0.950 . S
H997 C1021 0.951 . S
H998 C1023 0.951 . S
H999 C1025 0.950 . S
H1000 C1026 0.950 . S
H1001 C1028 0.950 . S
H1002 C1031 0.950 . S
H1003 C1032 0.950 . S
H1004 C1034 0.950 . S
H1005 C1035 0.950 . S
C1006 H988 0.951 . S
C1006 C1007 1.366 . S
C1006 C1008 1.388 . S
C1007 C1006 1.366 . S
C1007 C1011 1.385 . S
C1008 H989 0.951 . S
C1008 C1006 1.388 . S
C1008 C1009 1.366 . S
C1009 C1008 1.366 . S
C1009 C1010 1.414 . S
C1009 C1012 1.499 . S
C1010 H990 0.950 . S
C1010 C1009 1.414 . S
C1010 C1011 1.374 . S
C1011 H991 0.950 . S
C1011 C1007 1.385 . S
C1011 C1010 1.374 . S
C1012 C1009 1.499 . S
C1012 C1013 1.373 1_554 S
C1012 C1014 1.389 . S
C1013 H992 0.950 . S
C1013 C1012 1.373 1_556 S
C1013 C1029 1.377 . S
C1014 C1012 1.389 . S
C1014 C1015 1.524 . S
C1014 C1028 1.377 . S
C1015 C1014 1.524 . S
C1015 C1016 1.397 . S
C1015 C1020 1.363 . S
C1016 H993 0.950 . S
C1016 C1015 1.397 . S
C1016 C1017 1.334 . S
C1017 H994 0.950 . S
C1017 C1016 1.334 . S
C1017 C1018 1.287 . S
C1018 C1017 1.287 . S
C1018 C1019 1.524 . S
C1018 H1037 0.913 . S
C1019 H995 0.950 . S
C1019 C1018 1.524 . S
C1019 C1020 1.415 . S
C1020 H996 0.950 . S
C1020 C1015 1.363 . S
C1020 C1019 1.415 . S
C1021 H997 0.951 . S
C1021 C1022 1.366 . S
C1021 C1023 1.388 . S
C1022 C1021 1.366 . S
C1022 C1026 1.385 . S
C1023 H998 0.951 . S
C1023 C1021 1.388 . S
C1023 C1024 1.366 . S
C1024 C1023 1.366 . S
C1024 C1025 1.414 . S
C1024 C1027 1.499 . S
C1025 H999 0.950 . S
C1025 C1024 1.414 . S
C1025 C1026 1.374 . S
C1026 H1000 0.950 . S
C1026 C1022 1.385 . S
C1026 C1025 1.374 . S
C1027 C1024 1.499 . S
C1027 C1028 1.373 1_556 S
C1027 C1029 1.389 . S
C1028 H1001 0.950 . S
C1028 C1014 1.377 . S
C1028 C1027 1.373 1_554 S
C1029 C1013 1.377 . S
C1029 C1027 1.389 . S
C1029 C1030 1.524 . S
C1030 C1029 1.524 . S
C1030 C1031 1.397 . S
C1030 C1035 1.363 . S
C1031 H1002 0.950 . S
C1031 C1030 1.397 . S
C1031 C1032 1.334 . S
C1032 H1003 0.950 . S
C1032 C1031 1.334 . S
C1032 C1033 1.287 . S
C1033 C1032 1.287 . S
C1033 C1034 1.524 . S
C1033 H1036 0.999 . S
C1034 H1004 0.950 . S
C1034 C1033 1.524 . S
C1034 C1035 1.415 . S
C1035 H1005 0.950 . S
C1035 C1030 1.363 . S
C1035 C1034 1.415 . S
H1036 C1033 0.999 . S
H1037 C1018 0.913 . S
H1038 C1056 0.951 . S
H1039 C1058 0.951 . S
H1040 C1060 0.950 . S
H1041 C1061 0.950 . S
H1042 C1063 0.950 . S
H1043 C1066 0.950 . S
H1044 C1067 0.950 . S
H1045 C1069 0.950 . S
H1046 C1070 0.950 . S
H1047 C1071 0.951 . S
H1048 C1073 0.951 . S
H1049 C1075 0.950 . S
H1050 C1076 0.950 . S
H1051 C1078 0.950 . S
H1052 C1081 0.950 . S
H1053 C1082 0.950 . S
H1054 C1084 0.950 . S
H1055 C1085 0.950 . S
C1056 H1038 0.951 . S
C1056 C1057 1.366 . S
C1056 C1058 1.388 . S
C1057 C1056 1.366 . S
C1057 C1061 1.385 . S
C1058 H1039 0.951 . S
C1058 C1056 1.388 . S
C1058 C1059 1.366 . S
C1059 C1058 1.366 . S
C1059 C1060 1.414 . S
C1059 C1062 1.499 . S
C1060 H1040 0.950 . S
C1060 C1059 1.414 . S
C1060 C1061 1.374 . S
C1061 H1041 0.950 . S
C1061 C1057 1.385 . S
C1061 C1060 1.374 . S
C1062 C1059 1.499 . S
C1062 C1063 1.373 . S
C1062 C1064 1.389 . S
C1063 H1042 0.950 . S
C1063 C1062 1.373 . S
C1063 C1079 1.377 . S
C1064 C1062 1.389 . S
C1064 C1065 1.524 . S
C1064 C1078 1.377 . S
C1065 C1064 1.524 . S
C1065 C1066 1.397 . S
C1065 C1070 1.363 . S
C1066 H1043 0.950 . S
C1066 C1065 1.397 . S
C1066 C1067 1.334 . S
C1067 H1044 0.950 . S
C1067 C1066 1.334 . S
C1067 C1068 1.287 . S
C1068 C1067 1.287 . S
C1068 C1069 1.524 . S
C1068 H1087 0.913 . S
C1069 H1045 0.950 . S
C1069 C1068 1.524 . S
C1069 C1070 1.415 . S
C1070 H1046 0.950 . S
C1070 C1065 1.363 . S
C1070 C1069 1.415 . S
C1071 H1047 0.951 . S
C1071 C1072 1.366 . S
C1071 C1073 1.388 . S
C1072 C1071 1.366 . S
C1072 C1076 1.385 . S
C1073 H1048 0.951 . S
C1073 C1071 1.388 . S
C1073 C1074 1.366 . S
C1074 C1073 1.366 . S
C1074 C1075 1.414 . S
C1074 C1077 1.499 . S
C1075 H1049 0.950 . S
C1075 C1074 1.414 . S
C1075 C1076 1.374 . S
C1076 H1050 0.950 . S
C1076 C1072 1.385 . S
C1076 C1075 1.374 . S
C1077 C1074 1.499 . S
C1077 C1078 1.373 . S
C1077 C1079 1.389 . S
C1078 H1051 0.950 . S
C1078 C1064 1.377 . S
C1078 C1077 1.373 . S
C1079 C1063 1.377 . S
C1079 C1077 1.389 . S
C1079 C1080 1.524 . S
C1080 C1079 1.524 . S
C1080 C1081 1.397 . S
C1080 C1085 1.363 . S
C1081 H1052 0.950 . S
C1081 C1080 1.397 . S
C1081 C1082 1.334 . S
C1082 H1053 0.950 . S
C1082 C1081 1.334 . S
C1082 C1083 1.287 . S
C1083 C1082 1.287 . S
C1083 C1084 1.524 . S
C1083 H1086 0.999 . S
C1084 H1054 0.950 . S
C1084 C1083 1.524 . S
C1084 C1085 1.415 . S
C1085 H1055 0.950 . S
C1085 C1080 1.363 . S
C1085 C1084 1.415 . S
H1086 C1083 0.999 . S
H1087 C1068 0.913 . S
C307 C194 1.454 . S
C322 C4 1.524 . S
C357 C266 1.454 . S
C372 C40 1.524 . S
C407 C74 1.514 . S
C422 C218 1.514 . S
C457 C111 1.529 . S
C472 C147 1.530 . S
C507 C220 1.524 . S
C522 C14 1.455 . S
C557 C38 1.514 . S
C572 C146 1.514 . S
C607 C183 1.529 . S
C622 C75 1.530 . S
C657 C122 1.454 . S
C672 C256 1.524 . S
C707 C158 1.455 . S
C722 C184 1.525 . S
C757 C50 1.456 . S
C772 C76 1.525 . S
C807 C112 1.524 . S
C822 C86 1.454 . S
C857 C110 1.514 . S
C872 C2 1.514 . S
C907 C39 1.529 . S
C922 C3 1.530 . S
C957 C255 1.529 . S
C972 C219 1.529 . S
C1007 C148 1.524 . S
C1022 C230 1.454 . S
C1057 C182 1.514 . S
C1072 C254 1.514 . S
