# Generated by pormake.
# Topology lcy-e, (6)-cn, num edge types: 1
# Building blocks:
#     Node 0, Type 0, BuildingBlock: KUMJIN_clean_sbu_0, # of connection points: 6
#     Node 1, Type 0, BuildingBlock: KUMJIN_clean_sbu_0, # of connection points: 6
#     Node 2, Type 0, BuildingBlock: KUMJIN_clean_sbu_0, # of connection points: 6
#     Node 3, Type 0, BuildingBlock: KUMJIN_clean_sbu_0, # of connection points: 6
#     Node 4, Type 0, BuildingBlock: KUMJIN_clean_sbu_0, # of connection points: 6
#     Node 5, Type 0, BuildingBlock: KUMJIN_clean_sbu_0, # of connection points: 6
#     Node 6, Type 0, BuildingBlock: KUMJIN_clean_sbu_0, # of connection points: 6
#     Node 7, Type 0, BuildingBlock: KUMJIN_clean_sbu_0, # of connection points: 6
#     Node 8, Type 0, BuildingBlock: KUMJIN_clean_sbu_0, # of connection points: 6
#     Node 9, Type 0, BuildingBlock: KUMJIN_clean_sbu_0, # of connection points: 6
#     Node 10, Type 0, BuildingBlock: KUMJIN_clean_sbu_0, # of connection points: 6
#     Node 11, Type 0, BuildingBlock: KUMJIN_clean_sbu_0, # of connection points: 6
#     Edge 12, Type (0, 0), BuildingBlock: EZIPEK_clean_linker_0, # of connection points: 2
#     Edge 13, Type (0, 0), BuildingBlock: EZIPEK_clean_linker_0, # of connection points: 2
#     Edge 14, Type (0, 0), BuildingBlock: EZIPEK_clean_linker_0, # of connection points: 2
#     Edge 15, Type (0, 0), BuildingBlock: EZIPEK_clean_linker_0, # of connection points: 2
#     Edge 16, Type (0, 0), BuildingBlock: EZIPEK_clean_linker_0, # of connection points: 2
#     Edge 17, Type (0, 0), BuildingBlock: EZIPEK_clean_linker_0, # of connection points: 2
#     Edge 18, Type (0, 0), BuildingBlock: EZIPEK_clean_linker_0, # of connection points: 2
#     Edge 19, Type (0, 0), BuildingBlock: EZIPEK_clean_linker_0, # of connection points: 2
#     Edge 20, Type (0, 0), BuildingBlock: EZIPEK_clean_linker_0, # of connection points: 2
#     Edge 21, Type (0, 0), BuildingBlock: EZIPEK_clean_linker_0, # of connection points: 2
#     Edge 22, Type (0, 0), BuildingBlock: EZIPEK_clean_linker_0, # of connection points: 2
#     Edge 23, Type (0, 0), BuildingBlock: EZIPEK_clean_linker_0, # of connection points: 2
#     Edge 24, Type (0, 0), BuildingBlock: EZIPEK_clean_linker_0, # of connection points: 2
#     Edge 25, Type (0, 0), BuildingBlock: EZIPEK_clean_linker_0, # of connection points: 2
#     Edge 26, Type (0, 0), BuildingBlock: EZIPEK_clean_linker_0, # of connection points: 2
#     Edge 27, Type (0, 0), BuildingBlock: EZIPEK_clean_linker_0, # of connection points: 2
#     Edge 28, Type (0, 0), BuildingBlock: EZIPEK_clean_linker_0, # of connection points: 2
#     Edge 29, Type (0, 0), BuildingBlock: EZIPEK_clean_linker_0, # of connection points: 2
#     Edge 30, Type (0, 0), BuildingBlock: EZIPEK_clean_linker_0, # of connection points: 2
#     Edge 31, Type (0, 0), BuildingBlock: EZIPEK_clean_linker_0, # of connection points: 2
#     Edge 32, Type (0, 0), BuildingBlock: EZIPEK_clean_linker_0, # of connection points: 2
#     Edge 33, Type (0, 0), BuildingBlock: EZIPEK_clean_linker_0, # of connection points: 2
#     Edge 34, Type (0, 0), BuildingBlock: EZIPEK_clean_linker_0, # of connection points: 2
#     Edge 35, Type (0, 0), BuildingBlock: EZIPEK_clean_linker_0, # of connection points: 2
#     Edge 36, Type (0, 0), BuildingBlock: EZIPEK_clean_linker_0, # of connection points: 2
#     Edge 37, Type (0, 0), BuildingBlock: EZIPEK_clean_linker_0, # of connection points: 2
#     Edge 38, Type (0, 0), BuildingBlock: EZIPEK_clean_linker_0, # of connection points: 2
#     Edge 39, Type (0, 0), BuildingBlock: EZIPEK_clean_linker_0, # of connection points: 2
#     Edge 40, Type (0, 0), BuildingBlock: EZIPEK_clean_linker_0, # of connection points: 2
#     Edge 41, Type (0, 0), BuildingBlock: EZIPEK_clean_linker_0, # of connection points: 2
#     Edge 42, Type (0, 0), BuildingBlock: EZIPEK_clean_linker_0, # of connection points: 2
#     Edge 43, Type (0, 0), BuildingBlock: EZIPEK_clean_linker_0, # of connection points: 2
#     Edge 44, Type (0, 0), BuildingBlock: EZIPEK_clean_linker_0, # of connection points: 2
#     Edge 45, Type (0, 0), BuildingBlock: EZIPEK_clean_linker_0, # of connection points: 2
#     Edge 46, Type (0, 0), BuildingBlock: EZIPEK_clean_linker_0, # of connection points: 2
#     Edge 47, Type (0, 0), BuildingBlock: EZIPEK_clean_linker_0, # of connection points: 2
# Relax obj value: 0.100
# Max RMSD: 0.294
# Mean RMSD: 0.293
data_MOF--net-lcy-e--node1-KUMJIN_clean_sbu_0--edge1-EZIPEK_clean_linker_0
_symmetry_space_group_name_H-M    P1
_symmetry_Int_Tables_number       1
_symmetry_cell_setting            triclinic
loop_
_symmetry_equiv_pos_as_xyz
'x, y, z'
_cell_length_a     34.092778
_cell_length_b     34.198586
_cell_length_c     34.1531
_cell_angle_alpha  89.496746
_cell_angle_beta   90.456589
_cell_angle_gamma 90.426529
loop_
_atom_site_label
_atom_site_type_symbol
_atom_site_fract_x
_atom_site_fract_y
_atom_site_fract_z
_atom_type_partial_charge
Eu0 Eu 0.15984 0.21147 0.55011 0.0
C1 C 0.05626 0.27231 0.42469 0.0
C2 C 0.07769 0.26169 0.35805 0.0
C3 C 1.00839 0.2675 0.37139 0.0
C4 C 0.08639 0.26709 0.39828 0.0
C5 C 0.01693 0.27329 0.41118 0.0
C6 C 0.03862 0.261 0.34504 0.0
C7 C 0.99654 0.2858 0.4771 0.0
N8 N 0.06524 0.27833 0.46306 0.0
C9 C 0.03563 0.28442 0.48922 0.0
C10 C 0.98719 0.28103 0.43784 0.0
Eu11 Eu 0.13344 0.28601 0.47867 0.0
N12 N 0.12411 0.26977 0.41121 0.0
C13 C 0.15373 0.27236 0.38429 0.0
C14 C 0.10852 0.25922 0.33155 0.0
C15 C 0.14674 0.26523 0.34469 0.0
H16 H 0.04094 0.28963 0.51951 0.0
H17 H 0.17073 0.26584 0.32412 0.0
H18 H 0.03155 0.25694 0.31435 0.0
H19 H 0.97365 0.29144 0.49807 0.0
H20 H 0.18309 0.28025 0.3931 0.0
H21 H 0.20073 0.29074 0.68306 0.0
H22 H 0.10298 0.25488 0.3006 0.0
H23 H 0.20603 0.13062 0.52038 0.0
H24 H 0.15533 0.25956 0.63595 0.0
H25 H 0.27296 0.10279 0.52165 0.0
H26 H 0.97844 0.2684 0.36057 0.0
H27 H 0.27235 0.2815 0.6768 0.0
H28 H 0.32746 0.245 0.64505 0.0
H29 H 0.95687 0.28346 0.42846 0.0
H30 H 0.34741 0.19243 0.60076 0.0
N31 N 0.20081 0.2369 0.60067 0.0
C32 C 0.18656 0.25639 0.63214 0.0
C33 C 0.25257 0.26857 0.65548 0.0
C34 C 0.26655 0.24398 0.62626 0.0
C35 C 0.21218 0.27378 0.65917 0.0
C36 C 0.23944 0.22804 0.59924 0.0
H37 H 0.32686 0.13796 0.55554 0.0
N38 N 0.2225 0.18128 0.55229 0.0
C39 C 0.26729 0.13028 0.53587 0.0
C40 C 0.25068 0.19873 0.57443 0.0
C41 C 0.22948 0.14593 0.53536 0.0
C42 C 0.29765 0.15023 0.55506 0.0
C43 C 0.28927 0.18426 0.57579 0.0
O44 O 0.14114 0.15016 0.55857 0.0
O45 O 0.11526 0.2296 0.50449 0.0
O46 O 0.10452 0.30111 0.53844 0.0
O47 O 0.11109 0.24515 0.57729 0.0
O48 O 0.13526 0.17356 0.50041 0.0
O49 O 0.1355 0.19015 0.60589 0.0
O50 O 0.10666 0.34375 0.46992 0.0
O51 O 0.16486 0.27851 0.53697 0.0
O52 O 0.20813 0.21474 0.50481 0.0
O53 O 0.17552 0.24132 0.45121 0.0
O54 O 0.19643 0.29983 0.49095 0.0
O55 O 0.16597 0.33455 0.45167 0.0
C56 C 0.11107 0.19842 0.48537 0.0
C57 C 0.14366 0.12285 0.62292 0.0
C58 C 0.13125 0.0617 0.66027 0.0
C59 C 0.1182 0.09146 0.63397 0.0
C60 C 0.16979 0.06409 0.67482 0.0
C61 C 0.18176 0.12416 0.63856 0.0
C62 C 0.19462 0.09501 0.66431 0.0
C63 C 0.09488 0.2792 0.56985 0.0
C64 C 0.131 0.15404 0.59492 0.0
C65 C 0.31739 0.2026 0.59984 0.0
C66 C 0.30603 0.23256 0.62504 0.0
C67 C 0.19637 0.29778 0.52846 0.0
C68 C 0.12717 0.37371 0.40917 0.0
C69 C 0.15779 0.38442 0.38298 0.0
C70 C 0.14912 0.39871 0.34478 0.0
C71 C 0.10971 0.40194 0.33318 0.0
C72 C 0.0881 0.37749 0.3963 0.0
C73 C 0.07958 0.3914 0.35867 0.0
C74 C 0.20587 0.22278 0.46707 0.0
C75 C 0.13582 0.35732 0.44908 0.0
H76 H 0.08876 0.08993 0.62188 0.0
H77 H 0.18099 0.04158 0.69401 0.0
H78 H 0.2017 0.14769 0.63069 0.0
H79 H 0.22423 0.09619 0.67595 0.0
H80 H 0.18814 0.38151 0.3921 0.0
H81 H 0.10224 0.41236 0.30408 0.0
H82 H 0.06393 0.36934 0.41515 0.0
H83 H 0.04934 0.39388 0.34913 0.0
Eu84 Eu 0.98848 0.86267 0.73046 0.0
C85 C 0.0891 0.98661 0.80818 0.0
C86 C 0.14643 0.99269 0.76681 0.0
C87 C 0.12344 0.04919 0.80213 0.0
C88 C 0.11497 0.97012 0.78191 0.0
C89 C 0.09373 0.02622 0.81906 0.0
C90 C 0.14996 0.03237 0.77641 0.0
C91 C 0.04414 0.01621 0.86803 0.0
N92 N 0.06169 0.96335 0.82561 0.0
C93 C 0.04141 0.97702 0.85715 0.0
C94 C 0.06984 0.04116 0.84835 0.0
Eu95 Eu 0.05963 0.89687 0.80472 0.0
N96 N 0.11122 0.93153 0.7732 0.0
C97 C 0.13957 0.91343 0.752 0.0
C98 C 0.17446 0.97435 0.7438 0.0
C99 C 0.1711 0.93454 0.73655 0.0
H100 H 0.02218 0.95807 0.87358 0.0
H101 H 0.1933 0.91983 0.71979 0.0
H102 H 0.17379 0.05009 0.76497 0.0
H103 H 0.02678 0.02699 0.89199 0.0
H104 H 0.13937 0.88244 0.74805 0.0
H105 H 0.88818 0.75998 0.80105 0.0
H106 H 0.19971 0.99021 0.73279 0.0
H107 H 0.04536 0.85006 0.65123 0.0
H108 H 0.92572 0.82149 0.79265 0.0
H109 H 0.05635 0.80104 0.60031 0.0
H110 H 0.12716 0.07962 0.81 0.0
H111 H 0.89482 0.70733 0.75227 0.0
H112 H 0.92546 0.68315 0.6905 0.0
H113 H 0.07242 0.0714 0.85731 0.0
H114 H 0.97054 0.69461 0.63555 0.0
N115 N 0.95435 0.8032 0.74146 0.0
C116 C 0.92933 0.79839 0.77201 0.0
C117 C 0.91165 0.73403 0.74904 0.0
C118 C 0.93689 0.73936 0.71733 0.0
C119 C 0.90784 0.76369 0.77654 0.0
C120 C 0.95801 0.77481 0.71425 0.0
H121 H 0.01978 0.73833 0.60187 0.0
N122 N 1.00375 0.81544 0.68227 0.0
C123 C 0.03564 0.7951 0.62351 0.0
C124 C 0.98321 0.78126 0.68339 0.0
C125 C 0.0294 0.82288 0.65257 0.0
C126 C 0.01491 0.75976 0.62447 0.0
C127 C 0.98835 0.7524 0.65471 0.0
O128 O 0.96702 0.89906 0.68178 0.0
O129 O 0.04003 0.90175 0.74356 0.0
O130 O 1.00059 0.93456 0.80647 0.0
O131 O 0.9551 0.89464 0.77548 0.0
O132 O 0.0201 0.90461 0.6877 0.0
O133 O 0.92545 0.86868 0.71843 0.0
O134 O 0.07053 0.89679 0.86795 0.0
O135 O 1.00191 0.86405 0.79735 0.0
O136 O 0.03194 0.81436 0.73794 0.0
O137 O 0.08523 0.84641 0.76707 0.0
O138 O 0.04171 0.84052 0.83514 0.0
O139 O 0.11648 0.87643 0.82867 0.0
C140 C 0.04506 0.91996 0.71139 0.0
C141 C 0.90746 0.88 0.65117 0.0
C142 C 0.88025 0.89851 0.58666 0.0
C143 C 0.90227 0.90795 0.62065 0.0
C144 C 0.86377 0.86088 0.58366 0.0
C145 C 0.89078 0.84258 0.647 0.0
C146 C 0.86909 0.83322 0.61351 0.0
C147 C 0.96329 0.9265 0.7953 0.0
C148 C 0.93034 0.8901 0.68696 0.0
C149 C 0.96712 0.71712 0.65737 0.0
C150 C 0.9415 0.71057 0.68868 0.0
C151 C 1.00632 0.83646 0.82285 0.0
C152 C 0.13136 0.8746 0.89967 0.0
C153 C 0.16973 0.85867 0.89687 0.0
C154 C 0.19209 0.85033 0.93126 0.0
C155 C 0.17519 0.8574 0.96781 0.0
C156 C 0.11618 0.88195 0.93702 0.0
C157 C 0.13788 0.87331 0.97067 0.0
C158 C 0.06912 0.81612 0.74816 0.0
C159 C 0.1058 0.88248 0.86474 0.0
H160 H 0.91528 0.93683 0.62327 0.0
H161 H 0.84689 0.85282 0.55794 0.0
H162 H 0.89448 0.82048 0.66961 0.0
H163 H 0.85634 0.8043 0.61063 0.0
H164 H 0.18196 0.85249 0.86843 0.0
H165 H 0.19074 0.84956 0.99435 0.0
H166 H 0.08707 0.8939 0.9404 0.0
H167 H 0.12548 0.8785 0.99923 0.0
Eu168 Eu 0.40366 0.73484 0.9829 0.0
C169 C 0.27987 0.83514 0.06534 0.0
C170 C 0.27335 0.89252 0.02382 0.0
C171 C 0.21965 0.87301 0.06612 0.0
C172 C 0.29519 0.86002 0.03721 0.0
C173 C 0.24193 0.84149 0.08027 0.0
C174 C 0.23546 0.89866 0.03817 0.0
C175 C 0.25296 0.78888 0.12647 0.0
N176 N 0.30308 0.80657 0.08027 0.0
C177 C 0.29084 0.7848 0.11181 0.0
C178 C 0.22821 0.81714 0.11038 0.0
Eu179 Eu 0.36836 0.80326 0.05639 0.0
N180 N 0.33241 0.85408 0.02489 0.0
C181 C 0.34989 0.88049 1.00024 0.0
C182 C 0.29087 0.91896 0.99776 0.0
C183 C 0.32948 0.91313 0.98628 0.0
H184 H 0.31042 0.76401 0.12565 0.0
H185 H 0.3435 0.93358 0.96638 0.0
H186 H 0.21828 0.92338 0.02812 0.0
H187 H 0.24321 0.77082 0.15075 0.0
H188 H 0.37938 0.87631 0.99044 0.0
H189 H 0.45426 0.58887 0.02679 0.0
H190 H 0.27511 0.94427 0.98688 0.0
H191 H 0.44111 0.7931 0.91244 0.0
H192 H 0.40755 0.6426 0.02125 0.0
H193 H 0.50204 0.80038 0.87471 0.0
H194 H 0.19052 0.87834 0.07726 0.0
H195 H 0.52079 0.59588 0.9992 0.0
H196 H 0.5687 0.63573 0.96008 0.0
H197 H 0.19918 0.82093 0.12241 0.0
H198 H 0.58189 0.69351 0.91874 0.0
N199 N 0.44699 0.68115 0.99109 0.0
C200 C 0.43632 0.64673 1.00904 0.0
C201 C 0.50028 0.61983 0.99651 0.0
C202 C 0.51035 0.65415 0.97629 0.0
C203 C 0.46275 0.61573 1.01204 0.0
C204 C 0.48244 0.68437 0.97331 0.0
H205 H 0.55689 0.75453 0.88592 0.0
N206 N 0.46112 0.7436 0.94493 0.0
C207 C 0.49924 0.77699 0.89601 0.0
C208 C 0.48974 0.71657 0.94958 0.0
C209 C 0.46459 0.77255 0.91719 0.0
C210 C 0.53006 0.75101 0.90241 0.0
C211 C 0.52528 0.71985 0.92885 0.0
O212 O 0.38437 0.7259 0.92184 0.0
O213 O 0.35556 0.77641 0.99904 0.0
O214 O 0.33096 0.74606 0.05824 0.0
O215 O 0.37251 0.70078 0.02991 0.0
O216 O 0.3757 0.78154 0.94336 0.0
O217 O 0.37069 0.68213 0.96528 0.0
O218 O 0.37124 0.81978 0.11743 0.0
O219 O 0.4167 0.7593 0.04594 0.0
O220 O 0.4538 0.77649 0.99483 0.0
O221 O 0.4205 0.8291 0.0204 0.0
O222 O 0.38936 0.75964 0.10015 0.0
O223 O 0.39834 0.85876 0.07443 0.0
C224 C 0.34954 0.79403 0.96695 0.0
C225 C 0.37624 0.6604 0.89867 0.0
C226 C 0.35924 0.62429 0.83806 0.0
C227 C 0.35151 0.65472 0.8652 0.0
C228 C 0.39172 0.60014 0.8451 0.0
C229 C 0.40855 0.63572 0.90394 0.0
C230 C 0.41608 0.60589 0.87754 0.0
C231 C 0.34146 0.70938 0.05069 0.0
C232 C 0.36858 0.69163 0.92814 0.0
C233 C 0.5542 0.69122 0.93399 0.0
C234 C 0.5467 0.65835 0.95758 0.0
C235 C 0.41766 0.74419 0.08097 0.0
C236 C 0.40202 0.87791 0.14463 0.0
C237 C 0.4161 0.91712 0.14033 0.0
C238 C 0.42845 0.93868 0.17386 0.0
C239 C 0.42774 0.91973 0.21051 0.0
C240 C 0.40045 0.86123 0.18236 0.0
C241 C 0.41347 0.88185 0.2148 0.0
C242 C 0.45223 0.8139 1.00401 0.0
C243 C 0.39002 0.85252 0.11114 0.0
H244 H 0.32663 0.6737 0.8603 0.0
H245 H 0.39845 0.57674 0.82509 0.0
H246 H 0.42815 0.63931 0.92855 0.0
H247 H 0.44111 0.58709 0.88225 0.0
H248 H 0.41785 0.93044 0.1115 0.0
H249 H 0.43961 0.93408 0.23598 0.0
H250 H 0.39021 0.83147 0.18688 0.0
H251 H 0.41318 0.86814 0.24344 0.0
Eu252 Eu 0.53598 0.1596 0.22835 0.0
C253 C 0.46151 0.01876 0.31298 0.0
C254 C 0.40138 1.00432 0.27699 0.0
C255 C 0.43183 0.95365 0.31663 0.0
C256 C 0.43175 0.03078 0.28745 0.0
C257 C 0.46178 0.97981 0.32743 0.0
C258 C 0.40133 0.96611 0.29216 0.0
C259 C 0.51764 0.99638 0.36771 0.0
N260 N 0.48865 0.04535 0.32558 0.0
C261 C 0.51515 0.03493 0.35424 0.0
C262 C 0.49102 0.9686 0.35404 0.0
Eu263 Eu 0.47775 0.11112 0.30429 0.0
N264 N 0.43103 0.0686 0.27462 0.0
C265 C 0.40021 0.0816 0.25223 0.0
C266 C 0.37093 0.0173 0.25269 0.0
C267 C 0.37027 0.05615 0.24044 0.0
H268 H 0.5345 0.05627 0.3673 0.0
H269 H 0.34642 0.06672 0.2222 0.0
H270 H 0.37803 0.94571 0.28469 0.0
H271 H 0.53937 0.98842 0.38958 0.0
H272 H 0.39803 0.11153 0.24322 0.0
H273 H 0.63586 0.25979 0.30381 0.0
H274 H 0.34738 0.99775 0.24386 0.0
H275 H 0.47068 0.17819 0.15422 0.0
H276 H 0.60326 0.19697 0.29055 0.0
H277 H 0.4533 0.23268 0.11042 0.0
H278 H 0.43149 0.92387 0.32777 0.0
H279 H 0.61904 0.31822 0.26415 0.0
H280 H 0.58072 0.34764 0.20851 0.0
H281 H 0.49229 0.93895 0.36544 0.0
H282 H 0.53243 0.33987 0.1553 0.0
N283 N 0.56669 0.21942 0.24515 0.0
C284 C 0.59498 0.22213 0.27349 0.0
C285 C 0.60418 0.29069 0.25853 0.0
C286 C 0.57598 0.28754 0.2287 0.0
C287 C 0.6138 0.25779 0.28093 0.0
C288 C 0.55725 0.25108 0.22272 0.0
H289 H 0.48483 0.29734 0.11872 0.0
N290 N 0.51132 0.21154 0.18842 0.0
C291 C 0.47461 0.23709 0.13364 0.0
C292 C 0.52939 0.24691 0.19311 0.0
C293 C 0.48451 0.2062 0.15878 0.0
C294 C 0.49257 0.27351 0.13836 0.0
C295 C 0.52027 0.27884 0.16832 0.0
O296 O 0.56102 0.11844 0.18609 0.0
O297 O 0.49817 0.10794 0.24373 0.0
O298 O 0.54349 0.08754 0.30448 0.0
O299 O 0.57997 0.13383 0.26961 0.0
O300 O 0.49719 0.12264 0.18655 0.0
O301 O 0.5906 0.1724 0.19634 0.0
O302 O 0.47066 0.1066 0.36786 0.0
O303 O 0.52731 0.15541 0.29606 0.0
O304 O 0.48394 0.19793 0.23842 0.0
O305 O 0.43979 0.15689 0.27084 0.0
O306 O 0.48295 0.17005 0.33253 0.0
O307 O 0.41964 0.11501 0.3304 0.0
C308 C 0.48358 0.09737 0.21126 0.0
C309 C 0.59156 0.14775 0.13103 0.0
C310 C 0.6129 0.12866 0.065 0.0
C311 C 0.61384 0.12314 0.10639 0.0
C312 C 0.58826 0.15759 0.04907 0.0
C313 C 0.57023 0.17829 0.11369 0.0
C314 C 0.56774 0.18256 0.07323 0.0
C315 C 0.57782 0.10175 0.29086 0.0
C316 C 0.5889 0.14155 0.17435 0.0
C317 C 0.5391 0.31504 0.17406 0.0
C318 C 0.56657 0.31948 0.20439 0.0
C319 C 0.51679 0.1814 0.32085 0.0
C320 C 0.41595 0.14131 0.39459 0.0
C321 C 0.37533 0.14977 0.39385 0.0
C322 C 0.35881 0.17424 0.42239 0.0
C323 C 0.38344 0.19064 0.45115 0.0
C324 C 0.43967 0.15828 0.42374 0.0
C325 C 0.42355 0.18283 0.45166 0.0
C326 C 0.44872 0.18975 0.25155 0.0
C327 C 0.43292 0.11331 0.36633 0.0
H328 H 0.63207 0.1005 0.11918 0.0
H329 H 0.58657 0.16221 0.01767 0.0
H330 H 0.55559 0.19925 0.13139 0.0
H331 H 0.55036 0.20589 0.06055 0.0
H332 H 0.35651 0.13704 0.37157 0.0
H333 H 0.37153 0.20968 0.47322 0.0
H334 H 0.47069 0.15233 0.42519 0.0
H335 H 0.44222 0.19569 0.47396 0.0
Eu336 Eu 0.628 0.23198 0.54922 0.0
C337 C 0.7498 0.32134 0.45273 0.0
C338 C 0.7686 0.37655 0.4926 0.0
C339 C 0.81512 0.34982 0.44671 0.0
C340 C 0.74135 0.34709 0.48221 0.0
C341 C 0.78644 0.32307 0.43383 0.0
C342 C 0.80608 0.3768 0.47586 0.0
C343 C 0.76129 0.2768 0.38674 0.0
N344 N 0.72068 0.2975 0.43973 0.0
C345 C 0.72541 0.27637 0.40631 0.0
C346 C 0.79225 0.29964 0.40104 0.0
Eu347 Eu 0.65989 0.29907 0.4731 0.0
N348 N 0.70477 0.3463 0.49739 0.0
C349 C 0.6924 0.37623 0.52022 0.0
C350 C 0.7564 0.40639 0.51735 0.0
C351 C 0.71805 0.4063 0.53111 0.0
H352 H 0.7016 0.25868 0.39499 0.0
H353 H 0.70797 0.42978 0.54945 0.0
H354 H 0.82767 0.39871 0.48407 0.0
H355 H 0.76508 0.25939 0.36075 0.0
H356 H 0.66258 0.37719 0.52971 0.0
H357 H 0.56485 0.08886 0.51104 0.0
H358 H 0.77561 0.43072 0.52435 0.0
H359 H 0.59623 0.29562 0.6196 0.0
H360 H 0.6128 0.14176 0.50824 0.0
H361 H 0.53835 0.30525 0.65966 0.0
H362 H 0.84361 0.35127 0.4329 0.0
H363 H 0.50266 0.09779 0.54625 0.0
H364 H 0.46063 0.13952 0.58789 0.0
H365 H 0.81994 0.30014 0.38568 0.0
H366 H 0.45307 0.1985 0.62744 0.0
N367 N 0.58125 0.1802 0.545 0.0
C368 C 0.5876 0.1458 0.52604 0.0
C369 C 0.52454 0.12093 0.5464 0.0
C370 C 0.51827 0.15568 0.56656 0.0
C371 C 0.5597 0.11566 0.52677 0.0
C372 C 0.5479 0.18487 0.56627 0.0
H373 H 0.48194 0.25972 0.65481 0.0
N374 N 0.57396 0.2444 0.59124 0.0
C375 C 0.5394 0.28067 0.63998 0.0
C376 C 0.54396 0.21787 0.58956 0.0
C377 C 0.57264 0.27468 0.6173 0.0
C378 C 0.50766 0.25498 0.63707 0.0
C379 C 0.50989 0.22277 0.61228 0.0
O380 O 0.68144 0.20314 0.5709 0.0
O381 O 0.6742 0.27723 0.53305 0.0
O382 O 0.69675 0.24019 0.47338 0.0
O383 O 0.65496 0.19515 0.50184 0.0
O384 O 0.65442 0.27926 0.58874 0.0
O385 O 0.62812 0.19517 0.6027 0.0
O386 O 0.65115 0.32386 0.41391 0.0
O387 O 0.61177 0.25458 0.48579 0.0
O388 O 0.57807 0.27315 0.53801 0.0
O389 O 0.61191 0.32646 0.51313 0.0
O390 O 0.63738 0.25456 0.43098 0.0
O391 O 0.6267 0.35358 0.46281 0.0
C392 C 0.67928 0.29501 0.56519 0.0
C393 C 0.68746 0.19313 0.64041 0.0
C394 C 0.70635 0.17 0.70674 0.0
C395 C 0.68482 0.16489 0.67122 0.0
C396 C 0.72983 0.20355 0.71101 0.0
C397 C 0.71202 0.22579 0.64586 0.0
C398 C 0.73267 0.23109 0.68082 0.0
C399 C 0.68829 0.20287 0.48397 0.0
C400 C 0.66555 0.1885 0.60247 0.0
C401 C 0.47954 0.19493 0.6105 0.0
C402 C 0.48382 0.16137 0.58792 0.0
C403 C 0.6094 0.23924 0.45121 0.0
C404 C 0.64376 0.39371 0.40729 0.0
C405 C 0.61541 0.42292 0.39711 0.0
C406 C 0.62711 0.45905 0.37905 0.0
C407 C 0.66731 0.46501 0.37206 0.0
C408 C 0.68339 0.40146 0.39955 0.0
C409 C 0.69494 0.43667 0.38214 0.0
C410 C 0.5805 0.31087 0.53061 0.0
C411 C 0.63255 0.35497 0.42525 0.0
H412 H 0.66659 0.13909 0.66752 0.0
H413 H 0.74656 0.20815 0.73771 0.0
H414 H 0.71566 0.24723 0.62291 0.0
H415 H 0.75133 0.25659 0.68439 0.0
H416 H 0.5847 0.41766 0.40327 0.0
H417 H 0.67756 0.49225 0.35925 0.0
H418 H 0.70562 0.38012 0.40689 0.0
H419 H 0.7257 0.44216 0.37653 0.0
Eu420 Eu 0.97121 0.4044 0.72761 0.0
C421 C 0.04374 0.29834 0.84988 0.0
C422 C 0.99531 0.29973 0.90132 0.0
C423 C 0.03762 0.24333 0.8952 0.0
C424 C 0.0137 0.3172 0.86862 0.0
C425 C 0.05627 0.26122 0.86313 0.0
C426 C 1.00727 0.2626 0.91434 0.0
C427 C 0.10722 0.26383 0.81451 0.0
N428 N 0.06173 0.3169 0.81961 0.0
C429 C 0.09436 0.30099 0.80314 0.0
C430 C 0.08786 0.24368 0.84442 0.0
Eu431 Eu 0.04112 0.38173 0.80493 0.0
N432 N 1.00288 0.353 0.85528 0.0
C433 C 0.97495 0.37365 0.87441 0.0
C434 C 0.96597 0.32047 0.92039 0.0
C435 C 0.9557 0.35759 0.9068 0.0
H436 H 0.11082 0.31719 0.78136 0.0
H437 H 0.93348 0.37416 0.92168 0.0
H438 H 0.99347 0.24867 0.93935 0.0
H439 H 0.13257 0.25114 0.80076 0.0
H440 H 0.96798 0.40289 0.86535 0.0
H441 H 0.95746 0.33006 0.58708 0.0
H442 H 0.95164 0.30851 0.94606 0.0
H443 H 0.9992 0.4976 0.74605 0.0
H444 H 0.95709 0.33587 0.65918 0.0
H445 H 0.01439 0.55807 0.70986 0.0
H446 H 0.04678 0.21482 0.90573 0.0
H447 H 0.97323 0.38785 0.54592 0.0
H448 H 0.98953 0.45946 0.54169 0.0
H449 H 0.09825 0.21515 0.85362 0.0
H450 H 1.00354 0.52158 0.57496 0.0
N451 N 0.97508 0.39558 0.65882 0.0
C452 C 0.96468 0.36106 0.64138 0.0
C453 C 0.97336 0.39045 0.57752 0.0
C454 C 0.98141 0.42632 0.59542 0.0
C455 C 0.96459 0.35774 0.60063 0.0
C456 C 0.98135 0.42813 0.63668 0.0
H457 H 0.01307 0.55854 0.63747 0.0
N458 N 0.98887 0.46365 0.69524 0.0
C459 C 1.00689 0.53166 0.69414 0.0
C460 C 0.98806 0.46333 0.65544 0.0
C461 C 0.99814 0.49718 0.71469 0.0
C462 C 1.00601 0.53185 0.65331 0.0
C463 C 0.99672 0.49739 0.6334 0.0
O464 O 0.91609 0.43629 0.71709 0.0
O465 O 0.97985 0.37185 0.78539 0.0
O466 O 0.04894 0.33939 0.75115 0.0
O467 O 0.0168 0.37012 0.69885 0.0
O468 O 0.95758 0.34002 0.7391 0.0
O469 O 0.91516 0.37383 0.71566 0.0
O470 O 0.10143 0.38718 0.82727 0.0
O471 O 0.03246 0.4247 0.75393 0.0
O472 O 0.95684 0.44536 0.7768 0.0
O473 O 1.01029 0.43966 0.81946 0.0
O474 O 0.08567 0.3947 0.76028 0.0
O475 O 0.0554 0.41507 0.85838 0.0
C476 C 0.9672 0.33824 0.77552 0.0
C477 C 0.87232 0.40559 0.66999 0.0
C478 C 0.82074 0.37923 0.62484 0.0
C479 C 0.84133 0.37819 0.66162 0.0
C480 C 0.83302 0.40685 0.59682 0.0
C481 C 0.88191 0.43345 0.6411 0.0
C482 C 0.86295 0.43359 0.60485 0.0
C483 C 0.03855 0.34202 0.71318 0.0
C484 C 0.89543 0.40524 0.70791 0.0
C485 C 0.99699 0.49572 0.59233 0.0
C486 C 0.98923 0.4603 0.57339 0.0
C487 C 0.06806 0.42153 0.74024 0.0
C488 C 0.10913 0.39088 0.89677 0.0
C489 C 0.11808 0.4162 0.92847 0.0
C490 C 0.13471 0.40116 0.9638 0.0
C491 C 0.14111 0.36079 0.96713 0.0
C492 C 0.11735 0.35088 0.90112 0.0
C493 C 0.1327 0.33599 0.93604 0.0
C494 C 0.97738 0.4569 0.80754 0.0
C495 C 0.09229 0.4058 0.85895 0.0
H496 H 0.83302 0.35668 0.68354 0.0
H497 H 0.81931 0.40771 0.56833 0.0
H498 H 0.90446 0.45523 0.64629 0.0
H499 H 0.87147 0.45481 0.58274 0.0
H500 H 0.11255 0.44725 0.92562 0.0
H501 H 0.15293 0.34841 0.99396 0.0
H502 H 0.11233 0.33089 0.87741 0.0
H503 H 0.1384 0.30499 0.93891 0.0
Eu504 Eu 0.89185 0.7909 0.05108 0.0
C505 C 0.76575 0.68813 0.97266 0.0
C506 C 0.76906 0.63031 1.01395 0.0
C507 C 0.71043 0.64277 0.97517 0.0
C508 C 0.78626 0.66492 0.99882 0.0
C509 C 0.72737 0.67751 0.96083 0.0
C510 C 0.73114 0.61933 1.00188 0.0
C511 C 0.72642 0.73453 0.91884 0.0
N512 N 0.78368 0.72051 0.95792 0.0
C513 C 0.76497 0.74298 0.93036 0.0
C514 C 0.70746 0.70164 0.93419 0.0
Eu515 Eu 0.85115 0.7294 0.97383 0.0
N516 N 0.82299 0.67618 1.00957 0.0
C517 C 0.84367 0.65447 0.03626 0.0
C518 C 0.79065 0.6075 0.04041 0.0
C519 C 0.8281 0.61974 0.05172 0.0
H520 H 0.78011 0.76674 0.91609 0.0
H521 H 0.84475 0.60284 0.07291 0.0
H522 H 0.71753 0.59281 1.01307 0.0
H523 H 0.71179 0.75277 0.89727 0.0
H524 H 0.87163 0.66441 0.04705 0.0
H525 H 0.98752 0.89646 0.97804 0.0
H526 H 0.7785 0.58076 0.05266 0.0
H527 H 0.90932 0.73894 0.13407 0.0
H528 H 0.92481 0.86459 0.9962 0.0
H529 H 0.96482 0.72296 0.17795 0.0
H530 H 0.68117 0.63397 0.96609 0.0
H531 H 0.04855 0.87769 1.01292 0.0
H532 H 0.08058 0.83896 0.06723 0.0
H533 H 0.67787 0.69465 0.92462 0.0
H534 H 0.07406 0.79271 0.1225 0.0
N535 N 0.95061 0.82496 0.03598 0.0
C536 C 0.95159 0.85459 1.0092 0.0
C537 C 0.02125 0.86284 0.01979 0.0
C538 C 0.01944 0.8347 0.04974 0.0
C539 C 0.98693 0.87337 0.99991 0.0
C540 C 0.98311 0.81625 0.05741 0.0
H541 H 0.03089 0.74996 0.1644 0.0
N542 N 0.94373 0.77385 0.09524 0.0
C543 C 0.96937 0.74179 0.15273 0.0
C544 C 0.97948 0.7904 0.08848 0.0
C545 C 0.93795 0.75095 0.12779 0.0
C546 C 1.00664 0.75706 0.14497 0.0
C547 C 1.01202 0.78197 0.11274 0.0
O548 O 0.86192 0.8071 0.10515 0.0
O549 O 0.84015 0.75405 0.03219 0.0
O550 O 0.81822 0.78973 0.97299 0.0
O551 O 0.85993 0.83064 1.00914 0.0
O552 O 0.85331 0.75152 0.09019 0.0
O553 O 0.8877 0.85225 0.06937 0.0
O554 O 0.84498 0.71565 0.91153 0.0
O555 O 0.90118 0.77156 0.98594 0.0
O556 O 0.9326 0.73985 0.04928 0.0
O557 O 0.90798 0.7008 0.99919 0.0
O558 O 0.87081 0.77606 0.93261 0.0
O559 O 0.88164 0.67862 0.94918 0.0
C560 C 0.82879 0.73898 0.06432 0.0
C561 C 0.88633 0.86226 0.13876 0.0
C562 C 0.87736 0.88788 0.20548 0.0
C563 C 0.86143 0.87239 0.17026 0.0
C564 C 0.91828 0.89181 0.2087 0.0
C565 C 0.92694 0.86782 0.14295 0.0
C566 C 0.94271 0.88228 0.17772 0.0
C567 C 0.82904 0.82519 0.98631 0.0
C568 C 0.87041 0.84409 0.10249 0.0
C569 C 0.04862 0.79913 0.10443 0.0
C570 C 0.05235 0.82538 0.0729 0.0
C571 C 0.90031 0.78968 0.95217 0.0
C572 C 0.87685 0.66036 0.87973 0.0
C573 C 0.89884 0.62533 0.88315 0.0
C574 C 0.90623 0.60242 0.84961 0.0
C575 C 0.89145 0.61481 0.81317 0.0
C576 C 0.86252 0.67166 0.84267 0.0
C577 C 0.86955 0.64889 0.80985 0.0
C578 C 0.93446 0.70887 0.02696 0.0
C579 C 0.86772 0.68517 0.9141 0.0
H580 H 0.83001 0.8681 0.1675 0.0
H581 H 0.93147 0.90197 0.23553 0.0
H582 H 0.94663 0.86053 0.1195 0.0
H583 H 0.97416 0.88581 0.18082 0.0
H584 H 0.90967 0.61568 0.91151 0.0
H585 H 0.89625 0.5975 0.78723 0.0
H586 H 0.84546 0.69805 0.83898 0.0
H587 H 0.8575 0.65745 0.7817 0.0
Eu588 Eu 0.48381 0.65402 0.30533 0.0
C589 C 0.56307 0.52564 0.21453 0.0
C590 C 0.61934 0.50707 0.25428 0.0
C591 C 0.58716 0.45867 0.21338 0.0
C592 C 0.59167 0.53536 0.24205 0.0
C593 C 0.56128 0.48732 0.19928 0.0
C594 C 0.6163 0.4686 0.24059 0.0
C595 C 0.5128 0.50951 0.15259 0.0
N596 N 0.53918 0.55417 0.20029 0.0
C597 C 0.51598 0.54703 0.16815 0.0
C598 C 0.53491 0.47928 0.16879 0.0
Eu599 Eu 0.54669 0.61692 0.22947 0.0
N600 N 0.59436 0.57291 0.25473 0.0
C601 C 0.62582 0.58449 0.27693 0.0
C602 C 0.65013 0.51848 0.27896 0.0
C603 C 0.65362 0.55745 0.29 0.0
H604 H 0.49909 0.57004 0.15493 0.0
H605 H 0.678 0.56683 0.3082 0.0
H606 H 0.63692 0.44649 0.25024 0.0
H607 H 0.49335 0.50398 0.12802 0.0
H608 H 0.63007 0.61453 0.28449 0.0
H609 H 0.37013 0.73413 0.22281 0.0
H610 H 0.6721 0.49769 0.28851 0.0
H611 H 0.53987 0.68525 0.38221 0.0
H612 H 0.40925 0.67748 0.24064 0.0
H613 H 0.5521 0.74558 0.41853 0.0
H614 H 0.58585 0.42909 0.20229 0.0
H615 H 0.38049 0.797 0.25636 0.0
H616 H 0.41634 0.83576 0.30705 0.0
H617 H 0.53263 0.45025 0.15646 0.0
H618 H 0.46623 0.83923 0.35903 0.0
N619 N 0.44302 0.70683 0.28481 0.0
C620 C 0.41468 0.70412 0.25629 0.0
C621 C 0.3981 0.77198 0.26467 0.0
C622 C 0.42659 0.77473 0.29418 0.0
C623 C 0.3921 0.73652 0.24574 0.0
C624 C 0.44887 0.74126 0.30395 0.0
H625 H 0.51673 0.80601 0.40058 0.0
N626 N 0.49821 0.7108 0.34276 0.0
C627 C 0.53107 0.7454 0.39463 0.0
C628 C 0.47704 0.74329 0.33363 0.0
C629 C 0.52385 0.71106 0.3739 0.0
C630 C 0.51106 0.77942 0.3844 0.0
C631 C 0.48337 0.77861 0.35397 0.0
O632 O 0.45787 0.60475 0.33858 0.0
O633 O 0.52616 0.60589 0.29002 0.0
O634 O 0.48579 0.58113 0.23105 0.0
O635 O 0.44514 0.62462 0.26105 0.0
O636 O 0.53224 0.62796 0.34411 0.0
O637 O 0.4385 0.66206 0.35071 0.0
O638 O 0.55286 0.62378 0.16597 0.0
O639 O 0.49192 0.65411 0.23807 0.0
O640 O 0.53246 0.69811 0.2962 0.0
O641 O 0.58151 0.66072 0.26905 0.0
O642 O 0.53612 0.6778 0.20616 0.0
O643 O 0.6047 0.63106 0.20386 0.0
C644 C 0.54507 0.60106 0.32173 0.0
C645 C 0.44112 0.61711 0.40509 0.0
C646 C 0.4151 0.59518 0.46948 0.0
C647 C 0.40884 0.60584 0.42929 0.0
C648 C 0.45359 0.59606 0.48439 0.0
C649 C 0.47859 0.61898 0.42233 0.0
C650 C 0.48478 0.60823 0.46123 0.0
C651 C 0.44984 0.59051 0.2445 0.0
C652 C 0.43701 0.62575 0.36194 0.0
C653 C 0.46163 0.81189 0.34379 0.0
C654 C 0.43325 0.80992 0.31411 0.0
C655 C 0.50051 0.6834 0.21591 0.0
C656 C 0.61467 0.64066 0.13242 0.0
C657 C 0.65259 0.65906 0.13343 0.0
C658 C 0.67296 0.66812 0.09792 0.0
C659 C 0.65447 0.65868 0.06233 0.0
C660 C 0.59817 0.63151 0.09579 0.0
C661 C 0.61784 0.64044 0.06127 0.0
C662 C 0.56935 0.69297 0.28692 0.0
C663 C 0.5904 0.63226 0.1682 0.0
H664 H 0.37943 0.6052 0.4171 0.0
H665 H 0.45945 0.58802 0.51463 0.0
H666 H 0.50354 0.62869 0.4059 0.0
H667 H 0.5141 0.60946 0.4736 0.0
H668 H 0.66573 0.6669 0.16127 0.0
H669 H 0.66814 0.66645 0.03496 0.0
H670 H 0.56952 0.61771 0.09366 0.0
H671 H 0.6043 0.63365 0.03334 0.0
Eu672 Eu 0.21052 0.5361 0.16021 0.0
C673 C 0.27748 0.4254 0.04042 0.0
C674 C 0.23177 0.37101 0.04426 0.0
C675 C 0.26619 0.38416 0.98356 0.0
C676 C 0.25089 0.40338 0.06162 0.0
C677 C 0.28571 0.4158 1.00118 0.0
C678 C 0.23945 0.36168 1.00513 0.0
C679 C 0.33457 0.46709 1.00059 0.0
N680 N 0.29641 0.4553 0.0585 0.0
C681 C 0.32602 0.47486 0.0397 0.0
C682 C 0.31401 0.43768 0.98107 0.0
Eu683 Eu 0.28217 0.46567 0.12574 0.0
N684 N 0.24398 0.41329 0.09933 0.0
C685 C 0.2189 0.39117 0.12154 0.0
C686 C 0.2059 0.34861 0.06689 0.0
C687 C 0.19963 0.35863 0.10577 0.0
H688 H 0.34365 0.49614 0.05501 0.0
H689 H 0.17953 0.34161 0.12355 0.0
H690 H 0.22518 0.33689 0.99137 0.0
H691 H 0.35757 0.48329 0.9858 0.0
H692 H 0.21249 0.39892 0.15117 0.0
H693 H 0.2478 0.6833 0.21176 0.0
H694 H 0.19076 0.32349 0.05471 0.0
H695 H 0.1424 0.47373 0.19692 0.0
H696 H 0.24602 0.62903 0.1653 0.0
H697 H 0.10334 0.46509 0.25663 0.0
H698 H 0.27205 0.37646 0.95347 0.0
H699 H 0.21705 0.67591 0.27672 0.0
H700 H 0.177 0.63515 0.32306 0.0
H701 H 0.32102 0.43133 0.9509 0.0
H702 H 0.13779 0.57572 0.33538 0.0
N703 N 0.21424 0.59042 0.20321 0.0
C704 C 0.23198 0.62514 0.19327 0.0
C705 C 0.21593 0.65184 0.25631 0.0
C706 C 0.19628 0.61701 0.26572 0.0
C707 C 0.23317 0.65619 0.21963 0.0
C708 C 0.19545 0.58661 0.23801 0.0
H709 H 0.10963 0.51254 0.31058 0.0
N710 N 0.17082 0.52585 0.21648 0.0
C711 C 0.123 0.4899 0.25385 0.0
C712 C 0.1729 0.55345 0.24477 0.0
C713 C 0.14491 0.49517 0.2198 0.0
C714 C 0.12665 0.51675 0.2842 0.0
C715 C 0.15124 0.54939 0.27963 0.0
O716 O 0.15132 0.54315 0.13563 0.0
O717 O 0.22536 0.49327 0.11296 0.0
O718 O 0.28723 0.52385 0.08906 0.0
O719 O 0.25694 0.56992 0.12871 0.0
O720 O 0.16936 0.49088 0.13298 0.0
O721 O 0.19332 0.58989 0.12881 0.0
O722 O 0.34288 0.44645 0.12134 0.0
O723 O 0.2746 0.51194 0.17226 0.0
O724 O 0.22307 0.49751 0.21255 0.0
O725 O 0.25267 0.44422 0.18379 0.0
O726 O 0.32754 0.50927 0.14243 0.0
O727 O 0.30246 0.41326 0.15848 0.0
C728 C 0.1924 0.47718 0.107 0.0
C729 C 0.12506 0.60672 0.12815 0.0
C730 C 0.06591 0.64102 0.10454 0.0
C731 C 0.09781 0.6156 0.09771 0.0
C732 C 0.06185 0.65725 0.14185 0.0
C733 C 0.11998 0.62362 0.165 0.0
C734 C 0.0887 0.64871 0.17172 0.0
C735 C 0.27791 0.56076 0.09803 0.0
C736 C 0.1573 0.57836 0.12208 0.0
C737 C 0.15388 0.57852 0.30825 0.0
C738 C 0.17626 0.61232 0.30126 0.0
C739 C 0.31028 0.5261 0.17116 0.0
C740 C 0.37066 0.38969 0.15513 0.0
C741 C 0.3648 0.35407 0.17611 0.0
C742 C 0.39745 0.33143 0.18841 0.0
C743 C 0.43534 0.34548 0.18066 0.0
C744 C 0.40919 0.4018 0.14661 0.0
C745 C 0.44117 0.38001 0.15955 0.0
C746 C 0.23502 0.46088 0.2141 0.0
C747 C 0.3379 0.41656 0.14481 0.0
H748 H 0.10122 0.60272 0.06908 0.0
H749 H 0.03773 0.67665 0.14785 0.0
H750 H 0.13993 0.61715 0.1888 0.0
H751 H 0.08512 0.66146 0.20035 0.0
H752 H 0.33538 0.34418 0.18303 0.0
H753 H 0.46055 0.32955 0.19127 0.0
H754 H 0.41478 0.42899 0.13104 0.0
H755 H 0.47069 0.39022 0.15364 0.0
Eu756 Eu 0.7966 0.06612 0.9054 0.0
C757 C 0.71081 0.95315 0.7918 0.0
C758 C 0.66669 0.9946 0.7543 0.0
C759 C 0.69114 0.93472 0.72583 0.0
C760 C 0.68871 0.98691 0.78862 0.0
C761 C 0.71087 0.9259 0.76103 0.0
C762 C 0.66922 0.96911 0.72241 0.0
C763 C 0.74535 0.88103 0.80398 0.0
N764 N 0.72913 0.94519 0.82634 0.0
C765 C 0.74511 0.90925 0.83336 0.0
C766 C 0.72898 0.88973 0.76733 0.0
Eu767 Eu 0.72459 0.99324 0.87529 0.0
N768 N 0.68588 1.01034 0.82034 0.0
C769 C 0.65815 0.03879 0.82147 0.0
C770 C 0.64111 0.02644 0.75389 0.0
C771 C 0.63611 0.04804 0.78798 0.0
H772 H 0.75797 0.90265 0.8616 0.0
H773 H 0.61518 0.07167 0.78855 0.0
H774 H 0.65289 0.97479 0.69564 0.0
H775 H 0.75857 0.85281 0.80949 0.0
H776 H 0.65367 0.05498 0.84803 0.0
H777 H 0.90898 0.96964 0.96672 0.0
H778 H 0.62374 0.03338 0.72809 0.0
H779 H 0.7719 0.1524 0.94254 0.0
H780 H 0.87345 1.00518 0.91414 0.0
H781 H 0.76834 0.18443 1.00735 0.0
H782 H 0.69136 0.91443 0.70164 0.0
H783 H 0.89725 0.98629 0.03607 0.0
H784 H 0.86623 0.03193 0.08432 0.0
H785 H 0.72935 0.86789 0.74455 0.0
H786 H 0.82783 0.09149 0.09556 0.0
N787 N 0.83807 0.03691 0.95332 0.0
C788 C 0.8665 1.01074 0.94428 0.0
C789 C 0.88064 1.00084 1.0131 0.0
C790 C 0.85466 0.03102 0.0218 0.0
C791 C 0.88735 0.99137 0.97401 0.0
C792 C 0.83366 0.04877 0.99077 0.0
H793 H 0.79197 0.14949 0.06671 0.0
N794 N 0.79455 0.09945 0.96586 0.0
C795 C 0.77967 0.15508 1.00508 0.0
C796 C 0.81162 0.08168 0.99723 0.0
C797 C 0.78139 0.1369 0.96859 0.0
C798 C 0.79315 0.13529 0.03851 0.0
C799 C 0.81053 0.09856 0.03467 0.0
O800 O 0.8105 0.12143 0.87562 0.0
O801 O 0.75201 0.05017 0.85937 0.0
O802 O 0.78228 0.98138 0.83936 0.0
O803 O 0.82607 0.02984 0.86042 0.0
O804 O 0.75306 0.10744 0.87482 0.0
O805 O 0.85756 0.08558 0.89676 0.0
O806 O 0.70313 0.93762 0.8996 0.0
O807 O 0.7828 1.00008 0.9073 0.0
O808 O 0.74677 0.06667 0.94884 0.0
O809 O 0.69585 0.0431 0.91008 0.0
O810 O 0.73842 0.97344 0.9366 0.0
O811 O 0.66321 0.9865 0.89239 0.0
C812 C 0.73713 0.083 0.85072 0.0
C813 C 0.86852 0.15451 0.89345 0.0
C814 C 0.89884 0.21813 0.87841 0.0
C815 C 0.88056 0.18315 0.86591 0.0
C816 C 0.90409 0.22432 0.91867 0.0
C817 C 0.87483 0.16118 0.93348 0.0
C818 C 0.89228 0.19602 0.94595 0.0
C819 C 0.81678 1.00101 0.83671 0.0
C820 C 0.84814 0.11865 0.88016 0.0
C821 C 0.82888 0.07939 0.06637 0.0
C822 C 0.85078 0.04549 0.05996 0.0
C823 C 0.77528 0.97977 0.93798 0.0
C824 C 0.63473 0.92272 0.89457 0.0
C825 C 0.60834 0.91061 0.92416 0.0
C826 C 0.57699 0.88475 0.91546 0.0
C827 C 0.57249 0.87126 0.877 0.0
C828 C 0.62948 0.90876 0.85642 0.0
C829 C 0.59856 0.88316 0.84777 0.0
C830 C 0.70911 0.06025 0.94247 0.0
C831 C 0.66723 0.9501 0.90385 0.0
H832 H 0.8761 0.17815 0.83489 0.0
H833 H 0.91774 0.25091 0.929 0.0
H834 H 0.86616 0.13957 0.95513 0.0
H835 H 0.89681 0.20106 0.9769 0.0
H836 H 0.61211 0.92126 0.95377 0.0
H837 H 0.5487 0.85154 0.86956 0.0
H838 H 0.64916 0.91768 0.83331 0.0
H839 H 0.59472 0.87252 0.81822 0.0
Eu840 Eu 0.74698 0.97282 0.40226 0.0
C841 C 0.85422 0.03394 0.27511 0.0
C842 C 0.90623 0.98616 0.27132 0.0
C843 C 0.88808 0.02375 0.21347 0.0
C844 C 0.87639 1.00468 0.29272 0.0
C845 C 0.86052 0.04425 0.23546 0.0
C846 C 0.91113 0.99501 0.23145 0.0
C847 C 0.81791 0.09944 0.24392 0.0
N848 N 0.82972 0.05513 0.29773 0.0
C849 C 0.81394 0.08912 0.28335 0.0
C850 C 0.84072 0.07646 0.21963 0.0
Eu851 Eu 0.82496 0.03581 0.3647 0.0
N852 N 0.87146 0.99694 0.33155 0.0
C853 C 0.898 0.97408 0.35113 0.0
C854 C 0.93181 0.96096 0.29113 0.0
C855 C 0.92777 0.95504 0.33121 0.0
H856 H 0.79813 0.10834 0.3024 0.0
H857 H 0.94851 0.93695 0.3471 0.0
H858 H 0.93352 0.98067 0.21456 0.0
H859 H 0.80419 0.12566 0.23254 0.0
H860 H 0.89811 0.97184 0.38239 0.0
H861 H 0.6171 0.0463 0.45946 0.0
H862 H 0.95619 0.94767 0.27627 0.0
H863 H 0.79629 0.89638 0.44031 0.0
H864 H 0.66778 0.03238 0.41142 0.0
H865 H 0.7985 0.85737 0.50125 0.0
H866 H 0.893 0.03107 0.18296 0.0
H867 H 0.61652 0.01148 0.52313 0.0
H868 H 0.64651 0.96138 0.56791 0.0
H869 H 0.84459 0.08507 0.18928 0.0
H870 H 0.69615 0.91073 0.57965 0.0
N871 N 0.69687 0.98963 0.44706 0.0
C872 C 0.66837 0.01655 0.43879 0.0
C873 C 0.63905 1.00498 0.502 0.0
C874 C 0.6677 0.97693 0.51012 0.0
C875 C 0.63925 0.02467 0.46609 0.0
C876 C 0.69645 0.96955 0.48161 0.0
H877 H 0.75295 0.87191 0.55513 0.0
N878 N 0.75076 0.93361 0.45979 0.0
C879 C 0.77758 0.88085 0.49808 0.0
C880 C 0.72423 0.94082 0.4882 0.0
C881 C 0.77614 0.90295 0.4635 0.0
C882 C 0.75184 0.88917 0.5284 0.0
C883 C 0.72427 0.91898 0.52346 0.0
O884 O 0.73301 0.9149 0.37866 0.0
O885 O 0.79163 0.98191 0.35433 0.0
O886 O 0.76661 0.04865 0.32984 0.0
O887 O 0.71753 0.0188 0.36715 0.0
O888 O 0.78683 0.92656 0.37497 0.0
O889 O 0.68853 0.95929 0.37762 0.0
O890 O 0.87246 0.07523 0.34855 0.0
O891 O 0.77769 0.03462 0.41128 0.0
O892 O 0.78894 0.98109 0.45216 0.0
O893 O 0.84483 0.99461 0.41611 0.0
O894 O 0.78868 0.08668 0.38032 0.0
O895 O 0.8655 0.06059 0.4094 0.0
C896 C 0.80395 0.9477 0.34878 0.0
C897 C 0.66738 0.89182 0.37875 0.0
C898 C 0.63407 0.82954 0.36241 0.0
C899 C 0.66087 0.86006 0.35278 0.0
C900 C 0.61425 0.83132 0.3982 0.0
C901 C 0.64679 0.89258 0.4141 0.0
C902 C 0.62046 0.86257 0.42366 0.0
C903 C 0.72889 0.04091 0.33792 0.0
C904 C 0.69683 0.92293 0.36961 0.0
C905 C 0.69645 0.92705 0.55231 0.0
C906 C 0.66817 0.95588 0.54561 0.0
C907 C 0.76852 0.07168 0.40879 0.0
C908 C 0.90337 0.11837 0.39257 0.0
C909 C 0.9408 0.12189 0.41062 0.0
C910 C 0.95881 0.15903 0.41478 0.0
C911 C 0.93848 0.19212 0.40157 0.0
C912 C 0.88457 0.15211 0.37852 0.0
C913 C 0.90177 0.18877 0.38362 0.0
C914 C 0.82729 0.98266 0.449 0.0
C915 C 0.88659 0.07942 0.38362 0.0
H916 H 0.67668 0.85895 0.32542 0.0
H917 H 0.59382 0.80839 0.40647 0.0
H918 H 0.65124 0.91625 0.43451 0.0
H919 H 0.60486 0.86344 0.45111 0.0
H920 H 0.95619 0.09595 0.42047 0.0
H921 H 0.95108 0.22064 0.40501 0.0
H922 H 0.85656 0.15006 0.36343 0.0
H923 H 0.8868 0.2147 0.37322 0.0
Eu924 Eu 0.29833 0.47708 0.65035 0.0
C925 C 0.25017 0.58226 0.52949 0.0
C926 C 0.28569 0.64357 0.53555 0.0
C927 C 0.27467 0.61587 0.47124 0.0
C928 C 0.26744 0.61053 0.55292 0.0
C929 C 0.2527 0.5854 0.48826 0.0
C930 C 0.29071 0.64521 0.49483 0.0
C931 C 0.20495 0.53345 0.48312 0.0
N932 N 0.2274 0.55432 0.54668 0.0
C933 C 0.20249 0.53229 0.52393 0.0
C934 C 0.23103 0.55936 0.46519 0.0
Eu935 Eu 0.23139 0.55038 0.61668 0.0
N936 N 0.26334 0.60769 0.59239 0.0
C937 C 0.27099 0.63965 0.6152 0.0
C938 C 0.29704 0.6747 0.55945 0.0
C939 C 0.28863 0.67316 0.5993 0.0
H940 H 0.18007 0.51391 0.53679 0.0
H941 H 0.29554 0.69785 0.61779 0.0
H942 H 0.30574 0.66975 0.48118 0.0
H943 H 0.18608 0.51492 0.4655 0.0
H944 H 0.26321 0.63992 0.64576 0.0
H945 H 0.19002 0.36647 0.69269 0.0
H946 H 0.31085 0.70064 0.5472 0.0
H947 H 0.37803 0.5086 0.69864 0.0
H948 H 0.22307 0.41313 0.64829 0.0
H949 H 0.40841 0.50187 0.76445 0.0
H950 H 0.27747 0.61825 0.43973 0.0
H951 H 0.21429 0.35778 0.76065 0.0
H952 H 0.2639 0.37528 0.81265 0.0
H953 H 0.23229 0.56076 0.43351 0.0
H954 H 0.32292 0.41234 0.83229 0.0
N955 N 0.26512 0.43133 0.69069 0.0
C956 C 0.23395 0.40961 0.67778 0.0
C957 C 0.22891 0.37834 0.74125 0.0
C958 C 0.2617 0.3998 0.75393 0.0
C959 C 0.21513 0.38313 0.7029 0.0
C960 C 0.2795 0.42634 0.72755 0.0
H961 H 0.37697 0.45962 0.81456 0.0
N962 N 0.3292 0.47222 0.71239 0.0
C963 C 0.38132 0.48657 0.75768 0.0
C964 C 0.31254 0.44737 0.73873 0.0
C965 C 0.36408 0.49043 0.72058 0.0
C966 C 0.36347 0.46269 0.78588 0.0
C967 C 0.32897 0.44226 0.77642 0.0
O968 O 0.3581 0.46607 0.63012 0.0
O969 O 0.28821 0.5235 0.60414 0.0
O970 O 0.21643 0.48846 0.58799 0.0
O971 O 0.26991 0.44843 0.59934 0.0
O972 O 0.34208 0.52438 0.63018 0.0
O973 O 0.31701 0.41815 0.63344 0.0
O974 O 0.17288 0.57113 0.59592 0.0
O975 O 0.23133 0.49218 0.64916 0.0
O976 O 0.29284 0.51993 0.70014 0.0
O977 O 0.27559 0.57456 0.66376 0.0
O978 O 0.2049 0.53867 0.67558 0.0
O979 O 0.19952 0.59374 0.64969 0.0
C980 C 0.3213 0.54044 0.60283 0.0
C981 C 0.38561 0.40264 0.63347 0.0
C982 C 0.44674 0.37033 0.61404 0.0
C983 C 0.41437 0.39453 0.60487 0.0
C984 C 0.44974 0.35449 0.652 0.0
C985 C 0.38949 0.3863 0.67105 0.0
C986 C 0.42134 0.36231 0.68014 0.0
C987 C 0.23732 0.45595 0.58061 0.0
C988 C 0.3525 0.42901 0.62398 0.0
C989 C 0.31088 0.41649 0.8031 0.0
C990 C 0.2773 0.39534 0.79189 0.0
C991 C 0.20926 0.50162 0.67825 0.0
C992 C 0.13602 0.62084 0.63306 0.0
C993 C 0.13909 0.65247 0.6597 0.0
C994 C 0.10653 0.67687 0.66668 0.0
C995 C 0.07089 0.6685 0.64764 0.0
C996 C 0.1 0.61377 0.6142 0.0
C997 C 0.06768 0.63733 0.62164 0.0
C998 C 0.28896 0.55803 0.69679 0.0
C999 C 0.16961 0.59434 0.62596 0.0
H1000 H 0.4118 0.40727 0.5758 0.0
H1001 H 0.47426 0.33613 0.65997 0.0
H1002 H 0.36803 0.39226 0.6934 0.0
H1003 H 0.42418 0.34988 0.70927 0.0
H1004 H 0.16663 0.65843 0.67461 0.0
H1005 H 0.04542 0.68619 0.65303 0.0
H1006 H 0.09664 0.58961 0.59411 0.0
H1007 H 0.03991 0.63135 0.60724 0.0
C1008 C 0.24274 0.35729 0.52932 0.0
C1009 C 0.20932 0.3375 0.54545 0.0
C1010 C 0.18873 0.40111 0.57232 0.0
C1011 C 0.22205 0.42047 0.55839 0.0
N1012 N 0.27621 0.41923 0.51469 0.0
N1013 N 0.16289 0.34096 0.59682 0.0
C1014 C 0.24801 0.39891 0.53446 0.0
C1015 C 0.18539 0.3596 0.57044 0.0
N1016 N 0.27056 0.33569 0.51096 0.0
N1017 N 0.15859 0.42267 0.58569 0.0
H1018 H 0.15791 0.3114 0.59599 0.0
H1019 H 0.15694 0.35415 0.62316 0.0
H1020 H 0.15729 0.45265 0.58075 0.0
H1021 H 0.13268 0.41005 0.59477 0.0
H1022 H 0.29699 0.34702 0.50074 0.0
H1023 H 0.26874 0.30526 0.50935 0.0
H1024 H 0.29528 0.407 0.49466 0.0
H1025 H 0.27699 0.4497 0.51535 0.0
C1026 C 0.88688 1.00923 0.81129 0.0
C1027 C 0.85186 0.98612 0.81414 0.0
C1028 C 0.89042 0.92746 0.80855 0.0
C1029 C 0.92674 0.94896 0.80732 0.0
N1030 N 0.95826 0.01253 0.80701 0.0
N1031 N 0.82256 0.92828 0.78843 0.0
C1032 C 0.92466 0.99068 0.80838 0.0
C1033 C 0.85424 0.94683 0.80412 0.0
N1034 N 0.88317 0.04889 0.80793 0.0
N1035 N 0.8899 0.88844 0.81685 0.0
H1036 H 0.79762 0.94395 0.78028 0.0
H1037 H 0.82389 0.89975 0.77797 0.0
H1038 H 0.91463 0.8743 0.82743 0.0
H1039 H 0.86405 0.87206 0.81906 0.0
H1040 H 0.90632 0.06851 0.80443 0.0
H1041 H 0.85574 0.06203 0.80488 0.0
H1042 H 0.95958 0.04259 0.811 0.0
H1043 H 0.98576 1.00047 0.80351 0.0
C1044 C 0.28244 0.66378 0.05514 0.0
C1045 C 0.32056 0.67467 0.0679 0.0
C1046 C 0.33368 0.60675 0.08696 0.0
C1047 C 0.29488 0.5956 0.07725 0.0
N1048 N 0.23073 0.61449 0.05398 0.0
N1049 N 0.37391 0.65923 0.11131 0.0
C1050 C 0.26881 0.62452 0.06167 0.0
C1051 C 0.34371 0.64687 0.0882 0.0
N1052 N 0.25927 0.69099 0.0372 0.0
N1053 N 0.36131 0.57922 0.09503 0.0
H1054 H 0.3784 0.68877 0.11668 0.0
H1055 H 0.38927 0.64048 0.12999 0.0
H1056 H 0.35573 0.54962 0.09136 0.0
H1057 H 0.39079 0.58614 0.09987 0.0
H1058 H 0.23306 0.68443 0.02279 0.0
H1059 H 0.26674 0.72059 0.03662 0.0
H1060 H 0.20879 0.63448 0.04719 0.0
H1061 H 0.22074 0.58573 0.05585 0.0
C1062 C 0.64385 0.10852 0.32453 0.0
C1063 C 0.61692 0.08531 0.30242 0.0
C1064 C 0.66738 0.03519 0.29698 0.0
C1065 C 0.69528 0.0594 0.31672 0.0
N1066 N 0.71181 0.124 0.33901 0.0
N1067 N 0.61229 0.03601 0.25254 0.0
C1068 C 0.68405 0.09766 0.3272 0.0
C1069 C 0.63119 0.05125 0.28427 0.0
N1070 N 0.63112 0.14103 0.34318 0.0
N1071 N 0.67465 0.99658 0.29091 0.0
H1072 H 0.58995 0.0511 0.23825 0.0
H1073 H 0.62309 0.01239 0.23691 0.0
H1074 H 0.70041 0.98313 0.29992 0.0
H1075 H 0.65337 0.97741 0.27998 0.0
H1076 H 0.64793 0.15643 0.36355 0.0
H1077 H 0.60258 0.15079 0.3402 0.0
H1078 H 0.70594 0.15329 0.34445 0.0
H1079 H 0.74149 0.1177 0.33811 0.0
C1080 C 0.75164 0.17301 0.45433 0.0
C1081 C 0.71546 0.16763 0.47426 0.0
C1082 C 0.72742 0.09501 0.46925 0.0
C1083 C 0.75465 0.10176 0.4393 0.0
N1084 N 0.81122 0.14295 0.43209 0.0
N1085 N 0.68125 0.12019 0.51562 0.0
C1086 C 0.77208 0.13991 0.43932 0.0
C1087 C 0.70673 0.12758 0.48604 0.0
N1088 N 0.76882 0.20906 0.45259 0.0
N1089 N 0.72736 0.05922 0.48687 0.0
H1090 H 0.67488 0.14079 0.53667 0.0
H1091 H 0.66813 0.09295 0.52033 0.0
H1092 H 0.74657 0.03755 0.47805 0.0
H1093 H 0.71278 0.05271 0.5128 0.0
H1094 H 0.791 0.21616 0.43291 0.0
H1095 H 0.7628 0.23095 0.47256 0.0
H1096 H 0.82773 0.16838 0.43577 0.0
H1097 H 0.82834 0.11815 0.42935 0.0
C1098 C 0.12903 0.46389 0.74967 0.0
C1099 C 0.09705 0.45271 0.72474 0.0
C1100 C 0.13663 0.47922 0.66981 0.0
C1101 C 0.1719 0.48053 0.69299 0.0
N1102 N 0.19912 0.4761 0.75808 0.0
N1103 N 0.07405 0.44767 0.65864 0.0
C1104 C 0.16718 0.47336 0.73389 0.0
C1105 C 0.10172 0.46055 0.68426 0.0
N1106 N 0.12225 0.46674 0.78881 0.0
N1107 N 0.13545 0.49725 0.63429 0.0
H1108 H 0.05233 0.4284 0.6678 0.0
H1109 H 0.07603 0.4513 0.62842 0.0
H1110 H 0.16025 0.50916 0.62177 0.0
H1111 H 0.10951 0.50243 0.61877 0.0
H1112 H 0.14269 0.47757 0.80885 0.0
H1113 H 0.0942 0.46248 0.80014 0.0
H1114 H 0.19886 0.46717 0.78731 0.0
H1115 H 0.22673 0.48464 0.74809 0.0
C1116 C 0.7901 0.93045 0.9917 0.0
C1117 C 0.797 0.94375 0.95274 0.0
C1118 C 0.81142 0.87559 0.93441 0.0
C1119 C 0.80908 0.86274 0.97381 0.0
N1120 N 0.79821 0.87971 0.04134 0.0
N1121 N 0.83066 0.92932 0.89361 0.0
C1122 C 0.79901 0.89083 1.00285 0.0
C1123 C 0.81181 0.91635 0.92585 0.0
N1124 N 0.77432 0.95569 0.01796 0.0
N1125 N 0.81553 0.84941 0.90488 0.0
H1126 H 0.83834 0.95836 0.89098 0.0
H1127 H 0.84537 0.91079 0.87496 0.0
H1128 H 0.81688 0.81953 0.90959 0.0
H1129 H 0.81391 0.85738 0.87537 0.0
H1130 H 0.76382 0.94709 0.04528 0.0
H1131 H 0.77032 0.98532 1.01157 0.0
H1132 H 0.79642 0.89934 0.06438 0.0
H1133 H 0.801 0.85067 0.05034 0.0
C1134 C 0.41032 0.52897 0.22028 0.0
C1135 C 0.41149 0.56752 0.23573 0.0
C1136 C 0.33896 0.57056 0.22545 0.0
C1137 C 0.33912 0.53534 0.20474 0.0
N1138 N 0.36861 0.47247 0.2078 0.0
N1139 N 0.3702 0.6085 0.27613 0.0
C1140 C 0.37323 0.51192 0.20928 0.0
C1141 C 0.37384 0.58409 0.24496 0.0
N1142 N 0.44358 0.5073 0.21838 0.0
N1143 N 0.30439 0.58887 0.2299 0.0
H1144 H 0.39181 0.61094 0.29756 0.0
H1145 H 0.34372 0.62032 0.28506 0.0
H1146 H 0.27876 0.57333 0.22429 0.0
H1147 H 0.30185 0.61722 0.24042 0.0
H1148 H 0.44496 0.48125 0.20283 0.0
H1149 H 0.46943 0.51498 0.23282 0.0
H1150 H 0.39093 0.45275 0.21433 0.0
H1151 H 0.34048 0.46035 0.20638 0.0
C1152 C 0.54594 0.23974 0.3584 0.0
C1153 C 0.54152 0.1984 0.35443 0.0
C1154 C 0.55735 0.1933 0.42544 0.0
C1155 C 0.57276 0.23099 0.4263 0.0
N1156 N 0.56891 0.29475 0.39794 0.0
N1157 N 0.54536 0.13582 0.38823 0.0
C1158 C 0.56332 0.25565 0.39368 0.0
C1159 C 0.54806 0.17533 0.3892 0.0
N1160 N 0.53187 0.26373 0.32943 0.0
N1161 N 0.54477 0.17738 0.45947 0.0
H1162 H 0.54021 0.12149 0.36231 0.0
H1163 H 0.55248 0.11797 0.41216 0.0
H1164 H 0.54358 0.19487 0.48426 0.0
H1165 H 0.52942 0.15093 0.46085 0.0
H1166 H 0.53132 0.29406 0.33117 0.0
H1167 H 0.5191 0.25299 0.30379 0.0
H1168 H 0.56733 0.31515 0.37521 0.0
H1169 H 0.57403 0.30615 0.42575 0.0
C1170 C 0.07747 0.33355 0.61526 0.0
C1171 C 0.07131 0.29506 0.60316 0.0
C1172 C 0.03803 0.28436 0.66631 0.0
C1173 C 0.05664 0.31843 0.68166 0.0
N1174 N 0.10322 0.36946 0.67021 0.0
N1175 N 0.03973 0.23327 0.61779 0.0
C1176 C 0.07983 0.34072 0.65584 0.0
C1177 C 0.05037 0.26981 0.62929 0.0
N1178 N 0.07615 0.36349 0.58901 0.0
N1179 N 1.00611 0.26844 0.68426 0.0
H1180 H 0.04259 0.22462 0.5889 0.0
H1181 H 0.02835 0.21228 0.637 0.0
H1182 H 0.99302 0.28165 0.70797 0.0
H1183 H 0.98975 0.24549 0.67241 0.0
H1184 H 0.07246 0.39206 0.5985 0.0
H1185 H 0.07145 0.35902 0.55917 0.0
H1186 H 0.11784 0.38943 0.65255 0.0
H1187 H 0.11085 0.37 0.69974 0.0
C1188 C 0.9631 0.85288 0.88235 0.0
C1189 C 0.97775 0.82484 0.85563 0.0
C1190 C 0.95447 0.77414 0.90318 0.0
C1191 C 0.93394 0.8026 0.92562 0.0
N1192 N 0.90931 0.86878 0.92387 0.0
N1193 N 0.98407 0.75665 0.84082 0.0
C1194 C 0.93543 0.84178 0.91138 0.0
C1195 C 0.97249 0.78477 0.8663 0.0
N1196 N 0.97664 0.89024 0.88168 0.0
N1197 N 0.95653 0.73668 0.91687 0.0
H1198 H 0.99662 0.76354 0.81385 0.0
H1199 H 0.97775 0.72702 0.84451 0.0
H1200 H 0.94411 0.72832 0.94331 0.0
H1201 H 0.97358 0.71514 0.9042 0.0
H1202 H 0.96863 0.91104 0.90226 0.0
H1203 H 0.99985 0.89818 0.86416 0.0
H1204 H 0.9075 0.89678 0.91163 0.0
H1205 H 0.88774 0.86215 0.94412 0.0
C1206 C 0.47325 0.74184 0.17712 0.0
C1207 C 0.47596 0.70035 0.18209 0.0
C1208 C 0.46413 0.69499 0.11072 0.0
C1209 C 0.45266 0.73392 0.10722 0.0
N1210 N 0.46141 0.79776 0.13311 0.0
N1211 N 0.46686 0.63773 0.15102 0.0
C1212 C 0.46159 0.75842 0.13966 0.0
C1213 C 0.46898 0.67719 0.14816 0.0
N1214 N 0.48129 0.76518 0.20841 0.0
N1215 N 0.47781 0.67713 0.07852 0.0
H1216 H 0.46749 0.62371 0.17788 0.0
H1217 H 0.4596 0.62016 0.12714 0.0
H1218 H 0.48226 0.69367 0.05318 0.0
H1219 H 0.49142 0.64992 0.07982 0.0
H1220 H 0.47824 0.79539 0.20843 0.0
H1221 H 0.48962 0.75367 0.23553 0.0
H1222 H 0.46904 0.81869 0.15373 0.0
H1223 H 0.45661 0.80899 0.10495 0.0
C1224 C 0.1998 0.44674 0.31862 0.0
C1225 C 0.18042 0.41002 0.31579 0.0
C1226 C 0.21341 0.39928 0.25247 0.0
C1227 C 0.22643 0.43891 0.25201 0.0
N1228 N 0.24443 0.4942 0.29266 0.0
N1229 N 0.16917 0.35045 0.28015 0.0
C1230 C 0.22364 0.46047 0.28742 0.0
C1231 C 0.18771 0.38589 0.28287 0.0
N1232 N 0.19453 0.46972 0.35064 0.0
N1233 N 0.22771 0.37367 0.22583 0.0
H1234 H 0.15211 0.33879 0.30267 0.0
H1235 H 0.16885 0.33365 0.25487 0.0
H1236 H 0.25076 0.38085 0.20734 0.0
H1237 H 0.22132 0.34386 0.22605 0.0
H1238 H 0.20746 0.49737 0.35321 0.0
H1239 H 0.17703 0.46139 0.37422 0.0
H1240 H 0.265 0.50501 0.27275 0.0
H1241 H 0.265 0.50501 0.27275 0.0
C1242 C 0.84846 0.95868 0.55582 0.0
C1243 C 0.87462 0.9267 0.55304 0.0
C1244 C 0.87537 0.93504 0.48142 0.0
C1245 C 0.84999 0.96773 0.48404 0.0
N1246 N 0.82195 0.01711 0.52485 0.0
N1247 N 0.92181 0.89238 0.5145 0.0
C1248 C 0.83979 0.98165 0.52172 0.0
C1249 C 0.89118 0.9178 0.51623 0.0
N1250 N 0.83015 0.96589 0.5904 0.0
N1251 N 0.88174 0.91804 0.44615 0.0
H1252 H 0.93407 0.87944 0.53951 0.0
H1253 H 0.93746 0.8874 0.48896 0.0
H1254 H 0.8689 0.92833 0.42052 0.0
H1255 H 0.8963 0.89159 0.44298 0.0
H1256 H 0.80727 0.98572 0.59296 0.0
H1257 H 0.83581 0.95 0.61599 0.0
H1258 H 0.81651 0.03042 0.55156 0.0
H1259 H 0.81652 0.03504 0.50054 0.0
C1260 C 0.34063 0.60072 0.73106 0.0
C1261 C 0.30303 0.58235 0.73129 0.0
C1262 C 0.29893 0.59656 0.80233 0.0
C1263 C 0.33549 0.6168 0.80109 0.0
N1264 N 0.38527 0.6472 0.7615 0.0
N1265 N 0.2432 0.56972 0.76639 0.0
C1266 C 0.35406 0.62213 0.76436 0.0
C1267 C 0.28115 0.58265 0.76672 0.0
N1268 N 0.36533 0.5948 0.70057 0.0
N1269 N 0.28208 0.58874 0.83771 0.0
H1270 H 0.22947 0.55963 0.74108 0.0
H1271 H 0.22439 0.57237 0.79007 0.0
H1272 H 0.29363 0.59917 0.86402 0.0
H1273 H 0.25816 0.56996 0.84123 0.0
H1274 H 0.39443 0.60429 0.70037 0.0
H1275 H 0.35816 0.57608 0.67785 0.0
H1276 H 0.39794 0.655 0.73485 0.0
H1277 H 0.39567 0.66325 0.78534 0.0
C1278 C 0.63566 0.0681 0.02785 0.0
C1279 C 0.63993 0.1084 0.03708 0.0
C1280 C 0.68136 0.11728 0.97913 0.0
C1281 C 0.68134 0.07645 0.9723 0.0
N1282 N 0.6621 0.0119 0.99415 0.0
N1283 N 0.67541 0.16878 0.02666 0.0
C1284 C 0.65945 0.05148 0.99781 0.0
C1285 C 0.66558 0.13205 1.01431 0.0
N1286 N 0.60798 0.046 0.04662 0.0
N1287 N 0.69482 0.14244 0.95108 0.0
H1288 H 0.66584 0.18002 0.05321 0.0
H1289 H 0.69617 0.18633 1.01263 0.0
H1290 H 0.70632 0.13274 0.92486 0.0
H1291 H 0.69151 0.17267 0.95254 0.0
H1292 H 0.60046 0.01768 0.03828 0.0
H1293 H 0.59051 0.05704 0.06882 0.0
H1294 H 0.65044 0.99214 1.01439 0.0
H1295 H 0.67836 0.99891 0.97222 0.0
C1296 C 0.73429 0.10992 0.74048 0.0
C1297 C 0.70656 0.14061 0.73995 0.0
C1298 C 0.69305 0.12764 0.80987 0.0
C1299 C 0.72171 0.09739 0.81094 0.0
N1300 N 0.75859 0.05164 0.77233 0.0
N1301 N 0.65328 0.17302 0.77121 0.0
C1302 C 0.73895 0.086 0.77476 0.0
C1303 C 0.68393 0.14757 0.77383 0.0
N1304 N 0.7575 0.10449 0.70855 0.0
N1305 N 0.6742 0.13709 0.84356 0.0
H1306 H 0.64607 0.18768 0.74524 0.0
H1307 H 0.6331 0.1773 0.79342 0.0
H1308 H 0.67574 0.11958 0.86861 0.0
H1309 H 0.65731 0.16204 0.84686 0.0
H1310 H 0.78206 0.08655 0.70886 0.0
H1311 H 0.75375 0.11995 0.68234 0.0
H1312 H 0.76878 0.04011 0.74622 0.0
H1313 H 0.75928 0.03173 0.79511 0.0
C1314 C 0.1914 0.47153 0.03149 0.0
C1315 C 0.17645 0.46008 0.06895 0.0
C1316 C 0.12606 0.42063 0.03429 0.0
C1317 C 0.14588 0.4262 0.99829 0.0
N1318 N 0.20075 0.45401 0.96353 0.0
N1319 N 0.13014 0.41972 0.10502 0.0
C1320 C 0.17943 0.45092 0.99713 0.0
C1321 C 0.14362 0.43384 0.06999 0.0
N1322 N 0.21537 0.50339 0.02801 0.0
N1323 N 0.08996 0.40299 0.03427 0.0
H1324 H 0.14263 0.42677 0.13198 0.0
H1325 H 0.10932 0.39739 0.10723 0.0
H1326 H 0.07623 0.3934 1.00863 0.0
H1327 H 0.07199 0.40164 0.05877 0.0
H1328 H 0.22437 0.51494 1.0012 0.0
H1329 H 0.22192 0.52141 0.05136 0.0
H1330 H 0.22785 0.46821 0.96217 0.0
H1331 H 0.193 0.43971 0.93774 0.0
C1332 C 0.80861 0.94565 0.27296 0.0
C1333 C 0.81954 0.93038 0.3107 0.0
C1334 C 0.85766 0.87957 0.27641 0.0
C1335 C 0.85268 0.89947 0.24011 0.0
N1336 N 0.82488 0.95356 0.20417 0.0
N1337 N 0.85628 0.88155 0.34708 0.0
C1338 C 0.8282 0.93283 0.23842 0.0
C1339 C 0.84421 0.89671 0.31193 0.0
N1340 N 0.77861 0.97156 0.26956 0.0
N1341 N 0.87434 0.84334 0.27677 0.0
H1342 H 0.84581 0.89087 0.37381 0.0
H1343 H 0.87877 0.86127 0.34991 0.0
H1344 H 0.8837 0.82969 0.25131 0.0
H1345 H 0.8751 0.82513 0.30136 0.0
H1346 H 0.76642 0.98037 0.24289 0.0
H1347 H 0.76298 0.98112 0.29335 0.0
H1348 H 0.81109 0.98056 0.20196 0.0
H1349 H 0.83871 0.9455 0.1784 0.0
C1350 C 0.34554 0.53239 0.53228 0.0
C1351 C 0.34075 0.55645 0.56589 0.0
C1352 C 0.37834 0.60875 0.53174 0.0
C1353 C 0.38316 0.58461 0.49849 0.0
N1354 N 0.36509 0.52601 0.46427 0.0
N1355 N 0.36014 0.61491 0.59984 0.0
C1356 C 0.36456 0.54737 0.49785 0.0
C1357 C 0.35938 0.59387 0.56612 0.0
N1358 N 0.33629 0.4936 0.53478 0.0
N1359 N 0.39062 0.64686 0.52964 0.0
H1360 H 0.34358 0.60704 0.62406 0.0
H1361 H 0.37795 0.63934 0.60429 0.0
H1362 H 0.40315 0.65889 0.50444 0.0
H1363 H 0.38503 0.66755 0.55101 0.0
H1364 H 0.3447 0.47318 0.51409 0.0
H1365 H 0.32404 0.48081 0.55955 0.0
H1366 H 0.34792 0.50106 0.46001 0.0
H1367 H 0.38011 0.53502 0.4393 0.0
C1368 C 0.24771 0.16957 0.43966 0.0
C1369 C 0.23979 0.21008 0.44245 0.0
C1370 C 0.30543 0.22412 0.41589 0.0
C1371 C 0.31612 0.18461 0.42241 0.0
N1372 N 0.29697 0.11865 0.4396 0.0
N1373 N 0.26066 0.27654 0.42967 0.0
C1374 C 0.28692 0.15679 0.43328 0.0
C1375 C 0.26828 0.23753 0.42883 0.0
N1376 N 0.21743 0.14343 0.44278 0.0
N1377 N 0.33082 0.24867 0.39676 0.0
H1378 H 0.23291 0.28729 0.43481 0.0
H1379 H 0.28202 0.29818 0.42611 0.0
H1380 H 0.35791 0.23936 0.38644 0.0
H1381 H 0.32359 0.27687 0.38767 0.0
H1382 H 0.22025 0.1136 0.43777 0.0
H1383 H 0.1886 0.15245 0.44682 0.0
H1384 H 0.27775 0.09765 0.45077 0.0
H1385 H 0.32534 0.1083 0.43582 0.0
C1386 C 0.11513 0.98935 0.65503 0.0
C1387 C 0.10657 0.02632 0.67148 0.0
C1388 C 0.05588 0.9942 0.7124 0.0
C1389 C 0.06831 0.95652 0.70033 0.0
N1390 N 0.1091 0.91864 0.65801 0.0
N1391 N 0.07115 0.06341 0.71901 0.0
C1392 C 0.09766 0.9544 0.67086 0.0
C1393 C 0.07751 0.02856 0.70099 0.0
N1394 N 0.139 0.98788 0.62308 0.0
N1395 N 0.02189 0.99756 0.73279 0.0
H1396 H 0.08565 0.08918 0.71097 0.0
H1397 H 0.05377 0.06607 0.74379 0.0
H1398 H 1.00464 0.97344 0.74031 0.0
H1399 H 1.00883 0.02431 0.73853 0.0
H1400 H 0.14355 0.96281 0.60675 0.0
H1401 H 0.15187 0.01274 0.61059 0.0
H1402 H 0.13376 0.914 0.64096 0.0
H1403 H 0.09491 0.89302 0.66638 0.0
C1404 C 0.26605 0.85539 0.92089 0.0
C1405 C 0.23254 0.83251 0.93102 0.0
C1406 C 0.27652 0.78077 0.95614 0.0
C1407 C 0.30947 0.80612 0.95177 0.0
N1408 N 0.33689 0.85905 0.91352 0.0
N1409 N 0.20585 0.77208 0.95639 0.0
C1410 C 0.30464 0.84069 0.92875 0.0
C1411 C 0.23794 0.79459 0.94757 0.0
N1412 N 0.26113 0.89241 0.90641 0.0
N1413 N 0.28234 0.74213 0.96443 0.0
H1414 H 0.17751 0.7794 0.94733 0.0
H1415 H 0.20713 0.7471 0.97401 0.0
H1416 H 0.30991 0.73034 0.96972 0.0
H1417 H 0.26049 0.72091 0.96156 0.0
H1418 H 0.28402 0.91248 0.90323 0.0
H1419 H 0.23367 0.90411 0.89994 0.0
H1420 H 0.33527 0.88162 0.89293 0.0
H1421 H 0.36546 0.84989 0.91935 0.0
C1422 C 0.43741 0.05174 0.17227 0.0
C1423 C 0.47005 0.05648 0.1985 0.0
C1424 C 0.48239 0.98576 0.19084 0.0
C1425 C 0.44526 0.97985 0.17311 0.0
N1426 N 0.38505 1.00851 0.14974 0.0
N1427 N 0.5198 0.02304 0.2369 0.0
C1428 C 0.42224 0.01326 0.16407 0.0
C1429 C 0.49153 0.02211 0.20877 0.0
N1430 N 0.42019 0.08381 0.15569 0.0
N1431 N 0.50905 0.95613 0.19098 0.0
H1432 H 0.52738 0.04828 0.25122 0.0
H1433 H 0.53261 0.99794 0.24876 0.0
H1434 H 0.50332 0.92941 0.17743 0.0
H1435 H 0.53796 0.95974 0.20055 0.0
H1436 H 0.39881 0.0819 0.1338 0.0
H1437 H 0.42949 0.11223 0.16144 0.0
H1438 H 0.36526 0.03146 0.14701 0.0
H1439 H 0.37306 0.98117 0.14333 0.0
C1440 C 0.78904 0.32495 0.58362 0.0
C1441 C 0.78577 0.35312 0.61396 0.0
C1442 C 0.71341 0.34439 0.61078 0.0
C1443 C 0.7166 0.31522 0.5811 0.0
N1444 N 0.76001 0.27011 0.54912 0.0
N1445 N 0.74458 0.38488 0.66063 0.0
C1446 C 0.75514 0.30349 0.57014 0.0
C1447 C 0.74787 0.36108 0.6289 0.0
N1448 N 0.82486 0.31865 0.56725 0.0
N1449 N 0.67718 0.35782 0.62059 0.0
H1450 H 0.76842 0.39928 0.67337 0.0
H1451 H 0.71881 0.38801 0.67639 0.0
H1452 H 0.65122 0.34609 0.60958 0.0
H1453 H 0.67265 0.38262 0.63736 0.0
H1454 H 0.82849 0.30331 0.54132 0.0
H1455 H 0.85078 0.33075 0.57838 0.0
H1456 H 0.78731 0.25797 0.54359 0.0
H1457 H 0.73699 0.25173 0.54117 0.0
C1458 C 0.98538 0.52732 0.83102 0.0
C1459 C 0.96238 0.49238 0.8284 0.0
C1460 C 0.90432 0.52882 0.85021 0.0
C1461 C 0.9269 0.56381 0.85122 0.0
N1462 N 0.99013 0.59507 0.85231 0.0
N1463 N 0.90253 0.45817 0.84475 0.0
C1464 C 0.96795 0.56244 0.84509 0.0
C1465 C 0.92266 0.49268 0.84106 0.0
N1466 N 0.02297 0.52787 0.81739 0.0
N1467 N 0.86477 0.53058 0.85626 0.0
H1468 H 0.91467 0.43133 0.8378 0.0
H1469 H 0.87509 0.45556 0.85769 0.0
H1470 H 0.85091 0.55598 0.86542 0.0
H1471 H 0.84541 0.50759 0.85065 0.0
H1472 H 0.03957 0.55329 0.81381 0.0
H1473 H 0.03699 0.50323 0.8069 0.0
H1474 H 0.02065 0.59546 0.85218 0.0
H1475 H 0.97791 0.62112 0.862 0.0
C1476 C 0.7528 0.7399 0.06194 0.0
C1477 C 0.78833 0.72213 0.07529 0.0
C1478 C 0.74779 0.6712 0.10889 0.0
C1479 C 0.71258 0.6891 0.09558 0.0
N1480 N 0.68204 0.7463 0.06817 0.0
N1481 N 0.81759 0.67699 0.12196 0.0
C1482 C 0.71538 0.72507 0.07447 0.0
C1483 C 0.78508 0.69001 0.10233 0.0
N1484 N 0.75449 0.77209 0.03827 0.0
N1485 N 0.74614 0.63485 0.12574 0.0
H1486 H 0.84589 0.68713 0.11642 0.0
H1487 H 0.81616 0.65741 0.14546 0.0
H1488 H 0.71986 0.62001 0.13093 0.0
H1489 H 0.77091 0.61805 0.13153 0.0
H1490 H 0.73083 0.78223 0.02171 0.0
H1491 H 0.77986 0.78856 0.03518 0.0
H1492 H 0.68182 0.77449 0.05643 0.0
H1493 H 0.65465 0.73727 0.07842 0.0
C1494 C 0.60606 0.52952 0.3872 0.0
C1495 C 0.59955 0.49282 0.36906 0.0
C1496 C 0.54961 0.52503 0.32669 0.0
C1497 C 0.56255 0.56305 0.33879 0.0
N1498 N 0.60517 0.59998 0.38232 0.0
N1499 N 0.56542 0.45615 0.31936 0.0
C1500 C 0.59105 0.56473 0.36982 0.0
C1501 C 0.57117 0.49068 0.33837 0.0
N1502 N 0.62588 0.53062 0.42213 0.0
N1503 N 0.51547 0.52112 0.30594 0.0
H1504 H 0.58028 0.43064 0.32701 0.0
H1505 H 0.54823 0.45359 0.29415 0.0
H1506 H 0.49685 0.54441 0.3002 0.0
H1507 H 0.50296 0.49413 0.29909 0.0
H1508 H 0.62808 0.55557 0.43931 0.0
H1509 H 0.63632 0.50545 0.43609 0.0
H1510 H 0.62987 0.60281 0.40025 0.0
H1511 H 0.59414 0.62668 0.37303 0.0
C1512 C 0.38934 0.25791 0.18808 0.0
C1513 C 0.39411 0.29291 0.20977 0.0
C1514 C 0.41793 0.25445 0.2665 0.0
C1515 C 0.41865 0.22058 0.24285 0.0
N1516 N 0.39412 0.18689 0.18656 0.0
N1517 N 0.40542 0.3245 0.27133 0.0
C1518 C 0.4003 0.22136 0.20548 0.0
C1519 C 0.40543 0.29094 0.24989 0.0
N1520 N 0.37703 0.26011 0.14995 0.0
N1521 N 0.42988 0.25134 0.30463 0.0
H1522 H 0.39514 0.35093 0.25982 0.0
H1523 H 0.4144 0.32649 0.30038 0.0
H1524 H 0.43629 0.22432 0.31736 0.0
H1525 H 0.4318 0.27442 0.32415 0.0
H1526 H 0.37694 0.23667 0.13076 0.0
H1527 H 0.36782 0.28617 0.1369 0.0
H1528 H 0.37871 0.18409 0.16033 0.0
H1529 H 0.40225 0.16035 0.19918 0.0
C1530 C 0.96586 0.26895 0.8039 0.0
C1531 C 0.94963 0.30727 0.80207 0.0
C1532 C 0.89574 0.28448 0.84494 0.0
C1533 C 0.91453 0.24778 0.84978 0.0
N1534 N 0.96945 0.20602 0.83709 0.0
N1535 N 0.8978 0.35121 0.81963 0.0
C1536 C 0.94981 0.24011 0.82968 0.0
C1537 C 0.91411 0.31487 0.82229 0.0
N1538 N 0.99737 0.2601 0.7815 0.0
N1539 N 0.85949 0.2896 0.8609 0.0
H1540 H 0.90821 0.37297 0.80079 0.0
H1541 H 0.87501 0.36068 0.83715 0.0
H1542 H 0.84524 0.26784 0.87713 0.0
H1543 H 0.84206 0.314 0.85597 0.0
H1544 H 1.00675 0.23174 0.77624 0.0
H1545 H 0.01377 0.2814 0.76737 0.0
H1546 H 0.99764 0.20039 0.82723 0.0
H1547 H 0.95902 0.18415 0.85582 0.0
C1548 C 1.00171 0.6299 0.06789 0.0
C1549 C 0.03658 0.65241 0.07332 0.0
C1550 C 1.00793 0.70524 0.03296 0.0
C1551 C 0.97129 0.68509 0.03254 0.0
N1552 N 0.93938 0.62233 0.03343 0.0
N1553 N 0.07489 0.7098 0.05815 0.0
C1554 C 0.96997 0.64547 0.04501 0.0
C1555 C 0.04052 0.68929 0.05419 0.0
N1556 N 0.99822 0.59443 0.08628 0.0
N1557 N 1.01143 0.73929 1.01198 0.0
H1558 H 0.09961 0.6981 0.07199 0.0
H1559 H 0.07903 0.7385 0.04872 0.0
H1560 H 0.98819 0.75078 0.99559 0.0
H1561 H 0.03752 0.75474 1.00823 0.0
H1562 H 0.97206 0.57862 0.08778 0.0
H1563 H 0.02132 0.58161 0.10184 0.0
H1564 H 0.93745 0.59249 0.03943 0.0
H1565 H 0.91864 0.632 1.0131 0.0
C1566 C 0.59822 0.79855 0.30478 0.0
C1567 C 0.62578 0.7952 0.33597 0.0
C1568 C 0.62503 0.72333 0.32797 0.0
C1569 C 0.59656 0.72666 0.29746 0.0
N1570 N 0.56759 0.76809 0.24831 0.0
N1571 N 0.67243 0.75553 0.371 0.0
C1572 C 0.58689 0.7646 0.28325 0.0
C1573 C 0.64153 0.75786 0.34539 0.0
N1574 N 0.58129 0.83385 0.29683 0.0
N1575 N 0.6351 0.68719 0.34147 0.0
H1576 H 0.68488 0.7802 0.38408 0.0
H1577 H 0.68784 0.72994 0.37674 0.0
H1578 H 0.62563 0.66194 0.32759 0.0
H1579 H 0.65147 0.6822 0.36686 0.0
H1580 H 0.55738 0.83715 0.27794 0.0
H1581 H 0.58944 0.8595 0.31117 0.0
H1582 H 0.56234 0.79478 0.23439 0.0
H1583 H 0.56105 0.74379 0.23119 0.0
C1584 C 0.54887 0.36698 0.56889 0.0
C1585 C 0.54535 0.33462 0.543 0.0
C1586 C 0.47476 0.32978 0.55893 0.0
C1587 C 0.47858 0.36168 0.58504 0.0
N1588 N 0.51641 0.41695 0.60695 0.0
N1589 N 0.50212 0.29397 0.50455 0.0
C1590 C 0.51473 0.3824 0.5872 0.0
C1591 C 0.50725 0.31896 0.53521 0.0
N1592 N 0.58498 0.38152 0.57825 0.0
N1593 N 0.44061 0.30866 0.558 0.0
H1594 H 0.52498 0.28669 0.48586 0.0
H1595 H 0.47477 0.28387 0.49515 0.0
H1596 H 0.41592 0.31643 0.57393 0.0
H1597 H 0.4376 0.28214 0.54346 0.0
H1598 H 0.59017 0.40107 0.60094 0.0
H1599 H 0.61021 0.37216 0.56475 0.0
H1600 H 0.54062 0.43569 0.6064 0.0
H1601 H 0.49212 0.42869 0.6209 0.0
C1602 C 0.12311 0.74803 0.67941 0.0
C1603 C 0.10841 0.71161 0.69353 0.0
C1604 C 0.08456 0.74464 0.75268 0.0
C1605 C 0.09283 0.78156 0.73534 0.0
N1606 N 0.12323 0.8189 0.68412 0.0
N1607 N 0.07673 0.67438 0.74454 0.0
C1608 C 0.11389 0.78326 0.69963 0.0
C1609 C 0.09011 0.70964 0.7308 0.0
N1610 N 0.14532 0.74894 0.64626 0.0
N1611 N 0.07166 0.74341 0.79041 0.0
H1612 H 0.08229 0.64812 0.73035 0.0
H1613 H 0.05896 0.67115 0.769 0.0
H1614 H 0.06878 0.76877 0.8069 0.0
H1615 H 0.0674 0.71773 0.80642 0.0
H1616 H 0.15993 0.77371 0.63594 0.0
H1617 H 0.15148 0.724 0.63018 0.0
H1618 H 0.13376 0.82353 0.65594 0.0
H1619 H 0.11928 0.84432 0.6999 0.0
C1620 C 0.52497 0.81968 0.99118 0.0
C1621 C 0.48792 0.83844 0.99332 0.0
C1622 C 0.51388 0.89278 0.95312 0.0
C1623 C 0.54856 0.87117 0.94616 0.0
N1624 N 0.58789 0.81417 0.95878 0.0
N1625 N 0.4567 0.90148 0.99374 0.0
C1626 C 0.5546 0.83492 0.96583 0.0
C1627 C 0.48496 0.87763 0.97942 0.0
N1628 N 0.53237 0.78847 0.01535 0.0
N1629 N 0.50786 0.92719 0.93341 0.0
H1630 H 0.43984 0.89369 0.01781 0.0
H1631 H 0.45437 0.931 0.98651 0.0
H1632 H 0.52891 0.93999 0.91527 0.0
H1633 H 0.48114 0.94175 0.93303 0.0
H1634 H 0.55946 0.77479 0.01771 0.0
H1635 H 0.51241 0.77907 0.03653 0.0
H1636 H 0.59196 0.78534 0.96786 0.0
H1637 H 0.61084 0.82512 0.94179 0.0
C1638 C 1.00162 0.17264 0.47394 0.0
C1639 C 0.99861 0.16439 0.43338 0.0
C1640 C 0.07004 0.17573 0.42707 0.0
C1641 C 0.07276 0.18522 0.46736 0.0
N1642 N 0.04357 0.17829 0.53098 0.0
N1643 N 0.03174 0.15709 0.37124 0.0
C1644 C 0.03918 0.17972 0.4913 0.0
C1645 C 0.03314 0.16528 0.41016 0.0
N1646 N 0.96837 0.17504 0.49587 0.0
N1647 N 0.10283 0.17649 0.40441 0.0
H1648 H 1.00614 0.14926 0.35617 0.0
H1649 H 1.00614 0.14926 0.35617 0.0
H1650 H 0.13052 0.18368 0.41548 0.0
H1651 H 0.1021 0.16988 0.37463 0.0
H1652 H 0.96819 0.18618 0.52416 0.0
H1653 H 0.94048 0.16843 0.48488 0.0
H1654 H 0.02139 0.16911 0.54982 0.0
H1655 H 0.07058 0.18221 0.54484 0.0
loop_
_geom_bond_atom_site_label_1
_geom_bond_atom_site_label_2
_geom_bond_distance
_geom_bond_site_symmetry_2
_ccdc_geom_bond_type
Eu0 N31 2.657 . S
Eu0 N38 2.609 . S
Eu0 O44 2.558 . S
Eu0 O45 2.612 . S
Eu0 O47 2.339 . S
Eu0 O48 2.563 . S
Eu0 O49 2.419 . S
Eu0 O51 2.380 . S
Eu0 O52 2.432 . S
Eu0 C64 2.848 . S
C1 C4 1.429 . S
C1 C5 1.411 1_455 S
C1 N8 1.377 . S
C2 C4 1.420 . S
C2 C6 1.423 1_455 S
C2 C14 1.392 . S
C3 C5 1.420 . S
C3 C6 1.351 . S
C3 H26 0.931 . S
C4 C1 1.429 . S
C4 C2 1.420 . S
C4 N12 1.362 . S
C5 C1 1.411 1_655 S
C5 C3 1.420 . S
C5 C10 1.395 . S
C6 C2 1.423 1_655 S
C6 C3 1.351 . S
C6 H18 0.930 . S
C7 C9 1.400 1_655 S
C7 C10 1.386 . S
C7 H19 0.930 . S
N8 C1 1.377 . S
N8 C9 1.321 . S
N8 Eu11 2.609 . S
C9 C7 1.400 1_455 S
C9 N8 1.321 . S
C9 H16 0.930 . S
C10 C5 1.395 . S
C10 C7 1.386 . S
C10 H29 0.930 . S
Eu11 N8 2.609 . S
Eu11 N12 2.657 . S
Eu11 O45 2.380 . S
Eu11 O46 2.432 . S
Eu11 O50 2.558 . S
Eu11 O51 2.612 . S
Eu11 O53 2.339 . S
Eu11 O54 2.563 . S
Eu11 O55 2.419 . S
Eu11 C75 2.848 . S
N12 C4 1.362 . S
N12 Eu11 2.657 . S
N12 C13 1.334 . S
C13 N12 1.334 . S
C13 C15 1.413 . S
C13 H20 0.929 . S
C14 C2 1.392 . S
C14 C15 1.367 . S
C14 H22 0.930 . S
C15 C13 1.413 . S
C15 C14 1.367 . S
C15 H17 0.930 . S
H16 C9 0.930 . S
H17 C15 0.930 . S
H18 C6 0.930 . S
H19 C7 0.930 . S
H20 C13 0.929 . S
H21 C35 0.930 . S
H22 C14 0.930 . S
H23 C41 0.930 . S
H24 C32 0.929 . S
H25 C39 0.930 . S
H26 C3 0.931 . S
H27 C33 0.930 . S
H28 C66 0.930 . S
H29 C10 0.930 . S
H30 C65 0.931 . S
N31 Eu0 2.657 . S
N31 C32 1.334 . S
N31 C36 1.362 . S
C32 H24 0.929 . S
C32 N31 1.334 . S
C32 C35 1.413 . S
C33 H27 0.930 . S
C33 C34 1.392 . S
C33 C35 1.367 . S
C34 C33 1.392 . S
C34 C36 1.420 . S
C34 C66 1.423 . S
C35 H21 0.930 . S
C35 C32 1.413 . S
C35 C33 1.367 . S
C36 N31 1.362 . S
C36 C34 1.420 . S
C36 C40 1.429 . S
H37 C42 0.930 . S
N38 Eu0 2.609 . S
N38 C40 1.377 . S
N38 C41 1.321 . S
C39 H25 0.930 . S
C39 C41 1.400 . S
C39 C42 1.386 . S
C40 C36 1.429 . S
C40 N38 1.377 . S
C40 C43 1.411 . S
C41 H23 0.930 . S
C41 N38 1.321 . S
C41 C39 1.400 . S
C42 H37 0.930 . S
C42 C39 1.386 . S
C42 C43 1.395 . S
C43 C40 1.411 . S
C43 C42 1.395 . S
C43 C65 1.420 . S
O44 Eu0 2.558 . S
O44 C64 1.257 . S
O45 Eu0 2.612 . S
O45 Eu11 2.380 . S
O45 C56 1.276 . S
O46 Eu11 2.432 . S
O46 C63 1.264 . S
O47 Eu0 2.339 . S
O47 C63 1.254 . S
O48 Eu0 2.563 . S
O48 C56 1.235 . S
O49 Eu0 2.419 . S
O49 C64 1.249 . S
O50 Eu11 2.558 . S
O50 C75 1.257 . S
O51 Eu0 2.380 . S
O51 Eu11 2.612 . S
O51 C67 1.276 . S
O52 Eu0 2.432 . S
O52 C74 1.264 . S
O53 Eu11 2.339 . S
O53 C74 1.254 . S
O54 Eu11 2.563 . S
O54 C67 1.235 . S
O55 Eu11 2.419 . S
O55 C75 1.249 . S
C56 O45 1.276 . S
C56 O48 1.235 . S
C57 C59 1.393 . S
C57 C61 1.395 . S
C57 C64 1.492 . S
C58 C59 1.392 . S
C58 C60 1.386 . S
C59 C57 1.393 . S
C59 C58 1.392 . S
C59 H76 0.930 . S
C60 C58 1.386 . S
C60 C62 1.395 . S
C60 H77 0.930 . S
C61 C57 1.395 . S
C61 C62 1.379 . S
C61 H78 0.930 . S
C62 C60 1.395 . S
C62 C61 1.379 . S
C62 H79 0.930 . S
C63 O46 1.264 . S
C63 O47 1.254 . S
C64 Eu0 2.848 . S
C64 O44 1.257 . S
C64 O49 1.249 . S
C64 C57 1.492 . S
C65 H30 0.931 . S
C65 C43 1.420 . S
C65 C66 1.351 . S
C66 H28 0.930 . S
C66 C34 1.423 . S
C66 C65 1.351 . S
C67 O51 1.276 . S
C67 O54 1.235 . S
C68 C69 1.393 . S
C68 C72 1.395 . S
C68 C75 1.492 . S
C69 C68 1.393 . S
C69 C70 1.392 . S
C69 H80 0.930 . S
C70 C69 1.392 . S
C70 C71 1.386 . S
C71 C70 1.386 . S
C71 C73 1.395 . S
C71 H81 0.930 . S
C72 C68 1.395 . S
C72 C73 1.379 . S
C72 H82 0.930 . S
C73 C71 1.395 . S
C73 C72 1.379 . S
C73 H83 0.930 . S
C74 O52 1.264 . S
C74 O53 1.254 . S
C75 Eu11 2.848 . S
C75 O50 1.257 . S
C75 O55 1.249 . S
C75 C68 1.492 . S
H76 C59 0.930 . S
H77 C60 0.930 . S
H78 C61 0.930 . S
H79 C62 0.930 . S
H80 C69 0.930 . S
H81 C71 0.930 . S
H82 C72 0.930 . S
H83 C73 0.930 . S
Eu84 N115 2.657 . S
Eu84 N122 2.609 . S
Eu84 O128 2.558 . S
Eu84 O129 2.612 1_655 S
Eu84 O131 2.339 . S
Eu84 O132 2.563 . S
Eu84 O133 2.419 . S
Eu84 O135 2.380 . S
Eu84 O136 2.432 1_655 S
Eu84 C148 2.848 . S
C85 C88 1.429 . S
C85 C89 1.411 1_565 S
C85 N92 1.377 . S
C86 C88 1.420 . S
C86 C90 1.423 1_565 S
C86 C98 1.392 . S
C87 C89 1.420 . S
C87 C90 1.351 . S
C87 H110 0.931 . S
C88 C85 1.429 . S
C88 C86 1.420 . S
C88 N96 1.362 . S
C89 C85 1.411 1_545 S
C89 C87 1.420 . S
C89 C94 1.395 . S
C90 C86 1.423 1_545 S
C90 C87 1.351 . S
C90 H102 0.930 . S
C91 C93 1.400 1_545 S
C91 C94 1.386 . S
C91 H103 0.930 . S
N92 C85 1.377 . S
N92 C93 1.321 . S
N92 Eu95 2.609 . S
C93 C91 1.400 1_565 S
C93 N92 1.321 . S
C93 H100 0.930 . S
C94 C89 1.395 . S
C94 C91 1.386 . S
C94 H113 0.930 . S
Eu95 N92 2.609 . S
Eu95 N96 2.657 . S
Eu95 O129 2.380 . S
Eu95 O130 2.432 1_455 S
Eu95 O134 2.558 . S
Eu95 O135 2.612 1_455 S
Eu95 O137 2.339 . S
Eu95 O138 2.563 . S
Eu95 O139 2.419 . S
Eu95 C159 2.848 . S
N96 C88 1.362 . S
N96 Eu95 2.657 . S
N96 C97 1.334 . S
C97 N96 1.334 . S
C97 C99 1.413 . S
C97 H104 0.929 . S
C98 C86 1.392 . S
C98 C99 1.367 . S
C98 H106 0.930 . S
C99 C97 1.413 . S
C99 C98 1.367 . S
C99 H101 0.930 . S
H100 C93 0.930 . S
H101 C99 0.930 . S
H102 C90 0.930 . S
H103 C91 0.930 . S
H104 C97 0.929 . S
H105 C119 0.930 . S
H106 C98 0.930 . S
H107 C125 0.930 . S
H108 C116 0.929 . S
H109 C123 0.930 . S
H110 C87 0.931 . S
H111 C117 0.930 . S
H112 C150 0.930 . S
H113 C94 0.930 . S
H114 C149 0.931 . S
N115 Eu84 2.657 . S
N115 C116 1.334 . S
N115 C120 1.362 . S
C116 H108 0.929 . S
C116 N115 1.334 . S
C116 C119 1.413 . S
C117 H111 0.930 . S
C117 C118 1.392 . S
C117 C119 1.367 . S
C118 C117 1.392 . S
C118 C120 1.420 . S
C118 C150 1.423 . S
C119 H105 0.930 . S
C119 C116 1.413 . S
C119 C117 1.367 . S
C120 N115 1.362 . S
C120 C118 1.420 . S
C120 C124 1.429 . S
H121 C126 0.930 . S
N122 Eu84 2.609 . S
N122 C124 1.377 . S
N122 C125 1.321 . S
C123 H109 0.930 . S
C123 C125 1.400 . S
C123 C126 1.386 . S
C124 C120 1.429 . S
C124 N122 1.377 . S
C124 C127 1.411 . S
C125 H107 0.930 . S
C125 N122 1.321 . S
C125 C123 1.400 . S
C126 H121 0.930 . S
C126 C123 1.386 . S
C126 C127 1.395 . S
C127 C124 1.411 . S
C127 C126 1.395 . S
C127 C149 1.420 . S
O128 Eu84 2.558 . S
O128 C148 1.257 . S
O129 Eu84 2.612 1_455 S
O129 Eu95 2.380 . S
O129 C140 1.276 . S
O130 Eu95 2.432 1_655 S
O130 C147 1.264 . S
O131 Eu84 2.339 . S
O131 C147 1.254 . S
O132 Eu84 2.563 . S
O132 C140 1.235 1_655 S
O133 Eu84 2.419 . S
O133 C148 1.249 . S
O134 Eu95 2.558 . S
O134 C159 1.257 . S
O135 Eu84 2.380 . S
O135 Eu95 2.612 1_655 S
O135 C151 1.276 . S
O136 Eu84 2.432 1_455 S
O136 C158 1.264 . S
O137 Eu95 2.339 . S
O137 C158 1.254 . S
O138 Eu95 2.563 . S
O138 C151 1.235 1_455 S
O139 Eu95 2.419 . S
O139 C159 1.249 . S
C140 O129 1.276 . S
C140 O132 1.235 1_455 S
C141 C143 1.393 . S
C141 C145 1.395 . S
C141 C148 1.492 . S
C142 C143 1.392 . S
C142 C144 1.386 . S
C143 C141 1.393 . S
C143 C142 1.392 . S
C143 H160 0.930 . S
C144 C142 1.386 . S
C144 C146 1.395 . S
C144 H161 0.930 . S
C145 C141 1.395 . S
C145 C146 1.379 . S
C145 H162 0.930 . S
C146 C144 1.395 . S
C146 C145 1.379 . S
C146 H163 0.930 . S
C147 O130 1.264 . S
C147 O131 1.254 . S
C148 Eu84 2.848 . S
C148 O128 1.257 . S
C148 O133 1.249 . S
C148 C141 1.492 . S
C149 H114 0.931 . S
C149 C127 1.420 . S
C149 C150 1.351 . S
C150 H112 0.930 . S
C150 C118 1.423 . S
C150 C149 1.351 . S
C151 O135 1.276 . S
C151 O138 1.235 1_655 S
C152 C153 1.393 . S
C152 C156 1.395 . S
C152 C159 1.492 . S
C153 C152 1.393 . S
C153 C154 1.392 . S
C153 H164 0.930 . S
C154 C153 1.392 . S
C154 C155 1.386 . S
C155 C154 1.386 . S
C155 C157 1.395 . S
C155 H165 0.930 . S
C156 C152 1.395 . S
C156 C157 1.379 . S
C156 H166 0.930 . S
C157 C155 1.395 . S
C157 C156 1.379 . S
C157 H167 0.930 . S
C158 O136 1.264 . S
C158 O137 1.254 . S
C159 Eu95 2.848 . S
C159 O134 1.257 . S
C159 O139 1.249 . S
C159 C152 1.492 . S
H160 C143 0.930 . S
H161 C144 0.930 . S
H162 C145 0.930 . S
H163 C146 0.930 . S
H164 C153 0.930 . S
H165 C155 0.930 . S
H166 C156 0.930 . S
H167 C157 0.930 . S
Eu168 N199 2.668 . S
Eu168 N206 2.609 . S
Eu168 O212 2.558 . S
Eu168 O213 2.612 . S
Eu168 O215 2.339 1_556 S
Eu168 O216 2.563 . S
Eu168 O217 2.419 . S
Eu168 O219 2.380 1_556 S
Eu168 O220 2.432 . S
Eu168 C232 2.848 . S
C169 C172 1.429 . S
C169 C173 1.411 . S
C169 N176 1.377 . S
C170 C172 1.420 1_556 S
C170 C174 1.423 . S
C170 C182 1.392 . S
C171 C173 1.420 . S
C171 C174 1.351 1_554 S
C171 H194 0.931 . S
C172 C169 1.429 . S
C172 C170 1.420 1_554 S
C172 N180 1.358 1_554 S
C173 C169 1.411 . S
C173 C171 1.420 . S
C173 C178 1.395 . S
C174 C170 1.423 . S
C174 C171 1.351 1_556 S
C174 H186 0.930 . S
C175 C177 1.400 . S
C175 C178 1.386 . S
C175 H187 0.930 . S
N176 C169 1.377 . S
N176 C177 1.321 . S
N176 Eu179 2.609 . S
C177 C175 1.400 . S
C177 N176 1.321 . S
C177 H184 0.930 . S
C178 C173 1.395 . S
C178 C175 1.386 . S
C178 H197 0.930 . S
Eu179 N176 2.609 . S
Eu179 N180 2.647 1_554 S
Eu179 O213 2.380 1_554 S
Eu179 O214 2.432 . S
Eu179 O218 2.558 . S
Eu179 O219 2.612 . S
Eu179 O221 2.339 1_554 S
Eu179 O222 2.563 . S
Eu179 O223 2.419 . S
Eu179 C243 2.848 . S
N180 C172 1.358 1_556 S
N180 Eu179 2.647 1_556 S
N180 C181 1.349 . S
C181 N180 1.349 . S
C181 C183 1.413 . S
C181 H188 0.929 . S
C182 C170 1.392 . S
C182 C183 1.367 . S
C182 H190 0.930 . S
C183 C181 1.413 . S
C183 C182 1.367 . S
C183 H185 0.930 . S
H184 C177 0.930 . S
H185 C183 0.930 . S
H186 C174 0.930 . S
H187 C175 0.930 . S
H188 C181 0.929 . S
H189 C203 0.930 . S
H190 C182 0.930 . S
H191 C209 0.930 . S
H192 C200 0.929 . S
H193 C207 0.930 . S
H194 C171 0.931 . S
H195 C201 0.930 . S
H196 C234 0.934 . S
H197 C178 0.930 . S
H198 C233 0.931 . S
N199 Eu168 2.668 . S
N199 C200 1.317 1_556 S
N199 C204 1.367 . S
C200 H192 0.929 . S
C200 N199 1.317 1_554 S
C200 C203 1.413 . S
C201 H195 0.930 . S
C201 C202 1.392 . S
C201 C203 1.367 . S
C202 C201 1.392 . S
C202 C204 1.420 1_554 S
C202 C234 1.425 . S
C203 H189 0.930 . S
C203 C200 1.413 . S
C203 C201 1.367 . S
C204 N199 1.367 . S
C204 C202 1.420 1_556 S
C204 C208 1.429 . S
H205 C210 0.930 . S
N206 Eu168 2.609 . S
N206 C208 1.377 . S
N206 C209 1.321 . S
C207 H193 0.930 . S
C207 C209 1.400 . S
C207 C210 1.386 . S
C208 C204 1.429 . S
C208 N206 1.377 . S
C208 C211 1.411 . S
C209 H191 0.930 . S
C209 N206 1.321 . S
C209 C207 1.400 . S
C210 H205 0.930 . S
C210 C207 1.386 . S
C210 C211 1.395 . S
C211 C208 1.411 . S
C211 C210 1.395 . S
C211 C233 1.420 . S
O212 Eu168 2.558 . S
O212 C232 1.257 . S
O213 Eu168 2.612 . S
O213 Eu179 2.380 1_556 S
O213 C224 1.276 . S
O214 Eu179 2.432 . S
O214 C231 1.264 . S
O215 Eu168 2.339 1_554 S
O215 C231 1.254 . S
O216 Eu168 2.563 . S
O216 C224 1.235 . S
O217 Eu168 2.419 . S
O217 C232 1.249 . S
O218 Eu179 2.558 . S
O218 C243 1.257 . S
O219 Eu168 2.380 1_554 S
O219 Eu179 2.612 . S
O219 C235 1.276 . S
O220 Eu168 2.432 . S
O220 C242 1.264 . S
O221 Eu179 2.339 1_556 S
O221 C242 1.254 . S
O222 Eu179 2.563 . S
O222 C235 1.235 . S
O223 Eu179 2.419 . S
O223 C243 1.249 . S
C224 O213 1.276 . S
C224 O216 1.235 . S
C225 C227 1.393 . S
C225 C229 1.395 . S
C225 C232 1.492 . S
C226 C227 1.392 . S
C226 C228 1.386 . S
C227 C225 1.393 . S
C227 C226 1.392 . S
C227 H244 0.930 . S
C228 C226 1.386 . S
C228 C230 1.395 . S
C228 H245 0.930 . S
C229 C225 1.395 . S
C229 C230 1.379 . S
C229 H246 0.930 . S
C230 C228 1.395 . S
C230 C229 1.379 . S
C230 H247 0.930 . S
C231 O214 1.264 . S
C231 O215 1.254 . S
C232 Eu168 2.848 . S
C232 O212 1.257 . S
C232 O217 1.249 . S
C232 C225 1.492 . S
C233 H198 0.931 . S
C233 C211 1.420 . S
C233 C234 1.344 1_556 S
C234 H196 0.934 . S
C234 C202 1.425 . S
C234 C233 1.344 1_554 S
C235 O219 1.276 . S
C235 O222 1.235 . S
C236 C237 1.393 . S
C236 C240 1.395 . S
C236 C243 1.492 . S
C237 C236 1.393 . S
C237 C238 1.392 . S
C237 H248 0.930 . S
C238 C237 1.392 . S
C238 C239 1.386 . S
C239 C238 1.386 . S
C239 C241 1.395 . S
C239 H249 0.930 . S
C240 C236 1.395 . S
C240 C241 1.379 . S
C240 H250 0.930 . S
C241 C239 1.395 . S
C241 C240 1.379 . S
C241 H251 0.930 . S
C242 O220 1.264 . S
C242 O221 1.254 . S
C243 Eu179 2.848 . S
C243 O218 1.257 . S
C243 O223 1.249 . S
C243 C236 1.492 . S
H244 C227 0.930 . S
H245 C228 0.930 . S
H246 C229 0.930 . S
H247 C230 0.930 . S
H248 C237 0.930 . S
H249 C239 0.930 . S
H250 C240 0.930 . S
H251 C241 0.930 . S
Eu252 N283 2.657 . S
Eu252 N290 2.609 . S
Eu252 O296 2.558 . S
Eu252 O297 2.612 . S
Eu252 O299 2.339 . S
Eu252 O300 2.563 . S
Eu252 O301 2.419 . S
Eu252 O303 2.380 . S
Eu252 O304 2.432 . S
Eu252 C316 2.848 . S
C253 C256 1.429 . S
C253 C257 1.411 1_545 S
C253 N260 1.377 . S
C254 C256 1.420 . S
C254 C258 1.423 1_545 S
C254 C266 1.392 . S
C255 C257 1.420 . S
C255 C258 1.351 . S
C255 H278 0.931 . S
C256 C253 1.429 . S
C256 C254 1.420 . S
C256 N264 1.362 . S
C257 C253 1.411 1_565 S
C257 C255 1.420 . S
C257 C262 1.395 . S
C258 C254 1.423 1_565 S
C258 C255 1.351 . S
C258 H270 0.930 . S
C259 C261 1.400 1_565 S
C259 C262 1.386 . S
C259 H271 0.930 . S
N260 C253 1.377 . S
N260 C261 1.321 . S
N260 Eu263 2.609 . S
C261 C259 1.400 1_545 S
C261 N260 1.321 . S
C261 H268 0.930 . S
C262 C257 1.395 . S
C262 C259 1.386 . S
C262 H281 0.930 . S
Eu263 N260 2.609 . S
Eu263 N264 2.657 . S
Eu263 O297 2.380 . S
Eu263 O298 2.432 . S
Eu263 O302 2.558 . S
Eu263 O303 2.612 . S
Eu263 O305 2.339 . S
Eu263 O306 2.563 . S
Eu263 O307 2.419 . S
Eu263 C327 2.848 . S
N264 C256 1.362 . S
N264 Eu263 2.657 . S
N264 C265 1.334 . S
C265 N264 1.334 . S
C265 C267 1.413 . S
C265 H272 0.929 . S
C266 C254 1.392 . S
C266 C267 1.367 . S
C266 H274 0.930 . S
C267 C265 1.413 . S
C267 C266 1.367 . S
C267 H269 0.930 . S
H268 C261 0.930 . S
H269 C267 0.930 . S
H270 C258 0.930 . S
H271 C259 0.930 . S
H272 C265 0.929 . S
H273 C287 0.930 . S
H274 C266 0.930 . S
H275 C293 0.930 . S
H276 C284 0.929 . S
H277 C291 0.930 . S
H278 C255 0.931 . S
H279 C285 0.930 . S
H280 C318 0.930 . S
H281 C262 0.930 . S
H282 C317 0.931 . S
N283 Eu252 2.657 . S
N283 C284 1.334 . S
N283 C288 1.362 . S
C284 H276 0.929 . S
C284 N283 1.334 . S
C284 C287 1.413 . S
C285 H279 0.930 . S
C285 C286 1.392 . S
C285 C287 1.367 . S
C286 C285 1.392 . S
C286 C288 1.420 . S
C286 C318 1.423 . S
C287 H273 0.930 . S
C287 C284 1.413 . S
C287 C285 1.367 . S
C288 N283 1.362 . S
C288 C286 1.420 . S
C288 C292 1.429 . S
H289 C294 0.930 . S
N290 Eu252 2.609 . S
N290 C292 1.377 . S
N290 C293 1.321 . S
C291 H277 0.930 . S
C291 C293 1.400 . S
C291 C294 1.386 . S
C292 C288 1.429 . S
C292 N290 1.377 . S
C292 C295 1.411 . S
C293 H275 0.930 . S
C293 N290 1.321 . S
C293 C291 1.400 . S
C294 H289 0.930 . S
C294 C291 1.386 . S
C294 C295 1.395 . S
C295 C292 1.411 . S
C295 C294 1.395 . S
C295 C317 1.420 . S
O296 Eu252 2.558 . S
O296 C316 1.257 . S
O297 Eu252 2.612 . S
O297 Eu263 2.380 . S
O297 C308 1.276 . S
O298 Eu263 2.432 . S
O298 C315 1.264 . S
O299 Eu252 2.339 . S
O299 C315 1.254 . S
O300 Eu252 2.563 . S
O300 C308 1.235 . S
O301 Eu252 2.419 . S
O301 C316 1.249 . S
O302 Eu263 2.558 . S
O302 C327 1.257 . S
O303 Eu252 2.380 . S
O303 Eu263 2.612 . S
O303 C319 1.276 . S
O304 Eu252 2.432 . S
O304 C326 1.264 . S
O305 Eu263 2.339 . S
O305 C326 1.254 . S
O306 Eu263 2.563 . S
O306 C319 1.235 . S
O307 Eu263 2.419 . S
O307 C327 1.249 . S
C308 O297 1.276 . S
C308 O300 1.235 . S
C309 C311 1.393 . S
C309 C313 1.395 . S
C309 C316 1.492 . S
C310 C311 1.392 . S
C310 C312 1.386 . S
C311 C309 1.393 . S
C311 C310 1.392 . S
C311 H328 0.930 . S
C312 C310 1.386 . S
C312 C314 1.395 . S
C312 H329 0.930 . S
C313 C309 1.395 . S
C313 C314 1.379 . S
C313 H330 0.930 . S
C314 C312 1.395 . S
C314 C313 1.379 . S
C314 H331 0.930 . S
C315 O298 1.264 . S
C315 O299 1.254 . S
C316 Eu252 2.848 . S
C316 O296 1.257 . S
C316 O301 1.249 . S
C316 C309 1.492 . S
C317 H282 0.931 . S
C317 C295 1.420 . S
C317 C318 1.351 . S
C318 H280 0.930 . S
C318 C286 1.423 . S
C318 C317 1.351 . S
C319 O303 1.276 . S
C319 O306 1.235 . S
C320 C321 1.393 . S
C320 C324 1.395 . S
C320 C327 1.492 . S
C321 C320 1.393 . S
C321 C322 1.392 . S
C321 H332 0.930 . S
C322 C321 1.392 . S
C322 C323 1.386 . S
C323 C322 1.386 . S
C323 C325 1.395 . S
C323 H333 0.930 . S
C324 C320 1.395 . S
C324 C325 1.379 . S
C324 H334 0.930 . S
C325 C323 1.395 . S
C325 C324 1.379 . S
C325 H335 0.930 . S
C326 O304 1.264 . S
C326 O305 1.254 . S
C327 Eu263 2.848 . S
C327 O302 1.257 . S
C327 O307 1.249 . S
C327 C320 1.492 . S
H328 C311 0.930 . S
H329 C312 0.930 . S
H330 C313 0.930 . S
H331 C314 0.930 . S
H332 C321 0.930 . S
H333 C323 0.930 . S
H334 C324 0.930 . S
H335 C325 0.930 . S
Eu336 N367 2.657 . S
Eu336 N374 2.609 . S
Eu336 O380 2.558 . S
Eu336 O381 2.612 . S
Eu336 O383 2.339 . S
Eu336 O384 2.563 . S
Eu336 O385 2.419 . S
Eu336 O387 2.380 . S
Eu336 O388 2.432 . S
Eu336 C400 2.848 . S
C337 C340 1.429 . S
C337 C341 1.411 . S
C337 N344 1.377 . S
C338 C340 1.420 . S
C338 C342 1.423 . S
C338 C350 1.392 . S
C339 C341 1.420 . S
C339 C342 1.351 . S
C339 H362 0.931 . S
C340 C337 1.429 . S
C340 C338 1.420 . S
C340 N348 1.362 . S
C341 C337 1.411 . S
C341 C339 1.420 . S
C341 C346 1.395 . S
C342 C338 1.423 . S
C342 C339 1.351 . S
C342 H354 0.930 . S
C343 C345 1.400 . S
C343 C346 1.386 . S
C343 H355 0.930 . S
N344 C337 1.377 . S
N344 C345 1.321 . S
N344 Eu347 2.609 . S
C345 C343 1.400 . S
C345 N344 1.321 . S
C345 H352 0.930 . S
C346 C341 1.395 . S
C346 C343 1.386 . S
C346 H365 0.930 . S
Eu347 N344 2.609 . S
Eu347 N348 2.657 . S
Eu347 O381 2.380 . S
Eu347 O382 2.432 . S
Eu347 O386 2.558 . S
Eu347 O387 2.612 . S
Eu347 O389 2.339 . S
Eu347 O390 2.563 . S
Eu347 O391 2.419 . S
Eu347 C411 2.848 . S
N348 C340 1.362 . S
N348 Eu347 2.657 . S
N348 C349 1.334 . S
C349 N348 1.334 . S
C349 C351 1.413 . S
C349 H356 0.929 . S
C350 C338 1.392 . S
C350 C351 1.367 . S
C350 H358 0.930 . S
C351 C349 1.413 . S
C351 C350 1.367 . S
C351 H353 0.930 . S
H352 C345 0.930 . S
H353 C351 0.930 . S
H354 C342 0.930 . S
H355 C343 0.930 . S
H356 C349 0.929 . S
H357 C371 0.930 . S
H358 C350 0.930 . S
H359 C377 0.930 . S
H360 C368 0.929 . S
H361 C375 0.930 . S
H362 C339 0.931 . S
H363 C369 0.930 . S
H364 C402 0.930 . S
H365 C346 0.930 . S
H366 C401 0.931 . S
N367 Eu336 2.657 . S
N367 C368 1.334 . S
N367 C372 1.362 . S
C368 H360 0.929 . S
C368 N367 1.334 . S
C368 C371 1.413 . S
C369 H363 0.930 . S
C369 C370 1.392 . S
C369 C371 1.367 . S
C370 C369 1.392 . S
C370 C372 1.420 . S
C370 C402 1.423 . S
C371 H357 0.930 . S
C371 C368 1.413 . S
C371 C369 1.367 . S
C372 N367 1.362 . S
C372 C370 1.420 . S
C372 C376 1.429 . S
H373 C378 0.930 . S
N374 Eu336 2.609 . S
N374 C376 1.377 . S
N374 C377 1.321 . S
C375 H361 0.930 . S
C375 C377 1.400 . S
C375 C378 1.386 . S
C376 C372 1.429 . S
C376 N374 1.377 . S
C376 C379 1.411 . S
C377 H359 0.930 . S
C377 N374 1.321 . S
C377 C375 1.400 . S
C378 H373 0.930 . S
C378 C375 1.386 . S
C378 C379 1.395 . S
C379 C376 1.411 . S
C379 C378 1.395 . S
C379 C401 1.420 . S
O380 Eu336 2.558 . S
O380 C400 1.257 . S
O381 Eu336 2.612 . S
O381 Eu347 2.380 . S
O381 C392 1.276 . S
O382 Eu347 2.432 . S
O382 C399 1.264 . S
O383 Eu336 2.339 . S
O383 C399 1.254 . S
O384 Eu336 2.563 . S
O384 C392 1.235 . S
O385 Eu336 2.419 . S
O385 C400 1.249 . S
O386 Eu347 2.558 . S
O386 C411 1.257 . S
O387 Eu336 2.380 . S
O387 Eu347 2.612 . S
O387 C403 1.276 . S
O388 Eu336 2.432 . S
O388 C410 1.264 . S
O389 Eu347 2.339 . S
O389 C410 1.254 . S
O390 Eu347 2.563 . S
O390 C403 1.235 . S
O391 Eu347 2.419 . S
O391 C411 1.249 . S
C392 O381 1.276 . S
C392 O384 1.235 . S
C393 C395 1.393 . S
C393 C397 1.395 . S
C393 C400 1.492 . S
C394 C395 1.392 . S
C394 C396 1.386 . S
C395 C393 1.393 . S
C395 C394 1.392 . S
C395 H412 0.930 . S
C396 C394 1.386 . S
C396 C398 1.395 . S
C396 H413 0.930 . S
C397 C393 1.395 . S
C397 C398 1.379 . S
C397 H414 0.930 . S
C398 C396 1.395 . S
C398 C397 1.379 . S
C398 H415 0.930 . S
C399 O382 1.264 . S
C399 O383 1.254 . S
C400 Eu336 2.848 . S
C400 O380 1.257 . S
C400 O385 1.249 . S
C400 C393 1.492 . S
C401 H366 0.931 . S
C401 C379 1.420 . S
C401 C402 1.351 . S
C402 H364 0.930 . S
C402 C370 1.423 . S
C402 C401 1.351 . S
C403 O387 1.276 . S
C403 O390 1.235 . S
C404 C405 1.393 . S
C404 C408 1.395 . S
C404 C411 1.492 . S
C405 C404 1.393 . S
C405 C406 1.392 . S
C405 H416 0.930 . S
C406 C405 1.392 . S
C406 C407 1.386 . S
C407 C406 1.386 . S
C407 C409 1.395 . S
C407 H417 0.930 . S
C408 C404 1.395 . S
C408 C409 1.379 . S
C408 H418 0.930 . S
C409 C407 1.395 . S
C409 C408 1.379 . S
C409 H419 0.930 . S
C410 O388 1.264 . S
C410 O389 1.254 . S
C411 Eu347 2.848 . S
C411 O386 1.257 . S
C411 O391 1.249 . S
C411 C404 1.492 . S
H412 C395 0.930 . S
H413 C396 0.930 . S
H414 C397 0.930 . S
H415 C398 0.930 . S
H416 C405 0.930 . S
H417 C407 0.930 . S
H418 C408 0.930 . S
H419 C409 0.930 . S
Eu420 N451 2.671 . S
Eu420 N458 2.609 . S
Eu420 O464 2.558 . S
Eu420 O465 2.612 . S
Eu420 O467 2.339 1_655 S
Eu420 O468 2.563 . S
Eu420 O469 2.419 . S
Eu420 O471 2.380 1_655 S
Eu420 O472 2.432 . S
Eu420 C484 2.848 . S
C421 C424 1.429 . S
C421 C425 1.411 . S
C421 N428 1.377 . S
C422 C424 1.420 1_655 S
C422 C426 1.423 . S
C422 C434 1.392 . S
C423 C425 1.420 . S
C423 C426 1.351 1_455 S
C423 H446 0.931 . S
C424 C421 1.429 . S
C424 C422 1.420 1_455 S
C424 N432 1.362 1_455 S
C425 C421 1.411 . S
C425 C423 1.420 . S
C425 C430 1.395 . S
C426 C422 1.423 . S
C426 C423 1.351 1_655 S
C426 H438 0.930 . S
C427 C429 1.400 . S
C427 C430 1.386 . S
C427 H439 0.930 . S
N428 C421 1.377 . S
N428 C429 1.321 . S
N428 Eu431 2.609 . S
C429 C427 1.400 . S
C429 N428 1.321 . S
C429 H436 0.930 . S
C430 C425 1.395 . S
C430 C427 1.386 . S
C430 H449 0.930 . S
Eu431 N428 2.609 . S
Eu431 N432 2.657 1_455 S
Eu431 O465 2.380 1_455 S
Eu431 O466 2.432 . S
Eu431 O470 2.558 . S
Eu431 O471 2.612 . S
Eu431 O473 2.339 1_455 S
Eu431 O474 2.563 . S
Eu431 O475 2.419 . S
Eu431 C495 2.848 . S
N432 C424 1.362 1_655 S
N432 Eu431 2.657 1_655 S
N432 C433 1.334 . S
C433 N432 1.334 . S
C433 C435 1.413 . S
C433 H440 0.929 . S
C434 C422 1.392 . S
C434 C435 1.367 . S
C434 H442 0.930 . S
C435 C433 1.413 . S
C435 C434 1.367 . S
C435 H437 0.930 . S
H436 C429 0.930 . S
H437 C435 0.930 . S
H438 C426 0.930 . S
H439 C427 0.930 . S
H440 C433 0.929 . S
H441 C455 0.930 . S
H442 C434 0.930 . S
H443 C461 0.930 . S
H444 C452 0.929 . S
H445 C459 0.930 . S
H446 C423 0.931 . S
H447 C453 0.930 . S
H448 C486 0.937 . S
H449 C430 0.930 . S
H450 C485 0.931 . S
N451 Eu420 2.671 . S
N451 C452 1.314 1_655 S
N451 C456 1.368 . S
C452 H444 0.929 . S
C452 N451 1.314 1_455 S
C452 C455 1.413 . S
C453 H447 0.930 . S
C453 C454 1.392 . S
C453 C455 1.367 . S
C454 C453 1.392 . S
C454 C456 1.420 1_455 S
C454 C486 1.427 . S
C455 H441 0.930 . S
C455 C452 1.413 . S
C455 C453 1.367 . S
C456 N451 1.368 . S
C456 C454 1.420 1_655 S
C456 C460 1.429 . S
H457 C462 0.930 . S
N458 Eu420 2.609 . S
N458 C460 1.377 . S
N458 C461 1.321 . S
C459 H445 0.930 . S
C459 C461 1.400 . S
C459 C462 1.386 . S
C460 C456 1.429 . S
C460 N458 1.377 . S
C460 C463 1.411 . S
C461 H443 0.930 . S
C461 N458 1.321 . S
C461 C459 1.400 . S
C462 H457 0.930 . S
C462 C459 1.386 . S
C462 C463 1.395 . S
C463 C460 1.411 . S
C463 C462 1.395 . S
C463 C485 1.420 . S
O464 Eu420 2.558 . S
O464 C484 1.257 . S
O465 Eu420 2.612 . S
O465 Eu431 2.380 1_655 S
O465 C476 1.276 . S
O466 Eu431 2.432 . S
O466 C483 1.264 . S
O467 Eu420 2.339 1_455 S
O467 C483 1.254 . S
O468 Eu420 2.563 . S
O468 C476 1.235 . S
O469 Eu420 2.419 . S
O469 C484 1.249 . S
O470 Eu431 2.558 . S
O470 C495 1.257 . S
O471 Eu420 2.380 1_455 S
O471 Eu431 2.612 . S
O471 C487 1.276 . S
O472 Eu420 2.432 . S
O472 C494 1.264 . S
O473 Eu431 2.339 1_655 S
O473 C494 1.254 . S
O474 Eu431 2.563 . S
O474 C487 1.235 . S
O475 Eu431 2.419 . S
O475 C495 1.249 . S
C476 O465 1.276 . S
C476 O468 1.235 . S
C477 C479 1.393 . S
C477 C481 1.395 . S
C477 C484 1.492 . S
C478 C479 1.392 . S
C478 C480 1.386 . S
C479 C477 1.393 . S
C479 C478 1.392 . S
C479 H496 0.930 . S
C480 C478 1.386 . S
C480 C482 1.395 . S
C480 H497 0.930 . S
C481 C477 1.395 . S
C481 C482 1.379 . S
C481 H498 0.930 . S
C482 C480 1.395 . S
C482 C481 1.379 . S
C482 H499 0.930 . S
C483 O466 1.264 . S
C483 O467 1.254 . S
C484 Eu420 2.848 . S
C484 O464 1.257 . S
C484 O469 1.249 . S
C484 C477 1.492 . S
C485 H450 0.931 . S
C485 C463 1.420 . S
C485 C486 1.340 1_655 S
C486 H448 0.937 . S
C486 C454 1.427 . S
C486 C485 1.340 1_455 S
C487 O471 1.276 . S
C487 O474 1.235 . S
C488 C489 1.393 . S
C488 C492 1.395 . S
C488 C495 1.492 . S
C489 C488 1.393 . S
C489 C490 1.392 . S
C489 H500 0.930 . S
C490 C489 1.392 . S
C490 C491 1.386 . S
C491 C490 1.386 . S
C491 C493 1.395 . S
C491 H501 0.930 . S
C492 C488 1.395 . S
C492 C493 1.379 . S
C492 H502 0.930 . S
C493 C491 1.395 . S
C493 C492 1.379 . S
C493 H503 0.930 . S
C494 O472 1.264 . S
C494 O473 1.254 . S
C495 Eu431 2.848 . S
C495 O470 1.257 . S
C495 O475 1.249 . S
C495 C488 1.492 . S
H496 C479 0.930 . S
H497 C480 0.930 . S
H498 C481 0.930 . S
H499 C482 0.930 . S
H500 C489 0.930 . S
H501 C491 0.930 . S
H502 C492 0.930 . S
H503 C493 0.930 . S
Eu504 N535 2.672 . S
Eu504 N542 2.609 . S
Eu504 O548 2.558 . S
Eu504 O549 2.612 . S
Eu504 O551 2.339 1_554 S
Eu504 O552 2.563 . S
Eu504 O553 2.419 . S
Eu504 O555 2.380 1_554 S
Eu504 O556 2.432 . S
Eu504 C568 2.848 . S
C505 C508 1.429 . S
C505 C509 1.411 . S
C505 N512 1.377 . S
C506 C508 1.420 1_554 S
C506 C510 1.423 . S
C506 C518 1.392 . S
C507 C509 1.420 . S
C507 C510 1.351 1_556 S
C507 H530 0.931 . S
C508 C505 1.429 . S
C508 C506 1.420 1_556 S
C508 N516 1.362 1_556 S
C509 C505 1.411 . S
C509 C507 1.420 . S
C509 C514 1.395 . S
C510 C506 1.423 . S
C510 C507 1.351 1_554 S
C510 H522 0.930 . S
C511 C513 1.400 . S
C511 C514 1.386 . S
C511 H523 0.930 . S
N512 C505 1.377 . S
N512 C513 1.321 . S
N512 Eu515 2.609 . S
C513 C511 1.400 . S
C513 N512 1.321 . S
C513 H520 0.930 . S
C514 C509 1.395 . S
C514 C511 1.386 . S
C514 H533 0.930 . S
Eu515 N512 2.609 . S
Eu515 N516 2.657 1_556 S
Eu515 O549 2.380 1_556 S
Eu515 O550 2.432 . S
Eu515 O554 2.558 . S
Eu515 O555 2.612 . S
Eu515 O557 2.339 1_556 S
Eu515 O558 2.563 . S
Eu515 O559 2.419 . S
Eu515 C579 2.848 . S
N516 C508 1.362 1_554 S
N516 Eu515 2.657 1_554 S
N516 C517 1.334 . S
C517 N516 1.334 . S
C517 C519 1.413 . S
C517 H524 0.929 . S
C518 C506 1.392 . S
C518 C519 1.367 . S
C518 H526 0.930 . S
C519 C517 1.413 . S
C519 C518 1.367 . S
C519 H521 0.930 . S
H520 C513 0.930 . S
H521 C519 0.930 . S
H522 C510 0.930 . S
H523 C511 0.930 . S
H524 C517 0.929 . S
H525 C539 0.930 . S
H526 C518 0.930 . S
H527 C545 0.930 . S
H528 C536 0.929 . S
H529 C543 0.930 . S
H530 C507 0.931 . S
H531 C537 0.930 . S
H532 C570 0.937 . S
H533 C514 0.930 . S
H534 C569 0.931 . S
N535 Eu504 2.672 . S
N535 C536 1.312 1_554 S
N535 C540 1.368 . S
C536 H528 0.929 . S
C536 N535 1.312 1_556 S
C536 C539 1.413 . S
C537 H531 0.930 . S
C537 C538 1.392 . S
C537 C539 1.367 . S
C538 C537 1.392 . S
C538 C540 1.420 1_556 S
C538 C570 1.426 1_655 S
C539 H525 0.930 . S
C539 C536 1.413 . S
C539 C537 1.367 . S
C540 N535 1.368 . S
C540 C538 1.420 1_554 S
C540 C544 1.429 . S
H541 C546 0.930 . S
N542 Eu504 2.609 . S
N542 C544 1.377 . S
N542 C545 1.321 . S
C543 H529 0.930 . S
C543 C545 1.400 1_455 S
C543 C546 1.386 . S
C544 C540 1.429 . S
C544 N542 1.377 . S
C544 C547 1.411 1_655 S
C545 H527 0.930 . S
C545 N542 1.321 . S
C545 C543 1.400 1_655 S
C546 H541 0.930 . S
C546 C543 1.386 . S
C546 C547 1.395 . S
C547 C544 1.411 1_455 S
C547 C546 1.395 . S
C547 C569 1.420 . S
O548 Eu504 2.558 . S
O548 C568 1.257 . S
O549 Eu504 2.612 . S
O549 Eu515 2.380 1_554 S
O549 C560 1.276 . S
O550 Eu515 2.432 . S
O550 C567 1.264 . S
O551 Eu504 2.339 1_556 S
O551 C567 1.254 . S
O552 Eu504 2.563 . S
O552 C560 1.235 . S
O553 Eu504 2.419 . S
O553 C568 1.249 . S
O554 Eu515 2.558 . S
O554 C579 1.257 . S
O555 Eu504 2.380 1_556 S
O555 Eu515 2.612 . S
O555 C571 1.276 . S
O556 Eu504 2.432 . S
O556 C578 1.264 . S
O557 Eu515 2.339 1_554 S
O557 C578 1.254 . S
O558 Eu515 2.563 . S
O558 C571 1.235 . S
O559 Eu515 2.419 . S
O559 C579 1.249 . S
C560 O549 1.276 . S
C560 O552 1.235 . S
C561 C563 1.393 . S
C561 C565 1.395 . S
C561 C568 1.492 . S
C562 C563 1.392 . S
C562 C564 1.386 . S
C563 C561 1.393 . S
C563 C562 1.392 . S
C563 H580 0.930 . S
C564 C562 1.386 . S
C564 C566 1.395 . S
C564 H581 0.930 . S
C565 C561 1.395 . S
C565 C566 1.379 . S
C565 H582 0.930 . S
C566 C564 1.395 . S
C566 C565 1.379 . S
C566 H583 0.930 . S
C567 O550 1.264 . S
C567 O551 1.254 . S
C568 Eu504 2.848 . S
C568 O548 1.257 . S
C568 O553 1.249 . S
C568 C561 1.492 . S
C569 H534 0.931 . S
C569 C547 1.420 . S
C569 C570 1.340 1_554 S
C570 H532 0.937 . S
C570 C538 1.426 1_455 S
C570 C569 1.340 1_556 S
C571 O555 1.276 . S
C571 O558 1.235 . S
C572 C573 1.393 . S
C572 C576 1.395 . S
C572 C579 1.492 . S
C573 C572 1.393 . S
C573 C574 1.392 . S
C573 H584 0.930 . S
C574 C573 1.392 . S
C574 C575 1.386 . S
C575 C574 1.386 . S
C575 C577 1.395 . S
C575 H585 0.930 . S
C576 C572 1.395 . S
C576 C577 1.379 . S
C576 H586 0.930 . S
C577 C575 1.395 . S
C577 C576 1.379 . S
C577 H587 0.930 . S
C578 O556 1.264 . S
C578 O557 1.254 . S
C579 Eu515 2.848 . S
C579 O554 1.257 . S
C579 O559 1.249 . S
C579 C572 1.492 . S
H580 C563 0.930 . S
H581 C564 0.930 . S
H582 C565 0.930 . S
H583 C566 0.930 . S
H584 C573 0.930 . S
H585 C575 0.930 . S
H586 C576 0.930 . S
H587 C577 0.930 . S
Eu588 N619 2.657 . S
Eu588 N626 2.609 . S
Eu588 O632 2.558 . S
Eu588 O633 2.612 . S
Eu588 O635 2.339 . S
Eu588 O636 2.563 . S
Eu588 O637 2.419 . S
Eu588 O639 2.380 . S
Eu588 O640 2.432 . S
Eu588 C652 2.848 . S
C589 C592 1.429 . S
C589 C593 1.411 . S
C589 N596 1.377 . S
C590 C592 1.420 . S
C590 C594 1.423 . S
C590 C602 1.392 . S
C591 C593 1.420 . S
C591 C594 1.351 . S
C591 H614 0.931 . S
C592 C589 1.429 . S
C592 C590 1.420 . S
C592 N600 1.362 . S
C593 C589 1.411 . S
C593 C591 1.420 . S
C593 C598 1.395 . S
C594 C590 1.423 . S
C594 C591 1.351 . S
C594 H606 0.930 . S
C595 C597 1.400 . S
C595 C598 1.386 . S
C595 H607 0.930 . S
N596 C589 1.377 . S
N596 C597 1.321 . S
N596 Eu599 2.609 . S
C597 C595 1.400 . S
C597 N596 1.321 . S
C597 H604 0.930 . S
C598 C593 1.395 . S
C598 C595 1.386 . S
C598 H617 0.930 . S
Eu599 N596 2.609 . S
Eu599 N600 2.657 . S
Eu599 O633 2.380 . S
Eu599 O634 2.432 . S
Eu599 O638 2.558 . S
Eu599 O639 2.612 . S
Eu599 O641 2.339 . S
Eu599 O642 2.563 . S
Eu599 O643 2.419 . S
Eu599 C663 2.848 . S
N600 C592 1.362 . S
N600 Eu599 2.657 . S
N600 C601 1.334 . S
C601 N600 1.334 . S
C601 C603 1.413 . S
C601 H608 0.929 . S
C602 C590 1.392 . S
C602 C603 1.367 . S
C602 H610 0.930 . S
C603 C601 1.413 . S
C603 C602 1.367 . S
C603 H605 0.930 . S
H604 C597 0.930 . S
H605 C603 0.930 . S
H606 C594 0.930 . S
H607 C595 0.930 . S
H608 C601 0.929 . S
H609 C623 0.930 . S
H610 C602 0.930 . S
H611 C629 0.930 . S
H612 C620 0.929 . S
H613 C627 0.930 . S
H614 C591 0.931 . S
H615 C621 0.930 . S
H616 C654 0.930 . S
H617 C598 0.930 . S
H618 C653 0.931 . S
N619 Eu588 2.657 . S
N619 C620 1.334 . S
N619 C624 1.362 . S
C620 H612 0.929 . S
C620 N619 1.334 . S
C620 C623 1.413 . S
C621 H615 0.930 . S
C621 C622 1.392 . S
C621 C623 1.367 . S
C622 C621 1.392 . S
C622 C624 1.420 . S
C622 C654 1.423 . S
C623 H609 0.930 . S
C623 C620 1.413 . S
C623 C621 1.367 . S
C624 N619 1.362 . S
C624 C622 1.420 . S
C624 C628 1.429 . S
H625 C630 0.930 . S
N626 Eu588 2.609 . S
N626 C628 1.377 . S
N626 C629 1.321 . S
C627 H613 0.930 . S
C627 C629 1.400 . S
C627 C630 1.386 . S
C628 C624 1.429 . S
C628 N626 1.377 . S
C628 C631 1.411 . S
C629 H611 0.930 . S
C629 N626 1.321 . S
C629 C627 1.400 . S
C630 H625 0.930 . S
C630 C627 1.386 . S
C630 C631 1.395 . S
C631 C628 1.411 . S
C631 C630 1.395 . S
C631 C653 1.420 . S
O632 Eu588 2.558 . S
O632 C652 1.257 . S
O633 Eu588 2.612 . S
O633 Eu599 2.380 . S
O633 C644 1.276 . S
O634 Eu599 2.432 . S
O634 C651 1.264 . S
O635 Eu588 2.339 . S
O635 C651 1.254 . S
O636 Eu588 2.563 . S
O636 C644 1.235 . S
O637 Eu588 2.419 . S
O637 C652 1.249 . S
O638 Eu599 2.558 . S
O638 C663 1.257 . S
O639 Eu588 2.380 . S
O639 Eu599 2.612 . S
O639 C655 1.276 . S
O640 Eu588 2.432 . S
O640 C662 1.264 . S
O641 Eu599 2.339 . S
O641 C662 1.254 . S
O642 Eu599 2.563 . S
O642 C655 1.235 . S
O643 Eu599 2.419 . S
O643 C663 1.249 . S
C644 O633 1.276 . S
C644 O636 1.235 . S
C645 C647 1.393 . S
C645 C649 1.395 . S
C645 C652 1.492 . S
C646 C647 1.392 . S
C646 C648 1.386 . S
C647 C645 1.393 . S
C647 C646 1.392 . S
C647 H664 0.930 . S
C648 C646 1.386 . S
C648 C650 1.395 . S
C648 H665 0.930 . S
C649 C645 1.395 . S
C649 C650 1.379 . S
C649 H666 0.930 . S
C650 C648 1.395 . S
C650 C649 1.379 . S
C650 H667 0.930 . S
C651 O634 1.264 . S
C651 O635 1.254 . S
C652 Eu588 2.848 . S
C652 O632 1.257 . S
C652 O637 1.249 . S
C652 C645 1.492 . S
C653 H618 0.931 . S
C653 C631 1.420 . S
C653 C654 1.351 . S
C654 H616 0.930 . S
C654 C622 1.423 . S
C654 C653 1.351 . S
C655 O639 1.276 . S
C655 O642 1.235 . S
C656 C657 1.393 . S
C656 C660 1.395 . S
C656 C663 1.492 . S
C657 C656 1.393 . S
C657 C658 1.392 . S
C657 H668 0.930 . S
C658 C657 1.392 . S
C658 C659 1.386 . S
C659 C658 1.386 . S
C659 C661 1.395 . S
C659 H669 0.930 . S
C660 C656 1.395 . S
C660 C661 1.379 . S
C660 H670 0.930 . S
C661 C659 1.395 . S
C661 C660 1.379 . S
C661 H671 0.930 . S
C662 O640 1.264 . S
C662 O641 1.254 . S
C663 Eu599 2.848 . S
C663 O638 1.257 . S
C663 O643 1.249 . S
C663 C656 1.492 . S
H664 C647 0.930 . S
H665 C648 0.930 . S
H666 C649 0.930 . S
H667 C650 0.930 . S
H668 C657 0.930 . S
H669 C659 0.930 . S
H670 C660 0.930 . S
H671 C661 0.930 . S
Eu672 N703 2.657 . S
Eu672 N710 2.609 . S
Eu672 O716 2.558 . S
Eu672 O717 2.612 . S
Eu672 O719 2.339 . S
Eu672 O720 2.563 . S
Eu672 O721 2.419 . S
Eu672 O723 2.380 . S
Eu672 O724 2.432 . S
Eu672 C736 2.848 . S
C673 C676 1.429 . S
C673 C677 1.411 1_554 S
C673 N680 1.377 . S
C674 C676 1.420 . S
C674 C678 1.423 1_554 S
C674 C686 1.392 . S
C675 C677 1.420 . S
C675 C678 1.351 . S
C675 H698 0.931 . S
C676 C673 1.429 . S
C676 C674 1.420 . S
C676 N684 1.362 . S
C677 C673 1.411 1_556 S
C677 C675 1.420 . S
C677 C682 1.395 . S
C678 C674 1.423 1_556 S
C678 C675 1.351 . S
C678 H690 0.930 . S
C679 C681 1.400 1_556 S
C679 C682 1.386 . S
C679 H691 0.930 . S
N680 C673 1.377 . S
N680 C681 1.321 . S
N680 Eu683 2.609 . S
C681 C679 1.400 1_554 S
C681 N680 1.321 . S
C681 H688 0.930 . S
C682 C677 1.395 . S
C682 C679 1.386 . S
C682 H701 0.930 . S
Eu683 N680 2.609 . S
Eu683 N684 2.657 . S
Eu683 O717 2.380 . S
Eu683 O718 2.432 . S
Eu683 O722 2.558 . S
Eu683 O723 2.612 . S
Eu683 O725 2.339 . S
Eu683 O726 2.563 . S
Eu683 O727 2.419 . S
Eu683 C747 2.848 . S
N684 C676 1.362 . S
N684 Eu683 2.657 . S
N684 C685 1.334 . S
C685 N684 1.334 . S
C685 C687 1.413 . S
C685 H692 0.929 . S
C686 C674 1.392 . S
C686 C687 1.367 . S
C686 H694 0.930 . S
C687 C685 1.413 . S
C687 C686 1.367 . S
C687 H689 0.930 . S
H688 C681 0.930 . S
H689 C687 0.930 . S
H690 C678 0.930 . S
H691 C679 0.930 . S
H692 C685 0.929 . S
H693 C707 0.930 . S
H694 C686 0.930 . S
H695 C713 0.930 . S
H696 C704 0.929 . S
H697 C711 0.930 . S
H698 C675 0.931 . S
H699 C705 0.930 . S
H700 C738 0.930 . S
H701 C682 0.930 . S
H702 C737 0.931 . S
N703 Eu672 2.657 . S
N703 C704 1.334 . S
N703 C708 1.362 . S
C704 H696 0.929 . S
C704 N703 1.334 . S
C704 C707 1.413 . S
C705 H699 0.930 . S
C705 C706 1.392 . S
C705 C707 1.367 . S
C706 C705 1.392 . S
C706 C708 1.420 . S
C706 C738 1.423 . S
C707 H693 0.930 . S
C707 C704 1.413 . S
C707 C705 1.367 . S
C708 N703 1.362 . S
C708 C706 1.420 . S
C708 C712 1.429 . S
H709 C714 0.930 . S
N710 Eu672 2.609 . S
N710 C712 1.377 . S
N710 C713 1.321 . S
C711 H697 0.930 . S
C711 C713 1.400 . S
C711 C714 1.386 . S
C712 C708 1.429 . S
C712 N710 1.377 . S
C712 C715 1.411 . S
C713 H695 0.930 . S
C713 N710 1.321 . S
C713 C711 1.400 . S
C714 H709 0.930 . S
C714 C711 1.386 . S
C714 C715 1.395 . S
C715 C712 1.411 . S
C715 C714 1.395 . S
C715 C737 1.420 . S
O716 Eu672 2.558 . S
O716 C736 1.257 . S
O717 Eu672 2.612 . S
O717 Eu683 2.380 . S
O717 C728 1.276 . S
O718 Eu683 2.432 . S
O718 C735 1.264 . S
O719 Eu672 2.339 . S
O719 C735 1.254 . S
O720 Eu672 2.563 . S
O720 C728 1.235 . S
O721 Eu672 2.419 . S
O721 C736 1.249 . S
O722 Eu683 2.558 . S
O722 C747 1.257 . S
O723 Eu672 2.380 . S
O723 Eu683 2.612 . S
O723 C739 1.276 . S
O724 Eu672 2.432 . S
O724 C746 1.264 . S
O725 Eu683 2.339 . S
O725 C746 1.254 . S
O726 Eu683 2.563 . S
O726 C739 1.235 . S
O727 Eu683 2.419 . S
O727 C747 1.249 . S
C728 O717 1.276 . S
C728 O720 1.235 . S
C729 C731 1.393 . S
C729 C733 1.395 . S
C729 C736 1.492 . S
C730 C731 1.392 . S
C730 C732 1.386 . S
C731 C729 1.393 . S
C731 C730 1.392 . S
C731 H748 0.930 . S
C732 C730 1.386 . S
C732 C734 1.395 . S
C732 H749 0.930 . S
C733 C729 1.395 . S
C733 C734 1.379 . S
C733 H750 0.930 . S
C734 C732 1.395 . S
C734 C733 1.379 . S
C734 H751 0.930 . S
C735 O718 1.264 . S
C735 O719 1.254 . S
C736 Eu672 2.848 . S
C736 O716 1.257 . S
C736 O721 1.249 . S
C736 C729 1.492 . S
C737 H702 0.931 . S
C737 C715 1.420 . S
C737 C738 1.351 . S
C738 H700 0.930 . S
C738 C706 1.423 . S
C738 C737 1.351 . S
C739 O723 1.276 . S
C739 O726 1.235 . S
C740 C741 1.393 . S
C740 C744 1.395 . S
C740 C747 1.492 . S
C741 C740 1.393 . S
C741 C742 1.392 . S
C741 H752 0.930 . S
C742 C741 1.392 . S
C742 C743 1.386 . S
C743 C742 1.386 . S
C743 C745 1.395 . S
C743 H753 0.930 . S
C744 C740 1.395 . S
C744 C745 1.379 . S
C744 H754 0.930 . S
C745 C743 1.395 . S
C745 C744 1.379 . S
C745 H755 0.930 . S
C746 O724 1.264 . S
C746 O725 1.254 . S
C747 Eu683 2.848 . S
C747 O722 1.257 . S
C747 O727 1.249 . S
C747 C740 1.492 . S
H748 C731 0.930 . S
H749 C732 0.930 . S
H750 C733 0.930 . S
H751 C734 0.930 . S
H752 C741 0.930 . S
H753 C743 0.930 . S
H754 C744 0.930 . S
H755 C745 0.930 . S
Eu756 N787 2.657 . S
Eu756 N794 2.609 . S
Eu756 O800 2.558 . S
Eu756 O801 2.612 . S
Eu756 O803 2.339 . S
Eu756 O804 2.563 . S
Eu756 O805 2.419 . S
Eu756 O807 2.380 1_545 S
Eu756 O808 2.432 . S
Eu756 C820 2.848 . S
C757 C760 1.429 . S
C757 C761 1.411 . S
C757 N764 1.377 . S
C758 C760 1.420 1_545 S
C758 C762 1.423 . S
C758 C770 1.392 . S
C759 C761 1.420 . S
C759 C762 1.351 1_565 S
C759 H782 0.931 . S
C760 C757 1.429 . S
C760 C758 1.420 1_565 S
C760 N768 1.362 1_565 S
C761 C757 1.411 . S
C761 C759 1.420 . S
C761 C766 1.395 . S
C762 C758 1.423 . S
C762 C759 1.351 1_545 S
C762 H774 0.930 . S
C763 C765 1.400 . S
C763 C766 1.386 . S
C763 H775 0.930 . S
N764 C757 1.377 . S
N764 C765 1.321 . S
N764 Eu767 2.609 . S
C765 C763 1.400 . S
C765 N764 1.321 . S
C765 H772 0.930 . S
C766 C761 1.395 . S
C766 C763 1.386 . S
C766 H785 0.930 . S
Eu767 N764 2.609 . S
Eu767 N768 2.657 1_565 S
Eu767 O801 2.380 1_565 S
Eu767 O802 2.432 . S
Eu767 O806 2.558 . S
Eu767 O807 2.612 . S
Eu767 O809 2.339 1_565 S
Eu767 O810 2.563 . S
Eu767 O811 2.419 . S
Eu767 C831 2.848 . S
N768 C760 1.362 1_545 S
N768 Eu767 2.657 1_545 S
N768 C769 1.334 . S
C769 N768 1.334 . S
C769 C771 1.413 . S
C769 H776 0.929 . S
C770 C758 1.392 . S
C770 C771 1.367 . S
C770 H778 0.930 . S
C771 C769 1.413 . S
C771 C770 1.367 . S
C771 H773 0.930 . S
H772 C765 0.930 . S
H773 C771 0.930 . S
H774 C762 0.930 . S
H775 C763 0.930 . S
H776 C769 0.929 . S
H777 C791 0.930 . S
H778 C770 0.930 . S
H779 C797 0.930 . S
H780 C788 0.929 . S
H781 C795 0.930 . S
H782 C759 0.931 . S
H783 C789 0.930 . S
H784 C822 0.930 1_565 S
H785 C766 0.930 . S
H786 C821 0.931 . S
N787 Eu756 2.657 . S
N787 C788 1.334 1_545 S
N787 C792 1.362 . S
C788 H780 0.929 . S
C788 N787 1.334 1_565 S
C788 C791 1.413 . S
C789 H783 0.930 . S
C789 C790 1.392 . S
C789 C791 1.367 . S
C790 C789 1.392 . S
C790 C792 1.420 1_565 S
C790 C822 1.423 1_566 S
C791 H777 0.930 . S
C791 C788 1.413 . S
C791 C789 1.367 . S
C792 N787 1.362 . S
C792 C790 1.420 1_545 S
C792 C796 1.429 . S
H793 C798 0.930 . S
N794 Eu756 2.609 . S
N794 C796 1.377 . S
N794 C797 1.321 . S
C795 H781 0.930 . S
C795 C797 1.400 1_554 S
C795 C798 1.386 . S
C796 C792 1.429 . S
C796 N794 1.377 . S
C796 C799 1.411 1_556 S
C797 H779 0.930 . S
C797 N794 1.321 . S
C797 C795 1.400 1_556 S
C798 H793 0.930 . S
C798 C795 1.386 . S
C798 C799 1.395 . S
C799 C796 1.411 1_554 S
C799 C798 1.395 . S
C799 C821 1.420 . S
O800 Eu756 2.558 . S
O800 C820 1.257 . S
O801 Eu756 2.612 . S
O801 Eu767 2.380 1_545 S
O801 C812 1.276 . S
O802 Eu767 2.432 . S
O802 C819 1.264 . S
O803 Eu756 2.339 . S
O803 C819 1.254 1_545 S
O804 Eu756 2.563 . S
O804 C812 1.235 . S
O805 Eu756 2.419 . S
O805 C820 1.249 . S
O806 Eu767 2.558 . S
O806 C831 1.257 . S
O807 Eu756 2.380 1_565 S
O807 Eu767 2.612 . S
O807 C823 1.276 . S
O808 Eu756 2.432 . S
O808 C830 1.264 . S
O809 Eu767 2.339 1_545 S
O809 C830 1.254 . S
O810 Eu767 2.563 . S
O810 C823 1.235 . S
O811 Eu767 2.419 . S
O811 C831 1.249 . S
C812 O801 1.276 . S
C812 O804 1.235 . S
C813 C815 1.393 . S
C813 C817 1.395 . S
C813 C820 1.492 . S
C814 C815 1.392 . S
C814 C816 1.386 . S
C815 C813 1.393 . S
C815 C814 1.392 . S
C815 H832 0.930 . S
C816 C814 1.386 . S
C816 C818 1.395 . S
C816 H833 0.930 . S
C817 C813 1.395 . S
C817 C818 1.379 . S
C817 H834 0.930 . S
C818 C816 1.395 . S
C818 C817 1.379 . S
C818 H835 0.930 . S
C819 O802 1.264 . S
C819 O803 1.254 1_565 S
C820 Eu756 2.848 . S
C820 O800 1.257 . S
C820 O805 1.249 . S
C820 C813 1.492 . S
C821 H786 0.931 . S
C821 C799 1.420 . S
C821 C822 1.351 . S
C822 H784 0.930 1_545 S
C822 C790 1.423 1_544 S
C822 C821 1.351 . S
C823 O807 1.276 . S
C823 O810 1.235 . S
C824 C825 1.393 . S
C824 C828 1.395 . S
C824 C831 1.492 . S
C825 C824 1.393 . S
C825 C826 1.392 . S
C825 H836 0.930 . S
C826 C825 1.392 . S
C826 C827 1.386 . S
C827 C826 1.386 . S
C827 C829 1.395 . S
C827 H837 0.930 . S
C828 C824 1.395 . S
C828 C829 1.379 . S
C828 H838 0.930 . S
C829 C827 1.395 . S
C829 C828 1.379 . S
C829 H839 0.930 . S
C830 O808 1.264 . S
C830 O809 1.254 . S
C831 Eu767 2.848 . S
C831 O806 1.257 . S
C831 O811 1.249 . S
C831 C824 1.492 . S
H832 C815 0.930 . S
H833 C816 0.930 . S
H834 C817 0.930 . S
H835 C818 0.930 . S
H836 C825 0.930 . S
H837 C827 0.930 . S
H838 C828 0.930 . S
H839 C829 0.930 . S
Eu840 N871 2.657 . S
Eu840 N878 2.609 . S
Eu840 O884 2.558 . S
Eu840 O885 2.612 . S
Eu840 O887 2.350 . S
Eu840 O888 2.563 . S
Eu840 O889 2.419 . S
Eu840 O891 2.380 1_565 S
Eu840 O892 2.432 . S
Eu840 C904 2.848 . S
C841 C844 1.429 . S
C841 C845 1.411 . S
C841 N848 1.377 . S
C842 C844 1.420 1_565 S
C842 C846 1.423 . S
C842 C854 1.392 . S
C843 C845 1.420 . S
C843 C846 1.351 1_545 S
C843 H866 0.931 . S
C844 C841 1.429 . S
C844 C842 1.420 1_545 S
C844 N852 1.362 1_545 S
C845 C841 1.411 . S
C845 C843 1.420 . S
C845 C850 1.395 . S
C846 C842 1.423 . S
C846 C843 1.351 1_565 S
C846 H858 0.930 . S
C847 C849 1.400 . S
C847 C850 1.386 . S
C847 H859 0.930 . S
N848 C841 1.377 . S
N848 C849 1.321 . S
N848 Eu851 2.609 . S
C849 C847 1.400 . S
C849 N848 1.321 . S
C849 H856 0.930 . S
C850 C845 1.395 . S
C850 C847 1.386 . S
C850 H869 0.930 . S
Eu851 N848 2.609 . S
Eu851 N852 2.657 1_545 S
Eu851 O885 2.380 1_545 S
Eu851 O886 2.432 . S
Eu851 O890 2.558 . S
Eu851 O891 2.612 . S
Eu851 O893 2.339 1_545 S
Eu851 O894 2.563 . S
Eu851 O895 2.419 . S
Eu851 C915 2.848 . S
N852 C844 1.362 1_565 S
N852 Eu851 2.657 1_565 S
N852 C853 1.334 . S
C853 N852 1.334 . S
C853 C855 1.413 . S
C853 H860 0.929 . S
C854 C842 1.392 . S
C854 C855 1.367 . S
C854 H862 0.930 . S
C855 C853 1.413 . S
C855 C854 1.367 . S
C855 H857 0.930 . S
H856 C849 0.930 . S
H857 C855 0.930 . S
H858 C846 0.930 . S
H859 C847 0.930 . S
H860 C853 0.929 . S
H861 C875 0.930 . S
H862 C854 0.930 . S
H863 C881 0.930 . S
H864 C872 0.929 . S
H865 C879 0.930 . S
H866 C843 0.931 . S
H867 C873 0.930 . S
H868 C906 0.930 1_545 S
H869 C850 0.930 . S
H870 C905 0.931 . S
N871 Eu840 2.657 . S
N871 C872 1.334 1_565 S
N871 C876 1.362 . S
C872 H864 0.929 . S
C872 N871 1.334 1_545 S
C872 C875 1.413 . S
C873 H867 0.930 . S
C873 C874 1.392 . S
C873 C875 1.367 . S
C874 C873 1.392 . S
C874 C876 1.420 1_545 S
C874 C906 1.423 1_545 S
C875 H861 0.930 . S
C875 C872 1.413 . S
C875 C873 1.367 . S
C876 N871 1.362 . S
C876 C874 1.420 1_565 S
C876 C880 1.429 . S
H877 C882 0.930 . S
N878 Eu840 2.609 . S
N878 C880 1.377 . S
N878 C881 1.321 . S
C879 H865 0.930 . S
C879 C881 1.400 . S
C879 C882 1.386 . S
C880 C876 1.429 . S
C880 N878 1.377 . S
C880 C883 1.411 . S
C881 H863 0.930 . S
C881 N878 1.321 . S
C881 C879 1.400 . S
C882 H877 0.930 . S
C882 C879 1.386 . S
C882 C883 1.395 . S
C883 C880 1.411 . S
C883 C882 1.395 . S
C883 C905 1.420 . S
O884 Eu840 2.558 . S
O884 C904 1.257 . S
O885 Eu840 2.612 . S
O885 Eu851 2.380 1_565 S
O885 C896 1.276 . S
O886 Eu851 2.432 . S
O886 C903 1.264 . S
O887 Eu840 2.350 . S
O887 C903 1.242 1_565 S
O888 Eu840 2.563 . S
O888 C896 1.235 . S
O889 Eu840 2.419 . S
O889 C904 1.249 . S
O890 Eu851 2.558 . S
O890 C915 1.257 . S
O891 Eu840 2.380 1_545 S
O891 Eu851 2.612 . S
O891 C907 1.276 . S
O892 Eu840 2.432 . S
O892 C914 1.264 . S
O893 Eu851 2.339 1_565 S
O893 C914 1.254 . S
O894 Eu851 2.563 . S
O894 C907 1.235 . S
O895 Eu851 2.419 . S
O895 C915 1.249 . S
C896 O885 1.276 . S
C896 O888 1.235 . S
C897 C899 1.393 . S
C897 C901 1.395 . S
C897 C904 1.492 . S
C898 C899 1.392 . S
C898 C900 1.386 . S
C899 C897 1.393 . S
C899 C898 1.392 . S
C899 H916 0.930 . S
C900 C898 1.386 . S
C900 C902 1.395 . S
C900 H917 0.930 . S
C901 C897 1.395 . S
C901 C902 1.379 . S
C901 H918 0.930 . S
C902 C900 1.395 . S
C902 C901 1.379 . S
C902 H919 0.930 . S
C903 O886 1.264 . S
C903 O887 1.242 1_545 S
C904 Eu840 2.848 . S
C904 O884 1.257 . S
C904 O889 1.249 . S
C904 C897 1.492 . S
C905 H870 0.931 . S
C905 C883 1.420 . S
C905 C906 1.351 . S
C906 H868 0.930 1_565 S
C906 C874 1.423 1_565 S
C906 C905 1.351 . S
C907 O891 1.276 . S
C907 O894 1.235 . S
C908 C909 1.393 . S
C908 C912 1.395 . S
C908 C915 1.492 . S
C909 C908 1.393 . S
C909 C910 1.392 . S
C909 H920 0.930 . S
C910 C909 1.392 . S
C910 C911 1.386 . S
C911 C910 1.386 . S
C911 C913 1.395 . S
C911 H921 0.930 . S
C912 C908 1.395 . S
C912 C913 1.379 . S
C912 H922 0.930 . S
C913 C911 1.395 . S
C913 C912 1.379 . S
C913 H923 0.930 . S
C914 O892 1.264 . S
C914 O893 1.254 . S
C915 Eu851 2.848 . S
C915 O890 1.257 . S
C915 O895 1.249 . S
C915 C908 1.492 . S
H916 C899 0.930 . S
H917 C900 0.930 . S
H918 C901 0.930 . S
H919 C902 0.930 . S
H920 C909 0.930 . S
H921 C911 0.930 . S
H922 C912 0.930 . S
H923 C913 0.930 . S
Eu924 N955 2.657 . S
Eu924 N962 2.609 . S
Eu924 O968 2.558 . S
Eu924 O969 2.612 . S
Eu924 O971 2.339 . S
Eu924 O972 2.563 . S
Eu924 O973 2.419 . S
Eu924 O975 2.380 . S
Eu924 O976 2.432 . S
Eu924 C988 2.848 . S
C925 C928 1.429 . S
C925 C929 1.411 . S
C925 N932 1.377 . S
C926 C928 1.420 . S
C926 C930 1.423 . S
C926 C938 1.392 . S
C927 C929 1.420 . S
C927 C930 1.351 . S
C927 H950 0.931 . S
C928 C925 1.429 . S
C928 C926 1.420 . S
C928 N936 1.362 . S
C929 C925 1.411 . S
C929 C927 1.420 . S
C929 C934 1.395 . S
C930 C926 1.423 . S
C930 C927 1.351 . S
C930 H942 0.930 . S
C931 C933 1.400 . S
C931 C934 1.386 . S
C931 H943 0.930 . S
N932 C925 1.377 . S
N932 C933 1.321 . S
N932 Eu935 2.609 . S
C933 C931 1.400 . S
C933 N932 1.321 . S
C933 H940 0.930 . S
C934 C929 1.395 . S
C934 C931 1.386 . S
C934 H953 0.930 . S
Eu935 N932 2.609 . S
Eu935 N936 2.657 . S
Eu935 O969 2.380 . S
Eu935 O970 2.432 . S
Eu935 O974 2.558 . S
Eu935 O975 2.612 . S
Eu935 O977 2.339 . S
Eu935 O978 2.563 . S
Eu935 O979 2.419 . S
Eu935 C999 2.848 . S
N936 C928 1.362 . S
N936 Eu935 2.657 . S
N936 C937 1.334 . S
C937 N936 1.334 . S
C937 C939 1.413 . S
C937 H944 0.929 . S
C938 C926 1.392 . S
C938 C939 1.367 . S
C938 H946 0.930 . S
C939 C937 1.413 . S
C939 C938 1.367 . S
C939 H941 0.930 . S
H940 C933 0.930 . S
H941 C939 0.930 . S
H942 C930 0.930 . S
H943 C931 0.930 . S
H944 C937 0.929 . S
H945 C959 0.930 . S
H946 C938 0.930 . S
H947 C965 0.930 . S
H948 C956 0.929 . S
H949 C963 0.930 . S
H950 C927 0.931 . S
H951 C957 0.930 . S
H952 C990 0.930 . S
H953 C934 0.930 . S
H954 C989 0.931 . S
N955 Eu924 2.657 . S
N955 C956 1.334 . S
N955 C960 1.362 . S
C956 H948 0.929 . S
C956 N955 1.334 . S
C956 C959 1.413 . S
C957 H951 0.930 . S
C957 C958 1.392 . S
C957 C959 1.367 . S
C958 C957 1.392 . S
C958 C960 1.420 . S
C958 C990 1.423 . S
C959 H945 0.930 . S
C959 C956 1.413 . S
C959 C957 1.367 . S
C960 N955 1.362 . S
C960 C958 1.420 . S
C960 C964 1.429 . S
H961 C966 0.930 . S
N962 Eu924 2.609 . S
N962 C964 1.377 . S
N962 C965 1.321 . S
C963 H949 0.930 . S
C963 C965 1.400 . S
C963 C966 1.386 . S
C964 C960 1.429 . S
C964 N962 1.377 . S
C964 C967 1.411 . S
C965 H947 0.930 . S
C965 N962 1.321 . S
C965 C963 1.400 . S
C966 H961 0.930 . S
C966 C963 1.386 . S
C966 C967 1.395 . S
C967 C964 1.411 . S
C967 C966 1.395 . S
C967 C989 1.420 . S
O968 Eu924 2.558 . S
O968 C988 1.257 . S
O969 Eu924 2.612 . S
O969 Eu935 2.380 . S
O969 C980 1.276 . S
O970 Eu935 2.432 . S
O970 C987 1.264 . S
O971 Eu924 2.339 . S
O971 C987 1.254 . S
O972 Eu924 2.563 . S
O972 C980 1.235 . S
O973 Eu924 2.419 . S
O973 C988 1.249 . S
O974 Eu935 2.558 . S
O974 C999 1.257 . S
O975 Eu924 2.380 . S
O975 Eu935 2.612 . S
O975 C991 1.276 . S
O976 Eu924 2.432 . S
O976 C998 1.264 . S
O977 Eu935 2.339 . S
O977 C998 1.254 . S
O978 Eu935 2.563 . S
O978 C991 1.235 . S
O979 Eu935 2.419 . S
O979 C999 1.249 . S
C980 O969 1.276 . S
C980 O972 1.235 . S
C981 C983 1.393 . S
C981 C985 1.395 . S
C981 C988 1.492 . S
C982 C983 1.392 . S
C982 C984 1.386 . S
C983 C981 1.393 . S
C983 C982 1.392 . S
C983 H1000 0.930 . S
C984 C982 1.386 . S
C984 C986 1.395 . S
C984 H1001 0.930 . S
C985 C981 1.395 . S
C985 C986 1.379 . S
C985 H1002 0.930 . S
C986 C984 1.395 . S
C986 C985 1.379 . S
C986 H1003 0.930 . S
C987 O970 1.264 . S
C987 O971 1.254 . S
C988 Eu924 2.848 . S
C988 O968 1.257 . S
C988 O973 1.249 . S
C988 C981 1.492 . S
C989 H954 0.931 . S
C989 C967 1.420 . S
C989 C990 1.351 . S
C990 H952 0.930 . S
C990 C958 1.423 . S
C990 C989 1.351 . S
C991 O975 1.276 . S
C991 O978 1.235 . S
C992 C993 1.393 . S
C992 C996 1.395 . S
C992 C999 1.492 . S
C993 C992 1.393 . S
C993 C994 1.392 . S
C993 H1004 0.930 . S
C994 C993 1.392 . S
C994 C995 1.386 . S
C995 C994 1.386 . S
C995 C997 1.395 . S
C995 H1005 0.930 . S
C996 C992 1.395 . S
C996 C997 1.379 . S
C996 H1006 0.930 . S
C997 C995 1.395 . S
C997 C996 1.379 . S
C997 H1007 0.930 . S
C998 O976 1.264 . S
C998 O977 1.254 . S
C999 Eu935 2.848 . S
C999 O974 1.257 . S
C999 O979 1.249 . S
C999 C992 1.492 . S
H1000 C983 0.930 . S
H1001 C984 0.930 . S
H1002 C985 0.930 . S
H1003 C986 0.930 . S
H1004 C993 0.930 . S
H1005 C995 0.930 . S
H1006 C996 0.930 . S
H1007 C997 0.930 . S
C1008 C1009 1.363 . S
C1008 C1014 1.379 . S
C1008 N1016 1.356 . S
C1009 C1008 1.363 . S
C1009 C1015 1.363 . S
C1010 C1011 1.363 . S
C1010 C1015 1.379 . S
C1010 N1017 1.356 . S
C1011 C1010 1.363 . S
C1011 C1014 1.363 . S
N1012 C1014 1.356 . S
N1012 H1024 0.984 . S
N1012 H1025 0.985 . S
N1013 C1015 1.356 . S
N1013 H1018 0.984 . S
N1013 H1019 0.985 . S
C1014 C1008 1.379 . S
C1014 C1011 1.363 . S
C1014 N1012 1.356 . S
C1015 C1009 1.363 . S
C1015 C1010 1.379 . S
C1015 N1013 1.356 . S
N1016 C1008 1.356 . S
N1016 H1022 0.984 . S
N1016 H1023 0.984 . S
N1017 C1010 1.356 . S
N1017 H1020 0.984 . S
N1017 H1021 0.985 . S
H1018 N1013 0.984 . S
H1019 N1013 0.985 . S
H1020 N1017 0.984 . S
H1021 N1017 0.985 . S
H1022 N1016 0.984 . S
H1023 N1016 0.984 . S
H1024 N1012 0.984 . S
H1025 N1012 0.985 . S
C1026 C1027 1.363 . S
C1026 C1032 1.379 . S
C1026 N1034 1.356 1_565 S
C1027 C1026 1.363 . S
C1027 C1033 1.363 . S
C1028 C1029 1.363 . S
C1028 C1033 1.379 . S
C1028 N1035 1.356 . S
C1029 C1028 1.363 . S
C1029 C1032 1.363 . S
N1030 C1032 1.356 1_545 S
N1030 H1042 0.984 . S
N1030 H1043 0.985 1_545 S
N1031 C1033 1.356 . S
N1031 H1036 0.984 . S
N1031 H1037 0.985 . S
C1032 C1026 1.379 . S
C1032 C1029 1.363 . S
C1032 N1030 1.356 1_565 S
C1033 C1027 1.363 . S
C1033 C1028 1.379 . S
C1033 N1031 1.356 . S
N1034 C1026 1.356 1_545 S
N1034 H1040 0.984 . S
N1034 H1041 0.984 . S
N1035 C1028 1.356 . S
N1035 H1038 0.984 . S
N1035 H1039 0.985 . S
H1036 N1031 0.984 . S
H1037 N1031 0.985 . S
H1038 N1035 0.984 . S
H1039 N1035 0.985 . S
H1040 N1034 0.984 . S
H1041 N1034 0.984 . S
H1042 N1030 0.984 . S
H1043 N1030 0.985 1_565 S
C1044 C1045 1.363 . S
C1044 C1050 1.379 . S
C1044 N1052 1.356 . S
C1045 C1044 1.363 . S
C1045 C1051 1.363 . S
C1046 C1047 1.363 . S
C1046 C1051 1.379 . S
C1046 N1053 1.356 . S
C1047 C1046 1.363 . S
C1047 C1050 1.363 . S
N1048 C1050 1.356 . S
N1048 H1060 0.984 . S
N1048 H1061 0.985 . S
N1049 C1051 1.356 . S
N1049 H1054 0.984 . S
N1049 H1055 0.985 . S
C1050 C1044 1.379 . S
C1050 C1047 1.363 . S
C1050 N1048 1.356 . S
C1051 C1045 1.363 . S
C1051 C1046 1.379 . S
C1051 N1049 1.356 . S
N1052 C1044 1.356 . S
N1052 H1058 0.984 1_554 S
N1052 H1059 0.985 . S
N1053 C1046 1.356 . S
N1053 H1056 0.984 . S
N1053 H1057 0.985 . S
H1054 N1049 0.984 . S
H1055 N1049 0.985 . S
H1056 N1053 0.984 . S
H1057 N1053 0.985 . S
H1058 N1052 0.984 1_556 S
H1059 N1052 0.985 . S
H1060 N1048 0.984 . S
H1061 N1048 0.985 . S
C1062 C1063 1.363 . S
C1062 C1068 1.379 . S
C1062 N1070 1.356 . S
C1063 C1062 1.363 . S
C1063 C1069 1.363 . S
C1064 C1065 1.363 . S
C1064 C1069 1.379 . S
C1064 N1071 1.356 1_545 S
C1065 C1064 1.363 . S
C1065 C1068 1.363 . S
N1066 C1068 1.356 . S
N1066 H1078 0.984 . S
N1066 H1079 0.985 . S
N1067 C1069 1.360 . S
N1067 H1072 0.989 . S
N1067 H1073 0.977 1_545 S
C1068 C1062 1.379 . S
C1068 C1065 1.363 . S
C1068 N1066 1.356 . S
C1069 C1063 1.363 . S
C1069 C1064 1.379 . S
C1069 N1067 1.360 . S
N1070 C1062 1.356 . S
N1070 H1076 0.984 . S
N1070 H1077 0.984 . S
N1071 C1064 1.356 1_565 S
N1071 H1074 0.984 . S
N1071 H1075 0.985 . S
H1072 N1067 0.989 . S
H1073 N1067 0.977 1_565 S
H1074 N1071 0.984 . S
H1075 N1071 0.985 . S
H1076 N1070 0.984 . S
H1077 N1070 0.984 . S
H1078 N1066 0.984 . S
H1079 N1066 0.985 . S
C1080 C1081 1.363 . S
C1080 C1086 1.379 . S
C1080 N1088 1.356 . S
C1081 C1080 1.363 . S
C1081 C1087 1.363 . S
C1082 C1083 1.363 . S
C1082 C1087 1.379 . S
C1082 N1089 1.356 . S
C1083 C1082 1.363 . S
C1083 C1086 1.363 . S
N1084 C1086 1.356 . S
N1084 H1096 0.984 . S
N1084 H1097 0.985 . S
N1085 C1087 1.356 . S
N1085 H1090 0.984 . S
N1085 H1091 0.985 . S
C1086 C1080 1.379 . S
C1086 C1083 1.363 . S
C1086 N1084 1.356 . S
C1087 C1081 1.363 . S
C1087 C1082 1.379 . S
C1087 N1085 1.356 . S
N1088 C1080 1.356 . S
N1088 H1094 0.984 . S
N1088 H1095 0.984 . S
N1089 C1082 1.356 . S
N1089 H1092 0.984 . S
N1089 H1093 0.985 . S
H1090 N1085 0.984 . S
H1091 N1085 0.985 . S
H1092 N1089 0.984 . S
H1093 N1089 0.985 . S
H1094 N1088 0.984 . S
H1095 N1088 0.984 . S
H1096 N1084 0.984 . S
H1097 N1084 0.985 . S
C1098 C1099 1.363 . S
C1098 C1104 1.379 . S
C1098 N1106 1.356 . S
C1099 C1098 1.363 . S
C1099 C1105 1.363 . S
C1100 C1101 1.363 . S
C1100 C1105 1.379 . S
C1100 N1107 1.356 . S
C1101 C1100 1.363 . S
C1101 C1104 1.363 . S
N1102 C1104 1.356 . S
N1102 H1114 0.984 . S
N1102 H1115 0.985 . S
N1103 C1105 1.356 . S
N1103 H1108 0.984 . S
N1103 H1109 0.985 . S
C1104 C1098 1.379 . S
C1104 C1101 1.363 . S
C1104 N1102 1.356 . S
C1105 C1099 1.363 . S
C1105 C1100 1.379 . S
C1105 N1103 1.356 . S
N1106 C1098 1.356 . S
N1106 H1112 0.984 . S
N1106 H1113 0.984 . S
N1107 C1100 1.356 . S
N1107 H1110 0.984 . S
N1107 H1111 0.985 . S
H1108 N1103 0.984 . S
H1109 N1103 0.985 . S
H1110 N1107 0.984 . S
H1111 N1107 0.985 . S
H1112 N1106 0.984 . S
H1113 N1106 0.984 . S
H1114 N1102 0.984 . S
H1115 N1102 0.985 . S
C1116 C1117 1.363 . S
C1116 C1122 1.379 . S
C1116 N1124 1.356 . S
C1117 C1116 1.363 . S
C1117 C1123 1.363 . S
C1118 C1119 1.363 . S
C1118 C1123 1.379 . S
C1118 N1125 1.356 . S
C1119 C1118 1.363 . S
C1119 C1122 1.363 . S
N1120 C1122 1.356 1_554 S
N1120 H1132 0.984 . S
N1120 H1133 0.985 . S
N1121 C1123 1.356 . S
N1121 H1126 0.984 . S
N1121 H1127 0.985 . S
C1122 C1116 1.379 . S
C1122 C1119 1.363 . S
C1122 N1120 1.356 1_556 S
C1123 C1117 1.363 . S
C1123 C1118 1.379 . S
C1123 N1121 1.356 . S
N1124 C1116 1.356 . S
N1124 H1130 0.984 1_556 S
N1124 H1131 0.984 . S
N1125 C1118 1.356 . S
N1125 H1128 0.984 . S
N1125 H1129 0.985 . S
H1126 N1121 0.984 . S
H1127 N1121 0.985 . S
H1128 N1125 0.984 . S
H1129 N1125 0.985 . S
H1130 N1124 0.984 1_554 S
H1131 N1124 0.984 . S
H1132 N1120 0.984 . S
H1133 N1120 0.985 . S
C1134 C1135 1.363 . S
C1134 C1140 1.379 . S
C1134 N1142 1.356 . S
C1135 C1134 1.363 . S
C1135 C1141 1.363 . S
C1136 C1137 1.363 . S
C1136 C1141 1.379 . S
C1136 N1143 1.356 . S
C1137 C1136 1.363 . S
C1137 C1140 1.363 . S
N1138 C1140 1.356 . S
N1138 H1150 0.984 . S
N1138 H1151 0.985 . S
N1139 C1141 1.356 . S
N1139 H1144 0.984 . S
N1139 H1145 0.985 . S
C1140 C1134 1.379 . S
C1140 C1137 1.363 . S
C1140 N1138 1.356 . S
C1141 C1135 1.363 . S
C1141 C1136 1.379 . S
C1141 N1139 1.356 . S
N1142 C1134 1.356 . S
N1142 H1148 0.984 . S
N1142 H1149 0.984 . S
N1143 C1136 1.356 . S
N1143 H1146 0.984 . S
N1143 H1147 0.985 . S
H1144 N1139 0.984 . S
H1145 N1139 0.985 . S
H1146 N1143 0.984 . S
H1147 N1143 0.985 . S
H1148 N1142 0.984 . S
H1149 N1142 0.984 . S
H1150 N1138 0.984 . S
H1151 N1138 0.985 . S
C1152 C1153 1.363 . S
C1152 C1158 1.379 . S
C1152 N1160 1.356 . S
C1153 C1152 1.363 . S
C1153 C1159 1.363 . S
C1154 C1155 1.363 . S
C1154 C1159 1.379 . S
C1154 N1161 1.356 . S
C1155 C1154 1.363 . S
C1155 C1158 1.363 . S
N1156 C1158 1.356 . S
N1156 H1168 0.984 . S
N1156 H1169 0.985 . S
N1157 C1159 1.356 . S
N1157 H1162 0.984 . S
N1157 H1163 0.985 . S
C1158 C1152 1.379 . S
C1158 C1155 1.363 . S
C1158 N1156 1.356 . S
C1159 C1153 1.363 . S
C1159 C1154 1.379 . S
C1159 N1157 1.356 . S
N1160 C1152 1.356 . S
N1160 H1166 0.984 . S
N1160 H1167 0.984 . S
N1161 C1154 1.356 . S
N1161 H1164 0.984 . S
N1161 H1165 0.985 . S
H1162 N1157 0.984 . S
H1163 N1157 0.985 . S
H1164 N1161 0.984 . S
H1165 N1161 0.985 . S
H1166 N1160 0.984 . S
H1167 N1160 0.984 . S
H1168 N1156 0.984 . S
H1169 N1156 0.985 . S
C1170 C1171 1.363 . S
C1170 C1176 1.379 . S
C1170 N1178 1.356 . S
C1171 C1170 1.363 . S
C1171 C1177 1.363 . S
C1172 C1173 1.363 . S
C1172 C1177 1.379 . S
C1172 N1179 1.356 . S
C1173 C1172 1.363 . S
C1173 C1176 1.363 . S
N1174 C1176 1.356 . S
N1174 H1186 0.984 . S
N1174 H1187 0.985 . S
N1175 C1177 1.356 . S
N1175 H1180 0.984 . S
N1175 H1181 0.985 . S
C1176 C1170 1.379 . S
C1176 C1173 1.363 . S
C1176 N1174 1.356 . S
C1177 C1171 1.363 . S
C1177 C1172 1.379 . S
C1177 N1175 1.356 . S
N1178 C1170 1.356 . S
N1178 H1184 0.984 . S
N1178 H1185 0.984 . S
N1179 C1172 1.356 . S
N1179 H1182 0.984 . S
N1179 H1183 0.985 . S
H1180 N1175 0.984 . S
H1181 N1175 0.985 . S
H1182 N1179 0.984 . S
H1183 N1179 0.985 . S
H1184 N1178 0.984 . S
H1185 N1178 0.984 . S
H1186 N1174 0.984 . S
H1187 N1174 0.985 . S
C1188 C1189 1.363 . S
C1188 C1194 1.379 . S
C1188 N1196 1.356 . S
C1189 C1188 1.363 . S
C1189 C1195 1.363 . S
C1190 C1191 1.363 . S
C1190 C1195 1.379 . S
C1190 N1197 1.356 . S
C1191 C1190 1.363 . S
C1191 C1194 1.363 . S
N1192 C1194 1.356 . S
N1192 H1204 0.984 . S
N1192 H1205 0.985 . S
N1193 C1195 1.356 . S
N1193 H1198 0.984 . S
N1193 H1199 0.985 . S
C1194 C1188 1.379 . S
C1194 C1191 1.363 . S
C1194 N1192 1.356 . S
C1195 C1189 1.363 . S
C1195 C1190 1.379 . S
C1195 N1193 1.356 . S
N1196 C1188 1.356 . S
N1196 H1202 0.984 . S
N1196 H1203 0.984 . S
N1197 C1190 1.356 . S
N1197 H1200 0.984 . S
N1197 H1201 0.985 . S
H1198 N1193 0.984 . S
H1199 N1193 0.985 . S
H1200 N1197 0.984 . S
H1201 N1197 0.985 . S
H1202 N1196 0.984 . S
H1203 N1196 0.984 . S
H1204 N1192 0.984 . S
H1205 N1192 0.985 . S
C1206 C1207 1.363 . S
C1206 C1212 1.379 . S
C1206 N1214 1.356 . S
C1207 C1206 1.363 . S
C1207 C1213 1.363 . S
C1208 C1209 1.363 . S
C1208 C1213 1.379 . S
C1208 N1215 1.356 . S
C1209 C1208 1.363 . S
C1209 C1212 1.363 . S
N1210 C1212 1.356 . S
N1210 H1222 0.984 . S
N1210 H1223 0.985 . S
N1211 C1213 1.356 . S
N1211 H1216 0.984 . S
N1211 H1217 0.985 . S
C1212 C1206 1.379 . S
C1212 C1209 1.363 . S
C1212 N1210 1.356 . S
C1213 C1207 1.363 . S
C1213 C1208 1.379 . S
C1213 N1211 1.356 . S
N1214 C1206 1.356 . S
N1214 H1220 0.984 . S
N1214 H1221 0.984 . S
N1215 C1208 1.356 . S
N1215 H1218 0.984 . S
N1215 H1219 0.985 . S
H1216 N1211 0.984 . S
H1217 N1211 0.985 . S
H1218 N1215 0.984 . S
H1219 N1215 0.985 . S
H1220 N1214 0.984 . S
H1221 N1214 0.984 . S
H1222 N1210 0.984 . S
H1223 N1210 0.985 . S
C1224 C1225 1.363 . S
C1224 C1230 1.379 . S
C1224 N1232 1.356 . S
C1225 C1224 1.363 . S
C1225 C1231 1.363 . S
C1226 C1227 1.363 . S
C1226 C1231 1.379 . S
C1226 N1233 1.356 . S
C1227 C1226 1.363 . S
C1227 C1230 1.363 . S
N1228 C1230 1.356 . S
N1228 H1240 0.984 . S
N1228 H1241 0.985 . S
N1229 C1231 1.356 . S
N1229 H1234 0.984 . S
N1229 H1235 0.985 . S
C1230 C1224 1.379 . S
C1230 C1227 1.363 . S
C1230 N1228 1.356 . S
C1231 C1225 1.363 . S
C1231 C1226 1.379 . S
C1231 N1229 1.356 . S
N1232 C1224 1.356 . S
N1232 H1238 0.984 . S
N1232 H1239 0.984 . S
N1233 C1226 1.356 . S
N1233 H1236 0.984 . S
N1233 H1237 0.985 . S
H1234 N1229 0.984 . S
H1235 N1229 0.985 . S
H1236 N1233 0.984 . S
H1237 N1233 0.985 . S
H1238 N1232 0.984 . S
H1239 N1232 0.984 . S
H1240 N1228 0.984 . S
H1241 N1228 0.985 . S
C1242 C1243 1.363 . S
C1242 C1248 1.379 . S
C1242 N1250 1.356 . S
C1243 C1242 1.363 . S
C1243 C1249 1.363 . S
C1244 C1245 1.363 . S
C1244 C1249 1.379 . S
C1244 N1251 1.356 . S
C1245 C1244 1.363 . S
C1245 C1248 1.363 . S
N1246 C1248 1.356 1_545 S
N1246 H1258 0.984 . S
N1246 H1259 0.985 . S
N1247 C1249 1.356 . S
N1247 H1252 0.984 . S
N1247 H1253 0.985 . S
C1248 C1242 1.379 . S
C1248 C1245 1.363 . S
C1248 N1246 1.356 1_565 S
C1249 C1243 1.363 . S
C1249 C1244 1.379 . S
C1249 N1247 1.356 . S
N1250 C1242 1.356 . S
N1250 H1256 0.984 1_565 S
N1250 H1257 0.984 . S
N1251 C1244 1.356 . S
N1251 H1254 0.984 . S
N1251 H1255 0.985 . S
H1252 N1247 0.984 . S
H1253 N1247 0.985 . S
H1254 N1251 0.984 . S
H1255 N1251 0.985 . S
H1256 N1250 0.984 1_545 S
H1257 N1250 0.984 . S
H1258 N1246 0.984 . S
H1259 N1246 0.985 . S
C1260 C1261 1.363 . S
C1260 C1266 1.379 . S
C1260 N1268 1.356 . S
C1261 C1260 1.363 . S
C1261 C1267 1.363 . S
C1262 C1263 1.363 . S
C1262 C1267 1.379 . S
C1262 N1269 1.356 . S
C1263 C1262 1.363 . S
C1263 C1266 1.363 . S
N1264 C1266 1.356 . S
N1264 H1276 0.984 . S
N1264 H1277 0.985 . S
N1265 C1267 1.356 . S
N1265 H1270 0.984 . S
N1265 H1271 0.985 . S
C1266 C1260 1.379 . S
C1266 C1263 1.363 . S
C1266 N1264 1.356 . S
C1267 C1261 1.363 . S
C1267 C1262 1.379 . S
C1267 N1265 1.356 . S
N1268 C1260 1.356 . S
N1268 H1274 0.984 . S
N1268 H1275 0.984 . S
N1269 C1262 1.356 . S
N1269 H1272 0.984 . S
N1269 H1273 0.985 . S
H1270 N1265 0.984 . S
H1271 N1265 0.985 . S
H1272 N1269 0.984 . S
H1273 N1269 0.985 . S
H1274 N1268 0.984 . S
H1275 N1268 0.984 . S
H1276 N1264 0.984 . S
H1277 N1264 0.985 . S
C1278 C1279 1.363 . S
C1278 C1284 1.379 . S
C1278 N1286 1.356 . S
C1279 C1278 1.363 . S
C1279 C1285 1.363 . S
C1280 C1281 1.363 . S
C1280 C1285 1.379 1_556 S
C1280 N1287 1.356 . S
C1281 C1280 1.363 . S
C1281 C1284 1.363 1_556 S
N1282 C1284 1.356 1_566 S
N1282 H1294 0.984 . S
N1282 H1295 0.985 . S
N1283 C1285 1.356 . S
N1283 H1288 0.984 . S
N1283 H1289 0.985 . S
C1284 C1278 1.379 . S
C1284 C1281 1.363 1_554 S
C1284 N1282 1.356 1_544 S
C1285 C1279 1.363 . S
C1285 C1280 1.379 1_554 S
C1285 N1283 1.356 . S
N1286 C1278 1.356 . S
N1286 H1292 0.984 1_545 S
N1286 H1293 0.984 . S
N1287 C1280 1.356 . S
N1287 H1290 0.984 . S
N1287 H1291 0.985 . S
H1288 N1283 0.984 . S
H1289 N1283 0.985 . S
H1290 N1287 0.984 . S
H1291 N1287 0.985 . S
H1292 N1286 0.984 1_565 S
H1293 N1286 0.984 . S
H1294 N1282 0.984 . S
H1295 N1282 0.985 . S
C1296 C1297 1.363 . S
C1296 C1302 1.379 . S
C1296 N1304 1.356 . S
C1297 C1296 1.363 . S
C1297 C1303 1.363 . S
C1298 C1299 1.363 . S
C1298 C1303 1.379 . S
C1298 N1305 1.356 . S
C1299 C1298 1.363 . S
C1299 C1302 1.363 . S
N1300 C1302 1.356 . S
N1300 H1312 0.984 . S
N1300 H1313 0.985 . S
N1301 C1303 1.356 . S
N1301 H1306 0.984 . S
N1301 H1307 0.985 . S
C1302 C1296 1.379 . S
C1302 C1299 1.363 . S
C1302 N1300 1.356 . S
C1303 C1297 1.363 . S
C1303 C1298 1.379 . S
C1303 N1301 1.356 . S
N1304 C1296 1.356 . S
N1304 H1310 0.984 . S
N1304 H1311 0.984 . S
N1305 C1298 1.356 . S
N1305 H1308 0.984 . S
N1305 H1309 0.985 . S
H1306 N1301 0.984 . S
H1307 N1301 0.985 . S
H1308 N1305 0.984 . S
H1309 N1305 0.985 . S
H1310 N1304 0.984 . S
H1311 N1304 0.984 . S
H1312 N1300 0.984 . S
H1313 N1300 0.985 . S
C1314 C1315 1.363 1_556 S
C1314 C1320 1.379 . S
C1314 N1322 1.356 1_556 S
C1315 C1314 1.363 1_554 S
C1315 C1321 1.363 . S
C1316 C1317 1.363 . S
C1316 C1321 1.379 1_556 S
C1316 N1323 1.356 . S
C1317 C1316 1.363 . S
C1317 C1320 1.363 . S
N1318 C1320 1.356 . S
N1318 H1330 0.984 . S
N1318 H1331 0.985 . S
N1319 C1321 1.356 . S
N1319 H1324 0.984 . S
N1319 H1325 0.985 . S
C1320 C1314 1.379 . S
C1320 C1317 1.363 . S
C1320 N1318 1.356 . S
C1321 C1315 1.363 . S
C1321 C1316 1.379 1_554 S
C1321 N1319 1.356 . S
N1322 C1314 1.356 1_554 S
N1322 H1328 0.984 . S
N1322 H1329 0.984 . S
N1323 C1316 1.356 . S
N1323 H1326 0.984 . S
N1323 H1327 0.985 . S
H1324 N1319 0.984 . S
H1325 N1319 0.985 . S
H1326 N1323 0.984 . S
H1327 N1323 0.985 . S
H1328 N1322 0.984 . S
H1329 N1322 0.984 . S
H1330 N1318 0.984 . S
H1331 N1318 0.985 . S
C1332 C1333 1.363 . S
C1332 C1338 1.379 . S
C1332 N1340 1.356 . S
C1333 C1332 1.363 . S
C1333 C1339 1.363 . S
C1334 C1335 1.363 . S
C1334 C1339 1.379 . S
C1334 N1341 1.356 . S
C1335 C1334 1.363 . S
C1335 C1338 1.363 . S
N1336 C1338 1.356 . S
N1336 H1348 0.984 . S
N1336 H1349 0.985 . S
N1337 C1339 1.356 . S
N1337 H1342 0.984 . S
N1337 H1343 0.985 . S
C1338 C1332 1.379 . S
C1338 C1335 1.363 . S
C1338 N1336 1.356 . S
C1339 C1333 1.363 . S
C1339 C1334 1.379 . S
C1339 N1337 1.356 . S
N1340 C1332 1.356 . S
N1340 H1346 0.984 . S
N1340 H1347 0.984 . S
N1341 C1334 1.356 . S
N1341 H1344 0.984 . S
N1341 H1345 0.985 . S
H1342 N1337 0.984 . S
H1343 N1337 0.985 . S
H1344 N1341 0.984 . S
H1345 N1341 0.985 . S
H1346 N1340 0.984 . S
H1347 N1340 0.984 . S
H1348 N1336 0.984 . S
H1349 N1336 0.985 . S
C1350 C1351 1.363 . S
C1350 C1356 1.379 . S
C1350 N1358 1.356 . S
C1351 C1350 1.363 . S
C1351 C1357 1.363 . S
C1352 C1353 1.363 . S
C1352 C1357 1.379 . S
C1352 N1359 1.356 . S
C1353 C1352 1.363 . S
C1353 C1356 1.363 . S
N1354 C1356 1.356 . S
N1354 H1366 0.984 . S
N1354 H1367 0.985 . S
N1355 C1357 1.356 . S
N1355 H1360 0.984 . S
N1355 H1361 0.985 . S
C1356 C1350 1.379 . S
C1356 C1353 1.363 . S
C1356 N1354 1.356 . S
C1357 C1351 1.363 . S
C1357 C1352 1.379 . S
C1357 N1355 1.356 . S
N1358 C1350 1.356 . S
N1358 H1364 0.984 . S
N1358 H1365 0.984 . S
N1359 C1352 1.356 . S
N1359 H1362 0.984 . S
N1359 H1363 0.985 . S
H1360 N1355 0.984 . S
H1361 N1355 0.985 . S
H1362 N1359 0.984 . S
H1363 N1359 0.985 . S
H1364 N1358 0.984 . S
H1365 N1358 0.984 . S
H1366 N1354 0.984 . S
H1367 N1354 0.985 . S
C1368 C1369 1.363 . S
C1368 C1374 1.379 . S
C1368 N1376 1.356 . S
C1369 C1368 1.363 . S
C1369 C1375 1.363 . S
C1370 C1371 1.363 . S
C1370 C1375 1.379 . S
C1370 N1377 1.356 . S
C1371 C1370 1.363 . S
C1371 C1374 1.363 . S
N1372 C1374 1.356 . S
N1372 H1384 0.984 . S
N1372 H1385 0.985 . S
N1373 C1375 1.356 . S
N1373 H1378 0.984 . S
N1373 H1379 0.985 . S
C1374 C1368 1.379 . S
C1374 C1371 1.363 . S
C1374 N1372 1.356 . S
C1375 C1369 1.363 . S
C1375 C1370 1.379 . S
C1375 N1373 1.356 . S
N1376 C1368 1.356 . S
N1376 H1382 0.984 . S
N1376 H1383 0.984 . S
N1377 C1370 1.356 . S
N1377 H1380 0.984 . S
N1377 H1381 0.985 . S
H1378 N1373 0.984 . S
H1379 N1373 0.985 . S
H1380 N1377 0.984 . S
H1381 N1377 0.985 . S
H1382 N1376 0.984 . S
H1383 N1376 0.984 . S
H1384 N1372 0.984 . S
H1385 N1372 0.985 . S
C1386 C1387 1.363 . S
C1386 C1392 1.379 1_545 S
C1386 N1394 1.356 . S
C1387 C1386 1.363 . S
C1387 C1393 1.363 . S
C1388 C1389 1.363 . S
C1388 C1393 1.379 1_565 S
C1388 N1395 1.356 . S
C1389 C1388 1.363 . S
C1389 C1392 1.363 . S
N1390 C1392 1.356 1_655 S
N1390 H1402 0.984 . S
N1390 H1403 0.985 . S
N1391 C1393 1.356 . S
N1391 H1396 0.984 . S
N1391 H1397 0.985 . S
C1392 C1386 1.379 1_565 S
C1392 C1389 1.363 . S
C1392 N1390 1.356 1_455 S
C1393 C1387 1.363 . S
C1393 C1388 1.379 1_545 S
C1393 N1391 1.356 . S
N1394 C1386 1.356 . S
N1394 H1400 0.984 1_455 S
N1394 H1401 0.984 . S
N1395 C1388 1.356 . S
N1395 H1398 0.984 . S
N1395 H1399 0.985 . S
H1396 N1391 0.984 . S
H1397 N1391 0.985 . S
H1398 N1395 0.984 . S
H1399 N1395 0.985 . S
H1400 N1394 0.984 1_655 S
H1401 N1394 0.984 . S
H1402 N1390 0.984 . S
H1403 N1390 0.985 . S
C1404 C1405 1.363 . S
C1404 C1410 1.379 . S
C1404 N1412 1.356 . S
C1405 C1404 1.363 . S
C1405 C1411 1.363 . S
C1406 C1407 1.363 . S
C1406 C1411 1.379 . S
C1406 N1413 1.356 . S
C1407 C1406 1.363 . S
C1407 C1410 1.363 . S
N1408 C1410 1.356 . S
N1408 H1420 0.984 . S
N1408 H1421 0.985 . S
N1409 C1411 1.356 . S
N1409 H1414 0.984 . S
N1409 H1415 0.985 . S
C1410 C1404 1.379 . S
C1410 C1407 1.363 . S
C1410 N1408 1.356 . S
C1411 C1405 1.363 . S
C1411 C1406 1.379 . S
C1411 N1409 1.356 . S
N1412 C1404 1.356 . S
N1412 H1418 0.984 . S
N1412 H1419 0.984 . S
N1413 C1406 1.356 . S
N1413 H1416 0.984 . S
N1413 H1417 0.985 . S
H1414 N1409 0.984 . S
H1415 N1409 0.985 . S
H1416 N1413 0.984 . S
H1417 N1413 0.985 . S
H1418 N1412 0.984 . S
H1419 N1412 0.984 . S
H1420 N1408 0.984 . S
H1421 N1408 0.985 . S
C1422 C1423 1.363 . S
C1422 C1428 1.379 1_545 S
C1422 N1430 1.356 . S
C1423 C1422 1.363 . S
C1423 C1429 1.363 1_545 S
C1424 C1425 1.363 . S
C1424 C1429 1.379 . S
C1424 N1431 1.356 . S
C1425 C1424 1.363 . S
C1425 C1428 1.363 . S
N1426 C1428 1.356 . S
N1426 H1438 0.984 . S
N1426 H1439 0.985 . S
N1427 C1429 1.356 1_545 S
N1427 H1432 0.984 . S
N1427 H1433 0.985 . S
C1428 C1422 1.379 1_565 S
C1428 C1425 1.363 . S
C1428 N1426 1.356 . S
C1429 C1423 1.363 1_565 S
C1429 C1424 1.379 . S
C1429 N1427 1.356 1_565 S
N1430 C1422 1.356 . S
N1430 H1436 0.984 . S
N1430 H1437 0.984 . S
N1431 C1424 1.356 . S
N1431 H1434 0.984 . S
N1431 H1435 0.985 . S
H1432 N1427 0.984 . S
H1433 N1427 0.985 . S
H1434 N1431 0.984 . S
H1435 N1431 0.985 . S
H1436 N1430 0.984 . S
H1437 N1430 0.984 . S
H1438 N1426 0.984 . S
H1439 N1426 0.985 . S
C1440 C1441 1.363 . S
C1440 C1446 1.379 . S
C1440 N1448 1.356 . S
C1441 C1440 1.363 . S
C1441 C1447 1.363 . S
C1442 C1443 1.363 . S
C1442 C1447 1.379 . S
C1442 N1449 1.356 . S
C1443 C1442 1.363 . S
C1443 C1446 1.363 . S
N1444 C1446 1.356 . S
N1444 H1456 0.984 . S
N1444 H1457 0.985 . S
N1445 C1447 1.356 . S
N1445 H1450 0.984 . S
N1445 H1451 0.985 . S
C1446 C1440 1.379 . S
C1446 C1443 1.363 . S
C1446 N1444 1.356 . S
C1447 C1441 1.363 . S
C1447 C1442 1.379 . S
C1447 N1445 1.356 . S
N1448 C1440 1.356 . S
N1448 H1454 0.984 . S
N1448 H1455 0.984 . S
N1449 C1442 1.356 . S
N1449 H1452 0.984 . S
N1449 H1453 0.985 . S
H1450 N1445 0.984 . S
H1451 N1445 0.985 . S
H1452 N1449 0.984 . S
H1453 N1449 0.985 . S
H1454 N1448 0.984 . S
H1455 N1448 0.984 . S
H1456 N1444 0.984 . S
H1457 N1444 0.985 . S
C1458 C1459 1.363 . S
C1458 C1464 1.379 . S
C1458 N1466 1.356 1_655 S
C1459 C1458 1.363 . S
C1459 C1465 1.363 . S
C1460 C1461 1.363 . S
C1460 C1465 1.379 . S
C1460 N1467 1.356 . S
C1461 C1460 1.363 . S
C1461 C1464 1.363 . S
N1462 C1464 1.356 . S
N1462 H1474 0.984 . S
N1462 H1475 0.985 . S
N1463 C1465 1.356 . S
N1463 H1468 0.984 . S
N1463 H1469 0.985 . S
C1464 C1458 1.379 . S
C1464 C1461 1.363 . S
C1464 N1462 1.356 . S
C1465 C1459 1.363 . S
C1465 C1460 1.379 . S
C1465 N1463 1.356 . S
N1466 C1458 1.356 1_455 S
N1466 H1472 0.984 . S
N1466 H1473 0.984 . S
N1467 C1460 1.356 . S
N1467 H1470 0.984 . S
N1467 H1471 0.985 . S
H1468 N1463 0.984 . S
H1469 N1463 0.985 . S
H1470 N1467 0.984 . S
H1471 N1467 0.985 . S
H1472 N1466 0.984 . S
H1473 N1466 0.984 . S
H1474 N1462 0.984 . S
H1475 N1462 0.985 . S
C1476 C1477 1.363 . S
C1476 C1482 1.379 . S
C1476 N1484 1.356 . S
C1477 C1476 1.363 . S
C1477 C1483 1.363 . S
C1478 C1479 1.363 . S
C1478 C1483 1.379 . S
C1478 N1485 1.356 . S
C1479 C1478 1.363 . S
C1479 C1482 1.363 . S
N1480 C1482 1.356 . S
N1480 H1492 0.984 . S
N1480 H1493 0.985 . S
N1481 C1483 1.356 . S
N1481 H1486 0.984 . S
N1481 H1487 0.985 . S
C1482 C1476 1.379 . S
C1482 C1479 1.363 . S
C1482 N1480 1.356 . S
C1483 C1477 1.363 . S
C1483 C1478 1.379 . S
C1483 N1481 1.356 . S
N1484 C1476 1.356 . S
N1484 H1490 0.984 . S
N1484 H1491 0.984 . S
N1485 C1478 1.356 . S
N1485 H1488 0.984 . S
N1485 H1489 0.985 . S
H1486 N1481 0.984 . S
H1487 N1481 0.985 . S
H1488 N1485 0.984 . S
H1489 N1485 0.985 . S
H1490 N1484 0.984 . S
H1491 N1484 0.984 . S
H1492 N1480 0.984 . S
H1493 N1480 0.985 . S
C1494 C1495 1.363 . S
C1494 C1500 1.379 . S
C1494 N1502 1.356 . S
C1495 C1494 1.363 . S
C1495 C1501 1.363 . S
C1496 C1497 1.363 . S
C1496 C1501 1.379 . S
C1496 N1503 1.356 . S
C1497 C1496 1.363 . S
C1497 C1500 1.363 . S
N1498 C1500 1.356 . S
N1498 H1510 0.984 . S
N1498 H1511 0.985 . S
N1499 C1501 1.356 . S
N1499 H1504 0.984 . S
N1499 H1505 0.985 . S
C1500 C1494 1.379 . S
C1500 C1497 1.363 . S
C1500 N1498 1.356 . S
C1501 C1495 1.363 . S
C1501 C1496 1.379 . S
C1501 N1499 1.356 . S
N1502 C1494 1.356 . S
N1502 H1508 0.984 . S
N1502 H1509 0.984 . S
N1503 C1496 1.356 . S
N1503 H1506 0.984 . S
N1503 H1507 0.985 . S
H1504 N1499 0.984 . S
H1505 N1499 0.985 . S
H1506 N1503 0.984 . S
H1507 N1503 0.985 . S
H1508 N1502 0.984 . S
H1509 N1502 0.984 . S
H1510 N1498 0.984 . S
H1511 N1498 0.985 . S
C1512 C1513 1.363 . S
C1512 C1518 1.379 . S
C1512 N1520 1.356 . S
C1513 C1512 1.363 . S
C1513 C1519 1.363 . S
C1514 C1515 1.363 . S
C1514 C1519 1.379 . S
C1514 N1521 1.356 . S
C1515 C1514 1.363 . S
C1515 C1518 1.363 . S
N1516 C1518 1.356 . S
N1516 H1528 0.984 . S
N1516 H1529 0.985 . S
N1517 C1519 1.356 . S
N1517 H1522 0.984 . S
N1517 H1523 0.985 . S
C1518 C1512 1.379 . S
C1518 C1515 1.363 . S
C1518 N1516 1.356 . S
C1519 C1513 1.363 . S
C1519 C1514 1.379 . S
C1519 N1517 1.356 . S
N1520 C1512 1.356 . S
N1520 H1526 0.984 . S
N1520 H1527 0.984 . S
N1521 C1514 1.356 . S
N1521 H1524 0.984 . S
N1521 H1525 0.985 . S
H1522 N1517 0.984 . S
H1523 N1517 0.985 . S
H1524 N1521 0.984 . S
H1525 N1521 0.985 . S
H1526 N1520 0.984 . S
H1527 N1520 0.984 . S
H1528 N1516 0.984 . S
H1529 N1516 0.985 . S
C1530 C1531 1.363 . S
C1530 C1536 1.379 . S
C1530 N1538 1.356 . S
C1531 C1530 1.363 . S
C1531 C1537 1.363 . S
C1532 C1533 1.363 . S
C1532 C1537 1.379 . S
C1532 N1539 1.356 . S
C1533 C1532 1.363 . S
C1533 C1536 1.363 . S
N1534 C1536 1.356 . S
N1534 H1546 0.984 . S
N1534 H1547 0.985 . S
N1535 C1537 1.356 . S
N1535 H1540 0.984 . S
N1535 H1541 0.985 . S
C1536 C1530 1.379 . S
C1536 C1533 1.363 . S
C1536 N1534 1.356 . S
C1537 C1531 1.363 . S
C1537 C1532 1.379 . S
C1537 N1535 1.356 . S
N1538 C1530 1.356 . S
N1538 H1544 0.984 1_655 S
N1538 H1545 0.984 . S
N1539 C1532 1.356 . S
N1539 H1542 0.984 . S
N1539 H1543 0.985 . S
H1540 N1535 0.984 . S
H1541 N1535 0.985 . S
H1542 N1539 0.984 . S
H1543 N1539 0.985 . S
H1544 N1538 0.984 1_455 S
H1545 N1538 0.984 . S
H1546 N1534 0.984 . S
H1547 N1534 0.985 . S
C1548 C1549 1.363 . S
C1548 C1554 1.379 1_455 S
C1548 N1556 1.356 . S
C1549 C1548 1.363 . S
C1549 C1555 1.363 . S
C1550 C1551 1.365 1_455 S
C1550 C1555 1.376 . S
C1550 N1557 1.358 1_455 S
C1551 C1550 1.365 1_655 S
C1551 C1554 1.363 . S
N1552 C1554 1.356 . S
N1552 H1564 0.984 . S
N1552 H1565 0.985 . S
N1553 C1555 1.356 . S
N1553 H1558 0.984 . S
N1553 H1559 0.985 . S
C1554 C1548 1.379 1_655 S
C1554 C1551 1.363 . S
C1554 N1552 1.356 . S
C1555 C1549 1.363 . S
C1555 C1550 1.376 . S
C1555 N1553 1.356 . S
N1556 C1548 1.356 . S
N1556 H1562 0.984 . S
N1556 H1563 0.984 . S
N1557 C1550 1.358 1_655 S
N1557 H1560 0.984 . S
N1557 H1561 0.985 . S
H1558 N1553 0.984 . S
H1559 N1553 0.985 . S
H1560 N1557 0.984 . S
H1561 N1557 0.985 . S
H1562 N1556 0.984 . S
H1563 N1556 0.984 . S
H1564 N1552 0.984 . S
H1565 N1552 0.985 . S
C1566 C1567 1.363 . S
C1566 C1572 1.379 . S
C1566 N1574 1.356 . S
C1567 C1566 1.363 . S
C1567 C1573 1.363 . S
C1568 C1569 1.363 . S
C1568 C1573 1.379 . S
C1568 N1575 1.356 . S
C1569 C1568 1.363 . S
C1569 C1572 1.363 . S
N1570 C1572 1.356 . S
N1570 H1582 0.984 . S
N1570 H1583 0.985 . S
N1571 C1573 1.356 . S
N1571 H1576 0.984 . S
N1571 H1577 0.985 . S
C1572 C1566 1.379 . S
C1572 C1569 1.363 . S
C1572 N1570 1.356 . S
C1573 C1567 1.363 . S
C1573 C1568 1.379 . S
C1573 N1571 1.356 . S
N1574 C1566 1.356 . S
N1574 H1580 0.984 . S
N1574 H1581 0.984 . S
N1575 C1568 1.356 . S
N1575 H1578 0.984 . S
N1575 H1579 0.985 . S
H1576 N1571 0.984 . S
H1577 N1571 0.985 . S
H1578 N1575 0.984 . S
H1579 N1575 0.985 . S
H1580 N1574 0.984 . S
H1581 N1574 0.984 . S
H1582 N1570 0.984 . S
H1583 N1570 0.985 . S
C1584 C1585 1.363 . S
C1584 C1590 1.379 . S
C1584 N1592 1.356 . S
C1585 C1584 1.363 . S
C1585 C1591 1.363 . S
C1586 C1587 1.363 . S
C1586 C1591 1.379 . S
C1586 N1593 1.356 . S
C1587 C1586 1.363 . S
C1587 C1590 1.363 . S
N1588 C1590 1.356 . S
N1588 H1600 0.984 . S
N1588 H1601 0.985 . S
N1589 C1591 1.356 . S
N1589 H1594 0.984 . S
N1589 H1595 0.985 . S
C1590 C1584 1.379 . S
C1590 C1587 1.363 . S
C1590 N1588 1.356 . S
C1591 C1585 1.363 . S
C1591 C1586 1.379 . S
C1591 N1589 1.356 . S
N1592 C1584 1.356 . S
N1592 H1598 0.984 . S
N1592 H1599 0.984 . S
N1593 C1586 1.356 . S
N1593 H1596 0.984 . S
N1593 H1597 0.985 . S
H1594 N1589 0.984 . S
H1595 N1589 0.985 . S
H1596 N1593 0.984 . S
H1597 N1593 0.985 . S
H1598 N1592 0.984 . S
H1599 N1592 0.984 . S
H1600 N1588 0.984 . S
H1601 N1588 0.985 . S
C1602 C1603 1.363 . S
C1602 C1608 1.379 . S
C1602 N1610 1.356 . S
C1603 C1602 1.363 . S
C1603 C1609 1.363 . S
C1604 C1605 1.363 . S
C1604 C1609 1.379 . S
C1604 N1611 1.356 . S
C1605 C1604 1.363 . S
C1605 C1608 1.363 . S
N1606 C1608 1.356 . S
N1606 H1618 0.984 . S
N1606 H1619 0.985 . S
N1607 C1609 1.356 . S
N1607 H1612 0.984 . S
N1607 H1613 0.985 . S
C1608 C1602 1.379 . S
C1608 C1605 1.363 . S
C1608 N1606 1.356 . S
C1609 C1603 1.363 . S
C1609 C1604 1.379 . S
C1609 N1607 1.356 . S
N1610 C1602 1.356 . S
N1610 H1616 0.984 . S
N1610 H1617 0.984 . S
N1611 C1604 1.356 . S
N1611 H1614 0.984 . S
N1611 H1615 0.985 . S
H1612 N1607 0.984 . S
H1613 N1607 0.985 . S
H1614 N1611 0.984 . S
H1615 N1611 0.985 . S
H1616 N1610 0.984 . S
H1617 N1610 0.984 . S
H1618 N1606 0.984 . S
H1619 N1606 0.985 . S
C1620 C1621 1.363 . S
C1620 C1626 1.379 . S
C1620 N1628 1.356 . S
C1621 C1620 1.363 . S
C1621 C1627 1.363 . S
C1622 C1623 1.363 . S
C1622 C1627 1.379 . S
C1622 N1629 1.356 . S
C1623 C1622 1.363 . S
C1623 C1626 1.363 . S
N1624 C1626 1.356 . S
N1624 H1636 0.984 . S
N1624 H1637 0.985 . S
N1625 C1627 1.356 . S
N1625 H1630 0.984 . S
N1625 H1631 0.985 . S
C1626 C1620 1.379 . S
C1626 C1623 1.363 . S
C1626 N1624 1.356 . S
C1627 C1621 1.363 . S
C1627 C1622 1.379 . S
C1627 N1625 1.356 . S
N1628 C1620 1.356 . S
N1628 H1634 0.984 . S
N1628 H1635 0.984 . S
N1629 C1622 1.356 . S
N1629 H1632 0.984 . S
N1629 H1633 0.985 . S
H1630 N1625 0.984 . S
H1631 N1625 0.985 . S
H1632 N1629 0.984 . S
H1633 N1629 0.985 . S
H1634 N1628 0.984 . S
H1635 N1628 0.984 . S
H1636 N1624 0.984 . S
H1637 N1624 0.985 . S
C1638 C1639 1.363 . S
C1638 C1644 1.390 . S
C1638 N1646 1.356 . S
C1639 C1638 1.363 . S
C1639 C1645 1.363 . S
C1640 C1641 1.363 . S
C1640 C1645 1.379 1_455 S
C1640 N1647 1.356 . S
C1641 C1640 1.363 . S
C1641 C1644 1.355 1_455 S
N1642 C1644 1.349 1_455 S
N1642 H1654 0.984 . S
N1642 H1655 0.985 . S
N1643 C1645 1.356 . S
N1643 H1648 0.984 . S
N1643 H1649 0.985 . S
C1644 C1638 1.390 . S
C1644 C1641 1.355 1_655 S
C1644 N1642 1.349 1_655 S
C1645 C1639 1.363 . S
C1645 C1640 1.379 1_655 S
C1645 N1643 1.356 . S
N1646 C1638 1.356 . S
N1646 H1652 0.984 . S
N1646 H1653 0.984 . S
N1647 C1640 1.356 . S
N1647 H1650 0.984 . S
N1647 H1651 0.985 . S
H1648 N1643 0.984 . S
H1649 N1643 0.985 . S
H1650 N1647 0.984 . S
H1651 N1647 0.985 . S
H1652 N1646 0.984 . S
H1653 N1646 0.984 . S
H1654 N1642 0.984 . S
H1655 N1642 0.985 . S
C1009 C67 1.615 . S
C1011 C987 1.699 . S
C1027 C819 1.659 . S
C1029 C147 1.681 . S
C1045 C231 1.613 . S
C1047 C735 1.605 . S
C1063 C315 1.643 . S
C1065 C903 1.637 . S
C1081 C399 1.756 . S
C1083 C907 1.662 . S
C1099 C487 1.700 . S
C1101 C991 1.707 . S
C1117 C823 1.638 . S
C1119 C567 1.721 . S
C1135 C651 1.691 . S
C1137 C739 1.605 . S
C1153 C319 1.700 . S
C1155 C403 1.699 . S
C1171 C63 1.652 . S
C1173 C483 1.665 . S
C1189 C151 1.695 . S
C1191 C571 1.708 . S
C1207 C655 1.704 . S
C1209 C235 1.697 . S
C1225 C70 1.751 . S
C1227 C746 1.858 . S
C1243 C142 1.457 . S
C1245 C914 1.689 . S
C1261 C998 1.742 . S
C1263 C226 1.495 . S
C1279 C310 1.520 . S
C1281 C830 1.776 . S
C1297 C394 1.511 . S
C1299 C812 1.782 . S
C1315 C728 1.958 . S
C1317 C490 1.801 . S
C1333 C896 1.866 . S
C1335 C562 1.575 . S
C1351 C980 1.832 . S
C1353 C646 1.549 . S
C1369 C74 1.864 . S
C1371 C322 1.751 . S
C1387 C58 1.586 . S
C1389 C140 1.875 . S
C1405 C154 1.822 . S
C1407 C224 1.983 . S
C1423 C308 1.957 . S
C1425 C238 1.801 . S
C1441 C478 1.515 . S
C1443 C392 1.780 . S
C1459 C494 1.760 . S
C1461 C574 1.670 . S
C1477 C560 1.860 . S
C1479 C658 1.718 . S
C1495 C406 1.739 . S
C1497 C644 1.885 . S
C1513 C742 1.700 . S
C1515 C326 1.804 . S
C1531 C476 1.823 . S
C1533 C814 1.540 . S
C1549 C730 1.509 . S
C1551 C578 1.761 . S
C1567 C898 1.462 . S
C1569 C662 1.700 . S
C1585 C410 1.695 . S
C1587 C982 1.453 . S
C1603 C994 1.635 . S
C1605 C158 1.735 . S
C1621 C242 1.742 . S
C1623 C826 1.647 . S
C1639 C910 1.726 . S
C1641 C56 1.873 . S
