# Generated by pormake.
# Topology etb, (3)-cn, num edge types: 1
# Building blocks:
#     Node 0, Type 0, BuildingBlock: WUSLED_clean_sbu_0, # of connection points: 3
#     Node 1, Type 0, BuildingBlock: WUSLED_clean_sbu_0, # of connection points: 3
#     Node 2, Type 0, BuildingBlock: WUSLED_clean_sbu_0, # of connection points: 3
#     Node 3, Type 0, BuildingBlock: WUSLED_clean_sbu_0, # of connection points: 3
#     Node 4, Type 0, BuildingBlock: WUSLED_clean_sbu_0, # of connection points: 3
#     Node 5, Type 0, BuildingBlock: WUSLED_clean_sbu_0, # of connection points: 3
#     Node 6, Type 0, BuildingBlock: WUSLED_clean_sbu_0, # of connection points: 3
#     Node 7, Type 0, BuildingBlock: WUSLED_clean_sbu_0, # of connection points: 3
#     Node 8, Type 0, BuildingBlock: WUSLED_clean_sbu_0, # of connection points: 3
#     Node 9, Type 0, BuildingBlock: WUSLED_clean_sbu_0, # of connection points: 3
#     Node 10, Type 0, BuildingBlock: WUSLED_clean_sbu_0, # of connection points: 3
#     Node 11, Type 0, BuildingBlock: WUSLED_clean_sbu_0, # of connection points: 3
#     Node 12, Type 0, BuildingBlock: WUSLED_clean_sbu_0, # of connection points: 3
#     Node 13, Type 0, BuildingBlock: WUSLED_clean_sbu_0, # of connection points: 3
#     Node 14, Type 0, BuildingBlock: WUSLED_clean_sbu_0, # of connection points: 3
#     Node 15, Type 0, BuildingBlock: WUSLED_clean_sbu_0, # of connection points: 3
#     Node 16, Type 0, BuildingBlock: WUSLED_clean_sbu_0, # of connection points: 3
#     Node 17, Type 0, BuildingBlock: WUSLED_clean_sbu_0, # of connection points: 3
#     Edge 18, Type (0, 0), BuildingBlock: MIFKUJ_clean_linker_0, # of connection points: 2
#     Edge 19, Type (0, 0), BuildingBlock: MIFKUJ_clean_linker_0, # of connection points: 2
#     Edge 20, Type (0, 0), BuildingBlock: MIFKUJ_clean_linker_0, # of connection points: 2
#     Edge 21, Type (0, 0), BuildingBlock: MIFKUJ_clean_linker_0, # of connection points: 2
#     Edge 22, Type (0, 0), BuildingBlock: MIFKUJ_clean_linker_0, # of connection points: 2
#     Edge 23, Type (0, 0), BuildingBlock: MIFKUJ_clean_linker_0, # of connection points: 2
#     Edge 24, Type (0, 0), BuildingBlock: MIFKUJ_clean_linker_0, # of connection points: 2
#     Edge 25, Type (0, 0), BuildingBlock: MIFKUJ_clean_linker_0, # of connection points: 2
#     Edge 26, Type (0, 0), BuildingBlock: MIFKUJ_clean_linker_0, # of connection points: 2
#     Edge 27, Type (0, 0), BuildingBlock: MIFKUJ_clean_linker_0, # of connection points: 2
#     Edge 28, Type (0, 0), BuildingBlock: MIFKUJ_clean_linker_0, # of connection points: 2
#     Edge 29, Type (0, 0), BuildingBlock: MIFKUJ_clean_linker_0, # of connection points: 2
#     Edge 30, Type (0, 0), BuildingBlock: MIFKUJ_clean_linker_0, # of connection points: 2
#     Edge 31, Type (0, 0), BuildingBlock: MIFKUJ_clean_linker_0, # of connection points: 2
#     Edge 32, Type (0, 0), BuildingBlock: MIFKUJ_clean_linker_0, # of connection points: 2
#     Edge 33, Type (0, 0), BuildingBlock: MIFKUJ_clean_linker_0, # of connection points: 2
#     Edge 34, Type (0, 0), BuildingBlock: MIFKUJ_clean_linker_0, # of connection points: 2
#     Edge 35, Type (0, 0), BuildingBlock: MIFKUJ_clean_linker_0, # of connection points: 2
#     Edge 36, Type (0, 0), BuildingBlock: MIFKUJ_clean_linker_0, # of connection points: 2
#     Edge 37, Type (0, 0), BuildingBlock: MIFKUJ_clean_linker_0, # of connection points: 2
#     Edge 38, Type (0, 0), BuildingBlock: MIFKUJ_clean_linker_0, # of connection points: 2
#     Edge 39, Type (0, 0), BuildingBlock: MIFKUJ_clean_linker_0, # of connection points: 2
#     Edge 40, Type (0, 0), BuildingBlock: MIFKUJ_clean_linker_0, # of connection points: 2
#     Edge 41, Type (0, 0), BuildingBlock: MIFKUJ_clean_linker_0, # of connection points: 2
#     Edge 42, Type (0, 0), BuildingBlock: MIFKUJ_clean_linker_0, # of connection points: 2
#     Edge 43, Type (0, 0), BuildingBlock: MIFKUJ_clean_linker_0, # of connection points: 2
#     Edge 44, Type (0, 0), BuildingBlock: MIFKUJ_clean_linker_0, # of connection points: 2
# Relax obj value: 0.000
# Max RMSD: 0.009
# Mean RMSD: 0.006
data_MOF--net-etb--node1-WUSLED_clean_sbu_0--edge1-MIFKUJ_clean_linker_0
_symmetry_space_group_name_H-M    P1
_symmetry_Int_Tables_number       1
_symmetry_cell_setting            triclinic
loop_
_symmetry_equiv_pos_as_xyz
'x, y, z'
_cell_length_a     141.74631
_cell_length_b     140.96619
_cell_length_c     66.631512
_cell_angle_alpha  89.638018
_cell_angle_beta   90.144285
_cell_angle_gamma 119.74387
loop_
_atom_site_label
_atom_site_type_symbol
_atom_site_fract_x
_atom_site_fract_y
_atom_site_fract_z
_atom_type_partial_charge
C0 C 0.46639 0.01756 0.08262 0.0
C1 C 0.45521 0.01173 0.07827 0.0
C2 C 0.45077 0.01118 0.11392 0.0
C3 C 0.44749 1.00859 0.09375 0.0
C4 C 0.46197 0.01728 0.11804 0.0
C5 C 0.46966 0.0204 0.10261 0.0
U6 U 0.47971 0.02702 0.02963 0.0
O7 O 0.49705 0.03736 0.02222 0.0
O8 O 0.48824 0.02039 1.01185 0.0
C9 C 0.49769 0.02941 0.01324 0.0
C10 C 0.47485 0.02018 0.06709 0.0
C11 C 0.50731 0.02815 0.0177 0.0
C12 C 0.52402 0.0331 0.0362 0.0
C13 C 0.51441 0.03357 0.03375 0.0
C14 C 0.51953 0.02161 1.00693 0.0
C15 C 0.52679 0.0272 0.02269 0.0
C16 C 0.50995 0.0221 1.00447 0.0
C17 C 0.46515 0.03503 0.98822 0.0
C18 C 0.46932 0.04947 0.96347 0.0
C19 C 0.45398 0.03142 0.95819 0.0
C20 C 0.45634 0.02784 0.9762 0.0
C21 C 0.46031 0.04233 0.9517 0.0
C22 C 0.47169 0.04588 0.98152 0.0
C23 C 0.46652 0.03135 1.00851 0.0
O24 O 0.47216 0.01358 0.05164 0.0
O25 O 0.48094 0.03053 0.06211 0.0
O26 O 0.47428 0.03854 0.02007 0.0
O27 O 0.46544 0.02155 1.00987 0.0
H28 H 0.45245 0.0094 0.06298 0.0
H29 H 0.43895 1.00385 0.08997 0.0
H30 H 0.46484 0.01963 0.13326 0.0
H31 H 0.47822 0.0249 0.10638 0.0
H32 H 0.52931 0.0374 0.04868 0.0
H33 H 0.51264 0.03833 0.04422 0.0
H34 H 0.52139 0.01711 0.99603 0.0
H35 H 0.50472 0.01795 0.99183 0.0
H36 H 0.47433 0.05795 0.95911 0.0
H37 H 0.4471 0.02562 0.94943 0.0
H38 H 0.45108 0.01947 0.981 0.0
H39 H 0.47846 0.0517 0.99047 0.0
C40 C 0.06809 0.41562 0.97131 0.0
C41 C 0.06269 0.4044 0.97597 0.0
C42 C 0.06155 0.39982 0.94031 0.0
C43 C 0.05948 0.39658 0.96064 0.0
C44 C 0.0672 0.41108 0.93585 0.0
C45 C 0.0704 0.41885 0.95114 0.0
U46 U 0.07854 0.42924 0.02359 0.0
O47 O 0.08884 0.44673 0.03031 0.0
O48 O 0.07227 0.43776 0.0424 0.0
C49 C 0.08113 0.44731 0.04022 0.0
C50 C 0.07084 0.42414 0.98679 0.0
C51 C 0.07964 0.45689 0.03619 0.0
C52 C 0.08388 0.47355 0.0176 0.0
C53 C 0.08447 0.46392 0.01965 0.0
C54 C 0.07341 0.46916 0.04825 0.0
C55 C 0.07849 0.47641 0.03208 0.0
C56 C 0.074 0.45957 0.05028 0.0
C57 C 0.0882 0.41504 0.0629 0.0
C58 C 0.08818 0.41425 0.09954 0.0
C59 C 0.09944 0.40907 0.0806 0.0
C60 C 0.09579 0.4114 0.06269 0.0
C61 C 0.09556 0.41028 0.0993 0.0
C62 C 0.08451 0.41658 0.08152 0.0
C63 C 0.08374 0.41626 0.04346 0.0
O64 O 0.06465 0.42135 1.00287 0.0
O65 O 0.0812 0.43047 0.9908 0.0
O66 O 0.09049 0.42409 0.03137 0.0
O67 O 0.07395 0.4151 0.04357 0.0
H68 H 0.06079 0.40165 0.99141 0.0
H69 H 0.05509 0.38801 0.96469 0.0
H70 H 0.06915 0.41393 0.92048 0.0
H71 H 0.07456 0.42744 0.94713 0.0
H72 H 0.08796 0.47893 1.00502 0.0
H73 H 0.08893 0.46214 1.00854 0.0
H74 H 0.069 0.47093 0.0595 0.0
H75 H 0.07023 0.45434 0.0632 0.0
H76 H 0.08498 0.41524 0.11361 0.0
H77 H 0.10527 0.40624 0.07977 0.0
H78 H 0.09876 0.41013 0.04856 0.0
H79 H 0.07863 0.41935 0.08217 0.0
C80 C 0.67972 0.63961 0.07963 0.0
C81 C 0.69023 0.64856 0.07707 0.0
C82 C 0.68951 0.65537 0.11048 0.0
C83 C 0.69507 0.65639 0.09234 0.0
C84 C 0.67894 0.64641 0.11275 0.0
C85 C 0.67414 0.63866 0.09754 0.0
U86 U 0.67665 0.62616 0.02707 0.0
O87 O 0.67032 0.60867 0.02057 0.0
O88 O 0.66166 0.61691 1.00945 0.0
C89 C 0.6616 0.60759 1.01151 0.0
C90 C 0.67434 0.63104 0.06423 0.0
C91 C 0.65106 0.59771 0.01665 0.0
C92 C 0.6317 0.5888 0.02471 0.0
C93 C 0.64179 0.59834 0.02202 0.0
C94 C 0.63997 0.57781 0.01716 0.0
C95 C 0.63061 0.57838 0.0221 0.0
C96 C 0.65003 0.58733 0.01442 0.0
C97 C 0.69879 0.64096 0.98539 0.0
C98 C 0.70895 0.63667 0.96095 0.0
C99 C 0.70622 0.65207 0.95511 0.0
C100 C 0.70035 0.64976 0.97309 0.0
C101 C 0.71078 0.64568 0.94891 0.0
C102 C 0.70307 0.63435 0.97898 0.0
C103 C 0.69378 0.63965 1.00561 0.0
O104 O 0.67035 0.63353 0.04852 0.0
O105 O 0.67911 0.62538 0.05959 0.0
O106 O 0.69359 0.63214 0.01769 0.0
O107 O 0.68488 0.64035 1.00663 0.0
H108 H 0.6947 0.64946 0.06336 0.0
H109 H 0.70324 0.66312 0.09007 0.0
H110 H 0.6743 0.64543 0.12625 0.0
H111 H 0.666 0.63184 0.09981 0.0
H112 H 0.62473 0.58959 0.02876 0.0
H113 H 0.64226 0.60619 0.02382 0.0
H114 H 0.63948 0.56998 0.01474 0.0
H115 H 0.65698 0.58657 1.01004 0.0
H116 H 0.71241 0.63161 0.95684 0.0
H117 H 0.70727 0.65897 0.94614 0.0
H118 H 0.69726 0.65507 0.97766 0.0
H119 H 0.70213 0.62757 0.98813 0.0
C120 C 0.69052 0.03848 0.97099 0.0
C121 C 0.70161 0.04533 0.97527 0.0
C122 C 0.70642 0.04477 0.94019 0.0
C123 C 0.70946 0.04845 0.96004 0.0
C124 C 0.69532 0.03775 0.93611 0.0
C125 C 0.6875 0.03468 0.95129 0.0
U126 U 0.67667 0.02808 0.02317 0.0
O127 O 0.66802 0.03429 0.04171 0.0
O128 O 0.65928 0.01759 0.03001 0.0
C129 C 0.65857 0.02533 0.03966 0.0
C130 C 0.68187 0.03573 0.98623 0.0
C131 C 0.649 0.02671 0.03535 0.0
C132 C 0.63232 0.02196 0.0169 0.0
C133 C 0.64191 0.02142 0.01923 0.0
C134 C 0.63685 0.03326 0.04645 0.0
C135 C 0.62959 0.02779 0.03062 0.0
C136 C 0.64639 0.0327 0.04879 0.0
C137 C 0.69105 0.01868 0.06257 0.0
C138 C 0.69056 0.01772 0.09918 0.0
C139 C 0.69839 1.00865 0.08049 0.0
C140 C 0.69603 0.01221 0.0625 0.0
C141 C 0.69585 0.01148 0.09913 0.0
C142 C 0.68821 0.02132 0.08108 0.0
C143 C 0.6897 0.02307 0.04314 0.0
O144 O 0.67557 0.02531 0.99044 0.0
O145 O 0.68445 0.042 1.00216 0.0
O146 O 0.69068 0.03285 0.04319 0.0
O147 O 0.68193 0.0162 0.03124 0.0
H148 H 0.70422 0.0484 0.99031 0.0
H149 H 0.71792 0.05375 0.96384 0.0
H150 H 0.69262 0.03486 0.92102 0.0
H151 H 0.67901 0.02947 0.94752 0.0
H152 H 0.62703 0.01777 1.00437 0.0
H153 H 0.64364 0.01671 1.00859 0.0
H154 H 0.63499 0.03771 0.05749 0.0
H155 H 0.65162 0.03674 0.06149 0.0
H156 H 0.68852 0.0201 0.11322 0.0
H157 H 0.70226 1.00369 0.07978 0.0
H158 H 0.69829 0.01006 0.04844 0.0
H159 H 0.68439 0.02632 0.08157 0.0
C160 C 0.06565 0.62965 0.97543 0.0
C161 C 0.07281 0.64037 0.9688 0.0
C162 C 0.05939 0.63936 0.9444 0.0
C163 C 0.06971 0.64516 0.95346 0.0
C164 C 0.05218 0.62873 0.95145 0.0
C165 C 0.05529 0.62395 0.96671 0.0
U166 U 0.07763 0.62637 0.02615 0.0
O167 O 0.07201 0.61156 0.04492 0.0
O168 O 0.08827 0.61934 0.03143 0.0
C169 C 0.08087 0.61098 0.04177 0.0
C170 C 0.06899 0.62388 0.99013 0.0
C171 C 0.07941 0.59997 0.03746 0.0
C172 C 0.08389 0.58784 0.01881 0.0
C173 C 0.08445 0.59802 0.02106 0.0
C174 C 0.07306 0.5813 0.04901 0.0
C175 C 0.07834 0.57939 0.03296 0.0
C176 C 0.07361 0.59144 0.05123 0.0
C177 C 0.08766 0.64994 0.0657 0.0
C178 C 0.0885 0.6504 0.10232 0.0
C179 C 0.09881 0.66709 0.08325 0.0
C180 C 0.09489 0.66124 0.06538 0.0
C181 C 0.09561 0.6618 0.10204 0.0
C182 C 0.08457 0.64453 0.08436 0.0
C183 C 0.08291 0.64434 0.04641 0.0
O184 O 0.07946 0.62799 0.9933 0.0
O185 O 0.06317 0.62024 1.00663 0.0
O186 O 0.07322 0.6356 0.04702 0.0
O187 O 0.08951 0.64348 0.03367 0.0
H188 H 0.08086 0.645 0.97521 0.0
H189 H 0.07543 0.6534 0.94865 0.0
H190 H 0.04423 0.62394 0.94473 0.0
H191 H 0.04964 0.61565 0.97137 0.0
H192 H 0.08813 0.58674 1.00634 0.0
H193 H 0.08904 0.60443 1.01021 0.0
H194 H 0.06854 0.57496 0.06001 0.0
H195 H 0.06969 0.5927 0.06407 0.0
H196 H 0.08595 0.64599 0.11644 0.0
H197 H 0.10411 0.67585 0.08229 0.0
H198 H 0.09731 0.66563 0.05123 0.0
H199 H 0.07899 0.63581 0.08509 0.0
C200 C 0.46637 0.42631 0.08073 0.0
C201 C 0.45537 0.42257 0.07633 0.0
C202 C 0.45027 0.41682 0.11127 0.0
C203 C 0.44742 0.4179 0.09143 0.0
C204 C 0.46127 0.4204 0.11546 0.0
C205 C 0.46919 0.42509 0.10041 0.0
U206 U 0.48058 0.42985 0.02893 0.0
O207 O 0.48991 0.44483 1.01087 0.0
O208 O 0.49801 0.43619 0.02286 0.0
C209 C 0.49916 0.44489 0.0133 0.0
C210 C 0.47516 0.43213 0.06567 0.0
C211 C 0.50899 0.4555 0.01817 0.0
C212 C 0.51792 0.47499 0.02582 0.0
C213 C 0.5084 0.46487 0.0233 0.0
C214 C 0.52879 0.46657 0.01852 0.0
C215 C 0.52827 0.47602 0.02327 0.0
C216 C 0.5193 0.45648 0.01597 0.0
C217 C 0.46624 0.40656 0.98904 0.0
C218 C 0.46567 0.40596 0.9524 0.0
C219 C 0.46 0.38934 0.97146 0.0
C220 C 0.46235 0.39526 0.98933 0.0
C221 C 0.46146 0.39455 0.95272 0.0
C222 C 0.46801 0.4119 0.97037 0.0
C223 C 0.46746 0.4122 1.00844 0.0
O224 O 0.48127 0.42778 0.06168 0.0
O225 O 0.47287 0.43611 0.04965 0.0
O226 O 0.46678 0.42117 1.00824 0.0
O227 O 0.47491 0.41269 0.02085 0.0
H228 H 0.45291 0.42338 0.06131 0.0
H229 H 0.43903 0.41512 0.08755 0.0
H230 H 0.46384 0.41988 0.13054 0.0
H231 H 0.47762 0.42799 0.10428 0.0
H232 H 0.51717 0.48203 0.02972 0.0
H233 H 0.5006 0.46443 0.02507 0.0
H234 H 0.53655 0.46701 0.01611 0.0
H235 H 0.52002 0.44946 1.01177 0.0
H236 H 0.46685 0.41026 0.93829 0.0
H237 H 0.45698 0.38063 0.97237 0.0
H238 H 0.46089 0.39093 1.0035 0.0
H239 H 0.47096 0.42061 0.96965 0.0
C240 C 0.1425 0.37155 0.3074 0.0
C241 C 0.13348 0.36366 0.29661 0.0
C242 C 0.13311 0.37787 0.27591 0.0
C243 C 0.12884 0.36679 0.28111 0.0
C244 C 0.14198 0.38576 0.287 0.0
C245 C 0.14664 0.38263 0.30245 0.0
U246 U 0.14604 0.36071 0.35929 0.0
O247 O 0.15231 0.34948 0.36595 0.0
O248 O 0.1609 0.36626 0.37732 0.0
C249 C 0.16096 0.35701 0.37528 0.0
C250 C 0.14831 0.36835 0.32233 0.0
C251 C 0.17151 0.35761 0.37053 0.0
C252 C 0.19099 0.36795 0.36333 0.0
C253 C 0.18092 0.36751 0.3656 0.0
C254 C 0.18243 0.34859 0.37044 0.0
C255 C 0.19193 0.35852 0.36604 0.0
C256 C 0.1724 0.34816 0.3727 0.0
C257 C 0.12277 0.35281 0.39894 0.0
C258 C 0.12119 0.34585 0.43311 0.0
C259 C 0.10705 0.34886 0.41949 0.0
C260 C 0.11277 0.35243 0.40141 0.0
C261 C 0.11117 0.34558 0.4357 0.0
C262 C 0.12696 0.34946 0.41489 0.0
C263 C 0.12848 0.35678 0.37951 0.0
O264 O 0.15242 0.37465 0.33812 0.0
O265 O 0.144 0.3579 0.32669 0.0
O266 O 0.12899 0.34955 0.3679 0.0
O267 O 0.1375 0.36628 0.37951 0.0
H268 H 0.1301 0.35504 0.29983 0.0
H269 H 0.12194 0.36048 0.2731 0.0
H270 H 0.1456 0.39435 0.28331 0.0
H271 H 0.15368 0.38891 0.31021 0.0
H272 H 0.1981 0.37576 0.3601 0.0
H273 H 0.18057 0.37498 0.36393 0.0
H274 H 0.18274 0.34111 0.37227 0.0
H275 H 0.16532 0.34043 0.37659 0.0
H276 H 0.12467 0.34346 0.44526 0.0
H277 H 0.09929 0.34857 0.42066 0.0
H278 H 0.10936 0.35491 0.38927 0.0
H279 H 0.13467 0.34969 0.4133 0.0
C280 C 0.73486 0.74963 0.30385 0.0
C281 C 0.73557 0.74015 0.30705 0.0
C282 C 0.72886 0.73384 0.27301 0.0
C283 C 0.73257 0.73231 0.29178 0.0
C284 C 0.72811 0.74335 0.27009 0.0
C285 C 0.73108 0.75113 0.2853 0.0
U286 U 0.74593 0.76315 0.35603 0.0
O287 O 0.75704 0.78062 0.36226 0.0
O288 O 0.74048 0.77249 0.37438 0.0
C289 C 0.7496 0.78177 0.37193 0.0
C290 C 0.73807 0.75821 0.31928 0.0
C291 C 0.74883 0.79171 0.36715 0.0
C292 C 0.73832 0.80076 0.35958 0.0
C293 C 0.73893 0.79116 0.36206 0.0
C294 C 0.75751 0.81162 0.36679 0.0
C295 C 0.74759 0.81114 0.3621 0.0
C296 C 0.7581 0.80205 0.36932 0.0
C297 C 0.75477 0.74847 0.39585 0.0
C298 C 0.75474 0.74777 0.4325 0.0
C299 C 0.76589 0.7424 0.41371 0.0
C300 C 0.76228 0.74473 0.39574 0.0
C301 C 0.76205 0.74371 0.43238 0.0
C302 C 0.75111 0.75009 0.41444 0.0
C303 C 0.75036 0.74973 0.37636 0.0
O304 O 0.73193 0.75564 0.33539 0.0
O305 O 0.74849 0.76401 0.3233 0.0
O306 O 0.75727 0.75723 0.36394 0.0
O307 O 0.74078 0.7491 0.3765 0.0
H308 H 0.73848 0.73884 0.32126 0.0
H309 H 0.73333 0.72514 0.29456 0.0
H310 H 0.72511 0.74476 0.25607 0.0
H311 H 0.73042 0.75836 0.28252 0.0
H312 H 0.73057 0.80004 0.35572 0.0
H313 H 0.73161 0.78334 0.36031 0.0
H314 H 0.7648 0.8194 0.36915 0.0
H315 H 0.76581 0.80273 0.37347 0.0
H316 H 0.75154 0.74882 0.44653 0.0
H317 H 0.77167 0.7395 0.41295 0.0
H318 H 0.76522 0.74338 0.38165 0.0
H319 H 0.74528 0.75294 0.41503 0.0
C320 C 0.34692 0.97241 0.41517 0.0
C321 C 0.35229 0.98364 0.41059 0.0
C322 C 0.35603 0.98817 0.44623 0.0
C323 C 0.35682 0.99144 0.42596 0.0
C324 C 0.35088 0.97691 0.45059 0.0
C325 C 0.34639 0.96916 0.43527 0.0
U326 U 0.34308 0.9588 0.36251 0.0
O327 O 0.33654 0.9413 0.35593 0.0
O328 O 0.32796 0.9497 0.34515 0.0
C329 C 0.32782 0.94033 0.347 0.0
C330 C 0.3412 0.96387 0.39975 0.0
C331 C 0.31726 0.93045 0.35202 0.0
C332 C 0.2979 0.92153 0.36001 0.0
C333 C 0.308 0.93107 0.35749 0.0
C334 C 0.30613 0.91055 0.35207 0.0
C335 C 0.29678 0.91112 0.35711 0.0
C336 C 0.3162 0.92007 0.34952 0.0
C337 C 0.36523 0.97307 0.32069 0.0
C338 C 0.37583 0.96886 0.29717 0.0
C339 C 0.37218 0.98352 0.28956 0.0
C340 C 0.36634 0.98141 0.30755 0.0
C341 C 0.37717 0.9774 0.28424 0.0
C342 C 0.36996 0.96673 0.31515 0.0
C343 C 0.36028 0.972 0.3409 0.0
O344 O 0.33719 0.96644 0.38415 0.0
O345 O 0.34556 0.95784 0.39504 0.0
O346 O 0.35995 0.96449 0.35315 0.0
O347 O 0.35148 0.97289 0.34188 0.0
H348 H 0.35282 0.98639 0.39521 0.0
H349 H 0.36065 1.00002 0.42201 0.0
H350 H 0.35028 0.97405 0.4659 0.0
H351 H 0.3423 0.96056 0.43921 0.0
H352 H 0.29094 0.92232 0.36416 0.0
H353 H 0.3085 0.93893 0.3595 0.0
H354 H 0.30562 0.90274 0.34941 0.0
H355 H 0.32315 0.91932 0.34504 0.0
H356 H 0.37942 0.96387 0.29349 0.0
H357 H 0.37313 0.99024 0.28019 0.0
H358 H 0.36296 0.98656 0.3115 0.0
H359 H 0.36936 0.96028 0.3249 0.0
C360 C 0.35794 0.37401 0.30844 0.0
C361 C 0.36147 0.3669 0.30137 0.0
C362 C 0.37377 0.38073 0.27738 0.0
C363 C 0.36929 0.37022 0.28605 0.0
C364 C 0.37042 0.3879 0.2849 0.0
C365 C 0.3626 0.38457 0.30015 0.0
U366 U 0.34316 0.36198 0.35941 0.0
O367 O 0.33337 0.36699 0.37744 0.0
O368 O 0.32574 0.35049 0.36484 0.0
C369 C 0.32429 0.35774 0.37462 0.0
C370 C 0.34886 0.37042 0.32307 0.0
C371 C 0.3143 0.35829 0.36978 0.0
C372 C 0.30488 0.36855 0.36309 0.0
C373 C 0.31457 0.3682 0.36533 0.0
C374 C 0.29448 0.34909 0.36923 0.0
C375 C 0.29468 0.35902 0.36535 0.0
C376 C 0.30414 0.34875 0.37146 0.0
C377 C 0.35768 0.35307 0.39944 0.0
C378 C 0.35691 0.35179 0.43604 0.0
C379 C 0.3651 0.34309 0.4173 0.0
C380 C 0.3628 0.34673 0.39934 0.0
C381 C 0.36235 0.3457 0.43595 0.0
C382 C 0.35463 0.35548 0.41796 0.0
C383 C 0.35646 0.35763 0.38009 0.0
O384 O 0.34293 0.35988 0.32667 0.0
O385 O 0.35079 0.37638 0.33928 0.0
O386 O 0.35681 0.36713 0.38052 0.0
O387 O 0.34922 0.35073 0.36742 0.0
H388 H 0.35802 0.35868 0.30733 0.0
H389 H 0.37157 0.36442 0.2806 0.0
H390 H 0.3738 0.39611 0.27894 0.0
H391 H 0.36002 0.39022 0.30523 0.0
H392 H 0.30539 0.37637 0.36025 0.0
H393 H 0.32226 0.37573 0.36405 0.0
H394 H 0.28683 0.34154 0.37072 0.0
H395 H 0.30365 0.341 0.37498 0.0
H396 H 0.3547 0.354 0.45009 0.0
H397 H 0.36909 0.33825 0.41656 0.0
H398 H 0.36525 0.34477 0.38528 0.0
H399 H 0.35069 0.36037 0.4185 0.0
C400 C 0.73415 0.96406 0.30711 0.0
C401 C 0.74175 0.97405 0.29821 0.0
C402 C 0.72778 0.97362 0.27595 0.0
C403 C 0.7386 0.97876 0.28284 0.0
C404 C 0.72016 0.96376 0.28521 0.0
C405 C 0.72331 0.95904 0.3005 0.0
U406 U 0.74497 0.96013 0.35868 0.0
O407 O 0.73948 0.94498 0.37619 0.0
O408 O 0.75618 0.95382 0.36478 0.0
C409 C 0.7487 0.94498 0.37391 0.0
C410 C 0.73748 0.95823 0.32179 0.0
C411 C 0.74811 0.93444 0.36867 0.0
C412 C 0.73783 0.91502 0.36046 0.0
C413 C 0.7383 0.92512 0.36322 0.0
C414 C 0.75698 0.92337 0.36809 0.0
C415 C 0.74714 0.91396 0.36306 0.0
C416 C 0.75744 0.93344 0.37089 0.0
C417 C 0.75226 0.98259 0.39983 0.0
C418 C 0.76497 0.98893 0.42797 0.0
C419 C 0.7511 0.99413 0.42568 0.0
C420 C 0.74724 0.98813 0.40795 0.0
C421 C 0.76012 0.99477 0.43582 0.0
C422 C 0.7611 0.98293 0.41011 0.0
C423 C 0.74854 0.97731 0.37996 0.0
O424 O 0.74787 0.96272 0.32612 0.0
O425 O 0.73117 0.95384 0.33753 0.0
O426 O 0.73909 0.96827 0.37935 0.0
O427 O 0.75583 0.97712 0.36807 0.0
H428 H 0.75019 0.97815 0.30281 0.0
H429 H 0.74468 0.98643 0.27628 0.0
H430 H 0.71179 0.95947 0.28018 0.0
H431 H 0.7173 0.95127 0.30683 0.0
H432 H 0.73014 0.90802 0.35634 0.0
H433 H 0.73094 0.92557 0.36142 0.0
H434 H 0.76429 0.9229 0.37052 0.0
H435 H 0.76508 0.94043 0.37533 0.0
H436 H 0.77195 0.98927 0.43528 0.0
H437 H 0.74701 0.99831 0.43141 0.0
H438 H 0.74043 0.98801 0.40031 0.0
H439 H 0.76516 0.97876 0.40416 0.0
C440 C 0.14295 0.74974 0.30504 0.0
C441 C 0.13663 0.73856 0.30976 0.0
C442 C 0.13396 0.73394 0.27403 0.0
C443 C 0.13215 0.73074 0.2944 0.0
C444 C 0.1401 0.74518 0.26951 0.0
C445 C 0.14453 0.75294 0.2848 0.0
U446 U 0.14605 0.76335 0.35746 0.0
O447 O 0.16091 0.77243 0.37555 0.0
O448 O 0.15255 0.78086 0.36382 0.0
C449 C 0.16112 0.78181 0.37332 0.0
C450 C 0.1485 0.75824 0.32058 0.0
C451 C 0.17175 0.79166 0.36857 0.0
C452 C 0.19114 0.80049 0.36078 0.0
C453 C 0.181 0.79097 0.3632 0.0
C454 C 0.18298 0.81154 0.36863 0.0
C455 C 0.1923 0.81092 0.36364 0.0
C456 C 0.17287 0.80205 0.37109 0.0
C457 C 0.12297 0.74928 0.39768 0.0
C458 C 0.1222 0.7476 0.43425 0.0
C459 C 0.10638 0.74501 0.41583 0.0
C460 C 0.11215 0.74703 0.3978 0.0
C461 C 0.11127 0.74516 0.43434 0.0
C462 C 0.12798 0.74964 0.41614 0.0
C463 C 0.12838 0.75027 0.37805 0.0
O464 O 0.14417 0.76436 0.32474 0.0
O465 O 0.15214 0.75556 0.33657 0.0
O466 O 0.13717 0.74934 0.37796 0.0
O467 O 0.129 0.75784 0.36561 0.0
H468 H 0.13528 0.73586 0.32527 0.0
H469 H 0.12752 0.72218 0.29848 0.0
H470 H 0.1415 0.748 0.25408 0.0
H471 H 0.14935 0.7615 0.28077 0.0
H472 H 0.19808 0.79966 0.35668 0.0
H473 H 0.18045 0.7831 0.36118 0.0
H474 H 0.18352 0.81937 0.37127 0.0
H475 H 0.16594 0.80285 0.37547 0.0
H476 H 0.12629 0.74792 0.44818 0.0
H477 H 0.09796 0.743 0.41517 0.0
H478 H 0.10803 0.74656 0.38381 0.0
H479 H 0.13631 0.75132 0.41661 0.0
C480 C 0.79878 0.68466 0.74545 0.0
C481 C 0.78799 0.67636 0.74219 0.0
C482 C 0.78292 0.67837 0.77637 0.0
C483 C 0.78016 0.67325 0.75746 0.0
C484 C 0.79368 0.6868 0.77939 0.0
C485 C 0.80149 0.68988 0.76418 0.0
U486 U 0.81312 0.69448 0.69326 0.0
O487 O 0.83058 0.70535 0.68707 0.0
O488 O 0.82243 0.68843 0.67647 0.0
C489 C 0.8317 0.69761 0.67839 0.0
C490 C 0.80757 0.68743 0.73047 0.0
C491 C 0.84155 0.69689 0.68369 0.0
C492 C 0.85059 0.68631 0.69083 0.0
C493 C 0.84104 0.68687 0.68823 0.0
C494 C 0.86136 0.70575 0.68484 0.0
C495 C 0.86091 0.69572 0.68894 0.0
C496 C 0.85182 0.70631 0.68221 0.0
C497 C 0.79916 0.70252 0.65065 0.0
C498 C 0.80282 0.71738 0.62721 0.0
C499 C 0.78931 0.69887 0.6189 0.0
C500 C 0.79139 0.69517 0.63708 0.0
C501 C 0.79487 0.71005 0.61381 0.0
C502 C 0.80492 0.71368 0.64539 0.0
C503 C 0.80014 0.69861 0.67101 0.0
O504 O 0.80535 0.6809 0.71501 0.0
O505 O 0.81366 0.69781 0.7257 0.0
O506 O 0.80749 0.70576 0.68325 0.0
O507 O 0.79931 0.68891 0.67228 0.0
H508 H 0.78562 0.67213 0.72797 0.0
H509 H 0.77194 0.66682 0.75445 0.0
H510 H 0.7962 0.69084 0.79377 0.0
H511 H 0.80976 0.69619 0.76724 0.0
H512 H 0.84988 0.67846 0.69423 0.0
H513 H 0.83327 0.67942 0.68939 0.0
H514 H 0.8691 0.71316 0.68296 0.0
H515 H 0.85251 0.71411 0.67843 0.0
H516 H 0.80738 0.72603 0.62374 0.0
H517 H 0.78303 0.69298 0.60918 0.0
H518 H 0.78665 0.68656 0.6408 0.0
H519 H 0.8109 0.71962 0.6555 0.0
C520 C 0.40011 0.08064 0.64291 0.0
C521 C 0.40776 0.07855 0.63348 0.0
C522 C 0.39364 0.06469 0.61211 0.0
C523 C 0.40457 0.07068 0.61829 0.0
C524 C 0.38597 0.06665 0.62188 0.0
C525 C 0.38917 0.07453 0.63699 0.0
U526 U 0.41146 0.09585 0.69376 0.0
O527 O 0.42248 0.11347 0.6988 0.0
O528 O 0.40596 0.10546 0.71115 0.0
C529 C 0.41506 0.11473 0.70828 0.0
C530 C 0.40342 0.0898 0.65735 0.0
C531 C 0.41424 0.12459 0.70304 0.0
C532 C 0.40363 0.13359 0.69596 0.0
C533 C 0.40425 0.12401 0.69861 0.0
C534 C 0.42297 0.14449 0.70169 0.0
C535 C 0.41297 0.14398 0.69768 0.0
C536 C 0.42358 0.13494 0.70437 0.0
C537 C 0.42054 0.08221 0.73531 0.0
C538 C 0.41903 0.07976 0.77173 0.0
C539 C 0.43334 0.0787 0.75402 0.0
C540 C 0.42964 0.08073 0.73586 0.0
C541 C 0.42801 0.07803 0.77222 0.0
C542 C 0.41533 0.08181 0.75352 0.0
C543 C 0.41607 0.08298 0.71549 0.0
O544 O 0.39734 0.08783 0.67343 0.0
O545 O 0.41386 0.09597 0.66108 0.0
O546 O 0.42291 0.09023 0.70264 0.0
O547 O 0.40644 0.08223 0.71521 0.0
H548 H 0.41628 0.08313 0.63752 0.0
H549 H 0.41068 0.06932 0.61133 0.0
H550 H 0.37752 0.06234 0.6174 0.0
H551 H 0.3831 0.07606 0.64371 0.0
H552 H 0.3958 0.13283 0.69264 0.0
H553 H 0.39687 0.11618 0.69755 0.0
H554 H 0.43031 0.1523 0.70344 0.0
H555 H 0.43136 0.13566 0.70804 0.0
H556 H 0.41479 0.07945 0.78543 0.0
H557 H 0.44017 0.07726 0.75366 0.0
H558 H 0.43372 0.08082 0.72207 0.0
H559 H 0.40827 0.08287 0.75369 0.0
C560 C 0.01366 0.30698 0.74421 0.0
C561 C 0.0233 0.3089 0.75383 0.0
C562 C 0.02304 0.32285 0.77514 0.0
C563 C 0.02793 0.31673 0.76908 0.0
C564 C 0.0135 0.32103 0.76525 0.0
C565 C 1.00886 0.31319 0.75008 0.0
U566 U 1.00987 0.29248 0.69261 0.0
O567 O 1.00343 0.27496 0.68645 0.0
O568 O 0.99485 0.28323 0.67506 0.0
C569 C 0.99471 0.27388 0.67734 0.0
C570 C 1.00792 0.29793 0.72954 0.0
C571 C 0.98412 0.26404 0.68254 0.0
C572 C 0.96445 0.255 0.68746 0.0
C573 C 0.97452 0.26457 0.68491 0.0
C574 C 0.97334 0.24417 0.68576 0.0
C575 C 0.96369 0.24464 0.6877 0.0
C576 C 0.98339 0.25372 0.68315 0.0
C577 C 0.03225 0.30759 0.65132 0.0
C578 C 0.03787 0.30107 0.62235 0.0
C579 C 0.04391 0.32033 0.62554 0.0
C580 C 0.03815 0.31824 0.64356 0.0
C581 C 0.04393 0.3118 0.61466 0.0
C582 C 0.03209 0.29898 0.64049 0.0
C583 C 0.02703 0.306 0.67128 0.0
O584 O 1.00358 0.29999 0.71381 0.0
O585 O 1.01238 0.29195 0.72517 0.0
O586 O 0.02675 0.29834 0.68303 0.0
O587 O 0.01809 0.30663 0.67206 0.0
H588 H 0.0272 0.30423 0.74985 0.0
H589 H 0.03534 0.31797 0.77616 0.0
H590 H 1.00938 0.32543 0.76965 0.0
H591 H 1.00134 0.3118 0.74324 0.0
H592 H 0.95724 0.25573 0.68915 0.0
H593 H 0.97473 0.27235 0.68439 0.0
H594 H 0.9731 0.23638 0.68556 0.0
H595 H 0.99058 0.253 0.68105 0.0
H596 H 0.03757 0.29427 0.61434 0.0
H597 H 0.04861 0.32872 0.62043 0.0
H598 H 0.0385 0.32503 0.65172 0.0
H599 H 0.02761 0.29067 0.64614 0.0
C600 C 0.0245 0.70641 0.63948 0.0
C601 C 0.02787 0.69923 0.63208 0.0
C602 C 0.0403 0.71315 0.60836 0.0
C603 C 0.03568 0.70257 0.61673 0.0
C604 C 0.0371 0.72038 0.61621 0.0
C605 C 0.0293 0.71704 0.63149 0.0
U606 U 1.00973 0.69438 0.69049 0.0
O607 O 1.00007 0.69949 0.70867 0.0
O608 O 0.99228 0.68301 0.69596 0.0
C609 C 0.99093 0.6903 0.70579 0.0
C610 C 0.01543 0.70283 0.65415 0.0
C611 C 0.98105 0.69105 0.70087 0.0
C612 C 0.97199 0.70161 0.69371 0.0
C613 C 0.98155 0.70104 0.6962 0.0
C614 C 0.96124 0.68219 0.70006 0.0
C615 C 0.96168 0.6922 0.69581 0.0
C616 C 0.97078 0.68164 0.70259 0.0
C617 C 0.02438 0.68551 0.73035 0.0
C618 C 0.02224 0.683 0.76667 0.0
C619 C 0.03306 0.67691 0.74871 0.0
C620 C 0.0308 0.6805 0.73065 0.0
C621 C 0.02895 0.67824 0.76705 0.0
C622 C 0.02 0.68664 0.7485 0.0
C623 C 0.02305 0.68999 0.71102 0.0
O624 O 1.00947 0.69228 0.65774 0.0
O625 O 0.01738 0.70878 0.67037 0.0
O626 O 0.02342 0.6995 0.71147 0.0
O627 O 0.01571 0.68307 0.69853 0.0
H628 H 0.02431 0.69095 0.6378 0.0
H629 H 0.03783 0.69672 0.61102 0.0
H630 H 0.04059 0.72865 0.61049 0.0
H631 H 0.02684 0.72274 0.63682 0.0
H632 H 0.97269 0.70944 0.69019 0.0
H633 H 0.98932 0.70847 0.6948 0.0
H634 H 0.95351 0.67479 0.70209 0.0
H635 H 0.97012 0.67385 0.70643 0.0
H636 H 0.01896 0.68419 0.78048 0.0
H637 H 0.03808 0.6731 0.74829 0.0
H638 H 0.03426 0.67953 0.71686 0.0
H639 H 0.01503 0.6905 0.74867 0.0
C640 C 0.40025 0.29784 0.64386 0.0
C641 C 0.40782 0.30793 0.63525 0.0
C642 C 0.39391 0.30752 0.61285 0.0
C643 C 0.40469 0.3127 0.61996 0.0
C644 C 0.3863 0.29757 0.62186 0.0
C645 C 0.38944 0.29279 0.63707 0.0
U646 U 0.41137 0.2936 0.6949 0.0
O647 O 0.40585 0.27835 0.71211 0.0
O648 O 0.42246 0.28704 0.70017 0.0
C649 C 0.41499 0.27824 0.70941 0.0
C650 C 0.40357 0.29193 0.65832 0.0
C651 C 0.41424 0.26764 0.70399 0.0
C652 C 0.40368 0.24813 0.69663 0.0
C653 C 0.40427 0.25828 0.69941 0.0
C654 C 0.42301 0.25649 0.70248 0.0
C655 C 0.41303 0.24705 0.69836 0.0
C656 C 0.42359 0.26662 0.7053 0.0
C657 C 0.41956 0.31568 0.73705 0.0
C658 C 0.43448 0.32667 0.76002 0.0
C659 C 0.41619 0.32226 0.76858 0.0
C660 C 0.41238 0.31643 0.75064 0.0
C661 C 0.42732 0.32761 0.77343 0.0
C662 C 0.43066 0.3208 0.74206 0.0
C663 C 0.4155 0.31072 0.71693 0.0
O664 O 0.41399 0.29626 0.6623 0.0
O665 O 0.39739 0.28759 0.67422 0.0
O666 O 0.40593 0.30181 0.71625 0.0
O667 O 0.42252 0.31053 0.7043 0.0
H668 H 0.41623 0.31206 0.64001 0.0
H669 H 0.41075 0.32043 0.61361 0.0
H670 H 0.37797 0.29324 0.61666 0.0
H671 H 0.38344 0.28494 0.64318 0.0
H672 H 0.39587 0.24109 0.69322 0.0
H673 H 0.39688 0.25874 0.69835 0.0
H674 H 0.43036 0.25602 0.70422 0.0
H675 H 0.43135 0.27363 0.70908 0.0
H676 H 0.44308 0.33054 0.76331 0.0
H677 H 0.41042 0.32291 0.77831 0.0
H678 H 0.40382 0.31277 0.7471 0.0
H679 H 0.43647 0.32051 0.73192 0.0
C680 C 0.79843 0.09345 0.74246 0.0
C681 C 0.7947 0.08272 0.74942 0.0
C682 C 0.78261 0.0844 0.77356 0.0
C683 C 0.78688 0.07825 0.76476 0.0
C684 C 0.78617 0.09502 0.76611 0.0
C685 C 0.79398 0.09948 0.75084 0.0
U686 U 0.8135 0.09615 0.69189 0.0
O687 O 0.82319 0.11092 0.67352 0.0
O688 O 0.831 0.10233 0.68699 0.0
C689 C 0.83237 0.11097 0.67689 0.0
C690 C 0.80753 0.09891 0.72784 0.0
C691 C 0.84214 0.12162 0.68193 0.0
C692 C 0.85114 0.14137 0.68695 0.0
C693 C 0.84162 0.13126 0.68436 0.0
C694 C 0.86188 0.13241 0.68514 0.0
C695 C 0.86143 0.14211 0.68716 0.0
C696 C 0.85238 0.12233 0.6825 0.0
C697 C 0.79952 0.07272 0.65227 0.0
C698 C 0.80125 0.07246 0.61586 0.0
C699 C 0.79222 0.05544 0.63444 0.0
C700 C 0.79413 0.06126 0.65235 0.0
C701 C 0.79566 0.06092 0.61587 0.0
C702 C 0.80316 0.07829 0.63387 0.0
C703 C 0.8005 0.07842 0.67146 0.0
O704 O 0.81356 0.09436 0.72473 0.0
O705 O 0.80559 0.10281 0.71134 0.0
O706 O 0.79999 0.08748 0.67065 0.0
O707 O 0.80773 0.07889 0.68439 0.0
H708 H 0.79799 0.07786 0.74336 0.0
H709 H 0.78444 0.07009 0.77015 0.0
H710 H 0.78295 0.09995 0.77217 0.0
H711 H 0.79671 0.10777 0.74582 0.0
H712 H 0.85043 0.14862 0.68871 0.0
H713 H 0.83388 0.13106 0.68391 0.0
H714 H 0.86962 0.13262 0.68492 0.0
H715 H 0.85308 0.11509 0.68038 0.0
H716 H 0.80415 0.07699 0.60193 0.0
H717 H 0.78774 0.0466 0.63516 0.0
H718 H 0.79115 0.05677 0.66631 0.0
H719 H 0.80735 0.08714 0.63336 0.0
H720 H 0.60942 0.01092 0.02015 0.0
H721 H 0.5922 0.01092 0.01863 0.0
H722 H 0.60853 0.0448 0.03597 0.0
H723 H 0.6258 0.04487 0.03747 0.0
H724 H 0.59024 0.03386 0.0566 0.0
H725 H 0.59975 0.03654 0.987 0.0
H726 H 0.60508 0.03122 0.95566 0.0
H727 H 0.57583 1.00004 0.95746 0.0
H728 H 0.5704 1.00512 0.98897 0.0
H729 H 0.54693 0.04415 0.0331 0.0
H730 H 0.56419 0.04422 0.03471 0.0
H731 H 0.54794 0.01028 0.01775 0.0
H732 H 0.53063 0.01014 0.0162 0.0
H733 H 0.56621 0.02131 0.9969 0.0
H734 H 0.55672 0.01864 0.06655 0.0
H735 H 0.5514 0.024 0.09786 0.0
H736 H 0.58063 0.0552 0.09591 0.0
H737 H 0.58605 0.05008 0.06443 0.0
C738 C 0.60941 0.01843 0.02336 0.0
C739 C 0.61908 0.02791 0.02889 0.0
C740 C 0.59951 0.01841 0.02252 0.0
C741 C 0.599 0.02789 0.02701 0.0
C742 C 0.60864 0.03736 0.0325 0.0
C743 C 0.61854 0.03738 0.03338 0.0
C744 C 0.58842 0.02788 0.02637 0.0
C745 C 0.58507 0.03126 0.04342 0.0
C746 C 0.58148 0.02425 1.0094 0.0
C747 C 0.58472 0.02117 0.99045 0.0
C748 C 0.5945 0.02852 0.9808 0.0
C749 C 0.59753 0.02555 0.96299 0.0
C750 C 0.59081 0.01529 0.9546 0.0
C751 C 0.58104 1.00798 0.96399 0.0
C752 C 0.57797 0.0109 0.98181 0.0
C753 C 0.54697 0.03664 0.03 0.0
C754 C 0.53731 0.02713 0.02455 0.0
C755 C 0.55689 0.0367 0.03088 0.0
C756 C 0.55743 0.02723 0.02651 0.0
C757 C 0.5478 0.01772 0.02113 0.0
C758 C 0.53788 0.01766 0.02021 0.0
C759 C 0.56802 0.02728 0.02713 0.0
C760 C 0.57138 0.02391 1.01008 0.0
C761 C 0.57497 0.03093 0.04409 0.0
C762 C 0.57173 0.03402 0.06302 0.0
C763 C 0.56197 0.02668 0.07271 0.0
C764 C 0.55894 0.02966 0.0905 0.0
C765 C 0.56566 0.03994 0.09884 0.0
C766 C 0.57543 0.04725 0.08942 0.0
C767 C 0.57848 0.0443 0.07161 0.0
H768 H 0.56331 0.04224 0.11262 0.0
H769 H 0.59317 0.01301 0.94081 0.0
H770 H 0.08066 0.49026 0.06276 0.0
H771 H 0.08029 0.50735 0.06103 0.0
H772 H 0.07607 0.50403 0.99687 0.0
H773 H 0.07639 0.48681 0.99849 0.0
H774 H 0.0904 0.52482 1.00639 0.0
H775 H 0.05464 0.49864 0.0281 0.0
H776 H 0.04087 0.48378 0.04912 0.0
H777 H 0.0528 0.50422 0.10114 0.0
H778 H 0.06675 0.51916 0.08046 0.0
H779 H 0.07654 0.56736 0.99914 0.0
H780 H 0.0764 0.54995 0.99718 0.0
H781 H 0.08001 0.54989 0.06145 0.0
H782 H 0.08017 0.56724 0.06351 0.0
H783 H 0.0651 0.5303 0.04965 0.0
H784 H 0.1014 0.55621 0.02798 0.0
H785 H 0.11519 0.57099 1.00684 0.0
H786 H 0.1021 0.55102 0.9545 0.0
H787 H 0.08814 0.53616 0.97531 0.0
C788 C 0.07952 0.49305 0.04826 0.0
C789 C 0.07843 0.48701 0.03079 0.0
C790 C 0.07934 0.50289 0.04729 0.0
C791 C 0.07797 0.50696 0.02886 0.0
C792 C 0.07711 0.50109 1.0113 0.0
C793 C 0.07731 0.49123 0.01225 0.0
C794 C 0.07746 0.51732 0.02804 0.0
C795 C 0.08475 0.52595 0.01562 0.0
C796 C 0.07021 0.51894 0.04029 0.0
C797 C 0.0618 0.50999 0.05275 0.0
C798 C 0.05438 0.49994 0.04405 0.0
C799 C 0.04653 0.49151 0.0559 0.0
C800 C 0.04598 0.49305 0.07646 0.0
C801 C 0.05325 0.50304 0.08521 0.0
C802 C 0.06112 0.5115 0.07343 0.0
C803 C 0.0774 0.5637 0.01285 0.0
C804 C 0.07832 0.56875 0.0315 0.0
C805 C 0.07732 0.55371 1.01171 0.0
C806 C 0.07828 0.54856 0.02915 0.0
C807 C 0.0792 0.5536 0.04775 0.0
C808 C 0.07925 0.56355 0.04891 0.0
C809 C 0.07817 0.53789 0.02826 0.0
C810 C 0.07073 0.52917 0.04035 0.0
C811 C 0.08526 0.5362 0.01568 0.0
C812 C 0.09365 0.54512 1.00317 0.0
C813 C 0.10141 0.555 1.01194 0.0
C814 C 0.10927 0.56339 1.00002 0.0
C815 C 0.1095 0.56196 0.97934 0.0
C816 C 0.1019 0.55213 0.97053 0.0
C817 C 0.09402 0.54372 0.98237 0.0
H818 H 0.11559 0.56846 0.97014 0.0
H819 H 0.0399 0.48651 0.08561 0.0
H820 H 0.53185 0.49614 1.01029 0.0
H821 H 0.54871 0.5137 1.01159 0.0
H822 H 0.56484 0.4982 0.04046 0.0
H823 H 0.54792 0.48068 0.03985 0.0
H824 H 0.57101 0.51748 0.05741 0.0
H825 H 0.56814 0.50474 0.98979 0.0
H826 H 0.55932 0.49798 0.95698 0.0
H827 H 0.55778 0.52736 0.94792 0.0
H828 H 0.56647 0.53424 0.98082 0.0
H829 H 0.62585 0.55856 0.03878 0.0
H830 H 0.60832 0.54169 0.04005 0.0
H831 H 0.59311 0.55809 1.01108 0.0
H832 H 0.61069 0.57492 1.00918 0.0
H833 H 0.58622 0.53863 0.99453 0.0
H834 H 0.58964 0.55164 0.06181 0.0
H835 H 0.59854 0.55838 0.09456 0.0
H836 H 0.59912 0.52854 0.10427 0.0
H837 H 0.59036 0.52167 0.07144 0.0
C838 C 0.53892 0.49646 0.01719 0.0
C839 C 0.53846 0.4869 0.02487 0.0
C840 C 0.54863 0.50653 0.01773 0.0
C841 C 0.55816 0.50731 0.02584 0.0
C842 C 0.55766 0.49785 0.03401 0.0
C843 C 0.54796 0.48779 0.03348 0.0
C844 C 0.56868 0.51792 0.02555 0.0
C845 C 0.57439 0.52203 0.04361 0.0
C846 C 0.57305 0.52405 1.00766 0.0
C847 C 0.56785 0.51995 0.98785 0.0
C848 C 0.56585 0.50972 0.98087 0.0
C849 C 0.56088 0.50587 0.96225 0.0
C850 C 0.55796 0.51222 0.9504 0.0
C851 C 0.56003 0.52245 0.95713 0.0
C852 C 0.56498 0.52633 0.97575 0.0
C853 C 0.6188 0.5586 0.0326 0.0
C854 C 0.61976 0.56817 0.02388 0.0
C855 C 0.60872 0.54894 0.03352 0.0
C856 C 0.5993 0.54858 0.02585 0.0
C857 C 0.60022 0.55812 0.01717 0.0
C858 C 0.61029 0.56779 0.01627 0.0
C859 C 0.58856 0.5382 0.02639 0.0
C860 C 0.58283 0.53411 1.00835 0.0
C861 C 0.58418 0.53209 0.0443 0.0
C862 C 0.58944 0.53619 0.06407 0.0
C863 C 0.59175 0.54655 0.07086 0.0
C864 C 0.59675 0.55039 0.08945 0.0
C865 C 0.59942 0.5439 0.10147 0.0
C866 C 0.59707 0.53356 0.09494 0.0
C867 C 0.59207 0.52968 0.07634 0.0
H868 H 0.60329 0.54689 0.11586 0.0
H869 H 0.55412 0.50923 0.93598 0.0
H870 H 0.28927 0.37108 0.33977 0.0
H871 H 0.27223 0.37153 0.33838 0.0
H872 H 0.25951 0.34837 0.3873 0.0
H873 H 0.27647 0.34789 0.3888 0.0
H874 H 0.24454 0.34274 0.35931 0.0
H875 H 0.26867 0.3763 0.39323 0.0
H876 H 0.28524 0.39422 0.39718 0.0
H877 H 0.27727 0.40599 0.34382 0.0
H878 H 0.26072 0.38808 0.3394 0.0
H879 H 0.19958 0.34782 0.3898 0.0
H880 H 0.21701 0.34834 0.38788 0.0
H881 H 0.22651 0.37101 0.33824 0.0
H882 H 0.20898 0.37049 0.34 0.0
H883 H 0.24316 0.37714 0.36392 0.0
H884 H 0.21864 0.34395 0.33077 0.0
H885 H 0.20206 0.32607 0.32671 0.0
H886 H 0.21077 0.31362 0.37822 0.0
H887 H 0.22734 0.33148 0.38276 0.0
C888 C 0.28289 0.36615 0.35036 0.0
C889 C 0.2843 0.35942 0.36436 0.0
C890 C 0.27311 0.36641 0.34954 0.0
C891 C 0.26454 0.36004 0.36284 0.0
C892 C 0.26594 0.35332 0.37679 0.0
C893 C 0.27567 0.35303 0.37757 0.0
C894 C 0.25405 0.36023 0.36222 0.0
C895 C 0.24426 0.35027 0.36056 0.0
C896 C 0.2536 0.37005 0.36321 0.0
C897 C 0.26353 0.38082 0.36587 0.0
C898 C 0.2705 0.38268 0.38226 0.0
C899 C 0.27987 0.39284 0.38459 0.0
C900 C 0.28232 0.40123 0.37073 0.0
C901 C 0.27537 0.39948 0.35452 0.0
C902 C 0.26599 0.38933 0.35211 0.0
C903 C 0.20529 0.35283 0.37828 0.0
C904 C 0.20275 0.35902 0.36491 0.0
C905 C 0.21531 0.35314 0.37724 0.0
C906 C 0.22308 0.35959 0.36271 0.0
C907 C 0.22068 0.36595 0.34958 0.0
C908 C 0.21064 0.36566 0.35063 0.0
C909 C 0.23366 0.35964 0.36135 0.0
C910 C 0.24345 0.36963 0.36259 0.0
C911 C 0.23413 0.34985 0.35994 0.0
C912 C 0.22419 0.33908 0.35721 0.0
C913 C 0.21698 0.33742 0.34132 0.0
C914 C 0.20759 0.32729 0.33892 0.0
C915 C 0.20535 0.31872 0.35222 0.0
C916 C 0.21251 0.32026 0.36793 0.0
C917 C 0.22191 0.33039 0.37042 0.0
H918 H 0.19807 0.31088 0.35033 0.0
H919 H 0.28958 0.40909 0.37256 0.0
H920 H 0.73083 0.8938 0.37565 0.0
H921 H 0.73029 0.87622 0.37399 0.0
H922 H 0.76173 0.89178 0.34542 0.0
H923 H 0.76218 0.90934 0.34644 0.0
H924 H 0.74869 0.87256 0.32801 0.0
H925 H 0.75866 0.88494 0.39576 0.0
H926 H 0.75669 0.89161 0.42874 0.0
H927 H 0.72605 0.86233 0.43759 0.0
H928 H 0.72777 0.85555 0.40452 0.0
H929 H 0.76242 0.83093 0.34543 0.0
H930 H 0.76175 0.84792 0.34451 0.0
H931 H 0.7305 0.83172 0.37378 0.0
H932 H 0.73128 0.81478 0.37536 0.0
H933 H 0.74299 0.85104 0.39048 0.0
H934 H 0.73329 0.83841 0.323 0.0
H935 H 0.73535 0.83178 0.29005 0.0
H936 H 0.76554 0.86149 0.28066 0.0
H937 H 0.76374 0.86824 0.3137 0.0
C938 C 0.73758 0.89349 0.36875 0.0
C939 C 0.74658 0.90308 0.36126 0.0
C940 C 0.73731 0.88341 0.368 0.0
C941 C 0.74604 0.88263 0.35985 0.0
C942 C 0.7549 0.89212 0.35189 0.0
C943 C 0.75519 0.90221 0.35264 0.0
C944 C 0.74603 0.87199 0.3599 0.0
C945 C 0.74758 0.86793 0.34172 0.0
C946 C 0.74433 0.86575 0.37767 0.0
C947 C 0.74329 0.8698 0.39758 0.0
C948 C 0.75146 0.87997 0.40467 0.0
C949 C 0.75039 0.88376 0.42339 0.0
C950 C 0.74123 0.87741 0.43523 0.0
C951 C 0.73313 0.86725 0.42839 0.0
C952 C 0.73415 0.86342 0.40967 0.0
C953 C 0.75541 0.83096 0.35176 0.0
C954 C 0.74691 0.82141 0.36048 0.0
C955 C 0.75498 0.84069 0.35103 0.0
C956 C 0.74601 0.84114 0.35888 0.0
C957 C 0.7375 0.83162 0.36754 0.0
C958 C 0.73791 0.82188 0.36826 0.0
C959 C 0.74566 0.8516 0.35859 0.0
C960 C 0.74407 0.85564 0.37674 0.0
C961 C 0.74732 0.85782 0.3408 0.0
C962 C 0.74843 0.85379 0.32091 0.0
C963 C 0.74041 0.8435 0.31398 0.0
C964 C 0.74153 0.83972 0.29527 0.0
C965 C 0.75058 0.8462 0.28329 0.0
C966 C 0.75853 0.85648 0.28997 0.0
C967 C 0.75747 0.86028 0.30868 0.0
H968 H 0.75143 0.84326 0.26881 0.0
H969 H 0.74042 0.88036 0.44972 0.0
H970 H 0.27687 0.9078 0.34442 0.0
H971 H 0.25931 0.89097 0.34578 0.0
H972 H 0.27438 0.87432 0.37435 0.0
H973 H 0.29197 0.89115 0.37312 0.0
H974 H 0.26104 0.86185 0.34571 0.0
H975 H 0.25811 0.88202 0.40068 0.0
H976 H 0.25867 0.89786 0.41737 0.0
H977 H 0.23359 0.8957 0.37819 0.0
H978 H 0.23298 0.87994 0.36107 0.0
H979 H 0.21219 0.81417 0.37635 0.0
H980 H 0.22978 0.83098 0.37501 0.0
H981 H 0.2148 0.8477 0.34639 0.0
H982 H 0.19718 0.8309 0.34759 0.0
H983 H 0.22811 0.86013 0.37511 0.0
H984 H 0.23105 0.83997 0.32013 0.0
H985 H 0.23051 0.82415 0.3034 0.0
H986 H 0.25557 0.82628 0.34261 0.0
H987 H 0.25616 0.84203 0.35976 0.0
C988 C 0.27646 0.90062 0.35128 0.0
C989 C 0.28591 0.90091 0.3587 0.0
C990 C 0.26637 0.89095 0.352 0.0
C991 C 0.26543 0.88132 0.36033 0.0
C992 C 0.27484 0.88159 0.36779 0.0
C993 C 0.28494 0.89125 0.36703 0.0
C994 C 0.2547 0.87094 0.36092 0.0
C995 C 0.25388 0.86145 0.35241 0.0
C996 C 0.24524 0.8704 0.36919 0.0
C997 C 0.24558 0.87987 0.37946 0.0
C998 C 0.25278 0.88498 0.39551 0.0
C999 C 0.25309 0.89393 0.40507 0.0
C1000 C 0.24619 0.8978 0.39881 0.0
C1001 C 0.23894 0.89271 0.38301 0.0
C1002 C 0.2386 0.88376 0.37338 0.0
C1003 C 0.21264 0.82137 0.36949 0.0
C1004 C 0.20319 0.8211 0.36206 0.0
C1005 C 0.22274 0.83102 0.36877 0.0
C1006 C 0.22371 0.84066 0.36045 0.0
C1007 C 0.21431 0.84042 0.35297 0.0
C1008 C 0.20421 0.83078 0.3537 0.0
C1009 C 0.23444 0.85104 0.3599 0.0
C1010 C 0.23527 0.86052 0.36842 0.0
C1011 C 0.24391 0.85158 0.35164 0.0
C1012 C 0.24357 0.84211 0.34136 0.0
C1013 C 0.23638 0.83701 0.32529 0.0
C1014 C 0.23608 0.82807 0.31571 0.0
C1015 C 0.24298 0.8242 0.32198 0.0
C1016 C 0.25022 0.82928 0.3378 0.0
C1017 C 0.25055 0.83822 0.34744 0.0
H1018 H 0.24273 0.81727 0.31454 0.0
H1019 H 0.24644 0.90473 0.40623 0.0
H1020 H 0.95781 0.70832 0.70968 0.0
H1021 H 0.9409 0.70897 0.70825 0.0
H1022 H 0.92523 0.67803 0.67766 0.0
H1023 H 0.94221 0.67749 0.67844 0.0
H1024 H 0.91932 0.69156 0.66108 0.0
H1025 H 0.92111 0.68009 0.72823 0.0
H1026 H 0.92944 0.68131 0.76134 0.0
H1027 H 0.93093 0.71204 0.77193 0.0
H1028 H 0.92274 0.71108 0.73874 0.0
H1029 H 0.8648 0.67964 0.67492 0.0
H1030 H 0.8817 0.67898 0.67635 0.0
H1031 H 0.89734 0.70984 0.7072 0.0
H1032 H 0.88036 0.71038 0.70646 0.0
H1033 H 0.90328 0.69636 0.72363 0.0
H1034 H 0.90149 0.70783 0.65649 0.0
H1035 H 0.89318 0.70662 0.62337 0.0
H1036 H 0.8917 0.6759 0.61274 0.0
H1037 H 0.89987 0.67685 0.64594 0.0
C1038 C 0.95082 0.70171 0.7024 0.0
C1039 C 0.95144 0.69283 0.69425 0.0
C1040 C 0.94109 0.70203 0.70179 0.0
C1041 C 0.93167 0.69347 0.69312 0.0
C1042 C 0.93233 0.68472 0.68454 0.0
C1043 C 0.94205 0.68439 0.68515 0.0
C1044 C 0.92115 0.69357 0.69311 0.0
C1045 C 0.91575 0.69246 0.67481 0.0
C1046 C 0.91654 0.69498 0.71092 0.0
C1047 C 0.92141 0.69556 0.73092 0.0
C1048 C 0.92328 0.68715 0.73756 0.0
C1049 C 0.92797 0.68779 0.75635 0.0
C1050 C 0.93074 0.69676 0.76871 0.0
C1051 C 0.92879 0.7051 0.76233 0.0
C1052 C 0.92412 0.70451 0.74353 0.0
C1053 C 0.87177 0.68623 0.68227 0.0
C1054 C 0.87115 0.69509 0.6905 0.0
C1055 C 0.88151 0.6859 0.68287 0.0
C1056 C 0.89092 0.69445 0.6916 0.0
C1057 C 0.89025 0.70317 0.70026 0.0
C1058 C 0.88053 0.7035 0.69967 0.0
C1059 C 0.90144 0.69434 0.6916 0.0
C1060 C 0.90684 0.69545 0.7099 0.0
C1061 C 0.90606 0.69293 0.67379 0.0
C1062 C 0.90119 0.69236 0.65379 0.0
C1063 C 0.89932 0.70078 0.64715 0.0
C1064 C 0.89465 0.70015 0.62835 0.0
C1065 C 0.89189 0.69118 0.61598 0.0
C1066 C 0.89383 0.68284 0.62235 0.0
C1067 C 0.89849 0.68342 0.64116 0.0
H1068 H 0.88827 0.69071 0.60143 0.0
H1069 H 0.93436 0.69725 0.78325 0.0
H1070 H 0.42757 0.24212 0.68048 0.0
H1071 H 0.42693 0.22449 0.67932 0.0
H1072 H 0.39629 0.20943 0.71072 0.0
H1073 H 0.39704 0.22712 0.71253 0.0
H1074 H 0.40918 0.20266 0.72634 0.0
H1075 H 0.39808 0.20555 0.65969 0.0
H1076 H 0.39948 0.21422 0.62675 0.0
H1077 H 0.42948 0.21468 0.61509 0.0
H1078 H 0.42834 0.20614 0.64809 0.0
H1079 H 0.39692 0.14782 0.71182 0.0
H1080 H 0.39626 0.16481 0.71046 0.0
H1081 H 0.42694 0.18063 0.67921 0.0
H1082 H 0.42748 0.16356 0.67987 0.0
H1083 H 0.41358 0.18679 0.66321 0.0
H1084 H 0.425 0.18445 0.73004 0.0
H1085 H 0.42376 0.17587 0.76303 0.0
H1086 H 0.39332 0.17454 0.77437 0.0
H1087 H 0.3943 0.18298 0.74131 0.0
C1088 C 0.4207 0.23508 0.68722 0.0
C1089 C 0.41235 0.23612 0.6966 0.0
C1090 C 0.42029 0.22494 0.68636 0.0
C1091 C 0.4115 0.21553 0.69475 0.0
C1092 C 0.40315 0.21653 0.70406 0.0
C1093 C 0.40354 0.22666 0.70492 0.0
C1094 C 0.41117 0.20474 0.6943 0.0
C1095 C 0.40997 0.19913 0.71247 0.0
C1096 C 0.41247 0.20018 0.67632 0.0
C1097 C 0.41317 0.2053 0.65645 0.0
C1098 C 0.40502 0.20758 0.65017 0.0
C1099 C 0.40576 0.21246 0.63147 0.0
C1100 C 0.41457 0.21503 0.61885 0.0
C1101 C 0.42266 0.2127 0.62489 0.0
C1102 C 0.42197 0.20783 0.64358 0.0
C1103 C 0.40347 0.15485 0.70438 0.0
C1104 C 0.41229 0.15426 0.69605 0.0
C1105 C 0.40313 0.16463 0.70382 0.0
C1106 C 0.41163 0.17412 0.69502 0.0
C1107 C 0.4203 0.17348 0.6862 0.0
C1108 C 0.42064 0.1637 0.68675 0.0
C1109 C 0.41159 0.18473 0.69525 0.0
C1110 C 0.41275 0.19032 0.67706 0.0
C1111 C 0.41027 0.18929 0.71322 0.0
C1112 C 0.40967 0.18424 0.73311 0.0
C1113 C 0.418 0.18225 0.7395 0.0
C1114 C 0.41735 0.17743 0.75822 0.0
C1115 C 0.40845 0.17464 0.77076 0.0
C1116 C 0.4002 0.17669 0.76463 0.0
C1117 C 0.4008 0.1815 0.74591 0.0
H1118 H 0.40797 0.17091 0.78525 0.0
H1119 H 0.41513 0.2188 0.60438 0.0
H1120 H 0.95848 0.2258 0.70877 0.0
H1121 H 0.9411 0.20875 0.70986 0.0
H1122 H 0.92693 0.22298 0.67123 0.0
H1123 H 0.94431 0.24007 0.67005 0.0
H1124 H 0.91292 0.21131 0.7001 0.0
H1125 H 0.93484 0.20489 0.65337 0.0
H1126 H 0.95102 0.2042 0.64196 0.0
H1127 H 0.94611 0.18095 0.68846 0.0
H1128 H 0.92997 0.18162 0.70032 0.0
H1129 H 0.86614 0.16175 0.66977 0.0
H1130 H 0.88311 0.17919 0.67133 0.0
H1131 H 0.89705 0.16458 0.70955 0.0
H1132 H 0.8801 0.1471 0.7081 0.0
H1133 H 0.91117 0.17647 0.68141 0.0
H1134 H 0.88898 0.18262 0.72775 0.0
H1135 H 0.87279 0.18332 0.73906 0.0
H1136 H 0.87812 0.20702 0.69324 0.0
H1137 H 0.89428 0.20636 0.68147 0.0
C1138 C 0.9517 0.22531 0.70041 0.0
C1139 C 0.95288 0.23436 0.68922 0.0
C1140 C 0.94172 0.21552 0.70106 0.0
C1141 C 0.93267 0.21445 0.69038 0.0
C1142 C 0.93375 0.22355 0.67961 0.0
C1143 C 0.94372 0.23336 0.679 0.0
C1144 C 0.92215 0.20384 0.69022 0.0
C1145 C 0.91253 0.20372 0.69576 0.0
C1146 C 0.92159 0.19384 0.68501 0.0
C1147 C 0.93126 0.19339 0.67785 0.0
C1148 C 0.93726 0.19969 0.66125 0.0
C1149 C 0.94641 0.19929 0.65469 0.0
C1150 C 0.94961 0.19256 0.66451 0.0
C1151 C 0.94363 0.18618 0.68088 0.0
C1152 C 0.93448 0.18655 0.68752 0.0
C1153 C 0.87274 0.16226 0.67878 0.0
C1154 C 0.87167 0.15295 0.68884 0.0
C1155 C 0.88249 0.17228 0.67963 0.0
C1156 C 0.89141 0.1733 0.69072 0.0
C1157 C 0.89035 0.16404 0.70084 0.0
C1158 C 0.88062 0.15402 0.69995 0.0
C1159 C 0.90192 0.18392 0.69131 0.0
C1160 C 0.91155 0.18405 0.6858 0.0
C1161 C 0.90247 0.19392 0.69655 0.0
C1162 C 0.89278 0.19436 0.70361 0.0
C1163 C 0.88665 0.18792 0.71999 0.0
C1164 C 0.87749 0.18832 0.7265 0.0
C1165 C 0.87441 0.19519 0.71684 0.0
C1166 C 0.88051 0.2017 0.70069 0.0
C1167 C 0.88967 0.20132 0.6941 0.0
H1168 H 0.86732 0.19549 0.72191 0.0
H1169 H 0.9567 0.19226 0.65941 0.0
H1170 H 0.3737 0.98369 0.24694 0.0
H1171 H 0.3856 0.98918 0.21751 0.0
H1172 H 0.4083 0.98294 0.25012 0.0
H1173 H 0.39661 0.97774 0.27974 0.0
H1174 H 0.41879 1.002 0.23066 0.0
H1175 H 0.39152 0.96547 0.21326 0.0
H1176 H 0.3729 0.95038 0.20737 0.0
H1177 H 0.3684 0.96923 0.16133 0.0
H1178 H 0.38696 0.9845 0.16714 0.0
H1179 H 0.45219 1.00337 0.15097 0.0
H1180 H 0.4393 0.9976 0.17874 0.0
H1181 H 0.41786 1.00428 0.14296 0.0
H1182 H 0.43079 0.01013 0.11499 0.0
H1183 H 0.40641 0.98548 0.16343 0.0
H1184 H 0.43362 0.02184 0.18023 0.0
H1185 H 0.45219 0.03705 0.18596 0.0
H1186 H 0.45669 0.01876 0.2331 0.0
H1187 H 0.43818 1.00337 0.22746 0.0
C1188 C 0.38124 0.98351 0.2479 0.0
C1189 C 0.38414 0.98023 0.26581 0.0
C1190 C 0.38801 0.98656 0.23095 0.0
C1191 C 0.39785 0.98641 0.23144 0.0
C1192 C 0.40075 0.98312 0.24927 0.0
C1193 C 0.39398 0.98004 0.26619 0.0
C1194 C 0.40527 0.98993 0.21362 0.0
C1195 C 0.4161 0.99827 0.21604 0.0
C1196 C 0.40174 0.98534 0.1943 0.0
C1197 C 0.39059 0.97617 0.19079 0.0
C1198 C 0.38653 0.96643 0.202 0.0
C1199 C 0.37599 0.95784 0.19865 0.0
C1200 C 0.36946 0.95886 0.18402 0.0
C1201 C 0.37346 0.96846 0.17268 0.0
C1202 C 0.38399 0.97708 0.17598 0.0
C1203 C 0.4448 1.00374 0.149 0.0
C1204 C 0.44264 1.00737 0.13071 0.0
C1205 C 0.43739 1.00039 0.16494 0.0
C1206 C 0.42764 1.00065 0.16317 0.0
C1207 C 0.42532 1.00402 0.14479 0.0
C1208 C 0.43273 1.00735 0.12876 0.0
C1209 C 0.41995 0.99747 0.18055 0.0
C1210 C 0.40909 0.98922 0.17805 0.0
C1211 C 0.42342 1.00217 0.19981 0.0
C1212 C 0.43454 0.01142 0.20329 0.0
C1213 C 0.43859 0.02103 0.19172 0.0
C1214 C 0.44911 0.02969 0.19497 0.0
C1215 C 0.45563 0.02886 0.20985 0.0
C1216 C 0.45163 0.01939 0.22156 0.0
C1217 C 0.44113 0.0107 0.21836 0.0
H1218 H 0.46376 0.03558 0.21235 0.0
H1219 H 0.3613 0.95219 0.18145 0.0
H1220 H 0.12978 0.39551 0.27281 0.0
H1221 H 0.12319 0.40125 0.24377 0.0
H1222 H 0.11954 0.37347 0.21058 0.0
H1223 H 0.12638 0.36784 0.23932 0.0
H1224 H 0.12925 0.39153 0.18798 0.0
H1225 H 0.09744 0.37449 0.22982 0.0
H1226 H 0.08686 0.3715 0.26085 0.0
H1227 H 0.09325 0.40462 0.25842 0.0
H1228 H 0.104 0.40786 0.22749 0.0
H1229 H 0.09822 0.39252 0.10589 0.0
H1230 H 0.10433 0.38751 0.13633 0.0
H1231 H 0.10677 0.4156 0.16652 0.0
H1232 H 0.10061 0.42069 0.13596 0.0
H1233 H 0.09808 0.39824 0.19115 0.0
H1234 H 0.12959 0.4153 0.14924 0.0
H1235 H 0.14027 0.41848 0.11827 0.0
H1236 H 0.13475 0.38568 0.12109 0.0
H1237 H 0.12391 0.38224 0.15194 0.0
C1238 C 0.1276 0.39062 0.25932 0.0
C1239 C 0.12861 0.38118 0.25852 0.0
C1240 C 0.12373 0.39387 0.24275 0.0
C1241 C 0.12075 0.38776 0.22494 0.0
C1242 C 0.12174 0.37833 0.22411 0.0
C1243 C 0.12558 0.37506 0.24067 0.0
C1244 C 0.11688 0.3913 0.20699 0.0
C1245 C 0.12234 0.39285 0.18865 0.0
C1246 C 0.10807 0.39338 0.20787 0.0
C1247 C 0.10162 0.39145 0.22646 0.0
C1248 C 0.09667 0.38117 0.236 0.0
C1249 C 0.09062 0.37942 0.25355 0.0
C1250 C 0.08941 0.38787 0.26163 0.0
C1251 C 0.09421 0.39808 0.25215 0.0
C1252 C 0.10027 0.39988 0.23461 0.0
C1253 C 0.10015 0.39772 0.11891 0.0
C1254 C 0.09903 0.40711 0.11829 0.0
C1255 C 0.10364 0.39482 0.13638 0.0
C1256 C 0.10623 0.40126 0.15373 0.0
C1257 C 0.10487 0.41049 0.15336 0.0
C1258 C 0.10132 0.41339 0.13585 0.0
C1259 C 0.11038 0.39835 0.17209 0.0
C1260 C 0.10501 0.39694 0.1905 0.0
C1261 C 0.1193 0.39644 0.17132 0.0
C1262 C 0.12585 0.39848 0.1528 0.0
C1263 C 0.13058 0.40874 0.14317 0.0
C1264 C 0.13668 0.41059 0.12566 0.0
C1265 C 0.13816 0.40228 0.11769 0.0
C1266 C 0.13358 0.3921 0.12726 0.0
C1267 C 0.12747 0.3902 0.14477 0.0
H1268 H 0.14289 0.40373 0.10413 0.0
H1269 H 0.08472 0.38651 0.27522 0.0
H1270 H 0.73291 0.73775 0.23264 0.0
H1271 H 0.72698 0.72453 0.20538 0.0
H1272 H 0.71191 0.69811 0.24822 0.0
H1273 H 0.71779 0.71133 0.27568 0.0
H1274 H 0.7222 0.69331 0.21938 0.0
H1275 H 0.69674 0.70636 0.22054 0.0
H1276 H 0.69105 0.72029 0.22039 0.0
H1277 H 0.70604 0.73187 0.16278 0.0
H1278 H 0.71196 0.7181 0.16271 0.0
H1279 H 0.68826 0.65155 0.15115 0.0
H1280 H 0.69563 0.66484 0.17825 0.0
H1281 H 0.70991 0.69105 0.13483 0.0
H1282 H 0.70223 0.67778 0.10755 0.0
H1283 H 0.70031 0.69608 0.16383 0.0
H1284 H 0.72546 0.68276 0.16228 0.0
H1285 H 0.73117 0.66885 0.16247 0.0
H1286 H 0.71681 0.65775 0.22068 0.0
H1287 H 0.71087 0.67151 0.22073 0.0
C1288 C 0.72827 0.72913 0.23633 0.0
C1289 C 0.72574 0.72566 0.25646 0.0
C1290 C 0.72489 0.72156 0.22066 0.0
C1291 C 0.71881 0.71028 0.22462 0.0
C1292 C 0.71656 0.70675 0.24471 0.0
C1293 C 0.71996 0.71434 0.26044 0.0
C1294 C 0.71468 0.70224 0.20776 0.0
C1295 C 0.7173 0.69384 0.20738 0.0
C1296 C 0.70848 0.70302 0.19176 0.0
C1297 C 0.70488 0.71127 0.19171 0.0
C1298 C 0.69889 0.71193 0.2079 0.0
C1299 C 0.69561 0.71979 0.20785 0.0
C1300 C 0.6982 0.72698 0.19161 0.0
C1301 C 0.70405 0.72631 0.17536 0.0
C1302 C 0.70736 0.71847 0.17535 0.0
C1303 C 0.69292 0.66014 0.14729 0.0
C1304 C 0.69459 0.66355 0.12704 0.0
C1305 C 0.69725 0.66776 0.16287 0.0
C1306 C 0.70345 0.679 0.15871 0.0
C1307 C 0.70519 0.68244 0.13852 0.0
C1308 C 0.70086 0.67482 0.12289 0.0
C1309 C 0.70783 0.68715 0.17539 0.0
C1310 C 0.70524 0.69556 0.17578 0.0
C1311 C 0.71405 0.68637 0.19138 0.0
C1312 C 0.71763 0.6781 0.19142 0.0
C1313 C 0.72344 0.6773 0.17506 0.0
C1314 C 0.72673 0.66945 0.17513 0.0
C1315 C 0.72433 0.6624 0.19155 0.0
C1316 C 0.71865 0.66321 0.20796 0.0
C1317 C 0.71533 0.67104 0.20795 0.0
H1318 H 0.72689 0.65633 0.19158 0.0
H1319 H 0.69566 0.73306 0.1916 0.0
H1320 H 0.06116 0.38005 0.93904 0.0
H1321 H 0.05477 0.36673 0.91175 0.0
H1322 H 0.04691 0.38764 0.87654 0.0
H1323 H 0.05292 0.40078 0.90392 0.0
H1324 H 0.03104 0.36712 0.87374 0.0
H1325 H 0.06998 0.38553 0.86748 0.0
H1326 H 0.08875 0.39217 0.87912 0.0
H1327 H 0.08119 0.35921 0.89155 0.0
H1328 H 0.06233 0.35238 0.88023 0.0
H1329 H 0.02461 0.34304 0.77813 0.0
H1330 H 0.03127 0.35567 0.80639 0.0
H1331 H 0.03857 0.33355 0.83888 0.0
H1332 H 0.03191 0.32085 0.81064 0.0
H1333 H 0.05455 0.35405 0.84395 0.0
H1334 H 0.0158 0.33556 0.84966 0.0
H1335 H 0.997 0.32879 0.8381 0.0
H1336 H 1.00409 0.36173 0.82707 0.0
H1337 H 0.02298 0.36869 0.8383 0.0
C1338 C 0.058 0.38179 0.92556 0.0
C1339 C 0.05765 0.39158 0.92373 0.0
C1340 C 0.05444 0.37419 0.90984 0.0
C1341 C 0.05047 0.3762 0.89187 0.0
C1342 C 0.04997 0.38588 0.89015 0.0
C1343 C 0.05352 0.39346 0.90581 0.0
C1344 C 0.04674 0.36824 0.87488 0.0
C1345 C 0.03625 0.36438 0.86709 0.0
C1346 C 0.05338 0.36437 0.86645 0.0
C1347 C 0.06472 0.36846 0.87321 0.0
C1348 C 0.0723 0.37971 0.87285 0.0
C1349 C 0.08296 0.3835 0.87936 0.0
C1350 C 0.08615 0.37612 0.88612 0.0
C1351 C 0.0787 0.36492 0.88634 0.0
C1352 C 0.06803 0.36108 0.87986 0.0
C1353 C 0.02757 0.34081 0.79131 0.0
C1354 C 0.02763 0.33085 0.79206 0.0
C1355 C 0.0314 0.34806 0.80751 0.0
C1356 C 0.03529 0.34553 0.825 0.0
C1357 C 0.03562 0.33572 0.82561 0.0
C1358 C 0.03182 0.32847 0.80938 0.0
C1359 C 0.03889 0.35303 0.84268 0.0
C1360 C 0.04934 0.35678 0.85062 0.0
C1361 C 0.03221 0.35679 0.85131 0.0
C1362 C 0.02084 0.35263 0.84465 0.0
C1363 C 0.01337 0.34135 0.84464 0.0
C1364 C 1.0027 0.33749 0.83816 0.0
C1365 C 0.99936 0.34483 0.83181 0.0
C1366 C 1.00669 0.35605 0.83197 0.0
C1367 C 0.01738 0.35996 0.83841 0.0
H1368 H 0.99109 0.34182 0.8268 0.0
H1369 H 0.09441 0.37907 0.89116 0.0
H1370 H 0.76721 0.65745 0.78666 0.0
H1371 H 0.75453 0.65158 0.81492 0.0
H1372 H 0.76749 0.68516 0.83255 0.0
H1373 H 0.78015 0.69109 0.8043 0.0
H1374 H 0.76558 0.67303 0.86441 0.0
H1375 H 0.74212 0.67016 0.80988 0.0
H1376 H 0.73331 0.66402 0.77688 0.0
H1377 H 0.71896 0.63057 0.79617 0.0
H1378 H 0.7278 0.63652 0.82922 0.0
H1379 H 0.72565 0.6662 0.93533 0.0
H1380 H 0.73717 0.6712 0.90558 0.0
H1381 H 0.72371 0.63715 0.89101 0.0
H1382 H 0.71184 0.63206 0.9205 0.0
H1383 H 0.72575 0.64893 0.85761 0.0
H1384 H 0.74901 0.65174 0.91215 0.0
H1385 H 0.75779 0.65783 0.94518 0.0
H1386 H 0.77258 0.69129 0.92578 0.0
H1387 H 0.76376 0.68541 0.8927 0.0
C1388 C 0.76726 0.66362 0.79634 0.0
C1389 C 0.77476 0.67477 0.79309 0.0
C1390 C 0.75999 0.66023 0.81258 0.0
C1391 C 0.75995 0.66791 0.82591 0.0
C1392 C 0.76736 0.67904 0.8226 0.0
C1393 C 0.77464 0.68243 0.80641 0.0
C1394 C 0.75243 0.66437 0.84361 0.0
C1395 C 0.75686 0.66788 0.86283 0.0
C1396 C 0.74105 0.65738 0.84179 0.0
C1397 C 0.73571 0.65379 0.82195 0.0
C1398 C 0.73715 0.6615 0.80703 0.0
C1399 C 0.73214 0.65805 0.78833 0.0
C1400 C 0.7256 0.64691 0.78441 0.0
C1401 C 0.72404 0.6392 0.79922 0.0
C1402 C 0.72904 0.6426 0.81794 0.0
C1403 C 0.725 0.65974 0.92571 0.0
C1404 C 0.71775 0.6487 0.93044 0.0
C1405 C 0.73171 0.66262 0.90875 0.0
C1406 C 0.73146 0.65456 0.89608 0.0
C1407 C 0.72412 0.64354 0.90054 0.0
C1408 C 0.71739 0.64063 0.91754 0.0
C1409 C 0.73891 0.65768 0.87834 0.0
C1410 C 0.73447 0.65407 0.85915 0.0
C1411 C 0.7503 0.66457 0.88016 0.0
C1412 C 0.75564 0.66814 0.90001 0.0
C1413 C 0.75407 0.6604 0.91498 0.0
C1414 C 0.75906 0.66381 0.9337 0.0
C1415 C 0.76571 0.67494 0.9376 0.0
C1416 C 0.76741 0.68267 0.92275 0.0
C1417 C 0.76242 0.67931 0.90401 0.0
H1418 H 0.76957 0.67756 0.9521 0.0
H1419 H 0.72173 0.64426 0.76992 0.0
H1420 H 0.47379 0.05675 0.92276 0.0
H1421 H 0.46867 0.06324 0.89274 0.0
H1422 H 0.43485 0.04345 0.90852 0.0
H1423 H 0.43989 0.03697 0.93853 0.0
H1424 H 0.43739 0.04154 0.86977 0.0
H1425 H 0.44914 0.07165 0.9152 0.0
H1426 H 0.46185 0.08595 0.93823 0.0
H1427 H 0.48515 0.10049 0.89059 0.0
H1428 H 0.47263 0.08619 0.86733 0.0
H1429 H 0.41526 0.06461 0.8028 0.0
H1430 H 0.42102 0.05917 0.83327 0.0
H1431 H 0.45453 0.07894 0.81544 0.0
H1432 H 0.44884 0.08473 0.78523 0.0
H1433 H 0.4525 0.08098 0.85484 0.0
H1434 H 0.44075 0.05099 0.80939 0.0
H1435 H 0.42809 0.0367 0.78631 0.0
H1436 H 0.40487 0.02191 0.83399 0.0
H1437 H 0.41733 0.03621 0.8573 0.0
C1438 C 0.46526 0.05384 0.91996 0.0
C1439 C 0.45727 0.0463 0.93317 0.0
C1440 C 0.46234 0.05756 0.90273 0.0
C1441 C 0.45135 0.05394 0.89835 0.0
C1442 C 0.44337 0.04637 0.91144 0.0
C1443 C 0.44628 0.04262 0.92861 0.0
C1444 C 0.44812 0.0579 0.88009 0.0
C1445 C 0.4406 0.05017 0.86668 0.0
C1446 C 0.45247 0.06916 0.87565 0.0
C1447 C 0.45999 0.07778 0.88959 0.0
C1448 C 0.45701 0.07785 0.90968 0.0
C1449 C 0.46417 0.08596 0.92276 0.0
C1450 C 0.47431 0.0941 0.91589 0.0
C1451 C 0.4773 0.09417 0.8959 0.0
C1452 C 0.47017 0.08606 0.88276 0.0
C1453 C 0.42387 0.06795 0.80545 0.0
C1454 C 0.43156 0.0751 0.79139 0.0
C1455 C 0.42716 0.06472 0.82283 0.0
C1456 C 0.43822 0.06848 0.82659 0.0
C1457 C 0.44594 0.07585 0.81289 0.0
C1458 C 0.44266 0.07909 0.7955 0.0
C1459 C 0.44172 0.06462 0.84462 0.0
C1460 C 0.4493 0.07235 0.85795 0.0
C1461 C 0.43743 0.05336 0.849 0.0
C1462 C 0.42993 0.04473 0.83504 0.0
C1463 C 0.43291 0.04474 0.81491 0.0
C1464 C 0.42578 0.03663 0.8018 0.0
C1465 C 0.41567 0.02842 0.80866 0.0
C1466 C 0.41269 0.02829 0.82868 0.0
C1467 C 0.41979 0.03638 0.84186 0.0
H1468 H 0.41016 0.02215 0.79848 0.0
H1469 H 0.47984 0.10038 0.92604 0.0
H1470 H 0.76577 0.06336 0.77954 0.0
H1471 H 0.75315 0.05619 0.8079 0.0
H1472 H 0.76879 0.08815 0.83477 0.0
H1473 H 0.78166 0.09527 0.80692 0.0
H1474 H 0.76483 0.07322 0.86264 0.0
H1475 H 0.74383 0.07739 0.81009 0.0
H1476 H 0.73566 0.07464 0.77641 0.0
H1477 H 0.71795 0.03996 0.78654 0.0
H1478 H 0.72614 0.04251 0.8202 0.0
H1479 H 0.72409 0.06519 0.93388 0.0
H1480 H 0.7371 0.07135 0.90616 0.0
H1481 H 0.7205 0.03897 0.88104 0.0
H1482 H 0.70745 0.03275 0.90873 0.0
H1483 H 0.72494 0.05355 0.85227 0.0
H1484 H 0.74553 0.04937 0.90516 0.0
H1485 H 0.75368 0.0521 0.93886 0.0
H1486 H 0.77214 0.08668 0.92815 0.0
H1487 H 0.76399 0.08418 0.89447 0.0
C1488 C 0.7666 0.06886 0.79154 0.0
C1489 C 0.77475 0.07994 0.79076 0.0
C1490 C 0.75928 0.06476 0.8077 0.0
C1491 C 0.75988 0.07164 0.82346 0.0
C1492 C 0.76808 0.08266 0.82283 0.0
C1493 C 0.7754 0.08675 0.80671 0.0
C1494 C 0.75203 0.0674 0.84065 0.0
C1495 C 0.75611 0.06904 0.86034 0.0
C1496 C 0.74062 0.06168 0.8378 0.0
C1497 C 0.73569 0.06014 0.81758 0.0
C1498 C 0.73826 0.06918 0.80507 0.0
C1499 C 0.73362 0.06765 0.786 0.0
C1500 C 0.72632 0.05713 0.77932 0.0
C1501 C 0.72362 0.04811 0.79172 0.0
C1502 C 0.72826 0.04959 0.8108 0.0
C1503 C 0.72328 0.05932 0.92264 0.0
C1504 C 0.71468 0.04844 0.92366 0.0
C1505 C 0.73074 0.06287 0.90672 0.0
C1506 C 0.72989 0.05562 0.89149 0.0
C1507 C 0.72135 0.04475 0.8925 0.0
C1508 C 0.71386 0.04121 0.90838 0.0
C1509 C 0.73774 0.05942 0.87427 0.0
C1510 C 0.73366 0.0577 0.85458 0.0
C1511 C 0.74915 0.06506 0.87712 0.0
C1512 C 0.75407 0.06659 0.89736 0.0
C1513 C 0.75126 0.05757 0.91005 0.0
C1514 C 0.75589 0.05907 0.92914 0.0
C1515 C 0.7634 0.06956 0.93566 0.0
C1516 C 0.76631 0.07857 0.92309 0.0
C1517 C 0.7617 0.07711 0.90399 0.0
H1518 H 0.76698 0.07071 0.95044 0.0
H1519 H 0.72272 0.05597 0.76454 0.0
H1520 H 0.04879 0.68107 0.77826 0.0
H1521 H 0.05358 0.67486 0.8089 0.0
H1522 H 0.02074 0.66155 0.83051 0.0
H1523 H 0.01589 0.66781 0.79976 0.0
H1524 H 0.03483 0.67128 0.86053 0.0
H1525 H 0.02995 0.64499 0.81057 0.0
H1526 H 0.03275 0.63861 0.77793 0.0
H1527 H 0.06678 0.6526 0.79065 0.0
H1528 H 0.06421 0.65919 0.82327 0.0
H1529 H 0.03956 0.63782 0.93678 0.0
H1530 H 0.03424 0.64477 0.90769 0.0
H1531 H 0.06676 0.65886 0.88403 0.0
H1532 H 0.07206 0.65167 0.91277 0.0
H1533 H 0.05226 0.64836 0.85524 0.0
H1534 H 0.05702 0.67471 0.90535 0.0
H1535 H 0.05406 0.68098 0.93798 0.0
H1536 H 0.02001 0.66659 0.92512 0.0
H1537 H 0.02274 0.66011 0.89251 0.0
C1538 C 0.04254 0.67675 0.78944 0.0
C1539 C 0.0319 0.67483 0.78634 0.0
C1540 C 0.0453 0.67321 0.80702 0.0
C1541 C 0.03749 0.66752 0.82196 0.0
C1542 C 0.02693 0.66587 0.81923 0.0
C1543 C 0.02416 0.66947 0.80162 0.0
C1544 C 0.04035 0.66323 0.84023 0.0
C1545 C 0.03849 0.66614 0.85936 0.0
C1546 C 0.04534 0.65667 0.83885 0.0
C1547 C 0.0469 0.65267 0.81929 0.0
C1548 C 0.03805 0.64677 0.80635 0.0
C1549 C 0.03959 0.64311 0.78786 0.0
C1550 C 0.04994 0.64522 0.7822 0.0
C1551 C 0.05877 0.65098 0.79504 0.0
C1552 C 0.05727 0.65467 0.81354 0.0
C1553 C 0.04559 0.64238 0.92538 0.0
C1554 C 0.05626 0.64416 0.92722 0.0
C1555 C 0.04256 0.64644 0.9088 0.0
C1556 C 0.05011 0.65244 0.89364 0.0
C1557 C 0.06077 0.65429 0.89549 0.0
C1558 C 0.06382 0.65025 0.91208 0.0
C1559 C 0.04684 0.65649 0.87556 0.0
C1560 C 0.04859 0.6535 0.85644 0.0
C1561 C 0.04173 0.66293 0.87698 0.0
C1562 C 0.04007 0.66683 0.89657 0.0
C1563 C 0.04889 0.6728 0.90955 0.0
C1564 C 0.04725 0.67641 0.92803 0.0
C1565 C 0.03685 0.67416 0.93364 0.0
C1566 C 0.02806 0.66832 0.92076 0.0
C1567 C 0.02965 0.66468 0.90227 0.0
H1568 H 0.0356 0.67696 0.94795 0.0
H1569 H 0.05112 0.64238 0.76788 0.0
H1570 H 0.4435 0.37453 0.94608 0.0
H1571 H 0.43844 0.36355 0.91566 0.0
H1572 H 0.46696 0.38863 0.8857 0.0
H1573 H 0.47208 0.39972 0.91622 0.0
H1574 H 0.44994 0.38088 0.86102 0.0
H1575 H 0.46554 0.36467 0.90313 0.0
H1576 H 0.46796 0.35649 0.93417 0.0
H1577 H 0.43492 0.33039 0.93048 0.0
H1578 H 0.43226 0.33849 0.89955 0.0
H1579 H 0.44603 0.3474 0.77814 0.0
H1580 H 0.45239 0.3588 0.8081 0.0
H1581 H 0.42419 0.33501 0.84068 0.0
H1582 H 0.41795 0.32338 0.81096 0.0
H1583 H 0.44186 0.34239 0.86369 0.0
H1584 H 0.42616 0.35893 0.8221 0.0
H1585 H 0.42375 0.36714 0.7911 0.0
H1586 H 0.45709 0.39265 0.79379 0.0
H1587 H 0.45974 0.3845 0.82467 0.0
C1588 C 0.44878 0.3777 0.93311 0.0
C1589 C 0.45829 0.388 0.93378 0.0
C1590 C 0.44586 0.37139 0.91565 0.0
C1591 C 0.4524 0.37513 0.89837 0.0
C1592 C 0.46177 0.38551 0.8988 0.0
C1593 C 0.46469 0.39187 0.91629 0.0
C1594 C 0.4494 0.36819 0.87995 0.0
C1595 C 0.44835 0.37252 0.86157 0.0
C1596 C 0.44709 0.35718 0.88059 0.0
C1597 C 0.44868 0.35224 0.89912 0.0
C1598 C 0.45877 0.35723 0.90901 0.0
C1599 C 0.46019 0.3526 0.92658 0.0
C1600 C 0.45159 0.34294 0.93432 0.0
C1601 C 0.44157 0.33788 0.92448 0.0
C1602 C 0.4401 0.34248 0.90692 0.0
C1603 C 0.44123 0.34449 0.79173 0.0
C1604 C 0.43143 0.33443 0.792 0.0
C1605 C 0.44484 0.35111 0.80884 0.0
C1606 C 0.43871 0.34788 0.82667 0.0
C1607 C 0.42906 0.33774 0.82713 0.0
C1608 C 0.42544 0.33112 0.81003 0.0
C1609 C 0.44232 0.35506 0.84481 0.0
C1610 C 0.44349 0.35076 0.86313 0.0
C1611 C 0.44476 0.3661 0.8441 0.0
C1612 C 0.44317 0.37104 0.82558 0.0
C1613 C 0.433 0.36624 0.81599 0.0
C1614 C 0.43159 0.37089 0.79846 0.0
C1615 C 0.44027 0.38039 0.79045 0.0
C1616 C 0.45038 0.38528 0.79999 0.0
C1617 C 0.45183 0.38065 0.81752 0.0
H1618 H 0.43916 0.38398 0.77687 0.0
H1619 H 0.4527 0.33937 0.94792 0.0
H1620 H 0.14426 0.73405 0.23918 0.0
H1621 H 0.13722 0.72118 0.21142 0.0
H1622 H 0.10704 0.70212 0.24326 0.0
H1623 H 0.11407 0.71504 0.27125 0.0
H1624 H 0.11296 0.68888 0.22528 0.0
H1625 H 0.10902 0.71914 0.20436 0.0
H1626 H 0.11477 0.7385 0.19781 0.0
H1627 H 0.1384 0.74052 0.15524 0.0
H1628 H 0.1329 0.72121 0.16175 0.0
H1629 H 0.08423 0.65906 0.13715 0.0
H1630 H 0.09029 0.67035 0.16733 0.0
H1631 H 0.12168 0.69065 0.14027 0.0
H1632 H 0.11577 0.67934 0.11022 0.0
H1633 H 0.11406 0.70294 0.15639 0.0
H1634 H 0.11791 0.67242 0.17824 0.0
H1635 H 0.11171 0.65297 0.18489 0.0
H1636 H 0.0875 0.6513 0.22563 0.0
H1637 H 0.09346 0.67071 0.21902 0.0
C1638 C 0.13609 0.72718 0.24029 0.0
C1639 C 0.1297 0.72571 0.25744 0.0
C1640 C 0.13206 0.71979 0.22435 0.0
C1641 C 0.1215 0.71074 0.22498 0.0
C1642 C 0.1152 0.70904 0.24232 0.0
C1643 C 0.11925 0.71644 0.25836 0.0
C1644 C 0.11707 0.70319 0.20741 0.0
C1645 C 0.11306 0.69194 0.21027 0.0
C1646 C 0.11729 0.70714 0.18768 0.0
C1647 C 0.12061 0.71875 0.18368 0.0
C1648 C 0.1155 0.72373 0.19371 0.0
C1649 C 0.11871 0.73469 0.18999 0.0
C1650 C 0.12696 0.74074 0.17615 0.0
C1651 C 0.13202 0.73583 0.16597 0.0
C1652 C 0.12885 0.72487 0.16966 0.0
C1653 C 0.09249 0.66581 0.1377 0.0
C1654 C 0.09948 0.66826 0.12108 0.0
C1655 C 0.09594 0.6723 0.15501 0.0
C1656 C 0.10648 0.68138 0.15619 0.0
C1657 C 0.1135 0.68375 0.13975 0.0
C1658 C 0.11008 0.67727 0.12249 0.0
C1659 C 0.11011 0.68865 0.17419 0.0
C1660 C 0.11394 0.69987 0.17141 0.0
C1661 C 0.10964 0.68465 0.19395 0.0
C1662 C 0.10606 0.67298 0.19797 0.0
C1663 C 0.11121 0.66788 0.18849 0.0
C1664 C 0.10775 0.65687 0.19228 0.0
C1665 C 0.0992 0.65089 0.20563 0.0
C1666 C 0.09411 0.65593 0.21527 0.0
C1667 C 0.09753 0.66694 0.21152 0.0
H1668 H 0.09653 0.64237 0.20855 0.0
H1669 H 0.12943 0.74922 0.17329 0.0
H1670 H 0.39026 0.376 0.27131 0.0
H1671 H 0.40289 0.3814 0.24302 0.0
H1672 H 0.38806 0.39877 0.21643 0.0
H1673 H 0.37514 0.39305 0.2442 0.0
H1674 H 0.39165 0.38783 0.18838 0.0
H1675 H 0.41307 0.41206 0.24127 0.0
H1676 H 0.42124 0.41692 0.275 0.0
H1677 H 0.43806 0.39911 0.26452 0.0
H1678 H 0.42987 0.39403 0.23081 0.0
H1679 H 0.43305 0.4203 0.11762 0.0
H1680 H 0.41995 0.41354 0.14521 0.0
H1681 H 0.43548 0.39644 0.16999 0.0
H1682 H 0.4486 0.40315 0.14242 0.0
H1683 H 0.43152 0.40674 0.19894 0.0
H1684 H 0.41048 0.38287 0.14572 0.0
H1685 H 0.40235 0.37804 0.11196 0.0
H1686 H 0.38484 0.39509 0.12299 0.0
H1687 H 0.39298 0.40016 0.15673 0.0
C1688 C 0.38961 0.38089 0.25939 0.0
C1689 C 0.38167 0.38412 0.26023 0.0
C1690 C 0.39693 0.38408 0.24326 0.0
C1691 C 0.39657 0.39064 0.2276 0.0
C1692 C 0.38858 0.39376 0.22829 0.0
C1693 C 0.38125 0.39056 0.24437 0.0
C1694 C 0.40443 0.3942 0.21044 0.0
C1695 C 0.40037 0.39208 0.19072 0.0
C1696 C 0.41584 0.39952 0.21334 0.0
C1697 C 0.42077 0.40257 0.2336 0.0
C1698 C 0.41844 0.40911 0.24622 0.0
C1699 C 0.42309 0.41192 0.26532 0.0
C1700 C 0.43014 0.4083 0.27192 0.0
C1701 C 0.43258 0.40189 0.2594 0.0
C1702 C 0.42795 0.39905 0.24029 0.0
C1703 C 0.4336 0.41497 0.12875 0.0
C1704 C 0.44193 0.41228 0.12767 0.0
C1705 C 0.42609 0.41111 0.1446 0.0
C1706 C 0.42662 0.40437 0.15971 0.0
C1707 C 0.43488 0.40164 0.15862 0.0
C1708 C 0.44242 0.40551 0.14282 0.0
C1709 C 0.41874 0.40041 0.17687 0.0
C1710 C 0.4228 0.40245 0.1966 0.0
C1711 C 0.40734 0.39502 0.17397 0.0
C1712 C 0.40243 0.39198 0.15369 0.0
C1713 C 0.40497 0.38567 0.14089 0.0
C1714 C 0.40034 0.38287 0.12177 0.0
C1715 C 0.3931 0.38628 0.11532 0.0
C1716 C 0.39045 0.39247 0.128 0.0
C1717 C 0.39507 0.3953 0.14713 0.0
H1718 H 0.38953 0.3841 0.10051 0.0
H1719 H 0.43373 0.41049 0.28671 0.0
H1720 H 0.71482 0.01156 0.10751 0.0
H1721 H 0.71981 1.00546 0.13803 0.0
H1722 H 0.68917 0.99775 0.16492 0.0
H1723 H 0.68412 1.00391 0.13429 0.0
H1724 H 0.70513 1.00719 0.19195 0.0
H1725 H 0.69372 0.97755 0.14603 0.0
H1726 H 0.69335 0.96868 0.11403 0.0
H1727 H 0.72711 0.97852 0.12085 0.0
H1728 H 0.72772 0.98759 0.15277 0.0
H1729 H 0.70892 0.97451 0.27111 0.0
H1730 H 0.7033 0.98122 0.24207 0.0
H1731 H 0.73364 0.99007 0.21263 0.0
H1732 H 0.73918 0.9831 0.24135 0.0
H1733 H 0.71707 0.97962 0.18725 0.0
H1734 H 0.7284 0.00945 0.23324 0.0
H1735 H 0.72857 0.01822 0.26526 0.0
H1736 H 0.69465 1.00767 0.25852 0.0
H1737 H 0.69424 0.99871 0.22657 0.0
C1738 C 0.70908 1.00849 0.11983 0.0
C1739 C 0.69899 1.00811 0.11825 0.0
C1740 C 0.71196 1.005 0.13735 0.0
C1741 C 0.7048 1.00092 0.15376 0.0
C1742 C 0.69484 1.00082 0.15249 0.0
C1743 C 0.69196 1.00436 0.13495 0.0
C1744 C 0.70773 0.99671 0.17206 0.0
C1745 C 0.70759 1.00104 0.19094 0.0
C1746 C 0.71113 0.98882 0.17085 0.0
C1747 C 0.71078 0.98333 0.1517 0.0
C1748 C 0.70108 0.97789 0.14063 0.0
C1749 C 0.70083 0.97282 0.12252 0.0
C1750 C 0.71021 0.97306 0.11539 0.0
C1751 C 0.71985 0.97835 0.12638 0.0
C1752 C 0.72015 0.98345 0.1445 0.0
C1753 C 0.7144 0.97786 0.25845 0.0
C1754 C 0.72453 0.97826 0.25868 0.0
C1755 C 0.71121 0.9818 0.24189 0.0
C1756 C 0.71807 0.98626 0.22513 0.0
C1757 C 0.72819 0.9867 0.22535 0.0
C1758 C 0.7314 0.98279 0.24191 0.0
C1759 C 0.7146 0.99017 0.20713 0.0
C1760 C 0.71461 0.98576 0.18828 0.0
C1761 C 0.71104 0.99794 0.20842 0.0
C1762 C 0.71127 1.00331 0.22762 0.0
C1763 C 0.72096 0.00892 0.23867 0.0
C1764 C 0.7211 0.01394 0.25679 0.0
C1765 C 0.71162 0.01347 0.26395 0.0
C1766 C 0.70198 1.00801 0.25297 0.0
C1767 C 0.70179 1.00297 0.23485 0.0
H1768 H 0.71175 0.01737 0.27797 0.0
H1769 H 0.70999 0.96913 0.10137 0.0
H1770 H 0.10828 0.32873 0.46097 0.0
H1771 H 0.09745 0.32249 0.49182 0.0
H1772 H 0.08891 0.34773 0.48485 0.0
H1773 H 0.1 0.35425 0.45457 0.0
H1774 H 0.09313 0.34638 0.52263 0.0
H1775 H 0.07121 0.32036 0.47236 0.0
H1776 H 0.06711 0.30667 0.44596 0.0
H1777 H 0.07207 0.28632 0.48796 0.0
H1778 H 0.07634 0.29997 0.51456 0.0
H1779 H 0.04697 0.32678 0.58512 0.0
H1780 H 0.05874 0.33184 0.55571 0.0
H1781 H 0.06743 0.30744 0.57121 0.0
H1782 H 0.05579 0.30243 0.60101 0.0
H1783 H 0.06387 0.30783 0.53043 0.0
H1784 H 0.08482 0.33374 0.58119 0.0
H1785 H 0.08843 0.34742 0.60736 0.0
H1786 H 0.08488 0.36807 0.56393 0.0
H1787 H 0.08109 0.35443 0.53754 0.0
C1788 C 0.10421 0.33304 0.46612 0.0
C1789 C 0.10497 0.34195 0.45507 0.0
C1790 C 0.0979 0.32938 0.48369 0.0
C1791 C 0.09217 0.33451 0.4906 0.0
C1792 C 0.09317 0.34357 0.47987 0.0
C1793 C 0.09946 0.34723 0.46238 0.0
C1794 C 0.0851 0.33049 0.50891 0.0
C1795 C 0.08667 0.33797 0.52418 0.0
C1796 C 0.07679 0.31945 0.51134 0.0
C1797 C 0.07422 0.31124 0.49539 0.0
C1798 C 0.07151 0.313 0.47593 0.0
C1799 C 0.06914 0.30524 0.46093 0.0
C1800 C 0.06936 0.29564 0.46527 0.0
C1801 C 0.07192 0.29377 0.48462 0.0
C1802 C 0.07431 0.30151 0.49966 0.0
C1803 C 0.05142 0.32251 0.58243 0.0
C1804 C 0.05048 0.31426 0.59572 0.0
C1805 C 0.05814 0.3254 0.5655 0.0
C1806 C 0.06414 0.32015 0.56133 0.0
C1807 C 0.06292 0.31164 0.57409 0.0
C1808 C 0.05621 0.30875 0.59112 0.0
C1809 C 0.07182 0.32376 0.54393 0.0
C1810 C 0.07038 0.31622 0.52888 0.0
C1811 C 0.08021 0.33476 0.54163 0.0
C1812 C 0.08258 0.34302 0.55743 0.0
C1813 C 0.08473 0.34116 0.57725 0.0
C1814 C 0.08682 0.34891 0.59211 0.0
C1815 C 0.08686 0.35859 0.58732 0.0
C1816 C 0.08484 0.36056 0.56762 0.0
C1817 C 0.08273 0.35282 0.5527 0.0
H1818 H 0.08847 0.36458 0.59885 0.0
H1819 H 0.06752 0.28965 0.45364 0.0
H1820 H 0.78998 0.70055 0.57644 0.0
H1821 H 0.78472 0.70673 0.54624 0.0
H1822 H 0.78835 0.73489 0.57802 0.0
H1823 H 0.79329 0.72859 0.60848 0.0
H1824 H 0.77012 0.72608 0.55636 0.0
H1825 H 0.80734 0.73693 0.5433 0.0
H1826 H 0.82331 0.73445 0.53999 0.0
H1827 H 0.80718 0.71075 0.49364 0.0
H1828 H 0.79105 0.71299 0.49686 0.0
H1829 H 0.7671 0.75424 0.46889 0.0
H1830 H 0.77289 0.74908 0.49976 0.0
H1831 H 0.77054 0.72089 0.47006 0.0
H1832 H 0.76477 0.726 0.43925 0.0
H1833 H 0.78859 0.7304 0.49107 0.0
H1834 H 0.75119 0.71913 0.50472 0.0
H1835 H 0.73514 0.72146 0.5081 0.0
H1836 H 0.75149 0.7458 0.55334 0.0
H1837 H 0.76771 0.74372 0.55004 0.0
C1838 C 0.78962 0.70804 0.57708 0.0
C1839 C 0.79211 0.71406 0.595 0.0
C1840 C 0.7867 0.71163 0.55968 0.0
C1841 C 0.78624 0.72136 0.55968 0.0
C1842 C 0.78868 0.72738 0.57754 0.0
C1843 C 0.79161 0.7238 0.59494 0.0
C1844 C 0.78303 0.72517 0.54117 0.0
C1845 C 0.77427 0.72718 0.54216 0.0
C1846 C 0.78826 0.7264 0.52244 0.0
C1847 C 0.79795 0.72505 0.52046 0.0
C1848 C 0.80717 0.73113 0.53251 0.0
C1849 C 0.81625 0.72977 0.53063 0.0
C1850 C 0.81625 0.72243 0.51665 0.0
C1851 C 0.80716 0.71643 0.50448 0.0
C1852 C 0.79805 0.71774 0.50631 0.0
C1853 C 0.76772 0.74689 0.46896 0.0
C1854 C 0.76548 0.74057 0.45146 0.0
C1855 C 0.77105 0.74393 0.48667 0.0
C1856 C 0.7721 0.73452 0.48741 0.0
C1857 C 0.76987 0.72822 0.46995 0.0
C1858 C 0.76659 0.73118 0.45226 0.0
C1859 C 0.77561 0.73124 0.5062 0.0
C1860 C 0.78444 0.72933 0.50527 0.0
C1861 C 0.77044 0.73008 0.52497 0.0
C1862 C 0.7607 0.73135 0.52697 0.0
C1863 C 0.7514 0.72504 0.51527 0.0
C1864 C 0.74227 0.72631 0.5172 0.0
C1865 C 0.74231 0.7338 0.53088 0.0
C1866 C 0.75148 0.74002 0.54272 0.0
C1867 C 0.76064 0.73879 0.54084 0.0
H1868 H 0.73523 0.73476 0.53236 0.0
H1869 H 0.82329 0.72139 0.51522 0.0
H1870 H 0.34667 0.98688 0.48291 0.0
H1871 H 0.35356 1.0 0.51032 0.0
H1872 H 0.38168 0.02139 0.47488 0.0
H1873 H 0.37496 1.0081 0.44746 0.0
H1874 H 0.38743 0.02018 0.51325 0.0
H1875 H 0.361 0.02693 0.48149 0.0
H1876 H 0.34307 0.02215 0.46748 0.0
H1877 H 0.32832 0.01025 0.52516 0.0
H1878 H 0.34614 0.01482 0.53946 0.0
H1879 H 0.40446 0.06661 0.57676 0.0
H1880 H 0.39861 0.0539 0.54861 0.0
H1881 H 0.36926 0.03199 0.58058 0.0
H1882 H 0.37507 0.04466 0.60879 0.0
H1883 H 0.3645 0.03393 0.54305 0.0
H1884 H 0.39081 0.02679 0.57472 0.0
H1885 H 0.40869 0.03142 0.58878 0.0
H1886 H 0.42365 0.04396 0.53148 0.0
H1887 H 0.40588 0.03954 0.51713 0.0
C1888 C 0.35438 0.99432 0.48093 0.0
C1889 C 0.36025 0.99637 0.46288 0.0
C1890 C 0.35826 1.00189 0.49661 0.0
C1891 C 0.3681 0.01178 0.49469 0.0
C1892 C 0.37405 0.01385 0.47677 0.0
C1893 C 0.37015 1.00627 0.46101 0.0
C1894 C 0.37214 0.0199 0.51141 0.0
C1895 C 0.38248 0.02331 0.51956 0.0
C1896 C 0.36562 0.02385 0.52003 0.0
C1897 C 0.35489 0.02113 0.5115 0.0
C1898 C 0.35392 0.02322 0.49115 0.0
C1899 C 0.34378 0.02056 0.48316 0.0
C1900 C 0.33456 0.01588 0.49541 0.0
C1901 C 0.33546 0.01387 0.51569 0.0
C1902 C 0.34558 0.0165 0.52375 0.0
C1903 C 0.39683 0.05901 0.57797 0.0
C1904 C 0.39026 0.05669 0.59517 0.0
C1905 C 0.39347 0.05174 0.56178 0.0
C1906 C 0.38351 0.04188 0.56242 0.0
C1907 C 0.37696 0.03953 0.5796 0.0
C1908 C 0.38029 0.04682 0.59576 0.0
C1909 C 0.37977 0.03415 0.54505 0.0
C1910 C 0.36948 0.03082 0.53675 0.0
C1911 C 0.38633 0.03028 0.53632 0.0
C1912 C 0.39703 0.03294 0.54491 0.0
C1913 C 0.39793 0.03062 0.56516 0.0
C1914 C 0.40804 0.03319 0.57317 0.0
C1915 C 0.41731 0.03801 0.56105 0.0
C1916 C 0.41647 0.04024 0.54086 0.0
C1917 C 0.40638 0.0377 0.53278 0.0
H1918 H 0.42513 0.04 0.56728 0.0
H1919 H 0.32671 0.01383 0.4892 0.0
H1920 H 0.76778 0.99034 0.4707 0.0
H1921 H 0.77461 1.00167 0.5008 0.0
H1922 H 0.7691 0.02616 0.47284 0.0
H1923 H 0.76255 0.01504 0.44259 0.0
H1924 H 0.78816 0.03566 0.49192 0.0
H1925 H 0.75162 1.00846 0.50845 0.0
H1926 H 0.73615 0.98979 0.51267 0.0
H1927 H 0.75435 0.98258 0.55571 0.0
H1928 H 0.76999 1.00117 0.55153 0.0
H1929 H 0.78964 0.06553 0.57932 0.0
H1930 H 0.7846 0.05461 0.54871 0.0
H1931 H 0.79059 0.03082 0.57829 0.0
H1932 H 0.79579 0.04175 0.60886 0.0
H1933 H 0.77169 0.02085 0.55852 0.0
H1934 H 0.80811 0.04841 0.5426 0.0
H1935 H 0.82341 0.06717 0.53841 0.0
H1936 H 0.80532 0.07383 0.49424 0.0
H1937 H 0.78983 0.05515 0.49838 0.0
C1938 C 0.76811 0.99818 0.47087 0.0
C1939 C 0.76451 1.0017 0.45419 0.0
C1940 C 0.77193 1.00462 0.48819 0.0
C1941 C 0.77226 0.01475 0.48928 0.0
C1942 C 0.7689 0.01838 0.47249 0.0
C1943 C 0.76505 0.01194 0.45523 0.0
C1944 C 0.77602 0.02155 0.50788 0.0
C1945 C 0.78446 0.03245 0.50643 0.0
C1946 C 0.7714 0.01735 0.52698 0.0
C1947 C 0.76201 1.00617 0.52951 0.0
C1948 C 0.75235 1.00286 0.51868 0.0
C1949 C 0.74355 0.9923 0.5211 0.0
C1950 C 0.74428 0.98499 0.53441 0.0
C1951 C 0.7538 0.98824 0.54538 0.0
C1952 C 0.76264 0.99879 0.543 0.0
C1953 C 0.79008 0.05807 0.57927 0.0
C1954 C 0.79313 0.05457 0.59671 0.0
C1955 C 0.78714 0.0518 0.56171 0.0
C1956 C 0.78724 0.04187 0.56106 0.0
C1957 C 0.79038 0.0384 0.57837 0.0
C1958 C 0.79333 0.04467 0.59591 0.0
C1959 C 0.78382 0.03498 0.54256 0.0
C1960 C 0.77542 0.02406 0.54402 0.0
C1961 C 0.78847 0.03917 0.52347 0.0
C1962 C 0.79777 0.05041 0.52095 0.0
C1963 C 0.80735 0.0539 0.53212 0.0
C1964 C 0.81607 0.06452 0.52973 0.0
C1965 C 0.81533 0.0717 0.51611 0.0
C1966 C 0.80587 0.06827 0.50481 0.0
C1967 C 0.79713 0.05766 0.50716 0.0
H1968 H 0.82209 0.07991 0.51427 0.0
H1969 H 0.73745 0.97682 0.53626 0.0
H1970 H 0.11172 0.73315 0.46676 0.0
H1971 H 0.10063 0.72812 0.49722 0.0
H1972 H 0.08485 0.74562 0.47557 0.0
H1973 H 0.09618 0.75102 0.44544 0.0
H1974 H 0.08892 0.74928 0.51441 0.0
H1975 H 0.07269 0.71726 0.4729 0.0
H1976 H 0.07239 0.70251 0.45273 0.0
H1977 H 0.08215 0.69105 0.50426 0.0
H1978 H 0.08265 0.70583 0.52468 0.0
H1979 H 0.0418 0.72577 0.57559 0.0
H1980 H 0.05456 0.73142 0.54762 0.0
H1981 H 0.06931 0.71381 0.5735 0.0
H1982 H 0.05659 0.70818 0.60175 0.0
H1983 H 0.06653 0.71025 0.53378 0.0
H1984 H 0.08197 0.74183 0.57568 0.0
H1985 H 0.08211 0.75652 0.59582 0.0
H1986 H 0.07378 0.76879 0.54357 0.0
H1987 H 0.07345 0.75408 0.52316 0.0
C1988 C 0.10601 0.73607 0.46856 0.0
C1989 C 0.10484 0.74246 0.45346 0.0
C1990 C 0.09956 0.73307 0.48595 0.0
C1991 C 0.09173 0.73632 0.48866 0.0
C1992 C 0.09076 0.74294 0.47387 0.0
C1993 C 0.0972 0.74595 0.45651 0.0
C1994 C 0.08448 0.73277 0.50673 0.0
C1995 C 0.08395 0.74073 0.51848 0.0
C1996 C 0.07814 0.72163 0.51249 0.0
C1997 C 0.07782 0.71272 0.50026 0.0
C1998 C 0.07485 0.71165 0.47989 0.0
C1999 C 0.07463 0.70327 0.46842 0.0
C2000 C 0.07728 0.69587 0.47719 0.0
C2001 C 0.08012 0.6968 0.49747 0.0
C2002 C 0.08037 0.70517 0.50901 0.0
C2003 C 0.04784 0.7232 0.57556 0.0
C2004 C 0.04817 0.71657 0.59116 0.0
C2005 C 0.05514 0.72643 0.55945 0.0
C2006 C 0.06305 0.72319 0.55848 0.0
C2007 C 0.06332 0.71645 0.57385 0.0
C2008 C 0.056 0.7132 0.59001 0.0
C2009 C 0.07091 0.72676 0.54134 0.0
C2010 C 0.07156 0.71881 0.52976 0.0
C2011 C 0.07734 0.7379 0.53573 0.0
C2012 C 0.07759 0.74679 0.54793 0.0
C2013 C 0.08009 0.74762 0.56851 0.0
C2014 C 0.08022 0.75595 0.57997 0.0
C2015 C 0.07793 0.76357 0.57099 0.0
C2016 C 0.07554 0.76288 0.55051 0.0
C2017 C 0.07539 0.75455 0.53899 0.0
H2018 H 0.07803 0.77001 0.57988 0.0
H2019 H 0.07711 0.68939 0.46828 0.0
H2020 H 0.3814 0.34599 0.44463 0.0
H2021 H 0.38633 0.33984 0.47516 0.0
H2022 H 0.3554 0.33156 0.50147 0.0
H2023 H 0.35041 0.33777 0.47083 0.0
H2024 H 0.37117 0.34102 0.52886 0.0
H2025 H 0.36043 0.3117 0.48242 0.0
H2026 H 0.36041 0.30308 0.45033 0.0
H2027 H 0.39423 0.31333 0.45784 0.0
H2028 H 0.39448 0.32215 0.48986 0.0
H2029 H 0.37495 0.3082 0.60773 0.0
H2030 H 0.36939 0.31496 0.57868 0.0
H2031 H 0.4 0.32432 0.54984 0.0
H2032 H 0.40549 0.31731 0.57856 0.0
H2033 H 0.38365 0.31387 0.52407 0.0
H2034 H 0.39431 0.34338 0.57057 0.0
H2035 H 0.39415 0.35189 0.60269 0.0
H2036 H 0.36018 0.34097 0.59527 0.0
H2037 H 0.36011 0.33226 0.56321 0.0
C2038 C 0.37558 0.34278 0.45681 0.0
C2039 C 0.36543 0.34226 0.45507 0.0
C2040 C 0.37843 0.33927 0.47434 0.0
C2041 C 0.37118 0.33502 0.49059 0.0
C2042 C 0.36115 0.33476 0.48916 0.0
C2043 C 0.3583 0.33833 0.47161 0.0
C2044 C 0.37407 0.33078 0.5089 0.0
C2045 C 0.37374 0.33496 0.52782 0.0
C2046 C 0.37763 0.32301 0.50766 0.0
C2047 C 0.3775 0.31767 0.48845 0.0
C2048 C 0.36788 0.31219 0.47716 0.0
C2049 C 0.36782 0.30725 0.45899 0.0
C2050 C 0.37732 0.30768 0.45203 0.0
C2051 C 0.38688 0.31302 0.46324 0.0
C2052 C 0.38698 0.31798 0.48141 0.0
C2053 C 0.3805 0.31167 0.5952 0.0
C2054 C 0.39069 0.3122 0.5956 0.0
C2055 C 0.37734 0.31564 0.57863 0.0
C2056 C 0.3843 0.32026 0.56204 0.0
C2057 C 0.39448 0.32083 0.56243 0.0
C2058 C 0.39766 0.3169 0.579 0.0
C2059 C 0.38087 0.32419 0.54402 0.0
C2060 C 0.38107 0.31992 0.52513 0.0
C2061 C 0.37716 0.33184 0.54533 0.0
C2062 C 0.37718 0.33707 0.56459 0.0
C2063 C 0.38679 0.34271 0.57587 0.0
C2064 C 0.38674 0.34759 0.59404 0.0
C2065 C 0.37715 0.34694 0.60104 0.0
C2066 C 0.3676 0.34144 0.58984 0.0
C2067 C 0.3676 0.33655 0.57166 0.0
H2068 H 0.37714 0.35072 0.61512 0.0
H2069 H 0.37726 0.30386 0.43796 0.0
loop_
_geom_bond_atom_site_label_1
_geom_bond_atom_site_label_2
_geom_bond_distance
_geom_bond_site_symmetry_2
_ccdc_geom_bond_type
C0 C1 1.264 . S
C0 C5 1.479 . S
C0 C10 1.465 . S
C1 C0 1.264 . S
C1 C3 1.339 . S
C1 H28 0.931 . S
C2 C3 1.395 . S
C2 C4 1.320 . S
C3 C1 1.339 . S
C3 C2 1.395 . S
C3 H29 0.929 . S
C4 C2 1.320 . S
C4 C5 1.405 . S
C4 H30 0.930 . S
C5 C0 1.479 . S
C5 C4 1.405 . S
C5 H31 0.931 . S
U6 O7 2.454 . S
U6 O8 2.458 . S
U6 C9 2.984 . S
U6 C10 2.847 . S
U6 C23 2.882 1_554 S
U6 O24 2.441 . S
U6 O25 2.420 . S
U6 O26 2.455 1_554 S
U6 O27 2.449 . S
O7 U6 2.454 . S
O7 C9 1.353 . S
O8 U6 2.458 . S
O8 C9 1.286 . S
C9 U6 2.984 . S
C9 O7 1.353 . S
C9 O8 1.286 . S
C9 C11 1.363 . S
C10 C0 1.465 . S
C10 U6 2.847 . S
C10 O24 1.249 . S
C10 O25 1.202 . S
C11 C9 1.363 . S
C11 C13 1.408 . S
C11 C16 1.342 . S
C12 C13 1.310 . S
C12 C15 1.461 . S
C12 H32 0.932 . S
C13 C11 1.408 . S
C13 C12 1.310 . S
C13 H33 0.930 . S
C14 C15 1.474 . S
C14 C16 1.285 . S
C14 H34 0.929 1_554 S
C15 C12 1.461 . S
C15 C14 1.474 . S
C16 C11 1.342 . S
C16 C14 1.285 . S
C16 H35 0.930 1_554 S
C17 C20 1.424 . S
C17 C22 1.245 . S
C17 C23 1.428 . S
C18 C21 1.260 . S
C18 C22 1.477 . S
C18 H36 0.932 . S
C19 C20 1.384 . S
C19 C21 1.479 . S
C19 H37 0.929 . S
C20 C17 1.424 . S
C20 C19 1.384 . S
C20 H38 0.928 . S
C21 C18 1.260 . S
C21 C19 1.479 . S
C22 C17 1.245 . S
C22 C18 1.477 . S
C22 H39 0.932 . S
C23 U6 2.882 1_556 S
C23 C17 1.428 . S
C23 O26 1.301 . S
C23 O27 1.282 1_556 S
O24 U6 2.441 . S
O24 C10 1.249 . S
O25 U6 2.420 . S
O25 C10 1.202 . S
O26 U6 2.455 1_556 S
O26 C23 1.301 . S
O27 U6 2.449 . S
O27 C23 1.282 1_554 S
H28 C1 0.931 . S
H29 C3 0.929 . S
H30 C4 0.930 . S
H31 C5 0.931 . S
H32 C12 0.932 . S
H33 C13 0.930 . S
H34 C14 0.929 1_556 S
H35 C16 0.930 1_556 S
H36 C18 0.932 . S
H37 C19 0.929 . S
H38 C20 0.928 . S
H39 C22 0.932 . S
C40 C41 1.264 . S
C40 C45 1.479 . S
C40 C50 1.465 . S
C41 C40 1.264 . S
C41 C43 1.339 . S
C41 H68 0.931 . S
C42 C43 1.395 . S
C42 C44 1.320 . S
C43 C41 1.339 . S
C43 C42 1.395 . S
C43 H69 0.929 . S
C44 C42 1.320 . S
C44 C45 1.405 . S
C44 H70 0.930 . S
C45 C40 1.479 . S
C45 C44 1.405 . S
C45 H71 0.931 . S
U46 O47 2.454 1_554 S
U46 O48 2.458 . S
U46 C49 2.984 . S
U46 C50 2.847 1_554 S
U46 C63 2.882 . S
U46 O64 2.441 1_554 S
U46 O65 2.420 1_554 S
U46 O66 2.455 . S
U46 O67 2.449 . S
O47 U46 2.454 1_556 S
O47 C49 1.353 1_556 S
O48 U46 2.458 . S
O48 C49 1.286 . S
C49 U46 2.984 . S
C49 O47 1.353 1_554 S
C49 O48 1.286 . S
C49 C51 1.363 . S
C50 C40 1.465 . S
C50 U46 2.847 1_556 S
C50 O64 1.249 . S
C50 O65 1.202 . S
C51 C49 1.363 . S
C51 C53 1.408 1_554 S
C51 C56 1.342 . S
C52 C53 1.310 . S
C52 C55 1.461 1_556 S
C52 H72 0.932 . S
C53 C51 1.408 1_556 S
C53 C52 1.310 . S
C53 H73 0.930 . S
C54 C55 1.474 . S
C54 C56 1.285 . S
C54 H74 0.929 . S
C55 C52 1.461 1_554 S
C55 C54 1.474 . S
C56 C51 1.342 . S
C56 C54 1.285 . S
C56 H75 0.930 . S
C57 C60 1.424 . S
C57 C62 1.245 . S
C57 C63 1.428 . S
C58 C61 1.260 . S
C58 C62 1.477 . S
C58 H76 0.932 . S
C59 C60 1.384 . S
C59 C61 1.479 . S
C59 H77 0.929 . S
C60 C57 1.424 . S
C60 C59 1.384 . S
C60 H78 0.928 . S
C61 C58 1.260 . S
C61 C59 1.479 . S
C62 C57 1.245 . S
C62 C58 1.477 . S
C62 H79 0.932 . S
C63 U46 2.882 . S
C63 C57 1.428 . S
C63 O66 1.301 . S
C63 O67 1.282 . S
O64 U46 2.441 1_556 S
O64 C50 1.249 . S
O65 U46 2.420 1_556 S
O65 C50 1.202 . S
O66 U46 2.455 . S
O66 C63 1.301 . S
O67 U46 2.449 . S
O67 C63 1.282 . S
H68 C41 0.931 . S
H69 C43 0.929 . S
H70 C44 0.930 . S
H71 C45 0.931 . S
H72 C52 0.932 . S
H73 C53 0.930 . S
H74 C54 0.929 . S
H75 C56 0.930 . S
H76 C58 0.932 . S
H77 C59 0.929 . S
H78 C60 0.928 . S
H79 C62 0.932 . S
C80 C81 1.264 . S
C80 C85 1.479 . S
C80 C90 1.465 . S
C81 C80 1.264 . S
C81 C83 1.339 . S
C81 H108 0.931 . S
C82 C83 1.395 . S
C82 C84 1.320 . S
C83 C81 1.339 . S
C83 C82 1.395 . S
C83 H109 0.929 . S
C84 C82 1.320 . S
C84 C85 1.405 . S
C84 H110 0.930 . S
C85 C80 1.479 . S
C85 C84 1.405 . S
C85 H111 0.931 . S
U86 O87 2.454 . S
U86 O88 2.458 . S
U86 C89 2.984 . S
U86 C90 2.847 . S
U86 C103 2.882 1_554 S
U86 O104 2.441 . S
U86 O105 2.420 . S
U86 O106 2.455 1_554 S
U86 O107 2.449 . S
O87 U86 2.454 . S
O87 C89 1.353 . S
O88 U86 2.458 . S
O88 C89 1.286 . S
C89 U86 2.984 . S
C89 O87 1.353 . S
C89 O88 1.286 . S
C89 C91 1.363 . S
C90 C80 1.465 . S
C90 U86 2.847 . S
C90 O104 1.249 . S
C90 O105 1.202 . S
C91 C89 1.363 . S
C91 C93 1.408 . S
C91 C96 1.342 1_554 S
C92 C93 1.310 . S
C92 C95 1.461 . S
C92 H112 0.932 . S
C93 C91 1.408 . S
C93 C92 1.310 . S
C93 H113 0.930 . S
C94 C95 1.474 1_556 S
C94 C96 1.285 . S
C94 H114 0.929 . S
C95 C92 1.461 . S
C95 C94 1.474 1_554 S
C96 C91 1.342 1_556 S
C96 C94 1.285 . S
C96 H115 0.930 . S
C97 C100 1.424 . S
C97 C102 1.245 . S
C97 C103 1.428 . S
C98 C101 1.260 . S
C98 C102 1.477 . S
C98 H116 0.932 . S
C99 C100 1.384 . S
C99 C101 1.479 . S
C99 H117 0.929 . S
C100 C97 1.424 . S
C100 C99 1.384 . S
C100 H118 0.928 . S
C101 C98 1.260 . S
C101 C99 1.479 . S
C102 C97 1.245 . S
C102 C98 1.477 . S
C102 H119 0.932 . S
C103 U86 2.882 1_556 S
C103 C97 1.428 . S
C103 O106 1.301 . S
C103 O107 1.282 1_556 S
O104 U86 2.441 . S
O104 C90 1.249 . S
O105 U86 2.420 . S
O105 C90 1.202 . S
O106 U86 2.455 1_556 S
O106 C103 1.301 . S
O107 U86 2.449 . S
O107 C103 1.282 1_554 S
H108 C81 0.931 . S
H109 C83 0.929 . S
H110 C84 0.930 . S
H111 C85 0.931 . S
H112 C92 0.932 . S
H113 C93 0.930 . S
H114 C94 0.929 . S
H115 C96 0.930 . S
H116 C98 0.932 . S
H117 C99 0.929 . S
H118 C100 0.928 . S
H119 C102 0.932 . S
C120 C121 1.264 . S
C120 C125 1.479 . S
C120 C130 1.465 . S
C121 C120 1.264 . S
C121 C123 1.339 . S
C121 H148 0.931 . S
C122 C123 1.395 . S
C122 C124 1.320 . S
C123 C121 1.339 . S
C123 C122 1.395 . S
C123 H149 0.929 . S
C124 C122 1.320 . S
C124 C125 1.405 . S
C124 H150 0.930 . S
C125 C120 1.479 . S
C125 C124 1.405 . S
C125 H151 0.931 . S
U126 O127 2.454 1_554 S
U126 O128 2.458 . S
U126 C129 2.984 . S
U126 C130 2.847 1_554 S
U126 C143 2.882 . S
U126 O144 2.441 1_554 S
U126 O145 2.420 1_554 S
U126 O146 2.455 . S
U126 O147 2.449 . S
O127 U126 2.454 1_556 S
O127 C129 1.353 1_556 S
O128 U126 2.458 . S
O128 C129 1.286 . S
C129 U126 2.984 . S
C129 O127 1.353 1_554 S
C129 O128 1.286 . S
C129 C131 1.363 . S
C130 C120 1.465 . S
C130 U126 2.847 1_556 S
C130 O144 1.249 . S
C130 O145 1.202 . S
C131 C129 1.363 . S
C131 C133 1.408 1_554 S
C131 C136 1.342 . S
C132 C133 1.310 . S
C132 C135 1.461 1_556 S
C132 H152 0.932 . S
C133 C131 1.408 1_556 S
C133 C132 1.310 . S
C133 H153 0.930 . S
C134 C135 1.474 . S
C134 C136 1.285 . S
C134 H154 0.929 . S
C135 C132 1.461 1_554 S
C135 C134 1.474 . S
C136 C131 1.342 . S
C136 C134 1.285 . S
C136 H155 0.930 . S
C137 C140 1.424 . S
C137 C142 1.245 . S
C137 C143 1.428 . S
C138 C141 1.260 . S
C138 C142 1.477 . S
C138 H156 0.932 . S
C139 C140 1.384 . S
C139 C141 1.479 . S
C139 H157 0.929 . S
C140 C137 1.424 . S
C140 C139 1.384 . S
C140 H158 0.928 . S
C141 C138 1.260 . S
C141 C139 1.479 . S
C142 C137 1.245 . S
C142 C138 1.477 . S
C142 H159 0.932 . S
C143 U126 2.882 . S
C143 C137 1.428 . S
C143 O146 1.301 . S
C143 O147 1.282 . S
O144 U126 2.441 1_556 S
O144 C130 1.249 . S
O145 U126 2.420 1_556 S
O145 C130 1.202 . S
O146 U126 2.455 . S
O146 C143 1.301 . S
O147 U126 2.449 . S
O147 C143 1.282 . S
H148 C121 0.931 . S
H149 C123 0.929 . S
H150 C124 0.930 . S
H151 C125 0.931 . S
H152 C132 0.932 . S
H153 C133 0.930 . S
H154 C134 0.929 . S
H155 C136 0.930 . S
H156 C138 0.932 . S
H157 C139 0.929 . S
H158 C140 0.928 . S
H159 C142 0.932 . S
C160 C161 1.264 . S
C160 C165 1.479 . S
C160 C170 1.465 . S
C161 C160 1.264 . S
C161 C163 1.339 . S
C161 H188 0.931 . S
C162 C163 1.395 . S
C162 C164 1.320 . S
C163 C161 1.339 . S
C163 C162 1.395 . S
C163 H189 0.929 . S
C164 C162 1.320 . S
C164 C165 1.405 . S
C164 H190 0.930 . S
C165 C160 1.479 . S
C165 C164 1.405 . S
C165 H191 0.931 . S
U166 O167 2.454 1_554 S
U166 O168 2.458 . S
U166 C169 2.984 . S
U166 C170 2.847 1_554 S
U166 C183 2.882 . S
U166 O184 2.441 1_554 S
U166 O185 2.420 1_554 S
U166 O186 2.455 . S
U166 O187 2.449 . S
O167 U166 2.454 1_556 S
O167 C169 1.353 1_556 S
O168 U166 2.458 . S
O168 C169 1.286 . S
C169 U166 2.984 . S
C169 O167 1.353 1_554 S
C169 O168 1.286 . S
C169 C171 1.363 . S
C170 C160 1.465 . S
C170 U166 2.847 1_556 S
C170 O184 1.249 . S
C170 O185 1.202 . S
C171 C169 1.363 . S
C171 C173 1.408 1_554 S
C171 C176 1.342 . S
C172 C173 1.310 . S
C172 C175 1.461 1_556 S
C172 H192 0.932 . S
C173 C171 1.408 1_556 S
C173 C172 1.310 . S
C173 H193 0.930 . S
C174 C175 1.474 . S
C174 C176 1.285 . S
C174 H194 0.929 . S
C175 C172 1.461 1_554 S
C175 C174 1.474 . S
C176 C171 1.342 . S
C176 C174 1.285 . S
C176 H195 0.930 . S
C177 C180 1.424 . S
C177 C182 1.245 . S
C177 C183 1.428 . S
C178 C181 1.260 . S
C178 C182 1.477 . S
C178 H196 0.932 . S
C179 C180 1.384 . S
C179 C181 1.479 . S
C179 H197 0.929 . S
C180 C177 1.424 . S
C180 C179 1.384 . S
C180 H198 0.928 . S
C181 C178 1.260 . S
C181 C179 1.479 . S
C182 C177 1.245 . S
C182 C178 1.477 . S
C182 H199 0.932 . S
C183 U166 2.882 . S
C183 C177 1.428 . S
C183 O186 1.301 . S
C183 O187 1.282 . S
O184 U166 2.441 1_556 S
O184 C170 1.249 . S
O185 U166 2.420 1_556 S
O185 C170 1.202 . S
O186 U166 2.455 . S
O186 C183 1.301 . S
O187 U166 2.449 . S
O187 C183 1.282 . S
H188 C161 0.931 . S
H189 C163 0.929 . S
H190 C164 0.930 . S
H191 C165 0.931 . S
H192 C172 0.932 . S
H193 C173 0.930 . S
H194 C174 0.929 . S
H195 C176 0.930 . S
H196 C178 0.932 . S
H197 C179 0.929 . S
H198 C180 0.928 . S
H199 C182 0.932 . S
C200 C201 1.264 . S
C200 C205 1.479 . S
C200 C210 1.465 . S
C201 C200 1.264 . S
C201 C203 1.339 . S
C201 H228 0.931 . S
C202 C203 1.395 . S
C202 C204 1.320 . S
C203 C201 1.339 . S
C203 C202 1.395 . S
C203 H229 0.929 . S
C204 C202 1.320 . S
C204 C205 1.405 . S
C204 H230 0.930 . S
C205 C200 1.479 . S
C205 C204 1.405 . S
C205 H231 0.931 . S
U206 O207 2.454 . S
U206 O208 2.459 1_554 S
U206 C209 2.984 . S
U206 C210 2.847 . S
U206 C223 2.882 1_554 S
U206 O224 2.441 . S
U206 O225 2.420 . S
U206 O226 2.455 1_554 S
U206 O227 2.449 1_554 S
O207 U206 2.454 . S
O207 C209 1.353 . S
O208 U206 2.459 1_556 S
O208 C209 1.288 1_556 S
C209 U206 2.984 . S
C209 O207 1.353 . S
C209 O208 1.288 1_554 S
C209 C211 1.363 . S
C210 C200 1.465 . S
C210 U206 2.847 . S
C210 O224 1.249 . S
C210 O225 1.202 . S
C211 C209 1.363 . S
C211 C213 1.408 . S
C211 C216 1.342 1_554 S
C212 C213 1.310 . S
C212 C215 1.461 . S
C212 H232 0.932 . S
C213 C211 1.408 . S
C213 C212 1.310 . S
C213 H233 0.930 . S
C214 C215 1.474 1_556 S
C214 C216 1.285 . S
C214 H234 0.929 . S
C215 C212 1.461 . S
C215 C214 1.474 1_554 S
C216 C211 1.342 1_556 S
C216 C214 1.285 . S
C216 H235 0.930 . S
C217 C220 1.424 . S
C217 C222 1.245 . S
C217 C223 1.428 . S
C218 C221 1.260 . S
C218 C222 1.477 . S
C218 H236 0.932 . S
C219 C220 1.384 . S
C219 C221 1.479 . S
C219 H237 0.929 . S
C220 C217 1.424 . S
C220 C219 1.384 . S
C220 H238 0.928 . S
C221 C218 1.260 . S
C221 C219 1.479 . S
C222 C217 1.245 . S
C222 C218 1.477 . S
C222 H239 0.932 . S
C223 U206 2.882 1_556 S
C223 C217 1.428 . S
C223 O226 1.301 . S
C223 O227 1.282 . S
O224 U206 2.441 . S
O224 C210 1.249 . S
O225 U206 2.420 . S
O225 C210 1.202 . S
O226 U206 2.455 1_556 S
O226 C223 1.301 . S
O227 U206 2.449 1_556 S
O227 C223 1.282 . S
H228 C201 0.931 . S
H229 C203 0.929 . S
H230 C204 0.930 . S
H231 C205 0.931 . S
H232 C212 0.932 . S
H233 C213 0.930 . S
H234 C214 0.929 . S
H235 C216 0.930 . S
H236 C218 0.932 . S
H237 C219 0.929 . S
H238 C220 0.928 . S
H239 C222 0.932 . S
C240 C241 1.264 . S
C240 C245 1.479 . S
C240 C250 1.465 . S
C241 C240 1.264 . S
C241 C243 1.339 . S
C241 H268 0.931 . S
C242 C243 1.395 . S
C242 C244 1.320 . S
C243 C241 1.339 . S
C243 C242 1.395 . S
C243 H269 0.929 . S
C244 C242 1.320 . S
C244 C245 1.405 . S
C244 H270 0.930 . S
C245 C240 1.479 . S
C245 C244 1.405 . S
C245 H271 0.931 . S
U246 O247 2.454 . S
U246 O248 2.458 . S
U246 C249 2.984 . S
U246 C250 2.847 . S
U246 C263 2.882 . S
U246 O264 2.441 . S
U246 O265 2.420 . S
U246 O266 2.455 . S
U246 O267 2.449 . S
O247 U246 2.454 . S
O247 C249 1.353 . S
O248 U246 2.458 . S
O248 C249 1.286 . S
C249 U246 2.984 . S
C249 O247 1.353 . S
C249 O248 1.286 . S
C249 C251 1.363 . S
C250 C240 1.465 . S
C250 U246 2.847 . S
C250 O264 1.249 . S
C250 O265 1.202 . S
C251 C249 1.363 . S
C251 C253 1.408 . S
C251 C256 1.342 . S
C252 C253 1.310 . S
C252 C255 1.461 . S
C252 H272 0.932 . S
C253 C251 1.408 . S
C253 C252 1.310 . S
C253 H273 0.930 . S
C254 C255 1.474 . S
C254 C256 1.285 . S
C254 H274 0.929 . S
C255 C252 1.461 . S
C255 C254 1.474 . S
C256 C251 1.342 . S
C256 C254 1.285 . S
C256 H275 0.930 . S
C257 C260 1.424 . S
C257 C262 1.245 . S
C257 C263 1.428 . S
C258 C261 1.260 . S
C258 C262 1.477 . S
C258 H276 0.932 . S
C259 C260 1.384 . S
C259 C261 1.479 . S
C259 H277 0.929 . S
C260 C257 1.424 . S
C260 C259 1.384 . S
C260 H278 0.928 . S
C261 C258 1.260 . S
C261 C259 1.479 . S
C262 C257 1.245 . S
C262 C258 1.477 . S
C262 H279 0.932 . S
C263 U246 2.882 . S
C263 C257 1.428 . S
C263 O266 1.301 . S
C263 O267 1.282 . S
O264 U246 2.441 . S
O264 C250 1.249 . S
O265 U246 2.420 . S
O265 C250 1.202 . S
O266 U246 2.455 . S
O266 C263 1.301 . S
O267 U246 2.449 . S
O267 C263 1.282 . S
H268 C241 0.931 . S
H269 C243 0.929 . S
H270 C244 0.930 . S
H271 C245 0.931 . S
H272 C252 0.932 . S
H273 C253 0.930 . S
H274 C254 0.929 . S
H275 C256 0.930 . S
H276 C258 0.932 . S
H277 C259 0.929 . S
H278 C260 0.928 . S
H279 C262 0.932 . S
C280 C281 1.264 . S
C280 C285 1.479 . S
C280 C290 1.465 . S
C281 C280 1.264 . S
C281 C283 1.339 . S
C281 H308 0.931 . S
C282 C283 1.395 . S
C282 C284 1.320 . S
C283 C281 1.339 . S
C283 C282 1.395 . S
C283 H309 0.929 . S
C284 C282 1.320 . S
C284 C285 1.405 . S
C284 H310 0.930 . S
C285 C280 1.479 . S
C285 C284 1.405 . S
C285 H311 0.931 . S
U286 O287 2.454 . S
U286 O288 2.458 . S
U286 C289 2.984 . S
U286 C290 2.847 . S
U286 C303 2.882 . S
U286 O304 2.441 . S
U286 O305 2.420 . S
U286 O306 2.455 . S
U286 O307 2.449 . S
O287 U286 2.454 . S
O287 C289 1.353 . S
O288 U286 2.458 . S
O288 C289 1.286 . S
C289 U286 2.984 . S
C289 O287 1.353 . S
C289 O288 1.286 . S
C289 C291 1.363 . S
C290 C280 1.465 . S
C290 U286 2.847 . S
C290 O304 1.249 . S
C290 O305 1.202 . S
C291 C289 1.363 . S
C291 C293 1.408 . S
C291 C296 1.342 . S
C292 C293 1.310 . S
C292 C295 1.461 . S
C292 H312 0.932 . S
C293 C291 1.408 . S
C293 C292 1.310 . S
C293 H313 0.930 . S
C294 C295 1.474 . S
C294 C296 1.285 . S
C294 H314 0.929 . S
C295 C292 1.461 . S
C295 C294 1.474 . S
C296 C291 1.342 . S
C296 C294 1.285 . S
C296 H315 0.930 . S
C297 C300 1.424 . S
C297 C302 1.245 . S
C297 C303 1.428 . S
C298 C301 1.260 . S
C298 C302 1.477 . S
C298 H316 0.932 . S
C299 C300 1.384 . S
C299 C301 1.479 . S
C299 H317 0.929 . S
C300 C297 1.424 . S
C300 C299 1.384 . S
C300 H318 0.928 . S
C301 C298 1.260 . S
C301 C299 1.479 . S
C302 C297 1.245 . S
C302 C298 1.477 . S
C302 H319 0.932 . S
C303 U286 2.882 . S
C303 C297 1.428 . S
C303 O306 1.301 . S
C303 O307 1.282 . S
O304 U286 2.441 . S
O304 C290 1.249 . S
O305 U286 2.420 . S
O305 C290 1.202 . S
O306 U286 2.455 . S
O306 C303 1.301 . S
O307 U286 2.449 . S
O307 C303 1.282 . S
H308 C281 0.931 . S
H309 C283 0.929 . S
H310 C284 0.930 . S
H311 C285 0.931 . S
H312 C292 0.932 . S
H313 C293 0.930 . S
H314 C294 0.929 . S
H315 C296 0.930 . S
H316 C298 0.932 . S
H317 C299 0.929 . S
H318 C300 0.928 . S
H319 C302 0.932 . S
C320 C321 1.264 . S
C320 C325 1.479 . S
C320 C330 1.465 . S
C321 C320 1.264 . S
C321 C323 1.339 . S
C321 H348 0.931 . S
C322 C323 1.395 . S
C322 C324 1.320 . S
C323 C321 1.339 . S
C323 C322 1.395 . S
C323 H349 0.929 . S
C324 C322 1.320 . S
C324 C325 1.405 . S
C324 H350 0.930 . S
C325 C320 1.479 . S
C325 C324 1.405 . S
C325 H351 0.931 . S
U326 O327 2.454 . S
U326 O328 2.458 . S
U326 C329 2.984 . S
U326 C330 2.847 . S
U326 C343 2.882 . S
U326 O344 2.441 . S
U326 O345 2.420 . S
U326 O346 2.455 . S
U326 O347 2.449 . S
O327 U326 2.454 . S
O327 C329 1.353 . S
O328 U326 2.458 . S
O328 C329 1.286 . S
C329 U326 2.984 . S
C329 O327 1.353 . S
C329 O328 1.286 . S
C329 C331 1.363 . S
C330 C320 1.465 . S
C330 U326 2.847 . S
C330 O344 1.249 . S
C330 O345 1.202 . S
C331 C329 1.363 . S
C331 C333 1.408 . S
C331 C336 1.342 . S
C332 C333 1.310 . S
C332 C335 1.461 . S
C332 H352 0.932 . S
C333 C331 1.408 . S
C333 C332 1.310 . S
C333 H353 0.930 . S
C334 C335 1.474 . S
C334 C336 1.285 . S
C334 H354 0.929 . S
C335 C332 1.461 . S
C335 C334 1.474 . S
C336 C331 1.342 . S
C336 C334 1.285 . S
C336 H355 0.930 . S
C337 C340 1.424 . S
C337 C342 1.245 . S
C337 C343 1.428 . S
C338 C341 1.260 . S
C338 C342 1.477 . S
C338 H356 0.932 . S
C339 C340 1.384 . S
C339 C341 1.479 . S
C339 H357 0.929 . S
C340 C337 1.424 . S
C340 C339 1.384 . S
C340 H358 0.928 . S
C341 C338 1.260 . S
C341 C339 1.479 . S
C342 C337 1.245 . S
C342 C338 1.477 . S
C342 H359 0.932 . S
C343 U326 2.882 . S
C343 C337 1.428 . S
C343 O346 1.301 . S
C343 O347 1.282 . S
O344 U326 2.441 . S
O344 C330 1.249 . S
O345 U326 2.420 . S
O345 C330 1.202 . S
O346 U326 2.455 . S
O346 C343 1.301 . S
O347 U326 2.449 . S
O347 C343 1.282 . S
H348 C321 0.931 . S
H349 C323 0.929 . S
H350 C324 0.930 . S
H351 C325 0.931 . S
H352 C332 0.932 . S
H353 C333 0.930 . S
H354 C334 0.929 . S
H355 C336 0.930 . S
H356 C338 0.932 . S
H357 C339 0.929 . S
H358 C340 0.928 . S
H359 C342 0.932 . S
C360 C361 1.264 . S
C360 C365 1.479 . S
C360 C370 1.465 . S
C361 C360 1.264 . S
C361 C363 1.339 . S
C361 H388 0.931 . S
C362 C363 1.395 . S
C362 C364 1.320 . S
C363 C361 1.339 . S
C363 C362 1.395 . S
C363 H389 0.929 . S
C364 C362 1.320 . S
C364 C365 1.405 . S
C364 H390 0.930 . S
C365 C360 1.479 . S
C365 C364 1.405 . S
C365 H391 0.931 . S
U366 O367 2.454 . S
U366 O368 2.458 . S
U366 C369 2.984 . S
U366 C370 2.847 . S
U366 C383 2.882 . S
U366 O384 2.441 . S
U366 O385 2.420 . S
U366 O386 2.455 . S
U366 O387 2.449 . S
O367 U366 2.454 . S
O367 C369 1.353 . S
O368 U366 2.458 . S
O368 C369 1.286 . S
C369 U366 2.984 . S
C369 O367 1.353 . S
C369 O368 1.286 . S
C369 C371 1.363 . S
C370 C360 1.465 . S
C370 U366 2.847 . S
C370 O384 1.249 . S
C370 O385 1.202 . S
C371 C369 1.363 . S
C371 C373 1.408 . S
C371 C376 1.342 . S
C372 C373 1.310 . S
C372 C375 1.461 . S
C372 H392 0.932 . S
C373 C371 1.408 . S
C373 C372 1.310 . S
C373 H393 0.930 . S
C374 C375 1.474 . S
C374 C376 1.285 . S
C374 H394 0.929 . S
C375 C372 1.461 . S
C375 C374 1.474 . S
C376 C371 1.342 . S
C376 C374 1.285 . S
C376 H395 0.930 . S
C377 C380 1.424 . S
C377 C382 1.245 . S
C377 C383 1.428 . S
C378 C381 1.260 . S
C378 C382 1.477 . S
C378 H396 0.932 . S
C379 C380 1.384 . S
C379 C381 1.479 . S
C379 H397 0.929 . S
C380 C377 1.424 . S
C380 C379 1.384 . S
C380 H398 0.928 . S
C381 C378 1.260 . S
C381 C379 1.479 . S
C382 C377 1.245 . S
C382 C378 1.477 . S
C382 H399 0.932 . S
C383 U366 2.882 . S
C383 C377 1.428 . S
C383 O386 1.301 . S
C383 O387 1.282 . S
O384 U366 2.441 . S
O384 C370 1.249 . S
O385 U366 2.420 . S
O385 C370 1.202 . S
O386 U366 2.455 . S
O386 C383 1.301 . S
O387 U366 2.449 . S
O387 C383 1.282 . S
H388 C361 0.931 . S
H389 C363 0.929 . S
H390 C364 0.930 . S
H391 C365 0.931 . S
H392 C372 0.932 . S
H393 C373 0.930 . S
H394 C374 0.929 . S
H395 C376 0.930 . S
H396 C378 0.932 . S
H397 C379 0.929 . S
H398 C380 0.928 . S
H399 C382 0.932 . S
C400 C401 1.264 . S
C400 C405 1.479 . S
C400 C410 1.465 . S
C401 C400 1.264 . S
C401 C403 1.339 . S
C401 H428 0.931 . S
C402 C403 1.395 . S
C402 C404 1.320 . S
C403 C401 1.339 . S
C403 C402 1.395 . S
C403 H429 0.929 . S
C404 C402 1.320 . S
C404 C405 1.405 . S
C404 H430 0.930 . S
C405 C400 1.479 . S
C405 C404 1.405 . S
C405 H431 0.931 . S
U406 O407 2.454 . S
U406 O408 2.458 . S
U406 C409 2.984 . S
U406 C410 2.847 . S
U406 C423 2.882 . S
U406 O424 2.441 . S
U406 O425 2.420 . S
U406 O426 2.455 . S
U406 O427 2.449 . S
O407 U406 2.454 . S
O407 C409 1.353 . S
O408 U406 2.458 . S
O408 C409 1.286 . S
C409 U406 2.984 . S
C409 O407 1.353 . S
C409 O408 1.286 . S
C409 C411 1.363 . S
C410 C400 1.465 . S
C410 U406 2.847 . S
C410 O424 1.249 . S
C410 O425 1.202 . S
C411 C409 1.363 . S
C411 C413 1.408 . S
C411 C416 1.342 . S
C412 C413 1.310 . S
C412 C415 1.461 . S
C412 H432 0.932 . S
C413 C411 1.408 . S
C413 C412 1.310 . S
C413 H433 0.930 . S
C414 C415 1.474 . S
C414 C416 1.285 . S
C414 H434 0.929 . S
C415 C412 1.461 . S
C415 C414 1.474 . S
C416 C411 1.342 . S
C416 C414 1.285 . S
C416 H435 0.930 . S
C417 C420 1.424 . S
C417 C422 1.245 . S
C417 C423 1.428 . S
C418 C421 1.260 . S
C418 C422 1.477 . S
C418 H436 0.932 . S
C419 C420 1.384 . S
C419 C421 1.479 . S
C419 H437 0.929 . S
C420 C417 1.424 . S
C420 C419 1.384 . S
C420 H438 0.928 . S
C421 C418 1.260 . S
C421 C419 1.479 . S
C422 C417 1.245 . S
C422 C418 1.477 . S
C422 H439 0.932 . S
C423 U406 2.882 . S
C423 C417 1.428 . S
C423 O426 1.301 . S
C423 O427 1.282 . S
O424 U406 2.441 . S
O424 C410 1.249 . S
O425 U406 2.420 . S
O425 C410 1.202 . S
O426 U406 2.455 . S
O426 C423 1.301 . S
O427 U406 2.449 . S
O427 C423 1.282 . S
H428 C401 0.931 . S
H429 C403 0.929 . S
H430 C404 0.930 . S
H431 C405 0.931 . S
H432 C412 0.932 . S
H433 C413 0.930 . S
H434 C414 0.929 . S
H435 C416 0.930 . S
H436 C418 0.932 . S
H437 C419 0.929 . S
H438 C420 0.928 . S
H439 C422 0.932 . S
C440 C441 1.264 . S
C440 C445 1.479 . S
C440 C450 1.465 . S
C441 C440 1.264 . S
C441 C443 1.339 . S
C441 H468 0.931 . S
C442 C443 1.395 . S
C442 C444 1.320 . S
C443 C441 1.339 . S
C443 C442 1.395 . S
C443 H469 0.929 . S
C444 C442 1.320 . S
C444 C445 1.405 . S
C444 H470 0.930 . S
C445 C440 1.479 . S
C445 C444 1.405 . S
C445 H471 0.931 . S
U446 O447 2.454 . S
U446 O448 2.458 . S
U446 C449 2.984 . S
U446 C450 2.847 . S
U446 C463 2.882 . S
U446 O464 2.441 . S
U446 O465 2.420 . S
U446 O466 2.455 . S
U446 O467 2.449 . S
O447 U446 2.454 . S
O447 C449 1.353 . S
O448 U446 2.458 . S
O448 C449 1.286 . S
C449 U446 2.984 . S
C449 O447 1.353 . S
C449 O448 1.286 . S
C449 C451 1.363 . S
C450 C440 1.465 . S
C450 U446 2.847 . S
C450 O464 1.249 . S
C450 O465 1.202 . S
C451 C449 1.363 . S
C451 C453 1.408 . S
C451 C456 1.342 . S
C452 C453 1.310 . S
C452 C455 1.461 . S
C452 H472 0.932 . S
C453 C451 1.408 . S
C453 C452 1.310 . S
C453 H473 0.930 . S
C454 C455 1.474 . S
C454 C456 1.285 . S
C454 H474 0.929 . S
C455 C452 1.461 . S
C455 C454 1.474 . S
C456 C451 1.342 . S
C456 C454 1.285 . S
C456 H475 0.930 . S
C457 C460 1.424 . S
C457 C462 1.245 . S
C457 C463 1.428 . S
C458 C461 1.260 . S
C458 C462 1.477 . S
C458 H476 0.932 . S
C459 C460 1.384 . S
C459 C461 1.479 . S
C459 H477 0.929 . S
C460 C457 1.424 . S
C460 C459 1.384 . S
C460 H478 0.928 . S
C461 C458 1.260 . S
C461 C459 1.479 . S
C462 C457 1.245 . S
C462 C458 1.477 . S
C462 H479 0.932 . S
C463 U446 2.882 . S
C463 C457 1.428 . S
C463 O466 1.301 . S
C463 O467 1.282 . S
O464 U446 2.441 . S
O464 C450 1.249 . S
O465 U446 2.420 . S
O465 C450 1.202 . S
O466 U446 2.455 . S
O466 C463 1.301 . S
O467 U446 2.449 . S
O467 C463 1.282 . S
H468 C441 0.931 . S
H469 C443 0.929 . S
H470 C444 0.930 . S
H471 C445 0.931 . S
H472 C452 0.932 . S
H473 C453 0.930 . S
H474 C454 0.929 . S
H475 C456 0.930 . S
H476 C458 0.932 . S
H477 C459 0.929 . S
H478 C460 0.928 . S
H479 C462 0.932 . S
C480 C481 1.264 . S
C480 C485 1.479 . S
C480 C490 1.465 . S
C481 C480 1.264 . S
C481 C483 1.339 . S
C481 H508 0.931 . S
C482 C483 1.395 . S
C482 C484 1.320 . S
C483 C481 1.339 . S
C483 C482 1.395 . S
C483 H509 0.929 . S
C484 C482 1.320 . S
C484 C485 1.405 . S
C484 H510 0.930 . S
C485 C480 1.479 . S
C485 C484 1.405 . S
C485 H511 0.931 . S
U486 O487 2.454 . S
U486 O488 2.458 . S
U486 C489 2.984 . S
U486 C490 2.847 . S
U486 C503 2.882 . S
U486 O504 2.441 . S
U486 O505 2.420 . S
U486 O506 2.455 . S
U486 O507 2.449 . S
O487 U486 2.454 . S
O487 C489 1.353 . S
O488 U486 2.458 . S
O488 C489 1.286 . S
C489 U486 2.984 . S
C489 O487 1.353 . S
C489 O488 1.286 . S
C489 C491 1.363 . S
C490 C480 1.465 . S
C490 U486 2.847 . S
C490 O504 1.249 . S
C490 O505 1.202 . S
C491 C489 1.363 . S
C491 C493 1.408 . S
C491 C496 1.342 . S
C492 C493 1.310 . S
C492 C495 1.461 . S
C492 H512 0.932 . S
C493 C491 1.408 . S
C493 C492 1.310 . S
C493 H513 0.930 . S
C494 C495 1.474 . S
C494 C496 1.285 . S
C494 H514 0.929 . S
C495 C492 1.461 . S
C495 C494 1.474 . S
C496 C491 1.342 . S
C496 C494 1.285 . S
C496 H515 0.930 . S
C497 C500 1.424 . S
C497 C502 1.245 . S
C497 C503 1.428 . S
C498 C501 1.260 . S
C498 C502 1.477 . S
C498 H516 0.932 . S
C499 C500 1.384 . S
C499 C501 1.479 . S
C499 H517 0.929 . S
C500 C497 1.424 . S
C500 C499 1.384 . S
C500 H518 0.928 . S
C501 C498 1.260 . S
C501 C499 1.479 . S
C502 C497 1.245 . S
C502 C498 1.477 . S
C502 H519 0.932 . S
C503 U486 2.882 . S
C503 C497 1.428 . S
C503 O506 1.301 . S
C503 O507 1.282 . S
O504 U486 2.441 . S
O504 C490 1.249 . S
O505 U486 2.420 . S
O505 C490 1.202 . S
O506 U486 2.455 . S
O506 C503 1.301 . S
O507 U486 2.449 . S
O507 C503 1.282 . S
H508 C481 0.931 . S
H509 C483 0.929 . S
H510 C484 0.930 . S
H511 C485 0.931 . S
H512 C492 0.932 . S
H513 C493 0.930 . S
H514 C494 0.929 . S
H515 C496 0.930 . S
H516 C498 0.932 . S
H517 C499 0.929 . S
H518 C500 0.928 . S
H519 C502 0.932 . S
C520 C521 1.264 . S
C520 C525 1.479 . S
C520 C530 1.465 . S
C521 C520 1.264 . S
C521 C523 1.339 . S
C521 H548 0.931 . S
C522 C523 1.395 . S
C522 C524 1.320 . S
C523 C521 1.339 . S
C523 C522 1.395 . S
C523 H549 0.929 . S
C524 C522 1.320 . S
C524 C525 1.405 . S
C524 H550 0.930 . S
C525 C520 1.479 . S
C525 C524 1.405 . S
C525 H551 0.931 . S
U526 O527 2.454 . S
U526 O528 2.458 . S
U526 C529 2.984 . S
U526 C530 2.847 . S
U526 C543 2.882 . S
U526 O544 2.441 . S
U526 O545 2.420 . S
U526 O546 2.455 . S
U526 O547 2.449 . S
O527 U526 2.454 . S
O527 C529 1.353 . S
O528 U526 2.458 . S
O528 C529 1.286 . S
C529 U526 2.984 . S
C529 O527 1.353 . S
C529 O528 1.286 . S
C529 C531 1.363 . S
C530 C520 1.465 . S
C530 U526 2.847 . S
C530 O544 1.249 . S
C530 O545 1.202 . S
C531 C529 1.363 . S
C531 C533 1.408 . S
C531 C536 1.342 . S
C532 C533 1.310 . S
C532 C535 1.461 . S
C532 H552 0.932 . S
C533 C531 1.408 . S
C533 C532 1.310 . S
C533 H553 0.930 . S
C534 C535 1.474 . S
C534 C536 1.285 . S
C534 H554 0.929 . S
C535 C532 1.461 . S
C535 C534 1.474 . S
C536 C531 1.342 . S
C536 C534 1.285 . S
C536 H555 0.930 . S
C537 C540 1.424 . S
C537 C542 1.245 . S
C537 C543 1.428 . S
C538 C541 1.260 . S
C538 C542 1.477 . S
C538 H556 0.932 . S
C539 C540 1.384 . S
C539 C541 1.479 . S
C539 H557 0.929 . S
C540 C537 1.424 . S
C540 C539 1.384 . S
C540 H558 0.928 . S
C541 C538 1.260 . S
C541 C539 1.479 . S
C542 C537 1.245 . S
C542 C538 1.477 . S
C542 H559 0.932 . S
C543 U526 2.882 . S
C543 C537 1.428 . S
C543 O546 1.301 . S
C543 O547 1.282 . S
O544 U526 2.441 . S
O544 C530 1.249 . S
O545 U526 2.420 . S
O545 C530 1.202 . S
O546 U526 2.455 . S
O546 C543 1.301 . S
O547 U526 2.449 . S
O547 C543 1.282 . S
H548 C521 0.931 . S
H549 C523 0.929 . S
H550 C524 0.930 . S
H551 C525 0.931 . S
H552 C532 0.932 . S
H553 C533 0.930 . S
H554 C534 0.929 . S
H555 C536 0.930 . S
H556 C538 0.932 . S
H557 C539 0.929 . S
H558 C540 0.928 . S
H559 C542 0.932 . S
C560 C561 1.264 . S
C560 C565 1.479 . S
C560 C570 1.465 . S
C561 C560 1.264 . S
C561 C563 1.339 . S
C561 H588 0.931 . S
C562 C563 1.395 . S
C562 C564 1.320 . S
C563 C561 1.339 . S
C563 C562 1.395 . S
C563 H589 0.929 . S
C564 C562 1.320 . S
C564 C565 1.405 . S
C564 H590 0.930 . S
C565 C560 1.479 . S
C565 C564 1.405 . S
C565 H591 0.931 1_455 S
U566 O567 2.454 1_455 S
U566 O568 2.458 1_455 S
U566 C569 2.984 1_455 S
U566 C570 2.847 . S
U566 C583 2.882 . S
U566 O584 2.441 1_455 S
U566 O585 2.420 . S
U566 O586 2.455 . S
U566 O587 2.449 . S
O567 U566 2.454 1_655 S
O567 C569 1.353 . S
O568 U566 2.458 1_655 S
O568 C569 1.286 . S
C569 U566 2.984 1_655 S
C569 O567 1.353 . S
C569 O568 1.286 . S
C569 C571 1.363 . S
C570 C560 1.465 . S
C570 U566 2.847 . S
C570 O584 1.249 1_455 S
C570 O585 1.202 . S
C571 C569 1.363 . S
C571 C573 1.408 . S
C571 C576 1.342 . S
C572 C573 1.310 . S
C572 C575 1.461 . S
C572 H592 0.932 . S
C573 C571 1.408 . S
C573 C572 1.310 . S
C573 H593 0.930 . S
C574 C575 1.474 . S
C574 C576 1.285 . S
C574 H594 0.929 . S
C575 C572 1.461 . S
C575 C574 1.474 . S
C576 C571 1.342 . S
C576 C574 1.285 . S
C576 H595 0.930 . S
C577 C580 1.424 . S
C577 C582 1.245 . S
C577 C583 1.428 . S
C578 C581 1.260 . S
C578 C582 1.477 . S
C578 H596 0.932 . S
C579 C580 1.384 . S
C579 C581 1.479 . S
C579 H597 0.929 . S
C580 C577 1.424 . S
C580 C579 1.384 . S
C580 H598 0.928 . S
C581 C578 1.260 . S
C581 C579 1.479 . S
C582 C577 1.245 . S
C582 C578 1.477 . S
C582 H599 0.932 . S
C583 U566 2.882 . S
C583 C577 1.428 . S
C583 O586 1.301 . S
C583 O587 1.282 . S
O584 U566 2.441 1_655 S
O584 C570 1.249 1_655 S
O585 U566 2.420 . S
O585 C570 1.202 . S
O586 U566 2.455 . S
O586 C583 1.301 . S
O587 U566 2.449 . S
O587 C583 1.282 . S
H588 C561 0.931 . S
H589 C563 0.929 . S
H590 C564 0.930 . S
H591 C565 0.931 1_655 S
H592 C572 0.932 . S
H593 C573 0.930 . S
H594 C574 0.929 . S
H595 C576 0.930 . S
H596 C578 0.932 . S
H597 C579 0.929 . S
H598 C580 0.928 . S
H599 C582 0.932 . S
C600 C601 1.264 . S
C600 C605 1.479 . S
C600 C610 1.465 . S
C601 C600 1.264 . S
C601 C603 1.339 . S
C601 H628 0.931 . S
C602 C603 1.395 . S
C602 C604 1.320 . S
C603 C601 1.339 . S
C603 C602 1.395 . S
C603 H629 0.929 . S
C604 C602 1.320 . S
C604 C605 1.405 . S
C604 H630 0.930 . S
C605 C600 1.479 . S
C605 C604 1.405 . S
C605 H631 0.931 . S
U606 O607 2.414 1_455 S
U606 O608 2.419 1_455 S
U606 C609 2.940 1_455 S
U606 C610 2.869 . S
U606 C623 2.905 . S
U606 O624 2.444 . S
U606 O625 2.456 . S
U606 O626 2.458 1_455 S
U606 O627 2.486 . S
O607 U606 2.414 1_655 S
O607 C609 1.353 . S
O608 U606 2.419 1_655 S
O608 C609 1.286 . S
C609 U606 2.940 1_655 S
C609 O607 1.353 . S
C609 O608 1.286 . S
C609 C611 1.363 . S
C610 C600 1.465 . S
C610 U606 2.869 . S
C610 O624 1.249 . S
C610 O625 1.202 . S
C611 C609 1.363 . S
C611 C613 1.408 . S
C611 C616 1.342 . S
C612 C613 1.310 . S
C612 C615 1.461 . S
C612 H632 0.932 . S
C613 C611 1.408 . S
C613 C612 1.310 . S
C613 H633 0.930 . S
C614 C615 1.474 . S
C614 C616 1.285 . S
C614 H634 0.929 . S
C615 C612 1.461 . S
C615 C614 1.474 . S
C616 C611 1.342 . S
C616 C614 1.285 . S
C616 H635 0.930 . S
C617 C620 1.424 . S
C617 C622 1.245 . S
C617 C623 1.428 . S
C618 C621 1.260 . S
C618 C622 1.477 . S
C618 H636 0.932 . S
C619 C620 1.384 . S
C619 C621 1.479 . S
C619 H637 0.929 . S
C620 C617 1.424 . S
C620 C619 1.384 . S
C620 H638 0.928 . S
C621 C618 1.260 . S
C621 C619 1.479 . S
C622 C617 1.245 . S
C622 C618 1.477 . S
C622 H639 0.932 1_455 S
C623 U606 2.905 . S
C623 C617 1.428 . S
C623 O626 1.301 1_455 S
C623 O627 1.282 . S
O624 U606 2.444 . S
O624 C610 1.249 . S
O625 U606 2.456 . S
O625 C610 1.202 . S
O626 U606 2.458 1_655 S
O626 C623 1.301 1_655 S
O627 U606 2.486 . S
O627 C623 1.282 . S
H628 C601 0.931 . S
H629 C603 0.929 . S
H630 C604 0.930 . S
H631 C605 0.931 . S
H632 C612 0.932 . S
H633 C613 0.930 . S
H634 C614 0.929 . S
H635 C616 0.930 . S
H636 C618 0.932 . S
H637 C619 0.929 . S
H638 C620 0.928 . S
H639 C622 0.932 1_655 S
C640 C641 1.264 . S
C640 C645 1.479 . S
C640 C650 1.465 . S
C641 C640 1.264 . S
C641 C643 1.339 . S
C641 H668 0.931 . S
C642 C643 1.395 . S
C642 C644 1.320 . S
C643 C641 1.339 . S
C643 C642 1.395 . S
C643 H669 0.929 . S
C644 C642 1.320 . S
C644 C645 1.405 . S
C644 H670 0.930 . S
C645 C640 1.479 . S
C645 C644 1.405 . S
C645 H671 0.931 . S
U646 O647 2.454 . S
U646 O648 2.458 . S
U646 C649 2.984 . S
U646 C650 2.847 . S
U646 C663 2.882 . S
U646 O664 2.441 . S
U646 O665 2.420 . S
U646 O666 2.455 . S
U646 O667 2.449 . S
O647 U646 2.454 . S
O647 C649 1.353 . S
O648 U646 2.458 . S
O648 C649 1.286 . S
C649 U646 2.984 . S
C649 O647 1.353 . S
C649 O648 1.286 . S
C649 C651 1.363 . S
C650 C640 1.465 . S
C650 U646 2.847 . S
C650 O664 1.249 . S
C650 O665 1.202 . S
C651 C649 1.363 . S
C651 C653 1.408 . S
C651 C656 1.342 . S
C652 C653 1.310 . S
C652 C655 1.461 . S
C652 H672 0.932 . S
C653 C651 1.408 . S
C653 C652 1.310 . S
C653 H673 0.930 . S
C654 C655 1.474 . S
C654 C656 1.285 . S
C654 H674 0.929 . S
C655 C652 1.461 . S
C655 C654 1.474 . S
C656 C651 1.342 . S
C656 C654 1.285 . S
C656 H675 0.930 . S
C657 C660 1.424 . S
C657 C662 1.245 . S
C657 C663 1.428 . S
C658 C661 1.260 . S
C658 C662 1.477 . S
C658 H676 0.932 . S
C659 C660 1.384 . S
C659 C661 1.479 . S
C659 H677 0.929 . S
C660 C657 1.424 . S
C660 C659 1.384 . S
C660 H678 0.928 . S
C661 C658 1.260 . S
C661 C659 1.479 . S
C662 C657 1.245 . S
C662 C658 1.477 . S
C662 H679 0.932 . S
C663 U646 2.882 . S
C663 C657 1.428 . S
C663 O666 1.301 . S
C663 O667 1.282 . S
O664 U646 2.441 . S
O664 C650 1.249 . S
O665 U646 2.420 . S
O665 C650 1.202 . S
O666 U646 2.455 . S
O666 C663 1.301 . S
O667 U646 2.449 . S
O667 C663 1.282 . S
H668 C641 0.931 . S
H669 C643 0.929 . S
H670 C644 0.930 . S
H671 C645 0.931 . S
H672 C652 0.932 . S
H673 C653 0.930 . S
H674 C654 0.929 . S
H675 C656 0.930 . S
H676 C658 0.932 . S
H677 C659 0.929 . S
H678 C660 0.928 . S
H679 C662 0.932 . S
C680 C681 1.264 . S
C680 C685 1.479 . S
C680 C690 1.465 . S
C681 C680 1.264 . S
C681 C683 1.339 . S
C681 H708 0.931 . S
C682 C683 1.395 . S
C682 C684 1.320 . S
C683 C681 1.339 . S
C683 C682 1.395 . S
C683 H709 0.929 . S
C684 C682 1.320 . S
C684 C685 1.405 . S
C684 H710 0.930 . S
C685 C680 1.479 . S
C685 C684 1.405 . S
C685 H711 0.931 . S
U686 O687 2.454 . S
U686 O688 2.458 . S
U686 C689 2.984 . S
U686 C690 2.847 . S
U686 C703 2.882 . S
U686 O704 2.441 . S
U686 O705 2.420 . S
U686 O706 2.455 . S
U686 O707 2.449 . S
O687 U686 2.454 . S
O687 C689 1.353 . S
O688 U686 2.458 . S
O688 C689 1.286 . S
C689 U686 2.984 . S
C689 O687 1.353 . S
C689 O688 1.286 . S
C689 C691 1.363 . S
C690 C680 1.465 . S
C690 U686 2.847 . S
C690 O704 1.249 . S
C690 O705 1.202 . S
C691 C689 1.363 . S
C691 C693 1.408 . S
C691 C696 1.342 . S
C692 C693 1.310 . S
C692 C695 1.461 . S
C692 H712 0.932 . S
C693 C691 1.408 . S
C693 C692 1.310 . S
C693 H713 0.930 . S
C694 C695 1.474 . S
C694 C696 1.285 . S
C694 H714 0.929 . S
C695 C692 1.461 . S
C695 C694 1.474 . S
C696 C691 1.342 . S
C696 C694 1.285 . S
C696 H715 0.930 . S
C697 C700 1.424 . S
C697 C702 1.245 . S
C697 C703 1.428 . S
C698 C701 1.260 . S
C698 C702 1.477 . S
C698 H716 0.932 . S
C699 C700 1.384 . S
C699 C701 1.479 . S
C699 H717 0.929 . S
C700 C697 1.424 . S
C700 C699 1.384 . S
C700 H718 0.928 . S
C701 C698 1.260 . S
C701 C699 1.479 . S
C702 C697 1.245 . S
C702 C698 1.477 . S
C702 H719 0.932 . S
C703 U686 2.882 . S
C703 C697 1.428 . S
C703 O706 1.301 . S
C703 O707 1.282 . S
O704 U686 2.441 . S
O704 C690 1.249 . S
O705 U686 2.420 . S
O705 C690 1.202 . S
O706 U686 2.455 . S
O706 C703 1.301 . S
O707 U686 2.449 . S
O707 C703 1.282 . S
H708 C681 0.931 . S
H709 C683 0.929 . S
H710 C684 0.930 . S
H711 C685 0.931 . S
H712 C692 0.932 . S
H713 C693 0.930 . S
H714 C694 0.929 . S
H715 C696 0.930 . S
H716 C698 0.932 . S
H717 C699 0.929 . S
H718 C700 0.928 . S
H719 C702 0.932 . S
H720 C738 0.951 . S
H721 C740 0.951 . S
H722 C742 0.950 . S
H723 C743 0.950 . S
H724 C745 0.950 . S
H725 C748 0.950 . S
H726 C749 0.950 . S
H727 C751 0.950 . S
H728 C752 0.950 . S
H729 C753 0.951 . S
H730 C755 0.951 . S
H731 C757 0.950 1_556 S
H732 C758 0.950 1_556 S
H733 C760 0.950 . S
H734 C763 0.970 . S
H735 C764 0.950 . S
H736 C766 0.950 . S
H737 C767 0.950 . S
C738 H720 0.951 . S
C738 C739 1.366 1_556 S
C738 C740 1.388 . S
C739 C738 1.366 1_554 S
C739 C743 1.385 . S
C740 H721 0.951 . S
C740 C738 1.388 . S
C740 C741 1.366 1_556 S
C741 C740 1.366 1_554 S
C741 C742 1.414 . S
C741 C744 1.499 . S
C742 H722 0.950 . S
C742 C741 1.414 . S
C742 C743 1.374 . S
C743 H723 0.950 . S
C743 C739 1.385 . S
C743 C742 1.374 . S
C744 C741 1.499 . S
C744 C745 1.373 . S
C744 C746 1.389 1_554 S
C745 H724 0.950 . S
C745 C744 1.373 . S
C745 C761 1.377 . S
C746 C744 1.389 1_556 S
C746 C747 1.524 . S
C746 C760 1.377 . S
C747 C746 1.524 . S
C747 C748 1.397 . S
C747 C752 1.363 . S
C748 H725 0.950 . S
C748 C747 1.397 . S
C748 C749 1.334 . S
C749 H726 0.950 . S
C749 C748 1.334 . S
C749 C750 1.287 . S
C750 C749 1.287 . S
C750 C751 1.524 . S
C750 H769 0.913 . S
C751 H727 0.950 . S
C751 C750 1.524 . S
C751 C752 1.415 . S
C752 H728 0.950 . S
C752 C747 1.363 . S
C752 C751 1.415 . S
C753 H729 0.951 . S
C753 C754 1.366 . S
C753 C755 1.388 . S
C754 C753 1.366 . S
C754 C758 1.385 . S
C755 H730 0.951 . S
C755 C753 1.388 . S
C755 C756 1.366 . S
C756 C755 1.366 . S
C756 C757 1.414 . S
C756 C759 1.499 . S
C757 H731 0.950 1_554 S
C757 C756 1.414 . S
C757 C758 1.374 . S
C758 H732 0.950 1_554 S
C758 C754 1.385 . S
C758 C757 1.374 . S
C759 C756 1.499 . S
C759 C760 1.373 1_554 S
C759 C761 1.389 . S
C760 H733 0.950 . S
C760 C746 1.377 . S
C760 C759 1.373 1_556 S
C761 C745 1.377 . S
C761 C759 1.389 . S
C761 C762 1.524 . S
C762 C761 1.524 . S
C762 C763 1.397 . S
C762 C767 1.363 . S
C763 H734 0.970 . S
C763 C762 1.397 . S
C763 C764 1.334 1_545 S
C764 H735 0.950 . S
C764 C763 1.334 1_565 S
C764 C765 1.287 1_565 S
C765 C764 1.287 1_545 S
C765 C766 1.524 . S
C765 H768 0.995 1_545 S
C766 H736 0.950 . S
C766 C765 1.524 . S
C766 C767 1.415 . S
C767 H737 0.950 . S
C767 C762 1.363 . S
C767 C766 1.415 . S
H768 C765 0.995 1_565 S
H769 C750 0.913 . S
H770 C788 0.951 . S
H771 C790 0.951 . S
H772 C792 0.950 1_556 S
H773 C793 0.950 1_556 S
H774 C795 0.950 . S
H775 C798 0.950 . S
H776 C799 0.950 . S
H777 C801 0.950 . S
H778 C802 0.950 . S
H779 C803 0.923 1_556 S
H780 C805 0.925 1_556 S
H781 C807 0.950 . S
H782 C808 0.950 . S
H783 C810 0.950 . S
H784 C813 0.950 . S
H785 C814 0.950 . S
H786 C816 0.950 . S
H787 C817 0.950 . S
C788 H770 0.951 . S
C788 C789 1.366 . S
C788 C790 1.388 . S
C789 C788 1.366 . S
C789 C793 1.385 . S
C790 H771 0.951 . S
C790 C788 1.388 . S
C790 C791 1.366 . S
C791 C790 1.366 . S
C791 C792 1.414 . S
C791 C794 1.499 . S
C792 H772 0.950 1_554 S
C792 C791 1.414 . S
C792 C793 1.374 . S
C793 H773 0.950 1_554 S
C793 C789 1.385 . S
C793 C792 1.374 . S
C794 C791 1.499 . S
C794 C795 1.373 1_554 S
C794 C796 1.389 . S
C795 H774 0.950 . S
C795 C794 1.373 1_556 S
C795 C811 1.377 . S
C796 C794 1.389 . S
C796 C797 1.524 . S
C796 C810 1.377 . S
C797 C796 1.524 . S
C797 C798 1.397 . S
C797 C802 1.363 . S
C798 H775 0.950 . S
C798 C797 1.397 . S
C798 C799 1.334 . S
C799 H776 0.950 . S
C799 C798 1.334 . S
C799 C800 1.287 . S
C800 C799 1.287 . S
C800 C801 1.524 . S
C800 H819 0.913 . S
C801 H777 0.950 . S
C801 C800 1.524 . S
C801 C802 1.415 . S
C802 H778 0.950 . S
C802 C797 1.363 . S
C802 C801 1.415 . S
C803 H779 0.923 1_554 S
C803 C804 1.395 . S
C803 C805 1.388 . S
C804 C803 1.395 . S
C804 C808 1.385 . S
C805 H780 0.925 1_554 S
C805 C803 1.388 . S
C805 C806 1.391 . S
C806 C805 1.391 . S
C806 C807 1.414 . S
C806 C809 1.499 . S
C807 H781 0.950 . S
C807 C806 1.414 . S
C807 C808 1.374 . S
C808 H782 0.950 . S
C808 C804 1.385 . S
C808 C807 1.374 . S
C809 C806 1.499 . S
C809 C810 1.373 . S
C809 C811 1.389 1_554 S
C810 H783 0.950 . S
C810 C796 1.377 . S
C810 C809 1.373 . S
C811 C795 1.377 . S
C811 C809 1.389 1_556 S
C811 C812 1.524 . S
C812 C811 1.524 . S
C812 C813 1.397 . S
C812 C817 1.363 . S
C813 H784 0.950 . S
C813 C812 1.397 . S
C813 C814 1.334 . S
C814 H785 0.950 . S
C814 C813 1.334 . S
C814 C815 1.287 . S
C815 C814 1.287 . S
C815 C816 1.524 . S
C815 H818 0.999 . S
C816 H786 0.950 . S
C816 C815 1.524 . S
C816 C817 1.415 . S
C817 H787 0.950 . S
C817 C812 1.363 . S
C817 C816 1.415 . S
H818 C815 0.999 . S
H819 C800 0.913 . S
H820 C838 0.951 . S
H821 C840 0.951 . S
H822 C842 0.950 . S
H823 C843 0.950 . S
H824 C845 0.950 . S
H825 C848 0.950 . S
H826 C849 0.950 . S
H827 C851 0.950 . S
H828 C852 0.950 . S
H829 C853 0.951 . S
H830 C855 0.951 . S
H831 C857 0.950 . S
H832 C858 0.950 . S
H833 C860 0.950 1_556 S
H834 C863 0.950 . S
H835 C864 0.950 . S
H836 C866 0.950 . S
H837 C867 0.950 . S
C838 H820 0.951 . S
C838 C839 1.366 . S
C838 C840 1.388 . S
C839 C838 1.366 . S
C839 C843 1.385 . S
C840 H821 0.951 . S
C840 C838 1.388 . S
C840 C841 1.366 . S
C841 C840 1.366 . S
C841 C842 1.414 . S
C841 C844 1.499 . S
C842 H822 0.950 . S
C842 C841 1.414 . S
C842 C843 1.374 . S
C843 H823 0.950 . S
C843 C839 1.385 . S
C843 C842 1.374 . S
C844 C841 1.499 . S
C844 C845 1.373 . S
C844 C846 1.409 . S
C845 H824 0.950 . S
C845 C844 1.373 . S
C845 C861 1.377 . S
C846 C844 1.409 . S
C846 C847 1.500 1_554 S
C846 C860 1.379 . S
C847 C846 1.500 1_556 S
C847 C848 1.397 . S
C847 C852 1.363 . S
C848 H825 0.950 . S
C848 C847 1.397 . S
C848 C849 1.334 . S
C849 H826 0.950 . S
C849 C848 1.334 . S
C849 C850 1.287 . S
C850 C849 1.287 . S
C850 C851 1.524 . S
C850 H869 0.913 . S
C851 H827 0.950 . S
C851 C850 1.524 . S
C851 C852 1.415 . S
C852 H828 0.950 . S
C852 C847 1.363 . S
C852 C851 1.415 . S
C853 H829 0.951 . S
C853 C854 1.366 . S
C853 C855 1.388 . S
C854 C853 1.366 . S
C854 C858 1.385 . S
C855 H830 0.951 . S
C855 C853 1.388 . S
C855 C856 1.366 . S
C856 C855 1.366 . S
C856 C857 1.414 . S
C856 C859 1.499 . S
C857 H831 0.950 . S
C857 C856 1.414 . S
C857 C858 1.374 . S
C858 H832 0.950 . S
C858 C854 1.385 . S
C858 C857 1.374 . S
C859 C856 1.499 . S
C859 C860 1.373 . S
C859 C861 1.389 . S
C860 H833 0.950 1_554 S
C860 C846 1.379 . S
C860 C859 1.373 . S
C861 C845 1.377 . S
C861 C859 1.389 . S
C861 C862 1.524 . S
C862 C861 1.524 . S
C862 C863 1.397 . S
C862 C867 1.363 . S
C863 H834 0.950 . S
C863 C862 1.397 . S
C863 C864 1.334 . S
C864 H835 0.950 . S
C864 C863 1.334 . S
C864 C865 1.287 . S
C865 C864 1.287 . S
C865 C866 1.524 . S
C865 H868 0.999 . S
C866 H836 0.950 . S
C866 C865 1.524 . S
C866 C867 1.415 . S
C867 H837 0.950 . S
C867 C862 1.363 . S
C867 C866 1.415 . S
H868 C865 0.999 . S
H869 C850 0.913 . S
H870 C888 0.951 . S
H871 C890 0.951 . S
H872 C892 0.950 . S
H873 C893 0.950 . S
H874 C895 0.950 . S
H875 C898 0.950 . S
H876 C899 0.950 . S
H877 C901 0.950 . S
H878 C902 0.950 . S
H879 C903 0.951 . S
H880 C905 0.951 . S
H881 C907 0.950 . S
H882 C908 0.950 . S
H883 C910 0.950 . S
H884 C913 0.950 . S
H885 C914 0.950 . S
H886 C916 0.950 . S
H887 C917 0.950 . S
C888 H870 0.951 . S
C888 C889 1.366 . S
C888 C890 1.388 . S
C889 C888 1.366 . S
C889 C893 1.385 . S
C890 H871 0.951 . S
C890 C888 1.388 . S
C890 C891 1.366 . S
C891 C890 1.366 . S
C891 C892 1.414 . S
C891 C894 1.499 . S
C892 H872 0.950 . S
C892 C891 1.414 . S
C892 C893 1.374 . S
C893 H873 0.950 . S
C893 C889 1.385 . S
C893 C892 1.374 . S
C894 C891 1.499 . S
C894 C895 1.373 . S
C894 C896 1.389 . S
C895 H874 0.950 . S
C895 C894 1.373 . S
C895 C911 1.377 . S
C896 C894 1.389 . S
C896 C897 1.524 . S
C896 C910 1.377 . S
C897 C896 1.524 . S
C897 C898 1.397 . S
C897 C902 1.363 . S
C898 H875 0.950 . S
C898 C897 1.397 . S
C898 C899 1.334 . S
C899 H876 0.950 . S
C899 C898 1.334 . S
C899 C900 1.287 . S
C900 C899 1.287 . S
C900 C901 1.524 . S
C900 H919 0.913 . S
C901 H877 0.950 . S
C901 C900 1.524 . S
C901 C902 1.415 . S
C902 H878 0.950 . S
C902 C897 1.363 . S
C902 C901 1.415 . S
C903 H879 0.951 . S
C903 C904 1.366 . S
C903 C905 1.388 . S
C904 C903 1.366 . S
C904 C908 1.385 . S
C905 H880 0.951 . S
C905 C903 1.388 . S
C905 C906 1.366 . S
C906 C905 1.366 . S
C906 C907 1.414 . S
C906 C909 1.499 . S
C907 H881 0.950 . S
C907 C906 1.414 . S
C907 C908 1.374 . S
C908 H882 0.950 . S
C908 C904 1.385 . S
C908 C907 1.374 . S
C909 C906 1.499 . S
C909 C910 1.373 . S
C909 C911 1.389 . S
C910 H883 0.950 . S
C910 C896 1.377 . S
C910 C909 1.373 . S
C911 C895 1.377 . S
C911 C909 1.389 . S
C911 C912 1.524 . S
C912 C911 1.524 . S
C912 C913 1.397 . S
C912 C917 1.363 . S
C913 H884 0.950 . S
C913 C912 1.397 . S
C913 C914 1.334 . S
C914 H885 0.950 . S
C914 C913 1.334 . S
C914 C915 1.287 . S
C915 C914 1.287 . S
C915 C916 1.524 . S
C915 H918 0.999 . S
C916 H886 0.950 . S
C916 C915 1.524 . S
C916 C917 1.415 . S
C917 H887 0.950 . S
C917 C912 1.363 . S
C917 C916 1.415 . S
H918 C915 0.999 . S
H919 C900 0.913 . S
H920 C938 0.951 . S
H921 C940 0.951 . S
H922 C942 0.950 . S
H923 C943 0.950 . S
H924 C945 0.950 . S
H925 C948 0.950 . S
H926 C949 0.950 . S
H927 C951 0.950 . S
H928 C952 0.950 . S
H929 C953 0.951 . S
H930 C955 0.951 . S
H931 C957 0.950 . S
H932 C958 0.950 . S
H933 C960 0.950 . S
H934 C963 0.950 . S
H935 C964 0.950 . S
H936 C966 0.950 . S
H937 C967 0.950 . S
C938 H920 0.951 . S
C938 C939 1.366 . S
C938 C940 1.388 . S
C939 C938 1.366 . S
C939 C943 1.385 . S
C940 H921 0.951 . S
C940 C938 1.388 . S
C940 C941 1.366 . S
C941 C940 1.366 . S
C941 C942 1.414 . S
C941 C944 1.499 . S
C942 H922 0.950 . S
C942 C941 1.414 . S
C942 C943 1.374 . S
C943 H923 0.950 . S
C943 C939 1.385 . S
C943 C942 1.374 . S
C944 C941 1.499 . S
C944 C945 1.373 . S
C944 C946 1.389 . S
C945 H924 0.950 . S
C945 C944 1.373 . S
C945 C961 1.377 . S
C946 C944 1.389 . S
C946 C947 1.524 . S
C946 C960 1.377 . S
C947 C946 1.524 . S
C947 C948 1.397 . S
C947 C952 1.363 . S
C948 H925 0.950 . S
C948 C947 1.397 . S
C948 C949 1.334 . S
C949 H926 0.950 . S
C949 C948 1.334 . S
C949 C950 1.287 . S
C950 C949 1.287 . S
C950 C951 1.524 . S
C950 H969 0.913 . S
C951 H927 0.950 . S
C951 C950 1.524 . S
C951 C952 1.415 . S
C952 H928 0.950 . S
C952 C947 1.363 . S
C952 C951 1.415 . S
C953 H929 0.951 . S
C953 C954 1.366 . S
C953 C955 1.388 . S
C954 C953 1.366 . S
C954 C958 1.385 . S
C955 H930 0.951 . S
C955 C953 1.388 . S
C955 C956 1.366 . S
C956 C955 1.366 . S
C956 C957 1.414 . S
C956 C959 1.499 . S
C957 H931 0.950 . S
C957 C956 1.414 . S
C957 C958 1.374 . S
C958 H932 0.950 . S
C958 C954 1.385 . S
C958 C957 1.374 . S
C959 C956 1.499 . S
C959 C960 1.373 . S
C959 C961 1.389 . S
C960 H933 0.950 . S
C960 C946 1.377 . S
C960 C959 1.373 . S
C961 C945 1.377 . S
C961 C959 1.389 . S
C961 C962 1.524 . S
C962 C961 1.524 . S
C962 C963 1.397 . S
C962 C967 1.363 . S
C963 H934 0.950 . S
C963 C962 1.397 . S
C963 C964 1.334 . S
C964 H935 0.950 . S
C964 C963 1.334 . S
C964 C965 1.287 . S
C965 C964 1.287 . S
C965 C966 1.524 . S
C965 H968 0.999 . S
C966 H936 0.950 . S
C966 C965 1.524 . S
C966 C967 1.415 . S
C967 H937 0.950 . S
C967 C962 1.363 . S
C967 C966 1.415 . S
H968 C965 0.999 . S
H969 C950 0.913 . S
H970 C988 0.951 . S
H971 C990 0.951 . S
H972 C992 0.950 . S
H973 C993 0.950 . S
H974 C995 0.950 . S
H975 C998 0.950 . S
H976 C999 0.950 . S
H977 C1001 0.950 . S
H978 C1002 0.950 . S
H979 C1003 0.951 . S
H980 C1005 0.951 . S
H981 C1007 0.950 . S
H982 C1008 0.950 . S
H983 C1010 0.950 . S
H984 C1013 0.950 . S
H985 C1014 0.950 . S
H986 C1016 0.950 . S
H987 C1017 0.950 . S
C988 H970 0.951 . S
C988 C989 1.366 . S
C988 C990 1.388 . S
C989 C988 1.366 . S
C989 C993 1.385 . S
C990 H971 0.951 . S
C990 C988 1.388 . S
C990 C991 1.366 . S
C991 C990 1.366 . S
C991 C992 1.414 . S
C991 C994 1.499 . S
C992 H972 0.950 . S
C992 C991 1.414 . S
C992 C993 1.374 . S
C993 H973 0.950 . S
C993 C989 1.385 . S
C993 C992 1.374 . S
C994 C991 1.499 . S
C994 C995 1.373 . S
C994 C996 1.389 . S
C995 H974 0.950 . S
C995 C994 1.373 . S
C995 C1011 1.377 . S
C996 C994 1.389 . S
C996 C997 1.524 . S
C996 C1010 1.377 . S
C997 C996 1.524 . S
C997 C998 1.397 . S
C997 C1002 1.363 . S
C998 H975 0.950 . S
C998 C997 1.397 . S
C998 C999 1.334 . S
C999 H976 0.950 . S
C999 C998 1.334 . S
C999 C1000 1.287 . S
C1000 C999 1.287 . S
C1000 C1001 1.524 . S
C1000 H1019 0.913 . S
C1001 H977 0.950 . S
C1001 C1000 1.524 . S
C1001 C1002 1.415 . S
C1002 H978 0.950 . S
C1002 C997 1.363 . S
C1002 C1001 1.415 . S
C1003 H979 0.951 . S
C1003 C1004 1.366 . S
C1003 C1005 1.388 . S
C1004 C1003 1.366 . S
C1004 C1008 1.385 . S
C1005 H980 0.951 . S
C1005 C1003 1.388 . S
C1005 C1006 1.366 . S
C1006 C1005 1.366 . S
C1006 C1007 1.414 . S
C1006 C1009 1.499 . S
C1007 H981 0.950 . S
C1007 C1006 1.414 . S
C1007 C1008 1.374 . S
C1008 H982 0.950 . S
C1008 C1004 1.385 . S
C1008 C1007 1.374 . S
C1009 C1006 1.499 . S
C1009 C1010 1.373 . S
C1009 C1011 1.389 . S
C1010 H983 0.950 . S
C1010 C996 1.377 . S
C1010 C1009 1.373 . S
C1011 C995 1.377 . S
C1011 C1009 1.389 . S
C1011 C1012 1.524 . S
C1012 C1011 1.524 . S
C1012 C1013 1.397 . S
C1012 C1017 1.363 . S
C1013 H984 0.950 . S
C1013 C1012 1.397 . S
C1013 C1014 1.334 . S
C1014 H985 0.950 . S
C1014 C1013 1.334 . S
C1014 C1015 1.287 . S
C1015 C1014 1.287 . S
C1015 C1016 1.524 . S
C1015 H1018 0.999 . S
C1016 H986 0.950 . S
C1016 C1015 1.524 . S
C1016 C1017 1.415 . S
C1017 H987 0.950 . S
C1017 C1012 1.363 . S
C1017 C1016 1.415 . S
H1018 C1015 0.999 . S
H1019 C1000 0.913 . S
H1020 C1038 0.951 . S
H1021 C1040 0.951 . S
H1022 C1042 0.950 . S
H1023 C1043 0.950 . S
H1024 C1045 0.950 . S
H1025 C1048 0.950 . S
H1026 C1049 0.950 . S
H1027 C1051 0.950 . S
H1028 C1052 0.950 . S
H1029 C1053 0.951 . S
H1030 C1055 0.951 . S
H1031 C1057 0.950 . S
H1032 C1058 0.950 . S
H1033 C1060 0.950 . S
H1034 C1063 0.950 . S
H1035 C1064 0.950 . S
H1036 C1066 0.950 . S
H1037 C1067 0.950 . S
C1038 H1020 0.951 . S
C1038 C1039 1.366 . S
C1038 C1040 1.388 . S
C1039 C1038 1.366 . S
C1039 C1043 1.385 . S
C1040 H1021 0.951 . S
C1040 C1038 1.388 . S
C1040 C1041 1.366 . S
C1041 C1040 1.366 . S
C1041 C1042 1.414 . S
C1041 C1044 1.499 . S
C1042 H1022 0.950 . S
C1042 C1041 1.414 . S
C1042 C1043 1.374 . S
C1043 H1023 0.950 . S
C1043 C1039 1.385 . S
C1043 C1042 1.374 . S
C1044 C1041 1.499 . S
C1044 C1045 1.373 . S
C1044 C1046 1.389 . S
C1045 H1024 0.950 . S
C1045 C1044 1.373 . S
C1045 C1061 1.377 . S
C1046 C1044 1.389 . S
C1046 C1047 1.524 . S
C1046 C1060 1.377 . S
C1047 C1046 1.524 . S
C1047 C1048 1.397 . S
C1047 C1052 1.363 . S
C1048 H1025 0.950 . S
C1048 C1047 1.397 . S
C1048 C1049 1.334 . S
C1049 H1026 0.950 . S
C1049 C1048 1.334 . S
C1049 C1050 1.287 . S
C1050 C1049 1.287 . S
C1050 C1051 1.524 . S
C1050 H1069 0.913 . S
C1051 H1027 0.950 . S
C1051 C1050 1.524 . S
C1051 C1052 1.415 . S
C1052 H1028 0.950 . S
C1052 C1047 1.363 . S
C1052 C1051 1.415 . S
C1053 H1029 0.951 . S
C1053 C1054 1.366 . S
C1053 C1055 1.388 . S
C1054 C1053 1.366 . S
C1054 C1058 1.385 . S
C1055 H1030 0.951 . S
C1055 C1053 1.388 . S
C1055 C1056 1.366 . S
C1056 C1055 1.366 . S
C1056 C1057 1.414 . S
C1056 C1059 1.499 . S
C1057 H1031 0.950 . S
C1057 C1056 1.414 . S
C1057 C1058 1.374 . S
C1058 H1032 0.950 . S
C1058 C1054 1.385 . S
C1058 C1057 1.374 . S
C1059 C1056 1.499 . S
C1059 C1060 1.373 . S
C1059 C1061 1.389 . S
C1060 H1033 0.950 . S
C1060 C1046 1.377 . S
C1060 C1059 1.373 . S
C1061 C1045 1.377 . S
C1061 C1059 1.389 . S
C1061 C1062 1.524 . S
C1062 C1061 1.524 . S
C1062 C1063 1.397 . S
C1062 C1067 1.363 . S
C1063 H1034 0.950 . S
C1063 C1062 1.397 . S
C1063 C1064 1.334 . S
C1064 H1035 0.950 . S
C1064 C1063 1.334 . S
C1064 C1065 1.287 . S
C1065 C1064 1.287 . S
C1065 C1066 1.524 . S
C1065 H1068 0.999 . S
C1066 H1036 0.950 . S
C1066 C1065 1.524 . S
C1066 C1067 1.415 . S
C1067 H1037 0.950 . S
C1067 C1062 1.363 . S
C1067 C1066 1.415 . S
H1068 C1065 0.999 . S
H1069 C1050 0.913 . S
H1070 C1088 0.951 . S
H1071 C1090 0.951 . S
H1072 C1092 0.950 . S
H1073 C1093 0.950 . S
H1074 C1095 0.950 . S
H1075 C1098 0.950 . S
H1076 C1099 0.950 . S
H1077 C1101 0.950 . S
H1078 C1102 0.950 . S
H1079 C1103 0.951 . S
H1080 C1105 0.951 . S
H1081 C1107 0.950 . S
H1082 C1108 0.950 . S
H1083 C1110 0.950 . S
H1084 C1113 0.950 . S
H1085 C1114 0.950 . S
H1086 C1116 0.950 . S
H1087 C1117 0.950 . S
C1088 H1070 0.951 . S
C1088 C1089 1.366 . S
C1088 C1090 1.388 . S
C1089 C1088 1.366 . S
C1089 C1093 1.385 . S
C1090 H1071 0.951 . S
C1090 C1088 1.388 . S
C1090 C1091 1.366 . S
C1091 C1090 1.366 . S
C1091 C1092 1.414 . S
C1091 C1094 1.499 . S
C1092 H1072 0.950 . S
C1092 C1091 1.414 . S
C1092 C1093 1.374 . S
C1093 H1073 0.950 . S
C1093 C1089 1.385 . S
C1093 C1092 1.374 . S
C1094 C1091 1.499 . S
C1094 C1095 1.373 . S
C1094 C1096 1.389 . S
C1095 H1074 0.950 . S
C1095 C1094 1.373 . S
C1095 C1111 1.377 . S
C1096 C1094 1.389 . S
C1096 C1097 1.524 . S
C1096 C1110 1.377 . S
C1097 C1096 1.524 . S
C1097 C1098 1.397 . S
C1097 C1102 1.363 . S
C1098 H1075 0.950 . S
C1098 C1097 1.397 . S
C1098 C1099 1.334 . S
C1099 H1076 0.950 . S
C1099 C1098 1.334 . S
C1099 C1100 1.287 . S
C1100 C1099 1.287 . S
C1100 C1101 1.524 . S
C1100 H1119 0.913 . S
C1101 H1077 0.950 . S
C1101 C1100 1.524 . S
C1101 C1102 1.415 . S
C1102 H1078 0.950 . S
C1102 C1097 1.363 . S
C1102 C1101 1.415 . S
C1103 H1079 0.951 . S
C1103 C1104 1.366 . S
C1103 C1105 1.388 . S
C1104 C1103 1.366 . S
C1104 C1108 1.385 . S
C1105 H1080 0.951 . S
C1105 C1103 1.388 . S
C1105 C1106 1.366 . S
C1106 C1105 1.366 . S
C1106 C1107 1.414 . S
C1106 C1109 1.499 . S
C1107 H1081 0.950 . S
C1107 C1106 1.414 . S
C1107 C1108 1.374 . S
C1108 H1082 0.950 . S
C1108 C1104 1.385 . S
C1108 C1107 1.374 . S
C1109 C1106 1.499 . S
C1109 C1110 1.373 . S
C1109 C1111 1.389 . S
C1110 H1083 0.950 . S
C1110 C1096 1.377 . S
C1110 C1109 1.373 . S
C1111 C1095 1.377 . S
C1111 C1109 1.389 . S
C1111 C1112 1.524 . S
C1112 C1111 1.524 . S
C1112 C1113 1.397 . S
C1112 C1117 1.363 . S
C1113 H1084 0.950 . S
C1113 C1112 1.397 . S
C1113 C1114 1.334 . S
C1114 H1085 0.950 . S
C1114 C1113 1.334 . S
C1114 C1115 1.287 . S
C1115 C1114 1.287 . S
C1115 C1116 1.524 . S
C1115 H1118 0.999 . S
C1116 H1086 0.950 . S
C1116 C1115 1.524 . S
C1116 C1117 1.415 . S
C1117 H1087 0.950 . S
C1117 C1112 1.363 . S
C1117 C1116 1.415 . S
H1118 C1115 0.999 . S
H1119 C1100 0.913 . S
H1120 C1138 0.951 . S
H1121 C1140 0.951 . S
H1122 C1142 0.950 . S
H1123 C1143 0.950 . S
H1124 C1145 0.950 . S
H1125 C1148 0.950 . S
H1126 C1149 0.950 . S
H1127 C1151 0.950 . S
H1128 C1152 0.950 . S
H1129 C1153 0.951 . S
H1130 C1155 0.951 . S
H1131 C1157 0.950 . S
H1132 C1158 0.950 . S
H1133 C1160 0.950 . S
H1134 C1163 0.950 . S
H1135 C1164 0.950 . S
H1136 C1166 0.950 . S
H1137 C1167 0.950 . S
C1138 H1120 0.951 . S
C1138 C1139 1.366 . S
C1138 C1140 1.388 . S
C1139 C1138 1.366 . S
C1139 C1143 1.385 . S
C1140 H1121 0.951 . S
C1140 C1138 1.388 . S
C1140 C1141 1.366 . S
C1141 C1140 1.366 . S
C1141 C1142 1.414 . S
C1141 C1144 1.499 . S
C1142 H1122 0.950 . S
C1142 C1141 1.414 . S
C1142 C1143 1.374 . S
C1143 H1123 0.950 . S
C1143 C1139 1.385 . S
C1143 C1142 1.374 . S
C1144 C1141 1.499 . S
C1144 C1145 1.373 . S
C1144 C1146 1.389 . S
C1145 H1124 0.950 . S
C1145 C1144 1.373 . S
C1145 C1161 1.377 . S
C1146 C1144 1.389 . S
C1146 C1147 1.524 . S
C1146 C1160 1.377 . S
C1147 C1146 1.524 . S
C1147 C1148 1.397 . S
C1147 C1152 1.363 . S
C1148 H1125 0.950 . S
C1148 C1147 1.397 . S
C1148 C1149 1.334 . S
C1149 H1126 0.950 . S
C1149 C1148 1.334 . S
C1149 C1150 1.287 . S
C1150 C1149 1.287 . S
C1150 C1151 1.524 . S
C1150 H1169 0.913 . S
C1151 H1127 0.950 . S
C1151 C1150 1.524 . S
C1151 C1152 1.415 . S
C1152 H1128 0.950 . S
C1152 C1147 1.363 . S
C1152 C1151 1.415 . S
C1153 H1129 0.951 . S
C1153 C1154 1.366 . S
C1153 C1155 1.388 . S
C1154 C1153 1.366 . S
C1154 C1158 1.385 . S
C1155 H1130 0.951 . S
C1155 C1153 1.388 . S
C1155 C1156 1.366 . S
C1156 C1155 1.366 . S
C1156 C1157 1.414 . S
C1156 C1159 1.499 . S
C1157 H1131 0.950 . S
C1157 C1156 1.414 . S
C1157 C1158 1.374 . S
C1158 H1132 0.950 . S
C1158 C1154 1.385 . S
C1158 C1157 1.374 . S
C1159 C1156 1.499 . S
C1159 C1160 1.373 . S
C1159 C1161 1.389 . S
C1160 H1133 0.950 . S
C1160 C1146 1.377 . S
C1160 C1159 1.373 . S
C1161 C1145 1.377 . S
C1161 C1159 1.389 . S
C1161 C1162 1.524 . S
C1162 C1161 1.524 . S
C1162 C1163 1.397 . S
C1162 C1167 1.363 . S
C1163 H1134 0.950 . S
C1163 C1162 1.397 . S
C1163 C1164 1.334 . S
C1164 H1135 0.950 . S
C1164 C1163 1.334 . S
C1164 C1165 1.287 . S
C1165 C1164 1.287 . S
C1165 C1166 1.524 . S
C1165 H1168 0.999 . S
C1166 H1136 0.950 . S
C1166 C1165 1.524 . S
C1166 C1167 1.415 . S
C1167 H1137 0.950 . S
C1167 C1162 1.363 . S
C1167 C1166 1.415 . S
H1168 C1165 0.999 . S
H1169 C1150 0.913 . S
H1170 C1188 0.951 . S
H1171 C1190 0.951 . S
H1172 C1192 0.950 . S
H1173 C1193 0.950 . S
H1174 C1195 0.950 . S
H1175 C1198 0.950 . S
H1176 C1199 0.950 . S
H1177 C1201 0.950 . S
H1178 C1202 0.950 . S
H1179 C1203 0.951 . S
H1180 C1205 0.951 . S
H1181 C1207 0.968 . S
H1182 C1208 0.950 . S
H1183 C1210 0.950 . S
H1184 C1213 0.950 . S
H1185 C1214 0.950 . S
H1186 C1216 0.950 . S
H1187 C1217 0.950 . S
C1188 H1170 0.951 . S
C1188 C1189 1.366 . S
C1188 C1190 1.388 . S
C1189 C1188 1.366 . S
C1189 C1193 1.385 . S
C1190 H1171 0.951 . S
C1190 C1188 1.388 . S
C1190 C1191 1.366 . S
C1191 C1190 1.366 . S
C1191 C1192 1.414 . S
C1191 C1194 1.499 . S
C1192 H1172 0.950 . S
C1192 C1191 1.414 . S
C1192 C1193 1.374 . S
C1193 H1173 0.950 . S
C1193 C1189 1.385 . S
C1193 C1192 1.374 . S
C1194 C1191 1.499 . S
C1194 C1195 1.373 . S
C1194 C1196 1.389 . S
C1195 H1174 0.950 . S
C1195 C1194 1.373 . S
C1195 C1211 1.377 . S
C1196 C1194 1.389 . S
C1196 C1197 1.524 . S
C1196 C1210 1.377 . S
C1197 C1196 1.524 . S
C1197 C1198 1.397 . S
C1197 C1202 1.363 . S
C1198 H1175 0.950 . S
C1198 C1197 1.397 . S
C1198 C1199 1.334 . S
C1199 H1176 0.950 . S
C1199 C1198 1.334 . S
C1199 C1200 1.287 . S
C1200 C1199 1.287 . S
C1200 C1201 1.524 . S
C1200 H1219 0.913 . S
C1201 H1177 0.950 . S
C1201 C1200 1.524 . S
C1201 C1202 1.415 . S
C1202 H1178 0.950 . S
C1202 C1197 1.363 . S
C1202 C1201 1.415 . S
C1203 H1179 0.951 . S
C1203 C1204 1.341 1_565 S
C1203 C1205 1.388 . S
C1204 C1203 1.341 1_545 S
C1204 C1208 1.409 . S
C1205 H1180 0.951 . S
C1205 C1203 1.388 . S
C1205 C1206 1.366 . S
C1206 C1205 1.366 . S
C1206 C1207 1.396 1_565 S
C1206 C1209 1.499 . S
C1207 H1181 0.968 . S
C1207 C1206 1.396 1_545 S
C1207 C1208 1.375 . S
C1208 H1182 0.950 . S
C1208 C1204 1.409 . S
C1208 C1207 1.375 . S
C1209 C1206 1.499 . S
C1209 C1210 1.373 . S
C1209 C1211 1.389 . S
C1210 H1183 0.950 . S
C1210 C1196 1.377 . S
C1210 C1209 1.373 . S
C1211 C1195 1.377 . S
C1211 C1209 1.389 . S
C1211 C1212 1.524 . S
C1212 C1211 1.524 . S
C1212 C1213 1.397 1_565 S
C1212 C1217 1.363 . S
C1213 H1184 0.950 . S
C1213 C1212 1.397 1_545 S
C1213 C1214 1.334 . S
C1214 H1185 0.950 . S
C1214 C1213 1.334 . S
C1214 C1215 1.287 . S
C1215 C1214 1.287 . S
C1215 C1216 1.524 1_545 S
C1215 H1218 0.999 . S
C1216 H1186 0.950 . S
C1216 C1215 1.524 1_565 S
C1216 C1217 1.415 . S
C1217 H1187 0.950 . S
C1217 C1212 1.363 . S
C1217 C1216 1.415 . S
H1218 C1215 0.999 . S
H1219 C1200 0.913 . S
H1220 C1238 0.951 . S
H1221 C1240 0.951 . S
H1222 C1242 0.950 . S
H1223 C1243 0.950 . S
H1224 C1245 0.950 . S
H1225 C1248 0.950 . S
H1226 C1249 0.950 . S
H1227 C1251 0.950 . S
H1228 C1252 0.950 . S
H1229 C1253 0.951 . S
H1230 C1255 0.951 . S
H1231 C1257 0.950 . S
H1232 C1258 0.950 . S
H1233 C1260 0.950 . S
H1234 C1263 0.950 . S
H1235 C1264 0.950 . S
H1236 C1266 0.950 . S
H1237 C1267 0.950 . S
C1238 H1220 0.951 . S
C1238 C1239 1.366 . S
C1238 C1240 1.388 . S
C1239 C1238 1.366 . S
C1239 C1243 1.385 . S
C1240 H1221 0.951 . S
C1240 C1238 1.388 . S
C1240 C1241 1.366 . S
C1241 C1240 1.366 . S
C1241 C1242 1.414 . S
C1241 C1244 1.499 . S
C1242 H1222 0.950 . S
C1242 C1241 1.414 . S
C1242 C1243 1.374 . S
C1243 H1223 0.950 . S
C1243 C1239 1.385 . S
C1243 C1242 1.374 . S
C1244 C1241 1.499 . S
C1244 C1245 1.373 . S
C1244 C1246 1.389 . S
C1245 H1224 0.950 . S
C1245 C1244 1.373 . S
C1245 C1261 1.377 . S
C1246 C1244 1.389 . S
C1246 C1247 1.524 . S
C1246 C1260 1.377 . S
C1247 C1246 1.524 . S
C1247 C1248 1.397 . S
C1247 C1252 1.363 . S
C1248 H1225 0.950 . S
C1248 C1247 1.397 . S
C1248 C1249 1.334 . S
C1249 H1226 0.950 . S
C1249 C1248 1.334 . S
C1249 C1250 1.287 . S
C1250 C1249 1.287 . S
C1250 C1251 1.524 . S
C1250 H1269 0.913 . S
C1251 H1227 0.950 . S
C1251 C1250 1.524 . S
C1251 C1252 1.415 . S
C1252 H1228 0.950 . S
C1252 C1247 1.363 . S
C1252 C1251 1.415 . S
C1253 H1229 0.951 . S
C1253 C1254 1.366 . S
C1253 C1255 1.388 . S
C1254 C1253 1.366 . S
C1254 C1258 1.385 . S
C1255 H1230 0.951 . S
C1255 C1253 1.388 . S
C1255 C1256 1.366 . S
C1256 C1255 1.366 . S
C1256 C1257 1.414 . S
C1256 C1259 1.499 . S
C1257 H1231 0.950 . S
C1257 C1256 1.414 . S
C1257 C1258 1.374 . S
C1258 H1232 0.950 . S
C1258 C1254 1.385 . S
C1258 C1257 1.374 . S
C1259 C1256 1.499 . S
C1259 C1260 1.373 . S
C1259 C1261 1.389 . S
C1260 H1233 0.950 . S
C1260 C1246 1.377 . S
C1260 C1259 1.373 . S
C1261 C1245 1.377 . S
C1261 C1259 1.389 . S
C1261 C1262 1.524 . S
C1262 C1261 1.524 . S
C1262 C1263 1.397 . S
C1262 C1267 1.363 . S
C1263 H1234 0.950 . S
C1263 C1262 1.397 . S
C1263 C1264 1.334 . S
C1264 H1235 0.950 . S
C1264 C1263 1.334 . S
C1264 C1265 1.287 . S
C1265 C1264 1.287 . S
C1265 C1266 1.524 . S
C1265 H1268 0.999 . S
C1266 H1236 0.950 . S
C1266 C1265 1.524 . S
C1266 C1267 1.415 . S
C1267 H1237 0.950 . S
C1267 C1262 1.363 . S
C1267 C1266 1.415 . S
H1268 C1265 0.999 . S
H1269 C1250 0.913 . S
H1270 C1288 0.951 . S
H1271 C1290 0.951 . S
H1272 C1292 0.950 . S
H1273 C1293 0.950 . S
H1274 C1295 0.950 . S
H1275 C1298 0.950 . S
H1276 C1299 0.950 . S
H1277 C1301 0.950 . S
H1278 C1302 0.950 . S
H1279 C1303 0.951 . S
H1280 C1305 0.951 . S
H1281 C1307 0.950 . S
H1282 C1308 0.950 . S
H1283 C1310 0.950 . S
H1284 C1313 0.950 . S
H1285 C1314 0.950 . S
H1286 C1316 0.950 . S
H1287 C1317 0.950 . S
C1288 H1270 0.951 . S
C1288 C1289 1.366 . S
C1288 C1290 1.388 . S
C1289 C1288 1.366 . S
C1289 C1293 1.385 . S
C1290 H1271 0.951 . S
C1290 C1288 1.388 . S
C1290 C1291 1.366 . S
C1291 C1290 1.366 . S
C1291 C1292 1.414 . S
C1291 C1294 1.499 . S
C1292 H1272 0.950 . S
C1292 C1291 1.414 . S
C1292 C1293 1.374 . S
C1293 H1273 0.950 . S
C1293 C1289 1.385 . S
C1293 C1292 1.374 . S
C1294 C1291 1.499 . S
C1294 C1295 1.373 . S
C1294 C1296 1.389 . S
C1295 H1274 0.950 . S
C1295 C1294 1.373 . S
C1295 C1311 1.377 . S
C1296 C1294 1.389 . S
C1296 C1297 1.524 . S
C1296 C1310 1.377 . S
C1297 C1296 1.524 . S
C1297 C1298 1.397 . S
C1297 C1302 1.363 . S
C1298 H1275 0.950 . S
C1298 C1297 1.397 . S
C1298 C1299 1.334 . S
C1299 H1276 0.950 . S
C1299 C1298 1.334 . S
C1299 C1300 1.287 . S
C1300 C1299 1.287 . S
C1300 C1301 1.524 . S
C1300 H1319 0.913 . S
C1301 H1277 0.950 . S
C1301 C1300 1.524 . S
C1301 C1302 1.415 . S
C1302 H1278 0.950 . S
C1302 C1297 1.363 . S
C1302 C1301 1.415 . S
C1303 H1279 0.951 . S
C1303 C1304 1.366 . S
C1303 C1305 1.388 . S
C1304 C1303 1.366 . S
C1304 C1308 1.385 . S
C1305 H1280 0.951 . S
C1305 C1303 1.388 . S
C1305 C1306 1.366 . S
C1306 C1305 1.366 . S
C1306 C1307 1.414 . S
C1306 C1309 1.499 . S
C1307 H1281 0.950 . S
C1307 C1306 1.414 . S
C1307 C1308 1.374 . S
C1308 H1282 0.950 . S
C1308 C1304 1.385 . S
C1308 C1307 1.374 . S
C1309 C1306 1.499 . S
C1309 C1310 1.373 . S
C1309 C1311 1.389 . S
C1310 H1283 0.950 . S
C1310 C1296 1.377 . S
C1310 C1309 1.373 . S
C1311 C1295 1.377 . S
C1311 C1309 1.389 . S
C1311 C1312 1.524 . S
C1312 C1311 1.524 . S
C1312 C1313 1.397 . S
C1312 C1317 1.363 . S
C1313 H1284 0.950 . S
C1313 C1312 1.397 . S
C1313 C1314 1.334 . S
C1314 H1285 0.950 . S
C1314 C1313 1.334 . S
C1314 C1315 1.287 . S
C1315 C1314 1.287 . S
C1315 C1316 1.524 . S
C1315 H1318 0.999 . S
C1316 H1286 0.950 . S
C1316 C1315 1.524 . S
C1316 C1317 1.415 . S
C1317 H1287 0.950 . S
C1317 C1312 1.363 . S
C1317 C1316 1.415 . S
H1318 C1315 0.999 . S
H1319 C1300 0.913 . S
H1320 C1338 0.951 . S
H1321 C1340 0.951 . S
H1322 C1342 0.950 . S
H1323 C1343 0.950 . S
H1324 C1345 0.950 . S
H1325 C1348 0.950 . S
H1326 C1349 0.950 . S
H1327 C1351 0.950 . S
H1328 C1352 0.950 . S
H1329 C1353 0.951 . S
H1330 C1355 0.951 . S
H1331 C1357 0.950 . S
H1332 C1358 0.950 . S
H1333 C1360 0.950 . S
H1334 C1363 0.950 . S
H1335 C1364 0.950 . S
H1336 C1366 0.950 . S
H1337 C1367 0.950 . S
C1338 H1320 0.951 . S
C1338 C1339 1.366 . S
C1338 C1340 1.388 . S
C1339 C1338 1.366 . S
C1339 C1343 1.385 . S
C1340 H1321 0.951 . S
C1340 C1338 1.388 . S
C1340 C1341 1.366 . S
C1341 C1340 1.366 . S
C1341 C1342 1.414 . S
C1341 C1344 1.499 . S
C1342 H1322 0.950 . S
C1342 C1341 1.414 . S
C1342 C1343 1.374 . S
C1343 H1323 0.950 . S
C1343 C1339 1.385 . S
C1343 C1342 1.374 . S
C1344 C1341 1.499 . S
C1344 C1345 1.373 . S
C1344 C1346 1.389 . S
C1345 H1324 0.950 . S
C1345 C1344 1.373 . S
C1345 C1361 1.377 . S
C1346 C1344 1.389 . S
C1346 C1347 1.524 . S
C1346 C1360 1.377 . S
C1347 C1346 1.524 . S
C1347 C1348 1.397 . S
C1347 C1352 1.363 . S
C1348 H1325 0.950 . S
C1348 C1347 1.397 . S
C1348 C1349 1.334 . S
C1349 H1326 0.950 . S
C1349 C1348 1.334 . S
C1349 C1350 1.287 . S
C1350 C1349 1.287 . S
C1350 C1351 1.524 . S
C1350 H1369 0.913 . S
C1351 H1327 0.950 . S
C1351 C1350 1.524 . S
C1351 C1352 1.415 . S
C1352 H1328 0.950 . S
C1352 C1347 1.363 . S
C1352 C1351 1.415 . S
C1353 H1329 0.951 . S
C1353 C1354 1.366 . S
C1353 C1355 1.388 . S
C1354 C1353 1.366 . S
C1354 C1358 1.385 . S
C1355 H1330 0.951 . S
C1355 C1353 1.388 . S
C1355 C1356 1.366 . S
C1356 C1355 1.366 . S
C1356 C1357 1.414 . S
C1356 C1359 1.499 . S
C1357 H1331 0.950 . S
C1357 C1356 1.414 . S
C1357 C1358 1.374 . S
C1358 H1332 0.950 . S
C1358 C1354 1.385 . S
C1358 C1357 1.374 . S
C1359 C1356 1.499 . S
C1359 C1360 1.373 . S
C1359 C1361 1.389 . S
C1360 H1333 0.950 . S
C1360 C1346 1.377 . S
C1360 C1359 1.373 . S
C1361 C1345 1.377 . S
C1361 C1359 1.389 . S
C1361 C1362 1.524 . S
C1362 C1361 1.524 . S
C1362 C1363 1.397 . S
C1362 C1367 1.363 . S
C1363 H1334 0.950 . S
C1363 C1362 1.397 . S
C1363 C1364 1.334 1_455 S
C1364 H1335 0.950 . S
C1364 C1363 1.334 1_655 S
C1364 C1365 1.287 . S
C1365 C1364 1.287 . S
C1365 C1366 1.524 . S
C1365 H1368 0.999 . S
C1366 H1336 0.950 . S
C1366 C1365 1.524 . S
C1366 C1367 1.415 1_655 S
C1367 H1337 0.950 . S
C1367 C1362 1.363 . S
C1367 C1366 1.415 1_455 S
H1368 C1365 0.999 . S
H1369 C1350 0.913 . S
H1370 C1388 0.951 . S
H1371 C1390 0.951 . S
H1372 C1392 0.950 . S
H1373 C1393 0.950 . S
H1374 C1395 0.950 . S
H1375 C1398 0.950 . S
H1376 C1399 0.950 . S
H1377 C1401 0.950 . S
H1378 C1402 0.950 . S
H1379 C1403 0.951 . S
H1380 C1405 0.951 . S
H1381 C1407 0.950 . S
H1382 C1408 0.950 . S
H1383 C1410 0.950 . S
H1384 C1413 0.950 . S
H1385 C1414 0.950 . S
H1386 C1416 0.950 . S
H1387 C1417 0.950 . S
C1388 H1370 0.951 . S
C1388 C1389 1.366 . S
C1388 C1390 1.388 . S
C1389 C1388 1.366 . S
C1389 C1393 1.385 . S
C1390 H1371 0.951 . S
C1390 C1388 1.388 . S
C1390 C1391 1.366 . S
C1391 C1390 1.366 . S
C1391 C1392 1.414 . S
C1391 C1394 1.499 . S
C1392 H1372 0.950 . S
C1392 C1391 1.414 . S
C1392 C1393 1.374 . S
C1393 H1373 0.950 . S
C1393 C1389 1.385 . S
C1393 C1392 1.374 . S
C1394 C1391 1.499 . S
C1394 C1395 1.373 . S
C1394 C1396 1.389 . S
C1395 H1374 0.950 . S
C1395 C1394 1.373 . S
C1395 C1411 1.377 . S
C1396 C1394 1.389 . S
C1396 C1397 1.524 . S
C1396 C1410 1.377 . S
C1397 C1396 1.524 . S
C1397 C1398 1.397 . S
C1397 C1402 1.363 . S
C1398 H1375 0.950 . S
C1398 C1397 1.397 . S
C1398 C1399 1.334 . S
C1399 H1376 0.950 . S
C1399 C1398 1.334 . S
C1399 C1400 1.287 . S
C1400 C1399 1.287 . S
C1400 C1401 1.524 . S
C1400 H1419 0.913 . S
C1401 H1377 0.950 . S
C1401 C1400 1.524 . S
C1401 C1402 1.415 . S
C1402 H1378 0.950 . S
C1402 C1397 1.363 . S
C1402 C1401 1.415 . S
C1403 H1379 0.951 . S
C1403 C1404 1.366 . S
C1403 C1405 1.388 . S
C1404 C1403 1.366 . S
C1404 C1408 1.385 . S
C1405 H1380 0.951 . S
C1405 C1403 1.388 . S
C1405 C1406 1.366 . S
C1406 C1405 1.366 . S
C1406 C1407 1.414 . S
C1406 C1409 1.499 . S
C1407 H1381 0.950 . S
C1407 C1406 1.414 . S
C1407 C1408 1.374 . S
C1408 H1382 0.950 . S
C1408 C1404 1.385 . S
C1408 C1407 1.374 . S
C1409 C1406 1.499 . S
C1409 C1410 1.373 . S
C1409 C1411 1.389 . S
C1410 H1383 0.950 . S
C1410 C1396 1.377 . S
C1410 C1409 1.373 . S
C1411 C1395 1.377 . S
C1411 C1409 1.389 . S
C1411 C1412 1.524 . S
C1412 C1411 1.524 . S
C1412 C1413 1.397 . S
C1412 C1417 1.363 . S
C1413 H1384 0.950 . S
C1413 C1412 1.397 . S
C1413 C1414 1.334 . S
C1414 H1385 0.950 . S
C1414 C1413 1.334 . S
C1414 C1415 1.287 . S
C1415 C1414 1.287 . S
C1415 C1416 1.524 . S
C1415 H1418 0.999 . S
C1416 H1386 0.950 . S
C1416 C1415 1.524 . S
C1416 C1417 1.415 . S
C1417 H1387 0.950 . S
C1417 C1412 1.363 . S
C1417 C1416 1.415 . S
H1418 C1415 0.999 . S
H1419 C1400 0.913 . S
H1420 C1438 0.951 . S
H1421 C1440 0.951 . S
H1422 C1442 0.950 . S
H1423 C1443 0.950 . S
H1424 C1445 0.950 . S
H1425 C1448 0.950 . S
H1426 C1449 0.950 . S
H1427 C1451 0.950 . S
H1428 C1452 0.950 . S
H1429 C1453 0.951 . S
H1430 C1455 0.951 . S
H1431 C1457 0.950 . S
H1432 C1458 0.950 . S
H1433 C1460 0.950 . S
H1434 C1463 0.950 . S
H1435 C1464 0.950 . S
H1436 C1466 0.950 . S
H1437 C1467 0.950 . S
C1438 H1420 0.951 . S
C1438 C1439 1.366 . S
C1438 C1440 1.388 . S
C1439 C1438 1.366 . S
C1439 C1443 1.385 . S
C1440 H1421 0.951 . S
C1440 C1438 1.388 . S
C1440 C1441 1.366 . S
C1441 C1440 1.366 . S
C1441 C1442 1.414 . S
C1441 C1444 1.499 . S
C1442 H1422 0.950 . S
C1442 C1441 1.414 . S
C1442 C1443 1.374 . S
C1443 H1423 0.950 . S
C1443 C1439 1.385 . S
C1443 C1442 1.374 . S
C1444 C1441 1.499 . S
C1444 C1445 1.373 . S
C1444 C1446 1.389 . S
C1445 H1424 0.950 . S
C1445 C1444 1.373 . S
C1445 C1461 1.377 . S
C1446 C1444 1.389 . S
C1446 C1447 1.524 . S
C1446 C1460 1.377 . S
C1447 C1446 1.524 . S
C1447 C1448 1.397 . S
C1447 C1452 1.363 . S
C1448 H1425 0.950 . S
C1448 C1447 1.397 . S
C1448 C1449 1.334 . S
C1449 H1426 0.950 . S
C1449 C1448 1.334 . S
C1449 C1450 1.287 . S
C1450 C1449 1.287 . S
C1450 C1451 1.524 . S
C1450 H1469 0.913 . S
C1451 H1427 0.950 . S
C1451 C1450 1.524 . S
C1451 C1452 1.415 . S
C1452 H1428 0.950 . S
C1452 C1447 1.363 . S
C1452 C1451 1.415 . S
C1453 H1429 0.951 . S
C1453 C1454 1.366 . S
C1453 C1455 1.388 . S
C1454 C1453 1.366 . S
C1454 C1458 1.385 . S
C1455 H1430 0.951 . S
C1455 C1453 1.388 . S
C1455 C1456 1.366 . S
C1456 C1455 1.366 . S
C1456 C1457 1.414 . S
C1456 C1459 1.499 . S
C1457 H1431 0.950 . S
C1457 C1456 1.414 . S
C1457 C1458 1.374 . S
C1458 H1432 0.950 . S
C1458 C1454 1.385 . S
C1458 C1457 1.374 . S
C1459 C1456 1.499 . S
C1459 C1460 1.373 . S
C1459 C1461 1.389 . S
C1460 H1433 0.950 . S
C1460 C1446 1.377 . S
C1460 C1459 1.373 . S
C1461 C1445 1.377 . S
C1461 C1459 1.389 . S
C1461 C1462 1.524 . S
C1462 C1461 1.524 . S
C1462 C1463 1.397 . S
C1462 C1467 1.363 . S
C1463 H1434 0.950 . S
C1463 C1462 1.397 . S
C1463 C1464 1.334 . S
C1464 H1435 0.950 . S
C1464 C1463 1.334 . S
C1464 C1465 1.287 . S
C1465 C1464 1.287 . S
C1465 C1466 1.524 . S
C1465 H1468 0.999 . S
C1466 H1436 0.950 . S
C1466 C1465 1.524 . S
C1466 C1467 1.415 . S
C1467 H1437 0.950 . S
C1467 C1462 1.363 . S
C1467 C1466 1.415 . S
H1468 C1465 0.999 . S
H1469 C1450 0.913 . S
H1470 C1488 0.951 . S
H1471 C1490 0.951 . S
H1472 C1492 0.950 . S
H1473 C1493 0.950 . S
H1474 C1495 0.950 . S
H1475 C1498 0.950 . S
H1476 C1499 0.950 . S
H1477 C1501 0.950 . S
H1478 C1502 0.950 . S
H1479 C1503 0.951 . S
H1480 C1505 0.951 . S
H1481 C1507 0.950 . S
H1482 C1508 0.950 . S
H1483 C1510 0.950 . S
H1484 C1513 0.950 . S
H1485 C1514 0.950 . S
H1486 C1516 0.950 . S
H1487 C1517 0.950 . S
C1488 H1470 0.951 . S
C1488 C1489 1.366 . S
C1488 C1490 1.388 . S
C1489 C1488 1.366 . S
C1489 C1493 1.385 . S
C1490 H1471 0.951 . S
C1490 C1488 1.388 . S
C1490 C1491 1.366 . S
C1491 C1490 1.366 . S
C1491 C1492 1.414 . S
C1491 C1494 1.499 . S
C1492 H1472 0.950 . S
C1492 C1491 1.414 . S
C1492 C1493 1.374 . S
C1493 H1473 0.950 . S
C1493 C1489 1.385 . S
C1493 C1492 1.374 . S
C1494 C1491 1.499 . S
C1494 C1495 1.373 . S
C1494 C1496 1.389 . S
C1495 H1474 0.950 . S
C1495 C1494 1.373 . S
C1495 C1511 1.377 . S
C1496 C1494 1.389 . S
C1496 C1497 1.524 . S
C1496 C1510 1.377 . S
C1497 C1496 1.524 . S
C1497 C1498 1.397 . S
C1497 C1502 1.363 . S
C1498 H1475 0.950 . S
C1498 C1497 1.397 . S
C1498 C1499 1.334 . S
C1499 H1476 0.950 . S
C1499 C1498 1.334 . S
C1499 C1500 1.287 . S
C1500 C1499 1.287 . S
C1500 C1501 1.524 . S
C1500 H1519 0.913 . S
C1501 H1477 0.950 . S
C1501 C1500 1.524 . S
C1501 C1502 1.415 . S
C1502 H1478 0.950 . S
C1502 C1497 1.363 . S
C1502 C1501 1.415 . S
C1503 H1479 0.951 . S
C1503 C1504 1.366 . S
C1503 C1505 1.388 . S
C1504 C1503 1.366 . S
C1504 C1508 1.385 . S
C1505 H1480 0.951 . S
C1505 C1503 1.388 . S
C1505 C1506 1.366 . S
C1506 C1505 1.366 . S
C1506 C1507 1.414 . S
C1506 C1509 1.499 . S
C1507 H1481 0.950 . S
C1507 C1506 1.414 . S
C1507 C1508 1.374 . S
C1508 H1482 0.950 . S
C1508 C1504 1.385 . S
C1508 C1507 1.374 . S
C1509 C1506 1.499 . S
C1509 C1510 1.373 . S
C1509 C1511 1.389 . S
C1510 H1483 0.950 . S
C1510 C1496 1.377 . S
C1510 C1509 1.373 . S
C1511 C1495 1.377 . S
C1511 C1509 1.389 . S
C1511 C1512 1.524 . S
C1512 C1511 1.524 . S
C1512 C1513 1.397 . S
C1512 C1517 1.363 . S
C1513 H1484 0.950 . S
C1513 C1512 1.397 . S
C1513 C1514 1.334 . S
C1514 H1485 0.950 . S
C1514 C1513 1.334 . S
C1514 C1515 1.287 . S
C1515 C1514 1.287 . S
C1515 C1516 1.524 . S
C1515 H1518 0.999 . S
C1516 H1486 0.950 . S
C1516 C1515 1.524 . S
C1516 C1517 1.415 . S
C1517 H1487 0.950 . S
C1517 C1512 1.363 . S
C1517 C1516 1.415 . S
H1518 C1515 0.999 . S
H1519 C1500 0.913 . S
H1520 C1538 0.951 . S
H1521 C1540 0.951 . S
H1522 C1542 0.950 . S
H1523 C1543 0.950 . S
H1524 C1545 0.950 . S
H1525 C1548 0.950 . S
H1526 C1549 0.950 . S
H1527 C1551 0.950 . S
H1528 C1552 0.950 . S
H1529 C1553 0.951 . S
H1530 C1555 0.951 . S
H1531 C1557 0.950 . S
H1532 C1558 0.950 . S
H1533 C1560 0.950 . S
H1534 C1563 0.950 . S
H1535 C1564 0.950 . S
H1536 C1566 0.950 1_655 S
H1537 C1567 0.950 . S
C1538 H1520 0.951 . S
C1538 C1539 1.366 . S
C1538 C1540 1.388 . S
C1539 C1538 1.366 . S
C1539 C1543 1.385 . S
C1540 H1521 0.951 . S
C1540 C1538 1.388 . S
C1540 C1541 1.366 . S
C1541 C1540 1.366 . S
C1541 C1542 1.414 . S
C1541 C1544 1.499 . S
C1542 H1522 0.950 . S
C1542 C1541 1.414 . S
C1542 C1543 1.374 . S
C1543 H1523 0.950 . S
C1543 C1539 1.385 . S
C1543 C1542 1.374 . S
C1544 C1541 1.499 . S
C1544 C1545 1.373 . S
C1544 C1546 1.389 . S
C1545 H1524 0.950 . S
C1545 C1544 1.373 . S
C1545 C1561 1.377 . S
C1546 C1544 1.389 . S
C1546 C1547 1.524 . S
C1546 C1560 1.377 . S
C1547 C1546 1.524 . S
C1547 C1548 1.397 . S
C1547 C1552 1.363 . S
C1548 H1525 0.950 . S
C1548 C1547 1.397 . S
C1548 C1549 1.334 . S
C1549 H1526 0.950 . S
C1549 C1548 1.334 . S
C1549 C1550 1.287 . S
C1550 C1549 1.287 . S
C1550 C1551 1.524 . S
C1550 H1569 0.913 . S
C1551 H1527 0.950 . S
C1551 C1550 1.524 . S
C1551 C1552 1.415 . S
C1552 H1528 0.950 . S
C1552 C1547 1.363 . S
C1552 C1551 1.415 . S
C1553 H1529 0.951 . S
C1553 C1554 1.366 . S
C1553 C1555 1.388 . S
C1554 C1553 1.366 . S
C1554 C1558 1.385 . S
C1555 H1530 0.951 . S
C1555 C1553 1.388 . S
C1555 C1556 1.366 . S
C1556 C1555 1.366 . S
C1556 C1557 1.414 . S
C1556 C1559 1.499 . S
C1557 H1531 0.950 . S
C1557 C1556 1.414 . S
C1557 C1558 1.374 . S
C1558 H1532 0.950 . S
C1558 C1554 1.385 . S
C1558 C1557 1.374 . S
C1559 C1556 1.499 . S
C1559 C1560 1.373 . S
C1559 C1561 1.389 . S
C1560 H1533 0.950 . S
C1560 C1546 1.377 . S
C1560 C1559 1.373 . S
C1561 C1545 1.377 . S
C1561 C1559 1.389 . S
C1561 C1562 1.524 . S
C1562 C1561 1.524 . S
C1562 C1563 1.397 . S
C1562 C1567 1.363 . S
C1563 H1534 0.950 . S
C1563 C1562 1.397 . S
C1563 C1564 1.334 . S
C1564 H1535 0.950 . S
C1564 C1563 1.334 . S
C1564 C1565 1.287 . S
C1565 C1564 1.287 . S
C1565 C1566 1.524 . S
C1565 H1568 0.999 . S
C1566 H1536 0.950 1_455 S
C1566 C1565 1.524 . S
C1566 C1567 1.415 . S
C1567 H1537 0.950 . S
C1567 C1562 1.363 . S
C1567 C1566 1.415 . S
H1568 C1565 0.999 . S
H1569 C1550 0.913 . S
H1570 C1588 0.951 . S
H1571 C1590 0.951 . S
H1572 C1592 0.950 . S
H1573 C1593 0.950 . S
H1574 C1595 0.950 . S
H1575 C1598 0.950 . S
H1576 C1599 0.950 . S
H1577 C1601 0.950 . S
H1578 C1602 0.950 . S
H1579 C1603 0.951 . S
H1580 C1605 0.951 . S
H1581 C1607 0.950 . S
H1582 C1608 0.950 . S
H1583 C1610 0.950 . S
H1584 C1613 0.950 . S
H1585 C1614 0.950 . S
H1586 C1616 0.950 . S
H1587 C1617 0.950 . S
C1588 H1570 0.951 . S
C1588 C1589 1.366 . S
C1588 C1590 1.388 . S
C1589 C1588 1.366 . S
C1589 C1593 1.385 . S
C1590 H1571 0.951 . S
C1590 C1588 1.388 . S
C1590 C1591 1.366 . S
C1591 C1590 1.366 . S
C1591 C1592 1.414 . S
C1591 C1594 1.499 . S
C1592 H1572 0.950 . S
C1592 C1591 1.414 . S
C1592 C1593 1.374 . S
C1593 H1573 0.950 . S
C1593 C1589 1.385 . S
C1593 C1592 1.374 . S
C1594 C1591 1.499 . S
C1594 C1595 1.373 . S
C1594 C1596 1.389 . S
C1595 H1574 0.950 . S
C1595 C1594 1.373 . S
C1595 C1611 1.377 . S
C1596 C1594 1.389 . S
C1596 C1597 1.524 . S
C1596 C1610 1.377 . S
C1597 C1596 1.524 . S
C1597 C1598 1.397 . S
C1597 C1602 1.363 . S
C1598 H1575 0.950 . S
C1598 C1597 1.397 . S
C1598 C1599 1.334 . S
C1599 H1576 0.950 . S
C1599 C1598 1.334 . S
C1599 C1600 1.287 . S
C1600 C1599 1.287 . S
C1600 C1601 1.524 . S
C1600 H1619 0.913 . S
C1601 H1577 0.950 . S
C1601 C1600 1.524 . S
C1601 C1602 1.415 . S
C1602 H1578 0.950 . S
C1602 C1597 1.363 . S
C1602 C1601 1.415 . S
C1603 H1579 0.951 . S
C1603 C1604 1.366 . S
C1603 C1605 1.388 . S
C1604 C1603 1.366 . S
C1604 C1608 1.385 . S
C1605 H1580 0.951 . S
C1605 C1603 1.388 . S
C1605 C1606 1.366 . S
C1606 C1605 1.366 . S
C1606 C1607 1.414 . S
C1606 C1609 1.499 . S
C1607 H1581 0.950 . S
C1607 C1606 1.414 . S
C1607 C1608 1.374 . S
C1608 H1582 0.950 . S
C1608 C1604 1.385 . S
C1608 C1607 1.374 . S
C1609 C1606 1.499 . S
C1609 C1610 1.373 . S
C1609 C1611 1.389 . S
C1610 H1583 0.950 . S
C1610 C1596 1.377 . S
C1610 C1609 1.373 . S
C1611 C1595 1.377 . S
C1611 C1609 1.389 . S
C1611 C1612 1.524 . S
C1612 C1611 1.524 . S
C1612 C1613 1.397 . S
C1612 C1617 1.363 . S
C1613 H1584 0.950 . S
C1613 C1612 1.397 . S
C1613 C1614 1.334 . S
C1614 H1585 0.950 . S
C1614 C1613 1.334 . S
C1614 C1615 1.287 . S
C1615 C1614 1.287 . S
C1615 C1616 1.524 . S
C1615 H1618 0.999 . S
C1616 H1586 0.950 . S
C1616 C1615 1.524 . S
C1616 C1617 1.415 . S
C1617 H1587 0.950 . S
C1617 C1612 1.363 . S
C1617 C1616 1.415 . S
H1618 C1615 0.999 . S
H1619 C1600 0.913 . S
H1620 C1638 0.951 . S
H1621 C1640 0.951 . S
H1622 C1642 0.950 . S
H1623 C1643 0.950 . S
H1624 C1645 0.950 . S
H1625 C1648 0.950 . S
H1626 C1649 0.950 . S
H1627 C1651 0.950 . S
H1628 C1652 0.950 . S
H1629 C1653 0.951 . S
H1630 C1655 0.951 . S
H1631 C1657 0.950 . S
H1632 C1658 0.950 . S
H1633 C1660 0.950 . S
H1634 C1663 0.950 . S
H1635 C1664 0.950 . S
H1636 C1666 0.950 . S
H1637 C1667 0.950 . S
C1638 H1620 0.951 . S
C1638 C1639 1.366 . S
C1638 C1640 1.388 . S
C1639 C1638 1.366 . S
C1639 C1643 1.385 . S
C1640 H1621 0.951 . S
C1640 C1638 1.388 . S
C1640 C1641 1.366 . S
C1641 C1640 1.366 . S
C1641 C1642 1.414 . S
C1641 C1644 1.499 . S
C1642 H1622 0.950 . S
C1642 C1641 1.414 . S
C1642 C1643 1.374 . S
C1643 H1623 0.950 . S
C1643 C1639 1.385 . S
C1643 C1642 1.374 . S
C1644 C1641 1.499 . S
C1644 C1645 1.373 . S
C1644 C1646 1.389 . S
C1645 H1624 0.950 . S
C1645 C1644 1.373 . S
C1645 C1661 1.377 . S
C1646 C1644 1.389 . S
C1646 C1647 1.524 . S
C1646 C1660 1.377 . S
C1647 C1646 1.524 . S
C1647 C1648 1.397 . S
C1647 C1652 1.363 . S
C1648 H1625 0.950 . S
C1648 C1647 1.397 . S
C1648 C1649 1.334 . S
C1649 H1626 0.950 . S
C1649 C1648 1.334 . S
C1649 C1650 1.287 . S
C1650 C1649 1.287 . S
C1650 C1651 1.524 . S
C1650 H1669 0.913 . S
C1651 H1627 0.950 . S
C1651 C1650 1.524 . S
C1651 C1652 1.415 . S
C1652 H1628 0.950 . S
C1652 C1647 1.363 . S
C1652 C1651 1.415 . S
C1653 H1629 0.951 . S
C1653 C1654 1.366 . S
C1653 C1655 1.388 . S
C1654 C1653 1.366 . S
C1654 C1658 1.385 . S
C1655 H1630 0.951 . S
C1655 C1653 1.388 . S
C1655 C1656 1.366 . S
C1656 C1655 1.366 . S
C1656 C1657 1.414 . S
C1656 C1659 1.499 . S
C1657 H1631 0.950 . S
C1657 C1656 1.414 . S
C1657 C1658 1.374 . S
C1658 H1632 0.950 . S
C1658 C1654 1.385 . S
C1658 C1657 1.374 . S
C1659 C1656 1.499 . S
C1659 C1660 1.373 . S
C1659 C1661 1.389 . S
C1660 H1633 0.950 . S
C1660 C1646 1.377 . S
C1660 C1659 1.373 . S
C1661 C1645 1.377 . S
C1661 C1659 1.389 . S
C1661 C1662 1.524 . S
C1662 C1661 1.524 . S
C1662 C1663 1.397 . S
C1662 C1667 1.363 . S
C1663 H1634 0.950 . S
C1663 C1662 1.397 . S
C1663 C1664 1.334 . S
C1664 H1635 0.950 . S
C1664 C1663 1.334 . S
C1664 C1665 1.287 . S
C1665 C1664 1.287 . S
C1665 C1666 1.524 . S
C1665 H1668 0.999 . S
C1666 H1636 0.950 . S
C1666 C1665 1.524 . S
C1666 C1667 1.415 . S
C1667 H1637 0.950 . S
C1667 C1662 1.363 . S
C1667 C1666 1.415 . S
H1668 C1665 0.999 . S
H1669 C1650 0.913 . S
H1670 C1688 0.951 . S
H1671 C1690 0.951 . S
H1672 C1692 0.950 . S
H1673 C1693 0.950 . S
H1674 C1695 0.950 . S
H1675 C1698 0.950 . S
H1676 C1699 0.950 . S
H1677 C1701 0.950 . S
H1678 C1702 0.950 . S
H1679 C1703 0.951 . S
H1680 C1705 0.951 . S
H1681 C1707 0.950 . S
H1682 C1708 0.950 . S
H1683 C1710 0.950 . S
H1684 C1713 0.950 . S
H1685 C1714 0.950 . S
H1686 C1716 0.950 . S
H1687 C1717 0.950 . S
C1688 H1670 0.951 . S
C1688 C1689 1.366 . S
C1688 C1690 1.388 . S
C1689 C1688 1.366 . S
C1689 C1693 1.385 . S
C1690 H1671 0.951 . S
C1690 C1688 1.388 . S
C1690 C1691 1.366 . S
C1691 C1690 1.366 . S
C1691 C1692 1.414 . S
C1691 C1694 1.499 . S
C1692 H1672 0.950 . S
C1692 C1691 1.414 . S
C1692 C1693 1.374 . S
C1693 H1673 0.950 . S
C1693 C1689 1.385 . S
C1693 C1692 1.374 . S
C1694 C1691 1.499 . S
C1694 C1695 1.373 . S
C1694 C1696 1.389 . S
C1695 H1674 0.950 . S
C1695 C1694 1.373 . S
C1695 C1711 1.377 . S
C1696 C1694 1.389 . S
C1696 C1697 1.524 . S
C1696 C1710 1.377 . S
C1697 C1696 1.524 . S
C1697 C1698 1.397 . S
C1697 C1702 1.363 . S
C1698 H1675 0.950 . S
C1698 C1697 1.397 . S
C1698 C1699 1.334 . S
C1699 H1676 0.950 . S
C1699 C1698 1.334 . S
C1699 C1700 1.287 . S
C1700 C1699 1.287 . S
C1700 C1701 1.524 . S
C1700 H1719 0.913 . S
C1701 H1677 0.950 . S
C1701 C1700 1.524 . S
C1701 C1702 1.415 . S
C1702 H1678 0.950 . S
C1702 C1697 1.363 . S
C1702 C1701 1.415 . S
C1703 H1679 0.951 . S
C1703 C1704 1.366 . S
C1703 C1705 1.388 . S
C1704 C1703 1.366 . S
C1704 C1708 1.385 . S
C1705 H1680 0.951 . S
C1705 C1703 1.388 . S
C1705 C1706 1.366 . S
C1706 C1705 1.366 . S
C1706 C1707 1.414 . S
C1706 C1709 1.499 . S
C1707 H1681 0.950 . S
C1707 C1706 1.414 . S
C1707 C1708 1.374 . S
C1708 H1682 0.950 . S
C1708 C1704 1.385 . S
C1708 C1707 1.374 . S
C1709 C1706 1.499 . S
C1709 C1710 1.373 . S
C1709 C1711 1.389 . S
C1710 H1683 0.950 . S
C1710 C1696 1.377 . S
C1710 C1709 1.373 . S
C1711 C1695 1.377 . S
C1711 C1709 1.389 . S
C1711 C1712 1.524 . S
C1712 C1711 1.524 . S
C1712 C1713 1.397 . S
C1712 C1717 1.363 . S
C1713 H1684 0.950 . S
C1713 C1712 1.397 . S
C1713 C1714 1.334 . S
C1714 H1685 0.950 . S
C1714 C1713 1.334 . S
C1714 C1715 1.287 . S
C1715 C1714 1.287 . S
C1715 C1716 1.524 . S
C1715 H1718 0.999 . S
C1716 H1686 0.950 . S
C1716 C1715 1.524 . S
C1716 C1717 1.415 . S
C1717 H1687 0.950 . S
C1717 C1712 1.363 . S
C1717 C1716 1.415 . S
H1718 C1715 0.999 . S
H1719 C1700 0.913 . S
H1720 C1738 0.951 . S
H1721 C1740 0.959 1_545 S
H1722 C1742 0.950 . S
H1723 C1743 0.950 . S
H1724 C1745 0.950 . S
H1725 C1748 0.950 . S
H1726 C1749 0.950 . S
H1727 C1751 0.950 . S
H1728 C1752 0.950 . S
H1729 C1753 0.951 . S
H1730 C1755 0.951 . S
H1731 C1757 0.950 . S
H1732 C1758 0.950 . S
H1733 C1760 0.950 . S
H1734 C1763 0.950 . S
H1735 C1764 0.950 1_545 S
H1736 C1766 0.950 . S
H1737 C1767 0.950 . S
C1738 H1720 0.951 . S
C1738 C1739 1.366 1_545 S
C1738 C1740 1.354 1_545 S
C1739 C1738 1.366 1_565 S
C1739 C1743 1.385 . S
C1740 H1721 0.959 1_565 S
C1740 C1738 1.354 1_565 S
C1740 C1741 1.396 . S
C1741 C1740 1.396 . S
C1741 C1742 1.414 . S
C1741 C1744 1.499 . S
C1742 H1722 0.950 . S
C1742 C1741 1.414 . S
C1742 C1743 1.374 . S
C1743 H1723 0.950 . S
C1743 C1739 1.385 . S
C1743 C1742 1.374 . S
C1744 C1741 1.499 . S
C1744 C1745 1.373 . S
C1744 C1746 1.389 . S
C1745 H1724 0.950 . S
C1745 C1744 1.373 . S
C1745 C1761 1.377 . S
C1746 C1744 1.389 . S
C1746 C1747 1.524 . S
C1746 C1760 1.377 . S
C1747 C1746 1.524 . S
C1747 C1748 1.397 . S
C1747 C1752 1.363 . S
C1748 H1725 0.950 . S
C1748 C1747 1.397 . S
C1748 C1749 1.334 . S
C1749 H1726 0.950 . S
C1749 C1748 1.334 . S
C1749 C1750 1.287 . S
C1750 C1749 1.287 . S
C1750 C1751 1.524 . S
C1750 H1769 0.913 . S
C1751 H1727 0.950 . S
C1751 C1750 1.524 . S
C1751 C1752 1.415 . S
C1752 H1728 0.950 . S
C1752 C1747 1.363 . S
C1752 C1751 1.415 . S
C1753 H1729 0.951 . S
C1753 C1754 1.366 . S
C1753 C1755 1.388 . S
C1754 C1753 1.366 . S
C1754 C1758 1.385 . S
C1755 H1730 0.951 . S
C1755 C1753 1.388 . S
C1755 C1756 1.366 . S
C1756 C1755 1.366 . S
C1756 C1757 1.414 . S
C1756 C1759 1.499 . S
C1757 H1731 0.950 . S
C1757 C1756 1.414 . S
C1757 C1758 1.374 . S
C1758 H1732 0.950 . S
C1758 C1754 1.385 . S
C1758 C1757 1.374 . S
C1759 C1756 1.499 . S
C1759 C1760 1.373 . S
C1759 C1761 1.389 . S
C1760 H1733 0.950 . S
C1760 C1746 1.377 . S
C1760 C1759 1.373 . S
C1761 C1745 1.377 . S
C1761 C1759 1.389 . S
C1761 C1762 1.524 . S
C1762 C1761 1.524 . S
C1762 C1763 1.397 . S
C1762 C1767 1.363 . S
C1763 H1734 0.950 . S
C1763 C1762 1.397 . S
C1763 C1764 1.334 . S
C1764 H1735 0.950 1_565 S
C1764 C1763 1.334 . S
C1764 C1765 1.287 . S
C1765 C1764 1.287 . S
C1765 C1766 1.524 . S
C1765 H1768 0.999 . S
C1766 H1736 0.950 . S
C1766 C1765 1.524 . S
C1766 C1767 1.415 . S
C1767 H1737 0.950 . S
C1767 C1762 1.363 . S
C1767 C1766 1.415 . S
H1768 C1765 0.999 . S
H1769 C1750 0.913 . S
H1770 C1788 0.951 . S
H1771 C1790 0.951 . S
H1772 C1792 0.950 . S
H1773 C1793 0.950 . S
H1774 C1795 0.950 . S
H1775 C1798 0.950 . S
H1776 C1799 0.950 . S
H1777 C1801 0.950 . S
H1778 C1802 0.950 . S
H1779 C1803 0.951 . S
H1780 C1805 0.951 . S
H1781 C1807 0.950 . S
H1782 C1808 0.950 . S
H1783 C1810 0.950 . S
H1784 C1813 0.950 . S
H1785 C1814 0.950 . S
H1786 C1816 0.950 . S
H1787 C1817 0.950 . S
C1788 H1770 0.951 . S
C1788 C1789 1.366 . S
C1788 C1790 1.388 . S
C1789 C1788 1.366 . S
C1789 C1793 1.385 . S
C1790 H1771 0.951 . S
C1790 C1788 1.388 . S
C1790 C1791 1.366 . S
C1791 C1790 1.366 . S
C1791 C1792 1.414 . S
C1791 C1794 1.499 . S
C1792 H1772 0.950 . S
C1792 C1791 1.414 . S
C1792 C1793 1.374 . S
C1793 H1773 0.950 . S
C1793 C1789 1.385 . S
C1793 C1792 1.374 . S
C1794 C1791 1.499 . S
C1794 C1795 1.373 . S
C1794 C1796 1.389 . S
C1795 H1774 0.950 . S
C1795 C1794 1.373 . S
C1795 C1811 1.377 . S
C1796 C1794 1.389 . S
C1796 C1797 1.524 . S
C1796 C1810 1.377 . S
C1797 C1796 1.524 . S
C1797 C1798 1.397 . S
C1797 C1802 1.363 . S
C1798 H1775 0.950 . S
C1798 C1797 1.397 . S
C1798 C1799 1.334 . S
C1799 H1776 0.950 . S
C1799 C1798 1.334 . S
C1799 C1800 1.287 . S
C1800 C1799 1.287 . S
C1800 C1801 1.524 . S
C1800 H1819 0.913 . S
C1801 H1777 0.950 . S
C1801 C1800 1.524 . S
C1801 C1802 1.415 . S
C1802 H1778 0.950 . S
C1802 C1797 1.363 . S
C1802 C1801 1.415 . S
C1803 H1779 0.951 . S
C1803 C1804 1.366 . S
C1803 C1805 1.388 . S
C1804 C1803 1.366 . S
C1804 C1808 1.385 . S
C1805 H1780 0.951 . S
C1805 C1803 1.388 . S
C1805 C1806 1.366 . S
C1806 C1805 1.366 . S
C1806 C1807 1.414 . S
C1806 C1809 1.499 . S
C1807 H1781 0.950 . S
C1807 C1806 1.414 . S
C1807 C1808 1.374 . S
C1808 H1782 0.950 . S
C1808 C1804 1.385 . S
C1808 C1807 1.374 . S
C1809 C1806 1.499 . S
C1809 C1810 1.373 . S
C1809 C1811 1.389 . S
C1810 H1783 0.950 . S
C1810 C1796 1.377 . S
C1810 C1809 1.373 . S
C1811 C1795 1.377 . S
C1811 C1809 1.389 . S
C1811 C1812 1.524 . S
C1812 C1811 1.524 . S
C1812 C1813 1.397 . S
C1812 C1817 1.363 . S
C1813 H1784 0.950 . S
C1813 C1812 1.397 . S
C1813 C1814 1.334 . S
C1814 H1785 0.950 . S
C1814 C1813 1.334 . S
C1814 C1815 1.287 . S
C1815 C1814 1.287 . S
C1815 C1816 1.524 . S
C1815 H1818 0.999 . S
C1816 H1786 0.950 . S
C1816 C1815 1.524 . S
C1816 C1817 1.415 . S
C1817 H1787 0.950 . S
C1817 C1812 1.363 . S
C1817 C1816 1.415 . S
H1818 C1815 0.999 . S
H1819 C1800 0.913 . S
H1820 C1838 0.951 . S
H1821 C1840 0.951 . S
H1822 C1842 0.950 . S
H1823 C1843 0.950 . S
H1824 C1845 0.950 . S
H1825 C1848 0.950 . S
H1826 C1849 0.950 . S
H1827 C1851 0.950 . S
H1828 C1852 0.950 . S
H1829 C1853 0.951 . S
H1830 C1855 0.951 . S
H1831 C1857 0.950 . S
H1832 C1858 0.950 . S
H1833 C1860 0.950 . S
H1834 C1863 0.950 . S
H1835 C1864 0.950 . S
H1836 C1866 0.950 . S
H1837 C1867 0.950 . S
C1838 H1820 0.951 . S
C1838 C1839 1.366 . S
C1838 C1840 1.388 . S
C1839 C1838 1.366 . S
C1839 C1843 1.385 . S
C1840 H1821 0.951 . S
C1840 C1838 1.388 . S
C1840 C1841 1.366 . S
C1841 C1840 1.366 . S
C1841 C1842 1.414 . S
C1841 C1844 1.499 . S
C1842 H1822 0.950 . S
C1842 C1841 1.414 . S
C1842 C1843 1.374 . S
C1843 H1823 0.950 . S
C1843 C1839 1.385 . S
C1843 C1842 1.374 . S
C1844 C1841 1.499 . S
C1844 C1845 1.373 . S
C1844 C1846 1.389 . S
C1845 H1824 0.950 . S
C1845 C1844 1.373 . S
C1845 C1861 1.377 . S
C1846 C1844 1.389 . S
C1846 C1847 1.524 . S
C1846 C1860 1.377 . S
C1847 C1846 1.524 . S
C1847 C1848 1.397 . S
C1847 C1852 1.363 . S
C1848 H1825 0.950 . S
C1848 C1847 1.397 . S
C1848 C1849 1.334 . S
C1849 H1826 0.950 . S
C1849 C1848 1.334 . S
C1849 C1850 1.287 . S
C1850 C1849 1.287 . S
C1850 C1851 1.524 . S
C1850 H1869 0.913 . S
C1851 H1827 0.950 . S
C1851 C1850 1.524 . S
C1851 C1852 1.415 . S
C1852 H1828 0.950 . S
C1852 C1847 1.363 . S
C1852 C1851 1.415 . S
C1853 H1829 0.951 . S
C1853 C1854 1.366 . S
C1853 C1855 1.388 . S
C1854 C1853 1.366 . S
C1854 C1858 1.385 . S
C1855 H1830 0.951 . S
C1855 C1853 1.388 . S
C1855 C1856 1.366 . S
C1856 C1855 1.366 . S
C1856 C1857 1.414 . S
C1856 C1859 1.499 . S
C1857 H1831 0.950 . S
C1857 C1856 1.414 . S
C1857 C1858 1.374 . S
C1858 H1832 0.950 . S
C1858 C1854 1.385 . S
C1858 C1857 1.374 . S
C1859 C1856 1.499 . S
C1859 C1860 1.373 . S
C1859 C1861 1.389 . S
C1860 H1833 0.950 . S
C1860 C1846 1.377 . S
C1860 C1859 1.373 . S
C1861 C1845 1.377 . S
C1861 C1859 1.389 . S
C1861 C1862 1.524 . S
C1862 C1861 1.524 . S
C1862 C1863 1.397 . S
C1862 C1867 1.363 . S
C1863 H1834 0.950 . S
C1863 C1862 1.397 . S
C1863 C1864 1.334 . S
C1864 H1835 0.950 . S
C1864 C1863 1.334 . S
C1864 C1865 1.287 . S
C1865 C1864 1.287 . S
C1865 C1866 1.524 . S
C1865 H1868 0.999 . S
C1866 H1836 0.950 . S
C1866 C1865 1.524 . S
C1866 C1867 1.415 . S
C1867 H1837 0.950 . S
C1867 C1862 1.363 . S
C1867 C1866 1.415 . S
H1868 C1865 0.999 . S
H1869 C1850 0.913 . S
H1870 C1888 0.951 . S
H1871 C1890 0.951 . S
H1872 C1892 0.950 . S
H1873 C1893 0.950 . S
H1874 C1895 0.950 . S
H1875 C1898 0.950 . S
H1876 C1899 0.950 . S
H1877 C1901 0.950 . S
H1878 C1902 0.950 . S
H1879 C1903 0.951 . S
H1880 C1905 0.951 . S
H1881 C1907 0.950 . S
H1882 C1908 0.950 . S
H1883 C1910 0.950 . S
H1884 C1913 0.950 . S
H1885 C1914 0.950 . S
H1886 C1916 0.950 . S
H1887 C1917 0.950 . S
C1888 H1870 0.951 . S
C1888 C1889 1.366 . S
C1888 C1890 1.388 . S
C1889 C1888 1.366 . S
C1889 C1893 1.385 . S
C1890 H1871 0.951 . S
C1890 C1888 1.388 . S
C1890 C1891 1.366 1_565 S
C1891 C1890 1.366 1_545 S
C1891 C1892 1.414 . S
C1891 C1894 1.499 . S
C1892 H1872 0.950 . S
C1892 C1891 1.414 . S
C1892 C1893 1.374 1_545 S
C1893 H1873 0.950 . S
C1893 C1889 1.385 . S
C1893 C1892 1.374 1_565 S
C1894 C1891 1.499 . S
C1894 C1895 1.373 . S
C1894 C1896 1.389 . S
C1895 H1874 0.950 . S
C1895 C1894 1.373 . S
C1895 C1911 1.377 . S
C1896 C1894 1.389 . S
C1896 C1897 1.524 . S
C1896 C1910 1.377 . S
C1897 C1896 1.524 . S
C1897 C1898 1.397 . S
C1897 C1902 1.363 . S
C1898 H1875 0.950 . S
C1898 C1897 1.397 . S
C1898 C1899 1.334 . S
C1899 H1876 0.950 . S
C1899 C1898 1.334 . S
C1899 C1900 1.287 . S
C1900 C1899 1.287 . S
C1900 C1901 1.524 . S
C1900 H1919 0.913 . S
C1901 H1877 0.950 . S
C1901 C1900 1.524 . S
C1901 C1902 1.415 . S
C1902 H1878 0.950 . S
C1902 C1897 1.363 . S
C1902 C1901 1.415 . S
C1903 H1879 0.951 . S
C1903 C1904 1.366 . S
C1903 C1905 1.388 . S
C1904 C1903 1.366 . S
C1904 C1908 1.385 . S
C1905 H1880 0.951 . S
C1905 C1903 1.388 . S
C1905 C1906 1.366 . S
C1906 C1905 1.366 . S
C1906 C1907 1.414 . S
C1906 C1909 1.499 . S
C1907 H1881 0.950 . S
C1907 C1906 1.414 . S
C1907 C1908 1.374 . S
C1908 H1882 0.950 . S
C1908 C1904 1.385 . S
C1908 C1907 1.374 . S
C1909 C1906 1.499 . S
C1909 C1910 1.373 . S
C1909 C1911 1.389 . S
C1910 H1883 0.950 . S
C1910 C1896 1.377 . S
C1910 C1909 1.373 . S
C1911 C1895 1.377 . S
C1911 C1909 1.389 . S
C1911 C1912 1.524 . S
C1912 C1911 1.524 . S
C1912 C1913 1.397 . S
C1912 C1917 1.363 . S
C1913 H1884 0.950 . S
C1913 C1912 1.397 . S
C1913 C1914 1.334 . S
C1914 H1885 0.950 . S
C1914 C1913 1.334 . S
C1914 C1915 1.287 . S
C1915 C1914 1.287 . S
C1915 C1916 1.524 . S
C1915 H1918 0.999 . S
C1916 H1886 0.950 . S
C1916 C1915 1.524 . S
C1916 C1917 1.415 . S
C1917 H1887 0.950 . S
C1917 C1912 1.363 . S
C1917 C1916 1.415 . S
H1918 C1915 0.999 . S
H1919 C1900 0.913 . S
H1920 C1938 0.951 . S
H1921 C1940 0.951 . S
H1922 C1942 0.950 . S
H1923 C1943 0.950 . S
H1924 C1945 0.950 . S
H1925 C1948 0.950 . S
H1926 C1949 0.950 . S
H1927 C1951 0.950 . S
H1928 C1952 0.950 . S
H1929 C1953 0.951 . S
H1930 C1955 0.951 . S
H1931 C1957 0.950 . S
H1932 C1958 0.950 . S
H1933 C1960 0.950 . S
H1934 C1963 0.950 . S
H1935 C1964 0.950 . S
H1936 C1966 0.950 . S
H1937 C1967 0.950 . S
C1938 H1920 0.951 . S
C1938 C1939 1.366 . S
C1938 C1940 1.388 . S
C1939 C1938 1.366 . S
C1939 C1943 1.385 1_565 S
C1940 H1921 0.951 . S
C1940 C1938 1.388 . S
C1940 C1941 1.366 1_565 S
C1941 C1940 1.366 1_545 S
C1941 C1942 1.414 . S
C1941 C1944 1.499 . S
C1942 H1922 0.950 . S
C1942 C1941 1.414 . S
C1942 C1943 1.374 . S
C1943 H1923 0.950 . S
C1943 C1939 1.385 1_545 S
C1943 C1942 1.374 . S
C1944 C1941 1.499 . S
C1944 C1945 1.373 . S
C1944 C1946 1.389 . S
C1945 H1924 0.950 . S
C1945 C1944 1.373 . S
C1945 C1961 1.377 . S
C1946 C1944 1.389 . S
C1946 C1947 1.524 . S
C1946 C1960 1.377 . S
C1947 C1946 1.524 . S
C1947 C1948 1.397 . S
C1947 C1952 1.363 1_545 S
C1948 H1925 0.950 . S
C1948 C1947 1.397 . S
C1948 C1949 1.334 1_545 S
C1949 H1926 0.950 . S
C1949 C1948 1.334 1_565 S
C1949 C1950 1.287 . S
C1950 C1949 1.287 . S
C1950 C1951 1.524 . S
C1950 H1969 0.913 . S
C1951 H1927 0.950 . S
C1951 C1950 1.524 . S
C1951 C1952 1.415 . S
C1952 H1928 0.950 . S
C1952 C1947 1.363 1_565 S
C1952 C1951 1.415 . S
C1953 H1929 0.951 . S
C1953 C1954 1.366 . S
C1953 C1955 1.388 . S
C1954 C1953 1.366 . S
C1954 C1958 1.385 . S
C1955 H1930 0.951 . S
C1955 C1953 1.388 . S
C1955 C1956 1.366 . S
C1956 C1955 1.366 . S
C1956 C1957 1.414 . S
C1956 C1959 1.499 . S
C1957 H1931 0.950 . S
C1957 C1956 1.414 . S
C1957 C1958 1.374 . S
C1958 H1932 0.950 . S
C1958 C1954 1.385 . S
C1958 C1957 1.374 . S
C1959 C1956 1.499 . S
C1959 C1960 1.373 . S
C1959 C1961 1.389 . S
C1960 H1933 0.950 . S
C1960 C1946 1.377 . S
C1960 C1959 1.373 . S
C1961 C1945 1.377 . S
C1961 C1959 1.389 . S
C1961 C1962 1.524 . S
C1962 C1961 1.524 . S
C1962 C1963 1.397 . S
C1962 C1967 1.363 . S
C1963 H1934 0.950 . S
C1963 C1962 1.397 . S
C1963 C1964 1.334 . S
C1964 H1935 0.950 . S
C1964 C1963 1.334 . S
C1964 C1965 1.287 . S
C1965 C1964 1.287 . S
C1965 C1966 1.524 . S
C1965 H1968 0.999 . S
C1966 H1936 0.950 . S
C1966 C1965 1.524 . S
C1966 C1967 1.415 . S
C1967 H1937 0.950 . S
C1967 C1962 1.363 . S
C1967 C1966 1.415 . S
H1968 C1965 0.999 . S
H1969 C1950 0.913 . S
H1970 C1988 0.951 . S
H1971 C1990 0.951 . S
H1972 C1992 0.950 . S
H1973 C1993 0.950 . S
H1974 C1995 0.950 . S
H1975 C1998 0.950 . S
H1976 C1999 0.950 . S
H1977 C2001 0.950 . S
H1978 C2002 0.950 . S
H1979 C2003 0.951 . S
H1980 C2005 0.951 . S
H1981 C2007 0.950 . S
H1982 C2008 0.950 . S
H1983 C2010 0.950 . S
H1984 C2013 0.950 . S
H1985 C2014 0.950 . S
H1986 C2016 0.950 . S
H1987 C2017 0.950 . S
C1988 H1970 0.951 . S
C1988 C1989 1.366 . S
C1988 C1990 1.388 . S
C1989 C1988 1.366 . S
C1989 C1993 1.385 . S
C1990 H1971 0.951 . S
C1990 C1988 1.388 . S
C1990 C1991 1.366 . S
C1991 C1990 1.366 . S
C1991 C1992 1.414 . S
C1991 C1994 1.499 . S
C1992 H1972 0.950 . S
C1992 C1991 1.414 . S
C1992 C1993 1.374 . S
C1993 H1973 0.950 . S
C1993 C1989 1.385 . S
C1993 C1992 1.374 . S
C1994 C1991 1.499 . S
C1994 C1995 1.373 . S
C1994 C1996 1.389 . S
C1995 H1974 0.950 . S
C1995 C1994 1.373 . S
C1995 C2011 1.377 . S
C1996 C1994 1.389 . S
C1996 C1997 1.524 . S
C1996 C2010 1.377 . S
C1997 C1996 1.524 . S
C1997 C1998 1.397 . S
C1997 C2002 1.363 . S
C1998 H1975 0.950 . S
C1998 C1997 1.397 . S
C1998 C1999 1.334 . S
C1999 H1976 0.950 . S
C1999 C1998 1.334 . S
C1999 C2000 1.287 . S
C2000 C1999 1.287 . S
C2000 C2001 1.524 . S
C2000 H2019 0.913 . S
C2001 H1977 0.950 . S
C2001 C2000 1.524 . S
C2001 C2002 1.415 . S
C2002 H1978 0.950 . S
C2002 C1997 1.363 . S
C2002 C2001 1.415 . S
C2003 H1979 0.951 . S
C2003 C2004 1.366 . S
C2003 C2005 1.388 . S
C2004 C2003 1.366 . S
C2004 C2008 1.385 . S
C2005 H1980 0.951 . S
C2005 C2003 1.388 . S
C2005 C2006 1.366 . S
C2006 C2005 1.366 . S
C2006 C2007 1.414 . S
C2006 C2009 1.499 . S
C2007 H1981 0.950 . S
C2007 C2006 1.414 . S
C2007 C2008 1.374 . S
C2008 H1982 0.950 . S
C2008 C2004 1.385 . S
C2008 C2007 1.374 . S
C2009 C2006 1.499 . S
C2009 C2010 1.373 . S
C2009 C2011 1.389 . S
C2010 H1983 0.950 . S
C2010 C1996 1.377 . S
C2010 C2009 1.373 . S
C2011 C1995 1.377 . S
C2011 C2009 1.389 . S
C2011 C2012 1.524 . S
C2012 C2011 1.524 . S
C2012 C2013 1.397 . S
C2012 C2017 1.363 . S
C2013 H1984 0.950 . S
C2013 C2012 1.397 . S
C2013 C2014 1.334 . S
C2014 H1985 0.950 . S
C2014 C2013 1.334 . S
C2014 C2015 1.287 . S
C2015 C2014 1.287 . S
C2015 C2016 1.524 . S
C2015 H2018 0.999 . S
C2016 H1986 0.950 . S
C2016 C2015 1.524 . S
C2016 C2017 1.415 . S
C2017 H1987 0.950 . S
C2017 C2012 1.363 . S
C2017 C2016 1.415 . S
H2018 C2015 0.999 . S
H2019 C2000 0.913 . S
H2020 C2038 0.951 . S
H2021 C2040 0.951 . S
H2022 C2042 0.950 . S
H2023 C2043 0.950 . S
H2024 C2045 0.950 . S
H2025 C2048 0.950 . S
H2026 C2049 0.950 . S
H2027 C2051 0.950 . S
H2028 C2052 0.950 . S
H2029 C2053 0.951 . S
H2030 C2055 0.951 . S
H2031 C2057 0.950 . S
H2032 C2058 0.950 . S
H2033 C2060 0.950 . S
H2034 C2063 0.950 . S
H2035 C2064 0.950 . S
H2036 C2066 0.950 . S
H2037 C2067 0.950 . S
C2038 H2020 0.951 . S
C2038 C2039 1.366 . S
C2038 C2040 1.388 . S
C2039 C2038 1.366 . S
C2039 C2043 1.385 . S
C2040 H2021 0.951 . S
C2040 C2038 1.388 . S
C2040 C2041 1.366 . S
C2041 C2040 1.366 . S
C2041 C2042 1.414 . S
C2041 C2044 1.499 . S
C2042 H2022 0.950 . S
C2042 C2041 1.414 . S
C2042 C2043 1.374 . S
C2043 H2023 0.950 . S
C2043 C2039 1.385 . S
C2043 C2042 1.374 . S
C2044 C2041 1.499 . S
C2044 C2045 1.373 . S
C2044 C2046 1.389 . S
C2045 H2024 0.950 . S
C2045 C2044 1.373 . S
C2045 C2061 1.377 . S
C2046 C2044 1.389 . S
C2046 C2047 1.524 . S
C2046 C2060 1.377 . S
C2047 C2046 1.524 . S
C2047 C2048 1.397 . S
C2047 C2052 1.363 . S
C2048 H2025 0.950 . S
C2048 C2047 1.397 . S
C2048 C2049 1.334 . S
C2049 H2026 0.950 . S
C2049 C2048 1.334 . S
C2049 C2050 1.287 . S
C2050 C2049 1.287 . S
C2050 C2051 1.524 . S
C2050 H2069 0.913 . S
C2051 H2027 0.950 . S
C2051 C2050 1.524 . S
C2051 C2052 1.415 . S
C2052 H2028 0.950 . S
C2052 C2047 1.363 . S
C2052 C2051 1.415 . S
C2053 H2029 0.951 . S
C2053 C2054 1.366 . S
C2053 C2055 1.388 . S
C2054 C2053 1.366 . S
C2054 C2058 1.385 . S
C2055 H2030 0.951 . S
C2055 C2053 1.388 . S
C2055 C2056 1.366 . S
C2056 C2055 1.366 . S
C2056 C2057 1.414 . S
C2056 C2059 1.499 . S
C2057 H2031 0.950 . S
C2057 C2056 1.414 . S
C2057 C2058 1.374 . S
C2058 H2032 0.950 . S
C2058 C2054 1.385 . S
C2058 C2057 1.374 . S
C2059 C2056 1.499 . S
C2059 C2060 1.373 . S
C2059 C2061 1.389 . S
C2060 H2033 0.950 . S
C2060 C2046 1.377 . S
C2060 C2059 1.373 . S
C2061 C2045 1.377 . S
C2061 C2059 1.389 . S
C2061 C2062 1.524 . S
C2062 C2061 1.524 . S
C2062 C2063 1.397 . S
C2062 C2067 1.363 . S
C2063 H2034 0.950 . S
C2063 C2062 1.397 . S
C2063 C2064 1.334 . S
C2064 H2035 0.950 . S
C2064 C2063 1.334 . S
C2064 C2065 1.287 . S
C2065 C2064 1.287 . S
C2065 C2066 1.524 . S
C2065 H2068 0.999 . S
C2066 H2036 0.950 . S
C2066 C2065 1.524 . S
C2066 C2067 1.415 . S
C2067 H2037 0.950 . S
C2067 C2062 1.363 . S
C2067 C2066 1.415 . S
H2068 C2065 0.999 . S
H2069 C2050 0.913 . S
C739 C135 1.501 . S
C754 C15 1.501 . S
C789 C55 1.495 . S
C804 C175 1.496 . S
C839 C215 1.494 . S
C854 C95 1.494 . S
C889 C375 1.499 . S
C904 C255 1.498 . S
C939 C415 1.497 . S
C954 C295 1.497 . S
C989 C335 1.502 . S
C1004 C455 1.501 . S
C1039 C615 1.502 . S
C1054 C495 1.502 . S
C1089 C655 1.503 . S
C1104 C535 1.503 . S
C1139 C575 1.509 . S
C1154 C695 1.509 . S
C1189 C341 1.496 . S
C1204 C2 1.497 . S
C1239 C242 1.486 . S
C1254 C61 1.487 . S
C1289 C282 1.499 . S
C1304 C82 1.500 . S
C1339 C42 1.501 . S
C1354 C562 1.505 . S
C1389 C482 1.479 . S
C1404 C101 1.482 . S
C1439 C21 1.489 . S
C1454 C541 1.483 . S
C1489 C682 1.498 . S
C1504 C122 1.494 . S
C1539 C621 1.494 . S
C1554 C162 1.491 . S
C1589 C221 1.477 . S
C1604 C661 1.479 . S
C1639 C442 1.481 . S
C1654 C181 1.483 . S
C1689 C362 1.498 . S
C1704 C202 1.495 . S
C1739 C141 1.497 1_565 S
C1754 C402 1.495 . S
C1789 C261 1.482 . S
C1804 C581 1.487 . S
C1839 C501 1.479 . S
C1854 C301 1.480 . S
C1889 C322 1.499 . S
C1904 C522 1.495 . S
C1939 C421 1.475 . S
C1954 C701 1.479 . S
C1989 C461 1.488 . S
C2004 C602 1.488 . S
C2039 C381 1.489 . S
C2054 C642 1.487 . S
