# Generated by pormake.
# Topology qtz-h, (3)-cn, num edge types: 1
# Building blocks:
#     Node 0, Type 0, BuildingBlock: OLANEW_clean_sbu_2, # of connection points: 3
#     Node 1, Type 0, BuildingBlock: OLANEW_clean_sbu_2, # of connection points: 3
#     Node 2, Type 0, BuildingBlock: OLANEW_clean_sbu_2, # of connection points: 3
#     Node 3, Type 0, BuildingBlock: OLANEW_clean_sbu_2, # of connection points: 3
#     Node 4, Type 0, BuildingBlock: OLANEW_clean_sbu_2, # of connection points: 3
#     Node 5, Type 0, BuildingBlock: OLANEW_clean_sbu_2, # of connection points: 3
#     Node 6, Type 0, BuildingBlock: OLANEW_clean_sbu_2, # of connection points: 3
#     Node 7, Type 0, BuildingBlock: OLANEW_clean_sbu_2, # of connection points: 3
#     Node 8, Type 0, BuildingBlock: OLANEW_clean_sbu_2, # of connection points: 3
#     Node 9, Type 0, BuildingBlock: OLANEW_clean_sbu_2, # of connection points: 3
#     Node 10, Type 0, BuildingBlock: OLANEW_clean_sbu_2, # of connection points: 3
#     Node 11, Type 0, BuildingBlock: OLANEW_clean_sbu_2, # of connection points: 3
#     Edge 12, Type (0, 0), BuildingBlock: EZIPEK_clean_linker_0, # of connection points: 2
#     Edge 13, Type (0, 0), BuildingBlock: EZIPEK_clean_linker_0, # of connection points: 2
#     Edge 14, Type (0, 0), BuildingBlock: EZIPEK_clean_linker_0, # of connection points: 2
#     Edge 15, Type (0, 0), BuildingBlock: EZIPEK_clean_linker_0, # of connection points: 2
#     Edge 16, Type (0, 0), BuildingBlock: EZIPEK_clean_linker_0, # of connection points: 2
#     Edge 17, Type (0, 0), BuildingBlock: EZIPEK_clean_linker_0, # of connection points: 2
#     Edge 18, Type (0, 0), BuildingBlock: EZIPEK_clean_linker_0, # of connection points: 2
#     Edge 19, Type (0, 0), BuildingBlock: EZIPEK_clean_linker_0, # of connection points: 2
#     Edge 20, Type (0, 0), BuildingBlock: EZIPEK_clean_linker_0, # of connection points: 2
#     Edge 21, Type (0, 0), BuildingBlock: EZIPEK_clean_linker_0, # of connection points: 2
#     Edge 22, Type (0, 0), BuildingBlock: EZIPEK_clean_linker_0, # of connection points: 2
#     Edge 23, Type (0, 0), BuildingBlock: EZIPEK_clean_linker_0, # of connection points: 2
#     Edge 24, Type (0, 0), BuildingBlock: EZIPEK_clean_linker_0, # of connection points: 2
#     Edge 25, Type (0, 0), BuildingBlock: EZIPEK_clean_linker_0, # of connection points: 2
#     Edge 26, Type (0, 0), BuildingBlock: EZIPEK_clean_linker_0, # of connection points: 2
#     Edge 27, Type (0, 0), BuildingBlock: EZIPEK_clean_linker_0, # of connection points: 2
#     Edge 28, Type (0, 0), BuildingBlock: EZIPEK_clean_linker_0, # of connection points: 2
#     Edge 29, Type (0, 0), BuildingBlock: EZIPEK_clean_linker_0, # of connection points: 2
# Relax obj value: 0.006
# Max RMSD: 0.017
# Mean RMSD: 0.017
data_MOF--net-qtz-h--node1-OLANEW_clean_sbu_2--edge1-EZIPEK_clean_linker_0
_symmetry_space_group_name_H-M    P1
_symmetry_Int_Tables_number       1
_symmetry_cell_setting            triclinic
loop_
_symmetry_equiv_pos_as_xyz
'x, y, z'
_cell_length_a     48.419689
_cell_length_b     49.111394
_cell_length_c     48.617553
_cell_angle_alpha  89.111063
_cell_angle_beta   89.200661
_cell_angle_gamma 119.82859
loop_
_atom_site_label
_atom_site_type_symbol
_atom_site_fract_x
_atom_site_fract_y
_atom_site_fract_z
_atom_type_partial_charge
O0 O 0.64212 0.18707 0.08402 0.0
Cd1 Cd 0.66372 0.20373 0.12975 0.0
O2 O 0.60007 0.14519 0.09994 0.0
Cd3 Cd 0.55408 0.10182 0.10712 0.0
O4 O 0.52238 0.05116 0.11314 0.0
C5 C 0.49858 0.0356 0.09808 0.0
O6 O 0.4915 0.05014 0.07896 0.0
C7 C 0.61672 0.16173 0.07914 0.0
C8 C 0.6549 0.25193 0.14977 0.0
O9 O 0.67652 0.2574 0.13153 0.0
O10 O 0.63714 0.22351 0.15844 0.0
O11 O 0.29673 0.54247 0.41827 0.0
Cd12 Cd 0.27216 0.51473 0.46192 0.0
O13 O 0.32572 0.51973 0.42159 0.0
Cd14 Cd 0.36465 0.51257 0.40774 0.0
O15 O 0.40452 0.50384 0.40408 0.0
C16 C 0.39932 0.47598 0.4076 0.0
O17 O 0.37006 0.45299 0.41225 0.0
C18 C 0.31865 0.538 0.40864 0.0
C19 C 0.23668 0.5359 0.49084 0.0
O20 O 0.26696 0.5493 0.49321 0.0
O21 O 0.22323 0.51308 0.4743 0.0
O22 O 0.70492 0.34978 0.73458 0.0
Cd23 Cd 0.72515 0.35955 0.7813 0.0
O24 O 0.73316 0.32754 0.7229 0.0
Cd25 Cd 0.76308 0.3426 0.75872 0.0
O26 O 0.81204 0.36772 0.77227 0.0
C27 C 0.82988 0.39535 0.76251 0.0
O28 O 0.81794 0.40819 0.74615 0.0
C29 C 0.71248 0.33535 0.71723 0.0
C30 C 0.6784 0.31873 0.81905 0.0
O31 O 0.68128 0.34549 0.81279 0.0
O32 O 0.69767 0.31127 0.8077 0.0
O33 O 0.36918 0.79464 0.0678 0.0
Cd34 Cd 0.37625 0.81212 0.11545 0.0
O35 O 0.41941 0.80673 0.06405 0.0
Cd36 Cd 0.43337 0.83813 0.0986 0.0
O37 O 0.45369 0.88778 0.1071 0.0
C38 C 0.43624 0.90029 0.10556 0.0
O39 O 0.40577 0.88274 0.10081 0.0
C40 C 0.39171 0.7945 0.05415 0.0
C41 C 0.38242 0.77091 0.15192 0.0
O42 O 0.40601 0.79106 0.13702 0.0
O43 O 0.35562 0.76996 0.14958 0.0
O44 O 0.52714 0.38606 0.38313 0.0
Cd45 Cd 0.50459 0.37673 0.42997 0.0
O46 O 0.57372 0.42437 0.39562 0.0
Cd47 Cd 0.54942 0.43164 0.43016 0.0
O48 O 0.51071 0.44198 0.43381 0.0
C49 C 0.50309 0.44954 0.4112 0.0
O50 O 0.51889 0.45105 0.38852 0.0
C51 C 0.55634 0.40536 0.37755 0.0
C52 C 0.53425 0.35151 0.46183 0.0
O53 O 0.50878 0.3336 0.44901 0.0
O54 O 0.54531 0.38122 0.46023 0.0
O55 O 0.13413 0.51583 0.76142 0.0
Cd56 Cd 0.1473 0.50433 0.8069 0.0
O57 O 0.08438 0.49679 0.77511 0.0
Cd58 Cd 0.03529 0.48373 0.76665 0.0
O59 O -0.01534 0.46406 0.75945 0.0
C60 C -0.03452 0.4582 0.77969 0.0
O61 O -0.02351 0.46483 0.80469 0.0
C62 C 0.10584 0.50923 0.75632 0.0
C63 C 0.19976 0.55624 0.82808 0.0
O64 O 0.20333 0.53759 0.8122 0.0
O65 O 0.17148 0.55052 0.83404 0.0
O66 O 0.64744 0.29228 0.59586 0.0
Cd67 Cd 0.64046 0.28123 0.54683 0.0
O68 O 0.69903 0.32145 0.58796 0.0
Cd69 Cd 0.74707 0.35091 0.60361 0.0
O70 O 0.79595 0.38221 0.61649 0.0
C71 C 0.81639 0.37318 0.61527 0.0
O72 O 0.80788 0.34493 0.60665 0.0
C73 C 0.67532 0.3095 0.60472 0.0
C74 C 0.60442 0.3035 0.52107 0.0
O75 O 0.591 0.27582 0.53198 0.0
O76 O 0.63469 0.32082 0.52252 0.0
O77 O 0.36919 0.72495 0.93582 0.0
Cd78 Cd 0.36898 0.71255 0.88728 0.0
O79 O 0.37819 0.77163 0.92257 0.0
Cd80 Cd 0.3907 0.82 0.93158 0.0
O81 O 0.41037 0.87003 0.93931 0.0
C82 C 0.44043 0.88762 0.93964 0.0
O83 O 0.45887 0.87545 0.93547 0.0
C84 C 0.37463 0.75224 0.94181 0.0
C85 C 0.3122 0.6625 0.86989 0.0
O86 O 0.33345 0.65782 0.88083 0.0
O87 O 0.31738 0.69071 0.86759 0.0
O88 O 0.61571 0.39977 0.25681 0.0
Cd89 Cd 0.6358 0.40606 0.20938 0.0
O90 O 0.58511 0.41997 0.24734 0.0
Cd91 Cd 0.5527 0.43598 0.26257 0.0
O92 O 0.52175 0.45409 0.2768 0.0
C93 C 0.51058 0.45014 0.3013 0.0
O94 O 0.51692 0.43398 0.31938 0.0
C95 C 0.59634 0.40861 0.26466 0.0
C96 C 0.64074 0.35494 0.19114 0.0
O97 O 0.66099 0.37471 0.20758 0.0
O98 O 0.6178 0.35907 0.18358 0.0
O99 O 0.11556 0.56409 0.63554 0.0
Cd100 Cd 0.12029 0.58509 0.58868 0.0
O101 O 0.06387 0.53285 0.6329 0.0
Cd102 Cd 0.01694 0.49625 0.64832 0.0
O103 O -0.03348 0.45986 0.64942 0.0
C104 C -0.05159 0.46415 0.63344 0.0
O105 O -0.03955 0.48981 0.6179 0.0
C106 C 0.08926 0.54336 0.64645 0.0
C107 C 0.15874 0.57093 0.55581 0.0
O108 O 0.17096 0.59567 0.57022 0.0
O109 O 0.12846 0.55294 0.55666 0.0
O110 O 0.55719 0.18439 0.97412 0.0
Cd111 Cd 0.53279 0.19271 0.93361 0.0
O112 O 0.53995 0.13553 0.96301 0.0
Cd113 Cd 0.5337 0.08835 0.96838 0.0
O114 O 0.51553 0.03761 0.96901 0.0
C115 C 0.49552 0.02177 0.95089 0.0
O116 O 0.48725 0.03628 0.9327 0.0
C117 C 0.55568 0.15817 0.97895 0.0
C118 C 0.57959 0.23351 0.89597 0.0
O119 O 0.56849 0.24403 0.91446 0.0
O120 O 0.56855 0.20383 0.89501 0.0
O121 O 0.38353 0.62193 0.29642 0.0
Cd122 Cd 0.41976 0.65194 0.25794 0.0
O123 O 0.41332 0.60022 0.30082 0.0
Cd124 Cd 0.42818 0.56856 0.31888 0.0
O125 O 0.45181 0.5404 0.31983 0.0
C126 C 0.43664 0.51075 0.32345 0.0
O127 O 0.40577 0.49615 0.32844 0.0
C128 C 0.39011 0.60328 0.3094 0.0
C129 C 0.40336 0.68908 0.22572 0.0
O130 O 0.41605 0.69816 0.24921 0.0
O131 O 0.39732 0.66191 0.21785 0.0
C132 C 0.67467 0.33327 0.1727 0.0
C133 C 0.64417 0.32836 0.18077 0.0
C134 C 0.62021 0.27429 0.16498 0.0
C135 C 0.65101 0.27797 0.16082 0.0
N136 N 0.70754 0.30933 0.16871 0.0
N137 N 0.58872 0.29097 0.19112 0.0
C138 C 0.67829 0.30698 0.16701 0.0
C139 C 0.6171 0.29793 0.17882 0.0
N140 N 0.69999 0.36295 0.16909 0.0
N141 N 0.59398 0.2491 0.15472 0.0
H142 H 0.58578 0.30685 0.20302 0.0
H143 H 0.56921 0.26827 0.19221 0.0
H144 H 0.5952 0.23219 0.1429 0.0
H145 H 0.5715 0.24708 0.15521 0.0
H146 H 0.72191 0.36739 0.16092 0.0
H147 H 0.69812 0.38309 0.17094 0.0
H148 H 0.72748 0.32942 0.17553 0.0
H149 H 0.71111 0.29019 0.16668 0.0
C150 C 0.20064 0.55895 0.49424 0.0
C151 C 0.21748 0.54583 0.5075 0.0
C152 C 0.19492 0.54838 0.55235 0.0
C153 C 0.17927 0.56274 0.53921 0.0
N154 N 0.16986 0.58555 0.49877 0.0
N155 N 0.2334 0.53054 0.54919 0.0
C156 C 0.18277 0.56901 0.51042 0.0
C157 C 0.21556 0.54146 0.5366 0.0
N158 N 0.20171 0.56173 0.46615 0.0
N159 N 0.18892 0.54017 0.57973 0.0
H160 H 0.24675 0.52267 0.53845 0.0
H161 H 0.23639 0.53071 0.57035 0.0
H162 H 0.17434 0.5453 0.59202 0.0
H163 H 0.19647 0.5264 0.59003 0.0
H164 H 0.18703 0.56738 0.45493 0.0
H165 H 0.21639 0.55691 0.45369 0.0
H166 H 0.17423 0.59396 0.47849 0.0
H167 H 0.1563 0.59287 0.50998 0.0
C168 C 0.63698 0.26372 0.88083 0.0
C169 C 0.60484 0.25523 0.87628 0.0
C170 C 0.62065 0.28608 0.83301 0.0
C171 C 0.6531 0.2968 0.83874 0.0
N172 N 0.69271 0.30016 0.87023 0.0
N173 N 0.56604 0.26118 0.8503 0.0
C174 C 0.66146 0.28667 0.86318 0.0
C175 C 0.59668 0.26737 0.85308 0.0
N176 N 0.6441 0.2497 0.90195 0.0
N177 N 0.61259 0.29243 0.80783 0.0
H178 H 0.54755 0.2465 0.86396 0.0
H179 H 0.55934 0.27232 0.83563 0.0
H180 H 0.62934 0.30542 0.79231 0.0
H181 H 0.58922 0.28247 0.80131 0.0
H182 H 0.66653 0.25211 0.90442 0.0
H183 H 0.627 0.2338 0.91603 0.0
H184 H 0.70011 0.2963 0.88917 0.0
H185 H 0.7113 0.31748 0.85815 0.0
C186 C 0.36779 0.69824 0.19393 0.0
C187 C 0.39718 0.71008 0.20759 0.0
C188 C 0.41353 0.76263 0.18877 0.0
C189 C 0.38654 0.74991 0.17178 0.0
N190 N 0.3411 0.70368 0.15433 0.0
N191 N 0.45136 0.7526 0.21201 0.0
C192 C 0.36441 0.71716 0.1733 0.0
C193 C 0.42101 0.74204 0.20341 0.0
N194 N 0.34268 0.66944 0.20125 0.0
N195 N 0.4315 0.79435 0.19182 0.0
H196 H 0.45873 0.73804 0.22119 0.0
H197 H 0.47011 0.77502 0.20702 0.0
H198 H 0.42588 0.8103 0.18275 0.0
H199 H 0.44968 0.80442 0.20597 0.0
H200 H 0.3199 0.6611 0.19367 0.0
H201 H 0.34365 0.65542 0.2171 0.0
H202 H 0.32644 0.67946 0.15306 0.0
H203 H 0.3386 0.71625 0.13803 0.0
C204 C 0.57621 0.33462 0.51976 0.0
C205 C 0.58551 0.31492 0.50632 0.0
C206 C 0.56272 0.32057 0.46338 0.0
C207 C 0.55124 0.33831 0.47733 0.0
N208 N 0.54204 0.35768 0.51978 0.0
N209 N 0.5837 0.28498 0.46686 0.0
C210 C 0.55668 0.34418 0.50581 0.0
C211 C 0.57743 0.30652 0.47861 0.0
N212 N 0.58636 0.34447 0.54573 0.0
N213 N 0.56122 0.31862 0.43535 0.0
H214 H 0.59554 0.27505 0.47699 0.0
H215 H 0.57506 0.27516 0.44786 0.0
H216 H 0.55133 0.32915 0.42328 0.0
H217 H 0.57236 0.30904 0.42373 0.0
H218 H 0.58353 0.36171 0.55543 0.0
H219 H 0.59963 0.33693 0.55697 0.0
H220 H 0.54234 0.35962 0.54108 0.0
H221 H 0.52709 0.36445 0.51038 0.0
C222 C 0.23412 0.58522 0.86754 0.0
C223 C 0.22781 0.58399 0.83903 0.0
C224 C 0.27748 0.63365 0.83064 0.0
C225 C 0.28273 0.63594 0.85937 0.0
N226 N 0.26377 0.61707 0.90572 0.0
N227 N 0.23998 0.6093 0.79411 0.0
C228 C 0.2604 0.61259 0.87801 0.0
C229 C 0.24851 0.60887 0.82075 0.0
N230 N 0.21574 0.55974 0.88441 0.0
N231 N 0.30077 0.65437 0.8127 0.0
H232 H 0.21891 0.59155 0.78612 0.0
H233 H 0.2523 0.62846 0.78061 0.0
H234 H 0.32238 0.67285 0.81907 0.0
H235 H 0.29985 0.65177 0.79146 0.0
H236 H 0.22129 0.55779 0.9047 0.0
H237 H 0.19619 0.53933 0.87753 0.0
H238 H 0.24651 0.6026 0.92031 0.0
H239 H 0.2827 0.63688 0.91412 0.0
C240 C 0.44764 0.95159 0.12548 0.0
C241 C 0.45126 0.93484 0.10355 0.0
C242 C 0.48663 -0.01585 0.07853 0.0
C243 C 0.48161 0.0009 0.09972 0.0
N244 N 0.45413 0.00106 0.14135 0.0
N245 N 0.46915 0.93413 0.05713 0.0
C246 C 0.4612 -0.01525 0.12268 0.0
C247 C 0.46932 0.95083 0.07946 0.0
N248 N 0.43208 0.93588 0.14926 0.0
N249 N 0.5089 9e-05 0.05807 0.0
H250 H 0.45666 0.90965 0.0569 0.0
H251 H 0.47913 0.94439 0.03799 0.0
H252 H 0.52203 0.0245 0.05657 0.0
H253 H 0.51634 -0.0107 0.04384 0.0
H254 H 0.43154 0.94698 0.16716 0.0
H255 H 0.42142 0.91156 0.15176 0.0
H256 H 0.43688 -0.00956 0.15697 0.0
H257 H 0.46386 0.02537 0.13998 0.0
C258 C 0.47723 0.4802 0.42681 0.0
C259 C 0.47662 0.45644 0.41018 0.0
C260 C 0.42738 0.44848 0.38932 0.0
C261 C 0.42617 0.46965 0.40815 0.0
N262 N 0.44679 0.50127 0.44837 0.0
N263 N 0.44849 0.41424 0.37871 0.0
C264 C 0.45025 0.48437 0.42787 0.0
C265 C 0.45102 0.43959 0.39219 0.0
N266 N 0.50409 0.49976 0.44066 0.0
N267 N 0.40667 0.43772 0.36809 0.0
H268 H 0.46476 0.40634 0.3808 0.0
H269 H 0.42868 0.3992 0.36751 0.0
H270 H 0.38916 0.44387 0.36518 0.0
H271 H 0.40879 0.42518 0.35189 0.0
H272 H 0.50704 0.51962 0.45064 0.0
H273 H 0.52471 0.49807 0.4399 0.0
H274 H 0.46191 0.50958 0.46499 0.0
H275 H 0.42711 0.50444 0.4503 0.0
C276 C 0.87927 0.43995 0.78158 0.0
C277 C 0.86454 0.41158 0.76697 0.0
C278 C 0.91545 0.41252 0.76283 0.0
C279 C 0.93076 0.44228 0.77529 0.0
N280 N 0.92842 0.48703 0.79223 0.0
N281 N 0.86952 0.37429 0.73856 0.0
C282 C 0.91299 0.45676 0.78355 0.0
C283 C 0.88288 0.39881 0.75612 0.0
N284 N 0.86096 0.45031 0.79428 0.0
N285 N 0.93159 0.39663 0.75852 0.0
H286 H 0.84575 0.36366 0.73291 0.0
H287 H 0.88272 0.36644 0.72755 0.0
H288 H -0.04471 0.4054 0.76377 0.0
H289 H 0.92062 0.37344 0.75225 0.0
H290 H 0.87 0.46892 0.80774 0.0
H291 H 0.83619 0.43865 0.79317 0.0
H292 H 0.91706 0.49998 0.79573 0.0
H293 H -0.04688 0.50028 0.79358 0.0
C294 C 0.89219 0.42999 0.6518 0.0
C295 C 0.91495 0.43914 0.62981 0.0
C296 C 0.87283 0.40611 0.59831 0.0
C297 C 0.85031 0.39554 0.62053 0.0
N298 N 0.83882 0.39315 0.66919 0.0
N299 N 0.92833 0.4305 0.58401 0.0
C300 C 0.86007 0.40625 0.64755 0.0
C301 C 0.90566 0.42562 0.60359 0.0
N302 N 0.901 0.44481 0.67636 0.0
N303 N 0.86275 0.39863 0.57193 0.0
H304 H -0.0473 0.4441 0.58728 0.0
H305 H 0.92317 0.41858 0.56558 0.0
H306 H 0.83888 0.38457 0.56706 0.0
H307 H 0.87768 0.40863 0.55467 0.0
H308 H 0.88495 0.44163 0.69225 0.0
H309 H 0.92429 0.4621 0.68027 0.0
H310 H 0.84513 0.3975 0.6897 0.0
H311 H 0.81511 0.37591 0.66675 0.0
C312 C 0.44946 0.93376 0.96784 0.0
C313 C 0.45474 0.92195 0.94302 0.0
C314 C 0.49026 -0.02438 0.92552 0.0
C315 C 0.48273 -0.01252 0.94914 0.0
N316 N 0.45286 -0.02156 0.99168 0.0
N317 N 0.47537 0.93124 0.89625 0.0
C318 C 0.46177 -0.03329 0.9701 0.0
C319 C 0.47394 0.94277 0.92134 0.0
N320 N 0.43341 0.91354 0.98945 0.0
N321 N 0.51383 -0.00424 0.90749 0.0
H322 H 0.46329 0.90734 0.89211 0.0
H323 H 0.48603 0.94541 0.87878 0.0
H324 H 0.52658 0.02 0.90999 0.0
H325 H 0.52283 -0.01172 0.89154 0.0
H326 H 0.43087 0.92068 1.00889 0.0
H327 H 0.42427 0.88936 0.98859 0.0
H328 H 0.43515 -0.03546 1.00615 0.0
H329 H 0.46168 0.0024 0.99417 0.0
C330 C 0.44458 0.47048 0.29864 0.0
C331 C 0.45356 0.49278 0.31978 0.0
C332 C 0.49994 0.48682 0.32933 0.0
C333 C 0.49001 0.46338 0.30915 0.0
N334 N 0.44892 0.42744 0.27955 0.0
N335 N 0.48546 0.51705 0.35924 0.0
C336 C 0.46107 0.45352 0.29534 0.0
C337 C 0.47996 0.49939 0.33637 0.0
N338 N 0.42156 0.46673 0.28064 0.0
N339 N 0.52915 0.49824 0.34079 0.0
H340 H 0.47092 0.5261 0.36527 0.0
H341 H 0.50238 0.52012 0.37368 0.0
H342 H 0.54459 0.48988 0.33603 0.0
H343 H 0.53917 0.51767 0.35335 0.0
H344 H 0.41667 0.45348 0.263 0.0
H345 H 0.40927 0.4791 0.28179 0.0
H346 H 0.42627 0.41718 0.27134 0.0
H347 H 0.46017 0.41421 0.27691 0.0
C348 C 0.60677 0.17716 1.00421 0.0
C349 C 0.57372 0.15502 1.00207 0.0
C350 C 0.57643 0.12823 0.04384 0.0
C351 C 0.60572 0.1547 0.04993 0.0
N352 N 0.6557 0.19268 0.02854 0.0
N353 N 0.52655 0.10947 0.02119 0.0
C354 C 0.6232 0.17611 0.02796 0.0
C355 C 0.55846 0.13018 0.02197 0.0
N356 N 0.62239 0.19907 0.98358 0.0
N357 N 0.56792 0.10016 0.05641 0.0
H358 H 0.51185 0.11072 1.00636 0.0
H359 H 0.51439 0.09277 0.03685 0.0
H360 H 0.58329 0.09759 0.06971 0.0
H361 H 0.54821 0.0793 0.05057 0.0
H362 H 0.64494 0.21855 0.98548 0.0
H363 H 0.61245 0.19819 0.9645 0.0
H364 H 0.6703 0.2075 1.01266 0.0
H365 H 0.66837 0.18811 0.04332 0.0
C366 C 0.35336 0.55308 0.33553 0.0
C367 C 0.37177 0.58639 0.33476 0.0
C368 C 0.35687 0.58771 0.38306 0.0
C369 C 0.33662 0.55467 0.38313 0.0
N370 N 0.31214 0.50598 0.35899 0.0
N371 N 0.38964 0.63598 0.35683 0.0
C372 C 0.33408 0.53732 0.35929 0.0
C373 C 0.37295 0.60387 0.35822 0.0
N374 N 0.35425 0.5365 0.31352 0.0
N375 N 0.36209 0.60343 0.40715 0.0
H376 H 0.40424 0.64887 0.34008 0.0
H377 H 0.38787 0.65007 0.37173 0.0
H378 H 0.3509 0.59244 0.42581 0.0
H379 H 0.37935 0.62685 0.40931 0.0
H380 H 0.34485 0.51227 0.31407 0.0
H381 H 0.36606 0.54709 0.29496 0.0
H382 H 0.3065 0.49256 0.34144 0.0
H383 H 0.29755 0.49367 0.37596 0.0
C384 C 0.68019 0.29711 0.68159 0.0
C385 C 0.69855 0.32872 0.68963 0.0
C386 C 0.6946 0.3469 0.64344 0.0
C387 C 0.68051 0.31557 0.63442 0.0
N388 N 0.6626 0.26081 0.64409 0.0
N389 N 0.72646 0.38411 0.6777 0.0
C390 C 0.67366 0.29054 0.65332 0.0
C391 C 0.70636 0.35379 0.67052 0.0
N392 N 0.66866 0.27343 0.70111 0.0
N393 N 0.69622 0.36996 0.62623 0.0
H394 H 0.73562 0.39029 0.69734 0.0
H395 H 0.73607 0.40296 0.66363 0.0
H396 H 0.68755 0.36562 0.6063 0.0
H397 H 0.70331 0.39263 0.63252 0.0
H398 H 0.6525 0.25012 0.69694 0.0
H399 H 0.67291 0.27756 0.72203 0.0
H400 H 0.66073 0.2424 0.6564 0.0
H401 H 0.65763 0.25494 0.62353 0.0
C402 C 0.40855 0.80243 1.00433 0.0
C403 C 0.38683 0.78309 0.02556 0.0
C404 C 0.35502 0.74444 0.99126 0.0
C405 C 0.37891 0.76213 0.97085 0.0
N406 N 0.43267 0.80356 0.96028 0.0
N407 N 0.34272 0.7326 0.03995 0.0
C408 C 0.40698 0.78981 0.97807 0.0
C409 C 0.36093 0.75317 0.01926 0.0
N410 N 0.42966 0.83338 1.00866 0.0
N411 N 0.32628 0.72009 0.98389 0.0
H412 H 0.34689 0.73771 0.06073 0.0
H413 H 0.32556 0.70937 0.03655 0.0
H414 H 0.32072 0.71338 0.96356 0.0
H415 H 0.30694 0.70853 0.9976 0.0
H416 H 0.44397 0.84892 0.99296 0.0
H417 H 0.43028 0.84446 0.02695 0.0
H418 H 0.45474 0.82197 0.96585 0.0
H419 H 0.43302 0.79451 0.9411 0.0
C420 C 0.5843 0.43546 0.33407 0.0
C421 C 0.56938 0.40668 0.34952 0.0
C422 C 0.57196 0.37875 0.30907 0.0
C423 C 0.58848 0.40778 0.29424 0.0
N424 N 0.61767 0.46439 0.29462 0.0
N425 N 0.55607 0.35244 0.35381 0.0
C426 C 0.59695 0.43635 0.30739 0.0
C427 C 0.56529 0.37872 0.33763 0.0
N428 N 0.58481 0.46158 0.34405 0.0
N429 N 0.5615 0.35116 0.2957 0.0
H430 H 0.55189 0.35184 0.37497 0.0
H431 H 0.55572 0.33233 0.34683 0.0
H432 H 0.56588 0.3502 0.27478 0.0
H433 H 0.54628 0.32925 0.30483 0.0
H434 H 0.59231 0.48208 0.33229 0.0
H435 H 0.5748 0.46202 0.36301 0.0
H436 H 0.62733 0.48581 0.30443 0.0
H437 H 0.62775 0.46602 0.27513 0.0
C438 C 0.10285 0.50027 0.70563 0.0
C439 C 0.09795 0.51529 0.72836 0.0
C440 C 0.07969 0.54262 0.69726 0.0
C441 C 0.08894 0.53106 0.67447 0.0
N442 N 0.11065 0.50007 0.65628 0.0
N443 N 0.08454 0.55304 0.74605 0.0
C444 C 0.1008 0.51011 0.67847 0.0
C445 C 0.08671 0.53679 0.72431 0.0
N446 N 0.10834 0.47581 0.71008 0.0
N447 N 0.06436 0.5593 0.693 0.0
H448 H 0.08973 0.54971 0.76614 0.0
H449 H 0.08004 0.57159 0.74396 0.0
H450 H 0.05963 0.5647 0.67342 0.0
H451 H 0.054 0.56554 0.70879 0.0
H452 H 0.10889 0.46178 0.69449 0.0
H453 H 0.10938 0.46757 0.72973 0.0
H454 H 0.12323 0.48804 0.65792 0.0
H455 H 0.1078 0.50529 0.63599 0.0
loop_
_geom_bond_atom_site_label_1
_geom_bond_atom_site_label_2
_geom_bond_distance
_geom_bond_site_symmetry_2
_ccdc_geom_bond_type
O0 Cd1 2.300 . S
O0 C7 1.275 . S
Cd1 O0 2.300 . S
Cd1 O9 2.381 . S
Cd1 O10 2.378 . S
O2 Cd3 2.385 . S
O2 C7 1.255 . S
Cd3 O2 2.385 . S
Cd3 O4 2.317 . S
O4 Cd3 2.317 . S
O4 C5 1.232 . S
C5 O4 1.232 . S
C5 O6 1.218 . S
O6 C5 1.218 . S
C7 O0 1.275 . S
C7 O2 1.255 . S
C8 O9 1.258 . S
C8 O10 1.256 . S
O9 Cd1 2.381 . S
O9 C8 1.258 . S
O10 Cd1 2.378 . S
O10 C8 1.256 . S
O11 Cd12 2.300 . S
O11 C18 1.275 . S
Cd12 O11 2.300 . S
Cd12 O20 2.381 . S
Cd12 O21 2.378 . S
O13 Cd14 2.385 . S
O13 C18 1.255 . S
Cd14 O13 2.385 . S
Cd14 O15 2.317 . S
O15 Cd14 2.317 . S
O15 C16 1.232 . S
C16 O15 1.232 . S
C16 O17 1.218 . S
O17 C16 1.218 . S
C18 O11 1.275 . S
C18 O13 1.255 . S
C19 O20 1.258 . S
C19 O21 1.256 . S
O20 Cd12 2.381 . S
O20 C19 1.258 . S
O21 Cd12 2.378 . S
O21 C19 1.256 . S
O22 Cd23 2.300 . S
O22 C29 1.275 . S
Cd23 O22 2.300 . S
Cd23 O31 2.381 . S
Cd23 O32 2.378 . S
O24 Cd25 2.385 . S
O24 C29 1.255 . S
Cd25 O24 2.385 . S
Cd25 O26 2.317 . S
O26 Cd25 2.317 . S
O26 C27 1.232 . S
C27 O26 1.232 . S
C27 O28 1.218 . S
O28 C27 1.218 . S
C29 O22 1.275 . S
C29 O24 1.255 . S
C30 O31 1.258 . S
C30 O32 1.256 . S
O31 Cd23 2.381 . S
O31 C30 1.258 . S
O32 Cd23 2.378 . S
O32 C30 1.256 . S
O33 Cd34 2.300 . S
O33 C40 1.275 . S
Cd34 O33 2.300 . S
Cd34 O42 2.381 . S
Cd34 O43 2.378 . S
O35 Cd36 2.385 . S
O35 C40 1.255 . S
Cd36 O35 2.385 . S
Cd36 O37 2.317 . S
O37 Cd36 2.317 . S
O37 C38 1.232 . S
C38 O37 1.232 . S
C38 O39 1.218 . S
O39 C38 1.218 . S
C40 O33 1.275 . S
C40 O35 1.255 . S
C41 O42 1.258 . S
C41 O43 1.256 . S
O42 Cd34 2.381 . S
O42 C41 1.258 . S
O43 Cd34 2.378 . S
O43 C41 1.256 . S
O44 Cd45 2.300 . S
O44 C51 1.275 . S
Cd45 O44 2.300 . S
Cd45 O53 2.381 . S
Cd45 O54 2.378 . S
O46 Cd47 2.385 . S
O46 C51 1.255 . S
Cd47 O46 2.385 . S
Cd47 O48 2.317 . S
O48 Cd47 2.317 . S
O48 C49 1.232 . S
C49 O48 1.232 . S
C49 O50 1.218 . S
O50 C49 1.218 . S
C51 O44 1.275 . S
C51 O46 1.255 . S
C52 O53 1.258 . S
C52 O54 1.256 . S
O53 Cd45 2.381 . S
O53 C52 1.258 . S
O54 Cd45 2.378 . S
O54 C52 1.256 . S
O55 Cd56 2.300 . S
O55 C62 1.275 . S
Cd56 O55 2.300 . S
Cd56 O64 2.381 . S
Cd56 O65 2.378 . S
O57 Cd58 2.385 . S
O57 C62 1.255 . S
Cd58 O57 2.385 . S
Cd58 O59 2.317 . S
O59 Cd58 2.317 . S
O59 C60 1.232 . S
C60 O59 1.232 . S
C60 O61 1.218 . S
O61 C60 1.218 . S
C62 O55 1.275 . S
C62 O57 1.255 . S
C63 O64 1.258 . S
C63 O65 1.256 . S
O64 Cd56 2.381 . S
O64 C63 1.258 . S
O65 Cd56 2.378 . S
O65 C63 1.256 . S
O66 Cd67 2.300 . S
O66 C73 1.275 . S
Cd67 O66 2.300 . S
Cd67 O75 2.381 . S
Cd67 O76 2.378 . S
O68 Cd69 2.385 . S
O68 C73 1.255 . S
Cd69 O68 2.385 . S
Cd69 O70 2.317 . S
O70 Cd69 2.317 . S
O70 C71 1.232 . S
C71 O70 1.232 . S
C71 O72 1.218 . S
O72 C71 1.218 . S
C73 O66 1.275 . S
C73 O68 1.255 . S
C74 O75 1.258 . S
C74 O76 1.256 . S
O75 Cd67 2.381 . S
O75 C74 1.258 . S
O76 Cd67 2.378 . S
O76 C74 1.256 . S
O77 Cd78 2.300 . S
O77 C84 1.275 . S
Cd78 O77 2.300 . S
Cd78 O86 2.381 . S
Cd78 O87 2.378 . S
O79 Cd80 2.385 . S
O79 C84 1.255 . S
Cd80 O79 2.385 . S
Cd80 O81 2.317 . S
O81 Cd80 2.317 . S
O81 C82 1.232 . S
C82 O81 1.232 . S
C82 O83 1.218 . S
O83 C82 1.218 . S
C84 O77 1.275 . S
C84 O79 1.255 . S
C85 O86 1.258 . S
C85 O87 1.256 . S
O86 Cd78 2.381 . S
O86 C85 1.258 . S
O87 Cd78 2.378 . S
O87 C85 1.256 . S
O88 Cd89 2.300 . S
O88 C95 1.275 . S
Cd89 O88 2.300 . S
Cd89 O97 2.381 . S
Cd89 O98 2.378 . S
O90 Cd91 2.385 . S
O90 C95 1.255 . S
Cd91 O90 2.385 . S
Cd91 O92 2.317 . S
O92 Cd91 2.317 . S
O92 C93 1.232 . S
C93 O92 1.232 . S
C93 O94 1.218 . S
O94 C93 1.218 . S
C95 O88 1.275 . S
C95 O90 1.255 . S
C96 O97 1.258 . S
C96 O98 1.256 . S
O97 Cd89 2.381 . S
O97 C96 1.258 . S
O98 Cd89 2.378 . S
O98 C96 1.256 . S
O99 Cd100 2.300 . S
O99 C106 1.275 . S
Cd100 O99 2.300 . S
Cd100 O108 2.381 . S
Cd100 O109 2.378 . S
O101 Cd102 2.385 . S
O101 C106 1.255 . S
Cd102 O101 2.385 . S
Cd102 O103 2.317 . S
O103 Cd102 2.317 . S
O103 C104 1.232 . S
C104 O103 1.232 . S
C104 O105 1.218 . S
O105 C104 1.218 . S
C106 O99 1.275 . S
C106 O101 1.255 . S
C107 O108 1.258 . S
C107 O109 1.256 . S
O108 Cd100 2.381 . S
O108 C107 1.258 . S
O109 Cd100 2.378 . S
O109 C107 1.256 . S
O110 Cd111 2.300 . S
O110 C117 1.275 . S
Cd111 O110 2.300 . S
Cd111 O119 2.381 . S
Cd111 O120 2.378 . S
O112 Cd113 2.385 . S
O112 C117 1.255 . S
Cd113 O112 2.385 . S
Cd113 O114 2.317 . S
O114 Cd113 2.317 . S
O114 C115 1.232 . S
C115 O114 1.232 . S
C115 O116 1.218 . S
O116 C115 1.218 . S
C117 O110 1.275 . S
C117 O112 1.255 . S
C118 O119 1.258 . S
C118 O120 1.256 . S
O119 Cd111 2.381 . S
O119 C118 1.258 . S
O120 Cd111 2.378 . S
O120 C118 1.256 . S
O121 Cd122 2.300 . S
O121 C128 1.275 . S
Cd122 O121 2.300 . S
Cd122 O130 2.381 . S
Cd122 O131 2.378 . S
O123 Cd124 2.385 . S
O123 C128 1.255 . S
Cd124 O123 2.385 . S
Cd124 O125 2.317 . S
O125 Cd124 2.317 . S
O125 C126 1.232 . S
C126 O125 1.232 . S
C126 O127 1.218 . S
O127 C126 1.218 . S
C128 O121 1.275 . S
C128 O123 1.255 . S
C129 O130 1.258 . S
C129 O131 1.256 . S
O130 Cd122 2.381 . S
O130 C129 1.258 . S
O131 Cd122 2.378 . S
O131 C129 1.256 . S
C132 C133 1.363 . S
C132 C138 1.379 . S
C132 N140 1.356 . S
C133 C132 1.363 . S
C133 C139 1.363 . S
C134 C135 1.363 . S
C134 C139 1.379 . S
C134 N141 1.356 . S
C135 C134 1.363 . S
C135 C138 1.363 . S
N136 C138 1.356 . S
N136 H148 0.984 . S
N136 H149 0.985 . S
N137 C139 1.356 . S
N137 H142 0.984 . S
N137 H143 0.985 . S
C138 C132 1.379 . S
C138 C135 1.363 . S
C138 N136 1.356 . S
C139 C133 1.363 . S
C139 C134 1.379 . S
C139 N137 1.356 . S
N140 C132 1.356 . S
N140 H146 0.984 . S
N140 H147 0.984 . S
N141 C134 1.356 . S
N141 H144 0.984 . S
N141 H145 0.985 . S
H142 N137 0.984 . S
H143 N137 0.985 . S
H144 N141 0.984 . S
H145 N141 0.985 . S
H146 N140 0.984 . S
H147 N140 0.984 . S
H148 N136 0.984 . S
H149 N136 0.985 . S
C150 C151 1.363 . S
C150 C156 1.379 . S
C150 N158 1.356 . S
C151 C150 1.363 . S
C151 C157 1.363 . S
C152 C153 1.363 . S
C152 C157 1.379 . S
C152 N159 1.356 . S
C153 C152 1.363 . S
C153 C156 1.363 . S
N154 C156 1.356 . S
N154 H166 0.984 . S
N154 H167 0.985 . S
N155 C157 1.356 . S
N155 H160 0.984 . S
N155 H161 0.985 . S
C156 C150 1.379 . S
C156 C153 1.363 . S
C156 N154 1.356 . S
C157 C151 1.363 . S
C157 C152 1.379 . S
C157 N155 1.356 . S
N158 C150 1.356 . S
N158 H164 0.984 . S
N158 H165 0.984 . S
N159 C152 1.356 . S
N159 H162 0.984 . S
N159 H163 0.985 . S
H160 N155 0.984 . S
H161 N155 0.985 . S
H162 N159 0.984 . S
H163 N159 0.985 . S
H164 N158 0.984 . S
H165 N158 0.984 . S
H166 N154 0.984 . S
H167 N154 0.985 . S
C168 C169 1.363 . S
C168 C174 1.379 . S
C168 N176 1.356 . S
C169 C168 1.363 . S
C169 C175 1.363 . S
C170 C171 1.363 . S
C170 C175 1.379 . S
C170 N177 1.356 . S
C171 C170 1.363 . S
C171 C174 1.363 . S
N172 C174 1.356 . S
N172 H184 0.984 . S
N172 H185 0.985 . S
N173 C175 1.356 . S
N173 H178 0.984 . S
N173 H179 0.985 . S
C174 C168 1.379 . S
C174 C171 1.363 . S
C174 N172 1.356 . S
C175 C169 1.363 . S
C175 C170 1.379 . S
C175 N173 1.356 . S
N176 C168 1.356 . S
N176 H182 0.984 . S
N176 H183 0.984 . S
N177 C170 1.356 . S
N177 H180 0.984 . S
N177 H181 0.985 . S
H178 N173 0.984 . S
H179 N173 0.985 . S
H180 N177 0.984 . S
H181 N177 0.985 . S
H182 N176 0.984 . S
H183 N176 0.984 . S
H184 N172 0.984 . S
H185 N172 0.985 . S
C186 C187 1.363 . S
C186 C192 1.379 . S
C186 N194 1.356 . S
C187 C186 1.363 . S
C187 C193 1.363 . S
C188 C189 1.363 . S
C188 C193 1.379 . S
C188 N195 1.356 . S
C189 C188 1.363 . S
C189 C192 1.363 . S
N190 C192 1.356 . S
N190 H202 0.984 . S
N190 H203 0.985 . S
N191 C193 1.356 . S
N191 H196 0.984 . S
N191 H197 0.985 . S
C192 C186 1.379 . S
C192 C189 1.363 . S
C192 N190 1.356 . S
C193 C187 1.363 . S
C193 C188 1.379 . S
C193 N191 1.356 . S
N194 C186 1.356 . S
N194 H200 0.984 . S
N194 H201 0.984 . S
N195 C188 1.356 . S
N195 H198 0.984 . S
N195 H199 0.985 . S
H196 N191 0.984 . S
H197 N191 0.985 . S
H198 N195 0.984 . S
H199 N195 0.985 . S
H200 N194 0.984 . S
H201 N194 0.984 . S
H202 N190 0.984 . S
H203 N190 0.985 . S
C204 C205 1.363 . S
C204 C210 1.379 . S
C204 N212 1.356 . S
C205 C204 1.363 . S
C205 C211 1.363 . S
C206 C207 1.363 . S
C206 C211 1.379 . S
C206 N213 1.356 . S
C207 C206 1.363 . S
C207 C210 1.363 . S
N208 C210 1.356 . S
N208 H220 0.984 . S
N208 H221 0.985 . S
N209 C211 1.356 . S
N209 H214 0.984 . S
N209 H215 0.985 . S
C210 C204 1.379 . S
C210 C207 1.363 . S
C210 N208 1.356 . S
C211 C205 1.363 . S
C211 C206 1.379 . S
C211 N209 1.356 . S
N212 C204 1.356 . S
N212 H218 0.984 . S
N212 H219 0.984 . S
N213 C206 1.356 . S
N213 H216 0.984 . S
N213 H217 0.985 . S
H214 N209 0.984 . S
H215 N209 0.985 . S
H216 N213 0.984 . S
H217 N213 0.985 . S
H218 N212 0.984 . S
H219 N212 0.984 . S
H220 N208 0.984 . S
H221 N208 0.985 . S
C222 C223 1.363 . S
C222 C228 1.379 . S
C222 N230 1.356 . S
C223 C222 1.363 . S
C223 C229 1.363 . S
C224 C225 1.363 . S
C224 C229 1.379 . S
C224 N231 1.356 . S
C225 C224 1.363 . S
C225 C228 1.363 . S
N226 C228 1.356 . S
N226 H238 0.984 . S
N226 H239 0.985 . S
N227 C229 1.356 . S
N227 H232 0.984 . S
N227 H233 0.985 . S
C228 C222 1.379 . S
C228 C225 1.363 . S
C228 N226 1.356 . S
C229 C223 1.363 . S
C229 C224 1.379 . S
C229 N227 1.356 . S
N230 C222 1.356 . S
N230 H236 0.984 . S
N230 H237 0.984 . S
N231 C224 1.356 . S
N231 H234 0.984 . S
N231 H235 0.985 . S
H232 N227 0.984 . S
H233 N227 0.985 . S
H234 N231 0.984 . S
H235 N231 0.985 . S
H236 N230 0.984 . S
H237 N230 0.984 . S
H238 N226 0.984 . S
H239 N226 0.985 . S
C240 C241 1.363 . S
C240 C246 1.379 1_565 S
C240 N248 1.356 . S
C241 C240 1.363 . S
C241 C247 1.363 . S
C242 C243 1.363 . S
C242 C247 1.379 1_545 S
C242 N249 1.356 . S
C243 C242 1.363 . S
C243 C246 1.363 . S
N244 C246 1.356 . S
N244 H256 0.984 . S
N244 H257 0.985 . S
N245 C247 1.356 . S
N245 H250 0.984 . S
N245 H251 0.985 . S
C246 C240 1.379 1_545 S
C246 C243 1.363 . S
C246 N244 1.356 . S
C247 C241 1.363 . S
C247 C242 1.379 1_565 S
C247 N245 1.356 . S
N248 C240 1.356 . S
N248 H254 0.984 . S
N248 H255 0.984 . S
N249 C242 1.356 . S
N249 H252 0.984 . S
N249 H253 0.985 . S
H250 N245 0.984 . S
H251 N245 0.985 . S
H252 N249 0.984 . S
H253 N249 0.985 . S
H254 N248 0.984 . S
H255 N248 0.984 . S
H256 N244 0.984 . S
H257 N244 0.985 . S
C258 C259 1.363 . S
C258 C264 1.379 . S
C258 N266 1.356 . S
C259 C258 1.363 . S
C259 C265 1.363 . S
C260 C261 1.363 . S
C260 C265 1.379 . S
C260 N267 1.356 . S
C261 C260 1.363 . S
C261 C264 1.363 . S
N262 C264 1.356 . S
N262 H274 0.984 . S
N262 H275 0.985 . S
N263 C265 1.356 . S
N263 H268 0.984 . S
N263 H269 0.985 . S
C264 C258 1.379 . S
C264 C261 1.363 . S
C264 N262 1.356 . S
C265 C259 1.363 . S
C265 C260 1.379 . S
C265 N263 1.356 . S
N266 C258 1.356 . S
N266 H272 0.984 . S
N266 H273 0.984 . S
N267 C260 1.356 . S
N267 H270 0.984 . S
N267 H271 0.985 . S
H268 N263 0.984 . S
H269 N263 0.985 . S
H270 N267 0.984 . S
H271 N267 0.985 . S
H272 N266 0.984 . S
H273 N266 0.984 . S
H274 N262 0.984 . S
H275 N262 0.985 . S
C276 C277 1.363 . S
C276 C282 1.379 1_655 S
C276 N284 1.356 . S
C277 C276 1.363 . S
C277 C283 1.363 . S
C278 C279 1.363 . S
C278 C283 1.379 1_455 S
C278 N285 1.356 . S
C279 C278 1.363 . S
C279 C282 1.363 . S
N280 C282 1.356 . S
N280 H292 0.984 . S
N280 H293 0.985 . S
N281 C283 1.356 . S
N281 H286 0.984 . S
N281 H287 0.985 . S
C282 C276 1.379 1_455 S
C282 C279 1.363 . S
C282 N280 1.356 . S
C283 C277 1.363 . S
C283 C278 1.379 1_655 S
C283 N281 1.356 . S
N284 C276 1.356 . S
N284 H290 0.984 . S
N284 H291 0.984 . S
N285 C278 1.356 . S
N285 H288 0.984 . S
N285 H289 0.985 . S
H286 N281 0.984 . S
H287 N281 0.985 . S
H288 N285 0.984 . S
H289 N285 0.985 . S
H290 N284 0.984 . S
H291 N284 0.984 . S
H292 N280 0.984 . S
H293 N280 0.985 . S
C294 C295 1.363 . S
C294 C300 1.379 1_455 S
C294 N302 1.356 . S
C295 C294 1.363 . S
C295 C301 1.363 . S
C296 C297 1.363 . S
C296 C301 1.379 1_655 S
C296 N303 1.356 . S
C297 C296 1.363 . S
C297 C300 1.363 . S
N298 C300 1.356 . S
N298 H310 0.984 . S
N298 H311 0.985 . S
N299 C301 1.356 . S
N299 H304 0.984 . S
N299 H305 0.985 . S
C300 C294 1.379 1_655 S
C300 C297 1.363 . S
C300 N298 1.356 . S
C301 C295 1.363 . S
C301 C296 1.379 1_455 S
C301 N299 1.356 . S
N302 C294 1.356 . S
N302 H308 0.984 . S
N302 H309 0.984 . S
N303 C296 1.356 . S
N303 H306 0.984 . S
N303 H307 0.985 . S
H304 N299 0.984 . S
H305 N299 0.985 . S
H306 N303 0.984 . S
H307 N303 0.985 . S
H308 N302 0.984 . S
H309 N302 0.984 . S
H310 N298 0.984 . S
H311 N298 0.985 . S
C312 C313 1.363 . S
C312 C318 1.379 1_565 S
C312 N320 1.356 . S
C313 C312 1.363 . S
C313 C319 1.363 . S
C314 C315 1.363 . S
C314 C319 1.379 1_545 S
C314 N321 1.356 . S
C315 C314 1.363 . S
C315 C318 1.363 . S
N316 C318 1.356 . S
N316 H328 0.984 . S
N316 H329 0.985 . S
N317 C319 1.356 . S
N317 H322 0.984 . S
N317 H323 0.985 . S
C318 C312 1.379 1_545 S
C318 C315 1.363 . S
C318 N316 1.356 . S
C319 C313 1.363 . S
C319 C314 1.379 1_565 S
C319 N317 1.356 . S
N320 C312 1.356 . S
N320 H326 0.984 . S
N320 H327 0.984 . S
N321 C314 1.356 . S
N321 H324 0.984 . S
N321 H325 0.985 . S
H322 N317 0.984 . S
H323 N317 0.985 . S
H324 N321 0.984 . S
H325 N321 0.985 . S
H326 N320 0.984 . S
H327 N320 0.984 . S
H328 N316 0.984 . S
H329 N316 0.985 . S
C330 C331 1.363 . S
C330 C336 1.379 . S
C330 N338 1.356 . S
C331 C330 1.363 . S
C331 C337 1.363 . S
C332 C333 1.363 . S
C332 C337 1.379 . S
C332 N339 1.356 . S
C333 C332 1.363 . S
C333 C336 1.363 . S
N334 C336 1.356 . S
N334 H346 0.984 . S
N334 H347 0.985 . S
N335 C337 1.356 . S
N335 H340 0.984 . S
N335 H341 0.985 . S
C336 C330 1.379 . S
C336 C333 1.363 . S
C336 N334 1.356 . S
C337 C331 1.363 . S
C337 C332 1.379 . S
C337 N335 1.356 . S
N338 C330 1.356 . S
N338 H344 0.984 . S
N338 H345 0.984 . S
N339 C332 1.356 . S
N339 H342 0.984 . S
N339 H343 0.985 . S
H340 N335 0.984 . S
H341 N335 0.985 . S
H342 N339 0.984 . S
H343 N339 0.985 . S
H344 N338 0.984 . S
H345 N338 0.984 . S
H346 N334 0.984 . S
H347 N334 0.985 . S
C348 C349 1.363 . S
C348 C354 1.379 1_556 S
C348 N356 1.356 . S
C349 C348 1.363 . S
C349 C355 1.363 . S
C350 C351 1.363 . S
C350 C355 1.379 1_554 S
C350 N357 1.356 . S
C351 C350 1.363 . S
C351 C354 1.363 . S
N352 C354 1.356 . S
N352 H364 0.984 . S
N352 H365 0.985 . S
N353 C355 1.356 . S
N353 H358 0.984 . S
N353 H359 0.985 . S
C354 C348 1.379 1_554 S
C354 C351 1.363 . S
C354 N352 1.356 . S
C355 C349 1.363 . S
C355 C350 1.379 1_556 S
C355 N353 1.356 . S
N356 C348 1.356 . S
N356 H362 0.984 . S
N356 H363 0.984 . S
N357 C350 1.356 . S
N357 H360 0.984 . S
N357 H361 0.985 . S
H358 N353 0.984 . S
H359 N353 0.985 . S
H360 N357 0.984 . S
H361 N357 0.985 . S
H362 N356 0.984 . S
H363 N356 0.984 . S
H364 N352 0.984 . S
H365 N352 0.985 . S
C366 C367 1.363 . S
C366 C372 1.379 . S
C366 N374 1.356 . S
C367 C366 1.363 . S
C367 C373 1.363 . S
C368 C369 1.363 . S
C368 C373 1.379 . S
C368 N375 1.356 . S
C369 C368 1.363 . S
C369 C372 1.363 . S
N370 C372 1.356 . S
N370 H382 0.984 . S
N370 H383 0.985 . S
N371 C373 1.356 . S
N371 H376 0.984 . S
N371 H377 0.985 . S
C372 C366 1.379 . S
C372 C369 1.363 . S
C372 N370 1.356 . S
C373 C367 1.363 . S
C373 C368 1.379 . S
C373 N371 1.356 . S
N374 C366 1.356 . S
N374 H380 0.984 . S
N374 H381 0.984 . S
N375 C368 1.356 . S
N375 H378 0.984 . S
N375 H379 0.985 . S
H376 N371 0.984 . S
H377 N371 0.985 . S
H378 N375 0.984 . S
H379 N375 0.985 . S
H380 N374 0.984 . S
H381 N374 0.984 . S
H382 N370 0.984 . S
H383 N370 0.985 . S
C384 C385 1.363 . S
C384 C390 1.379 . S
C384 N392 1.356 . S
C385 C384 1.363 . S
C385 C391 1.363 . S
C386 C387 1.363 . S
C386 C391 1.379 . S
C386 N393 1.356 . S
C387 C386 1.363 . S
C387 C390 1.363 . S
N388 C390 1.356 . S
N388 H400 0.984 . S
N388 H401 0.985 . S
N389 C391 1.356 . S
N389 H394 0.984 . S
N389 H395 0.985 . S
C390 C384 1.379 . S
C390 C387 1.363 . S
C390 N388 1.356 . S
C391 C385 1.363 . S
C391 C386 1.379 . S
C391 N389 1.356 . S
N392 C384 1.356 . S
N392 H398 0.984 . S
N392 H399 0.984 . S
N393 C386 1.356 . S
N393 H396 0.984 . S
N393 H397 0.985 . S
H394 N389 0.984 . S
H395 N389 0.985 . S
H396 N393 0.984 . S
H397 N393 0.985 . S
H398 N392 0.984 . S
H399 N392 0.984 . S
H400 N388 0.984 . S
H401 N388 0.985 . S
C402 C403 1.363 . S
C402 C408 1.379 1_554 S
C402 N410 1.356 . S
C403 C402 1.363 . S
C403 C409 1.363 . S
C404 C405 1.363 . S
C404 C409 1.379 1_556 S
C404 N411 1.356 . S
C405 C404 1.363 . S
C405 C408 1.363 . S
N406 C408 1.356 . S
N406 H418 0.984 . S
N406 H419 0.985 . S
N407 C409 1.356 . S
N407 H412 0.984 . S
N407 H413 0.985 . S
C408 C402 1.379 1_556 S
C408 C405 1.363 . S
C408 N406 1.356 . S
C409 C403 1.363 . S
C409 C404 1.379 1_554 S
C409 N407 1.356 . S
N410 C402 1.356 . S
N410 H416 0.984 . S
N410 H417 0.984 . S
N411 C404 1.356 . S
N411 H414 0.984 . S
N411 H415 0.985 . S
H412 N407 0.984 . S
H413 N407 0.985 . S
H414 N411 0.984 . S
H415 N411 0.985 . S
H416 N410 0.984 . S
H417 N410 0.984 . S
H418 N406 0.984 . S
H419 N406 0.985 . S
C420 C421 1.363 . S
C420 C426 1.379 . S
C420 N428 1.356 . S
C421 C420 1.363 . S
C421 C427 1.363 . S
C422 C423 1.363 . S
C422 C427 1.379 . S
C422 N429 1.356 . S
C423 C422 1.363 . S
C423 C426 1.363 . S
N424 C426 1.356 . S
N424 H436 0.984 . S
N424 H437 0.985 . S
N425 C427 1.356 . S
N425 H430 0.984 . S
N425 H431 0.985 . S
C426 C420 1.379 . S
C426 C423 1.363 . S
C426 N424 1.356 . S
C427 C421 1.363 . S
C427 C422 1.379 . S
C427 N425 1.356 . S
N428 C420 1.356 . S
N428 H434 0.984 . S
N428 H435 0.984 . S
N429 C422 1.356 . S
N429 H432 0.984 . S
N429 H433 0.985 . S
H430 N425 0.984 . S
H431 N425 0.985 . S
H432 N429 0.984 . S
H433 N429 0.985 . S
H434 N428 0.984 . S
H435 N428 0.984 . S
H436 N424 0.984 . S
H437 N424 0.985 . S
C438 C439 1.363 . S
C438 C444 1.379 . S
C438 N446 1.356 . S
C439 C438 1.363 . S
C439 C445 1.363 . S
C440 C441 1.363 . S
C440 C445 1.379 . S
C440 N447 1.356 . S
C441 C440 1.363 . S
C441 C444 1.363 . S
N442 C444 1.356 . S
N442 H454 0.984 . S
N442 H455 0.985 . S
N443 C445 1.356 . S
N443 H448 0.984 . S
N443 H449 0.985 . S
C444 C438 1.379 . S
C444 C441 1.363 . S
C444 N442 1.356 . S
C445 C439 1.363 . S
C445 C440 1.379 . S
C445 N443 1.356 . S
N446 C438 1.356 . S
N446 H452 0.984 . S
N446 H453 0.984 . S
N447 C440 1.356 . S
N447 H450 0.984 . S
N447 H451 0.985 . S
H448 N443 0.984 . S
H449 N443 0.985 . S
H450 N447 0.984 . S
H451 N447 0.985 . S
H452 N446 0.984 . S
H453 N446 0.984 . S
H454 N442 0.984 . S
H455 N442 0.985 . S
C133 C96 1.540 . S
C135 C8 1.540 . S
C151 C19 1.540 . S
C153 C107 1.540 . S
C169 C118 1.540 . S
C171 C30 1.540 . S
C187 C129 1.540 . S
C189 C41 1.540 . S
C205 C74 1.540 . S
C207 C52 1.540 . S
C223 C63 1.540 . S
C225 C85 1.540 . S
C241 C38 1.244 . S
C243 C5 1.244 . S
C259 C49 1.244 . S
C261 C16 1.244 . S
C277 C27 1.244 . S
C279 C60 1.244 . S
C295 C104 1.244 . S
C297 C71 1.244 . S
C313 C82 1.244 . S
C315 C115 1.244 . S
C331 C126 1.244 . S
C333 C93 1.244 . S
C349 C117 1.494 . S
C351 C7 1.494 . S
C367 C128 1.494 . S
C369 C18 1.494 . S
C385 C29 1.494 . S
C387 C73 1.494 . S
C403 C40 1.494 . S
C405 C84 1.494 . S
C421 C51 1.494 . S
C423 C95 1.494 . S
C439 C62 1.494 . S
C441 C106 1.494 . S
