# Generated by pormake.
# Topology acs-a, (4)-cn, num edge types: 1
# Building blocks:
#     Node 0, Type 0, BuildingBlock: UXUYUI_clean_sbu_0, # of connection points: 4
#     Node 1, Type 0, BuildingBlock: UXUYUI_clean_sbu_0, # of connection points: 4
#     Node 2, Type 0, BuildingBlock: UXUYUI_clean_sbu_0, # of connection points: 4
#     Node 3, Type 0, BuildingBlock: UXUYUI_clean_sbu_0, # of connection points: 4
#     Node 4, Type 0, BuildingBlock: UXUYUI_clean_sbu_0, # of connection points: 4
#     Node 5, Type 0, BuildingBlock: UXUYUI_clean_sbu_0, # of connection points: 4
#     Node 6, Type 0, BuildingBlock: UXUYUI_clean_sbu_0, # of connection points: 4
#     Node 7, Type 0, BuildingBlock: UXUYUI_clean_sbu_0, # of connection points: 4
#     Node 8, Type 0, BuildingBlock: UXUYUI_clean_sbu_0, # of connection points: 4
#     Node 9, Type 0, BuildingBlock: UXUYUI_clean_sbu_0, # of connection points: 4
#     Node 10, Type 0, BuildingBlock: UXUYUI_clean_sbu_0, # of connection points: 4
#     Node 11, Type 0, BuildingBlock: UXUYUI_clean_sbu_0, # of connection points: 4
#     Edge 12, Type (0, 0), BuildingBlock: TEMPAE_clean_linker_10, # of connection points: 2
#     Edge 13, Type (0, 0), BuildingBlock: TEMPAE_clean_linker_10, # of connection points: 2
#     Edge 14, Type (0, 0), BuildingBlock: TEMPAE_clean_linker_10, # of connection points: 2
#     Edge 15, Type (0, 0), BuildingBlock: TEMPAE_clean_linker_10, # of connection points: 2
#     Edge 16, Type (0, 0), BuildingBlock: TEMPAE_clean_linker_10, # of connection points: 2
#     Edge 17, Type (0, 0), BuildingBlock: TEMPAE_clean_linker_10, # of connection points: 2
#     Edge 18, Type (0, 0), BuildingBlock: TEMPAE_clean_linker_10, # of connection points: 2
#     Edge 19, Type (0, 0), BuildingBlock: TEMPAE_clean_linker_10, # of connection points: 2
#     Edge 20, Type (0, 0), BuildingBlock: TEMPAE_clean_linker_10, # of connection points: 2
#     Edge 21, Type (0, 0), BuildingBlock: TEMPAE_clean_linker_10, # of connection points: 2
#     Edge 22, Type (0, 0), BuildingBlock: TEMPAE_clean_linker_10, # of connection points: 2
#     Edge 23, Type (0, 0), BuildingBlock: TEMPAE_clean_linker_10, # of connection points: 2
#     Edge 24, Type (0, 0), BuildingBlock: TEMPAE_clean_linker_10, # of connection points: 2
#     Edge 25, Type (0, 0), BuildingBlock: TEMPAE_clean_linker_10, # of connection points: 2
#     Edge 26, Type (0, 0), BuildingBlock: TEMPAE_clean_linker_10, # of connection points: 2
#     Edge 27, Type (0, 0), BuildingBlock: TEMPAE_clean_linker_10, # of connection points: 2
#     Edge 28, Type (0, 0), BuildingBlock: TEMPAE_clean_linker_10, # of connection points: 2
#     Edge 29, Type (0, 0), BuildingBlock: TEMPAE_clean_linker_10, # of connection points: 2
#     Edge 30, Type (0, 0), BuildingBlock: TEMPAE_clean_linker_10, # of connection points: 2
#     Edge 31, Type (0, 0), BuildingBlock: TEMPAE_clean_linker_10, # of connection points: 2
#     Edge 32, Type (0, 0), BuildingBlock: TEMPAE_clean_linker_10, # of connection points: 2
#     Edge 33, Type (0, 0), BuildingBlock: TEMPAE_clean_linker_10, # of connection points: 2
#     Edge 34, Type (0, 0), BuildingBlock: TEMPAE_clean_linker_10, # of connection points: 2
#     Edge 35, Type (0, 0), BuildingBlock: TEMPAE_clean_linker_10, # of connection points: 2
# Relax obj value: 0.500
# Max RMSD: 0.243
# Mean RMSD: 0.227
data_MOF--net-acs-a--node1-UXUYUI_clean_sbu_0--edge1-TEMPAE_clean_linker_10
_symmetry_space_group_name_H-M    P1
_symmetry_Int_Tables_number       1
_symmetry_cell_setting            triclinic
loop_
_symmetry_equiv_pos_as_xyz
'x, y, z'
_cell_length_a     56.942091
_cell_length_b     70.369174
_cell_length_c     69.131113
_cell_angle_alpha  90.022588
_cell_angle_beta   90.013897
_cell_angle_gamma 110.9276
loop_
_atom_site_label
_atom_site_type_symbol
_atom_site_fract_x
_atom_site_fract_y
_atom_site_fract_z
_atom_type_partial_charge
Li0 Li 0.58572 0.13624 0.08501 0.0
Li1 Li 0.62607 0.13285 0.08748 0.0
Li2 Li 0.59118 0.10456 0.07635 0.0
Li3 Li 0.59468 0.11519 0.111 0.0
C4 C 0.59981 0.13748 0.04674 0.0
N5 N 0.58629 0.15023 0.01208 0.0
C6 C 0.61706 0.1537 0.03665 0.0
C7 C 0.57574 0.12769 0.03916 0.0
C8 C 0.60984 0.15994 0.01916 0.0
C9 C 0.56925 0.13436 0.02163 0.0
C10 C 0.62183 0.16548 0.10887 0.0
C11 C 0.63905 0.19523 0.12901 0.0
N12 N 0.64691 0.20687 0.1129 0.0
C13 C 0.63015 0.17771 0.09252 0.0
C14 C 0.62635 0.17426 0.12727 0.0
C15 C 0.64275 0.19862 0.09486 0.0
C16 C 0.54356 0.1471 0.08905 0.0
N17 N 0.56605 0.15255 0.0798 0.0
C18 C 0.55774 0.17922 0.06316 0.0
C19 C 0.57345 0.16837 0.06714 0.0
C20 C 0.53431 0.17387 0.07245 0.0
C21 C 0.52729 0.15757 0.08557 0.0
H22 H 0.53824 0.13459 0.0992 0.0
H23 H 0.59147 0.17259 0.06006 0.0
C24 C 0.6701 0.14501 0.06569 0.0
N25 N 0.6609 0.14623 0.08359 0.0
C26 C 0.69554 0.15502 0.06173 0.0
C27 C 0.70158 0.16687 0.09488 0.0
C28 C 0.67603 0.15656 0.09822 0.0
C29 C 0.7115 0.16641 0.07634 0.0
H30 H 0.65756 0.13644 0.05445 0.0
H31 H 0.6682 0.15693 0.1124 0.0
C32 C 0.54242 0.09331 0.093 0.0
N33 N 0.49623 0.06202 0.09178 0.0
C34 C 0.53641 0.07767 0.10668 0.0
C35 C 0.52477 0.09321 0.07891 0.0
C36 C 0.513 0.06195 0.10577 0.0
C37 C 0.50158 0.0772 0.07846 0.0
C38 C 0.6391 0.10203 0.09602 0.0
C39 C 0.64789 0.0953 0.07947 0.0
C40 C 0.65449 0.10781 0.11236 0.0
C41 C 0.67212 0.09463 0.07949 0.0
C42 C 0.67859 0.10691 0.1118 0.0
N43 N 0.68685 0.10042 0.09551 0.0
C44 C 0.59043 0.08647 0.04059 0.0
C45 C 0.56319 0.06458 0.06366 0.0
C46 C 0.58021 0.07244 0.02589 0.0
N47 N 0.58087 0.08274 0.05878 0.0
C48 C 0.55243 0.05006 0.04944 0.0
C49 C 0.5603 0.05433 0.03017 0.0
H50 H 0.60525 0.10074 0.0373 0.0
H51 H 0.55671 0.06165 0.07839 0.0
C52 C 0.57485 0.11712 0.14692 0.0
N53 N 0.58777 0.10751 0.13683 0.0
C54 C 0.57094 0.11371 0.16669 0.0
C55 C 0.59307 0.09008 0.1651 0.0
C56 C 0.59646 0.09389 0.1453 0.0
C57 C 0.58062 0.1004 0.1761 0.0
H58 H 0.56817 0.12782 0.13964 0.0
H59 H 0.60661 0.08646 0.13678 0.0
O60 O 0.60652 0.13136 0.06399 0.0
O61 O 0.61021 0.1449 0.10702 0.0
O62 O 0.56523 0.10887 0.09371 0.0
O63 O 0.61575 0.10338 0.09606 0.0
H64 H 0.63575 0.1615 0.04234 0.0
H65 H 0.56227 0.11504 0.04671 0.0
H66 H 0.62295 0.17253 0.01124 0.0
H67 H 0.55068 0.12692 0.0156 0.0
H68 H 0.64273 0.20223 0.14317 0.0
H69 H 0.62729 0.17108 0.07821 0.0
H70 H 0.62024 0.16493 0.14007 0.0
H71 H 0.64935 0.20826 0.08233 0.0
H72 H 0.56385 0.1916 0.05285 0.0
H73 H 0.50964 0.15318 0.09334 0.0
H74 H 0.70244 0.15449 0.04721 0.0
H75 H 0.71339 0.17536 0.10655 0.0
H76 H 0.54978 0.07754 0.11775 0.0
H77 H 0.52884 0.10541 0.06848 0.0
H78 H 0.50817 0.04967 0.11617 0.0
H79 H 0.4878 0.07687 0.06757 0.0
H80 H 0.63623 0.09087 0.06668 0.0
H81 H 0.64803 0.11325 0.12521 0.0
H82 H 0.67925 0.08958 0.06675 0.0
H83 H 0.69079 0.11148 0.12428 0.0
H84 H 0.58713 0.07601 0.01124 0.0
H85 H 0.53718 0.03618 0.05331 0.0
H86 H 0.56092 0.12173 0.17461 0.0
H87 H 0.60101 0.07984 0.17184 0.0
Li88 Li 0.51345 0.63846 0.58155 0.0
Li89 Li 0.50666 0.61263 0.60805 0.0
Li90 Li 0.5087 0.60363 0.5749 0.0
Li91 Li 0.47208 0.60926 0.58611 0.0
C92 C 0.55592 0.62018 0.58379 0.0
N93 N 0.59537 0.61034 0.56946 0.0
C94 C 0.56278 0.60519 0.59284 0.0
C95 C 0.56916 0.63028 0.56755 0.0
C96 C 0.58278 0.60041 0.58534 0.0
C97 C 0.58904 0.62505 0.56051 0.0
C98 C 0.4873 0.6405 0.62107 0.0
C99 C 0.46619 0.63889 0.65161 0.0
N100 N 0.48411 0.65685 0.6569 0.0
C101 C 0.50532 0.65906 0.62671 0.0
C102 C 0.46741 0.63044 0.63352 0.0
C103 C 0.50344 0.66703 0.64491 0.0
C104 C 0.51137 0.67218 0.56321 0.0
N105 N 0.52657 0.66604 0.57475 0.0
C106 C 0.55332 0.70041 0.58049 0.0
C107 C 0.54772 0.67952 0.58286 0.0
C108 C 0.5371 0.70719 0.56948 0.0
C109 C 0.51646 0.69278 0.56017 0.0
H110 H 0.49435 0.66107 0.55742 0.0
H111 H 0.55922 0.67409 0.5922 0.0
C112 C 0.50453 0.59195 0.64356 0.0
N113 N 0.51537 0.60986 0.63406 0.0
C114 C 0.5087 0.59067 0.66331 0.0
C115 C 0.53641 0.62592 0.66283 0.0
C116 C 0.53176 0.62648 0.64307 0.0
C117 C 0.5243 0.60796 0.6733 0.0
H118 H 0.49227 0.57877 0.63591 0.0
H119 H 0.54059 0.64038 0.63502 0.0
C120 C 0.48176 0.6126 0.54439 0.0
N121 N 0.46363 0.59718 0.50838 0.0
C122 C 0.46698 0.59206 0.54226 0.0
C123 C 0.48746 0.6253 0.52818 0.0
C124 C 0.45796 0.58454 0.52395 0.0
C125 C 0.47806 0.61722 0.5101 0.0
C126 C 0.46356 0.57131 0.59849 0.0
C127 C 0.45651 0.5543 0.58632 0.0
C128 C 0.44857 0.57145 0.61445 0.0
C129 C 0.43445 0.53785 0.59022 0.0
C130 C 0.42665 0.55472 0.61787 0.0
N131 N 0.42009 0.5384 0.60577 0.0
C132 C 0.51887 0.56905 0.56445 0.0
C133 C 0.52572 0.59336 0.5393 0.0
C134 C 0.52167 0.55482 0.55153 0.0
N135 N 0.51976 0.5875 0.55794 0.0
C136 C 0.52822 0.57951 0.5258 0.0
C137 C 0.52525 0.55977 0.53183 0.0
H138 H 0.51451 0.56499 0.57946 0.0
H139 H 0.52709 0.60839 0.53468 0.0
C140 C 0.42959 0.61953 0.58954 0.0
N141 N 0.4367 0.60387 0.58396 0.0
C142 C 0.40452 0.6179 0.58825 0.0
C143 C 0.39431 0.58405 0.5752 0.0
C144 C 0.41966 0.58634 0.57678 0.0
C145 C 0.38648 0.60001 0.58091 0.0
H146 H 0.44348 0.63345 0.5949 0.0
H147 H 0.4256 0.57417 0.57206 0.0
O148 O 0.536 0.62468 0.59058 0.0
O149 O 0.48903 0.63231 0.60339 0.0
O150 O 0.49153 0.62009 0.56209 0.0
O151 O 0.48507 0.58763 0.59488 0.0
H152 H 0.55259 0.59721 0.60539 0.0
H153 H 0.56394 0.64186 0.56038 0.0
H154 H 0.58824 0.58876 0.59212 0.0
H155 H 0.5994 0.63265 0.54789 0.0
H156 H 0.45097 0.6312 0.66142 0.0
H157 H 0.52078 0.6671 0.61727 0.0
H158 H 0.45296 0.61633 0.62923 0.0
H159 H 0.51739 0.6813 0.64953 0.0
H160 H 0.56928 0.71112 0.588 0.0
H161 H 0.50314 0.69735 0.55197 0.0
H162 H 0.49945 0.5764 0.67077 0.0
H163 H 0.5485 0.63963 0.66996 0.0
H164 H 0.46307 0.58194 0.55452 0.0
H165 H 0.49926 0.64116 0.52948 0.0
H166 H 0.44663 0.56863 0.52209 0.0
H167 H 0.48235 0.62687 0.49743 0.0
H168 H 0.46773 0.55383 0.57385 0.0
H169 H 0.45382 0.58435 0.62412 0.0
H170 H 0.42872 0.52466 0.58086 0.0
H171 H 0.41485 0.5547 0.63014 0.0
H172 H 0.51922 0.53968 0.55663 0.0
H173 H 0.53126 0.58382 0.51071 0.0
H174 H 0.39931 0.63051 0.59304 0.0
H175 H 0.38109 0.57009 0.56923 0.0
Li176 Li 0.86324 0.36961 0.0815 0.0
Li177 Li 0.89273 0.36458 0.10426 0.0
Li178 Li 0.90754 0.38329 0.07397 0.0
Li179 Li 0.88466 0.34628 0.07373 0.0
C180 C 0.88011 0.39881 0.11045 0.0
N181 N 0.86009 0.41473 0.13999 0.0
C182 C 0.86 0.38609 0.1214 0.0
C183 C 0.88998 0.41964 0.11449 0.0
C184 C 0.85016 0.39442 0.13628 0.0
C185 C 0.87961 0.42739 0.12949 0.0
C186 C 0.84982 0.32685 0.10499 0.0
C187 C 0.85062 0.29509 0.11746 0.0
N188 N 0.82736 0.29103 0.12516 0.0
C189 C 0.82592 0.32237 0.11303 0.0
C190 C 0.86231 0.31314 0.10725 0.0
C191 C 0.81489 0.30419 0.1232 0.0
C192 C 0.81128 0.35644 0.07668 0.0
N193 N 0.83208 0.37343 0.07886 0.0
C194 C 0.80716 0.39448 0.07863 0.0
C195 C 0.83056 0.39227 0.07955 0.0
C196 C 0.78526 0.3771 0.07707 0.0
C197 C 0.78754 0.35791 0.07583 0.0
H198 H 0.81317 0.3417 0.07584 0.0
H199 H 0.84747 0.40555 0.08109 0.0
C200 C 0.9248 0.37817 0.13532 0.0
N201 N 0.90164 0.36481 0.13054 0.0
C202 C 0.93241 0.38083 0.15462 0.0
C203 C 0.89235 0.35557 0.16359 0.0
C204 C 0.88545 0.35351 0.14415 0.0
C205 C 0.91598 0.36954 0.16902 0.0
H206 H 0.9371 0.38709 0.12412 0.0
H207 H 0.86693 0.34338 0.14007 0.0
C208 C 0.86798 0.37545 0.04375 0.0
N209 N 0.84261 0.39185 0.01859 0.0
C210 C 0.85012 0.36285 0.031 0.0
C211 C 0.87296 0.3964 0.0437 0.0
C212 C 0.83749 0.37143 0.0184 0.0
C213 C 0.85994 0.40439 0.03087 0.0
C214 C 0.93453 0.35225 0.08676 0.0
C215 C 0.95239 0.35519 0.0721 0.0
C216 C 0.93429 0.33958 0.10239 0.0
C217 C 0.96949 0.34509 0.07318 0.0
C218 C 0.95168 0.32974 0.10292 0.0
N219 N 0.96876 0.33267 0.08842 0.0
C220 C 0.9441 0.4219 0.07355 0.0
C221 C 0.93742 0.40449 0.04345 0.0
C222 C 0.95959 0.4398 0.06478 0.0
N223 N 0.93291 0.40501 0.06268 0.0
C224 C 0.95278 0.42203 0.03408 0.0
C225 C 0.9634 0.44012 0.04471 0.0
H226 H 0.94001 0.4217 0.08884 0.0
H227 H 0.92793 0.39078 0.03526 0.0
C228 C 0.85474 0.31305 0.055 0.0
N229 N 0.87872 0.32093 0.06158 0.0
C230 C 0.84485 0.29303 0.04866 0.0
C231 C 0.88487 0.28963 0.05531 0.0
C232 C 0.89413 0.30994 0.06137 0.0
C233 C 0.8597 0.28083 0.04936 0.0
H234 H 0.84279 0.32199 0.0559 0.0
H235 H 0.91303 0.31638 0.0669 0.0
O236 O 0.89012 0.39108 0.09576 0.0
O237 O 0.86064 0.34449 0.09479 0.0
O238 O 0.88006 0.36729 0.05658 0.0
O239 O 0.9178 0.36212 0.08599 0.0
H240 H 0.85199 0.36997 0.11846 0.0
H241 H 0.90547 0.42972 0.1061 0.0
H242 H 0.83462 0.38474 0.14487 0.0
H243 H 0.88707 0.44348 0.13277 0.0
H244 H 0.86004 0.2843 0.11924 0.0
H245 H 0.81603 0.33287 0.11153 0.0
H246 H 0.88075 0.31632 0.10113 0.0
H247 H 0.79643 0.30055 0.12952 0.0
H248 H 0.80616 0.40952 0.07968 0.0
H249 H 0.77112 0.34419 0.0743 0.0
H250 H 0.95079 0.39173 0.15827 0.0
H251 H 0.87896 0.34688 0.17433 0.0
H252 H 0.84601 0.34661 0.03083 0.0
H253 H 0.88639 0.40635 0.0537 0.0
H254 H 0.82358 0.36185 0.00847 0.0
H255 H 0.86351 0.42056 0.03075 0.0
H256 H 0.95293 0.3651 0.06 0.0
H257 H 0.92086 0.33737 0.11401 0.0
H258 H 0.98334 0.34714 0.06191 0.0
H259 H 0.95162 0.31981 0.11487 0.0
H260 H 0.96768 0.45342 0.07344 0.0
H261 H 0.95502 0.42175 0.01854 0.0
H262 H 0.82514 0.28676 0.04474 0.0
H263 H 0.89681 0.28064 0.05619 0.0
Li264 Li 0.40566 0.87949 0.57866 0.0
Li265 Li 0.40064 0.87326 0.61175 0.0
Li266 Li 0.41043 0.8497 0.59043 0.0
Li267 Li 0.36894 0.85379 0.58939 0.0
C268 C 0.44865 0.8967 0.60115 0.0
N269 N 0.48332 0.93469 0.60994 0.0
C270 C 0.44104 0.91346 0.60275 0.0
C271 C 0.47391 0.8993 0.60397 0.0
C272 C 0.45884 0.93253 0.60722 0.0
C273 C 0.49115 0.91862 0.60841 0.0
C274 C 0.36078 0.88611 0.60583 0.0
C275 C 0.33054 0.87597 0.6318 0.0
N276 N 0.32353 0.89213 0.62786 0.0
C277 C 0.35325 0.90259 0.60204 0.0
C278 C 0.34932 0.87266 0.62084 0.0
C279 C 0.3344 0.90538 0.61334 0.0
C280 C 0.40451 0.91013 0.553 0.0
N281 N 0.4186 0.89965 0.55999 0.0
C282 C 0.45343 0.91853 0.54043 0.0
C283 C 0.44251 0.9034 0.55395 0.0
C284 C 0.43962 0.92996 0.53322 0.0
C285 C 0.41475 0.92551 0.53943 0.0
H286 H 0.38549 0.90664 0.55814 0.0
H287 H 0.45309 0.89461 0.55971 0.0
C288 C 0.41605 0.87309 0.64926 0.0
N289 N 0.40701 0.88385 0.63695 0.0
C290 C 0.41979 0.87857 0.66867 0.0
C291 C 0.40547 0.90647 0.66221 0.0
C292 C 0.40237 0.90062 0.64283 0.0
C293 C 0.41393 0.89516 0.67537 0.0
H294 H 0.41973 0.85993 0.64403 0.0
H295 H 0.39571 0.90917 0.63261 0.0
C296 C 0.39759 0.85497 0.54874 0.0
N297 N 0.41256 0.86282 0.51062 0.0
C298 C 0.38148 0.85849 0.53511 0.0
C299 C 0.42126 0.8553 0.54294 0.0
C300 C 0.38941 0.86248 0.51592 0.0
C301 C 0.42848 0.85932 0.52362 0.0
C302 C 0.37442 0.82268 0.61375 0.0
C303 C 0.36631 0.8097 0.59784 0.0
C304 C 0.37262 0.81447 0.63233 0.0
C305 C 0.35641 0.78869 0.60081 0.0
C306 C 0.3626 0.79337 0.6347 0.0
N307 N 0.35477 0.78103 0.61903 0.0
C308 C 0.45002 0.83695 0.59938 0.0
C309 C 0.42237 0.81675 0.57546 0.0
C310 C 0.46584 0.82584 0.59738 0.0
N311 N 0.42894 0.83234 0.58837 0.0
C312 C 0.43754 0.80515 0.57308 0.0
C313 C 0.4597 0.80979 0.58402 0.0
H314 H 0.45468 0.84945 0.60952 0.0
H315 H 0.40568 0.81366 0.5667 0.0
C316 C 0.32405 0.85002 0.57094 0.0
N317 N 0.33373 0.84183 0.58529 0.0
C318 C 0.29842 0.84193 0.56664 0.0
C319 C 0.29305 0.81791 0.59275 0.0
C320 C 0.31868 0.82659 0.59663 0.0
C321 C 0.28264 0.82533 0.57734 0.0
H322 H 0.33629 0.86285 0.56282 0.0
H323 H 0.32646 0.821 0.60862 0.0
O324 O 0.43167 0.87783 0.59668 0.0
O325 O 0.3792 0.8833 0.59473 0.0
O326 O 0.39035 0.85139 0.56769 0.0
O327 O 0.38457 0.8433 0.61125 0.0
H328 H 0.42165 0.91186 0.60051 0.0
H329 H 0.48017 0.88652 0.60268 0.0
H330 H 0.45319 0.94561 0.6085 0.0
H331 H 0.51076 0.92083 0.61063 0.0
H332 H 0.32154 0.86571 0.64346 0.0
H333 H 0.36192 0.91312 0.59047 0.0
H334 H 0.35483 0.85984 0.62409 0.0
H335 H 0.32842 0.91808 0.61055 0.0
H336 H 0.47252 0.92133 0.53572 0.0
H337 H 0.40363 0.93413 0.53423 0.0
H338 H 0.42609 0.86938 0.67849 0.0
H339 H 0.40089 0.91941 0.66695 0.0
H340 H 0.36309 0.85822 0.53926 0.0
H341 H 0.43417 0.85295 0.55331 0.0
H342 H 0.37717 0.86532 0.50524 0.0
H343 H 0.44683 0.85979 0.51898 0.0
H344 H 0.36742 0.81575 0.58336 0.0
H345 H 0.37891 0.82433 0.64478 0.0
H346 H 0.35001 0.77847 0.58864 0.0
H347 H 0.36106 0.78681 0.64901 0.0
H348 H 0.48259 0.82969 0.60623 0.0
H349 H 0.43231 0.79299 0.56251 0.0
H350 H 0.29114 0.84844 0.55493 0.0
H351 H 0.28176 0.80503 0.60134 0.0
Li352 Li 0.48798 0.36756 0.10893 0.0
Li353 Li 0.48081 0.34441 0.0813 0.0
Li354 Li 0.52435 0.37002 0.08789 0.0
Li355 Li 0.49048 0.37971 0.07513 0.0
C356 C 0.51051 0.33685 0.11829 0.0
N357 N 0.52541 0.31632 0.1471 0.0
C358 C 0.49531 0.31701 0.1233 0.0
C359 C 0.53349 0.3461 0.12776 0.0
C360 C 0.50311 0.30693 0.13796 0.0
C361 C 0.54064 0.33551 0.14232 0.0
C362 C 0.43648 0.3479 0.08814 0.0
C363 C 0.40037 0.32802 0.06935 0.0
N364 N 0.38768 0.32053 0.08598 0.0
C365 C 0.42302 0.34014 0.10505 0.0
C366 C 0.42503 0.34195 0.07015 0.0
C367 C 0.39838 0.32627 0.10365 0.0
C368 C 0.4788 0.38911 0.14067 0.0
N369 N 0.47857 0.37064 0.13469 0.0
C370 C 0.46794 0.35697 0.16642 0.0
C371 C 0.47263 0.35456 0.14697 0.0
C372 C 0.46907 0.37609 0.17326 0.0
C373 C 0.47412 0.39221 0.16002 0.0
H374 H 0.48323 0.40157 0.13048 0.0
H375 H 0.47191 0.33992 0.14176 0.0
C376 C 0.47596 0.31152 0.0577 0.0
N377 N 0.46499 0.31708 0.07304 0.0
C378 C 0.4707 0.29103 0.05366 0.0
C379 C 0.44125 0.2823 0.08028 0.0
C380 C 0.44719 0.30303 0.08386 0.0
C381 C 0.45409 0.2761 0.06563 0.0
H382 H 0.4904 0.32296 0.04957 0.0
H383 H 0.43918 0.30779 0.09627 0.0
C384 C 0.53043 0.40673 0.10816 0.0
N385 N 0.56494 0.43601 0.13071 0.0
C386 C 0.54017 0.42695 0.10194 0.0
C387 C 0.53802 0.40147 0.12596 0.0
C388 C 0.55768 0.44151 0.11351 0.0
C389 C 0.55552 0.41646 0.13713 0.0
C390 C 0.50963 0.36771 0.04428 0.0
C391 C 0.5335 0.3797 0.03761 0.0
C392 C 0.48916 0.36218 0.0316 0.0
C393 C 0.53641 0.38631 0.01841 0.0
C394 C 0.49284 0.36911 0.01251 0.0
N395 N 0.51618 0.38095 0.00637 0.0
C396 C 0.56505 0.3573 0.08435 0.0
C397 C 0.57709 0.39317 0.08609 0.0
C398 C 0.59007 0.35897 0.08234 0.0
N399 N 0.55909 0.37425 0.0863 0.0
C400 C 0.6024 0.39556 0.08421 0.0
C401 C 0.60912 0.3783 0.08225 0.0
H402 H 0.55027 0.34246 0.0843 0.0
H403 H 0.57184 0.40644 0.08706 0.0
C404 C 0.46313 0.39918 0.05293 0.0
N405 N 0.48604 0.39918 0.05846 0.0
C406 C 0.46151 0.41381 0.03986 0.0
C407 C 0.507 0.4278 0.03852 0.0
C408 C 0.50772 0.41323 0.05181 0.0
C409 C 0.48371 0.42812 0.03238 0.0
H410 H 0.44622 0.3878 0.05857 0.0
H411 H 0.52561 0.41289 0.05669 0.0
O412 O 0.50327 0.34683 0.10376 0.0
O413 O 0.46059 0.36151 0.08922 0.0
O414 O 0.51332 0.39231 0.09693 0.0
O415 O 0.50631 0.36145 0.06314 0.0
H416 H 0.47756 0.30952 0.11612 0.0
H417 H 0.5459 0.36118 0.12379 0.0
H418 H 0.49142 0.29163 0.14205 0.0
H419 H 0.55836 0.34253 0.14977 0.0
H420 H 0.39132 0.32318 0.05552 0.0
H421 H 0.43152 0.34472 0.1191 0.0
H422 H 0.4351 0.34797 0.05694 0.0
H423 H 0.38778 0.32007 0.11661 0.0
H424 H 0.46436 0.34415 0.17609 0.0
H425 H 0.47481 0.40712 0.16461 0.0
H426 H 0.4814 0.28708 0.04242 0.0
H427 H 0.42819 0.2713 0.08978 0.0
H428 H 0.53434 0.43137 0.08831 0.0
H429 H 0.53023 0.38605 0.13124 0.0
H430 H 0.56546 0.4572 0.10883 0.0
H431 H 0.56154 0.41257 0.15093 0.0
H432 H 0.54955 0.38405 0.04723 0.0
H433 H 0.47063 0.35275 0.0365 0.0
H434 H 0.55473 0.39573 0.01308 0.0
H435 H 0.47713 0.36509 0.00257 0.0
H436 H 0.59449 0.34527 0.08104 0.0
H437 H 0.61652 0.41073 0.08393 0.0
H438 H 0.44326 0.41378 0.0354 0.0
H439 H 0.52445 0.43883 0.03322 0.0
Li440 Li 0.10286 0.61775 0.60407 0.0
Li441 Li 0.13325 0.61112 0.58082 0.0
Li442 Li 0.11313 0.63552 0.57368 0.0
Li443 Li 0.08858 0.6006 0.57287 0.0
C444 C 0.15196 0.65569 0.59621 0.0
N445 N 0.18277 0.69619 0.5963 0.0
C446 C 0.17344 0.66233 0.5846 0.0
C447 C 0.14624 0.66958 0.60801 0.0
C448 C 0.18877 0.68289 0.58482 0.0
C449 C 0.16203 0.69001 0.6078 0.0
C450 C 0.1062 0.57425 0.60202 0.0
C451 C 0.10461 0.53974 0.59803 0.0
N452 N 0.1104 0.53919 0.61705 0.0
C453 C 0.11186 0.57325 0.62159 0.0
C454 C 0.10232 0.55728 0.59017 0.0
C455 C 0.11402 0.55544 0.62889 0.0
C456 C 0.07108 0.61144 0.63634 0.0
N457 N 0.09539 0.61848 0.63034 0.0
C458 C 0.11014 0.62493 0.66281 0.0
C459 C 0.11482 0.62531 0.64301 0.0
C460 C 0.08521 0.61753 0.66956 0.0
C461 C 0.06551 0.61086 0.65604 0.0
H462 H 0.05608 0.60605 0.62581 0.0
H463 H 0.13396 0.6306 0.63772 0.0
C464 C 0.1781 0.61062 0.56346 0.0
N465 N 0.16356 0.60549 0.5796 0.0
C466 C 0.20103 0.6076 0.56269 0.0
C467 C 0.19366 0.59419 0.59521 0.0
C468 C 0.17095 0.59754 0.59536 0.0
C469 C 0.20916 0.59939 0.57877 0.0
H470 H 0.17216 0.61749 0.55132 0.0
H471 H 0.1595 0.59421 0.60824 0.0
C472 C 0.06118 0.62606 0.57412 0.0
N473 N 0.02464 0.63284 0.55186 0.0
C474 C 0.06434 0.62862 0.55412 0.0
C475 C 0.03946 0.62699 0.58281 0.0
C476 C 0.04565 0.63201 0.54312 0.0
C477 C 0.0212 0.63043 0.5713 0.0
C478 C 0.11904 0.60455 0.53991 0.0
C479 C 0.116 0.61196 0.52168 0.0
C480 C 0.12295 0.58611 0.54137 0.0
C481 C 0.1166 0.60062 0.50522 0.0
C482 C 0.12344 0.57522 0.52458 0.0
N483 N 0.12025 0.58263 0.507 0.0
C484 C 0.13659 0.66648 0.54757 0.0
C485 C 0.11209 0.67523 0.57132 0.0
C486 C 0.14769 0.68675 0.54208 0.0
N487 N 0.12005 0.66135 0.56251 0.0
C488 C 0.12286 0.69576 0.56636 0.0
C489 C 0.14188 0.70175 0.5523 0.0
H490 H 0.14274 0.65508 0.54105 0.0
H491 H 0.0991 0.67062 0.58332 0.0
C492 C 0.04947 0.56328 0.57317 0.0
N493 N 0.06192 0.5793 0.56158 0.0
C494 C 0.03304 0.54529 0.56514 0.0
C495 C 0.04075 0.56143 0.53368 0.0
C496 C 0.05708 0.57906 0.54233 0.0
C497 C 0.02931 0.54403 0.54505 0.0
H498 H 0.05336 0.56412 0.58852 0.0
H499 H 0.06675 0.59217 0.53352 0.0
O500 O 0.13641 0.63573 0.59586 0.0
O501 O 0.10373 0.59153 0.59471 0.0
O502 O 0.07917 0.62271 0.58528 0.0
O503 O 0.11817 0.61538 0.55617 0.0
H504 H 0.17806 0.65177 0.57534 0.0
H505 H 0.12961 0.66465 0.61704 0.0
H506 H 0.20537 0.68828 0.57581 0.0
H507 H 0.15774 0.70098 0.61673 0.0
H508 H 0.10166 0.52652 0.58901 0.0
H509 H 0.11475 0.58615 0.63102 0.0
H510 H 0.09726 0.55749 0.57513 0.0
H511 H 0.11856 0.55453 0.64398 0.0
H512 H 0.1259 0.62986 0.67272 0.0
H513 H 0.04604 0.60523 0.66063 0.0
H514 H 0.2126 0.61224 0.54987 0.0
H515 H 0.19912 0.58775 0.60791 0.0
H516 H 0.08102 0.62801 0.54714 0.0
H517 H 0.03676 0.62508 0.59829 0.0
H518 H 0.04785 0.63399 0.52762 0.0
H519 H 0.00429 0.63118 0.57783 0.0
H520 H 0.11295 0.62623 0.52028 0.0
H521 H 0.12582 0.58037 0.5553 0.0
H522 H 0.11412 0.60611 0.49104 0.0
H523 H 0.12642 0.5609 0.52552 0.0
H524 H 0.16224 0.69085 0.53111 0.0
H525 H 0.11815 0.70692 0.57472 0.0
H526 H 0.02421 0.53227 0.57439 0.0
H527 H 0.03842 0.56104 0.51812 0.0
Li528 Li 0.87004 0.38141 0.40158 0.0
Li529 Li 0.91114 0.38555 0.41118 0.0
Li530 Li 0.8991 0.37719 0.37795 0.0
Li531 Li 0.88232 0.35177 0.40556 0.0
C532 C 0.89935 0.41919 0.38403 0.0
N533 N 0.89484 0.45373 0.368 0.0
C534 C 0.90598 0.4372 0.39476 0.0
C535 C 0.89066 0.41885 0.36506 0.0
C536 C 0.90348 0.45446 0.38643 0.0
C537 C 0.88847 0.43644 0.35724 0.0
C538 C 0.87817 0.38115 0.44173 0.0
C539 C 0.87338 0.38247 0.47631 0.0
N540 N 0.87633 0.40248 0.47492 0.0
C541 C 0.88111 0.4017 0.44064 0.0
C542 C 0.87425 0.37143 0.4597 0.0
C543 C 0.88013 0.41223 0.45757 0.0
C544 C 0.82274 0.37461 0.41651 0.0
N545 N 0.84074 0.38843 0.40567 0.0
C546 C 0.81385 0.40738 0.40037 0.0
C547 C 0.83686 0.4048 0.39787 0.0
C548 C 0.79449 0.39284 0.4108 0.0
C549 C 0.79936 0.37641 0.41914 0.0
H550 H 0.82626 0.3617 0.42255 0.0
H551 H 0.85124 0.41569 0.38936 0.0
C552 C 0.9511 0.41995 0.4235 0.0
N553 N 0.93711 0.4004 0.42794 0.0
C554 C 0.96575 0.4328 0.4377 0.0
C555 C 0.95281 0.40456 0.4602 0.0
C556 C 0.93852 0.39226 0.44553 0.0
C557 C 0.96574 0.42529 0.45653 0.0
H558 H 0.94957 0.42588 0.40932 0.0
H559 H 0.92716 0.37658 0.44853 0.0
C560 C 0.8396 0.35345 0.37824 0.0
N561 N 0.78962 0.34473 0.36898 0.0
C562 C 0.82093 0.33695 0.38687 0.0
C563 C 0.83287 0.36531 0.36466 0.0
C564 C 0.79577 0.33283 0.38204 0.0
C565 C 0.8075 0.36072 0.36025 0.0
C566 C 0.94042 0.36617 0.40194 0.0
C567 C 0.96164 0.38122 0.39422 0.0
C568 C 0.94315 0.35381 0.41692 0.0
C569 C 0.98533 0.38376 0.40177 0.0
C570 C 0.96717 0.35681 0.42406 0.0
N571 N 0.98758 0.37161 0.41641 0.0
C572 C 0.92932 0.39412 0.34506 0.0
C573 C 0.89206 0.36556 0.33965 0.0
C574 C 0.93451 0.39581 0.32524 0.0
N575 N 0.90828 0.37924 0.35172 0.0
C576 C 0.89637 0.36678 0.31982 0.0
C577 C 0.91766 0.38217 0.3124 0.0
H578 H 0.94171 0.4049 0.35508 0.0
H579 H 0.87555 0.35385 0.34542 0.0
C580 C 0.85435 0.31906 0.42777 0.0
N581 N 0.87129 0.32447 0.41312 0.0
C582 C 0.84298 0.29869 0.43283 0.0
C583 C 0.86775 0.28998 0.40828 0.0
C584 C 0.87862 0.31061 0.40363 0.0
C585 C 0.84916 0.28386 0.42266 0.0
H586 H 0.84884 0.33049 0.43491 0.0
H587 H 0.89216 0.3155 0.39199 0.0
O588 O 0.90205 0.40224 0.39194 0.0
O589 O 0.87998 0.3707 0.42542 0.0
O590 O 0.8643 0.3581 0.38323 0.0
O591 O 0.91703 0.36377 0.39507 0.0
H592 H 0.91297 0.43789 0.4094 0.0
H593 H 0.88548 0.40517 0.35647 0.0
H594 H 0.90845 0.46846 0.39461 0.0
H595 H 0.88166 0.43633 0.34261 0.0
H596 H 0.87045 0.37516 0.49033 0.0
H597 H 0.88424 0.40947 0.4269 0.0
H598 H 0.8722 0.35558 0.46083 0.0
H599 H 0.88246 0.42816 0.45693 0.0
H600 H 0.81117 0.42049 0.39396 0.0
H601 H 0.78499 0.3646 0.42702 0.0
H602 H 0.97536 0.44874 0.43438 0.0
H603 H 0.9526 0.39825 0.47451 0.0
H604 H 0.82577 0.32755 0.39734 0.0
H605 H 0.84704 0.37805 0.35775 0.0
H606 H 0.78111 0.3202 0.38873 0.0
H607 H 0.80201 0.36991 0.34991 0.0
H608 H 0.95978 0.39097 0.38268 0.0
H609 H 0.92686 0.34215 0.4231 0.0
H610 H 0.00192 0.39542 0.39602 0.0
H611 H 0.96958 0.34743 0.43572 0.0
H612 H 0.95106 0.40791 0.31997 0.0
H613 H 0.88316 0.35582 0.31035 0.0
H614 H 0.82873 0.29447 0.44403 0.0
H615 H 0.87274 0.27888 0.40004 0.0
Li616 Li 0.39596 0.87244 0.88513 0.0
Li617 Li 0.40324 0.88976 0.91551 0.0
Li618 Li 0.41237 0.85848 0.91233 0.0
Li619 Li 0.36995 0.85889 0.91377 0.0
C620 C 0.45279 0.89517 0.90315 0.0
N621 N 0.50225 0.91655 0.91312 0.0
C622 C 0.45967 0.89878 0.92261 0.0
C623 C 0.47115 0.90224 0.88878 0.0
C624 C 0.48474 0.90972 0.92734 0.0
C625 C 0.49603 0.91301 0.89411 0.0
C626 C 0.36999 0.90181 0.89881 0.0
C627 C 0.35567 0.92641 0.91434 0.0
N628 N 0.3647 0.93936 0.89925 0.0
C629 C 0.37888 0.91529 0.88337 0.0
C630 C 0.35805 0.90733 0.91434 0.0
C631 C 0.37611 0.93422 0.88389 0.0
C632 C 0.37949 0.86348 0.84643 0.0
N633 N 0.39719 0.87616 0.8583 0.0
C634 C 0.41851 0.89653 0.83168 0.0
C635 C 0.41634 0.89248 0.85141 0.0
C636 C 0.40057 0.88375 0.81895 0.0
C637 C 0.3808 0.86704 0.82653 0.0
H638 H 0.36434 0.85072 0.85244 0.0
H639 H 0.42971 0.90254 0.86134 0.0
C640 C 0.41348 0.91864 0.94527 0.0
N641 N 0.41559 0.91603 0.926 0.0
C642 C 0.42642 0.93742 0.95372 0.0
C643 C 0.44238 0.95062 0.9221 0.0
C644 C 0.42908 0.93158 0.91427 0.0
C645 C 0.44173 0.95346 0.94215 0.0
H646 H 0.40296 0.90587 0.95423 0.0
H647 H 0.43058 0.92886 0.899 0.0
C648 C 0.39027 0.83121 0.88318 0.0
N649 N 0.40402 0.80516 0.85971 0.0
C650 C 0.37443 0.8109 0.88124 0.0
C651 C 0.41315 0.83826 0.87324 0.0
C652 C 0.38171 0.79797 0.86929 0.0
C653 C 0.41974 0.82486 0.86143 0.0
C654 C 0.3832 0.8593 0.95075 0.0
C655 C 0.38837 0.84418 0.96108 0.0
C656 C 0.36456 0.86628 0.95745 0.0
C657 C 0.37426 0.83582 0.97755 0.0
C658 C 0.35084 0.85754 0.97397 0.0
N659 N 0.3559 0.84258 0.98358 0.0
C660 C 0.45796 0.84948 0.91429 0.0
C661 C 0.42067 0.82383 0.92527 0.0
C662 C 0.47183 0.83707 0.91799 0.0
N663 N 0.43289 0.84281 0.91817 0.0
C664 C 0.43382 0.81092 0.92925 0.0
C665 C 0.45978 0.81748 0.92555 0.0
H666 H 0.46729 0.86415 0.90785 0.0
H667 H 0.40059 0.81864 0.92765 0.0
C668 C 0.31803 0.85052 0.91625 0.0
N669 N 0.33667 0.84365 0.92125 0.0
C670 C 0.29301 0.83882 0.92017 0.0
C671 C 0.307 0.8135 0.93484 0.0
C672 C 0.33171 0.82558 0.93041 0.0
C673 C 0.2872 0.81987 0.9293 0.0
H674 H 0.32253 0.86479 0.90864 0.0
H675 H 0.34694 0.82041 0.93398 0.0
O676 O 0.42829 0.88481 0.89808 0.0
O677 O 0.37292 0.88332 0.89871 0.0
O678 O 0.38361 0.84385 0.89524 0.0
O679 O 0.39667 0.86751 0.93445 0.0
H680 H 0.44582 0.89319 0.93395 0.0
H681 H 0.46634 0.89926 0.87367 0.0
H682 H 0.49029 0.91275 0.94232 0.0
H683 H 0.51042 0.91853 0.88314 0.0
H684 H 0.34662 0.93092 0.92634 0.0
H685 H 0.38798 0.91126 0.87116 0.0
H686 H 0.35075 0.89705 0.92629 0.0
H687 H 0.38307 0.94484 0.87209 0.0
H688 H 0.4342 0.90942 0.82647 0.0
H689 H 0.36637 0.85697 0.81725 0.0
H690 H 0.4258 0.93894 0.96929 0.0
H691 H 0.45393 0.96269 0.91275 0.0
H692 H 0.35675 0.80519 0.88899 0.0
H693 H 0.42579 0.85387 0.87473 0.0
H694 H 0.36965 0.78221 0.86767 0.0
H695 H 0.4374 0.8301 0.85366 0.0
H696 H 0.40326 0.83905 0.95656 0.0
H697 H 0.36051 0.87814 0.94984 0.0
H698 H 0.37798 0.82401 0.98559 0.0
H699 H 0.33615 0.86264 0.97915 0.0
H700 H 0.49165 0.84256 0.91441 0.0
H701 H 0.42373 0.79594 0.9351 0.0
H702 H 0.27836 0.84416 0.91533 0.0
H703 H 0.30342 0.79912 0.94213 0.0
Li704 Li 0.49323 0.38141 0.41583 0.0
Li705 Li 0.48458 0.34613 0.40775 0.0
Li706 Li 0.5272 0.37117 0.40477 0.0
Li707 Li 0.49333 0.37061 0.38249 0.0
C708 C 0.52384 0.36094 0.4416 0.0
N709 N 0.56 0.35793 0.46687 0.0
C710 C 0.52509 0.34192 0.44598 0.0
C711 C 0.54103 0.37842 0.45009 0.0
C712 C 0.54347 0.34071 0.4588 0.0
C713 C 0.55917 0.37658 0.46281 0.0
C714 C 0.44172 0.34986 0.40594 0.0
C715 C 0.40526 0.31983 0.39993 0.0
N716 N 0.39642 0.3216 0.41786 0.0
C717 C 0.43229 0.35141 0.42429 0.0
C718 C 0.42812 0.33398 0.39362 0.0
C719 C 0.40933 0.33696 0.43006 0.0
C720 C 0.47673 0.41357 0.42321 0.0
N721 N 0.48565 0.40013 0.43177 0.0
C722 C 0.49191 0.4183 0.46155 0.0
C723 C 0.49209 0.40162 0.45078 0.0
C724 C 0.48522 0.43345 0.45249 0.0
C725 C 0.47675 0.43071 0.4333 0.0
H726 H 0.47123 0.41167 0.40815 0.0
H727 H 0.49856 0.39043 0.45729 0.0
C728 C 0.46563 0.3041 0.40196 0.0
N729 N 0.46734 0.31876 0.41522 0.0
C730 C 0.46027 0.28409 0.40785 0.0
C731 C 0.45652 0.29434 0.44076 0.0
C732 C 0.46156 0.31417 0.43414 0.0
C733 C 0.45716 0.27929 0.42763 0.0
H734 H 0.47055 0.30821 0.38709 0.0
H735 H 0.4633 0.32623 0.44437 0.0
C736 C 0.52385 0.41448 0.39681 0.0
N737 N 0.53281 0.45558 0.40066 0.0
C738 C 0.51368 0.42436 0.38349 0.0
C739 C 0.53879 0.42556 0.41198 0.0
C740 C 0.51841 0.44514 0.3857 0.0
C741 C 0.543 0.4463 0.41372 0.0
C742 C 0.51357 0.34554 0.36782 0.0
C743 C 0.53827 0.35286 0.3609 0.0
C744 C 0.49393 0.33485 0.35534 0.0
C745 C 0.54289 0.34946 0.3416 0.0
C746 C 0.49933 0.33183 0.33613 0.0
N747 N 0.52349 0.33913 0.32971 0.0
C748 C 0.56891 0.3594 0.41121 0.0
C749 C 0.57949 0.39432 0.40373 0.0
C750 C 0.59425 0.36196 0.41305 0.0
N751 N 0.56205 0.37553 0.40692 0.0
C752 C 0.60509 0.39752 0.40511 0.0
C753 C 0.6128 0.38122 0.40989 0.0
H754 H 0.55465 0.3445 0.41315 0.0
H755 H 0.57356 0.40677 0.39981 0.0
C756 C 0.46351 0.37024 0.3494 0.0
N757 N 0.48724 0.37609 0.35661 0.0
C758 C 0.45972 0.37283 0.32977 0.0
C759 C 0.50483 0.38795 0.32567 0.0
C760 C 0.50772 0.38527 0.34535 0.0
C761 C 0.48061 0.38137 0.31763 0.0
H762 H 0.44761 0.36312 0.35878 0.0
H763 H 0.52633 0.38994 0.35162 0.0
O764 O 0.50613 0.36248 0.4289 0.0
O765 O 0.46444 0.36354 0.40024 0.0
O766 O 0.51904 0.39404 0.39509 0.0
O767 O 0.5086 0.34905 0.38659 0.0
H768 H 0.5124 0.32824 0.43927 0.0
H769 H 0.54054 0.39327 0.44679 0.0
H770 H 0.5447 0.3261 0.46223 0.0
H771 H 0.57263 0.39001 0.46941 0.0
H772 H 0.39459 0.30739 0.39061 0.0
H773 H 0.44268 0.36353 0.43404 0.0
H774 H 0.43533 0.33243 0.37946 0.0
H775 H 0.40183 0.33792 0.44424 0.0
H776 H 0.49849 0.42002 0.47639 0.0
H777 H 0.4713 0.44211 0.42599 0.0
H778 H 0.46128 0.27304 0.39728 0.0
H779 H 0.45422 0.29119 0.45612 0.0
H780 H 0.50199 0.41604 0.37172 0.0
H781 H 0.5468 0.41818 0.42242 0.0
H782 H 0.51053 0.45295 0.37557 0.0
H783 H 0.55431 0.455 0.4255 0.0
H784 H 0.55371 0.36123 0.37025 0.0
H785 H 0.47464 0.32941 0.36029 0.0
H786 H 0.56191 0.35511 0.33605 0.0
H787 H 0.48429 0.3238 0.32628 0.0
H788 H 0.59917 0.34896 0.41695 0.0
H789 H 0.61864 0.41252 0.40208 0.0
H790 H 0.44078 0.36751 0.32402 0.0
H791 H 0.52135 0.3948 0.31675 0.0
Li792 Li 0.0821 0.6033 0.91255 0.0
Li793 Li 0.12464 0.61132 0.90321 0.0
Li794 Li 0.1063 0.63843 0.90703 0.0
Li795 Li 0.09387 0.61337 0.87986 0.0
C796 C 0.11716 0.61107 0.94298 0.0
N797 N 0.12673 0.59213 0.97548 0.0
C798 C 0.1118 0.59008 0.94299 0.0
C799 C 0.12729 0.62242 0.95955 0.0
C800 C 0.11677 0.58078 0.95954 0.0
C801 C 0.13204 0.61257 0.97583 0.0
C802 C 0.10352 0.57409 0.88702 0.0
C803 C 0.13021 0.56318 0.86611 0.0
N804 N 0.12231 0.5448 0.87513 0.0
C805 C 0.09558 0.55504 0.89603 0.0
C806 C 0.1209 0.57816 0.8719 0.0
C807 C 0.10533 0.54046 0.88982 0.0
C808 C 0.04382 0.56704 0.92344 0.0
N809 N 0.05689 0.5865 0.92884 0.0
C810 C 0.04057 0.58015 0.96085 0.0
C811 C 0.05476 0.5935 0.94682 0.0
C812 C 0.02852 0.55954 0.95616 0.0
C813 C 0.02935 0.55315 0.937 0.0
H814 H 0.04582 0.56207 0.90893 0.0
H815 H 0.06534 0.60916 0.95055 0.0
C816 C 0.1767 0.62359 0.90321 0.0
N817 N 0.15569 0.60704 0.90658 0.0
C818 C 0.20046 0.62225 0.90488 0.0
C819 C 0.18066 0.58689 0.9138 0.0
C820 C 0.15726 0.58896 0.91211 0.0
C821 C 0.20262 0.60367 0.91009 0.0
H822 H 0.17497 0.63786 0.89911 0.0
H823 H 0.14044 0.5761 0.91519 0.0
C824 C 0.04768 0.6169 0.90114 0.0
N825 N -0.00259 0.60268 0.91101 0.0
C826 C 0.03057 0.60077 0.89086 0.0
C827 C 0.03928 0.62589 0.91635 0.0
C828 C 0.00521 0.59377 0.8961 0.0
C829 C 0.01377 0.61846 0.92114 0.0
C830 C 0.13788 0.64465 0.86952 0.0
C831 C 0.13328 0.66225 0.86456 0.0
C832 C 0.15333 0.63798 0.85773 0.0
C833 C 0.14374 0.67264 0.84761 0.0
C834 C 0.16345 0.64879 0.8409 0.0
N835 N 0.15845 0.66573 0.83622 0.0
C836 C 0.13386 0.67213 0.92736 0.0
C837 C 0.10176 0.67766 0.90888 0.0
C838 C 0.14283 0.69227 0.93342 0.0
N839 N 0.11396 0.66536 0.91515 0.0
C840 C 0.11038 0.69815 0.91439 0.0
C841 C 0.13139 0.70568 0.92664 0.0
H842 H 0.14333 0.66199 0.93181 0.0
H843 H 0.08598 0.67175 0.89909 0.0
C844 C 0.07961 0.59248 0.84424 0.0
N845 N 0.08409 0.61046 0.85353 0.0
C846 C 0.07479 0.59092 0.82443 0.0
C847 C 0.07725 0.62595 0.82441 0.0
C848 C 0.0821 0.62682 0.84423 0.0
C849 C 0.07415 0.60796 0.81421 0.0
H850 H 0.08009 0.57939 0.85211 0.0
H851 H 0.08481 0.64069 0.85214 0.0
O852 O 0.11194 0.62046 0.92707 0.0
O853 O 0.09447 0.5887 0.89308 0.0
O854 O 0.07264 0.6236 0.89654 0.0
O855 O 0.12776 0.63427 0.88606 0.0
H856 H 0.10364 0.58101 0.93043 0.0
H857 H 0.13131 0.63865 0.9599 0.0
H858 H 0.11265 0.56454 0.95973 0.0
H859 H 0.13988 0.62118 0.98875 0.0
H860 H 0.14372 0.56618 0.85445 0.0
H861 H 0.08225 0.55159 0.90783 0.0
H862 H 0.12706 0.59272 0.86469 0.0
H863 H 0.09945 0.5257 0.89673 0.0
H864 H 0.04006 0.58564 0.97543 0.0
H865 H 0.0204 0.53734 0.93287 0.0
H866 H 0.21694 0.63551 0.90177 0.0
H867 H 0.18159 0.57237 0.91811 0.0
H868 H 0.03687 0.59362 0.87909 0.0
H869 H 0.05239 0.63835 0.92446 0.0
H870 H 0.99174 0.58123 0.88835 0.0
H871 H 0.00698 0.62519 0.93294 0.0
H872 H 0.1215 0.6677 0.87356 0.0
H873 H 0.15767 0.62472 0.86158 0.0
H874 H 0.14014 0.68618 0.84351 0.0
H875 H 0.17536 0.64375 0.83161 0.0
H876 H 0.15951 0.69756 0.94241 0.0
H877 H 0.10126 0.7081 0.90873 0.0
H878 H 0.07191 0.57665 0.81712 0.0
H879 H 0.07686 0.63942 0.81705 0.0
Li880 Li 0.58905 0.13961 0.41178 0.0
Li881 Li 0.6273 0.13141 0.41491 0.0
Li882 Li 0.59866 0.11901 0.38621 0.0
Li883 Li 0.58757 0.10472 0.41803 0.0
C884 C 0.62488 0.16657 0.38639 0.0
N885 N 0.63786 0.20513 0.37076 0.0
C886 C 0.6435 0.18306 0.3951 0.0
C887 C 0.61319 0.16966 0.36951 0.0
C888 C 0.64971 0.20244 0.38704 0.0
C889 C 0.61991 0.18927 0.3619 0.0
C890 C 0.61325 0.13751 0.45135 0.0
C891 C 0.6381 0.13644 0.47931 0.0
N892 N 0.63827 0.15506 0.48478 0.0
C893 C 0.61349 0.15656 0.45734 0.0
C894 C 0.62546 0.12728 0.4625 0.0
C895 C 0.62631 0.1652 0.47426 0.0
C896 C 0.54727 0.14801 0.42298 0.0
N897 N 0.57163 0.15745 0.41755 0.0
C898 C 0.56779 0.19 0.42072 0.0
C899 C 0.58217 0.17806 0.41662 0.0
C900 C 0.54229 0.18062 0.42575 0.0
C901 C 0.53214 0.15932 0.42701 0.0
H902 H 0.53948 0.1316 0.42392 0.0
H903 H 0.60172 0.18528 0.41284 0.0
C904 C 0.67649 0.13105 0.41583 0.0
N905 N 0.66155 0.14095 0.42258 0.0
C906 C 0.70228 0.13863 0.41965 0.0
C907 C 0.69652 0.16591 0.43798 0.0
C908 C 0.671 0.15798 0.43359 0.0
C909 C 0.71257 0.15644 0.43064 0.0
H910 H 0.66854 0.11768 0.40688 0.0
H911 H 0.65897 0.16593 0.43834 0.0
C912 C 0.5471 0.11249 0.38828 0.0
N913 N 0.50729 0.11016 0.36433 0.0
C914 C 0.52659 0.09425 0.38657 0.0
C915 C 0.54719 0.1296 0.378 0.0
C916 C 0.5067 0.09336 0.37433 0.0
C917 C 0.52693 0.12811 0.36592 0.0
C918 C 0.61613 0.08537 0.40511 0.0
C919 C 0.60658 0.07021 0.39113 0.0
C920 C 0.62541 0.0808 0.42252 0.0
C921 C 0.60606 0.05057 0.39497 0.0
C922 C 0.62454 0.06098 0.42582 0.0
N923 N 0.61493 0.04639 0.4121 0.0
C924 C 0.61378 0.12437 0.34722 0.0
C925 C 0.57677 0.09595 0.35362 0.0
C926 C 0.61165 0.11997 0.32749 0.0
N927 N 0.59621 0.11259 0.35971 0.0
C928 C 0.57384 0.09103 0.33403 0.0
C929 C 0.5913 0.10324 0.32069 0.0
H930 H 0.62929 0.13729 0.35257 0.0
H931 H 0.56358 0.08647 0.36399 0.0
C932 C 0.56678 0.08108 0.45022 0.0
N933 N 0.5687 0.0808 0.43068 0.0
C934 C 0.55078 0.06407 0.45989 0.0
C935 C 0.53937 0.0468 0.42908 0.0
C936 C 0.55552 0.06421 0.42 0.0
C937 C 0.53667 0.04679 0.44924 0.0
H938 H 0.57717 0.09466 0.45823 0.0
H939 H 0.55709 0.06472 0.40441 0.0
O940 O 0.61876 0.14745 0.394 0.0
O941 O 0.60081 0.12882 0.43481 0.0
O942 O 0.56678 0.11356 0.40016 0.0
O943 O 0.61644 0.10462 0.40176 0.0
H944 H 0.65293 0.18098 0.40804 0.0
H945 H 0.59924 0.15706 0.36222 0.0
H946 H 0.66396 0.21535 0.39373 0.0
H947 H 0.61093 0.19187 0.34889 0.0
H948 H 0.64776 0.12875 0.48801 0.0
H949 H 0.60404 0.16466 0.44898 0.0
H950 H 0.62527 0.11246 0.45819 0.0
H951 H 0.62677 0.17998 0.47901 0.0
H952 H 0.57659 0.2064 0.42001 0.0
H953 H 0.51256 0.1514 0.43065 0.0
H954 H 0.71415 0.13108 0.41355 0.0
H955 H 0.70384 0.18004 0.44602 0.0
H956 H 0.52606 0.08089 0.39456 0.0
H957 H 0.56255 0.14394 0.37952 0.0
H958 H 0.49078 0.0793 0.37279 0.0
H959 H 0.52679 0.14125 0.35788 0.0
H960 H 0.5995 0.07353 0.37753 0.0
H961 H 0.63313 0.09243 0.43337 0.0
H962 H 0.59856 0.03864 0.38434 0.0
H963 H 0.63151 0.05719 0.43928 0.0
H964 H 0.62541 0.12983 0.31762 0.0
H965 H 0.55815 0.07781 0.32937 0.0
H966 H 0.54931 0.06447 0.4755 0.0
H967 H 0.52859 0.03375 0.42044 0.0
Li968 Li 0.507 0.64095 0.91305 0.0
Li969 Li 0.49972 0.60562 0.91602 0.0
Li970 Li 0.5029 0.62218 0.88307 0.0
Li971 Li 0.46599 0.61657 0.90525 0.0
C972 C 0.55292 0.63873 0.90849 0.0
N973 N 0.60093 0.66343 0.91895 0.0
C974 C 0.56013 0.64053 0.92792 0.0
C975 C 0.57014 0.64933 0.89435 0.0
C976 C 0.58448 0.65317 0.93293 0.0
C977 C 0.59434 0.66177 0.89994 0.0
C978 C 0.48179 0.61602 0.94941 0.0
C979 C 0.462 0.59289 0.97532 0.0
N980 N 0.47946 0.60481 0.98788 0.0
C981 C 0.49949 0.62809 0.96261 0.0
C982 C 0.46281 0.59834 0.95583 0.0
C983 C 0.49799 0.62216 0.98199 0.0
C984 C 0.50384 0.67145 0.93595 0.0
N985 N 0.5205 0.66757 0.92399 0.0
C986 C 0.54606 0.7029 0.92314 0.0
C987 C 0.54169 0.68272 0.91789 0.0
C988 C 0.52825 0.70742 0.9345 0.0
C989 C 0.5074 0.69126 0.94148 0.0
H990 H 0.48664 0.65931 0.93993 0.0
H991 H 0.55416 0.67951 0.90775 0.0
C992 C 0.49809 0.56589 0.91953 0.0
N993 N 0.50547 0.58397 0.92904 0.0
C994 C 0.49749 0.5483 0.92908 0.0
C995 C 0.51368 0.5685 0.95769 0.0
C996 C 0.51436 0.58575 0.94745 0.0
C997 C 0.50441 0.54934 0.94866 0.0
H998 H 0.49188 0.56497 0.90469 0.0
H999 H 0.521 0.60037 0.95451 0.0
C1000 C 0.49175 0.66087 0.88589 0.0
N1001 N 0.50552 0.7021 0.87909 0.0
C1002 C 0.47708 0.6715 0.8931 0.0
C1003 C 0.51329 0.67114 0.87507 0.0
C1004 C 0.48442 0.69238 0.88957 0.0
C1005 C 0.51994 0.692 0.87179 0.0
C1006 C 0.45632 0.58061 0.88777 0.0
C1007 C 0.44922 0.57743 0.86835 0.0
C1008 C 0.44113 0.56798 0.90197 0.0
C1009 C 0.42679 0.56178 0.86346 0.0
C1010 C 0.41884 0.55251 0.8965 0.0
N1011 N 0.41218 0.54977 0.87752 0.0
C1012 C 0.53124 0.61623 0.85137 0.0
C1013 C 0.49683 0.62641 0.84382 0.0
C1014 C 0.53653 0.61529 0.83173 0.0
N1015 N 0.51166 0.62172 0.85691 0.0
C1016 C 0.50137 0.62563 0.8241 0.0
C1017 C 0.52143 0.61999 0.81781 0.0
H1018 H 0.54257 0.61245 0.8622 0.0
H1019 H 0.48119 0.63046 0.84874 0.0
C1020 C 0.41994 0.61231 0.92298 0.0
N1021 N 0.43093 0.6113 0.90576 0.0
C1022 C 0.39434 0.60912 0.92386 0.0
C1023 C 0.39185 0.60401 0.88922 0.0
C1024 C 0.41756 0.60743 0.88901 0.0
C1025 C 0.37993 0.60495 0.90681 0.0
H1026 H 0.43116 0.61601 0.93599 0.0
H1027 H 0.42691 0.60719 0.87545 0.0
O1028 O 0.52925 0.62634 0.90328 0.0
O1029 O 0.4828 0.62166 0.93038 0.0
O1030 O 0.48542 0.6406 0.88979 0.0
O1031 O 0.47805 0.596 0.89288 0.0
H1032 H 0.54704 0.63235 0.939 0.0
H1033 H 0.56482 0.64806 0.87924 0.0
H1034 H 0.5903 0.6548 0.94793 0.0
H1035 H 0.60786 0.67014 0.88917 0.0
H1036 H 0.44748 0.5792 0.98046 0.0
H1037 H 0.51442 0.64176 0.95793 0.0
H1038 H 0.44885 0.58889 0.94589 0.0
H1039 H 0.51164 0.6313 0.99232 0.0
H1040 H 0.56236 0.71489 0.91739 0.0
H1041 H 0.49274 0.69393 0.94977 0.0
H1042 H 0.49104 0.53398 0.92133 0.0
H1043 H 0.51927 0.57009 0.97275 0.0
H1044 H 0.46041 0.66375 0.90158 0.0
H1045 H 0.52499 0.66317 0.86955 0.0
H1046 H 0.47341 0.70086 0.89524 0.0
H1047 H 0.53667 0.70018 0.86358 0.0
H1048 H 0.46083 0.58702 0.85717 0.0
H1049 H 0.44648 0.57014 0.91704 0.0
H1050 H 0.42099 0.5592 0.84849 0.0
H1051 H 0.40685 0.54268 0.90735 0.0
H1052 H 0.55226 0.61099 0.82749 0.0
H1053 H 0.48895 0.62897 0.81388 0.0
H1054 H 0.3861 0.61048 0.93766 0.0
H1055 H 0.38147 0.60074 0.87575 0.0
C1056 C 0.56423 0.09492 0.29119 0.0
C1057 C 0.58788 0.09903 0.29972 0.0
C1058 C 0.56118 0.09282 0.27109 0.0
C1059 C 0.58228 0.09487 0.25935 0.0
C1060 C 0.60594 0.09806 0.26796 0.0
C1061 C 0.60846 0.10015 0.28808 0.0
C1062 C 0.53568 0.08948 0.26239 0.0
C1063 C 0.62883 0.10018 0.25588 0.0
C1064 C 0.5742 0.07959 0.20643 0.0
C1065 C 0.57943 0.09853 0.19744 0.0
C1066 C 0.57455 0.07803 0.22665 0.0
C1067 C 0.58031 0.09584 0.23804 0.0
C1068 C 0.58512 0.11491 0.22905 0.0
C1069 C 0.58469 0.11602 0.20886 0.0
C1070 C 0.56923 0.05745 0.23582 0.0
C1071 C 0.59135 0.13425 0.24073 0.0
H1072 H 0.54831 0.09419 0.30015 0.0
H1073 H 0.62667 0.103 0.29471 0.0
H1074 H 0.53627 0.10338 0.25452 0.0
H1075 H 0.53059 0.07685 0.25174 0.0
H1076 H 0.52069 0.08595 0.27355 0.0
H1077 H 0.64523 0.10075 0.26488 0.0
H1078 H 0.62464 0.0873 0.24558 0.0
H1079 H 0.6341 0.11436 0.24721 0.0
H1080 H 0.5699 0.06601 0.19763 0.0
H1081 H 0.58919 0.13075 0.202 0.0
H1082 H 0.55377 0.0543 0.2465 0.0
H1083 H 0.5861 0.05734 0.24379 0.0
H1084 H 0.56399 0.04498 0.22496 0.0
H1085 H 0.5763 0.1327 0.25147 0.0
H1086 H 0.59362 0.14773 0.23152 0.0
H1087 H 0.60905 0.13707 0.24889 0.0
C1088 C 0.54959 0.6177 0.70386 0.0
C1089 C 0.52646 0.60776 0.69467 0.0
C1090 C 0.55123 0.61919 0.7241 0.0
C1091 C 0.52919 0.61059 0.73534 0.0
C1092 C 0.50598 0.59993 0.72618 0.0
C1093 C 0.50489 0.59866 0.70596 0.0
C1094 C 0.57633 0.63053 0.73341 0.0
C1095 C 0.48204 0.59061 0.73768 0.0
C1096 C 0.5313 0.60196 0.7894 0.0
C1097 C 0.52592 0.61852 0.79682 0.0
C1098 C 0.53339 0.59954 0.76939 0.0
C1099 C 0.52988 0.61397 0.75657 0.0
C1100 C 0.52534 0.63108 0.764 0.0
C1101 C 0.52352 0.63318 0.78403 0.0
C1102 C 0.53837 0.58116 0.76196 0.0
C1103 C 0.52151 0.64681 0.75078 0.0
H1104 H 0.56637 0.62453 0.6952 0.0
H1105 H 0.4869 0.59122 0.69896 0.0
H1106 H 0.57583 0.64456 0.74042 0.0
H1107 H 0.58035 0.6211 0.74488 0.0
H1108 H 0.59198 0.63487 0.72276 0.0
H1109 H 0.46589 0.58167 0.72846 0.0
H1110 H 0.48466 0.58049 0.74912 0.0
H1111 H 0.47727 0.60281 0.74499 0.0
H1112 H 0.53297 0.59048 0.79919 0.0
H1113 H 0.51984 0.64621 0.78971 0.0
H1114 H 0.55411 0.58584 0.75143 0.0
H1115 H 0.5215 0.57094 0.75423 0.0
H1116 H 0.543 0.57242 0.7738 0.0
H1117 H 0.53762 0.65286 0.7407 0.0
H1118 H 0.5194 0.65974 0.7589 0.0
H1119 H 0.50439 0.63966 0.74187 0.0
C1120 C 0.91746 0.35662 0.20242 0.0
C1121 C 0.92259 0.37311 0.18972 0.0
C1122 C 0.92043 0.35972 0.22241 0.0
C1123 C 0.92861 0.37979 0.22983 0.0
C1124 C 0.93522 0.39655 0.21701 0.0
C1125 C 0.93214 0.393 0.19705 0.0
C1126 C 0.91339 0.34145 0.23564 0.0
C1127 C 0.94399 0.41815 0.22441 0.0
C1128 C 0.90174 0.3831 0.27908 0.0
C1129 C 0.92172 0.38395 0.29129 0.0
C1130 C 0.90418 0.38264 0.25898 0.0
C1131 C 0.92716 0.38295 0.25092 0.0
C1132 C 0.94781 0.38475 0.26314 0.0
C1133 C 0.94485 0.38529 0.28327 0.0
C1134 C 0.88181 0.38098 0.24642 0.0
C1135 C 0.97258 0.38517 0.255 0.0
H1136 H 0.91044 0.34125 0.19672 0.0
H1137 H 0.93596 0.40578 0.18725 0.0
H1138 H 0.92849 0.34326 0.2464 0.0
H1139 H 0.89608 0.34018 0.24376 0.0
H1140 H 0.90989 0.32706 0.22755 0.0
H1141 H 0.95177 0.42941 0.21265 0.0
H1142 H 0.92791 0.42112 0.23108 0.0
H1143 H 0.95855 0.42056 0.23575 0.0
H1144 H 0.88398 0.38242 0.28532 0.0
H1145 H 0.96028 0.38591 0.29275 0.0
H1146 H 0.87519 0.36609 0.23885 0.0
H1147 H 0.88723 0.39302 0.23518 0.0
H1148 H 0.86591 0.3823 0.25491 0.0
H1149 H 0.97019 0.3701 0.24868 0.0
H1150 H 0.98751 0.38882 0.26622 0.0
H1151 H 0.97891 0.39654 0.24319 0.0
C1152 C 0.3975 0.87162 0.78475 0.0
C1153 C 0.40272 0.88778 0.79787 0.0
C1154 C 0.40001 0.87518 0.76481 0.0
C1155 C 0.40827 0.89543 0.75786 0.0
C1156 C 0.41358 0.91184 0.77098 0.0
C1157 C 0.41054 0.90781 0.79085 0.0
C1158 C 0.39399 0.85727 0.75118 0.0
C1159 C 0.42263 0.93361 0.76402 0.0
C1160 C 0.43517 0.90009 0.70745 0.0
C1161 C 0.41427 0.89915 0.6963 0.0
C1162 C 0.43406 0.90032 0.72768 0.0
C1163 C 0.41136 0.89921 0.7368 0.0
C1164 C 0.3907 0.89946 0.72557 0.0
C1165 C 0.39247 0.89955 0.70537 0.0
C1166 C 0.45664 0.9005 0.73924 0.0
C1167 C 0.36612 0.89809 0.7348 0.0
H1168 H 0.39186 0.85614 0.79007 0.0
H1169 H 0.41422 0.92037 0.8009 0.0
H1170 H 0.37951 0.85761 0.74059 0.0
H1171 H 0.41104 0.85822 0.74288 0.0
H1172 H 0.38702 0.84247 0.75892 0.0
H1173 H 0.42618 0.94465 0.77615 0.0
H1174 H 0.44027 0.93701 0.75562 0.0
H1175 H 0.40851 0.93594 0.75418 0.0
H1176 H 0.45207 0.89993 0.70034 0.0
H1177 H 0.37625 0.89864 0.69668 0.0
H1178 H 0.4527 0.88535 0.74594 0.0
H1179 H 0.46057 0.9118 0.75113 0.0
H1180 H 0.47374 0.90409 0.73012 0.0
H1181 H 0.35698 0.88273 0.74117 0.0
H1182 H 0.35295 0.90076 0.72421 0.0
H1183 H 0.36938 0.90929 0.74672 0.0
C1184 C 0.46003 0.39018 0.28871 0.0
C1185 C 0.47734 0.38227 0.29649 0.0
C1186 C 0.45677 0.39079 0.26862 0.0
C1187 C 0.4709 0.38299 0.25617 0.0
C1188 C 0.48834 0.37493 0.26401 0.0
C1189 C 0.49143 0.37477 0.28408 0.0
C1190 C 0.43828 0.39974 0.2607 0.0
C1191 C 0.50355 0.36625 0.25122 0.0
C1192 C 0.44959 0.3641 0.20561 0.0
C1193 C 0.46671 0.37934 0.19428 0.0
C1194 C 0.44983 0.36559 0.22583 0.0
C1195 C 0.4674 0.38286 0.2349 0.0
C1196 C 0.48354 0.39893 0.22352 0.0
C1197 C 0.48312 0.39693 0.20333 0.0
C1198 C 0.43234 0.3481 0.23749 0.0
C1199 C 0.50235 0.41769 0.23269 0.0
H1200 H 0.44925 0.39608 0.29835 0.0
H1201 H 0.50455 0.36837 0.29013 0.0
H1202 H 0.448 0.41242 0.25067 0.0
H1203 H 0.42347 0.38808 0.25226 0.0
H1204 H 0.42915 0.40554 0.27232 0.0
H1205 H 0.51625 0.36052 0.25966 0.0
H1206 H 0.49078 0.35353 0.24245 0.0
H1207 H 0.51509 0.37804 0.24101 0.0
H1208 H 0.43649 0.35067 0.19868 0.0
H1209 H 0.49656 0.40872 0.19473 0.0
H1210 H 0.42237 0.35375 0.24858 0.0
H1211 H 0.44345 0.34034 0.24523 0.0
H1212 H 0.41818 0.33674 0.22828 0.0
H1213 H 0.49326 0.42371 0.24414 0.0
H1214 H 0.51102 0.42991 0.22192 0.0
H1215 H 0.51752 0.41369 0.23965 0.0
C1216 C 0.09434 0.63179 0.70301 0.0
C1217 C 0.08002 0.61617 0.69062 0.0
C1218 C 0.0912 0.62998 0.7231 0.0
C1219 C 0.07311 0.61221 0.73097 0.0
C1220 C 0.05789 0.59672 0.71854 0.0
C1221 C 0.0616 0.59885 0.69849 0.0
C1222 C 0.10783 0.64681 0.73592 0.0
C1223 C 0.03833 0.5776 0.72645 0.0
C1224 C 0.08679 0.59933 0.78185 0.0
C1225 C 0.07195 0.60741 0.79288 0.0
C1226 C 0.08675 0.60024 0.76162 0.0
C1227 C 0.07137 0.60938 0.75224 0.0
C1228 C 0.05564 0.6169 0.76326 0.0
C1229 C 0.05621 0.61593 0.78351 0.0
C1230 C 0.10392 0.59218 0.75034 0.0
C1231 C 0.03877 0.62649 0.75369 0.0
H1232 H 0.10828 0.64537 0.69699 0.0
H1233 H 0.05064 0.58662 0.68901 0.0
H1234 H 0.09619 0.65218 0.74583 0.0
H1235 H 0.1198 0.64094 0.74502 0.0
H1236 H 0.12024 0.66001 0.72748 0.0
H1237 H 0.0265 0.5679 0.71485 0.0
H1238 H 0.04771 0.56861 0.73441 0.0
H1239 H 0.02594 0.5815 0.73688 0.0
H1240 H 0.09921 0.59297 0.78907 0.0
H1241 H 0.04453 0.62199 0.79205 0.0
H1242 H 0.11834 0.60489 0.74267 0.0
H1243 H 0.09308 0.58118 0.73921 0.0
H1244 H 0.11364 0.58454 0.75978 0.0
H1245 H 0.0504 0.64074 0.7463 0.0
H1246 H 0.02627 0.63015 0.76423 0.0
H1247 H 0.02698 0.61616 0.74248 0.0
C1248 C 0.53853 0.0198 0.01625 0.0
C1249 C 0.5461 0.04095 0.01448 0.0
C1250 C 0.52246 0.00696 0.00257 0.0
C1251 C 0.5138 0.01558 0.98685 0.0
C1252 C 0.52214 0.03692 0.98459 0.0
C1253 C 0.53825 0.04939 -0.00152 0.0
C1254 C 0.51406 0.98421 0.0053 0.0
C1255 C 0.51322 0.04656 0.968 0.0
C1256 C 0.48487 0.97892 0.94619 0.0
C1257 C 0.4594 0.97192 0.95139 0.0
C1258 C 0.50279 -0.00599 0.95705 0.0
C1259 C 0.49492 0.00214 0.97346 0.0
C1260 C 0.46906 -0.00395 0.97806 0.0
C1261 C 0.45155 0.98095 0.96693 0.0
C1262 C 0.53023 0.00024 0.95171 0.0
C1263 C 0.46003 0.00457 -0.0046 0.0
H1264 H 0.5448 0.01332 0.02856 0.0
H1265 H 0.54383 0.06578 -0.00274 0.0
H1266 H 0.49346 0.97784 0.00785 0.0
H1267 H 0.51787 0.97693 0.99202 0.0
H1268 H 0.52362 0.98 0.0177 0.0
H1269 H 0.52317 0.06331 0.96743 0.0
H1270 H 0.51602 0.03989 0.95404 0.0
H1271 H 0.49277 0.0434 0.96952 0.0
H1272 H 0.49103 0.97177 0.93433 0.0
H1273 H 0.4318 0.97565 0.9708 0.0
H1274 H 0.54006 -0.00573 0.96266 0.0
H1275 H 0.53934 0.01706 0.95169 0.0
H1276 H 0.53289 -0.00564 0.93728 0.0
H1277 H 0.46658 -0.00056 0.00886 0.0
H1278 H 0.4392 -0.00037 -0.00409 0.0
H1279 H 0.46805 0.02144 0.99525 0.0
C1280 C 0.50375 0.53988 0.50322 0.0
C1281 C 0.52227 0.54357 0.51753 0.0
C1282 C 0.49771 0.5227 0.49131 0.0
C1283 C 0.51084 0.50917 0.49363 0.0
C1284 C 0.53045 0.51341 0.50742 0.0
C1285 C 0.53575 0.53049 0.51941 0.0
C1286 C 0.47641 0.51849 0.47699 0.0
C1287 C 0.54521 0.49952 0.50998 0.0
C1288 C 0.47926 0.45362 0.4804 0.0
C1289 C 0.48992 0.45299 0.46231 0.0
C1290 C 0.48538 0.47201 0.49052 0.0
C1291 C 0.50306 0.48994 0.48249 0.0
C1292 C 0.51369 0.48937 0.46411 0.0
C1293 C 0.50676 0.47086 0.45413 0.0
C1294 C 0.47326 0.47218 0.50992 0.0
C1295 C 0.53295 0.50811 0.45531 0.0
H1296 H 0.49308 0.54988 0.50202 0.0
H1297 H 0.55006 0.53344 0.53052 0.0
H1298 H 0.4826 0.5158 0.46236 0.0
H1299 H 0.46072 0.50446 0.48128 0.0
H1300 H 0.46919 0.53119 0.47613 0.0
H1301 H 0.56132 0.50597 0.52005 0.0
H1302 H 0.53273 0.48463 0.51576 0.0
H1303 H 0.55244 0.49659 0.49582 0.0
H1304 H 0.46627 0.43969 0.48663 0.0
H1305 H 0.51523 0.47018 0.44022 0.0
H1306 H 0.46431 0.48384 0.51002 0.0
H1307 H 0.4878 0.47632 0.52143 0.0
H1308 H 0.45879 0.45719 0.51354 0.0
H1309 H 0.52528 0.52051 0.45428 0.0
H1310 H 0.53889 0.50515 0.44065 0.0
H1311 H 0.5498 0.51364 0.46476 0.0
C1312 C 0.99515 0.52823 0.9687 0.0
C1313 C 0.01796 0.54434 0.97153 0.0
C1314 C 0.9867 0.51232 0.98211 0.0
C1315 C 0.00155 0.51259 -0.00139 0.0
C1316 C 0.02412 0.52921 0.00191 0.0
C1317 C 0.03208 0.54492 0.98829 0.0
C1318 C 0.96238 0.49487 0.97826 0.0
C1319 C 0.04041 0.52994 0.01935 0.0
C1320 C 0.96912 0.47641 0.03885 0.0
C1321 C 0.97585 0.45956 0.03451 0.0
C1322 C 0.97807 0.49413 0.02767 0.0
C1323 C 0.99406 0.49491 0.01182 0.0
C1324 C 0.00181 0.4783 0.00788 0.0
C1325 C 0.99255 0.46076 0.0193 0.0
C1326 C 0.96949 0.51161 0.03226 0.0
C1327 C 0.01907 0.47874 0.99117 0.0
H1328 H 0.98418 0.52788 0.95579 0.0
H1329 H 0.04997 0.5572 0.99034 0.0
H1330 H 0.9663 0.48069 0.97589 0.0
H1331 H 0.94975 0.49231 0.99098 0.0
H1332 H 0.95235 0.49759 0.96537 0.0
H1333 H 0.05631 0.54471 0.02059 0.0
H1334 H 0.02907 0.52737 0.03279 0.0
H1335 H 0.04819 0.5176 0.01834 0.0
H1336 H 0.95592 0.47542 0.05044 0.0
H1337 H -0.00208 0.44779 0.01607 0.0
H1338 H 0.95727 0.51337 0.02043 0.0
H1339 H 0.98587 0.52606 0.03324 0.0
H1340 H 0.95882 0.50926 0.04605 0.0
H1341 H 0.00958 0.4795 0.97733 0.0
H1342 H 0.02457 0.4651 0.99086 0.0
H1343 H 0.03636 0.49252 0.99201 0.0
C1344 C 0.51909 0.00948 0.4553 0.0
C1345 C 0.51898 0.02896 0.45923 0.0
C1346 C 0.50393 0.99268 0.46596 0.0
C1347 C 0.48837 -0.00441 0.48074 0.0
C1348 C 0.48726 0.01507 0.48408 0.0
C1349 C 0.50268 0.03158 0.47327 0.0
C1350 C 0.50561 0.97207 0.46213 0.0
C1351 C 0.47074 0.01865 0.49969 0.0
C1352 C 0.43899 0.94954 0.50322 0.0
C1353 C 0.45162 0.94691 0.51981 0.0
C1354 C 0.45069 0.96541 0.49026 0.0
C1355 C 0.47547 0.97879 0.49413 0.0
C1356 C 0.48818 0.97629 0.51097 0.0
C1357 C 0.47604 0.96039 0.52364 0.0
C1358 C 0.43669 0.96779 0.47243 0.0
C1359 C 0.51462 0.99039 0.51558 0.0
H1360 H 0.5318 0.00752 0.44445 0.0
H1361 H 0.50232 0.04665 0.47601 0.0
H1362 H 0.51479 0.96761 0.47459 0.0
H1363 H 0.48655 0.96036 0.4606 0.0
H1364 H 0.5166 0.97201 0.44886 0.0
H1365 H 0.47012 0.03424 0.49906 0.0
H1366 H 0.4513 0.00747 0.49843 0.0
H1367 H 0.47798 0.01648 0.5141 0.0
H1368 H 0.42015 0.939 0.50023 0.0
H1369 H 0.48562 0.95856 0.53667 0.0
H1370 H 0.44709 0.96636 0.45927 0.0
H1371 H 0.43547 0.98317 0.47216 0.0
H1372 H 0.41736 0.95626 0.47172 0.0
H1373 H 0.52751 0.9901 0.50364 0.0
H1374 H 0.52184 0.98619 0.52924 0.0
H1375 H 0.51518 0.00626 0.51691 0.0
C1376 C 0.51778 0.53006 0.97424 0.0
C1377 C 0.50063 0.53048 0.95984 0.0
C1378 C 0.51359 0.51267 0.98559 0.0
C1379 C 0.49196 0.49517 0.9822 0.0
C1380 C 0.47481 0.49533 0.96749 0.0
C1381 C 0.47921 0.51305 0.95661 0.0
C1382 C 0.5322 0.51306 0.0013 0.0
C1383 C 0.45172 0.47683 0.96334 0.0
C1384 C 0.49618 0.44607 0.00102 0.0
C1385 C 0.48303 0.44374 0.01849 0.0
C1386 C 0.49833 0.46232 0.98862 0.0
C1387 C 0.48743 0.47671 0.99409 0.0
C1388 C 0.47339 0.47402 0.01144 0.0
C1389 C 0.47118 0.45739 0.02341 0.0
C1390 C 0.51297 0.46447 0.97003 0.0
C1391 C 0.46177 0.48921 0.01781 0.0
H1392 H 0.53454 0.54334 0.97666 0.0
H1393 H 0.46557 0.51334 0.9458 0.0
H1394 H 0.52248 0.50956 0.01549 0.0
H1395 H 0.54037 0.50118 -0.0015 0.0
H1396 H 0.54777 0.52803 0.00235 0.0
H1397 H 0.44072 0.47923 0.95091 0.0
H1398 H 0.45724 0.46355 0.96015 0.0
H1399 H 0.43938 0.47292 0.97626 0.0
H1400 H 0.50519 0.43534 -0.00274 0.0
H1401 H 0.4612 0.45558 0.03704 0.0
H1402 H 0.53032 0.47821 0.97076 0.0
H1403 H 0.50171 0.46652 0.95764 0.0
H1404 H 0.5184 0.45106 0.96715 0.0
H1405 H 0.47683 0.5041 0.02071 0.0
H1406 H 0.45023 0.48426 0.0311 0.0
H1407 H 0.44975 0.49163 0.00616 0.0
C1408 C 0.96109 0.43874 0.48899 0.0
C1409 C 0.97602 0.4396 0.47264 0.0
C1410 C 0.96856 0.45409 0.50302 0.0
C1411 C 0.99145 0.47061 0.50054 0.0
C1412 C 0.00722 0.471 0.48459 0.0
C1413 C -0.00075 0.45546 0.47077 0.0
C1414 C 0.9513 0.45322 0.51985 0.0
C1415 C 0.03191 0.48833 0.48163 0.0
C1416 C -1e-05 0.52279 0.52003 0.0
C1417 C 0.01621 0.52422 0.53564 0.0
C1418 C 0.99081 0.50498 0.50899 0.0
C1419 C -0.00188 0.48831 0.51371 0.0
C1420 C 0.01332 0.48926 0.5301 0.0
C1421 C 0.02224 0.50726 0.54089 0.0
C1422 C 0.97436 0.50439 0.49168 0.0
C1423 C 0.02138 0.47172 0.53558 0.0
H1424 H 0.94291 0.42664 0.49031 0.0
H1425 H 0.01082 0.45602 0.45817 0.0
H1426 H 0.96193 0.4561 0.53365 0.0
H1427 H 0.94316 0.4653 0.5182 0.0
H1428 H 0.93563 0.43829 0.52082 0.0
H1429 H 0.04279 0.48553 0.46932 0.0
H1430 H 0.02833 0.50257 0.47876 0.0
H1431 H 0.04358 0.49081 0.4949 0.0
H1432 H 0.99513 0.53584 0.51611 0.0
H1433 H 0.03505 0.50841 0.55282 0.0
H1434 H 0.95709 0.49057 0.49215 0.0
H1435 H 0.98458 0.50363 0.47821 0.0
H1436 H 0.9688 0.51798 0.49092 0.0
H1437 H 0.00495 0.45727 0.53585 0.0
H1438 H 0.03077 0.47401 0.54993 0.0
H1439 H 0.03467 0.47003 0.52456 0.0
C1440 C 0.52834 0.20709 0.06819 0.0
C1441 C 0.51782 0.18582 0.06919 0.0
C1442 C 0.51314 0.2188 0.0662 0.0
C1443 C 0.48667 0.20904 0.06528 0.0
C1444 C 0.47589 0.18755 0.06576 0.0
C1445 C 0.49162 0.17617 0.06774 0.0
C1446 C 0.52542 0.24172 0.06572 0.0
C1447 C 0.44778 0.17664 0.06475 0.0
C1448 C 0.45688 0.24574 0.08266 0.0
C1449 C 0.45445 0.25509 0.06523 0.0
C1450 C 0.46485 0.22908 0.08279 0.0
C1451 C 0.47068 0.22171 0.06508 0.0
C1452 C 0.46546 0.22952 0.04739 0.0
C1453 C 0.45729 0.24612 0.04768 0.0
C1454 C 0.46976 0.22095 0.10199 0.0
C1455 C 0.47101 0.22183 0.02819 0.0
H1456 H 0.54851 0.21467 0.06959 0.0
H1457 H 0.48339 0.15971 0.06824 0.0
H1458 H 0.51929 0.24788 0.05268 0.0
H1459 H 0.51954 0.24838 0.07856 0.0
H1460 H 0.54628 0.24686 0.06563 0.0
H1461 H 0.4426 0.15996 0.06289 0.0
H1462 H 0.43902 0.17941 0.07827 0.0
H1463 H 0.43967 0.1826 0.05262 0.0
H1464 H 0.45486 0.25253 0.09634 0.0
H1465 H 0.45487 0.25297 0.03414 0.0
H1466 H 0.49028 0.22687 0.10491 0.0
H1467 H 0.46338 0.20411 0.10173 0.0
H1468 H 0.4602 0.22565 0.11409 0.0
H1469 H 0.49155 0.22835 0.02542 0.0
H1470 H 0.46124 0.22632 0.01609 0.0
H1471 H 0.46537 0.20503 0.02828 0.0
C1472 C 0.34025 0.58019 0.58437 0.0
C1473 C 0.35976 0.59823 0.57915 0.0
C1474 C 0.31503 0.57878 0.58368 0.0
C1475 C 0.30922 0.59583 0.57768 0.0
C1476 C 0.32878 0.61389 0.57193 0.0
C1477 C 0.35378 0.61485 0.57269 0.0
C1478 C 0.29465 0.55925 0.58989 0.0
C1479 C 0.32335 0.63238 0.56537 0.0
C1480 C 0.2431 0.59043 0.5622 0.0
C1481 C 0.2342 0.59723 0.57876 0.0
C1482 C 0.26726 0.58937 0.56177 0.0
C1483 C 0.28288 0.59526 0.5783 0.0
C1484 C 0.2738 0.60169 0.5952 0.0
C1485 C 0.24962 0.60264 0.59521 0.0
C1486 C 0.27628 0.58237 0.54352 0.0
C1487 C 0.2899 0.60813 0.61311 0.0
H1488 H 0.34474 0.56734 0.58952 0.0
H1489 H 0.36871 0.62869 0.56826 0.0
H1490 H 0.28533 0.562 0.60313 0.0
H1491 H 0.28003 0.55392 0.5785 0.0
H1492 H 0.30212 0.54697 0.59293 0.0
H1493 H 0.34061 0.64498 0.56069 0.0
H1494 H 0.3098 0.62832 0.55317 0.0
H1495 H 0.31455 0.63796 0.57734 0.0
H1496 H 0.23116 0.58596 0.54953 0.0
H1497 H 0.24307 0.6082 0.60797 0.0
H1498 H 0.2828 0.56963 0.54678 0.0
H1499 H 0.29256 0.59496 0.53751 0.0
H1500 H 0.26138 0.57731 0.53227 0.0
H1501 H 0.2968 0.59593 0.61766 0.0
H1502 H 0.27956 0.61167 0.62539 0.0
H1503 H 0.30664 0.62182 0.6099 0.0
C1504 C 0.84965 0.24578 0.06218 0.0
C1505 C 0.84717 0.25853 0.04735 0.0
C1506 C 0.83119 0.22648 0.06493 0.0
C1507 C 0.80982 0.22017 0.05275 0.0
C1508 C 0.80943 0.23157 0.03598 0.0
C1509 C 0.82831 0.25066 0.0334 0.0
C1510 C 0.83285 0.21422 0.08242 0.0
C1511 C 0.78728 0.22512 0.02234 0.0
C1512 C 0.75311 0.17183 0.06059 0.0
C1513 C 0.73773 0.17929 0.07178 0.0
C1514 C 0.77725 0.18466 0.05489 0.0
C1515 C 0.78578 0.20546 0.06018 0.0
C1516 C 0.77051 0.21287 0.07191 0.0
C1517 C 0.74675 0.19967 0.07762 0.0
C1518 C 0.79306 0.17606 0.04272 0.0
C1519 C 0.77881 0.23499 0.07788 0.0
H1520 H 0.86437 0.25165 0.07291 0.0
H1521 H 0.8268 0.26031 0.0216 0.0
H1522 H 0.82166 0.21724 0.09438 0.0
H1523 H 0.82505 0.19768 0.07923 0.0
H1524 H 0.85258 0.21837 0.08747 0.0
H1525 H 0.79179 0.23355 0.00842 0.0
H1526 H 0.78101 0.20858 0.0193 0.0
H1527 H 0.77134 0.22817 0.02917 0.0
H1528 H 0.74617 0.156 0.05616 0.0
H1529 H 0.73476 0.20553 0.08603 0.0
H1530 H 0.81335 0.18337 0.04615 0.0
H1531 H 0.79045 0.17889 0.02722 0.0
H1532 H 0.78742 0.15936 0.04476 0.0
H1533 H 0.79681 0.23943 0.08595 0.0
H1534 H 0.76472 0.23818 0.08716 0.0
H1535 H 0.78205 0.2448 0.06485 0.0
C1536 C 0.50234 0.80755 0.57979 0.0
C1537 C 0.47621 0.79782 0.58154 0.0
C1538 C 0.51804 0.79623 0.57727 0.0
C1539 C 0.50727 0.77476 0.57665 0.0
C1540 C 0.4809 0.7649 0.5785 0.0
C1541 C 0.46571 0.77657 0.58087 0.0
C1542 C 0.54603 0.8072 0.57515 0.0
C1543 C 0.46867 0.74198 0.57807 0.0
C1544 C 0.53349 0.73804 0.55397 0.0
C1545 C 0.53828 0.72851 0.57051 0.0
C1546 C 0.526 0.7549 0.55559 0.0
C1547 C 0.52316 0.76219 0.5742 0.0
C1548 C 0.53101 0.7542 0.59074 0.0
C1549 C 0.53857 0.73742 0.58869 0.0
C1550 C 0.51833 0.76329 0.53756 0.0
C1551 C 0.52847 0.76164 0.61084 0.0
H1552 H 0.51045 0.82402 0.58011 0.0
H1553 H 0.44556 0.76904 0.58247 0.0
H1554 H 0.55621 0.80203 0.58647 0.0
H1555 H 0.55238 0.80348 0.56095 0.0
H1556 H 0.55146 0.82398 0.57625 0.0
H1557 H 0.44794 0.73675 0.57984 0.0
H1558 H 0.47284 0.736 0.56415 0.0
H1559 H 0.47645 0.73521 0.58981 0.0
H1560 H 0.5336 0.73129 0.53988 0.0
H1561 H 0.54219 0.73006 0.60153 0.0
H1562 H 0.52428 0.78009 0.5383 0.0
H1563 H 0.49754 0.75702 0.53623 0.0
H1564 H 0.52645 0.75908 0.52434 0.0
H1565 H 0.53435 0.77846 0.61118 0.0
H1566 H 0.5398 0.75685 0.62156 0.0
H1567 H 0.50845 0.75523 0.61533 0.0
C1568 C 0.6543 0.39348 0.09226 0.0
C1569 C 0.63583 0.38032 0.08016 0.0
C1570 C 0.67935 0.3945 0.09126 0.0
C1571 C 0.68603 0.38215 0.07778 0.0
C1572 C 0.66764 0.36939 0.06507 0.0
C1573 C 0.64274 0.36859 0.06645 0.0
C1574 C 0.69843 0.40823 0.10511 0.0
C1575 C 0.6741 0.35614 0.05037 0.0
C1576 C 0.75492 0.39337 0.06604 0.0
C1577 C 0.76006 0.37881 0.07738 0.0
C1578 C 0.73092 0.39478 0.06609 0.0
C1579 C 0.71179 0.38142 0.07789 0.0
C1580 C 0.71704 0.36692 0.08959 0.0
C1581 C 0.74109 0.36575 0.08914 0.0
C1582 C 0.72593 0.41034 0.05334 0.0
C1583 C 0.69721 0.35253 0.1025 0.0
H1584 H 0.649 0.40247 0.10296 0.0
H1585 H 0.62858 0.35867 0.05685 0.0
H1586 H 0.70495 0.39887 0.11519 0.0
H1587 H 0.71516 0.41822 0.09709 0.0
H1588 H 0.69063 0.41792 0.11375 0.0
H1589 H 0.65803 0.34817 0.04067 0.0
H1590 H 0.69027 0.36545 0.04141 0.0
H1591 H 0.6798 0.34457 0.05793 0.0
H1592 H 0.76953 0.4034 0.05685 0.0
H1593 H 0.74514 0.3547 0.09817 0.0
H1594 H 0.71895 0.42038 0.06217 0.0
H1595 H 0.71103 0.40254 0.04268 0.0
H1596 H 0.74299 0.41992 0.04538 0.0
H1597 H 0.68983 0.36128 0.11264 0.0
H1598 H 0.70454 0.3425 0.11107 0.0
H1599 H 0.68116 0.34284 0.09363 0.0
C1600 C 0.15017 0.7393 0.55079 0.0
C1601 C 0.15913 0.72316 0.55141 0.0
C1602 C 0.1668 0.75954 0.55266 0.0
C1603 C 0.19267 0.76346 0.5559 0.0
C1604 C 0.20177 0.74717 0.55598 0.0
C1605 C 0.18493 0.72731 0.55352 0.0
C1606 C 0.15647 0.7765 0.55192 0.0
C1607 C 0.22916 0.75055 0.55968 0.0
C1608 C 0.24993 0.81053 0.55184 0.0
C1609 C 0.25613 0.81433 0.57148 0.0
C1610 C 0.22703 0.79569 0.54627 0.0
C1611 C 0.21046 0.78412 0.56068 0.0
C1612 C 0.21513 0.78975 0.58036 0.0
C1613 C 0.23785 0.80501 0.58551 0.0
C1614 C 0.22205 0.79076 0.52508 0.0
C1615 C 0.19775 0.77797 0.59619 0.0
H1616 H 0.13018 0.73607 0.54918 0.0
H1617 H 0.19186 0.71485 0.55434 0.0
H1618 H 0.15292 0.78057 0.56686 0.0
H1619 H 0.16997 0.79033 0.54503 0.0
H1620 H 0.13839 0.77182 0.54389 0.0
H1621 H 0.23303 0.73615 0.5593 0.0
H1622 H 0.24116 0.76102 0.54868 0.0
H1623 H 0.23487 0.75771 0.57407 0.0
H1624 H 0.26372 0.8178 0.54081 0.0
H1625 H 0.24209 0.8085 0.60067 0.0
H1626 H 0.20174 0.78645 0.52174 0.0
H1627 H 0.22768 0.77766 0.52134 0.0
H1628 H 0.23295 0.80383 0.51582 0.0
H1629 H 0.17786 0.775 0.59233 0.0
H1630 H 0.20191 0.78614 0.61025 0.0
H1631 H 0.19996 0.76302 0.59802 0.0
C1632 C 0.75432 0.3876 0.42882 0.0
C1633 C 0.76897 0.39406 0.41208 0.0
C1634 C 0.72929 0.38664 0.42945 0.0
C1635 C 0.71878 0.39266 0.41306 0.0
C1636 C 0.73379 0.40015 0.39647 0.0
C1637 C 0.7586 0.40058 0.39611 0.0
C1638 C 0.71381 0.37841 0.44735 0.0
C1639 C 0.72335 0.407 0.37881 0.0
C1640 C 0.64853 0.36887 0.40451 0.0
C1641 C 0.63999 0.38414 0.41107 0.0
C1642 C 0.67404 0.37135 0.40541 0.0
C1643 C 0.69161 0.38972 0.4127 0.0
C1644 C 0.68325 0.40526 0.41928 0.0
C1645 C 0.65751 0.40222 0.41855 0.0
C1646 C 0.68221 0.35432 0.39842 0.0
C1647 C 0.70151 0.42516 0.42692 0.0
H1648 H 0.76228 0.38293 0.44139 0.0
H1649 H 0.76954 0.40534 0.38299 0.0
H1650 H 0.70504 0.38922 0.45257 0.0
H1651 H 0.69834 0.36394 0.4438 0.0
H1652 H 0.72518 0.3755 0.45926 0.0
H1653 H 0.73812 0.41429 0.36788 0.0
H1654 H 0.70874 0.39372 0.372 0.0
H1655 H 0.71423 0.41794 0.38297 0.0
H1656 H 0.63531 0.35501 0.39834 0.0
H1657 H 0.65112 0.414 0.42394 0.0
H1658 H 0.69266 0.34984 0.41003 0.0
H1659 H 0.69516 0.35959 0.38594 0.0
H1660 H 0.66606 0.34067 0.39393 0.0
H1661 H 0.7119 0.42235 0.43951 0.0
H1662 H 0.69198 0.43575 0.43142 0.0
H1663 H 0.71562 0.43271 0.41564 0.0
C1664 C 0.24169 0.81355 0.93651 0.0
C1665 C 0.26067 0.80606 0.93149 0.0
C1666 C 0.21639 0.80054 0.93748 0.0
C1667 C 0.21008 0.77962 0.9333 0.0
C1668 C 0.22922 0.77197 0.9285 0.0
C1669 C 0.25418 0.78528 0.92756 0.0
C1670 C 0.1965 0.80927 0.94246 0.0
C1671 C 0.22336 0.7497 0.92402 0.0
C1672 C 0.15466 0.73459 0.9483 0.0
C1673 C 0.14416 0.72773 0.9301 0.0
C1674 C 0.17442 0.75332 0.95023 0.0
C1675 C 0.18363 0.7653 0.93355 0.0
C1676 C 0.17037 0.75993 0.91586 0.0
C1677 C 0.15073 0.74106 0.91431 0.0
C1678 C 0.18762 0.75876 0.96948 0.0
C1679 C 0.17913 0.77266 0.89789 0.0
H1680 H 0.24659 0.8296 0.93965 0.0
H1681 H 0.2686 0.77944 0.92321 0.0
H1682 H 0.1862 0.81033 0.92913 0.0
H1683 H 0.18256 0.79928 0.95274 0.0
H1684 H 0.20475 0.82473 0.94886 0.0
H1685 H 0.24056 0.74618 0.92112 0.0
H1686 H 0.2132 0.74017 0.93632 0.0
H1687 H 0.21096 0.74523 0.91114 0.0
H1688 H 0.14911 0.72446 0.96064 0.0
H1689 H 0.1425 0.73591 0.90024 0.0
H1690 H 0.19405 0.77539 0.97213 0.0
H1691 H 0.20446 0.75432 0.96943 0.0
H1692 H 0.17525 0.7507 0.98159 0.0
H1693 H 0.18544 0.78912 0.90135 0.0
H1694 H 0.16405 0.76902 0.88679 0.0
H1695 H 0.19536 0.7696 0.8916 0.0
C1696 C 0.50785 0.18771 0.44369 0.0
C1697 C 0.52623 0.19294 0.42909 0.0
C1698 C 0.49236 0.19915 0.44663 0.0
C1699 C 0.49559 0.21632 0.43485 0.0
C1700 C 0.51409 0.22166 0.42012 0.0
C1701 C 0.52903 0.20983 0.41734 0.0
C1702 C 0.4727 0.19295 0.46236 0.0
C1703 C 0.5182 0.23994 0.40725 0.0
C1704 C 0.44935 0.24213 0.42451 0.0
C1705 C 0.46067 0.26053 0.43441 0.0
C1706 C 0.45884 0.22635 0.4262 0.0
C1707 C 0.48025 0.22926 0.43791 0.0
C1708 C 0.48981 0.24682 0.44966 0.0
C1709 C 0.4798 0.26225 0.44783 0.0
C1710 C 0.44768 0.2076 0.41383 0.0
C1711 C 0.5126 0.25053 0.46235 0.0
H1712 H 0.50573 0.1748 0.45297 0.0
H1713 H 0.54276 0.21372 0.40577 0.0
H1714 H 0.47709 0.20505 0.47352 0.0
H1715 H 0.45398 0.19113 0.4563 0.0
H1716 H 0.47155 0.17849 0.46947 0.0
H1717 H 0.53355 0.2421 0.39661 0.0
H1718 H 0.50069 0.23822 0.39923 0.0
H1719 H 0.52295 0.25391 0.41619 0.0
H1720 H 0.43436 0.24071 0.41429 0.0
H1721 H 0.48876 0.27649 0.45544 0.0
H1722 H 0.44699 0.19375 0.42182 0.0
H1723 H 0.45968 0.20892 0.40088 0.0
H1724 H 0.42841 0.20569 0.40887 0.0
H1725 H 0.51157 0.23648 0.47014 0.0
H1726 H 0.51473 0.26277 0.47311 0.0
H1727 H 0.52971 0.25518 0.45317 0.0
C1728 C 0.24768 0.61697 0.92042 0.0
C1729 C 0.22771 0.60183 0.91124 0.0
C1730 C 0.27193 0.61619 0.92049 0.0
C1731 C 0.27634 0.59994 0.91102 0.0
C1732 C 0.25611 0.58428 0.9022 0.0
C1733 C 0.23199 0.58539 0.90247 0.0
C1734 C 0.29297 0.63304 0.93025 0.0
C1735 C 0.26013 0.56677 0.89189 0.0
C1736 C 0.34286 0.61146 0.89297 0.0
C1737 C 0.35292 0.60253 0.90734 0.0
C1738 C 0.31777 0.61027 0.89377 0.0
C1739 C 0.3024 0.60003 0.9094 0.0
C1740 C 0.31225 0.59066 0.92377 0.0
C1741 C 0.33739 0.59197 0.92254 0.0
C1742 C 0.3079 0.62041 0.87812 0.0
C1743 C 0.2964 0.57961 0.94065 0.0
H1744 H 0.24433 0.62954 0.92746 0.0
H1745 H 0.21662 0.57373 0.89523 0.0
H1746 H 0.30276 0.62657 0.9408 0.0
H1747 H 0.30705 0.64156 0.91932 0.0
H1748 H 0.28612 0.64392 0.93795 0.0
H1749 H 0.24218 0.55515 0.88692 0.0
H1750 H 0.27242 0.57256 0.87913 0.0
H1751 H 0.26983 0.55934 0.90154 0.0
H1752 H 0.35479 0.61991 0.88133 0.0
H1753 H 0.34492 0.58478 0.93355 0.0
H1754 H 0.30279 0.63288 0.88448 0.0
H1755 H 0.2906 0.60933 0.87163 0.0
H1756 H 0.32188 0.62684 0.86644 0.0
H1757 H 0.29058 0.59042 0.94938 0.0
H1758 H 0.30659 0.57247 0.95021 0.0
H1759 H 0.27899 0.56762 0.93536 0.0
C1760 C 0.7509 0.17663 0.44925 0.0
C1761 C 0.74005 0.16726 0.4319 0.0
C1762 C 0.77423 0.19261 0.44921 0.0
C1763 C 0.78654 0.19941 0.43138 0.0
C1764 C 0.77751 0.1879 0.41437 0.0
C1765 C 0.75424 0.17186 0.41484 0.0
C1766 C 0.78378 0.204 0.46779 0.0
C1767 C 0.79034 0.19439 0.39512 0.0
C1768 C 0.80765 0.25618 0.42432 0.0
C1769 C 0.83382 0.26217 0.42535 0.0
C1770 C 0.79227 0.2358 0.42628 0.0
C1771 C 0.80335 0.22096 0.4295 0.0
C1772 C 0.82984 0.22687 0.43057 0.0
C1773 C 0.84486 0.24752 0.42836 0.0
C1774 C 0.76409 0.2302 0.42469 0.0
C1775 C 0.84226 0.21155 0.43438 0.0
H1776 H 0.74013 0.17272 0.46254 0.0
H1777 H 0.746 0.16452 0.4014 0.0
H1778 H 0.8046 0.20939 0.46849 0.0
H1779 H 0.77813 0.21754 0.46842 0.0
H1780 H 0.77585 0.19438 0.48065 0.0
H1781 H 0.78453 0.18171 0.38448 0.0
H1782 H 0.78514 0.20703 0.38922 0.0
H1783 H 0.81109 0.2 0.39669 0.0
H1784 H 0.79918 0.2675 0.42163 0.0
H1785 H 0.86516 0.25225 0.42919 0.0
H1786 H 0.75487 0.22296 0.43831 0.0
H1787 H 0.75656 0.21904 0.41283 0.0
H1788 H 0.75867 0.24361 0.42181 0.0
H1789 H 0.83963 0.20694 0.44981 0.0
H1790 H 0.86275 0.21789 0.43131 0.0
H1791 H 0.83355 0.19762 0.42557 0.0
C1792 C 0.51907 0.73451 0.95311 0.0
C1793 C 0.52858 0.72855 0.93637 0.0
C1794 C 0.51194 0.75162 0.953 0.0
C1795 C 0.515 0.76328 0.9359 0.0
C1796 C 0.52754 0.75885 0.91982 0.0
C1797 C 0.53398 0.74139 0.92016 0.0
C1798 C 0.49865 0.75581 0.97048 0.0
C1799 C 0.53183 0.77128 0.90149 0.0
C1800 C 0.46316 0.78309 0.92361 0.0
C1801 C 0.47398 0.80368 0.92867 0.0
C1802 C 0.47634 0.76985 0.92605 0.0
C1803 C 0.50112 0.77742 0.93356 0.0
C1804 C 0.51228 0.7982 0.93863 0.0
C1805 C 0.4985 0.81108 0.93622 0.0
C1806 C 0.46376 0.74775 0.92044 0.0
C1807 C 0.53872 0.80679 0.94652 0.0
H1808 H 0.51546 0.72493 0.96586 0.0
H1809 H 0.54127 0.73698 0.90711 0.0
H1810 H 0.50518 0.77234 0.97363 0.0
H1811 H 0.47817 0.75062 0.96749 0.0
H1812 H 0.50156 0.74772 0.98354 0.0
H1813 H 0.54609 0.76854 0.89204 0.0
H1814 H 0.51393 0.7671 0.89331 0.0
H1815 H 0.53807 0.78777 0.90482 0.0
H1816 H 0.44445 0.77734 0.91739 0.0
H1817 H 0.50689 0.82695 0.94035 0.0
H1818 H 0.46346 0.73782 0.93298 0.0
H1819 H 0.47458 0.74384 0.90874 0.0
H1820 H 0.44415 0.7442 0.91535 0.0
H1821 H 0.53973 0.79947 0.96054 0.0
H1822 H 0.54515 0.82351 0.94876 0.0
H1823 H 0.55192 0.80342 0.93649 0.0
loop_
_geom_bond_atom_site_label_1
_geom_bond_atom_site_label_2
_geom_bond_distance
_geom_bond_site_symmetry_2
_ccdc_geom_bond_type
Li0 N17 1.990 . S
Li0 O60 1.956 . S
Li0 O61 1.970 . S
Li0 O62 1.961 . S
Li1 N25 1.990 . S
Li1 O60 1.970 . S
Li1 O61 1.956 . S
Li1 O63 1.961 . S
Li2 N47 1.990 . S
Li2 O60 1.961 . S
Li2 O62 1.956 . S
Li2 O63 1.970 . S
Li3 N53 1.990 . S
Li3 O61 1.961 . S
Li3 O62 1.970 . S
Li3 O63 1.956 . S
C4 C6 1.348 . S
C4 C7 1.356 . S
C4 O60 1.325 . S
N5 C8 1.314 . S
N5 C9 1.279 . S
C6 C4 1.348 . S
C6 C8 1.353 . S
C6 H64 0.929 . S
C7 C4 1.356 . S
C7 C9 1.358 . S
C7 H65 0.930 . S
C8 N5 1.314 . S
C8 C6 1.353 . S
C8 H66 0.930 . S
C9 N5 1.279 . S
C9 C7 1.358 . S
C9 H67 0.930 . S
C10 C13 1.348 . S
C10 C14 1.356 . S
C10 O61 1.325 . S
C11 N12 1.279 . S
C11 C14 1.358 . S
C11 H68 0.930 . S
N12 C11 1.279 . S
N12 C15 1.314 . S
C13 C10 1.348 . S
C13 C15 1.353 . S
C13 H69 0.929 . S
C14 C10 1.356 . S
C14 C11 1.358 . S
C14 H70 0.930 . S
C15 N12 1.314 . S
C15 C13 1.353 . S
C15 H71 0.930 . S
C16 N17 1.314 . S
C16 C21 1.353 . S
C16 H22 0.930 . S
N17 Li0 1.990 . S
N17 C16 1.314 . S
N17 C19 1.279 . S
C18 C19 1.358 . S
C18 C20 1.356 . S
C18 H72 0.930 . S
C19 N17 1.279 . S
C19 C18 1.358 . S
C19 H23 0.930 . S
C20 C18 1.356 . S
C20 C21 1.348 . S
C21 C16 1.353 . S
C21 C20 1.348 . S
C21 H73 0.929 . S
H22 C16 0.930 . S
H23 C19 0.930 . S
C24 N25 1.314 . S
C24 C26 1.353 . S
C24 H30 0.930 . S
N25 Li1 1.990 . S
N25 C24 1.314 . S
N25 C28 1.279 . S
C26 C24 1.353 . S
C26 C29 1.348 . S
C26 H74 0.929 . S
C27 C28 1.358 . S
C27 C29 1.356 . S
C27 H75 0.930 . S
C28 N25 1.279 . S
C28 C27 1.358 . S
C28 H31 0.930 . S
C29 C26 1.348 . S
C29 C27 1.356 . S
H30 C24 0.930 . S
H31 C28 0.930 . S
C32 C34 1.348 . S
C32 C35 1.356 . S
C32 O62 1.325 . S
N33 C36 1.314 . S
N33 C37 1.279 . S
C34 C32 1.348 . S
C34 C36 1.353 . S
C34 H76 0.929 . S
C35 C32 1.356 . S
C35 C37 1.358 . S
C35 H77 0.930 . S
C36 N33 1.314 . S
C36 C34 1.353 . S
C36 H78 0.930 . S
C37 N33 1.279 . S
C37 C35 1.358 . S
C37 H79 0.930 . S
C38 C39 1.348 . S
C38 C40 1.356 . S
C38 O63 1.325 . S
C39 C38 1.348 . S
C39 C41 1.353 . S
C39 H80 0.929 . S
C40 C38 1.356 . S
C40 C42 1.358 . S
C40 H81 0.930 . S
C41 C39 1.353 . S
C41 N43 1.314 . S
C41 H82 0.930 . S
C42 C40 1.358 . S
C42 N43 1.279 . S
C42 H83 0.930 . S
N43 C41 1.314 . S
N43 C42 1.279 . S
C44 C46 1.353 . S
C44 N47 1.314 . S
C44 H50 0.930 . S
C45 N47 1.279 . S
C45 C48 1.358 . S
C45 H51 0.930 . S
C46 C44 1.353 . S
C46 C49 1.348 . S
C46 H84 0.929 . S
N47 Li2 1.990 . S
N47 C44 1.314 . S
N47 C45 1.279 . S
C48 C45 1.358 . S
C48 C49 1.356 . S
C48 H85 0.930 . S
C49 C46 1.348 . S
C49 C48 1.356 . S
H50 C44 0.930 . S
H51 C45 0.930 . S
C52 N53 1.314 . S
C52 C54 1.353 . S
C52 H58 0.930 . S
N53 Li3 1.990 . S
N53 C52 1.314 . S
N53 C56 1.279 . S
C54 C52 1.353 . S
C54 C57 1.348 . S
C54 H86 0.929 . S
C55 C56 1.358 . S
C55 C57 1.356 . S
C55 H87 0.930 . S
C56 N53 1.279 . S
C56 C55 1.358 . S
C56 H59 0.930 . S
C57 C54 1.348 . S
C57 C55 1.356 . S
H58 C52 0.930 . S
H59 C56 0.930 . S
O60 Li0 1.956 . S
O60 Li1 1.970 . S
O60 Li2 1.961 . S
O60 C4 1.325 . S
O61 Li0 1.970 . S
O61 Li1 1.956 . S
O61 Li3 1.961 . S
O61 C10 1.325 . S
O62 Li0 1.961 . S
O62 Li2 1.956 . S
O62 Li3 1.970 . S
O62 C32 1.325 . S
O63 Li1 1.961 . S
O63 Li2 1.970 . S
O63 Li3 1.956 . S
O63 C38 1.325 . S
H64 C6 0.929 . S
H65 C7 0.930 . S
H66 C8 0.930 . S
H67 C9 0.930 . S
H68 C11 0.930 . S
H69 C13 0.929 . S
H70 C14 0.930 . S
H71 C15 0.930 . S
H72 C18 0.930 . S
H73 C21 0.929 . S
H74 C26 0.929 . S
H75 C27 0.930 . S
H76 C34 0.929 . S
H77 C35 0.930 . S
H78 C36 0.930 . S
H79 C37 0.930 . S
H80 C39 0.929 . S
H81 C40 0.930 . S
H82 C41 0.930 . S
H83 C42 0.930 . S
H84 C46 0.929 . S
H85 C48 0.930 . S
H86 C54 0.929 . S
H87 C55 0.930 . S
Li88 N105 1.990 . S
Li88 O148 1.956 . S
Li88 O149 1.970 . S
Li88 O150 1.961 . S
Li89 N113 1.990 . S
Li89 O148 1.970 . S
Li89 O149 1.956 . S
Li89 O151 1.961 . S
Li90 N135 1.990 . S
Li90 O148 1.961 . S
Li90 O150 1.956 . S
Li90 O151 1.970 . S
Li91 N141 1.990 . S
Li91 O149 1.961 . S
Li91 O150 1.970 . S
Li91 O151 1.956 . S
C92 C94 1.348 . S
C92 C95 1.356 . S
C92 O148 1.325 . S
N93 C96 1.314 . S
N93 C97 1.279 . S
C94 C92 1.348 . S
C94 C96 1.353 . S
C94 H152 0.929 . S
C95 C92 1.356 . S
C95 C97 1.358 . S
C95 H153 0.930 . S
C96 N93 1.314 . S
C96 C94 1.353 . S
C96 H154 0.930 . S
C97 N93 1.279 . S
C97 C95 1.358 . S
C97 H155 0.930 . S
C98 C101 1.348 . S
C98 C102 1.356 . S
C98 O149 1.325 . S
C99 N100 1.279 . S
C99 C102 1.358 . S
C99 H156 0.930 . S
N100 C99 1.279 . S
N100 C103 1.314 . S
C101 C98 1.348 . S
C101 C103 1.353 . S
C101 H157 0.929 . S
C102 C98 1.356 . S
C102 C99 1.358 . S
C102 H158 0.930 . S
C103 N100 1.314 . S
C103 C101 1.353 . S
C103 H159 0.930 . S
C104 N105 1.314 . S
C104 C109 1.353 . S
C104 H110 0.930 . S
N105 Li88 1.990 . S
N105 C104 1.314 . S
N105 C107 1.279 . S
C106 C107 1.358 . S
C106 C108 1.356 . S
C106 H160 0.930 . S
C107 N105 1.279 . S
C107 C106 1.358 . S
C107 H111 0.930 . S
C108 C106 1.356 . S
C108 C109 1.348 . S
C109 C104 1.353 . S
C109 C108 1.348 . S
C109 H161 0.929 . S
H110 C104 0.930 . S
H111 C107 0.930 . S
C112 N113 1.314 . S
C112 C114 1.353 . S
C112 H118 0.930 . S
N113 Li89 1.990 . S
N113 C112 1.314 . S
N113 C116 1.279 . S
C114 C112 1.353 . S
C114 C117 1.348 . S
C114 H162 0.929 . S
C115 C116 1.358 . S
C115 C117 1.356 . S
C115 H163 0.930 . S
C116 N113 1.279 . S
C116 C115 1.358 . S
C116 H119 0.930 . S
C117 C114 1.348 . S
C117 C115 1.356 . S
H118 C112 0.930 . S
H119 C116 0.930 . S
C120 C122 1.348 . S
C120 C123 1.356 . S
C120 O150 1.325 . S
N121 C124 1.314 . S
N121 C125 1.279 . S
C122 C120 1.348 . S
C122 C124 1.353 . S
C122 H164 0.929 . S
C123 C120 1.356 . S
C123 C125 1.358 . S
C123 H165 0.930 . S
C124 N121 1.314 . S
C124 C122 1.353 . S
C124 H166 0.930 . S
C125 N121 1.279 . S
C125 C123 1.358 . S
C125 H167 0.930 . S
C126 C127 1.348 . S
C126 C128 1.356 . S
C126 O151 1.325 . S
C127 C126 1.348 . S
C127 C129 1.353 . S
C127 H168 0.929 . S
C128 C126 1.356 . S
C128 C130 1.358 . S
C128 H169 0.930 . S
C129 C127 1.353 . S
C129 N131 1.314 . S
C129 H170 0.930 . S
C130 C128 1.358 . S
C130 N131 1.279 . S
C130 H171 0.930 . S
N131 C129 1.314 . S
N131 C130 1.279 . S
C132 C134 1.353 . S
C132 N135 1.314 . S
C132 H138 0.930 . S
C133 N135 1.279 . S
C133 C136 1.358 . S
C133 H139 0.930 . S
C134 C132 1.353 . S
C134 C137 1.348 . S
C134 H172 0.929 . S
N135 Li90 1.990 . S
N135 C132 1.314 . S
N135 C133 1.279 . S
C136 C133 1.358 . S
C136 C137 1.356 . S
C136 H173 0.930 . S
C137 C134 1.348 . S
C137 C136 1.356 . S
H138 C132 0.930 . S
H139 C133 0.930 . S
C140 N141 1.314 . S
C140 C142 1.353 . S
C140 H146 0.930 . S
N141 Li91 1.990 . S
N141 C140 1.314 . S
N141 C144 1.279 . S
C142 C140 1.353 . S
C142 C145 1.348 . S
C142 H174 0.929 . S
C143 C144 1.358 . S
C143 C145 1.356 . S
C143 H175 0.930 . S
C144 N141 1.279 . S
C144 C143 1.358 . S
C144 H147 0.930 . S
C145 C142 1.348 . S
C145 C143 1.356 . S
H146 C140 0.930 . S
H147 C144 0.930 . S
O148 Li88 1.956 . S
O148 Li89 1.970 . S
O148 Li90 1.961 . S
O148 C92 1.325 . S
O149 Li88 1.970 . S
O149 Li89 1.956 . S
O149 Li91 1.961 . S
O149 C98 1.325 . S
O150 Li88 1.961 . S
O150 Li90 1.956 . S
O150 Li91 1.970 . S
O150 C120 1.325 . S
O151 Li89 1.961 . S
O151 Li90 1.970 . S
O151 Li91 1.956 . S
O151 C126 1.325 . S
H152 C94 0.929 . S
H153 C95 0.930 . S
H154 C96 0.930 . S
H155 C97 0.930 . S
H156 C99 0.930 . S
H157 C101 0.929 . S
H158 C102 0.930 . S
H159 C103 0.930 . S
H160 C106 0.930 . S
H161 C109 0.929 . S
H162 C114 0.929 . S
H163 C115 0.930 . S
H164 C122 0.929 . S
H165 C123 0.930 . S
H166 C124 0.930 . S
H167 C125 0.930 . S
H168 C127 0.929 . S
H169 C128 0.930 . S
H170 C129 0.930 . S
H171 C130 0.930 . S
H172 C134 0.929 . S
H173 C136 0.930 . S
H174 C142 0.929 . S
H175 C143 0.930 . S
Li176 N193 1.990 . S
Li176 O236 1.956 . S
Li176 O237 1.970 . S
Li176 O238 1.961 . S
Li177 N201 1.990 . S
Li177 O236 1.970 . S
Li177 O237 1.956 . S
Li177 O239 1.961 . S
Li178 N223 1.990 . S
Li178 O236 1.961 . S
Li178 O238 1.956 . S
Li178 O239 1.970 . S
Li179 N229 1.990 . S
Li179 O237 1.961 . S
Li179 O238 1.970 . S
Li179 O239 1.956 . S
C180 C182 1.348 . S
C180 C183 1.356 . S
C180 O236 1.325 . S
N181 C184 1.314 . S
N181 C185 1.279 . S
C182 C180 1.348 . S
C182 C184 1.353 . S
C182 H240 0.929 . S
C183 C180 1.356 . S
C183 C185 1.358 . S
C183 H241 0.930 . S
C184 N181 1.314 . S
C184 C182 1.353 . S
C184 H242 0.930 . S
C185 N181 1.279 . S
C185 C183 1.358 . S
C185 H243 0.930 . S
C186 C189 1.348 . S
C186 C190 1.356 . S
C186 O237 1.325 . S
C187 N188 1.279 . S
C187 C190 1.358 . S
C187 H244 0.930 . S
N188 C187 1.279 . S
N188 C191 1.314 . S
C189 C186 1.348 . S
C189 C191 1.353 . S
C189 H245 0.929 . S
C190 C186 1.356 . S
C190 C187 1.358 . S
C190 H246 0.930 . S
C191 N188 1.314 . S
C191 C189 1.353 . S
C191 H247 0.930 . S
C192 N193 1.314 . S
C192 C197 1.353 . S
C192 H198 0.930 . S
N193 Li176 1.990 . S
N193 C192 1.314 . S
N193 C195 1.279 . S
C194 C195 1.358 . S
C194 C196 1.356 . S
C194 H248 0.930 . S
C195 N193 1.279 . S
C195 C194 1.358 . S
C195 H199 0.930 . S
C196 C194 1.356 . S
C196 C197 1.348 . S
C197 C192 1.353 . S
C197 C196 1.348 . S
C197 H249 0.929 . S
H198 C192 0.930 . S
H199 C195 0.930 . S
C200 N201 1.314 . S
C200 C202 1.353 . S
C200 H206 0.930 . S
N201 Li177 1.990 . S
N201 C200 1.314 . S
N201 C204 1.279 . S
C202 C200 1.353 . S
C202 C205 1.348 . S
C202 H250 0.929 . S
C203 C204 1.358 . S
C203 C205 1.356 . S
C203 H251 0.930 . S
C204 N201 1.279 . S
C204 C203 1.358 . S
C204 H207 0.930 . S
C205 C202 1.348 . S
C205 C203 1.356 . S
H206 C200 0.930 . S
H207 C204 0.930 . S
C208 C210 1.348 . S
C208 C211 1.356 . S
C208 O238 1.325 . S
N209 C212 1.314 . S
N209 C213 1.279 . S
C210 C208 1.348 . S
C210 C212 1.353 . S
C210 H252 0.929 . S
C211 C208 1.356 . S
C211 C213 1.358 . S
C211 H253 0.930 . S
C212 N209 1.314 . S
C212 C210 1.353 . S
C212 H254 0.930 . S
C213 N209 1.279 . S
C213 C211 1.358 . S
C213 H255 0.930 . S
C214 C215 1.348 . S
C214 C216 1.356 . S
C214 O239 1.325 . S
C215 C214 1.348 . S
C215 C217 1.353 . S
C215 H256 0.929 . S
C216 C214 1.356 . S
C216 C218 1.358 . S
C216 H257 0.930 . S
C217 C215 1.353 . S
C217 N219 1.314 . S
C217 H258 0.930 . S
C218 C216 1.358 . S
C218 N219 1.279 . S
C218 H259 0.930 . S
N219 C217 1.314 . S
N219 C218 1.279 . S
C220 C222 1.353 . S
C220 N223 1.314 . S
C220 H226 0.930 . S
C221 N223 1.279 . S
C221 C224 1.358 . S
C221 H227 0.930 . S
C222 C220 1.353 . S
C222 C225 1.348 . S
C222 H260 0.929 . S
N223 Li178 1.990 . S
N223 C220 1.314 . S
N223 C221 1.279 . S
C224 C221 1.358 . S
C224 C225 1.356 . S
C224 H261 0.930 . S
C225 C222 1.348 . S
C225 C224 1.356 . S
H226 C220 0.930 . S
H227 C221 0.930 . S
C228 N229 1.314 . S
C228 C230 1.353 . S
C228 H234 0.930 . S
N229 Li179 1.990 . S
N229 C228 1.314 . S
N229 C232 1.279 . S
C230 C228 1.353 . S
C230 C233 1.348 . S
C230 H262 0.929 . S
C231 C232 1.358 . S
C231 C233 1.356 . S
C231 H263 0.930 . S
C232 N229 1.279 . S
C232 C231 1.358 . S
C232 H235 0.930 . S
C233 C230 1.348 . S
C233 C231 1.356 . S
H234 C228 0.930 . S
H235 C232 0.930 . S
O236 Li176 1.956 . S
O236 Li177 1.970 . S
O236 Li178 1.961 . S
O236 C180 1.325 . S
O237 Li176 1.970 . S
O237 Li177 1.956 . S
O237 Li179 1.961 . S
O237 C186 1.325 . S
O238 Li176 1.961 . S
O238 Li178 1.956 . S
O238 Li179 1.970 . S
O238 C208 1.325 . S
O239 Li177 1.961 . S
O239 Li178 1.970 . S
O239 Li179 1.956 . S
O239 C214 1.325 . S
H240 C182 0.929 . S
H241 C183 0.930 . S
H242 C184 0.930 . S
H243 C185 0.930 . S
H244 C187 0.930 . S
H245 C189 0.929 . S
H246 C190 0.930 . S
H247 C191 0.930 . S
H248 C194 0.930 . S
H249 C197 0.929 . S
H250 C202 0.929 . S
H251 C203 0.930 . S
H252 C210 0.929 . S
H253 C211 0.930 . S
H254 C212 0.930 . S
H255 C213 0.930 . S
H256 C215 0.929 . S
H257 C216 0.930 . S
H258 C217 0.930 . S
H259 C218 0.930 . S
H260 C222 0.929 . S
H261 C224 0.930 . S
H262 C230 0.929 . S
H263 C231 0.930 . S
Li264 N281 1.990 . S
Li264 O324 1.956 . S
Li264 O325 1.970 . S
Li264 O326 1.961 . S
Li265 N289 1.990 . S
Li265 O324 1.970 . S
Li265 O325 1.956 . S
Li265 O327 1.961 . S
Li266 N311 1.990 . S
Li266 O324 1.961 . S
Li266 O326 1.956 . S
Li266 O327 1.970 . S
Li267 N317 1.990 . S
Li267 O325 1.961 . S
Li267 O326 1.970 . S
Li267 O327 1.956 . S
C268 C270 1.348 . S
C268 C271 1.356 . S
C268 O324 1.325 . S
N269 C272 1.314 . S
N269 C273 1.279 . S
C270 C268 1.348 . S
C270 C272 1.353 . S
C270 H328 0.929 . S
C271 C268 1.356 . S
C271 C273 1.358 . S
C271 H329 0.930 . S
C272 N269 1.314 . S
C272 C270 1.353 . S
C272 H330 0.930 . S
C273 N269 1.279 . S
C273 C271 1.358 . S
C273 H331 0.930 . S
C274 C277 1.348 . S
C274 C278 1.356 . S
C274 O325 1.325 . S
C275 N276 1.279 . S
C275 C278 1.358 . S
C275 H332 0.930 . S
N276 C275 1.279 . S
N276 C279 1.314 . S
C277 C274 1.348 . S
C277 C279 1.353 . S
C277 H333 0.929 . S
C278 C274 1.356 . S
C278 C275 1.358 . S
C278 H334 0.930 . S
C279 N276 1.314 . S
C279 C277 1.353 . S
C279 H335 0.930 . S
C280 N281 1.314 . S
C280 C285 1.353 . S
C280 H286 0.930 . S
N281 Li264 1.990 . S
N281 C280 1.314 . S
N281 C283 1.279 . S
C282 C283 1.358 . S
C282 C284 1.356 . S
C282 H336 0.930 . S
C283 N281 1.279 . S
C283 C282 1.358 . S
C283 H287 0.930 . S
C284 C282 1.356 . S
C284 C285 1.348 . S
C285 C280 1.353 . S
C285 C284 1.348 . S
C285 H337 0.929 . S
H286 C280 0.930 . S
H287 C283 0.930 . S
C288 N289 1.314 . S
C288 C290 1.353 . S
C288 H294 0.930 . S
N289 Li265 1.990 . S
N289 C288 1.314 . S
N289 C292 1.279 . S
C290 C288 1.353 . S
C290 C293 1.348 . S
C290 H338 0.929 . S
C291 C292 1.358 . S
C291 C293 1.356 . S
C291 H339 0.930 . S
C292 N289 1.279 . S
C292 C291 1.358 . S
C292 H295 0.930 . S
C293 C290 1.348 . S
C293 C291 1.356 . S
H294 C288 0.930 . S
H295 C292 0.930 . S
C296 C298 1.348 . S
C296 C299 1.356 . S
C296 O326 1.325 . S
N297 C300 1.314 . S
N297 C301 1.279 . S
C298 C296 1.348 . S
C298 C300 1.353 . S
C298 H340 0.929 . S
C299 C296 1.356 . S
C299 C301 1.358 . S
C299 H341 0.930 . S
C300 N297 1.314 . S
C300 C298 1.353 . S
C300 H342 0.930 . S
C301 N297 1.279 . S
C301 C299 1.358 . S
C301 H343 0.930 . S
C302 C303 1.348 . S
C302 C304 1.356 . S
C302 O327 1.325 . S
C303 C302 1.348 . S
C303 C305 1.353 . S
C303 H344 0.929 . S
C304 C302 1.356 . S
C304 C306 1.358 . S
C304 H345 0.930 . S
C305 C303 1.353 . S
C305 N307 1.314 . S
C305 H346 0.930 . S
C306 C304 1.358 . S
C306 N307 1.279 . S
C306 H347 0.930 . S
N307 C305 1.314 . S
N307 C306 1.279 . S
C308 C310 1.353 . S
C308 N311 1.314 . S
C308 H314 0.930 . S
C309 N311 1.279 . S
C309 C312 1.358 . S
C309 H315 0.930 . S
C310 C308 1.353 . S
C310 C313 1.348 . S
C310 H348 0.929 . S
N311 Li266 1.990 . S
N311 C308 1.314 . S
N311 C309 1.279 . S
C312 C309 1.358 . S
C312 C313 1.356 . S
C312 H349 0.930 . S
C313 C310 1.348 . S
C313 C312 1.356 . S
H314 C308 0.930 . S
H315 C309 0.930 . S
C316 N317 1.314 . S
C316 C318 1.353 . S
C316 H322 0.930 . S
N317 Li267 1.990 . S
N317 C316 1.314 . S
N317 C320 1.279 . S
C318 C316 1.353 . S
C318 C321 1.348 . S
C318 H350 0.929 . S
C319 C320 1.358 . S
C319 C321 1.356 . S
C319 H351 0.930 . S
C320 N317 1.279 . S
C320 C319 1.358 . S
C320 H323 0.930 . S
C321 C318 1.348 . S
C321 C319 1.356 . S
H322 C316 0.930 . S
H323 C320 0.930 . S
O324 Li264 1.956 . S
O324 Li265 1.970 . S
O324 Li266 1.961 . S
O324 C268 1.325 . S
O325 Li264 1.970 . S
O325 Li265 1.956 . S
O325 Li267 1.961 . S
O325 C274 1.325 . S
O326 Li264 1.961 . S
O326 Li266 1.956 . S
O326 Li267 1.970 . S
O326 C296 1.325 . S
O327 Li265 1.961 . S
O327 Li266 1.970 . S
O327 Li267 1.956 . S
O327 C302 1.325 . S
H328 C270 0.929 . S
H329 C271 0.930 . S
H330 C272 0.930 . S
H331 C273 0.930 . S
H332 C275 0.930 . S
H333 C277 0.929 . S
H334 C278 0.930 . S
H335 C279 0.930 . S
H336 C282 0.930 . S
H337 C285 0.929 . S
H338 C290 0.929 . S
H339 C291 0.930 . S
H340 C298 0.929 . S
H341 C299 0.930 . S
H342 C300 0.930 . S
H343 C301 0.930 . S
H344 C303 0.929 . S
H345 C304 0.930 . S
H346 C305 0.930 . S
H347 C306 0.930 . S
H348 C310 0.929 . S
H349 C312 0.930 . S
H350 C318 0.929 . S
H351 C319 0.930 . S
Li352 N369 1.990 . S
Li352 O412 1.956 . S
Li352 O413 1.970 . S
Li352 O414 1.961 . S
Li353 N377 1.990 . S
Li353 O412 1.970 . S
Li353 O413 1.956 . S
Li353 O415 1.961 . S
Li354 N399 1.990 . S
Li354 O412 1.961 . S
Li354 O414 1.956 . S
Li354 O415 1.970 . S
Li355 N405 1.990 . S
Li355 O413 1.961 . S
Li355 O414 1.970 . S
Li355 O415 1.956 . S
C356 C358 1.348 . S
C356 C359 1.356 . S
C356 O412 1.325 . S
N357 C360 1.314 . S
N357 C361 1.279 . S
C358 C356 1.348 . S
C358 C360 1.353 . S
C358 H416 0.929 . S
C359 C356 1.356 . S
C359 C361 1.358 . S
C359 H417 0.930 . S
C360 N357 1.314 . S
C360 C358 1.353 . S
C360 H418 0.930 . S
C361 N357 1.279 . S
C361 C359 1.358 . S
C361 H419 0.930 . S
C362 C365 1.348 . S
C362 C366 1.356 . S
C362 O413 1.325 . S
C363 N364 1.279 . S
C363 C366 1.358 . S
C363 H420 0.930 . S
N364 C363 1.279 . S
N364 C367 1.314 . S
C365 C362 1.348 . S
C365 C367 1.353 . S
C365 H421 0.929 . S
C366 C362 1.356 . S
C366 C363 1.358 . S
C366 H422 0.930 . S
C367 N364 1.314 . S
C367 C365 1.353 . S
C367 H423 0.930 . S
C368 N369 1.314 . S
C368 C373 1.353 . S
C368 H374 0.930 . S
N369 Li352 1.990 . S
N369 C368 1.314 . S
N369 C371 1.279 . S
C370 C371 1.358 . S
C370 C372 1.356 . S
C370 H424 0.930 . S
C371 N369 1.279 . S
C371 C370 1.358 . S
C371 H375 0.930 . S
C372 C370 1.356 . S
C372 C373 1.348 . S
C373 C368 1.353 . S
C373 C372 1.348 . S
C373 H425 0.929 . S
H374 C368 0.930 . S
H375 C371 0.930 . S
C376 N377 1.314 . S
C376 C378 1.353 . S
C376 H382 0.930 . S
N377 Li353 1.990 . S
N377 C376 1.314 . S
N377 C380 1.279 . S
C378 C376 1.353 . S
C378 C381 1.348 . S
C378 H426 0.929 . S
C379 C380 1.358 . S
C379 C381 1.356 . S
C379 H427 0.930 . S
C380 N377 1.279 . S
C380 C379 1.358 . S
C380 H383 0.930 . S
C381 C378 1.348 . S
C381 C379 1.356 . S
H382 C376 0.930 . S
H383 C380 0.930 . S
C384 C386 1.348 . S
C384 C387 1.356 . S
C384 O414 1.325 . S
N385 C388 1.314 . S
N385 C389 1.279 . S
C386 C384 1.348 . S
C386 C388 1.353 . S
C386 H428 0.929 . S
C387 C384 1.356 . S
C387 C389 1.358 . S
C387 H429 0.930 . S
C388 N385 1.314 . S
C388 C386 1.353 . S
C388 H430 0.930 . S
C389 N385 1.279 . S
C389 C387 1.358 . S
C389 H431 0.930 . S
C390 C391 1.348 . S
C390 C392 1.356 . S
C390 O415 1.325 . S
C391 C390 1.348 . S
C391 C393 1.353 . S
C391 H432 0.929 . S
C392 C390 1.356 . S
C392 C394 1.358 . S
C392 H433 0.930 . S
C393 C391 1.353 . S
C393 N395 1.314 . S
C393 H434 0.930 . S
C394 C392 1.358 . S
C394 N395 1.279 . S
C394 H435 0.930 . S
N395 C393 1.314 . S
N395 C394 1.279 . S
C396 C398 1.353 . S
C396 N399 1.314 . S
C396 H402 0.930 . S
C397 N399 1.279 . S
C397 C400 1.358 . S
C397 H403 0.930 . S
C398 C396 1.353 . S
C398 C401 1.348 . S
C398 H436 0.929 . S
N399 Li354 1.990 . S
N399 C396 1.314 . S
N399 C397 1.279 . S
C400 C397 1.358 . S
C400 C401 1.356 . S
C400 H437 0.930 . S
C401 C398 1.348 . S
C401 C400 1.356 . S
H402 C396 0.930 . S
H403 C397 0.930 . S
C404 N405 1.314 . S
C404 C406 1.353 . S
C404 H410 0.930 . S
N405 Li355 1.990 . S
N405 C404 1.314 . S
N405 C408 1.279 . S
C406 C404 1.353 . S
C406 C409 1.348 . S
C406 H438 0.929 . S
C407 C408 1.358 . S
C407 C409 1.356 . S
C407 H439 0.930 . S
C408 N405 1.279 . S
C408 C407 1.358 . S
C408 H411 0.930 . S
C409 C406 1.348 . S
C409 C407 1.356 . S
H410 C404 0.930 . S
H411 C408 0.930 . S
O412 Li352 1.956 . S
O412 Li353 1.970 . S
O412 Li354 1.961 . S
O412 C356 1.325 . S
O413 Li352 1.970 . S
O413 Li353 1.956 . S
O413 Li355 1.961 . S
O413 C362 1.325 . S
O414 Li352 1.961 . S
O414 Li354 1.956 . S
O414 Li355 1.970 . S
O414 C384 1.325 . S
O415 Li353 1.961 . S
O415 Li354 1.970 . S
O415 Li355 1.956 . S
O415 C390 1.325 . S
H416 C358 0.929 . S
H417 C359 0.930 . S
H418 C360 0.930 . S
H419 C361 0.930 . S
H420 C363 0.930 . S
H421 C365 0.929 . S
H422 C366 0.930 . S
H423 C367 0.930 . S
H424 C370 0.930 . S
H425 C373 0.929 . S
H426 C378 0.929 . S
H427 C379 0.930 . S
H428 C386 0.929 . S
H429 C387 0.930 . S
H430 C388 0.930 . S
H431 C389 0.930 . S
H432 C391 0.929 . S
H433 C392 0.930 . S
H434 C393 0.930 . S
H435 C394 0.930 . S
H436 C398 0.929 . S
H437 C400 0.930 . S
H438 C406 0.929 . S
H439 C407 0.930 . S
Li440 N457 1.990 . S
Li440 O500 1.956 . S
Li440 O501 1.970 . S
Li440 O502 1.961 . S
Li441 N465 1.990 . S
Li441 O500 1.970 . S
Li441 O501 1.956 . S
Li441 O503 1.961 . S
Li442 N487 1.990 . S
Li442 O500 1.961 . S
Li442 O502 1.956 . S
Li442 O503 1.970 . S
Li443 N493 1.990 . S
Li443 O501 1.961 . S
Li443 O502 1.970 . S
Li443 O503 1.956 . S
C444 C446 1.348 . S
C444 C447 1.356 . S
C444 O500 1.325 . S
N445 C448 1.314 . S
N445 C449 1.279 . S
C446 C444 1.348 . S
C446 C448 1.353 . S
C446 H504 0.929 . S
C447 C444 1.356 . S
C447 C449 1.358 . S
C447 H505 0.930 . S
C448 N445 1.314 . S
C448 C446 1.353 . S
C448 H506 0.930 . S
C449 N445 1.279 . S
C449 C447 1.358 . S
C449 H507 0.930 . S
C450 C453 1.348 . S
C450 C454 1.356 . S
C450 O501 1.325 . S
C451 N452 1.279 . S
C451 C454 1.358 . S
C451 H508 0.930 . S
N452 C451 1.279 . S
N452 C455 1.314 . S
C453 C450 1.348 . S
C453 C455 1.353 . S
C453 H509 0.929 . S
C454 C450 1.356 . S
C454 C451 1.358 . S
C454 H510 0.930 . S
C455 N452 1.314 . S
C455 C453 1.353 . S
C455 H511 0.930 . S
C456 N457 1.314 . S
C456 C461 1.353 . S
C456 H462 0.930 . S
N457 Li440 1.990 . S
N457 C456 1.314 . S
N457 C459 1.279 . S
C458 C459 1.358 . S
C458 C460 1.356 . S
C458 H512 0.930 . S
C459 N457 1.279 . S
C459 C458 1.358 . S
C459 H463 0.930 . S
C460 C458 1.356 . S
C460 C461 1.348 . S
C461 C456 1.353 . S
C461 C460 1.348 . S
C461 H513 0.929 . S
H462 C456 0.930 . S
H463 C459 0.930 . S
C464 N465 1.314 . S
C464 C466 1.353 . S
C464 H470 0.930 . S
N465 Li441 1.990 . S
N465 C464 1.314 . S
N465 C468 1.279 . S
C466 C464 1.353 . S
C466 C469 1.348 . S
C466 H514 0.929 . S
C467 C468 1.358 . S
C467 C469 1.356 . S
C467 H515 0.930 . S
C468 N465 1.279 . S
C468 C467 1.358 . S
C468 H471 0.930 . S
C469 C466 1.348 . S
C469 C467 1.356 . S
H470 C464 0.930 . S
H471 C468 0.930 . S
C472 C474 1.348 . S
C472 C475 1.356 . S
C472 O502 1.325 . S
N473 C476 1.314 . S
N473 C477 1.279 . S
C474 C472 1.348 . S
C474 C476 1.353 . S
C474 H516 0.929 . S
C475 C472 1.356 . S
C475 C477 1.358 . S
C475 H517 0.930 . S
C476 N473 1.314 . S
C476 C474 1.353 . S
C476 H518 0.930 . S
C477 N473 1.279 . S
C477 C475 1.358 . S
C477 H519 0.930 . S
C478 C479 1.348 . S
C478 C480 1.356 . S
C478 O503 1.325 . S
C479 C478 1.348 . S
C479 C481 1.353 . S
C479 H520 0.929 . S
C480 C478 1.356 . S
C480 C482 1.358 . S
C480 H521 0.930 . S
C481 C479 1.353 . S
C481 N483 1.314 . S
C481 H522 0.930 . S
C482 C480 1.358 . S
C482 N483 1.279 . S
C482 H523 0.930 . S
N483 C481 1.314 . S
N483 C482 1.279 . S
C484 C486 1.353 . S
C484 N487 1.314 . S
C484 H490 0.930 . S
C485 N487 1.279 . S
C485 C488 1.358 . S
C485 H491 0.930 . S
C486 C484 1.353 . S
C486 C489 1.348 . S
C486 H524 0.929 . S
N487 Li442 1.990 . S
N487 C484 1.314 . S
N487 C485 1.279 . S
C488 C485 1.358 . S
C488 C489 1.356 . S
C488 H525 0.930 . S
C489 C486 1.348 . S
C489 C488 1.356 . S
H490 C484 0.930 . S
H491 C485 0.930 . S
C492 N493 1.314 . S
C492 C494 1.353 . S
C492 H498 0.930 . S
N493 Li443 1.990 . S
N493 C492 1.314 . S
N493 C496 1.279 . S
C494 C492 1.353 . S
C494 C497 1.348 . S
C494 H526 0.929 . S
C495 C496 1.358 . S
C495 C497 1.356 . S
C495 H527 0.930 . S
C496 N493 1.279 . S
C496 C495 1.358 . S
C496 H499 0.930 . S
C497 C494 1.348 . S
C497 C495 1.356 . S
H498 C492 0.930 . S
H499 C496 0.930 . S
O500 Li440 1.956 . S
O500 Li441 1.970 . S
O500 Li442 1.961 . S
O500 C444 1.325 . S
O501 Li440 1.970 . S
O501 Li441 1.956 . S
O501 Li443 1.961 . S
O501 C450 1.325 . S
O502 Li440 1.961 . S
O502 Li442 1.956 . S
O502 Li443 1.970 . S
O502 C472 1.325 . S
O503 Li441 1.961 . S
O503 Li442 1.970 . S
O503 Li443 1.956 . S
O503 C478 1.325 . S
H504 C446 0.929 . S
H505 C447 0.930 . S
H506 C448 0.930 . S
H507 C449 0.930 . S
H508 C451 0.930 . S
H509 C453 0.929 . S
H510 C454 0.930 . S
H511 C455 0.930 . S
H512 C458 0.930 . S
H513 C461 0.929 . S
H514 C466 0.929 . S
H515 C467 0.930 . S
H516 C474 0.929 . S
H517 C475 0.930 . S
H518 C476 0.930 . S
H519 C477 0.930 . S
H520 C479 0.929 . S
H521 C480 0.930 . S
H522 C481 0.930 . S
H523 C482 0.930 . S
H524 C486 0.929 . S
H525 C488 0.930 . S
H526 C494 0.929 . S
H527 C495 0.930 . S
Li528 N545 1.990 . S
Li528 O588 1.956 . S
Li528 O589 1.970 . S
Li528 O590 1.961 . S
Li529 N553 1.990 . S
Li529 O588 1.970 . S
Li529 O589 1.956 . S
Li529 O591 1.961 . S
Li530 N575 1.990 . S
Li530 O588 1.961 . S
Li530 O590 1.956 . S
Li530 O591 1.970 . S
Li531 N581 1.990 . S
Li531 O589 1.961 . S
Li531 O590 1.970 . S
Li531 O591 1.956 . S
C532 C534 1.348 . S
C532 C535 1.356 . S
C532 O588 1.325 . S
N533 C536 1.314 . S
N533 C537 1.279 . S
C534 C532 1.348 . S
C534 C536 1.353 . S
C534 H592 0.929 . S
C535 C532 1.356 . S
C535 C537 1.358 . S
C535 H593 0.930 . S
C536 N533 1.314 . S
C536 C534 1.353 . S
C536 H594 0.930 . S
C537 N533 1.279 . S
C537 C535 1.358 . S
C537 H595 0.930 . S
C538 C541 1.348 . S
C538 C542 1.356 . S
C538 O589 1.325 . S
C539 N540 1.279 . S
C539 C542 1.358 . S
C539 H596 0.930 . S
N540 C539 1.279 . S
N540 C543 1.314 . S
C541 C538 1.348 . S
C541 C543 1.353 . S
C541 H597 0.929 . S
C542 C538 1.356 . S
C542 C539 1.358 . S
C542 H598 0.930 . S
C543 N540 1.314 . S
C543 C541 1.353 . S
C543 H599 0.930 . S
C544 N545 1.314 . S
C544 C549 1.353 . S
C544 H550 0.930 . S
N545 Li528 1.990 . S
N545 C544 1.314 . S
N545 C547 1.279 . S
C546 C547 1.358 . S
C546 C548 1.356 . S
C546 H600 0.930 . S
C547 N545 1.279 . S
C547 C546 1.358 . S
C547 H551 0.930 . S
C548 C546 1.356 . S
C548 C549 1.348 . S
C549 C544 1.353 . S
C549 C548 1.348 . S
C549 H601 0.929 . S
H550 C544 0.930 . S
H551 C547 0.930 . S
C552 N553 1.314 . S
C552 C554 1.353 . S
C552 H558 0.930 . S
N553 Li529 1.990 . S
N553 C552 1.314 . S
N553 C556 1.279 . S
C554 C552 1.353 . S
C554 C557 1.348 . S
C554 H602 0.929 . S
C555 C556 1.358 . S
C555 C557 1.356 . S
C555 H603 0.930 . S
C556 N553 1.279 . S
C556 C555 1.358 . S
C556 H559 0.930 . S
C557 C554 1.348 . S
C557 C555 1.356 . S
H558 C552 0.930 . S
H559 C556 0.930 . S
C560 C562 1.348 . S
C560 C563 1.356 . S
C560 O590 1.325 . S
N561 C564 1.314 . S
N561 C565 1.279 . S
C562 C560 1.348 . S
C562 C564 1.353 . S
C562 H604 0.929 . S
C563 C560 1.356 . S
C563 C565 1.358 . S
C563 H605 0.930 . S
C564 N561 1.314 . S
C564 C562 1.353 . S
C564 H606 0.930 . S
C565 N561 1.279 . S
C565 C563 1.358 . S
C565 H607 0.930 . S
C566 C567 1.348 . S
C566 C568 1.356 . S
C566 O591 1.325 . S
C567 C566 1.348 . S
C567 C569 1.353 . S
C567 H608 0.929 . S
C568 C566 1.356 . S
C568 C570 1.358 . S
C568 H609 0.930 . S
C569 C567 1.353 . S
C569 N571 1.314 . S
C569 H610 0.930 . S
C570 C568 1.358 . S
C570 N571 1.279 . S
C570 H611 0.930 . S
N571 C569 1.314 . S
N571 C570 1.279 . S
C572 C574 1.353 . S
C572 N575 1.314 . S
C572 H578 0.930 . S
C573 N575 1.279 . S
C573 C576 1.358 . S
C573 H579 0.930 . S
C574 C572 1.353 . S
C574 C577 1.348 . S
C574 H612 0.929 . S
N575 Li530 1.990 . S
N575 C572 1.314 . S
N575 C573 1.279 . S
C576 C573 1.358 . S
C576 C577 1.356 . S
C576 H613 0.930 . S
C577 C574 1.348 . S
C577 C576 1.356 . S
H578 C572 0.930 . S
H579 C573 0.930 . S
C580 N581 1.314 . S
C580 C582 1.353 . S
C580 H586 0.930 . S
N581 Li531 1.990 . S
N581 C580 1.314 . S
N581 C584 1.279 . S
C582 C580 1.353 . S
C582 C585 1.348 . S
C582 H614 0.929 . S
C583 C584 1.358 . S
C583 C585 1.356 . S
C583 H615 0.930 . S
C584 N581 1.279 . S
C584 C583 1.358 . S
C584 H587 0.930 . S
C585 C582 1.348 . S
C585 C583 1.356 . S
H586 C580 0.930 . S
H587 C584 0.930 . S
O588 Li528 1.956 . S
O588 Li529 1.970 . S
O588 Li530 1.961 . S
O588 C532 1.325 . S
O589 Li528 1.970 . S
O589 Li529 1.956 . S
O589 Li531 1.961 . S
O589 C538 1.325 . S
O590 Li528 1.961 . S
O590 Li530 1.956 . S
O590 Li531 1.970 . S
O590 C560 1.325 . S
O591 Li529 1.961 . S
O591 Li530 1.970 . S
O591 Li531 1.956 . S
O591 C566 1.325 . S
H592 C534 0.929 . S
H593 C535 0.930 . S
H594 C536 0.930 . S
H595 C537 0.930 . S
H596 C539 0.930 . S
H597 C541 0.929 . S
H598 C542 0.930 . S
H599 C543 0.930 . S
H600 C546 0.930 . S
H601 C549 0.929 . S
H602 C554 0.929 . S
H603 C555 0.930 . S
H604 C562 0.929 . S
H605 C563 0.930 . S
H606 C564 0.930 . S
H607 C565 0.930 . S
H608 C567 0.929 . S
H609 C568 0.930 . S
H610 C569 0.930 . S
H611 C570 0.930 . S
H612 C574 0.929 . S
H613 C576 0.930 . S
H614 C582 0.929 . S
H615 C583 0.930 . S
Li616 N633 1.990 . S
Li616 O676 1.956 . S
Li616 O677 1.970 . S
Li616 O678 1.961 . S
Li617 N641 1.990 . S
Li617 O676 1.970 . S
Li617 O677 1.956 . S
Li617 O679 1.961 . S
Li618 N663 1.990 . S
Li618 O676 1.961 . S
Li618 O678 1.956 . S
Li618 O679 1.970 . S
Li619 N669 1.990 . S
Li619 O677 1.961 . S
Li619 O678 1.970 . S
Li619 O679 1.956 . S
C620 C622 1.348 . S
C620 C623 1.356 . S
C620 O676 1.325 . S
N621 C624 1.314 . S
N621 C625 1.279 . S
C622 C620 1.348 . S
C622 C624 1.353 . S
C622 H680 0.929 . S
C623 C620 1.356 . S
C623 C625 1.358 . S
C623 H681 0.930 . S
C624 N621 1.314 . S
C624 C622 1.353 . S
C624 H682 0.930 . S
C625 N621 1.279 . S
C625 C623 1.358 . S
C625 H683 0.930 . S
C626 C629 1.348 . S
C626 C630 1.356 . S
C626 O677 1.325 . S
C627 N628 1.279 . S
C627 C630 1.358 . S
C627 H684 0.930 . S
N628 C627 1.279 . S
N628 C631 1.314 . S
C629 C626 1.348 . S
C629 C631 1.353 . S
C629 H685 0.929 . S
C630 C626 1.356 . S
C630 C627 1.358 . S
C630 H686 0.930 . S
C631 N628 1.314 . S
C631 C629 1.353 . S
C631 H687 0.930 . S
C632 N633 1.314 . S
C632 C637 1.353 . S
C632 H638 0.930 . S
N633 Li616 1.990 . S
N633 C632 1.314 . S
N633 C635 1.279 . S
C634 C635 1.358 . S
C634 C636 1.356 . S
C634 H688 0.930 . S
C635 N633 1.279 . S
C635 C634 1.358 . S
C635 H639 0.930 . S
C636 C634 1.356 . S
C636 C637 1.348 . S
C637 C632 1.353 . S
C637 C636 1.348 . S
C637 H689 0.929 . S
H638 C632 0.930 . S
H639 C635 0.930 . S
C640 N641 1.314 . S
C640 C642 1.353 . S
C640 H646 0.930 . S
N641 Li617 1.990 . S
N641 C640 1.314 . S
N641 C644 1.279 . S
C642 C640 1.353 . S
C642 C645 1.348 . S
C642 H690 0.929 . S
C643 C644 1.358 . S
C643 C645 1.356 . S
C643 H691 0.930 . S
C644 N641 1.279 . S
C644 C643 1.358 . S
C644 H647 0.930 . S
C645 C642 1.348 . S
C645 C643 1.356 . S
H646 C640 0.930 . S
H647 C644 0.930 . S
C648 C650 1.348 . S
C648 C651 1.356 . S
C648 O678 1.325 . S
N649 C652 1.314 . S
N649 C653 1.279 . S
C650 C648 1.348 . S
C650 C652 1.353 . S
C650 H692 0.929 . S
C651 C648 1.356 . S
C651 C653 1.358 . S
C651 H693 0.930 . S
C652 N649 1.314 . S
C652 C650 1.353 . S
C652 H694 0.930 . S
C653 N649 1.279 . S
C653 C651 1.358 . S
C653 H695 0.930 . S
C654 C655 1.348 . S
C654 C656 1.356 . S
C654 O679 1.325 . S
C655 C654 1.348 . S
C655 C657 1.353 . S
C655 H696 0.929 . S
C656 C654 1.356 . S
C656 C658 1.358 . S
C656 H697 0.930 . S
C657 C655 1.353 . S
C657 N659 1.314 . S
C657 H698 0.930 . S
C658 C656 1.358 . S
C658 N659 1.279 . S
C658 H699 0.930 . S
N659 C657 1.314 . S
N659 C658 1.279 . S
C660 C662 1.353 . S
C660 N663 1.314 . S
C660 H666 0.930 . S
C661 N663 1.279 . S
C661 C664 1.358 . S
C661 H667 0.930 . S
C662 C660 1.353 . S
C662 C665 1.348 . S
C662 H700 0.929 . S
N663 Li618 1.990 . S
N663 C660 1.314 . S
N663 C661 1.279 . S
C664 C661 1.358 . S
C664 C665 1.356 . S
C664 H701 0.930 . S
C665 C662 1.348 . S
C665 C664 1.356 . S
H666 C660 0.930 . S
H667 C661 0.930 . S
C668 N669 1.314 . S
C668 C670 1.353 . S
C668 H674 0.930 . S
N669 Li619 1.990 . S
N669 C668 1.314 . S
N669 C672 1.279 . S
C670 C668 1.353 . S
C670 C673 1.348 . S
C670 H702 0.929 . S
C671 C672 1.358 . S
C671 C673 1.356 . S
C671 H703 0.930 . S
C672 N669 1.279 . S
C672 C671 1.358 . S
C672 H675 0.930 . S
C673 C670 1.348 . S
C673 C671 1.356 . S
H674 C668 0.930 . S
H675 C672 0.930 . S
O676 Li616 1.956 . S
O676 Li617 1.970 . S
O676 Li618 1.961 . S
O676 C620 1.325 . S
O677 Li616 1.970 . S
O677 Li617 1.956 . S
O677 Li619 1.961 . S
O677 C626 1.325 . S
O678 Li616 1.961 . S
O678 Li618 1.956 . S
O678 Li619 1.970 . S
O678 C648 1.325 . S
O679 Li617 1.961 . S
O679 Li618 1.970 . S
O679 Li619 1.956 . S
O679 C654 1.325 . S
H680 C622 0.929 . S
H681 C623 0.930 . S
H682 C624 0.930 . S
H683 C625 0.930 . S
H684 C627 0.930 . S
H685 C629 0.929 . S
H686 C630 0.930 . S
H687 C631 0.930 . S
H688 C634 0.930 . S
H689 C637 0.929 . S
H690 C642 0.929 . S
H691 C643 0.930 . S
H692 C650 0.929 . S
H693 C651 0.930 . S
H694 C652 0.930 . S
H695 C653 0.930 . S
H696 C655 0.929 . S
H697 C656 0.930 . S
H698 C657 0.930 . S
H699 C658 0.930 . S
H700 C662 0.929 . S
H701 C664 0.930 . S
H702 C670 0.929 . S
H703 C671 0.930 . S
Li704 N721 1.990 . S
Li704 O764 1.956 . S
Li704 O765 1.970 . S
Li704 O766 1.961 . S
Li705 N729 1.990 . S
Li705 O764 1.970 . S
Li705 O765 1.956 . S
Li705 O767 1.961 . S
Li706 N751 1.990 . S
Li706 O764 1.961 . S
Li706 O766 1.956 . S
Li706 O767 1.970 . S
Li707 N757 1.990 . S
Li707 O765 1.961 . S
Li707 O766 1.970 . S
Li707 O767 1.956 . S
C708 C710 1.348 . S
C708 C711 1.356 . S
C708 O764 1.325 . S
N709 C712 1.314 . S
N709 C713 1.279 . S
C710 C708 1.348 . S
C710 C712 1.353 . S
C710 H768 0.929 . S
C711 C708 1.356 . S
C711 C713 1.358 . S
C711 H769 0.930 . S
C712 N709 1.314 . S
C712 C710 1.353 . S
C712 H770 0.930 . S
C713 N709 1.279 . S
C713 C711 1.358 . S
C713 H771 0.930 . S
C714 C717 1.348 . S
C714 C718 1.356 . S
C714 O765 1.325 . S
C715 N716 1.279 . S
C715 C718 1.358 . S
C715 H772 0.930 . S
N716 C715 1.279 . S
N716 C719 1.314 . S
C717 C714 1.348 . S
C717 C719 1.353 . S
C717 H773 0.929 . S
C718 C714 1.356 . S
C718 C715 1.358 . S
C718 H774 0.930 . S
C719 N716 1.314 . S
C719 C717 1.353 . S
C719 H775 0.930 . S
C720 N721 1.314 . S
C720 C725 1.353 . S
C720 H726 0.930 . S
N721 Li704 1.990 . S
N721 C720 1.314 . S
N721 C723 1.279 . S
C722 C723 1.358 . S
C722 C724 1.356 . S
C722 H776 0.930 . S
C723 N721 1.279 . S
C723 C722 1.358 . S
C723 H727 0.930 . S
C724 C722 1.356 . S
C724 C725 1.348 . S
C725 C720 1.353 . S
C725 C724 1.348 . S
C725 H777 0.929 . S
H726 C720 0.930 . S
H727 C723 0.930 . S
C728 N729 1.314 . S
C728 C730 1.353 . S
C728 H734 0.930 . S
N729 Li705 1.990 . S
N729 C728 1.314 . S
N729 C732 1.279 . S
C730 C728 1.353 . S
C730 C733 1.348 . S
C730 H778 0.929 . S
C731 C732 1.358 . S
C731 C733 1.356 . S
C731 H779 0.930 . S
C732 N729 1.279 . S
C732 C731 1.358 . S
C732 H735 0.930 . S
C733 C730 1.348 . S
C733 C731 1.356 . S
H734 C728 0.930 . S
H735 C732 0.930 . S
C736 C738 1.348 . S
C736 C739 1.356 . S
C736 O766 1.325 . S
N737 C740 1.314 . S
N737 C741 1.279 . S
C738 C736 1.348 . S
C738 C740 1.353 . S
C738 H780 0.929 . S
C739 C736 1.356 . S
C739 C741 1.358 . S
C739 H781 0.930 . S
C740 N737 1.314 . S
C740 C738 1.353 . S
C740 H782 0.930 . S
C741 N737 1.279 . S
C741 C739 1.358 . S
C741 H783 0.930 . S
C742 C743 1.348 . S
C742 C744 1.356 . S
C742 O767 1.325 . S
C743 C742 1.348 . S
C743 C745 1.353 . S
C743 H784 0.929 . S
C744 C742 1.356 . S
C744 C746 1.358 . S
C744 H785 0.930 . S
C745 C743 1.353 . S
C745 N747 1.314 . S
C745 H786 0.930 . S
C746 C744 1.358 . S
C746 N747 1.279 . S
C746 H787 0.930 . S
N747 C745 1.314 . S
N747 C746 1.279 . S
C748 C750 1.353 . S
C748 N751 1.314 . S
C748 H754 0.930 . S
C749 N751 1.279 . S
C749 C752 1.358 . S
C749 H755 0.930 . S
C750 C748 1.353 . S
C750 C753 1.348 . S
C750 H788 0.929 . S
N751 Li706 1.990 . S
N751 C748 1.314 . S
N751 C749 1.279 . S
C752 C749 1.358 . S
C752 C753 1.356 . S
C752 H789 0.930 . S
C753 C750 1.348 . S
C753 C752 1.356 . S
H754 C748 0.930 . S
H755 C749 0.930 . S
C756 N757 1.314 . S
C756 C758 1.353 . S
C756 H762 0.930 . S
N757 Li707 1.990 . S
N757 C756 1.314 . S
N757 C760 1.279 . S
C758 C756 1.353 . S
C758 C761 1.348 . S
C758 H790 0.929 . S
C759 C760 1.358 . S
C759 C761 1.356 . S
C759 H791 0.930 . S
C760 N757 1.279 . S
C760 C759 1.358 . S
C760 H763 0.930 . S
C761 C758 1.348 . S
C761 C759 1.356 . S
H762 C756 0.930 . S
H763 C760 0.930 . S
O764 Li704 1.956 . S
O764 Li705 1.970 . S
O764 Li706 1.961 . S
O764 C708 1.325 . S
O765 Li704 1.970 . S
O765 Li705 1.956 . S
O765 Li707 1.961 . S
O765 C714 1.325 . S
O766 Li704 1.961 . S
O766 Li706 1.956 . S
O766 Li707 1.970 . S
O766 C736 1.325 . S
O767 Li705 1.961 . S
O767 Li706 1.970 . S
O767 Li707 1.956 . S
O767 C742 1.325 . S
H768 C710 0.929 . S
H769 C711 0.930 . S
H770 C712 0.930 . S
H771 C713 0.930 . S
H772 C715 0.930 . S
H773 C717 0.929 . S
H774 C718 0.930 . S
H775 C719 0.930 . S
H776 C722 0.930 . S
H777 C725 0.929 . S
H778 C730 0.929 . S
H779 C731 0.930 . S
H780 C738 0.929 . S
H781 C739 0.930 . S
H782 C740 0.930 . S
H783 C741 0.930 . S
H784 C743 0.929 . S
H785 C744 0.930 . S
H786 C745 0.930 . S
H787 C746 0.930 . S
H788 C750 0.929 . S
H789 C752 0.930 . S
H790 C758 0.929 . S
H791 C759 0.930 . S
Li792 N809 1.990 . S
Li792 O852 1.956 . S
Li792 O853 1.970 . S
Li792 O854 1.961 . S
Li793 N817 1.990 . S
Li793 O852 1.970 . S
Li793 O853 1.956 . S
Li793 O855 1.961 . S
Li794 N839 1.990 . S
Li794 O852 1.961 . S
Li794 O854 1.956 . S
Li794 O855 1.970 . S
Li795 N845 1.990 . S
Li795 O853 1.961 . S
Li795 O854 1.970 . S
Li795 O855 1.956 . S
C796 C798 1.348 . S
C796 C799 1.356 . S
C796 O852 1.325 . S
N797 C800 1.314 . S
N797 C801 1.279 . S
C798 C796 1.348 . S
C798 C800 1.353 . S
C798 H856 0.929 . S
C799 C796 1.356 . S
C799 C801 1.358 . S
C799 H857 0.930 . S
C800 N797 1.314 . S
C800 C798 1.353 . S
C800 H858 0.930 . S
C801 N797 1.279 . S
C801 C799 1.358 . S
C801 H859 0.930 . S
C802 C805 1.348 . S
C802 C806 1.356 . S
C802 O853 1.325 . S
C803 N804 1.279 . S
C803 C806 1.358 . S
C803 H860 0.930 . S
N804 C803 1.279 . S
N804 C807 1.314 . S
C805 C802 1.348 . S
C805 C807 1.353 . S
C805 H861 0.929 . S
C806 C802 1.356 . S
C806 C803 1.358 . S
C806 H862 0.930 . S
C807 N804 1.314 . S
C807 C805 1.353 . S
C807 H863 0.930 . S
C808 N809 1.314 . S
C808 C813 1.353 . S
C808 H814 0.930 . S
N809 Li792 1.990 . S
N809 C808 1.314 . S
N809 C811 1.279 . S
C810 C811 1.358 . S
C810 C812 1.356 . S
C810 H864 0.930 . S
C811 N809 1.279 . S
C811 C810 1.358 . S
C811 H815 0.930 . S
C812 C810 1.356 . S
C812 C813 1.348 . S
C813 C808 1.353 . S
C813 C812 1.348 . S
C813 H865 0.929 . S
H814 C808 0.930 . S
H815 C811 0.930 . S
C816 N817 1.314 . S
C816 C818 1.353 . S
C816 H822 0.930 . S
N817 Li793 1.990 . S
N817 C816 1.314 . S
N817 C820 1.279 . S
C818 C816 1.353 . S
C818 C821 1.348 . S
C818 H866 0.929 . S
C819 C820 1.358 . S
C819 C821 1.356 . S
C819 H867 0.930 . S
C820 N817 1.279 . S
C820 C819 1.358 . S
C820 H823 0.930 . S
C821 C818 1.348 . S
C821 C819 1.356 . S
H822 C816 0.930 . S
H823 C820 0.930 . S
C824 C826 1.348 . S
C824 C827 1.356 . S
C824 O854 1.325 . S
N825 C828 1.314 . S
N825 C829 1.279 . S
C826 C824 1.348 . S
C826 C828 1.353 . S
C826 H868 0.929 . S
C827 C824 1.356 . S
C827 C829 1.358 . S
C827 H869 0.930 . S
C828 N825 1.314 . S
C828 C826 1.353 . S
C828 H870 0.930 . S
C829 N825 1.279 . S
C829 C827 1.358 . S
C829 H871 0.930 . S
C830 C831 1.348 . S
C830 C832 1.356 . S
C830 O855 1.325 . S
C831 C830 1.348 . S
C831 C833 1.353 . S
C831 H872 0.929 . S
C832 C830 1.356 . S
C832 C834 1.358 . S
C832 H873 0.930 . S
C833 C831 1.353 . S
C833 N835 1.314 . S
C833 H874 0.930 . S
C834 C832 1.358 . S
C834 N835 1.279 . S
C834 H875 0.930 . S
N835 C833 1.314 . S
N835 C834 1.279 . S
C836 C838 1.353 . S
C836 N839 1.314 . S
C836 H842 0.930 . S
C837 N839 1.279 . S
C837 C840 1.358 . S
C837 H843 0.930 . S
C838 C836 1.353 . S
C838 C841 1.348 . S
C838 H876 0.929 . S
N839 Li794 1.990 . S
N839 C836 1.314 . S
N839 C837 1.279 . S
C840 C837 1.358 . S
C840 C841 1.356 . S
C840 H877 0.930 . S
C841 C838 1.348 . S
C841 C840 1.356 . S
H842 C836 0.930 . S
H843 C837 0.930 . S
C844 N845 1.314 . S
C844 C846 1.353 . S
C844 H850 0.930 . S
N845 Li795 1.990 . S
N845 C844 1.314 . S
N845 C848 1.279 . S
C846 C844 1.353 . S
C846 C849 1.348 . S
C846 H878 0.929 . S
C847 C848 1.358 . S
C847 C849 1.356 . S
C847 H879 0.930 . S
C848 N845 1.279 . S
C848 C847 1.358 . S
C848 H851 0.930 . S
C849 C846 1.348 . S
C849 C847 1.356 . S
H850 C844 0.930 . S
H851 C848 0.930 . S
O852 Li792 1.956 . S
O852 Li793 1.970 . S
O852 Li794 1.961 . S
O852 C796 1.325 . S
O853 Li792 1.970 . S
O853 Li793 1.956 . S
O853 Li795 1.961 . S
O853 C802 1.325 . S
O854 Li792 1.961 . S
O854 Li794 1.956 . S
O854 Li795 1.970 . S
O854 C824 1.325 . S
O855 Li793 1.961 . S
O855 Li794 1.970 . S
O855 Li795 1.956 . S
O855 C830 1.325 . S
H856 C798 0.929 . S
H857 C799 0.930 . S
H858 C800 0.930 . S
H859 C801 0.930 . S
H860 C803 0.930 . S
H861 C805 0.929 . S
H862 C806 0.930 . S
H863 C807 0.930 . S
H864 C810 0.930 . S
H865 C813 0.929 . S
H866 C818 0.929 . S
H867 C819 0.930 . S
H868 C826 0.929 . S
H869 C827 0.930 . S
H870 C828 0.930 . S
H871 C829 0.930 . S
H872 C831 0.929 . S
H873 C832 0.930 . S
H874 C833 0.930 . S
H875 C834 0.930 . S
H876 C838 0.929 . S
H877 C840 0.930 . S
H878 C846 0.929 . S
H879 C847 0.930 . S
Li880 N897 1.990 . S
Li880 O940 1.956 . S
Li880 O941 1.970 . S
Li880 O942 1.961 . S
Li881 N905 1.990 . S
Li881 O940 1.970 . S
Li881 O941 1.956 . S
Li881 O943 1.961 . S
Li882 N927 1.990 . S
Li882 O940 1.961 . S
Li882 O942 1.956 . S
Li882 O943 1.970 . S
Li883 N933 1.990 . S
Li883 O941 1.961 . S
Li883 O942 1.970 . S
Li883 O943 1.956 . S
C884 C886 1.348 . S
C884 C887 1.356 . S
C884 O940 1.325 . S
N885 C888 1.314 . S
N885 C889 1.279 . S
C886 C884 1.348 . S
C886 C888 1.353 . S
C886 H944 0.929 . S
C887 C884 1.356 . S
C887 C889 1.358 . S
C887 H945 0.930 . S
C888 N885 1.314 . S
C888 C886 1.353 . S
C888 H946 0.930 . S
C889 N885 1.279 . S
C889 C887 1.358 . S
C889 H947 0.930 . S
C890 C893 1.348 . S
C890 C894 1.356 . S
C890 O941 1.325 . S
C891 N892 1.279 . S
C891 C894 1.358 . S
C891 H948 0.930 . S
N892 C891 1.279 . S
N892 C895 1.314 . S
C893 C890 1.348 . S
C893 C895 1.353 . S
C893 H949 0.929 . S
C894 C890 1.356 . S
C894 C891 1.358 . S
C894 H950 0.930 . S
C895 N892 1.314 . S
C895 C893 1.353 . S
C895 H951 0.930 . S
C896 N897 1.314 . S
C896 C901 1.353 . S
C896 H902 0.930 . S
N897 Li880 1.990 . S
N897 C896 1.314 . S
N897 C899 1.279 . S
C898 C899 1.358 . S
C898 C900 1.356 . S
C898 H952 0.930 . S
C899 N897 1.279 . S
C899 C898 1.358 . S
C899 H903 0.930 . S
C900 C898 1.356 . S
C900 C901 1.348 . S
C901 C896 1.353 . S
C901 C900 1.348 . S
C901 H953 0.929 . S
H902 C896 0.930 . S
H903 C899 0.930 . S
C904 N905 1.314 . S
C904 C906 1.353 . S
C904 H910 0.930 . S
N905 Li881 1.990 . S
N905 C904 1.314 . S
N905 C908 1.279 . S
C906 C904 1.353 . S
C906 C909 1.348 . S
C906 H954 0.929 . S
C907 C908 1.358 . S
C907 C909 1.356 . S
C907 H955 0.930 . S
C908 N905 1.279 . S
C908 C907 1.358 . S
C908 H911 0.930 . S
C909 C906 1.348 . S
C909 C907 1.356 . S
H910 C904 0.930 . S
H911 C908 0.930 . S
C912 C914 1.348 . S
C912 C915 1.356 . S
C912 O942 1.325 . S
N913 C916 1.314 . S
N913 C917 1.279 . S
C914 C912 1.348 . S
C914 C916 1.353 . S
C914 H956 0.929 . S
C915 C912 1.356 . S
C915 C917 1.358 . S
C915 H957 0.930 . S
C916 N913 1.314 . S
C916 C914 1.353 . S
C916 H958 0.930 . S
C917 N913 1.279 . S
C917 C915 1.358 . S
C917 H959 0.930 . S
C918 C919 1.348 . S
C918 C920 1.356 . S
C918 O943 1.325 . S
C919 C918 1.348 . S
C919 C921 1.353 . S
C919 H960 0.929 . S
C920 C918 1.356 . S
C920 C922 1.358 . S
C920 H961 0.930 . S
C921 C919 1.353 . S
C921 N923 1.314 . S
C921 H962 0.930 . S
C922 C920 1.358 . S
C922 N923 1.279 . S
C922 H963 0.930 . S
N923 C921 1.314 . S
N923 C922 1.279 . S
C924 C926 1.353 . S
C924 N927 1.314 . S
C924 H930 0.930 . S
C925 N927 1.279 . S
C925 C928 1.358 . S
C925 H931 0.930 . S
C926 C924 1.353 . S
C926 C929 1.348 . S
C926 H964 0.929 . S
N927 Li882 1.990 . S
N927 C924 1.314 . S
N927 C925 1.279 . S
C928 C925 1.358 . S
C928 C929 1.356 . S
C928 H965 0.930 . S
C929 C926 1.348 . S
C929 C928 1.356 . S
H930 C924 0.930 . S
H931 C925 0.930 . S
C932 N933 1.314 . S
C932 C934 1.353 . S
C932 H938 0.930 . S
N933 Li883 1.990 . S
N933 C932 1.314 . S
N933 C936 1.279 . S
C934 C932 1.353 . S
C934 C937 1.348 . S
C934 H966 0.929 . S
C935 C936 1.358 . S
C935 C937 1.356 . S
C935 H967 0.930 . S
C936 N933 1.279 . S
C936 C935 1.358 . S
C936 H939 0.930 . S
C937 C934 1.348 . S
C937 C935 1.356 . S
H938 C932 0.930 . S
H939 C936 0.930 . S
O940 Li880 1.956 . S
O940 Li881 1.970 . S
O940 Li882 1.961 . S
O940 C884 1.325 . S
O941 Li880 1.970 . S
O941 Li881 1.956 . S
O941 Li883 1.961 . S
O941 C890 1.325 . S
O942 Li880 1.961 . S
O942 Li882 1.956 . S
O942 Li883 1.970 . S
O942 C912 1.325 . S
O943 Li881 1.961 . S
O943 Li882 1.970 . S
O943 Li883 1.956 . S
O943 C918 1.325 . S
H944 C886 0.929 . S
H945 C887 0.930 . S
H946 C888 0.930 . S
H947 C889 0.930 . S
H948 C891 0.930 . S
H949 C893 0.929 . S
H950 C894 0.930 . S
H951 C895 0.930 . S
H952 C898 0.930 . S
H953 C901 0.929 . S
H954 C906 0.929 . S
H955 C907 0.930 . S
H956 C914 0.929 . S
H957 C915 0.930 . S
H958 C916 0.930 . S
H959 C917 0.930 . S
H960 C919 0.929 . S
H961 C920 0.930 . S
H962 C921 0.930 . S
H963 C922 0.930 . S
H964 C926 0.929 . S
H965 C928 0.930 . S
H966 C934 0.929 . S
H967 C935 0.930 . S
Li968 N985 1.990 . S
Li968 O1028 1.956 . S
Li968 O1029 1.970 . S
Li968 O1030 1.961 . S
Li969 N993 1.990 . S
Li969 O1028 1.970 . S
Li969 O1029 1.956 . S
Li969 O1031 1.961 . S
Li970 N1015 1.990 . S
Li970 O1028 1.961 . S
Li970 O1030 1.956 . S
Li970 O1031 1.970 . S
Li971 N1021 1.990 . S
Li971 O1029 1.961 . S
Li971 O1030 1.970 . S
Li971 O1031 1.956 . S
C972 C974 1.348 . S
C972 C975 1.356 . S
C972 O1028 1.325 . S
N973 C976 1.314 . S
N973 C977 1.279 . S
C974 C972 1.348 . S
C974 C976 1.353 . S
C974 H1032 0.929 . S
C975 C972 1.356 . S
C975 C977 1.358 . S
C975 H1033 0.930 . S
C976 N973 1.314 . S
C976 C974 1.353 . S
C976 H1034 0.930 . S
C977 N973 1.279 . S
C977 C975 1.358 . S
C977 H1035 0.930 . S
C978 C981 1.348 . S
C978 C982 1.356 . S
C978 O1029 1.325 . S
C979 N980 1.279 . S
C979 C982 1.358 . S
C979 H1036 0.930 . S
N980 C979 1.279 . S
N980 C983 1.314 . S
C981 C978 1.348 . S
C981 C983 1.353 . S
C981 H1037 0.929 . S
C982 C978 1.356 . S
C982 C979 1.358 . S
C982 H1038 0.930 . S
C983 N980 1.314 . S
C983 C981 1.353 . S
C983 H1039 0.930 . S
C984 N985 1.314 . S
C984 C989 1.353 . S
C984 H990 0.930 . S
N985 Li968 1.990 . S
N985 C984 1.314 . S
N985 C987 1.279 . S
C986 C987 1.358 . S
C986 C988 1.356 . S
C986 H1040 0.930 . S
C987 N985 1.279 . S
C987 C986 1.358 . S
C987 H991 0.930 . S
C988 C986 1.356 . S
C988 C989 1.348 . S
C989 C984 1.353 . S
C989 C988 1.348 . S
C989 H1041 0.929 . S
H990 C984 0.930 . S
H991 C987 0.930 . S
C992 N993 1.314 . S
C992 C994 1.353 . S
C992 H998 0.930 . S
N993 Li969 1.990 . S
N993 C992 1.314 . S
N993 C996 1.279 . S
C994 C992 1.353 . S
C994 C997 1.348 . S
C994 H1042 0.929 . S
C995 C996 1.358 . S
C995 C997 1.356 . S
C995 H1043 0.930 . S
C996 N993 1.279 . S
C996 C995 1.358 . S
C996 H999 0.930 . S
C997 C994 1.348 . S
C997 C995 1.356 . S
H998 C992 0.930 . S
H999 C996 0.930 . S
C1000 C1002 1.348 . S
C1000 C1003 1.356 . S
C1000 O1030 1.325 . S
N1001 C1004 1.314 . S
N1001 C1005 1.279 . S
C1002 C1000 1.348 . S
C1002 C1004 1.353 . S
C1002 H1044 0.929 . S
C1003 C1000 1.356 . S
C1003 C1005 1.358 . S
C1003 H1045 0.930 . S
C1004 N1001 1.314 . S
C1004 C1002 1.353 . S
C1004 H1046 0.930 . S
C1005 N1001 1.279 . S
C1005 C1003 1.358 . S
C1005 H1047 0.930 . S
C1006 C1007 1.348 . S
C1006 C1008 1.356 . S
C1006 O1031 1.325 . S
C1007 C1006 1.348 . S
C1007 C1009 1.353 . S
C1007 H1048 0.929 . S
C1008 C1006 1.356 . S
C1008 C1010 1.358 . S
C1008 H1049 0.930 . S
C1009 C1007 1.353 . S
C1009 N1011 1.314 . S
C1009 H1050 0.930 . S
C1010 C1008 1.358 . S
C1010 N1011 1.279 . S
C1010 H1051 0.930 . S
N1011 C1009 1.314 . S
N1011 C1010 1.279 . S
C1012 C1014 1.353 . S
C1012 N1015 1.314 . S
C1012 H1018 0.930 . S
C1013 N1015 1.279 . S
C1013 C1016 1.358 . S
C1013 H1019 0.930 . S
C1014 C1012 1.353 . S
C1014 C1017 1.348 . S
C1014 H1052 0.929 . S
N1015 Li970 1.990 . S
N1015 C1012 1.314 . S
N1015 C1013 1.279 . S
C1016 C1013 1.358 . S
C1016 C1017 1.356 . S
C1016 H1053 0.930 . S
C1017 C1014 1.348 . S
C1017 C1016 1.356 . S
H1018 C1012 0.930 . S
H1019 C1013 0.930 . S
C1020 N1021 1.314 . S
C1020 C1022 1.353 . S
C1020 H1026 0.930 . S
N1021 Li971 1.990 . S
N1021 C1020 1.314 . S
N1021 C1024 1.279 . S
C1022 C1020 1.353 . S
C1022 C1025 1.348 . S
C1022 H1054 0.929 . S
C1023 C1024 1.358 . S
C1023 C1025 1.356 . S
C1023 H1055 0.930 . S
C1024 N1021 1.279 . S
C1024 C1023 1.358 . S
C1024 H1027 0.930 . S
C1025 C1022 1.348 . S
C1025 C1023 1.356 . S
H1026 C1020 0.930 . S
H1027 C1024 0.930 . S
O1028 Li968 1.956 . S
O1028 Li969 1.970 . S
O1028 Li970 1.961 . S
O1028 C972 1.325 . S
O1029 Li968 1.970 . S
O1029 Li969 1.956 . S
O1029 Li971 1.961 . S
O1029 C978 1.325 . S
O1030 Li968 1.961 . S
O1030 Li970 1.956 . S
O1030 Li971 1.970 . S
O1030 C1000 1.325 . S
O1031 Li969 1.961 . S
O1031 Li970 1.970 . S
O1031 Li971 1.956 . S
O1031 C1006 1.325 . S
H1032 C974 0.929 . S
H1033 C975 0.930 . S
H1034 C976 0.930 . S
H1035 C977 0.930 . S
H1036 C979 0.930 . S
H1037 C981 0.929 . S
H1038 C982 0.930 . S
H1039 C983 0.930 . S
H1040 C986 0.930 . S
H1041 C989 0.929 . S
H1042 C994 0.929 . S
H1043 C995 0.930 . S
H1044 C1002 0.929 . S
H1045 C1003 0.930 . S
H1046 C1004 0.930 . S
H1047 C1005 0.930 . S
H1048 C1007 0.929 . S
H1049 C1008 0.930 . S
H1050 C1009 0.930 . S
H1051 C1010 0.930 . S
H1052 C1014 0.929 . S
H1053 C1016 0.930 . S
H1054 C1022 0.929 . S
H1055 C1023 0.930 . S
C1056 C1057 1.391 . S
C1056 C1058 1.394 . S
C1056 H1072 0.931 . S
C1057 C1056 1.391 . S
C1057 C1061 1.376 . S
C1058 C1056 1.394 . S
C1058 C1059 1.369 . S
C1058 C1062 1.531 . S
C1059 C1058 1.369 . S
C1059 C1060 1.410 . S
C1059 C1067 1.503 . S
C1060 C1059 1.410 . S
C1060 C1061 1.392 . S
C1060 C1063 1.511 . S
C1061 C1057 1.376 . S
C1061 C1060 1.392 . S
C1061 H1073 0.929 . S
C1062 C1058 1.531 . S
C1062 H1074 0.960 . S
C1062 H1075 0.962 . S
C1062 H1076 0.960 . S
C1063 C1060 1.511 . S
C1063 H1077 0.961 . S
C1063 H1078 0.961 . S
C1063 H1079 0.961 . S
C1064 C1065 1.370 . S
C1064 C1066 1.363 . S
C1064 H1080 0.931 . S
C1065 C1064 1.370 . S
C1065 C1069 1.408 . S
C1066 C1064 1.363 . S
C1066 C1067 1.370 . S
C1066 C1070 1.524 . S
C1067 C1059 1.503 . S
C1067 C1066 1.370 . S
C1067 C1068 1.403 . S
C1068 C1067 1.403 . S
C1068 C1069 1.404 . S
C1068 C1071 1.539 . S
C1069 C1065 1.408 . S
C1069 C1068 1.404 . S
C1069 H1081 0.930 . S
C1070 C1066 1.524 . S
C1070 H1082 0.956 . S
C1070 H1083 0.961 . S
C1070 H1084 0.961 . S
C1071 C1068 1.539 . S
C1071 H1085 0.958 . S
C1071 H1086 0.961 . S
C1071 H1087 0.960 . S
H1072 C1056 0.931 . S
H1073 C1061 0.929 . S
H1074 C1062 0.960 . S
H1075 C1062 0.962 . S
H1076 C1062 0.960 . S
H1077 C1063 0.961 . S
H1078 C1063 0.961 . S
H1079 C1063 0.961 . S
H1080 C1064 0.931 . S
H1081 C1069 0.930 . S
H1082 C1070 0.956 . S
H1083 C1070 0.961 . S
H1084 C1070 0.961 . S
H1085 C1071 0.958 . S
H1086 C1071 0.961 . S
H1087 C1071 0.960 . S
C1088 C1089 1.391 . S
C1088 C1090 1.394 . S
C1088 H1104 0.931 . S
C1089 C1088 1.391 . S
C1089 C1093 1.376 . S
C1090 C1088 1.394 . S
C1090 C1091 1.369 . S
C1090 C1094 1.531 . S
C1091 C1090 1.369 . S
C1091 C1092 1.410 . S
C1091 C1099 1.503 . S
C1092 C1091 1.410 . S
C1092 C1093 1.392 . S
C1092 C1095 1.511 . S
C1093 C1089 1.376 . S
C1093 C1092 1.392 . S
C1093 H1105 0.929 . S
C1094 C1090 1.531 . S
C1094 H1106 0.960 . S
C1094 H1107 0.962 . S
C1094 H1108 0.960 . S
C1095 C1092 1.511 . S
C1095 H1109 0.961 . S
C1095 H1110 0.961 . S
C1095 H1111 0.961 . S
C1096 C1097 1.370 . S
C1096 C1098 1.363 . S
C1096 H1112 0.931 . S
C1097 C1096 1.370 . S
C1097 C1101 1.408 . S
C1098 C1096 1.363 . S
C1098 C1099 1.370 . S
C1098 C1102 1.524 . S
C1099 C1091 1.503 . S
C1099 C1098 1.370 . S
C1099 C1100 1.403 . S
C1100 C1099 1.403 . S
C1100 C1101 1.404 . S
C1100 C1103 1.539 . S
C1101 C1097 1.408 . S
C1101 C1100 1.404 . S
C1101 H1113 0.930 . S
C1102 C1098 1.524 . S
C1102 H1114 0.956 . S
C1102 H1115 0.961 . S
C1102 H1116 0.961 . S
C1103 C1100 1.539 . S
C1103 H1117 0.958 . S
C1103 H1118 0.961 . S
C1103 H1119 0.960 . S
H1104 C1088 0.931 . S
H1105 C1093 0.929 . S
H1106 C1094 0.960 . S
H1107 C1094 0.962 . S
H1108 C1094 0.960 . S
H1109 C1095 0.961 . S
H1110 C1095 0.961 . S
H1111 C1095 0.961 . S
H1112 C1096 0.931 . S
H1113 C1101 0.930 . S
H1114 C1102 0.956 . S
H1115 C1102 0.961 . S
H1116 C1102 0.961 . S
H1117 C1103 0.958 . S
H1118 C1103 0.961 . S
H1119 C1103 0.960 . S
C1120 C1121 1.391 . S
C1120 C1122 1.394 . S
C1120 H1136 0.931 . S
C1121 C1120 1.391 . S
C1121 C1125 1.376 . S
C1122 C1120 1.394 . S
C1122 C1123 1.369 . S
C1122 C1126 1.531 . S
C1123 C1122 1.369 . S
C1123 C1124 1.410 . S
C1123 C1131 1.503 . S
C1124 C1123 1.410 . S
C1124 C1125 1.392 . S
C1124 C1127 1.511 . S
C1125 C1121 1.376 . S
C1125 C1124 1.392 . S
C1125 H1137 0.929 . S
C1126 C1122 1.531 . S
C1126 H1138 0.960 . S
C1126 H1139 0.962 . S
C1126 H1140 0.960 . S
C1127 C1124 1.511 . S
C1127 H1141 0.961 . S
C1127 H1142 0.961 . S
C1127 H1143 0.961 . S
C1128 C1129 1.370 . S
C1128 C1130 1.363 . S
C1128 H1144 0.931 . S
C1129 C1128 1.370 . S
C1129 C1133 1.408 . S
C1130 C1128 1.363 . S
C1130 C1131 1.370 . S
C1130 C1134 1.524 . S
C1131 C1123 1.503 . S
C1131 C1130 1.370 . S
C1131 C1132 1.403 . S
C1132 C1131 1.403 . S
C1132 C1133 1.404 . S
C1132 C1135 1.539 . S
C1133 C1129 1.408 . S
C1133 C1132 1.404 . S
C1133 H1145 0.930 . S
C1134 C1130 1.524 . S
C1134 H1146 0.956 . S
C1134 H1147 0.961 . S
C1134 H1148 0.961 . S
C1135 C1132 1.539 . S
C1135 H1149 0.958 . S
C1135 H1150 0.961 . S
C1135 H1151 0.960 . S
H1136 C1120 0.931 . S
H1137 C1125 0.929 . S
H1138 C1126 0.960 . S
H1139 C1126 0.962 . S
H1140 C1126 0.960 . S
H1141 C1127 0.961 . S
H1142 C1127 0.961 . S
H1143 C1127 0.961 . S
H1144 C1128 0.931 . S
H1145 C1133 0.930 . S
H1146 C1134 0.956 . S
H1147 C1134 0.961 . S
H1148 C1134 0.961 . S
H1149 C1135 0.958 . S
H1150 C1135 0.961 . S
H1151 C1135 0.960 . S
C1152 C1153 1.391 . S
C1152 C1154 1.394 . S
C1152 H1168 0.931 . S
C1153 C1152 1.391 . S
C1153 C1157 1.376 . S
C1154 C1152 1.394 . S
C1154 C1155 1.369 . S
C1154 C1158 1.531 . S
C1155 C1154 1.369 . S
C1155 C1156 1.410 . S
C1155 C1163 1.503 . S
C1156 C1155 1.410 . S
C1156 C1157 1.392 . S
C1156 C1159 1.511 . S
C1157 C1153 1.376 . S
C1157 C1156 1.392 . S
C1157 H1169 0.929 . S
C1158 C1154 1.531 . S
C1158 H1170 0.960 . S
C1158 H1171 0.962 . S
C1158 H1172 0.960 . S
C1159 C1156 1.511 . S
C1159 H1173 0.961 . S
C1159 H1174 0.961 . S
C1159 H1175 0.961 . S
C1160 C1161 1.370 . S
C1160 C1162 1.363 . S
C1160 H1176 0.931 . S
C1161 C1160 1.370 . S
C1161 C1165 1.408 . S
C1162 C1160 1.363 . S
C1162 C1163 1.370 . S
C1162 C1166 1.524 . S
C1163 C1155 1.503 . S
C1163 C1162 1.370 . S
C1163 C1164 1.403 . S
C1164 C1163 1.403 . S
C1164 C1165 1.404 . S
C1164 C1167 1.539 . S
C1165 C1161 1.408 . S
C1165 C1164 1.404 . S
C1165 H1177 0.930 . S
C1166 C1162 1.524 . S
C1166 H1178 0.956 . S
C1166 H1179 0.961 . S
C1166 H1180 0.961 . S
C1167 C1164 1.539 . S
C1167 H1181 0.958 . S
C1167 H1182 0.961 . S
C1167 H1183 0.960 . S
H1168 C1152 0.931 . S
H1169 C1157 0.929 . S
H1170 C1158 0.960 . S
H1171 C1158 0.962 . S
H1172 C1158 0.960 . S
H1173 C1159 0.961 . S
H1174 C1159 0.961 . S
H1175 C1159 0.961 . S
H1176 C1160 0.931 . S
H1177 C1165 0.930 . S
H1178 C1166 0.956 . S
H1179 C1166 0.961 . S
H1180 C1166 0.961 . S
H1181 C1167 0.958 . S
H1182 C1167 0.961 . S
H1183 C1167 0.960 . S
C1184 C1185 1.391 . S
C1184 C1186 1.394 . S
C1184 H1200 0.931 . S
C1185 C1184 1.391 . S
C1185 C1189 1.376 . S
C1186 C1184 1.394 . S
C1186 C1187 1.369 . S
C1186 C1190 1.531 . S
C1187 C1186 1.369 . S
C1187 C1188 1.410 . S
C1187 C1195 1.503 . S
C1188 C1187 1.410 . S
C1188 C1189 1.392 . S
C1188 C1191 1.511 . S
C1189 C1185 1.376 . S
C1189 C1188 1.392 . S
C1189 H1201 0.929 . S
C1190 C1186 1.531 . S
C1190 H1202 0.960 . S
C1190 H1203 0.962 . S
C1190 H1204 0.960 . S
C1191 C1188 1.511 . S
C1191 H1205 0.961 . S
C1191 H1206 0.961 . S
C1191 H1207 0.961 . S
C1192 C1193 1.370 . S
C1192 C1194 1.363 . S
C1192 H1208 0.931 . S
C1193 C1192 1.370 . S
C1193 C1197 1.408 . S
C1194 C1192 1.363 . S
C1194 C1195 1.370 . S
C1194 C1198 1.524 . S
C1195 C1187 1.503 . S
C1195 C1194 1.370 . S
C1195 C1196 1.403 . S
C1196 C1195 1.403 . S
C1196 C1197 1.404 . S
C1196 C1199 1.539 . S
C1197 C1193 1.408 . S
C1197 C1196 1.404 . S
C1197 H1209 0.930 . S
C1198 C1194 1.524 . S
C1198 H1210 0.956 . S
C1198 H1211 0.961 . S
C1198 H1212 0.961 . S
C1199 C1196 1.539 . S
C1199 H1213 0.958 . S
C1199 H1214 0.961 . S
C1199 H1215 0.960 . S
H1200 C1184 0.931 . S
H1201 C1189 0.929 . S
H1202 C1190 0.960 . S
H1203 C1190 0.962 . S
H1204 C1190 0.960 . S
H1205 C1191 0.961 . S
H1206 C1191 0.961 . S
H1207 C1191 0.961 . S
H1208 C1192 0.931 . S
H1209 C1197 0.930 . S
H1210 C1198 0.956 . S
H1211 C1198 0.961 . S
H1212 C1198 0.961 . S
H1213 C1199 0.958 . S
H1214 C1199 0.961 . S
H1215 C1199 0.960 . S
C1216 C1217 1.391 . S
C1216 C1218 1.394 . S
C1216 H1232 0.931 . S
C1217 C1216 1.391 . S
C1217 C1221 1.376 . S
C1218 C1216 1.394 . S
C1218 C1219 1.369 . S
C1218 C1222 1.531 . S
C1219 C1218 1.369 . S
C1219 C1220 1.410 . S
C1219 C1227 1.503 . S
C1220 C1219 1.410 . S
C1220 C1221 1.392 . S
C1220 C1223 1.511 . S
C1221 C1217 1.376 . S
C1221 C1220 1.392 . S
C1221 H1233 0.929 . S
C1222 C1218 1.531 . S
C1222 H1234 0.960 . S
C1222 H1235 0.962 . S
C1222 H1236 0.960 . S
C1223 C1220 1.511 . S
C1223 H1237 0.961 . S
C1223 H1238 0.961 . S
C1223 H1239 0.961 . S
C1224 C1225 1.370 . S
C1224 C1226 1.363 . S
C1224 H1240 0.931 . S
C1225 C1224 1.370 . S
C1225 C1229 1.408 . S
C1226 C1224 1.363 . S
C1226 C1227 1.370 . S
C1226 C1230 1.524 . S
C1227 C1219 1.503 . S
C1227 C1226 1.370 . S
C1227 C1228 1.403 . S
C1228 C1227 1.403 . S
C1228 C1229 1.404 . S
C1228 C1231 1.539 . S
C1229 C1225 1.408 . S
C1229 C1228 1.404 . S
C1229 H1241 0.930 . S
C1230 C1226 1.524 . S
C1230 H1242 0.956 . S
C1230 H1243 0.961 . S
C1230 H1244 0.961 . S
C1231 C1228 1.539 . S
C1231 H1245 0.958 . S
C1231 H1246 0.961 . S
C1231 H1247 0.960 . S
H1232 C1216 0.931 . S
H1233 C1221 0.929 . S
H1234 C1222 0.960 . S
H1235 C1222 0.962 . S
H1236 C1222 0.960 . S
H1237 C1223 0.961 . S
H1238 C1223 0.961 . S
H1239 C1223 0.961 . S
H1240 C1224 0.931 . S
H1241 C1229 0.930 . S
H1242 C1230 0.956 . S
H1243 C1230 0.961 . S
H1244 C1230 0.961 . S
H1245 C1231 0.958 . S
H1246 C1231 0.961 . S
H1247 C1231 0.960 . S
C1248 C1249 1.391 . S
C1248 C1250 1.394 . S
C1248 H1264 0.931 . S
C1249 C1248 1.391 . S
C1249 C1253 1.376 . S
C1250 C1248 1.394 . S
C1250 C1251 1.369 . S
C1250 C1254 1.531 1_545 S
C1251 C1250 1.369 . S
C1251 C1252 1.410 . S
C1251 C1259 1.503 1_544 S
C1252 C1251 1.410 . S
C1252 C1253 1.392 . S
C1252 C1255 1.511 1_554 S
C1253 C1249 1.376 . S
C1253 C1252 1.392 . S
C1253 H1265 0.929 . S
C1254 C1250 1.531 1_565 S
C1254 H1266 0.960 . S
C1254 H1267 0.962 . S
C1254 H1268 0.960 . S
C1255 C1252 1.511 1_556 S
C1255 H1269 0.961 . S
C1255 H1270 0.961 . S
C1255 H1271 0.961 1_556 S
C1256 C1257 1.370 . S
C1256 C1258 1.363 . S
C1256 H1272 0.931 . S
C1257 C1256 1.370 . S
C1257 C1261 1.408 . S
C1258 C1256 1.363 . S
C1258 C1259 1.370 . S
C1258 C1262 1.524 1_565 S
C1259 C1251 1.503 1_566 S
C1259 C1258 1.370 . S
C1259 C1260 1.403 1_556 S
C1260 C1259 1.403 1_554 S
C1260 C1261 1.404 1_554 S
C1260 C1263 1.539 . S
C1261 C1257 1.408 . S
C1261 C1260 1.404 1_556 S
C1261 H1273 0.932 . S
C1262 C1258 1.524 1_545 S
C1262 H1274 0.980 . S
C1262 H1275 0.961 . S
C1262 H1276 0.957 1_545 S
C1263 C1260 1.539 . S
C1263 H1277 0.958 . S
C1263 H1278 0.961 . S
C1263 H1279 0.960 . S
H1264 C1248 0.931 . S
H1265 C1253 0.929 . S
H1266 C1254 0.960 . S
H1267 C1254 0.962 . S
H1268 C1254 0.960 . S
H1269 C1255 0.961 . S
H1270 C1255 0.961 . S
H1271 C1255 0.961 1_554 S
H1272 C1256 0.931 . S
H1273 C1261 0.932 . S
H1274 C1262 0.980 . S
H1275 C1262 0.961 . S
H1276 C1262 0.957 1_565 S
H1277 C1263 0.958 . S
H1278 C1263 0.961 . S
H1279 C1263 0.960 . S
C1280 C1281 1.391 . S
C1280 C1282 1.394 . S
C1280 H1296 0.931 . S
C1281 C1280 1.391 . S
C1281 C1285 1.376 . S
C1282 C1280 1.394 . S
C1282 C1283 1.369 . S
C1282 C1286 1.531 . S
C1283 C1282 1.369 . S
C1283 C1284 1.410 . S
C1283 C1291 1.503 . S
C1284 C1283 1.410 . S
C1284 C1285 1.392 . S
C1284 C1287 1.511 . S
C1285 C1281 1.376 . S
C1285 C1284 1.392 . S
C1285 H1297 0.929 . S
C1286 C1282 1.531 . S
C1286 H1298 0.960 . S
C1286 H1299 0.962 . S
C1286 H1300 0.960 . S
C1287 C1284 1.511 . S
C1287 H1301 0.961 . S
C1287 H1302 0.961 . S
C1287 H1303 0.961 . S
C1288 C1289 1.370 . S
C1288 C1290 1.363 . S
C1288 H1304 0.931 . S
C1289 C1288 1.370 . S
C1289 C1293 1.408 . S
C1290 C1288 1.363 . S
C1290 C1291 1.370 . S
C1290 C1294 1.524 . S
C1291 C1283 1.503 . S
C1291 C1290 1.370 . S
C1291 C1292 1.403 . S
C1292 C1291 1.403 . S
C1292 C1293 1.404 . S
C1292 C1295 1.539 . S
C1293 C1289 1.408 . S
C1293 C1292 1.404 . S
C1293 H1305 0.930 . S
C1294 C1290 1.524 . S
C1294 H1306 0.956 . S
C1294 H1307 0.961 . S
C1294 H1308 0.961 . S
C1295 C1292 1.539 . S
C1295 H1309 0.958 . S
C1295 H1310 0.961 . S
C1295 H1311 0.960 . S
H1296 C1280 0.931 . S
H1297 C1285 0.929 . S
H1298 C1286 0.960 . S
H1299 C1286 0.962 . S
H1300 C1286 0.960 . S
H1301 C1287 0.961 . S
H1302 C1287 0.961 . S
H1303 C1287 0.961 . S
H1304 C1288 0.931 . S
H1305 C1293 0.930 . S
H1306 C1294 0.956 . S
H1307 C1294 0.961 . S
H1308 C1294 0.961 . S
H1309 C1295 0.958 . S
H1310 C1295 0.961 . S
H1311 C1295 0.960 . S
C1312 C1313 1.391 1_655 S
C1312 C1314 1.394 . S
C1312 H1328 0.931 . S
C1313 C1312 1.391 1_455 S
C1313 C1317 1.376 . S
C1314 C1312 1.394 . S
C1314 C1315 1.369 1_655 S
C1314 C1318 1.531 . S
C1315 C1314 1.369 1_455 S
C1315 C1316 1.410 . S
C1315 C1323 1.510 1_455 S
C1316 C1315 1.410 . S
C1316 C1317 1.392 . S
C1316 C1319 1.511 1_556 S
C1317 C1313 1.376 . S
C1317 C1316 1.392 . S
C1317 H1329 0.929 . S
C1318 C1314 1.531 . S
C1318 H1330 0.960 . S
C1318 H1331 0.962 . S
C1318 H1332 0.960 . S
C1319 C1316 1.511 1_554 S
C1319 H1333 0.961 . S
C1319 H1334 0.961 . S
C1319 H1335 0.961 1_554 S
C1320 C1321 1.370 . S
C1320 C1322 1.363 . S
C1320 H1336 0.931 . S
C1321 C1320 1.370 . S
C1321 C1325 1.381 1_554 S
C1322 C1320 1.363 . S
C1322 C1323 1.356 1_554 S
C1322 C1326 1.524 . S
C1323 C1315 1.510 1_655 S
C1323 C1322 1.356 1_556 S
C1323 C1324 1.410 . S
C1324 C1323 1.410 . S
C1324 C1325 1.418 . S
C1324 C1327 1.539 1_655 S
C1325 C1321 1.381 1_556 S
C1325 C1324 1.418 . S
C1325 H1337 0.943 . S
C1326 C1322 1.524 . S
C1326 H1338 0.956 . S
C1326 H1339 0.962 1_655 S
C1326 H1340 0.961 . S
C1327 C1324 1.539 1_455 S
C1327 H1341 0.958 1_455 S
C1327 H1342 0.961 . S
C1327 H1343 0.960 . S
H1328 C1312 0.931 . S
H1329 C1317 0.929 . S
H1330 C1318 0.960 . S
H1331 C1318 0.962 . S
H1332 C1318 0.960 . S
H1333 C1319 0.961 . S
H1334 C1319 0.961 . S
H1335 C1319 0.961 1_556 S
H1336 C1320 0.931 . S
H1337 C1325 0.943 . S
H1338 C1326 0.956 . S
H1339 C1326 0.962 1_455 S
H1340 C1326 0.961 . S
H1341 C1327 0.958 1_655 S
H1342 C1327 0.961 . S
H1343 C1327 0.960 . S
C1344 C1345 1.391 . S
C1344 C1346 1.394 . S
C1344 H1360 0.931 . S
C1345 C1344 1.391 . S
C1345 C1349 1.376 . S
C1346 C1344 1.394 . S
C1346 C1347 1.369 . S
C1346 C1350 1.531 1_545 S
C1347 C1346 1.369 . S
C1347 C1348 1.410 . S
C1347 C1355 1.503 1_545 S
C1348 C1347 1.410 . S
C1348 C1349 1.392 . S
C1348 C1351 1.511 . S
C1349 C1345 1.376 . S
C1349 C1348 1.392 . S
C1349 H1361 0.929 . S
C1350 C1346 1.531 1_565 S
C1350 H1362 0.960 . S
C1350 H1363 0.962 . S
C1350 H1364 0.960 . S
C1351 C1348 1.511 . S
C1351 H1365 0.961 . S
C1351 H1366 0.961 . S
C1351 H1367 0.961 . S
C1352 C1353 1.370 . S
C1352 C1354 1.363 . S
C1352 H1368 0.931 . S
C1353 C1352 1.370 . S
C1353 C1357 1.408 . S
C1354 C1352 1.363 . S
C1354 C1355 1.370 . S
C1354 C1358 1.524 . S
C1355 C1347 1.503 1_565 S
C1355 C1354 1.370 . S
C1355 C1356 1.403 . S
C1356 C1355 1.403 . S
C1356 C1357 1.404 . S
C1356 C1359 1.539 . S
C1357 C1353 1.408 . S
C1357 C1356 1.404 . S
C1357 H1369 0.930 . S
C1358 C1354 1.524 . S
C1358 H1370 0.956 . S
C1358 H1371 0.961 1_565 S
C1358 H1372 0.961 . S
C1359 C1356 1.539 . S
C1359 H1373 0.958 . S
C1359 H1374 0.961 . S
C1359 H1375 0.960 1_565 S
H1360 C1344 0.931 . S
H1361 C1349 0.929 . S
H1362 C1350 0.960 . S
H1363 C1350 0.962 . S
H1364 C1350 0.960 . S
H1365 C1351 0.961 . S
H1366 C1351 0.961 . S
H1367 C1351 0.961 . S
H1368 C1352 0.931 . S
H1369 C1357 0.930 . S
H1370 C1358 0.956 . S
H1371 C1358 0.961 1_545 S
H1372 C1358 0.961 . S
H1373 C1359 0.958 . S
H1374 C1359 0.961 . S
H1375 C1359 0.960 1_545 S
C1376 C1377 1.391 . S
C1376 C1378 1.394 1_556 S
C1376 H1392 0.938 . S
C1377 C1376 1.391 . S
C1377 C1381 1.376 . S
C1378 C1376 1.394 1_554 S
C1378 C1379 1.369 . S
C1378 C1382 1.531 . S
C1379 C1378 1.369 . S
C1379 C1380 1.410 1_554 S
C1379 C1387 1.503 . S
C1380 C1379 1.410 1_556 S
C1380 C1381 1.392 . S
C1380 C1383 1.511 . S
C1381 C1377 1.376 . S
C1381 C1380 1.392 . S
C1381 H1393 0.929 . S
C1382 C1378 1.531 . S
C1382 H1394 0.960 . S
C1382 H1395 0.962 . S
C1382 H1396 0.960 . S
C1383 C1380 1.511 . S
C1383 H1397 0.961 . S
C1383 H1398 0.961 . S
C1383 H1399 0.961 . S
C1384 C1385 1.370 . S
C1384 C1386 1.354 1_554 S
C1384 H1400 0.950 . S
C1385 C1384 1.370 . S
C1385 C1389 1.408 . S
C1386 C1384 1.354 1_556 S
C1386 C1387 1.358 1_556 S
C1386 C1390 1.546 . S
C1387 C1379 1.503 . S
C1387 C1386 1.358 1_554 S
C1387 C1388 1.403 . S
C1388 C1387 1.403 . S
C1388 C1389 1.404 . S
C1388 C1391 1.539 . S
C1389 C1385 1.408 . S
C1389 C1388 1.404 . S
C1389 H1401 0.930 . S
C1390 C1386 1.546 . S
C1390 H1402 0.956 . S
C1390 H1403 0.961 . S
C1390 H1404 0.961 . S
C1391 C1388 1.539 . S
C1391 H1405 0.958 . S
C1391 H1406 0.961 . S
C1391 H1407 0.960 . S
H1392 C1376 0.938 . S
H1393 C1381 0.929 . S
H1394 C1382 0.960 . S
H1395 C1382 0.962 . S
H1396 C1382 0.960 . S
H1397 C1383 0.961 . S
H1398 C1383 0.961 . S
H1399 C1383 0.961 . S
H1400 C1384 0.950 . S
H1401 C1389 0.930 . S
H1402 C1390 0.956 . S
H1403 C1390 0.961 . S
H1404 C1390 0.961 . S
H1405 C1391 0.958 . S
H1406 C1391 0.961 . S
H1407 C1391 0.960 . S
C1408 C1409 1.391 . S
C1408 C1410 1.394 . S
C1408 H1424 0.931 . S
C1409 C1408 1.391 . S
C1409 C1413 1.376 1_655 S
C1410 C1408 1.394 . S
C1410 C1411 1.369 . S
C1410 C1414 1.531 . S
C1411 C1410 1.369 . S
C1411 C1412 1.410 1_655 S
C1411 C1419 1.503 1_655 S
C1412 C1411 1.410 1_455 S
C1412 C1413 1.392 . S
C1412 C1415 1.511 . S
C1413 C1409 1.376 1_455 S
C1413 C1412 1.392 . S
C1413 H1425 0.929 . S
C1414 C1410 1.531 . S
C1414 H1426 0.960 . S
C1414 H1427 0.962 . S
C1414 H1428 0.960 . S
C1415 C1412 1.511 . S
C1415 H1429 0.961 . S
C1415 H1430 0.961 . S
C1415 H1431 0.961 . S
C1416 C1417 1.370 . S
C1416 C1418 1.363 . S
C1416 H1432 0.931 . S
C1417 C1416 1.370 . S
C1417 C1421 1.408 . S
C1418 C1416 1.363 . S
C1418 C1419 1.370 . S
C1418 C1422 1.524 . S
C1419 C1411 1.503 1_455 S
C1419 C1418 1.370 . S
C1419 C1420 1.403 . S
C1420 C1419 1.403 . S
C1420 C1421 1.404 . S
C1420 C1423 1.539 . S
C1421 C1417 1.408 . S
C1421 C1420 1.404 . S
C1421 H1433 0.930 . S
C1422 C1418 1.524 . S
C1422 H1434 0.956 1_455 S
C1422 H1435 0.961 . S
C1422 H1436 0.961 . S
C1423 C1420 1.539 . S
C1423 H1437 0.958 1_455 S
C1423 H1438 0.961 . S
C1423 H1439 0.960 . S
H1424 C1408 0.931 . S
H1425 C1413 0.929 . S
H1426 C1414 0.960 . S
H1427 C1414 0.962 . S
H1428 C1414 0.960 . S
H1429 C1415 0.961 . S
H1430 C1415 0.961 . S
H1431 C1415 0.961 . S
H1432 C1416 0.931 . S
H1433 C1421 0.930 . S
H1434 C1422 0.956 1_655 S
H1435 C1422 0.961 . S
H1436 C1422 0.961 . S
H1437 C1423 0.958 1_655 S
H1438 C1423 0.961 . S
H1439 C1423 0.960 . S
C1440 C1441 1.391 . S
C1440 C1442 1.394 . S
C1440 H1456 0.931 . S
C1441 C1440 1.391 . S
C1441 C1445 1.376 . S
C1442 C1440 1.394 . S
C1442 C1443 1.369 . S
C1442 C1446 1.531 . S
C1443 C1442 1.369 . S
C1443 C1444 1.410 . S
C1443 C1451 1.503 . S
C1444 C1443 1.410 . S
C1444 C1445 1.392 . S
C1444 C1447 1.511 . S
C1445 C1441 1.376 . S
C1445 C1444 1.392 . S
C1445 H1457 0.929 . S
C1446 C1442 1.531 . S
C1446 H1458 0.960 . S
C1446 H1459 0.962 . S
C1446 H1460 0.960 . S
C1447 C1444 1.511 . S
C1447 H1461 0.961 . S
C1447 H1462 0.961 . S
C1447 H1463 0.961 . S
C1448 C1449 1.370 . S
C1448 C1450 1.363 . S
C1448 H1464 0.931 . S
C1449 C1448 1.370 . S
C1449 C1453 1.408 . S
C1450 C1448 1.363 . S
C1450 C1451 1.370 . S
C1450 C1454 1.524 . S
C1451 C1443 1.503 . S
C1451 C1450 1.370 . S
C1451 C1452 1.403 . S
C1452 C1451 1.403 . S
C1452 C1453 1.404 . S
C1452 C1455 1.539 . S
C1453 C1449 1.408 . S
C1453 C1452 1.404 . S
C1453 H1465 0.930 . S
C1454 C1450 1.524 . S
C1454 H1466 0.956 . S
C1454 H1467 0.961 . S
C1454 H1468 0.961 . S
C1455 C1452 1.539 . S
C1455 H1469 0.958 . S
C1455 H1470 0.961 . S
C1455 H1471 0.960 . S
H1456 C1440 0.931 . S
H1457 C1445 0.929 . S
H1458 C1446 0.960 . S
H1459 C1446 0.962 . S
H1460 C1446 0.960 . S
H1461 C1447 0.961 . S
H1462 C1447 0.961 . S
H1463 C1447 0.961 . S
H1464 C1448 0.931 . S
H1465 C1453 0.930 . S
H1466 C1454 0.956 . S
H1467 C1454 0.961 . S
H1468 C1454 0.961 . S
H1469 C1455 0.958 . S
H1470 C1455 0.961 . S
H1471 C1455 0.960 . S
C1472 C1473 1.391 . S
C1472 C1474 1.394 . S
C1472 H1488 0.931 . S
C1473 C1472 1.391 . S
C1473 C1477 1.376 . S
C1474 C1472 1.394 . S
C1474 C1475 1.369 . S
C1474 C1478 1.531 . S
C1475 C1474 1.369 . S
C1475 C1476 1.410 . S
C1475 C1483 1.503 . S
C1476 C1475 1.410 . S
C1476 C1477 1.392 . S
C1476 C1479 1.511 . S
C1477 C1473 1.376 . S
C1477 C1476 1.392 . S
C1477 H1489 0.929 . S
C1478 C1474 1.531 . S
C1478 H1490 0.960 . S
C1478 H1491 0.962 . S
C1478 H1492 0.960 . S
C1479 C1476 1.511 . S
C1479 H1493 0.961 . S
C1479 H1494 0.961 . S
C1479 H1495 0.961 . S
C1480 C1481 1.370 . S
C1480 C1482 1.363 . S
C1480 H1496 0.931 . S
C1481 C1480 1.370 . S
C1481 C1485 1.408 . S
C1482 C1480 1.363 . S
C1482 C1483 1.370 . S
C1482 C1486 1.524 . S
C1483 C1475 1.503 . S
C1483 C1482 1.370 . S
C1483 C1484 1.403 . S
C1484 C1483 1.403 . S
C1484 C1485 1.404 . S
C1484 C1487 1.539 . S
C1485 C1481 1.408 . S
C1485 C1484 1.404 . S
C1485 H1497 0.930 . S
C1486 C1482 1.524 . S
C1486 H1498 0.956 . S
C1486 H1499 0.961 . S
C1486 H1500 0.961 . S
C1487 C1484 1.539 . S
C1487 H1501 0.958 . S
C1487 H1502 0.961 . S
C1487 H1503 0.960 . S
H1488 C1472 0.931 . S
H1489 C1477 0.929 . S
H1490 C1478 0.960 . S
H1491 C1478 0.962 . S
H1492 C1478 0.960 . S
H1493 C1479 0.961 . S
H1494 C1479 0.961 . S
H1495 C1479 0.961 . S
H1496 C1480 0.931 . S
H1497 C1485 0.930 . S
H1498 C1486 0.956 . S
H1499 C1486 0.961 . S
H1500 C1486 0.961 . S
H1501 C1487 0.958 . S
H1502 C1487 0.961 . S
H1503 C1487 0.960 . S
C1504 C1505 1.391 . S
C1504 C1506 1.394 . S
C1504 H1520 0.931 . S
C1505 C1504 1.391 . S
C1505 C1509 1.376 . S
C1506 C1504 1.394 . S
C1506 C1507 1.369 . S
C1506 C1510 1.531 . S
C1507 C1506 1.369 . S
C1507 C1508 1.410 . S
C1507 C1515 1.503 . S
C1508 C1507 1.410 . S
C1508 C1509 1.392 . S
C1508 C1511 1.511 . S
C1509 C1505 1.376 . S
C1509 C1508 1.392 . S
C1509 H1521 0.929 . S
C1510 C1506 1.531 . S
C1510 H1522 0.960 . S
C1510 H1523 0.962 . S
C1510 H1524 0.960 . S
C1511 C1508 1.511 . S
C1511 H1525 0.961 . S
C1511 H1526 0.961 . S
C1511 H1527 0.961 . S
C1512 C1513 1.370 . S
C1512 C1514 1.363 . S
C1512 H1528 0.931 . S
C1513 C1512 1.370 . S
C1513 C1517 1.408 . S
C1514 C1512 1.363 . S
C1514 C1515 1.370 . S
C1514 C1518 1.524 . S
C1515 C1507 1.503 . S
C1515 C1514 1.370 . S
C1515 C1516 1.403 . S
C1516 C1515 1.403 . S
C1516 C1517 1.404 . S
C1516 C1519 1.539 . S
C1517 C1513 1.408 . S
C1517 C1516 1.404 . S
C1517 H1529 0.930 . S
C1518 C1514 1.524 . S
C1518 H1530 0.956 . S
C1518 H1531 0.961 . S
C1518 H1532 0.961 . S
C1519 C1516 1.539 . S
C1519 H1533 0.958 . S
C1519 H1534 0.961 . S
C1519 H1535 0.960 . S
H1520 C1504 0.931 . S
H1521 C1509 0.929 . S
H1522 C1510 0.960 . S
H1523 C1510 0.962 . S
H1524 C1510 0.960 . S
H1525 C1511 0.961 . S
H1526 C1511 0.961 . S
H1527 C1511 0.961 . S
H1528 C1512 0.931 . S
H1529 C1517 0.930 . S
H1530 C1518 0.956 . S
H1531 C1518 0.961 . S
H1532 C1518 0.961 . S
H1533 C1519 0.958 . S
H1534 C1519 0.961 . S
H1535 C1519 0.960 . S
C1536 C1537 1.391 . S
C1536 C1538 1.394 . S
C1536 H1552 0.931 . S
C1537 C1536 1.391 . S
C1537 C1541 1.376 . S
C1538 C1536 1.394 . S
C1538 C1539 1.369 . S
C1538 C1542 1.531 . S
C1539 C1538 1.369 . S
C1539 C1540 1.410 . S
C1539 C1547 1.503 . S
C1540 C1539 1.410 . S
C1540 C1541 1.392 . S
C1540 C1543 1.511 . S
C1541 C1537 1.376 . S
C1541 C1540 1.392 . S
C1541 H1553 0.929 . S
C1542 C1538 1.531 . S
C1542 H1554 0.960 . S
C1542 H1555 0.962 . S
C1542 H1556 0.960 . S
C1543 C1540 1.511 . S
C1543 H1557 0.961 . S
C1543 H1558 0.961 . S
C1543 H1559 0.961 . S
C1544 C1545 1.370 . S
C1544 C1546 1.363 . S
C1544 H1560 0.931 . S
C1545 C1544 1.370 . S
C1545 C1549 1.408 . S
C1546 C1544 1.363 . S
C1546 C1547 1.370 . S
C1546 C1550 1.524 . S
C1547 C1539 1.503 . S
C1547 C1546 1.370 . S
C1547 C1548 1.403 . S
C1548 C1547 1.403 . S
C1548 C1549 1.404 . S
C1548 C1551 1.539 . S
C1549 C1545 1.408 . S
C1549 C1548 1.404 . S
C1549 H1561 0.930 . S
C1550 C1546 1.524 . S
C1550 H1562 0.956 . S
C1550 H1563 0.961 . S
C1550 H1564 0.961 . S
C1551 C1548 1.539 . S
C1551 H1565 0.958 . S
C1551 H1566 0.961 . S
C1551 H1567 0.960 . S
H1552 C1536 0.931 . S
H1553 C1541 0.929 . S
H1554 C1542 0.960 . S
H1555 C1542 0.962 . S
H1556 C1542 0.960 . S
H1557 C1543 0.961 . S
H1558 C1543 0.961 . S
H1559 C1543 0.961 . S
H1560 C1544 0.931 . S
H1561 C1549 0.930 . S
H1562 C1550 0.956 . S
H1563 C1550 0.961 . S
H1564 C1550 0.961 . S
H1565 C1551 0.958 . S
H1566 C1551 0.961 . S
H1567 C1551 0.960 . S
C1568 C1569 1.391 . S
C1568 C1570 1.394 . S
C1568 H1584 0.931 . S
C1569 C1568 1.391 . S
C1569 C1573 1.376 . S
C1570 C1568 1.394 . S
C1570 C1571 1.369 . S
C1570 C1574 1.531 . S
C1571 C1570 1.369 . S
C1571 C1572 1.410 . S
C1571 C1579 1.503 . S
C1572 C1571 1.410 . S
C1572 C1573 1.392 . S
C1572 C1575 1.511 . S
C1573 C1569 1.376 . S
C1573 C1572 1.392 . S
C1573 H1585 0.929 . S
C1574 C1570 1.531 . S
C1574 H1586 0.960 . S
C1574 H1587 0.962 . S
C1574 H1588 0.960 . S
C1575 C1572 1.511 . S
C1575 H1589 0.961 . S
C1575 H1590 0.961 . S
C1575 H1591 0.961 . S
C1576 C1577 1.370 . S
C1576 C1578 1.363 . S
C1576 H1592 0.931 . S
C1577 C1576 1.370 . S
C1577 C1581 1.408 . S
C1578 C1576 1.363 . S
C1578 C1579 1.370 . S
C1578 C1582 1.524 . S
C1579 C1571 1.503 . S
C1579 C1578 1.370 . S
C1579 C1580 1.403 . S
C1580 C1579 1.403 . S
C1580 C1581 1.404 . S
C1580 C1583 1.539 . S
C1581 C1577 1.408 . S
C1581 C1580 1.404 . S
C1581 H1593 0.930 . S
C1582 C1578 1.524 . S
C1582 H1594 0.956 . S
C1582 H1595 0.961 . S
C1582 H1596 0.961 . S
C1583 C1580 1.539 . S
C1583 H1597 0.958 . S
C1583 H1598 0.961 . S
C1583 H1599 0.960 . S
H1584 C1568 0.931 . S
H1585 C1573 0.929 . S
H1586 C1574 0.960 . S
H1587 C1574 0.962 . S
H1588 C1574 0.960 . S
H1589 C1575 0.961 . S
H1590 C1575 0.961 . S
H1591 C1575 0.961 . S
H1592 C1576 0.931 . S
H1593 C1581 0.930 . S
H1594 C1582 0.956 . S
H1595 C1582 0.961 . S
H1596 C1582 0.961 . S
H1597 C1583 0.958 . S
H1598 C1583 0.961 . S
H1599 C1583 0.960 . S
C1600 C1601 1.391 . S
C1600 C1602 1.394 . S
C1600 H1616 0.931 . S
C1601 C1600 1.391 . S
C1601 C1605 1.376 . S
C1602 C1600 1.394 . S
C1602 C1603 1.369 . S
C1602 C1606 1.531 . S
C1603 C1602 1.369 . S
C1603 C1604 1.410 . S
C1603 C1611 1.503 . S
C1604 C1603 1.410 . S
C1604 C1605 1.392 . S
C1604 C1607 1.511 . S
C1605 C1601 1.376 . S
C1605 C1604 1.392 . S
C1605 H1617 0.929 . S
C1606 C1602 1.531 . S
C1606 H1618 0.960 . S
C1606 H1619 0.962 . S
C1606 H1620 0.960 . S
C1607 C1604 1.511 . S
C1607 H1621 0.961 . S
C1607 H1622 0.961 . S
C1607 H1623 0.961 . S
C1608 C1609 1.370 . S
C1608 C1610 1.363 . S
C1608 H1624 0.931 . S
C1609 C1608 1.370 . S
C1609 C1613 1.408 . S
C1610 C1608 1.363 . S
C1610 C1611 1.370 . S
C1610 C1614 1.524 . S
C1611 C1603 1.503 . S
C1611 C1610 1.370 . S
C1611 C1612 1.403 . S
C1612 C1611 1.403 . S
C1612 C1613 1.404 . S
C1612 C1615 1.539 . S
C1613 C1609 1.408 . S
C1613 C1612 1.404 . S
C1613 H1625 0.930 . S
C1614 C1610 1.524 . S
C1614 H1626 0.956 . S
C1614 H1627 0.961 . S
C1614 H1628 0.961 . S
C1615 C1612 1.539 . S
C1615 H1629 0.958 . S
C1615 H1630 0.961 . S
C1615 H1631 0.960 . S
H1616 C1600 0.931 . S
H1617 C1605 0.929 . S
H1618 C1606 0.960 . S
H1619 C1606 0.962 . S
H1620 C1606 0.960 . S
H1621 C1607 0.961 . S
H1622 C1607 0.961 . S
H1623 C1607 0.961 . S
H1624 C1608 0.931 . S
H1625 C1613 0.930 . S
H1626 C1614 0.956 . S
H1627 C1614 0.961 . S
H1628 C1614 0.961 . S
H1629 C1615 0.958 . S
H1630 C1615 0.961 . S
H1631 C1615 0.960 . S
C1632 C1633 1.391 . S
C1632 C1634 1.394 . S
C1632 H1648 0.931 . S
C1633 C1632 1.391 . S
C1633 C1637 1.376 . S
C1634 C1632 1.394 . S
C1634 C1635 1.369 . S
C1634 C1638 1.531 . S
C1635 C1634 1.369 . S
C1635 C1636 1.410 . S
C1635 C1643 1.503 . S
C1636 C1635 1.410 . S
C1636 C1637 1.392 . S
C1636 C1639 1.511 . S
C1637 C1633 1.376 . S
C1637 C1636 1.392 . S
C1637 H1649 0.929 . S
C1638 C1634 1.531 . S
C1638 H1650 0.960 . S
C1638 H1651 0.962 . S
C1638 H1652 0.960 . S
C1639 C1636 1.511 . S
C1639 H1653 0.961 . S
C1639 H1654 0.961 . S
C1639 H1655 0.961 . S
C1640 C1641 1.370 . S
C1640 C1642 1.363 . S
C1640 H1656 0.931 . S
C1641 C1640 1.370 . S
C1641 C1645 1.408 . S
C1642 C1640 1.363 . S
C1642 C1643 1.370 . S
C1642 C1646 1.524 . S
C1643 C1635 1.503 . S
C1643 C1642 1.370 . S
C1643 C1644 1.403 . S
C1644 C1643 1.403 . S
C1644 C1645 1.404 . S
C1644 C1647 1.539 . S
C1645 C1641 1.408 . S
C1645 C1644 1.404 . S
C1645 H1657 0.930 . S
C1646 C1642 1.524 . S
C1646 H1658 0.956 . S
C1646 H1659 0.961 . S
C1646 H1660 0.961 . S
C1647 C1644 1.539 . S
C1647 H1661 0.958 . S
C1647 H1662 0.961 . S
C1647 H1663 0.960 . S
H1648 C1632 0.931 . S
H1649 C1637 0.929 . S
H1650 C1638 0.960 . S
H1651 C1638 0.962 . S
H1652 C1638 0.960 . S
H1653 C1639 0.961 . S
H1654 C1639 0.961 . S
H1655 C1639 0.961 . S
H1656 C1640 0.931 . S
H1657 C1645 0.930 . S
H1658 C1646 0.956 . S
H1659 C1646 0.961 . S
H1660 C1646 0.961 . S
H1661 C1647 0.958 . S
H1662 C1647 0.961 . S
H1663 C1647 0.960 . S
C1664 C1665 1.391 . S
C1664 C1666 1.394 . S
C1664 H1680 0.931 . S
C1665 C1664 1.391 . S
C1665 C1669 1.376 . S
C1666 C1664 1.394 . S
C1666 C1667 1.369 . S
C1666 C1670 1.531 . S
C1667 C1666 1.369 . S
C1667 C1668 1.410 . S
C1667 C1675 1.503 . S
C1668 C1667 1.410 . S
C1668 C1669 1.392 . S
C1668 C1671 1.511 . S
C1669 C1665 1.376 . S
C1669 C1668 1.392 . S
C1669 H1681 0.929 . S
C1670 C1666 1.531 . S
C1670 H1682 0.960 . S
C1670 H1683 0.962 . S
C1670 H1684 0.960 . S
C1671 C1668 1.511 . S
C1671 H1685 0.961 . S
C1671 H1686 0.961 . S
C1671 H1687 0.961 . S
C1672 C1673 1.370 . S
C1672 C1674 1.363 . S
C1672 H1688 0.931 . S
C1673 C1672 1.370 . S
C1673 C1677 1.408 . S
C1674 C1672 1.363 . S
C1674 C1675 1.370 . S
C1674 C1678 1.524 . S
C1675 C1667 1.503 . S
C1675 C1674 1.370 . S
C1675 C1676 1.403 . S
C1676 C1675 1.403 . S
C1676 C1677 1.404 . S
C1676 C1679 1.539 . S
C1677 C1673 1.408 . S
C1677 C1676 1.404 . S
C1677 H1689 0.930 . S
C1678 C1674 1.524 . S
C1678 H1690 0.956 . S
C1678 H1691 0.961 . S
C1678 H1692 0.961 . S
C1679 C1676 1.539 . S
C1679 H1693 0.958 . S
C1679 H1694 0.961 . S
C1679 H1695 0.960 . S
H1680 C1664 0.931 . S
H1681 C1669 0.929 . S
H1682 C1670 0.960 . S
H1683 C1670 0.962 . S
H1684 C1670 0.960 . S
H1685 C1671 0.961 . S
H1686 C1671 0.961 . S
H1687 C1671 0.961 . S
H1688 C1672 0.931 . S
H1689 C1677 0.930 . S
H1690 C1678 0.956 . S
H1691 C1678 0.961 . S
H1692 C1678 0.961 . S
H1693 C1679 0.958 . S
H1694 C1679 0.961 . S
H1695 C1679 0.960 . S
C1696 C1697 1.391 . S
C1696 C1698 1.394 . S
C1696 H1712 0.931 . S
C1697 C1696 1.391 . S
C1697 C1701 1.376 . S
C1698 C1696 1.394 . S
C1698 C1699 1.369 . S
C1698 C1702 1.531 . S
C1699 C1698 1.369 . S
C1699 C1700 1.410 . S
C1699 C1707 1.503 . S
C1700 C1699 1.410 . S
C1700 C1701 1.392 . S
C1700 C1703 1.511 . S
C1701 C1697 1.376 . S
C1701 C1700 1.392 . S
C1701 H1713 0.929 . S
C1702 C1698 1.531 . S
C1702 H1714 0.960 . S
C1702 H1715 0.962 . S
C1702 H1716 0.960 . S
C1703 C1700 1.511 . S
C1703 H1717 0.961 . S
C1703 H1718 0.961 . S
C1703 H1719 0.961 . S
C1704 C1705 1.370 . S
C1704 C1706 1.363 . S
C1704 H1720 0.931 . S
C1705 C1704 1.370 . S
C1705 C1709 1.408 . S
C1706 C1704 1.363 . S
C1706 C1707 1.370 . S
C1706 C1710 1.524 . S
C1707 C1699 1.503 . S
C1707 C1706 1.370 . S
C1707 C1708 1.403 . S
C1708 C1707 1.403 . S
C1708 C1709 1.404 . S
C1708 C1711 1.539 . S
C1709 C1705 1.408 . S
C1709 C1708 1.404 . S
C1709 H1721 0.930 . S
C1710 C1706 1.524 . S
C1710 H1722 0.956 . S
C1710 H1723 0.961 . S
C1710 H1724 0.961 . S
C1711 C1708 1.539 . S
C1711 H1725 0.958 . S
C1711 H1726 0.961 . S
C1711 H1727 0.960 . S
H1712 C1696 0.931 . S
H1713 C1701 0.929 . S
H1714 C1702 0.960 . S
H1715 C1702 0.962 . S
H1716 C1702 0.960 . S
H1717 C1703 0.961 . S
H1718 C1703 0.961 . S
H1719 C1703 0.961 . S
H1720 C1704 0.931 . S
H1721 C1709 0.930 . S
H1722 C1710 0.956 . S
H1723 C1710 0.961 . S
H1724 C1710 0.961 . S
H1725 C1711 0.958 . S
H1726 C1711 0.961 . S
H1727 C1711 0.960 . S
C1728 C1729 1.391 . S
C1728 C1730 1.394 . S
C1728 H1744 0.931 . S
C1729 C1728 1.391 . S
C1729 C1733 1.376 . S
C1730 C1728 1.394 . S
C1730 C1731 1.369 . S
C1730 C1734 1.531 . S
C1731 C1730 1.369 . S
C1731 C1732 1.410 . S
C1731 C1739 1.503 . S
C1732 C1731 1.410 . S
C1732 C1733 1.392 . S
C1732 C1735 1.511 . S
C1733 C1729 1.376 . S
C1733 C1732 1.392 . S
C1733 H1745 0.929 . S
C1734 C1730 1.531 . S
C1734 H1746 0.960 . S
C1734 H1747 0.962 . S
C1734 H1748 0.960 . S
C1735 C1732 1.511 . S
C1735 H1749 0.961 . S
C1735 H1750 0.961 . S
C1735 H1751 0.961 . S
C1736 C1737 1.370 . S
C1736 C1738 1.363 . S
C1736 H1752 0.931 . S
C1737 C1736 1.370 . S
C1737 C1741 1.408 . S
C1738 C1736 1.363 . S
C1738 C1739 1.370 . S
C1738 C1742 1.524 . S
C1739 C1731 1.503 . S
C1739 C1738 1.370 . S
C1739 C1740 1.403 . S
C1740 C1739 1.403 . S
C1740 C1741 1.404 . S
C1740 C1743 1.539 . S
C1741 C1737 1.408 . S
C1741 C1740 1.404 . S
C1741 H1753 0.930 . S
C1742 C1738 1.524 . S
C1742 H1754 0.956 . S
C1742 H1755 0.961 . S
C1742 H1756 0.961 . S
C1743 C1740 1.539 . S
C1743 H1757 0.958 . S
C1743 H1758 0.961 . S
C1743 H1759 0.960 . S
H1744 C1728 0.931 . S
H1745 C1733 0.929 . S
H1746 C1734 0.960 . S
H1747 C1734 0.962 . S
H1748 C1734 0.960 . S
H1749 C1735 0.961 . S
H1750 C1735 0.961 . S
H1751 C1735 0.961 . S
H1752 C1736 0.931 . S
H1753 C1741 0.930 . S
H1754 C1742 0.956 . S
H1755 C1742 0.961 . S
H1756 C1742 0.961 . S
H1757 C1743 0.958 . S
H1758 C1743 0.961 . S
H1759 C1743 0.960 . S
C1760 C1761 1.391 . S
C1760 C1762 1.394 . S
C1760 H1776 0.931 . S
C1761 C1760 1.391 . S
C1761 C1765 1.376 . S
C1762 C1760 1.394 . S
C1762 C1763 1.369 . S
C1762 C1766 1.531 . S
C1763 C1762 1.369 . S
C1763 C1764 1.410 . S
C1763 C1771 1.503 . S
C1764 C1763 1.410 . S
C1764 C1765 1.392 . S
C1764 C1767 1.511 . S
C1765 C1761 1.376 . S
C1765 C1764 1.392 . S
C1765 H1777 0.929 . S
C1766 C1762 1.531 . S
C1766 H1778 0.960 . S
C1766 H1779 0.962 . S
C1766 H1780 0.960 . S
C1767 C1764 1.511 . S
C1767 H1781 0.961 . S
C1767 H1782 0.961 . S
C1767 H1783 0.961 . S
C1768 C1769 1.370 . S
C1768 C1770 1.363 . S
C1768 H1784 0.931 . S
C1769 C1768 1.370 . S
C1769 C1773 1.408 . S
C1770 C1768 1.363 . S
C1770 C1771 1.370 . S
C1770 C1774 1.524 . S
C1771 C1763 1.503 . S
C1771 C1770 1.370 . S
C1771 C1772 1.403 . S
C1772 C1771 1.403 . S
C1772 C1773 1.404 . S
C1772 C1775 1.539 . S
C1773 C1769 1.408 . S
C1773 C1772 1.404 . S
C1773 H1785 0.930 . S
C1774 C1770 1.524 . S
C1774 H1786 0.956 . S
C1774 H1787 0.961 . S
C1774 H1788 0.961 . S
C1775 C1772 1.539 . S
C1775 H1789 0.958 . S
C1775 H1790 0.961 . S
C1775 H1791 0.960 . S
H1776 C1760 0.931 . S
H1777 C1765 0.929 . S
H1778 C1766 0.960 . S
H1779 C1766 0.962 . S
H1780 C1766 0.960 . S
H1781 C1767 0.961 . S
H1782 C1767 0.961 . S
H1783 C1767 0.961 . S
H1784 C1768 0.931 . S
H1785 C1773 0.930 . S
H1786 C1774 0.956 . S
H1787 C1774 0.961 . S
H1788 C1774 0.961 . S
H1789 C1775 0.958 . S
H1790 C1775 0.961 . S
H1791 C1775 0.960 . S
C1792 C1793 1.391 . S
C1792 C1794 1.394 . S
C1792 H1808 0.931 . S
C1793 C1792 1.391 . S
C1793 C1797 1.376 . S
C1794 C1792 1.394 . S
C1794 C1795 1.369 . S
C1794 C1798 1.531 . S
C1795 C1794 1.369 . S
C1795 C1796 1.410 . S
C1795 C1803 1.503 . S
C1796 C1795 1.410 . S
C1796 C1797 1.392 . S
C1796 C1799 1.511 . S
C1797 C1793 1.376 . S
C1797 C1796 1.392 . S
C1797 H1809 0.929 . S
C1798 C1794 1.531 . S
C1798 H1810 0.960 . S
C1798 H1811 0.962 . S
C1798 H1812 0.960 . S
C1799 C1796 1.511 . S
C1799 H1813 0.961 . S
C1799 H1814 0.961 . S
C1799 H1815 0.961 . S
C1800 C1801 1.370 . S
C1800 C1802 1.363 . S
C1800 H1816 0.931 . S
C1801 C1800 1.370 . S
C1801 C1805 1.408 . S
C1802 C1800 1.363 . S
C1802 C1803 1.370 . S
C1802 C1806 1.524 . S
C1803 C1795 1.503 . S
C1803 C1802 1.370 . S
C1803 C1804 1.403 . S
C1804 C1803 1.403 . S
C1804 C1805 1.404 . S
C1804 C1807 1.539 . S
C1805 C1801 1.408 . S
C1805 C1804 1.404 . S
C1805 H1817 0.930 . S
C1806 C1802 1.524 . S
C1806 H1818 0.956 . S
C1806 H1819 0.961 . S
C1806 H1820 0.961 . S
C1807 C1804 1.539 . S
C1807 H1821 0.958 . S
C1807 H1822 0.961 . S
C1807 H1823 0.960 . S
H1808 C1792 0.931 . S
H1809 C1797 0.929 . S
H1810 C1798 0.960 . S
H1811 C1798 0.962 . S
H1812 C1798 0.960 . S
H1813 C1799 0.961 . S
H1814 C1799 0.961 . S
H1815 C1799 0.961 . S
H1816 C1800 0.931 . S
H1817 C1805 0.930 . S
H1818 C1806 0.956 . S
H1819 C1806 0.961 . S
H1820 C1806 0.961 . S
H1821 C1807 0.958 . S
H1822 C1807 0.961 . S
H1823 C1807 0.960 . S
C1057 C929 1.586 . S
C1065 C57 1.598 . S
C1089 C117 1.485 . S
C1097 C1017 1.502 . S
C1121 C205 1.574 . S
C1129 C577 1.567 . S
C1153 C636 1.607 . S
C1161 C293 1.607 . S
C1185 C761 1.503 . S
C1193 C372 1.504 . S
C1217 C460 1.572 . S
C1225 C849 1.567 . S
C1249 C49 0.524 . S
C1257 C645 0.572 . S
C1281 C137 1.335 . S
C1289 C724 1.271 . S
C1313 C812 1.197 . S
C1321 C225 1.245 . S
C1345 C937 0.595 . S
C1353 C284 0.547 . S
C1377 C997 1.278 . S
C1385 C409 1.308 . S
C1409 C557 1.264 . S
C1417 C497 1.210 . S
C1441 C20 1.067 . S
C1449 C381 0.997 . S
C1473 C145 0.786 . S
C1481 C469 0.794 . S
C1505 C233 0.842 . S
C1513 C29 0.926 . S
C1537 C313 1.064 . S
C1545 C108 0.976 . S
C1569 C401 0.766 . S
C1577 C196 0.788 . S
C1601 C489 0.901 . S
C1609 C321 0.935 . S
C1633 C548 0.832 . S
C1641 C753 0.813 . S
C1665 C673 0.926 . S
C1673 C841 0.900 . S
C1697 C900 1.043 . S
C1705 C733 0.945 . S
C1729 C821 0.826 . S
C1737 C1025 0.810 . S
C1761 C909 0.990 . S
C1769 C585 0.951 . S
C1793 C988 1.037 . S
C1801 C665 1.058 . S
