# Generated by pormake.
# Topology ukk, (4)-cn, num edge types: 1
# Building blocks:
#     Node 0, Type 0, BuildingBlock: ICAMEG_clean_sbu_1, # of connection points: 4
#     Node 1, Type 0, BuildingBlock: ICAMEG_clean_sbu_1, # of connection points: 4
#     Node 2, Type 0, BuildingBlock: ICAMEG_clean_sbu_1, # of connection points: 4
#     Node 3, Type 0, BuildingBlock: ICAMEG_clean_sbu_1, # of connection points: 4
#     Node 4, Type 0, BuildingBlock: ICAMEG_clean_sbu_1, # of connection points: 4
#     Node 5, Type 0, BuildingBlock: ICAMEG_clean_sbu_1, # of connection points: 4
#     Node 6, Type 0, BuildingBlock: ICAMEG_clean_sbu_1, # of connection points: 4
#     Node 7, Type 0, BuildingBlock: ICAMEG_clean_sbu_1, # of connection points: 4
#     Node 8, Type 0, BuildingBlock: ICAMEG_clean_sbu_1, # of connection points: 4
#     Node 9, Type 0, BuildingBlock: ICAMEG_clean_sbu_1, # of connection points: 4
#     Node 10, Type 0, BuildingBlock: ICAMEG_clean_sbu_1, # of connection points: 4
#     Node 11, Type 0, BuildingBlock: ICAMEG_clean_sbu_1, # of connection points: 4
#     Node 12, Type 0, BuildingBlock: ICAMEG_clean_sbu_1, # of connection points: 4
#     Node 13, Type 0, BuildingBlock: ICAMEG_clean_sbu_1, # of connection points: 4
#     Node 14, Type 0, BuildingBlock: ICAMEG_clean_sbu_1, # of connection points: 4
#     Node 15, Type 0, BuildingBlock: ICAMEG_clean_sbu_1, # of connection points: 4
#     Edge 16, Type (0, 0), BuildingBlock: XUDNAN_clean_linker_2, # of connection points: 2
#     Edge 17, Type (0, 0), BuildingBlock: XUDNAN_clean_linker_2, # of connection points: 2
#     Edge 18, Type (0, 0), BuildingBlock: XUDNAN_clean_linker_2, # of connection points: 2
#     Edge 19, Type (0, 0), BuildingBlock: XUDNAN_clean_linker_2, # of connection points: 2
#     Edge 20, Type (0, 0), BuildingBlock: XUDNAN_clean_linker_2, # of connection points: 2
#     Edge 21, Type (0, 0), BuildingBlock: XUDNAN_clean_linker_2, # of connection points: 2
#     Edge 22, Type (0, 0), BuildingBlock: XUDNAN_clean_linker_2, # of connection points: 2
#     Edge 23, Type (0, 0), BuildingBlock: XUDNAN_clean_linker_2, # of connection points: 2
#     Edge 24, Type (0, 0), BuildingBlock: XUDNAN_clean_linker_2, # of connection points: 2
#     Edge 25, Type (0, 0), BuildingBlock: XUDNAN_clean_linker_2, # of connection points: 2
#     Edge 26, Type (0, 0), BuildingBlock: XUDNAN_clean_linker_2, # of connection points: 2
#     Edge 27, Type (0, 0), BuildingBlock: XUDNAN_clean_linker_2, # of connection points: 2
#     Edge 28, Type (0, 0), BuildingBlock: XUDNAN_clean_linker_2, # of connection points: 2
#     Edge 29, Type (0, 0), BuildingBlock: XUDNAN_clean_linker_2, # of connection points: 2
#     Edge 30, Type (0, 0), BuildingBlock: XUDNAN_clean_linker_2, # of connection points: 2
#     Edge 31, Type (0, 0), BuildingBlock: XUDNAN_clean_linker_2, # of connection points: 2
#     Edge 32, Type (0, 0), BuildingBlock: XUDNAN_clean_linker_2, # of connection points: 2
#     Edge 33, Type (0, 0), BuildingBlock: XUDNAN_clean_linker_2, # of connection points: 2
#     Edge 34, Type (0, 0), BuildingBlock: XUDNAN_clean_linker_2, # of connection points: 2
#     Edge 35, Type (0, 0), BuildingBlock: XUDNAN_clean_linker_2, # of connection points: 2
#     Edge 36, Type (0, 0), BuildingBlock: XUDNAN_clean_linker_2, # of connection points: 2
#     Edge 37, Type (0, 0), BuildingBlock: XUDNAN_clean_linker_2, # of connection points: 2
#     Edge 38, Type (0, 0), BuildingBlock: XUDNAN_clean_linker_2, # of connection points: 2
#     Edge 39, Type (0, 0), BuildingBlock: XUDNAN_clean_linker_2, # of connection points: 2
#     Edge 40, Type (0, 0), BuildingBlock: XUDNAN_clean_linker_2, # of connection points: 2
#     Edge 41, Type (0, 0), BuildingBlock: XUDNAN_clean_linker_2, # of connection points: 2
#     Edge 42, Type (0, 0), BuildingBlock: XUDNAN_clean_linker_2, # of connection points: 2
#     Edge 43, Type (0, 0), BuildingBlock: XUDNAN_clean_linker_2, # of connection points: 2
#     Edge 44, Type (0, 0), BuildingBlock: XUDNAN_clean_linker_2, # of connection points: 2
#     Edge 45, Type (0, 0), BuildingBlock: XUDNAN_clean_linker_2, # of connection points: 2
#     Edge 46, Type (0, 0), BuildingBlock: XUDNAN_clean_linker_2, # of connection points: 2
#     Edge 47, Type (0, 0), BuildingBlock: XUDNAN_clean_linker_2, # of connection points: 2
# Relax obj value: 0.062
# Max RMSD: 0.229
# Mean RMSD: 0.224
data_MOF--net-ukk--node1-ICAMEG_clean_sbu_1--edge1-XUDNAN_clean_linker_2
_symmetry_space_group_name_H-M    P1
_symmetry_Int_Tables_number       1
_symmetry_cell_setting            triclinic
loop_
_symmetry_equiv_pos_as_xyz
'x, y, z'
_cell_length_a     59.062375
_cell_length_b     58.061063
_cell_length_c     16.390727
_cell_angle_alpha  90.023703
_cell_angle_beta   90.006146
_cell_angle_gamma 90.016364
loop_
_atom_site_label
_atom_site_type_symbol
_atom_site_fract_x
_atom_site_fract_y
_atom_site_fract_z
_atom_type_partial_charge
Co0 Co 0.36656 0.1201 0.21368 0.0
Co1 Co 0.37553 0.13244 0.01055 0.0
O2 O 0.36114 0.11508 0.09791 0.0
C3 C 0.37975 0.07267 0.26295 0.0
O4 O 0.39771 0.08142 0.29867 0.0
C5 C 0.32656 0.13703 0.98055 0.0
O6 O 0.32436 0.14201 0.05824 0.0
O7 O 0.36789 0.16218 0.06402 0.0
O8 O 0.36771 0.15432 0.19842 0.0
H9 H 0.4253 0.19419 0.89236 0.0
H10 H 0.3275 0.0915 0.16099 0.0
O11 O 0.36548 0.08582 0.22769 0.0
H12 H 0.29431 0.15594 0.31621 0.0
H13 H 0.35396 0.10499 0.513 0.0
H14 H 0.39762 0.14942 0.31054 0.0
H15 H 0.33569 0.15277 0.29967 0.0
H16 H 0.34703 0.09982 0.36559 0.0
O17 O 0.34607 0.13311 0.95052 0.0
H18 H 0.40778 0.17154 0.00292 0.0
H19 H 0.37273 0.13064 0.82903 0.0
H20 H 0.40516 0.15509 0.45722 0.0
H21 H 0.28605 0.09394 0.17655 0.0
H22 H 0.38321 0.1328 0.5596 0.0
H23 H 0.26918 0.12639 0.25438 0.0
O24 O 0.39986 0.1186 0.19638 0.0
H25 H 0.35943 0.05248 0.90832 0.0
H26 H 0.41758 0.11289 0.9373 0.0
H27 H 0.42769 0.0759 0.87293 0.0
H28 H 0.39847 0.0454 0.85787 0.0
H29 H 0.35011 0.08967 0.97286 0.0
H30 H 0.38981 0.15289 0.71654 0.0
H31 H 0.41634 0.18489 0.74795 0.0
O32 O 0.40514 0.13201 0.06912 0.0
C33 C 0.36713 0.16844 0.13859 0.0
C34 C 0.41383 0.18023 0.87788 0.0
C35 C 0.39388 0.15708 0.77921 0.0
N36 N 0.38941 0.14967 0.9224 0.0
C37 C 0.40391 0.16731 0.94022 0.0
C38 C 0.38424 0.14456 0.84314 0.0
C39 C 0.40878 0.17502 0.79688 0.0
C40 C 0.32033 0.10551 0.1959 0.0
N41 N 0.33404 0.12188 0.22985 0.0
C42 C 0.29682 0.10686 0.20412 0.0
C43 C 0.28737 0.1251 0.24763 0.0
C44 C 0.30146 0.1417 0.28226 0.0
C45 C 0.32488 0.13983 0.27256 0.0
C46 C 0.3636 0.11484 0.469 0.0
C47 C 0.38797 0.1397 0.35474 0.0
C48 C 0.35973 0.112 0.38552 0.0
N49 N 0.37183 0.1244 0.32962 0.0
C50 C 0.39232 0.14297 0.4377 0.0
C51 C 0.38002 0.13044 0.4951 0.0
C52 C 0.4126 0.12542 0.13836 0.0
C53 C 0.37229 0.06565 0.91434 0.0
C54 C 0.4048 0.09967 0.9313 0.0
C55 C 0.41061 0.07878 0.8946 0.0
C56 C 0.39421 0.06168 0.88613 0.0
N57 N 0.38325 0.10348 0.95846 0.0
C58 C 0.3671 0.08677 0.95063 0.0
Co59 Co 0.12076 0.64463 0.76749 0.0
Co60 Co 0.09395 0.62599 0.94312 0.0
O61 O 0.11611 0.64459 0.88523 0.0
C62 C 0.16374 0.63059 0.84122 0.0
O63 O 0.15142 0.6169 0.88674 0.0
C64 C 0.08285 0.67428 0.98058 0.0
O65 O 0.0843 0.67793 0.90177 0.0
O66 O 0.0702 0.63357 0.86213 0.0
O67 O 0.08724 0.64557 0.74697 0.0
H68 H 0.0311 0.5681 0.96788 0.0
H69 H 0.14437 0.67882 0.87192 0.0
O70 O 0.15442 0.64316 0.78697 0.0
H71 H 0.098 0.72454 0.68133 0.0
H72 H 0.16143 0.66802 0.51082 0.0
H73 H 0.09884 0.62203 0.62534 0.0
H74 H 0.09852 0.68211 0.67263 0.0
H75 H 0.15422 0.66772 0.65912 0.0
O76 O 0.08546 0.65397 0.00883 0.0
H77 H 0.06013 0.59073 0.89528 0.0
H78 H 0.07959 0.623 0.11706 0.0
H79 H 0.10532 0.62197 0.47669 0.0
H80 H 0.14433 0.7212 0.88281 0.0
H81 H 0.13682 0.64509 0.41852 0.0
H82 H 0.12096 0.74434 0.78723 0.0
O83 O 0.11954 0.61048 0.76295 0.0
H84 H 0.15701 0.64368 0.13945 0.0
H85 H 0.11019 0.58226 0.018 0.0
H86 H 0.13978 0.5721 0.11787 0.0
H87 H 0.16335 0.60296 0.17965 0.0
H88 H 0.12756 0.65303 0.03805 0.0
H89 H 0.05071 0.60075 0.19213 0.0
H90 H 0.02626 0.57304 0.11742 0.0
O91 O 0.10222 0.59802 0.87732 0.0
C92 C 0.06959 0.64041 0.78824 0.0
C93 C 0.04172 0.58004 0.00119 0.0
C94 C 0.05271 0.5984 0.12702 0.0
N95 N 0.07168 0.60798 0.00207 0.0
C96 C 0.05824 0.59284 0.96045 0.0
C97 C 0.06901 0.61096 0.08421 0.0
C98 C 0.039 0.58284 0.08507 0.0
C99 C 0.13437 0.68879 0.82949 0.0
N100 N 0.12159 0.67802 0.77134 0.0
C101 C 0.13433 0.71277 0.83618 0.0
C102 C 0.12118 0.72575 0.78263 0.0
C103 C 0.10828 0.71464 0.72323 0.0
C104 C 0.10865 0.69062 0.71858 0.0
C105 C 0.14764 0.6579 0.53542 0.0
C106 C 0.11251 0.63222 0.60046 0.0
C107 C 0.14352 0.65761 0.61934 0.0
N108 N 0.12607 0.64494 0.65076 0.0
C109 C 0.11613 0.63208 0.51625 0.0
C110 C 0.13382 0.64503 0.48366 0.0
C111 C 0.11168 0.59448 0.80825 0.0
C112 C 0.14679 0.6301 0.11319 0.0
C113 C 0.1205 0.59576 0.04412 0.0
C114 C 0.13717 0.58991 0.10088 0.0
C115 C 0.15037 0.60724 0.13559 0.0
N116 N 0.11708 0.61822 0.02252 0.0
C117 C 0.13003 0.63529 0.05597 0.0
Co118 Co 0.63156 0.88011 0.23004 0.0
Co119 Co 0.63353 0.88485 0.02028 0.0
O120 O 0.64318 0.89319 0.12956 0.0
C121 C 0.61548 0.9249 0.29887 0.0
O122 O 0.59544 0.91597 0.31314 0.0
C123 C 0.68216 0.87572 0.02862 0.0
O124 O 0.67749 0.86545 0.09782 0.0
O125 O 0.6356 0.85172 0.04726 0.0
O126 O 0.63204 0.84797 0.18365 0.0
H127 H 0.58843 0.84123 0.81103 0.0
H128 H 0.67252 0.90999 0.23494 0.0
O129 O 0.63157 0.91238 0.27239 0.0
H130 H 0.69631 0.83576 0.35316 0.0
H131 H 0.62542 0.87522 0.53594 0.0
H132 H 0.59676 0.84547 0.2736 0.0
H133 H 0.65708 0.84137 0.3056 0.0
H134 H 0.64081 0.88968 0.40554 0.0
O135 O 0.66628 0.88449 0.98589 0.0
H136 H 0.59995 0.85236 0.95032 0.0
H137 H 0.64837 0.89911 0.85421 0.0
H138 H 0.58089 0.83051 0.40237 0.0
H139 H 0.71175 0.90527 0.28336 0.0
H140 H 0.59526 0.8454 0.53475 0.0
H141 H 0.72391 0.86791 0.34261 0.0
O142 O 0.60003 0.88396 0.19128 0.0
H143 H 0.66065 0.96688 0.01831 0.0
H144 H 0.59868 0.91433 0.94041 0.0
H145 H 0.59518 0.95587 0.91126 0.0
H146 H 0.62633 0.98244 0.95031 0.0
H147 H 0.66343 0.92523 0.04632 0.0
H148 H 0.63752 0.88835 0.7138 0.0
H149 H 0.60728 0.85929 0.6916 0.0
O150 O 0.60086 0.88476 0.05415 0.0
C151 C 0.63432 0.83952 0.11186 0.0
C152 C 0.60156 0.85399 0.81992 0.0
C153 C 0.62914 0.88041 0.76535 0.0
N154 N 0.62463 0.87653 0.91027 0.0
C155 C 0.6081 0.86041 0.89863 0.0
C156 C 0.63524 0.88641 0.84494 0.0
C157 C 0.61216 0.86411 0.75293 0.0
C158 C 0.67756 0.89378 0.26169 0.0
N159 N 0.66244 0.87605 0.26807 0.0
C160 C 0.69984 0.89118 0.28868 0.0
C161 C 0.70667 0.87019 0.32173 0.0
C162 C 0.6912 0.85214 0.32758 0.0
C163 C 0.66903 0.85539 0.30027 0.0
C164 C 0.61908 0.86855 0.47865 0.0
C165 C 0.60319 0.85191 0.331 0.0
C166 C 0.62773 0.87666 0.40472 0.0
N167 N 0.61982 0.86826 0.33222 0.0
C168 C 0.5941 0.84343 0.4037 0.0
C169 C 0.60215 0.85182 0.47794 0.0
C170 C 0.59022 0.88464 0.12207 0.0
C171 C 0.64701 0.95546 0.00068 0.0
C172 C 0.61231 0.92579 0.95744 0.0
C173 C 0.61024 0.94928 0.94074 0.0
C174 C 0.62773 0.96418 0.96265 0.0
N175 N 0.63132 0.91736 0.99445 0.0
C176 C 0.64852 0.93185 0.01616 0.0
Co177 Co 0.87314 0.36168 0.78488 0.0
Co178 Co 0.8979 0.36994 0.97453 0.0
O179 O 0.8762 0.35486 0.90155 0.0
C180 C 0.82763 0.37098 0.85233 0.0
O181 O 0.83749 0.38023 0.91618 0.0
C182 C 0.90855 0.32008 0.9928 0.0
O183 O 0.9057 0.31726 0.91399 0.0
O184 O 0.923 0.36581 0.89433 0.0
O185 O 0.90654 0.36144 0.77172 0.0
H186 H 0.96052 0.42516 0.04366 0.0
H187 H 0.84795 0.32251 0.85701 0.0
O188 O 0.83943 0.36227 0.7951 0.0
H189 H 0.89701 0.28815 0.64617 0.0
H190 H 0.83795 0.35337 0.50652 0.0
H191 H 0.89687 0.39248 0.66866 0.0
H192 H 0.89704 0.33011 0.66968 0.0
H193 H 0.84236 0.34496 0.6532 0.0
O194 O 0.90582 0.33977 0.02539 0.0
H195 H 0.93252 0.40639 0.95387 0.0
H196 H 0.90967 0.36497 0.15092 0.0
H197 H 0.89315 0.40131 0.52208 0.0
H198 H 0.84728 0.28046 0.83522 0.0
H199 H 0.86352 0.38167 0.43996 0.0
H200 H 0.87199 0.26302 0.72924 0.0
O201 O 0.87379 0.39561 0.8047 0.0
H202 H 0.83049 0.34386 0.13704 0.0
H203 H 0.88161 0.40888 0.07811 0.0
H204 H 0.84997 0.41432 0.17443 0.0
H205 H 0.82415 0.38163 0.20447 0.0
H206 H 0.8622 0.3393 0.04041 0.0
H207 H 0.9375 0.3832 0.24273 0.0
H208 H 0.96313 0.41358 0.18923 0.0
O209 O 0.89044 0.40051 0.92682 0.0
C210 C 0.92396 0.36306 0.81715 0.0
C211 C 0.94939 0.41201 0.06776 0.0
C212 C 0.9365 0.38843 0.17946 0.0
N213 N 0.91937 0.38473 0.04724 0.0
C214 C 0.93346 0.40137 0.01728 0.0
C215 C 0.92081 0.37813 0.12713 0.0
C216 C 0.95087 0.40548 0.14941 0.0
C217 C 0.85861 0.31506 0.81035 0.0
N218 N 0.87246 0.32876 0.7645 0.0
C219 C 0.85822 0.29123 0.79848 0.0
C220 C 0.87211 0.28146 0.7391 0.0
C221 C 0.88617 0.29555 0.69251 0.0
C222 C 0.88615 0.31929 0.70623 0.0
C223 C 0.85095 0.36201 0.54161 0.0
C224 C 0.88402 0.38378 0.63324 0.0
C225 C 0.8535 0.35734 0.62471 0.0
N226 N 0.86996 0.3681 0.6693 0.0
C227 C 0.88195 0.38888 0.55031 0.0
C228 C 0.86531 0.37788 0.5043 0.0
C229 C 0.88124 0.40833 0.8622 0.0
C230 C 0.84161 0.35824 0.1244 0.0
C231 C 0.87031 0.39468 0.09023 0.0
C232 C 0.8525 0.3978 0.1452 0.0
C233 C 0.83804 0.37944 0.16213 0.0
N234 N 0.87364 0.37387 0.05317 0.0
C235 C 0.85963 0.35575 0.06991 0.0
Co236 Co 0.36927 0.37913 0.04522 0.0
Co237 Co 0.36944 0.38319 0.25534 0.0
O238 O 0.35808 0.39115 0.14783 0.0
C239 C 0.38295 0.42439 0.97364 0.0
O240 O 0.40284 0.41569 0.95537 0.0
C241 C 0.32214 0.36874 0.24957 0.0
O242 O 0.3279 0.35914 0.18026 0.0
O243 O 0.37073 0.35007 0.22645 0.0
O244 O 0.37083 0.34673 0.08948 0.0
H245 H 0.42047 0.34382 0.45721 0.0
H246 H 0.32703 0.40699 0.04821 0.0
O247 O 0.36757 0.41168 0.00452 0.0
H248 H 0.30531 0.33228 0.92827 0.0
H249 H 0.37256 0.37545 0.73842 0.0
H250 H 0.40533 0.34655 0.99554 0.0
H251 H 0.34479 0.33962 0.96992 0.0
H252 H 0.35777 0.38871 0.87136 0.0
O253 O 0.33706 0.37917 0.29225 0.0
H254 H 0.40683 0.35429 0.31984 0.0
H255 H 0.35436 0.39481 0.4236 0.0
H256 H 0.42061 0.33281 0.86418 0.0
H257 H 0.28745 0.40048 0.0064 0.0
H258 H 0.40419 0.34728 0.73444 0.0
H259 H 0.27635 0.36288 0.9461 0.0
O260 O 0.40081 0.3843 0.08089 0.0
H261 H 0.33396 0.46177 0.26865 0.0
H262 H 0.40182 0.41578 0.33333 0.0
H263 H 0.40126 0.45725 0.36637 0.0
H264 H 0.36713 0.48051 0.33406 0.0
H265 H 0.33527 0.42028 0.23644 0.0
H266 H 0.3673 0.38461 0.56219 0.0
H267 H 0.40065 0.35903 0.57955 0.0
O268 O 0.40169 0.38665 0.21794 0.0
C269 C 0.37142 0.33803 0.16132 0.0
C270 C 0.40598 0.35506 0.45042 0.0
C271 C 0.37612 0.37793 0.50934 0.0
N272 N 0.37998 0.37533 0.36382 0.0
C273 C 0.39824 0.36111 0.37281 0.0
C274 C 0.36885 0.38361 0.43077 0.0
C275 C 0.39483 0.36358 0.51905 0.0
C276 C 0.32241 0.39068 0.02111 0.0
N277 N 0.33827 0.37379 0.01078 0.0
C278 C 0.29994 0.38706 0.99787 0.0
C279 C 0.29372 0.36595 0.96418 0.0
C280 C 0.30995 0.34876 0.95424 0.0
C281 C 0.33227 0.35299 0.97812 0.0
C282 C 0.37981 0.36897 0.79456 0.0
C283 C 0.39801 0.35281 0.93931 0.0
C284 C 0.3715 0.3764 0.86991 0.0
N285 N 0.38057 0.36826 0.94098 0.0
C286 C 0.40677 0.34502 0.86513 0.0
C287 C 0.39756 0.35317 0.79235 0.0
C288 C 0.41141 0.38644 0.1482 0.0
C289 C 0.34889 0.4518 0.28329 0.0
C290 C 0.38692 0.42581 0.31908 0.0
C291 C 0.38669 0.44927 0.33801 0.0
C292 C 0.36753 0.46231 0.31989 0.0
N293 N 0.36854 0.41561 0.28353 0.0
C294 C 0.34971 0.42829 0.26543 0.0
Co295 Co 0.3754 0.64187 0.94322 0.0
Co296 Co 0.40166 0.6257 0.76355 0.0
O297 O 0.37949 0.64383 0.82511 0.0
C298 C 0.32945 0.63391 0.87604 0.0
O299 O 0.33862 0.62185 0.81693 0.0
C300 C 0.41192 0.67419 0.72306 0.0
O301 O 0.41053 0.67862 0.80143 0.0
O302 O 0.4263 0.63374 0.84127 0.0
O303 O 0.40876 0.64017 0.96052 0.0
H304 H 0.46482 0.5686 0.72903 0.0
H305 H 0.3538 0.67984 0.85096 0.0
O306 O 0.34179 0.64346 0.93001 0.0
H307 H 0.40377 0.71791 0.05085 0.0
H308 H 0.33952 0.66292 0.21183 0.0
H309 H 0.39591 0.6137 0.0746 0.0
H310 H 0.40077 0.67556 0.04651 0.0
H311 H 0.3453 0.66555 0.06306 0.0
O312 O 0.40919 0.65368 0.69705 0.0
H313 H 0.43654 0.59103 0.80613 0.0
H314 H 0.4141 0.62297 0.58752 0.0
H315 H 0.39082 0.61066 0.22362 0.0
H316 H 0.35625 0.72227 0.85325 0.0
H317 H 0.36245 0.63539 0.29318 0.0
H318 H 0.38141 0.74157 0.95371 0.0
O319 O 0.37355 0.6077 0.93744 0.0
H320 H 0.33576 0.64266 0.57907 0.0
H321 H 0.38522 0.58178 0.68972 0.0
H322 H 0.35435 0.57133 0.59539 0.0
H323 H 0.32939 0.60189 0.53929 0.0
H324 H 0.36669 0.65233 0.67425 0.0
H325 H 0.44226 0.601 0.50805 0.0
H326 H 0.46781 0.57352 0.57886 0.0
O327 O 0.39446 0.59739 0.82871 0.0
C328 C 0.4266 0.63785 0.91764 0.0
C329 C 0.45373 0.58045 0.69743 0.0
C330 C 0.44108 0.59866 0.57343 0.0
N331 N 0.42356 0.60812 0.70124 0.0
C332 C 0.43764 0.59315 0.74072 0.0
C333 C 0.4252 0.61108 0.61874 0.0
C334 C 0.45541 0.58324 0.61319 0.0
C335 C 0.36465 0.68813 0.89524 0.0
N336 N 0.37708 0.67523 0.94867 0.0
C337 C 0.36603 0.71215 0.89607 0.0
C338 C 0.38018 0.72297 0.95233 0.0
C339 C 0.39275 0.7097 0.00681 0.0
C340 C 0.39102 0.68572 0.00395 0.0
C341 C 0.35197 0.65209 0.18225 0.0
C342 C 0.38364 0.62462 0.10454 0.0
C343 C 0.35529 0.65347 0.09802 0.0
N344 N 0.37107 0.63993 0.06033 0.0
C345 C 0.38078 0.62278 0.18888 0.0
C346 C 0.36485 0.63664 0.22786 0.0
C347 C 0.38269 0.59253 0.89174 0.0
C348 C 0.34657 0.6292 0.60291 0.0
C349 C 0.37438 0.59518 0.66582 0.0
C350 C 0.35697 0.58915 0.61224 0.0
C351 C 0.34298 0.60631 0.58073 0.0
N352 N 0.3778 0.61767 0.68727 0.0
C353 C 0.36418 0.63459 0.65653 0.0
Co354 Co 0.63007 0.62387 0.04005 0.0
Co355 Co 0.62035 0.63385 0.24515 0.0
O356 O 0.63337 0.61619 0.15528 0.0
C357 C 0.60949 0.57771 0.0482 0.0
O358 O 0.5966 0.58551 0.10715 0.0
C359 C 0.66949 0.63478 0.27575 0.0
O360 O 0.67198 0.63912 0.1977 0.0
O361 O 0.63022 0.66361 0.19677 0.0
O362 O 0.63553 0.65712 0.06299 0.0
H363 H 0.57508 0.69782 0.37179 0.0
H364 H 0.66196 0.58705 0.09008 0.0
O365 O 0.62434 0.59055 0.01495 0.0
H366 H 0.70892 0.64534 0.95136 0.0
H367 H 0.6413 0.61032 0.73935 0.0
H368 H 0.60728 0.66108 0.94716 0.0
H369 H 0.66761 0.65059 0.96346 0.0
H370 H 0.64566 0.60169 0.88592 0.0
O371 O 0.64977 0.63187 0.3056 0.0
H372 H 0.59103 0.67517 0.25817 0.0
H373 H 0.6227 0.62978 0.42621 0.0
H374 H 0.6026 0.67042 0.80131 0.0
H375 H 0.70319 0.58102 0.07885 0.0
H376 H 0.6197 0.64494 0.69628 0.0
H377 H 0.72697 0.61036 0.00941 0.0
O378 O 0.59687 0.62908 0.05285 0.0
H379 H 0.63035 0.55183 0.33585 0.0
H380 H 0.57674 0.61663 0.31352 0.0
H381 H 0.56374 0.57969 0.37127 0.0
H382 H 0.59065 0.54699 0.38286 0.0
H383 H 0.64259 0.58903 0.27799 0.0
H384 H 0.60716 0.65198 0.54171 0.0
H385 H 0.58311 0.68624 0.5148 0.0
O386 O 0.59096 0.63637 0.18602 0.0
C387 C 0.63501 0.67042 0.12491 0.0
C388 C 0.58546 0.68287 0.38431 0.0
C389 C 0.60349 0.65717 0.47968 0.0
N390 N 0.60763 0.65107 0.33557 0.0
C391 C 0.59448 0.66994 0.32023 0.0
C392 C 0.61227 0.64468 0.41406 0.0
C393 C 0.59 0.67638 0.46453 0.0
C394 C 0.67216 0.59977 0.059 0.0
N395 N 0.66238 0.6191 0.02717 0.0
C396 C 0.69551 0.59631 0.05315 0.0
C397 C 0.70885 0.61279 0.01428 0.0
C398 C 0.69873 0.63244 0.98175 0.0
C399 C 0.67534 0.63534 0.9889 0.0
C400 C 0.63381 0.62158 0.78455 0.0
C401 C 0.61488 0.64999 0.90181 0.0
C402 C 0.6362 0.61676 0.86761 0.0
N403 N 0.62689 0.63098 0.925 0.0
C404 C 0.61212 0.65533 0.81932 0.0
C405 C 0.62169 0.64101 0.76042 0.0
C406 C 0.58398 0.63423 0.11271 0.0
C407 C 0.61848 0.56598 0.33135 0.0
C408 C 0.58853 0.60246 0.31822 0.0
C409 C 0.58109 0.5816 0.3511 0.0
C410 C 0.5962 0.56326 0.35762 0.0
N411 N 0.61044 0.60501 0.29288 0.0
C412 C 0.62534 0.5871 0.2989 0.0
Co413 Co 0.62157 0.37406 0.98927 0.0
Co414 Co 0.59016 0.37093 0.8118 0.0
O415 O 0.61526 0.36164 0.88113 0.0
C416 C 0.66214 0.3826 0.89181 0.0
O417 O 0.6481 0.39086 0.83718 0.0
C418 C 0.58482 0.32093 0.83159 0.0
O419 O 0.58681 0.32473 0.91021 0.0
O420 O 0.56864 0.36771 0.90352 0.0
O421 O 0.58852 0.37344 0.01901 0.0
H422 H 0.51868 0.4136 0.7426 0.0
H423 H 0.64643 0.33285 0.93062 0.0
O424 O 0.65461 0.37521 0.95989 0.0
H425 H 0.60664 0.30781 0.17978 0.0
H426 H 0.6674 0.38124 0.24682 0.0
H427 H 0.60048 0.4092 0.09655 0.0
H428 H 0.60355 0.34794 0.13163 0.0
H429 H 0.658 0.36551 0.11108 0.0
O430 O 0.58544 0.33775 0.78168 0.0
H431 H 0.55125 0.4029 0.82871 0.0
H432 H 0.57459 0.35666 0.64641 0.0
H433 H 0.60917 0.42532 0.23229 0.0
H434 H 0.6501 0.29259 0.97685 0.0
H435 H 0.64283 0.41131 0.3084 0.0
H436 H 0.63005 0.27983 0.10215 0.0
O437 O 0.61791 0.40614 0.94973 0.0
H438 H 0.65397 0.346 0.62918 0.0
H439 H 0.59916 0.40777 0.68944 0.0
H440 H 0.62634 0.41275 0.57651 0.0
H441 H 0.65395 0.38168 0.54563 0.0
H442 H 0.62669 0.34187 0.74215 0.0
H443 H 0.54219 0.36677 0.55836 0.0
H444 H 0.51399 0.39548 0.6063 0.0
O445 O 0.59432 0.40416 0.8419 0.0
C446 C 0.56988 0.37053 0.98059 0.0
C447 C 0.53092 0.40118 0.7208 0.0
C448 C 0.5441 0.37486 0.61747 0.0
N449 N 0.56498 0.37944 0.74211 0.0
C450 C 0.54946 0.39513 0.76914 0.0
C451 C 0.56241 0.3692 0.66757 0.0
C452 C 0.52829 0.39097 0.64441 0.0
C453 C 0.63785 0.32748 0.98566 0.0
N454 N 0.6249 0.34275 0.02866 0.0
C455 C 0.63991 0.30464 0.01134 0.0
C456 C 0.62862 0.29748 0.08158 0.0
C457 C 0.61547 0.31317 0.12515 0.0
C458 C 0.61376 0.33586 0.09754 0.0
C459 C 0.65265 0.38744 0.21437 0.0
C460 C 0.61507 0.40292 0.12956 0.0
C461 C 0.64726 0.37862 0.13748 0.0
N462 N 0.62859 0.38628 0.09639 0.0
C463 C 0.61995 0.41216 0.20627 0.0
C464 C 0.63885 0.40431 0.24889 0.0
C465 C 0.60577 0.41547 0.89458 0.0
C466 C 0.64196 0.35962 0.64182 0.0
C467 C 0.61119 0.39423 0.67657 0.0
C468 C 0.6265 0.39711 0.61243 0.0
C469 C 0.64197 0.37966 0.59507 0.0
N470 N 0.61126 0.37449 0.72201 0.0
C471 C 0.62641 0.35733 0.70551 0.0
Co472 Co 0.86786 0.62313 0.74285 0.0
Co473 Co 0.8665 0.63208 0.53434 0.0
O474 O 0.85668 0.61638 0.63382 0.0
C475 C 0.87542 0.57292 0.72311 0.0
O476 O 0.88231 0.57679 0.64823 0.0
C477 C 0.81775 0.63994 0.54697 0.0
O478 O 0.82224 0.64619 0.62214 0.0
O479 O 0.864 0.66307 0.58607 0.0
O480 O 0.86725 0.65681 0.72069 0.0
H481 H 0.91167 0.68833 0.36749 0.0
H482 H 0.82762 0.59317 0.72279 0.0
O483 O 0.86893 0.5895 0.76828 0.0
H484 H 0.80152 0.65888 0.88861 0.0
H485 H 0.8725 0.61237 0.04733 0.0
H486 H 0.90241 0.65493 0.81035 0.0
H487 H 0.84128 0.6564 0.84347 0.0
H488 H 0.8579 0.60467 0.90892 0.0
O489 O 0.83386 0.63406 0.49944 0.0
H490 H 0.89978 0.66866 0.49382 0.0
H491 H 0.8525 0.62841 0.36035 0.0
H492 H 0.91749 0.66319 0.94762 0.0
H493 H 0.78775 0.59485 0.7672 0.0
H494 H 0.90244 0.64188 0.06738 0.0
H495 H 0.77446 0.62793 0.85053 0.0
O496 O 0.89953 0.62179 0.70362 0.0
H497 H 0.84033 0.55233 0.46087 0.0
H498 H 0.90239 0.60877 0.437 0.0
H499 H 0.90666 0.57032 0.37479 0.0
H500 H 0.87548 0.5418 0.38653 0.0
H501 H 0.83683 0.5909 0.52265 0.0
H502 H 0.86385 0.64767 0.23249 0.0
H503 H 0.89369 0.6778 0.23558 0.0
O504 O 0.89906 0.63055 0.5697 0.0
C505 C 0.86554 0.6702 0.65946 0.0
C506 C 0.89871 0.67516 0.3653 0.0
C507 C 0.87184 0.65237 0.28956 0.0
N508 N 0.87562 0.64727 0.43427 0.0
C509 C 0.89195 0.66392 0.4366 0.0
C510 C 0.86546 0.64155 0.36212 0.0
C511 C 0.88859 0.66927 0.29133 0.0
C512 C 0.82202 0.60748 0.75979 0.0
N513 N 0.83679 0.62458 0.78094 0.0
C514 C 0.7994 0.6084 0.78447 0.0
C515 C 0.79195 0.62698 0.8311 0.0
C516 C 0.80712 0.64436 0.85242 0.0
C517 C 0.8296 0.64289 0.82655 0.0
C518 C 0.87914 0.62182 0.99568 0.0
C519 C 0.89572 0.64566 0.86219 0.0
C520 C 0.87095 0.61752 0.91717 0.0
N521 N 0.87915 0.62949 0.85174 0.0
C522 C 0.90436 0.65037 0.93975 0.0
C523 C 0.89594 0.63838 0.00688 0.0
C524 C 0.90951 0.62615 0.63631 0.0
C525 C 0.854 0.56463 0.45513 0.0
C526 C 0.88876 0.59643 0.44246 0.0
C527 C 0.89126 0.57471 0.40698 0.0
C528 C 0.87375 0.55872 0.41353 0.0
N529 N 0.86934 0.60211 0.48307 0.0
C530 C 0.85208 0.58654 0.48967 0.0
Co531 Co 0.62015 0.14241 0.31232 0.0
Co532 Co 0.59455 0.12631 0.49285 0.0
O533 O 0.6162 0.14471 0.43021 0.0
C534 C 0.66659 0.13607 0.37674 0.0
O535 O 0.65811 0.12304 0.43458 0.0
C536 C 0.5834 0.1745 0.53175 0.0
O537 O 0.58341 0.1783 0.45282 0.0
O538 O 0.56949 0.13362 0.4158 0.0
O539 O 0.58693 0.13902 0.29576 0.0
H540 H 0.53255 0.06806 0.53147 0.0
H541 H 0.64027 0.18166 0.40209 0.0
O542 O 0.65364 0.14562 0.32469 0.0
H543 H 0.58787 0.2166 0.20331 0.0
H544 H 0.65447 0.16405 0.04173 0.0
H545 H 0.60082 0.1126 0.18294 0.0
H546 H 0.59305 0.17447 0.20837 0.0
H547 H 0.64881 0.16705 0.19048 0.0
O548 O 0.58693 0.15426 0.55899 0.0
H549 H 0.56014 0.09088 0.45261 0.0
H550 H 0.58273 0.12373 0.66943 0.0
H551 H 0.60581 0.10914 0.03399 0.0
H552 H 0.63565 0.22389 0.39905 0.0
H553 H 0.6328 0.13499 0.96242 0.0
H554 H 0.60924 0.24161 0.29927 0.0
O555 O 0.62334 0.10839 0.32011 0.0
H556 H 0.66098 0.14466 0.67327 0.0
H557 H 0.6119 0.08283 0.56685 0.0
H558 H 0.64332 0.07303 0.65965 0.0
H559 H 0.6681 0.10407 0.7136 0.0
H560 H 0.62951 0.15368 0.5797 0.0
H561 H 0.55527 0.10137 0.75067 0.0
H562 H 0.52999 0.07324 0.68166 0.0
O563 O 0.60198 0.09812 0.42787 0.0
C564 C 0.56913 0.13666 0.3388 0.0
C565 C 0.54353 0.0802 0.5623 0.0
C566 C 0.55626 0.09892 0.6853 0.0
N567 N 0.57316 0.10846 0.5565 0.0
C568 C 0.55923 0.09312 0.518 0.0
C569 C 0.57174 0.11156 0.639 0.0
C570 C 0.54209 0.08314 0.64654 0.0
C571 C 0.62892 0.18927 0.35796 0.0
N572 N 0.617 0.17562 0.3053 0.0
C573 C 0.62631 0.21318 0.35673 0.0
C574 C 0.61145 0.22311 0.30084 0.0
C575 C 0.59944 0.20908 0.24704 0.0
C576 C 0.60241 0.18523 0.25027 0.0
C577 C 0.64263 0.15272 0.07219 0.0
C578 C 0.6125 0.124 0.15214 0.0
C579 C 0.63939 0.15431 0.15642 0.0
N580 N 0.62437 0.14013 0.19522 0.0
C581 C 0.6153 0.12192 0.06784 0.0
C582 C 0.63046 0.13642 0.02773 0.0
C583 C 0.61411 0.09325 0.36575 0.0
C584 C 0.65026 0.13099 0.65037 0.0
C585 C 0.62264 0.09643 0.58988 0.0
C586 C 0.64038 0.09078 0.64257 0.0
C587 C 0.65426 0.10821 0.67287 0.0
N588 N 0.61881 0.11882 0.56814 0.0
C589 C 0.63234 0.13601 0.59766 0.0
Co590 Co 0.12741 0.38213 0.71898 0.0
Co591 Co 0.12108 0.36893 0.51431 0.0
O592 O 0.13355 0.38722 0.60325 0.0
C593 C 0.11199 0.42886 0.68251 0.0
O594 O 0.10182 0.41934 0.61989 0.0
C595 C 0.17061 0.36586 0.49545 0.0
O596 O 0.17183 0.36291 0.5747 0.0
O597 O 0.12871 0.33994 0.57141 0.0
O598 O 0.13145 0.34796 0.70545 0.0
H599 H 0.07526 0.30477 0.39139 0.0
H600 H 0.16238 0.41604 0.669 0.0
O601 O 0.123 0.41637 0.73274 0.0
H602 H 0.2028 0.35825 0.83439 0.0
H603 H 0.13299 0.40179 0.01739 0.0
H604 H 0.10098 0.34809 0.81465 0.0
H605 H 0.16161 0.35506 0.81204 0.0
H606 H 0.14078 0.40695 0.87057 0.0
O607 O 0.15148 0.3685 0.46075 0.0
H608 H 0.09024 0.32873 0.5034 0.0
H609 H 0.12667 0.36969 0.33354 0.0
H610 H 0.09285 0.34222 0.96081 0.0
H611 H 0.20355 0.41995 0.69014 0.0
H612 H 0.10893 0.36917 0.06333 0.0
H613 H 0.22405 0.39086 0.77308 0.0
O614 O 0.09441 0.37845 0.69875 0.0
H615 H 0.13725 0.44794 0.40364 0.0
H616 H 0.07958 0.38705 0.4329 0.0
H617 H 0.06973 0.42316 0.36206 0.0
H618 H 0.09872 0.45385 0.34668 0.0
H619 H 0.14624 0.41175 0.47545 0.0
H620 H 0.1121 0.34617 0.21965 0.0
H621 H 0.08616 0.31346 0.24829 0.0
O622 O 0.09058 0.36875 0.56665 0.0
C623 C 0.13165 0.33387 0.64536 0.0
C624 C 0.08646 0.31904 0.3781 0.0
C625 C 0.10717 0.34225 0.28172 0.0
N626 N 0.10913 0.35072 0.42493 0.0
C627 C 0.09494 0.3327 0.44124 0.0
C628 C 0.11537 0.3555 0.34645 0.0
C629 C 0.09261 0.32391 0.29783 0.0
C630 C 0.17113 0.40346 0.70596 0.0
N631 N 0.15959 0.38542 0.73964 0.0
C632 C 0.19447 0.40571 0.7174 0.0
C633 C 0.20596 0.38936 0.76383 0.0
C634 C 0.19405 0.37105 0.7982 0.0
C635 C 0.17074 0.36932 0.78527 0.0
C636 C 0.12594 0.38989 0.97334 0.0
C637 C 0.10815 0.35981 0.85896 0.0
C638 C 0.13026 0.39275 0.89016 0.0
N639 N 0.12151 0.37771 0.83427 0.0
C640 C 0.10343 0.35643 0.9416 0.0
C641 C 0.11244 0.37158 0.99907 0.0
C642 C 0.08242 0.37259 0.63743 0.0
C643 C 0.1245 0.43465 0.40964 0.0
C644 C 0.09223 0.4004 0.42701 0.0
C645 C 0.08658 0.42077 0.38655 0.0
C646 C 0.10286 0.43798 0.37784 0.0
N647 N 0.11351 0.39725 0.45789 0.0
C648 C 0.12952 0.41409 0.45 0.0
Co649 Co 0.3782 0.85766 0.20704 0.0
Co650 Co 0.40088 0.86499 0.39985 0.0
O651 O 0.38108 0.84952 0.32182 0.0
C652 C 0.33208 0.86183 0.27381 0.0
O653 O 0.34141 0.87162 0.33764 0.0
C654 C 0.41515 0.81652 0.39924 0.0
O655 O 0.41617 0.81871 0.31965 0.0
O656 O 0.42676 0.86441 0.32216 0.0
O657 O 0.41177 0.8615 0.19649 0.0
H658 H 0.45854 0.92313 0.49153 0.0
H659 H 0.35689 0.81481 0.26831 0.0
O660 O 0.34442 0.85453 0.21539 0.0
H661 H 0.41061 0.78971 0.05583 0.0
H662 H 0.34537 0.85012 0.9249 0.0
H663 H 0.39897 0.89282 0.09921 0.0
H664 H 0.40609 0.83096 0.08827 0.0
H665 H 0.34993 0.83995 0.07014 0.0
O666 O 0.40995 0.83387 0.4432 0.0
H667 H 0.433 0.90421 0.39309 0.0
H668 H 0.41148 0.85706 0.5753 0.0
H669 H 0.3951 0.90344 0.95412 0.0
H670 H 0.36083 0.77339 0.23767 0.0
H671 H 0.36814 0.882 0.86592 0.0
H672 H 0.38785 0.76061 0.13072 0.0
O673 O 0.3752 0.89073 0.23479 0.0
H674 H 0.3348 0.83155 0.55267 0.0
H675 H 0.38013 0.90153 0.50343 0.0
H676 H 0.34752 0.90326 0.59727 0.0
H677 H 0.32461 0.86809 0.62238 0.0
H678 H 0.36741 0.83062 0.45877 0.0
H679 H 0.43688 0.87539 0.67573 0.0
H680 H 0.46059 0.90872 0.63405 0.0
O681 O 0.39192 0.89613 0.35688 0.0
C682 C 0.42861 0.86388 0.24461 0.0
C683 C 0.44823 0.90869 0.51054 0.0
C684 C 0.4361 0.88186 0.61388 0.0
N685 N 0.42061 0.87971 0.4787 0.0
C686 C 0.43368 0.89795 0.45514 0.0
C687 C 0.42177 0.87154 0.55676 0.0
C688 C 0.44939 0.90057 0.59045 0.0
C689 C 0.36856 0.80938 0.22128 0.0
N690 N 0.38113 0.82528 0.17978 0.0
C691 C 0.37078 0.78591 0.2044 0.0
C692 C 0.38597 0.77875 0.14449 0.0
C693 C 0.39875 0.79507 0.10246 0.0
C694 C 0.39614 0.81839 0.12116 0.0
C695 C 0.35721 0.85955 0.96265 0.0
C696 C 0.38732 0.88332 0.06105 0.0
C697 C 0.35984 0.8539 0.04493 0.0
N698 N 0.37486 0.86564 0.09282 0.0
C699 C 0.38514 0.88946 0.97903 0.0
C700 C 0.37 0.87743 0.9296 0.0
C701 C 0.3817 0.90359 0.29338 0.0
C702 C 0.3447 0.84697 0.54239 0.0
C703 C 0.37022 0.88616 0.51396 0.0
C704 C 0.3518 0.88723 0.56727 0.0
C705 C 0.33896 0.86749 0.58139 0.0
N706 N 0.37574 0.86597 0.47594 0.0
C707 C 0.36325 0.84653 0.48958 0.0
Co708 Co 0.87251 0.87796 0.53946 0.0
Co709 Co 0.88119 0.8857 0.74597 0.0
O710 O 0.86603 0.8927 0.64362 0.0
C711 C 0.88373 0.92095 0.44825 0.0
O712 O 0.90344 0.91216 0.42805 0.0
C713 C 0.83272 0.87821 0.7777 0.0
O714 O 0.83194 0.86747 0.70734 0.0
O715 O 0.87702 0.85226 0.72758 0.0
O716 O 0.87506 0.84683 0.59169 0.0
H717 H 0.93566 0.84336 0.9275 0.0
H718 H 0.83149 0.90716 0.55858 0.0
O719 O 0.86956 0.90919 0.48937 0.0
H720 H 0.80319 0.83071 0.47615 0.0
H721 H 0.86252 0.86719 0.23673 0.0
H722 H 0.90525 0.84306 0.48067 0.0
H723 H 0.84417 0.83776 0.49034 0.0
H724 H 0.85379 0.88381 0.37178 0.0
O725 O 0.85128 0.88673 0.80342 0.0
H726 H 0.91721 0.85316 0.79698 0.0
H727 H 0.8761 0.9028 0.91647 0.0
H728 H 0.91451 0.82593 0.34697 0.0
H729 H 0.79039 0.9009 0.54439 0.0
H730 H 0.89309 0.83804 0.22378 0.0
H731 H 0.77598 0.86242 0.50327 0.0
O732 O 0.90555 0.88282 0.55513 0.0
H733 H 0.85592 0.96829 0.75375 0.0
H734 H 0.92022 0.91533 0.79438 0.0
H735 H 0.9258 0.95707 0.81412 0.0
H736 H 0.89348 0.98385 0.79392 0.0
H737 H 0.85113 0.92643 0.73424 0.0
H738 H 0.89393 0.89337 0.04847 0.0
H739 H 0.92399 0.8635 0.05447 0.0
O740 O 0.91127 0.88433 0.69055 0.0
C741 C 0.87573 0.83927 0.66494 0.0
C742 C 0.92264 0.85647 0.92562 0.0
C743 C 0.89921 0.88452 0.99353 0.0
N744 N 0.89577 0.87869 0.84903 0.0
C745 C 0.9122 0.86215 0.85186 0.0
C746 C 0.88915 0.88976 0.91866 0.0
C747 C 0.91607 0.86776 0.99685 0.0
C748 C 0.82539 0.89046 0.53946 0.0
N749 N 0.84026 0.87291 0.52468 0.0
C750 C 0.80208 0.88698 0.53201 0.0
C751 C 0.79401 0.86537 0.50912 0.0
C752 C 0.80926 0.84757 0.49397 0.0
C753 C 0.83246 0.85166 0.50222 0.0
C754 C 0.87194 0.86174 0.28997 0.0
C755 C 0.89576 0.84827 0.42741 0.0
C756 C 0.86707 0.87109 0.36653 0.0
N757 N 0.87891 0.86428 0.43399 0.0
C758 C 0.90111 0.83857 0.35185 0.0
C759 C 0.88909 0.84538 0.28276 0.0
C760 C 0.91851 0.88389 0.61725 0.0
C761 C 0.87011 0.95679 0.76297 0.0
C762 C 0.90609 0.92689 0.78531 0.0
C763 C 0.90934 0.9505 0.79672 0.0
C764 C 0.8912 0.96551 0.78541 0.0
N765 N 0.88533 0.91846 0.76364 0.0
C766 C 0.86748 0.93307 0.75224 0.0
Co767 Co 0.87517 0.13384 0.47907 0.0
Co768 Co 0.90388 0.12762 0.29635 0.0
O769 O 0.88165 0.14258 0.36649 0.0
C770 C 0.83233 0.12974 0.39057 0.0
O771 O 0.84424 0.11937 0.33392 0.0
C772 C 0.91754 0.17624 0.30184 0.0
O773 O 0.91671 0.17427 0.38155 0.0
O774 O 0.92695 0.12884 0.38396 0.0
O775 O 0.90834 0.13037 0.50364 0.0
H776 H 0.96561 0.07121 0.22924 0.0
H777 H 0.85569 0.17679 0.41105 0.0
O778 O 0.84186 0.13684 0.45569 0.0
H779 H 0.90177 0.20137 0.64642 0.0
H780 H 0.83302 0.13976 0.74507 0.0
H781 H 0.89279 0.09862 0.5937 0.0
H782 H 0.89865 0.16023 0.61037 0.0
H783 H 0.84222 0.15053 0.60325 0.0
O784 O 0.91351 0.15882 0.25681 0.0
H785 H 0.9366 0.08933 0.31638 0.0
H786 H 0.91963 0.13584 0.12605 0.0
H787 H 0.8843 0.08742 0.73567 0.0
H788 H 0.85827 0.2181 0.44515 0.0
H789 H 0.85423 0.10808 0.81232 0.0
H790 H 0.88146 0.23062 0.56357 0.0
O791 O 0.87343 0.10082 0.4487 0.0
H792 H 0.84296 0.16001 0.11556 0.0
H793 H 0.88726 0.09073 0.18477 0.0
H794 H 0.85831 0.08858 0.07653 0.0
H795 H 0.83599 0.12342 0.0411 0.0
H796 H 0.87182 0.16132 0.22417 0.0
H797 H 0.94855 0.1183 0.03689 0.0
H798 H 0.97173 0.0857 0.08835 0.0
O799 O 0.89442 0.09633 0.335 0.0
C800 C 0.92655 0.12901 0.46177 0.0
C801 C 0.95555 0.08533 0.20597 0.0
C802 C 0.94599 0.11179 0.09806 0.0
N803 N 0.92627 0.11344 0.22597 0.0
C804 C 0.93904 0.0956 0.25492 0.0
C805 C 0.92966 0.12166 0.14882 0.0
C806 C 0.95899 0.09349 0.12697 0.0
C807 C 0.86566 0.1821 0.46307 0.0
N808 N 0.87688 0.16612 0.50898 0.0
C809 C 0.86713 0.20552 0.4819 0.0
C810 C 0.88018 0.21253 0.54827 0.0
C811 C 0.89158 0.19613 0.59476 0.0
C812 C 0.88977 0.17286 0.574 0.0
C813 C 0.8462 0.13067 0.71238 0.0
C814 C 0.87979 0.10777 0.62689 0.0
C815 C 0.85145 0.13666 0.63204 0.0
N816 N 0.86817 0.12534 0.59061 0.0
C817 C 0.875 0.10131 0.70714 0.0
C818 C 0.85811 0.11289 0.75008 0.0
C819 C 0.88224 0.08841 0.3929 0.0
C820 C 0.85263 0.14474 0.13024 0.0
C821 C 0.87752 0.10593 0.17002 0.0
C822 C 0.86121 0.10463 0.1085 0.0
C823 C 0.8487 0.12419 0.08859 0.0
N824 N 0.88132 0.12616 0.21046 0.0
C825 C 0.86907 0.14539 0.19145 0.0
Co826 Co 0.12843 0.12643 0.51203 0.0
Co827 Co 0.12965 0.11749 0.7208 0.0
O828 O 0.13959 0.11104 0.60954 0.0
C829 C 0.11788 0.07731 0.49182 0.0
O830 O 0.11094 0.07818 0.56774 0.0
C831 C 0.17808 0.12783 0.71432 0.0
O832 O 0.17323 0.13818 0.64548 0.0
O833 O 0.13087 0.15121 0.70197 0.0
O834 O 0.13107 0.15739 0.56641 0.0
H835 H 0.08329 0.15628 0.93816 0.0
H836 H 0.16698 0.09391 0.4986 0.0
O837 O 0.12533 0.09547 0.45706 0.0
H838 H 0.19612 0.16841 0.39936 0.0
H839 H 0.12157 0.13795 0.2087 0.0
H840 H 0.09613 0.16445 0.47953 0.0
H841 H 0.15647 0.16466 0.44483 0.0
H842 H 0.13632 0.11982 0.33405 0.0
O843 O 0.16239 0.11831 0.75598 0.0
H844 H 0.09511 0.14775 0.79695 0.0
H845 H 0.14471 0.10084 0.88375 0.0
H846 H 0.08104 0.18317 0.35586 0.0
H847 H 0.20668 0.09684 0.45299 0.0
H848 H 0.09376 0.1699 0.2192 0.0
H849 H 0.2215 0.13431 0.40315 0.0
O850 O 0.09685 0.12396 0.55074 0.0
H851 H 0.15895 0.03635 0.70578 0.0
H852 H 0.09532 0.08568 0.79193 0.0
H853 H 0.09262 0.04356 0.80976 0.0
H854 H 0.12456 0.0186 0.76615 0.0
H855 H 0.16089 0.07852 0.68872 0.0
H856 H 0.13358 0.10901 0.02602 0.0
H857 H 0.1026 0.13686 0.05387 0.0
O858 O 0.09694 0.11733 0.68605 0.0
C859 C 0.1314 0.16456 0.64027 0.0
C860 C 0.09675 0.14405 0.9268 0.0
C861 C 0.12499 0.11754 0.97611 0.0
N862 N 0.12042 0.12365 0.83219 0.0
C863 C 0.10345 0.13909 0.84697 0.0
C864 C 0.13125 0.113 0.89548 0.0
C865 C 0.10761 0.13316 0.9917 0.0
C866 C 0.17324 0.11021 0.47613 0.0
N867 N 0.15939 0.12904 0.47377 0.0
C868 C 0.19576 0.11179 0.45071 0.0
C869 C 0.20408 0.13283 0.42289 0.0
C870 C 0.18985 0.15197 0.4208 0.0
C871 C 0.16743 0.14976 0.44673 0.0
C872 C 0.11594 0.14392 0.26789 0.0
C873 C 0.10189 0.15872 0.4203 0.0
C874 C 0.12422 0.13371 0.33904 0.0
N875 N 0.11725 0.14123 0.41396 0.0
C876 C 0.09322 0.16933 0.35048 0.0
C877 C 0.10034 0.16185 0.27383 0.0
C878 C 0.08667 0.12055 0.61823 0.0
C879 C 0.14496 0.04705 0.72528 0.0
C880 C 0.10932 0.07493 0.77317 0.0
C881 C 0.1077 0.0511 0.78343 0.0
C882 C 0.12564 0.0371 0.75905 0.0
N883 N 0.1283 0.08454 0.73975 0.0
C884 C 0.146 0.07095 0.71611 0.0
Co885 Co 0.12646 0.87066 0.42412 0.0
Co886 Co 0.09516 0.87207 0.24586 0.0
O887 O 0.11927 0.86003 0.31447 0.0
C888 C 0.16732 0.87756 0.32561 0.0
O889 O 0.15369 0.8869 0.27182 0.0
C890 C 0.08506 0.8228 0.26718 0.0
O891 O 0.08761 0.82665 0.34552 0.0
O892 O 0.07336 0.87138 0.33806 0.0
O893 O 0.09358 0.87121 0.45449 0.0
H894 H 0.02914 0.92303 0.17697 0.0
H895 H 0.14898 0.82902 0.35733 0.0
O896 O 0.15952 0.87048 0.39374 0.0
H897 H 0.10885 0.80282 0.60429 0.0
H898 H 0.17335 0.87247 0.68045 0.0
H899 H 0.10681 0.90471 0.53922 0.0
H900 H 0.10766 0.84366 0.56297 0.0
H901 H 0.16297 0.85907 0.54251 0.0
O902 O 0.08686 0.83942 0.21662 0.0
H903 H 0.06058 0.9088 0.26228 0.0
H904 H 0.07746 0.85915 0.08194 0.0
H905 H 0.11652 0.91857 0.67708 0.0
H906 H 0.15071 0.78805 0.39663 0.0
H907 H 0.15 0.90239 0.74872 0.0
H908 H 0.13049 0.77471 0.5208 0.0
O909 O 0.12414 0.90341 0.39036 0.0
H910 H 0.15551 0.83978 0.06234 0.0
H911 H 0.10773 0.90736 0.12196 0.0
H912 H 0.13499 0.90904 0.00808 0.0
H913 H 0.15905 0.87503 0.97748 0.0
H914 H 0.12827 0.83897 0.17632 0.0
H915 H 0.04616 0.8728 0.99468 0.0
H916 H 0.02179 0.905 0.04207 0.0
O917 O 0.10327 0.90471 0.27529 0.0
C918 C 0.07479 0.87168 0.41573 0.0
C919 C 0.03972 0.90907 0.15547 0.0
C920 C 0.04924 0.88085 0.05322 0.0
N921 N 0.07096 0.88334 0.17669 0.0
C922 C 0.05758 0.90099 0.20338 0.0
C923 C 0.06692 0.87318 0.10288 0.0
C924 C 0.03558 0.89892 0.07984 0.0
C925 C 0.14034 0.82339 0.41191 0.0
N926 N 0.12838 0.83873 0.45813 0.0
C927 C 0.14129 0.80015 0.43366 0.0
C928 C 0.12992 0.79267 0.50327 0.0
C929 C 0.11777 0.80843 0.55013 0.0
C930 C 0.11714 0.83153 0.52641 0.0
C931 C 0.15871 0.87963 0.64991 0.0
C932 C 0.12135 0.89754 0.57008 0.0
C933 C 0.15279 0.87215 0.57176 0.0
N934 N 0.13426 0.88104 0.53303 0.0
C935 C 0.12679 0.90548 0.64809 0.0
C936 C 0.14559 0.89641 0.6882 0.0
C937 C 0.11428 0.91442 0.33312 0.0
C938 C 0.14505 0.85468 0.07488 0.0
C939 C 0.11823 0.89255 0.10929 0.0
C940 C 0.13359 0.89357 0.04458 0.0
C941 C 0.14707 0.87448 0.02738 0.0
N942 N 0.11633 0.87306 0.15548 0.0
C943 C 0.12954 0.85429 0.13916 0.0
H944 H 0.40433 0.93993 0.36517 0.0
H945 H 0.34819 0.92351 0.20414 0.0
H946 H 0.34085 0.96487 0.18429 0.0
H947 H 0.37913 0.99124 0.45867 0.0
H948 H 0.40554 0.0068 0.46111 0.0
H949 H 0.4055 0.97582 0.46781 0.0
H950 H 0.43255 0.97362 0.34371 0.0
H951 H 0.4326 0.00456 0.33634 0.0
H952 H 0.4246 0.98738 0.24937 0.0
H953 H 0.34017 0.00748 0.17735 0.0
H954 H 0.34664 0.04931 0.18139 0.0
H955 H 0.40395 0.03892 0.34355 0.0
C956 C 0.3903 0.94507 0.32674 0.0
C957 C 0.37679 0.92849 0.28638 0.0
C958 C 0.35881 0.9359 0.23547 0.0
C959 C 0.35444 0.95935 0.22399 0.0
C960 C 0.36826 0.97525 0.26347 0.0
C961 C 0.38584 0.96852 0.31372 0.0
C962 C 0.39878 0.98927 0.34535 0.0
C963 C 0.39713 0.99088 0.43879 0.0
C964 C 0.4236 0.98866 0.31697 0.0
C965 C 0.3858 0.00864 0.30439 0.0
C966 C 0.36815 1.00009 0.25807 0.0
C967 C 0.35387 0.01443 0.21365 0.0
C968 C 0.35771 0.0382 0.21639 0.0
C969 C 0.3758 0.04747 0.26282 0.0
C970 C 0.38998 0.0324 0.30752 0.0
H971 H 0.02865 0.63089 0.8578 0.0
H972 H 0.05942 0.65099 0.62786 0.0
H973 H 0.02183 0.64876 0.56117 0.0
H974 H 0.99072 0.58982 0.77656 0.0
H975 H 0.96829 0.59666 0.84706 0.0
H976 H 0.99736 0.60091 0.8765 0.0
H977 H 0.98901 0.64376 0.90968 0.0
H978 H 0.95985 0.63958 0.88119 0.0
H979 H 0.97633 0.66185 0.83284 0.0
H980 H 0.98013 0.64343 0.52006 0.0
H981 H 0.93872 0.63716 0.51038 0.0
H982 H 0.93712 0.61961 0.76797 0.0
C983 C 0.02763 0.63506 0.7935 0.0
C984 C 0.04708 0.64116 0.7482 0.0
C985 C 0.04478 0.64636 0.66406 0.0
C986 C 0.02351 0.64505 0.62559 0.0
C987 C 0.00478 0.63851 0.6721 0.0
C988 C 0.00673 0.63375 0.75439 0.0
C989 C 0.98431 0.62683 0.79128 0.0
C990 C 0.98524 0.60209 0.82479 0.0
C991 C 0.97695 0.64403 0.85764 0.0
C992 C 0.96932 0.62839 0.71693 0.0
C993 C 0.98128 0.63516 0.64859 0.0
C994 C 0.97064 0.63809 0.57327 0.0
C995 C 0.94712 0.6344 0.56829 0.0
C996 C 0.93457 0.62781 0.63827 0.0
C997 C 0.94606 0.62451 0.71298 0.0
H998 H 0.58995 0.95754 0.38029 0.0
H999 H 0.64933 0.94925 0.22663 0.0
H1000 H 0.65518 0.99114 0.22691 0.0
H1001 H 0.56984 0.00985 0.28935 0.0
H1002 H 0.56081 0.02261 0.38418 0.0
H1003 H 0.5611 0.99175 0.37298 0.0
H1004 H 0.58687 0.9882 0.50037 0.0
H1005 H 0.58656 0.01906 0.51204 0.0
H1006 H 0.61314 0.00399 0.504 0.0
H1007 H 0.65399 0.03383 0.23844 0.0
H1008 H 0.64716 0.07487 0.26854 0.0
H1009 H 0.58958 0.05594 0.41929 0.0
C1010 C 0.60423 0.96457 0.34717 0.0
C1011 C 0.61922 0.95006 0.30383 0.0
C1012 C 0.63773 0.95992 0.26113 0.0
C1013 C 0.64117 0.98375 0.26048 0.0
C1014 C 0.6261 0.99757 0.30346 0.0
C1015 C 0.60812 0.98841 0.34673 0.0
C1016 C 0.59466 0.00727 0.38851 0.0
C1017 C 0.57015 0.0079 0.35683 0.0
C1018 C 0.59536 0.00446 0.48177 0.0
C1019 C 0.60782 0.02835 0.36137 0.0
C1020 C 0.62578 0.02234 0.31188 0.0
C1021 C 0.64007 0.03879 0.27759 0.0
C1022 C 0.636 0.06206 0.29482 0.0
C1023 C 0.61791 0.06865 0.34652 0.0
C1024 C 0.60367 0.05148 0.38008 0.0
H1025 H 0.05809 0.37748 0.77957 0.0
H1026 H 0.05068 0.36181 0.52149 0.0
H1027 H 0.00962 0.35692 0.54087 0.0
H1028 H 0.01678 0.33679 0.8517 0.0
H1029 H 0.0064 0.35539 0.93142 0.0
H1030 H 0.03533 0.35778 0.89768 0.0
H1031 H 0.02928 0.40112 0.86714 0.0
H1032 H 0.00035 0.39889 0.90095 0.0
H1033 H 0.00655 0.40979 0.80045 0.0
H1034 H 0.9696 0.35408 0.58697 0.0
H1035 H 0.93276 0.35383 0.65652 0.0
H1036 H 0.96595 0.37089 0.88556 0.0
C1037 C 0.04787 0.37308 0.72695 0.0
C1038 C 0.05769 0.3701 0.64889 0.0
C1039 C 0.04363 0.36424 0.58187 0.0
C1040 C 0.02027 0.36138 0.59222 0.0
C1041 C 0.01121 0.36437 0.66991 0.0
C1042 C 0.02452 0.37011 0.73614 0.0
C1043 C 0.01046 0.37238 0.81306 0.0
C1044 C 0.01768 0.35452 0.87724 0.0
C1045 C 0.01174 0.39701 0.84739 0.0
C1046 C 0.98713 0.36712 0.7795 0.0
C1047 C 0.98801 0.36253 0.69683 0.0
C1048 C 0.96867 0.35757 0.65175 0.0
C1049 C 0.9478 0.35745 0.69205 0.0
C1050 C 0.94638 0.36223 0.77682 0.0
C1051 C 0.96642 0.36699 0.82096 0.0
H1052 H 0.40773 0.45673 0.88782 0.0
H1053 H 0.34866 0.44892 0.04331 0.0
H1054 H 0.34229 0.49077 0.03848 0.0
H1055 H 0.42741 0.50982 0.97281 0.0
H1056 H 0.43622 0.52194 0.87669 0.0
H1057 H 0.43616 0.49117 0.89067 0.0
H1058 H 0.41024 0.48647 0.7642 0.0
H1059 H 0.41031 0.51723 0.74971 0.0
H1060 H 0.38385 0.50201 0.75963 0.0
H1061 H 0.34319 0.5335 0.02313 0.0
H1062 H 0.34984 0.57438 0.99017 0.0
H1063 H 0.40729 0.55492 0.83973 0.0
C1064 C 0.39338 0.46382 0.92035 0.0
C1065 C 0.37868 0.44947 0.96576 0.0
C1066 C 0.36008 0.45946 0.00751 0.0
C1067 C 0.35634 0.48327 0.00547 0.0
C1068 C 0.37119 0.49694 0.96074 0.0
C1069 C 0.3892 0.48763 0.91816 0.0
C1070 C 0.40247 0.5063 0.87442 0.0
C1071 C 0.42702 0.50737 0.90553 0.0
C1072 C 0.40166 0.50279 0.78147 0.0
C1073 C 0.38921 0.52751 0.89981 0.0
C1074 C 0.37133 0.52168 0.95002 0.0
C1075 C 0.35703 0.53829 0.98334 0.0
C1076 C 0.36101 0.56148 0.96448 0.0
C1077 C 0.37903 0.56791 0.91212 0.0
C1078 C 0.39326 0.55059 0.87939 0.0
H1079 H 0.46915 0.62961 0.85471 0.0
H1080 H 0.43421 0.65011 0.07664 0.0
H1081 H 0.47068 0.6524 0.14846 0.0
H1082 H 0.5101 0.59373 0.95218 0.0
H1083 H 0.53291 0.60154 0.88463 0.0
H1084 H 0.50409 0.60241 0.84882 0.0
H1085 H 0.50919 0.64518 0.80755 0.0
H1086 H 0.53804 0.64445 0.84322 0.0
H1087 H 0.5187 0.66573 0.88262 0.0
H1088 H 0.51049 0.65162 0.19778 0.0
H1089 H 0.55142 0.6476 0.22186 0.0
H1090 H 0.56083 0.62729 0.96873 0.0
C1091 C 0.46915 0.63478 0.9182 0.0
C1092 C 0.44873 0.63982 0.95967 0.0
C1093 C 0.44954 0.64626 0.04312 0.0
C1094 C 0.4702 0.64763 0.08465 0.0
C1095 C 0.48994 0.64245 0.04213 0.0
C1096 C 0.48964 0.63614 0.96085 0.0
C1097 C 0.5133 0.63087 0.93031 0.0
C1098 C 0.51521 0.60564 0.90235 0.0
C1099 C 0.52021 0.64756 0.86188 0.0
C1100 C 0.52688 0.63514 0.00729 0.0
C1101 C 0.51304 0.64185 0.07092 0.0
C1102 C 0.52155 0.64645 0.14842 0.0
C1103 C 0.54485 0.64408 0.16143 0.0
C1104 C 0.55944 0.63713 0.09723 0.0
C1105 C 0.55022 0.63271 0.01908 0.0
H1106 H 0.63712 0.44675 0.94762 0.0
H1107 H 0.5692 0.44115 0.84868 0.0
H1108 H 0.56325 0.4827 0.87258 0.0
H1109 H 0.62526 0.48511 0.10429 0.0
H1110 H 0.65084 0.50183 0.09468 0.0
H1111 H 0.65057 0.47209 0.06372 0.0
H1112 H 0.66439 0.48352 0.91925 0.0
H1113 H 0.66502 0.51332 0.95003 0.0
H1114 H 0.64885 0.50476 0.8618 0.0
H1115 H 0.56284 0.52326 0.92588 0.0
H1116 H 0.57012 0.56183 0.98532 0.0
H1117 H 0.63935 0.54209 0.03747 0.0
C1118 C 0.62117 0.45439 0.92947 0.0
C1119 C 0.60359 0.44077 0.89647 0.0
C1120 C 0.58294 0.45132 0.87347 0.0
C1121 C 0.57937 0.47487 0.8872 0.0
C1122 C 0.59681 0.48768 0.92214 0.0
C1123 C 0.61751 0.47796 0.94102 0.0
C1124 C 0.63336 0.49547 0.97889 0.0
C1125 C 0.64041 0.48818 0.06552 0.0
C1126 C 0.65413 0.49951 0.92421 0.0
C1127 C 0.6181 0.5164 0.98063 0.0
C1128 C 0.59701 0.51148 0.94831 0.0
C1129 C 0.57943 0.52749 0.94955 0.0
C1130 C 0.58363 0.54921 0.98379 0.0
C1131 C 0.60529 0.55472 0.01472 0.0
C1132 C 0.62277 0.53822 0.01275 0.0
H1133 H 0.43707 0.38365 0.01062 0.0
H1134 H 0.4427 0.38899 0.2742 0.0
H1135 H 0.48445 0.38539 0.26228 0.0
H1136 H 0.47808 0.34072 0.9855 0.0
H1137 H 0.48835 0.35195 0.88988 0.0
H1138 H 0.45941 0.35677 0.91967 0.0
H1139 H 0.46493 0.40087 0.90443 0.0
H1140 H 0.4938 0.39617 0.8734 0.0
H1141 H 0.4877 0.41489 0.95834 0.0
H1142 H 0.52631 0.38019 0.21812 0.0
H1143 H 0.56302 0.37457 0.14723 0.0
H1144 H 0.52743 0.37072 0.91571 0.0
C1145 C 0.44691 0.38441 0.06629 0.0
C1146 C 0.4365 0.38674 0.14344 0.0
C1147 C 0.45027 0.38738 0.21429 0.0
C1148 C 0.47398 0.38527 0.2081 0.0
C1149 C 0.48355 0.38244 0.13078 0.0
C1150 C 0.4703 0.3821 0.06133 0.0
C1151 C 0.48414 0.37803 0.98537 0.0
C1152 C 0.47707 0.35553 0.94265 0.0
C1153 C 0.48255 0.39873 0.92698 0.0
C1154 C 0.5074 0.37606 0.0225 0.0
C1155 C 0.50694 0.37876 0.10626 0.0
C1156 C 0.52678 0.378 0.15257 0.0
C1157 C 0.54754 0.37472 0.11184 0.0
C1158 C 0.54819 0.37207 0.02583 0.0
C1159 C 0.52771 0.37251 0.98146 0.0
H1160 H 0.8793 0.43472 0.7222 0.0
H1161 H 0.87835 0.43918 0.98664 0.0
H1162 H 0.87593 0.4813 0.97819 0.0
H1163 H 0.91461 0.48419 0.69193 0.0
H1164 H 0.9003 0.49382 0.60099 0.0
H1165 H 0.90062 0.46365 0.62656 0.0
H1166 H 0.85681 0.46264 0.62154 0.0
H1167 H 0.85634 0.49281 0.59571 0.0
H1168 H 0.84081 0.48257 0.68313 0.0
H1169 H 0.8738 0.52243 0.94335 0.0
H1170 H 0.87356 0.56123 0.88346 0.0
H1171 H 0.87757 0.53146 0.64058 0.0
C1172 C 0.87833 0.44459 0.77817 0.0
C1173 C 0.87892 0.4336 0.85521 0.0
C1174 C 0.87799 0.44713 0.92707 0.0
C1175 C 0.87653 0.47111 0.92293 0.0
C1176 C 0.87623 0.48141 0.84643 0.0
C1177 C 0.8772 0.46872 0.7752 0.0
C1178 C 0.87756 0.48442 0.70113 0.0
C1179 C 0.89959 0.48133 0.65229 0.0
C1180 C 0.85663 0.48037 0.6472 0.0
C1181 C 0.87668 0.50784 0.74225 0.0
C1182 C 0.87571 0.50556 0.82606 0.0
C1183 C 0.87456 0.52451 0.8778 0.0
C1184 C 0.8744 0.54648 0.84308 0.0
C1185 C 0.87559 0.54939 0.75736 0.0
C1186 C 0.87679 0.52976 0.70632 0.0
H1187 H 0.52674 0.12707 0.40136 0.0
H1188 H 0.56161 0.14609 0.17762 0.0
H1189 H 0.52559 0.14452 0.10303 0.0
H1190 H 0.48829 0.08697 0.30921 0.0
H1191 H 0.46465 0.09467 0.37321 0.0
H1192 H 0.49316 0.09778 0.41084 0.0
H1193 H 0.48563 0.14085 0.44215 0.0
H1194 H 0.45707 0.13785 0.40501 0.0
H1195 H 0.47546 0.15946 0.36208 0.0
H1196 H 0.48632 0.14071 0.05159 0.0
H1197 H 0.44554 0.13587 0.02692 0.0
H1198 H 0.43567 0.11878 0.28276 0.0
C1199 C 0.52679 0.1311 0.33685 0.0
C1200 C 0.54709 0.1368 0.29567 0.0
C1201 C 0.54637 0.14175 0.21093 0.0
C1202 C 0.52597 0.14086 0.16775 0.0
C1203 C 0.50638 0.13495 0.20989 0.0
C1204 C 0.50653 0.13023 0.2925 0.0
C1205 C 0.48299 0.12417 0.32258 0.0
C1206 C 0.48224 0.09943 0.35592 0.0
C1207 C 0.47481 0.14163 0.38675 0.0
C1208 C 0.46967 0.12631 0.24388 0.0
C1209 C 0.48355 0.13251 0.17976 0.0
C1210 C 0.47523 0.13582 0.10123 0.0
C1211 C 0.452 0.13298 0.08787 0.0
C1212 C 0.43731 0.12685 0.15276 0.0
C1213 C 0.44641 0.1233 0.23166 0.0
H1214 H 0.112 0.55352 0.89463 0.0
H1215 H 0.11403 0.58164 0.64914 0.0
H1216 H 0.11457 0.54248 0.59253 0.0
H1217 H 0.15047 0.50576 0.85236 0.0
H1218 H 0.13568 0.48582 0.91764 0.0
H1219 H 0.13524 0.5162 0.94024 0.0
H1220 H 0.09139 0.51563 0.93965 0.0
H1221 H 0.09169 0.48527 0.91692 0.0
H1222 H 0.07662 0.50488 0.85123 0.0
H1223 H 0.11229 0.50109 0.56118 0.0
H1224 H 0.11113 0.45876 0.55643 0.0
H1225 H 0.11391 0.45607 0.82084 0.0
C1226 C 0.11261 0.55138 0.82904 0.0
C1227 C 0.11289 0.57068 0.77632 0.0
C1228 C 0.11388 0.56718 0.69082 0.0
C1229 C 0.11412 0.54498 0.65794 0.0
C1230 C 0.11374 0.52637 0.71127 0.0
C1231 C 0.11334 0.52921 0.79494 0.0
C1232 C 0.11356 0.50603 0.83795 0.0
C1233 C 0.13502 0.5033 0.89013 0.0
C1234 C 0.09203 0.50277 0.88948 0.0
C1235 C 0.11384 0.48984 0.76516 0.0
C1236 C 0.11368 0.50208 0.69286 0.0
C1237 C 0.11272 0.49126 0.61725 0.0
C1238 C 0.11199 0.46722 0.6152 0.0
C1239 C 0.11264 0.4542 0.68812 0.0
C1240 C 0.11371 0.46566 0.76418 0.0
H1241 H 0.46885 0.86984 0.32575 0.0
H1242 H 0.44033 0.86461 0.08204 0.0
H1243 H 0.47834 0.87086 0.02318 0.0
H1244 H 0.50887 0.91447 0.28141 0.0
H1245 H 0.53045 0.90275 0.34712 0.0
H1246 H 0.50101 0.89784 0.36985 0.0
H1247 H 0.50796 0.85374 0.37051 0.0
H1248 H 0.53744 0.85853 0.34833 0.0
H1249 H 0.52075 0.84028 0.28276 0.0
H1250 H 0.51996 0.87766 0.9911 0.0
H1251 H 0.56154 0.88278 0.9893 0.0
H1252 H 0.56191 0.88365 0.2544 0.0
C1253 C 0.4705 0.86991 0.25994 0.0
C1254 C 0.45151 0.86669 0.20867 0.0
C1255 C 0.45458 0.86699 0.12281 0.0
C1256 C 0.4761 0.8706 0.0887 0.0
C1257 C 0.4944 0.8739 0.14116 0.0
C1258 C 0.49179 0.87348 0.22495 0.0
C1259 C 0.51411 0.87724 0.26818 0.0
C1260 C 0.51357 0.89939 0.31966 0.0
C1261 C 0.52044 0.85619 0.3205 0.0
C1262 C 0.52974 0.87971 0.19565 0.0
C1263 C 0.51812 0.87785 0.12283 0.0
C1264 C 0.52922 0.8792 0.04783 0.0
C1265 C 0.55284 0.88217 0.04742 0.0
C1266 C 0.56511 0.8837 0.12161 0.0
C1267 C 0.55318 0.8827 0.19639 0.0
H1268 H 0.91146 0.95435 0.38169 0.0
H1269 H 0.84358 0.94275 0.47544 0.0
H1270 H 0.83521 0.98395 0.46126 0.0
H1271 H 0.92114 0.00636 0.48233 0.0
H1272 H 0.93623 0.02016 0.4002 0.0
H1273 H 0.9365 0.98927 0.40903 0.0
H1274 H 0.92107 0.98551 0.26165 0.0
H1275 H 0.92089 0.01645 0.25216 0.0
H1276 H 0.89534 1.00026 0.23382 0.0
H1277 H 0.8354 0.02639 0.4539 0.0
H1278 H 0.84341 0.06799 0.44379 0.0
H1279 H 0.91033 0.05289 0.34842 0.0
C1280 C 0.89468 0.96041 0.39747 0.0
C1281 C 0.87822 0.94526 0.42981 0.0
C1282 C 0.85654 0.95394 0.45072 0.0
C1283 C 0.85155 0.97736 0.44273 0.0
C1284 C 0.8683 0.99191 0.41281 0.0
C1285 C 0.88933 0.98383 0.3894 0.0
C1286 C 0.90457 0.0035 0.36292 0.0
C1287 C 0.92586 0.0049 0.41686 0.0
C1288 C 0.91083 1.00129 0.27223 0.0
C1289 C 0.88899 0.02384 0.37744 0.0
C1290 C 0.86815 0.01669 0.40614 0.0
C1291 C 0.85148 0.03224 0.43001 0.0
C1292 C 0.85623 0.05579 0.42454 0.0
C1293 C 0.87738 0.06355 0.39475 0.0
C1294 C 0.89386 0.04736 0.36995 0.0
H1295 H 0.96853 0.12868 0.39261 0.0
H1296 H 0.93471 0.12608 0.62774 0.0
H1297 H 0.97204 0.1229 0.69603 0.0
H1298 H 0.01173 0.08796 0.43689 0.0
H1299 H 0.03297 0.10323 0.37937 0.0
H1300 H 0.00362 0.10541 0.35076 0.0
H1301 H 0.00589 0.14993 0.36196 0.0
H1302 H 0.03525 0.14788 0.39043 0.0
H1303 H 0.01559 0.16287 0.45566 0.0
H1304 H 0.01423 0.11981 0.73741 0.0
H1305 H 0.05617 0.11821 0.74665 0.0
H1306 H 0.06021 0.12277 0.48251 0.0
C1307 C 0.96879 0.12747 0.45855 0.0
C1308 C 0.94861 0.12761 0.50469 0.0
C1309 C 0.94994 0.12603 0.59094 0.0
C1310 C 0.97106 0.12418 0.63026 0.0
C1311 C 0.99062 0.12396 0.58244 0.0
C1312 C 0.98953 0.12565 0.49841 0.0
C1313 C 0.01272 0.12519 0.45998 0.0
C1314 C 0.01541 0.10419 0.40344 0.0
C1315 C 0.01765 0.14781 0.41435 0.0
C1316 C 0.02718 0.12294 0.53538 0.0
C1317 C 0.01432 0.12222 0.60572 0.0
C1318 C 0.02441 0.12035 0.68256 0.0
C1319 C 0.04822 0.1194 0.68725 0.0
C1320 C 0.06157 0.12039 0.61545 0.0
C1321 C 0.05068 0.12201 0.53891 0.0
H1322 H 0.1198 0.94085 0.46879 0.0
H1323 H 0.11 0.94562 0.20704 0.0
H1324 H 0.11113 0.98827 0.2171 0.0
H1325 H 0.08371 0.98777 0.51971 0.0
H1326 H 0.10089 0.99703 0.60453 0.0
H1327 H 0.10063 0.96716 0.57493 0.0
H1328 H 0.14428 0.96792 0.55958 0.0
H1329 H 0.14466 0.99781 0.58904 0.0
H1330 H 0.15725 0.98903 0.49379 0.0
H1331 H 0.11434 0.03095 0.25795 0.0
H1332 H 0.11568 0.06907 0.3266 0.0
H1333 H 0.12044 0.03496 0.56128 0.0
C1334 C 0.1181 0.95078 0.41326 0.0
C1335 C 0.1151 0.9399 0.33692 0.0
C1336 C 0.11243 0.95361 0.26611 0.0
C1337 C 0.11312 0.97781 0.27127 0.0
C1338 C 0.11611 0.98795 0.34782 0.0
C1339 C 0.11828 0.97477 0.41757 0.0
C1340 C 0.12009 0.98957 0.4932 0.0
C1341 C 0.10014 0.98512 0.55149 0.0
C1342 C 0.14293 0.98586 0.53641 0.0
C1343 C 0.11869 0.01324 0.45537 0.0
C1344 C 0.11671 0.01209 0.37141 0.0
C1345 C 0.11572 0.03199 0.32368 0.0
C1346 C 0.11655 0.05353 0.36303 0.0
C1347 C 0.11793 0.0549 0.44913 0.0
C1348 C 0.11909 0.03445 0.4954 0.0
H1349 H 0.94112 0.88087 0.47116 0.0
H1350 H 0.95224 0.88564 0.73274 0.0
H1351 H 0.99345 0.88281 0.71024 0.0
H1352 H 0.98411 0.83966 0.43083 0.0
H1353 H 0.99222 0.8522 0.33459 0.0
H1354 H 0.96363 0.85535 0.37116 0.0
H1355 H 0.96702 0.89974 0.35946 0.0
H1356 H 0.99558 0.89672 0.32242 0.0
H1357 H 0.98992 0.91437 0.41057 0.0
H1358 H 0.03364 0.87849 0.65892 0.0
H1359 H 0.06947 0.8744 0.58242 0.0
H1360 H 0.0315 0.87243 0.35534 0.0
C1361 C 0.95215 0.88154 0.52388 0.0
C1362 C 0.94334 0.88355 0.60375 0.0
C1363 C 0.9585 0.88418 0.67087 0.0
C1364 C 0.98197 0.88254 0.65878 0.0
C1365 C 0.99002 0.88031 0.57929 0.0
C1366 C 0.97556 0.87994 0.513 0.0
C1367 C 0.98845 0.87719 0.43384 0.0
C1368 C 0.9817 0.85476 0.39006 0.0
C1369 C 0.98504 0.89826 0.37832 0.0
C1370 C 0.01243 0.87598 0.46595 0.0
C1371 C 0.01304 0.87779 0.54993 0.0
C1372 C 0.03337 0.8771 0.59309 0.0
C1373 C 0.05364 0.87471 0.54907 0.0
C1374 C 0.05339 0.87306 0.46275 0.0
C1375 C 0.0324 0.8736 0.42121 0.0
H1376 H 0.37095 0.30395 0.04219 0.0
H1377 H 0.37182 0.31434 0.30506 0.0
H1378 H 0.37003 0.27263 0.32607 0.0
H1379 H 0.33216 0.25621 0.0421 0.0
H1380 H 0.34645 0.24069 0.96195 0.0
H1381 H 0.34805 0.27166 0.96579 0.0
H1382 H 0.39186 0.26948 0.96671 0.0
H1383 H 0.39039 0.23851 0.96251 0.0
H1384 H 0.40593 0.25242 0.04334 0.0
H1385 H 0.36736 0.2302 0.32103 0.0
H1386 H 0.366 0.18883 0.28918 0.0
H1387 H 0.36734 0.20484 0.03002 0.0
C1388 C 0.37086 0.29745 0.10411 0.0
C1389 C 0.37144 0.31262 0.17177 0.0
C1390 C 0.37133 0.30328 0.25187 0.0
C1391 C 0.37028 0.27952 0.26473 0.0
C1392 C 0.36945 0.26513 0.1971 0.0
C1393 C 0.3699 0.2736 0.11833 0.0
C1394 C 0.36901 0.25408 0.05678 0.0
C1395 C 0.34764 0.25577 0.00352 0.0
C1396 C 0.39058 0.2536 0.00424 0.0
C1397 C 0.36792 0.23345 0.11358 0.0
C1398 C 0.36812 0.2403 0.19419 0.0
C1399 C 0.36724 0.22455 0.25811 0.0
C1400 C 0.36642 0.20104 0.23928 0.0
C1401 C 0.36654 0.19344 0.15707 0.0
C1402 C 0.36715 0.21 0.09352 0.0
H1403 H 0.19951 0.63251 0.73397 0.0
H1404 H 0.1823 0.63356 0.99107 0.0
H1405 H 0.22278 0.63644 0.02674 0.0
H1406 H 0.24784 0.59595 0.75824 0.0
H1407 H 0.26449 0.60977 0.68014 0.0
H1408 H 0.23405 0.60999 0.67366 0.0
H1409 H 0.23437 0.65454 0.66491 0.0
H1410 H 0.26484 0.65444 0.67119 0.0
H1411 H 0.24848 0.67096 0.74326 0.0
H1412 H 0.26451 0.63941 0.03512 0.0
H1413 H 0.30591 0.63857 0.01708 0.0
H1414 H 0.29711 0.63191 0.75514 0.0
C1415 C 0.20438 0.63367 0.79755 0.0
C1416 C 0.18794 0.63309 0.86004 0.0
C1417 C 0.19475 0.63406 0.94265 0.0
C1418 C 0.21765 0.63578 0.96339 0.0
C1419 C 0.23354 0.63608 0.9007 0.0
C1420 C 0.22732 0.63476 0.81949 0.0
C1421 C 0.24803 0.63368 0.76478 0.0
C1422 C 0.24863 0.61099 0.71636 0.0
C1423 C 0.24898 0.65466 0.70766 0.0
C1424 C 0.26676 0.63457 0.82807 0.0
C1425 C 0.25792 0.63636 0.90589 0.0
C1426 C 0.27167 0.63792 0.97459 0.0
C1427 C 0.29515 0.63749 0.96367 0.0
C1428 C 0.30464 0.63508 0.88481 0.0
C1429 C 0.29024 0.63358 0.81613 0.0
H1430 H 0.62743 0.80505 0.22611 0.0
H1431 H 0.6469 0.81677 0.97358 0.0
H1432 H 0.65138 0.77519 0.95351 0.0
H1433 H 0.66559 0.75678 0.26291 0.0
H1434 H 0.64548 0.74115 0.32437 0.0
H1435 H 0.64463 0.77217 0.3214 0.0
H1436 H 0.60258 0.77074 0.27661 0.0
H1437 H 0.6033 0.73974 0.27974 0.0
H1438 H 0.59478 0.75429 0.18759 0.0
H1439 H 0.65279 0.73276 0.9575 0.0
H1440 H 0.64948 0.69125 0.98456 0.0
H1441 H 0.629 0.70607 0.23395 0.0
C1442 C 0.63275 0.79886 0.16679 0.0
C1443 C 0.6368 0.81429 0.1016 0.0
C1444 C 0.64359 0.80542 0.02466 0.0
C1445 C 0.64631 0.78178 0.01252 0.0
C1446 C 0.64219 0.76709 0.0777 0.0
C1447 C 0.63546 0.77516 0.15324 0.0
C1448 C 0.63131 0.75537 0.21175 0.0
C1449 C 0.64774 0.75643 0.28441 0.0
C1450 C 0.60652 0.75502 0.24059 0.0
C1451 C 0.63652 0.73503 0.15672 0.0
C1452 C 0.64292 0.74227 0.07991 0.0
C1453 C 0.64792 0.72681 0.01754 0.0
C1454 C 0.64599 0.70324 0.03361 0.0
C1455 C 0.63905 0.6953 0.11147 0.0
C1456 C 0.63456 0.71151 0.17402 0.0
H1457 H 0.69843 0.38027 0.99693 0.0
H1458 H 0.68045 0.38045 0.74008 0.0
H1459 H 0.72069 0.37651 0.70321 0.0
H1460 H 0.74895 0.41458 0.97292 0.0
H1461 H 0.76473 0.39935 0.05002 0.0
H1462 H 0.73435 0.40118 0.05704 0.0
H1463 H 0.7318 0.35667 0.06381 0.0
H1464 H 0.76218 0.35471 0.05669 0.0
H1465 H 0.74461 0.33964 0.98426 0.0
H1466 H 0.7623 0.37151 0.69352 0.0
H1467 H 0.80367 0.36906 0.71089 0.0
H1468 H 0.79559 0.37475 0.97348 0.0
C1469 C 0.70302 0.37938 0.93303 0.0
C1470 C 0.68636 0.38053 0.87129 0.0
C1471 C 0.69296 0.37962 0.7883 0.0
C1472 C 0.71575 0.3773 0.76673 0.0
C1473 C 0.73178 0.37624 0.82885 0.0
C1474 C 0.72582 0.37752 0.91026 0.0
C1475 C 0.74662 0.37695 0.96455 0.0
C1476 C 0.74879 0.39935 0.01404 0.0
C1477 C 0.74627 0.35572 0.02063 0.0
C1478 C 0.76512 0.37506 0.90078 0.0
C1479 C 0.75609 0.37441 0.82303 0.0
C1480 C 0.76962 0.37214 0.75401 0.0
C1481 C 0.79308 0.37068 0.76456 0.0
C1482 C 0.8028 0.37182 0.84347 0.0
C1483 C 0.7886 0.37405 0.91242 0.0
H1484 H 0.86583 0.70572 0.54735 0.0
H1485 H 0.86626 0.69164 0.80796 0.0
H1486 H 0.86865 0.73311 0.83603 0.0
H1487 H 0.90562 0.75197 0.55304 0.0
H1488 H 0.89157 0.76889 0.47602 0.0
H1489 H 0.88903 0.73797 0.47511 0.0
H1490 H 0.84531 0.7415 0.47842 0.0
H1491 H 0.84771 0.77244 0.47903 0.0
H1492 H 0.83201 0.75802 0.55829 0.0
H1493 H 0.87215 0.7755 0.83733 0.0
H1494 H 0.87545 0.81703 0.81189 0.0
H1495 H 0.87273 0.80443 0.55043 0.0
C1496 C 0.86621 0.71134 0.61033 0.0
C1497 C 0.86578 0.69531 0.67535 0.0
C1498 C 0.8665 0.70347 0.75691 0.0
C1499 C 0.86789 0.72704 0.77366 0.0
C1500 C 0.86852 0.7423 0.70836 0.0
C1501 C 0.86761 0.73489 0.62834 0.0
C1502 C 0.8689 0.75507 0.56974 0.0
C1503 C 0.89004 0.75336 0.51528 0.0
C1504 C 0.84719 0.75686 0.51835 0.0
C1505 C 0.87079 0.77489 0.62959 0.0
C1506 C 0.87053 0.76705 0.70912 0.0
C1507 C 0.87228 0.78191 0.77535 0.0
C1508 C 0.87419 0.80552 0.76008 0.0
C1509 C 0.87431 0.81412 0.67907 0.0
C1510 C 0.87265 0.79848 0.61304 0.0
H1511 H 0.79752 0.1275 0.5013 0.0
H1512 H 0.8127 0.14063 0.24663 0.0
H1513 H 0.77202 0.14615 0.21835 0.0
H1514 H 0.74845 0.09375 0.46164 0.0
H1515 H 0.73274 0.10387 0.54886 0.0
H1516 H 0.76322 0.10338 0.5517 0.0
H1517 H 0.76381 0.14687 0.58697 0.0
H1518 H 0.7333 0.14749 0.5844 0.0
H1519 H 0.74936 0.16698 0.52132 0.0
H1520 H 0.73025 0.14968 0.21662 0.0
H1521 H 0.68907 0.14774 0.23809 0.0
H1522 H 0.69998 0.12922 0.49181 0.0
C1523 C 0.7922 0.13191 0.44002 0.0
C1524 C 0.80811 0.13394 0.37614 0.0
C1525 C 0.80067 0.13911 0.29623 0.0
C1526 C 0.77765 0.14236 0.27971 0.0
C1527 C 0.7623 0.14 0.34362 0.0
C1528 C 0.76915 0.13465 0.42201 0.0
C1529 C 0.74891 0.13126 0.47777 0.0
C1530 C 0.7483 0.1066 0.51198 0.0
C1531 C 0.74885 0.14923 0.54669 0.0
C1532 C 0.72969 0.1354 0.41822 0.0
C1533 C 0.73789 0.14081 0.34162 0.0
C1534 C 0.72358 0.14546 0.27627 0.0
C1535 C 0.7002 0.14436 0.28921 0.0
C1536 C 0.69133 0.13828 0.36659 0.0
C1537 C 0.70631 0.13382 0.43197 0.0
H1538 H 0.131 0.29867 0.53372 0.0
H1539 H 0.13806 0.31231 0.79327 0.0
H1540 H 0.13998 0.27043 0.81922 0.0
H1541 H 0.0951 0.25041 0.55234 0.0
H1542 H 0.10742 0.2349 0.46804 0.0
H1543 H 0.10806 0.26591 0.46928 0.0
H1544 H 0.15169 0.26523 0.45334 0.0
H1545 H 0.1512 0.2342 0.4517 0.0
H1546 H 0.16858 0.24913 0.52507 0.0
H1547 H 0.13925 0.22717 0.81727 0.0
H1548 H 0.1367 0.18569 0.78846 0.0
H1549 H 0.12997 0.20038 0.52952 0.0
C1550 C 0.13322 0.29298 0.59612 0.0
C1551 C 0.13445 0.3089 0.66151 0.0
C1552 C 0.13716 0.30053 0.74211 0.0
C1553 C 0.13825 0.27677 0.75745 0.0
C1554 C 0.13666 0.26163 0.69159 0.0
C1555 C 0.1343 0.26941 0.61251 0.0
C1556 C 0.13224 0.24959 0.55274 0.0
C1557 C 0.10934 0.25025 0.50799 0.0
C1558 C 0.15212 0.24954 0.49215 0.0
C1559 C 0.13359 0.22935 0.61069 0.0
C1560 C 0.1362 0.23669 0.69043 0.0
C1561 C 0.13735 0.22123 0.75506 0.0
C1562 C 0.13582 0.19765 0.73786 0.0
C1563 C 0.13316 0.18964 0.65652 0.0
C1564 C 0.13211 0.20584 0.59225 0.0
H1565 H 0.20415 0.87424 0.4279 0.0
H1566 H 0.18437 0.87222 0.17301 0.0
H1567 H 0.22405 0.86535 0.13334 0.0
H1568 H 0.25544 0.90564 0.39394 0.0
H1569 H 0.27126 0.8909 0.47213 0.0
H1570 H 0.24102 0.89384 0.4814 0.0
H1571 H 0.23716 0.84957 0.49572 0.0
H1572 H 0.26741 0.8465 0.48615 0.0
H1573 H 0.24884 0.83111 0.41794 0.0
H1574 H 0.26561 0.85868 0.1207 0.0
H1575 H 0.30717 0.85665 0.13468 0.0
H1576 H 0.30074 0.86563 0.39669 0.0
C1577 C 0.20822 0.87214 0.36389 0.0
C1578 C 0.19122 0.87358 0.30348 0.0
C1579 C 0.19716 0.87117 0.22021 0.0
C1580 C 0.21962 0.86714 0.19709 0.0
C1581 C 0.23602 0.86588 0.2579 0.0
C1582 C 0.23071 0.86859 0.33951 0.0
C1583 C 0.25186 0.86803 0.39192 0.0
C1584 C 0.25508 0.89097 0.43751 0.0
C1585 C 0.25127 0.84758 0.45144 0.0
C1586 C 0.26983 0.8647 0.3269 0.0
C1587 C 0.26025 0.86311 0.25021 0.0
C1588 C 0.27334 0.85993 0.1804 0.0
C1589 C 0.29692 0.85872 0.18899 0.0
C1590 C 0.30716 0.86106 0.26666 0.0
C1591 C 0.29337 0.86388 0.33647 0.0
H1592 H 0.19484 0.12533 0.87111 0.0
H1593 H 0.215 0.1293 0.61682 0.0
H1594 H 0.25506 0.13083 0.65789 0.0
H1595 H 0.23558 0.16557 0.94337 0.0
H1596 H 0.24113 0.15082 0.03805 0.0
H1597 H 0.21392 0.14798 0.98948 0.0
H1598 H 0.21827 0.10359 0.98868 0.0
H1599 H 0.24545 0.1063 0.03773 0.0
H1600 H 0.24301 0.09082 0.94279 0.0
H1601 H 0.29252 0.13303 0.72459 0.0
H1602 H 0.32578 0.13663 0.81439 0.0
H1603 H 0.28195 0.1331 0.02688 0.0
C1604 C 0.20776 0.12613 0.82432 0.0
C1605 C 0.2019 0.12707 0.74082 0.0
C1606 C 0.21917 0.12859 0.68113 0.0
C1607 C 0.24196 0.12941 0.70379 0.0
C1608 C 0.24722 0.12889 0.78646 0.0
C1609 C 0.23071 0.12734 0.84601 0.0
C1610 C 0.2411 0.12838 0.93059 0.0
C1611 C 0.23241 0.14945 0.97815 0.0
C1612 C 0.23669 0.10593 0.97771 0.0
C1613 C 0.26594 0.13092 0.90893 0.0
C1614 C 0.26904 0.13094 0.8254 0.0
C1615 C 0.29037 0.13302 0.79016 0.0
C1616 C 0.30915 0.13507 0.84169 0.0
C1617 C 0.30644 0.13525 0.92754 0.0
C1618 C 0.28451 0.1332 0.96145 0.0
H1619 H 0.08579 0.80691 0.10886 0.0
H1620 H 0.07739 0.78447 0.35979 0.0
H1621 H 0.07402 0.74425 0.31314 0.0
H1622 H 0.04688 0.7655 0.01678 0.0
H1623 H 0.06442 0.76118 0.92807 0.0
H1624 H 0.06486 0.78844 0.98069 0.0
H1625 H 0.10836 0.78508 0.99805 0.0
H1626 H 0.10801 0.75782 0.94564 0.0
H1627 H 0.1201 0.75987 0.04634 0.0
H1628 H 0.07347 0.70621 0.24031 0.0
H1629 H 0.07576 0.67311 0.14587 0.0
H1630 H 0.08446 0.72024 0.94255 0.0
C1631 C 0.08292 0.79358 0.1539 0.0
C1632 C 0.0817 0.7989 0.23798 0.0
C1633 C 0.07829 0.78088 0.29503 0.0
C1634 C 0.07633 0.75795 0.26915 0.0
C1635 C 0.07783 0.75326 0.18601 0.0
C1636 C 0.08102 0.77055 0.12916 0.0
C1637 C 0.08296 0.76074 0.04375 0.0
C1638 C 0.06362 0.76949 0.98911 0.0
C1639 C 0.10624 0.7662 0.00628 0.0
C1640 C 0.08049 0.73526 0.06161 0.0
C1641 C 0.0775 0.73131 0.144 0.0
C1642 C 0.07561 0.70909 0.17554 0.0
C1643 C 0.07695 0.6904 0.12145 0.0
C1644 C 0.08011 0.69405 0.03677 0.0
C1645 C 0.08174 0.71684 0.00677 0.0
H1646 H 0.69991 0.8766 0.87344 0.0
H1647 H 0.71817 0.87989 0.12953 0.0
H1648 H 0.75846 0.88302 0.09233 0.0
H1649 H 0.74607 0.84036 0.81636 0.0
H1650 H 0.7504 0.85358 0.7181 0.0
H1651 H 0.7227 0.85377 0.76393 0.0
H1652 H 0.72134 0.89825 0.75187 0.0
H1653 H 0.74906 0.89816 0.70589 0.0
H1654 H 0.74381 0.91524 0.79578 0.0
H1655 H 0.79652 0.88562 0.02876 0.0
H1656 H 0.83071 0.88419 0.94235 0.0
H1657 H 0.7885 0.87611 0.72733 0.0
C1658 C 0.71243 0.8783 0.92134 0.0
C1659 C 0.70602 0.87827 0.00431 0.0
C1660 C 0.7228 0.87997 0.06565 0.0
C1661 C 0.7457 0.88184 0.04514 0.0
C1662 C 0.75157 0.88161 0.96296 0.0
C1663 C 0.73551 0.87964 0.90191 0.0
C1664 C 0.74664 0.87814 0.81871 0.0
C1665 C 0.74112 0.85509 0.77684 0.0
C1666 C 0.7398 0.89867 0.7649 0.0
C1667 C 0.77139 0.87948 0.84287 0.0
C1668 C 0.77378 0.88186 0.92628 0.0
C1669 C 0.79492 0.88371 0.96334 0.0
C1670 C 0.81421 0.88292 0.91381 0.0
C1671 C 0.8122 0.8799 0.82843 0.0
C1672 C 0.7905 0.87822 0.79261 0.0
H1673 H 0.9097 0.18922 0.14308 0.0
H1674 H 0.93273 0.21514 0.37745 0.0
H1675 H 0.93579 0.25416 0.31928 0.0
H1676 H 0.94467 0.22739 0.0141 0.0
H1677 H 0.92253 0.23113 0.93955 0.0
H1678 H 0.92436 0.20472 0.99692 0.0
H1679 H 0.88294 0.21008 0.04526 0.0
H1680 H 0.88101 0.23652 0.98835 0.0
H1681 H 0.87496 0.2364 0.09614 0.0
H1682 H 0.93357 0.29045 0.24064 0.0
H1683 H 0.92604 0.32237 0.146 0.0
H1684 H 0.90409 0.27358 0.96122 0.0
C1685 C 0.91585 0.20302 0.18166 0.0
C1686 C 0.92117 0.19912 0.26469 0.0
C1687 C 0.92866 0.21771 0.31366 0.0
C1688 C 0.93051 0.23992 0.28112 0.0
C1689 C 0.9248 0.24326 0.19954 0.0
C1690 C 0.91765 0.22538 0.15027 0.0
C1691 C 0.91109 0.23402 0.06615 0.0
C1692 C 0.92659 0.2237 1.00029 0.0
C1693 C 0.88601 0.22895 0.04795 0.0
C1694 C 0.91527 0.25962 0.07648 0.0
C1695 C 0.92335 0.26446 0.15379 0.0
C1696 C 0.92747 0.28688 0.17966 0.0
C1697 C 0.92303 0.30491 0.12545 0.0
C1698 C 0.91451 0.30047 0.04611 0.0
C1699 C 0.91088 0.27747 0.02105 0.0
H1700 H 0.2145 0.37226 0.54696 0.0
H1701 H 0.17353 0.35999 0.3311 0.0
H1702 H 0.20792 0.36002 0.24627 0.0
H1703 H 0.2543 0.411 0.44926 0.0
H1704 H 0.27841 0.40051 0.50552 0.0
H1705 H 0.25058 0.3994 0.5504 0.0
H1706 H 0.25506 0.35553 0.57387 0.0
H1707 H 0.2829 0.35649 0.5291 0.0
H1708 H 0.26185 0.3371 0.48877 0.0
H1709 H 0.24605 0.3598 0.18566 0.0
H1710 H 0.28638 0.36108 0.14988 0.0
H1711 H 0.30351 0.37544 0.40262 0.0
C1712 C 0.21282 0.36952 0.48187 0.0
C1713 C 0.19137 0.36602 0.44555 0.0
C1714 C 0.18978 0.36275 0.36014 0.0
C1715 C 0.20921 0.3627 0.31145 0.0
C1716 C 0.23006 0.3662 0.34898 0.0
C1717 C 0.23207 0.36972 0.432 0.0
C1718 C 0.25663 0.37334 0.45616 0.0
C1719 C 0.26018 0.3975 0.49247 0.0
C1720 C 0.26457 0.35449 0.51548 0.0
C1721 C 0.26806 0.37105 0.37371 0.0
C1722 C 0.25232 0.36682 0.31309 0.0
C1723 C 0.25856 0.36326 0.23235 0.0
C1724 C 0.28154 0.36398 0.21275 0.0
C1725 C 0.29807 0.36846 0.27341 0.0
C1726 C 0.29121 0.3722 0.35495 0.0
H1727 H 0.40999 0.80409 0.56065 0.0
H1728 H 0.42663 0.77662 0.32147 0.0
H1729 H 0.42933 0.73767 0.38003 0.0
H1730 H 0.44687 0.7657 0.67819 0.0
H1731 H 0.4269 0.76276 0.76069 0.0
H1732 H 0.42755 0.78884 0.70115 0.0
H1733 H 0.38489 0.78401 0.66854 0.0
H1734 H 0.38415 0.75789 0.72773 0.0
H1735 H 0.37506 0.7576 0.62274 0.0
H1736 H 0.42802 0.70148 0.46163 0.0
H1737 H 0.42351 0.67027 0.56235 0.0
H1738 H 0.40815 0.72083 0.74969 0.0
C1739 C 0.41452 0.78993 0.52082 0.0
C1740 C 0.41823 0.79348 0.43645 0.0
C1741 C 0.42382 0.77442 0.3863 0.0
C1742 C 0.4254 0.75219 0.41897 0.0
C1743 C 0.4214 0.74924 0.50202 0.0
C1744 C 0.41617 0.76756 0.55247 0.0
C1745 C 0.41189 0.75946 0.63912 0.0
C1746 C 0.42935 0.76981 0.69827 0.0
C1747 C 0.38755 0.76507 0.66608 0.0
C1748 C 0.4153 0.73372 0.6291 0.0
C1749 C 0.42081 0.72824 0.5495 0.0
C1750 C 0.42393 0.70555 0.52435 0.0
C1751 C 0.42127 0.68794 0.582 0.0
C1752 C 0.41563 0.6931 0.66401 0.0
C1753 C 0.41277 0.71635 0.68774 0.0
H1754 H 0.71441 0.63393 0.23182 0.0
H1755 H 0.66974 0.63445 0.44238 0.0
H1756 H 0.7029 0.63518 0.53358 0.0
H1757 H 0.75751 0.59697 0.3218 0.0
H1758 H 0.78066 0.61211 0.27429 0.0
H1759 H 0.75338 0.61115 0.22509 0.0
H1760 H 0.75268 0.65572 0.21916 0.0
H1761 H 0.77989 0.65684 0.2686 0.0
H1762 H 0.75616 0.67205 0.31192 0.0
H1763 H 0.74041 0.63786 0.60172 0.0
H1764 H 0.78035 0.64024 0.64377 0.0
H1765 H 0.80124 0.63664 0.38998 0.0
C1766 C 0.71161 0.63411 0.29713 0.0
C1767 C 0.68947 0.6342 0.32999 0.0
C1768 C 0.68652 0.63432 0.41577 0.0
C1769 C 0.70525 0.63477 0.46812 0.0
C1770 C 0.72682 0.63489 0.4338 0.0
C1771 C 0.73015 0.63435 0.35041 0.0
C1772 C 0.75517 0.63461 0.32963 0.0
C1773 C 0.76208 0.61239 0.28508 0.0
C1774 C 0.76133 0.65609 0.27936 0.0
C1775 C 0.76535 0.63568 0.41445 0.0
C1776 C 0.74863 0.63589 0.47347 0.0
C1777 C 0.75368 0.63754 0.55618 0.0
C1778 C 0.77643 0.63898 0.57938 0.0
C1779 C 0.79391 0.63859 0.52017 0.0
C1780 C 0.78824 0.63682 0.4366 0.0
H1781 H 0.58314 0.2208 0.49711 0.0
H1782 H 0.57896 0.17207 0.69759 0.0
H1783 H 0.57749 0.20433 0.79538 0.0
H1784 H 0.61932 0.2606 0.59653 0.0
H1785 H 0.60613 0.28583 0.55361 0.0
H1786 H 0.60546 0.25897 0.49868 0.0
H1787 H 0.5617 0.26108 0.49146 0.0
H1788 H 0.56222 0.28799 0.54622 0.0
H1789 H 0.54561 0.26426 0.58426 0.0
H1790 H 0.57829 0.2416 0.87181 0.0
H1791 H 0.5808 0.28157 0.92197 0.0
H1792 H 0.58439 0.3062 0.67206 0.0
C1793 C 0.58158 0.2169 0.56148 0.0
C1794 C 0.58104 0.19389 0.58965 0.0
C1795 C 0.57935 0.18955 0.67451 0.0
C1796 C 0.57848 0.20775 0.73058 0.0
C1797 C 0.57932 0.2302 0.70089 0.0
C1798 C 0.58076 0.23487 0.61838 0.0
C1799 C 0.58221 0.26056 0.60282 0.0
C1800 C 0.60461 0.26685 0.56042 0.0
C1801 C 0.56171 0.26896 0.55327 0.0
C1802 C 0.5815 0.26957 0.68956 0.0
C1803 C 0.57979 0.25176 0.74511 0.0
C1804 C 0.57945 0.25572 0.82892 0.0
C1805 C 0.58091 0.27849 0.85679 0.0
C1806 C 0.58266 0.29705 0.80102 0.0
C1807 C 0.58288 0.29243 0.71628 0.0
loop_
_geom_bond_atom_site_label_1
_geom_bond_atom_site_label_2
_geom_bond_distance
_geom_bond_site_symmetry_2
_ccdc_geom_bond_type
Co0 O2 2.143 . S
Co0 O8 2.074 . S
Co0 O11 2.093 . S
Co0 O24 2.097 . S
Co0 N41 2.151 . S
Co0 N49 2.214 . S
Co1 O2 2.160 1_556 S
Co1 O7 2.058 1_556 S
Co1 O17 2.057 . S
Co1 O32 2.037 1_556 S
Co1 N36 2.145 . S
Co1 N57 2.257 . S
O2 Co0 2.143 . S
O2 Co1 2.160 1_554 S
C3 O4 1.278 . S
C3 O11 1.224 . S
O4 C3 1.278 . S
C5 O6 1.245 1_556 S
C5 O17 1.232 . S
O6 C5 1.245 1_554 S
O7 Co1 2.058 1_554 S
O7 C33 1.269 . S
O8 Co0 2.074 . S
O8 C33 1.257 . S
H9 C34 0.930 . S
H10 C40 0.930 . S
O11 Co0 2.093 . S
O11 C3 1.224 . S
H12 C44 0.929 . S
H13 C46 0.930 . S
H14 C47 0.930 . S
H15 C45 0.929 . S
H16 C48 0.928 . S
O17 Co1 2.057 . S
O17 C5 1.232 . S
H18 C37 0.929 . S
H19 C38 0.929 . S
H20 C50 0.931 . S
H21 C42 0.929 . S
H22 C51 0.930 . S
H23 C43 0.931 . S
O24 Co0 2.097 . S
O24 C52 1.214 . S
H25 C53 0.929 . S
H26 C54 0.929 . S
H27 C55 0.930 . S
H28 C56 0.929 . S
H29 C58 0.930 . S
H30 C35 0.930 . S
H31 C39 0.930 . S
O32 Co1 2.037 1_554 S
O32 C52 1.234 . S
C33 O7 1.269 . S
C33 O8 1.257 . S
C34 H9 0.930 . S
C34 C37 1.388 . S
C34 C39 1.418 . S
C35 H30 0.930 . S
C35 C38 1.404 . S
C35 C39 1.353 . S
N36 Co1 2.145 . S
N36 C37 1.397 . S
N36 C38 1.334 . S
C37 H18 0.929 . S
C37 C34 1.388 . S
C37 N36 1.397 . S
C38 H19 0.929 . S
C38 C35 1.404 . S
C38 N36 1.334 . S
C39 H31 0.930 . S
C39 C34 1.418 . S
C39 C35 1.353 . S
C40 H10 0.930 . S
C40 N41 1.330 . S
C40 C42 1.446 . S
N41 Co0 2.151 . S
N41 C40 1.330 . S
N41 C45 1.418 . S
C42 H21 0.929 . S
C42 C40 1.446 . S
C42 C43 1.332 . S
C43 H23 0.931 . S
C43 C42 1.332 . S
C43 C44 1.267 . S
C44 H12 0.929 . S
C44 C43 1.267 . S
C44 C45 1.251 . S
C45 H15 0.929 . S
C45 N41 1.418 . S
C45 C44 1.251 . S
C46 H13 0.930 . S
C46 C48 1.406 . S
C46 C51 1.261 . S
C47 H14 0.930 . S
C47 N49 1.325 . S
C47 C50 1.357 . S
C48 H16 0.928 . S
C48 C46 1.406 . S
C48 N49 1.261 . S
N49 Co0 2.214 . S
N49 C47 1.325 . S
N49 C48 1.261 . S
C50 H20 0.931 . S
C50 C47 1.357 . S
C50 C51 1.312 . S
C51 H22 0.930 . S
C51 C46 1.261 . S
C51 C50 1.312 . S
C52 O24 1.214 . S
C52 O32 1.234 . S
C53 H25 0.929 . S
C53 C56 1.391 . S
C53 C58 1.391 . S
C54 H26 0.929 . S
C54 C55 1.390 . S
C54 N57 1.391 . S
C55 H27 0.930 . S
C55 C54 1.390 . S
C55 C56 1.392 . S
C56 H28 0.929 . S
C56 C53 1.391 . S
C56 C55 1.392 . S
N57 Co1 2.257 . S
N57 C54 1.391 . S
N57 C58 1.388 . S
C58 H29 0.930 . S
C58 C53 1.391 . S
C58 N57 1.388 . S
Co59 O61 2.143 . S
Co59 O67 2.074 . S
Co59 O70 2.093 . S
Co59 O83 2.097 . S
Co59 N100 2.151 . S
Co59 N108 2.214 . S
Co60 O61 2.160 . S
Co60 O66 2.058 . S
Co60 O76 2.057 1_556 S
Co60 O91 2.037 . S
Co60 N95 2.145 1_556 S
Co60 N116 2.257 1_556 S
O61 Co59 2.143 . S
O61 Co60 2.160 . S
C62 O63 1.278 . S
C62 O70 1.224 . S
O63 C62 1.278 . S
C64 O65 1.245 1_554 S
C64 O76 1.232 . S
O65 C64 1.245 1_556 S
O66 Co60 2.058 . S
O66 C92 1.269 . S
O67 Co59 2.074 . S
O67 C92 1.257 . S
H68 C93 0.930 . S
H69 C99 0.930 . S
O70 Co59 2.093 . S
O70 C62 1.224 . S
H71 C103 0.929 . S
H72 C105 0.930 . S
H73 C106 0.930 . S
H74 C104 0.929 . S
H75 C107 0.928 . S
O76 Co60 2.057 1_554 S
O76 C64 1.232 . S
H77 C96 0.929 1_556 S
H78 C97 0.929 . S
H79 C109 0.931 . S
H80 C101 0.929 . S
H81 C110 0.930 . S
H82 C102 0.931 . S
O83 Co59 2.097 . S
O83 C111 1.214 . S
H84 C112 0.929 . S
H85 C113 0.929 . S
H86 C114 0.930 . S
H87 C115 0.929 . S
H88 C117 0.930 . S
H89 C94 0.930 . S
H90 C98 0.930 . S
O91 Co60 2.037 . S
O91 C111 1.234 . S
C92 O66 1.269 . S
C92 O67 1.257 . S
C93 H68 0.930 . S
C93 C96 1.388 . S
C93 C98 1.418 . S
C94 H89 0.930 . S
C94 C97 1.404 . S
C94 C98 1.353 . S
N95 Co60 2.145 1_554 S
N95 C96 1.397 . S
N95 C97 1.334 . S
C96 H77 0.929 1_554 S
C96 C93 1.388 . S
C96 N95 1.397 . S
C97 H78 0.929 . S
C97 C94 1.404 . S
C97 N95 1.334 . S
C98 H90 0.930 . S
C98 C93 1.418 . S
C98 C94 1.353 . S
C99 H69 0.930 . S
C99 N100 1.330 . S
C99 C101 1.446 . S
N100 Co59 2.151 . S
N100 C99 1.330 . S
N100 C104 1.418 . S
C101 H80 0.929 . S
C101 C99 1.446 . S
C101 C102 1.332 . S
C102 H82 0.931 . S
C102 C101 1.332 . S
C102 C103 1.267 . S
C103 H71 0.929 . S
C103 C102 1.267 . S
C103 C104 1.251 . S
C104 H74 0.929 . S
C104 N100 1.418 . S
C104 C103 1.251 . S
C105 H72 0.930 . S
C105 C107 1.406 . S
C105 C110 1.261 . S
C106 H73 0.930 . S
C106 N108 1.325 . S
C106 C109 1.357 . S
C107 H75 0.928 . S
C107 C105 1.406 . S
C107 N108 1.261 . S
N108 Co59 2.214 . S
N108 C106 1.325 . S
N108 C107 1.261 . S
C109 H79 0.931 . S
C109 C106 1.357 . S
C109 C110 1.312 . S
C110 H81 0.930 . S
C110 C105 1.261 . S
C110 C109 1.312 . S
C111 O83 1.214 . S
C111 O91 1.234 . S
C112 H84 0.929 . S
C112 C115 1.391 . S
C112 C117 1.391 . S
C113 H85 0.929 . S
C113 C114 1.390 . S
C113 N116 1.391 . S
C114 H86 0.930 . S
C114 C113 1.390 . S
C114 C115 1.392 . S
C115 H87 0.929 . S
C115 C112 1.391 . S
C115 C114 1.392 . S
N116 Co60 2.257 1_554 S
N116 C113 1.391 . S
N116 C117 1.388 . S
C117 H88 0.930 . S
C117 C112 1.391 . S
C117 N116 1.388 . S
Co118 O120 2.143 . S
Co118 O126 2.074 . S
Co118 O129 2.093 . S
Co118 O142 2.097 . S
Co118 N159 2.151 . S
Co118 N167 2.214 . S
Co119 O120 2.160 1_556 S
Co119 O125 2.058 1_556 S
Co119 O135 2.057 . S
Co119 O150 2.037 1_556 S
Co119 N154 2.145 . S
Co119 N175 2.257 . S
O120 Co118 2.143 . S
O120 Co119 2.160 1_554 S
C121 O122 1.278 . S
C121 O129 1.224 . S
O122 C121 1.278 . S
C123 O124 1.245 1_556 S
C123 O135 1.232 . S
O124 C123 1.245 1_554 S
O125 Co119 2.058 1_554 S
O125 C151 1.269 . S
O126 Co118 2.074 . S
O126 C151 1.257 . S
H127 C152 0.930 . S
H128 C158 0.930 . S
O129 Co118 2.093 . S
O129 C121 1.224 . S
H130 C162 0.929 . S
H131 C164 0.930 . S
H132 C165 0.930 . S
H133 C163 0.929 . S
H134 C166 0.928 . S
O135 Co119 2.057 . S
O135 C123 1.232 . S
H136 C155 0.929 . S
H137 C156 0.929 . S
H138 C168 0.931 . S
H139 C160 0.929 . S
H140 C169 0.930 . S
H141 C161 0.931 . S
O142 Co118 2.097 . S
O142 C170 1.214 . S
H143 C171 0.929 . S
H144 C172 0.929 . S
H145 C173 0.930 . S
H146 C174 0.929 . S
H147 C176 0.930 . S
H148 C153 0.930 . S
H149 C157 0.930 . S
O150 Co119 2.037 1_554 S
O150 C170 1.234 . S
C151 O125 1.269 . S
C151 O126 1.257 . S
C152 H127 0.930 . S
C152 C155 1.388 . S
C152 C157 1.418 . S
C153 H148 0.930 . S
C153 C156 1.404 . S
C153 C157 1.353 . S
N154 Co119 2.145 . S
N154 C155 1.397 . S
N154 C156 1.334 . S
C155 H136 0.929 . S
C155 C152 1.388 . S
C155 N154 1.397 . S
C156 H137 0.929 . S
C156 C153 1.404 . S
C156 N154 1.334 . S
C157 H149 0.930 . S
C157 C152 1.418 . S
C157 C153 1.353 . S
C158 H128 0.930 . S
C158 N159 1.330 . S
C158 C160 1.446 . S
N159 Co118 2.151 . S
N159 C158 1.330 . S
N159 C163 1.418 . S
C160 H139 0.929 . S
C160 C158 1.446 . S
C160 C161 1.332 . S
C161 H141 0.931 . S
C161 C160 1.332 . S
C161 C162 1.267 . S
C162 H130 0.929 . S
C162 C161 1.267 . S
C162 C163 1.251 . S
C163 H133 0.929 . S
C163 N159 1.418 . S
C163 C162 1.251 . S
C164 H131 0.930 . S
C164 C166 1.406 . S
C164 C169 1.261 . S
C165 H132 0.930 . S
C165 N167 1.325 . S
C165 C168 1.357 . S
C166 H134 0.928 . S
C166 C164 1.406 . S
C166 N167 1.261 . S
N167 Co118 2.214 . S
N167 C165 1.325 . S
N167 C166 1.261 . S
C168 H138 0.931 . S
C168 C165 1.357 . S
C168 C169 1.312 . S
C169 H140 0.930 . S
C169 C164 1.261 . S
C169 C168 1.312 . S
C170 O142 1.214 . S
C170 O150 1.234 . S
C171 H143 0.929 . S
C171 C174 1.391 . S
C171 C176 1.391 . S
C172 H144 0.929 . S
C172 C173 1.390 . S
C172 N175 1.391 . S
C173 H145 0.930 . S
C173 C172 1.390 . S
C173 C174 1.392 . S
C174 H146 0.929 . S
C174 C171 1.391 . S
C174 C173 1.392 . S
N175 Co119 2.257 . S
N175 C172 1.391 . S
N175 C176 1.388 . S
C176 H147 0.930 . S
C176 C171 1.391 . S
C176 N175 1.388 . S
Co177 O179 2.143 . S
Co177 O185 2.074 . S
Co177 O188 2.093 . S
Co177 O201 2.097 . S
Co177 N218 2.151 . S
Co177 N226 2.214 . S
Co178 O179 2.160 . S
Co178 O184 2.058 . S
Co178 O194 2.057 1_556 S
Co178 O209 2.037 . S
Co178 N213 2.145 1_556 S
Co178 N234 2.257 1_556 S
O179 Co177 2.143 . S
O179 Co178 2.160 . S
C180 O181 1.278 . S
C180 O188 1.224 . S
O181 C180 1.278 . S
C182 O183 1.245 1_554 S
C182 O194 1.232 . S
O183 C182 1.245 1_556 S
O184 Co178 2.058 . S
O184 C210 1.269 . S
O185 Co177 2.074 . S
O185 C210 1.257 . S
H186 C211 0.930 . S
H187 C217 0.930 . S
O188 Co177 2.093 . S
O188 C180 1.224 . S
H189 C221 0.929 . S
H190 C223 0.930 . S
H191 C224 0.930 . S
H192 C222 0.929 . S
H193 C225 0.928 . S
O194 Co178 2.057 1_554 S
O194 C182 1.232 . S
H195 C214 0.929 1_556 S
H196 C215 0.929 . S
H197 C227 0.931 . S
H198 C219 0.929 . S
H199 C228 0.930 . S
H200 C220 0.931 . S
O201 Co177 2.097 . S
O201 C229 1.214 . S
H202 C230 0.929 . S
H203 C231 0.929 . S
H204 C232 0.930 . S
H205 C233 0.929 . S
H206 C235 0.930 . S
H207 C212 0.930 . S
H208 C216 0.930 . S
O209 Co178 2.037 . S
O209 C229 1.234 . S
C210 O184 1.269 . S
C210 O185 1.257 . S
C211 H186 0.930 . S
C211 C214 1.388 . S
C211 C216 1.418 . S
C212 H207 0.930 . S
C212 C215 1.404 . S
C212 C216 1.353 . S
N213 Co178 2.145 1_554 S
N213 C214 1.397 . S
N213 C215 1.334 . S
C214 H195 0.929 1_554 S
C214 C211 1.388 . S
C214 N213 1.397 . S
C215 H196 0.929 . S
C215 C212 1.404 . S
C215 N213 1.334 . S
C216 H208 0.930 . S
C216 C211 1.418 . S
C216 C212 1.353 . S
C217 H187 0.930 . S
C217 N218 1.330 . S
C217 C219 1.446 . S
N218 Co177 2.151 . S
N218 C217 1.330 . S
N218 C222 1.418 . S
C219 H198 0.929 . S
C219 C217 1.446 . S
C219 C220 1.332 . S
C220 H200 0.931 . S
C220 C219 1.332 . S
C220 C221 1.267 . S
C221 H189 0.929 . S
C221 C220 1.267 . S
C221 C222 1.251 . S
C222 H192 0.929 . S
C222 N218 1.418 . S
C222 C221 1.251 . S
C223 H190 0.930 . S
C223 C225 1.406 . S
C223 C228 1.261 . S
C224 H191 0.930 . S
C224 N226 1.325 . S
C224 C227 1.357 . S
C225 H193 0.928 . S
C225 C223 1.406 . S
C225 N226 1.261 . S
N226 Co177 2.214 . S
N226 C224 1.325 . S
N226 C225 1.261 . S
C227 H197 0.931 . S
C227 C224 1.357 . S
C227 C228 1.312 . S
C228 H199 0.930 . S
C228 C223 1.261 . S
C228 C227 1.312 . S
C229 O201 1.214 . S
C229 O209 1.234 . S
C230 H202 0.929 . S
C230 C233 1.391 . S
C230 C235 1.391 . S
C231 H203 0.929 . S
C231 C232 1.390 . S
C231 N234 1.391 . S
C232 H204 0.930 . S
C232 C231 1.390 . S
C232 C233 1.392 . S
C233 H205 0.929 . S
C233 C230 1.391 . S
C233 C232 1.392 . S
N234 Co178 2.257 1_554 S
N234 C231 1.391 . S
N234 C235 1.388 . S
C235 H206 0.930 . S
C235 C230 1.391 . S
C235 N234 1.388 . S
Co236 O238 2.143 . S
Co236 O244 2.074 . S
Co236 O247 2.093 . S
Co236 O260 2.097 . S
Co236 N277 2.151 . S
Co236 N285 2.214 1_554 S
Co237 O238 2.160 . S
Co237 O243 2.058 . S
Co237 O253 2.057 . S
Co237 O268 2.037 . S
Co237 N272 2.145 . S
Co237 N293 2.257 . S
O238 Co236 2.143 . S
O238 Co237 2.160 . S
C239 O240 1.278 . S
C239 O247 1.224 . S
O240 C239 1.278 . S
C241 O242 1.245 . S
C241 O253 1.232 . S
O242 C241 1.245 . S
O243 Co237 2.058 . S
O243 C269 1.269 . S
O244 Co236 2.074 . S
O244 C269 1.257 . S
H245 C270 0.930 . S
H246 C276 0.930 . S
O247 Co236 2.093 . S
O247 C239 1.224 . S
H248 C280 0.929 . S
H249 C282 0.930 . S
H250 C283 0.930 1_554 S
H251 C281 0.929 . S
H252 C284 0.928 . S
O253 Co237 2.057 . S
O253 C241 1.232 . S
H254 C273 0.929 . S
H255 C274 0.929 . S
H256 C286 0.931 . S
H257 C278 0.929 . S
H258 C287 0.930 . S
H259 C279 0.931 . S
O260 Co236 2.097 . S
O260 C288 1.214 . S
H261 C289 0.929 . S
H262 C290 0.929 . S
H263 C291 0.930 . S
H264 C292 0.929 . S
H265 C294 0.930 . S
H266 C271 0.930 . S
H267 C275 0.930 . S
O268 Co237 2.037 . S
O268 C288 1.234 . S
C269 O243 1.269 . S
C269 O244 1.257 . S
C270 H245 0.930 . S
C270 C273 1.388 . S
C270 C275 1.418 . S
C271 H266 0.930 . S
C271 C274 1.404 . S
C271 C275 1.353 . S
N272 Co237 2.145 . S
N272 C273 1.397 . S
N272 C274 1.334 . S
C273 H254 0.929 . S
C273 C270 1.388 . S
C273 N272 1.397 . S
C274 H255 0.929 . S
C274 C271 1.404 . S
C274 N272 1.334 . S
C275 H267 0.930 . S
C275 C270 1.418 . S
C275 C271 1.353 . S
C276 H246 0.930 . S
C276 N277 1.330 . S
C276 C278 1.446 1_554 S
N277 Co236 2.151 . S
N277 C276 1.330 . S
N277 C281 1.418 1_554 S
C278 H257 0.929 . S
C278 C276 1.446 1_556 S
C278 C279 1.332 . S
C279 H259 0.931 . S
C279 C278 1.332 . S
C279 C280 1.267 . S
C280 H248 0.929 . S
C280 C279 1.267 . S
C280 C281 1.251 . S
C281 H251 0.929 . S
C281 N277 1.418 1_556 S
C281 C280 1.251 . S
C282 H249 0.930 . S
C282 C284 1.406 . S
C282 C287 1.261 . S
C283 H250 0.930 1_556 S
C283 N285 1.325 . S
C283 C286 1.357 . S
C284 H252 0.928 . S
C284 C282 1.406 . S
C284 N285 1.261 . S
N285 Co236 2.214 1_556 S
N285 C283 1.325 . S
N285 C284 1.261 . S
C286 H256 0.931 . S
C286 C283 1.357 . S
C286 C287 1.312 . S
C287 H258 0.930 . S
C287 C282 1.261 . S
C287 C286 1.312 . S
C288 O260 1.214 . S
C288 O268 1.234 . S
C289 H261 0.929 . S
C289 C292 1.391 . S
C289 C294 1.391 . S
C290 H262 0.929 . S
C290 C291 1.390 . S
C290 N293 1.391 . S
C291 H263 0.930 . S
C291 C290 1.390 . S
C291 C292 1.392 . S
C292 H264 0.929 . S
C292 C289 1.391 . S
C292 C291 1.392 . S
N293 Co237 2.257 . S
N293 C290 1.391 . S
N293 C294 1.388 . S
C294 H265 0.930 . S
C294 C289 1.391 . S
C294 N293 1.388 . S
Co295 O297 2.143 . S
Co295 O303 2.074 . S
Co295 O306 2.093 . S
Co295 O319 2.097 . S
Co295 N336 2.151 1_556 S
Co295 N344 2.214 1_556 S
Co296 O297 2.160 . S
Co296 O302 2.058 . S
Co296 O312 2.057 . S
Co296 O327 2.037 . S
Co296 N331 2.145 . S
Co296 N352 2.257 . S
O297 Co295 2.143 . S
O297 Co296 2.160 . S
C298 O299 1.278 . S
C298 O306 1.224 . S
O299 C298 1.278 . S
C300 O301 1.245 . S
C300 O312 1.232 . S
O301 C300 1.245 . S
O302 Co296 2.058 . S
O302 C328 1.269 . S
O303 Co295 2.074 . S
O303 C328 1.257 . S
H304 C329 0.930 . S
H305 C335 0.930 1_556 S
O306 Co295 2.093 . S
O306 C298 1.224 . S
H307 C339 0.929 . S
H308 C341 0.930 . S
H309 C342 0.930 . S
H310 C340 0.929 . S
H311 C343 0.928 . S
O312 Co296 2.057 . S
O312 C300 1.232 . S
H313 C332 0.929 . S
H314 C333 0.929 . S
H315 C345 0.931 . S
H316 C337 0.929 . S
H317 C346 0.930 . S
H318 C338 0.931 . S
O319 Co295 2.097 . S
O319 C347 1.214 . S
H320 C348 0.929 . S
H321 C349 0.929 . S
H322 C350 0.930 . S
H323 C351 0.929 . S
H324 C353 0.930 . S
H325 C330 0.930 . S
H326 C334 0.930 . S
O327 Co296 2.037 . S
O327 C347 1.234 . S
C328 O302 1.269 . S
C328 O303 1.257 . S
C329 H304 0.930 . S
C329 C332 1.388 . S
C329 C334 1.418 . S
C330 H325 0.930 . S
C330 C333 1.404 . S
C330 C334 1.353 . S
N331 Co296 2.145 . S
N331 C332 1.397 . S
N331 C333 1.334 . S
C332 H313 0.929 . S
C332 C329 1.388 . S
C332 N331 1.397 . S
C333 H314 0.929 . S
C333 C330 1.404 . S
C333 N331 1.334 . S
C334 H326 0.930 . S
C334 C329 1.418 . S
C334 C330 1.353 . S
C335 H305 0.930 1_554 S
C335 N336 1.330 . S
C335 C337 1.446 . S
N336 Co295 2.151 1_554 S
N336 C335 1.330 . S
N336 C340 1.418 . S
C337 H316 0.929 . S
C337 C335 1.446 . S
C337 C338 1.332 . S
C338 H318 0.931 . S
C338 C337 1.332 . S
C338 C339 1.267 . S
C339 H307 0.929 . S
C339 C338 1.267 . S
C339 C340 1.251 . S
C340 H310 0.929 . S
C340 N336 1.418 . S
C340 C339 1.251 . S
C341 H308 0.930 . S
C341 C343 1.406 . S
C341 C346 1.261 . S
C342 H309 0.930 . S
C342 N344 1.325 . S
C342 C345 1.357 . S
C343 H311 0.928 . S
C343 C341 1.406 . S
C343 N344 1.261 . S
N344 Co295 2.214 1_554 S
N344 C342 1.325 . S
N344 C343 1.261 . S
C345 H315 0.931 . S
C345 C342 1.357 . S
C345 C346 1.312 . S
C346 H317 0.930 . S
C346 C341 1.261 . S
C346 C345 1.312 . S
C347 O319 1.214 . S
C347 O327 1.234 . S
C348 H320 0.929 . S
C348 C351 1.391 . S
C348 C353 1.391 . S
C349 H321 0.929 . S
C349 C350 1.390 . S
C349 N352 1.391 . S
C350 H322 0.930 . S
C350 C349 1.390 . S
C350 C351 1.392 . S
C351 H323 0.929 . S
C351 C348 1.391 . S
C351 C350 1.392 . S
N352 Co296 2.257 . S
N352 C349 1.391 . S
N352 C353 1.388 . S
C353 H324 0.930 . S
C353 C348 1.391 . S
C353 N352 1.388 . S
Co354 O356 2.143 . S
Co354 O362 2.074 . S
Co354 O365 2.093 . S
Co354 O378 2.097 . S
Co354 N395 2.151 . S
Co354 N403 2.214 1_554 S
Co355 O356 2.160 . S
Co355 O361 2.058 . S
Co355 O371 2.057 . S
Co355 O386 2.037 . S
Co355 N390 2.145 . S
Co355 N411 2.257 . S
O356 Co354 2.143 . S
O356 Co355 2.160 . S
C357 O358 1.278 . S
C357 O365 1.224 . S
O358 C357 1.278 . S
C359 O360 1.245 . S
C359 O371 1.232 . S
O360 C359 1.245 . S
O361 Co355 2.058 . S
O361 C387 1.269 . S
O362 Co354 2.074 . S
O362 C387 1.257 . S
H363 C388 0.930 . S
H364 C394 0.930 . S
O365 Co354 2.093 . S
O365 C357 1.224 . S
H366 C398 0.929 . S
H367 C400 0.930 . S
H368 C401 0.930 1_554 S
H369 C399 0.929 . S
H370 C402 0.928 . S
O371 Co355 2.057 . S
O371 C359 1.232 . S
H372 C391 0.929 . S
H373 C392 0.929 . S
H374 C404 0.931 . S
H375 C396 0.929 . S
H376 C405 0.930 . S
H377 C397 0.931 . S
O378 Co354 2.097 . S
O378 C406 1.214 . S
H379 C407 0.929 . S
H380 C408 0.929 . S
H381 C409 0.930 . S
H382 C410 0.929 . S
H383 C412 0.930 . S
H384 C389 0.930 . S
H385 C393 0.930 . S
O386 Co355 2.037 . S
O386 C406 1.234 . S
C387 O361 1.269 . S
C387 O362 1.257 . S
C388 H363 0.930 . S
C388 C391 1.388 . S
C388 C393 1.418 . S
C389 H384 0.930 . S
C389 C392 1.404 . S
C389 C393 1.353 . S
N390 Co355 2.145 . S
N390 C391 1.397 . S
N390 C392 1.334 . S
C391 H372 0.929 . S
C391 C388 1.388 . S
C391 N390 1.397 . S
C392 H373 0.929 . S
C392 C389 1.404 . S
C392 N390 1.334 . S
C393 H385 0.930 . S
C393 C388 1.418 . S
C393 C389 1.353 . S
C394 H364 0.930 . S
C394 N395 1.330 . S
C394 C396 1.446 1_554 S
N395 Co354 2.151 . S
N395 C394 1.330 . S
N395 C399 1.418 1_554 S
C396 H375 0.929 . S
C396 C394 1.446 1_556 S
C396 C397 1.332 . S
C397 H377 0.931 . S
C397 C396 1.332 . S
C397 C398 1.267 . S
C398 H366 0.929 . S
C398 C397 1.267 . S
C398 C399 1.251 . S
C399 H369 0.929 . S
C399 N395 1.418 1_556 S
C399 C398 1.251 . S
C400 H367 0.930 . S
C400 C402 1.406 . S
C400 C405 1.261 . S
C401 H368 0.930 1_556 S
C401 N403 1.325 . S
C401 C404 1.357 . S
C402 H370 0.928 . S
C402 C400 1.406 . S
C402 N403 1.261 . S
N403 Co354 2.214 1_556 S
N403 C401 1.325 . S
N403 C402 1.261 . S
C404 H374 0.931 . S
C404 C401 1.357 . S
C404 C405 1.312 . S
C405 H376 0.930 . S
C405 C400 1.261 . S
C405 C404 1.312 . S
C406 O378 1.214 . S
C406 O386 1.234 . S
C407 H379 0.929 . S
C407 C410 1.391 . S
C407 C412 1.391 . S
C408 H380 0.929 . S
C408 C409 1.390 . S
C408 N411 1.391 . S
C409 H381 0.930 . S
C409 C408 1.390 . S
C409 C410 1.392 . S
C410 H382 0.929 . S
C410 C407 1.391 . S
C410 C409 1.392 . S
N411 Co355 2.257 . S
N411 C408 1.391 . S
N411 C412 1.388 . S
C412 H383 0.930 . S
C412 C407 1.391 . S
C412 N411 1.388 . S
Co413 O415 2.143 . S
Co413 O421 2.074 . S
Co413 O424 2.093 . S
Co413 O437 2.097 . S
Co413 N454 2.151 1_556 S
Co413 N462 2.214 1_556 S
Co414 O415 2.160 . S
Co414 O420 2.058 . S
Co414 O430 2.057 . S
Co414 O445 2.037 . S
Co414 N449 2.145 . S
Co414 N470 2.257 . S
O415 Co413 2.143 . S
O415 Co414 2.160 . S
C416 O417 1.278 . S
C416 O424 1.224 . S
O417 C416 1.278 . S
C418 O419 1.245 . S
C418 O430 1.232 . S
O419 C418 1.245 . S
O420 Co414 2.058 . S
O420 C446 1.269 . S
O421 Co413 2.074 . S
O421 C446 1.257 . S
H422 C447 0.930 . S
H423 C453 0.930 1_556 S
O424 Co413 2.093 . S
O424 C416 1.224 . S
H425 C457 0.929 . S
H426 C459 0.930 . S
H427 C460 0.930 . S
H428 C458 0.929 . S
H429 C461 0.928 . S
O430 Co414 2.057 . S
O430 C418 1.232 . S
H431 C450 0.929 . S
H432 C451 0.929 . S
H433 C463 0.931 . S
H434 C455 0.929 . S
H435 C464 0.930 . S
H436 C456 0.931 . S
O437 Co413 2.097 . S
O437 C465 1.214 . S
H438 C466 0.929 . S
H439 C467 0.929 . S
H440 C468 0.930 . S
H441 C469 0.929 . S
H442 C471 0.930 . S
H443 C448 0.930 . S
H444 C452 0.930 . S
O445 Co414 2.037 . S
O445 C465 1.234 . S
C446 O420 1.269 . S
C446 O421 1.257 . S
C447 H422 0.930 . S
C447 C450 1.388 . S
C447 C452 1.418 . S
C448 H443 0.930 . S
C448 C451 1.404 . S
C448 C452 1.353 . S
N449 Co414 2.145 . S
N449 C450 1.397 . S
N449 C451 1.334 . S
C450 H431 0.929 . S
C450 C447 1.388 . S
C450 N449 1.397 . S
C451 H432 0.929 . S
C451 C448 1.404 . S
C451 N449 1.334 . S
C452 H444 0.930 . S
C452 C447 1.418 . S
C452 C448 1.353 . S
C453 H423 0.930 1_554 S
C453 N454 1.330 . S
C453 C455 1.446 . S
N454 Co413 2.151 1_554 S
N454 C453 1.330 . S
N454 C458 1.418 . S
C455 H434 0.929 . S
C455 C453 1.446 . S
C455 C456 1.332 . S
C456 H436 0.931 . S
C456 C455 1.332 . S
C456 C457 1.267 . S
C457 H425 0.929 . S
C457 C456 1.267 . S
C457 C458 1.251 . S
C458 H428 0.929 . S
C458 N454 1.418 . S
C458 C457 1.251 . S
C459 H426 0.930 . S
C459 C461 1.406 . S
C459 C464 1.261 . S
C460 H427 0.930 . S
C460 N462 1.325 . S
C460 C463 1.357 . S
C461 H429 0.928 . S
C461 C459 1.406 . S
C461 N462 1.261 . S
N462 Co413 2.214 1_554 S
N462 C460 1.325 . S
N462 C461 1.261 . S
C463 H433 0.931 . S
C463 C460 1.357 . S
C463 C464 1.312 . S
C464 H435 0.930 . S
C464 C459 1.261 . S
C464 C463 1.312 . S
C465 O437 1.214 . S
C465 O445 1.234 . S
C466 H438 0.929 . S
C466 C469 1.391 . S
C466 C471 1.391 . S
C467 H439 0.929 . S
C467 C468 1.390 . S
C467 N470 1.391 . S
C468 H440 0.930 . S
C468 C467 1.390 . S
C468 C469 1.392 . S
C469 H441 0.929 . S
C469 C466 1.391 . S
C469 C468 1.392 . S
N470 Co414 2.257 . S
N470 C467 1.391 . S
N470 C471 1.388 . S
C471 H442 0.930 . S
C471 C466 1.391 . S
C471 N470 1.388 . S
Co472 O474 2.143 . S
Co472 O480 2.074 . S
Co472 O483 2.093 . S
Co472 O496 2.097 . S
Co472 N513 2.151 . S
Co472 N521 2.214 . S
Co473 O474 2.160 . S
Co473 O479 2.058 . S
Co473 O489 2.057 . S
Co473 O504 2.037 . S
Co473 N508 2.145 . S
Co473 N529 2.257 . S
O474 Co472 2.143 . S
O474 Co473 2.160 . S
C475 O476 1.278 . S
C475 O483 1.224 . S
O476 C475 1.278 . S
C477 O478 1.245 . S
C477 O489 1.232 . S
O478 C477 1.245 . S
O479 Co473 2.058 . S
O479 C505 1.269 . S
O480 Co472 2.074 . S
O480 C505 1.257 . S
H481 C506 0.930 . S
H482 C512 0.930 . S
O483 Co472 2.093 . S
O483 C475 1.224 . S
H484 C516 0.929 . S
H485 C518 0.930 . S
H486 C519 0.930 . S
H487 C517 0.929 . S
H488 C520 0.928 . S
O489 Co473 2.057 . S
O489 C477 1.232 . S
H490 C509 0.929 . S
H491 C510 0.929 . S
H492 C522 0.931 . S
H493 C514 0.929 . S
H494 C523 0.930 . S
H495 C515 0.931 . S
O496 Co472 2.097 . S
O496 C524 1.214 . S
H497 C525 0.929 . S
H498 C526 0.929 . S
H499 C527 0.930 . S
H500 C528 0.929 . S
H501 C530 0.930 . S
H502 C507 0.930 . S
H503 C511 0.930 . S
O504 Co473 2.037 . S
O504 C524 1.234 . S
C505 O479 1.269 . S
C505 O480 1.257 . S
C506 H481 0.930 . S
C506 C509 1.388 . S
C506 C511 1.418 . S
C507 H502 0.930 . S
C507 C510 1.404 . S
C507 C511 1.353 . S
N508 Co473 2.145 . S
N508 C509 1.397 . S
N508 C510 1.334 . S
C509 H490 0.929 . S
C509 C506 1.388 . S
C509 N508 1.397 . S
C510 H491 0.929 . S
C510 C507 1.404 . S
C510 N508 1.334 . S
C511 H503 0.930 . S
C511 C506 1.418 . S
C511 C507 1.353 . S
C512 H482 0.930 . S
C512 N513 1.330 . S
C512 C514 1.446 . S
N513 Co472 2.151 . S
N513 C512 1.330 . S
N513 C517 1.418 . S
C514 H493 0.929 . S
C514 C512 1.446 . S
C514 C515 1.332 . S
C515 H495 0.931 . S
C515 C514 1.332 . S
C515 C516 1.267 . S
C516 H484 0.929 . S
C516 C515 1.267 . S
C516 C517 1.251 . S
C517 H487 0.929 . S
C517 N513 1.418 . S
C517 C516 1.251 . S
C518 H485 0.930 . S
C518 C520 1.406 . S
C518 C523 1.261 . S
C519 H486 0.930 . S
C519 N521 1.325 . S
C519 C522 1.357 . S
C520 H488 0.928 . S
C520 C518 1.406 . S
C520 N521 1.261 . S
N521 Co472 2.214 . S
N521 C519 1.325 . S
N521 C520 1.261 . S
C522 H492 0.931 . S
C522 C519 1.357 . S
C522 C523 1.312 . S
C523 H494 0.930 . S
C523 C518 1.261 . S
C523 C522 1.312 . S
C524 O496 1.214 . S
C524 O504 1.234 . S
C525 H497 0.929 . S
C525 C528 1.391 . S
C525 C530 1.391 . S
C526 H498 0.929 . S
C526 C527 1.390 . S
C526 N529 1.391 . S
C527 H499 0.930 . S
C527 C526 1.390 . S
C527 C528 1.392 . S
C528 H500 0.929 . S
C528 C525 1.391 . S
C528 C527 1.392 . S
N529 Co473 2.257 . S
N529 C526 1.391 . S
N529 C530 1.388 . S
C530 H501 0.930 . S
C530 C525 1.391 . S
C530 N529 1.388 . S
Co531 O533 2.143 . S
Co531 O539 2.074 . S
Co531 O542 2.093 . S
Co531 O555 2.097 . S
Co531 N572 2.151 . S
Co531 N580 2.214 . S
Co532 O533 2.160 . S
Co532 O538 2.058 . S
Co532 O548 2.057 . S
Co532 O563 2.037 . S
Co532 N567 2.145 . S
Co532 N588 2.257 . S
O533 Co531 2.143 . S
O533 Co532 2.160 . S
C534 O535 1.278 . S
C534 O542 1.224 . S
O535 C534 1.278 . S
C536 O537 1.245 . S
C536 O548 1.232 . S
O537 C536 1.245 . S
O538 Co532 2.058 . S
O538 C564 1.269 . S
O539 Co531 2.074 . S
O539 C564 1.257 . S
H540 C565 0.930 . S
H541 C571 0.930 . S
O542 Co531 2.093 . S
O542 C534 1.224 . S
H543 C575 0.929 . S
H544 C577 0.930 1_556 S
H545 C578 0.930 . S
H546 C576 0.929 . S
H547 C579 0.928 . S
O548 Co532 2.057 . S
O548 C536 1.232 . S
H549 C568 0.929 . S
H550 C569 0.929 . S
H551 C581 0.931 . S
H552 C573 0.929 . S
H553 C582 0.930 . S
H554 C574 0.931 . S
O555 Co531 2.097 . S
O555 C583 1.214 . S
H556 C584 0.929 . S
H557 C585 0.929 . S
H558 C586 0.930 . S
H559 C587 0.929 . S
H560 C589 0.930 . S
H561 C566 0.930 . S
H562 C570 0.930 . S
O563 Co532 2.037 . S
O563 C583 1.234 . S
C564 O538 1.269 . S
C564 O539 1.257 . S
C565 H540 0.930 . S
C565 C568 1.388 . S
C565 C570 1.418 . S
C566 H561 0.930 . S
C566 C569 1.404 . S
C566 C570 1.353 . S
N567 Co532 2.145 . S
N567 C568 1.397 . S
N567 C569 1.334 . S
C568 H549 0.929 . S
C568 C565 1.388 . S
C568 N567 1.397 . S
C569 H550 0.929 . S
C569 C566 1.404 . S
C569 N567 1.334 . S
C570 H562 0.930 . S
C570 C565 1.418 . S
C570 C566 1.353 . S
C571 H541 0.930 . S
C571 N572 1.330 . S
C571 C573 1.446 . S
N572 Co531 2.151 . S
N572 C571 1.330 . S
N572 C576 1.418 . S
C573 H552 0.929 . S
C573 C571 1.446 . S
C573 C574 1.332 . S
C574 H554 0.931 . S
C574 C573 1.332 . S
C574 C575 1.267 . S
C575 H543 0.929 . S
C575 C574 1.267 . S
C575 C576 1.251 . S
C576 H546 0.929 . S
C576 N572 1.418 . S
C576 C575 1.251 . S
C577 H544 0.930 1_554 S
C577 C579 1.406 . S
C577 C582 1.261 1_554 S
C578 H545 0.930 . S
C578 N580 1.325 . S
C578 C581 1.357 . S
C579 H547 0.928 . S
C579 C577 1.406 . S
C579 N580 1.261 . S
N580 Co531 2.214 . S
N580 C578 1.325 . S
N580 C579 1.261 . S
C581 H551 0.931 . S
C581 C578 1.357 . S
C581 C582 1.312 1_554 S
C582 H553 0.930 . S
C582 C577 1.261 1_556 S
C582 C581 1.312 1_556 S
C583 O555 1.214 . S
C583 O563 1.234 . S
C584 H556 0.929 . S
C584 C587 1.391 . S
C584 C589 1.391 . S
C585 H557 0.929 . S
C585 C586 1.390 . S
C585 N588 1.391 . S
C586 H558 0.930 . S
C586 C585 1.390 . S
C586 C587 1.392 . S
C587 H559 0.929 . S
C587 C584 1.391 . S
C587 C586 1.392 . S
N588 Co532 2.257 . S
N588 C585 1.391 . S
N588 C589 1.388 . S
C589 H560 0.930 . S
C589 C584 1.391 . S
C589 N588 1.388 . S
Co590 O592 2.143 . S
Co590 O598 2.074 . S
Co590 O601 2.093 . S
Co590 O614 2.097 . S
Co590 N631 2.151 . S
Co590 N639 2.214 . S
Co591 O592 2.160 . S
Co591 O597 2.058 . S
Co591 O607 2.057 . S
Co591 O622 2.037 . S
Co591 N626 2.145 . S
Co591 N647 2.257 . S
O592 Co590 2.143 . S
O592 Co591 2.160 . S
C593 O594 1.278 . S
C593 O601 1.224 . S
O594 C593 1.278 . S
C595 O596 1.245 . S
C595 O607 1.232 . S
O596 C595 1.245 . S
O597 Co591 2.058 . S
O597 C623 1.269 . S
O598 Co590 2.074 . S
O598 C623 1.257 . S
H599 C624 0.930 . S
H600 C630 0.930 . S
O601 Co590 2.093 . S
O601 C593 1.224 . S
H602 C634 0.929 . S
H603 C636 0.930 . S
H604 C637 0.930 . S
H605 C635 0.929 . S
H606 C638 0.928 . S
O607 Co591 2.057 . S
O607 C595 1.232 . S
H608 C627 0.929 . S
H609 C628 0.929 . S
H610 C640 0.931 . S
H611 C632 0.929 . S
H612 C641 0.930 . S
H613 C633 0.931 . S
O614 Co590 2.097 . S
O614 C642 1.214 . S
H615 C643 0.929 . S
H616 C644 0.929 . S
H617 C645 0.930 . S
H618 C646 0.929 . S
H619 C648 0.930 . S
H620 C625 0.930 . S
H621 C629 0.930 . S
O622 Co591 2.037 . S
O622 C642 1.234 . S
C623 O597 1.269 . S
C623 O598 1.257 . S
C624 H599 0.930 . S
C624 C627 1.388 . S
C624 C629 1.418 . S
C625 H620 0.930 . S
C625 C628 1.404 . S
C625 C629 1.353 . S
N626 Co591 2.145 . S
N626 C627 1.397 . S
N626 C628 1.334 . S
C627 H608 0.929 . S
C627 C624 1.388 . S
C627 N626 1.397 . S
C628 H609 0.929 . S
C628 C625 1.404 . S
C628 N626 1.334 . S
C629 H621 0.930 . S
C629 C624 1.418 . S
C629 C625 1.353 . S
C630 H600 0.930 . S
C630 N631 1.330 . S
C630 C632 1.446 . S
N631 Co590 2.151 . S
N631 C630 1.330 . S
N631 C635 1.418 . S
C632 H611 0.929 . S
C632 C630 1.446 . S
C632 C633 1.332 . S
C633 H613 0.931 . S
C633 C632 1.332 . S
C633 C634 1.267 . S
C634 H602 0.929 . S
C634 C633 1.267 . S
C634 C635 1.251 . S
C635 H605 0.929 . S
C635 N631 1.418 . S
C635 C634 1.251 . S
C636 H603 0.930 . S
C636 C638 1.406 . S
C636 C641 1.261 . S
C637 H604 0.930 . S
C637 N639 1.325 . S
C637 C640 1.357 . S
C638 H606 0.928 . S
C638 C636 1.406 . S
C638 N639 1.261 . S
N639 Co590 2.214 . S
N639 C637 1.325 . S
N639 C638 1.261 . S
C640 H610 0.931 . S
C640 C637 1.357 . S
C640 C641 1.312 . S
C641 H612 0.930 . S
C641 C636 1.261 . S
C641 C640 1.312 . S
C642 O614 1.214 . S
C642 O622 1.234 . S
C643 H615 0.929 . S
C643 C646 1.391 . S
C643 C648 1.391 . S
C644 H616 0.929 . S
C644 C645 1.390 . S
C644 N647 1.391 . S
C645 H617 0.930 . S
C645 C644 1.390 . S
C645 C646 1.392 . S
C646 H618 0.929 . S
C646 C643 1.391 . S
C646 C645 1.392 . S
N647 Co591 2.257 . S
N647 C644 1.391 . S
N647 C648 1.388 . S
C648 H619 0.930 . S
C648 C643 1.391 . S
C648 N647 1.388 . S
Co649 O651 2.143 . S
Co649 O657 2.074 . S
Co649 O660 2.093 . S
Co649 O673 2.097 . S
Co649 N690 2.151 . S
Co649 N698 2.214 . S
Co650 O651 2.160 . S
Co650 O656 2.058 . S
Co650 O666 2.057 . S
Co650 O681 2.037 . S
Co650 N685 2.145 . S
Co650 N706 2.257 . S
O651 Co649 2.143 . S
O651 Co650 2.160 . S
C652 O653 1.278 . S
C652 O660 1.224 . S
O653 C652 1.278 . S
C654 O655 1.245 . S
C654 O666 1.232 . S
O655 C654 1.245 . S
O656 Co650 2.058 . S
O656 C682 1.269 . S
O657 Co649 2.074 . S
O657 C682 1.257 . S
H658 C683 0.930 . S
H659 C689 0.930 . S
O660 Co649 2.093 . S
O660 C652 1.224 . S
H661 C693 0.929 . S
H662 C695 0.930 1_556 S
H663 C696 0.930 . S
H664 C694 0.929 . S
H665 C697 0.928 . S
O666 Co650 2.057 . S
O666 C654 1.232 . S
H667 C686 0.929 . S
H668 C687 0.929 . S
H669 C699 0.931 . S
H670 C691 0.929 . S
H671 C700 0.930 . S
H672 C692 0.931 . S
O673 Co649 2.097 . S
O673 C701 1.214 . S
H674 C702 0.929 . S
H675 C703 0.929 . S
H676 C704 0.930 . S
H677 C705 0.929 . S
H678 C707 0.930 . S
H679 C684 0.930 . S
H680 C688 0.930 . S
O681 Co650 2.037 . S
O681 C701 1.234 . S
C682 O656 1.269 . S
C682 O657 1.257 . S
C683 H658 0.930 . S
C683 C686 1.388 . S
C683 C688 1.418 . S
C684 H679 0.930 . S
C684 C687 1.404 . S
C684 C688 1.353 . S
N685 Co650 2.145 . S
N685 C686 1.397 . S
N685 C687 1.334 . S
C686 H667 0.929 . S
C686 C683 1.388 . S
C686 N685 1.397 . S
C687 H668 0.929 . S
C687 C684 1.404 . S
C687 N685 1.334 . S
C688 H680 0.930 . S
C688 C683 1.418 . S
C688 C684 1.353 . S
C689 H659 0.930 . S
C689 N690 1.330 . S
C689 C691 1.446 . S
N690 Co649 2.151 . S
N690 C689 1.330 . S
N690 C694 1.418 . S
C691 H670 0.929 . S
C691 C689 1.446 . S
C691 C692 1.332 . S
C692 H672 0.931 . S
C692 C691 1.332 . S
C692 C693 1.267 . S
C693 H661 0.929 . S
C693 C692 1.267 . S
C693 C694 1.251 . S
C694 H664 0.929 . S
C694 N690 1.418 . S
C694 C693 1.251 . S
C695 H662 0.930 1_554 S
C695 C697 1.406 . S
C695 C700 1.261 1_554 S
C696 H663 0.930 . S
C696 N698 1.325 . S
C696 C699 1.357 . S
C697 H665 0.928 . S
C697 C695 1.406 . S
C697 N698 1.261 . S
N698 Co649 2.214 . S
N698 C696 1.325 . S
N698 C697 1.261 . S
C699 H669 0.931 . S
C699 C696 1.357 . S
C699 C700 1.312 1_554 S
C700 H671 0.930 . S
C700 C695 1.261 1_556 S
C700 C699 1.312 1_556 S
C701 O673 1.214 . S
C701 O681 1.234 . S
C702 H674 0.929 . S
C702 C705 1.391 . S
C702 C707 1.391 . S
C703 H675 0.929 . S
C703 C704 1.390 . S
C703 N706 1.391 . S
C704 H676 0.930 . S
C704 C703 1.390 . S
C704 C705 1.392 . S
C705 H677 0.929 . S
C705 C702 1.391 . S
C705 C704 1.392 . S
N706 Co650 2.257 . S
N706 C703 1.391 . S
N706 C707 1.388 . S
C707 H678 0.930 . S
C707 C702 1.391 . S
C707 N706 1.388 . S
Co708 O710 2.143 . S
Co708 O716 2.074 . S
Co708 O719 2.093 . S
Co708 O732 2.097 . S
Co708 N749 2.151 . S
Co708 N757 2.214 . S
Co709 O710 2.160 . S
Co709 O715 2.058 . S
Co709 O725 2.057 . S
Co709 O740 2.037 . S
Co709 N744 2.145 . S
Co709 N765 2.257 . S
O710 Co708 2.143 . S
O710 Co709 2.160 . S
C711 O712 1.278 . S
C711 O719 1.224 . S
O712 C711 1.278 . S
C713 O714 1.245 . S
C713 O725 1.232 . S
O714 C713 1.245 . S
O715 Co709 2.058 . S
O715 C741 1.269 . S
O716 Co708 2.074 . S
O716 C741 1.257 . S
H717 C742 0.930 . S
H718 C748 0.930 . S
O719 Co708 2.093 . S
O719 C711 1.224 . S
H720 C752 0.929 . S
H721 C754 0.930 . S
H722 C755 0.930 . S
H723 C753 0.929 . S
H724 C756 0.928 . S
O725 Co709 2.057 . S
O725 C713 1.232 . S
H726 C745 0.929 . S
H727 C746 0.929 . S
H728 C758 0.931 . S
H729 C750 0.929 . S
H730 C759 0.930 . S
H731 C751 0.931 . S
O732 Co708 2.097 . S
O732 C760 1.214 . S
H733 C761 0.929 . S
H734 C762 0.929 . S
H735 C763 0.930 . S
H736 C764 0.929 . S
H737 C766 0.930 . S
H738 C743 0.930 . S
H739 C747 0.930 . S
O740 Co709 2.037 . S
O740 C760 1.234 . S
C741 O715 1.269 . S
C741 O716 1.257 . S
C742 H717 0.930 . S
C742 C745 1.388 . S
C742 C747 1.418 1_556 S
C743 H738 0.930 . S
C743 C746 1.404 1_554 S
C743 C747 1.353 . S
N744 Co709 2.145 . S
N744 C745 1.397 . S
N744 C746 1.334 . S
C745 H726 0.929 . S
C745 C742 1.388 . S
C745 N744 1.397 . S
C746 H727 0.929 . S
C746 C743 1.404 1_556 S
C746 N744 1.334 . S
C747 H739 0.930 . S
C747 C742 1.418 1_554 S
C747 C743 1.353 . S
C748 H718 0.930 . S
C748 N749 1.330 . S
C748 C750 1.446 . S
N749 Co708 2.151 . S
N749 C748 1.330 . S
N749 C753 1.418 . S
C750 H729 0.929 . S
C750 C748 1.446 . S
C750 C751 1.332 . S
C751 H731 0.931 . S
C751 C750 1.332 . S
C751 C752 1.267 . S
C752 H720 0.929 . S
C752 C751 1.267 . S
C752 C753 1.251 . S
C753 H723 0.929 . S
C753 N749 1.418 . S
C753 C752 1.251 . S
C754 H721 0.930 . S
C754 C756 1.406 . S
C754 C759 1.261 . S
C755 H722 0.930 . S
C755 N757 1.325 . S
C755 C758 1.357 . S
C756 H724 0.928 . S
C756 C754 1.406 . S
C756 N757 1.261 . S
N757 Co708 2.214 . S
N757 C755 1.325 . S
N757 C756 1.261 . S
C758 H728 0.931 . S
C758 C755 1.357 . S
C758 C759 1.312 . S
C759 H730 0.930 . S
C759 C754 1.261 . S
C759 C758 1.312 . S
C760 O732 1.214 . S
C760 O740 1.234 . S
C761 H733 0.929 . S
C761 C764 1.391 . S
C761 C766 1.391 . S
C762 H734 0.929 . S
C762 C763 1.390 . S
C762 N765 1.391 . S
C763 H735 0.930 . S
C763 C762 1.390 . S
C763 C764 1.392 . S
C764 H736 0.929 . S
C764 C761 1.391 . S
C764 C763 1.392 . S
N765 Co709 2.257 . S
N765 C762 1.391 . S
N765 C766 1.388 . S
C766 H737 0.930 . S
C766 C761 1.391 . S
C766 N765 1.388 . S
Co767 O769 2.143 . S
Co767 O775 2.074 . S
Co767 O778 2.093 . S
Co767 O791 2.097 . S
Co767 N808 2.151 . S
Co767 N816 2.214 . S
Co768 O769 2.160 . S
Co768 O774 2.058 . S
Co768 O784 2.057 . S
Co768 O799 2.037 . S
Co768 N803 2.145 . S
Co768 N824 2.257 . S
O769 Co767 2.143 . S
O769 Co768 2.160 . S
C770 O771 1.278 . S
C770 O778 1.224 . S
O771 C770 1.278 . S
C772 O773 1.245 . S
C772 O784 1.232 . S
O773 C772 1.245 . S
O774 Co768 2.058 . S
O774 C800 1.269 . S
O775 Co767 2.074 . S
O775 C800 1.257 . S
H776 C801 0.930 . S
H777 C807 0.930 . S
O778 Co767 2.093 . S
O778 C770 1.224 . S
H779 C811 0.929 . S
H780 C813 0.930 . S
H781 C814 0.930 . S
H782 C812 0.929 . S
H783 C815 0.928 . S
O784 Co768 2.057 . S
O784 C772 1.232 . S
H785 C804 0.929 . S
H786 C805 0.929 . S
H787 C817 0.931 . S
H788 C809 0.929 . S
H789 C818 0.930 . S
H790 C810 0.931 . S
O791 Co767 2.097 . S
O791 C819 1.214 . S
H792 C820 0.929 . S
H793 C821 0.929 . S
H794 C822 0.930 . S
H795 C823 0.929 . S
H796 C825 0.930 . S
H797 C802 0.930 . S
H798 C806 0.930 . S
O799 Co768 2.037 . S
O799 C819 1.234 . S
C800 O774 1.269 . S
C800 O775 1.257 . S
C801 H776 0.930 . S
C801 C804 1.388 . S
C801 C806 1.418 . S
C802 H797 0.930 . S
C802 C805 1.404 . S
C802 C806 1.353 . S
N803 Co768 2.145 . S
N803 C804 1.397 . S
N803 C805 1.334 . S
C804 H785 0.929 . S
C804 C801 1.388 . S
C804 N803 1.397 . S
C805 H786 0.929 . S
C805 C802 1.404 . S
C805 N803 1.334 . S
C806 H798 0.930 . S
C806 C801 1.418 . S
C806 C802 1.353 . S
C807 H777 0.930 . S
C807 N808 1.330 . S
C807 C809 1.446 . S
N808 Co767 2.151 . S
N808 C807 1.330 . S
N808 C812 1.418 . S
C809 H788 0.929 . S
C809 C807 1.446 . S
C809 C810 1.332 . S
C810 H790 0.931 . S
C810 C809 1.332 . S
C810 C811 1.267 . S
C811 H779 0.929 . S
C811 C810 1.267 . S
C811 C812 1.251 . S
C812 H782 0.929 . S
C812 N808 1.418 . S
C812 C811 1.251 . S
C813 H780 0.930 . S
C813 C815 1.406 . S
C813 C818 1.261 . S
C814 H781 0.930 . S
C814 N816 1.325 . S
C814 C817 1.357 . S
C815 H783 0.928 . S
C815 C813 1.406 . S
C815 N816 1.261 . S
N816 Co767 2.214 . S
N816 C814 1.325 . S
N816 C815 1.261 . S
C817 H787 0.931 . S
C817 C814 1.357 . S
C817 C818 1.312 . S
C818 H789 0.930 . S
C818 C813 1.261 . S
C818 C817 1.312 . S
C819 O791 1.214 . S
C819 O799 1.234 . S
C820 H792 0.929 . S
C820 C823 1.391 . S
C820 C825 1.391 . S
C821 H793 0.929 . S
C821 C822 1.390 . S
C821 N824 1.391 . S
C822 H794 0.930 . S
C822 C821 1.390 . S
C822 C823 1.392 . S
C823 H795 0.929 . S
C823 C820 1.391 . S
C823 C822 1.392 . S
N824 Co768 2.257 . S
N824 C821 1.391 . S
N824 C825 1.388 . S
C825 H796 0.930 . S
C825 C820 1.391 . S
C825 N824 1.388 . S
Co826 O828 2.143 . S
Co826 O834 2.074 . S
Co826 O837 2.093 . S
Co826 O850 2.097 . S
Co826 N867 2.151 . S
Co826 N875 2.214 . S
Co827 O828 2.160 . S
Co827 O833 2.058 . S
Co827 O843 2.057 . S
Co827 O858 2.037 . S
Co827 N862 2.145 . S
Co827 N883 2.257 . S
O828 Co826 2.143 . S
O828 Co827 2.160 . S
C829 O830 1.278 . S
C829 O837 1.224 . S
O830 C829 1.278 . S
C831 O832 1.245 . S
C831 O843 1.232 . S
O832 C831 1.245 . S
O833 Co827 2.058 . S
O833 C859 1.269 . S
O834 Co826 2.074 . S
O834 C859 1.257 . S
H835 C860 0.930 . S
H836 C866 0.930 . S
O837 Co826 2.093 . S
O837 C829 1.224 . S
H838 C870 0.929 . S
H839 C872 0.930 . S
H840 C873 0.930 . S
H841 C871 0.929 . S
H842 C874 0.928 . S
O843 Co827 2.057 . S
O843 C831 1.232 . S
H844 C863 0.929 . S
H845 C864 0.929 . S
H846 C876 0.931 . S
H847 C868 0.929 . S
H848 C877 0.930 . S
H849 C869 0.931 . S
O850 Co826 2.097 . S
O850 C878 1.214 . S
H851 C879 0.929 . S
H852 C880 0.929 . S
H853 C881 0.930 . S
H854 C882 0.929 . S
H855 C884 0.930 . S
H856 C861 0.930 . S
H857 C865 0.930 . S
O858 Co827 2.037 . S
O858 C878 1.234 . S
C859 O833 1.269 . S
C859 O834 1.257 . S
C860 H835 0.930 . S
C860 C863 1.388 . S
C860 C865 1.418 1_556 S
C861 H856 0.930 . S
C861 C864 1.404 1_554 S
C861 C865 1.353 . S
N862 Co827 2.145 . S
N862 C863 1.397 . S
N862 C864 1.334 . S
C863 H844 0.929 . S
C863 C860 1.388 . S
C863 N862 1.397 . S
C864 H845 0.929 . S
C864 C861 1.404 1_556 S
C864 N862 1.334 . S
C865 H857 0.930 . S
C865 C860 1.418 1_554 S
C865 C861 1.353 . S
C866 H836 0.930 . S
C866 N867 1.330 . S
C866 C868 1.446 . S
N867 Co826 2.151 . S
N867 C866 1.330 . S
N867 C871 1.418 . S
C868 H847 0.929 . S
C868 C866 1.446 . S
C868 C869 1.332 . S
C869 H849 0.931 . S
C869 C868 1.332 . S
C869 C870 1.267 . S
C870 H838 0.929 . S
C870 C869 1.267 . S
C870 C871 1.251 . S
C871 H841 0.929 . S
C871 N867 1.418 . S
C871 C870 1.251 . S
C872 H839 0.930 . S
C872 C874 1.406 . S
C872 C877 1.261 . S
C873 H840 0.930 . S
C873 N875 1.325 . S
C873 C876 1.357 . S
C874 H842 0.928 . S
C874 C872 1.406 . S
C874 N875 1.261 . S
N875 Co826 2.214 . S
N875 C873 1.325 . S
N875 C874 1.261 . S
C876 H846 0.931 . S
C876 C873 1.357 . S
C876 C877 1.312 . S
C877 H848 0.930 . S
C877 C872 1.261 . S
C877 C876 1.312 . S
C878 O850 1.214 . S
C878 O858 1.234 . S
C879 H851 0.929 . S
C879 C882 1.391 . S
C879 C884 1.391 . S
C880 H852 0.929 . S
C880 C881 1.390 . S
C880 N883 1.391 . S
C881 H853 0.930 . S
C881 C880 1.390 . S
C881 C882 1.392 . S
C882 H854 0.929 . S
C882 C879 1.391 . S
C882 C881 1.392 . S
N883 Co827 2.257 . S
N883 C880 1.391 . S
N883 C884 1.388 . S
C884 H855 0.930 . S
C884 C879 1.391 . S
C884 N883 1.388 . S
Co885 O887 2.143 . S
Co885 O893 2.074 . S
Co885 O896 2.093 . S
Co885 O909 2.097 . S
Co885 N926 2.151 . S
Co885 N934 2.214 . S
Co886 O887 2.160 . S
Co886 O892 2.058 . S
Co886 O902 2.057 . S
Co886 O917 2.037 . S
Co886 N921 2.145 . S
Co886 N942 2.257 . S
O887 Co885 2.143 . S
O887 Co886 2.160 . S
C888 O889 1.278 . S
C888 O896 1.224 . S
O889 C888 1.278 . S
C890 O891 1.245 . S
C890 O902 1.232 . S
O891 C890 1.245 . S
O892 Co886 2.058 . S
O892 C918 1.269 . S
O893 Co885 2.074 . S
O893 C918 1.257 . S
H894 C919 0.930 . S
H895 C925 0.930 . S
O896 Co885 2.093 . S
O896 C888 1.224 . S
H897 C929 0.929 . S
H898 C931 0.930 . S
H899 C932 0.930 . S
H900 C930 0.929 . S
H901 C933 0.928 . S
O902 Co886 2.057 . S
O902 C890 1.232 . S
H903 C922 0.929 . S
H904 C923 0.929 . S
H905 C935 0.931 . S
H906 C927 0.929 . S
H907 C936 0.930 . S
H908 C928 0.931 . S
O909 Co885 2.097 . S
O909 C937 1.214 . S
H910 C938 0.929 . S
H911 C939 0.929 . S
H912 C940 0.930 . S
H913 C941 0.929 . S
H914 C943 0.930 . S
H915 C920 0.930 . S
H916 C924 0.930 . S
O917 Co886 2.037 . S
O917 C937 1.234 . S
C918 O892 1.269 . S
C918 O893 1.257 . S
C919 H894 0.930 . S
C919 C922 1.388 . S
C919 C924 1.418 . S
C920 H915 0.930 . S
C920 C923 1.404 . S
C920 C924 1.353 . S
N921 Co886 2.145 . S
N921 C922 1.397 . S
N921 C923 1.334 . S
C922 H903 0.929 . S
C922 C919 1.388 . S
C922 N921 1.397 . S
C923 H904 0.929 . S
C923 C920 1.404 . S
C923 N921 1.334 . S
C924 H916 0.930 . S
C924 C919 1.418 . S
C924 C920 1.353 . S
C925 H895 0.930 . S
C925 N926 1.330 . S
C925 C927 1.446 . S
N926 Co885 2.151 . S
N926 C925 1.330 . S
N926 C930 1.418 . S
C927 H906 0.929 . S
C927 C925 1.446 . S
C927 C928 1.332 . S
C928 H908 0.931 . S
C928 C927 1.332 . S
C928 C929 1.267 . S
C929 H897 0.929 . S
C929 C928 1.267 . S
C929 C930 1.251 . S
C930 H900 0.929 . S
C930 N926 1.418 . S
C930 C929 1.251 . S
C931 H898 0.930 . S
C931 C933 1.406 . S
C931 C936 1.261 . S
C932 H899 0.930 . S
C932 N934 1.325 . S
C932 C935 1.357 . S
C933 H901 0.928 . S
C933 C931 1.406 . S
C933 N934 1.261 . S
N934 Co885 2.214 . S
N934 C932 1.325 . S
N934 C933 1.261 . S
C935 H905 0.931 . S
C935 C932 1.357 . S
C935 C936 1.312 . S
C936 H907 0.930 . S
C936 C931 1.261 . S
C936 C935 1.312 . S
C937 O909 1.214 . S
C937 O917 1.234 . S
C938 H910 0.929 . S
C938 C941 1.391 . S
C938 C943 1.391 . S
C939 H911 0.929 . S
C939 C940 1.390 . S
C939 N942 1.391 . S
C940 H912 0.930 . S
C940 C939 1.390 . S
C940 C941 1.392 . S
C941 H913 0.929 . S
C941 C938 1.391 . S
C941 C940 1.392 . S
N942 Co886 2.257 . S
N942 C939 1.391 . S
N942 C943 1.388 . S
C943 H914 0.930 . S
C943 C938 1.391 . S
C943 N942 1.388 . S
H944 C956 0.930 . S
H945 C958 0.930 . S
H946 C959 0.930 . S
H947 C963 0.959 . S
H948 C963 0.959 . S
H949 C963 0.958 1_565 S
H950 C964 0.960 1_565 S
H951 C964 0.961 . S
H952 C964 0.959 1_565 S
H953 C967 0.929 1_565 S
H954 C968 0.931 . S
H955 C970 0.930 . S
C956 H944 0.930 . S
C956 C957 1.399 . S
C956 C961 1.399 . S
C957 C956 1.399 . S
C957 C958 1.376 . S
C958 H945 0.930 . S
C958 C957 1.376 . S
C958 C959 1.388 . S
C959 H946 0.930 . S
C959 C958 1.388 . S
C959 C960 1.390 . S
C960 C959 1.390 . S
C960 C961 1.394 . S
C960 C966 1.465 . S
C961 C956 1.399 . S
C961 C960 1.394 . S
C961 C962 1.511 1_565 S
C962 C961 1.511 1_545 S
C962 C963 1.504 . S
C962 C964 1.561 . S
C962 C965 1.528 . S
C963 H947 0.959 . S
C963 H948 0.959 . S
C963 H949 0.958 1_545 S
C963 C962 1.504 . S
C964 H950 0.960 1_545 S
C964 H951 0.961 . S
C964 H952 0.959 1_545 S
C964 C962 1.561 . S
C965 C962 1.528 . S
C965 C966 1.396 1_545 S
C965 C970 1.390 . S
C966 C960 1.465 . S
C966 C965 1.396 1_565 S
C966 C967 1.399 1_565 S
C967 H953 0.929 1_545 S
C967 C966 1.399 1_545 S
C967 C968 1.385 . S
C968 H954 0.931 . S
C968 C967 1.385 . S
C968 C969 1.389 . S
C969 C968 1.389 . S
C969 C970 1.387 . S
C970 H955 0.930 . S
C970 C965 1.390 . S
C970 C969 1.387 . S
H971 C983 0.930 . S
H972 C985 0.930 . S
H973 C986 0.930 . S
H974 C990 0.959 . S
H975 C990 0.959 . S
H976 C990 0.961 . S
H977 C991 0.960 . S
H978 C991 0.961 . S
H979 C991 0.959 . S
H980 C994 0.929 . S
H981 C995 0.931 . S
H982 C997 0.930 . S
C983 H971 0.930 . S
C983 C984 1.399 . S
C983 C988 1.399 . S
C984 C983 1.399 . S
C984 C985 1.376 . S
C985 H972 0.930 . S
C985 C984 1.376 . S
C985 C986 1.388 . S
C986 H973 0.930 . S
C986 C985 1.388 . S
C986 C987 1.390 . S
C987 C986 1.390 . S
C987 C988 1.394 . S
C987 C993 1.465 1_455 S
C988 C983 1.399 . S
C988 C987 1.394 . S
C988 C989 1.516 . S
C989 C988 1.516 . S
C989 C990 1.502 . S
C989 C991 1.561 . S
C989 C992 1.526 1_455 S
C990 H974 0.959 . S
C990 H975 0.959 . S
C990 H976 0.961 . S
C990 C989 1.502 . S
C991 H977 0.960 . S
C991 H978 0.961 . S
C991 H979 0.959 . S
C991 C989 1.561 . S
C992 C989 1.526 1_655 S
C992 C993 1.396 . S
C992 C997 1.390 . S
C993 C987 1.465 1_655 S
C993 C992 1.396 . S
C993 C994 1.399 . S
C994 H980 0.929 . S
C994 C993 1.399 . S
C994 C995 1.385 . S
C995 H981 0.931 . S
C995 C994 1.385 . S
C995 C996 1.389 . S
C996 C995 1.389 . S
C996 C997 1.387 . S
C997 H982 0.930 . S
C997 C992 1.390 . S
C997 C996 1.387 . S
H998 C1010 0.930 . S
H999 C1012 0.930 . S
H1000 C1013 0.946 . S
H1001 C1017 0.977 . S
H1002 C1017 0.979 . S
H1003 C1017 0.925 1_565 S
H1004 C1018 0.960 . S
H1005 C1018 0.965 . S
H1006 C1018 0.959 . S
H1007 C1021 0.929 . S
H1008 C1022 0.931 . S
H1009 C1024 0.930 . S
C1010 H998 0.930 . S
C1010 C1011 1.399 . S
C1010 C1015 1.399 . S
C1011 C1010 1.399 . S
C1011 C1012 1.376 . S
C1012 H999 0.930 . S
C1012 C1011 1.376 . S
C1012 C1013 1.388 . S
C1013 H1000 0.946 . S
C1013 C1012 1.388 . S
C1013 C1014 1.390 1_565 S
C1014 C1013 1.390 1_545 S
C1014 C1015 1.395 1_545 S
C1014 C1020 1.464 . S
C1015 C1010 1.399 . S
C1015 C1014 1.395 1_565 S
C1015 C1016 1.500 1_565 S
C1016 C1015 1.500 1_545 S
C1016 C1017 1.502 . S
C1016 C1018 1.550 1_545 S
C1016 C1019 1.555 . S
C1017 H1001 0.977 . S
C1017 H1002 0.979 . S
C1017 H1003 0.925 1_545 S
C1017 C1016 1.502 . S
C1018 H1004 0.960 . S
C1018 H1005 0.965 . S
C1018 H1006 0.959 . S
C1018 C1016 1.550 1_565 S
C1019 C1016 1.555 . S
C1019 C1020 1.396 . S
C1019 C1024 1.390 . S
C1020 C1014 1.464 . S
C1020 C1019 1.396 . S
C1020 C1021 1.399 . S
C1021 H1007 0.929 . S
C1021 C1020 1.399 . S
C1021 C1022 1.385 . S
C1022 H1008 0.931 . S
C1022 C1021 1.385 . S
C1022 C1023 1.389 . S
C1023 C1022 1.389 . S
C1023 C1024 1.387 . S
C1024 H1009 0.930 . S
C1024 C1019 1.390 . S
C1024 C1023 1.387 . S
H1025 C1037 0.930 . S
H1026 C1039 0.930 . S
H1027 C1040 0.930 . S
H1028 C1044 0.959 . S
H1029 C1044 0.959 1_655 S
H1030 C1044 0.961 . S
H1031 C1045 0.970 . S
H1032 C1045 0.961 . S
H1033 C1045 0.959 . S
H1034 C1048 0.929 . S
H1035 C1049 0.931 . S
H1036 C1051 0.930 . S
C1037 H1025 0.930 . S
C1037 C1038 1.399 . S
C1037 C1042 1.399 . S
C1038 C1037 1.399 . S
C1038 C1039 1.376 . S
C1039 H1026 0.930 . S
C1039 C1038 1.376 . S
C1039 C1040 1.388 . S
C1040 H1027 0.930 . S
C1040 C1039 1.388 . S
C1040 C1041 1.390 . S
C1041 C1040 1.390 . S
C1041 C1042 1.394 . S
C1041 C1047 1.465 1_455 S
C1042 C1037 1.399 . S
C1042 C1041 1.394 . S
C1042 C1043 1.516 1_455 S
C1043 C1042 1.516 1_655 S
C1043 C1044 1.502 1_655 S
C1043 C1045 1.561 . S
C1043 C1046 1.526 . S
C1044 H1028 0.959 . S
C1044 H1029 0.959 1_455 S
C1044 H1030 0.961 . S
C1044 C1043 1.502 1_455 S
C1045 H1031 0.970 . S
C1045 H1032 0.961 . S
C1045 H1033 0.959 . S
C1045 C1043 1.561 . S
C1046 C1043 1.526 . S
C1046 C1047 1.396 . S
C1046 C1051 1.390 . S
C1047 C1041 1.465 1_655 S
C1047 C1046 1.396 . S
C1047 C1048 1.399 . S
C1048 H1034 0.929 . S
C1048 C1047 1.399 . S
C1048 C1049 1.385 . S
C1049 H1035 0.931 . S
C1049 C1048 1.385 . S
C1049 C1050 1.389 . S
C1050 C1049 1.389 . S
C1050 C1051 1.387 . S
C1051 H1036 0.930 . S
C1051 C1046 1.390 . S
C1051 C1050 1.387 . S
H1052 C1064 0.930 . S
H1053 C1066 0.930 . S
H1054 C1067 0.930 . S
H1055 C1071 0.959 1_554 S
H1056 C1071 0.959 . S
H1057 C1071 0.961 . S
H1058 C1072 0.960 . S
H1059 C1072 0.961 . S
H1060 C1072 0.959 . S
H1061 C1075 0.929 1_554 S
H1062 C1076 0.931 . S
H1063 C1078 0.930 . S
C1064 H1052 0.930 . S
C1064 C1065 1.399 . S
C1064 C1069 1.399 1_554 S
C1065 C1064 1.399 . S
C1065 C1066 1.376 . S
C1066 H1053 0.930 . S
C1066 C1065 1.376 . S
C1066 C1067 1.388 . S
C1067 H1054 0.930 . S
C1067 C1066 1.388 . S
C1067 C1068 1.390 . S
C1068 C1067 1.390 . S
C1068 C1069 1.394 1_554 S
C1068 C1074 1.465 1_554 S
C1069 C1064 1.399 1_556 S
C1069 C1068 1.394 1_556 S
C1069 C1070 1.516 . S
C1070 C1069 1.516 . S
C1070 C1071 1.502 . S
C1070 C1072 1.561 . S
C1070 C1073 1.526 . S
C1071 H1055 0.959 1_556 S
C1071 H1056 0.959 . S
C1071 H1057 0.961 . S
C1071 C1070 1.502 . S
C1072 H1058 0.960 . S
C1072 H1059 0.961 . S
C1072 H1060 0.959 . S
C1072 C1070 1.561 . S
C1073 C1070 1.526 . S
C1073 C1074 1.396 . S
C1073 C1078 1.390 . S
C1074 C1068 1.465 1_556 S
C1074 C1073 1.396 . S
C1074 C1075 1.399 . S
C1075 H1061 0.929 1_556 S
C1075 C1074 1.399 . S
C1075 C1076 1.385 . S
C1076 H1062 0.931 . S
C1076 C1075 1.385 . S
C1076 C1077 1.389 . S
C1077 C1076 1.389 . S
C1077 C1078 1.387 . S
C1078 H1063 0.930 . S
C1078 C1073 1.390 . S
C1078 C1077 1.387 . S
H1079 C1091 0.930 1_556 S
H1080 C1093 0.930 . S
H1081 C1094 0.930 . S
H1082 C1098 0.959 1_556 S
H1083 C1098 0.959 . S
H1084 C1098 0.961 1_556 S
H1085 C1099 0.960 . S
H1086 C1099 0.961 . S
H1087 C1099 0.959 . S
H1088 C1102 0.929 . S
H1089 C1103 0.931 . S
H1090 C1105 0.930 . S
C1091 H1079 0.930 1_554 S
C1091 C1092 1.399 1_554 S
C1091 C1096 1.399 . S
C1092 C1091 1.399 1_556 S
C1092 C1093 1.376 1_556 S
C1093 H1080 0.930 . S
C1093 C1092 1.376 1_554 S
C1093 C1094 1.388 . S
C1094 H1081 0.930 . S
C1094 C1093 1.388 . S
C1094 C1095 1.390 . S
C1095 C1094 1.390 . S
C1095 C1096 1.394 . S
C1095 C1101 1.465 . S
C1096 C1091 1.399 . S
C1096 C1095 1.394 . S
C1096 C1097 1.516 . S
C1097 C1096 1.516 . S
C1097 C1098 1.502 . S
C1097 C1099 1.561 . S
C1097 C1100 1.526 . S
C1098 H1082 0.959 1_554 S
C1098 H1083 0.959 . S
C1098 H1084 0.961 1_554 S
C1098 C1097 1.502 . S
C1099 H1085 0.960 . S
C1099 H1086 0.961 . S
C1099 H1087 0.959 . S
C1099 C1097 1.561 . S
C1100 C1097 1.526 . S
C1100 C1101 1.396 . S
C1100 C1105 1.390 . S
C1101 C1095 1.465 . S
C1101 C1100 1.396 . S
C1101 C1102 1.399 . S
C1102 H1088 0.929 . S
C1102 C1101 1.399 . S
C1102 C1103 1.385 . S
C1103 H1089 0.931 . S
C1103 C1102 1.385 . S
C1103 C1104 1.389 . S
C1104 C1103 1.389 . S
C1104 C1105 1.387 . S
C1105 H1090 0.930 . S
C1105 C1100 1.390 . S
C1105 C1104 1.387 . S
H1106 C1118 0.930 . S
H1107 C1120 0.930 1_554 S
H1108 C1121 0.930 . S
H1109 C1125 0.959 . S
H1110 C1125 0.959 . S
H1111 C1125 0.961 . S
H1112 C1126 0.960 . S
H1113 C1126 0.961 . S
H1114 C1126 0.959 . S
H1115 C1129 0.929 . S
H1116 C1130 0.931 . S
H1117 C1132 0.930 . S
C1118 H1106 0.930 . S
C1118 C1119 1.399 . S
C1118 C1123 1.399 . S
C1119 C1118 1.399 . S
C1119 C1120 1.376 . S
C1120 H1107 0.930 1_556 S
C1120 C1119 1.376 . S
C1120 C1121 1.388 1_556 S
C1121 H1108 0.930 . S
C1121 C1120 1.388 1_554 S
C1121 C1122 1.390 . S
C1122 C1121 1.390 . S
C1122 C1123 1.394 1_554 S
C1122 C1128 1.465 . S
C1123 C1118 1.399 . S
C1123 C1122 1.394 1_556 S
C1123 C1124 1.516 . S
C1124 C1123 1.516 . S
C1124 C1125 1.502 . S
C1124 C1126 1.561 . S
C1124 C1127 1.526 . S
C1125 H1109 0.959 . S
C1125 H1110 0.959 . S
C1125 H1111 0.961 . S
C1125 C1124 1.502 . S
C1126 H1112 0.960 . S
C1126 H1113 0.961 . S
C1126 H1114 0.959 . S
C1126 C1124 1.561 . S
C1127 C1124 1.526 . S
C1127 C1128 1.396 1_556 S
C1127 C1132 1.390 . S
C1128 C1122 1.465 . S
C1128 C1127 1.396 1_554 S
C1128 C1129 1.399 . S
C1129 H1115 0.929 . S
C1129 C1128 1.399 . S
C1129 C1130 1.385 . S
C1130 H1116 0.931 . S
C1130 C1129 1.385 . S
C1130 C1131 1.389 . S
C1131 C1130 1.389 . S
C1131 C1132 1.387 1_554 S
C1132 H1117 0.930 . S
C1132 C1127 1.390 . S
C1132 C1131 1.387 1_556 S
H1133 C1145 0.930 . S
H1134 C1147 0.930 . S
H1135 C1148 0.930 . S
H1136 C1152 0.959 . S
H1137 C1152 0.959 . S
H1138 C1152 0.961 . S
H1139 C1153 0.960 . S
H1140 C1153 0.961 . S
H1141 C1153 0.959 . S
H1142 C1156 0.929 . S
H1143 C1157 0.931 . S
H1144 C1159 0.930 . S
C1145 H1133 0.930 . S
C1145 C1146 1.399 . S
C1145 C1150 1.399 . S
C1146 C1145 1.399 . S
C1146 C1147 1.376 . S
C1147 H1134 0.930 . S
C1147 C1146 1.376 . S
C1147 C1148 1.388 . S
C1148 H1135 0.930 . S
C1148 C1147 1.388 . S
C1148 C1149 1.390 . S
C1149 C1148 1.390 . S
C1149 C1150 1.394 . S
C1149 C1155 1.465 . S
C1150 C1145 1.399 . S
C1150 C1149 1.394 . S
C1150 C1151 1.516 1_554 S
C1151 C1150 1.516 1_556 S
C1151 C1152 1.502 . S
C1151 C1153 1.561 . S
C1151 C1154 1.526 1_556 S
C1152 H1136 0.959 . S
C1152 H1137 0.959 . S
C1152 H1138 0.961 . S
C1152 C1151 1.502 . S
C1153 H1139 0.960 . S
C1153 H1140 0.961 . S
C1153 H1141 0.959 . S
C1153 C1151 1.561 . S
C1154 C1151 1.526 1_554 S
C1154 C1155 1.396 . S
C1154 C1159 1.390 1_554 S
C1155 C1149 1.465 . S
C1155 C1154 1.396 . S
C1155 C1156 1.399 . S
C1156 H1142 0.929 . S
C1156 C1155 1.399 . S
C1156 C1157 1.385 . S
C1157 H1143 0.931 . S
C1157 C1156 1.385 . S
C1157 C1158 1.393 . S
C1158 C1157 1.393 . S
C1158 C1159 1.385 1_554 S
C1159 H1144 0.930 . S
C1159 C1154 1.390 1_556 S
C1159 C1158 1.385 1_556 S
H1160 C1172 0.930 . S
H1161 C1174 0.930 . S
H1162 C1175 0.930 . S
H1163 C1179 0.959 . S
H1164 C1179 0.959 . S
H1165 C1179 0.961 . S
H1166 C1180 0.960 . S
H1167 C1180 0.961 . S
H1168 C1180 0.959 . S
H1169 C1183 0.929 . S
H1170 C1184 0.931 . S
H1171 C1186 0.930 . S
C1172 H1160 0.930 . S
C1172 C1173 1.399 . S
C1172 C1177 1.399 . S
C1173 C1172 1.399 . S
C1173 C1174 1.376 . S
C1174 H1161 0.930 . S
C1174 C1173 1.376 . S
C1174 C1175 1.388 . S
C1175 H1162 0.930 . S
C1175 C1174 1.388 . S
C1175 C1176 1.390 . S
C1176 C1175 1.390 . S
C1176 C1177 1.394 . S
C1176 C1182 1.465 . S
C1177 C1172 1.399 . S
C1177 C1176 1.394 . S
C1177 C1178 1.516 . S
C1178 C1177 1.516 . S
C1178 C1179 1.502 . S
C1178 C1180 1.561 . S
C1178 C1181 1.526 . S
C1179 H1163 0.959 . S
C1179 H1164 0.959 . S
C1179 H1165 0.961 . S
C1179 C1178 1.502 . S
C1180 H1166 0.960 . S
C1180 H1167 0.961 . S
C1180 H1168 0.959 . S
C1180 C1178 1.561 . S
C1181 C1178 1.526 . S
C1181 C1182 1.396 . S
C1181 C1186 1.390 . S
C1182 C1176 1.465 . S
C1182 C1181 1.396 . S
C1182 C1183 1.399 . S
C1183 H1169 0.929 . S
C1183 C1182 1.399 . S
C1183 C1184 1.385 . S
C1184 H1170 0.931 . S
C1184 C1183 1.385 . S
C1184 C1185 1.389 . S
C1185 C1184 1.389 . S
C1185 C1186 1.387 . S
C1186 H1171 0.930 . S
C1186 C1181 1.390 . S
C1186 C1185 1.387 . S
H1187 C1199 0.930 . S
H1188 C1201 0.930 . S
H1189 C1202 0.930 . S
H1190 C1206 0.959 . S
H1191 C1206 0.959 1_556 S
H1192 C1206 0.961 . S
H1193 C1207 0.960 . S
H1194 C1207 0.961 . S
H1195 C1207 0.959 . S
H1196 C1210 0.929 . S
H1197 C1211 0.931 . S
H1198 C1213 0.930 . S
C1199 H1187 0.930 . S
C1199 C1200 1.399 . S
C1199 C1204 1.399 . S
C1200 C1199 1.399 . S
C1200 C1201 1.376 . S
C1201 H1188 0.930 . S
C1201 C1200 1.376 . S
C1201 C1202 1.388 . S
C1202 H1189 0.930 . S
C1202 C1201 1.388 . S
C1202 C1203 1.390 . S
C1203 C1202 1.390 . S
C1203 C1204 1.394 . S
C1203 C1209 1.465 . S
C1204 C1199 1.399 . S
C1204 C1203 1.394 . S
C1204 C1205 1.516 . S
C1205 C1204 1.516 . S
C1205 C1206 1.502 . S
C1205 C1207 1.561 . S
C1205 C1208 1.526 . S
C1206 H1190 0.959 . S
C1206 H1191 0.959 1_554 S
C1206 H1192 0.961 . S
C1206 C1205 1.502 . S
C1207 H1193 0.960 . S
C1207 H1194 0.961 . S
C1207 H1195 0.959 . S
C1207 C1205 1.561 . S
C1208 C1205 1.526 . S
C1208 C1209 1.396 . S
C1208 C1213 1.390 . S
C1209 C1203 1.465 . S
C1209 C1208 1.396 . S
C1209 C1210 1.399 . S
C1210 H1196 0.929 . S
C1210 C1209 1.399 . S
C1210 C1211 1.385 . S
C1211 H1197 0.931 . S
C1211 C1210 1.385 . S
C1211 C1212 1.389 . S
C1212 C1211 1.389 . S
C1212 C1213 1.387 . S
C1213 H1198 0.930 . S
C1213 C1208 1.390 . S
C1213 C1212 1.387 . S
H1214 C1226 0.930 . S
H1215 C1228 0.930 . S
H1216 C1229 0.930 . S
H1217 C1233 0.959 . S
H1218 C1233 0.959 . S
H1219 C1233 0.961 . S
H1220 C1234 0.960 . S
H1221 C1234 0.961 . S
H1222 C1234 0.959 . S
H1223 C1237 0.929 . S
H1224 C1238 0.931 . S
H1225 C1240 0.930 . S
C1226 H1214 0.930 . S
C1226 C1227 1.399 . S
C1226 C1231 1.399 . S
C1227 C1226 1.399 . S
C1227 C1228 1.376 . S
C1228 H1215 0.930 . S
C1228 C1227 1.376 . S
C1228 C1229 1.388 . S
C1229 H1216 0.930 . S
C1229 C1228 1.388 . S
C1229 C1230 1.390 . S
C1230 C1229 1.390 . S
C1230 C1231 1.394 . S
C1230 C1236 1.465 . S
C1231 C1226 1.399 . S
C1231 C1230 1.394 . S
C1231 C1232 1.516 . S
C1232 C1231 1.516 . S
C1232 C1233 1.502 . S
C1232 C1234 1.561 . S
C1232 C1235 1.526 . S
C1233 H1217 0.959 . S
C1233 H1218 0.959 . S
C1233 H1219 0.961 . S
C1233 C1232 1.502 . S
C1234 H1220 0.960 . S
C1234 H1221 0.961 . S
C1234 H1222 0.959 . S
C1234 C1232 1.561 . S
C1235 C1232 1.526 . S
C1235 C1236 1.396 . S
C1235 C1240 1.390 . S
C1236 C1230 1.465 . S
C1236 C1235 1.396 . S
C1236 C1237 1.399 . S
C1237 H1223 0.929 . S
C1237 C1236 1.399 . S
C1237 C1238 1.385 . S
C1238 H1224 0.931 . S
C1238 C1237 1.385 . S
C1238 C1239 1.389 . S
C1239 C1238 1.389 . S
C1239 C1240 1.387 . S
C1240 H1225 0.930 . S
C1240 C1235 1.390 . S
C1240 C1239 1.387 . S
H1241 C1253 0.930 . S
H1242 C1255 0.930 . S
H1243 C1256 0.930 . S
H1244 C1260 0.959 . S
H1245 C1260 0.959 . S
H1246 C1260 0.961 . S
H1247 C1261 0.960 . S
H1248 C1261 0.961 . S
H1249 C1261 0.959 . S
H1250 C1264 0.929 . S
H1251 C1265 0.931 . S
H1252 C1267 0.930 . S
C1253 H1241 0.930 . S
C1253 C1254 1.399 . S
C1253 C1258 1.399 . S
C1254 C1253 1.399 . S
C1254 C1255 1.376 . S
C1255 H1242 0.930 . S
C1255 C1254 1.376 . S
C1255 C1256 1.388 . S
C1256 H1243 0.930 . S
C1256 C1255 1.388 . S
C1256 C1257 1.390 . S
C1257 C1256 1.390 . S
C1257 C1258 1.394 . S
C1257 C1263 1.465 . S
C1258 C1253 1.399 . S
C1258 C1257 1.394 . S
C1258 C1259 1.516 . S
C1259 C1258 1.516 . S
C1259 C1260 1.502 . S
C1259 C1261 1.561 . S
C1259 C1262 1.526 . S
C1260 H1244 0.959 . S
C1260 H1245 0.959 . S
C1260 H1246 0.961 . S
C1260 C1259 1.502 . S
C1261 H1247 0.960 . S
C1261 H1248 0.961 . S
C1261 H1249 0.959 . S
C1261 C1259 1.561 . S
C1262 C1259 1.526 . S
C1262 C1263 1.396 . S
C1262 C1267 1.390 . S
C1263 C1257 1.465 . S
C1263 C1262 1.396 . S
C1263 C1264 1.399 . S
C1264 H1250 0.929 . S
C1264 C1263 1.399 . S
C1264 C1265 1.385 . S
C1265 H1251 0.931 . S
C1265 C1264 1.385 . S
C1265 C1266 1.389 . S
C1266 C1265 1.389 . S
C1266 C1267 1.387 . S
C1267 H1252 0.930 . S
C1267 C1262 1.390 . S
C1267 C1266 1.387 . S
H1268 C1280 0.930 . S
H1269 C1282 0.930 . S
H1270 C1283 0.930 1_545 S
H1271 C1287 0.959 . S
H1272 C1287 0.955 1_545 S
H1273 C1287 0.961 . S
H1274 C1288 0.960 . S
H1275 C1288 0.961 1_545 S
H1276 C1288 0.970 . S
H1277 C1291 0.929 . S
H1278 C1292 0.931 . S
H1279 C1294 0.930 . S
C1280 H1268 0.930 . S
C1280 C1281 1.399 . S
C1280 C1285 1.399 . S
C1281 C1280 1.399 . S
C1281 C1282 1.376 . S
C1282 H1269 0.930 . S
C1282 C1281 1.376 . S
C1282 C1283 1.388 . S
C1283 H1270 0.930 1_565 S
C1283 C1282 1.388 . S
C1283 C1284 1.390 1_565 S
C1284 C1283 1.390 1_545 S
C1284 C1285 1.394 1_545 S
C1284 C1290 1.465 . S
C1285 C1280 1.399 . S
C1285 C1284 1.394 1_565 S
C1285 C1286 1.516 . S
C1286 C1285 1.516 . S
C1286 C1287 1.502 . S
C1286 C1288 1.561 . S
C1286 C1289 1.526 1_565 S
C1287 H1271 0.959 . S
C1287 H1272 0.955 1_565 S
C1287 H1273 0.961 . S
C1287 C1286 1.502 . S
C1288 H1274 0.960 . S
C1288 H1275 0.961 1_565 S
C1288 H1276 0.970 . S
C1288 C1286 1.561 . S
C1289 C1286 1.526 1_545 S
C1289 C1290 1.396 . S
C1289 C1294 1.390 . S
C1290 C1284 1.465 . S
C1290 C1289 1.396 . S
C1290 C1291 1.399 . S
C1291 H1277 0.929 . S
C1291 C1290 1.399 . S
C1291 C1292 1.385 . S
C1292 H1278 0.931 . S
C1292 C1291 1.385 . S
C1292 C1293 1.389 . S
C1293 C1292 1.389 . S
C1293 C1294 1.387 . S
C1294 H1279 0.930 . S
C1294 C1289 1.390 . S
C1294 C1293 1.387 . S
H1295 C1307 0.930 . S
H1296 C1309 0.930 . S
H1297 C1310 0.930 . S
H1298 C1314 0.959 . S
H1299 C1314 0.959 . S
H1300 C1314 0.961 1_655 S
H1301 C1315 0.960 . S
H1302 C1315 0.961 . S
H1303 C1315 0.959 . S
H1304 C1318 0.929 . S
H1305 C1319 0.931 . S
H1306 C1321 0.930 . S
C1307 H1295 0.930 . S
C1307 C1308 1.399 . S
C1307 C1312 1.399 . S
C1308 C1307 1.399 . S
C1308 C1309 1.376 . S
C1309 H1296 0.930 . S
C1309 C1308 1.376 . S
C1309 C1310 1.388 . S
C1310 H1297 0.930 . S
C1310 C1309 1.388 . S
C1310 C1311 1.390 . S
C1311 C1310 1.390 . S
C1311 C1312 1.394 . S
C1311 C1317 1.465 1_655 S
C1312 C1307 1.399 . S
C1312 C1311 1.394 . S
C1312 C1313 1.516 . S
C1313 C1312 1.516 . S
C1313 C1314 1.502 1_655 S
C1313 C1315 1.561 . S
C1313 C1316 1.526 1_655 S
C1314 H1298 0.959 . S
C1314 H1299 0.959 . S
C1314 H1300 0.961 1_455 S
C1314 C1313 1.502 1_455 S
C1315 H1301 0.960 . S
C1315 H1302 0.961 . S
C1315 H1303 0.959 . S
C1315 C1313 1.561 . S
C1316 C1313 1.526 1_455 S
C1316 C1317 1.396 . S
C1316 C1321 1.390 . S
C1317 C1311 1.465 1_455 S
C1317 C1316 1.396 . S
C1317 C1318 1.399 . S
C1318 H1304 0.929 . S
C1318 C1317 1.399 . S
C1318 C1319 1.385 . S
C1319 H1305 0.931 . S
C1319 C1318 1.385 . S
C1319 C1320 1.389 . S
C1320 C1319 1.389 . S
C1320 C1321 1.387 . S
C1321 H1306 0.930 . S
C1321 C1316 1.390 . S
C1321 C1320 1.387 . S
H1322 C1334 0.930 . S
H1323 C1336 0.930 . S
H1324 C1337 0.930 . S
H1325 C1341 0.961 . S
H1326 C1341 0.955 1_545 S
H1327 C1341 0.963 . S
H1328 C1342 0.960 1_565 S
H1329 C1342 0.961 . S
H1330 C1342 0.959 . S
H1331 C1345 0.943 . S
H1332 C1346 0.931 . S
H1333 C1348 0.930 . S
C1334 H1322 0.930 . S
C1334 C1335 1.399 . S
C1334 C1339 1.399 . S
C1335 C1334 1.399 . S
C1335 C1336 1.376 . S
C1336 H1323 0.930 . S
C1336 C1335 1.376 . S
C1336 C1337 1.388 . S
C1337 H1324 0.930 . S
C1337 C1336 1.388 . S
C1337 C1338 1.390 . S
C1338 C1337 1.390 . S
C1338 C1339 1.394 . S
C1338 C1344 1.473 . S
C1339 C1334 1.399 . S
C1339 C1338 1.394 . S
C1339 C1340 1.545 . S
C1340 C1339 1.545 . S
C1340 C1341 1.501 . S
C1340 C1342 1.550 1_565 S
C1340 C1343 1.509 1_565 S
C1341 H1325 0.961 . S
C1341 H1326 0.955 1_565 S
C1341 H1327 0.963 . S
C1341 C1340 1.501 . S
C1342 H1328 0.960 1_545 S
C1342 H1329 0.961 . S
C1342 H1330 0.959 . S
C1342 C1340 1.550 1_545 S
C1343 C1340 1.509 1_545 S
C1343 C1344 1.392 1_545 S
C1343 C1348 1.390 . S
C1344 C1338 1.473 . S
C1344 C1343 1.392 1_565 S
C1344 C1345 1.396 1_565 S
C1345 H1331 0.943 . S
C1345 C1344 1.396 1_545 S
C1345 C1346 1.385 . S
C1346 H1332 0.931 . S
C1346 C1345 1.385 . S
C1346 C1347 1.389 . S
C1347 C1346 1.389 . S
C1347 C1348 1.387 . S
C1348 H1333 0.930 . S
C1348 C1343 1.390 . S
C1348 C1347 1.387 . S
H1349 C1361 0.930 . S
H1350 C1363 0.930 . S
H1351 C1364 0.930 . S
H1352 C1368 0.959 . S
H1353 C1368 0.959 1_455 S
H1354 C1368 0.961 . S
H1355 C1369 0.960 1_655 S
H1356 C1369 0.961 . S
H1357 C1369 0.959 . S
H1358 C1372 0.929 . S
H1359 C1373 0.931 . S
H1360 C1375 0.930 . S
C1361 H1349 0.930 . S
C1361 C1362 1.399 . S
C1361 C1366 1.399 . S
C1362 C1361 1.399 . S
C1362 C1363 1.376 . S
C1363 H1350 0.930 . S
C1363 C1362 1.376 . S
C1363 C1364 1.388 . S
C1364 H1351 0.930 . S
C1364 C1363 1.388 . S
C1364 C1365 1.390 . S
C1365 C1364 1.390 . S
C1365 C1366 1.394 . S
C1365 C1371 1.465 1_655 S
C1366 C1361 1.399 . S
C1366 C1365 1.394 . S
C1366 C1367 1.502 1_655 S
C1367 C1366 1.502 1_455 S
C1367 C1368 1.494 1_455 S
C1367 C1369 1.569 . S
C1367 C1370 1.542 . S
C1368 H1352 0.959 . S
C1368 H1353 0.959 1_655 S
C1368 H1354 0.961 . S
C1368 C1367 1.494 1_655 S
C1369 H1355 0.960 1_455 S
C1369 H1356 0.961 . S
C1369 H1357 0.959 . S
C1369 C1367 1.569 . S
C1370 C1367 1.542 . S
C1370 C1371 1.396 . S
C1370 C1375 1.390 . S
C1371 C1365 1.465 1_455 S
C1371 C1370 1.396 . S
C1371 C1372 1.399 . S
C1372 H1358 0.929 . S
C1372 C1371 1.399 . S
C1372 C1373 1.385 . S
C1373 H1359 0.931 . S
C1373 C1372 1.385 . S
C1373 C1374 1.389 . S
C1374 C1373 1.389 . S
C1374 C1375 1.387 . S
C1375 H1360 0.930 . S
C1375 C1370 1.390 . S
C1375 C1374 1.387 . S
H1376 C1388 0.930 . S
H1377 C1390 0.930 . S
H1378 C1391 0.930 . S
H1379 C1395 0.959 . S
H1380 C1395 0.959 1_556 S
H1381 C1395 0.961 1_556 S
H1382 C1396 0.960 . S
H1383 C1396 0.961 . S
H1384 C1396 0.959 . S
H1385 C1399 0.929 . S
H1386 C1400 0.931 . S
H1387 C1402 0.930 . S
C1388 H1376 0.930 . S
C1388 C1389 1.399 . S
C1388 C1393 1.399 . S
C1389 C1388 1.399 . S
C1389 C1390 1.376 . S
C1390 H1377 0.930 . S
C1390 C1389 1.376 . S
C1390 C1391 1.388 . S
C1391 H1378 0.930 . S
C1391 C1390 1.388 . S
C1391 C1392 1.390 . S
C1392 C1391 1.390 . S
C1392 C1393 1.394 . S
C1392 C1398 1.465 . S
C1393 C1388 1.399 . S
C1393 C1392 1.394 . S
C1393 C1394 1.516 . S
C1394 C1393 1.516 . S
C1394 C1395 1.502 . S
C1394 C1396 1.561 1_554 S
C1394 C1397 1.526 . S
C1395 H1379 0.959 . S
C1395 H1380 0.959 1_554 S
C1395 H1381 0.961 1_554 S
C1395 C1394 1.502 . S
C1396 H1382 0.960 . S
C1396 H1383 0.961 . S
C1396 H1384 0.959 . S
C1396 C1394 1.561 1_556 S
C1397 C1394 1.526 . S
C1397 C1398 1.396 . S
C1397 C1402 1.390 . S
C1398 C1392 1.465 . S
C1398 C1397 1.396 . S
C1398 C1399 1.399 . S
C1399 H1385 0.929 . S
C1399 C1398 1.399 . S
C1399 C1400 1.385 . S
C1400 H1386 0.931 . S
C1400 C1399 1.385 . S
C1400 C1401 1.389 . S
C1401 C1400 1.389 . S
C1401 C1402 1.387 . S
C1402 H1387 0.930 . S
C1402 C1397 1.390 . S
C1402 C1401 1.387 . S
H1403 C1415 0.930 . S
H1404 C1417 0.930 . S
H1405 C1418 0.930 . S
H1406 C1422 0.959 . S
H1407 C1422 0.959 . S
H1408 C1422 0.961 . S
H1409 C1423 0.960 . S
H1410 C1423 0.961 . S
H1411 C1423 0.959 . S
H1412 C1426 0.929 . S
H1413 C1427 0.931 . S
H1414 C1429 0.930 . S
C1415 H1403 0.930 . S
C1415 C1416 1.399 . S
C1415 C1420 1.399 . S
C1416 C1415 1.399 . S
C1416 C1417 1.376 . S
C1417 H1404 0.930 . S
C1417 C1416 1.376 . S
C1417 C1418 1.388 . S
C1418 H1405 0.930 . S
C1418 C1417 1.388 . S
C1418 C1419 1.390 . S
C1419 C1418 1.390 . S
C1419 C1420 1.394 . S
C1419 C1425 1.465 . S
C1420 C1415 1.399 . S
C1420 C1419 1.394 . S
C1420 C1421 1.516 . S
C1421 C1420 1.516 . S
C1421 C1422 1.502 . S
C1421 C1423 1.561 . S
C1421 C1424 1.526 . S
C1422 H1406 0.959 . S
C1422 H1407 0.959 . S
C1422 H1408 0.961 . S
C1422 C1421 1.502 . S
C1423 H1409 0.960 . S
C1423 H1410 0.961 . S
C1423 H1411 0.959 . S
C1423 C1421 1.561 . S
C1424 C1421 1.526 . S
C1424 C1425 1.396 . S
C1424 C1429 1.390 . S
C1425 C1419 1.465 . S
C1425 C1424 1.396 . S
C1425 C1426 1.399 . S
C1426 H1412 0.929 . S
C1426 C1425 1.399 . S
C1426 C1427 1.385 . S
C1427 H1413 0.931 . S
C1427 C1426 1.385 . S
C1427 C1428 1.389 . S
C1428 C1427 1.389 . S
C1428 C1429 1.387 . S
C1429 H1414 0.930 . S
C1429 C1424 1.390 . S
C1429 C1428 1.387 . S
H1430 C1442 0.930 . S
H1431 C1444 0.930 1_556 S
H1432 C1445 0.930 1_556 S
H1433 C1449 0.959 . S
H1434 C1449 0.959 . S
H1435 C1449 0.961 . S
H1436 C1450 0.960 . S
H1437 C1450 0.961 . S
H1438 C1450 0.959 . S
H1439 C1453 0.929 1_556 S
H1440 C1454 0.931 . S
H1441 C1456 0.930 . S
C1442 H1430 0.930 . S
C1442 C1443 1.399 . S
C1442 C1447 1.399 . S
C1443 C1442 1.399 . S
C1443 C1444 1.376 . S
C1444 H1431 0.930 1_554 S
C1444 C1443 1.376 . S
C1444 C1445 1.388 . S
C1445 H1432 0.930 1_554 S
C1445 C1444 1.388 . S
C1445 C1446 1.390 . S
C1446 C1445 1.390 . S
C1446 C1447 1.394 . S
C1446 C1452 1.465 . S
C1447 C1442 1.399 . S
C1447 C1446 1.394 . S
C1447 C1448 1.516 . S
C1448 C1447 1.516 . S
C1448 C1449 1.502 . S
C1448 C1450 1.561 . S
C1448 C1451 1.526 . S
C1449 H1433 0.959 . S
C1449 H1434 0.959 . S
C1449 H1435 0.961 . S
C1449 C1448 1.502 . S
C1450 H1436 0.960 . S
C1450 H1437 0.961 . S
C1450 H1438 0.959 . S
C1450 C1448 1.561 . S
C1451 C1448 1.526 . S
C1451 C1452 1.396 . S
C1451 C1456 1.390 . S
C1452 C1446 1.465 . S
C1452 C1451 1.396 . S
C1452 C1453 1.399 . S
C1453 H1439 0.929 1_554 S
C1453 C1452 1.399 . S
C1453 C1454 1.385 . S
C1454 H1440 0.931 . S
C1454 C1453 1.385 . S
C1454 C1455 1.389 . S
C1455 C1454 1.389 . S
C1455 C1456 1.387 . S
C1456 H1441 0.930 . S
C1456 C1451 1.390 . S
C1456 C1455 1.387 . S
H1457 C1469 0.930 . S
H1458 C1471 0.930 . S
H1459 C1472 0.930 . S
H1460 C1476 0.959 1_554 S
H1461 C1476 0.959 . S
H1462 C1476 0.961 . S
H1463 C1477 0.960 . S
H1464 C1477 0.961 . S
H1465 C1477 0.959 . S
H1466 C1480 0.929 . S
H1467 C1481 0.931 . S
H1468 C1483 0.930 . S
C1469 H1457 0.930 . S
C1469 C1470 1.399 . S
C1469 C1474 1.399 . S
C1470 C1469 1.399 . S
C1470 C1471 1.376 . S
C1471 H1458 0.930 . S
C1471 C1470 1.376 . S
C1471 C1472 1.388 . S
C1472 H1459 0.930 . S
C1472 C1471 1.388 . S
C1472 C1473 1.390 . S
C1473 C1472 1.390 . S
C1473 C1474 1.394 . S
C1473 C1479 1.465 . S
C1474 C1469 1.399 . S
C1474 C1473 1.394 . S
C1474 C1475 1.516 . S
C1475 C1474 1.516 . S
C1475 C1476 1.502 . S
C1475 C1477 1.561 . S
C1475 C1478 1.526 . S
C1476 H1460 0.959 1_556 S
C1476 H1461 0.959 . S
C1476 H1462 0.961 . S
C1476 C1475 1.502 . S
C1477 H1463 0.960 . S
C1477 H1464 0.961 . S
C1477 H1465 0.959 . S
C1477 C1475 1.561 . S
C1478 C1475 1.526 . S
C1478 C1479 1.396 . S
C1478 C1483 1.390 . S
C1479 C1473 1.465 . S
C1479 C1478 1.396 . S
C1479 C1480 1.399 . S
C1480 H1466 0.929 . S
C1480 C1479 1.399 . S
C1480 C1481 1.385 . S
C1481 H1467 0.931 . S
C1481 C1480 1.385 . S
C1481 C1482 1.389 . S
C1482 C1481 1.389 . S
C1482 C1483 1.387 . S
C1483 H1468 0.930 . S
C1483 C1478 1.390 . S
C1483 C1482 1.387 . S
H1484 C1496 0.930 . S
H1485 C1498 0.930 . S
H1486 C1499 0.930 . S
H1487 C1503 0.959 . S
H1488 C1503 0.959 . S
H1489 C1503 0.961 . S
H1490 C1504 0.960 . S
H1491 C1504 0.961 . S
H1492 C1504 0.959 . S
H1493 C1507 0.929 . S
H1494 C1508 0.931 . S
H1495 C1510 0.930 . S
C1496 H1484 0.930 . S
C1496 C1497 1.399 . S
C1496 C1501 1.399 . S
C1497 C1496 1.399 . S
C1497 C1498 1.376 . S
C1498 H1485 0.930 . S
C1498 C1497 1.376 . S
C1498 C1499 1.388 . S
C1499 H1486 0.930 . S
C1499 C1498 1.388 . S
C1499 C1500 1.390 . S
C1500 C1499 1.390 . S
C1500 C1501 1.394 . S
C1500 C1506 1.465 . S
C1501 C1496 1.399 . S
C1501 C1500 1.394 . S
C1501 C1502 1.516 . S
C1502 C1501 1.516 . S
C1502 C1503 1.502 . S
C1502 C1504 1.561 . S
C1502 C1505 1.526 . S
C1503 H1487 0.959 . S
C1503 H1488 0.959 . S
C1503 H1489 0.961 . S
C1503 C1502 1.502 . S
C1504 H1490 0.960 . S
C1504 H1491 0.961 . S
C1504 H1492 0.959 . S
C1504 C1502 1.561 . S
C1505 C1502 1.526 . S
C1505 C1506 1.396 . S
C1505 C1510 1.390 . S
C1506 C1500 1.465 . S
C1506 C1505 1.396 . S
C1506 C1507 1.399 . S
C1507 H1493 0.929 . S
C1507 C1506 1.399 . S
C1507 C1508 1.385 . S
C1508 H1494 0.931 . S
C1508 C1507 1.385 . S
C1508 C1509 1.389 . S
C1509 C1508 1.389 . S
C1509 C1510 1.387 . S
C1510 H1495 0.930 . S
C1510 C1505 1.390 . S
C1510 C1509 1.387 . S
H1511 C1523 0.930 . S
H1512 C1525 0.930 . S
H1513 C1526 0.930 . S
H1514 C1530 0.959 . S
H1515 C1530 0.959 . S
H1516 C1530 0.961 . S
H1517 C1531 0.960 . S
H1518 C1531 0.961 . S
H1519 C1531 0.959 . S
H1520 C1534 0.929 . S
H1521 C1535 0.931 . S
H1522 C1537 0.930 . S
C1523 H1511 0.930 . S
C1523 C1524 1.399 . S
C1523 C1528 1.399 . S
C1524 C1523 1.399 . S
C1524 C1525 1.376 . S
C1525 H1512 0.930 . S
C1525 C1524 1.376 . S
C1525 C1526 1.388 . S
C1526 H1513 0.930 . S
C1526 C1525 1.388 . S
C1526 C1527 1.390 . S
C1527 C1526 1.390 . S
C1527 C1528 1.394 . S
C1527 C1533 1.465 . S
C1528 C1523 1.399 . S
C1528 C1527 1.394 . S
C1528 C1529 1.516 . S
C1529 C1528 1.516 . S
C1529 C1530 1.502 . S
C1529 C1531 1.561 . S
C1529 C1532 1.526 . S
C1530 H1514 0.959 . S
C1530 H1515 0.959 . S
C1530 H1516 0.961 . S
C1530 C1529 1.502 . S
C1531 H1517 0.960 . S
C1531 H1518 0.961 . S
C1531 H1519 0.959 . S
C1531 C1529 1.561 . S
C1532 C1529 1.526 . S
C1532 C1533 1.396 . S
C1532 C1537 1.390 . S
C1533 C1527 1.465 . S
C1533 C1532 1.396 . S
C1533 C1534 1.399 . S
C1534 H1520 0.929 . S
C1534 C1533 1.399 . S
C1534 C1535 1.385 . S
C1535 H1521 0.931 . S
C1535 C1534 1.385 . S
C1535 C1536 1.389 . S
C1536 C1535 1.389 . S
C1536 C1537 1.387 . S
C1537 H1522 0.930 . S
C1537 C1532 1.390 . S
C1537 C1536 1.387 . S
H1538 C1550 0.930 . S
H1539 C1552 0.930 . S
H1540 C1553 0.930 . S
H1541 C1557 0.959 . S
H1542 C1557 0.959 . S
H1543 C1557 0.961 . S
H1544 C1558 0.960 . S
H1545 C1558 0.961 . S
H1546 C1558 0.959 . S
H1547 C1561 0.929 . S
H1548 C1562 0.931 . S
H1549 C1564 0.930 . S
C1550 H1538 0.930 . S
C1550 C1551 1.399 . S
C1550 C1555 1.399 . S
C1551 C1550 1.399 . S
C1551 C1552 1.376 . S
C1552 H1539 0.930 . S
C1552 C1551 1.376 . S
C1552 C1553 1.388 . S
C1553 H1540 0.930 . S
C1553 C1552 1.388 . S
C1553 C1554 1.390 . S
C1554 C1553 1.390 . S
C1554 C1555 1.394 . S
C1554 C1560 1.465 . S
C1555 C1550 1.399 . S
C1555 C1554 1.394 . S
C1555 C1556 1.516 . S
C1556 C1555 1.516 . S
C1556 C1557 1.502 . S
C1556 C1558 1.561 . S
C1556 C1559 1.526 . S
C1557 H1541 0.959 . S
C1557 H1542 0.959 . S
C1557 H1543 0.961 . S
C1557 C1556 1.502 . S
C1558 H1544 0.960 . S
C1558 H1545 0.961 . S
C1558 H1546 0.959 . S
C1558 C1556 1.561 . S
C1559 C1556 1.526 . S
C1559 C1560 1.396 . S
C1559 C1564 1.390 . S
C1560 C1554 1.465 . S
C1560 C1559 1.396 . S
C1560 C1561 1.399 . S
C1561 H1547 0.929 . S
C1561 C1560 1.399 . S
C1561 C1562 1.385 . S
C1562 H1548 0.931 . S
C1562 C1561 1.385 . S
C1562 C1563 1.389 . S
C1563 C1562 1.389 . S
C1563 C1564 1.387 . S
C1564 H1549 0.930 . S
C1564 C1559 1.390 . S
C1564 C1563 1.387 . S
H1565 C1577 0.930 . S
H1566 C1579 0.930 . S
H1567 C1580 0.930 . S
H1568 C1584 0.959 . S
H1569 C1584 0.959 . S
H1570 C1584 0.961 . S
H1571 C1585 0.960 . S
H1572 C1585 0.961 . S
H1573 C1585 0.959 . S
H1574 C1588 0.929 . S
H1575 C1589 0.931 . S
H1576 C1591 0.930 . S
C1577 H1565 0.930 . S
C1577 C1578 1.399 . S
C1577 C1582 1.399 . S
C1578 C1577 1.399 . S
C1578 C1579 1.376 . S
C1579 H1566 0.930 . S
C1579 C1578 1.376 . S
C1579 C1580 1.388 . S
C1580 H1567 0.930 . S
C1580 C1579 1.388 . S
C1580 C1581 1.390 . S
C1581 C1580 1.390 . S
C1581 C1582 1.394 . S
C1581 C1587 1.465 . S
C1582 C1577 1.399 . S
C1582 C1581 1.394 . S
C1582 C1583 1.516 . S
C1583 C1582 1.516 . S
C1583 C1584 1.502 . S
C1583 C1585 1.561 . S
C1583 C1586 1.526 . S
C1584 H1568 0.959 . S
C1584 H1569 0.959 . S
C1584 H1570 0.961 . S
C1584 C1583 1.502 . S
C1585 H1571 0.960 . S
C1585 H1572 0.961 . S
C1585 H1573 0.959 . S
C1585 C1583 1.561 . S
C1586 C1583 1.526 . S
C1586 C1587 1.396 . S
C1586 C1591 1.390 . S
C1587 C1581 1.465 . S
C1587 C1586 1.396 . S
C1587 C1588 1.399 . S
C1588 H1574 0.929 . S
C1588 C1587 1.399 . S
C1588 C1589 1.385 . S
C1589 H1575 0.931 . S
C1589 C1588 1.385 . S
C1589 C1590 1.389 . S
C1590 C1589 1.389 . S
C1590 C1591 1.387 . S
C1591 H1576 0.930 . S
C1591 C1586 1.390 . S
C1591 C1590 1.387 . S
H1592 C1604 0.930 . S
H1593 C1606 0.930 . S
H1594 C1607 0.930 . S
H1595 C1611 0.959 1_554 S
H1596 C1611 0.959 1_554 S
H1597 C1611 0.960 1_554 S
H1598 C1612 0.960 . S
H1599 C1612 0.961 . S
H1600 C1612 0.959 . S
H1601 C1615 0.929 . S
H1602 C1616 0.931 . S
H1603 C1618 0.930 . S
C1604 H1592 0.930 . S
C1604 C1605 1.399 . S
C1604 C1609 1.399 . S
C1605 C1604 1.399 . S
C1605 C1606 1.376 . S
C1606 H1593 0.930 . S
C1606 C1605 1.376 . S
C1606 C1607 1.388 . S
C1607 H1594 0.930 . S
C1607 C1606 1.388 . S
C1607 C1608 1.390 . S
C1608 C1607 1.390 . S
C1608 C1609 1.394 . S
C1608 C1614 1.465 . S
C1609 C1604 1.399 . S
C1609 C1608 1.394 . S
C1609 C1610 1.516 . S
C1610 C1609 1.516 . S
C1610 C1611 1.502 . S
C1610 C1612 1.561 . S
C1610 C1613 1.526 . S
C1611 H1595 0.959 1_556 S
C1611 H1596 0.959 1_556 S
C1611 H1597 0.960 1_556 S
C1611 C1610 1.502 . S
C1612 H1598 0.960 . S
C1612 H1599 0.961 . S
C1612 H1600 0.959 . S
C1612 C1610 1.561 . S
C1613 C1610 1.526 . S
C1613 C1614 1.396 . S
C1613 C1618 1.390 . S
C1614 C1608 1.465 . S
C1614 C1613 1.396 . S
C1614 C1615 1.399 . S
C1615 H1601 0.929 . S
C1615 C1614 1.399 . S
C1615 C1616 1.385 . S
C1616 H1602 0.931 . S
C1616 C1615 1.385 . S
C1616 C1617 1.389 . S
C1617 C1616 1.389 . S
C1617 C1618 1.387 . S
C1618 H1603 0.930 . S
C1618 C1613 1.390 . S
C1618 C1617 1.387 . S
H1619 C1631 0.930 . S
H1620 C1633 0.930 . S
H1621 C1634 0.930 . S
H1622 C1638 0.959 1_554 S
H1623 C1638 0.959 . S
H1624 C1638 0.961 . S
H1625 C1639 0.960 . S
H1626 C1639 0.961 . S
H1627 C1639 0.959 . S
H1628 C1642 0.929 . S
H1629 C1643 0.931 . S
H1630 C1645 0.930 1_556 S
C1631 H1619 0.930 . S
C1631 C1632 1.399 . S
C1631 C1636 1.399 . S
C1632 C1631 1.399 . S
C1632 C1633 1.376 . S
C1633 H1620 0.930 . S
C1633 C1632 1.376 . S
C1633 C1634 1.388 . S
C1634 H1621 0.930 . S
C1634 C1633 1.388 . S
C1634 C1635 1.390 . S
C1635 C1634 1.390 . S
C1635 C1636 1.394 . S
C1635 C1641 1.465 . S
C1636 C1631 1.399 . S
C1636 C1635 1.394 . S
C1636 C1637 1.516 . S
C1637 C1636 1.516 . S
C1637 C1638 1.502 1_554 S
C1637 C1639 1.561 1_554 S
C1637 C1640 1.526 . S
C1638 H1622 0.959 1_556 S
C1638 H1623 0.959 . S
C1638 H1624 0.961 . S
C1638 C1637 1.502 1_556 S
C1639 H1625 0.960 . S
C1639 H1626 0.961 . S
C1639 H1627 0.959 . S
C1639 C1637 1.561 1_556 S
C1640 C1637 1.526 . S
C1640 C1641 1.396 . S
C1640 C1645 1.390 . S
C1641 C1635 1.465 . S
C1641 C1640 1.396 . S
C1641 C1642 1.399 . S
C1642 H1628 0.929 . S
C1642 C1641 1.399 . S
C1642 C1643 1.385 . S
C1643 H1629 0.931 . S
C1643 C1642 1.385 . S
C1643 C1644 1.389 . S
C1644 C1643 1.389 . S
C1644 C1645 1.387 . S
C1645 H1630 0.930 1_554 S
C1645 C1640 1.390 . S
C1645 C1644 1.387 . S
H1646 C1658 0.930 . S
H1647 C1660 0.930 1_554 S
H1648 C1661 0.930 1_554 S
H1649 C1665 0.959 . S
H1650 C1665 0.959 . S
H1651 C1665 0.961 . S
H1652 C1666 0.960 . S
H1653 C1666 0.961 . S
H1654 C1666 0.959 . S
H1655 C1669 0.929 1_554 S
H1656 C1670 0.931 . S
H1657 C1672 0.930 . S
C1658 H1646 0.930 . S
C1658 C1659 1.399 . S
C1658 C1663 1.399 . S
C1659 C1658 1.399 . S
C1659 C1660 1.376 . S
C1660 H1647 0.930 1_556 S
C1660 C1659 1.376 . S
C1660 C1661 1.388 . S
C1661 H1648 0.930 1_556 S
C1661 C1660 1.388 . S
C1661 C1662 1.390 . S
C1662 C1661 1.390 . S
C1662 C1663 1.394 . S
C1662 C1668 1.465 . S
C1663 C1658 1.399 . S
C1663 C1662 1.394 . S
C1663 C1664 1.516 . S
C1664 C1663 1.516 . S
C1664 C1665 1.502 . S
C1664 C1666 1.561 . S
C1664 C1667 1.526 . S
C1665 H1649 0.959 . S
C1665 H1650 0.959 . S
C1665 H1651 0.961 . S
C1665 C1664 1.502 . S
C1666 H1652 0.960 . S
C1666 H1653 0.961 . S
C1666 H1654 0.959 . S
C1666 C1664 1.561 . S
C1667 C1664 1.526 . S
C1667 C1668 1.396 . S
C1667 C1672 1.390 . S
C1668 C1662 1.465 . S
C1668 C1667 1.396 . S
C1668 C1669 1.399 . S
C1669 H1655 0.929 1_556 S
C1669 C1668 1.399 . S
C1669 C1670 1.385 . S
C1670 H1656 0.931 . S
C1670 C1669 1.385 . S
C1670 C1671 1.389 . S
C1671 C1670 1.389 . S
C1671 C1672 1.387 . S
C1672 H1657 0.930 . S
C1672 C1667 1.390 . S
C1672 C1671 1.387 . S
H1673 C1685 0.930 . S
H1674 C1687 0.930 . S
H1675 C1688 0.930 . S
H1676 C1692 0.953 1_554 S
H1677 C1692 0.967 . S
H1678 C1692 0.963 . S
H1679 C1693 0.960 . S
H1680 C1693 0.961 . S
H1681 C1693 0.959 . S
H1682 C1696 0.929 . S
H1683 C1697 0.931 . S
H1684 C1699 0.930 1_556 S
C1685 H1673 0.930 . S
C1685 C1686 1.399 . S
C1685 C1690 1.399 . S
C1686 C1685 1.399 . S
C1686 C1687 1.376 . S
C1687 H1674 0.930 . S
C1687 C1686 1.376 . S
C1687 C1688 1.388 . S
C1688 H1675 0.930 . S
C1688 C1687 1.388 . S
C1688 C1689 1.390 . S
C1689 C1688 1.390 . S
C1689 C1690 1.394 . S
C1689 C1695 1.465 . S
C1690 C1685 1.399 . S
C1690 C1689 1.394 . S
C1690 C1691 1.516 . S
C1691 C1690 1.516 . S
C1691 C1692 1.498 1_554 S
C1691 C1693 1.561 1_554 S
C1691 C1694 1.526 . S
C1692 H1676 0.953 1_556 S
C1692 H1677 0.967 . S
C1692 H1678 0.963 . S
C1692 C1691 1.498 1_556 S
C1693 H1679 0.960 . S
C1693 H1680 0.961 . S
C1693 H1681 0.959 . S
C1693 C1691 1.561 1_556 S
C1694 C1691 1.526 . S
C1694 C1695 1.396 . S
C1694 C1699 1.390 . S
C1695 C1689 1.465 . S
C1695 C1694 1.396 . S
C1695 C1696 1.399 . S
C1696 H1682 0.929 . S
C1696 C1695 1.399 . S
C1696 C1697 1.385 . S
C1697 H1683 0.931 . S
C1697 C1696 1.385 . S
C1697 C1698 1.389 . S
C1698 C1697 1.389 . S
C1698 C1699 1.387 . S
C1699 H1684 0.930 1_554 S
C1699 C1694 1.390 . S
C1699 C1698 1.387 . S
H1700 C1712 0.930 . S
H1701 C1714 0.930 . S
H1702 C1715 0.930 . S
H1703 C1719 0.959 . S
H1704 C1719 0.959 . S
H1705 C1719 0.961 . S
H1706 C1720 0.960 . S
H1707 C1720 0.961 . S
H1708 C1720 0.959 . S
H1709 C1723 0.929 . S
H1710 C1724 0.931 . S
H1711 C1726 0.930 . S
C1712 H1700 0.930 . S
C1712 C1713 1.399 . S
C1712 C1717 1.399 . S
C1713 C1712 1.399 . S
C1713 C1714 1.376 . S
C1714 H1701 0.930 . S
C1714 C1713 1.376 . S
C1714 C1715 1.388 . S
C1715 H1702 0.930 . S
C1715 C1714 1.388 . S
C1715 C1716 1.390 . S
C1716 C1715 1.390 . S
C1716 C1717 1.394 . S
C1716 C1722 1.465 . S
C1717 C1712 1.399 . S
C1717 C1716 1.394 . S
C1717 C1718 1.516 . S
C1718 C1717 1.516 . S
C1718 C1719 1.502 . S
C1718 C1720 1.561 . S
C1718 C1721 1.526 . S
C1719 H1703 0.959 . S
C1719 H1704 0.959 . S
C1719 H1705 0.961 . S
C1719 C1718 1.502 . S
C1720 H1706 0.960 . S
C1720 H1707 0.961 . S
C1720 H1708 0.959 . S
C1720 C1718 1.561 . S
C1721 C1718 1.526 . S
C1721 C1722 1.396 . S
C1721 C1726 1.390 . S
C1722 C1716 1.465 . S
C1722 C1721 1.396 . S
C1722 C1723 1.399 . S
C1723 H1709 0.929 . S
C1723 C1722 1.399 . S
C1723 C1724 1.385 . S
C1724 H1710 0.931 . S
C1724 C1723 1.385 . S
C1724 C1725 1.389 . S
C1725 C1724 1.389 . S
C1725 C1726 1.387 . S
C1726 H1711 0.930 . S
C1726 C1721 1.390 . S
C1726 C1725 1.387 . S
H1727 C1739 0.930 . S
H1728 C1741 0.930 . S
H1729 C1742 0.930 . S
H1730 C1746 0.959 . S
H1731 C1746 0.959 . S
H1732 C1746 0.961 . S
H1733 C1747 0.960 . S
H1734 C1747 0.961 . S
H1735 C1747 0.959 . S
H1736 C1750 0.929 . S
H1737 C1751 0.931 . S
H1738 C1753 0.930 . S
C1739 H1727 0.930 . S
C1739 C1740 1.399 . S
C1739 C1744 1.399 . S
C1740 C1739 1.399 . S
C1740 C1741 1.376 . S
C1741 H1728 0.930 . S
C1741 C1740 1.376 . S
C1741 C1742 1.388 . S
C1742 H1729 0.930 . S
C1742 C1741 1.388 . S
C1742 C1743 1.390 . S
C1743 C1742 1.390 . S
C1743 C1744 1.394 . S
C1743 C1749 1.465 . S
C1744 C1739 1.399 . S
C1744 C1743 1.394 . S
C1744 C1745 1.516 . S
C1745 C1744 1.516 . S
C1745 C1746 1.502 . S
C1745 C1747 1.561 . S
C1745 C1748 1.526 . S
C1746 H1730 0.959 . S
C1746 H1731 0.959 . S
C1746 H1732 0.961 . S
C1746 C1745 1.502 . S
C1747 H1733 0.960 . S
C1747 H1734 0.961 . S
C1747 H1735 0.959 . S
C1747 C1745 1.561 . S
C1748 C1745 1.526 . S
C1748 C1749 1.396 . S
C1748 C1753 1.390 . S
C1749 C1743 1.465 . S
C1749 C1748 1.396 . S
C1749 C1750 1.399 . S
C1750 H1736 0.929 . S
C1750 C1749 1.399 . S
C1750 C1751 1.385 . S
C1751 H1737 0.931 . S
C1751 C1750 1.385 . S
C1751 C1752 1.389 . S
C1752 C1751 1.389 . S
C1752 C1753 1.387 . S
C1753 H1738 0.930 . S
C1753 C1748 1.390 . S
C1753 C1752 1.387 . S
H1754 C1766 0.930 . S
H1755 C1768 0.930 . S
H1756 C1769 0.930 . S
H1757 C1773 0.959 . S
H1758 C1773 0.959 . S
H1759 C1773 0.961 . S
H1760 C1774 0.960 . S
H1761 C1774 0.961 . S
H1762 C1774 0.959 . S
H1763 C1777 0.929 . S
H1764 C1778 0.931 . S
H1765 C1780 0.930 . S
C1766 H1754 0.930 . S
C1766 C1767 1.399 . S
C1766 C1771 1.399 . S
C1767 C1766 1.399 . S
C1767 C1768 1.376 . S
C1768 H1755 0.930 . S
C1768 C1767 1.376 . S
C1768 C1769 1.388 . S
C1769 H1756 0.930 . S
C1769 C1768 1.388 . S
C1769 C1770 1.390 . S
C1770 C1769 1.390 . S
C1770 C1771 1.394 . S
C1770 C1776 1.465 . S
C1771 C1766 1.399 . S
C1771 C1770 1.394 . S
C1771 C1772 1.516 . S
C1772 C1771 1.516 . S
C1772 C1773 1.502 . S
C1772 C1774 1.561 . S
C1772 C1775 1.526 . S
C1773 H1757 0.959 . S
C1773 H1758 0.959 . S
C1773 H1759 0.961 . S
C1773 C1772 1.502 . S
C1774 H1760 0.960 . S
C1774 H1761 0.961 . S
C1774 H1762 0.959 . S
C1774 C1772 1.561 . S
C1775 C1772 1.526 . S
C1775 C1776 1.396 . S
C1775 C1780 1.390 . S
C1776 C1770 1.465 . S
C1776 C1775 1.396 . S
C1776 C1777 1.399 . S
C1777 H1763 0.929 . S
C1777 C1776 1.399 . S
C1777 C1778 1.385 . S
C1778 H1764 0.931 . S
C1778 C1777 1.385 . S
C1778 C1779 1.389 . S
C1779 C1778 1.389 . S
C1779 C1780 1.387 . S
C1780 H1765 0.930 . S
C1780 C1775 1.390 . S
C1780 C1779 1.387 . S
H1781 C1793 0.930 . S
H1782 C1795 0.930 . S
H1783 C1796 0.930 . S
H1784 C1800 0.959 . S
H1785 C1800 0.959 . S
H1786 C1800 0.961 . S
H1787 C1801 0.960 . S
H1788 C1801 0.961 . S
H1789 C1801 0.959 . S
H1790 C1804 0.929 . S
H1791 C1805 0.931 . S
H1792 C1807 0.930 . S
C1793 H1781 0.930 . S
C1793 C1794 1.399 . S
C1793 C1798 1.399 . S
C1794 C1793 1.399 . S
C1794 C1795 1.376 . S
C1795 H1782 0.930 . S
C1795 C1794 1.376 . S
C1795 C1796 1.388 . S
C1796 H1783 0.930 . S
C1796 C1795 1.388 . S
C1796 C1797 1.390 . S
C1797 C1796 1.390 . S
C1797 C1798 1.394 . S
C1797 C1803 1.465 . S
C1798 C1793 1.399 . S
C1798 C1797 1.394 . S
C1798 C1799 1.516 . S
C1799 C1798 1.516 . S
C1799 C1800 1.502 . S
C1799 C1801 1.561 . S
C1799 C1802 1.526 . S
C1800 H1784 0.959 . S
C1800 H1785 0.959 . S
C1800 H1786 0.961 . S
C1800 C1799 1.502 . S
C1801 H1787 0.960 . S
C1801 H1788 0.961 . S
C1801 H1789 0.959 . S
C1801 C1799 1.561 . S
C1802 C1799 1.526 . S
C1802 C1803 1.396 . S
C1802 C1807 1.390 . S
C1803 C1797 1.465 . S
C1803 C1802 1.396 . S
C1803 C1804 1.399 . S
C1804 H1790 0.929 . S
C1804 C1803 1.399 . S
C1804 C1805 1.385 . S
C1805 H1791 0.931 . S
C1805 C1804 1.385 . S
C1805 C1806 1.389 . S
C1806 C1805 1.389 . S
C1806 C1807 1.387 . S
C1807 H1792 0.930 . S
C1807 C1802 1.390 . S
C1807 C1806 1.387 . S
C957 C701 1.324 . S
C969 C3 1.363 . S
C984 C92 1.300 . S
C996 C524 1.258 . S
C1011 C121 1.378 . S
C1023 C583 1.323 . S
C1038 C642 1.318 . S
C1050 C210 1.335 . S
C1065 C239 1.378 . S
C1077 C347 1.323 . S
C1092 C328 1.310 . S
C1104 C406 1.296 . S
C1119 C465 1.350 . S
C1131 C357 1.332 . S
C1146 C288 1.317 . S
C1158 C446 1.319 1_554 S
C1173 C229 1.353 . S
C1185 C475 1.360 . S
C1200 C564 1.315 . S
C1212 C52 1.265 . S
C1227 C111 1.323 . S
C1239 C593 1.364 . S
C1254 C682 1.309 . S
C1266 C170 1.293 . S
C1281 C711 1.367 . S
C1293 C819 1.322 . S
C1308 C800 1.304 . S
C1320 C878 1.278 . S
C1335 C937 1.353 . S
C1347 C829 1.329 . S
C1362 C760 1.321 . S
C1374 C918 1.335 . S
C1389 C269 1.449 . S
C1401 C33 1.477 . S
C1416 C62 1.227 . S
C1428 C298 1.251 . S
C1443 C151 1.447 . S
C1455 C387 1.480 . S
C1470 C416 1.228 . S
C1482 C180 1.249 . S
C1497 C505 1.482 . S
C1509 C741 1.450 . S
C1524 C770 1.228 . S
C1536 C534 1.262 . S
C1551 C623 1.483 . S
C1563 C859 1.449 . S
C1578 C888 1.297 . S
C1590 C652 1.285 . S
C1605 C831 1.652 . S
C1617 C5 1.701 . S
C1632 C890 1.221 . S
C1644 C64 1.286 . S
C1659 C123 1.665 . S
C1671 C713 1.719 . S
C1686 C772 1.222 . S
C1698 C182 1.285 . S
C1713 C595 1.665 . S
C1725 C241 1.684 . S
C1740 C654 1.219 . S
C1752 C300 1.288 . S
C1767 C359 1.715 . S
C1779 C477 1.673 . S
C1794 C536 1.285 . S
C1806 C418 1.226 . S
