# Generated by pormake.
# Topology uof, (4)-cn, num edge types: 1
# Building blocks:
#     Node 0, Type 0, BuildingBlock: UXUYUI_clean_sbu_0, # of connection points: 4
#     Node 1, Type 0, BuildingBlock: UXUYUI_clean_sbu_0, # of connection points: 4
#     Node 2, Type 0, BuildingBlock: UXUYUI_clean_sbu_0, # of connection points: 4
#     Node 3, Type 0, BuildingBlock: UXUYUI_clean_sbu_0, # of connection points: 4
#     Node 4, Type 0, BuildingBlock: UXUYUI_clean_sbu_0, # of connection points: 4
#     Node 5, Type 0, BuildingBlock: UXUYUI_clean_sbu_0, # of connection points: 4
#     Node 6, Type 0, BuildingBlock: UXUYUI_clean_sbu_0, # of connection points: 4
#     Node 7, Type 0, BuildingBlock: UXUYUI_clean_sbu_0, # of connection points: 4
#     Node 8, Type 0, BuildingBlock: UXUYUI_clean_sbu_0, # of connection points: 4
#     Node 9, Type 0, BuildingBlock: UXUYUI_clean_sbu_0, # of connection points: 4
#     Node 10, Type 0, BuildingBlock: UXUYUI_clean_sbu_0, # of connection points: 4
#     Node 11, Type 0, BuildingBlock: UXUYUI_clean_sbu_0, # of connection points: 4
#     Edge 12, Type (0, 0), BuildingBlock: TEMPAE_clean_linker_10, # of connection points: 2
#     Edge 13, Type (0, 0), BuildingBlock: TEMPAE_clean_linker_10, # of connection points: 2
#     Edge 14, Type (0, 0), BuildingBlock: TEMPAE_clean_linker_10, # of connection points: 2
#     Edge 15, Type (0, 0), BuildingBlock: TEMPAE_clean_linker_10, # of connection points: 2
#     Edge 16, Type (0, 0), BuildingBlock: TEMPAE_clean_linker_10, # of connection points: 2
#     Edge 17, Type (0, 0), BuildingBlock: TEMPAE_clean_linker_10, # of connection points: 2
#     Edge 18, Type (0, 0), BuildingBlock: TEMPAE_clean_linker_10, # of connection points: 2
#     Edge 19, Type (0, 0), BuildingBlock: TEMPAE_clean_linker_10, # of connection points: 2
#     Edge 20, Type (0, 0), BuildingBlock: TEMPAE_clean_linker_10, # of connection points: 2
#     Edge 21, Type (0, 0), BuildingBlock: TEMPAE_clean_linker_10, # of connection points: 2
#     Edge 22, Type (0, 0), BuildingBlock: TEMPAE_clean_linker_10, # of connection points: 2
#     Edge 23, Type (0, 0), BuildingBlock: TEMPAE_clean_linker_10, # of connection points: 2
#     Edge 24, Type (0, 0), BuildingBlock: TEMPAE_clean_linker_10, # of connection points: 2
#     Edge 25, Type (0, 0), BuildingBlock: TEMPAE_clean_linker_10, # of connection points: 2
#     Edge 26, Type (0, 0), BuildingBlock: TEMPAE_clean_linker_10, # of connection points: 2
#     Edge 27, Type (0, 0), BuildingBlock: TEMPAE_clean_linker_10, # of connection points: 2
#     Edge 28, Type (0, 0), BuildingBlock: TEMPAE_clean_linker_10, # of connection points: 2
#     Edge 29, Type (0, 0), BuildingBlock: TEMPAE_clean_linker_10, # of connection points: 2
#     Edge 30, Type (0, 0), BuildingBlock: TEMPAE_clean_linker_10, # of connection points: 2
#     Edge 31, Type (0, 0), BuildingBlock: TEMPAE_clean_linker_10, # of connection points: 2
#     Edge 32, Type (0, 0), BuildingBlock: TEMPAE_clean_linker_10, # of connection points: 2
#     Edge 33, Type (0, 0), BuildingBlock: TEMPAE_clean_linker_10, # of connection points: 2
#     Edge 34, Type (0, 0), BuildingBlock: TEMPAE_clean_linker_10, # of connection points: 2
#     Edge 35, Type (0, 0), BuildingBlock: TEMPAE_clean_linker_10, # of connection points: 2
# Relax obj value: 0.353
# Max RMSD: 0.222
# Mean RMSD: 0.221
data_MOF--net-uof--node1-UXUYUI_clean_sbu_0--edge1-TEMPAE_clean_linker_10
_symmetry_space_group_name_H-M    P1
_symmetry_Int_Tables_number       1
_symmetry_cell_setting            triclinic
loop_
_symmetry_equiv_pos_as_xyz
'x, y, z'
_cell_length_a     46.888008
_cell_length_b     46.883105
_cell_length_c     90.69744
_cell_angle_alpha  89.991879
_cell_angle_beta   90.005693
_cell_angle_gamma 120.00121
loop_
_atom_site_label
_atom_site_type_symbol
_atom_site_fract_x
_atom_site_fract_y
_atom_site_fract_z
_atom_type_partial_charge
Li0 Li 0.21212 0.33539 0.21461 0.0
Li1 Li 0.23977 0.33265 0.23794 0.0
Li2 Li 0.27241 0.36732 0.21673 0.0
Li3 Li 0.24366 0.30761 0.21518 0.0
C4 C 0.23868 0.39991 0.22467 0.0
N5 N 0.23687 0.45535 0.21578 0.0
C6 C 0.23454 0.41954 0.23507 0.0
C7 C 0.24192 0.40847 0.20975 0.0
C8 C 0.23368 0.44747 0.23035 0.0
C9 C 0.24094 0.43659 0.20548 0.0
C10 C 0.18581 0.26303 0.22607 0.0
C11 C 0.1794 0.21012 0.23232 0.0
N12 N 0.15187 0.19516 0.2238 0.0
C13 C 0.1573 0.24712 0.21748 0.0
C14 C 0.19681 0.24439 0.23367 0.0
C15 C 0.14053 0.21279 0.21645 0.0
C16 C 0.16604 0.31566 0.19243 0.0
N17 N 0.17367 0.3317 0.20556 0.0
C18 C 0.12415 0.33464 0.20486 0.0
C19 C 0.15366 0.34157 0.21182 0.0
C20 C 0.11524 0.31734 0.19139 0.0
C21 C 0.13693 0.30817 0.18515 0.0
H22 H 0.18207 0.30751 0.18786 0.0
H23 H 0.16021 0.35411 0.22234 0.0
C24 C 0.2678 0.35164 0.26589 0.0
N25 N 0.24044 0.32864 0.25874 0.0
C26 C 0.27431 0.34587 0.28027 0.0
C27 C 0.22342 0.29367 0.27993 0.0
C28 C 0.21782 0.30052 0.26556 0.0
C29 C 0.25257 0.316 0.28729 0.0
H30 H 0.28563 0.37349 0.26006 0.0
H31 H 0.19653 0.28244 0.25953 0.0
C32 C 0.26357 0.34101 0.18804 0.0
N33 N 0.30083 0.34573 0.16358 0.0
C34 C 0.29149 0.33779 0.18952 0.0
C35 C 0.25452 0.34652 0.17411 0.0
C36 C 0.31002 0.34028 0.17704 0.0
C37 C 0.2737 0.34886 0.16188 0.0
C38 C 0.30238 0.32991 0.23408 0.0
C39 C 0.33408 0.34554 0.22805 0.0
C40 C 0.29494 0.30788 0.2458 0.0
C41 C 0.35778 0.33896 0.23386 0.0
C42 C 0.31935 0.302 0.25131 0.0
N43 N 0.35 0.31753 0.24528 0.0
C44 C 0.33389 0.41807 0.22461 0.0
C45 C 0.32487 0.41691 0.19886 0.0
C46 C 0.36744 0.44019 0.22273 0.0
N47 N 0.3137 0.40586 0.21271 0.0
C48 C 0.35835 0.43887 0.19645 0.0
C49 C 0.38029 0.4498 0.20844 0.0
H50 H 0.32437 0.40864 0.23549 0.0
H51 H 0.30829 0.40733 0.18957 0.0
C52 C 0.22135 0.25408 0.19625 0.0
N53 N 0.24459 0.27088 0.20669 0.0
C54 C 0.21927 0.22633 0.18957 0.0
C55 C 0.26616 0.2346 0.20399 0.0
C56 C 0.26696 0.26185 0.21056 0.0
C57 C 0.24188 0.21621 0.19343 0.0
H58 H 0.20414 0.2621 0.19324 0.0
H59 H 0.28559 0.27573 0.21865 0.0
O60 O 0.23936 0.37241 0.22917 0.0
O61 O 0.20296 0.29668 0.22696 0.0
O62 O 0.24499 0.33869 0.20009 0.0
O63 O 0.27895 0.33643 0.22865 0.0
H64 H 0.23197 0.41321 0.24666 0.0
H65 H 0.24512 0.39364 0.20153 0.0
H66 H 0.23047 0.46289 0.23827 0.0
H67 H 0.24339 0.4435 0.19397 0.0
H68 H 0.18783 0.19542 0.23802 0.0
H69 H 0.14826 0.26111 0.21163 0.0
H70 H 0.21884 0.25627 0.24033 0.0
H71 H 0.11853 0.20017 0.20977 0.0
H72 H 0.10835 0.34241 0.21004 0.0
H73 H 0.13092 0.29415 0.17501 0.0
H74 H 0.2968 0.36403 0.2856 0.0
H75 H 0.20611 0.27022 0.28484 0.0
H76 H 0.2988 0.33346 0.20019 0.0
H77 H 0.23299 0.34913 0.17277 0.0
H78 H 0.33173 0.33789 0.17804 0.0
H79 H 0.26703 0.3532 0.15103 0.0
H80 H 0.34038 0.36249 0.21892 0.0
H81 H 0.27059 0.29526 0.25056 0.0
H82 H 0.38238 0.3509 0.22928 0.0
H83 H 0.31389 0.28505 0.26038 0.0
H84 H 0.38344 0.44779 0.23228 0.0
H85 H 0.3672 0.44616 0.18528 0.0
H86 H 0.19987 0.21277 0.18163 0.0
H87 H 0.2846 0.22825 0.20706 0.0
Li88 Li 0.86866 0.20761 0.54582 0.0
Li89 Li 0.90683 0.23497 0.56643 0.0
Li90 Li 0.90262 0.2669 0.54565 0.0
Li91 Li 0.9283 0.23237 0.5422 0.0
C92 C 0.83622 0.22261 0.5644 0.0
N93 N 0.77043 0.18543 0.57176 0.0
C94 C 0.82672 0.20266 0.57695 0.0
C95 C 0.81236 0.22386 0.55564 0.0
C96 C 0.7933 0.184 0.58047 0.0
C97 C 0.77919 0.2048 0.55953 0.0
C98 C 0.90852 0.17231 0.55378 0.0
C99 C 0.94657 0.15282 0.55839 0.0
N100 N 0.92831 0.12636 0.54957 0.0
C101 C 0.89014 0.1449 0.54476 0.0
C102 C 0.93694 0.17626 0.56068 0.0
C103 C 0.90053 0.12195 0.54278 0.0
C104 C 0.81812 0.16715 0.5258 0.0
N105 N 0.8282 0.16958 0.54003 0.0
C106 C 0.78957 0.11256 0.54412 0.0
C107 C 0.81375 0.14335 0.54933 0.0
C108 C 0.78017 0.10882 0.52921 0.0
C109 C 0.79386 0.13691 0.52016 0.0
H110 H 0.83042 0.18813 0.51854 0.0
H111 H 0.82274 0.14575 0.56051 0.0
C112 C 0.92291 0.26623 0.59381 0.0
N113 N 0.91654 0.23789 0.58693 0.0
C114 C 0.9376 0.27381 0.60771 0.0
C115 C 0.93563 0.22126 0.60787 0.0
C116 C 0.92155 0.21498 0.5938 0.0
C117 C 0.94487 0.25152 0.6147 0.0
H118 H 0.91836 0.28384 0.58812 0.0
H119 H 0.91594 0.19251 0.58814 0.0
C120 C 0.89588 0.25138 0.51681 0.0
N121 N 0.89659 0.28502 0.49169 0.0
C122 C 0.92119 0.26095 0.50649 0.0
C123 C 0.87079 0.25865 0.51431 0.0
C124 C 0.92114 0.278 0.49387 0.0
C125 C 0.87164 0.27577 0.50156 0.0
C126 C 0.96726 0.29012 0.56428 0.0
C127 C 0.97256 0.32122 0.56825 0.0
C128 C 0.98695 0.27859 0.57044 0.0
C129 C 0.99715 0.34005 0.57849 0.0
C130 C 0.01121 0.29811 0.58067 0.0
N131 N 0.01575 0.32817 0.58446 0.0
C132 C 0.8985 0.32414 0.55084 0.0
C133 C 0.93383 0.32822 0.53123 0.0
C134 C 0.9114 0.35827 0.55065 0.0
N135 N 0.91042 0.31002 0.54142 0.0
C136 C 0.94671 0.3622 0.5304 0.0
C137 C 0.93627 0.37765 0.54052 0.0
H138 H 0.88084 0.30928 0.55921 0.0
H139 H 0.94427 0.31682 0.52445 0.0
C140 C 0.95747 0.20372 0.52434 0.0
N141 N 0.96292 0.23057 0.53229 0.0
C142 C 0.98384 0.20225 0.51803 0.0
C143 C 0.02049 0.25715 0.52718 0.0
C144 C 0.99351 0.25735 0.53346 0.0
C145 C 0.01596 0.22905 0.51961 0.0
H146 H 0.93273 0.18331 0.52305 0.0
H147 H 0.99702 0.27894 0.53929 0.0
O148 O 0.86871 0.24046 0.56059 0.0
O149 O 0.89875 0.1951 0.55586 0.0
O150 O 0.8956 0.2348 0.52925 0.0
O151 O 0.94271 0.27091 0.55456 0.0
H152 H 0.84494 0.20137 0.5838 0.0
H153 H 0.81939 0.23922 0.54589 0.0
H154 H 0.78554 0.16831 0.59012 0.0
H155 H 0.76042 0.20538 0.55282 0.0
H156 H 0.96859 0.15567 0.56362 0.0
H157 H 0.86841 0.14159 0.53911 0.0
H158 H 0.95155 0.19728 0.56766 0.0
H159 H 0.8866 0.10072 0.53578 0.0
H160 H 0.77951 0.09158 0.55149 0.0
H161 H 0.78767 0.13509 0.50856 0.0
H162 H 0.94406 0.2972 0.61277 0.0
H163 H 0.94078 0.20347 0.61301 0.0
H164 H 0.94074 0.25541 0.50825 0.0
H165 H 0.85102 0.25136 0.5222 0.0
H166 H 0.94063 0.28568 0.48581 0.0
H167 H 0.85248 0.28173 0.49951 0.0
H168 H 0.95769 0.33065 0.56362 0.0
H169 H 0.98337 0.25473 0.56743 0.0
H170 H 0.00136 0.36406 0.58172 0.0
H171 H 0.02641 0.28935 0.58561 0.0
H172 H 0.90315 0.36957 0.55874 0.0
H173 H 0.96637 0.37656 0.52267 0.0
H174 H 0.97915 0.18012 0.51224 0.0
H175 H 0.04464 0.2788 0.52826 0.0
Li176 Li 0.66717 0.90408 0.90298 0.0
Li177 Li 0.66262 0.87346 0.8796 0.0
Li178 Li 0.69191 0.93237 0.88002 0.0
Li179 Li 0.6323 0.90313 0.88212 0.0
C180 C 0.73553 0.91812 0.88977 0.0
N181 N 0.80282 0.95176 0.88527 0.0
C182 C 0.74942 0.9074 0.87902 0.0
C183 C 0.75588 0.94578 0.89831 0.0
C184 C 0.7835 0.92477 0.87691 0.0
C185 C 0.78983 0.96251 0.89583 0.0
C186 C 0.59841 0.83695 0.89013 0.0
C187 C 0.5603 0.80323 0.87119 0.0
N188 N 0.54163 0.78061 0.88158 0.0
C189 C 0.57885 0.81339 0.90061 0.0
C190 C 0.5891 0.83187 0.87528 0.0
C191 C 0.55023 0.78506 0.89607 0.0
C192 C 0.64952 0.91495 0.93069 0.0
N193 N 0.67142 0.90861 0.92375 0.0
C194 C 0.70611 0.92521 0.94502 0.0
C195 C 0.69876 0.91236 0.93072 0.0
C196 C 0.68519 0.93438 0.95206 0.0
C197 C 0.65595 0.92792 0.94493 0.0
H198 H 0.62831 0.91226 0.92474 0.0
H199 H 0.71597 0.90754 0.92484 0.0
C200 C 0.67322 0.84107 0.85643 0.0
N201 N 0.665 0.83762 0.87094 0.0
C202 C 0.68147 0.81949 0.84963 0.0
C203 C 0.67148 0.79022 0.87271 0.0
C204 C 0.66341 0.8125 0.87909 0.0
C205 C 0.68157 0.79417 0.85788 0.0
H206 H 0.67503 0.86166 0.8503 0.0
H207 H 0.6574 0.81072 0.8907 0.0
C208 C 0.67181 0.97021 0.89945 0.0
N209 N 0.68475 0.02978 0.91141 0.0
C210 C 0.65655 0.98692 0.89371 0.0
C211 C 0.69376 0.98395 0.91125 0.0
C212 C 0.66342 0.01698 0.8999 0.0
C213 C 0.69993 0.01403 0.91715 0.0
C214 C 0.65652 0.9207 0.85354 0.0
C215 C 0.66248 0.95275 0.85569 0.0
C216 C 0.64731 0.90633 0.83957 0.0
C217 C 0.65908 0.96988 0.84385 0.0
C218 C 0.64417 0.92426 0.828 0.0
N219 N 0.65007 0.95539 0.83037 0.0
C220 C 0.74108 0.96397 0.85885 0.0
C221 C 0.74373 0.99986 0.87787 0.0
C222 C 0.76862 0.98953 0.85199 0.0
N223 N 0.72927 0.96953 0.87156 0.0
C224 C 0.77121 0.02616 0.87137 0.0
C225 C 0.78404 0.02114 0.85826 0.0
H226 H 0.7292 0.9395 0.85413 0.0
H227 H 0.73421 0.00376 0.88799 0.0
C228 C 0.58332 0.91521 0.89132 0.0
N229 N 0.59434 0.90744 0.87895 0.0
C230 C 0.56209 0.92791 0.89025 0.0
C231 C 0.5618 0.92189 0.86378 0.0
C232 C 0.58284 0.90899 0.86538 0.0
C233 C 0.5522 0.9327 0.87629 0.0
H234 H 0.59309 0.91397 0.90195 0.0
H235 H 0.59137 0.90209 0.8557 0.0
O236 O 0.70213 0.90204 0.89169 0.0
O237 O 0.62655 0.86471 0.89445 0.0
O238 O 0.66463 0.94022 0.89379 0.0
O239 O 0.65953 0.90329 0.86496 0.0
H240 H 0.73405 0.88609 0.8723 0.0
H241 H 0.74551 0.95459 0.90657 0.0
H242 H 0.79457 0.91687 0.86858 0.0
H243 H 0.80584 0.98412 0.90226 0.0
H244 H 0.5528 0.79898 0.85975 0.0
H245 H 0.58575 0.81698 0.91214 0.0
H246 H 0.60385 0.84975 0.86699 0.0
H247 H 0.53486 0.76662 0.90407 0.0
H248 H 0.72899 0.92996 0.95009 0.0
H249 H 0.63897 0.93425 0.95005 0.0
H250 H 0.68874 0.82325 0.83814 0.0
H251 H 0.67152 0.77124 0.8795 0.0
H252 H 0.63956 0.97687 0.88456 0.0
H253 H 0.70628 0.97181 0.91571 0.0
H254 H 0.65174 0.03011 0.89556 0.0
H255 H 0.71685 0.02488 0.92628 0.0
H256 H 0.66966 0.96433 0.86636 0.0
H257 H 0.64235 0.88146 0.8377 0.0
H258 H 0.6636 0.99468 0.8454 0.0
H259 H 0.63698 0.91339 0.81715 0.0
H260 H 0.77798 0.98448 0.842 0.0
H261 H 0.7821 0.05022 0.87648 0.0
H262 H 0.55546 0.93609 0.90017 0.0
H263 H 0.55423 0.92465 0.85284 0.0
Li264 Li 0.79493 0.668 0.21425 0.0
Li265 Li 0.76632 0.67157 0.23676 0.0
Li266 Li 0.73634 0.63696 0.21551 0.0
Li267 Li 0.76582 0.69781 0.21266 0.0
C268 C 0.75192 0.59942 0.23071 0.0
N269 N 0.71695 0.53182 0.23408 0.0
C270 C 0.73797 0.58559 0.24434 0.0
C271 C 0.74847 0.57891 0.21885 0.0
C272 C 0.72029 0.55135 0.24581 0.0
C273 C 0.73058 0.54479 0.22076 0.0
C274 C 0.81503 0.73702 0.23347 0.0
C275 C 0.80442 0.77557 0.24654 0.0
N276 N 0.83714 0.79442 0.24949 0.0
C277 C 0.84855 0.75678 0.23662 0.0
C278 C 0.79278 0.74648 0.23847 0.0
C279 C 0.85924 0.78571 0.24473 0.0
C280 C 0.85872 0.70427 0.20423 0.0
N281 N 0.8351 0.67246 0.20662 0.0
C282 C 0.86927 0.65348 0.19586 0.0
C283 C 0.83978 0.64709 0.20267 0.0
C284 C 0.89404 0.68624 0.19318 0.0
C285 C 0.88837 0.71173 0.19753 0.0
H286 H 0.85405 0.72394 0.20709 0.0
H287 H 0.82045 0.62197 0.20451 0.0
C288 C 0.73177 0.65604 0.26303 0.0
N289 N 0.76261 0.6751 0.25755 0.0
C290 C 0.7242 0.6612 0.2773 0.0
C291 C 0.78077 0.70433 0.28035 0.0
C292 C 0.78736 0.69798 0.26606 0.0
C293 C 0.74853 0.68653 0.28598 0.0
H294 H 0.71259 0.63794 0.25603 0.0
H295 H 0.81183 0.71253 0.26156 0.0
C296 C 0.77962 0.66546 0.18634 0.0
N297 N 0.81596 0.66882 0.16176 0.0
C298 C 0.80164 0.69599 0.18013 0.0
C299 C 0.77577 0.63662 0.17995 0.0
C300 C 0.81987 0.69717 0.16773 0.0
C301 C 0.79444 0.63885 0.16755 0.0
C302 C 0.70183 0.67266 0.22691 0.0
C303 C 0.67831 0.66007 0.21566 0.0
C304 C 0.69665 0.68776 0.23911 0.0
C305 C 0.65002 0.66273 0.2168 0.0
C306 C 0.66806 0.68999 0.23983 0.0
N307 N 0.64552 0.67751 0.22876 0.0
C308 C 0.67439 0.5859 0.22332 0.0
C309 C 0.68287 0.59152 0.19746 0.0
C310 C 0.64074 0.56462 0.22134 0.0
N311 N 0.69452 0.59937 0.21148 0.0
C312 C 0.64918 0.57057 0.19496 0.0
C313 C 0.62755 0.55763 0.20703 0.0
H314 H 0.68407 0.59365 0.23432 0.0
H315 H 0.69925 0.60344 0.18825 0.0
C316 C 0.79088 0.76449 0.20381 0.0
N317 N 0.76458 0.73343 0.20319 0.0
C318 C 0.78974 0.79041 0.19686 0.0
C319 C 0.73539 0.75163 0.18783 0.0
C320 C 0.73746 0.72653 0.19511 0.0
C321 C 0.76166 0.78419 0.18877 0.0
H322 H 0.81297 0.76931 0.20957 0.0
H323 H 0.71767 0.70142 0.19408 0.0
O324 O 0.76892 0.63287 0.22899 0.0
O325 O 0.80422 0.70842 0.22568 0.0
O326 O 0.76235 0.66388 0.19875 0.0
O327 O 0.72935 0.66951 0.2262 0.0
H328 H 0.74068 0.60113 0.25366 0.0
H329 H 0.75921 0.58925 0.20825 0.0
H330 H 0.7092 0.54029 0.25628 0.0
H331 H 0.72749 0.52861 0.21164 0.0
H332 H 0.78745 0.78318 0.25046 0.0
H333 H 0.86611 0.74974 0.2329 0.0
H334 H 0.76686 0.73169 0.23604 0.0
H335 H 0.8851 0.80121 0.24726 0.0
H336 H 0.87263 0.63308 0.1927 0.0
H337 H 0.9063 0.73729 0.19537 0.0
H338 H 0.69923 0.6462 0.28128 0.0
H339 H 0.80037 0.72413 0.28658 0.0
H340 H 0.805 0.71855 0.18498 0.0
H341 H 0.75871 0.6128 0.18457 0.0
H342 H 0.83723 0.72064 0.16289 0.0
H343 H 0.79189 0.61674 0.16254 0.0
H344 H 0.68192 0.6486 0.20607 0.0
H345 H 0.71446 0.6977 0.24796 0.0
H346 H 0.63166 0.65306 0.20816 0.0
H347 H 0.66378 0.70161 0.24921 0.0
H348 H 0.62491 0.55569 0.23093 0.0
H349 H 0.63995 0.56573 0.18376 0.0
H350 H 0.81062 0.81507 0.19791 0.0
H351 H 0.71368 0.74549 0.18134 0.0
Li352 Li 0.12428 0.79212 0.54874 0.0
Li353 Li 0.09185 0.76733 0.57031 0.0
Li354 Li 0.10156 0.73382 0.55067 0.0
Li355 Li 0.06727 0.76096 0.54512 0.0
C356 C 0.16514 0.78909 0.56792 0.0
N357 N 0.23022 0.83334 0.57429 0.0
C358 C 0.17354 0.81853 0.5752 0.0
C359 C 0.1897 0.78192 0.56401 0.0
C360 C 0.20663 0.84066 0.57827 0.0
C361 C 0.2225 0.80467 0.56731 0.0
C362 C 0.06902 0.80946 0.56343 0.0
C363 C 0.01524 0.79366 0.5732 0.0
N364 N 0.02497 0.82594 0.57545 0.0
C365 C 0.07845 0.84248 0.56582 0.0
C366 C 0.03713 0.78485 0.56714 0.0
C367 C 0.05585 0.85031 0.57192 0.0
C368 C 0.15185 0.85611 0.53836 0.0
N369 N 0.16041 0.83282 0.54099 0.0
C370 C 0.21351 0.86742 0.53016 0.0
C371 C 0.19064 0.83791 0.53703 0.0
C372 C 0.20514 0.89185 0.52733 0.0
C373 C 0.17382 0.8858 0.5316 0.0
H374 H 0.12739 0.85121 0.54105 0.0
H375 H 0.19672 0.81879 0.53875 0.0
C376 C 0.07579 0.73712 0.59779 0.0
N377 N 0.08252 0.76558 0.59091 0.0
C378 C 0.06323 0.73065 0.61212 0.0
C379 C 0.06646 0.78373 0.61236 0.0
C380 C 0.07929 0.78932 0.59806 0.0
C381 C 0.05751 0.75372 0.61941 0.0
H382 H 0.0786 0.71868 0.59184 0.0
H383 H 0.08555 0.81212 0.59255 0.0
C384 C 0.12098 0.77321 0.52135 0.0
N385 N 0.1633 0.80561 0.49824 0.0
C386 C 0.11606 0.79475 0.51248 0.0
C387 C 0.14721 0.76789 0.51841 0.0
C388 C 0.13783 0.81101 0.50088 0.0
C389 C 0.16835 0.78453 0.50666 0.0
C390 C 0.03114 0.69773 0.56175 0.0
C391 C 0.02219 0.67218 0.55159 0.0
C392 C 0.01086 0.69283 0.57391 0.0
C393 C 0.99332 0.64214 0.55383 0.0
C394 C 0.98217 0.66243 0.57577 0.0
N395 N 0.97409 0.6379 0.56578 0.0
C396 C 0.09151 0.67469 0.56154 0.0
C397 C 0.09764 0.67845 0.53552 0.0
C398 C 0.07829 0.64064 0.561 0.0
N399 N 0.09958 0.69254 0.54887 0.0
C400 C 0.08505 0.64442 0.53451 0.0
C401 C 0.07387 0.62506 0.54732 0.0
H402 H 0.09247 0.68647 0.57193 0.0
H403 H 0.1031 0.69302 0.52559 0.0
C404 C 0.0329 0.78616 0.53004 0.0
N405 N 0.03067 0.75746 0.53455 0.0
C406 C 0.00624 0.78601 0.52316 0.0
C407 C 0.97593 0.72663 0.52513 0.0
C408 C 0.00317 0.72796 0.53199 0.0
C409 C 0.97711 0.75596 0.52081 0.0
H410 H 0.05522 0.80927 0.5321 0.0
H411 H 0.00212 0.70547 0.53536 0.0
O412 O 0.13294 0.76723 0.56478 0.0
O413 O 0.09107 0.80162 0.55745 0.0
O414 O 0.10041 0.75764 0.53296 0.0
O415 O 0.05991 0.72706 0.55998 0.0
H416 H 0.15469 0.82429 0.57832 0.0
H417 H 0.18347 0.75914 0.55841 0.0
H418 H 0.21357 0.86366 0.5838 0.0
H419 H 0.24184 0.79958 0.56429 0.0
H420 H 0.9905 0.77483 0.5761 0.0
H421 H 0.10306 0.86189 0.56308 0.0
H422 H 0.02921 0.75924 0.56531 0.0
H423 H 0.06286 0.87576 0.57385 0.0
H424 H 0.23734 0.87097 0.52701 0.0
H425 H 0.16586 0.90341 0.5293 0.0
H426 H 0.05653 0.70716 0.61714 0.0
H427 H 0.06295 0.80238 0.61773 0.0
H428 H 0.0959 0.79915 0.51465 0.0
H429 H 0.15148 0.75148 0.52526 0.0
H430 H 0.13452 0.82798 0.494 0.0
H431 H 0.1889 0.78084 0.5043 0.0
H432 H 0.03705 0.67568 0.54192 0.0
H433 H 0.01707 0.71229 0.58184 0.0
H434 H 0.98615 0.62223 0.54604 0.0
H435 H 0.96632 0.65833 0.58515 0.0
H436 H 0.06982 0.6264 0.57108 0.0
H437 H 0.08161 0.63307 0.52376 0.0
H438 H 0.00812 0.80921 0.52009 0.0
H439 H 0.95414 0.70291 0.52326 0.0
Li440 Li 0.32844 0.09702 0.90457 0.0
Li441 Li 0.33401 0.13096 0.88239 0.0
Li442 Li 0.3093 0.07197 0.88038 0.0
Li443 Li 0.36796 0.10333 0.88466 0.0
C444 C 0.26207 0.07861 0.89723 0.0
N445 N 0.1982 0.04156 0.90738 0.0
C446 C 0.24147 0.09217 0.89767 0.0
C447 C 0.25014 0.04617 0.90188 0.0
C448 C 0.20927 0.07305 0.90287 0.0
C449 C 0.2178 0.02785 0.90699 0.0
C450 C 0.39642 0.16855 0.89522 0.0
C451 C 0.43959 0.20571 0.87881 0.0
N452 N 0.45215 0.22856 0.88976 0.0
C453 C 0.40979 0.19236 0.90631 0.0
C454 C 0.41143 0.17522 0.88135 0.0
C455 C 0.43796 0.22256 0.90334 0.0
C456 C 0.34239 0.08196 0.93233 0.0
N457 N 0.32113 0.08903 0.92523 0.0
C458 C 0.28568 0.0724 0.94626 0.0
C459 C 0.29382 0.08573 0.93207 0.0
C460 C 0.30624 0.06313 0.95352 0.0
C461 C 0.33548 0.06907 0.94661 0.0
H462 H 0.36377 0.08456 0.92657 0.0
H463 H 0.27754 0.09201 0.92634 0.0
C464 C 0.29771 0.15338 0.86843 0.0
N465 N 0.32786 0.16563 0.87475 0.0
C466 C 0.28833 0.17429 0.86188 0.0
C467 C 0.34112 0.22062 0.86854 0.0
C468 C 0.34957 0.19862 0.875 0.0
C469 C 0.31005 0.20846 0.86186 0.0
H470 H 0.281 0.12707 0.8683 0.0
H471 H 0.37335 0.20796 0.88017 0.0
C472 C 0.33207 0.03359 0.8975 0.0
N473 N 0.32708 0.97335 0.90335 0.0
C474 C 0.34907 0.0223 0.88882 0.0
C475 C 0.31265 0.0142 0.90922 0.0
C476 C 0.34621 0.9918 0.89194 0.0
C477 C 0.31039 0.98382 0.91197 0.0
C478 C 0.33308 0.09097 0.85391 0.0
C479 C 0.33731 0.06439 0.85016 0.0
C480 C 0.31711 0.1013 0.84408 0.0
C481 C 0.32503 0.04827 0.83673 0.0
C482 C 0.30519 0.08456 0.83075 0.0
N483 N 0.30933 0.05858 0.82739 0.0
C484 C 0.25034 0.03984 0.8647 0.0
C485 C 0.27418 0.00622 0.86864 0.0
C486 C 0.22379 0.01433 0.85731 0.0
N487 N 0.27461 0.03525 0.87035 0.0
C488 C 0.2483 0.98017 0.86116 0.0
C489 C 0.2226 0.98405 0.85551 0.0
H490 H 0.25162 0.06338 0.86598 0.0
H491 H 0.29394 0.00326 0.87292 0.0
C492 C 0.41995 0.09506 0.89372 0.0
N493 N 0.40729 0.10188 0.88163 0.0
C494 C 0.44146 0.0828 0.89209 0.0
C495 C 0.43831 0.08715 0.86564 0.0
C496 C 0.41706 0.0996 0.86778 0.0
C497 C 0.44968 0.0773 0.87789 0.0
H498 H 0.41107 0.09637 0.90456 0.0
H499 H 0.40642 0.10501 0.85837 0.0
O500 O 0.29358 0.09693 0.89203 0.0
O501 O 0.36887 0.13889 0.89803 0.0
O502 O 0.33523 0.06383 0.89486 0.0
O503 O 0.34414 0.10649 0.8672 0.0
H504 H 0.2503 0.11723 0.89408 0.0
H505 H 0.26561 0.03521 0.90144 0.0
H506 H 0.19306 0.08324 0.9033 0.0
H507 H 0.20827 0.00271 0.91062 0.0
H508 H 0.45143 0.21123 0.86813 0.0
H509 H 0.39847 0.18754 0.91711 0.0
H510 H 0.40148 0.15721 0.87259 0.0
H511 H 0.44855 0.24124 0.91182 0.0
H512 H 0.26311 0.06852 0.95134 0.0
H513 H 0.35184 0.06205 0.95184 0.0
H514 H 0.26444 0.16361 0.85661 0.0
H515 H 0.35857 0.24679 0.86887 0.0
H516 H 0.36406 0.03668 0.87965 0.0
H517 H 0.29952 0.02249 0.91618 0.0
H518 H 0.35919 0.9828 0.88527 0.0
H519 H 0.29544 0.96861 0.921 0.0
H520 H 0.34932 0.05584 0.85768 0.0
H521 H 0.31392 0.12201 0.8467 0.0
H522 H 0.32783 0.02745 0.83378 0.0
H523 H 0.29265 0.09222 0.82308 0.0
H524 H 0.20456 0.0183 0.85293 0.0
H525 H 0.24812 0.95708 0.86 0.0
H526 H 0.4494 0.07523 0.90181 0.0
H527 H 0.4444 0.08362 0.85452 0.0
Li528 Li 0.69311 0.76437 0.45624 0.0
Li529 Li 0.63112 0.7359 0.4519 0.0
Li530 Li 0.6722 0.76951 0.43152 0.0
Li531 Li 0.66583 0.79446 0.45329 0.0
C532 C 0.66626 0.70133 0.43922 0.0
N533 N 0.66583 0.64315 0.43348 0.0
C534 C 0.65021 0.67449 0.4488 0.0
C535 C 0.68229 0.69854 0.42676 0.0
C536 C 0.65019 0.64531 0.4457 0.0
C537 C 0.68178 0.66895 0.42405 0.0
C538 C 0.65382 0.77668 0.48094 0.0
C539 C 0.61937 0.78811 0.49672 0.0
N540 N 0.64647 0.80991 0.50444 0.0
C541 C 0.68131 0.79895 0.4891 0.0
C542 C 0.62256 0.77104 0.4848 0.0
C543 C 0.67709 0.81562 0.50091 0.0
C544 C 0.75462 0.78983 0.46985 0.0
N545 N 0.72706 0.76122 0.46615 0.0
C546 C 0.75022 0.72972 0.47559 0.0
C547 C 0.72415 0.73149 0.46915 0.0
C548 C 0.77944 0.75887 0.47906 0.0
C549 C 0.78132 0.78924 0.47628 0.0
H550 H 0.75607 0.81315 0.46754 0.0
H551 H 0.70174 0.70915 0.4665 0.0
C552 C 0.57966 0.676 0.44229 0.0
N553 N 0.59258 0.69439 0.45465 0.0
C554 C 0.55836 0.64206 0.44336 0.0
C555 C 0.56224 0.64707 0.46991 0.0
C556 C 0.58364 0.68094 0.46832 0.0
C557 C 0.55034 0.62694 0.45731 0.0
H558 H 0.58806 0.68726 0.43157 0.0
H559 H 0.59506 0.69599 0.47795 0.0
C560 C 0.73765 0.81337 0.43729 0.0
N561 N 0.79759 0.83166 0.42414 0.0
C562 C 0.75988 0.84655 0.43435 0.0
C563 C 0.74601 0.78954 0.43355 0.0
C564 C 0.79003 0.85529 0.42769 0.0
C565 C 0.77639 0.79925 0.42692 0.0
C566 C 0.61999 0.78983 0.43479 0.0
C567 C 0.64022 0.81904 0.42718 0.0
C568 C 0.5884 0.78238 0.43909 0.0
C569 C 0.6286 0.84067 0.42418 0.0
C570 C 0.57766 0.80463 0.43585 0.0
N571 N 0.59784 0.83309 0.42855 0.0
C572 C 0.65524 0.73855 0.40434 0.0
C573 C 0.70467 0.78999 0.40323 0.0
C574 C 0.66024 0.73088 0.39006 0.0
N575 N 0.67794 0.76712 0.41081 0.0
C576 C 0.71087 0.78319 0.38897 0.0
C577 C 0.68902 0.7528 0.38236 0.0
H578 H 0.63409 0.72089 0.4106 0.0
H579 H 0.72203 0.8129 0.40842 0.0
C580 C 0.70184 0.85882 0.46313 0.0
N581 N 0.67 0.83494 0.46102 0.0
C582 C 0.70942 0.88863 0.46971 0.0
C583 C 0.65126 0.86918 0.47201 0.0
C584 C 0.64474 0.83952 0.46534 0.0
C585 C 0.68405 0.89425 0.47429 0.0
H586 H 0.72153 0.85432 0.46017 0.0
H587 H 0.61959 0.81992 0.46403 0.0
O588 O 0.66559 0.72981 0.44182 0.0
O589 O 0.65754 0.76075 0.46913 0.0
O590 O 0.70803 0.80462 0.44381 0.0
O591 O 0.63099 0.76848 0.43788 0.0
H592 H 0.63831 0.6763 0.45866 0.0
H593 H 0.69509 0.71897 0.41924 0.0
H594 H 0.63783 0.6244 0.45303 0.0
H595 H 0.69404 0.6665 0.41444 0.0
H596 H 0.59537 0.78418 0.49978 0.0
H597 H 0.70566 0.80361 0.48621 0.0
H598 H 0.60109 0.75401 0.47852 0.0
H599 H 0.69816 0.83316 0.50724 0.0
H600 H 0.74751 0.70581 0.47785 0.0
H601 H 0.80346 0.8123 0.47872 0.0
H602 H 0.55024 0.6276 0.43334 0.0
H603 H 0.55639 0.63654 0.48088 0.0
H604 H 0.75382 0.86536 0.4371 0.0
H605 H 0.72939 0.76386 0.43582 0.0
H606 H 0.8074 0.88086 0.42532 0.0
H607 H 0.78312 0.78103 0.42399 0.0
H608 H 0.66472 0.82503 0.42375 0.0
H609 H 0.57247 0.75977 0.44496 0.0
H610 H 0.64404 0.8635 0.41839 0.0
H611 H 0.55333 0.79932 0.43917 0.0
H612 H 0.64223 0.70756 0.38529 0.0
H613 H 0.73338 0.8009 0.38351 0.0
H614 H 0.73504 0.90673 0.47161 0.0
H615 H 0.63089 0.87236 0.47541 0.0
Li616 Li 0.93562 0.7004 0.7886 0.0
Li617 Li 0.90824 0.63946 0.78673 0.0
Li618 Li 0.90515 0.67233 0.76601 0.0
Li619 Li 0.87518 0.66619 0.78863 0.0
C620 C 0.97082 0.68883 0.76558 0.0
N621 N 0.02249 0.71895 0.74591 0.0
C622 C 0.98623 0.67193 0.76031 0.0
C623 C 0.9817 0.72106 0.7609 0.0
C624 C 0.01235 0.68761 0.75037 0.0
C625 C 0.00783 0.73585 0.75092 0.0
C626 C 0.89065 0.64767 0.81519 0.0
C627 C 0.8475 0.5968 0.8254 0.0
N628 N 0.85646 0.60965 0.83919 0.0
C629 C 0.89943 0.6604 0.82944 0.0
C630 C 0.86448 0.61565 0.81312 0.0
C631 C 0.88184 0.64077 0.84144 0.0
C632 C 0.97133 0.76498 0.79973 0.0
N633 N 0.97258 0.73734 0.79649 0.0
C634 C 0.02805 0.76196 0.80497 0.0
C635 C 1.00001 0.73522 0.79902 0.0
C636 C 0.02768 0.79103 0.80823 0.0
C637 C 0.99894 0.79246 0.80552 0.0
H638 H 0.94885 0.76555 0.79789 0.0
H639 H 1.00002 0.7127 0.79643 0.0
C640 C 0.9007 0.57435 0.78693 0.0
N641 N 0.91772 0.60592 0.79187 0.0
C642 C 0.9127 0.5528 0.78961 0.0
C643 C 0.95885 0.5966 0.80261 0.0
C644 C 0.94595 0.61713 0.79974 0.0
C645 C 0.94254 0.56407 0.79732 0.0
H646 H 0.87849 0.56626 0.78053 0.0
H647 H 0.95917 0.64257 0.80328 0.0
C648 C 0.89473 0.72829 0.77158 0.0
N649 N 0.87681 0.77101 0.7593 0.0
C650 C 0.86169 0.71747 0.7684 0.0
C651 C 0.91863 0.76091 0.76856 0.0
C652 C 0.85313 0.73943 0.76219 0.0
C653 C 0.90908 0.7821 0.76233 0.0
C654 C 0.83804 0.61517 0.76864 0.0
C655 C 0.82993 0.63102 0.75776 0.0
C656 C 0.81437 0.58375 0.77341 0.0
C657 C 0.79804 0.61538 0.752 0.0
C658 C 0.78274 0.5689 0.76735 0.0
N659 N 0.77529 0.58492 0.75688 0.0
C660 C 0.9162 0.65491 0.73793 0.0
C661 C 0.91484 0.70475 0.7381 0.0
C662 C 0.92845 0.66097 0.72352 0.0
N663 N 0.91055 0.67715 0.74504 0.0
C664 C 0.9271 0.71181 0.72374 0.0
C665 C 0.93506 0.69031 0.71644 0.0
H666 H 0.91325 0.63351 0.74381 0.0
H667 H 0.91054 0.72226 0.7439 0.0
C668 C 0.85134 0.69322 0.80789 0.0
N669 N 0.83956 0.6678 0.79817 0.0
C670 C 0.82997 0.70062 0.81543 0.0
C671 C 0.78425 0.65533 0.80295 0.0
C672 C 0.80666 0.64866 0.79564 0.0
C673 C 0.7959 0.68177 0.81296 0.0
H674 H 0.87764 0.70828 0.80954 0.0
H675 H 0.79776 0.62873 0.78779 0.0
O676 O 0.94454 0.67346 0.77494 0.0
O677 O 0.90734 0.66677 0.80334 0.0
O678 O 0.90373 0.70729 0.77774 0.0
O679 O 0.86908 0.62998 0.77446 0.0
H680 H 0.97793 0.64689 0.7638 0.0
H681 H 0.9698 0.73434 0.76477 0.0
H682 H 0.02449 0.67482 0.74617 0.0
H683 H 0.01638 0.7607 0.74713 0.0
H684 H 0.82719 0.57198 0.82396 0.0
H685 H 0.91956 0.68522 0.8312 0.0
H686 H 0.8573 0.60548 0.80217 0.0
H687 H 0.88834 0.65029 0.85255 0.0
H688 H 0.04985 0.76007 0.80688 0.0
H689 H 0.99769 0.81436 0.80812 0.0
H690 H 0.89913 0.52785 0.78544 0.0
H691 H 0.98218 0.60667 0.80833 0.0
H692 H 0.84279 0.69246 0.77072 0.0
H693 H 0.94436 0.76969 0.77083 0.0
H694 H 0.82765 0.73135 0.75968 0.0
H695 H 0.92735 0.80734 0.75987 0.0
H696 H 0.84802 0.65514 0.75381 0.0
H697 H 0.82034 0.57099 0.78172 0.0
H698 H 0.79138 0.62745 0.74363 0.0
H699 H 0.76413 0.54466 0.77098 0.0
H700 H 0.93451 0.64388 0.71833 0.0
H701 H 0.93144 0.73449 0.71859 0.0
H702 H 0.84022 0.72163 0.82279 0.0
H703 H 0.75816 0.6401 0.80074 0.0
Li704 Li 0.23147 0.92822 0.12208 0.0
Li705 Li 0.26693 0.90297 0.11917 0.0
Li706 Li 0.23131 0.90246 0.0979 0.0
Li707 Li 0.20705 0.86838 0.11982 0.0
C708 C 0.29117 0.9723 0.10601 0.0
N709 N 0.33895 0.03731 0.10136 0.0
C710 C 0.31737 0.98838 0.11589 0.0
C711 C 0.28951 0.98932 0.09367 0.0
C712 C 0.3412 0.02123 0.11338 0.0
C713 C 0.31382 0.02216 0.09154 0.0
C714 C 0.24432 0.89024 0.14878 0.0
C715 C 0.26108 0.85837 0.16353 0.0
N716 N 0.26127 0.87541 0.1757 0.0
C717 C 0.24479 0.90753 0.16141 0.0
C718 C 0.25265 0.86555 0.14981 0.0
C719 C 0.25338 0.89963 0.17493 0.0
C720 C 0.2028 0.9663 0.13197 0.0
N721 N 0.23012 0.9632 0.13202 0.0
C722 C 0.25904 0.01155 0.1468 0.0
C723 C 0.2576 0.98463 0.13957 0.0
C724 C 0.2318 0.0164 0.1463 0.0
C725 C 0.20327 0.9931 0.13888 0.0
H726 H 0.18059 0.94811 0.12658 0.0
H727 H 0.27831 0.9806 0.14012 0.0
C728 C 0.3289 0.91348 0.11124 0.0
N729 N 0.31096 0.91278 0.12315 0.0
C730 C 0.36315 0.92822 0.11223 0.0
C731 C 0.35966 0.93977 0.13792 0.0
C732 C 0.32555 0.92503 0.13641 0.0
C733 C 0.37908 0.9425 0.12561 0.0
H734 H 0.31681 0.90451 0.10072 0.0
H735 H 0.31122 0.92568 0.14557 0.0
C736 C 0.1771 0.91123 0.1027 0.0
N737 N 0.14528 0.93941 0.08833 0.0
C738 C 0.14301 0.89323 0.10061 0.0
C739 C 0.19494 0.94361 0.09754 0.0
C740 C 0.12739 0.9079 0.09331 0.0
C741 C 0.17844 0.95742 0.0903 0.0
C742 C 0.22091 0.83341 0.10191 0.0
C743 C 0.19782 0.82245 0.09049 0.0
C744 C 0.22536 0.81067 0.11009 0.0
C745 C 0.17925 0.78874 0.08753 0.0
C746 C 0.2063 0.77717 0.10679 0.0
N747 N 0.18382 0.76699 0.09568 0.0
C748 C 0.26344 0.92141 0.07094 0.0
C749 C 0.20735 0.90694 0.06916 0.0
C750 C 0.26938 0.93371 0.05657 0.0
N751 N 0.23313 0.90945 0.07709 0.0
C752 C 0.21232 0.91947 0.05482 0.0
C753 C 0.24387 0.93386 0.04854 0.0
H754 H 0.2835 0.92317 0.07753 0.0
H755 H 0.18326 0.89658 0.07411 0.0
C756 C 0.16633 0.8178 0.14067 0.0
N757 N 0.16878 0.82871 0.12657 0.0
C758 C 0.13591 0.79399 0.14635 0.0
C759 C 0.11118 0.79178 0.12273 0.0
C760 C 0.14213 0.81556 0.11749 0.0
C761 C 0.10757 0.78149 0.1375 0.0
H762 H 0.18738 0.82885 0.14786 0.0
H763 H 0.14452 0.82488 0.10638 0.0
O764 O 0.26792 0.93985 0.10815 0.0
O765 O 0.23669 0.89822 0.13542 0.0
O766 O 0.19281 0.89701 0.10964 0.0
O767 O 0.23876 0.86623 0.10516 0.0
H768 H 0.31921 0.97581 0.12549 0.0
H769 H 0.26977 0.97741 0.08575 0.0
H770 H 0.36149 0.03393 0.121 0.0
H771 H 0.31275 0.03557 0.08205 0.0
H772 H 0.26758 0.83931 0.1645 0.0
H773 H 0.23861 0.92686 0.16076 0.0
H774 H 0.25274 0.85223 0.1401 0.0
H775 H 0.25383 0.91279 0.1848 0.0
H776 H 0.28116 0.02822 0.1528 0.0
H777 H 0.18164 0.99572 0.1382 0.0
H778 H 0.37708 0.93014 0.10239 0.0
H779 H 0.37082 0.95017 0.14847 0.0
H780 H 0.12875 0.86817 0.10457 0.0
H781 H 0.22115 0.95801 0.09929 0.0
H782 H 0.10103 0.89422 0.09159 0.0
H783 H 0.19199 0.98247 0.08627 0.0
H784 H 0.19403 0.83976 0.0841 0.0
H785 H 0.24333 0.81878 0.11888 0.0
H786 H 0.16114 0.77987 0.07879 0.0
H787 H 0.2094 0.75926 0.11305 0.0
H788 H 0.29407 0.94472 0.0521 0.0
H789 H 0.19196 0.91876 0.04886 0.0
H790 H 0.13429 0.78717 0.15786 0.0
H791 H 0.09008 0.78258 0.11546 0.0
Li792 Li 0.36766 0.26599 0.45342 0.0
Li793 Li 0.30685 0.23181 0.4563 0.0
Li794 Li 0.3411 0.20599 0.45354 0.0
Li795 Li 0.33222 0.23198 0.43194 0.0
C796 C 0.35665 0.24541 0.48292 0.0
N797 N 0.38739 0.2672 0.50989 0.0
C798 C 0.34066 0.25167 0.4944 0.0
C799 C 0.38831 0.25033 0.48513 0.0
C800 C 0.35662 0.26266 0.50796 0.0
C801 C 0.40341 0.2613 0.49885 0.0
C802 C 0.32507 0.29299 0.44019 0.0
C803 C 0.30001 0.31728 0.42532 0.0
N804 N 0.31216 0.34349 0.43464 0.0
C805 C 0.33732 0.32024 0.44958 0.0
C806 C 0.30627 0.29155 0.42793 0.0
C807 C 0.33052 0.34547 0.44661 0.0
C808 C 0.4182 0.32751 0.44489 0.0
N809 N 0.40285 0.30995 0.4572 0.0
C810 C 0.42726 0.35921 0.47169 0.0
C811 C 0.4075 0.32505 0.47052 0.0
C812 C 0.44183 0.37823 0.459 0.0
C813 C 0.43789 0.36179 0.44554 0.0
H814 H 0.41328 0.31507 0.43437 0.0
H815 H 0.39406 0.31124 0.48007 0.0
C816 C 0.24164 0.20051 0.46728 0.0
N817 N 0.27003 0.22985 0.46594 0.0
C818 C 0.21378 0.19913 0.47349 0.0
C819 C 0.2456 0.25781 0.47782 0.0
C820 C 0.27272 0.25806 0.4714 0.0
C821 C 0.21543 0.22814 0.47868 0.0
H822 H 0.24043 0.1782 0.46332 0.0
H823 H 0.29596 0.28075 0.47083 0.0
C824 C 0.38949 0.21917 0.4359 0.0
N825 N 0.41677 0.1801 0.42998 0.0
C826 C 0.37782 0.19707 0.4241 0.0
C827 C 0.41515 0.22159 0.44464 0.0
C828 C 0.39191 0.17748 0.42129 0.0
C829 C 0.42859 0.20156 0.44148 0.0
C830 C 0.26867 0.17878 0.43639 0.0
C831 C 0.25248 0.14503 0.43336 0.0
C832 C 0.25415 0.19733 0.43225 0.0
C833 C 0.22211 0.13047 0.42612 0.0
C834 C 0.22376 0.18188 0.42505 0.0
N835 N 0.20851 0.14904 0.42214 0.0
C836 C 0.34866 0.16419 0.47433 0.0
C837 C 0.32752 0.1402 0.45102 0.0
C838 C 0.34123 0.1336 0.48011 0.0
N839 N 0.3411 0.16687 0.4601 0.0
C840 C 0.31949 0.10906 0.45638 0.0
C841 C 0.3254 0.10529 0.47125 0.0
H842 H 0.35852 0.18525 0.48151 0.0
H843 H 0.32121 0.14278 0.43982 0.0
C844 C 0.34731 0.2662 0.40566 0.0
N845 N 0.32744 0.23557 0.41121 0.0
C846 C 0.34181 0.27432 0.39155 0.0
C847 C 0.29688 0.21853 0.38869 0.0
C848 C 0.3034 0.21143 0.40286 0.0
C849 C 0.31552 0.25068 0.38306 0.0
H850 H 0.3663 0.2849 0.41254 0.0
H851 H 0.28823 0.18707 0.40737 0.0
O852 O 0.34146 0.23496 0.46955 0.0
O853 O 0.33229 0.26843 0.44271 0.0
O854 O 0.37541 0.23788 0.43903 0.0
O855 O 0.29851 0.1934 0.4434 0.0
H856 H 0.31618 0.24807 0.49285 0.0
H857 H 0.4011 0.24586 0.47631 0.0
H858 H 0.34454 0.26761 0.51695 0.0
H859 H 0.4279 0.26522 0.50072 0.0
H860 H 0.28553 0.31643 0.41587 0.0
H861 H 0.35153 0.32175 0.45921 0.0
H862 H 0.29663 0.27089 0.42043 0.0
H863 H 0.33979 0.36661 0.45384 0.0
H864 H 0.42985 0.37072 0.48233 0.0
H865 H 0.44819 0.37534 0.43542 0.0
H866 H 0.19106 0.17571 0.47391 0.0
H867 H 0.24826 0.28058 0.4821 0.0
H868 H 0.35784 0.19482 0.41728 0.0
H869 H 0.42454 0.23869 0.45377 0.0
H870 H 0.38302 0.16013 0.41224 0.0
H871 H 0.44839 0.20307 0.44817 0.0
H872 H 0.26325 0.13024 0.43655 0.0
H873 H 0.26604 0.22328 0.43472 0.0
H874 H 0.20934 0.1044 0.42368 0.0
H875 H 0.21227 0.19597 0.42179 0.0
H876 H 0.3458 0.13188 0.49169 0.0
H877 H 0.30756 0.08796 0.44911 0.0
H878 H 0.35733 0.29919 0.38754 0.0
H879 H 0.27639 0.19948 0.38255 0.0
Li880 Li 0.06739 0.30148 0.78663 0.0
Li881 Li 0.09637 0.36334 0.78577 0.0
Li882 Li 0.08926 0.328 0.76336 0.0
Li883 Li 0.12539 0.33235 0.78295 0.0
C884 C 0.02208 0.31496 0.77851 0.0
N885 N 0.95574 0.28326 0.78542 0.0
C886 C 0.00969 0.33004 0.78778 0.0
C887 C 0.00055 0.28388 0.77261 0.0
C888 C 0.97613 0.31361 0.79116 0.0
C889 C 0.96716 0.26821 0.77629 0.0
C890 C 0.11964 0.33776 0.81187 0.0
C891 C 0.16427 0.37193 0.82828 0.0
N892 N 0.16165 0.34443 0.83462 0.0
C893 C 0.11711 0.30982 0.81864 0.0
C894 C 0.14321 0.36909 0.81676 0.0
C895 C 0.13871 0.31371 0.83009 0.0
C896 C 0.02283 0.23394 0.79143 0.0
N897 N 0.03335 0.26488 0.7965 0.0
C898 C 0.99308 0.24435 0.81563 0.0
C899 C 0.01946 0.27054 0.80846 0.0
C900 C 0.98107 0.21209 0.81044 0.0
C901 C 0.99646 0.20701 0.79824 0.0
H902 H 0.03464 0.23022 0.78199 0.0
H903 H 0.02865 0.2955 0.81227 0.0
C904 C 0.09435 0.42105 0.78138 0.0
N905 N 0.09281 0.39996 0.79204 0.0
C906 C 0.08296 0.4429 0.78421 0.0
C907 C 0.07 0.4219 0.80913 0.0
C908 C 0.08204 0.40069 0.80587 0.0
C909 C 0.06938 0.44258 0.79806 0.0
H910 H 0.10229 0.41927 0.77039 0.0
H911 H 0.08033 0.38301 0.814 0.0
C912 C 0.09498 0.27651 0.76007 0.0
N913 N 0.09848 0.24666 0.73439 0.0
C914 C 0.12557 0.28374 0.75436 0.0
C915 C 0.06617 0.25408 0.75271 0.0
C916 C 0.12682 0.26834 0.74138 0.0
C917 C 0.06847 0.2393 0.73973 0.0
C918 C 0.16247 0.38999 0.76967 0.0
C919 C 0.18187 0.38295 0.76034 0.0
C920 C 0.17717 0.4185 0.7783 0.0
C921 C 0.21587 0.40445 0.75994 0.0
C922 C 0.21125 0.43943 0.77754 0.0
N923 N 0.22973 0.432 0.76848 0.0
C924 C 0.04878 0.31952 0.73935 0.0
C925 C 0.10045 0.32708 0.73183 0.0
C926 C 0.03765 0.31439 0.72485 0.0
N927 N 0.07937 0.325 0.74265 0.0
C928 C 0.09034 0.32223 0.71705 0.0
C929 C 0.05836 0.31551 0.71342 0.0
H930 H 0.03269 0.31878 0.74798 0.0
H931 H 0.1249 0.33203 0.73467 0.0
C932 C 0.15637 0.29747 0.79043 0.0
N933 N 0.1632 0.3292 0.78932 0.0
C934 C 0.17877 0.28999 0.7969 0.0
C935 C 0.21538 0.34801 0.80114 0.0
C936 C 0.19215 0.35443 0.79449 0.0
C937 C 0.20866 0.31532 0.80252 0.0
H938 H 0.13271 0.27763 0.78691 0.0
H939 H 0.19666 0.37935 0.79414 0.0
O940 O 0.05507 0.33036 0.77532 0.0
O941 O 0.09947 0.33447 0.80034 0.0
O942 O 0.09323 0.29165 0.77268 0.0
O943 O 0.12916 0.36942 0.77015 0.0
H944 H 0.02572 0.35415 0.79232 0.0
H945 H 0.00962 0.27175 0.76545 0.0
H946 H 0.96629 0.32499 0.79836 0.0
H947 H 0.95035 0.24403 0.77191 0.0
H948 H 0.18281 0.39601 0.83212 0.0
H949 H 0.09898 0.28541 0.81493 0.0
H950 H 0.14545 0.39093 0.81159 0.0
H951 H 0.1373 0.29233 0.83534 0.0
H952 H 0.98226 0.24928 0.82514 0.0
H953 H 0.98781 0.18259 0.7938 0.0
H954 H 0.08258 0.45815 0.77533 0.0
H955 H 0.05984 0.42103 0.81996 0.0
H956 H 0.14816 0.30131 0.75976 0.0
H957 H 0.0423 0.24845 0.75684 0.0
H958 H 0.15033 0.27378 0.73682 0.0
H959 H 0.04638 0.22207 0.73388 0.0
H960 H 0.1708 0.36109 0.75353 0.0
H961 H 0.16244 0.42433 0.78553 0.0
H962 H 0.23124 0.39925 0.75283 0.0
H963 H 0.223 0.46153 0.78419 0.0
H964 H 0.01268 0.30886 0.72271 0.0
H965 H 0.10734 0.32377 0.70859 0.0
H966 H 0.17196 0.26437 0.79809 0.0
H967 H 0.23802 0.36831 0.80541 0.0
Li968 Li 0.73445 0.1007 0.11613 0.0
Li969 Li 0.76065 0.06744 0.1182 0.0
Li970 Li 0.79438 0.12657 0.119 0.0
Li971 Li 0.76732 0.0973 0.09542 0.0
C972 C 0.74024 0.08209 0.14501 0.0
N973 N 0.70054 0.05064 0.16901 0.0
C974 C 0.71165 0.05155 0.14327 0.0
C975 C 0.74872 0.09659 0.15896 0.0
C976 C 0.69188 0.03605 0.15553 0.0
C977 C 0.7283 0.08032 0.17096 0.0
C978 C 0.70277 0.03341 0.09866 0.0
C979 C 0.68465 0.98873 0.08123 0.0
N980 N 0.65381 0.9746 0.08704 0.0
C981 C 0.67086 0.01833 0.10447 0.0
C982 C 0.70972 0.01837 0.08697 0.0
C983 C 0.64649 0.98864 0.09845 0.0
C984 C 0.67455 0.09214 0.10726 0.0
N985 N 0.69386 0.09983 0.11944 0.0
C986 C 0.64866 0.09017 0.13492 0.0
C987 C 0.68205 0.10051 0.13305 0.0
C988 C 0.62743 0.07923 0.12266 0.0
C989 C 0.64109 0.08164 0.10861 0.0
H990 H 0.68459 0.09159 0.09659 0.0
H991 H 0.69797 0.1072 0.14257 0.0
C992 C 0.77875 0.03383 0.13785 0.0
N993 N 0.75718 0.02868 0.12678 0.0
C994 C 0.77883 0.00727 0.14471 0.0
C995 C 0.73352 0.97045 0.12907 0.0
C996 C 0.73467 0.99775 0.12237 0.0
C997 C 0.75597 0.97499 0.14033 0.0
H998 H 0.79619 0.05872 0.14124 0.0
H999 H 0.71745 0.99401 0.11372 0.0
C1000 C 0.77114 0.16704 0.10849 0.0
N1001 N 0.77533 0.22545 0.11728 0.0
C1002 C 0.77704 0.1914 0.09811 0.0
C1003 C 0.76734 0.17236 0.12335 0.0
C1004 C 0.77909 0.22078 0.10277 0.0
C1005 C 0.76955 0.20206 0.12757 0.0
C1006 C 0.81779 0.0777 0.10799 0.0
C1007 C 0.84513 0.08812 0.11721 0.0
C1008 C 0.80601 0.0484 0.10005 0.0
C1009 C 0.85992 0.06872 0.11849 0.0
C1010 C 0.82144 0.02966 0.10166 0.0
N1011 N 0.84783 0.04011 0.11078 0.0
C1012 C 0.83991 0.15092 0.14151 0.0
C1013 C 0.85434 0.18977 0.12217 0.0
C1014 C 0.86945 0.17128 0.14879 0.0
N1015 N 0.83319 0.16012 0.12835 0.0
C1016 C 0.88424 0.21116 0.12918 0.0
C1017 C 0.89238 0.20158 0.14251 0.0
H1018 H 0.82279 0.12706 0.14608 0.0
H1019 H 0.8485 0.19636 0.11162 0.0
C1020 C 0.7401 0.08888 0.0675 0.0
N1021 N 0.76733 0.0929 0.07465 0.0
C1022 C 0.73319 0.07604 0.05323 0.0
C1023 C 0.78373 0.07403 0.05358 0.0
C1024 C 0.78963 0.08683 0.06789 0.0
C1025 C 0.75452 0.06728 0.04631 0.0
H1026 H 0.72252 0.09332 0.07329 0.0
H1027 H 0.81076 0.08971 0.07396 0.0
O1028 O 0.76002 0.09782 0.13318 0.0
O1029 O 0.72686 0.06283 0.10427 0.0
O1030 O 0.76928 0.13827 0.10405 0.0
O1031 O 0.80249 0.09597 0.10686 0.0
H1032 H 0.7048 0.03994 0.13259 0.0
H1033 H 0.77078 0.12025 0.16049 0.0
H1034 H 0.66965 0.01243 0.15433 0.0
H1035 H 0.73452 0.09129 0.18182 0.0
H1036 H 0.68973 0.97693 0.07216 0.0
H1037 H 0.66489 0.02929 0.11358 0.0
H1038 H 0.73419 0.02927 0.08239 0.0
H1039 H 0.62173 0.97678 0.10284 0.0
H1040 H 0.6393 0.0894 0.14592 0.0
H1041 H 0.62576 0.07324 0.09885 0.0
H1042 H 0.79691 0.01205 0.15321 0.0
H1043 H 0.71501 0.94604 0.12553 0.0
H1044 H 0.78006 0.18765 0.08656 0.0
H1045 H 0.76278 0.15388 0.13157 0.0
H1046 H 0.78367 0.23986 0.09485 0.0
H1047 H 0.76668 0.20651 0.13903 0.0
H1048 H 0.85475 0.11085 0.12334 0.0
H1049 H 0.78488 0.03995 0.09289 0.0
H1050 H 0.88098 0.0764 0.12565 0.0
H1051 H 0.81237 0.00677 0.09568 0.0
H1052 H 0.87458 0.16311 0.15911 0.0
H1053 H 0.90135 0.23426 0.12394 0.0
H1054 H 0.71062 0.07159 0.04794 0.0
H1055 H 0.80069 0.06741 0.04868 0.0
C1056 C 0.93888 0.25592 0.15147 0.0
C1057 C 0.92524 0.22187 0.14949 0.0
C1058 C 0.96969 0.27483 0.15838 0.0
C1059 C 0.98742 0.25938 0.16321 0.0
C1060 C 0.97387 0.22509 0.16105 0.0
C1061 C 0.94298 0.2068 0.15429 0.0
C1062 C 0.98315 0.31125 0.16063 0.0
C1063 C 0.9921 0.20766 0.16582 0.0
C1064 C 0.08017 0.30639 0.16877 0.0
C1065 C 0.0828 0.30689 0.18421 0.0
C1066 C 0.04934 0.29234 0.16178 0.0
C1067 C 0.02031 0.27877 0.17041 0.0
C1068 C 0.02284 0.28097 0.18598 0.0
C1069 C 0.054 0.29485 0.1927 0.0
C1070 C 0.04781 0.29049 0.14516 0.0
C1071 C 0.99251 0.2671 0.19559 0.0
H1072 H 0.92518 0.26763 0.14786 0.0
H1073 H 0.9328 0.18058 0.15257 0.0
H1074 H 0.98724 0.31722 0.17255 0.0
H1075 H 0.00736 0.32548 0.15507 0.0
H1076 H 0.96633 0.31953 0.15628 0.0
H1077 H 0.97827 0.18092 0.16322 0.0
H1078 H 0.01642 0.21883 0.16026 0.0
H1079 H 0.99672 0.21065 0.17787 0.0
H1080 H 0.10227 0.31626 0.1621 0.0
H1081 H 0.05562 0.29483 0.20461 0.0
H1082 H 0.032 0.29999 0.14086 0.0
H1083 H 0.03657 0.26439 0.14164 0.0
H1084 H 0.07256 0.30466 0.14002 0.0
H1085 H 0.97564 0.27568 0.1917 0.0
H1086 H 0.99868 0.27421 0.20734 0.0
H1087 H 0.97899 0.23982 0.19485 0.0
C1088 C 0.76666 0.0504 0.52584 0.0
C1089 C 0.75959 0.0755 0.52265 0.0
C1090 C 0.75074 0.02017 0.51835 0.0
C1091 C 0.72691 0.01469 0.50744 0.0
C1092 C 0.71848 0.0393 0.50466 0.0
C1093 C 0.73509 0.06951 0.51222 0.0
C1094 C 0.76075 0.99477 0.52157 0.0
C1095 C 0.69286 0.03423 0.49329 0.0
C1096 C 0.71925 0.95547 0.47709 0.0
C1097 C 0.69231 0.92568 0.48188 0.0
C1098 C 0.73003 0.98475 0.48506 0.0
C1099 C 0.71325 0.98449 0.49808 0.0
C1100 C 0.68501 0.9549 0.50259 0.0
C1101 C 0.67494 0.9258 0.49447 0.0
C1102 C 0.76025 0.01571 0.47984 0.0
C1103 C 0.66624 0.95368 0.51631 0.0
H1104 H 0.78591 0.05499 0.53371 0.0
H1105 H 0.72934 0.08872 0.50978 0.0
H1106 H 0.73872 0.97054 0.52394 0.0
H1107 H 0.77298 0.99163 0.51173 0.0
H1108 H 0.77793 0.00184 0.53107 0.0
H1109 H 0.68645 0.05406 0.49362 0.0
H1110 H 0.70225 0.03377 0.48212 0.0
H1111 H 0.67012 0.01017 0.49502 0.0
H1112 H 0.73241 0.95578 0.46722 0.0
H1113 H 0.65425 0.9029 0.49833 0.0
H1114 H 0.78014 0.02365 0.48816 0.0
H1115 H 0.75473 0.036 0.47861 0.0
H1116 H 0.76958 0.01216 0.46913 0.0
H1117 H 0.68163 0.95712 0.52618 0.0
H1118 H 0.64284 0.92988 0.51742 0.0
H1119 H 0.66056 0.97399 0.51624 0.0
C1120 C 0.67919 0.73984 0.85363 0.0
C1121 C 0.69475 0.77397 0.85129 0.0
C1122 C 0.69216 0.72102 0.84759 0.0
C1123 C 0.72153 0.73677 0.83917 0.0
C1124 C 0.73725 0.77119 0.83678 0.0
C1125 C 0.72369 0.78929 0.84285 0.0
C1126 C 0.67458 0.68435 0.85029 0.0
C1127 C 0.7688 0.78909 0.82802 0.0
C1128 C 0.77868 0.70177 0.83505 0.0
C1129 C 0.77332 0.69113 0.82032 0.0
C1130 C 0.76081 0.71515 0.84156 0.0
C1131 C 0.73676 0.71782 0.83319 0.0
C1132 C 0.72984 0.70534 0.81861 0.0
C1133 C 0.74823 0.69219 0.81233 0.0
C1134 C 0.76896 0.72806 0.85715 0.0
C1135 C 0.70426 0.70754 0.80934 0.0
H1136 H 0.65673 0.72782 0.86007 0.0
H1137 H 0.73624 0.81573 0.84123 0.0
H1138 H 0.66858 0.67099 0.83963 0.0
H1139 H 0.69091 0.67774 0.85644 0.0
H1140 H 0.65145 0.67567 0.85667 0.0
H1141 H 0.77759 0.81582 0.82693 0.0
H1142 H 0.78838 0.78611 0.83343 0.0
H1143 H 0.76512 0.7783 0.81681 0.0
H1144 H 0.79758 0.70045 0.8414 0.0
H1145 H 0.74403 0.68425 0.80092 0.0
H1146 H 0.7462 0.7183 0.86385 0.0
H1147 H 0.78062 0.7553 0.85705 0.0
H1148 H 0.78607 0.72143 0.86261 0.0
H1149 H 0.68098 0.69839 0.81561 0.0
H1150 H 0.69898 0.69323 0.79894 0.0
H1151 H 0.71312 0.73367 0.80649 0.0
C1152 C 0.92516 0.67669 0.17296 0.0
C1153 C 0.9253 0.69435 0.18548 0.0
C1154 C 0.95407 0.68664 0.16471 0.0
C1155 C 0.98373 0.71499 0.16905 0.0
C1156 C 0.98427 0.73204 0.18202 0.0
C1157 C 0.95516 0.72143 0.1901 0.0
C1158 C 0.95255 0.66763 0.15102 0.0
C1159 C 0.01534 0.76236 0.18708 0.0
C1160 C 0.06837 0.73646 0.15457 0.0
C1161 C 0.07431 0.76101 0.14417 0.0
C1162 C 0.03832 0.72 0.16225 0.0
C1163 C 0.01372 0.72848 0.15957 0.0
C1164 C 0.01905 0.75224 0.14865 0.0
C1165 C 0.04919 0.76814 0.14108 0.0
C1166 C 0.03344 0.69452 0.17367 0.0
C1167 C 0.9936 0.7622 0.14549 0.0
H1168 H 0.90218 0.65588 0.16924 0.0
H1169 H 0.95564 0.73482 0.19992 0.0
H1170 H 0.95579 0.68286 0.14112 0.0
H1171 H 0.97285 0.66194 0.15104 0.0
H1172 H 0.92872 0.64422 0.15004 0.0
H1173 H 0.01204 0.77183 0.1978 0.0
H1174 H 0.03567 0.75688 0.18821 0.0
H1175 H 0.02304 0.78214 0.17871 0.0
H1176 H 0.08751 0.73056 0.15691 0.0
H1177 H 0.05367 0.78739 0.13324 0.0
H1178 H 0.00935 0.67176 0.17205 0.0
H1179 H 0.03317 0.70407 0.18483 0.0
H1180 H 0.05325 0.6881 0.1733 0.0
H1181 H 0.9693 0.74013 0.14328 0.0
H1182 H 0.00043 0.77913 0.1359 0.0
H1183 H 0.99073 0.7747 0.15529 0.0
C1184 C 0.27973 0.04708 0.47473 0.0
C1185 C 0.31198 0.07197 0.47798 0.0
C1186 C 0.26494 0.01694 0.48234 0.0
C1187 C 0.28279 0.01138 0.49347 0.0
C1188 C 0.31587 0.03576 0.49633 0.0
C1189 C 0.33002 0.0658 0.4886 0.0
C1190 C 0.22956 0.99173 0.47897 0.0
C1191 C 0.33589 0.03067 0.50798 0.0
C1192 C 0.23046 0.95287 0.52391 0.0
C1193 C 0.22802 0.92303 0.51949 0.0
C1194 C 0.24897 0.98191 0.51577 0.0
C1195 C 0.2658 0.98133 0.50291 0.0
C1196 C 0.26465 0.95166 0.49872 0.0
C1197 C 0.24572 0.92284 0.50704 0.0
C1198 C 0.24956 0.01299 0.52068 0.0
C1199 C 0.28241 0.95006 0.48515 0.0
H1200 H 0.2654 0.05173 0.46671 0.0
H1201 H 0.35506 0.08475 0.49107 0.0
H1202 H 0.22716 0.96732 0.47686 0.0
H1203 H 0.2139 0.98901 0.48864 0.0
H1204 H 0.21992 0.99869 0.46926 0.0
H1205 H 0.36215 0.05043 0.50783 0.0
H1206 H 0.32557 0.03027 0.51904 0.0
H1207 H 0.33455 0.00656 0.50641 0.0
H1208 H 0.21738 0.95341 0.53366 0.0
H1209 H 0.24378 0.89988 0.50346 0.0
H1210 H 0.23788 0.02075 0.51215 0.0
H1211 H 0.27534 0.03328 0.52198 0.0
H1212 H 0.23637 0.00969 0.53128 0.0
H1213 H 0.27089 0.95366 0.47517 0.0
H1214 H 0.28171 0.9261 0.48417 0.0
H1215 H 0.3085 0.97014 0.48533 0.0
C1216 C 0.26748 0.22413 0.8558 0.0
C1217 C 0.30007 0.2307 0.85459 0.0
C1218 C 0.25628 0.242 0.84763 0.0
C1219 C 0.27827 0.26752 0.83812 0.0
C1220 C 0.31169 0.27561 0.83748 0.0
C1221 C 0.32218 0.25701 0.84567 0.0
C1222 C 0.22044 0.23251 0.84868 0.0
C1223 C 0.33602 0.30297 0.82766 0.0
C1224 C 0.23578 0.28119 0.80554 0.0
C1225 C 0.23115 0.30687 0.8106 0.0
C1226 C 0.25247 0.26923 0.8141 0.0
C1227 C 0.26532 0.28355 0.82803 0.0
C1228 C 0.26267 0.31091 0.83279 0.0
C1229 C 0.24547 0.32217 0.82405 0.0
C1230 C 0.25468 0.23999 0.80858 0.0
C1231 C 0.27644 0.32719 0.84746 0.0
H1232 H 0.25041 0.20441 0.86294 0.0
H1233 H 0.34736 0.26224 0.84461 0.0
H1234 H 0.21821 0.25438 0.85139 0.0
H1235 H 0.20827 0.22304 0.83787 0.0
H1236 H 0.20696 0.21326 0.85716 0.0
H1237 H 0.36176 0.30898 0.8298 0.0
H1238 H 0.33011 0.29553 0.81594 0.0
H1239 H 0.33431 0.32554 0.82924 0.0
H1240 H 0.22538 0.26966 0.79503 0.0
H1241 H 0.24187 0.34188 0.82812 0.0
H1242 H 0.23979 0.21842 0.81579 0.0
H1243 H 0.28049 0.24524 0.80906 0.0
H1244 H 0.2456 0.23324 0.79708 0.0
H1245 H 0.26123 0.31058 0.85649 0.0
H1246 H 0.27668 0.35091 0.84858 0.0
H1247 H 0.30189 0.33179 0.84893 0.0
C1248 C 0.57084 0.51199 0.21335 0.0
C1249 C 0.59126 0.53999 0.20492 0.0
C1250 C 0.53643 0.49743 0.21276 0.0
C1251 C 0.52206 0.51134 0.20361 0.0
C1252 C 0.5425 0.539 0.19474 0.0
C1253 C 0.57686 0.55295 0.19548 0.0
C1254 C 0.51548 0.46774 0.22228 0.0
C1255 C 0.52815 0.55462 0.18489 0.0
C1256 C 0.43072 0.4577 0.1953 0.0
C1257 C 0.41654 0.4682 0.20609 0.0
C1258 C 0.46506 0.47211 0.19408 0.0
C1259 C 0.48573 0.49772 0.20386 0.0
C1260 C 0.47159 0.50928 0.2144 0.0
C1261 C 0.43717 0.49431 0.21542 0.0
C1262 C 0.47915 0.45901 0.18273 0.0
C1263 C 0.4928 0.53677 0.22493 0.0
H1264 H 0.58187 0.50178 0.22059 0.0
H1265 H 0.59252 0.5749 0.18912 0.0
H1266 H 0.50209 0.474 0.23058 0.0
H1267 H 0.49672 0.44735 0.21544 0.0
H1268 H 0.53034 0.45884 0.22816 0.0
H1269 H 0.54721 0.57467 0.17799 0.0
H1270 H 0.50911 0.53583 0.17754 0.0
H1271 H 0.51589 0.56498 0.19174 0.0
H1272 H 0.41494 0.4372 0.1882 0.0
H1273 H 0.42635 0.50271 0.2237 0.0
H1274 H 0.49162 0.44722 0.18837 0.0
H1275 H 0.49797 0.47947 0.17595 0.0
H1276 H 0.45991 0.44061 0.1753 0.0
H1277 H 0.50641 0.5288 0.23229 0.0
H1278 H 0.4781 0.54423 0.23186 0.0
H1279 H 0.51136 0.55861 0.21873 0.0
C1280 C 0.02156 0.57267 0.55177 0.0
C1281 C 0.05383 0.58876 0.54629 0.0
C1282 C 0.00145 0.53841 0.55056 0.0
C1283 C 0.01423 0.51968 0.54406 0.0
C1284 C 0.04697 0.53584 0.53862 0.0
C1285 C 0.06626 0.57033 0.5396 0.0
C1286 C 0.96646 0.5223 0.55617 0.0
C1287 C 0.06173 0.51665 0.53193 0.0
C1288 C 0.9726 0.42904 0.55438 0.0
C1289 C 0.95434 0.41395 0.54165 0.0
C1290 C 0.99248 0.46341 0.55524 0.0
C1291 C 0.99345 0.48315 0.54321 0.0
C1292 C 0.9744 0.46795 0.53044 0.0
C1293 C 0.95544 0.43342 0.52972 0.0
C1294 C 0.01295 0.47856 0.56891 0.0
C1295 C 0.9741 0.48816 0.51755 0.0
H1296 H 0.01187 0.58706 0.55678 0.0
H1297 H 0.09124 0.58288 0.53537 0.0
H1298 H 0.94909 0.50773 0.54722 0.0
H1299 H 0.96298 0.50498 0.56523 0.0
H1300 H 0.95987 0.54057 0.56031 0.0
H1301 H 0.08771 0.53284 0.52846 0.0
H1302 H 0.06081 0.49845 0.54003 0.0
H1303 H 0.04715 0.50265 0.52219 0.0
H1304 H 0.97209 0.4138 0.56349 0.0
H1305 H 0.94139 0.42158 0.51987 0.0
H1306 H 0.00593 0.49553 0.57416 0.0
H1307 H 0.03937 0.49336 0.56588 0.0
H1308 H 0.00999 0.45971 0.57714 0.0
H1309 H 0.96667 0.50604 0.5213 0.0
H1310 H 0.957 0.47263 0.50869 0.0
H1311 H 0.99921 0.50258 0.51283 0.0
C1312 C 0.45362 0.03115 0.86613 0.0
C1313 C 0.46656 0.05789 0.87593 0.0
C1314 C 0.46695 0.01024 0.86522 0.0
C1315 C 0.49402 0.01632 0.87427 0.0
C1316 C 0.50778 0.04383 0.88389 0.0
C1317 C 0.49376 0.06418 0.88466 0.0
C1318 C 0.45139 0.98103 0.85493 0.0
C1319 C 0.53689 0.05137 0.89359 0.0
C1320 C 0.50916 0.94627 0.88436 0.0
C1321 C 0.535 0.95192 0.87482 0.0
C1322 C 0.49504 0.96656 0.88404 0.0
C1323 C 0.50731 0.99336 0.87405 0.0
C1324 C 0.53289 0.99872 0.86416 0.0
C1325 C 0.54635 0.97788 0.86464 0.0
C1326 C 0.46749 0.95976 0.89462 0.0
C1327 C 0.54679 0.02714 0.85342 0.0
H1328 H 0.43221 0.0258 0.85955 0.0
H1329 H 0.50388 0.08487 0.89221 0.0
H1330 H 0.47024 0.98139 0.84742 0.0
H1331 H 0.441 0.95788 0.86141 0.0
H1332 H 0.43139 0.98055 0.84817 0.0
H1333 H 0.54568 0.07457 0.89992 0.0
H1334 H 0.53005 0.03089 0.9015 0.0
H1335 H 0.55753 0.05345 0.8868 0.0
H1336 H 0.5002 0.92613 0.89218 0.0
H1337 H 0.56669 0.9827 0.8574 0.0
H1338 H 0.44587 0.95724 0.88849 0.0
H1339 H 0.47555 0.98078 0.90233 0.0
H1340 H 0.45967 0.937 0.90117 0.0
H1341 H 0.5268 0.02623 0.84654 0.0
H1342 H 0.56568 0.02709 0.84605 0.0
H1343 H 0.55817 0.05076 0.85957 0.0
C1344 C 0.54297 0.57501 0.46886 0.0
C1345 C 0.53256 0.59033 0.45858 0.0
C1346 C 0.52832 0.54058 0.46946 0.0
C1347 C 0.50279 0.52087 0.45946 0.0
C1348 C 0.49182 0.53609 0.4492 0.0
C1349 C 0.50675 0.57059 0.44891 0.0
C1350 C 0.54061 0.52531 0.48062 0.0
C1351 C 0.46466 0.51593 0.43834 0.0
C1352 C 0.48656 0.43447 0.451 0.0
C1353 C 0.45852 0.4149 0.45958 0.0
C1354 C 0.50127 0.46897 0.45088 0.0
C1355 C 0.48777 0.48435 0.45963 0.0
C1356 C 0.45978 0.46482 0.46847 0.0
C1357 C 0.44541 0.4304 0.46828 0.0
C1358 C 0.53107 0.48895 0.44128 0.0
C1359 C 0.44473 0.48026 0.47801 0.0
H1360 H 0.56333 0.58998 0.47618 0.0
H1361 H 0.49832 0.58215 0.44103 0.0
H1362 H 0.51985 0.50719 0.48749 0.0
H1363 H 0.55109 0.51176 0.47485 0.0
H1364 H 0.55979 0.54398 0.48798 0.0
H1365 H 0.45869 0.53148 0.43119 0.0
H1366 H 0.47203 0.50146 0.43123 0.0
H1367 H 0.44203 0.49811 0.44432 0.0
H1368 H 0.49706 0.4228 0.44435 0.0
H1369 H 0.42335 0.41558 0.47471 0.0
H1370 H 0.55209 0.50673 0.44813 0.0
H1371 H 0.52575 0.50347 0.4332 0.0
H1372 H 0.53862 0.47328 0.43515 0.0
H1373 H 0.46352 0.49835 0.48567 0.0
H1374 H 0.42357 0.4617 0.48458 0.0
H1375 H 0.43614 0.49388 0.47101 0.0
C1376 C 0.95765 0.52344 0.78725 0.0
C1377 C 0.95804 0.54315 0.79898 0.0
C1378 C 0.97497 0.50623 0.78807 0.0
C1379 C 0.99343 0.50897 0.80089 0.0
C1380 C 0.99317 0.528 0.81295 0.0
C1381 C 0.97536 0.5447 0.81188 0.0
C1382 C 0.97436 0.48592 0.77502 0.0
C1383 C 0.01251 0.53152 0.82681 0.0
C1384 C 0.01953 0.44479 0.8062 0.0
C1385 C 0.05146 0.46091 0.80028 0.0
C1386 C 0.00058 0.46035 0.80678 0.0
C1387 C 0.01398 0.49292 0.80141 0.0
C1388 C 0.04664 0.50973 0.79591 0.0
C1389 C 0.06491 0.49345 0.79532 0.0
C1390 C 0.96578 0.44148 0.81259 0.0
C1391 C 0.06199 0.54463 0.79026 0.0
H1392 H 0.94477 0.52239 0.77716 0.0
H1393 H 0.97539 0.55939 0.82111 0.0
H1394 H 0.99942 0.49676 0.77022 0.0
H1395 H 0.96695 0.46051 0.7786 0.0
H1396 H 0.95717 0.48461 0.76627 0.0
H1397 H 0.00865 0.54609 0.83543 0.0
H1398 H 0.00539 0.50689 0.83138 0.0
H1399 H 0.03917 0.54383 0.82418 0.0
H1400 H 0.00881 0.41944 0.80983 0.0
H1401 H 0.08963 0.50602 0.79081 0.0
H1402 H 0.9482 0.43752 0.80357 0.0
H1403 H 0.96199 0.45584 0.82131 0.0
H1404 H 0.95973 0.41711 0.81718 0.0
H1405 H 0.04825 0.5454 0.78045 0.0
H1406 H 0.08824 0.55488 0.78715 0.0
H1407 H 0.06037 0.56075 0.79878 0.0
C1408 C 0.43096 0.99252 0.13406 0.0
C1409 C 0.41569 0.96248 0.12638 0.0
C1410 C 0.46537 0.01261 0.13428 0.0
C1411 C 0.48508 0.0026 0.12653 0.0
C1412 C 0.4699 0.9722 0.11887 0.0
C1413 C 0.43542 0.95249 0.11891 0.0
C1414 C 0.48061 0.0448 0.14261 0.0
C1415 C 0.49009 0.96067 0.11047 0.0
C1416 C 0.57124 0.06671 0.11422 0.0
C1417 C 0.59101 0.06228 0.12453 0.0
C1418 C 0.53673 0.0479 0.1149 0.0
C1419 C 0.52157 0.02416 0.12622 0.0
C1420 C 0.54131 0.02035 0.13696 0.0
C1421 C 0.57576 0.03936 0.13597 0.0
C1422 C 0.51653 0.05278 0.10327 0.0
C1423 C 0.52607 0.99544 0.14924 0.0
H1424 H 0.41597 0.00083 0.13963 0.0
H1425 H 0.42388 0.92921 0.11306 0.0
H1426 H 0.49875 0.04577 0.15074 0.0
H1427 H 0.49413 0.06562 0.13485 0.0
H1428 H 0.46192 0.04845 0.14852 0.0
H1429 H 0.47457 0.93623 0.10523 0.0
H1430 H 0.50459 0.97878 0.10175 0.0
H1431 H 0.50789 0.95904 0.11799 0.0
H1432 H 0.5828 0.08461 0.10546 0.0
H1433 H 0.59075 0.03531 0.14385 0.0
H1434 H 0.49848 0.0583 0.10853 0.0
H1435 H 0.50232 0.02975 0.09683 0.0
H1436 H 0.53202 0.07308 0.09554 0.0
H1437 H 0.50771 0.99927 0.1553 0.0
H1438 H 0.54474 0.99685 0.1572 0.0
H1439 H 0.51283 0.97022 0.14454 0.0
C1440 C 0.26227 0.07635 0.15284 0.0
C1441 C 0.23323 0.04562 0.1534 0.0
C1442 C 0.26399 0.1042 0.15943 0.0
C1443 C 0.23583 0.10138 0.16652 0.0
C1444 C 0.20638 0.07057 0.16706 0.0
C1445 C 0.20552 0.04299 0.1606 0.0
C1446 C 0.29594 0.13664 0.15879 0.0
C1447 C 0.17577 0.06677 0.17441 0.0
C1448 C 0.24701 0.16555 0.19485 0.0
C1449 C 0.24018 0.18667 0.18652 0.0
C1450 C 0.24596 0.13786 0.18844 0.0
C1451 C 0.23722 0.13071 0.17342 0.0
C1452 C 0.2299 0.15161 0.16497 0.0
C1453 C 0.23178 0.17953 0.17158 0.0
C1454 C 0.25432 0.1163 0.19774 0.0
C1455 C 0.22009 0.14449 0.14895 0.0
H1456 H 0.28362 0.07877 0.14709 0.0
H1457 H 0.18315 0.01928 0.16131 0.0
H1458 H 0.29217 0.15517 0.15285 0.0
H1459 H 0.30424 0.14614 0.17012 0.0
H1460 H 0.31582 0.13447 0.15317 0.0
H1461 H 0.15462 0.04125 0.17356 0.0
H1462 H 0.18072 0.07345 0.18624 0.0
H1463 H 0.16866 0.08383 0.1693 0.0
H1464 H 0.25291 0.17048 0.20646 0.0
H1465 H 0.22701 0.19595 0.16498 0.0
H1466 H 0.27499 0.11469 0.19264 0.0
H1467 H 0.23292 0.09093 0.19823 0.0
H1468 H 0.26138 0.12571 0.20917 0.0
H1469 H 0.24032 0.14475 0.1425 0.0
H1470 H 0.21424 0.16268 0.14404 0.0
H1471 H 0.19823 0.11953 0.14781 0.0
C1472 C 0.04287 0.21318 0.49985 0.0
C1473 C 0.04473 0.22778 0.51358 0.0
C1474 C 0.07007 0.21216 0.49406 0.0
C1475 C 0.09989 0.22642 0.50213 0.0
C1476 C 0.10193 0.24108 0.516 0.0
C1477 C 0.07425 0.24135 0.52161 0.0
C1478 C 0.06701 0.19608 0.47927 0.0
C1479 C 0.13342 0.25671 0.52487 0.0
C1480 C 0.16362 0.20149 0.4937 0.0
C1481 C 0.18577 0.2276 0.48473 0.0
C1482 C 0.13529 0.20056 0.4993 0.0
C1483 C 0.12923 0.22654 0.49597 0.0
C1484 C 0.15149 0.25299 0.48696 0.0
C1485 C 0.1794 0.2531 0.48138 0.0
C1486 C 0.11195 0.17188 0.50883 0.0
C1487 C 0.1459 0.28124 0.48326 0.0
H1488 H 0.02029 0.20299 0.4935 0.0
H1489 H 0.0757 0.25208 0.53236 0.0
H1490 H 0.08454 0.21451 0.47133 0.0
H1491 H 0.07353 0.17645 0.4803 0.0
H1492 H 0.04175 0.18511 0.47464 0.0
H1493 H 0.13091 0.26716 0.53546 0.0
H1494 H 0.14097 0.23824 0.52728 0.0
H1495 H 0.15355 0.27673 0.51838 0.0
H1496 H 0.16859 0.18192 0.4965 0.0
H1497 H 0.19609 0.27306 0.47424 0.0
H1498 H 0.08682 0.15982 0.50403 0.0
H1499 H 0.1104 0.1808 0.51996 0.0
H1500 H 0.11974 0.15318 0.51002 0.0
H1501 H 0.12198 0.27187 0.47751 0.0
H1502 H 0.16568 0.29999 0.47615 0.0
H1503 H 0.14468 0.29339 0.49354 0.0
C1504 C 0.92519 0.18672 0.82197 0.0
C1505 C 0.95238 0.18393 0.81758 0.0
C1506 C 0.89777 0.16023 0.82863 0.0
C1507 C 0.89747 0.13021 0.83085 0.0
C1508 C 0.92476 0.12718 0.82641 0.0
C1509 C 0.95196 0.15414 0.81987 0.0
C1510 C 0.86908 0.16434 0.83326 0.0
C1511 C 0.92521 0.09547 0.82858 0.0
C1512 C 0.83989 0.07141 0.85983 0.0
C1513 C 0.81333 0.0488 0.8512 0.0
C1514 C 0.86747 0.09805 0.85334 0.0
C1515 C 0.86858 0.10197 0.83785 0.0
C1516 C 0.84202 0.07909 0.82905 0.0
C1517 C 0.81464 0.0528 0.83584 0.0
C1518 C 0.89535 0.12205 0.86306 0.0
C1519 C 0.84244 0.08251 0.81248 0.0
H1520 H 0.92516 0.20951 0.82002 0.0
H1521 H 0.97307 0.15198 0.81667 0.0
H1522 H 0.84642 0.14615 0.82743 0.0
H1523 H 0.86447 0.1595 0.84525 0.0
H1524 H 0.87337 0.18944 0.8309 0.0
H1525 H 0.94821 0.09706 0.82438 0.0
H1526 H 0.92273 0.08909 0.84047 0.0
H1527 H 0.90393 0.075 0.82283 0.0
H1528 H 0.83924 0.06814 0.87168 0.0
H1529 H 0.794 0.03565 0.82914 0.0
H1530 H 0.89925 0.14723 0.86152 0.0
H1531 H 0.91856 0.12281 0.85987 0.0
H1532 H 0.8906 0.1155 0.87493 0.0
H1533 H 0.84418 0.10627 0.80949 0.0
H1534 H 0.82009 0.06222 0.80722 0.0
H1535 H 0.86445 0.08274 0.80784 0.0
C1536 C 0.74951 0.91864 0.13898 0.0
C1537 C 0.75564 0.94625 0.1474 0.0
C1538 C 0.74929 0.89142 0.14548 0.0
C1539 C 0.75598 0.89209 0.16072 0.0
C1540 C 0.76222 0.91981 0.1693 0.0
C1541 C 0.76168 0.94644 0.16257 0.0
C1542 C 0.74216 0.86206 0.13603 0.0
C1543 C 0.76977 0.92148 0.18558 0.0
C1544 C 0.73036 0.81213 0.181 0.0
C1545 C 0.75995 0.81147 0.18128 0.0
C1546 C 0.72857 0.838 0.17415 0.0
C1547 C 0.75718 0.86406 0.16764 0.0
C1548 C 0.78709 0.86356 0.16786 0.0
C1549 C 0.78804 0.83713 0.17456 0.0
C1550 C 0.69615 0.83757 0.17396 0.0
C1551 C 0.81816 0.8911 0.16112 0.0
H1552 H 0.74535 0.91845 0.12722 0.0
H1553 H 0.76585 0.96737 0.16922 0.0
H1554 H 0.76388 0.85859 0.13587 0.0
H1555 H 0.72133 0.83935 0.14075 0.0
H1556 H 0.73596 0.86483 0.12449 0.0
H1557 H 0.77421 0.9449 0.19067 0.0
H1558 H 0.74905 0.90067 0.19143 0.0
H1559 H 0.79192 0.91909 0.1873 0.0
H1560 H 0.70865 0.79266 0.18634 0.0
H1561 H 0.81084 0.83652 0.17445 0.0
H1562 H 0.68918 0.83936 0.16245 0.0
H1563 H 0.69857 0.85922 0.18002 0.0
H1564 H 0.67592 0.81488 0.17904 0.0
H1565 H 0.8143 0.89337 0.14921 0.0
H1566 H 0.8395 0.88714 0.16236 0.0
H1567 H 0.82435 0.91487 0.16639 0.0
C1568 C 0.82658 0.77889 0.49674 0.0
C1569 C 0.80802 0.75763 0.48527 0.0
C1570 C 0.85407 0.7784 0.5025 0.0
C1571 C 0.86312 0.75606 0.49664 0.0
C1572 C 0.8444 0.7344 0.48513 0.0
C1573 C 0.81707 0.73548 0.47956 0.0
C1574 C 0.87346 0.8018 0.51481 0.0
C1575 C 0.85336 0.71026 0.47863 0.0
C1576 C 0.95118 0.77561 0.5023 0.0
C1577 C 0.94782 0.75529 0.5143 0.0
C1578 C 0.92374 0.77593 0.49636 0.0
C1579 C 0.89225 0.75541 0.50258 0.0
C1580 C 0.88863 0.7346 0.51458 0.0
C1581 C 0.91649 0.73482 0.52031 0.0
C1582 C 0.92846 0.79837 0.48351 0.0
C1583 C 0.8554 0.71241 0.52149 0.0
H1584 H 0.81943 0.79576 0.50131 0.0
H1585 H 0.80308 0.71932 0.47055 0.0
H1586 H 0.87372 0.78772 0.5246 0.0
H1587 H 0.89942 0.81786 0.51134 0.0
H1588 H 0.86315 0.81764 0.51812 0.0
H1589 H 0.836 0.69484 0.46983 0.0
H1590 H 0.87856 0.72373 0.47392 0.0
H1591 H 0.8535 0.69382 0.48739 0.0
H1592 H 0.9753 0.79117 0.4975 0.0
H1593 H 0.91384 0.71942 0.52973 0.0
H1594 H 0.9203 0.81606 0.48661 0.0
H1595 H 0.91305 0.78375 0.47406 0.0
H1596 H 0.95454 0.81248 0.47985 0.0
H1597 H 0.84516 0.72744 0.52597 0.0
H1598 H 0.8567 0.69715 0.53055 0.0
H1599 H 0.8379 0.69579 0.51302 0.0
C1600 C 0.16217 0.94752 0.85204 0.0
C1601 C 0.19439 0.95643 0.84799 0.0
C1602 C 0.13511 0.92076 0.84533 0.0
C1603 C 0.14053 0.90283 0.83421 0.0
C1604 C 0.17304 0.91205 0.82991 0.0
C1605 C 0.19966 0.93867 0.83695 0.0
C1606 C 0.10077 0.91134 0.85032 0.0
C1607 C 0.17968 0.89373 0.81795 0.0
C1608 C 0.07272 0.81529 0.82687 0.0
C1609 C 0.05698 0.81957 0.81466 0.0
C1610 C 0.10007 0.84222 0.83333 0.0
C1611 C 0.11211 0.87403 0.82726 0.0
C1612 C 0.09659 0.8784 0.81477 0.0
C1613 C 0.06899 0.85108 0.80867 0.0
C1614 C 0.11576 0.83673 0.84676 0.0
C1615 C 0.10908 0.91192 0.8079 0.0
H1616 H 0.15817 0.96109 0.86069 0.0
H1617 H 0.22463 0.94583 0.83374 0.0
H1618 H 0.08615 0.91198 0.84084 0.0
H1619 H 0.08806 0.88576 0.85462 0.0
H1620 H 0.10083 0.92798 0.85906 0.0
H1621 H 0.20639 0.9047 0.8156 0.0
H1622 H 0.16968 0.86765 0.82123 0.0
H1623 H 0.16695 0.89376 0.80763 0.0
H1624 H 0.06319 0.79092 0.83157 0.0
H1625 H 0.05694 0.85426 0.79912 0.0
H1626 H 0.11461 0.85125 0.85618 0.0
H1627 H 0.14215 0.84547 0.84461 0.0
H1628 H 0.10351 0.81039 0.85004 0.0
H1629 H 0.10757 0.92883 0.81601 0.0
H1630 H 0.09486 0.91091 0.79792 0.0
H1631 H 0.13538 0.92267 0.80481 0.0
C1632 C 0.29586 0.2387 0.35674 0.0
C1633 C 0.30641 0.26013 0.36888 0.0
C1634 C 0.28648 0.24726 0.34348 0.0
C1635 C 0.28779 0.27803 0.34231 0.0
C1636 C 0.29839 0.29973 0.35452 0.0
C1637 C 0.30742 0.29048 0.36764 0.0
C1638 C 0.27525 0.22342 0.33071 0.0
C1639 C 0.30019 0.33278 0.35371 0.0
C1640 C 0.29403 0.31428 0.30418 0.0
C1641 C 0.26154 0.30706 0.30163 0.0
C1642 C 0.30286 0.305 0.31736 0.0
C1643 C 0.27861 0.28783 0.32825 0.0
C1644 C 0.24577 0.2804 0.32577 0.0
C1645 C 0.23764 0.29015 0.31251 0.0
C1646 C 0.33817 0.31346 0.31959 0.0
C1647 C 0.21921 0.26208 0.33713 0.0
H1648 H 0.29523 0.21533 0.35755 0.0
H1649 H 0.31481 0.30691 0.37705 0.0
H1650 H 0.25011 0.21728 0.32725 0.0
H1651 H 0.29176 0.23499 0.32112 0.0
H1652 H 0.27499 0.20022 0.33349 0.0
H1653 H 0.30898 0.34682 0.36418 0.0
H1654 H 0.31708 0.34774 0.3447 0.0
H1655 H 0.27556 0.32935 0.3511 0.0
H1656 H 0.31254 0.32665 0.29572 0.0
H1657 H 0.21256 0.28467 0.31068 0.0
H1658 H 0.33932 0.29062 0.32125 0.0
H1659 H 0.34834 0.32869 0.32966 0.0
H1660 H 0.35411 0.32714 0.31008 0.0
H1661 H 0.21712 0.2379 0.33952 0.0
H1662 H 0.19479 0.25786 0.33345 0.0
H1663 H 0.22581 0.27616 0.34761 0.0
C1664 C 0.99397 0.29006 0.62952 0.0
C1665 C 0.96365 0.26071 0.62867 0.0
C1666 C 0.01207 0.29955 0.64269 0.0
C1667 C 0.99913 0.27954 0.65538 0.0
C1668 C 0.96864 0.24966 0.65452 0.0
C1669 C 0.95141 0.2404 0.64109 0.0
C1670 C 0.0448 0.33119 0.64308 0.0
C1671 C 0.95375 0.22795 0.66787 0.0
C1672 C 0.0532 0.28962 0.68853 0.0
C1673 C 0.04591 0.30883 0.69797 0.0
C1674 C 0.03892 0.28066 0.67443 0.0
C1675 C 0.01648 0.29074 0.66978 0.0
C1676 C 0.00976 0.31088 0.67909 0.0
C1677 C 0.02483 0.31998 0.69296 0.0
C1678 C 0.04719 0.25971 0.66468 0.0
C1679 C 0.98587 0.32204 0.67458 0.0
H1680 H 0.00361 0.30549 0.61981 0.0
H1681 H 0.92793 0.21774 0.64039 0.0
H1682 H 0.0433 0.34905 0.6506 0.0
H1683 H 0.06417 0.32649 0.64746 0.0
H1684 H 0.05247 0.34267 0.632 0.0
H1685 H 0.93028 0.20513 0.66526 0.0
H1686 H 0.97126 0.22097 0.67255 0.0
H1687 H 0.94891 0.24171 0.67654 0.0
H1688 H 0.06922 0.28066 0.69231 0.0
H1689 H 0.01966 0.3355 0.70001 0.0
H1690 H 0.05502 0.27116 0.65362 0.0
H1691 H 0.02498 0.23517 0.6631 0.0
H1692 H 0.06707 0.25618 0.66941 0.0
H1693 H 0.99391 0.336 0.66408 0.0
H1694 H 0.98354 0.33786 0.68306 0.0
H1695 H 0.96117 0.30028 0.67263 0.0
C1696 C 0.76768 0.0558 0.02089 0.0
C1697 C 0.7448 0.04841 0.03228 0.0
C1698 C 0.75869 0.03729 0.00779 0.0
C1699 C 0.72613 0.01063 0.00611 0.0
C1700 C 0.70302 0.00296 0.01761 0.0
C1701 C 0.71261 0.02194 0.03053 0.0
C1702 C 0.78396 0.04635 0.99572 0.0
C1703 C 0.66814 0.97461 0.0163 0.0
C1704 C 0.69211 0.98143 0.96763 0.0
C1705 C 0.69521 0.95332 0.96607 0.0
C1706 C 0.70233 0.00041 0.98054 0.0
C1707 C 0.71595 0.99107 0.99223 0.0
C1708 C 0.71922 0.96275 0.99073 0.0
C1709 C 0.70892 0.94427 0.97764 0.0
C1710 C 0.69862 0.03054 0.98166 0.0
C1711 C 0.73343 0.9519 0.003 0.0
H1712 H 0.79254 0.07628 0.02218 0.0
H1713 H 0.695 0.01565 0.03942 0.0
H1714 H 0.78719 0.02501 0.99314 0.0
H1715 H 0.77527 0.05261 0.9855 0.0
H1716 H 0.80828 0.0676 0.99879 0.0
H1717 H 0.6533 0.97161 0.02633 0.0
H1718 H 0.65582 0.97853 0.0067 0.0
H1719 H 0.6683 0.95134 0.01433 0.0
H1720 H 0.6822 0.98897 0.9586 0.0
H1721 H 0.71129 0.92253 0.97649 0.0
H1722 H 0.72295 0.05269 0.98376 0.0
H1723 H 0.68245 0.02793 0.9911 0.0
H1724 H 0.68799 0.03472 0.97149 0.0
H1725 H 0.75864 0.97195 0.00573 0.0
H1726 H 0.73458 0.92949 1.00005 0.0
H1727 H 0.71826 0.94671 0.0131 0.0
C1728 C 0.76175 0.70618 0.31227 0.0
C1729 C 0.73977 0.69566 0.30033 0.0
C1730 C 0.75405 0.71602 0.32562 0.0
C1731 C 0.72345 0.71492 0.32713 0.0
C1732 C 0.70106 0.70411 0.31519 0.0
C1733 C 0.70959 0.6949 0.30192 0.0
C1734 C 0.77868 0.72767 0.33809 0.0
C1735 C 0.66807 0.70232 0.31641 0.0
C1736 C 0.69009 0.71058 0.36572 0.0
C1737 C 0.69717 0.74312 0.368 0.0
C1738 C 0.69837 0.70108 0.35246 0.0
C1739 C 0.71464 0.72476 0.34126 0.0
C1740 C 0.72206 0.75767 0.34347 0.0
C1741 C 0.71305 0.76641 0.35677 0.0
C1742 C 0.68975 0.66566 0.35047 0.0
C1743 C 0.73959 0.78368 0.3318 0.0
H1744 H 0.78497 0.70657 0.31124 0.0
H1745 H 0.69271 0.68761 0.29269 0.0
H1746 H 0.78508 0.75295 0.34143 0.0
H1747 H 0.76771 0.71153 0.34784 0.0
H1748 H 0.80167 0.72776 0.33504 0.0
H1749 H 0.65319 0.69277 0.30619 0.0
H1750 H 0.65386 0.68609 0.32573 0.0
H1751 H 0.67167 0.72712 0.31876 0.0
H1752 H 0.67853 0.69251 0.37441 0.0
H1753 H 0.71833 0.7915 0.35833 0.0
H1754 H 0.71247 0.66439 0.34861 0.0
H1755 H 0.67397 0.65507 0.34058 0.0
H1756 H 0.6766 0.65015 0.36016 0.0
H1757 H 0.76349 0.78547 0.32904 0.0
H1758 H 0.74428 0.80832 0.33537 0.0
H1759 H 0.7247 0.7767 0.32155 0.0
C1760 C 0.01379 0.75079 0.6362 0.0
C1761 C 0.04044 0.74561 0.63389 0.0
C1762 C 0.99617 0.74166 0.64951 0.0
C1763 C 0.00564 0.72733 0.66085 0.0
C1764 C 0.03279 0.72242 0.65865 0.0
C1765 C 0.04974 0.73142 0.64515 0.0
C1766 C 0.96716 0.74699 0.65137 0.0
C1767 C 0.04392 0.70764 0.67056 0.0
C1768 C 0.97922 0.73163 0.7 0.0
C1769 C 0.95249 0.69971 0.70205 0.0
C1770 C 0.99677 0.74089 0.68668 0.0
C1771 C 0.98727 0.71773 0.67507 0.0
C1772 C 0.96023 0.68548 0.67703 0.0
C1773 C 0.94326 0.6768 0.69054 0.0
C1774 C 0.02566 0.77539 0.68508 0.0
C1775 C 0.94919 0.6602 0.66486 0.0
H1776 H 0.00621 0.76127 0.62743 0.0
H1777 H 0.07043 0.72756 0.64342 0.0
H1778 H 0.94455 0.72314 0.65364 0.0
H1779 H 0.97123 0.76325 0.66097 0.0
H1780 H 0.96286 0.75824 0.64145 0.0
H1781 H 0.06576 0.70587 0.66717 0.0
H1782 H 0.05015 0.72279 0.68071 0.0
H1783 H 0.02365 0.68263 0.67339 0.0
H1784 H 0.98686 0.74925 0.70896 0.0
H1785 H 0.92254 0.65216 0.69207 0.0
H1786 H 0.02143 0.78804 0.67571 0.0
H1787 H 0.04833 0.77441 0.68258 0.0
H1788 H 0.02998 0.79038 0.69519 0.0
H1789 H 0.94274 0.66952 0.6549 0.0
H1790 H 0.92753 0.63632 0.6681 0.0
H1791 H 0.96959 0.65585 0.66177 0.0
C1792 C 0.2421 0.97556 0.03205 0.0
C1793 C 0.2509 0.95135 0.03423 0.0
C1794 C 0.25066 0.9942 0.01903 0.0
C1795 C 0.26788 0.98804 0.00781 0.0
C1796 C 0.27619 0.9631 0.00983 0.0
C1797 C 0.26791 0.94529 0.02311 0.0
C1798 C 0.2419 0.02097 0.01741 0.0
C1799 C 0.29396 0.95535 0.99801 0.0
C1800 C 0.26486 0.0168 0.96896 0.0
C1801 C 0.29603 0.04499 0.96768 0.0
C1802 C 0.25541 0.99795 0.98193 0.0
C1803 C 0.27748 0.00791 0.99401 0.0
C1804 C 0.30878 0.03675 0.99287 0.0
C1805 C 0.31783 0.05475 0.97964 0.0
C1806 C 0.22209 0.96705 0.98261 0.0
C1807 C 0.33273 0.04851 0.0056 0.0
H1808 H 0.22938 0.98059 0.04076 0.0
H1809 H 0.27464 0.92651 0.0248 0.0
H1810 H 0.26464 0.04511 0.01584 0.0
H1811 H 0.22636 0.0164 0.00749 0.0
H1812 H 0.22848 0.02263 0.02717 0.0
H1813 H 0.29744 0.93434 0.00107 0.0
H1814 H 0.27994 0.94936 0.98752 0.0
H1815 H 0.31847 0.97723 0.99592 0.0
H1816 H 0.24818 0.00896 0.95963 0.0
H1817 H 0.34191 0.07661 0.97865 0.0
H1818 H 0.20748 0.96868 0.99185 0.0
H1819 H 0.22517 0.94544 0.98478 0.0
H1820 H 0.20789 0.96265 0.97224 0.0
H1821 H 0.321 0.05206 0.01552 0.0
H1822 H 0.35559 0.07204 0.00311 0.0
H1823 H 0.33953 0.02964 0.00838 0.0
loop_
_geom_bond_atom_site_label_1
_geom_bond_atom_site_label_2
_geom_bond_distance
_geom_bond_site_symmetry_2
_ccdc_geom_bond_type
Li0 N17 1.990 . S
Li0 O60 1.956 . S
Li0 O61 1.970 . S
Li0 O62 1.961 . S
Li1 N25 1.990 . S
Li1 O60 1.970 . S
Li1 O61 1.956 . S
Li1 O63 1.961 . S
Li2 N47 1.990 . S
Li2 O60 1.961 . S
Li2 O62 1.956 . S
Li2 O63 1.970 . S
Li3 N53 1.990 . S
Li3 O61 1.961 . S
Li3 O62 1.970 . S
Li3 O63 1.956 . S
C4 C6 1.348 . S
C4 C7 1.356 . S
C4 O60 1.325 . S
N5 C8 1.314 . S
N5 C9 1.279 . S
C6 C4 1.348 . S
C6 C8 1.353 . S
C6 H64 0.929 . S
C7 C4 1.356 . S
C7 C9 1.358 . S
C7 H65 0.930 . S
C8 N5 1.314 . S
C8 C6 1.353 . S
C8 H66 0.930 . S
C9 N5 1.279 . S
C9 C7 1.358 . S
C9 H67 0.930 . S
C10 C13 1.348 . S
C10 C14 1.356 . S
C10 O61 1.325 . S
C11 N12 1.279 . S
C11 C14 1.358 . S
C11 H68 0.930 . S
N12 C11 1.279 . S
N12 C15 1.314 . S
C13 C10 1.348 . S
C13 C15 1.353 . S
C13 H69 0.929 . S
C14 C10 1.356 . S
C14 C11 1.358 . S
C14 H70 0.930 . S
C15 N12 1.314 . S
C15 C13 1.353 . S
C15 H71 0.930 . S
C16 N17 1.314 . S
C16 C21 1.353 . S
C16 H22 0.930 . S
N17 Li0 1.990 . S
N17 C16 1.314 . S
N17 C19 1.279 . S
C18 C19 1.358 . S
C18 C20 1.356 . S
C18 H72 0.930 . S
C19 N17 1.279 . S
C19 C18 1.358 . S
C19 H23 0.930 . S
C20 C18 1.356 . S
C20 C21 1.348 . S
C21 C16 1.353 . S
C21 C20 1.348 . S
C21 H73 0.929 . S
H22 C16 0.930 . S
H23 C19 0.930 . S
C24 N25 1.314 . S
C24 C26 1.353 . S
C24 H30 0.930 . S
N25 Li1 1.990 . S
N25 C24 1.314 . S
N25 C28 1.279 . S
C26 C24 1.353 . S
C26 C29 1.348 . S
C26 H74 0.929 . S
C27 C28 1.358 . S
C27 C29 1.356 . S
C27 H75 0.930 . S
C28 N25 1.279 . S
C28 C27 1.358 . S
C28 H31 0.930 . S
C29 C26 1.348 . S
C29 C27 1.356 . S
H30 C24 0.930 . S
H31 C28 0.930 . S
C32 C34 1.348 . S
C32 C35 1.356 . S
C32 O62 1.325 . S
N33 C36 1.314 . S
N33 C37 1.279 . S
C34 C32 1.348 . S
C34 C36 1.353 . S
C34 H76 0.929 . S
C35 C32 1.356 . S
C35 C37 1.358 . S
C35 H77 0.930 . S
C36 N33 1.314 . S
C36 C34 1.353 . S
C36 H78 0.930 . S
C37 N33 1.279 . S
C37 C35 1.358 . S
C37 H79 0.930 . S
C38 C39 1.348 . S
C38 C40 1.356 . S
C38 O63 1.325 . S
C39 C38 1.348 . S
C39 C41 1.353 . S
C39 H80 0.929 . S
C40 C38 1.356 . S
C40 C42 1.358 . S
C40 H81 0.930 . S
C41 C39 1.353 . S
C41 N43 1.314 . S
C41 H82 0.930 . S
C42 C40 1.358 . S
C42 N43 1.279 . S
C42 H83 0.930 . S
N43 C41 1.314 . S
N43 C42 1.279 . S
C44 C46 1.353 . S
C44 N47 1.314 . S
C44 H50 0.930 . S
C45 N47 1.279 . S
C45 C48 1.358 . S
C45 H51 0.930 . S
C46 C44 1.353 . S
C46 C49 1.348 . S
C46 H84 0.929 . S
N47 Li2 1.990 . S
N47 C44 1.314 . S
N47 C45 1.279 . S
C48 C45 1.358 . S
C48 C49 1.356 . S
C48 H85 0.930 . S
C49 C46 1.348 . S
C49 C48 1.356 . S
H50 C44 0.930 . S
H51 C45 0.930 . S
C52 N53 1.314 . S
C52 C54 1.353 . S
C52 H58 0.930 . S
N53 Li3 1.990 . S
N53 C52 1.314 . S
N53 C56 1.279 . S
C54 C52 1.353 . S
C54 C57 1.348 . S
C54 H86 0.929 . S
C55 C56 1.358 . S
C55 C57 1.356 . S
C55 H87 0.930 . S
C56 N53 1.279 . S
C56 C55 1.358 . S
C56 H59 0.930 . S
C57 C54 1.348 . S
C57 C55 1.356 . S
H58 C52 0.930 . S
H59 C56 0.930 . S
O60 Li0 1.956 . S
O60 Li1 1.970 . S
O60 Li2 1.961 . S
O60 C4 1.325 . S
O61 Li0 1.970 . S
O61 Li1 1.956 . S
O61 Li3 1.961 . S
O61 C10 1.325 . S
O62 Li0 1.961 . S
O62 Li2 1.956 . S
O62 Li3 1.970 . S
O62 C32 1.325 . S
O63 Li1 1.961 . S
O63 Li2 1.970 . S
O63 Li3 1.956 . S
O63 C38 1.325 . S
H64 C6 0.929 . S
H65 C7 0.930 . S
H66 C8 0.930 . S
H67 C9 0.930 . S
H68 C11 0.930 . S
H69 C13 0.929 . S
H70 C14 0.930 . S
H71 C15 0.930 . S
H72 C18 0.930 . S
H73 C21 0.929 . S
H74 C26 0.929 . S
H75 C27 0.930 . S
H76 C34 0.929 . S
H77 C35 0.930 . S
H78 C36 0.930 . S
H79 C37 0.930 . S
H80 C39 0.929 . S
H81 C40 0.930 . S
H82 C41 0.930 . S
H83 C42 0.930 . S
H84 C46 0.929 . S
H85 C48 0.930 . S
H86 C54 0.929 . S
H87 C55 0.930 . S
Li88 N105 1.990 . S
Li88 O148 1.956 . S
Li88 O149 1.970 . S
Li88 O150 1.961 . S
Li89 N113 1.990 . S
Li89 O148 1.970 . S
Li89 O149 1.956 . S
Li89 O151 1.961 . S
Li90 N135 1.990 . S
Li90 O148 1.961 . S
Li90 O150 1.956 . S
Li90 O151 1.970 . S
Li91 N141 1.990 1_655 S
Li91 O149 1.961 . S
Li91 O150 1.970 . S
Li91 O151 1.956 . S
C92 C94 1.348 . S
C92 C95 1.356 . S
C92 O148 1.325 . S
N93 C96 1.314 . S
N93 C97 1.279 . S
C94 C92 1.348 . S
C94 C96 1.353 . S
C94 H152 0.929 . S
C95 C92 1.356 . S
C95 C97 1.358 . S
C95 H153 0.930 . S
C96 N93 1.314 . S
C96 C94 1.353 . S
C96 H154 0.930 . S
C97 N93 1.279 . S
C97 C95 1.358 . S
C97 H155 0.930 . S
C98 C101 1.348 . S
C98 C102 1.356 . S
C98 O149 1.325 . S
C99 N100 1.279 . S
C99 C102 1.358 . S
C99 H156 0.943 . S
N100 C99 1.279 . S
N100 C103 1.314 . S
C101 C98 1.348 . S
C101 C103 1.353 . S
C101 H157 0.929 . S
C102 C98 1.356 . S
C102 C99 1.358 . S
C102 H158 0.930 . S
C103 N100 1.314 . S
C103 C101 1.353 . S
C103 H159 0.930 . S
C104 N105 1.314 . S
C104 C109 1.353 . S
C104 H110 0.930 . S
N105 Li88 1.990 . S
N105 C104 1.314 . S
N105 C107 1.279 . S
C106 C107 1.358 . S
C106 C108 1.356 . S
C106 H160 0.930 . S
C107 N105 1.279 . S
C107 C106 1.358 . S
C107 H111 0.930 . S
C108 C106 1.356 . S
C108 C109 1.348 . S
C109 C104 1.353 . S
C109 C108 1.348 . S
C109 H161 0.929 . S
H110 C104 0.930 . S
H111 C107 0.930 . S
C112 N113 1.314 . S
C112 C114 1.353 . S
C112 H118 0.930 . S
N113 Li89 1.990 . S
N113 C112 1.314 . S
N113 C116 1.279 . S
C114 C112 1.353 . S
C114 C117 1.348 . S
C114 H162 0.929 . S
C115 C116 1.358 . S
C115 C117 1.356 . S
C115 H163 0.930 . S
C116 N113 1.279 . S
C116 C115 1.358 . S
C116 H119 0.930 . S
C117 C114 1.348 . S
C117 C115 1.356 . S
H118 C112 0.930 . S
H119 C116 0.930 . S
C120 C122 1.348 . S
C120 C123 1.356 . S
C120 O150 1.325 . S
N121 C124 1.314 . S
N121 C125 1.279 . S
C122 C120 1.348 . S
C122 C124 1.353 . S
C122 H164 0.929 . S
C123 C120 1.356 . S
C123 C125 1.358 . S
C123 H165 0.930 . S
C124 N121 1.314 . S
C124 C122 1.353 . S
C124 H166 0.930 . S
C125 N121 1.279 . S
C125 C123 1.358 . S
C125 H167 0.930 . S
C126 C127 1.349 1_655 S
C126 C128 1.351 1_655 S
C126 O151 1.328 . S
C127 C126 1.349 1_455 S
C127 C129 1.353 . S
C127 H168 0.929 1_455 S
C128 C126 1.351 1_455 S
C128 C130 1.358 . S
C128 H169 0.930 . S
C129 C127 1.353 . S
C129 N131 1.314 . S
C129 H170 0.930 . S
C130 C128 1.358 . S
C130 N131 1.279 . S
C130 H171 0.930 . S
N131 C129 1.314 . S
N131 C130 1.279 . S
C132 C134 1.353 . S
C132 N135 1.314 . S
C132 H138 0.930 . S
C133 N135 1.279 . S
C133 C136 1.358 . S
C133 H139 0.930 . S
C134 C132 1.353 . S
C134 C137 1.348 . S
C134 H172 0.929 . S
N135 Li90 1.990 . S
N135 C132 1.314 . S
N135 C133 1.279 . S
C136 C133 1.358 . S
C136 C137 1.356 . S
C136 H173 0.930 . S
C137 C134 1.348 . S
C137 C136 1.356 . S
H138 C132 0.930 . S
H139 C133 0.930 . S
C140 N141 1.314 . S
C140 C142 1.353 . S
C140 H146 0.930 1_455 S
N141 Li91 1.990 1_455 S
N141 C140 1.314 . S
N141 C144 1.279 . S
C142 C140 1.353 . S
C142 C145 1.348 . S
C142 H174 0.929 . S
C143 C144 1.358 . S
C143 C145 1.356 . S
C143 H175 0.930 . S
C144 N141 1.279 . S
C144 C143 1.358 . S
C144 H147 0.930 . S
C145 C142 1.348 . S
C145 C143 1.356 . S
H146 C140 0.930 1_655 S
H147 C144 0.930 . S
O148 Li88 1.956 . S
O148 Li89 1.970 . S
O148 Li90 1.961 . S
O148 C92 1.325 . S
O149 Li88 1.970 . S
O149 Li89 1.956 . S
O149 Li91 1.961 . S
O149 C98 1.325 . S
O150 Li88 1.961 . S
O150 Li90 1.956 . S
O150 Li91 1.970 . S
O150 C120 1.325 . S
O151 Li89 1.961 . S
O151 Li90 1.970 . S
O151 Li91 1.956 . S
O151 C126 1.328 . S
H152 C94 0.929 . S
H153 C95 0.930 . S
H154 C96 0.930 . S
H155 C97 0.930 . S
H156 C99 0.943 . S
H157 C101 0.929 . S
H158 C102 0.930 . S
H159 C103 0.930 . S
H160 C106 0.930 . S
H161 C109 0.929 . S
H162 C114 0.929 . S
H163 C115 0.930 . S
H164 C122 0.929 . S
H165 C123 0.930 . S
H166 C124 0.930 . S
H167 C125 0.930 . S
H168 C127 0.929 1_655 S
H169 C128 0.930 . S
H170 C129 0.930 . S
H171 C130 0.930 . S
H172 C134 0.929 . S
H173 C136 0.930 . S
H174 C142 0.929 . S
H175 C143 0.930 . S
Li176 N193 1.990 . S
Li176 O236 1.956 . S
Li176 O237 1.970 . S
Li176 O238 1.961 . S
Li177 N201 1.990 . S
Li177 O236 1.970 . S
Li177 O237 1.956 . S
Li177 O239 1.961 . S
Li178 N223 1.990 1_565 S
Li178 O236 1.961 . S
Li178 O238 1.956 . S
Li178 O239 1.970 . S
Li179 N229 1.990 . S
Li179 O237 1.961 . S
Li179 O238 1.970 . S
Li179 O239 1.956 . S
C180 C182 1.348 . S
C180 C183 1.356 . S
C180 O236 1.325 . S
N181 C184 1.314 . S
N181 C185 1.279 . S
C182 C180 1.348 . S
C182 C184 1.353 . S
C182 H240 0.929 . S
C183 C180 1.356 . S
C183 C185 1.358 . S
C183 H241 0.930 . S
C184 N181 1.314 . S
C184 C182 1.353 . S
C184 H242 0.930 . S
C185 N181 1.279 . S
C185 C183 1.358 . S
C185 H243 0.939 . S
C186 C189 1.348 . S
C186 C190 1.356 . S
C186 O237 1.325 . S
C187 N188 1.279 . S
C187 C190 1.358 . S
C187 H244 0.930 . S
N188 C187 1.279 . S
N188 C191 1.314 . S
C189 C186 1.348 . S
C189 C191 1.353 . S
C189 H245 0.929 . S
C190 C186 1.356 . S
C190 C187 1.358 . S
C190 H246 0.930 . S
C191 N188 1.314 . S
C191 C189 1.353 . S
C191 H247 0.930 . S
C192 N193 1.314 . S
C192 C197 1.353 . S
C192 H198 0.930 . S
N193 Li176 1.990 . S
N193 C192 1.314 . S
N193 C195 1.279 . S
C194 C195 1.358 . S
C194 C196 1.356 . S
C194 H248 0.930 . S
C195 N193 1.279 . S
C195 C194 1.358 . S
C195 H199 0.930 . S
C196 C194 1.356 . S
C196 C197 1.348 . S
C197 C192 1.353 . S
C197 C196 1.348 . S
C197 H249 0.929 . S
H198 C192 0.930 . S
H199 C195 0.930 . S
C200 N201 1.314 . S
C200 C202 1.353 . S
C200 H206 0.930 . S
N201 Li177 1.990 . S
N201 C200 1.314 . S
N201 C204 1.279 . S
C202 C200 1.353 . S
C202 C205 1.348 . S
C202 H250 0.929 . S
C203 C204 1.358 . S
C203 C205 1.356 . S
C203 H251 0.930 . S
C204 N201 1.279 . S
C204 C203 1.358 . S
C204 H207 0.930 . S
C205 C202 1.348 . S
C205 C203 1.356 . S
H206 C200 0.930 . S
H207 C204 0.930 . S
C208 C210 1.343 1_565 S
C208 C211 1.353 1_565 S
C208 O238 1.331 . S
N209 C212 1.314 . S
N209 C213 1.279 . S
C210 C208 1.343 1_545 S
C210 C212 1.353 . S
C210 H252 0.929 1_545 S
C211 C208 1.353 1_545 S
C211 C213 1.358 . S
C211 H253 0.930 . S
C212 N209 1.314 . S
C212 C210 1.353 . S
C212 H254 0.930 . S
C213 N209 1.279 . S
C213 C211 1.358 . S
C213 H255 0.930 . S
C214 C215 1.348 . S
C214 C216 1.356 . S
C214 O239 1.325 . S
C215 C214 1.348 . S
C215 C217 1.353 . S
C215 H256 0.929 . S
C216 C214 1.356 . S
C216 C218 1.358 . S
C216 H257 0.930 . S
C217 C215 1.353 . S
C217 N219 1.314 . S
C217 H258 0.930 . S
C218 C216 1.358 . S
C218 N219 1.279 . S
C218 H259 0.930 . S
N219 C217 1.314 . S
N219 C218 1.279 . S
C220 C222 1.353 . S
C220 N223 1.314 . S
C220 H226 0.930 1_545 S
C221 N223 1.279 . S
C221 C224 1.358 . S
C221 H227 0.930 . S
C222 C220 1.353 . S
C222 C225 1.348 . S
C222 H260 0.929 . S
N223 Li178 1.990 1_545 S
N223 C220 1.314 . S
N223 C221 1.279 . S
C224 C221 1.358 . S
C224 C225 1.356 . S
C224 H261 0.930 . S
C225 C222 1.348 . S
C225 C224 1.356 . S
H226 C220 0.930 1_565 S
H227 C221 0.930 . S
C228 N229 1.314 . S
C228 C230 1.353 . S
C228 H234 0.930 . S
N229 Li179 1.990 . S
N229 C228 1.314 . S
N229 C232 1.279 . S
C230 C228 1.353 . S
C230 C233 1.348 . S
C230 H262 0.929 . S
C231 C232 1.358 . S
C231 C233 1.356 . S
C231 H263 0.930 . S
C232 N229 1.279 . S
C232 C231 1.358 . S
C232 H235 0.930 . S
C233 C230 1.348 . S
C233 C231 1.356 . S
H234 C228 0.930 . S
H235 C232 0.930 . S
O236 Li176 1.956 . S
O236 Li177 1.970 . S
O236 Li178 1.961 . S
O236 C180 1.325 . S
O237 Li176 1.970 . S
O237 Li177 1.956 . S
O237 Li179 1.961 . S
O237 C186 1.325 . S
O238 Li176 1.961 . S
O238 Li178 1.956 . S
O238 Li179 1.970 . S
O238 C208 1.331 . S
O239 Li177 1.961 . S
O239 Li178 1.970 . S
O239 Li179 1.956 . S
O239 C214 1.325 . S
H240 C182 0.929 . S
H241 C183 0.930 . S
H242 C184 0.930 . S
H243 C185 0.939 . S
H244 C187 0.930 . S
H245 C189 0.929 . S
H246 C190 0.930 . S
H247 C191 0.930 . S
H248 C194 0.930 . S
H249 C197 0.929 . S
H250 C202 0.929 . S
H251 C203 0.930 . S
H252 C210 0.929 1_565 S
H253 C211 0.930 . S
H254 C212 0.930 . S
H255 C213 0.930 . S
H256 C215 0.929 . S
H257 C216 0.930 . S
H258 C217 0.930 . S
H259 C218 0.930 . S
H260 C222 0.929 . S
H261 C224 0.930 . S
H262 C230 0.929 . S
H263 C231 0.930 . S
Li264 N281 1.990 . S
Li264 O324 1.956 . S
Li264 O325 1.970 . S
Li264 O326 1.961 . S
Li265 N289 1.990 . S
Li265 O324 1.970 . S
Li265 O325 1.956 . S
Li265 O327 1.961 . S
Li266 N311 1.990 . S
Li266 O324 1.961 . S
Li266 O326 1.956 . S
Li266 O327 1.970 . S
Li267 N317 1.990 . S
Li267 O325 1.961 . S
Li267 O326 1.970 . S
Li267 O327 1.956 . S
C268 C270 1.348 . S
C268 C271 1.356 . S
C268 O324 1.325 . S
N269 C272 1.314 . S
N269 C273 1.279 . S
C270 C268 1.348 . S
C270 C272 1.353 . S
C270 H328 0.929 . S
C271 C268 1.356 . S
C271 C273 1.358 . S
C271 H329 0.930 . S
C272 N269 1.314 . S
C272 C270 1.353 . S
C272 H330 0.930 . S
C273 N269 1.279 . S
C273 C271 1.358 . S
C273 H331 0.930 . S
C274 C277 1.348 . S
C274 C278 1.356 . S
C274 O325 1.325 . S
C275 N276 1.279 . S
C275 C278 1.358 . S
C275 H332 0.930 . S
N276 C275 1.279 . S
N276 C279 1.314 . S
C277 C274 1.348 . S
C277 C279 1.353 . S
C277 H333 0.929 . S
C278 C274 1.356 . S
C278 C275 1.358 . S
C278 H334 0.930 . S
C279 N276 1.314 . S
C279 C277 1.353 . S
C279 H335 0.930 . S
C280 N281 1.314 . S
C280 C285 1.353 . S
C280 H286 0.930 . S
N281 Li264 1.990 . S
N281 C280 1.314 . S
N281 C283 1.279 . S
C282 C283 1.358 . S
C282 C284 1.356 . S
C282 H336 0.930 . S
C283 N281 1.279 . S
C283 C282 1.358 . S
C283 H287 0.930 . S
C284 C282 1.356 . S
C284 C285 1.348 . S
C285 C280 1.353 . S
C285 C284 1.348 . S
C285 H337 0.929 . S
H286 C280 0.930 . S
H287 C283 0.930 . S
C288 N289 1.314 . S
C288 C290 1.353 . S
C288 H294 0.930 . S
N289 Li265 1.990 . S
N289 C288 1.314 . S
N289 C292 1.279 . S
C290 C288 1.353 . S
C290 C293 1.348 . S
C290 H338 0.929 . S
C291 C292 1.358 . S
C291 C293 1.356 . S
C291 H339 0.930 . S
C292 N289 1.279 . S
C292 C291 1.358 . S
C292 H295 0.930 . S
C293 C290 1.348 . S
C293 C291 1.356 . S
H294 C288 0.930 . S
H295 C292 0.930 . S
C296 C298 1.348 . S
C296 C299 1.356 . S
C296 O326 1.325 . S
N297 C300 1.314 . S
N297 C301 1.279 . S
C298 C296 1.348 . S
C298 C300 1.353 . S
C298 H340 0.929 . S
C299 C296 1.356 . S
C299 C301 1.358 . S
C299 H341 0.930 . S
C300 N297 1.314 . S
C300 C298 1.353 . S
C300 H342 0.930 . S
C301 N297 1.279 . S
C301 C299 1.358 . S
C301 H343 0.930 . S
C302 C303 1.348 . S
C302 C304 1.356 . S
C302 O327 1.325 . S
C303 C302 1.348 . S
C303 C305 1.353 . S
C303 H344 0.929 . S
C304 C302 1.356 . S
C304 C306 1.358 . S
C304 H345 0.930 . S
C305 C303 1.353 . S
C305 N307 1.314 . S
C305 H346 0.930 . S
C306 C304 1.358 . S
C306 N307 1.279 . S
C306 H347 0.930 . S
N307 C305 1.314 . S
N307 C306 1.279 . S
C308 C310 1.353 . S
C308 N311 1.314 . S
C308 H314 0.930 . S
C309 N311 1.279 . S
C309 C312 1.358 . S
C309 H315 0.930 . S
C310 C308 1.353 . S
C310 C313 1.348 . S
C310 H348 0.929 . S
N311 Li266 1.990 . S
N311 C308 1.314 . S
N311 C309 1.279 . S
C312 C309 1.358 . S
C312 C313 1.356 . S
C312 H349 0.930 . S
C313 C310 1.348 . S
C313 C312 1.356 . S
H314 C308 0.930 . S
H315 C309 0.930 . S
C316 N317 1.314 . S
C316 C318 1.353 . S
C316 H322 0.930 . S
N317 Li267 1.990 . S
N317 C316 1.314 . S
N317 C320 1.279 . S
C318 C316 1.353 . S
C318 C321 1.348 . S
C318 H350 0.929 . S
C319 C320 1.358 . S
C319 C321 1.356 . S
C319 H351 0.930 . S
C320 N317 1.279 . S
C320 C319 1.358 . S
C320 H323 0.930 . S
C321 C318 1.348 . S
C321 C319 1.356 . S
H322 C316 0.930 . S
H323 C320 0.930 . S
O324 Li264 1.956 . S
O324 Li265 1.970 . S
O324 Li266 1.961 . S
O324 C268 1.325 . S
O325 Li264 1.970 . S
O325 Li265 1.956 . S
O325 Li267 1.961 . S
O325 C274 1.325 . S
O326 Li264 1.961 . S
O326 Li266 1.956 . S
O326 Li267 1.970 . S
O326 C296 1.325 . S
O327 Li265 1.961 . S
O327 Li266 1.970 . S
O327 Li267 1.956 . S
O327 C302 1.325 . S
H328 C270 0.929 . S
H329 C271 0.930 . S
H330 C272 0.930 . S
H331 C273 0.930 . S
H332 C275 0.930 . S
H333 C277 0.929 . S
H334 C278 0.930 . S
H335 C279 0.930 . S
H336 C282 0.930 . S
H337 C285 0.929 . S
H338 C290 0.929 . S
H339 C291 0.930 . S
H340 C298 0.929 . S
H341 C299 0.930 . S
H342 C300 0.930 . S
H343 C301 0.930 . S
H344 C303 0.929 . S
H345 C304 0.930 . S
H346 C305 0.930 . S
H347 C306 0.930 . S
H348 C310 0.929 . S
H349 C312 0.930 . S
H350 C318 0.929 . S
H351 C319 0.930 . S
Li352 N369 1.990 . S
Li352 O412 1.956 . S
Li352 O413 1.970 . S
Li352 O414 1.961 . S
Li353 N377 1.990 . S
Li353 O412 1.970 . S
Li353 O413 1.956 . S
Li353 O415 1.961 . S
Li354 N399 1.990 . S
Li354 O412 1.961 . S
Li354 O414 1.956 . S
Li354 O415 1.970 . S
Li355 N405 1.990 1_455 S
Li355 O413 1.961 . S
Li355 O414 1.970 . S
Li355 O415 1.956 . S
C356 C358 1.348 . S
C356 C359 1.356 . S
C356 O412 1.325 . S
N357 C360 1.314 . S
N357 C361 1.279 . S
C358 C356 1.348 . S
C358 C360 1.353 . S
C358 H416 0.929 . S
C359 C356 1.356 . S
C359 C361 1.358 . S
C359 H417 0.930 . S
C360 N357 1.314 . S
C360 C358 1.353 . S
C360 H418 0.930 . S
C361 N357 1.279 . S
C361 C359 1.358 . S
C361 H419 0.930 . S
C362 C365 1.348 . S
C362 C366 1.356 . S
C362 O413 1.325 . S
C363 N364 1.279 . S
C363 C366 1.358 . S
C363 H420 0.943 . S
N364 C363 1.279 . S
N364 C367 1.314 . S
C365 C362 1.348 . S
C365 C367 1.353 . S
C365 H421 0.929 . S
C366 C362 1.356 . S
C366 C363 1.358 . S
C366 H422 0.930 . S
C367 N364 1.314 . S
C367 C365 1.353 . S
C367 H423 0.930 . S
C368 N369 1.314 . S
C368 C373 1.353 . S
C368 H374 0.930 . S
N369 Li352 1.990 . S
N369 C368 1.314 . S
N369 C371 1.279 . S
C370 C371 1.358 . S
C370 C372 1.356 . S
C370 H424 0.930 . S
C371 N369 1.279 . S
C371 C370 1.358 . S
C371 H375 0.930 . S
C372 C370 1.356 . S
C372 C373 1.348 . S
C373 C368 1.353 . S
C373 C372 1.348 . S
C373 H425 0.929 . S
H374 C368 0.930 . S
H375 C371 0.930 . S
C376 N377 1.314 . S
C376 C378 1.353 . S
C376 H382 0.930 . S
N377 Li353 1.990 . S
N377 C376 1.314 . S
N377 C380 1.279 . S
C378 C376 1.353 . S
C378 C381 1.348 . S
C378 H426 0.929 . S
C379 C380 1.358 . S
C379 C381 1.356 . S
C379 H427 0.930 . S
C380 N377 1.279 . S
C380 C379 1.358 . S
C380 H383 0.930 . S
C381 C378 1.348 . S
C381 C379 1.356 . S
H382 C376 0.930 . S
H383 C380 0.930 . S
C384 C386 1.348 . S
C384 C387 1.356 . S
C384 O414 1.325 . S
N385 C388 1.314 . S
N385 C389 1.279 . S
C386 C384 1.348 . S
C386 C388 1.353 . S
C386 H428 0.929 . S
C387 C384 1.356 . S
C387 C389 1.358 . S
C387 H429 0.930 . S
C388 N385 1.314 . S
C388 C386 1.353 . S
C388 H430 0.930 . S
C389 N385 1.279 . S
C389 C387 1.358 . S
C389 H431 0.930 . S
C390 C391 1.349 1_455 S
C390 C392 1.351 1_455 S
C390 O415 1.328 . S
C391 C390 1.349 1_655 S
C391 C393 1.353 . S
C391 H432 0.929 1_655 S
C392 C390 1.351 1_655 S
C392 C394 1.358 . S
C392 H433 0.930 . S
C393 C391 1.353 . S
C393 N395 1.314 . S
C393 H434 0.930 . S
C394 C392 1.358 . S
C394 N395 1.279 . S
C394 H435 0.930 . S
N395 C393 1.314 . S
N395 C394 1.279 . S
C396 C398 1.353 . S
C396 N399 1.314 . S
C396 H402 0.930 . S
C397 N399 1.279 . S
C397 C400 1.358 . S
C397 H403 0.930 . S
C398 C396 1.353 . S
C398 C401 1.348 . S
C398 H436 0.929 . S
N399 Li354 1.990 . S
N399 C396 1.314 . S
N399 C397 1.279 . S
C400 C397 1.358 . S
C400 C401 1.356 . S
C400 H437 0.930 . S
C401 C398 1.348 . S
C401 C400 1.356 . S
H402 C396 0.930 . S
H403 C397 0.930 . S
C404 N405 1.314 . S
C404 C406 1.353 . S
C404 H410 0.930 1_655 S
N405 Li355 1.990 1_655 S
N405 C404 1.314 . S
N405 C408 1.279 . S
C406 C404 1.353 . S
C406 C409 1.348 . S
C406 H438 0.929 . S
C407 C408 1.358 . S
C407 C409 1.356 . S
C407 H439 0.930 . S
C408 N405 1.279 . S
C408 C407 1.358 . S
C408 H411 0.930 . S
C409 C406 1.348 . S
C409 C407 1.356 . S
H410 C404 0.930 1_455 S
H411 C408 0.930 . S
O412 Li352 1.956 . S
O412 Li353 1.970 . S
O412 Li354 1.961 . S
O412 C356 1.325 . S
O413 Li352 1.970 . S
O413 Li353 1.956 . S
O413 Li355 1.961 . S
O413 C362 1.325 . S
O414 Li352 1.961 . S
O414 Li354 1.956 . S
O414 Li355 1.970 . S
O414 C384 1.325 . S
O415 Li353 1.961 . S
O415 Li354 1.970 . S
O415 Li355 1.956 . S
O415 C390 1.328 . S
H416 C358 0.929 . S
H417 C359 0.930 . S
H418 C360 0.930 . S
H419 C361 0.930 . S
H420 C363 0.943 . S
H421 C365 0.929 . S
H422 C366 0.930 . S
H423 C367 0.930 . S
H424 C370 0.930 . S
H425 C373 0.929 . S
H426 C378 0.929 . S
H427 C379 0.930 . S
H428 C386 0.929 . S
H429 C387 0.930 . S
H430 C388 0.930 . S
H431 C389 0.930 . S
H432 C391 0.929 1_455 S
H433 C392 0.930 . S
H434 C393 0.930 . S
H435 C394 0.930 . S
H436 C398 0.929 . S
H437 C400 0.930 . S
H438 C406 0.929 . S
H439 C407 0.930 . S
Li440 N457 1.990 . S
Li440 O500 1.956 . S
Li440 O501 1.970 . S
Li440 O502 1.961 . S
Li441 N465 1.990 . S
Li441 O500 1.970 . S
Li441 O501 1.956 . S
Li441 O503 1.961 . S
Li442 N487 1.990 1_545 S
Li442 O500 1.961 . S
Li442 O502 1.956 . S
Li442 O503 1.970 . S
Li443 N493 1.990 . S
Li443 O501 1.961 . S
Li443 O502 1.970 . S
Li443 O503 1.956 . S
C444 C446 1.348 . S
C444 C447 1.356 . S
C444 O500 1.325 . S
N445 C448 1.314 . S
N445 C449 1.279 . S
C446 C444 1.348 . S
C446 C448 1.353 . S
C446 H504 0.929 . S
C447 C444 1.356 . S
C447 C449 1.358 . S
C447 H505 0.930 . S
C448 N445 1.314 . S
C448 C446 1.353 . S
C448 H506 0.930 . S
C449 N445 1.279 . S
C449 C447 1.358 . S
C449 H507 0.939 . S
C450 C453 1.348 . S
C450 C454 1.356 . S
C450 O501 1.325 . S
C451 N452 1.279 . S
C451 C454 1.358 . S
C451 H508 0.930 . S
N452 C451 1.279 . S
N452 C455 1.314 . S
C453 C450 1.348 . S
C453 C455 1.353 . S
C453 H509 0.929 . S
C454 C450 1.356 . S
C454 C451 1.358 . S
C454 H510 0.930 . S
C455 N452 1.314 . S
C455 C453 1.353 . S
C455 H511 0.930 . S
C456 N457 1.314 . S
C456 C461 1.353 . S
C456 H462 0.930 . S
N457 Li440 1.990 . S
N457 C456 1.314 . S
N457 C459 1.279 . S
C458 C459 1.358 . S
C458 C460 1.356 . S
C458 H512 0.930 . S
C459 N457 1.279 . S
C459 C458 1.358 . S
C459 H463 0.930 . S
C460 C458 1.356 . S
C460 C461 1.348 . S
C461 C456 1.353 . S
C461 C460 1.348 . S
C461 H513 0.929 . S
H462 C456 0.930 . S
H463 C459 0.930 . S
C464 N465 1.314 . S
C464 C466 1.353 . S
C464 H470 0.930 . S
N465 Li441 1.990 . S
N465 C464 1.314 . S
N465 C468 1.279 . S
C466 C464 1.353 . S
C466 C469 1.348 . S
C466 H514 0.929 . S
C467 C468 1.358 . S
C467 C469 1.356 . S
C467 H515 0.930 . S
C468 N465 1.279 . S
C468 C467 1.358 . S
C468 H471 0.930 . S
C469 C466 1.348 . S
C469 C467 1.356 . S
H470 C464 0.930 . S
H471 C468 0.930 . S
C472 C474 1.343 1_545 S
C472 C475 1.353 1_545 S
C472 O502 1.332 . S
N473 C476 1.314 . S
N473 C477 1.279 . S
C474 C472 1.343 1_565 S
C474 C476 1.353 . S
C474 H516 0.929 1_565 S
C475 C472 1.353 1_565 S
C475 C477 1.358 . S
C475 H517 0.930 . S
C476 N473 1.314 . S
C476 C474 1.353 . S
C476 H518 0.930 . S
C477 N473 1.279 . S
C477 C475 1.358 . S
C477 H519 0.930 . S
C478 C479 1.348 . S
C478 C480 1.356 . S
C478 O503 1.325 . S
C479 C478 1.348 . S
C479 C481 1.353 . S
C479 H520 0.929 . S
C480 C478 1.356 . S
C480 C482 1.358 . S
C480 H521 0.930 . S
C481 C479 1.353 . S
C481 N483 1.314 . S
C481 H522 0.930 . S
C482 C480 1.358 . S
C482 N483 1.279 . S
C482 H523 0.930 . S
N483 C481 1.314 . S
N483 C482 1.279 . S
C484 C486 1.353 . S
C484 N487 1.314 . S
C484 H490 0.930 1_565 S
C485 N487 1.279 . S
C485 C488 1.358 . S
C485 H491 0.930 . S
C486 C484 1.353 . S
C486 C489 1.348 . S
C486 H524 0.929 . S
N487 Li442 1.990 1_565 S
N487 C484 1.314 . S
N487 C485 1.279 . S
C488 C485 1.358 . S
C488 C489 1.356 . S
C488 H525 0.930 . S
C489 C486 1.348 . S
C489 C488 1.356 . S
H490 C484 0.930 1_545 S
H491 C485 0.930 . S
C492 N493 1.314 . S
C492 C494 1.353 . S
C492 H498 0.930 . S
N493 Li443 1.990 . S
N493 C492 1.314 . S
N493 C496 1.279 . S
C494 C492 1.353 . S
C494 C497 1.348 . S
C494 H526 0.929 . S
C495 C496 1.358 . S
C495 C497 1.356 . S
C495 H527 0.930 . S
C496 N493 1.279 . S
C496 C495 1.358 . S
C496 H499 0.930 . S
C497 C494 1.348 . S
C497 C495 1.356 . S
H498 C492 0.930 . S
H499 C496 0.930 . S
O500 Li440 1.956 . S
O500 Li441 1.970 . S
O500 Li442 1.961 . S
O500 C444 1.325 . S
O501 Li440 1.970 . S
O501 Li441 1.956 . S
O501 Li443 1.961 . S
O501 C450 1.325 . S
O502 Li440 1.961 . S
O502 Li442 1.956 . S
O502 Li443 1.970 . S
O502 C472 1.332 . S
O503 Li441 1.961 . S
O503 Li442 1.970 . S
O503 Li443 1.956 . S
O503 C478 1.325 . S
H504 C446 0.929 . S
H505 C447 0.930 . S
H506 C448 0.930 . S
H507 C449 0.939 . S
H508 C451 0.930 . S
H509 C453 0.929 . S
H510 C454 0.930 . S
H511 C455 0.930 . S
H512 C458 0.930 . S
H513 C461 0.929 . S
H514 C466 0.929 . S
H515 C467 0.930 . S
H516 C474 0.929 1_545 S
H517 C475 0.930 . S
H518 C476 0.930 . S
H519 C477 0.930 . S
H520 C479 0.929 . S
H521 C480 0.930 . S
H522 C481 0.930 . S
H523 C482 0.930 . S
H524 C486 0.929 . S
H525 C488 0.930 . S
H526 C494 0.929 . S
H527 C495 0.930 . S
Li528 N545 1.990 . S
Li528 O588 1.956 . S
Li528 O589 1.970 . S
Li528 O590 1.961 . S
Li529 N553 1.990 . S
Li529 O588 1.970 . S
Li529 O589 1.956 . S
Li529 O591 1.961 . S
Li530 N575 1.990 . S
Li530 O588 1.961 . S
Li530 O590 1.956 . S
Li530 O591 1.970 . S
Li531 N581 1.990 . S
Li531 O589 1.961 . S
Li531 O590 1.970 . S
Li531 O591 1.956 . S
C532 C534 1.348 . S
C532 C535 1.356 . S
C532 O588 1.325 . S
N533 C536 1.314 . S
N533 C537 1.279 . S
C534 C532 1.348 . S
C534 C536 1.353 . S
C534 H592 0.929 . S
C535 C532 1.356 . S
C535 C537 1.358 . S
C535 H593 0.930 . S
C536 N533 1.314 . S
C536 C534 1.353 . S
C536 H594 0.930 . S
C537 N533 1.279 . S
C537 C535 1.358 . S
C537 H595 0.930 . S
C538 C541 1.348 . S
C538 C542 1.356 . S
C538 O589 1.325 . S
C539 N540 1.279 . S
C539 C542 1.358 . S
C539 H596 0.930 . S
N540 C539 1.279 . S
N540 C543 1.314 . S
C541 C538 1.348 . S
C541 C543 1.353 . S
C541 H597 0.929 . S
C542 C538 1.356 . S
C542 C539 1.358 . S
C542 H598 0.930 . S
C543 N540 1.314 . S
C543 C541 1.353 . S
C543 H599 0.930 . S
C544 N545 1.314 . S
C544 C549 1.353 . S
C544 H550 0.930 . S
N545 Li528 1.990 . S
N545 C544 1.314 . S
N545 C547 1.279 . S
C546 C547 1.358 . S
C546 C548 1.356 . S
C546 H600 0.930 . S
C547 N545 1.279 . S
C547 C546 1.358 . S
C547 H551 0.930 . S
C548 C546 1.356 . S
C548 C549 1.348 . S
C549 C544 1.353 . S
C549 C548 1.348 . S
C549 H601 0.929 . S
H550 C544 0.930 . S
H551 C547 0.930 . S
C552 N553 1.314 . S
C552 C554 1.353 . S
C552 H558 0.930 . S
N553 Li529 1.990 . S
N553 C552 1.314 . S
N553 C556 1.279 . S
C554 C552 1.353 . S
C554 C557 1.348 . S
C554 H602 0.929 . S
C555 C556 1.358 . S
C555 C557 1.356 . S
C555 H603 0.930 . S
C556 N553 1.279 . S
C556 C555 1.358 . S
C556 H559 0.930 . S
C557 C554 1.348 . S
C557 C555 1.356 . S
H558 C552 0.930 . S
H559 C556 0.930 . S
C560 C562 1.348 . S
C560 C563 1.356 . S
C560 O590 1.325 . S
N561 C564 1.314 . S
N561 C565 1.279 . S
C562 C560 1.348 . S
C562 C564 1.353 . S
C562 H604 0.929 . S
C563 C560 1.356 . S
C563 C565 1.358 . S
C563 H605 0.930 . S
C564 N561 1.314 . S
C564 C562 1.353 . S
C564 H606 0.930 . S
C565 N561 1.279 . S
C565 C563 1.358 . S
C565 H607 0.930 . S
C566 C567 1.348 . S
C566 C568 1.356 . S
C566 O591 1.325 . S
C567 C566 1.348 . S
C567 C569 1.353 . S
C567 H608 0.929 . S
C568 C566 1.356 . S
C568 C570 1.358 . S
C568 H609 0.930 . S
C569 C567 1.353 . S
C569 N571 1.314 . S
C569 H610 0.930 . S
C570 C568 1.358 . S
C570 N571 1.279 . S
C570 H611 0.930 . S
N571 C569 1.314 . S
N571 C570 1.279 . S
C572 C574 1.353 . S
C572 N575 1.314 . S
C572 H578 0.930 . S
C573 N575 1.279 . S
C573 C576 1.358 . S
C573 H579 0.930 . S
C574 C572 1.353 . S
C574 C577 1.348 . S
C574 H612 0.929 . S
N575 Li530 1.990 . S
N575 C572 1.314 . S
N575 C573 1.279 . S
C576 C573 1.358 . S
C576 C577 1.356 . S
C576 H613 0.930 . S
C577 C574 1.348 . S
C577 C576 1.356 . S
H578 C572 0.930 . S
H579 C573 0.930 . S
C580 N581 1.314 . S
C580 C582 1.353 . S
C580 H586 0.930 . S
N581 Li531 1.990 . S
N581 C580 1.314 . S
N581 C584 1.279 . S
C582 C580 1.353 . S
C582 C585 1.348 . S
C582 H614 0.929 . S
C583 C584 1.358 . S
C583 C585 1.356 . S
C583 H615 0.930 . S
C584 N581 1.279 . S
C584 C583 1.358 . S
C584 H587 0.930 . S
C585 C582 1.348 . S
C585 C583 1.356 . S
H586 C580 0.930 . S
H587 C584 0.930 . S
O588 Li528 1.956 . S
O588 Li529 1.970 . S
O588 Li530 1.961 . S
O588 C532 1.325 . S
O589 Li528 1.970 . S
O589 Li529 1.956 . S
O589 Li531 1.961 . S
O589 C538 1.325 . S
O590 Li528 1.961 . S
O590 Li530 1.956 . S
O590 Li531 1.970 . S
O590 C560 1.325 . S
O591 Li529 1.961 . S
O591 Li530 1.970 . S
O591 Li531 1.956 . S
O591 C566 1.325 . S
H592 C534 0.929 . S
H593 C535 0.930 . S
H594 C536 0.930 . S
H595 C537 0.930 . S
H596 C539 0.930 . S
H597 C541 0.929 . S
H598 C542 0.930 . S
H599 C543 0.930 . S
H600 C546 0.930 . S
H601 C549 0.929 . S
H602 C554 0.929 . S
H603 C555 0.930 . S
H604 C562 0.929 . S
H605 C563 0.930 . S
H606 C564 0.930 . S
H607 C565 0.930 . S
H608 C567 0.929 . S
H609 C568 0.930 . S
H610 C569 0.930 . S
H611 C570 0.930 . S
H612 C574 0.929 . S
H613 C576 0.930 . S
H614 C582 0.929 . S
H615 C583 0.930 . S
Li616 N633 1.990 1_655 S
Li616 O676 1.956 . S
Li616 O677 1.970 . S
Li616 O678 1.961 . S
Li617 N641 1.990 . S
Li617 O676 1.970 . S
Li617 O677 1.956 . S
Li617 O679 1.961 . S
Li618 N663 1.990 . S
Li618 O676 1.961 . S
Li618 O678 1.956 . S
Li618 O679 1.970 . S
Li619 N669 1.990 . S
Li619 O677 1.961 . S
Li619 O678 1.970 . S
Li619 O679 1.956 . S
C620 C622 1.343 1_655 S
C620 C623 1.353 1_655 S
C620 O676 1.332 . S
N621 C624 1.314 . S
N621 C625 1.279 . S
C622 C620 1.343 1_455 S
C622 C624 1.353 . S
C622 H680 0.929 1_455 S
C623 C620 1.353 1_455 S
C623 C625 1.358 . S
C623 H681 0.930 . S
C624 N621 1.314 . S
C624 C622 1.353 . S
C624 H682 0.930 . S
C625 N621 1.279 . S
C625 C623 1.358 . S
C625 H683 0.930 . S
C626 C629 1.348 . S
C626 C630 1.356 . S
C626 O677 1.325 . S
C627 N628 1.279 . S
C627 C630 1.358 . S
C627 H684 0.930 . S
N628 C627 1.279 . S
N628 C631 1.314 . S
C629 C626 1.348 . S
C629 C631 1.353 . S
C629 H685 0.929 . S
C630 C626 1.356 . S
C630 C627 1.358 . S
C630 H686 0.930 . S
C631 N628 1.314 . S
C631 C629 1.353 . S
C631 H687 0.930 . S
C632 N633 1.314 . S
C632 C637 1.353 . S
C632 H638 0.930 1_455 S
N633 Li616 1.990 1_455 S
N633 C632 1.314 . S
N633 C635 1.279 . S
C634 C635 1.358 . S
C634 C636 1.356 . S
C634 H688 0.930 . S
C635 N633 1.279 . S
C635 C634 1.358 . S
C635 H639 0.930 . S
C636 C634 1.356 . S
C636 C637 1.348 . S
C637 C632 1.353 . S
C637 C636 1.348 . S
C637 H689 0.929 . S
H638 C632 0.930 1_655 S
H639 C635 0.930 . S
C640 N641 1.314 . S
C640 C642 1.353 . S
C640 H646 0.930 . S
N641 Li617 1.990 . S
N641 C640 1.314 . S
N641 C644 1.279 . S
C642 C640 1.353 . S
C642 C645 1.348 . S
C642 H690 0.929 . S
C643 C644 1.358 . S
C643 C645 1.356 . S
C643 H691 0.930 . S
C644 N641 1.279 . S
C644 C643 1.358 . S
C644 H647 0.930 . S
C645 C642 1.348 . S
C645 C643 1.356 . S
H646 C640 0.930 . S
H647 C644 0.930 . S
C648 C650 1.348 . S
C648 C651 1.356 . S
C648 O678 1.325 . S
N649 C652 1.314 . S
N649 C653 1.279 . S
C650 C648 1.348 . S
C650 C652 1.353 . S
C650 H692 0.929 . S
C651 C648 1.356 . S
C651 C653 1.358 . S
C651 H693 0.930 . S
C652 N649 1.314 . S
C652 C650 1.353 . S
C652 H694 0.930 . S
C653 N649 1.279 . S
C653 C651 1.358 . S
C653 H695 0.939 . S
C654 C655 1.348 . S
C654 C656 1.356 . S
C654 O679 1.325 . S
C655 C654 1.348 . S
C655 C657 1.353 . S
C655 H696 0.929 . S
C656 C654 1.356 . S
C656 C658 1.358 . S
C656 H697 0.930 . S
C657 C655 1.353 . S
C657 N659 1.314 . S
C657 H698 0.930 . S
C658 C656 1.358 . S
C658 N659 1.279 . S
C658 H699 0.930 . S
N659 C657 1.314 . S
N659 C658 1.279 . S
C660 C662 1.353 . S
C660 N663 1.314 . S
C660 H666 0.930 . S
C661 N663 1.279 . S
C661 C664 1.358 . S
C661 H667 0.930 . S
C662 C660 1.353 . S
C662 C665 1.348 . S
C662 H700 0.929 . S
N663 Li618 1.990 . S
N663 C660 1.314 . S
N663 C661 1.279 . S
C664 C661 1.358 . S
C664 C665 1.356 . S
C664 H701 0.930 . S
C665 C662 1.348 . S
C665 C664 1.356 . S
H666 C660 0.930 . S
H667 C661 0.930 . S
C668 N669 1.314 . S
C668 C670 1.353 . S
C668 H674 0.930 . S
N669 Li619 1.990 . S
N669 C668 1.314 . S
N669 C672 1.279 . S
C670 C668 1.353 . S
C670 C673 1.348 . S
C670 H702 0.929 . S
C671 C672 1.358 . S
C671 C673 1.356 . S
C671 H703 0.930 . S
C672 N669 1.279 . S
C672 C671 1.358 . S
C672 H675 0.930 . S
C673 C670 1.348 . S
C673 C671 1.356 . S
H674 C668 0.930 . S
H675 C672 0.930 . S
O676 Li616 1.956 . S
O676 Li617 1.970 . S
O676 Li618 1.961 . S
O676 C620 1.332 . S
O677 Li616 1.970 . S
O677 Li617 1.956 . S
O677 Li619 1.961 . S
O677 C626 1.325 . S
O678 Li616 1.961 . S
O678 Li618 1.956 . S
O678 Li619 1.970 . S
O678 C648 1.325 . S
O679 Li617 1.961 . S
O679 Li618 1.970 . S
O679 Li619 1.956 . S
O679 C654 1.325 . S
H680 C622 0.929 1_655 S
H681 C623 0.930 . S
H682 C624 0.930 . S
H683 C625 0.930 . S
H684 C627 0.930 . S
H685 C629 0.929 . S
H686 C630 0.930 . S
H687 C631 0.930 . S
H688 C634 0.930 . S
H689 C637 0.929 . S
H690 C642 0.929 . S
H691 C643 0.930 . S
H692 C650 0.929 . S
H693 C651 0.930 . S
H694 C652 0.930 . S
H695 C653 0.939 . S
H696 C655 0.929 . S
H697 C656 0.930 . S
H698 C657 0.930 . S
H699 C658 0.930 . S
H700 C662 0.929 . S
H701 C664 0.930 . S
H702 C670 0.929 . S
H703 C671 0.930 . S
Li704 N721 1.990 1_565 S
Li704 O764 1.956 . S
Li704 O765 1.970 . S
Li704 O766 1.961 . S
Li705 N729 1.990 . S
Li705 O764 1.970 . S
Li705 O765 1.956 . S
Li705 O767 1.961 . S
Li706 N751 1.990 . S
Li706 O764 1.961 . S
Li706 O766 1.956 . S
Li706 O767 1.970 . S
Li707 N757 1.990 . S
Li707 O765 1.961 . S
Li707 O766 1.970 . S
Li707 O767 1.956 . S
C708 C710 1.349 1_565 S
C708 C711 1.351 1_565 S
C708 O764 1.328 . S
N709 C712 1.314 . S
N709 C713 1.279 . S
C710 C708 1.349 1_545 S
C710 C712 1.353 . S
C710 H768 0.929 1_545 S
C711 C708 1.351 1_545 S
C711 C713 1.358 . S
C711 H769 0.930 . S
C712 N709 1.314 . S
C712 C710 1.353 . S
C712 H770 0.930 . S
C713 N709 1.279 . S
C713 C711 1.358 . S
C713 H771 0.930 . S
C714 C717 1.348 . S
C714 C718 1.356 . S
C714 O765 1.325 . S
C715 N716 1.279 . S
C715 C718 1.358 . S
C715 H772 0.930 . S
N716 C715 1.279 . S
N716 C719 1.314 . S
C717 C714 1.348 . S
C717 C719 1.353 . S
C717 H773 0.929 . S
C718 C714 1.356 . S
C718 C715 1.358 . S
C718 H774 0.930 . S
C719 N716 1.314 . S
C719 C717 1.353 . S
C719 H775 0.930 . S
C720 N721 1.314 . S
C720 C725 1.353 . S
C720 H726 0.930 1_545 S
N721 Li704 1.990 1_545 S
N721 C720 1.314 . S
N721 C723 1.279 . S
C722 C723 1.358 . S
C722 C724 1.356 . S
C722 H776 0.930 . S
C723 N721 1.279 . S
C723 C722 1.358 . S
C723 H727 0.930 . S
C724 C722 1.356 . S
C724 C725 1.348 . S
C725 C720 1.353 . S
C725 C724 1.348 . S
C725 H777 0.929 . S
H726 C720 0.930 1_565 S
H727 C723 0.930 . S
C728 N729 1.314 . S
C728 C730 1.353 . S
C728 H734 0.930 . S
N729 Li705 1.990 . S
N729 C728 1.314 . S
N729 C732 1.279 . S
C730 C728 1.353 . S
C730 C733 1.348 . S
C730 H778 0.929 . S
C731 C732 1.358 . S
C731 C733 1.356 . S
C731 H779 0.930 . S
C732 N729 1.279 . S
C732 C731 1.358 . S
C732 H735 0.930 . S
C733 C730 1.348 . S
C733 C731 1.356 . S
H734 C728 0.930 . S
H735 C732 0.930 . S
C736 C738 1.348 . S
C736 C739 1.356 . S
C736 O766 1.325 . S
N737 C740 1.314 . S
N737 C741 1.279 . S
C738 C736 1.348 . S
C738 C740 1.353 . S
C738 H780 0.929 . S
C739 C736 1.356 . S
C739 C741 1.358 . S
C739 H781 0.930 . S
C740 N737 1.314 . S
C740 C738 1.353 . S
C740 H782 0.930 . S
C741 N737 1.279 . S
C741 C739 1.358 . S
C741 H783 0.943 . S
C742 C743 1.348 . S
C742 C744 1.356 . S
C742 O767 1.325 . S
C743 C742 1.348 . S
C743 C745 1.353 . S
C743 H784 0.929 . S
C744 C742 1.356 . S
C744 C746 1.358 . S
C744 H785 0.930 . S
C745 C743 1.353 . S
C745 N747 1.314 . S
C745 H786 0.930 . S
C746 C744 1.358 . S
C746 N747 1.279 . S
C746 H787 0.930 . S
N747 C745 1.314 . S
N747 C746 1.279 . S
C748 C750 1.353 . S
C748 N751 1.314 . S
C748 H754 0.930 . S
C749 N751 1.279 . S
C749 C752 1.358 . S
C749 H755 0.930 . S
C750 C748 1.353 . S
C750 C753 1.348 . S
C750 H788 0.929 . S
N751 Li706 1.990 . S
N751 C748 1.314 . S
N751 C749 1.279 . S
C752 C749 1.358 . S
C752 C753 1.356 . S
C752 H789 0.930 . S
C753 C750 1.348 . S
C753 C752 1.356 . S
H754 C748 0.930 . S
H755 C749 0.930 . S
C756 N757 1.314 . S
C756 C758 1.353 . S
C756 H762 0.930 . S
N757 Li707 1.990 . S
N757 C756 1.314 . S
N757 C760 1.279 . S
C758 C756 1.353 . S
C758 C761 1.348 . S
C758 H790 0.929 . S
C759 C760 1.358 . S
C759 C761 1.356 . S
C759 H791 0.930 . S
C760 N757 1.279 . S
C760 C759 1.358 . S
C760 H763 0.930 . S
C761 C758 1.348 . S
C761 C759 1.356 . S
H762 C756 0.930 . S
H763 C760 0.930 . S
O764 Li704 1.956 . S
O764 Li705 1.970 . S
O764 Li706 1.961 . S
O764 C708 1.328 . S
O765 Li704 1.970 . S
O765 Li705 1.956 . S
O765 Li707 1.961 . S
O765 C714 1.325 . S
O766 Li704 1.961 . S
O766 Li706 1.956 . S
O766 Li707 1.970 . S
O766 C736 1.325 . S
O767 Li705 1.961 . S
O767 Li706 1.970 . S
O767 Li707 1.956 . S
O767 C742 1.325 . S
H768 C710 0.929 1_565 S
H769 C711 0.930 . S
H770 C712 0.930 . S
H771 C713 0.930 . S
H772 C715 0.930 . S
H773 C717 0.929 . S
H774 C718 0.930 . S
H775 C719 0.930 . S
H776 C722 0.930 . S
H777 C725 0.929 . S
H778 C730 0.929 . S
H779 C731 0.930 . S
H780 C738 0.929 . S
H781 C739 0.930 . S
H782 C740 0.930 . S
H783 C741 0.943 . S
H784 C743 0.929 . S
H785 C744 0.930 . S
H786 C745 0.930 . S
H787 C746 0.930 . S
H788 C750 0.929 . S
H789 C752 0.930 . S
H790 C758 0.929 . S
H791 C759 0.930 . S
Li792 N809 1.990 . S
Li792 O852 1.956 . S
Li792 O853 1.970 . S
Li792 O854 1.961 . S
Li793 N817 1.990 . S
Li793 O852 1.970 . S
Li793 O853 1.956 . S
Li793 O855 1.961 . S
Li794 N839 1.990 . S
Li794 O852 1.961 . S
Li794 O854 1.956 . S
Li794 O855 1.970 . S
Li795 N845 1.990 . S
Li795 O853 1.961 . S
Li795 O854 1.970 . S
Li795 O855 1.956 . S
C796 C798 1.348 . S
C796 C799 1.356 . S
C796 O852 1.325 . S
N797 C800 1.314 . S
N797 C801 1.279 . S
C798 C796 1.348 . S
C798 C800 1.353 . S
C798 H856 0.929 . S
C799 C796 1.356 . S
C799 C801 1.358 . S
C799 H857 0.930 . S
C800 N797 1.314 . S
C800 C798 1.353 . S
C800 H858 0.930 . S
C801 N797 1.279 . S
C801 C799 1.358 . S
C801 H859 0.930 . S
C802 C805 1.348 . S
C802 C806 1.356 . S
C802 O853 1.325 . S
C803 N804 1.279 . S
C803 C806 1.358 . S
C803 H860 0.930 . S
N804 C803 1.279 . S
N804 C807 1.314 . S
C805 C802 1.348 . S
C805 C807 1.353 . S
C805 H861 0.929 . S
C806 C802 1.356 . S
C806 C803 1.358 . S
C806 H862 0.930 . S
C807 N804 1.314 . S
C807 C805 1.353 . S
C807 H863 0.930 . S
C808 N809 1.314 . S
C808 C813 1.353 . S
C808 H814 0.930 . S
N809 Li792 1.990 . S
N809 C808 1.314 . S
N809 C811 1.279 . S
C810 C811 1.358 . S
C810 C812 1.356 . S
C810 H864 0.930 . S
C811 N809 1.279 . S
C811 C810 1.358 . S
C811 H815 0.930 . S
C812 C810 1.356 . S
C812 C813 1.348 . S
C813 C808 1.353 . S
C813 C812 1.348 . S
C813 H865 0.929 . S
H814 C808 0.930 . S
H815 C811 0.930 . S
C816 N817 1.314 . S
C816 C818 1.353 . S
C816 H822 0.930 . S
N817 Li793 1.990 . S
N817 C816 1.314 . S
N817 C820 1.279 . S
C818 C816 1.353 . S
C818 C821 1.348 . S
C818 H866 0.929 . S
C819 C820 1.358 . S
C819 C821 1.356 . S
C819 H867 0.930 . S
C820 N817 1.279 . S
C820 C819 1.358 . S
C820 H823 0.930 . S
C821 C818 1.348 . S
C821 C819 1.356 . S
H822 C816 0.930 . S
H823 C820 0.930 . S
C824 C826 1.348 . S
C824 C827 1.356 . S
C824 O854 1.325 . S
N825 C828 1.314 . S
N825 C829 1.279 . S
C826 C824 1.348 . S
C826 C828 1.353 . S
C826 H868 0.929 . S
C827 C824 1.356 . S
C827 C829 1.358 . S
C827 H869 0.930 . S
C828 N825 1.314 . S
C828 C826 1.353 . S
C828 H870 0.930 . S
C829 N825 1.279 . S
C829 C827 1.358 . S
C829 H871 0.930 . S
C830 C831 1.348 . S
C830 C832 1.356 . S
C830 O855 1.325 . S
C831 C830 1.348 . S
C831 C833 1.353 . S
C831 H872 0.929 . S
C832 C830 1.356 . S
C832 C834 1.358 . S
C832 H873 0.930 . S
C833 C831 1.353 . S
C833 N835 1.314 . S
C833 H874 0.930 . S
C834 C832 1.358 . S
C834 N835 1.279 . S
C834 H875 0.930 . S
N835 C833 1.314 . S
N835 C834 1.279 . S
C836 C838 1.353 . S
C836 N839 1.314 . S
C836 H842 0.930 . S
C837 N839 1.279 . S
C837 C840 1.358 . S
C837 H843 0.930 . S
C838 C836 1.353 . S
C838 C841 1.348 . S
C838 H876 0.929 . S
N839 Li794 1.990 . S
N839 C836 1.314 . S
N839 C837 1.279 . S
C840 C837 1.358 . S
C840 C841 1.356 . S
C840 H877 0.930 . S
C841 C838 1.348 . S
C841 C840 1.356 . S
H842 C836 0.930 . S
H843 C837 0.930 . S
C844 N845 1.314 . S
C844 C846 1.353 . S
C844 H850 0.930 . S
N845 Li795 1.990 . S
N845 C844 1.314 . S
N845 C848 1.279 . S
C846 C844 1.353 . S
C846 C849 1.348 . S
C846 H878 0.929 . S
C847 C848 1.358 . S
C847 C849 1.356 . S
C847 H879 0.930 . S
C848 N845 1.279 . S
C848 C847 1.358 . S
C848 H851 0.930 . S
C849 C846 1.348 . S
C849 C847 1.356 . S
H850 C844 0.930 . S
H851 C848 0.930 . S
O852 Li792 1.956 . S
O852 Li793 1.970 . S
O852 Li794 1.961 . S
O852 C796 1.325 . S
O853 Li792 1.970 . S
O853 Li793 1.956 . S
O853 Li795 1.961 . S
O853 C802 1.325 . S
O854 Li792 1.961 . S
O854 Li794 1.956 . S
O854 Li795 1.970 . S
O854 C824 1.325 . S
O855 Li793 1.961 . S
O855 Li794 1.970 . S
O855 Li795 1.956 . S
O855 C830 1.325 . S
H856 C798 0.929 . S
H857 C799 0.930 . S
H858 C800 0.930 . S
H859 C801 0.930 . S
H860 C803 0.930 . S
H861 C805 0.929 . S
H862 C806 0.930 . S
H863 C807 0.930 . S
H864 C810 0.930 . S
H865 C813 0.929 . S
H866 C818 0.929 . S
H867 C819 0.930 . S
H868 C826 0.929 . S
H869 C827 0.930 . S
H870 C828 0.930 . S
H871 C829 0.930 . S
H872 C831 0.929 . S
H873 C832 0.930 . S
H874 C833 0.930 . S
H875 C834 0.930 . S
H876 C838 0.929 . S
H877 C840 0.930 . S
H878 C846 0.929 . S
H879 C847 0.930 . S
Li880 N897 1.990 1_455 S
Li880 O940 1.956 . S
Li880 O941 1.970 . S
Li880 O942 1.961 . S
Li881 N905 1.990 . S
Li881 O940 1.970 . S
Li881 O941 1.956 . S
Li881 O943 1.961 . S
Li882 N927 1.990 . S
Li882 O940 1.961 . S
Li882 O942 1.956 . S
Li882 O943 1.970 . S
Li883 N933 1.990 . S
Li883 O941 1.961 . S
Li883 O942 1.970 . S
Li883 O943 1.956 . S
C884 C886 1.343 1_455 S
C884 C887 1.353 1_455 S
C884 O940 1.331 . S
N885 C888 1.314 . S
N885 C889 1.279 . S
C886 C884 1.343 1_655 S
C886 C888 1.353 . S
C886 H944 0.929 1_655 S
C887 C884 1.353 1_655 S
C887 C889 1.358 . S
C887 H945 0.930 . S
C888 N885 1.314 . S
C888 C886 1.353 . S
C888 H946 0.930 . S
C889 N885 1.279 . S
C889 C887 1.358 . S
C889 H947 0.930 . S
C890 C893 1.348 . S
C890 C894 1.356 . S
C890 O941 1.325 . S
C891 N892 1.279 . S
C891 C894 1.358 . S
C891 H948 0.930 . S
N892 C891 1.279 . S
N892 C895 1.314 . S
C893 C890 1.348 . S
C893 C895 1.353 . S
C893 H949 0.929 . S
C894 C890 1.356 . S
C894 C891 1.358 . S
C894 H950 0.930 . S
C895 N892 1.314 . S
C895 C893 1.353 . S
C895 H951 0.930 . S
C896 N897 1.314 . S
C896 C901 1.353 . S
C896 H902 0.930 1_655 S
N897 Li880 1.990 1_655 S
N897 C896 1.314 . S
N897 C899 1.279 . S
C898 C899 1.358 . S
C898 C900 1.356 . S
C898 H952 0.930 . S
C899 N897 1.279 . S
C899 C898 1.358 . S
C899 H903 0.930 . S
C900 C898 1.356 . S
C900 C901 1.348 . S
C901 C896 1.353 . S
C901 C900 1.348 . S
C901 H953 0.929 . S
H902 C896 0.930 1_455 S
H903 C899 0.930 . S
C904 N905 1.314 . S
C904 C906 1.353 . S
C904 H910 0.930 . S
N905 Li881 1.990 . S
N905 C904 1.314 . S
N905 C908 1.279 . S
C906 C904 1.353 . S
C906 C909 1.348 . S
C906 H954 0.929 . S
C907 C908 1.358 . S
C907 C909 1.356 . S
C907 H955 0.930 . S
C908 N905 1.279 . S
C908 C907 1.358 . S
C908 H911 0.930 . S
C909 C906 1.348 . S
C909 C907 1.356 . S
H910 C904 0.930 . S
H911 C908 0.930 . S
C912 C914 1.348 . S
C912 C915 1.356 . S
C912 O942 1.325 . S
N913 C916 1.314 . S
N913 C917 1.279 . S
C914 C912 1.348 . S
C914 C916 1.353 . S
C914 H956 0.929 . S
C915 C912 1.356 . S
C915 C917 1.358 . S
C915 H957 0.930 . S
C916 N913 1.314 . S
C916 C914 1.353 . S
C916 H958 0.930 . S
C917 N913 1.279 . S
C917 C915 1.358 . S
C917 H959 0.939 . S
C918 C919 1.348 . S
C918 C920 1.356 . S
C918 O943 1.325 . S
C919 C918 1.348 . S
C919 C921 1.353 . S
C919 H960 0.929 . S
C920 C918 1.356 . S
C920 C922 1.358 . S
C920 H961 0.930 . S
C921 C919 1.353 . S
C921 N923 1.314 . S
C921 H962 0.930 . S
C922 C920 1.358 . S
C922 N923 1.279 . S
C922 H963 0.930 . S
N923 C921 1.314 . S
N923 C922 1.279 . S
C924 C926 1.353 . S
C924 N927 1.314 . S
C924 H930 0.930 . S
C925 N927 1.279 . S
C925 C928 1.358 . S
C925 H931 0.930 . S
C926 C924 1.353 . S
C926 C929 1.348 . S
C926 H964 0.929 . S
N927 Li882 1.990 . S
N927 C924 1.314 . S
N927 C925 1.279 . S
C928 C925 1.358 . S
C928 C929 1.356 . S
C928 H965 0.930 . S
C929 C926 1.348 . S
C929 C928 1.356 . S
H930 C924 0.930 . S
H931 C925 0.930 . S
C932 N933 1.314 . S
C932 C934 1.353 . S
C932 H938 0.930 . S
N933 Li883 1.990 . S
N933 C932 1.314 . S
N933 C936 1.279 . S
C934 C932 1.353 . S
C934 C937 1.348 . S
C934 H966 0.929 . S
C935 C936 1.358 . S
C935 C937 1.356 . S
C935 H967 0.930 . S
C936 N933 1.279 . S
C936 C935 1.358 . S
C936 H939 0.930 . S
C937 C934 1.348 . S
C937 C935 1.356 . S
H938 C932 0.930 . S
H939 C936 0.930 . S
O940 Li880 1.956 . S
O940 Li881 1.970 . S
O940 Li882 1.961 . S
O940 C884 1.331 . S
O941 Li880 1.970 . S
O941 Li881 1.956 . S
O941 Li883 1.961 . S
O941 C890 1.325 . S
O942 Li880 1.961 . S
O942 Li882 1.956 . S
O942 Li883 1.970 . S
O942 C912 1.325 . S
O943 Li881 1.961 . S
O943 Li882 1.970 . S
O943 Li883 1.956 . S
O943 C918 1.325 . S
H944 C886 0.929 1_455 S
H945 C887 0.930 . S
H946 C888 0.930 . S
H947 C889 0.930 . S
H948 C891 0.930 . S
H949 C893 0.929 . S
H950 C894 0.930 . S
H951 C895 0.930 . S
H952 C898 0.930 . S
H953 C901 0.929 . S
H954 C906 0.929 . S
H955 C907 0.930 . S
H956 C914 0.929 . S
H957 C915 0.930 . S
H958 C916 0.930 . S
H959 C917 0.939 . S
H960 C919 0.929 . S
H961 C920 0.930 . S
H962 C921 0.930 . S
H963 C922 0.930 . S
H964 C926 0.929 . S
H965 C928 0.930 . S
H966 C934 0.929 . S
H967 C935 0.930 . S
Li968 N985 1.990 . S
Li968 O1028 1.956 . S
Li968 O1029 1.970 . S
Li968 O1030 1.961 . S
Li969 N993 1.990 1_545 S
Li969 O1028 1.970 . S
Li969 O1029 1.956 . S
Li969 O1031 1.961 . S
Li970 N1015 1.990 . S
Li970 O1028 1.961 . S
Li970 O1030 1.956 . S
Li970 O1031 1.970 . S
Li971 N1021 1.990 . S
Li971 O1029 1.961 . S
Li971 O1030 1.970 . S
Li971 O1031 1.956 . S
C972 C974 1.348 . S
C972 C975 1.356 . S
C972 O1028 1.325 . S
N973 C976 1.314 . S
N973 C977 1.279 . S
C974 C972 1.348 . S
C974 C976 1.353 . S
C974 H1032 0.929 . S
C975 C972 1.356 . S
C975 C977 1.358 . S
C975 H1033 0.930 . S
C976 N973 1.314 . S
C976 C974 1.353 . S
C976 H1034 0.930 . S
C977 N973 1.279 . S
C977 C975 1.358 . S
C977 H1035 0.930 . S
C978 C981 1.349 1_545 S
C978 C982 1.351 1_545 S
C978 O1029 1.328 . S
C979 N980 1.279 . S
C979 C982 1.358 . S
C979 H1036 0.930 . S
N980 C979 1.279 . S
N980 C983 1.314 . S
C981 C978 1.349 1_565 S
C981 C983 1.353 . S
C981 H1037 0.929 1_565 S
C982 C978 1.351 1_565 S
C982 C979 1.358 . S
C982 H1038 0.930 . S
C983 N980 1.314 . S
C983 C981 1.353 . S
C983 H1039 0.930 . S
C984 N985 1.314 . S
C984 C989 1.353 . S
C984 H990 0.930 . S
N985 Li968 1.990 . S
N985 C984 1.314 . S
N985 C987 1.279 . S
C986 C987 1.358 . S
C986 C988 1.356 . S
C986 H1040 0.930 . S
C987 N985 1.279 . S
C987 C986 1.358 . S
C987 H991 0.930 . S
C988 C986 1.356 . S
C988 C989 1.348 . S
C989 C984 1.353 . S
C989 C988 1.348 . S
C989 H1041 0.929 . S
H990 C984 0.930 . S
H991 C987 0.930 . S
C992 N993 1.314 . S
C992 C994 1.353 . S
C992 H998 0.930 1_565 S
N993 Li969 1.990 1_565 S
N993 C992 1.314 . S
N993 C996 1.279 . S
C994 C992 1.353 . S
C994 C997 1.348 . S
C994 H1042 0.929 . S
C995 C996 1.358 . S
C995 C997 1.356 . S
C995 H1043 0.930 . S
C996 N993 1.279 . S
C996 C995 1.358 . S
C996 H999 0.930 . S
C997 C994 1.348 . S
C997 C995 1.356 . S
H998 C992 0.930 1_545 S
H999 C996 0.930 . S
C1000 C1002 1.348 . S
C1000 C1003 1.356 . S
C1000 O1030 1.325 . S
N1001 C1004 1.314 . S
N1001 C1005 1.279 . S
C1002 C1000 1.348 . S
C1002 C1004 1.353 . S
C1002 H1044 0.929 . S
C1003 C1000 1.356 . S
C1003 C1005 1.358 . S
C1003 H1045 0.930 . S
C1004 N1001 1.314 . S
C1004 C1002 1.353 . S
C1004 H1046 0.930 . S
C1005 N1001 1.279 . S
C1005 C1003 1.358 . S
C1005 H1047 0.930 . S
C1006 C1007 1.348 . S
C1006 C1008 1.356 . S
C1006 O1031 1.325 . S
C1007 C1006 1.348 . S
C1007 C1009 1.353 . S
C1007 H1048 0.929 . S
C1008 C1006 1.356 . S
C1008 C1010 1.358 . S
C1008 H1049 0.930 . S
C1009 C1007 1.353 . S
C1009 N1011 1.314 . S
C1009 H1050 0.930 . S
C1010 C1008 1.358 . S
C1010 N1011 1.279 . S
C1010 H1051 0.943 . S
N1011 C1009 1.314 . S
N1011 C1010 1.279 . S
C1012 C1014 1.353 . S
C1012 N1015 1.314 . S
C1012 H1018 0.930 . S
C1013 N1015 1.279 . S
C1013 C1016 1.358 . S
C1013 H1019 0.930 . S
C1014 C1012 1.353 . S
C1014 C1017 1.348 . S
C1014 H1052 0.929 . S
N1015 Li970 1.990 . S
N1015 C1012 1.314 . S
N1015 C1013 1.279 . S
C1016 C1013 1.358 . S
C1016 C1017 1.356 . S
C1016 H1053 0.930 . S
C1017 C1014 1.348 . S
C1017 C1016 1.356 . S
H1018 C1012 0.930 . S
H1019 C1013 0.930 . S
C1020 N1021 1.314 . S
C1020 C1022 1.353 . S
C1020 H1026 0.930 . S
N1021 Li971 1.990 . S
N1021 C1020 1.314 . S
N1021 C1024 1.279 . S
C1022 C1020 1.353 . S
C1022 C1025 1.348 . S
C1022 H1054 0.929 . S
C1023 C1024 1.358 . S
C1023 C1025 1.356 . S
C1023 H1055 0.930 . S
C1024 N1021 1.279 . S
C1024 C1023 1.358 . S
C1024 H1027 0.930 . S
C1025 C1022 1.348 . S
C1025 C1023 1.356 . S
H1026 C1020 0.930 . S
H1027 C1024 0.930 . S
O1028 Li968 1.956 . S
O1028 Li969 1.970 . S
O1028 Li970 1.961 . S
O1028 C972 1.325 . S
O1029 Li968 1.970 . S
O1029 Li969 1.956 . S
O1029 Li971 1.961 . S
O1029 C978 1.328 . S
O1030 Li968 1.961 . S
O1030 Li970 1.956 . S
O1030 Li971 1.970 . S
O1030 C1000 1.325 . S
O1031 Li969 1.961 . S
O1031 Li970 1.970 . S
O1031 Li971 1.956 . S
O1031 C1006 1.325 . S
H1032 C974 0.929 . S
H1033 C975 0.930 . S
H1034 C976 0.930 . S
H1035 C977 0.930 . S
H1036 C979 0.930 . S
H1037 C981 0.929 1_545 S
H1038 C982 0.930 . S
H1039 C983 0.930 . S
H1040 C986 0.930 . S
H1041 C989 0.929 . S
H1042 C994 0.929 . S
H1043 C995 0.930 . S
H1044 C1002 0.929 . S
H1045 C1003 0.930 . S
H1046 C1004 0.930 . S
H1047 C1005 0.930 . S
H1048 C1007 0.929 . S
H1049 C1008 0.930 . S
H1050 C1009 0.930 . S
H1051 C1010 0.943 . S
H1052 C1014 0.929 . S
H1053 C1016 0.930 . S
H1054 C1022 0.929 . S
H1055 C1023 0.930 . S
C1056 C1057 1.391 . S
C1056 C1058 1.394 . S
C1056 H1072 0.931 . S
C1057 C1056 1.391 . S
C1057 C1061 1.376 . S
C1058 C1056 1.394 . S
C1058 C1059 1.369 . S
C1058 C1062 1.531 . S
C1059 C1058 1.369 . S
C1059 C1060 1.410 . S
C1059 C1067 1.503 1_655 S
C1060 C1059 1.410 . S
C1060 C1061 1.392 . S
C1060 C1063 1.511 . S
C1061 C1057 1.376 . S
C1061 C1060 1.392 . S
C1061 H1073 0.929 . S
C1062 C1058 1.531 . S
C1062 H1074 0.960 . S
C1062 H1075 0.962 . S
C1062 H1076 0.960 . S
C1063 C1060 1.511 . S
C1063 H1077 0.961 . S
C1063 H1078 0.961 1_655 S
C1063 H1079 0.961 . S
C1064 C1065 1.370 . S
C1064 C1066 1.363 . S
C1064 H1080 0.931 . S
C1065 C1064 1.370 . S
C1065 C1069 1.408 . S
C1066 C1064 1.363 . S
C1066 C1067 1.370 . S
C1066 C1070 1.524 . S
C1067 C1059 1.503 1_455 S
C1067 C1066 1.370 . S
C1067 C1068 1.403 . S
C1068 C1067 1.403 . S
C1068 C1069 1.404 . S
C1068 C1071 1.539 1_455 S
C1069 C1065 1.408 . S
C1069 C1068 1.404 . S
C1069 H1081 0.930 . S
C1070 C1066 1.524 . S
C1070 H1082 0.956 . S
C1070 H1083 0.961 . S
C1070 H1084 0.961 . S
C1071 C1068 1.539 1_655 S
C1071 H1085 0.958 . S
C1071 H1086 0.961 1_655 S
C1071 H1087 0.960 . S
H1072 C1056 0.931 . S
H1073 C1061 0.929 . S
H1074 C1062 0.960 . S
H1075 C1062 0.962 . S
H1076 C1062 0.960 . S
H1077 C1063 0.961 . S
H1078 C1063 0.961 1_455 S
H1079 C1063 0.961 . S
H1080 C1064 0.931 . S
H1081 C1069 0.930 . S
H1082 C1070 0.956 . S
H1083 C1070 0.961 . S
H1084 C1070 0.961 . S
H1085 C1071 0.958 . S
H1086 C1071 0.961 1_455 S
H1087 C1071 0.960 . S
C1088 C1089 1.391 . S
C1088 C1090 1.394 . S
C1088 H1104 0.931 . S
C1089 C1088 1.391 . S
C1089 C1093 1.376 . S
C1090 C1088 1.394 . S
C1090 C1091 1.369 . S
C1090 C1094 1.531 1_545 S
C1091 C1090 1.369 . S
C1091 C1092 1.410 . S
C1091 C1099 1.503 1_545 S
C1092 C1091 1.410 . S
C1092 C1093 1.392 . S
C1092 C1095 1.511 . S
C1093 C1089 1.376 . S
C1093 C1092 1.392 . S
C1093 H1105 0.929 . S
C1094 C1090 1.531 1_565 S
C1094 H1106 0.960 . S
C1094 H1107 0.962 . S
C1094 H1108 0.960 1_565 S
C1095 C1092 1.511 . S
C1095 H1109 0.961 . S
C1095 H1110 0.961 . S
C1095 H1111 0.961 . S
C1096 C1097 1.370 . S
C1096 C1098 1.363 . S
C1096 H1112 0.931 . S
C1097 C1096 1.370 . S
C1097 C1101 1.408 . S
C1098 C1096 1.363 . S
C1098 C1099 1.370 . S
C1098 C1102 1.518 1_565 S
C1099 C1091 1.503 1_565 S
C1099 C1098 1.370 . S
C1099 C1100 1.403 . S
C1100 C1099 1.403 . S
C1100 C1101 1.404 . S
C1100 C1103 1.539 . S
C1101 C1097 1.408 . S
C1101 C1100 1.404 . S
C1101 H1113 0.930 . S
C1102 C1098 1.518 1_545 S
C1102 H1114 0.954 . S
C1102 H1115 0.981 . S
C1102 H1116 0.949 1_545 S
C1103 C1100 1.539 . S
C1103 H1117 0.958 . S
C1103 H1118 0.961 . S
C1103 H1119 0.960 . S
H1104 C1088 0.931 . S
H1105 C1093 0.929 . S
H1106 C1094 0.960 . S
H1107 C1094 0.962 . S
H1108 C1094 0.960 1_545 S
H1109 C1095 0.961 . S
H1110 C1095 0.961 . S
H1111 C1095 0.961 . S
H1112 C1096 0.931 . S
H1113 C1101 0.930 . S
H1114 C1102 0.954 . S
H1115 C1102 0.981 . S
H1116 C1102 0.949 1_565 S
H1117 C1103 0.958 . S
H1118 C1103 0.961 . S
H1119 C1103 0.960 . S
C1120 C1121 1.391 . S
C1120 C1122 1.394 . S
C1120 H1136 0.931 . S
C1121 C1120 1.391 . S
C1121 C1125 1.376 . S
C1122 C1120 1.394 . S
C1122 C1123 1.369 . S
C1122 C1126 1.531 . S
C1123 C1122 1.369 . S
C1123 C1124 1.410 . S
C1123 C1131 1.503 . S
C1124 C1123 1.410 . S
C1124 C1125 1.392 . S
C1124 C1127 1.511 . S
C1125 C1121 1.376 . S
C1125 C1124 1.392 . S
C1125 H1137 0.929 . S
C1126 C1122 1.531 . S
C1126 H1138 0.960 . S
C1126 H1139 0.962 . S
C1126 H1140 0.960 . S
C1127 C1124 1.511 . S
C1127 H1141 0.961 . S
C1127 H1142 0.961 . S
C1127 H1143 0.961 . S
C1128 C1129 1.370 . S
C1128 C1130 1.363 . S
C1128 H1144 0.931 . S
C1129 C1128 1.370 . S
C1129 C1133 1.408 . S
C1130 C1128 1.363 . S
C1130 C1131 1.370 . S
C1130 C1134 1.524 . S
C1131 C1123 1.503 . S
C1131 C1130 1.370 . S
C1131 C1132 1.403 . S
C1132 C1131 1.403 . S
C1132 C1133 1.404 . S
C1132 C1135 1.539 . S
C1133 C1129 1.408 . S
C1133 C1132 1.404 . S
C1133 H1145 0.930 . S
C1134 C1130 1.524 . S
C1134 H1146 0.956 . S
C1134 H1147 0.961 . S
C1134 H1148 0.961 . S
C1135 C1132 1.539 . S
C1135 H1149 0.958 . S
C1135 H1150 0.961 . S
C1135 H1151 0.960 . S
H1136 C1120 0.931 . S
H1137 C1125 0.929 . S
H1138 C1126 0.960 . S
H1139 C1126 0.962 . S
H1140 C1126 0.960 . S
H1141 C1127 0.961 . S
H1142 C1127 0.961 . S
H1143 C1127 0.961 . S
H1144 C1128 0.931 . S
H1145 C1133 0.930 . S
H1146 C1134 0.956 . S
H1147 C1134 0.961 . S
H1148 C1134 0.961 . S
H1149 C1135 0.958 . S
H1150 C1135 0.961 . S
H1151 C1135 0.960 . S
C1152 C1153 1.391 . S
C1152 C1154 1.394 . S
C1152 H1168 0.931 . S
C1153 C1152 1.391 . S
C1153 C1157 1.376 . S
C1154 C1152 1.394 . S
C1154 C1155 1.369 . S
C1154 C1158 1.531 . S
C1155 C1154 1.369 . S
C1155 C1156 1.410 . S
C1155 C1163 1.503 1_655 S
C1156 C1155 1.410 . S
C1156 C1157 1.392 . S
C1156 C1159 1.511 . S
C1157 C1153 1.376 . S
C1157 C1156 1.392 . S
C1157 H1169 0.929 . S
C1158 C1154 1.531 . S
C1158 H1170 0.960 . S
C1158 H1171 0.962 . S
C1158 H1172 0.960 . S
C1159 C1156 1.511 . S
C1159 H1173 0.961 . S
C1159 H1174 0.961 1_655 S
C1159 H1175 0.961 . S
C1160 C1161 1.370 . S
C1160 C1162 1.363 . S
C1160 H1176 0.931 . S
C1161 C1160 1.370 . S
C1161 C1165 1.408 . S
C1162 C1160 1.363 . S
C1162 C1163 1.370 . S
C1162 C1166 1.524 . S
C1163 C1155 1.503 1_455 S
C1163 C1162 1.370 . S
C1163 C1164 1.403 . S
C1164 C1163 1.403 . S
C1164 C1165 1.404 . S
C1164 C1167 1.539 1_455 S
C1165 C1161 1.408 . S
C1165 C1164 1.404 . S
C1165 H1177 0.930 . S
C1166 C1162 1.524 . S
C1166 H1178 0.956 . S
C1166 H1179 0.961 . S
C1166 H1180 0.961 . S
C1167 C1164 1.539 1_655 S
C1167 H1181 0.958 . S
C1167 H1182 0.961 1_655 S
C1167 H1183 0.960 . S
H1168 C1152 0.931 . S
H1169 C1157 0.929 . S
H1170 C1158 0.960 . S
H1171 C1158 0.962 . S
H1172 C1158 0.960 . S
H1173 C1159 0.961 . S
H1174 C1159 0.961 1_455 S
H1175 C1159 0.961 . S
H1176 C1160 0.931 . S
H1177 C1165 0.930 . S
H1178 C1166 0.956 . S
H1179 C1166 0.961 . S
H1180 C1166 0.961 . S
H1181 C1167 0.958 . S
H1182 C1167 0.961 1_455 S
H1183 C1167 0.960 . S
C1184 C1185 1.391 . S
C1184 C1186 1.394 . S
C1184 H1200 0.931 . S
C1185 C1184 1.391 . S
C1185 C1189 1.376 . S
C1186 C1184 1.394 . S
C1186 C1187 1.369 . S
C1186 C1190 1.531 1_545 S
C1187 C1186 1.369 . S
C1187 C1188 1.410 . S
C1187 C1195 1.503 1_545 S
C1188 C1187 1.410 . S
C1188 C1189 1.392 . S
C1188 C1191 1.511 . S
C1189 C1185 1.376 . S
C1189 C1188 1.392 . S
C1189 H1201 0.929 . S
C1190 C1186 1.531 1_565 S
C1190 H1202 0.960 . S
C1190 H1203 0.962 . S
C1190 H1204 0.960 1_565 S
C1191 C1188 1.511 . S
C1191 H1205 0.961 . S
C1191 H1206 0.961 . S
C1191 H1207 0.961 . S
C1192 C1193 1.370 . S
C1192 C1194 1.363 . S
C1192 H1208 0.931 . S
C1193 C1192 1.370 . S
C1193 C1197 1.408 . S
C1194 C1192 1.363 . S
C1194 C1195 1.370 . S
C1194 C1198 1.505 1_565 S
C1195 C1187 1.503 1_565 S
C1195 C1194 1.370 . S
C1195 C1196 1.403 . S
C1196 C1195 1.403 . S
C1196 C1197 1.404 . S
C1196 C1199 1.539 . S
C1197 C1193 1.408 . S
C1197 C1196 1.404 . S
C1197 H1209 0.930 . S
C1198 C1194 1.505 1_545 S
C1198 H1210 0.967 . S
C1198 H1211 0.970 . S
C1198 H1212 0.960 1_545 S
C1199 C1196 1.539 . S
C1199 H1213 0.958 . S
C1199 H1214 0.961 . S
C1199 H1215 0.960 . S
H1200 C1184 0.931 . S
H1201 C1189 0.929 . S
H1202 C1190 0.960 . S
H1203 C1190 0.962 . S
H1204 C1190 0.960 1_545 S
H1205 C1191 0.961 . S
H1206 C1191 0.961 . S
H1207 C1191 0.961 . S
H1208 C1192 0.931 . S
H1209 C1197 0.930 . S
H1210 C1198 0.967 . S
H1211 C1198 0.970 . S
H1212 C1198 0.960 1_565 S
H1213 C1199 0.958 . S
H1214 C1199 0.961 . S
H1215 C1199 0.960 . S
C1216 C1217 1.391 . S
C1216 C1218 1.394 . S
C1216 H1232 0.931 . S
C1217 C1216 1.391 . S
C1217 C1221 1.376 . S
C1218 C1216 1.394 . S
C1218 C1219 1.369 . S
C1218 C1222 1.531 . S
C1219 C1218 1.369 . S
C1219 C1220 1.410 . S
C1219 C1227 1.503 . S
C1220 C1219 1.410 . S
C1220 C1221 1.392 . S
C1220 C1223 1.511 . S
C1221 C1217 1.376 . S
C1221 C1220 1.392 . S
C1221 H1233 0.929 . S
C1222 C1218 1.531 . S
C1222 H1234 0.960 . S
C1222 H1235 0.962 . S
C1222 H1236 0.960 . S
C1223 C1220 1.511 . S
C1223 H1237 0.961 . S
C1223 H1238 0.961 . S
C1223 H1239 0.961 . S
C1224 C1225 1.370 . S
C1224 C1226 1.363 . S
C1224 H1240 0.931 . S
C1225 C1224 1.370 . S
C1225 C1229 1.408 . S
C1226 C1224 1.363 . S
C1226 C1227 1.370 . S
C1226 C1230 1.524 . S
C1227 C1219 1.503 . S
C1227 C1226 1.370 . S
C1227 C1228 1.403 . S
C1228 C1227 1.403 . S
C1228 C1229 1.404 . S
C1228 C1231 1.539 . S
C1229 C1225 1.408 . S
C1229 C1228 1.404 . S
C1229 H1241 0.930 . S
C1230 C1226 1.524 . S
C1230 H1242 0.956 . S
C1230 H1243 0.961 . S
C1230 H1244 0.961 . S
C1231 C1228 1.539 . S
C1231 H1245 0.958 . S
C1231 H1246 0.961 . S
C1231 H1247 0.960 . S
H1232 C1216 0.931 . S
H1233 C1221 0.929 . S
H1234 C1222 0.960 . S
H1235 C1222 0.962 . S
H1236 C1222 0.960 . S
H1237 C1223 0.961 . S
H1238 C1223 0.961 . S
H1239 C1223 0.961 . S
H1240 C1224 0.931 . S
H1241 C1229 0.930 . S
H1242 C1230 0.956 . S
H1243 C1230 0.961 . S
H1244 C1230 0.961 . S
H1245 C1231 0.958 . S
H1246 C1231 0.961 . S
H1247 C1231 0.960 . S
C1248 C1249 1.391 . S
C1248 C1250 1.394 . S
C1248 H1264 0.931 . S
C1249 C1248 1.391 . S
C1249 C1253 1.376 . S
C1250 C1248 1.394 . S
C1250 C1251 1.369 . S
C1250 C1254 1.531 . S
C1251 C1250 1.369 . S
C1251 C1252 1.410 . S
C1251 C1259 1.503 . S
C1252 C1251 1.410 . S
C1252 C1253 1.392 . S
C1252 C1255 1.511 . S
C1253 C1249 1.376 . S
C1253 C1252 1.392 . S
C1253 H1265 0.929 . S
C1254 C1250 1.531 . S
C1254 H1266 0.960 . S
C1254 H1267 0.962 . S
C1254 H1268 0.960 . S
C1255 C1252 1.511 . S
C1255 H1269 0.961 . S
C1255 H1270 0.961 . S
C1255 H1271 0.961 . S
C1256 C1257 1.370 . S
C1256 C1258 1.363 . S
C1256 H1272 0.931 . S
C1257 C1256 1.370 . S
C1257 C1261 1.408 . S
C1258 C1256 1.363 . S
C1258 C1259 1.370 . S
C1258 C1262 1.524 . S
C1259 C1251 1.503 . S
C1259 C1258 1.370 . S
C1259 C1260 1.403 . S
C1260 C1259 1.403 . S
C1260 C1261 1.404 . S
C1260 C1263 1.539 . S
C1261 C1257 1.408 . S
C1261 C1260 1.404 . S
C1261 H1273 0.930 . S
C1262 C1258 1.524 . S
C1262 H1274 0.956 . S
C1262 H1275 0.961 . S
C1262 H1276 0.961 . S
C1263 C1260 1.539 . S
C1263 H1277 0.958 . S
C1263 H1278 0.961 . S
C1263 H1279 0.960 . S
H1264 C1248 0.931 . S
H1265 C1253 0.929 . S
H1266 C1254 0.960 . S
H1267 C1254 0.962 . S
H1268 C1254 0.960 . S
H1269 C1255 0.961 . S
H1270 C1255 0.961 . S
H1271 C1255 0.961 . S
H1272 C1256 0.931 . S
H1273 C1261 0.930 . S
H1274 C1262 0.956 . S
H1275 C1262 0.961 . S
H1276 C1262 0.961 . S
H1277 C1263 0.958 . S
H1278 C1263 0.961 . S
H1279 C1263 0.960 . S
C1280 C1281 1.391 . S
C1280 C1282 1.394 . S
C1280 H1296 0.931 . S
C1281 C1280 1.391 . S
C1281 C1285 1.376 . S
C1282 C1280 1.394 . S
C1282 C1283 1.369 . S
C1282 C1286 1.531 1_455 S
C1283 C1282 1.369 . S
C1283 C1284 1.410 . S
C1283 C1291 1.503 1_455 S
C1284 C1283 1.410 . S
C1284 C1285 1.392 . S
C1284 C1287 1.511 . S
C1285 C1281 1.376 . S
C1285 C1284 1.392 . S
C1285 H1297 0.929 . S
C1286 C1282 1.531 1_655 S
C1286 H1298 0.960 . S
C1286 H1299 0.962 . S
C1286 H1300 0.960 . S
C1287 C1284 1.511 . S
C1287 H1301 0.961 . S
C1287 H1302 0.961 . S
C1287 H1303 0.961 . S
C1288 C1289 1.370 . S
C1288 C1290 1.363 . S
C1288 H1304 0.931 . S
C1289 C1288 1.370 . S
C1289 C1293 1.408 . S
C1290 C1288 1.363 . S
C1290 C1291 1.370 . S
C1290 C1294 1.524 1_655 S
C1291 C1283 1.503 1_655 S
C1291 C1290 1.370 . S
C1291 C1292 1.403 . S
C1292 C1291 1.403 . S
C1292 C1293 1.404 . S
C1292 C1295 1.539 . S
C1293 C1289 1.408 . S
C1293 C1292 1.404 . S
C1293 H1305 0.930 . S
C1294 C1290 1.524 1_455 S
C1294 H1306 0.956 . S
C1294 H1307 0.961 . S
C1294 H1308 0.961 . S
C1295 C1292 1.539 . S
C1295 H1309 0.958 . S
C1295 H1310 0.961 . S
C1295 H1311 0.960 . S
H1296 C1280 0.931 . S
H1297 C1285 0.929 . S
H1298 C1286 0.960 . S
H1299 C1286 0.962 . S
H1300 C1286 0.960 . S
H1301 C1287 0.961 . S
H1302 C1287 0.961 . S
H1303 C1287 0.961 . S
H1304 C1288 0.931 . S
H1305 C1293 0.930 . S
H1306 C1294 0.956 . S
H1307 C1294 0.961 . S
H1308 C1294 0.961 . S
H1309 C1295 0.958 . S
H1310 C1295 0.961 . S
H1311 C1295 0.960 . S
C1312 C1313 1.391 . S
C1312 C1314 1.394 . S
C1312 H1328 0.931 . S
C1313 C1312 1.391 . S
C1313 C1317 1.376 . S
C1314 C1312 1.394 . S
C1314 C1315 1.369 . S
C1314 C1318 1.531 1_545 S
C1315 C1314 1.369 . S
C1315 C1316 1.410 . S
C1315 C1323 1.503 1_545 S
C1316 C1315 1.410 . S
C1316 C1317 1.392 . S
C1316 C1319 1.511 . S
C1317 C1313 1.376 . S
C1317 C1316 1.392 . S
C1317 H1329 0.929 . S
C1318 C1314 1.531 1_565 S
C1318 H1330 0.960 . S
C1318 H1331 0.962 . S
C1318 H1332 0.960 . S
C1319 C1316 1.511 . S
C1319 H1333 0.961 . S
C1319 H1334 0.961 . S
C1319 H1335 0.961 . S
C1320 C1321 1.370 . S
C1320 C1322 1.363 . S
C1320 H1336 0.931 . S
C1321 C1320 1.370 . S
C1321 C1325 1.408 . S
C1322 C1320 1.363 . S
C1322 C1323 1.370 . S
C1322 C1326 1.524 . S
C1323 C1315 1.503 1_565 S
C1323 C1322 1.370 . S
C1323 C1324 1.403 . S
C1324 C1323 1.403 . S
C1324 C1325 1.404 . S
C1324 C1327 1.539 1_565 S
C1325 C1321 1.408 . S
C1325 C1324 1.404 . S
C1325 H1337 0.930 . S
C1326 C1322 1.524 . S
C1326 H1338 0.956 . S
C1326 H1339 0.961 . S
C1326 H1340 0.961 . S
C1327 C1324 1.539 1_545 S
C1327 H1341 0.958 . S
C1327 H1342 0.961 . S
C1327 H1343 0.960 . S
H1328 C1312 0.931 . S
H1329 C1317 0.929 . S
H1330 C1318 0.960 . S
H1331 C1318 0.962 . S
H1332 C1318 0.960 . S
H1333 C1319 0.961 . S
H1334 C1319 0.961 . S
H1335 C1319 0.961 . S
H1336 C1320 0.931 . S
H1337 C1325 0.930 . S
H1338 C1326 0.956 . S
H1339 C1326 0.961 . S
H1340 C1326 0.961 . S
H1341 C1327 0.958 . S
H1342 C1327 0.961 . S
H1343 C1327 0.960 . S
C1344 C1345 1.391 . S
C1344 C1346 1.394 . S
C1344 H1360 0.931 . S
C1345 C1344 1.391 . S
C1345 C1349 1.376 . S
C1346 C1344 1.394 . S
C1346 C1347 1.369 . S
C1346 C1350 1.531 . S
C1347 C1346 1.369 . S
C1347 C1348 1.410 . S
C1347 C1355 1.503 . S
C1348 C1347 1.410 . S
C1348 C1349 1.392 . S
C1348 C1351 1.511 . S
C1349 C1345 1.376 . S
C1349 C1348 1.392 . S
C1349 H1361 0.929 . S
C1350 C1346 1.531 . S
C1350 H1362 0.960 . S
C1350 H1363 0.962 . S
C1350 H1364 0.960 . S
C1351 C1348 1.511 . S
C1351 H1365 0.961 . S
C1351 H1366 0.961 . S
C1351 H1367 0.961 . S
C1352 C1353 1.370 . S
C1352 C1354 1.363 . S
C1352 H1368 0.931 . S
C1353 C1352 1.370 . S
C1353 C1357 1.408 . S
C1354 C1352 1.363 . S
C1354 C1355 1.370 . S
C1354 C1358 1.524 . S
C1355 C1347 1.503 . S
C1355 C1354 1.370 . S
C1355 C1356 1.403 . S
C1356 C1355 1.403 . S
C1356 C1357 1.404 . S
C1356 C1359 1.539 . S
C1357 C1353 1.408 . S
C1357 C1356 1.404 . S
C1357 H1369 0.930 . S
C1358 C1354 1.524 . S
C1358 H1370 0.956 . S
C1358 H1371 0.961 . S
C1358 H1372 0.961 . S
C1359 C1356 1.539 . S
C1359 H1373 0.958 . S
C1359 H1374 0.961 . S
C1359 H1375 0.960 . S
H1360 C1344 0.931 . S
H1361 C1349 0.929 . S
H1362 C1350 0.960 . S
H1363 C1350 0.962 . S
H1364 C1350 0.960 . S
H1365 C1351 0.961 . S
H1366 C1351 0.961 . S
H1367 C1351 0.961 . S
H1368 C1352 0.931 . S
H1369 C1357 0.930 . S
H1370 C1358 0.956 . S
H1371 C1358 0.961 . S
H1372 C1358 0.961 . S
H1373 C1359 0.958 . S
H1374 C1359 0.961 . S
H1375 C1359 0.960 . S
C1376 C1377 1.391 . S
C1376 C1378 1.394 . S
C1376 H1392 0.931 . S
C1377 C1376 1.391 . S
C1377 C1381 1.376 . S
C1378 C1376 1.394 . S
C1378 C1379 1.369 . S
C1378 C1382 1.531 . S
C1379 C1378 1.369 . S
C1379 C1380 1.410 . S
C1379 C1387 1.503 1_655 S
C1380 C1379 1.410 . S
C1380 C1381 1.392 . S
C1380 C1383 1.511 . S
C1381 C1377 1.376 . S
C1381 C1380 1.392 . S
C1381 H1393 0.929 . S
C1382 C1378 1.531 . S
C1382 H1394 0.960 1_655 S
C1382 H1395 0.962 . S
C1382 H1396 0.960 . S
C1383 C1380 1.511 . S
C1383 H1397 0.961 . S
C1383 H1398 0.961 1_655 S
C1383 H1399 0.961 1_655 S
C1384 C1385 1.370 . S
C1384 C1386 1.363 . S
C1384 H1400 0.931 . S
C1385 C1384 1.370 . S
C1385 C1389 1.408 . S
C1386 C1384 1.363 . S
C1386 C1387 1.370 . S
C1386 C1390 1.524 1_455 S
C1387 C1379 1.503 1_455 S
C1387 C1386 1.370 . S
C1387 C1388 1.403 . S
C1388 C1387 1.403 . S
C1388 C1389 1.404 . S
C1388 C1391 1.539 . S
C1389 C1385 1.408 . S
C1389 C1388 1.404 . S
C1389 H1401 0.930 . S
C1390 C1386 1.524 1_655 S
C1390 H1402 0.956 . S
C1390 H1403 0.961 . S
C1390 H1404 0.961 . S
C1391 C1388 1.539 . S
C1391 H1405 0.958 . S
C1391 H1406 0.961 . S
C1391 H1407 0.960 . S
H1392 C1376 0.931 . S
H1393 C1381 0.929 . S
H1394 C1382 0.960 1_455 S
H1395 C1382 0.962 . S
H1396 C1382 0.960 . S
H1397 C1383 0.961 . S
H1398 C1383 0.961 1_455 S
H1399 C1383 0.961 1_455 S
H1400 C1384 0.931 . S
H1401 C1389 0.930 . S
H1402 C1390 0.956 . S
H1403 C1390 0.961 . S
H1404 C1390 0.961 . S
H1405 C1391 0.958 . S
H1406 C1391 0.961 . S
H1407 C1391 0.960 . S
C1408 C1409 1.391 . S
C1408 C1410 1.394 . S
C1408 H1424 0.931 . S
C1409 C1408 1.391 . S
C1409 C1413 1.376 . S
C1410 C1408 1.394 . S
C1410 C1411 1.369 . S
C1410 C1414 1.531 1_565 S
C1411 C1410 1.369 . S
C1411 C1412 1.410 . S
C1411 C1419 1.503 1_565 S
C1412 C1411 1.410 . S
C1412 C1413 1.392 . S
C1412 C1415 1.511 . S
C1413 C1409 1.376 . S
C1413 C1412 1.392 . S
C1413 H1425 0.929 . S
C1414 C1410 1.531 1_545 S
C1414 H1426 0.960 . S
C1414 H1427 0.962 . S
C1414 H1428 0.960 . S
C1415 C1412 1.511 . S
C1415 H1429 0.961 . S
C1415 H1430 0.961 . S
C1415 H1431 0.961 . S
C1416 C1417 1.370 . S
C1416 C1418 1.363 . S
C1416 H1432 0.931 . S
C1417 C1416 1.370 . S
C1417 C1421 1.408 . S
C1418 C1416 1.363 . S
C1418 C1419 1.370 . S
C1418 C1422 1.524 . S
C1419 C1411 1.503 1_545 S
C1419 C1418 1.370 . S
C1419 C1420 1.403 . S
C1420 C1419 1.403 . S
C1420 C1421 1.404 . S
C1420 C1423 1.539 1_545 S
C1421 C1417 1.408 . S
C1421 C1420 1.404 . S
C1421 H1433 0.930 . S
C1422 C1418 1.524 . S
C1422 H1434 0.956 . S
C1422 H1435 0.961 . S
C1422 H1436 0.961 . S
C1423 C1420 1.539 1_565 S
C1423 H1437 0.958 . S
C1423 H1438 0.961 . S
C1423 H1439 0.960 . S
H1424 C1408 0.931 . S
H1425 C1413 0.929 . S
H1426 C1414 0.960 . S
H1427 C1414 0.962 . S
H1428 C1414 0.960 . S
H1429 C1415 0.961 . S
H1430 C1415 0.961 . S
H1431 C1415 0.961 . S
H1432 C1416 0.931 . S
H1433 C1421 0.930 . S
H1434 C1422 0.956 . S
H1435 C1422 0.961 . S
H1436 C1422 0.961 . S
H1437 C1423 0.958 . S
H1438 C1423 0.961 . S
H1439 C1423 0.960 . S
C1440 C1441 1.391 . S
C1440 C1442 1.394 . S
C1440 H1456 0.931 . S
C1441 C1440 1.391 . S
C1441 C1445 1.376 . S
C1442 C1440 1.394 . S
C1442 C1443 1.369 . S
C1442 C1446 1.531 . S
C1443 C1442 1.369 . S
C1443 C1444 1.410 . S
C1443 C1451 1.503 . S
C1444 C1443 1.410 . S
C1444 C1445 1.392 . S
C1444 C1447 1.511 . S
C1445 C1441 1.376 . S
C1445 C1444 1.392 . S
C1445 H1457 0.929 . S
C1446 C1442 1.531 . S
C1446 H1458 0.960 . S
C1446 H1459 0.962 . S
C1446 H1460 0.960 . S
C1447 C1444 1.511 . S
C1447 H1461 0.961 . S
C1447 H1462 0.961 . S
C1447 H1463 0.961 . S
C1448 C1449 1.370 . S
C1448 C1450 1.363 . S
C1448 H1464 0.931 . S
C1449 C1448 1.370 . S
C1449 C1453 1.408 . S
C1450 C1448 1.363 . S
C1450 C1451 1.370 . S
C1450 C1454 1.524 . S
C1451 C1443 1.503 . S
C1451 C1450 1.370 . S
C1451 C1452 1.403 . S
C1452 C1451 1.403 . S
C1452 C1453 1.404 . S
C1452 C1455 1.539 . S
C1453 C1449 1.408 . S
C1453 C1452 1.404 . S
C1453 H1465 0.930 . S
C1454 C1450 1.524 . S
C1454 H1466 0.956 . S
C1454 H1467 0.961 . S
C1454 H1468 0.961 . S
C1455 C1452 1.539 . S
C1455 H1469 0.958 . S
C1455 H1470 0.961 . S
C1455 H1471 0.960 . S
H1456 C1440 0.931 . S
H1457 C1445 0.929 . S
H1458 C1446 0.960 . S
H1459 C1446 0.962 . S
H1460 C1446 0.960 . S
H1461 C1447 0.961 . S
H1462 C1447 0.961 . S
H1463 C1447 0.961 . S
H1464 C1448 0.931 . S
H1465 C1453 0.930 . S
H1466 C1454 0.956 . S
H1467 C1454 0.961 . S
H1468 C1454 0.961 . S
H1469 C1455 0.958 . S
H1470 C1455 0.961 . S
H1471 C1455 0.960 . S
C1472 C1473 1.391 . S
C1472 C1474 1.394 . S
C1472 H1488 0.931 . S
C1473 C1472 1.391 . S
C1473 C1477 1.376 . S
C1474 C1472 1.394 . S
C1474 C1475 1.369 . S
C1474 C1478 1.531 . S
C1475 C1474 1.369 . S
C1475 C1476 1.410 . S
C1475 C1483 1.503 . S
C1476 C1475 1.410 . S
C1476 C1477 1.392 . S
C1476 C1479 1.511 . S
C1477 C1473 1.376 . S
C1477 C1476 1.392 . S
C1477 H1489 0.929 . S
C1478 C1474 1.531 . S
C1478 H1490 0.960 . S
C1478 H1491 0.962 . S
C1478 H1492 0.960 . S
C1479 C1476 1.511 . S
C1479 H1493 0.961 . S
C1479 H1494 0.961 . S
C1479 H1495 0.961 . S
C1480 C1481 1.370 . S
C1480 C1482 1.363 . S
C1480 H1496 0.931 . S
C1481 C1480 1.370 . S
C1481 C1485 1.408 . S
C1482 C1480 1.363 . S
C1482 C1483 1.370 . S
C1482 C1486 1.524 . S
C1483 C1475 1.503 . S
C1483 C1482 1.370 . S
C1483 C1484 1.403 . S
C1484 C1483 1.403 . S
C1484 C1485 1.404 . S
C1484 C1487 1.539 . S
C1485 C1481 1.408 . S
C1485 C1484 1.404 . S
C1485 H1497 0.930 . S
C1486 C1482 1.524 . S
C1486 H1498 0.956 . S
C1486 H1499 0.961 . S
C1486 H1500 0.961 . S
C1487 C1484 1.539 . S
C1487 H1501 0.958 . S
C1487 H1502 0.961 . S
C1487 H1503 0.960 . S
H1488 C1472 0.931 . S
H1489 C1477 0.929 . S
H1490 C1478 0.960 . S
H1491 C1478 0.962 . S
H1492 C1478 0.960 . S
H1493 C1479 0.961 . S
H1494 C1479 0.961 . S
H1495 C1479 0.961 . S
H1496 C1480 0.931 . S
H1497 C1485 0.930 . S
H1498 C1486 0.956 . S
H1499 C1486 0.961 . S
H1500 C1486 0.961 . S
H1501 C1487 0.958 . S
H1502 C1487 0.961 . S
H1503 C1487 0.960 . S
C1504 C1505 1.391 . S
C1504 C1506 1.394 . S
C1504 H1520 0.931 . S
C1505 C1504 1.391 . S
C1505 C1509 1.376 . S
C1506 C1504 1.394 . S
C1506 C1507 1.369 . S
C1506 C1510 1.531 . S
C1507 C1506 1.369 . S
C1507 C1508 1.410 . S
C1507 C1515 1.503 . S
C1508 C1507 1.410 . S
C1508 C1509 1.392 . S
C1508 C1511 1.511 . S
C1509 C1505 1.376 . S
C1509 C1508 1.392 . S
C1509 H1521 0.929 . S
C1510 C1506 1.531 . S
C1510 H1522 0.960 . S
C1510 H1523 0.962 . S
C1510 H1524 0.960 . S
C1511 C1508 1.511 . S
C1511 H1525 0.961 . S
C1511 H1526 0.961 . S
C1511 H1527 0.961 . S
C1512 C1513 1.370 . S
C1512 C1514 1.363 . S
C1512 H1528 0.931 . S
C1513 C1512 1.370 . S
C1513 C1517 1.408 . S
C1514 C1512 1.363 . S
C1514 C1515 1.370 . S
C1514 C1518 1.524 . S
C1515 C1507 1.503 . S
C1515 C1514 1.370 . S
C1515 C1516 1.403 . S
C1516 C1515 1.403 . S
C1516 C1517 1.404 . S
C1516 C1519 1.539 . S
C1517 C1513 1.408 . S
C1517 C1516 1.404 . S
C1517 H1529 0.930 . S
C1518 C1514 1.524 . S
C1518 H1530 0.956 . S
C1518 H1531 0.961 . S
C1518 H1532 0.961 . S
C1519 C1516 1.539 . S
C1519 H1533 0.958 . S
C1519 H1534 0.961 . S
C1519 H1535 0.960 . S
H1520 C1504 0.931 . S
H1521 C1509 0.929 . S
H1522 C1510 0.960 . S
H1523 C1510 0.962 . S
H1524 C1510 0.960 . S
H1525 C1511 0.961 . S
H1526 C1511 0.961 . S
H1527 C1511 0.961 . S
H1528 C1512 0.931 . S
H1529 C1517 0.930 . S
H1530 C1518 0.956 . S
H1531 C1518 0.961 . S
H1532 C1518 0.961 . S
H1533 C1519 0.958 . S
H1534 C1519 0.961 . S
H1535 C1519 0.960 . S
C1536 C1537 1.391 . S
C1536 C1538 1.394 . S
C1536 H1552 0.931 . S
C1537 C1536 1.391 . S
C1537 C1541 1.376 . S
C1538 C1536 1.394 . S
C1538 C1539 1.369 . S
C1538 C1542 1.531 . S
C1539 C1538 1.369 . S
C1539 C1540 1.410 . S
C1539 C1547 1.503 . S
C1540 C1539 1.410 . S
C1540 C1541 1.392 . S
C1540 C1543 1.511 . S
C1541 C1537 1.376 . S
C1541 C1540 1.392 . S
C1541 H1553 0.929 . S
C1542 C1538 1.531 . S
C1542 H1554 0.960 . S
C1542 H1555 0.962 . S
C1542 H1556 0.960 . S
C1543 C1540 1.511 . S
C1543 H1557 0.961 . S
C1543 H1558 0.961 . S
C1543 H1559 0.961 . S
C1544 C1545 1.370 . S
C1544 C1546 1.363 . S
C1544 H1560 0.931 . S
C1545 C1544 1.370 . S
C1545 C1549 1.408 . S
C1546 C1544 1.363 . S
C1546 C1547 1.370 . S
C1546 C1550 1.524 . S
C1547 C1539 1.503 . S
C1547 C1546 1.370 . S
C1547 C1548 1.403 . S
C1548 C1547 1.403 . S
C1548 C1549 1.404 . S
C1548 C1551 1.539 . S
C1549 C1545 1.408 . S
C1549 C1548 1.404 . S
C1549 H1561 0.930 . S
C1550 C1546 1.524 . S
C1550 H1562 0.956 . S
C1550 H1563 0.961 . S
C1550 H1564 0.961 . S
C1551 C1548 1.539 . S
C1551 H1565 0.958 . S
C1551 H1566 0.961 . S
C1551 H1567 0.960 . S
H1552 C1536 0.931 . S
H1553 C1541 0.929 . S
H1554 C1542 0.960 . S
H1555 C1542 0.962 . S
H1556 C1542 0.960 . S
H1557 C1543 0.961 . S
H1558 C1543 0.961 . S
H1559 C1543 0.961 . S
H1560 C1544 0.931 . S
H1561 C1549 0.930 . S
H1562 C1550 0.956 . S
H1563 C1550 0.961 . S
H1564 C1550 0.961 . S
H1565 C1551 0.958 . S
H1566 C1551 0.961 . S
H1567 C1551 0.960 . S
C1568 C1569 1.391 . S
C1568 C1570 1.394 . S
C1568 H1584 0.931 . S
C1569 C1568 1.391 . S
C1569 C1573 1.376 . S
C1570 C1568 1.394 . S
C1570 C1571 1.369 . S
C1570 C1574 1.531 . S
C1571 C1570 1.369 . S
C1571 C1572 1.410 . S
C1571 C1579 1.503 . S
C1572 C1571 1.410 . S
C1572 C1573 1.392 . S
C1572 C1575 1.511 . S
C1573 C1569 1.376 . S
C1573 C1572 1.392 . S
C1573 H1585 0.929 . S
C1574 C1570 1.531 . S
C1574 H1586 0.960 . S
C1574 H1587 0.962 . S
C1574 H1588 0.960 . S
C1575 C1572 1.511 . S
C1575 H1589 0.961 . S
C1575 H1590 0.961 . S
C1575 H1591 0.961 . S
C1576 C1577 1.370 . S
C1576 C1578 1.363 . S
C1576 H1592 0.931 . S
C1577 C1576 1.370 . S
C1577 C1581 1.408 . S
C1578 C1576 1.363 . S
C1578 C1579 1.370 . S
C1578 C1582 1.524 . S
C1579 C1571 1.503 . S
C1579 C1578 1.370 . S
C1579 C1580 1.403 . S
C1580 C1579 1.403 . S
C1580 C1581 1.404 . S
C1580 C1583 1.539 . S
C1581 C1577 1.408 . S
C1581 C1580 1.404 . S
C1581 H1593 0.930 . S
C1582 C1578 1.524 . S
C1582 H1594 0.956 . S
C1582 H1595 0.961 . S
C1582 H1596 0.961 . S
C1583 C1580 1.539 . S
C1583 H1597 0.958 . S
C1583 H1598 0.961 . S
C1583 H1599 0.960 . S
H1584 C1568 0.931 . S
H1585 C1573 0.929 . S
H1586 C1574 0.960 . S
H1587 C1574 0.962 . S
H1588 C1574 0.960 . S
H1589 C1575 0.961 . S
H1590 C1575 0.961 . S
H1591 C1575 0.961 . S
H1592 C1576 0.931 . S
H1593 C1581 0.930 . S
H1594 C1582 0.956 . S
H1595 C1582 0.961 . S
H1596 C1582 0.961 . S
H1597 C1583 0.958 . S
H1598 C1583 0.961 . S
H1599 C1583 0.960 . S
C1600 C1601 1.391 . S
C1600 C1602 1.394 . S
C1600 H1616 0.931 . S
C1601 C1600 1.391 . S
C1601 C1605 1.376 . S
C1602 C1600 1.394 . S
C1602 C1603 1.369 . S
C1602 C1606 1.531 . S
C1603 C1602 1.369 . S
C1603 C1604 1.410 . S
C1603 C1611 1.503 . S
C1604 C1603 1.410 . S
C1604 C1605 1.392 . S
C1604 C1607 1.511 . S
C1605 C1601 1.376 . S
C1605 C1604 1.392 . S
C1605 H1617 0.929 . S
C1606 C1602 1.531 . S
C1606 H1618 0.960 . S
C1606 H1619 0.962 . S
C1606 H1620 0.960 . S
C1607 C1604 1.511 . S
C1607 H1621 0.961 . S
C1607 H1622 0.961 . S
C1607 H1623 0.961 . S
C1608 C1609 1.370 . S
C1608 C1610 1.363 . S
C1608 H1624 0.931 . S
C1609 C1608 1.370 . S
C1609 C1613 1.408 . S
C1610 C1608 1.363 . S
C1610 C1611 1.370 . S
C1610 C1614 1.524 . S
C1611 C1603 1.503 . S
C1611 C1610 1.370 . S
C1611 C1612 1.403 . S
C1612 C1611 1.403 . S
C1612 C1613 1.404 . S
C1612 C1615 1.539 . S
C1613 C1609 1.408 . S
C1613 C1612 1.404 . S
C1613 H1625 0.930 . S
C1614 C1610 1.524 . S
C1614 H1626 0.956 . S
C1614 H1627 0.961 . S
C1614 H1628 0.961 . S
C1615 C1612 1.539 . S
C1615 H1629 0.958 . S
C1615 H1630 0.961 . S
C1615 H1631 0.960 . S
H1616 C1600 0.931 . S
H1617 C1605 0.929 . S
H1618 C1606 0.960 . S
H1619 C1606 0.962 . S
H1620 C1606 0.960 . S
H1621 C1607 0.961 . S
H1622 C1607 0.961 . S
H1623 C1607 0.961 . S
H1624 C1608 0.931 . S
H1625 C1613 0.930 . S
H1626 C1614 0.956 . S
H1627 C1614 0.961 . S
H1628 C1614 0.961 . S
H1629 C1615 0.958 . S
H1630 C1615 0.961 . S
H1631 C1615 0.960 . S
C1632 C1633 1.391 . S
C1632 C1634 1.394 . S
C1632 H1648 0.931 . S
C1633 C1632 1.391 . S
C1633 C1637 1.376 . S
C1634 C1632 1.394 . S
C1634 C1635 1.369 . S
C1634 C1638 1.531 . S
C1635 C1634 1.369 . S
C1635 C1636 1.410 . S
C1635 C1643 1.503 . S
C1636 C1635 1.410 . S
C1636 C1637 1.392 . S
C1636 C1639 1.511 . S
C1637 C1633 1.376 . S
C1637 C1636 1.392 . S
C1637 H1649 0.929 . S
C1638 C1634 1.531 . S
C1638 H1650 0.960 . S
C1638 H1651 0.962 . S
C1638 H1652 0.960 . S
C1639 C1636 1.511 . S
C1639 H1653 0.961 . S
C1639 H1654 0.961 . S
C1639 H1655 0.961 . S
C1640 C1641 1.370 . S
C1640 C1642 1.363 . S
C1640 H1656 0.931 . S
C1641 C1640 1.370 . S
C1641 C1645 1.408 . S
C1642 C1640 1.363 . S
C1642 C1643 1.370 . S
C1642 C1646 1.524 . S
C1643 C1635 1.503 . S
C1643 C1642 1.370 . S
C1643 C1644 1.403 . S
C1644 C1643 1.403 . S
C1644 C1645 1.404 . S
C1644 C1647 1.539 . S
C1645 C1641 1.408 . S
C1645 C1644 1.404 . S
C1645 H1657 0.930 . S
C1646 C1642 1.524 . S
C1646 H1658 0.956 . S
C1646 H1659 0.961 . S
C1646 H1660 0.961 . S
C1647 C1644 1.539 . S
C1647 H1661 0.958 . S
C1647 H1662 0.961 . S
C1647 H1663 0.960 . S
H1648 C1632 0.931 . S
H1649 C1637 0.929 . S
H1650 C1638 0.960 . S
H1651 C1638 0.962 . S
H1652 C1638 0.960 . S
H1653 C1639 0.961 . S
H1654 C1639 0.961 . S
H1655 C1639 0.961 . S
H1656 C1640 0.931 . S
H1657 C1645 0.930 . S
H1658 C1646 0.956 . S
H1659 C1646 0.961 . S
H1660 C1646 0.961 . S
H1661 C1647 0.958 . S
H1662 C1647 0.961 . S
H1663 C1647 0.960 . S
C1664 C1665 1.391 . S
C1664 C1666 1.394 1_655 S
C1664 H1680 0.931 1_655 S
C1665 C1664 1.391 . S
C1665 C1669 1.376 . S
C1666 C1664 1.394 1_455 S
C1666 C1667 1.369 1_455 S
C1666 C1670 1.531 . S
C1667 C1666 1.369 1_655 S
C1667 C1668 1.410 . S
C1667 C1675 1.503 1_655 S
C1668 C1667 1.410 . S
C1668 C1669 1.392 . S
C1668 C1671 1.511 . S
C1669 C1665 1.376 . S
C1669 C1668 1.392 . S
C1669 H1681 0.929 . S
C1670 C1666 1.531 . S
C1670 H1682 0.960 . S
C1670 H1683 0.962 . S
C1670 H1684 0.960 . S
C1671 C1668 1.511 . S
C1671 H1685 0.961 . S
C1671 H1686 0.961 . S
C1671 H1687 0.961 . S
C1672 C1673 1.370 . S
C1672 C1674 1.363 . S
C1672 H1688 0.931 . S
C1673 C1672 1.370 . S
C1673 C1677 1.408 . S
C1674 C1672 1.363 . S
C1674 C1675 1.370 . S
C1674 C1678 1.524 . S
C1675 C1667 1.503 1_455 S
C1675 C1674 1.370 . S
C1675 C1676 1.403 . S
C1676 C1675 1.403 . S
C1676 C1677 1.404 . S
C1676 C1679 1.539 . S
C1677 C1673 1.408 . S
C1677 C1676 1.404 . S
C1677 H1689 0.930 . S
C1678 C1674 1.524 . S
C1678 H1690 0.956 . S
C1678 H1691 0.961 1_455 S
C1678 H1692 0.961 . S
C1679 C1676 1.539 . S
C1679 H1693 0.958 . S
C1679 H1694 0.961 1_455 S
C1679 H1695 0.960 1_455 S
H1680 C1664 0.931 1_455 S
H1681 C1669 0.929 . S
H1682 C1670 0.960 . S
H1683 C1670 0.962 . S
H1684 C1670 0.960 . S
H1685 C1671 0.961 . S
H1686 C1671 0.961 . S
H1687 C1671 0.961 . S
H1688 C1672 0.931 . S
H1689 C1677 0.930 . S
H1690 C1678 0.956 . S
H1691 C1678 0.961 1_655 S
H1692 C1678 0.961 . S
H1693 C1679 0.958 . S
H1694 C1679 0.961 1_655 S
H1695 C1679 0.960 1_655 S
C1696 C1697 1.391 . S
C1696 C1698 1.394 . S
C1696 H1712 0.931 . S
C1697 C1696 1.391 . S
C1697 C1701 1.376 . S
C1698 C1696 1.394 . S
C1698 C1699 1.369 . S
C1698 C1702 1.531 . S
C1699 C1698 1.369 . S
C1699 C1700 1.410 . S
C1699 C1707 1.503 1_544 S
C1700 C1699 1.410 . S
C1700 C1701 1.392 . S
C1700 C1703 1.511 1_545 S
C1701 C1697 1.376 . S
C1701 C1700 1.392 . S
C1701 H1713 0.929 . S
C1702 C1698 1.531 . S
C1702 H1714 0.969 1_545 S
C1702 H1715 0.935 1_554 S
C1702 H1716 0.960 . S
C1703 C1700 1.511 1_565 S
C1703 H1717 0.983 . S
C1703 H1718 1.024 . S
C1703 H1719 0.961 . S
C1704 C1705 1.370 . S
C1704 C1706 1.363 1_565 S
C1704 H1720 0.931 1_565 S
C1705 C1704 1.370 . S
C1705 C1709 1.408 . S
C1706 C1704 1.363 1_545 S
C1706 C1707 1.370 1_545 S
C1706 C1710 1.524 . S
C1707 C1699 1.503 1_566 S
C1707 C1706 1.370 1_565 S
C1707 C1708 1.403 . S
C1708 C1707 1.403 . S
C1708 C1709 1.404 . S
C1708 C1711 1.539 1_556 S
C1709 C1705 1.408 . S
C1709 C1708 1.404 . S
C1709 H1721 0.930 . S
C1710 C1706 1.524 . S
C1710 H1722 0.956 . S
C1710 H1723 0.961 . S
C1710 H1724 0.961 . S
C1711 C1708 1.539 1_554 S
C1711 H1725 0.958 . S
C1711 H1726 0.961 . S
C1711 H1727 0.960 . S
H1712 C1696 0.931 . S
H1713 C1701 0.929 . S
H1714 C1702 0.969 1_565 S
H1715 C1702 0.935 1_556 S
H1716 C1702 0.960 . S
H1717 C1703 0.983 . S
H1718 C1703 1.024 . S
H1719 C1703 0.961 . S
H1720 C1704 0.931 1_545 S
H1721 C1709 0.930 . S
H1722 C1710 0.956 . S
H1723 C1710 0.961 . S
H1724 C1710 0.961 . S
H1725 C1711 0.958 . S
H1726 C1711 0.961 . S
H1727 C1711 0.960 . S
C1728 C1729 1.391 . S
C1728 C1730 1.394 . S
C1728 H1744 0.931 . S
C1729 C1728 1.391 . S
C1729 C1733 1.376 . S
C1730 C1728 1.394 . S
C1730 C1731 1.369 . S
C1730 C1734 1.531 . S
C1731 C1730 1.369 . S
C1731 C1732 1.410 . S
C1731 C1739 1.503 . S
C1732 C1731 1.410 . S
C1732 C1733 1.392 . S
C1732 C1735 1.511 . S
C1733 C1729 1.376 . S
C1733 C1732 1.392 . S
C1733 H1745 0.929 . S
C1734 C1730 1.531 . S
C1734 H1746 0.960 . S
C1734 H1747 0.962 . S
C1734 H1748 0.960 . S
C1735 C1732 1.511 . S
C1735 H1749 0.961 . S
C1735 H1750 0.961 . S
C1735 H1751 0.961 . S
C1736 C1737 1.370 . S
C1736 C1738 1.363 . S
C1736 H1752 0.931 . S
C1737 C1736 1.370 . S
C1737 C1741 1.408 . S
C1738 C1736 1.363 . S
C1738 C1739 1.370 . S
C1738 C1742 1.524 . S
C1739 C1731 1.503 . S
C1739 C1738 1.370 . S
C1739 C1740 1.403 . S
C1740 C1739 1.403 . S
C1740 C1741 1.404 . S
C1740 C1743 1.539 . S
C1741 C1737 1.408 . S
C1741 C1740 1.404 . S
C1741 H1753 0.930 . S
C1742 C1738 1.524 . S
C1742 H1754 0.956 . S
C1742 H1755 0.961 . S
C1742 H1756 0.961 . S
C1743 C1740 1.539 . S
C1743 H1757 0.958 . S
C1743 H1758 0.961 . S
C1743 H1759 0.960 . S
H1744 C1728 0.931 . S
H1745 C1733 0.929 . S
H1746 C1734 0.960 . S
H1747 C1734 0.962 . S
H1748 C1734 0.960 . S
H1749 C1735 0.961 . S
H1750 C1735 0.961 . S
H1751 C1735 0.961 . S
H1752 C1736 0.931 . S
H1753 C1741 0.930 . S
H1754 C1742 0.956 . S
H1755 C1742 0.961 . S
H1756 C1742 0.961 . S
H1757 C1743 0.958 . S
H1758 C1743 0.961 . S
H1759 C1743 0.960 . S
C1760 C1761 1.391 . S
C1760 C1762 1.394 1_455 S
C1760 H1776 0.931 1_455 S
C1761 C1760 1.391 . S
C1761 C1765 1.376 . S
C1762 C1760 1.394 1_655 S
C1762 C1763 1.369 1_655 S
C1762 C1766 1.531 . S
C1763 C1762 1.369 1_455 S
C1763 C1764 1.410 . S
C1763 C1771 1.503 1_455 S
C1764 C1763 1.410 . S
C1764 C1765 1.392 . S
C1764 C1767 1.511 . S
C1765 C1761 1.376 . S
C1765 C1764 1.392 . S
C1765 H1777 0.929 . S
C1766 C1762 1.531 . S
C1766 H1778 0.960 . S
C1766 H1779 0.962 . S
C1766 H1780 0.960 . S
C1767 C1764 1.511 . S
C1767 H1781 0.961 . S
C1767 H1782 0.961 . S
C1767 H1783 0.961 . S
C1768 C1769 1.370 . S
C1768 C1770 1.363 . S
C1768 H1784 0.931 . S
C1769 C1768 1.370 . S
C1769 C1773 1.408 . S
C1770 C1768 1.363 . S
C1770 C1771 1.370 . S
C1770 C1774 1.524 1_655 S
C1771 C1763 1.503 1_655 S
C1771 C1770 1.370 . S
C1771 C1772 1.403 . S
C1772 C1771 1.403 . S
C1772 C1773 1.404 . S
C1772 C1775 1.539 . S
C1773 C1769 1.408 . S
C1773 C1772 1.404 . S
C1773 H1785 0.930 . S
C1774 C1770 1.524 1_455 S
C1774 H1786 0.956 1_455 S
C1774 H1787 0.961 . S
C1774 H1788 0.961 . S
C1775 C1772 1.539 . S
C1775 H1789 0.958 . S
C1775 H1790 0.961 . S
C1775 H1791 0.960 . S
H1776 C1760 0.931 1_655 S
H1777 C1765 0.929 . S
H1778 C1766 0.960 . S
H1779 C1766 0.962 . S
H1780 C1766 0.960 . S
H1781 C1767 0.961 . S
H1782 C1767 0.961 . S
H1783 C1767 0.961 . S
H1784 C1768 0.931 . S
H1785 C1773 0.930 . S
H1786 C1774 0.956 1_655 S
H1787 C1774 0.961 . S
H1788 C1774 0.961 . S
H1789 C1775 0.958 . S
H1790 C1775 0.961 . S
H1791 C1775 0.960 . S
C1792 C1793 1.391 . S
C1792 C1794 1.394 . S
C1792 H1808 0.931 . S
C1793 C1792 1.391 . S
C1793 C1797 1.376 . S
C1794 C1792 1.394 . S
C1794 C1795 1.358 . S
C1794 C1798 1.531 1_565 S
C1795 C1794 1.358 . S
C1795 C1796 1.436 . S
C1795 C1803 1.492 1_564 S
C1796 C1795 1.436 . S
C1796 C1797 1.392 . S
C1796 C1799 1.511 . S
C1797 C1793 1.376 . S
C1797 C1796 1.392 . S
C1797 H1809 0.929 . S
C1798 C1794 1.531 1_545 S
C1798 H1810 0.960 . S
C1798 H1811 0.962 1_545 S
C1798 H1812 0.960 . S
C1799 C1796 1.511 . S
C1799 H1813 0.961 . S
C1799 H1814 0.961 1_554 S
C1799 H1815 0.961 1_565 S
C1800 C1801 1.370 . S
C1800 C1802 1.363 1_545 S
C1800 H1816 0.931 1_545 S
C1801 C1800 1.370 . S
C1801 C1805 1.408 . S
C1802 C1800 1.363 1_565 S
C1802 C1803 1.370 1_565 S
C1802 C1806 1.524 . S
C1803 C1795 1.492 1_546 S
C1803 C1802 1.370 1_545 S
C1803 C1804 1.403 . S
C1804 C1803 1.403 . S
C1804 C1805 1.404 . S
C1804 C1807 1.539 1_556 S
C1805 C1801 1.408 . S
C1805 C1804 1.404 . S
C1805 H1817 0.930 . S
C1806 C1802 1.524 . S
C1806 H1818 0.956 . S
C1806 H1819 0.961 . S
C1806 H1820 0.961 . S
C1807 C1804 1.539 1_554 S
C1807 H1821 0.958 . S
C1807 H1822 0.961 . S
C1807 H1823 0.960 . S
H1808 C1792 0.931 . S
H1809 C1797 0.929 . S
H1810 C1798 0.960 . S
H1811 C1798 0.962 1_565 S
H1812 C1798 0.960 . S
H1813 C1799 0.961 . S
H1814 C1799 0.961 1_556 S
H1815 C1799 0.961 1_545 S
H1816 C1800 0.931 1_565 S
H1817 C1805 0.930 . S
H1818 C1806 0.956 . S
H1819 C1806 0.961 . S
H1820 C1806 0.961 . S
H1821 C1807 0.958 . S
H1822 C1807 0.961 . S
H1823 C1807 0.960 . S
C1057 C1017 1.726 . S
C1065 C20 1.727 . S
C1089 C108 1.739 . S
C1097 C585 1.735 . S
C1121 C205 1.736 . S
C1129 C673 1.732 . S
C1153 C284 1.716 . S
C1161 C761 1.724 . S
C1185 C841 1.739 . S
C1193 C372 1.735 . S
C1217 C469 1.738 . S
C1225 C937 1.734 . S
C1249 C313 1.555 . S
C1257 C49 1.602 . S
C1281 C401 1.582 . S
C1289 C137 1.602 . S
C1313 C497 1.623 . S
C1321 C233 1.584 . S
C1345 C557 1.623 . S
C1353 C812 1.583 . S
C1377 C645 1.547 . S
C1385 C909 1.611 . S
C1409 C733 1.629 . S
C1417 C988 1.579 . S
C1441 C724 0.303 . S
C1449 C57 0.336 . S
C1473 C145 0.393 . S
C1481 C821 0.332 . S
C1505 C900 0.301 . S
C1513 C225 0.343 . S
C1537 C997 0.305 . S
C1545 C321 0.334 . S
C1569 C548 0.392 . S
C1577 C409 0.333 . S
C1601 C489 0.371 . S
C1609 C636 0.308 . S
C1633 C849 1.716 . S
C1641 C29 1.740 . S
C1665 C117 1.727 . S
C1673 C929 1.729 . S
C1697 C1025 1.709 . S
C1705 C196 1.741 . S
C1729 C293 1.712 . S
C1737 C577 1.741 . S
C1761 C381 1.721 . S
C1769 C665 1.731 . S
C1793 C753 1.708 . S
C1801 C460 1.740 . S
