# Generated by pormake.
# Topology crb, (4)-cn, num edge types: 1
# Building blocks:
#     Node 0, Type 0, BuildingBlock: ICAMEG_clean_sbu_1, # of connection points: 4
#     Node 1, Type 0, BuildingBlock: ICAMEG_clean_sbu_1, # of connection points: 4
#     Node 2, Type 0, BuildingBlock: ICAMEG_clean_sbu_1, # of connection points: 4
#     Node 3, Type 0, BuildingBlock: ICAMEG_clean_sbu_1, # of connection points: 4
#     Node 4, Type 0, BuildingBlock: ICAMEG_clean_sbu_1, # of connection points: 4
#     Node 5, Type 0, BuildingBlock: ICAMEG_clean_sbu_1, # of connection points: 4
#     Node 6, Type 0, BuildingBlock: ICAMEG_clean_sbu_1, # of connection points: 4
#     Node 7, Type 0, BuildingBlock: ICAMEG_clean_sbu_1, # of connection points: 4
#     Edge 8, Type (0, 0), BuildingBlock: XUDNAN_clean_linker_2, # of connection points: 2
#     Edge 9, Type (0, 0), BuildingBlock: XUDNAN_clean_linker_2, # of connection points: 2
#     Edge 10, Type (0, 0), BuildingBlock: XUDNAN_clean_linker_2, # of connection points: 2
#     Edge 11, Type (0, 0), BuildingBlock: XUDNAN_clean_linker_2, # of connection points: 2
#     Edge 12, Type (0, 0), BuildingBlock: XUDNAN_clean_linker_2, # of connection points: 2
#     Edge 13, Type (0, 0), BuildingBlock: XUDNAN_clean_linker_2, # of connection points: 2
#     Edge 14, Type (0, 0), BuildingBlock: XUDNAN_clean_linker_2, # of connection points: 2
#     Edge 15, Type (0, 0), BuildingBlock: XUDNAN_clean_linker_2, # of connection points: 2
#     Edge 16, Type (0, 0), BuildingBlock: XUDNAN_clean_linker_2, # of connection points: 2
#     Edge 17, Type (0, 0), BuildingBlock: XUDNAN_clean_linker_2, # of connection points: 2
#     Edge 18, Type (0, 0), BuildingBlock: XUDNAN_clean_linker_2, # of connection points: 2
#     Edge 19, Type (0, 0), BuildingBlock: XUDNAN_clean_linker_2, # of connection points: 2
#     Edge 20, Type (0, 0), BuildingBlock: XUDNAN_clean_linker_2, # of connection points: 2
#     Edge 21, Type (0, 0), BuildingBlock: XUDNAN_clean_linker_2, # of connection points: 2
#     Edge 22, Type (0, 0), BuildingBlock: XUDNAN_clean_linker_2, # of connection points: 2
#     Edge 23, Type (0, 0), BuildingBlock: XUDNAN_clean_linker_2, # of connection points: 2
# Relax obj value: 0.184
# Max RMSD: 0.234
# Mean RMSD: 0.234
data_MOF--net-crb--node1-ICAMEG_clean_sbu_1--edge1-XUDNAN_clean_linker_2
_symmetry_space_group_name_H-M    P1
_symmetry_Int_Tables_number       1
_symmetry_cell_setting            triclinic
loop_
_symmetry_equiv_pos_as_xyz
'x, y, z'
_cell_length_a     44.427386
_cell_length_b     44.537003
_cell_length_c     25.36733
_cell_angle_alpha  90.199717
_cell_angle_beta   89.677666
_cell_angle_gamma 89.648131
loop_
_atom_site_label
_atom_site_type_symbol
_atom_site_fract_x
_atom_site_fract_y
_atom_site_fract_z
_atom_type_partial_charge
Co0 Co 0.3646 0.34772 0.98099 0.0
Co1 Co 0.35327 0.35727 0.11256 0.0
O2 O 0.34542 0.33523 0.04721 0.0
C3 C 0.3103 0.34139 0.9104 0.0
O4 O 0.30889 0.37047 0.9024 0.0
C5 C 0.34421 0.29222 0.1442 0.0
O6 O 0.3398 0.28408 0.09518 0.0
O7 O 0.39683 0.34877 0.10201 0.0
O8 O 0.40108 0.36378 0.01841 0.0
H9 H 0.40902 0.43269 0.22191 0.0
H10 H 0.34486 0.28441 0.9919 0.0
O11 O 0.32939 0.33036 0.94241 0.0
H12 H 0.45333 0.27853 0.95072 0.0
H13 H 0.3939 0.33696 0.78941 0.0
H14 H 0.39565 0.40288 0.94587 0.0
H15 H 0.42743 0.32749 0.95588 0.0
H16 H 0.37197 0.32028 0.8737 0.0
O17 O 0.35011 0.31942 0.156 0.0
H18 H 0.39684 0.40461 0.14089 0.0
H19 H 0.32958 0.35583 0.22314 0.0
H20 H 0.41816 0.42038 0.86254 0.0
H21 H 0.36978 0.2349 0.9864 0.0
H22 H 0.41734 0.38734 0.78348 0.0
H23 H 0.42445 0.23172 0.96592 0.0
O24 O 0.34444 0.38745 0.98858 0.0
H25 H 0.24295 0.33125 0.11 0.0
H26 H 0.31684 0.41102 0.14356 0.0
H27 H 0.26282 0.42206 0.15426 0.0
H28 H 0.22538 0.38194 0.13786 0.0
H29 H 0.29705 0.32137 0.09886 0.0
H30 H 0.34135 0.38306 0.30522 0.0
H31 H 0.38118 0.42195 0.30485 0.0
O32 O 0.35636 0.39628 0.07288 0.0
C33 C 0.41279 0.35548 0.06186 0.0
C34 C 0.39156 0.41585 0.22254 0.0
C35 C 0.35361 0.38797 0.26931 0.0
N36 N 0.36238 0.37878 0.17715 0.0
C37 C 0.3845 0.39995 0.17675 0.0
C38 C 0.34714 0.37253 0.22275 0.0
C39 C 0.37595 0.4098 0.26907 0.0
C40 C 0.36865 0.28325 0.98307 0.0
N41 N 0.38471 0.30891 0.9751 0.0
C42 C 0.38264 0.25513 0.97992 0.0
C43 C 0.41331 0.25336 0.96843 0.0
C44 C 0.42952 0.2796 0.95995 0.0
C45 C 0.41475 0.3073 0.96328 0.0
C46 C 0.39433 0.35161 0.82353 0.0
C47 C 0.39519 0.38835 0.9117 0.0
C48 C 0.38178 0.34232 0.87132 0.0
N49 N 0.38231 0.36062 0.91466 0.0
C50 C 0.40798 0.3984 0.86459 0.0
C51 C 0.4075 0.37986 0.82024 0.0
C52 C 0.3477 0.4053 0.02761 0.0
C53 C 0.25905 0.34885 0.11776 0.0
C54 C 0.3008 0.39338 0.13633 0.0
C55 C 0.27018 0.3998 0.14249 0.0
C56 C 0.2492 0.3773 0.13328 0.0
N57 N 0.3104 0.36528 0.12181 0.0
C58 C 0.28987 0.34328 0.11194 0.0
Co59 Co 0.69065 0.33944 0.08017 0.0
Co60 Co 0.6849 0.35245 0.94542 0.0
O61 O 0.70358 0.33227 1.00665 0.0
C62 C 0.7483 0.35521 0.13297 0.0
O63 O 0.73763 0.38242 0.14088 0.0
C64 C 0.69882 0.28858 0.90786 0.0
O65 O 0.70915 0.28076 0.95415 0.0
O66 O 0.64372 0.34039 0.96975 0.0
O67 O 0.64751 0.34092 0.05825 0.0
H68 H 0.60923 0.42005 0.85828 0.0
H69 H 0.72972 0.28727 0.0544 0.0
O70 O 0.73369 0.33656 0.10474 0.0
H71 H 0.64068 0.24451 0.14257 0.0
H72 H 0.68925 0.32392 0.27752 0.0
H73 H 0.64799 0.3824 0.12962 0.0
H74 H 0.64536 0.29923 0.13076 0.0
H75 H 0.70469 0.31277 0.18618 0.0
O76 O 0.68784 0.31479 0.90055 0.0
H77 H 0.63365 0.39475 0.93315 0.0
H78 H 0.69598 0.3523 0.8289 0.0
H79 H 0.63146 0.39406 0.22035 0.0
H80 H 0.72648 0.23246 0.06648 0.0
H81 H 0.65222 0.36481 0.29515 0.0
H82 H 0.68158 0.2107 0.1105 0.0
O83 O 0.69435 0.38359 0.06976 0.0
H84 H 0.79603 0.33851 0.90999 0.0
H85 H 0.71052 0.40931 0.90353 0.0
H86 H 0.76069 0.42606 0.87514 0.0
H87 H 0.80392 0.39048 0.87783 0.0
H88 H 0.74571 0.32291 0.93893 0.0
H89 H 0.672 0.3769 0.75289 0.0
H90 H 0.6284 0.41118 0.76734 0.0
O91 O 0.68151 0.39112 0.98553 0.0
C92 C 0.63218 0.33911 1.01595 0.0
C93 C 0.62825 0.40521 0.85147 0.0
C94 C 0.66345 0.38095 0.79232 0.0
N95 N 0.66629 0.37215 0.88552 0.0
C96 C 0.64222 0.39086 0.89374 0.0
C97 C 0.67685 0.36698 0.83553 0.0
C98 C 0.639 0.4002 0.80046 0.0
C99 C 0.71004 0.27796 0.07333 0.0
N100 N 0.68723 0.29636 0.09024 0.0
C101 C 0.70837 0.2469 0.08017 0.0
C102 C 0.68317 0.23471 0.10485 0.0
C103 C 0.66017 0.25365 0.12267 0.0
C104 C 0.66267 0.28459 0.11513 0.0
C105 C 0.68016 0.33696 0.24533 0.0
C106 C 0.65717 0.36956 0.1619 0.0
C107 C 0.68907 0.3309 0.19349 0.0
N108 N 0.67771 0.34718 0.15249 0.0
C109 C 0.6477 0.37627 0.21323 0.0
C110 C 0.65936 0.35986 0.25517 0.0
C111 C 0.68788 0.40082 0.0314 0.0
C112 C 0.77732 0.35415 0.90815 0.0
C113 C 0.72911 0.39363 0.90493 0.0
C114 C 0.75753 0.40328 0.88871 0.0
C115 C 0.78176 0.38332 0.89022 0.0
N116 N 0.72476 0.36483 0.92185 0.0
C117 C 0.74857 0.34532 0.92412 0.0
Co118 Co 0.67681 0.68329 0.07508 0.0
Co119 Co 0.66921 0.66909 0.94333 0.0
O120 O 0.68529 0.69346 1.00124 0.0
C121 C 0.66292 0.74116 0.12806 0.0
O122 O 0.63794 0.72889 0.14541 0.0
C123 C 0.73033 0.6908 0.90503 0.0
O124 O 0.73585 0.70349 0.95064 0.0
O125 O 0.68801 0.63225 0.97383 0.0
O126 O 0.67499 0.63924 0.05838 0.0
H127 H 0.61731 0.57884 0.8677 0.0
H128 H 0.7295 0.72175 0.05223 0.0
O129 O 0.6792 0.72717 0.09426 0.0
H130 H 0.77148 0.63178 0.13816 0.0
H131 H 0.69245 0.68787 0.27209 0.0
H132 H 0.63244 0.64418 0.1283 0.0
H133 H 0.71688 0.63693 0.12461 0.0
H134 H 0.7034 0.70056 0.17956 0.0
O135 O 0.70621 0.67593 0.89803 0.0
H136 H 0.63688 0.61106 0.93866 0.0
H137 H 0.6679 0.67417 0.82583 0.0
H138 H 0.62077 0.63086 0.22041 0.0
H139 H 0.78423 0.71781 0.06591 0.0
H140 H 0.65084 0.65281 0.29308 0.0
H141 H 0.80562 0.6725 0.10893 0.0
O142 O 0.63254 0.68721 0.06084 0.0
H143 H 0.66393 0.77807 0.89039 0.0
H144 H 0.60834 0.68283 0.90096 0.0
H145 H 0.58307 0.7278 0.86586 0.0
H146 H 0.61095 0.77585 0.86 0.0
H147 H 0.68812 0.73282 0.92606 0.0
H148 H 0.64874 0.64253 0.7536 0.0
H149 H 0.62316 0.59453 0.77434 0.0
O150 O 0.63154 0.66146 0.98465 0.0
C151 C 0.68356 0.62231 0.02036 0.0
C152 C 0.62834 0.59975 0.85815 0.0
C153 C 0.64604 0.63547 0.79412 0.0
N154 N 0.65344 0.64454 0.88651 0.0
C155 C 0.63943 0.61813 0.89819 0.0
C156 C 0.65692 0.65324 0.8352 0.0
C157 C 0.63167 0.60855 0.80578 0.0
C158 C 0.73855 0.702 0.07119 0.0
N159 N 0.7199 0.67945 0.08707 0.0
C160 C 0.76961 0.69988 0.07873 0.0
C161 C 0.78159 0.67445 0.10281 0.0
C162 C 0.76246 0.65157 0.1191 0.0
C163 C 0.73153 0.65448 0.11088 0.0
C164 C 0.67917 0.67816 0.24079 0.0
C165 C 0.6456 0.65388 0.15967 0.0
C166 C 0.68527 0.68524 0.18825 0.0
N167 N 0.66845 0.67326 0.1484 0.0
C168 C 0.63892 0.64621 0.21177 0.0
C169 C 0.65581 0.65851 0.25253 0.0
C170 C 0.61836 0.67341 0.02441 0.0
C171 C 0.65164 0.75719 0.89221 0.0
C172 C 0.62075 0.70358 0.89841 0.0
C173 C 0.60626 0.72901 0.87852 0.0
C174 C 0.6219 0.75595 0.87527 0.0
N175 N 0.6501 0.70481 0.91433 0.0
C176 C 0.66537 0.73131 0.91199 0.0
Co177 Co 0.33623 0.68658 0.98369 0.0
Co178 Co 0.35145 0.67667 0.11437 0.0
O179 O 0.32971 0.69719 0.0579 0.0
C180 C 0.33761 0.74559 0.92759 0.0
O181 O 0.36461 0.73917 0.90925 0.0
C182 C 0.28758 0.67597 0.15165 0.0
O183 O 0.27987 0.66543 0.10531 0.0
O184 O 0.33746 0.63675 0.08771 0.0
O185 O 0.34528 0.64373 1.00137 0.0
H186 H 0.41871 0.59661 0.18929 0.0
H187 H 0.27971 0.7166 0.01813 0.0
O188 O 0.32602 0.72922 0.96362 0.0
H189 H 0.24759 0.62201 0.93478 0.0
H190 H 0.31144 0.68452 0.78935 0.0
H191 H 0.38359 0.65304 0.92539 0.0
H192 H 0.30129 0.63511 0.93889 0.0
H193 H 0.30239 0.69689 0.88271 0.0
O194 O 0.3152 0.68058 0.16187 0.0
H195 H 0.39223 0.62383 0.11871 0.0
H196 H 0.35566 0.68519 0.2309 0.0
H197 H 0.39355 0.63991 0.83252 0.0
H198 H 0.22568 0.70465 1.0141 0.0
H199 H 0.35735 0.65579 0.76359 0.0
H200 H 0.20929 0.65701 0.97228 0.0
O201 O 0.38002 0.69614 0.99145 0.0
H202 H 0.3392 0.78507 0.16649 0.0
H203 H 0.41114 0.701 0.14626 0.0
H204 H 0.42934 0.75029 0.17639 0.0
H205 H 0.39323 0.79273 0.18696 0.0
H206 H 0.32202 0.73548 0.13565 0.0
H207 H 0.38165 0.65855 0.30273 0.0
H208 H 0.41351 0.61396 0.28209 0.0
O209 O 0.38848 0.6733 0.06914 0.0
C210 C 0.34071 0.62662 0.0408 0.0
C211 C 0.40496 0.61606 0.19878 0.0
C212 C 0.38412 0.6508 0.26245 0.0
N213 N 0.37253 0.65615 0.17062 0.0
C214 C 0.38996 0.6316 0.15896 0.0
C215 C 0.3694 0.66574 0.22162 0.0
C216 C 0.40201 0.62579 0.25084 0.0
C217 C 0.27278 0.69596 0.9994 0.0
N218 N 0.29374 0.67667 0.97851 0.0
C219 C 0.24214 0.68926 0.99742 0.0
C220 C 0.23296 0.66251 0.97406 0.0
C221 C 0.25444 0.64285 0.95308 0.0
C222 C 0.28488 0.6503 0.95579 0.0
C223 C 0.32752 0.67765 0.81892 0.0
C224 C 0.3679 0.66025 0.89574 0.0
C225 C 0.32259 0.68478 0.87194 0.0
N226 N 0.34281 0.67634 0.90966 0.0
C227 C 0.37357 0.65264 0.84314 0.0
C228 C 0.35325 0.66152 0.80451 0.0
C229 C 0.3977 0.68544 0.02652 0.0
C230 C 0.35513 0.76673 0.16218 0.0
C231 C 0.39529 0.71938 0.15048 0.0
C232 C 0.40573 0.74723 0.16771 0.0
C233 C 0.38545 0.77102 0.17362 0.0
N234 N 0.36549 0.71532 0.13945 0.0
C235 C 0.34551 0.73858 0.14491 0.0
Co236 Co 0.84489 0.84275 0.44271 0.0
Co237 Co 0.82812 0.85815 0.5741 0.0
O238 O 0.82083 0.83642 0.50732 0.0
C239 C 0.78027 0.83715 0.40244 0.0
O240 O 0.76873 0.83521 0.45001 0.0
C241 C 0.82625 0.79357 0.60833 0.0
O242 O 0.83996 0.7852 0.56469 0.0
O243 O 0.87206 0.84814 0.57158 0.0
O244 O 0.88242 0.84537 0.48503 0.0
H245 H 0.88218 0.93092 0.69158 0.0
H246 H 0.805 0.78937 0.45362 0.0
O247 O 0.80853 0.8404 0.39571 0.0
H248 H 0.90611 0.74823 0.41647 0.0
H249 H 0.87631 0.82436 0.25398 0.0
H250 H 0.89513 0.8834 0.41515 0.0
H251 H 0.89778 0.80287 0.42154 0.0
H252 H 0.84594 0.81613 0.33421 0.0
O253 O 0.82019 0.82113 0.61677 0.0
H254 H 0.87272 0.90324 0.60906 0.0
H255 H 0.79847 0.85902 0.68018 0.0
H256 H 0.92632 0.89201 0.33602 0.0
H257 H 0.81215 0.73467 0.44789 0.0
H258 H 0.91697 0.86239 0.25465 0.0
H259 H 0.86305 0.71367 0.4294 0.0
O260 O 0.8391 0.88723 0.44809 0.0
H261 H 0.71769 0.83504 0.56608 0.0
H262 H 0.79283 0.91468 0.59166 0.0
H263 H 0.73884 0.92762 0.59435 0.0
H264 H 0.70081 0.88762 0.5817 0.0
H265 H 0.77197 0.82319 0.56292 0.0
H266 H 0.80743 0.88589 0.76368 0.0
H267 H 0.84944 0.92227 0.7697 0.0
O268 O 0.83588 0.89608 0.53506 0.0
C269 C 0.89058 0.84601 0.53303 0.0
C270 C 0.86378 0.91516 0.68944 0.0
C271 C 0.82185 0.88986 0.72992 0.0
N272 N 0.83502 0.87959 0.63968 0.0
C273 C 0.85826 0.89946 0.64277 0.0
C274 C 0.81696 0.87462 0.68256 0.0
C275 C 0.84541 0.91028 0.73326 0.0
C276 C 0.82708 0.7806 0.44461 0.0
N277 N 0.85083 0.79951 0.43726 0.0
C278 C 0.83106 0.7495 0.44183 0.0
C279 C 0.85963 0.73772 0.4316 0.0
C280 C 0.88379 0.75709 0.4244 0.0
C281 C 0.87895 0.78806 0.42752 0.0
C282 C 0.88062 0.83739 0.28921 0.0
C283 C 0.89103 0.87028 0.38001 0.0
C284 C 0.86341 0.83291 0.33472 0.0
N285 N 0.86885 0.84914 0.37949 0.0
C286 C 0.90871 0.87532 0.33526 0.0
C287 C 0.90344 0.85872 0.28962 0.0
C288 C 0.8381 0.90506 0.48763 0.0
C289 C 0.73403 0.85267 0.57169 0.0
C290 C 0.77647 0.8972 0.58553 0.0
C291 C 0.7459 0.90464 0.5874 0.0
C292 C 0.72458 0.88218 0.58038 0.0
N293 N 0.78558 0.86821 0.57695 0.0
C294 C 0.7648 0.84607 0.57012 0.0
Co295 Co 0.16469 0.84149 0.44956 0.0
Co296 Co 0.16917 0.8499 0.58279 0.0
O297 O 0.18003 0.82807 0.51781 0.0
C298 C 0.17487 0.77445 0.43594 0.0
O299 O 0.18633 0.77174 0.48323 0.0
C300 C 0.22777 0.84803 0.64294 0.0
O301 O 0.22858 0.87746 0.64571 0.0
O302 O 0.18831 0.88686 0.55342 0.0
O303 O 0.16745 0.88459 0.47297 0.0
H304 H 0.13195 0.93997 0.68424 0.0
H305 H 0.22375 0.80924 0.46825 0.0
O306 O 0.16248 0.79899 0.42158 0.0
H307 H 0.24709 0.88792 0.33913 0.0
H308 H 0.14962 0.83891 0.25238 0.0
H309 H 0.12011 0.88791 0.41959 0.0
H310 H 0.1959 0.88296 0.37425 0.0
H311 H 0.17239 0.82297 0.33611 0.0
O312 O 0.20796 0.83511 0.61471 0.0
H313 H 0.14393 0.9103 0.60474 0.0
H314 H 0.17087 0.83668 0.69922 0.0
H315 H 0.09719 0.90487 0.33652 0.0
H316 H 0.27481 0.81285 0.43283 0.0
H317 H 0.1119 0.8803 0.25212 0.0
H318 H 0.28706 0.85244 0.36766 0.0
O319 O 0.12269 0.83822 0.4782 0.0
H320 H 0.16208 0.73906 0.61728 0.0
H321 H 0.11075 0.8368 0.63762 0.0
H322 H 0.08564 0.791 0.66882 0.0
H323 H 0.11139 0.74162 0.65892 0.0
H324 H 0.18618 0.78544 0.58609 0.0
H325 H 0.15941 0.86546 0.77983 0.0
H326 H 0.13979 0.91763 0.77273 0.0
O327 O 0.12957 0.86339 0.55335 0.0
C328 C 0.1809 0.89901 0.50963 0.0
C329 C 0.14079 0.91738 0.68793 0.0
C330 C 0.15623 0.8756 0.74154 0.0
N331 N 0.15914 0.872 0.64709 0.0
C332 C 0.14781 0.9005 0.64298 0.0
C333 C 0.16301 0.85944 0.69568 0.0
C334 C 0.14516 0.90483 0.73754 0.0
C335 C 0.22813 0.826 0.43897 0.0
N336 N 0.20587 0.84498 0.42208 0.0
C337 C 0.2575 0.82819 0.41944 0.0
C338 C 0.26439 0.85044 0.38304 0.0
C339 C 0.24199 0.87031 0.36703 0.0
C340 C 0.21286 0.86735 0.38726 0.0
C341 C 0.14306 0.84982 0.2889 0.0
C342 C 0.12687 0.87729 0.38301 0.0
C343 C 0.15574 0.84077 0.33657 0.0
N344 N 0.14779 0.85466 0.38286 0.0
C345 C 0.11371 0.8869 0.33609 0.0
C346 C 0.12192 0.87307 0.28877 0.0
C347 C 0.11232 0.85194 0.51878 0.0
C348 C 0.15058 0.76042 0.62169 0.0
C349 C 0.12193 0.81544 0.63247 0.0
C350 C 0.10768 0.78955 0.65056 0.0
C351 C 0.12215 0.76187 0.64505 0.0
N352 N 0.14981 0.81388 0.60947 0.0
C353 C 0.1641 0.78679 0.60401 0.0
Co354 Co 0.18852 0.16853 0.58328 0.0
Co355 Co 0.17526 0.18021 0.45315 0.0
O356 O 0.19869 0.18829 0.51672 0.0
C357 C 0.19282 0.22208 0.65632 0.0
O358 O 0.16409 0.22055 0.66835 0.0
C359 C 0.23924 0.17934 0.41633 0.0
O360 O 0.24678 0.16445 0.45882 0.0
O361 O 0.1853 0.13705 0.46021 0.0
O362 O 0.17454 0.13091 0.54592 0.0
H363 H 0.10087 0.12273 0.34439 0.0
H364 H 0.25002 0.19244 0.56639 0.0
O365 O 0.20422 0.20475 0.62133 0.0
H366 H 0.26459 0.08537 0.60869 0.0
H367 H 0.20423 0.13949 0.77331 0.0
H368 H 0.13587 0.13437 0.62114 0.0
H369 H 0.21372 0.10757 0.60681 0.0
H370 H 0.21824 0.16263 0.68862 0.0
O371 O 0.21192 0.18659 0.40826 0.0
H372 H 0.12952 0.13489 0.42459 0.0
H373 H 0.1732 0.20628 0.34484 0.0
H374 H 0.12107 0.1106 0.70492 0.0
H375 H 0.30141 0.17135 0.56903 0.0
H376 H 0.15535 0.11312 0.78181 0.0
H377 H 0.30896 0.11739 0.58997 0.0
O378 O 0.14734 0.18653 0.5792 0.0
H379 H 0.19915 0.2903 0.45624 0.0
H380 H 0.11903 0.21538 0.43281 0.0
H381 H 0.1065 0.26927 0.42724 0.0
H382 H 0.14675 0.30717 0.43884 0.0
H383 H 0.21062 0.23613 0.46196 0.0
H384 H 0.14527 0.19469 0.26365 0.0
H385 H 0.10868 0.15274 0.26315 0.0
O386 O 0.13736 0.17437 0.49531 0.0
C387 C 0.1802 0.12028 0.49992 0.0
C388 C 0.11668 0.14113 0.34416 0.0
C389 C 0.14162 0.18149 0.29883 0.0
N390 N 0.15283 0.17141 0.38957 0.0
C391 C 0.1329 0.14817 0.38951 0.0
C392 C 0.15744 0.18789 0.3449 0.0
C393 C 0.12109 0.15795 0.29858 0.0
C394 C 0.2531 0.169 0.57601 0.0
N395 N 0.22878 0.15122 0.58606 0.0
C396 C 0.28227 0.15716 0.57725 0.0
C397 C 0.28649 0.12688 0.58892 0.0
C398 C 0.26161 0.1089 0.59932 0.0
C399 C 0.2328 0.12153 0.59778 0.0
C400 C 0.18906 0.13829 0.74014 0.0
C401 C 0.15093 0.13555 0.65439 0.0
C402 C 0.19683 0.1515 0.69214 0.0
N403 N 0.17785 0.15001 0.65 0.0
C404 C 0.14241 0.12205 0.70174 0.0
C405 C 0.16165 0.12348 0.74487 0.0
C406 C 0.12909 0.18309 0.54108 0.0
C407 C 0.18143 0.27401 0.451 0.0
C408 C 0.13666 0.23172 0.43802 0.0
C409 C 0.12944 0.26221 0.43473 0.0
C410 C 0.15202 0.28346 0.44126 0.0
N411 N 0.16557 0.22262 0.44752 0.0
C412 C 0.18781 0.24332 0.45409 0.0
Co413 Co 0.85898 0.17476 0.5826 0.0
Co414 Co 0.85329 0.18624 0.4508 0.0
O415 O 0.84019 0.19593 0.5229 0.0
C416 C 0.79348 0.18156 0.61233 0.0
O417 O 0.78571 0.17754 0.563 0.0
C418 C 0.8605 0.2474 0.405 0.0
O419 O 0.88963 0.2425 0.4023 0.0
O420 O 0.89476 0.1984 0.47105 0.0
O421 O 0.89841 0.17035 0.54358 0.0
H422 H 0.92593 0.14313 0.31783 0.0
H423 H 0.83056 0.23457 0.59831 0.0
O424 O 0.821 0.17942 0.62561 0.0
H425 H 0.93505 0.24584 0.6595 0.0
H426 H 0.88021 0.15518 0.77443 0.0
H427 H 0.89767 0.12054 0.59191 0.0
H428 H 0.91719 0.19714 0.62601 0.0
H429 H 0.85829 0.18277 0.69969 0.0
O430 O 0.84334 0.22844 0.42769 0.0
H431 H 0.90674 0.15481 0.40698 0.0
H432 H 0.82962 0.1969 0.34184 0.0
H433 H 0.92023 0.09245 0.66547 0.0
H434 H 0.84737 0.28358 0.63227 0.0
H435 H 0.91155 0.10973 0.75755 0.0
H436 H 0.89999 0.28948 0.66303 0.0
O437 O 0.84514 0.13572 0.55252 0.0
H438 H 0.7411 0.20048 0.44535 0.0
H439 H 0.82542 0.13343 0.39629 0.0
H440 H 0.77356 0.11856 0.3751 0.0
H441 H 0.73093 0.1523 0.39938 0.0
H442 H 0.79332 0.21414 0.46684 0.0
H443 H 0.84807 0.18616 0.25201 0.0
H444 H 0.89658 0.15894 0.23951 0.0
O445 O 0.86227 0.14339 0.47055 0.0
C446 C 0.9102 0.18658 0.50779 0.0
C447 C 0.90483 0.15512 0.32273 0.0
C448 C 0.86117 0.17929 0.28578 0.0
N449 N 0.86726 0.17698 0.37973 0.0
C450 C 0.89387 0.16184 0.37315 0.0
C451 C 0.85091 0.18556 0.33679 0.0
C452 C 0.88836 0.16399 0.27881 0.0
C453 C 0.85341 0.23687 0.61204 0.0
N454 N 0.87277 0.21293 0.61046 0.0
C455 C 0.86284 0.26471 0.63107 0.0
C456 C 0.89237 0.26801 0.64829 0.0
C457 C 0.91204 0.24354 0.64633 0.0
C458 C 0.9018 0.21602 0.62721 0.0
C459 C 0.88417 0.14743 0.73449 0.0
C460 C 0.89386 0.12829 0.63181 0.0
C461 C 0.87172 0.1629 0.69198 0.0
N462 N 0.87674 0.15334 0.64139 0.0
C463 C 0.90667 0.11225 0.67334 0.0
C464 C 0.90176 0.12194 0.72499 0.0
C465 C 0.85271 0.12595 0.50684 0.0
C466 C 0.75948 0.18558 0.43454 0.0
C467 C 0.80703 0.148 0.40778 0.0
C468 C 0.77769 0.13957 0.39529 0.0
C469 C 0.75379 0.15853 0.40883 0.0
N470 N 0.81246 0.17455 0.43309 0.0
C471 C 0.78912 0.19325 0.44643 0.0
H472 H 0.34688 0.45006 0.10293 0.0
H473 H 0.34051 0.43511 0.93397 0.0
H474 H 0.33714 0.48982 0.92024 0.0
H475 H 0.29367 0.51287 0.10815 0.0
H476 H 0.31437 0.53253 0.15835 0.0
H477 H 0.31577 0.49211 0.15515 0.0
H478 H 0.37395 0.49391 0.14959 0.0
H479 H 0.37276 0.53432 0.15237 0.0
H480 H 0.39167 0.51562 0.09835 0.0
H481 H 0.33827 0.54554 0.92402 0.0
H482 H 0.33966 0.59921 0.94443 0.0
H483 H 0.34151 0.57919 0.11202 0.0
C484 C 0.34442 0.45818 0.06302 0.0
C485 C 0.34389 0.43811 0.01949 0.0
C486 C 0.34085 0.44988 0.96797 0.0
C487 C 0.33898 0.48096 0.95976 0.0
C488 C 0.33978 0.5 1.00346 0.0
C489 C 0.34207 0.48913 0.05414 0.0
C490 C 0.34239 0.5146 0.09418 0.0
C491 C 0.31491 0.51292 0.13114 0.0
C492 C 0.37195 0.5146 0.12546 0.0
C493 C 0.34034 0.54156 0.05793 0.0
C494 C 0.33906 0.53246 1.00581 0.0
C495 C 0.33866 0.55295 0.96468 0.0
C496 C 0.33936 0.58356 0.97693 0.0
C497 C 0.33991 0.59375 0.03006 0.0
C498 C 0.34047 0.57228 0.0711 0.0
H499 H 0.4564 0.3807 0.99814 0.0
H500 H 0.44375 0.31912 0.1287 0.0
H501 H 0.4977 0.30618 0.12564 0.0
H502 H 0.51103 0.33699 0.9266 0.0
H503 H 0.53363 0.36855 0.90687 0.0
H504 H 0.49384 0.37344 0.9186 0.0
H505 H 0.50457 0.41538 0.98678 0.0
H506 H 0.54435 0.41096 0.97469 0.0
H507 H 0.52967 0.40782 0.04081 0.0
H508 H 0.55154 0.29762 0.10612 0.0
H509 H 0.60478 0.29951 0.08065 0.0
H510 H 0.58516 0.36883 0.96622 0.0
C511 C 0.4651 0.36474 0.02644 0.0
C512 C 0.44582 0.35095 0.06381 0.0
C513 C 0.45805 0.33019 0.10013 0.0
C514 C 0.48863 0.32246 0.09835 0.0
C515 C 0.50683 0.33593 0.06042 0.0
C516 C 0.49579 0.35707 0.02577 0.0
C517 C 0.52075 0.36886 0.99028 0.0
C518 C 0.51443 0.36152 0.93213 0.0
C519 C 0.52509 0.40277 0.99866 0.0
C520 C 0.54751 0.35099 1.01055 0.0
C521 C 0.53864 0.33186 0.05048 0.0
C522 C 0.55886 0.31287 0.07556 0.0
C523 C 0.58919 0.31427 0.0611 0.0
C524 C 0.59935 0.33478 0.02254 0.0
C525 C 0.57806 0.35285 0.99577 0.0
H526 H 0.68522 0.44577 0.95686 0.0
H527 H 0.69047 0.43096 0.12579 0.0
H528 H 0.69091 0.48573 0.14041 0.0
H529 H 0.73564 0.50912 0.95382 0.0
H530 H 0.71491 0.5286 0.90337 0.0
H531 H 0.71439 0.48818 0.90597 0.0
H532 H 0.65613 0.48928 0.91032 0.0
H533 H 0.65647 0.52969 0.90775 0.0
H534 H 0.63752 0.51095 0.9612 0.0
H535 H 0.68851 0.54167 0.13718 0.0
H536 H 0.68583 0.59539 0.1169 0.0
H537 H 0.68625 0.57479 0.94931 0.0
C538 C 0.6866 0.45393 0.99697 0.0
C539 C 0.68793 0.43385 0.04019 0.0
C540 C 0.68956 0.44572 0.09199 0.0
C541 C 0.68979 0.47684 0.10072 0.0
C542 C 0.6887 0.49588 0.05726 0.0
C543 C 0.68732 0.48494 1.00638 0.0
C544 C 0.68678 0.51037 0.96661 0.0
C545 C 0.71459 0.50898 0.9303 0.0
C546 C 0.65748 0.51004 0.93459 0.0
C547 C 0.68789 0.53737 1.0032 0.0
C548 C 0.68874 0.52838 0.05528 0.0
C549 C 0.68834 0.54899 0.09655 0.0
C550 C 0.68697 0.5796 0.08444 0.0
C551 C 0.68654 0.58962 0.03137 0.0
C552 C 0.68716 0.56803 0.99024 0.0
H553 H 0.44432 0.72252 0.05409 0.0
H554 H 0.42342 0.63783 0.97857 0.0
H555 H 0.4775 0.62557 0.97253 0.0
H556 H 0.51472 0.73717 0.97922 0.0
H557 H 0.53357 0.7529 0.03557 0.0
H558 H 0.49327 0.75617 0.02997 0.0
H559 H 0.48725 0.73126 0.12151 0.0
H560 H 0.52752 0.72737 0.1269 0.0
H561 H 0.50383 0.69482 0.13286 0.0
H562 H 0.53255 0.62084 0.97887 0.0
H563 H 0.58721 0.62552 0.98964 0.0
H564 H 0.57471 0.71307 0.06261 0.0
C565 C 0.45138 0.70192 0.03474 0.0
C566 C 0.42991 0.68163 1.01455 0.0
C567 C 0.43963 0.65422 0.99181 0.0
C568 C 0.47027 0.64689 0.989 0.0
C569 C 0.49092 0.66709 1.0097 0.0
C570 C 0.4821 0.69421 0.03161 0.0
C571 C 0.50921 0.71134 0.05205 0.0
C572 C 0.51291 0.74116 0.02243 0.0
C573 C 0.5068 0.7165 0.11189 0.0
C574 C 0.53453 0.68945 0.0385 0.0
C575 C 0.52321 0.66408 1.01427 0.0
C576 C 0.54173 0.64064 0.9975 0.0
C577 C 0.57279 0.64351 1.00396 0.0
C578 C 0.58527 0.66962 0.02702 0.0
C579 C 0.56579 0.69268 0.04557 0.0
H580 H 0.83065 0.95017 0.56104 0.0
H581 H 0.85148 0.9348 0.39551 0.0
H582 H 0.85756 0.98946 0.38323 0.0
H583 H 0.78746 0.01835 0.5427 0.0
H584 H 0.80114 0.03563 0.60223 0.0
H585 H 0.79839 0.99536 0.59782 0.0
H586 H 0.85481 0.99033 0.62159 0.0
H587 H 0.85781 0.03059 0.62578 0.0
H588 H 0.88253 1.00967 0.58244 0.0
H589 H 0.86356 0.04527 0.38994 0.0
H590 H 0.86593 0.09875 0.41266 0.0
H591 H 0.83868 0.07855 0.57346 0.0
C592 C 0.83624 0.95816 0.52198 0.0
C593 C 0.84045 0.93799 0.47911 0.0
C594 C 0.84796 0.94966 0.42888 0.0
C595 C 0.85155 0.9807 0.42158 0.0
C596 C 0.84737 0.9998 0.46477 0.0
C597 C 0.83964 0.98903 0.51388 0.0
C598 C 0.83625 0.01437 0.55373 0.0
C599 C 0.80388 0.01602 0.57538 0.0
C600 C 0.85922 1.01103 0.59853 0.0
C601 C 0.84337 0.04121 0.51934 0.0
C602 C 0.84993 0.03218 0.4683 0.0
C603 C 0.85809 0.05262 0.42958 0.0
C604 C 0.85928 0.08309 0.44305 0.0
C605 C 0.85195 0.0932 0.49478 0.0
C606 C 0.84405 0.07176 0.53346 0.0
H607 H 0.06532 0.83198 0.45594 0.0
H608 H 0.084 0.8789 0.60259 0.0
H609 H 0.03019 0.87936 0.62438 0.0
H610 H 0.99668 0.87467 0.42905 0.0
H611 H 0.97763 0.84315 0.39992 0.0
H612 H 0.01805 0.84553 0.39618 0.0
H613 H 0.02246 0.79306 0.43941 0.0
H614 H 0.98206 0.79072 0.44391 0.0
H615 H 1.00462 0.78652 0.5023 0.0
H616 H 0.97439 0.87266 0.63336 0.0
H617 H 0.9196 0.86615 0.62166 0.0
H618 H 0.93626 0.82778 0.46654 0.0
C619 C 0.0581 0.84243 0.49252 0.0
C620 C 0.07926 0.85464 0.52805 0.0
C621 C 0.06859 0.86865 0.57505 0.0
C622 C 0.03793 0.8691 0.58797 0.0
C623 C 0.01782 0.85614 0.553 0.0
C624 C 0.02731 0.84372 0.50563 0.0
C625 C 1.00064 0.83282 0.47392 0.0
C626 C 0.9981 0.85008 0.42168 0.0
C627 C 1.00257 0.79875 0.46434 0.0
C628 C 0.97493 0.84078 0.5112 0.0
C629 C 0.98536 0.85384 0.55689 0.0
C630 C 0.96588 0.86265 0.59753 0.0
C631 C 0.93479 0.85869 0.59069 0.0
C632 C 0.92346 0.84647 0.54323 0.0
C633 C 0.94402 0.83715 0.50337 0.0
H634 H 0.17615 0.07546 0.57536 0.0
H635 H 0.18562 0.08981 0.40664 0.0
H636 H 0.18944 0.03527 0.39283 0.0
H637 H 0.23021 0.01398 0.58213 0.0
H638 H 0.20922 0.99355 0.63118 0.0
H639 H 0.20656 0.03393 0.62859 0.0
H640 H 0.14862 0.03046 0.62047 0.0
H641 H 0.15109 0.9901 0.6232 0.0
H642 H 0.1326 1.00803 0.56852 0.0
H643 H 0.19022 0.98008 0.39591 0.0
H644 H 0.18801 0.92647 0.41524 0.0
H645 H 0.18301 0.94592 0.58283 0.0
C646 C 0.17925 0.06721 0.53552 0.0
C647 C 0.18089 0.08718 0.49213 0.0
C648 C 0.18445 0.0752 0.44062 0.0
C649 C 0.18672 0.04418 0.43232 0.0
C650 C 0.1857 0.0253 0.4759 0.0
C651 C 0.18212 0.0362 0.52653 0.0
C652 C 0.18187 1.01067 0.56625 0.0
C653 C 0.20856 0.01319 0.60429 0.0
C654 C 0.15175 1.00977 0.59638 0.0
C655 C 0.18545 0.98372 0.52976 0.0
C656 C 0.1875 0.99292 0.47789 0.0
C657 C 0.18907 0.97258 0.43639 0.0
C658 C 0.18793 0.94198 0.44792 0.0
C659 C 0.18573 0.93161 0.50057 0.0
C660 C 0.1851 0.95292 0.5422 0.0
H661 H 0.95462 0.14532 0.52593 0.0
H662 H 0.93903 0.23996 0.49692 0.0
H663 H 0.99319 0.25003 0.51152 0.0
H664 H 1.01105 0.15216 0.62539 0.0
H665 H 0.03363 0.12122 0.60131 0.0
H666 H 0.99355 0.12156 0.59068 0.0
H667 H 1.00201 0.11589 0.4899 0.0
H668 H 0.04205 0.11491 0.50038 0.0
H669 H 0.02601 0.14213 0.45608 0.0
H670 H 0.04883 0.24978 0.53296 0.0
H671 H 0.10314 0.23822 0.54325 0.0
H672 H 0.08307 0.1433 0.54992 0.0
C673 C 0.96275 0.16811 0.52233 0.0
C674 C 0.94287 0.19193 0.51031 0.0
C675 C 0.95412 0.22144 0.50556 0.0
C676 C 0.98471 0.22737 0.51436 0.0
C677 C 1.00375 0.20343 0.5269 0.0
C678 C 0.99333 0.17427 0.52951 0.0
C679 C 0.01878 0.1523 0.53992 0.0
C680 C 0.01395 0.13584 0.59245 0.0
C681 C 0.02243 0.13 0.49382 0.0
C682 C 0.04516 0.17361 0.543 0.0
C683 C 0.03592 0.20309 0.53654 0.0
C684 C 0.05629 0.22679 0.53798 0.0
C685 C 0.08699 0.2201 0.5443 0.0
C686 C 0.09695 0.19 0.54815 0.0
C687 C 0.07578 0.16653 0.54813 0.0
H688 H 0.23257 0.1922 0.31202 0.0
H689 H 0.29789 0.1932 0.43838 0.0
H690 H 0.33419 0.21895 0.3797 0.0
H691 H 0.28764 0.17954 0.20368 0.0
H692 H 0.26682 0.20307 0.15894 0.0
H693 H 0.24727 0.18257 0.20966 0.0
H694 H 0.22329 0.23216 0.24386 0.0
H695 H 0.24284 0.25283 0.19355 0.0
H696 H 0.24732 0.26297 0.26189 0.0
H697 H 0.35997 0.25153 0.3112 0.0
H698 H 0.37534 0.28298 0.23525 0.0
H699 H 0.29507 0.25641 0.15144 0.0
C700 C 0.25475 0.19731 0.327 0.0
C701 C 0.26249 0.19073 0.37968 0.0
C702 C 0.29165 0.19781 0.39797 0.0
C703 C 0.31234 0.21252 0.36499 0.0
C704 C 0.30371 0.21935 0.31354 0.0
C705 C 0.27581 0.21138 0.29435 0.0
C706 C 0.2716 0.22198 0.23819 0.0
C707 C 0.26814 0.19519 0.20039 0.0
C708 C 0.24468 0.24378 0.23418 0.0
C709 C 0.30115 0.23794 0.22914 0.0
C710 C 0.31933 0.23638 0.27315 0.0
C711 C 0.34633 0.25216 0.27601 0.0
C712 C 0.35487 0.26996 0.23286 0.0
C713 C 0.3368 0.2713 0.1872 0.0
C714 C 0.30982 0.25482 0.1852 0.0
H715 H 0.75293 0.2989 0.17426 0.0
H716 H 0.79649 0.38573 0.17409 0.0
H717 H 0.83129 0.36795 0.24382 0.0
H718 H 0.75051 0.29548 0.31403 0.0
H719 H 0.75438 0.25519 0.31637 0.0
H720 H 0.73695 0.27275 0.26036 0.0
H721 H 0.77524 0.2465 0.19772 0.0
H722 H 0.79263 0.22859 0.25344 0.0
H723 H 0.815 0.25087 0.20907 0.0
H724 H 0.86238 0.33847 0.31302 0.0
H725 H 0.88238 0.30327 0.38029 0.0
H726 H 0.80857 0.24272 0.34884 0.0
C727 C 0.76985 0.31423 0.18844 0.0
C728 C 0.77213 0.34368 0.16838 0.0
C729 C 0.79462 0.36294 0.18844 0.0
C730 C 0.81435 0.35305 0.22817 0.0
C731 C 0.81049 0.32427 0.24874 0.0
C732 C 0.78833 0.30544 0.23006 0.0
C733 C 0.78607 0.27714 0.26261 0.0
C734 C 0.75515 0.27503 0.28997 0.0
C735 C 0.79263 0.24913 0.22867 0.0
C736 C 0.81085 0.2826 0.30204 0.0
C737 C 0.82532 0.30946 0.29271 0.0
C738 C 0.85078 0.3177 0.32128 0.0
C739 C 0.86192 0.29769 0.35953 0.0
C740 C 0.84692 0.27039 0.37021 0.0
C741 C 0.82056 0.2634 0.34198 0.0
H742 H 0.72568 0.80796 0.39582 0.0
H743 H 0.79324 0.85313 0.3013 0.0
H744 H 0.76617 0.83912 0.22048 0.0
H745 H 0.71828 0.74608 0.31246 0.0
H746 H 0.67834 0.74164 0.32203 0.0
H747 H 0.7006 0.75875 0.37278 0.0
H748 H 0.66583 0.80573 0.37103 0.0
H749 H 0.64359 0.78868 0.31992 0.0
H750 H 0.65988 0.82518 0.30971 0.0
H751 H 0.73607 0.81466 0.14961 0.0
H752 H 0.70477 0.78156 0.09424 0.0
H753 H 0.65565 0.75308 0.23334 0.0
C754 C 0.73425 0.81567 0.35821 0.0
C755 C 0.76147 0.83193 0.35504 0.0
C756 C 0.77239 0.8408 0.30487 0.0
C757 C 0.7571 0.83302 0.25863 0.0
C758 C 0.73077 0.81638 0.26293 0.0
C759 C 0.7193 0.80789 0.31142 0.0
C760 C 0.69211 0.78778 0.30467 0.0
C761 C 0.69769 0.75674 0.32944 0.0
C762 C 0.66366 0.80275 0.3277 0.0
C763 C 0.69058 0.78574 0.24498 0.0
C764 C 0.71298 0.80259 0.22167 0.0
C765 C 0.71797 0.80196 0.16731 0.0
C766 C 0.70006 0.78315 0.1361 0.0
C767 C 0.67726 0.76536 0.15918 0.0
C768 C 0.67211 0.76728 0.21423 0.0
H769 H 0.22896 0.74602 0.42369 0.0
H770 H 0.14167 0.75701 0.35081 0.0
H771 H 0.15965 0.72824 0.27287 0.0
H772 H 0.26962 0.76014 0.30919 0.0
H773 H 0.29995 0.7343 0.32283 0.0
H774 H 0.27885 0.75089 0.37633 0.0
H775 H 0.26613 0.698 0.41208 0.0
H776 H 0.28745 0.6812 0.35889 0.0
H777 H 0.24869 0.67092 0.3692 0.0
H778 H 0.18871 0.7016 0.19979 0.0
H779 H 0.22663 0.68197 0.13654 0.0
H780 H 0.29582 0.69161 0.25541 0.0
C781 C 0.21327 0.74127 0.39226 0.0
C782 C 0.18358 0.75283 0.39397 0.0
C783 C 0.16423 0.74765 0.35077 0.0
C784 C 0.17431 0.73142 0.30633 0.0
C785 C 0.20397 0.72091 0.30531 0.0
C786 C 0.22321 0.72575 0.34714 0.0
C787 C 0.25493 0.71533 0.33389 0.0
C788 C 0.27713 0.74173 0.33566 0.0
C789 C 0.26488 0.68984 0.3707 0.0
C790 C 0.25065 0.70404 0.27801 0.0
C791 C 0.22103 0.70705 0.26242 0.0
C792 C 0.2119 0.69893 0.2118 0.0
C793 C 0.23362 0.68774 0.17612 0.0
C794 C 0.26423 0.68512 0.19091 0.0
C795 C 0.27262 0.69318 0.24281 0.0
H796 H 0.28471 0.85393 0.68911 0.0
H797 H 0.20424 0.799 0.6904 0.0
H798 H 0.22154 0.7737 0.76989 0.0
H799 H 0.33209 0.78793 0.72248 0.0
H800 H 0.35882 0.80945 0.75988 0.0
H801 H 0.33889 0.82667 0.70608 0.0
H802 H 0.32003 0.86856 0.76934 0.0
H803 H 0.33942 0.85109 0.82355 0.0
H804 H 0.29956 0.85853 0.82821 0.0
H805 H 0.24315 0.75959 0.85523 0.0
H806 H 0.27675 0.74046 0.92317 0.0
H807 H 0.35054 0.79192 0.85677 0.0
C808 C 0.27087 0.83654 0.70622 0.0
C809 C 0.24222 0.82973 0.68489 0.0
C810 C 0.22547 0.80583 0.70701 0.0
C811 C 0.2351 0.7912 0.75245 0.0
C812 C 0.26256 0.79927 0.77387 0.0
C813 C 0.28118 0.81996 0.75003 0.0
C814 C 0.31168 0.82038 0.7774 0.0
C815 C 0.33686 0.81051 0.73918 0.0
C816 C 0.31804 0.8515 0.80102 0.0
C817 C 0.30671 0.79714 0.82062 0.0
C818 C 0.27764 0.78651 0.81874 0.0
C819 C 0.26633 0.7669 0.85624 0.0
C820 C 0.28572 0.75629 0.8951 0.0
C821 C 0.31669 0.76384 0.89475 0.0
C822 C 0.32714 0.78529 0.85768 0.0
H823 H 0.2548 0.34725 0.86005 0.0
H824 H 0.33123 0.28698 0.87933 0.0
H825 H 0.31012 0.25263 0.81413 0.0
H826 H 0.20026 0.28557 0.851 0.0
H827 H 0.17661 0.30446 0.80391 0.0
H828 H 0.19816 0.326 0.85047 0.0
H829 H 0.22263 0.35522 0.77346 0.0
H830 H 0.20134 0.33358 0.72666 0.0
H831 H 0.2418 0.33479 0.72164 0.0
H832 H 0.28457 0.22721 0.74216 0.0
H833 H 0.24982 0.20508 0.67881 0.0
H834 H 0.18425 0.27545 0.71288 0.0
C835 C 0.26695 0.32679 0.85044 0.0
C836 C 0.29506 0.32022 0.87413 0.0
C837 C 0.30997 0.29289 0.86141 0.0
C838 C 0.29819 0.27314 0.8242 0.0
C839 C 0.27088 0.28037 0.801 0.0
C840 C 0.25482 0.30594 0.81449 0.0
C841 C 0.22478 0.30659 0.78575 0.0
C842 C 0.19839 0.30559 0.82514 0.0
C843 C 0.22252 0.33419 0.74974 0.0
C844 C 0.22697 0.27767 0.75364 0.0
C845 C 0.25421 0.26352 0.7625 0.0
C846 C 0.26285 0.23764 0.73562 0.0
C847 C 0.24286 0.22529 0.69947 0.0
C848 C 0.21399 0.23815 0.69142 0.0
C849 C 0.20597 0.26487 0.71879 0.0
H850 H 0.74521 0.24854 0.89247 0.0
H851 H 0.66647 0.28623 0.81651 0.0
H852 H 0.67917 0.25821 0.73487 0.0
H853 H 0.79276 0.25635 0.7831 0.0
H854 H 0.81411 0.22246 0.79445 0.0
H855 H 0.79649 0.24178 0.84897 0.0
H856 H 0.76829 0.19314 0.87459 0.0
H857 H 0.78593 0.17365 0.8201 0.0
H858 H 0.74548 0.17436 0.82621 0.0
H859 H 0.7026 0.22868 0.6592 0.0
H860 H 0.7363 0.20328 0.59493 0.0
H861 H 0.80099 0.18703 0.71934 0.0
C862 C 0.73015 0.25017 0.85917 0.0
C863 C 0.70447 0.26907 0.86121 0.0
C864 C 0.68601 0.27155 0.81605 0.0
C865 C 0.69304 0.25569 0.76953 0.0
C866 C 0.71882 0.23764 0.76847 0.0
C867 C 0.73718 0.23494 0.81209 0.0
C868 C 0.76519 0.21666 0.79913 0.0
C869 C 0.79382 0.23544 0.80686 0.0
C870 C 0.76627 0.18773 0.83196 0.0
C871 C 0.75994 0.2098 0.74132 0.0
C872 C 0.73287 0.22168 0.7245 0.0
C873 C 0.72374 0.21909 0.67211 0.0
C874 C 0.74301 0.20453 0.63585 0.0
C875 C 0.77132 0.19304 0.65189 0.0
C876 C 0.77948 0.19538 0.70565 0.0
H877 H 0.76141 0.74264 0.88728 0.0
H878 H 0.73958 0.65696 0.81601 0.0
H879 H 0.76604 0.67206 0.73416 0.0
H880 H 0.74643 0.7851 0.77454 0.0
H881 H 0.77581 0.81213 0.7854 0.0
H882 H 0.75912 0.79298 0.84051 0.0
H883 H 0.8118 0.77423 0.86959 0.0
H884 H 0.82867 0.79349 0.81461 0.0
H885 H 0.83525 0.75385 0.82339 0.0
H886 H 0.79302 0.698 0.65799 0.0
H887 H 0.81435 0.73361 0.59297 0.0
H888 H 0.81496 0.80321 0.71298 0.0
C889 C 0.76297 0.72671 0.85501 0.0
C890 C 0.74904 0.69834 0.85838 0.0
C891 C 0.7505 0.67862 0.81448 0.0
C892 C 0.76549 0.68701 0.76788 0.0
C893 C 0.77857 0.71539 0.76548 0.0
C894 C 0.77724 0.735 0.80787 0.0
C895 C 0.79036 0.76526 0.79366 0.0
C896 C 0.76651 0.79033 0.79883 0.0
C897 C 0.81818 0.7721 0.82731 0.0
C898 C 0.79898 0.75977 0.73657 0.0
C899 C 0.79253 0.73074 0.72116 0.0
C900 C 0.79823 0.72075 0.66977 0.0
C901 C 0.81042 0.74108 0.63312 0.0
C902 C 0.81623 0.77118 0.64781 0.0
C903 C 0.81067 0.78037 0.70043 0.0
loop_
_geom_bond_atom_site_label_1
_geom_bond_atom_site_label_2
_geom_bond_distance
_geom_bond_site_symmetry_2
_ccdc_geom_bond_type
Co0 O2 2.143 1_556 S
Co0 O8 2.074 . S
Co0 O11 2.093 . S
Co0 O24 2.097 . S
Co0 N41 2.151 . S
Co0 N49 2.214 . S
Co1 O2 2.160 . S
Co1 O7 2.058 . S
Co1 O17 2.057 . S
Co1 O32 2.037 . S
Co1 N36 2.145 . S
Co1 N57 2.257 . S
O2 Co0 2.143 1_554 S
O2 Co1 2.160 . S
C3 O4 1.278 . S
C3 O11 1.224 . S
O4 C3 1.278 . S
C5 O6 1.245 . S
C5 O17 1.232 . S
O6 C5 1.245 . S
O7 Co1 2.058 . S
O7 C33 1.269 . S
O8 Co0 2.074 . S
O8 C33 1.257 1_556 S
H9 C34 0.930 . S
H10 C40 0.930 . S
O11 Co0 2.093 . S
O11 C3 1.224 . S
H12 C44 0.929 . S
H13 C46 0.930 . S
H14 C47 0.930 . S
H15 C45 0.929 . S
H16 C48 0.928 . S
O17 Co1 2.057 . S
O17 C5 1.232 . S
H18 C37 0.929 . S
H19 C38 0.929 . S
H20 C50 0.931 . S
H21 C42 0.929 . S
H22 C51 0.930 . S
H23 C43 0.931 . S
O24 Co0 2.097 . S
O24 C52 1.214 . S
H25 C53 0.929 . S
H26 C54 0.929 . S
H27 C55 0.930 . S
H28 C56 0.929 . S
H29 C58 0.930 . S
H30 C35 0.930 . S
H31 C39 0.930 . S
O32 Co1 2.037 . S
O32 C52 1.234 1_554 S
C33 O7 1.269 . S
C33 O8 1.257 1_554 S
C34 H9 0.930 . S
C34 C37 1.388 . S
C34 C39 1.418 . S
C35 H30 0.930 . S
C35 C38 1.404 . S
C35 C39 1.353 . S
N36 Co1 2.145 . S
N36 C37 1.397 . S
N36 C38 1.334 . S
C37 H18 0.929 . S
C37 C34 1.388 . S
C37 N36 1.397 . S
C38 H19 0.929 . S
C38 C35 1.404 . S
C38 N36 1.334 . S
C39 H31 0.930 . S
C39 C34 1.418 . S
C39 C35 1.353 . S
C40 H10 0.930 . S
C40 N41 1.330 . S
C40 C42 1.446 . S
N41 Co0 2.151 . S
N41 C40 1.330 . S
N41 C45 1.418 . S
C42 H21 0.929 . S
C42 C40 1.446 . S
C42 C43 1.332 . S
C43 H23 0.931 . S
C43 C42 1.332 . S
C43 C44 1.267 . S
C44 H12 0.929 . S
C44 C43 1.267 . S
C44 C45 1.251 . S
C45 H15 0.929 . S
C45 N41 1.418 . S
C45 C44 1.251 . S
C46 H13 0.930 . S
C46 C48 1.406 . S
C46 C51 1.261 . S
C47 H14 0.930 . S
C47 N49 1.325 . S
C47 C50 1.357 . S
C48 H16 0.928 . S
C48 C46 1.406 . S
C48 N49 1.261 . S
N49 Co0 2.214 . S
N49 C47 1.325 . S
N49 C48 1.261 . S
C50 H20 0.931 . S
C50 C47 1.357 . S
C50 C51 1.312 . S
C51 H22 0.930 . S
C51 C46 1.261 . S
C51 C50 1.312 . S
C52 O24 1.214 . S
C52 O32 1.234 1_556 S
C53 H25 0.929 . S
C53 C56 1.391 . S
C53 C58 1.391 . S
C54 H26 0.929 . S
C54 C55 1.390 . S
C54 N57 1.391 . S
C55 H27 0.930 . S
C55 C54 1.390 . S
C55 C56 1.392 . S
C56 H28 0.929 . S
C56 C53 1.391 . S
C56 C55 1.392 . S
N57 Co1 2.257 . S
N57 C54 1.391 . S
N57 C58 1.388 . S
C58 H29 0.930 . S
C58 C53 1.391 . S
C58 N57 1.388 . S
Co59 O61 2.143 . S
Co59 O67 2.074 . S
Co59 O70 2.093 . S
Co59 O83 2.097 . S
Co59 N100 2.151 . S
Co59 N108 2.214 . S
Co60 O61 2.160 1_556 S
Co60 O66 2.058 . S
Co60 O76 2.057 . S
Co60 O91 2.037 . S
Co60 N95 2.145 . S
Co60 N116 2.257 . S
O61 Co59 2.143 . S
O61 Co60 2.160 1_554 S
C62 O63 1.278 . S
C62 O70 1.224 . S
O63 C62 1.278 . S
C64 O65 1.245 . S
C64 O76 1.232 . S
O65 C64 1.245 . S
O66 Co60 2.058 . S
O66 C92 1.269 . S
O67 Co59 2.074 . S
O67 C92 1.257 1_554 S
H68 C93 0.930 . S
H69 C99 0.930 . S
O70 Co59 2.093 . S
O70 C62 1.224 . S
H71 C103 0.929 . S
H72 C105 0.930 . S
H73 C106 0.930 . S
H74 C104 0.929 . S
H75 C107 0.928 . S
O76 Co60 2.057 . S
O76 C64 1.232 . S
H77 C96 0.929 . S
H78 C97 0.929 . S
H79 C109 0.931 . S
H80 C101 0.929 . S
H81 C110 0.930 . S
H82 C102 0.931 . S
O83 Co59 2.097 . S
O83 C111 1.214 . S
H84 C112 0.929 . S
H85 C113 0.929 . S
H86 C114 0.930 . S
H87 C115 0.929 . S
H88 C117 0.930 . S
H89 C94 0.930 . S
H90 C98 0.930 . S
O91 Co60 2.037 . S
O91 C111 1.234 1_556 S
C92 O66 1.269 . S
C92 O67 1.257 1_556 S
C93 H68 0.930 . S
C93 C96 1.388 . S
C93 C98 1.418 . S
C94 H89 0.930 . S
C94 C97 1.404 . S
C94 C98 1.353 . S
N95 Co60 2.145 . S
N95 C96 1.397 . S
N95 C97 1.334 . S
C96 H77 0.929 . S
C96 C93 1.388 . S
C96 N95 1.397 . S
C97 H78 0.929 . S
C97 C94 1.404 . S
C97 N95 1.334 . S
C98 H90 0.930 . S
C98 C93 1.418 . S
C98 C94 1.353 . S
C99 H69 0.930 . S
C99 N100 1.330 . S
C99 C101 1.446 . S
N100 Co59 2.151 . S
N100 C99 1.330 . S
N100 C104 1.418 . S
C101 H80 0.929 . S
C101 C99 1.446 . S
C101 C102 1.332 . S
C102 H82 0.931 . S
C102 C101 1.332 . S
C102 C103 1.267 . S
C103 H71 0.929 . S
C103 C102 1.267 . S
C103 C104 1.251 . S
C104 H74 0.929 . S
C104 N100 1.418 . S
C104 C103 1.251 . S
C105 H72 0.930 . S
C105 C107 1.406 . S
C105 C110 1.261 . S
C106 H73 0.930 . S
C106 N108 1.325 . S
C106 C109 1.357 . S
C107 H75 0.928 . S
C107 C105 1.406 . S
C107 N108 1.261 . S
N108 Co59 2.214 . S
N108 C106 1.325 . S
N108 C107 1.261 . S
C109 H79 0.931 . S
C109 C106 1.357 . S
C109 C110 1.312 . S
C110 H81 0.930 . S
C110 C105 1.261 . S
C110 C109 1.312 . S
C111 O83 1.214 . S
C111 O91 1.234 1_554 S
C112 H84 0.929 . S
C112 C115 1.391 . S
C112 C117 1.391 . S
C113 H85 0.929 . S
C113 C114 1.390 . S
C113 N116 1.391 . S
C114 H86 0.930 . S
C114 C113 1.390 . S
C114 C115 1.392 . S
C115 H87 0.929 . S
C115 C112 1.391 . S
C115 C114 1.392 . S
N116 Co60 2.257 . S
N116 C113 1.391 . S
N116 C117 1.388 . S
C117 H88 0.930 . S
C117 C112 1.391 . S
C117 N116 1.388 . S
Co118 O120 2.143 . S
Co118 O126 2.074 . S
Co118 O129 2.093 . S
Co118 O142 2.097 . S
Co118 N159 2.151 . S
Co118 N167 2.214 . S
Co119 O120 2.160 1_556 S
Co119 O125 2.058 . S
Co119 O135 2.057 . S
Co119 O150 2.037 . S
Co119 N154 2.145 . S
Co119 N175 2.257 . S
O120 Co118 2.143 . S
O120 Co119 2.160 1_554 S
C121 O122 1.278 . S
C121 O129 1.224 . S
O122 C121 1.278 . S
C123 O124 1.245 . S
C123 O135 1.232 . S
O124 C123 1.245 . S
O125 Co119 2.058 . S
O125 C151 1.269 . S
O126 Co118 2.074 . S
O126 C151 1.257 1_554 S
H127 C152 0.930 . S
H128 C158 0.930 . S
O129 Co118 2.093 . S
O129 C121 1.224 . S
H130 C162 0.929 . S
H131 C164 0.930 . S
H132 C165 0.930 . S
H133 C163 0.929 . S
H134 C166 0.928 . S
O135 Co119 2.057 . S
O135 C123 1.232 . S
H136 C155 0.929 . S
H137 C156 0.929 . S
H138 C168 0.931 . S
H139 C160 0.929 . S
H140 C169 0.930 . S
H141 C161 0.931 . S
O142 Co118 2.097 . S
O142 C170 1.214 . S
H143 C171 0.929 . S
H144 C172 0.929 . S
H145 C173 0.930 . S
H146 C174 0.929 . S
H147 C176 0.930 . S
H148 C153 0.930 . S
H149 C157 0.930 . S
O150 Co119 2.037 . S
O150 C170 1.234 1_556 S
C151 O125 1.269 . S
C151 O126 1.257 1_556 S
C152 H127 0.930 . S
C152 C155 1.388 . S
C152 C157 1.418 . S
C153 H148 0.930 . S
C153 C156 1.404 . S
C153 C157 1.353 . S
N154 Co119 2.145 . S
N154 C155 1.397 . S
N154 C156 1.334 . S
C155 H136 0.929 . S
C155 C152 1.388 . S
C155 N154 1.397 . S
C156 H137 0.929 . S
C156 C153 1.404 . S
C156 N154 1.334 . S
C157 H149 0.930 . S
C157 C152 1.418 . S
C157 C153 1.353 . S
C158 H128 0.930 . S
C158 N159 1.330 . S
C158 C160 1.446 . S
N159 Co118 2.151 . S
N159 C158 1.330 . S
N159 C163 1.418 . S
C160 H139 0.929 . S
C160 C158 1.446 . S
C160 C161 1.332 . S
C161 H141 0.931 . S
C161 C160 1.332 . S
C161 C162 1.267 . S
C162 H130 0.929 . S
C162 C161 1.267 . S
C162 C163 1.251 . S
C163 H133 0.929 . S
C163 N159 1.418 . S
C163 C162 1.251 . S
C164 H131 0.930 . S
C164 C166 1.406 . S
C164 C169 1.261 . S
C165 H132 0.930 . S
C165 N167 1.325 . S
C165 C168 1.357 . S
C166 H134 0.928 . S
C166 C164 1.406 . S
C166 N167 1.261 . S
N167 Co118 2.214 . S
N167 C165 1.325 . S
N167 C166 1.261 . S
C168 H138 0.931 . S
C168 C165 1.357 . S
C168 C169 1.312 . S
C169 H140 0.930 . S
C169 C164 1.261 . S
C169 C168 1.312 . S
C170 O142 1.214 . S
C170 O150 1.234 1_554 S
C171 H143 0.929 . S
C171 C174 1.391 . S
C171 C176 1.391 . S
C172 H144 0.929 . S
C172 C173 1.390 . S
C172 N175 1.391 . S
C173 H145 0.930 . S
C173 C172 1.390 . S
C173 C174 1.392 . S
C174 H146 0.929 . S
C174 C171 1.391 . S
C174 C173 1.392 . S
N175 Co119 2.257 . S
N175 C172 1.391 . S
N175 C176 1.388 . S
C176 H147 0.930 . S
C176 C171 1.391 . S
C176 N175 1.388 . S
Co177 O179 2.143 1_556 S
Co177 O185 2.074 . S
Co177 O188 2.093 . S
Co177 O201 2.097 . S
Co177 N218 2.151 . S
Co177 N226 2.214 . S
Co178 O179 2.160 . S
Co178 O184 2.058 . S
Co178 O194 2.057 . S
Co178 O209 2.037 . S
Co178 N213 2.145 . S
Co178 N234 2.257 . S
O179 Co177 2.143 1_554 S
O179 Co178 2.160 . S
C180 O181 1.278 . S
C180 O188 1.224 . S
O181 C180 1.278 . S
C182 O183 1.245 . S
C182 O194 1.232 . S
O183 C182 1.245 . S
O184 Co178 2.058 . S
O184 C210 1.269 . S
O185 Co177 2.074 . S
O185 C210 1.257 1_556 S
H186 C211 0.930 . S
H187 C217 0.930 . S
O188 Co177 2.093 . S
O188 C180 1.224 . S
H189 C221 0.929 . S
H190 C223 0.930 . S
H191 C224 0.930 . S
H192 C222 0.929 . S
H193 C225 0.928 . S
O194 Co178 2.057 . S
O194 C182 1.232 . S
H195 C214 0.929 . S
H196 C215 0.929 . S
H197 C227 0.931 . S
H198 C219 0.929 . S
H199 C228 0.930 . S
H200 C220 0.931 . S
O201 Co177 2.097 . S
O201 C229 1.214 . S
H202 C230 0.929 . S
H203 C231 0.929 . S
H204 C232 0.930 . S
H205 C233 0.929 . S
H206 C235 0.930 . S
H207 C212 0.930 . S
H208 C216 0.930 . S
O209 Co178 2.037 . S
O209 C229 1.234 1_554 S
C210 O184 1.269 . S
C210 O185 1.257 1_554 S
C211 H186 0.930 . S
C211 C214 1.388 . S
C211 C216 1.418 . S
C212 H207 0.930 . S
C212 C215 1.404 . S
C212 C216 1.353 . S
N213 Co178 2.145 . S
N213 C214 1.397 . S
N213 C215 1.334 . S
C214 H195 0.929 . S
C214 C211 1.388 . S
C214 N213 1.397 . S
C215 H196 0.929 . S
C215 C212 1.404 . S
C215 N213 1.334 . S
C216 H208 0.930 . S
C216 C211 1.418 . S
C216 C212 1.353 . S
C217 H187 0.930 . S
C217 N218 1.330 . S
C217 C219 1.446 . S
N218 Co177 2.151 . S
N218 C217 1.330 . S
N218 C222 1.418 . S
C219 H198 0.929 . S
C219 C217 1.446 . S
C219 C220 1.332 . S
C220 H200 0.931 . S
C220 C219 1.332 . S
C220 C221 1.267 . S
C221 H189 0.929 . S
C221 C220 1.267 . S
C221 C222 1.251 . S
C222 H192 0.929 . S
C222 N218 1.418 . S
C222 C221 1.251 . S
C223 H190 0.930 . S
C223 C225 1.406 . S
C223 C228 1.261 . S
C224 H191 0.930 . S
C224 N226 1.325 . S
C224 C227 1.357 . S
C225 H193 0.928 . S
C225 C223 1.406 . S
C225 N226 1.261 . S
N226 Co177 2.214 . S
N226 C224 1.325 . S
N226 C225 1.261 . S
C227 H197 0.931 . S
C227 C224 1.357 . S
C227 C228 1.312 . S
C228 H199 0.930 . S
C228 C223 1.261 . S
C228 C227 1.312 . S
C229 O201 1.214 . S
C229 O209 1.234 1_556 S
C230 H202 0.929 . S
C230 C233 1.391 . S
C230 C235 1.391 . S
C231 H203 0.929 . S
C231 C232 1.390 . S
C231 N234 1.391 . S
C232 H204 0.930 . S
C232 C231 1.390 . S
C232 C233 1.392 . S
C233 H205 0.929 . S
C233 C230 1.391 . S
C233 C232 1.392 . S
N234 Co178 2.257 . S
N234 C231 1.391 . S
N234 C235 1.388 . S
C235 H206 0.930 . S
C235 C230 1.391 . S
C235 N234 1.388 . S
Co236 O238 2.143 . S
Co236 O244 2.074 . S
Co236 O247 2.093 . S
Co236 O260 2.097 . S
Co236 N277 2.151 . S
Co236 N285 2.214 . S
Co237 O238 2.160 . S
Co237 O243 2.058 . S
Co237 O253 2.057 . S
Co237 O268 2.037 . S
Co237 N272 2.145 . S
Co237 N293 2.257 . S
O238 Co236 2.143 . S
O238 Co237 2.160 . S
C239 O240 1.278 . S
C239 O247 1.224 . S
O240 C239 1.278 . S
C241 O242 1.245 . S
C241 O253 1.232 . S
O242 C241 1.245 . S
O243 Co237 2.058 . S
O243 C269 1.269 . S
O244 Co236 2.074 . S
O244 C269 1.257 . S
H245 C270 0.930 . S
H246 C276 0.930 . S
O247 Co236 2.093 . S
O247 C239 1.224 . S
H248 C280 0.929 . S
H249 C282 0.930 . S
H250 C283 0.930 . S
H251 C281 0.929 . S
H252 C284 0.928 . S
O253 Co237 2.057 . S
O253 C241 1.232 . S
H254 C273 0.929 . S
H255 C274 0.929 . S
H256 C286 0.931 . S
H257 C278 0.929 . S
H258 C287 0.930 . S
H259 C279 0.931 . S
O260 Co236 2.097 . S
O260 C288 1.214 . S
H261 C289 0.929 . S
H262 C290 0.929 . S
H263 C291 0.930 . S
H264 C292 0.929 . S
H265 C294 0.930 . S
H266 C271 0.930 . S
H267 C275 0.930 . S
O268 Co237 2.037 . S
O268 C288 1.234 . S
C269 O243 1.269 . S
C269 O244 1.257 . S
C270 H245 0.930 . S
C270 C273 1.388 . S
C270 C275 1.418 . S
C271 H266 0.930 . S
C271 C274 1.404 . S
C271 C275 1.353 . S
N272 Co237 2.145 . S
N272 C273 1.397 . S
N272 C274 1.334 . S
C273 H254 0.929 . S
C273 C270 1.388 . S
C273 N272 1.397 . S
C274 H255 0.929 . S
C274 C271 1.404 . S
C274 N272 1.334 . S
C275 H267 0.930 . S
C275 C270 1.418 . S
C275 C271 1.353 . S
C276 H246 0.930 . S
C276 N277 1.330 . S
C276 C278 1.446 . S
N277 Co236 2.151 . S
N277 C276 1.330 . S
N277 C281 1.418 . S
C278 H257 0.929 . S
C278 C276 1.446 . S
C278 C279 1.332 . S
C279 H259 0.931 . S
C279 C278 1.332 . S
C279 C280 1.267 . S
C280 H248 0.929 . S
C280 C279 1.267 . S
C280 C281 1.251 . S
C281 H251 0.929 . S
C281 N277 1.418 . S
C281 C280 1.251 . S
C282 H249 0.930 . S
C282 C284 1.406 . S
C282 C287 1.261 . S
C283 H250 0.930 . S
C283 N285 1.325 . S
C283 C286 1.357 . S
C284 H252 0.928 . S
C284 C282 1.406 . S
C284 N285 1.261 . S
N285 Co236 2.214 . S
N285 C283 1.325 . S
N285 C284 1.261 . S
C286 H256 0.931 . S
C286 C283 1.357 . S
C286 C287 1.312 . S
C287 H258 0.930 . S
C287 C282 1.261 . S
C287 C286 1.312 . S
C288 O260 1.214 . S
C288 O268 1.234 . S
C289 H261 0.929 . S
C289 C292 1.391 . S
C289 C294 1.391 . S
C290 H262 0.929 . S
C290 C291 1.390 . S
C290 N293 1.391 . S
C291 H263 0.930 . S
C291 C290 1.390 . S
C291 C292 1.392 . S
C292 H264 0.929 . S
C292 C289 1.391 . S
C292 C291 1.392 . S
N293 Co237 2.257 . S
N293 C290 1.391 . S
N293 C294 1.388 . S
C294 H265 0.930 . S
C294 C289 1.391 . S
C294 N293 1.388 . S
Co295 O297 2.143 . S
Co295 O303 2.074 . S
Co295 O306 2.093 . S
Co295 O319 2.097 . S
Co295 N336 2.151 . S
Co295 N344 2.214 . S
Co296 O297 2.160 . S
Co296 O302 2.058 . S
Co296 O312 2.057 . S
Co296 O327 2.037 . S
Co296 N331 2.145 . S
Co296 N352 2.257 . S
O297 Co295 2.143 . S
O297 Co296 2.160 . S
C298 O299 1.278 . S
C298 O306 1.224 . S
O299 C298 1.278 . S
C300 O301 1.245 . S
C300 O312 1.232 . S
O301 C300 1.245 . S
O302 Co296 2.058 . S
O302 C328 1.269 . S
O303 Co295 2.074 . S
O303 C328 1.257 . S
H304 C329 0.930 . S
H305 C335 0.930 . S
O306 Co295 2.093 . S
O306 C298 1.224 . S
H307 C339 0.929 . S
H308 C341 0.930 . S
H309 C342 0.930 . S
H310 C340 0.929 . S
H311 C343 0.928 . S
O312 Co296 2.057 . S
O312 C300 1.232 . S
H313 C332 0.929 . S
H314 C333 0.929 . S
H315 C345 0.931 . S
H316 C337 0.929 . S
H317 C346 0.930 . S
H318 C338 0.931 . S
O319 Co295 2.097 . S
O319 C347 1.214 . S
H320 C348 0.929 . S
H321 C349 0.929 . S
H322 C350 0.930 . S
H323 C351 0.929 . S
H324 C353 0.930 . S
H325 C330 0.930 . S
H326 C334 0.930 . S
O327 Co296 2.037 . S
O327 C347 1.234 . S
C328 O302 1.269 . S
C328 O303 1.257 . S
C329 H304 0.930 . S
C329 C332 1.388 . S
C329 C334 1.418 . S
C330 H325 0.930 . S
C330 C333 1.404 . S
C330 C334 1.353 . S
N331 Co296 2.145 . S
N331 C332 1.397 . S
N331 C333 1.334 . S
C332 H313 0.929 . S
C332 C329 1.388 . S
C332 N331 1.397 . S
C333 H314 0.929 . S
C333 C330 1.404 . S
C333 N331 1.334 . S
C334 H326 0.930 . S
C334 C329 1.418 . S
C334 C330 1.353 . S
C335 H305 0.930 . S
C335 N336 1.330 . S
C335 C337 1.446 . S
N336 Co295 2.151 . S
N336 C335 1.330 . S
N336 C340 1.418 . S
C337 H316 0.929 . S
C337 C335 1.446 . S
C337 C338 1.332 . S
C338 H318 0.931 . S
C338 C337 1.332 . S
C338 C339 1.267 . S
C339 H307 0.929 . S
C339 C338 1.267 . S
C339 C340 1.251 . S
C340 H310 0.929 . S
C340 N336 1.418 . S
C340 C339 1.251 . S
C341 H308 0.930 . S
C341 C343 1.406 . S
C341 C346 1.261 . S
C342 H309 0.930 . S
C342 N344 1.325 . S
C342 C345 1.357 . S
C343 H311 0.928 . S
C343 C341 1.406 . S
C343 N344 1.261 . S
N344 Co295 2.214 . S
N344 C342 1.325 . S
N344 C343 1.261 . S
C345 H315 0.931 . S
C345 C342 1.357 . S
C345 C346 1.312 . S
C346 H317 0.930 . S
C346 C341 1.261 . S
C346 C345 1.312 . S
C347 O319 1.214 . S
C347 O327 1.234 . S
C348 H320 0.929 . S
C348 C351 1.391 . S
C348 C353 1.391 . S
C349 H321 0.929 . S
C349 C350 1.390 . S
C349 N352 1.391 . S
C350 H322 0.930 . S
C350 C349 1.390 . S
C350 C351 1.392 . S
C351 H323 0.929 . S
C351 C348 1.391 . S
C351 C350 1.392 . S
N352 Co296 2.257 . S
N352 C349 1.391 . S
N352 C353 1.388 . S
C353 H324 0.930 . S
C353 C348 1.391 . S
C353 N352 1.388 . S
Co354 O356 2.143 . S
Co354 O362 2.074 . S
Co354 O365 2.093 . S
Co354 O378 2.097 . S
Co354 N395 2.151 . S
Co354 N403 2.214 . S
Co355 O356 2.160 . S
Co355 O361 2.058 . S
Co355 O371 2.057 . S
Co355 O386 2.037 . S
Co355 N390 2.145 . S
Co355 N411 2.257 . S
O356 Co354 2.143 . S
O356 Co355 2.160 . S
C357 O358 1.278 . S
C357 O365 1.224 . S
O358 C357 1.278 . S
C359 O360 1.245 . S
C359 O371 1.232 . S
O360 C359 1.245 . S
O361 Co355 2.058 . S
O361 C387 1.269 . S
O362 Co354 2.074 . S
O362 C387 1.257 . S
H363 C388 0.930 . S
H364 C394 0.930 . S
O365 Co354 2.093 . S
O365 C357 1.224 . S
H366 C398 0.929 . S
H367 C400 0.930 . S
H368 C401 0.930 . S
H369 C399 0.929 . S
H370 C402 0.928 . S
O371 Co355 2.057 . S
O371 C359 1.232 . S
H372 C391 0.929 . S
H373 C392 0.929 . S
H374 C404 0.931 . S
H375 C396 0.929 . S
H376 C405 0.930 . S
H377 C397 0.931 . S
O378 Co354 2.097 . S
O378 C406 1.214 . S
H379 C407 0.929 . S
H380 C408 0.929 . S
H381 C409 0.930 . S
H382 C410 0.929 . S
H383 C412 0.930 . S
H384 C389 0.930 . S
H385 C393 0.930 . S
O386 Co355 2.037 . S
O386 C406 1.234 . S
C387 O361 1.269 . S
C387 O362 1.257 . S
C388 H363 0.930 . S
C388 C391 1.388 . S
C388 C393 1.418 . S
C389 H384 0.930 . S
C389 C392 1.404 . S
C389 C393 1.353 . S
N390 Co355 2.145 . S
N390 C391 1.397 . S
N390 C392 1.334 . S
C391 H372 0.929 . S
C391 C388 1.388 . S
C391 N390 1.397 . S
C392 H373 0.929 . S
C392 C389 1.404 . S
C392 N390 1.334 . S
C393 H385 0.930 . S
C393 C388 1.418 . S
C393 C389 1.353 . S
C394 H364 0.930 . S
C394 N395 1.330 . S
C394 C396 1.446 . S
N395 Co354 2.151 . S
N395 C394 1.330 . S
N395 C399 1.418 . S
C396 H375 0.929 . S
C396 C394 1.446 . S
C396 C397 1.332 . S
C397 H377 0.931 . S
C397 C396 1.332 . S
C397 C398 1.267 . S
C398 H366 0.929 . S
C398 C397 1.267 . S
C398 C399 1.251 . S
C399 H369 0.929 . S
C399 N395 1.418 . S
C399 C398 1.251 . S
C400 H367 0.930 . S
C400 C402 1.406 . S
C400 C405 1.261 . S
C401 H368 0.930 . S
C401 N403 1.325 . S
C401 C404 1.357 . S
C402 H370 0.928 . S
C402 C400 1.406 . S
C402 N403 1.261 . S
N403 Co354 2.214 . S
N403 C401 1.325 . S
N403 C402 1.261 . S
C404 H374 0.931 . S
C404 C401 1.357 . S
C404 C405 1.312 . S
C405 H376 0.930 . S
C405 C400 1.261 . S
C405 C404 1.312 . S
C406 O378 1.214 . S
C406 O386 1.234 . S
C407 H379 0.929 . S
C407 C410 1.391 . S
C407 C412 1.391 . S
C408 H380 0.929 . S
C408 C409 1.390 . S
C408 N411 1.391 . S
C409 H381 0.930 . S
C409 C408 1.390 . S
C409 C410 1.392 . S
C410 H382 0.929 . S
C410 C407 1.391 . S
C410 C409 1.392 . S
N411 Co355 2.257 . S
N411 C408 1.391 . S
N411 C412 1.388 . S
C412 H383 0.930 . S
C412 C407 1.391 . S
C412 N411 1.388 . S
Co413 O415 2.143 . S
Co413 O421 2.074 . S
Co413 O424 2.093 . S
Co413 O437 2.097 . S
Co413 N454 2.151 . S
Co413 N462 2.214 . S
Co414 O415 2.160 . S
Co414 O420 2.058 . S
Co414 O430 2.057 . S
Co414 O445 2.037 . S
Co414 N449 2.145 . S
Co414 N470 2.257 . S
O415 Co413 2.143 . S
O415 Co414 2.160 . S
C416 O417 1.278 . S
C416 O424 1.224 . S
O417 C416 1.278 . S
C418 O419 1.245 . S
C418 O430 1.232 . S
O419 C418 1.245 . S
O420 Co414 2.058 . S
O420 C446 1.269 . S
O421 Co413 2.074 . S
O421 C446 1.257 . S
H422 C447 0.930 . S
H423 C453 0.930 . S
O424 Co413 2.093 . S
O424 C416 1.224 . S
H425 C457 0.929 . S
H426 C459 0.930 . S
H427 C460 0.930 . S
H428 C458 0.929 . S
H429 C461 0.928 . S
O430 Co414 2.057 . S
O430 C418 1.232 . S
H431 C450 0.929 . S
H432 C451 0.929 . S
H433 C463 0.931 . S
H434 C455 0.929 . S
H435 C464 0.930 . S
H436 C456 0.931 . S
O437 Co413 2.097 . S
O437 C465 1.214 . S
H438 C466 0.929 . S
H439 C467 0.929 . S
H440 C468 0.930 . S
H441 C469 0.929 . S
H442 C471 0.930 . S
H443 C448 0.930 . S
H444 C452 0.930 . S
O445 Co414 2.037 . S
O445 C465 1.234 . S
C446 O420 1.269 . S
C446 O421 1.257 . S
C447 H422 0.930 . S
C447 C450 1.388 . S
C447 C452 1.418 . S
C448 H443 0.930 . S
C448 C451 1.404 . S
C448 C452 1.353 . S
N449 Co414 2.145 . S
N449 C450 1.397 . S
N449 C451 1.334 . S
C450 H431 0.929 . S
C450 C447 1.388 . S
C450 N449 1.397 . S
C451 H432 0.929 . S
C451 C448 1.404 . S
C451 N449 1.334 . S
C452 H444 0.930 . S
C452 C447 1.418 . S
C452 C448 1.353 . S
C453 H423 0.930 . S
C453 N454 1.330 . S
C453 C455 1.446 . S
N454 Co413 2.151 . S
N454 C453 1.330 . S
N454 C458 1.418 . S
C455 H434 0.929 . S
C455 C453 1.446 . S
C455 C456 1.332 . S
C456 H436 0.931 . S
C456 C455 1.332 . S
C456 C457 1.267 . S
C457 H425 0.929 . S
C457 C456 1.267 . S
C457 C458 1.251 . S
C458 H428 0.929 . S
C458 N454 1.418 . S
C458 C457 1.251 . S
C459 H426 0.930 . S
C459 C461 1.406 . S
C459 C464 1.261 . S
C460 H427 0.930 . S
C460 N462 1.325 . S
C460 C463 1.357 . S
C461 H429 0.928 . S
C461 C459 1.406 . S
C461 N462 1.261 . S
N462 Co413 2.214 . S
N462 C460 1.325 . S
N462 C461 1.261 . S
C463 H433 0.931 . S
C463 C460 1.357 . S
C463 C464 1.312 . S
C464 H435 0.930 . S
C464 C459 1.261 . S
C464 C463 1.312 . S
C465 O437 1.214 . S
C465 O445 1.234 . S
C466 H438 0.929 . S
C466 C469 1.391 . S
C466 C471 1.391 . S
C467 H439 0.929 . S
C467 C468 1.390 . S
C467 N470 1.391 . S
C468 H440 0.930 . S
C468 C467 1.390 . S
C468 C469 1.392 . S
C469 H441 0.929 . S
C469 C466 1.391 . S
C469 C468 1.392 . S
N470 Co414 2.257 . S
N470 C467 1.391 . S
N470 C471 1.388 . S
C471 H442 0.930 . S
C471 C466 1.391 . S
C471 N470 1.388 . S
H472 C484 0.930 . S
H473 C486 0.930 . S
H474 C487 0.930 . S
H475 C491 0.959 . S
H476 C491 0.959 . S
H477 C491 0.961 . S
H478 C492 0.960 . S
H479 C492 0.961 . S
H480 C492 0.959 . S
H481 C495 0.929 . S
H482 C496 0.931 . S
H483 C498 0.930 . S
C484 H472 0.930 . S
C484 C485 1.399 1_554 S
C484 C489 1.399 . S
C485 C484 1.399 1_556 S
C485 C486 1.376 . S
C486 H473 0.930 . S
C486 C485 1.376 . S
C486 C487 1.388 . S
C487 H474 0.930 . S
C487 C486 1.388 . S
C487 C488 1.390 . S
C488 C487 1.390 . S
C488 C489 1.394 1_556 S
C488 C494 1.465 . S
C489 C484 1.399 . S
C489 C488 1.394 1_554 S
C489 C490 1.516 . S
C490 C489 1.516 . S
C490 C491 1.502 . S
C490 C492 1.561 . S
C490 C493 1.526 . S
C491 H475 0.959 . S
C491 H476 0.959 . S
C491 H477 0.961 . S
C491 C490 1.502 . S
C492 H478 0.960 . S
C492 H479 0.961 . S
C492 H480 0.959 . S
C492 C490 1.561 . S
C493 C490 1.526 . S
C493 C494 1.396 1_554 S
C493 C498 1.390 . S
C494 C488 1.465 . S
C494 C493 1.396 1_556 S
C494 C495 1.399 . S
C495 H481 0.929 . S
C495 C494 1.399 . S
C495 C496 1.385 . S
C496 H482 0.931 . S
C496 C495 1.385 . S
C496 C497 1.389 1_556 S
C497 C496 1.389 1_554 S
C497 C498 1.387 . S
C498 H483 0.930 . S
C498 C493 1.390 . S
C498 C497 1.387 . S
H499 C511 0.930 . S
H500 C513 0.930 . S
H501 C514 0.930 . S
H502 C518 0.959 . S
H503 C518 0.959 . S
H504 C518 0.961 . S
H505 C519 0.960 . S
H506 C519 0.961 . S
H507 C519 0.959 . S
H508 C522 0.929 . S
H509 C523 0.931 . S
H510 C525 0.930 . S
C511 H499 0.930 . S
C511 C512 1.399 . S
C511 C516 1.399 . S
C512 C511 1.399 . S
C512 C513 1.376 . S
C513 H500 0.930 . S
C513 C512 1.376 . S
C513 C514 1.388 . S
C514 H501 0.930 . S
C514 C513 1.388 . S
C514 C515 1.390 . S
C515 C514 1.390 . S
C515 C516 1.394 . S
C515 C521 1.465 . S
C516 C511 1.399 . S
C516 C515 1.394 . S
C516 C517 1.516 1_554 S
C517 C516 1.516 1_556 S
C517 C518 1.502 . S
C517 C519 1.561 1_556 S
C517 C520 1.526 . S
C518 H502 0.959 . S
C518 H503 0.959 . S
C518 H504 0.961 . S
C518 C517 1.502 . S
C519 H505 0.960 . S
C519 H506 0.961 . S
C519 H507 0.959 . S
C519 C517 1.561 1_554 S
C520 C517 1.526 . S
C520 C521 1.396 1_556 S
C520 C525 1.390 . S
C521 C515 1.465 . S
C521 C520 1.396 1_554 S
C521 C522 1.399 . S
C522 H508 0.929 . S
C522 C521 1.399 . S
C522 C523 1.385 . S
C523 H509 0.931 . S
C523 C522 1.385 . S
C523 C524 1.389 1_554 S
C524 C523 1.389 1_556 S
C524 C525 1.387 . S
C525 H510 0.930 . S
C525 C520 1.390 . S
C525 C524 1.387 . S
H526 C538 0.930 . S
H527 C540 0.930 . S
H528 C541 0.930 . S
H529 C545 0.959 . S
H530 C545 0.959 . S
H531 C545 0.961 . S
H532 C546 0.960 . S
H533 C546 0.961 . S
H534 C546 0.959 . S
H535 C549 0.929 . S
H536 C550 0.931 . S
H537 C552 0.930 . S
C538 H526 0.930 . S
C538 C539 1.399 1_556 S
C538 C543 1.399 . S
C539 C538 1.399 1_554 S
C539 C540 1.376 . S
C540 H527 0.930 . S
C540 C539 1.376 . S
C540 C541 1.388 . S
C541 H528 0.930 . S
C541 C540 1.388 . S
C541 C542 1.390 . S
C542 C541 1.390 . S
C542 C543 1.394 1_554 S
C542 C548 1.465 . S
C543 C538 1.399 . S
C543 C542 1.394 1_556 S
C543 C544 1.516 . S
C544 C543 1.516 . S
C544 C545 1.502 . S
C544 C546 1.561 . S
C544 C547 1.526 . S
C545 H529 0.959 . S
C545 H530 0.959 . S
C545 H531 0.961 . S
C545 C544 1.502 . S
C546 H532 0.960 . S
C546 H533 0.961 . S
C546 H534 0.959 . S
C546 C544 1.561 . S
C547 C544 1.526 . S
C547 C548 1.396 1_556 S
C547 C552 1.390 . S
C548 C542 1.465 . S
C548 C547 1.396 1_554 S
C548 C549 1.399 . S
C549 H535 0.929 . S
C549 C548 1.399 . S
C549 C550 1.385 . S
C550 H536 0.931 . S
C550 C549 1.385 . S
C550 C551 1.389 1_554 S
C551 C550 1.389 1_556 S
C551 C552 1.387 . S
C552 H537 0.930 . S
C552 C547 1.390 . S
C552 C551 1.387 . S
H553 C565 0.930 . S
H554 C567 0.931 . S
H555 C568 0.930 . S
H556 C572 0.959 . S
H557 C572 0.959 . S
H558 C572 0.961 . S
H559 C573 0.960 . S
H560 C573 0.961 . S
H561 C573 0.959 . S
H562 C576 0.929 . S
H563 C577 0.931 . S
H564 C579 0.930 . S
C565 H553 0.930 . S
C565 C566 1.399 . S
C565 C570 1.399 . S
C566 C565 1.399 . S
C566 C567 1.376 . S
C567 H554 0.931 . S
C567 C566 1.376 . S
C567 C568 1.388 1_556 S
C568 H555 0.930 . S
C568 C567 1.388 1_554 S
C568 C569 1.390 . S
C569 C568 1.390 . S
C569 C570 1.394 1_554 S
C569 C575 1.465 . S
C570 C565 1.399 . S
C570 C569 1.394 1_556 S
C570 C571 1.516 1_556 S
C571 C570 1.516 1_554 S
C571 C572 1.502 1_554 S
C571 C573 1.561 . S
C571 C574 1.526 . S
C572 H556 0.959 . S
C572 H557 0.959 . S
C572 H558 0.961 . S
C572 C571 1.502 1_556 S
C573 H559 0.960 . S
C573 H560 0.961 . S
C573 H561 0.959 . S
C573 C571 1.561 . S
C574 C571 1.526 . S
C574 C575 1.396 . S
C574 C579 1.390 . S
C575 C569 1.465 . S
C575 C574 1.396 . S
C575 C576 1.399 . S
C576 H562 0.929 . S
C576 C575 1.399 . S
C576 C577 1.385 . S
C577 H563 0.931 . S
C577 C576 1.385 . S
C577 C578 1.389 . S
C578 C577 1.389 . S
C578 C579 1.387 . S
C579 H564 0.930 . S
C579 C574 1.390 . S
C579 C578 1.387 . S
H580 C592 0.930 . S
H581 C594 0.930 . S
H582 C595 0.930 . S
H583 C599 0.959 . S
H584 C599 0.959 1_545 S
H585 C599 0.961 . S
H586 C600 0.960 . S
H587 C600 0.961 1_545 S
H588 C600 0.959 . S
H589 C603 0.929 . S
H590 C604 0.931 . S
H591 C606 0.930 . S
C592 H580 0.930 . S
C592 C593 1.399 . S
C592 C597 1.399 . S
C593 C592 1.399 . S
C593 C594 1.376 . S
C594 H581 0.930 . S
C594 C593 1.376 . S
C594 C595 1.388 . S
C595 H582 0.930 . S
C595 C594 1.388 . S
C595 C596 1.390 . S
C596 C595 1.390 . S
C596 C597 1.394 . S
C596 C602 1.465 1_565 S
C597 C592 1.399 . S
C597 C596 1.394 . S
C597 C598 1.516 . S
C598 C597 1.516 . S
C598 C599 1.502 . S
C598 C600 1.561 . S
C598 C601 1.526 1_565 S
C599 H583 0.959 . S
C599 H584 0.959 1_565 S
C599 H585 0.961 . S
C599 C598 1.502 . S
C600 H586 0.960 . S
C600 H587 0.961 1_565 S
C600 H588 0.959 . S
C600 C598 1.561 . S
C601 C598 1.526 1_545 S
C601 C602 1.396 . S
C601 C606 1.390 . S
C602 C596 1.465 1_545 S
C602 C601 1.396 . S
C602 C603 1.399 . S
C603 H589 0.929 . S
C603 C602 1.399 . S
C603 C604 1.385 . S
C604 H590 0.931 . S
C604 C603 1.385 . S
C604 C605 1.389 . S
C605 C604 1.389 . S
C605 C606 1.387 . S
C606 H591 0.930 . S
C606 C601 1.390 . S
C606 C605 1.387 . S
H607 C619 0.930 . S
H608 C621 0.930 . S
H609 C622 0.930 . S
H610 C626 0.959 . S
H611 C626 0.959 . S
H612 C626 0.961 1_455 S
H613 C627 0.960 . S
H614 C627 0.961 1_655 S
H615 C627 0.959 . S
H616 C630 0.929 . S
H617 C631 0.931 . S
H618 C633 0.930 . S
C619 H607 0.930 . S
C619 C620 1.399 . S
C619 C624 1.399 . S
C620 C619 1.399 . S
C620 C621 1.376 . S
C621 H608 0.930 . S
C621 C620 1.376 . S
C621 C622 1.388 . S
C622 H609 0.930 . S
C622 C621 1.388 . S
C622 C623 1.390 . S
C623 C622 1.390 . S
C623 C624 1.394 . S
C623 C629 1.465 1_455 S
C624 C619 1.399 . S
C624 C623 1.394 . S
C624 C625 1.516 1_455 S
C625 C624 1.516 1_655 S
C625 C626 1.502 . S
C625 C627 1.561 1_655 S
C625 C628 1.526 . S
C626 H610 0.959 . S
C626 H611 0.959 . S
C626 H612 0.961 1_655 S
C626 C625 1.502 . S
C627 H613 0.960 . S
C627 H614 0.961 1_455 S
C627 H615 0.959 . S
C627 C625 1.561 1_455 S
C628 C625 1.526 . S
C628 C629 1.396 . S
C628 C633 1.390 . S
C629 C623 1.465 1_655 S
C629 C628 1.396 . S
C629 C630 1.399 . S
C630 H616 0.929 . S
C630 C629 1.399 . S
C630 C631 1.385 . S
C631 H617 0.931 . S
C631 C630 1.385 . S
C631 C632 1.389 . S
C632 C631 1.389 . S
C632 C633 1.387 . S
C633 H618 0.930 . S
C633 C628 1.390 . S
C633 C632 1.387 . S
H634 C646 0.930 . S
H635 C648 0.930 . S
H636 C649 0.930 . S
H637 C653 0.959 . S
H638 C653 0.959 1_565 S
H639 C653 0.961 . S
H640 C654 0.960 . S
H641 C654 0.961 1_565 S
H642 C654 0.959 . S
H643 C657 0.929 . S
H644 C658 0.931 . S
H645 C660 0.930 . S
C646 H634 0.930 . S
C646 C647 1.399 . S
C646 C651 1.399 . S
C647 C646 1.399 . S
C647 C648 1.376 . S
C648 H635 0.930 . S
C648 C647 1.376 . S
C648 C649 1.388 . S
C649 H636 0.930 . S
C649 C648 1.388 . S
C649 C650 1.390 . S
C650 C649 1.390 . S
C650 C651 1.394 . S
C650 C656 1.465 1_545 S
C651 C646 1.399 . S
C651 C650 1.394 . S
C651 C652 1.516 . S
C652 C651 1.516 . S
C652 C653 1.502 . S
C652 C654 1.561 . S
C652 C655 1.526 1_545 S
C653 H637 0.959 . S
C653 H638 0.959 1_545 S
C653 H639 0.961 . S
C653 C652 1.502 . S
C654 H640 0.960 . S
C654 H641 0.961 1_545 S
C654 H642 0.959 . S
C654 C652 1.561 . S
C655 C652 1.526 1_565 S
C655 C656 1.396 . S
C655 C660 1.390 . S
C656 C650 1.465 1_565 S
C656 C655 1.396 . S
C656 C657 1.399 . S
C657 H643 0.929 . S
C657 C656 1.399 . S
C657 C658 1.385 . S
C658 H644 0.931 . S
C658 C657 1.385 . S
C658 C659 1.389 . S
C659 C658 1.389 . S
C659 C660 1.387 . S
C660 H645 0.930 . S
C660 C655 1.390 . S
C660 C659 1.387 . S
H661 C673 0.930 . S
H662 C675 0.930 . S
H663 C676 0.930 . S
H664 C680 0.959 . S
H665 C680 0.959 1_455 S
H666 C680 0.961 . S
H667 C681 0.960 1_655 S
H668 C681 0.961 . S
H669 C681 0.959 . S
H670 C684 0.929 . S
H671 C685 0.931 . S
H672 C687 0.930 . S
C673 H661 0.930 . S
C673 C674 1.399 . S
C673 C678 1.399 . S
C674 C673 1.399 . S
C674 C675 1.376 . S
C675 H662 0.930 . S
C675 C674 1.376 . S
C675 C676 1.388 . S
C676 H663 0.930 . S
C676 C675 1.388 . S
C676 C677 1.390 . S
C677 C676 1.390 . S
C677 C678 1.394 . S
C677 C683 1.465 1_655 S
C678 C673 1.399 . S
C678 C677 1.394 . S
C678 C679 1.539 . S
C679 C678 1.539 . S
C679 C680 1.506 . S
C679 C681 1.557 1_655 S
C679 C682 1.502 1_655 S
C680 H664 0.959 . S
C680 H665 0.959 1_655 S
C680 H666 0.961 . S
C680 C679 1.506 . S
C681 H667 0.960 1_455 S
C681 H668 0.961 . S
C681 H669 0.959 . S
C681 C679 1.557 1_455 S
C682 C679 1.502 1_455 S
C682 C683 1.396 . S
C682 C687 1.390 . S
C683 C677 1.465 1_455 S
C683 C682 1.396 . S
C683 C684 1.399 . S
C684 H670 0.929 . S
C684 C683 1.399 . S
C684 C685 1.385 . S
C685 H671 0.931 . S
C685 C684 1.385 . S
C685 C686 1.389 . S
C686 C685 1.389 . S
C686 C687 1.387 . S
C687 H672 0.930 . S
C687 C682 1.390 . S
C687 C686 1.387 . S
H688 C700 0.930 . S
H689 C702 0.930 . S
H690 C703 0.930 . S
H691 C707 0.959 . S
H692 C707 0.959 . S
H693 C707 0.961 . S
H694 C708 0.960 . S
H695 C708 0.961 . S
H696 C708 0.959 . S
H697 C711 0.929 . S
H698 C712 0.931 . S
H699 C714 0.930 . S
C700 H688 0.930 . S
C700 C701 1.399 . S
C700 C705 1.399 . S
C701 C700 1.399 . S
C701 C702 1.376 . S
C702 H689 0.930 . S
C702 C701 1.376 . S
C702 C703 1.388 . S
C703 H690 0.930 . S
C703 C702 1.388 . S
C703 C704 1.390 . S
C704 C703 1.390 . S
C704 C705 1.394 . S
C704 C710 1.465 . S
C705 C700 1.399 . S
C705 C704 1.394 . S
C705 C706 1.516 . S
C706 C705 1.516 . S
C706 C707 1.502 . S
C706 C708 1.561 . S
C706 C709 1.526 . S
C707 H691 0.959 . S
C707 H692 0.959 . S
C707 H693 0.961 . S
C707 C706 1.502 . S
C708 H694 0.960 . S
C708 H695 0.961 . S
C708 H696 0.959 . S
C708 C706 1.561 . S
C709 C706 1.526 . S
C709 C710 1.396 . S
C709 C714 1.390 . S
C710 C704 1.465 . S
C710 C709 1.396 . S
C710 C711 1.399 . S
C711 H697 0.929 . S
C711 C710 1.399 . S
C711 C712 1.385 . S
C712 H698 0.931 . S
C712 C711 1.385 . S
C712 C713 1.389 . S
C713 C712 1.389 . S
C713 C714 1.387 . S
C714 H699 0.930 . S
C714 C709 1.390 . S
C714 C713 1.387 . S
H715 C727 0.930 . S
H716 C729 0.930 . S
H717 C730 0.930 . S
H718 C734 0.959 . S
H719 C734 0.959 . S
H720 C734 0.961 . S
H721 C735 0.960 . S
H722 C735 0.961 . S
H723 C735 0.959 . S
H724 C738 0.929 . S
H725 C739 0.931 . S
H726 C741 0.930 . S
C727 H715 0.930 . S
C727 C728 1.399 . S
C727 C732 1.399 . S
C728 C727 1.399 . S
C728 C729 1.376 . S
C729 H716 0.930 . S
C729 C728 1.376 . S
C729 C730 1.388 . S
C730 H717 0.930 . S
C730 C729 1.388 . S
C730 C731 1.390 . S
C731 C730 1.390 . S
C731 C732 1.394 . S
C731 C737 1.465 . S
C732 C727 1.399 . S
C732 C731 1.394 . S
C732 C733 1.516 . S
C733 C732 1.516 . S
C733 C734 1.502 . S
C733 C735 1.561 . S
C733 C736 1.526 . S
C734 H718 0.959 . S
C734 H719 0.959 . S
C734 H720 0.961 . S
C734 C733 1.502 . S
C735 H721 0.960 . S
C735 H722 0.961 . S
C735 H723 0.959 . S
C735 C733 1.561 . S
C736 C733 1.526 . S
C736 C737 1.396 . S
C736 C741 1.390 . S
C737 C731 1.465 . S
C737 C736 1.396 . S
C737 C738 1.399 . S
C738 H724 0.929 . S
C738 C737 1.399 . S
C738 C739 1.385 . S
C739 H725 0.931 . S
C739 C738 1.385 . S
C739 C740 1.389 . S
C740 C739 1.389 . S
C740 C741 1.387 . S
C741 H726 0.930 . S
C741 C736 1.390 . S
C741 C740 1.387 . S
H742 C754 0.930 . S
H743 C756 0.930 . S
H744 C757 0.930 . S
H745 C761 0.959 . S
H746 C761 0.959 . S
H747 C761 0.961 . S
H748 C762 0.960 . S
H749 C762 0.961 . S
H750 C762 0.959 . S
H751 C765 0.929 . S
H752 C766 0.931 . S
H753 C768 0.930 . S
C754 H742 0.930 . S
C754 C755 1.399 . S
C754 C759 1.399 . S
C755 C754 1.399 . S
C755 C756 1.376 . S
C756 H743 0.930 . S
C756 C755 1.376 . S
C756 C757 1.388 . S
C757 H744 0.930 . S
C757 C756 1.388 . S
C757 C758 1.390 . S
C758 C757 1.390 . S
C758 C759 1.394 . S
C758 C764 1.465 . S
C759 C754 1.399 . S
C759 C758 1.394 . S
C759 C760 1.516 . S
C760 C759 1.516 . S
C760 C761 1.502 . S
C760 C762 1.561 . S
C760 C763 1.526 . S
C761 H745 0.959 . S
C761 H746 0.959 . S
C761 H747 0.961 . S
C761 C760 1.502 . S
C762 H748 0.960 . S
C762 H749 0.961 . S
C762 H750 0.959 . S
C762 C760 1.561 . S
C763 C760 1.526 . S
C763 C764 1.396 . S
C763 C768 1.390 . S
C764 C758 1.465 . S
C764 C763 1.396 . S
C764 C765 1.399 . S
C765 H751 0.929 . S
C765 C764 1.399 . S
C765 C766 1.385 . S
C766 H752 0.931 . S
C766 C765 1.385 . S
C766 C767 1.389 . S
C767 C766 1.389 . S
C767 C768 1.387 . S
C768 H753 0.930 . S
C768 C763 1.390 . S
C768 C767 1.387 . S
H769 C781 0.930 . S
H770 C783 0.930 . S
H771 C784 0.930 . S
H772 C788 0.959 . S
H773 C788 0.959 . S
H774 C788 0.961 . S
H775 C789 0.960 . S
H776 C789 0.961 . S
H777 C789 0.959 . S
H778 C792 0.929 . S
H779 C793 0.931 . S
H780 C795 0.930 . S
C781 H769 0.930 . S
C781 C782 1.399 . S
C781 C786 1.399 . S
C782 C781 1.399 . S
C782 C783 1.376 . S
C783 H770 0.930 . S
C783 C782 1.376 . S
C783 C784 1.388 . S
C784 H771 0.930 . S
C784 C783 1.388 . S
C784 C785 1.390 . S
C785 C784 1.390 . S
C785 C786 1.394 . S
C785 C791 1.465 . S
C786 C781 1.399 . S
C786 C785 1.394 . S
C786 C787 1.516 . S
C787 C786 1.516 . S
C787 C788 1.502 . S
C787 C789 1.561 . S
C787 C790 1.526 . S
C788 H772 0.959 . S
C788 H773 0.959 . S
C788 H774 0.961 . S
C788 C787 1.502 . S
C789 H775 0.960 . S
C789 H776 0.961 . S
C789 H777 0.959 . S
C789 C787 1.561 . S
C790 C787 1.526 . S
C790 C791 1.396 . S
C790 C795 1.390 . S
C791 C785 1.465 . S
C791 C790 1.396 . S
C791 C792 1.399 . S
C792 H778 0.929 . S
C792 C791 1.399 . S
C792 C793 1.385 . S
C793 H779 0.931 . S
C793 C792 1.385 . S
C793 C794 1.389 . S
C794 C793 1.389 . S
C794 C795 1.387 . S
C795 H780 0.930 . S
C795 C790 1.390 . S
C795 C794 1.387 . S
H796 C808 0.930 . S
H797 C810 0.930 . S
H798 C811 0.930 . S
H799 C815 0.959 . S
H800 C815 0.959 . S
H801 C815 0.961 . S
H802 C816 0.960 . S
H803 C816 0.961 . S
H804 C816 0.959 . S
H805 C819 0.929 . S
H806 C820 0.931 . S
H807 C822 0.930 . S
C808 H796 0.930 . S
C808 C809 1.399 . S
C808 C813 1.399 . S
C809 C808 1.399 . S
C809 C810 1.376 . S
C810 H797 0.930 . S
C810 C809 1.376 . S
C810 C811 1.388 . S
C811 H798 0.930 . S
C811 C810 1.388 . S
C811 C812 1.390 . S
C812 C811 1.390 . S
C812 C813 1.394 . S
C812 C818 1.465 . S
C813 C808 1.399 . S
C813 C812 1.394 . S
C813 C814 1.516 . S
C814 C813 1.516 . S
C814 C815 1.502 . S
C814 C816 1.561 . S
C814 C817 1.526 . S
C815 H799 0.959 . S
C815 H800 0.959 . S
C815 H801 0.961 . S
C815 C814 1.502 . S
C816 H802 0.960 . S
C816 H803 0.961 . S
C816 H804 0.959 . S
C816 C814 1.561 . S
C817 C814 1.526 . S
C817 C818 1.396 . S
C817 C822 1.390 . S
C818 C812 1.465 . S
C818 C817 1.396 . S
C818 C819 1.399 . S
C819 H805 0.929 . S
C819 C818 1.399 . S
C819 C820 1.385 . S
C820 H806 0.931 . S
C820 C819 1.385 . S
C820 C821 1.389 . S
C821 C820 1.389 . S
C821 C822 1.387 . S
C822 H807 0.930 . S
C822 C817 1.390 . S
C822 C821 1.387 . S
H823 C835 0.930 . S
H824 C837 0.930 . S
H825 C838 0.930 . S
H826 C842 0.959 . S
H827 C842 0.959 . S
H828 C842 0.961 . S
H829 C843 0.960 . S
H830 C843 0.961 . S
H831 C843 0.959 . S
H832 C846 0.929 . S
H833 C847 0.931 . S
H834 C849 0.930 . S
C835 H823 0.930 . S
C835 C836 1.399 . S
C835 C840 1.399 . S
C836 C835 1.399 . S
C836 C837 1.376 . S
C837 H824 0.930 . S
C837 C836 1.376 . S
C837 C838 1.388 . S
C838 H825 0.930 . S
C838 C837 1.388 . S
C838 C839 1.390 . S
C839 C838 1.390 . S
C839 C840 1.394 . S
C839 C845 1.465 . S
C840 C835 1.399 . S
C840 C839 1.394 . S
C840 C841 1.516 . S
C841 C840 1.516 . S
C841 C842 1.502 . S
C841 C843 1.561 . S
C841 C844 1.526 . S
C842 H826 0.959 . S
C842 H827 0.959 . S
C842 H828 0.961 . S
C842 C841 1.502 . S
C843 H829 0.960 . S
C843 H830 0.961 . S
C843 H831 0.959 . S
C843 C841 1.561 . S
C844 C841 1.526 . S
C844 C845 1.396 . S
C844 C849 1.390 . S
C845 C839 1.465 . S
C845 C844 1.396 . S
C845 C846 1.399 . S
C846 H832 0.929 . S
C846 C845 1.399 . S
C846 C847 1.385 . S
C847 H833 0.931 . S
C847 C846 1.385 . S
C847 C848 1.389 . S
C848 C847 1.389 . S
C848 C849 1.387 . S
C849 H834 0.930 . S
C849 C844 1.390 . S
C849 C848 1.387 . S
H850 C862 0.930 . S
H851 C864 0.930 . S
H852 C865 0.930 . S
H853 C869 0.959 . S
H854 C869 0.959 . S
H855 C869 0.961 . S
H856 C870 0.960 . S
H857 C870 0.961 . S
H858 C870 0.959 . S
H859 C873 0.929 . S
H860 C874 0.931 . S
H861 C876 0.930 . S
C862 H850 0.930 . S
C862 C863 1.399 . S
C862 C867 1.399 . S
C863 C862 1.399 . S
C863 C864 1.376 . S
C864 H851 0.930 . S
C864 C863 1.376 . S
C864 C865 1.388 . S
C865 H852 0.930 . S
C865 C864 1.388 . S
C865 C866 1.390 . S
C866 C865 1.390 . S
C866 C867 1.394 . S
C866 C872 1.465 . S
C867 C862 1.399 . S
C867 C866 1.394 . S
C867 C868 1.516 . S
C868 C867 1.516 . S
C868 C869 1.502 . S
C868 C870 1.561 . S
C868 C871 1.526 . S
C869 H853 0.959 . S
C869 H854 0.959 . S
C869 H855 0.961 . S
C869 C868 1.502 . S
C870 H856 0.960 . S
C870 H857 0.961 . S
C870 H858 0.959 . S
C870 C868 1.561 . S
C871 C868 1.526 . S
C871 C872 1.396 . S
C871 C876 1.390 . S
C872 C866 1.465 . S
C872 C871 1.396 . S
C872 C873 1.399 . S
C873 H859 0.929 . S
C873 C872 1.399 . S
C873 C874 1.385 . S
C874 H860 0.931 . S
C874 C873 1.385 . S
C874 C875 1.389 . S
C875 C874 1.389 . S
C875 C876 1.387 . S
C876 H861 0.930 . S
C876 C871 1.390 . S
C876 C875 1.387 . S
H877 C889 0.930 . S
H878 C891 0.930 . S
H879 C892 0.930 . S
H880 C896 0.959 . S
H881 C896 0.959 . S
H882 C896 0.961 . S
H883 C897 0.960 . S
H884 C897 0.961 . S
H885 C897 0.959 . S
H886 C900 0.929 . S
H887 C901 0.931 . S
H888 C903 0.930 . S
C889 H877 0.930 . S
C889 C890 1.399 . S
C889 C894 1.399 . S
C890 C889 1.399 . S
C890 C891 1.376 . S
C891 H878 0.930 . S
C891 C890 1.376 . S
C891 C892 1.388 . S
C892 H879 0.930 . S
C892 C891 1.388 . S
C892 C893 1.390 . S
C893 C892 1.390 . S
C893 C894 1.394 . S
C893 C899 1.465 . S
C894 C889 1.399 . S
C894 C893 1.394 . S
C894 C895 1.516 . S
C895 C894 1.516 . S
C895 C896 1.502 . S
C895 C897 1.561 . S
C895 C898 1.526 . S
C896 H880 0.959 . S
C896 H881 0.959 . S
C896 H882 0.961 . S
C896 C895 1.502 . S
C897 H883 0.960 . S
C897 H884 0.961 . S
C897 H885 0.959 . S
C897 C895 1.561 . S
C898 C895 1.526 . S
C898 C899 1.396 . S
C898 C903 1.390 . S
C899 C893 1.465 . S
C899 C898 1.396 . S
C899 C900 1.399 . S
C900 H886 0.929 . S
C900 C899 1.399 . S
C900 C901 1.385 . S
C901 H887 0.931 . S
C901 C900 1.385 . S
C901 C902 1.389 . S
C902 C901 1.389 . S
C902 C903 1.387 . S
C903 H888 0.930 . S
C903 C898 1.390 . S
C903 C902 1.387 . S
C485 C52 1.690 . S
C497 C210 1.645 . S
C512 C33 1.685 . S
C524 C92 1.657 . S
C539 C111 1.685 . S
C551 C151 1.650 . S
C566 C229 1.657 . S
C578 C170 1.680 . S
C593 C288 1.687 . S
C605 C465 1.649 . S
C620 C347 1.659 . S
C632 C269 1.674 . S
C647 C387 1.686 . S
C659 C328 1.646 . S
C674 C446 1.683 . S
C686 C406 1.651 . S
C701 C359 1.621 . S
C713 C5 1.617 . S
C728 C62 1.613 . S
C740 C418 1.620 . S
C755 C239 1.588 . S
C767 C121 1.609 . S
C782 C298 1.589 . S
C794 C182 1.612 . S
C809 C300 1.599 . S
C821 C180 1.600 . S
C836 C3 1.591 . S
C848 C357 1.604 . S
C863 C64 1.608 . S
C875 C416 1.620 . S
C890 C123 1.607 . S
C902 C241 1.615 . S
