# Generated by pormake.
# Topology wnd, (6)-cn, num edge types: 1
# Building blocks:
#     Node 0, Type 0, BuildingBlock: CUKXOW_clean_sbu_0, # of connection points: 6
#     Node 1, Type 0, BuildingBlock: CUKXOW_clean_sbu_0, # of connection points: 6
#     Node 2, Type 0, BuildingBlock: CUKXOW_clean_sbu_0, # of connection points: 6
#     Node 3, Type 0, BuildingBlock: CUKXOW_clean_sbu_0, # of connection points: 6
#     Node 4, Type 0, BuildingBlock: CUKXOW_clean_sbu_0, # of connection points: 6
#     Node 5, Type 0, BuildingBlock: CUKXOW_clean_sbu_0, # of connection points: 6
#     Node 6, Type 0, BuildingBlock: CUKXOW_clean_sbu_0, # of connection points: 6
#     Node 7, Type 0, BuildingBlock: CUKXOW_clean_sbu_0, # of connection points: 6
#     Node 8, Type 0, BuildingBlock: CUKXOW_clean_sbu_0, # of connection points: 6
#     Node 9, Type 0, BuildingBlock: CUKXOW_clean_sbu_0, # of connection points: 6
#     Node 10, Type 0, BuildingBlock: CUKXOW_clean_sbu_0, # of connection points: 6
#     Node 11, Type 0, BuildingBlock: CUKXOW_clean_sbu_0, # of connection points: 6
#     Node 12, Type 0, BuildingBlock: CUKXOW_clean_sbu_0, # of connection points: 6
#     Node 13, Type 0, BuildingBlock: CUKXOW_clean_sbu_0, # of connection points: 6
#     Node 14, Type 0, BuildingBlock: CUKXOW_clean_sbu_0, # of connection points: 6
#     Node 15, Type 0, BuildingBlock: CUKXOW_clean_sbu_0, # of connection points: 6
#     Node 16, Type 0, BuildingBlock: CUKXOW_clean_sbu_0, # of connection points: 6
#     Node 17, Type 0, BuildingBlock: CUKXOW_clean_sbu_0, # of connection points: 6
#     Node 18, Type 0, BuildingBlock: CUKXOW_clean_sbu_0, # of connection points: 6
#     Node 19, Type 0, BuildingBlock: CUKXOW_clean_sbu_0, # of connection points: 6
#     Node 20, Type 0, BuildingBlock: CUKXOW_clean_sbu_0, # of connection points: 6
#     Node 21, Type 0, BuildingBlock: CUKXOW_clean_sbu_0, # of connection points: 6
#     Node 22, Type 0, BuildingBlock: CUKXOW_clean_sbu_0, # of connection points: 6
#     Node 23, Type 0, BuildingBlock: CUKXOW_clean_sbu_0, # of connection points: 6
#     Node 24, Type 0, BuildingBlock: CUKXOW_clean_sbu_0, # of connection points: 6
#     Node 25, Type 0, BuildingBlock: CUKXOW_clean_sbu_0, # of connection points: 6
#     Node 26, Type 0, BuildingBlock: CUKXOW_clean_sbu_0, # of connection points: 6
#     Node 27, Type 0, BuildingBlock: CUKXOW_clean_sbu_0, # of connection points: 6
#     Node 28, Type 0, BuildingBlock: CUKXOW_clean_sbu_0, # of connection points: 6
#     Node 29, Type 0, BuildingBlock: CUKXOW_clean_sbu_0, # of connection points: 6
#     Node 30, Type 0, BuildingBlock: CUKXOW_clean_sbu_0, # of connection points: 6
#     Node 31, Type 0, BuildingBlock: CUKXOW_clean_sbu_0, # of connection points: 6
#     Node 32, Type 0, BuildingBlock: CUKXOW_clean_sbu_0, # of connection points: 6
#     Node 33, Type 0, BuildingBlock: CUKXOW_clean_sbu_0, # of connection points: 6
#     Node 34, Type 0, BuildingBlock: CUKXOW_clean_sbu_0, # of connection points: 6
#     Node 35, Type 0, BuildingBlock: CUKXOW_clean_sbu_0, # of connection points: 6
#     Edge 36, Type (0, 0), BuildingBlock: XIVTED_clean_linker_0, # of connection points: 2
#     Edge 37, Type (0, 0), BuildingBlock: XIVTED_clean_linker_0, # of connection points: 2
#     Edge 38, Type (0, 0), BuildingBlock: XIVTED_clean_linker_0, # of connection points: 2
#     Edge 39, Type (0, 0), BuildingBlock: XIVTED_clean_linker_0, # of connection points: 2
#     Edge 40, Type (0, 0), BuildingBlock: XIVTED_clean_linker_0, # of connection points: 2
#     Edge 41, Type (0, 0), BuildingBlock: XIVTED_clean_linker_0, # of connection points: 2
#     Edge 42, Type (0, 0), BuildingBlock: XIVTED_clean_linker_0, # of connection points: 2
#     Edge 43, Type (0, 0), BuildingBlock: XIVTED_clean_linker_0, # of connection points: 2
#     Edge 44, Type (0, 0), BuildingBlock: XIVTED_clean_linker_0, # of connection points: 2
#     Edge 45, Type (0, 0), BuildingBlock: XIVTED_clean_linker_0, # of connection points: 2
#     Edge 46, Type (0, 0), BuildingBlock: XIVTED_clean_linker_0, # of connection points: 2
#     Edge 47, Type (0, 0), BuildingBlock: XIVTED_clean_linker_0, # of connection points: 2
#     Edge 48, Type (0, 0), BuildingBlock: XIVTED_clean_linker_0, # of connection points: 2
#     Edge 49, Type (0, 0), BuildingBlock: XIVTED_clean_linker_0, # of connection points: 2
#     Edge 50, Type (0, 0), BuildingBlock: XIVTED_clean_linker_0, # of connection points: 2
#     Edge 51, Type (0, 0), BuildingBlock: XIVTED_clean_linker_0, # of connection points: 2
#     Edge 52, Type (0, 0), BuildingBlock: XIVTED_clean_linker_0, # of connection points: 2
#     Edge 53, Type (0, 0), BuildingBlock: XIVTED_clean_linker_0, # of connection points: 2
#     Edge 54, Type (0, 0), BuildingBlock: XIVTED_clean_linker_0, # of connection points: 2
#     Edge 55, Type (0, 0), BuildingBlock: XIVTED_clean_linker_0, # of connection points: 2
#     Edge 56, Type (0, 0), BuildingBlock: XIVTED_clean_linker_0, # of connection points: 2
#     Edge 57, Type (0, 0), BuildingBlock: XIVTED_clean_linker_0, # of connection points: 2
#     Edge 58, Type (0, 0), BuildingBlock: XIVTED_clean_linker_0, # of connection points: 2
#     Edge 59, Type (0, 0), BuildingBlock: XIVTED_clean_linker_0, # of connection points: 2
#     Edge 60, Type (0, 0), BuildingBlock: XIVTED_clean_linker_0, # of connection points: 2
#     Edge 61, Type (0, 0), BuildingBlock: XIVTED_clean_linker_0, # of connection points: 2
#     Edge 62, Type (0, 0), BuildingBlock: XIVTED_clean_linker_0, # of connection points: 2
#     Edge 63, Type (0, 0), BuildingBlock: XIVTED_clean_linker_0, # of connection points: 2
#     Edge 64, Type (0, 0), BuildingBlock: XIVTED_clean_linker_0, # of connection points: 2
#     Edge 65, Type (0, 0), BuildingBlock: XIVTED_clean_linker_0, # of connection points: 2
#     Edge 66, Type (0, 0), BuildingBlock: XIVTED_clean_linker_0, # of connection points: 2
#     Edge 67, Type (0, 0), BuildingBlock: XIVTED_clean_linker_0, # of connection points: 2
#     Edge 68, Type (0, 0), BuildingBlock: XIVTED_clean_linker_0, # of connection points: 2
#     Edge 69, Type (0, 0), BuildingBlock: XIVTED_clean_linker_0, # of connection points: 2
#     Edge 70, Type (0, 0), BuildingBlock: XIVTED_clean_linker_0, # of connection points: 2
#     Edge 71, Type (0, 0), BuildingBlock: XIVTED_clean_linker_0, # of connection points: 2
#     Edge 72, Type (0, 0), BuildingBlock: XIVTED_clean_linker_0, # of connection points: 2
#     Edge 73, Type (0, 0), BuildingBlock: XIVTED_clean_linker_0, # of connection points: 2
#     Edge 74, Type (0, 0), BuildingBlock: XIVTED_clean_linker_0, # of connection points: 2
#     Edge 75, Type (0, 0), BuildingBlock: XIVTED_clean_linker_0, # of connection points: 2
#     Edge 76, Type (0, 0), BuildingBlock: XIVTED_clean_linker_0, # of connection points: 2
#     Edge 77, Type (0, 0), BuildingBlock: XIVTED_clean_linker_0, # of connection points: 2
#     Edge 78, Type (0, 0), BuildingBlock: XIVTED_clean_linker_0, # of connection points: 2
#     Edge 79, Type (0, 0), BuildingBlock: XIVTED_clean_linker_0, # of connection points: 2
#     Edge 80, Type (0, 0), BuildingBlock: XIVTED_clean_linker_0, # of connection points: 2
#     Edge 81, Type (0, 0), BuildingBlock: XIVTED_clean_linker_0, # of connection points: 2
#     Edge 82, Type (0, 0), BuildingBlock: XIVTED_clean_linker_0, # of connection points: 2
#     Edge 83, Type (0, 0), BuildingBlock: XIVTED_clean_linker_0, # of connection points: 2
#     Edge 84, Type (0, 0), BuildingBlock: XIVTED_clean_linker_0, # of connection points: 2
#     Edge 85, Type (0, 0), BuildingBlock: XIVTED_clean_linker_0, # of connection points: 2
#     Edge 86, Type (0, 0), BuildingBlock: XIVTED_clean_linker_0, # of connection points: 2
#     Edge 87, Type (0, 0), BuildingBlock: XIVTED_clean_linker_0, # of connection points: 2
#     Edge 88, Type (0, 0), BuildingBlock: XIVTED_clean_linker_0, # of connection points: 2
#     Edge 89, Type (0, 0), BuildingBlock: XIVTED_clean_linker_0, # of connection points: 2
#     Edge 90, Type (0, 0), BuildingBlock: XIVTED_clean_linker_0, # of connection points: 2
#     Edge 91, Type (0, 0), BuildingBlock: XIVTED_clean_linker_0, # of connection points: 2
#     Edge 92, Type (0, 0), BuildingBlock: XIVTED_clean_linker_0, # of connection points: 2
#     Edge 93, Type (0, 0), BuildingBlock: XIVTED_clean_linker_0, # of connection points: 2
#     Edge 94, Type (0, 0), BuildingBlock: XIVTED_clean_linker_0, # of connection points: 2
#     Edge 95, Type (0, 0), BuildingBlock: XIVTED_clean_linker_0, # of connection points: 2
#     Edge 96, Type (0, 0), BuildingBlock: XIVTED_clean_linker_0, # of connection points: 2
#     Edge 97, Type (0, 0), BuildingBlock: XIVTED_clean_linker_0, # of connection points: 2
#     Edge 98, Type (0, 0), BuildingBlock: XIVTED_clean_linker_0, # of connection points: 2
#     Edge 99, Type (0, 0), BuildingBlock: XIVTED_clean_linker_0, # of connection points: 2
#     Edge 100, Type (0, 0), BuildingBlock: XIVTED_clean_linker_0, # of connection points: 2
#     Edge 101, Type (0, 0), BuildingBlock: XIVTED_clean_linker_0, # of connection points: 2
#     Edge 102, Type (0, 0), BuildingBlock: XIVTED_clean_linker_0, # of connection points: 2
#     Edge 103, Type (0, 0), BuildingBlock: XIVTED_clean_linker_0, # of connection points: 2
#     Edge 104, Type (0, 0), BuildingBlock: XIVTED_clean_linker_0, # of connection points: 2
#     Edge 105, Type (0, 0), BuildingBlock: XIVTED_clean_linker_0, # of connection points: 2
#     Edge 106, Type (0, 0), BuildingBlock: XIVTED_clean_linker_0, # of connection points: 2
#     Edge 107, Type (0, 0), BuildingBlock: XIVTED_clean_linker_0, # of connection points: 2
#     Edge 108, Type (0, 0), BuildingBlock: XIVTED_clean_linker_0, # of connection points: 2
#     Edge 109, Type (0, 0), BuildingBlock: XIVTED_clean_linker_0, # of connection points: 2
#     Edge 110, Type (0, 0), BuildingBlock: XIVTED_clean_linker_0, # of connection points: 2
#     Edge 111, Type (0, 0), BuildingBlock: XIVTED_clean_linker_0, # of connection points: 2
#     Edge 112, Type (0, 0), BuildingBlock: XIVTED_clean_linker_0, # of connection points: 2
#     Edge 113, Type (0, 0), BuildingBlock: XIVTED_clean_linker_0, # of connection points: 2
#     Edge 114, Type (0, 0), BuildingBlock: XIVTED_clean_linker_0, # of connection points: 2
#     Edge 115, Type (0, 0), BuildingBlock: XIVTED_clean_linker_0, # of connection points: 2
#     Edge 116, Type (0, 0), BuildingBlock: XIVTED_clean_linker_0, # of connection points: 2
#     Edge 117, Type (0, 0), BuildingBlock: XIVTED_clean_linker_0, # of connection points: 2
#     Edge 118, Type (0, 0), BuildingBlock: XIVTED_clean_linker_0, # of connection points: 2
#     Edge 119, Type (0, 0), BuildingBlock: XIVTED_clean_linker_0, # of connection points: 2
#     Edge 120, Type (0, 0), BuildingBlock: XIVTED_clean_linker_0, # of connection points: 2
#     Edge 121, Type (0, 0), BuildingBlock: XIVTED_clean_linker_0, # of connection points: 2
#     Edge 122, Type (0, 0), BuildingBlock: XIVTED_clean_linker_0, # of connection points: 2
#     Edge 123, Type (0, 0), BuildingBlock: XIVTED_clean_linker_0, # of connection points: 2
#     Edge 124, Type (0, 0), BuildingBlock: XIVTED_clean_linker_0, # of connection points: 2
#     Edge 125, Type (0, 0), BuildingBlock: XIVTED_clean_linker_0, # of connection points: 2
#     Edge 126, Type (0, 0), BuildingBlock: XIVTED_clean_linker_0, # of connection points: 2
#     Edge 127, Type (0, 0), BuildingBlock: XIVTED_clean_linker_0, # of connection points: 2
#     Edge 128, Type (0, 0), BuildingBlock: XIVTED_clean_linker_0, # of connection points: 2
#     Edge 129, Type (0, 0), BuildingBlock: XIVTED_clean_linker_0, # of connection points: 2
#     Edge 130, Type (0, 0), BuildingBlock: XIVTED_clean_linker_0, # of connection points: 2
#     Edge 131, Type (0, 0), BuildingBlock: XIVTED_clean_linker_0, # of connection points: 2
#     Edge 132, Type (0, 0), BuildingBlock: XIVTED_clean_linker_0, # of connection points: 2
#     Edge 133, Type (0, 0), BuildingBlock: XIVTED_clean_linker_0, # of connection points: 2
#     Edge 134, Type (0, 0), BuildingBlock: XIVTED_clean_linker_0, # of connection points: 2
#     Edge 135, Type (0, 0), BuildingBlock: XIVTED_clean_linker_0, # of connection points: 2
#     Edge 136, Type (0, 0), BuildingBlock: XIVTED_clean_linker_0, # of connection points: 2
#     Edge 137, Type (0, 0), BuildingBlock: XIVTED_clean_linker_0, # of connection points: 2
#     Edge 138, Type (0, 0), BuildingBlock: XIVTED_clean_linker_0, # of connection points: 2
#     Edge 139, Type (0, 0), BuildingBlock: XIVTED_clean_linker_0, # of connection points: 2
#     Edge 140, Type (0, 0), BuildingBlock: XIVTED_clean_linker_0, # of connection points: 2
#     Edge 141, Type (0, 0), BuildingBlock: XIVTED_clean_linker_0, # of connection points: 2
#     Edge 142, Type (0, 0), BuildingBlock: XIVTED_clean_linker_0, # of connection points: 2
#     Edge 143, Type (0, 0), BuildingBlock: XIVTED_clean_linker_0, # of connection points: 2
# Relax obj value: 0.049
# Max RMSD: 0.141
# Mean RMSD: 0.141
data_MOF--net-wnd--node1-CUKXOW_clean_sbu_0--edge1-XIVTED_clean_linker_0
_symmetry_space_group_name_H-M    P1
_symmetry_Int_Tables_number       1
_symmetry_cell_setting            triclinic
loop_
_symmetry_equiv_pos_as_xyz
'x, y, z'
_cell_length_a     32.30885
_cell_length_b     32.289973
_cell_length_c     171.61882
_cell_angle_alpha  89.980919
_cell_angle_beta   90.049463
_cell_angle_gamma 119.99123
loop_
_atom_site_label
_atom_site_type_symbol
_atom_site_fract_x
_atom_site_fract_y
_atom_site_fract_z
_atom_type_partial_charge
Tb0 Tb 0.56695 0.08836 0.04928 0.0
C1 C 0.52892 0.04037 0.033 0.0
Tb2 Tb 0.46477 1.00317 0.0483 0.0
O3 O 0.59589 0.04217 0.04659 0.0
O4 O 0.53135 0.01459 0.05262 0.0
O5 O 0.55937 0.0804 0.03669 0.0
C6 C 0.38778 0.91552 0.04738 0.0
O7 O 0.49302 1.0035 0.03665 0.0
C8 C 0.47207 0.08781 0.04733 0.0
C9 C 0.49605 0.06233 0.06371 0.0
O10 O 0.39382 0.95302 0.04361 0.0
O11 O 0.42526 0.92733 0.05164 0.0
O12 O 0.43412 0.05004 0.04991 0.0
O13 O 0.50087 0.07557 0.0448 0.0
O14 O 0.46725 0.01964 0.06063 0.0
O15 O 0.53474 0.09559 0.06005 0.0
C16 C 0.65089 0.16882 0.05106 0.0
O17 O 0.63608 0.13003 0.05512 0.0
O18 O 0.61792 0.16268 0.0461 0.0
C19 C 0.55985 1.0039 0.04937 0.0
Tb20 Tb 0.9922 0.52821 0.0488 0.0
C21 C 0.04298 0.5365 0.03289 0.0
Tb22 Tb 0.0762 0.50944 0.04856 0.0
O23 O 0.03915 0.6041 0.04652 0.0
O24 O 0.06526 0.56568 0.05244 0.0
O25 O 1.00244 0.52679 0.03635 0.0
C26 C 0.164 0.52151 0.04878 0.0
O27 O 0.07934 0.53795 0.03679 0.0
C28 C 0.99136 0.43282 0.04722 0.0
C29 C 0.01251 0.48154 0.06356 0.0
O30 O 0.13104 0.49565 0.04374 0.0
O31 O 0.14749 0.54036 0.05365 0.0
O32 O 0.02834 0.43161 0.04996 0.0
O33 O 1.0049 0.47416 0.04473 0.0
O34 O 0.05557 0.49433 0.06075 0.0
O35 O 0.98066 0.48781 0.0596 0.0
C36 C 0.91037 0.52915 0.04899 0.0
O37 O 0.94202 0.54525 0.05453 0.0
O38 O 0.92436 0.51176 0.04346 0.0
C39 C 0.07704 0.60526 0.04925 0.0
Tb40 Tb 0.54471 0.51251 0.05028 0.0
C41 C 0.54487 0.55239 0.03311 0.0
Tb42 Tb 0.57453 0.61802 0.04785 0.0
O43 O 0.48038 0.50146 0.0563 0.0
O44 O 0.51014 0.55161 0.04739 0.0
O45 O 0.54529 0.51829 0.03745 0.0
C46 C 0.57103 0.69888 0.04854 0.0
O47 O 0.54863 0.59185 0.03619 0.0
C48 C 0.64126 0.5959 0.04554 0.0
C49 C 0.58913 0.58298 0.06465 0.0
O50 O 0.60453 0.69412 0.0452 0.0
O51 O 0.5397 0.65817 0.05153 0.0
O52 O 0.64192 0.63249 0.04221 0.0
O53 O 0.60808 0.57857 0.05041 0.0
O54 O 0.58538 0.61611 0.06054 0.0
O55 O 0.57917 0.54117 0.06153 0.0
C56 C 0.53415 0.42476 0.05006 0.0
O57 O 0.50381 0.43591 0.05289 0.0
O58 O 0.57075 0.46316 0.04735 0.0
C59 C 0.47818 0.53509 0.05253 0.0
Tb60 Tb 0.08829 0.56553 0.45835 0.0
C61 C 0.04003 0.52722 0.47459 0.0
Tb62 Tb 1.00309 0.46335 0.45924 0.0
O63 O 0.04223 0.59485 0.46092 0.0
O64 O 0.01464 0.53005 0.45495 0.0
O65 O 0.07989 0.55777 0.47091 0.0
C66 C 0.91557 0.38642 0.46017 0.0
O67 O 1.00324 0.49122 0.47094 0.0
C68 C 0.08756 0.47048 0.46025 0.0
C69 C 0.06301 0.49491 0.44388 0.0
O70 O 0.95298 0.39264 0.46399 0.0
O71 O 0.92741 0.42367 0.45585 0.0
O72 O 0.04982 0.43259 0.45765 0.0
O73 O 0.07532 0.4993 0.4628 0.0
O74 O 0.02035 0.46567 0.44693 0.0
O75 O 0.09578 0.53396 0.44754 0.0
C76 C 0.17039 0.64838 0.45718 0.0
O77 O 0.13267 0.63582 0.45293 0.0
O78 O 0.16212 0.61388 0.46194 0.0
C79 C 1.00393 0.55866 0.45817 0.0
Tb80 Tb 0.5115 0.54229 0.45701 0.0
C81 C 0.54995 0.54272 0.47428 0.0
Tb82 Tb 0.61673 0.5711 0.45969 0.0
O83 O 0.4998 0.47705 0.4512 0.0
O84 O 0.54984 0.50733 0.46012 0.0
O85 O 0.51639 0.54344 0.46985 0.0
C86 C 0.69739 0.56705 0.45924 0.0
O87 O 0.58935 0.54576 0.47131 0.0
C88 C 0.59543 0.63858 0.46173 0.0
C89 C 0.58287 0.58506 0.44274 0.0
O90 O 0.6926 0.60078 0.46249 0.0
O91 O 0.65679 0.53571 0.45622 0.0
O92 O 0.63163 0.6391 0.46517 0.0
O93 O 0.57805 0.60511 0.4569 0.0
O94 O 0.61543 0.58098 0.44696 0.0
O95 O 0.54117 0.57605 0.44576 0.0
C96 C 0.42426 0.53287 0.45704 0.0
O97 O 0.43521 0.50249 0.45415 0.0
O98 O 0.46259 0.56892 0.45989 0.0
C99 C 0.53325 0.47497 0.45505 0.0
Tb100 Tb 0.52908 0.99077 0.45955 0.0
C101 C 0.53842 0.0424 0.47547 0.0
Tb102 Tb 0.50949 0.07431 0.45985 0.0
O103 O 0.60508 0.03809 0.46161 0.0
O104 O 0.56566 0.06367 0.45585 0.0
O105 O 0.529 1.00187 0.47201 0.0
C106 C 0.52114 0.16188 0.45951 0.0
O107 O 0.53886 0.07834 0.47159 0.0
C108 C 0.43371 0.98908 0.46138 0.0
C109 C 0.48129 0.01039 0.44486 0.0
O110 O 0.49515 0.12904 0.46456 0.0
O111 O 0.54033 0.14539 0.45472 0.0
O112 O 0.43156 0.02552 0.45862 0.0
O113 O 0.47537 1.00336 0.46377 0.0
O114 O 0.49389 0.05339 0.44768 0.0
O115 O 0.48784 0.97863 0.44879 0.0
C116 C 0.53035 0.90908 0.45945 0.0
O117 O 0.54534 0.94 0.4538 0.0
O118 O 0.51395 0.92373 0.46503 0.0
C119 C 0.6056 0.07578 0.45893 0.0
Tb120 Tb 0.61214 0.0728 0.95917 0.0
C121 C 0.57941 0.01276 0.94384 0.0
Tb122 Tb 0.50989 0.98808 0.95842 0.0
O123 O 0.6425 0.02574 0.95756 0.0
O124 O 0.57608 1.00067 0.96282 0.0
O125 O 0.60907 0.0554 0.94686 0.0
C126 C 0.42605 0.90771 0.95669 0.0
O127 O 0.54085 0.98007 0.94759 0.0
C128 C 0.51751 0.07272 0.95828 0.0
C129 C 0.54897 0.03658 0.97461 0.0
O130 O 0.44062 0.94651 0.95265 0.0
O131 O 0.45911 0.91382 0.96163 0.0
O132 O 0.48154 0.03474 0.96115 0.0
O133 O 0.54545 0.0615 0.95497 0.0
O134 O 0.51812 0.99648 0.97098 0.0
O135 O 0.58478 0.07315 0.97089 0.0
C136 C 0.6891 0.16031 0.96 0.0
O137 O 0.68299 0.12305 0.96386 0.0
O138 O 0.65175 0.14834 0.9557 0.0
C139 C 0.60467 0.98827 0.96024 0.0
Tb140 Tb 1.00179 0.5655 0.95877 0.0
C141 C 0.06142 0.58859 0.94333 0.0
Tb142 Tb 0.08503 0.54592 0.95833 0.0
O143 O 0.04977 0.6427 0.95701 0.0
O144 O 0.07344 0.6006 0.96246 0.0
O145 O 0.0203 0.57954 0.94651 0.0
C146 C 0.16456 0.54068 0.95765 0.0
O147 O 0.09261 0.57987 0.94697 0.0
C148 C 0.9994 0.4702 0.95839 0.0
C149 C 0.03781 0.54085 0.97444 0.0
O150 O 0.16209 0.57725 0.96018 0.0
O151 O 0.12269 0.5078 0.95535 0.0
O152 O 0.03661 0.47182 0.96152 0.0
O153 O 0.01178 0.50897 0.95485 0.0
O154 O 0.07777 0.54979 0.97083 0.0
O155 O 1.0009 0.53902 0.97065 0.0
C156 C 0.91377 0.55279 0.9587 0.0
O157 O 0.94757 0.5807 0.96347 0.0
O158 O 0.92953 0.53223 0.95405 0.0
C159 C 0.08672 0.64145 0.95974 0.0
Tb160 Tb 0.50366 0.45871 0.95976 0.0
C161 C 0.48749 0.49418 0.94319 0.0
Tb162 Tb 0.53396 0.5644 0.95756 0.0
O163 O 0.43585 0.44254 0.96532 0.0
O164 O 0.46997 0.49872 0.95747 0.0
O165 O 0.49306 0.46154 0.94709 0.0
C166 C 0.54656 0.65292 0.95781 0.0
O167 O 0.49604 0.53503 0.94653 0.0
C168 C 0.60067 0.54161 0.95539 0.0
C169 C 0.53355 0.52362 0.97464 0.0
O170 O 0.56997 0.63867 0.9535 0.0
O171 O 0.51586 0.61728 0.962 0.0
O172 O 0.59943 0.57615 0.95177 0.0
O173 O 0.56805 0.52488 0.96039 0.0
O174 O 0.53369 0.55823 0.97037 0.0
O175 O 0.52928 0.48409 0.97148 0.0
C176 C 0.50728 0.37799 0.95896 0.0
O177 O 0.47403 0.38273 0.96239 0.0
O178 O 0.53835 0.41866 0.95593 0.0
C179 C 0.43677 0.48012 0.96235 0.0
Tb180 Tb 0.07868 0.60906 0.54846 0.0
C181 C 0.01751 0.57591 0.56368 0.0
Tb182 Tb 0.99424 0.50611 0.54919 0.0
O183 O 0.03091 0.63886 0.54999 0.0
O184 O 1.00657 0.57229 0.54485 0.0
O185 O 0.0606 0.605 0.56075 0.0
C186 C 0.91266 0.42273 0.54999 0.0
O187 O 0.98458 0.53773 0.55985 0.0
C188 C 0.07906 0.51403 0.54962 0.0
C189 C 0.04275 0.54686 0.53301 0.0
O190 O 0.94246 0.44267 0.55571 0.0
O191 O 0.92832 0.45012 0.54392 0.0
O192 O 0.04093 0.47662 0.54714 0.0
O193 O 0.06747 0.54234 0.55264 0.0
O194 O 1.00254 0.51671 0.53666 0.0
O195 O 0.0797 0.58216 0.53674 0.0
C196 C 0.16617 0.68583 0.54784 0.0
O197 O 0.12919 0.6804 0.54398 0.0
O198 O 0.15388 0.64802 0.55204 0.0
C199 C 0.99362 0.60059 0.54735 0.0
Tb200 Tb 0.46849 0.50936 0.54837 0.0
C201 C 0.50222 0.48426 0.56387 0.0
Tb202 Tb 0.57149 0.52802 0.54919 0.0
O203 O 0.43874 0.4324 0.55035 0.0
O204 O 0.50508 0.47345 0.54502 0.0
O205 O 0.47214 0.4964 0.56074 0.0
C206 C 0.6557 0.5321 0.5509 0.0
O207 O 0.54116 0.49054 0.56019 0.0
C208 C 0.56241 0.60424 0.54897 0.0
C209 C 0.53084 0.53345 0.53283 0.0
O210 O 0.64174 0.55758 0.55472 0.0
O211 O 0.62187 0.50365 0.54619 0.0
O212 O 0.59869 0.60263 0.54614 0.0
O213 O 0.53516 0.56537 0.5524 0.0
O214 O 0.56251 0.52602 0.53661 0.0
O215 O 0.49454 0.53392 0.53644 0.0
C216 C 0.39185 0.5203 0.54759 0.0
O217 O 0.39669 0.48754 0.54401 0.0
O218 O 0.43028 0.54705 0.55157 0.0
C219 C 0.47678 0.4328 0.54777 0.0
Tb220 Tb 0.56898 0.99972 0.54918 0.0
C221 C 0.59226 0.05579 0.56496 0.0
Tb222 Tb 0.54815 0.08333 0.55049 0.0
O223 O 0.64663 0.0473 0.55065 0.0
O224 O 0.60332 0.07287 0.54636 0.0
O225 O 0.58266 0.01498 0.56156 0.0
C226 C 0.54588 0.16442 0.55201 0.0
O227 O 0.58367 0.08784 0.56159 0.0
C228 C 0.47312 0.99757 0.54991 0.0
C229 C 0.54398 0.03945 0.53396 0.0
O230 O 0.52079 0.12584 0.55607 0.0
O231 O 0.57267 0.1575 0.54717 0.0
O232 O 0.47365 0.03575 0.54745 0.0
O233 O 0.51219 0.00909 0.55327 0.0
O234 O 0.55083 0.07788 0.53788 0.0
O235 O 0.5436 1.00228 0.53741 0.0
C236 C 0.55813 0.91221 0.54813 0.0
O237 O 0.58953 0.94972 0.54435 0.0
O238 O 0.53274 0.92398 0.55246 0.0
C239 C 0.64455 0.08534 0.54882 0.0
Tb240 Tb 0.24346 0.40451 0.38441 0.0
C241 C 0.20526 0.36724 0.36712 0.0
Tb242 Tb 0.13813 0.32877 0.38167 0.0
O243 O 0.25463 0.35028 0.39013 0.0
O244 O 0.2047 0.33136 0.38124 0.0
O245 O 0.23892 0.40126 0.37157 0.0
C246 C 0.05754 0.24408 0.38206 0.0
O247 O 0.16572 0.33093 0.37007 0.0
C248 C 0.1601 0.41762 0.37954 0.0
C249 C 0.17168 0.37685 0.3986 0.0
O250 O 0.06236 0.28268 0.37882 0.0
O251 O 0.09806 0.25327 0.3851 0.0
O252 O 0.1238 0.38196 0.37611 0.0
O253 O 0.1772 0.40152 0.38443 0.0
O254 O 0.13906 0.34022 0.3944 0.0
O255 O 0.21359 0.40919 0.39559 0.0
C256 C 0.33107 0.48172 0.38443 0.0
O257 O 0.31931 0.44071 0.38754 0.0
O258 O 0.29334 0.47947 0.38132 0.0
C259 C 0.221 0.31504 0.38626 0.0
Tb260 Tb 0.66741 0.85147 0.38213 0.0
C261 C 0.71526 0.86044 0.36585 0.0
Tb262 Tb 0.7519 0.83318 0.38123 0.0
O263 O 0.71422 0.92649 0.37945 0.0
O264 O 0.74112 0.88888 0.3855 0.0
O265 O 0.67564 0.85187 0.36956 0.0
C266 C 0.83929 0.84312 0.38046 0.0
O267 O 0.75176 0.86043 0.36947 0.0
C268 C 0.66688 0.75653 0.38025 0.0
C269 C 0.69218 0.80579 0.39662 0.0
O270 O 0.80178 0.81157 0.3767 0.0
O271 O 0.82763 0.8693 0.38461 0.0
O272 O 0.70435 0.75578 0.38285 0.0
O273 O 0.67962 0.7977 0.37771 0.0
O274 O 0.73464 0.81852 0.39355 0.0
O275 O 0.65967 0.8124 0.39295 0.0
C276 C 0.58685 0.85498 0.38374 0.0
O277 O 0.62573 0.87971 0.38774 0.0
O278 O 0.59302 0.82753 0.37892 0.0
C279 C 0.75225 0.9282 0.38224 0.0
Tb280 Tb 0.22727 0.83586 0.38223 0.0
C281 C 0.21751 0.87739 0.3663 0.0
Tb282 Tb 0.24484 0.93806 0.38194 0.0
O283 O 0.15124 0.80615 0.37997 0.0
O284 O 0.1892 0.8708 0.38587 0.0
O285 O 0.22763 0.84683 0.36977 0.0
C286 C 0.23157 0.01302 0.38235 0.0
O287 O 0.21625 0.9125 0.37017 0.0
C288 C 0.32207 0.93097 0.38063 0.0
C289 C 0.27339 0.90291 0.39698 0.0
O290 O 0.25758 1.00668 0.37724 0.0
O291 O 0.21321 0.97734 0.38715 0.0
O292 O 0.3227 0.96894 0.38333 0.0
O293 O 0.28088 0.90271 0.37812 0.0
O294 O 0.26034 0.93293 0.39414 0.0
O295 O 0.26754 0.86491 0.39304 0.0
C296 C 0.22738 0.75363 0.38254 0.0
O297 O 0.2107 0.76893 0.38802 0.0
O298 O 0.24471 0.78493 0.37699 0.0
C299 C 0.14965 0.84266 0.3827 0.0
Tb300 Tb 0.75547 0.90277 0.79278 0.0
C301 C 0.70832 0.85724 0.80896 0.0
Tb302 Tb 0.67319 0.79979 0.79294 0.0
O303 O 0.70738 0.92979 0.79521 0.0
O304 O 0.68265 0.86627 0.78896 0.0
O305 O 0.74579 0.89191 0.80528 0.0
C306 C 0.5868 0.7217 0.79316 0.0
O307 O 0.67414 0.8192 0.80526 0.0
C308 C 0.75875 0.80982 0.79401 0.0
C309 C 0.73236 0.83831 0.77773 0.0
O310 O 0.62706 0.72219 0.79267 0.0
O311 O 0.59506 0.76527 0.79363 0.0
O312 O 0.72233 0.77201 0.79111 0.0
O313 O 0.74465 0.8366 0.79677 0.0
O314 O 0.68867 0.81019 0.78052 0.0
O315 O 0.76594 0.87414 0.78188 0.0
C316 C 0.8368 0.98611 0.79229 0.0
O317 O 0.80388 0.97039 0.78696 0.0
O318 O 0.82434 0.95462 0.79779 0.0
C319 C 0.67016 0.89325 0.79227 0.0
Tb320 Tb 0.1815 0.888 0.79137 0.0
C321 C 0.22075 0.87901 0.80758 0.0
Tb322 Tb 0.2838 0.90567 0.79211 0.0
O323 O 0.15296 0.813 0.7941 0.0
O324 O 0.21706 0.85001 0.78794 0.0
O325 O 0.18973 0.88793 0.80393 0.0
C326 C 0.36078 0.89515 0.79298 0.0
O327 O 0.25667 0.8784 0.80387 0.0
C328 C 0.27596 0.98259 0.79316 0.0
C329 C 0.2509 0.93277 0.77675 0.0
O330 O 0.32321 0.86932 0.78875 0.0
O331 O 0.3549 0.92675 0.79673 0.0
O332 O 0.31384 0.98313 0.79045 0.0
O333 O 0.24768 0.94153 0.79574 0.0
O334 O 0.28068 0.91996 0.77979 0.0
O335 O 0.21229 0.92678 0.7805 0.0
C336 C 0.098 0.88527 0.78971 0.0
O337 O 0.11209 0.86071 0.78566 0.0
O338 O 0.1313 0.91205 0.79463 0.0
C339 C 0.18893 0.81089 0.79126 0.0
Tb340 Tb 0.20335 0.33422 0.79006 0.0
C341 C 0.20421 0.37311 0.80725 0.0
Tb342 Tb 0.17471 0.41047 0.79263 0.0
O343 O 0.26844 0.38678 0.7842 0.0
O344 O 0.23894 0.40812 0.79298 0.0
O345 O 0.20302 0.33848 0.80287 0.0
C346 C 0.17834 0.49497 0.79205 0.0
O347 O 0.20121 0.40942 0.80423 0.0
C348 C 0.10726 0.32186 0.79492 0.0
C349 C 0.15899 0.36112 0.7758 0.0
O350 O 0.14605 0.45721 0.79567 0.0
O351 O 0.20834 0.48501 0.78871 0.0
O352 O 0.10724 0.35799 0.79829 0.0
O353 O 0.1402 0.33741 0.79001 0.0
O354 O 0.16331 0.3981 0.77994 0.0
O355 O 0.16834 0.32879 0.77889 0.0
C356 C 0.21405 0.25719 0.79003 0.0
O357 O 0.17891 0.25948 0.79326 0.0
O358 O 0.24272 0.298 0.78682 0.0
C359 C 0.27111 0.42309 0.78787 0.0
Tb360 Tb 0.29019 0.41751 0.29323 0.0
C361 C 0.25081 0.35459 0.27795 0.0
Tb362 Tb 0.18311 0.33207 0.29263 0.0
O363 O 0.31825 0.36815 0.29214 0.0
O364 O 0.25047 0.34523 0.29667 0.0
O365 O 0.28149 0.39714 0.28095 0.0
C366 C 0.10142 0.25051 0.29457 0.0
O367 O 0.2117 0.32232 0.28167 0.0
C368 C 0.19023 0.41598 0.28923 0.0
C369 C 0.22906 0.38463 0.30868 0.0
O370 O 0.13382 0.25737 0.28942 0.0
O371 O 0.11521 0.28929 0.29855 0.0
O372 O 0.15043 0.37553 0.28911 0.0
O373 O 0.22193 0.40578 0.29077 0.0
O374 O 0.19753 0.34451 0.3051 0.0
O375 O 0.26519 0.42082 0.30496 0.0
C376 C 0.36557 0.50481 0.29259 0.0
O377 O 0.35788 0.47375 0.29804 0.0
O378 O 0.33102 0.48667 0.28755 0.0
C379 C 0.27829 0.33114 0.29437 0.0
Tb380 Tb 0.67686 0.91458 0.29288 0.0
C381 C 0.72784 0.93197 0.2762 0.0
Tb382 Tb 0.75342 0.88566 0.29032 0.0
O383 O 0.72859 0.98159 0.29872 0.0
O384 O 0.7503 0.9489 0.29051 0.0
O385 O 0.69029 0.92691 0.28024 0.0
C386 C 0.83047 0.87512 0.29042 0.0
O387 O 0.76018 0.92281 0.27933 0.0
C388 C 0.66435 0.81897 0.28798 0.0
C389 C 0.71292 0.88312 0.30746 0.0
O390 O 0.79103 0.84822 0.2867 0.0
O391 O 0.8267 0.90822 0.2941 0.0
O392 O 0.70026 0.82097 0.28429 0.0
O393 O 0.67991 0.8508 0.29312 0.0
O394 O 0.74757 0.88406 0.30311 0.0
O395 O 0.67731 0.88731 0.30443 0.0
C396 C 0.59151 0.90901 0.29215 0.0
O397 O 0.62913 0.94254 0.29565 0.0
O398 O 0.6021 0.87885 0.28904 0.0
C399 C 0.76507 0.98137 0.29553 0.0
Tb400 Tb 0.18139 0.80456 0.29211 0.0
C401 C 0.15872 0.83971 0.27659 0.0
Tb402 Tb 0.19911 0.90713 0.29148 0.0
O403 O 0.10466 0.77503 0.28993 0.0
O404 O 0.1448 0.84045 0.29557 0.0
O405 O 0.17224 0.81053 0.27966 0.0
C406 C 0.20176 0.99088 0.28995 0.0
O407 O 0.16281 0.87738 0.28041 0.0
C408 C 0.27595 0.89921 0.2917 0.0
C409 C 0.20302 0.86545 0.30782 0.0
O410 O 0.22855 0.97814 0.28622 0.0
O411 O 0.17282 0.95607 0.29445 0.0
O412 O 0.27337 0.93477 0.29463 0.0
O413 O 0.23744 0.87173 0.28815 0.0
O414 O 0.19694 0.89796 0.30404 0.0
O415 O 0.20256 0.82859 0.30422 0.0
C416 C 0.19096 0.72669 0.29279 0.0
O417 O 0.22412 0.76913 0.29072 0.0
O418 O 0.15281 0.72838 0.29458 0.0
C419 C 0.10446 0.81238 0.29271 0.0
Tb420 Tb 0.75078 0.93365 0.88262 0.0
C421 C 0.69284 0.90184 0.89818 0.0
Tb422 Tb 0.66687 0.83031 0.8838 0.0
O423 O 0.70255 0.96266 0.88426 0.0
O424 O 0.67846 0.89574 0.87922 0.0
O425 O 0.73479 0.93175 0.89497 0.0
C426 C 0.58598 0.74692 0.8855 0.0
O427 O 0.66016 0.86224 0.89463 0.0
C428 C 0.75225 0.83984 0.88376 0.0
C429 C 0.71296 0.86798 0.86741 0.0
O430 O 0.62517 0.76029 0.88937 0.0
O431 O 0.59212 0.78087 0.88076 0.0
O432 O 0.7143 0.80266 0.88113 0.0
O433 O 0.74062 0.86773 0.88697 0.0
O434 O 0.67387 0.83687 0.87122 0.0
O435 O 0.74957 0.90503 0.87092 0.0
C436 C 0.83764 0.01116 0.88144 0.0
O437 O 0.79952 1.00467 0.87782 0.0
O438 O 0.82687 0.9739 0.8857 0.0
C439 C 0.6654 0.92394 0.88173 0.0
Tb440 Tb 0.14039 0.8327 0.88154 0.0
C441 C 0.17463 0.80745 0.89694 0.0
Tb442 Tb 0.24372 0.85235 0.88228 0.0
O443 O 0.11158 0.75558 0.88332 0.0
O444 O 0.17767 0.79785 0.87801 0.0
O445 O 0.14433 0.81948 0.89388 0.0
C446 C 0.32786 0.85662 0.88404 0.0
O447 O 0.21348 0.81395 0.8932 0.0
C448 C 0.23399 0.9281 0.88227 0.0
C449 C 0.20332 0.85939 0.86604 0.0
O450 O 0.31343 0.88142 0.88795 0.0
O451 O 0.29461 0.82884 0.8792 0.0
O452 O 0.27058 0.9271 0.87943 0.0
O453 O 0.20683 0.88888 0.88562 0.0
O454 O 0.23504 0.85155 0.86971 0.0
O455 O 0.167 0.85935 0.86974 0.0
C456 C 0.06307 0.84254 0.8808 0.0
O457 O 0.10101 0.86891 0.88492 0.0
O458 O 0.06874 0.81072 0.87707 0.0
C459 C 0.14986 0.75682 0.88065 0.0
Tb460 Tb 0.24263 0.32425 0.8811 0.0
C461 C 0.26908 0.38279 0.89662 0.0
Tb462 Tb 0.22287 0.40773 0.88219 0.0
O463 O 0.31972 0.3723 0.88284 0.0
O464 O 0.27726 0.39668 0.87773 0.0
O465 O 0.25704 0.34072 0.89345 0.0
C466 C 0.21905 0.4879 0.88401 0.0
O467 O 0.26192 0.41522 0.89304 0.0
C468 C 0.14721 0.32207 0.88217 0.0
C469 C 0.21563 0.36187 0.86576 0.0
O470 O 0.19419 0.44865 0.88792 0.0
O471 O 0.24663 0.48225 0.87916 0.0
O472 O 0.14794 0.35978 0.87943 0.0
O473 O 0.18667 0.33407 0.88542 0.0
O474 O 0.223 0.40076 0.8696 0.0
O475 O 0.21623 0.32536 0.86929 0.0
C476 C 0.23242 0.23702 0.88014 0.0
O477 O 0.26445 0.27477 0.87649 0.0
O478 O 0.20606 0.24838 0.88429 0.0
C479 C 0.31839 0.40962 0.88031 0.0
Tb480 Tb 0.90578 0.75323 0.71617 0.0
C481 C 0.86649 0.70725 0.6998 0.0
Tb482 Tb 0.80258 0.66926 0.71519 0.0
O483 O 0.93342 0.70621 0.71324 0.0
O484 O 0.86895 0.67927 0.71931 0.0
O485 O 0.89792 0.74639 0.70359 0.0
C486 C 0.72518 0.58226 0.71415 0.0
O487 O 0.82985 0.67059 0.70338 0.0
C488 C 0.81217 0.75476 0.71448 0.0
C489 C 0.83589 0.72702 0.73078 0.0
O490 O 0.73116 0.62031 0.71057 0.0
O491 O 0.7629 0.59317 0.71829 0.0
O492 O 0.77378 0.71757 0.7171 0.0
O493 O 0.83991 0.74155 0.71183 0.0
O494 O 0.80559 0.68515 0.72757 0.0
O495 O 0.8751 0.75973 0.72717 0.0
C496 C 0.98918 0.83412 0.71786 0.0
O497 O 0.97612 0.79467 0.72164 0.0
O498 O 0.95496 0.82824 0.71321 0.0
C499 C 0.89674 0.66807 0.71594 0.0
Tb500 Tb 0.32943 0.19651 0.71576 0.0
C501 C 0.37472 0.20177 0.69938 0.0
Tb502 Tb 0.41311 0.17683 0.71483 0.0
O503 O 0.37703 0.27113 0.71278 0.0
O504 O 0.40328 0.2333 0.71893 0.0
O505 O 0.33581 0.19459 0.70318 0.0
C506 C 0.50021 0.18663 0.71392 0.0
O507 O 0.41147 0.20202 0.70297 0.0
C508 C 0.32773 0.10088 0.71426 0.0
C509 C 0.35532 0.15255 0.7304 0.0
O510 O 0.46229 0.15429 0.71034 0.0
O511 O 0.4891 0.21356 0.71797 0.0
O512 O 0.36515 0.09988 0.71681 0.0
O513 O 0.34064 0.1417 0.71154 0.0
O514 O 0.39726 0.16431 0.72722 0.0
O515 O 0.3226 0.15899 0.72675 0.0
C516 C 0.2494 0.20065 0.71754 0.0
O517 O 0.28883 0.22586 0.72139 0.0
O518 O 0.25478 0.17249 0.71277 0.0
C519 C 0.4149 0.27234 0.71555 0.0
Tb520 Tb 0.88586 0.17687 0.71612 0.0
C521 C 0.87792 0.21547 0.69975 0.0
Tb522 Tb 0.90496 0.28006 0.71507 0.0
O523 O 0.81086 0.14917 0.71341 0.0
O524 O 0.84922 0.21394 0.71937 0.0
O525 O 0.88589 0.18418 0.70353 0.0
C526 C 0.894 0.35672 0.7142 0.0
O527 O 0.87805 0.25222 0.70332 0.0
C528 C 0.9809 0.27059 0.71414 0.0
C529 C 0.93214 0.24824 0.73051 0.0
O530 O 0.92636 0.35156 0.71056 0.0
O531 O 0.86776 0.31866 0.7183 0.0
O532 O 0.98234 0.30923 0.7167 0.0
O533 O 0.93961 0.24252 0.71164 0.0
O534 O 0.91934 0.27782 0.72739 0.0
O535 O 0.92539 0.20887 0.7269 0.0
C536 C 0.88253 0.09314 0.71795 0.0
O537 O 0.85793 0.10757 0.72192 0.0
O538 O 0.90962 0.12621 0.71303 0.0
C539 C 0.80979 0.18601 0.71613 0.0
Tb540 Tb 0.40861 0.24049 0.12398 0.0
C541 C 0.37075 0.20141 0.14122 0.0
Tb542 Tb 0.33307 0.13495 0.12655 0.0
O543 O 0.35476 0.25125 0.11807 0.0
O544 O 0.33527 0.20139 0.12701 0.0
O545 O 0.40482 0.23535 0.13681 0.0
C546 C 0.24814 0.05468 0.12587 0.0
O547 O 0.33474 0.16182 0.13821 0.0
C548 C 0.42191 0.15693 0.12871 0.0
C549 C 0.38177 0.16972 0.10967 0.0
O550 O 0.28614 0.059 0.12925 0.0
O551 O 0.2581 0.09548 0.12284 0.0
O552 O 0.38618 0.12031 0.13207 0.0
O553 O 0.40584 0.17431 0.12387 0.0
O554 O 0.34541 0.13648 0.11384 0.0
O555 O 0.41364 0.21169 0.11273 0.0
C556 C 0.48534 0.32839 0.12401 0.0
O557 O 0.44353 0.31687 0.12128 0.0
O558 O 0.48415 0.29028 0.12673 0.0
C559 C 0.31935 0.21764 0.1219 0.0
Tb560 Tb 0.8391 0.22172 0.12531 0.0
C561 C 0.88063 0.21264 0.14129 0.0
Tb562 Tb 0.9412 0.23889 0.12568 0.0
O563 O 0.80918 0.14572 0.12765 0.0
O564 O 0.87386 0.18328 0.12177 0.0
O565 O 0.85025 0.22283 0.13777 0.0
C566 C 0.01631 0.22588 0.1256 0.0
O567 O 0.91545 0.21075 0.13745 0.0
C568 C 0.93441 0.31637 0.12688 0.0
C569 C 0.90646 0.26714 0.11058 0.0
O570 O 1.00948 0.25218 0.13058 0.0
O571 O 0.98102 0.20709 0.12072 0.0
O572 O 0.97227 0.31675 0.1242 0.0
O573 O 0.90604 0.27527 0.12941 0.0
O574 O 0.93614 0.25374 0.11345 0.0
O575 O 0.86853 0.26166 0.11449 0.0
C576 C 0.75704 0.22216 0.12504 0.0
O577 O 0.772 0.2051 0.11957 0.0
O578 O 0.78862 0.23974 0.13054 0.0
C579 C 0.84562 0.14389 0.12497 0.0
Tb580 Tb 0.85685 0.66273 0.12511 0.0
C581 C 0.86594 0.71061 0.14139 0.0
Tb582 Tb 0.83989 0.74805 0.12597 0.0
O583 O 0.93183 0.70872 0.12788 0.0
O584 O 0.89522 0.73654 0.12177 0.0
O585 O 0.8568 0.67073 0.13769 0.0
C586 C 0.85091 0.8359 0.12675 0.0
O587 O 0.86688 0.74749 0.13773 0.0
C588 C 0.76266 0.66348 0.12698 0.0
C589 C 0.81172 0.68814 0.1106 0.0
O590 O 0.81908 0.79856 0.1305 0.0
O591 O 0.87677 0.82382 0.1226 0.0
O592 O 0.76236 0.70113 0.12436 0.0
O593 O 0.80372 0.67585 0.12952 0.0
O594 O 0.82517 0.73082 0.11366 0.0
O595 O 0.81776 0.65528 0.11428 0.0
C596 C 0.85951 0.58173 0.12348 0.0
O597 O 0.88441 0.62055 0.11947 0.0
O598 O 0.83235 0.58821 0.12831 0.0
C599 C 0.93426 0.74709 0.12509 0.0
Tb600 Tb 0.94428 0.74442 0.62582 0.0
C601 C 0.91009 0.68601 0.61029 0.0
Tb602 Tb 0.84103 0.66047 0.62498 0.0
O603 O 0.97324 0.69636 0.6239 0.0
O604 O 0.90712 0.67212 0.62923 0.0
O605 O 0.94072 0.72794 0.61345 0.0
C606 C 0.75752 0.57977 0.62329 0.0
O607 O 0.87106 0.65353 0.61396 0.0
C608 C 0.85036 0.74576 0.62519 0.0
C609 C 0.88105 0.70671 0.64129 0.0
O610 O 0.77065 0.61926 0.61953 0.0
O611 O 0.79169 0.5855 0.62795 0.0
O612 O 0.81378 0.70782 0.62795 0.0
O613 O 0.87774 0.73419 0.62178 0.0
O614 O 0.84943 0.66751 0.63755 0.0
O615 O 0.91754 0.74331 0.63768 0.0
C616 C 0.02169 0.83151 0.62672 0.0
O617 O 0.01581 0.7937 0.63037 0.0
O618 O 0.98386 0.82032 0.62259 0.0
C619 C 0.93498 0.65914 0.62654 0.0
Tb620 Tb 0.33448 0.23524 0.62535 0.0
C621 C 0.3935 0.26131 0.60988 0.0
Tb622 Tb 0.41845 0.21603 0.62445 0.0
O623 O 0.38209 0.31236 0.62357 0.0
O624 O 0.40681 0.2704 0.62877 0.0
O625 O 0.35136 0.24936 0.61301 0.0
C626 C 0.4987 0.21228 0.62276 0.0
O627 O 0.42588 0.25437 0.61353 0.0
C628 C 0.33302 0.14006 0.62453 0.0
C629 C 0.37243 0.20964 0.6408 0.0
O630 O 0.45949 0.18707 0.61886 0.0
O631 O 0.49299 0.24021 0.62753 0.0
O632 O 0.37079 0.1412 0.62732 0.0
O633 O 0.34484 0.17928 0.62119 0.0
O634 O 0.41151 0.21716 0.63703 0.0
O635 O 0.33577 0.20952 0.6372 0.0
C636 C 0.24703 0.22452 0.62624 0.0
O637 O 0.28464 0.25678 0.62989 0.0
O638 O 0.25865 0.19822 0.62212 0.0
C639 C 0.41949 0.31138 0.62614 0.0
Tb640 Tb 0.84395 0.13454 0.62586 0.0
C641 C 0.81865 0.16763 0.61037 0.0
Tb642 Tb 0.86318 0.2377 0.62494 0.0
O643 O 0.76685 0.10533 0.624 0.0
O644 O 0.80878 0.17174 0.62925 0.0
O645 O 0.83093 0.1377 0.6135 0.0
C646 C 0.86673 0.32151 0.62314 0.0
O647 O 0.82502 0.2067 0.61403 0.0
C648 C 0.93912 0.22833 0.62513 0.0
C649 C 0.86934 0.19795 0.6413 0.0
O650 O 0.83899 0.2881 0.62796 0.0
O651 O 0.89191 0.30741 0.61927 0.0
O652 O 0.93783 0.26494 0.6279 0.0
O653 O 0.90008 0.20091 0.62175 0.0
O654 O 0.86175 0.2295 0.63752 0.0
O655 O 0.8696 0.16148 0.6377 0.0
C656 C 0.85468 0.05777 0.62674 0.0
O657 O 0.88132 0.09598 0.6227 0.0
O658 O 0.82207 0.06285 0.63032 0.0
C659 C 0.76785 0.14368 0.62659 0.0
Tb660 Tb 0.41766 0.2826 0.21538 0.0
C661 C 0.35854 0.24782 0.23085 0.0
Tb662 Tb 0.33417 0.17919 0.2161 0.0
O663 O 0.36978 0.31159 0.21733 0.0
O664 O 0.34532 0.24541 0.21197 0.0
O665 O 0.40055 0.27865 0.22774 0.0
C666 C 0.25432 0.09476 0.21773 0.0
O667 O 0.32638 0.20875 0.22713 0.0
C668 C 0.41977 0.18914 0.21592 0.0
C669 C 0.38022 0.22042 0.19978 0.0
O670 O 0.2936 0.10888 0.22161 0.0
O671 O 0.25974 0.12851 0.21299 0.0
O672 O 0.38209 0.15262 0.21307 0.0
O673 O 0.40776 0.21608 0.21936 0.0
O674 O 0.34128 0.1883 0.20353 0.0
O675 O 0.41662 0.257 0.20343 0.0
C676 C 0.50513 0.35948 0.21466 0.0
O677 O 0.46759 0.35453 0.21104 0.0
O678 O 0.49341 0.3211 0.21867 0.0
C679 C 0.33246 0.27331 0.21471 0.0
Tb680 Tb 0.80785 0.18119 0.21501 0.0
C681 C 0.83996 0.15576 0.23058 0.0
Tb682 Tb 0.91094 0.20002 0.21613 0.0
O683 O 0.77853 0.10396 0.21684 0.0
O684 O 0.84516 0.14603 0.2117 0.0
O685 O 0.81035 0.16822 0.22738 0.0
C686 C 0.99408 0.20217 0.21794 0.0
O687 O 0.87919 0.16199 0.22701 0.0
C688 C 0.9019 0.27618 0.21592 0.0
C689 C 0.87245 0.20702 0.19972 0.0
O690 O 0.98086 0.22838 0.22173 0.0
O691 O 0.96018 0.17423 0.21321 0.0
O692 O 0.93871 0.2749 0.21325 0.0
O693 O 0.8741 0.23701 0.21924 0.0
O694 O 0.90361 0.19911 0.20355 0.0
O695 O 0.83587 0.2074 0.20325 0.0
C696 C 0.73075 0.19129 0.21394 0.0
O697 O 0.73658 0.15918 0.21035 0.0
O698 O 0.76847 0.21789 0.21809 0.0
C699 C 0.81697 0.10502 0.21429 0.0
Tb700 Tb 0.90874 0.67168 0.21531 0.0
C701 C 0.93518 0.73096 0.23073 0.0
Tb702 Tb 0.8898 0.75584 0.21617 0.0
O703 O 0.98599 0.7196 0.21702 0.0
O704 O 0.94379 0.74387 0.21181 0.0
O705 O 0.92283 0.68863 0.22763 0.0
C706 C 0.88612 0.83612 0.21789 0.0
O707 O 0.92849 0.76344 0.22706 0.0
C708 C 0.8137 0.67062 0.2161 0.0
C709 C 0.88234 0.7088 0.19987 0.0
O710 O 0.86118 0.79697 0.22182 0.0
O711 O 0.91377 0.83034 0.21307 0.0
O712 O 0.81502 0.7085 0.21332 0.0
O713 O 0.85286 0.68223 0.21945 0.0
O714 O 0.8904 0.74829 0.20358 0.0
O715 O 0.8822 0.67226 0.20351 0.0
C716 C 0.89796 0.58414 0.21447 0.0
O717 O 0.93016 0.62166 0.2108 0.0
O718 O 0.87175 0.5959 0.21859 0.0
C719 C 0.98487 0.75683 0.21439 0.0
H720 H 0.45502 0.22557 0.09972 0.0
H721 H 0.41756 1.00662 0.07284 0.0
H722 H 0.33741 0.08147 0.10256 0.0
H723 H 0.53751 0.1501 0.07083 0.0
H724 H 0.38683 0.03315 0.08358 0.0
H725 H 0.48307 0.19896 0.08867 0.0
C726 C 0.43459 0.18844 0.09796 0.0
C727 C 0.3938 0.15572 0.10213 0.0
C728 C 0.42 0.05874 0.08082 0.0
C729 C 0.42642 0.12477 0.0895 0.0
C730 C 0.43781 0.04355 0.07471 0.0
C731 C 0.48036 0.07608 0.07091 0.0
C732 C 0.44476 0.10689 0.08315 0.0
C733 C 0.50473 0.12357 0.07358 0.0
C734 C 0.45091 0.17318 0.09167 0.0
C735 C 0.369 0.10805 0.09954 0.0
N736 N 0.48649 0.13752 0.0795 0.0
N737 N 0.3859 0.09396 0.09343 0.0
H738 H 0.98586 0.29395 0.10154 0.0
H739 H 0.9267 0.44595 0.07123 0.0
H740 H 0.85855 0.30552 0.10294 0.0
H741 H 0.06281 0.45134 0.0725 0.0
H742 H 0.8994 0.39219 0.08247 0.0
H743 H 0.01186 0.3474 0.09031 0.0
C744 C 0.96303 0.30724 0.09944 0.0
C745 C 0.91982 0.29501 0.10321 0.0
C746 C 0.93534 0.40542 0.08032 0.0
C747 C 0.94988 0.35697 0.09036 0.0
C748 C 0.95109 0.43634 0.07391 0.0
C749 C 0.99726 0.45345 0.0709 0.0
C750 C 0.9658 0.39111 0.08371 0.0
C751 C 0.02702 0.43933 0.07461 0.0
C752 C 0.97813 0.33811 0.09305 0.0
C753 C 0.89204 0.31375 0.10022 0.0
N754 N 1.01069 0.40886 0.08078 0.0
N755 N 0.90758 0.34383 0.09399 0.0
H756 H 0.62767 0.66956 0.07223 0.0
H757 H 0.77043 0.6015 0.10311 0.0
H758 H 0.6132 0.52952 0.07404 0.0
H759 H 0.78359 0.74117 0.10183 0.0
H760 H 0.71327 0.57505 0.09239 0.0
H761 H 0.68283 0.69596 0.08329 0.0
C762 C 0.63541 0.64409 0.07502 0.0
C763 C 0.6157 0.5972 0.07215 0.0
C764 C 0.72882 0.61158 0.09442 0.0
C765 C 0.67971 0.6276 0.08476 0.0
C766 C 0.76186 0.6269 0.10052 0.0
C767 C 0.78215 0.67379 0.1034 0.0
C768 C 0.71572 0.64325 0.09114 0.0
C769 C 0.76913 0.70477 0.09981 0.0
C770 C 0.66728 0.65935 0.0813 0.0
C771 C 0.62741 0.566 0.07601 0.0
N772 N 0.73668 0.68891 0.09389 0.0
N773 N 0.65883 0.58184 0.08206 0.0
H774 H 0.14993 0.53992 0.43654 0.0
H775 H 0.08398 0.32903 0.40583 0.0
H776 H 1.01035 0.41348 0.43515 0.0
H777 H 0.22459 0.45299 0.40825 0.0
H778 H 0.05654 0.35779 0.41674 0.0
H779 H 0.17708 0.50866 0.42603 0.0
C780 C 0.12469 0.50586 0.43396 0.0
C781 C 0.07763 0.47944 0.43675 0.0
C782 C 0.0935 0.37846 0.41492 0.0
C783 C 0.10898 0.4429 0.42473 0.0
C784 C 0.10935 0.36185 0.40872 0.0
C785 C 0.15671 0.38867 0.40606 0.0
C786 C 0.12514 0.42228 0.41849 0.0
C787 C 0.18776 0.43106 0.41005 0.0
C788 C 0.14042 0.48781 0.42799 0.0
C789 C 0.04687 0.43529 0.43319 0.0
N790 N 0.17134 0.44668 0.416 0.0
N791 N 0.06312 0.41837 0.42739 0.0
H792 H 0.66975 0.62215 0.43532 0.0
H793 H 0.60594 0.76654 0.40414 0.0
H794 H 0.53059 0.60922 0.4331 0.0
H795 H 0.74396 0.77606 0.40538 0.0
H796 H 0.57853 0.70964 0.41488 0.0
H797 H 0.69732 0.67679 0.42419 0.0
C798 C 0.64471 0.63011 0.43243 0.0
C799 C 0.59774 0.61105 0.4352 0.0
C800 C 0.61491 0.72431 0.41284 0.0
C801 C 0.62948 0.67443 0.42253 0.0
C802 C 0.63079 0.75722 0.40672 0.0
C803 C 0.67748 0.77641 0.40383 0.0
C804 C 0.64582 0.71027 0.41612 0.0
C805 C 0.70774 0.76245 0.40742 0.0
C806 C 0.66064 0.66166 0.42611 0.0
C807 C 0.56712 0.62298 0.43121 0.0
N808 N 0.69135 0.73016 0.41335 0.0
N809 N 0.58362 0.6541 0.42513 0.0
H810 H 0.3088 0.85281 0.40481 0.0
H811 H 0.45476 0.06254 0.43563 0.0
H812 H 0.3021 0.98293 0.40598 0.0
H813 H 0.44382 0.92393 0.43724 0.0
H814 H 0.40308 0.03526 0.4242 0.0
H815 H 0.36073 0.87878 0.41629 0.0
C816 C 0.31777 0.88659 0.40751 0.0
C817 C 0.30079 0.91561 0.4044 0.0
C818 C 0.41207 0.01081 0.42703 0.0
C819 C 0.36098 0.94588 0.4175 0.0
C820 C 0.44192 0.02647 0.43355 0.0
C821 C 0.45386 0.99556 0.43744 0.0
C822 C 0.39393 0.96384 0.42431 0.0
C823 C 0.43576 0.94913 0.43444 0.0
C824 C 0.34762 0.90146 0.41406 0.0
C825 C 0.31403 0.95918 0.40815 0.0
N826 N 0.40668 0.93468 0.42807 0.0
N827 N 0.34345 0.97302 0.41446 0.0
H828 H 0.52952 0.92845 0.93581 0.0
H829 H 0.74434 0.98508 0.9065 0.0
H830 H 0.66238 0.06293 0.93542 0.0
H831 H 0.60863 0.85348 0.90626 0.0
H832 H 0.71602 0.0133 0.91734 0.0
H833 H 0.55798 0.90066 0.92497 0.0
C834 C 0.56446 0.95245 0.93339 0.0
C835 C 0.59353 0.99821 0.93656 0.0
C836 C 0.69255 0.97813 0.91494 0.0
C837 C 0.62673 0.9661 0.92417 0.0
C838 C 0.70884 0.96178 0.90878 0.0
C839 C 0.67891 0.91672 0.90544 0.0
C840 C 0.64597 0.94929 0.91781 0.0
C841 C 0.63311 0.88841 0.90864 0.0
C842 C 0.58081 0.93637 0.92721 0.0
C843 C 0.63858 0.02746 0.93317 0.0
N844 N 0.61804 0.90523 0.91461 0.0
N845 N 0.65387 0.01082 0.9272 0.0
H846 H 0.22456 0.77269 0.90492 0.0
H847 H 1.00958 0.61654 0.9343 0.0
H848 H 0.09237 0.77553 0.90548 0.0
H849 H 0.14692 0.62452 0.93554 0.0
H850 H 0.03803 0.67113 0.92324 0.0
H851 H 0.19643 0.71708 0.91589 0.0
C852 C 0.18988 0.76218 0.9074 0.0
C853 C 0.16089 0.77907 0.90425 0.0
C854 C 0.06188 0.66075 0.9259 0.0
C855 C 0.12809 0.71452 0.91676 0.0
C856 C 0.04554 0.6292 0.9322 0.0
C857 C 0.07584 0.61575 0.9359 0.0
C858 C 0.10895 0.67915 0.92323 0.0
C859 C 0.12215 0.63366 0.93288 0.0
C860 C 0.17372 0.73013 0.91364 0.0
C861 C 0.11613 0.76375 0.90771 0.0
N862 N 0.13732 0.66457 0.92676 0.0
N863 N 0.10106 0.73221 0.91374 0.0
H864 H 0.46286 0.54769 0.9339 0.0
H865 H 0.29659 0.32971 0.90551 0.0
H866 H 0.44989 0.4082 0.93546 0.0
H867 H 0.30968 0.46932 0.90416 0.0
H868 H 0.35255 0.35757 0.91646 0.0
H869 H 0.40898 0.52021 0.92272 0.0
C870 C 0.44924 0.51145 0.93184 0.0
C871 C 0.46098 0.48024 0.93568 0.0
C872 C 0.34297 0.38203 0.91379 0.0
C873 C 0.39835 0.4482 0.92289 0.0
C874 C 0.3107 0.36603 0.90756 0.0
C875 C 0.29807 0.39707 0.90389 0.0
C876 C 0.36301 0.4295 0.91638 0.0
C877 C 0.31799 0.4439 0.9068 0.0
C878 C 0.41813 0.49566 0.92547 0.0
C879 C 0.44196 0.43363 0.93271 0.0
N880 N 0.3495 0.45866 0.91284 0.0
N881 N 0.41141 0.41898 0.92654 0.0
H882 H 0.85714 0.60411 0.60178 0.0
H883 H 0.07148 0.65529 0.57272 0.0
H884 H 0.99392 0.73446 0.60203 0.0
H885 H 0.93065 0.53077 0.57112 0.0
H886 H 0.04455 0.68334 0.58376 0.0
H887 H 0.88354 0.57642 0.59063 0.0
C888 C 0.89253 0.62726 0.59944 0.0
C889 C 0.92328 0.67183 0.60287 0.0
C890 C 0.01959 0.64977 0.58102 0.0
C891 C 0.95407 0.63976 0.59013 0.0
C892 C 0.03504 0.63349 0.57473 0.0
C893 C 1.00337 0.59045 0.57096 0.0
C894 C 0.97208 0.62289 0.58359 0.0
C895 C 0.95647 0.56405 0.57384 0.0
C896 C 0.90767 0.61123 0.59308 0.0
C897 C 0.96882 0.69997 0.59958 0.0
N898 N 0.94227 0.58074 0.57996 0.0
N899 N 0.98289 0.68336 0.59343 0.0
H900 H 0.42063 0.45452 0.57256 0.0
H901 H 0.47746 0.29533 0.60175 0.0
H902 H 0.55036 0.4471 0.57174 0.0
H903 H 0.34363 0.29497 0.60155 0.0
H904 H 0.50495 0.35136 0.59085 0.0
H905 H 0.39321 0.39867 0.5835 0.0
C906 C 0.44371 0.44174 0.57473 0.0
C907 C 0.48802 0.45581 0.5712 0.0
C908 C 0.46943 0.33879 0.59315 0.0
C909 C 0.45631 0.391 0.5837 0.0
C910 C 0.45352 0.30647 0.59936 0.0
C911 C 0.40798 0.2901 0.60259 0.0
C912 C 0.4398 0.35524 0.59013 0.0
C913 C 0.37889 0.3063 0.59925 0.0
C914 C 0.4278 0.40948 0.58096 0.0
C915 C 0.51604 0.43755 0.57427 0.0
N916 N 0.39536 0.33808 0.59324 0.0
N917 N 0.49966 0.40605 0.58031 0.0
H918 H 0.78971 0.0862 0.60168 0.0
H919 H 0.62251 0.13764 0.57354 0.0
H920 H 0.77947 0.21443 0.6027 0.0
H921 H 0.62856 1.00704 0.57293 0.0
H922 H 0.67922 0.16574 0.58432 0.0
H923 H 0.73235 0.05744 0.59094 0.0
C924 C 0.77599 0.10867 0.59959 0.0
C925 C 0.78965 0.15293 0.60312 0.0
C926 C 0.66789 0.13078 0.58187 0.0
C927 C 0.72313 0.11967 0.59088 0.0
C928 C 0.63514 0.11448 0.57573 0.0
C929 C 0.62053 0.06978 0.57229 0.0
C930 C 0.68648 0.10236 0.5846 0.0
C931 C 0.63857 0.04166 0.57539 0.0
C932 C 0.74288 0.092 0.59348 0.0
C933 C 0.77024 0.18018 0.60017 0.0
N934 N 0.67077 0.05853 0.58133 0.0
N935 N 0.73789 0.16303 0.59426 0.0
H936 H 0.7527 0.67641 0.73913 0.0
H937 H 0.81827 0.88609 0.7701 0.0
H938 H 0.88659 0.8099 0.73918 0.0
H939 H 0.67929 0.75901 0.7686 0.0
H940 H 0.8443 0.85821 0.75893 0.0
H941 H 0.7266 0.7044 0.75031 0.0
C942 C 0.77693 0.71134 0.74154 0.0
C943 C 0.82204 0.74074 0.73818 0.0
C944 C 0.80799 0.83656 0.761 0.0
C945 C 0.79191 0.77334 0.75095 0.0
C946 C 0.79295 0.85261 0.76737 0.0
C947 C 0.74638 0.82498 0.77031 0.0
C948 C 0.77642 0.79235 0.75755 0.0
C949 C 0.71542 0.78171 0.76653 0.0
C950 C 0.76179 0.72747 0.7479 0.0
C951 C 0.85157 0.78584 0.74156 0.0
N952 N 0.73107 0.76664 0.76039 0.0
N953 N 0.83595 0.80075 0.74772 0.0
H954 H 0.3328 0.96368 0.7681 0.0
H955 H 0.27135 0.11777 0.73855 0.0
H956 H 0.20155 0.9683 0.76882 0.0
H957 H 0.40672 0.12126 0.73886 0.0
H958 H 0.24503 0.06263 0.74956 0.0
H959 H 0.35921 0.01891 0.75707 0.0
C960 C 0.3092 0.97574 0.76589 0.0
C961 C 0.26477 0.96111 0.76942 0.0
C962 C 0.28063 0.07571 0.74726 0.0
C963 C 0.29526 0.02513 0.75683 0.0
C964 C 0.29586 0.10752 0.74098 0.0
C965 C 0.34147 0.12446 0.73775 0.0
C966 C 0.31104 0.06038 0.75033 0.0
C967 C 0.37135 0.10943 0.74115 0.0
C968 C 0.32452 1.00763 0.75962 0.0
C969 C 0.23604 0.9784 0.76631 0.0
N970 N 0.35553 0.07812 0.74722 0.0
N971 N 0.25183 0.00953 0.76022 0.0
H972 H 0.95843 0.3283 0.73945 0.0
H973 H 0.13798 0.28604 0.76603 0.0
H974 H 0.97639 0.20478 0.73765 0.0
H975 H 0.11706 0.40733 0.76868 0.0
H976 H 0.082 0.25832 0.75515 0.0
H977 H 0.01703 0.3586 0.75002 0.0
C978 C 0.97414 0.30717 0.74133 0.0
C979 C 0.96217 0.26374 0.73764 0.0
C980 C 0.08989 0.2912 0.75807 0.0
C981 C 0.03013 0.29883 0.74967 0.0
C982 C 0.12223 0.30732 0.76426 0.0
C983 C 0.13223 0.34906 0.76833 0.0
C984 C 0.06715 0.31686 0.7559 0.0
C985 C 0.11052 0.37496 0.76574 0.0
C986 C 1.00792 0.32473 0.74734 0.0
C987 C 0.98414 0.23826 0.74032 0.0
N988 N 0.07876 0.35825 0.75973 0.0
N989 N 0.01712 0.25627 0.74614 0.0
H990 H 0.32934 0.40838 0.26875 0.0
H991 H 0.27552 0.19534 0.23914 0.0
H992 H 0.20426 0.26793 0.27034 0.0
H993 H 0.40725 0.33087 0.23933 0.0
H994 H 0.24791 0.2215 0.25035 0.0
H995 H 0.35622 0.38157 0.25756 0.0
C996 C 0.30714 0.37203 0.26671 0.0
C997 C 0.26429 0.34047 0.27053 0.0
C998 C 0.28299 0.24539 0.24798 0.0
C999 C 0.29547 0.30928 0.2577 0.0
C1000 C 0.29897 0.23039 0.24159 0.0
C1001 C 0.34397 0.26083 0.23826 0.0
C1002 C 0.31199 0.29136 0.25107 0.0
C1003 C 0.37244 0.30597 0.24169 0.0
C1004 C 0.32277 0.35665 0.26033 0.0
C1005 C 0.23739 0.29371 0.26759 0.0
N1006 N 0.35588 0.31991 0.24786 0.0
N1007 N 0.25347 0.27954 0.26138 0.0
H1008 H 0.80303 0.95291 0.2665 0.0
H1009 H 0.75971 0.12981 0.23942 0.0
H1010 H 0.68168 0.97377 0.26902 0.0
H1011 H 0.88414 0.11323 0.23801 0.0
H1012 H 0.72969 0.07214 0.25012 0.0
H1013 H 0.83062 0.0084 0.25556 0.0
C1014 C 0.78176 0.96861 0.2647 0.0
C1015 C 0.74004 0.95874 0.26874 0.0
C1016 C 0.7637 0.08138 0.2475 0.0
C1017 C 0.77204 0.02318 0.25624 0.0
C1018 C 0.78109 0.11462 0.24142 0.0
C1019 C 0.82467 0.12662 0.2378 0.0
C1020 C 0.78991 0.05977 0.24996 0.0
C1021 C 0.85051 0.10539 0.24062 0.0
C1022 C 0.79778 1.00064 0.25847 0.0
C1023 C 0.71406 0.98026 0.2661 0.0
N1024 N 0.83263 0.0729 0.2465 0.0
N1025 N 0.73068 0.01173 0.26005 0.0
H1026 H 0.97053 0.81553 0.23873 0.0
H1027 H 0.12848 0.75755 0.268 0.0
H1028 H 0.96814 0.68062 0.23909 0.0
H1029 H 0.12362 0.88877 0.26848 0.0
H1030 H 0.07263 0.73013 0.25704 0.0
H1031 H 0.02721 0.84311 0.24954 0.0
C1032 C 0.98137 0.79139 0.24114 0.0
C1033 C 0.96426 0.74553 0.23798 0.0
C1034 C 0.08405 0.76506 0.25952 0.0
C1035 C 0.03013 0.77742 0.25032 0.0
C1036 C 0.11633 0.78097 0.26574 0.0
C1037 C 0.13097 0.82564 0.2692 0.0
C1038 C 0.06617 0.79396 0.2567 0.0
C1039 C 0.1135 0.8541 0.26603 0.0
C1040 C 0.01407 0.80735 0.24729 0.0
C1041 C 0.98007 0.71615 0.24134 0.0
N1042 N 0.08196 0.83771 0.26 0.0
N1043 N 0.01223 0.73267 0.24729 0.0
H1044 H 0.47159 0.96708 0.0231 0.0
H1045 H 0.60728 0.10985 0.98447 0.0
H1046 H 0.59497 0.10918 0.0233 0.0
H1047 H 0.4829 0.96842 0.98436 0.0
H1048 H 0.60328 0.11051 0.99868 0.0
H1049 H 0.47596 0.96664 0.0089 0.0
C1050 C 0.49978 0.99811 0.02017 0.0
C1051 C 0.5329 0.03827 0.02442 0.0
C1052 C 0.5768 0.07939 0.99554 0.0
C1053 C 0.5379 0.03809 0.00813 0.0
C1054 C 0.57897 0.07903 0.98742 0.0
C1055 C 0.54542 0.03898 0.98319 0.0
C1056 C 0.54086 0.03941 0.99949 0.0
C1057 C 0.5096 1.0001 0.98735 0.0
C1058 C 0.50215 0.99788 0.01205 0.0
C1059 C 0.56859 0.07741 0.02029 0.0
N1060 N 0.50836 1.00126 0.99525 0.0
N1061 N 0.57005 0.07637 0.01238 0.0
H1062 H 0.96715 0.53149 0.98443 0.0
H1063 H 0.1141 0.54558 0.023 0.0
H1064 H 0.10643 0.54349 0.98411 0.0
H1065 H 0.97622 0.53679 0.02315 0.0
H1066 H 0.11257 0.54572 0.00873 0.0
H1067 H 0.9695 0.53227 0.99866 0.0
C1068 C 0.99807 0.53396 0.98734 0.0
C1069 C 0.03667 0.53753 0.98305 0.0
C1070 C 0.08275 0.54393 0.0119 0.0
C1071 C 0.0398 0.53888 0.99936 0.0
C1072 C 0.08372 0.54407 0.02005 0.0
C1073 C 0.04519 0.54099 0.02429 0.0
C1074 C 0.04296 0.54065 0.00799 0.0
C1075 C 1.0067 0.53901 0.02014 0.0
C1076 C 0.9995 0.53463 0.99547 0.0
C1077 C 0.07585 0.54076 0.98716 0.0
N1078 N 1.00651 0.53869 0.01224 0.0
N1079 N 0.07645 0.54148 0.99507 0.0
H1080 H 0.53937 0.61265 0.02245 0.0
H1081 H 0.53852 0.46269 0.98524 0.0
H1082 H 0.5423 0.48067 0.02407 0.0
H1083 H 0.53711 0.59548 0.98373 0.0
H1084 H 0.54035 0.46883 0.99942 0.0
H1085 H 0.53781 0.60638 0.0083 0.0
C1086 C 0.53944 0.58214 0.01985 0.0
C1087 C 0.54095 0.54709 0.0245 0.0
C1088 C 0.53977 0.4967 0.99599 0.0
C1089 C 0.53946 0.53992 0.0082 0.0
C1090 C 0.53883 0.49332 0.98787 0.0
C1091 C 0.53765 0.52865 0.98325 0.0
C1092 C 0.53943 0.53565 0.99956 0.0
C1093 C 0.5381 0.56742 0.98704 0.0
C1094 C 0.53867 0.57869 0.01174 0.0
C1095 C 0.54103 0.5085 0.02074 0.0
N1096 N 0.53883 0.5698 0.99496 0.0
N1097 N 0.5404 0.50602 0.01282 0.0
H1098 H 0.11471 0.6057 0.52299 0.0
H1099 H 0.96812 0.46888 0.48464 0.0
H1100 H 0.97392 0.48049 0.52341 0.0
H1101 H 0.1088 0.59425 0.48416 0.0
H1102 H 0.96927 0.4732 0.49886 0.0
H1103 H 0.11356 0.60183 0.50876 0.0
C1104 C 0.08368 0.57725 0.52011 0.0
C1105 C 0.04432 0.54346 0.52442 0.0
C1106 C 0.99983 0.49984 0.49564 0.0
C1107 C 0.04263 0.53902 0.50812 0.0
C1108 C 0.99913 0.49749 0.48751 0.0
C1109 C 0.03845 0.53117 0.48317 0.0
C1110 C 0.04015 0.5361 0.49948 0.0
C1111 C 0.07765 0.56741 0.48723 0.0
C1112 C 0.08297 0.57515 0.51197 0.0
C1113 C 1.00508 0.50743 0.52034 0.0
N1114 N 0.07755 0.56881 0.49515 0.0
N1115 N 1.0052 0.50625 0.51243 0.0
H1116 H 0.47857 0.54229 0.48317 0.0
H1117 H 0.60082 0.53639 0.52351 0.0
H1118 H 0.60858 0.53593 0.48507 0.0
H1119 H 0.46869 0.53919 0.52244 0.0
H1120 H 0.60405 0.53778 0.50936 0.0
H1121 H 0.47343 0.54134 0.49744 0.0
C1122 C 0.50585 0.54038 0.48656 0.0
C1123 C 0.54408 0.53919 0.48288 0.0
C1124 C 0.57433 0.5382 0.5122 0.0
C1125 C 0.53859 0.53853 0.49921 0.0
C1126 C 0.57249 0.53751 0.52031 0.0
C1127 C 0.53433 0.53755 0.52421 0.0
C1128 C 0.53774 0.53889 0.50788 0.0
C1129 C 0.49882 0.53914 0.51969 0.0
C1130 C 0.50297 0.54003 0.49471 0.0
C1131 C 0.57845 0.53697 0.4876 0.0
N1132 N 0.50131 0.53961 0.51176 0.0
N1133 N 0.5749 0.53681 0.49549 0.0
H1134 H 0.54417 0.10867 0.52464 0.0
H1135 H 0.5449 0.9784 0.48504 0.0
H1136 H 0.5377 0.9719 0.5236 0.0
H1137 H 0.54294 0.11114 0.48554 0.0
H1138 H 0.54554 0.97779 0.4992 0.0
H1139 H 0.54514 0.11147 0.51041 0.0
C1140 C 0.54267 0.07906 0.52143 0.0
C1141 C 0.54092 0.03997 0.52535 0.0
C1142 C 0.54512 1.00718 0.49623 0.0
C1143 C 0.54245 0.04328 0.50903 0.0
C1144 C 0.5449 1.00768 0.48812 0.0
C1145 C 0.54362 0.04481 0.48406 0.0
C1146 C 0.54404 0.04406 0.50038 0.0
C1147 C 0.54393 0.0818 0.48841 0.0
C1148 C 0.54337 0.08081 0.5133 0.0
C1149 C 0.53905 1.00275 0.52086 0.0
N1150 N 0.54389 0.08038 0.49634 0.0
N1151 N 0.54002 1.00543 0.51296 0.0
H1152 H 0.29266 0.45266 0.31895 0.0
H1153 H 0.14685 0.30179 0.35635 0.0
H1154 H 0.15857 0.31948 0.31811 0.0
H1155 H 0.27614 0.43884 0.35824 0.0
H1156 H 0.15287 0.30815 0.34226 0.0
H1157 H 0.28862 0.44955 0.33325 0.0
C1158 C 0.26224 0.42301 0.32175 0.0
C1159 C 0.22601 0.38618 0.3173 0.0
C1160 C 0.18007 0.3369 0.34573 0.0
C1161 C 0.22146 0.38223 0.33362 0.0
C1162 C 0.17675 0.33323 0.35381 0.0
C1163 C 0.21104 0.36986 0.35853 0.0
C1164 C 0.21798 0.37753 0.34225 0.0
C1165 C 0.24893 0.40965 0.35484 0.0
C1166 C 0.26008 0.42118 0.32991 0.0
C1167 C 0.18754 0.34861 0.32126 0.0
N1168 N 0.25135 0.4125 0.34692 0.0
N1169 N 0.18643 0.34758 0.32916 0.0
H1170 H 0.64945 0.86593 0.35656 0.0
H1171 H 0.78188 0.8794 0.3164 0.0
H1172 H 0.78419 0.8683 0.35554 0.0
H1173 H 0.64657 0.87541 0.31812 0.0
H1174 H 0.78416 0.87526 0.33064 0.0
H1175 H 0.64931 0.87067 0.34242 0.0
C1176 C 0.6792 0.86765 0.35337 0.0
C1177 C 0.71685 0.86656 0.35728 0.0
C1178 C 0.75396 0.87518 0.32788 0.0
C1179 C 0.71673 0.87177 0.34098 0.0
C1180 C 0.75252 0.87736 0.31975 0.0
C1181 C 0.71396 0.87776 0.31603 0.0
C1182 C 0.7166 0.87342 0.33232 0.0
C1183 C 0.67708 0.87526 0.32069 0.0
C1184 C 0.67902 0.87027 0.34527 0.0
C1185 C 0.75441 0.86905 0.35279 0.0
N1186 N 0.6794 0.87329 0.32857 0.0
N1187 N 0.75333 0.87139 0.34487 0.0
H1188 H 0.20444 0.93462 0.31726 0.0
H1189 H 0.21208 0.80718 0.35676 0.0
H1190 H 0.20878 0.80314 0.31808 0.0
H1191 H 0.20987 0.93979 0.35623 0.0
H1192 H 0.20875 0.80448 0.34261 0.0
H1193 H 0.20571 0.93702 0.33146 0.0
C1194 C 0.20585 0.90629 0.32041 0.0
C1195 C 0.20645 0.86853 0.31643 0.0
C1196 C 0.20885 0.83414 0.34557 0.0
C1197 C 0.20763 0.87106 0.33276 0.0
C1198 C 0.21066 0.83572 0.35368 0.0
C1199 C 0.21148 0.87395 0.35772 0.0
C1200 C 0.20791 0.87107 0.34141 0.0
C1201 C 0.20931 0.90964 0.35337 0.0
C1202 C 0.20646 0.90769 0.32854 0.0
C1203 C 0.20829 0.83295 0.32087 0.0
N1204 N 0.20783 0.90744 0.34544 0.0
N1205 N 0.20873 0.83507 0.32878 0.0
H1206 H 0.77282 0.9283 0.81843 0.0
H1207 H 0.64615 0.79677 0.85815 0.0
H1208 H 0.64318 0.79092 0.81918 0.0
H1209 H 0.78052 0.92957 0.85707 0.0
H1210 H 0.64417 0.79367 0.84394 0.0
H1211 H 0.77492 0.92962 0.83259 0.0
C1212 C 0.74459 0.89839 0.82156 0.0
C1213 C 0.70777 0.85931 0.81758 0.0
C1214 C 0.67418 0.82337 0.84681 0.0
C1215 C 0.71023 0.86064 0.83388 0.0
C1216 C 0.67545 0.82516 0.85494 0.0
C1217 C 0.71354 0.86362 0.85883 0.0
C1218 C 0.71116 0.86036 0.84253 0.0
C1219 C 0.75044 0.89924 0.85434 0.0
C1220 C 0.74596 0.89917 0.82967 0.0
C1221 C 0.67225 0.82177 0.82199 0.0
N1222 N 0.74819 0.89684 0.84643 0.0
N1223 N 0.67441 0.82334 0.82991 0.0
H1224 H 0.14364 0.87186 0.85612 0.0
H1225 H 0.27989 0.86563 0.81749 0.0
H1226 H 0.26992 0.85811 0.85632 0.0
H1227 H 0.15415 0.88032 0.8173 0.0
H1228 H 0.27621 0.86177 0.83171 0.0
H1229 H 0.14712 0.87539 0.8419 0.0
C1230 C 0.17226 0.86983 0.85319 0.0
C1231 C 0.20649 0.8646 0.85745 0.0
C1232 C 0.24936 0.86572 0.82856 0.0
C1233 C 0.21048 0.8683 0.84113 0.0
C1234 C 0.25134 0.86778 0.82042 0.0
C1235 C 0.21734 0.87341 0.81617 0.0
C1236 C 0.21313 0.86934 0.83248 0.0
C1237 C 0.18122 0.87603 0.82031 0.0
C1238 C 0.17413 0.87171 0.84506 0.0
C1239 C 0.24269 0.86211 0.8533 0.0
N1240 N 0.18015 0.8741 0.82823 0.0
N1241 N 0.24365 0.86387 0.84539 0.0
H1242 H 0.20646 0.30299 0.81609 0.0
H1243 H 0.21029 0.42833 0.8566 0.0
H1244 H 0.20946 0.43779 0.81808 0.0
H1245 H 0.21048 0.29487 0.85525 0.0
H1246 H 0.20817 0.43066 0.84244 0.0
H1247 H 0.20757 0.29845 0.83033 0.0
C1248 C 0.20767 0.33178 0.8195 0.0
C1249 C 0.20792 0.37088 0.81585 0.0
C1250 C 0.20855 0.40074 0.84522 0.0
C1251 C 0.20874 0.36562 0.83217 0.0
C1252 C 0.20964 0.39929 0.85334 0.0
C1253 C 0.2107 0.36138 0.85716 0.0
C1254 C 0.20856 0.36406 0.84083 0.0
C1255 C 0.20968 0.32481 0.85257 0.0
C1256 C 0.20811 0.32905 0.82764 0.0
C1257 C 0.20925 0.40695 0.8206 0.0
N1258 N 0.20883 0.32714 0.84465 0.0
N1259 N 0.20952 0.40337 0.82848 0.0
H1260 H 0.93561 0.7752 0.6904 0.0
H1261 H 0.81198 0.63906 0.65072 0.0
H1262 H 0.80606 0.63783 0.68954 0.0
H1263 H 0.94192 0.77612 0.65154 0.0
H1264 H 0.80895 0.6385 0.66491 0.0
H1265 H 0.93882 0.77587 0.6762 0.0
C1266 C 0.9079 0.745 0.68724 0.0
C1267 C 0.87041 0.70639 0.6912 0.0
C1268 C 0.83808 0.66876 0.66199 0.0
C1269 C 0.87382 0.70719 0.67488 0.0
C1270 C 0.83982 0.66922 0.65387 0.0
C1271 C 0.87737 0.70771 0.6499 0.0
C1272 C 0.87415 0.70703 0.66622 0.0
C1273 C 0.9123 0.7457 0.65433 0.0
C1274 C 0.90975 0.74552 0.67911 0.0
C1275 C 0.83564 0.66835 0.68676 0.0
N1276 N 0.90989 0.74433 0.66225 0.0
N1277 N 0.83814 0.66979 0.67884 0.0
H1278 H 0.44046 0.20907 0.65028 0.0
H1279 H 0.30633 0.20177 0.68991 0.0
H1280 H 0.30335 0.20176 0.65103 0.0
H1281 H 0.4436 0.20941 0.68913 0.0
H1282 H 0.30491 0.20227 0.6757 0.0
H1283 H 0.44169 0.20827 0.66448 0.0
C1284 C 0.41042 0.20702 0.65342 0.0
C1285 C 0.37174 0.20557 0.64942 0.0
C1286 C 0.3354 0.20396 0.67863 0.0
C1287 C 0.37318 0.20498 0.66576 0.0
C1288 C 0.33636 0.20382 0.68677 0.0
C1289 C 0.37516 0.20548 0.69076 0.0
C1290 C 0.37348 0.20573 0.67442 0.0
C1291 C 0.41294 0.2081 0.68633 0.0
C1292 C 0.41126 0.2067 0.66155 0.0
C1293 C 0.33392 0.20292 0.65384 0.0
N1294 N 0.41108 0.20801 0.67841 0.0
N1295 N 0.33567 0.20286 0.66176 0.0
H1296 H 0.87901 0.13762 0.65148 0.0
H1297 H 0.86734 0.27518 0.68956 0.0
H1298 H 0.86778 0.26537 0.65078 0.0
H1299 H 0.87892 0.14763 0.69029 0.0
H1300 H 0.86626 0.27147 0.67534 0.0
H1301 H 0.87954 0.14095 0.66571 0.0
C1302 C 0.87696 0.16655 0.6543 0.0
C1303 C 0.87326 0.20121 0.6499 0.0
C1304 C 0.86889 0.24421 0.67862 0.0
C1305 C 0.87346 0.20499 0.66621 0.0
C1306 C 0.86933 0.2462 0.68675 0.0
C1307 C 0.87334 0.21174 0.69115 0.0
C1308 C 0.87253 0.20752 0.67485 0.0
C1309 C 0.87586 0.17507 0.68716 0.0
C1310 C 0.87708 0.16831 0.66244 0.0
C1311 C 0.87062 0.23779 0.65391 0.0
N1312 N 0.87556 0.17403 0.67924 0.0
N1313 N 0.87065 0.23862 0.66182 0.0
H1314 H 0.31419 0.14961 0.19044 0.0
H1315 H 0.44081 0.27354 0.15013 0.0
H1316 H 0.44746 0.28347 0.1894 0.0
H1317 H 0.3061 0.14166 0.15199 0.0
H1318 H 0.44499 0.27864 0.1644 0.0
H1319 H 0.31247 0.1463 0.17629 0.0
C1320 C 0.3433 0.17831 0.18725 0.0
C1321 C 0.38099 0.21698 0.19116 0.0
C1322 C 0.4145 0.2487 0.16166 0.0
C1323 C 0.37904 0.21347 0.17482 0.0
C1324 C 0.41198 0.24583 0.15352 0.0
C1325 C 0.37301 0.20711 0.14982 0.0
C1326 C 0.37783 0.21257 0.16615 0.0
C1327 C 0.33688 0.17219 0.15453 0.0
C1328 C 0.34221 0.17642 0.17913 0.0
C1329 C 0.41768 0.25295 0.18665 0.0
N1330 N 0.34025 0.17575 0.16242 0.0
N1331 N 0.41572 0.2504 0.17872 0.0
H1332 H 0.81132 0.209 0.15081 0.0
H1333 H 0.9412 0.20701 0.19037 0.0
H1334 H 0.94366 0.20638 0.15138 0.0
H1335 H 0.81153 0.2146 0.18943 0.0
H1336 H 0.94289 0.20641 0.17616 0.0
H1337 H 0.81019 0.20882 0.16497 0.0
C1338 C 0.84011 0.20811 0.15391 0.0
C1339 C 0.87782 0.20793 0.14987 0.0
C1340 C 0.91417 0.20837 0.17906 0.0
C1341 C 0.87679 0.20804 0.16618 0.0
C1342 C 0.91321 0.20888 0.18719 0.0
C1343 C 0.87606 0.21076 0.19112 0.0
C1344 C 0.87769 0.20966 0.17482 0.0
C1345 C 0.84087 0.21312 0.18667 0.0
C1346 C 0.83945 0.20815 0.16202 0.0
C1347 C 0.91388 0.20653 0.15423 0.0
N1348 N 0.84249 0.21233 0.17876 0.0
N1349 N 0.91258 0.20685 0.16216 0.0
H1350 H 0.87942 0.78272 0.1514 0.0
H1351 H 0.86977 0.63703 0.18985 0.0
H1352 H 0.86368 0.6418 0.15103 0.0
H1353 H 0.88443 0.77751 0.19022 0.0
H1354 H 0.86707 0.63796 0.17563 0.0
H1355 H 0.88241 0.7819 0.16562 0.0
C1356 C 0.87687 0.75171 0.15429 0.0
C1357 C 0.87118 0.71224 0.14998 0.0
C1358 C 0.87076 0.66853 0.17882 0.0
C1359 C 0.87425 0.71094 0.1663 0.0
C1360 C 0.87216 0.66797 0.18696 0.0
C1361 C 0.87741 0.70728 0.19127 0.0
C1362 C 0.87469 0.7087 0.17495 0.0
C1363 C 0.88038 0.74637 0.18717 0.0
C1364 C 0.87842 0.75121 0.16242 0.0
C1365 C 0.86803 0.67306 0.15408 0.0
N1366 N 0.8791 0.74612 0.17925 0.0
N1367 N 0.86948 0.67338 0.162 0.0
H1368 H 0.49871 0.92124 0.05745 0.0
H1369 H 0.63202 0.78422 0.04178 0.0
H1370 H 0.6154 0.97984 0.04105 0.0
H1371 H 0.50394 0.71413 0.05568 0.0
H1372 H 0.62697 0.85713 0.04191 0.0
H1373 H 0.49941 0.84527 0.05723 0.0
C1374 C 0.52401 0.91793 0.05375 0.0
C1375 C 0.55689 0.95673 0.04924 0.0
C1376 C 0.59984 0.82588 0.04494 0.0
C1377 C 0.55858 0.87081 0.04906 0.0
C1378 C 0.60284 0.78428 0.04487 0.0
C1379 C 0.56839 0.74322 0.04872 0.0
C1380 C 0.56217 0.82663 0.04892 0.0
C1381 C 0.53125 0.74518 0.05264 0.0
C1382 C 0.52463 0.87477 0.05366 0.0
C1383 C 0.5895 0.9509 0.04464 0.0
N1384 N 0.52912 0.78627 0.05265 0.0
N1385 N 0.5896 0.90897 0.04469 0.0
H1386 H 0.15929 0.62519 0.05731 0.0
H1387 H 0.3079 0.88784 0.03863 0.0
H1388 H 0.10415 0.68297 0.0402 0.0
H1389 H 0.36819 0.83526 0.05574 0.0
H1390 H 0.23421 0.81058 0.03879 0.0
H1391 H 0.23743 0.69918 0.0565 0.0
C1392 C 0.1638 0.65313 0.05333 0.0
C1393 C 0.12531 0.64793 0.0488 0.0
C1394 C 0.2635 0.81567 0.0425 0.0
C1395 C 0.21394 0.73259 0.04791 0.0
C1396 C 0.30563 0.85985 0.0424 0.0
C1397 C 0.34405 0.86795 0.04719 0.0
C1398 C 0.25951 0.77914 0.04746 0.0
C1399 C 0.33923 0.83041 0.05196 0.0
C1400 C 0.20823 0.69544 0.0529 0.0
C1401 C 0.13278 0.68554 0.04383 0.0
N1402 N 0.29762 0.78764 0.052 0.0
N1403 N 0.17601 0.72612 0.04353 0.0
H1404 H 0.21297 0.50642 0.03722 0.0
H1405 H 0.41372 0.51522 0.06415 0.0
H1406 H 0.22378 0.54979 0.06124 0.0
H1407 H 0.4451 0.56492 0.04039 0.0
H1408 H 0.33828 0.51619 0.06327 0.0
H1409 H 0.29304 0.51545 0.03819 0.0
C1410 C 0.23226 0.51782 0.04268 0.0
C1411 C 0.21207 0.52737 0.04916 0.0
C1412 C 0.362 0.52728 0.05829 0.0
C1413 C 0.30247 0.53692 0.05034 0.0
C1414 C 0.40481 0.52668 0.05878 0.0
C1415 C 0.43536 0.54 0.05234 0.0
C1416 C 0.3493 0.53995 0.05123 0.0
C1417 C 0.42242 0.55454 0.0455 0.0
C1418 C 0.27782 0.52319 0.04322 0.0
C1419 C 0.23835 0.54219 0.05612 0.0
N1420 N 0.37987 0.55341 0.04507 0.0
N1421 N 0.28207 0.54594 0.05656 0.0
H1422 H 0.92108 0.49685 0.45018 0.0
H1423 H 0.78258 0.62832 0.46604 0.0
H1424 H 0.97971 0.61424 0.46647 0.0
H1425 H 0.7131 0.50007 0.45213 0.0
H1426 H 0.85584 0.62397 0.46586 0.0
H1427 H 0.84475 0.49669 0.4505 0.0
C1428 C 0.91771 0.52213 0.45388 0.0
C1429 C 0.95662 0.55542 0.45833 0.0
C1430 C 0.82465 0.59664 0.46284 0.0
C1431 C 0.87021 0.55615 0.45863 0.0
C1432 C 0.78282 0.59922 0.46294 0.0
C1433 C 0.74183 0.56454 0.4591 0.0
C1434 C 0.82571 0.55917 0.45884 0.0
C1435 C 0.74407 0.52755 0.45517 0.0
C1436 C 0.87432 0.52227 0.45403 0.0
C1437 C 0.95069 0.58802 0.46292 0.0
N1438 N 0.78538 0.52584 0.45512 0.0
N1439 N 0.90852 0.58763 0.46293 0.0
H1440 H 0.50528 0.21115 0.47093 0.0
H1441 H 0.5133 0.40962 0.44356 0.0
H1442 H 0.54954 0.22092 0.44698 0.0
H1443 H 0.56336 0.44305 0.46729 0.0
H1444 H 0.5146 0.33438 0.44462 0.0
H1445 H 0.51389 0.29102 0.46978 0.0
C1446 C 0.51678 0.23018 0.46545 0.0
C1447 C 0.52672 0.20978 0.45904 0.0
C1448 C 0.52569 0.35852 0.44956 0.0
C1449 C 0.53578 0.29987 0.45766 0.0
C1450 C 0.52489 0.40119 0.44896 0.0
C1451 C 0.53821 0.43223 0.45535 0.0
C1452 C 0.53857 0.34648 0.45666 0.0
C1453 C 0.55296 0.41995 0.46223 0.0
C1454 C 0.52192 0.27561 0.46481 0.0
C1455 C 0.54166 0.23568 0.45205 0.0
N1456 N 0.55203 0.37752 0.46275 0.0
N1457 N 0.54517 0.27927 0.45151 0.0
H1458 H 0.88794 0.30747 0.46913 0.0
H1459 H 0.62484 0.1574 0.45072 0.0
H1460 H 0.83527 0.36625 0.45177 0.0
H1461 H 0.68344 0.10377 0.46795 0.0
H1462 H 0.69878 0.2357 0.45137 0.0
H1463 H 0.81063 0.23396 0.46915 0.0
C1464 C 0.85992 0.3049 0.46534 0.0
C1465 C 0.868 0.34283 0.46043 0.0
C1466 C 0.69521 0.2068 0.45503 0.0
C1467 C 0.77911 0.25848 0.46036 0.0
C1468 C 0.65294 0.16229 0.4547 0.0
C1469 C 0.64803 0.12419 0.4593 0.0
C1470 C 0.73255 0.21293 0.46001 0.0
C1471 C 0.68581 0.1321 0.46426 0.0
C1472 C 0.8157 0.26287 0.46534 0.0
C1473 C 0.83041 0.33766 0.45564 0.0
N1474 N 0.72632 0.17538 0.46447 0.0
N1475 N 0.78758 0.29612 0.45569 0.0
H1476 H 0.44683 0.29307 0.96585 0.0
H1477 H 0.57806 0.15461 0.94997 0.0
H1478 H 0.57391 0.36248 0.9517 0.0
H1479 H 0.46349 0.09783 0.96676 0.0
H1480 H 0.57776 0.23081 0.95014 0.0
H1481 H 0.45183 0.2202 0.96574 0.0
C1482 C 0.47578 0.29286 0.9627 0.0
C1483 C 0.50996 0.33371 0.95878 0.0
C1484 C 0.55293 0.20165 0.95381 0.0
C1485 C 0.51615 0.25033 0.95861 0.0
C1486 C 0.55332 0.15838 0.95375 0.0
C1487 C 0.52088 0.12003 0.95838 0.0
C1488 C 0.51964 0.20614 0.9585 0.0
C1489 C 0.489 0.12641 0.96307 0.0
C1490 C 0.47877 0.25128 0.96265 0.0
C1491 C 0.54682 0.33158 0.9548 0.0
N1492 N 0.4891 0.16841 0.96299 0.0
N1493 N 0.54894 0.29048 0.9548 0.0
H1494 H 0.91912 0.44859 0.94963 0.0
H1495 H 0.76776 0.18882 0.96908 0.0
H1496 H 0.97009 0.39505 0.96811 0.0
H1497 H 0.70946 0.23974 0.95136 0.0
H1498 H 0.8412 0.26624 0.96901 0.0
H1499 H 0.84087 0.37475 0.95037 0.0
C1500 C 0.91363 0.42164 0.9539 0.0
C1501 C 0.95097 0.42792 0.95884 0.0
C1502 C 0.8124 0.26075 0.96514 0.0
C1503 C 0.86232 0.34344 0.95964 0.0
C1504 C 0.77043 0.21648 0.96519 0.0
C1505 C 0.73266 0.20791 0.9602 0.0
C1506 C 0.81688 0.29684 0.96003 0.0
C1507 C 0.73793 0.24501 0.95528 0.0
C1508 C 0.86915 0.37942 0.95429 0.0
C1509 C 0.94233 0.39158 0.96417 0.0
N1510 N 0.77941 0.28787 0.95529 0.0
N1511 N 0.89912 0.351 0.96441 0.0
H1512 H 0.63177 0.51087 0.96767 0.0
H1513 H 0.85377 0.52207 0.94629 0.0
H1514 H 0.66659 0.56162 0.944 0.0
H1515 H 0.86517 0.57052 0.97003 0.0
H1516 H 0.77474 0.51513 0.94535 0.0
H1517 H 0.70758 0.51075 0.96859 0.0
C1518 C 0.65509 0.52131 0.96264 0.0
C1519 C 0.64333 0.5365 0.95575 0.0
C1520 C 0.79458 0.52706 0.95076 0.0
C1521 C 0.72899 0.53575 0.95675 0.0
C1522 C 0.8394 0.5309 0.95131 0.0
C1523 C 0.86581 0.54712 0.95823 0.0
C1524 C 0.77569 0.53827 0.95724 0.0
C1525 C 0.84584 0.55818 0.96458 0.0
C1526 C 0.69827 0.52152 0.9632 0.0
C1527 C 0.6747 0.54989 0.94941 0.0
N1528 N 0.8016 0.55321 0.96396 0.0
N1529 N 0.71617 0.54899 0.95005 0.0
H1530 H 0.37471 0.58329 0.5557 0.0
H1531 H 0.10565 0.46555 0.54004 0.0
H1532 H 0.31024 0.46661 0.53932 0.0
H1533 H 0.1618 0.57558 0.55763 0.0
H1534 H 0.18316 0.47073 0.53911 0.0
H1535 H 0.30015 0.58625 0.55592 0.0
C1536 C 0.34492 0.55851 0.55212 0.0
C1537 C 0.34842 0.52451 0.54751 0.0
C1538 C 0.1789 0.49406 0.54315 0.0
C1539 C 0.26338 0.52766 0.54772 0.0
C1540 C 0.13455 0.49108 0.54369 0.0
C1541 C 0.12739 0.52028 0.54891 0.0
C1542 C 0.21669 0.52631 0.54791 0.0
C1543 C 0.16611 0.55289 0.55347 0.0
C1544 C 0.30244 0.56018 0.55226 0.0
C1545 C 0.30897 0.49327 0.54298 0.0
N1546 N 0.2092 0.55488 0.5529 0.0
N1547 N 0.26814 0.49554 0.54322 0.0
H1548 H 0.60917 0.67905 0.53921 0.0
H1549 H 0.49736 0.8323 0.55646 0.0
H1550 H 0.50366 0.62655 0.5575 0.0
H1551 H 0.60942 0.88395 0.53925 0.0
H1552 H 0.49408 0.75464 0.55638 0.0
H1553 H 0.60464 0.75197 0.53858 0.0
C1554 C 0.58476 0.68283 0.54308 0.0
C1555 C 0.55664 0.6467 0.54841 0.0
C1556 C 0.51922 0.7829 0.5526 0.0
C1557 C 0.55139 0.73056 0.54775 0.0
C1558 C 0.52108 0.82715 0.55264 0.0
C1559 C 0.55386 0.86454 0.54788 0.0
C1560 C 0.55035 0.77611 0.54775 0.0
C1561 C 0.58373 0.8561 0.54303 0.0
C1562 C 0.58217 0.72454 0.54271 0.0
C1563 C 0.52551 0.65336 0.55325 0.0
N1564 N 0.58133 0.81288 0.54311 0.0
N1565 N 0.52386 0.6947 0.55284 0.0
H1566 H 0.39979 0.97044 0.5399 0.0
H1567 H 0.24525 0.70351 0.55631 0.0
H1568 H 0.45119 0.91516 0.55804 0.0
H1569 H 0.1955 0.76625 0.53916 0.0
H1570 H 0.32318 0.77753 0.55643 0.0
H1571 H 0.32741 0.89287 0.5389 0.0
C1572 C 0.39589 0.9417 0.54365 0.0
C1573 C 0.43147 0.94913 0.54905 0.0
C1574 C 0.29527 0.77498 0.55262 0.0
C1575 C 0.3482 0.8599 0.548 0.0
C1576 C 0.25087 0.73281 0.55255 0.0
C1577 C 0.21395 0.72901 0.54774 0.0
C1578 C 0.30264 0.81344 0.54785 0.0
C1579 C 0.22297 0.76781 0.54297 0.0
C1580 C 0.35449 0.89734 0.54308 0.0
C1581 C 0.42474 0.91064 0.55374 0.0
N1582 N 0.2663 0.80838 0.54316 0.0
N1583 N 0.38363 0.86761 0.55314 0.0
H1584 H 0.20401 0.043 0.39506 0.0
H1585 H 0.18853 0.25307 0.37402 0.0
H1586 H 0.24543 0.07814 0.37101 0.0
H1587 H 0.24176 0.26882 0.39753 0.0
H1588 H 0.1877 0.17685 0.37299 0.0
H1589 H 0.19678 0.11489 0.39618 0.0
C1590 C 0.21123 0.06573 0.39001 0.0
C1591 C 0.22558 0.05508 0.38294 0.0
C1592 C 0.19917 0.19694 0.37838 0.0
C1593 C 0.21645 0.13614 0.38415 0.0
C1594 C 0.19939 0.24011 0.37899 0.0
C1595 C 0.21553 0.26713 0.38586 0.0
C1596 C 0.214 0.18035 0.38474 0.0
C1597 C 0.22936 0.24898 0.39213 0.0
C1598 C 0.20723 0.10661 0.39066 0.0
C1599 C 0.23458 0.0855 0.37656 0.0
N1600 N 0.22811 0.20645 0.39144 0.0
N1601 N 0.22955 0.12469 0.3773 0.0
H1602 H 0.97272 0.22019 0.37513 0.0
H1603 H 0.83431 0.94905 0.39046 0.0
H1604 H 0.0419 0.16111 0.38905 0.0
H1605 H 0.77721 0.0081 0.37393 0.0
H1606 H 0.91042 0.02555 0.39038 0.0
H1607 H 0.89984 0.14225 0.37509 0.0
C1608 C 0.97248 0.19071 0.37819 0.0
C1609 C 0.01328 0.19702 0.3821 0.0
C1610 C 0.88123 0.02152 0.38674 0.0
C1611 C 0.92986 0.10739 0.3821 0.0
C1612 C 0.83799 0.97783 0.38676 0.0
C1613 C 0.79956 0.97223 0.38217 0.0
C1614 C 0.88564 0.05967 0.38215 0.0
C1615 C 0.80585 0.01089 0.37758 0.0
C1616 C 0.93088 0.14612 0.37816 0.0
C1617 C 1.01107 0.15761 0.38597 0.0
N1618 N 0.84783 0.05282 0.3777 0.0
N1619 N 0.96998 0.11441 0.38589 0.0
H1620 H 0.86673 0.78991 0.37193 0.0
H1621 H 0.12907 0.90454 0.39075 0.0
H1622 H 0.9195 0.90405 0.3888 0.0
H1623 H 0.072 0.79159 0.37365 0.0
H1624 H 0.05498 0.90844 0.38987 0.0
H1625 H 0.94382 0.79313 0.37222 0.0
C1626 C 0.89471 0.81582 0.37568 0.0
C1627 C 0.88673 0.84664 0.38036 0.0
C1628 C 0.05889 0.88303 0.38629 0.0
C1629 C 0.97535 0.85052 0.38077 0.0
C1630 C 0.10127 0.88106 0.38675 0.0
C1631 C 0.10674 0.84789 0.38224 0.0
C1632 C 0.0219 0.85151 0.38128 0.0
C1633 C 0.06925 0.8176 0.37726 0.0
C1634 C 0.9388 0.81768 0.37585 0.0
C1635 C 0.92426 0.87958 0.3851 0.0
N1636 N 0.02858 0.82009 0.37693 0.0
N1637 N 0.96694 0.88056 0.38522 0.0
H1638 H 0.44 0.94683 0.80185 0.0
H1639 H 0.58889 0.83112 0.78393 0.0
H1640 H 0.38038 0.83418 0.7847 0.0
H1641 H 0.64206 0.94348 0.80114 0.0
H1642 H 0.51088 0.82765 0.78437 0.0
H1643 H 0.51316 0.94247 0.80193 0.0
C1644 C 0.44233 0.92102 0.79811 0.0
C1645 C 0.40425 0.89097 0.79325 0.0
C1646 C 0.53966 0.85286 0.78807 0.0
C1647 C 0.48821 0.88574 0.79326 0.0
C1648 C 0.58401 0.85468 0.78784 0.0
C1649 C 0.6219 0.88767 0.7925 0.0
C1650 C 0.53353 0.88428 0.79299 0.0
C1651 C 0.61393 0.91769 0.79741 0.0
C1652 C 0.48415 0.91849 0.79815 0.0
C1653 C 0.4091 0.85807 0.78853 0.0
N1654 N 0.57086 0.91534 0.79751 0.0
N1655 N 0.45046 0.85644 0.78863 0.0
H1656 H 0.24935 0.78919 0.783 0.0
H1657 H 0.11959 0.52025 0.79936 0.0
H1658 H 0.1348 0.73186 0.7998 0.0
H1659 H 0.24357 0.57658 0.7845 0.0
H1660 H 0.12473 0.59825 0.79927 0.0
H1661 H 0.24899 0.71269 0.78324 0.0
C1662 C 0.22459 0.76078 0.78679 0.0
C1663 C 0.19218 0.76685 0.7914 0.0
C1664 C 0.15094 0.59377 0.79602 0.0
C1665 C 0.19091 0.67943 0.79162 0.0
C1666 C 0.14789 0.54914 0.79606 0.0
C1667 C 0.18113 0.54203 0.79192 0.0
C1668 C 0.18745 0.63172 0.79178 0.0
C1669 C 0.21718 0.58069 0.78776 0.0
C1670 C 0.22416 0.71709 0.7869 0.0
C1671 C 0.16029 0.72868 0.79612 0.0
N1672 N 0.21938 0.62395 0.78777 0.0
N1673 N 0.16038 0.68675 0.79609 0.0
H1674 H 0.56735 0.63296 0.78891 0.0
H1675 H 0.28876 0.50123 0.79664 0.0
H1676 H 0.49911 0.71287 0.7958 0.0
H1677 H 0.35309 0.45165 0.77976 0.0
H1678 H 0.3652 0.57646 0.79779 0.0
H1679 H 0.48876 0.562 0.7872 0.0
C1680 C 0.53572 0.63541 0.79011 0.0
C1681 C 0.53948 0.67861 0.7925 0.0
C1682 C 0.36224 0.54921 0.79379 0.0
C1683 C 0.44967 0.59775 0.79057 0.0
C1684 C 0.31875 0.50646 0.79311 0.0
C1685 C 0.31477 0.47032 0.7881 0.0
C1686 C 0.40196 0.55511 0.78954 0.0
C1687 C 0.35472 0.47859 0.7837 0.0
C1688 C 0.49096 0.59507 0.78908 0.0
C1689 C 0.49748 0.68004 0.79394 0.0
N1690 N 0.39683 0.51989 0.7846 0.0
N1691 N 0.45408 0.63996 0.79301 0.0
H1692 H 0.11978 0.43477 0.28571 0.0
H1693 H 0.27081 0.71819 0.29078 0.0
H1694 H 0.26778 0.50494 0.29262 0.0
H1695 H 0.11814 0.63484 0.29389 0.0
H1696 H 0.27347 0.64346 0.28962 0.0
H1697 H 0.12159 0.51107 0.28657 0.0
C1698 C 0.15296 0.46645 0.28731 0.0
C1699 C 0.19389 0.46357 0.28901 0.0
C1700 C 0.23951 0.64169 0.29059 0.0
C1701 C 0.19616 0.55132 0.29005 0.0
C1702 C 0.23795 0.6842 0.29125 0.0
C1703 C 0.19417 0.68258 0.29245 0.0
C1704 C 0.19686 0.59747 0.29098 0.0
C1705 C 0.15265 0.63771 0.29299 0.0
C1706 C 0.15386 0.50997 0.28784 0.0
C1707 C 0.23579 0.50576 0.2911 0.0
N1708 N 0.15497 0.59704 0.2922 0.0
N1709 N 0.23592 0.54805 0.29155 0.0
H1710 H 0.42786 0.55747 0.30413 0.0
H1711 H 0.62079 0.75242 0.27658 0.0
H1712 H 0.398 0.56084 0.27971 0.0
H1713 H 0.60051 0.78834 0.29994 0.0
H1714 H 0.54461 0.6769 0.27761 0.0
H1715 H 0.49829 0.63768 0.30287 0.0
C1716 C 0.43623 0.57517 0.29852 0.0
C1717 C 0.40747 0.55287 0.29201 0.0
C1718 C 0.55675 0.70165 0.28247 0.0
C1719 C 0.48752 0.64342 0.29051 0.0
C1720 C 0.60001 0.7445 0.28189 0.0
C1721 C 0.61667 0.77627 0.28819 0.0
C1722 C 0.53094 0.69026 0.28947 0.0
C1723 C 0.58869 0.76464 0.29495 0.0
C1724 C 0.47604 0.62081 0.29781 0.0
C1725 C 0.41945 0.57709 0.28486 0.0
N1726 N 0.54741 0.72208 0.29547 0.0
N1727 N 0.45903 0.62098 0.28427 0.0
H1728 H 0.35282 0.95131 0.30078 0.0
H1729 H 0.5107 0.84221 0.28459 0.0
H1730 H 0.30018 0.84132 0.28317 0.0
H1731 H 0.56418 0.96682 0.29929 0.0
H1732 H 0.43188 0.83649 0.2845 0.0
H1733 H 0.42832 0.952 0.30094 0.0
C1734 C 0.35712 0.92704 0.29695 0.0
C1735 C 0.32013 0.89619 0.29195 0.0
C1736 C 0.4609 0.86507 0.28773 0.0
C1737 C 0.4072 0.89691 0.29208 0.0
C1738 C 0.50582 0.86837 0.28779 0.0
C1739 C 0.54396 0.90513 0.29194 0.0
C1740 C 0.45413 0.89863 0.29192 0.0
C1741 C 0.53579 0.938 0.296 0.0
C1742 C 0.4004 0.92751 0.29704 0.0
C1743 C 0.32769 0.86537 0.28716 0.0
N1744 N 0.49185 0.9339 0.29589 0.0
N1745 N 0.37054 0.86657 0.28732 0.0
H1746 H 0.98257 0.78991 0.87222 0.0
H1747 H 0.83477 0.90201 0.89172 0.0
H1748 H 0.04431 0.90349 0.88919 0.0
H1749 H 0.77931 0.79146 0.8742 0.0
H1750 H 0.91317 0.90709 0.89057 0.0
H1751 H 0.9089 0.79344 0.87255 0.0
C1752 C 0.98061 0.81576 0.87599 0.0
C1753 C 0.01938 0.8463 0.8807 0.0
C1754 C 0.88386 0.882 0.88694 0.0
C1755 C 0.93498 0.85052 0.88117 0.0
C1756 C 0.8393 0.87936 0.88756 0.0
C1757 C 0.80069 0.8464 0.88303 0.0
C1758 C 0.88946 0.85134 0.88176 0.0
C1759 C 0.8081 0.81722 0.87784 0.0
C1760 C 0.93852 0.81781 0.87619 0.0
C1761 C 0.01503 0.87922 0.88548 0.0
N1762 N 0.85142 0.82028 0.87737 0.0
N1763 N 0.97343 0.88033 0.88562 0.0
H1764 H 0.28446 0.20937 0.87137 0.0
H1765 H 0.17363 0.94899 0.89065 0.0
H1766 H 0.17161 0.15697 0.88845 0.0
H1767 H 0.28077 1.00324 0.8726 0.0
H1768 H 0.16875 0.02254 0.8897 0.0
H1769 H 0.28059 0.13196 0.87151 0.0
C1770 C 0.2587 0.18138 0.87513 0.0
C1771 C 0.22846 0.18951 0.87993 0.0
C1772 C 0.19302 0.01808 0.88591 0.0
C1773 C 0.22387 0.10067 0.88017 0.0
C1774 C 0.19555 0.97604 0.88642 0.0
C1775 C 0.2275 0.97009 0.88168 0.0
C1776 C 0.22284 0.05419 0.88065 0.0
C1777 C 0.25581 1.00651 0.8764 0.0
C1778 C 0.25644 0.13713 0.87521 0.0
C1779 C 0.19564 0.15203 0.88468 0.0
N1780 N 0.25292 0.04693 0.87605 0.0
N1781 N 0.19435 0.10922 0.88472 0.0
H1782 H 0.86363 0.0903 0.87259 0.0
H1783 H 0.12756 0.24127 0.89059 0.0
H1784 H 0.91897 0.03162 0.8895 0.0
H1785 H 0.06971 0.2935 0.873 0.0
H1786 H 0.05366 0.16304 0.89004 0.0
H1787 H 0.94081 0.1641 0.87242 0.0
C1788 C 0.8922 0.09296 0.87624 0.0
C1789 C 0.88496 0.05498 0.88108 0.0
C1790 C 0.05737 0.19158 0.88626 0.0
C1791 C 0.97359 0.13955 0.88097 0.0
C1792 C 0.09963 0.23604 0.88654 0.0
C1793 C 0.10476 0.27371 0.8818 0.0
C1794 C 0.02015 0.18508 0.88123 0.0
C1795 C 0.06715 0.26545 0.87678 0.0
C1796 C 0.93633 0.13512 0.87616 0.0
C1797 C 0.92319 0.06024 0.8857 0.0
N1798 N 0.02654 0.22221 0.87664 0.0
N1799 N 0.96587 0.10188 0.88556 0.0
H1800 H 0.8311 0.37375 0.72233 0.0
H1801 H 0.94505 0.64168 0.70625 0.0
H1802 H 0.9468 0.43806 0.70579 0.0
H1803 H 0.83633 0.58541 0.72403 0.0
H1804 H 0.94081 0.56449 0.70538 0.0
H1805 H 0.82727 0.44785 0.72244 0.0
C1806 C 0.85551 0.40342 0.71869 0.0
C1807 C 0.88947 0.4 0.71406 0.0
C1808 C 0.91759 0.56867 0.70946 0.0
C1809 C 0.88532 0.48457 0.71416 0.0
C1810 C 0.92001 0.61283 0.70996 0.0
C1811 C 0.89097 0.6199 0.71522 0.0
C1812 C 0.88605 0.531 0.71429 0.0
C1813 C 0.85899 0.58123 0.71985 0.0
C1814 C 0.85333 0.44565 0.71877 0.0
C1815 C 0.92019 0.43929 0.70946 0.0
N1816 N 0.85754 0.53836 0.71931 0.0
N1817 N 0.91745 0.47991 0.70964 0.0
H1818 H 0.49616 0.29286 0.72389 0.0
H1819 H 0.64533 0.55574 0.70546 0.0
H1820 H 0.44273 0.3491 0.70623 0.0
H1821 H 0.70561 0.50127 0.72224 0.0
H1822 H 0.57164 0.47844 0.70544 0.0
H1823 H 0.57424 0.3668 0.72316 0.0
C1824 C 0.50108 0.32045 0.71979 0.0
C1825 C 0.46312 0.31486 0.71508 0.0
C1826 C 0.60095 0.48315 0.70912 0.0
C1827 C 0.55158 0.39951 0.7143 0.0
C1828 C 0.64304 0.52734 0.70912 0.0
C1829 C 0.68144 0.53486 0.71387 0.0
C1830 C 0.59702 0.44611 0.71394 0.0
C1831 C 0.67666 0.49684 0.7185 0.0
C1832 C 0.54547 0.36273 0.71941 0.0
C1833 C 0.47101 0.35203 0.70998 0.0
N1834 N 0.63508 0.4541 0.71845 0.0
N1835 N 0.51418 0.39269 0.70975 0.0
H1836 H 0.52726 0.13304 0.70541 0.0
H1837 H 0.78891 0.24702 0.72433 0.0
H1838 H 0.58072 0.24842 0.72206 0.0
H1839 H 0.73374 0.13727 0.70669 0.0
H1840 H 0.71508 0.25131 0.72339 0.0
H1841 H 0.60456 0.13672 0.7056 0.0
C1842 C 0.55544 0.15932 0.70909 0.0
C1843 C 0.54764 0.19035 0.71374 0.0
C1844 C 0.71939 0.22658 0.71969 0.0
C1845 C 0.63639 0.19474 0.71405 0.0
C1846 C 0.7616 0.22439 0.72019 0.0
C1847 C 0.76744 0.19194 0.71555 0.0
C1848 C 0.68294 0.1959 0.71454 0.0
C1849 C 0.73061 0.16268 0.7104 0.0
C1850 C 0.59964 0.16146 0.7092 0.0
C1851 C 0.58538 0.22378 0.71839 0.0
N1852 N 0.69003 0.16527 0.71005 0.0
N1853 N 0.62813 0.22497 0.71846 0.0
H1854 H 0.2739 0.2366 0.11029 0.0
H1855 H 0.08041 0.24137 0.13718 0.0
H1856 H 0.2564 0.18625 0.134 0.0
H1857 H 0.04776 0.19735 0.11318 0.0
H1858 H 0.15196 0.23323 0.13622 0.0
H1859 H 0.19655 0.23366 0.11116 0.0
C1860 C 0.25352 0.22459 0.11564 0.0
C1861 C 0.27125 0.21171 0.12208 0.0
C1862 C 0.12884 0.2251 0.13119 0.0
C1863 C 0.18416 0.20945 0.12317 0.0
C1864 C 0.08836 0.22995 0.13173 0.0
C1865 C 0.05849 0.22002 0.12525 0.0
C1866 C 0.13991 0.21153 0.12407 0.0
C1867 C 0.07003 0.20522 0.1183 0.0
C1868 C 0.20958 0.22285 0.11613 0.0
C1869 C 0.24373 0.19637 0.12891 0.0
N1870 N 0.1103 0.20203 0.11786 0.0
N1871 N 0.20176 0.1964 0.12932 0.0
H1872 H 0.79496 0.06721 0.13421 0.0
H1873 H 0.91274 0.91588 0.11846 0.0
H1874 H 0.9072 0.1225 0.11702 0.0
H1875 H 0.7978 0.86406 0.13514 0.0
H1876 H 0.91532 0.99327 0.11824 0.0
H1877 H 0.79943 0.99434 0.13501 0.0
C1878 C 0.82079 0.06405 0.13061 0.0
C1879 C 0.85084 0.10102 0.12555 0.0
C1880 C 0.8897 0.96503 0.12197 0.0
C1881 C 0.85611 0.01709 0.12641 0.0
C1882 C 0.88825 0.92092 0.12211 0.0
C1883 C 0.85489 0.88355 0.12681 0.0
C1884 C 0.85755 0.97168 0.12658 0.0
C1885 C 0.824 0.89188 0.13142 0.0
C1886 C 0.82336 0.02234 0.13108 0.0
C1887 C 0.88377 0.09504 0.12106 0.0
N1888 N 0.82601 0.93491 0.13117 0.0
N1889 N 0.8854 0.05368 0.12156 0.0
H1890 H 0.16669 0.04043 0.11852 0.0
H1891 H 0.01225 0.77089 0.13384 0.0
H1892 H 0.22217 0.96898 0.13271 0.0
H1893 H 0.95728 0.83022 0.11697 0.0
H1894 H 0.08744 0.84606 0.13408 0.0
H1895 H 0.08839 0.96673 0.11836 0.0
C1896 C 0.16235 0.0092 0.12159 0.0
C1897 C 0.20089 0.01066 0.12563 0.0
C1898 C 0.05906 0.84297 0.13033 0.0
C1899 C 0.11166 0.92662 0.1255 0.0
C1900 C 0.01597 0.79996 0.13019 0.0
C1901 C 0.97839 0.79431 0.12538 0.0
C1902 C 0.06506 0.88105 0.1256 0.0
C1903 C 0.98521 0.8333 0.12082 0.0
C1904 C 0.11772 0.96722 0.12149 0.0
C1905 C 0.19344 0.96936 0.12952 0.0
N1906 N 0.02788 0.87513 0.12102 0.0
N1907 N 0.14976 0.92915 0.12937 0.0
H1908 H 0.80309 0.77295 0.63495 0.0
H1909 H 0.9175 0.04042 0.61865 0.0
H1910 H 0.91038 0.82784 0.61693 0.0
H1911 H 0.80151 0.97657 0.63514 0.0
H1912 H 0.92098 0.96612 0.61858 0.0
H1913 H 0.80776 0.85034 0.63577 0.0
C1914 C 0.82792 0.80154 0.63118 0.0
C1915 C 0.85643 0.79405 0.62587 0.0
C1916 C 0.89493 0.96848 0.62223 0.0
C1917 C 0.86185 0.88315 0.62674 0.0
C1918 C 0.89296 0.01082 0.62229 0.0
C1919 C 0.85902 0.01441 0.62689 0.0
C1920 C 0.86279 0.92966 0.62684 0.0
C1921 C 0.82812 0.9752 0.63149 0.0
C1922 C 0.83058 0.84581 0.63165 0.0
C1923 C 0.88815 0.83239 0.62116 0.0
N1924 N 0.83068 0.93449 0.63133 0.0
N1925 N 0.88986 0.87538 0.62167 0.0
H1926 H 0.25163 0.11921 0.61618 0.0
H1927 H 0.10169 0.85864 0.6354 0.0
H1928 H 0.30492 0.06434 0.63409 0.0
H1929 H 0.04134 0.91178 0.6184 0.0
H1930 H 0.17559 0.93572 0.63522 0.0
H1931 H 0.17324 0.04574 0.61712 0.0
C1932 C 0.24661 0.09205 0.62038 0.0
C1933 C 0.28462 0.09787 0.6251 0.0
C1934 C 0.14622 0.93078 0.63154 0.0
C1935 C 0.19582 0.01374 0.62611 0.0
C1936 C 0.104 0.88671 0.63165 0.0
C1937 C 0.06552 0.87887 0.6269 0.0
C1938 C 0.15022 0.96736 0.6266 0.0
C1939 C 0.07035 0.91647 0.62215 0.0
C1940 C 0.20205 0.05003 0.62088 0.0
C1941 C 0.27661 0.06121 0.63032 0.0
N1942 N 0.11206 0.95909 0.62209 0.0
N1943 N 0.23328 0.0208 0.63067 0.0
H1944 H 0.16682 0.16218 0.61809 0.0
H1945 H 0.01374 0.27524 0.6349 0.0
H1946 H 0.21899 0.27702 0.63483 0.0
H1947 H 0.96117 0.16886 0.61671 0.0
H1948 H 0.08654 0.27068 0.6356 0.0
H1949 H 0.08902 0.15858 0.61812 0.0
C1950 C 0.16176 0.18645 0.6218 0.0
C1951 C 0.19932 0.22011 0.62644 0.0
C1952 C 0.05914 0.24803 0.63147 0.0
C1953 C 0.11077 0.21619 0.62651 0.0
C1954 C 0.01748 0.25063 0.63107 0.0
C1955 C 0.98139 0.22232 0.62575 0.0
C1956 C 0.06516 0.21704 0.62648 0.0
C1957 C 0.98799 0.1909 0.62096 0.0
C1958 C 0.11744 0.1844 0.6218 0.0
C1959 C 0.19101 0.25065 0.63114 0.0
N1960 N 0.02931 0.18925 0.62141 0.0
N1961 N 0.14773 0.24802 0.63104 0.0
H1962 H 0.50081 0.24894 0.2244 0.0
H1963 H 0.65089 0.13854 0.20521 0.0
H1964 H 0.44819 0.14219 0.20628 0.0
H1965 H 0.71115 0.25206 0.2222 0.0
H1966 H 0.57707 0.14189 0.20535 0.0
H1967 H 0.57913 0.25373 0.22351 0.0
C1968 C 0.50597 0.2271 0.22017 0.0
C1969 C 0.46817 0.19534 0.21538 0.0
C1970 C 0.60641 0.1663 0.20903 0.0
C1971 C 0.55688 0.19983 0.21442 0.0
C1972 C 0.64858 0.16435 0.20895 0.0
C1973 C 0.687 0.19495 0.21372 0.0
C1974 C 0.60242 0.19894 0.21396 0.0
C1975 C 0.68219 0.22778 0.21844 0.0
C1976 C 0.55049 0.22955 0.2197 0.0
C1977 C 0.47635 0.16704 0.2101 0.0
N1978 N 0.64052 0.22877 0.21848 0.0
N1979 N 0.51962 0.16985 0.20979 0.0
H1980 H 0.83559 0.50406 0.22264 0.0
H1981 H 0.94984 0.35111 0.20625 0.0
H1982 H 0.95055 0.55592 0.20596 0.0
H1983 H 0.84151 0.29796 0.2241 0.0
H1984 H 0.94527 0.42391 0.20546 0.0
H1985 H 0.83203 0.42624 0.22268 0.0
C1986 C 0.85989 0.49893 0.21896 0.0
C1987 C 0.89357 0.53641 0.21431 0.0
C1988 C 0.9222 0.39638 0.20953 0.0
C1989 C 0.88973 0.44784 0.21432 0.0
C1990 C 0.92481 0.35473 0.20999 0.0
C1991 C 0.89596 0.31848 0.21525 0.0
C1992 C 0.89066 0.40225 0.21441 0.0
C1993 C 0.864 0.32492 0.21991 0.0
C1994 C 0.85787 0.4546 0.21899 0.0
C1995 C 0.92416 0.52801 0.20965 0.0
N1996 N 0.86235 0.36624 0.21942 0.0
N1997 N 0.92158 0.48472 0.20979 0.0
H1998 H 0.58513 0.37648 0.2228 0.0
H1999 H 0.73941 0.64332 0.20629 0.0
H2000 H 0.53354 0.44077 0.20626 0.0
H2001 H 0.79131 0.58867 0.22446 0.0
H2002 H 0.66649 0.56614 0.20553 0.0
H2003 H 0.66314 0.45049 0.22286 0.0
C2004 C 0.59035 0.40613 0.21916 0.0
C2005 C 0.5529 0.40273 0.21454 0.0
C2006 C 0.69375 0.57067 0.20967 0.0
C2007 C 0.64169 0.48713 0.21457 0.0
C2008 C 0.73549 0.61482 0.21011 0.0
C2009 C 0.77143 0.62234 0.21545 0.0
C2010 C 0.68746 0.53346 0.21464 0.0
C2011 C 0.7646 0.58411 0.22021 0.0
C2012 C 0.63479 0.44829 0.2192 0.0
C2013 C 0.56142 0.44198 0.20992 0.0
N2014 N 0.72318 0.54123 0.21973 0.0
N2015 N 0.60482 0.48249 0.21007 0.0
H2016 H 0.59216 0.39508 0.04348 0.0
H2017 H 0.42064 0.12004 0.05526 0.0
H2018 H 0.45985 0.34343 0.05604 0.0
H2019 H 0.54422 0.16799 0.04052 0.0
H2020 H 0.43672 0.20246 0.05614 0.0
H2021 H 0.57797 0.31303 0.04289 0.0
C2022 C 0.56021 0.36645 0.04613 0.0
C2023 C 0.52707 0.37591 0.0498 0.0
C2024 C 0.46042 0.19506 0.05271 0.0
C2025 C 0.51055 0.28216 0.04917 0.0
C2026 C 0.45116 0.14801 0.0522 0.0
C2027 C 0.48128 0.13736 0.04784 0.0
C2028 C 0.50011 0.23178 0.04882 0.0
C2029 C 0.5205 0.17488 0.04402 0.0
C2030 C 0.55207 0.31965 0.04578 0.0
C2031 C 0.48626 0.33762 0.05314 0.0
N2032 N 0.52881 0.22045 0.0446 0.0
N2033 N 0.47916 0.29248 0.05275 0.0
H2034 H 0.9143 0.42729 0.03984 0.0
H2035 H 0.72534 0.1807 0.06016 0.0
H2036 H 0.95423 0.35174 0.05613 0.0
H2037 H 0.68797 0.25038 0.04232 0.0
H2038 H 0.80837 0.24591 0.05952 0.0
H2039 H 0.8305 0.36547 0.04131 0.0
C2040 C 0.90529 0.39768 0.04375 0.0
C2041 C 0.94105 0.39455 0.04788 0.0
C2042 C 0.78201 0.24712 0.05578 0.0
C2043 C 0.8453 0.32344 0.04958 0.0
C2044 C 0.73458 0.21003 0.05617 0.0
C2045 C 0.69987 0.21022 0.05128 0.0
C2046 C 0.79478 0.28468 0.05046 0.0
C2047 C 0.71371 0.24892 0.04619 0.0
C2048 C 0.85749 0.36231 0.04458 0.0
C2049 C 0.92765 0.3552 0.0528 0.0
N2050 N 0.76013 0.28452 0.04589 0.0
N2051 N 0.88078 0.32116 0.05353 0.0
H2052 H 0.86583 0.54699 0.06089 0.0
H2053 H 0.70995 0.61714 0.03439 0.0
H2054 H 0.8618 0.5278 0.03597 0.0
H2055 H 0.66142 0.55049 0.05688 0.0
H2056 H 0.77545 0.59879 0.03502 0.0
H2057 H 0.79925 0.56283 0.05979 0.0
C2058 C 0.8507 0.54592 0.0552 0.0
C2059 C 0.86877 0.53581 0.04852 0.0
C2060 C 0.75016 0.58818 0.03978 0.0
C2061 C 0.79413 0.55497 0.0472 0.0
C2062 C 0.71314 0.59875 0.03943 0.0
C2063 C 0.68043 0.58523 0.04558 0.0
C2064 C 0.75474 0.56517 0.0464 0.0
C2065 C 0.68577 0.56136 0.052 0.0
C2066 C 0.81291 0.55493 0.05458 0.0
C2067 C 0.84835 0.53507 0.04126 0.0
N2068 N 0.72252 0.55252 0.05228 0.0
N2069 N 0.81226 0.54505 0.04077 0.0
H2070 H 0.39472 0.59022 0.46393 0.0
H2071 H 0.11998 0.42111 0.45179 0.0
H2072 H 0.34307 0.45982 0.45077 0.0
H2073 H 0.16751 0.54085 0.46742 0.0
H2074 H 0.2024 0.43752 0.45074 0.0
H2075 H 0.31276 0.57609 0.46462 0.0
C2076 C 0.36612 0.55874 0.46116 0.0
C2077 C 0.37554 0.52608 0.4573 0.0
C2078 C 0.19491 0.46032 0.45439 0.0
C2079 C 0.28188 0.50962 0.45805 0.0
C2080 C 0.14786 0.45086 0.455 0.0
C2081 C 0.13711 0.47986 0.45967 0.0
C2082 C 0.23153 0.49907 0.45849 0.0
C2083 C 0.17451 0.51812 0.46367 0.0
C2084 C 0.31937 0.55061 0.46157 0.0
C2085 C 0.33728 0.48585 0.45382 0.0
N2086 N 0.22009 0.52665 0.463 0.0
N2087 N 0.29218 0.47875 0.45428 0.0
H2088 H 0.54948 0.65793 0.45037 0.0
H2089 H 0.52928 0.86102 0.4725 0.0
H2090 H 0.6165 0.70762 0.47282 0.0
H2091 H 0.54715 0.8635 0.44757 0.0
H2092 H 0.54554 0.79457 0.47337 0.0
H2093 H 0.53233 0.72321 0.44992 0.0
C2094 C 0.5604 0.6825 0.45524 0.0
C2095 C 0.58459 0.67763 0.46164 0.0
C2096 C 0.54578 0.80973 0.46773 0.0
C2097 C 0.56453 0.75193 0.46118 0.0
C2098 C 0.53618 0.84719 0.46721 0.0
C2099 C 0.53686 0.86739 0.45994 0.0
C2100 C 0.55493 0.79188 0.4609 0.0
C2101 C 0.54633 0.84871 0.45327 0.0
C2102 C 0.55078 0.71982 0.45494 0.0
C2103 C 0.59802 0.71052 0.46777 0.0
N2104 N 0.55467 0.81161 0.4539 0.0
N2105 N 0.58747 0.74637 0.46742 0.0
H2106 H 0.43278 0.91447 0.46869 0.0
H2107 H 0.24622 0.68011 0.46697 0.0
H2108 H 0.34928 0.94868 0.45319 0.0
H2109 H 0.19005 0.7264 0.44823 0.0
H2110 H 0.3116 0.76118 0.46848 0.0
H2111 H 0.37465 0.83047 0.46745 0.0
C2112 C 0.40185 0.90402 0.46503 0.0
C2113 C 0.39598 0.93842 0.461 0.0
C2114 C 0.28606 0.75417 0.46389 0.0
C2115 C 0.32687 0.84147 0.4598 0.0
C2116 C 0.24833 0.70745 0.46306 0.0
C2117 C 0.21288 0.69657 0.45746 0.0
C2118 C 0.28872 0.7905 0.459 0.0
C2119 C 0.2169 0.73337 0.45261 0.0
C2120 C 0.3679 0.85572 0.4644 0.0
C2121 C 0.3549 0.92316 0.45643 0.0
N2122 N 0.25405 0.77875 0.45352 0.0
N2123 N 0.32187 0.87574 0.45596 0.0
H2124 H 0.61298 0.73035 0.94973 0.0
H2125 H 0.53407 0.90986 0.9676 0.0
H2126 H 0.49839 0.6871 0.9663 0.0
H2127 H 0.65445 0.95433 0.95222 0.0
H2128 H 0.5185 0.82755 0.96687 0.0
H2129 H 0.62693 0.81206 0.95023 0.0
C2130 C 0.59071 0.73812 0.95347 0.0
C2131 C 0.55455 0.70207 0.958 0.0
C2132 C 0.54832 0.85525 0.96365 0.0
C2133 C 0.57025 0.79545 0.9586 0.0
C2134 C 0.55707 0.90216 0.96404 0.0
C2135 C 0.59547 0.93874 0.95994 0.0
C2136 C 0.57823 0.84488 0.95912 0.0
C2137 C 0.62459 0.92709 0.9555 0.0
C2138 C 0.5987 0.78477 0.95376 0.0
C2139 C 0.52671 0.71397 0.96273 0.0
N2140 N 0.61534 0.88115 0.95519 0.0
N2141 N 0.53513 0.75968 0.96292 0.0
H2142 H 0.16267 0.64964 0.96787 0.0
H2143 H 0.35231 0.895 0.94736 0.0
H2144 H 0.12437 0.72091 0.95047 0.0
H2145 H 0.3889 0.82654 0.96551 0.0
H2146 H 0.26954 0.82927 0.94784 0.0
H2147 H 0.24637 0.71212 0.96663 0.0
C2148 C 0.17205 0.67844 0.96376 0.0
C2149 C 0.13683 0.68014 0.95923 0.0
C2150 C 0.29567 0.82844 0.95169 0.0
C2151 C 0.23236 0.75203 0.95782 0.0
C2152 C 0.34293 0.86583 0.95139 0.0
C2153 C 0.37731 0.86611 0.95642 0.0
C2154 C 0.28274 0.79109 0.95705 0.0
C2155 C 0.36338 0.82761 0.96155 0.0
C2156 C 0.21977 0.71418 0.96307 0.0
C2157 C 0.15057 0.71855 0.95409 0.0
N2158 N 0.31708 0.79172 0.96176 0.0
N2159 N 0.19735 0.75301 0.95351 0.0
H2160 H 0.25848 0.60954 0.95895 0.0
H2161 H 0.34917 0.42814 0.9693 0.0
H2162 H 0.16416 0.45673 0.95848 0.0
H2163 H 0.43536 0.55606 0.9559 0.0
H2164 H 0.28251 0.44434 0.96858 0.0
H2165 H 0.32659 0.59645 0.96087 0.0
C2166 C 0.25227 0.57335 0.95924 0.0
C2167 C 0.20608 0.5341 0.95847 0.0
C2168 C 0.31635 0.46902 0.96589 0.0
C2169 C 0.2827 0.51905 0.96092 0.0
C2170 C 0.35427 0.45995 0.96632 0.0
C2171 C 0.39776 0.49102 0.96269 0.0
C2172 C 0.3226 0.50983 0.96193 0.0
C2173 C 0.40262 0.53163 0.95887 0.0
C2174 C 0.29088 0.56594 0.96035 0.0
C2175 C 0.19949 0.48785 0.95895 0.0
N2176 N 0.36549 0.54 0.9586 0.0
N2177 N 0.23743 0.48152 0.96021 0.0
H2178 H 0.73162 0.59714 0.55947 0.0
H2179 H 0.91481 0.52537 0.54095 0.0
H2180 H 0.69049 0.48311 0.54282 0.0
H2181 H 0.95867 0.64947 0.55545 0.0
H2182 H 0.83159 0.50559 0.54237 0.0
H2183 H 0.81392 0.61271 0.55897 0.0
C2184 C 0.7399 0.57511 0.55576 0.0
C2185 C 0.70436 0.53888 0.55116 0.0
C2186 C 0.85933 0.53716 0.54524 0.0
C2187 C 0.79839 0.55665 0.55051 0.0
C2188 C 0.90681 0.54839 0.54445 0.0
C2189 C 0.94352 0.58915 0.54807 0.0
C2190 C 0.84845 0.56688 0.54972 0.0
C2191 C 0.93135 0.61792 0.55251 0.0
C2192 C 0.78689 0.58413 0.55545 0.0
C2193 C 0.71692 0.51144 0.54645 0.0
N2194 N 0.8848 0.60623 0.55321 0.0
N2195 N 0.76296 0.52098 0.54622 0.0
H2196 H 0.59551 0.24626 0.54356 0.0
H2197 H 0.43164 0.35448 0.55717 0.0
H2198 H 0.48323 0.17887 0.56063 0.0
H2199 H 0.54694 0.42339 0.54066 0.0
H2200 H 0.45142 0.29099 0.55887 0.0
H2201 H 0.58074 0.31345 0.5429 0.0
C2202 C 0.56802 0.24589 0.54722 0.0
C2203 C 0.5404 0.20703 0.55214 0.0
C2204 C 0.47251 0.32005 0.55489 0.0
C2205 C 0.52289 0.28338 0.55136 0.0
C2206 C 0.46106 0.35609 0.55389 0.0
C2207 C 0.48777 0.39404 0.54877 0.0
C2208 C 0.51076 0.32194 0.55069 0.0
C2209 C 0.5258 0.39487 0.54472 0.0
C2210 C 0.55949 0.28415 0.54683 0.0
C2211 C 0.50526 0.20821 0.55676 0.0
N2212 N 0.53609 0.35926 0.54575 0.0
N2213 N 0.49727 0.24566 0.55622 0.0
H2214 H 0.8793 0.3624 0.53767 0.0
H2215 H 0.64257 0.16268 0.55478 0.0
H2216 H 0.8553 0.37136 0.56217 0.0
H2217 H 0.73668 0.12041 0.5442 0.0
H2218 H 0.70877 0.2452 0.55545 0.0
H2219 H 0.81495 0.27843 0.5377 0.0
C2220 C 0.86007 0.34676 0.54302 0.0
C2221 C 0.87224 0.37351 0.54993 0.0
C2222 C 0.71473 0.2177 0.553 0.0
C2223 C 0.79884 0.27863 0.54994 0.0
C2224 C 0.677 0.17077 0.55255 0.0
C2225 C 0.68421 0.13489 0.54938 0.0
C2226 C 0.7594 0.22888 0.55001 0.0
C2227 C 0.72989 0.14725 0.54669 0.0
C2228 C 0.82387 0.29901 0.54304 0.0
C2229 C 0.84676 0.35167 0.55674 0.0
N2230 N 0.7658 0.1936 0.54693 0.0
N2231 N 0.81058 0.30542 0.55657 0.0
H2232 H 0.13954 0.46507 0.3683 0.0
H2233 H 0.20989 0.69182 0.39451 0.0
H2234 H 0.20607 0.48345 0.39082 0.0
H2235 H 0.22951 0.7063 0.3696 0.0
H2236 H 0.19442 0.60948 0.39353 0.0
H2237 H 0.15855 0.54916 0.36882 0.0
C2238 C 0.15805 0.48678 0.37333 0.0
C2239 C 0.17131 0.4676 0.37952 0.0
C2240 C 0.20238 0.63089 0.38829 0.0
C2241 C 0.19215 0.56223 0.38021 0.0
C2242 C 0.21117 0.67764 0.38885 0.0
C2243 C 0.22123 0.70557 0.38214 0.0
C2244 C 0.2025 0.61188 0.38094 0.0
C2245 C 0.22226 0.68575 0.37492 0.0
C2246 C 0.16901 0.53449 0.37361 0.0
C2247 C 0.19537 0.49694 0.38591 0.0
N2248 N 0.21245 0.63972 0.37448 0.0
N2249 N 0.20459 0.54269 0.38613 0.0
H2250 H 0.58736 0.74901 0.37328 0.0
H2251 H 0.41118 0.48947 0.39107 0.0
H2252 H 0.63347 0.67389 0.38855 0.0
H2253 H 0.36231 0.56785 0.37714 0.0
H2254 H 0.49278 0.5569 0.39021 0.0
H2255 H 0.50476 0.6835 0.37459 0.0
C2256 C 0.57996 0.71883 0.37696 0.0
C2257 C 0.61709 0.7169 0.38085 0.0
C2258 C 0.46428 0.55953 0.38736 0.0
C2259 C 0.52295 0.64151 0.38231 0.0
C2260 C 0.41768 0.52103 0.38785 0.0
C2261 C 0.38006 0.52316 0.38416 0.0
C2262 C 0.47345 0.60048 0.38311 0.0
C2263 C 0.3904 0.56485 0.38007 0.0
C2264 C 0.53288 0.68135 0.37768 0.0
C2265 C 0.60583 0.67662 0.38542 0.0
N2266 N 0.43618 0.60185 0.37963 0.0
N2267 N 0.55978 0.64052 0.38602 0.0
H2268 H 0.40304 0.97657 0.3895 0.0
H2269 H 0.50443 0.80749 0.37528 0.0
H2270 H 0.32918 0.85985 0.37336 0.0
H2271 H 0.57481 0.91896 0.39242 0.0
H2272 H 0.43874 0.8247 0.37476 0.0
H2273 H 0.46603 0.95569 0.39078 0.0
C2274 C 0.40024 0.94664 0.38621 0.0
C2275 C 0.36097 0.91981 0.38132 0.0
C2276 C 0.46838 0.84524 0.37868 0.0
C2277 C 0.43252 0.89551 0.38277 0.0
C2278 C 0.50579 0.83531 0.37898 0.0
C2279 C 0.54502 0.86191 0.38389 0.0
C2280 C 0.4704 0.88224 0.38328 0.0
C2281 C 0.54513 0.89761 0.38856 0.0
C2282 C 0.436 0.93455 0.38697 0.0
C2283 C 0.35871 0.88112 0.37724 0.0
N2284 N 0.50854 0.90694 0.38811 0.0
N2285 N 0.39403 0.87019 0.37804 0.0
H2286 H 0.02346 0.8242 0.78053 0.0
H2287 H 0.83586 0.88102 0.80148 0.0
H2288 H 0.06209 0.93028 0.79857 0.0
H2289 H 0.79584 0.76778 0.78473 0.0
H2290 H 0.91974 0.90349 0.79984 0.0
H2291 H 0.94087 0.80745 0.78121 0.0
C2292 C 0.01457 0.8443 0.78458 0.0
C2293 C 0.04944 0.87854 0.78952 0.0
C2294 C 0.89269 0.87377 0.79651 0.0
C2295 C 0.95509 0.85933 0.79039 0.0
C2296 C 0.84488 0.86108 0.79743 0.0
C2297 C 0.80912 0.82262 0.79323 0.0
C2298 C 0.90476 0.84775 0.79134 0.0
C2299 C 0.82245 0.79747 0.78812 0.0
C2300 C 0.96741 0.8346 0.78499 0.0
C2301 C 0.03614 0.90353 0.79467 0.0
N2302 N 0.86926 0.81049 0.78732 0.0
N2303 N 0.98992 0.89327 0.795 0.0
H2304 H 0.2048 0.98982 0.80043 0.0
H2305 H 0.28581 0.24988 0.78312 0.0
H2306 H 0.32487 0.06596 0.78501 0.0
H2307 H 0.16039 0.17103 0.79738 0.0
H2308 H 0.30047 0.1827 0.78376 0.0
H2309 H 0.18767 0.05544 0.79944 0.0
C2310 C 0.22733 0.02027 0.79679 0.0
C2311 C 0.26605 0.02244 0.79275 0.0
C2312 C 0.26966 0.17991 0.78674 0.0
C2313 C 0.24721 0.09793 0.79166 0.0
C2314 C 0.26126 0.21826 0.78637 0.0
C2315 C 0.22187 0.21591 0.79021 0.0
C2316 C 0.23851 0.13888 0.79101 0.0
C2317 C 0.19118 0.17418 0.79434 0.0
C2318 C 0.2177 0.05781 0.79625 0.0
C2319 C 0.29474 0.06303 0.78824 0.0
N2320 N 0.20022 0.1373 0.79465 0.0
N2321 N 0.28475 0.09919 0.78781 0.0
H2322 H 0.04029 0.27486 0.80631 0.0
H2323 H 0.87865 0.04836 0.78027 0.0
H2324 H 0.08463 0.25623 0.7835 0.0
H2325 H 0.88809 0.03372 0.80509 0.0
H2326 H 0.94549 0.13082 0.78113 0.0
H2327 H 0.97438 0.19115 0.80585 0.0
C2328 C 0.03607 0.25319 0.80123 0.0
C2329 C 0.06775 0.27217 0.79495 0.0
C2330 C 0.93293 0.10937 0.78637 0.0
C2331 C 0.99294 0.17795 0.79432 0.0
C2332 C 0.89499 0.06255 0.78588 0.0
C2333 C 0.87838 0.03449 0.79261 0.0
C2334 C 0.95333 0.12835 0.79366 0.0
C2335 C 0.90038 0.05434 0.79977 0.0
C2336 C 0.99883 0.20569 0.80098 0.0
C2337 C 0.0611 0.24287 0.78848 0.0
N2338 N 0.93657 0.10042 0.80013 0.0
N2339 N 0.02413 0.19733 0.7883 0.0
H2340 H 0.14996 0.0233 0.29784 0.0
H2341 H 0.32765 0.29685 0.28639 0.0
H2342 H 0.26831 0.06879 0.28197 0.0
H2343 H 0.19966 0.25118 0.29992 0.0
H2344 H 0.30596 0.21319 0.28466 0.0
H2345 H 0.16619 0.10598 0.29854 0.0
C2346 C 0.17906 0.05066 0.29444 0.0
C2347 C 0.20795 0.03936 0.28986 0.0
C2348 C 0.28249 0.22134 0.288 0.0
C2349 C 0.2271 0.13391 0.29069 0.0
C2350 C 0.29501 0.26911 0.28901 0.0
C2351 C 0.2655 0.28078 0.29334 0.0
C2352 C 0.24029 0.18496 0.29139 0.0
C2353 C 0.22337 0.24355 0.29655 0.0
C2354 C 0.18838 0.09782 0.29485 0.0
C2355 C 0.24522 0.07605 0.28558 0.0
N2356 N 0.2121 0.19726 0.29555 0.0
N2357 N 0.25394 0.12171 0.28615 0.0
H2358 H 0.06454 0.16742 0.28621 0.0
H2359 H 0.80489 0.05767 0.30557 0.0
H2360 H 0.03158 0.23593 0.30483 0.0
H2361 H 0.83982 0.98971 0.28711 0.0
H2362 H 0.8891 0.12103 0.30606 0.0
H2363 H 0.98341 0.09879 0.28714 0.0
C2364 C 0.04027 0.16775 0.29053 0.0
C2365 C 0.0544 0.20728 0.29541 0.0
C2366 C 0.87832 0.092 0.30195 0.0
C2367 C 0.9618 0.12949 0.2965 0.0
C2368 C 0.83035 0.05598 0.30167 0.0
C2369 C 0.81556 0.0186 0.29629 0.0
C2370 C 0.91137 0.09045 0.29679 0.0
C2371 C 0.84979 0.01784 0.29137 0.0
C2372 C 0.994 0.12871 0.29106 0.0
C2373 C 0.02182 0.2061 0.30093 0.0
N2374 N 0.89602 0.05332 0.29171 0.0
N2375 N 0.97688 0.16794 0.30129 0.0
H2376 H 0.0229 0.7642 0.28412 0.0
H2377 H 0.91454 0.9274 0.29833 0.0
H2378 H 0.09458 0.88123 0.30028 0.0
H2379 H 0.84066 0.80628 0.28299 0.0
H2380 H 0.98217 0.91299 0.29881 0.0
H2381 H 0.95664 0.78045 0.28336 0.0
C2382 C 0.02459 0.79331 0.28751 0.0
C2383 C 0.06421 0.82158 0.29224 0.0
C2384 C 0.9512 0.88959 0.29533 0.0
C2385 C 0.98879 0.84054 0.2914 0.0
C2386 C 0.91268 0.89786 0.29505 0.0
C2387 C 0.87207 0.86791 0.29063 0.0
C2388 C 0.949 0.8511 0.29114 0.0
C2389 C 0.87136 0.83016 0.28648 0.0
C2390 C 0.98688 0.80268 0.28706 0.0
C2391 C 0.06487 0.859 0.29649 0.0
N2392 N 0.90921 0.82279 0.28684 0.0
N2393 N 0.0277 0.8674 0.29598 0.0
H2394 H 0.4021 0.91911 0.89315 0.0
H2395 H 0.5885 0.85356 0.87413 0.0
H2396 H 0.36391 0.80983 0.8757 0.0
H2397 H 0.62896 0.96921 0.89041 0.0
H2398 H 0.50518 0.83385 0.87522 0.0
H2399 H 0.48434 0.93448 0.89292 0.0
C2400 C 0.41102 0.89809 0.88932 0.0
C2401 C 0.37636 0.86326 0.88442 0.0
C2402 C 0.53217 0.8635 0.87857 0.0
C2403 C 0.47029 0.88082 0.88407 0.0
C2404 C 0.57967 0.87459 0.87798 0.0
C2405 C 0.6154 0.91285 0.88222 0.0
C2406 C 0.52034 0.89097 0.88345 0.0
C2407 C 0.60235 0.93956 0.88701 0.0
C2408 C 0.45797 0.90698 0.88916 0.0
C2409 C 0.38968 0.83706 0.87955 0.0
N2410 N 0.5558 0.92809 0.88751 0.0
N2411 N 0.43567 0.8465 0.87948 0.0
H2412 H 0.22072 0.75016 0.87326 0.0
H2413 H 0.15635 0.50006 0.89301 0.0
H2414 H 0.1053 0.67612 0.88959 0.0
H2415 H 0.26607 0.57051 0.87562 0.0
H2416 H 0.14075 0.56683 0.89256 0.0
H2417 H 0.24111 0.6871 0.87467 0.0
C2418 C 0.19986 0.72066 0.87718 0.0
C2419 C 0.16143 0.71826 0.88133 0.0
C2420 C 0.16842 0.56785 0.88887 0.0
C2421 C 0.18414 0.64574 0.88294 0.0
C2422 C 0.17745 0.52986 0.88915 0.0
C2423 C 0.21243 0.52984 0.88432 0.0
C2424 C 0.19459 0.60606 0.88373 0.0
C2425 C 0.23871 0.56918 0.87942 0.0
C2426 C 0.21136 0.68458 0.87796 0.0
C2427 C 0.13504 0.67902 0.88625 0.0
N2428 N 0.22911 0.60564 0.87922 0.0
N2429 N 0.14689 0.64424 0.88692 0.0
H2430 H 0.3256 0.48847 0.87327 0.0
H2431 H 0.57274 0.67047 0.89418 0.0
H2432 H 0.39773 0.44425 0.88953 0.0
H2433 H 0.504 0.71327 0.87699 0.0
H2434 H 0.50602 0.58826 0.89331 0.0
H2435 H 0.38798 0.57175 0.87519 0.0
C2436 C 0.35452 0.49645 0.87728 0.0
C2437 C 0.3566 0.45968 0.88127 0.0
C2438 C 0.50534 0.61565 0.88976 0.0
C2439 C 0.42833 0.55466 0.88346 0.0
C2440 C 0.5433 0.66258 0.89028 0.0
C2441 C 0.54382 0.69851 0.88563 0.0
C2442 C 0.4677 0.60465 0.88454 0.0
C2443 C 0.50493 0.68649 0.88067 0.0
C2444 C 0.39021 0.54392 0.87836 0.0
C2445 C 0.39512 0.47167 0.88631 0.0
N2446 N 0.46853 0.6405 0.88023 0.0
N2447 N 0.42952 0.5182 0.88726 0.0
H2448 H 0.88187 0.83194 0.70687 0.0
H2449 H 0.82067 0.01858 0.72708 0.0
H2450 H 0.76876 0.79117 0.72364 0.0
H2451 H 0.92862 0.05724 0.7094 0.0
H2452 H 0.8047 0.93608 0.7266 0.0
H2453 H 0.90266 0.91546 0.70831 0.0
C2454 C 0.86163 0.84075 0.71089 0.0
C2455 C 0.82378 0.80487 0.71517 0.0
C2456 C 0.83207 0.96263 0.72285 0.0
C2457 C 0.84687 0.90018 0.7168 0.0
C2458 C 0.84131 0.00972 0.72315 0.0
C2459 C 0.87589 0.04458 0.71826 0.0
C2460 C 0.85761 0.95038 0.71761 0.0
C2461 C 0.90159 0.03133 0.71326 0.0
C2462 C 0.87334 0.88836 0.71169 0.0
C2463 C 0.79806 0.8179 0.7202 0.0
N2464 N 0.89178 0.98521 0.71304 0.0
N2465 N 0.8101 0.86458 0.72089 0.0
H2466 H 0.02199 0.91727 0.70971 0.0
H2467 H 0.29345 0.02179 0.72351 0.0
H2468 H 0.06603 0.84675 0.72635 0.0
H2469 H 0.24884 0.09272 0.70706 0.0
H2470 H 0.20994 0.95867 0.72502 0.0
H2471 H 0.10427 0.98406 0.70918 0.0
C2472 C 0.04898 0.91612 0.7133 0.0
C2473 C 0.03741 0.87652 0.71806 0.0
C2474 C 0.21834 0.9881 0.7211 0.0
C2475 C 0.13157 0.95237 0.71744 0.0
C2476 C 0.26598 0.02394 0.72021 0.0
C2477 C 0.2778 0.06237 0.71516 0.0
C2478 C 0.18239 0.99068 0.71687 0.0
C2479 C 0.24101 0.06385 0.71107 0.0
C2480 C 0.09594 0.95414 0.71299 0.0
C2481 C 0.07359 0.87668 0.7226 0.0
N2482 N 0.19495 0.02844 0.712 0.0
N2483 N 0.11913 0.9139 0.72215 0.0
H2484 H 0.23772 0.26407 0.72643 0.0
H2485 H 0.98725 0.19934 0.7068 0.0
H2486 H 0.16654 0.15339 0.70919 0.0
H2487 H 0.06195 0.31548 0.72301 0.0
H2488 H 0.05022 0.17884 0.7082 0.0
H2489 H 0.17116 0.27994 0.72596 0.0
C2490 C 0.20781 0.24282 0.7226 0.0
C2491 C 0.20757 0.20748 0.71783 0.0
C2492 C 0.05291 0.20878 0.71147 0.0
C2493 C 0.13154 0.22563 0.7172 0.0
C2494 C 0.01687 0.22033 0.71069 0.0
C2495 C 0.01946 0.25899 0.71482 0.0
C2496 C 0.09192 0.23618 0.71641 0.0
C2497 C 0.05888 0.28557 0.71969 0.0
C2498 C 0.16993 0.252 0.72231 0.0
C2499 C 0.16808 0.18102 0.71296 0.0
N2500 N 0.09361 0.27365 0.72036 0.0
N2501 N 0.13173 0.19077 0.71274 0.0
H2502 H 0.69421 0.20384 0.11317 0.0
H2503 H 0.46991 0.13621 0.13984 0.0
H2504 H 0.71071 0.22508 0.13804 0.0
H2505 H 0.48678 0.20163 0.11726 0.0
H2506 H 0.55365 0.15438 0.13913 0.0
H2507 H 0.61201 0.18855 0.1143 0.0
C2508 C 0.6805 0.2055 0.11885 0.0
C2509 C 0.70898 0.216 0.12551 0.0
C2510 C 0.53872 0.16477 0.13437 0.0
C2511 C 0.61544 0.19745 0.12688 0.0
C2512 C 0.4912 0.15429 0.13476 0.0
C2513 C 0.47171 0.16753 0.12862 0.0
C2514 C 0.56594 0.18739 0.12771 0.0
C2515 C 0.50054 0.19101 0.12215 0.0
C2516 C 0.63383 0.1968 0.1195 0.0
C2517 C 0.68975 0.2175 0.13276 0.0
N2518 N 0.54608 0.19976 0.12183 0.0
N2519 N 0.6438 0.20778 0.13328 0.0
H2520 H 0.9799 0.39681 0.11789 0.0
H2521 H 0.81181 0.49953 0.13197 0.0
H2522 H 0.86374 0.32412 0.13414 0.0
H2523 H 0.923 0.56907 0.11479 0.0
H2524 H 0.82871 0.43364 0.13254 0.0
H2525 H 0.95916 0.45989 0.11651 0.0
C2526 C 0.95013 0.39429 0.12118 0.0
C2527 C 0.9234 0.35533 0.12613 0.0
C2528 C 0.84925 0.46314 0.12861 0.0
C2529 C 0.89927 0.42694 0.12457 0.0
C2530 C 0.83949 0.50065 0.12827 0.0
C2531 C 0.86612 0.53972 0.12333 0.0
C2532 C 0.88612 0.46488 0.12401 0.0
C2533 C 0.90165 0.53953 0.11867 0.0
C2534 C 0.93812 0.43009 0.12037 0.0
C2535 C 0.88491 0.3534 0.13021 0.0
N2536 N 0.91082 0.50283 0.11915 0.0
N2537 N 0.87406 0.38874 0.12935 0.0
H2538 H 0.75511 0.58426 0.13405 0.0
H2539 H 0.49133 0.40881 0.11782 0.0
H2540 H 0.67874 0.63024 0.11904 0.0
H2541 H 0.57329 0.3593 0.13059 0.0
H2542 H 0.55919 0.49032 0.1184 0.0
H2543 H 0.68874 0.5019 0.13307 0.0
C2544 C 0.72447 0.57687 0.1305 0.0
C2545 C 0.72246 0.61389 0.12657 0.0
C2546 C 0.56249 0.4617 0.12107 0.0
C2547 C 0.64606 0.52002 0.12551 0.0
C2548 C 0.52374 0.41516 0.12074 0.0
C2549 C 0.52679 0.37738 0.12417 0.0
C2550 C 0.6046 0.47064 0.1249 0.0
C2551 C 0.56956 0.38751 0.12787 0.0
C2552 C 0.6865 0.52992 0.12997 0.0
C2553 C 0.68157 0.60266 0.12218 0.0
N2554 N 0.60679 0.43324 0.12816 0.0
N2555 N 0.64496 0.55673 0.12177 0.0
H2556 H 0.92926 0.39646 0.61415 0.0
H2557 H 0.8652 0.5817 0.6341 0.0
H2558 H 0.81952 0.35678 0.63154 0.0
H2559 H 0.97912 0.6232 0.61746 0.0
H2560 H 0.84497 0.49834 0.63268 0.0
H2561 H 0.9447 0.47876 0.61461 0.0
C2562 C 0.90813 0.40506 0.61801 0.0
C2563 C 0.87319 0.36998 0.62284 0.0
C2564 C 0.87435 0.52556 0.62932 0.0
C2565 C 0.89085 0.46394 0.62345 0.0
C2566 C 0.88574 0.57309 0.63011 0.0
C2567 C 0.92366 0.60911 0.62586 0.0
C2568 C 0.90121 0.51401 0.62425 0.0
C2569 C 0.94975 0.59635 0.62087 0.0
C2570 C 0.91706 0.45204 0.6183 0.0
C2571 C 0.84684 0.38289 0.62774 0.0
N2572 N 0.93803 0.54976 0.6202 0.0
N2573 N 0.85636 0.42891 0.62795 0.0
H2574 H 0.72455 0.4963 0.63137 0.0
H2575 H 0.45387 0.39139 0.61711 0.0
H2576 H 0.68105 0.56732 0.61473 0.0
H2577 H 0.49807 0.31939 0.63342 0.0
H2578 H 0.53731 0.45506 0.61581 0.0
H2579 H 0.64239 0.42919 0.63172 0.0
C2580 C 0.69771 0.4975 0.62774 0.0
C2581 C 0.70937 0.53732 0.62303 0.0
C2582 C 0.52883 0.42528 0.61965 0.0
C2583 C 0.61538 0.46111 0.62345 0.0
C2584 C 0.48123 0.38913 0.62042 0.0
C2585 C 0.46934 0.35025 0.62537 0.0
C2586 C 0.56463 0.42256 0.6239 0.0
C2587 C 0.50598 0.34863 0.62948 0.0
C2588 C 0.65082 0.4593 0.62795 0.0
C2589 C 0.6734 0.53722 0.61844 0.0
N2590 N 0.552 0.38435 0.62868 0.0
N2591 N 0.62793 0.49982 0.6188 0.0
H2592 H 0.76058 0.21437 0.63394 0.0
H2593 H 0.51107 0.14917 0.61389 0.0
H2594 H 0.68745 0.09878 0.61757 0.0
H2595 H 0.58108 0.25963 0.63121 0.0
H2596 H 0.5778 0.13358 0.61447 0.0
H2597 H 0.69744 0.23451 0.63242 0.0
C2598 C 0.73126 0.19342 0.62999 0.0
C2599 C 0.72916 0.15502 0.62585 0.0
C2600 C 0.57873 0.16141 0.61812 0.0
C2601 C 0.65651 0.17743 0.62413 0.0
C2602 C 0.54076 0.17043 0.61776 0.0
C2603 C 0.54063 0.20563 0.62253 0.0
C2604 C 0.61682 0.1878 0.62328 0.0
C2605 C 0.57984 0.23211 0.62745 0.0
C2606 C 0.69513 0.20477 0.62915 0.0
C2607 C 0.69013 0.12849 0.6209 0.0
N2608 N 0.61627 0.22252 0.62772 0.0
N2609 N 0.65528 0.14021 0.62018 0.0
H2610 H 0.02705 0.15193 0.20982 0.0
H2611 H 0.29799 0.31809 0.22391 0.0
H2612 H 0.07057 0.26589 0.22655 0.0
H2613 H 0.25376 0.20275 0.20744 0.0
H2614 H 0.21446 0.29778 0.22535 0.0
H2615 H 0.10925 0.16721 0.20939 0.0
C2616 C 0.0539 0.17988 0.21345 0.0
C2617 C 0.04222 0.20783 0.21821 0.0
C2618 C 0.22296 0.27679 0.22144 0.0
C2619 C 0.13631 0.2259 0.2177 0.0
C2620 C 0.2706 0.28854 0.22059 0.0
C2621 C 0.28253 0.26196 0.21556 0.0
C2622 C 0.18712 0.23835 0.21718 0.0
C2623 C 0.24584 0.22377 0.21144 0.0
C2624 C 0.10083 0.18871 0.2132 0.0
C2625 C 0.07822 0.2436 0.2228 0.0
N2626 N 0.19977 0.21317 0.21232 0.0
N2627 N 0.12374 0.25182 0.2224 0.0
H2628 H 0.88697 0.09749 0.20681 0.0
H2629 H 0.82346 0.84847 0.22686 0.0
H2630 H 0.77252 0.02469 0.22335 0.0
H2631 H 0.93287 0.91841 0.20941 0.0
H2632 H 0.80763 0.91508 0.22633 0.0
H2633 H 0.90727 0.03443 0.20826 0.0
C2634 C 0.86631 0.06826 0.21078 0.0
C2635 C 0.82822 0.06625 0.21499 0.0
C2636 C 0.83528 0.91603 0.22265 0.0
C2637 C 0.85078 0.99366 0.21664 0.0
C2638 C 0.84444 0.87813 0.22297 0.0
C2639 C 0.87941 0.87802 0.21815 0.0
C2640 C 0.8613 0.95404 0.21747 0.0
C2641 C 0.90553 0.91716 0.21321 0.0
C2642 C 0.87775 0.03217 0.21159 0.0
C2643 C 0.80201 0.02729 0.21996 0.0
N2644 N 0.89581 0.95353 0.21297 0.0
N2645 N 0.8138 0.99247 0.22066 0.0
H2646 H 0.99173 0.83447 0.20698 0.0
H2647 H 0.24248 0.0195 0.22659 0.0
H2648 H 0.06593 0.79267 0.22324 0.0
H2649 H 0.17167 0.05939 0.20933 0.0
H2650 H 0.17578 0.93715 0.22611 0.0
H2651 H 0.0551 0.9178 0.20833 0.0
C2652 C 0.02134 0.84299 0.21087 0.0
C2653 C 0.02367 0.80687 0.21503 0.0
C2654 C 0.17466 0.96392 0.22245 0.0
C2655 C 0.09655 0.90197 0.21657 0.0
C2656 C 0.21263 0.01093 0.22275 0.0
C2657 C 0.21251 0.04612 0.21798 0.0
C2658 C 0.13633 0.95206 0.21734 0.0
C2659 C 0.1731 0.03322 0.2131 0.0
C2660 C 0.05759 0.89051 0.21162 0.0
C2661 C 0.06306 0.81957 0.2199 0.0
N2662 N 0.13666 0.98717 0.21288 0.0
N2663 N 0.09801 0.86614 0.22054 0.0
loop_
_geom_bond_atom_site_label_1
_geom_bond_atom_site_label_2
_geom_bond_distance
_geom_bond_site_symmetry_2
_ccdc_geom_bond_type
Tb0 O3 2.453 1_545 S
Tb0 O4 2.596 1_545 S
Tb0 O5 2.374 . S
Tb0 O13 2.343 . S
Tb0 O15 2.353 . S
Tb0 O17 2.427 . S
Tb0 O18 2.513 . S
C1 O5 1.251 . S
C1 O7 1.263 . S
Tb2 O4 2.343 1_545 S
Tb2 O7 2.353 . S
Tb2 O10 2.427 1_545 S
Tb2 O11 2.513 1_545 S
Tb2 O12 2.453 . S
Tb2 O13 2.596 . S
Tb2 O14 2.374 . S
O3 Tb0 2.453 1_565 S
O3 C19 1.245 . S
O4 Tb0 2.596 1_565 S
O4 Tb2 2.343 1_565 S
O4 C19 1.259 . S
O5 Tb0 2.374 . S
O5 C1 1.251 . S
C6 O10 1.275 . S
C6 O11 1.246 . S
O7 C1 1.263 . S
O7 Tb2 2.353 . S
C8 O12 1.245 . S
C8 O13 1.259 . S
C9 O14 1.250 . S
C9 O15 1.263 . S
O10 Tb2 2.427 1_565 S
O10 C6 1.275 . S
O11 Tb2 2.513 1_565 S
O11 C6 1.246 . S
O12 Tb2 2.453 . S
O12 C8 1.245 . S
O13 Tb0 2.343 . S
O13 Tb2 2.596 . S
O13 C8 1.259 . S
O14 Tb2 2.374 . S
O14 C9 1.250 . S
O15 Tb0 2.353 . S
O15 C9 1.263 . S
C16 O17 1.275 . S
C16 O18 1.246 . S
O17 Tb0 2.427 . S
O17 C16 1.275 . S
O18 Tb0 2.513 . S
O18 C16 1.246 . S
C19 O3 1.245 . S
C19 O4 1.259 . S
Tb20 O23 2.453 1_655 S
Tb20 O24 2.596 1_655 S
Tb20 O25 2.374 1_655 S
Tb20 O33 2.343 . S
Tb20 O35 2.349 1_655 S
Tb20 O37 2.427 . S
Tb20 O38 2.513 . S
C21 O25 1.251 . S
C21 O27 1.263 . S
Tb22 O24 2.343 . S
Tb22 O27 2.353 . S
Tb22 O30 2.427 . S
Tb22 O31 2.513 . S
Tb22 O32 2.453 1_455 S
Tb22 O33 2.596 1_455 S
Tb22 O34 2.374 . S
O23 Tb20 2.453 1_455 S
O23 C39 1.245 . S
O24 Tb20 2.596 1_455 S
O24 Tb22 2.343 . S
O24 C39 1.259 . S
O25 Tb20 2.374 1_455 S
O25 C21 1.251 . S
C26 O30 1.275 . S
C26 O31 1.246 . S
O27 C21 1.263 . S
O27 Tb22 2.353 . S
C28 O32 1.245 . S
C28 O33 1.259 . S
C29 O34 1.250 . S
C29 O35 1.269 . S
O30 Tb22 2.427 . S
O30 C26 1.275 . S
O31 Tb22 2.513 . S
O31 C26 1.246 . S
O32 Tb22 2.453 1_655 S
O32 C28 1.245 . S
O33 Tb20 2.343 . S
O33 Tb22 2.596 1_655 S
O33 C28 1.259 . S
O34 Tb22 2.374 . S
O34 C29 1.250 . S
O35 Tb20 2.349 1_455 S
O35 C29 1.269 . S
C36 O37 1.275 . S
C36 O38 1.246 . S
O37 Tb20 2.427 . S
O37 C36 1.275 . S
O38 Tb20 2.513 . S
O38 C36 1.246 . S
C39 O23 1.245 . S
C39 O24 1.259 . S
Tb40 O43 2.453 . S
Tb40 O44 2.596 . S
Tb40 O45 2.374 . S
Tb40 O53 2.343 . S
Tb40 O55 2.353 . S
Tb40 O57 2.427 . S
Tb40 O58 2.513 . S
C41 O45 1.251 . S
C41 O47 1.263 . S
Tb42 O44 2.343 . S
Tb42 O47 2.353 . S
Tb42 O50 2.427 . S
Tb42 O51 2.513 . S
Tb42 O52 2.453 . S
Tb42 O53 2.596 . S
Tb42 O54 2.374 . S
O43 Tb40 2.453 . S
O43 C59 1.245 . S
O44 Tb40 2.596 . S
O44 Tb42 2.343 . S
O44 C59 1.259 . S
O45 Tb40 2.374 . S
O45 C41 1.251 . S
C46 O50 1.275 . S
C46 O51 1.246 . S
O47 C41 1.263 . S
O47 Tb42 2.353 . S
C48 O52 1.245 . S
C48 O53 1.259 . S
C49 O54 1.250 . S
C49 O55 1.263 . S
O50 Tb42 2.427 . S
O50 C46 1.275 . S
O51 Tb42 2.513 . S
O51 C46 1.246 . S
O52 Tb42 2.453 . S
O52 C48 1.245 . S
O53 Tb40 2.343 . S
O53 Tb42 2.596 . S
O53 C48 1.259 . S
O54 Tb42 2.374 . S
O54 C49 1.250 . S
O55 Tb40 2.353 . S
O55 C49 1.263 . S
C56 O57 1.275 . S
C56 O58 1.246 . S
O57 Tb40 2.427 . S
O57 C56 1.275 . S
O58 Tb40 2.513 . S
O58 C56 1.246 . S
C59 O43 1.245 . S
C59 O44 1.259 . S
Tb60 O63 2.453 1_455 S
Tb60 O64 2.596 1_455 S
Tb60 O65 2.374 . S
Tb60 O73 2.343 . S
Tb60 O75 2.353 . S
Tb60 O77 2.427 . S
Tb60 O78 2.513 . S
C61 O65 1.251 . S
C61 O67 1.263 . S
Tb62 O64 2.343 1_455 S
Tb62 O67 2.353 . S
Tb62 O70 2.427 1_455 S
Tb62 O71 2.513 1_455 S
Tb62 O72 2.453 . S
Tb62 O73 2.596 . S
Tb62 O74 2.374 . S
O63 Tb60 2.453 1_655 S
O63 C79 1.245 . S
O64 Tb60 2.596 1_655 S
O64 Tb62 2.343 1_655 S
O64 C79 1.259 . S
O65 Tb60 2.374 . S
O65 C61 1.251 . S
C66 O70 1.275 . S
C66 O71 1.246 . S
O67 C61 1.263 . S
O67 Tb62 2.353 . S
C68 O72 1.245 . S
C68 O73 1.259 . S
C69 O74 1.250 . S
C69 O75 1.263 . S
O70 Tb62 2.427 1_655 S
O70 C66 1.275 . S
O71 Tb62 2.513 1_655 S
O71 C66 1.246 . S
O72 Tb62 2.453 . S
O72 C68 1.245 . S
O73 Tb60 2.343 . S
O73 Tb62 2.596 . S
O73 C68 1.259 . S
O74 Tb62 2.374 . S
O74 C69 1.250 . S
O75 Tb60 2.353 . S
O75 C69 1.263 . S
C76 O77 1.275 . S
C76 O78 1.246 . S
O77 Tb60 2.427 . S
O77 C76 1.275 . S
O78 Tb60 2.513 . S
O78 C76 1.246 . S
C79 O63 1.245 . S
C79 O64 1.259 . S
Tb80 O83 2.453 . S
Tb80 O84 2.596 . S
Tb80 O85 2.374 . S
Tb80 O93 2.343 . S
Tb80 O95 2.353 . S
Tb80 O97 2.427 . S
Tb80 O98 2.513 . S
C81 O85 1.251 . S
C81 O87 1.263 . S
Tb82 O84 2.343 . S
Tb82 O87 2.353 . S
Tb82 O90 2.427 . S
Tb82 O91 2.513 . S
Tb82 O92 2.453 . S
Tb82 O93 2.596 . S
Tb82 O94 2.374 . S
O83 Tb80 2.453 . S
O83 C99 1.245 . S
O84 Tb80 2.596 . S
O84 Tb82 2.343 . S
O84 C99 1.259 . S
O85 Tb80 2.374 . S
O85 C81 1.251 . S
C86 O90 1.275 . S
C86 O91 1.246 . S
O87 C81 1.263 . S
O87 Tb82 2.353 . S
C88 O92 1.245 . S
C88 O93 1.259 . S
C89 O94 1.250 . S
C89 O95 1.263 . S
O90 Tb82 2.427 . S
O90 C86 1.275 . S
O91 Tb82 2.513 . S
O91 C86 1.246 . S
O92 Tb82 2.453 . S
O92 C88 1.245 . S
O93 Tb80 2.343 . S
O93 Tb82 2.596 . S
O93 C88 1.259 . S
O94 Tb82 2.374 . S
O94 C89 1.250 . S
O95 Tb80 2.353 . S
O95 C89 1.263 . S
C96 O97 1.275 . S
C96 O98 1.246 . S
O97 Tb80 2.427 . S
O97 C96 1.275 . S
O98 Tb80 2.513 . S
O98 C96 1.246 . S
C99 O83 1.245 . S
C99 O84 1.259 . S
Tb100 O103 2.453 1_565 S
Tb100 O104 2.596 1_565 S
Tb100 O105 2.374 1_565 S
Tb100 O113 2.343 . S
Tb100 O115 2.350 1_565 S
Tb100 O117 2.427 . S
Tb100 O118 2.513 . S
C101 O105 1.251 . S
C101 O107 1.263 . S
Tb102 O104 2.343 . S
Tb102 O107 2.353 . S
Tb102 O110 2.427 . S
Tb102 O111 2.513 . S
Tb102 O112 2.453 1_545 S
Tb102 O113 2.596 1_545 S
Tb102 O114 2.374 . S
O103 Tb100 2.453 1_545 S
O103 C119 1.245 . S
O104 Tb100 2.596 1_545 S
O104 Tb102 2.343 . S
O104 C119 1.259 . S
O105 Tb100 2.374 1_545 S
O105 C101 1.251 . S
C106 O110 1.275 . S
C106 O111 1.246 . S
O107 C101 1.263 . S
O107 Tb102 2.353 . S
C108 O112 1.245 . S
C108 O113 1.259 . S
C109 O114 1.250 . S
C109 O115 1.269 . S
O110 Tb102 2.427 . S
O110 C106 1.275 . S
O111 Tb102 2.513 . S
O111 C106 1.246 . S
O112 Tb102 2.453 1_565 S
O112 C108 1.245 . S
O113 Tb100 2.343 . S
O113 Tb102 2.596 1_565 S
O113 C108 1.259 . S
O114 Tb102 2.374 . S
O114 C109 1.250 . S
O115 Tb100 2.350 1_545 S
O115 C109 1.269 . S
C116 O117 1.275 . S
C116 O118 1.246 . S
O117 Tb100 2.427 . S
O117 C116 1.275 . S
O118 Tb100 2.513 . S
O118 C116 1.246 . S
C119 O103 1.245 . S
C119 O104 1.259 . S
Tb120 O123 2.453 1_545 S
Tb120 O124 2.596 1_545 S
Tb120 O125 2.374 . S
Tb120 O133 2.343 . S
Tb120 O135 2.353 . S
Tb120 O137 2.427 . S
Tb120 O138 2.513 . S
C121 O125 1.251 . S
C121 O127 1.258 . S
Tb122 O124 2.343 . S
Tb122 O127 2.355 1_565 S
Tb122 O130 2.427 . S
Tb122 O131 2.513 . S
Tb122 O132 2.453 1_565 S
Tb122 O133 2.596 1_565 S
Tb122 O134 2.374 1_565 S
O123 Tb120 2.453 1_565 S
O123 C139 1.245 . S
O124 Tb120 2.596 1_565 S
O124 Tb122 2.343 . S
O124 C139 1.259 . S
O125 Tb120 2.374 . S
O125 C121 1.251 . S
C126 O130 1.275 . S
C126 O131 1.246 . S
O127 C121 1.258 . S
O127 Tb122 2.355 1_545 S
C128 O132 1.245 . S
C128 O133 1.259 . S
C129 O134 1.250 . S
C129 O135 1.263 . S
O130 Tb122 2.427 . S
O130 C126 1.275 . S
O131 Tb122 2.513 . S
O131 C126 1.246 . S
O132 Tb122 2.453 1_545 S
O132 C128 1.245 . S
O133 Tb120 2.343 . S
O133 Tb122 2.596 1_545 S
O133 C128 1.259 . S
O134 Tb122 2.374 1_545 S
O134 C129 1.250 . S
O135 Tb120 2.353 . S
O135 C129 1.263 . S
C136 O137 1.275 . S
C136 O138 1.246 . S
O137 Tb120 2.427 . S
O137 C136 1.275 . S
O138 Tb120 2.513 . S
O138 C136 1.246 . S
C139 O123 1.245 . S
C139 O124 1.259 . S
Tb140 O143 2.453 . S
Tb140 O144 2.596 . S
Tb140 O145 2.374 . S
Tb140 O153 2.343 1_455 S
Tb140 O155 2.353 . S
Tb140 O157 2.427 1_455 S
Tb140 O158 2.513 1_455 S
C141 O145 1.251 . S
C141 O147 1.263 . S
Tb142 O144 2.343 . S
Tb142 O147 2.353 . S
Tb142 O150 2.427 . S
Tb142 O151 2.513 . S
Tb142 O152 2.453 1_455 S
Tb142 O153 2.596 1_455 S
Tb142 O154 2.374 . S
O143 Tb140 2.453 . S
O143 C159 1.245 . S
O144 Tb140 2.596 . S
O144 Tb142 2.343 . S
O144 C159 1.259 . S
O145 Tb140 2.374 . S
O145 C141 1.251 . S
C146 O150 1.275 . S
C146 O151 1.246 . S
O147 C141 1.263 . S
O147 Tb142 2.353 . S
C148 O152 1.245 . S
C148 O153 1.259 . S
C149 O154 1.250 . S
C149 O155 1.263 . S
O150 Tb142 2.427 . S
O150 C146 1.275 . S
O151 Tb142 2.513 . S
O151 C146 1.246 . S
O152 Tb142 2.453 1_655 S
O152 C148 1.245 . S
O153 Tb140 2.343 1_655 S
O153 Tb142 2.596 1_655 S
O153 C148 1.259 . S
O154 Tb142 2.374 . S
O154 C149 1.250 . S
O155 Tb140 2.353 . S
O155 C149 1.263 . S
C156 O157 1.275 . S
C156 O158 1.246 . S
O157 Tb140 2.427 1_655 S
O157 C156 1.275 . S
O158 Tb140 2.513 1_655 S
O158 C156 1.246 . S
C159 O143 1.245 . S
C159 O144 1.259 . S
Tb160 O163 2.453 . S
Tb160 O164 2.596 . S
Tb160 O165 2.374 . S
Tb160 O173 2.343 . S
Tb160 O175 2.353 . S
Tb160 O177 2.427 . S
Tb160 O178 2.513 . S
C161 O165 1.251 . S
C161 O167 1.263 . S
Tb162 O164 2.343 . S
Tb162 O167 2.353 . S
Tb162 O170 2.427 . S
Tb162 O171 2.513 . S
Tb162 O172 2.453 . S
Tb162 O173 2.596 . S
Tb162 O174 2.374 . S
O163 Tb160 2.453 . S
O163 C179 1.245 . S
O164 Tb160 2.596 . S
O164 Tb162 2.343 . S
O164 C179 1.259 . S
O165 Tb160 2.374 . S
O165 C161 1.251 . S
C166 O170 1.275 . S
C166 O171 1.246 . S
O167 C161 1.263 . S
O167 Tb162 2.353 . S
C168 O172 1.245 . S
C168 O173 1.259 . S
C169 O174 1.250 . S
C169 O175 1.263 . S
O170 Tb162 2.427 . S
O170 C166 1.275 . S
O171 Tb162 2.513 . S
O171 C166 1.246 . S
O172 Tb162 2.453 . S
O172 C168 1.245 . S
O173 Tb160 2.343 . S
O173 Tb162 2.596 . S
O173 C168 1.259 . S
O174 Tb162 2.374 . S
O174 C169 1.250 . S
O175 Tb160 2.353 . S
O175 C169 1.263 . S
C176 O177 1.275 . S
C176 O178 1.246 . S
O177 Tb160 2.427 . S
O177 C176 1.275 . S
O178 Tb160 2.513 . S
O178 C176 1.246 . S
C179 O163 1.245 . S
C179 O164 1.259 . S
Tb180 O183 2.453 1_455 S
Tb180 O184 2.596 1_455 S
Tb180 O185 2.374 . S
Tb180 O193 2.343 . S
Tb180 O195 2.353 . S
Tb180 O197 2.427 . S
Tb180 O198 2.513 . S
C181 O185 1.251 . S
C181 O187 1.259 . S
Tb182 O184 2.343 . S
Tb182 O187 2.355 1_655 S
Tb182 O190 2.427 . S
Tb182 O191 2.513 . S
Tb182 O192 2.453 1_655 S
Tb182 O193 2.596 1_655 S
Tb182 O194 2.374 1_655 S
O183 Tb180 2.453 1_655 S
O183 C199 1.245 . S
O184 Tb180 2.596 1_655 S
O184 Tb182 2.343 . S
O184 C199 1.259 . S
O185 Tb180 2.374 . S
O185 C181 1.251 . S
C186 O190 1.275 . S
C186 O191 1.246 . S
O187 C181 1.259 . S
O187 Tb182 2.355 1_455 S
C188 O192 1.245 . S
C188 O193 1.259 . S
C189 O194 1.250 . S
C189 O195 1.263 . S
O190 Tb182 2.427 . S
O190 C186 1.275 . S
O191 Tb182 2.513 . S
O191 C186 1.246 . S
O192 Tb182 2.453 1_455 S
O192 C188 1.245 . S
O193 Tb180 2.343 . S
O193 Tb182 2.596 1_455 S
O193 C188 1.259 . S
O194 Tb182 2.374 1_455 S
O194 C189 1.250 . S
O195 Tb180 2.353 . S
O195 C189 1.263 . S
C196 O197 1.275 . S
C196 O198 1.246 . S
O197 Tb180 2.427 . S
O197 C196 1.275 . S
O198 Tb180 2.513 . S
O198 C196 1.246 . S
C199 O183 1.245 . S
C199 O184 1.259 . S
Tb200 O203 2.453 . S
Tb200 O204 2.596 . S
Tb200 O205 2.374 . S
Tb200 O213 2.343 . S
Tb200 O215 2.353 . S
Tb200 O217 2.427 . S
Tb200 O218 2.513 . S
C201 O205 1.251 . S
C201 O207 1.263 . S
Tb202 O204 2.343 . S
Tb202 O207 2.353 . S
Tb202 O210 2.427 . S
Tb202 O211 2.513 . S
Tb202 O212 2.453 . S
Tb202 O213 2.596 . S
Tb202 O214 2.374 . S
O203 Tb200 2.453 . S
O203 C219 1.245 . S
O204 Tb200 2.596 . S
O204 Tb202 2.343 . S
O204 C219 1.259 . S
O205 Tb200 2.374 . S
O205 C201 1.251 . S
C206 O210 1.275 . S
C206 O211 1.246 . S
O207 C201 1.263 . S
O207 Tb202 2.353 . S
C208 O212 1.245 . S
C208 O213 1.259 . S
C209 O214 1.250 . S
C209 O215 1.263 . S
O210 Tb202 2.427 . S
O210 C206 1.275 . S
O211 Tb202 2.513 . S
O211 C206 1.246 . S
O212 Tb202 2.453 . S
O212 C208 1.245 . S
O213 Tb200 2.343 . S
O213 Tb202 2.596 . S
O213 C208 1.259 . S
O214 Tb202 2.374 . S
O214 C209 1.250 . S
O215 Tb200 2.353 . S
O215 C209 1.263 . S
C216 O217 1.275 . S
C216 O218 1.246 . S
O217 Tb200 2.427 . S
O217 C216 1.275 . S
O218 Tb200 2.513 . S
O218 C216 1.246 . S
C219 O203 1.245 . S
C219 O204 1.259 . S
Tb220 O223 2.453 . S
Tb220 O224 2.596 . S
Tb220 O225 2.374 . S
Tb220 O233 2.343 1_545 S
Tb220 O235 2.353 . S
Tb220 O237 2.427 1_545 S
Tb220 O238 2.513 1_545 S
C221 O225 1.251 . S
C221 O227 1.263 . S
Tb222 O224 2.343 . S
Tb222 O227 2.353 . S
Tb222 O230 2.427 . S
Tb222 O231 2.513 . S
Tb222 O232 2.453 1_545 S
Tb222 O233 2.596 1_545 S
Tb222 O234 2.374 . S
O223 Tb220 2.453 . S
O223 C239 1.245 . S
O224 Tb220 2.596 . S
O224 Tb222 2.343 . S
O224 C239 1.259 . S
O225 Tb220 2.374 . S
O225 C221 1.251 . S
C226 O230 1.275 . S
C226 O231 1.246 . S
O227 C221 1.263 . S
O227 Tb222 2.353 . S
C228 O232 1.245 . S
C228 O233 1.259 . S
C229 O234 1.250 . S
C229 O235 1.263 . S
O230 Tb222 2.427 . S
O230 C226 1.275 . S
O231 Tb222 2.513 . S
O231 C226 1.246 . S
O232 Tb222 2.453 1_565 S
O232 C228 1.245 . S
O233 Tb220 2.343 1_565 S
O233 Tb222 2.596 1_565 S
O233 C228 1.259 . S
O234 Tb222 2.374 . S
O234 C229 1.250 . S
O235 Tb220 2.353 . S
O235 C229 1.263 . S
C236 O237 1.275 . S
C236 O238 1.246 . S
O237 Tb220 2.427 1_565 S
O237 C236 1.275 . S
O238 Tb220 2.513 1_565 S
O238 C236 1.246 . S
C239 O223 1.245 . S
C239 O224 1.259 . S
Tb240 O243 2.453 . S
Tb240 O244 2.596 . S
Tb240 O245 2.374 . S
Tb240 O253 2.343 . S
Tb240 O255 2.353 . S
Tb240 O257 2.427 . S
Tb240 O258 2.513 . S
C241 O245 1.251 . S
C241 O247 1.263 . S
Tb242 O244 2.343 . S
Tb242 O247 2.353 . S
Tb242 O250 2.427 . S
Tb242 O251 2.513 . S
Tb242 O252 2.453 . S
Tb242 O253 2.596 . S
Tb242 O254 2.374 . S
O243 Tb240 2.453 . S
O243 C259 1.245 . S
O244 Tb240 2.596 . S
O244 Tb242 2.343 . S
O244 C259 1.259 . S
O245 Tb240 2.374 . S
O245 C241 1.251 . S
C246 O250 1.275 . S
C246 O251 1.246 . S
O247 C241 1.263 . S
O247 Tb242 2.353 . S
C248 O252 1.245 . S
C248 O253 1.259 . S
C249 O254 1.250 . S
C249 O255 1.263 . S
O250 Tb242 2.427 . S
O250 C246 1.275 . S
O251 Tb242 2.513 . S
O251 C246 1.246 . S
O252 Tb242 2.453 . S
O252 C248 1.245 . S
O253 Tb240 2.343 . S
O253 Tb242 2.596 . S
O253 C248 1.259 . S
O254 Tb242 2.374 . S
O254 C249 1.250 . S
O255 Tb240 2.353 . S
O255 C249 1.263 . S
C256 O257 1.275 . S
C256 O258 1.246 . S
O257 Tb240 2.427 . S
O257 C256 1.275 . S
O258 Tb240 2.513 . S
O258 C256 1.246 . S
C259 O243 1.245 . S
C259 O244 1.259 . S
Tb260 O263 2.453 . S
Tb260 O264 2.596 . S
Tb260 O265 2.374 . S
Tb260 O273 2.343 . S
Tb260 O275 2.353 . S
Tb260 O277 2.427 . S
Tb260 O278 2.513 . S
C261 O265 1.251 . S
C261 O267 1.263 . S
Tb262 O264 2.343 . S
Tb262 O267 2.353 . S
Tb262 O270 2.427 . S
Tb262 O271 2.513 . S
Tb262 O272 2.453 . S
Tb262 O273 2.596 . S
Tb262 O274 2.374 . S
O263 Tb260 2.453 . S
O263 C279 1.245 . S
O264 Tb260 2.596 . S
O264 Tb262 2.343 . S
O264 C279 1.259 . S
O265 Tb260 2.374 . S
O265 C261 1.251 . S
C266 O270 1.275 . S
C266 O271 1.246 . S
O267 C261 1.263 . S
O267 Tb262 2.353 . S
C268 O272 1.245 . S
C268 O273 1.259 . S
C269 O274 1.250 . S
C269 O275 1.263 . S
O270 Tb262 2.427 . S
O270 C266 1.275 . S
O271 Tb262 2.513 . S
O271 C266 1.246 . S
O272 Tb262 2.453 . S
O272 C268 1.245 . S
O273 Tb260 2.343 . S
O273 Tb262 2.596 . S
O273 C268 1.259 . S
O274 Tb262 2.374 . S
O274 C269 1.250 . S
O275 Tb260 2.353 . S
O275 C269 1.263 . S
C276 O277 1.275 . S
C276 O278 1.246 . S
O277 Tb260 2.427 . S
O277 C276 1.275 . S
O278 Tb260 2.513 . S
O278 C276 1.246 . S
C279 O263 1.245 . S
C279 O264 1.259 . S
Tb280 O283 2.453 . S
Tb280 O284 2.596 . S
Tb280 O285 2.374 . S
Tb280 O293 2.343 . S
Tb280 O295 2.353 . S
Tb280 O297 2.427 . S
Tb280 O298 2.513 . S
C281 O285 1.251 . S
C281 O287 1.263 . S
Tb282 O284 2.343 . S
Tb282 O287 2.353 . S
Tb282 O290 2.427 . S
Tb282 O291 2.513 . S
Tb282 O292 2.453 . S
Tb282 O293 2.596 . S
Tb282 O294 2.374 . S
O283 Tb280 2.453 . S
O283 C299 1.245 . S
O284 Tb280 2.596 . S
O284 Tb282 2.343 . S
O284 C299 1.259 . S
O285 Tb280 2.374 . S
O285 C281 1.251 . S
C286 O290 1.275 1_545 S
C286 O291 1.246 1_545 S
O287 C281 1.263 . S
O287 Tb282 2.353 . S
C288 O292 1.245 . S
C288 O293 1.259 . S
C289 O294 1.250 . S
C289 O295 1.263 . S
O290 Tb282 2.427 . S
O290 C286 1.275 1_565 S
O291 Tb282 2.513 . S
O291 C286 1.246 1_565 S
O292 Tb282 2.453 . S
O292 C288 1.245 . S
O293 Tb280 2.343 . S
O293 Tb282 2.596 . S
O293 C288 1.259 . S
O294 Tb282 2.374 . S
O294 C289 1.250 . S
O295 Tb280 2.353 . S
O295 C289 1.263 . S
C296 O297 1.275 . S
C296 O298 1.246 . S
O297 Tb280 2.427 . S
O297 C296 1.275 . S
O298 Tb280 2.513 . S
O298 C296 1.246 . S
C299 O283 1.245 . S
C299 O284 1.259 . S
Tb300 O303 2.453 . S
Tb300 O304 2.596 . S
Tb300 O305 2.374 . S
Tb300 O313 2.343 . S
Tb300 O315 2.353 . S
Tb300 O317 2.427 . S
Tb300 O318 2.513 . S
C301 O305 1.251 . S
C301 O307 1.263 . S
Tb302 O304 2.343 . S
Tb302 O307 2.353 . S
Tb302 O310 2.427 . S
Tb302 O311 2.513 . S
Tb302 O312 2.453 . S
Tb302 O313 2.596 . S
Tb302 O314 2.374 . S
O303 Tb300 2.453 . S
O303 C319 1.245 . S
O304 Tb300 2.596 . S
O304 Tb302 2.343 . S
O304 C319 1.259 . S
O305 Tb300 2.374 . S
O305 C301 1.251 . S
C306 O310 1.275 . S
C306 O311 1.246 . S
O307 C301 1.263 . S
O307 Tb302 2.353 . S
C308 O312 1.245 . S
C308 O313 1.259 . S
C309 O314 1.250 . S
C309 O315 1.263 . S
O310 Tb302 2.427 . S
O310 C306 1.275 . S
O311 Tb302 2.513 . S
O311 C306 1.246 . S
O312 Tb302 2.453 . S
O312 C308 1.245 . S
O313 Tb300 2.343 . S
O313 Tb302 2.596 . S
O313 C308 1.259 . S
O314 Tb302 2.374 . S
O314 C309 1.250 . S
O315 Tb300 2.353 . S
O315 C309 1.263 . S
C316 O317 1.275 . S
C316 O318 1.246 . S
O317 Tb300 2.427 . S
O317 C316 1.275 . S
O318 Tb300 2.513 . S
O318 C316 1.246 . S
C319 O303 1.245 . S
C319 O304 1.259 . S
Tb320 O323 2.453 . S
Tb320 O324 2.596 . S
Tb320 O325 2.374 . S
Tb320 O333 2.343 . S
Tb320 O335 2.353 . S
Tb320 O337 2.427 . S
Tb320 O338 2.513 . S
C321 O325 1.251 . S
C321 O327 1.263 . S
Tb322 O324 2.343 . S
Tb322 O327 2.353 . S
Tb322 O330 2.427 . S
Tb322 O331 2.513 . S
Tb322 O332 2.453 . S
Tb322 O333 2.596 . S
Tb322 O334 2.374 . S
O323 Tb320 2.453 . S
O323 C339 1.245 . S
O324 Tb320 2.596 . S
O324 Tb322 2.343 . S
O324 C339 1.259 . S
O325 Tb320 2.374 . S
O325 C321 1.251 . S
C326 O330 1.275 . S
C326 O331 1.246 . S
O327 C321 1.263 . S
O327 Tb322 2.353 . S
C328 O332 1.245 . S
C328 O333 1.259 . S
C329 O334 1.250 . S
C329 O335 1.263 . S
O330 Tb322 2.427 . S
O330 C326 1.275 . S
O331 Tb322 2.513 . S
O331 C326 1.246 . S
O332 Tb322 2.453 . S
O332 C328 1.245 . S
O333 Tb320 2.343 . S
O333 Tb322 2.596 . S
O333 C328 1.259 . S
O334 Tb322 2.374 . S
O334 C329 1.250 . S
O335 Tb320 2.353 . S
O335 C329 1.263 . S
C336 O337 1.275 . S
C336 O338 1.246 . S
O337 Tb320 2.427 . S
O337 C336 1.275 . S
O338 Tb320 2.513 . S
O338 C336 1.246 . S
C339 O323 1.245 . S
C339 O324 1.259 . S
Tb340 O343 2.453 . S
Tb340 O344 2.596 . S
Tb340 O345 2.374 . S
Tb340 O353 2.343 . S
Tb340 O355 2.353 . S
Tb340 O357 2.427 . S
Tb340 O358 2.513 . S
C341 O345 1.251 . S
C341 O347 1.263 . S
Tb342 O344 2.343 . S
Tb342 O347 2.353 . S
Tb342 O350 2.427 . S
Tb342 O351 2.513 . S
Tb342 O352 2.453 . S
Tb342 O353 2.596 . S
Tb342 O354 2.374 . S
O343 Tb340 2.453 . S
O343 C359 1.245 . S
O344 Tb340 2.596 . S
O344 Tb342 2.343 . S
O344 C359 1.259 . S
O345 Tb340 2.374 . S
O345 C341 1.251 . S
C346 O350 1.275 . S
C346 O351 1.246 . S
O347 C341 1.263 . S
O347 Tb342 2.353 . S
C348 O352 1.245 . S
C348 O353 1.259 . S
C349 O354 1.250 . S
C349 O355 1.263 . S
O350 Tb342 2.427 . S
O350 C346 1.275 . S
O351 Tb342 2.513 . S
O351 C346 1.246 . S
O352 Tb342 2.453 . S
O352 C348 1.245 . S
O353 Tb340 2.343 . S
O353 Tb342 2.596 . S
O353 C348 1.259 . S
O354 Tb342 2.374 . S
O354 C349 1.250 . S
O355 Tb340 2.353 . S
O355 C349 1.263 . S
C356 O357 1.275 . S
C356 O358 1.246 . S
O357 Tb340 2.427 . S
O357 C356 1.275 . S
O358 Tb340 2.513 . S
O358 C356 1.246 . S
C359 O343 1.245 . S
C359 O344 1.259 . S
Tb360 O363 2.453 . S
Tb360 O364 2.596 . S
Tb360 O365 2.374 . S
Tb360 O373 2.343 . S
Tb360 O375 2.353 . S
Tb360 O377 2.427 . S
Tb360 O378 2.513 . S
C361 O365 1.251 . S
C361 O367 1.263 . S
Tb362 O364 2.343 . S
Tb362 O367 2.353 . S
Tb362 O370 2.427 . S
Tb362 O371 2.513 . S
Tb362 O372 2.453 . S
Tb362 O373 2.596 . S
Tb362 O374 2.374 . S
O363 Tb360 2.453 . S
O363 C379 1.245 . S
O364 Tb360 2.596 . S
O364 Tb362 2.343 . S
O364 C379 1.259 . S
O365 Tb360 2.374 . S
O365 C361 1.251 . S
C366 O370 1.275 . S
C366 O371 1.246 . S
O367 C361 1.263 . S
O367 Tb362 2.353 . S
C368 O372 1.245 . S
C368 O373 1.259 . S
C369 O374 1.250 . S
C369 O375 1.263 . S
O370 Tb362 2.427 . S
O370 C366 1.275 . S
O371 Tb362 2.513 . S
O371 C366 1.246 . S
O372 Tb362 2.453 . S
O372 C368 1.245 . S
O373 Tb360 2.343 . S
O373 Tb362 2.596 . S
O373 C368 1.259 . S
O374 Tb362 2.374 . S
O374 C369 1.250 . S
O375 Tb360 2.353 . S
O375 C369 1.263 . S
C376 O377 1.275 . S
C376 O378 1.246 . S
O377 Tb360 2.427 . S
O377 C376 1.275 . S
O378 Tb360 2.513 . S
O378 C376 1.246 . S
C379 O363 1.245 . S
C379 O364 1.259 . S
Tb380 O383 2.453 . S
Tb380 O384 2.596 . S
Tb380 O385 2.374 . S
Tb380 O393 2.343 . S
Tb380 O395 2.353 . S
Tb380 O397 2.427 . S
Tb380 O398 2.513 . S
C381 O385 1.251 . S
C381 O387 1.263 . S
Tb382 O384 2.343 . S
Tb382 O387 2.353 . S
Tb382 O390 2.427 . S
Tb382 O391 2.513 . S
Tb382 O392 2.453 . S
Tb382 O393 2.596 . S
Tb382 O394 2.374 . S
O383 Tb380 2.453 . S
O383 C399 1.245 . S
O384 Tb380 2.596 . S
O384 Tb382 2.343 . S
O384 C399 1.259 . S
O385 Tb380 2.374 . S
O385 C381 1.251 . S
C386 O390 1.275 . S
C386 O391 1.246 . S
O387 C381 1.263 . S
O387 Tb382 2.353 . S
C388 O392 1.245 . S
C388 O393 1.259 . S
C389 O394 1.250 . S
C389 O395 1.263 . S
O390 Tb382 2.427 . S
O390 C386 1.275 . S
O391 Tb382 2.513 . S
O391 C386 1.246 . S
O392 Tb382 2.453 . S
O392 C388 1.245 . S
O393 Tb380 2.343 . S
O393 Tb382 2.596 . S
O393 C388 1.259 . S
O394 Tb382 2.374 . S
O394 C389 1.250 . S
O395 Tb380 2.353 . S
O395 C389 1.263 . S
C396 O397 1.275 . S
C396 O398 1.246 . S
O397 Tb380 2.427 . S
O397 C396 1.275 . S
O398 Tb380 2.513 . S
O398 C396 1.246 . S
C399 O383 1.245 . S
C399 O384 1.259 . S
Tb400 O403 2.453 . S
Tb400 O404 2.596 . S
Tb400 O405 2.374 . S
Tb400 O413 2.343 . S
Tb400 O415 2.353 . S
Tb400 O417 2.427 . S
Tb400 O418 2.513 . S
C401 O405 1.251 . S
C401 O407 1.263 . S
Tb402 O404 2.343 . S
Tb402 O407 2.353 . S
Tb402 O410 2.427 . S
Tb402 O411 2.513 . S
Tb402 O412 2.453 . S
Tb402 O413 2.596 . S
Tb402 O414 2.374 . S
O403 Tb400 2.453 . S
O403 C419 1.245 . S
O404 Tb400 2.596 . S
O404 Tb402 2.343 . S
O404 C419 1.259 . S
O405 Tb400 2.374 . S
O405 C401 1.251 . S
C406 O410 1.275 . S
C406 O411 1.246 . S
O407 C401 1.263 . S
O407 Tb402 2.353 . S
C408 O412 1.245 . S
C408 O413 1.259 . S
C409 O414 1.250 . S
C409 O415 1.263 . S
O410 Tb402 2.427 . S
O410 C406 1.275 . S
O411 Tb402 2.513 . S
O411 C406 1.246 . S
O412 Tb402 2.453 . S
O412 C408 1.245 . S
O413 Tb400 2.343 . S
O413 Tb402 2.596 . S
O413 C408 1.259 . S
O414 Tb402 2.374 . S
O414 C409 1.250 . S
O415 Tb400 2.353 . S
O415 C409 1.263 . S
C416 O417 1.275 . S
C416 O418 1.246 . S
O417 Tb400 2.427 . S
O417 C416 1.275 . S
O418 Tb400 2.513 . S
O418 C416 1.246 . S
C419 O403 1.245 . S
C419 O404 1.259 . S
Tb420 O423 2.453 . S
Tb420 O424 2.596 . S
Tb420 O425 2.374 . S
Tb420 O433 2.343 . S
Tb420 O435 2.353 . S
Tb420 O437 2.427 . S
Tb420 O438 2.513 . S
C421 O425 1.251 . S
C421 O427 1.263 . S
Tb422 O424 2.343 . S
Tb422 O427 2.353 . S
Tb422 O430 2.427 . S
Tb422 O431 2.513 . S
Tb422 O432 2.453 . S
Tb422 O433 2.596 . S
Tb422 O434 2.374 . S
O423 Tb420 2.453 . S
O423 C439 1.245 . S
O424 Tb420 2.596 . S
O424 Tb422 2.343 . S
O424 C439 1.259 . S
O425 Tb420 2.374 . S
O425 C421 1.251 . S
C426 O430 1.275 . S
C426 O431 1.246 . S
O427 C421 1.263 . S
O427 Tb422 2.353 . S
C428 O432 1.245 . S
C428 O433 1.259 . S
C429 O434 1.250 . S
C429 O435 1.263 . S
O430 Tb422 2.427 . S
O430 C426 1.275 . S
O431 Tb422 2.513 . S
O431 C426 1.246 . S
O432 Tb422 2.453 . S
O432 C428 1.245 . S
O433 Tb420 2.343 . S
O433 Tb422 2.596 . S
O433 C428 1.259 . S
O434 Tb422 2.374 . S
O434 C429 1.250 . S
O435 Tb420 2.353 . S
O435 C429 1.263 . S
C436 O437 1.275 1_545 S
C436 O438 1.246 1_545 S
O437 Tb420 2.427 . S
O437 C436 1.275 1_565 S
O438 Tb420 2.513 . S
O438 C436 1.246 1_565 S
C439 O423 1.245 . S
C439 O424 1.259 . S
Tb440 O443 2.453 . S
Tb440 O444 2.596 . S
Tb440 O445 2.374 . S
Tb440 O453 2.343 . S
Tb440 O455 2.353 . S
Tb440 O457 2.427 . S
Tb440 O458 2.513 . S
C441 O445 1.251 . S
C441 O447 1.263 . S
Tb442 O444 2.343 . S
Tb442 O447 2.353 . S
Tb442 O450 2.427 . S
Tb442 O451 2.513 . S
Tb442 O452 2.453 . S
Tb442 O453 2.596 . S
Tb442 O454 2.374 . S
O443 Tb440 2.453 . S
O443 C459 1.245 . S
O444 Tb440 2.596 . S
O444 Tb442 2.343 . S
O444 C459 1.259 . S
O445 Tb440 2.374 . S
O445 C441 1.251 . S
C446 O450 1.275 . S
C446 O451 1.246 . S
O447 C441 1.263 . S
O447 Tb442 2.353 . S
C448 O452 1.245 . S
C448 O453 1.259 . S
C449 O454 1.250 . S
C449 O455 1.263 . S
O450 Tb442 2.427 . S
O450 C446 1.275 . S
O451 Tb442 2.513 . S
O451 C446 1.246 . S
O452 Tb442 2.453 . S
O452 C448 1.245 . S
O453 Tb440 2.343 . S
O453 Tb442 2.596 . S
O453 C448 1.259 . S
O454 Tb442 2.374 . S
O454 C449 1.250 . S
O455 Tb440 2.353 . S
O455 C449 1.263 . S
C456 O457 1.275 . S
C456 O458 1.246 . S
O457 Tb440 2.427 . S
O457 C456 1.275 . S
O458 Tb440 2.513 . S
O458 C456 1.246 . S
C459 O443 1.245 . S
C459 O444 1.259 . S
Tb460 O463 2.453 . S
Tb460 O464 2.596 . S
Tb460 O465 2.374 . S
Tb460 O473 2.343 . S
Tb460 O475 2.353 . S
Tb460 O477 2.427 . S
Tb460 O478 2.513 . S
C461 O465 1.251 . S
C461 O467 1.263 . S
Tb462 O464 2.343 . S
Tb462 O467 2.353 . S
Tb462 O470 2.427 . S
Tb462 O471 2.513 . S
Tb462 O472 2.453 . S
Tb462 O473 2.596 . S
Tb462 O474 2.374 . S
O463 Tb460 2.453 . S
O463 C479 1.245 . S
O464 Tb460 2.596 . S
O464 Tb462 2.343 . S
O464 C479 1.259 . S
O465 Tb460 2.374 . S
O465 C461 1.251 . S
C466 O470 1.275 . S
C466 O471 1.246 . S
O467 C461 1.263 . S
O467 Tb462 2.353 . S
C468 O472 1.245 . S
C468 O473 1.259 . S
C469 O474 1.250 . S
C469 O475 1.263 . S
O470 Tb462 2.427 . S
O470 C466 1.275 . S
O471 Tb462 2.513 . S
O471 C466 1.246 . S
O472 Tb462 2.453 . S
O472 C468 1.245 . S
O473 Tb460 2.343 . S
O473 Tb462 2.596 . S
O473 C468 1.259 . S
O474 Tb462 2.374 . S
O474 C469 1.250 . S
O475 Tb460 2.353 . S
O475 C469 1.263 . S
C476 O477 1.275 . S
C476 O478 1.246 . S
O477 Tb460 2.427 . S
O477 C476 1.275 . S
O478 Tb460 2.513 . S
O478 C476 1.246 . S
C479 O463 1.245 . S
C479 O464 1.259 . S
Tb480 O483 2.453 . S
Tb480 O484 2.596 . S
Tb480 O485 2.374 . S
Tb480 O493 2.343 . S
Tb480 O495 2.353 . S
Tb480 O497 2.427 . S
Tb480 O498 2.513 . S
C481 O485 1.251 . S
C481 O487 1.263 . S
Tb482 O484 2.343 . S
Tb482 O487 2.353 . S
Tb482 O490 2.427 . S
Tb482 O491 2.513 . S
Tb482 O492 2.453 . S
Tb482 O493 2.596 . S
Tb482 O494 2.374 . S
O483 Tb480 2.453 . S
O483 C499 1.245 . S
O484 Tb480 2.596 . S
O484 Tb482 2.343 . S
O484 C499 1.259 . S
O485 Tb480 2.374 . S
O485 C481 1.251 . S
C486 O490 1.275 . S
C486 O491 1.246 . S
O487 C481 1.263 . S
O487 Tb482 2.353 . S
C488 O492 1.245 . S
C488 O493 1.259 . S
C489 O494 1.250 . S
C489 O495 1.263 . S
O490 Tb482 2.427 . S
O490 C486 1.275 . S
O491 Tb482 2.513 . S
O491 C486 1.246 . S
O492 Tb482 2.453 . S
O492 C488 1.245 . S
O493 Tb480 2.343 . S
O493 Tb482 2.596 . S
O493 C488 1.259 . S
O494 Tb482 2.374 . S
O494 C489 1.250 . S
O495 Tb480 2.353 . S
O495 C489 1.263 . S
C496 O497 1.275 . S
C496 O498 1.246 . S
O497 Tb480 2.427 . S
O497 C496 1.275 . S
O498 Tb480 2.513 . S
O498 C496 1.246 . S
C499 O483 1.245 . S
C499 O484 1.259 . S
Tb500 O503 2.453 . S
Tb500 O504 2.596 . S
Tb500 O505 2.374 . S
Tb500 O513 2.343 . S
Tb500 O515 2.353 . S
Tb500 O517 2.427 . S
Tb500 O518 2.513 . S
C501 O505 1.251 . S
C501 O507 1.263 . S
Tb502 O504 2.343 . S
Tb502 O507 2.353 . S
Tb502 O510 2.427 . S
Tb502 O511 2.513 . S
Tb502 O512 2.453 . S
Tb502 O513 2.596 . S
Tb502 O514 2.374 . S
O503 Tb500 2.453 . S
O503 C519 1.245 . S
O504 Tb500 2.596 . S
O504 Tb502 2.343 . S
O504 C519 1.259 . S
O505 Tb500 2.374 . S
O505 C501 1.251 . S
C506 O510 1.275 . S
C506 O511 1.246 . S
O507 C501 1.263 . S
O507 Tb502 2.353 . S
C508 O512 1.245 . S
C508 O513 1.259 . S
C509 O514 1.250 . S
C509 O515 1.263 . S
O510 Tb502 2.427 . S
O510 C506 1.275 . S
O511 Tb502 2.513 . S
O511 C506 1.246 . S
O512 Tb502 2.453 . S
O512 C508 1.245 . S
O513 Tb500 2.343 . S
O513 Tb502 2.596 . S
O513 C508 1.259 . S
O514 Tb502 2.374 . S
O514 C509 1.250 . S
O515 Tb500 2.353 . S
O515 C509 1.263 . S
C516 O517 1.275 . S
C516 O518 1.246 . S
O517 Tb500 2.427 . S
O517 C516 1.275 . S
O518 Tb500 2.513 . S
O518 C516 1.246 . S
C519 O503 1.245 . S
C519 O504 1.259 . S
Tb520 O523 2.453 . S
Tb520 O524 2.596 . S
Tb520 O525 2.374 . S
Tb520 O533 2.343 . S
Tb520 O535 2.353 . S
Tb520 O537 2.427 . S
Tb520 O538 2.513 . S
C521 O525 1.251 . S
C521 O527 1.263 . S
Tb522 O524 2.343 . S
Tb522 O527 2.353 . S
Tb522 O530 2.427 . S
Tb522 O531 2.513 . S
Tb522 O532 2.453 . S
Tb522 O533 2.596 . S
Tb522 O534 2.374 . S
O523 Tb520 2.453 . S
O523 C539 1.245 . S
O524 Tb520 2.596 . S
O524 Tb522 2.343 . S
O524 C539 1.259 . S
O525 Tb520 2.374 . S
O525 C521 1.251 . S
C526 O530 1.275 . S
C526 O531 1.246 . S
O527 C521 1.263 . S
O527 Tb522 2.353 . S
C528 O532 1.245 . S
C528 O533 1.259 . S
C529 O534 1.250 . S
C529 O535 1.263 . S
O530 Tb522 2.427 . S
O530 C526 1.275 . S
O531 Tb522 2.513 . S
O531 C526 1.246 . S
O532 Tb522 2.453 . S
O532 C528 1.245 . S
O533 Tb520 2.343 . S
O533 Tb522 2.596 . S
O533 C528 1.259 . S
O534 Tb522 2.374 . S
O534 C529 1.250 . S
O535 Tb520 2.353 . S
O535 C529 1.263 . S
C536 O537 1.275 . S
C536 O538 1.246 . S
O537 Tb520 2.427 . S
O537 C536 1.275 . S
O538 Tb520 2.513 . S
O538 C536 1.246 . S
C539 O523 1.245 . S
C539 O524 1.259 . S
Tb540 O543 2.453 . S
Tb540 O544 2.596 . S
Tb540 O545 2.374 . S
Tb540 O553 2.343 . S
Tb540 O555 2.353 . S
Tb540 O557 2.427 . S
Tb540 O558 2.513 . S
C541 O545 1.251 . S
C541 O547 1.263 . S
Tb542 O544 2.343 . S
Tb542 O547 2.353 . S
Tb542 O550 2.427 . S
Tb542 O551 2.513 . S
Tb542 O552 2.453 . S
Tb542 O553 2.596 . S
Tb542 O554 2.374 . S
O543 Tb540 2.453 . S
O543 C559 1.245 . S
O544 Tb540 2.596 . S
O544 Tb542 2.343 . S
O544 C559 1.259 . S
O545 Tb540 2.374 . S
O545 C541 1.251 . S
C546 O550 1.275 . S
C546 O551 1.246 . S
O547 C541 1.263 . S
O547 Tb542 2.353 . S
C548 O552 1.245 . S
C548 O553 1.259 . S
C549 O554 1.250 . S
C549 O555 1.263 . S
O550 Tb542 2.427 . S
O550 C546 1.275 . S
O551 Tb542 2.513 . S
O551 C546 1.246 . S
O552 Tb542 2.453 . S
O552 C548 1.245 . S
O553 Tb540 2.343 . S
O553 Tb542 2.596 . S
O553 C548 1.259 . S
O554 Tb542 2.374 . S
O554 C549 1.250 . S
O555 Tb540 2.353 . S
O555 C549 1.263 . S
C556 O557 1.275 . S
C556 O558 1.246 . S
O557 Tb540 2.427 . S
O557 C556 1.275 . S
O558 Tb540 2.513 . S
O558 C556 1.246 . S
C559 O543 1.245 . S
C559 O544 1.259 . S
Tb560 O563 2.453 . S
Tb560 O564 2.596 . S
Tb560 O565 2.374 . S
Tb560 O573 2.343 . S
Tb560 O575 2.353 . S
Tb560 O577 2.427 . S
Tb560 O578 2.513 . S
C561 O565 1.251 . S
C561 O567 1.263 . S
Tb562 O564 2.343 . S
Tb562 O567 2.353 . S
Tb562 O570 2.427 . S
Tb562 O571 2.513 . S
Tb562 O572 2.453 . S
Tb562 O573 2.596 . S
Tb562 O574 2.374 . S
O563 Tb560 2.453 . S
O563 C579 1.245 . S
O564 Tb560 2.596 . S
O564 Tb562 2.343 . S
O564 C579 1.259 . S
O565 Tb560 2.374 . S
O565 C561 1.251 . S
C566 O570 1.275 1_455 S
C566 O571 1.246 1_455 S
O567 C561 1.263 . S
O567 Tb562 2.353 . S
C568 O572 1.245 . S
C568 O573 1.259 . S
C569 O574 1.250 . S
C569 O575 1.263 . S
O570 Tb562 2.427 . S
O570 C566 1.275 1_655 S
O571 Tb562 2.513 . S
O571 C566 1.246 1_655 S
O572 Tb562 2.453 . S
O572 C568 1.245 . S
O573 Tb560 2.343 . S
O573 Tb562 2.596 . S
O573 C568 1.259 . S
O574 Tb562 2.374 . S
O574 C569 1.250 . S
O575 Tb560 2.353 . S
O575 C569 1.263 . S
C576 O577 1.275 . S
C576 O578 1.246 . S
O577 Tb560 2.427 . S
O577 C576 1.275 . S
O578 Tb560 2.513 . S
O578 C576 1.246 . S
C579 O563 1.245 . S
C579 O564 1.259 . S
Tb580 O583 2.453 . S
Tb580 O584 2.596 . S
Tb580 O585 2.374 . S
Tb580 O593 2.343 . S
Tb580 O595 2.353 . S
Tb580 O597 2.427 . S
Tb580 O598 2.513 . S
C581 O585 1.251 . S
C581 O587 1.263 . S
Tb582 O584 2.343 . S
Tb582 O587 2.353 . S
Tb582 O590 2.427 . S
Tb582 O591 2.513 . S
Tb582 O592 2.453 . S
Tb582 O593 2.596 . S
Tb582 O594 2.374 . S
O583 Tb580 2.453 . S
O583 C599 1.245 . S
O584 Tb580 2.596 . S
O584 Tb582 2.343 . S
O584 C599 1.259 . S
O585 Tb580 2.374 . S
O585 C581 1.251 . S
C586 O590 1.275 . S
C586 O591 1.246 . S
O587 C581 1.263 . S
O587 Tb582 2.353 . S
C588 O592 1.245 . S
C588 O593 1.259 . S
C589 O594 1.250 . S
C589 O595 1.263 . S
O590 Tb582 2.427 . S
O590 C586 1.275 . S
O591 Tb582 2.513 . S
O591 C586 1.246 . S
O592 Tb582 2.453 . S
O592 C588 1.245 . S
O593 Tb580 2.343 . S
O593 Tb582 2.596 . S
O593 C588 1.259 . S
O594 Tb582 2.374 . S
O594 C589 1.250 . S
O595 Tb580 2.353 . S
O595 C589 1.263 . S
C596 O597 1.275 . S
C596 O598 1.246 . S
O597 Tb580 2.427 . S
O597 C596 1.275 . S
O598 Tb580 2.513 . S
O598 C596 1.246 . S
C599 O583 1.245 . S
C599 O584 1.259 . S
Tb600 O603 2.453 . S
Tb600 O604 2.596 . S
Tb600 O605 2.374 . S
Tb600 O613 2.343 . S
Tb600 O615 2.353 . S
Tb600 O617 2.427 . S
Tb600 O618 2.513 . S
C601 O605 1.251 . S
C601 O607 1.263 . S
Tb602 O604 2.343 . S
Tb602 O607 2.353 . S
Tb602 O610 2.427 . S
Tb602 O611 2.513 . S
Tb602 O612 2.453 . S
Tb602 O613 2.596 . S
Tb602 O614 2.374 . S
O603 Tb600 2.453 . S
O603 C619 1.245 . S
O604 Tb600 2.596 . S
O604 Tb602 2.343 . S
O604 C619 1.259 . S
O605 Tb600 2.374 . S
O605 C601 1.251 . S
C606 O610 1.275 . S
C606 O611 1.246 . S
O607 C601 1.263 . S
O607 Tb602 2.353 . S
C608 O612 1.245 . S
C608 O613 1.259 . S
C609 O614 1.250 . S
C609 O615 1.263 . S
O610 Tb602 2.427 . S
O610 C606 1.275 . S
O611 Tb602 2.513 . S
O611 C606 1.246 . S
O612 Tb602 2.453 . S
O612 C608 1.245 . S
O613 Tb600 2.343 . S
O613 Tb602 2.596 . S
O613 C608 1.259 . S
O614 Tb602 2.374 . S
O614 C609 1.250 . S
O615 Tb600 2.353 . S
O615 C609 1.263 . S
C616 O617 1.275 1_455 S
C616 O618 1.246 1_455 S
O617 Tb600 2.427 . S
O617 C616 1.275 1_655 S
O618 Tb600 2.513 . S
O618 C616 1.246 1_655 S
C619 O603 1.245 . S
C619 O604 1.259 . S
Tb620 O623 2.453 . S
Tb620 O624 2.596 . S
Tb620 O625 2.374 . S
Tb620 O633 2.343 . S
Tb620 O635 2.353 . S
Tb620 O637 2.427 . S
Tb620 O638 2.513 . S
C621 O625 1.251 . S
C621 O627 1.263 . S
Tb622 O624 2.343 . S
Tb622 O627 2.353 . S
Tb622 O630 2.427 . S
Tb622 O631 2.513 . S
Tb622 O632 2.453 . S
Tb622 O633 2.596 . S
Tb622 O634 2.374 . S
O623 Tb620 2.453 . S
O623 C639 1.245 . S
O624 Tb620 2.596 . S
O624 Tb622 2.343 . S
O624 C639 1.259 . S
O625 Tb620 2.374 . S
O625 C621 1.251 . S
C626 O630 1.275 . S
C626 O631 1.246 . S
O627 C621 1.263 . S
O627 Tb622 2.353 . S
C628 O632 1.245 . S
C628 O633 1.259 . S
C629 O634 1.250 . S
C629 O635 1.263 . S
O630 Tb622 2.427 . S
O630 C626 1.275 . S
O631 Tb622 2.513 . S
O631 C626 1.246 . S
O632 Tb622 2.453 . S
O632 C628 1.245 . S
O633 Tb620 2.343 . S
O633 Tb622 2.596 . S
O633 C628 1.259 . S
O634 Tb622 2.374 . S
O634 C629 1.250 . S
O635 Tb620 2.353 . S
O635 C629 1.263 . S
C636 O637 1.275 . S
C636 O638 1.246 . S
O637 Tb620 2.427 . S
O637 C636 1.275 . S
O638 Tb620 2.513 . S
O638 C636 1.246 . S
C639 O623 1.245 . S
C639 O624 1.259 . S
Tb640 O643 2.453 . S
Tb640 O644 2.596 . S
Tb640 O645 2.374 . S
Tb640 O653 2.343 . S
Tb640 O655 2.353 . S
Tb640 O657 2.427 . S
Tb640 O658 2.513 . S
C641 O645 1.251 . S
C641 O647 1.263 . S
Tb642 O644 2.343 . S
Tb642 O647 2.353 . S
Tb642 O650 2.427 . S
Tb642 O651 2.513 . S
Tb642 O652 2.453 . S
Tb642 O653 2.596 . S
Tb642 O654 2.374 . S
O643 Tb640 2.453 . S
O643 C659 1.245 . S
O644 Tb640 2.596 . S
O644 Tb642 2.343 . S
O644 C659 1.259 . S
O645 Tb640 2.374 . S
O645 C641 1.251 . S
C646 O650 1.275 . S
C646 O651 1.246 . S
O647 C641 1.263 . S
O647 Tb642 2.353 . S
C648 O652 1.245 . S
C648 O653 1.259 . S
C649 O654 1.250 . S
C649 O655 1.263 . S
O650 Tb642 2.427 . S
O650 C646 1.275 . S
O651 Tb642 2.513 . S
O651 C646 1.246 . S
O652 Tb642 2.453 . S
O652 C648 1.245 . S
O653 Tb640 2.343 . S
O653 Tb642 2.596 . S
O653 C648 1.259 . S
O654 Tb642 2.374 . S
O654 C649 1.250 . S
O655 Tb640 2.353 . S
O655 C649 1.263 . S
C656 O657 1.275 . S
C656 O658 1.246 . S
O657 Tb640 2.427 . S
O657 C656 1.275 . S
O658 Tb640 2.513 . S
O658 C656 1.246 . S
C659 O643 1.245 . S
C659 O644 1.259 . S
Tb660 O663 2.453 . S
Tb660 O664 2.596 . S
Tb660 O665 2.374 . S
Tb660 O673 2.343 . S
Tb660 O675 2.353 . S
Tb660 O677 2.427 . S
Tb660 O678 2.513 . S
C661 O665 1.251 . S
C661 O667 1.263 . S
Tb662 O664 2.343 . S
Tb662 O667 2.353 . S
Tb662 O670 2.427 . S
Tb662 O671 2.513 . S
Tb662 O672 2.453 . S
Tb662 O673 2.596 . S
Tb662 O674 2.374 . S
O663 Tb660 2.453 . S
O663 C679 1.245 . S
O664 Tb660 2.596 . S
O664 Tb662 2.343 . S
O664 C679 1.259 . S
O665 Tb660 2.374 . S
O665 C661 1.251 . S
C666 O670 1.275 . S
C666 O671 1.246 . S
O667 C661 1.263 . S
O667 Tb662 2.353 . S
C668 O672 1.245 . S
C668 O673 1.259 . S
C669 O674 1.250 . S
C669 O675 1.263 . S
O670 Tb662 2.427 . S
O670 C666 1.275 . S
O671 Tb662 2.513 . S
O671 C666 1.246 . S
O672 Tb662 2.453 . S
O672 C668 1.245 . S
O673 Tb660 2.343 . S
O673 Tb662 2.596 . S
O673 C668 1.259 . S
O674 Tb662 2.374 . S
O674 C669 1.250 . S
O675 Tb660 2.353 . S
O675 C669 1.263 . S
C676 O677 1.275 . S
C676 O678 1.246 . S
O677 Tb660 2.427 . S
O677 C676 1.275 . S
O678 Tb660 2.513 . S
O678 C676 1.246 . S
C679 O663 1.245 . S
C679 O664 1.259 . S
Tb680 O683 2.453 . S
Tb680 O684 2.596 . S
Tb680 O685 2.374 . S
Tb680 O693 2.343 . S
Tb680 O695 2.353 . S
Tb680 O697 2.427 . S
Tb680 O698 2.513 . S
C681 O685 1.251 . S
C681 O687 1.263 . S
Tb682 O684 2.343 . S
Tb682 O687 2.353 . S
Tb682 O690 2.427 . S
Tb682 O691 2.513 . S
Tb682 O692 2.453 . S
Tb682 O693 2.596 . S
Tb682 O694 2.374 . S
O683 Tb680 2.453 . S
O683 C699 1.245 . S
O684 Tb680 2.596 . S
O684 Tb682 2.343 . S
O684 C699 1.259 . S
O685 Tb680 2.374 . S
O685 C681 1.251 . S
C686 O690 1.275 . S
C686 O691 1.246 . S
O687 C681 1.263 . S
O687 Tb682 2.353 . S
C688 O692 1.245 . S
C688 O693 1.259 . S
C689 O694 1.250 . S
C689 O695 1.263 . S
O690 Tb682 2.427 . S
O690 C686 1.275 . S
O691 Tb682 2.513 . S
O691 C686 1.246 . S
O692 Tb682 2.453 . S
O692 C688 1.245 . S
O693 Tb680 2.343 . S
O693 Tb682 2.596 . S
O693 C688 1.259 . S
O694 Tb682 2.374 . S
O694 C689 1.250 . S
O695 Tb680 2.353 . S
O695 C689 1.263 . S
C696 O697 1.275 . S
C696 O698 1.246 . S
O697 Tb680 2.427 . S
O697 C696 1.275 . S
O698 Tb680 2.513 . S
O698 C696 1.246 . S
C699 O683 1.245 . S
C699 O684 1.259 . S
Tb700 O703 2.453 . S
Tb700 O704 2.596 . S
Tb700 O705 2.374 . S
Tb700 O713 2.343 . S
Tb700 O715 2.353 . S
Tb700 O717 2.427 . S
Tb700 O718 2.513 . S
C701 O705 1.251 . S
C701 O707 1.263 . S
Tb702 O704 2.343 . S
Tb702 O707 2.353 . S
Tb702 O710 2.427 . S
Tb702 O711 2.513 . S
Tb702 O712 2.453 . S
Tb702 O713 2.596 . S
Tb702 O714 2.374 . S
O703 Tb700 2.453 . S
O703 C719 1.245 . S
O704 Tb700 2.596 . S
O704 Tb702 2.343 . S
O704 C719 1.259 . S
O705 Tb700 2.374 . S
O705 C701 1.251 . S
C706 O710 1.275 . S
C706 O711 1.246 . S
O707 C701 1.263 . S
O707 Tb702 2.353 . S
C708 O712 1.245 . S
C708 O713 1.259 . S
C709 O714 1.250 . S
C709 O715 1.263 . S
O710 Tb702 2.427 . S
O710 C706 1.275 . S
O711 Tb702 2.513 . S
O711 C706 1.246 . S
O712 Tb702 2.453 . S
O712 C708 1.245 . S
O713 Tb700 2.343 . S
O713 Tb702 2.596 . S
O713 C708 1.259 . S
O714 Tb702 2.374 . S
O714 C709 1.250 . S
O715 Tb700 2.353 . S
O715 C709 1.263 . S
C716 O717 1.275 . S
C716 O718 1.246 . S
O717 Tb700 2.427 . S
O717 C716 1.275 . S
O718 Tb700 2.513 . S
O718 C716 1.246 . S
C719 O703 1.245 . S
C719 O704 1.259 . S
H720 C726 0.930 . S
H721 C730 0.930 . S
H722 C735 0.929 . S
H723 C733 0.929 . S
H724 C728 0.929 . S
H725 C734 0.929 . S
C726 H720 0.930 . S
C726 C727 1.367 . S
C726 C734 1.378 . S
C727 C726 1.367 . S
C727 C735 1.433 . S
C728 H724 0.929 . S
C728 C730 1.378 . S
C728 C732 1.350 . S
C729 C732 1.463 . S
C729 C734 1.350 . S
C729 N737 1.427 . S
C730 H721 0.930 . S
C730 C728 1.378 . S
C730 C731 1.367 . S
C731 C730 1.367 . S
C731 C733 1.433 . S
C732 C728 1.350 . S
C732 C729 1.463 . S
C732 N736 1.427 . S
C733 H723 0.929 . S
C733 C731 1.433 . S
C733 N736 1.384 . S
C734 H725 0.929 . S
C734 C726 1.378 . S
C734 C729 1.350 . S
C735 H722 0.929 . S
C735 C727 1.433 . S
C735 N737 1.384 . S
N736 C732 1.427 . S
N736 C733 1.384 . S
N737 C729 1.427 . S
N737 C735 1.384 . S
H738 C744 0.930 . S
H739 C748 0.930 . S
H740 C753 0.929 . S
H741 C751 0.929 1_455 S
H742 C746 0.929 . S
H743 C752 0.929 . S
C744 H738 0.930 . S
C744 C745 1.367 . S
C744 C752 1.378 . S
C745 C744 1.367 . S
C745 C753 1.433 . S
C746 H742 0.929 . S
C746 C748 1.378 . S
C746 C750 1.350 . S
C747 C750 1.463 . S
C747 C752 1.350 . S
C747 N755 1.427 . S
C748 H739 0.930 . S
C748 C746 1.378 . S
C748 C749 1.367 . S
C749 C748 1.367 . S
C749 C751 1.433 . S
C750 C746 1.350 . S
C750 C747 1.463 . S
C750 N754 1.427 . S
C751 H741 0.929 1_655 S
C751 C749 1.433 . S
C751 N754 1.384 . S
C752 H743 0.929 . S
C752 C744 1.378 . S
C752 C747 1.350 . S
C753 H740 0.929 . S
C753 C745 1.433 . S
C753 N755 1.384 . S
N754 C750 1.427 . S
N754 C751 1.384 . S
N755 C747 1.427 . S
N755 C753 1.384 . S
H756 C762 0.930 . S
H757 C766 0.930 . S
H758 C771 0.929 . S
H759 C769 0.929 . S
H760 C764 0.929 . S
H761 C770 0.929 . S
C762 H756 0.930 . S
C762 C763 1.367 . S
C762 C770 1.378 . S
C763 C762 1.367 . S
C763 C771 1.433 . S
C764 H760 0.929 . S
C764 C766 1.378 . S
C764 C768 1.350 . S
C765 C768 1.463 . S
C765 C770 1.350 . S
C765 N773 1.427 . S
C766 H757 0.930 . S
C766 C764 1.378 . S
C766 C767 1.367 . S
C767 C766 1.367 . S
C767 C769 1.433 . S
C768 C764 1.350 . S
C768 C765 1.463 . S
C768 N772 1.427 . S
C769 H759 0.929 . S
C769 C767 1.433 . S
C769 N772 1.384 . S
C770 H761 0.929 . S
C770 C762 1.378 . S
C770 C765 1.350 . S
C771 H758 0.929 . S
C771 C763 1.433 . S
C771 N773 1.384 . S
N772 C768 1.427 . S
N772 C769 1.384 . S
N773 C765 1.427 . S
N773 C771 1.384 . S
H774 C780 0.930 . S
H775 C784 0.930 . S
H776 C789 0.929 . S
H777 C787 0.929 . S
H778 C782 0.929 . S
H779 C788 0.929 . S
C780 H774 0.930 . S
C780 C781 1.367 . S
C780 C788 1.378 . S
C781 C780 1.367 . S
C781 C789 1.433 . S
C782 H778 0.929 . S
C782 C784 1.378 . S
C782 C786 1.350 . S
C783 C786 1.463 . S
C783 C788 1.350 . S
C783 N791 1.427 . S
C784 H775 0.930 . S
C784 C782 1.378 . S
C784 C785 1.367 . S
C785 C784 1.367 . S
C785 C787 1.433 . S
C786 C782 1.350 . S
C786 C783 1.463 . S
C786 N790 1.427 . S
C787 H777 0.929 . S
C787 C785 1.433 . S
C787 N790 1.384 . S
C788 H779 0.929 . S
C788 C780 1.378 . S
C788 C783 1.350 . S
C789 H776 0.929 . S
C789 C781 1.433 . S
C789 N791 1.384 . S
N790 C786 1.427 . S
N790 C787 1.384 . S
N791 C783 1.427 . S
N791 C789 1.384 . S
H792 C798 0.930 . S
H793 C802 0.930 . S
H794 C807 0.929 . S
H795 C805 0.929 . S
H796 C800 0.929 . S
H797 C806 0.929 . S
C798 H792 0.930 . S
C798 C799 1.367 . S
C798 C806 1.378 . S
C799 C798 1.367 . S
C799 C807 1.433 . S
C800 H796 0.929 . S
C800 C802 1.378 . S
C800 C804 1.350 . S
C801 C804 1.463 . S
C801 C806 1.350 . S
C801 N809 1.427 . S
C802 H793 0.930 . S
C802 C800 1.378 . S
C802 C803 1.367 . S
C803 C802 1.367 . S
C803 C805 1.433 . S
C804 C800 1.350 . S
C804 C801 1.463 . S
C804 N808 1.427 . S
C805 H795 0.929 . S
C805 C803 1.433 . S
C805 N808 1.384 . S
C806 H797 0.929 . S
C806 C798 1.378 . S
C806 C801 1.350 . S
C807 H794 0.929 . S
C807 C799 1.433 . S
C807 N809 1.384 . S
N808 C804 1.427 . S
N808 C805 1.384 . S
N809 C801 1.427 . S
N809 C807 1.384 . S
H810 C816 0.930 . S
H811 C820 0.930 . S
H812 C825 0.929 . S
H813 C823 0.929 . S
H814 C818 0.929 1_545 S
H815 C824 0.929 . S
C816 H810 0.930 . S
C816 C817 1.367 . S
C816 C824 1.378 . S
C817 C816 1.367 . S
C817 C825 1.433 . S
C818 H814 0.929 1_565 S
C818 C820 1.378 1_565 S
C818 C822 1.350 . S
C819 C822 1.463 . S
C819 C824 1.350 . S
C819 N827 1.427 . S
C820 H811 0.930 . S
C820 C818 1.378 1_545 S
C820 C821 1.367 1_545 S
C821 C820 1.367 1_565 S
C821 C823 1.433 . S
C822 C818 1.350 . S
C822 C819 1.463 . S
C822 N826 1.427 . S
C823 H813 0.929 . S
C823 C821 1.433 . S
C823 N826 1.384 . S
C824 H815 0.929 . S
C824 C816 1.378 . S
C824 C819 1.350 . S
C825 H812 0.929 . S
C825 C817 1.433 . S
C825 N827 1.384 . S
N826 C822 1.427 . S
N826 C823 1.384 . S
N827 C819 1.427 . S
N827 C825 1.384 . S
H828 C834 0.930 . S
H829 C838 0.930 . S
H830 C843 0.929 . S
H831 C841 0.929 . S
H832 C836 0.929 . S
H833 C842 0.929 . S
C834 H828 0.930 . S
C834 C835 1.367 . S
C834 C842 1.378 . S
C835 C834 1.367 . S
C835 C843 1.433 1_565 S
C836 H832 0.929 . S
C836 C838 1.378 . S
C836 C840 1.350 . S
C837 C840 1.463 . S
C837 C842 1.350 . S
C837 N845 1.427 . S
C838 H829 0.930 . S
C838 C836 1.378 . S
C838 C839 1.367 . S
C839 C838 1.367 . S
C839 C841 1.433 . S
C840 C836 1.350 . S
C840 C837 1.463 . S
C840 N844 1.427 . S
C841 H831 0.929 . S
C841 C839 1.433 . S
C841 N844 1.384 . S
C842 H833 0.929 . S
C842 C834 1.378 . S
C842 C837 1.350 . S
C843 H830 0.929 . S
C843 C835 1.433 1_545 S
C843 N845 1.384 1_545 S
N844 C840 1.427 . S
N844 C841 1.384 . S
N845 C837 1.427 . S
N845 C843 1.384 1_565 S
H846 C852 0.930 . S
H847 C856 0.930 . S
H848 C861 0.929 . S
H849 C859 0.929 . S
H850 C854 0.929 . S
H851 C860 0.929 . S
C852 H846 0.930 . S
C852 C853 1.367 . S
C852 C860 1.378 . S
C853 C852 1.367 . S
C853 C861 1.433 . S
C854 H850 0.929 . S
C854 C856 1.378 . S
C854 C858 1.350 . S
C855 C858 1.463 . S
C855 C860 1.350 . S
C855 N863 1.427 . S
C856 H847 0.930 . S
C856 C854 1.378 . S
C856 C857 1.367 . S
C857 C856 1.367 . S
C857 C859 1.433 . S
C858 C854 1.350 . S
C858 C855 1.463 . S
C858 N862 1.427 . S
C859 H849 0.929 . S
C859 C857 1.433 . S
C859 N862 1.384 . S
C860 H851 0.929 . S
C860 C852 1.378 . S
C860 C855 1.350 . S
C861 H848 0.929 . S
C861 C853 1.433 . S
C861 N863 1.384 . S
N862 C858 1.427 . S
N862 C859 1.384 . S
N863 C855 1.427 . S
N863 C861 1.384 . S
H864 C870 0.930 . S
H865 C874 0.930 . S
H866 C879 0.929 . S
H867 C877 0.929 . S
H868 C872 0.929 . S
H869 C878 0.929 . S
C870 H864 0.930 . S
C870 C871 1.367 . S
C870 C878 1.378 . S
C871 C870 1.367 . S
C871 C879 1.433 . S
C872 H868 0.929 . S
C872 C874 1.378 . S
C872 C876 1.350 . S
C873 C876 1.463 . S
C873 C878 1.350 . S
C873 N881 1.427 . S
C874 H865 0.930 . S
C874 C872 1.378 . S
C874 C875 1.367 . S
C875 C874 1.367 . S
C875 C877 1.433 . S
C876 C872 1.350 . S
C876 C873 1.463 . S
C876 N880 1.427 . S
C877 H867 0.929 . S
C877 C875 1.433 . S
C877 N880 1.384 . S
C878 H869 0.929 . S
C878 C870 1.378 . S
C878 C873 1.350 . S
C879 H866 0.929 . S
C879 C871 1.433 . S
C879 N881 1.384 . S
N880 C876 1.427 . S
N880 C877 1.384 . S
N881 C873 1.427 . S
N881 C879 1.384 . S
H882 C888 0.930 . S
H883 C892 0.930 1_455 S
H884 C897 0.929 . S
H885 C895 0.929 . S
H886 C890 0.929 . S
H887 C896 0.929 . S
C888 H882 0.930 . S
C888 C889 1.367 . S
C888 C896 1.378 . S
C889 C888 1.367 . S
C889 C897 1.433 . S
C890 H886 0.929 . S
C890 C892 1.378 . S
C890 C894 1.350 . S
C891 C894 1.463 . S
C891 C896 1.350 . S
C891 N899 1.427 . S
C892 H883 0.930 1_655 S
C892 C890 1.378 . S
C892 C893 1.367 . S
C893 C892 1.367 . S
C893 C895 1.433 . S
C894 C890 1.350 . S
C894 C891 1.463 . S
C894 N898 1.427 . S
C895 H885 0.929 . S
C895 C893 1.433 . S
C895 N898 1.384 . S
C896 H887 0.929 . S
C896 C888 1.378 . S
C896 C891 1.350 . S
C897 H884 0.929 . S
C897 C889 1.433 . S
C897 N899 1.384 . S
N898 C894 1.427 . S
N898 C895 1.384 . S
N899 C891 1.427 . S
N899 C897 1.384 . S
H900 C906 0.930 . S
H901 C910 0.930 . S
H902 C915 0.929 . S
H903 C913 0.929 . S
H904 C908 0.929 . S
H905 C914 0.929 . S
C906 H900 0.930 . S
C906 C907 1.367 . S
C906 C914 1.378 . S
C907 C906 1.367 . S
C907 C915 1.433 . S
C908 H904 0.929 . S
C908 C910 1.378 . S
C908 C912 1.350 . S
C909 C912 1.463 . S
C909 C914 1.350 . S
C909 N917 1.427 . S
C910 H901 0.930 . S
C910 C908 1.378 . S
C910 C911 1.367 . S
C911 C910 1.367 . S
C911 C913 1.433 . S
C912 C908 1.350 . S
C912 C909 1.463 . S
C912 N916 1.427 . S
C913 H903 0.929 . S
C913 C911 1.433 . S
C913 N916 1.384 . S
C914 H905 0.929 . S
C914 C906 1.378 . S
C914 C909 1.350 . S
C915 H902 0.929 . S
C915 C907 1.433 . S
C915 N917 1.384 . S
N916 C912 1.427 . S
N916 C913 1.384 . S
N917 C909 1.427 . S
N917 C915 1.384 . S
H918 C924 0.930 . S
H919 C928 0.930 . S
H920 C933 0.929 . S
H921 C931 0.929 . S
H922 C926 0.929 . S
H923 C932 0.929 . S
C924 H918 0.930 . S
C924 C925 1.367 . S
C924 C932 1.378 . S
C925 C924 1.367 . S
C925 C933 1.433 . S
C926 H922 0.929 . S
C926 C928 1.378 . S
C926 C930 1.350 . S
C927 C930 1.463 . S
C927 C932 1.350 . S
C927 N935 1.427 . S
C928 H919 0.930 . S
C928 C926 1.378 . S
C928 C929 1.367 . S
C929 C928 1.367 . S
C929 C931 1.433 . S
C930 C926 1.350 . S
C930 C927 1.463 . S
C930 N934 1.427 . S
C931 H921 0.929 . S
C931 C929 1.433 . S
C931 N934 1.384 . S
C932 H923 0.929 . S
C932 C924 1.378 . S
C932 C927 1.350 . S
C933 H920 0.929 . S
C933 C925 1.433 . S
C933 N935 1.384 . S
N934 C930 1.427 . S
N934 C931 1.384 . S
N935 C927 1.427 . S
N935 C933 1.384 . S
H936 C942 0.930 . S
H937 C946 0.930 . S
H938 C951 0.929 . S
H939 C949 0.929 . S
H940 C944 0.929 . S
H941 C950 0.929 . S
C942 H936 0.930 . S
C942 C943 1.367 . S
C942 C950 1.378 . S
C943 C942 1.367 . S
C943 C951 1.433 . S
C944 H940 0.929 . S
C944 C946 1.378 . S
C944 C948 1.350 . S
C945 C948 1.463 . S
C945 C950 1.350 . S
C945 N953 1.427 . S
C946 H937 0.930 . S
C946 C944 1.378 . S
C946 C947 1.367 . S
C947 C946 1.367 . S
C947 C949 1.433 . S
C948 C944 1.350 . S
C948 C945 1.463 . S
C948 N952 1.427 . S
C949 H939 0.929 . S
C949 C947 1.433 . S
C949 N952 1.384 . S
C950 H941 0.929 . S
C950 C942 1.378 . S
C950 C945 1.350 . S
C951 H938 0.929 . S
C951 C943 1.433 . S
C951 N953 1.384 . S
N952 C948 1.427 . S
N952 C949 1.384 . S
N953 C945 1.427 . S
N953 C951 1.384 . S
H954 C960 0.930 . S
H955 C964 0.930 . S
H956 C969 0.929 1_545 S
H957 C967 0.929 . S
H958 C962 0.929 . S
H959 C968 0.929 . S
C960 H954 0.930 . S
C960 C961 1.367 . S
C960 C968 1.378 . S
C961 C960 1.367 . S
C961 C969 1.433 . S
C962 H958 0.929 . S
C962 C964 1.378 . S
C962 C966 1.350 . S
C963 C966 1.463 . S
C963 C968 1.350 1_545 S
C963 N971 1.427 . S
C964 H955 0.930 . S
C964 C962 1.378 . S
C964 C965 1.367 . S
C965 C964 1.367 . S
C965 C967 1.433 . S
C966 C962 1.350 . S
C966 C963 1.463 . S
C966 N970 1.427 . S
C967 H957 0.929 . S
C967 C965 1.433 . S
C967 N970 1.384 . S
C968 H959 0.929 . S
C968 C960 1.378 . S
C968 C963 1.350 1_565 S
C969 H956 0.929 1_565 S
C969 C961 1.433 . S
C969 N971 1.384 1_565 S
N970 C966 1.427 . S
N970 C967 1.384 . S
N971 C963 1.427 . S
N971 C969 1.384 1_545 S
H972 C978 0.930 . S
H973 C982 0.930 . S
H974 C987 0.929 . S
H975 C985 0.929 . S
H976 C980 0.929 . S
H977 C986 0.929 1_455 S
C978 H972 0.930 . S
C978 C979 1.367 . S
C978 C986 1.378 . S
C979 C978 1.367 . S
C979 C987 1.433 . S
C980 H976 0.929 . S
C980 C982 1.378 . S
C980 C984 1.350 . S
C981 C984 1.463 . S
C981 C986 1.350 1_455 S
C981 N989 1.423 . S
C982 H973 0.930 . S
C982 C980 1.378 . S
C982 C983 1.367 . S
C983 C982 1.367 . S
C983 C985 1.433 . S
C984 C980 1.350 . S
C984 C981 1.463 . S
C984 N988 1.427 . S
C985 H975 0.929 . S
C985 C983 1.433 . S
C985 N988 1.384 . S
C986 H977 0.929 1_655 S
C986 C978 1.378 . S
C986 C981 1.350 1_655 S
C987 H974 0.929 . S
C987 C979 1.433 . S
C987 N989 1.372 1_655 S
N988 C984 1.427 . S
N988 C985 1.384 . S
N989 C981 1.423 . S
N989 C987 1.372 1_455 S
H990 C996 0.930 . S
H991 C1000 0.930 . S
H992 C1005 0.929 . S
H993 C1003 0.929 . S
H994 C998 0.929 . S
H995 C1004 0.929 . S
C996 H990 0.930 . S
C996 C997 1.367 . S
C996 C1004 1.378 . S
C997 C996 1.367 . S
C997 C1005 1.433 . S
C998 H994 0.929 . S
C998 C1000 1.378 . S
C998 C1002 1.350 . S
C999 C1002 1.463 . S
C999 C1004 1.350 . S
C999 N1007 1.427 . S
C1000 H991 0.930 . S
C1000 C998 1.378 . S
C1000 C1001 1.367 . S
C1001 C1000 1.367 . S
C1001 C1003 1.433 . S
C1002 C998 1.350 . S
C1002 C999 1.463 . S
C1002 N1006 1.427 . S
C1003 H993 0.929 . S
C1003 C1001 1.433 . S
C1003 N1006 1.384 . S
C1004 H995 0.929 . S
C1004 C996 1.378 . S
C1004 C999 1.350 . S
C1005 H992 0.929 . S
C1005 C997 1.433 . S
C1005 N1007 1.384 . S
N1006 C1002 1.427 . S
N1006 C1003 1.384 . S
N1007 C999 1.427 . S
N1007 C1005 1.384 . S
H1008 C1014 0.930 . S
H1009 C1018 0.930 . S
H1010 C1023 0.929 . S
H1011 C1021 0.929 . S
H1012 C1016 0.929 . S
H1013 C1022 0.929 . S
C1014 H1008 0.930 . S
C1014 C1015 1.367 . S
C1014 C1022 1.378 1_565 S
C1015 C1014 1.367 . S
C1015 C1023 1.433 . S
C1016 H1012 0.929 . S
C1016 C1018 1.378 . S
C1016 C1020 1.350 . S
C1017 C1020 1.463 . S
C1017 C1022 1.350 . S
C1017 N1025 1.427 1_545 S
C1018 H1009 0.930 . S
C1018 C1016 1.378 . S
C1018 C1019 1.367 . S
C1019 C1018 1.367 . S
C1019 C1021 1.433 . S
C1020 C1016 1.350 . S
C1020 C1017 1.463 . S
C1020 N1024 1.427 . S
C1021 H1011 0.929 . S
C1021 C1019 1.433 . S
C1021 N1024 1.384 . S
C1022 H1013 0.929 . S
C1022 C1014 1.378 1_545 S
C1022 C1017 1.350 . S
C1023 H1010 0.929 . S
C1023 C1015 1.433 . S
C1023 N1025 1.384 . S
N1024 C1020 1.427 . S
N1024 C1021 1.384 . S
N1025 C1017 1.427 1_565 S
N1025 C1023 1.384 . S
H1026 C1032 0.930 . S
H1027 C1036 0.930 . S
H1028 C1041 0.929 . S
H1029 C1039 0.929 . S
H1030 C1034 0.929 . S
H1031 C1040 0.929 1_455 S
C1032 H1026 0.930 . S
C1032 C1033 1.367 . S
C1032 C1040 1.378 . S
C1033 C1032 1.367 . S
C1033 C1041 1.433 . S
C1034 H1030 0.929 . S
C1034 C1036 1.378 . S
C1034 C1038 1.350 . S
C1035 C1038 1.463 . S
C1035 C1040 1.350 1_455 S
C1035 N1043 1.427 . S
C1036 H1027 0.930 . S
C1036 C1034 1.378 . S
C1036 C1037 1.367 . S
C1037 C1036 1.367 . S
C1037 C1039 1.433 . S
C1038 C1034 1.350 . S
C1038 C1035 1.463 . S
C1038 N1042 1.427 . S
C1039 H1029 0.929 . S
C1039 C1037 1.433 . S
C1039 N1042 1.384 . S
C1040 H1031 0.929 1_655 S
C1040 C1032 1.378 . S
C1040 C1035 1.350 1_655 S
C1041 H1028 0.929 . S
C1041 C1033 1.433 . S
C1041 N1043 1.384 1_655 S
N1042 C1038 1.427 . S
N1042 C1039 1.384 . S
N1043 C1035 1.427 . S
N1043 C1041 1.384 1_455 S
H1044 C1050 0.930 . S
H1045 C1054 0.930 . S
H1046 C1059 0.929 . S
H1047 C1057 0.929 . S
H1048 C1052 0.929 . S
H1049 C1058 0.929 . S
C1050 H1044 0.930 . S
C1050 C1051 1.367 1_565 S
C1050 C1058 1.378 . S
C1051 C1050 1.367 1_545 S
C1051 C1059 1.433 . S
C1052 H1048 0.929 . S
C1052 C1054 1.378 . S
C1052 C1056 1.350 . S
C1053 C1056 1.463 1_554 S
C1053 C1058 1.350 1_545 S
C1053 N1061 1.427 . S
C1054 H1045 0.930 . S
C1054 C1052 1.378 . S
C1054 C1055 1.367 . S
C1055 C1054 1.367 . S
C1055 C1057 1.433 1_545 S
C1056 C1052 1.350 . S
C1056 C1053 1.463 1_556 S
C1056 N1060 1.427 1_545 S
C1057 H1047 0.929 . S
C1057 C1055 1.433 1_565 S
C1057 N1060 1.384 . S
C1058 H1049 0.929 . S
C1058 C1050 1.378 . S
C1058 C1053 1.350 1_565 S
C1059 H1046 0.929 . S
C1059 C1051 1.433 . S
C1059 N1061 1.384 . S
N1060 C1056 1.427 1_565 S
N1060 C1057 1.384 . S
N1061 C1053 1.427 . S
N1061 C1059 1.384 . S
H1062 C1068 0.930 . S
H1063 C1072 0.930 . S
H1064 C1077 0.929 1_655 S
H1065 C1075 0.929 . S
H1066 C1070 0.929 . S
H1067 C1076 0.929 . S
C1068 H1062 0.930 . S
C1068 C1069 1.367 . S
C1068 C1076 1.378 . S
C1069 C1068 1.367 . S
C1069 C1077 1.433 . S
C1070 H1066 0.929 . S
C1070 C1072 1.378 . S
C1070 C1074 1.350 . S
C1071 C1074 1.463 1_556 S
C1071 C1076 1.350 . S
C1071 N1079 1.427 . S
C1072 H1063 0.930 . S
C1072 C1070 1.378 . S
C1072 C1073 1.367 . S
C1073 C1072 1.367 . S
C1073 C1075 1.433 . S
C1074 C1070 1.350 . S
C1074 C1071 1.463 1_554 S
C1074 N1078 1.427 . S
C1075 H1065 0.929 . S
C1075 C1073 1.433 . S
C1075 N1078 1.384 . S
C1076 H1067 0.929 . S
C1076 C1068 1.378 . S
C1076 C1071 1.350 . S
C1077 H1064 0.929 1_455 S
C1077 C1069 1.433 . S
C1077 N1079 1.384 . S
N1078 C1074 1.427 . S
N1078 C1075 1.384 . S
N1079 C1071 1.427 . S
N1079 C1077 1.384 . S
H1080 C1086 0.930 . S
H1081 C1090 0.930 . S
H1082 C1095 0.929 . S
H1083 C1093 0.929 . S
H1084 C1088 0.929 . S
H1085 C1094 0.929 . S
C1086 H1080 0.930 . S
C1086 C1087 1.367 . S
C1086 C1094 1.378 . S
C1087 C1086 1.367 . S
C1087 C1095 1.433 . S
C1088 H1084 0.929 . S
C1088 C1090 1.378 . S
C1088 C1092 1.350 . S
C1089 C1092 1.463 1_554 S
C1089 C1094 1.350 . S
C1089 N1097 1.427 . S
C1090 H1081 0.930 . S
C1090 C1088 1.378 . S
C1090 C1091 1.367 . S
C1091 C1090 1.367 . S
C1091 C1093 1.433 . S
C1092 C1088 1.350 . S
C1092 C1089 1.463 1_556 S
C1092 N1096 1.427 . S
C1093 H1083 0.929 . S
C1093 C1091 1.433 . S
C1093 N1096 1.384 . S
C1094 H1085 0.929 . S
C1094 C1086 1.378 . S
C1094 C1089 1.350 . S
C1095 H1082 0.929 . S
C1095 C1087 1.433 . S
C1095 N1097 1.384 . S
N1096 C1092 1.427 . S
N1096 C1093 1.384 . S
N1097 C1089 1.427 . S
N1097 C1095 1.384 . S
H1098 C1104 0.930 . S
H1099 C1108 0.930 . S
H1100 C1113 0.929 . S
H1101 C1111 0.929 . S
H1102 C1106 0.929 . S
H1103 C1112 0.929 . S
C1104 H1098 0.930 . S
C1104 C1105 1.367 . S
C1104 C1112 1.378 . S
C1105 C1104 1.367 . S
C1105 C1113 1.433 1_455 S
C1106 H1102 0.929 . S
C1106 C1108 1.378 . S
C1106 C1110 1.350 1_655 S
C1107 C1110 1.463 . S
C1107 C1112 1.350 . S
C1107 N1115 1.427 1_455 S
C1108 H1099 0.930 . S
C1108 C1106 1.378 . S
C1108 C1109 1.367 1_655 S
C1109 C1108 1.367 1_455 S
C1109 C1111 1.433 . S
C1110 C1106 1.350 1_455 S
C1110 C1107 1.463 . S
C1110 N1114 1.427 . S
C1111 H1101 0.929 . S
C1111 C1109 1.433 . S
C1111 N1114 1.384 . S
C1112 H1103 0.929 . S
C1112 C1104 1.378 . S
C1112 C1107 1.350 . S
C1113 H1100 0.929 . S
C1113 C1105 1.433 1_655 S
C1113 N1115 1.384 . S
N1114 C1110 1.427 . S
N1114 C1111 1.384 . S
N1115 C1107 1.427 1_655 S
N1115 C1113 1.384 . S
H1116 C1122 0.930 . S
H1117 C1126 0.930 . S
H1118 C1131 0.929 . S
H1119 C1129 0.929 . S
H1120 C1124 0.929 . S
H1121 C1130 0.929 . S
C1122 H1116 0.930 . S
C1122 C1123 1.367 . S
C1122 C1130 1.378 . S
C1123 C1122 1.367 . S
C1123 C1131 1.433 . S
C1124 H1120 0.929 . S
C1124 C1126 1.378 . S
C1124 C1128 1.350 . S
C1125 C1128 1.463 . S
C1125 C1130 1.350 . S
C1125 N1133 1.427 . S
C1126 H1117 0.930 . S
C1126 C1124 1.378 . S
C1126 C1127 1.367 . S
C1127 C1126 1.367 . S
C1127 C1129 1.433 . S
C1128 C1124 1.350 . S
C1128 C1125 1.463 . S
C1128 N1132 1.427 . S
C1129 H1119 0.929 . S
C1129 C1127 1.433 . S
C1129 N1132 1.384 . S
C1130 H1121 0.929 . S
C1130 C1122 1.378 . S
C1130 C1125 1.350 . S
C1131 H1118 0.929 . S
C1131 C1123 1.433 . S
C1131 N1133 1.384 . S
N1132 C1128 1.427 . S
N1132 C1129 1.384 . S
N1133 C1125 1.427 . S
N1133 C1131 1.384 . S
H1134 C1140 0.930 . S
H1135 C1144 0.930 . S
H1136 C1149 0.929 1_565 S
H1137 C1147 0.929 . S
H1138 C1142 0.929 . S
H1139 C1148 0.929 . S
C1140 H1134 0.930 . S
C1140 C1141 1.367 . S
C1140 C1148 1.378 . S
C1141 C1140 1.367 . S
C1141 C1149 1.433 . S
C1142 H1138 0.929 . S
C1142 C1144 1.378 . S
C1142 C1146 1.350 . S
C1143 C1146 1.463 . S
C1143 C1148 1.350 . S
C1143 N1151 1.427 . S
C1144 H1135 0.930 . S
C1144 C1142 1.378 . S
C1144 C1145 1.367 . S
C1145 C1144 1.367 . S
C1145 C1147 1.433 . S
C1146 C1142 1.350 . S
C1146 C1143 1.463 . S
C1146 N1150 1.427 . S
C1147 H1137 0.929 . S
C1147 C1145 1.433 . S
C1147 N1150 1.384 . S
C1148 H1139 0.929 . S
C1148 C1140 1.378 . S
C1148 C1143 1.350 . S
C1149 H1136 0.929 1_545 S
C1149 C1141 1.433 . S
C1149 N1151 1.384 . S
N1150 C1146 1.427 . S
N1150 C1147 1.384 . S
N1151 C1143 1.427 . S
N1151 C1149 1.384 . S
H1152 C1158 0.930 . S
H1153 C1162 0.930 . S
H1154 C1167 0.929 . S
H1155 C1165 0.929 . S
H1156 C1160 0.929 . S
H1157 C1166 0.929 . S
C1158 H1152 0.930 . S
C1158 C1159 1.367 . S
C1158 C1166 1.378 . S
C1159 C1158 1.367 . S
C1159 C1167 1.433 . S
C1160 H1156 0.929 . S
C1160 C1162 1.378 . S
C1160 C1164 1.350 . S
C1161 C1164 1.463 . S
C1161 C1166 1.350 . S
C1161 N1169 1.427 . S
C1162 H1153 0.930 . S
C1162 C1160 1.378 . S
C1162 C1163 1.367 . S
C1163 C1162 1.367 . S
C1163 C1165 1.433 . S
C1164 C1160 1.350 . S
C1164 C1161 1.463 . S
C1164 N1168 1.427 . S
C1165 H1155 0.929 . S
C1165 C1163 1.433 . S
C1165 N1168 1.384 . S
C1166 H1157 0.929 . S
C1166 C1158 1.378 . S
C1166 C1161 1.350 . S
C1167 H1154 0.929 . S
C1167 C1159 1.433 . S
C1167 N1169 1.384 . S
N1168 C1164 1.427 . S
N1168 C1165 1.384 . S
N1169 C1161 1.427 . S
N1169 C1167 1.384 . S
H1170 C1176 0.930 . S
H1171 C1180 0.930 . S
H1172 C1185 0.929 . S
H1173 C1183 0.929 . S
H1174 C1178 0.929 . S
H1175 C1184 0.929 . S
C1176 H1170 0.930 . S
C1176 C1177 1.367 . S
C1176 C1184 1.378 . S
C1177 C1176 1.367 . S
C1177 C1185 1.433 . S
C1178 H1174 0.929 . S
C1178 C1180 1.378 . S
C1178 C1182 1.350 . S
C1179 C1182 1.463 . S
C1179 C1184 1.350 . S
C1179 N1187 1.427 . S
C1180 H1171 0.930 . S
C1180 C1178 1.378 . S
C1180 C1181 1.367 . S
C1181 C1180 1.367 . S
C1181 C1183 1.433 . S
C1182 C1178 1.350 . S
C1182 C1179 1.463 . S
C1182 N1186 1.427 . S
C1183 H1173 0.929 . S
C1183 C1181 1.433 . S
C1183 N1186 1.384 . S
C1184 H1175 0.929 . S
C1184 C1176 1.378 . S
C1184 C1179 1.350 . S
C1185 H1172 0.929 . S
C1185 C1177 1.433 . S
C1185 N1187 1.384 . S
N1186 C1182 1.427 . S
N1186 C1183 1.384 . S
N1187 C1179 1.427 . S
N1187 C1185 1.384 . S
H1188 C1194 0.930 . S
H1189 C1198 0.930 . S
H1190 C1203 0.929 . S
H1191 C1201 0.929 . S
H1192 C1196 0.929 . S
H1193 C1202 0.929 . S
C1194 H1188 0.930 . S
C1194 C1195 1.367 . S
C1194 C1202 1.378 . S
C1195 C1194 1.367 . S
C1195 C1203 1.433 . S
C1196 H1192 0.929 . S
C1196 C1198 1.378 . S
C1196 C1200 1.350 . S
C1197 C1200 1.463 . S
C1197 C1202 1.350 . S
C1197 N1205 1.427 . S
C1198 H1189 0.930 . S
C1198 C1196 1.378 . S
C1198 C1199 1.367 . S
C1199 C1198 1.367 . S
C1199 C1201 1.433 . S
C1200 C1196 1.350 . S
C1200 C1197 1.463 . S
C1200 N1204 1.427 . S
C1201 H1191 0.929 . S
C1201 C1199 1.433 . S
C1201 N1204 1.384 . S
C1202 H1193 0.929 . S
C1202 C1194 1.378 . S
C1202 C1197 1.350 . S
C1203 H1190 0.929 . S
C1203 C1195 1.433 . S
C1203 N1205 1.384 . S
N1204 C1200 1.427 . S
N1204 C1201 1.384 . S
N1205 C1197 1.427 . S
N1205 C1203 1.384 . S
H1206 C1212 0.930 . S
H1207 C1216 0.930 . S
H1208 C1221 0.929 . S
H1209 C1219 0.929 . S
H1210 C1214 0.929 . S
H1211 C1220 0.929 . S
C1212 H1206 0.930 . S
C1212 C1213 1.367 . S
C1212 C1220 1.378 . S
C1213 C1212 1.367 . S
C1213 C1221 1.433 . S
C1214 H1210 0.929 . S
C1214 C1216 1.378 . S
C1214 C1218 1.350 . S
C1215 C1218 1.463 . S
C1215 C1220 1.350 . S
C1215 N1223 1.427 . S
C1216 H1207 0.930 . S
C1216 C1214 1.378 . S
C1216 C1217 1.367 . S
C1217 C1216 1.367 . S
C1217 C1219 1.433 . S
C1218 C1214 1.350 . S
C1218 C1215 1.463 . S
C1218 N1222 1.427 . S
C1219 H1209 0.929 . S
C1219 C1217 1.433 . S
C1219 N1222 1.384 . S
C1220 H1211 0.929 . S
C1220 C1212 1.378 . S
C1220 C1215 1.350 . S
C1221 H1208 0.929 . S
C1221 C1213 1.433 . S
C1221 N1223 1.384 . S
N1222 C1218 1.427 . S
N1222 C1219 1.384 . S
N1223 C1215 1.427 . S
N1223 C1221 1.384 . S
H1224 C1230 0.930 . S
H1225 C1234 0.930 . S
H1226 C1239 0.929 . S
H1227 C1237 0.929 . S
H1228 C1232 0.929 . S
H1229 C1238 0.929 . S
C1230 H1224 0.930 . S
C1230 C1231 1.367 . S
C1230 C1238 1.378 . S
C1231 C1230 1.367 . S
C1231 C1239 1.433 . S
C1232 H1228 0.929 . S
C1232 C1234 1.378 . S
C1232 C1236 1.350 . S
C1233 C1236 1.463 . S
C1233 C1238 1.350 . S
C1233 N1241 1.427 . S
C1234 H1225 0.930 . S
C1234 C1232 1.378 . S
C1234 C1235 1.367 . S
C1235 C1234 1.367 . S
C1235 C1237 1.433 . S
C1236 C1232 1.350 . S
C1236 C1233 1.463 . S
C1236 N1240 1.427 . S
C1237 H1227 0.929 . S
C1237 C1235 1.433 . S
C1237 N1240 1.384 . S
C1238 H1229 0.929 . S
C1238 C1230 1.378 . S
C1238 C1233 1.350 . S
C1239 H1226 0.929 . S
C1239 C1231 1.433 . S
C1239 N1241 1.384 . S
N1240 C1236 1.427 . S
N1240 C1237 1.384 . S
N1241 C1233 1.427 . S
N1241 C1239 1.384 . S
H1242 C1248 0.930 . S
H1243 C1252 0.930 . S
H1244 C1257 0.929 . S
H1245 C1255 0.929 . S
H1246 C1250 0.929 . S
H1247 C1256 0.929 . S
C1248 H1242 0.930 . S
C1248 C1249 1.367 . S
C1248 C1256 1.378 . S
C1249 C1248 1.367 . S
C1249 C1257 1.433 . S
C1250 H1246 0.929 . S
C1250 C1252 1.378 . S
C1250 C1254 1.350 . S
C1251 C1254 1.463 . S
C1251 C1256 1.350 . S
C1251 N1259 1.427 . S
C1252 H1243 0.930 . S
C1252 C1250 1.378 . S
C1252 C1253 1.367 . S
C1253 C1252 1.367 . S
C1253 C1255 1.433 . S
C1254 C1250 1.350 . S
C1254 C1251 1.463 . S
C1254 N1258 1.427 . S
C1255 H1245 0.929 . S
C1255 C1253 1.433 . S
C1255 N1258 1.384 . S
C1256 H1247 0.929 . S
C1256 C1248 1.378 . S
C1256 C1251 1.350 . S
C1257 H1244 0.929 . S
C1257 C1249 1.433 . S
C1257 N1259 1.384 . S
N1258 C1254 1.427 . S
N1258 C1255 1.384 . S
N1259 C1251 1.427 . S
N1259 C1257 1.384 . S
H1260 C1266 0.930 . S
H1261 C1270 0.930 . S
H1262 C1275 0.929 . S
H1263 C1273 0.929 . S
H1264 C1268 0.929 . S
H1265 C1274 0.929 . S
C1266 H1260 0.930 . S
C1266 C1267 1.367 . S
C1266 C1274 1.378 . S
C1267 C1266 1.367 . S
C1267 C1275 1.433 . S
C1268 H1264 0.929 . S
C1268 C1270 1.378 . S
C1268 C1272 1.350 . S
C1269 C1272 1.463 . S
C1269 C1274 1.350 . S
C1269 N1277 1.427 . S
C1270 H1261 0.930 . S
C1270 C1268 1.378 . S
C1270 C1271 1.367 . S
C1271 C1270 1.367 . S
C1271 C1273 1.433 . S
C1272 C1268 1.350 . S
C1272 C1269 1.463 . S
C1272 N1276 1.427 . S
C1273 H1263 0.929 . S
C1273 C1271 1.433 . S
C1273 N1276 1.384 . S
C1274 H1265 0.929 . S
C1274 C1266 1.378 . S
C1274 C1269 1.350 . S
C1275 H1262 0.929 . S
C1275 C1267 1.433 . S
C1275 N1277 1.384 . S
N1276 C1272 1.427 . S
N1276 C1273 1.384 . S
N1277 C1269 1.427 . S
N1277 C1275 1.384 . S
H1278 C1284 0.930 . S
H1279 C1288 0.930 . S
H1280 C1293 0.929 . S
H1281 C1291 0.929 . S
H1282 C1286 0.929 . S
H1283 C1292 0.929 . S
C1284 H1278 0.930 . S
C1284 C1285 1.367 . S
C1284 C1292 1.378 . S
C1285 C1284 1.367 . S
C1285 C1293 1.433 . S
C1286 H1282 0.929 . S
C1286 C1288 1.378 . S
C1286 C1290 1.350 . S
C1287 C1290 1.463 . S
C1287 C1292 1.350 . S
C1287 N1295 1.427 . S
C1288 H1279 0.930 . S
C1288 C1286 1.378 . S
C1288 C1289 1.367 . S
C1289 C1288 1.367 . S
C1289 C1291 1.433 . S
C1290 C1286 1.350 . S
C1290 C1287 1.463 . S
C1290 N1294 1.427 . S
C1291 H1281 0.929 . S
C1291 C1289 1.433 . S
C1291 N1294 1.384 . S
C1292 H1283 0.929 . S
C1292 C1284 1.378 . S
C1292 C1287 1.350 . S
C1293 H1280 0.929 . S
C1293 C1285 1.433 . S
C1293 N1295 1.384 . S
N1294 C1290 1.427 . S
N1294 C1291 1.384 . S
N1295 C1287 1.427 . S
N1295 C1293 1.384 . S
H1296 C1302 0.930 . S
H1297 C1306 0.930 . S
H1298 C1311 0.929 . S
H1299 C1309 0.929 . S
H1300 C1304 0.929 . S
H1301 C1310 0.929 . S
C1302 H1296 0.930 . S
C1302 C1303 1.367 . S
C1302 C1310 1.378 . S
C1303 C1302 1.367 . S
C1303 C1311 1.433 . S
C1304 H1300 0.929 . S
C1304 C1306 1.378 . S
C1304 C1308 1.350 . S
C1305 C1308 1.463 . S
C1305 C1310 1.350 . S
C1305 N1313 1.427 . S
C1306 H1297 0.930 . S
C1306 C1304 1.378 . S
C1306 C1307 1.367 . S
C1307 C1306 1.367 . S
C1307 C1309 1.433 . S
C1308 C1304 1.350 . S
C1308 C1305 1.463 . S
C1308 N1312 1.427 . S
C1309 H1299 0.929 . S
C1309 C1307 1.433 . S
C1309 N1312 1.384 . S
C1310 H1301 0.929 . S
C1310 C1302 1.378 . S
C1310 C1305 1.350 . S
C1311 H1298 0.929 . S
C1311 C1303 1.433 . S
C1311 N1313 1.384 . S
N1312 C1308 1.427 . S
N1312 C1309 1.384 . S
N1313 C1305 1.427 . S
N1313 C1311 1.384 . S
H1314 C1320 0.930 . S
H1315 C1324 0.930 . S
H1316 C1329 0.929 . S
H1317 C1327 0.929 . S
H1318 C1322 0.929 . S
H1319 C1328 0.929 . S
C1320 H1314 0.930 . S
C1320 C1321 1.367 . S
C1320 C1328 1.378 . S
C1321 C1320 1.367 . S
C1321 C1329 1.433 . S
C1322 H1318 0.929 . S
C1322 C1324 1.378 . S
C1322 C1326 1.350 . S
C1323 C1326 1.463 . S
C1323 C1328 1.350 . S
C1323 N1331 1.427 . S
C1324 H1315 0.930 . S
C1324 C1322 1.378 . S
C1324 C1325 1.367 . S
C1325 C1324 1.367 . S
C1325 C1327 1.433 . S
C1326 C1322 1.350 . S
C1326 C1323 1.463 . S
C1326 N1330 1.427 . S
C1327 H1317 0.929 . S
C1327 C1325 1.433 . S
C1327 N1330 1.384 . S
C1328 H1319 0.929 . S
C1328 C1320 1.378 . S
C1328 C1323 1.350 . S
C1329 H1316 0.929 . S
C1329 C1321 1.433 . S
C1329 N1331 1.384 . S
N1330 C1326 1.427 . S
N1330 C1327 1.384 . S
N1331 C1323 1.427 . S
N1331 C1329 1.384 . S
H1332 C1338 0.930 . S
H1333 C1342 0.930 . S
H1334 C1347 0.929 . S
H1335 C1345 0.929 . S
H1336 C1340 0.929 . S
H1337 C1346 0.929 . S
C1338 H1332 0.930 . S
C1338 C1339 1.367 . S
C1338 C1346 1.378 . S
C1339 C1338 1.367 . S
C1339 C1347 1.433 . S
C1340 H1336 0.929 . S
C1340 C1342 1.378 . S
C1340 C1344 1.350 . S
C1341 C1344 1.463 . S
C1341 C1346 1.350 . S
C1341 N1349 1.427 . S
C1342 H1333 0.930 . S
C1342 C1340 1.378 . S
C1342 C1343 1.367 . S
C1343 C1342 1.367 . S
C1343 C1345 1.433 . S
C1344 C1340 1.350 . S
C1344 C1341 1.463 . S
C1344 N1348 1.427 . S
C1345 H1335 0.929 . S
C1345 C1343 1.433 . S
C1345 N1348 1.384 . S
C1346 H1337 0.929 . S
C1346 C1338 1.378 . S
C1346 C1341 1.350 . S
C1347 H1334 0.929 . S
C1347 C1339 1.433 . S
C1347 N1349 1.384 . S
N1348 C1344 1.427 . S
N1348 C1345 1.384 . S
N1349 C1341 1.427 . S
N1349 C1347 1.384 . S
H1350 C1356 0.930 . S
H1351 C1360 0.930 . S
H1352 C1365 0.929 . S
H1353 C1363 0.929 . S
H1354 C1358 0.929 . S
H1355 C1364 0.929 . S
C1356 H1350 0.930 . S
C1356 C1357 1.367 . S
C1356 C1364 1.378 . S
C1357 C1356 1.367 . S
C1357 C1365 1.433 . S
C1358 H1354 0.929 . S
C1358 C1360 1.378 . S
C1358 C1362 1.350 . S
C1359 C1362 1.463 . S
C1359 C1364 1.350 . S
C1359 N1367 1.427 . S
C1360 H1351 0.930 . S
C1360 C1358 1.378 . S
C1360 C1361 1.367 . S
C1361 C1360 1.367 . S
C1361 C1363 1.433 . S
C1362 C1358 1.350 . S
C1362 C1359 1.463 . S
C1362 N1366 1.427 . S
C1363 H1353 0.929 . S
C1363 C1361 1.433 . S
C1363 N1366 1.384 . S
C1364 H1355 0.929 . S
C1364 C1356 1.378 . S
C1364 C1359 1.350 . S
C1365 H1352 0.929 . S
C1365 C1357 1.433 . S
C1365 N1367 1.384 . S
N1366 C1362 1.427 . S
N1366 C1363 1.384 . S
N1367 C1359 1.427 . S
N1367 C1365 1.384 . S
H1368 C1374 0.930 . S
H1369 C1378 0.930 . S
H1370 C1383 0.929 . S
H1371 C1381 0.929 . S
H1372 C1376 0.929 . S
H1373 C1382 0.929 . S
C1374 H1368 0.930 . S
C1374 C1375 1.367 . S
C1374 C1382 1.378 . S
C1375 C1374 1.367 . S
C1375 C1383 1.433 . S
C1376 H1372 0.929 . S
C1376 C1378 1.378 . S
C1376 C1380 1.350 . S
C1377 C1380 1.463 . S
C1377 C1382 1.350 . S
C1377 N1385 1.427 . S
C1378 H1369 0.930 . S
C1378 C1376 1.378 . S
C1378 C1379 1.367 . S
C1379 C1378 1.367 . S
C1379 C1381 1.433 . S
C1380 C1376 1.350 . S
C1380 C1377 1.463 . S
C1380 N1384 1.427 . S
C1381 H1371 0.929 . S
C1381 C1379 1.433 . S
C1381 N1384 1.384 . S
C1382 H1373 0.929 . S
C1382 C1374 1.378 . S
C1382 C1377 1.350 . S
C1383 H1370 0.929 . S
C1383 C1375 1.433 . S
C1383 N1385 1.384 . S
N1384 C1380 1.427 . S
N1384 C1381 1.384 . S
N1385 C1377 1.427 . S
N1385 C1383 1.384 . S
H1386 C1392 0.930 . S
H1387 C1396 0.930 . S
H1388 C1401 0.929 . S
H1389 C1399 0.929 . S
H1390 C1394 0.929 . S
H1391 C1400 0.929 . S
C1392 H1386 0.930 . S
C1392 C1393 1.367 . S
C1392 C1400 1.378 . S
C1393 C1392 1.367 . S
C1393 C1401 1.433 . S
C1394 H1390 0.929 . S
C1394 C1396 1.378 . S
C1394 C1398 1.350 . S
C1395 C1398 1.463 . S
C1395 C1400 1.350 . S
C1395 N1403 1.427 . S
C1396 H1387 0.930 . S
C1396 C1394 1.378 . S
C1396 C1397 1.367 . S
C1397 C1396 1.367 . S
C1397 C1399 1.433 . S
C1398 C1394 1.350 . S
C1398 C1395 1.463 . S
C1398 N1402 1.427 . S
C1399 H1389 0.929 . S
C1399 C1397 1.433 . S
C1399 N1402 1.384 . S
C1400 H1391 0.929 . S
C1400 C1392 1.378 . S
C1400 C1395 1.350 . S
C1401 H1388 0.929 . S
C1401 C1393 1.433 . S
C1401 N1403 1.384 . S
N1402 C1398 1.427 . S
N1402 C1399 1.384 . S
N1403 C1395 1.427 . S
N1403 C1401 1.384 . S
H1404 C1410 0.930 . S
H1405 C1414 0.930 . S
H1406 C1419 0.929 . S
H1407 C1417 0.929 . S
H1408 C1412 0.929 . S
H1409 C1418 0.929 . S
C1410 H1404 0.930 . S
C1410 C1411 1.367 . S
C1410 C1418 1.378 . S
C1411 C1410 1.367 . S
C1411 C1419 1.433 . S
C1412 H1408 0.929 . S
C1412 C1414 1.378 . S
C1412 C1416 1.350 . S
C1413 C1416 1.463 . S
C1413 C1418 1.350 . S
C1413 N1421 1.427 . S
C1414 H1405 0.930 . S
C1414 C1412 1.378 . S
C1414 C1415 1.367 . S
C1415 C1414 1.367 . S
C1415 C1417 1.433 . S
C1416 C1412 1.350 . S
C1416 C1413 1.463 . S
C1416 N1420 1.427 . S
C1417 H1407 0.929 . S
C1417 C1415 1.433 . S
C1417 N1420 1.384 . S
C1418 H1409 0.929 . S
C1418 C1410 1.378 . S
C1418 C1413 1.350 . S
C1419 H1406 0.929 . S
C1419 C1411 1.433 . S
C1419 N1421 1.384 . S
N1420 C1416 1.427 . S
N1420 C1417 1.384 . S
N1421 C1413 1.427 . S
N1421 C1419 1.384 . S
H1422 C1428 0.930 . S
H1423 C1432 0.930 . S
H1424 C1437 0.929 . S
H1425 C1435 0.929 . S
H1426 C1430 0.929 . S
H1427 C1436 0.929 . S
C1428 H1422 0.930 . S
C1428 C1429 1.367 . S
C1428 C1436 1.378 . S
C1429 C1428 1.367 . S
C1429 C1437 1.433 . S
C1430 H1426 0.929 . S
C1430 C1432 1.378 . S
C1430 C1434 1.350 . S
C1431 C1434 1.463 . S
C1431 C1436 1.350 . S
C1431 N1439 1.427 . S
C1432 H1423 0.930 . S
C1432 C1430 1.378 . S
C1432 C1433 1.367 . S
C1433 C1432 1.367 . S
C1433 C1435 1.433 . S
C1434 C1430 1.350 . S
C1434 C1431 1.463 . S
C1434 N1438 1.427 . S
C1435 H1425 0.929 . S
C1435 C1433 1.433 . S
C1435 N1438 1.384 . S
C1436 H1427 0.929 . S
C1436 C1428 1.378 . S
C1436 C1431 1.350 . S
C1437 H1424 0.929 . S
C1437 C1429 1.433 . S
C1437 N1439 1.384 . S
N1438 C1434 1.427 . S
N1438 C1435 1.384 . S
N1439 C1431 1.427 . S
N1439 C1437 1.384 . S
H1440 C1446 0.930 . S
H1441 C1450 0.930 . S
H1442 C1455 0.929 . S
H1443 C1453 0.929 . S
H1444 C1448 0.929 . S
H1445 C1454 0.929 . S
C1446 H1440 0.930 . S
C1446 C1447 1.367 . S
C1446 C1454 1.378 . S
C1447 C1446 1.367 . S
C1447 C1455 1.433 . S
C1448 H1444 0.929 . S
C1448 C1450 1.378 . S
C1448 C1452 1.350 . S
C1449 C1452 1.463 . S
C1449 C1454 1.350 . S
C1449 N1457 1.427 . S
C1450 H1441 0.930 . S
C1450 C1448 1.378 . S
C1450 C1451 1.367 . S
C1451 C1450 1.367 . S
C1451 C1453 1.433 . S
C1452 C1448 1.350 . S
C1452 C1449 1.463 . S
C1452 N1456 1.427 . S
C1453 H1443 0.929 . S
C1453 C1451 1.433 . S
C1453 N1456 1.384 . S
C1454 H1445 0.929 . S
C1454 C1446 1.378 . S
C1454 C1449 1.350 . S
C1455 H1442 0.929 . S
C1455 C1447 1.433 . S
C1455 N1457 1.384 . S
N1456 C1452 1.427 . S
N1456 C1453 1.384 . S
N1457 C1449 1.427 . S
N1457 C1455 1.384 . S
H1458 C1464 0.930 . S
H1459 C1468 0.930 . S
H1460 C1473 0.929 . S
H1461 C1471 0.929 . S
H1462 C1466 0.929 . S
H1463 C1472 0.929 . S
C1464 H1458 0.930 . S
C1464 C1465 1.367 . S
C1464 C1472 1.378 . S
C1465 C1464 1.367 . S
C1465 C1473 1.433 . S
C1466 H1462 0.929 . S
C1466 C1468 1.378 . S
C1466 C1470 1.350 . S
C1467 C1470 1.463 . S
C1467 C1472 1.350 . S
C1467 N1475 1.427 . S
C1468 H1459 0.930 . S
C1468 C1466 1.378 . S
C1468 C1469 1.367 . S
C1469 C1468 1.367 . S
C1469 C1471 1.433 . S
C1470 C1466 1.350 . S
C1470 C1467 1.463 . S
C1470 N1474 1.427 . S
C1471 H1461 0.929 . S
C1471 C1469 1.433 . S
C1471 N1474 1.384 . S
C1472 H1463 0.929 . S
C1472 C1464 1.378 . S
C1472 C1467 1.350 . S
C1473 H1460 0.929 . S
C1473 C1465 1.433 . S
C1473 N1475 1.384 . S
N1474 C1470 1.427 . S
N1474 C1471 1.384 . S
N1475 C1467 1.427 . S
N1475 C1473 1.384 . S
H1476 C1482 0.930 . S
H1477 C1486 0.930 . S
H1478 C1491 0.929 . S
H1479 C1489 0.929 . S
H1480 C1484 0.929 . S
H1481 C1490 0.929 . S
C1482 H1476 0.930 . S
C1482 C1483 1.367 . S
C1482 C1490 1.378 . S
C1483 C1482 1.367 . S
C1483 C1491 1.433 . S
C1484 H1480 0.929 . S
C1484 C1486 1.378 . S
C1484 C1488 1.350 . S
C1485 C1488 1.463 . S
C1485 C1490 1.350 . S
C1485 N1493 1.427 . S
C1486 H1477 0.930 . S
C1486 C1484 1.378 . S
C1486 C1487 1.367 . S
C1487 C1486 1.367 . S
C1487 C1489 1.433 . S
C1488 C1484 1.350 . S
C1488 C1485 1.463 . S
C1488 N1492 1.427 . S
C1489 H1479 0.929 . S
C1489 C1487 1.433 . S
C1489 N1492 1.384 . S
C1490 H1481 0.929 . S
C1490 C1482 1.378 . S
C1490 C1485 1.350 . S
C1491 H1478 0.929 . S
C1491 C1483 1.433 . S
C1491 N1493 1.384 . S
N1492 C1488 1.427 . S
N1492 C1489 1.384 . S
N1493 C1485 1.427 . S
N1493 C1491 1.384 . S
H1494 C1500 0.930 . S
H1495 C1504 0.930 . S
H1496 C1509 0.929 . S
H1497 C1507 0.929 . S
H1498 C1502 0.929 . S
H1499 C1508 0.929 . S
C1500 H1494 0.930 . S
C1500 C1501 1.367 . S
C1500 C1508 1.378 . S
C1501 C1500 1.367 . S
C1501 C1509 1.433 . S
C1502 H1498 0.929 . S
C1502 C1504 1.378 . S
C1502 C1506 1.350 . S
C1503 C1506 1.463 . S
C1503 C1508 1.350 . S
C1503 N1511 1.427 . S
C1504 H1495 0.930 . S
C1504 C1502 1.378 . S
C1504 C1505 1.367 . S
C1505 C1504 1.367 . S
C1505 C1507 1.433 . S
C1506 C1502 1.350 . S
C1506 C1503 1.463 . S
C1506 N1510 1.427 . S
C1507 H1497 0.929 . S
C1507 C1505 1.433 . S
C1507 N1510 1.384 . S
C1508 H1499 0.929 . S
C1508 C1500 1.378 . S
C1508 C1503 1.350 . S
C1509 H1496 0.929 . S
C1509 C1501 1.433 . S
C1509 N1511 1.384 . S
N1510 C1506 1.427 . S
N1510 C1507 1.384 . S
N1511 C1503 1.427 . S
N1511 C1509 1.384 . S
H1512 C1518 0.930 . S
H1513 C1522 0.930 . S
H1514 C1527 0.929 . S
H1515 C1525 0.929 . S
H1516 C1520 0.929 . S
H1517 C1526 0.929 . S
C1518 H1512 0.930 . S
C1518 C1519 1.367 . S
C1518 C1526 1.378 . S
C1519 C1518 1.367 . S
C1519 C1527 1.433 . S
C1520 H1516 0.929 . S
C1520 C1522 1.378 . S
C1520 C1524 1.350 . S
C1521 C1524 1.463 . S
C1521 C1526 1.350 . S
C1521 N1529 1.427 . S
C1522 H1513 0.930 . S
C1522 C1520 1.378 . S
C1522 C1523 1.367 . S
C1523 C1522 1.367 . S
C1523 C1525 1.433 . S
C1524 C1520 1.350 . S
C1524 C1521 1.463 . S
C1524 N1528 1.427 . S
C1525 H1515 0.929 . S
C1525 C1523 1.433 . S
C1525 N1528 1.384 . S
C1526 H1517 0.929 . S
C1526 C1518 1.378 . S
C1526 C1521 1.350 . S
C1527 H1514 0.929 . S
C1527 C1519 1.433 . S
C1527 N1529 1.384 . S
N1528 C1524 1.427 . S
N1528 C1525 1.384 . S
N1529 C1521 1.427 . S
N1529 C1527 1.384 . S
H1530 C1536 0.930 . S
H1531 C1540 0.930 . S
H1532 C1545 0.929 . S
H1533 C1543 0.929 . S
H1534 C1538 0.929 . S
H1535 C1544 0.929 . S
C1536 H1530 0.930 . S
C1536 C1537 1.367 . S
C1536 C1544 1.378 . S
C1537 C1536 1.367 . S
C1537 C1545 1.433 . S
C1538 H1534 0.929 . S
C1538 C1540 1.378 . S
C1538 C1542 1.350 . S
C1539 C1542 1.463 . S
C1539 C1544 1.350 . S
C1539 N1547 1.427 . S
C1540 H1531 0.930 . S
C1540 C1538 1.378 . S
C1540 C1541 1.367 . S
C1541 C1540 1.367 . S
C1541 C1543 1.433 . S
C1542 C1538 1.350 . S
C1542 C1539 1.463 . S
C1542 N1546 1.427 . S
C1543 H1533 0.929 . S
C1543 C1541 1.433 . S
C1543 N1546 1.384 . S
C1544 H1535 0.929 . S
C1544 C1536 1.378 . S
C1544 C1539 1.350 . S
C1545 H1532 0.929 . S
C1545 C1537 1.433 . S
C1545 N1547 1.384 . S
N1546 C1542 1.427 . S
N1546 C1543 1.384 . S
N1547 C1539 1.427 . S
N1547 C1545 1.384 . S
H1548 C1554 0.930 . S
H1549 C1558 0.930 . S
H1550 C1563 0.929 . S
H1551 C1561 0.929 . S
H1552 C1556 0.929 . S
H1553 C1562 0.929 . S
C1554 H1548 0.930 . S
C1554 C1555 1.367 . S
C1554 C1562 1.378 . S
C1555 C1554 1.367 . S
C1555 C1563 1.433 . S
C1556 H1552 0.929 . S
C1556 C1558 1.378 . S
C1556 C1560 1.350 . S
C1557 C1560 1.463 . S
C1557 C1562 1.350 . S
C1557 N1565 1.427 . S
C1558 H1549 0.930 . S
C1558 C1556 1.378 . S
C1558 C1559 1.367 . S
C1559 C1558 1.367 . S
C1559 C1561 1.433 . S
C1560 C1556 1.350 . S
C1560 C1557 1.463 . S
C1560 N1564 1.427 . S
C1561 H1551 0.929 . S
C1561 C1559 1.433 . S
C1561 N1564 1.384 . S
C1562 H1553 0.929 . S
C1562 C1554 1.378 . S
C1562 C1557 1.350 . S
C1563 H1550 0.929 . S
C1563 C1555 1.433 . S
C1563 N1565 1.384 . S
N1564 C1560 1.427 . S
N1564 C1561 1.384 . S
N1565 C1557 1.427 . S
N1565 C1563 1.384 . S
H1566 C1572 0.930 . S
H1567 C1576 0.930 . S
H1568 C1581 0.929 . S
H1569 C1579 0.929 . S
H1570 C1574 0.929 . S
H1571 C1580 0.929 . S
C1572 H1566 0.930 . S
C1572 C1573 1.367 . S
C1572 C1580 1.378 . S
C1573 C1572 1.367 . S
C1573 C1581 1.433 . S
C1574 H1570 0.929 . S
C1574 C1576 1.378 . S
C1574 C1578 1.350 . S
C1575 C1578 1.463 . S
C1575 C1580 1.350 . S
C1575 N1583 1.427 . S
C1576 H1567 0.930 . S
C1576 C1574 1.378 . S
C1576 C1577 1.367 . S
C1577 C1576 1.367 . S
C1577 C1579 1.433 . S
C1578 C1574 1.350 . S
C1578 C1575 1.463 . S
C1578 N1582 1.427 . S
C1579 H1569 0.929 . S
C1579 C1577 1.433 . S
C1579 N1582 1.384 . S
C1580 H1571 0.929 . S
C1580 C1572 1.378 . S
C1580 C1575 1.350 . S
C1581 H1568 0.929 . S
C1581 C1573 1.433 . S
C1581 N1583 1.384 . S
N1582 C1578 1.427 . S
N1582 C1579 1.384 . S
N1583 C1575 1.427 . S
N1583 C1581 1.384 . S
H1584 C1590 0.930 . S
H1585 C1594 0.930 . S
H1586 C1599 0.929 . S
H1587 C1597 0.929 . S
H1588 C1592 0.929 . S
H1589 C1598 0.929 . S
C1590 H1584 0.930 . S
C1590 C1591 1.367 . S
C1590 C1598 1.378 . S
C1591 C1590 1.367 . S
C1591 C1599 1.433 . S
C1592 H1588 0.929 . S
C1592 C1594 1.378 . S
C1592 C1596 1.350 . S
C1593 C1596 1.463 . S
C1593 C1598 1.350 . S
C1593 N1601 1.427 . S
C1594 H1585 0.930 . S
C1594 C1592 1.378 . S
C1594 C1595 1.367 . S
C1595 C1594 1.367 . S
C1595 C1597 1.433 . S
C1596 C1592 1.350 . S
C1596 C1593 1.463 . S
C1596 N1600 1.427 . S
C1597 H1587 0.929 . S
C1597 C1595 1.433 . S
C1597 N1600 1.384 . S
C1598 H1589 0.929 . S
C1598 C1590 1.378 . S
C1598 C1593 1.350 . S
C1599 H1586 0.929 . S
C1599 C1591 1.433 . S
C1599 N1601 1.384 . S
N1600 C1596 1.427 . S
N1600 C1597 1.384 . S
N1601 C1593 1.427 . S
N1601 C1599 1.384 . S
H1602 C1608 0.930 . S
H1603 C1612 0.930 . S
H1604 C1617 0.929 . S
H1605 C1615 0.929 . S
H1606 C1610 0.929 . S
H1607 C1616 0.929 . S
C1608 H1602 0.930 . S
C1608 C1609 1.367 1_655 S
C1608 C1616 1.378 . S
C1609 C1608 1.367 1_455 S
C1609 C1617 1.433 . S
C1610 H1606 0.929 . S
C1610 C1612 1.378 1_545 S
C1610 C1614 1.350 . S
C1611 C1614 1.463 . S
C1611 C1616 1.350 . S
C1611 N1619 1.427 . S
C1612 H1603 0.930 . S
C1612 C1610 1.378 1_565 S
C1612 C1613 1.367 . S
C1613 C1612 1.367 . S
C1613 C1615 1.433 1_565 S
C1614 C1610 1.350 . S
C1614 C1611 1.463 . S
C1614 N1618 1.427 . S
C1615 H1605 0.929 . S
C1615 C1613 1.433 1_545 S
C1615 N1618 1.384 . S
C1616 H1607 0.929 . S
C1616 C1608 1.378 . S
C1616 C1611 1.350 . S
C1617 H1604 0.929 . S
C1617 C1609 1.433 . S
C1617 N1619 1.384 1_455 S
N1618 C1614 1.427 . S
N1618 C1615 1.384 . S
N1619 C1611 1.427 . S
N1619 C1617 1.384 1_655 S
H1620 C1626 0.930 . S
H1621 C1630 0.930 . S
H1622 C1635 0.929 . S
H1623 C1633 0.929 . S
H1624 C1628 0.929 . S
H1625 C1634 0.929 . S
C1626 H1620 0.930 . S
C1626 C1627 1.367 . S
C1626 C1634 1.378 . S
C1627 C1626 1.367 . S
C1627 C1635 1.433 . S
C1628 H1624 0.929 . S
C1628 C1630 1.378 . S
C1628 C1632 1.350 . S
C1629 C1632 1.463 1_655 S
C1629 C1634 1.350 . S
C1629 N1637 1.427 . S
C1630 H1621 0.930 . S
C1630 C1628 1.378 . S
C1630 C1631 1.367 . S
C1631 C1630 1.367 . S
C1631 C1633 1.433 . S
C1632 C1628 1.350 . S
C1632 C1629 1.463 1_455 S
C1632 N1636 1.427 . S
C1633 H1623 0.929 . S
C1633 C1631 1.433 . S
C1633 N1636 1.384 . S
C1634 H1625 0.929 . S
C1634 C1626 1.378 . S
C1634 C1629 1.350 . S
C1635 H1622 0.929 . S
C1635 C1627 1.433 . S
C1635 N1637 1.384 . S
N1636 C1632 1.427 . S
N1636 C1633 1.384 . S
N1637 C1629 1.427 . S
N1637 C1635 1.384 . S
H1638 C1644 0.930 . S
H1639 C1648 0.930 . S
H1640 C1653 0.929 . S
H1641 C1651 0.929 . S
H1642 C1646 0.929 . S
H1643 C1652 0.929 . S
C1644 H1638 0.930 . S
C1644 C1645 1.367 . S
C1644 C1652 1.378 . S
C1645 C1644 1.367 . S
C1645 C1653 1.433 . S
C1646 H1642 0.929 . S
C1646 C1648 1.378 . S
C1646 C1650 1.350 . S
C1647 C1650 1.463 . S
C1647 C1652 1.350 . S
C1647 N1655 1.427 . S
C1648 H1639 0.930 . S
C1648 C1646 1.378 . S
C1648 C1649 1.367 . S
C1649 C1648 1.367 . S
C1649 C1651 1.433 . S
C1650 C1646 1.350 . S
C1650 C1647 1.463 . S
C1650 N1654 1.427 . S
C1651 H1641 0.929 . S
C1651 C1649 1.433 . S
C1651 N1654 1.384 . S
C1652 H1643 0.929 . S
C1652 C1644 1.378 . S
C1652 C1647 1.350 . S
C1653 H1640 0.929 . S
C1653 C1645 1.433 . S
C1653 N1655 1.384 . S
N1654 C1650 1.427 . S
N1654 C1651 1.384 . S
N1655 C1647 1.427 . S
N1655 C1653 1.384 . S
H1656 C1662 0.930 . S
H1657 C1666 0.930 . S
H1658 C1671 0.929 . S
H1659 C1669 0.929 . S
H1660 C1664 0.929 . S
H1661 C1670 0.929 . S
C1662 H1656 0.930 . S
C1662 C1663 1.367 . S
C1662 C1670 1.378 . S
C1663 C1662 1.367 . S
C1663 C1671 1.433 . S
C1664 H1660 0.929 . S
C1664 C1666 1.378 . S
C1664 C1668 1.350 . S
C1665 C1668 1.463 . S
C1665 C1670 1.350 . S
C1665 N1673 1.427 . S
C1666 H1657 0.930 . S
C1666 C1664 1.378 . S
C1666 C1667 1.367 . S
C1667 C1666 1.367 . S
C1667 C1669 1.433 . S
C1668 C1664 1.350 . S
C1668 C1665 1.463 . S
C1668 N1672 1.427 . S
C1669 H1659 0.929 . S
C1669 C1667 1.433 . S
C1669 N1672 1.384 . S
C1670 H1661 0.929 . S
C1670 C1662 1.378 . S
C1670 C1665 1.350 . S
C1671 H1658 0.929 . S
C1671 C1663 1.433 . S
C1671 N1673 1.384 . S
N1672 C1668 1.427 . S
N1672 C1669 1.384 . S
N1673 C1665 1.427 . S
N1673 C1671 1.384 . S
H1674 C1680 0.930 . S
H1675 C1684 0.930 . S
H1676 C1689 0.929 . S
H1677 C1687 0.929 . S
H1678 C1682 0.929 . S
H1679 C1688 0.929 . S
C1680 H1674 0.930 . S
C1680 C1681 1.367 . S
C1680 C1688 1.378 . S
C1681 C1680 1.367 . S
C1681 C1689 1.433 . S
C1682 H1678 0.929 . S
C1682 C1684 1.378 . S
C1682 C1686 1.350 . S
C1683 C1686 1.463 . S
C1683 C1688 1.350 . S
C1683 N1691 1.427 . S
C1684 H1675 0.930 . S
C1684 C1682 1.378 . S
C1684 C1685 1.367 . S
C1685 C1684 1.367 . S
C1685 C1687 1.433 . S
C1686 C1682 1.350 . S
C1686 C1683 1.463 . S
C1686 N1690 1.427 . S
C1687 H1677 0.929 . S
C1687 C1685 1.433 . S
C1687 N1690 1.384 . S
C1688 H1679 0.929 . S
C1688 C1680 1.378 . S
C1688 C1683 1.350 . S
C1689 H1676 0.929 . S
C1689 C1681 1.433 . S
C1689 N1691 1.384 . S
N1690 C1686 1.427 . S
N1690 C1687 1.384 . S
N1691 C1683 1.427 . S
N1691 C1689 1.384 . S
H1692 C1698 0.930 . S
H1693 C1702 0.930 . S
H1694 C1707 0.929 . S
H1695 C1705 0.929 . S
H1696 C1700 0.929 . S
H1697 C1706 0.929 . S
C1698 H1692 0.930 . S
C1698 C1699 1.367 . S
C1698 C1706 1.378 . S
C1699 C1698 1.367 . S
C1699 C1707 1.433 . S
C1700 H1696 0.929 . S
C1700 C1702 1.378 . S
C1700 C1704 1.350 . S
C1701 C1704 1.463 . S
C1701 C1706 1.350 . S
C1701 N1709 1.427 . S
C1702 H1693 0.930 . S
C1702 C1700 1.378 . S
C1702 C1703 1.367 . S
C1703 C1702 1.367 . S
C1703 C1705 1.433 . S
C1704 C1700 1.350 . S
C1704 C1701 1.463 . S
C1704 N1708 1.427 . S
C1705 H1695 0.929 . S
C1705 C1703 1.433 . S
C1705 N1708 1.384 . S
C1706 H1697 0.929 . S
C1706 C1698 1.378 . S
C1706 C1701 1.350 . S
C1707 H1694 0.929 . S
C1707 C1699 1.433 . S
C1707 N1709 1.384 . S
N1708 C1704 1.427 . S
N1708 C1705 1.384 . S
N1709 C1701 1.427 . S
N1709 C1707 1.384 . S
H1710 C1716 0.930 . S
H1711 C1720 0.930 . S
H1712 C1725 0.929 . S
H1713 C1723 0.929 . S
H1714 C1718 0.929 . S
H1715 C1724 0.929 . S
C1716 H1710 0.930 . S
C1716 C1717 1.367 . S
C1716 C1724 1.378 . S
C1717 C1716 1.367 . S
C1717 C1725 1.433 . S
C1718 H1714 0.929 . S
C1718 C1720 1.378 . S
C1718 C1722 1.350 . S
C1719 C1722 1.463 . S
C1719 C1724 1.350 . S
C1719 N1727 1.427 . S
C1720 H1711 0.930 . S
C1720 C1718 1.378 . S
C1720 C1721 1.367 . S
C1721 C1720 1.367 . S
C1721 C1723 1.433 . S
C1722 C1718 1.350 . S
C1722 C1719 1.463 . S
C1722 N1726 1.427 . S
C1723 H1713 0.929 . S
C1723 C1721 1.433 . S
C1723 N1726 1.384 . S
C1724 H1715 0.929 . S
C1724 C1716 1.378 . S
C1724 C1719 1.350 . S
C1725 H1712 0.929 . S
C1725 C1717 1.433 . S
C1725 N1727 1.384 . S
N1726 C1722 1.427 . S
N1726 C1723 1.384 . S
N1727 C1719 1.427 . S
N1727 C1725 1.384 . S
H1728 C1734 0.930 . S
H1729 C1738 0.930 . S
H1730 C1743 0.929 . S
H1731 C1741 0.929 . S
H1732 C1736 0.929 . S
H1733 C1742 0.929 . S
C1734 H1728 0.930 . S
C1734 C1735 1.367 . S
C1734 C1742 1.378 . S
C1735 C1734 1.367 . S
C1735 C1743 1.433 . S
C1736 H1732 0.929 . S
C1736 C1738 1.378 . S
C1736 C1740 1.350 . S
C1737 C1740 1.463 . S
C1737 C1742 1.350 . S
C1737 N1745 1.427 . S
C1738 H1729 0.930 . S
C1738 C1736 1.378 . S
C1738 C1739 1.367 . S
C1739 C1738 1.367 . S
C1739 C1741 1.433 . S
C1740 C1736 1.350 . S
C1740 C1737 1.463 . S
C1740 N1744 1.427 . S
C1741 H1731 0.929 . S
C1741 C1739 1.433 . S
C1741 N1744 1.384 . S
C1742 H1733 0.929 . S
C1742 C1734 1.378 . S
C1742 C1737 1.350 . S
C1743 H1730 0.929 . S
C1743 C1735 1.433 . S
C1743 N1745 1.384 . S
N1744 C1740 1.427 . S
N1744 C1741 1.384 . S
N1745 C1737 1.427 . S
N1745 C1743 1.384 . S
H1746 C1752 0.930 . S
H1747 C1756 0.930 . S
H1748 C1761 0.929 . S
H1749 C1759 0.929 . S
H1750 C1754 0.929 . S
H1751 C1760 0.929 . S
C1752 H1746 0.930 . S
C1752 C1753 1.367 1_655 S
C1752 C1760 1.378 . S
C1753 C1752 1.367 1_455 S
C1753 C1761 1.433 . S
C1754 H1750 0.929 . S
C1754 C1756 1.378 . S
C1754 C1758 1.350 . S
C1755 C1758 1.463 . S
C1755 C1760 1.350 . S
C1755 N1763 1.427 . S
C1756 H1747 0.930 . S
C1756 C1754 1.378 . S
C1756 C1757 1.367 . S
C1757 C1756 1.367 . S
C1757 C1759 1.433 . S
C1758 C1754 1.350 . S
C1758 C1755 1.463 . S
C1758 N1762 1.427 . S
C1759 H1749 0.929 . S
C1759 C1757 1.433 . S
C1759 N1762 1.384 . S
C1760 H1751 0.929 . S
C1760 C1752 1.378 . S
C1760 C1755 1.350 . S
C1761 H1748 0.929 . S
C1761 C1753 1.433 . S
C1761 N1763 1.384 1_455 S
N1762 C1758 1.427 . S
N1762 C1759 1.384 . S
N1763 C1755 1.427 . S
N1763 C1761 1.384 1_655 S
H1764 C1770 0.930 . S
H1765 C1774 0.930 . S
H1766 C1779 0.929 . S
H1767 C1777 0.929 . S
H1768 C1772 0.929 . S
H1769 C1778 0.929 . S
C1770 H1764 0.930 . S
C1770 C1771 1.367 . S
C1770 C1778 1.378 . S
C1771 C1770 1.367 . S
C1771 C1779 1.433 . S
C1772 H1768 0.929 . S
C1772 C1774 1.378 1_545 S
C1772 C1776 1.350 . S
C1773 C1776 1.463 . S
C1773 C1778 1.350 . S
C1773 N1781 1.427 . S
C1774 H1765 0.930 . S
C1774 C1772 1.378 1_565 S
C1774 C1775 1.367 . S
C1775 C1774 1.367 . S
C1775 C1777 1.433 . S
C1776 C1772 1.350 . S
C1776 C1773 1.463 . S
C1776 N1780 1.427 . S
C1777 H1767 0.929 . S
C1777 C1775 1.433 . S
C1777 N1780 1.384 1_565 S
C1778 H1769 0.929 . S
C1778 C1770 1.378 . S
C1778 C1773 1.350 . S
C1779 H1766 0.929 . S
C1779 C1771 1.433 . S
C1779 N1781 1.384 . S
N1780 C1776 1.427 . S
N1780 C1777 1.384 1_545 S
N1781 C1773 1.427 . S
N1781 C1779 1.384 . S
H1782 C1788 0.930 . S
H1783 C1792 0.930 . S
H1784 C1797 0.929 . S
H1785 C1795 0.929 . S
H1786 C1790 0.929 . S
H1787 C1796 0.929 . S
C1788 H1782 0.930 . S
C1788 C1789 1.367 . S
C1788 C1796 1.378 . S
C1789 C1788 1.367 . S
C1789 C1797 1.433 . S
C1790 H1786 0.929 . S
C1790 C1792 1.378 . S
C1790 C1794 1.350 . S
C1791 C1794 1.463 1_655 S
C1791 C1796 1.350 . S
C1791 N1799 1.427 . S
C1792 H1783 0.930 . S
C1792 C1790 1.378 . S
C1792 C1793 1.367 . S
C1793 C1792 1.367 . S
C1793 C1795 1.433 . S
C1794 C1790 1.350 . S
C1794 C1791 1.463 1_455 S
C1794 N1798 1.427 . S
C1795 H1785 0.929 . S
C1795 C1793 1.433 . S
C1795 N1798 1.384 . S
C1796 H1787 0.929 . S
C1796 C1788 1.378 . S
C1796 C1791 1.350 . S
C1797 H1784 0.929 . S
C1797 C1789 1.433 . S
C1797 N1799 1.384 . S
N1798 C1794 1.427 . S
N1798 C1795 1.384 . S
N1799 C1791 1.427 . S
N1799 C1797 1.384 . S
H1800 C1806 0.930 . S
H1801 C1810 0.930 . S
H1802 C1815 0.929 . S
H1803 C1813 0.929 . S
H1804 C1808 0.929 . S
H1805 C1814 0.929 . S
C1806 H1800 0.930 . S
C1806 C1807 1.367 . S
C1806 C1814 1.378 . S
C1807 C1806 1.367 . S
C1807 C1815 1.433 . S
C1808 H1804 0.929 . S
C1808 C1810 1.378 . S
C1808 C1812 1.350 . S
C1809 C1812 1.463 . S
C1809 C1814 1.350 . S
C1809 N1817 1.427 . S
C1810 H1801 0.930 . S
C1810 C1808 1.378 . S
C1810 C1811 1.367 . S
C1811 C1810 1.367 . S
C1811 C1813 1.433 . S
C1812 C1808 1.350 . S
C1812 C1809 1.463 . S
C1812 N1816 1.427 . S
C1813 H1803 0.929 . S
C1813 C1811 1.433 . S
C1813 N1816 1.384 . S
C1814 H1805 0.929 . S
C1814 C1806 1.378 . S
C1814 C1809 1.350 . S
C1815 H1802 0.929 . S
C1815 C1807 1.433 . S
C1815 N1817 1.384 . S
N1816 C1812 1.427 . S
N1816 C1813 1.384 . S
N1817 C1809 1.427 . S
N1817 C1815 1.384 . S
H1818 C1824 0.930 . S
H1819 C1828 0.930 . S
H1820 C1833 0.929 . S
H1821 C1831 0.929 . S
H1822 C1826 0.929 . S
H1823 C1832 0.929 . S
C1824 H1818 0.930 . S
C1824 C1825 1.367 . S
C1824 C1832 1.378 . S
C1825 C1824 1.367 . S
C1825 C1833 1.433 . S
C1826 H1822 0.929 . S
C1826 C1828 1.378 . S
C1826 C1830 1.350 . S
C1827 C1830 1.463 . S
C1827 C1832 1.350 . S
C1827 N1835 1.427 . S
C1828 H1819 0.930 . S
C1828 C1826 1.378 . S
C1828 C1829 1.367 . S
C1829 C1828 1.367 . S
C1829 C1831 1.433 . S
C1830 C1826 1.350 . S
C1830 C1827 1.463 . S
C1830 N1834 1.427 . S
C1831 H1821 0.929 . S
C1831 C1829 1.433 . S
C1831 N1834 1.384 . S
C1832 H1823 0.929 . S
C1832 C1824 1.378 . S
C1832 C1827 1.350 . S
C1833 H1820 0.929 . S
C1833 C1825 1.433 . S
C1833 N1835 1.384 . S
N1834 C1830 1.427 . S
N1834 C1831 1.384 . S
N1835 C1827 1.427 . S
N1835 C1833 1.384 . S
H1836 C1842 0.930 . S
H1837 C1846 0.930 . S
H1838 C1851 0.929 . S
H1839 C1849 0.929 . S
H1840 C1844 0.929 . S
H1841 C1850 0.929 . S
C1842 H1836 0.930 . S
C1842 C1843 1.367 . S
C1842 C1850 1.378 . S
C1843 C1842 1.367 . S
C1843 C1851 1.433 . S
C1844 H1840 0.929 . S
C1844 C1846 1.378 . S
C1844 C1848 1.350 . S
C1845 C1848 1.463 . S
C1845 C1850 1.350 . S
C1845 N1853 1.427 . S
C1846 H1837 0.930 . S
C1846 C1844 1.378 . S
C1846 C1847 1.367 . S
C1847 C1846 1.367 . S
C1847 C1849 1.433 . S
C1848 C1844 1.350 . S
C1848 C1845 1.463 . S
C1848 N1852 1.427 . S
C1849 H1839 0.929 . S
C1849 C1847 1.433 . S
C1849 N1852 1.384 . S
C1850 H1841 0.929 . S
C1850 C1842 1.378 . S
C1850 C1845 1.350 . S
C1851 H1838 0.929 . S
C1851 C1843 1.433 . S
C1851 N1853 1.384 . S
N1852 C1848 1.427 . S
N1852 C1849 1.384 . S
N1853 C1845 1.427 . S
N1853 C1851 1.384 . S
H1854 C1860 0.930 . S
H1855 C1864 0.930 . S
H1856 C1869 0.929 . S
H1857 C1867 0.929 . S
H1858 C1862 0.929 . S
H1859 C1868 0.929 . S
C1860 H1854 0.930 . S
C1860 C1861 1.367 . S
C1860 C1868 1.378 . S
C1861 C1860 1.367 . S
C1861 C1869 1.433 . S
C1862 H1858 0.929 . S
C1862 C1864 1.378 . S
C1862 C1866 1.350 . S
C1863 C1866 1.463 . S
C1863 C1868 1.350 . S
C1863 N1871 1.427 . S
C1864 H1855 0.930 . S
C1864 C1862 1.378 . S
C1864 C1865 1.367 . S
C1865 C1864 1.367 . S
C1865 C1867 1.433 . S
C1866 C1862 1.350 . S
C1866 C1863 1.463 . S
C1866 N1870 1.427 . S
C1867 H1857 0.929 . S
C1867 C1865 1.433 . S
C1867 N1870 1.384 . S
C1868 H1859 0.929 . S
C1868 C1860 1.378 . S
C1868 C1863 1.350 . S
C1869 H1856 0.929 . S
C1869 C1861 1.433 . S
C1869 N1871 1.384 . S
N1870 C1866 1.427 . S
N1870 C1867 1.384 . S
N1871 C1863 1.427 . S
N1871 C1869 1.384 . S
H1872 C1878 0.930 . S
H1873 C1882 0.930 . S
H1874 C1887 0.929 . S
H1875 C1885 0.929 . S
H1876 C1880 0.929 . S
H1877 C1886 0.929 1_565 S
C1878 H1872 0.930 . S
C1878 C1879 1.367 . S
C1878 C1886 1.378 . S
C1879 C1878 1.367 . S
C1879 C1887 1.433 . S
C1880 H1876 0.929 . S
C1880 C1882 1.378 . S
C1880 C1884 1.350 . S
C1881 C1884 1.463 1_545 S
C1881 C1886 1.350 . S
C1881 N1889 1.427 . S
C1882 H1873 0.930 . S
C1882 C1880 1.378 . S
C1882 C1883 1.367 . S
C1883 C1882 1.367 . S
C1883 C1885 1.433 . S
C1884 C1880 1.350 . S
C1884 C1881 1.463 1_565 S
C1884 N1888 1.427 . S
C1885 H1875 0.929 . S
C1885 C1883 1.433 . S
C1885 N1888 1.384 . S
C1886 H1877 0.929 1_545 S
C1886 C1878 1.378 . S
C1886 C1881 1.350 . S
C1887 H1874 0.929 . S
C1887 C1879 1.433 . S
C1887 N1889 1.384 . S
N1888 C1884 1.427 . S
N1888 C1885 1.384 . S
N1889 C1881 1.427 . S
N1889 C1887 1.384 . S
H1890 C1896 0.930 . S
H1891 C1900 0.930 . S
H1892 C1905 0.929 1_545 S
H1893 C1903 0.929 . S
H1894 C1898 0.929 . S
H1895 C1904 0.929 . S
C1896 H1890 0.930 . S
C1896 C1897 1.367 1_565 S
C1896 C1904 1.378 . S
C1897 C1896 1.367 1_545 S
C1897 C1905 1.433 1_545 S
C1898 H1894 0.929 . S
C1898 C1900 1.378 1_455 S
C1898 C1902 1.350 . S
C1899 C1902 1.463 . S
C1899 C1904 1.350 . S
C1899 N1907 1.427 . S
C1900 H1891 0.930 . S
C1900 C1898 1.378 1_655 S
C1900 C1901 1.367 . S
C1901 C1900 1.367 . S
C1901 C1903 1.433 . S
C1902 C1898 1.350 . S
C1902 C1899 1.463 . S
C1902 N1906 1.427 . S
C1903 H1893 0.929 . S
C1903 C1901 1.433 . S
C1903 N1906 1.384 1_655 S
C1904 H1895 0.929 . S
C1904 C1896 1.378 . S
C1904 C1899 1.350 . S
C1905 H1892 0.929 1_565 S
C1905 C1897 1.433 1_565 S
C1905 N1907 1.384 . S
N1906 C1902 1.427 . S
N1906 C1903 1.384 1_455 S
N1907 C1899 1.427 . S
N1907 C1905 1.384 . S
H1908 C1914 0.930 . S
H1909 C1918 0.930 . S
H1910 C1923 0.929 . S
H1911 C1921 0.929 . S
H1912 C1916 0.929 . S
H1913 C1922 0.929 . S
C1914 H1908 0.930 . S
C1914 C1915 1.367 . S
C1914 C1922 1.378 . S
C1915 C1914 1.367 . S
C1915 C1923 1.433 . S
C1916 H1912 0.929 . S
C1916 C1918 1.378 1_565 S
C1916 C1920 1.350 . S
C1917 C1920 1.463 . S
C1917 C1922 1.350 . S
C1917 N1925 1.427 . S
C1918 H1909 0.930 . S
C1918 C1916 1.378 1_545 S
C1918 C1919 1.367 . S
C1919 C1918 1.367 . S
C1919 C1921 1.433 1_545 S
C1920 C1916 1.350 . S
C1920 C1917 1.463 . S
C1920 N1924 1.427 . S
C1921 H1911 0.929 . S
C1921 C1919 1.433 1_565 S
C1921 N1924 1.384 . S
C1922 H1913 0.929 . S
C1922 C1914 1.378 . S
C1922 C1917 1.350 . S
C1923 H1910 0.929 . S
C1923 C1915 1.433 . S
C1923 N1925 1.384 . S
N1924 C1920 1.427 . S
N1924 C1921 1.384 . S
N1925 C1917 1.427 . S
N1925 C1923 1.384 . S
H1926 C1932 0.930 . S
H1927 C1936 0.930 . S
H1928 C1941 0.929 . S
H1929 C1939 0.929 . S
H1930 C1934 0.929 . S
H1931 C1940 0.929 . S
C1932 H1926 0.930 . S
C1932 C1933 1.367 . S
C1932 C1940 1.378 . S
C1933 C1932 1.367 . S
C1933 C1941 1.433 . S
C1934 H1930 0.929 . S
C1934 C1936 1.378 . S
C1934 C1938 1.350 . S
C1935 C1938 1.463 1_545 S
C1935 C1940 1.350 . S
C1935 N1943 1.427 . S
C1936 H1927 0.930 . S
C1936 C1934 1.378 . S
C1936 C1937 1.367 . S
C1937 C1936 1.367 . S
C1937 C1939 1.433 . S
C1938 C1934 1.350 . S
C1938 C1935 1.463 1_565 S
C1938 N1942 1.427 . S
C1939 H1929 0.929 . S
C1939 C1937 1.433 . S
C1939 N1942 1.384 . S
C1940 H1931 0.929 . S
C1940 C1932 1.378 . S
C1940 C1935 1.350 . S
C1941 H1928 0.929 . S
C1941 C1933 1.433 . S
C1941 N1943 1.384 . S
N1942 C1938 1.427 . S
N1942 C1939 1.384 . S
N1943 C1935 1.427 . S
N1943 C1941 1.384 . S
H1944 C1950 0.930 . S
H1945 C1954 0.930 . S
H1946 C1959 0.929 . S
H1947 C1957 0.929 . S
H1948 C1952 0.929 . S
H1949 C1958 0.929 . S
C1950 H1944 0.930 . S
C1950 C1951 1.367 . S
C1950 C1958 1.378 . S
C1951 C1950 1.367 . S
C1951 C1959 1.433 . S
C1952 H1948 0.929 . S
C1952 C1954 1.378 . S
C1952 C1956 1.350 . S
C1953 C1956 1.463 . S
C1953 C1958 1.350 . S
C1953 N1961 1.427 . S
C1954 H1945 0.930 . S
C1954 C1952 1.378 . S
C1954 C1955 1.367 1_455 S
C1955 C1954 1.367 1_655 S
C1955 C1957 1.433 . S
C1956 C1952 1.350 . S
C1956 C1953 1.463 . S
C1956 N1960 1.427 . S
C1957 H1947 0.929 . S
C1957 C1955 1.433 . S
C1957 N1960 1.384 1_655 S
C1958 H1949 0.929 . S
C1958 C1950 1.378 . S
C1958 C1953 1.350 . S
C1959 H1946 0.929 . S
C1959 C1951 1.433 . S
C1959 N1961 1.384 . S
N1960 C1956 1.427 . S
N1960 C1957 1.384 1_455 S
N1961 C1953 1.427 . S
N1961 C1959 1.384 . S
H1962 C1968 0.930 . S
H1963 C1972 0.930 . S
H1964 C1977 0.929 . S
H1965 C1975 0.929 . S
H1966 C1970 0.929 . S
H1967 C1976 0.929 . S
C1968 H1962 0.930 . S
C1968 C1969 1.367 . S
C1968 C1976 1.378 . S
C1969 C1968 1.367 . S
C1969 C1977 1.433 . S
C1970 H1966 0.929 . S
C1970 C1972 1.378 . S
C1970 C1974 1.350 . S
C1971 C1974 1.463 . S
C1971 C1976 1.350 . S
C1971 N1979 1.427 . S
C1972 H1963 0.930 . S
C1972 C1970 1.378 . S
C1972 C1973 1.367 . S
C1973 C1972 1.367 . S
C1973 C1975 1.433 . S
C1974 C1970 1.350 . S
C1974 C1971 1.463 . S
C1974 N1978 1.427 . S
C1975 H1965 0.929 . S
C1975 C1973 1.433 . S
C1975 N1978 1.384 . S
C1976 H1967 0.929 . S
C1976 C1968 1.378 . S
C1976 C1971 1.350 . S
C1977 H1964 0.929 . S
C1977 C1969 1.433 . S
C1977 N1979 1.384 . S
N1978 C1974 1.427 . S
N1978 C1975 1.384 . S
N1979 C1971 1.427 . S
N1979 C1977 1.384 . S
H1980 C1986 0.930 . S
H1981 C1990 0.930 . S
H1982 C1995 0.929 . S
H1983 C1993 0.929 . S
H1984 C1988 0.929 . S
H1985 C1994 0.929 . S
C1986 H1980 0.930 . S
C1986 C1987 1.367 . S
C1986 C1994 1.378 . S
C1987 C1986 1.367 . S
C1987 C1995 1.433 . S
C1988 H1984 0.929 . S
C1988 C1990 1.378 . S
C1988 C1992 1.350 . S
C1989 C1992 1.463 . S
C1989 C1994 1.350 . S
C1989 N1997 1.427 . S
C1990 H1981 0.930 . S
C1990 C1988 1.378 . S
C1990 C1991 1.367 . S
C1991 C1990 1.367 . S
C1991 C1993 1.433 . S
C1992 C1988 1.350 . S
C1992 C1989 1.463 . S
C1992 N1996 1.427 . S
C1993 H1983 0.929 . S
C1993 C1991 1.433 . S
C1993 N1996 1.384 . S
C1994 H1985 0.929 . S
C1994 C1986 1.378 . S
C1994 C1989 1.350 . S
C1995 H1982 0.929 . S
C1995 C1987 1.433 . S
C1995 N1997 1.384 . S
N1996 C1992 1.427 . S
N1996 C1993 1.384 . S
N1997 C1989 1.427 . S
N1997 C1995 1.384 . S
H1998 C2004 0.930 . S
H1999 C2008 0.930 . S
H2000 C2013 0.929 . S
H2001 C2011 0.929 . S
H2002 C2006 0.929 . S
H2003 C2012 0.929 . S
C2004 H1998 0.930 . S
C2004 C2005 1.367 . S
C2004 C2012 1.378 . S
C2005 C2004 1.367 . S
C2005 C2013 1.433 . S
C2006 H2002 0.929 . S
C2006 C2008 1.378 . S
C2006 C2010 1.350 . S
C2007 C2010 1.463 . S
C2007 C2012 1.350 . S
C2007 N2015 1.427 . S
C2008 H1999 0.930 . S
C2008 C2006 1.378 . S
C2008 C2009 1.367 . S
C2009 C2008 1.367 . S
C2009 C2011 1.433 . S
C2010 C2006 1.350 . S
C2010 C2007 1.463 . S
C2010 N2014 1.427 . S
C2011 H2001 0.929 . S
C2011 C2009 1.433 . S
C2011 N2014 1.384 . S
C2012 H2003 0.929 . S
C2012 C2004 1.378 . S
C2012 C2007 1.350 . S
C2013 H2000 0.929 . S
C2013 C2005 1.433 . S
C2013 N2015 1.384 . S
N2014 C2010 1.427 . S
N2014 C2011 1.384 . S
N2015 C2007 1.427 . S
N2015 C2013 1.384 . S
H2016 C2022 0.930 . S
H2017 C2026 0.930 . S
H2018 C2031 0.929 . S
H2019 C2029 0.929 . S
H2020 C2024 0.929 . S
H2021 C2030 0.929 . S
C2022 H2016 0.930 . S
C2022 C2023 1.367 . S
C2022 C2030 1.378 . S
C2023 C2022 1.367 . S
C2023 C2031 1.433 . S
C2024 H2020 0.929 . S
C2024 C2026 1.378 . S
C2024 C2028 1.350 . S
C2025 C2028 1.463 . S
C2025 C2030 1.350 . S
C2025 N2033 1.427 . S
C2026 H2017 0.930 . S
C2026 C2024 1.378 . S
C2026 C2027 1.367 . S
C2027 C2026 1.367 . S
C2027 C2029 1.433 . S
C2028 C2024 1.350 . S
C2028 C2025 1.463 . S
C2028 N2032 1.427 . S
C2029 H2019 0.929 . S
C2029 C2027 1.433 . S
C2029 N2032 1.384 . S
C2030 H2021 0.929 . S
C2030 C2022 1.378 . S
C2030 C2025 1.350 . S
C2031 H2018 0.929 . S
C2031 C2023 1.433 . S
C2031 N2033 1.384 . S
N2032 C2028 1.427 . S
N2032 C2029 1.384 . S
N2033 C2025 1.427 . S
N2033 C2031 1.384 . S
H2034 C2040 0.930 . S
H2035 C2044 0.930 . S
H2036 C2049 0.929 . S
H2037 C2047 0.929 . S
H2038 C2042 0.929 . S
H2039 C2048 0.929 . S
C2040 H2034 0.930 . S
C2040 C2041 1.367 . S
C2040 C2048 1.378 . S
C2041 C2040 1.367 . S
C2041 C2049 1.433 . S
C2042 H2038 0.929 . S
C2042 C2044 1.378 . S
C2042 C2046 1.350 . S
C2043 C2046 1.463 . S
C2043 C2048 1.350 . S
C2043 N2051 1.427 . S
C2044 H2035 0.930 . S
C2044 C2042 1.378 . S
C2044 C2045 1.367 . S
C2045 C2044 1.367 . S
C2045 C2047 1.433 . S
C2046 C2042 1.350 . S
C2046 C2043 1.463 . S
C2046 N2050 1.427 . S
C2047 H2037 0.929 . S
C2047 C2045 1.433 . S
C2047 N2050 1.384 . S
C2048 H2039 0.929 . S
C2048 C2040 1.378 . S
C2048 C2043 1.350 . S
C2049 H2036 0.929 . S
C2049 C2041 1.433 . S
C2049 N2051 1.384 . S
N2050 C2046 1.427 . S
N2050 C2047 1.384 . S
N2051 C2043 1.427 . S
N2051 C2049 1.384 . S
H2052 C2058 0.930 . S
H2053 C2062 0.930 . S
H2054 C2067 0.929 . S
H2055 C2065 0.929 . S
H2056 C2060 0.929 . S
H2057 C2066 0.929 . S
C2058 H2052 0.930 . S
C2058 C2059 1.367 . S
C2058 C2066 1.378 . S
C2059 C2058 1.367 . S
C2059 C2067 1.433 . S
C2060 H2056 0.929 . S
C2060 C2062 1.378 . S
C2060 C2064 1.350 . S
C2061 C2064 1.463 . S
C2061 C2066 1.350 . S
C2061 N2069 1.427 . S
C2062 H2053 0.930 . S
C2062 C2060 1.378 . S
C2062 C2063 1.367 . S
C2063 C2062 1.367 . S
C2063 C2065 1.433 . S
C2064 C2060 1.350 . S
C2064 C2061 1.463 . S
C2064 N2068 1.427 . S
C2065 H2055 0.929 . S
C2065 C2063 1.433 . S
C2065 N2068 1.384 . S
C2066 H2057 0.929 . S
C2066 C2058 1.378 . S
C2066 C2061 1.350 . S
C2067 H2054 0.929 . S
C2067 C2059 1.433 . S
C2067 N2069 1.384 . S
N2068 C2064 1.427 . S
N2068 C2065 1.384 . S
N2069 C2061 1.427 . S
N2069 C2067 1.384 . S
H2070 C2076 0.930 . S
H2071 C2080 0.930 . S
H2072 C2085 0.929 . S
H2073 C2083 0.929 . S
H2074 C2078 0.929 . S
H2075 C2084 0.929 . S
C2076 H2070 0.930 . S
C2076 C2077 1.367 . S
C2076 C2084 1.378 . S
C2077 C2076 1.367 . S
C2077 C2085 1.433 . S
C2078 H2074 0.929 . S
C2078 C2080 1.378 . S
C2078 C2082 1.350 . S
C2079 C2082 1.463 . S
C2079 C2084 1.350 . S
C2079 N2087 1.427 . S
C2080 H2071 0.930 . S
C2080 C2078 1.378 . S
C2080 C2081 1.367 . S
C2081 C2080 1.367 . S
C2081 C2083 1.433 . S
C2082 C2078 1.350 . S
C2082 C2079 1.463 . S
C2082 N2086 1.427 . S
C2083 H2073 0.929 . S
C2083 C2081 1.433 . S
C2083 N2086 1.384 . S
C2084 H2075 0.929 . S
C2084 C2076 1.378 . S
C2084 C2079 1.350 . S
C2085 H2072 0.929 . S
C2085 C2077 1.433 . S
C2085 N2087 1.384 . S
N2086 C2082 1.427 . S
N2086 C2083 1.384 . S
N2087 C2079 1.427 . S
N2087 C2085 1.384 . S
H2088 C2094 0.930 . S
H2089 C2098 0.930 . S
H2090 C2103 0.929 . S
H2091 C2101 0.929 . S
H2092 C2096 0.929 . S
H2093 C2102 0.929 . S
C2094 H2088 0.930 . S
C2094 C2095 1.367 . S
C2094 C2102 1.378 . S
C2095 C2094 1.367 . S
C2095 C2103 1.433 . S
C2096 H2092 0.929 . S
C2096 C2098 1.378 . S
C2096 C2100 1.350 . S
C2097 C2100 1.463 . S
C2097 C2102 1.350 . S
C2097 N2105 1.427 . S
C2098 H2089 0.930 . S
C2098 C2096 1.378 . S
C2098 C2099 1.367 . S
C2099 C2098 1.367 . S
C2099 C2101 1.433 . S
C2100 C2096 1.350 . S
C2100 C2097 1.463 . S
C2100 N2104 1.427 . S
C2101 H2091 0.929 . S
C2101 C2099 1.433 . S
C2101 N2104 1.384 . S
C2102 H2093 0.929 . S
C2102 C2094 1.378 . S
C2102 C2097 1.350 . S
C2103 H2090 0.929 . S
C2103 C2095 1.433 . S
C2103 N2105 1.384 . S
N2104 C2100 1.427 . S
N2104 C2101 1.384 . S
N2105 C2097 1.427 . S
N2105 C2103 1.384 . S
H2106 C2112 0.930 . S
H2107 C2116 0.930 . S
H2108 C2121 0.929 . S
H2109 C2119 0.929 . S
H2110 C2114 0.929 . S
H2111 C2120 0.929 . S
C2112 H2106 0.930 . S
C2112 C2113 1.367 . S
C2112 C2120 1.378 . S
C2113 C2112 1.367 . S
C2113 C2121 1.433 . S
C2114 H2110 0.929 . S
C2114 C2116 1.378 . S
C2114 C2118 1.350 . S
C2115 C2118 1.463 . S
C2115 C2120 1.350 . S
C2115 N2123 1.427 . S
C2116 H2107 0.930 . S
C2116 C2114 1.378 . S
C2116 C2117 1.367 . S
C2117 C2116 1.367 . S
C2117 C2119 1.433 . S
C2118 C2114 1.350 . S
C2118 C2115 1.463 . S
C2118 N2122 1.427 . S
C2119 H2109 0.929 . S
C2119 C2117 1.433 . S
C2119 N2122 1.384 . S
C2120 H2111 0.929 . S
C2120 C2112 1.378 . S
C2120 C2115 1.350 . S
C2121 H2108 0.929 . S
C2121 C2113 1.433 . S
C2121 N2123 1.384 . S
N2122 C2118 1.427 . S
N2122 C2119 1.384 . S
N2123 C2115 1.427 . S
N2123 C2121 1.384 . S
H2124 C2130 0.930 . S
H2125 C2134 0.930 . S
H2126 C2139 0.929 . S
H2127 C2137 0.929 . S
H2128 C2132 0.929 . S
H2129 C2138 0.929 . S
C2130 H2124 0.930 . S
C2130 C2131 1.367 . S
C2130 C2138 1.378 . S
C2131 C2130 1.367 . S
C2131 C2139 1.433 . S
C2132 H2128 0.929 . S
C2132 C2134 1.378 . S
C2132 C2136 1.350 . S
C2133 C2136 1.463 . S
C2133 C2138 1.350 . S
C2133 N2141 1.427 . S
C2134 H2125 0.930 . S
C2134 C2132 1.378 . S
C2134 C2135 1.367 . S
C2135 C2134 1.367 . S
C2135 C2137 1.433 . S
C2136 C2132 1.350 . S
C2136 C2133 1.463 . S
C2136 N2140 1.427 . S
C2137 H2127 0.929 . S
C2137 C2135 1.433 . S
C2137 N2140 1.384 . S
C2138 H2129 0.929 . S
C2138 C2130 1.378 . S
C2138 C2133 1.350 . S
C2139 H2126 0.929 . S
C2139 C2131 1.433 . S
C2139 N2141 1.384 . S
N2140 C2136 1.427 . S
N2140 C2137 1.384 . S
N2141 C2133 1.427 . S
N2141 C2139 1.384 . S
H2142 C2148 0.930 . S
H2143 C2152 0.930 . S
H2144 C2157 0.929 . S
H2145 C2155 0.929 . S
H2146 C2150 0.929 . S
H2147 C2156 0.929 . S
C2148 H2142 0.930 . S
C2148 C2149 1.367 . S
C2148 C2156 1.378 . S
C2149 C2148 1.367 . S
C2149 C2157 1.433 . S
C2150 H2146 0.929 . S
C2150 C2152 1.378 . S
C2150 C2154 1.350 . S
C2151 C2154 1.463 . S
C2151 C2156 1.350 . S
C2151 N2159 1.427 . S
C2152 H2143 0.930 . S
C2152 C2150 1.378 . S
C2152 C2153 1.367 . S
C2153 C2152 1.367 . S
C2153 C2155 1.433 . S
C2154 C2150 1.350 . S
C2154 C2151 1.463 . S
C2154 N2158 1.427 . S
C2155 H2145 0.929 . S
C2155 C2153 1.433 . S
C2155 N2158 1.384 . S
C2156 H2147 0.929 . S
C2156 C2148 1.378 . S
C2156 C2151 1.350 . S
C2157 H2144 0.929 . S
C2157 C2149 1.433 . S
C2157 N2159 1.384 . S
N2158 C2154 1.427 . S
N2158 C2155 1.384 . S
N2159 C2151 1.427 . S
N2159 C2157 1.384 . S
H2160 C2166 0.930 . S
H2161 C2170 0.930 . S
H2162 C2175 0.929 . S
H2163 C2173 0.929 . S
H2164 C2168 0.929 . S
H2165 C2174 0.929 . S
C2166 H2160 0.930 . S
C2166 C2167 1.367 . S
C2166 C2174 1.378 . S
C2167 C2166 1.367 . S
C2167 C2175 1.433 . S
C2168 H2164 0.929 . S
C2168 C2170 1.378 . S
C2168 C2172 1.350 . S
C2169 C2172 1.463 . S
C2169 C2174 1.350 . S
C2169 N2177 1.427 . S
C2170 H2161 0.930 . S
C2170 C2168 1.378 . S
C2170 C2171 1.367 . S
C2171 C2170 1.367 . S
C2171 C2173 1.433 . S
C2172 C2168 1.350 . S
C2172 C2169 1.463 . S
C2172 N2176 1.427 . S
C2173 H2163 0.929 . S
C2173 C2171 1.433 . S
C2173 N2176 1.384 . S
C2174 H2165 0.929 . S
C2174 C2166 1.378 . S
C2174 C2169 1.350 . S
C2175 H2162 0.929 . S
C2175 C2167 1.433 . S
C2175 N2177 1.384 . S
N2176 C2172 1.427 . S
N2176 C2173 1.384 . S
N2177 C2169 1.427 . S
N2177 C2175 1.384 . S
H2178 C2184 0.930 . S
H2179 C2188 0.930 . S
H2180 C2193 0.929 . S
H2181 C2191 0.929 . S
H2182 C2186 0.929 . S
H2183 C2192 0.929 . S
C2184 H2178 0.930 . S
C2184 C2185 1.367 . S
C2184 C2192 1.378 . S
C2185 C2184 1.367 . S
C2185 C2193 1.433 . S
C2186 H2182 0.929 . S
C2186 C2188 1.378 . S
C2186 C2190 1.350 . S
C2187 C2190 1.463 . S
C2187 C2192 1.350 . S
C2187 N2195 1.427 . S
C2188 H2179 0.930 . S
C2188 C2186 1.378 . S
C2188 C2189 1.367 . S
C2189 C2188 1.367 . S
C2189 C2191 1.433 . S
C2190 C2186 1.350 . S
C2190 C2187 1.463 . S
C2190 N2194 1.427 . S
C2191 H2181 0.929 . S
C2191 C2189 1.433 . S
C2191 N2194 1.384 . S
C2192 H2183 0.929 . S
C2192 C2184 1.378 . S
C2192 C2187 1.350 . S
C2193 H2180 0.929 . S
C2193 C2185 1.433 . S
C2193 N2195 1.384 . S
N2194 C2190 1.427 . S
N2194 C2191 1.384 . S
N2195 C2187 1.427 . S
N2195 C2193 1.384 . S
H2196 C2202 0.930 . S
H2197 C2206 0.930 . S
H2198 C2211 0.929 . S
H2199 C2209 0.929 . S
H2200 C2204 0.929 . S
H2201 C2210 0.929 . S
C2202 H2196 0.930 . S
C2202 C2203 1.367 . S
C2202 C2210 1.378 . S
C2203 C2202 1.367 . S
C2203 C2211 1.433 . S
C2204 H2200 0.929 . S
C2204 C2206 1.378 . S
C2204 C2208 1.350 . S
C2205 C2208 1.463 . S
C2205 C2210 1.350 . S
C2205 N2213 1.427 . S
C2206 H2197 0.930 . S
C2206 C2204 1.378 . S
C2206 C2207 1.367 . S
C2207 C2206 1.367 . S
C2207 C2209 1.433 . S
C2208 C2204 1.350 . S
C2208 C2205 1.463 . S
C2208 N2212 1.427 . S
C2209 H2199 0.929 . S
C2209 C2207 1.433 . S
C2209 N2212 1.384 . S
C2210 H2201 0.929 . S
C2210 C2202 1.378 . S
C2210 C2205 1.350 . S
C2211 H2198 0.929 . S
C2211 C2203 1.433 . S
C2211 N2213 1.384 . S
N2212 C2208 1.427 . S
N2212 C2209 1.384 . S
N2213 C2205 1.427 . S
N2213 C2211 1.384 . S
H2214 C2220 0.930 . S
H2215 C2224 0.930 . S
H2216 C2229 0.929 . S
H2217 C2227 0.929 . S
H2218 C2222 0.929 . S
H2219 C2228 0.929 . S
C2220 H2214 0.930 . S
C2220 C2221 1.367 . S
C2220 C2228 1.378 . S
C2221 C2220 1.367 . S
C2221 C2229 1.433 . S
C2222 H2218 0.929 . S
C2222 C2224 1.378 . S
C2222 C2226 1.350 . S
C2223 C2226 1.463 . S
C2223 C2228 1.350 . S
C2223 N2231 1.427 . S
C2224 H2215 0.930 . S
C2224 C2222 1.378 . S
C2224 C2225 1.367 . S
C2225 C2224 1.367 . S
C2225 C2227 1.433 . S
C2226 C2222 1.350 . S
C2226 C2223 1.463 . S
C2226 N2230 1.427 . S
C2227 H2217 0.929 . S
C2227 C2225 1.433 . S
C2227 N2230 1.384 . S
C2228 H2219 0.929 . S
C2228 C2220 1.378 . S
C2228 C2223 1.350 . S
C2229 H2216 0.929 . S
C2229 C2221 1.433 . S
C2229 N2231 1.384 . S
N2230 C2226 1.427 . S
N2230 C2227 1.384 . S
N2231 C2223 1.427 . S
N2231 C2229 1.384 . S
H2232 C2238 0.930 . S
H2233 C2242 0.930 . S
H2234 C2247 0.929 . S
H2235 C2245 0.929 . S
H2236 C2240 0.929 . S
H2237 C2246 0.929 . S
C2238 H2232 0.930 . S
C2238 C2239 1.367 . S
C2238 C2246 1.378 . S
C2239 C2238 1.367 . S
C2239 C2247 1.433 . S
C2240 H2236 0.929 . S
C2240 C2242 1.378 . S
C2240 C2244 1.350 . S
C2241 C2244 1.463 . S
C2241 C2246 1.350 . S
C2241 N2249 1.427 . S
C2242 H2233 0.930 . S
C2242 C2240 1.378 . S
C2242 C2243 1.367 . S
C2243 C2242 1.367 . S
C2243 C2245 1.433 . S
C2244 C2240 1.350 . S
C2244 C2241 1.463 . S
C2244 N2248 1.427 . S
C2245 H2235 0.929 . S
C2245 C2243 1.433 . S
C2245 N2248 1.384 . S
C2246 H2237 0.929 . S
C2246 C2238 1.378 . S
C2246 C2241 1.350 . S
C2247 H2234 0.929 . S
C2247 C2239 1.433 . S
C2247 N2249 1.384 . S
N2248 C2244 1.427 . S
N2248 C2245 1.384 . S
N2249 C2241 1.427 . S
N2249 C2247 1.384 . S
H2250 C2256 0.930 . S
H2251 C2260 0.930 . S
H2252 C2265 0.929 . S
H2253 C2263 0.929 . S
H2254 C2258 0.929 . S
H2255 C2264 0.929 . S
C2256 H2250 0.930 . S
C2256 C2257 1.367 . S
C2256 C2264 1.378 . S
C2257 C2256 1.367 . S
C2257 C2265 1.433 . S
C2258 H2254 0.929 . S
C2258 C2260 1.378 . S
C2258 C2262 1.350 . S
C2259 C2262 1.463 . S
C2259 C2264 1.350 . S
C2259 N2267 1.427 . S
C2260 H2251 0.930 . S
C2260 C2258 1.378 . S
C2260 C2261 1.367 . S
C2261 C2260 1.367 . S
C2261 C2263 1.433 . S
C2262 C2258 1.350 . S
C2262 C2259 1.463 . S
C2262 N2266 1.427 . S
C2263 H2253 0.929 . S
C2263 C2261 1.433 . S
C2263 N2266 1.384 . S
C2264 H2255 0.929 . S
C2264 C2256 1.378 . S
C2264 C2259 1.350 . S
C2265 H2252 0.929 . S
C2265 C2257 1.433 . S
C2265 N2267 1.384 . S
N2266 C2262 1.427 . S
N2266 C2263 1.384 . S
N2267 C2259 1.427 . S
N2267 C2265 1.384 . S
H2268 C2274 0.930 . S
H2269 C2278 0.930 . S
H2270 C2283 0.929 . S
H2271 C2281 0.929 . S
H2272 C2276 0.929 . S
H2273 C2282 0.929 . S
C2274 H2268 0.930 . S
C2274 C2275 1.367 . S
C2274 C2282 1.378 . S
C2275 C2274 1.367 . S
C2275 C2283 1.433 . S
C2276 H2272 0.929 . S
C2276 C2278 1.378 . S
C2276 C2280 1.350 . S
C2277 C2280 1.463 . S
C2277 C2282 1.350 . S
C2277 N2285 1.427 . S
C2278 H2269 0.930 . S
C2278 C2276 1.378 . S
C2278 C2279 1.367 . S
C2279 C2278 1.367 . S
C2279 C2281 1.433 . S
C2280 C2276 1.350 . S
C2280 C2277 1.463 . S
C2280 N2284 1.427 . S
C2281 H2271 0.929 . S
C2281 C2279 1.433 . S
C2281 N2284 1.384 . S
C2282 H2273 0.929 . S
C2282 C2274 1.378 . S
C2282 C2277 1.350 . S
C2283 H2270 0.929 . S
C2283 C2275 1.433 . S
C2283 N2285 1.384 . S
N2284 C2280 1.427 . S
N2284 C2281 1.384 . S
N2285 C2277 1.427 . S
N2285 C2283 1.384 . S
H2286 C2292 0.930 . S
H2287 C2296 0.930 . S
H2288 C2301 0.929 . S
H2289 C2299 0.929 . S
H2290 C2294 0.929 . S
H2291 C2300 0.929 . S
C2292 H2286 0.930 . S
C2292 C2293 1.367 . S
C2292 C2300 1.378 1_455 S
C2293 C2292 1.367 . S
C2293 C2301 1.433 . S
C2294 H2290 0.929 . S
C2294 C2296 1.378 . S
C2294 C2298 1.350 . S
C2295 C2298 1.463 . S
C2295 C2300 1.350 . S
C2295 N2303 1.427 . S
C2296 H2287 0.930 . S
C2296 C2294 1.378 . S
C2296 C2297 1.367 . S
C2297 C2296 1.367 . S
C2297 C2299 1.433 . S
C2298 C2294 1.350 . S
C2298 C2295 1.463 . S
C2298 N2302 1.427 . S
C2299 H2289 0.929 . S
C2299 C2297 1.433 . S
C2299 N2302 1.384 . S
C2300 H2291 0.929 . S
C2300 C2292 1.378 1_655 S
C2300 C2295 1.350 . S
C2301 H2288 0.929 . S
C2301 C2293 1.433 . S
C2301 N2303 1.384 1_455 S
N2302 C2298 1.427 . S
N2302 C2299 1.384 . S
N2303 C2295 1.427 . S
N2303 C2301 1.384 1_655 S
H2304 C2310 0.930 1_565 S
H2305 C2314 0.930 . S
H2306 C2319 0.929 . S
H2307 C2317 0.929 . S
H2308 C2312 0.929 . S
H2309 C2318 0.929 . S
C2310 H2304 0.930 1_545 S
C2310 C2311 1.367 1_545 S
C2310 C2318 1.378 . S
C2311 C2310 1.367 1_565 S
C2311 C2319 1.433 1_565 S
C2312 H2308 0.929 . S
C2312 C2314 1.378 . S
C2312 C2316 1.350 . S
C2313 C2316 1.463 . S
C2313 C2318 1.350 . S
C2313 N2321 1.427 . S
C2314 H2305 0.930 . S
C2314 C2312 1.378 . S
C2314 C2315 1.367 . S
C2315 C2314 1.367 . S
C2315 C2317 1.433 . S
C2316 C2312 1.350 . S
C2316 C2313 1.463 . S
C2316 N2320 1.427 . S
C2317 H2307 0.929 . S
C2317 C2315 1.433 . S
C2317 N2320 1.384 . S
C2318 H2309 0.929 . S
C2318 C2310 1.378 . S
C2318 C2313 1.350 . S
C2319 H2306 0.929 . S
C2319 C2311 1.433 1_545 S
C2319 N2321 1.384 . S
N2320 C2316 1.427 . S
N2320 C2317 1.384 . S
N2321 C2313 1.427 . S
N2321 C2319 1.384 . S
H2322 C2328 0.930 . S
H2323 C2332 0.930 . S
H2324 C2337 0.929 . S
H2325 C2335 0.929 . S
H2326 C2330 0.929 . S
H2327 C2336 0.929 . S
C2328 H2322 0.930 . S
C2328 C2329 1.367 . S
C2328 C2336 1.378 1_455 S
C2329 C2328 1.367 . S
C2329 C2337 1.433 . S
C2330 H2326 0.929 . S
C2330 C2332 1.378 . S
C2330 C2334 1.350 . S
C2331 C2334 1.463 . S
C2331 C2336 1.350 . S
C2331 N2339 1.427 1_655 S
C2332 H2323 0.930 . S
C2332 C2330 1.378 . S
C2332 C2333 1.367 . S
C2333 C2332 1.367 . S
C2333 C2335 1.433 . S
C2334 C2330 1.350 . S
C2334 C2331 1.463 . S
C2334 N2338 1.427 . S
C2335 H2325 0.929 . S
C2335 C2333 1.433 . S
C2335 N2338 1.384 . S
C2336 H2327 0.929 . S
C2336 C2328 1.378 1_655 S
C2336 C2331 1.350 . S
C2337 H2324 0.929 . S
C2337 C2329 1.433 . S
C2337 N2339 1.384 . S
N2338 C2334 1.427 . S
N2338 C2335 1.384 . S
N2339 C2331 1.427 1_455 S
N2339 C2337 1.384 . S
H2340 C2346 0.930 1_565 S
H2341 C2350 0.930 . S
H2342 C2355 0.929 . S
H2343 C2353 0.929 . S
H2344 C2348 0.929 . S
H2345 C2354 0.929 . S
C2346 H2340 0.930 1_545 S
C2346 C2347 1.367 . S
C2346 C2354 1.378 . S
C2347 C2346 1.367 . S
C2347 C2355 1.433 . S
C2348 H2344 0.929 . S
C2348 C2350 1.378 . S
C2348 C2352 1.350 . S
C2349 C2352 1.463 . S
C2349 C2354 1.350 . S
C2349 N2357 1.427 . S
C2350 H2341 0.930 . S
C2350 C2348 1.378 . S
C2350 C2351 1.367 . S
C2351 C2350 1.367 . S
C2351 C2353 1.433 . S
C2352 C2348 1.350 . S
C2352 C2349 1.463 . S
C2352 N2356 1.427 . S
C2353 H2343 0.929 . S
C2353 C2351 1.433 . S
C2353 N2356 1.384 . S
C2354 H2345 0.929 . S
C2354 C2346 1.378 . S
C2354 C2349 1.350 . S
C2355 H2342 0.929 . S
C2355 C2347 1.433 . S
C2355 N2357 1.384 . S
N2356 C2352 1.427 . S
N2356 C2353 1.384 . S
N2357 C2349 1.427 . S
N2357 C2355 1.384 . S
H2358 C2364 0.930 . S
H2359 C2368 0.930 . S
H2360 C2373 0.929 . S
H2361 C2371 0.929 . S
H2362 C2366 0.929 . S
H2363 C2372 0.929 . S
C2364 H2358 0.930 . S
C2364 C2365 1.367 . S
C2364 C2372 1.378 1_455 S
C2365 C2364 1.367 . S
C2365 C2373 1.433 . S
C2366 H2362 0.929 . S
C2366 C2368 1.378 . S
C2366 C2370 1.350 . S
C2367 C2370 1.463 . S
C2367 C2372 1.350 . S
C2367 N2375 1.427 . S
C2368 H2359 0.930 . S
C2368 C2366 1.378 . S
C2368 C2369 1.367 1_545 S
C2369 C2368 1.367 1_565 S
C2369 C2371 1.433 1_565 S
C2370 C2366 1.350 . S
C2370 C2367 1.463 . S
C2370 N2374 1.427 . S
C2371 H2361 0.929 . S
C2371 C2369 1.433 1_545 S
C2371 N2374 1.384 . S
C2372 H2363 0.929 . S
C2372 C2364 1.378 1_655 S
C2372 C2367 1.350 . S
C2373 H2360 0.929 . S
C2373 C2365 1.433 . S
C2373 N2375 1.384 1_455 S
N2374 C2370 1.427 . S
N2374 C2371 1.384 . S
N2375 C2367 1.427 . S
N2375 C2373 1.384 1_655 S
H2376 C2382 0.930 . S
H2377 C2386 0.930 . S
H2378 C2391 0.929 . S
H2379 C2389 0.929 . S
H2380 C2384 0.929 . S
H2381 C2390 0.929 . S
C2382 H2376 0.930 . S
C2382 C2383 1.367 . S
C2382 C2390 1.378 1_455 S
C2383 C2382 1.367 . S
C2383 C2391 1.433 . S
C2384 H2380 0.929 . S
C2384 C2386 1.378 . S
C2384 C2388 1.350 . S
C2385 C2388 1.463 . S
C2385 C2390 1.350 . S
C2385 N2393 1.427 1_655 S
C2386 H2377 0.930 . S
C2386 C2384 1.378 . S
C2386 C2387 1.367 . S
C2387 C2386 1.367 . S
C2387 C2389 1.433 . S
C2388 C2384 1.350 . S
C2388 C2385 1.463 . S
C2388 N2392 1.427 . S
C2389 H2379 0.929 . S
C2389 C2387 1.433 . S
C2389 N2392 1.384 . S
C2390 H2381 0.929 . S
C2390 C2382 1.378 1_655 S
C2390 C2385 1.350 . S
C2391 H2378 0.929 . S
C2391 C2383 1.433 . S
C2391 N2393 1.384 . S
N2392 C2388 1.427 . S
N2392 C2389 1.384 . S
N2393 C2385 1.427 1_455 S
N2393 C2391 1.384 . S
H2394 C2400 0.930 . S
H2395 C2404 0.930 . S
H2396 C2409 0.929 . S
H2397 C2407 0.929 . S
H2398 C2402 0.929 . S
H2399 C2408 0.929 . S
C2400 H2394 0.930 . S
C2400 C2401 1.367 . S
C2400 C2408 1.378 . S
C2401 C2400 1.367 . S
C2401 C2409 1.433 . S
C2402 H2398 0.929 . S
C2402 C2404 1.378 . S
C2402 C2406 1.350 . S
C2403 C2406 1.463 . S
C2403 C2408 1.350 . S
C2403 N2411 1.427 . S
C2404 H2395 0.930 . S
C2404 C2402 1.378 . S
C2404 C2405 1.367 . S
C2405 C2404 1.367 . S
C2405 C2407 1.433 . S
C2406 C2402 1.350 . S
C2406 C2403 1.463 . S
C2406 N2410 1.427 . S
C2407 H2397 0.929 . S
C2407 C2405 1.433 . S
C2407 N2410 1.384 . S
C2408 H2399 0.929 . S
C2408 C2400 1.378 . S
C2408 C2403 1.350 . S
C2409 H2396 0.929 . S
C2409 C2401 1.433 . S
C2409 N2411 1.384 . S
N2410 C2406 1.427 . S
N2410 C2407 1.384 . S
N2411 C2403 1.427 . S
N2411 C2409 1.384 . S
H2412 C2418 0.930 . S
H2413 C2422 0.930 . S
H2414 C2427 0.929 . S
H2415 C2425 0.929 . S
H2416 C2420 0.929 . S
H2417 C2426 0.929 . S
C2418 H2412 0.930 . S
C2418 C2419 1.367 . S
C2418 C2426 1.378 . S
C2419 C2418 1.367 . S
C2419 C2427 1.433 . S
C2420 H2416 0.929 . S
C2420 C2422 1.378 . S
C2420 C2424 1.350 . S
C2421 C2424 1.463 . S
C2421 C2426 1.350 . S
C2421 N2429 1.427 . S
C2422 H2413 0.930 . S
C2422 C2420 1.378 . S
C2422 C2423 1.367 . S
C2423 C2422 1.367 . S
C2423 C2425 1.433 . S
C2424 C2420 1.350 . S
C2424 C2421 1.463 . S
C2424 N2428 1.427 . S
C2425 H2415 0.929 . S
C2425 C2423 1.433 . S
C2425 N2428 1.384 . S
C2426 H2417 0.929 . S
C2426 C2418 1.378 . S
C2426 C2421 1.350 . S
C2427 H2414 0.929 . S
C2427 C2419 1.433 . S
C2427 N2429 1.384 . S
N2428 C2424 1.427 . S
N2428 C2425 1.384 . S
N2429 C2421 1.427 . S
N2429 C2427 1.384 . S
H2430 C2436 0.930 . S
H2431 C2440 0.930 . S
H2432 C2445 0.929 . S
H2433 C2443 0.929 . S
H2434 C2438 0.929 . S
H2435 C2444 0.929 . S
C2436 H2430 0.930 . S
C2436 C2437 1.367 . S
C2436 C2444 1.378 . S
C2437 C2436 1.367 . S
C2437 C2445 1.433 . S
C2438 H2434 0.929 . S
C2438 C2440 1.378 . S
C2438 C2442 1.350 . S
C2439 C2442 1.463 . S
C2439 C2444 1.350 . S
C2439 N2447 1.427 . S
C2440 H2431 0.930 . S
C2440 C2438 1.378 . S
C2440 C2441 1.367 . S
C2441 C2440 1.367 . S
C2441 C2443 1.433 . S
C2442 C2438 1.350 . S
C2442 C2439 1.463 . S
C2442 N2446 1.427 . S
C2443 H2433 0.929 . S
C2443 C2441 1.433 . S
C2443 N2446 1.384 . S
C2444 H2435 0.929 . S
C2444 C2436 1.378 . S
C2444 C2439 1.350 . S
C2445 H2432 0.929 . S
C2445 C2437 1.433 . S
C2445 N2447 1.384 . S
N2446 C2442 1.427 . S
N2446 C2443 1.384 . S
N2447 C2439 1.427 . S
N2447 C2445 1.384 . S
H2448 C2454 0.930 . S
H2449 C2458 0.930 . S
H2450 C2463 0.929 . S
H2451 C2461 0.929 . S
H2452 C2456 0.929 . S
H2453 C2462 0.929 . S
C2454 H2448 0.930 . S
C2454 C2455 1.367 . S
C2454 C2462 1.378 . S
C2455 C2454 1.367 . S
C2455 C2463 1.433 . S
C2456 H2452 0.929 . S
C2456 C2458 1.378 1_565 S
C2456 C2460 1.350 . S
C2457 C2460 1.463 . S
C2457 C2462 1.350 . S
C2457 N2465 1.427 . S
C2458 H2449 0.930 . S
C2458 C2456 1.378 1_545 S
C2458 C2459 1.367 . S
C2459 C2458 1.367 . S
C2459 C2461 1.433 . S
C2460 C2456 1.350 . S
C2460 C2457 1.463 . S
C2460 N2464 1.427 . S
C2461 H2451 0.929 . S
C2461 C2459 1.433 . S
C2461 N2464 1.384 1_545 S
C2462 H2453 0.929 . S
C2462 C2454 1.378 . S
C2462 C2457 1.350 . S
C2463 H2450 0.929 . S
C2463 C2455 1.433 . S
C2463 N2465 1.384 . S
N2464 C2460 1.427 . S
N2464 C2461 1.384 1_565 S
N2465 C2457 1.427 . S
N2465 C2463 1.384 . S
H2466 C2472 0.930 . S
H2467 C2476 0.930 . S
H2468 C2481 0.929 . S
H2469 C2479 0.929 . S
H2470 C2474 0.929 . S
H2471 C2480 0.929 . S
C2472 H2466 0.930 . S
C2472 C2473 1.367 . S
C2472 C2480 1.378 . S
C2473 C2472 1.367 . S
C2473 C2481 1.433 . S
C2474 H2470 0.929 . S
C2474 C2476 1.378 1_565 S
C2474 C2478 1.350 . S
C2475 C2478 1.463 . S
C2475 C2480 1.350 . S
C2475 N2483 1.427 . S
C2476 H2467 0.930 . S
C2476 C2474 1.378 1_545 S
C2476 C2477 1.367 . S
C2477 C2476 1.367 . S
C2477 C2479 1.433 . S
C2478 C2474 1.350 . S
C2478 C2475 1.463 . S
C2478 N2482 1.427 1_565 S
C2479 H2469 0.929 . S
C2479 C2477 1.433 . S
C2479 N2482 1.384 . S
C2480 H2471 0.929 . S
C2480 C2472 1.378 . S
C2480 C2475 1.350 . S
C2481 H2468 0.929 . S
C2481 C2473 1.433 . S
C2481 N2483 1.384 . S
N2482 C2478 1.427 1_545 S
N2482 C2479 1.384 . S
N2483 C2475 1.427 . S
N2483 C2481 1.384 . S
H2484 C2490 0.930 . S
H2485 C2494 0.930 . S
H2486 C2499 0.929 . S
H2487 C2497 0.928 . S
H2488 C2492 0.929 . S
H2489 C2498 0.929 . S
C2490 H2484 0.930 . S
C2490 C2491 1.367 . S
C2490 C2498 1.378 . S
C2491 C2490 1.367 . S
C2491 C2499 1.433 . S
C2492 H2488 0.929 . S
C2492 C2494 1.378 . S
C2492 C2496 1.350 . S
C2493 C2496 1.463 . S
C2493 C2498 1.350 . S
C2493 N2501 1.427 . S
C2494 H2485 0.930 . S
C2494 C2492 1.378 . S
C2494 C2495 1.367 1_455 S
C2495 C2494 1.367 1_655 S
C2495 C2497 1.433 1_655 S
C2496 C2492 1.350 . S
C2496 C2493 1.463 . S
C2496 N2500 1.427 . S
C2497 H2487 0.928 . S
C2497 C2495 1.433 1_455 S
C2497 N2500 1.384 . S
C2498 H2489 0.929 . S
C2498 C2490 1.378 . S
C2498 C2493 1.350 . S
C2499 H2486 0.929 . S
C2499 C2491 1.433 . S
C2499 N2501 1.384 . S
N2500 C2496 1.427 . S
N2500 C2497 1.384 . S
N2501 C2493 1.427 . S
N2501 C2499 1.384 . S
H2502 C2508 0.930 . S
H2503 C2512 0.930 . S
H2504 C2517 0.929 . S
H2505 C2515 0.929 . S
H2506 C2510 0.929 . S
H2507 C2516 0.929 . S
C2508 H2502 0.930 . S
C2508 C2509 1.367 . S
C2508 C2516 1.378 . S
C2509 C2508 1.367 . S
C2509 C2517 1.433 . S
C2510 H2506 0.929 . S
C2510 C2512 1.378 . S
C2510 C2514 1.350 . S
C2511 C2514 1.463 . S
C2511 C2516 1.350 . S
C2511 N2519 1.427 . S
C2512 H2503 0.930 . S
C2512 C2510 1.378 . S
C2512 C2513 1.367 . S
C2513 C2512 1.367 . S
C2513 C2515 1.433 . S
C2514 C2510 1.350 . S
C2514 C2511 1.463 . S
C2514 N2518 1.427 . S
C2515 H2505 0.929 . S
C2515 C2513 1.433 . S
C2515 N2518 1.384 . S
C2516 H2507 0.929 . S
C2516 C2508 1.378 . S
C2516 C2511 1.350 . S
C2517 H2504 0.929 . S
C2517 C2509 1.433 . S
C2517 N2519 1.384 . S
N2518 C2514 1.427 . S
N2518 C2515 1.384 . S
N2519 C2511 1.427 . S
N2519 C2517 1.384 . S
H2520 C2526 0.930 . S
H2521 C2530 0.930 . S
H2522 C2535 0.929 . S
H2523 C2533 0.929 . S
H2524 C2528 0.929 . S
H2525 C2534 0.929 . S
C2526 H2520 0.930 . S
C2526 C2527 1.367 . S
C2526 C2534 1.378 . S
C2527 C2526 1.367 . S
C2527 C2535 1.433 . S
C2528 H2524 0.929 . S
C2528 C2530 1.378 . S
C2528 C2532 1.350 . S
C2529 C2532 1.463 . S
C2529 C2534 1.350 . S
C2529 N2537 1.427 . S
C2530 H2521 0.930 . S
C2530 C2528 1.378 . S
C2530 C2531 1.367 . S
C2531 C2530 1.367 . S
C2531 C2533 1.433 . S
C2532 C2528 1.350 . S
C2532 C2529 1.463 . S
C2532 N2536 1.427 . S
C2533 H2523 0.929 . S
C2533 C2531 1.433 . S
C2533 N2536 1.384 . S
C2534 H2525 0.929 . S
C2534 C2526 1.378 . S
C2534 C2529 1.350 . S
C2535 H2522 0.929 . S
C2535 C2527 1.433 . S
C2535 N2537 1.384 . S
N2536 C2532 1.427 . S
N2536 C2533 1.384 . S
N2537 C2529 1.427 . S
N2537 C2535 1.384 . S
H2538 C2544 0.930 . S
H2539 C2548 0.930 . S
H2540 C2553 0.929 . S
H2541 C2551 0.929 . S
H2542 C2546 0.929 . S
H2543 C2552 0.929 . S
C2544 H2538 0.930 . S
C2544 C2545 1.367 . S
C2544 C2552 1.378 . S
C2545 C2544 1.367 . S
C2545 C2553 1.433 . S
C2546 H2542 0.929 . S
C2546 C2548 1.378 . S
C2546 C2550 1.350 . S
C2547 C2550 1.463 . S
C2547 C2552 1.350 . S
C2547 N2555 1.427 . S
C2548 H2539 0.930 . S
C2548 C2546 1.378 . S
C2548 C2549 1.367 . S
C2549 C2548 1.367 . S
C2549 C2551 1.433 . S
C2550 C2546 1.350 . S
C2550 C2547 1.463 . S
C2550 N2554 1.427 . S
C2551 H2541 0.929 . S
C2551 C2549 1.433 . S
C2551 N2554 1.384 . S
C2552 H2543 0.929 . S
C2552 C2544 1.378 . S
C2552 C2547 1.350 . S
C2553 H2540 0.929 . S
C2553 C2545 1.433 . S
C2553 N2555 1.384 . S
N2554 C2550 1.427 . S
N2554 C2551 1.384 . S
N2555 C2547 1.427 . S
N2555 C2553 1.384 . S
H2556 C2562 0.930 . S
H2557 C2566 0.930 . S
H2558 C2571 0.929 . S
H2559 C2569 0.929 . S
H2560 C2564 0.929 . S
H2561 C2570 0.929 . S
C2562 H2556 0.930 . S
C2562 C2563 1.367 . S
C2562 C2570 1.378 . S
C2563 C2562 1.367 . S
C2563 C2571 1.433 . S
C2564 H2560 0.929 . S
C2564 C2566 1.378 . S
C2564 C2568 1.350 . S
C2565 C2568 1.463 . S
C2565 C2570 1.350 . S
C2565 N2573 1.427 . S
C2566 H2557 0.930 . S
C2566 C2564 1.378 . S
C2566 C2567 1.367 . S
C2567 C2566 1.367 . S
C2567 C2569 1.433 . S
C2568 C2564 1.350 . S
C2568 C2565 1.463 . S
C2568 N2572 1.427 . S
C2569 H2559 0.929 . S
C2569 C2567 1.433 . S
C2569 N2572 1.384 . S
C2570 H2561 0.929 . S
C2570 C2562 1.378 . S
C2570 C2565 1.350 . S
C2571 H2558 0.929 . S
C2571 C2563 1.433 . S
C2571 N2573 1.384 . S
N2572 C2568 1.427 . S
N2572 C2569 1.384 . S
N2573 C2565 1.427 . S
N2573 C2571 1.384 . S
H2574 C2580 0.930 . S
H2575 C2584 0.930 . S
H2576 C2589 0.929 . S
H2577 C2587 0.929 . S
H2578 C2582 0.929 . S
H2579 C2588 0.929 . S
C2580 H2574 0.930 . S
C2580 C2581 1.367 . S
C2580 C2588 1.378 . S
C2581 C2580 1.367 . S
C2581 C2589 1.433 . S
C2582 H2578 0.929 . S
C2582 C2584 1.378 . S
C2582 C2586 1.350 . S
C2583 C2586 1.463 . S
C2583 C2588 1.350 . S
C2583 N2591 1.427 . S
C2584 H2575 0.930 . S
C2584 C2582 1.378 . S
C2584 C2585 1.367 . S
C2585 C2584 1.367 . S
C2585 C2587 1.433 . S
C2586 C2582 1.350 . S
C2586 C2583 1.463 . S
C2586 N2590 1.427 . S
C2587 H2577 0.929 . S
C2587 C2585 1.433 . S
C2587 N2590 1.384 . S
C2588 H2579 0.929 . S
C2588 C2580 1.378 . S
C2588 C2583 1.350 . S
C2589 H2576 0.929 . S
C2589 C2581 1.433 . S
C2589 N2591 1.384 . S
N2590 C2586 1.427 . S
N2590 C2587 1.384 . S
N2591 C2583 1.427 . S
N2591 C2589 1.384 . S
H2592 C2598 0.930 . S
H2593 C2602 0.930 . S
H2594 C2607 0.929 . S
H2595 C2605 0.929 . S
H2596 C2600 0.929 . S
H2597 C2606 0.929 . S
C2598 H2592 0.930 . S
C2598 C2599 1.367 . S
C2598 C2606 1.378 . S
C2599 C2598 1.367 . S
C2599 C2607 1.433 . S
C2600 H2596 0.929 . S
C2600 C2602 1.378 . S
C2600 C2604 1.350 . S
C2601 C2604 1.463 . S
C2601 C2606 1.350 . S
C2601 N2609 1.427 . S
C2602 H2593 0.930 . S
C2602 C2600 1.378 . S
C2602 C2603 1.367 . S
C2603 C2602 1.367 . S
C2603 C2605 1.433 . S
C2604 C2600 1.350 . S
C2604 C2601 1.463 . S
C2604 N2608 1.427 . S
C2605 H2595 0.929 . S
C2605 C2603 1.433 . S
C2605 N2608 1.384 . S
C2606 H2597 0.929 . S
C2606 C2598 1.378 . S
C2606 C2601 1.350 . S
C2607 H2594 0.929 . S
C2607 C2599 1.433 . S
C2607 N2609 1.384 . S
N2608 C2604 1.427 . S
N2608 C2605 1.384 . S
N2609 C2601 1.427 . S
N2609 C2607 1.384 . S
H2610 C2616 0.930 1_655 S
H2611 C2620 0.930 . S
H2612 C2625 0.929 . S
H2613 C2623 0.929 . S
H2614 C2618 0.929 . S
H2615 C2624 0.929 . S
C2616 H2610 0.930 1_455 S
C2616 C2617 1.367 . S
C2616 C2624 1.378 . S
C2617 C2616 1.367 . S
C2617 C2625 1.433 . S
C2618 H2614 0.929 . S
C2618 C2620 1.378 . S
C2618 C2622 1.350 . S
C2619 C2622 1.463 . S
C2619 C2624 1.350 . S
C2619 N2627 1.427 . S
C2620 H2611 0.930 . S
C2620 C2618 1.378 . S
C2620 C2621 1.367 . S
C2621 C2620 1.367 . S
C2621 C2623 1.433 . S
C2622 C2618 1.350 . S
C2622 C2619 1.463 . S
C2622 N2626 1.427 . S
C2623 H2613 0.929 . S
C2623 C2621 1.433 . S
C2623 N2626 1.384 . S
C2624 H2615 0.929 . S
C2624 C2616 1.378 . S
C2624 C2619 1.350 . S
C2625 H2612 0.929 . S
C2625 C2617 1.433 . S
C2625 N2627 1.384 . S
N2626 C2622 1.427 . S
N2626 C2623 1.384 . S
N2627 C2619 1.427 . S
N2627 C2625 1.384 . S
H2628 C2634 0.930 . S
H2629 C2638 0.930 . S
H2630 C2643 0.929 . S
H2631 C2641 0.929 . S
H2632 C2636 0.929 . S
H2633 C2642 0.929 . S
C2634 H2628 0.930 . S
C2634 C2635 1.367 . S
C2634 C2642 1.378 1_545 S
C2635 C2634 1.367 . S
C2635 C2643 1.433 . S
C2636 H2632 0.929 . S
C2636 C2638 1.378 . S
C2636 C2640 1.350 . S
C2637 C2640 1.463 . S
C2637 C2642 1.350 . S
C2637 N2645 1.427 1_565 S
C2638 H2629 0.930 . S
C2638 C2636 1.378 . S
C2638 C2639 1.367 . S
C2639 C2638 1.367 . S
C2639 C2641 1.433 . S
C2640 C2636 1.350 . S
C2640 C2637 1.463 . S
C2640 N2644 1.427 . S
C2641 H2631 0.929 . S
C2641 C2639 1.433 . S
C2641 N2644 1.384 . S
C2642 H2633 0.929 . S
C2642 C2634 1.378 1_565 S
C2642 C2637 1.350 . S
C2643 H2630 0.929 . S
C2643 C2635 1.433 . S
C2643 N2645 1.384 . S
N2644 C2640 1.427 . S
N2644 C2641 1.384 . S
N2645 C2637 1.427 1_545 S
N2645 C2643 1.384 . S
H2646 C2652 0.930 1_655 S
H2647 C2656 0.930 . S
H2648 C2661 0.929 . S
H2649 C2659 0.929 . S
H2650 C2654 0.929 . S
H2651 C2660 0.929 . S
C2652 H2646 0.930 1_455 S
C2652 C2653 1.367 1_455 S
C2652 C2660 1.378 . S
C2653 C2652 1.367 1_655 S
C2653 C2661 1.433 1_655 S
C2654 H2650 0.929 . S
C2654 C2656 1.378 1_565 S
C2654 C2658 1.350 . S
C2655 C2658 1.463 . S
C2655 C2660 1.350 . S
C2655 N2663 1.427 . S
C2656 H2647 0.930 . S
C2656 C2654 1.378 1_545 S
C2656 C2657 1.367 . S
C2657 C2656 1.367 . S
C2657 C2659 1.433 . S
C2658 C2654 1.350 . S
C2658 C2655 1.463 . S
C2658 N2662 1.427 . S
C2659 H2649 0.929 . S
C2659 C2657 1.433 . S
C2659 N2662 1.384 1_545 S
C2660 H2651 0.929 . S
C2660 C2652 1.378 . S
C2660 C2655 1.350 . S
C2661 H2648 0.929 . S
C2661 C2653 1.433 1_455 S
C2661 N2663 1.384 . S
N2662 C2658 1.427 . S
N2662 C2659 1.384 1_565 S
N2663 C2655 1.427 . S
N2663 C2661 1.384 . S
C727 C549 1.797 . S
C731 C9 1.793 . S
C745 C569 1.790 . S
C749 C29 1.791 1_655 S
C763 C49 1.795 . S
C767 C589 1.796 . S
C781 C69 1.794 . S
C785 C249 1.790 . S
C799 C89 1.794 . S
C803 C269 1.797 . S
C817 C289 1.795 . S
C821 C109 1.790 1_565 S
C835 C121 1.796 1_565 S
C839 C421 1.791 . S
C853 C441 1.792 . S
C857 C141 1.790 . S
C871 C161 1.793 . S
C875 C461 1.790 . S
C889 C601 1.794 . S
C893 C181 1.790 1_655 S
C907 C201 1.789 . S
C911 C621 1.793 . S
C925 C641 1.790 . S
C929 C221 1.794 . S
C943 C489 1.793 . S
C947 C309 1.797 . S
C961 C329 1.796 . S
C965 C509 1.795 . S
C979 C529 1.791 . S
C983 C349 1.796 . S
C997 C361 1.789 . S
C1001 C661 1.794 . S
C1015 C381 1.793 . S
C1019 C681 1.790 . S
C1033 C701 1.796 . S
C1037 C401 1.791 . S
C1051 C1 1.676 . S
C1055 C129 1.676 . S
C1069 C149 1.665 . S
C1073 C21 1.665 . S
C1087 C41 1.666 . S
C1091 C169 1.666 . S
C1105 C189 1.675 . S
C1109 C61 1.675 . S
C1123 C81 1.664 . S
C1127 C209 1.664 . S
C1141 C229 1.673 . S
C1145 C101 1.673 . S
C1159 C369 1.679 . S
C1163 C241 1.679 . S
C1177 C261 1.665 . S
C1181 C389 1.665 . S
C1195 C409 1.664 . S
C1199 C281 1.664 . S
C1213 C301 1.664 . S
C1217 C429 1.664 . S
C1231 C449 1.671 . S
C1235 C321 1.671 . S
C1249 C341 1.669 . S
C1253 C469 1.669 . S
C1267 C481 1.665 . S
C1271 C609 1.665 . S
C1285 C629 1.676 . S
C1289 C501 1.676 . S
C1303 C649 1.665 . S
C1307 C521 1.665 . S
C1321 C669 1.666 . S
C1325 C541 1.666 . S
C1339 C561 1.677 . S
C1343 C689 1.677 . S
C1357 C581 1.674 . S
C1361 C709 1.674 . S
C1375 C19 1.732 . S
C1379 C46 1.812 . S
C1393 C39 1.730 . S
C1397 C6 1.812 . S
C1411 C26 1.813 . S
C1415 C59 1.728 . S
C1429 C79 1.730 . S
C1433 C86 1.813 . S
C1447 C106 1.814 . S
C1451 C99 1.727 . S
C1465 C66 1.812 . S
C1469 C119 1.731 . S
C1483 C176 1.809 . S
C1487 C128 1.738 . S
C1501 C148 1.730 . S
C1505 C136 1.812 . S
C1519 C168 1.740 . S
C1523 C156 1.809 . S
C1537 C216 1.814 . S
C1541 C188 1.729 . S
C1555 C208 1.731 . S
C1559 C236 1.813 . S
C1573 C228 1.728 . S
C1577 C196 1.814 . S
C1591 C286 1.809 . S
C1595 C259 1.739 . S
C1609 C246 1.808 . S
C1613 C279 1.741 . S
C1627 C266 1.809 . S
C1631 C299 1.738 . S
C1645 C326 1.809 . S
C1649 C319 1.741 . S
C1663 C339 1.730 . S
C1667 C346 1.812 . S
C1681 C306 1.808 . S
C1685 C359 1.740 . S
C1699 C368 1.726 . S
C1703 C416 1.814 . S
C1717 C376 1.814 . S
C1721 C388 1.726 . S
C1735 C408 1.733 . S
C1739 C396 1.812 . S
C1753 C456 1.808 . S
C1757 C428 1.741 . S
C1771 C476 1.811 . S
C1775 C448 1.733 . S
C1789 C436 1.809 . S
C1793 C468 1.738 . S
C1807 C526 1.811 . S
C1811 C499 1.736 . S
C1825 C519 1.735 . S
C1829 C486 1.810 . S
C1843 C506 1.813 . S
C1847 C539 1.729 . S
C1861 C559 1.728 . S
C1865 C566 1.813 . S
C1879 C579 1.730 . S
C1883 C586 1.813 . S
C1897 C546 1.810 . S
C1901 C599 1.737 . S
C1915 C608 1.727 . S
C1919 C656 1.814 . S
C1933 C628 1.730 . S
C1937 C616 1.812 . S
C1951 C636 1.815 . S
C1955 C648 1.726 . S
C1969 C668 1.736 . S
C1973 C696 1.810 . S
C1987 C716 1.814 . S
C1991 C688 1.729 . S
C2005 C676 1.813 . S
C2009 C708 1.732 . S
C2023 C56 1.163 . S
C2027 C8 1.182 . S
C2041 C28 1.185 . S
C2045 C16 1.153 . S
C2059 C36 1.162 . S
C2063 C48 1.177 . S
C2077 C96 1.168 . S
C2081 C68 1.178 . S
C2095 C88 1.186 . S
C2099 C116 1.157 . S
C2113 C108 1.186 . S
C2117 C76 1.157 . S
C2131 C166 1.168 . S
C2135 C139 1.173 . S
C2149 C159 1.187 . S
C2153 C126 1.153 . S
C2167 C146 1.168 . S
C2171 C179 1.173 . S
C2185 C206 1.163 . S
C2189 C199 1.176 . S
C2203 C226 1.171 . S
C2207 C219 1.175 . S
C2221 C186 1.158 . S
C2225 C239 1.186 . S
C2239 C248 1.173 . S
C2243 C296 1.168 . S
C2257 C268 1.178 . S
C2261 C256 1.160 . S
C2275 C288 1.173 . S
C2279 C276 1.172 . S
C2293 C336 1.157 . S
C2297 C308 1.180 . S
C2311 C328 1.185 . S
C2315 C356 1.158 . S
C2329 C348 1.173 . S
C2333 C316 1.168 1_545 S
C2347 C406 1.172 1_545 S
C2351 C379 1.174 . S
C2365 C366 1.163 . S
C2369 C399 1.176 . S
C2383 C419 1.177 . S
C2387 C386 1.170 . S
C2401 C446 1.153 . S
C2405 C439 1.187 . S
C2419 C459 1.179 . S
C2423 C466 1.160 . S
C2437 C479 1.184 . S
C2441 C426 1.154 . S
C2455 C488 1.187 . S
C2459 C536 1.153 . S
C2473 C496 1.165 1_455 S
C2477 C508 1.181 . S
C2491 C516 1.163 . S
C2495 C528 1.176 . S
C2509 C576 1.171 . S
C2513 C548 1.172 . S
C2527 C568 1.180 . S
C2531 C596 1.166 . S
C2545 C588 1.185 . S
C2549 C556 1.153 . S
C2563 C646 1.153 . S
C2567 C619 1.187 . S
C2581 C606 1.171 . S
C2585 C639 1.175 . S
C2599 C659 1.187 . S
C2603 C626 1.153 . S
C2617 C686 1.171 1_455 S
C2621 C679 1.172 . S
C2635 C699 1.173 . S
C2639 C706 1.168 . S
C2653 C719 1.179 . S
C2657 C666 1.159 . S
