# Generated by pormake.
# Topology zni, (4)-cn, num edge types: 1
# Building blocks:
#     Node 0, Type 0, BuildingBlock: AZAVOO_clean_sbu_0, # of connection points: 4
#     Node 1, Type 0, BuildingBlock: AZAVOO_clean_sbu_0, # of connection points: 4
#     Node 2, Type 0, BuildingBlock: AZAVOO_clean_sbu_0, # of connection points: 4
#     Node 3, Type 0, BuildingBlock: AZAVOO_clean_sbu_0, # of connection points: 4
#     Node 4, Type 0, BuildingBlock: AZAVOO_clean_sbu_0, # of connection points: 4
#     Node 5, Type 0, BuildingBlock: AZAVOO_clean_sbu_0, # of connection points: 4
#     Node 6, Type 0, BuildingBlock: AZAVOO_clean_sbu_0, # of connection points: 4
#     Node 7, Type 0, BuildingBlock: AZAVOO_clean_sbu_0, # of connection points: 4
#     Node 8, Type 0, BuildingBlock: AZAVOO_clean_sbu_0, # of connection points: 4
#     Node 9, Type 0, BuildingBlock: AZAVOO_clean_sbu_0, # of connection points: 4
#     Node 10, Type 0, BuildingBlock: AZAVOO_clean_sbu_0, # of connection points: 4
#     Node 11, Type 0, BuildingBlock: AZAVOO_clean_sbu_0, # of connection points: 4
#     Node 12, Type 0, BuildingBlock: AZAVOO_clean_sbu_0, # of connection points: 4
#     Node 13, Type 0, BuildingBlock: AZAVOO_clean_sbu_0, # of connection points: 4
#     Node 14, Type 0, BuildingBlock: AZAVOO_clean_sbu_0, # of connection points: 4
#     Node 15, Type 0, BuildingBlock: AZAVOO_clean_sbu_0, # of connection points: 4
#     Node 16, Type 0, BuildingBlock: AZAVOO_clean_sbu_0, # of connection points: 4
#     Node 17, Type 0, BuildingBlock: AZAVOO_clean_sbu_0, # of connection points: 4
#     Node 18, Type 0, BuildingBlock: AZAVOO_clean_sbu_0, # of connection points: 4
#     Node 19, Type 0, BuildingBlock: AZAVOO_clean_sbu_0, # of connection points: 4
#     Node 20, Type 0, BuildingBlock: AZAVOO_clean_sbu_0, # of connection points: 4
#     Node 21, Type 0, BuildingBlock: AZAVOO_clean_sbu_0, # of connection points: 4
#     Node 22, Type 0, BuildingBlock: AZAVOO_clean_sbu_0, # of connection points: 4
#     Node 23, Type 0, BuildingBlock: AZAVOO_clean_sbu_0, # of connection points: 4
#     Node 24, Type 0, BuildingBlock: AZAVOO_clean_sbu_0, # of connection points: 4
#     Node 25, Type 0, BuildingBlock: AZAVOO_clean_sbu_0, # of connection points: 4
#     Node 26, Type 0, BuildingBlock: AZAVOO_clean_sbu_0, # of connection points: 4
#     Node 27, Type 0, BuildingBlock: AZAVOO_clean_sbu_0, # of connection points: 4
#     Node 28, Type 0, BuildingBlock: AZAVOO_clean_sbu_0, # of connection points: 4
#     Node 29, Type 0, BuildingBlock: AZAVOO_clean_sbu_0, # of connection points: 4
#     Node 30, Type 0, BuildingBlock: AZAVOO_clean_sbu_0, # of connection points: 4
#     Node 31, Type 0, BuildingBlock: AZAVOO_clean_sbu_0, # of connection points: 4
#     Edge 32, Type (0, 0), BuildingBlock: OJICUG_clean_linker_0, # of connection points: 2
#     Edge 33, Type (0, 0), BuildingBlock: OJICUG_clean_linker_0, # of connection points: 2
#     Edge 34, Type (0, 0), BuildingBlock: OJICUG_clean_linker_0, # of connection points: 2
#     Edge 35, Type (0, 0), BuildingBlock: OJICUG_clean_linker_0, # of connection points: 2
#     Edge 36, Type (0, 0), BuildingBlock: OJICUG_clean_linker_0, # of connection points: 2
#     Edge 37, Type (0, 0), BuildingBlock: OJICUG_clean_linker_0, # of connection points: 2
#     Edge 38, Type (0, 0), BuildingBlock: OJICUG_clean_linker_0, # of connection points: 2
#     Edge 39, Type (0, 0), BuildingBlock: OJICUG_clean_linker_0, # of connection points: 2
#     Edge 40, Type (0, 0), BuildingBlock: OJICUG_clean_linker_0, # of connection points: 2
#     Edge 41, Type (0, 0), BuildingBlock: OJICUG_clean_linker_0, # of connection points: 2
#     Edge 42, Type (0, 0), BuildingBlock: OJICUG_clean_linker_0, # of connection points: 2
#     Edge 43, Type (0, 0), BuildingBlock: OJICUG_clean_linker_0, # of connection points: 2
#     Edge 44, Type (0, 0), BuildingBlock: OJICUG_clean_linker_0, # of connection points: 2
#     Edge 45, Type (0, 0), BuildingBlock: OJICUG_clean_linker_0, # of connection points: 2
#     Edge 46, Type (0, 0), BuildingBlock: OJICUG_clean_linker_0, # of connection points: 2
#     Edge 47, Type (0, 0), BuildingBlock: OJICUG_clean_linker_0, # of connection points: 2
#     Edge 48, Type (0, 0), BuildingBlock: OJICUG_clean_linker_0, # of connection points: 2
#     Edge 49, Type (0, 0), BuildingBlock: OJICUG_clean_linker_0, # of connection points: 2
#     Edge 50, Type (0, 0), BuildingBlock: OJICUG_clean_linker_0, # of connection points: 2
#     Edge 51, Type (0, 0), BuildingBlock: OJICUG_clean_linker_0, # of connection points: 2
#     Edge 52, Type (0, 0), BuildingBlock: OJICUG_clean_linker_0, # of connection points: 2
#     Edge 53, Type (0, 0), BuildingBlock: OJICUG_clean_linker_0, # of connection points: 2
#     Edge 54, Type (0, 0), BuildingBlock: OJICUG_clean_linker_0, # of connection points: 2
#     Edge 55, Type (0, 0), BuildingBlock: OJICUG_clean_linker_0, # of connection points: 2
#     Edge 56, Type (0, 0), BuildingBlock: OJICUG_clean_linker_0, # of connection points: 2
#     Edge 57, Type (0, 0), BuildingBlock: OJICUG_clean_linker_0, # of connection points: 2
#     Edge 58, Type (0, 0), BuildingBlock: OJICUG_clean_linker_0, # of connection points: 2
#     Edge 59, Type (0, 0), BuildingBlock: OJICUG_clean_linker_0, # of connection points: 2
#     Edge 60, Type (0, 0), BuildingBlock: OJICUG_clean_linker_0, # of connection points: 2
#     Edge 61, Type (0, 0), BuildingBlock: OJICUG_clean_linker_0, # of connection points: 2
#     Edge 62, Type (0, 0), BuildingBlock: OJICUG_clean_linker_0, # of connection points: 2
#     Edge 63, Type (0, 0), BuildingBlock: OJICUG_clean_linker_0, # of connection points: 2
#     Edge 64, Type (0, 0), BuildingBlock: OJICUG_clean_linker_0, # of connection points: 2
#     Edge 65, Type (0, 0), BuildingBlock: OJICUG_clean_linker_0, # of connection points: 2
#     Edge 66, Type (0, 0), BuildingBlock: OJICUG_clean_linker_0, # of connection points: 2
#     Edge 67, Type (0, 0), BuildingBlock: OJICUG_clean_linker_0, # of connection points: 2
#     Edge 68, Type (0, 0), BuildingBlock: OJICUG_clean_linker_0, # of connection points: 2
#     Edge 69, Type (0, 0), BuildingBlock: OJICUG_clean_linker_0, # of connection points: 2
#     Edge 70, Type (0, 0), BuildingBlock: OJICUG_clean_linker_0, # of connection points: 2
#     Edge 71, Type (0, 0), BuildingBlock: OJICUG_clean_linker_0, # of connection points: 2
#     Edge 72, Type (0, 0), BuildingBlock: OJICUG_clean_linker_0, # of connection points: 2
#     Edge 73, Type (0, 0), BuildingBlock: OJICUG_clean_linker_0, # of connection points: 2
#     Edge 74, Type (0, 0), BuildingBlock: OJICUG_clean_linker_0, # of connection points: 2
#     Edge 75, Type (0, 0), BuildingBlock: OJICUG_clean_linker_0, # of connection points: 2
#     Edge 76, Type (0, 0), BuildingBlock: OJICUG_clean_linker_0, # of connection points: 2
#     Edge 77, Type (0, 0), BuildingBlock: OJICUG_clean_linker_0, # of connection points: 2
#     Edge 78, Type (0, 0), BuildingBlock: OJICUG_clean_linker_0, # of connection points: 2
#     Edge 79, Type (0, 0), BuildingBlock: OJICUG_clean_linker_0, # of connection points: 2
#     Edge 80, Type (0, 0), BuildingBlock: OJICUG_clean_linker_0, # of connection points: 2
#     Edge 81, Type (0, 0), BuildingBlock: OJICUG_clean_linker_0, # of connection points: 2
#     Edge 82, Type (0, 0), BuildingBlock: OJICUG_clean_linker_0, # of connection points: 2
#     Edge 83, Type (0, 0), BuildingBlock: OJICUG_clean_linker_0, # of connection points: 2
#     Edge 84, Type (0, 0), BuildingBlock: OJICUG_clean_linker_0, # of connection points: 2
#     Edge 85, Type (0, 0), BuildingBlock: OJICUG_clean_linker_0, # of connection points: 2
#     Edge 86, Type (0, 0), BuildingBlock: OJICUG_clean_linker_0, # of connection points: 2
#     Edge 87, Type (0, 0), BuildingBlock: OJICUG_clean_linker_0, # of connection points: 2
#     Edge 88, Type (0, 0), BuildingBlock: OJICUG_clean_linker_0, # of connection points: 2
#     Edge 89, Type (0, 0), BuildingBlock: OJICUG_clean_linker_0, # of connection points: 2
#     Edge 90, Type (0, 0), BuildingBlock: OJICUG_clean_linker_0, # of connection points: 2
#     Edge 91, Type (0, 0), BuildingBlock: OJICUG_clean_linker_0, # of connection points: 2
#     Edge 92, Type (0, 0), BuildingBlock: OJICUG_clean_linker_0, # of connection points: 2
#     Edge 93, Type (0, 0), BuildingBlock: OJICUG_clean_linker_0, # of connection points: 2
#     Edge 94, Type (0, 0), BuildingBlock: OJICUG_clean_linker_0, # of connection points: 2
#     Edge 95, Type (0, 0), BuildingBlock: OJICUG_clean_linker_0, # of connection points: 2
# Relax obj value: 0.212
# Max RMSD: 0.135
# Mean RMSD: 0.132
data_MOF--net-zni--node1-AZAVOO_clean_sbu_0--edge1-OJICUG_clean_linker_0
_symmetry_space_group_name_H-M    P1
_symmetry_Int_Tables_number       1
_symmetry_cell_setting            triclinic
loop_
_symmetry_equiv_pos_as_xyz
'x, y, z'
_cell_length_a     38.39029
_cell_length_b     37.295646
_cell_length_c     25.976489
_cell_angle_alpha  90.109937
_cell_angle_beta   89.948461
_cell_angle_gamma 90.617639
loop_
_atom_site_label
_atom_site_type_symbol
_atom_site_fract_x
_atom_site_fract_y
_atom_site_fract_z
_atom_type_partial_charge
Mg0 Mg 0.12766 0.06892 0.40087 0.0
O1 O 0.13442 0.12777 0.37093 0.0
O2 O 0.10798 0.1269 0.29424 0.0
Mg3 Mg 0.08544 0.07255 0.27432 0.0
C4 C 0.12468 0.14349 0.32957 0.0
C5 C 0.15527 0.05645 0.50605 0.0
O6 O 0.131 0.0321 0.49716 0.0
O7 O 0.17026 0.04748 0.34602 0.0
O8 O 0.14013 0.04946 0.27254 0.0
O9 O 0.07639 0.08325 0.4359 0.0
O10 O 0.08242 0.06243 0.35699 0.0
C11 C 0.16778 0.04211 0.29745 0.0
C12 C 0.06233 0.07499 0.39221 0.0
O13 O 0.16401 0.07742 0.46945 0.0
Mg14 Mg 0.16524 0.84641 0.65789 0.0
O15 O 0.10986 0.86179 0.62905 0.0
O16 O 0.1029 0.83229 0.55463 0.0
Mg17 Mg 0.15075 0.80029 0.53462 0.0
C18 C 0.09158 0.85332 0.58947 0.0
C19 C 0.18561 0.87761 0.75954 0.0
O20 O 0.20593 0.85005 0.75123 0.0
O21 O 0.19091 0.88476 0.59981 0.0
O22 O 0.18155 0.85292 0.52797 0.0
O23 O 0.14335 0.79787 0.69641 0.0
O24 O 0.16286 0.7984 0.61652 0.0
C25 C 0.19381 0.88055 0.55112 0.0
C26 C 0.14808 0.78104 0.65343 0.0
O27 O 0.16482 0.88692 0.72388 0.0
Mg28 Mg 0.36375 0.9038 0.90126 0.0
O29 O 0.35774 0.84485 0.87098 0.0
O30 O 0.38471 0.84597 0.79464 0.0
Mg31 Mg 0.40672 0.90056 0.77511 0.0
C32 C 0.36797 0.8292 0.82971 0.0
C33 C 0.3356 0.91608 0.00623 0.0
O34 O 0.35948 0.94083 -0.00266 0.0
O35 O 0.32123 0.92487 0.8461 0.0
O36 O 0.35182 0.92309 0.77294 0.0
O37 O 0.41492 0.88988 0.93669 0.0
O38 O 0.40919 0.9107 0.85785 0.0
C39 C 0.32396 0.93022 0.79758 0.0
C40 C 0.42916 0.89822 0.89317 0.0
O41 O 0.3272 0.89493 0.96958 0.0
Mg42 Mg 0.32826 0.12371 0.15708 0.0
O43 O 0.38341 0.10753 0.1279 0.0
O44 O 0.39058 0.1368 0.05347 0.0
Mg45 Mg 0.34315 0.1695 0.03386 0.0
C46 C 0.40171 0.11568 0.08819 0.0
C47 C 0.30739 0.09303 0.25867 0.0
O48 O 0.28738 0.12078 0.25023 0.0
O49 O 0.30194 0.08568 0.09902 0.0
O50 O 0.31154 0.11736 0.02726 0.0
O51 O 0.35079 0.172 0.19564 0.0
O52 O 0.3312 0.17165 0.11585 0.0
C53 C 0.29894 0.08993 0.05038 0.0
C54 C 0.34619 0.18886 0.15276 0.0
O55 O 0.32815 0.08333 0.22308 0.0
Mg56 Mg 0.12898 0.90626 0.07375 0.0
O57 O 0.1361 0.84761 0.10356 0.0
O58 O 0.10961 0.84758 0.18029 0.0
Mg59 Mg 0.0865 0.90118 0.20019 0.0
C60 C 0.12648 0.83156 0.14491 0.0
C61 C 0.15702 0.91942 0.96864 0.0
O62 O 0.13262 0.94316 0.9772 0.0
O63 O 0.17123 0.92902 0.1288 0.0
O64 O 0.14091 0.92607 0.20216 0.0
O65 O 0.07793 0.89038 0.03848 0.0
O66 O 0.08355 0.91127 0.11748 0.0
C67 C 0.16855 0.93433 0.17735 0.0
C68 C 0.06367 0.89813 0.08214 0.0
O69 O 0.16567 0.8988 0.00544 0.0
Mg70 Mg 0.3287 0.8455 0.31829 0.0
O71 O 0.38415 0.8621 0.34701 0.0
O72 O 0.39098 0.83312 0.42161 0.0
Mg73 Mg 0.34303 0.80033 0.44179 0.0
C74 C 0.40238 0.85419 0.38668 0.0
C75 C 0.30862 0.87465 0.21611 0.0
O76 O 0.28897 0.84623 0.22485 0.0
O77 O 0.30332 0.88377 0.37615 0.0
O78 O 0.31259 0.85259 0.44825 0.0
O79 O 0.3504 0.79731 0.27987 0.0
O80 O 0.33106 0.79769 0.35985 0.0
C81 C 0.30049 0.87988 0.42489 0.0
C82 C 0.34576 0.78053 0.32289 0.0
O83 O 0.329 0.88545 0.25177 0.0
Mg84 Mg 0.36279 0.06519 0.57324 0.0
O85 O 0.35588 0.12397 0.60316 0.0
O86 O 0.38238 0.124 0.6798 0.0
Mg87 Mg 0.40524 0.07032 0.69964 0.0
C88 C 0.3656 0.14005 0.6445 0.0
C89 C 0.33494 0.05185 0.4681 0.0
O90 O 0.35921 0.02803 0.4768 0.0
O91 O 0.32044 0.04259 0.62833 0.0
O92 O 0.35077 0.04558 0.70161 0.0
O93 O 0.41391 0.08088 0.53799 0.0
O94 O 0.40816 0.06008 0.61693 0.0
C95 C 0.32311 0.03734 0.67686 0.0
C96 C 0.4281 0.07314 0.58163 0.0
O97 O 0.32625 0.07263 0.50484 0.0
Mg98 Mg 0.16413 0.12671 0.81827 0.0
O99 O 0.1085 0.11071 0.84679 0.0
O100 O 0.10165 0.13983 0.92144 0.0
Mg101 Mg 0.14989 0.17213 0.94189 0.0
C102 C 0.0902 0.11884 0.88636 0.0
C103 C 0.18382 0.09713 0.71592 0.0
O104 O 0.20385 0.12529 0.72458 0.0
O105 O 0.18905 0.08828 0.87608 0.0
O106 O 0.17991 0.11961 0.94828 0.0
O107 O 0.14292 0.17502 0.77996 0.0
O108 O 0.16213 0.17461 0.85997 0.0
C109 C 0.19184 0.09219 0.92483 0.0
C110 C 0.14759 0.19182 0.82303 0.0
O111 O 0.16341 0.08664 0.75172 0.0
Mg112 Mg 0.88423 0.91012 0.56148 0.0
O113 O 0.87803 0.85289 0.59317 0.0
O114 O 0.90883 0.84832 0.66573 0.0
Mg115 Mg 0.93282 0.90287 0.68299 0.0
C116 C 0.8891 0.83465 0.63128 0.0
C117 C 0.83086 0.91994 0.46914 0.0
O118 O 0.83819 0.95407 0.47649 0.0
O119 O 0.84512 0.93127 0.62051 0.0
O120 O 0.87801 0.92595 0.69106 0.0
O121 O 0.93289 0.89382 0.52176 0.0
O122 O 0.93228 0.91577 0.60062 0.0
C123 C 0.84952 0.93447 0.66907 0.0
C124 C 0.94964 0.90147 0.56362 0.0
O125 O 0.84273 0.8971 0.50077 0.0
Mg126 Mg 0.85144 0.09127 0.33061 0.0
O127 O 0.85367 0.1533 0.32815 0.0
O128 O 0.89548 0.16729 0.27147 0.0
Mg129 Mg 0.92113 0.11678 0.24089 0.0
C130 C 0.87162 0.17639 0.30299 0.0
C131 C 0.79463 0.06525 0.4029 0.0
O132 O 0.81408 0.03684 0.39628 0.0
O133 O 0.82418 0.08816 0.25116 0.0
O134 O 0.86995 0.10231 0.2012 0.0
O135 O 0.89249 0.09084 0.39206 0.0
O136 O 0.90323 0.08756 0.30876 0.0
C137 C 0.83801 0.0933 0.20685 0.0
C138 C 0.91495 0.08896 0.355 0.0
O139 O 0.8015 0.09339 0.37713 0.0
Mg140 Mg 0.60908 0.0589 0.06027 0.0
O141 O 0.61504 0.1163 0.09173 0.0
O142 O 0.58404 0.12116 0.16415 0.0
Mg143 Mg 0.56013 0.06664 0.18157 0.0
C144 C 0.60387 0.13469 0.12974 0.0
C145 C 0.66217 0.0493 0.96733 0.0
O146 O 0.6546 0.01518 0.97397 0.0
O147 O 0.64819 0.0383 0.11956 0.0
O148 O 0.61506 0.044 0.18991 0.0
O149 O 0.5604 0.07475 0.02036 0.0
O150 O 0.56095 0.05321 0.09932 0.0
C151 C 0.64367 0.03549 0.16813 0.0
C152 C 0.54358 0.06721 0.06221 0.0
O153 O 0.65062 0.07197 -0.00038 0.0
Mg154 Mg 0.64016 0.88136 0.83222 0.0
O155 O 0.63818 0.81934 0.82916 0.0
O156 O 0.59652 0.80523 0.77234 0.0
Mg157 Mg 0.57069 0.85571 0.74227 0.0
C158 C 0.6204 0.7962 0.80377 0.0
C159 C 0.69637 0.90721 0.90552 0.0
O160 O 0.67641 0.93532 0.89991 0.0
O161 O 0.66751 0.88473 0.75282 0.0
O162 O 0.62184 0.8705 0.70271 0.0
O163 O 0.59896 0.88163 0.89361 0.0
O164 O 0.58842 0.88497 0.81032 0.0
C165 C 0.65374 0.87963 0.70845 0.0
C166 C 0.57659 0.88357 0.85651 0.0
O167 O 0.69002 0.87932 0.87877 0.0
Mg168 Mg 0.88218 0.05931 0.91227 0.0
O169 O 0.87641 0.11649 0.88075 0.0
O170 O 0.90769 0.12171 0.80858 0.0
Mg171 Mg 0.93168 0.06766 0.79143 0.0
C172 C 0.88779 0.13498 0.84283 0.0
C173 C 0.82854 0.04867 0.00441 0.0
O174 O 0.83583 0.01467 -0.00267 0.0
O175 O 0.84341 0.03747 0.85265 0.0
O176 O 0.87694 0.04345 0.78266 0.0
O177 O 0.9307 0.07638 0.95257 0.0
O178 O 0.93043 0.05449 0.87368 0.0
C179 C 0.84824 0.03435 0.80417 0.0
C180 C 0.94766 0.069 0.91089 0.0
O181 O 0.8404 0.07162 0.97254 0.0
Mg182 Mg 0.63916 0.09304 0.64194 0.0
O183 O 0.63857 0.1551 0.64456 0.0
O184 O 0.59741 0.16931 0.70178 0.0
Mg185 Mg 0.57043 0.119 0.73222 0.0
C186 C 0.62138 0.17828 0.67009 0.0
C187 C 0.69426 0.0665 0.56849 0.0
O188 O 0.67332 0.03873 0.57463 0.0
O189 O 0.66658 0.08988 0.72119 0.0
O190 O 0.62131 0.10422 0.77153 0.0
O191 O 0.59788 0.09254 0.58079 0.0
O192 O 0.58739 0.0896 0.66416 0.0
C193 C 0.65301 0.09507 0.76562 0.0
C194 C 0.57552 0.09075 0.61802 0.0
O195 O 0.68897 0.09461 0.59499 0.0
Mg196 Mg 0.61012 0.9142 0.41382 0.0
O197 O 0.61581 0.85678 0.38284 0.0
O198 O 0.58465 0.85116 0.31066 0.0
Mg199 Mg 0.56088 0.90516 0.29291 0.0
C200 C 0.60446 0.83808 0.34504 0.0
C201 C 0.66328 0.92494 0.50652 0.0
O202 O 0.65579 0.95892 0.49985 0.0
O203 O 0.64917 0.93537 0.3541 0.0
O204 O 0.61579 0.9289 0.28409 0.0
O205 O 0.56137 0.89763 0.45407 0.0
O206 O 0.56199 0.91897 0.37499 0.0
C207 C 0.64449 0.93802 0.30556 0.0
C208 C 0.54458 0.90479 0.41224 0.0
O209 O 0.65168 0.90203 0.47429 0.0
Mg210 Mg 0.85256 0.87839 0.14273 0.0
O211 O 0.85294 0.81631 0.14383 0.0
O212 O 0.89403 0.80145 0.20064 0.0
Mg213 Mg 0.92136 0.85137 0.23194 0.0
C214 C 0.87002 0.79287 0.16883 0.0
C215 C 0.79698 0.90565 0.0705 0.0
O216 O 0.81762 0.93359 0.07724 0.0
O217 O 0.82532 0.88098 0.22231 0.0
O218 O 0.87066 0.86607 0.27196 0.0
O219 O 0.8938 0.87928 0.08135 0.0
O220 O 0.90436 0.88144 0.16474 0.0
C221 C 0.83899 0.8754 0.26652 0.0
C222 C 0.91619 0.88067 0.11852 0.0
O223 O 0.80265 0.8773 0.09613 0.0
Mg224 Mg 0.6303 0.56838 0.90056 0.0
O225 O 0.63653 0.6273 0.87056 0.0
O226 O 0.60974 0.62617 0.79414 0.0
Mg227 Mg 0.58753 0.57164 0.77443 0.0
C228 C 0.62646 0.64292 0.82929 0.0
C229 C 0.65838 0.55574 0.00521 0.0
O230 O 0.63452 0.53102 -0.00403 0.0
O231 O 0.67283 0.54718 0.84538 0.0
O232 O 0.64238 0.5489 0.77218 0.0
O233 O 0.57914 0.58245 0.9361 0.0
O234 O 0.58488 0.56161 0.85714 0.0
C235 C 0.67018 0.54174 0.79685 0.0
C236 C 0.56491 0.57412 0.89256 0.0
O237 O 0.66681 0.57706 0.96887 0.0
Mg238 Mg 0.66576 0.34767 0.15692 0.0
O239 O 0.61049 0.3636 0.12817 0.0
O240 O 0.60337 0.3343 0.05361 0.0
Mg241 Mg 0.65093 0.30187 0.03352 0.0
C242 C 0.59219 0.35537 0.0885 0.0
C243 C 0.68676 0.37837 0.25845 0.0
O244 O 0.70681 0.35068 0.24966 0.0
O245 O 0.6917 0.38589 0.09898 0.0
O246 O 0.68214 0.35429 0.02699 0.0
O247 O 0.64349 0.29932 0.19539 0.0
O248 O 0.66291 0.29969 0.11546 0.0
C249 C 0.69459 0.38178 0.05028 0.0
C250 C 0.64802 0.28246 0.1524 0.0
O251 O 0.66586 0.38803 0.22311 0.0
Mg252 Mg 0.86423 0.4045 0.40074 0.0
O253 O 0.85758 0.34547 0.37104 0.0
O254 O 0.88438 0.34606 0.29453 0.0
Mg255 Mg 0.90709 0.40028 0.27457 0.0
C256 C 0.86748 0.32962 0.32975 0.0
C257 C 0.83652 0.41777 0.5056 0.0
O258 O 0.86075 0.44206 0.49625 0.0
O259 O 0.82183 0.42553 0.34541 0.0
O260 O 0.85233 0.42316 0.27219 0.0
O261 O 0.91535 0.39038 0.43627 0.0
O262 O 0.90968 0.41075 0.35719 0.0
C263 C 0.82452 0.43057 0.29681 0.0
C264 C 0.92962 0.39842 0.39265 0.0
O265 O 0.82771 0.39649 0.46929 0.0
Mg266 Mg 0.82929 0.62094 0.65583 0.0
O267 O 0.88459 0.60515 0.62685 0.0
O268 O 0.89182 0.63471 0.55269 0.0
Mg269 Mg 0.84434 0.66737 0.53315 0.0
C270 C 0.90294 0.6135 0.58729 0.0
C271 C 0.80763 0.5891 0.75639 0.0
O272 O 0.78681 0.61612 0.74744 0.0
O273 O 0.80328 0.5831 0.59728 0.0
O274 O 0.81283 0.61522 0.5259 0.0
O275 O 0.85139 0.66924 0.695 0.0
O276 O 0.83207 0.66908 0.61507 0.0
C277 C 0.80028 0.58763 0.54869 0.0
C278 C 0.84675 0.68627 0.65227 0.0
O279 O 0.8292 0.58025 0.72139 0.0
Mg280 Mg 0.63124 0.40603 0.57309 0.0
O281 O 0.63812 0.34734 0.60304 0.0
O282 O 0.61159 0.34759 0.67974 0.0
Mg283 Mg 0.58876 0.40134 0.69954 0.0
C284 C 0.62838 0.3314 0.64443 0.0
C285 C 0.65942 0.41944 0.46822 0.0
O286 O 0.63536 0.44348 0.47721 0.0
O287 O 0.67359 0.42872 0.62803 0.0
O288 O 0.64327 0.42604 0.7014 0.0
O289 O 0.58015 0.39029 0.53787 0.0
O290 O 0.58584 0.41128 0.61681 0.0
C291 C 0.67094 0.43415 0.67656 0.0
C292 C 0.56591 0.39814 0.58151 0.0
O293 O 0.66785 0.39845 0.50471 0.0
Mg294 Mg 0.82973 0.34782 0.8174 0.0
O295 O 0.88524 0.36404 0.84636 0.0
O296 O 0.89185 0.33475 0.92075 0.0
Mg297 Mg 0.84376 0.30204 0.94052 0.0
C298 C 0.90338 0.35591 0.88603 0.0
C299 C 0.80925 0.37789 0.71596 0.0
O300 O 0.7889 0.35004 0.72503 0.0
O301 O 0.80446 0.38595 0.87556 0.0
O302 O 0.81346 0.35436 0.94736 0.0
O303 O 0.85113 0.29959 0.7786 0.0
O304 O 0.83177 0.29983 0.85856 0.0
C305 C 0.80151 0.38181 0.92424 0.0
C306 C 0.84629 0.28266 0.82146 0.0
O307 O 0.83024 0.38803 0.75122 0.0
Mg308 Mg 0.86287 0.56484 0.07152 0.0
O309 O 0.855 0.62368 0.10064 0.0
O310 O 0.88104 0.62438 0.17766 0.0
Mg311 Mg 0.90476 0.57126 0.19822 0.0
C312 C 0.86418 0.64002 0.14205 0.0
C313 C 0.83555 0.55011 0.96646 0.0
O314 O 0.86016 0.52678 0.97579 0.0
O315 O 0.82058 0.54209 0.12653 0.0
O316 O 0.85059 0.54585 0.20004 0.0
O317 O 0.914 0.58092 0.03651 0.0
O318 O 0.90811 0.56064 0.11568 0.0
C319 C 0.82312 0.53716 0.17516 0.0
C320 C 0.92809 0.57361 0.08037 0.0
O321 O 0.82647 0.57114 0.0027 0.0
Mg322 Mg 0.6647 0.62599 0.31753 0.0
O323 O 0.60926 0.60949 0.34643 0.0
O324 O 0.60262 0.63842 0.4213 0.0
Mg325 Mg 0.65072 0.67102 0.44146 0.0
C326 C 0.59111 0.61743 0.38626 0.0
C327 C 0.68506 0.59659 0.21548 0.0
O328 O 0.705 0.62475 0.22459 0.0
O329 O 0.69001 0.58758 0.37489 0.0
O330 O 0.68099 0.61859 0.44741 0.0
O331 O 0.64304 0.67417 0.2795 0.0
O332 O 0.66245 0.67381 0.3594 0.0
C333 C 0.69294 0.59131 0.42364 0.0
C334 C 0.64769 0.69096 0.32259 0.0
O335 O 0.66434 0.58605 0.25085 0.0
Mg336 Mg 0.38491 0.41226 0.06087 0.0
O337 O 0.37898 0.35492 0.0923 0.0
O338 O 0.40994 0.35026 0.16469 0.0
Mg339 Mg 0.43371 0.40486 0.18218 0.0
C340 C 0.39016 0.33663 0.13027 0.0
C341 C 0.33195 0.42187 0.96808 0.0
O342 O 0.33951 0.45598 0.97507 0.0
O343 O 0.34568 0.43288 0.12015 0.0
O344 O 0.37869 0.42736 0.19053 0.0
O345 O 0.43362 0.39637 0.02093 0.0
O346 O 0.43298 0.41804 0.09994 0.0
C347 C 0.3501 0.43575 0.16873 0.0
C348 C 0.45038 0.40395 0.06281 0.0
O349 O 0.34346 0.39913 0.00014 0.0
Mg350 Mg 0.35379 0.59082 0.83266 0.0
O351 O 0.35605 0.65282 0.82948 0.0
O352 O 0.39777 0.66654 0.77255 0.0
Mg353 Mg 0.42331 0.61585 0.74235 0.0
C354 C 0.37394 0.6758 0.80403 0.0
C355 C 0.29715 0.56533 0.90565 0.0
O356 O 0.31684 0.53701 0.8998 0.0
O357 O 0.32637 0.58734 0.75338 0.0
O358 O 0.37204 0.60123 0.70306 0.0
O359 O 0.39506 0.59058 0.89386 0.0
O360 O 0.40551 0.58692 0.81053 0.0
C361 C 0.34011 0.59227 0.70896 0.0
C362 C 0.41739 0.58845 0.85666 0.0
O363 O 0.3039 0.59324 0.8793 0.0
Mg364 Mg 0.11055 0.55761 0.55978 0.0
O365 O 0.11603 0.61493 0.59168 0.0
O366 O 0.08479 0.61942 0.66394 0.0
Mg367 Mg 0.06129 0.56465 0.68092 0.0
C368 C 0.10464 0.63315 0.62972 0.0
C369 C 0.16332 0.5487 0.4665 0.0
O370 O 0.1557 0.51455 0.47279 0.0
O371 O 0.14977 0.53726 0.61909 0.0
O372 O 0.11647 0.54266 0.68932 0.0
O373 O 0.06184 0.57321 0.51976 0.0
O374 O 0.06237 0.55148 0.59861 0.0
C375 C 0.14521 0.53446 0.66766 0.0
C376 C 0.04499 0.56548 0.56151 0.0
O377 O 0.15201 0.57118 0.49926 0.0
Mg378 Mg 0.14085 0.38175 0.33282 0.0
O379 O 0.13838 0.31976 0.32949 0.0
O380 O 0.09671 0.3061 0.27247 0.0
Mg381 Mg 0.07137 0.35683 0.24241 0.0
C382 C 0.12044 0.29681 0.30397 0.0
C383 C 0.19743 0.40706 0.4061 0.0
O384 O 0.17779 0.43541 0.40046 0.0
O385 O 0.16838 0.38506 0.25351 0.0
O386 O 0.12272 0.37125 0.20318 0.0
O387 O 0.0995 0.38216 0.39401 0.0
O388 O 0.08917 0.38576 0.3107 0.0
C389 C 0.15467 0.38013 0.20908 0.0
C390 C 0.07722 0.38427 0.35682 0.0
O391 O 0.19069 0.37919 0.37951 0.0
Mg392 Mg 0.38333 0.5576 0.41412 0.0
O393 O 0.37761 0.61489 0.38297 0.0
O394 O 0.40874 0.62026 0.31067 0.0
Mg395 Mg 0.43249 0.5662 0.29299 0.0
C396 C 0.38893 0.63346 0.34509 0.0
C397 C 0.33012 0.54705 0.50685 0.0
O398 O 0.33747 0.51305 0.4999 0.0
O399 O 0.34423 0.53622 0.35462 0.0
O400 O 0.37756 0.54246 0.28447 0.0
O401 O 0.43208 0.57435 0.45414 0.0
O402 O 0.43144 0.55272 0.37511 0.0
C403 C 0.34887 0.53342 0.30606 0.0
C404 C 0.44886 0.56705 0.41227 0.0
O405 O 0.34181 0.56994 0.47475 0.0
Mg406 Mg 0.13911 0.59336 0.1413 0.0
O407 O 0.13823 0.6554 0.14442 0.0
O408 O 0.09694 0.66916 0.20169 0.0
Mg409 Mg 0.07024 0.61861 0.23179 0.0
C410 C 0.12088 0.67838 0.17009 0.0
C411 C 0.19505 0.56695 0.06896 0.0
O412 O 0.17459 0.53887 0.07551 0.0
O413 O 0.1665 0.59004 0.22055 0.0
O414 O 0.1212 0.604 0.27104 0.0
O415 O 0.09788 0.59297 0.08006 0.0
O416 O 0.08732 0.58966 0.16339 0.0
C417 C 0.15294 0.59502 0.26503 0.0
C418 C 0.07548 0.59102 0.11723 0.0
O419 O 0.18906 0.59528 0.09463 0.0
Mg420 Mg 0.11123 0.41516 0.91453 0.0
O421 O 0.11655 0.35775 0.88338 0.0
O422 O 0.08537 0.35237 0.81118 0.0
Mg423 Mg 0.06206 0.40657 0.79346 0.0
C424 C 0.1051 0.33914 0.84555 0.0
C425 C 0.16454 0.42543 0.00725 0.0
O426 O 0.15746 0.45949 0.0005 0.0
O427 O 0.15055 0.43602 0.85495 0.0
O428 O 0.11722 0.4297 0.78487 0.0
O429 O 0.0623 0.39887 0.95457 0.0
O430 O 0.06318 0.42029 0.87555 0.0
C431 C 0.14598 0.43858 0.80638 0.0
C432 C 0.04562 0.40616 0.91269 0.0
O433 O 0.15262 0.40262 0.97513 0.0
Mg434 Mg 0.35476 0.37844 0.64208 0.0
O435 O 0.3554 0.31637 0.64453 0.0
O436 O 0.39662 0.30229 0.70154 0.0
Mg437 Mg 0.42362 0.35265 0.73199 0.0
C438 C 0.37263 0.29325 0.66995 0.0
C439 C 0.29913 0.4051 0.56967 0.0
O440 O 0.31981 0.43303 0.57621 0.0
O441 O 0.32742 0.38164 0.72152 0.0
O442 O 0.37277 0.3674 0.77159 0.0
O443 O 0.39606 0.37893 0.58078 0.0
O444 O 0.40654 0.38194 0.66413 0.0
C445 C 0.34106 0.37651 0.76587 0.0
C446 C 0.41842 0.38077 0.61795 0.0
O447 O 0.30484 0.37681 0.59542 0.0
C448 C 0.19717 0.98394 0.29083 0.0
C449 C 0.19232 0.01833 0.27038 0.0
H450 H 0.19445 0.92773 0.2746 0.0
C451 C 0.19686 0.02322 0.21704 0.0
H452 H 0.19436 0.97934 0.33182 0.0
C453 C 0.19729 -0.00652 0.18405 0.0
C454 C 0.19276 0.95893 0.20449 0.0
H455 H 0.1939 0.04961 0.20031 0.0
H456 H 0.19454 -0.00199 0.14306 0.0
C457 C 0.19719 0.9542 0.25785 0.0
C458 C 0.21367 0.90624 0.46823 0.0
C459 C 0.21891 0.90247 0.52153 0.0
H460 H 0.23726 0.90359 0.39374 0.0
C461 C 0.25272 0.90672 0.54126 0.0
H462 H 0.18771 0.90363 0.45218 0.0
C463 C 0.28119 0.90607 0.50769 0.0
C464 C 0.27582 0.90189 0.45443 0.0
H465 H 0.25751 0.90435 0.58221 0.0
H466 H 0.30707 0.9034 0.52379 0.0
C467 C 0.24214 0.90627 0.43466 0.0
C468 C 0.29432 0.01779 0.75735 0.0
C469 C 0.29889 0.01279 0.70403 0.0
H470 H 0.29704 -0.0069 0.83147 0.0
C471 C 0.29458 0.9781 0.6838 0.0
H472 H 0.2969 0.04438 0.77391 0.0
C473 C 0.29504 0.94855 0.71697 0.0
C474 C 0.29939 0.95375 0.7703 0.0
H475 H 0.29746 0.97337 0.64284 0.0
H476 H 0.29817 0.92209 0.70039 0.0
C477 C 0.29434 -0.01176 0.79052 0.0
C478 C 0.21101 0.06606 0.00759 0.0
C479 C 0.21631 0.06999 0.95429 0.0
H480 H 0.23488 0.06747 0.08191 0.0
C481 C 0.24985 0.06496 0.93424 0.0
H482 H 0.18523 0.06924 0.02388 0.0
C483 C 0.27841 0.0645 0.96759 0.0
C484 C 0.27337 0.06846 0.02094 0.0
H485 H 0.25467 0.06743 0.89328 0.0
H486 H 0.30435 0.06658 0.95132 0.0
C487 C 0.23954 0.06492 0.04092 0.0
C488 C 0.82143 0.94827 0.75216 0.0
C489 C 0.82583 0.95671 0.69981 0.0
H490 H 0.82305 0.96859 0.82911 0.0
C491 C 0.82111 -0.00774 0.68392 0.0
H492 H 0.8245 0.92091 0.76523 0.0
C493 C 0.82105 0.01971 0.72064 0.0
C494 C 0.82494 0.01143 0.77309 0.0
H495 H 0.824 -0.00055 0.64373 0.0
H496 H 0.82389 0.04718 0.70762 0.0
C497 C 0.82054 0.97571 0.78886 0.0
C498 C 0.75548 0.0333 0.46506 0.0
C499 C 0.76811 0.06563 0.44412 0.0
H500 H 0.72215 0.00826 0.52088 0.0
C501 C 0.75682 0.09826 0.46512 0.0
H502 H 0.76385 0.00774 0.44981 0.0
C503 C 0.73359 0.09855 0.50658 0.0
C504 C 0.72072 0.06622 0.5272 0.0
H505 H 0.76638 0.1236 0.45012 0.0
H506 H 0.72527 0.12411 0.52187 0.0
C507 C 0.73174 0.0336 0.50588 0.0
C508 C 0.67213 0.95119 0.22189 0.0
C509 C 0.66808 0.96031 0.27409 0.0
H510 H 0.66937 0.9702 0.14445 0.0
C511 C 0.67254 -0.00374 0.2889 0.0
H512 H 0.66927 0.92352 0.20964 0.0
C513 C 0.67182 0.0231 0.25145 0.0
C514 C 0.66748 0.01384 0.19934 0.0
H515 H 0.66994 0.00399 0.32895 0.0
H516 H 0.66875 0.05067 0.26378 0.0
C517 C 0.67221 0.97805 0.18443 0.0
C518 C 0.73459 0.87411 0.96676 0.0
C519 C 0.72291 0.90678 0.94662 0.0
H520 H 0.7665 0.84814 0.02271 0.0
C521 C 0.73521 0.93907 0.96826 0.0
H522 H 0.72528 0.8488 0.95122 0.0
C523 C 0.75902 0.93869 0.00892 0.0
C524 C 0.77044 0.90601 0.02939 0.0
H525 H 0.72654 0.96466 0.95364 0.0
H526 H 0.76838 0.964 0.02444 0.0
C527 C 0.75788 0.87373 0.00808 0.0
C528 C 0.69977 0.45398 0.75691 0.0
C529 C 0.6952 0.45876 0.70359 0.0
H530 H 0.69705 0.479 0.83094 0.0
C531 C 0.6996 0.49334 0.68321 0.0
H532 H 0.69715 0.42746 0.77357 0.0
C533 C 0.69914 0.52304 0.71627 0.0
C534 C 0.69475 0.51808 0.76962 0.0
H535 H 0.69675 0.49789 0.64224 0.0
H536 H 0.69606 0.54943 0.6996 0.0
C537 C 0.69977 0.48368 0.78996 0.0
C538 C 0.7431 0.40797 0.93404 0.0
C539 C 0.77677 0.40368 0.95387 0.0
H540 H 0.68866 0.405 0.95134 0.0
C541 C 0.78205 0.40765 0.00718 0.0
H542 H 0.73831 0.40546 0.89307 0.0
C543 C 0.75352 0.40799 0.04066 0.0
C544 C 0.71976 0.40369 0.0208 0.0
H545 H 0.80791 0.40501 0.02332 0.0
H546 H 0.75828 0.40549 0.08161 0.0
C547 C 0.71457 0.40765 0.96751 0.0
C548 C 0.79459 0.48838 0.28914 0.0
C549 C 0.7999 0.45386 0.26922 0.0
H550 H 0.79667 0.54445 0.27208 0.0
C551 C 0.79561 0.4484 0.21593 0.0
H552 H 0.79721 0.49341 0.33007 0.0
C553 C 0.79494 0.47779 0.1825 0.0
C554 C 0.799 0.51258 0.20245 0.0
H555 H 0.79893 0.42188 0.1996 0.0
H556 H 0.79789 0.4729 0.14159 0.0
C557 C 0.79431 0.51778 0.25571 0.0
C558 C 0.7509 0.56382 0.43245 0.0
C559 C 0.71743 0.56893 0.45275 0.0
H560 H 0.80544 0.56488 0.44927 0.0
C561 C 0.71222 0.56462 0.506 0.0
H562 H 0.75563 0.56657 0.3915 0.0
C563 C 0.74081 0.56295 0.53916 0.0
C564 C 0.77462 0.56641 0.51907 0.0
H565 H 0.6865 0.56784 0.52248 0.0
H566 H 0.73626 0.56518 0.58022 0.0
C567 C 0.77952 0.56284 0.46563 0.0
C568 C 0.32125 0.49307 0.18507 0.0
C569 C 0.32615 0.45734 0.19998 0.0
H570 H 0.32393 0.54766 0.21025 0.0
C571 C 0.3218 0.44819 0.25208 0.0
H572 H 0.32408 0.5008 0.14507 0.0
C573 C 0.32092 0.47513 0.28954 0.0
C574 C 0.32525 0.51106 0.27471 0.0
H575 H 0.32498 0.42067 0.26439 0.0
H576 H 0.32355 0.46749 0.32957 0.0
C577 C 0.32116 0.52002 0.22254 0.0
C578 C 0.2336 0.53394 0.00791 0.0
C579 C 0.22194 0.56662 0.02826 0.0
H580 H 0.26662 0.50793 0.95316 0.0
C581 C 0.23468 0.5989 0.00728 0.0
H582 H 0.22414 0.50863 0.0232 0.0
C583 C 0.25838 0.59849 0.96641 0.0
C584 C 0.27028 0.56581 0.94638 0.0
H585 H 0.22589 0.62449 0.02184 0.0
H586 H 0.26781 0.62379 0.9511 0.0
C587 C 0.2578 0.53354 0.96769 0.0
C588 C 0.17432 0.49649 0.78897 0.0
C589 C 0.16986 0.46042 0.77478 0.0
H590 H 0.17047 0.55066 0.76287 0.0
C591 C 0.17404 0.45085 0.72278 0.0
H592 H 0.17164 0.50457 0.82886 0.0
C593 C 0.17409 0.47738 0.68483 0.0
C594 C 0.16926 0.51328 0.6991 0.0
H595 H 0.17119 0.42308 0.71101 0.0
H596 H 0.17127 0.46918 0.64498 0.0
C597 C 0.17361 0.52301 0.75103 0.0
C598 C 0.23686 0.43871 0.46825 0.0
C599 C 0.22422 0.40648 0.44686 0.0
H600 H 0.27053 0.46351 0.52387 0.0
C601 C 0.23587 0.37376 0.46689 0.0
H602 H 0.22823 0.46434 0.45372 0.0
C603 C 0.25946 0.37328 0.50785 0.0
C604 C 0.27235 0.40552 0.5289 0.0
H605 H 0.22631 0.34849 0.45153 0.0
H606 H 0.26805 0.34766 0.52241 0.0
C607 C 0.26095 0.43824 0.50853 0.0
C608 C 0.12171 0.198 0.27457 0.0
C609 C 0.12968 0.18276 0.32262 0.0
H610 H 0.11259 0.24557 0.23142 0.0
C611 C 0.13857 0.20576 0.36372 0.0
H612 H 0.11529 0.18131 0.24166 0.0
C613 C 0.13737 0.24319 0.35741 0.0
C614 C 0.12688 0.258 0.31016 0.0
H615 H 0.14488 0.19493 0.40117 0.0
H616 H 0.1429 0.26042 0.39008 0.0
C617 C 0.12007 0.23498 0.26858 0.0
C618 C 0.00522 0.89952 0.61513 0.0
C619 C 0.98641 0.89073 0.57025 0.0
H620 H 0.0533 0.89474 0.65669 0.0
C621 C 0.00287 0.87083 0.53157 0.0
H622 H 0.9934 0.9152 0.64545 0.0
C623 C 0.03701 0.8593 0.53788 0.0
C624 C 0.05578 0.86737 0.58308 0.0
H625 H 0.98927 0.86369 0.49645 0.0
H626 H 0.04853 0.8437 0.50718 0.0
C627 C 0.0396 0.88793 0.62151 0.0
C628 C 0.35433 0.76683 0.86346 0.0
C629 C 0.36357 0.78985 0.82264 0.0
H630 H 0.35011 0.71219 0.88963 0.0
C631 C 0.37243 0.77459 0.77484 0.0
H632 H 0.34734 0.77767 0.90073 0.0
C633 C 0.3745 0.73762 0.76887 0.0
C634 C 0.36728 0.7146 0.8102 0.0
H635 H 0.37916 0.79127 0.74214 0.0
H636 H 0.38261 0.72705 0.73191 0.0
C637 C 0.35599 0.7294 0.85716 0.0
C638 C 0.45608 0.10888 0.03617 0.0
C639 C 0.43738 0.10129 0.08161 0.0
H640 H 0.50378 0.10414 -0.00544 0.0
C641 C 0.45359 0.08103 0.12019 0.0
H642 H 0.44453 0.12421 0.00533 0.0
C643 C 0.48796 0.06938 0.11379 0.0
C644 C 0.50675 0.07781 0.06874 0.0
H645 H 0.43995 0.07457 0.15555 0.0
H646 H 0.49982 0.05399 0.14426 0.0
C647 C 0.49021 0.0973 0.02985 0.0
C648 C 0.12263 0.74003 0.20597 0.0
C649 C 0.12819 0.71716 0.16395 0.0
H650 H 0.11906 0.79364 0.23328 0.0
C651 C 0.13797 0.73214 0.11631 0.0
H652 H 0.11573 0.72929 0.24339 0.0
C653 C 0.13952 0.76959 0.11011 0.0
C654 C 0.13168 0.79243 0.15167 0.0
H655 H 0.14252 0.71502 0.08331 0.0
H656 H 0.14511 0.78055 0.07238 0.0
C657 C 0.12462 0.77705 0.20005 0.0
C658 C 0.49109 0.87367 0.44468 0.0
C659 C 0.5077 0.89356 0.40583 0.0
H660 H 0.44527 0.84595 0.46922 0.0
C661 C 0.48893 0.90178 0.36089 0.0
H662 H 0.50465 0.86698 0.47987 0.0
C663 C 0.4545 0.88959 0.35455 0.0
C664 C 0.43821 0.86897 0.39309 0.0
H665 H 0.50084 0.91747 0.33047 0.0
H666 H 0.44086 0.89594 0.3193 0.0
C667 C 0.4569 0.86154 0.43841 0.0
C668 C 0.3532 0.20209 0.60976 0.0
C669 C 0.36072 0.17925 0.6513 0.0
H670 H 0.35082 0.25666 0.58303 0.0
C671 C 0.36785 0.19466 0.69971 0.0
H672 H 0.34758 0.19111 0.57201 0.0
C673 C 0.37023 0.23167 0.70567 0.0
C674 C 0.36499 0.25452 0.66368 0.0
H675 H 0.37318 0.17807 0.73292 0.0
H676 H 0.37718 0.24241 0.74312 0.0
C677 C 0.35514 0.23955 0.61601 0.0
C678 C 0.03526 0.11231 0.93745 0.0
C679 C 0.05421 0.10442 0.89245 0.0
H680 H 0.98723 0.10737 0.97843 0.0
C681 C 0.03806 0.08362 0.85391 0.0
H682 H 0.04676 0.12808 0.96822 0.0
C683 C 0.00354 0.07161 0.85998 0.0
C684 C 0.98456 0.08021 0.90465 0.0
H685 H 0.05189 0.07693 0.81888 0.0
H686 H 0.99176 0.05574 0.82959 0.0
C687 C 0.00098 0.10036 0.94345 0.0
C688 C 0.87834 0.7407 0.68461 0.0
C689 C 0.85853 0.7238 0.64601 0.0
H690 H 0.90359 0.78879 0.71024 0.0
C691 C 0.84913 0.74346 0.60216 0.0
H692 H 0.88596 0.72626 0.71887 0.0
C693 C 0.8591 0.77942 0.59721 0.0
C694 C 0.87877 0.79644 0.63598 0.0
H695 H 0.8336 0.73127 0.57193 0.0
H696 H 0.85124 0.79388 0.56308 0.0
C697 C 0.88843 0.77658 0.6796 0.0
C698 C 0.97514 0.0767 0.32498 0.0
C699 C 0.95278 0.08776 0.36461 0.0
H700 H 0.02672 0.06318 0.30287 0.0
C701 C 0.9668 0.0957 0.41328 0.0
H702 H 0.9651 0.06995 0.28719 0.0
C703 C 0.00261 0.09236 0.4221 0.0
C704 C 0.02483 0.08056 0.38257 0.0
H705 H 0.95013 0.10421 0.44456 0.0
H706 H 0.01274 0.09837 0.46008 0.0
C707 C 0.01064 0.07286 0.33397 0.0
C708 C 0.61549 0.22844 0.18383 0.0
C709 C 0.63572 0.24513 0.14556 0.0
H710 H 0.58947 0.18067 0.20882 0.0
C711 C 0.64495 0.22547 0.1015 0.0
H712 H 0.60795 0.24289 0.21822 0.0
C713 C 0.63448 0.18966 0.09611 0.0
C714 C 0.61445 0.17283 0.13462 0.0
H715 H 0.66076 0.23752 0.07149 0.0
H716 H 0.64227 0.17516 0.06188 0.0
C717 C 0.60489 0.19273 0.17837 0.0
C718 C 0.5166 0.89639 0.82643 0.0
C719 C 0.53875 0.88501 0.86601 0.0
H720 H 0.46519 0.91036 0.80427 0.0
C721 C 0.52452 0.87701 0.91452 0.0
H722 H 0.5268 0.90321 0.78878 0.0
C723 C 0.48871 0.88057 0.92322 0.0
C724 C 0.46669 0.89263 0.88373 0.0
H725 H 0.54104 0.86828 0.94576 0.0
H726 H 0.47841 0.87446 0.96106 0.0
C727 C 0.4811 0.90045 0.83531 0.0
C728 C 0.8776 0.2287 0.78938 0.0
C729 C 0.8578 0.24531 0.8279 0.0
H730 H 0.90265 0.18101 0.76387 0.0
C731 C 0.84821 0.22555 0.87178 0.0
H732 H 0.88538 0.24322 0.75509 0.0
C733 C 0.85797 0.18974 0.87681 0.0
C734 C 0.87764 0.17301 0.83809 0.0
H735 H 0.8327 0.23754 0.90196 0.0
H736 H 0.84998 0.17518 0.91095 0.0
C737 C 0.8875 0.19299 0.79446 0.0
C738 C 0.52353 0.09613 0.55999 0.0
C739 C 0.53764 0.08894 0.6087 0.0
H740 H 0.47751 0.09726 0.51333 0.0
C741 C 0.51536 0.07776 0.64857 0.0
H742 H 0.54014 0.1047 0.52852 0.0
C743 C 0.47985 0.07297 0.63976 0.0
C744 C 0.46558 0.07984 0.5911 0.0
H745 H 0.52547 0.07156 0.68641 0.0
H746 H 0.46386 0.06317 0.67104 0.0
C747 C 0.48771 0.09186 0.55136 0.0
C748 C 0.61549 0.74443 0.29129 0.0
C749 C 0.63561 0.72809 0.32955 0.0
H750 H 0.58979 0.79175 0.26621 0.0
C751 C 0.64494 0.74792 0.37356 0.0
H752 H 0.60785 0.72984 0.25694 0.0
C753 C 0.6347 0.7836 0.37887 0.0
C754 C 0.61481 0.80008 0.34033 0.0
H755 H 0.66064 0.73612 0.40357 0.0
H756 H 0.64257 0.79827 0.41304 0.0
C757 C 0.60512 0.77997 0.29667 0.0
C758 C 0.97638 0.89322 0.14917 0.0
C759 C 0.95407 0.88244 0.10911 0.0
H760 H 0.02791 0.90745 0.17186 0.0
C761 C 0.96818 0.87558 0.06022 0.0
H762 H 0.96629 0.89915 0.18717 0.0
C763 C 0.00402 0.8798 0.05161 0.0
C764 C 0.02617 0.89143 0.09156 0.0
H765 H 0.95155 0.86732 0.0286 0.0
H766 H 0.01422 0.87468 0.01344 0.0
C767 C 0.0119 0.89797 0.14039 0.0
C768 C 0.6381 0.74277 0.85709 0.0
C769 C 0.62725 0.75746 0.80993 0.0
H770 H 0.64636 0.6946 0.90076 0.0
C771 C 0.62056 0.73436 0.7684 0.0
H772 H 0.64356 0.76006 0.88972 0.0
C773 C 0.62267 0.6974 0.77435 0.0
C774 C 0.63101 0.68225 0.82232 0.0
H775 H 0.61281 0.74485 0.73131 0.0
H776 H 0.61633 0.68064 0.74149 0.0
C777 C 0.63978 0.70535 0.86336 0.0
C778 C 0.5037 0.37364 0.03041 0.0
C779 C 0.48718 0.39327 0.06933 0.0
H780 H 0.54935 0.3466 0.0058 0.0
C781 C 0.50595 0.40176 0.11437 0.0
H782 H 0.49014 0.36675 -0.00486 0.0
C783 C 0.5403 0.39006 0.12072 0.0
C784 C 0.55649 0.36969 0.08208 0.0
H785 H 0.4941 0.41724 0.14486 0.0
H786 H 0.55394 0.39658 0.15605 0.0
C787 C 0.5378 0.36201 0.03668 0.0
C788 C 0.87139 0.2382 0.26798 0.0
C789 C 0.86503 0.21515 0.30956 0.0
H790 H 0.87588 0.29189 0.24135 0.0
C791 C 0.85495 0.22991 0.35716 0.0
H792 H 0.87854 0.22763 0.23059 0.0
C793 C 0.85379 0.26734 0.36376 0.0
C794 C 0.86231 0.29037 0.32263 0.0
H795 H 0.84977 0.21265 0.38983 0.0
H796 H 0.84785 0.27815 0.40144 0.0
C797 C 0.86979 0.27517 0.27428 0.0
C798 C 0.95485 0.57885 0.61924 0.0
C799 C 0.93867 0.59923 0.58075 0.0
H800 H 0.00109 0.55182 0.64327 0.0
C801 C 0.95744 0.60704 0.53545 0.0
H802 H 0.94115 0.57223 0.65449 0.0
C803 C 0.9916 0.59555 0.52917 0.0
C804 C 0.00811 0.57594 0.56797 0.0
H805 H 0.94591 0.62245 0.50468 0.0
H806 H 0.00522 0.60255 0.49399 0.0
C807 C 0.98926 0.5673 0.61288 0.0
C808 C 0.63892 0.23181 0.6161 0.0
C809 C 0.629 0.217 0.66379 0.0
H810 H 0.64652 0.2801 0.57202 0.0
C811 C 0.62369 0.23999 0.70574 0.0
H812 H 0.64329 0.2146 0.58314 0.0
C813 C 0.62606 0.27698 0.69972 0.0
C814 C 0.63326 0.29223 0.65129 0.0
H815 H 0.6167 0.22937 0.7432 0.0
H816 H 0.62068 0.29367 0.73291 0.0
C817 C 0.64084 0.26925 0.60979 0.0
C818 C 0.99007 0.40349 0.86108 0.0
C819 C 0.00873 0.39502 0.90602 0.0
H820 H 0.94207 0.39792 0.81923 0.0
C821 C 0.99203 0.37496 0.94458 0.0
H822 H 0.00206 0.41932 0.83088 0.0
C823 C 0.95783 0.36289 0.93803 0.0
C824 C 0.93923 0.37057 0.89272 0.0
H825 H 0.00551 0.36806 0.97975 0.0
H826 H 0.94613 0.34716 0.96863 0.0
C827 C 0.95563 0.39137 0.85447 0.0
C828 C 0.854 0.73947 0.11343 0.0
C829 C 0.86216 0.75426 0.16189 0.0
H830 H 0.84824 0.69115 0.06859 0.0
C831 C 0.8658 0.73132 0.20414 0.0
H832 H 0.85096 0.75669 0.08024 0.0
C833 C 0.86369 0.69432 0.19779 0.0
C834 C 0.85847 0.67908 0.14876 0.0
H835 H 0.87141 0.74198 0.24212 0.0
H836 H 0.86784 0.67761 0.23125 0.0
C837 C 0.85236 0.70202 0.10682 0.0
C838 C 0.53892 0.58204 0.35427 0.0
C839 C 0.55524 0.60276 0.39275 0.0
H840 H 0.49256 0.55411 0.33036 0.0
C841 C 0.53655 0.61037 0.4381 0.0
H842 H 0.55255 0.57556 0.319 0.0
C843 C 0.50235 0.59829 0.44447 0.0
C844 C 0.48573 0.57828 0.40571 0.0
H845 H 0.54819 0.62605 0.46886 0.0
H846 H 0.48879 0.60512 0.47969 0.0
C847 C 0.50448 0.5699 0.36072 0.0
C848 C 0.35957 0.28159 0.09669 0.0
C849 C 0.37964 0.29848 0.13512 0.0
H850 H 0.33329 0.23369 0.07212 0.0
C851 C 0.38931 0.27865 0.17876 0.0
H852 H 0.3517 0.29603 0.06256 0.0
C853 C 0.37876 0.24293 0.18418 0.0
C854 C 0.35848 0.22618 0.14599 0.0
H855 H 0.40477 0.29076 0.20914 0.0
H856 H 0.38637 0.22853 0.21848 0.0
C857 C 0.34915 0.24578 0.10205 0.0
C858 C 0.46952 0.5951 0.91445 0.0
C859 C 0.45526 0.58707 0.86596 0.0
H860 H 0.51566 0.59776 0.96079 0.0
C861 C 0.47741 0.57579 0.82621 0.0
H862 H 0.45301 0.60378 0.94583 0.0
C863 C 0.51294 0.57185 0.83488 0.0
C864 C 0.52736 0.57967 0.88328 0.0
H865 H 0.46718 0.56895 0.78855 0.0
H866 H 0.52886 0.56203 0.80368 0.0
C867 C 0.50535 0.59165 0.92295 0.0
C868 C 0.13517 0.68832 0.59668 0.0
C869 C 0.11505 0.67132 0.63493 0.0
H870 H 0.16138 0.73631 0.57255 0.0
C871 C 0.10528 0.69105 0.67874 0.0
H872 H 0.14314 0.67394 0.56244 0.0
C873 C 0.11574 0.72679 0.68448 0.0
C874 C 0.13602 0.74365 0.64644 0.0
H875 H 0.08979 0.67885 0.709 0.0
H876 H 0.10802 0.74112 0.71889 0.0
C877 C 0.1455 0.72414 0.60236 0.0
C878 C 0.02502 0.37769 0.41461 0.0
C879 C 0.03933 0.38558 0.36611 0.0
H880 H 0.97882 0.37509 0.46094 0.0
C881 C 0.0172 0.39664 0.32631 0.0
H882 H 0.04151 0.36918 0.44602 0.0
C883 C 0.98164 0.4005 0.33495 0.0
C884 C 0.96718 0.39284 0.38337 0.0
H885 H 0.02746 0.40336 0.28865 0.0
H886 H 0.96574 0.41015 0.30373 0.0
C887 C 0.98917 0.38107 0.42308 0.0
C888 C 0.38824 0.69142 0.29667 0.0
C889 C 0.37856 0.67142 0.34037 0.0
H890 H 0.38552 0.74147 0.25698 0.0
C891 C 0.35867 0.688 0.37896 0.0
H892 H 0.40357 0.67956 0.26616 0.0
C893 C 0.34844 0.72366 0.3737 0.0
C894 C 0.35779 0.74339 0.32968 0.0
H895 H 0.35081 0.67342 0.41315 0.0
H896 H 0.33274 0.73552 0.40375 0.0
C897 C 0.37789 0.72696 0.29134 0.0
C898 C 0.98777 0.59221 0.05024 0.0
C899 C 0.96553 0.58045 0.09001 0.0
H900 H 0.04029 0.60475 0.02749 0.0
C901 C 0.97969 0.57381 0.13881 0.0
H902 H 0.97766 0.59743 0.0121 0.0
C903 C 0.0152 0.5785 0.14771 0.0
C904 C 0.0376 0.58936 0.10781 0.0
H905 H 0.9636 0.56424 0.17013 0.0
H906 H 0.02521 0.57243 0.18565 0.0
C907 C 0.02358 0.59641 0.05899 0.0
C908 C 0.11573 0.24549 0.79164 0.0
C909 C 0.13573 0.22903 0.82992 0.0
H910 H 0.09028 0.29296 0.76659 0.0
C911 C 0.14513 0.24879 0.87398 0.0
H912 H 0.10806 0.23096 0.75726 0.0
C913 C 0.13505 0.2845 0.87933 0.0
C914 C 0.11526 0.30111 0.84078 0.0
H915 H 0.16075 0.2369 0.90399 0.0
H916 H 0.14296 0.29911 0.91353 0.0
C917 C 0.10552 0.28108 0.79706 0.0
C918 C 0.47858 0.39375 0.64848 0.0
C919 C 0.45631 0.38258 0.60858 0.0
H920 H 0.53009 0.40824 0.671 0.0
C921 C 0.47046 0.37533 0.55983 0.0
H922 H 0.46844 0.39998 0.68635 0.0
C923 C 0.50629 0.37954 0.5512 0.0
C924 C 0.52841 0.39153 0.59098 0.0
H925 H 0.45386 0.36677 0.52833 0.0
H926 H 0.51652 0.3741 0.51314 0.0
C927 C 0.5141 0.39846 0.63967 0.0
C928 C 0.15145 0.0441 0.60066 0.0
C929 C 0.16719 0.06289 0.55962 0.0
H930 H 0.14435 0.04003 0.68231 0.0
C931 C 0.19166 0.08999 0.57089 0.0
H932 H 0.13263 0.02284 0.59342 0.0
C933 C 0.1986 0.09957 0.622 0.0
C934 C 0.18096 0.08251 0.66292 0.0
H935 H 0.20445 0.10477 0.54025 0.0
H936 H 0.21661 0.12156 0.6292 0.0
C937 C 0.15814 0.05391 0.65175 0.0
C938 C 0.15988 0.9208 0.82295 0.0
C939 C 0.18285 0.89274 0.81222 0.0
H940 H 0.13423 0.95168 0.88077 0.0
C941 C 0.2007 0.87663 0.85337 0.0
H942 H 0.14596 0.93397 0.79219 0.0
C943 C 0.19375 0.8865 0.90432 0.0
C944 C 0.16906 0.91296 0.91518 0.0
H945 H 0.21884 0.8551 0.8465 0.0
H946 H 0.20665 0.87238 0.93518 0.0
C947 C 0.1532 0.93092 0.87386 0.0
C948 C 0.33941 0.9285 0.10089 0.0
C949 C 0.32395 0.90937 0.05986 0.0
H950 H 0.34673 0.93267 0.18249 0.0
C951 C 0.30013 0.88169 0.07119 0.0
H952 H 0.35771 0.95021 0.09361 0.0
C953 C 0.29361 0.8719 0.12231 0.0
C954 C 0.31102 0.88933 0.16317 0.0
H955 H 0.28757 0.86663 0.04058 0.0
H956 H 0.27613 0.84948 0.12954 0.0
C957 C 0.33315 0.91848 0.15197 0.0
C958 C 0.33901 0.03994 0.37335 0.0
C959 C 0.32313 0.0582 0.41455 0.0
H960 H 0.34651 0.03647 0.29172 0.0
C961 C 0.2987 0.08482 0.40346 0.0
H962 H 0.35778 0.01905 0.38043 0.0
C963 C 0.292 0.09453 0.35244 0.0
C964 C 0.30986 0.0781 0.31142 0.0
H965 H 0.2858 0.09917 0.43421 0.0
H966 H 0.27406 0.11618 0.34541 0.0
C967 C 0.33258 0.04989 0.32237 0.0
C968 C 0.81436 0.92045 0.32609 0.0
C969 C 0.82051 0.8843 0.31444 0.0
H970 H 0.81238 0.96043 0.38533 0.0
C971 C 0.82075 0.85919 0.35459 0.0
H972 H 0.81451 0.94037 0.29578 0.0
C973 C 0.81956 0.87054 0.40583 0.0
C974 C 0.81883 0.90734 0.41776 0.0
H975 H 0.82572 0.83118 0.3465 0.0
H976 H 0.82299 0.85072 0.43578 0.0
C977 C 0.81357 0.93195 0.37751 0.0
C978 C 0.81123 0.03664 0.09617 0.0
C979 C 0.81678 0.06124 0.05585 0.0
H980 H 0.8123 0.02823 0.17787 0.0
C981 C 0.81818 0.09806 0.06775 0.0
H982 H 0.80951 0.00815 0.08836 0.0
C983 C 0.81978 0.10943 0.11897 0.0
C984 C 0.81923 0.08432 0.15912 0.0
H985 H 0.82185 0.11788 0.03775 0.0
H986 H 0.82528 0.13745 0.12698 0.0
C987 C 0.81239 0.04815 0.14756 0.0
C988 C 0.67155 0.11078 0.85377 0.0
C989 C 0.67167 0.08591 0.81318 0.0
H990 H 0.66973 0.11875 0.93513 0.0
C991 C 0.67799 0.04971 0.82407 0.0
H992 H 0.66645 0.13881 0.84625 0.0
C993 C 0.67907 0.03791 0.87527 0.0
C994 C 0.67395 0.06225 0.91603 0.0
H995 H 0.67776 0.02997 0.79341 0.0
H996 H 0.6804 0.00939 0.88257 0.0
C997 C 0.67306 0.09912 0.90478 0.0
C998 C 0.68039 0.93676 0.59844 0.0
C999 C 0.67499 0.91226 0.55783 0.0
H1000 H 0.67921 0.94491 0.68025 0.0
C1001 C 0.67372 0.87541 0.56928 0.0
H1002 H 0.68202 0.96528 0.59097 0.0
C1003 C 0.67211 0.86387 0.62036 0.0
C1004 C 0.67252 0.88884 0.66082 0.0
H1005 H 0.67016 0.85567 0.53904 0.0
H1006 H 0.66671 0.8358 0.62804 0.0
C1007 C 0.67922 0.92508 0.6497 0.0
C1008 C 0.69398 0.58967 0.07057 0.0
C1009 C 0.66995 0.56223 0.05892 0.0
H1010 H 0.71809 0.62157 0.12928 0.0
C1011 C 0.65423 0.54316 0.09971 0.0
H1012 H 0.70675 0.60468 0.04014 0.0
C1013 C 0.66042 0.55305 0.1509 0.0
C1014 C 0.68275 0.58198 0.16243 0.0
H1015 H 0.63576 0.52164 0.09218 0.0
H1016 H 0.64663 0.53894 0.18124 0.0
C1017 C 0.70045 0.59932 0.12179 0.0
C1018 C 0.69553 0.3864 0.40326 0.0
C1019 C 0.67122 0.41313 0.41461 0.0
H1020 H 0.72001 0.35497 0.34489 0.0
C1021 C 0.65544 0.43153 0.3736 0.0
H1022 H 0.70836 0.37194 0.43386 0.0
C1023 C 0.66181 0.42159 0.32253 0.0
C1024 C 0.68438 0.39327 0.31131 0.0
H1025 H 0.63677 0.45251 0.3809 0.0
H1026 H 0.64795 0.43511 0.29203 0.0
C1027 C 0.70217 0.37671 0.35214 0.0
C1028 C 0.83468 0.42081 0.65133 0.0
C1029 C 0.81174 0.39242 0.66294 0.0
H1030 H 0.85997 0.45151 0.59252 0.0
C1031 C 0.79362 0.37542 0.62236 0.0
H1032 H 0.84882 0.43465 0.68162 0.0
C1033 C 0.80024 0.3848 0.57112 0.0
C1034 C 0.82486 0.41164 0.55937 0.0
H1035 H 0.77549 0.3536 0.62991 0.0
H1036 H 0.78711 0.37004 0.54073 0.0
C1037 C 0.84104 0.43044 0.60012 0.0
C1038 C 0.79838 0.58125 0.9011 0.0
C1039 C 0.8237 0.55566 0.91274 0.0
H1040 H 0.77288 0.6113 0.84243 0.0
C1041 C 0.84035 0.53771 0.87193 0.0
H1042 H 0.78485 0.59529 0.93156 0.0
C1043 C 0.83379 0.54711 0.82077 0.0
C1044 C 0.81017 0.57441 0.80926 0.0
H1045 H 0.85982 0.51759 0.87945 0.0
H1046 H 0.84834 0.53406 0.79043 0.0
C1047 C 0.79154 0.59037 0.8499 0.0
C1048 C 0.31618 0.42179 0.82484 0.0
C1049 C 0.32241 0.3856 0.81357 0.0
H1050 H 0.31387 0.462 0.88372 0.0
C1051 C 0.32249 0.36065 0.85392 0.0
H1052 H 0.31647 0.44159 0.79436 0.0
C1053 C 0.32101 0.37221 0.90505 0.0
C1054 C 0.32019 0.40905 0.91666 0.0
H1055 H 0.32752 0.33262 0.84611 0.0
H1056 H 0.32429 0.35251 0.9352 0.0
C1057 C 0.31513 0.43349 0.87615 0.0
C1058 C 0.32159 0.60811 0.62111 0.0
C1059 C 0.32121 0.58312 0.6614 0.0
H1060 H 0.32341 0.61634 0.53984 0.0
C1061 C 0.31441 0.5469 0.65011 0.0
H1062 H 0.32706 0.63616 0.62893 0.0
C1063 C 0.31312 0.53524 0.59878 0.0
C1064 C 0.3185 0.55974 0.55829 0.0
H1065 H 0.31444 0.52707 0.68054 0.0
H1066 H 0.31142 0.50673 0.59116 0.0
C1067 C 0.31986 0.59659 0.56997 0.0
C1068 C 0.17989 0.53778 0.37419 0.0
C1069 C 0.17472 0.56194 0.41517 0.0
H1070 H 0.17832 0.53007 0.29231 0.0
C1071 C 0.17337 0.59882 0.40416 0.0
H1072 H 0.18156 0.50926 0.38131 0.0
C1073 C 0.1715 0.61061 0.35324 0.0
C1074 C 0.17172 0.58587 0.31249 0.0
H1075 H 0.16997 0.61832 0.43467 0.0
H1076 H 0.16609 0.63861 0.34596 0.0
C1077 C 0.17846 0.54972 0.32309 0.0
C1078 C 0.18049 0.42543 0.15043 0.0
C1079 C 0.1736 0.38922 0.16152 0.0
H1080 H 0.18351 0.46563 0.09175 0.0
C1081 C 0.17309 0.36426 0.12104 0.0
H1082 H 0.18056 0.44524 0.18101 0.0
C1083 C 0.17476 0.37582 0.06997 0.0
C1084 C 0.1762 0.41267 0.05855 0.0
H1085 H 0.16755 0.33622 0.12871 0.0
H1086 H 0.1711 0.3561 0.03972 0.0
C1087 C 0.18174 0.43712 0.09918 0.0
loop_
_geom_bond_atom_site_label_1
_geom_bond_atom_site_label_2
_geom_bond_distance
_geom_bond_site_symmetry_2
_ccdc_geom_bond_type
Mg0 O1 2.028 . S
Mg0 O7 1.986 . S
Mg0 O9 2.114 . S
Mg0 O10 2.251 . S
Mg0 O13 2.010 . S
O1 Mg0 2.028 . S
O1 C4 1.250 . S
O2 Mg3 2.028 . S
O2 C4 1.248 . S
Mg3 O2 2.028 . S
Mg3 O8 2.032 . S
Mg3 O10 2.079 . S
C4 O1 1.250 . S
C4 O2 1.248 . S
C5 O6 1.264 . S
C5 O13 1.249 . S
O6 C5 1.264 . S
O7 Mg0 1.986 . S
O7 C11 1.246 . S
O8 Mg3 2.032 . S
O8 C11 1.259 . S
O9 Mg0 2.114 . S
O9 C12 1.252 . S
O10 Mg0 2.251 . S
O10 Mg3 2.079 . S
O10 C12 1.273 . S
C11 O7 1.246 . S
C11 O8 1.259 . S
C12 O9 1.252 . S
C12 O10 1.273 . S
O13 Mg0 2.010 . S
O13 C5 1.249 . S
Mg14 O15 2.028 . S
Mg14 O21 1.986 . S
Mg14 O23 2.114 . S
Mg14 O24 2.251 . S
Mg14 O27 2.010 . S
O15 Mg14 2.028 . S
O15 C18 1.250 . S
O16 Mg17 2.028 . S
O16 C18 1.248 . S
Mg17 O16 2.028 . S
Mg17 O22 2.032 . S
Mg17 O24 2.079 . S
C18 O15 1.250 . S
C18 O16 1.248 . S
C19 O20 1.264 . S
C19 O27 1.249 . S
O20 C19 1.264 . S
O21 Mg14 1.986 . S
O21 C25 1.246 . S
O22 Mg17 2.032 . S
O22 C25 1.259 . S
O23 Mg14 2.114 . S
O23 C26 1.252 . S
O24 Mg14 2.251 . S
O24 Mg17 2.079 . S
O24 C26 1.273 . S
C25 O21 1.246 . S
C25 O22 1.259 . S
C26 O23 1.252 . S
C26 O24 1.273 . S
O27 Mg14 2.010 . S
O27 C19 1.249 . S
Mg28 O29 2.028 . S
Mg28 O35 1.986 . S
Mg28 O37 2.114 . S
Mg28 O38 2.251 . S
Mg28 O41 2.010 . S
O29 Mg28 2.028 . S
O29 C32 1.250 . S
O30 Mg31 2.028 . S
O30 C32 1.248 . S
Mg31 O30 2.028 . S
Mg31 O36 2.032 . S
Mg31 O38 2.079 . S
C32 O29 1.250 . S
C32 O30 1.248 . S
C33 O34 1.264 . S
C33 O41 1.249 1_554 S
O34 C33 1.264 . S
O35 Mg28 1.986 . S
O35 C39 1.246 . S
O36 Mg31 2.032 . S
O36 C39 1.259 . S
O37 Mg28 2.114 . S
O37 C40 1.252 . S
O38 Mg28 2.251 . S
O38 Mg31 2.079 . S
O38 C40 1.273 . S
C39 O35 1.246 . S
C39 O36 1.259 . S
C40 O37 1.252 . S
C40 O38 1.273 . S
O41 Mg28 2.010 . S
O41 C33 1.249 1_556 S
Mg42 O43 2.028 . S
Mg42 O49 1.986 . S
Mg42 O51 2.114 . S
Mg42 O52 2.251 . S
Mg42 O55 2.010 . S
O43 Mg42 2.028 . S
O43 C46 1.250 . S
O44 Mg45 2.028 . S
O44 C46 1.248 . S
Mg45 O44 2.028 . S
Mg45 O50 2.032 . S
Mg45 O52 2.079 . S
C46 O43 1.250 . S
C46 O44 1.248 . S
C47 O48 1.264 . S
C47 O55 1.249 . S
O48 C47 1.264 . S
O49 Mg42 1.986 . S
O49 C53 1.246 . S
O50 Mg45 2.032 . S
O50 C53 1.259 . S
O51 Mg42 2.114 . S
O51 C54 1.252 . S
O52 Mg42 2.251 . S
O52 Mg45 2.079 . S
O52 C54 1.273 . S
C53 O49 1.246 . S
C53 O50 1.259 . S
C54 O51 1.252 . S
C54 O52 1.273 . S
O55 Mg42 2.010 . S
O55 C47 1.249 . S
Mg56 O57 2.028 . S
Mg56 O63 1.986 . S
Mg56 O65 2.114 . S
Mg56 O66 2.251 . S
Mg56 O69 2.010 . S
O57 Mg56 2.028 . S
O57 C60 1.250 . S
O58 Mg59 2.028 . S
O58 C60 1.248 . S
Mg59 O58 2.028 . S
Mg59 O64 2.032 . S
Mg59 O66 2.079 . S
C60 O57 1.250 . S
C60 O58 1.248 . S
C61 O62 1.264 . S
C61 O69 1.249 1_556 S
O62 C61 1.264 . S
O63 Mg56 1.986 . S
O63 C67 1.246 . S
O64 Mg59 2.032 . S
O64 C67 1.259 . S
O65 Mg56 2.114 . S
O65 C68 1.252 . S
O66 Mg56 2.251 . S
O66 Mg59 2.079 . S
O66 C68 1.273 . S
C67 O63 1.246 . S
C67 O64 1.259 . S
C68 O65 1.252 . S
C68 O66 1.273 . S
O69 Mg56 2.010 . S
O69 C61 1.249 1_554 S
Mg70 O71 2.028 . S
Mg70 O77 1.986 . S
Mg70 O79 2.114 . S
Mg70 O80 2.251 . S
Mg70 O83 2.010 . S
O71 Mg70 2.028 . S
O71 C74 1.250 . S
O72 Mg73 2.028 . S
O72 C74 1.248 . S
Mg73 O72 2.028 . S
Mg73 O78 2.032 . S
Mg73 O80 2.079 . S
C74 O71 1.250 . S
C74 O72 1.248 . S
C75 O76 1.264 . S
C75 O83 1.249 . S
O76 C75 1.264 . S
O77 Mg70 1.986 . S
O77 C81 1.246 . S
O78 Mg73 2.032 . S
O78 C81 1.259 . S
O79 Mg70 2.114 . S
O79 C82 1.252 . S
O80 Mg70 2.251 . S
O80 Mg73 2.079 . S
O80 C82 1.273 . S
C81 O77 1.246 . S
C81 O78 1.259 . S
C82 O79 1.252 . S
C82 O80 1.273 . S
O83 Mg70 2.010 . S
O83 C75 1.249 . S
Mg84 O85 2.028 . S
Mg84 O91 1.986 . S
Mg84 O93 2.114 . S
Mg84 O94 2.251 . S
Mg84 O97 2.010 . S
O85 Mg84 2.028 . S
O85 C88 1.250 . S
O86 Mg87 2.028 . S
O86 C88 1.248 . S
Mg87 O86 2.028 . S
Mg87 O92 2.032 . S
Mg87 O94 2.079 . S
C88 O85 1.250 . S
C88 O86 1.248 . S
C89 O90 1.264 . S
C89 O97 1.249 . S
O90 C89 1.264 . S
O91 Mg84 1.986 . S
O91 C95 1.246 . S
O92 Mg87 2.032 . S
O92 C95 1.259 . S
O93 Mg84 2.114 . S
O93 C96 1.252 . S
O94 Mg84 2.251 . S
O94 Mg87 2.079 . S
O94 C96 1.273 . S
C95 O91 1.246 . S
C95 O92 1.259 . S
C96 O93 1.252 . S
C96 O94 1.273 . S
O97 Mg84 2.010 . S
O97 C89 1.249 . S
Mg98 O99 2.028 . S
Mg98 O105 1.986 . S
Mg98 O107 2.114 . S
Mg98 O108 2.251 . S
Mg98 O111 2.010 . S
O99 Mg98 2.028 . S
O99 C102 1.250 . S
O100 Mg101 2.028 . S
O100 C102 1.248 . S
Mg101 O100 2.028 . S
Mg101 O106 2.032 . S
Mg101 O108 2.079 . S
C102 O99 1.250 . S
C102 O100 1.248 . S
C103 O104 1.264 . S
C103 O111 1.249 . S
O104 C103 1.264 . S
O105 Mg98 1.986 . S
O105 C109 1.246 . S
O106 Mg101 2.032 . S
O106 C109 1.259 . S
O107 Mg98 2.114 . S
O107 C110 1.252 . S
O108 Mg98 2.251 . S
O108 Mg101 2.079 . S
O108 C110 1.273 . S
C109 O105 1.246 . S
C109 O106 1.259 . S
C110 O107 1.252 . S
C110 O108 1.273 . S
O111 Mg98 2.010 . S
O111 C103 1.249 . S
Mg112 O113 2.028 . S
Mg112 O119 1.986 . S
Mg112 O121 2.114 . S
Mg112 O122 2.251 . S
Mg112 O125 2.010 . S
O113 Mg112 2.028 . S
O113 C116 1.250 . S
O114 Mg115 2.028 . S
O114 C116 1.248 . S
Mg115 O114 2.028 . S
Mg115 O120 2.032 . S
Mg115 O122 2.079 . S
C116 O113 1.250 . S
C116 O114 1.248 . S
C117 O118 1.264 . S
C117 O125 1.249 . S
O118 C117 1.264 . S
O119 Mg112 1.986 . S
O119 C123 1.246 . S
O120 Mg115 2.032 . S
O120 C123 1.259 . S
O121 Mg112 2.114 . S
O121 C124 1.252 . S
O122 Mg112 2.251 . S
O122 Mg115 2.079 . S
O122 C124 1.273 . S
C123 O119 1.246 . S
C123 O120 1.259 . S
C124 O121 1.252 . S
C124 O122 1.273 . S
O125 Mg112 2.010 . S
O125 C117 1.249 . S
Mg126 O127 2.028 . S
Mg126 O133 1.986 . S
Mg126 O135 2.114 . S
Mg126 O136 2.251 . S
Mg126 O139 2.010 . S
O127 Mg126 2.028 . S
O127 C130 1.250 . S
O128 Mg129 2.028 . S
O128 C130 1.248 . S
Mg129 O128 2.028 . S
Mg129 O134 2.032 . S
Mg129 O136 2.079 . S
C130 O127 1.250 . S
C130 O128 1.248 . S
C131 O132 1.264 . S
C131 O139 1.249 . S
O132 C131 1.264 . S
O133 Mg126 1.986 . S
O133 C137 1.246 . S
O134 Mg129 2.032 . S
O134 C137 1.259 . S
O135 Mg126 2.114 . S
O135 C138 1.252 . S
O136 Mg126 2.251 . S
O136 Mg129 2.079 . S
O136 C138 1.273 . S
C137 O133 1.246 . S
C137 O134 1.259 . S
C138 O135 1.252 . S
C138 O136 1.273 . S
O139 Mg126 2.010 . S
O139 C131 1.249 . S
Mg140 O141 2.028 . S
Mg140 O147 1.986 . S
Mg140 O149 2.114 . S
Mg140 O150 2.251 . S
Mg140 O153 2.010 . S
O141 Mg140 2.028 . S
O141 C144 1.250 . S
O142 Mg143 2.028 . S
O142 C144 1.248 . S
Mg143 O142 2.028 . S
Mg143 O148 2.032 . S
Mg143 O150 2.079 . S
C144 O141 1.250 . S
C144 O142 1.248 . S
C145 O146 1.264 . S
C145 O153 1.249 1_556 S
O146 C145 1.264 . S
O147 Mg140 1.986 . S
O147 C151 1.246 . S
O148 Mg143 2.032 . S
O148 C151 1.259 . S
O149 Mg140 2.114 . S
O149 C152 1.252 . S
O150 Mg140 2.251 . S
O150 Mg143 2.079 . S
O150 C152 1.273 . S
C151 O147 1.246 . S
C151 O148 1.259 . S
C152 O149 1.252 . S
C152 O150 1.273 . S
O153 Mg140 2.010 . S
O153 C145 1.249 1_554 S
Mg154 O155 2.028 . S
Mg154 O161 1.986 . S
Mg154 O163 2.114 . S
Mg154 O164 2.251 . S
Mg154 O167 2.010 . S
O155 Mg154 2.028 . S
O155 C158 1.250 . S
O156 Mg157 2.028 . S
O156 C158 1.248 . S
Mg157 O156 2.028 . S
Mg157 O162 2.032 . S
Mg157 O164 2.079 . S
C158 O155 1.250 . S
C158 O156 1.248 . S
C159 O160 1.264 . S
C159 O167 1.249 . S
O160 C159 1.264 . S
O161 Mg154 1.986 . S
O161 C165 1.246 . S
O162 Mg157 2.032 . S
O162 C165 1.259 . S
O163 Mg154 2.114 . S
O163 C166 1.252 . S
O164 Mg154 2.251 . S
O164 Mg157 2.079 . S
O164 C166 1.273 . S
C165 O161 1.246 . S
C165 O162 1.259 . S
C166 O163 1.252 . S
C166 O164 1.273 . S
O167 Mg154 2.010 . S
O167 C159 1.249 . S
Mg168 O169 2.028 . S
Mg168 O175 1.986 . S
Mg168 O177 2.114 . S
Mg168 O178 2.251 . S
Mg168 O181 2.010 . S
O169 Mg168 2.028 . S
O169 C172 1.250 . S
O170 Mg171 2.028 . S
O170 C172 1.248 . S
Mg171 O170 2.028 . S
Mg171 O176 2.032 . S
Mg171 O178 2.079 . S
C172 O169 1.250 . S
C172 O170 1.248 . S
C173 O174 1.264 . S
C173 O181 1.249 1_554 S
O174 C173 1.264 . S
O175 Mg168 1.986 . S
O175 C179 1.246 . S
O176 Mg171 2.032 . S
O176 C179 1.259 . S
O177 Mg168 2.114 . S
O177 C180 1.252 . S
O178 Mg168 2.251 . S
O178 Mg171 2.079 . S
O178 C180 1.273 . S
C179 O175 1.246 . S
C179 O176 1.259 . S
C180 O177 1.252 . S
C180 O178 1.273 . S
O181 Mg168 2.010 . S
O181 C173 1.249 1_556 S
Mg182 O183 2.028 . S
Mg182 O189 1.986 . S
Mg182 O191 2.114 . S
Mg182 O192 2.251 . S
Mg182 O195 2.010 . S
O183 Mg182 2.028 . S
O183 C186 1.250 . S
O184 Mg185 2.028 . S
O184 C186 1.248 . S
Mg185 O184 2.028 . S
Mg185 O190 2.032 . S
Mg185 O192 2.079 . S
C186 O183 1.250 . S
C186 O184 1.248 . S
C187 O188 1.264 . S
C187 O195 1.249 . S
O188 C187 1.264 . S
O189 Mg182 1.986 . S
O189 C193 1.246 . S
O190 Mg185 2.032 . S
O190 C193 1.259 . S
O191 Mg182 2.114 . S
O191 C194 1.252 . S
O192 Mg182 2.251 . S
O192 Mg185 2.079 . S
O192 C194 1.273 . S
C193 O189 1.246 . S
C193 O190 1.259 . S
C194 O191 1.252 . S
C194 O192 1.273 . S
O195 Mg182 2.010 . S
O195 C187 1.249 . S
Mg196 O197 2.028 . S
Mg196 O203 1.986 . S
Mg196 O205 2.114 . S
Mg196 O206 2.251 . S
Mg196 O209 2.010 . S
O197 Mg196 2.028 . S
O197 C200 1.250 . S
O198 Mg199 2.028 . S
O198 C200 1.248 . S
Mg199 O198 2.028 . S
Mg199 O204 2.032 . S
Mg199 O206 2.079 . S
C200 O197 1.250 . S
C200 O198 1.248 . S
C201 O202 1.264 . S
C201 O209 1.249 . S
O202 C201 1.264 . S
O203 Mg196 1.986 . S
O203 C207 1.246 . S
O204 Mg199 2.032 . S
O204 C207 1.259 . S
O205 Mg196 2.114 . S
O205 C208 1.252 . S
O206 Mg196 2.251 . S
O206 Mg199 2.079 . S
O206 C208 1.273 . S
C207 O203 1.246 . S
C207 O204 1.259 . S
C208 O205 1.252 . S
C208 O206 1.273 . S
O209 Mg196 2.010 . S
O209 C201 1.249 . S
Mg210 O211 2.028 . S
Mg210 O217 1.986 . S
Mg210 O219 2.114 . S
Mg210 O220 2.251 . S
Mg210 O223 2.010 . S
O211 Mg210 2.028 . S
O211 C214 1.250 . S
O212 Mg213 2.028 . S
O212 C214 1.248 . S
Mg213 O212 2.028 . S
Mg213 O218 2.032 . S
Mg213 O220 2.079 . S
C214 O211 1.250 . S
C214 O212 1.248 . S
C215 O216 1.264 . S
C215 O223 1.249 . S
O216 C215 1.264 . S
O217 Mg210 1.986 . S
O217 C221 1.246 . S
O218 Mg213 2.032 . S
O218 C221 1.259 . S
O219 Mg210 2.114 . S
O219 C222 1.252 . S
O220 Mg210 2.251 . S
O220 Mg213 2.079 . S
O220 C222 1.273 . S
C221 O217 1.246 . S
C221 O218 1.259 . S
C222 O219 1.252 . S
C222 O220 1.273 . S
O223 Mg210 2.010 . S
O223 C215 1.249 . S
Mg224 O225 2.028 . S
Mg224 O231 1.986 . S
Mg224 O233 2.114 . S
Mg224 O234 2.251 . S
Mg224 O237 2.010 . S
O225 Mg224 2.028 . S
O225 C228 1.250 . S
O226 Mg227 2.028 . S
O226 C228 1.248 . S
Mg227 O226 2.028 . S
Mg227 O232 2.032 . S
Mg227 O234 2.079 . S
C228 O225 1.250 . S
C228 O226 1.248 . S
C229 O230 1.264 . S
C229 O237 1.249 1_554 S
O230 C229 1.264 . S
O231 Mg224 1.986 . S
O231 C235 1.246 . S
O232 Mg227 2.032 . S
O232 C235 1.259 . S
O233 Mg224 2.114 . S
O233 C236 1.252 . S
O234 Mg224 2.251 . S
O234 Mg227 2.079 . S
O234 C236 1.273 . S
C235 O231 1.246 . S
C235 O232 1.259 . S
C236 O233 1.252 . S
C236 O234 1.273 . S
O237 Mg224 2.010 . S
O237 C229 1.249 1_556 S
Mg238 O239 2.028 . S
Mg238 O245 1.986 . S
Mg238 O247 2.114 . S
Mg238 O248 2.251 . S
Mg238 O251 2.010 . S
O239 Mg238 2.028 . S
O239 C242 1.250 . S
O240 Mg241 2.028 . S
O240 C242 1.248 . S
Mg241 O240 2.028 . S
Mg241 O246 2.032 . S
Mg241 O248 2.079 . S
C242 O239 1.250 . S
C242 O240 1.248 . S
C243 O244 1.264 . S
C243 O251 1.249 . S
O244 C243 1.264 . S
O245 Mg238 1.986 . S
O245 C249 1.246 . S
O246 Mg241 2.032 . S
O246 C249 1.259 . S
O247 Mg238 2.114 . S
O247 C250 1.252 . S
O248 Mg238 2.251 . S
O248 Mg241 2.079 . S
O248 C250 1.273 . S
C249 O245 1.246 . S
C249 O246 1.259 . S
C250 O247 1.252 . S
C250 O248 1.273 . S
O251 Mg238 2.010 . S
O251 C243 1.249 . S
Mg252 O253 2.028 . S
Mg252 O259 1.986 . S
Mg252 O261 2.114 . S
Mg252 O262 2.251 . S
Mg252 O265 2.010 . S
O253 Mg252 2.028 . S
O253 C256 1.250 . S
O254 Mg255 2.028 . S
O254 C256 1.248 . S
Mg255 O254 2.028 . S
Mg255 O260 2.032 . S
Mg255 O262 2.079 . S
C256 O253 1.250 . S
C256 O254 1.248 . S
C257 O258 1.264 . S
C257 O265 1.249 . S
O258 C257 1.264 . S
O259 Mg252 1.986 . S
O259 C263 1.246 . S
O260 Mg255 2.032 . S
O260 C263 1.259 . S
O261 Mg252 2.114 . S
O261 C264 1.252 . S
O262 Mg252 2.251 . S
O262 Mg255 2.079 . S
O262 C264 1.273 . S
C263 O259 1.246 . S
C263 O260 1.259 . S
C264 O261 1.252 . S
C264 O262 1.273 . S
O265 Mg252 2.010 . S
O265 C257 1.249 . S
Mg266 O267 2.028 . S
Mg266 O273 1.986 . S
Mg266 O275 2.114 . S
Mg266 O276 2.251 . S
Mg266 O279 2.010 . S
O267 Mg266 2.028 . S
O267 C270 1.250 . S
O268 Mg269 2.028 . S
O268 C270 1.248 . S
Mg269 O268 2.028 . S
Mg269 O274 2.032 . S
Mg269 O276 2.079 . S
C270 O267 1.250 . S
C270 O268 1.248 . S
C271 O272 1.264 . S
C271 O279 1.249 . S
O272 C271 1.264 . S
O273 Mg266 1.986 . S
O273 C277 1.246 . S
O274 Mg269 2.032 . S
O274 C277 1.259 . S
O275 Mg266 2.114 . S
O275 C278 1.252 . S
O276 Mg266 2.251 . S
O276 Mg269 2.079 . S
O276 C278 1.273 . S
C277 O273 1.246 . S
C277 O274 1.259 . S
C278 O275 1.252 . S
C278 O276 1.273 . S
O279 Mg266 2.010 . S
O279 C271 1.249 . S
Mg280 O281 2.028 . S
Mg280 O287 1.986 . S
Mg280 O289 2.114 . S
Mg280 O290 2.251 . S
Mg280 O293 2.010 . S
O281 Mg280 2.028 . S
O281 C284 1.250 . S
O282 Mg283 2.028 . S
O282 C284 1.248 . S
Mg283 O282 2.028 . S
Mg283 O288 2.032 . S
Mg283 O290 2.079 . S
C284 O281 1.250 . S
C284 O282 1.248 . S
C285 O286 1.264 . S
C285 O293 1.249 . S
O286 C285 1.264 . S
O287 Mg280 1.986 . S
O287 C291 1.246 . S
O288 Mg283 2.032 . S
O288 C291 1.259 . S
O289 Mg280 2.114 . S
O289 C292 1.252 . S
O290 Mg280 2.251 . S
O290 Mg283 2.079 . S
O290 C292 1.273 . S
C291 O287 1.246 . S
C291 O288 1.259 . S
C292 O289 1.252 . S
C292 O290 1.273 . S
O293 Mg280 2.010 . S
O293 C285 1.249 . S
Mg294 O295 2.028 . S
Mg294 O301 1.986 . S
Mg294 O303 2.114 . S
Mg294 O304 2.251 . S
Mg294 O307 2.010 . S
O295 Mg294 2.028 . S
O295 C298 1.250 . S
O296 Mg297 2.028 . S
O296 C298 1.248 . S
Mg297 O296 2.028 . S
Mg297 O302 2.032 . S
Mg297 O304 2.079 . S
C298 O295 1.250 . S
C298 O296 1.248 . S
C299 O300 1.264 . S
C299 O307 1.249 . S
O300 C299 1.264 . S
O301 Mg294 1.986 . S
O301 C305 1.246 . S
O302 Mg297 2.032 . S
O302 C305 1.259 . S
O303 Mg294 2.114 . S
O303 C306 1.252 . S
O304 Mg294 2.251 . S
O304 Mg297 2.079 . S
O304 C306 1.273 . S
C305 O301 1.246 . S
C305 O302 1.259 . S
C306 O303 1.252 . S
C306 O304 1.273 . S
O307 Mg294 2.010 . S
O307 C299 1.249 . S
Mg308 O309 2.028 . S
Mg308 O315 1.986 . S
Mg308 O317 2.114 . S
Mg308 O318 2.251 . S
Mg308 O321 2.010 . S
O309 Mg308 2.028 . S
O309 C312 1.250 . S
O310 Mg311 2.028 . S
O310 C312 1.248 . S
Mg311 O310 2.028 . S
Mg311 O316 2.032 . S
Mg311 O318 2.079 . S
C312 O309 1.250 . S
C312 O310 1.248 . S
C313 O314 1.264 . S
C313 O321 1.249 1_556 S
O314 C313 1.264 . S
O315 Mg308 1.986 . S
O315 C319 1.246 . S
O316 Mg311 2.032 . S
O316 C319 1.259 . S
O317 Mg308 2.114 . S
O317 C320 1.252 . S
O318 Mg308 2.251 . S
O318 Mg311 2.079 . S
O318 C320 1.273 . S
C319 O315 1.246 . S
C319 O316 1.259 . S
C320 O317 1.252 . S
C320 O318 1.273 . S
O321 Mg308 2.010 . S
O321 C313 1.249 1_554 S
Mg322 O323 2.028 . S
Mg322 O329 1.986 . S
Mg322 O331 2.114 . S
Mg322 O332 2.251 . S
Mg322 O335 2.010 . S
O323 Mg322 2.028 . S
O323 C326 1.250 . S
O324 Mg325 2.028 . S
O324 C326 1.248 . S
Mg325 O324 2.028 . S
Mg325 O330 2.032 . S
Mg325 O332 2.079 . S
C326 O323 1.250 . S
C326 O324 1.248 . S
C327 O328 1.264 . S
C327 O335 1.249 . S
O328 C327 1.264 . S
O329 Mg322 1.986 . S
O329 C333 1.246 . S
O330 Mg325 2.032 . S
O330 C333 1.259 . S
O331 Mg322 2.114 . S
O331 C334 1.252 . S
O332 Mg322 2.251 . S
O332 Mg325 2.079 . S
O332 C334 1.273 . S
C333 O329 1.246 . S
C333 O330 1.259 . S
C334 O331 1.252 . S
C334 O332 1.273 . S
O335 Mg322 2.010 . S
O335 C327 1.249 . S
Mg336 O337 2.028 . S
Mg336 O343 1.986 . S
Mg336 O345 2.114 . S
Mg336 O346 2.251 . S
Mg336 O349 2.010 . S
O337 Mg336 2.028 . S
O337 C340 1.250 . S
O338 Mg339 2.028 . S
O338 C340 1.248 . S
Mg339 O338 2.028 . S
Mg339 O344 2.032 . S
Mg339 O346 2.079 . S
C340 O337 1.250 . S
C340 O338 1.248 . S
C341 O342 1.264 . S
C341 O349 1.249 1_556 S
O342 C341 1.264 . S
O343 Mg336 1.986 . S
O343 C347 1.246 . S
O344 Mg339 2.032 . S
O344 C347 1.259 . S
O345 Mg336 2.114 . S
O345 C348 1.252 . S
O346 Mg336 2.251 . S
O346 Mg339 2.079 . S
O346 C348 1.273 . S
C347 O343 1.246 . S
C347 O344 1.259 . S
C348 O345 1.252 . S
C348 O346 1.273 . S
O349 Mg336 2.010 . S
O349 C341 1.249 1_554 S
Mg350 O351 2.028 . S
Mg350 O357 1.986 . S
Mg350 O359 2.114 . S
Mg350 O360 2.251 . S
Mg350 O363 2.010 . S
O351 Mg350 2.028 . S
O351 C354 1.250 . S
O352 Mg353 2.028 . S
O352 C354 1.248 . S
Mg353 O352 2.028 . S
Mg353 O358 2.032 . S
Mg353 O360 2.079 . S
C354 O351 1.250 . S
C354 O352 1.248 . S
C355 O356 1.264 . S
C355 O363 1.249 . S
O356 C355 1.264 . S
O357 Mg350 1.986 . S
O357 C361 1.246 . S
O358 Mg353 2.032 . S
O358 C361 1.259 . S
O359 Mg350 2.114 . S
O359 C362 1.252 . S
O360 Mg350 2.251 . S
O360 Mg353 2.079 . S
O360 C362 1.273 . S
C361 O357 1.246 . S
C361 O358 1.259 . S
C362 O359 1.252 . S
C362 O360 1.273 . S
O363 Mg350 2.010 . S
O363 C355 1.249 . S
Mg364 O365 2.028 . S
Mg364 O371 1.986 . S
Mg364 O373 2.114 . S
Mg364 O374 2.251 . S
Mg364 O377 2.010 . S
O365 Mg364 2.028 . S
O365 C368 1.250 . S
O366 Mg367 2.028 . S
O366 C368 1.248 . S
Mg367 O366 2.028 . S
Mg367 O372 2.032 . S
Mg367 O374 2.079 . S
C368 O365 1.250 . S
C368 O366 1.248 . S
C369 O370 1.264 . S
C369 O377 1.249 . S
O370 C369 1.264 . S
O371 Mg364 1.986 . S
O371 C375 1.246 . S
O372 Mg367 2.032 . S
O372 C375 1.259 . S
O373 Mg364 2.114 . S
O373 C376 1.252 . S
O374 Mg364 2.251 . S
O374 Mg367 2.079 . S
O374 C376 1.273 . S
C375 O371 1.246 . S
C375 O372 1.259 . S
C376 O373 1.252 . S
C376 O374 1.273 . S
O377 Mg364 2.010 . S
O377 C369 1.249 . S
Mg378 O379 2.028 . S
Mg378 O385 1.986 . S
Mg378 O387 2.114 . S
Mg378 O388 2.251 . S
Mg378 O391 2.010 . S
O379 Mg378 2.028 . S
O379 C382 1.250 . S
O380 Mg381 2.028 . S
O380 C382 1.248 . S
Mg381 O380 2.028 . S
Mg381 O386 2.032 . S
Mg381 O388 2.079 . S
C382 O379 1.250 . S
C382 O380 1.248 . S
C383 O384 1.264 . S
C383 O391 1.249 . S
O384 C383 1.264 . S
O385 Mg378 1.986 . S
O385 C389 1.246 . S
O386 Mg381 2.032 . S
O386 C389 1.259 . S
O387 Mg378 2.114 . S
O387 C390 1.252 . S
O388 Mg378 2.251 . S
O388 Mg381 2.079 . S
O388 C390 1.273 . S
C389 O385 1.246 . S
C389 O386 1.259 . S
C390 O387 1.252 . S
C390 O388 1.273 . S
O391 Mg378 2.010 . S
O391 C383 1.249 . S
Mg392 O393 2.028 . S
Mg392 O399 1.986 . S
Mg392 O401 2.114 . S
Mg392 O402 2.251 . S
Mg392 O405 2.010 . S
O393 Mg392 2.028 . S
O393 C396 1.250 . S
O394 Mg395 2.028 . S
O394 C396 1.248 . S
Mg395 O394 2.028 . S
Mg395 O400 2.032 . S
Mg395 O402 2.079 . S
C396 O393 1.250 . S
C396 O394 1.248 . S
C397 O398 1.264 . S
C397 O405 1.249 . S
O398 C397 1.264 . S
O399 Mg392 1.986 . S
O399 C403 1.246 . S
O400 Mg395 2.032 . S
O400 C403 1.259 . S
O401 Mg392 2.114 . S
O401 C404 1.252 . S
O402 Mg392 2.251 . S
O402 Mg395 2.079 . S
O402 C404 1.273 . S
C403 O399 1.246 . S
C403 O400 1.259 . S
C404 O401 1.252 . S
C404 O402 1.273 . S
O405 Mg392 2.010 . S
O405 C397 1.249 . S
Mg406 O407 2.028 . S
Mg406 O413 1.986 . S
Mg406 O415 2.114 . S
Mg406 O416 2.251 . S
Mg406 O419 2.010 . S
O407 Mg406 2.028 . S
O407 C410 1.250 . S
O408 Mg409 2.028 . S
O408 C410 1.248 . S
Mg409 O408 2.028 . S
Mg409 O414 2.032 . S
Mg409 O416 2.079 . S
C410 O407 1.250 . S
C410 O408 1.248 . S
C411 O412 1.264 . S
C411 O419 1.249 . S
O412 C411 1.264 . S
O413 Mg406 1.986 . S
O413 C417 1.246 . S
O414 Mg409 2.032 . S
O414 C417 1.259 . S
O415 Mg406 2.114 . S
O415 C418 1.252 . S
O416 Mg406 2.251 . S
O416 Mg409 2.079 . S
O416 C418 1.273 . S
C417 O413 1.246 . S
C417 O414 1.259 . S
C418 O415 1.252 . S
C418 O416 1.273 . S
O419 Mg406 2.010 . S
O419 C411 1.249 . S
Mg420 O421 2.028 . S
Mg420 O427 1.986 . S
Mg420 O429 2.114 . S
Mg420 O430 2.251 . S
Mg420 O433 2.010 . S
O421 Mg420 2.028 . S
O421 C424 1.250 . S
O422 Mg423 2.028 . S
O422 C424 1.248 . S
Mg423 O422 2.028 . S
Mg423 O428 2.032 . S
Mg423 O430 2.079 . S
C424 O421 1.250 . S
C424 O422 1.248 . S
C425 O426 1.264 . S
C425 O433 1.249 1_554 S
O426 C425 1.264 . S
O427 Mg420 1.986 . S
O427 C431 1.246 . S
O428 Mg423 2.032 . S
O428 C431 1.259 . S
O429 Mg420 2.114 . S
O429 C432 1.252 . S
O430 Mg420 2.251 . S
O430 Mg423 2.079 . S
O430 C432 1.273 . S
C431 O427 1.246 . S
C431 O428 1.259 . S
C432 O429 1.252 . S
C432 O430 1.273 . S
O433 Mg420 2.010 . S
O433 C425 1.249 1_556 S
Mg434 O435 2.028 . S
Mg434 O441 1.986 . S
Mg434 O443 2.114 . S
Mg434 O444 2.251 . S
Mg434 O447 2.010 . S
O435 Mg434 2.028 . S
O435 C438 1.250 . S
O436 Mg437 2.028 . S
O436 C438 1.248 . S
Mg437 O436 2.028 . S
Mg437 O442 2.032 . S
Mg437 O444 2.079 . S
C438 O435 1.250 . S
C438 O436 1.248 . S
C439 O440 1.264 . S
C439 O447 1.249 . S
O440 C439 1.264 . S
O441 Mg434 1.986 . S
O441 C445 1.246 . S
O442 Mg437 2.032 . S
O442 C445 1.259 . S
O443 Mg434 2.114 . S
O443 C446 1.252 . S
O444 Mg434 2.251 . S
O444 Mg437 2.079 . S
O444 C446 1.273 . S
C445 O441 1.246 . S
C445 O442 1.259 . S
C446 O443 1.252 . S
C446 O444 1.273 . S
O447 Mg434 2.010 . S
O447 C439 1.249 . S
C448 C449 1.387 . S
C448 H452 0.950 . S
C448 C457 1.390 1_545 S
C449 C448 1.387 . S
C449 C451 1.387 . S
H450 C457 0.950 . S
C451 C449 1.387 . S
C451 C453 1.390 1_545 S
C451 H455 0.950 . S
H452 C448 0.950 . S
C453 C451 1.390 1_565 S
C453 C454 1.387 . S
C453 H456 0.950 . S
C454 C453 1.387 . S
C454 C457 1.387 . S
H455 C451 0.950 . S
H456 C453 0.950 . S
C457 C448 1.390 1_565 S
C457 H450 0.950 . S
C457 C454 1.387 . S
C458 C459 1.387 . S
C458 H462 0.950 . S
C458 C467 1.390 . S
C459 C458 1.387 . S
C459 C461 1.387 . S
H460 C467 0.950 . S
C461 C459 1.387 . S
C461 C463 1.390 . S
C461 H465 0.950 . S
H462 C458 0.950 . S
C463 C461 1.390 . S
C463 C464 1.387 . S
C463 H466 0.950 . S
C464 C463 1.387 . S
C464 C467 1.387 . S
H465 C461 0.950 . S
H466 C463 0.950 . S
C467 C458 1.390 . S
C467 H460 0.950 . S
C467 C464 1.387 . S
C468 C469 1.387 . S
C468 H472 0.950 . S
C468 C477 1.390 1_545 S
C469 C468 1.387 . S
C469 C471 1.387 . S
H470 C477 0.950 . S
C471 C469 1.387 . S
C471 C473 1.390 1_545 S
C471 H475 0.950 . S
H472 C468 0.950 . S
C473 C471 1.390 1_565 S
C473 C474 1.387 . S
C473 H476 0.950 . S
C474 C473 1.387 . S
C474 C477 1.387 . S
H475 C471 0.950 . S
H476 C473 0.950 . S
C477 C468 1.390 1_565 S
C477 H470 0.950 . S
C477 C474 1.387 . S
C478 C479 1.387 . S
C478 H482 0.950 . S
C478 C487 1.390 1_556 S
C479 C478 1.387 . S
C479 C481 1.387 . S
H480 C487 0.950 . S
C481 C479 1.387 . S
C481 C483 1.390 1_556 S
C481 H485 0.950 . S
H482 C478 0.950 . S
C483 C481 1.390 1_554 S
C483 C484 1.387 . S
C483 H486 0.950 . S
C484 C483 1.387 . S
C484 C487 1.387 . S
H485 C481 0.950 . S
H486 C483 0.950 . S
C487 C478 1.390 1_554 S
C487 H480 0.950 . S
C487 C484 1.387 . S
C488 C489 1.387 . S
C488 H492 0.950 . S
C488 C497 1.390 1_565 S
C489 C488 1.387 . S
C489 C491 1.387 . S
H490 C497 0.950 . S
C491 C489 1.387 . S
C491 C493 1.390 1_565 S
C491 H495 0.950 . S
H492 C488 0.950 . S
C493 C491 1.390 1_545 S
C493 C494 1.387 . S
C493 H496 0.950 . S
C494 C493 1.387 . S
C494 C497 1.387 . S
H495 C491 0.950 . S
H496 C493 0.950 . S
C497 C488 1.390 1_545 S
C497 H490 0.950 . S
C497 C494 1.387 . S
C498 C499 1.387 . S
C498 H502 0.950 . S
C498 C507 1.390 . S
C499 C498 1.387 . S
C499 C501 1.387 . S
H500 C507 0.950 . S
C501 C499 1.387 . S
C501 C503 1.390 . S
C501 H505 0.950 . S
H502 C498 0.950 . S
C503 C501 1.390 . S
C503 C504 1.387 . S
C503 H506 0.950 . S
C504 C503 1.387 . S
C504 C507 1.387 . S
H505 C501 0.950 . S
H506 C503 0.950 . S
C507 C498 1.390 . S
C507 H500 0.950 . S
C507 C504 1.387 . S
C508 C509 1.387 . S
C508 H512 0.950 . S
C508 C517 1.390 1_565 S
C509 C508 1.387 . S
C509 C511 1.387 . S
H510 C517 0.950 . S
C511 C509 1.387 . S
C511 C513 1.390 1_565 S
C511 H515 0.950 . S
H512 C508 0.950 . S
C513 C511 1.390 1_545 S
C513 C514 1.387 . S
C513 H516 0.950 . S
C514 C513 1.387 . S
C514 C517 1.387 . S
H515 C511 0.950 . S
H516 C513 0.950 . S
C517 C508 1.390 1_545 S
C517 H510 0.950 . S
C517 C514 1.387 . S
C518 C519 1.387 . S
C518 H522 0.950 . S
C518 C527 1.390 1_556 S
C519 C518 1.387 . S
C519 C521 1.387 . S
H520 C527 0.950 . S
C521 C519 1.387 . S
C521 C523 1.390 1_556 S
C521 H525 0.950 . S
H522 C518 0.950 . S
C523 C521 1.390 1_554 S
C523 C524 1.387 . S
C523 H526 0.950 . S
C524 C523 1.387 . S
C524 C527 1.387 . S
H525 C521 0.950 . S
H526 C523 0.950 . S
C527 C518 1.390 1_554 S
C527 H520 0.950 . S
C527 C524 1.387 . S
C528 C529 1.387 . S
C528 H532 0.950 . S
C528 C537 1.390 . S
C529 C528 1.387 . S
C529 C531 1.387 . S
H530 C537 0.950 . S
C531 C529 1.387 . S
C531 C533 1.390 . S
C531 H535 0.950 . S
H532 C528 0.950 . S
C533 C531 1.390 . S
C533 C534 1.387 . S
C533 H536 0.950 . S
C534 C533 1.387 . S
C534 C537 1.387 . S
H535 C531 0.950 . S
H536 C533 0.950 . S
C537 C528 1.390 . S
C537 H530 0.950 . S
C537 C534 1.387 . S
C538 C539 1.387 . S
C538 H542 0.950 . S
C538 C547 1.390 1_556 S
C539 C538 1.387 . S
C539 C541 1.387 . S
H540 C547 0.950 . S
C541 C539 1.387 . S
C541 C543 1.390 1_556 S
C541 H545 0.950 . S
H542 C538 0.950 . S
C543 C541 1.390 1_554 S
C543 C544 1.387 . S
C543 H546 0.950 . S
C544 C543 1.387 . S
C544 C547 1.387 . S
H545 C541 0.950 . S
H546 C543 0.950 . S
C547 C538 1.390 1_554 S
C547 H540 0.950 . S
C547 C544 1.387 . S
C548 C549 1.387 . S
C548 H552 0.950 . S
C548 C557 1.390 . S
C549 C548 1.387 . S
C549 C551 1.387 . S
H550 C557 0.950 . S
C551 C549 1.387 . S
C551 C553 1.390 . S
C551 H555 0.950 . S
H552 C548 0.950 . S
C553 C551 1.390 . S
C553 C554 1.387 . S
C553 H556 0.950 . S
C554 C553 1.387 . S
C554 C557 1.387 . S
H555 C551 0.950 . S
H556 C553 0.950 . S
C557 C548 1.390 . S
C557 H550 0.950 . S
C557 C554 1.387 . S
C558 C559 1.387 . S
C558 H562 0.950 . S
C558 C567 1.390 . S
C559 C558 1.387 . S
C559 C561 1.387 . S
H560 C567 0.950 . S
C561 C559 1.387 . S
C561 C563 1.390 . S
C561 H565 0.950 . S
H562 C558 0.950 . S
C563 C561 1.390 . S
C563 C564 1.387 . S
C563 H566 0.950 . S
C564 C563 1.387 . S
C564 C567 1.387 . S
H565 C561 0.950 . S
H566 C563 0.950 . S
C567 C558 1.390 . S
C567 H560 0.950 . S
C567 C564 1.387 . S
C568 C569 1.387 . S
C568 H572 0.950 . S
C568 C577 1.390 . S
C569 C568 1.387 . S
C569 C571 1.387 . S
H570 C577 0.950 . S
C571 C569 1.387 . S
C571 C573 1.390 . S
C571 H575 0.950 . S
H572 C568 0.950 . S
C573 C571 1.390 . S
C573 C574 1.387 . S
C573 H576 0.950 . S
C574 C573 1.387 . S
C574 C577 1.387 . S
H575 C571 0.950 . S
H576 C573 0.950 . S
C577 C568 1.390 . S
C577 H570 0.950 . S
C577 C574 1.387 . S
C578 C579 1.387 . S
C578 H582 0.950 . S
C578 C587 1.390 1_554 S
C579 C578 1.387 . S
C579 C581 1.387 . S
H580 C587 0.950 . S
C581 C579 1.387 . S
C581 C583 1.390 1_554 S
C581 H585 0.950 . S
H582 C578 0.950 . S
C583 C581 1.390 1_556 S
C583 C584 1.387 . S
C583 H586 0.950 . S
C584 C583 1.387 . S
C584 C587 1.387 . S
H585 C581 0.950 . S
H586 C583 0.950 . S
C587 C578 1.390 1_556 S
C587 H580 0.950 . S
C587 C584 1.387 . S
C588 C589 1.387 . S
C588 H592 0.950 . S
C588 C597 1.390 . S
C589 C588 1.387 . S
C589 C591 1.387 . S
H590 C597 0.950 . S
C591 C589 1.387 . S
C591 C593 1.390 . S
C591 H595 0.950 . S
H592 C588 0.950 . S
C593 C591 1.390 . S
C593 C594 1.387 . S
C593 H596 0.950 . S
C594 C593 1.387 . S
C594 C597 1.387 . S
H595 C591 0.950 . S
H596 C593 0.950 . S
C597 C588 1.390 . S
C597 H590 0.950 . S
C597 C594 1.387 . S
C598 C599 1.387 . S
C598 H602 0.950 . S
C598 C607 1.390 . S
C599 C598 1.387 . S
C599 C601 1.387 . S
H600 C607 0.950 . S
C601 C599 1.387 . S
C601 C603 1.390 . S
C601 H605 0.950 . S
H602 C598 0.950 . S
C603 C601 1.390 . S
C603 C604 1.387 . S
C603 H606 0.950 . S
C604 C603 1.387 . S
C604 C607 1.387 . S
H605 C601 0.950 . S
H606 C603 0.950 . S
C607 C598 1.390 . S
C607 H600 0.950 . S
C607 C604 1.387 . S
C608 C609 1.387 . S
C608 H612 0.950 . S
C608 C617 1.390 . S
C609 C608 1.387 . S
C609 C611 1.387 . S
H610 C617 0.950 . S
C611 C609 1.387 . S
C611 C613 1.390 . S
C611 H615 0.950 . S
H612 C608 0.950 . S
C613 C611 1.390 . S
C613 C614 1.387 . S
C613 H616 0.950 . S
C614 C613 1.387 . S
C614 C617 1.387 . S
H615 C611 0.950 . S
H616 C613 0.950 . S
C617 C608 1.390 . S
C617 H610 0.950 . S
C617 C614 1.387 . S
C618 C619 1.387 1_455 S
C618 H622 0.950 1_455 S
C618 C627 1.390 . S
C619 C618 1.387 1_655 S
C619 C621 1.387 1_655 S
H620 C627 0.950 . S
C621 C619 1.387 1_455 S
C621 C623 1.390 . S
C621 H625 0.950 1_455 S
H622 C618 0.950 1_655 S
C623 C621 1.390 . S
C623 C624 1.387 . S
C623 H626 0.950 . S
C624 C623 1.387 . S
C624 C627 1.387 . S
H625 C621 0.950 1_655 S
H626 C623 0.950 . S
C627 C618 1.390 . S
C627 H620 0.950 . S
C627 C624 1.387 . S
C628 C629 1.387 . S
C628 H632 0.950 . S
C628 C637 1.390 . S
C629 C628 1.387 . S
C629 C631 1.387 . S
H630 C637 0.950 . S
C631 C629 1.387 . S
C631 C633 1.390 . S
C631 H635 0.950 . S
H632 C628 0.950 . S
C633 C631 1.390 . S
C633 C634 1.387 . S
C633 H636 0.950 . S
C634 C633 1.387 . S
C634 C637 1.387 . S
H635 C631 0.950 . S
H636 C633 0.950 . S
C637 C628 1.390 . S
C637 H630 0.950 . S
C637 C634 1.387 . S
C638 C639 1.387 . S
C638 H642 0.950 . S
C638 C647 1.390 . S
C639 C638 1.387 . S
C639 C641 1.387 . S
H640 C647 0.950 . S
C641 C639 1.387 . S
C641 C643 1.390 . S
C641 H645 0.950 . S
H642 C638 0.950 . S
C643 C641 1.390 . S
C643 C644 1.387 . S
C643 H646 0.950 . S
C644 C643 1.387 . S
C644 C647 1.387 . S
H645 C641 0.950 . S
H646 C643 0.950 . S
C647 C638 1.390 . S
C647 H640 0.950 . S
C647 C644 1.387 . S
C648 C649 1.387 . S
C648 H652 0.950 . S
C648 C657 1.390 . S
C649 C648 1.387 . S
C649 C651 1.387 . S
H650 C657 0.950 . S
C651 C649 1.387 . S
C651 C653 1.390 . S
C651 H655 0.950 . S
H652 C648 0.950 . S
C653 C651 1.390 . S
C653 C654 1.387 . S
C653 H656 0.950 . S
C654 C653 1.387 . S
C654 C657 1.387 . S
H655 C651 0.950 . S
H656 C653 0.950 . S
C657 C648 1.390 . S
C657 H650 0.950 . S
C657 C654 1.387 . S
C658 C659 1.387 . S
C658 H662 0.950 . S
C658 C667 1.390 . S
C659 C658 1.387 . S
C659 C661 1.387 . S
H660 C667 0.950 . S
C661 C659 1.387 . S
C661 C663 1.390 . S
C661 H665 0.950 . S
H662 C658 0.950 . S
C663 C661 1.390 . S
C663 C664 1.387 . S
C663 H666 0.950 . S
C664 C663 1.387 . S
C664 C667 1.387 . S
H665 C661 0.950 . S
H666 C663 0.950 . S
C667 C658 1.390 . S
C667 H660 0.950 . S
C667 C664 1.387 . S
C668 C669 1.387 . S
C668 H672 0.950 . S
C668 C677 1.390 . S
C669 C668 1.387 . S
C669 C671 1.387 . S
H670 C677 0.950 . S
C671 C669 1.387 . S
C671 C673 1.390 . S
C671 H675 0.950 . S
H672 C668 0.950 . S
C673 C671 1.390 . S
C673 C674 1.387 . S
C673 H676 0.950 . S
C674 C673 1.387 . S
C674 C677 1.387 . S
H675 C671 0.950 . S
H676 C673 0.950 . S
C677 C668 1.390 . S
C677 H670 0.950 . S
C677 C674 1.387 . S
C678 C679 1.387 . S
C678 H682 0.950 . S
C678 C687 1.390 . S
C679 C678 1.387 . S
C679 C681 1.387 . S
H680 C687 0.950 1_655 S
C681 C679 1.387 . S
C681 C683 1.390 . S
C681 H685 0.950 . S
H682 C678 0.950 . S
C683 C681 1.390 . S
C683 C684 1.387 1_455 S
C683 H686 0.950 1_455 S
C684 C683 1.387 1_655 S
C684 C687 1.387 1_655 S
H685 C681 0.950 . S
H686 C683 0.950 1_655 S
C687 C678 1.390 . S
C687 H680 0.950 1_455 S
C687 C684 1.387 1_455 S
C688 C689 1.387 . S
C688 H692 0.950 . S
C688 C697 1.390 . S
C689 C688 1.387 . S
C689 C691 1.387 . S
H690 C697 0.950 . S
C691 C689 1.387 . S
C691 C693 1.390 . S
C691 H695 0.950 . S
H692 C688 0.950 . S
C693 C691 1.390 . S
C693 C694 1.387 . S
C693 H696 0.950 . S
C694 C693 1.387 . S
C694 C697 1.387 . S
H695 C691 0.950 . S
H696 C693 0.950 . S
C697 C688 1.390 . S
C697 H690 0.950 . S
C697 C694 1.387 . S
C698 C699 1.387 . S
C698 H702 0.950 . S
C698 C707 1.390 1_655 S
C699 C698 1.387 . S
C699 C701 1.387 . S
H700 C707 0.950 . S
C701 C699 1.387 . S
C701 C703 1.390 1_655 S
C701 H705 0.950 . S
H702 C698 0.950 . S
C703 C701 1.390 1_455 S
C703 C704 1.387 . S
C703 H706 0.950 . S
C704 C703 1.387 . S
C704 C707 1.387 . S
H705 C701 0.950 . S
H706 C703 0.950 . S
C707 C698 1.390 1_455 S
C707 H700 0.950 . S
C707 C704 1.387 . S
C708 C709 1.387 . S
C708 H712 0.950 . S
C708 C717 1.390 . S
C709 C708 1.387 . S
C709 C711 1.387 . S
H710 C717 0.950 . S
C711 C709 1.387 . S
C711 C713 1.390 . S
C711 H715 0.950 . S
H712 C708 0.950 . S
C713 C711 1.390 . S
C713 C714 1.387 . S
C713 H716 0.950 . S
C714 C713 1.387 . S
C714 C717 1.387 . S
H715 C711 0.950 . S
H716 C713 0.950 . S
C717 C708 1.390 . S
C717 H710 0.950 . S
C717 C714 1.387 . S
C718 C719 1.387 . S
C718 H722 0.950 . S
C718 C727 1.390 . S
C719 C718 1.387 . S
C719 C721 1.387 . S
H720 C727 0.950 . S
C721 C719 1.387 . S
C721 C723 1.390 . S
C721 H725 0.950 . S
H722 C718 0.950 . S
C723 C721 1.390 . S
C723 C724 1.387 . S
C723 H726 0.950 . S
C724 C723 1.387 . S
C724 C727 1.387 . S
H725 C721 0.950 . S
H726 C723 0.950 . S
C727 C718 1.390 . S
C727 H720 0.950 . S
C727 C724 1.387 . S
C728 C729 1.387 . S
C728 H732 0.950 . S
C728 C737 1.390 . S
C729 C728 1.387 . S
C729 C731 1.387 . S
H730 C737 0.950 . S
C731 C729 1.387 . S
C731 C733 1.390 . S
C731 H735 0.950 . S
H732 C728 0.950 . S
C733 C731 1.390 . S
C733 C734 1.387 . S
C733 H736 0.950 . S
C734 C733 1.387 . S
C734 C737 1.387 . S
H735 C731 0.950 . S
H736 C733 0.950 . S
C737 C728 1.390 . S
C737 H730 0.950 . S
C737 C734 1.387 . S
C738 C739 1.387 . S
C738 H742 0.950 . S
C738 C747 1.390 . S
C739 C738 1.387 . S
C739 C741 1.387 . S
H740 C747 0.950 . S
C741 C739 1.387 . S
C741 C743 1.390 . S
C741 H745 0.950 . S
H742 C738 0.950 . S
C743 C741 1.390 . S
C743 C744 1.387 . S
C743 H746 0.950 . S
C744 C743 1.387 . S
C744 C747 1.387 . S
H745 C741 0.950 . S
H746 C743 0.950 . S
C747 C738 1.390 . S
C747 H740 0.950 . S
C747 C744 1.387 . S
C748 C749 1.387 . S
C748 H752 0.950 . S
C748 C757 1.390 . S
C749 C748 1.387 . S
C749 C751 1.387 . S
H750 C757 0.950 . S
C751 C749 1.387 . S
C751 C753 1.390 . S
C751 H755 0.950 . S
H752 C748 0.950 . S
C753 C751 1.390 . S
C753 C754 1.387 . S
C753 H756 0.950 . S
C754 C753 1.387 . S
C754 C757 1.387 . S
H755 C751 0.950 . S
H756 C753 0.950 . S
C757 C748 1.390 . S
C757 H750 0.950 . S
C757 C754 1.387 . S
C758 C759 1.387 . S
C758 H762 0.950 . S
C758 C767 1.390 1_655 S
C759 C758 1.387 . S
C759 C761 1.387 . S
H760 C767 0.950 . S
C761 C759 1.387 . S
C761 C763 1.390 1_655 S
C761 H765 0.950 . S
H762 C758 0.950 . S
C763 C761 1.390 1_455 S
C763 C764 1.387 . S
C763 H766 0.950 . S
C764 C763 1.387 . S
C764 C767 1.387 . S
H765 C761 0.950 . S
H766 C763 0.950 . S
C767 C758 1.390 1_455 S
C767 H760 0.950 . S
C767 C764 1.387 . S
C768 C769 1.387 . S
C768 H772 0.950 . S
C768 C777 1.390 . S
C769 C768 1.387 . S
C769 C771 1.387 . S
H770 C777 0.950 . S
C771 C769 1.387 . S
C771 C773 1.390 . S
C771 H775 0.950 . S
H772 C768 0.950 . S
C773 C771 1.390 . S
C773 C774 1.387 . S
C773 H776 0.950 . S
C774 C773 1.387 . S
C774 C777 1.387 . S
H775 C771 0.950 . S
H776 C773 0.950 . S
C777 C768 1.390 . S
C777 H770 0.950 . S
C777 C774 1.387 . S
C778 C779 1.387 . S
C778 H782 0.950 . S
C778 C787 1.390 . S
C779 C778 1.387 . S
C779 C781 1.387 . S
H780 C787 0.950 . S
C781 C779 1.387 . S
C781 C783 1.390 . S
C781 H785 0.950 . S
H782 C778 0.950 . S
C783 C781 1.390 . S
C783 C784 1.387 . S
C783 H786 0.950 . S
C784 C783 1.387 . S
C784 C787 1.387 . S
H785 C781 0.950 . S
H786 C783 0.950 . S
C787 C778 1.390 . S
C787 H780 0.950 . S
C787 C784 1.387 . S
C788 C789 1.387 . S
C788 H792 0.950 . S
C788 C797 1.390 . S
C789 C788 1.387 . S
C789 C791 1.387 . S
H790 C797 0.950 . S
C791 C789 1.387 . S
C791 C793 1.390 . S
C791 H795 0.950 . S
H792 C788 0.950 . S
C793 C791 1.390 . S
C793 C794 1.387 . S
C793 H796 0.950 . S
C794 C793 1.387 . S
C794 C797 1.387 . S
H795 C791 0.950 . S
H796 C793 0.950 . S
C797 C788 1.390 . S
C797 H790 0.950 . S
C797 C794 1.387 . S
C798 C799 1.387 . S
C798 H802 0.950 . S
C798 C807 1.390 . S
C799 C798 1.387 . S
C799 C801 1.387 . S
H800 C807 0.950 1_455 S
C801 C799 1.387 . S
C801 C803 1.390 . S
C801 H805 0.950 . S
H802 C798 0.950 . S
C803 C801 1.390 . S
C803 C804 1.387 1_655 S
C803 H806 0.950 1_655 S
C804 C803 1.387 1_455 S
C804 C807 1.387 1_455 S
H805 C801 0.950 . S
H806 C803 0.950 1_455 S
C807 C798 1.390 . S
C807 H800 0.950 1_655 S
C807 C804 1.387 1_655 S
C808 C809 1.387 . S
C808 H812 0.950 . S
C808 C817 1.390 . S
C809 C808 1.387 . S
C809 C811 1.387 . S
H810 C817 0.950 . S
C811 C809 1.387 . S
C811 C813 1.390 . S
C811 H815 0.950 . S
H812 C808 0.950 . S
C813 C811 1.390 . S
C813 C814 1.387 . S
C813 H816 0.950 . S
C814 C813 1.387 . S
C814 C817 1.387 . S
H815 C811 0.950 . S
H816 C813 0.950 . S
C817 C808 1.390 . S
C817 H810 0.950 . S
C817 C814 1.387 . S
C818 C819 1.387 1_655 S
C818 H822 0.950 1_655 S
C818 C827 1.390 . S
C819 C818 1.387 1_455 S
C819 C821 1.387 1_455 S
H820 C827 0.950 . S
C821 C819 1.387 1_655 S
C821 C823 1.390 . S
C821 H825 0.950 1_655 S
H822 C818 0.950 1_455 S
C823 C821 1.390 . S
C823 C824 1.387 . S
C823 H826 0.950 . S
C824 C823 1.387 . S
C824 C827 1.387 . S
H825 C821 0.950 1_455 S
H826 C823 0.950 . S
C827 C818 1.390 . S
C827 H820 0.950 . S
C827 C824 1.387 . S
C828 C829 1.387 . S
C828 H832 0.950 . S
C828 C837 1.390 . S
C829 C828 1.387 . S
C829 C831 1.387 . S
H830 C837 0.950 . S
C831 C829 1.387 . S
C831 C833 1.390 . S
C831 H835 0.950 . S
H832 C828 0.950 . S
C833 C831 1.390 . S
C833 C834 1.387 . S
C833 H836 0.950 . S
C834 C833 1.387 . S
C834 C837 1.387 . S
H835 C831 0.950 . S
H836 C833 0.950 . S
C837 C828 1.390 . S
C837 H830 0.950 . S
C837 C834 1.387 . S
C838 C839 1.387 . S
C838 H842 0.950 . S
C838 C847 1.390 . S
C839 C838 1.387 . S
C839 C841 1.387 . S
H840 C847 0.950 . S
C841 C839 1.387 . S
C841 C843 1.390 . S
C841 H845 0.950 . S
H842 C838 0.950 . S
C843 C841 1.390 . S
C843 C844 1.387 . S
C843 H846 0.950 . S
C844 C843 1.387 . S
C844 C847 1.387 . S
H845 C841 0.950 . S
H846 C843 0.950 . S
C847 C838 1.390 . S
C847 H840 0.950 . S
C847 C844 1.387 . S
C848 C849 1.387 . S
C848 H852 0.950 . S
C848 C857 1.390 . S
C849 C848 1.387 . S
C849 C851 1.387 . S
H850 C857 0.950 . S
C851 C849 1.387 . S
C851 C853 1.390 . S
C851 H855 0.950 . S
H852 C848 0.950 . S
C853 C851 1.390 . S
C853 C854 1.387 . S
C853 H856 0.950 . S
C854 C853 1.387 . S
C854 C857 1.387 . S
H855 C851 0.950 . S
H856 C853 0.950 . S
C857 C848 1.390 . S
C857 H850 0.950 . S
C857 C854 1.387 . S
C858 C859 1.387 . S
C858 H862 0.950 . S
C858 C867 1.390 . S
C859 C858 1.387 . S
C859 C861 1.387 . S
H860 C867 0.950 . S
C861 C859 1.387 . S
C861 C863 1.390 . S
C861 H865 0.950 . S
H862 C858 0.950 . S
C863 C861 1.390 . S
C863 C864 1.387 . S
C863 H866 0.950 . S
C864 C863 1.387 . S
C864 C867 1.387 . S
H865 C861 0.950 . S
H866 C863 0.950 . S
C867 C858 1.390 . S
C867 H860 0.950 . S
C867 C864 1.387 . S
C868 C869 1.387 . S
C868 H872 0.950 . S
C868 C877 1.390 . S
C869 C868 1.387 . S
C869 C871 1.387 . S
H870 C877 0.950 . S
C871 C869 1.387 . S
C871 C873 1.390 . S
C871 H875 0.950 . S
H872 C868 0.950 . S
C873 C871 1.390 . S
C873 C874 1.387 . S
C873 H876 0.950 . S
C874 C873 1.387 . S
C874 C877 1.387 . S
H875 C871 0.950 . S
H876 C873 0.950 . S
C877 C868 1.390 . S
C877 H870 0.950 . S
C877 C874 1.387 . S
C878 C879 1.387 . S
C878 H882 0.950 . S
C878 C887 1.390 1_455 S
C879 C878 1.387 . S
C879 C881 1.387 . S
H880 C887 0.950 . S
C881 C879 1.387 . S
C881 C883 1.390 1_455 S
C881 H885 0.950 . S
H882 C878 0.950 . S
C883 C881 1.390 1_655 S
C883 C884 1.387 . S
C883 H886 0.950 . S
C884 C883 1.387 . S
C884 C887 1.387 . S
H885 C881 0.950 . S
H886 C883 0.950 . S
C887 C878 1.390 1_655 S
C887 H880 0.950 . S
C887 C884 1.387 . S
C888 C889 1.387 . S
C888 H892 0.950 . S
C888 C897 1.390 . S
C889 C888 1.387 . S
C889 C891 1.387 . S
H890 C897 0.950 . S
C891 C889 1.387 . S
C891 C893 1.390 . S
C891 H895 0.950 . S
H892 C888 0.950 . S
C893 C891 1.390 . S
C893 C894 1.387 . S
C893 H896 0.950 . S
C894 C893 1.387 . S
C894 C897 1.387 . S
H895 C891 0.950 . S
H896 C893 0.950 . S
C897 C888 1.390 . S
C897 H890 0.950 . S
C897 C894 1.387 . S
C898 C899 1.387 . S
C898 H902 0.950 . S
C898 C907 1.390 1_655 S
C899 C898 1.387 . S
C899 C901 1.387 . S
H900 C907 0.950 . S
C901 C899 1.387 . S
C901 C903 1.390 1_655 S
C901 H905 0.950 . S
H902 C898 0.950 . S
C903 C901 1.390 1_455 S
C903 C904 1.387 . S
C903 H906 0.950 . S
C904 C903 1.387 . S
C904 C907 1.387 . S
H905 C901 0.950 . S
H906 C903 0.950 . S
C907 C898 1.390 1_455 S
C907 H900 0.950 . S
C907 C904 1.387 . S
C908 C909 1.387 . S
C908 H912 0.950 . S
C908 C917 1.390 . S
C909 C908 1.387 . S
C909 C911 1.387 . S
H910 C917 0.950 . S
C911 C909 1.387 . S
C911 C913 1.390 . S
C911 H915 0.950 . S
H912 C908 0.950 . S
C913 C911 1.390 . S
C913 C914 1.387 . S
C913 H916 0.950 . S
C914 C913 1.387 . S
C914 C917 1.387 . S
H915 C911 0.950 . S
H916 C913 0.950 . S
C917 C908 1.390 . S
C917 H910 0.950 . S
C917 C914 1.387 . S
C918 C919 1.387 . S
C918 H922 0.950 . S
C918 C927 1.390 . S
C919 C918 1.387 . S
C919 C921 1.387 . S
H920 C927 0.950 . S
C921 C919 1.387 . S
C921 C923 1.390 . S
C921 H925 0.950 . S
H922 C918 0.950 . S
C923 C921 1.390 . S
C923 C924 1.387 . S
C923 H926 0.950 . S
C924 C923 1.387 . S
C924 C927 1.387 . S
H925 C921 0.950 . S
H926 C923 0.950 . S
C927 C918 1.390 . S
C927 H920 0.950 . S
C927 C924 1.387 . S
C928 C929 1.387 . S
C928 H932 0.950 . S
C928 C937 1.390 . S
C929 C928 1.387 . S
C929 C931 1.387 . S
H930 C937 0.950 . S
C931 C929 1.387 . S
C931 C933 1.390 . S
C931 H935 0.950 . S
H932 C928 0.950 . S
C933 C931 1.390 . S
C933 C934 1.387 . S
C933 H936 0.950 . S
C934 C933 1.387 . S
C934 C937 1.387 . S
H935 C931 0.950 . S
H936 C933 0.950 . S
C937 C928 1.390 . S
C937 H930 0.950 . S
C937 C934 1.387 . S
C938 C939 1.387 . S
C938 H942 0.950 . S
C938 C947 1.390 . S
C939 C938 1.387 . S
C939 C941 1.387 . S
H940 C947 0.950 . S
C941 C939 1.387 . S
C941 C943 1.390 . S
C941 H945 0.950 . S
H942 C938 0.950 . S
C943 C941 1.390 . S
C943 C944 1.387 . S
C943 H946 0.950 . S
C944 C943 1.387 . S
C944 C947 1.387 . S
H945 C941 0.950 . S
H946 C943 0.950 . S
C947 C938 1.390 . S
C947 H940 0.950 . S
C947 C944 1.387 . S
C948 C949 1.387 . S
C948 H952 0.950 . S
C948 C957 1.390 . S
C949 C948 1.387 . S
C949 C951 1.387 . S
H950 C957 0.950 . S
C951 C949 1.387 . S
C951 C953 1.390 . S
C951 H955 0.950 . S
H952 C948 0.950 . S
C953 C951 1.390 . S
C953 C954 1.387 . S
C953 H956 0.950 . S
C954 C953 1.387 . S
C954 C957 1.387 . S
H955 C951 0.950 . S
H956 C953 0.950 . S
C957 C948 1.390 . S
C957 H950 0.950 . S
C957 C954 1.387 . S
C958 C959 1.387 . S
C958 H962 0.950 . S
C958 C967 1.390 . S
C959 C958 1.387 . S
C959 C961 1.387 . S
H960 C967 0.950 . S
C961 C959 1.387 . S
C961 C963 1.390 . S
C961 H965 0.950 . S
H962 C958 0.950 . S
C963 C961 1.390 . S
C963 C964 1.387 . S
C963 H966 0.950 . S
C964 C963 1.387 . S
C964 C967 1.387 . S
H965 C961 0.950 . S
H966 C963 0.950 . S
C967 C958 1.390 . S
C967 H960 0.950 . S
C967 C964 1.387 . S
C968 C969 1.387 . S
C968 H972 0.950 . S
C968 C977 1.390 . S
C969 C968 1.387 . S
C969 C971 1.387 . S
H970 C977 0.950 . S
C971 C969 1.387 . S
C971 C973 1.390 . S
C971 H975 0.950 . S
H972 C968 0.950 . S
C973 C971 1.390 . S
C973 C974 1.387 . S
C973 H976 0.950 . S
C974 C973 1.387 . S
C974 C977 1.387 . S
H975 C971 0.950 . S
H976 C973 0.950 . S
C977 C968 1.390 . S
C977 H970 0.950 . S
C977 C974 1.387 . S
C978 C979 1.387 . S
C978 H982 0.950 . S
C978 C987 1.390 . S
C979 C978 1.387 . S
C979 C981 1.387 . S
H980 C987 0.950 . S
C981 C979 1.387 . S
C981 C983 1.390 . S
C981 H985 0.950 . S
H982 C978 0.950 . S
C983 C981 1.390 . S
C983 C984 1.387 . S
C983 H986 0.950 . S
C984 C983 1.387 . S
C984 C987 1.387 . S
H985 C981 0.950 . S
H986 C983 0.950 . S
C987 C978 1.390 . S
C987 H980 0.950 . S
C987 C984 1.387 . S
C988 C989 1.387 . S
C988 H992 0.950 . S
C988 C997 1.390 . S
C989 C988 1.387 . S
C989 C991 1.387 . S
H990 C997 0.950 . S
C991 C989 1.387 . S
C991 C993 1.390 . S
C991 H995 0.950 . S
H992 C988 0.950 . S
C993 C991 1.390 . S
C993 C994 1.387 . S
C993 H996 0.950 . S
C994 C993 1.387 . S
C994 C997 1.387 . S
H995 C991 0.950 . S
H996 C993 0.950 . S
C997 C988 1.390 . S
C997 H990 0.950 . S
C997 C994 1.387 . S
C998 C999 1.387 . S
C998 H1002 0.950 . S
C998 C1007 1.390 . S
C999 C998 1.387 . S
C999 C1001 1.387 . S
H1000 C1007 0.950 . S
C1001 C999 1.387 . S
C1001 C1003 1.390 . S
C1001 H1005 0.950 . S
H1002 C998 0.950 . S
C1003 C1001 1.390 . S
C1003 C1004 1.387 . S
C1003 H1006 0.950 . S
C1004 C1003 1.387 . S
C1004 C1007 1.387 . S
H1005 C1001 0.950 . S
H1006 C1003 0.950 . S
C1007 C998 1.390 . S
C1007 H1000 0.950 . S
C1007 C1004 1.387 . S
C1008 C1009 1.387 . S
C1008 H1012 0.950 . S
C1008 C1017 1.390 . S
C1009 C1008 1.387 . S
C1009 C1011 1.387 . S
H1010 C1017 0.950 . S
C1011 C1009 1.387 . S
C1011 C1013 1.390 . S
C1011 H1015 0.950 . S
H1012 C1008 0.950 . S
C1013 C1011 1.390 . S
C1013 C1014 1.387 . S
C1013 H1016 0.950 . S
C1014 C1013 1.387 . S
C1014 C1017 1.387 . S
H1015 C1011 0.950 . S
H1016 C1013 0.950 . S
C1017 C1008 1.390 . S
C1017 H1010 0.950 . S
C1017 C1014 1.387 . S
C1018 C1019 1.387 . S
C1018 H1022 0.950 . S
C1018 C1027 1.390 . S
C1019 C1018 1.387 . S
C1019 C1021 1.387 . S
H1020 C1027 0.950 . S
C1021 C1019 1.387 . S
C1021 C1023 1.390 . S
C1021 H1025 0.950 . S
H1022 C1018 0.950 . S
C1023 C1021 1.390 . S
C1023 C1024 1.387 . S
C1023 H1026 0.950 . S
C1024 C1023 1.387 . S
C1024 C1027 1.387 . S
H1025 C1021 0.950 . S
H1026 C1023 0.950 . S
C1027 C1018 1.390 . S
C1027 H1020 0.950 . S
C1027 C1024 1.387 . S
C1028 C1029 1.387 . S
C1028 H1032 0.950 . S
C1028 C1037 1.390 . S
C1029 C1028 1.387 . S
C1029 C1031 1.387 . S
H1030 C1037 0.950 . S
C1031 C1029 1.387 . S
C1031 C1033 1.390 . S
C1031 H1035 0.950 . S
H1032 C1028 0.950 . S
C1033 C1031 1.390 . S
C1033 C1034 1.387 . S
C1033 H1036 0.950 . S
C1034 C1033 1.387 . S
C1034 C1037 1.387 . S
H1035 C1031 0.950 . S
H1036 C1033 0.950 . S
C1037 C1028 1.390 . S
C1037 H1030 0.950 . S
C1037 C1034 1.387 . S
C1038 C1039 1.387 . S
C1038 H1042 0.950 . S
C1038 C1047 1.390 . S
C1039 C1038 1.387 . S
C1039 C1041 1.387 . S
H1040 C1047 0.950 . S
C1041 C1039 1.387 . S
C1041 C1043 1.390 . S
C1041 H1045 0.950 . S
H1042 C1038 0.950 . S
C1043 C1041 1.390 . S
C1043 C1044 1.387 . S
C1043 H1046 0.950 . S
C1044 C1043 1.387 . S
C1044 C1047 1.387 . S
H1045 C1041 0.950 . S
H1046 C1043 0.950 . S
C1047 C1038 1.390 . S
C1047 H1040 0.950 . S
C1047 C1044 1.387 . S
C1048 C1049 1.387 . S
C1048 H1052 0.950 . S
C1048 C1057 1.390 . S
C1049 C1048 1.387 . S
C1049 C1051 1.387 . S
H1050 C1057 0.950 . S
C1051 C1049 1.387 . S
C1051 C1053 1.390 . S
C1051 H1055 0.950 . S
H1052 C1048 0.950 . S
C1053 C1051 1.390 . S
C1053 C1054 1.387 . S
C1053 H1056 0.950 . S
C1054 C1053 1.387 . S
C1054 C1057 1.387 . S
H1055 C1051 0.950 . S
H1056 C1053 0.950 . S
C1057 C1048 1.390 . S
C1057 H1050 0.950 . S
C1057 C1054 1.387 . S
C1058 C1059 1.387 . S
C1058 H1062 0.950 . S
C1058 C1067 1.390 . S
C1059 C1058 1.387 . S
C1059 C1061 1.387 . S
H1060 C1067 0.950 . S
C1061 C1059 1.387 . S
C1061 C1063 1.390 . S
C1061 H1065 0.950 . S
H1062 C1058 0.950 . S
C1063 C1061 1.390 . S
C1063 C1064 1.387 . S
C1063 H1066 0.950 . S
C1064 C1063 1.387 . S
C1064 C1067 1.387 . S
H1065 C1061 0.950 . S
H1066 C1063 0.950 . S
C1067 C1058 1.390 . S
C1067 H1060 0.950 . S
C1067 C1064 1.387 . S
C1068 C1069 1.387 . S
C1068 H1072 0.950 . S
C1068 C1077 1.390 . S
C1069 C1068 1.387 . S
C1069 C1071 1.387 . S
H1070 C1077 0.950 . S
C1071 C1069 1.387 . S
C1071 C1073 1.390 . S
C1071 H1075 0.950 . S
H1072 C1068 0.950 . S
C1073 C1071 1.390 . S
C1073 C1074 1.387 . S
C1073 H1076 0.950 . S
C1074 C1073 1.387 . S
C1074 C1077 1.387 . S
H1075 C1071 0.950 . S
H1076 C1073 0.950 . S
C1077 C1068 1.390 . S
C1077 H1070 0.950 . S
C1077 C1074 1.387 . S
C1078 C1079 1.387 . S
C1078 H1082 0.950 . S
C1078 C1087 1.390 . S
C1079 C1078 1.387 . S
C1079 C1081 1.387 . S
H1080 C1087 0.950 . S
C1081 C1079 1.387 . S
C1081 C1083 1.390 . S
C1081 H1085 0.950 . S
H1082 C1078 0.950 . S
C1083 C1081 1.390 . S
C1083 C1084 1.387 . S
C1083 H1086 0.950 . S
C1084 C1083 1.387 . S
C1084 C1087 1.387 . S
H1085 C1081 0.950 . S
H1086 C1083 0.950 . S
C1087 C1078 1.390 . S
C1087 H1080 0.950 . S
C1087 C1084 1.387 . S
C449 C11 1.341 . S
C454 C67 1.341 . S
C459 C25 1.339 . S
C464 C81 1.339 . S
C469 C95 1.341 . S
C474 C39 1.341 . S
C479 C109 1.337 . S
C484 C53 1.337 . S
C489 C123 1.316 . S
C494 C179 1.316 . S
C499 C131 1.296 . S
C504 C187 1.296 . S
C509 C207 1.316 . S
C514 C151 1.316 . S
C519 C159 1.295 . S
C524 C215 1.295 . S
C529 C291 1.338 . S
C534 C235 1.338 . S
C539 C305 1.337 . S
C544 C249 1.337 . S
C549 C263 1.338 . S
C554 C319 1.338 . S
C559 C333 1.339 . S
C564 C277 1.339 . S
C569 C347 1.313 . S
C574 C403 1.313 . S
C579 C411 1.296 . S
C584 C355 1.296 . S
C589 C431 1.316 . S
C594 C375 1.316 . S
C599 C383 1.296 . S
C604 C439 1.296 . S
C609 C4 1.477 . S
C614 C382 1.535 . S
C619 C124 1.566 . S
C624 C18 1.487 . S
C629 C32 1.474 . S
C634 C354 1.537 . S
C639 C46 1.487 . S
C644 C152 1.566 . S
C649 C410 1.535 . S
C654 C60 1.477 . S
C659 C208 1.566 . S
C664 C74 1.487 . S
C669 C88 1.474 . S
C674 C438 1.537 . S
C679 C102 1.485 . S
C684 C180 1.566 . S
C689 C278 1.414 . S
C694 C116 1.351 . S
C699 C138 1.407 . S
C704 C12 1.431 . S
C709 C250 1.414 . S
C714 C144 1.351 . S
C719 C166 1.407 . S
C724 C40 1.431 . S
C729 C306 1.414 . S
C734 C172 1.351 . S
C739 C194 1.406 . S
C744 C96 1.430 . S
C749 C334 1.413 . S
C754 C200 1.353 . S
C759 C222 1.407 . S
C764 C68 1.431 . S
C769 C158 1.537 . S
C774 C228 1.474 . S
C779 C348 1.566 . S
C784 C242 1.487 . S
C789 C130 1.535 . S
C794 C256 1.477 . S
C799 C270 1.484 . S
C804 C376 1.566 . S
C809 C186 1.536 . S
C814 C284 1.474 . S
C819 C432 1.566 . S
C824 C298 1.484 . S
C829 C214 1.537 . S
C834 C312 1.475 . S
C839 C326 1.484 . S
C844 C404 1.566 . S
C849 C340 1.352 . S
C854 C54 1.414 . S
C859 C362 1.406 . S
C864 C236 1.430 . S
C869 C368 1.352 . S
C874 C26 1.414 . S
C879 C390 1.406 . S
C884 C264 1.430 . S
C889 C396 1.351 . S
C894 C82 1.414 . S
C899 C320 1.431 . S
C904 C418 1.407 . S
C909 C110 1.413 . S
C914 C424 1.353 . S
C919 C446 1.407 . S
C924 C292 1.431 . S
C929 C5 1.137 . S
C934 C103 1.139 . S
C939 C19 1.136 . S
C944 C61 1.134 . S
C949 C33 1.134 . S
C954 C75 1.136 . S
C959 C89 1.141 . S
C964 C47 1.143 . S
C969 C221 1.271 . S
C974 C117 1.166 . S
C979 C173 1.166 . S
C984 C137 1.270 . S
C989 C193 1.273 . S
C994 C145 1.164 . S
C999 C201 1.167 . S
C1004 C165 1.271 . S
C1009 C229 1.139 . S
C1014 C327 1.142 . S
C1019 C285 1.138 . S
C1024 C243 1.142 . S
C1029 C299 1.141 . S
C1034 C257 1.139 . S
C1039 C313 1.134 . S
C1044 C271 1.137 . S
C1049 C445 1.272 . S
C1054 C341 1.166 . S
C1059 C361 1.273 . S
C1064 C397 1.163 . S
C1069 C369 1.167 . S
C1074 C417 1.271 . S
C1079 C389 1.272 . S
C1084 C425 1.166 . S
