# Generated by pormake.
# Topology wiv, (6)-cn, num edge types: 1
# Building blocks:
#     Node 0, Type 0, BuildingBlock: FUNLAD_clean_sbu_0, # of connection points: 6
#     Node 1, Type 0, BuildingBlock: FUNLAD_clean_sbu_0, # of connection points: 6
#     Node 2, Type 0, BuildingBlock: FUNLAD_clean_sbu_0, # of connection points: 6
#     Node 3, Type 0, BuildingBlock: FUNLAD_clean_sbu_0, # of connection points: 6
#     Node 4, Type 0, BuildingBlock: FUNLAD_clean_sbu_0, # of connection points: 6
#     Node 5, Type 0, BuildingBlock: FUNLAD_clean_sbu_0, # of connection points: 6
#     Node 6, Type 0, BuildingBlock: FUNLAD_clean_sbu_0, # of connection points: 6
#     Node 7, Type 0, BuildingBlock: FUNLAD_clean_sbu_0, # of connection points: 6
#     Node 8, Type 0, BuildingBlock: FUNLAD_clean_sbu_0, # of connection points: 6
#     Node 9, Type 0, BuildingBlock: FUNLAD_clean_sbu_0, # of connection points: 6
#     Node 10, Type 0, BuildingBlock: FUNLAD_clean_sbu_0, # of connection points: 6
#     Node 11, Type 0, BuildingBlock: FUNLAD_clean_sbu_0, # of connection points: 6
#     Node 12, Type 0, BuildingBlock: FUNLAD_clean_sbu_0, # of connection points: 6
#     Node 13, Type 0, BuildingBlock: FUNLAD_clean_sbu_0, # of connection points: 6
#     Node 14, Type 0, BuildingBlock: FUNLAD_clean_sbu_0, # of connection points: 6
#     Node 15, Type 0, BuildingBlock: FUNLAD_clean_sbu_0, # of connection points: 6
#     Edge 16, Type (0, 0), BuildingBlock: OJICUG_clean_linker_0, # of connection points: 2
#     Edge 17, Type (0, 0), BuildingBlock: OJICUG_clean_linker_0, # of connection points: 2
#     Edge 18, Type (0, 0), BuildingBlock: OJICUG_clean_linker_0, # of connection points: 2
#     Edge 19, Type (0, 0), BuildingBlock: OJICUG_clean_linker_0, # of connection points: 2
#     Edge 20, Type (0, 0), BuildingBlock: OJICUG_clean_linker_0, # of connection points: 2
#     Edge 21, Type (0, 0), BuildingBlock: OJICUG_clean_linker_0, # of connection points: 2
#     Edge 22, Type (0, 0), BuildingBlock: OJICUG_clean_linker_0, # of connection points: 2
#     Edge 23, Type (0, 0), BuildingBlock: OJICUG_clean_linker_0, # of connection points: 2
#     Edge 24, Type (0, 0), BuildingBlock: OJICUG_clean_linker_0, # of connection points: 2
#     Edge 25, Type (0, 0), BuildingBlock: OJICUG_clean_linker_0, # of connection points: 2
#     Edge 26, Type (0, 0), BuildingBlock: OJICUG_clean_linker_0, # of connection points: 2
#     Edge 27, Type (0, 0), BuildingBlock: OJICUG_clean_linker_0, # of connection points: 2
#     Edge 28, Type (0, 0), BuildingBlock: OJICUG_clean_linker_0, # of connection points: 2
#     Edge 29, Type (0, 0), BuildingBlock: OJICUG_clean_linker_0, # of connection points: 2
#     Edge 30, Type (0, 0), BuildingBlock: OJICUG_clean_linker_0, # of connection points: 2
#     Edge 31, Type (0, 0), BuildingBlock: OJICUG_clean_linker_0, # of connection points: 2
#     Edge 32, Type (0, 0), BuildingBlock: OJICUG_clean_linker_0, # of connection points: 2
#     Edge 33, Type (0, 0), BuildingBlock: OJICUG_clean_linker_0, # of connection points: 2
#     Edge 34, Type (0, 0), BuildingBlock: OJICUG_clean_linker_0, # of connection points: 2
#     Edge 35, Type (0, 0), BuildingBlock: OJICUG_clean_linker_0, # of connection points: 2
#     Edge 36, Type (0, 0), BuildingBlock: OJICUG_clean_linker_0, # of connection points: 2
#     Edge 37, Type (0, 0), BuildingBlock: OJICUG_clean_linker_0, # of connection points: 2
#     Edge 38, Type (0, 0), BuildingBlock: OJICUG_clean_linker_0, # of connection points: 2
#     Edge 39, Type (0, 0), BuildingBlock: OJICUG_clean_linker_0, # of connection points: 2
#     Edge 40, Type (0, 0), BuildingBlock: OJICUG_clean_linker_0, # of connection points: 2
#     Edge 41, Type (0, 0), BuildingBlock: OJICUG_clean_linker_0, # of connection points: 2
#     Edge 42, Type (0, 0), BuildingBlock: OJICUG_clean_linker_0, # of connection points: 2
#     Edge 43, Type (0, 0), BuildingBlock: OJICUG_clean_linker_0, # of connection points: 2
#     Edge 44, Type (0, 0), BuildingBlock: OJICUG_clean_linker_0, # of connection points: 2
#     Edge 45, Type (0, 0), BuildingBlock: OJICUG_clean_linker_0, # of connection points: 2
#     Edge 46, Type (0, 0), BuildingBlock: OJICUG_clean_linker_0, # of connection points: 2
#     Edge 47, Type (0, 0), BuildingBlock: OJICUG_clean_linker_0, # of connection points: 2
#     Edge 48, Type (0, 0), BuildingBlock: OJICUG_clean_linker_0, # of connection points: 2
#     Edge 49, Type (0, 0), BuildingBlock: OJICUG_clean_linker_0, # of connection points: 2
#     Edge 50, Type (0, 0), BuildingBlock: OJICUG_clean_linker_0, # of connection points: 2
#     Edge 51, Type (0, 0), BuildingBlock: OJICUG_clean_linker_0, # of connection points: 2
#     Edge 52, Type (0, 0), BuildingBlock: OJICUG_clean_linker_0, # of connection points: 2
#     Edge 53, Type (0, 0), BuildingBlock: OJICUG_clean_linker_0, # of connection points: 2
#     Edge 54, Type (0, 0), BuildingBlock: OJICUG_clean_linker_0, # of connection points: 2
#     Edge 55, Type (0, 0), BuildingBlock: OJICUG_clean_linker_0, # of connection points: 2
#     Edge 56, Type (0, 0), BuildingBlock: OJICUG_clean_linker_0, # of connection points: 2
#     Edge 57, Type (0, 0), BuildingBlock: OJICUG_clean_linker_0, # of connection points: 2
#     Edge 58, Type (0, 0), BuildingBlock: OJICUG_clean_linker_0, # of connection points: 2
#     Edge 59, Type (0, 0), BuildingBlock: OJICUG_clean_linker_0, # of connection points: 2
#     Edge 60, Type (0, 0), BuildingBlock: OJICUG_clean_linker_0, # of connection points: 2
#     Edge 61, Type (0, 0), BuildingBlock: OJICUG_clean_linker_0, # of connection points: 2
#     Edge 62, Type (0, 0), BuildingBlock: OJICUG_clean_linker_0, # of connection points: 2
#     Edge 63, Type (0, 0), BuildingBlock: OJICUG_clean_linker_0, # of connection points: 2
# Relax obj value: 0.151
# Max RMSD: 0.148
# Mean RMSD: 0.148
data_MOF--net-wiv--node1-FUNLAD_clean_sbu_0--edge1-OJICUG_clean_linker_0
_symmetry_space_group_name_H-M    P1
_symmetry_Int_Tables_number       1
_symmetry_cell_setting            triclinic
loop_
_symmetry_equiv_pos_as_xyz
'x, y, z'
_cell_length_a     54.63068
_cell_length_b     54.633924
_cell_length_c     11.060575
_cell_angle_alpha  89.952099
_cell_angle_beta   90.080109
_cell_angle_gamma 89.967332
loop_
_atom_site_label
_atom_site_type_symbol
_atom_site_fract_x
_atom_site_fract_y
_atom_site_fract_z
_atom_type_partial_charge
C0 C 0.3725 0.10907 0.76994 0.0
N1 N 0.35474 0.16559 0.00916 0.0
C2 C 0.36973 0.18029 0.94319 0.0
C3 C 0.36766 0.20568 -0.04907 0.0
C4 C 0.35012 0.21613 0.02808 0.0
C5 C 0.33417 0.20051 0.0911 0.0
C6 C 0.33681 0.17516 0.0802 0.0
Zn7 Zn 0.3616 0.1288 0.0119 0.0
C8 C 0.31608 0.10043 -0.05054 0.0
N9 N 0.37567 0.05172 0.02812 0.0
C10 C 0.39907 0.04401 0.0098 0.0
C11 C 0.35876 0.03651 0.07807 0.0
C12 C 0.36547 1.01314 0.11784 0.0
C13 C 0.39005 1.00542 0.11005 0.0
C14 C 0.40674 0.02106 0.05141 0.0
Zn15 Zn 0.36773 0.08857 0.01415 0.0
O16 O 0.3669 0.1285 0.82639 0.0
C17 C 0.41303 0.11898 0.07031 0.0
O18 O 0.37623 0.08931 0.82828 0.0
H19 H 0.34031 0.04296 0.09328 0.0
H20 H 0.38387 0.17233 0.88731 0.0
H21 H 0.41232 0.05623 -0.03041 0.0
O22 O 0.39873 0.13636 0.04275 0.0
O23 O 0.40508 0.09709 0.06718 0.0
H24 H 0.32509 0.16313 0.13192 0.0
O25 O 0.35912 0.08821 0.19838 0.0
O26 O 0.35655 0.12824 0.19936 0.0
O27 O 0.32996 0.08174 -0.04 0.0
O28 O 0.32448 0.12139 -0.02242 0.0
C29 C 0.35693 0.10809 0.25642 0.0
H30 H 0.38003 0.217 0.89882 0.0
H31 H 0.32049 0.20775 0.15222 0.0
H32 H 0.35154 1.00163 0.15784 0.0
H33 H 0.42589 1.01636 0.04298 0.0
C34 C 0.10874 0.68342 0.62607 0.0
N35 N 0.05216 0.6641 0.85426 0.0
C36 C 0.03841 0.67974 0.78667 0.0
C37 C 1.01511 0.67295 0.74697 0.0
C38 C 1.00554 0.64985 0.77763 0.0
C39 C 0.01968 0.63456 0.85275 0.0
C40 C 0.04306 0.64204 0.88984 0.0
Zn41 Zn 0.08896 0.67169 0.87055 0.0
C42 C 0.1197 0.62728 0.81165 0.0
N43 N 0.16567 0.68595 0.87457 0.0
C44 C 0.17562 0.70404 0.80574 0.0
C45 C 0.18002 0.67055 0.94044 0.0
C46 C 0.20543 0.67237 0.93483 0.0
C47 C 0.21627 0.69004 0.85972 0.0
C48 C 0.20102 0.70641 0.79684 0.0
Zn49 Zn 0.12894 0.67938 0.86877 0.0
O50 O 0.08924 0.67952 0.68488 0.0
C51 C 0.10062 0.72409 0.93398 0.0
O52 O 0.12886 0.68547 0.68236 0.0
H53 H 0.17176 0.65628 -0.00556 0.0
H54 H 0.0461 0.69699 0.75736 0.0
H55 H 0.16386 0.71609 0.75413 0.0
O56 O 0.08209 0.71003 0.92127 0.0
O57 O 0.1217 0.71599 0.90678 0.0
H58 H 0.05437 0.62972 0.94239 0.0
O59 O 0.12834 0.67311 0.05493 0.0
O60 O 0.08914 0.66391 0.05602 0.0
O61 O 0.1364 0.64279 0.83221 0.0
O62 O 0.09741 0.6338 0.82343 0.0
C63 C 0.10906 0.66761 0.11289 0.0
H64 H 1.00524 0.68532 0.68793 0.0
H65 H 1.013 0.61679 0.8807 0.0
H66 H 0.21646 0.65968 -0.01315 0.0
H67 H 0.20856 0.7202 0.73726 0.0
C68 C 0.66613 0.92938 0.77235 0.0
N69 N 0.68397 0.87283 0.01154 0.0
C70 C 0.66904 0.85809 0.9454 0.0
C71 C 0.67153 0.83272 -0.04844 0.0
C72 C 0.68943 0.82234 0.02721 0.0
C73 C 0.70526 0.83802 0.0906 0.0
C74 C 0.70219 0.86335 0.08137 0.0
Zn75 Zn 0.67699 0.90956 0.01458 0.0
C76 C 0.72259 0.93783 -0.04732 0.0
N77 N 0.66298 0.98672 0.03058 0.0
C78 C 0.63957 0.99442 0.01203 0.0
C79 C 0.67986 1.00192 0.08086 0.0
C80 C 0.67313 0.02528 0.12067 0.0
C81 C 0.64854 0.03299 0.11259 0.0
C82 C 0.63188 1.01735 0.05364 0.0
Zn83 Zn 0.67092 0.94982 0.01652 0.0
O84 O 0.67166 0.90993 0.82906 0.0
C85 C 0.62554 0.91936 0.07206 0.0
O86 O 0.66247 0.94916 0.83046 0.0
H87 H 0.69833 0.99548 0.09626 0.0
H88 H 0.6547 0.86599 0.89034 0.0
H89 H 0.62633 0.98221 -0.02841 0.0
O90 O 0.63986 0.90197 0.04503 0.0
O91 O 0.63349 0.94125 0.06883 0.0
H92 H 0.71386 0.87542 0.13314 0.0
O93 O 0.67949 0.95009 0.20081 0.0
O94 O 0.68207 0.91005 0.20214 0.0
O95 O 0.7088 0.95659 -0.03689 0.0
O96 O 0.71408 0.91692 -0.01939 0.0
C97 C 0.68169 0.93021 0.25903 0.0
H98 H 0.65921 0.82134 0.89931 0.0
H99 H 0.7192 0.83083 0.15062 0.0
H100 H 0.68704 0.03677 0.1609 0.0
H101 H 0.61272 0.02203 0.04495 0.0
C102 C 0.93128 0.35666 0.64468 0.0
N103 N 0.98775 0.37564 0.87264 0.0
C104 C 1.00298 0.3589 0.82154 0.0
C105 C 0.02619 0.36582 0.78049 0.0
C106 C 0.03373 0.39047 0.78822 0.0
C107 C 1.01809 0.40697 0.84817 0.0
C108 C 0.99532 0.39909 0.89098 0.0
Zn109 Zn 0.95088 0.36758 0.88708 0.0
C110 C 0.92033 0.41294 0.82977 0.0
N111 N 0.87383 0.35464 0.89208 0.0
C112 C 0.86423 0.3366 0.82169 0.0
C113 C 0.85915 0.36963 -0.04186 0.0
C114 C 0.83376 0.36742 -0.04863 0.0
C115 C 0.82327 0.34974 0.87507 0.0
C116 C 0.83887 0.33382 0.81174 0.0
Zn117 Zn 0.9106 0.36151 0.88911 0.0
O118 O 0.95116 0.3589 0.70292 0.0
C119 C 0.93899 0.31594 -0.04669 0.0
O120 O 0.91113 0.35625 0.70156 0.0
H121 H 0.86713 0.38386 0.01351 0.0
H122 H 0.99664 0.34041 0.8063 0.0
H123 H 0.87624 0.32488 0.76991 0.0
O124 O 0.95775 0.3297 0.94181 0.0
O125 O 0.91805 0.32442 0.9249 0.0
H126 H 0.98308 0.41222 0.93201 0.0
O127 O 0.91095 0.36704 0.07452 0.0
O128 O 0.95019 0.37614 0.07309 0.0
O129 O 0.90296 0.39863 0.8571 0.0
O130 O 0.94223 0.405 0.8336 0.0
C131 C 0.9304 0.37254 0.13122 0.0
H132 H 0.0377 0.35202 0.73955 0.0
H133 H 0.02263 0.42616 0.85671 0.0
H134 H 0.82247 0.37978 0.0037 0.0
H135 H 0.83161 0.32004 0.75122 0.0
C136 C 0.3718 0.42831 0.36604 0.0
N137 N 0.3534 0.37163 0.12717 0.0
C138 C 0.36898 0.3572 0.19155 0.0
C139 C 0.36723 0.33178 0.18472 0.0
C140 C 0.34941 0.32101 0.11011 0.0
C141 C 0.33284 0.33635 0.04897 0.0
C142 C 0.33517 0.36175 0.05888 0.0
Zn143 Zn 0.36 0.40844 0.12185 0.0
C144 C 0.31533 0.43696 0.18699 0.0
N145 N 0.37544 0.48529 0.10732 0.0
C146 C 0.39751 0.49445 0.14254 0.0
C147 C 0.35973 0.49901 0.03999 0.0
C148 C 0.36641 0.52235 0.00044 0.0
C149 C 0.38949 0.532 0.03093 0.0
C150 C 0.40489 0.51787 0.10554 0.0
Zn151 Zn 0.36782 0.44846 0.12374 0.0
O152 O 0.36636 0.40901 0.30798 0.0
C153 C 0.41224 0.41769 0.06559 0.0
O154 O 0.37545 0.44825 0.30929 0.0
H155 H 0.34248 0.49129 0.01086 0.0
H156 H 0.38336 0.3654 0.24517 0.0
H157 H 0.4099 0.48318 0.19485 0.0
O158 O 0.39667 0.40098 0.08494 0.0
O159 O 0.40573 0.43996 0.07776 0.0
H160 H 0.323 0.37356 0.00834 0.0
O161 O 0.36011 0.44814 0.93801 0.0
O162 O 0.35382 0.40857 0.93546 0.0
O163 O 0.32946 0.45541 0.17364 0.0
O164 O 0.32334 0.41579 0.16047 0.0
C165 C 0.35603 0.42867 0.8792 0.0
H166 H 0.38009 0.32068 0.23536 0.0
H167 H 0.31892 0.32886 -0.01016 0.0
H168 H 0.35396 0.5322 0.94174 0.0
H169 H 0.42266 0.52461 0.13331 0.0
C170 C 0.42881 0.68284 0.01868 0.0
N171 N 0.48545 0.66409 0.79014 0.0
C172 C 0.499 0.68009 0.85645 0.0
C173 C 0.52255 0.67385 0.89482 0.0
C174 C 0.53253 0.65094 0.8642 0.0
C175 C 0.51856 0.63527 0.79045 0.0
C176 C 0.49493 0.6422 0.75462 0.0
Zn177 Zn 0.44862 0.67123 0.77428 0.0
C178 C 0.41827 0.62658 0.83324 0.0
N179 N 0.37187 0.6852 0.77043 0.0
C180 C 0.36197 0.70345 0.83832 0.0
C181 C 0.35748 0.66974 0.70538 0.0
C182 C 0.33207 0.67169 0.71078 0.0
C183 C 0.32128 0.68957 0.7848 0.0
C184 C 0.33659 0.70596 0.84698 0.0
Zn185 Zn 0.40862 0.67874 0.77602 0.0
O186 O 0.44832 0.67894 -0.04005 0.0
C187 C 0.43675 0.72357 0.71075 0.0
O188 O 0.40869 0.68489 -0.03767 0.0
H189 H 0.36571 0.65535 0.65204 0.0
H190 H 0.49102 0.69721 0.88562 0.0
H191 H 0.37377 0.71555 0.88926 0.0
O192 O 0.45527 0.70954 0.72402 0.0
O193 O 0.41564 0.71544 0.73727 0.0
H194 H 0.48378 0.62962 0.70297 0.0
O195 O 0.40919 0.67242 0.58993 0.0
O196 O 0.44848 0.66356 0.58886 0.0
O197 O 0.40143 0.64201 0.81328 0.0
O198 O 0.4405 0.63325 0.82101 0.0
C199 C 0.42852 0.6671 0.53198 0.0
H200 H 0.53231 0.68648 -0.04719 0.0
H201 H 0.52557 0.61762 0.76262 0.0
H202 H 0.321 0.65897 0.65934 0.0
H203 H 0.32908 0.71991 0.90576 0.0
C204 C 0.66797 0.6099 0.35501 0.0
N205 N 0.68759 0.66678 0.11944 0.0
C206 C 0.67259 0.68111 0.18728 0.0
C207 C 0.67448 0.70652 0.18206 0.0
C208 C 0.6918 0.7174 0.10529 0.0
C209 C 0.70796 0.70218 0.04117 0.0
C210 C 0.70551 0.67675 0.04964 0.0
Zn211 Zn 0.67973 0.63025 0.11034 0.0
C212 C 0.72398 0.5999 0.1732 0.0
N213 N 0.6616 0.55391 0.09021 0.0
C214 C 0.67009 0.53468 0.1566 0.0
C215 C 0.64606 0.55014 -0.00459 0.0
C216 C 0.63838 0.52671 -0.03562 0.0
C217 C 0.64691 0.50651 0.02973 0.0
C218 C 0.66304 0.51064 0.12724 0.0
Zn219 Zn 0.6715 0.59026 0.11338 0.0
O220 O 0.6735 0.62912 0.29646 0.0
C221 C 0.62753 0.62288 0.05816 0.0
O222 O 0.66411 0.58994 0.29884 0.0
H223 H 0.63989 0.56531 0.94071 0.0
H224 H 0.6584 0.67288 0.24182 0.0
H225 H 0.68258 0.53791 0.23089 0.0
O226 O 0.64337 0.63944 0.07439 0.0
O227 O 0.63382 0.60063 0.07216 0.0
H228 H 0.71723 0.66501 -0.00368 0.0
O229 O 0.67932 0.59108 0.92783 0.0
O230 O 0.68575 0.63061 0.92405 0.0
O231 O 0.70957 0.58162 0.16061 0.0
O232 O 0.71613 0.62122 0.1477 0.0
C233 C 0.68344 0.61047 0.86843 0.0
H234 H 0.66197 0.71753 0.23499 0.0
H235 H 0.72151 0.70979 -0.0195 0.0
H236 H 0.62645 0.52441 0.88689 0.0
H237 H 0.67011 0.49548 0.1799 0.0
C238 C 0.61041 0.35411 0.03017 0.0
N239 N 0.55379 0.37367 0.80097 0.0
C240 C 0.53994 0.35817 0.86856 0.0
C241 C 0.51656 0.36503 0.90658 0.0
C242 C 0.50701 0.38807 0.8743 0.0
C243 C 0.52129 0.40324 0.79958 0.0
C244 C 0.54474 0.39569 0.7641 0.0
Zn245 Zn 0.59059 0.36591 0.78546 0.0
C246 C 0.62112 0.4104 0.84618 0.0
N247 N 0.66753 0.35196 0.78228 0.0
C248 C 0.67764 0.3338 0.8503 0.0
C249 C 0.68176 0.36761 0.71752 0.0
C250 C 0.70719 0.366 0.72354 0.0
C251 C 0.71821 0.34826 0.79786 0.0
C252 C 0.70308 0.33161 0.85948 0.0
Zn253 Zn 0.6307 0.35848 0.78777 0.0
O254 O 0.59091 0.35813 -0.02881 0.0
C255 C 0.60212 0.3138 0.72055 0.0
O256 O 0.63053 0.35198 -0.02596 0.0
H257 H 0.67339 0.38195 0.66421 0.0
H258 H 0.54757 0.34095 0.89888 0.0
H259 H 0.66598 0.32156 0.90114 0.0
O260 O 0.58362 0.3278 0.73518 0.0
O261 O 0.62331 0.32184 0.74688 0.0
H262 H 0.55612 0.4079 0.71156 0.0
O263 O 0.63016 0.36515 0.60163 0.0
O264 O 0.59079 0.37364 0.59989 0.0
O265 O 0.63816 0.39515 0.82712 0.0
O266 O 0.599 0.40359 0.83211 0.0
C267 C 0.61078 0.37031 0.54332 0.0
H268 H 0.50656 0.35275 -0.03459 0.0
H269 H 0.51464 0.42097 0.7705 0.0
H270 H 0.71811 0.37891 0.6725 0.0
H271 H 0.71076 0.31774 0.91839 0.0
C272 C 0.87182 0.60907 0.27223 0.0
N273 N 0.85248 0.66548 0.51171 0.0
C274 C 0.86784 0.68004 0.44704 0.0
C275 C 0.86609 0.70545 0.45503 0.0
C276 C 0.84849 0.71611 0.53112 0.0
C277 C 0.83209 0.70066 0.59243 0.0
C278 C 0.83443 0.67525 0.58138 0.0
Zn279 Zn 0.8596 0.62865 0.516 0.0
C280 C 0.81533 0.59959 0.44704 0.0
N281 N 0.87606 0.55173 0.53034 0.0
C282 C 0.8996 0.54426 0.51389 0.0
C283 C 0.85921 0.53636 0.57958 0.0
C284 C 0.86607 0.51306 0.62015 0.0
C285 C 0.89075 0.50557 0.614 0.0
C286 C 0.90741 0.5214 0.5563 0.0
Zn287 Zn 0.86756 0.58858 0.51485 0.0
O288 O 0.86605 0.62834 0.32985 0.0
C289 C 0.91158 0.62016 0.57649 0.0
O290 O 0.87577 0.58923 0.32951 0.0
H291 H 0.84064 0.5426 0.59348 0.0
H292 H 0.88211 0.67195 0.39248 0.0
H293 H 0.91283 0.55659 0.47434 0.0
O294 O 0.89607 0.63679 0.55423 0.0
O295 O 0.90513 0.59787 0.56535 0.0
H296 H 0.82244 0.66335 0.63228 0.0
O297 O 0.85923 0.58837 0.70011 0.0
O298 O 0.85338 0.62805 0.70238 0.0
O299 O 0.82952 0.58116 0.46066 0.0
O300 O 0.8231 0.62074 0.47584 0.0
C301 C 0.85536 0.60792 0.75881 0.0
H302 H 0.87881 0.71663 0.40419 0.0
H303 H 0.81834 0.70805 0.65262 0.0
H304 H 0.85216 0.50144 0.65934 0.0
H305 H 0.92663 0.51689 0.54909 0.0
C306 C 0.60808 0.18173 0.14094 0.0
N307 N 0.5517 0.16292 0.36916 0.0
C308 C 0.53647 0.17981 0.31891 0.0
C309 C 0.51313 0.17307 0.27871 0.0
C310 C 0.50547 0.14847 0.28639 0.0
C311 C 0.52114 0.1318 0.34537 0.0
C312 C 0.54405 0.1395 0.38738 0.0
Zn313 Zn 0.58857 0.17088 0.3833 0.0
C314 C 0.61904 0.12555 0.32708 0.0
N315 N 0.66557 0.18388 0.38813 0.0
C316 C 0.67495 0.20209 0.3181 0.0
C317 C 0.68042 0.1688 0.45302 0.0
C318 C 0.70579 0.17106 0.44503 0.0
C319 C 0.71605 0.18891 0.36892 0.0
C320 C 0.70027 0.20495 0.30714 0.0
Zn321 Zn 0.62882 0.17692 0.38556 0.0
O322 O 0.58819 0.17958 0.19896 0.0
C323 C 0.60049 0.22245 0.44854 0.0
O324 O 0.62823 0.18205 0.19806 0.0
H325 H 0.6726 0.15446 0.50822 0.0
H326 H 0.54288 0.19828 0.30377 0.0
H327 H 0.66279 0.21387 0.26725 0.0
O328 O 0.58174 0.20865 0.43785 0.0
O329 O 0.62139 0.21399 0.41999 0.0
H330 H 0.55629 0.12626 0.42778 0.0
O331 O 0.62856 0.17154 0.57113 0.0
O332 O 0.58935 0.16229 0.56922 0.0
O333 O 0.63642 0.13981 0.35469 0.0
O334 O 0.59715 0.13352 0.33015 0.0
C335 C 0.60912 0.16598 0.6276 0.0
H336 H 0.50162 0.18699 0.23846 0.0
H337 H 0.5165 0.11264 0.35376 0.0
H338 H 0.71726 0.1586 0.49609 0.0
H339 H 0.70737 0.21886 0.24687 0.0
C340 C 0.1666 0.4301 0.27205 0.0
N341 N 0.18396 0.37323 0.51006 0.0
C342 C 0.1688 0.35874 0.44383 0.0
C343 C 0.17101 0.33333 0.44907 0.0
C344 C 0.18887 0.32265 0.52399 0.0
C345 C 0.20492 0.33808 0.5876 0.0
C346 C 0.20213 0.36345 0.57919 0.0
Zn347 Zn 0.17741 0.41002 0.51461 0.0
C348 C 0.22313 0.43808 0.4527 0.0
N349 N 0.16393 0.48709 0.53154 0.0
C350 C 0.14183 0.49619 0.49624 0.0
C351 C 0.17956 0.50079 0.59924 0.0
C352 C 0.17268 0.524 0.63962 0.0
C353 C 0.14952 0.53353 0.60946 0.0
C354 C 0.13427 0.51948 0.53401 0.0
Zn355 Zn 0.17136 0.45026 0.51583 0.0
O356 O 0.1719 0.41065 0.32918 0.0
C357 C 0.12584 0.42037 0.57083 0.0
O358 O 0.16318 0.44998 0.32969 0.0
H359 H 0.19684 0.4931 0.62831 0.0
H360 H 0.15449 0.36687 0.38938 0.0
H361 H 0.12952 0.48492 0.44362 0.0
O362 O 0.14021 0.40289 0.54578 0.0
O363 O 0.13376 0.44228 0.56598 0.0
H364 H 0.21399 0.37532 0.63106 0.0
O365 O 0.17962 0.45003 0.70048 0.0
O366 O 0.18267 0.41007 0.70209 0.0
O367 O 0.20937 0.45685 0.46403 0.0
O368 O 0.21456 0.41714 0.47991 0.0
C369 C 0.18205 0.43022 0.75884 0.0
H370 H 0.15854 0.32217 0.39662 0.0
H371 H 0.21882 0.33066 0.64713 0.0
H372 H 0.18503 0.53381 0.69886 0.0
H373 H 0.11645 0.52615 0.5064 0.0
C374 C 0.42996 0.8566 0.13754 0.0
N375 N 0.48653 0.87522 0.36615 0.0
C376 C 0.50173 0.85839 0.31554 0.0
C377 C 0.5251 0.86515 0.27596 0.0
C378 C 0.53283 0.88972 0.28461 0.0
C379 C 0.51717 0.90632 0.34383 0.0
C380 C 0.49423 0.8986 0.3852 0.0
Zn381 Zn 0.44959 0.86732 0.37993 0.0
C382 C 0.41929 0.91272 0.32404 0.0
N383 N 0.37231 0.8547 0.3842 0.0
C384 C 0.36262 0.83674 0.31363 0.0
C385 C 0.35768 0.86993 0.44917 0.0
C386 C 0.33226 0.8681 0.44078 0.0
C387 C 0.32169 0.85051 0.36422 0.0
C388 C 0.33723 0.8343 0.30231 0.0
Zn389 Zn 0.40923 0.86134 0.38191 0.0
O390 O 0.44985 0.85879 0.19572 0.0
C391 C 0.43755 0.81571 0.44448 0.0
O392 O 0.40981 0.85622 0.19442 0.0
H393 H 0.36572 0.88409 0.5047 0.0
H394 H 0.49529 0.83995 0.29975 0.0
H395 H 0.37458 0.82484 0.26258 0.0
O396 O 0.45629 0.82949 0.43354 0.0
O397 O 0.41658 0.82421 0.41662 0.0
H398 H 0.48202 0.9118 0.42587 0.0
O399 O 0.40958 0.86671 0.56736 0.0
O400 O 0.44885 0.87573 0.56593 0.0
O401 O 0.40184 0.89848 0.35087 0.0
O402 O 0.44115 0.9047 0.32752 0.0
C403 C 0.42905 0.87216 0.62403 0.0
H404 H 0.53659 0.85127 0.23552 0.0
H405 H 0.52184 0.92546 0.35298 0.0
H406 H 0.32101 0.88068 0.49201 0.0
H407 H 0.32991 0.82057 0.24168 0.0
C408 C 0.87181 0.9283 0.872 0.0
N409 N 0.85419 0.87164 0.63264 0.0
C410 C 0.86936 0.85693 0.69788 0.0
C411 C 0.8673 0.83152 0.69027 0.0
C412 C 0.84956 0.82105 0.6141 0.0
C413 C 0.83346 0.83668 0.55172 0.0
C414 C 0.83611 0.86205 0.56237 0.0
Zn415 Zn 0.86089 0.90852 0.63006 0.0
C416 C 0.8153 0.93688 0.69215 0.0
N417 N 0.87462 0.98582 0.61374 0.0
C418 C 0.89802 0.99368 0.63075 0.0
C419 C 0.8574 1.00104 0.56621 0.0
C420 C 0.8637 0.02464 0.52822 0.0
C421 C 0.88821 0.03261 0.53501 0.0
C422 C 0.90528 1.01686 0.59059 0.0
Zn423 Zn 0.86695 0.94885 0.6275 0.0
O424 O 0.86639 0.90881 0.81551 0.0
C425 C 0.91237 0.91857 0.5719 0.0
O426 O 0.87534 0.9481 0.81367 0.0
H427 H 0.83895 0.99449 0.5519 0.0
H428 H 0.88361 0.86489 0.75318 0.0
H429 H 0.91154 0.98149 0.66913 0.0
O430 O 0.8981 0.90113 0.5986 0.0
O431 O 0.90437 0.94045 0.57557 0.0
H432 H 0.82426 0.87407 0.51116 0.0
O433 O 0.85844 0.94916 0.44323 0.0
O434 O 0.85565 0.90913 0.44247 0.0
O435 O 0.82915 0.95554 0.68044 0.0
O436 O 0.82369 0.91584 0.66523 0.0
C437 C 0.85614 0.92927 0.3853 0.0
H438 H 0.87981 0.8202 0.74185 0.0
H439 H 0.81963 0.82945 0.49132 0.0
H440 H 0.84947 0.03615 0.49065 0.0
H441 H 0.92442 0.02167 0.59803 0.0
C442 C 0.92782 0.1825 0.521 0.0
N443 N 0.98476 0.16187 0.30187 0.0
C444 C 0.98865 0.14673 0.39816 0.0
C445 C 1.0121 0.13911 0.42938 0.0
C446 C 0.03222 0.14731 0.3628 0.0
C447 C 0.028 0.1631 0.26406 0.0
C448 C 1.00392 0.17009 0.23444 0.0
Zn449 Zn 0.94825 0.17144 0.27832 0.0
C450 C 0.91642 0.12646 0.32947 0.0
N451 N 0.87138 0.18587 0.26877 0.0
C452 C 0.8616 0.20374 0.33954 0.0
C453 C 0.85687 0.17104 0.20078 0.0
C454 C 0.83147 0.17305 0.20691 0.0
C455 C 0.8208 0.19035 0.28455 0.0
C456 C 0.8362 0.20631 0.34884 0.0
Zn457 Zn 0.90797 0.17817 0.27677 0.0
O458 O 0.94754 0.1798 0.46259 0.0
C459 C 0.9379 0.22333 0.21701 0.0
O460 O 0.90764 0.18339 0.46435 0.0
H461 H 0.86498 0.15692 0.14526 0.0
H462 H 0.97356 0.1408 0.45381 0.0
H463 H 0.87348 0.21532 0.3929 0.0
O464 O 0.95643 0.20924 0.22959 0.0
O465 O 0.91669 0.21511 0.24228 0.0
H466 H 1.00061 0.18227 0.15901 0.0
O467 O 0.9091 0.17264 0.09155 0.0
O468 O 0.9484 0.16359 0.09198 0.0
O469 O 0.89917 0.14127 0.30736 0.0
O470 O 0.93841 0.13397 0.32314 0.0
C471 C 0.9285 0.16722 0.03443 0.0
H472 H 1.01448 0.12745 0.50783 0.0
H473 H 0.04312 0.16993 0.21055 0.0
H474 H 0.8203 0.16069 0.15385 0.0
H475 H 0.82877 0.21983 0.41023 0.0
C476 C 0.16782 0.11056 0.85511 0.0
N477 N 0.18669 0.16696 0.61567 0.0
C478 C 0.17129 0.1813 0.68124 0.0
C479 C 0.17297 0.20671 0.67477 0.0
C480 C 0.1905 0.21758 0.59908 0.0
C481 C 0.20692 0.20235 0.53665 0.0
C482 C 0.20468 0.17693 0.54635 0.0
Zn483 Zn 0.17979 0.13022 0.61106 0.0
C484 C 0.22437 0.10137 0.67959 0.0
N485 N 0.16406 0.05328 0.59873 0.0
C486 C 0.14062 0.04578 0.61806 0.0
C487 C 0.18082 0.03781 0.54947 0.0
C488 C 0.17395 1.01434 0.51202 0.0
C489 C 0.14935 1.00675 0.52136 0.0
C490 C 0.1328 0.02273 0.57874 0.0
Zn491 Zn 0.1724 0.0901 0.61265 0.0
O492 O 0.17323 0.12991 0.79729 0.0
C493 C 0.12809 0.12128 0.54969 0.0
O494 O 0.16425 0.09067 0.79798 0.0
H495 H 0.1993 0.04408 0.53352 0.0
H496 H 0.15706 0.17305 0.73547 0.0
H497 H 0.12749 0.05818 0.65779 0.0
O498 O 0.14323 0.13824 0.57144 0.0
O499 O 0.13494 0.09914 0.56243 0.0
H500 H 0.2167 0.16517 0.49485 0.0
O501 O 0.18064 0.08989 0.42732 0.0
O502 O 0.18616 0.12963 0.4248 0.0
O503 O 0.21035 0.08286 0.66582 0.0
O504 O 0.21636 0.12251 0.65197 0.0
C505 C 0.18435 0.10948 0.3685 0.0
H506 H 0.16025 0.21773 0.72645 0.0
H507 H 0.22063 0.20994 0.47675 0.0
H508 H 0.18779 1.00261 0.47288 0.0
H509 H 0.11364 1.01817 0.58821 0.0
C510 C 0.10851 0.8571 0.5068 0.0
N511 N 0.05195 0.8759 0.27847 0.0
C512 C 0.03677 0.85886 0.32762 0.0
C513 C 1.01334 0.86541 0.36715 0.0
C514 C 1.0055 0.88997 0.36006 0.0
C515 C 0.02115 0.90682 0.30251 0.0
C516 C 0.04416 0.89932 0.26108 0.0
Zn517 Zn 0.08889 0.86796 0.26427 0.0
C518 C 0.11944 0.91321 0.31893 0.0
N519 N 0.1661 0.85479 0.25995 0.0
C520 C 0.17579 0.83685 0.33088 0.0
C521 C 0.18075 0.86996 0.19461 0.0
C522 C 0.20616 0.86808 0.20302 0.0
C523 C 0.21672 0.85052 0.28001 0.0
C524 C 0.20118 0.83437 0.34224 0.0
Zn525 Zn 0.1292 0.8616 0.26245 0.0
O526 O 0.08865 0.8595 0.44857 0.0
C527 C 0.10064 0.81617 0.20044 0.0
O528 O 0.12867 0.85652 0.44998 0.0
H529 H 0.17272 0.88411 0.13882 0.0
H530 H 0.04327 0.8404 0.34226 0.0
H531 H 0.16382 0.82501 0.38224 0.0
O532 O 0.08202 0.83013 0.21126 0.0
O533 O 0.12168 0.82447 0.22821 0.0
H534 H 0.05633 0.9127 0.22158 0.0
O535 O 0.12881 0.86694 0.07697 0.0
O536 O 0.0896 0.8763 0.07819 0.0
O537 O 0.13675 0.89874 0.29281 0.0
O538 O 0.0975 0.9054 0.31575 0.0
C539 C 0.10938 0.87255 0.0202 0.0
H540 H 1.00188 0.85135 0.40627 0.0
H541 H 1.01638 0.92597 0.29465 0.0
H542 H 0.21742 0.88062 0.15153 0.0
H543 H 0.20849 0.82067 0.40319 0.0
C544 C 0.4265 0.94711 0.17878 0.0
C545 C 0.4136 0.93744 0.27744 0.0
H546 H 0.42861 0.9751 0.04438 0.0
C547 C 0.39339 0.95035 0.32253 0.0
H548 H 0.44187 0.93723 0.14072 0.0
C549 C 0.38613 0.97247 0.26993 0.0
C550 C 0.39836 0.98193 0.16779 0.0
H551 H 0.38311 0.94326 0.39861 0.0
H552 H 0.37088 0.9821 0.31026 0.0
C553 C 0.41881 0.96891 0.12359 0.0
C554 C 0.9547 0.60998 0.64367 0.0
C555 C 0.93597 0.62723 0.62495 0.0
H556 H 0.99144 0.60354 0.70457 0.0
C557 C 0.94018 0.65168 0.65906 0.0
H558 H 0.95202 0.59099 0.61897 0.0
C559 C 0.96242 0.65876 0.71046 0.0
C560 C 0.98137 0.64171 0.72806 0.0
H561 H 0.9261 0.66547 0.64792 0.0
H562 H 0.9646 0.67768 0.7375 0.0
C563 C 0.9772 0.61717 0.6941 0.0
C564 C 0.65246 0.06595 0.27238 0.0
C565 C 0.64019 0.05646 0.17031 0.0
H566 H 0.65544 0.09512 0.40116 0.0
C567 C 0.61967 0.06944 0.1262 0.0
H568 H 0.66777 0.05638 0.31266 0.0
C569 C 0.61191 0.09119 0.18148 0.0
C570 C 0.62483 0.10088 0.28017 0.0
H571 H 0.60983 0.06324 0.04702 0.0
H572 H 0.59648 0.10101 0.14348 0.0
C573 C 0.64513 0.08803 0.32508 0.0
C574 C 0.06638 0.38686 0.62677 0.0
C575 C 0.057 0.39903 0.72923 0.0
H576 H 0.0954 0.38403 0.4971 0.0
C577 C 0.0699 0.41963 0.77262 0.0
H578 H 0.05686 0.37149 0.58697 0.0
C579 C 0.09152 0.42751 0.7165 0.0
C580 C 0.10114 0.41465 0.61762 0.0
H581 H 0.06377 0.42941 0.85201 0.0
H582 H 0.10133 0.44297 0.75417 0.0
C583 C 0.08833 0.39431 0.57323 0.0
C584 C 0.38023 0.57515 -0.03449 0.0
C585 C 0.39743 0.5563 -0.01794 0.0
H586 H 0.37317 0.6115 0.90467 0.0
C587 C 0.42192 0.56073 -0.05212 0.0
H588 H 0.36135 0.57279 -0.0072 0.0
C589 C 0.4289 0.58338 0.89822 0.0
C590 C 0.41149 0.602 0.88058 0.0
H591 H 0.43567 0.54659 -0.04238 0.0
H592 H 0.44785 0.58626 0.87337 0.0
C593 C 0.38709 0.59752 0.91494 0.0
C594 C 0.5843 0.6122 -0.00315 0.0
C595 C 0.60285 0.62972 0.01282 0.0
H596 H 0.54751 0.6051 0.93925 0.0
C597 C 0.59818 0.65405 -0.02208 0.0
H598 H 0.58734 0.59328 0.02215 0.0
C599 C 0.57566 0.66072 0.92801 0.0
C600 C 0.55694 0.64334 0.91268 0.0
H601 H 0.61212 0.66802 -0.01286 0.0
H602 H 0.57308 0.67955 0.90013 0.0
C603 C 0.56156 0.61895 -0.05215 0.0
C604 C 0.65771 0.46314 -0.02246 0.0
C605 C 0.63987 0.48143 -0.00976 0.0
H606 H 0.6659 0.42672 0.92012 0.0
C607 C 0.6156 0.47616 -0.04437 0.0
H608 H 0.6766 0.4667 0.00175 0.0
C609 C 0.60938 0.45319 0.90831 0.0
C610 C 0.62737 0.43507 0.89335 0.0
H611 H 0.6014 0.48987 -0.03513 0.0
H612 H 0.59055 0.4497 0.88285 0.0
C613 C 0.65158 0.44031 0.92917 0.0
C614 C 0.45558 0.42796 0.00253 0.0
C615 C 0.43684 0.41069 0.01957 0.0
H616 H 0.49252 0.43443 0.94513 0.0
C617 C 0.44126 0.38623 -0.01378 0.0
H618 H 0.45275 0.44697 0.02665 0.0
C619 C 0.4637 0.37915 0.9373 0.0
C620 C 0.48266 0.39622 0.9214 0.0
H621 H 0.42719 0.37241 -0.00387 0.0
H622 H 0.46604 0.36022 0.91082 0.0
C623 C 0.47829 0.42078 -0.04554 0.0
C624 C 0.92764 0.44754 0.68525 0.0
C625 C 0.9145 0.43764 0.78262 0.0
H626 H 0.92993 0.47569 0.55156 0.0
C627 C 0.89398 0.45032 0.826 0.0
H628 H 0.94326 0.43788 0.64842 0.0
C629 C 0.88666 0.47241 0.77307 0.0
C630 C 0.89915 0.48211 0.67222 0.0
H631 H 0.88351 0.44308 0.90106 0.0
H632 H 0.87116 0.48182 0.8122 0.0
C633 C 0.9199 0.46932 0.62973 0.0
C634 C 0.46909 0.11959 0.27198 0.0
C635 C 0.48204 0.14012 0.2282 0.0
H636 H 0.43756 0.09639 0.25406 0.0
C637 C 0.47257 0.15239 0.12601 0.0
H638 H 0.47529 0.10975 0.35123 0.0
C639 C 0.45051 0.14507 0.0729 0.0
C640 C 0.43769 0.12476 0.11751 0.0
H641 H 0.48213 0.16772 0.08599 0.0
H642 H 0.44342 0.15538 -0.00323 0.0
C643 C 0.44737 0.11183 0.21629 0.0
C644 C 0.15119 0.59871 0.72915 0.0
C645 C 0.12674 0.60286 0.76354 0.0
H646 H 0.17721 0.57445 0.65004 0.0
C647 C 0.10953 0.58413 0.74483 0.0
H648 H 0.16497 0.61279 0.74022 0.0
C649 C 0.11676 0.56169 0.69402 0.0
C650 C 0.14131 0.5576 0.65969 0.0
H651 H 0.09054 0.58677 0.76967 0.0
H652 H 0.10317 0.54744 0.68343 0.0
C653 C 0.15831 0.57655 0.67739 0.0
C654 C 0.58802 0.89329 0.07313 0.0
C655 C 0.60083 0.91356 0.11839 0.0
H656 H 0.55639 0.87065 0.08478 0.0
C657 C 0.59105 0.92641 0.21695 0.0
H658 H 0.59518 0.88303 -0.00284 0.0
C659 C 0.56926 0.91862 0.27176 0.0
C660 C 0.55633 0.89812 0.22732 0.0
H661 H 0.60083 0.94182 0.25523 0.0
H662 H 0.563 0.9284 0.35088 0.0
C663 C 0.56591 0.88593 0.12535 0.0
C664 C 0.8831 0.06668 0.38119 0.0
C665 C 0.89604 0.05652 0.47981 0.0
H666 H 0.87929 0.0967 0.25734 0.0
C667 C 0.91675 0.06928 0.52295 0.0
H668 H 0.86758 0.05735 0.34165 0.0
C669 C 0.92413 0.09136 0.46974 0.0
C670 C 0.91062 0.10165 0.37442 0.0
H671 H 0.92708 0.06264 0.59975 0.0
H672 H 0.93981 0.10093 0.50674 0.0
C673 C 0.89004 0.08913 0.33082 0.0
C674 C 0.08539 0.10967 0.48546 0.0
C675 C 0.10352 0.1276 0.50102 0.0
H676 H 0.04873 0.10179 0.4279 0.0
C677 C 0.0984 0.1518 0.46455 0.0
H678 H 0.0888 0.09085 0.51136 0.0
C679 C 0.07563 0.15799 0.41518 0.0
C680 C 0.05731 0.14021 0.40225 0.0
H681 H 0.11203 0.16607 0.47396 0.0
H682 H 0.07213 0.17686 0.39057 0.0
C683 C 0.06249 0.11594 0.43726 0.0
C684 C 0.11255 0.94831 0.4605 0.0
C685 C 0.12536 0.93806 0.36302 0.0
H686 H 0.11064 0.97699 0.59123 0.0
C687 C 0.14564 0.95061 0.31625 0.0
H688 H 0.09712 0.93874 0.49984 0.0
C689 C 0.15304 0.97294 0.36591 0.0
C690 C 0.14089 0.98302 0.46679 0.0
H691 H 0.15585 0.94308 0.24099 0.0
H692 H 0.16833 0.98225 0.3242 0.0
C693 C 0.12039 0.97034 0.51281 0.0
C694 C 0.96888 0.91863 0.37368 0.0
C695 C 0.98187 0.89806 0.41714 0.0
H696 H 0.93717 0.94164 0.3908 0.0
C697 C 0.97222 0.88549 0.51787 0.0
H698 H 0.9752 0.9287 0.29551 0.0
C699 C 0.94998 0.89256 0.56981 0.0
C700 C 0.93713 0.91292 0.52556 0.0
H701 H 0.98177 0.87012 0.5577 0.0
H702 H 0.94278 0.88204 0.64486 0.0
C703 C 0.94697 0.92614 0.42827 0.0
C704 C 0.3716 0.25617 0.05749 0.0
C705 C 0.34957 0.24304 0.04804 0.0
H706 H 0.38879 0.29086 0.08259 0.0
C707 C 0.3273 0.25573 0.06041 0.0
H708 H 0.3891 0.24695 0.05047 0.0
C709 C 0.32713 0.28102 0.08113 0.0
C710 C 0.34923 0.2941 0.09043 0.0
H711 H 0.31 0.24618 0.05298 0.0
H712 H 0.30971 0.29028 0.09089 0.0
C713 C 0.37143 0.28134 0.07799 0.0
C714 C 0.2815 0.7123 0.8119 0.0
C715 C 0.29434 0.69005 0.80258 0.0
H716 H 0.24682 0.72982 0.83869 0.0
C717 C 0.28131 0.66799 0.81321 0.0
H718 H 0.29098 0.72961 0.80342 0.0
C719 C 0.25609 0.6681 0.83192 0.0
C720 C 0.24321 0.69028 0.84155 0.0
H721 H 0.29063 0.65051 0.80858 0.0
H722 H 0.24665 0.65071 0.83744 0.0
C723 C 0.25618 0.71241 0.83105 0.0
C724 C 0.71294 0.78299 0.05533 0.0
C725 C 0.69045 0.79541 0.04553 0.0
H726 H 0.73108 0.74858 0.08275 0.0
C727 C 0.66864 0.78198 0.05618 0.0
H728 H 0.73007 0.7928 0.04688 0.0
C729 C 0.66922 0.75679 0.07569 0.0
C730 C 0.69163 0.74431 0.08588 0.0
H731 H 0.651 0.79098 0.05103 0.0
H732 H 0.652 0.74704 0.08148 0.0
C733 C 0.71352 0.75766 0.07494 0.0
C734 C 0.78377 0.32662 0.84499 0.0
C735 C 0.79632 0.34898 0.85642 0.0
H736 H 0.7493 0.30877 0.81641 0.0
C737 C 0.78298 0.37091 0.84743 0.0
H738 H 0.79348 0.30939 0.85214 0.0
C739 C 0.75777 0.37055 0.82824 0.0
C740 C 0.74516 0.34825 0.81663 0.0
H741 H 0.79207 0.38848 0.85376 0.0
H742 H 0.7481 0.38785 0.82393 0.0
C743 C 0.75844 0.32626 0.82555 0.0
C744 C 0.87063 0.75572 0.56351 0.0
C745 C 0.84838 0.74302 0.55188 0.0
H746 H 0.88842 0.79006 0.59043 0.0
C747 C 0.82634 0.75616 0.56246 0.0
H748 H 0.88797 0.74616 0.55796 0.0
C749 C 0.8266 0.78145 0.58323 0.0
C750 C 0.84891 0.79411 0.59451 0.0
H751 H 0.80888 0.74695 0.55343 0.0
H752 H 0.80933 0.79105 0.59143 0.0
C753 C 0.8709 0.7809 0.58418 0.0
C754 C 0.78077 0.2124 0.31723 0.0
C755 C 0.7939 0.1904 0.30472 0.0
H756 H 0.74588 0.22926 0.34826 0.0
C757 C 0.78125 0.1681 0.31467 0.0
H758 H 0.78998 0.22989 0.30957 0.0
C759 C 0.75611 0.16774 0.3359 0.0
C760 C 0.74292 0.18968 0.34842 0.0
H761 H 0.79083 0.1508 0.3076 0.0
H762 H 0.74696 0.15019 0.34105 0.0
C763 C 0.75551 0.21205 0.33848 0.0
C764 C 0.16775 0.28236 0.55061 0.0
C765 C 0.18967 0.29567 0.54116 0.0
H766 H 0.15087 0.24749 0.57421 0.0
C767 C 0.21206 0.28309 0.5512 0.0
H768 H 0.15017 0.29147 0.54529 0.0
C769 C 0.21246 0.25774 0.57011 0.0
C770 C 0.19048 0.24451 0.5799 0.0
H771 H 0.22927 0.29279 0.54359 0.0
H772 H 0.22996 0.24857 0.57841 0.0
C773 C 0.16815 0.25713 0.56927 0.0
C774 C 0.28186 0.82797 0.33292 0.0
C775 C 0.29476 0.85015 0.34378 0.0
H776 H 0.24715 0.81061 0.3034 0.0
C777 C 0.28179 0.87226 0.33246 0.0
H778 H 0.29127 0.81061 0.34179 0.0
C779 C 0.25661 0.87227 0.31142 0.0
C780 C 0.24365 0.85015 0.30054 0.0
H781 H 0.29116 0.88969 0.33837 0.0
H782 H 0.24724 0.8897 0.30514 0.0
C783 C 0.25656 0.82797 0.3119 0.0
C784 C 0.25962 0.07746 0.77588 0.0
C785 C 0.24823 0.0998 0.7453 0.0
H786 H 0.29015 0.05986 0.86471 0.0
C787 C 0.25882 0.12162 0.78791 0.0
H788 H 0.25181 0.06028 0.74601 0.0
C789 C 0.27996 0.12133 0.8582 0.0
C790 C 0.29181 0.09925 0.88728 0.0
H791 H 0.25057 0.13923 0.76864 0.0
H792 H 0.28729 0.13877 0.88759 0.0
C793 C 0.2814 0.07721 0.84513 0.0
C794 C 0.077 0.75934 0.03196 0.0
C795 C 0.09922 0.74815 -0.00206 0.0
H796 H 0.05973 0.78975 0.12294 0.0
C797 C 0.12122 0.75914 0.03576 0.0
H798 H 0.0597 0.75125 0.00578 0.0
C799 C 0.12123 0.78036 0.10522 0.0
C800 C 0.09925 0.79192 0.13824 0.0
H801 H 0.13879 0.75113 0.01351 0.0
H802 H 0.13879 0.78796 0.13096 0.0
C803 C 0.07702 0.78121 0.10033 0.0
C804 C 0.75796 0.96095 0.85403 0.0
C805 C 0.74692 0.93887 0.89122 0.0
H806 H 0.78833 0.9779 0.76157 0.0
C807 C 0.75829 0.91673 0.8587 0.0
H808 H 0.74959 0.97834 0.87623 0.0
C809 C 0.77972 0.91647 0.7907 0.0
C810 C 0.79103 0.93834 0.75392 0.0
H811 H 0.75041 0.89927 0.88392 0.0
H812 H 0.78764 0.89884 0.76883 0.0
C813 C 0.77998 0.96069 0.7871 0.0
C814 C 0.96214 0.28022 0.05055 0.0
C815 C 0.94004 0.29176 0.01679 0.0
H816 H 0.97909 0.24944 0.14049 0.0
C817 C 0.91793 0.28099 0.05424 0.0
H818 H 0.97953 0.28813 0.02463 0.0
C819 C 0.91771 0.25963 0.12299 0.0
C820 C 0.93957 0.24771 0.15572 0.0
H821 H 0.90047 0.28928 0.03218 0.0
H822 H 0.90006 0.25221 0.14845 0.0
C823 C 0.9619 0.25823 0.11823 0.0
C824 C 0.28022 0.46099 0.28385 0.0
C825 C 0.29125 0.43862 0.25075 0.0
H826 H 0.24992 0.47865 0.3739 0.0
C827 C 0.28008 0.41678 0.28932 0.0
H828 H 0.28845 0.47818 0.25709 0.0
C829 C 0.25883 0.41706 0.35858 0.0
C830 C 0.24742 0.43919 0.39069 0.0
H831 H 0.28797 0.39912 0.2678 0.0
H832 H 0.25109 0.3996 0.38493 0.0
C833 C 0.25833 0.46126 0.35205 0.0
C834 C 0.46062 0.75872 0.61385 0.0
C835 C 0.43829 0.74766 0.64704 0.0
H836 H 0.47818 0.78903 0.52346 0.0
C837 C 0.4164 0.75878 0.60848 0.0
H838 H 0.47784 0.75052 0.64064 0.0
C839 C 0.4166 0.78002 0.53903 0.0
C840 C 0.4387 0.79145 0.50676 0.0
H841 H 0.39877 0.75085 0.63014 0.0
H842 H 0.39912 0.78774 0.51263 0.0
C843 C 0.46082 0.7806 0.54545 0.0
C844 C 0.76113 0.61979 0.25888 0.0
C845 C 0.74833 0.59801 0.2348 0.0
H846 H 0.79102 0.63731 0.34547 0.0
C847 C 0.75784 0.57595 0.28215 0.0
H848 H 0.75463 0.63725 0.22507 0.0
C849 C 0.77956 0.57596 0.35229 0.0
C850 C 0.79172 0.5981 0.37874 0.0
H851 H 0.74838 0.55883 0.26652 0.0
H852 H 0.78664 0.55879 0.38671 0.0
C853 C 0.78212 0.61987 0.33009 0.0
C854 C 0.57753 0.25713 0.55421 0.0
C855 C 0.59948 0.24661 0.51167 0.0
H856 H 0.56085 0.28672 0.65405 0.0
C857 C 0.62167 0.2582 0.54126 0.0
H858 H 0.56011 0.24857 0.53433 0.0
C859 C 0.62213 0.27922 0.6122 0.0
C860 C 0.6004 0.28995 0.65496 0.0
H861 H 0.63904 0.25077 0.51169 0.0
H862 H 0.63981 0.28728 0.63172 0.0
C863 C 0.57797 0.27879 0.62409 0.0
C864 C 0.36444 0.08617 0.45096 0.0
C865 C 0.35936 0.10806 0.38886 0.0
H866 H 0.37334 0.06936 0.62008 0.0
C867 C 0.35982 0.1303 0.45222 0.0
H868 H 0.36457 0.06876 0.40416 0.0
C869 C 0.36528 0.13067 0.57513 0.0
C870 C 0.37031 0.1088 0.63741 0.0
H871 H 0.35631 0.14751 0.40663 0.0
H872 H 0.3652 0.14812 0.62162 0.0
C873 C 0.36991 0.08654 0.57414 0.0
C874 C 0.08671 0.67523 0.4328 0.0
C875 C 0.10857 0.68101 0.49366 0.0
H876 H 0.0698 0.6657 0.26497 0.0
C877 C 0.13067 0.68123 0.42916 0.0
H878 H 0.06941 0.67461 0.48044 0.0
C879 C 0.13093 0.67572 0.3063 0.0
C880 C 0.10909 0.66994 0.24535 0.0
H881 H 0.14785 0.68527 0.47384 0.0
H882 H 0.14825 0.67632 0.25882 0.0
C883 C 0.08698 0.66971 0.30981 0.0
C884 C 0.67428 0.95218 0.4532 0.0
C885 C 0.67926 0.93026 0.39143 0.0
H886 H 0.66546 0.96907 0.62201 0.0
C887 C 0.6787 0.90803 0.45504 0.0
H888 H 0.67423 0.96959 0.40621 0.0
C889 C 0.67324 0.90771 0.57788 0.0
C890 C 0.66831 0.92961 0.63984 0.0
H891 H 0.68212 0.8908 0.4097 0.0
H892 H 0.67324 0.89027 0.62459 0.0
C893 C 0.66881 0.95186 0.57632 0.0
C894 C 0.9529 0.36974 0.32735 0.0
C895 C 0.93065 0.3703 0.26379 0.0
H896 H 0.97065 0.36417 0.49745 0.0
C897 C 0.90875 0.36534 0.32574 0.0
H898 H 0.9701 0.3731 0.2817 0.0
C899 C 0.90909 0.35979 0.44856 0.0
C900 C 0.93132 0.35915 0.51221 0.0
H901 H 0.89131 0.36538 0.27902 0.0
H902 H 0.89186 0.35634 0.49387 0.0
C903 C 0.95324 0.36417 0.45045 0.0
C904 C 0.36361 0.40646 0.55935 0.0
C905 C 0.36945 0.42829 0.49848 0.0
H906 H 0.35402 0.38957 0.72685 0.0
C907 C 0.36976 0.45039 0.56301 0.0
H908 H 0.36295 0.38914 0.51182 0.0
C909 C 0.36425 0.45067 0.68599 0.0
C910 C 0.35841 0.42884 0.74679 0.0
H911 H 0.37381 0.46756 0.51823 0.0
H912 H 0.36493 0.46798 0.73368 0.0
C913 C 0.35811 0.40674 0.68221 0.0
C914 C 0.45085 0.67473 0.21204 0.0
C915 C 0.42898 0.68046 0.1511 0.0
H916 H 0.46779 0.66525 0.37997 0.0
C917 C 0.40688 0.68067 0.21559 0.0
H918 H 0.46816 0.67412 0.16442 0.0
C919 C 0.40663 0.67517 0.33851 0.0
C920 C 0.42849 0.66943 0.39952 0.0
H921 H 0.38969 0.68467 0.17084 0.0
H922 H 0.38931 0.67576 0.38597 0.0
C923 C 0.4506 0.66923 0.33508 0.0
C924 C 0.67536 0.58811 0.67621 0.0
C925 C 0.6811 0.61008 0.73604 0.0
H926 H 0.66601 0.57089 0.50899 0.0
C927 C 0.68138 0.63206 0.6704 0.0
H928 H 0.67468 0.5709 0.72477 0.0
C929 C 0.67597 0.63209 0.54738 0.0
C930 C 0.67026 0.61013 0.48744 0.0
H931 H 0.68537 0.64933 0.71429 0.0
H932 H 0.6766 0.64933 0.499 0.0
C933 C 0.66997 0.58814 0.55304 0.0
C934 C 0.58868 0.36798 0.34614 0.0
C935 C 0.61081 0.36788 0.41082 0.0
H936 H 0.57108 0.36288 0.17548 0.0
C937 C 0.63265 0.36211 0.35012 0.0
H938 H 0.57149 0.37198 0.39073 0.0
C939 C 0.63238 0.35647 0.22735 0.0
C940 C 0.61026 0.35657 0.16263 0.0
H941 H 0.64999 0.36159 0.39775 0.0
H942 H 0.64957 0.35245 0.18287 0.0
C943 C 0.5884 0.36234 0.22325 0.0
C944 C 0.85733 0.63004 -0.04452 0.0
C945 C 0.85788 0.60788 0.89138 0.0
H946 H 0.86215 0.64791 0.12528 0.0
C947 C 0.86418 0.58622 -0.04732 0.0
H948 H 0.85288 0.6471 0.91055 0.0
C949 C 0.8699 0.58673 0.07561 0.0
C950 C 0.86935 0.6089 0.13963 0.0
H951 H 0.8651 0.56888 0.90541 0.0
H952 H 0.87431 0.56968 0.12075 0.0
C953 C 0.86304 0.63055 0.07823 0.0
C954 C 0.63069 0.17329 0.82243 0.0
C955 C 0.60884 0.1682 0.76013 0.0
H956 H 0.6475 0.18234 -0.00918 0.0
C957 C 0.58657 0.16862 0.8233 0.0
H958 H 0.64815 0.17337 0.77602 0.0
C959 C 0.58618 0.17414 0.94638 0.0
C960 C 0.60806 0.17927 0.0085 0.0
H961 H 0.5694 0.16515 0.77735 0.0
H962 H 0.56876 0.17402 -0.0069 0.0
C963 C 0.6303 0.1788 0.94523 0.0
C964 C 0.17337 0.40812 0.07817 0.0
C965 C 0.16875 0.43016 0.13959 0.0
H966 H 0.18196 0.39092 0.9103 0.0
C967 C 0.16953 0.45233 0.07555 0.0
H968 H 0.17314 0.39073 0.12533 0.0
C969 C 0.17497 0.45245 -0.04755 0.0
C970 C 0.17964 0.43039 0.89119 0.0
H971 H 0.16643 0.46963 0.12083 0.0
H972 H 0.17516 0.46981 0.90507 0.0
C973 C 0.17879 0.40824 -0.04471 0.0
C974 C 0.45191 0.864 0.94326 0.0
C975 C 0.42999 0.85903 0.00511 0.0
H976 H 0.46876 0.8728 0.77435 0.0
C977 C 0.40775 0.85962 0.94151 0.0
H978 H 0.46932 0.86403 -0.00977 0.0
C979 C 0.40741 0.86507 0.8186 0.0
C980 C 0.4293 0.86998 0.75657 0.0
H981 H 0.39053 0.85621 -0.01309 0.0
H982 H 0.38996 0.86508 0.77192 0.0
C983 C 0.45156 0.86947 0.82008 0.0
C984 C 0.85919 0.90704 0.1896 0.0
C985 C 0.8586 0.92928 0.25289 0.0
H986 H 0.86469 0.88922 0.02034 0.0
C987 C 0.8636 0.95118 0.19081 0.0
H988 H 0.85575 0.88982 0.23519 0.0
C989 C 0.86911 0.95082 0.06774 0.0
C990 C 0.86962 0.92856 0.00452 0.0
H991 H 0.86363 0.9686 0.23754 0.0
H992 H 0.87247 0.96801 0.02183 0.0
C993 C 0.86468 0.90668 0.06679 0.0
C994 C 0.95044 0.17015 0.83738 0.0
C995 C 0.92838 0.16934 0.90196 0.0
H996 H 0.96763 0.17573 0.66634 0.0
C997 C 0.90622 0.17385 0.84098 0.0
H998 H 0.96781 0.16713 0.8823 0.0
C999 C 0.90612 0.17922 0.71799 0.0
C1000 C 0.92816 0.18011 0.65336 0.0
H1001 H 0.8889 0.17357 0.88856 0.0
H1002 H 0.88872 0.1823 0.67335 0.0
C1003 C 0.95034 0.17552 0.71416 0.0
C1004 C 0.17641 0.1321 0.049 0.0
C1005 C 0.17031 0.11041 -0.01229 0.0
H1006 H 0.18643 0.14871 0.21658 0.0
C1007 C 0.16999 0.08822 0.05185 0.0
H1008 H 0.17711 0.14948 0.00186 0.0
C1009 C 0.17573 0.08773 0.17475 0.0
C1010 C 0.18183 0.10944 0.23594 0.0
H1011 H 0.16574 0.07114 0.0068 0.0
H1012 H 0.17499 0.07038 0.22209 0.0
C1013 C 0.18214 0.13162 0.17173 0.0
C1014 C 0.08656 0.86456 0.70093 0.0
C1015 C 0.10847 0.8595 0.63921 0.0
H1016 H 0.06971 0.87341 0.86972 0.0
C1017 C 0.1307 0.85994 0.70291 0.0
H1018 H 0.06916 0.8647 0.65387 0.0
C1019 C 0.13103 0.86536 0.82581 0.0
C1020 C 0.10915 0.87038 0.8877 0.0
H1021 H 0.14792 0.85645 0.65761 0.0
H1022 H 0.14847 0.86527 0.87259 0.0
C1023 C 0.0869 0.87 0.82408 0.0
loop_
_geom_bond_atom_site_label_1
_geom_bond_atom_site_label_2
_geom_bond_distance
_geom_bond_site_symmetry_2
_ccdc_geom_bond_type
C0 O16 1.251 . S
C0 O18 1.254 . S
N1 C2 1.333 . S
N1 C6 1.307 . S
N1 Zn7 2.020 . S
C2 N1 1.333 . S
C2 C3 1.379 . S
C2 H20 0.952 1_554 S
C3 C2 1.379 . S
C3 C4 1.390 . S
C3 H30 0.949 1_554 S
C4 C3 1.390 . S
C4 C5 1.357 . S
C5 C4 1.357 . S
C5 C6 1.370 . S
C5 H31 0.950 . S
C6 N1 1.307 . S
C6 C5 1.370 . S
C6 H24 0.948 . S
Zn7 N1 2.020 . S
Zn7 O16 2.039 1_554 S
Zn7 O22 2.034 . S
Zn7 O26 2.025 . S
Zn7 O28 2.024 . S
C8 O27 1.246 . S
C8 O28 1.249 . S
N9 C10 1.307 . S
N9 C11 1.333 . S
N9 Zn15 2.020 . S
C10 N9 1.307 . S
C10 C14 1.370 1_545 S
C10 H21 0.948 1_554 S
C11 N9 1.333 . S
C11 C12 1.379 1_545 S
C11 H19 0.952 . S
C12 C11 1.379 1_565 S
C12 C13 1.390 . S
C12 H32 0.949 . S
C13 C12 1.390 . S
C13 C14 1.357 . S
C14 C10 1.370 1_565 S
C14 C13 1.357 . S
C14 H33 0.950 . S
Zn15 N9 2.020 . S
Zn15 O18 2.025 1_554 S
Zn15 O23 2.024 . S
Zn15 O25 2.039 . S
Zn15 O27 2.034 . S
O16 C0 1.251 . S
O16 Zn7 2.039 1_556 S
C17 O22 1.246 . S
C17 O23 1.249 . S
O18 C0 1.254 . S
O18 Zn15 2.025 1_556 S
H19 C11 0.952 . S
H20 C2 0.952 1_556 S
H21 C10 0.948 1_556 S
O22 Zn7 2.034 . S
O22 C17 1.246 . S
O23 Zn15 2.024 . S
O23 C17 1.249 . S
H24 C6 0.948 . S
O25 Zn15 2.039 . S
O25 C29 1.251 . S
O26 Zn7 2.025 . S
O26 C29 1.254 . S
O27 C8 1.246 . S
O27 Zn15 2.034 . S
O28 Zn7 2.024 . S
O28 C8 1.249 . S
C29 O25 1.251 . S
C29 O26 1.254 . S
H30 C3 0.949 1_556 S
H31 C5 0.950 . S
H32 C12 0.949 . S
H33 C14 0.950 . S
C34 O50 1.251 . S
C34 O52 1.254 . S
N35 C36 1.333 . S
N35 C40 1.307 . S
N35 Zn41 2.020 . S
C36 N35 1.333 . S
C36 C37 1.379 1_455 S
C36 H54 0.952 . S
C37 C36 1.379 1_655 S
C37 C38 1.390 . S
C37 H64 0.949 . S
C38 C37 1.390 . S
C38 C39 1.357 . S
C39 C38 1.357 . S
C39 C40 1.370 1_655 S
C39 H65 0.950 . S
C40 N35 1.307 . S
C40 C39 1.370 1_455 S
C40 H58 0.948 1_556 S
Zn41 N35 2.020 . S
Zn41 O50 2.039 . S
Zn41 O56 2.034 . S
Zn41 O60 2.025 1_556 S
Zn41 O62 2.024 . S
C42 O61 1.246 . S
C42 O62 1.249 . S
N43 C44 1.307 . S
N43 C45 1.333 . S
N43 Zn49 2.020 . S
C44 N43 1.307 . S
C44 C48 1.370 . S
C44 H55 0.948 . S
C45 N43 1.333 . S
C45 C46 1.379 . S
C45 H53 0.952 1_556 S
C46 C45 1.379 . S
C46 C47 1.390 . S
C46 H66 0.949 1_556 S
C47 C46 1.390 . S
C47 C48 1.357 . S
C48 C44 1.370 . S
C48 C47 1.357 . S
C48 H67 0.950 . S
Zn49 N43 2.020 . S
Zn49 O52 2.025 . S
Zn49 O57 2.024 . S
Zn49 O59 2.039 1_556 S
Zn49 O61 2.034 . S
O50 C34 1.251 . S
O50 Zn41 2.039 . S
C51 O56 1.246 . S
C51 O57 1.249 . S
O52 C34 1.254 . S
O52 Zn49 2.025 . S
H53 C45 0.952 1_554 S
H54 C36 0.952 . S
H55 C44 0.948 . S
O56 Zn41 2.034 . S
O56 C51 1.246 . S
O57 Zn49 2.024 . S
O57 C51 1.249 . S
H58 C40 0.948 1_554 S
O59 Zn49 2.039 1_554 S
O59 C63 1.251 . S
O60 Zn41 2.025 1_554 S
O60 C63 1.254 . S
O61 C42 1.246 . S
O61 Zn49 2.034 . S
O62 Zn41 2.024 . S
O62 C42 1.249 . S
C63 O59 1.251 . S
C63 O60 1.254 . S
H64 C37 0.949 . S
H65 C39 0.950 . S
H66 C46 0.949 1_554 S
H67 C48 0.950 . S
C68 O84 1.251 . S
C68 O86 1.254 . S
N69 C70 1.333 . S
N69 C74 1.307 . S
N69 Zn75 2.020 . S
C70 N69 1.333 . S
C70 C71 1.379 . S
C70 H88 0.952 1_554 S
C71 C70 1.379 . S
C71 C72 1.390 . S
C71 H98 0.949 1_554 S
C72 C71 1.390 . S
C72 C73 1.357 . S
C73 C72 1.357 . S
C73 C74 1.370 . S
C73 H99 0.950 . S
C74 N69 1.307 . S
C74 C73 1.370 . S
C74 H92 0.948 . S
Zn75 N69 2.020 . S
Zn75 O84 2.039 1_554 S
Zn75 O90 2.034 . S
Zn75 O94 2.025 . S
Zn75 O96 2.024 . S
C76 O95 1.246 . S
C76 O96 1.249 . S
N77 C78 1.307 . S
N77 C79 1.333 . S
N77 Zn83 2.020 . S
C78 N77 1.307 . S
C78 C82 1.370 1_565 S
C78 H89 0.948 1_554 S
C79 N77 1.333 . S
C79 C80 1.379 1_565 S
C79 H87 0.952 . S
C80 C79 1.379 1_545 S
C80 C81 1.390 . S
C80 H100 0.949 . S
C81 C80 1.390 . S
C81 C82 1.357 . S
C82 C78 1.370 1_545 S
C82 C81 1.357 . S
C82 H101 0.950 . S
Zn83 N77 2.020 . S
Zn83 O86 2.025 1_554 S
Zn83 O91 2.024 . S
Zn83 O93 2.039 . S
Zn83 O95 2.034 . S
O84 C68 1.251 . S
O84 Zn75 2.039 1_556 S
C85 O90 1.246 . S
C85 O91 1.249 . S
O86 C68 1.254 . S
O86 Zn83 2.025 1_556 S
H87 C79 0.952 . S
H88 C70 0.952 1_556 S
H89 C78 0.948 1_556 S
O90 Zn75 2.034 . S
O90 C85 1.246 . S
O91 Zn83 2.024 . S
O91 C85 1.249 . S
H92 C74 0.948 . S
O93 Zn83 2.039 . S
O93 C97 1.251 . S
O94 Zn75 2.025 . S
O94 C97 1.254 . S
O95 C76 1.246 . S
O95 Zn83 2.034 . S
O96 Zn75 2.024 . S
O96 C76 1.249 . S
C97 O93 1.251 . S
C97 O94 1.254 . S
H98 C71 0.949 1_556 S
H99 C73 0.950 . S
H100 C80 0.949 . S
H101 C82 0.950 . S
C102 O118 1.251 . S
C102 O120 1.254 . S
N103 C104 1.333 . S
N103 C108 1.307 . S
N103 Zn109 2.020 . S
C104 N103 1.333 . S
C104 C105 1.379 1_655 S
C104 H122 0.952 . S
C105 C104 1.379 1_455 S
C105 C106 1.390 . S
C105 H132 0.949 . S
C106 C105 1.390 . S
C106 C107 1.357 . S
C107 C106 1.357 . S
C107 C108 1.370 1_455 S
C107 H133 0.950 . S
C108 N103 1.307 . S
C108 C107 1.370 1_655 S
C108 H126 0.948 1_556 S
Zn109 N103 2.020 . S
Zn109 O118 2.039 . S
Zn109 O124 2.034 . S
Zn109 O128 2.025 1_556 S
Zn109 O130 2.024 . S
C110 O129 1.246 . S
C110 O130 1.249 . S
N111 C112 1.307 . S
N111 C113 1.333 . S
N111 Zn117 2.020 . S
C112 N111 1.307 . S
C112 C116 1.370 . S
C112 H123 0.948 . S
C113 N111 1.333 . S
C113 C114 1.379 . S
C113 H121 0.952 1_556 S
C114 C113 1.379 . S
C114 C115 1.390 . S
C114 H134 0.949 1_556 S
C115 C114 1.390 . S
C115 C116 1.357 . S
C116 C112 1.370 . S
C116 C115 1.357 . S
C116 H135 0.950 . S
Zn117 N111 2.020 . S
Zn117 O120 2.025 . S
Zn117 O125 2.024 . S
Zn117 O127 2.039 1_556 S
Zn117 O129 2.034 . S
O118 C102 1.251 . S
O118 Zn109 2.039 . S
C119 O124 1.246 . S
C119 O125 1.249 . S
O120 C102 1.254 . S
O120 Zn117 2.025 . S
H121 C113 0.952 1_554 S
H122 C104 0.952 . S
H123 C112 0.948 . S
O124 Zn109 2.034 . S
O124 C119 1.246 . S
O125 Zn117 2.024 . S
O125 C119 1.249 . S
H126 C108 0.948 1_554 S
O127 Zn117 2.039 1_554 S
O127 C131 1.251 . S
O128 Zn109 2.025 1_554 S
O128 C131 1.254 . S
O129 C110 1.246 . S
O129 Zn117 2.034 . S
O130 Zn109 2.024 . S
O130 C110 1.249 . S
C131 O127 1.251 . S
C131 O128 1.254 . S
H132 C105 0.949 . S
H133 C107 0.950 . S
H134 C114 0.949 1_554 S
H135 C116 0.950 . S
C136 O152 1.251 . S
C136 O154 1.254 . S
N137 C138 1.333 . S
N137 C142 1.307 . S
N137 Zn143 2.020 . S
C138 N137 1.333 . S
C138 C139 1.379 . S
C138 H156 0.952 . S
C139 C138 1.379 . S
C139 C140 1.390 . S
C139 H166 0.949 . S
C140 C139 1.390 . S
C140 C141 1.357 . S
C141 C140 1.357 . S
C141 C142 1.370 . S
C141 H167 0.950 1_554 S
C142 N137 1.307 . S
C142 C141 1.370 . S
C142 H160 0.948 1_554 S
Zn143 N137 2.020 . S
Zn143 O152 2.039 . S
Zn143 O158 2.034 . S
Zn143 O162 2.025 1_554 S
Zn143 O164 2.024 . S
C144 O163 1.246 . S
C144 O164 1.249 . S
N145 C146 1.307 . S
N145 C147 1.333 . S
N145 Zn151 2.020 . S
C146 N145 1.307 . S
C146 C150 1.370 . S
C146 H157 0.948 . S
C147 N145 1.333 . S
C147 C148 1.379 1_554 S
C147 H155 0.952 1_554 S
C148 C147 1.379 1_556 S
C148 C149 1.390 1_556 S
C148 H168 0.949 . S
C149 C148 1.390 1_554 S
C149 C150 1.357 . S
C150 C146 1.370 . S
C150 C149 1.357 . S
C150 H169 0.950 . S
Zn151 N145 2.020 . S
Zn151 O154 2.025 . S
Zn151 O159 2.024 . S
Zn151 O161 2.039 1_554 S
Zn151 O163 2.034 . S
O152 C136 1.251 . S
O152 Zn143 2.039 . S
C153 O158 1.246 . S
C153 O159 1.249 . S
O154 C136 1.254 . S
O154 Zn151 2.025 . S
H155 C147 0.952 1_556 S
H156 C138 0.952 . S
H157 C146 0.948 . S
O158 Zn143 2.034 . S
O158 C153 1.246 . S
O159 Zn151 2.024 . S
O159 C153 1.249 . S
H160 C142 0.948 1_556 S
O161 Zn151 2.039 1_556 S
O161 C165 1.251 . S
O162 Zn143 2.025 1_556 S
O162 C165 1.254 . S
O163 C144 1.246 . S
O163 Zn151 2.034 . S
O164 Zn143 2.024 . S
O164 C144 1.249 . S
C165 O161 1.251 . S
C165 O162 1.254 . S
H166 C139 0.949 . S
H167 C141 0.950 1_556 S
H168 C148 0.949 . S
H169 C150 0.950 . S
C170 O186 1.251 . S
C170 O188 1.254 . S
N171 C172 1.333 . S
N171 C176 1.307 . S
N171 Zn177 2.020 . S
C172 N171 1.333 . S
C172 C173 1.379 1_556 S
C172 H190 0.952 1_556 S
C173 C172 1.379 1_554 S
C173 C174 1.390 1_554 S
C173 H200 0.949 . S
C174 C173 1.390 1_556 S
C174 C175 1.357 . S
C175 C174 1.357 . S
C175 C176 1.370 . S
C175 H201 0.950 . S
C176 N171 1.307 . S
C176 C175 1.370 . S
C176 H194 0.948 . S
Zn177 N171 2.020 . S
Zn177 O186 2.039 1_556 S
Zn177 O192 2.034 . S
Zn177 O196 2.025 . S
Zn177 O198 2.024 . S
C178 O197 1.246 . S
C178 O198 1.249 . S
N179 C180 1.307 . S
N179 C181 1.333 . S
N179 Zn185 2.020 . S
C180 N179 1.307 . S
C180 C184 1.370 . S
C180 H191 0.948 1_556 S
C181 N179 1.333 . S
C181 C182 1.379 . S
C181 H189 0.952 . S
C182 C181 1.379 . S
C182 C183 1.390 . S
C182 H202 0.949 . S
C183 C182 1.390 . S
C183 C184 1.357 . S
C184 C180 1.370 . S
C184 C183 1.357 . S
C184 H203 0.950 1_556 S
Zn185 N179 2.020 . S
Zn185 O188 2.025 1_556 S
Zn185 O193 2.024 . S
Zn185 O195 2.039 . S
Zn185 O197 2.034 . S
O186 C170 1.251 . S
O186 Zn177 2.039 1_554 S
C187 O192 1.246 . S
C187 O193 1.249 . S
O188 C170 1.254 . S
O188 Zn185 2.025 1_554 S
H189 C181 0.952 . S
H190 C172 0.952 1_554 S
H191 C180 0.948 1_554 S
O192 Zn177 2.034 . S
O192 C187 1.246 . S
O193 Zn185 2.024 . S
O193 C187 1.249 . S
H194 C176 0.948 . S
O195 Zn185 2.039 . S
O195 C199 1.251 . S
O196 Zn177 2.025 . S
O196 C199 1.254 . S
O197 C178 1.246 . S
O197 Zn185 2.034 . S
O198 Zn177 2.024 . S
O198 C178 1.249 . S
C199 O195 1.251 . S
C199 O196 1.254 . S
H200 C173 0.949 . S
H201 C175 0.950 . S
H202 C182 0.949 . S
H203 C184 0.950 1_554 S
C204 O220 1.251 . S
C204 O222 1.254 . S
N205 C206 1.333 . S
N205 C210 1.307 . S
N205 Zn211 2.020 . S
C206 N205 1.333 . S
C206 C207 1.379 . S
C206 H224 0.952 . S
C207 C206 1.379 . S
C207 C208 1.390 . S
C207 H234 0.949 . S
C208 C207 1.390 . S
C208 C209 1.357 . S
C209 C208 1.357 . S
C209 C210 1.370 . S
C209 H235 0.950 1_554 S
C210 N205 1.307 . S
C210 C209 1.370 . S
C210 H228 0.948 1_554 S
Zn211 N205 2.020 . S
Zn211 O220 2.039 . S
Zn211 O226 2.034 . S
Zn211 O230 2.025 1_554 S
Zn211 O232 2.024 . S
C212 O231 1.246 . S
C212 O232 1.249 . S
N213 C214 1.307 . S
N213 C215 1.333 . S
N213 Zn219 2.020 . S
C214 N213 1.307 . S
C214 C218 1.370 . S
C214 H225 0.948 . S
C215 N213 1.333 . S
C215 C216 1.379 1_554 S
C215 H223 0.952 1_554 S
C216 C215 1.379 1_556 S
C216 C217 1.390 1_556 S
C216 H236 0.949 . S
C217 C216 1.390 1_554 S
C217 C218 1.357 . S
C218 C214 1.370 . S
C218 C217 1.357 . S
C218 H237 0.950 . S
Zn219 N213 2.020 . S
Zn219 O222 2.025 . S
Zn219 O227 2.024 . S
Zn219 O229 2.039 1_554 S
Zn219 O231 2.034 . S
O220 C204 1.251 . S
O220 Zn211 2.039 . S
C221 O226 1.246 . S
C221 O227 1.249 . S
O222 C204 1.254 . S
O222 Zn219 2.025 . S
H223 C215 0.952 1_556 S
H224 C206 0.952 . S
H225 C214 0.948 . S
O226 Zn211 2.034 . S
O226 C221 1.246 . S
O227 Zn219 2.024 . S
O227 C221 1.249 . S
H228 C210 0.948 1_556 S
O229 Zn219 2.039 1_556 S
O229 C233 1.251 . S
O230 Zn211 2.025 1_556 S
O230 C233 1.254 . S
O231 C212 1.246 . S
O231 Zn219 2.034 . S
O232 Zn211 2.024 . S
O232 C212 1.249 . S
C233 O229 1.251 . S
C233 O230 1.254 . S
H234 C207 0.949 . S
H235 C209 0.950 1_556 S
H236 C216 0.949 . S
H237 C218 0.950 . S
C238 O254 1.251 . S
C238 O256 1.254 . S
N239 C240 1.333 . S
N239 C244 1.307 . S
N239 Zn245 2.020 . S
C240 N239 1.333 . S
C240 C241 1.379 1_556 S
C240 H258 0.952 1_556 S
C241 C240 1.379 1_554 S
C241 C242 1.390 1_554 S
C241 H268 0.949 . S
C242 C241 1.390 1_556 S
C242 C243 1.357 . S
C243 C242 1.357 . S
C243 C244 1.370 . S
C243 H269 0.950 . S
C244 N239 1.307 . S
C244 C243 1.370 . S
C244 H262 0.948 . S
Zn245 N239 2.020 . S
Zn245 O254 2.039 1_556 S
Zn245 O260 2.034 . S
Zn245 O264 2.025 . S
Zn245 O266 2.024 . S
C246 O265 1.246 . S
C246 O266 1.249 . S
N247 C248 1.307 . S
N247 C249 1.333 . S
N247 Zn253 2.020 . S
C248 N247 1.307 . S
C248 C252 1.370 . S
C248 H259 0.948 1_556 S
C249 N247 1.333 . S
C249 C250 1.379 . S
C249 H257 0.952 . S
C250 C249 1.379 . S
C250 C251 1.390 . S
C250 H270 0.949 . S
C251 C250 1.390 . S
C251 C252 1.357 . S
C252 C248 1.370 . S
C252 C251 1.357 . S
C252 H271 0.950 1_556 S
Zn253 N247 2.020 . S
Zn253 O256 2.025 1_556 S
Zn253 O261 2.024 . S
Zn253 O263 2.039 . S
Zn253 O265 2.034 . S
O254 C238 1.251 . S
O254 Zn245 2.039 1_554 S
C255 O260 1.246 . S
C255 O261 1.249 . S
O256 C238 1.254 . S
O256 Zn253 2.025 1_554 S
H257 C249 0.952 . S
H258 C240 0.952 1_554 S
H259 C248 0.948 1_554 S
O260 Zn245 2.034 . S
O260 C255 1.246 . S
O261 Zn253 2.024 . S
O261 C255 1.249 . S
H262 C244 0.948 . S
O263 Zn253 2.039 . S
O263 C267 1.251 . S
O264 Zn245 2.025 . S
O264 C267 1.254 . S
O265 C246 1.246 . S
O265 Zn253 2.034 . S
O266 Zn245 2.024 . S
O266 C246 1.249 . S
C267 O263 1.251 . S
C267 O264 1.254 . S
H268 C241 0.949 . S
H269 C243 0.950 . S
H270 C250 0.949 . S
H271 C252 0.950 1_554 S
C272 O288 1.251 . S
C272 O290 1.254 . S
N273 C274 1.333 . S
N273 C278 1.307 . S
N273 Zn279 2.020 . S
C274 N273 1.333 . S
C274 C275 1.379 . S
C274 H292 0.952 . S
C275 C274 1.379 . S
C275 C276 1.390 . S
C275 H302 0.949 . S
C276 C275 1.390 . S
C276 C277 1.357 . S
C277 C276 1.357 . S
C277 C278 1.370 . S
C277 H303 0.950 . S
C278 N273 1.307 . S
C278 C277 1.370 . S
C278 H296 0.948 . S
Zn279 N273 2.020 . S
Zn279 O288 2.039 . S
Zn279 O294 2.034 . S
Zn279 O298 2.025 . S
Zn279 O300 2.024 . S
C280 O299 1.246 . S
C280 O300 1.249 . S
N281 C282 1.307 . S
N281 C283 1.333 . S
N281 Zn287 2.020 . S
C282 N281 1.307 . S
C282 C286 1.370 . S
C282 H293 0.948 . S
C283 N281 1.333 . S
C283 C284 1.379 . S
C283 H291 0.952 . S
C284 C283 1.379 . S
C284 C285 1.390 . S
C284 H304 0.949 . S
C285 C284 1.390 . S
C285 C286 1.357 . S
C286 C282 1.370 . S
C286 C285 1.357 . S
C286 H305 0.950 . S
Zn287 N281 2.020 . S
Zn287 O290 2.025 . S
Zn287 O295 2.024 . S
Zn287 O297 2.039 . S
Zn287 O299 2.034 . S
O288 C272 1.251 . S
O288 Zn279 2.039 . S
C289 O294 1.246 . S
C289 O295 1.249 . S
O290 C272 1.254 . S
O290 Zn287 2.025 . S
H291 C283 0.952 . S
H292 C274 0.952 . S
H293 C282 0.948 . S
O294 Zn279 2.034 . S
O294 C289 1.246 . S
O295 Zn287 2.024 . S
O295 C289 1.249 . S
H296 C278 0.948 . S
O297 Zn287 2.039 . S
O297 C301 1.251 . S
O298 Zn279 2.025 . S
O298 C301 1.254 . S
O299 C280 1.246 . S
O299 Zn287 2.034 . S
O300 Zn279 2.024 . S
O300 C280 1.249 . S
C301 O297 1.251 . S
C301 O298 1.254 . S
H302 C275 0.949 . S
H303 C277 0.950 . S
H304 C284 0.949 . S
H305 C286 0.950 . S
C306 O322 1.251 . S
C306 O324 1.254 . S
N307 C308 1.333 . S
N307 C312 1.307 . S
N307 Zn313 2.020 . S
C308 N307 1.333 . S
C308 C309 1.379 . S
C308 H326 0.952 . S
C309 C308 1.379 . S
C309 C310 1.390 . S
C309 H336 0.949 . S
C310 C309 1.390 . S
C310 C311 1.357 . S
C311 C310 1.357 . S
C311 C312 1.370 . S
C311 H337 0.950 . S
C312 N307 1.307 . S
C312 C311 1.370 . S
C312 H330 0.948 . S
Zn313 N307 2.020 . S
Zn313 O322 2.039 . S
Zn313 O328 2.034 . S
Zn313 O332 2.025 . S
Zn313 O334 2.024 . S
C314 O333 1.246 . S
C314 O334 1.249 . S
N315 C316 1.307 . S
N315 C317 1.333 . S
N315 Zn321 2.020 . S
C316 N315 1.307 . S
C316 C320 1.370 . S
C316 H327 0.948 . S
C317 N315 1.333 . S
C317 C318 1.379 . S
C317 H325 0.952 . S
C318 C317 1.379 . S
C318 C319 1.390 . S
C318 H338 0.949 . S
C319 C318 1.390 . S
C319 C320 1.357 . S
C320 C316 1.370 . S
C320 C319 1.357 . S
C320 H339 0.950 . S
Zn321 N315 2.020 . S
Zn321 O324 2.025 . S
Zn321 O329 2.024 . S
Zn321 O331 2.039 . S
Zn321 O333 2.034 . S
O322 C306 1.251 . S
O322 Zn313 2.039 . S
C323 O328 1.246 . S
C323 O329 1.249 . S
O324 C306 1.254 . S
O324 Zn321 2.025 . S
H325 C317 0.952 . S
H326 C308 0.952 . S
H327 C316 0.948 . S
O328 Zn313 2.034 . S
O328 C323 1.246 . S
O329 Zn321 2.024 . S
O329 C323 1.249 . S
H330 C312 0.948 . S
O331 Zn321 2.039 . S
O331 C335 1.251 . S
O332 Zn313 2.025 . S
O332 C335 1.254 . S
O333 C314 1.246 . S
O333 Zn321 2.034 . S
O334 Zn313 2.024 . S
O334 C314 1.249 . S
C335 O331 1.251 . S
C335 O332 1.254 . S
H336 C309 0.949 . S
H337 C311 0.950 . S
H338 C318 0.949 . S
H339 C320 0.950 . S
C340 O356 1.251 . S
C340 O358 1.254 . S
N341 C342 1.333 . S
N341 C346 1.307 . S
N341 Zn347 2.020 . S
C342 N341 1.333 . S
C342 C343 1.379 . S
C342 H360 0.952 . S
C343 C342 1.379 . S
C343 C344 1.390 . S
C343 H370 0.949 . S
C344 C343 1.390 . S
C344 C345 1.357 . S
C345 C344 1.357 . S
C345 C346 1.370 . S
C345 H371 0.950 . S
C346 N341 1.307 . S
C346 C345 1.370 . S
C346 H364 0.948 . S
Zn347 N341 2.020 . S
Zn347 O356 2.039 . S
Zn347 O362 2.034 . S
Zn347 O366 2.025 . S
Zn347 O368 2.024 . S
C348 O367 1.246 . S
C348 O368 1.249 . S
N349 C350 1.307 . S
N349 C351 1.333 . S
N349 Zn355 2.020 . S
C350 N349 1.307 . S
C350 C354 1.370 . S
C350 H361 0.948 . S
C351 N349 1.333 . S
C351 C352 1.379 . S
C351 H359 0.952 . S
C352 C351 1.379 . S
C352 C353 1.390 . S
C352 H372 0.949 . S
C353 C352 1.390 . S
C353 C354 1.357 . S
C354 C350 1.370 . S
C354 C353 1.357 . S
C354 H373 0.950 . S
Zn355 N349 2.020 . S
Zn355 O358 2.025 . S
Zn355 O363 2.024 . S
Zn355 O365 2.039 . S
Zn355 O367 2.034 . S
O356 C340 1.251 . S
O356 Zn347 2.039 . S
C357 O362 1.246 . S
C357 O363 1.249 . S
O358 C340 1.254 . S
O358 Zn355 2.025 . S
H359 C351 0.952 . S
H360 C342 0.952 . S
H361 C350 0.948 . S
O362 Zn347 2.034 . S
O362 C357 1.246 . S
O363 Zn355 2.024 . S
O363 C357 1.249 . S
H364 C346 0.948 . S
O365 Zn355 2.039 . S
O365 C369 1.251 . S
O366 Zn347 2.025 . S
O366 C369 1.254 . S
O367 C348 1.246 . S
O367 Zn355 2.034 . S
O368 Zn347 2.024 . S
O368 C348 1.249 . S
C369 O365 1.251 . S
C369 O366 1.254 . S
H370 C343 0.949 . S
H371 C345 0.950 . S
H372 C352 0.949 . S
H373 C354 0.950 . S
C374 O390 1.251 . S
C374 O392 1.254 . S
N375 C376 1.333 . S
N375 C380 1.307 . S
N375 Zn381 2.020 . S
C376 N375 1.333 . S
C376 C377 1.379 . S
C376 H394 0.952 . S
C377 C376 1.379 . S
C377 C378 1.390 . S
C377 H404 0.949 . S
C378 C377 1.390 . S
C378 C379 1.357 . S
C379 C378 1.357 . S
C379 C380 1.370 . S
C379 H405 0.950 . S
C380 N375 1.307 . S
C380 C379 1.370 . S
C380 H398 0.948 . S
Zn381 N375 2.020 . S
Zn381 O390 2.039 . S
Zn381 O396 2.034 . S
Zn381 O400 2.025 . S
Zn381 O402 2.024 . S
C382 O401 1.246 . S
C382 O402 1.249 . S
N383 C384 1.307 . S
N383 C385 1.333 . S
N383 Zn389 2.020 . S
C384 N383 1.307 . S
C384 C388 1.370 . S
C384 H395 0.948 . S
C385 N383 1.333 . S
C385 C386 1.379 . S
C385 H393 0.952 . S
C386 C385 1.379 . S
C386 C387 1.390 . S
C386 H406 0.949 . S
C387 C386 1.390 . S
C387 C388 1.357 . S
C388 C384 1.370 . S
C388 C387 1.357 . S
C388 H407 0.950 . S
Zn389 N383 2.020 . S
Zn389 O392 2.025 . S
Zn389 O397 2.024 . S
Zn389 O399 2.039 . S
Zn389 O401 2.034 . S
O390 C374 1.251 . S
O390 Zn381 2.039 . S
C391 O396 1.246 . S
C391 O397 1.249 . S
O392 C374 1.254 . S
O392 Zn389 2.025 . S
H393 C385 0.952 . S
H394 C376 0.952 . S
H395 C384 0.948 . S
O396 Zn381 2.034 . S
O396 C391 1.246 . S
O397 Zn389 2.024 . S
O397 C391 1.249 . S
H398 C380 0.948 . S
O399 Zn389 2.039 . S
O399 C403 1.251 . S
O400 Zn381 2.025 . S
O400 C403 1.254 . S
O401 C382 1.246 . S
O401 Zn389 2.034 . S
O402 Zn381 2.024 . S
O402 C382 1.249 . S
C403 O399 1.251 . S
C403 O400 1.254 . S
H404 C377 0.949 . S
H405 C379 0.950 . S
H406 C386 0.949 . S
H407 C388 0.950 . S
C408 O424 1.251 . S
C408 O426 1.254 . S
N409 C410 1.333 . S
N409 C414 1.307 . S
N409 Zn415 2.020 . S
C410 N409 1.333 . S
C410 C411 1.379 . S
C410 H428 0.952 . S
C411 C410 1.379 . S
C411 C412 1.390 . S
C411 H438 0.949 . S
C412 C411 1.390 . S
C412 C413 1.357 . S
C413 C412 1.357 . S
C413 C414 1.370 . S
C413 H439 0.950 . S
C414 N409 1.307 . S
C414 C413 1.370 . S
C414 H432 0.948 . S
Zn415 N409 2.020 . S
Zn415 O424 2.039 . S
Zn415 O430 2.034 . S
Zn415 O434 2.025 . S
Zn415 O436 2.024 . S
C416 O435 1.246 . S
C416 O436 1.249 . S
N417 C418 1.307 . S
N417 C419 1.333 . S
N417 Zn423 2.020 . S
C418 N417 1.307 . S
C418 C422 1.370 1_565 S
C418 H429 0.948 . S
C419 N417 1.333 . S
C419 C420 1.379 1_565 S
C419 H427 0.952 . S
C420 C419 1.379 1_545 S
C420 C421 1.390 . S
C420 H440 0.949 . S
C421 C420 1.390 . S
C421 C422 1.357 . S
C422 C418 1.370 1_545 S
C422 C421 1.357 . S
C422 H441 0.950 . S
Zn423 N417 2.020 . S
Zn423 O426 2.025 . S
Zn423 O431 2.024 . S
Zn423 O433 2.039 . S
Zn423 O435 2.034 . S
O424 C408 1.251 . S
O424 Zn415 2.039 . S
C425 O430 1.246 . S
C425 O431 1.249 . S
O426 C408 1.254 . S
O426 Zn423 2.025 . S
H427 C419 0.952 . S
H428 C410 0.952 . S
H429 C418 0.948 . S
O430 Zn415 2.034 . S
O430 C425 1.246 . S
O431 Zn423 2.024 . S
O431 C425 1.249 . S
H432 C414 0.948 . S
O433 Zn423 2.039 . S
O433 C437 1.251 . S
O434 Zn415 2.025 . S
O434 C437 1.254 . S
O435 C416 1.246 . S
O435 Zn423 2.034 . S
O436 Zn415 2.024 . S
O436 C416 1.249 . S
C437 O433 1.251 . S
C437 O434 1.254 . S
H438 C411 0.949 . S
H439 C413 0.950 . S
H440 C420 0.949 . S
H441 C422 0.950 . S
C442 O458 1.251 . S
C442 O460 1.254 . S
N443 C444 1.333 . S
N443 C448 1.307 . S
N443 Zn449 2.020 . S
C444 N443 1.333 . S
C444 C445 1.379 1_655 S
C444 H462 0.952 . S
C445 C444 1.379 1_455 S
C445 C446 1.390 . S
C445 H472 0.949 . S
C446 C445 1.390 . S
C446 C447 1.357 . S
C447 C446 1.357 . S
C447 C448 1.370 1_455 S
C447 H473 0.950 . S
C448 N443 1.307 . S
C448 C447 1.370 1_655 S
C448 H466 0.948 . S
Zn449 N443 2.020 . S
Zn449 O458 2.039 . S
Zn449 O464 2.034 . S
Zn449 O468 2.025 . S
Zn449 O470 2.024 . S
C450 O469 1.246 . S
C450 O470 1.249 . S
N451 C452 1.307 . S
N451 C453 1.333 . S
N451 Zn457 2.020 . S
C452 N451 1.307 . S
C452 C456 1.370 . S
C452 H463 0.948 . S
C453 N451 1.333 . S
C453 C454 1.379 . S
C453 H461 0.952 . S
C454 C453 1.379 . S
C454 C455 1.390 . S
C454 H474 0.949 . S
C455 C454 1.390 . S
C455 C456 1.357 . S
C456 C452 1.370 . S
C456 C455 1.357 . S
C456 H475 0.950 . S
Zn457 N451 2.020 . S
Zn457 O460 2.025 . S
Zn457 O465 2.024 . S
Zn457 O467 2.039 . S
Zn457 O469 2.034 . S
O458 C442 1.251 . S
O458 Zn449 2.039 . S
C459 O464 1.246 . S
C459 O465 1.249 . S
O460 C442 1.254 . S
O460 Zn457 2.025 . S
H461 C453 0.952 . S
H462 C444 0.952 . S
H463 C452 0.948 . S
O464 Zn449 2.034 . S
O464 C459 1.246 . S
O465 Zn457 2.024 . S
O465 C459 1.249 . S
H466 C448 0.948 . S
O467 Zn457 2.039 . S
O467 C471 1.251 . S
O468 Zn449 2.025 . S
O468 C471 1.254 . S
O469 C450 1.246 . S
O469 Zn457 2.034 . S
O470 Zn449 2.024 . S
O470 C450 1.249 . S
C471 O467 1.251 . S
C471 O468 1.254 . S
H472 C445 0.949 . S
H473 C447 0.950 . S
H474 C454 0.949 . S
H475 C456 0.950 . S
C476 O492 1.251 . S
C476 O494 1.254 . S
N477 C478 1.333 . S
N477 C482 1.307 . S
N477 Zn483 2.020 . S
C478 N477 1.333 . S
C478 C479 1.379 . S
C478 H496 0.952 . S
C479 C478 1.379 . S
C479 C480 1.390 . S
C479 H506 0.949 . S
C480 C479 1.390 . S
C480 C481 1.357 . S
C481 C480 1.357 . S
C481 C482 1.370 . S
C481 H507 0.950 . S
C482 N477 1.307 . S
C482 C481 1.370 . S
C482 H500 0.948 . S
Zn483 N477 2.020 . S
Zn483 O492 2.039 . S
Zn483 O498 2.034 . S
Zn483 O502 2.025 . S
Zn483 O504 2.024 . S
C484 O503 1.246 . S
C484 O504 1.249 . S
N485 C486 1.307 . S
N485 C487 1.333 . S
N485 Zn491 2.020 . S
C486 N485 1.307 . S
C486 C490 1.370 1_545 S
C486 H497 0.948 . S
C487 N485 1.333 . S
C487 C488 1.379 1_545 S
C487 H495 0.952 . S
C488 C487 1.379 1_565 S
C488 C489 1.390 . S
C488 H508 0.949 . S
C489 C488 1.390 . S
C489 C490 1.357 . S
C490 C486 1.370 1_565 S
C490 C489 1.357 . S
C490 H509 0.950 . S
Zn491 N485 2.020 . S
Zn491 O494 2.025 . S
Zn491 O499 2.024 . S
Zn491 O501 2.039 . S
Zn491 O503 2.034 . S
O492 C476 1.251 . S
O492 Zn483 2.039 . S
C493 O498 1.246 . S
C493 O499 1.249 . S
O494 C476 1.254 . S
O494 Zn491 2.025 . S
H495 C487 0.952 . S
H496 C478 0.952 . S
H497 C486 0.948 . S
O498 Zn483 2.034 . S
O498 C493 1.246 . S
O499 Zn491 2.024 . S
O499 C493 1.249 . S
H500 C482 0.948 . S
O501 Zn491 2.039 . S
O501 C505 1.251 . S
O502 Zn483 2.025 . S
O502 C505 1.254 . S
O503 C484 1.246 . S
O503 Zn491 2.034 . S
O504 Zn483 2.024 . S
O504 C484 1.249 . S
C505 O501 1.251 . S
C505 O502 1.254 . S
H506 C479 0.949 . S
H507 C481 0.950 . S
H508 C488 0.949 . S
H509 C490 0.950 . S
C510 O526 1.251 . S
C510 O528 1.254 . S
N511 C512 1.333 . S
N511 C516 1.307 . S
N511 Zn517 2.020 . S
C512 N511 1.333 . S
C512 C513 1.379 1_455 S
C512 H530 0.952 . S
C513 C512 1.379 1_655 S
C513 C514 1.390 . S
C513 H540 0.949 . S
C514 C513 1.390 . S
C514 C515 1.357 . S
C515 C514 1.357 . S
C515 C516 1.370 1_655 S
C515 H541 0.950 . S
C516 N511 1.307 . S
C516 C515 1.370 1_455 S
C516 H534 0.948 . S
Zn517 N511 2.020 . S
Zn517 O526 2.039 . S
Zn517 O532 2.034 . S
Zn517 O536 2.025 . S
Zn517 O538 2.024 . S
C518 O537 1.246 . S
C518 O538 1.249 . S
N519 C520 1.307 . S
N519 C521 1.333 . S
N519 Zn525 2.020 . S
C520 N519 1.307 . S
C520 C524 1.370 . S
C520 H531 0.948 . S
C521 N519 1.333 . S
C521 C522 1.379 . S
C521 H529 0.952 . S
C522 C521 1.379 . S
C522 C523 1.390 . S
C522 H542 0.949 . S
C523 C522 1.390 . S
C523 C524 1.357 . S
C524 C520 1.370 . S
C524 C523 1.357 . S
C524 H543 0.950 . S
Zn525 N519 2.020 . S
Zn525 O528 2.025 . S
Zn525 O533 2.024 . S
Zn525 O535 2.039 . S
Zn525 O537 2.034 . S
O526 C510 1.251 . S
O526 Zn517 2.039 . S
C527 O532 1.246 . S
C527 O533 1.249 . S
O528 C510 1.254 . S
O528 Zn525 2.025 . S
H529 C521 0.952 . S
H530 C512 0.952 . S
H531 C520 0.948 . S
O532 Zn517 2.034 . S
O532 C527 1.246 . S
O533 Zn525 2.024 . S
O533 C527 1.249 . S
H534 C516 0.948 . S
O535 Zn525 2.039 . S
O535 C539 1.251 . S
O536 Zn517 2.025 . S
O536 C539 1.254 . S
O537 C518 1.246 . S
O537 Zn525 2.034 . S
O538 Zn517 2.024 . S
O538 C518 1.249 . S
C539 O535 1.251 . S
C539 O536 1.254 . S
H540 C513 0.949 . S
H541 C515 0.950 . S
H542 C522 0.949 . S
H543 C524 0.950 . S
C544 C545 1.387 . S
C544 H548 0.950 . S
C544 C553 1.390 . S
C545 C544 1.387 . S
C545 C547 1.387 . S
H546 C553 0.950 . S
C547 C545 1.387 . S
C547 C549 1.390 . S
C547 H551 0.950 . S
H548 C544 0.950 . S
C549 C547 1.390 . S
C549 C550 1.387 . S
C549 H552 0.950 . S
C550 C549 1.387 . S
C550 C553 1.387 . S
H551 C547 0.950 . S
H552 C549 0.950 . S
C553 C544 1.390 . S
C553 H546 0.950 . S
C553 C550 1.387 . S
C554 C555 1.387 . S
C554 H558 0.950 . S
C554 C563 1.390 . S
C555 C554 1.387 . S
C555 C557 1.387 . S
H556 C563 0.950 . S
C557 C555 1.387 . S
C557 C559 1.390 . S
C557 H561 0.950 . S
H558 C554 0.950 . S
C559 C557 1.390 . S
C559 C560 1.387 . S
C559 H562 0.950 . S
C560 C559 1.387 . S
C560 C563 1.387 . S
H561 C557 0.950 . S
H562 C559 0.950 . S
C563 C554 1.390 . S
C563 H556 0.950 . S
C563 C560 1.387 . S
C564 C565 1.387 . S
C564 H568 0.950 . S
C564 C573 1.390 . S
C565 C564 1.387 . S
C565 C567 1.387 . S
H566 C573 0.950 . S
C567 C565 1.387 . S
C567 C569 1.390 . S
C567 H571 0.950 . S
H568 C564 0.950 . S
C569 C567 1.390 . S
C569 C570 1.387 . S
C569 H572 0.950 . S
C570 C569 1.387 . S
C570 C573 1.387 . S
H571 C567 0.950 . S
H572 C569 0.950 . S
C573 C564 1.390 . S
C573 H566 0.950 . S
C573 C570 1.387 . S
C574 C575 1.387 . S
C574 H578 0.950 . S
C574 C583 1.390 . S
C575 C574 1.387 . S
C575 C577 1.387 . S
H576 C583 0.950 . S
C577 C575 1.387 . S
C577 C579 1.390 . S
C577 H581 0.950 . S
H578 C574 0.950 . S
C579 C577 1.390 . S
C579 C580 1.387 . S
C579 H582 0.950 . S
C580 C579 1.387 . S
C580 C583 1.387 . S
H581 C577 0.950 . S
H582 C579 0.950 . S
C583 C574 1.390 . S
C583 H576 0.950 . S
C583 C580 1.387 . S
C584 C585 1.387 . S
C584 H588 0.950 . S
C584 C593 1.390 . S
C585 C584 1.387 . S
C585 C587 1.387 1_554 S
H586 C593 0.950 . S
C587 C585 1.387 1_556 S
C587 C589 1.390 . S
C587 H591 0.950 . S
H588 C584 0.950 . S
C589 C587 1.390 . S
C589 C590 1.387 . S
C589 H592 0.950 . S
C590 C589 1.387 . S
C590 C593 1.387 1_556 S
H591 C587 0.950 . S
H592 C589 0.950 . S
C593 C584 1.390 . S
C593 H586 0.950 . S
C593 C590 1.387 1_554 S
C594 C595 1.387 1_556 S
C594 H598 0.950 . S
C594 C603 1.390 . S
C595 C594 1.387 1_554 S
C595 C597 1.387 . S
H596 C603 0.950 . S
C597 C595 1.387 . S
C597 C599 1.390 . S
C597 H601 0.950 . S
H598 C594 0.950 . S
C599 C597 1.390 . S
C599 C600 1.387 1_554 S
C599 H602 0.950 . S
C600 C599 1.387 1_556 S
C600 C603 1.387 . S
H601 C597 0.950 . S
H602 C599 0.950 . S
C603 C594 1.390 . S
C603 H596 0.950 . S
C603 C600 1.387 . S
C604 C605 1.387 . S
C604 H608 0.950 . S
C604 C613 1.390 . S
C605 C604 1.387 . S
C605 C607 1.387 1_554 S
H606 C613 0.950 . S
C607 C605 1.387 1_556 S
C607 C609 1.390 . S
C607 H611 0.950 . S
H608 C604 0.950 . S
C609 C607 1.390 . S
C609 C610 1.387 . S
C609 H612 0.950 . S
C610 C609 1.387 . S
C610 C613 1.387 1_556 S
H611 C607 0.950 . S
H612 C609 0.950 . S
C613 C604 1.390 . S
C613 H606 0.950 . S
C613 C610 1.387 1_554 S
C614 C615 1.387 1_556 S
C614 H618 0.950 . S
C614 C623 1.390 . S
C615 C614 1.387 1_554 S
C615 C617 1.387 . S
H616 C623 0.950 . S
C617 C615 1.387 . S
C617 C619 1.390 . S
C617 H621 0.950 . S
H618 C614 0.950 . S
C619 C617 1.390 . S
C619 C620 1.387 1_554 S
C619 H622 0.950 . S
C620 C619 1.387 1_556 S
C620 C623 1.387 . S
H621 C617 0.950 . S
H622 C619 0.950 . S
C623 C614 1.390 . S
C623 H616 0.950 . S
C623 C620 1.387 . S
C624 C625 1.387 . S
C624 H628 0.950 . S
C624 C633 1.390 . S
C625 C624 1.387 . S
C625 C627 1.387 . S
H626 C633 0.950 . S
C627 C625 1.387 . S
C627 C629 1.390 . S
C627 H631 0.950 . S
H628 C624 0.950 . S
C629 C627 1.390 . S
C629 C630 1.387 . S
C629 H632 0.950 . S
C630 C629 1.387 . S
C630 C633 1.387 . S
H631 C627 0.950 . S
H632 C629 0.950 . S
C633 C624 1.390 . S
C633 H626 0.950 . S
C633 C630 1.387 . S
C634 C635 1.387 . S
C634 H638 0.950 . S
C634 C643 1.390 . S
C635 C634 1.387 . S
C635 C637 1.387 . S
H636 C643 0.950 . S
C637 C635 1.387 . S
C637 C639 1.390 . S
C637 H641 0.950 . S
H638 C634 0.950 . S
C639 C637 1.390 . S
C639 C640 1.387 . S
C639 H642 0.950 . S
C640 C639 1.387 . S
C640 C643 1.387 . S
H641 C637 0.950 . S
H642 C639 0.950 . S
C643 C634 1.390 . S
C643 H636 0.950 . S
C643 C640 1.387 . S
C644 C645 1.387 . S
C644 H648 0.950 . S
C644 C653 1.390 . S
C645 C644 1.387 . S
C645 C647 1.387 . S
H646 C653 0.950 . S
C647 C645 1.387 . S
C647 C649 1.390 . S
C647 H651 0.950 . S
H648 C644 0.950 . S
C649 C647 1.390 . S
C649 C650 1.387 . S
C649 H652 0.950 . S
C650 C649 1.387 . S
C650 C653 1.387 . S
H651 C647 0.950 . S
H652 C649 0.950 . S
C653 C644 1.390 . S
C653 H646 0.950 . S
C653 C650 1.387 . S
C654 C655 1.387 . S
C654 H658 0.950 . S
C654 C663 1.390 . S
C655 C654 1.387 . S
C655 C657 1.387 . S
H656 C663 0.950 . S
C657 C655 1.387 . S
C657 C659 1.390 . S
C657 H661 0.950 . S
H658 C654 0.950 . S
C659 C657 1.390 . S
C659 C660 1.387 . S
C659 H662 0.950 . S
C660 C659 1.387 . S
C660 C663 1.387 . S
H661 C657 0.950 . S
H662 C659 0.950 . S
C663 C654 1.390 . S
C663 H656 0.950 . S
C663 C660 1.387 . S
C664 C665 1.387 . S
C664 H668 0.950 . S
C664 C673 1.390 . S
C665 C664 1.387 . S
C665 C667 1.387 . S
H666 C673 0.950 . S
C667 C665 1.387 . S
C667 C669 1.390 . S
C667 H671 0.950 . S
H668 C664 0.950 . S
C669 C667 1.390 . S
C669 C670 1.387 . S
C669 H672 0.950 . S
C670 C669 1.387 . S
C670 C673 1.387 . S
H671 C667 0.950 . S
H672 C669 0.950 . S
C673 C664 1.390 . S
C673 H666 0.950 . S
C673 C670 1.387 . S
C674 C675 1.387 . S
C674 H678 0.950 . S
C674 C683 1.390 . S
C675 C674 1.387 . S
C675 C677 1.387 . S
H676 C683 0.950 . S
C677 C675 1.387 . S
C677 C679 1.390 . S
C677 H681 0.950 . S
H678 C674 0.950 . S
C679 C677 1.390 . S
C679 C680 1.387 . S
C679 H682 0.950 . S
C680 C679 1.387 . S
C680 C683 1.387 . S
H681 C677 0.950 . S
H682 C679 0.950 . S
C683 C674 1.390 . S
C683 H676 0.950 . S
C683 C680 1.387 . S
C684 C685 1.387 . S
C684 H688 0.950 . S
C684 C693 1.390 . S
C685 C684 1.387 . S
C685 C687 1.387 . S
H686 C693 0.950 . S
C687 C685 1.387 . S
C687 C689 1.390 . S
C687 H691 0.950 . S
H688 C684 0.950 . S
C689 C687 1.390 . S
C689 C690 1.387 . S
C689 H692 0.950 . S
C690 C689 1.387 . S
C690 C693 1.387 . S
H691 C687 0.950 . S
H692 C689 0.950 . S
C693 C684 1.390 . S
C693 H686 0.950 . S
C693 C690 1.387 . S
C694 C695 1.387 . S
C694 H698 0.950 . S
C694 C703 1.390 . S
C695 C694 1.387 . S
C695 C697 1.387 . S
H696 C703 0.950 . S
C697 C695 1.387 . S
C697 C699 1.390 . S
C697 H701 0.950 . S
H698 C694 0.950 . S
C699 C697 1.390 . S
C699 C700 1.387 . S
C699 H702 0.950 . S
C700 C699 1.387 . S
C700 C703 1.387 . S
H701 C697 0.950 . S
H702 C699 0.950 . S
C703 C694 1.390 . S
C703 H696 0.950 . S
C703 C700 1.387 . S
C704 C705 1.387 . S
C704 H708 0.950 . S
C704 C713 1.390 . S
C705 C704 1.387 . S
C705 C707 1.387 . S
H706 C713 0.950 . S
C707 C705 1.387 . S
C707 C709 1.390 . S
C707 H711 0.950 . S
H708 C704 0.950 . S
C709 C707 1.390 . S
C709 C710 1.387 . S
C709 H712 0.950 . S
C710 C709 1.387 . S
C710 C713 1.387 . S
H711 C707 0.950 . S
H712 C709 0.950 . S
C713 C704 1.390 . S
C713 H706 0.950 . S
C713 C710 1.387 . S
C714 C715 1.387 . S
C714 H718 0.950 . S
C714 C723 1.390 . S
C715 C714 1.387 . S
C715 C717 1.387 . S
H716 C723 0.950 . S
C717 C715 1.387 . S
C717 C719 1.390 . S
C717 H721 0.950 . S
H718 C714 0.950 . S
C719 C717 1.390 . S
C719 C720 1.387 . S
C719 H722 0.950 . S
C720 C719 1.387 . S
C720 C723 1.387 . S
H721 C717 0.950 . S
H722 C719 0.950 . S
C723 C714 1.390 . S
C723 H716 0.950 . S
C723 C720 1.387 . S
C724 C725 1.387 . S
C724 H728 0.950 . S
C724 C733 1.390 . S
C725 C724 1.387 . S
C725 C727 1.387 . S
H726 C733 0.950 . S
C727 C725 1.387 . S
C727 C729 1.390 . S
C727 H731 0.950 . S
H728 C724 0.950 . S
C729 C727 1.390 . S
C729 C730 1.387 . S
C729 H732 0.950 . S
C730 C729 1.387 . S
C730 C733 1.387 . S
H731 C727 0.950 . S
H732 C729 0.950 . S
C733 C724 1.390 . S
C733 H726 0.950 . S
C733 C730 1.387 . S
C734 C735 1.387 . S
C734 H738 0.950 . S
C734 C743 1.390 . S
C735 C734 1.387 . S
C735 C737 1.387 . S
H736 C743 0.950 . S
C737 C735 1.387 . S
C737 C739 1.390 . S
C737 H741 0.950 . S
H738 C734 0.950 . S
C739 C737 1.390 . S
C739 C740 1.387 . S
C739 H742 0.950 . S
C740 C739 1.387 . S
C740 C743 1.387 . S
H741 C737 0.950 . S
H742 C739 0.950 . S
C743 C734 1.390 . S
C743 H736 0.950 . S
C743 C740 1.387 . S
C744 C745 1.387 . S
C744 H748 0.950 . S
C744 C753 1.390 . S
C745 C744 1.387 . S
C745 C747 1.387 . S
H746 C753 0.950 . S
C747 C745 1.387 . S
C747 C749 1.390 . S
C747 H751 0.950 . S
H748 C744 0.950 . S
C749 C747 1.390 . S
C749 C750 1.387 . S
C749 H752 0.950 . S
C750 C749 1.387 . S
C750 C753 1.387 . S
H751 C747 0.950 . S
H752 C749 0.950 . S
C753 C744 1.390 . S
C753 H746 0.950 . S
C753 C750 1.387 . S
C754 C755 1.387 . S
C754 H758 0.950 . S
C754 C763 1.390 . S
C755 C754 1.387 . S
C755 C757 1.387 . S
H756 C763 0.950 . S
C757 C755 1.387 . S
C757 C759 1.390 . S
C757 H761 0.950 . S
H758 C754 0.950 . S
C759 C757 1.390 . S
C759 C760 1.387 . S
C759 H762 0.950 . S
C760 C759 1.387 . S
C760 C763 1.387 . S
H761 C757 0.950 . S
H762 C759 0.950 . S
C763 C754 1.390 . S
C763 H756 0.950 . S
C763 C760 1.387 . S
C764 C765 1.387 . S
C764 H768 0.950 . S
C764 C773 1.390 . S
C765 C764 1.387 . S
C765 C767 1.387 . S
H766 C773 0.950 . S
C767 C765 1.387 . S
C767 C769 1.390 . S
C767 H771 0.950 . S
H768 C764 0.950 . S
C769 C767 1.390 . S
C769 C770 1.387 . S
C769 H772 0.950 . S
C770 C769 1.387 . S
C770 C773 1.387 . S
H771 C767 0.950 . S
H772 C769 0.950 . S
C773 C764 1.390 . S
C773 H766 0.950 . S
C773 C770 1.387 . S
C774 C775 1.387 . S
C774 H778 0.950 . S
C774 C783 1.390 . S
C775 C774 1.387 . S
C775 C777 1.387 . S
H776 C783 0.950 . S
C777 C775 1.387 . S
C777 C779 1.390 . S
C777 H781 0.950 . S
H778 C774 0.950 . S
C779 C777 1.390 . S
C779 C780 1.387 . S
C779 H782 0.950 . S
C780 C779 1.387 . S
C780 C783 1.387 . S
H781 C777 0.950 . S
H782 C779 0.950 . S
C783 C774 1.390 . S
C783 H776 0.950 . S
C783 C780 1.387 . S
C784 C785 1.387 . S
C784 H788 0.950 . S
C784 C793 1.390 . S
C785 C784 1.387 . S
C785 C787 1.387 . S
H786 C793 0.950 . S
C787 C785 1.387 . S
C787 C789 1.390 . S
C787 H791 0.950 . S
H788 C784 0.950 . S
C789 C787 1.390 . S
C789 C790 1.387 . S
C789 H792 0.950 . S
C790 C789 1.387 . S
C790 C793 1.387 . S
H791 C787 0.950 . S
H792 C789 0.950 . S
C793 C784 1.390 . S
C793 H786 0.950 . S
C793 C790 1.387 . S
C794 C795 1.387 . S
C794 H798 0.950 . S
C794 C803 1.390 . S
C795 C794 1.387 . S
C795 C797 1.387 . S
H796 C803 0.950 . S
C797 C795 1.387 . S
C797 C799 1.390 . S
C797 H801 0.950 . S
H798 C794 0.950 . S
C799 C797 1.390 . S
C799 C800 1.387 . S
C799 H802 0.950 . S
C800 C799 1.387 . S
C800 C803 1.387 . S
H801 C797 0.950 . S
H802 C799 0.950 . S
C803 C794 1.390 . S
C803 H796 0.950 . S
C803 C800 1.387 . S
C804 C805 1.387 . S
C804 H808 0.950 . S
C804 C813 1.390 . S
C805 C804 1.387 . S
C805 C807 1.387 . S
H806 C813 0.950 . S
C807 C805 1.387 . S
C807 C809 1.390 . S
C807 H811 0.950 . S
H808 C804 0.950 . S
C809 C807 1.390 . S
C809 C810 1.387 . S
C809 H812 0.950 . S
C810 C809 1.387 . S
C810 C813 1.387 . S
H811 C807 0.950 . S
H812 C809 0.950 . S
C813 C804 1.390 . S
C813 H806 0.950 . S
C813 C810 1.387 . S
C814 C815 1.387 . S
C814 H818 0.950 . S
C814 C823 1.390 . S
C815 C814 1.387 . S
C815 C817 1.387 . S
H816 C823 0.950 . S
C817 C815 1.387 . S
C817 C819 1.390 . S
C817 H821 0.950 . S
H818 C814 0.950 . S
C819 C817 1.390 . S
C819 C820 1.387 . S
C819 H822 0.950 . S
C820 C819 1.387 . S
C820 C823 1.387 . S
H821 C817 0.950 . S
H822 C819 0.950 . S
C823 C814 1.390 . S
C823 H816 0.950 . S
C823 C820 1.387 . S
C824 C825 1.387 . S
C824 H828 0.950 . S
C824 C833 1.390 . S
C825 C824 1.387 . S
C825 C827 1.387 . S
H826 C833 0.950 . S
C827 C825 1.387 . S
C827 C829 1.390 . S
C827 H831 0.950 . S
H828 C824 0.950 . S
C829 C827 1.390 . S
C829 C830 1.387 . S
C829 H832 0.950 . S
C830 C829 1.387 . S
C830 C833 1.387 . S
H831 C827 0.950 . S
H832 C829 0.950 . S
C833 C824 1.390 . S
C833 H826 0.950 . S
C833 C830 1.387 . S
C834 C835 1.387 . S
C834 H838 0.950 . S
C834 C843 1.390 . S
C835 C834 1.387 . S
C835 C837 1.387 . S
H836 C843 0.950 . S
C837 C835 1.387 . S
C837 C839 1.390 . S
C837 H841 0.950 . S
H838 C834 0.950 . S
C839 C837 1.390 . S
C839 C840 1.387 . S
C839 H842 0.950 . S
C840 C839 1.387 . S
C840 C843 1.387 . S
H841 C837 0.950 . S
H842 C839 0.950 . S
C843 C834 1.390 . S
C843 H836 0.950 . S
C843 C840 1.387 . S
C844 C845 1.387 . S
C844 H848 0.950 . S
C844 C853 1.390 . S
C845 C844 1.387 . S
C845 C847 1.387 . S
H846 C853 0.950 . S
C847 C845 1.387 . S
C847 C849 1.390 . S
C847 H851 0.950 . S
H848 C844 0.950 . S
C849 C847 1.390 . S
C849 C850 1.387 . S
C849 H852 0.950 . S
C850 C849 1.387 . S
C850 C853 1.387 . S
H851 C847 0.950 . S
H852 C849 0.950 . S
C853 C844 1.390 . S
C853 H846 0.950 . S
C853 C850 1.387 . S
C854 C855 1.387 . S
C854 H858 0.950 . S
C854 C863 1.390 . S
C855 C854 1.387 . S
C855 C857 1.387 . S
H856 C863 0.950 . S
C857 C855 1.387 . S
C857 C859 1.390 . S
C857 H861 0.950 . S
H858 C854 0.950 . S
C859 C857 1.390 . S
C859 C860 1.387 . S
C859 H862 0.950 . S
C860 C859 1.387 . S
C860 C863 1.387 . S
H861 C857 0.950 . S
H862 C859 0.950 . S
C863 C854 1.390 . S
C863 H856 0.950 . S
C863 C860 1.387 . S
C864 C865 1.387 . S
C864 H868 0.950 . S
C864 C873 1.390 . S
C865 C864 1.387 . S
C865 C867 1.387 . S
H866 C873 0.950 . S
C867 C865 1.387 . S
C867 C869 1.390 . S
C867 H871 0.950 . S
H868 C864 0.950 . S
C869 C867 1.390 . S
C869 C870 1.387 . S
C869 H872 0.950 . S
C870 C869 1.387 . S
C870 C873 1.387 . S
H871 C867 0.950 . S
H872 C869 0.950 . S
C873 C864 1.390 . S
C873 H866 0.950 . S
C873 C870 1.387 . S
C874 C875 1.387 . S
C874 H878 0.950 . S
C874 C883 1.390 . S
C875 C874 1.387 . S
C875 C877 1.387 . S
H876 C883 0.950 . S
C877 C875 1.387 . S
C877 C879 1.390 . S
C877 H881 0.950 . S
H878 C874 0.950 . S
C879 C877 1.390 . S
C879 C880 1.387 . S
C879 H882 0.950 . S
C880 C879 1.387 . S
C880 C883 1.387 . S
H881 C877 0.950 . S
H882 C879 0.950 . S
C883 C874 1.390 . S
C883 H876 0.950 . S
C883 C880 1.387 . S
C884 C885 1.387 . S
C884 H888 0.950 . S
C884 C893 1.390 . S
C885 C884 1.387 . S
C885 C887 1.387 . S
H886 C893 0.950 . S
C887 C885 1.387 . S
C887 C889 1.390 . S
C887 H891 0.950 . S
H888 C884 0.950 . S
C889 C887 1.390 . S
C889 C890 1.387 . S
C889 H892 0.950 . S
C890 C889 1.387 . S
C890 C893 1.387 . S
H891 C887 0.950 . S
H892 C889 0.950 . S
C893 C884 1.390 . S
C893 H886 0.950 . S
C893 C890 1.387 . S
C894 C895 1.387 . S
C894 H898 0.950 . S
C894 C903 1.390 . S
C895 C894 1.387 . S
C895 C897 1.387 . S
H896 C903 0.950 . S
C897 C895 1.387 . S
C897 C899 1.390 . S
C897 H901 0.950 . S
H898 C894 0.950 . S
C899 C897 1.390 . S
C899 C900 1.387 . S
C899 H902 0.950 . S
C900 C899 1.387 . S
C900 C903 1.387 . S
H901 C897 0.950 . S
H902 C899 0.950 . S
C903 C894 1.390 . S
C903 H896 0.950 . S
C903 C900 1.387 . S
C904 C905 1.387 . S
C904 H908 0.950 . S
C904 C913 1.390 . S
C905 C904 1.387 . S
C905 C907 1.387 . S
H906 C913 0.950 . S
C907 C905 1.387 . S
C907 C909 1.390 . S
C907 H911 0.950 . S
H908 C904 0.950 . S
C909 C907 1.390 . S
C909 C910 1.387 . S
C909 H912 0.950 . S
C910 C909 1.387 . S
C910 C913 1.387 . S
H911 C907 0.950 . S
H912 C909 0.950 . S
C913 C904 1.390 . S
C913 H906 0.950 . S
C913 C910 1.387 . S
C914 C915 1.387 . S
C914 H918 0.950 . S
C914 C923 1.390 . S
C915 C914 1.387 . S
C915 C917 1.387 . S
H916 C923 0.950 . S
C917 C915 1.387 . S
C917 C919 1.390 . S
C917 H921 0.950 . S
H918 C914 0.950 . S
C919 C917 1.390 . S
C919 C920 1.387 . S
C919 H922 0.950 . S
C920 C919 1.387 . S
C920 C923 1.387 . S
H921 C917 0.950 . S
H922 C919 0.950 . S
C923 C914 1.390 . S
C923 H916 0.950 . S
C923 C920 1.387 . S
C924 C925 1.387 . S
C924 H928 0.950 . S
C924 C933 1.390 . S
C925 C924 1.387 . S
C925 C927 1.387 . S
H926 C933 0.950 . S
C927 C925 1.387 . S
C927 C929 1.390 . S
C927 H931 0.950 . S
H928 C924 0.950 . S
C929 C927 1.390 . S
C929 C930 1.387 . S
C929 H932 0.950 . S
C930 C929 1.387 . S
C930 C933 1.387 . S
H931 C927 0.950 . S
H932 C929 0.950 . S
C933 C924 1.390 . S
C933 H926 0.950 . S
C933 C930 1.387 . S
C934 C935 1.387 . S
C934 H938 0.950 . S
C934 C943 1.390 . S
C935 C934 1.387 . S
C935 C937 1.387 . S
H936 C943 0.950 . S
C937 C935 1.387 . S
C937 C939 1.390 . S
C937 H941 0.950 . S
H938 C934 0.950 . S
C939 C937 1.390 . S
C939 C940 1.387 . S
C939 H942 0.950 . S
C940 C939 1.387 . S
C940 C943 1.387 . S
H941 C937 0.950 . S
H942 C939 0.950 . S
C943 C934 1.390 . S
C943 H936 0.950 . S
C943 C940 1.387 . S
C944 C945 1.387 1_554 S
C944 H948 0.950 . S
C944 C953 1.390 . S
C945 C944 1.387 1_556 S
C945 C947 1.387 1_556 S
H946 C953 0.950 . S
C947 C945 1.387 1_554 S
C947 C949 1.390 . S
C947 H951 0.950 . S
H948 C944 0.950 . S
C949 C947 1.390 . S
C949 C950 1.387 . S
C949 H952 0.950 . S
C950 C949 1.387 . S
C950 C953 1.387 . S
H951 C947 0.950 . S
H952 C949 0.950 . S
C953 C944 1.390 . S
C953 H946 0.950 . S
C953 C950 1.387 . S
C954 C955 1.387 . S
C954 H958 0.950 . S
C954 C963 1.390 . S
C955 C954 1.387 . S
C955 C957 1.387 . S
H956 C963 0.950 . S
C957 C955 1.387 . S
C957 C959 1.390 . S
C957 H961 0.950 . S
H958 C954 0.950 . S
C959 C957 1.390 . S
C959 C960 1.387 1_556 S
C959 H962 0.950 . S
C960 C959 1.387 1_554 S
C960 C963 1.387 1_554 S
H961 C957 0.950 . S
H962 C959 0.950 . S
C963 C954 1.390 . S
C963 H956 0.950 . S
C963 C960 1.387 1_556 S
C964 C965 1.387 . S
C964 H968 0.950 . S
C964 C973 1.390 . S
C965 C964 1.387 . S
C965 C967 1.387 . S
H966 C973 0.950 . S
C967 C965 1.387 . S
C967 C969 1.390 . S
C967 H971 0.950 . S
H968 C964 0.950 . S
C969 C967 1.390 . S
C969 C970 1.387 1_554 S
C969 H972 0.950 . S
C970 C969 1.387 1_556 S
C970 C973 1.387 1_556 S
H971 C967 0.950 . S
H972 C969 0.950 . S
C973 C964 1.390 . S
C973 H966 0.950 . S
C973 C970 1.387 1_554 S
C974 C975 1.387 1_556 S
C974 H978 0.950 . S
C974 C983 1.390 . S
C975 C974 1.387 1_554 S
C975 C977 1.387 1_554 S
H976 C983 0.950 . S
C977 C975 1.387 1_556 S
C977 C979 1.390 . S
C977 H981 0.950 . S
H978 C974 0.950 . S
C979 C977 1.390 . S
C979 C980 1.387 . S
C979 H982 0.950 . S
C980 C979 1.387 . S
C980 C983 1.387 . S
H981 C977 0.950 . S
H982 C979 0.950 . S
C983 C974 1.390 . S
C983 H976 0.950 . S
C983 C980 1.387 . S
C984 C985 1.387 . S
C984 H988 0.950 . S
C984 C993 1.390 . S
C985 C984 1.387 . S
C985 C987 1.387 . S
H986 C993 0.950 . S
C987 C985 1.387 . S
C987 C989 1.390 . S
C987 H991 0.950 . S
H988 C984 0.950 . S
C989 C987 1.390 . S
C989 C990 1.387 1_554 S
C989 H992 0.947 1_554 S
C990 C989 1.387 1_556 S
C990 C993 1.387 1_556 S
H991 C987 0.950 . S
H992 C989 0.947 1_556 S
C993 C984 1.390 . S
C993 H986 0.950 . S
C993 C990 1.387 1_554 S
C994 C995 1.387 1_556 S
C994 H998 0.950 1_556 S
C994 C1003 1.390 . S
C995 C994 1.387 1_554 S
C995 C997 1.387 1_554 S
H996 C1003 0.950 . S
C997 C995 1.387 1_556 S
C997 C999 1.390 . S
C997 H1001 0.950 . S
H998 C994 0.950 1_554 S
C999 C997 1.390 . S
C999 C1000 1.387 . S
C999 H1002 0.950 . S
C1000 C999 1.387 . S
C1000 C1003 1.387 . S
H1001 C997 0.950 . S
H1002 C999 0.950 . S
C1003 C994 1.390 . S
C1003 H996 0.950 . S
C1003 C1000 1.387 . S
C1004 C1005 1.387 1_554 S
C1004 H1008 0.950 . S
C1004 C1013 1.390 . S
C1005 C1004 1.387 1_556 S
C1005 C1007 1.387 1_556 S
H1006 C1013 0.950 . S
C1007 C1005 1.387 1_554 S
C1007 C1009 1.390 . S
C1007 H1011 0.949 1_554 S
H1008 C1004 0.950 . S
C1009 C1007 1.390 . S
C1009 C1010 1.387 . S
C1009 H1012 0.950 . S
C1010 C1009 1.387 . S
C1010 C1013 1.387 . S
H1011 C1007 0.949 1_556 S
H1012 C1009 0.950 . S
C1013 C1004 1.390 . S
C1013 H1006 0.950 . S
C1013 C1010 1.387 . S
C1014 C1015 1.387 . S
C1014 H1018 0.950 . S
C1014 C1023 1.390 . S
C1015 C1014 1.387 . S
C1015 C1017 1.387 . S
H1016 C1023 0.950 1_554 S
C1017 C1015 1.387 . S
C1017 C1019 1.390 . S
C1017 H1021 0.950 . S
H1018 C1014 0.950 . S
C1019 C1017 1.390 . S
C1019 C1020 1.387 1_556 S
C1019 H1022 0.950 . S
C1020 C1019 1.387 1_554 S
C1020 C1023 1.387 1_554 S
H1021 C1017 0.950 . S
H1022 C1019 0.950 . S
C1023 C1014 1.390 . S
C1023 H1016 0.950 1_556 S
C1023 C1020 1.387 1_556 S
C545 C382 1.699 . S
C550 C13 1.684 . S
C555 C289 1.698 . S
C560 C38 1.682 . S
C565 C81 1.682 . S
C570 C314 1.697 . S
C575 C106 1.684 . S
C580 C357 1.699 . S
C585 C149 1.684 . S
C590 C178 1.699 . S
C595 C221 1.698 . S
C600 C174 1.682 . S
C605 C217 1.684 . S
C610 C246 1.699 . S
C615 C153 1.698 . S
C620 C242 1.682 . S
C625 C110 1.699 . S
C630 C285 1.684 . S
C635 C310 1.682 . S
C640 C17 1.697 . S
C645 C42 1.698 . S
C650 C353 1.683 . S
C655 C85 1.699 . S
C660 C378 1.684 . S
C665 C421 1.682 . S
C670 C450 1.697 . S
C675 C493 1.699 . S
C680 C446 1.684 . S
C685 C518 1.699 . S
C690 C489 1.684 . S
C695 C514 1.682 . S
C700 C425 1.697 . S
C705 C4 1.280 . S
C710 C140 1.280 . S
C715 C183 1.280 . S
C720 C47 1.280 . S
C725 C72 1.283 . S
C730 C208 1.283 . S
C735 C115 1.280 . S
C740 C251 1.280 . S
C745 C276 1.280 . S
C750 C412 1.280 . S
C755 C455 1.280 . S
C760 C319 1.280 . S
C765 C344 1.280 . S
C770 C480 1.280 . S
C775 C387 1.280 . S
C780 C523 1.280 . S
C785 C484 2.229 . S
C790 C8 2.229 1_556 S
C795 C51 2.230 1_554 S
C800 C527 2.230 . S
C805 C76 2.229 1_556 S
C810 C416 2.229 . S
C815 C119 2.230 1_554 S
C820 C459 2.230 . S
C825 C144 2.229 . S
C830 C348 2.229 . S
C835 C187 2.230 . S
C840 C391 2.230 . S
C845 C212 2.230 . S
C850 C280 2.230 . S
C855 C323 2.230 . S
C860 C255 2.230 . S
C865 C29 1.026 . S
C870 C0 1.026 . S
C875 C34 1.024 . S
C880 C63 1.024 . S
C885 C97 1.026 . S
C890 C68 1.026 . S
C895 C131 1.024 . S
C900 C102 1.024 . S
C905 C136 1.024 . S
C910 C165 1.024 . S
C915 C170 1.024 . S
C920 C199 1.024 . S
C925 C233 1.026 . S
C930 C204 1.026 . S
C935 C267 1.024 . S
C940 C238 1.024 . S
C945 C301 1.024 . S
C950 C272 1.024 . S
C955 C335 1.026 . S
C960 C306 1.026 . S
C965 C340 1.024 . S
C970 C369 1.024 . S
C975 C374 1.024 . S
C980 C403 1.024 . S
C985 C437 1.024 . S
C990 C408 1.024 . S
C995 C471 1.024 . S
C1000 C442 1.024 . S
C1005 C476 1.024 . S
C1010 C505 1.024 . S
C1015 C510 1.024 . S
C1020 C539 1.024 . S
