# Generated by pormake.
# Topology rkf, (6)-cn, num edge types: 1
# Building blocks:
#     Node 0, Type 0, BuildingBlock: BETGAK_clean_sbu_0, # of connection points: 6
#     Node 1, Type 0, BuildingBlock: BETGAK_clean_sbu_0, # of connection points: 6
#     Node 2, Type 0, BuildingBlock: BETGAK_clean_sbu_0, # of connection points: 6
#     Node 3, Type 0, BuildingBlock: BETGAK_clean_sbu_0, # of connection points: 6
#     Node 4, Type 0, BuildingBlock: BETGAK_clean_sbu_0, # of connection points: 6
#     Node 5, Type 0, BuildingBlock: BETGAK_clean_sbu_0, # of connection points: 6
#     Edge 6, Type (0, 0), BuildingBlock: ZUJKAS_clean_linker_0, # of connection points: 2
#     Edge 7, Type (0, 0), BuildingBlock: ZUJKAS_clean_linker_0, # of connection points: 2
#     Edge 8, Type (0, 0), BuildingBlock: ZUJKAS_clean_linker_0, # of connection points: 2
#     Edge 9, Type (0, 0), BuildingBlock: ZUJKAS_clean_linker_0, # of connection points: 2
#     Edge 10, Type (0, 0), BuildingBlock: ZUJKAS_clean_linker_0, # of connection points: 2
#     Edge 11, Type (0, 0), BuildingBlock: ZUJKAS_clean_linker_0, # of connection points: 2
#     Edge 12, Type (0, 0), BuildingBlock: ZUJKAS_clean_linker_0, # of connection points: 2
#     Edge 13, Type (0, 0), BuildingBlock: ZUJKAS_clean_linker_0, # of connection points: 2
#     Edge 14, Type (0, 0), BuildingBlock: ZUJKAS_clean_linker_0, # of connection points: 2
#     Edge 15, Type (0, 0), BuildingBlock: ZUJKAS_clean_linker_0, # of connection points: 2
#     Edge 16, Type (0, 0), BuildingBlock: ZUJKAS_clean_linker_0, # of connection points: 2
#     Edge 17, Type (0, 0), BuildingBlock: ZUJKAS_clean_linker_0, # of connection points: 2
#     Edge 18, Type (0, 0), BuildingBlock: ZUJKAS_clean_linker_0, # of connection points: 2
#     Edge 19, Type (0, 0), BuildingBlock: ZUJKAS_clean_linker_0, # of connection points: 2
#     Edge 20, Type (0, 0), BuildingBlock: ZUJKAS_clean_linker_0, # of connection points: 2
#     Edge 21, Type (0, 0), BuildingBlock: ZUJKAS_clean_linker_0, # of connection points: 2
#     Edge 22, Type (0, 0), BuildingBlock: ZUJKAS_clean_linker_0, # of connection points: 2
#     Edge 23, Type (0, 0), BuildingBlock: ZUJKAS_clean_linker_0, # of connection points: 2
# Relax obj value: 0.556
# Max RMSD: 0.250
# Mean RMSD: 0.250
data_MOF--net-rkf--node1-BETGAK_clean_sbu_0--edge1-ZUJKAS_clean_linker_0
_symmetry_space_group_name_H-M    P1
_symmetry_Int_Tables_number       1
_symmetry_cell_setting            triclinic
loop_
_symmetry_equiv_pos_as_xyz
'x, y, z'
_cell_length_a     32.462951
_cell_length_b     32.272023
_cell_length_c     58.111381
_cell_angle_alpha  90.077259
_cell_angle_beta   89.757065
_cell_angle_gamma 120.42314
loop_
_atom_site_label
_atom_site_type_symbol
_atom_site_fract_x
_atom_site_fract_y
_atom_site_fract_z
_atom_type_partial_charge
La0 La 0.24784 0.04517 0.11592 0.0
La1 La 0.32006 0.1439 1.10193 0.0
C2 C 0.2088 0.96134 0.1321 0.0
C3 C 0.21456 0.93748 0.15216 0.0
C4 C 0.19065 0.88723 0.15283 0.0
C5 C 0.19651 0.86371 0.17157 0.0
C6 C 0.22638 0.8902 0.18994 0.0
C7 C 0.2512 0.94074 0.18887 0.0
C8 C 0.24544 0.96421 0.17007 0.0
C9 C 0.21183 0.09559 1.0988 0.0
C10 C 0.28728 0.1281 0.15461 0.0
C11 C 0.37203 0.22788 1.08654 0.0
C12 C 0.38906 0.2573 1.06562 0.0
C13 C 0.43559 0.29705 1.06537 0.0
C14 C 0.45181 0.32856 1.04668 0.0
C15 C 0.42161 0.32083 1.02792 0.0
C16 C 0.37539 0.28001 1.02795 0.0
C17 C 0.3593 0.24844 1.04663 0.0
C18 C 0.35504 0.09548 0.12231 0.0
C19 C 0.26614 0.06006 1.06247 0.0
O20 O 0.193 -0.00905 0.13592 0.0
O21 O 0.24472 0.97898 0.11764 0.0
O22 O 0.19143 0.04924 1.09727 0.0
O23 O 0.248 0.11095 0.11128 0.0
O24 O 0.26685 0.0813 0.15014 0.0
O25 O 0.30664 0.15986 0.13752 0.0
O26 O 0.38721 0.19785 1.09002 0.0
O27 O 0.32701 0.20971 1.09223 0.0
O28 O 0.36931 0.14027 0.12571 0.0
O29 O 0.32235 0.07918 0.10735 0.0
O30 O 0.29716 0.10621 1.06743 0.0
O31 O 0.24472 0.02865 1.07926 0.0
H32 H 0.16733 0.86618 0.13889 0.0
H33 H 0.17727 0.82479 0.17179 0.0
H34 H 0.27386 0.96222 0.20289 0.0
H35 H 0.26472 0.00311 0.16961 0.0
H36 H 0.45909 0.30433 1.07992 0.0
H37 H 0.48774 0.35929 1.04705 0.0
H38 H 0.35091 0.27332 1.01394 0.0
H39 H 0.32331 0.21803 1.04644 0.0
La40 La 0.2929 0.25885 0.44865 0.0
La41 La 0.25754 0.32651 0.43945 0.0
C42 C 0.34213 0.22226 0.46038 0.0
C43 C 0.36822 0.22089 0.48055 0.0
C44 C 0.38342 0.18734 0.48136 0.0
C45 C 0.40868 0.18566 0.50037 0.0
C46 C 0.41922 0.21772 0.51879 0.0
C47 C 0.40467 0.25199 0.51766 0.0
C48 C 0.37925 0.25351 0.49868 0.0
C49 C 0.20417 0.21913 0.43427 0.0
C50 C 0.25207 0.29396 0.49139 0.0
C51 C 0.21606 0.37128 0.42777 0.0
C52 C 0.18684 0.37313 0.40923 0.0
C53 C 0.16992 0.40516 0.41118 0.0
C54 C 0.14027 0.40651 0.39429 0.0
C55 C 0.12714 0.3758 0.37516 0.0
C56 C 0.14443 0.34373 0.37325 0.0
C57 C 0.17404 0.34234 0.39024 0.0
C58 C 0.34721 0.36737 0.45348 0.0
C59 C 0.28514 0.28031 0.39631 0.0
O60 O 0.29546 0.1998 0.46216 0.0
O61 O 0.35974 0.26439 0.45055 0.0
O62 O 0.23235 0.20295 0.42898 0.0
O63 O 0.22532 0.25336 0.44803 0.0
O64 O 0.27793 0.27425 0.48471 0.0
O65 O 0.23705 0.31352 0.47594 0.0
O66 O 0.26076 0.38586 0.42286 0.0
O67 O 0.19605 0.33196 0.4401 0.0
O68 O 0.31764 0.38134 0.45916 0.0
O69 O 0.32656 0.33297 0.4396 0.0
O70 O 0.26066 0.30094 0.40372 0.0
O71 O 0.30593 0.26582 0.41132 0.0
H72 H 0.37549 0.16223 0.46735 0.0
H73 H 0.41956 0.159 0.50078 0.0
H74 H 0.4115 0.27654 0.53179 0.0
H75 H 0.36787 0.27979 0.49822 0.0
H76 H 0.17922 0.4288 0.42593 0.0
H77 H 0.12698 0.43104 0.39643 0.0
H78 H 0.13528 0.31989 0.35861 0.0
H79 H 0.18669 0.31718 0.38863 0.0
La80 La 0.10215 0.31694 0.78511 0.0
La81 La 0.00045 0.26105 0.76826 0.0
C82 C 0.18504 0.38607 0.79262 0.0
C83 C 0.217 0.40639 0.81235 0.0
C84 C 0.211 0.37824 0.83178 0.0
C85 C 0.24252 0.39765 0.8502 0.0
C86 C 0.28028 0.44574 0.84962 0.0
C87 C 0.28549 0.47404 0.83023 0.0
C88 C 0.25404 0.45443 0.81172 0.0
C89 C 0.06412 0.22398 0.79005 0.0
C90 C 0.02214 0.26769 0.82371 0.0
C91 C 0.91333 0.20397 0.75961 0.0
C92 C 0.87592 0.19441 0.74277 0.0
C93 C 0.82809 0.16916 0.74993 0.0
C94 C 0.7914 0.14988 0.7337 0.0
C95 C 0.80207 0.15523 0.71003 0.0
C96 C 0.85003 0.18405 0.70301 0.0
C97 C 0.88666 0.20355 0.71926 0.0
C98 C 0.04203 0.35582 0.76569 0.0
C99 C 0.08137 0.28976 0.73053 0.0
O100 O 0.17586 0.34351 0.78579 0.0
O101 O 0.14672 0.38978 0.79322 0.0
O102 O 0.10001 0.2558 0.80205 0.0
O103 O 0.05563 0.24527 0.77402 0.0
O104 O 0.06756 0.30144 0.81966 0.0
O105 O -0.00806 0.24688 0.80623 0.0
O106 O 0.92835 0.24169 0.77284 0.0
O107 O 0.94827 0.19834 0.75219 0.0
O108 O 0.01188 0.32644 0.75078 0.0
O109 O 0.04563 0.33159 0.78162 0.0
O110 O 0.03539 0.26105 0.73554 0.0
O111 O 0.11176 0.31743 0.74684 0.0
H112 H 0.18237 0.34109 0.83256 0.0
H113 H 0.23795 0.37451 0.86464 0.0
H114 H 0.31385 0.51126 0.82935 0.0
H115 H 0.2588 0.47668 0.79685 0.0
H116 H 0.81916 0.16188 0.76803 0.0
H117 H 0.75482 0.12864 0.73968 0.0
H118 H 0.85968 0.18863 0.68495 0.0
H119 H 0.92344 0.22307 0.71338 0.0
La120 La 0.8646 0.08301 0.1138 0.0
La121 La 0.79421 0.98605 1.09808 0.0
C122 C 0.90319 0.17157 0.12156 0.0
C123 C 0.90027 0.20095 0.13997 0.0
C124 C 0.93783 0.2481 0.143 0.0
C125 C 0.9371 0.27544 0.16145 0.0
C126 C 0.89867 0.25595 0.17714 0.0
C127 C 0.86006 0.20922 0.17341 0.0
C128 C 0.86095 0.18182 0.15501 0.0
C129 C 0.89981 0.02733 1.1019 0.0
C130 C 0.82342 0.0063 0.15309 0.0
C131 C 0.74878 0.89709 1.08994 0.0
C132 C 0.7391 0.86509 1.07029 0.0
C133 C 0.72154 0.81618 1.0743 0.0
C134 C 0.71504 0.78544 1.056 0.0
C135 C 0.72588 0.80324 1.03338 0.0
C136 C 0.74234 0.85218 1.02937 0.0
C137 C 0.74913 0.88299 1.04773 0.0
C138 C 0.75816 0.04138 1.10561 0.0
C139 C 0.84762 0.06555 1.05844 0.0
O140 O 0.9226 0.14593 0.12717 0.0
O141 O 0.86429 0.14712 0.10937 0.0
O142 O 0.91905 0.06112 0.11728 0.0
O143 O 0.86676 0.03056 1.09313 0.0
O144 O 0.84522 0.05288 0.14859 0.0
O145 O 0.80365 0.97476 0.13582 0.0
O146 O 0.72962 0.92427 1.08936 0.0
O147 O 0.79321 0.92062 1.09682 0.0
O148 O 0.74632 0.01118 1.0888 0.0
O149 O 0.78843 0.03875 0.11828 0.0
O150 O 0.82082 0.01844 1.06298 0.0
O151 O 0.86535 0.09633 1.07596 0.0
H152 H 0.96839 0.26328 0.13149 0.0
H153 H 0.96782 0.31093 0.16404 0.0
H154 H 0.82981 0.19335 0.18509 0.0
H155 H 0.83151 0.14538 0.15283 0.0
H156 H 0.71371 0.80192 1.09166 0.0
H157 H 0.70208 0.74786 1.05954 0.0
H158 H 0.75162 0.86697 1.01214 0.0
H159 H 0.76308 0.92084 1.0444 0.0
La160 La 0.8098 0.86235 0.4518 0.0
La161 La 0.89712 0.85935 0.43918 0.0
C162 C 0.72568 0.84566 0.45749 0.0
C163 C 0.69947 0.84911 0.47739 0.0
C164 C 0.70696 0.8372 0.4996 0.0
C165 C 0.68903 0.84916 0.51878 0.0
C166 C 0.66393 0.87379 0.51607 0.0
C167 C 0.6543 0.88329 0.49376 0.0
C168 C 0.67181 0.87087 0.47457 0.0
C169 C 0.88763 0.94751 0.45148 0.0
C170 C 0.87413 0.86468 0.49314 0.0
C171 C -0.0212 0.8685 0.43641 0.0
C172 C 0.00674 0.85627 0.42088 0.0
C173 C 0.0368 0.84147 0.4304 0.0
C174 C 0.06354 0.82897 0.41618 0.0
C175 C 0.06073 0.83124 0.39213 0.0
C176 C 0.03025 0.84592 0.38266 0.0
C177 C 0.00326 0.8581 0.39692 0.0
C178 C 0.81657 0.77627 0.43821 0.0
C179 C 0.84268 0.87103 0.39723 0.0
O180 O 0.76114 0.88682 0.45049 0.0
O181 O 0.73727 0.81227 0.45805 0.0
O182 O 0.85256 0.93423 0.46596 0.0
O183 O 0.87743 0.91293 0.43811 0.0
O184 O 0.83029 0.85448 0.48735 0.0
O185 O 0.90661 0.87474 0.47676 0.0
O186 O 0.94203 0.83194 0.44612 0.0
O187 O 0.96928 0.90146 0.4296 0.0
O188 O 0.85097 0.78831 0.42351 0.0
O189 O 0.82908 0.80906 0.45282 0.0
O190 O 0.88351 0.87484 0.40406 0.0
O191 O 0.80799 0.86113 0.41272 0.0
H192 H 0.72873 0.82095 0.50223 0.0
H193 H 0.69756 0.84199 0.53578 0.0
H194 H 0.63493 0.90211 0.49122 0.0
H195 H 0.66593 0.88059 0.45757 0.0
H196 H 0.03951 0.83948 0.4489 0.0
H197 H 0.08618 0.81731 0.42401 0.0
H198 H 0.02786 0.84889 0.36422 0.0
H199 H -0.02003 0.86915 0.38924 0.0
La200 La 0.03206 0.81077 0.78161 0.0
La201 La 0.10671 0.90694 0.77326 0.0
C202 C -0.01264 0.72301 0.79252 0.0
C203 C 0.95967 0.69742 0.81308 0.0
C204 C 0.97399 0.71815 0.83497 0.0
C205 C 0.94221 0.70025 0.85348 0.0
C206 C 0.89542 0.66156 0.8504 0.0
C207 C 0.88247 0.63857 0.82889 0.0
C208 C 0.91445 0.65637 0.81037 0.0
C209 C -0.00019 0.86954 0.78829 0.0
C210 C 0.09566 0.87982 0.82491 0.0
C211 C 0.16855 -0.00786 0.7627 0.0
C212 C 0.21176 0.0152 0.74817 0.0
C213 C 0.25617 0.04531 0.75851 0.0
C214 C 0.29807 0.06621 0.74542 0.0
C215 C 0.29634 0.05776 0.72163 0.0
C216 C 0.25167 0.02777 0.71128 0.0
C217 C 0.20982 0.00651 0.72442 0.0
C218 C 0.12819 0.83761 0.7661 0.0
C219 C 0.03326 0.85438 0.73242 0.0
O220 O 0.9688 0.74398 0.78081 0.0
O221 O 0.0336 0.7509 0.79494 0.0
O222 O 0.97505 0.8263 0.78045 0.0
O223 O 0.0414 0.8783 0.79306 0.0
O224 O 0.06906 0.83471 0.81686 0.0
O225 O 0.10654 0.91532 0.81044 0.0
O226 O 0.1714 0.96949 0.7806 0.0
O227 O 0.12705 0.9679 0.75257 0.0
O228 O 0.15519 0.8769 0.77699 0.0
O229 O 0.09225 0.83897 0.76026 0.0
O230 O 0.06196 0.89617 0.74253 0.0
O231 O 0.02217 0.81401 0.74369 0.0
H232 H 0.00854 0.75007 0.83749 0.0
H233 H 0.95315 0.71917 0.86974 0.0
H234 H 0.84679 0.60848 0.82608 0.0
H235 H 0.90271 0.64002 0.79357 0.0
H236 H 0.2585 0.05234 0.77684 0.0
H237 H 0.33182 0.08877 0.75397 0.0
H238 H 0.24883 0.02134 0.6929 0.0
H239 H 0.17608 0.98338 0.71597 0.0
H240 H -0.01058 0.04091 0.10876 0.0
H241 H 0.0408 0.0411 1.07789 0.0
H242 H 0.92219 0.98232 1.03085 0.0
H243 H 0.86934 0.9756 1.06235 0.0
H244 H 0.04345 0.98564 1.03321 0.0
H245 H 0.00941 0.13507 1.01774 0.0
H246 H -0.01212 0.10487 1.04495 0.0
H247 H 0.96238 0.07278 1.01866 0.0
C248 C 0.97382 0.02556 1.09223 0.0
C249 C 0.92616 0.01078 1.08758 0.0
C250 C 0.00317 0.02612 1.07448 0.0
C251 C -0.0144 0.01429 1.05186 0.0
C252 C 0.93656 -0.00749 1.04806 0.0
H253 H 0.25811 0.14808 1.06011 0.0
H254 H 0.2146 0.15239 1.02721 0.0
C255 C 0.90668 -0.01057 1.06609 0.0
C256 C 0.02006 0.03713 1.03286 0.0
H257 H 0.0917 0.15696 1.02447 0.0
C258 C 0.05352 0.02257 1.02958 0.0
C259 C 0.03251 0.08445 1.02656 0.0
C260 C -0.00392 0.10032 1.02687 0.0
C261 C 0.10182 0.05712 1.02651 0.0
C262 C 0.1157 0.10635 1.02853 0.0
C263 C 0.08111 0.11924 1.02447 0.0
C264 C 0.15074 0.13343 1.0468 0.0
C265 C 0.1378 0.04076 1.02713 0.0
C266 C 0.13198 0.12808 1.0692 0.0
C267 C 0.15526 0.12138 1.08765 0.0
C268 C 0.19931 0.12451 1.0841 0.0
C269 C 0.22311 0.14256 1.06302 0.0
C270 C 0.19861 0.14632 1.04418 0.0
H271 H 0.12296 0.00444 1.01943 0.0
H272 H 0.17075 0.06622 1.01766 0.0
H273 H 0.14735 0.03883 1.04527 0.0
H274 H 0.09589 0.12079 1.07184 0.0
H275 H 0.13654 0.10862 1.10392 0.0
H276 H 0.84834 0.00371 0.44489 0.0
H277 H 0.87729 0.07102 0.41774 0.0
H278 H 0.00584 0.06475 0.40724 0.0
H279 H -0.02409 -0.00361 0.43329 0.0
H280 H 0.94516 0.15772 0.41326 0.0
H281 H 0.97577 0.07041 0.34167 0.0
H282 H 0.93586 0.03532 0.36487 0.0
H283 H -0.00177 0.0523 0.36525 0.0
C284 C 0.88332 0.01767 0.43713 0.0
C285 C 0.91045 -0.00446 0.44129 0.0
C286 C 0.89931 0.05543 0.42132 0.0
C287 C 0.94253 0.07135 0.40953 0.0
C288 C 0.97107 0.0514 0.41511 0.0
H289 H 0.18865 0.19753 0.38839 0.0
H290 H 0.12644 0.19644 0.36474 0.0
C291 C 0.95479 0.01332 0.43053 0.0
C292 C 0.96101 0.11133 0.39275 0.0
H293 H 0.051 0.15043 0.35398 0.0
C294 C 0.96755 0.15585 0.39989 0.0
C295 C -0.01407 0.11037 0.37293 0.0
C296 C 0.97276 0.06426 0.36056 0.0
C297 C 0.0079 0.19819 0.39212 0.0
C298 C 0.04397 0.19362 0.3807 0.0
C299 C 0.0277 0.15274 0.36663 0.0
C300 C 0.09026 0.2096 0.39304 0.0
C301 C 0.01568 0.24638 0.39948 0.0
C302 C 0.09389 0.22029 0.41683 0.0
C303 C 0.13072 0.22282 0.42998 0.0
C304 C 0.16443 0.21353 0.42009 0.0
C305 C 0.16233 0.20401 0.39646 0.0
C306 C 0.12657 0.20359 0.38293 0.0
H307 H -0.00912 0.25398 0.38975 0.0
H308 H 0.00709 0.24597 0.41803 0.0
H309 H 0.05282 0.2757 0.39604 0.0
H310 H 0.06705 0.22406 0.42603 0.0
H311 H 0.13207 0.2308 0.44819 0.0
H312 H 0.90716 0.82297 0.80306 0.0
H313 H 0.86804 0.85555 0.82688 0.0
H314 H -0.0 -0.00791 0.8291 0.0
H315 H 0.03966 0.9589 0.80629 0.0
H316 H 0.94115 0.97103 0.87104 0.0
H317 H 0.83026 0.94076 0.7939 0.0
H318 H 0.8279 0.89239 0.81046 0.0
H319 H 0.87544 0.92475 0.78994 0.0
C320 C 0.92783 0.85992 0.80878 0.0
C321 C -0.0239 0.88919 0.80231 0.0
C322 C 0.90553 0.87815 0.82265 0.0
C323 C 0.93088 0.92616 0.82973 0.0
C324 C -0.02024 0.95458 0.82416 0.0
H325 H 0.08372 0.1711 0.81938 0.0
H326 H 0.02709 0.09695 0.83878 0.0
C327 C 0.00226 0.9361 0.81071 0.0
C328 C 0.90608 0.95095 0.8381 0.0
H329 H 0.88541 0.02229 0.80368 0.0
C330 C 0.92662 0.98173 0.857 0.0
C331 C 0.8826 0.96313 0.82137 0.0
C332 C 0.85217 0.9283 0.8029 0.0
C333 C 0.93826 0.02979 0.85534 0.0
C334 C 0.92949 0.04588 0.83428 0.0
C335 C 0.89592 0.0114 0.81914 0.0
C336 C 0.96362 0.09411 0.82472 0.0
C337 C 0.96399 0.06344 0.87499 0.0
C338 C 0.94803 0.11586 0.80886 0.0
C339 C -0.01908 0.15548 0.79615 0.0
C340 C 0.02997 0.17669 0.8 0.0
C341 C 0.04591 0.15566 0.81607 0.0
C342 C 0.01321 0.11408 0.82783 0.0
H343 H 0.94425 0.04754 0.89128 0.0
H344 H -1e-05 0.06784 0.87699 0.0
H345 H 0.96745 0.09917 0.87243 0.0
H346 H 0.91033 0.10183 0.8059 0.0
H347 H 0.96758 0.17091 0.7843 0.0
H348 H 0.40496 0.30326 0.98194 0.0
H349 H 0.41684 0.3607 0.95202 0.0
H350 H 0.48631 0.47711 1.00068 0.0
H351 H 0.47179 0.41912 1.03119 0.0
H352 H 0.42105 0.48459 0.98048 0.0
H353 H 0.51832 0.45577 0.91145 0.0
H354 H 0.47129 0.39733 0.91969 0.0
H355 H 0.51688 0.43427 0.94031 0.0
C356 C 0.42328 0.34111 0.98626 0.0
C357 C 0.43682 0.3565 1.009 0.0
C358 C 0.431 0.37418 0.96898 0.0
C359 C 0.45335 0.42352 0.97393 0.0
C360 C 0.46946 0.43931 0.99638 0.0
H361 H 0.37764 0.50479 0.847 0.0
H362 H 0.43525 0.52539 0.87812 0.0
C363 C 0.46129 0.40609 1.01378 0.0
C364 C 0.45186 0.45634 0.95657 0.0
H365 H 0.44954 0.46515 0.89837 0.0
C366 C 0.42891 0.48188 0.96257 0.0
C367 C 0.464 0.45525 0.93328 0.0
C368 C 0.49456 0.43462 0.92596 0.0
C369 C 0.41134 0.49961 0.94559 0.0
C370 C 0.41524 0.48979 0.92221 0.0
C371 C 0.44474 0.47119 0.91629 0.0
C372 C 0.38171 0.4885 0.90457 0.0
C373 C 0.38619 0.52596 0.953 0.0
C374 C 0.3324 0.46223 0.90914 0.0
C375 C 0.29951 0.45122 0.89153 0.0
C376 C 0.31509 0.46507 0.86878 0.0
C377 C 0.3644 0.49375 0.86437 0.0
C378 C 0.39743 0.5054 0.88213 0.0
H379 H 0.40537 0.55031 0.96762 0.0
H380 H 0.38364 0.54745 0.93876 0.0
H381 H 0.34968 0.49966 0.95918 0.0
H382 H 0.31903 0.44737 0.92606 0.0
H383 H 0.2618 0.42988 0.8956 0.0
H384 H 0.05316 0.29978 0.35323 0.0
H385 H 0.00347 0.3023 0.32249 0.0
H386 H 0.07834 0.45701 0.32639 0.0
H387 H 0.12923 0.45499 0.35683 0.0
H388 H 0.94367 0.3476 0.32021 0.0
H389 H 0.09854 0.42464 0.25933 0.0
H390 H 0.1001 0.39729 0.28612 0.0
H391 H 0.10422 0.45486 0.28619 0.0
C392 C 0.05912 0.33436 0.34758 0.0
C393 C 0.0954 0.37719 0.35732 0.0
C394 C 0.03035 0.33571 0.33022 0.0
C395 C 0.03743 0.37984 0.32223 0.0
C396 C 0.07252 0.42265 0.33235 0.0
H397 H 0.93227 0.35238 0.1832 0.0
H398 H 0.95624 0.39609 0.21975 0.0
C399 C 0.10137 0.42136 0.34976 0.0
C400 C 0.0107 0.3803 0.30188 0.0
H401 H 0.02248 0.39178 0.24368 0.0
C402 C 0.96085 0.35838 0.30348 0.0
C403 C 0.03341 0.39529 0.28021 0.0
C404 C 0.08698 0.41923 0.27764 0.0
C405 C 0.93274 0.34727 0.28365 0.0
C406 C 0.95517 0.35733 0.26183 0.0
C407 C 0.00525 0.38383 0.26042 0.0
C408 C 0.92885 0.33214 0.24078 0.0
C409 C 0.87922 0.32262 0.28625 0.0
C410 C 0.90401 0.28171 0.24055 0.0
C411 C 0.89066 0.2568 0.2198 0.0
C412 C 0.90224 0.28184 0.19881 0.0
C413 C 0.92352 0.33217 0.19911 0.0
C414 C 0.93686 0.35716 0.21996 0.0
H415 H 0.86947 0.33615 0.30171 0.0
H416 H 0.86227 0.32811 0.2709 0.0
H417 H 0.86451 0.2835 0.28871 0.0
H418 H 0.89865 0.26156 0.25627 0.0
H419 H 0.87498 0.21814 0.22023 0.0
H420 H 0.7896 0.18031 0.66648 0.0
H421 H 0.74122 0.1253 0.63583 0.0
H422 H 0.68227 0.00737 0.68399 0.0
H423 H 0.73147 0.06147 0.71446 0.0
H424 H 0.73124 -0.00299 0.64758 0.0
H425 H 0.60074 0.04574 0.61553 0.0
H426 H 0.66022 0.09605 0.61875 0.0
H427 H 0.62743 0.06274 0.64375 0.0
C428 C 0.76552 0.14286 0.67066 0.0
C429 C 0.76485 0.12529 0.69288 0.0
C430 C 0.7374 0.11157 0.65318 0.0
C431 C 0.70792 0.06231 0.65769 0.0
C432 C 0.70448 0.04534 0.68022 0.0
H433 H 0.62332 0.83051 0.55716 0.0
H434 H 0.62151 0.87056 0.59275 0.0
C435 C 0.73256 0.0765 0.69766 0.0
C436 C 0.68818 0.02772 0.63842 0.0
H437 H 0.61934 -0.00154 0.59019 0.0
C438 C 0.70599 -0.00344 0.63526 0.0
C439 C 0.65573 0.02774 0.62231 0.0
C440 C 0.63453 0.05956 0.62531 0.0
C441 C 0.69421 0.96709 0.61583 0.0
C442 C 0.66247 0.96771 0.59938 0.0
C443 C 0.64334 -0.00225 0.60291 0.0
C444 C 0.65318 0.94129 0.57736 0.0
C445 C 0.71829 0.93785 0.61245 0.0
C446 C 0.66843 0.96718 0.55667 0.0
C447 C 0.66873 0.94429 0.53634 0.0
C448 C 0.654 0.89515 0.53639 0.0
C449 C 0.63542 0.86854 0.55676 0.0
C450 C 0.6345 0.89138 0.57705 0.0
H451 H 0.74945 0.94973 0.62402 0.0
H452 H 0.69242 0.89957 0.61632 0.0
H453 H 0.73074 0.94039 0.59441 0.0
H454 H 0.68292 0.0057 0.55652 0.0
H455 H 0.68356 0.96577 0.52094 0.0
H456 H 0.68776 0.7948 0.99053 0.0
H457 H 0.69244 0.74934 0.9578 0.0
H458 H 0.76549 0.69743 1.00034 0.0
H459 H 0.75997 0.74174 1.03303 0.0
H460 H 0.77319 0.76746 0.93891 0.0
H461 H 0.67874 0.57733 0.96575 0.0
H462 H 0.67166 0.62234 0.98081 0.0
H463 H 0.72138 0.61407 0.9871 0.0
C464 C 0.70398 0.7729 0.99293 0.0
C465 C 0.7235 0.77174 1.01428 0.0
C466 C 0.7064 0.74677 0.9743 0.0
C467 C 0.72857 0.71926 0.97669 0.0
C468 C 0.74679 0.71701 0.99822 0.0
H469 H 0.90323 0.65412 0.89695 0.0
H470 H 0.85126 0.65764 0.92662 0.0
C471 C 0.74393 0.74267 1.01688 0.0
C472 C 0.73916 0.6989 0.95617 0.0
H473 H 0.74114 0.59995 0.9367 0.0
C474 C 0.76506 0.73048 0.93816 0.0
C475 C 0.72863 0.65065 0.9552 0.0
C476 C 0.69811 0.6141 0.97317 0.0
C477 C 0.78327 0.71605 0.91995 0.0
C478 C 0.77513 0.66869 0.91971 0.0
C479 C 0.74743 0.63631 0.93709 0.0
C480 C 0.79911 0.65436 0.90252 0.0
C481 C 0.81329 0.75229 0.9017 0.0
C482 C 0.78561 0.64914 0.87936 0.0
C483 C 0.81526 0.64735 0.8624 0.0
C484 C 0.85888 0.65088 0.86842 0.0
C485 C 0.87011 0.65187 0.89182 0.0
C486 C 0.84037 0.65356 0.90876 0.0
H487 H 0.82059 0.78902 0.90584 0.0
H488 H 0.84791 0.75353 0.89958 0.0
H489 H 0.79438 0.74136 0.88497 0.0
H490 H 0.75385 0.64979 0.8743 0.0
H491 H 0.80579 0.64705 0.84453 0.0
H492 H 0.15376 0.85441 0.39855 0.0
H493 H 0.20584 0.8459 0.37081 0.0
H494 H 0.08836 0.77681 0.32327 0.0
H495 H 0.03553 0.78266 0.3513 0.0
H496 H 0.15141 0.74069 0.32088 0.0
H497 H 0.24807 0.94135 0.31799 0.0
H498 H 0.24629 0.91281 0.34478 0.0
H499 H 0.19247 0.90756 0.3334 0.0
C500 C 0.13863 0.83608 0.38248 0.0
C501 C 0.09071 0.8202 0.37689 0.0
C502 C 0.16857 0.83153 0.3666 0.0
C503 C 0.15118 0.81169 0.34484 0.0
C504 C 0.10256 0.79246 0.33996 0.0
H505 H 0.15169 0.81452 0.21148 0.0
H506 H 0.15008 0.78607 0.25018 0.0
C507 C 0.07256 0.79651 0.35586 0.0
C508 C 0.18378 0.81714 0.32574 0.0
H509 H 0.25593 0.90166 0.28667 0.0
C510 C 0.1755 0.77591 0.31367 0.0
C511 C 0.21592 0.86313 0.31658 0.0
C512 C 0.2263 0.90886 0.32871 0.0
C513 C 0.19441 0.77945 0.29154 0.0
C514 C 0.22146 0.82525 0.28124 0.0
C515 C 0.23479 0.86648 0.2945 0.0
C516 C 0.22613 0.83158 0.25595 0.0
C517 C 0.18264 0.73401 0.27885 0.0
C518 C 0.26962 0.866 0.24593 0.0
C519 C 0.27052 0.88287 0.22368 0.0
C520 C 0.22791 0.86561 0.21117 0.0
C521 C 0.18523 0.82821 0.22051 0.0
C522 C 0.18434 0.81153 0.24269 0.0
H523 H 0.18214 0.70704 0.29088 0.0
H524 H 0.14638 0.71817 0.27133 0.0
H525 H 0.20867 0.74089 0.26481 0.0
H526 H 0.30223 0.88221 0.2559 0.0
H527 H 0.30408 0.91117 0.21675 0.0
H528 H 0.32048 0.02076 0.68504 0.0
H529 H 0.38304 0.06531 0.65684 0.0
H530 H 0.43646 0.19359 0.69808 0.0
H531 H 0.37185 0.14987 0.72569 0.0
H532 H 0.41359 0.20813 0.6582 0.0
H533 H 0.52111 0.12365 0.6429 0.0
H534 H 0.45965 0.07715 0.64314 0.0
H535 H 0.48595 0.11219 0.66882 0.0
C536 C 0.34592 0.05829 0.6883 0.0
C537 C 0.34037 0.08199 0.70732 0.0
C538 C 0.38253 0.08356 0.67239 0.0
C539 C 0.41495 0.13283 0.6754 0.0
C540 C 0.4121 0.15553 0.69547 0.0
H541 H 0.49065 0.28853 0.54475 0.0
H542 H 0.51347 0.27997 0.5839 0.0
C543 C 0.37506 0.1304 0.71127 0.0
C544 C 0.44321 0.16179 0.65536 0.0
H545 H 0.4998 0.15317 0.6076 0.0
C546 C 0.43421 0.19757 0.64752 0.0
C547 C 0.47052 0.14846 0.64149 0.0
C548 C 0.48522 0.11358 0.64974 0.0
C549 C 0.44595 0.21551 0.62507 0.0
C550 C 0.46817 0.19777 0.61023 0.0
C551 C 0.4823 0.16632 0.61894 0.0
C552 C 0.46663 0.20281 0.58503 0.0
C553 C 0.42957 0.24917 0.61673 0.0
C554 C 0.4354 0.16195 0.57226 0.0
C555 C 0.42262 0.16667 0.54999 0.0
C556 C 0.44078 0.2124 0.54015 0.0
C557 C 0.47545 0.25295 0.55216 0.0
C558 C 0.48863 0.24811 0.57443 0.0
H559 H 0.4085 0.25546 0.62994 0.0
H560 H 0.46113 0.28441 0.61222 0.0
H561 H 0.40724 0.23444 0.60109 0.0
H562 H 0.41792 0.12664 0.58015 0.0
H563 H 0.39573 0.13479 0.54121 0.0
H564 H 0.41457 0.11931 0.15835 0.0
H565 H 0.48299 0.10756 0.16191 0.0
H566 H 0.43945 0.02105 1.10041 0.0
H567 H 0.37022 0.03238 1.09688 0.0
H568 H 0.48169 -0.0092 0.1384 0.0
H569 H 0.59093 0.18302 0.11274 0.0
H570 H 0.55152 0.17027 0.13692 0.0
H571 H 0.52702 0.14861 0.10886 0.0
C572 C 0.4188 0.09659 0.14596 0.0
C573 C 0.38747 0.0771 0.12722 0.0
C574 C 0.45799 0.09011 0.14797 0.0
C575 C 0.46677 0.06429 0.13119 0.0
C576 C 0.43332 0.0413 0.11349 0.0
H577 H 0.71244 0.07083 1.07773 0.0
H578 H 0.64431 0.08024 1.08733 0.0
C579 C 0.39373 0.04758 0.11153 0.0
C580 C 0.51333 0.06604 0.13072 0.0
H581 H 0.6323 0.14221 0.12042 0.0
C582 C 0.51471 0.0239 0.13468 0.0
C583 C 0.55629 0.10935 0.12572 0.0
C584 C 0.55667 0.15541 0.12064 0.0
C585 C 0.55802 0.02388 0.13354 0.0
C586 C 0.60088 0.06715 0.12841 0.0
C587 C 0.59949 0.10933 0.12471 0.0
C588 C 0.64622 0.0679 0.12377 0.0
C589 C 0.55753 0.97731 0.13694 0.0
C590 C 0.6713 0.06007 0.14129 0.0
C591 C 0.71101 0.05548 0.13585 0.0
C592 C 0.72548 0.05814 0.11281 0.0
C593 C 0.70199 0.06878 1.09562 0.0
C594 C 0.66296 0.07393 1.10106 0.0
H595 H 0.52066 0.946 0.13831 0.0
H596 H 0.57613 0.97116 0.12241 0.0
H597 H 0.57701 0.97942 0.15295 0.0
H598 H 0.65915 0.05583 0.15898 0.0
H599 H 0.72831 0.04682 0.14936 0.0
H600 H 0.41605 0.36748 0.42598 0.0
H601 H 0.50002 0.43139 0.42312 0.0
H602 H 0.4797 0.5053 0.48003 0.0
H603 H 0.39566 0.44234 0.48249 0.0
H604 H 0.51693 0.56249 0.44282 0.0
H605 H 0.61973 0.47121 0.46027 0.0
H606 H 0.57577 0.4437 0.43804 0.0
H607 H 0.55702 0.44416 0.46714 0.0
C608 C 0.42989 0.39683 0.43821 0.0
C609 C 0.3994 0.40023 0.45438 0.0
C610 C 0.47792 0.43325 0.43662 0.0
C611 C 0.49629 0.47312 0.45143 0.0
C612 C 0.46634 0.47498 0.46839 0.0
H613 H 0.75278 0.74247 0.47346 0.0
H614 H 0.67607 0.66737 0.47515 0.0
C615 C 0.41837 0.43895 0.46983 0.0
C616 C 0.54495 0.51528 0.44792 0.0
H617 H 0.664 0.55204 0.44709 0.0
C618 C 0.54903 0.5601 0.44379 0.0
C619 C 0.58686 0.51213 0.44897 0.0
C620 C 0.58486 0.46532 0.45404 0.0
C621 C 0.5937 0.60184 0.44097 0.0
C622 C 0.63553 0.59885 0.44239 0.0
C623 C 0.63171 0.55403 0.44596 0.0
C624 C 0.68341 0.64268 0.4416 0.0
C625 C 0.59597 0.64906 0.43662 0.0
C626 C 0.71328 0.6532 0.4223 0.0
C627 C 0.75712 0.6965 0.42119 0.0
C628 C 0.77152 0.72961 0.43939 0.0
C629 C 0.74215 0.71809 0.45897 0.0
C630 C 0.69846 0.67512 0.46002 0.0
H631 H 0.56081 0.64388 0.43134 0.0
H632 H 0.60716 0.67078 0.45262 0.0
H633 H 0.62275 0.66985 0.42304 0.0
H634 H 0.7022 0.62846 0.40794 0.0
H635 H 0.77928 0.70443 0.40597 0.0
H636 H 0.03675 0.41173 0.73209 0.0
H637 H 0.05981 0.49675 0.73451 0.0
H638 H 0.10697 0.50249 0.80425 0.0
H639 H 0.08334 0.41724 0.80209 0.0
H640 H 0.02481 0.53526 0.78145 0.0
H641 H 0.21683 0.62171 0.75647 0.0
H642 H 0.1733 0.56487 0.74401 0.0
H643 H 0.18867 0.56769 0.77375 0.0
C644 C 0.05237 0.43119 0.74788 0.0
C645 C 0.05862 0.4079 0.76682 0.0
C646 C 0.06556 0.47973 0.74923 0.0
C647 C 0.08535 0.50591 0.7695 0.0
C648 C 0.09213 0.48298 0.78838 0.0
H649 H 0.18296 0.81328 0.79297 0.0
H650 H 0.17557 0.73341 0.79555 0.0
C651 C 0.07883 0.43436 0.78707 0.0
C652 C 0.09658 0.55651 0.77121 0.0
H653 H 0.18512 0.67271 0.76184 0.0
C654 C 0.05991 0.56537 0.77733 0.0
C655 C 0.14252 0.59564 0.76611 0.0
C656 C 0.18291 0.5875 0.75971 0.0
C657 C 0.06769 0.61236 0.77795 0.0
C658 C 0.11312 0.65152 0.77178 0.0
C659 C 0.15029 0.64276 0.76645 0.0
C660 C 0.12123 0.70106 0.76927 0.0
C661 C 0.02704 0.61965 0.78513 0.0
C662 C 0.09456 0.70982 0.75312 0.0
C663 C 0.09877 0.75495 0.75164 0.0
C664 C 0.13006 0.79268 0.76613 0.0
C665 C 0.15869 0.78486 0.78155 0.0
C666 C 0.15433 0.73927 0.78309 0.0
H667 H 0.00016 0.58911 0.79568 0.0
H668 H 0.04022 0.65336 0.79514 0.0
H669 H 0.00878 0.62216 0.76955 0.0
H670 H 0.06962 0.68132 0.74192 0.0
H671 H 0.07644 0.75997 0.73948 0.0
H672 H 0.23598 0.07481 0.19272 0.0
H673 H 0.2343 0.10188 0.23193 0.0
H674 H 0.33932 0.24671 0.21268 0.0
H675 H 0.33907 0.22005 0.17318 0.0
H676 H 0.28762 0.13425 0.26595 0.0
H677 H 0.25693 0.2828 0.24489 0.0
H678 H 0.25441 0.24158 0.22326 0.0
H679 H 0.31103 0.2923 0.23175 0.0
C680 C 0.25852 0.11261 0.19668 0.0
C681 C 0.2873 0.14501 0.17923 0.0
C682 C 0.25765 0.12829 0.21942 0.0
C683 C 0.28574 0.17711 0.22595 0.0
C684 C 0.31552 0.20926 0.20859 0.0
H685 H 0.34422 0.25403 0.37453 0.0
H686 H 0.34481 0.23122 0.33455 0.0
C687 C 0.31582 0.19371 0.18574 0.0
C688 C 0.28475 0.19354 0.25079 0.0
H689 H 0.28085 0.28095 0.28346 0.0
C690 C 0.28591 0.16631 0.26954 0.0
C691 C 0.28142 0.23484 0.25641 0.0
C692 C 0.27533 0.26423 0.23802 0.0
C693 C 0.2847 0.17907 0.29293 0.0
C694 C 0.28426 0.22192 0.29854 0.0
C695 C 0.2821 0.24865 0.27981 0.0
C696 C 0.28557 0.23913 0.32342 0.0
C697 C 0.28208 0.14488 0.31133 0.0
C698 C 0.25431 0.25485 0.33124 0.0
C699 C 0.25492 0.26963 0.35439 0.0
C700 C 0.28661 0.26902 0.37083 0.0
C701 C 0.31867 0.25463 0.36282 0.0
C702 C 0.3186 0.24073 0.33969 0.0
H703 H 0.26558 0.10755 0.30468 0.0
H704 H 0.31877 0.15574 0.31703 0.0
H705 H 0.26101 0.14478 0.32645 0.0
H706 H 0.22849 0.25486 0.3195 0.0
H707 H 0.22956 0.28033 0.35954 0.0
H708 H 0.25761 0.24332 0.52951 0.0
H709 H 0.22926 0.24077 0.56921 0.0
H710 H 0.18698 0.34306 0.55078 0.0
H711 H 0.21324 0.34422 0.51133 0.0
H712 H 0.24848 0.29701 0.60442 0.0
H713 H 0.06635 0.25169 0.58073 0.0
H714 H 0.10755 0.25186 0.55983 0.0
H715 H 0.10941 0.30702 0.56745 0.0
C716 C 0.24212 0.26519 0.53383 0.0
C717 C 0.23759 0.29355 0.5166 0.0
C718 C 0.22572 0.26375 0.55679 0.0
C719 C 0.20407 0.29059 0.56358 0.0
C720 C 0.20131 0.32018 0.54649 0.0
H721 H 0.17055 0.35162 0.71109 0.0
H722 H 0.19974 0.35203 0.67211 0.0
C723 C 0.21711 0.32123 0.52362 0.0
C724 C 0.18517 0.28846 0.58823 0.0
H725 H 0.08992 0.2793 0.6192 0.0
C726 C 0.21364 0.2929 0.60747 0.0
C727 C 0.13914 0.28203 0.59311 0.0
C728 C 0.10367 0.27234 0.57421 0.0
C729 C 0.19844 0.29232 0.63064 0.0
C730 C 0.1535 0.28863 0.63545 0.0
C731 C 0.12463 0.28303 0.61621 0.0
C732 C 0.13523 0.28929 0.65997 0.0
C733 C 0.23059 0.29408 0.64974 0.0
C734 C 0.08797 0.25557 0.66691 0.0
C735 C 0.07064 0.256 0.68936 0.0
C736 C 0.09971 0.29014 0.7061 0.0
C737 C 0.14675 0.32424 0.69912 0.0
C738 C 0.16389 0.32413 0.67658 0.0
H739 H 0.25405 0.28026 0.64391 0.0
H740 H 0.25404 0.33193 0.65517 0.0
H741 H 0.20967 0.27265 0.66486 0.0
H742 H 0.06419 0.22815 0.65496 0.0
H743 H 0.03427 0.22897 0.69366 0.0
H744 H 0.93846 0.1861 0.83744 0.0
H745 H 0.91118 0.1526 0.87603 0.0
H746 H 0.03763 0.27123 0.90519 0.0
H747 H 0.06599 0.30436 0.86635 0.0
H748 H 0.95602 0.1238 0.91143 0.0
H749 H 0.92772 0.26912 0.94389 0.0
H750 H 0.93247 0.26002 0.91354 0.0
H751 H -0.01493 0.28779 0.93109 0.0
C752 C 0.96079 0.20547 0.85194 0.0
C753 C 0.00475 0.24865 0.8482 0.0
C754 C 0.94492 0.18593 0.87429 0.0
C755 C 0.97155 0.20908 0.89417 0.0
C756 C 0.01545 0.25234 0.89056 0.0
H757 H 0.9159 0.15718 1.04461 0.0
H758 H 0.94515 0.1889 1.00611 0.0
C759 C 0.03187 0.27147 0.86809 0.0
C760 C 0.95349 0.1878 0.91833 0.0
H761 H 0.91546 0.20858 0.97028 0.0
C762 C 0.94701 0.14241 0.92418 0.0
C763 C 0.94185 0.21149 0.93562 0.0
C764 C 0.94669 0.25965 0.93084 0.0
C765 C 0.93059 0.12099 0.94634 0.0
C766 C 0.91786 0.14417 0.96358 0.0
C767 C 0.92451 0.18974 0.95763 0.0
C768 C 0.89903 0.12294 0.98781 0.0
C769 C 0.92918 0.07439 0.95118 0.0
C770 C 0.86234 0.07458 0.99154 0.0
C771 C 0.84566 0.05581 1.01404 0.0
C772 C 0.86406 0.08475 1.03391 0.0
C773 C 0.90008 0.13318 1.03012 0.0
C774 C 0.91709 0.1517 1.00775 0.0
H775 H 0.95436 0.06996 0.93986 0.0
H776 H 0.93835 0.07229 0.96936 0.0
H777 H 0.89274 0.04394 0.94768 0.0
H778 H 0.84581 0.05106 0.97699 0.0
H779 H 0.81792 0.01851 1.01582 0.0
H780 H 0.79143 0.91403 0.17087 0.0
H781 H 0.79288 0.88967 0.21076 0.0
H782 H 0.8532 0.03652 0.23279 0.0
H783 H 0.85319 0.06104 0.19299 0.0
H784 H 0.89584 0.00346 0.25631 0.0
H785 H 0.70672 0.861 0.26359 0.0
H786 H 0.73639 0.84876 0.2408 0.0
H787 H 0.72917 0.90051 0.23904 0.0
C788 C 0.80469 0.94127 0.18416 0.0
C789 C 0.82187 -0.01019 0.1781 0.0
C790 C 0.80518 0.9271 0.20735 0.0
C791 C 0.82224 0.96062 0.22575 0.0
C792 C 0.83956 0.00911 0.21958 0.0
H793 H 0.76998 0.8791 0.37551 0.0
H794 H 0.76542 0.90056 0.33534 0.0
C795 C 0.83935 0.02329 0.19645 0.0
C796 C 0.82357 0.9461 0.25104 0.0
H797 H 0.75757 0.86507 0.29399 0.0
C798 C 0.86529 0.97311 0.26435 0.0
C799 C 0.78403 0.9071 0.26259 0.0
C800 C 0.7364 0.87799 0.25088 0.0
C801 C 0.86884 0.96228 0.28784 0.0
C802 C 0.83007 0.92197 0.29906 0.0
C803 C 0.78801 0.89548 0.28593 0.0
C804 C 0.8323 0.90733 0.32418 0.0
C805 C 0.91409 -0.00424 0.3006 0.0
C806 C 0.87066 0.90235 0.33223 0.0
C807 C 0.87341 0.89016 0.35544 0.0
C808 C 0.83758 0.88149 0.37188 0.0
C809 C 0.79849 0.88518 0.36376 0.0
C810 C 0.79586 0.89763 0.34049 0.0
H811 H 0.93265 0.03222 0.29278 0.0
H812 H 0.90668 -0.00084 0.31895 0.0
H813 H 0.93885 0.98157 0.29971 0.0
H814 H 0.89885 0.90764 0.32048 0.0
H815 H 0.90413 0.88764 0.36049 0.0
H816 H 0.82042 0.84593 0.53387 0.0
H817 H 0.84413 0.84227 0.57374 0.0
H818 H -0.0158 0.87866 0.54987 0.0
H819 H 0.96074 0.88179 0.51033 0.0
H820 H 0.9096 0.9042 0.60395 0.0
H821 H 0.95654 0.76453 0.58801 0.0
H822 H -0.01037 0.81582 0.56975 0.0
H823 H 0.92568 0.77975 0.56695 0.0
C824 C 0.85632 0.85316 0.53701 0.0
C825 C 0.88823 0.86399 0.51829 0.0
C826 C 0.87004 0.85104 0.56007 0.0
C827 C 0.91607 0.85906 0.56546 0.0
C828 C 0.94809 0.87079 0.54677 0.0
H829 H 0.97278 0.77643 0.70433 0.0
H830 H 0.9436 0.77702 0.66535 0.0
C831 C 0.93452 0.87305 0.52384 0.0
C832 C 0.93094 0.85593 0.5903 0.0
H833 H -0.01798 0.80573 0.62386 0.0
C834 C 0.92528 0.88244 0.60815 0.0
C835 C 0.95094 0.82712 0.59666 0.0
C836 C 0.95564 0.79479 0.57941 0.0
C837 C 0.93977 0.88205 0.63129 0.0
C838 C 0.9617 0.85488 0.63744 0.0
C839 C 0.96611 0.82731 0.61972 0.0
C840 C -0.02004 0.85444 0.66188 0.0
C841 C 0.93017 0.9102 0.64908 0.0
C842 C 0.01129 0.89738 0.67367 0.0
C843 C 0.02808 0.89706 0.69615 0.0
C844 C 0.01479 0.85377 0.70805 0.0
C845 C -0.01595 0.8107 0.69617 0.0
C846 C 0.96723 0.81105 0.67359 0.0
H847 H 0.90034 0.91559 0.64382 0.0
H848 H 0.92121 0.89187 0.66606 0.0
H849 H 0.96251 0.94621 0.65104 0.0
H850 H 0.02354 0.93168 0.66536 0.0
H851 H 0.05192 0.93124 0.70421 0.0
H852 H 0.15665 0.96946 0.84216 0.0
H853 H 0.18393 -0.00418 0.88115 0.0
H854 H 0.09922 0.85 0.90521 0.0
H855 H 0.07233 0.82285 0.86546 0.0
H856 H 0.14614 0.00096 0.91869 0.0
H857 H 0.21646 0.88128 0.93945 0.0
H858 H 0.19805 0.88562 0.91076 0.0
H859 H 0.15429 0.84906 0.93214 0.0
C860 C 0.1436 0.94237 0.85555 0.0
C861 C 0.1119 0.89346 0.84998 0.0
C862 C 0.1595 0.9579 0.87824 0.0
C863 C 0.14486 0.92557 0.89691 0.0
C864 C 0.11282 0.87642 0.89155 0.0
H865 H 0.20574 0.96739 1.0472 0.0
H866 H 0.17772 0.9374 1.00845 0.0
C867 C 0.09689 0.86065 0.86857 0.0
C868 C 0.16258 0.94442 0.92149 0.0
H869 H 0.21488 0.92925 0.96992 0.0
C870 C 0.16133 0.98508 0.9297 0.0
C871 C 0.18279 0.92473 0.93661 0.0
C872 C 0.18851 0.88309 0.92928 0.0
C873 C 0.17838 0.00554 0.95189 0.0
C874 C 0.19875 0.98599 0.96699 0.0
C875 C 0.19972 0.94511 0.95887 0.0
C876 C 0.21769 0.00606 0.99127 0.0
C877 C 0.17275 0.04728 0.95914 0.0
C878 C 0.25088 0.05531 0.9956 0.0
C879 C 0.26736 0.07299 1.01824 0.0
C880 C 0.25175 0.04218 1.03762 0.0
C881 C 0.21927 -0.00707 1.03314 0.0
C882 C 0.20292 0.97538 1.01063 0.0
H883 H 0.14504 0.04931 0.94886 0.0
H884 H 0.16282 0.04453 0.97757 0.0
H885 H 0.20707 0.08128 0.95645 0.0
H886 H 0.26457 0.08045 0.98141 0.0
H887 H 0.29205 0.11105 1.02055 0.0
loop_
_geom_bond_atom_site_label_1
_geom_bond_atom_site_label_2
_geom_bond_distance
_geom_bond_site_symmetry_2
_ccdc_geom_bond_type
La0 C2 2.928 . S
La0 O20 2.521 . S
La0 O21 2.628 . S
La0 O22 2.554 . S
La0 O23 2.757 1_554 S
La0 O24 2.470 . S
La0 O29 2.482 . S
La0 O31 2.503 1_554 S
La1 C11 2.928 . S
La1 O23 2.482 . S
La1 O25 2.503 1_556 S
La1 O26 2.521 . S
La1 O27 2.628 . S
La1 O28 2.554 . S
La1 O29 2.757 1_556 S
La1 O30 2.470 . S
C2 La0 2.928 . S
C2 C3 1.503 . S
C2 O20 1.261 . S
C2 O21 1.243 . S
C3 C2 1.503 . S
C3 C4 1.394 . S
C3 C8 1.373 . S
C4 C3 1.394 . S
C4 C5 1.380 . S
C4 H32 0.930 . S
C5 C4 1.380 . S
C5 C6 1.376 . S
C5 H33 0.930 1_545 S
C6 C5 1.376 . S
C6 C7 1.370 . S
C7 C6 1.370 . S
C7 C8 1.396 . S
C7 H34 0.929 . S
C8 C3 1.373 . S
C8 C7 1.396 . S
C8 H35 0.929 . S
C9 O22 1.240 . S
C9 O23 1.289 1_554 S
C10 O24 1.258 . S
C10 O25 1.256 . S
C11 La1 2.928 . S
C11 C12 1.503 . S
C11 O26 1.261 . S
C11 O27 1.243 . S
C12 C11 1.503 . S
C12 C13 1.394 . S
C12 C17 1.373 . S
C13 C12 1.394 . S
C13 C14 1.380 . S
C13 H36 0.930 . S
C14 C13 1.380 . S
C14 C15 1.376 . S
C14 H37 0.930 . S
C15 C14 1.376 . S
C15 C16 1.370 . S
C16 C15 1.370 . S
C16 C17 1.396 . S
C16 H38 0.929 . S
C17 C12 1.373 . S
C17 C16 1.396 . S
C17 H39 0.929 . S
C18 O28 1.240 1_554 S
C18 O29 1.289 . S
C19 O30 1.258 . S
C19 O31 1.256 . S
O20 La0 2.521 . S
O20 C2 1.261 . S
O21 La0 2.628 . S
O21 C2 1.243 . S
O22 La0 2.554 . S
O22 C9 1.240 . S
O23 La0 2.757 1_556 S
O23 La1 2.482 . S
O23 C9 1.289 1_556 S
O24 La0 2.470 . S
O24 C10 1.258 . S
O25 La1 2.503 1_554 S
O25 C10 1.256 . S
O26 La1 2.521 . S
O26 C11 1.261 . S
O27 La1 2.628 . S
O27 C11 1.243 . S
O28 La1 2.554 . S
O28 C18 1.240 1_556 S
O29 La0 2.482 . S
O29 La1 2.757 1_554 S
O29 C18 1.289 . S
O30 La1 2.470 . S
O30 C19 1.258 . S
O31 La0 2.503 1_556 S
O31 C19 1.256 . S
H32 C4 0.930 . S
H33 C5 0.930 1_565 S
H34 C7 0.929 . S
H35 C8 0.929 . S
H36 C13 0.930 . S
H37 C14 0.930 . S
H38 C16 0.929 . S
H39 C17 0.929 . S
La40 C42 2.928 . S
La40 O60 2.521 . S
La40 O61 2.628 . S
La40 O62 2.554 . S
La40 O63 2.757 . S
La40 O64 2.470 . S
La40 O69 2.482 . S
La40 O71 2.503 . S
La41 C51 2.928 . S
La41 O63 2.482 . S
La41 O65 2.503 . S
La41 O66 2.521 . S
La41 O67 2.628 . S
La41 O68 2.554 . S
La41 O69 2.757 . S
La41 O70 2.470 . S
C42 La40 2.928 . S
C42 C43 1.503 . S
C42 O60 1.261 . S
C42 O61 1.243 . S
C43 C42 1.503 . S
C43 C44 1.394 . S
C43 C48 1.373 . S
C44 C43 1.394 . S
C44 C45 1.380 . S
C44 H72 0.930 . S
C45 C44 1.380 . S
C45 C46 1.376 . S
C45 H73 0.930 . S
C46 C45 1.376 . S
C46 C47 1.370 . S
C47 C46 1.370 . S
C47 C48 1.396 . S
C47 H74 0.929 . S
C48 C43 1.373 . S
C48 C47 1.396 . S
C48 H75 0.929 . S
C49 O62 1.240 . S
C49 O63 1.289 . S
C50 O64 1.258 . S
C50 O65 1.256 . S
C51 La41 2.928 . S
C51 C52 1.503 . S
C51 O66 1.261 . S
C51 O67 1.243 . S
C52 C51 1.503 . S
C52 C53 1.394 . S
C52 C57 1.373 . S
C53 C52 1.394 . S
C53 C54 1.380 . S
C53 H76 0.930 . S
C54 C53 1.380 . S
C54 C55 1.376 . S
C54 H77 0.930 . S
C55 C54 1.376 . S
C55 C56 1.370 . S
C56 C55 1.370 . S
C56 C57 1.396 . S
C56 H78 0.929 . S
C57 C52 1.373 . S
C57 C56 1.396 . S
C57 H79 0.929 . S
C58 O68 1.240 . S
C58 O69 1.289 . S
C59 O70 1.258 . S
C59 O71 1.256 . S
O60 La40 2.521 . S
O60 C42 1.261 . S
O61 La40 2.628 . S
O61 C42 1.243 . S
O62 La40 2.554 . S
O62 C49 1.240 . S
O63 La40 2.757 . S
O63 La41 2.482 . S
O63 C49 1.289 . S
O64 La40 2.470 . S
O64 C50 1.258 . S
O65 La41 2.503 . S
O65 C50 1.256 . S
O66 La41 2.521 . S
O66 C51 1.261 . S
O67 La41 2.628 . S
O67 C51 1.243 . S
O68 La41 2.554 . S
O68 C58 1.240 . S
O69 La40 2.482 . S
O69 La41 2.757 . S
O69 C58 1.289 . S
O70 La41 2.470 . S
O70 C59 1.258 . S
O71 La40 2.503 . S
O71 C59 1.256 . S
H72 C44 0.930 . S
H73 C45 0.930 . S
H74 C47 0.929 . S
H75 C48 0.929 . S
H76 C53 0.930 . S
H77 C54 0.930 . S
H78 C56 0.929 . S
H79 C57 0.929 . S
La80 C82 2.928 . S
La80 O100 2.521 . S
La80 O101 2.628 . S
La80 O102 2.554 . S
La80 O103 2.757 . S
La80 O104 2.470 1_455 S
La80 O109 2.482 . S
La80 O111 2.503 . S
La81 C91 2.928 . S
La81 O103 2.482 1_655 S
La81 O105 2.503 . S
La81 O106 2.521 . S
La81 O107 2.628 . S
La81 O108 2.554 . S
La81 O109 2.757 1_655 S
La81 O110 2.470 1_655 S
C82 La80 2.928 . S
C82 C83 1.503 . S
C82 O100 1.261 . S
C82 O101 1.243 . S
C83 C82 1.503 . S
C83 C84 1.394 . S
C83 C88 1.373 . S
C84 C83 1.394 . S
C84 C85 1.380 . S
C84 H112 0.930 . S
C85 C84 1.380 . S
C85 C86 1.376 . S
C85 H113 0.930 . S
C86 C85 1.376 . S
C86 C87 1.370 . S
C87 C86 1.370 . S
C87 C88 1.396 . S
C87 H114 0.929 . S
C88 C83 1.373 . S
C88 C87 1.396 . S
C88 H115 0.929 . S
C89 O102 1.240 . S
C89 O103 1.289 . S
C90 O104 1.258 . S
C90 O105 1.256 . S
C91 La81 2.928 . S
C91 C92 1.503 . S
C91 O106 1.261 . S
C91 O107 1.243 . S
C92 C91 1.503 . S
C92 C93 1.394 . S
C92 C97 1.373 . S
C93 C92 1.394 . S
C93 C94 1.380 . S
C93 H116 0.930 . S
C94 C93 1.380 . S
C94 C95 1.376 . S
C94 H117 0.930 . S
C95 C94 1.376 . S
C95 C96 1.370 . S
C96 C95 1.370 . S
C96 C97 1.396 . S
C96 H118 0.929 . S
C97 C92 1.373 . S
C97 C96 1.396 . S
C97 H119 0.929 . S
C98 O108 1.240 . S
C98 O109 1.289 1_655 S
C99 O110 1.258 . S
C99 O111 1.256 . S
O100 La80 2.521 . S
O100 C82 1.261 . S
O101 La80 2.628 . S
O101 C82 1.243 . S
O102 La80 2.554 . S
O102 C89 1.240 . S
O103 La80 2.757 . S
O103 La81 2.482 1_455 S
O103 C89 1.289 . S
O104 La80 2.470 1_655 S
O104 C90 1.258 . S
O105 La81 2.503 . S
O105 C90 1.256 . S
O106 La81 2.521 . S
O106 C91 1.261 . S
O107 La81 2.628 . S
O107 C91 1.243 . S
O108 La81 2.554 . S
O108 C98 1.240 . S
O109 La80 2.482 . S
O109 La81 2.757 1_455 S
O109 C98 1.289 1_455 S
O110 La81 2.470 1_455 S
O110 C99 1.258 . S
O111 La80 2.503 . S
O111 C99 1.256 . S
H112 C84 0.930 . S
H113 C85 0.930 . S
H114 C87 0.929 . S
H115 C88 0.929 . S
H116 C93 0.930 . S
H117 C94 0.930 . S
H118 C96 0.929 . S
H119 C97 0.929 . S
La120 C122 2.928 . S
La120 O140 2.521 . S
La120 O141 2.628 . S
La120 O142 2.554 . S
La120 O143 2.757 1_554 S
La120 O144 2.470 1_545 S
La120 O149 2.482 . S
La120 O151 2.503 1_554 S
La121 C131 2.928 . S
La121 O143 2.482 1_565 S
La121 O145 2.503 1_556 S
La121 O146 2.521 . S
La121 O147 2.628 . S
La121 O148 2.554 . S
La121 O149 2.757 1_566 S
La121 O150 2.470 1_565 S
C122 La120 2.928 . S
C122 C123 1.503 . S
C122 O140 1.261 . S
C122 O141 1.243 . S
C123 C122 1.503 . S
C123 C124 1.394 . S
C123 C128 1.373 . S
C124 C123 1.394 . S
C124 C125 1.380 . S
C124 H152 0.930 . S
C125 C124 1.380 . S
C125 C126 1.376 . S
C125 H153 0.930 . S
C126 C125 1.376 . S
C126 C127 1.370 . S
C127 C126 1.370 . S
C127 C128 1.396 . S
C127 H154 0.929 . S
C128 C123 1.373 . S
C128 C127 1.396 . S
C128 H155 0.929 . S
C129 O142 1.240 . S
C129 O143 1.289 1_554 S
C130 O144 1.258 . S
C130 O145 1.256 . S
C131 La121 2.928 . S
C131 C132 1.503 . S
C131 O146 1.261 . S
C131 O147 1.243 . S
C132 C131 1.503 . S
C132 C133 1.394 . S
C132 C137 1.373 . S
C133 C132 1.394 . S
C133 C134 1.380 . S
C133 H156 0.930 . S
C134 C133 1.380 . S
C134 C135 1.376 . S
C134 H157 0.930 . S
C135 C134 1.376 . S
C135 C136 1.370 . S
C136 C135 1.370 . S
C136 C137 1.396 . S
C136 H158 0.929 . S
C137 C132 1.373 . S
C137 C136 1.396 . S
C137 H159 0.929 . S
C138 O148 1.240 1_554 S
C138 O149 1.289 1_565 S
C139 O150 1.258 . S
C139 O151 1.256 . S
O140 La120 2.521 . S
O140 C122 1.261 . S
O141 La120 2.628 . S
O141 C122 1.243 . S
O142 La120 2.554 . S
O142 C129 1.240 . S
O143 La120 2.757 1_556 S
O143 La121 2.482 1_545 S
O143 C129 1.289 1_556 S
O144 La120 2.470 1_565 S
O144 C130 1.258 . S
O145 La121 2.503 1_554 S
O145 C130 1.256 . S
O146 La121 2.521 . S
O146 C131 1.261 . S
O147 La121 2.628 . S
O147 C131 1.243 . S
O148 La121 2.554 . S
O148 C138 1.240 1_556 S
O149 La120 2.482 . S
O149 La121 2.757 1_544 S
O149 C138 1.289 1_545 S
O150 La121 2.470 1_545 S
O150 C139 1.258 . S
O151 La120 2.503 1_556 S
O151 C139 1.256 . S
H152 C124 0.930 . S
H153 C125 0.930 . S
H154 C127 0.929 . S
H155 C128 0.929 . S
H156 C133 0.930 . S
H157 C134 0.930 . S
H158 C136 0.929 . S
H159 C137 0.929 . S
La160 C162 2.928 . S
La160 O180 2.521 . S
La160 O181 2.628 . S
La160 O182 2.554 . S
La160 O183 2.757 . S
La160 O184 2.470 . S
La160 O189 2.482 . S
La160 O191 2.503 . S
La161 C171 2.928 . S
La161 O183 2.482 . S
La161 O185 2.503 . S
La161 O186 2.521 . S
La161 O187 2.628 . S
La161 O188 2.554 . S
La161 O189 2.757 . S
La161 O190 2.470 . S
C162 La160 2.928 . S
C162 C163 1.503 . S
C162 O180 1.261 . S
C162 O181 1.243 . S
C163 C162 1.503 . S
C163 C164 1.394 . S
C163 C168 1.373 . S
C164 C163 1.394 . S
C164 C165 1.380 . S
C164 H192 0.930 . S
C165 C164 1.380 . S
C165 C166 1.376 . S
C165 H193 0.930 . S
C166 C165 1.376 . S
C166 C167 1.370 . S
C167 C166 1.370 . S
C167 C168 1.396 . S
C167 H194 0.929 . S
C168 C163 1.373 . S
C168 C167 1.396 . S
C168 H195 0.929 . S
C169 O182 1.240 . S
C169 O183 1.289 . S
C170 O184 1.258 . S
C170 O185 1.256 . S
C171 La161 2.928 . S
C171 C172 1.503 . S
C171 O186 1.261 . S
C171 O187 1.243 . S
C172 C171 1.503 . S
C172 C173 1.394 . S
C172 C177 1.373 1_655 S
C173 C172 1.394 . S
C173 C174 1.380 . S
C173 H196 0.930 . S
C174 C173 1.380 . S
C174 C175 1.376 1_655 S
C174 H197 0.930 . S
C175 C174 1.376 1_455 S
C175 C176 1.370 . S
C176 C175 1.370 . S
C176 C177 1.396 . S
C176 H198 0.929 . S
C177 C172 1.373 1_455 S
C177 C176 1.396 . S
C177 H199 0.929 . S
C178 O188 1.240 . S
C178 O189 1.289 . S
C179 O190 1.258 . S
C179 O191 1.256 . S
O180 La160 2.521 . S
O180 C162 1.261 . S
O181 La160 2.628 . S
O181 C162 1.243 . S
O182 La160 2.554 . S
O182 C169 1.240 . S
O183 La160 2.757 . S
O183 La161 2.482 . S
O183 C169 1.289 . S
O184 La160 2.470 . S
O184 C170 1.258 . S
O185 La161 2.503 . S
O185 C170 1.256 . S
O186 La161 2.521 . S
O186 C171 1.261 . S
O187 La161 2.628 . S
O187 C171 1.243 . S
O188 La161 2.554 . S
O188 C178 1.240 . S
O189 La160 2.482 . S
O189 La161 2.757 . S
O189 C178 1.289 . S
O190 La161 2.470 . S
O190 C179 1.258 . S
O191 La160 2.503 . S
O191 C179 1.256 . S
H192 C164 0.930 . S
H193 C165 0.930 . S
H194 C167 0.929 . S
H195 C168 0.929 . S
H196 C173 0.930 . S
H197 C174 0.930 . S
H198 C176 0.929 . S
H199 C177 0.929 . S
La200 C202 2.928 . S
La200 O220 2.521 . S
La200 O221 2.628 . S
La200 O222 2.554 . S
La200 O223 2.757 . S
La200 O224 2.470 . S
La200 O229 2.482 . S
La200 O231 2.503 . S
La201 C211 2.928 . S
La201 O223 2.482 . S
La201 O225 2.503 . S
La201 O226 2.521 . S
La201 O227 2.628 . S
La201 O228 2.554 . S
La201 O229 2.757 . S
La201 O230 2.470 . S
C202 La200 2.928 . S
C202 C203 1.503 . S
C202 O220 1.261 . S
C202 O221 1.243 . S
C203 C202 1.503 . S
C203 C204 1.394 . S
C203 C208 1.373 . S
C204 C203 1.394 . S
C204 C205 1.380 . S
C204 H232 0.930 . S
C205 C204 1.380 . S
C205 C206 1.376 . S
C205 H233 0.930 1_455 S
C206 C205 1.376 . S
C206 C207 1.370 . S
C207 C206 1.370 . S
C207 C208 1.396 . S
C207 H234 0.929 . S
C208 C203 1.373 . S
C208 C207 1.396 . S
C208 H235 0.929 . S
C209 O222 1.240 . S
C209 O223 1.289 . S
C210 O224 1.258 . S
C210 O225 1.256 . S
C211 La201 2.928 . S
C211 C212 1.503 . S
C211 O226 1.261 . S
C211 O227 1.243 . S
C212 C211 1.503 . S
C212 C213 1.394 . S
C212 C217 1.373 1_565 S
C213 C212 1.394 . S
C213 C214 1.380 . S
C213 H236 0.930 . S
C214 C213 1.380 . S
C214 C215 1.376 1_565 S
C214 H237 0.930 . S
C215 C214 1.376 1_545 S
C215 C216 1.370 . S
C216 C215 1.370 . S
C216 C217 1.396 . S
C216 H238 0.929 . S
C217 C212 1.373 1_545 S
C217 C216 1.396 . S
C217 H239 0.929 . S
C218 O228 1.240 . S
C218 O229 1.289 . S
C219 O230 1.258 . S
C219 O231 1.256 . S
O220 La200 2.521 . S
O220 C202 1.261 . S
O221 La200 2.628 . S
O221 C202 1.243 . S
O222 La200 2.554 . S
O222 C209 1.240 . S
O223 La200 2.757 . S
O223 La201 2.482 . S
O223 C209 1.289 . S
O224 La200 2.470 . S
O224 C210 1.258 . S
O225 La201 2.503 . S
O225 C210 1.256 . S
O226 La201 2.521 . S
O226 C211 1.261 . S
O227 La201 2.628 . S
O227 C211 1.243 . S
O228 La201 2.554 . S
O228 C218 1.240 . S
O229 La200 2.482 . S
O229 La201 2.757 . S
O229 C218 1.289 . S
O230 La201 2.470 . S
O230 C219 1.258 . S
O231 La200 2.503 . S
O231 C219 1.256 . S
H232 C204 0.930 . S
H233 C205 0.930 1_655 S
H234 C207 0.929 . S
H235 C208 0.929 . S
H236 C213 0.930 . S
H237 C214 0.930 . S
H238 C216 0.929 . S
H239 C217 0.929 . S
H240 C248 0.929 . S
H241 C250 0.930 . S
H242 C252 0.930 . S
H243 C255 0.929 . S
H244 C258 0.930 . S
H245 C260 0.960 . S
H246 C260 0.960 . S
H247 C260 0.960 . S
C248 H240 0.929 . S
C248 C249 1.377 1_545 S
C248 C250 1.384 . S
C249 C248 1.377 1_565 S
C249 C255 1.390 1_554 S
C250 H241 0.930 . S
C250 C248 1.384 . S
C250 C251 1.372 . S
C251 C250 1.372 . S
C251 C252 1.400 1_554 S
C251 C256 1.490 1_655 S
C252 H242 0.930 . S
C252 C251 1.400 1_556 S
C252 C255 1.386 1_545 S
H253 C269 0.930 . S
H254 C270 0.931 . S
C255 H243 0.929 . S
C255 C249 1.390 1_556 S
C255 C252 1.386 1_565 S
C256 C251 1.490 1_455 S
C256 C258 1.395 . S
C256 C259 1.403 1_554 S
H257 C263 0.930 . S
C258 H244 0.930 . S
C258 C256 1.395 . S
C258 C261 1.403 . S
C259 C256 1.403 1_556 S
C259 C260 1.524 . S
C259 C263 1.400 . S
C260 H245 0.960 . S
C260 H246 0.960 . S
C260 H247 0.960 . S
C260 C259 1.524 . S
C261 C258 1.403 . S
C261 C262 1.392 . S
C261 C265 1.495 . S
C262 C261 1.392 . S
C262 C263 1.385 1_554 S
C262 C264 1.478 . S
C263 H257 0.930 . S
C263 C259 1.400 . S
C263 C262 1.385 1_556 S
C264 C262 1.478 . S
C264 C266 1.381 . S
C264 C270 1.383 1_554 S
C265 C261 1.495 . S
C265 H271 0.959 . S
C265 H272 0.961 . S
C265 H273 0.960 . S
C266 C264 1.381 . S
C266 C267 1.394 . S
C266 H274 0.930 . S
C267 C266 1.394 . S
C267 C268 1.383 . S
C267 H275 0.929 . S
C268 C267 1.383 . S
C268 C269 1.377 1_554 S
C269 H253 0.930 . S
C269 C268 1.377 1_556 S
C269 C270 1.379 . S
C270 H254 0.931 . S
C270 C264 1.383 1_556 S
C270 C269 1.379 . S
H271 C265 0.959 . S
H272 C265 0.961 . S
H273 C265 0.960 . S
H274 C266 0.930 . S
H275 C267 0.929 . S
H276 C284 0.929 . S
H277 C286 0.939 . S
H278 C288 0.930 . S
H279 C291 0.929 . S
H280 C294 0.930 . S
H281 C296 0.960 . S
H282 C296 0.960 1_655 S
H283 C296 0.960 . S
C284 H276 0.929 . S
C284 C285 1.377 . S
C284 C286 1.385 . S
C285 C284 1.377 . S
C285 C291 1.390 1_655 S
C286 H277 0.939 . S
C286 C284 1.385 . S
C286 C287 1.363 1_655 S
C287 C286 1.363 1_455 S
C287 C288 1.400 . S
C287 C292 1.490 1_565 S
C288 H278 0.930 . S
C288 C287 1.400 . S
C288 C291 1.386 . S
H289 C305 0.930 . S
H290 C306 0.931 . S
C291 H279 0.929 . S
C291 C285 1.390 1_455 S
C291 C288 1.386 . S
C292 C287 1.490 1_545 S
C292 C294 1.395 . S
C292 C295 1.403 . S
H293 C299 0.930 . S
C294 H280 0.930 . S
C294 C292 1.395 . S
C294 C297 1.403 . S
C295 C292 1.403 . S
C295 C296 1.524 . S
C295 C299 1.400 . S
C296 H281 0.960 . S
C296 H282 0.960 1_455 S
C296 H283 0.960 . S
C296 C295 1.524 . S
C297 C294 1.403 . S
C297 C298 1.392 . S
C297 C301 1.495 . S
C298 C297 1.392 . S
C298 C299 1.385 . S
C298 C300 1.478 . S
C299 H293 0.930 . S
C299 C295 1.400 . S
C299 C298 1.385 . S
C300 C298 1.478 . S
C300 C302 1.381 . S
C300 C306 1.383 . S
C301 C297 1.495 . S
C301 H307 0.959 . S
C301 H308 0.961 . S
C301 H309 0.960 . S
C302 C300 1.381 . S
C302 C303 1.394 . S
C302 H310 0.930 . S
C303 C302 1.394 . S
C303 C304 1.383 . S
C303 H311 0.929 . S
C304 C303 1.383 . S
C304 C305 1.377 . S
C305 H289 0.930 . S
C305 C304 1.377 . S
C305 C306 1.379 . S
C306 H290 0.931 . S
C306 C300 1.383 . S
C306 C305 1.379 . S
H307 C301 0.959 . S
H308 C301 0.961 . S
H309 C301 0.960 . S
H310 C302 0.930 . S
H311 C303 0.929 . S
H312 C320 0.929 . S
H313 C322 0.930 . S
H314 C324 0.929 . S
H315 C327 0.929 . S
H316 C330 0.930 . S
H317 C332 0.960 1_655 S
H318 C332 0.960 . S
H319 C332 0.960 . S
C320 H312 0.929 . S
C320 C321 1.377 1_545 S
C320 C322 1.384 . S
C321 C320 1.377 1_565 S
C321 C327 1.390 . S
C322 H313 0.930 . S
C322 C320 1.384 . S
C322 C323 1.372 . S
C323 C322 1.372 . S
C323 C324 1.400 . S
C323 C328 1.490 . S
C324 H314 0.929 . S
C324 C323 1.400 . S
C324 C327 1.386 1_545 S
H325 C341 0.930 . S
H326 C342 0.931 . S
C327 H315 0.929 . S
C327 C321 1.390 . S
C327 C324 1.386 1_565 S
C328 C323 1.490 . S
C328 C330 1.395 . S
C328 C331 1.403 . S
H329 C335 0.930 . S
C330 H316 0.930 . S
C330 C328 1.395 . S
C330 C333 1.403 . S
C331 C328 1.403 . S
C331 C332 1.524 1_545 S
C331 C335 1.400 . S
C332 H317 0.960 1_455 S
C332 H318 0.960 . S
C332 H319 0.960 . S
C332 C331 1.524 1_565 S
C333 C330 1.403 . S
C333 C334 1.392 . S
C333 C337 1.495 . S
C334 C333 1.392 . S
C334 C335 1.385 . S
C334 C336 1.478 . S
C335 H329 0.930 . S
C335 C331 1.400 . S
C335 C334 1.385 . S
C336 C334 1.478 . S
C336 C338 1.381 . S
C336 C342 1.383 . S
C337 C333 1.495 . S
C337 H343 0.959 . S
C337 H344 0.961 . S
C337 H345 0.960 . S
C338 C336 1.381 . S
C338 C339 1.394 . S
C338 H346 0.930 . S
C339 C338 1.394 . S
C339 C340 1.383 1_455 S
C339 H347 0.929 . S
C340 C339 1.383 1_655 S
C340 C341 1.377 . S
C341 H325 0.930 . S
C341 C340 1.377 . S
C341 C342 1.379 1_655 S
C342 H326 0.931 . S
C342 C336 1.383 . S
C342 C341 1.379 1_455 S
H343 C337 0.959 . S
H344 C337 0.961 . S
H345 C337 0.960 . S
H346 C338 0.930 . S
H347 C339 0.929 . S
H348 C356 0.929 . S
H349 C358 0.930 . S
H350 C360 0.930 . S
H351 C363 0.929 . S
H352 C366 0.930 . S
H353 C368 0.960 . S
H354 C368 0.960 . S
H355 C368 0.960 . S
C356 H348 0.929 . S
C356 C357 1.377 . S
C356 C358 1.384 . S
C357 C356 1.377 . S
C357 C363 1.390 . S
C358 H349 0.930 . S
C358 C356 1.384 . S
C358 C359 1.372 . S
C359 C358 1.372 . S
C359 C360 1.400 . S
C359 C364 1.490 . S
C360 H350 0.930 . S
C360 C359 1.400 . S
C360 C363 1.386 . S
H361 C377 0.930 . S
H362 C378 0.931 . S
C363 H351 0.929 . S
C363 C357 1.390 . S
C363 C360 1.386 . S
C364 C359 1.490 . S
C364 C366 1.395 . S
C364 C367 1.403 . S
H365 C371 0.930 . S
C366 H352 0.930 . S
C366 C364 1.395 . S
C366 C369 1.403 . S
C367 C364 1.403 . S
C367 C368 1.524 . S
C367 C371 1.400 . S
C368 H353 0.960 . S
C368 H354 0.960 . S
C368 H355 0.960 . S
C368 C367 1.524 . S
C369 C366 1.403 . S
C369 C370 1.392 . S
C369 C373 1.495 . S
C370 C369 1.392 . S
C370 C371 1.385 . S
C370 C372 1.478 . S
C371 H365 0.930 . S
C371 C367 1.400 . S
C371 C370 1.385 . S
C372 C370 1.478 . S
C372 C374 1.381 . S
C372 C378 1.383 . S
C373 C369 1.495 . S
C373 H379 0.959 . S
C373 H380 0.961 . S
C373 H381 0.960 . S
C374 C372 1.381 . S
C374 C375 1.394 . S
C374 H382 0.930 . S
C375 C374 1.394 . S
C375 C376 1.383 . S
C375 H383 0.929 . S
C376 C375 1.383 . S
C376 C377 1.377 . S
C377 H361 0.930 . S
C377 C376 1.377 . S
C377 C378 1.379 . S
C378 H362 0.931 . S
C378 C372 1.383 . S
C378 C377 1.379 . S
H379 C373 0.959 . S
H380 C373 0.961 . S
H381 C373 0.960 . S
H382 C374 0.930 . S
H383 C375 0.929 . S
H384 C392 0.929 . S
H385 C394 0.930 . S
H386 C396 0.930 . S
H387 C399 0.929 . S
H388 C402 0.930 . S
H389 C404 0.960 . S
H390 C404 0.960 . S
H391 C404 0.960 . S
C392 H384 0.929 . S
C392 C393 1.377 . S
C392 C394 1.384 . S
C393 C392 1.377 . S
C393 C399 1.390 . S
C394 H385 0.930 . S
C394 C392 1.384 . S
C394 C395 1.372 . S
C395 C394 1.372 . S
C395 C396 1.400 . S
C395 C400 1.490 . S
C396 H386 0.930 . S
C396 C395 1.400 . S
C396 C399 1.386 . S
H397 C413 0.930 . S
H398 C414 0.931 . S
C399 H387 0.929 . S
C399 C393 1.390 . S
C399 C396 1.386 . S
C400 C395 1.490 . S
C400 C402 1.395 . S
C400 C403 1.403 . S
H401 C407 0.930 . S
C402 H388 0.930 . S
C402 C400 1.395 . S
C402 C405 1.403 1_455 S
C403 C400 1.403 . S
C403 C404 1.524 . S
C403 C407 1.400 . S
C404 H389 0.960 . S
C404 H390 0.960 . S
C404 H391 0.960 . S
C404 C403 1.524 . S
C405 C402 1.403 1_655 S
C405 C406 1.392 . S
C405 C409 1.495 . S
C406 C405 1.392 . S
C406 C407 1.385 1_655 S
C406 C408 1.478 . S
C407 H401 0.930 . S
C407 C403 1.400 . S
C407 C406 1.385 1_455 S
C408 C406 1.478 . S
C408 C410 1.381 . S
C408 C414 1.383 . S
C409 C405 1.495 . S
C409 H415 0.959 . S
C409 H416 0.961 . S
C409 H417 0.960 . S
C410 C408 1.381 . S
C410 C411 1.394 . S
C410 H418 0.930 . S
C411 C410 1.394 . S
C411 C412 1.383 . S
C411 H419 0.929 . S
C412 C411 1.383 . S
C412 C413 1.377 . S
C413 H397 0.930 . S
C413 C412 1.377 . S
C413 C414 1.379 . S
C414 H398 0.931 . S
C414 C408 1.383 . S
C414 C413 1.379 . S
H415 C409 0.959 . S
H416 C409 0.961 . S
H417 C409 0.960 . S
H418 C410 0.930 . S
H419 C411 0.929 . S
H420 C428 0.929 . S
H421 C430 0.930 . S
H422 C432 0.930 . S
H423 C435 0.929 . S
H424 C438 0.930 . S
H425 C440 0.960 1_565 S
H426 C440 0.960 . S
H427 C440 0.960 . S
C428 H420 0.929 . S
C428 C429 1.377 . S
C428 C430 1.384 . S
C429 C428 1.377 . S
C429 C435 1.390 . S
C430 H421 0.930 . S
C430 C428 1.384 . S
C430 C431 1.372 . S
C431 C430 1.372 . S
C431 C432 1.400 . S
C431 C436 1.490 . S
C432 H422 0.930 . S
C432 C431 1.400 . S
C432 C435 1.386 . S
H433 C449 0.930 . S
H434 C450 0.931 . S
C435 H423 0.929 . S
C435 C429 1.390 . S
C435 C432 1.386 . S
C436 C431 1.490 . S
C436 C438 1.395 . S
C436 C439 1.403 . S
H437 C443 0.930 . S
C438 H424 0.930 . S
C438 C436 1.395 . S
C438 C441 1.403 . S
C439 C436 1.403 . S
C439 C440 1.524 . S
C439 C443 1.400 1_545 S
C440 H425 0.960 1_545 S
C440 H426 0.960 . S
C440 H427 0.960 . S
C440 C439 1.524 . S
C441 C438 1.403 . S
C441 C442 1.392 1_545 S
C441 C445 1.495 . S
C442 C441 1.392 1_565 S
C442 C443 1.385 . S
C442 C444 1.478 . S
C443 H437 0.930 . S
C443 C439 1.400 1_565 S
C443 C442 1.385 . S
C444 C442 1.478 . S
C444 C446 1.381 . S
C444 C450 1.383 . S
C445 C441 1.495 . S
C445 H451 0.959 . S
C445 H452 0.961 . S
C445 H453 0.960 . S
C446 C444 1.381 . S
C446 C447 1.394 . S
C446 H454 0.930 . S
C447 C446 1.394 . S
C447 C448 1.383 . S
C447 H455 0.929 . S
C448 C447 1.383 . S
C448 C449 1.377 . S
C449 H433 0.930 . S
C449 C448 1.377 . S
C449 C450 1.379 . S
C450 H434 0.931 . S
C450 C444 1.383 . S
C450 C449 1.379 . S
H451 C445 0.959 . S
H452 C445 0.961 . S
H453 C445 0.960 . S
H454 C446 0.930 . S
H455 C447 0.929 . S
H456 C464 0.929 . S
H457 C466 0.930 . S
H458 C468 0.930 . S
H459 C471 0.929 . S
H460 C474 0.930 . S
H461 C476 0.960 . S
H462 C476 0.960 . S
H463 C476 0.960 . S
C464 H456 0.929 . S
C464 C465 1.377 . S
C464 C466 1.384 . S
C465 C464 1.377 . S
C465 C471 1.390 . S
C466 H457 0.930 . S
C466 C464 1.384 . S
C466 C467 1.372 . S
C467 C466 1.372 . S
C467 C468 1.400 . S
C467 C472 1.490 . S
C468 H458 0.930 . S
C468 C467 1.400 . S
C468 C471 1.386 . S
H469 C485 0.930 . S
H470 C486 0.931 1_455 S
C471 H459 0.929 . S
C471 C465 1.390 . S
C471 C468 1.386 . S
C472 C467 1.490 . S
C472 C474 1.395 . S
C472 C475 1.403 . S
H473 C479 0.930 . S
C474 H460 0.930 . S
C474 C472 1.395 . S
C474 C477 1.403 . S
C475 C472 1.403 . S
C475 C476 1.524 . S
C475 C479 1.400 . S
C476 H461 0.960 . S
C476 H462 0.960 . S
C476 H463 0.960 . S
C476 C475 1.524 . S
C477 C474 1.403 . S
C477 C478 1.392 . S
C477 C481 1.495 . S
C478 C477 1.392 . S
C478 C479 1.385 . S
C478 C480 1.478 . S
C479 H473 0.930 . S
C479 C475 1.400 . S
C479 C478 1.385 . S
C480 C478 1.478 . S
C480 C482 1.381 . S
C480 C486 1.383 . S
C481 C477 1.495 . S
C481 H487 0.959 . S
C481 H488 0.961 . S
C481 H489 0.960 . S
C482 C480 1.381 . S
C482 C483 1.394 . S
C482 H490 0.930 . S
C483 C482 1.394 . S
C483 C484 1.383 1_655 S
C483 H491 0.929 . S
C484 C483 1.383 1_455 S
C484 C485 1.377 . S
C485 H469 0.930 . S
C485 C484 1.377 . S
C485 C486 1.379 1_455 S
C486 H470 0.931 1_655 S
C486 C480 1.383 . S
C486 C485 1.379 1_655 S
H487 C481 0.959 . S
H488 C481 0.961 . S
H489 C481 0.960 . S
H490 C482 0.930 . S
H491 C483 0.929 . S
H492 C500 0.929 . S
H493 C502 0.930 . S
H494 C504 0.930 . S
H495 C507 0.929 1_655 S
H496 C510 0.930 . S
H497 C512 0.960 . S
H498 C512 0.960 . S
H499 C512 0.960 . S
C500 H492 0.929 . S
C500 C501 1.400 . S
C500 C502 1.384 . S
C501 C500 1.400 . S
C501 C507 1.379 . S
C502 H493 0.930 . S
C502 C500 1.384 . S
C502 C503 1.372 . S
C503 C502 1.372 . S
C503 C504 1.400 . S
C503 C508 1.490 . S
C504 H494 0.930 . S
C504 C503 1.400 . S
C504 C507 1.386 . S
H505 C521 0.930 . S
H506 C522 0.931 . S
C507 H495 0.929 1_455 S
C507 C501 1.379 . S
C507 C504 1.386 . S
C508 C503 1.490 . S
C508 C510 1.395 . S
C508 C511 1.403 . S
H509 C515 0.930 . S
C510 H496 0.930 . S
C510 C508 1.395 . S
C510 C513 1.403 . S
C511 C508 1.403 . S
C511 C512 1.524 . S
C511 C515 1.400 . S
C512 H497 0.960 . S
C512 H498 0.960 . S
C512 H499 0.960 . S
C512 C511 1.524 . S
C513 C510 1.403 . S
C513 C514 1.392 . S
C513 C517 1.495 . S
C514 C513 1.392 . S
C514 C515 1.385 . S
C514 C516 1.478 . S
C515 H509 0.930 . S
C515 C511 1.400 . S
C515 C514 1.385 . S
C516 C514 1.478 . S
C516 C518 1.381 . S
C516 C522 1.383 . S
C517 C513 1.495 . S
C517 H523 0.959 . S
C517 H524 0.961 . S
C517 H525 0.960 . S
C518 C516 1.381 . S
C518 C519 1.394 . S
C518 H526 0.930 . S
C519 C518 1.394 . S
C519 C520 1.383 1_565 S
C519 H527 0.929 . S
C520 C519 1.383 1_545 S
C520 C521 1.377 . S
C521 H505 0.930 . S
C521 C520 1.377 . S
C521 C522 1.379 1_545 S
C522 H506 0.931 . S
C522 C516 1.383 . S
C522 C521 1.379 1_565 S
H523 C517 0.959 . S
H524 C517 0.961 . S
H525 C517 0.960 . S
H526 C518 0.930 . S
H527 C519 0.929 . S
H528 C536 0.929 . S
H529 C538 0.930 . S
H530 C540 0.930 . S
H531 C543 0.929 . S
H532 C546 0.930 . S
H533 C548 0.960 . S
H534 C548 0.960 . S
H535 C548 0.960 . S
C536 H528 0.929 . S
C536 C537 1.377 1_565 S
C536 C538 1.384 1_565 S
C537 C536 1.377 1_545 S
C537 C543 1.390 . S
C538 H529 0.930 . S
C538 C536 1.384 1_545 S
C538 C539 1.372 . S
C539 C538 1.372 . S
C539 C540 1.400 . S
C539 C544 1.490 . S
C540 H530 0.930 . S
C540 C539 1.400 . S
C540 C543 1.386 . S
H541 C557 0.930 . S
H542 C558 0.931 . S
C543 H531 0.929 . S
C543 C537 1.390 . S
C543 C540 1.386 . S
C544 C539 1.490 . S
C544 C546 1.395 . S
C544 C547 1.403 . S
H545 C551 0.930 . S
C546 H532 0.930 . S
C546 C544 1.395 . S
C546 C549 1.403 . S
C547 C544 1.403 . S
C547 C548 1.524 . S
C547 C551 1.400 . S
C548 H533 0.960 . S
C548 H534 0.960 . S
C548 H535 0.960 . S
C548 C547 1.524 . S
C549 C546 1.403 . S
C549 C550 1.392 . S
C549 C553 1.495 . S
C550 C549 1.392 . S
C550 C551 1.385 . S
C550 C552 1.478 . S
C551 H545 0.930 . S
C551 C547 1.400 . S
C551 C550 1.385 . S
C552 C550 1.478 . S
C552 C554 1.381 . S
C552 C558 1.383 . S
C553 C549 1.495 . S
C553 H559 0.959 . S
C553 H560 0.961 . S
C553 H561 0.960 . S
C554 C552 1.381 . S
C554 C555 1.394 . S
C554 H562 0.930 . S
C555 C554 1.394 . S
C555 C556 1.383 . S
C555 H563 0.929 . S
C556 C555 1.383 . S
C556 C557 1.377 . S
C557 H541 0.930 . S
C557 C556 1.377 . S
C557 C558 1.379 . S
C558 H542 0.931 . S
C558 C552 1.383 . S
C558 C557 1.379 . S
H559 C553 0.959 . S
H560 C553 0.961 . S
H561 C553 0.960 . S
H562 C554 0.930 . S
H563 C555 0.929 . S
H564 C572 0.929 . S
H565 C574 0.930 . S
H566 C576 0.930 . S
H567 C579 0.929 . S
H568 C582 0.930 . S
H569 C584 0.960 . S
H570 C584 0.960 1_554 S
H571 C584 0.960 . S
C572 H564 0.929 . S
C572 C573 1.377 . S
C572 C574 1.384 . S
C573 C572 1.377 . S
C573 C579 1.390 1_554 S
C574 H565 0.930 . S
C574 C572 1.384 . S
C574 C575 1.372 . S
C575 C574 1.372 . S
C575 C576 1.400 1_554 S
C575 C580 1.490 . S
C576 H566 0.930 . S
C576 C575 1.400 1_556 S
C576 C579 1.386 . S
H577 C593 0.930 . S
H578 C594 0.931 . S
C579 H567 0.929 . S
C579 C573 1.390 1_556 S
C579 C576 1.386 . S
C580 C575 1.490 . S
C580 C582 1.395 . S
C580 C583 1.403 . S
H581 C587 0.928 1_556 S
C582 H568 0.930 . S
C582 C580 1.395 . S
C582 C585 1.403 . S
C583 C580 1.403 . S
C583 C584 1.524 1_554 S
C583 C587 1.400 . S
C584 H569 0.960 . S
C584 H570 0.960 1_556 S
C584 H571 0.960 . S
C584 C583 1.524 1_556 S
C585 C582 1.403 . S
C585 C586 1.392 . S
C585 C589 1.495 1_545 S
C586 C585 1.392 . S
C586 C587 1.385 . S
C586 C588 1.478 . S
C587 H581 0.928 1_554 S
C587 C583 1.400 . S
C587 C586 1.385 . S
C588 C586 1.478 . S
C588 C590 1.381 . S
C588 C594 1.383 1_554 S
C589 C585 1.495 1_565 S
C589 H595 0.959 . S
C589 H596 0.961 . S
C589 H597 0.960 . S
C590 C588 1.381 . S
C590 C591 1.390 1_545 S
C590 H598 0.930 . S
C591 C590 1.390 1_565 S
C591 C592 1.385 . S
C591 H599 0.931 . S
C592 C591 1.385 . S
C592 C593 1.377 1_564 S
C593 H577 0.930 . S
C593 C592 1.377 1_546 S
C593 C594 1.379 . S
C594 H578 0.931 . S
C594 C588 1.383 1_556 S
C594 C593 1.379 . S
H595 C589 0.959 . S
H596 C589 0.961 . S
H597 C589 0.960 . S
H598 C590 0.930 . S
H599 C591 0.931 . S
H600 C608 0.929 . S
H601 C610 0.930 . S
H602 C612 0.930 . S
H603 C615 0.929 . S
H604 C618 0.930 . S
H605 C620 0.960 . S
H606 C620 0.960 . S
H607 C620 0.960 . S
C608 H600 0.929 . S
C608 C609 1.377 . S
C608 C610 1.384 . S
C609 C608 1.377 . S
C609 C615 1.390 . S
C610 H601 0.930 . S
C610 C608 1.384 . S
C610 C611 1.372 . S
C611 C610 1.372 . S
C611 C612 1.400 . S
C611 C616 1.490 . S
C612 H602 0.930 . S
C612 C611 1.400 . S
C612 C615 1.386 . S
H613 C629 0.930 . S
H614 C630 0.931 . S
C615 H603 0.929 . S
C615 C609 1.390 . S
C615 C612 1.386 . S
C616 C611 1.490 . S
C616 C618 1.395 . S
C616 C619 1.403 . S
H617 C623 0.930 . S
C618 H604 0.930 . S
C618 C616 1.395 . S
C618 C621 1.403 . S
C619 C616 1.403 . S
C619 C620 1.524 . S
C619 C623 1.400 . S
C620 H605 0.960 . S
C620 H606 0.960 . S
C620 H607 0.960 . S
C620 C619 1.524 . S
C621 C618 1.403 . S
C621 C622 1.392 . S
C621 C625 1.495 . S
C622 C621 1.392 . S
C622 C623 1.385 . S
C622 C624 1.478 . S
C623 H617 0.930 . S
C623 C619 1.400 . S
C623 C622 1.385 . S
C624 C622 1.478 . S
C624 C626 1.381 . S
C624 C630 1.383 . S
C625 C621 1.495 . S
C625 H631 0.959 . S
C625 H632 0.961 . S
C625 H633 0.960 . S
C626 C624 1.381 . S
C626 C627 1.394 . S
C626 H634 0.930 . S
C627 C626 1.394 . S
C627 C628 1.383 . S
C627 H635 0.929 . S
C628 C627 1.383 . S
C628 C629 1.377 . S
C629 H613 0.930 . S
C629 C628 1.377 . S
C629 C630 1.379 . S
C630 H614 0.931 . S
C630 C624 1.383 . S
C630 C629 1.379 . S
H631 C625 0.959 . S
H632 C625 0.961 . S
H633 C625 0.960 . S
H634 C626 0.930 . S
H635 C627 0.929 . S
H636 C644 0.929 . S
H637 C646 0.930 1_655 S
H638 C648 0.930 . S
H639 C651 0.929 . S
H640 C654 0.930 1_655 S
H641 C656 0.960 . S
H642 C656 0.960 . S
H643 C656 0.960 . S
C644 H636 0.929 . S
C644 C645 1.377 . S
C644 C646 1.384 1_655 S
C645 C644 1.377 . S
C645 C651 1.390 1_655 S
C646 H637 0.930 1_455 S
C646 C644 1.384 1_455 S
C646 C647 1.372 . S
C647 C646 1.372 . S
C647 C648 1.400 . S
C647 C652 1.490 . S
C648 H638 0.930 . S
C648 C647 1.400 . S
C648 C651 1.386 . S
H649 C665 0.930 . S
H650 C666 0.931 . S
C651 H639 0.929 . S
C651 C645 1.390 1_455 S
C651 C648 1.386 . S
C652 C647 1.490 . S
C652 C654 1.395 . S
C652 C655 1.403 . S
H653 C659 0.930 . S
C654 H640 0.930 1_455 S
C654 C652 1.395 . S
C654 C657 1.403 . S
C655 C652 1.403 . S
C655 C656 1.524 . S
C655 C659 1.400 . S
C656 H641 0.960 . S
C656 H642 0.960 . S
C656 H643 0.960 . S
C656 C655 1.524 . S
C657 C654 1.403 . S
C657 C658 1.392 . S
C657 C661 1.495 . S
C658 C657 1.392 . S
C658 C659 1.385 . S
C658 C660 1.478 . S
C659 H653 0.930 . S
C659 C655 1.400 . S
C659 C658 1.385 . S
C660 C658 1.478 . S
C660 C662 1.381 . S
C660 C666 1.383 . S
C661 C657 1.495 . S
C661 H667 0.959 1_455 S
C661 H668 0.961 . S
C661 H669 0.960 . S
C662 C660 1.381 . S
C662 C663 1.394 . S
C662 H670 0.930 . S
C663 C662 1.394 . S
C663 C664 1.383 . S
C663 H671 0.929 . S
C664 C663 1.383 . S
C664 C665 1.377 . S
C665 H649 0.930 . S
C665 C664 1.377 . S
C665 C666 1.379 . S
C666 H650 0.931 . S
C666 C660 1.383 . S
C666 C665 1.379 . S
H667 C661 0.959 1_655 S
H668 C661 0.961 . S
H669 C661 0.960 . S
H670 C662 0.930 . S
H671 C663 0.929 . S
H672 C680 0.929 . S
H673 C682 0.930 . S
H674 C684 0.930 . S
H675 C687 0.929 . S
H676 C690 0.930 . S
H677 C692 0.960 . S
H678 C692 0.960 . S
H679 C692 0.960 . S
C680 H672 0.929 . S
C680 C681 1.377 . S
C680 C682 1.384 . S
C681 C680 1.377 . S
C681 C687 1.390 . S
C682 H673 0.930 . S
C682 C680 1.384 . S
C682 C683 1.372 . S
C683 C682 1.372 . S
C683 C684 1.400 . S
C683 C688 1.490 . S
C684 H674 0.930 . S
C684 C683 1.400 . S
C684 C687 1.386 . S
H685 C701 0.930 . S
H686 C702 0.931 . S
C687 H675 0.929 . S
C687 C681 1.390 . S
C687 C684 1.386 . S
C688 C683 1.490 . S
C688 C690 1.395 . S
C688 C691 1.403 . S
H689 C695 0.930 . S
C690 H676 0.930 . S
C690 C688 1.395 . S
C690 C693 1.403 . S
C691 C688 1.403 . S
C691 C692 1.524 . S
C691 C695 1.400 . S
C692 H677 0.960 . S
C692 H678 0.960 . S
C692 H679 0.960 . S
C692 C691 1.524 . S
C693 C690 1.403 . S
C693 C694 1.392 . S
C693 C697 1.495 . S
C694 C693 1.392 . S
C694 C695 1.385 . S
C694 C696 1.478 . S
C695 H689 0.930 . S
C695 C691 1.400 . S
C695 C694 1.385 . S
C696 C694 1.478 . S
C696 C698 1.381 . S
C696 C702 1.383 . S
C697 C693 1.495 . S
C697 H703 0.959 . S
C697 H704 0.961 . S
C697 H705 0.960 . S
C698 C696 1.381 . S
C698 C699 1.394 . S
C698 H706 0.930 . S
C699 C698 1.394 . S
C699 C700 1.383 . S
C699 H707 0.929 . S
C700 C699 1.383 . S
C700 C701 1.377 . S
C701 H685 0.930 . S
C701 C700 1.377 . S
C701 C702 1.379 . S
C702 H686 0.931 . S
C702 C696 1.383 . S
C702 C701 1.379 . S
H703 C697 0.959 . S
H704 C697 0.961 . S
H705 C697 0.960 . S
H706 C698 0.930 . S
H707 C699 0.929 . S
H708 C716 0.929 . S
H709 C718 0.930 . S
H710 C720 0.930 . S
H711 C723 0.929 . S
H712 C726 0.930 . S
H713 C728 0.960 . S
H714 C728 0.960 . S
H715 C728 0.960 . S
C716 H708 0.929 . S
C716 C717 1.377 . S
C716 C718 1.384 . S
C717 C716 1.377 . S
C717 C723 1.390 . S
C718 H709 0.930 . S
C718 C716 1.384 . S
C718 C719 1.372 . S
C719 C718 1.372 . S
C719 C720 1.400 . S
C719 C724 1.490 . S
C720 H710 0.930 . S
C720 C719 1.400 . S
C720 C723 1.386 . S
H721 C737 0.930 . S
H722 C738 0.931 . S
C723 H711 0.929 . S
C723 C717 1.390 . S
C723 C720 1.386 . S
C724 C719 1.490 . S
C724 C726 1.395 . S
C724 C727 1.403 . S
H725 C731 0.930 . S
C726 H712 0.930 . S
C726 C724 1.395 . S
C726 C729 1.403 . S
C727 C724 1.403 . S
C727 C728 1.524 . S
C727 C731 1.400 . S
C728 H713 0.960 . S
C728 H714 0.960 . S
C728 H715 0.960 . S
C728 C727 1.524 . S
C729 C726 1.403 . S
C729 C730 1.392 . S
C729 C733 1.495 . S
C730 C729 1.392 . S
C730 C731 1.385 . S
C730 C732 1.478 . S
C731 H725 0.930 . S
C731 C727 1.400 . S
C731 C730 1.385 . S
C732 C730 1.478 . S
C732 C734 1.381 . S
C732 C738 1.383 . S
C733 C729 1.495 . S
C733 H739 0.959 . S
C733 H740 0.961 . S
C733 H741 0.960 . S
C734 C732 1.381 . S
C734 C735 1.394 . S
C734 H742 0.930 . S
C735 C734 1.394 . S
C735 C736 1.383 . S
C735 H743 0.929 . S
C736 C735 1.383 . S
C736 C737 1.377 . S
C737 H721 0.930 . S
C737 C736 1.377 . S
C737 C738 1.379 . S
C738 H722 0.931 . S
C738 C732 1.383 . S
C738 C737 1.379 . S
H739 C733 0.959 . S
H740 C733 0.961 . S
H741 C733 0.960 . S
H742 C734 0.930 . S
H743 C735 0.929 . S
H744 C752 0.929 . S
H745 C754 0.930 . S
H746 C756 0.930 . S
H747 C759 0.929 . S
H748 C762 0.930 . S
H749 C764 0.960 . S
H750 C764 0.960 . S
H751 C764 0.960 . S
C752 H744 0.929 . S
C752 C753 1.377 . S
C752 C754 1.384 . S
C753 C752 1.377 . S
C753 C759 1.390 . S
C754 H745 0.930 . S
C754 C752 1.384 . S
C754 C755 1.372 . S
C755 C754 1.372 . S
C755 C756 1.400 . S
C755 C760 1.490 . S
C756 H746 0.930 . S
C756 C755 1.400 . S
C756 C759 1.386 . S
H757 C773 0.930 . S
H758 C774 0.931 . S
C759 H747 0.929 . S
C759 C753 1.390 . S
C759 C756 1.386 . S
C760 C755 1.490 . S
C760 C762 1.395 . S
C760 C763 1.403 . S
H761 C767 0.930 . S
C762 H748 0.930 . S
C762 C760 1.395 . S
C762 C765 1.403 . S
C763 C760 1.403 . S
C763 C764 1.524 . S
C763 C767 1.400 . S
C764 H749 0.960 . S
C764 H750 0.960 . S
C764 H751 0.960 . S
C764 C763 1.524 . S
C765 C762 1.403 . S
C765 C766 1.392 . S
C765 C769 1.495 . S
C766 C765 1.392 . S
C766 C767 1.385 . S
C766 C768 1.478 . S
C767 H761 0.930 . S
C767 C763 1.400 . S
C767 C766 1.385 . S
C768 C766 1.478 . S
C768 C770 1.381 . S
C768 C774 1.383 . S
C769 C765 1.495 . S
C769 H775 0.959 . S
C769 H776 0.961 . S
C769 H777 0.960 . S
C770 C768 1.381 . S
C770 C771 1.394 . S
C770 H778 0.930 . S
C771 C770 1.394 . S
C771 C772 1.383 . S
C771 H779 0.929 . S
C772 C771 1.383 . S
C772 C773 1.377 . S
C773 H757 0.930 . S
C773 C772 1.377 . S
C773 C774 1.379 . S
C774 H758 0.931 . S
C774 C768 1.383 . S
C774 C773 1.379 . S
H775 C769 0.959 . S
H776 C769 0.961 . S
H777 C769 0.960 . S
H778 C770 0.930 . S
H779 C771 0.929 . S
H780 C788 0.929 . S
H781 C790 0.930 . S
H782 C792 0.930 . S
H783 C795 0.929 . S
H784 C798 0.930 . S
H785 C800 0.960 . S
H786 C800 0.960 . S
H787 C800 0.960 . S
C788 H780 0.929 . S
C788 C789 1.377 . S
C788 C790 1.384 . S
C789 C788 1.377 . S
C789 C795 1.390 . S
C790 H781 0.930 . S
C790 C788 1.384 . S
C790 C791 1.372 . S
C791 C790 1.372 . S
C791 C792 1.400 . S
C791 C796 1.490 . S
C792 H782 0.930 . S
C792 C791 1.400 . S
C792 C795 1.386 . S
H793 C809 0.930 . S
H794 C810 0.931 . S
C795 H783 0.929 . S
C795 C789 1.390 . S
C795 C792 1.386 . S
C796 C791 1.490 . S
C796 C798 1.395 . S
C796 C799 1.403 . S
H797 C803 0.930 . S
C798 H784 0.930 . S
C798 C796 1.395 . S
C798 C801 1.403 . S
C799 C796 1.403 . S
C799 C800 1.524 . S
C799 C803 1.400 . S
C800 H785 0.960 . S
C800 H786 0.960 . S
C800 H787 0.960 . S
C800 C799 1.524 . S
C801 C798 1.403 . S
C801 C802 1.392 . S
C801 C805 1.495 . S
C802 C801 1.392 . S
C802 C803 1.385 . S
C802 C804 1.478 . S
C803 H797 0.930 . S
C803 C799 1.400 . S
C803 C802 1.385 . S
C804 C802 1.478 . S
C804 C806 1.381 . S
C804 C810 1.383 . S
C805 C801 1.495 . S
C805 H811 0.959 . S
C805 H812 0.961 . S
C805 H813 0.960 . S
C806 C804 1.381 . S
C806 C807 1.394 . S
C806 H814 0.930 . S
C807 C806 1.394 . S
C807 C808 1.383 . S
C807 H815 0.929 . S
C808 C807 1.383 . S
C808 C809 1.377 . S
C809 H793 0.930 . S
C809 C808 1.377 . S
C809 C810 1.379 . S
C810 H794 0.931 . S
C810 C804 1.383 . S
C810 C809 1.379 . S
H811 C805 0.959 . S
H812 C805 0.961 . S
H813 C805 0.960 . S
H814 C806 0.930 . S
H815 C807 0.929 . S
H816 C824 0.929 . S
H817 C826 0.930 . S
H818 C828 0.930 . S
H819 C831 0.929 . S
H820 C834 0.930 . S
H821 C836 0.960 . S
H822 C836 0.960 . S
H823 C836 0.960 1_655 S
C824 H816 0.929 . S
C824 C825 1.377 1_455 S
C824 C826 1.384 . S
C825 C824 1.377 1_655 S
C825 C831 1.390 . S
C826 H817 0.930 . S
C826 C824 1.384 . S
C826 C827 1.372 1_455 S
C827 C826 1.372 1_655 S
C827 C828 1.400 . S
C827 C832 1.490 1_655 S
C828 H818 0.930 . S
C828 C827 1.400 . S
C828 C831 1.386 . S
H829 C845 0.930 . S
H830 C846 0.931 1_655 S
C831 H819 0.929 . S
C831 C825 1.390 . S
C831 C828 1.386 . S
C832 C827 1.490 1_455 S
C832 C834 1.395 . S
C832 C835 1.403 . S
H833 C839 0.930 . S
C834 H820 0.930 . S
C834 C832 1.395 . S
C834 C837 1.403 . S
C835 C832 1.403 . S
C835 C836 1.524 . S
C835 C839 1.400 . S
C836 H821 0.960 . S
C836 H822 0.960 . S
C836 H823 0.960 1_455 S
C836 C835 1.524 . S
C837 C834 1.403 . S
C837 C838 1.392 . S
C837 C841 1.495 . S
C838 C837 1.392 . S
C838 C839 1.385 . S
C838 C840 1.478 . S
C839 H833 0.930 . S
C839 C835 1.400 . S
C839 C838 1.385 . S
C840 C838 1.478 . S
C840 C842 1.381 . S
C840 C846 1.383 . S
C841 C837 1.495 . S
C841 H847 0.959 . S
C841 H848 0.961 . S
C841 H849 0.960 . S
C842 C840 1.381 . S
C842 C843 1.394 . S
C842 H850 0.930 . S
C843 C842 1.394 . S
C843 C844 1.383 . S
C843 H851 0.929 . S
C844 C843 1.383 . S
C844 C845 1.377 . S
C845 H829 0.930 . S
C845 C844 1.377 . S
C845 C846 1.379 . S
C846 H830 0.931 1_455 S
C846 C840 1.383 . S
C846 C845 1.379 . S
H847 C841 0.959 . S
H848 C841 0.961 . S
H849 C841 0.960 . S
H850 C842 0.930 . S
H851 C843 0.929 . S
H852 C860 0.929 . S
H853 C862 0.930 . S
H854 C864 0.930 . S
H855 C867 0.929 . S
H856 C870 0.930 . S
H857 C872 0.960 . S
H858 C872 0.960 . S
H859 C872 0.960 . S
C860 H852 0.929 . S
C860 C861 1.377 1_545 S
C860 C862 1.384 . S
C861 C860 1.377 1_565 S
C861 C867 1.390 . S
C862 H853 0.930 . S
C862 C860 1.384 . S
C862 C863 1.372 1_545 S
C863 C862 1.372 1_565 S
C863 C864 1.400 . S
C863 C868 1.490 1_565 S
C864 H854 0.930 . S
C864 C863 1.400 . S
C864 C867 1.386 . S
H865 C881 0.930 . S
H866 C882 0.931 . S
C867 H855 0.929 . S
C867 C861 1.390 . S
C867 C864 1.386 . S
C868 C863 1.490 1_545 S
C868 C870 1.395 . S
C868 C871 1.403 1_545 S
H869 C875 0.930 1_565 S
C870 H856 0.930 . S
C870 C868 1.395 . S
C870 C873 1.403 . S
C871 C868 1.403 1_565 S
C871 C872 1.524 . S
C871 C875 1.400 1_565 S
C872 H857 0.960 . S
C872 H858 0.960 . S
C872 H859 0.960 . S
C872 C871 1.524 . S
C873 C870 1.403 . S
C873 C874 1.392 . S
C873 C877 1.495 . S
C874 C873 1.392 . S
C874 C875 1.385 . S
C874 C876 1.478 . S
C875 H869 0.930 1_545 S
C875 C871 1.400 1_545 S
C875 C874 1.385 . S
C876 C874 1.478 . S
C876 C878 1.381 . S
C876 C882 1.383 . S
C877 C873 1.495 . S
C877 H883 0.959 . S
C877 H884 0.961 . S
C877 H885 0.960 . S
C878 C876 1.381 . S
C878 C879 1.394 . S
C878 H886 0.930 . S
C879 C878 1.394 . S
C879 C880 1.383 . S
C879 H887 0.929 . S
C880 C879 1.383 . S
C880 C881 1.377 . S
C881 H865 0.930 . S
C881 C880 1.377 . S
C881 C882 1.379 . S
C882 H866 0.931 . S
C882 C876 1.383 . S
C882 C881 1.379 . S
H883 C877 0.959 . S
H884 C877 0.961 . S
H885 C877 0.960 . S
H886 C878 0.930 . S
H887 C879 0.929 . S
C249 C129 1.126 1_565 S
C268 C9 1.099 . S
C285 C169 1.127 . S
C304 C49 1.101 . S
C321 C209 1.128 . S
C340 C89 1.097 1_655 S
C357 C15 0.570 . S
C376 C86 0.627 . S
C393 C55 0.569 . S
C412 C126 0.627 . S
C429 C95 0.600 . S
C448 C166 0.484 . S
C465 C135 0.597 . S
C484 C206 0.458 . S
C501 C175 0.566 . S
C520 C6 0.495 . S
C537 C215 0.596 . S
C556 C46 0.550 . S
C573 C18 1.005 . S
C592 C138 1.008 . S
C609 C58 0.996 . S
C628 C178 1.005 . S
C645 C98 0.996 . S
C664 C218 1.000 . S
C681 C10 3.907 . S
C700 C59 3.970 . S
C717 C50 3.908 . S
C736 C99 3.970 . S
C753 C90 3.911 . S
C772 C139 3.963 . S
C789 C130 3.910 . S
C808 C179 3.967 . S
C825 C170 3.908 . S
C844 C219 3.969 . S
C861 C210 3.910 . S
C880 C19 3.967 . S
