# Generated by pormake.
# Topology wjb, (6)-cn, num edge types: 1
# Building blocks:
#     Node 0, Type 0, BuildingBlock: OJICUG_clean_sbu_0, # of connection points: 6
#     Node 1, Type 0, BuildingBlock: OJICUG_clean_sbu_0, # of connection points: 6
#     Node 2, Type 0, BuildingBlock: OJICUG_clean_sbu_0, # of connection points: 6
#     Node 3, Type 0, BuildingBlock: OJICUG_clean_sbu_0, # of connection points: 6
#     Node 4, Type 0, BuildingBlock: OJICUG_clean_sbu_0, # of connection points: 6
#     Node 5, Type 0, BuildingBlock: OJICUG_clean_sbu_0, # of connection points: 6
#     Node 6, Type 0, BuildingBlock: OJICUG_clean_sbu_0, # of connection points: 6
#     Node 7, Type 0, BuildingBlock: OJICUG_clean_sbu_0, # of connection points: 6
#     Node 8, Type 0, BuildingBlock: OJICUG_clean_sbu_0, # of connection points: 6
#     Node 9, Type 0, BuildingBlock: OJICUG_clean_sbu_0, # of connection points: 6
#     Node 10, Type 0, BuildingBlock: OJICUG_clean_sbu_0, # of connection points: 6
#     Node 11, Type 0, BuildingBlock: OJICUG_clean_sbu_0, # of connection points: 6
#     Node 12, Type 0, BuildingBlock: OJICUG_clean_sbu_0, # of connection points: 6
#     Node 13, Type 0, BuildingBlock: OJICUG_clean_sbu_0, # of connection points: 6
#     Node 14, Type 0, BuildingBlock: OJICUG_clean_sbu_0, # of connection points: 6
#     Node 15, Type 0, BuildingBlock: OJICUG_clean_sbu_0, # of connection points: 6
#     Node 16, Type 0, BuildingBlock: OJICUG_clean_sbu_0, # of connection points: 6
#     Node 17, Type 0, BuildingBlock: OJICUG_clean_sbu_0, # of connection points: 6
#     Node 18, Type 0, BuildingBlock: OJICUG_clean_sbu_0, # of connection points: 6
#     Node 19, Type 0, BuildingBlock: OJICUG_clean_sbu_0, # of connection points: 6
#     Node 20, Type 0, BuildingBlock: OJICUG_clean_sbu_0, # of connection points: 6
#     Node 21, Type 0, BuildingBlock: OJICUG_clean_sbu_0, # of connection points: 6
#     Node 22, Type 0, BuildingBlock: OJICUG_clean_sbu_0, # of connection points: 6
#     Node 23, Type 0, BuildingBlock: OJICUG_clean_sbu_0, # of connection points: 6
#     Edge 24, Type (0, 0), BuildingBlock: ZUJKAS_clean_linker_0, # of connection points: 2
#     Edge 25, Type (0, 0), BuildingBlock: ZUJKAS_clean_linker_0, # of connection points: 2
#     Edge 26, Type (0, 0), BuildingBlock: ZUJKAS_clean_linker_0, # of connection points: 2
#     Edge 27, Type (0, 0), BuildingBlock: ZUJKAS_clean_linker_0, # of connection points: 2
#     Edge 28, Type (0, 0), BuildingBlock: ZUJKAS_clean_linker_0, # of connection points: 2
#     Edge 29, Type (0, 0), BuildingBlock: ZUJKAS_clean_linker_0, # of connection points: 2
#     Edge 30, Type (0, 0), BuildingBlock: ZUJKAS_clean_linker_0, # of connection points: 2
#     Edge 31, Type (0, 0), BuildingBlock: ZUJKAS_clean_linker_0, # of connection points: 2
#     Edge 32, Type (0, 0), BuildingBlock: ZUJKAS_clean_linker_0, # of connection points: 2
#     Edge 33, Type (0, 0), BuildingBlock: ZUJKAS_clean_linker_0, # of connection points: 2
#     Edge 34, Type (0, 0), BuildingBlock: ZUJKAS_clean_linker_0, # of connection points: 2
#     Edge 35, Type (0, 0), BuildingBlock: ZUJKAS_clean_linker_0, # of connection points: 2
#     Edge 36, Type (0, 0), BuildingBlock: ZUJKAS_clean_linker_0, # of connection points: 2
#     Edge 37, Type (0, 0), BuildingBlock: ZUJKAS_clean_linker_0, # of connection points: 2
#     Edge 38, Type (0, 0), BuildingBlock: ZUJKAS_clean_linker_0, # of connection points: 2
#     Edge 39, Type (0, 0), BuildingBlock: ZUJKAS_clean_linker_0, # of connection points: 2
#     Edge 40, Type (0, 0), BuildingBlock: ZUJKAS_clean_linker_0, # of connection points: 2
#     Edge 41, Type (0, 0), BuildingBlock: ZUJKAS_clean_linker_0, # of connection points: 2
#     Edge 42, Type (0, 0), BuildingBlock: ZUJKAS_clean_linker_0, # of connection points: 2
#     Edge 43, Type (0, 0), BuildingBlock: ZUJKAS_clean_linker_0, # of connection points: 2
#     Edge 44, Type (0, 0), BuildingBlock: ZUJKAS_clean_linker_0, # of connection points: 2
#     Edge 45, Type (0, 0), BuildingBlock: ZUJKAS_clean_linker_0, # of connection points: 2
#     Edge 46, Type (0, 0), BuildingBlock: ZUJKAS_clean_linker_0, # of connection points: 2
#     Edge 47, Type (0, 0), BuildingBlock: ZUJKAS_clean_linker_0, # of connection points: 2
#     Edge 48, Type (0, 0), BuildingBlock: ZUJKAS_clean_linker_0, # of connection points: 2
#     Edge 49, Type (0, 0), BuildingBlock: ZUJKAS_clean_linker_0, # of connection points: 2
#     Edge 50, Type (0, 0), BuildingBlock: ZUJKAS_clean_linker_0, # of connection points: 2
#     Edge 51, Type (0, 0), BuildingBlock: ZUJKAS_clean_linker_0, # of connection points: 2
#     Edge 52, Type (0, 0), BuildingBlock: ZUJKAS_clean_linker_0, # of connection points: 2
#     Edge 53, Type (0, 0), BuildingBlock: ZUJKAS_clean_linker_0, # of connection points: 2
#     Edge 54, Type (0, 0), BuildingBlock: ZUJKAS_clean_linker_0, # of connection points: 2
#     Edge 55, Type (0, 0), BuildingBlock: ZUJKAS_clean_linker_0, # of connection points: 2
#     Edge 56, Type (0, 0), BuildingBlock: ZUJKAS_clean_linker_0, # of connection points: 2
#     Edge 57, Type (0, 0), BuildingBlock: ZUJKAS_clean_linker_0, # of connection points: 2
#     Edge 58, Type (0, 0), BuildingBlock: ZUJKAS_clean_linker_0, # of connection points: 2
#     Edge 59, Type (0, 0), BuildingBlock: ZUJKAS_clean_linker_0, # of connection points: 2
#     Edge 60, Type (0, 0), BuildingBlock: ZUJKAS_clean_linker_0, # of connection points: 2
#     Edge 61, Type (0, 0), BuildingBlock: ZUJKAS_clean_linker_0, # of connection points: 2
#     Edge 62, Type (0, 0), BuildingBlock: ZUJKAS_clean_linker_0, # of connection points: 2
#     Edge 63, Type (0, 0), BuildingBlock: ZUJKAS_clean_linker_0, # of connection points: 2
#     Edge 64, Type (0, 0), BuildingBlock: ZUJKAS_clean_linker_0, # of connection points: 2
#     Edge 65, Type (0, 0), BuildingBlock: ZUJKAS_clean_linker_0, # of connection points: 2
#     Edge 66, Type (0, 0), BuildingBlock: ZUJKAS_clean_linker_0, # of connection points: 2
#     Edge 67, Type (0, 0), BuildingBlock: ZUJKAS_clean_linker_0, # of connection points: 2
#     Edge 68, Type (0, 0), BuildingBlock: ZUJKAS_clean_linker_0, # of connection points: 2
#     Edge 69, Type (0, 0), BuildingBlock: ZUJKAS_clean_linker_0, # of connection points: 2
#     Edge 70, Type (0, 0), BuildingBlock: ZUJKAS_clean_linker_0, # of connection points: 2
#     Edge 71, Type (0, 0), BuildingBlock: ZUJKAS_clean_linker_0, # of connection points: 2
#     Edge 72, Type (0, 0), BuildingBlock: ZUJKAS_clean_linker_0, # of connection points: 2
#     Edge 73, Type (0, 0), BuildingBlock: ZUJKAS_clean_linker_0, # of connection points: 2
#     Edge 74, Type (0, 0), BuildingBlock: ZUJKAS_clean_linker_0, # of connection points: 2
#     Edge 75, Type (0, 0), BuildingBlock: ZUJKAS_clean_linker_0, # of connection points: 2
#     Edge 76, Type (0, 0), BuildingBlock: ZUJKAS_clean_linker_0, # of connection points: 2
#     Edge 77, Type (0, 0), BuildingBlock: ZUJKAS_clean_linker_0, # of connection points: 2
#     Edge 78, Type (0, 0), BuildingBlock: ZUJKAS_clean_linker_0, # of connection points: 2
#     Edge 79, Type (0, 0), BuildingBlock: ZUJKAS_clean_linker_0, # of connection points: 2
#     Edge 80, Type (0, 0), BuildingBlock: ZUJKAS_clean_linker_0, # of connection points: 2
#     Edge 81, Type (0, 0), BuildingBlock: ZUJKAS_clean_linker_0, # of connection points: 2
#     Edge 82, Type (0, 0), BuildingBlock: ZUJKAS_clean_linker_0, # of connection points: 2
#     Edge 83, Type (0, 0), BuildingBlock: ZUJKAS_clean_linker_0, # of connection points: 2
#     Edge 84, Type (0, 0), BuildingBlock: ZUJKAS_clean_linker_0, # of connection points: 2
#     Edge 85, Type (0, 0), BuildingBlock: ZUJKAS_clean_linker_0, # of connection points: 2
#     Edge 86, Type (0, 0), BuildingBlock: ZUJKAS_clean_linker_0, # of connection points: 2
#     Edge 87, Type (0, 0), BuildingBlock: ZUJKAS_clean_linker_0, # of connection points: 2
#     Edge 88, Type (0, 0), BuildingBlock: ZUJKAS_clean_linker_0, # of connection points: 2
#     Edge 89, Type (0, 0), BuildingBlock: ZUJKAS_clean_linker_0, # of connection points: 2
#     Edge 90, Type (0, 0), BuildingBlock: ZUJKAS_clean_linker_0, # of connection points: 2
#     Edge 91, Type (0, 0), BuildingBlock: ZUJKAS_clean_linker_0, # of connection points: 2
#     Edge 92, Type (0, 0), BuildingBlock: ZUJKAS_clean_linker_0, # of connection points: 2
#     Edge 93, Type (0, 0), BuildingBlock: ZUJKAS_clean_linker_0, # of connection points: 2
#     Edge 94, Type (0, 0), BuildingBlock: ZUJKAS_clean_linker_0, # of connection points: 2
#     Edge 95, Type (0, 0), BuildingBlock: ZUJKAS_clean_linker_0, # of connection points: 2
# Relax obj value: 0.482
# Max RMSD: 0.212
# Mean RMSD: 0.212
data_MOF--net-wjb--node1-OJICUG_clean_sbu_0--edge1-ZUJKAS_clean_linker_0
_symmetry_space_group_name_H-M    P1
_symmetry_Int_Tables_number       1
_symmetry_cell_setting            triclinic
loop_
_symmetry_equiv_pos_as_xyz
'x, y, z'
_cell_length_a     66.180948
_cell_length_b     66.20009
_cell_length_c     73.514424
_cell_angle_alpha  89.983624
_cell_angle_beta   90.016769
_cell_angle_gamma 119.9867
loop_
_atom_site_label
_atom_site_type_symbol
_atom_site_fract_x
_atom_site_fract_y
_atom_site_fract_z
_atom_type_partial_charge
Sc0 Sc 0.1281 0.48841 0.11264 0.0
Sc1 Sc 0.16047 0.45907 0.11615 0.0
Sc2 Sc 0.18331 0.51209 0.09234 0.0
O3 O 0.15727 0.48651 0.10707 0.0
C4 C 0.13857 0.50842 0.07228 0.0
C5 C 0.10702 0.43424 0.10437 0.0
C6 C 0.17952 0.46587 0.07552 0.0
C7 C 0.1376 0.46981 0.15015 0.0
C8 C 0.16885 0.54087 0.11867 0.0
C9 C 0.21265 0.50058 0.12081 0.0
O10 O 0.12444 0.49812 0.08527 0.0
O11 O 0.12542 0.43386 0.10858 0.0
O12 O 0.18469 0.48712 0.07439 0.0
O13 O 0.12838 0.47929 0.1408 0.0
O14 O 0.18386 0.53881 0.10928 0.0
O15 O 0.19619 0.48035 0.12487 0.0
O16 O 0.14782 0.52463 0.12059 0.0
O17 O 0.14985 0.46193 0.14315 0.0
O18 O 0.2103 0.51356 0.10933 0.0
O19 O 0.10551 0.45264 0.10498 0.0
O20 O 0.16004 0.51454 0.07321 0.0
O21 O 0.17119 0.45369 0.08984 0.0
Sc22 Sc 0.64223 0.12962 0.61094 0.0
Sc23 Sc 0.70399 0.16233 0.61289 0.0
Sc24 Sc 0.67293 0.18105 0.58553 0.0
O25 O 0.67304 0.15766 0.60316 0.0
C26 C 0.63185 0.13395 0.5691 0.0
C27 C 0.67484 0.1075 0.60539 0.0
C28 C 0.71602 0.17626 0.57138 0.0
C29 C 0.67191 0.14366 0.64789 0.0
C30 C 0.62997 0.17024 0.61176 0.0
C31 C 0.71329 0.21449 0.61286 0.0
O32 O 0.62682 0.12284 0.58406 0.0
O33 O 0.69367 0.12625 0.60893 0.0
O34 O 0.70028 0.18175 0.56935 0.0
O35 O 0.65302 0.13264 0.63894 0.0
O36 O 0.64539 0.18251 0.59999 0.0
O37 O 0.71821 0.19913 0.61805 0.0
O38 O 0.62691 0.15079 0.61752 0.0
O39 O 0.69164 0.15594 0.64036 0.0
O40 O 0.69722 0.21023 0.60148 0.0
O41 O 0.65499 0.10619 0.60496 0.0
O42 O 0.64863 0.15469 0.56745 0.0
O43 O 0.71953 0.16891 0.58633 0.0
Sc44 Sc 0.505 0.63596 0.11277 0.0
Sc45 Sc 0.5301 0.6973 0.11462 0.0
Sc46 Sc 0.48299 0.66376 0.08538 0.0
O47 O 0.506 0.66569 0.10433 0.0
C48 C 0.49353 0.62523 0.07044 0.0
C49 C 0.55927 0.67139 0.10827 0.0
C50 C 0.52985 0.70942 0.07288 0.0
C51 C 0.51722 0.66554 0.14971 0.0
C52 C 0.45137 0.61979 0.11109 0.0
C53 C 0.48453 0.70223 0.11221 0.0
O54 O 0.49786 0.62002 0.08604 0.0
O55 O 0.55787 0.68939 0.1121 0.0
O56 O 0.5092 0.69278 0.0702 0.0
O57 O 0.51152 0.64702 0.14079 0.0
O58 O 0.45423 0.63414 0.09844 0.0
O59 O 0.50498 0.70883 0.11812 0.0
O60 O 0.46825 0.61903 0.11869 0.0
O61 O 0.52316 0.68494 0.14212 0.0
O62 O 0.47426 0.6858 0.10077 0.0
O63 O 0.54159 0.65096 0.10726 0.0
O64 O 0.48943 0.64178 0.06787 0.0
O65 O 0.53998 0.71322 0.0882 0.0
Sc66 Sc 0.86344 0.5073 0.61011 0.0
Sc67 Sc 0.83113 0.53672 0.61293 0.0
Sc68 Sc 0.81018 0.48546 0.58699 0.0
O69 O 0.83493 0.50983 0.60337 0.0
C70 C 0.85612 0.49028 0.56877 0.0
C71 C 0.88533 0.56182 0.60322 0.0
C72 C 0.81451 0.53275 0.57189 0.0
C73 C 0.85175 0.52432 0.64741 0.0
C74 C 0.82254 0.45448 0.61309 0.0
C75 C 0.77892 0.4944 0.61529 0.0
O76 O 0.86863 0.49822 0.58296 0.0
O77 O 0.86682 0.56217 0.60717 0.0
O78 O 0.80908 0.5115 0.57021 0.0
O79 O 0.86187 0.51568 0.63821 0.0
O80 O 0.80912 0.45723 0.60225 0.0
O81 O 0.7948 0.51471 0.61987 0.0
O82 O 0.84276 0.47093 0.61738 0.0
O83 O 0.83954 0.53208 0.64018 0.0
O84 O 0.78219 0.48206 0.60375 0.0
O85 O 0.88661 0.54327 0.60329 0.0
O86 O 0.835 0.48547 0.56821 0.0
O87 O 0.82252 0.54418 0.58654 0.0
Sc88 Sc 0.34869 0.86215 0.11181 0.0
Sc89 Sc 0.2869 0.83388 0.11383 0.0
Sc90 Sc 0.3146 0.81355 0.0843 0.0
O91 O 0.31676 0.83657 0.10336 0.0
C92 C 0.35886 0.86018 0.06973 0.0
C93 C 0.31928 0.88848 0.10809 0.0
C94 C 0.27424 0.82291 0.07167 0.0
C95 C 0.3197 0.84851 0.14882 0.0
C96 C 0.35565 0.81784 0.10969 0.0
C97 C 0.27285 0.7808 0.1112 0.0
O98 O 0.36354 0.87108 0.08476 0.0
O99 O 0.29934 0.87025 0.10944 0.0
O100 O 0.29057 0.81866 0.06831 0.0
O101 O 0.33862 0.85632 0.13998 0.0
O102 O 0.33874 0.80656 0.09876 0.0
O103 O 0.27166 0.79707 0.1194 0.0
O104 O 0.36165 0.83827 0.11528 0.0
O105 O 0.29989 0.8405 0.14129 0.0
O106 O 0.28667 0.7844 0.09804 0.0
O107 O 0.33838 0.88819 0.10901 0.0
O108 O 0.34196 0.83956 0.06781 0.0
O109 O 0.26991 0.82725 0.08759 0.0
Sc110 Sc 0.48712 0.35314 0.61034 0.0
Sc111 Sc 0.45937 0.2916 0.61388 0.0
Sc112 Sc 0.5097 0.32252 0.58702 0.0
O113 O 0.4854 0.32243 0.60378 0.0
C114 C 0.50323 0.36266 0.56878 0.0
C115 C 0.43266 0.31923 0.60444 0.0
C116 C 0.46249 0.27871 0.57275 0.0
C117 C 0.47173 0.32502 0.64801 0.0
C118 C 0.54041 0.36641 0.6127 0.0
C119 C 0.5026 0.28302 0.61541 0.0
O120 O 0.49532 0.36713 0.58304 0.0
O121 O 0.43303 0.30081 0.60863 0.0
O122 O 0.48357 0.29483 0.57066 0.0
O123 O 0.47949 0.34354 0.63858 0.0
O124 O 0.53788 0.35029 0.6019 0.0
O125 O 0.4823 0.27819 0.6204 0.0
O126 O 0.5237 0.3697 0.61717 0.0
O127 O 0.46452 0.30503 0.64101 0.0
O128 O 0.5143 0.29858 0.60366 0.0
O129 O 0.45086 0.33931 0.60397 0.0
O130 O 0.50857 0.34673 0.56826 0.0
O131 O 0.45148 0.27525 0.58763 0.0
Sc132 Sc 0.48682 0.81263 0.90513 0.0
Sc133 Sc 0.53789 0.83245 0.87913 0.0
Sc134 Sc 0.50889 0.86522 0.88111 0.0
O135 O 0.5112 0.83678 0.88843 0.0
C136 C 0.45598 0.82485 0.8786 0.0
C137 C 0.49503 0.78031 0.87752 0.0
C138 C 0.52566 0.85233 0.84412 0.0
C139 C 0.53403 0.81678 0.92041 0.0
C140 C 0.49215 0.85903 0.92257 0.0
C141 C 0.56332 0.88694 0.88798 0.0
O142 O 0.45855 0.81187 0.89004 0.0
O143 O 0.51558 0.79583 0.87306 0.0
O144 O 0.51761 0.86316 0.85313 0.0
O145 O 0.51271 0.81123 0.92188 0.0
O146 O 0.49928 0.87094 0.90801 0.0
O147 O 0.5636 0.86839 0.88403 0.0
O148 O 0.48787 0.83813 0.92367 0.0
O149 O 0.54562 0.82477 0.90582 0.0
O150 O 0.54478 0.88824 0.88814 0.0
O151 O 0.48266 0.78415 0.88863 0.0
O152 O 0.47267 0.84458 0.87361 0.0
O153 O 0.5329 0.83982 0.85161 0.0
Sc154 Sc 0.67091 0.48458 0.40217 0.0
Sc155 Sc 0.70171 0.53496 0.37552 0.0
Sc156 Sc 0.64016 0.50679 0.37854 0.0
O157 O 0.67091 0.50877 0.38539 0.0
C158 C 0.62733 0.45376 0.3761 0.0
C159 C 0.71083 0.49202 0.37428 0.0
C160 C 0.66892 0.52265 0.34125 0.0
C161 C 0.71439 0.53207 0.41664 0.0
C162 C 0.63034 0.49032 0.4201 0.0
C163 C 0.67328 0.56109 0.38454 0.0
O164 O 0.64295 0.45636 0.38749 0.0
O165 O 0.71602 0.5126 0.36982 0.0
O166 O 0.65041 0.5159 0.3505 0.0
O167 O 0.69881 0.51072 0.41838 0.0
O168 O 0.62543 0.49741 0.40559 0.0
O169 O 0.69172 0.56097 0.37991 0.0
O170 O 0.64695 0.48599 0.421 0.0
O171 O 0.71749 0.54345 0.402 0.0
O172 O 0.65342 0.54267 0.3856 0.0
O173 O 0.69462 0.47978 0.3854 0.0
O174 O 0.62432 0.47046 0.37101 0.0
O175 O 0.68866 0.52873 0.34826 0.0
Sc176 Sc 0.1847 0.67706 0.90486 0.0
Sc177 Sc 0.16452 0.70682 0.87738 0.0
Sc178 Sc 0.13283 0.64511 0.88011 0.0
O179 O 0.16065 0.67632 0.88744 0.0
C180 C 0.17409 0.63367 0.87934 0.0
C181 C 0.21698 0.71705 0.87685 0.0
C182 C 0.14617 0.67389 0.84268 0.0
C183 C 0.17914 0.71985 0.91874 0.0
C184 C 0.1382 0.63572 0.9221 0.0
C185 C 0.10982 0.67705 0.88523 0.0
O186 O 0.18667 0.64973 0.89056 0.0
O187 O 0.2013 0.72154 0.87173 0.0
O188 O 0.13571 0.65509 0.85183 0.0
O189 O 0.18501 0.7044 0.92091 0.0
O190 O 0.1265 0.63071 0.9074 0.0
O191 O 0.12837 0.69606 0.88171 0.0
O192 O 0.15905 0.65247 0.92324 0.0
O193 O 0.17139 0.72284 0.90379 0.0
O194 O 0.10893 0.6574 0.88564 0.0
O195 O 0.21326 0.70142 0.88849 0.0
O196 O 0.15424 0.62995 0.87399 0.0
O197 O 0.1578 0.69384 0.85004 0.0
Sc198 Sc 0.50593 0.18167 0.40363 0.0
Sc199 Sc 0.45555 0.16213 0.37685 0.0
Sc200 Sc 0.48419 0.12909 0.37962 0.0
O201 O 0.48188 0.15761 0.38668 0.0
C202 C 0.53726 0.16938 0.37775 0.0
C203 C 0.49854 0.21418 0.37564 0.0
C204 C 0.46842 0.14224 0.34231 0.0
C205 C 0.45842 0.17765 0.418 0.0
C206 C 0.49994 0.13511 0.42129 0.0
C207 C 0.42961 0.1076 0.38551 0.0
O208 O 0.53446 0.18231 0.38908 0.0
O209 O 0.47806 0.19873 0.37099 0.0
O210 O 0.47611 0.13123 0.35152 0.0
O211 O 0.4797 0.1832 0.41981 0.0
O212 O 0.49314 0.12329 0.40669 0.0
O213 O 0.42965 0.12626 0.3814 0.0
O214 O 0.50427 0.15603 0.42235 0.0
O215 O 0.44714 0.16963 0.40329 0.0
O216 O 0.44805 0.10612 0.38616 0.0
O217 O 0.51067 0.21027 0.38695 0.0
O218 O 0.52065 0.14969 0.37258 0.0
O219 O 0.46123 0.1549 0.34956 0.0
Sc220 Sc 0.32446 0.50888 0.90518 0.0
Sc221 Sc 0.29188 0.45885 0.87836 0.0
Sc222 Sc 0.3537 0.48693 0.87934 0.0
O223 O 0.32335 0.48488 0.88759 0.0
C224 C 0.36713 0.54021 0.87853 0.0
C225 C 0.28389 0.5025 0.87823 0.0
C226 C 0.32319 0.47154 0.84282 0.0
C227 C 0.28102 0.46187 0.92006 0.0
C228 C 0.36519 0.50172 0.92106 0.0
C229 C 0.32023 0.43236 0.88562 0.0
O230 O 0.35181 0.53738 0.89027 0.0
O231 O 0.27852 0.4821 0.87303 0.0
O232 O 0.34234 0.4796 0.85144 0.0
O233 O 0.29741 0.48282 0.92189 0.0
O234 O 0.36943 0.49495 0.9061 0.0
O235 O 0.3014 0.43251 0.8826 0.0
O236 O 0.34905 0.50662 0.92281 0.0
O237 O 0.27668 0.45082 0.90512 0.0
O238 O 0.34027 0.45064 0.88529 0.0
O239 O 0.30007 0.51406 0.8896 0.0
O240 O 0.36987 0.52358 0.87287 0.0
O241 O 0.30364 0.46391 0.85069 0.0
Sc242 Sc 0.80857 0.31904 0.40336 0.0
Sc243 Sc 0.82897 0.28924 0.3761 0.0
Sc244 Sc 0.86198 0.35068 0.38059 0.0
O245 O 0.83317 0.31966 0.38665 0.0
C246 C 0.82156 0.36331 0.37813 0.0
C247 C 0.77696 0.28013 0.37427 0.0
C248 C 0.8507 0.32354 0.34256 0.0
C249 C 0.81223 0.27513 0.41698 0.0
C250 C 0.8545 0.35923 0.4222 0.0
C251 C 0.88307 0.31725 0.38639 0.0
O252 O 0.80807 0.34705 0.38888 0.0
O253 O 0.79266 0.27562 0.36925 0.0
O254 O 0.86102 0.34175 0.35234 0.0
O255 O 0.80706 0.29107 0.41929 0.0
O256 O 0.86695 0.3642 0.40795 0.0
O257 O 0.86459 0.2988 0.38169 0.0
O258 O 0.8334 0.34292 0.42263 0.0
O259 O 0.82013 0.27217 0.40209 0.0
O260 O 0.88457 0.33716 0.3872 0.0
O261 O 0.78048 0.29535 0.38625 0.0
O262 O 0.84163 0.36682 0.3736 0.0
O263 O 0.83772 0.30333 0.34913 0.0
Sc264 Sc 0.86636 0.51092 0.87957 0.0
Sc265 Sc 0.83301 0.53924 0.87661 0.0
Sc266 Sc 0.81401 0.48929 0.9039 0.0
O267 O 0.83779 0.51315 0.88665 0.0
C268 C 0.826 0.45771 0.8782 0.0
C269 C 0.85273 0.52588 0.84212 0.0
C270 C 0.78096 0.49626 0.87611 0.0
C271 C 0.8876 0.56558 0.88499 0.0
C272 C 0.8611 0.49591 0.9213 0.0
C273 C 0.81822 0.53689 0.91806 0.0
O274 O 0.84595 0.47417 0.87335 0.0
O275 O 0.84044 0.53357 0.84931 0.0
O276 O 0.78508 0.48472 0.88783 0.0
O277 O 0.8892 0.54722 0.88535 0.0
O278 O 0.83986 0.49059 0.92219 0.0
O279 O 0.82543 0.5477 0.90305 0.0
O280 O 0.87302 0.5034 0.9068 0.0
O281 O 0.86881 0.56546 0.88121 0.0
O282 O 0.81318 0.5158 0.92021 0.0
O283 O 0.86347 0.51795 0.85137 0.0
O284 O 0.81279 0.46065 0.88913 0.0
O285 O 0.7964 0.5164 0.87076 0.0
Sc286 Sc 0.35557 0.86598 0.38062 0.0
Sc287 Sc 0.29395 0.83182 0.37965 0.0
Sc288 Sc 0.32635 0.81828 0.41014 0.0
O289 O 0.32528 0.83864 0.39008 0.0
C290 C 0.36796 0.82558 0.38348 0.0
C291 C 0.32512 0.84746 0.34419 0.0
C292 C 0.28518 0.7805 0.38544 0.0
C293 C 0.32224 0.88741 0.3838 0.0
C294 C 0.3682 0.86734 0.42271 0.0
C295 C 0.28311 0.82381 0.42219 0.0
O296 O 0.37061 0.84413 0.37605 0.0
O297 O 0.30574 0.83489 0.35209 0.0
O298 O 0.30084 0.78657 0.39751 0.0
O299 O 0.34229 0.88925 0.3848 0.0
O300 O 0.35148 0.84701 0.42593 0.0
O301 O 0.27855 0.82783 0.40623 0.0
O302 O 0.37253 0.87629 0.40691 0.0
O303 O 0.30359 0.86816 0.38087 0.0
O304 O 0.29985 0.82017 0.42562 0.0
O305 O 0.34398 0.86039 0.35269 0.0
O306 O 0.3532 0.81486 0.39612 0.0
O307 O 0.28074 0.79475 0.37729 0.0
Sc308 Sc 0.48729 0.35617 0.87974 0.0
Sc309 Sc 0.45823 0.29444 0.87763 0.0
Sc310 Sc 0.50763 0.32533 0.90544 0.0
O311 O 0.48438 0.32532 0.88758 0.0
C312 C 0.54011 0.36808 0.87919 0.0
C313 C 0.47219 0.32676 0.8427 0.0
C314 C 0.50091 0.28488 0.87822 0.0
C315 C 0.4325 0.32361 0.88498 0.0
C316 C 0.50191 0.36678 0.92156 0.0
C317 C 0.45953 0.28236 0.9193 0.0
O318 O 0.52385 0.37142 0.8735 0.0
O319 O 0.46451 0.30696 0.85016 0.0
O320 O 0.51237 0.3007 0.88986 0.0
O321 O 0.45105 0.34344 0.88542 0.0
O322 O 0.50596 0.35006 0.92327 0.0
O323 O 0.44904 0.27873 0.90415 0.0
O324 O 0.49557 0.37152 0.90661 0.0
O325 O 0.43241 0.30475 0.88149 0.0
O326 O 0.48063 0.29826 0.92161 0.0
O327 O 0.47996 0.34557 0.85172 0.0
O328 O 0.53682 0.35251 0.89086 0.0
O329 O 0.48088 0.28023 0.87258 0.0
Sc330 Sc 0.13104 0.4824 0.38311 0.0
Sc331 Sc 0.16066 0.45058 0.37791 0.0
Sc332 Sc 0.18034 0.49602 0.40946 0.0
O333 O 0.15726 0.47634 0.39009 0.0
C334 C 0.17579 0.53348 0.38547 0.0
C335 C 0.14337 0.46904 0.34463 0.0
C336 C 0.21324 0.4887 0.38147 0.0
C337 C 0.10613 0.42669 0.38536 0.0
C338 C 0.13427 0.49406 0.42518 0.0
C339 C 0.1719 0.4464 0.41968 0.0
O340 O 0.15474 0.51952 0.38076 0.0
O341 O 0.15253 0.45778 0.35125 0.0
O342 O 0.20942 0.49667 0.39595 0.0
O343 O 0.10578 0.44578 0.38529 0.0
O344 O 0.15519 0.49844 0.42635 0.0
O345 O 0.16931 0.43983 0.40315 0.0
O346 O 0.12253 0.48686 0.41061 0.0
O347 O 0.12462 0.4256 0.38303 0.0
O348 O 0.17392 0.46573 0.42461 0.0
O349 O 0.13547 0.47928 0.35447 0.0
O350 O 0.18786 0.52744 0.39517 0.0
O351 O 0.19705 0.47342 0.37162 0.0
Sc352 Sc 0.64277 0.13291 0.87943 0.0
Sc353 Sc 0.70462 0.16475 0.87769 0.0
Sc354 Sc 0.67395 0.18447 0.90453 0.0
O355 O 0.67379 0.1607 0.88718 0.0
C356 C 0.63127 0.17409 0.87818 0.0
C357 C 0.67249 0.1461 0.8426 0.0
C358 C 0.71474 0.2172 0.87718 0.0
C359 C 0.67468 0.11005 0.8856 0.0
C360 C 0.63231 0.13776 0.92109 0.0
C361 C 0.71664 0.17933 0.91915 0.0
O362 O 0.62775 0.15434 0.87275 0.0
O363 O 0.6923 0.1579 0.85014 0.0
O364 O 0.6988 0.21328 0.88859 0.0
O365 O 0.65502 0.10915 0.88555 0.0
O366 O 0.64909 0.15854 0.92259 0.0
O367 O 0.72026 0.17188 0.90429 0.0
O368 O 0.62746 0.1264 0.90627 0.0
O369 O 0.69382 0.12858 0.88225 0.0
O370 O 0.70085 0.18475 0.92102 0.0
O371 O 0.65354 0.13573 0.85152 0.0
O372 O 0.64694 0.18647 0.88973 0.0
O373 O 0.71928 0.20155 0.87203 0.0
Sc374 Sc 0.50981 0.6403 0.38211 0.0
Sc375 Sc 0.53851 0.70209 0.37935 0.0
Sc376 Sc 0.48949 0.67138 0.40752 0.0
O377 O 0.51262 0.67125 0.38963 0.0
C378 C 0.45693 0.62828 0.38177 0.0
C379 C 0.52391 0.66904 0.3447 0.0
C380 C 0.49565 0.71128 0.37992 0.0
C381 C 0.5647 0.67346 0.38685 0.0
C382 C 0.4962 0.63058 0.4241 0.0
C383 C 0.5375 0.71475 0.42098 0.0
O384 O 0.47293 0.6243 0.37654 0.0
O385 O 0.53204 0.68899 0.35202 0.0
O386 O 0.48457 0.69581 0.39188 0.0
O387 O 0.54627 0.65354 0.38725 0.0
O388 O 0.49138 0.64681 0.4255 0.0
O389 O 0.54779 0.71839 0.40572 0.0
O390 O 0.50273 0.62581 0.40926 0.0
O391 O 0.56464 0.69224 0.38339 0.0
O392 O 0.51657 0.69857 0.42351 0.0
O393 O 0.5161 0.65032 0.35387 0.0
O394 O 0.46034 0.64436 0.39293 0.0
O395 O 0.51557 0.71587 0.37405 0.0
Sc396 Sc 0.50828 0.18713 0.0851 0.0
Sc397 Sc 0.45932 0.16855 0.11343 0.0
Sc398 Sc 0.48818 0.13577 0.11035 0.0
O399 O 0.48526 0.16383 0.10301 0.0
C400 C 0.50158 0.14007 0.06824 0.0
C401 C 0.46013 0.18286 0.07214 0.0
C402 C 0.43347 0.11384 0.10537 0.0
C403 C 0.50252 0.2206 0.11313 0.0
C404 C 0.54103 0.1761 0.11052 0.0
C405 C 0.47345 0.14953 0.14782 0.0
O406 O 0.5052 0.1607 0.0666 0.0
O407 O 0.44961 0.17524 0.08719 0.0
O408 O 0.45202 0.11261 0.10445 0.0
O409 O 0.51399 0.21621 0.1015 0.0
O410 O 0.5247 0.15687 0.11668 0.0
O411 O 0.46609 0.16213 0.1407 0.0
O412 O 0.53766 0.18819 0.09872 0.0
O413 O 0.48223 0.20541 0.11845 0.0
O414 O 0.48081 0.13838 0.13848 0.0
O415 O 0.4813 0.18834 0.06971 0.0
O416 O 0.49635 0.12922 0.0833 0.0
O417 O 0.43333 0.1324 0.10956 0.0
Sc418 Sc 0.32508 0.50135 0.58114 0.0
Sc419 Sc 0.29337 0.45593 0.61202 0.0
Sc420 Sc 0.35522 0.48505 0.61164 0.0
O421 O 0.32461 0.48076 0.60165 0.0
C422 C 0.3681 0.49492 0.56969 0.0
C423 C 0.28336 0.45213 0.56939 0.0
C424 C 0.32245 0.42958 0.60998 0.0
C425 C 0.2831 0.4971 0.60572 0.0
C426 C 0.366 0.53752 0.60691 0.0
C427 C 0.32476 0.47387 0.64778 0.0
O428 O 0.35237 0.50006 0.56659 0.0
O429 O 0.2774 0.44493 0.58559 0.0
O430 O 0.34238 0.44805 0.61064 0.0
O431 O 0.29759 0.50562 0.5927 0.0
O432 O 0.37036 0.52236 0.61361 0.0
O433 O 0.3052 0.46359 0.6397 0.0
O434 O 0.34982 0.53251 0.59535 0.0
O435 O 0.28039 0.47975 0.61501 0.0
O436 O 0.34408 0.48263 0.63939 0.0
O437 O 0.30091 0.47174 0.56542 0.0
O438 O 0.37126 0.48864 0.58527 0.0
O439 O 0.30329 0.42968 0.6101 0.0
Sc440 Sc 0.81398 0.32984 0.08721 0.0
Sc441 Sc 0.83348 0.29866 0.11369 0.0
Sc442 Sc 0.86659 0.36035 0.11131 0.0
O443 O 0.83802 0.32962 0.10411 0.0
C444 C 0.86081 0.37066 0.0698 0.0
C445 C 0.81774 0.28649 0.07239 0.0
C446 C 0.88789 0.32711 0.10469 0.0
C447 C 0.78153 0.28966 0.11516 0.0
C448 C 0.82609 0.37296 0.11348 0.0
C449 C 0.85391 0.33127 0.14842 0.0
O450 O 0.83957 0.35471 0.06894 0.0
O451 O 0.82497 0.28269 0.08729 0.0
O452 O 0.88948 0.34707 0.10507 0.0
O453 O 0.78534 0.30521 0.10341 0.0
O454 O 0.84613 0.37646 0.11808 0.0
O455 O 0.84179 0.31141 0.14103 0.0
O456 O 0.81282 0.35697 0.10246 0.0
O457 O 0.79711 0.28504 0.1203 0.0
O458 O 0.86413 0.35014 0.13938 0.0
O459 O 0.81297 0.30275 0.0704 0.0
O460 O 0.87289 0.37487 0.0842 0.0
O461 O 0.86909 0.3083 0.10814 0.0
Sc462 Sc 0.48908 0.81601 0.58557 0.0
Sc463 Sc 0.53764 0.83255 0.61396 0.0
Sc464 Sc 0.51027 0.86685 0.61171 0.0
O465 O 0.51232 0.83846 0.6038 0.0
C466 C 0.49674 0.86393 0.56962 0.0
C467 C 0.5366 0.81925 0.57229 0.0
C468 C 0.56484 0.88742 0.60663 0.0
C469 C 0.49368 0.78106 0.61284 0.0
C470 C 0.45703 0.82725 0.61156 0.0
C471 C 0.5243 0.85153 0.64889 0.0
O472 O 0.49241 0.8431 0.56773 0.0
O473 O 0.54693 0.82585 0.58752 0.0
O474 O 0.54667 0.88938 0.60603 0.0
O475 O 0.48282 0.78616 0.60116 0.0
O476 O 0.47354 0.84635 0.61777 0.0
O477 O 0.53132 0.83885 0.64143 0.0
O478 O 0.46015 0.81511 0.59966 0.0
O479 O 0.51388 0.79578 0.61865 0.0
O480 O 0.51721 0.86316 0.63983 0.0
O481 O 0.51574 0.81477 0.56978 0.0
O482 O 0.50261 0.87458 0.58478 0.0
O483 O 0.56435 0.86843 0.61037 0.0
Sc484 Sc 0.67704 0.49532 0.08513 0.0
Sc485 Sc 0.70659 0.54522 0.11277 0.0
Sc486 Sc 0.64475 0.5149 0.10964 0.0
O487 O 0.67613 0.51851 0.10256 0.0
C488 C 0.63609 0.50106 0.06767 0.0
C489 C 0.72041 0.54319 0.07162 0.0
C490 C 0.67706 0.57006 0.10429 0.0
C491 C 0.7165 0.50284 0.11388 0.0
C492 C 0.63326 0.46213 0.11011 0.0
C493 C 0.67288 0.53098 0.14704 0.0
O494 O 0.65252 0.49647 0.06664 0.0
O495 O 0.7238 0.55366 0.08674 0.0
O496 O 0.65734 0.55135 0.10472 0.0
O497 O 0.70163 0.49145 0.10158 0.0
O498 O 0.62921 0.47813 0.1152 0.0
O499 O 0.69305 0.54053 0.13993 0.0
O500 O 0.64978 0.46584 0.09931 0.0
O501 O 0.72039 0.52264 0.11953 0.0
O502 O 0.65411 0.521 0.1379 0.0
O503 O 0.70421 0.5223 0.06914 0.0
O504 O 0.63094 0.5077 0.08229 0.0
O505 O 0.69626 0.57061 0.10714 0.0
Sc506 Sc 0.18212 0.67488 0.58323 0.0
Sc507 Sc 0.16346 0.70485 0.61193 0.0
Sc508 Sc 0.13271 0.64298 0.61069 0.0
O509 O 0.15938 0.67422 0.60197 0.0
C510 C 0.13447 0.63237 0.56851 0.0
C511 C 0.17504 0.71684 0.56992 0.0
C512 C 0.10834 0.67397 0.607 0.0
C513 C 0.21613 0.71604 0.60993 0.0
C514 C 0.17474 0.63265 0.60884 0.0
C515 C 0.14814 0.67288 0.64742 0.0
O516 O 0.15512 0.64916 0.56629 0.0
O517 O 0.169 0.7206 0.58539 0.0
O518 O 0.10777 0.65446 0.60729 0.0
O519 O 0.21186 0.70057 0.59798 0.0
O520 O 0.15511 0.62851 0.61506 0.0
O521 O 0.15822 0.69264 0.6396 0.0
O522 O 0.1863 0.64868 0.5973 0.0
O523 O 0.20049 0.71982 0.61635 0.0
O524 O 0.13812 0.65374 0.63872 0.0
O525 O 0.18022 0.701 0.56724 0.0
O526 O 0.124 0.62771 0.58375 0.0
O527 O 0.12703 0.69347 0.60863 0.0
H528 H 0.09945 0.59187 0.92383 0.0
H529 H 0.0874 0.56453 0.94945 0.0
H530 H 0.14311 0.61705 0.98202 0.0
H531 H 0.15491 0.64441 0.95684 0.0
H532 H 0.11405 0.54857 0.96404 0.0
H533 H 0.09079 0.59051 0.01843 0.0
H534 H 0.09295 0.59919 0.99488 0.0
H535 H 0.11864 0.61085 0.009 0.0
C536 C 0.10872 0.59779 0.93661 0.0
C537 C 0.12824 0.62033 0.93822 0.0
C538 C 0.10185 0.58211 0.95123 0.0
C539 C 0.11417 0.58879 0.96775 0.0
C540 C 0.13295 0.6116 0.9696 0.0
H541 H 0.16246 0.52661 0.04064 0.0
H542 H 0.15093 0.54143 0.01477 0.0
C543 C 0.13984 0.62721 0.95506 0.0
C544 C 0.10955 0.57146 0.98233 0.0
H545 H 0.10568 0.56523 0.0285 0.0
C546 C 0.11164 0.5519 0.97809 0.0
C547 C 0.10594 0.57545 0.00065 0.0
C548 C 0.10169 0.59502 0.00596 0.0
C549 C 0.11217 0.5374 0.9918 0.0
C550 C 0.11104 0.54288 0.01024 0.0
C551 C 0.10696 0.56124 0.01439 0.0
C552 C 0.1167 0.53161 0.02533 0.0
C553 C 0.11464 0.51676 0.98639 0.0
C554 C 0.10141 0.52134 0.04007 0.0
C555 C 0.10805 0.51292 0.05508 0.0
C556 C 0.13025 0.51491 0.0557 0.0
C557 C 0.14524 0.52474 0.04069 0.0
C558 C 0.13858 0.53306 0.02575 0.0
H559 H 0.10679 0.51004 0.9728 0.0
H560 H 0.13344 0.52227 0.98552 0.0
H561 H 0.10625 0.50238 -0.00355 0.0
H562 H 0.08451 0.52022 0.0401 0.0
H563 H 0.09609 0.50555 0.06641 0.0
H564 H 0.58453 0.10567 0.56915 0.0
H565 H 0.55843 0.09684 0.54309 0.0
H566 H 0.61797 0.13004 0.50729 0.0
H567 H 0.64406 0.13983 0.5334 0.0
H568 H 0.59227 0.14916 0.50392 0.0
H569 H 0.53362 0.05361 0.50037 0.0
H570 H 0.53376 0.06496 0.52255 0.0
H571 H 0.56004 0.06681 0.51377 0.0
C572 C 0.59199 0.11039 0.55564 0.0
C573 C 0.61629 0.12358 0.55327 0.0
C574 C 0.57704 0.10523 0.54071 0.0
C575 C 0.58619 0.11268 0.52316 0.0
C576 C 0.61048 0.12417 0.52069 0.0
H577 H 0.51319 0.10198 0.42175 0.0
H578 H 0.53164 0.09326 0.44714 0.0
C579 C 0.62538 0.12974 0.5356 0.0
C580 C 0.57101 0.11206 0.50802 0.0
H581 H 0.52097 0.0771 0.48429 0.0
C582 C 0.57685 0.13329 0.49953 0.0
C583 C 0.55087 0.0914 0.50221 0.0
C584 C 0.54432 0.06788 0.51008 0.0
C585 C 0.56307 0.13458 0.48566 0.0
C586 C 0.54234 0.11418 0.48046 0.0
C587 C 0.53666 0.09277 0.48856 0.0
C588 C 0.5268 0.11517 0.46641 0.0
C589 C 0.57103 0.15784 0.47658 0.0
C590 C 0.51688 0.12935 0.46914 0.0
C591 C 0.50665 0.1346 0.45466 0.0
C592 C 0.50577 0.12539 0.43726 0.0
C593 C 0.51363 0.10934 0.435 0.0
C594 C 0.52419 0.10435 0.44948 0.0
H595 H 0.58996 0.17003 0.47869 0.0
H596 H 0.56752 0.1557 0.46173 0.0
H597 H 0.56138 0.16598 0.4825 0.0
H598 H 0.51833 0.1375 0.48223 0.0
H599 H 0.50045 0.14676 0.45689 0.0
H600 H 0.35521 0.50226 0.95689 0.0
H601 H 0.38308 0.51857 0.98192 0.0
H602 H 0.43888 0.52929 0.94579 0.0
H603 H 0.41096 0.51257 0.9206 0.0
H604 H 0.44208 0.51609 0.98482 0.0
H605 H 0.42736 0.59108 0.97605 0.0
H606 H 0.40117 0.56352 0.97923 0.0
H607 H 0.41862 0.56839 0.95921 0.0
C608 C 0.37331 0.50753 0.95435 0.0
C609 C 0.38098 0.50652 0.93672 0.0
C610 C 0.38918 0.51678 0.96867 0.0
C611 C 0.41302 0.52544 0.96559 0.0
C612 C 0.42052 0.52268 0.9484 0.0
H613 H 0.50635 0.63851 0.03545 0.0
H614 H 0.49257 0.61349 0.00859 0.0
C615 C 0.40455 0.51316 0.93404 0.0
C616 C 0.43012 0.54037 0.97951 0.0
H617 H 0.44832 0.59141 0.0022 0.0
C618 C 0.44372 0.53269 0.98857 0.0
C619 C 0.43253 0.56221 0.98402 0.0
C620 C 0.41933 0.57196 0.97403 0.0
C621 C 0.45905 0.546 0.00265 0.0
C622 C 0.46043 0.56725 0.00786 0.0
C623 C 0.44736 0.57516 -0.00173 0.0
C624 C 0.47406 0.58125 0.02378 0.0
C625 C 0.47361 0.5372 0.01173 0.0
C626 C 0.46934 0.57139 0.04129 0.0
C627 C 0.4777 0.58569 0.05669 0.0
C628 C 0.49037 0.61005 0.05476 0.0
C629 C 0.49652 0.61976 0.03727 0.0
C630 C 0.48864 0.60547 0.02193 0.0
H631 H 0.47683 0.52591 0.00241 0.0
H632 H 0.49065 0.55182 0.01636 0.0
H633 H 0.46407 0.52656 0.02375 0.0
H634 H 0.45772 0.55286 0.04315 0.0
H635 H 0.47252 0.57782 0.07004 0.0
H636 H 0.89698 0.48913 0.56606 0.0
H637 H 0.90932 0.47377 0.54073 0.0
H638 H 0.84873 0.46186 0.51013 0.0
H639 H 0.83653 0.47746 0.53503 0.0
H640 H 0.88484 0.42951 0.52845 0.0
H641 H 0.89842 0.48908 0.47146 0.0
H642 H 0.89723 0.49688 0.49483 0.0
H643 H 0.87076 0.47993 0.48201 0.0
C644 C 0.88659 0.48379 0.55376 0.0
C645 C 0.86568 0.48443 0.55265 0.0
C646 C 0.89366 0.47497 0.53931 0.0
C647 C 0.88012 0.46693 0.52344 0.0
C648 C 0.85979 0.46847 0.52204 0.0
H649 H 0.83422 0.35277 0.45566 0.0
H650 H 0.84689 0.38024 0.48082 0.0
C651 C 0.8527 0.47721 0.53641 0.0
C652 C 0.88534 0.45433 0.5092 0.0
H653 H 0.88617 0.44885 0.46312 0.0
C654 C 0.88574 0.43405 0.51418 0.0
C655 C 0.88703 0.46045 0.4906 0.0
C656 C 0.88861 0.48294 0.48445 0.0
C657 C 0.8857 0.41872 0.50098 0.0
C658 C 0.88477 0.42359 0.48237 0.0
C659 C 0.88649 0.44488 0.4774 0.0
C660 C 0.87911 0.40579 0.46802 0.0
C661 C 0.88588 0.39708 0.50715 0.0
C662 C 0.89296 0.41097 0.45235 0.0
C663 C 0.88562 0.3953 0.43776 0.0
C664 C 0.86415 0.37426 0.43851 0.0
C665 C 0.85083 0.36877 0.45455 0.0
C666 C 0.85817 0.38441 0.46908 0.0
H667 H 0.8953 0.40013 0.52028 0.0
H668 H 0.86767 0.38284 0.50932 0.0
H669 H 0.8942 0.39124 0.4969 0.0
H670 H 0.9091 0.42746 0.4512 0.0
H671 H 0.89631 0.40013 0.42562 0.0
H672 H 0.49134 0.84732 0.95818 0.0
H673 H 0.47321 0.85641 0.98341 0.0
H674 H 0.45985 0.90052 0.94818 0.0
H675 H 0.47854 0.89193 0.92287 0.0
H676 H 0.47069 0.91675 0.98553 0.0
H677 H 0.40148 0.8239 0.97981 0.0
H678 H 0.43007 0.82792 0.98355 0.0
H679 H 0.42388 0.83825 0.96282 0.0
C680 C 0.48506 0.85941 0.95589 0.0
C681 C 0.48604 0.86863 0.93847 0.0
C682 C 0.47468 0.86456 0.97031 0.0
C683 C 0.46472 0.87869 0.96753 0.0
C684 C 0.46735 0.88948 0.95057 0.0
H685 H 0.34732 0.85491 0.03392 0.0
H686 H 0.37376 0.86449 0.00808 0.0
C687 C 0.47804 0.88457 0.93613 0.0
C688 C 0.44918 0.87971 0.98159 0.0
H689 H 0.39919 0.8448 0.00502 0.0
C690 C 0.45497 0.9011 0.98977 0.0
C691 C 0.42842 0.85933 0.98679 0.0
C692 C 0.42042 0.83609 0.97768 0.0
C693 C 0.4408 0.90248 0.00345 0.0
C694 C 0.42059 0.88186 0.00921 0.0
C695 C 0.41467 0.86064 0.00068 0.0
C696 C 0.4053 0.88129 0.02427 0.0
C697 C 0.44746 0.92598 0.01142 0.0
C698 C 0.41422 0.88849 0.04191 0.0
C699 C 0.39906 0.88342 0.0567 0.0
C700 C 0.37478 0.8706 0.05409 0.0
C701 C 0.36597 0.86472 0.03632 0.0
C702 C 0.38107 0.87017 0.02155 0.0
H703 H 0.45845 0.94032 0.00186 0.0
H704 H 0.43178 0.92719 0.01494 0.0
H705 H 0.45773 0.92863 0.02402 0.0
H706 H 0.43277 0.89663 0.04446 0.0
H707 H 0.40631 0.88793 0.07029 0.0
H708 H 0.6362 0.47611 0.45356 0.0
H709 H 0.60839 0.46109 0.47846 0.0
H710 H 0.56195 0.47717 0.44879 0.0
H711 H 0.58959 0.49178 0.42334 0.0
H712 H 0.58757 0.47864 0.50055 0.0
H713 H 0.52186 0.40721 0.4568 0.0
H714 H 0.55155 0.42588 0.44948 0.0
H715 H 0.5314 0.43659 0.44965 0.0
C716 C 0.62021 0.47673 0.45229 0.0
C717 C 0.61499 0.4848 0.43625 0.0
C718 C 0.60433 0.46819 0.46663 0.0
C719 C 0.58288 0.46757 0.46535 0.0
C720 C 0.57818 0.47701 0.44989 0.0
H721 H 0.50043 0.40263 0.56504 0.0
H722 H 0.51473 0.4301 0.53947 0.0
C723 C 0.59408 0.4855 0.43541 0.0
C724 C 0.56517 0.45537 0.47975 0.0
H725 H 0.51458 0.40445 0.48803 0.0
C726 C 0.57133 0.46267 0.49784 0.0
C727 C 0.54405 0.43449 0.47612 0.0
C728 C 0.53676 0.42539 0.457 0.0
C729 C 0.55785 0.44884 0.51245 0.0
C730 C 0.53734 0.42738 0.50883 0.0
C731 C 0.53028 0.42094 0.49073 0.0
C732 C 0.52536 0.4097 0.52329 0.0
C733 C 0.56668 0.45645 0.53159 0.0
C734 C 0.52545 0.38859 0.52226 0.0
C735 C 0.51711 0.37281 0.53667 0.0
C736 C 0.50852 0.37779 0.55253 0.0
C737 C 0.50711 0.39832 0.5531 0.0
C738 C 0.51542 0.41413 0.53856 0.0
H739 H 0.58466 0.47169 0.53184 0.0
H740 H 0.55505 0.4614 0.53876 0.0
H741 H 0.5666 0.44196 0.53927 0.0
H742 H 0.53294 0.38474 0.51058 0.0
H743 H 0.51827 0.3571 0.5356 0.0
H744 H 0.90417 0.49925 0.92446 0.0
H745 H 0.91833 0.4859 0.95002 0.0
H746 H 0.8555 0.46802 0.97991 0.0
H747 H 0.84156 0.48176 0.95489 0.0
H748 H 0.89443 0.48709 0.00178 0.0
H749 H 0.89018 0.41606 0.95831 0.0
H750 H 0.90924 0.44559 0.95107 0.0
H751 H 0.87823 0.43393 0.95097 0.0
C752 C 0.89356 0.49285 0.93661 0.0
C753 C 0.87153 0.49121 0.93747 0.0
C754 C 0.90163 0.48511 0.95115 0.0
C755 C 0.88774 0.47552 0.9667 0.0
C756 C 0.86648 0.47527 0.96801 0.0
H757 H 0.8409 0.36591 0.03643 0.0
H758 H 0.85486 0.39378 0.01155 0.0
C759 C 0.85847 0.48305 0.95361 0.0
C760 C 0.89385 0.46383 0.98111 0.0
H761 H 0.89384 0.41313 0.98961 0.0
C762 C 0.8949 0.47121 -0.00084 0.0
C763 C 0.8944 0.4431 0.97756 0.0
C764 C 0.89283 0.43401 0.95847 0.0
C765 C 0.89451 0.45744 0.01383 0.0
C766 C 0.89361 0.43599 0.01028 0.0
C767 C 0.89456 0.42961 0.99223 0.0
C768 C 0.88731 0.41816 0.02469 0.0
C769 C 0.89308 0.46503 0.03292 0.0
C770 C 0.90129 0.42222 0.04015 0.0
C771 C 0.89322 0.40629 0.0546 0.0
C772 C 0.8711 0.38601 0.05373 0.0
C773 C 0.85789 0.38141 0.03771 0.0
C774 C 0.8659 0.39732 0.02339 0.0
H775 H 0.89072 0.48051 0.0331 0.0
H776 H 0.87835 0.45064 0.04041 0.0
H777 H 0.90943 0.46959 0.04033 0.0
H778 H 0.91808 0.438 0.04126 0.0
H779 H 0.90394 0.41028 0.06667 0.0
H780 H 0.48526 0.89842 0.56989 0.0
H781 H 0.46841 0.90925 0.54457 0.0
H782 H 0.48048 0.86496 0.50859 0.0
H783 H 0.49698 0.8538 0.53374 0.0
H784 H 0.48166 0.92567 0.50533 0.0
H785 H 0.40764 0.83543 0.51446 0.0
H786 H 0.43025 0.84981 0.53131 0.0
H787 H 0.43555 0.83754 0.51132 0.0
C788 C 0.48498 0.89155 0.55646 0.0
C789 C 0.49205 0.87493 0.55387 0.0
C790 C 0.47537 0.89778 0.54202 0.0
C791 C 0.47293 0.88762 0.52483 0.0
C792 C 0.48203 0.8728 0.52183 0.0
H793 H 0.41571 0.89313 0.42129 0.0
H794 H 0.44232 0.90334 0.44721 0.0
C795 C 0.49139 0.8664 0.53623 0.0
C796 C 0.45778 0.8894 0.51086 0.0
H797 H 0.40629 0.85609 0.48878 0.0
C798 C 0.46508 0.91058 0.50174 0.0
C799 C 0.436 0.86978 0.5065 0.0
C800 C 0.42672 0.84688 0.51649 0.0
C801 C 0.45135 0.91237 0.48788 0.0
C802 C 0.43002 0.89238 0.48297 0.0
C803 C 0.4226 0.87145 0.49251 0.0
C804 C 0.4152 0.89198 0.46763 0.0
C805 C 0.45971 0.93559 0.47872 0.0
C806 C 0.39117 0.88277 0.47043 0.0
C807 C 0.37595 0.87643 0.45566 0.0
C808 C 0.3845 0.87955 0.4378 0.0
C809 C 0.40872 0.89079 0.43494 0.0
C810 C 0.42396 0.89673 0.44977 0.0
H811 H 0.47176 0.95025 0.48766 0.0
H812 H 0.4694 0.93637 0.46618 0.0
H813 H 0.44487 0.93807 0.47487 0.0
H814 H 0.38399 0.87898 0.48406 0.0
H815 H 0.35735 0.86785 0.45821 0.0
H816 H 0.64874 0.50481 0.03209 0.0
H817 H 0.62277 0.48873 0.00589 0.0
H818 H 0.56321 0.46781 0.0409 0.0
H819 H 0.58923 0.48487 0.06699 0.0
H820 H 0.59464 0.44424 0.00356 0.0
H821 H 0.54142 0.48691 -0.00322 0.0
H822 H 0.56759 0.4991 0.01043 0.0
H823 H 0.54035 0.4763 0.01941 0.0
C824 C 0.63014 0.49746 0.03407 0.0
C825 C 0.62097 0.49596 0.05156 0.0
C826 C 0.61531 0.48827 0.01911 0.0
C827 C 0.59099 0.47705 0.02137 0.0
C828 C 0.58187 0.47681 0.03868 0.0
H829 H 0.50063 0.35653 0.95756 0.0
H830 H 0.51917 0.38433 0.9824 0.0
C831 C 0.59677 0.48646 0.05363 0.0
C832 C 0.57546 0.46248 0.0064 0.0
H833 H 0.52643 0.44957 0.982 0.0
C834 C 0.57992 0.44567 -0.00126 0.0
C835 C 0.55622 0.4643 3e-05 0.0
C836 C 0.55124 0.4828 0.00696 0.0
C837 C 0.56561 0.43045 0.98516 0.0
C838 C 0.54571 0.43144 0.97944 0.0
C839 C 0.54144 0.44857 0.9867 0.0
C840 C 0.52963 0.41487 0.96567 0.0
C841 C 0.57213 0.41358 0.97693 0.0
C842 C 0.52787 0.42282 0.94837 0.0
C843 C 0.5169 0.40691 0.93418 0.0
C844 C 0.5078 0.3829 0.93712 0.0
C845 C 0.50778 0.37495 0.95485 0.0
C846 C 0.51839 0.3908 0.96904 0.0
H847 H 0.59082 0.41925 0.97923 0.0
H848 H 0.56153 0.3962 0.98335 0.0
H849 H 0.56871 0.41167 0.96206 0.0
H850 H 0.53633 0.44134 0.94553 0.0
H851 H 0.51718 0.41354 0.92065 0.0
H852 H 0.10075 0.50682 0.42483 0.0
H853 H 0.09224 0.52652 0.44938 0.0
H854 H 0.13742 0.51572 0.48538 0.0
H855 H 0.14645 0.49657 0.46088 0.0
H856 H 0.07669 0.51776 0.48682 0.0
H857 H 0.16924 0.5871 0.4794 0.0
H858 H 0.1548 0.56375 0.46316 0.0
H859 H 0.16559 0.55888 0.48421 0.0
C860 C 0.10836 0.50807 0.43812 0.0
C861 C 0.12459 0.50051 0.44084 0.0
C862 C 0.10349 0.51935 0.45212 0.0
C863 C 0.11463 0.52303 0.46904 0.0
C864 C 0.12902 0.51346 0.47229 0.0
H865 H 0.10621 0.58509 0.56974 0.0
H866 H 0.09708 0.55795 0.54439 0.0
C867 C 0.13412 0.50248 0.45829 0.0
C868 C 0.11367 0.53922 0.48248 0.0
H869 H 0.14866 0.59044 0.50442 0.0
C870 C 0.09234 0.53374 0.49064 0.0
C871 C 0.13403 0.56034 0.48708 0.0
C872 C 0.15717 0.56804 0.47789 0.0
C873 C 0.09104 0.54853 0.50378 0.0
C874 C 0.11167 0.56907 0.50904 0.0
C875 C 0.13281 0.57471 0.50047 0.0
C876 C 0.11239 0.58484 0.52375 0.0
C877 C 0.06758 0.54213 0.51173 0.0
C878 C 0.12366 0.60901 0.52064 0.0
C879 C 0.12938 0.62452 0.53516 0.0
C880 C 0.12363 0.61618 0.55307 0.0
C881 C 0.11062 0.59199 0.55605 0.0
C882 C 0.10529 0.57643 0.54152 0.0
H883 H 0.05319 0.53093 0.50226 0.0
H884 H 0.06495 0.53214 0.52448 0.0
H885 H 0.0664 0.5579 0.51495 0.0
H886 H 0.12927 0.61594 0.50707 0.0
H887 H 0.13934 0.64309 0.53247 0.0
H888 H 0.58568 0.10567 0.92059 0.0
H889 H 0.55804 0.09699 0.94561 0.0
H890 H 0.61521 0.13852 0.9819 0.0
H891 H 0.64284 0.14774 0.95694 0.0
H892 H 0.55122 0.07988 0.98298 0.0
H893 H 0.57835 0.17367 0.97734 0.0
H894 H 0.58591 0.15877 0.96048 0.0
H895 H 0.60216 0.16853 0.98136 0.0
C896 C 0.59239 0.11239 0.93402 0.0
C897 C 0.61636 0.12775 0.93676 0.0
C898 C 0.57658 0.10741 0.94829 0.0
C899 C 0.58461 0.11754 0.96545 0.0
C900 C 0.60869 0.13089 0.96864 0.0
H901 H 0.51906 0.11048 0.06781 0.0
H902 H 0.53495 0.10061 0.04147 0.0
C903 C 0.62444 0.13613 0.95438 0.0
C904 C 0.56808 0.11707 0.97921 0.0
H905 H 0.55457 0.15324 0.00246 0.0
C906 C 0.55176 0.09583 0.98721 0.0
C907 C 0.56846 0.13784 0.98432 0.0
C908 C 0.58449 0.16097 0.97532 0.0
C909 C 0.53632 0.09502 0.00074 0.0
C910 C 0.53762 0.11604 0.00654 0.0
C911 C 0.55353 0.13709 -0.00192 0.0
C912 C 0.52362 0.11728 0.02182 0.0
C913 C 0.51872 0.0717 0.00856 0.0
C914 C 0.51162 0.12962 0.01958 0.0
C915 C 0.50311 0.13582 0.03466 0.0
C916 C 0.50609 0.12945 0.05224 0.0
C917 C 0.51635 0.11544 0.05437 0.0
C918 C 0.52532 0.10965 0.03929 0.0
H919 H 0.51452 0.05736 -0.00125 0.0
H920 H 0.52614 0.06825 0.02093 0.0
H921 H 0.50231 0.07134 0.01239 0.0
H922 H 0.51005 0.13566 0.00623 0.0
H923 H 0.49512 0.14649 0.03263 0.0
H924 H 0.4153 0.51368 0.57256 0.0
H925 H 0.44357 0.53297 0.5479 0.0
H926 H 0.38732 0.50687 0.50901 0.0
H927 H 0.35906 0.48808 0.53354 0.0
H928 H 0.45379 0.52175 0.51002 0.0
H929 H 0.41545 0.5796 0.51301 0.0
H930 H 0.41086 0.55877 0.53065 0.0
H931 H 0.39456 0.54925 0.50979 0.0
C932 C 0.40907 0.51127 0.55866 0.0
C933 C 0.38502 0.49967 0.55494 0.0
C934 C 0.42523 0.52233 0.5446 0.0
C935 C 0.41744 0.52163 0.52673 0.0
C936 C 0.39361 0.50777 0.52276 0.0
H937 H 0.48253 0.58418 0.42461 0.0
H938 H 0.46756 0.55794 0.4508 0.0
C939 C 0.37751 0.49704 0.53677 0.0
C940 C 0.4332 0.53845 0.51297 0.0
H941 H 0.44138 0.5859 0.48884 0.0
C942 C 0.45127 0.5359 0.50541 0.0
C943 C 0.43015 0.55717 0.50732 0.0
C944 C 0.41186 0.56158 0.5157 0.0
C945 C 0.46594 0.55127 0.49184 0.0
C946 C 0.46211 0.56933 0.48559 0.0
C947 C 0.44438 0.5721 0.49358 0.0
C948 C 0.47548 0.58532 0.47043 0.0
C949 C 0.48546 0.54815 0.48447 0.0
C950 C 0.4852 0.6095 0.4727 0.0
C951 C 0.4932 0.62441 0.4577 0.0
C952 C 0.49195 0.6155 0.44014 0.0
C953 C 0.48387 0.59155 0.43802 0.0
C954 C 0.47544 0.57653 0.45302 0.0
H955 H 0.49084 0.5391 0.49444 0.0
H956 H 0.47937 0.53726 0.47201 0.0
H957 H 0.50092 0.56517 0.4809 0.0
H958 H 0.48545 0.6167 0.48598 0.0
H959 H 0.49951 0.64282 0.45976 0.0
H960 H 0.23079 0.4748 0.13528 0.0
H961 H 0.27173 0.48892 0.14319 0.0
H962 H 0.28826 0.55939 0.13145 0.0
H963 H 0.24769 0.54558 0.12367 0.0
H964 H 0.30621 0.51064 0.1175 0.0
H965 H 0.32685 0.56854 0.17695 0.0
H966 H 0.2973 0.54674 0.17111 0.0
H967 H 0.31116 0.57484 0.16012 0.0
C968 C 0.24305 0.49337 0.1349 0.0
C969 C 0.23609 0.50907 0.12868 0.0
C970 C 0.2664 0.50139 0.13942 0.0
C971 C 0.28297 0.52522 0.13812 0.0
C972 C 0.27571 0.541 0.13295 0.0
H973 H 0.41103 0.60903 0.09341 0.0
H974 H 0.37118 0.58209 0.10301 0.0
C975 C 0.25253 0.53303 0.1283 0.0
C976 C 0.30824 0.53349 0.1392 0.0
H977 H 0.35899 0.57867 0.15563 0.0
C978 C 0.31775 0.52503 0.12624 0.0
C979 C 0.32332 0.5521 0.15071 0.0
C980 C 0.31408 0.5609 0.16563 0.0
C981 C 0.34188 0.53617 0.12331 0.0
C982 C 0.35673 0.55628 0.13353 0.0
C983 C 0.34747 0.56339 0.14766 0.0
C984 C 0.38112 0.57194 0.12792 0.0
C985 C 0.35123 0.52722 0.10858 0.0
C986 C 0.39986 0.57534 0.13893 0.0
C987 C 0.42281 0.59073 0.13343 0.0
C988 C 0.42725 0.6032 0.117 0.0
C989 C 0.40829 0.59979 0.10615 0.0
C990 C 0.38549 0.58429 0.11155 0.0
H991 H 0.33899 0.50852 0.10558 0.0
H992 H 0.35362 0.53732 0.09592 0.0
H993 H 0.36842 0.52939 0.1125 0.0
H994 H 0.39673 0.56605 0.15169 0.0
H995 H 0.43703 0.59306 0.14214 0.0
H996 H 0.77817 0.41753 0.61274 0.0
H997 H 0.76502 0.37762 0.62208 0.0
H998 H 0.83477 0.39742 0.63943 0.0
H999 H 0.84828 0.43772 0.62993 0.0
H1000 H 0.8152 0.35968 0.61571 0.0
H1001 H 0.75352 0.34544 0.67136 0.0
H1002 H 0.74816 0.35859 0.652 0.0
H1003 H 0.77546 0.37425 0.66402 0.0
C1004 C 0.79073 0.41357 0.61876 0.0
C1005 C 0.81433 0.43083 0.62048 0.0
C1006 C 0.7831 0.39074 0.62429 0.0
C1007 C 0.79884 0.38465 0.63174 0.0
C1008 C 0.82232 0.40188 0.6339 0.0
H1009 H 0.75455 0.23422 0.63204 0.0
H1010 H 0.77844 0.2752 0.64125 0.0
C1011 C 0.82998 0.42486 0.62846 0.0
C1012 C 0.79094 0.35977 0.63516 0.0
H1013 H 0.74569 0.31096 0.65387 0.0
C1014 C 0.80047 0.34903 0.62449 0.0
C1015 C 0.77182 0.346 0.64669 0.0
C1016 C 0.76182 0.35673 0.65931 0.0
C1017 C 0.78994 0.32465 0.6237 0.0
C1018 C 0.76958 0.31083 0.63405 0.0
C1019 C 0.76124 0.32164 0.64588 0.0
C1020 C 0.75461 0.28562 0.63044 0.0
C1021 C 0.79948 0.31383 0.61069 0.0
C1022 C 0.73311 0.27791 0.62181 0.0
C1023 C 0.71951 0.25471 0.61655 0.0
C1024 C 0.7271 0.23863 0.61987 0.0
C1025 C 0.74826 0.24618 0.62921 0.0
C1026 C 0.76196 0.26957 0.63443 0.0
H1027 H 0.81415 0.32711 0.6024 0.0
H1028 H 0.80586 0.30376 0.61848 0.0
H1029 H 0.78551 0.30154 0.60139 0.0
H1030 H 0.72715 0.29007 0.61862 0.0
H1031 H 0.70322 0.2495 0.60957 0.0
H1032 H 0.4397 0.69089 0.10471 0.0
H1033 H 0.42059 0.71317 0.11183 0.0
H1034 H 0.48195 0.76392 0.14055 0.0
H1035 H 0.50158 0.74183 0.13323 0.0
H1036 H 0.41104 0.72811 0.14527 0.0
H1037 H 0.47177 0.80225 0.10104 0.0
H1038 H 0.47015 0.77424 0.10019 0.0
H1039 H 0.48453 0.79366 0.11887 0.0
C1040 C 0.4492 0.70671 0.11263 0.0
C1041 C 0.47234 0.71473 0.11817 0.0
C1042 C 0.43816 0.71936 0.11676 0.0
C1043 C 0.44997 0.74031 0.12649 0.0
C1044 C 0.47269 0.74794 0.13278 0.0
H1045 H 0.39615 0.83763 0.12961 0.0
H1046 H 0.41976 0.82 0.13784 0.0
C1047 C 0.48382 0.73525 0.12864 0.0
C1048 C 0.43864 0.75452 0.12896 0.0
H1049 H 0.43945 0.80324 0.11283 0.0
C1050 C 0.41742 0.74474 0.13845 0.0
C1051 C 0.44709 0.77623 0.12009 0.0
C1052 C 0.46955 0.78726 0.10936 0.0
C1053 C 0.40389 0.75562 0.13862 0.0
C1054 C 0.41168 0.77661 0.12884 0.0
C1055 C 0.43355 0.78711 0.12029 0.0
C1056 C 0.3964 0.7866 0.12556 0.0
C1057 C 0.38111 0.74427 0.14889 0.0
C1058 C 0.37551 0.77365 0.1159 0.0
C1059 C 0.36204 0.78364 0.11109 0.0
C1060 C 0.36928 0.80687 0.11578 0.0
C1061 C 0.39004 0.81969 0.12579 0.0
C1062 C 0.40355 0.80966 0.13053 0.0
H1063 H 0.3813 0.73316 0.16015 0.0
H1064 H 0.37725 0.7575 0.1546 0.0
H1065 H 0.36678 0.73292 0.13946 0.0
H1066 H 0.36995 0.75599 0.11156 0.0
H1067 H 0.34618 0.77323 0.10341 0.0
H1068 H 0.7595 0.51785 0.63193 0.0
H1069 H 0.71878 0.50151 0.6417 0.0
H1070 H 0.7045 0.43291 0.62578 0.0
H1071 H 0.74478 0.44886 0.61618 0.0
H1072 H 0.68137 0.47888 0.61796 0.0
H1073 H 0.67145 0.42007 0.67465 0.0
H1074 H 0.69959 0.44347 0.66739 0.0
H1075 H 0.68608 0.41577 0.65581 0.0
C1076 C 0.74776 0.49922 0.63089 0.0
C1077 C 0.7553 0.48467 0.62317 0.0
C1078 C 0.72455 0.48994 0.63648 0.0
C1079 C 0.70875 0.46596 0.63474 0.0
C1080 C 0.71652 0.45137 0.62767 0.0
H1081 H 0.57879 0.36141 0.6102 0.0
H1082 H 0.61839 0.38865 0.62009 0.0
C1083 C 0.73953 0.46059 0.62197 0.0
C1084 C 0.68349 0.45622 0.63793 0.0
H1085 H 0.6366 0.40833 0.65607 0.0
C1086 C 0.67152 0.46394 0.62675 0.0
C1087 C 0.67074 0.43683 0.64948 0.0
C1088 C 0.68269 0.42873 0.66265 0.0
C1089 C 0.6471 0.45128 0.62541 0.0
C1090 C 0.63451 0.4306 0.63569 0.0
C1091 C 0.64636 0.42411 0.6481 0.0
C1092 C 0.6099 0.41361 0.63149 0.0
C1093 C 0.63512 0.45893 0.61186 0.0
C1094 C 0.59194 0.4185 0.63494 0.0
C1095 C 0.56914 0.40292 0.62924 0.0
C1096 C 0.56405 0.38228 0.61997 0.0
C1097 C 0.58206 0.37721 0.61713 0.0
C1098 C 0.60471 0.39269 0.62287 0.0
H1099 H 0.64771 0.47434 0.60383 0.0
H1100 H 0.62435 0.44446 0.60234 0.0
H1101 H 0.62328 0.46351 0.61917 0.0
H1102 H 0.59563 0.43451 0.64173 0.0
H1103 H 0.55566 0.4073 0.63172 0.0
H1104 H 0.20773 0.5675 0.13863 0.0
H1105 H 0.22295 0.60804 0.14797 0.0
H1106 H 0.1626 0.60682 0.12425 0.0
H1107 H 0.14664 0.56581 0.11629 0.0
H1108 H 0.23714 0.64039 0.12595 0.0
H1109 H 0.17059 0.64757 0.16552 0.0
H1110 H 0.16866 0.61976 0.16148 0.0
H1111 H 0.15726 0.63185 0.14508 0.0
C1112 C 0.19743 0.57577 0.13603 0.0
C1113 C 0.17609 0.56375 0.12678 0.0
C1114 C 0.20608 0.59889 0.14134 0.0
C1115 C 0.1939 0.61061 0.13697 0.0
C1116 C 0.17204 0.59814 0.12838 0.0
H1117 H 0.25425 0.74246 0.08989 0.0
H1118 H 0.23443 0.70182 0.09954 0.0
C1119 C 0.16302 0.57476 0.12362 0.0
C1120 C 0.20577 0.63645 0.13835 0.0
H1121 H 0.19616 0.68178 0.14659 0.0
C1122 C 0.2283 0.64934 0.13097 0.0
C1123 C 0.19464 0.64847 0.14511 0.0
C1124 C 0.17156 0.63611 0.15493 0.0
C1125 C 0.23922 0.67353 0.12897 0.0
C1126 C 0.22696 0.68514 0.13378 0.0
C1127 C 0.20525 0.6727 0.14246 0.0
C1128 C 0.23574 0.70959 0.12825 0.0
C1129 C 0.26358 0.68635 0.12116 0.0
C1130 C 0.24168 0.72733 0.14116 0.0
C1131 C 0.25272 0.75071 0.13561 0.0
C1132 C 0.25804 0.75646 0.11714 0.0
C1133 C 0.25073 0.73852 0.10424 0.0
C1134 C 0.23946 0.71532 0.10973 0.0
H1135 H 0.2732 0.67694 0.12404 0.0
H1136 H 0.2625 0.68752 0.10616 0.0
H1137 H 0.27373 0.7043 0.12673 0.0
H1138 H 0.23872 0.72316 0.15551 0.0
H1139 H 0.25817 0.76427 0.14579 0.0
H1140 H 0.59032 0.14693 0.63259 0.0
H1141 H 0.56416 0.16112 0.64232 0.0
H1142 H 0.60889 0.22717 0.61637 0.0
H1143 H 0.6351 0.21339 0.60668 0.0
H1144 H 0.592 0.22897 0.65329 0.0
H1145 H 0.5222 0.17117 0.60454 0.0
H1146 H 0.53404 0.15847 0.61984 0.0
H1147 H 0.55189 0.17738 0.60194 0.0
C1148 C 0.59469 0.16455 0.62908 0.0
C1149 C 0.61471 0.17895 0.61869 0.0
C1150 C 0.57969 0.17257 0.63462 0.0
C1151 C 0.58457 0.19509 0.62993 0.0
C1152 C 0.60487 0.20972 0.62011 0.0
H1153 H 0.54827 0.29473 0.61448 0.0
H1154 H 0.56512 0.271 0.62349 0.0
C1155 C 0.61976 0.20174 0.61451 0.0
C1156 C 0.5682 0.20345 0.63424 0.0
H1157 H 0.51885 0.20131 0.61812 0.0
C1158 C 0.5757 0.2226 0.64596 0.0
C1159 C 0.54686 0.19491 0.62479 0.0
C1160 C 0.53814 0.1744 0.612 0.0
C1161 C 0.56317 0.23444 0.64753 0.0
C1162 C 0.54295 0.22719 0.63681 0.0
C1163 C 0.53441 0.20687 0.62627 0.0
C1164 C 0.53283 0.24243 0.63386 0.0
C1165 C 0.57226 0.25522 0.66004 0.0
C1166 C 0.50896 0.23419 0.63659 0.0
C1167 C 0.49915 0.24776 0.63132 0.0
C1168 C 0.51303 0.26958 0.62296 0.0
C1169 C 0.53704 0.27797 0.62078 0.0
C1170 C 0.54679 0.26453 0.62613 0.0
H1171 H 0.58174 0.25328 0.67177 0.0
H1172 H 0.58474 0.27114 0.65248 0.0
H1173 H 0.55791 0.25772 0.66526 0.0
H1174 H 0.49786 0.21704 0.64234 0.0
H1175 H 0.48059 0.24078 0.63313 0.0
H1176 H 0.40777 0.55648 0.85894 0.0
H1177 H 0.43466 0.59693 0.84976 0.0
H1178 H 0.38863 0.61823 0.8734 0.0
H1179 H 0.36174 0.57819 0.8825 0.0
H1180 H 0.40792 0.63771 0.8373 0.0
H1181 H 0.47442 0.64797 0.88877 0.0
H1182 H 0.46349 0.62388 0.87309 0.0
H1183 H 0.44457 0.62453 0.89024 0.0
C1184 C 0.40327 0.56975 0.86202 0.0
C1185 C 0.38271 0.56412 0.87163 0.0
C1186 C 0.41868 0.59282 0.85681 0.0
C1187 C 0.41365 0.6105 0.86106 0.0
C1188 C 0.39278 0.60479 0.87001 0.0
H1189 H 0.44941 0.74619 0.8774 0.0
H1190 H 0.43308 0.70574 0.8682 0.0
C1191 C 0.3775 0.58188 0.87529 0.0
C1192 C 0.43042 0.6353 0.85728 0.0
H1193 H 0.47872 0.68191 0.87528 0.0
C1194 C 0.42373 0.64736 0.84525 0.0
C1195 C 0.45112 0.64775 0.86756 0.0
C1196 C 0.45895 0.63553 0.88072 0.0
C1197 C 0.43638 0.67177 0.84416 0.0
C1198 C 0.45588 0.68435 0.85566 0.0
C1199 C 0.4637 0.6722 0.86654 0.0
C1200 C 0.46588 0.70964 0.85892 0.0
C1201 C 0.42814 0.68391 0.8313 0.0
C1202 C 0.48986 0.7253 0.85692 0.0
C1203 C 0.49937 0.74862 0.86228 0.0
C1204 C 0.48506 0.75645 0.87003 0.0
C1205 C 0.46097 0.74076 0.87157 0.0
C1206 C 0.45153 0.71764 0.86611 0.0
H1207 H 0.41929 0.67282 0.81927 0.0
H1208 H 0.41531 0.68727 0.8384 0.0
H1209 H 0.44285 0.70083 0.82657 0.0
H1210 H 0.50126 0.71936 0.8516 0.0
H1211 H 0.518 0.76025 0.86098 0.0
H1212 H 0.7539 0.51482 0.35787 0.0
H1213 H 0.778 0.49796 0.34868 0.0
H1214 H 0.72309 0.42985 0.36503 0.0
H1215 H 0.69901 0.44632 0.37405 0.0
H1216 H 0.79235 0.47545 0.37282 0.0
H1217 H 0.74318 0.41597 0.31653 0.0
H1218 H 0.73864 0.43958 0.3235 0.0
H1219 H 0.72435 0.41208 0.33535 0.0
C1220 C 0.74681 0.49618 0.35914 0.0
C1221 C 0.7246 0.48193 0.3668 0.0
C1222 C 0.76059 0.4866 0.35388 0.0
C1223 C 0.75217 0.46261 0.3559 0.0
C1224 C 0.72972 0.44831 0.36294 0.0
H1225 H 0.77807 0.35801 0.3809 0.0
H1226 H 0.76537 0.38503 0.37114 0.0
C1227 C 0.71607 0.45782 0.36829 0.0
C1228 C 0.7675 0.4526 0.35297 0.0
H1229 H 0.7664 0.4045 0.33518 0.0
C1230 C 0.78721 0.46039 0.36415 0.0
C1231 C 0.76078 0.43307 0.34158 0.0
C1232 C 0.7407 0.42486 0.32842 0.0
C1233 C 0.79895 0.44773 0.3656 0.0
C1234 C 0.79085 0.42698 0.35542 0.0
C1235 C 0.77243 0.42035 0.34307 0.0
C1236 C 0.79867 0.41014 0.3596 0.0
C1237 C 0.81864 0.45552 0.3791 0.0
C1238 C 0.82154 0.41518 0.35603 0.0
C1239 C 0.82895 0.39973 0.36165 0.0
C1240 C 0.81358 0.37906 0.37097 0.0
C1241 C 0.79047 0.37383 0.37394 0.0
C1242 C 0.78311 0.38919 0.36828 0.0
H1243 H 0.82138 0.4709 0.38713 0.0
H1244 H 0.81508 0.44109 0.38863 0.0
H1245 H 0.83506 0.4602 0.37176 0.0
H1246 H 0.83372 0.43121 0.34919 0.0
H1247 H 0.84683 0.40423 0.35907 0.0
H1248 H 0.23719 0.75961 0.85956 0.0
H1249 H 0.27804 0.78313 0.84978 0.0
H1250 H 0.29116 0.72866 0.86763 0.0
H1251 H 0.25081 0.70522 0.87723 0.0
H1252 H 0.31574 0.79822 0.87347 0.0
H1253 H 0.32353 0.74605 0.81835 0.0
H1254 H 0.29574 0.74233 0.82552 0.0
H1255 H 0.30885 0.72811 0.83764 0.0
C1256 C 0.24872 0.75252 0.86106 0.0
C1257 C 0.24081 0.73062 0.86928 0.0
C1258 C 0.27199 0.76594 0.85547 0.0
C1259 C 0.28748 0.75744 0.85769 0.0
C1260 C 0.27938 0.73533 0.86536 0.0
H1261 H 0.4174 0.78178 0.88227 0.0
H1262 H 0.37769 0.76938 0.8726 0.0
C1263 C 0.25633 0.72205 0.87106 0.0
C1264 C 0.31276 0.77236 0.85423 0.0
H1265 H 0.35878 0.7694 0.83642 0.0
C1266 C 0.32523 0.79245 0.86491 0.0
C1267 C 0.32502 0.76482 0.84297 0.0
C1268 C 0.31253 0.74427 0.83033 0.0
C1269 C 0.34964 0.80378 0.86604 0.0
C1270 C 0.36173 0.79487 0.85606 0.0
C1271 C 0.3494 0.77606 0.84416 0.0
C1272 C 0.38635 0.80231 0.86006 0.0
C1273 C 0.36217 0.82395 0.87905 0.0
C1274 C 0.40443 0.82482 0.85587 0.0
C1275 C 0.42728 0.83205 0.86143 0.0
C1276 C 0.4323 0.81685 0.87131 0.0
C1277 C 0.41417 0.79403 0.87486 0.0
C1278 C 0.39146 0.78685 0.86925 0.0
H1279 H 0.34992 0.82741 0.88697 0.0
H1280 H 0.37293 0.8204 0.88871 0.0
H1281 H 0.37407 0.83994 0.87132 0.0
H1282 H 0.40079 0.83691 0.84864 0.0
H1283 H 0.44084 0.8497 0.8584 0.0
H1284 H 0.58645 0.43783 0.35685 0.0
H1285 H 0.55943 0.39751 0.34745 0.0
H1286 H 0.60582 0.37589 0.36992 0.0
H1287 H 0.63286 0.41578 0.37917 0.0
H1288 H 0.58611 0.35628 0.33458 0.0
H1289 H 0.51992 0.34669 0.38608 0.0
H1290 H 0.53041 0.37044 0.37011 0.0
H1291 H 0.5497 0.37033 0.38719 0.0
C1292 C 0.591 0.42452 0.35961 0.0
C1293 C 0.6117 0.43 0.36896 0.0
C1294 C 0.57551 0.40152 0.35427 0.0
C1295 C 0.58058 0.38377 0.35816 0.0
C1296 C 0.60161 0.38938 0.36681 0.0
H1297 H 0.5442 0.24828 0.3759 0.0
H1298 H 0.56073 0.28867 0.36638 0.0
C1299 C 0.61699 0.41221 0.37218 0.0
C1300 C 0.56367 0.35899 0.35445 0.0
H1301 H 0.51531 0.31264 0.37265 0.0
C1302 C 0.57029 0.34676 0.34254 0.0
C1303 C 0.54297 0.34669 0.36476 0.0
C1304 C 0.53522 0.35906 0.37783 0.0
C1305 C 0.55761 0.32234 0.34164 0.0
C1306 C 0.53812 0.30994 0.35316 0.0
C1307 C 0.53034 0.32224 0.36388 0.0
C1308 C 0.52807 0.2847 0.35663 0.0
C1309 C 0.56584 0.31 0.32899 0.0
C1310 C 0.50412 0.26905 0.35445 0.0
C1311 C 0.49451 0.24579 0.35998 0.0
C1312 C 0.50869 0.23802 0.36808 0.0
C1313 C 0.53275 0.25368 0.36981 0.0
C1314 C 0.5423 0.27676 0.36417 0.0
H1315 H 0.57488 0.32098 0.31695 0.0
H1316 H 0.57849 0.30653 0.33627 0.0
H1317 H 0.55109 0.29311 0.32427 0.0
H1318 H 0.49282 0.27496 0.34886 0.0
H1319 H 0.47591 0.23417 0.35852 0.0
H1320 H 0.15059 0.59348 0.85919 0.0
H1321 H 0.16454 0.56688 0.85024 0.0
H1322 H 0.23089 0.61232 0.87554 0.0
H1323 H 0.21736 0.639 0.88441 0.0
H1324 H 0.23281 0.59405 0.83971 0.0
H1325 H 0.17372 0.52591 0.88903 0.0
H1326 H 0.16121 0.5371 0.87297 0.0
H1327 H 0.17994 0.55569 0.89065 0.0
C1328 C 0.16823 0.59792 0.86271 0.0
C1329 C 0.18277 0.61827 0.8727 0.0
C1330 C 0.17611 0.58267 0.85762 0.0
C1331 C 0.19863 0.58759 0.8624 0.0
C1332 C 0.21343 0.60825 0.87175 0.0
H1333 H 0.2961 0.54826 0.88006 0.0
H1334 H 0.27308 0.56592 0.87109 0.0
C1335 C 0.2056 0.62342 0.87688 0.0
C1336 C 0.20674 0.57087 0.85872 0.0
H1337 H 0.20324 0.52128 0.87571 0.0
C1338 C 0.22604 0.57785 0.84725 0.0
C1339 C 0.19769 0.54968 0.86845 0.0
C1340 C 0.17706 0.54154 0.88105 0.0
C1341 C 0.23748 0.5649 0.84615 0.0
C1342 C 0.22964 0.54477 0.85707 0.0
C1343 C 0.20922 0.53678 0.8674 0.0
C1344 C 0.2443 0.53408 0.86032 0.0
C1345 C 0.25846 0.57343 0.83389 0.0
C1346 C 0.23563 0.51018 0.85743 0.0
C1347 C 0.24879 0.4999 0.86267 0.0
C1348 C 0.2706 0.51334 0.87116 0.0
C1349 C 0.27934 0.53736 0.87365 0.0
C1350 C 0.26631 0.54757 0.86832 0.0
H1351 H 0.25715 0.58318 0.82208 0.0
H1352 H 0.27439 0.58551 0.84163 0.0
H1353 H 0.26048 0.55874 0.8288 0.0
H1354 H 0.21854 0.49944 0.85147 0.0
H1355 H 0.24155 0.48135 0.86061 0.0
H1356 H 0.55312 0.1448 0.35796 0.0
H1357 H 0.59333 0.15824 0.3482 0.0
H1358 H 0.61528 0.22572 0.37178 0.0
H1359 H 0.57545 0.21269 0.38146 0.0
H1360 H 0.63385 0.22583 0.33546 0.0
H1361 H 0.64535 0.1695 0.38606 0.0
H1362 H 0.6209 0.15629 0.37071 0.0
H1363 H 0.62191 0.17585 0.38802 0.0
C1364 C 0.56647 0.16257 0.36093 0.0
C1365 C 0.56108 0.17759 0.37067 0.0
C1366 C 0.58941 0.17016 0.35538 0.0
C1367 C 0.60722 0.19288 0.35942 0.0
C1368 C 0.60174 0.2081 0.36855 0.0
H1369 H 0.74325 0.29216 0.37433 0.0
H1370 H 0.7027 0.26839 0.36524 0.0
C1371 C 0.57895 0.20056 0.37415 0.0
C1372 C 0.63191 0.20087 0.35519 0.0
H1373 H 0.67892 0.1989 0.37201 0.0
C1374 C 0.64368 0.2196 0.34311 0.0
C1375 C 0.6446 0.19252 0.36505 0.0
C1376 C 0.6327 0.17249 0.37826 0.0
C1377 C 0.66805 0.23125 0.34156 0.0
C1378 C 0.68091 0.22423 0.35265 0.0
C1379 C 0.669 0.20427 0.36357 0.0
C1380 C 0.70629 0.23946 0.35556 0.0
C1381 C 0.67988 0.25162 0.32867 0.0
C1382 C 0.72185 0.23106 0.35322 0.0
C1383 C 0.74523 0.24468 0.35851 0.0
C1384 C 0.75321 0.26669 0.36653 0.0
C1385 C 0.73768 0.27524 0.36829 0.0
C1386 C 0.71449 0.26176 0.3629 0.0
H1387 H 0.66847 0.24941 0.31686 0.0
H1388 H 0.68346 0.26781 0.33587 0.0
H1389 H 0.69666 0.25381 0.3236 0.0
H1390 H 0.71575 0.21375 0.34778 0.0
H1391 H 0.75676 0.23758 0.35704 0.0
H1392 H 0.5574 0.40939 0.8605 0.0
H1393 H 0.59782 0.43523 0.85081 0.0
H1394 H 0.61724 0.38681 0.87254 0.0
H1395 H 0.57717 0.36098 0.88221 0.0
H1396 H 0.63646 0.45497 0.87497 0.0
H1397 H 0.64765 0.40239 0.82176 0.0
H1398 H 0.61931 0.39723 0.8289 0.0
H1399 H 0.63436 0.38579 0.84196 0.0
C1400 C 0.57022 0.4041 0.86299 0.0
C1401 C 0.56407 0.38315 0.8722 0.0
C1402 C 0.59326 0.41887 0.85742 0.0
C1403 C 0.61037 0.41272 0.86069 0.0
C1404 C 0.60417 0.39163 0.86953 0.0
H1405 H 0.74603 0.45128 0.87976 0.0
H1406 H 0.70528 0.43466 0.87133 0.0
C1407 C 0.58128 0.37699 0.87522 0.0
C1408 C 0.63521 0.42906 0.8566 0.0
H1409 H 0.68283 0.43057 0.83742 0.0
C1410 C 0.64661 0.45007 0.86634 0.0
C1411 C 0.64827 0.42261 0.84526 0.0
C1412 C 0.63672 0.40087 0.83373 0.0
C1413 C 0.67104 0.4637 0.86641 0.0
C1414 C 0.68422 0.4562 0.8562 0.0
C1415 C 0.67267 0.43621 0.84528 0.0
C1416 C 0.70956 0.46635 0.85921 0.0
C1417 C 0.6826 0.4849 0.87854 0.0
C1418 C 0.72564 0.48961 0.85478 0.0
C1419 C 0.74915 0.49931 0.85968 0.0
C1420 C 0.75681 0.48584 0.8691 0.0
C1421 C 0.74074 0.46227 0.87272 0.0
C1422 C 0.71741 0.45266 0.86782 0.0
H1423 H 0.66982 0.48679 0.88711 0.0
H1424 H 0.69554 0.48394 0.88759 0.0
H1425 H 0.69205 0.5008 0.87004 0.0
H1426 H 0.71992 0.50036 0.84792 0.0
H1427 H 0.76111 0.51748 0.8566 0.0
H1428 H 0.27744 0.75782 0.35288 0.0
H1429 H 0.25796 0.71535 0.34838 0.0
H1430 H 0.24062 0.70494 0.40553 0.0
H1431 H 0.26119 0.74708 0.41012 0.0
H1432 H 0.26027 0.68138 0.39612 0.0
H1433 H 0.19155 0.66421 0.34528 0.0
H1434 H 0.22041 0.68501 0.33779 0.0
H1435 H 0.20777 0.69185 0.3568 0.0
C1436 C 0.26906 0.74631 0.36433 0.0
C1437 C 0.27073 0.75546 0.38183 0.0
C1438 C 0.25784 0.72211 0.36176 0.0
C1439 C 0.24764 0.7069 0.3766 0.0
C1440 C 0.24843 0.71627 0.39389 0.0
H1441 H 0.15421 0.55917 0.38251 0.0
H1442 H 0.17272 0.60135 0.37806 0.0
C1443 C 0.2601 0.7403 0.39651 0.0
C1444 C 0.23794 0.68137 0.37478 0.0
H1445 H 0.19707 0.63241 0.35284 0.0
C1446 C 0.2464 0.67069 0.38667 0.0
C1447 C 0.21983 0.66741 0.36247 0.0
C1448 C 0.20918 0.67764 0.34998 0.0
C1449 C 0.23681 0.64646 0.38707 0.0
C1450 C 0.21902 0.63248 0.37452 0.0
C1451 C 0.21088 0.64317 0.36231 0.0
C1452 C 0.20759 0.60667 0.37482 0.0
C1453 C 0.24515 0.63616 0.40159 0.0
C1454 C 0.22087 0.59551 0.37382 0.0
C1455 C 0.21043 0.57155 0.37689 0.0
C1456 C 0.18639 0.55822 0.38032 0.0
C1457 C 0.1728 0.56908 0.37991 0.0
C1458 C 0.18335 0.59316 0.37734 0.0
H1459 H 0.25365 0.64847 0.41307 0.0
H1460 H 0.23051 0.61976 0.40713 0.0
H1461 H 0.25825 0.63227 0.39565 0.0
H1462 H 0.23946 0.60545 0.37126 0.0
H1463 H 0.2212 0.56348 0.37682 0.0
H1464 H 0.48014 0.24415 0.85832 0.0
H1465 H 0.49758 0.22045 0.8494 0.0
H1466 H 0.56265 0.27084 0.87404 0.0
H1467 H 0.54571 0.29458 0.88278 0.0
H1468 H 0.567 0.25396 0.83903 0.0
H1469 H 0.51172 0.18291 0.88778 0.0
H1470 H 0.49753 0.19181 0.87136 0.0
H1471 H 0.51451 0.21141 0.88923 0.0
C1472 C 0.49822 0.25026 0.86167 0.0
C1473 C 0.51143 0.27113 0.87146 0.0
C1474 C 0.50811 0.23667 0.85662 0.0
C1475 C 0.53131 0.24382 0.86124 0.0
C1476 C 0.54471 0.26502 0.87036 0.0
H1477 H 0.63838 0.21823 0.88109 0.0
H1478 H 0.61213 0.23221 0.87207 0.0
C1479 C 0.53491 0.27851 0.87544 0.0
C1480 C 0.54177 0.22902 0.85768 0.0
H1481 H 0.54387 0.18236 0.87516 0.0
C1482 C 0.56164 0.23798 0.84658 0.0
C1483 C 0.53462 0.20812 0.86746 0.0
C1484 C 0.5135 0.19791 0.87972 0.0
C1485 C 0.57546 0.22744 0.84595 0.0
C1486 C 0.56939 0.20767 0.85691 0.0
C1487 C 0.54849 0.1976 0.86684 0.0
C1488 C 0.58604 0.19938 0.86044 0.0
C1489 C 0.597 0.23813 0.83417 0.0
C1490 C 0.57997 0.17617 0.85706 0.0
C1491 C 0.59499 0.16803 0.86227 0.0
C1492 C 0.61612 0.18292 0.87123 0.0
C1493 C 0.62224 0.20626 0.87428 0.0
C1494 C 0.60735 0.21437 0.86896 0.0
H1495 H 0.595 0.24749 0.82238 0.0
H1496 H 0.61211 0.251 0.84231 0.0
H1497 H 0.60094 0.22469 0.82906 0.0
H1498 H 0.56346 0.16428 0.85068 0.0
H1499 H 0.58971 0.14993 0.85978 0.0
H1500 H 0.2481 0.4945 0.40362 0.0
H1501 H 0.28989 0.51625 0.39727 0.0
H1502 H 0.27575 0.52676 0.34184 0.0
H1503 H 0.23352 0.50404 0.34803 0.0
H1504 H 0.31546 0.52056 0.34581 0.0
H1505 H 0.31827 0.58702 0.39301 0.0
H1506 H 0.30588 0.55883 0.40347 0.0
H1507 H 0.29126 0.56322 0.38451 0.0
C1508 C 0.25391 0.50101 0.38997 0.0
C1509 C 0.23777 0.49792 0.37635 0.0
C1510 C 0.27773 0.51347 0.38638 0.0
C1511 C 0.28585 0.52361 0.36924 0.0
C1512 C 0.26976 0.51917 0.35519 0.0
H1513 H 0.42636 0.64213 0.37171 0.0
H1514 H 0.38528 0.6174 0.36374 0.0
C1515 C 0.24574 0.50623 0.35871 0.0
C1516 C 0.31095 0.54058 0.36685 0.0
H1517 H 0.35482 0.59001 0.38583 0.0
C1518 C 0.32413 0.53595 0.35434 0.0
C1519 C 0.32206 0.56097 0.37764 0.0
C1520 C 0.30859 0.56797 0.39026 0.0
C1521 C 0.34845 0.55065 0.35304 0.0
C1522 C 0.35978 0.57003 0.36492 0.0
C1523 C 0.3463 0.5751 0.37679 0.0
C1524 C 0.38556 0.5849 0.36607 0.0
C1525 C 0.36162 0.54526 0.33894 0.0
C1526 C 0.39967 0.57499 0.36947 0.0
C1527 C 0.42335 0.5892 0.37356 0.0
C1528 C 0.43305 0.61346 0.37489 0.0
C1529 C 0.41918 0.62342 0.37091 0.0
C1530 C 0.39574 0.6093 0.36632 0.0
H1531 H 0.35034 0.53607 0.32707 0.0
H1532 H 0.37726 0.56135 0.33405 0.0
H1533 H 0.36731 0.53355 0.34497 0.0
H1534 H 0.39219 0.55625 0.36991 0.0
H1535 H 0.43371 0.58116 0.37674 0.0
H1536 H 0.85163 0.44073 0.8615 0.0
H1537 H 0.83806 0.40032 0.85225 0.0
H1538 H 0.76854 0.38056 0.87015 0.0
H1539 H 0.78176 0.42057 0.87933 0.0
H1540 H 0.81789 0.36196 0.87627 0.0
H1541 H 0.75731 0.34944 0.82006 0.0
H1542 H 0.77965 0.37798 0.82758 0.0
H1543 H 0.75228 0.36269 0.83952 0.0
C1544 C 0.83338 0.42783 0.8632 0.0
C1545 C 0.8178 0.43386 0.87123 0.0
C1546 C 0.82568 0.40479 0.8579 0.0
C1547 C 0.80224 0.38757 0.86024 0.0
C1548 C 0.7866 0.39368 0.86785 0.0
H1549 H 0.70489 0.25237 0.87984 0.0
H1550 H 0.72948 0.29302 0.8713 0.0
C1551 C 0.79426 0.41656 0.87326 0.0
C1552 C 0.79421 0.36272 0.85659 0.0
H1553 H 0.74923 0.31458 0.83692 0.0
C1554 C 0.80334 0.35159 0.86726 0.0
C1555 C 0.77534 0.34934 0.84473 0.0
C1556 C 0.76574 0.36053 0.83218 0.0
C1557 C 0.79262 0.32717 0.8677 0.0
C1558 C 0.77251 0.31372 0.85699 0.0
C1559 C 0.76461 0.32496 0.84518 0.0
C1560 C 0.75721 0.28845 0.86023 0.0
C1561 C 0.80169 0.31592 0.88073 0.0
C1562 C 0.76447 0.27227 0.85646 0.0
C1563 C 0.75038 0.24881 0.86139 0.0
C1564 C 0.72891 0.24132 0.87023 0.0
C1565 C 0.72141 0.25752 0.87327 0.0
C1566 C 0.73539 0.28079 0.8683 0.0
H1567 H 0.81611 0.32893 0.88937 0.0
H1568 H 0.78741 0.3034 0.88971 0.0
H1569 H 0.80826 0.30604 0.87294 0.0
H1570 H 0.78118 0.27786 0.85004 0.0
H1571 H 0.75661 0.23675 0.85879 0.0
H1572 H 0.36375 0.78352 0.3922 0.0
H1573 H 0.38938 0.76863 0.38331 0.0
H1574 H 0.4317 0.83098 0.35213 0.0
H1575 H 0.40613 0.84621 0.36094 0.0
H1576 H 0.40342 0.76325 0.34515 0.0
H1577 H 0.47624 0.82421 0.39043 0.0
H1578 H 0.44665 0.81776 0.39426 0.0
H1579 H 0.46287 0.83562 0.37536 0.0
C1580 C 0.37844 0.79411 0.38341 0.0
C1581 C 0.38296 0.81615 0.3774 0.0
C1582 C 0.393 0.7855 0.37828 0.0
C1583 C 0.41242 0.79879 0.36717 0.0
C1584 C 0.41683 0.82057 0.36081 0.0
H1585 H 0.51645 0.75311 0.36153 0.0
H1586 H 0.49843 0.77644 0.35303 0.0
C1587 C 0.40217 0.82919 0.36585 0.0
C1588 C 0.42833 0.78986 0.36297 0.0
H1589 H 0.47874 0.79311 0.37766 0.0
C1590 C 0.42014 0.77004 0.35191 0.0
C1591 C 0.45022 0.79899 0.37165 0.0
C1592 C 0.45966 0.82028 0.38365 0.0
C1593 C 0.43267 0.75822 0.35021 0.0
C1594 C 0.45359 0.76617 0.36016 0.0
C1595 C 0.46266 0.78703 0.37008 0.0
C1596 C 0.46412 0.75127 0.36296 0.0
C1597 C 0.42294 0.73681 0.33832 0.0
C1598 C 0.45079 0.72948 0.37132 0.0
C1599 C 0.46097 0.71628 0.37624 0.0
C1600 C 0.4848 0.72463 0.37303 0.0
C1601 C 0.49804 0.74619 0.36414 0.0
C1602 C 0.4878 0.75951 0.35928 0.0
H1603 H 0.41267 0.73808 0.32686 0.0
H1604 H 0.43701 0.73414 0.33272 0.0
H1605 H 0.41101 0.72127 0.34651 0.0
H1606 H 0.43265 0.72303 0.3747 0.0
H1607 H 0.4502 0.69972 0.38297 0.0
H1608 H 0.54838 0.2539 0.11186 0.0
H1609 H 0.56596 0.29477 0.12017 0.0
H1610 H 0.49917 0.28339 0.13852 0.0
H1611 H 0.48116 0.24206 0.13003 0.0
H1612 H 0.52128 0.3198 0.11376 0.0
H1613 H 0.58271 0.32954 0.16839 0.0
H1614 H 0.58536 0.31416 0.14931 0.0
H1615 H 0.55843 0.30153 0.16193 0.0
C1616 C 0.53739 0.25992 0.11789 0.0
C1617 C 0.51331 0.24473 0.12017 0.0
C1618 C 0.54756 0.28329 0.12283 0.0
C1619 C 0.53395 0.29203 0.13024 0.0
C1620 C 0.51 0.27687 0.13301 0.0
H1621 H 0.59238 0.44502 0.12945 0.0
H1622 H 0.56585 0.40442 0.13828 0.0
C1623 C 0.49977 0.2533 0.12816 0.0
C1624 C 0.54461 0.31749 0.13296 0.0
H1625 H 0.59362 0.36421 0.15005 0.0
C1626 C 0.53669 0.32958 0.12212 0.0
C1627 C 0.56465 0.33015 0.14392 0.0
C1628 C 0.57312 0.31813 0.15668 0.0
C1629 C 0.5495 0.35398 0.12068 0.0
C1630 C 0.57058 0.36647 0.13053 0.0
C1631 C 0.57753 0.35452 0.14242 0.0
C1632 C 0.58712 0.39133 0.12673 0.0
C1633 C 0.5414 0.36607 0.10762 0.0
C1634 C 0.60806 0.39738 0.11773 0.0
C1635 C 0.62321 0.42043 0.11266 0.0
C1636 C 0.61776 0.43797 0.11657 0.0
C1637 C 0.59707 0.43195 0.12615 0.0
C1638 C 0.58185 0.40878 0.13117 0.0
H1639 H 0.52597 0.35352 0.09958 0.0
H1640 H 0.53665 0.37749 0.11535 0.0
H1641 H 0.55568 0.37726 0.09809 0.0
H1642 H 0.61241 0.38411 0.1142 0.0
H1643 H 0.63903 0.4244 0.10544 0.0
H1644 H 0.25766 0.49197 0.63666 0.0
H1645 H 0.23469 0.51089 0.64355 0.0
H1646 H 0.25324 0.54533 0.59145 0.0
H1647 H 0.27626 0.52686 0.58447 0.0
H1648 H 0.25473 0.5648 0.64087 0.0
H1649 H 0.17827 0.50926 0.5971 0.0
H1650 H 0.19702 0.49924 0.60642 0.0
H1651 H 0.20637 0.5184 0.58711 0.0
C1652 C 0.25675 0.5035 0.62665 0.0
C1653 C 0.2688 0.50793 0.61002 0.0
C1654 C 0.24368 0.51427 0.63063 0.0
C1655 C 0.24222 0.52928 0.61792 0.0
C1656 C 0.25408 0.53362 0.60133 0.0
H1657 H 0.21895 0.64038 0.60392 0.0
H1658 H 0.23347 0.61384 0.61067 0.0
C1659 C 0.26729 0.52311 0.59742 0.0
C1660 C 0.22896 0.5412 0.62188 0.0
H1661 H 0.18336 0.54626 0.60588 0.0
C1662 C 0.23882 0.5605 0.63358 0.0
C1663 C 0.20817 0.53534 0.61243 0.0
C1664 C 0.19665 0.51431 0.60015 0.0
C1665 C 0.2292 0.5751 0.63511 0.0
C1666 C 0.20941 0.57025 0.62456 0.0
C1667 C 0.19862 0.54999 0.61388 0.0
C1668 C 0.20122 0.58721 0.6227 0.0
C1669 C 0.24073 0.59603 0.64749 0.0
C1670 C 0.17824 0.58097 0.62719 0.0
C1671 C 0.16982 0.59612 0.62332 0.0
C1672 C 0.18418 0.61758 0.61461 0.0
C1673 C 0.20739 0.62396 0.61057 0.0
C1674 C 0.2158 0.60891 0.61457 0.0
H1675 H 0.25071 0.59343 0.6585 0.0
H1676 H 0.25314 0.6115 0.63945 0.0
H1677 H 0.22766 0.59977 0.6537 0.0
H1678 H 0.16668 0.56417 0.63331 0.0
H1679 H 0.15184 0.59064 0.62657 0.0
H1680 H 0.7475 0.30123 0.11415 0.0
H1681 H 0.70683 0.27727 0.12276 0.0
H1682 H 0.72011 0.2232 0.1414 0.0
H1683 H 0.76124 0.24719 0.13256 0.0
H1684 H 0.6837 0.20762 0.11698 0.0
H1685 H 0.67181 0.25891 0.17063 0.0
H1686 H 0.68685 0.27703 0.15151 0.0
H1687 H 0.70023 0.26359 0.16432 0.0
C1688 C 0.74195 0.28439 0.12033 0.0
C1689 C 0.7576 0.27605 0.12254 0.0
C1690 C 0.71869 0.27081 0.12545 0.0
C1691 C 0.71052 0.24862 0.13301 0.0
C1692 C 0.72617 0.24041 0.13578 0.0
H1693 H 0.55755 0.15305 0.13147 0.0
H1694 H 0.59797 0.16732 0.14105 0.0
C1695 C 0.74963 0.25413 0.13073 0.0
C1696 C 0.68513 0.23329 0.13572 0.0
H1697 H 0.63755 0.23481 0.15175 0.0
C1698 C 0.67354 0.21307 0.12505 0.0
C1699 C 0.67196 0.24041 0.14632 0.0
C1700 C 0.68342 0.26106 0.15899 0.0
C1701 C 0.64916 0.20108 0.12333 0.0
C1702 C 0.6362 0.2095 0.13267 0.0
C1703 C 0.64762 0.22855 0.1445 0.0
C1704 C 0.61149 0.20103 0.12821 0.0
C1705 C 0.63757 0.18065 0.11046 0.0
C1706 C 0.6058 0.21546 0.11813 0.0
C1707 C 0.58289 0.20743 0.1126 0.0
C1708 C 0.56513 0.18479 0.11713 0.0
C1709 C 0.57081 0.17055 0.1277 0.0
C1710 C 0.59386 0.17862 0.13316 0.0
H1711 H 0.65039 0.17735 0.10324 0.0
H1712 H 0.62547 0.16471 0.11817 0.0
H1713 H 0.62712 0.18379 0.1002 0.0
H1714 H 0.61924 0.23283 0.11419 0.0
H1715 H 0.57917 0.21895 0.10462 0.0
H1716 H 0.44793 0.748 0.60943 0.0
H1717 H 0.42969 0.70673 0.61647 0.0
H1718 H 0.49487 0.71688 0.63774 0.0
H1719 H 0.5136 0.75861 0.63044 0.0
H1720 H 0.47517 0.68198 0.61211 0.0
H1721 H 0.40863 0.66926 0.66307 0.0
H1722 H 0.40735 0.68524 0.64384 0.0
H1723 H 0.43313 0.69767 0.65787 0.0
C1724 C 0.45842 0.74163 0.61584 0.0
C1725 C 0.4823 0.75661 0.61926 0.0
C1726 C 0.44784 0.71801 0.62005 0.0
C1727 C 0.46081 0.7088 0.62791 0.0
C1728 C 0.48452 0.72374 0.63185 0.0
H1729 H 0.40542 0.55658 0.62811 0.0
H1730 H 0.43026 0.59762 0.63645 0.0
C1731 C 0.49516 0.74754 0.62769 0.0
C1732 C 0.44994 0.68321 0.62988 0.0
H1733 H 0.3998 0.63546 0.64431 0.0
C1734 C 0.45904 0.67175 0.61957 0.0
C1735 C 0.42893 0.66993 0.63964 0.0
C1736 C 0.4191 0.6812 0.65188 0.0
C1737 C 0.44669 0.64741 0.61758 0.0
C1738 C 0.42484 0.63433 0.62627 0.0
C1739 C 0.41649 0.64563 0.63754 0.0
C1740 C 0.40937 0.60934 0.62227 0.0
C1741 C 0.45627 0.63597 0.60526 0.0
C1742 C 0.38924 0.60242 0.61181 0.0
C1743 C 0.37504 0.57908 0.60697 0.0
C1744 C 0.38065 0.56216 0.61261 0.0
C1745 C 0.4006 0.56914 0.62348 0.0
C1746 C 0.41486 0.59256 0.62825 0.0
H1747 H 0.47228 0.64892 0.598 0.0
H1748 H 0.46059 0.62455 0.61344 0.0
H1749 H 0.44296 0.62486 0.59504 0.0
H1750 H 0.38476 0.6152 0.60709 0.0
H1751 H 0.35978 0.57436 0.5987 0.0
H1752 H 0.85163 0.41498 0.13102 0.0
H1753 H 0.83807 0.44161 0.14089 0.0
H1754 H 0.76871 0.39265 0.12217 0.0
H1755 H 0.78189 0.36604 0.11242 0.0
H1756 H 0.81894 0.46084 0.11748 0.0
H1757 H 0.75637 0.41132 0.17211 0.0
H1758 H 0.77853 0.40483 0.16463 0.0
H1759 H 0.75146 0.39357 0.15234 0.0
C1760 C 0.8334 0.40973 0.12929 0.0
C1761 C 0.81786 0.38842 0.12085 0.0
C1762 C 0.82571 0.42496 0.13495 0.0
C1763 C 0.80232 0.41891 0.13254 0.0
C1764 C 0.78671 0.39742 0.12455 0.0
H1765 H 0.70676 0.45792 0.11074 0.0
H1766 H 0.73078 0.44151 0.12012 0.0
C1767 C 0.79437 0.38232 0.1188 0.0
C1768 C 0.79439 0.43578 0.13639 0.0
H1769 H 0.74878 0.43858 0.15525 0.0
C1770 C 0.80407 0.45644 0.12618 0.0
C1771 C 0.77511 0.43002 0.14786 0.0
C1772 C 0.76493 0.40883 0.16 0.0
C1773 C 0.79349 0.47027 0.12571 0.0
C1774 C 0.77293 0.46331 0.13592 0.0
C1775 C 0.76449 0.44379 0.14736 0.0
C1776 C 0.75777 0.47336 0.13233 0.0
C1777 C 0.80317 0.49104 0.11312 0.0
C1778 C 0.76478 0.49665 0.13648 0.0
C1779 C 0.75101 0.50621 0.13107 0.0
C1780 C 0.73015 0.4926 0.12137 0.0
C1781 C 0.72285 0.46902 0.11797 0.0
C1782 C 0.73649 0.45953 0.12343 0.0
H1783 H 0.81808 0.49283 0.10491 0.0
H1784 H 0.78936 0.48956 0.10371 0.0
H1785 H 0.80925 0.5072 0.12122 0.0
H1786 H 0.78107 0.50752 0.14352 0.0
H1787 H 0.75707 0.5244 0.13395 0.0
H1788 H 0.43993 0.85152 0.63021 0.0
H1789 H 0.39928 0.83747 0.63907 0.0
H1790 H 0.37935 0.76996 0.61644 0.0
H1791 H 0.41957 0.78363 0.60764 0.0
H1792 H 0.36154 0.82017 0.61435 0.0
H1793 H 0.34691 0.75378 0.66615 0.0
H1794 H 0.37574 0.77671 0.65979 0.0
H1795 H 0.36073 0.75067 0.6462 0.0
C1796 C 0.42693 0.83359 0.62737 0.0
C1797 C 0.43297 0.81872 0.61815 0.0
C1798 C 0.40375 0.82562 0.63245 0.0
C1799 C 0.38644 0.80259 0.62868 0.0
C1800 C 0.39255 0.78764 0.61984 0.0
H1801 H 0.25224 0.7083 0.6036 0.0
H1802 H 0.29281 0.73242 0.61257 0.0
C1803 C 0.41554 0.79559 0.61465 0.0
C1804 C 0.36153 0.7944 0.63221 0.0
H1805 H 0.31265 0.74745 0.64912 0.0
C1806 C 0.35083 0.80471 0.62241 0.0
C1807 C 0.34771 0.77434 0.64284 0.0
C1808 C 0.35842 0.76338 0.65449 0.0
C1809 C 0.32644 0.79411 0.62153 0.0
C1810 C 0.31261 0.77287 0.63086 0.0
C1811 C 0.32336 0.76369 0.64191 0.0
C1812 C 0.28752 0.75799 0.6268 0.0
C1813 C 0.31562 0.80457 0.60944 0.0
C1814 C 0.27104 0.76429 0.63207 0.0
C1815 C 0.24764 0.75047 0.62691 0.0
C1816 C 0.24049 0.73026 0.61637 0.0
C1817 C 0.25709 0.72384 0.61156 0.0
C1818 C 0.28031 0.73753 0.61676 0.0
H1819 H 0.32894 0.8203 0.60211 0.0
H1820 H 0.30395 0.79151 0.59929 0.0
H1821 H 0.30486 0.80957 0.6178 0.0
H1822 H 0.27632 0.77997 0.63995 0.0
H1823 H 0.23528 0.75586 0.63089 0.0
H1824 H 0.11587 0.4877 0.17105 0.0
H1825 H 0.1132 0.48747 0.20425 0.0
H1826 H 0.15026 0.44944 0.20775 0.0
H1827 H 0.15287 0.44932 0.17467 0.0
H1828 H 0.10964 0.43217 0.23041 0.0
H1829 H 0.16977 0.52779 0.23782 0.0
H1830 H 0.14543 0.51892 0.22266 0.0
H1831 H 0.1679 0.51229 0.21711 0.0
C1832 C 0.12335 0.47917 0.17885 0.0
C1833 C 0.13472 0.46865 0.17016 0.0
C1834 C 0.12191 0.47918 0.19782 0.0
C1835 C 0.13182 0.46873 0.20837 0.0
C1836 C 0.14259 0.45768 0.19978 0.0
H1837 H 0.15776 0.44905 0.31895 0.0
H1838 H 0.15315 0.44904 0.28604 0.0
C1839 C 0.14409 0.45768 0.18087 0.0
C1840 C 0.13136 0.46946 0.22843 0.0
H1841 H 0.15421 0.50619 0.26472 0.0
C1842 C 0.11926 0.44834 0.23794 0.0
C1843 C 0.14387 0.49064 0.23813 0.0
C1844 C 0.15765 0.51373 0.22848 0.0
C1845 C 0.11957 0.44779 0.25699 0.0
C1846 C 0.1327 0.46888 0.26668 0.0
C1847 C 0.14423 0.49007 0.25719 0.0
C1848 C 0.13557 0.46917 0.28662 0.0
C1849 C 0.10586 0.42465 0.26658 0.0
C1850 C 0.12786 0.48114 0.29776 0.0
C1851 C 0.13059 0.48133 0.31662 0.0
C1852 C 0.14123 0.46966 0.32462 0.0
C1853 C 0.14935 0.4581 0.3133 0.0
C1854 C 0.1466 0.45792 0.29448 0.0
H1855 H 0.09177 0.41148 0.2578 0.0
H1856 H 0.11775 0.41795 0.27012 0.0
H1857 H 0.09798 0.4265 0.27935 0.0
H1858 H 0.11949 0.49011 0.29188 0.0
H1859 H 0.12419 0.49048 0.3249 0.0
H1860 H 0.7088 0.16609 0.81848 0.0
H1861 H 0.70676 0.16375 0.78533 0.0
H1862 H 0.63198 0.11999 0.78809 0.0
H1863 H 0.63368 0.12235 0.82124 0.0
H1864 H 0.68785 0.12287 0.76333 0.0
H1865 H 0.64215 0.17336 0.75338 0.0
H1866 H 0.65637 0.17381 0.77446 0.0
H1867 H 0.62841 0.14926 0.76894 0.0
C1868 C 0.69188 0.15599 0.81208 0.0
C1869 C 0.67138 0.14449 0.82254 0.0
C1870 C 0.69078 0.15467 0.79314 0.0
C1871 C 0.66921 0.14196 0.78436 0.0
C1872 C 0.64875 0.13022 0.79468 0.0
H1873 H 0.63319 0.12046 0.66949 0.0
H1874 H 0.63185 0.11843 0.70271 0.0
C1875 C 0.6498 0.13152 0.81362 0.0
C1876 C 0.66822 0.14078 0.76435 0.0
H1877 H 0.6486 0.15669 0.72717 0.0
C1878 C 0.67928 0.13024 0.75539 0.0
C1879 C 0.65692 0.15035 0.75415 0.0
C1880 C 0.64543 0.16251 0.76316 0.0
C1881 C 0.67932 0.129 0.73638 0.0
C1882 C 0.66833 0.1389 0.72617 0.0
C1883 C 0.65696 0.14911 0.73513 0.0
C1884 C 0.66921 0.13963 0.70615 0.0
C1885 C 0.69095 0.11698 0.72737 0.0
C1886 C 0.69066 0.15245 0.69722 0.0
C1887 C 0.69153 0.15368 0.67829 0.0
C1888 C 0.67092 0.14219 0.66796 0.0
C1889 C 0.64941 0.12945 0.67701 0.0
C1890 C 0.64858 0.12826 0.69597 0.0
H1891 H 0.69298 0.1051 0.73692 0.0
H1892 H 0.68083 0.10678 0.71535 0.0
H1893 H 0.70859 0.13032 0.72267 0.0
H1894 H 0.70671 0.16172 0.70491 0.0
H1895 H 0.70839 0.16374 0.6718 0.0
H1896 H 0.52971 0.70149 0.17368 0.0
H1897 H 0.52992 0.69986 0.20683 0.0
H1898 H 0.50428 0.62587 0.20458 0.0
H1899 H 0.50425 0.62726 0.17137 0.0
H1900 H 0.49211 0.67315 0.23023 0.0
H1901 H 0.56225 0.65067 0.23737 0.0
H1902 H 0.55709 0.66159 0.21641 0.0
H1903 H 0.53839 0.63168 0.22286 0.0
C1904 C 0.52416 0.68485 0.18018 0.0
C1905 C 0.51709 0.66452 0.16983 0.0
C1906 C 0.52429 0.68397 0.19913 0.0
C1907 C 0.51743 0.66282 0.20809 0.0
C1908 C 0.51007 0.64244 0.19787 0.0
H1909 H 0.50915 0.63005 0.32353 0.0
H1910 H 0.50661 0.62764 0.29033 0.0
C1911 C 0.50996 0.64328 0.1789 0.0
C1912 C 0.51764 0.66215 0.22815 0.0
H1913 H 0.54348 0.65185 0.26438 0.0
C1914 C 0.50332 0.66849 0.23772 0.0
C1915 C 0.53225 0.65597 0.2378 0.0
C1916 C 0.54853 0.64977 0.22814 0.0
C1917 C 0.50322 0.66883 0.25677 0.0
C1918 C 0.5181 0.66302 0.26641 0.0
C1919 C 0.53212 0.65629 0.25687 0.0
C1920 C 0.51985 0.66453 0.28642 0.0
C1921 C 0.4871 0.67525 0.26645 0.0
C1922 C 0.52852 0.68615 0.29508 0.0
C1923 C 0.53005 0.68765 0.314 0.0
C1924 C 0.52299 0.66751 0.32461 0.0
C1925 C 0.51466 0.64589 0.31581 0.0
C1926 C 0.5132 0.64445 0.29685 0.0
H1927 H 0.47282 0.67342 0.25742 0.0
H1928 H 0.4793 0.66419 0.27868 0.0
H1929 H 0.4972 0.6937 0.27094 0.0
H1930 H 0.53413 0.7019 0.28719 0.0
H1931 H 0.53663 0.70459 0.32029 0.0
H1932 H 0.87594 0.50935 0.66847 0.0
H1933 H 0.87748 0.50869 0.70171 0.0
H1934 H 0.83381 0.53978 0.70492 0.0
H1935 H 0.83195 0.54042 0.67182 0.0
H1936 H 0.89274 0.547 0.72691 0.0
H1937 H 0.79964 0.47963 0.73598 0.0
H1938 H 0.81462 0.48465 0.71449 0.0
H1939 H 0.8043 0.50377 0.7219 0.0
C1940 C 0.86668 0.51609 0.67623 0.0
C1941 C 0.85368 0.52479 0.66746 0.0
C1942 C 0.86761 0.5157 0.69519 0.0
C1943 C 0.85546 0.52384 0.70565 0.0
C1944 C 0.84295 0.53303 0.697 0.0
H1945 H 0.83222 0.54102 0.81749 0.0
H1946 H 0.83432 0.54034 0.78439 0.0
C1947 C 0.84201 0.53347 0.67808 0.0
C1948 C 0.8558 0.52285 0.72566 0.0
H1949 H 0.8203 0.49995 0.76257 0.0
C1950 C 0.877 0.53657 0.73476 0.0
C1951 C 0.83518 0.50913 0.73573 0.0
C1952 C 0.81216 0.49328 0.72656 0.0
C1953 C 0.87794 0.53762 0.75381 0.0
C1954 C 0.8572 0.52432 0.76386 0.0
C1955 C 0.83612 0.5102 0.75475 0.0
C1956 C 0.85676 0.52529 0.78388 0.0
C1957 C 0.90091 0.55349 0.76304 0.0
C1958 C 0.86863 0.51693 0.79446 0.0
C1959 C 0.86751 0.51728 0.81341 0.0
C1960 C 0.85437 0.52591 0.82206 0.0
C1961 C 0.84253 0.53429 0.81132 0.0
C1962 C 0.84367 0.53391 0.7924 0.0
H1963 H 0.91408 0.56607 0.75336 0.0
H1964 H 0.89854 0.56338 0.77423 0.0
H1965 H 0.90788 0.54281 0.76903 0.0
H1966 H 0.8785 0.50985 0.78807 0.0
H1967 H 0.87676 0.51061 0.82125 0.0
H1968 H 0.34929 0.88471 0.32192 0.0
H1969 H 0.34808 0.88528 0.28867 0.0
H1970 H 0.30223 0.8106 0.28828 0.0
H1971 H 0.30208 0.81033 0.32156 0.0
H1972 H 0.36122 0.8685 0.26354 0.0
H1973 H 0.26563 0.82787 0.25644 0.0
H1974 H 0.27992 0.8366 0.2782 0.0
H1975 H 0.27303 0.80889 0.26839 0.0
C1976 C 0.3389 0.86847 0.31468 0.0
C1977 C 0.32557 0.84752 0.3242 0.0
C1978 C 0.3382 0.86878 0.2957 0.0
C1979 C 0.32457 0.84806 0.28591 0.0
C1980 C 0.31211 0.82695 0.29548 0.0
H1981 H 0.3467 0.83799 0.17016 0.0
H1982 H 0.34788 0.83764 0.20341 0.0
C1983 C 0.31221 0.82675 0.31447 0.0
C1984 C 0.32375 0.84858 0.26573 0.0
H1985 H 0.28662 0.82987 0.22946 0.0
C1986 C 0.34488 0.86024 0.25611 0.0
C1987 C 0.30244 0.83824 0.25596 0.0
C1988 C 0.27901 0.82745 0.26531 0.0
C1989 C 0.34534 0.86168 0.23706 0.0
C1990 C 0.32408 0.85003 0.22726 0.0
C1991 C 0.30295 0.83855 0.2369 0.0
C1992 C 0.32321 0.84981 0.20706 0.0
C1993 C 0.36859 0.87631 0.2278 0.0
C1994 C 0.30808 0.85558 0.19798 0.0
C1995 C 0.3067 0.85483 0.17902 0.0
C1996 C 0.32081 0.84882 0.1688 0.0
C1997 C 0.33593 0.84304 0.1778 0.0
C1998 C 0.33677 0.84307 0.19679 0.0
H1999 H 0.38131 0.89014 0.23701 0.0
H2000 H 0.37593 0.86505 0.22404 0.0
H2001 H 0.36687 0.88477 0.21531 0.0
H2002 H 0.29737 0.86076 0.20556 0.0
H2003 H 0.29493 0.85939 0.17233 0.0
H2004 H 0.45652 0.2896 0.67279 0.0
H2005 H 0.45718 0.2926 0.70586 0.0
H2006 H 0.48728 0.36716 0.70186 0.0
H2007 H 0.48656 0.36445 0.66867 0.0
H2008 H 0.49782 0.31941 0.72746 0.0
H2009 H 0.43106 0.34624 0.73677 0.0
H2010 H 0.43369 0.33325 0.71595 0.0
H2011 H 0.45414 0.36324 0.72095 0.0
C2012 C 0.46315 0.30666 0.67887 0.0
C2013 C 0.47146 0.32679 0.66804 0.0
C2014 C 0.46352 0.30831 0.69777 0.0
C2015 C 0.47206 0.33005 0.7062 0.0
C2016 C 0.48028 0.35019 0.69553 0.0
H2017 H 0.48695 0.36559 0.82136 0.0
H2018 H 0.48803 0.36752 0.78814 0.0
C2019 C 0.47994 0.34859 0.67658 0.0
C2020 C 0.47314 0.33156 0.7262 0.0
H2021 H 0.45021 0.34405 0.76318 0.0
C2022 C 0.48746 0.32483 0.7353 0.0
C2023 C 0.45968 0.3388 0.73627 0.0
C2024 C 0.44361 0.34565 0.72706 0.0
C2025 C 0.48857 0.32498 0.75431 0.0
C2026 C 0.47469 0.33165 0.7644 0.0
C2027 C 0.46076 0.3389 0.75531 0.0
C2028 C 0.47381 0.33045 0.78442 0.0
C2029 C 0.50467 0.31809 0.76346 0.0
C2030 C 0.4651 0.30888 0.79319 0.0
C2031 C 0.46444 0.30766 0.81213 0.0
C2032 C 0.47239 0.32802 0.82262 0.0
C2033 C 0.48076 0.34958 0.81371 0.0
C2034 C 0.48139 0.35075 0.79475 0.0
H2035 H 0.51843 0.31949 0.75403 0.0
H2036 H 0.51317 0.32916 0.77556 0.0
H2037 H 0.49439 0.29969 0.76804 0.0
H2038 H 0.45877 0.29298 0.78538 0.0
H2039 H 0.45777 0.29076 0.81851 0.0
H2040 H 0.5115 0.8768 0.82256 0.0
H2041 H 0.5106 0.87759 0.78931 0.0
H2042 H 0.5398 0.83223 0.78689 0.0
H2043 H 0.54064 0.8311 0.82003 0.0
H2044 H 0.54814 0.89147 0.76401 0.0
H2045 H 0.47981 0.79857 0.75591 0.0
H2046 H 0.48534 0.81386 0.7773 0.0
H2047 H 0.50409 0.80315 0.76978 0.0
C2048 C 0.51777 0.867 0.81499 0.0
C2049 C 0.52601 0.85376 0.82401 0.0
C2050 C 0.51724 0.8675 0.796 0.0
C2051 C 0.52477 0.85467 0.78573 0.0
C2052 C 0.53349 0.84189 0.79462 0.0
H2053 H 0.53834 0.82955 0.67307 0.0
H2054 H 0.53834 0.83148 0.70621 0.0
C2055 C 0.53406 0.84138 0.81358 0.0
C2056 C 0.52365 0.85465 0.76566 0.0
H2057 H 0.49959 0.81878 0.72907 0.0
C2058 C 0.53741 0.87565 0.75633 0.0
C2059 C 0.50957 0.83395 0.75578 0.0
C2060 C 0.49368 0.81112 0.76517 0.0
C2061 C 0.53803 0.87636 0.73725 0.0
C2062 C 0.52424 0.85556 0.72737 0.0
C2063 C 0.5102 0.83465 0.73673 0.0
C2064 C 0.52451 0.85494 0.70729 0.0
C2065 C 0.55396 0.89914 0.72783 0.0
C2066 C 0.51653 0.86737 0.69696 0.0
C2067 C 0.51651 0.86635 0.67798 0.0
C2068 C 0.52437 0.85276 0.66901 0.0
C2069 C 0.53221 0.84023 0.67948 0.0
C2070 C 0.53222 0.84128 0.69843 0.0
H2071 H 0.56716 0.91214 0.73728 0.0
H2072 H 0.56316 0.89644 0.71627 0.0
H2073 H 0.54342 0.90654 0.72233 0.0
H2074 H 0.5101 0.87767 0.70359 0.0
H2075 H 0.51024 0.87613 0.67037 0.0
H2076 H 0.64435 0.49531 0.16923 0.0
H2077 H 0.64252 0.49593 0.20244 0.0
H2078 H 0.69455 0.56915 0.20238 0.0
H2079 H 0.69765 0.56798 0.16926 0.0
H2080 H 0.70484 0.54998 0.22698 0.0
H2081 H 0.61081 0.51787 0.23516 0.0
H2082 H 0.61486 0.49692 0.22273 0.0
H2083 H 0.62479 0.5255 0.21321 0.0
C2084 C 0.65527 0.5115 0.17639 0.0
C2085 C 0.67113 0.5316 0.16687 0.0
C2086 C 0.65404 0.51195 0.19532 0.0
C2087 C 0.66792 0.53274 0.20493 0.0
C2088 C 0.68358 0.55291 0.19529 0.0
H2089 H 0.64454 0.53814 0.32157 0.0
H2090 H 0.64484 0.54257 0.28844 0.0
C2091 C 0.68538 0.55226 0.17642 0.0
C2092 C 0.66734 0.53309 0.22509 0.0
H2093 H 0.63065 0.51459 0.26161 0.0
C2094 C 0.68859 0.54256 0.23452 0.0
C2095 C 0.64624 0.52391 0.23503 0.0
C2096 C 0.62295 0.51576 0.22597 0.0
C2097 C 0.68932 0.54248 0.25355 0.0
C2098 C 0.66813 0.53138 0.26342 0.0
C2099 C 0.6469 0.52264 0.25404 0.0
C2100 C 0.66761 0.52842 0.28341 0.0
C2101 C 0.71287 0.55467 0.26276 0.0
C2102 C 0.67984 0.51852 0.29155 0.0
C2103 C 0.68024 0.51666 0.3104 0.0
C2104 C 0.66761 0.52376 0.32139 0.0
C2105 C 0.65439 0.53255 0.31329 0.0
C2106 C 0.65457 0.53508 0.29442 0.0
H2107 H 0.72604 0.56905 0.25417 0.0
H2108 H 0.71209 0.56205 0.27612 0.0
H2109 H 0.71904 0.54204 0.26488 0.0
H2110 H 0.68921 0.51232 0.28333 0.0
H2111 H 0.69025 0.50947 0.31641 0.0
H2112 H 0.16567 0.71007 0.81846 0.0
H2113 H 0.16491 0.70796 0.78534 0.0
H2114 H 0.12435 0.63292 0.788 0.0
H2115 H 0.12473 0.63475 0.82123 0.0
H2116 H 0.182 0.68483 0.76346 0.0
H2117 H 0.08712 0.6504 0.75273 0.0
H2118 H 0.1015 0.66313 0.774 0.0
H2119 H 0.09437 0.63395 0.7682 0.0
C2120 C 0.15643 0.69308 0.81207 0.0
C2121 C 0.14518 0.67257 0.82256 0.0
C2122 C 0.15607 0.69193 0.79312 0.0
C2123 C 0.14437 0.67032 0.78427 0.0
C2124 C 0.13313 0.6498 0.79461 0.0
H2125 H 0.1275 0.63428 0.66938 0.0
H2126 H 0.12716 0.63311 0.7026 0.0
C2127 C 0.13346 0.65089 0.8136 0.0
C2128 C 0.14463 0.66938 0.7642 0.0
H2129 H 0.10969 0.65414 0.72667 0.0
C2130 C 0.16621 0.67813 0.75539 0.0
C2131 C 0.12396 0.66054 0.75379 0.0
C2132 C 0.10041 0.65163 0.7626 0.0
C2133 C 0.16769 0.67825 0.73637 0.0
C2134 C 0.14707 0.66973 0.72595 0.0
C2135 C 0.12544 0.66067 0.73475 0.0
C2136 C 0.14761 0.67054 0.70587 0.0
C2137 C 0.19126 0.68724 0.72758 0.0
C2138 C 0.15904 0.69201 0.69677 0.0
C2139 C 0.1593 0.6928 0.67779 0.0
C2140 C 0.148 0.67208 0.66756 0.0
C2141 C 0.13643 0.65058 0.67679 0.0
C2142 C 0.13618 0.64984 0.69578 0.0
H2143 H 0.20422 0.68736 0.73727 0.0
H2144 H 0.19006 0.67649 0.71559 0.0
H2145 H 0.19783 0.7054 0.72288 0.0
H2146 H 0.1676 0.7082 0.70436 0.0
H2147 H 0.16829 0.70966 0.67117 0.0
H2148 H 0.45367 0.16333 0.31797 0.0
H2149 H 0.45523 0.16241 0.28487 0.0
H2150 H 0.48506 0.11762 0.28795 0.0
H2151 H 0.48345 0.11819 0.32117 0.0
H2152 H 0.4969 0.17714 0.26406 0.0
H2153 H 0.42983 0.08436 0.25164 0.0
H2154 H 0.43171 0.09901 0.27283 0.0
H2155 H 0.45222 0.08952 0.26791 0.0
C2156 C 0.46041 0.1531 0.31167 0.0
C2157 C 0.46843 0.14081 0.32225 0.0
C2158 C 0.46129 0.15264 0.29276 0.0
C2159 C 0.47007 0.1398 0.28407 0.0
C2160 C 0.47791 0.12734 0.29448 0.0
H2161 H 0.48755 0.12431 0.16843 0.0
H2162 H 0.48807 0.12204 0.20159 0.0
C2163 C 0.47705 0.12778 0.31344 0.0
C2164 C 0.47185 0.14038 0.26409 0.0
H2165 H 0.44983 0.10703 0.226 0.0
C2166 C 0.48667 0.16183 0.25571 0.0
C2167 C 0.45857 0.12029 0.25336 0.0
C2168 C 0.44203 0.09698 0.26181 0.0
C2169 C 0.48843 0.16379 0.23675 0.0
C2170 C 0.47468 0.14384 0.22599 0.0
C2171 C 0.46028 0.12226 0.23437 0.0
C2172 C 0.47438 0.14524 0.206 0.0
C2173 C 0.50502 0.18715 0.22838 0.0
C2174 C 0.4662 0.1588 0.19763 0.0
C2175 C 0.46587 0.16018 0.17872 0.0
C2176 C 0.4736 0.14789 0.16786 0.0
C2177 C 0.48153 0.13407 0.17636 0.0
C2178 C 0.48184 0.13271 0.19529 0.0
H2179 H 0.51861 0.19884 0.23822 0.0
H2180 H 0.51374 0.18508 0.2162 0.0
H2181 H 0.49511 0.19578 0.22408 0.0
H2182 H 0.45997 0.16825 0.20573 0.0
H2183 H 0.45955 0.17089 0.17266 0.0
H2184 H 0.28734 0.4577 0.67081 0.0
H2185 H 0.28788 0.45851 0.70401 0.0
H2186 H 0.36303 0.4932 0.70353 0.0
H2187 H 0.3628 0.49278 0.67033 0.0
H2188 H 0.30689 0.43798 0.72667 0.0
H2189 H 0.34912 0.53359 0.738 0.0
H2190 H 0.33654 0.52015 0.71642 0.0
H2191 H 0.3647 0.52476 0.72298 0.0
C2192 C 0.30402 0.46569 0.67772 0.0
C2193 C 0.32504 0.47519 0.66787 0.0
C2194 C 0.30427 0.46611 0.69669 0.0
C2195 C 0.32549 0.47614 0.70615 0.0
C2196 C 0.34649 0.48577 0.69643 0.0
H2197 H 0.36145 0.48818 0.82056 0.0
H2198 H 0.36207 0.48859 0.78731 0.0
C2199 C 0.3463 0.48538 0.67745 0.0
C2200 C 0.32556 0.47554 0.72621 0.0
H2201 H 0.34383 0.51012 0.76395 0.0
C2202 C 0.31487 0.45373 0.73485 0.0
C2203 C 0.3361 0.49615 0.73674 0.0
C2204 C 0.3471 0.52001 0.72811 0.0
C2205 C 0.31464 0.45196 0.75385 0.0
C2206 C 0.32509 0.47257 0.76438 0.0
C2207 C 0.3359 0.49438 0.75575 0.0
C2208 C 0.3246 0.47185 0.78443 0.0
C2209 C 0.30356 0.4281 0.76248 0.0
C2210 C 0.3033 0.46245 0.79371 0.0
C2211 C 0.30283 0.46215 0.81268 0.0
C2212 C 0.3237 0.47138 0.8227 0.0
C2213 C 0.34504 0.48085 0.81329 0.0
C2214 C 0.34547 0.48115 0.79431 0.0
H2215 H 0.30161 0.41453 0.75262 0.0
H2216 H 0.31404 0.42796 0.77423 0.0
H2217 H 0.28593 0.42336 0.76752 0.0
H2218 H 0.28704 0.45556 0.78627 0.0
H2219 H 0.28609 0.45483 0.81945 0.0
H2220 H 0.83444 0.29504 0.17256 0.0
H2221 H 0.8376 0.297 0.20563 0.0
H2222 H 0.88166 0.37172 0.20284 0.0
H2223 H 0.87847 0.37009 0.16968 0.0
H2224 H 0.87899 0.31574 0.22721 0.0
H2225 H 0.8286 0.36146 0.2381 0.0
H2226 H 0.82781 0.34731 0.2169 0.0
H2227 H 0.85265 0.37504 0.22247 0.0
C2228 C 0.8448 0.31193 0.17892 0.0
C2229 C 0.85611 0.33243 0.16845 0.0
C2230 C 0.84661 0.31298 0.19782 0.0
C2231 C 0.85964 0.33451 0.20659 0.0
C2232 C 0.87123 0.35499 0.19626 0.0
H2233 H 0.87546 0.36381 0.32295 0.0
H2234 H 0.88012 0.36775 0.28994 0.0
C2235 C 0.86944 0.35398 0.17732 0.0
C2236 C 0.86102 0.33533 0.22659 0.0
H2237 H 0.84377 0.35297 0.26414 0.0
C2238 C 0.8714 0.32396 0.23532 0.0
C2239 C 0.85117 0.34618 0.23701 0.0
C2240 C 0.83926 0.35807 0.22822 0.0
C2241 C 0.87196 0.32292 0.25433 0.0
C2242 C 0.86153 0.33319 0.26474 0.0
C2243 C 0.85172 0.34512 0.25603 0.0
C2244 C 0.8595 0.33073 0.28467 0.0
C2245 C 0.88367 0.31083 0.2631 0.0
C2246 C 0.84617 0.3086 0.29251 0.0
C2247 C 0.84342 0.30624 0.31133 0.0
C2248 C 0.85388 0.32602 0.32263 0.0
C2249 C 0.86722 0.3482 0.31467 0.0
C2250 C 0.86992 0.35052 0.29583 0.0
H2251 H 0.89622 0.30971 0.2537 0.0
H2252 H 0.89307 0.32004 0.27567 0.0
H2253 H 0.87021 0.2928 0.26686 0.0
H2254 H 0.83761 0.29318 0.28404 0.0
H2255 H 0.83297 0.28891 0.31697 0.0
H2256 H 0.89438 0.28925 0.10702 0.0
H2257 H 0.93041 0.28844 0.10076 0.0
H2258 H 0.96454 0.36102 0.08546 0.0
H2259 H 0.92899 0.36204 0.09148 0.0
H2260 H 0.97394 0.32985 0.06205 0.0
H2261 H 0.98716 0.32373 0.1364 0.0
H2262 H 0.96056 0.30279 0.12528 0.0
H2263 H 0.96633 0.33199 0.12894 0.0
C2264 C 0.90952 0.30496 0.10215 0.0
C2265 C 0.90893 0.32583 0.1 0.0
C2266 C 0.93001 0.30441 0.09855 0.0
C2267 C 0.95002 0.32466 0.09268 0.0
C2268 C 0.94915 0.34516 0.08987 0.0
H2269 H 0.06922 0.42924 0.08584 0.0
H2270 H 0.0334 0.39326 0.07907 0.0
C2271 C 0.92887 0.34577 0.0935 0.0
C2272 C 0.97288 0.32606 0.0912 0.0
H2273 H 0.02054 0.34447 0.11831 0.0
C2274 C 0.98409 0.33207 0.07424 0.0
C2275 C 0.98595 0.32839 0.10705 0.0
C2276 C 0.97452 0.32137 0.1255 0.0
C2277 C 0.00846 0.34377 0.07311 0.0
C2278 C 0.02162 0.34977 0.08934 0.0
C2279 C 0.01034 0.34021 0.1059 0.0
C2280 C 0.04513 0.37056 0.09024 0.0
C2281 C 0.01991 0.35173 0.05477 0.0
C2282 C 0.06362 0.36981 0.0989 0.0
C2283 C 0.0842 0.39052 0.10292 0.0
C2284 C 0.08632 0.41225 0.09868 0.0
C2285 C 0.06806 0.41282 0.08944 0.0
C2286 C 0.0477 0.3922 0.08527 0.0
H2287 H 0.0097 0.33858 0.04417 0.0
H2288 H 0.02038 0.3682 0.05098 0.0
H2289 H 0.03803 0.35485 0.05487 0.0
H2290 H 0.06178 0.35329 0.10313 0.0
H2291 H 0.09802 0.38954 0.11004 0.0
H2292 H 0.57236 0.92574 0.58767 0.0
H2293 H 0.60918 0.96139 0.58274 0.0
H2294 H 0.64571 0.93226 0.61126 0.0
H2295 H 0.60854 0.89607 0.61628 0.0
H2296 H 0.65346 0.97434 0.62515 0.0
H2297 H 0.66711 0.9834 0.55128 0.0
H2298 H 0.6369 0.9728 0.55604 0.0
H2299 H 0.6498 0.95534 0.56218 0.0
C2300 C 0.58822 0.92671 0.5927 0.0
C2301 C 0.58753 0.90822 0.60254 0.0
C2302 C 0.60934 0.94698 0.58959 0.0
C2303 C 0.63025 0.94925 0.59626 0.0
C2304 C 0.6298 0.93062 0.60571 0.0
H2305 H 0.71191 0.10037 0.61078 0.0
H2306 H 0.71235 0.06378 0.60681 0.0
C2307 C 0.60857 0.91009 0.60865 0.0
C2308 C 0.6513 0.97258 0.59592 0.0
H2309 H 0.67431 0.01958 0.5677 0.0
C2310 C 0.65911 0.98424 0.61259 0.0
C2311 C 0.65906 0.98534 0.57953 0.0
C2312 C 0.65294 0.97343 0.56126 0.0
C2313 C 0.67095 0.00866 0.61333 0.0
C2314 C 0.67504 0.02134 0.59697 0.0
C2315 C 0.67073 0.00973 0.58024 0.0
C2316 C 0.67677 0.0444 0.59716 0.0
C2317 C 0.67608 0.02055 0.63162 0.0
C2318 C 0.65677 0.04554 0.59272 0.0
C2319 C 0.65634 0.06616 0.59506 0.0
C2320 C 0.676 0.08614 0.60185 0.0
C2321 C 0.69643 0.08523 0.60561 0.0
C2322 C 0.69678 0.06442 0.60333 0.0
H2323 H 0.67259 0.0082 0.64302 0.0
H2324 H 0.69464 0.03453 0.63226 0.0
H2325 H 0.66517 0.02879 0.63354 0.0
H2326 H 0.6411 0.03015 0.58804 0.0
H2327 H 0.64043 0.06628 0.59184 0.0
H2328 H 0.71335 0.61468 0.10958 0.0
H2329 H 0.7124 0.65108 0.10614 0.0
H2330 H 0.64114 0.61185 0.08757 0.0
H2331 H 0.64187 0.57568 0.09086 0.0
H2332 H 0.67287 0.65654 0.06781 0.0
H2333 H 0.67152 0.66395 0.14337 0.0
H2334 H 0.69418 0.66116 0.13207 0.0
H2335 H 0.66521 0.63653 0.13337 0.0
C2336 C 0.69759 0.61387 0.10452 0.0
C2337 C 0.67754 0.59226 0.10073 0.0
C2338 C 0.69714 0.63467 0.10255 0.0
C2339 C 0.67671 0.63404 0.09665 0.0
C2340 C 0.65713 0.61263 0.09206 0.0
H2341 H 0.5687 0.64193 0.08928 0.0
H2342 H 0.60645 0.64521 0.08412 0.0
C2343 C 0.6575 0.59195 0.0941 0.0
C2344 C 0.67401 0.65481 0.09703 0.0
H2345 H 0.65061 0.6774 0.12625 0.0
C2346 C 0.66898 0.6621 0.08058 0.0
C2347 C 0.66949 0.66248 0.11368 0.0
C2348 C 0.67538 0.65577 0.1317 0.0
C2349 C 0.65619 0.67372 0.08042 0.0
C2350 C 0.64807 0.67763 0.09707 0.0
C2351 C 0.65654 0.67397 0.11348 0.0
C2352 C 0.62622 0.67846 0.09783 0.0
C2353 C 0.64929 0.67938 0.06241 0.0
C2354 C 0.62475 0.69592 0.10752 0.0
C2355 C 0.60298 0.69401 0.11059 0.0
C2356 C 0.58245 0.67433 0.10437 0.0
C2357 C 0.58414 0.65718 0.0944 0.0
C2358 C 0.60578 0.65924 0.09116 0.0
H2359 H 0.66345 0.68448 0.05225 0.0
H2360 H 0.6336 0.66364 0.05716 0.0
H2361 H 0.64524 0.69369 0.06377 0.0
H2362 H 0.64031 0.71063 0.11309 0.0
H2363 H 0.60218 0.70751 0.11833 0.0
H2364 H 0.1015 0.70949 0.59527 0.0
H2365 H 0.06395 0.7083 0.59162 0.0
H2366 H 0.02796 0.63728 0.61092 0.0
H2367 H 0.06494 0.63811 0.61435 0.0
H2368 H 0.02254 0.66877 0.56927 0.0
H2369 H 0.00355 0.67696 0.64125 0.0
H2370 H 0.03292 0.68993 0.6323 0.0
H2371 H 0.01717 0.65952 0.63835 0.0
C2372 C 0.08554 0.69369 0.59883 0.0
C2373 C 0.08611 0.67384 0.60504 0.0
C2374 C 0.06422 0.69309 0.59675 0.0
C2375 C 0.0434 0.67283 0.60125 0.0
C2376 C 0.04399 0.65317 0.60761 0.0
H2377 H 0.92452 0.56768 0.58639 0.0
H2378 H 0.961 0.60388 0.58192 0.0
C2379 C 0.0651 0.65361 0.60943 0.0
C2380 C 0.02048 0.67081 0.5984 0.0
H2381 H 0.97026 0.6503 0.62256 0.0
C2382 C 0.01112 0.6657 0.58079 0.0
C2383 C 0.0058 0.66741 0.61338 0.0
C2384 C 0.01541 0.67398 0.63239 0.0
C2385 C 0.98691 0.6538 0.57816 0.0
C2386 C 0.97211 0.64673 0.59353 0.0
C2387 C 0.98162 0.65532 0.61077 0.0
C2388 C 0.94851 0.62604 0.59286 0.0
C2389 C 0.97742 0.64692 0.55914 0.0
C2390 C 0.92934 0.62642 0.6006 0.0
C2391 C 0.90837 0.60557 0.60333 0.0
C2392 C 0.90649 0.58406 0.59867 0.0
C2393 C 0.92545 0.58391 0.59027 0.0
C2394 C 0.94623 0.60468 0.58742 0.0
H2395 H 0.9886 0.66074 0.54927 0.0
H2396 H 0.97753 0.63078 0.55521 0.0
H2397 H 0.95928 0.64364 0.55813 0.0
H2398 H 0.9309 0.64269 0.60517 0.0
H2399 H 0.89403 0.60625 0.60981 0.0
H2400 H 0.42703 0.07573 0.08667 0.0
H2401 H 0.39101 0.03902 0.08273 0.0
H2402 H 0.353 0.0666 0.11113 0.0
H2403 H 0.3894 0.10381 0.11525 0.0
H2404 H 0.34727 0.02626 0.12597 0.0
H2405 H 0.33223 0.01286 0.05242 0.0
H2406 H 0.36261 0.02409 0.05685 0.0
H2407 H 0.3495 0.04159 0.06227 0.0
C2408 C 0.411 0.0742 0.09185 0.0
C2409 C 0.41109 0.09256 0.10146 0.0
C2410 C 0.39031 0.05329 0.0893 0.0
C2411 C 0.36923 0.05025 0.09628 0.0
C2412 C 0.36904 0.06879 0.10537 0.0
H2413 H 0.28353 0.89811 0.11058 0.0
H2414 H 0.28601 0.93611 0.10665 0.0
C2415 C 0.38983 0.08993 0.10778 0.0
C2416 C 0.34886 0.02645 0.09668 0.0
H2417 H 0.32598 0.97785 0.07014 0.0
C2418 C 0.34155 0.01569 0.11374 0.0
C2419 C 0.34109 0.01274 0.08074 0.0
C2420 C 0.34661 0.02355 0.06205 0.0
C2421 C 0.3299 0.99135 0.11531 0.0
C2422 C 0.32556 0.9778 0.09944 0.0
C2423 C 0.32972 0.98842 0.0823 0.0
C2424 C 0.32289 0.95442 0.10058 0.0
C2425 C 0.32496 0.98039 0.13395 0.0
C2426 C 0.34282 0.95238 0.09836 0.0
C2427 C 0.34159 0.93094 0.10072 0.0
C2428 C 0.32032 0.91108 0.10525 0.0
C2429 C 0.3002 0.9131 0.1071 0.0
C2430 C 0.3015 0.93471 0.10483 0.0
H2431 H 0.32733 0.99305 0.14482 0.0
H2432 H 0.30683 0.96549 0.13457 0.0
H2433 H 0.33692 0.97352 0.13668 0.0
H2434 H 0.3595 0.96756 0.09516 0.0
H2435 H 0.35737 0.93002 0.09906 0.0
H2436 H 0.38895 0.28296 0.61231 0.0
H2437 H 0.35183 0.28235 0.60878 0.0
H2438 H 0.38816 0.3506 0.58413 0.0
H2439 H 0.425 0.35132 0.58747 0.0
H2440 H 0.34429 0.31362 0.62646 0.0
H2441 H 0.32941 0.32011 0.55384 0.0
H2442 H 0.34744 0.30849 0.56183 0.0
H2443 H 0.35967 0.33947 0.55855 0.0
C2444 C 0.38891 0.29759 0.60573 0.0
C2445 C 0.40994 0.31736 0.60039 0.0
C2446 C 0.36768 0.29711 0.60364 0.0
C2447 C 0.36716 0.3162 0.59587 0.0
C2448 C 0.388 0.33536 0.58967 0.0
H2449 H 0.35575 0.41989 0.62123 0.0
H2450 H 0.3553 0.38301 0.61878 0.0
C2451 C 0.40916 0.33594 0.59188 0.0
C2452 C 0.34629 0.31873 0.59738 0.0
H2453 H 0.32292 0.34677 0.57435 0.0
C2454 C 0.33866 0.31984 0.61496 0.0
C2455 C 0.33829 0.32618 0.5824 0.0
C2456 C 0.34397 0.3232 0.56309 0.0
C2457 C 0.32675 0.332 0.61819 0.0
C2458 C 0.3227 0.34325 0.60351 0.0
C2459 C 0.32663 0.3386 0.58566 0.0
C2460 C 0.32092 0.36428 0.60663 0.0
C2461 C 0.321 0.33497 0.63749 0.0
C2462 C 0.30183 0.36596 0.60037 0.0
C2463 C 0.302 0.38712 0.60183 0.0
C2464 C 0.32155 0.40691 0.60914 0.0
C2465 C 0.34052 0.405 0.61545 0.0
C2466 C 0.34017 0.38387 0.61425 0.0
H2467 H 0.31717 0.31948 0.64586 0.0
H2468 H 0.33625 0.35036 0.64362 0.0
H2469 H 0.3058 0.33777 0.63799 0.0
H2470 H 0.28703 0.35107 0.59417 0.0
H2471 H 0.28718 0.38816 0.59677 0.0
H2472 H 0.60768 0.89679 0.87937 0.0
H2473 H 0.64403 0.93379 0.88422 0.0
H2474 H 0.60531 0.96157 0.91126 0.0
H2475 H 0.56924 0.92502 0.90652 0.0
H2476 H 0.65039 0.97466 0.86923 0.0
H2477 H 0.66316 0.9865 0.94311 0.0
H2478 H 0.64628 0.95802 0.93278 0.0
H2479 H 0.63297 0.9754 0.93791 0.0
C2480 C 0.60704 0.91066 0.88669 0.0
C2481 C 0.58559 0.90813 0.8924 0.0
C2482 C 0.62781 0.93169 0.88952 0.0
C2483 C 0.62742 0.95022 0.89843 0.0
C2484 C 0.60613 0.94728 0.90481 0.0
H2485 H 0.63952 0.06975 0.89968 0.0
H2486 H 0.6389 0.03313 0.90443 0.0
C2487 C 0.58544 0.92648 0.90183 0.0
C2488 C 0.64797 0.97393 0.89846 0.0
H2489 H 0.67078 0.02196 0.9256 0.0
C2490 C 0.65587 0.98501 0.88158 0.0
C2491 C 0.65546 0.98728 0.91458 0.0
C2492 C 0.64919 0.97606 0.93311 0.0
C2493 C 0.6678 0.0094 0.88029 0.0
C2494 C 0.67192 0.02269 0.89631 0.0
C2495 C 0.66724 0.01164 0.91332 0.0
C2496 C 0.67441 0.04606 0.89541 0.0
C2497 C 0.67319 0.02063 0.86173 0.0
C2498 C 0.69475 0.06554 0.88898 0.0
C2499 C 0.69516 0.08665 0.88616 0.0
C2500 C 0.67514 0.08841 0.88963 0.0
C2501 C 0.65514 0.06898 0.89666 0.0
C2502 C 0.65481 0.04807 0.89954 0.0
H2503 H 0.66934 0.00779 0.85065 0.0
H2504 H 0.66272 0.02929 0.85942 0.0
H2505 H 0.69189 0.0342 0.86095 0.0
H2506 H 0.71003 0.06424 0.88575 0.0
H2507 H 0.71088 0.10136 0.88081 0.0
H2508 H 0.57159 0.64179 0.40516 0.0
H2509 H 0.60808 0.64201 0.40955 0.0
H2510 H 0.64538 0.70806 0.38169 0.0
H2511 H 0.60859 0.70804 0.37726 0.0
H2512 H 0.6519 0.67314 0.36701 0.0
H2513 H 0.66664 0.67686 0.44077 0.0
H2514 H 0.63631 0.65768 0.43607 0.0
H2515 H 0.64957 0.68816 0.43026 0.0
C2516 C 0.58756 0.65655 0.40018 0.0
C2517 C 0.58719 0.67476 0.3907 0.0
C2518 C 0.60849 0.65686 0.40297 0.0
C2519 C 0.6295 0.67532 0.3963 0.0
C2520 C 0.62938 0.69389 0.38723 0.0
H2521 H 0.71008 0.60525 0.37835 0.0
H2522 H 0.71078 0.6423 0.38301 0.0
C2523 C 0.60837 0.69376 0.38463 0.0
C2524 C 0.65029 0.67257 0.39627 0.0
H2525 H 0.67376 0.64834 0.42379 0.0
C2526 C 0.65774 0.66875 0.37942 0.0
C2527 C 0.65826 0.66738 0.41246 0.0
C2528 C 0.65244 0.67302 0.4309 0.0
C2529 C 0.66951 0.65612 0.37831 0.0
C2530 C 0.67397 0.64748 0.3945 0.0
C2531 C 0.66994 0.65467 0.41139 0.0
C2532 C 0.67585 0.62622 0.39404 0.0
C2533 C 0.67425 0.64945 0.35983 0.0
C2534 C 0.6562 0.60512 0.39911 0.0
C2535 C 0.65565 0.58407 0.39642 0.0
C2536 C 0.67481 0.58368 0.3886 0.0
C2537 C 0.69497 0.60496 0.38428 0.0
C2538 C 0.69545 0.62614 0.38695 0.0
H2539 H 0.67001 0.65795 0.3486 0.0
H2540 H 0.69292 0.65455 0.35875 0.0
H2541 H 0.66372 0.63025 0.35803 0.0
H2542 H 0.64084 0.60487 0.40452 0.0
H2543 H 0.63997 0.56808 0.40011 0.0
H2544 H 0.92576 0.57233 0.90383 0.0
H2545 H 0.96192 0.60877 0.9086 0.0
H2546 H 0.9336 0.6463 0.88046 0.0
H2547 H 0.89694 0.60955 0.87561 0.0
H2548 H 0.97519 0.65307 0.86618 0.0
H2549 H 0.98521 0.66691 0.94005 0.0
H2550 H 0.97433 0.63667 0.93521 0.0
H2551 H 0.957 0.64982 0.92933 0.0
C2552 C 0.92702 0.58834 0.89888 0.0
C2553 C 0.90862 0.58805 0.88918 0.0
C2554 C 0.94758 0.60924 0.90188 0.0
C2555 C 0.95024 0.63031 0.89524 0.0
C2556 C 0.93169 0.63026 0.88598 0.0
H2557 H 0.10154 0.71335 0.87967 0.0
H2558 H 0.06447 0.71283 0.88378 0.0
C2559 C 0.91087 0.60927 0.88314 0.0
C2560 C 0.97377 0.65109 0.89542 0.0
H2561 H 0.02114 0.67434 0.9233 0.0
C2562 C 0.98524 0.65878 0.87867 0.0
C2563 C 0.98673 0.65886 0.91172 0.0
C2564 C 0.97505 0.6528 0.93008 0.0
C2565 C 0.00966 0.6707 0.87775 0.0
C2566 C 0.02257 0.67502 0.89402 0.0
C2567 C 0.01112 0.67063 0.91083 0.0
C2568 C 0.04588 0.67732 0.89366 0.0
C2569 C 0.02134 0.6758 0.85937 0.0
C2570 C 0.04763 0.65769 0.89819 0.0
C2571 C 0.06853 0.65782 0.89577 0.0
C2572 C 0.08818 0.67767 0.88882 0.0
C2573 C 0.08666 0.69773 0.88497 0.0
C2574 C 0.06557 0.69753 0.88732 0.0
H2575 H 0.00879 0.6719 0.84805 0.0
H2576 H 0.03503 0.69445 0.85856 0.0
H2577 H 0.02993 0.6652 0.85748 0.0
H2578 H 0.03251 0.64188 0.903 0.0
H2579 H 0.06912 0.64217 0.89907 0.0
H2580 H 0.28469 0.89369 0.3775 0.0
H2581 H 0.28337 0.92992 0.38126 0.0
H2582 H 0.35464 0.96495 0.40005 0.0
H2583 H 0.3562 0.92933 0.39646 0.0
H2584 H 0.31971 0.97309 0.421 0.0
H2585 H 0.32312 0.98772 0.34608 0.0
H2586 H 0.30173 0.96049 0.35621 0.0
H2587 H 0.33165 0.96764 0.35487 0.0
C2588 C 0.30001 0.9091 0.38256 0.0
C2589 C 0.32066 0.9087 0.38649 0.0
C2590 C 0.29916 0.92968 0.38472 0.0
C2591 C 0.31887 0.94994 0.39097 0.0
C2592 C 0.33918 0.94936 0.39534 0.0
H2593 H 0.42233 0.06884 0.40385 0.0
H2594 H 0.38565 0.03261 0.40784 0.0
C2595 C 0.34011 0.92901 0.39311 0.0
C2596 C 0.31994 0.97268 0.3917 0.0
H2597 H 0.34247 0.02093 0.36484 0.0
C2598 C 0.32366 0.98352 0.40873 0.0
C2599 C 0.32457 0.9861 0.3757 0.0
C2600 C 0.32003 0.97502 0.35711 0.0
C2601 C 0.33537 0.00786 0.41013 0.0
C2602 C 0.34368 0.02136 0.39413 0.0
C2603 C 0.33641 0.01047 0.37712 0.0
C2604 C 0.36453 0.04484 0.39453 0.0
C2605 C 0.34092 0.01891 0.42873 0.0
C2606 C 0.36487 0.06371 0.3856 0.0
C2607 C 0.38596 0.08454 0.38323 0.0
C2608 C 0.40703 0.08653 0.38941 0.0
C2609 C 0.40645 0.0678 0.39882 0.0
C2610 C 0.38541 0.04719 0.40136 0.0
H2611 H 0.32654 0.0084 0.4384 0.0
H2612 H 0.35692 0.01947 0.43399 0.0
H2613 H 0.34391 0.03697 0.4283 0.0
H2614 H 0.34898 0.06205 0.37995 0.0
H2615 H 0.38589 0.0987 0.3759 0.0
H2616 H 0.28517 0.38827 0.87706 0.0
H2617 H 0.28509 0.35152 0.88199 0.0
H2618 H 0.35199 0.38943 0.90859 0.0
H2619 H 0.35227 0.42585 0.90371 0.0
H2620 H 0.31952 0.34433 0.86701 0.0
H2621 H 0.31791 0.33192 0.94097 0.0
H2622 H 0.30629 0.34865 0.93035 0.0
H2623 H 0.33693 0.3621 0.9357 0.0
C2624 C 0.29963 0.38863 0.88426 0.0
C2625 C 0.31887 0.40993 0.88983 0.0
C2626 C 0.29946 0.36765 0.88715 0.0
C2627 C 0.31826 0.36772 0.89601 0.0
C2628 C 0.33698 0.38889 0.90218 0.0
H2629 H 0.42588 0.3582 0.89835 0.0
H2630 H 0.38915 0.35754 0.90262 0.0
C2631 C 0.33731 0.40977 0.89911 0.0
C2632 C 0.32093 0.34688 0.89623 0.0
H2633 H 0.34622 0.32457 0.92381 0.0
C2634 C 0.32429 0.33893 0.87945 0.0
C2635 C 0.32663 0.33947 0.91247 0.0
C2636 C 0.32147 0.34582 0.93089 0.0
C2637 C 0.33699 0.32722 0.87838 0.0
C2638 C 0.3462 0.32341 0.89452 0.0
C2639 C 0.33945 0.32791 0.91143 0.0
C2640 C 0.36757 0.32176 0.89385 0.0
C2641 C 0.34316 0.32189 0.85993 0.0
C2642 C 0.36749 0.30171 0.88767 0.0
C2643 C 0.38862 0.30205 0.88512 0.0
C2644 C 0.41001 0.32251 0.8886 0.0
C2645 C 0.4098 0.34225 0.89534 0.0
C2646 C 0.3888 0.34184 0.89795 0.0
H2647 H 0.33385 0.32516 0.84875 0.0
H2648 H 0.36223 0.33286 0.85761 0.0
H2649 H 0.33868 0.30336 0.85934 0.0
H2650 H 0.35122 0.28607 0.88446 0.0
H2651 H 0.38819 0.2865 0.88 0.0
H2652 H 0.89228 0.28242 0.37743 0.0
H2653 H 0.92889 0.28229 0.38235 0.0
H2654 H 0.9573 0.3483 0.41021 0.0
H2655 H 0.92113 0.34856 0.40546 0.0
H2656 H 0.96975 0.31614 0.36767 0.0
H2657 H 0.9819 0.31487 0.44143 0.0
H2658 H 0.95338 0.30379 0.43125 0.0
H2659 H 0.97124 0.33439 0.43654 0.0
C2660 C 0.90619 0.29664 0.38496 0.0
C2661 C 0.90396 0.31566 0.39088 0.0
C2662 C 0.92699 0.29644 0.38782 0.0
C2663 C 0.9456 0.31501 0.39697 0.0
C2664 C 0.94294 0.33343 0.40359 0.0
H2665 H 0.06493 0.42207 0.39683 0.0
H2666 H 0.02794 0.38623 0.40102 0.0
C2667 C 0.92235 0.33376 0.40059 0.0
C2668 C 0.96919 0.31786 0.39691 0.0
H2669 H 0.0174 0.34302 0.42389 0.0
C2670 C 0.98015 0.32095 0.37999 0.0
C2671 C 0.98264 0.32366 0.41299 0.0
C2672 C 0.97154 0.31871 0.43157 0.0
C2673 C 0.00453 0.33331 0.37863 0.0
C2674 C 0.01791 0.34253 0.39459 0.0
C2675 C 0.007 0.33622 0.41164 0.0
C2676 C 0.04122 0.3634 0.39359 0.0
C2677 C 0.01571 0.33909 0.36005 0.0
C2678 C 0.06091 0.36229 0.38811 0.0
C2679 C 0.08222 0.38288 0.38564 0.0
C2680 C 0.08397 0.40476 0.38849 0.0
C2681 C 0.0642 0.40559 0.39434 0.0
C2682 C 0.04308 0.38511 0.3969 0.0
H2683 H 0.00296 0.32944 0.34906 0.0
H2684 H 0.0236 0.35808 0.35747 0.0
H2685 H 0.0299 0.33479 0.35947 0.0
H2686 H 0.05968 0.34562 0.38547 0.0
H2687 H 0.09717 0.38166 0.38118 0.0
H2688 H 0.28982 0.47628 0.95528 0.0
H2689 H 0.26439 0.45928 0.98135 0.0
H2690 H 0.21355 0.40368 0.94768 0.0
H2691 H 0.239 0.42088 0.92116 0.0
H2692 H 0.19483 0.42532 0.96645 0.0
H2693 H 0.24515 0.40395 0.01428 0.0
H2694 H 0.26385 0.43256 0.00534 0.0
H2695 H 0.2516 0.40777 0.99021 0.0
C2696 C 0.27339 0.46026 0.95337 0.0
C2697 C 0.26634 0.45008 0.93608 0.0
C2698 C 0.25899 0.45033 0.96839 0.0
C2699 C 0.23729 0.42993 0.96653 0.0
C2700 C 0.2304 0.41925 0.94942 0.0
H2701 H 0.17379 0.42192 0.07267 0.0
H2702 H 0.18067 0.40425 0.04584 0.0
C2703 C 0.24492 0.42916 0.9343 0.0
C2704 C 0.22086 0.42232 0.982 0.0
H2705 H 0.22211 0.42025 0.02823 0.0
C2706 C 0.2003 0.42331 0.97992 0.0
C2707 C 0.22753 0.41899 -0.00049 0.0
C2708 C 0.24812 0.41548 0.0024 0.0
C2709 C 0.18811 0.42434 0.99512 0.0
C2710 C 0.19705 0.42483 0.01268 0.0
C2711 C 0.21563 0.42052 0.01473 0.0
C2712 C 0.19044 0.43409 0.02845 0.0
C2713 C 0.16674 0.42655 0.99222 0.0
C2714 C 0.19398 0.4568 0.02758 0.0
C2715 C 0.19027 0.467 0.04281 0.0
C2716 C 0.18308 0.45474 0.05933 0.0
C2717 C 0.17934 0.43186 0.06015 0.0
C2718 C 0.18314 0.42167 0.04485 0.0
H2719 H 0.15716 0.41694 0.97982 0.0
H2720 H 0.15475 0.41981 0.00407 0.0
H2721 H 0.17215 0.4452 0.9902 0.0
H2722 H 0.20031 0.46697 0.01521 0.0
H2723 H 0.19332 0.48462 0.04164 0.0
H2724 H 0.82179 0.2392 0.41825 0.0
H2725 H 0.81604 0.21339 0.44408 0.0
H2726 H 0.79023 0.25017 0.47624 0.0
H2727 H 0.79605 0.27602 0.45087 0.0
H2728 H 0.82371 0.2402 0.49423 0.0
H2729 H 0.74938 0.16279 0.46125 0.0
H2730 H 0.77716 0.17867 0.44991 0.0
H2731 H 0.75918 0.19167 0.45245 0.0
C2732 C 0.81495 0.24182 0.43086 0.0
C2733 C 0.80919 0.25958 0.43244 0.0
C2734 C 0.81174 0.22709 0.44556 0.0
C2735 C 0.80273 0.22994 0.46198 0.0
C2736 C 0.79739 0.24785 0.46367 0.0
H2737 H 0.7124 0.18935 0.53698 0.0
H2738 H 0.73761 0.19518 0.51121 0.0
C2739 C 0.80058 0.26252 0.44909 0.0
C2740 C 0.79711 0.21372 0.47737 0.0
H2741 H 0.75006 0.1642 0.49311 0.0
C2742 C 0.80816 0.22309 0.49403 0.0
C2743 C 0.77705 0.19133 0.47687 0.0
C2744 C 0.76489 0.18035 0.45921 0.0
C2745 C 0.79771 0.21219 0.51048 0.0
C2746 C 0.77588 0.19137 0.51002 0.0
C2747 C 0.76672 0.1803 0.49331 0.0
C2748 C 0.75968 0.18493 0.52551 0.0
C2749 C 0.80853 0.22448 0.52813 0.0
C2750 C 0.76365 0.17701 0.54207 0.0
C2751 C 0.74928 0.17384 0.55704 0.0
C2752 C 0.7308 0.17856 0.55556 0.0
C2753 C 0.72655 0.18574 0.53871 0.0
C2754 C 0.74084 0.18889 0.52388 0.0
H2755 H 0.8255 0.24072 0.52603 0.0
H2756 H 0.79652 0.22901 0.53525 0.0
H2757 H 0.81143 0.21272 0.53715 0.0
H2758 H 0.77805 0.17374 0.54351 0.0
H2759 H 0.75289 0.16808 0.56979 0.0
H2760 H 0.51611 0.70378 0.03744 0.0
H2761 H 0.53523 0.73019 0.01225 0.0
H2762 H 0.59151 0.77656 0.04758 0.0
H2763 H 0.57217 0.75015 0.07323 0.0
H2764 H 0.57398 0.79916 0.02889 0.0
H2765 H 0.59065 0.74624 0.98033 0.0
H2766 H 0.56138 0.72912 0.98854 0.0
H2767 H 0.58549 0.73886 0.00421 0.0
C2768 C 0.53268 0.71943 0.03991 0.0
C2769 C 0.54249 0.72491 0.05742 0.0
C2770 C 0.54381 0.73438 0.02538 0.0
C2771 C 0.5651 0.75507 0.02793 0.0
C2772 C 0.57527 0.76048 0.04529 0.0
H2773 H 0.57727 0.82049 0.92235 0.0
H2774 H 0.59508 0.81319 0.94896 0.0
C2775 C 0.56413 0.74543 0.05992 0.0
C2776 C 0.57449 0.77212 0.01287 0.0
H2777 H 0.57743 0.77214 0.96665 0.0
C2778 C 0.57565 0.79369 0.01534 0.0
C2779 C 0.57754 0.76548 0.99526 0.0
C2780 C 0.57898 0.74375 0.99201 0.0
C2781 C 0.57626 0.80705 0.00035 0.0
C2782 C 0.57518 0.79828 0.98263 0.0
C2783 C 0.57759 0.77856 0.98026 0.0
C2784 C 0.56651 0.80597 0.9671 0.0
C2785 C 0.57627 0.82954 0.00364 0.0
C2786 C 0.54451 0.80415 0.96848 0.0
C2787 C 0.53426 0.80809 0.9534 0.0
C2788 C 0.54569 0.81378 0.9365 0.0
C2789 C 0.568 0.81612 0.93518 0.0
C2790 C 0.57825 0.81206 0.95036 0.0
H2791 H 0.58665 0.83849 0.01594 0.0
H2792 H 0.58349 0.84154 0.99183 0.0
H2793 H 0.55812 0.82564 0.00609 0.0
H2794 H 0.53478 0.79874 0.98111 0.0
H2795 H 0.51713 0.80621 0.95497 0.0
H2796 H 0.82287 0.57779 0.56963 0.0
H2797 H 0.8162 0.59649 0.5433 0.0
H2798 H 0.79254 0.53336 0.51221 0.0
H2799 H 0.79931 0.5147 0.53807 0.0
H2800 H 0.82388 0.57638 0.49328 0.0
H2801 H 0.74865 0.57722 0.52681 0.0
H2802 H 0.77679 0.5908 0.53771 0.0
H2803 H 0.76007 0.55963 0.53591 0.0
C2804 C 0.81637 0.56794 0.55714 0.0
C2805 C 0.81137 0.54463 0.55602 0.0
C2806 C 0.81262 0.57869 0.54214 0.0
C2807 C 0.80384 0.56625 0.52591 0.0
C2808 C 0.79948 0.54328 0.52464 0.0
H2809 H 0.71178 0.51431 0.45054 0.0
H2810 H 0.73735 0.5332 0.47628 0.0
C2811 C 0.80319 0.53257 0.5395 0.0
C2812 C 0.79725 0.57582 0.51038 0.0
H2813 H 0.74905 0.57646 0.49498 0.0
C2814 C 0.80803 0.57741 0.4936 0.0
C2815 C 0.77674 0.5774 0.51102 0.0
C2816 C 0.76475 0.57619 0.52877 0.0
C2817 C 0.79709 0.57724 0.47724 0.0
C2818 C 0.77503 0.57571 0.47788 0.0
C2819 C 0.76591 0.57746 0.49465 0.0
C2820 C 0.75879 0.566 0.46241 0.0
C2821 C 0.80778 0.57586 0.45949 0.0
C2822 C 0.76233 0.57831 0.44612 0.0
C2823 C 0.74775 0.56743 0.4312 0.0
C2824 C 0.72948 0.54411 0.43244 0.0
C2825 C 0.72573 0.53218 0.44901 0.0
C2826 C 0.74024 0.54302 0.46381 0.0
H2827 H 0.82495 0.57696 0.46144 0.0
H2828 H 0.79589 0.55921 0.45248 0.0
H2829 H 0.81026 0.59035 0.45044 0.0
H2830 H 0.77652 0.59612 0.44487 0.0
H2831 H 0.751 0.57718 0.41866 0.0
H2832 H 0.16454 0.75206 0.92131 0.0
H2833 H 0.16867 0.7768 0.94749 0.0
H2834 H 0.20278 0.74628 0.97752 0.0
H2835 H 0.19845 0.72139 0.95182 0.0
H2836 H 0.16809 0.7504 -0.00254 0.0
H2837 H 0.23155 0.83336 0.96309 0.0
H2838 H 0.20343 0.81478 0.95296 0.0
H2839 H 0.22468 0.80552 0.95357 0.0
C2840 C 0.1729 0.75061 0.93351 0.0
C2841 C 0.18132 0.73483 0.93442 0.0
C2842 C 0.17522 0.76476 0.94843 0.0
C2843 C 0.18609 0.7634 0.96437 0.0
C2844 C 0.19418 0.74747 0.96535 0.0
H2845 H 0.28153 0.81946 0.03572 0.0
H2846 H 0.25462 0.81141 0.01083 0.0
C2847 C 0.1918 0.73332 0.95058 0.0
C2848 C 0.19046 0.77902 0.98004 0.0
H2849 H 0.23207 0.83263 0.99486 0.0
C2850 C 0.18149 0.76866 -0.00302 0.0
C2851 C 0.2076 0.80289 0.97919 0.0
C2852 C 0.2175 0.81495 0.96128 0.0
C2853 C 0.19162 0.78052 0.01321 0.0
C2854 C 0.21089 0.80348 0.01231 0.0
C2855 C 0.21744 0.81494 0.99543 0.0
C2856 C 0.22816 0.81279 0.02724 0.0
C2857 C 0.18352 0.7674 0.03096 0.0
C2858 C 0.22258 0.81703 0.04473 0.0
C2859 C 0.23798 0.82135 0.05923 0.0
C2860 C 0.25913 0.82157 0.05634 0.0
C2861 C 0.26525 0.81901 0.03854 0.0
C2862 C 0.24993 0.81462 0.0242 0.0
H2863 H 0.16901 0.74923 0.02906 0.0
H2864 H 0.19819 0.76681 0.03777 0.0
H2865 H 0.17737 0.77651 0.04015 0.0
H2866 H 0.20602 0.81607 0.04729 0.0
H2867 H 0.23289 0.82355 0.07275 0.0
H2868 H 0.41692 0.24313 0.57088 0.0
H2869 H 0.39721 0.21778 0.54478 0.0
H2870 H 0.46044 0.25462 0.51333 0.0
H2871 H 0.48012 0.28005 0.53899 0.0
H2872 H 0.41782 0.24508 0.4947 0.0
H2873 H 0.41282 0.16697 0.52809 0.0
H2874 H 0.40067 0.1828 0.53912 0.0
H2875 H 0.43171 0.19577 0.5371 0.0
C2876 C 0.4266 0.24587 0.55837 0.0
C2877 C 0.4502 0.26351 0.55708 0.0
C2878 C 0.41527 0.2314 0.54351 0.0
C2879 C 0.42742 0.23437 0.52722 0.0
C2880 C 0.45074 0.2522 0.5258 0.0
H2881 H 0.47571 0.1912 0.45219 0.0
H2882 H 0.4571 0.19824 0.47791 0.0
C2883 C 0.46202 0.26663 0.54054 0.0
C2884 C 0.41702 0.21827 0.51174 0.0
H2885 H 0.41332 0.16808 0.49626 0.0
C2886 C 0.41582 0.22779 0.495 0.0
C2887 C 0.41415 0.19566 0.51235 0.0
C2888 C 0.41487 0.18454 0.53008 0.0
C2889 C 0.41518 0.21668 0.47862 0.0
C2890 C 0.4155 0.19551 0.47921 0.0
C2891 C 0.41326 0.18444 0.49597 0.0
C2892 C 0.4248 0.18848 0.46377 0.0
C2893 C 0.4171 0.22902 0.46089 0.0
C2894 C 0.41265 0.18045 0.44732 0.0
C2895 C 0.42339 0.17655 0.4324 0.0
C2896 C 0.4464 0.18069 0.4338 0.0
C2897 C 0.45809 0.18804 0.45053 0.0
C2898 C 0.4474 0.19188 0.46532 0.0
H2899 H 0.41685 0.24553 0.46288 0.0
H2900 H 0.43355 0.23307 0.45385 0.0
H2901 H 0.40236 0.21748 0.45185 0.0
H2902 H 0.39513 0.17763 0.44595 0.0
H2903 H 0.41383 0.17071 0.41973 0.0
H2904 H 0.71529 0.52862 0.03647 0.0
H2905 H 0.74227 0.54695 0.01145 0.0
H2906 H 0.78781 0.60444 0.04614 0.0
H2907 H 0.76083 0.58589 0.07168 0.0
H2908 H 0.76171 0.59189 0.99469 0.0
H2909 H 0.82835 0.57671 0.02878 0.0
H2910 H 0.79881 0.56283 0.03718 0.0
H2911 H 0.81762 0.59367 0.04 0.0
C2912 C 0.73094 0.54522 0.03887 0.0
C2913 C 0.73607 0.55558 0.05618 0.0
C2914 C 0.74626 0.5558 0.02447 0.0
C2915 C 0.76706 0.57697 0.02699 0.0
C2916 C 0.7719 0.588 0.044 0.0
H2917 H 0.83149 0.58336 0.92081 0.0
H2918 H 0.82676 0.60333 0.94719 0.0
C2919 C 0.75647 0.57737 0.05854 0.0
C2920 C 0.78416 0.58554 0.01199 0.0
H2921 H 0.82878 0.57824 -0.00296 0.0
C2922 C 0.777 0.58989 0.99519 0.0
C2923 C 0.80421 0.58317 0.01285 0.0
C2924 C 0.81284 0.57883 0.03062 0.0
C2925 C 0.78732 0.58857 0.97892 0.0
C2926 C 0.80539 0.58311 0.97969 0.0
C2927 C 0.81472 0.58218 -0.0034 0.0
C2928 C 0.81034 0.57238 0.96399 0.0
C2929 C 0.77703 0.59023 0.96105 0.0
C2930 C 0.80299 0.54853 0.96488 0.0
C2931 C 0.80568 0.53713 0.95 0.0
C2932 C 0.81573 0.54934 0.93383 0.0
C2933 C 0.82346 0.5734 0.93303 0.0
C2934 C 0.82082 0.58487 0.94805 0.0
H2935 H 0.76249 0.59387 0.96291 0.0
H2936 H 0.79074 0.60441 0.95269 0.0
H2937 H 0.77039 0.57367 0.95335 0.0
H2938 H 0.79468 0.53856 0.97704 0.0
H2939 H 0.79956 0.51865 0.95116 0.0
H2940 H 0.17074 0.75612 0.57008 0.0
H2941 H 0.17736 0.78252 0.54451 0.0
H2942 H 0.19051 0.7381 0.50943 0.0
H2943 H 0.18352 0.71165 0.53448 0.0
H2944 H 0.21729 0.80699 0.52718 0.0
H2945 H 0.15258 0.75335 0.4759 0.0
H2946 H 0.14912 0.74492 0.49959 0.0
H2947 H 0.16529 0.73685 0.48432 0.0
C2948 C 0.17457 0.75175 0.55681 0.0
C2949 C 0.17678 0.73184 0.55437 0.0
C2950 C 0.17826 0.76682 0.54222 0.0
C2951 C 0.18393 0.76205 0.52495 0.0
C2952 C 0.18539 0.7418 0.52244 0.0
H2953 H 0.28885 0.81822 0.45818 0.0
H2954 H 0.26182 0.81115 0.48279 0.0
C2955 C 0.18173 0.72682 0.53692 0.0
C2956 C 0.19188 0.77947 0.51011 0.0
H2957 H 0.19272 0.78024 0.46384 0.0
C2958 C 0.21138 0.80153 0.51335 0.0
C2959 C 0.18374 0.77295 0.49209 0.0
C2960 C 0.16133 0.7508 0.48786 0.0
C2961 C 0.22494 0.81553 0.49889 0.0
C2962 C 0.21915 0.80687 0.48092 0.0
C2963 C 0.19768 0.78661 0.47764 0.0
C2964 C 0.23693 0.81525 0.46632 0.0
C2965 C 0.24628 0.83867 0.50309 0.0
C2966 C 0.23189 0.81963 0.44869 0.0
C2967 C 0.2473 0.82331 0.43436 0.0
C2968 C 0.26785 0.82243 0.43743 0.0
C2969 C 0.27319 0.81895 0.45525 0.0
C2970 C 0.25785 0.81526 0.46946 0.0
H2971 H 0.24277 0.8473 0.51464 0.0
H2972 H 0.26073 0.83575 0.50729 0.0
H2973 H 0.25198 0.85053 0.49115 0.0
H2974 H 0.21571 0.8194 0.44591 0.0
H2975 H 0.24268 0.82601 0.4208 0.0
H2976 H 0.47632 0.19732 0.0378 0.0
H2977 H 0.45633 0.20355 0.01266 0.0
H2978 H 0.39476 0.18027 0.04569 0.0
H2979 H 0.41487 0.17418 0.07135 0.0
H2980 H 0.4129 0.17226 0.99479 0.0
H2981 H 0.41243 0.24715 0.02921 0.0
H2982 H 0.43041 0.23593 0.03785 0.0
H2983 H 0.39928 0.21898 0.04002 0.0
C2984 C 0.45851 0.19339 0.03983 0.0
C2985 C 0.44733 0.18552 0.0567 0.0
C2986 C 0.44703 0.1968 0.02536 0.0
C2987 C 0.42412 0.19241 0.02736 0.0
C2988 C 0.41251 0.18388 0.04396 0.0
H2989 H 0.41425 0.24589 0.92051 0.0
H2990 H 0.39433 0.22027 0.94647 0.0
C2991 C 0.42405 0.18046 0.05856 0.0
C2992 C 0.41382 0.19881 0.01219 0.0
H2993 H 0.41306 0.24714 -0.00262 0.0
C2994 C 0.4119 0.18811 0.99531 0.0
C2995 C 0.41221 0.21927 0.01309 0.0
C2996 C 0.41366 0.23113 0.03096 0.0
C2997 C 0.412 0.19924 0.97907 0.0
C2998 C 0.4137 0.22137 0.97995 0.0
C2999 C 0.412 0.23026 -0.00315 0.0
C3000 C 0.42377 0.23793 0.96467 0.0
C3001 C 0.41324 0.1887 0.9612 0.0
C3002 C 0.44664 0.25658 0.96652 0.0
C3003 C 0.45802 0.27116 0.95188 0.0
C3004 C 0.44677 0.2674 0.93499 0.0
C3005 C 0.4235 0.24913 0.9333 0.0
C3006 C 0.41206 0.23448 0.94808 0.0
H3007 H 0.41225 0.17156 0.96301 0.0
H3008 H 0.39861 0.18618 0.95232 0.0
H3009 H 0.4298 0.20067 0.95411 0.0
H3010 H 0.45603 0.25942 0.97922 0.0
H3011 H 0.47582 0.28512 0.95377 0.0
H3012 H 0.16567 0.44687 0.45625 0.0
H3013 H 0.17931 0.43031 0.4796 0.0
H3014 H 0.19956 0.3978 0.43821 0.0
H3015 H 0.18573 0.41415 0.41462 0.0
H3016 H 0.17528 0.38018 0.48669 0.0
H3017 H 0.26014 0.45563 0.46415 0.0
H3018 H 0.23308 0.45496 0.45938 0.0
H3019 H 0.24001 0.43544 0.4477 0.0
C3020 C 0.1724 0.43565 0.45211 0.0
C3021 C 0.17509 0.4322 0.43361 0.0
C3022 C 0.17995 0.42602 0.46547 0.0
C3023 C 0.19046 0.41296 0.46054 0.0
C3024 C 0.19132 0.40773 0.44219 0.0
H3025 H 0.29767 0.43964 0.53907 0.0
H3026 H 0.2743 0.42027 0.51208 0.0
C3027 C 0.18352 0.41718 0.42877 0.0
C3028 C 0.20472 0.40956 0.47422 0.0
H3029 H 0.25897 0.43979 0.49259 0.0
C3030 C 0.19375 0.39273 0.48784 0.0
C3031 C 0.22881 0.42577 0.47544 0.0
C3032 C 0.24137 0.44405 0.46095 0.0
C3033 C 0.20611 0.39267 0.50336 0.0
C3034 C 0.22965 0.41053 0.50552 0.0
C3035 C 0.24094 0.42611 0.4911 0.0
C3036 C 0.24203 0.4159 0.52325 0.0
C3037 C 0.19362 0.37383 0.5174 0.0
C3038 C 0.23154 0.41899 0.53884 0.0
C3039 C 0.24474 0.42935 0.55442 0.0
C3040 C 0.26878 0.43755 0.5544 0.0
C3041 C 0.27912 0.43354 0.53924 0.0
C3042 C 0.26576 0.42243 0.52388 0.0
H3043 H 0.18131 0.35704 0.51073 0.0
H3044 H 0.20597 0.37121 0.52593 0.0
H3045 H 0.18313 0.37863 0.5263 0.0
H3046 H 0.21355 0.41494 0.5386 0.0
H3047 H 0.23654 0.4325 0.56599 0.0
H3048 H 0.80056 0.28747 0.03889 0.0
H3049 H 0.79393 0.2616 0.01334 0.0
H3050 H 0.82176 0.22555 0.04414 0.0
H3051 H 0.82821 0.25127 0.07013 0.0
H3052 H 0.82543 0.25183 0.99367 0.0
H3053 H 0.75542 0.1739 0.02957 0.0
H3054 H 0.76584 0.20289 0.03837 0.0
H3055 H 0.78402 0.18995 0.03957 0.0
C3056 C 0.80539 0.27414 0.0403 0.0
C3057 C 0.81467 0.2713 0.05666 0.0
C3058 C 0.80172 0.25944 0.02562 0.0
C3059 C 0.80728 0.24164 0.02692 0.0
C3060 C 0.81717 0.23907 0.04298 0.0
H3061 H 0.75567 0.1746 0.92056 0.0
H3062 H 0.78196 0.18298 0.94657 0.0
C3063 C 0.82081 0.25378 0.05778 0.0
C3064 C 0.80095 0.22516 0.01161 0.0
H3065 H 0.75516 0.17332 -0.0022 0.0
C3066 C 0.81059 0.23429 0.99452 0.0
C3067 C 0.78182 0.20222 0.01294 0.0
C3068 C 0.77103 0.19151 0.03105 0.0
C3069 C 0.79967 0.2223 0.97851 0.0
C3070 C 0.77883 0.20056 0.97983 0.0
C3071 C 0.77108 0.19009 -0.00307 0.0
C3072 C 0.76191 0.19195 0.96471 0.0
C3073 C 0.80892 0.23417 0.96043 0.0
C3074 C 0.74166 0.19351 0.96655 0.0
C3075 C 0.72671 0.18877 0.95188 0.0
C3076 C 0.73169 0.18237 0.93498 0.0
C3077 C 0.75146 0.17972 0.93336 0.0
C3078 C 0.7665 0.18449 0.94816 0.0
H3079 H 0.82489 0.25152 0.96192 0.0
H3080 H 0.81319 0.22312 0.95173 0.0
H3081 H 0.79544 0.23651 0.9533 0.0
H3082 H 0.73787 0.19934 0.97921 0.0
H3083 H 0.71153 0.19072 0.95373 0.0
H3084 H 0.52154 0.71183 0.45556 0.0
H3085 H 0.54072 0.73849 0.4806 0.0
H3086 H 0.60156 0.77901 0.44728 0.0
H3087 H 0.58217 0.75243 0.4217 0.0
H3088 H 0.58354 0.75319 0.49886 0.0
H3089 H 0.5813 0.82608 0.4625 0.0
H3090 H 0.565 0.79662 0.45403 0.0
H3091 H 0.59624 0.81241 0.45243 0.0
C3092 C 0.53904 0.72629 0.45346 0.0
C3093 C 0.55015 0.73016 0.43649 0.0
C3094 C 0.55008 0.74144 0.46788 0.0
C3095 C 0.57249 0.76079 0.46574 0.0
C3096 C 0.58415 0.7643 0.44911 0.0
H3097 H 0.58171 0.82749 0.57122 0.0
H3098 H 0.60124 0.82063 0.54558 0.0
C3099 C 0.57303 0.74909 0.43455 0.0
C3100 C 0.58202 0.77789 0.48073 0.0
H3101 H 0.58161 0.8269 0.49424 0.0
C3102 C 0.58407 0.7698 0.49789 0.0
C3103 C 0.583 0.79966 0.47927 0.0
C3104 C 0.58126 0.80935 0.46112 0.0
C3105 C 0.58364 0.7812 0.51383 0.0
C3106 C 0.58154 0.80137 0.51237 0.0
C3107 C 0.58297 0.81127 0.4952 0.0
C3108 C 0.57167 0.80845 0.52744 0.0
C3109 C 0.5826 0.77008 0.53199 0.0
C3110 C 0.54888 0.80445 0.52552 0.0
C3111 C 0.53775 0.80838 0.53998 0.0
C3112 C 0.54915 0.81635 0.55677 0.0
C3113 C 0.57234 0.82111 0.55852 0.0
C3114 C 0.58355 0.81721 0.54392 0.0
H3115 H 0.58343 0.7538 0.53061 0.0
H3116 H 0.59743 0.78247 0.54058 0.0
H3117 H 0.5662 0.7659 0.53917 0.0
H3118 H 0.53936 0.79754 0.51293 0.0
H3119 H 0.51999 0.80466 0.53804 0.0
loop_
_geom_bond_atom_site_label_1
_geom_bond_atom_site_label_2
_geom_bond_distance
_geom_bond_site_symmetry_2
_ccdc_geom_bond_type
Sc0 O3 2.025 . S
Sc0 O10 2.105 . S
Sc0 O13 2.105 . S
Sc0 O16 2.105 . S
Sc0 O19 2.105 . S
Sc1 O3 2.025 . S
Sc1 O11 2.105 . S
Sc1 O15 2.105 . S
Sc1 O17 2.105 . S
Sc1 O21 2.105 . S
Sc2 O3 2.025 . S
Sc2 O12 2.105 . S
Sc2 O14 2.105 . S
Sc2 O18 2.105 . S
Sc2 O20 2.105 . S
O3 Sc0 2.025 . S
O3 Sc1 2.025 . S
O3 Sc2 2.025 . S
C4 O10 1.268 . S
C4 O20 1.268 . S
C5 O11 1.268 . S
C5 O19 1.268 . S
C6 O12 1.268 . S
C6 O21 1.268 . S
C7 O13 1.268 . S
C7 O17 1.268 . S
C8 O14 1.268 . S
C8 O16 1.268 . S
C9 O15 1.268 . S
C9 O18 1.268 . S
O10 Sc0 2.105 . S
O10 C4 1.268 . S
O11 Sc1 2.105 . S
O11 C5 1.268 . S
O12 Sc2 2.105 . S
O12 C6 1.268 . S
O13 Sc0 2.105 . S
O13 C7 1.268 . S
O14 Sc2 2.105 . S
O14 C8 1.268 . S
O15 Sc1 2.105 . S
O15 C9 1.268 . S
O16 Sc0 2.105 . S
O16 C8 1.268 . S
O17 Sc1 2.105 . S
O17 C7 1.268 . S
O18 Sc2 2.105 . S
O18 C9 1.268 . S
O19 Sc0 2.105 . S
O19 C5 1.268 . S
O20 Sc2 2.105 . S
O20 C4 1.268 . S
O21 Sc1 2.105 . S
O21 C6 1.268 . S
Sc22 O25 2.025 . S
Sc22 O32 2.105 . S
Sc22 O35 2.105 . S
Sc22 O38 2.105 . S
Sc22 O41 2.105 . S
Sc23 O25 2.025 . S
Sc23 O33 2.105 . S
Sc23 O37 2.105 . S
Sc23 O39 2.105 . S
Sc23 O43 2.105 . S
Sc24 O25 2.025 . S
Sc24 O34 2.105 . S
Sc24 O36 2.105 . S
Sc24 O40 2.105 . S
Sc24 O42 2.105 . S
O25 Sc22 2.025 . S
O25 Sc23 2.025 . S
O25 Sc24 2.025 . S
C26 O32 1.268 . S
C26 O42 1.268 . S
C27 O33 1.268 . S
C27 O41 1.268 . S
C28 O34 1.268 . S
C28 O43 1.268 . S
C29 O35 1.268 . S
C29 O39 1.268 . S
C30 O36 1.268 . S
C30 O38 1.268 . S
C31 O37 1.268 . S
C31 O40 1.268 . S
O32 Sc22 2.105 . S
O32 C26 1.268 . S
O33 Sc23 2.105 . S
O33 C27 1.268 . S
O34 Sc24 2.105 . S
O34 C28 1.268 . S
O35 Sc22 2.105 . S
O35 C29 1.268 . S
O36 Sc24 2.105 . S
O36 C30 1.268 . S
O37 Sc23 2.105 . S
O37 C31 1.268 . S
O38 Sc22 2.105 . S
O38 C30 1.268 . S
O39 Sc23 2.105 . S
O39 C29 1.268 . S
O40 Sc24 2.105 . S
O40 C31 1.268 . S
O41 Sc22 2.105 . S
O41 C27 1.268 . S
O42 Sc24 2.105 . S
O42 C26 1.268 . S
O43 Sc23 2.105 . S
O43 C28 1.268 . S
Sc44 O47 2.025 . S
Sc44 O54 2.105 . S
Sc44 O57 2.105 . S
Sc44 O60 2.105 . S
Sc44 O63 2.105 . S
Sc45 O47 2.025 . S
Sc45 O55 2.105 . S
Sc45 O59 2.105 . S
Sc45 O61 2.105 . S
Sc45 O65 2.105 . S
Sc46 O47 2.025 . S
Sc46 O56 2.105 . S
Sc46 O58 2.105 . S
Sc46 O62 2.105 . S
Sc46 O64 2.105 . S
O47 Sc44 2.025 . S
O47 Sc45 2.025 . S
O47 Sc46 2.025 . S
C48 O54 1.268 . S
C48 O64 1.268 . S
C49 O55 1.268 . S
C49 O63 1.268 . S
C50 O56 1.268 . S
C50 O65 1.268 . S
C51 O57 1.268 . S
C51 O61 1.268 . S
C52 O58 1.268 . S
C52 O60 1.268 . S
C53 O59 1.268 . S
C53 O62 1.268 . S
O54 Sc44 2.105 . S
O54 C48 1.268 . S
O55 Sc45 2.105 . S
O55 C49 1.268 . S
O56 Sc46 2.105 . S
O56 C50 1.268 . S
O57 Sc44 2.105 . S
O57 C51 1.268 . S
O58 Sc46 2.105 . S
O58 C52 1.268 . S
O59 Sc45 2.105 . S
O59 C53 1.268 . S
O60 Sc44 2.105 . S
O60 C52 1.268 . S
O61 Sc45 2.105 . S
O61 C51 1.268 . S
O62 Sc46 2.105 . S
O62 C53 1.268 . S
O63 Sc44 2.105 . S
O63 C49 1.268 . S
O64 Sc46 2.105 . S
O64 C48 1.268 . S
O65 Sc45 2.105 . S
O65 C50 1.268 . S
Sc66 O69 2.025 . S
Sc66 O76 2.105 . S
Sc66 O79 2.105 . S
Sc66 O82 2.105 . S
Sc66 O85 2.105 . S
Sc67 O69 2.025 . S
Sc67 O77 2.105 . S
Sc67 O81 2.105 . S
Sc67 O83 2.105 . S
Sc67 O87 2.105 . S
Sc68 O69 2.025 . S
Sc68 O78 2.105 . S
Sc68 O80 2.105 . S
Sc68 O84 2.105 . S
Sc68 O86 2.105 . S
O69 Sc66 2.025 . S
O69 Sc67 2.025 . S
O69 Sc68 2.025 . S
C70 O76 1.268 . S
C70 O86 1.268 . S
C71 O77 1.268 . S
C71 O85 1.268 . S
C72 O78 1.268 . S
C72 O87 1.268 . S
C73 O79 1.268 . S
C73 O83 1.268 . S
C74 O80 1.268 . S
C74 O82 1.268 . S
C75 O81 1.268 . S
C75 O84 1.268 . S
O76 Sc66 2.105 . S
O76 C70 1.268 . S
O77 Sc67 2.105 . S
O77 C71 1.268 . S
O78 Sc68 2.105 . S
O78 C72 1.268 . S
O79 Sc66 2.105 . S
O79 C73 1.268 . S
O80 Sc68 2.105 . S
O80 C74 1.268 . S
O81 Sc67 2.105 . S
O81 C75 1.268 . S
O82 Sc66 2.105 . S
O82 C74 1.268 . S
O83 Sc67 2.105 . S
O83 C73 1.268 . S
O84 Sc68 2.105 . S
O84 C75 1.268 . S
O85 Sc66 2.105 . S
O85 C71 1.268 . S
O86 Sc68 2.105 . S
O86 C70 1.268 . S
O87 Sc67 2.105 . S
O87 C72 1.268 . S
Sc88 O91 2.025 . S
Sc88 O98 2.105 . S
Sc88 O101 2.105 . S
Sc88 O104 2.105 . S
Sc88 O107 2.105 . S
Sc89 O91 2.025 . S
Sc89 O99 2.105 . S
Sc89 O103 2.105 . S
Sc89 O105 2.105 . S
Sc89 O109 2.105 . S
Sc90 O91 2.025 . S
Sc90 O100 2.105 . S
Sc90 O102 2.105 . S
Sc90 O106 2.105 . S
Sc90 O108 2.105 . S
O91 Sc88 2.025 . S
O91 Sc89 2.025 . S
O91 Sc90 2.025 . S
C92 O98 1.268 . S
C92 O108 1.268 . S
C93 O99 1.268 . S
C93 O107 1.268 . S
C94 O100 1.268 . S
C94 O109 1.268 . S
C95 O101 1.268 . S
C95 O105 1.268 . S
C96 O102 1.268 . S
C96 O104 1.268 . S
C97 O103 1.268 . S
C97 O106 1.268 . S
O98 Sc88 2.105 . S
O98 C92 1.268 . S
O99 Sc89 2.105 . S
O99 C93 1.268 . S
O100 Sc90 2.105 . S
O100 C94 1.268 . S
O101 Sc88 2.105 . S
O101 C95 1.268 . S
O102 Sc90 2.105 . S
O102 C96 1.268 . S
O103 Sc89 2.105 . S
O103 C97 1.268 . S
O104 Sc88 2.105 . S
O104 C96 1.268 . S
O105 Sc89 2.105 . S
O105 C95 1.268 . S
O106 Sc90 2.105 . S
O106 C97 1.268 . S
O107 Sc88 2.105 . S
O107 C93 1.268 . S
O108 Sc90 2.105 . S
O108 C92 1.268 . S
O109 Sc89 2.105 . S
O109 C94 1.268 . S
Sc110 O113 2.025 . S
Sc110 O120 2.105 . S
Sc110 O123 2.105 . S
Sc110 O126 2.105 . S
Sc110 O129 2.105 . S
Sc111 O113 2.025 . S
Sc111 O121 2.105 . S
Sc111 O125 2.105 . S
Sc111 O127 2.105 . S
Sc111 O131 2.105 . S
Sc112 O113 2.025 . S
Sc112 O122 2.105 . S
Sc112 O124 2.105 . S
Sc112 O128 2.105 . S
Sc112 O130 2.105 . S
O113 Sc110 2.025 . S
O113 Sc111 2.025 . S
O113 Sc112 2.025 . S
C114 O120 1.268 . S
C114 O130 1.268 . S
C115 O121 1.268 . S
C115 O129 1.268 . S
C116 O122 1.268 . S
C116 O131 1.268 . S
C117 O123 1.268 . S
C117 O127 1.268 . S
C118 O124 1.268 . S
C118 O126 1.268 . S
C119 O125 1.268 . S
C119 O128 1.268 . S
O120 Sc110 2.105 . S
O120 C114 1.268 . S
O121 Sc111 2.105 . S
O121 C115 1.268 . S
O122 Sc112 2.105 . S
O122 C116 1.268 . S
O123 Sc110 2.105 . S
O123 C117 1.268 . S
O124 Sc112 2.105 . S
O124 C118 1.268 . S
O125 Sc111 2.105 . S
O125 C119 1.268 . S
O126 Sc110 2.105 . S
O126 C118 1.268 . S
O127 Sc111 2.105 . S
O127 C117 1.268 . S
O128 Sc112 2.105 . S
O128 C119 1.268 . S
O129 Sc110 2.105 . S
O129 C115 1.268 . S
O130 Sc112 2.105 . S
O130 C114 1.268 . S
O131 Sc111 2.105 . S
O131 C116 1.268 . S
Sc132 O135 2.025 . S
Sc132 O142 2.105 . S
Sc132 O145 2.105 . S
Sc132 O148 2.105 . S
Sc132 O151 2.105 . S
Sc133 O135 2.025 . S
Sc133 O143 2.105 . S
Sc133 O147 2.105 . S
Sc133 O149 2.105 . S
Sc133 O153 2.105 . S
Sc134 O135 2.025 . S
Sc134 O144 2.105 . S
Sc134 O146 2.105 . S
Sc134 O150 2.105 . S
Sc134 O152 2.105 . S
O135 Sc132 2.025 . S
O135 Sc133 2.025 . S
O135 Sc134 2.025 . S
C136 O142 1.268 . S
C136 O152 1.268 . S
C137 O143 1.268 . S
C137 O151 1.268 . S
C138 O144 1.268 . S
C138 O153 1.268 . S
C139 O145 1.268 . S
C139 O149 1.268 . S
C140 O146 1.268 . S
C140 O148 1.268 . S
C141 O147 1.268 . S
C141 O150 1.268 . S
O142 Sc132 2.105 . S
O142 C136 1.268 . S
O143 Sc133 2.105 . S
O143 C137 1.268 . S
O144 Sc134 2.105 . S
O144 C138 1.268 . S
O145 Sc132 2.105 . S
O145 C139 1.268 . S
O146 Sc134 2.105 . S
O146 C140 1.268 . S
O147 Sc133 2.105 . S
O147 C141 1.268 . S
O148 Sc132 2.105 . S
O148 C140 1.268 . S
O149 Sc133 2.105 . S
O149 C139 1.268 . S
O150 Sc134 2.105 . S
O150 C141 1.268 . S
O151 Sc132 2.105 . S
O151 C137 1.268 . S
O152 Sc134 2.105 . S
O152 C136 1.268 . S
O153 Sc133 2.105 . S
O153 C138 1.268 . S
Sc154 O157 2.025 . S
Sc154 O164 2.105 . S
Sc154 O167 2.105 . S
Sc154 O170 2.105 . S
Sc154 O173 2.105 . S
Sc155 O157 2.025 . S
Sc155 O165 2.105 . S
Sc155 O169 2.105 . S
Sc155 O171 2.105 . S
Sc155 O175 2.105 . S
Sc156 O157 2.025 . S
Sc156 O166 2.105 . S
Sc156 O168 2.105 . S
Sc156 O172 2.105 . S
Sc156 O174 2.105 . S
O157 Sc154 2.025 . S
O157 Sc155 2.025 . S
O157 Sc156 2.025 . S
C158 O164 1.268 . S
C158 O174 1.268 . S
C159 O165 1.268 . S
C159 O173 1.268 . S
C160 O166 1.268 . S
C160 O175 1.268 . S
C161 O167 1.268 . S
C161 O171 1.268 . S
C162 O168 1.268 . S
C162 O170 1.268 . S
C163 O169 1.268 . S
C163 O172 1.268 . S
O164 Sc154 2.105 . S
O164 C158 1.268 . S
O165 Sc155 2.105 . S
O165 C159 1.268 . S
O166 Sc156 2.105 . S
O166 C160 1.268 . S
O167 Sc154 2.105 . S
O167 C161 1.268 . S
O168 Sc156 2.105 . S
O168 C162 1.268 . S
O169 Sc155 2.105 . S
O169 C163 1.268 . S
O170 Sc154 2.105 . S
O170 C162 1.268 . S
O171 Sc155 2.105 . S
O171 C161 1.268 . S
O172 Sc156 2.105 . S
O172 C163 1.268 . S
O173 Sc154 2.105 . S
O173 C159 1.268 . S
O174 Sc156 2.105 . S
O174 C158 1.268 . S
O175 Sc155 2.105 . S
O175 C160 1.268 . S
Sc176 O179 2.025 . S
Sc176 O186 2.105 . S
Sc176 O189 2.105 . S
Sc176 O192 2.105 . S
Sc176 O195 2.105 . S
Sc177 O179 2.025 . S
Sc177 O187 2.105 . S
Sc177 O191 2.105 . S
Sc177 O193 2.105 . S
Sc177 O197 2.105 . S
Sc178 O179 2.025 . S
Sc178 O188 2.105 . S
Sc178 O190 2.105 . S
Sc178 O194 2.105 . S
Sc178 O196 2.105 . S
O179 Sc176 2.025 . S
O179 Sc177 2.025 . S
O179 Sc178 2.025 . S
C180 O186 1.268 . S
C180 O196 1.268 . S
C181 O187 1.268 . S
C181 O195 1.268 . S
C182 O188 1.268 . S
C182 O197 1.268 . S
C183 O189 1.268 . S
C183 O193 1.268 . S
C184 O190 1.268 . S
C184 O192 1.268 . S
C185 O191 1.268 . S
C185 O194 1.268 . S
O186 Sc176 2.105 . S
O186 C180 1.268 . S
O187 Sc177 2.105 . S
O187 C181 1.268 . S
O188 Sc178 2.105 . S
O188 C182 1.268 . S
O189 Sc176 2.105 . S
O189 C183 1.268 . S
O190 Sc178 2.105 . S
O190 C184 1.268 . S
O191 Sc177 2.105 . S
O191 C185 1.268 . S
O192 Sc176 2.105 . S
O192 C184 1.268 . S
O193 Sc177 2.105 . S
O193 C183 1.268 . S
O194 Sc178 2.105 . S
O194 C185 1.268 . S
O195 Sc176 2.105 . S
O195 C181 1.268 . S
O196 Sc178 2.105 . S
O196 C180 1.268 . S
O197 Sc177 2.105 . S
O197 C182 1.268 . S
Sc198 O201 2.025 . S
Sc198 O208 2.105 . S
Sc198 O211 2.105 . S
Sc198 O214 2.105 . S
Sc198 O217 2.105 . S
Sc199 O201 2.025 . S
Sc199 O209 2.105 . S
Sc199 O213 2.105 . S
Sc199 O215 2.105 . S
Sc199 O219 2.105 . S
Sc200 O201 2.025 . S
Sc200 O210 2.105 . S
Sc200 O212 2.105 . S
Sc200 O216 2.105 . S
Sc200 O218 2.105 . S
O201 Sc198 2.025 . S
O201 Sc199 2.025 . S
O201 Sc200 2.025 . S
C202 O208 1.268 . S
C202 O218 1.268 . S
C203 O209 1.268 . S
C203 O217 1.268 . S
C204 O210 1.268 . S
C204 O219 1.268 . S
C205 O211 1.268 . S
C205 O215 1.268 . S
C206 O212 1.268 . S
C206 O214 1.268 . S
C207 O213 1.268 . S
C207 O216 1.268 . S
O208 Sc198 2.105 . S
O208 C202 1.268 . S
O209 Sc199 2.105 . S
O209 C203 1.268 . S
O210 Sc200 2.105 . S
O210 C204 1.268 . S
O211 Sc198 2.105 . S
O211 C205 1.268 . S
O212 Sc200 2.105 . S
O212 C206 1.268 . S
O213 Sc199 2.105 . S
O213 C207 1.268 . S
O214 Sc198 2.105 . S
O214 C206 1.268 . S
O215 Sc199 2.105 . S
O215 C205 1.268 . S
O216 Sc200 2.105 . S
O216 C207 1.268 . S
O217 Sc198 2.105 . S
O217 C203 1.268 . S
O218 Sc200 2.105 . S
O218 C202 1.268 . S
O219 Sc199 2.105 . S
O219 C204 1.268 . S
Sc220 O223 2.025 . S
Sc220 O230 2.105 . S
Sc220 O233 2.105 . S
Sc220 O236 2.105 . S
Sc220 O239 2.105 . S
Sc221 O223 2.025 . S
Sc221 O231 2.105 . S
Sc221 O235 2.105 . S
Sc221 O237 2.105 . S
Sc221 O241 2.105 . S
Sc222 O223 2.025 . S
Sc222 O232 2.105 . S
Sc222 O234 2.105 . S
Sc222 O238 2.105 . S
Sc222 O240 2.105 . S
O223 Sc220 2.025 . S
O223 Sc221 2.025 . S
O223 Sc222 2.025 . S
C224 O230 1.268 . S
C224 O240 1.268 . S
C225 O231 1.268 . S
C225 O239 1.268 . S
C226 O232 1.268 . S
C226 O241 1.268 . S
C227 O233 1.268 . S
C227 O237 1.268 . S
C228 O234 1.268 . S
C228 O236 1.268 . S
C229 O235 1.268 . S
C229 O238 1.268 . S
O230 Sc220 2.105 . S
O230 C224 1.268 . S
O231 Sc221 2.105 . S
O231 C225 1.268 . S
O232 Sc222 2.105 . S
O232 C226 1.268 . S
O233 Sc220 2.105 . S
O233 C227 1.268 . S
O234 Sc222 2.105 . S
O234 C228 1.268 . S
O235 Sc221 2.105 . S
O235 C229 1.268 . S
O236 Sc220 2.105 . S
O236 C228 1.268 . S
O237 Sc221 2.105 . S
O237 C227 1.268 . S
O238 Sc222 2.105 . S
O238 C229 1.268 . S
O239 Sc220 2.105 . S
O239 C225 1.268 . S
O240 Sc222 2.105 . S
O240 C224 1.268 . S
O241 Sc221 2.105 . S
O241 C226 1.268 . S
Sc242 O245 2.025 . S
Sc242 O252 2.105 . S
Sc242 O255 2.105 . S
Sc242 O258 2.105 . S
Sc242 O261 2.105 . S
Sc243 O245 2.025 . S
Sc243 O253 2.105 . S
Sc243 O257 2.105 . S
Sc243 O259 2.105 . S
Sc243 O263 2.105 . S
Sc244 O245 2.025 . S
Sc244 O254 2.105 . S
Sc244 O256 2.105 . S
Sc244 O260 2.105 . S
Sc244 O262 2.105 . S
O245 Sc242 2.025 . S
O245 Sc243 2.025 . S
O245 Sc244 2.025 . S
C246 O252 1.268 . S
C246 O262 1.268 . S
C247 O253 1.268 . S
C247 O261 1.268 . S
C248 O254 1.268 . S
C248 O263 1.268 . S
C249 O255 1.268 . S
C249 O259 1.268 . S
C250 O256 1.268 . S
C250 O258 1.268 . S
C251 O257 1.268 . S
C251 O260 1.268 . S
O252 Sc242 2.105 . S
O252 C246 1.268 . S
O253 Sc243 2.105 . S
O253 C247 1.268 . S
O254 Sc244 2.105 . S
O254 C248 1.268 . S
O255 Sc242 2.105 . S
O255 C249 1.268 . S
O256 Sc244 2.105 . S
O256 C250 1.268 . S
O257 Sc243 2.105 . S
O257 C251 1.268 . S
O258 Sc242 2.105 . S
O258 C250 1.268 . S
O259 Sc243 2.105 . S
O259 C249 1.268 . S
O260 Sc244 2.105 . S
O260 C251 1.268 . S
O261 Sc242 2.105 . S
O261 C247 1.268 . S
O262 Sc244 2.105 . S
O262 C246 1.268 . S
O263 Sc243 2.105 . S
O263 C248 1.268 . S
Sc264 O267 2.025 . S
Sc264 O274 2.105 . S
Sc264 O277 2.105 . S
Sc264 O280 2.105 . S
Sc264 O283 2.105 . S
Sc265 O267 2.025 . S
Sc265 O275 2.105 . S
Sc265 O279 2.105 . S
Sc265 O281 2.105 . S
Sc265 O285 2.105 . S
Sc266 O267 2.025 . S
Sc266 O276 2.105 . S
Sc266 O278 2.105 . S
Sc266 O282 2.105 . S
Sc266 O284 2.105 . S
O267 Sc264 2.025 . S
O267 Sc265 2.025 . S
O267 Sc266 2.025 . S
C268 O274 1.268 . S
C268 O284 1.268 . S
C269 O275 1.268 . S
C269 O283 1.268 . S
C270 O276 1.268 . S
C270 O285 1.268 . S
C271 O277 1.268 . S
C271 O281 1.268 . S
C272 O278 1.268 . S
C272 O280 1.268 . S
C273 O279 1.268 . S
C273 O282 1.268 . S
O274 Sc264 2.105 . S
O274 C268 1.268 . S
O275 Sc265 2.105 . S
O275 C269 1.268 . S
O276 Sc266 2.105 . S
O276 C270 1.268 . S
O277 Sc264 2.105 . S
O277 C271 1.268 . S
O278 Sc266 2.105 . S
O278 C272 1.268 . S
O279 Sc265 2.105 . S
O279 C273 1.268 . S
O280 Sc264 2.105 . S
O280 C272 1.268 . S
O281 Sc265 2.105 . S
O281 C271 1.268 . S
O282 Sc266 2.105 . S
O282 C273 1.268 . S
O283 Sc264 2.105 . S
O283 C269 1.268 . S
O284 Sc266 2.105 . S
O284 C268 1.268 . S
O285 Sc265 2.105 . S
O285 C270 1.268 . S
Sc286 O289 2.025 . S
Sc286 O296 2.105 . S
Sc286 O299 2.105 . S
Sc286 O302 2.105 . S
Sc286 O305 2.105 . S
Sc287 O289 2.025 . S
Sc287 O297 2.105 . S
Sc287 O301 2.105 . S
Sc287 O303 2.105 . S
Sc287 O307 2.105 . S
Sc288 O289 2.025 . S
Sc288 O298 2.105 . S
Sc288 O300 2.105 . S
Sc288 O304 2.105 . S
Sc288 O306 2.105 . S
O289 Sc286 2.025 . S
O289 Sc287 2.025 . S
O289 Sc288 2.025 . S
C290 O296 1.268 . S
C290 O306 1.268 . S
C291 O297 1.268 . S
C291 O305 1.268 . S
C292 O298 1.268 . S
C292 O307 1.268 . S
C293 O299 1.268 . S
C293 O303 1.268 . S
C294 O300 1.268 . S
C294 O302 1.268 . S
C295 O301 1.268 . S
C295 O304 1.268 . S
O296 Sc286 2.105 . S
O296 C290 1.268 . S
O297 Sc287 2.105 . S
O297 C291 1.268 . S
O298 Sc288 2.105 . S
O298 C292 1.268 . S
O299 Sc286 2.105 . S
O299 C293 1.268 . S
O300 Sc288 2.105 . S
O300 C294 1.268 . S
O301 Sc287 2.105 . S
O301 C295 1.268 . S
O302 Sc286 2.105 . S
O302 C294 1.268 . S
O303 Sc287 2.105 . S
O303 C293 1.268 . S
O304 Sc288 2.105 . S
O304 C295 1.268 . S
O305 Sc286 2.105 . S
O305 C291 1.268 . S
O306 Sc288 2.105 . S
O306 C290 1.268 . S
O307 Sc287 2.105 . S
O307 C292 1.268 . S
Sc308 O311 2.025 . S
Sc308 O318 2.105 . S
Sc308 O321 2.105 . S
Sc308 O324 2.105 . S
Sc308 O327 2.105 . S
Sc309 O311 2.025 . S
Sc309 O319 2.105 . S
Sc309 O323 2.105 . S
Sc309 O325 2.105 . S
Sc309 O329 2.105 . S
Sc310 O311 2.025 . S
Sc310 O320 2.105 . S
Sc310 O322 2.105 . S
Sc310 O326 2.105 . S
Sc310 O328 2.105 . S
O311 Sc308 2.025 . S
O311 Sc309 2.025 . S
O311 Sc310 2.025 . S
C312 O318 1.268 . S
C312 O328 1.268 . S
C313 O319 1.268 . S
C313 O327 1.268 . S
C314 O320 1.268 . S
C314 O329 1.268 . S
C315 O321 1.268 . S
C315 O325 1.268 . S
C316 O322 1.268 . S
C316 O324 1.268 . S
C317 O323 1.268 . S
C317 O326 1.268 . S
O318 Sc308 2.105 . S
O318 C312 1.268 . S
O319 Sc309 2.105 . S
O319 C313 1.268 . S
O320 Sc310 2.105 . S
O320 C314 1.268 . S
O321 Sc308 2.105 . S
O321 C315 1.268 . S
O322 Sc310 2.105 . S
O322 C316 1.268 . S
O323 Sc309 2.105 . S
O323 C317 1.268 . S
O324 Sc308 2.105 . S
O324 C316 1.268 . S
O325 Sc309 2.105 . S
O325 C315 1.268 . S
O326 Sc310 2.105 . S
O326 C317 1.268 . S
O327 Sc308 2.105 . S
O327 C313 1.268 . S
O328 Sc310 2.105 . S
O328 C312 1.268 . S
O329 Sc309 2.105 . S
O329 C314 1.268 . S
Sc330 O333 2.025 . S
Sc330 O340 2.105 . S
Sc330 O343 2.105 . S
Sc330 O346 2.105 . S
Sc330 O349 2.105 . S
Sc331 O333 2.025 . S
Sc331 O341 2.105 . S
Sc331 O345 2.105 . S
Sc331 O347 2.105 . S
Sc331 O351 2.105 . S
Sc332 O333 2.025 . S
Sc332 O342 2.105 . S
Sc332 O344 2.105 . S
Sc332 O348 2.105 . S
Sc332 O350 2.105 . S
O333 Sc330 2.025 . S
O333 Sc331 2.025 . S
O333 Sc332 2.025 . S
C334 O340 1.268 . S
C334 O350 1.268 . S
C335 O341 1.268 . S
C335 O349 1.268 . S
C336 O342 1.268 . S
C336 O351 1.268 . S
C337 O343 1.268 . S
C337 O347 1.268 . S
C338 O344 1.268 . S
C338 O346 1.268 . S
C339 O345 1.268 . S
C339 O348 1.268 . S
O340 Sc330 2.105 . S
O340 C334 1.268 . S
O341 Sc331 2.105 . S
O341 C335 1.268 . S
O342 Sc332 2.105 . S
O342 C336 1.268 . S
O343 Sc330 2.105 . S
O343 C337 1.268 . S
O344 Sc332 2.105 . S
O344 C338 1.268 . S
O345 Sc331 2.105 . S
O345 C339 1.268 . S
O346 Sc330 2.105 . S
O346 C338 1.268 . S
O347 Sc331 2.105 . S
O347 C337 1.268 . S
O348 Sc332 2.105 . S
O348 C339 1.268 . S
O349 Sc330 2.105 . S
O349 C335 1.268 . S
O350 Sc332 2.105 . S
O350 C334 1.268 . S
O351 Sc331 2.105 . S
O351 C336 1.268 . S
Sc352 O355 2.025 . S
Sc352 O362 2.105 . S
Sc352 O365 2.105 . S
Sc352 O368 2.105 . S
Sc352 O371 2.105 . S
Sc353 O355 2.025 . S
Sc353 O363 2.105 . S
Sc353 O367 2.105 . S
Sc353 O369 2.105 . S
Sc353 O373 2.105 . S
Sc354 O355 2.025 . S
Sc354 O364 2.105 . S
Sc354 O366 2.105 . S
Sc354 O370 2.105 . S
Sc354 O372 2.105 . S
O355 Sc352 2.025 . S
O355 Sc353 2.025 . S
O355 Sc354 2.025 . S
C356 O362 1.268 . S
C356 O372 1.268 . S
C357 O363 1.268 . S
C357 O371 1.268 . S
C358 O364 1.268 . S
C358 O373 1.268 . S
C359 O365 1.268 . S
C359 O369 1.268 . S
C360 O366 1.268 . S
C360 O368 1.268 . S
C361 O367 1.268 . S
C361 O370 1.268 . S
O362 Sc352 2.105 . S
O362 C356 1.268 . S
O363 Sc353 2.105 . S
O363 C357 1.268 . S
O364 Sc354 2.105 . S
O364 C358 1.268 . S
O365 Sc352 2.105 . S
O365 C359 1.268 . S
O366 Sc354 2.105 . S
O366 C360 1.268 . S
O367 Sc353 2.105 . S
O367 C361 1.268 . S
O368 Sc352 2.105 . S
O368 C360 1.268 . S
O369 Sc353 2.105 . S
O369 C359 1.268 . S
O370 Sc354 2.105 . S
O370 C361 1.268 . S
O371 Sc352 2.105 . S
O371 C357 1.268 . S
O372 Sc354 2.105 . S
O372 C356 1.268 . S
O373 Sc353 2.105 . S
O373 C358 1.268 . S
Sc374 O377 2.025 . S
Sc374 O384 2.105 . S
Sc374 O387 2.105 . S
Sc374 O390 2.105 . S
Sc374 O393 2.105 . S
Sc375 O377 2.025 . S
Sc375 O385 2.105 . S
Sc375 O389 2.105 . S
Sc375 O391 2.105 . S
Sc375 O395 2.105 . S
Sc376 O377 2.025 . S
Sc376 O386 2.105 . S
Sc376 O388 2.105 . S
Sc376 O392 2.105 . S
Sc376 O394 2.105 . S
O377 Sc374 2.025 . S
O377 Sc375 2.025 . S
O377 Sc376 2.025 . S
C378 O384 1.268 . S
C378 O394 1.268 . S
C379 O385 1.268 . S
C379 O393 1.268 . S
C380 O386 1.268 . S
C380 O395 1.268 . S
C381 O387 1.268 . S
C381 O391 1.268 . S
C382 O388 1.268 . S
C382 O390 1.268 . S
C383 O389 1.268 . S
C383 O392 1.268 . S
O384 Sc374 2.105 . S
O384 C378 1.268 . S
O385 Sc375 2.105 . S
O385 C379 1.268 . S
O386 Sc376 2.105 . S
O386 C380 1.268 . S
O387 Sc374 2.105 . S
O387 C381 1.268 . S
O388 Sc376 2.105 . S
O388 C382 1.268 . S
O389 Sc375 2.105 . S
O389 C383 1.268 . S
O390 Sc374 2.105 . S
O390 C382 1.268 . S
O391 Sc375 2.105 . S
O391 C381 1.268 . S
O392 Sc376 2.105 . S
O392 C383 1.268 . S
O393 Sc374 2.105 . S
O393 C379 1.268 . S
O394 Sc376 2.105 . S
O394 C378 1.268 . S
O395 Sc375 2.105 . S
O395 C380 1.268 . S
Sc396 O399 2.025 . S
Sc396 O406 2.105 . S
Sc396 O409 2.105 . S
Sc396 O412 2.105 . S
Sc396 O415 2.105 . S
Sc397 O399 2.025 . S
Sc397 O407 2.105 . S
Sc397 O411 2.105 . S
Sc397 O413 2.105 . S
Sc397 O417 2.105 . S
Sc398 O399 2.025 . S
Sc398 O408 2.105 . S
Sc398 O410 2.105 . S
Sc398 O414 2.105 . S
Sc398 O416 2.105 . S
O399 Sc396 2.025 . S
O399 Sc397 2.025 . S
O399 Sc398 2.025 . S
C400 O406 1.268 . S
C400 O416 1.268 . S
C401 O407 1.268 . S
C401 O415 1.268 . S
C402 O408 1.268 . S
C402 O417 1.268 . S
C403 O409 1.268 . S
C403 O413 1.268 . S
C404 O410 1.268 . S
C404 O412 1.268 . S
C405 O411 1.268 . S
C405 O414 1.268 . S
O406 Sc396 2.105 . S
O406 C400 1.268 . S
O407 Sc397 2.105 . S
O407 C401 1.268 . S
O408 Sc398 2.105 . S
O408 C402 1.268 . S
O409 Sc396 2.105 . S
O409 C403 1.268 . S
O410 Sc398 2.105 . S
O410 C404 1.268 . S
O411 Sc397 2.105 . S
O411 C405 1.268 . S
O412 Sc396 2.105 . S
O412 C404 1.268 . S
O413 Sc397 2.105 . S
O413 C403 1.268 . S
O414 Sc398 2.105 . S
O414 C405 1.268 . S
O415 Sc396 2.105 . S
O415 C401 1.268 . S
O416 Sc398 2.105 . S
O416 C400 1.268 . S
O417 Sc397 2.105 . S
O417 C402 1.268 . S
Sc418 O421 2.025 . S
Sc418 O428 2.105 . S
Sc418 O431 2.105 . S
Sc418 O434 2.105 . S
Sc418 O437 2.105 . S
Sc419 O421 2.025 . S
Sc419 O429 2.105 . S
Sc419 O433 2.105 . S
Sc419 O435 2.105 . S
Sc419 O439 2.105 . S
Sc420 O421 2.025 . S
Sc420 O430 2.105 . S
Sc420 O432 2.105 . S
Sc420 O436 2.105 . S
Sc420 O438 2.105 . S
O421 Sc418 2.025 . S
O421 Sc419 2.025 . S
O421 Sc420 2.025 . S
C422 O428 1.268 . S
C422 O438 1.268 . S
C423 O429 1.268 . S
C423 O437 1.268 . S
C424 O430 1.268 . S
C424 O439 1.268 . S
C425 O431 1.268 . S
C425 O435 1.268 . S
C426 O432 1.268 . S
C426 O434 1.268 . S
C427 O433 1.268 . S
C427 O436 1.268 . S
O428 Sc418 2.105 . S
O428 C422 1.268 . S
O429 Sc419 2.105 . S
O429 C423 1.268 . S
O430 Sc420 2.105 . S
O430 C424 1.268 . S
O431 Sc418 2.105 . S
O431 C425 1.268 . S
O432 Sc420 2.105 . S
O432 C426 1.268 . S
O433 Sc419 2.105 . S
O433 C427 1.268 . S
O434 Sc418 2.105 . S
O434 C426 1.268 . S
O435 Sc419 2.105 . S
O435 C425 1.268 . S
O436 Sc420 2.105 . S
O436 C427 1.268 . S
O437 Sc418 2.105 . S
O437 C423 1.268 . S
O438 Sc420 2.105 . S
O438 C422 1.268 . S
O439 Sc419 2.105 . S
O439 C424 1.268 . S
Sc440 O443 2.025 . S
Sc440 O450 2.105 . S
Sc440 O453 2.105 . S
Sc440 O456 2.105 . S
Sc440 O459 2.105 . S
Sc441 O443 2.025 . S
Sc441 O451 2.105 . S
Sc441 O455 2.105 . S
Sc441 O457 2.105 . S
Sc441 O461 2.105 . S
Sc442 O443 2.025 . S
Sc442 O452 2.105 . S
Sc442 O454 2.105 . S
Sc442 O458 2.105 . S
Sc442 O460 2.105 . S
O443 Sc440 2.025 . S
O443 Sc441 2.025 . S
O443 Sc442 2.025 . S
C444 O450 1.268 . S
C444 O460 1.268 . S
C445 O451 1.268 . S
C445 O459 1.268 . S
C446 O452 1.268 . S
C446 O461 1.268 . S
C447 O453 1.268 . S
C447 O457 1.268 . S
C448 O454 1.268 . S
C448 O456 1.268 . S
C449 O455 1.268 . S
C449 O458 1.268 . S
O450 Sc440 2.105 . S
O450 C444 1.268 . S
O451 Sc441 2.105 . S
O451 C445 1.268 . S
O452 Sc442 2.105 . S
O452 C446 1.268 . S
O453 Sc440 2.105 . S
O453 C447 1.268 . S
O454 Sc442 2.105 . S
O454 C448 1.268 . S
O455 Sc441 2.105 . S
O455 C449 1.268 . S
O456 Sc440 2.105 . S
O456 C448 1.268 . S
O457 Sc441 2.105 . S
O457 C447 1.268 . S
O458 Sc442 2.105 . S
O458 C449 1.268 . S
O459 Sc440 2.105 . S
O459 C445 1.268 . S
O460 Sc442 2.105 . S
O460 C444 1.268 . S
O461 Sc441 2.105 . S
O461 C446 1.268 . S
Sc462 O465 2.025 . S
Sc462 O472 2.105 . S
Sc462 O475 2.105 . S
Sc462 O478 2.105 . S
Sc462 O481 2.105 . S
Sc463 O465 2.025 . S
Sc463 O473 2.105 . S
Sc463 O477 2.105 . S
Sc463 O479 2.105 . S
Sc463 O483 2.105 . S
Sc464 O465 2.025 . S
Sc464 O474 2.105 . S
Sc464 O476 2.105 . S
Sc464 O480 2.105 . S
Sc464 O482 2.105 . S
O465 Sc462 2.025 . S
O465 Sc463 2.025 . S
O465 Sc464 2.025 . S
C466 O472 1.268 . S
C466 O482 1.268 . S
C467 O473 1.268 . S
C467 O481 1.268 . S
C468 O474 1.268 . S
C468 O483 1.268 . S
C469 O475 1.268 . S
C469 O479 1.268 . S
C470 O476 1.268 . S
C470 O478 1.268 . S
C471 O477 1.268 . S
C471 O480 1.268 . S
O472 Sc462 2.105 . S
O472 C466 1.268 . S
O473 Sc463 2.105 . S
O473 C467 1.268 . S
O474 Sc464 2.105 . S
O474 C468 1.268 . S
O475 Sc462 2.105 . S
O475 C469 1.268 . S
O476 Sc464 2.105 . S
O476 C470 1.268 . S
O477 Sc463 2.105 . S
O477 C471 1.268 . S
O478 Sc462 2.105 . S
O478 C470 1.268 . S
O479 Sc463 2.105 . S
O479 C469 1.268 . S
O480 Sc464 2.105 . S
O480 C471 1.268 . S
O481 Sc462 2.105 . S
O481 C467 1.268 . S
O482 Sc464 2.105 . S
O482 C466 1.268 . S
O483 Sc463 2.105 . S
O483 C468 1.268 . S
Sc484 O487 2.025 . S
Sc484 O494 2.105 . S
Sc484 O497 2.105 . S
Sc484 O500 2.105 . S
Sc484 O503 2.105 . S
Sc485 O487 2.025 . S
Sc485 O495 2.105 . S
Sc485 O499 2.105 . S
Sc485 O501 2.105 . S
Sc485 O505 2.105 . S
Sc486 O487 2.025 . S
Sc486 O496 2.105 . S
Sc486 O498 2.105 . S
Sc486 O502 2.105 . S
Sc486 O504 2.105 . S
O487 Sc484 2.025 . S
O487 Sc485 2.025 . S
O487 Sc486 2.025 . S
C488 O494 1.268 . S
C488 O504 1.268 . S
C489 O495 1.268 . S
C489 O503 1.268 . S
C490 O496 1.268 . S
C490 O505 1.268 . S
C491 O497 1.268 . S
C491 O501 1.268 . S
C492 O498 1.268 . S
C492 O500 1.268 . S
C493 O499 1.268 . S
C493 O502 1.268 . S
O494 Sc484 2.105 . S
O494 C488 1.268 . S
O495 Sc485 2.105 . S
O495 C489 1.268 . S
O496 Sc486 2.105 . S
O496 C490 1.268 . S
O497 Sc484 2.105 . S
O497 C491 1.268 . S
O498 Sc486 2.105 . S
O498 C492 1.268 . S
O499 Sc485 2.105 . S
O499 C493 1.268 . S
O500 Sc484 2.105 . S
O500 C492 1.268 . S
O501 Sc485 2.105 . S
O501 C491 1.268 . S
O502 Sc486 2.105 . S
O502 C493 1.268 . S
O503 Sc484 2.105 . S
O503 C489 1.268 . S
O504 Sc486 2.105 . S
O504 C488 1.268 . S
O505 Sc485 2.105 . S
O505 C490 1.268 . S
Sc506 O509 2.025 . S
Sc506 O516 2.105 . S
Sc506 O519 2.105 . S
Sc506 O522 2.105 . S
Sc506 O525 2.105 . S
Sc507 O509 2.025 . S
Sc507 O517 2.105 . S
Sc507 O521 2.105 . S
Sc507 O523 2.105 . S
Sc507 O527 2.105 . S
Sc508 O509 2.025 . S
Sc508 O518 2.105 . S
Sc508 O520 2.105 . S
Sc508 O524 2.105 . S
Sc508 O526 2.105 . S
O509 Sc506 2.025 . S
O509 Sc507 2.025 . S
O509 Sc508 2.025 . S
C510 O516 1.268 . S
C510 O526 1.268 . S
C511 O517 1.268 . S
C511 O525 1.268 . S
C512 O518 1.268 . S
C512 O527 1.268 . S
C513 O519 1.268 . S
C513 O523 1.268 . S
C514 O520 1.268 . S
C514 O522 1.268 . S
C515 O521 1.268 . S
C515 O524 1.268 . S
O516 Sc506 2.105 . S
O516 C510 1.268 . S
O517 Sc507 2.105 . S
O517 C511 1.268 . S
O518 Sc508 2.105 . S
O518 C512 1.268 . S
O519 Sc506 2.105 . S
O519 C513 1.268 . S
O520 Sc508 2.105 . S
O520 C514 1.268 . S
O521 Sc507 2.105 . S
O521 C515 1.268 . S
O522 Sc506 2.105 . S
O522 C514 1.268 . S
O523 Sc507 2.105 . S
O523 C513 1.268 . S
O524 Sc508 2.105 . S
O524 C515 1.268 . S
O525 Sc506 2.105 . S
O525 C511 1.268 . S
O526 Sc508 2.105 . S
O526 C510 1.268 . S
O527 Sc507 2.105 . S
O527 C512 1.268 . S
H528 C536 0.929 . S
H529 C538 0.930 . S
H530 C540 0.930 . S
H531 C543 0.929 . S
H532 C546 0.930 . S
H533 C548 0.960 . S
H534 C548 0.960 1_556 S
H535 C548 0.960 . S
C536 H528 0.929 . S
C536 C537 1.377 . S
C536 C538 1.384 . S
C537 C536 1.377 . S
C537 C543 1.390 . S
C538 H529 0.930 . S
C538 C536 1.384 . S
C538 C539 1.372 . S
C539 C538 1.372 . S
C539 C540 1.400 . S
C539 C544 1.490 . S
C540 H530 0.930 . S
C540 C539 1.400 . S
C540 C543 1.386 . S
H541 C557 0.930 . S
H542 C558 0.931 . S
C543 H531 0.929 . S
C543 C537 1.390 . S
C543 C540 1.386 . S
C544 C539 1.490 . S
C544 C546 1.395 . S
C544 C547 1.403 1_556 S
H545 C551 0.930 . S
C546 H532 0.930 . S
C546 C544 1.395 . S
C546 C549 1.403 . S
C547 C544 1.403 1_554 S
C547 C548 1.524 . S
C547 C551 1.400 . S
C548 H533 0.960 . S
C548 H534 0.960 1_554 S
C548 H535 0.960 . S
C548 C547 1.524 . S
C549 C546 1.403 . S
C549 C550 1.392 1_556 S
C549 C553 1.495 . S
C550 C549 1.392 1_554 S
C550 C551 1.385 . S
C550 C552 1.478 . S
C551 H545 0.930 . S
C551 C547 1.400 . S
C551 C550 1.385 . S
C552 C550 1.478 . S
C552 C554 1.381 . S
C552 C558 1.383 . S
C553 C549 1.495 . S
C553 H559 0.959 . S
C553 H560 0.982 . S
C553 H561 0.960 . S
C554 C552 1.381 . S
C554 C555 1.394 . S
C554 H562 0.930 . S
C555 C554 1.394 . S
C555 C556 1.383 . S
C555 H563 0.929 . S
C556 C555 1.383 . S
C556 C557 1.377 . S
C557 H541 0.930 . S
C557 C556 1.377 . S
C557 C558 1.379 . S
C558 H542 0.931 . S
C558 C552 1.383 . S
C558 C557 1.379 . S
H559 C553 0.959 . S
H560 C553 0.982 . S
H561 C553 0.960 . S
H562 C554 0.930 . S
H563 C555 0.929 . S
H564 C572 0.929 . S
H565 C574 0.930 . S
H566 C576 0.930 . S
H567 C579 0.929 . S
H568 C582 0.930 . S
H569 C584 0.960 . S
H570 C584 0.960 . S
H571 C584 0.960 . S
C572 H564 0.929 . S
C572 C573 1.377 . S
C572 C574 1.384 . S
C573 C572 1.377 . S
C573 C579 1.390 . S
C574 H565 0.930 . S
C574 C572 1.384 . S
C574 C575 1.372 . S
C575 C574 1.372 . S
C575 C576 1.400 . S
C575 C580 1.490 . S
C576 H566 0.930 . S
C576 C575 1.400 . S
C576 C579 1.386 . S
H577 C593 0.930 . S
H578 C594 0.931 . S
C579 H567 0.929 . S
C579 C573 1.390 . S
C579 C576 1.386 . S
C580 C575 1.490 . S
C580 C582 1.395 . S
C580 C583 1.403 . S
H581 C587 0.930 . S
C582 H568 0.930 . S
C582 C580 1.395 . S
C582 C585 1.403 . S
C583 C580 1.403 . S
C583 C584 1.524 . S
C583 C587 1.400 . S
C584 H569 0.960 . S
C584 H570 0.960 . S
C584 H571 0.960 . S
C584 C583 1.524 . S
C585 C582 1.403 . S
C585 C586 1.392 . S
C585 C589 1.495 . S
C586 C585 1.392 . S
C586 C587 1.385 . S
C586 C588 1.478 . S
C587 H581 0.930 . S
C587 C583 1.400 . S
C587 C586 1.385 . S
C588 C586 1.478 . S
C588 C590 1.381 . S
C588 C594 1.383 . S
C589 C585 1.495 . S
C589 H595 0.959 . S
C589 H596 0.961 . S
C589 H597 0.960 . S
C590 C588 1.381 . S
C590 C591 1.394 . S
C590 H598 0.930 . S
C591 C590 1.394 . S
C591 C592 1.383 . S
C591 H599 0.929 . S
C592 C591 1.383 . S
C592 C593 1.377 . S
C593 H577 0.930 . S
C593 C592 1.377 . S
C593 C594 1.379 . S
C594 H578 0.931 . S
C594 C588 1.383 . S
C594 C593 1.379 . S
H595 C589 0.959 . S
H596 C589 0.961 . S
H597 C589 0.960 . S
H598 C590 0.930 . S
H599 C591 0.929 . S
H600 C608 0.929 . S
H601 C610 0.930 . S
H602 C612 0.930 . S
H603 C615 0.929 . S
H604 C618 0.928 1_556 S
H605 C620 0.960 . S
H606 C620 0.960 . S
H607 C620 0.960 . S
C608 H600 0.929 . S
C608 C609 1.377 . S
C608 C610 1.384 . S
C609 C608 1.377 . S
C609 C615 1.390 . S
C610 H601 0.930 . S
C610 C608 1.384 . S
C610 C611 1.372 . S
C611 C610 1.372 . S
C611 C612 1.400 . S
C611 C616 1.490 . S
C612 H602 0.930 . S
C612 C611 1.400 . S
C612 C615 1.386 . S
H613 C629 0.930 . S
H614 C630 0.931 . S
C615 H603 0.929 . S
C615 C609 1.390 . S
C615 C612 1.386 . S
C616 C611 1.490 . S
C616 C618 1.374 1_556 S
C616 C619 1.403 . S
H617 C623 0.930 . S
C618 H604 0.928 1_554 S
C618 C616 1.374 1_554 S
C618 C621 1.426 . S
C619 C616 1.403 . S
C619 C620 1.524 . S
C619 C623 1.400 1_556 S
C620 H605 0.960 . S
C620 H606 0.960 . S
C620 H607 0.960 . S
C620 C619 1.524 . S
C621 C618 1.426 . S
C621 C622 1.392 . S
C621 C625 1.495 . S
C622 C621 1.392 . S
C622 C623 1.385 . S
C622 C624 1.478 . S
C623 H617 0.930 . S
C623 C619 1.400 1_554 S
C623 C622 1.385 . S
C624 C622 1.478 . S
C624 C626 1.381 . S
C624 C630 1.383 . S
C625 C621 1.495 . S
C625 H631 0.959 . S
C625 H632 0.961 . S
C625 H633 0.960 . S
C626 C624 1.381 . S
C626 C627 1.394 . S
C626 H634 0.930 . S
C627 C626 1.394 . S
C627 C628 1.383 . S
C627 H635 0.929 . S
C628 C627 1.383 . S
C628 C629 1.377 . S
C629 H613 0.930 . S
C629 C628 1.377 . S
C629 C630 1.379 . S
C630 H614 0.931 . S
C630 C624 1.383 . S
C630 C629 1.379 . S
H631 C625 0.959 . S
H632 C625 0.961 . S
H633 C625 0.960 . S
H634 C626 0.930 . S
H635 C627 0.929 . S
H636 C644 0.929 . S
H637 C646 0.930 . S
H638 C648 0.930 . S
H639 C651 0.929 . S
H640 C654 0.930 . S
H641 C656 0.960 . S
H642 C656 0.960 . S
H643 C656 0.960 . S
C644 H636 0.929 . S
C644 C645 1.377 . S
C644 C646 1.384 . S
C645 C644 1.377 . S
C645 C651 1.390 . S
C646 H637 0.930 . S
C646 C644 1.384 . S
C646 C647 1.372 . S
C647 C646 1.372 . S
C647 C648 1.400 . S
C647 C652 1.490 . S
C648 H638 0.930 . S
C648 C647 1.400 . S
C648 C651 1.386 . S
H649 C665 0.930 . S
H650 C666 0.931 . S
C651 H639 0.929 . S
C651 C645 1.390 . S
C651 C648 1.386 . S
C652 C647 1.490 . S
C652 C654 1.395 . S
C652 C655 1.403 . S
H653 C659 0.930 . S
C654 H640 0.930 . S
C654 C652 1.395 . S
C654 C657 1.403 . S
C655 C652 1.403 . S
C655 C656 1.524 . S
C655 C659 1.400 . S
C656 H641 0.960 . S
C656 H642 0.960 . S
C656 H643 0.960 . S
C656 C655 1.524 . S
C657 C654 1.403 . S
C657 C658 1.392 . S
C657 C661 1.495 . S
C658 C657 1.392 . S
C658 C659 1.385 . S
C658 C660 1.478 . S
C659 H653 0.930 . S
C659 C655 1.400 . S
C659 C658 1.385 . S
C660 C658 1.478 . S
C660 C662 1.381 . S
C660 C666 1.383 . S
C661 C657 1.495 . S
C661 H667 0.959 . S
C661 H668 0.961 . S
C661 H669 0.960 . S
C662 C660 1.381 . S
C662 C663 1.394 . S
C662 H670 0.930 . S
C663 C662 1.394 . S
C663 C664 1.383 . S
C663 H671 0.929 . S
C664 C663 1.383 . S
C664 C665 1.377 . S
C665 H649 0.930 . S
C665 C664 1.377 . S
C665 C666 1.379 . S
C666 H650 0.931 . S
C666 C660 1.383 . S
C666 C665 1.379 . S
H667 C661 0.959 . S
H668 C661 0.961 . S
H669 C661 0.960 . S
H670 C662 0.930 . S
H671 C663 0.929 . S
H672 C680 0.929 . S
H673 C682 0.930 . S
H674 C684 0.930 . S
H675 C687 0.929 . S
H676 C690 0.930 . S
H677 C692 0.960 . S
H678 C692 0.960 . S
H679 C692 0.960 . S
C680 H672 0.929 . S
C680 C681 1.377 . S
C680 C682 1.384 . S
C681 C680 1.377 . S
C681 C687 1.390 . S
C682 H673 0.930 . S
C682 C680 1.384 . S
C682 C683 1.372 . S
C683 C682 1.372 . S
C683 C684 1.400 . S
C683 C688 1.490 . S
C684 H674 0.930 . S
C684 C683 1.400 . S
C684 C687 1.386 . S
H685 C701 0.930 . S
H686 C702 0.931 . S
C687 H675 0.929 . S
C687 C681 1.390 . S
C687 C684 1.386 . S
C688 C683 1.490 . S
C688 C690 1.395 . S
C688 C691 1.403 . S
H689 C695 0.930 . S
C690 H676 0.930 . S
C690 C688 1.395 . S
C690 C693 1.403 1_556 S
C691 C688 1.403 . S
C691 C692 1.524 . S
C691 C695 1.400 1_556 S
C692 H677 0.960 . S
C692 H678 0.960 . S
C692 H679 0.960 . S
C692 C691 1.524 . S
C693 C690 1.403 1_554 S
C693 C694 1.392 . S
C693 C697 1.495 . S
C694 C693 1.392 . S
C694 C695 1.385 . S
C694 C696 1.478 . S
C695 H689 0.930 . S
C695 C691 1.400 1_554 S
C695 C694 1.385 . S
C696 C694 1.478 . S
C696 C698 1.381 . S
C696 C702 1.383 . S
C697 C693 1.495 . S
C697 H703 0.959 . S
C697 H704 0.961 . S
C697 H705 0.960 . S
C698 C696 1.381 . S
C698 C699 1.394 . S
C698 H706 0.930 . S
C699 C698 1.394 . S
C699 C700 1.383 . S
C699 H707 0.929 . S
C700 C699 1.383 . S
C700 C701 1.377 . S
C701 H685 0.930 . S
C701 C700 1.377 . S
C701 C702 1.379 . S
C702 H686 0.931 . S
C702 C696 1.383 . S
C702 C701 1.379 . S
H703 C697 0.959 . S
H704 C697 0.961 . S
H705 C697 0.960 . S
H706 C698 0.930 . S
H707 C699 0.929 . S
H708 C716 0.929 . S
H709 C718 0.930 . S
H710 C720 0.930 . S
H711 C723 0.929 . S
H712 C726 0.930 . S
H713 C728 0.960 . S
H714 C728 0.960 . S
H715 C728 0.960 . S
C716 H708 0.929 . S
C716 C717 1.377 . S
C716 C718 1.384 . S
C717 C716 1.377 . S
C717 C723 1.390 . S
C718 H709 0.930 . S
C718 C716 1.384 . S
C718 C719 1.372 . S
C719 C718 1.372 . S
C719 C720 1.400 . S
C719 C724 1.490 . S
C720 H710 0.930 . S
C720 C719 1.400 . S
C720 C723 1.386 . S
H721 C737 0.930 . S
H722 C738 0.931 . S
C723 H711 0.929 . S
C723 C717 1.390 . S
C723 C720 1.386 . S
C724 C719 1.490 . S
C724 C726 1.395 . S
C724 C727 1.403 . S
H725 C731 0.930 . S
C726 H712 0.930 . S
C726 C724 1.395 . S
C726 C729 1.403 . S
C727 C724 1.403 . S
C727 C728 1.524 . S
C727 C731 1.400 . S
C728 H713 0.960 . S
C728 H714 0.960 . S
C728 H715 0.960 . S
C728 C727 1.524 . S
C729 C726 1.403 . S
C729 C730 1.392 . S
C729 C733 1.495 . S
C730 C729 1.392 . S
C730 C731 1.385 . S
C730 C732 1.478 . S
C731 H725 0.930 . S
C731 C727 1.400 . S
C731 C730 1.385 . S
C732 C730 1.478 . S
C732 C734 1.381 . S
C732 C738 1.383 . S
C733 C729 1.495 . S
C733 H739 0.959 . S
C733 H740 0.961 . S
C733 H741 0.960 . S
C734 C732 1.381 . S
C734 C735 1.394 . S
C734 H742 0.930 . S
C735 C734 1.394 . S
C735 C736 1.383 . S
C735 H743 0.929 . S
C736 C735 1.383 . S
C736 C737 1.377 . S
C737 H721 0.930 . S
C737 C736 1.377 . S
C737 C738 1.379 . S
C738 H722 0.931 . S
C738 C732 1.383 . S
C738 C737 1.379 . S
H739 C733 0.959 . S
H740 C733 0.961 . S
H741 C733 0.960 . S
H742 C734 0.930 . S
H743 C735 0.929 . S
H744 C752 0.929 . S
H745 C754 0.930 . S
H746 C756 0.930 . S
H747 C759 0.929 . S
H748 C762 0.932 . S
H749 C764 0.960 . S
H750 C764 0.960 . S
H751 C764 0.960 . S
C752 H744 0.929 . S
C752 C753 1.377 . S
C752 C754 1.384 . S
C753 C752 1.377 . S
C753 C759 1.390 . S
C754 H745 0.930 . S
C754 C752 1.384 . S
C754 C755 1.372 . S
C755 C754 1.372 . S
C755 C756 1.400 . S
C755 C760 1.490 . S
C756 H746 0.930 . S
C756 C755 1.400 . S
C756 C759 1.386 . S
H757 C773 0.930 . S
H758 C774 0.931 . S
C759 H747 0.929 . S
C759 C753 1.390 . S
C759 C756 1.386 . S
C760 C755 1.490 . S
C760 C762 1.395 1_556 S
C760 C763 1.403 . S
H761 C767 0.930 . S
C762 H748 0.932 . S
C762 C760 1.395 1_554 S
C762 C765 1.403 . S
C763 C760 1.403 . S
C763 C764 1.524 . S
C763 C767 1.400 1_556 S
C764 H749 0.960 . S
C764 H750 0.960 . S
C764 H751 0.960 . S
C764 C763 1.524 . S
C765 C762 1.403 . S
C765 C766 1.392 . S
C765 C769 1.495 . S
C766 C765 1.392 . S
C766 C767 1.385 . S
C766 C768 1.478 . S
C767 H761 0.930 . S
C767 C763 1.400 1_554 S
C767 C766 1.385 . S
C768 C766 1.478 . S
C768 C770 1.381 . S
C768 C774 1.383 . S
C769 C765 1.495 . S
C769 H775 0.959 . S
C769 H776 0.961 . S
C769 H777 0.960 . S
C770 C768 1.381 . S
C770 C771 1.394 . S
C770 H778 0.930 . S
C771 C770 1.394 . S
C771 C772 1.383 . S
C771 H779 0.929 . S
C772 C771 1.383 . S
C772 C773 1.377 . S
C773 H757 0.930 . S
C773 C772 1.377 . S
C773 C774 1.379 . S
C774 H758 0.931 . S
C774 C768 1.383 . S
C774 C773 1.379 . S
H775 C769 0.959 . S
H776 C769 0.961 . S
H777 C769 0.960 . S
H778 C770 0.930 . S
H779 C771 0.929 . S
H780 C788 0.929 . S
H781 C790 0.930 . S
H782 C792 0.930 . S
H783 C795 0.929 . S
H784 C798 0.930 . S
H785 C800 0.960 . S
H786 C800 0.960 . S
H787 C800 0.960 . S
C788 H780 0.929 . S
C788 C789 1.377 . S
C788 C790 1.384 . S
C789 C788 1.377 . S
C789 C795 1.390 . S
C790 H781 0.930 . S
C790 C788 1.384 . S
C790 C791 1.372 . S
C791 C790 1.372 . S
C791 C792 1.400 . S
C791 C796 1.490 . S
C792 H782 0.930 . S
C792 C791 1.400 . S
C792 C795 1.386 . S
H793 C809 0.930 . S
H794 C810 0.931 . S
C795 H783 0.929 . S
C795 C789 1.390 . S
C795 C792 1.386 . S
C796 C791 1.490 . S
C796 C798 1.395 . S
C796 C799 1.403 . S
H797 C803 0.930 . S
C798 H784 0.930 . S
C798 C796 1.395 . S
C798 C801 1.403 . S
C799 C796 1.403 . S
C799 C800 1.524 . S
C799 C803 1.400 . S
C800 H785 0.960 . S
C800 H786 0.960 . S
C800 H787 0.960 . S
C800 C799 1.524 . S
C801 C798 1.403 . S
C801 C802 1.392 . S
C801 C805 1.495 . S
C802 C801 1.392 . S
C802 C803 1.385 . S
C802 C804 1.478 . S
C803 H797 0.930 . S
C803 C799 1.400 . S
C803 C802 1.385 . S
C804 C802 1.478 . S
C804 C806 1.381 . S
C804 C810 1.383 . S
C805 C801 1.495 . S
C805 H811 0.959 . S
C805 H812 0.961 . S
C805 H813 0.960 . S
C806 C804 1.381 . S
C806 C807 1.394 . S
C806 H814 0.930 . S
C807 C806 1.394 . S
C807 C808 1.383 . S
C807 H815 0.929 . S
C808 C807 1.383 . S
C808 C809 1.377 . S
C809 H793 0.930 . S
C809 C808 1.377 . S
C809 C810 1.379 . S
C810 H794 0.931 . S
C810 C804 1.383 . S
C810 C809 1.379 . S
H811 C805 0.959 . S
H812 C805 0.961 . S
H813 C805 0.960 . S
H814 C806 0.930 . S
H815 C807 0.929 . S
H816 C824 0.929 . S
H817 C826 0.930 . S
H818 C828 0.930 . S
H819 C831 0.929 . S
H820 C834 0.930 . S
H821 C836 0.960 . S
H822 C836 0.960 . S
H823 C836 0.960 . S
C824 H816 0.929 . S
C824 C825 1.377 . S
C824 C826 1.384 . S
C825 C824 1.377 . S
C825 C831 1.390 . S
C826 H817 0.930 . S
C826 C824 1.384 . S
C826 C827 1.372 . S
C827 C826 1.372 . S
C827 C828 1.400 . S
C827 C832 1.490 . S
C828 H818 0.930 . S
C828 C827 1.400 . S
C828 C831 1.386 . S
H829 C845 0.930 . S
H830 C846 0.931 . S
C831 H819 0.929 . S
C831 C825 1.390 . S
C831 C828 1.386 . S
C832 C827 1.490 . S
C832 C834 1.395 . S
C832 C835 1.403 . S
H833 C839 0.930 . S
C834 H820 0.930 . S
C834 C832 1.395 . S
C834 C837 1.403 1_554 S
C835 C832 1.403 . S
C835 C836 1.524 . S
C835 C839 1.400 1_554 S
C836 H821 0.960 . S
C836 H822 0.960 . S
C836 H823 0.960 . S
C836 C835 1.524 . S
C837 C834 1.403 1_556 S
C837 C838 1.392 . S
C837 C841 1.495 . S
C838 C837 1.392 . S
C838 C839 1.385 . S
C838 C840 1.478 . S
C839 H833 0.930 . S
C839 C835 1.400 1_556 S
C839 C838 1.385 . S
C840 C838 1.478 . S
C840 C842 1.381 . S
C840 C846 1.383 . S
C841 C837 1.495 . S
C841 H847 0.959 . S
C841 H848 0.961 . S
C841 H849 0.960 . S
C842 C840 1.381 . S
C842 C843 1.394 . S
C842 H850 0.930 . S
C843 C842 1.394 . S
C843 C844 1.383 . S
C843 H851 0.929 . S
C844 C843 1.383 . S
C844 C845 1.377 . S
C845 H829 0.930 . S
C845 C844 1.377 . S
C845 C846 1.379 . S
C846 H830 0.931 . S
C846 C840 1.383 . S
C846 C845 1.379 . S
H847 C841 0.959 . S
H848 C841 0.961 . S
H849 C841 0.960 . S
H850 C842 0.930 . S
H851 C843 0.929 . S
H852 C860 0.929 . S
H853 C862 0.930 . S
H854 C864 0.930 . S
H855 C867 0.929 . S
H856 C870 0.930 . S
H857 C872 0.960 . S
H858 C872 0.960 . S
H859 C872 0.960 . S
C860 H852 0.929 . S
C860 C861 1.377 . S
C860 C862 1.384 . S
C861 C860 1.377 . S
C861 C867 1.390 . S
C862 H853 0.930 . S
C862 C860 1.384 . S
C862 C863 1.372 . S
C863 C862 1.372 . S
C863 C864 1.400 . S
C863 C868 1.490 . S
C864 H854 0.930 . S
C864 C863 1.400 . S
C864 C867 1.386 . S
H865 C881 0.930 . S
H866 C882 0.931 . S
C867 H855 0.929 . S
C867 C861 1.390 . S
C867 C864 1.386 . S
C868 C863 1.490 . S
C868 C870 1.395 . S
C868 C871 1.403 . S
H869 C875 0.930 . S
C870 H856 0.930 . S
C870 C868 1.395 . S
C870 C873 1.403 . S
C871 C868 1.403 . S
C871 C872 1.524 . S
C871 C875 1.400 . S
C872 H857 0.960 . S
C872 H858 0.960 . S
C872 H859 0.960 . S
C872 C871 1.524 . S
C873 C870 1.403 . S
C873 C874 1.392 . S
C873 C877 1.495 . S
C874 C873 1.392 . S
C874 C875 1.385 . S
C874 C876 1.478 . S
C875 H869 0.930 . S
C875 C871 1.400 . S
C875 C874 1.385 . S
C876 C874 1.478 . S
C876 C878 1.381 . S
C876 C882 1.383 . S
C877 C873 1.495 . S
C877 H883 0.959 . S
C877 H884 0.961 . S
C877 H885 0.960 . S
C878 C876 1.381 . S
C878 C879 1.394 . S
C878 H886 0.930 . S
C879 C878 1.394 . S
C879 C880 1.383 . S
C879 H887 0.929 . S
C880 C879 1.383 . S
C880 C881 1.377 . S
C881 H865 0.930 . S
C881 C880 1.377 . S
C881 C882 1.379 . S
C882 H866 0.931 . S
C882 C876 1.383 . S
C882 C881 1.379 . S
H883 C877 0.959 . S
H884 C877 0.961 . S
H885 C877 0.960 . S
H886 C878 0.930 . S
H887 C879 0.929 . S
H888 C896 0.929 . S
H889 C898 0.930 . S
H890 C900 0.930 . S
H891 C903 0.929 . S
H892 C906 0.930 . S
H893 C908 0.960 . S
H894 C908 0.937 1_556 S
H895 C908 0.960 . S
C896 H888 0.929 . S
C896 C897 1.377 . S
C896 C898 1.384 . S
C897 C896 1.377 . S
C897 C903 1.390 . S
C898 H889 0.930 . S
C898 C896 1.384 . S
C898 C899 1.372 . S
C899 C898 1.372 . S
C899 C900 1.400 . S
C899 C904 1.490 . S
C900 H890 0.930 . S
C900 C899 1.400 . S
C900 C903 1.386 . S
H901 C917 0.930 . S
H902 C918 0.931 . S
C903 H891 0.929 . S
C903 C897 1.390 . S
C903 C900 1.386 . S
C904 C899 1.490 . S
C904 C906 1.395 . S
C904 C907 1.403 1_556 S
H905 C911 0.930 . S
C906 H892 0.930 . S
C906 C904 1.395 . S
C906 C909 1.403 . S
C907 C904 1.403 1_554 S
C907 C908 1.524 . S
C907 C911 1.400 . S
C908 H893 0.960 . S
C908 H894 0.937 1_554 S
C908 H895 0.960 . S
C908 C907 1.524 . S
C909 C906 1.403 . S
C909 C910 1.392 1_556 S
C909 C913 1.495 . S
C910 C909 1.392 1_554 S
C910 C911 1.385 . S
C910 C912 1.478 . S
C911 H905 0.930 . S
C911 C907 1.400 . S
C911 C910 1.385 . S
C912 C910 1.478 . S
C912 C914 1.381 . S
C912 C918 1.383 . S
C913 C909 1.495 . S
C913 H919 0.959 . S
C913 H920 0.961 . S
C913 H921 0.960 . S
C914 C912 1.381 . S
C914 C915 1.394 . S
C914 H922 0.930 . S
C915 C914 1.394 . S
C915 C916 1.383 . S
C915 H923 0.929 . S
C916 C915 1.383 . S
C916 C917 1.377 . S
C917 H901 0.930 . S
C917 C916 1.377 . S
C917 C918 1.379 . S
C918 H902 0.931 . S
C918 C912 1.383 . S
C918 C917 1.379 . S
H919 C913 0.959 . S
H920 C913 0.961 . S
H921 C913 0.960 . S
H922 C914 0.930 . S
H923 C915 0.929 . S
H924 C932 0.929 . S
H925 C934 0.930 . S
H926 C936 0.930 . S
H927 C939 0.929 . S
H928 C942 0.930 . S
H929 C944 0.960 . S
H930 C944 0.960 . S
H931 C944 0.960 . S
C932 H924 0.929 . S
C932 C933 1.377 . S
C932 C934 1.384 . S
C933 C932 1.377 . S
C933 C939 1.390 . S
C934 H925 0.930 . S
C934 C932 1.384 . S
C934 C935 1.372 . S
C935 C934 1.372 . S
C935 C936 1.400 . S
C935 C940 1.490 . S
C936 H926 0.930 . S
C936 C935 1.400 . S
C936 C939 1.386 . S
H937 C953 0.930 . S
H938 C954 0.931 . S
C939 H927 0.929 . S
C939 C933 1.390 . S
C939 C936 1.386 . S
C940 C935 1.490 . S
C940 C942 1.395 . S
C940 C943 1.403 . S
H941 C947 0.930 . S
C942 H928 0.930 . S
C942 C940 1.395 . S
C942 C945 1.403 . S
C943 C940 1.403 . S
C943 C944 1.524 . S
C943 C947 1.400 . S
C944 H929 0.960 . S
C944 H930 0.960 . S
C944 H931 0.960 . S
C944 C943 1.524 . S
C945 C942 1.403 . S
C945 C946 1.392 . S
C945 C949 1.495 . S
C946 C945 1.392 . S
C946 C947 1.385 . S
C946 C948 1.478 . S
C947 H941 0.930 . S
C947 C943 1.400 . S
C947 C946 1.385 . S
C948 C946 1.478 . S
C948 C950 1.381 . S
C948 C954 1.383 . S
C949 C945 1.495 . S
C949 H955 0.959 . S
C949 H956 0.961 . S
C949 H957 0.960 . S
C950 C948 1.381 . S
C950 C951 1.394 . S
C950 H958 0.930 . S
C951 C950 1.394 . S
C951 C952 1.383 . S
C951 H959 0.929 . S
C952 C951 1.383 . S
C952 C953 1.377 . S
C953 H937 0.930 . S
C953 C952 1.377 . S
C953 C954 1.379 . S
C954 H938 0.931 . S
C954 C948 1.383 . S
C954 C953 1.379 . S
H955 C949 0.959 . S
H956 C949 0.961 . S
H957 C949 0.960 . S
H958 C950 0.930 . S
H959 C951 0.929 . S
H960 C968 0.929 . S
H961 C970 0.930 . S
H962 C972 0.930 . S
H963 C975 0.929 . S
H964 C978 0.930 . S
H965 C980 0.960 . S
H966 C980 0.960 . S
H967 C980 0.960 . S
C968 H960 0.929 . S
C968 C969 1.377 . S
C968 C970 1.384 . S
C969 C968 1.377 . S
C969 C975 1.390 . S
C970 H961 0.930 . S
C970 C968 1.384 . S
C970 C971 1.372 . S
C971 C970 1.372 . S
C971 C972 1.400 . S
C971 C976 1.490 . S
C972 H962 0.930 . S
C972 C971 1.400 . S
C972 C975 1.386 . S
H973 C989 0.930 . S
H974 C990 0.931 . S
C975 H963 0.929 . S
C975 C969 1.390 . S
C975 C972 1.386 . S
C976 C971 1.490 . S
C976 C978 1.395 . S
C976 C979 1.403 . S
H977 C983 0.930 . S
C978 H964 0.930 . S
C978 C976 1.395 . S
C978 C981 1.403 . S
C979 C976 1.403 . S
C979 C980 1.524 . S
C979 C983 1.400 . S
C980 H965 0.960 . S
C980 H966 0.960 . S
C980 H967 0.960 . S
C980 C979 1.524 . S
C981 C978 1.403 . S
C981 C982 1.392 . S
C981 C985 1.495 . S
C982 C981 1.392 . S
C982 C983 1.385 . S
C982 C984 1.478 . S
C983 H977 0.930 . S
C983 C979 1.400 . S
C983 C982 1.385 . S
C984 C982 1.478 . S
C984 C986 1.381 . S
C984 C990 1.383 . S
C985 C981 1.495 . S
C985 H991 0.959 . S
C985 H992 0.961 . S
C985 H993 0.960 . S
C986 C984 1.381 . S
C986 C987 1.394 . S
C986 H994 0.930 . S
C987 C986 1.394 . S
C987 C988 1.383 . S
C987 H995 0.929 . S
C988 C987 1.383 . S
C988 C989 1.377 . S
C989 H973 0.930 . S
C989 C988 1.377 . S
C989 C990 1.379 . S
C990 H974 0.931 . S
C990 C984 1.383 . S
C990 C989 1.379 . S
H991 C985 0.959 . S
H992 C985 0.961 . S
H993 C985 0.960 . S
H994 C986 0.930 . S
H995 C987 0.929 . S
H996 C1004 0.929 . S
H997 C1006 0.930 . S
H998 C1008 0.930 . S
H999 C1011 0.929 . S
H1000 C1014 0.930 . S
H1001 C1016 0.960 . S
H1002 C1016 0.960 . S
H1003 C1016 0.960 . S
C1004 H996 0.929 . S
C1004 C1005 1.377 . S
C1004 C1006 1.384 . S
C1005 C1004 1.377 . S
C1005 C1011 1.390 . S
C1006 H997 0.930 . S
C1006 C1004 1.384 . S
C1006 C1007 1.372 . S
C1007 C1006 1.372 . S
C1007 C1008 1.400 . S
C1007 C1012 1.490 . S
C1008 H998 0.930 . S
C1008 C1007 1.400 . S
C1008 C1011 1.386 . S
H1009 C1025 0.930 . S
H1010 C1026 0.931 . S
C1011 H999 0.929 . S
C1011 C1005 1.390 . S
C1011 C1008 1.386 . S
C1012 C1007 1.490 . S
C1012 C1014 1.395 . S
C1012 C1015 1.403 . S
H1013 C1019 0.930 . S
C1014 H1000 0.930 . S
C1014 C1012 1.395 . S
C1014 C1017 1.403 . S
C1015 C1012 1.403 . S
C1015 C1016 1.524 . S
C1015 C1019 1.400 . S
C1016 H1001 0.960 . S
C1016 H1002 0.960 . S
C1016 H1003 0.960 . S
C1016 C1015 1.524 . S
C1017 C1014 1.403 . S
C1017 C1018 1.392 . S
C1017 C1021 1.495 . S
C1018 C1017 1.392 . S
C1018 C1019 1.385 . S
C1018 C1020 1.478 . S
C1019 H1013 0.930 . S
C1019 C1015 1.400 . S
C1019 C1018 1.385 . S
C1020 C1018 1.478 . S
C1020 C1022 1.381 . S
C1020 C1026 1.383 . S
C1021 C1017 1.495 . S
C1021 H1027 0.959 . S
C1021 H1028 0.961 . S
C1021 H1029 0.960 . S
C1022 C1020 1.381 . S
C1022 C1023 1.394 . S
C1022 H1030 0.930 . S
C1023 C1022 1.394 . S
C1023 C1024 1.383 . S
C1023 H1031 0.929 . S
C1024 C1023 1.383 . S
C1024 C1025 1.377 . S
C1025 H1009 0.930 . S
C1025 C1024 1.377 . S
C1025 C1026 1.379 . S
C1026 H1010 0.931 . S
C1026 C1020 1.383 . S
C1026 C1025 1.379 . S
H1027 C1021 0.959 . S
H1028 C1021 0.961 . S
H1029 C1021 0.960 . S
H1030 C1022 0.930 . S
H1031 C1023 0.929 . S
H1032 C1040 0.929 . S
H1033 C1042 0.930 . S
H1034 C1044 0.930 . S
H1035 C1047 0.929 . S
H1036 C1050 0.930 . S
H1037 C1052 0.960 . S
H1038 C1052 0.960 . S
H1039 C1052 0.960 . S
C1040 H1032 0.929 . S
C1040 C1041 1.377 . S
C1040 C1042 1.384 . S
C1041 C1040 1.377 . S
C1041 C1047 1.390 . S
C1042 H1033 0.930 . S
C1042 C1040 1.384 . S
C1042 C1043 1.372 . S
C1043 C1042 1.372 . S
C1043 C1044 1.400 . S
C1043 C1048 1.490 . S
C1044 H1034 0.930 . S
C1044 C1043 1.400 . S
C1044 C1047 1.386 . S
H1045 C1061 0.930 . S
H1046 C1062 0.931 . S
C1047 H1035 0.929 . S
C1047 C1041 1.390 . S
C1047 C1044 1.386 . S
C1048 C1043 1.490 . S
C1048 C1050 1.395 . S
C1048 C1051 1.403 . S
H1049 C1055 0.930 . S
C1050 H1036 0.930 . S
C1050 C1048 1.395 . S
C1050 C1053 1.403 . S
C1051 C1048 1.403 . S
C1051 C1052 1.524 . S
C1051 C1055 1.400 . S
C1052 H1037 0.960 . S
C1052 H1038 0.960 . S
C1052 H1039 0.960 . S
C1052 C1051 1.524 . S
C1053 C1050 1.403 . S
C1053 C1054 1.392 . S
C1053 C1057 1.495 . S
C1054 C1053 1.392 . S
C1054 C1055 1.385 . S
C1054 C1056 1.478 . S
C1055 H1049 0.930 . S
C1055 C1051 1.400 . S
C1055 C1054 1.385 . S
C1056 C1054 1.478 . S
C1056 C1058 1.381 . S
C1056 C1062 1.383 . S
C1057 C1053 1.495 . S
C1057 H1063 0.959 . S
C1057 H1064 0.961 . S
C1057 H1065 0.960 . S
C1058 C1056 1.381 . S
C1058 C1059 1.394 . S
C1058 H1066 0.930 . S
C1059 C1058 1.394 . S
C1059 C1060 1.383 . S
C1059 H1067 0.929 . S
C1060 C1059 1.383 . S
C1060 C1061 1.377 . S
C1061 H1045 0.930 . S
C1061 C1060 1.377 . S
C1061 C1062 1.379 . S
C1062 H1046 0.931 . S
C1062 C1056 1.383 . S
C1062 C1061 1.379 . S
H1063 C1057 0.959 . S
H1064 C1057 0.961 . S
H1065 C1057 0.960 . S
H1066 C1058 0.930 . S
H1067 C1059 0.929 . S
H1068 C1076 0.929 . S
H1069 C1078 0.930 . S
H1070 C1080 0.930 . S
H1071 C1083 0.929 . S
H1072 C1086 0.930 . S
H1073 C1088 0.960 . S
H1074 C1088 0.960 . S
H1075 C1088 0.960 . S
C1076 H1068 0.929 . S
C1076 C1077 1.377 . S
C1076 C1078 1.384 . S
C1077 C1076 1.377 . S
C1077 C1083 1.390 . S
C1078 H1069 0.930 . S
C1078 C1076 1.384 . S
C1078 C1079 1.372 . S
C1079 C1078 1.372 . S
C1079 C1080 1.400 . S
C1079 C1084 1.490 . S
C1080 H1070 0.930 . S
C1080 C1079 1.400 . S
C1080 C1083 1.386 . S
H1081 C1097 0.930 . S
H1082 C1098 0.931 . S
C1083 H1071 0.929 . S
C1083 C1077 1.390 . S
C1083 C1080 1.386 . S
C1084 C1079 1.490 . S
C1084 C1086 1.395 . S
C1084 C1087 1.403 . S
H1085 C1091 0.930 . S
C1086 H1072 0.930 . S
C1086 C1084 1.395 . S
C1086 C1089 1.403 . S
C1087 C1084 1.403 . S
C1087 C1088 1.524 . S
C1087 C1091 1.400 . S
C1088 H1073 0.960 . S
C1088 H1074 0.960 . S
C1088 H1075 0.960 . S
C1088 C1087 1.524 . S
C1089 C1086 1.403 . S
C1089 C1090 1.392 . S
C1089 C1093 1.495 . S
C1090 C1089 1.392 . S
C1090 C1091 1.385 . S
C1090 C1092 1.478 . S
C1091 H1085 0.930 . S
C1091 C1087 1.400 . S
C1091 C1090 1.385 . S
C1092 C1090 1.478 . S
C1092 C1094 1.381 . S
C1092 C1098 1.383 . S
C1093 C1089 1.495 . S
C1093 H1099 0.959 . S
C1093 H1100 0.961 . S
C1093 H1101 0.960 . S
C1094 C1092 1.381 . S
C1094 C1095 1.394 . S
C1094 H1102 0.930 . S
C1095 C1094 1.394 . S
C1095 C1096 1.383 . S
C1095 H1103 0.929 . S
C1096 C1095 1.383 . S
C1096 C1097 1.377 . S
C1097 H1081 0.930 . S
C1097 C1096 1.377 . S
C1097 C1098 1.379 . S
C1098 H1082 0.931 . S
C1098 C1092 1.383 . S
C1098 C1097 1.379 . S
H1099 C1093 0.959 . S
H1100 C1093 0.961 . S
H1101 C1093 0.960 . S
H1102 C1094 0.930 . S
H1103 C1095 0.929 . S
H1104 C1112 0.929 . S
H1105 C1114 0.930 . S
H1106 C1116 0.930 . S
H1107 C1119 0.929 . S
H1108 C1122 0.930 . S
H1109 C1124 0.960 . S
H1110 C1124 0.960 . S
H1111 C1124 0.960 . S
C1112 H1104 0.929 . S
C1112 C1113 1.377 . S
C1112 C1114 1.384 . S
C1113 C1112 1.377 . S
C1113 C1119 1.390 . S
C1114 H1105 0.930 . S
C1114 C1112 1.384 . S
C1114 C1115 1.372 . S
C1115 C1114 1.372 . S
C1115 C1116 1.400 . S
C1115 C1120 1.490 . S
C1116 H1106 0.930 . S
C1116 C1115 1.400 . S
C1116 C1119 1.386 . S
H1117 C1133 0.930 . S
H1118 C1134 0.931 . S
C1119 H1107 0.929 . S
C1119 C1113 1.390 . S
C1119 C1116 1.386 . S
C1120 C1115 1.490 . S
C1120 C1122 1.395 . S
C1120 C1123 1.403 . S
H1121 C1127 0.930 . S
C1122 H1108 0.930 . S
C1122 C1120 1.395 . S
C1122 C1125 1.403 . S
C1123 C1120 1.403 . S
C1123 C1124 1.524 . S
C1123 C1127 1.400 . S
C1124 H1109 0.960 . S
C1124 H1110 0.960 . S
C1124 H1111 0.960 . S
C1124 C1123 1.524 . S
C1125 C1122 1.403 . S
C1125 C1126 1.392 . S
C1125 C1129 1.495 . S
C1126 C1125 1.392 . S
C1126 C1127 1.385 . S
C1126 C1128 1.478 . S
C1127 H1121 0.930 . S
C1127 C1123 1.400 . S
C1127 C1126 1.385 . S
C1128 C1126 1.478 . S
C1128 C1130 1.381 . S
C1128 C1134 1.383 . S
C1129 C1125 1.495 . S
C1129 H1135 0.959 . S
C1129 H1136 0.961 . S
C1129 H1137 0.960 . S
C1130 C1128 1.381 . S
C1130 C1131 1.394 . S
C1130 H1138 0.930 . S
C1131 C1130 1.394 . S
C1131 C1132 1.383 . S
C1131 H1139 0.929 . S
C1132 C1131 1.383 . S
C1132 C1133 1.377 . S
C1133 H1117 0.930 . S
C1133 C1132 1.377 . S
C1133 C1134 1.379 . S
C1134 H1118 0.931 . S
C1134 C1128 1.383 . S
C1134 C1133 1.379 . S
H1135 C1129 0.959 . S
H1136 C1129 0.961 . S
H1137 C1129 0.960 . S
H1138 C1130 0.930 . S
H1139 C1131 0.929 . S
H1140 C1148 0.929 . S
H1141 C1150 0.930 . S
H1142 C1152 0.930 . S
H1143 C1155 0.929 . S
H1144 C1158 0.930 . S
H1145 C1160 0.960 . S
H1146 C1160 0.960 . S
H1147 C1160 0.960 . S
C1148 H1140 0.929 . S
C1148 C1149 1.377 . S
C1148 C1150 1.384 . S
C1149 C1148 1.377 . S
C1149 C1155 1.390 . S
C1150 H1141 0.930 . S
C1150 C1148 1.384 . S
C1150 C1151 1.372 . S
C1151 C1150 1.372 . S
C1151 C1152 1.400 . S
C1151 C1156 1.490 . S
C1152 H1142 0.930 . S
C1152 C1151 1.400 . S
C1152 C1155 1.386 . S
H1153 C1169 0.930 . S
H1154 C1170 0.931 . S
C1155 H1143 0.929 . S
C1155 C1149 1.390 . S
C1155 C1152 1.386 . S
C1156 C1151 1.490 . S
C1156 C1158 1.395 . S
C1156 C1159 1.403 . S
H1157 C1163 0.930 . S
C1158 H1144 0.930 . S
C1158 C1156 1.395 . S
C1158 C1161 1.403 . S
C1159 C1156 1.403 . S
C1159 C1160 1.524 . S
C1159 C1163 1.400 . S
C1160 H1145 0.960 . S
C1160 H1146 0.960 . S
C1160 H1147 0.960 . S
C1160 C1159 1.524 . S
C1161 C1158 1.403 . S
C1161 C1162 1.392 . S
C1161 C1165 1.495 . S
C1162 C1161 1.392 . S
C1162 C1163 1.385 . S
C1162 C1164 1.478 . S
C1163 H1157 0.930 . S
C1163 C1159 1.400 . S
C1163 C1162 1.385 . S
C1164 C1162 1.478 . S
C1164 C1166 1.381 . S
C1164 C1170 1.383 . S
C1165 C1161 1.495 . S
C1165 H1171 0.959 . S
C1165 H1172 0.961 . S
C1165 H1173 0.960 . S
C1166 C1164 1.381 . S
C1166 C1167 1.394 . S
C1166 H1174 0.930 . S
C1167 C1166 1.394 . S
C1167 C1168 1.383 . S
C1167 H1175 0.929 . S
C1168 C1167 1.383 . S
C1168 C1169 1.377 . S
C1169 H1153 0.930 . S
C1169 C1168 1.377 . S
C1169 C1170 1.379 . S
C1170 H1154 0.931 . S
C1170 C1164 1.383 . S
C1170 C1169 1.379 . S
H1171 C1165 0.959 . S
H1172 C1165 0.961 . S
H1173 C1165 0.960 . S
H1174 C1166 0.930 . S
H1175 C1167 0.929 . S
H1176 C1184 0.929 . S
H1177 C1186 0.930 . S
H1178 C1188 0.930 . S
H1179 C1191 0.929 . S
H1180 C1194 0.930 . S
H1181 C1196 0.960 . S
H1182 C1196 0.960 . S
H1183 C1196 0.960 . S
C1184 H1176 0.929 . S
C1184 C1185 1.377 . S
C1184 C1186 1.384 . S
C1185 C1184 1.377 . S
C1185 C1191 1.390 . S
C1186 H1177 0.930 . S
C1186 C1184 1.384 . S
C1186 C1187 1.372 . S
C1187 C1186 1.372 . S
C1187 C1188 1.400 . S
C1187 C1192 1.490 . S
C1188 H1178 0.930 . S
C1188 C1187 1.400 . S
C1188 C1191 1.386 . S
H1189 C1205 0.930 . S
H1190 C1206 0.931 . S
C1191 H1179 0.929 . S
C1191 C1185 1.390 . S
C1191 C1188 1.386 . S
C1192 C1187 1.490 . S
C1192 C1194 1.395 . S
C1192 C1195 1.403 . S
H1193 C1199 0.930 . S
C1194 H1180 0.930 . S
C1194 C1192 1.395 . S
C1194 C1197 1.403 . S
C1195 C1192 1.403 . S
C1195 C1196 1.524 . S
C1195 C1199 1.400 . S
C1196 H1181 0.960 . S
C1196 H1182 0.960 . S
C1196 H1183 0.960 . S
C1196 C1195 1.524 . S
C1197 C1194 1.403 . S
C1197 C1198 1.392 . S
C1197 C1201 1.495 . S
C1198 C1197 1.392 . S
C1198 C1199 1.385 . S
C1198 C1200 1.478 . S
C1199 H1193 0.930 . S
C1199 C1195 1.400 . S
C1199 C1198 1.385 . S
C1200 C1198 1.478 . S
C1200 C1202 1.381 . S
C1200 C1206 1.383 . S
C1201 C1197 1.495 . S
C1201 H1207 0.959 . S
C1201 H1208 0.961 . S
C1201 H1209 0.960 . S
C1202 C1200 1.381 . S
C1202 C1203 1.394 . S
C1202 H1210 0.930 . S
C1203 C1202 1.394 . S
C1203 C1204 1.383 . S
C1203 H1211 0.929 . S
C1204 C1203 1.383 . S
C1204 C1205 1.377 . S
C1205 H1189 0.930 . S
C1205 C1204 1.377 . S
C1205 C1206 1.379 . S
C1206 H1190 0.931 . S
C1206 C1200 1.383 . S
C1206 C1205 1.379 . S
H1207 C1201 0.959 . S
H1208 C1201 0.961 . S
H1209 C1201 0.960 . S
H1210 C1202 0.930 . S
H1211 C1203 0.929 . S
H1212 C1220 0.929 . S
H1213 C1222 0.930 . S
H1214 C1224 0.930 . S
H1215 C1227 0.929 . S
H1216 C1230 0.930 . S
H1217 C1232 0.960 . S
H1218 C1232 0.960 . S
H1219 C1232 0.960 . S
C1220 H1212 0.929 . S
C1220 C1221 1.377 . S
C1220 C1222 1.384 . S
C1221 C1220 1.377 . S
C1221 C1227 1.390 . S
C1222 H1213 0.930 . S
C1222 C1220 1.384 . S
C1222 C1223 1.372 . S
C1223 C1222 1.372 . S
C1223 C1224 1.400 . S
C1223 C1228 1.490 . S
C1224 H1214 0.930 . S
C1224 C1223 1.400 . S
C1224 C1227 1.386 . S
H1225 C1241 0.930 . S
H1226 C1242 0.931 . S
C1227 H1215 0.929 . S
C1227 C1221 1.390 . S
C1227 C1224 1.386 . S
C1228 C1223 1.490 . S
C1228 C1230 1.395 . S
C1228 C1231 1.403 . S
H1229 C1235 0.930 . S
C1230 H1216 0.930 . S
C1230 C1228 1.395 . S
C1230 C1233 1.403 . S
C1231 C1228 1.403 . S
C1231 C1232 1.524 . S
C1231 C1235 1.400 . S
C1232 H1217 0.960 . S
C1232 H1218 0.960 . S
C1232 H1219 0.960 . S
C1232 C1231 1.524 . S
C1233 C1230 1.403 . S
C1233 C1234 1.392 . S
C1233 C1237 1.495 . S
C1234 C1233 1.392 . S
C1234 C1235 1.385 . S
C1234 C1236 1.478 . S
C1235 H1229 0.930 . S
C1235 C1231 1.400 . S
C1235 C1234 1.385 . S
C1236 C1234 1.478 . S
C1236 C1238 1.381 . S
C1236 C1242 1.383 . S
C1237 C1233 1.495 . S
C1237 H1243 0.959 . S
C1237 H1244 0.961 . S
C1237 H1245 0.960 . S
C1238 C1236 1.381 . S
C1238 C1239 1.394 . S
C1238 H1246 0.930 . S
C1239 C1238 1.394 . S
C1239 C1240 1.383 . S
C1239 H1247 0.929 . S
C1240 C1239 1.383 . S
C1240 C1241 1.377 . S
C1241 H1225 0.930 . S
C1241 C1240 1.377 . S
C1241 C1242 1.379 . S
C1242 H1226 0.931 . S
C1242 C1236 1.383 . S
C1242 C1241 1.379 . S
H1243 C1237 0.959 . S
H1244 C1237 0.961 . S
H1245 C1237 0.960 . S
H1246 C1238 0.930 . S
H1247 C1239 0.929 . S
H1248 C1256 0.929 . S
H1249 C1258 0.930 . S
H1250 C1260 0.930 . S
H1251 C1263 0.929 . S
H1252 C1266 0.930 . S
H1253 C1268 0.960 . S
H1254 C1268 0.960 . S
H1255 C1268 0.960 . S
C1256 H1248 0.929 . S
C1256 C1257 1.377 . S
C1256 C1258 1.384 . S
C1257 C1256 1.377 . S
C1257 C1263 1.390 . S
C1258 H1249 0.930 . S
C1258 C1256 1.384 . S
C1258 C1259 1.372 . S
C1259 C1258 1.372 . S
C1259 C1260 1.400 . S
C1259 C1264 1.490 . S
C1260 H1250 0.930 . S
C1260 C1259 1.400 . S
C1260 C1263 1.386 . S
H1261 C1277 0.930 . S
H1262 C1278 0.931 . S
C1263 H1251 0.929 . S
C1263 C1257 1.390 . S
C1263 C1260 1.386 . S
C1264 C1259 1.490 . S
C1264 C1266 1.395 . S
C1264 C1267 1.403 . S
H1265 C1271 0.930 . S
C1266 H1252 0.930 . S
C1266 C1264 1.395 . S
C1266 C1269 1.403 . S
C1267 C1264 1.403 . S
C1267 C1268 1.524 . S
C1267 C1271 1.400 . S
C1268 H1253 0.960 . S
C1268 H1254 0.960 . S
C1268 H1255 0.960 . S
C1268 C1267 1.524 . S
C1269 C1266 1.403 . S
C1269 C1270 1.392 . S
C1269 C1273 1.495 . S
C1270 C1269 1.392 . S
C1270 C1271 1.385 . S
C1270 C1272 1.478 . S
C1271 H1265 0.930 . S
C1271 C1267 1.400 . S
C1271 C1270 1.385 . S
C1272 C1270 1.478 . S
C1272 C1274 1.381 . S
C1272 C1278 1.383 . S
C1273 C1269 1.495 . S
C1273 H1279 0.959 . S
C1273 H1280 0.961 . S
C1273 H1281 0.960 . S
C1274 C1272 1.381 . S
C1274 C1275 1.394 . S
C1274 H1282 0.930 . S
C1275 C1274 1.394 . S
C1275 C1276 1.383 . S
C1275 H1283 0.929 . S
C1276 C1275 1.383 . S
C1276 C1277 1.377 . S
C1277 H1261 0.930 . S
C1277 C1276 1.377 . S
C1277 C1278 1.379 . S
C1278 H1262 0.931 . S
C1278 C1272 1.383 . S
C1278 C1277 1.379 . S
H1279 C1273 0.959 . S
H1280 C1273 0.961 . S
H1281 C1273 0.960 . S
H1282 C1274 0.930 . S
H1283 C1275 0.929 . S
H1284 C1292 0.929 . S
H1285 C1294 0.930 . S
H1286 C1296 0.930 . S
H1287 C1299 0.929 . S
H1288 C1302 0.930 . S
H1289 C1304 0.960 . S
H1290 C1304 0.960 . S
H1291 C1304 0.960 . S
C1292 H1284 0.929 . S
C1292 C1293 1.377 . S
C1292 C1294 1.384 . S
C1293 C1292 1.377 . S
C1293 C1299 1.390 . S
C1294 H1285 0.930 . S
C1294 C1292 1.384 . S
C1294 C1295 1.372 . S
C1295 C1294 1.372 . S
C1295 C1296 1.400 . S
C1295 C1300 1.490 . S
C1296 H1286 0.930 . S
C1296 C1295 1.400 . S
C1296 C1299 1.386 . S
H1297 C1313 0.930 . S
H1298 C1314 0.931 . S
C1299 H1287 0.929 . S
C1299 C1293 1.390 . S
C1299 C1296 1.386 . S
C1300 C1295 1.490 . S
C1300 C1302 1.395 . S
C1300 C1303 1.403 . S
H1301 C1307 0.930 . S
C1302 H1288 0.930 . S
C1302 C1300 1.395 . S
C1302 C1305 1.403 . S
C1303 C1300 1.403 . S
C1303 C1304 1.524 . S
C1303 C1307 1.400 . S
C1304 H1289 0.960 . S
C1304 H1290 0.960 . S
C1304 H1291 0.960 . S
C1304 C1303 1.524 . S
C1305 C1302 1.403 . S
C1305 C1306 1.392 . S
C1305 C1309 1.495 . S
C1306 C1305 1.392 . S
C1306 C1307 1.385 . S
C1306 C1308 1.478 . S
C1307 H1301 0.930 . S
C1307 C1303 1.400 . S
C1307 C1306 1.385 . S
C1308 C1306 1.478 . S
C1308 C1310 1.381 . S
C1308 C1314 1.383 . S
C1309 C1305 1.495 . S
C1309 H1315 0.959 . S
C1309 H1316 0.961 . S
C1309 H1317 0.960 . S
C1310 C1308 1.381 . S
C1310 C1311 1.394 . S
C1310 H1318 0.930 . S
C1311 C1310 1.394 . S
C1311 C1312 1.383 . S
C1311 H1319 0.929 . S
C1312 C1311 1.383 . S
C1312 C1313 1.377 . S
C1313 H1297 0.930 . S
C1313 C1312 1.377 . S
C1313 C1314 1.379 . S
C1314 H1298 0.931 . S
C1314 C1308 1.383 . S
C1314 C1313 1.379 . S
H1315 C1309 0.959 . S
H1316 C1309 0.961 . S
H1317 C1309 0.960 . S
H1318 C1310 0.930 . S
H1319 C1311 0.929 . S
H1320 C1328 0.929 . S
H1321 C1330 0.930 . S
H1322 C1332 0.930 . S
H1323 C1335 0.929 . S
H1324 C1338 0.930 . S
H1325 C1340 0.960 . S
H1326 C1340 0.960 . S
H1327 C1340 0.960 . S
C1328 H1320 0.929 . S
C1328 C1329 1.377 . S
C1328 C1330 1.384 . S
C1329 C1328 1.377 . S
C1329 C1335 1.390 . S
C1330 H1321 0.930 . S
C1330 C1328 1.384 . S
C1330 C1331 1.372 . S
C1331 C1330 1.372 . S
C1331 C1332 1.400 . S
C1331 C1336 1.490 . S
C1332 H1322 0.930 . S
C1332 C1331 1.400 . S
C1332 C1335 1.386 . S
H1333 C1349 0.930 . S
H1334 C1350 0.931 . S
C1335 H1323 0.929 . S
C1335 C1329 1.390 . S
C1335 C1332 1.386 . S
C1336 C1331 1.490 . S
C1336 C1338 1.395 . S
C1336 C1339 1.403 . S
H1337 C1343 0.930 . S
C1338 H1324 0.930 . S
C1338 C1336 1.395 . S
C1338 C1341 1.403 . S
C1339 C1336 1.403 . S
C1339 C1340 1.524 . S
C1339 C1343 1.400 . S
C1340 H1325 0.960 . S
C1340 H1326 0.960 . S
C1340 H1327 0.960 . S
C1340 C1339 1.524 . S
C1341 C1338 1.403 . S
C1341 C1342 1.392 . S
C1341 C1345 1.495 . S
C1342 C1341 1.392 . S
C1342 C1343 1.385 . S
C1342 C1344 1.478 . S
C1343 H1337 0.930 . S
C1343 C1339 1.400 . S
C1343 C1342 1.385 . S
C1344 C1342 1.478 . S
C1344 C1346 1.381 . S
C1344 C1350 1.383 . S
C1345 C1341 1.495 . S
C1345 H1351 0.959 . S
C1345 H1352 0.961 . S
C1345 H1353 0.960 . S
C1346 C1344 1.381 . S
C1346 C1347 1.394 . S
C1346 H1354 0.930 . S
C1347 C1346 1.394 . S
C1347 C1348 1.383 . S
C1347 H1355 0.929 . S
C1348 C1347 1.383 . S
C1348 C1349 1.377 . S
C1349 H1333 0.930 . S
C1349 C1348 1.377 . S
C1349 C1350 1.379 . S
C1350 H1334 0.931 . S
C1350 C1344 1.383 . S
C1350 C1349 1.379 . S
H1351 C1345 0.959 . S
H1352 C1345 0.961 . S
H1353 C1345 0.960 . S
H1354 C1346 0.930 . S
H1355 C1347 0.929 . S
H1356 C1364 0.929 . S
H1357 C1366 0.930 . S
H1358 C1368 0.930 . S
H1359 C1371 0.929 . S
H1360 C1374 0.930 . S
H1361 C1376 0.960 . S
H1362 C1376 0.960 . S
H1363 C1376 0.960 . S
C1364 H1356 0.929 . S
C1364 C1365 1.377 . S
C1364 C1366 1.384 . S
C1365 C1364 1.377 . S
C1365 C1371 1.390 . S
C1366 H1357 0.930 . S
C1366 C1364 1.384 . S
C1366 C1367 1.372 . S
C1367 C1366 1.372 . S
C1367 C1368 1.400 . S
C1367 C1372 1.490 . S
C1368 H1358 0.930 . S
C1368 C1367 1.400 . S
C1368 C1371 1.386 . S
H1369 C1385 0.930 . S
H1370 C1386 0.931 . S
C1371 H1359 0.929 . S
C1371 C1365 1.390 . S
C1371 C1368 1.386 . S
C1372 C1367 1.490 . S
C1372 C1374 1.395 . S
C1372 C1375 1.403 . S
H1373 C1379 0.930 . S
C1374 H1360 0.930 . S
C1374 C1372 1.395 . S
C1374 C1377 1.403 . S
C1375 C1372 1.403 . S
C1375 C1376 1.524 . S
C1375 C1379 1.400 . S
C1376 H1361 0.960 . S
C1376 H1362 0.960 . S
C1376 H1363 0.960 . S
C1376 C1375 1.524 . S
C1377 C1374 1.403 . S
C1377 C1378 1.392 . S
C1377 C1381 1.495 . S
C1378 C1377 1.392 . S
C1378 C1379 1.385 . S
C1378 C1380 1.478 . S
C1379 H1373 0.930 . S
C1379 C1375 1.400 . S
C1379 C1378 1.385 . S
C1380 C1378 1.478 . S
C1380 C1382 1.381 . S
C1380 C1386 1.383 . S
C1381 C1377 1.495 . S
C1381 H1387 0.959 . S
C1381 H1388 0.961 . S
C1381 H1389 0.960 . S
C1382 C1380 1.381 . S
C1382 C1383 1.394 . S
C1382 H1390 0.930 . S
C1383 C1382 1.394 . S
C1383 C1384 1.383 . S
C1383 H1391 0.929 . S
C1384 C1383 1.383 . S
C1384 C1385 1.377 . S
C1385 H1369 0.930 . S
C1385 C1384 1.377 . S
C1385 C1386 1.379 . S
C1386 H1370 0.931 . S
C1386 C1380 1.383 . S
C1386 C1385 1.379 . S
H1387 C1381 0.959 . S
H1388 C1381 0.961 . S
H1389 C1381 0.960 . S
H1390 C1382 0.930 . S
H1391 C1383 0.929 . S
H1392 C1400 0.929 . S
H1393 C1402 0.930 . S
H1394 C1404 0.930 . S
H1395 C1407 0.929 . S
H1396 C1410 0.930 . S
H1397 C1412 0.960 . S
H1398 C1412 0.960 . S
H1399 C1412 0.960 . S
C1400 H1392 0.929 . S
C1400 C1401 1.377 . S
C1400 C1402 1.384 . S
C1401 C1400 1.377 . S
C1401 C1407 1.390 . S
C1402 H1393 0.930 . S
C1402 C1400 1.384 . S
C1402 C1403 1.372 . S
C1403 C1402 1.372 . S
C1403 C1404 1.400 . S
C1403 C1408 1.490 . S
C1404 H1394 0.930 . S
C1404 C1403 1.400 . S
C1404 C1407 1.386 . S
H1405 C1421 0.930 . S
H1406 C1422 0.931 . S
C1407 H1395 0.929 . S
C1407 C1401 1.390 . S
C1407 C1404 1.386 . S
C1408 C1403 1.490 . S
C1408 C1410 1.395 . S
C1408 C1411 1.403 . S
H1409 C1415 0.930 . S
C1410 H1396 0.930 . S
C1410 C1408 1.395 . S
C1410 C1413 1.403 . S
C1411 C1408 1.403 . S
C1411 C1412 1.524 . S
C1411 C1415 1.400 . S
C1412 H1397 0.960 . S
C1412 H1398 0.960 . S
C1412 H1399 0.960 . S
C1412 C1411 1.524 . S
C1413 C1410 1.403 . S
C1413 C1414 1.392 . S
C1413 C1417 1.495 . S
C1414 C1413 1.392 . S
C1414 C1415 1.385 . S
C1414 C1416 1.478 . S
C1415 H1409 0.930 . S
C1415 C1411 1.400 . S
C1415 C1414 1.385 . S
C1416 C1414 1.478 . S
C1416 C1418 1.381 . S
C1416 C1422 1.383 . S
C1417 C1413 1.495 . S
C1417 H1423 0.959 . S
C1417 H1424 0.961 . S
C1417 H1425 0.960 . S
C1418 C1416 1.381 . S
C1418 C1419 1.394 . S
C1418 H1426 0.930 . S
C1419 C1418 1.394 . S
C1419 C1420 1.383 . S
C1419 H1427 0.929 . S
C1420 C1419 1.383 . S
C1420 C1421 1.377 . S
C1421 H1405 0.930 . S
C1421 C1420 1.377 . S
C1421 C1422 1.379 . S
C1422 H1406 0.931 . S
C1422 C1416 1.383 . S
C1422 C1421 1.379 . S
H1423 C1417 0.959 . S
H1424 C1417 0.961 . S
H1425 C1417 0.960 . S
H1426 C1418 0.930 . S
H1427 C1419 0.929 . S
H1428 C1436 0.929 . S
H1429 C1438 0.930 . S
H1430 C1440 0.930 . S
H1431 C1443 0.929 . S
H1432 C1446 0.930 . S
H1433 C1448 0.960 . S
H1434 C1448 0.960 . S
H1435 C1448 0.960 . S
C1436 H1428 0.929 . S
C1436 C1437 1.377 . S
C1436 C1438 1.384 . S
C1437 C1436 1.377 . S
C1437 C1443 1.390 . S
C1438 H1429 0.930 . S
C1438 C1436 1.384 . S
C1438 C1439 1.372 . S
C1439 C1438 1.372 . S
C1439 C1440 1.400 . S
C1439 C1444 1.490 . S
C1440 H1430 0.930 . S
C1440 C1439 1.400 . S
C1440 C1443 1.386 . S
H1441 C1457 0.930 . S
H1442 C1458 0.931 . S
C1443 H1431 0.929 . S
C1443 C1437 1.390 . S
C1443 C1440 1.386 . S
C1444 C1439 1.490 . S
C1444 C1446 1.395 . S
C1444 C1447 1.403 . S
H1445 C1451 0.930 . S
C1446 H1432 0.930 . S
C1446 C1444 1.395 . S
C1446 C1449 1.403 . S
C1447 C1444 1.403 . S
C1447 C1448 1.524 . S
C1447 C1451 1.400 . S
C1448 H1433 0.960 . S
C1448 H1434 0.960 . S
C1448 H1435 0.960 . S
C1448 C1447 1.524 . S
C1449 C1446 1.403 . S
C1449 C1450 1.392 . S
C1449 C1453 1.495 . S
C1450 C1449 1.392 . S
C1450 C1451 1.385 . S
C1450 C1452 1.478 . S
C1451 H1445 0.930 . S
C1451 C1447 1.400 . S
C1451 C1450 1.385 . S
C1452 C1450 1.478 . S
C1452 C1454 1.381 . S
C1452 C1458 1.383 . S
C1453 C1449 1.495 . S
C1453 H1459 0.959 . S
C1453 H1460 0.961 . S
C1453 H1461 0.960 . S
C1454 C1452 1.381 . S
C1454 C1455 1.394 . S
C1454 H1462 0.930 . S
C1455 C1454 1.394 . S
C1455 C1456 1.383 . S
C1455 H1463 0.929 . S
C1456 C1455 1.383 . S
C1456 C1457 1.377 . S
C1457 H1441 0.930 . S
C1457 C1456 1.377 . S
C1457 C1458 1.379 . S
C1458 H1442 0.931 . S
C1458 C1452 1.383 . S
C1458 C1457 1.379 . S
H1459 C1453 0.959 . S
H1460 C1453 0.961 . S
H1461 C1453 0.960 . S
H1462 C1454 0.930 . S
H1463 C1455 0.929 . S
H1464 C1472 0.929 . S
H1465 C1474 0.930 . S
H1466 C1476 0.930 . S
H1467 C1479 0.929 . S
H1468 C1482 0.930 . S
H1469 C1484 0.960 . S
H1470 C1484 0.960 . S
H1471 C1484 0.960 . S
C1472 H1464 0.929 . S
C1472 C1473 1.377 . S
C1472 C1474 1.384 . S
C1473 C1472 1.377 . S
C1473 C1479 1.390 . S
C1474 H1465 0.930 . S
C1474 C1472 1.384 . S
C1474 C1475 1.372 . S
C1475 C1474 1.372 . S
C1475 C1476 1.400 . S
C1475 C1480 1.490 . S
C1476 H1466 0.930 . S
C1476 C1475 1.400 . S
C1476 C1479 1.386 . S
H1477 C1493 0.930 . S
H1478 C1494 0.931 . S
C1479 H1467 0.929 . S
C1479 C1473 1.390 . S
C1479 C1476 1.386 . S
C1480 C1475 1.490 . S
C1480 C1482 1.395 . S
C1480 C1483 1.403 . S
H1481 C1487 0.930 . S
C1482 H1468 0.930 . S
C1482 C1480 1.395 . S
C1482 C1485 1.403 . S
C1483 C1480 1.403 . S
C1483 C1484 1.524 . S
C1483 C1487 1.400 . S
C1484 H1469 0.960 . S
C1484 H1470 0.960 . S
C1484 H1471 0.960 . S
C1484 C1483 1.524 . S
C1485 C1482 1.403 . S
C1485 C1486 1.392 . S
C1485 C1489 1.495 . S
C1486 C1485 1.392 . S
C1486 C1487 1.385 . S
C1486 C1488 1.478 . S
C1487 H1481 0.930 . S
C1487 C1483 1.400 . S
C1487 C1486 1.385 . S
C1488 C1486 1.478 . S
C1488 C1490 1.381 . S
C1488 C1494 1.383 . S
C1489 C1485 1.495 . S
C1489 H1495 0.959 . S
C1489 H1496 0.961 . S
C1489 H1497 0.960 . S
C1490 C1488 1.381 . S
C1490 C1491 1.394 . S
C1490 H1498 0.930 . S
C1491 C1490 1.394 . S
C1491 C1492 1.383 . S
C1491 H1499 0.929 . S
C1492 C1491 1.383 . S
C1492 C1493 1.377 . S
C1493 H1477 0.930 . S
C1493 C1492 1.377 . S
C1493 C1494 1.379 . S
C1494 H1478 0.931 . S
C1494 C1488 1.383 . S
C1494 C1493 1.379 . S
H1495 C1489 0.959 . S
H1496 C1489 0.961 . S
H1497 C1489 0.960 . S
H1498 C1490 0.930 . S
H1499 C1491 0.929 . S
H1500 C1508 0.929 . S
H1501 C1510 0.930 . S
H1502 C1512 0.930 . S
H1503 C1515 0.929 . S
H1504 C1518 0.930 . S
H1505 C1520 0.960 . S
H1506 C1520 0.960 . S
H1507 C1520 0.960 . S
C1508 H1500 0.929 . S
C1508 C1509 1.377 . S
C1508 C1510 1.384 . S
C1509 C1508 1.377 . S
C1509 C1515 1.390 . S
C1510 H1501 0.930 . S
C1510 C1508 1.384 . S
C1510 C1511 1.372 . S
C1511 C1510 1.372 . S
C1511 C1512 1.400 . S
C1511 C1516 1.490 . S
C1512 H1502 0.930 . S
C1512 C1511 1.400 . S
C1512 C1515 1.386 . S
H1513 C1529 0.930 . S
H1514 C1530 0.931 . S
C1515 H1503 0.929 . S
C1515 C1509 1.390 . S
C1515 C1512 1.386 . S
C1516 C1511 1.490 . S
C1516 C1518 1.395 . S
C1516 C1519 1.403 . S
H1517 C1523 0.930 . S
C1518 H1504 0.930 . S
C1518 C1516 1.395 . S
C1518 C1521 1.403 . S
C1519 C1516 1.403 . S
C1519 C1520 1.524 . S
C1519 C1523 1.400 . S
C1520 H1505 0.960 . S
C1520 H1506 0.960 . S
C1520 H1507 0.960 . S
C1520 C1519 1.524 . S
C1521 C1518 1.403 . S
C1521 C1522 1.392 . S
C1521 C1525 1.495 . S
C1522 C1521 1.392 . S
C1522 C1523 1.385 . S
C1522 C1524 1.478 . S
C1523 H1517 0.930 . S
C1523 C1519 1.400 . S
C1523 C1522 1.385 . S
C1524 C1522 1.478 . S
C1524 C1526 1.381 . S
C1524 C1530 1.383 . S
C1525 C1521 1.495 . S
C1525 H1531 0.959 . S
C1525 H1532 0.961 . S
C1525 H1533 0.960 . S
C1526 C1524 1.381 . S
C1526 C1527 1.394 . S
C1526 H1534 0.930 . S
C1527 C1526 1.394 . S
C1527 C1528 1.383 . S
C1527 H1535 0.929 . S
C1528 C1527 1.383 . S
C1528 C1529 1.377 . S
C1529 H1513 0.930 . S
C1529 C1528 1.377 . S
C1529 C1530 1.379 . S
C1530 H1514 0.931 . S
C1530 C1524 1.383 . S
C1530 C1529 1.379 . S
H1531 C1525 0.959 . S
H1532 C1525 0.961 . S
H1533 C1525 0.960 . S
H1534 C1526 0.930 . S
H1535 C1527 0.929 . S
H1536 C1544 0.929 . S
H1537 C1546 0.930 . S
H1538 C1548 0.930 . S
H1539 C1551 0.929 . S
H1540 C1554 0.930 . S
H1541 C1556 0.960 . S
H1542 C1556 0.960 . S
H1543 C1556 0.960 . S
C1544 H1536 0.929 . S
C1544 C1545 1.377 . S
C1544 C1546 1.384 . S
C1545 C1544 1.377 . S
C1545 C1551 1.390 . S
C1546 H1537 0.930 . S
C1546 C1544 1.384 . S
C1546 C1547 1.372 . S
C1547 C1546 1.372 . S
C1547 C1548 1.400 . S
C1547 C1552 1.490 . S
C1548 H1538 0.930 . S
C1548 C1547 1.400 . S
C1548 C1551 1.386 . S
H1549 C1565 0.930 . S
H1550 C1566 0.931 . S
C1551 H1539 0.929 . S
C1551 C1545 1.390 . S
C1551 C1548 1.386 . S
C1552 C1547 1.490 . S
C1552 C1554 1.395 . S
C1552 C1555 1.403 . S
H1553 C1559 0.930 . S
C1554 H1540 0.930 . S
C1554 C1552 1.395 . S
C1554 C1557 1.403 . S
C1555 C1552 1.403 . S
C1555 C1556 1.524 . S
C1555 C1559 1.400 . S
C1556 H1541 0.960 . S
C1556 H1542 0.960 . S
C1556 H1543 0.960 . S
C1556 C1555 1.524 . S
C1557 C1554 1.403 . S
C1557 C1558 1.392 . S
C1557 C1561 1.495 . S
C1558 C1557 1.392 . S
C1558 C1559 1.385 . S
C1558 C1560 1.478 . S
C1559 H1553 0.930 . S
C1559 C1555 1.400 . S
C1559 C1558 1.385 . S
C1560 C1558 1.478 . S
C1560 C1562 1.381 . S
C1560 C1566 1.383 . S
C1561 C1557 1.495 . S
C1561 H1567 0.959 . S
C1561 H1568 0.961 . S
C1561 H1569 0.960 . S
C1562 C1560 1.381 . S
C1562 C1563 1.394 . S
C1562 H1570 0.930 . S
C1563 C1562 1.394 . S
C1563 C1564 1.383 . S
C1563 H1571 0.929 . S
C1564 C1563 1.383 . S
C1564 C1565 1.377 . S
C1565 H1549 0.930 . S
C1565 C1564 1.377 . S
C1565 C1566 1.379 . S
C1566 H1550 0.931 . S
C1566 C1560 1.383 . S
C1566 C1565 1.379 . S
H1567 C1561 0.959 . S
H1568 C1561 0.961 . S
H1569 C1561 0.960 . S
H1570 C1562 0.930 . S
H1571 C1563 0.929 . S
H1572 C1580 0.929 . S
H1573 C1582 0.930 . S
H1574 C1584 0.930 . S
H1575 C1587 0.929 . S
H1576 C1590 0.930 . S
H1577 C1592 0.960 . S
H1578 C1592 0.960 . S
H1579 C1592 0.960 . S
C1580 H1572 0.929 . S
C1580 C1581 1.377 . S
C1580 C1582 1.384 . S
C1581 C1580 1.377 . S
C1581 C1587 1.390 . S
C1582 H1573 0.930 . S
C1582 C1580 1.384 . S
C1582 C1583 1.372 . S
C1583 C1582 1.372 . S
C1583 C1584 1.400 . S
C1583 C1588 1.490 . S
C1584 H1574 0.930 . S
C1584 C1583 1.400 . S
C1584 C1587 1.386 . S
H1585 C1601 0.930 . S
H1586 C1602 0.931 . S
C1587 H1575 0.929 . S
C1587 C1581 1.390 . S
C1587 C1584 1.386 . S
C1588 C1583 1.490 . S
C1588 C1590 1.395 . S
C1588 C1591 1.403 . S
H1589 C1595 0.930 . S
C1590 H1576 0.930 . S
C1590 C1588 1.395 . S
C1590 C1593 1.403 . S
C1591 C1588 1.403 . S
C1591 C1592 1.524 . S
C1591 C1595 1.400 . S
C1592 H1577 0.960 . S
C1592 H1578 0.960 . S
C1592 H1579 0.960 . S
C1592 C1591 1.524 . S
C1593 C1590 1.403 . S
C1593 C1594 1.392 . S
C1593 C1597 1.495 . S
C1594 C1593 1.392 . S
C1594 C1595 1.385 . S
C1594 C1596 1.478 . S
C1595 H1589 0.930 . S
C1595 C1591 1.400 . S
C1595 C1594 1.385 . S
C1596 C1594 1.478 . S
C1596 C1598 1.381 . S
C1596 C1602 1.383 . S
C1597 C1593 1.495 . S
C1597 H1603 0.959 . S
C1597 H1604 0.961 . S
C1597 H1605 0.960 . S
C1598 C1596 1.381 . S
C1598 C1599 1.394 . S
C1598 H1606 0.930 . S
C1599 C1598 1.394 . S
C1599 C1600 1.383 . S
C1599 H1607 0.929 . S
C1600 C1599 1.383 . S
C1600 C1601 1.377 . S
C1601 H1585 0.930 . S
C1601 C1600 1.377 . S
C1601 C1602 1.379 . S
C1602 H1586 0.931 . S
C1602 C1596 1.383 . S
C1602 C1601 1.379 . S
H1603 C1597 0.959 . S
H1604 C1597 0.961 . S
H1605 C1597 0.960 . S
H1606 C1598 0.930 . S
H1607 C1599 0.929 . S
H1608 C1616 0.929 . S
H1609 C1618 0.930 . S
H1610 C1620 0.930 . S
H1611 C1623 0.929 . S
H1612 C1626 0.930 . S
H1613 C1628 0.960 . S
H1614 C1628 0.960 . S
H1615 C1628 0.960 . S
C1616 H1608 0.929 . S
C1616 C1617 1.377 . S
C1616 C1618 1.384 . S
C1617 C1616 1.377 . S
C1617 C1623 1.390 . S
C1618 H1609 0.930 . S
C1618 C1616 1.384 . S
C1618 C1619 1.372 . S
C1619 C1618 1.372 . S
C1619 C1620 1.400 . S
C1619 C1624 1.490 . S
C1620 H1610 0.930 . S
C1620 C1619 1.400 . S
C1620 C1623 1.386 . S
H1621 C1637 0.930 . S
H1622 C1638 0.931 . S
C1623 H1611 0.929 . S
C1623 C1617 1.390 . S
C1623 C1620 1.386 . S
C1624 C1619 1.490 . S
C1624 C1626 1.395 . S
C1624 C1627 1.403 . S
H1625 C1631 0.930 . S
C1626 H1612 0.930 . S
C1626 C1624 1.395 . S
C1626 C1629 1.403 . S
C1627 C1624 1.403 . S
C1627 C1628 1.524 . S
C1627 C1631 1.400 . S
C1628 H1613 0.960 . S
C1628 H1614 0.960 . S
C1628 H1615 0.960 . S
C1628 C1627 1.524 . S
C1629 C1626 1.403 . S
C1629 C1630 1.392 . S
C1629 C1633 1.495 . S
C1630 C1629 1.392 . S
C1630 C1631 1.385 . S
C1630 C1632 1.478 . S
C1631 H1625 0.930 . S
C1631 C1627 1.400 . S
C1631 C1630 1.385 . S
C1632 C1630 1.478 . S
C1632 C1634 1.381 . S
C1632 C1638 1.383 . S
C1633 C1629 1.495 . S
C1633 H1639 0.959 . S
C1633 H1640 0.961 . S
C1633 H1641 0.960 . S
C1634 C1632 1.381 . S
C1634 C1635 1.394 . S
C1634 H1642 0.930 . S
C1635 C1634 1.394 . S
C1635 C1636 1.383 . S
C1635 H1643 0.929 . S
C1636 C1635 1.383 . S
C1636 C1637 1.377 . S
C1637 H1621 0.930 . S
C1637 C1636 1.377 . S
C1637 C1638 1.379 . S
C1638 H1622 0.931 . S
C1638 C1632 1.383 . S
C1638 C1637 1.379 . S
H1639 C1633 0.959 . S
H1640 C1633 0.961 . S
H1641 C1633 0.960 . S
H1642 C1634 0.930 . S
H1643 C1635 0.929 . S
H1644 C1652 0.929 . S
H1645 C1654 0.930 . S
H1646 C1656 0.930 . S
H1647 C1659 0.929 . S
H1648 C1662 0.930 . S
H1649 C1664 0.960 . S
H1650 C1664 0.960 . S
H1651 C1664 0.960 . S
C1652 H1644 0.929 . S
C1652 C1653 1.377 . S
C1652 C1654 1.384 . S
C1653 C1652 1.377 . S
C1653 C1659 1.390 . S
C1654 H1645 0.930 . S
C1654 C1652 1.384 . S
C1654 C1655 1.372 . S
C1655 C1654 1.372 . S
C1655 C1656 1.400 . S
C1655 C1660 1.490 . S
C1656 H1646 0.930 . S
C1656 C1655 1.400 . S
C1656 C1659 1.386 . S
H1657 C1673 0.930 . S
H1658 C1674 0.931 . S
C1659 H1647 0.929 . S
C1659 C1653 1.390 . S
C1659 C1656 1.386 . S
C1660 C1655 1.490 . S
C1660 C1662 1.395 . S
C1660 C1663 1.403 . S
H1661 C1667 0.930 . S
C1662 H1648 0.930 . S
C1662 C1660 1.395 . S
C1662 C1665 1.403 . S
C1663 C1660 1.403 . S
C1663 C1664 1.524 . S
C1663 C1667 1.400 . S
C1664 H1649 0.960 . S
C1664 H1650 0.960 . S
C1664 H1651 0.960 . S
C1664 C1663 1.524 . S
C1665 C1662 1.403 . S
C1665 C1666 1.392 . S
C1665 C1669 1.495 . S
C1666 C1665 1.392 . S
C1666 C1667 1.385 . S
C1666 C1668 1.478 . S
C1667 H1661 0.930 . S
C1667 C1663 1.400 . S
C1667 C1666 1.385 . S
C1668 C1666 1.478 . S
C1668 C1670 1.381 . S
C1668 C1674 1.383 . S
C1669 C1665 1.495 . S
C1669 H1675 0.959 . S
C1669 H1676 0.961 . S
C1669 H1677 0.960 . S
C1670 C1668 1.381 . S
C1670 C1671 1.394 . S
C1670 H1678 0.930 . S
C1671 C1670 1.394 . S
C1671 C1672 1.383 . S
C1671 H1679 0.929 . S
C1672 C1671 1.383 . S
C1672 C1673 1.377 . S
C1673 H1657 0.930 . S
C1673 C1672 1.377 . S
C1673 C1674 1.379 . S
C1674 H1658 0.931 . S
C1674 C1668 1.383 . S
C1674 C1673 1.379 . S
H1675 C1669 0.959 . S
H1676 C1669 0.961 . S
H1677 C1669 0.960 . S
H1678 C1670 0.930 . S
H1679 C1671 0.929 . S
H1680 C1688 0.929 . S
H1681 C1690 0.930 . S
H1682 C1692 0.930 . S
H1683 C1695 0.929 . S
H1684 C1698 0.930 . S
H1685 C1700 0.960 . S
H1686 C1700 0.960 . S
H1687 C1700 0.960 . S
C1688 H1680 0.929 . S
C1688 C1689 1.377 . S
C1688 C1690 1.384 . S
C1689 C1688 1.377 . S
C1689 C1695 1.390 . S
C1690 H1681 0.930 . S
C1690 C1688 1.384 . S
C1690 C1691 1.372 . S
C1691 C1690 1.372 . S
C1691 C1692 1.400 . S
C1691 C1696 1.490 . S
C1692 H1682 0.930 . S
C1692 C1691 1.400 . S
C1692 C1695 1.386 . S
H1693 C1709 0.930 . S
H1694 C1710 0.931 . S
C1695 H1683 0.929 . S
C1695 C1689 1.390 . S
C1695 C1692 1.386 . S
C1696 C1691 1.490 . S
C1696 C1698 1.395 . S
C1696 C1699 1.403 . S
H1697 C1703 0.930 . S
C1698 H1684 0.930 . S
C1698 C1696 1.395 . S
C1698 C1701 1.403 . S
C1699 C1696 1.403 . S
C1699 C1700 1.524 . S
C1699 C1703 1.400 . S
C1700 H1685 0.960 . S
C1700 H1686 0.960 . S
C1700 H1687 0.960 . S
C1700 C1699 1.524 . S
C1701 C1698 1.403 . S
C1701 C1702 1.392 . S
C1701 C1705 1.495 . S
C1702 C1701 1.392 . S
C1702 C1703 1.385 . S
C1702 C1704 1.478 . S
C1703 H1697 0.930 . S
C1703 C1699 1.400 . S
C1703 C1702 1.385 . S
C1704 C1702 1.478 . S
C1704 C1706 1.381 . S
C1704 C1710 1.383 . S
C1705 C1701 1.495 . S
C1705 H1711 0.959 . S
C1705 H1712 0.961 . S
C1705 H1713 0.960 . S
C1706 C1704 1.381 . S
C1706 C1707 1.394 . S
C1706 H1714 0.930 . S
C1707 C1706 1.394 . S
C1707 C1708 1.383 . S
C1707 H1715 0.929 . S
C1708 C1707 1.383 . S
C1708 C1709 1.377 . S
C1709 H1693 0.930 . S
C1709 C1708 1.377 . S
C1709 C1710 1.379 . S
C1710 H1694 0.931 . S
C1710 C1704 1.383 . S
C1710 C1709 1.379 . S
H1711 C1705 0.959 . S
H1712 C1705 0.961 . S
H1713 C1705 0.960 . S
H1714 C1706 0.930 . S
H1715 C1707 0.929 . S
H1716 C1724 0.929 . S
H1717 C1726 0.930 . S
H1718 C1728 0.930 . S
H1719 C1731 0.929 . S
H1720 C1734 0.930 . S
H1721 C1736 0.960 . S
H1722 C1736 0.960 . S
H1723 C1736 0.960 . S
C1724 H1716 0.929 . S
C1724 C1725 1.377 . S
C1724 C1726 1.384 . S
C1725 C1724 1.377 . S
C1725 C1731 1.390 . S
C1726 H1717 0.930 . S
C1726 C1724 1.384 . S
C1726 C1727 1.372 . S
C1727 C1726 1.372 . S
C1727 C1728 1.400 . S
C1727 C1732 1.490 . S
C1728 H1718 0.930 . S
C1728 C1727 1.400 . S
C1728 C1731 1.386 . S
H1729 C1745 0.930 . S
H1730 C1746 0.931 . S
C1731 H1719 0.929 . S
C1731 C1725 1.390 . S
C1731 C1728 1.386 . S
C1732 C1727 1.490 . S
C1732 C1734 1.395 . S
C1732 C1735 1.403 . S
H1733 C1739 0.930 . S
C1734 H1720 0.930 . S
C1734 C1732 1.395 . S
C1734 C1737 1.403 . S
C1735 C1732 1.403 . S
C1735 C1736 1.524 . S
C1735 C1739 1.400 . S
C1736 H1721 0.960 . S
C1736 H1722 0.960 . S
C1736 H1723 0.960 . S
C1736 C1735 1.524 . S
C1737 C1734 1.403 . S
C1737 C1738 1.392 . S
C1737 C1741 1.495 . S
C1738 C1737 1.392 . S
C1738 C1739 1.385 . S
C1738 C1740 1.478 . S
C1739 H1733 0.930 . S
C1739 C1735 1.400 . S
C1739 C1738 1.385 . S
C1740 C1738 1.478 . S
C1740 C1742 1.381 . S
C1740 C1746 1.383 . S
C1741 C1737 1.495 . S
C1741 H1747 0.959 . S
C1741 H1748 0.961 . S
C1741 H1749 0.960 . S
C1742 C1740 1.381 . S
C1742 C1743 1.394 . S
C1742 H1750 0.930 . S
C1743 C1742 1.394 . S
C1743 C1744 1.383 . S
C1743 H1751 0.929 . S
C1744 C1743 1.383 . S
C1744 C1745 1.377 . S
C1745 H1729 0.930 . S
C1745 C1744 1.377 . S
C1745 C1746 1.379 . S
C1746 H1730 0.931 . S
C1746 C1740 1.383 . S
C1746 C1745 1.379 . S
H1747 C1741 0.959 . S
H1748 C1741 0.961 . S
H1749 C1741 0.960 . S
H1750 C1742 0.930 . S
H1751 C1743 0.929 . S
H1752 C1760 0.929 . S
H1753 C1762 0.930 . S
H1754 C1764 0.930 . S
H1755 C1767 0.929 . S
H1756 C1770 0.930 . S
H1757 C1772 0.960 . S
H1758 C1772 0.960 . S
H1759 C1772 0.960 . S
C1760 H1752 0.929 . S
C1760 C1761 1.377 . S
C1760 C1762 1.384 . S
C1761 C1760 1.377 . S
C1761 C1767 1.390 . S
C1762 H1753 0.930 . S
C1762 C1760 1.384 . S
C1762 C1763 1.372 . S
C1763 C1762 1.372 . S
C1763 C1764 1.400 . S
C1763 C1768 1.490 . S
C1764 H1754 0.930 . S
C1764 C1763 1.400 . S
C1764 C1767 1.386 . S
H1765 C1781 0.930 . S
H1766 C1782 0.931 . S
C1767 H1755 0.929 . S
C1767 C1761 1.390 . S
C1767 C1764 1.386 . S
C1768 C1763 1.490 . S
C1768 C1770 1.395 . S
C1768 C1771 1.403 . S
H1769 C1775 0.930 . S
C1770 H1756 0.930 . S
C1770 C1768 1.395 . S
C1770 C1773 1.403 . S
C1771 C1768 1.403 . S
C1771 C1772 1.524 . S
C1771 C1775 1.400 . S
C1772 H1757 0.960 . S
C1772 H1758 0.960 . S
C1772 H1759 0.960 . S
C1772 C1771 1.524 . S
C1773 C1770 1.403 . S
C1773 C1774 1.392 . S
C1773 C1777 1.495 . S
C1774 C1773 1.392 . S
C1774 C1775 1.385 . S
C1774 C1776 1.478 . S
C1775 H1769 0.930 . S
C1775 C1771 1.400 . S
C1775 C1774 1.385 . S
C1776 C1774 1.478 . S
C1776 C1778 1.381 . S
C1776 C1782 1.383 . S
C1777 C1773 1.495 . S
C1777 H1783 0.959 . S
C1777 H1784 0.961 . S
C1777 H1785 0.960 . S
C1778 C1776 1.381 . S
C1778 C1779 1.394 . S
C1778 H1786 0.930 . S
C1779 C1778 1.394 . S
C1779 C1780 1.383 . S
C1779 H1787 0.929 . S
C1780 C1779 1.383 . S
C1780 C1781 1.377 . S
C1781 H1765 0.930 . S
C1781 C1780 1.377 . S
C1781 C1782 1.379 . S
C1782 H1766 0.931 . S
C1782 C1776 1.383 . S
C1782 C1781 1.379 . S
H1783 C1777 0.959 . S
H1784 C1777 0.961 . S
H1785 C1777 0.960 . S
H1786 C1778 0.930 . S
H1787 C1779 0.929 . S
H1788 C1796 0.929 . S
H1789 C1798 0.930 . S
H1790 C1800 0.930 . S
H1791 C1803 0.929 . S
H1792 C1806 0.930 . S
H1793 C1808 0.960 . S
H1794 C1808 0.960 . S
H1795 C1808 0.960 . S
C1796 H1788 0.929 . S
C1796 C1797 1.377 . S
C1796 C1798 1.384 . S
C1797 C1796 1.377 . S
C1797 C1803 1.390 . S
C1798 H1789 0.930 . S
C1798 C1796 1.384 . S
C1798 C1799 1.372 . S
C1799 C1798 1.372 . S
C1799 C1800 1.400 . S
C1799 C1804 1.490 . S
C1800 H1790 0.930 . S
C1800 C1799 1.400 . S
C1800 C1803 1.386 . S
H1801 C1817 0.930 . S
H1802 C1818 0.931 . S
C1803 H1791 0.929 . S
C1803 C1797 1.390 . S
C1803 C1800 1.386 . S
C1804 C1799 1.490 . S
C1804 C1806 1.395 . S
C1804 C1807 1.403 . S
H1805 C1811 0.930 . S
C1806 H1792 0.930 . S
C1806 C1804 1.395 . S
C1806 C1809 1.403 . S
C1807 C1804 1.403 . S
C1807 C1808 1.524 . S
C1807 C1811 1.400 . S
C1808 H1793 0.960 . S
C1808 H1794 0.960 . S
C1808 H1795 0.960 . S
C1808 C1807 1.524 . S
C1809 C1806 1.403 . S
C1809 C1810 1.392 . S
C1809 C1813 1.495 . S
C1810 C1809 1.392 . S
C1810 C1811 1.385 . S
C1810 C1812 1.478 . S
C1811 H1805 0.930 . S
C1811 C1807 1.400 . S
C1811 C1810 1.385 . S
C1812 C1810 1.478 . S
C1812 C1814 1.381 . S
C1812 C1818 1.383 . S
C1813 C1809 1.495 . S
C1813 H1819 0.959 . S
C1813 H1820 0.961 . S
C1813 H1821 0.960 . S
C1814 C1812 1.381 . S
C1814 C1815 1.394 . S
C1814 H1822 0.930 . S
C1815 C1814 1.394 . S
C1815 C1816 1.383 . S
C1815 H1823 0.929 . S
C1816 C1815 1.383 . S
C1816 C1817 1.377 . S
C1817 H1801 0.930 . S
C1817 C1816 1.377 . S
C1817 C1818 1.379 . S
C1818 H1802 0.931 . S
C1818 C1812 1.383 . S
C1818 C1817 1.379 . S
H1819 C1813 0.959 . S
H1820 C1813 0.961 . S
H1821 C1813 0.960 . S
H1822 C1814 0.930 . S
H1823 C1815 0.929 . S
H1824 C1832 0.929 . S
H1825 C1834 0.930 . S
H1826 C1836 0.930 . S
H1827 C1839 0.929 . S
H1828 C1842 0.930 . S
H1829 C1844 0.960 . S
H1830 C1844 0.960 . S
H1831 C1844 0.960 . S
C1832 H1824 0.929 . S
C1832 C1833 1.377 . S
C1832 C1834 1.384 . S
C1833 C1832 1.377 . S
C1833 C1839 1.390 . S
C1834 H1825 0.930 . S
C1834 C1832 1.384 . S
C1834 C1835 1.372 . S
C1835 C1834 1.372 . S
C1835 C1836 1.400 . S
C1835 C1840 1.490 . S
C1836 H1826 0.930 . S
C1836 C1835 1.400 . S
C1836 C1839 1.386 . S
H1837 C1853 0.930 . S
H1838 C1854 0.931 . S
C1839 H1827 0.929 . S
C1839 C1833 1.390 . S
C1839 C1836 1.386 . S
C1840 C1835 1.490 . S
C1840 C1842 1.395 . S
C1840 C1843 1.403 . S
H1841 C1847 0.930 . S
C1842 H1828 0.930 . S
C1842 C1840 1.395 . S
C1842 C1845 1.403 . S
C1843 C1840 1.403 . S
C1843 C1844 1.524 . S
C1843 C1847 1.400 . S
C1844 H1829 0.960 . S
C1844 H1830 0.960 . S
C1844 H1831 0.960 . S
C1844 C1843 1.524 . S
C1845 C1842 1.403 . S
C1845 C1846 1.392 . S
C1845 C1849 1.495 . S
C1846 C1845 1.392 . S
C1846 C1847 1.385 . S
C1846 C1848 1.478 . S
C1847 H1841 0.930 . S
C1847 C1843 1.400 . S
C1847 C1846 1.385 . S
C1848 C1846 1.478 . S
C1848 C1850 1.381 . S
C1848 C1854 1.383 . S
C1849 C1845 1.495 . S
C1849 H1855 0.959 . S
C1849 H1856 0.961 . S
C1849 H1857 0.960 . S
C1850 C1848 1.381 . S
C1850 C1851 1.394 . S
C1850 H1858 0.930 . S
C1851 C1850 1.394 . S
C1851 C1852 1.383 . S
C1851 H1859 0.929 . S
C1852 C1851 1.383 . S
C1852 C1853 1.377 . S
C1853 H1837 0.930 . S
C1853 C1852 1.377 . S
C1853 C1854 1.379 . S
C1854 H1838 0.931 . S
C1854 C1848 1.383 . S
C1854 C1853 1.379 . S
H1855 C1849 0.959 . S
H1856 C1849 0.961 . S
H1857 C1849 0.960 . S
H1858 C1850 0.930 . S
H1859 C1851 0.929 . S
H1860 C1868 0.929 . S
H1861 C1870 0.930 . S
H1862 C1872 0.930 . S
H1863 C1875 0.929 . S
H1864 C1878 0.930 . S
H1865 C1880 0.960 . S
H1866 C1880 0.960 . S
H1867 C1880 0.960 . S
C1868 H1860 0.929 . S
C1868 C1869 1.377 . S
C1868 C1870 1.384 . S
C1869 C1868 1.377 . S
C1869 C1875 1.390 . S
C1870 H1861 0.930 . S
C1870 C1868 1.384 . S
C1870 C1871 1.372 . S
C1871 C1870 1.372 . S
C1871 C1872 1.400 . S
C1871 C1876 1.490 . S
C1872 H1862 0.930 . S
C1872 C1871 1.400 . S
C1872 C1875 1.386 . S
H1873 C1889 0.930 . S
H1874 C1890 0.931 . S
C1875 H1863 0.929 . S
C1875 C1869 1.390 . S
C1875 C1872 1.386 . S
C1876 C1871 1.490 . S
C1876 C1878 1.395 . S
C1876 C1879 1.403 . S
H1877 C1883 0.930 . S
C1878 H1864 0.930 . S
C1878 C1876 1.395 . S
C1878 C1881 1.403 . S
C1879 C1876 1.403 . S
C1879 C1880 1.524 . S
C1879 C1883 1.400 . S
C1880 H1865 0.960 . S
C1880 H1866 0.960 . S
C1880 H1867 0.960 . S
C1880 C1879 1.524 . S
C1881 C1878 1.403 . S
C1881 C1882 1.392 . S
C1881 C1885 1.495 . S
C1882 C1881 1.392 . S
C1882 C1883 1.385 . S
C1882 C1884 1.478 . S
C1883 H1877 0.930 . S
C1883 C1879 1.400 . S
C1883 C1882 1.385 . S
C1884 C1882 1.478 . S
C1884 C1886 1.381 . S
C1884 C1890 1.383 . S
C1885 C1881 1.495 . S
C1885 H1891 0.959 . S
C1885 H1892 0.961 . S
C1885 H1893 0.960 . S
C1886 C1884 1.381 . S
C1886 C1887 1.394 . S
C1886 H1894 0.930 . S
C1887 C1886 1.394 . S
C1887 C1888 1.383 . S
C1887 H1895 0.929 . S
C1888 C1887 1.383 . S
C1888 C1889 1.377 . S
C1889 H1873 0.930 . S
C1889 C1888 1.377 . S
C1889 C1890 1.379 . S
C1890 H1874 0.931 . S
C1890 C1884 1.383 . S
C1890 C1889 1.379 . S
H1891 C1885 0.959 . S
H1892 C1885 0.961 . S
H1893 C1885 0.960 . S
H1894 C1886 0.930 . S
H1895 C1887 0.929 . S
H1896 C1904 0.929 . S
H1897 C1906 0.930 . S
H1898 C1908 0.930 . S
H1899 C1911 0.929 . S
H1900 C1914 0.930 . S
H1901 C1916 0.960 . S
H1902 C1916 0.960 . S
H1903 C1916 0.960 . S
C1904 H1896 0.929 . S
C1904 C1905 1.377 . S
C1904 C1906 1.384 . S
C1905 C1904 1.377 . S
C1905 C1911 1.390 . S
C1906 H1897 0.930 . S
C1906 C1904 1.384 . S
C1906 C1907 1.372 . S
C1907 C1906 1.372 . S
C1907 C1908 1.400 . S
C1907 C1912 1.490 . S
C1908 H1898 0.930 . S
C1908 C1907 1.400 . S
C1908 C1911 1.386 . S
H1909 C1925 0.930 . S
H1910 C1926 0.931 . S
C1911 H1899 0.929 . S
C1911 C1905 1.390 . S
C1911 C1908 1.386 . S
C1912 C1907 1.490 . S
C1912 C1914 1.395 . S
C1912 C1915 1.403 . S
H1913 C1919 0.930 . S
C1914 H1900 0.930 . S
C1914 C1912 1.395 . S
C1914 C1917 1.403 . S
C1915 C1912 1.403 . S
C1915 C1916 1.524 . S
C1915 C1919 1.400 . S
C1916 H1901 0.960 . S
C1916 H1902 0.960 . S
C1916 H1903 0.960 . S
C1916 C1915 1.524 . S
C1917 C1914 1.403 . S
C1917 C1918 1.392 . S
C1917 C1921 1.495 . S
C1918 C1917 1.392 . S
C1918 C1919 1.385 . S
C1918 C1920 1.478 . S
C1919 H1913 0.930 . S
C1919 C1915 1.400 . S
C1919 C1918 1.385 . S
C1920 C1918 1.478 . S
C1920 C1922 1.381 . S
C1920 C1926 1.383 . S
C1921 C1917 1.495 . S
C1921 H1927 0.959 . S
C1921 H1928 0.961 . S
C1921 H1929 0.960 . S
C1922 C1920 1.381 . S
C1922 C1923 1.394 . S
C1922 H1930 0.930 . S
C1923 C1922 1.394 . S
C1923 C1924 1.383 . S
C1923 H1931 0.929 . S
C1924 C1923 1.383 . S
C1924 C1925 1.377 . S
C1925 H1909 0.930 . S
C1925 C1924 1.377 . S
C1925 C1926 1.379 . S
C1926 H1910 0.931 . S
C1926 C1920 1.383 . S
C1926 C1925 1.379 . S
H1927 C1921 0.959 . S
H1928 C1921 0.961 . S
H1929 C1921 0.960 . S
H1930 C1922 0.930 . S
H1931 C1923 0.929 . S
H1932 C1940 0.929 . S
H1933 C1942 0.930 . S
H1934 C1944 0.930 . S
H1935 C1947 0.929 . S
H1936 C1950 0.930 . S
H1937 C1952 0.960 . S
H1938 C1952 0.960 . S
H1939 C1952 0.960 . S
C1940 H1932 0.929 . S
C1940 C1941 1.377 . S
C1940 C1942 1.384 . S
C1941 C1940 1.377 . S
C1941 C1947 1.390 . S
C1942 H1933 0.930 . S
C1942 C1940 1.384 . S
C1942 C1943 1.372 . S
C1943 C1942 1.372 . S
C1943 C1944 1.400 . S
C1943 C1948 1.490 . S
C1944 H1934 0.930 . S
C1944 C1943 1.400 . S
C1944 C1947 1.386 . S
H1945 C1961 0.930 . S
H1946 C1962 0.931 . S
C1947 H1935 0.929 . S
C1947 C1941 1.390 . S
C1947 C1944 1.386 . S
C1948 C1943 1.490 . S
C1948 C1950 1.395 . S
C1948 C1951 1.403 . S
H1949 C1955 0.930 . S
C1950 H1936 0.930 . S
C1950 C1948 1.395 . S
C1950 C1953 1.403 . S
C1951 C1948 1.403 . S
C1951 C1952 1.524 . S
C1951 C1955 1.400 . S
C1952 H1937 0.960 . S
C1952 H1938 0.960 . S
C1952 H1939 0.960 . S
C1952 C1951 1.524 . S
C1953 C1950 1.403 . S
C1953 C1954 1.392 . S
C1953 C1957 1.495 . S
C1954 C1953 1.392 . S
C1954 C1955 1.385 . S
C1954 C1956 1.478 . S
C1955 H1949 0.930 . S
C1955 C1951 1.400 . S
C1955 C1954 1.385 . S
C1956 C1954 1.478 . S
C1956 C1958 1.381 . S
C1956 C1962 1.383 . S
C1957 C1953 1.495 . S
C1957 H1963 0.959 . S
C1957 H1964 0.961 . S
C1957 H1965 0.960 . S
C1958 C1956 1.381 . S
C1958 C1959 1.394 . S
C1958 H1966 0.930 . S
C1959 C1958 1.394 . S
C1959 C1960 1.383 . S
C1959 H1967 0.929 . S
C1960 C1959 1.383 . S
C1960 C1961 1.377 . S
C1961 H1945 0.930 . S
C1961 C1960 1.377 . S
C1961 C1962 1.379 . S
C1962 H1946 0.931 . S
C1962 C1956 1.383 . S
C1962 C1961 1.379 . S
H1963 C1957 0.959 . S
H1964 C1957 0.961 . S
H1965 C1957 0.960 . S
H1966 C1958 0.930 . S
H1967 C1959 0.929 . S
H1968 C1976 0.929 . S
H1969 C1978 0.930 . S
H1970 C1980 0.930 . S
H1971 C1983 0.929 . S
H1972 C1986 0.930 . S
H1973 C1988 0.960 . S
H1974 C1988 0.960 . S
H1975 C1988 0.960 . S
C1976 H1968 0.929 . S
C1976 C1977 1.377 . S
C1976 C1978 1.384 . S
C1977 C1976 1.377 . S
C1977 C1983 1.390 . S
C1978 H1969 0.930 . S
C1978 C1976 1.384 . S
C1978 C1979 1.372 . S
C1979 C1978 1.372 . S
C1979 C1980 1.400 . S
C1979 C1984 1.490 . S
C1980 H1970 0.930 . S
C1980 C1979 1.400 . S
C1980 C1983 1.386 . S
H1981 C1997 0.930 . S
H1982 C1998 0.931 . S
C1983 H1971 0.929 . S
C1983 C1977 1.390 . S
C1983 C1980 1.386 . S
C1984 C1979 1.490 . S
C1984 C1986 1.395 . S
C1984 C1987 1.403 . S
H1985 C1991 0.930 . S
C1986 H1972 0.930 . S
C1986 C1984 1.395 . S
C1986 C1989 1.403 . S
C1987 C1984 1.403 . S
C1987 C1988 1.524 . S
C1987 C1991 1.400 . S
C1988 H1973 0.960 . S
C1988 H1974 0.960 . S
C1988 H1975 0.960 . S
C1988 C1987 1.524 . S
C1989 C1986 1.403 . S
C1989 C1990 1.392 . S
C1989 C1993 1.495 . S
C1990 C1989 1.392 . S
C1990 C1991 1.385 . S
C1990 C1992 1.478 . S
C1991 H1985 0.930 . S
C1991 C1987 1.400 . S
C1991 C1990 1.385 . S
C1992 C1990 1.478 . S
C1992 C1994 1.381 . S
C1992 C1998 1.383 . S
C1993 C1989 1.495 . S
C1993 H1999 0.959 . S
C1993 H2000 0.961 . S
C1993 H2001 0.960 . S
C1994 C1992 1.381 . S
C1994 C1995 1.394 . S
C1994 H2002 0.930 . S
C1995 C1994 1.394 . S
C1995 C1996 1.383 . S
C1995 H2003 0.929 . S
C1996 C1995 1.383 . S
C1996 C1997 1.377 . S
C1997 H1981 0.930 . S
C1997 C1996 1.377 . S
C1997 C1998 1.379 . S
C1998 H1982 0.931 . S
C1998 C1992 1.383 . S
C1998 C1997 1.379 . S
H1999 C1993 0.959 . S
H2000 C1993 0.961 . S
H2001 C1993 0.960 . S
H2002 C1994 0.930 . S
H2003 C1995 0.929 . S
H2004 C2012 0.929 . S
H2005 C2014 0.930 . S
H2006 C2016 0.930 . S
H2007 C2019 0.929 . S
H2008 C2022 0.930 . S
H2009 C2024 0.960 . S
H2010 C2024 0.960 . S
H2011 C2024 0.960 . S
C2012 H2004 0.929 . S
C2012 C2013 1.377 . S
C2012 C2014 1.384 . S
C2013 C2012 1.377 . S
C2013 C2019 1.390 . S
C2014 H2005 0.930 . S
C2014 C2012 1.384 . S
C2014 C2015 1.372 . S
C2015 C2014 1.372 . S
C2015 C2016 1.400 . S
C2015 C2020 1.490 . S
C2016 H2006 0.930 . S
C2016 C2015 1.400 . S
C2016 C2019 1.386 . S
H2017 C2033 0.930 . S
H2018 C2034 0.931 . S
C2019 H2007 0.929 . S
C2019 C2013 1.390 . S
C2019 C2016 1.386 . S
C2020 C2015 1.490 . S
C2020 C2022 1.395 . S
C2020 C2023 1.403 . S
H2021 C2027 0.930 . S
C2022 H2008 0.930 . S
C2022 C2020 1.395 . S
C2022 C2025 1.403 . S
C2023 C2020 1.403 . S
C2023 C2024 1.524 . S
C2023 C2027 1.400 . S
C2024 H2009 0.960 . S
C2024 H2010 0.960 . S
C2024 H2011 0.960 . S
C2024 C2023 1.524 . S
C2025 C2022 1.403 . S
C2025 C2026 1.392 . S
C2025 C2029 1.495 . S
C2026 C2025 1.392 . S
C2026 C2027 1.385 . S
C2026 C2028 1.478 . S
C2027 H2021 0.930 . S
C2027 C2023 1.400 . S
C2027 C2026 1.385 . S
C2028 C2026 1.478 . S
C2028 C2030 1.381 . S
C2028 C2034 1.383 . S
C2029 C2025 1.495 . S
C2029 H2035 0.959 . S
C2029 H2036 0.961 . S
C2029 H2037 0.960 . S
C2030 C2028 1.381 . S
C2030 C2031 1.394 . S
C2030 H2038 0.930 . S
C2031 C2030 1.394 . S
C2031 C2032 1.383 . S
C2031 H2039 0.929 . S
C2032 C2031 1.383 . S
C2032 C2033 1.377 . S
C2033 H2017 0.930 . S
C2033 C2032 1.377 . S
C2033 C2034 1.379 . S
C2034 H2018 0.931 . S
C2034 C2028 1.383 . S
C2034 C2033 1.379 . S
H2035 C2029 0.959 . S
H2036 C2029 0.961 . S
H2037 C2029 0.960 . S
H2038 C2030 0.930 . S
H2039 C2031 0.929 . S
H2040 C2048 0.929 . S
H2041 C2050 0.930 . S
H2042 C2052 0.930 . S
H2043 C2055 0.929 . S
H2044 C2058 0.930 . S
H2045 C2060 0.960 . S
H2046 C2060 0.960 . S
H2047 C2060 0.960 . S
C2048 H2040 0.929 . S
C2048 C2049 1.377 . S
C2048 C2050 1.384 . S
C2049 C2048 1.377 . S
C2049 C2055 1.390 . S
C2050 H2041 0.930 . S
C2050 C2048 1.384 . S
C2050 C2051 1.372 . S
C2051 C2050 1.372 . S
C2051 C2052 1.400 . S
C2051 C2056 1.490 . S
C2052 H2042 0.930 . S
C2052 C2051 1.400 . S
C2052 C2055 1.386 . S
H2053 C2069 0.930 . S
H2054 C2070 0.931 . S
C2055 H2043 0.929 . S
C2055 C2049 1.390 . S
C2055 C2052 1.386 . S
C2056 C2051 1.490 . S
C2056 C2058 1.395 . S
C2056 C2059 1.403 . S
H2057 C2063 0.930 . S
C2058 H2044 0.930 . S
C2058 C2056 1.395 . S
C2058 C2061 1.403 . S
C2059 C2056 1.403 . S
C2059 C2060 1.524 . S
C2059 C2063 1.400 . S
C2060 H2045 0.960 . S
C2060 H2046 0.960 . S
C2060 H2047 0.960 . S
C2060 C2059 1.524 . S
C2061 C2058 1.403 . S
C2061 C2062 1.392 . S
C2061 C2065 1.495 . S
C2062 C2061 1.392 . S
C2062 C2063 1.385 . S
C2062 C2064 1.478 . S
C2063 H2057 0.930 . S
C2063 C2059 1.400 . S
C2063 C2062 1.385 . S
C2064 C2062 1.478 . S
C2064 C2066 1.381 . S
C2064 C2070 1.383 . S
C2065 C2061 1.495 . S
C2065 H2071 0.959 . S
C2065 H2072 0.961 . S
C2065 H2073 0.960 . S
C2066 C2064 1.381 . S
C2066 C2067 1.394 . S
C2066 H2074 0.930 . S
C2067 C2066 1.394 . S
C2067 C2068 1.383 . S
C2067 H2075 0.929 . S
C2068 C2067 1.383 . S
C2068 C2069 1.377 . S
C2069 H2053 0.930 . S
C2069 C2068 1.377 . S
C2069 C2070 1.379 . S
C2070 H2054 0.931 . S
C2070 C2064 1.383 . S
C2070 C2069 1.379 . S
H2071 C2065 0.959 . S
H2072 C2065 0.961 . S
H2073 C2065 0.960 . S
H2074 C2066 0.930 . S
H2075 C2067 0.929 . S
H2076 C2084 0.929 . S
H2077 C2086 0.930 . S
H2078 C2088 0.930 . S
H2079 C2091 0.929 . S
H2080 C2094 0.930 . S
H2081 C2096 0.960 . S
H2082 C2096 0.960 . S
H2083 C2096 0.960 . S
C2084 H2076 0.929 . S
C2084 C2085 1.377 . S
C2084 C2086 1.384 . S
C2085 C2084 1.377 . S
C2085 C2091 1.390 . S
C2086 H2077 0.930 . S
C2086 C2084 1.384 . S
C2086 C2087 1.372 . S
C2087 C2086 1.372 . S
C2087 C2088 1.400 . S
C2087 C2092 1.490 . S
C2088 H2078 0.930 . S
C2088 C2087 1.400 . S
C2088 C2091 1.386 . S
H2089 C2105 0.930 . S
H2090 C2106 0.931 . S
C2091 H2079 0.929 . S
C2091 C2085 1.390 . S
C2091 C2088 1.386 . S
C2092 C2087 1.490 . S
C2092 C2094 1.395 . S
C2092 C2095 1.403 . S
H2093 C2099 0.930 . S
C2094 H2080 0.930 . S
C2094 C2092 1.395 . S
C2094 C2097 1.403 . S
C2095 C2092 1.403 . S
C2095 C2096 1.524 . S
C2095 C2099 1.400 . S
C2096 H2081 0.960 . S
C2096 H2082 0.960 . S
C2096 H2083 0.960 . S
C2096 C2095 1.524 . S
C2097 C2094 1.403 . S
C2097 C2098 1.392 . S
C2097 C2101 1.495 . S
C2098 C2097 1.392 . S
C2098 C2099 1.385 . S
C2098 C2100 1.478 . S
C2099 H2093 0.930 . S
C2099 C2095 1.400 . S
C2099 C2098 1.385 . S
C2100 C2098 1.478 . S
C2100 C2102 1.381 . S
C2100 C2106 1.383 . S
C2101 C2097 1.495 . S
C2101 H2107 0.959 . S
C2101 H2108 0.961 . S
C2101 H2109 0.960 . S
C2102 C2100 1.381 . S
C2102 C2103 1.394 . S
C2102 H2110 0.930 . S
C2103 C2102 1.394 . S
C2103 C2104 1.383 . S
C2103 H2111 0.929 . S
C2104 C2103 1.383 . S
C2104 C2105 1.377 . S
C2105 H2089 0.930 . S
C2105 C2104 1.377 . S
C2105 C2106 1.379 . S
C2106 H2090 0.931 . S
C2106 C2100 1.383 . S
C2106 C2105 1.379 . S
H2107 C2101 0.959 . S
H2108 C2101 0.961 . S
H2109 C2101 0.960 . S
H2110 C2102 0.930 . S
H2111 C2103 0.929 . S
H2112 C2120 0.929 . S
H2113 C2122 0.930 . S
H2114 C2124 0.930 . S
H2115 C2127 0.929 . S
H2116 C2130 0.930 . S
H2117 C2132 0.960 . S
H2118 C2132 0.960 . S
H2119 C2132 0.960 . S
C2120 H2112 0.929 . S
C2120 C2121 1.377 . S
C2120 C2122 1.384 . S
C2121 C2120 1.377 . S
C2121 C2127 1.390 . S
C2122 H2113 0.930 . S
C2122 C2120 1.384 . S
C2122 C2123 1.372 . S
C2123 C2122 1.372 . S
C2123 C2124 1.400 . S
C2123 C2128 1.490 . S
C2124 H2114 0.930 . S
C2124 C2123 1.400 . S
C2124 C2127 1.386 . S
H2125 C2141 0.930 . S
H2126 C2142 0.931 . S
C2127 H2115 0.929 . S
C2127 C2121 1.390 . S
C2127 C2124 1.386 . S
C2128 C2123 1.490 . S
C2128 C2130 1.395 . S
C2128 C2131 1.403 . S
H2129 C2135 0.930 . S
C2130 H2116 0.930 . S
C2130 C2128 1.395 . S
C2130 C2133 1.403 . S
C2131 C2128 1.403 . S
C2131 C2132 1.524 . S
C2131 C2135 1.400 . S
C2132 H2117 0.960 . S
C2132 H2118 0.960 . S
C2132 H2119 0.960 . S
C2132 C2131 1.524 . S
C2133 C2130 1.403 . S
C2133 C2134 1.392 . S
C2133 C2137 1.495 . S
C2134 C2133 1.392 . S
C2134 C2135 1.385 . S
C2134 C2136 1.478 . S
C2135 H2129 0.930 . S
C2135 C2131 1.400 . S
C2135 C2134 1.385 . S
C2136 C2134 1.478 . S
C2136 C2138 1.381 . S
C2136 C2142 1.383 . S
C2137 C2133 1.495 . S
C2137 H2143 0.959 . S
C2137 H2144 0.961 . S
C2137 H2145 0.960 . S
C2138 C2136 1.381 . S
C2138 C2139 1.394 . S
C2138 H2146 0.930 . S
C2139 C2138 1.394 . S
C2139 C2140 1.383 . S
C2139 H2147 0.929 . S
C2140 C2139 1.383 . S
C2140 C2141 1.377 . S
C2141 H2125 0.930 . S
C2141 C2140 1.377 . S
C2141 C2142 1.379 . S
C2142 H2126 0.931 . S
C2142 C2136 1.383 . S
C2142 C2141 1.379 . S
H2143 C2137 0.959 . S
H2144 C2137 0.961 . S
H2145 C2137 0.960 . S
H2146 C2138 0.930 . S
H2147 C2139 0.929 . S
H2148 C2156 0.929 . S
H2149 C2158 0.930 . S
H2150 C2160 0.930 . S
H2151 C2163 0.929 . S
H2152 C2166 0.930 . S
H2153 C2168 0.960 . S
H2154 C2168 0.960 . S
H2155 C2168 0.960 . S
C2156 H2148 0.929 . S
C2156 C2157 1.377 . S
C2156 C2158 1.384 . S
C2157 C2156 1.377 . S
C2157 C2163 1.390 . S
C2158 H2149 0.930 . S
C2158 C2156 1.384 . S
C2158 C2159 1.372 . S
C2159 C2158 1.372 . S
C2159 C2160 1.400 . S
C2159 C2164 1.490 . S
C2160 H2150 0.930 . S
C2160 C2159 1.400 . S
C2160 C2163 1.386 . S
H2161 C2177 0.930 . S
H2162 C2178 0.931 . S
C2163 H2151 0.929 . S
C2163 C2157 1.390 . S
C2163 C2160 1.386 . S
C2164 C2159 1.490 . S
C2164 C2166 1.395 . S
C2164 C2167 1.403 . S
H2165 C2171 0.930 . S
C2166 H2152 0.930 . S
C2166 C2164 1.395 . S
C2166 C2169 1.403 . S
C2167 C2164 1.403 . S
C2167 C2168 1.524 . S
C2167 C2171 1.400 . S
C2168 H2153 0.960 . S
C2168 H2154 0.960 . S
C2168 H2155 0.960 . S
C2168 C2167 1.524 . S
C2169 C2166 1.403 . S
C2169 C2170 1.392 . S
C2169 C2173 1.495 . S
C2170 C2169 1.392 . S
C2170 C2171 1.385 . S
C2170 C2172 1.478 . S
C2171 H2165 0.930 . S
C2171 C2167 1.400 . S
C2171 C2170 1.385 . S
C2172 C2170 1.478 . S
C2172 C2174 1.381 . S
C2172 C2178 1.383 . S
C2173 C2169 1.495 . S
C2173 H2179 0.959 . S
C2173 H2180 0.961 . S
C2173 H2181 0.960 . S
C2174 C2172 1.381 . S
C2174 C2175 1.394 . S
C2174 H2182 0.930 . S
C2175 C2174 1.394 . S
C2175 C2176 1.383 . S
C2175 H2183 0.929 . S
C2176 C2175 1.383 . S
C2176 C2177 1.377 . S
C2177 H2161 0.930 . S
C2177 C2176 1.377 . S
C2177 C2178 1.379 . S
C2178 H2162 0.931 . S
C2178 C2172 1.383 . S
C2178 C2177 1.379 . S
H2179 C2173 0.959 . S
H2180 C2173 0.961 . S
H2181 C2173 0.960 . S
H2182 C2174 0.930 . S
H2183 C2175 0.929 . S
H2184 C2192 0.929 . S
H2185 C2194 0.930 . S
H2186 C2196 0.930 . S
H2187 C2199 0.929 . S
H2188 C2202 0.930 . S
H2189 C2204 0.960 . S
H2190 C2204 0.960 . S
H2191 C2204 0.960 . S
C2192 H2184 0.929 . S
C2192 C2193 1.377 . S
C2192 C2194 1.384 . S
C2193 C2192 1.377 . S
C2193 C2199 1.390 . S
C2194 H2185 0.930 . S
C2194 C2192 1.384 . S
C2194 C2195 1.372 . S
C2195 C2194 1.372 . S
C2195 C2196 1.400 . S
C2195 C2200 1.490 . S
C2196 H2186 0.930 . S
C2196 C2195 1.400 . S
C2196 C2199 1.386 . S
H2197 C2213 0.930 . S
H2198 C2214 0.931 . S
C2199 H2187 0.929 . S
C2199 C2193 1.390 . S
C2199 C2196 1.386 . S
C2200 C2195 1.490 . S
C2200 C2202 1.395 . S
C2200 C2203 1.403 . S
H2201 C2207 0.930 . S
C2202 H2188 0.930 . S
C2202 C2200 1.395 . S
C2202 C2205 1.403 . S
C2203 C2200 1.403 . S
C2203 C2204 1.524 . S
C2203 C2207 1.400 . S
C2204 H2189 0.960 . S
C2204 H2190 0.960 . S
C2204 H2191 0.960 . S
C2204 C2203 1.524 . S
C2205 C2202 1.403 . S
C2205 C2206 1.392 . S
C2205 C2209 1.495 . S
C2206 C2205 1.392 . S
C2206 C2207 1.385 . S
C2206 C2208 1.478 . S
C2207 H2201 0.930 . S
C2207 C2203 1.400 . S
C2207 C2206 1.385 . S
C2208 C2206 1.478 . S
C2208 C2210 1.381 . S
C2208 C2214 1.383 . S
C2209 C2205 1.495 . S
C2209 H2215 0.959 . S
C2209 H2216 0.961 . S
C2209 H2217 0.960 . S
C2210 C2208 1.381 . S
C2210 C2211 1.394 . S
C2210 H2218 0.930 . S
C2211 C2210 1.394 . S
C2211 C2212 1.383 . S
C2211 H2219 0.929 . S
C2212 C2211 1.383 . S
C2212 C2213 1.377 . S
C2213 H2197 0.930 . S
C2213 C2212 1.377 . S
C2213 C2214 1.379 . S
C2214 H2198 0.931 . S
C2214 C2208 1.383 . S
C2214 C2213 1.379 . S
H2215 C2209 0.959 . S
H2216 C2209 0.961 . S
H2217 C2209 0.960 . S
H2218 C2210 0.930 . S
H2219 C2211 0.929 . S
H2220 C2228 0.929 . S
H2221 C2230 0.930 . S
H2222 C2232 0.930 . S
H2223 C2235 0.929 . S
H2224 C2238 0.930 . S
H2225 C2240 0.960 . S
H2226 C2240 0.960 . S
H2227 C2240 0.960 . S
C2228 H2220 0.929 . S
C2228 C2229 1.377 . S
C2228 C2230 1.384 . S
C2229 C2228 1.377 . S
C2229 C2235 1.390 . S
C2230 H2221 0.930 . S
C2230 C2228 1.384 . S
C2230 C2231 1.372 . S
C2231 C2230 1.372 . S
C2231 C2232 1.400 . S
C2231 C2236 1.490 . S
C2232 H2222 0.930 . S
C2232 C2231 1.400 . S
C2232 C2235 1.386 . S
H2233 C2249 0.930 . S
H2234 C2250 0.931 . S
C2235 H2223 0.929 . S
C2235 C2229 1.390 . S
C2235 C2232 1.386 . S
C2236 C2231 1.490 . S
C2236 C2238 1.395 . S
C2236 C2239 1.403 . S
H2237 C2243 0.930 . S
C2238 H2224 0.930 . S
C2238 C2236 1.395 . S
C2238 C2241 1.403 . S
C2239 C2236 1.403 . S
C2239 C2240 1.524 . S
C2239 C2243 1.400 . S
C2240 H2225 0.960 . S
C2240 H2226 0.960 . S
C2240 H2227 0.960 . S
C2240 C2239 1.524 . S
C2241 C2238 1.403 . S
C2241 C2242 1.392 . S
C2241 C2245 1.495 . S
C2242 C2241 1.392 . S
C2242 C2243 1.385 . S
C2242 C2244 1.478 . S
C2243 H2237 0.930 . S
C2243 C2239 1.400 . S
C2243 C2242 1.385 . S
C2244 C2242 1.478 . S
C2244 C2246 1.381 . S
C2244 C2250 1.383 . S
C2245 C2241 1.495 . S
C2245 H2251 0.959 . S
C2245 H2252 0.961 . S
C2245 H2253 0.960 . S
C2246 C2244 1.381 . S
C2246 C2247 1.394 . S
C2246 H2254 0.930 . S
C2247 C2246 1.394 . S
C2247 C2248 1.383 . S
C2247 H2255 0.929 . S
C2248 C2247 1.383 . S
C2248 C2249 1.377 . S
C2249 H2233 0.930 . S
C2249 C2248 1.377 . S
C2249 C2250 1.379 . S
C2250 H2234 0.931 . S
C2250 C2244 1.383 . S
C2250 C2249 1.379 . S
H2251 C2245 0.959 . S
H2252 C2245 0.961 . S
H2253 C2245 0.960 . S
H2254 C2246 0.930 . S
H2255 C2247 0.929 . S
H2256 C2264 0.929 . S
H2257 C2266 0.930 . S
H2258 C2268 0.930 . S
H2259 C2271 0.929 . S
H2260 C2274 0.930 . S
H2261 C2276 0.960 . S
H2262 C2276 0.960 . S
H2263 C2276 0.960 . S
C2264 H2256 0.929 . S
C2264 C2265 1.377 . S
C2264 C2266 1.384 . S
C2265 C2264 1.377 . S
C2265 C2271 1.390 . S
C2266 H2257 0.930 . S
C2266 C2264 1.384 . S
C2266 C2267 1.372 . S
C2267 C2266 1.372 . S
C2267 C2268 1.400 . S
C2267 C2272 1.490 . S
C2268 H2258 0.930 . S
C2268 C2267 1.400 . S
C2268 C2271 1.386 . S
H2269 C2285 0.930 . S
H2270 C2286 0.931 . S
C2271 H2259 0.929 . S
C2271 C2265 1.390 . S
C2271 C2268 1.386 . S
C2272 C2267 1.490 . S
C2272 C2274 1.395 . S
C2272 C2275 1.403 . S
H2273 C2279 0.930 . S
C2274 H2260 0.930 . S
C2274 C2272 1.395 . S
C2274 C2277 1.403 1_655 S
C2275 C2272 1.403 . S
C2275 C2276 1.524 . S
C2275 C2279 1.400 1_655 S
C2276 H2261 0.960 . S
C2276 H2262 0.960 . S
C2276 H2263 0.960 . S
C2276 C2275 1.524 . S
C2277 C2274 1.403 1_455 S
C2277 C2278 1.392 . S
C2277 C2281 1.495 . S
C2278 C2277 1.392 . S
C2278 C2279 1.385 . S
C2278 C2280 1.478 . S
C2279 H2273 0.930 . S
C2279 C2275 1.400 1_455 S
C2279 C2278 1.385 . S
C2280 C2278 1.478 . S
C2280 C2282 1.381 . S
C2280 C2286 1.383 . S
C2281 C2277 1.495 . S
C2281 H2287 0.959 . S
C2281 H2288 0.961 . S
C2281 H2289 0.960 . S
C2282 C2280 1.381 . S
C2282 C2283 1.394 . S
C2282 H2290 0.930 . S
C2283 C2282 1.394 . S
C2283 C2284 1.383 . S
C2283 H2291 0.929 . S
C2284 C2283 1.383 . S
C2284 C2285 1.377 . S
C2285 H2269 0.930 . S
C2285 C2284 1.377 . S
C2285 C2286 1.379 . S
C2286 H2270 0.931 . S
C2286 C2280 1.383 . S
C2286 C2285 1.379 . S
H2287 C2281 0.959 . S
H2288 C2281 0.961 . S
H2289 C2281 0.960 . S
H2290 C2282 0.930 . S
H2291 C2283 0.929 . S
H2292 C2300 0.929 . S
H2293 C2302 0.930 . S
H2294 C2304 0.930 . S
H2295 C2307 0.929 . S
H2296 C2310 0.930 . S
H2297 C2312 0.960 . S
H2298 C2312 0.960 . S
H2299 C2312 0.960 . S
C2300 H2292 0.929 . S
C2300 C2301 1.377 . S
C2300 C2302 1.384 . S
C2301 C2300 1.377 . S
C2301 C2307 1.390 . S
C2302 H2293 0.930 . S
C2302 C2300 1.384 . S
C2302 C2303 1.372 . S
C2303 C2302 1.372 . S
C2303 C2304 1.400 . S
C2303 C2308 1.490 . S
C2304 H2294 0.930 . S
C2304 C2303 1.400 . S
C2304 C2307 1.386 . S
H2305 C2321 0.930 . S
H2306 C2322 0.931 . S
C2307 H2295 0.929 . S
C2307 C2301 1.390 . S
C2307 C2304 1.386 . S
C2308 C2303 1.490 . S
C2308 C2310 1.395 . S
C2308 C2311 1.403 . S
H2309 C2315 0.930 . S
C2310 H2296 0.930 . S
C2310 C2308 1.395 . S
C2310 C2313 1.403 1_565 S
C2311 C2308 1.403 . S
C2311 C2312 1.524 . S
C2311 C2315 1.400 1_565 S
C2312 H2297 0.960 . S
C2312 H2298 0.960 . S
C2312 H2299 0.960 . S
C2312 C2311 1.524 . S
C2313 C2310 1.403 1_545 S
C2313 C2314 1.392 . S
C2313 C2317 1.495 . S
C2314 C2313 1.392 . S
C2314 C2315 1.385 . S
C2314 C2316 1.478 . S
C2315 H2309 0.930 . S
C2315 C2311 1.400 1_545 S
C2315 C2314 1.385 . S
C2316 C2314 1.478 . S
C2316 C2318 1.381 . S
C2316 C2322 1.383 . S
C2317 C2313 1.495 . S
C2317 H2323 0.959 . S
C2317 H2324 0.961 . S
C2317 H2325 0.960 . S
C2318 C2316 1.381 . S
C2318 C2319 1.394 . S
C2318 H2326 0.930 . S
C2319 C2318 1.394 . S
C2319 C2320 1.383 . S
C2319 H2327 0.929 . S
C2320 C2319 1.383 . S
C2320 C2321 1.377 . S
C2321 H2305 0.930 . S
C2321 C2320 1.377 . S
C2321 C2322 1.379 . S
C2322 H2306 0.931 . S
C2322 C2316 1.383 . S
C2322 C2321 1.379 . S
H2323 C2317 0.959 . S
H2324 C2317 0.961 . S
H2325 C2317 0.960 . S
H2326 C2318 0.930 . S
H2327 C2319 0.929 . S
H2328 C2336 0.929 . S
H2329 C2338 0.930 . S
H2330 C2340 0.930 . S
H2331 C2343 0.929 . S
H2332 C2346 0.930 . S
H2333 C2348 0.960 . S
H2334 C2348 0.960 . S
H2335 C2348 0.960 . S
C2336 H2328 0.929 . S
C2336 C2337 1.377 . S
C2336 C2338 1.384 . S
C2337 C2336 1.377 . S
C2337 C2343 1.390 . S
C2338 H2329 0.930 . S
C2338 C2336 1.384 . S
C2338 C2339 1.372 . S
C2339 C2338 1.372 . S
C2339 C2340 1.400 . S
C2339 C2344 1.490 . S
C2340 H2330 0.930 . S
C2340 C2339 1.400 . S
C2340 C2343 1.386 . S
H2341 C2357 0.930 . S
H2342 C2358 0.931 . S
C2343 H2331 0.929 . S
C2343 C2337 1.390 . S
C2343 C2340 1.386 . S
C2344 C2339 1.490 . S
C2344 C2346 1.395 . S
C2344 C2347 1.403 . S
H2345 C2351 0.930 . S
C2346 H2332 0.930 . S
C2346 C2344 1.395 . S
C2346 C2349 1.403 . S
C2347 C2344 1.403 . S
C2347 C2348 1.524 . S
C2347 C2351 1.400 . S
C2348 H2333 0.960 . S
C2348 H2334 0.960 . S
C2348 H2335 0.960 . S
C2348 C2347 1.524 . S
C2349 C2346 1.403 . S
C2349 C2350 1.392 . S
C2349 C2353 1.495 . S
C2350 C2349 1.392 . S
C2350 C2351 1.385 . S
C2350 C2352 1.478 . S
C2351 H2345 0.930 . S
C2351 C2347 1.400 . S
C2351 C2350 1.385 . S
C2352 C2350 1.478 . S
C2352 C2354 1.381 . S
C2352 C2358 1.383 . S
C2353 C2349 1.495 . S
C2353 H2359 0.959 . S
C2353 H2360 0.961 . S
C2353 H2361 0.960 . S
C2354 C2352 1.381 . S
C2354 C2355 1.394 . S
C2354 H2362 0.930 . S
C2355 C2354 1.394 . S
C2355 C2356 1.383 . S
C2355 H2363 0.929 . S
C2356 C2355 1.383 . S
C2356 C2357 1.377 . S
C2357 H2341 0.930 . S
C2357 C2356 1.377 . S
C2357 C2358 1.379 . S
C2358 H2342 0.931 . S
C2358 C2352 1.383 . S
C2358 C2357 1.379 . S
H2359 C2353 0.959 . S
H2360 C2353 0.961 . S
H2361 C2353 0.960 . S
H2362 C2354 0.930 . S
H2363 C2355 0.929 . S
H2364 C2372 0.929 . S
H2365 C2374 0.930 . S
H2366 C2376 0.930 . S
H2367 C2379 0.929 . S
H2368 C2382 0.930 . S
H2369 C2384 0.960 . S
H2370 C2384 0.960 . S
H2371 C2384 0.960 . S
C2372 H2364 0.929 . S
C2372 C2373 1.377 . S
C2372 C2374 1.384 . S
C2373 C2372 1.377 . S
C2373 C2379 1.390 . S
C2374 H2365 0.930 . S
C2374 C2372 1.384 . S
C2374 C2375 1.372 . S
C2375 C2374 1.372 . S
C2375 C2376 1.400 . S
C2375 C2380 1.490 . S
C2376 H2366 0.930 . S
C2376 C2375 1.400 . S
C2376 C2379 1.386 . S
H2377 C2393 0.930 . S
H2378 C2394 0.931 . S
C2379 H2367 0.929 . S
C2379 C2373 1.390 . S
C2379 C2376 1.386 . S
C2380 C2375 1.490 . S
C2380 C2382 1.395 . S
C2380 C2383 1.403 . S
H2381 C2387 0.930 . S
C2382 H2368 0.930 . S
C2382 C2380 1.395 . S
C2382 C2385 1.403 1_455 S
C2383 C2380 1.403 . S
C2383 C2384 1.524 . S
C2383 C2387 1.400 1_455 S
C2384 H2369 0.960 . S
C2384 H2370 0.960 . S
C2384 H2371 0.960 . S
C2384 C2383 1.524 . S
C2385 C2382 1.403 1_655 S
C2385 C2386 1.392 . S
C2385 C2389 1.495 . S
C2386 C2385 1.392 . S
C2386 C2387 1.385 . S
C2386 C2388 1.478 . S
C2387 H2381 0.930 . S
C2387 C2383 1.400 1_655 S
C2387 C2386 1.385 . S
C2388 C2386 1.478 . S
C2388 C2390 1.381 . S
C2388 C2394 1.383 . S
C2389 C2385 1.495 . S
C2389 H2395 0.959 . S
C2389 H2396 0.961 . S
C2389 H2397 0.960 . S
C2390 C2388 1.381 . S
C2390 C2391 1.394 . S
C2390 H2398 0.930 . S
C2391 C2390 1.394 . S
C2391 C2392 1.383 . S
C2391 H2399 0.929 . S
C2392 C2391 1.383 . S
C2392 C2393 1.377 . S
C2393 H2377 0.930 . S
C2393 C2392 1.377 . S
C2393 C2394 1.379 . S
C2394 H2378 0.931 . S
C2394 C2388 1.383 . S
C2394 C2393 1.379 . S
H2395 C2389 0.959 . S
H2396 C2389 0.961 . S
H2397 C2389 0.960 . S
H2398 C2390 0.930 . S
H2399 C2391 0.929 . S
H2400 C2408 0.929 . S
H2401 C2410 0.930 . S
H2402 C2412 0.930 . S
H2403 C2415 0.929 . S
H2404 C2418 0.930 . S
H2405 C2420 0.960 . S
H2406 C2420 0.960 . S
H2407 C2420 0.960 . S
C2408 H2400 0.929 . S
C2408 C2409 1.377 . S
C2408 C2410 1.384 . S
C2409 C2408 1.377 . S
C2409 C2415 1.390 . S
C2410 H2401 0.930 . S
C2410 C2408 1.384 . S
C2410 C2411 1.372 . S
C2411 C2410 1.372 . S
C2411 C2412 1.400 . S
C2411 C2416 1.490 . S
C2412 H2402 0.930 . S
C2412 C2411 1.400 . S
C2412 C2415 1.386 . S
H2413 C2429 0.930 . S
H2414 C2430 0.931 . S
C2415 H2403 0.929 . S
C2415 C2409 1.390 . S
C2415 C2412 1.386 . S
C2416 C2411 1.490 . S
C2416 C2418 1.395 . S
C2416 C2419 1.403 . S
H2417 C2423 0.930 . S
C2418 H2404 0.930 . S
C2418 C2416 1.395 . S
C2418 C2421 1.403 1_545 S
C2419 C2416 1.403 . S
C2419 C2420 1.524 . S
C2419 C2423 1.400 1_545 S
C2420 H2405 0.960 . S
C2420 H2406 0.960 . S
C2420 H2407 0.960 . S
C2420 C2419 1.524 . S
C2421 C2418 1.403 1_565 S
C2421 C2422 1.392 . S
C2421 C2425 1.495 . S
C2422 C2421 1.392 . S
C2422 C2423 1.385 . S
C2422 C2424 1.478 . S
C2423 H2417 0.930 . S
C2423 C2419 1.400 1_565 S
C2423 C2422 1.385 . S
C2424 C2422 1.478 . S
C2424 C2426 1.381 . S
C2424 C2430 1.383 . S
C2425 C2421 1.495 . S
C2425 H2431 0.959 . S
C2425 H2432 0.961 . S
C2425 H2433 0.960 . S
C2426 C2424 1.381 . S
C2426 C2427 1.394 . S
C2426 H2434 0.930 . S
C2427 C2426 1.394 . S
C2427 C2428 1.383 . S
C2427 H2435 0.929 . S
C2428 C2427 1.383 . S
C2428 C2429 1.377 . S
C2429 H2413 0.930 . S
C2429 C2428 1.377 . S
C2429 C2430 1.379 . S
C2430 H2414 0.931 . S
C2430 C2424 1.383 . S
C2430 C2429 1.379 . S
H2431 C2425 0.959 . S
H2432 C2425 0.961 . S
H2433 C2425 0.960 . S
H2434 C2426 0.930 . S
H2435 C2427 0.929 . S
H2436 C2444 0.929 . S
H2437 C2446 0.930 . S
H2438 C2448 0.930 . S
H2439 C2451 0.929 . S
H2440 C2454 0.930 . S
H2441 C2456 0.960 . S
H2442 C2456 0.960 . S
H2443 C2456 0.960 . S
C2444 H2436 0.929 . S
C2444 C2445 1.377 . S
C2444 C2446 1.384 . S
C2445 C2444 1.377 . S
C2445 C2451 1.390 . S
C2446 H2437 0.930 . S
C2446 C2444 1.384 . S
C2446 C2447 1.372 . S
C2447 C2446 1.372 . S
C2447 C2448 1.400 . S
C2447 C2452 1.490 . S
C2448 H2438 0.930 . S
C2448 C2447 1.400 . S
C2448 C2451 1.386 . S
H2449 C2465 0.930 . S
H2450 C2466 0.931 . S
C2451 H2439 0.929 . S
C2451 C2445 1.390 . S
C2451 C2448 1.386 . S
C2452 C2447 1.490 . S
C2452 C2454 1.395 . S
C2452 C2455 1.403 . S
H2453 C2459 0.930 . S
C2454 H2440 0.930 . S
C2454 C2452 1.395 . S
C2454 C2457 1.403 . S
C2455 C2452 1.403 . S
C2455 C2456 1.524 . S
C2455 C2459 1.400 . S
C2456 H2441 0.960 . S
C2456 H2442 0.960 . S
C2456 H2443 0.960 . S
C2456 C2455 1.524 . S
C2457 C2454 1.403 . S
C2457 C2458 1.392 . S
C2457 C2461 1.495 . S
C2458 C2457 1.392 . S
C2458 C2459 1.385 . S
C2458 C2460 1.478 . S
C2459 H2453 0.930 . S
C2459 C2455 1.400 . S
C2459 C2458 1.385 . S
C2460 C2458 1.478 . S
C2460 C2462 1.381 . S
C2460 C2466 1.383 . S
C2461 C2457 1.495 . S
C2461 H2467 0.959 . S
C2461 H2468 0.961 . S
C2461 H2469 0.960 . S
C2462 C2460 1.381 . S
C2462 C2463 1.394 . S
C2462 H2470 0.930 . S
C2463 C2462 1.394 . S
C2463 C2464 1.383 . S
C2463 H2471 0.929 . S
C2464 C2463 1.383 . S
C2464 C2465 1.377 . S
C2465 H2449 0.930 . S
C2465 C2464 1.377 . S
C2465 C2466 1.379 . S
C2466 H2450 0.931 . S
C2466 C2460 1.383 . S
C2466 C2465 1.379 . S
H2467 C2461 0.959 . S
H2468 C2461 0.961 . S
H2469 C2461 0.960 . S
H2470 C2462 0.930 . S
H2471 C2463 0.929 . S
H2472 C2480 0.929 . S
H2473 C2482 0.930 . S
H2474 C2484 0.930 . S
H2475 C2487 0.929 . S
H2476 C2490 0.930 . S
H2477 C2492 0.960 . S
H2478 C2492 0.960 . S
H2479 C2492 0.960 . S
C2480 H2472 0.929 . S
C2480 C2481 1.377 . S
C2480 C2482 1.384 . S
C2481 C2480 1.377 . S
C2481 C2487 1.390 . S
C2482 H2473 0.930 . S
C2482 C2480 1.384 . S
C2482 C2483 1.372 . S
C2483 C2482 1.372 . S
C2483 C2484 1.400 . S
C2483 C2488 1.490 . S
C2484 H2474 0.930 . S
C2484 C2483 1.400 . S
C2484 C2487 1.386 . S
H2485 C2501 0.930 . S
H2486 C2502 0.931 . S
C2487 H2475 0.929 . S
C2487 C2481 1.390 . S
C2487 C2484 1.386 . S
C2488 C2483 1.490 . S
C2488 C2490 1.395 . S
C2488 C2491 1.403 . S
H2489 C2495 0.930 . S
C2490 H2476 0.930 . S
C2490 C2488 1.395 . S
C2490 C2493 1.403 1_565 S
C2491 C2488 1.403 . S
C2491 C2492 1.524 . S
C2491 C2495 1.400 1_565 S
C2492 H2477 0.960 . S
C2492 H2478 0.960 . S
C2492 H2479 0.960 . S
C2492 C2491 1.524 . S
C2493 C2490 1.403 1_545 S
C2493 C2494 1.392 . S
C2493 C2497 1.495 . S
C2494 C2493 1.392 . S
C2494 C2495 1.385 . S
C2494 C2496 1.478 . S
C2495 H2489 0.930 . S
C2495 C2491 1.400 1_545 S
C2495 C2494 1.385 . S
C2496 C2494 1.478 . S
C2496 C2498 1.381 . S
C2496 C2502 1.383 . S
C2497 C2493 1.495 . S
C2497 H2503 0.959 . S
C2497 H2504 0.961 . S
C2497 H2505 0.960 . S
C2498 C2496 1.381 . S
C2498 C2499 1.394 . S
C2498 H2506 0.930 . S
C2499 C2498 1.394 . S
C2499 C2500 1.383 . S
C2499 H2507 0.929 . S
C2500 C2499 1.383 . S
C2500 C2501 1.377 . S
C2501 H2485 0.930 . S
C2501 C2500 1.377 . S
C2501 C2502 1.379 . S
C2502 H2486 0.931 . S
C2502 C2496 1.383 . S
C2502 C2501 1.379 . S
H2503 C2497 0.959 . S
H2504 C2497 0.961 . S
H2505 C2497 0.960 . S
H2506 C2498 0.930 . S
H2507 C2499 0.929 . S
H2508 C2516 0.929 . S
H2509 C2518 0.930 . S
H2510 C2520 0.930 . S
H2511 C2523 0.929 . S
H2512 C2526 0.930 . S
H2513 C2528 0.960 . S
H2514 C2528 0.960 . S
H2515 C2528 0.960 . S
C2516 H2508 0.929 . S
C2516 C2517 1.377 . S
C2516 C2518 1.384 . S
C2517 C2516 1.377 . S
C2517 C2523 1.390 . S
C2518 H2509 0.930 . S
C2518 C2516 1.384 . S
C2518 C2519 1.372 . S
C2519 C2518 1.372 . S
C2519 C2520 1.400 . S
C2519 C2524 1.490 . S
C2520 H2510 0.930 . S
C2520 C2519 1.400 . S
C2520 C2523 1.386 . S
H2521 C2537 0.930 . S
H2522 C2538 0.931 . S
C2523 H2511 0.929 . S
C2523 C2517 1.390 . S
C2523 C2520 1.386 . S
C2524 C2519 1.490 . S
C2524 C2526 1.395 . S
C2524 C2527 1.403 . S
H2525 C2531 0.930 . S
C2526 H2512 0.930 . S
C2526 C2524 1.395 . S
C2526 C2529 1.403 . S
C2527 C2524 1.403 . S
C2527 C2528 1.524 . S
C2527 C2531 1.400 . S
C2528 H2513 0.960 . S
C2528 H2514 0.960 . S
C2528 H2515 0.960 . S
C2528 C2527 1.524 . S
C2529 C2526 1.403 . S
C2529 C2530 1.392 . S
C2529 C2533 1.495 . S
C2530 C2529 1.392 . S
C2530 C2531 1.385 . S
C2530 C2532 1.478 . S
C2531 H2525 0.930 . S
C2531 C2527 1.400 . S
C2531 C2530 1.385 . S
C2532 C2530 1.478 . S
C2532 C2534 1.381 . S
C2532 C2538 1.383 . S
C2533 C2529 1.495 . S
C2533 H2539 0.959 . S
C2533 H2540 0.961 . S
C2533 H2541 0.960 . S
C2534 C2532 1.381 . S
C2534 C2535 1.394 . S
C2534 H2542 0.930 . S
C2535 C2534 1.394 . S
C2535 C2536 1.383 . S
C2535 H2543 0.929 . S
C2536 C2535 1.383 . S
C2536 C2537 1.377 . S
C2537 H2521 0.930 . S
C2537 C2536 1.377 . S
C2537 C2538 1.379 . S
C2538 H2522 0.931 . S
C2538 C2532 1.383 . S
C2538 C2537 1.379 . S
H2539 C2533 0.959 . S
H2540 C2533 0.961 . S
H2541 C2533 0.960 . S
H2542 C2534 0.930 . S
H2543 C2535 0.929 . S
H2544 C2552 0.929 . S
H2545 C2554 0.930 . S
H2546 C2556 0.930 . S
H2547 C2559 0.929 . S
H2548 C2562 0.930 . S
H2549 C2564 0.960 . S
H2550 C2564 0.960 . S
H2551 C2564 0.960 . S
C2552 H2544 0.929 . S
C2552 C2553 1.377 . S
C2552 C2554 1.384 . S
C2553 C2552 1.377 . S
C2553 C2559 1.390 . S
C2554 H2545 0.930 . S
C2554 C2552 1.384 . S
C2554 C2555 1.372 . S
C2555 C2554 1.372 . S
C2555 C2556 1.400 . S
C2555 C2560 1.490 . S
C2556 H2546 0.930 . S
C2556 C2555 1.400 . S
C2556 C2559 1.386 . S
H2557 C2573 0.930 . S
H2558 C2574 0.931 . S
C2559 H2547 0.929 . S
C2559 C2553 1.390 . S
C2559 C2556 1.386 . S
C2560 C2555 1.490 . S
C2560 C2562 1.395 . S
C2560 C2563 1.403 . S
H2561 C2567 0.930 . S
C2562 H2548 0.930 . S
C2562 C2560 1.395 . S
C2562 C2565 1.403 1_655 S
C2563 C2560 1.403 . S
C2563 C2564 1.524 . S
C2563 C2567 1.400 1_655 S
C2564 H2549 0.960 . S
C2564 H2550 0.960 . S
C2564 H2551 0.960 . S
C2564 C2563 1.524 . S
C2565 C2562 1.403 1_455 S
C2565 C2566 1.392 . S
C2565 C2569 1.495 . S
C2566 C2565 1.392 . S
C2566 C2567 1.385 . S
C2566 C2568 1.478 . S
C2567 H2561 0.930 . S
C2567 C2563 1.400 1_455 S
C2567 C2566 1.385 . S
C2568 C2566 1.478 . S
C2568 C2570 1.381 . S
C2568 C2574 1.383 . S
C2569 C2565 1.495 . S
C2569 H2575 0.959 . S
C2569 H2576 0.961 . S
C2569 H2577 0.960 . S
C2570 C2568 1.381 . S
C2570 C2571 1.394 . S
C2570 H2578 0.930 . S
C2571 C2570 1.394 . S
C2571 C2572 1.383 . S
C2571 H2579 0.929 . S
C2572 C2571 1.383 . S
C2572 C2573 1.377 . S
C2573 H2557 0.930 . S
C2573 C2572 1.377 . S
C2573 C2574 1.379 . S
C2574 H2558 0.931 . S
C2574 C2568 1.383 . S
C2574 C2573 1.379 . S
H2575 C2569 0.959 . S
H2576 C2569 0.961 . S
H2577 C2569 0.960 . S
H2578 C2570 0.930 . S
H2579 C2571 0.929 . S
H2580 C2588 0.929 . S
H2581 C2590 0.930 . S
H2582 C2592 0.930 . S
H2583 C2595 0.929 . S
H2584 C2598 0.930 . S
H2585 C2600 0.960 . S
H2586 C2600 0.960 . S
H2587 C2600 0.960 . S
C2588 H2580 0.929 . S
C2588 C2589 1.377 . S
C2588 C2590 1.384 . S
C2589 C2588 1.377 . S
C2589 C2595 1.390 . S
C2590 H2581 0.930 . S
C2590 C2588 1.384 . S
C2590 C2591 1.372 . S
C2591 C2590 1.372 . S
C2591 C2592 1.400 . S
C2591 C2596 1.490 . S
C2592 H2582 0.930 . S
C2592 C2591 1.400 . S
C2592 C2595 1.386 . S
H2593 C2609 0.930 . S
H2594 C2610 0.931 . S
C2595 H2583 0.929 . S
C2595 C2589 1.390 . S
C2595 C2592 1.386 . S
C2596 C2591 1.490 . S
C2596 C2598 1.395 . S
C2596 C2599 1.403 . S
H2597 C2603 0.930 . S
C2598 H2584 0.930 . S
C2598 C2596 1.395 . S
C2598 C2601 1.403 1_565 S
C2599 C2596 1.403 . S
C2599 C2600 1.524 . S
C2599 C2603 1.400 1_565 S
C2600 H2585 0.960 . S
C2600 H2586 0.960 . S
C2600 H2587 0.960 . S
C2600 C2599 1.524 . S
C2601 C2598 1.403 1_545 S
C2601 C2602 1.392 . S
C2601 C2605 1.495 . S
C2602 C2601 1.392 . S
C2602 C2603 1.385 . S
C2602 C2604 1.478 . S
C2603 H2597 0.930 . S
C2603 C2599 1.400 1_545 S
C2603 C2602 1.385 . S
C2604 C2602 1.478 . S
C2604 C2606 1.381 . S
C2604 C2610 1.383 . S
C2605 C2601 1.495 . S
C2605 H2611 0.959 . S
C2605 H2612 0.961 . S
C2605 H2613 0.960 . S
C2606 C2604 1.381 . S
C2606 C2607 1.394 . S
C2606 H2614 0.930 . S
C2607 C2606 1.394 . S
C2607 C2608 1.383 . S
C2607 H2615 0.929 . S
C2608 C2607 1.383 . S
C2608 C2609 1.377 . S
C2609 H2593 0.930 . S
C2609 C2608 1.377 . S
C2609 C2610 1.379 . S
C2610 H2594 0.931 . S
C2610 C2604 1.383 . S
C2610 C2609 1.379 . S
H2611 C2605 0.959 . S
H2612 C2605 0.961 . S
H2613 C2605 0.960 . S
H2614 C2606 0.930 . S
H2615 C2607 0.929 . S
H2616 C2624 0.929 . S
H2617 C2626 0.930 . S
H2618 C2628 0.930 . S
H2619 C2631 0.929 . S
H2620 C2634 0.930 . S
H2621 C2636 0.960 . S
H2622 C2636 0.960 . S
H2623 C2636 0.960 . S
C2624 H2616 0.929 . S
C2624 C2625 1.377 . S
C2624 C2626 1.384 . S
C2625 C2624 1.377 . S
C2625 C2631 1.390 . S
C2626 H2617 0.930 . S
C2626 C2624 1.384 . S
C2626 C2627 1.372 . S
C2627 C2626 1.372 . S
C2627 C2628 1.400 . S
C2627 C2632 1.490 . S
C2628 H2618 0.930 . S
C2628 C2627 1.400 . S
C2628 C2631 1.386 . S
H2629 C2645 0.930 . S
H2630 C2646 0.931 . S
C2631 H2619 0.929 . S
C2631 C2625 1.390 . S
C2631 C2628 1.386 . S
C2632 C2627 1.490 . S
C2632 C2634 1.395 . S
C2632 C2635 1.403 . S
H2633 C2639 0.930 . S
C2634 H2620 0.930 . S
C2634 C2632 1.395 . S
C2634 C2637 1.403 . S
C2635 C2632 1.403 . S
C2635 C2636 1.524 . S
C2635 C2639 1.400 . S
C2636 H2621 0.960 . S
C2636 H2622 0.960 . S
C2636 H2623 0.960 . S
C2636 C2635 1.524 . S
C2637 C2634 1.403 . S
C2637 C2638 1.392 . S
C2637 C2641 1.495 . S
C2638 C2637 1.392 . S
C2638 C2639 1.385 . S
C2638 C2640 1.478 . S
C2639 H2633 0.930 . S
C2639 C2635 1.400 . S
C2639 C2638 1.385 . S
C2640 C2638 1.478 . S
C2640 C2642 1.381 . S
C2640 C2646 1.383 . S
C2641 C2637 1.495 . S
C2641 H2647 0.959 . S
C2641 H2648 0.961 . S
C2641 H2649 0.960 . S
C2642 C2640 1.381 . S
C2642 C2643 1.394 . S
C2642 H2650 0.930 . S
C2643 C2642 1.394 . S
C2643 C2644 1.383 . S
C2643 H2651 0.929 . S
C2644 C2643 1.383 . S
C2644 C2645 1.377 . S
C2645 H2629 0.930 . S
C2645 C2644 1.377 . S
C2645 C2646 1.379 . S
C2646 H2630 0.931 . S
C2646 C2640 1.383 . S
C2646 C2645 1.379 . S
H2647 C2641 0.959 . S
H2648 C2641 0.961 . S
H2649 C2641 0.960 . S
H2650 C2642 0.930 . S
H2651 C2643 0.929 . S
H2652 C2660 0.929 . S
H2653 C2662 0.930 . S
H2654 C2664 0.930 . S
H2655 C2667 0.929 . S
H2656 C2670 0.930 . S
H2657 C2672 0.960 . S
H2658 C2672 0.960 . S
H2659 C2672 0.960 . S
C2660 H2652 0.929 . S
C2660 C2661 1.377 . S
C2660 C2662 1.384 . S
C2661 C2660 1.377 . S
C2661 C2667 1.390 . S
C2662 H2653 0.930 . S
C2662 C2660 1.384 . S
C2662 C2663 1.372 . S
C2663 C2662 1.372 . S
C2663 C2664 1.400 . S
C2663 C2668 1.490 . S
C2664 H2654 0.930 . S
C2664 C2663 1.400 . S
C2664 C2667 1.386 . S
H2665 C2681 0.930 . S
H2666 C2682 0.931 . S
C2667 H2655 0.929 . S
C2667 C2661 1.390 . S
C2667 C2664 1.386 . S
C2668 C2663 1.490 . S
C2668 C2670 1.395 . S
C2668 C2671 1.403 . S
H2669 C2675 0.930 . S
C2670 H2656 0.930 . S
C2670 C2668 1.395 . S
C2670 C2673 1.403 1_655 S
C2671 C2668 1.403 . S
C2671 C2672 1.524 . S
C2671 C2675 1.400 1_655 S
C2672 H2657 0.960 . S
C2672 H2658 0.960 . S
C2672 H2659 0.960 . S
C2672 C2671 1.524 . S
C2673 C2670 1.403 1_455 S
C2673 C2674 1.392 . S
C2673 C2677 1.495 . S
C2674 C2673 1.392 . S
C2674 C2675 1.385 . S
C2674 C2676 1.478 . S
C2675 H2669 0.930 . S
C2675 C2671 1.400 1_455 S
C2675 C2674 1.385 . S
C2676 C2674 1.478 . S
C2676 C2678 1.381 . S
C2676 C2682 1.383 . S
C2677 C2673 1.495 . S
C2677 H2683 0.959 . S
C2677 H2684 0.961 . S
C2677 H2685 0.960 . S
C2678 C2676 1.381 . S
C2678 C2679 1.394 . S
C2678 H2686 0.930 . S
C2679 C2678 1.394 . S
C2679 C2680 1.383 . S
C2679 H2687 0.929 . S
C2680 C2679 1.383 . S
C2680 C2681 1.377 . S
C2681 H2665 0.930 . S
C2681 C2680 1.377 . S
C2681 C2682 1.379 . S
C2682 H2666 0.931 . S
C2682 C2676 1.383 . S
C2682 C2681 1.379 . S
H2683 C2677 0.959 . S
H2684 C2677 0.961 . S
H2685 C2677 0.960 . S
H2686 C2678 0.930 . S
H2687 C2679 0.929 . S
H2688 C2696 0.929 . S
H2689 C2698 0.930 . S
H2690 C2700 0.930 . S
H2691 C2703 0.929 . S
H2692 C2706 0.930 . S
H2693 C2708 0.960 . S
H2694 C2708 0.960 . S
H2695 C2708 0.960 1_556 S
C2696 H2688 0.929 . S
C2696 C2697 1.377 . S
C2696 C2698 1.384 . S
C2697 C2696 1.377 . S
C2697 C2703 1.390 . S
C2698 H2689 0.930 . S
C2698 C2696 1.384 . S
C2698 C2699 1.372 . S
C2699 C2698 1.372 . S
C2699 C2700 1.400 . S
C2699 C2704 1.490 . S
C2700 H2690 0.930 . S
C2700 C2699 1.400 . S
C2700 C2703 1.386 . S
H2701 C2717 0.930 . S
H2702 C2718 0.931 . S
C2703 H2691 0.929 . S
C2703 C2697 1.390 . S
C2703 C2700 1.386 . S
C2704 C2699 1.490 . S
C2704 C2706 1.395 . S
C2704 C2707 1.403 1_556 S
H2705 C2711 0.930 . S
C2706 H2692 0.930 . S
C2706 C2704 1.395 . S
C2706 C2709 1.403 . S
C2707 C2704 1.403 1_554 S
C2707 C2708 1.524 . S
C2707 C2711 1.400 . S
C2708 H2693 0.960 . S
C2708 H2694 0.960 . S
C2708 H2695 0.960 1_554 S
C2708 C2707 1.524 . S
C2709 C2706 1.403 . S
C2709 C2710 1.392 1_556 S
C2709 C2713 1.495 . S
C2710 C2709 1.392 1_554 S
C2710 C2711 1.385 . S
C2710 C2712 1.478 . S
C2711 H2705 0.930 . S
C2711 C2707 1.400 . S
C2711 C2710 1.385 . S
C2712 C2710 1.478 . S
C2712 C2714 1.381 . S
C2712 C2718 1.383 . S
C2713 C2709 1.495 . S
C2713 H2719 0.959 . S
C2713 H2720 0.961 . S
C2713 H2721 0.960 1_556 S
C2714 C2712 1.381 . S
C2714 C2715 1.394 . S
C2714 H2722 0.930 . S
C2715 C2714 1.394 . S
C2715 C2716 1.383 . S
C2715 H2723 0.929 . S
C2716 C2715 1.383 . S
C2716 C2717 1.377 . S
C2717 H2701 0.930 . S
C2717 C2716 1.377 . S
C2717 C2718 1.379 . S
C2718 H2702 0.931 . S
C2718 C2712 1.383 . S
C2718 C2717 1.379 . S
H2719 C2713 0.959 . S
H2720 C2713 0.961 . S
H2721 C2713 0.960 1_554 S
H2722 C2714 0.930 . S
H2723 C2715 0.929 . S
H2724 C2732 0.929 . S
H2725 C2734 0.930 . S
H2726 C2736 0.930 . S
H2727 C2739 0.929 . S
H2728 C2742 0.930 . S
H2729 C2744 0.960 . S
H2730 C2744 0.960 . S
H2731 C2744 0.960 . S
C2732 H2724 0.929 . S
C2732 C2733 1.377 . S
C2732 C2734 1.384 . S
C2733 C2732 1.377 . S
C2733 C2739 1.390 . S
C2734 H2725 0.930 . S
C2734 C2732 1.384 . S
C2734 C2735 1.372 . S
C2735 C2734 1.372 . S
C2735 C2736 1.400 . S
C2735 C2740 1.490 . S
C2736 H2726 0.930 . S
C2736 C2735 1.400 . S
C2736 C2739 1.386 . S
H2737 C2753 0.930 . S
H2738 C2754 0.931 . S
C2739 H2727 0.929 . S
C2739 C2733 1.390 . S
C2739 C2736 1.386 . S
C2740 C2735 1.490 . S
C2740 C2742 1.395 . S
C2740 C2743 1.403 . S
H2741 C2747 0.930 . S
C2742 H2728 0.930 . S
C2742 C2740 1.395 . S
C2742 C2745 1.403 . S
C2743 C2740 1.403 . S
C2743 C2744 1.524 . S
C2743 C2747 1.400 . S
C2744 H2729 0.960 . S
C2744 H2730 0.960 . S
C2744 H2731 0.960 . S
C2744 C2743 1.524 . S
C2745 C2742 1.403 . S
C2745 C2746 1.392 . S
C2745 C2749 1.495 . S
C2746 C2745 1.392 . S
C2746 C2747 1.385 . S
C2746 C2748 1.478 . S
C2747 H2741 0.930 . S
C2747 C2743 1.400 . S
C2747 C2746 1.385 . S
C2748 C2746 1.478 . S
C2748 C2750 1.381 . S
C2748 C2754 1.383 . S
C2749 C2745 1.495 . S
C2749 H2755 0.959 . S
C2749 H2756 0.961 . S
C2749 H2757 0.960 . S
C2750 C2748 1.381 . S
C2750 C2751 1.394 . S
C2750 H2758 0.930 . S
C2751 C2750 1.394 . S
C2751 C2752 1.383 . S
C2751 H2759 0.929 . S
C2752 C2751 1.383 . S
C2752 C2753 1.377 . S
C2753 H2737 0.930 . S
C2753 C2752 1.377 . S
C2753 C2754 1.379 . S
C2754 H2738 0.931 . S
C2754 C2748 1.383 . S
C2754 C2753 1.379 . S
H2755 C2749 0.959 . S
H2756 C2749 0.961 . S
H2757 C2749 0.960 . S
H2758 C2750 0.930 . S
H2759 C2751 0.929 . S
H2760 C2768 0.929 . S
H2761 C2770 0.930 . S
H2762 C2772 0.930 . S
H2763 C2775 0.929 . S
H2764 C2778 0.930 . S
H2765 C2780 0.960 1_556 S
H2766 C2780 0.960 . S
H2767 C2780 0.960 . S
C2768 H2760 0.929 . S
C2768 C2769 1.377 . S
C2768 C2770 1.384 . S
C2769 C2768 1.377 . S
C2769 C2775 1.390 . S
C2770 H2761 0.930 . S
C2770 C2768 1.384 . S
C2770 C2771 1.372 . S
C2771 C2770 1.372 . S
C2771 C2772 1.400 . S
C2771 C2776 1.490 . S
C2772 H2762 0.930 . S
C2772 C2771 1.400 . S
C2772 C2775 1.386 . S
H2773 C2789 0.930 . S
H2774 C2790 0.931 . S
C2775 H2763 0.929 . S
C2775 C2769 1.390 . S
C2775 C2772 1.386 . S
C2776 C2771 1.490 . S
C2776 C2778 1.395 . S
C2776 C2779 1.403 . S
H2777 C2783 0.930 . S
C2778 H2764 0.930 . S
C2778 C2776 1.395 . S
C2778 C2781 1.403 1_554 S
C2779 C2776 1.403 . S
C2779 C2780 1.524 . S
C2779 C2783 1.400 1_554 S
C2780 H2765 0.960 1_554 S
C2780 H2766 0.960 . S
C2780 H2767 0.960 . S
C2780 C2779 1.524 . S
C2781 C2778 1.403 1_556 S
C2781 C2782 1.392 . S
C2781 C2785 1.495 . S
C2782 C2781 1.392 . S
C2782 C2783 1.385 . S
C2782 C2784 1.478 . S
C2783 H2777 0.930 . S
C2783 C2779 1.400 1_556 S
C2783 C2782 1.385 . S
C2784 C2782 1.478 . S
C2784 C2786 1.381 . S
C2784 C2790 1.383 . S
C2785 C2781 1.495 . S
C2785 H2791 0.922 1_556 S
C2785 H2792 0.961 . S
C2785 H2793 0.960 . S
C2786 C2784 1.381 . S
C2786 C2787 1.394 . S
C2786 H2794 0.930 . S
C2787 C2786 1.394 . S
C2787 C2788 1.383 . S
C2787 H2795 0.929 . S
C2788 C2787 1.383 . S
C2788 C2789 1.377 . S
C2789 H2773 0.930 . S
C2789 C2788 1.377 . S
C2789 C2790 1.379 . S
C2790 H2774 0.931 . S
C2790 C2784 1.383 . S
C2790 C2789 1.379 . S
H2791 C2785 0.922 1_554 S
H2792 C2785 0.961 . S
H2793 C2785 0.960 . S
H2794 C2786 0.930 . S
H2795 C2787 0.929 . S
H2796 C2804 0.929 . S
H2797 C2806 0.930 . S
H2798 C2808 0.930 . S
H2799 C2811 0.929 . S
H2800 C2814 0.930 . S
H2801 C2816 0.960 . S
H2802 C2816 0.960 . S
H2803 C2816 0.960 . S
C2804 H2796 0.929 . S
C2804 C2805 1.377 . S
C2804 C2806 1.384 . S
C2805 C2804 1.377 . S
C2805 C2811 1.390 . S
C2806 H2797 0.930 . S
C2806 C2804 1.384 . S
C2806 C2807 1.372 . S
C2807 C2806 1.372 . S
C2807 C2808 1.400 . S
C2807 C2812 1.490 . S
C2808 H2798 0.930 . S
C2808 C2807 1.400 . S
C2808 C2811 1.386 . S
H2809 C2825 0.930 . S
H2810 C2826 0.931 . S
C2811 H2799 0.929 . S
C2811 C2805 1.390 . S
C2811 C2808 1.386 . S
C2812 C2807 1.490 . S
C2812 C2814 1.395 . S
C2812 C2815 1.403 . S
H2813 C2819 0.930 . S
C2814 H2800 0.930 . S
C2814 C2812 1.395 . S
C2814 C2817 1.403 . S
C2815 C2812 1.403 . S
C2815 C2816 1.524 . S
C2815 C2819 1.400 . S
C2816 H2801 0.960 . S
C2816 H2802 0.960 . S
C2816 H2803 0.960 . S
C2816 C2815 1.524 . S
C2817 C2814 1.403 . S
C2817 C2818 1.392 . S
C2817 C2821 1.495 . S
C2818 C2817 1.392 . S
C2818 C2819 1.385 . S
C2818 C2820 1.478 . S
C2819 H2813 0.930 . S
C2819 C2815 1.400 . S
C2819 C2818 1.385 . S
C2820 C2818 1.478 . S
C2820 C2822 1.381 . S
C2820 C2826 1.383 . S
C2821 C2817 1.495 . S
C2821 H2827 0.959 . S
C2821 H2828 0.961 . S
C2821 H2829 0.960 . S
C2822 C2820 1.381 . S
C2822 C2823 1.394 . S
C2822 H2830 0.930 . S
C2823 C2822 1.394 . S
C2823 C2824 1.383 . S
C2823 H2831 0.929 . S
C2824 C2823 1.383 . S
C2824 C2825 1.377 . S
C2825 H2809 0.930 . S
C2825 C2824 1.377 . S
C2825 C2826 1.379 . S
C2826 H2810 0.931 . S
C2826 C2820 1.383 . S
C2826 C2825 1.379 . S
H2827 C2821 0.959 . S
H2828 C2821 0.961 . S
H2829 C2821 0.960 . S
H2830 C2822 0.930 . S
H2831 C2823 0.929 . S
H2832 C2840 0.929 . S
H2833 C2842 0.930 . S
H2834 C2844 0.930 . S
H2835 C2847 0.929 . S
H2836 C2850 0.930 . S
H2837 C2852 0.960 . S
H2838 C2852 0.960 . S
H2839 C2852 0.960 . S
C2840 H2832 0.929 . S
C2840 C2841 1.377 . S
C2840 C2842 1.384 . S
C2841 C2840 1.377 . S
C2841 C2847 1.390 . S
C2842 H2833 0.930 . S
C2842 C2840 1.384 . S
C2842 C2843 1.372 . S
C2843 C2842 1.372 . S
C2843 C2844 1.400 . S
C2843 C2848 1.490 . S
C2844 H2834 0.930 . S
C2844 C2843 1.400 . S
C2844 C2847 1.386 . S
H2845 C2861 0.930 . S
H2846 C2862 0.931 . S
C2847 H2835 0.929 . S
C2847 C2841 1.390 . S
C2847 C2844 1.386 . S
C2848 C2843 1.490 . S
C2848 C2850 1.395 . S
C2848 C2851 1.403 . S
H2849 C2855 0.930 . S
C2850 H2836 0.930 . S
C2850 C2848 1.395 . S
C2850 C2853 1.403 1_556 S
C2851 C2848 1.403 . S
C2851 C2852 1.524 . S
C2851 C2855 1.400 1_556 S
C2852 H2837 0.960 . S
C2852 H2838 0.960 . S
C2852 H2839 0.960 . S
C2852 C2851 1.524 . S
C2853 C2850 1.403 1_554 S
C2853 C2854 1.392 . S
C2853 C2857 1.495 . S
C2854 C2853 1.392 . S
C2854 C2855 1.385 . S
C2854 C2856 1.478 . S
C2855 H2849 0.930 . S
C2855 C2851 1.400 1_554 S
C2855 C2854 1.385 . S
C2856 C2854 1.478 . S
C2856 C2858 1.381 . S
C2856 C2862 1.383 . S
C2857 C2853 1.495 . S
C2857 H2863 0.959 . S
C2857 H2864 0.961 . S
C2857 H2865 0.960 . S
C2858 C2856 1.381 . S
C2858 C2859 1.394 . S
C2858 H2866 0.930 . S
C2859 C2858 1.394 . S
C2859 C2860 1.383 . S
C2859 H2867 0.929 . S
C2860 C2859 1.383 . S
C2860 C2861 1.377 . S
C2861 H2845 0.930 . S
C2861 C2860 1.377 . S
C2861 C2862 1.379 . S
C2862 H2846 0.931 . S
C2862 C2856 1.383 . S
C2862 C2861 1.379 . S
H2863 C2857 0.959 . S
H2864 C2857 0.961 . S
H2865 C2857 0.960 . S
H2866 C2858 0.930 . S
H2867 C2859 0.929 . S
H2868 C2876 0.929 . S
H2869 C2878 0.930 . S
H2870 C2880 0.930 . S
H2871 C2883 0.929 . S
H2872 C2886 0.930 . S
H2873 C2888 0.960 . S
H2874 C2888 0.960 . S
H2875 C2888 0.960 . S
C2876 H2868 0.929 . S
C2876 C2877 1.377 . S
C2876 C2878 1.384 . S
C2877 C2876 1.377 . S
C2877 C2883 1.390 . S
C2878 H2869 0.930 . S
C2878 C2876 1.384 . S
C2878 C2879 1.372 . S
C2879 C2878 1.372 . S
C2879 C2880 1.400 . S
C2879 C2884 1.490 . S
C2880 H2870 0.930 . S
C2880 C2879 1.400 . S
C2880 C2883 1.386 . S
H2881 C2897 0.930 . S
H2882 C2898 0.931 . S
C2883 H2871 0.929 . S
C2883 C2877 1.390 . S
C2883 C2880 1.386 . S
C2884 C2879 1.490 . S
C2884 C2886 1.395 . S
C2884 C2887 1.403 . S
H2885 C2891 0.930 . S
C2886 H2872 0.930 . S
C2886 C2884 1.395 . S
C2886 C2889 1.403 . S
C2887 C2884 1.403 . S
C2887 C2888 1.524 . S
C2887 C2891 1.400 . S
C2888 H2873 0.960 . S
C2888 H2874 0.960 . S
C2888 H2875 0.960 . S
C2888 C2887 1.524 . S
C2889 C2886 1.403 . S
C2889 C2890 1.392 . S
C2889 C2893 1.495 . S
C2890 C2889 1.392 . S
C2890 C2891 1.385 . S
C2890 C2892 1.478 . S
C2891 H2885 0.930 . S
C2891 C2887 1.400 . S
C2891 C2890 1.385 . S
C2892 C2890 1.478 . S
C2892 C2894 1.381 . S
C2892 C2898 1.383 . S
C2893 C2889 1.495 . S
C2893 H2899 0.959 . S
C2893 H2900 0.961 . S
C2893 H2901 0.960 . S
C2894 C2892 1.381 . S
C2894 C2895 1.394 . S
C2894 H2902 0.930 . S
C2895 C2894 1.394 . S
C2895 C2896 1.383 . S
C2895 H2903 0.929 . S
C2896 C2895 1.383 . S
C2896 C2897 1.377 . S
C2897 H2881 0.930 . S
C2897 C2896 1.377 . S
C2897 C2898 1.379 . S
C2898 H2882 0.931 . S
C2898 C2892 1.383 . S
C2898 C2897 1.379 . S
H2899 C2893 0.959 . S
H2900 C2893 0.961 . S
H2901 C2893 0.960 . S
H2902 C2894 0.930 . S
H2903 C2895 0.929 . S
H2904 C2912 0.929 . S
H2905 C2914 0.930 . S
H2906 C2916 0.930 . S
H2907 C2919 0.929 . S
H2908 C2922 0.930 . S
H2909 C2924 0.960 . S
H2910 C2924 0.960 . S
H2911 C2924 0.960 . S
C2912 H2904 0.929 . S
C2912 C2913 1.377 . S
C2912 C2914 1.384 . S
C2913 C2912 1.377 . S
C2913 C2919 1.390 . S
C2914 H2905 0.930 . S
C2914 C2912 1.384 . S
C2914 C2915 1.372 . S
C2915 C2914 1.372 . S
C2915 C2916 1.400 . S
C2915 C2920 1.490 . S
C2916 H2906 0.930 . S
C2916 C2915 1.400 . S
C2916 C2919 1.386 . S
H2917 C2933 0.930 . S
H2918 C2934 0.931 . S
C2919 H2907 0.929 . S
C2919 C2913 1.390 . S
C2919 C2916 1.386 . S
C2920 C2915 1.490 . S
C2920 C2922 1.395 . S
C2920 C2923 1.403 . S
H2921 C2927 0.930 . S
C2922 H2908 0.930 . S
C2922 C2920 1.395 . S
C2922 C2925 1.403 1_554 S
C2923 C2920 1.403 . S
C2923 C2924 1.524 . S
C2923 C2927 1.400 1_554 S
C2924 H2909 0.960 . S
C2924 H2910 0.960 . S
C2924 H2911 0.960 . S
C2924 C2923 1.524 . S
C2925 C2922 1.403 1_556 S
C2925 C2926 1.392 . S
C2925 C2929 1.495 . S
C2926 C2925 1.392 . S
C2926 C2927 1.385 . S
C2926 C2928 1.478 . S
C2927 H2921 0.930 . S
C2927 C2923 1.400 1_556 S
C2927 C2926 1.385 . S
C2928 C2926 1.478 . S
C2928 C2930 1.381 . S
C2928 C2934 1.383 . S
C2929 C2925 1.495 . S
C2929 H2935 0.959 . S
C2929 H2936 0.961 . S
C2929 H2937 0.960 . S
C2930 C2928 1.381 . S
C2930 C2931 1.394 . S
C2930 H2938 0.930 . S
C2931 C2930 1.394 . S
C2931 C2932 1.383 . S
C2931 H2939 0.929 . S
C2932 C2931 1.383 . S
C2932 C2933 1.377 . S
C2933 H2917 0.930 . S
C2933 C2932 1.377 . S
C2933 C2934 1.379 . S
C2934 H2918 0.931 . S
C2934 C2928 1.383 . S
C2934 C2933 1.379 . S
H2935 C2929 0.959 . S
H2936 C2929 0.961 . S
H2937 C2929 0.960 . S
H2938 C2930 0.930 . S
H2939 C2931 0.929 . S
H2940 C2948 0.929 . S
H2941 C2950 0.930 . S
H2942 C2952 0.930 . S
H2943 C2955 0.929 . S
H2944 C2958 0.930 . S
H2945 C2960 0.960 . S
H2946 C2960 0.960 . S
H2947 C2960 0.960 . S
C2948 H2940 0.929 . S
C2948 C2949 1.377 . S
C2948 C2950 1.384 . S
C2949 C2948 1.377 . S
C2949 C2955 1.390 . S
C2950 H2941 0.930 . S
C2950 C2948 1.384 . S
C2950 C2951 1.372 . S
C2951 C2950 1.372 . S
C2951 C2952 1.400 . S
C2951 C2956 1.490 . S
C2952 H2942 0.930 . S
C2952 C2951 1.400 . S
C2952 C2955 1.386 . S
H2953 C2969 0.930 . S
H2954 C2970 0.931 . S
C2955 H2943 0.929 . S
C2955 C2949 1.390 . S
C2955 C2952 1.386 . S
C2956 C2951 1.490 . S
C2956 C2958 1.395 . S
C2956 C2959 1.403 . S
H2957 C2963 0.930 . S
C2958 H2944 0.930 . S
C2958 C2956 1.395 . S
C2958 C2961 1.403 . S
C2959 C2956 1.403 . S
C2959 C2960 1.524 . S
C2959 C2963 1.400 . S
C2960 H2945 0.960 . S
C2960 H2946 0.960 . S
C2960 H2947 0.960 . S
C2960 C2959 1.524 . S
C2961 C2958 1.403 . S
C2961 C2962 1.392 . S
C2961 C2965 1.495 . S
C2962 C2961 1.392 . S
C2962 C2963 1.385 . S
C2962 C2964 1.478 . S
C2963 H2957 0.930 . S
C2963 C2959 1.400 . S
C2963 C2962 1.385 . S
C2964 C2962 1.478 . S
C2964 C2966 1.381 . S
C2964 C2970 1.383 . S
C2965 C2961 1.495 . S
C2965 H2971 0.959 . S
C2965 H2972 0.961 . S
C2965 H2973 0.960 . S
C2966 C2964 1.381 . S
C2966 C2967 1.394 . S
C2966 H2974 0.930 . S
C2967 C2966 1.394 . S
C2967 C2968 1.383 . S
C2967 H2975 0.929 . S
C2968 C2967 1.383 . S
C2968 C2969 1.377 . S
C2969 H2953 0.930 . S
C2969 C2968 1.377 . S
C2969 C2970 1.379 . S
C2970 H2954 0.931 . S
C2970 C2964 1.383 . S
C2970 C2969 1.379 . S
H2971 C2965 0.959 . S
H2972 C2965 0.961 . S
H2973 C2965 0.960 . S
H2974 C2966 0.930 . S
H2975 C2967 0.929 . S
H2976 C2984 0.929 . S
H2977 C2986 0.930 . S
H2978 C2988 0.930 . S
H2979 C2991 0.929 . S
H2980 C2994 0.930 . S
H2981 C2996 0.960 . S
H2982 C2996 0.960 . S
H2983 C2996 0.960 . S
C2984 H2976 0.929 . S
C2984 C2985 1.377 . S
C2984 C2986 1.384 . S
C2985 C2984 1.377 . S
C2985 C2991 1.390 . S
C2986 H2977 0.930 . S
C2986 C2984 1.384 . S
C2986 C2987 1.372 . S
C2987 C2986 1.372 . S
C2987 C2988 1.400 . S
C2987 C2992 1.490 . S
C2988 H2978 0.930 . S
C2988 C2987 1.400 . S
C2988 C2991 1.386 . S
H2989 C3005 0.930 . S
H2990 C3006 0.931 . S
C2991 H2979 0.929 . S
C2991 C2985 1.390 . S
C2991 C2988 1.386 . S
C2992 C2987 1.490 . S
C2992 C2994 1.395 1_554 S
C2992 C2995 1.403 . S
H2993 C2999 0.930 . S
C2994 H2980 0.930 . S
C2994 C2992 1.395 1_556 S
C2994 C2997 1.403 . S
C2995 C2992 1.403 . S
C2995 C2996 1.524 . S
C2995 C2999 1.400 1_554 S
C2996 H2981 0.960 . S
C2996 H2982 0.960 . S
C2996 H2983 0.960 . S
C2996 C2995 1.524 . S
C2997 C2994 1.403 . S
C2997 C2998 1.392 . S
C2997 C3001 1.495 . S
C2998 C2997 1.392 . S
C2998 C2999 1.385 . S
C2998 C3000 1.478 . S
C2999 H2993 0.930 . S
C2999 C2995 1.400 1_556 S
C2999 C2998 1.385 . S
C3000 C2998 1.478 . S
C3000 C3002 1.381 . S
C3000 C3006 1.383 . S
C3001 C2997 1.495 . S
C3001 H3007 0.959 . S
C3001 H3008 0.961 . S
C3001 H3009 0.960 . S
C3002 C3000 1.381 . S
C3002 C3003 1.394 . S
C3002 H3010 0.930 . S
C3003 C3002 1.394 . S
C3003 C3004 1.383 . S
C3003 H3011 0.929 . S
C3004 C3003 1.383 . S
C3004 C3005 1.377 . S
C3005 H2989 0.930 . S
C3005 C3004 1.377 . S
C3005 C3006 1.379 . S
C3006 H2990 0.931 . S
C3006 C3000 1.383 . S
C3006 C3005 1.379 . S
H3007 C3001 0.959 . S
H3008 C3001 0.961 . S
H3009 C3001 0.960 . S
H3010 C3002 0.930 . S
H3011 C3003 0.929 . S
H3012 C3020 0.929 . S
H3013 C3022 0.930 . S
H3014 C3024 0.930 . S
H3015 C3027 0.929 . S
H3016 C3030 0.930 . S
H3017 C3032 0.960 . S
H3018 C3032 0.960 . S
H3019 C3032 0.960 . S
C3020 H3012 0.929 . S
C3020 C3021 1.377 . S
C3020 C3022 1.384 . S
C3021 C3020 1.377 . S
C3021 C3027 1.390 . S
C3022 H3013 0.930 . S
C3022 C3020 1.384 . S
C3022 C3023 1.372 . S
C3023 C3022 1.372 . S
C3023 C3024 1.400 . S
C3023 C3028 1.490 . S
C3024 H3014 0.930 . S
C3024 C3023 1.400 . S
C3024 C3027 1.386 . S
H3025 C3041 0.930 . S
H3026 C3042 0.931 . S
C3027 H3015 0.929 . S
C3027 C3021 1.390 . S
C3027 C3024 1.386 . S
C3028 C3023 1.490 . S
C3028 C3030 1.395 . S
C3028 C3031 1.403 . S
H3029 C3035 0.930 . S
C3030 H3016 0.930 . S
C3030 C3028 1.395 . S
C3030 C3033 1.403 . S
C3031 C3028 1.403 . S
C3031 C3032 1.524 . S
C3031 C3035 1.400 . S
C3032 H3017 0.960 . S
C3032 H3018 0.960 . S
C3032 H3019 0.960 . S
C3032 C3031 1.524 . S
C3033 C3030 1.403 . S
C3033 C3034 1.392 . S
C3033 C3037 1.495 . S
C3034 C3033 1.392 . S
C3034 C3035 1.385 . S
C3034 C3036 1.478 . S
C3035 H3029 0.930 . S
C3035 C3031 1.400 . S
C3035 C3034 1.385 . S
C3036 C3034 1.478 . S
C3036 C3038 1.381 . S
C3036 C3042 1.383 . S
C3037 C3033 1.495 . S
C3037 H3043 0.959 . S
C3037 H3044 0.961 . S
C3037 H3045 0.960 . S
C3038 C3036 1.381 . S
C3038 C3039 1.394 . S
C3038 H3046 0.930 . S
C3039 C3038 1.394 . S
C3039 C3040 1.383 . S
C3039 H3047 0.929 . S
C3040 C3039 1.383 . S
C3040 C3041 1.377 . S
C3041 H3025 0.930 . S
C3041 C3040 1.377 . S
C3041 C3042 1.379 . S
C3042 H3026 0.931 . S
C3042 C3036 1.383 . S
C3042 C3041 1.379 . S
H3043 C3037 0.959 . S
H3044 C3037 0.961 . S
H3045 C3037 0.960 . S
H3046 C3038 0.930 . S
H3047 C3039 0.929 . S
H3048 C3056 0.929 . S
H3049 C3058 0.930 . S
H3050 C3060 0.930 . S
H3051 C3063 0.929 . S
H3052 C3066 0.937 . S
H3053 C3068 0.960 . S
H3054 C3068 0.960 . S
H3055 C3068 0.960 . S
C3056 H3048 0.929 . S
C3056 C3057 1.377 . S
C3056 C3058 1.384 . S
C3057 C3056 1.377 . S
C3057 C3063 1.390 . S
C3058 H3049 0.930 . S
C3058 C3056 1.384 . S
C3058 C3059 1.372 . S
C3059 C3058 1.372 . S
C3059 C3060 1.400 . S
C3059 C3064 1.490 . S
C3060 H3050 0.930 . S
C3060 C3059 1.400 . S
C3060 C3063 1.386 . S
H3061 C3077 0.930 . S
H3062 C3078 0.931 . S
C3063 H3051 0.929 . S
C3063 C3057 1.390 . S
C3063 C3060 1.386 . S
C3064 C3059 1.490 . S
C3064 C3066 1.431 . S
C3064 C3067 1.403 . S
H3065 C3071 0.930 . S
C3066 H3052 0.937 . S
C3066 C3064 1.431 . S
C3066 C3069 1.362 1_554 S
C3067 C3064 1.403 . S
C3067 C3068 1.524 . S
C3067 C3071 1.400 1_554 S
C3068 H3053 0.960 . S
C3068 H3054 0.960 . S
C3068 H3055 0.960 . S
C3068 C3067 1.524 . S
C3069 C3066 1.362 1_556 S
C3069 C3070 1.392 . S
C3069 C3073 1.495 . S
C3070 C3069 1.392 . S
C3070 C3071 1.385 . S
C3070 C3072 1.478 . S
C3071 H3065 0.930 . S
C3071 C3067 1.400 1_556 S
C3071 C3070 1.385 . S
C3072 C3070 1.478 . S
C3072 C3074 1.381 . S
C3072 C3078 1.383 . S
C3073 C3069 1.495 . S
C3073 H3079 0.959 . S
C3073 H3080 0.961 . S
C3073 H3081 0.960 . S
C3074 C3072 1.381 . S
C3074 C3075 1.394 . S
C3074 H3082 0.930 . S
C3075 C3074 1.394 . S
C3075 C3076 1.383 . S
C3075 H3083 0.929 . S
C3076 C3075 1.383 . S
C3076 C3077 1.377 . S
C3077 H3061 0.930 . S
C3077 C3076 1.377 . S
C3077 C3078 1.379 . S
C3078 H3062 0.931 . S
C3078 C3072 1.383 . S
C3078 C3077 1.379 . S
H3079 C3073 0.959 . S
H3080 C3073 0.961 . S
H3081 C3073 0.960 . S
H3082 C3074 0.930 . S
H3083 C3075 0.929 . S
H3084 C3092 0.929 . S
H3085 C3094 0.930 . S
H3086 C3096 0.930 . S
H3087 C3099 0.929 . S
H3088 C3102 0.930 . S
H3089 C3104 0.960 . S
H3090 C3104 0.960 . S
H3091 C3104 0.960 . S
C3092 H3084 0.929 . S
C3092 C3093 1.377 . S
C3092 C3094 1.384 . S
C3093 C3092 1.377 . S
C3093 C3099 1.390 . S
C3094 H3085 0.930 . S
C3094 C3092 1.384 . S
C3094 C3095 1.372 . S
C3095 C3094 1.372 . S
C3095 C3096 1.400 . S
C3095 C3100 1.490 . S
C3096 H3086 0.930 . S
C3096 C3095 1.400 . S
C3096 C3099 1.386 . S
H3097 C3113 0.930 . S
H3098 C3114 0.931 . S
C3099 H3087 0.929 . S
C3099 C3093 1.390 . S
C3099 C3096 1.386 . S
C3100 C3095 1.490 . S
C3100 C3102 1.395 . S
C3100 C3103 1.403 . S
H3101 C3107 0.930 . S
C3102 H3088 0.930 . S
C3102 C3100 1.395 . S
C3102 C3105 1.403 . S
C3103 C3100 1.403 . S
C3103 C3104 1.524 . S
C3103 C3107 1.400 . S
C3104 H3089 0.960 . S
C3104 H3090 0.960 . S
C3104 H3091 0.960 . S
C3104 C3103 1.524 . S
C3105 C3102 1.403 . S
C3105 C3106 1.392 . S
C3105 C3109 1.495 . S
C3106 C3105 1.392 . S
C3106 C3107 1.385 . S
C3106 C3108 1.478 . S
C3107 H3101 0.930 . S
C3107 C3103 1.400 . S
C3107 C3106 1.385 . S
C3108 C3106 1.478 . S
C3108 C3110 1.381 . S
C3108 C3114 1.383 . S
C3109 C3105 1.495 . S
C3109 H3115 0.959 . S
C3109 H3116 0.961 . S
C3109 H3117 0.960 . S
C3110 C3108 1.381 . S
C3110 C3111 1.394 . S
C3110 H3118 0.930 . S
C3111 C3110 1.394 . S
C3111 C3112 1.383 . S
C3111 H3119 0.929 . S
C3112 C3111 1.383 . S
C3112 C3113 1.377 . S
C3113 H3097 0.930 . S
C3113 C3112 1.377 . S
C3113 C3114 1.379 . S
C3114 H3098 0.931 . S
C3114 C3108 1.383 . S
C3114 C3113 1.379 . S
H3115 C3109 0.959 . S
H3116 C3109 0.961 . S
H3117 C3109 0.960 . S
H3118 C3110 0.930 . S
H3119 C3111 0.929 . S
C537 C184 1.047 . S
C556 C4 1.044 . S
C573 C26 1.043 . S
C592 C206 1.016 . S
C609 C228 1.033 . S
C628 C48 1.048 . S
C645 C70 1.046 . S
C664 C250 1.076 . S
C681 C140 1.041 . S
C700 C92 1.077 . S
C717 C162 1.031 . S
C736 C114 1.002 . S
C753 C272 1.047 . S
C772 C444 0.999 . S
C789 C466 1.031 . S
C808 C294 1.079 . S
C825 C488 1.047 . S
C844 C316 0.999 . S
C861 C338 1.034 . S
C880 C510 1.067 . S
C897 C360 1.033 . S
C916 C400 1.069 . S
C933 C422 1.031 . S
C952 C382 1.079 . S
C969 C9 0.771 . S
C988 C52 0.704 . S
C1005 C74 0.755 . S
C1024 C31 0.769 . S
C1041 C53 0.754 . S
C1060 C96 0.773 . S
C1077 C75 0.766 . S
C1096 C118 0.740 . S
C1113 C8 0.767 . S
C1132 C97 0.733 . S
C1149 C30 0.748 . S
C1168 C119 0.813 . S
C1185 C224 0.753 . S
C1204 C137 0.800 . S
C1221 C159 0.766 . S
C1240 C246 0.717 . S
C1257 C181 0.767 . S
C1276 C136 0.736 . S
C1293 C158 0.763 . S
C1312 C203 0.754 . S
C1329 C180 0.765 . S
C1348 C225 0.747 . S
C1365 C202 0.748 . S
C1384 C247 0.814 . S
C1401 C312 0.770 . S
C1420 C270 0.761 . S
C1437 C292 0.770 . S
C1456 C334 0.759 . S
C1473 C314 0.770 . S
C1492 C356 0.764 . S
C1509 C336 0.752 . S
C1528 C378 0.790 . S
C1545 C268 0.770 . S
C1564 C358 0.799 . S
C1581 C290 0.749 . S
C1600 C380 0.720 . S
C1617 C403 0.748 . S
C1636 C492 0.724 . S
C1653 C425 0.766 . S
C1672 C514 0.810 . S
C1689 C447 0.753 . S
C1708 C404 0.705 . S
C1725 C469 0.751 . S
C1744 C426 0.709 . S
C1761 C448 0.770 . S
C1780 C491 0.764 . S
C1797 C470 0.766 . S
C1816 C513 0.726 . S
C1833 C7 1.426 . S
C1852 C335 1.415 . S
C1869 C357 1.428 . S
C1888 C29 1.420 . S
C1905 C51 1.424 . S
C1924 C379 1.429 . S
C1941 C73 1.428 . S
C1960 C269 1.423 . S
C1977 C291 1.424 . S
C1996 C95 1.425 . S
C2013 C117 1.425 . S
C2032 C313 1.432 . S
C2049 C138 1.428 . S
C2068 C471 1.420 . S
C2085 C493 1.428 . S
C2104 C160 1.425 . S
C2121 C182 1.425 . S
C2140 C515 1.432 . S
C2157 C204 1.424 . S
C2176 C405 1.424 . S
C2193 C427 1.428 . S
C2212 C226 1.414 . S
C2229 C449 1.427 . S
C2248 C248 1.414 . S
C2265 C446 1.160 . S
C2284 C5 1.147 . S
C2301 C468 1.147 . S
C2320 C27 1.168 . S
C2337 C490 1.160 . S
C2356 C49 1.130 . S
C2373 C512 1.160 . S
C2392 C71 1.125 . S
C2409 C402 1.158 . S
C2428 C93 1.119 . S
C2445 C115 1.155 . S
C2464 C424 1.175 . S
C2481 C141 1.154 . S
C2500 C359 1.121 . S
C2517 C381 1.151 . S
C2536 C163 1.126 . S
C2553 C271 1.158 . S
C2572 C185 1.119 . S
C2589 C293 1.155 . S
C2608 C207 1.177 . S
C2625 C229 1.155 . S
C2644 C315 1.176 . S
C2661 C251 1.156 . S
C2680 C337 1.118 . S
C2697 C227 0.983 . S
C2716 C6 0.997 . S
C2733 C249 0.975 . S
C2752 C28 1.027 . S
C2769 C50 0.991 . S
C2788 C139 0.955 . S
C2805 C72 0.994 . S
C2824 C161 0.936 . S
C2841 C183 0.979 . S
C2860 C94 1.007 . S
C2877 C116 0.987 . S
C2896 C205 0.969 . S
C2913 C489 0.981 . S
C2932 C273 1.012 . S
C2949 C511 0.995 . S
C2968 C295 1.027 . S
C2985 C401 0.974 . S
C3004 C317 0.965 . S
C3021 C339 0.987 . S
C3040 C423 1.029 . S
C3057 C445 0.979 . S
C3076 C361 0.999 . S
C3093 C383 0.977 . S
C3112 C467 0.933 . S
