# Generated by pormake.
# Topology rac, (4)-cn, num edge types: 1
# Building blocks:
#     Node 0, Type 0, BuildingBlock: ICAMEG_clean_sbu_1, # of connection points: 4
#     Node 1, Type 0, BuildingBlock: ICAMEG_clean_sbu_1, # of connection points: 4
#     Node 2, Type 0, BuildingBlock: ICAMEG_clean_sbu_1, # of connection points: 4
#     Node 3, Type 0, BuildingBlock: ICAMEG_clean_sbu_1, # of connection points: 4
#     Node 4, Type 0, BuildingBlock: ICAMEG_clean_sbu_1, # of connection points: 4
#     Node 5, Type 0, BuildingBlock: ICAMEG_clean_sbu_1, # of connection points: 4
#     Node 6, Type 0, BuildingBlock: ICAMEG_clean_sbu_1, # of connection points: 4
#     Node 7, Type 0, BuildingBlock: ICAMEG_clean_sbu_1, # of connection points: 4
#     Edge 8, Type (0, 0), BuildingBlock: EZIPEK_clean_linker_0, # of connection points: 2
#     Edge 9, Type (0, 0), BuildingBlock: EZIPEK_clean_linker_0, # of connection points: 2
#     Edge 10, Type (0, 0), BuildingBlock: EZIPEK_clean_linker_0, # of connection points: 2
#     Edge 11, Type (0, 0), BuildingBlock: EZIPEK_clean_linker_0, # of connection points: 2
#     Edge 12, Type (0, 0), BuildingBlock: EZIPEK_clean_linker_0, # of connection points: 2
#     Edge 13, Type (0, 0), BuildingBlock: EZIPEK_clean_linker_0, # of connection points: 2
#     Edge 14, Type (0, 0), BuildingBlock: EZIPEK_clean_linker_0, # of connection points: 2
#     Edge 15, Type (0, 0), BuildingBlock: EZIPEK_clean_linker_0, # of connection points: 2
#     Edge 16, Type (0, 0), BuildingBlock: EZIPEK_clean_linker_0, # of connection points: 2
#     Edge 17, Type (0, 0), BuildingBlock: EZIPEK_clean_linker_0, # of connection points: 2
#     Edge 18, Type (0, 0), BuildingBlock: EZIPEK_clean_linker_0, # of connection points: 2
#     Edge 19, Type (0, 0), BuildingBlock: EZIPEK_clean_linker_0, # of connection points: 2
#     Edge 20, Type (0, 0), BuildingBlock: EZIPEK_clean_linker_0, # of connection points: 2
#     Edge 21, Type (0, 0), BuildingBlock: EZIPEK_clean_linker_0, # of connection points: 2
#     Edge 22, Type (0, 0), BuildingBlock: EZIPEK_clean_linker_0, # of connection points: 2
#     Edge 23, Type (0, 0), BuildingBlock: EZIPEK_clean_linker_0, # of connection points: 2
# Relax obj value: 0.285
# Max RMSD: 0.142
# Mean RMSD: 0.142
data_MOF--net-rac--node1-ICAMEG_clean_sbu_1--edge1-EZIPEK_clean_linker_0
_symmetry_space_group_name_H-M    P1
_symmetry_Int_Tables_number       1
_symmetry_cell_setting            triclinic
loop_
_symmetry_equiv_pos_as_xyz
'x, y, z'
_cell_length_a     34.471016
_cell_length_b     15.148578
_cell_length_c     31.713955
_cell_angle_alpha  90.020331
_cell_angle_beta   90.008805
_cell_angle_gamma 89.7924
loop_
_atom_site_label
_atom_site_type_symbol
_atom_site_fract_x
_atom_site_fract_y
_atom_site_fract_z
_atom_type_partial_charge
Co0 Co 0.33243 0.29722 0.10246 0.0
Co1 Co 0.37903 0.25369 0.00976 0.0
O2 O 0.37968 0.28373 0.06946 0.0
C3 C 0.39341 0.22464 0.16195 0.0
O4 O 0.41781 0.20573 0.13157 0.0
C5 C 0.44318 0.38714 0.0246 0.0
O6 O 0.43613 0.38513 0.0651 0.0
O7 O 0.34335 0.35473 -0.00136 0.0
O8 O 0.30174 0.3391 0.0521 0.0
H9 H 0.31465 0.20576 0.86954 0.0
H10 H 0.40252 0.38812 0.1384 0.0
O11 O 0.3599 0.25657 0.15455 0.0
H12 H 0.31293 0.6241 0.09611 0.0
H13 H 0.25655 0.38437 0.23168 0.0
H14 H 0.25199 0.22653 0.09582 0.0
H15 H 0.29268 0.47012 0.09327 0.0
H16 H 0.31335 0.38297 0.1847 0.0
O17 O 0.42432 0.33768 -0.00109 0.0
H18 H 0.31689 0.23843 0.94572 0.0
H19 H 0.43955 0.21422 0.94517 0.0
H20 H 0.19576 0.22034 0.14355 0.0
H21 H 0.42223 0.54224 0.14784 0.0
H22 H 0.19734 0.30159 0.21154 0.0
H23 H 0.37764 0.66274 0.12554 0.0
O24 O 0.31906 0.17379 0.08832 0.0
H25 H 0.49868 0.10354 0.06856 0.0
H26 H 0.38 0.06489 0.98418 0.0
H27 H 0.42404 0.93863 0.99463 0.0
H28 H 0.48423 0.95762 0.03663 0.0
H29 H 0.45364 0.22719 0.05797 0.0
H30 H 0.43881 0.18175 0.86895 0.0
H31 H 0.37597 0.17689 0.83066 0.0
O32 O 0.3332 0.17013 0.01947 0.0
C33 C 0.31177 0.37431 0.01722 0.0
C34 C 0.3422 0.2072 0.8859 0.0
C35 C 0.41187 0.19378 0.88557 0.0
N36 N 0.3782 0.22664 0.94998 0.0
C37 C 0.34361 0.22544 0.92904 0.0
C38 C 0.41213 0.21224 0.92872 0.0
C39 C 0.37661 0.19109 0.8641 0.0
C40 C 0.38212 0.43929 0.13077 0.0
N41 N 0.34643 0.41912 0.11478 0.0
C42 C 0.39369 0.527 0.13567 0.0
C43 C 0.36872 0.5945 0.1232 0.0
C44 C 0.33231 0.57334 0.10726 0.0
C45 C 0.32121 0.4853 0.10462 0.0
C46 C 0.2553 0.34968 0.20187 0.0
C47 C 0.2534 0.26059 0.1257 0.0
C48 C 0.28724 0.34966 0.17476 0.0
N49 N 0.28591 0.30638 0.1369 0.0
C50 C 0.22126 0.25736 0.1525 0.0
C51 C 0.22215 0.30294 0.19064 0.0
C52 C 0.31632 0.13727 0.05209 0.0
C53 C 0.47264 0.09447 0.05 0.0
C54 C 0.40576 0.0738 0.00302 0.0
C55 C 0.43074 1.00193 0.00863 0.0
C56 C 0.4645 0.0126 0.03217 0.0
N57 N 0.41413 0.15453 0.02008 0.0
C58 C 0.44695 0.16481 0.04371 0.0
Co59 Co 0.18489 0.70613 0.09653 0.0
Co60 Co 0.13136 0.75562 0.00983 0.0
O61 O 0.13456 0.71305 0.06804 0.0
C62 C 0.12488 0.7243 0.16678 0.0
O63 O 0.09578 0.72579 0.14014 0.0
C64 C 0.06829 0.61751 0.02089 0.0
O65 O 0.0764 0.6111 0.06096 0.0
O66 O 0.16836 0.6599 0.99302 0.0
O67 O 0.21298 0.68774 0.0417 0.0
H68 H 0.18864 0.83604 0.8695 0.0
H69 H 0.12049 0.57934 0.11578 0.0
O70 O 0.15988 0.72154 0.15378 0.0
H71 H 0.23245 0.39622 0.07742 0.0
H72 H 0.27449 0.63649 0.21748 0.0
H73 H 0.26048 0.79525 0.08268 0.0
H74 H 0.23939 0.5568 0.08518 0.0
H75 H 0.21594 0.61745 0.17394 0.0
O76 O 0.08673 0.67127 -0.00293 0.0
H77 H 0.19025 0.78928 0.94402 0.0
H78 H 0.06731 0.80065 0.94998 0.0
H79 H 0.31856 0.81996 0.12633 0.0
H80 H 0.11192 0.41948 0.1081 0.0
H81 H 0.3258 0.74055 0.19441 0.0
H82 H 0.16826 0.32622 0.08799 0.0
O83 O 0.18926 0.83591 0.08919 0.0
H84 H 0.01726 0.88394 0.08944 0.0
H85 H 0.12242 0.94687 0.98903 0.0
H86 H 0.07757 0.06581 0.00944 0.0
H87 H 0.02413 0.03471 0.05972 0.0
H88 H 0.06284 0.76759 0.0684 0.0
H89 H 0.06427 0.84693 0.87549 0.0
H90 H 0.12528 0.86546 0.8348 0.0
O91 O 0.1759 0.84189 0.02047 0.0
C92 C 0.20164 0.64563 0.00915 0.0
C93 C 0.16186 0.82869 0.88695 0.0
C94 C 0.09206 0.83474 0.8903 0.0
N95 N 0.12899 0.79387 0.9515 0.0
C96 C 0.16262 0.80245 0.92915 0.0
C97 C 0.09396 0.80842 0.93246 0.0
C98 C 0.12631 0.8451 0.86749 0.0
C99 C 0.145 0.53994 0.10688 0.0
N100 N 0.18034 0.57821 0.10083 0.0
C101 C 0.14014 0.44886 0.10322 0.0
C102 C 0.17178 0.39655 0.09238 0.0
C103 C 0.20789 0.43557 0.08688 0.0
C104 C 0.21171 0.52667 0.09149 0.0
C105 C 0.27157 0.67192 0.18801 0.0
C106 C 0.26322 0.76082 0.11232 0.0
C107 C 0.23859 0.66076 0.163 0.0
N108 N 0.23448 0.70571 0.12586 0.0
C109 C 0.2962 0.77523 0.13698 0.0
C110 C 0.30028 0.73053 0.17513 0.0
C111 C 0.19111 0.87602 0.05371 0.0
C112 C 0.04024 0.89827 0.06724 0.0
C113 C 0.09954 0.93239 0.01105 0.0
C114 C 0.07408 1.00027 0.02245 0.0
C115 C 0.04414 0.98283 0.05065 0.0
N116 N 0.0952 0.84887 0.02677 0.0
C117 C 0.06625 0.83207 0.05503 0.0
Co118 Co 0.32943 0.20643 0.41156 0.0
Co119 Co 0.38365 0.25691 0.49683 0.0
O120 O 0.37999 0.21217 0.43925 0.0
C121 C 0.389 0.22248 0.34104 0.0
O122 O 0.41813 0.22416 0.36763 0.0
C123 C 0.43436 0.09625 0.4967 0.0
O124 O 0.40499 0.05163 0.48182 0.0
O125 O 0.34732 0.16077 0.51514 0.0
O126 O 0.30204 0.1887 0.46688 0.0
H127 H 0.33036 0.33825 0.63898 0.0
H128 H 0.39425 0.07879 0.3945 0.0
O129 O 0.35399 0.22081 0.35408 0.0
H130 H 0.28167 0.89844 0.43191 0.0
H131 H 0.23897 0.13851 0.29138 0.0
H132 H 0.25394 0.29706 0.4261 0.0
H133 H 0.27487 0.05864 0.42355 0.0
H134 H 0.29765 0.11781 0.33464 0.0
O135 O 0.43031 0.17747 0.50637 0.0
H136 H 0.32668 0.2896 0.56482 0.0
H137 H 0.44915 0.30671 0.55358 0.0
H138 H 0.19593 0.32408 0.38254 0.0
H139 H 0.40217 0.91828 0.40061 0.0
H140 H 0.18817 0.24462 0.31454 0.0
H141 H 0.34565 0.82647 0.42076 0.0
O142 O 0.32505 0.33661 0.41875 0.0
H143 H 0.49891 0.37436 0.41785 0.0
H144 H 0.39029 0.45181 0.5119 0.0
H145 H 0.43526 0.56797 0.48874 0.0
H146 H 0.4903 0.52949 0.44159 0.0
H147 H 0.45306 0.26042 0.44171 0.0
H148 H 0.45424 0.35516 0.62764 0.0
H149 H 0.39451 0.37165 0.67081 0.0
O150 O 0.338 0.34173 0.48746 0.0
C151 C 0.31366 0.14722 0.49961 0.0
C152 C 0.35657 0.33177 0.62045 0.0
C153 C 0.4261 0.34125 0.61407 0.0
N154 N 0.38755 0.29689 0.55474 0.0
C155 C 0.35465 0.30441 0.57844 0.0
C156 C 0.42303 0.31381 0.57216 0.0
C157 C 0.39258 0.35044 0.63828 0.0
C158 C 0.36926 0.03954 0.4016 0.0
N159 N 0.3339 0.07855 0.40742 0.0
C160 C 0.37393 0.94828 0.40515 0.0
C161 C 0.34224 0.89685 0.41623 0.0
C162 C 0.30625 0.93688 0.42207 0.0
C163 C 0.30251 0.02788 0.4171 0.0
C164 C 0.24212 0.17395 0.32082 0.0
C165 C 0.251 0.26269 0.39647 0.0
C166 C 0.27515 0.16179 0.3457 0.0
N167 N 0.27955 0.20675 0.3828 0.0
C168 C 0.21806 0.27844 0.37186 0.0
C169 C 0.21369 0.23371 0.33375 0.0
C170 C 0.32298 0.37667 0.45426 0.0
C171 C 0.47503 0.39203 0.43838 0.0
C172 C 0.41369 0.4346 0.49092 0.0
C173 C 0.43927 0.50067 0.47808 0.0
C174 C 0.47016 0.47905 0.45166 0.0
N175 N 0.41875 0.34923 0.478 0.0
C176 C 0.44891 0.32773 0.45195 0.0
Co177 Co 0.18122 0.80498 0.40536 0.0
Co178 Co 0.13536 0.75991 0.49795 0.0
O179 O 0.13405 0.791 0.43835 0.0
C180 C 0.12054 0.73119 0.34598 0.0
O181 O 0.09584 0.71446 0.37633 0.0
C182 C 0.08135 0.9115 0.48867 0.0
O183 O 0.10763 0.94643 0.46413 0.0
O184 O 0.17 0.86273 0.50968 0.0
O185 O 0.21147 0.84883 0.45579 0.0
H186 H 0.19848 0.71491 0.63912 0.0
H187 H 0.11017 0.89325 0.36971 0.0
O188 O 0.15407 0.76261 0.35338 0.0
H189 H 0.19708 0.13238 0.41253 0.0
H190 H 0.25603 0.89426 0.27596 0.0
H191 H 0.26208 0.73408 0.41107 0.0
H192 H 0.21936 0.97942 0.41449 0.0
H193 H 0.19961 0.89212 0.32337 0.0
O194 O 0.08809 0.83798 0.50709 0.0
H195 H 0.19684 0.74817 0.56299 0.0
H196 H 0.07461 0.71576 0.56131 0.0
H197 H 0.31781 0.72809 0.3627 0.0
H198 H 0.08891 0.04648 0.36008 0.0
H199 H 0.31555 0.81071 0.29514 0.0
H200 H 0.13213 0.16861 0.38277 0.0
O201 O 0.19576 0.68174 0.4198 0.0
H202 H 0.01601 0.61263 0.4399 0.0
H203 H 0.13714 0.56808 0.5198 0.0
H204 H 0.09395 0.44165 0.50708 0.0
H205 H 0.03266 0.46359 0.46718 0.0
H206 H 0.06036 0.73687 0.45274 0.0
H207 H 0.07479 0.68248 0.63745 0.0
H208 H 0.13709 0.68148 0.67684 0.0
O209 O 0.18247 0.6791 0.48875 0.0
C210 C 0.20142 0.88337 0.49096 0.0
C211 C 0.17117 0.71459 0.62228 0.0
C212 C 0.10175 0.69641 0.62134 0.0
N213 N 0.13582 0.73215 0.55761 0.0
C214 C 0.1701 0.73315 0.57916 0.0
C215 C 0.10184 0.71521 0.57822 0.0
C216 C 0.13672 0.69592 0.64342 0.0
C217 C 0.1302 0.94509 0.3768 0.0
N218 N 0.16615 0.92628 0.39272 0.0
C219 C 0.11766 0.03234 0.37211 0.0
C220 C 0.14183 0.10073 0.38489 0.0
C221 C 0.17842 0.08094 0.40096 0.0
C222 C 0.19061 0.99341 0.40315 0.0
C223 C 0.2576 0.85907 0.30562 0.0
C224 C 0.26029 0.76859 0.38135 0.0
C225 C 0.22589 0.85874 0.33303 0.0
N226 N 0.22761 0.81492 0.37073 0.0
C227 C 0.29218 0.76554 0.35419 0.0
C228 C 0.29091 0.81188 0.31629 0.0
C229 C 0.19915 0.64569 0.45608 0.0
C230 C 0.04266 0.60217 0.45728 0.0
C231 C 0.11096 0.57803 0.50171 0.0
C232 C 0.08643 0.5062 0.49488 0.0
C233 C 0.05203 0.51855 0.47254 0.0
N234 N 0.10156 0.66 0.48671 0.0
C235 C 0.0679 0.67243 0.46471 0.0
Co236 Co 0.68505 0.69974 0.89813 0.0
Co237 Co 0.62952 0.75962 0.9822 0.0
O238 O 0.6342 0.71246 0.92506 0.0
C239 C 0.62728 0.71878 0.82551 0.0
O240 O 0.59748 0.72672 0.85096 0.0
C241 C 0.56816 0.6176 0.97286 0.0
O242 O 0.57727 0.6079 0.93321 0.0
O243 O 0.66694 0.66747 0.00232 0.0
O244 O 0.71241 0.6866 0.95364 0.0
H245 H 0.68346 0.85485 0.12205 0.0
H246 H 0.61994 0.57716 0.87582 0.0
O247 O 0.66165 0.71128 0.83995 0.0
H248 H 0.72306 0.38985 0.93397 0.0
H249 H 0.77493 0.60185 0.78223 0.0
H250 H 0.76112 0.78989 0.90821 0.0
H251 H 0.73507 0.54684 0.91907 0.0
H252 H 0.71626 0.59338 0.82627 0.0
O253 O 0.58548 0.67455 0.99595 0.0
H254 H 0.68687 0.80181 0.04856 0.0
H255 H 0.56401 0.80774 0.03963 0.0
H256 H 0.81882 0.80556 0.86307 0.0
H257 H 0.60703 0.42011 0.88799 0.0
H258 H 0.82609 0.71092 0.79959 0.0
H259 H 0.65859 0.32535 0.91893 0.0
O260 O 0.69135 0.82986 0.90289 0.0
H261 H 0.515 0.8725 0.8981 0.0
H262 H 0.61739 0.9523 -0.001 0.0
H263 H 0.57113 0.06562 0.97567 0.0
H264 H 0.519 0.02604 0.92515 0.0
H265 H 0.56205 0.76188 0.92196 0.0
H266 H 0.55918 0.86047 0.11303 0.0
H267 H 0.61924 0.88489 0.15469 0.0
O268 O 0.67358 0.84615 0.9702 0.0
C269 C 0.7008 0.6522 0.98799 0.0
C270 C 0.65709 0.84497 0.10416 0.0
C271 C 0.58735 0.84808 0.0991 0.0
N272 N 0.62575 0.80339 0.03958 0.0
C273 C 0.65885 0.8151 0.06253 0.0
C274 C 0.59025 0.81815 0.05756 0.0
C275 C 0.62105 0.86173 0.12246 0.0
C276 C 0.6428 0.53656 0.88817 0.0
N277 N 0.67824 0.57201 0.89691 0.0
C278 C 0.63534 0.4472 0.89494 0.0
C279 C 0.6642 0.39415 0.91216 0.0
C280 C 0.7005 0.43012 0.92029 0.0
C281 C 0.70727 0.51895 0.91157 0.0
C282 C 0.77203 0.64369 0.80972 0.0
C283 C 0.76373 0.74919 0.88041 0.0
C284 C 0.73905 0.63836 0.83516 0.0
N285 N 0.73495 0.69151 0.86977 0.0
C286 C 0.7965 0.75851 0.85488 0.0
C287 C 0.80062 0.7052 0.81934 0.0
C288 C 0.69118 0.87482 0.93716 0.0
C289 C 0.53745 0.89058 0.92031 0.0
C290 C 0.59537 0.93419 0.97668 0.0
C291 C 0.56898 0.99889 0.96369 0.0
C292 C 0.53974 0.9767 0.93539 0.0
N293 N 0.59266 0.84914 0.96243 0.0
C294 C 0.56433 0.82766 0.93412 0.0
Co295 Co 0.82632 0.319 0.89455 0.0
Co296 Co 0.87662 0.26099 0.9835 0.0
O297 O 0.87446 0.29712 0.92475 0.0
C298 C 0.87652 0.22261 0.83338 0.0
O299 O 0.88828 0.16847 0.86305 0.0
C300 C 0.94103 0.39353 0.96849 0.0
O301 O 0.93211 0.39655 0.92842 0.0
O302 O 0.84178 0.36191 -0.0006 0.0
O303 O 0.79826 0.35849 0.94705 0.0
H304 H 0.82222 0.21087 0.12881 0.0
H305 H 0.89521 0.40126 0.85263 0.0
O306 O 0.85133 0.28174 0.84084 0.0
H307 H 0.82283 0.64759 0.91573 0.0
H308 H 0.74836 0.44011 0.77298 0.0
H309 H 0.74564 0.24557 0.89738 0.0
H310 H 0.79515 0.49924 0.91475 0.0
H311 H 0.80557 0.42679 0.81852 0.0
O312 O 0.9228 0.34232 0.99384 0.0
H313 H 0.81968 0.25319 0.05392 0.0
H314 H 0.94034 0.20527 0.04133 0.0
H315 H 0.68953 0.25021 0.84982 0.0
H316 H 0.92072 0.55132 0.84594 0.0
H317 H 0.68991 0.35036 0.78793 0.0
H318 H 0.88506 0.67641 0.87878 0.0
O319 O 0.81046 0.19534 0.90696 0.0
H320 H 0.99018 0.11413 0.91033 0.0
H321 H 0.87792 0.06972 0.00401 0.0
H322 H 0.91995 0.94333 0.98625 0.0
H323 H 0.97692 0.96522 0.93956 0.0
H324 H 0.94711 0.23784 0.92808 0.0
H325 H 0.94456 0.16392 0.11633 0.0
H326 H 0.8851 0.16561 0.16057 0.0
O327 O 0.83025 0.17912 0.97428 0.0
C328 C 0.80977 0.38649 0.98291 0.0
C329 C 0.84821 0.20824 0.1097 0.0
C330 C 0.91687 0.18218 0.10274 0.0
N331 N 0.87931 0.2274 0.0426 0.0
C332 C 0.84676 0.23092 0.06705 0.0
C333 C 0.91426 0.20539 0.06021 0.0
C334 C 0.88351 0.1832 0.12754 0.0
C335 C 0.8781 0.45513 0.86464 0.0
N336 N 0.84355 0.44001 0.88457 0.0
C337 C 0.89315 0.54034 0.86136 0.0
C338 C 0.8732 0.61039 0.87979 0.0
C339 C 0.83811 0.59461 0.90002 0.0
C340 C 0.82294 0.50948 0.90049 0.0
C341 C 0.74758 0.39738 0.80031 0.0
C342 C 0.74695 0.28749 0.86992 0.0
C343 C 0.77976 0.39077 0.82693 0.0
N344 N 0.77906 0.33749 0.86181 0.0
C345 C 0.71471 0.29039 0.84321 0.0
C346 C 0.71489 0.34665 0.80854 0.0
C347 C 0.80961 0.15471 0.94242 0.0
C348 C 0.9657 0.10391 0.93111 0.0
C349 C 0.90247 0.08002 0.98341 0.0
C350 C 0.92624 0.00804 0.97357 0.0
C351 C 0.95819 0.02034 0.94739 0.0
N352 N 0.91043 0.16246 0.96808 0.0
C353 C 0.94128 0.17435 0.94165 0.0
Co354 Co 0.68364 0.8221 0.58812 0.0
Co355 Co 0.63554 0.76144 0.4986 0.0
O356 O 0.63609 0.80137 0.55671 0.0
C357 C 0.63118 0.72506 0.6465 0.0
O358 O 0.6189 0.67658 0.61498 0.0
C359 C 0.58395 0.918 0.50329 0.0
O360 O 0.61196 0.95655 0.52413 0.0
O361 O 0.6711 0.85931 0.48202 0.0
O362 O 0.71285 0.86069 0.53622 0.0
H363 H 0.69403 0.69487 0.35696 0.0
H364 H 0.61409 0.9058 0.62779 0.0
O365 O 0.65697 0.78383 0.64105 0.0
H366 H 0.68549 0.14847 0.56151 0.0
H367 H 0.75776 0.94158 0.71247 0.0
H368 H 0.76485 0.75025 0.58706 0.0
H369 H 0.71511 1.00207 0.56737 0.0
H370 H 0.70172 0.92819 0.66515 0.0
O371 O 0.58894 0.8406 0.48815 0.0
H372 H 0.69499 0.73843 0.43192 0.0
H373 H 0.57271 0.70959 0.43908 0.0
H374 H 0.82005 0.75598 0.63584 0.0
H375 H 0.58681 0.05536 0.63049 0.0
H376 H 0.81737 0.85424 0.69839 0.0
H377 H 0.62187 0.17822 0.59556 0.0
O378 O 0.70038 0.69844 0.57653 0.0
H379 H 0.51651 0.63237 0.56641 0.0
H380 H 0.63389 0.56666 0.48336 0.0
H381 H 0.5894 0.44597 0.50189 0.0
H382 H 0.52991 0.47856 0.54334 0.0
H383 H 0.56223 0.75068 0.54785 0.0
H384 H 0.57036 0.66562 0.36423 0.0
H385 H 0.63136 0.65767 0.32268 0.0
O386 O 0.68187 0.68018 0.50957 0.0
C387 C 0.70273 0.88414 0.49907 0.0
C388 C 0.66727 0.69748 0.37478 0.0
C389 C 0.59787 0.68102 0.37887 0.0
N390 N 0.63409 0.72452 0.44007 0.0
C391 C 0.66766 0.72198 0.41724 0.0
C392 C 0.5994 0.70575 0.42127 0.0
C393 C 0.63211 0.67668 0.35557 0.0
C394 C 0.631 0.95922 0.61553 0.0
N395 N 0.66623 0.94356 0.59714 0.0
C396 C 0.61495 0.04402 0.61631 0.0
C397 C 0.63454 0.11279 0.59665 0.0
C398 C 0.67042 0.09653 0.57804 0.0
C399 C 0.6867 0.01229 0.58045 0.0
C400 C 0.75954 0.89977 0.68485 0.0
C401 C 0.76267 0.79172 0.61463 0.0
C402 C 0.72803 0.89301 0.65733 0.0
N403 N 0.72997 0.84057 0.6222 0.0
C404 C 0.79438 0.7952 0.64205 0.0
C405 C 0.7929 0.8504 0.6771 0.0
C406 C 0.70142 0.65483 0.54196 0.0
C407 C 0.54229 0.61731 0.54826 0.0
C408 C 0.60855 0.58133 0.50203 0.0
C409 C 0.58325 0.5127 0.51219 0.0
C410 C 0.54986 0.53102 0.53539 0.0
N411 N 0.60084 0.66599 0.51452 0.0
C412 C 0.56825 0.68424 0.5375 0.0
Co413 Co 0.82747 0.19597 0.58074 0.0
Co414 Co 0.88319 0.25495 0.49743 0.0
O415 O 0.87828 0.20882 0.55443 0.0
C416 C 0.88486 0.21788 0.6535 0.0
O417 O 0.91493 0.22376 0.62831 0.0
C418 C 0.9325 0.09242 0.49568 0.0
O419 O 0.90194 0.04716 0.50694 0.0
O420 O 0.84696 0.15959 0.4768 0.0
O421 O 0.80098 0.17896 0.52522 0.0
H422 H 0.83643 0.33164 0.3516 0.0
H423 H 0.89464 0.07757 0.60129 0.0
O424 O 0.85055 0.2109 0.63878 0.0
H425 H 0.79154 0.88265 0.55071 0.0
H426 H 0.73723 0.10127 0.69668 0.0
H427 H 0.75069 0.28382 0.56899 0.0
H428 H 0.7785 0.04017 0.56238 0.0
H429 H 0.7962 0.09164 0.65312 0.0
O430 O 0.92976 0.17508 0.4886 0.0
H431 H 0.82979 0.27802 0.42451 0.0
H432 H 0.95025 0.31383 0.44534 0.0
H433 H 0.6927 0.3007 0.61354 0.0
H434 H 0.90818 0.91944 0.59342 0.0
H435 H 0.68548 0.20848 0.67778 0.0
H436 H 0.85649 0.82038 0.56658 0.0
O437 O 0.81974 0.3256 0.57446 0.0
H438 H 0.99708 0.37111 0.57951 0.0
H439 H 0.88799 0.45055 0.48622 0.0
H440 H 0.93176 0.56706 0.51196 0.0
H441 H 0.98699 0.52757 0.55867 0.0
H442 H 0.95244 0.25683 0.55329 0.0
H443 H 0.95846 0.36652 0.3724 0.0
H444 H 0.9012 0.3766 0.32505 0.0
O445 O 0.83773 0.3399 0.50676 0.0
C446 C 0.81292 0.14421 0.49102 0.0
C447 C 0.86148 0.32915 0.37214 0.0
C448 C 0.92997 0.34848 0.38377 0.0
N449 N 0.88911 0.29709 0.43995 0.0
C450 C 0.85774 0.3 0.41372 0.0
C451 C 0.92508 0.31895 0.42514 0.0
C452 C 0.89785 0.35403 0.35722 0.0
C453 C 0.87154 0.03503 0.59158 0.0
N454 N 0.83552 0.06868 0.58335 0.0
C455 C 0.87948 0.94514 0.5868 0.0
C456 C 0.85059 0.88977 0.57171 0.0
C457 C 0.81401 0.92444 0.56313 0.0
C458 C 0.80671 0.01382 0.57001 0.0
C459 C 0.74007 0.14184 0.66879 0.0
C460 C 0.74819 0.24423 0.59714 0.0
C461 C 0.77327 0.136 0.64369 0.0
N462 N 0.77732 0.18768 0.60862 0.0
C463 C 0.71521 0.2542 0.62232 0.0
C464 C 0.71113 0.20233 0.6583 0.0
C465 C 0.81872 0.36735 0.53926 0.0
C466 C 0.97316 0.38915 0.5591 0.0
C467 C 0.91164 0.43284 0.50697 0.0
C468 C 0.93646 0.49913 0.52128 0.0
C469 C 0.96745 0.47693 0.54747 0.0
N470 N 0.91762 0.34668 0.51821 0.0
C471 C 0.94779 0.32462 0.54413 0.0
C472 C 0.27387 0.02253 0.08636 0.0
C473 C 0.28783 0.06071 0.04844 0.0
C474 C 0.23399 0.98508 0.01103 0.0
C475 C 0.21871 0.95445 0.0504 0.0
N476 N 0.21627 0.98599 0.12507 0.0
N477 N 0.28293 0.06643 0.97242 0.0
C478 C 0.23619 0.98628 0.08789 0.0
C479 C 0.2685 0.03814 0.01006 0.0
N480 N 0.29745 0.01621 0.12075 0.0
N481 N 0.21554 0.96478 0.9743 0.0
H482 H 0.31226 0.07864 0.96802 0.0
H483 H 0.26665 0.07115 0.94487 0.0
H484 H 0.186 0.95221 0.9732 0.0
H485 H 0.22865 0.96653 0.94475 0.0
H486 H 0.28902 0.98441 0.14844 0.0
H487 H 0.32694 0.03074 0.11892 0.0
H488 H 0.22751 0.01357 0.15262 0.0
H489 H 0.18682 0.97057 0.12664 0.0
C490 C 0.24707 0.54486 0.49792 0.0
C491 C 0.22764 0.56829 0.45963 0.0
C492 C 0.27828 0.48918 0.4201 0.0
C493 C 0.29564 0.45633 0.45755 0.0
N494 N 0.29875 0.4663 0.53371 0.0
N495 N 0.21716 0.52294 0.38756 0.0
C496 C 0.28077 0.48849 0.49692 0.0
C497 C 0.241 0.52839 0.42175 0.0
N498 N 0.23361 0.57564 0.53558 0.0
N499 N 0.29799 0.48724 0.38279 0.0
H500 H 0.18781 0.53918 0.38955 0.0
H501 H 0.22511 0.48993 0.35997 0.0
H502 H 0.3273 0.47017 0.38105 0.0
H503 H 0.28686 0.51532 0.35526 0.0
H504 H 0.25051 0.58006 0.56271 0.0
H505 H 0.20454 0.59025 0.54054 0.0
H506 H 0.28539 0.46883 0.56313 0.0
H507 H 0.3281 0.45125 0.53508 0.0
C508 C 0.7397 0.98087 0.90401 0.0
C509 C 0.7178 0.95539 0.94007 0.0
C510 C 0.75667 0.0642 0.98092 0.0
C511 C 0.78183 0.07743 0.94578 0.0
N512 N 0.80402 0.01611 0.88007 0.0
N513 N 0.70736 0.9789 0.01525 0.0
C514 C 0.77541 0.02554 0.90935 0.0
C515 C 0.727 0.99834 0.97919 0.0
N516 N 0.72567 0.96817 0.86423 0.0
N517 N 0.75913 0.11704 0.0156 0.0
H518 H 0.67875 0.95888 0.01543 0.0
H519 H 0.7189 0.98968 0.04521 0.0
H520 H 0.78164 0.16014 0.0209 0.0
H521 H 0.73762 0.1208 0.03864 0.0
H522 H 0.74048 0.98985 0.83749 0.0
H523 H 0.69702 0.94991 0.85844 0.0
H524 H 0.80134 0.97369 0.8543 0.0
H525 H 0.83175 0.04182 0.88477 0.0
C526 C 0.74091 0.53613 0.50004 0.0
C527 C 0.72925 0.57559 0.5392 0.0
C528 C 0.78363 0.49602 0.57308 0.0
C529 C 0.79151 0.44651 0.5361 0.0
N530 N 0.77099 0.4139 0.46433 0.0
N531 N 0.73224 0.55602 0.61519 0.0
C532 C 0.76877 0.46578 0.49944 0.0
C533 C 0.74854 0.54498 0.57637 0.0
N534 N 0.7253 0.56272 0.46266 0.0
N535 N 0.80989 0.49804 0.6053 0.0
H536 H 0.70379 0.57734 0.61908 0.0
H537 H 0.74452 0.52995 0.64258 0.0
H538 H 0.83729 0.46893 0.60295 0.0
H539 H 0.80621 0.5384 0.63168 0.0
H540 H 0.73977 0.55432 0.43401 0.0
H541 H 0.69692 0.58393 0.45944 0.0
H542 H 0.75116 0.41752 0.43956 0.0
H543 H 0.79007 0.36206 0.46068 0.0
C544 C 0.42389 0.27323 0.22922 0.0
C545 C 0.40332 0.20819 0.20641 0.0
C546 C 0.38178 0.14085 0.2721 0.0
C547 C 0.39654 0.21467 0.29493 0.0
N548 N 0.43016 0.35433 0.29481 0.0
N549 N 0.36465 0.07714 0.20455 0.0
C550 C 0.41788 0.28109 0.2735 0.0
C551 C 0.3833 0.14048 0.22753 0.0
N552 N 0.44896 0.3274 0.20834 0.0
N553 N 0.3673 0.06963 0.29297 0.0
H554 H 0.36892 0.0702 0.17217 0.0
H555 H 0.3443 0.03376 0.21702 0.0
H556 H 0.36495 0.06782 0.32533 0.0
H557 H 0.36039 0.00984 0.2787 0.0
H558 H 0.46727 0.37195 0.22336 0.0
H559 H 0.45431 0.32087 0.17611 0.0
H560 H 0.44208 0.40932 0.2801 0.0
H561 H 0.42571 0.36352 0.32703 0.0
C562 C 0.09 0.77836 0.27837 0.0
C563 C 0.11073 0.71384 0.30155 0.0
C564 C 0.13221 0.64441 0.23619 0.0
C565 C 0.11733 0.71775 0.21294 0.0
N566 N 0.0836 0.85782 0.21234 0.0
N567 N 0.14958 0.58248 0.30409 0.0
C568 C 0.09597 0.78499 0.23404 0.0
C569 C 0.13082 0.64539 0.28078 0.0
N570 N 0.06477 0.83315 0.29892 0.0
N571 N 0.14662 0.57234 0.21573 0.0
H572 H 0.14535 0.57641 0.33651 0.0
H573 H 0.16998 0.5386 0.29182 0.0
H574 H 0.14877 0.56937 0.18338 0.0
H575 H 0.15363 0.51291 0.23039 0.0
H576 H 0.04637 0.87739 0.28362 0.0
H577 H 0.05933 0.82739 0.33115 0.0
H578 H 0.07167 0.91334 0.22677 0.0
H579 H 0.08799 0.86611 0.18006 0.0
C580 C 0.60216 0.78019 0.75664 0.0
C581 C 0.62123 0.71142 0.77909 0.0
C582 C 0.63598 0.636 0.71218 0.0
C583 C 0.61878 0.70692 0.69023 0.0
N584 N 0.57325 0.82657 0.69033 0.0
N585 N 0.6473 0.56274 0.77834 0.0
C586 C 0.59788 0.77276 0.7122 0.0
C587 C 0.63545 0.63592 0.75687 0.0
N588 N 0.5903 0.85492 0.77717 0.0
N589 N 0.65386 0.56988 0.69018 0.0
H590 H 0.64772 0.56001 0.8108 0.0
H591 H 0.65373 0.50234 0.7643 0.0
H592 H 0.64987 0.56158 0.65789 0.0
H593 H 0.67287 0.52429 0.70359 0.0
H594 H 0.58006 0.91084 0.76158 0.0
H595 H 0.59362 0.86418 0.80953 0.0
H596 H 0.55477 0.87217 0.7046 0.0
H597 H 0.56818 0.81739 0.65816 0.0
C598 C 0.91162 0.2719 0.7236 0.0
C599 C 0.89021 0.20894 0.69996 0.0
C600 C 0.86396 0.14721 0.76519 0.0
C601 C 0.88643 0.20701 0.78885 0.0
N602 N 0.93941 0.30958 0.79169 0.0
N603 N 0.85902 0.06619 0.70061 0.0
C604 C 0.91301 0.26374 0.76835 0.0
C605 C 0.87043 0.14017 0.72148 0.0
N606 N 0.9285 0.34222 0.70398 0.0
N607 N 0.83499 0.10003 0.78386 0.0
H608 H 0.86594 0.05579 0.66931 0.0
H609 H 0.84736 0.01116 0.71566 0.0
H610 H 0.82886 0.10466 0.81588 0.0
H611 H 0.81494 0.06295 0.76682 0.0
H612 H 0.94088 0.39468 0.72035 0.0
H613 H 0.92735 0.35213 0.6715 0.0
H614 H 0.96154 0.347 0.77836 0.0
H615 H 0.94153 0.30211 0.82434 0.0
C616 C 0.47082 0.53952 0.01611 0.0
C617 C 0.47453 0.44676 0.00975 0.0
C618 C 0.54223 0.46725 0.98799 0.0
C619 C 0.53716 0.56016 0.99001 0.0
N620 N 0.49513 0.68587 0.00042 0.0
N621 N 0.51263 0.32259 0.98551 0.0
C622 C 0.50113 0.59674 0.00286 0.0
C623 C 0.50984 0.41075 0.99421 0.0
N624 N 0.43837 0.57319 0.0351 0.0
N625 N 0.57859 0.43303 0.98199 0.0
H626 H 0.4904 0.27807 0.99147 0.0
H627 H 0.53595 0.29435 0.9695 0.0
H628 H 0.60307 0.47267 0.97873 0.0
H629 H 0.58521 0.36612 0.98435 0.0
H630 H 0.4361 0.63818 0.04555 0.0
H631 H 0.41444 0.53488 0.04299 0.0
H632 H 0.46808 0.71561 0.00426 0.0
H633 H 0.51665 0.73012 0.99145 0.0
C634 C 1.00097 0.59965 0.99142 0.0
C635 C 0.03666 0.5611 0.00417 0.0
C636 C 0.00826 0.4127 -0.00165 0.0
C637 C 0.97313 0.45096 0.98351 0.0
N638 N 0.93655 0.5798 0.96236 0.0
N639 N 0.07662 0.43215 0.01433 0.0
C640 C 0.96976 0.54417 0.97884 0.0
C641 C 0.04086 0.46787 0.00631 0.0
N642 N 0.99621 0.68924 0.99346 0.0
N643 N 0.01057 0.32355 0.00471 0.0
H644 H 0.10108 0.47056 0.02007 0.0
H645 H 0.08307 0.36518 0.01208 0.0
H646 H 0.98854 0.28006 0.99646 0.0
H647 H 0.03337 0.29258 0.02038 0.0
H648 H 0.96965 0.72121 0.9899 0.0
H649 H 0.01853 0.73224 0.00144 0.0
H650 H 0.93401 0.64516 0.95261 0.0
H651 H 0.9117 0.5429 0.95647 0.0
C652 C 0.52346 0.97442 0.53877 0.0
C653 C 0.54529 0.962 0.50113 0.0
C654 C 0.49432 0.03765 0.46058 0.0
C655 C 0.47339 0.05365 0.49853 0.0
N656 N 0.47031 0.04953 0.57433 0.0
N657 N 0.55443 0.99031 0.42715 0.0
C658 C 0.48874 0.02588 0.53783 0.0
C659 C 0.53137 0.99543 0.4622 0.0
N660 N 0.53503 0.93347 0.57509 0.0
N661 N 0.47875 0.06347 0.42292 0.0
H662 H 0.58146 0.95909 0.42712 0.0
H663 H 0.54821 0.02161 0.39875 0.0
H664 H 0.454 0.1027 0.42094 0.0
H665 H 0.48944 0.04392 0.39368 0.0
H666 H 0.51851 0.93172 0.60254 0.0
H667 H 0.55995 0.89456 0.57693 0.0
H668 H 0.48219 0.04049 0.6042 0.0
H669 H 0.44416 0.08441 0.57478 0.0
C670 C 0.98516 0.01524 0.45491 0.0
C671 C 0.97102 0.04775 0.4939 0.0
C672 C 0.02968 0.99223 0.52982 0.0
C673 C 0.0425 0.95447 0.49131 0.0
N674 N 0.02994 0.91741 0.41861 0.0
N675 N 0.97789 0.06337 0.56913 0.0
C676 C 0.01959 0.96283 0.45417 0.0
C677 C 0.99272 0.03482 0.53158 0.0
N678 N 0.96597 0.03581 0.41845 0.0
N679 N 0.05369 0.99111 0.56417 0.0
H680 H 0.9528 0.10154 0.57108 0.0
H681 H 0.98931 0.04631 0.5984 0.0
H682 H 0.08073 0.95998 0.56415 0.0
H683 H 0.04823 0.02586 0.59186 0.0
H684 H 0.97698 0.02301 0.3885 0.0
H685 H 0.94017 0.07205 0.41796 0.0
H686 H 0.01261 0.91308 0.39181 0.0
H687 H 0.05447 0.87718 0.41703 0.0
C688 C 0.26877 0.59947 0.98997 0.0
C689 C 0.22889 0.57771 0.99142 0.0
C690 C 0.24644 0.42001 0.98954 0.0
C691 C 0.28538 0.44269 -0.00115 0.0
N692 N 0.335 0.55432 0.00399 0.0
N693 N 0.17913 0.46645 0.98531 0.0
C694 C 0.29719 0.53245 0.99671 0.0
C695 C 0.21752 0.48772 0.98761 0.0
N696 N 0.27909 0.68506 0.98254 0.0
N697 N 0.23731 0.33335 0.98297 0.0
H698 H 0.15743 0.51276 0.97972 0.0
H699 H 0.1685 0.40282 0.98938 0.0
H700 H 0.25802 0.28303 0.98457 0.0
H701 H 0.21033 0.31178 0.97258 0.0
H702 H 0.30754 0.70555 0.97776 0.0
H703 H 0.2584 0.73425 0.97698 0.0
H704 H 0.34454 0.61876 0.00849 0.0
H705 H 0.35685 0.5075 0.00777 0.0
C706 C 0.29645 0.99148 0.52303 0.0
C707 C 0.28586 0.08177 0.51831 0.0
C708 C 0.21718 0.04009 0.51348 0.0
C709 C 0.22836 0.94978 0.51021 0.0
N710 N 0.27603 0.83714 0.52335 0.0
N711 N 0.23665 0.19225 0.52634 0.0
C712 C 0.26729 0.92483 0.51907 0.0
C713 C 0.24617 0.10579 0.51943 0.0
N714 N 0.33439 0.96971 0.5297 0.0
N715 N 0.17922 0.06362 0.50846 0.0
H716 H 0.25783 0.24017 0.53164 0.0
H717 H 0.20846 0.21521 0.5307 0.0
H718 H 0.15693 0.0178 0.50802 0.0
H719 H 0.16972 0.12822 0.50402 0.0
H720 H 0.34559 0.90605 0.5279 0.0
H721 H 0.35481 0.01619 0.53897 0.0
H722 H 0.30325 0.81243 0.53116 0.0
H723 H 0.25496 0.78804 0.52116 0.0
C724 C 0.7171 0.5 0.01633 0.0
C725 C 0.72818 0.58907 0.00919 0.0
C726 C 0.79676 0.54391 0.00602 0.0
C727 C 0.7848 0.45433 0.00431 0.0
N728 N 0.73728 0.34644 0.02301 0.0
N729 N 0.77789 0.69862 0.01369 0.0
C730 C 0.74606 0.43245 0.01487 0.0
C731 C 0.76806 0.61167 0.00998 0.0
N732 N 0.67885 0.47925 0.02128 0.0
N733 N 0.83511 0.56404 0.00145 0.0
H734 H 0.75685 0.74783 0.01739 0.0
H735 H 0.80617 0.72162 0.01636 0.0
H736 H 0.85671 0.51591 0.0005 0.0
H737 H 0.84578 0.62773 -0.002 0.0
H738 H 0.66799 0.41536 0.01995 0.0
H739 H 0.65751 0.52638 0.02703 0.0
H740 H 0.71046 0.32442 0.03361 0.0
H741 H 0.75853 0.29761 0.02233 0.0
C742 C 0.71663 0.03596 0.47063 0.0
C743 C 0.72877 0.94739 0.47658 0.0
C744 C 0.79615 0.99248 0.46278 0.0
C745 C 0.78516 0.08164 0.46996 0.0
N746 N 0.73439 0.19058 0.47192 0.0
N747 N 0.77863 0.8373 0.46978 0.0
C748 C 0.74503 0.10388 0.47014 0.0
C749 C 0.76812 0.92432 0.46914 0.0
N750 N 0.67815 0.05514 0.46577 0.0
N751 N 0.83311 0.97328 0.45037 0.0
H752 H 0.75819 0.78682 0.47219 0.0
H753 H 0.80725 0.81522 0.46951 0.0
H754 H 0.8529 0.02234 0.44253 0.0
H755 H 0.8428 0.90999 0.44306 0.0
H756 H 0.6675 0.11779 0.45877 0.0
H757 H 0.657 0.00658 0.46392 0.0
H758 H 0.7064 0.21269 0.47841 0.0
H759 H 0.7546 0.24064 0.46796 0.0
loop_
_geom_bond_atom_site_label_1
_geom_bond_atom_site_label_2
_geom_bond_distance
_geom_bond_site_symmetry_2
_ccdc_geom_bond_type
Co0 O2 2.143 . S
Co0 O8 2.074 . S
Co0 O11 2.093 . S
Co0 O24 2.097 . S
Co0 N41 2.151 . S
Co0 N49 2.214 . S
Co1 O2 2.160 1_556 S
Co1 O7 2.058 . S
Co1 O17 2.057 . S
Co1 O32 2.037 1_556 S
Co1 N36 2.145 . S
Co1 N57 2.257 1_556 S
O2 Co0 2.143 . S
O2 Co1 2.160 1_554 S
C3 O4 1.278 . S
C3 O11 1.224 . S
O4 C3 1.278 . S
C5 O6 1.245 . S
C5 O17 1.232 1_554 S
O6 C5 1.245 . S
O7 Co1 2.058 . S
O7 C33 1.269 1_556 S
O8 Co0 2.074 . S
O8 C33 1.257 . S
H9 C34 0.930 . S
H10 C40 0.930 . S
O11 Co0 2.093 . S
O11 C3 1.224 . S
H12 C44 0.929 . S
H13 C46 0.930 . S
H14 C47 0.930 . S
H15 C45 0.929 . S
H16 C48 0.928 . S
O17 Co1 2.057 . S
O17 C5 1.232 1_556 S
H18 C37 0.929 . S
H19 C38 0.929 . S
H20 C50 0.931 . S
H21 C42 0.929 . S
H22 C51 0.930 . S
H23 C43 0.931 . S
O24 Co0 2.097 . S
O24 C52 1.214 . S
H25 C53 0.929 . S
H26 C54 0.929 . S
H27 C55 0.930 . S
H28 C56 0.929 . S
H29 C58 0.930 . S
H30 C35 0.930 . S
H31 C39 0.930 . S
O32 Co1 2.037 1_554 S
O32 C52 1.234 . S
C33 O7 1.269 1_554 S
C33 O8 1.257 . S
C34 H9 0.930 . S
C34 C37 1.388 . S
C34 C39 1.418 . S
C35 H30 0.930 . S
C35 C38 1.404 . S
C35 C39 1.353 . S
N36 Co1 2.145 . S
N36 C37 1.397 . S
N36 C38 1.334 . S
C37 H18 0.929 . S
C37 C34 1.388 . S
C37 N36 1.397 . S
C38 H19 0.929 . S
C38 C35 1.404 . S
C38 N36 1.334 . S
C39 H31 0.930 . S
C39 C34 1.418 . S
C39 C35 1.353 . S
C40 H10 0.930 . S
C40 N41 1.330 . S
C40 C42 1.446 . S
N41 Co0 2.151 . S
N41 C40 1.330 . S
N41 C45 1.418 . S
C42 H21 0.929 . S
C42 C40 1.446 . S
C42 C43 1.332 . S
C43 H23 0.931 . S
C43 C42 1.332 . S
C43 C44 1.267 . S
C44 H12 0.929 . S
C44 C43 1.267 . S
C44 C45 1.251 . S
C45 H15 0.929 . S
C45 N41 1.418 . S
C45 C44 1.251 . S
C46 H13 0.930 . S
C46 C48 1.406 . S
C46 C51 1.261 . S
C47 H14 0.930 . S
C47 N49 1.325 . S
C47 C50 1.357 . S
C48 H16 0.928 . S
C48 C46 1.406 . S
C48 N49 1.261 . S
N49 Co0 2.214 . S
N49 C47 1.325 . S
N49 C48 1.261 . S
C50 H20 0.931 . S
C50 C47 1.357 . S
C50 C51 1.312 . S
C51 H22 0.930 . S
C51 C46 1.261 . S
C51 C50 1.312 . S
C52 O24 1.214 . S
C52 O32 1.234 . S
C53 H25 0.929 . S
C53 C56 1.391 1_545 S
C53 C58 1.391 . S
C54 H26 0.929 . S
C54 C55 1.390 1_545 S
C54 N57 1.391 1_556 S
C55 H27 0.930 . S
C55 C54 1.390 1_565 S
C55 C56 1.392 1_556 S
C56 H28 0.929 . S
C56 C53 1.391 1_565 S
C56 C55 1.392 1_554 S
N57 Co1 2.257 1_554 S
N57 C54 1.391 1_554 S
N57 C58 1.388 . S
C58 H29 0.930 . S
C58 C53 1.391 . S
C58 N57 1.388 . S
Co59 O61 2.143 . S
Co59 O67 2.074 . S
Co59 O70 2.093 . S
Co59 O83 2.097 . S
Co59 N100 2.151 . S
Co59 N108 2.214 . S
Co60 O61 2.160 1_556 S
Co60 O66 2.058 . S
Co60 O76 2.057 . S
Co60 O91 2.037 1_556 S
Co60 N95 2.145 . S
Co60 N116 2.257 1_556 S
O61 Co59 2.143 . S
O61 Co60 2.160 1_554 S
C62 O63 1.278 . S
C62 O70 1.224 . S
O63 C62 1.278 . S
C64 O65 1.245 . S
C64 O76 1.232 1_554 S
O65 C64 1.245 . S
O66 Co60 2.058 . S
O66 C92 1.269 1_556 S
O67 Co59 2.074 . S
O67 C92 1.257 . S
H68 C93 0.930 . S
H69 C99 0.930 . S
O70 Co59 2.093 . S
O70 C62 1.224 . S
H71 C103 0.929 . S
H72 C105 0.930 . S
H73 C106 0.930 . S
H74 C104 0.929 . S
H75 C107 0.928 . S
O76 Co60 2.057 . S
O76 C64 1.232 1_556 S
H77 C96 0.929 . S
H78 C97 0.929 . S
H79 C109 0.931 . S
H80 C101 0.929 . S
H81 C110 0.930 . S
H82 C102 0.931 . S
O83 Co59 2.097 . S
O83 C111 1.214 . S
H84 C112 0.929 . S
H85 C113 0.929 . S
H86 C114 0.930 . S
H87 C115 0.929 . S
H88 C117 0.930 . S
H89 C94 0.930 . S
H90 C98 0.930 . S
O91 Co60 2.037 1_554 S
O91 C111 1.234 . S
C92 O66 1.269 1_554 S
C92 O67 1.257 . S
C93 H68 0.930 . S
C93 C96 1.388 . S
C93 C98 1.418 . S
C94 H89 0.930 . S
C94 C97 1.404 . S
C94 C98 1.353 . S
N95 Co60 2.145 . S
N95 C96 1.397 . S
N95 C97 1.334 . S
C96 H77 0.929 . S
C96 C93 1.388 . S
C96 N95 1.397 . S
C97 H78 0.929 . S
C97 C94 1.404 . S
C97 N95 1.334 . S
C98 H90 0.930 . S
C98 C93 1.418 . S
C98 C94 1.353 . S
C99 H69 0.930 . S
C99 N100 1.330 . S
C99 C101 1.446 . S
N100 Co59 2.151 . S
N100 C99 1.330 . S
N100 C104 1.418 . S
C101 H80 0.929 . S
C101 C99 1.446 . S
C101 C102 1.332 . S
C102 H82 0.931 . S
C102 C101 1.332 . S
C102 C103 1.267 . S
C103 H71 0.929 . S
C103 C102 1.267 . S
C103 C104 1.251 . S
C104 H74 0.929 . S
C104 N100 1.418 . S
C104 C103 1.251 . S
C105 H72 0.930 . S
C105 C107 1.406 . S
C105 C110 1.261 . S
C106 H73 0.930 . S
C106 N108 1.325 . S
C106 C109 1.357 . S
C107 H75 0.928 . S
C107 C105 1.406 . S
C107 N108 1.261 . S
N108 Co59 2.214 . S
N108 C106 1.325 . S
N108 C107 1.261 . S
C109 H79 0.931 . S
C109 C106 1.357 . S
C109 C110 1.312 . S
C110 H81 0.930 . S
C110 C105 1.261 . S
C110 C109 1.312 . S
C111 O83 1.214 . S
C111 O91 1.234 . S
C112 H84 0.929 . S
C112 C115 1.391 1_565 S
C112 C117 1.391 . S
C113 H85 0.929 . S
C113 C114 1.390 1_565 S
C113 N116 1.391 1_556 S
C114 H86 0.930 . S
C114 C113 1.390 1_545 S
C114 C115 1.392 1_556 S
C115 H87 0.929 . S
C115 C112 1.391 1_545 S
C115 C114 1.392 1_554 S
N116 Co60 2.257 1_554 S
N116 C113 1.391 1_554 S
N116 C117 1.388 . S
C117 H88 0.930 . S
C117 C112 1.391 . S
C117 N116 1.388 . S
Co118 O120 2.143 . S
Co118 O126 2.074 . S
Co118 O129 2.093 . S
Co118 O142 2.097 . S
Co118 N159 2.151 . S
Co118 N167 2.214 . S
Co119 O120 2.160 . S
Co119 O125 2.058 . S
Co119 O135 2.057 . S
Co119 O150 2.037 . S
Co119 N154 2.145 . S
Co119 N175 2.257 . S
O120 Co118 2.143 . S
O120 Co119 2.160 . S
C121 O122 1.278 . S
C121 O129 1.224 . S
O122 C121 1.278 . S
C123 O124 1.245 . S
C123 O135 1.232 . S
O124 C123 1.245 . S
O125 Co119 2.058 . S
O125 C151 1.269 . S
O126 Co118 2.074 . S
O126 C151 1.257 . S
H127 C152 0.930 . S
H128 C158 0.930 . S
O129 Co118 2.093 . S
O129 C121 1.224 . S
H130 C162 0.929 . S
H131 C164 0.930 . S
H132 C165 0.930 . S
H133 C163 0.929 . S
H134 C166 0.928 . S
O135 Co119 2.057 . S
O135 C123 1.232 . S
H136 C155 0.929 . S
H137 C156 0.929 . S
H138 C168 0.931 . S
H139 C160 0.931 . S
H140 C169 0.930 . S
H141 C161 0.931 . S
O142 Co118 2.097 . S
O142 C170 1.214 . S
H143 C171 0.929 . S
H144 C172 0.929 . S
H145 C173 0.930 . S
H146 C174 0.929 . S
H147 C176 0.930 . S
H148 C153 0.930 . S
H149 C157 0.930 . S
O150 Co119 2.037 . S
O150 C170 1.234 . S
C151 O125 1.269 . S
C151 O126 1.257 . S
C152 H127 0.930 . S
C152 C155 1.388 . S
C152 C157 1.418 . S
C153 H148 0.930 . S
C153 C156 1.404 . S
C153 C157 1.353 . S
N154 Co119 2.145 . S
N154 C155 1.397 . S
N154 C156 1.334 . S
C155 H136 0.929 . S
C155 C152 1.388 . S
C155 N154 1.397 . S
C156 H137 0.929 . S
C156 C153 1.404 . S
C156 N154 1.334 . S
C157 H149 0.930 . S
C157 C152 1.418 . S
C157 C153 1.353 . S
C158 H128 0.930 . S
C158 N159 1.330 . S
C158 C160 1.439 1_545 S
N159 Co118 2.151 . S
N159 C158 1.330 . S
N159 C163 1.418 . S
C160 H139 0.931 . S
C160 C158 1.439 1_565 S
C160 C161 1.337 . S
C161 H141 0.931 . S
C161 C160 1.337 . S
C161 C162 1.267 . S
C162 H130 0.929 . S
C162 C161 1.267 . S
C162 C163 1.251 1_565 S
C163 H133 0.929 . S
C163 N159 1.418 . S
C163 C162 1.251 1_545 S
C164 H131 0.930 . S
C164 C166 1.406 . S
C164 C169 1.261 . S
C165 H132 0.930 . S
C165 N167 1.325 . S
C165 C168 1.357 . S
C166 H134 0.928 . S
C166 C164 1.406 . S
C166 N167 1.261 . S
N167 Co118 2.214 . S
N167 C165 1.325 . S
N167 C166 1.261 . S
C168 H138 0.931 . S
C168 C165 1.357 . S
C168 C169 1.312 . S
C169 H140 0.930 . S
C169 C164 1.261 . S
C169 C168 1.312 . S
C170 O142 1.214 . S
C170 O150 1.234 . S
C171 H143 0.929 . S
C171 C174 1.391 . S
C171 C176 1.391 . S
C172 H144 0.929 . S
C172 C173 1.390 . S
C172 N175 1.391 . S
C173 H145 0.930 . S
C173 C172 1.390 . S
C173 C174 1.392 . S
C174 H146 0.929 . S
C174 C171 1.391 . S
C174 C173 1.392 . S
N175 Co119 2.257 . S
N175 C172 1.391 . S
N175 C176 1.388 . S
C176 H147 0.930 . S
C176 C171 1.391 . S
C176 N175 1.388 . S
Co177 O179 2.143 . S
Co177 O185 2.074 . S
Co177 O188 2.093 . S
Co177 O201 2.097 . S
Co177 N218 2.151 . S
Co177 N226 2.214 . S
Co178 O179 2.160 . S
Co178 O184 2.058 . S
Co178 O194 2.057 . S
Co178 O209 2.037 . S
Co178 N213 2.145 . S
Co178 N234 2.257 . S
O179 Co177 2.143 . S
O179 Co178 2.160 . S
C180 O181 1.278 . S
C180 O188 1.224 . S
O181 C180 1.278 . S
C182 O183 1.245 . S
C182 O194 1.232 . S
O183 C182 1.245 . S
O184 Co178 2.058 . S
O184 C210 1.269 . S
O185 Co177 2.074 . S
O185 C210 1.257 . S
H186 C211 0.930 . S
H187 C217 0.930 . S
O188 Co177 2.093 . S
O188 C180 1.224 . S
H189 C221 0.929 . S
H190 C223 0.930 . S
H191 C224 0.930 . S
H192 C222 0.929 . S
H193 C225 0.928 . S
O194 Co178 2.057 . S
O194 C182 1.232 . S
H195 C214 0.929 . S
H196 C215 0.929 . S
H197 C227 0.931 . S
H198 C219 0.931 . S
H199 C228 0.930 . S
H200 C220 0.931 . S
O201 Co177 2.097 . S
O201 C229 1.214 . S
H202 C230 0.929 . S
H203 C231 0.929 . S
H204 C232 0.930 . S
H205 C233 0.929 . S
H206 C235 0.930 . S
H207 C212 0.930 . S
H208 C216 0.930 . S
O209 Co178 2.037 . S
O209 C229 1.234 . S
C210 O184 1.269 . S
C210 O185 1.257 . S
C211 H186 0.930 . S
C211 C214 1.388 . S
C211 C216 1.418 . S
C212 H207 0.930 . S
C212 C215 1.404 . S
C212 C216 1.353 . S
N213 Co178 2.145 . S
N213 C214 1.397 . S
N213 C215 1.334 . S
C214 H195 0.929 . S
C214 C211 1.388 . S
C214 N213 1.397 . S
C215 H196 0.929 . S
C215 C212 1.404 . S
C215 N213 1.334 . S
C216 H208 0.930 . S
C216 C211 1.418 . S
C216 C212 1.353 . S
C217 H187 0.930 . S
C217 N218 1.330 . S
C217 C219 1.441 1_565 S
N218 Co177 2.151 . S
N218 C217 1.330 . S
N218 C222 1.418 . S
C219 H198 0.931 . S
C219 C217 1.441 1_545 S
C219 C220 1.335 . S
C220 H200 0.931 . S
C220 C219 1.335 . S
C220 C221 1.267 . S
C221 H189 0.929 . S
C221 C220 1.267 . S
C221 C222 1.251 1_545 S
C222 H192 0.929 . S
C222 N218 1.418 . S
C222 C221 1.251 1_565 S
C223 H190 0.930 . S
C223 C225 1.406 . S
C223 C228 1.261 . S
C224 H191 0.930 . S
C224 N226 1.325 . S
C224 C227 1.357 . S
C225 H193 0.928 . S
C225 C223 1.406 . S
C225 N226 1.261 . S
N226 Co177 2.214 . S
N226 C224 1.325 . S
N226 C225 1.261 . S
C227 H197 0.931 . S
C227 C224 1.357 . S
C227 C228 1.312 . S
C228 H199 0.930 . S
C228 C223 1.261 . S
C228 C227 1.312 . S
C229 O201 1.214 . S
C229 O209 1.234 . S
C230 H202 0.929 . S
C230 C233 1.391 . S
C230 C235 1.391 . S
C231 H203 0.929 . S
C231 C232 1.390 . S
C231 N234 1.391 . S
C232 H204 0.930 . S
C232 C231 1.390 . S
C232 C233 1.392 . S
C233 H205 0.929 . S
C233 C230 1.391 . S
C233 C232 1.392 . S
N234 Co178 2.257 . S
N234 C231 1.391 . S
N234 C235 1.388 . S
C235 H206 0.930 . S
C235 C230 1.391 . S
C235 N234 1.388 . S
Co236 O238 2.143 . S
Co236 O244 2.074 . S
Co236 O247 2.093 . S
Co236 O260 2.097 . S
Co236 N277 2.151 . S
Co236 N285 2.214 . S
Co237 O238 2.160 1_554 S
Co237 O243 2.058 . S
Co237 O253 2.057 . S
Co237 O268 2.037 1_554 S
Co237 N272 2.145 . S
Co237 N293 2.257 1_554 S
O238 Co236 2.143 . S
O238 Co237 2.160 1_556 S
C239 O240 1.278 . S
C239 O247 1.224 . S
O240 C239 1.278 . S
C241 O242 1.245 . S
C241 O253 1.232 1_556 S
O242 C241 1.245 . S
O243 Co237 2.058 . S
O243 C269 1.269 1_554 S
O244 Co236 2.074 . S
O244 C269 1.257 . S
H245 C270 0.930 . S
H246 C276 0.930 . S
O247 Co236 2.093 . S
O247 C239 1.224 . S
H248 C280 0.929 . S
H249 C282 0.930 . S
H250 C283 0.930 . S
H251 C281 0.929 . S
H252 C284 0.928 . S
O253 Co237 2.057 . S
O253 C241 1.232 1_554 S
H254 C273 0.929 . S
H255 C274 0.929 . S
H256 C286 0.931 . S
H257 C278 0.929 . S
H258 C287 0.930 . S
H259 C279 0.931 . S
O260 Co236 2.097 . S
O260 C288 1.214 . S
H261 C289 0.929 . S
H262 C290 0.929 . S
H263 C291 0.930 . S
H264 C292 0.929 . S
H265 C294 0.930 . S
H266 C271 0.930 . S
H267 C275 0.930 . S
O268 Co237 2.037 1_556 S
O268 C288 1.234 . S
C269 O243 1.269 1_556 S
C269 O244 1.257 . S
C270 H245 0.930 . S
C270 C273 1.388 . S
C270 C275 1.418 . S
C271 H266 0.930 . S
C271 C274 1.404 . S
C271 C275 1.353 . S
N272 Co237 2.145 . S
N272 C273 1.397 . S
N272 C274 1.334 . S
C273 H254 0.929 . S
C273 C270 1.388 . S
C273 N272 1.397 . S
C274 H255 0.929 . S
C274 C271 1.404 . S
C274 N272 1.334 . S
C275 H267 0.930 . S
C275 C270 1.418 . S
C275 C271 1.353 . S
C276 H246 0.930 . S
C276 N277 1.330 . S
C276 C278 1.446 . S
N277 Co236 2.151 . S
N277 C276 1.330 . S
N277 C281 1.418 . S
C278 H257 0.929 . S
C278 C276 1.446 . S
C278 C279 1.332 . S
C279 H259 0.931 . S
C279 C278 1.332 . S
C279 C280 1.267 . S
C280 H248 0.929 . S
C280 C279 1.267 . S
C280 C281 1.251 . S
C281 H251 0.929 . S
C281 N277 1.418 . S
C281 C280 1.251 . S
C282 H249 0.930 . S
C282 C284 1.406 . S
C282 C287 1.261 . S
C283 H250 0.930 . S
C283 N285 1.325 . S
C283 C286 1.357 . S
C284 H252 0.928 . S
C284 C282 1.406 . S
C284 N285 1.261 . S
N285 Co236 2.214 . S
N285 C283 1.325 . S
N285 C284 1.261 . S
C286 H256 0.931 . S
C286 C283 1.357 . S
C286 C287 1.312 . S
C287 H258 0.930 . S
C287 C282 1.261 . S
C287 C286 1.312 . S
C288 O260 1.214 . S
C288 O268 1.234 . S
C289 H261 0.929 . S
C289 C292 1.391 1_565 S
C289 C294 1.391 . S
C290 H262 0.929 . S
C290 C291 1.390 1_565 S
C290 N293 1.391 1_554 S
C291 H263 0.930 . S
C291 C290 1.390 1_545 S
C291 C292 1.392 1_554 S
C292 H264 0.929 . S
C292 C289 1.391 1_545 S
C292 C291 1.392 1_556 S
N293 Co237 2.257 1_556 S
N293 C290 1.391 1_556 S
N293 C294 1.388 . S
C294 H265 0.930 . S
C294 C289 1.391 . S
C294 N293 1.388 . S
Co295 O297 2.143 . S
Co295 O303 2.074 . S
Co295 O306 2.093 . S
Co295 O319 2.097 . S
Co295 N336 2.151 . S
Co295 N344 2.214 . S
Co296 O297 2.160 1_554 S
Co296 O302 2.058 . S
Co296 O312 2.057 . S
Co296 O327 2.037 1_554 S
Co296 N331 2.145 . S
Co296 N352 2.257 1_554 S
O297 Co295 2.143 . S
O297 Co296 2.160 1_556 S
C298 O299 1.278 . S
C298 O306 1.224 . S
O299 C298 1.278 . S
C300 O301 1.245 . S
C300 O312 1.232 1_556 S
O301 C300 1.245 . S
O302 Co296 2.058 . S
O302 C328 1.269 1_554 S
O303 Co295 2.074 . S
O303 C328 1.257 . S
H304 C329 0.930 . S
H305 C335 0.930 . S
O306 Co295 2.093 . S
O306 C298 1.224 . S
H307 C339 0.929 . S
H308 C341 0.930 . S
H309 C342 0.930 . S
H310 C340 0.929 . S
H311 C343 0.928 . S
O312 Co296 2.057 . S
O312 C300 1.232 1_554 S
H313 C332 0.929 . S
H314 C333 0.929 . S
H315 C345 0.931 . S
H316 C337 0.929 . S
H317 C346 0.930 . S
H318 C338 0.931 . S
O319 Co295 2.097 . S
O319 C347 1.214 . S
H320 C348 0.929 . S
H321 C349 0.929 . S
H322 C350 0.930 . S
H323 C351 0.929 . S
H324 C353 0.930 . S
H325 C330 0.930 . S
H326 C334 0.930 . S
O327 Co296 2.037 1_556 S
O327 C347 1.234 . S
C328 O302 1.269 1_556 S
C328 O303 1.257 . S
C329 H304 0.930 . S
C329 C332 1.388 . S
C329 C334 1.418 . S
C330 H325 0.930 . S
C330 C333 1.404 . S
C330 C334 1.353 . S
N331 Co296 2.145 . S
N331 C332 1.397 . S
N331 C333 1.334 . S
C332 H313 0.929 . S
C332 C329 1.388 . S
C332 N331 1.397 . S
C333 H314 0.929 . S
C333 C330 1.404 . S
C333 N331 1.334 . S
C334 H326 0.930 . S
C334 C329 1.418 . S
C334 C330 1.353 . S
C335 H305 0.930 . S
C335 N336 1.330 . S
C335 C337 1.446 . S
N336 Co295 2.151 . S
N336 C335 1.330 . S
N336 C340 1.418 . S
C337 H316 0.929 . S
C337 C335 1.446 . S
C337 C338 1.332 . S
C338 H318 0.931 . S
C338 C337 1.332 . S
C338 C339 1.267 . S
C339 H307 0.929 . S
C339 C338 1.267 . S
C339 C340 1.251 . S
C340 H310 0.929 . S
C340 N336 1.418 . S
C340 C339 1.251 . S
C341 H308 0.930 . S
C341 C343 1.406 . S
C341 C346 1.261 . S
C342 H309 0.930 . S
C342 N344 1.325 . S
C342 C345 1.357 . S
C343 H311 0.928 . S
C343 C341 1.406 . S
C343 N344 1.261 . S
N344 Co295 2.214 . S
N344 C342 1.325 . S
N344 C343 1.261 . S
C345 H315 0.931 . S
C345 C342 1.357 . S
C345 C346 1.312 . S
C346 H317 0.930 . S
C346 C341 1.261 . S
C346 C345 1.312 . S
C347 O319 1.214 . S
C347 O327 1.234 . S
C348 H320 0.929 . S
C348 C351 1.391 1_545 S
C348 C353 1.391 . S
C349 H321 0.929 . S
C349 C350 1.390 1_545 S
C349 N352 1.391 1_554 S
C350 H322 0.930 . S
C350 C349 1.390 1_565 S
C350 C351 1.392 1_554 S
C351 H323 0.929 . S
C351 C348 1.391 1_565 S
C351 C350 1.392 1_556 S
N352 Co296 2.257 1_556 S
N352 C349 1.391 1_556 S
N352 C353 1.388 . S
C353 H324 0.930 . S
C353 C348 1.391 . S
C353 N352 1.388 . S
Co354 O356 2.143 . S
Co354 O362 2.074 . S
Co354 O365 2.093 . S
Co354 O378 2.097 . S
Co354 N395 2.151 . S
Co354 N403 2.214 . S
Co355 O356 2.160 . S
Co355 O361 2.058 . S
Co355 O371 2.057 . S
Co355 O386 2.037 . S
Co355 N390 2.145 . S
Co355 N411 2.257 . S
O356 Co354 2.143 . S
O356 Co355 2.160 . S
C357 O358 1.278 . S
C357 O365 1.224 . S
O358 C357 1.278 . S
C359 O360 1.245 . S
C359 O371 1.232 . S
O360 C359 1.245 . S
O361 Co355 2.058 . S
O361 C387 1.269 . S
O362 Co354 2.074 . S
O362 C387 1.257 . S
H363 C388 0.930 . S
H364 C394 0.930 . S
O365 Co354 2.093 . S
O365 C357 1.224 . S
H366 C398 0.929 . S
H367 C400 0.930 . S
H368 C401 0.930 . S
H369 C399 0.929 . S
H370 C402 0.928 . S
O371 Co355 2.057 . S
O371 C359 1.232 . S
H372 C391 0.929 . S
H373 C392 0.929 . S
H374 C404 0.931 . S
H375 C396 0.931 . S
H376 C405 0.930 . S
H377 C397 0.931 . S
O378 Co354 2.097 . S
O378 C406 1.214 . S
H379 C407 0.929 . S
H380 C408 0.929 . S
H381 C409 0.930 . S
H382 C410 0.929 . S
H383 C412 0.930 . S
H384 C389 0.930 . S
H385 C393 0.930 . S
O386 Co355 2.037 . S
O386 C406 1.234 . S
C387 O361 1.269 . S
C387 O362 1.257 . S
C388 H363 0.930 . S
C388 C391 1.388 . S
C388 C393 1.418 . S
C389 H384 0.930 . S
C389 C392 1.404 . S
C389 C393 1.353 . S
N390 Co355 2.145 . S
N390 C391 1.397 . S
N390 C392 1.334 . S
C391 H372 0.929 . S
C391 C388 1.388 . S
C391 N390 1.397 . S
C392 H373 0.929 . S
C392 C389 1.404 . S
C392 N390 1.334 . S
C393 H385 0.930 . S
C393 C388 1.418 . S
C393 C389 1.353 . S
C394 H364 0.930 . S
C394 N395 1.330 . S
C394 C396 1.439 1_565 S
N395 Co354 2.151 . S
N395 C394 1.330 . S
N395 C399 1.418 . S
C396 H375 0.931 . S
C396 C394 1.439 1_545 S
C396 C397 1.337 . S
C397 H377 0.931 . S
C397 C396 1.337 . S
C397 C398 1.267 . S
C398 H366 0.929 . S
C398 C397 1.267 . S
C398 C399 1.251 1_545 S
C399 H369 0.929 . S
C399 N395 1.418 . S
C399 C398 1.251 1_565 S
C400 H367 0.930 . S
C400 C402 1.406 . S
C400 C405 1.261 . S
C401 H368 0.930 . S
C401 N403 1.325 . S
C401 C404 1.357 . S
C402 H370 0.928 . S
C402 C400 1.406 . S
C402 N403 1.261 . S
N403 Co354 2.214 . S
N403 C401 1.325 . S
N403 C402 1.261 . S
C404 H374 0.931 . S
C404 C401 1.357 . S
C404 C405 1.312 . S
C405 H376 0.930 . S
C405 C400 1.261 . S
C405 C404 1.312 . S
C406 O378 1.214 . S
C406 O386 1.234 . S
C407 H379 0.929 . S
C407 C410 1.391 . S
C407 C412 1.391 . S
C408 H380 0.929 . S
C408 C409 1.390 . S
C408 N411 1.391 . S
C409 H381 0.930 . S
C409 C408 1.390 . S
C409 C410 1.392 . S
C410 H382 0.929 . S
C410 C407 1.391 . S
C410 C409 1.392 . S
N411 Co355 2.257 . S
N411 C408 1.391 . S
N411 C412 1.388 . S
C412 H383 0.930 . S
C412 C407 1.391 . S
C412 N411 1.388 . S
Co413 O415 2.143 . S
Co413 O421 2.074 . S
Co413 O424 2.093 . S
Co413 O437 2.097 . S
Co413 N454 2.151 . S
Co413 N462 2.214 . S
Co414 O415 2.160 . S
Co414 O420 2.058 . S
Co414 O430 2.057 . S
Co414 O445 2.037 . S
Co414 N449 2.145 . S
Co414 N470 2.257 . S
O415 Co413 2.143 . S
O415 Co414 2.160 . S
C416 O417 1.278 . S
C416 O424 1.224 . S
O417 C416 1.278 . S
C418 O419 1.245 . S
C418 O430 1.232 . S
O419 C418 1.245 . S
O420 Co414 2.058 . S
O420 C446 1.269 . S
O421 Co413 2.074 . S
O421 C446 1.257 . S
H422 C447 0.930 . S
H423 C453 0.930 . S
O424 Co413 2.093 . S
O424 C416 1.224 . S
H425 C457 0.929 . S
H426 C459 0.930 . S
H427 C460 0.930 . S
H428 C458 0.929 . S
H429 C461 0.928 . S
O430 Co414 2.057 . S
O430 C418 1.232 . S
H431 C450 0.929 . S
H432 C451 0.929 . S
H433 C463 0.931 . S
H434 C455 0.931 . S
H435 C464 0.930 . S
H436 C456 0.931 . S
O437 Co413 2.097 . S
O437 C465 1.214 . S
H438 C466 0.929 . S
H439 C467 0.929 . S
H440 C468 0.930 . S
H441 C469 0.929 . S
H442 C471 0.930 . S
H443 C448 0.930 . S
H444 C452 0.930 . S
O445 Co414 2.037 . S
O445 C465 1.234 . S
C446 O420 1.269 . S
C446 O421 1.257 . S
C447 H422 0.930 . S
C447 C450 1.388 . S
C447 C452 1.418 . S
C448 H443 0.930 . S
C448 C451 1.404 . S
C448 C452 1.353 . S
N449 Co414 2.145 . S
N449 C450 1.397 . S
N449 C451 1.334 . S
C450 H431 0.929 . S
C450 C447 1.388 . S
C450 N449 1.397 . S
C451 H432 0.929 . S
C451 C448 1.404 . S
C451 N449 1.334 . S
C452 H444 0.930 . S
C452 C447 1.418 . S
C452 C448 1.353 . S
C453 H423 0.930 . S
C453 N454 1.330 . S
C453 C455 1.441 1_545 S
N454 Co413 2.151 . S
N454 C453 1.330 . S
N454 C458 1.418 . S
C455 H434 0.931 . S
C455 C453 1.441 1_565 S
C455 C456 1.335 . S
C456 H436 0.931 . S
C456 C455 1.335 . S
C456 C457 1.267 . S
C457 H425 0.929 . S
C457 C456 1.267 . S
C457 C458 1.251 1_565 S
C458 H428 0.929 . S
C458 N454 1.418 . S
C458 C457 1.251 1_545 S
C459 H426 0.930 . S
C459 C461 1.406 . S
C459 C464 1.261 . S
C460 H427 0.930 . S
C460 N462 1.325 . S
C460 C463 1.357 . S
C461 H429 0.928 . S
C461 C459 1.406 . S
C461 N462 1.261 . S
N462 Co413 2.214 . S
N462 C460 1.325 . S
N462 C461 1.261 . S
C463 H433 0.931 . S
C463 C460 1.357 . S
C463 C464 1.312 . S
C464 H435 0.930 . S
C464 C459 1.261 . S
C464 C463 1.312 . S
C465 O437 1.214 . S
C465 O445 1.234 . S
C466 H438 0.929 . S
C466 C469 1.391 . S
C466 C471 1.391 . S
C467 H439 0.929 . S
C467 C468 1.390 . S
C467 N470 1.391 . S
C468 H440 0.930 . S
C468 C467 1.390 . S
C468 C469 1.392 . S
C469 H441 0.929 . S
C469 C466 1.391 . S
C469 C468 1.392 . S
N470 Co414 2.257 . S
N470 C467 1.391 . S
N470 C471 1.388 . S
C471 H442 0.930 . S
C471 C466 1.391 . S
C471 N470 1.388 . S
C472 C473 1.363 1_565 S
C472 C478 1.379 . S
C472 N480 1.356 1_565 S
C473 C472 1.363 1_545 S
C473 C479 1.363 1_554 S
C474 C475 1.363 1_546 S
C474 C479 1.379 . S
C474 N481 1.356 1_545 S
C475 C474 1.363 1_564 S
C475 C478 1.363 . S
N476 C478 1.356 . S
N476 H488 0.984 . S
N476 H489 0.985 . S
N477 C479 1.356 . S
N477 H482 0.984 . S
N477 H483 0.985 . S
C478 C472 1.379 . S
C478 C475 1.363 . S
C478 N476 1.356 . S
C479 C473 1.363 1_556 S
C479 C474 1.379 . S
C479 N477 1.356 . S
N480 C472 1.356 1_545 S
N480 H486 0.984 1_545 S
N480 H487 0.984 . S
N481 C474 1.356 1_565 S
N481 H484 0.984 . S
N481 H485 0.985 1_565 S
H482 N477 0.984 . S
H483 N477 0.985 . S
H484 N481 0.984 . S
H485 N481 0.985 1_545 S
H486 N480 0.984 1_565 S
H487 N480 0.984 . S
H488 N476 0.984 . S
H489 N476 0.985 . S
C490 C491 1.363 . S
C490 C496 1.379 . S
C490 N498 1.356 . S
C491 C490 1.363 . S
C491 C497 1.363 . S
C492 C493 1.363 . S
C492 C497 1.379 . S
C492 N499 1.356 . S
C493 C492 1.363 . S
C493 C496 1.363 . S
N494 C496 1.356 . S
N494 H506 0.984 . S
N494 H507 0.985 . S
N495 C497 1.356 . S
N495 H500 0.984 . S
N495 H501 0.985 . S
C496 C490 1.379 . S
C496 C493 1.363 . S
C496 N494 1.356 . S
C497 C491 1.363 . S
C497 C492 1.379 . S
C497 N495 1.356 . S
N498 C490 1.356 . S
N498 H504 0.984 . S
N498 H505 0.984 . S
N499 C492 1.356 . S
N499 H502 0.984 . S
N499 H503 0.985 . S
H500 N495 0.984 . S
H501 N495 0.985 . S
H502 N499 0.984 . S
H503 N499 0.985 . S
H504 N498 0.984 . S
H505 N498 0.984 . S
H506 N494 0.984 . S
H507 N494 0.985 . S
C508 C509 1.363 . S
C508 C514 1.379 . S
C508 N516 1.356 . S
C509 C508 1.363 . S
C509 C515 1.363 1_566 S
C510 C511 1.363 1_554 S
C510 C515 1.379 . S
C510 N517 1.356 . S
C511 C510 1.363 1_556 S
C511 C514 1.363 1_545 S
N512 C514 1.356 1_545 S
N512 H524 0.984 1_545 S
N512 H525 0.985 . S
N513 C515 1.356 1_565 S
N513 H518 0.984 . S
N513 H519 0.985 1_565 S
C514 C508 1.379 . S
C514 C511 1.363 1_565 S
C514 N512 1.356 1_565 S
C515 C509 1.363 1_544 S
C515 C510 1.379 . S
C515 N513 1.356 1_545 S
N516 C508 1.356 . S
N516 H522 0.984 . S
N516 H523 0.984 . S
N517 C510 1.356 . S
N517 H520 0.984 . S
N517 H521 0.985 . S
H518 N513 0.984 . S
H519 N513 0.985 1_545 S
H520 N517 0.984 . S
H521 N517 0.985 . S
H522 N516 0.984 . S
H523 N516 0.984 . S
H524 N512 0.984 1_565 S
H525 N512 0.985 . S
C526 C527 1.363 . S
C526 C532 1.379 . S
C526 N534 1.356 . S
C527 C526 1.363 . S
C527 C533 1.363 . S
C528 C529 1.363 . S
C528 C533 1.379 . S
C528 N535 1.356 . S
C529 C528 1.363 . S
C529 C532 1.363 . S
N530 C532 1.356 . S
N530 H542 0.984 . S
N530 H543 0.985 . S
N531 C533 1.356 . S
N531 H536 0.984 . S
N531 H537 0.985 . S
C532 C526 1.379 . S
C532 C529 1.363 . S
C532 N530 1.356 . S
C533 C527 1.363 . S
C533 C528 1.379 . S
C533 N531 1.356 . S
N534 C526 1.356 . S
N534 H540 0.984 . S
N534 H541 0.984 . S
N535 C528 1.356 . S
N535 H538 0.984 . S
N535 H539 0.985 . S
H536 N531 0.984 . S
H537 N531 0.985 . S
H538 N535 0.984 . S
H539 N535 0.985 . S
H540 N534 0.984 . S
H541 N534 0.984 . S
H542 N530 0.984 . S
H543 N530 0.985 . S
C544 C545 1.363 . S
C544 C550 1.379 . S
C544 N552 1.356 . S
C545 C544 1.363 . S
C545 C551 1.363 . S
C546 C547 1.363 . S
C546 C551 1.379 . S
C546 N553 1.356 . S
C547 C546 1.363 . S
C547 C550 1.363 . S
N548 C550 1.356 . S
N548 H560 0.984 . S
N548 H561 0.985 . S
N549 C551 1.356 . S
N549 H554 0.984 . S
N549 H555 0.985 . S
C550 C544 1.379 . S
C550 C547 1.363 . S
C550 N548 1.356 . S
C551 C545 1.363 . S
C551 C546 1.379 . S
C551 N549 1.356 . S
N552 C544 1.356 . S
N552 H558 0.984 . S
N552 H559 0.984 . S
N553 C546 1.356 . S
N553 H556 0.984 . S
N553 H557 0.985 . S
H554 N549 0.984 . S
H555 N549 0.985 . S
H556 N553 0.984 . S
H557 N553 0.985 . S
H558 N552 0.984 . S
H559 N552 0.984 . S
H560 N548 0.984 . S
H561 N548 0.985 . S
C562 C563 1.363 . S
C562 C568 1.379 . S
C562 N570 1.356 . S
C563 C562 1.363 . S
C563 C569 1.363 . S
C564 C565 1.363 . S
C564 C569 1.379 . S
C564 N571 1.356 . S
C565 C564 1.363 . S
C565 C568 1.363 . S
N566 C568 1.356 . S
N566 H578 0.984 . S
N566 H579 0.985 . S
N567 C569 1.356 . S
N567 H572 0.984 . S
N567 H573 0.985 . S
C568 C562 1.379 . S
C568 C565 1.363 . S
C568 N566 1.356 . S
C569 C563 1.363 . S
C569 C564 1.379 . S
C569 N567 1.356 . S
N570 C562 1.356 . S
N570 H576 0.984 . S
N570 H577 0.984 . S
N571 C564 1.356 . S
N571 H574 0.984 . S
N571 H575 0.985 . S
H572 N567 0.984 . S
H573 N567 0.985 . S
H574 N571 0.984 . S
H575 N571 0.985 . S
H576 N570 0.984 . S
H577 N570 0.984 . S
H578 N566 0.984 . S
H579 N566 0.985 . S
C580 C581 1.363 . S
C580 C586 1.379 . S
C580 N588 1.356 . S
C581 C580 1.363 . S
C581 C587 1.363 . S
C582 C583 1.363 . S
C582 C587 1.379 . S
C582 N589 1.356 . S
C583 C582 1.363 . S
C583 C586 1.363 . S
N584 C586 1.356 . S
N584 H596 0.984 . S
N584 H597 0.985 . S
N585 C587 1.356 . S
N585 H590 0.984 . S
N585 H591 0.985 . S
C586 C580 1.379 . S
C586 C583 1.363 . S
C586 N584 1.356 . S
C587 C581 1.363 . S
C587 C582 1.379 . S
C587 N585 1.356 . S
N588 C580 1.356 . S
N588 H594 0.984 . S
N588 H595 0.984 . S
N589 C582 1.356 . S
N589 H592 0.984 . S
N589 H593 0.985 . S
H590 N585 0.984 . S
H591 N585 0.985 . S
H592 N589 0.984 . S
H593 N589 0.985 . S
H594 N588 0.984 . S
H595 N588 0.984 . S
H596 N584 0.984 . S
H597 N584 0.985 . S
C598 C599 1.363 . S
C598 C604 1.379 . S
C598 N606 1.356 . S
C599 C598 1.363 . S
C599 C605 1.363 . S
C600 C601 1.363 . S
C600 C605 1.379 . S
C600 N607 1.356 . S
C601 C600 1.363 . S
C601 C604 1.363 . S
N602 C604 1.356 . S
N602 H614 0.984 . S
N602 H615 0.985 . S
N603 C605 1.356 . S
N603 H608 0.984 . S
N603 H609 0.985 . S
C604 C598 1.379 . S
C604 C601 1.363 . S
C604 N602 1.356 . S
C605 C599 1.363 . S
C605 C600 1.379 . S
C605 N603 1.356 . S
N606 C598 1.356 . S
N606 H612 0.984 . S
N606 H613 0.984 . S
N607 C600 1.356 . S
N607 H610 0.984 . S
N607 H611 0.985 . S
H608 N603 0.984 . S
H609 N603 0.985 . S
H610 N607 0.984 . S
H611 N607 0.985 . S
H612 N606 0.984 . S
H613 N606 0.984 . S
H614 N602 0.984 . S
H615 N602 0.985 . S
C616 C617 1.364 . S
C616 C622 1.379 . S
C616 N624 1.356 . S
C617 C616 1.364 . S
C617 C623 1.362 1_554 S
C618 C619 1.364 . S
C618 C623 1.379 . S
C618 N625 1.356 . S
C619 C618 1.364 . S
C619 C622 1.362 1_556 S
N620 C622 1.356 . S
N620 H632 0.984 . S
N620 H633 0.985 . S
N621 C623 1.356 . S
N621 H626 0.984 . S
N621 H627 0.985 . S
C622 C616 1.379 . S
C622 C619 1.362 1_554 S
C622 N620 1.356 . S
C623 C617 1.362 1_556 S
C623 C618 1.379 . S
C623 N621 1.356 . S
N624 C616 1.356 . S
N624 H630 0.984 . S
N624 H631 0.984 . S
N625 C618 1.356 . S
N625 H628 0.984 . S
N625 H629 0.985 . S
H626 N621 0.984 . S
H627 N621 0.985 . S
H628 N625 0.984 . S
H629 N625 0.985 . S
H630 N624 0.984 . S
H631 N624 0.984 . S
H632 N620 0.984 . S
H633 N620 0.985 . S
C634 C635 1.362 1_656 S
C634 C640 1.379 . S
C634 N642 1.356 1_655 S
C635 C634 1.362 1_454 S
C635 C641 1.364 . S
C636 C637 1.362 1_454 S
C636 C641 1.379 . S
C636 N643 1.356 1_455 S
C637 C636 1.362 1_656 S
C637 C640 1.364 . S
N638 C640 1.356 . S
N638 H650 0.984 . S
N638 H651 0.985 . S
N639 C641 1.356 . S
N639 H644 0.984 . S
N639 H645 0.985 . S
C640 C634 1.379 . S
C640 C637 1.364 . S
C640 N638 1.356 . S
C641 C635 1.364 . S
C641 C636 1.379 . S
C641 N639 1.356 . S
N642 C634 1.356 1_455 S
N642 H648 0.984 1_455 S
N642 H649 0.984 . S
N643 C636 1.356 1_655 S
N643 H646 0.984 . S
N643 H647 0.985 1_655 S
H644 N639 0.984 . S
H645 N639 0.985 . S
H646 N643 0.984 . S
H647 N643 0.985 1_455 S
H648 N642 0.984 1_655 S
H649 N642 0.984 . S
H650 N638 0.984 . S
H651 N638 0.985 . S
C652 C653 1.363 . S
C652 C658 1.379 1_565 S
C652 N660 1.356 . S
C653 C652 1.363 . S
C653 C659 1.363 . S
C654 C655 1.363 . S
C654 C659 1.379 1_545 S
C654 N661 1.356 . S
C655 C654 1.363 . S
C655 C658 1.363 . S
N656 C658 1.356 . S
N656 H668 0.984 . S
N656 H669 0.985 . S
N657 C659 1.356 . S
N657 H662 0.984 . S
N657 H663 0.985 . S
C658 C652 1.379 1_545 S
C658 C655 1.363 . S
C658 N656 1.356 . S
C659 C653 1.363 . S
C659 C654 1.379 1_565 S
C659 N657 1.356 . S
N660 C652 1.356 . S
N660 H666 0.984 . S
N660 H667 0.984 . S
N661 C654 1.356 . S
N661 H664 0.984 . S
N661 H665 0.985 . S
H662 N657 0.984 . S
H663 N657 0.985 . S
H664 N661 0.984 . S
H665 N661 0.985 . S
H666 N660 0.984 . S
H667 N660 0.984 . S
H668 N656 0.984 . S
H669 N656 0.985 . S
C670 C671 1.363 . S
C670 C676 1.379 1_545 S
C670 N678 1.356 . S
C671 C670 1.363 . S
C671 C677 1.363 1_655 S
C672 C673 1.363 . S
C672 C677 1.379 1_565 S
C672 N679 1.356 . S
C673 C672 1.363 . S
C673 C676 1.363 1_455 S
N674 C676 1.356 1_455 S
N674 H686 0.984 1_455 S
N674 H687 0.985 . S
N675 C677 1.356 1_655 S
N675 H680 0.984 . S
N675 H681 0.985 1_655 S
C676 C670 1.379 1_565 S
C676 C673 1.363 1_655 S
C676 N674 1.356 1_655 S
C677 C671 1.363 1_455 S
C677 C672 1.379 1_545 S
C677 N675 1.356 1_455 S
N678 C670 1.356 . S
N678 H684 0.984 . S
N678 H685 0.984 . S
N679 C672 1.356 . S
N679 H682 0.984 . S
N679 H683 0.985 . S
H680 N675 0.984 . S
H681 N675 0.985 1_455 S
H682 N679 0.984 . S
H683 N679 0.985 . S
H684 N678 0.984 . S
H685 N678 0.984 . S
H686 N674 0.984 1_655 S
H687 N674 0.985 . S
C688 C689 1.370 . S
C688 C694 1.379 . S
C688 N696 1.356 . S
C689 C688 1.370 . S
C689 C695 1.356 1_554 S
C690 C691 1.356 1_556 S
C690 C695 1.379 . S
C690 N697 1.356 . S
C691 C690 1.356 1_554 S
C691 C694 1.370 . S
N692 C694 1.356 . S
N692 H704 0.984 . S
N692 H705 0.985 . S
N693 C695 1.356 . S
N693 H698 0.984 . S
N693 H699 0.985 . S
C694 C688 1.379 . S
C694 C691 1.370 . S
C694 N692 1.356 . S
C695 C689 1.356 1_556 S
C695 C690 1.379 . S
C695 N693 1.356 . S
N696 C688 1.356 . S
N696 H702 0.984 . S
N696 H703 0.984 . S
N697 C690 1.356 . S
N697 H700 0.984 . S
N697 H701 0.985 . S
H698 N693 0.984 . S
H699 N693 0.985 . S
H700 N697 0.984 . S
H701 N697 0.985 . S
H702 N696 0.984 . S
H703 N696 0.984 . S
H704 N692 0.984 . S
H705 N692 0.985 . S
C706 C707 1.363 . S
C706 C712 1.379 1_545 S
C706 N714 1.356 . S
C707 C706 1.363 . S
C707 C713 1.363 . S
C708 C709 1.363 . S
C708 C713 1.379 1_565 S
C708 N715 1.356 . S
C709 C708 1.363 . S
C709 C712 1.363 . S
N710 C712 1.356 . S
N710 H722 0.984 . S
N710 H723 0.985 . S
N711 C713 1.356 . S
N711 H716 0.984 . S
N711 H717 0.985 . S
C712 C706 1.379 1_565 S
C712 C709 1.363 . S
C712 N710 1.356 . S
C713 C707 1.363 . S
C713 C708 1.379 1_545 S
C713 N711 1.356 . S
N714 C706 1.356 . S
N714 H720 0.984 1_545 S
N714 H721 0.984 . S
N715 C708 1.356 . S
N715 H718 0.984 . S
N715 H719 0.985 1_565 S
H716 N711 0.984 . S
H717 N711 0.985 . S
H718 N715 0.984 . S
H719 N715 0.985 1_545 S
H720 N714 0.984 1_565 S
H721 N714 0.984 . S
H722 N710 0.984 . S
H723 N710 0.985 . S
C724 C725 1.370 . S
C724 C730 1.379 . S
C724 N732 1.356 . S
C725 C724 1.370 . S
C725 C731 1.356 1_556 S
C726 C727 1.356 1_554 S
C726 C731 1.379 . S
C726 N733 1.356 . S
C727 C726 1.356 1_556 S
C727 C730 1.370 . S
N728 C730 1.356 . S
N728 H740 0.984 . S
N728 H741 0.985 . S
N729 C731 1.356 . S
N729 H734 0.984 . S
N729 H735 0.985 . S
C730 C724 1.379 . S
C730 C727 1.370 . S
C730 N728 1.356 . S
C731 C725 1.356 1_554 S
C731 C726 1.379 . S
C731 N729 1.356 . S
N732 C724 1.356 . S
N732 H738 0.984 . S
N732 H739 0.984 . S
N733 C726 1.356 . S
N733 H736 0.984 . S
N733 H737 0.985 . S
H734 N729 0.984 . S
H735 N729 0.985 . S
H736 N733 0.984 . S
H737 N733 0.985 . S
H738 N732 0.984 . S
H739 N732 0.984 . S
H740 N728 0.984 . S
H741 N728 0.985 . S
C742 C743 1.363 . S
C742 C748 1.379 1_565 S
C742 N750 1.356 . S
C743 C742 1.363 . S
C743 C749 1.363 . S
C744 C745 1.363 . S
C744 C749 1.379 1_545 S
C744 N751 1.356 . S
C745 C744 1.363 . S
C745 C748 1.363 . S
N746 C748 1.356 . S
N746 H758 0.984 . S
N746 H759 0.985 . S
N747 C749 1.356 . S
N747 H752 0.984 . S
N747 H753 0.985 . S
C748 C742 1.379 1_545 S
C748 C745 1.363 . S
C748 N746 1.356 . S
C749 C743 1.363 . S
C749 C744 1.379 1_565 S
C749 N747 1.356 . S
N750 C742 1.356 . S
N750 H756 0.984 1_565 S
N750 H757 0.984 . S
N751 C744 1.356 . S
N751 H754 0.984 . S
N751 H755 0.985 1_545 S
H752 N747 0.984 . S
H753 N747 0.985 . S
H754 N751 0.984 . S
H755 N751 0.985 1_565 S
H756 N750 0.984 1_545 S
H757 N750 0.984 . S
H758 N746 0.984 . S
H759 N746 0.985 . S
C473 C52 1.645 . S
C475 C111 1.645 . S
C491 C229 1.645 . S
C493 C170 1.645 . S
C509 C288 1.645 . S
C511 C347 1.645 . S
C527 C406 1.645 . S
C529 C465 1.645 . S
C545 C3 1.897 . S
C547 C121 1.897 . S
C563 C180 1.897 . S
C565 C62 1.897 . S
C581 C239 1.897 . S
C583 C357 1.897 . S
C599 C416 1.897 . S
C601 C298 1.897 . S
C617 C5 1.403 . S
C619 C241 1.403 . S
C635 C64 1.403 . S
C637 C300 1.403 . S
C653 C359 1.403 . S
C655 C123 1.403 . S
C671 C418 1.403 . S
C673 C182 1.403 . S
C689 C92 1.531 . S
C691 C33 1.531 . S
C707 C151 1.529 . S
C709 C210 1.529 . S
C725 C269 1.531 . S
C727 C328 1.531 . S
C743 C387 1.529 . S
C745 C446 1.529 . S
