# Generated by pormake.
# Topology unh, (4)-cn, num edge types: 1
# Building blocks:
#     Node 0, Type 0, BuildingBlock: ESEHIV_clean_sbu_0, # of connection points: 4
#     Node 1, Type 0, BuildingBlock: ESEHIV_clean_sbu_0, # of connection points: 4
#     Node 2, Type 0, BuildingBlock: ESEHIV_clean_sbu_0, # of connection points: 4
#     Node 3, Type 0, BuildingBlock: ESEHIV_clean_sbu_0, # of connection points: 4
#     Node 4, Type 0, BuildingBlock: ESEHIV_clean_sbu_0, # of connection points: 4
#     Node 5, Type 0, BuildingBlock: ESEHIV_clean_sbu_0, # of connection points: 4
#     Edge 6, Type (0, 0), BuildingBlock: FUNLAD_clean_linker_1, # of connection points: 2
#     Edge 7, Type (0, 0), BuildingBlock: FUNLAD_clean_linker_1, # of connection points: 2
#     Edge 8, Type (0, 0), BuildingBlock: FUNLAD_clean_linker_1, # of connection points: 2
#     Edge 9, Type (0, 0), BuildingBlock: FUNLAD_clean_linker_1, # of connection points: 2
#     Edge 10, Type (0, 0), BuildingBlock: FUNLAD_clean_linker_1, # of connection points: 2
#     Edge 11, Type (0, 0), BuildingBlock: FUNLAD_clean_linker_1, # of connection points: 2
#     Edge 12, Type (0, 0), BuildingBlock: FUNLAD_clean_linker_1, # of connection points: 2
#     Edge 13, Type (0, 0), BuildingBlock: FUNLAD_clean_linker_1, # of connection points: 2
#     Edge 14, Type (0, 0), BuildingBlock: FUNLAD_clean_linker_1, # of connection points: 2
#     Edge 15, Type (0, 0), BuildingBlock: FUNLAD_clean_linker_1, # of connection points: 2
#     Edge 16, Type (0, 0), BuildingBlock: FUNLAD_clean_linker_1, # of connection points: 2
#     Edge 17, Type (0, 0), BuildingBlock: FUNLAD_clean_linker_1, # of connection points: 2
# Relax obj value: 0.010
# Max RMSD: 0.159
# Mean RMSD: 0.159
data_MOF--net-unh--node1-ESEHIV_clean_sbu_0--edge1-FUNLAD_clean_linker_1
_symmetry_space_group_name_H-M    P1
_symmetry_Int_Tables_number       1
_symmetry_cell_setting            triclinic
loop_
_symmetry_equiv_pos_as_xyz
'x, y, z'
_cell_length_a     51.977605
_cell_length_b     51.934196
_cell_length_c     21.72942
_cell_angle_alpha  90.340177
_cell_angle_beta   89.966719
_cell_angle_gamma 119.80807
loop_
_atom_site_label
_atom_site_type_symbol
_atom_site_fract_x
_atom_site_fract_y
_atom_site_fract_z
_atom_type_partial_charge
Cu0 Cu 0.17136 0.58539 0.09359 0.0
N1 N 0.1562 0.56259 1.02208 0.0
N2 N 0.12542 0.53625 0.94557 0.0
C3 C 0.12965 0.55368 0.9954 0.0
C4 C 0.15017 0.53418 0.94097 0.0
C5 C 0.16909 0.55036 0.98824 0.0
O6 O 0.13778 0.58079 0.14216 0.0
C7 C 0.21894 0.63477 0.03635 0.0
O8 O 0.22488 0.61463 1.01469 0.0
H9 H 0.11377 0.55959 1.01286 0.0
H10 H 0.19057 0.55271 0.99788 0.0
N11 N 0.19331 0.57158 0.1363 0.0
N12 N 0.23016 0.56987 0.1856 0.0
C13 C 0.22087 0.58746 0.15991 0.0
C14 C 0.18488 0.54302 0.14748 0.0
C15 C 0.20752 0.54185 0.17795 0.0
C16 C 0.1343 0.57497 0.19937 0.0
O17 O 0.1548 0.57278 0.2304 0.0
H18 H 0.23403 0.61141 0.15766 0.0
H19 H 0.16379 0.52434 0.13383 0.0
O20 O 0.19678 0.62687 0.07175 0.0
H21 H 0.15412 0.52154 0.90616 0.0
H22 H 0.20722 0.52186 0.19273 0.0
Cu23 Cu 0.62153 0.16008 0.26251 0.0
N24 N 0.62391 0.13421 0.20549 0.0
N25 N 0.60988 0.09715 0.13742 0.0
C26 C 0.6014 0.11344 0.17145 0.0
C27 C 0.63895 0.10827 0.14994 0.0
C28 C 0.64754 0.13115 0.19194 0.0
O29 O 0.59136 0.13553 0.32172 0.0
C30 C 0.60697 0.20594 0.24296 0.0
O31 O 0.60559 0.20709 0.30322 0.0
H32 H 0.57909 0.10999 0.17224 0.0
H33 H 0.66944 0.1445 0.21142 0.0
N34 N 0.65743 0.18118 0.30523 0.0
N35 N 0.69668 0.2173 0.35451 0.0
C36 C 0.67284 0.21042 0.31877 0.0
C37 C 0.67196 0.16921 0.33362 0.0
C38 C 0.69622 0.19139 0.36388 0.0
C39 C 0.56362 0.1231 0.31155 0.0
O40 O 0.55397 0.12882 0.26052 0.0
H41 H 0.66643 0.22628 0.30385 0.0
H42 H 0.66494 0.1458 0.33348 0.0
O43 O 0.61272 0.1872 0.21788 0.0
H44 H 0.65311 0.1007 0.12995 0.0
H45 H 0.7117 0.18833 0.39181 0.0
Cu46 Cu 0.47119 0.59935 0.45883 0.0
N47 N 0.49814 0.61131 0.3938 0.0
N48 N 0.52377 0.60643 0.31634 0.0
C49 C 0.50959 0.59515 0.37001 0.0
C50 C 0.52104 0.6305 0.30584 0.0
C51 C 0.50535 0.63358 0.35386 0.0
O52 O 0.47527 0.56968 0.50503 0.0
C53 C 0.42281 0.60004 0.40229 0.0
O54 O 0.4411 0.62882 0.40219 0.0
H55 H 0.50543 0.57421 0.38906 0.0
H56 H 0.49804 0.64973 0.35721 0.0
N57 N 0.4785 0.63016 0.51384 0.0
N58 N 0.48866 0.67346 0.5567 0.0
C59 C 0.48973 0.65953 0.50481 0.0
C60 C 0.47057 0.62563 0.57345 0.0
C61 C 0.47684 0.6522 0.60004 0.0
C62 C 0.45411 0.54888 0.53466 0.0
O63 O 0.4276 0.54608 0.53274 0.0
H64 H 0.49767 0.67035 0.46094 0.0
H65 H 0.46044 0.60428 0.59583 0.0
O66 O 0.43132 0.58298 0.42502 0.0
H67 H 0.52848 0.64394 0.26475 0.0
H68 H 0.47299 0.6555 0.64764 0.0
Cu69 Cu 0.88826 0.46159 0.61177 0.0
N70 N 0.91072 0.48339 0.54412 0.0
N71 N 0.94839 0.50557 0.47799 0.0
C72 C 0.93997 0.49428 0.53492 0.0
C73 C 0.92351 0.50185 0.45026 0.0
C74 C 0.90033 0.48812 0.49119 0.0
O75 O 0.91461 0.46733 0.6805 0.0
C76 C 0.87184 0.40762 0.54756 0.0
O77 O 0.89897 0.4218 0.52601 0.0
H78 H 0.95466 0.49294 0.56833 0.0
H79 H 0.87726 0.48097 0.4822 0.0
N80 N 0.86279 0.47521 0.63745 0.0
N81 N 0.8276 0.47823 0.69084 0.0
C82 C 0.8426 0.46346 0.68282 0.0
C83 C 0.86061 0.49832 0.61613 0.0
C84 C 0.83887 0.50025 0.64894 0.0
C85 C 0.93396 0.45916 0.68171 0.0
O86 O 0.93591 0.4438 0.63552 0.0
H87 H 0.83896 0.4444 0.70951 0.0
H88 H 0.87399 0.51286 0.57957 0.0
O89 O 0.86356 0.42027 0.58691 0.0
H90 H 0.92178 0.50748 0.40319 0.0
H91 H 0.83222 0.51676 0.64257 0.0
Cu92 Cu 0.45583 0.89047 0.75515 0.0
N93 N 0.45229 0.91289 0.69238 0.0
N94 N 0.46463 0.94917 0.62406 0.0
C95 C 0.47446 0.93789 0.66801 0.0
C96 C 0.43506 0.93051 0.62064 0.0
C97 C 0.42753 0.90814 0.66293 0.0
O98 O 0.48706 0.91772 0.81013 0.0
C99 C 0.4874 0.86124 0.71025 0.0
O100 O 0.51229 0.88531 0.72489 0.0
H101 H 0.49739 0.94772 0.68239 0.0
H102 H 0.40556 0.88979 0.67186 0.0
N103 N 0.42054 0.87069 0.79955 0.0
N104 N 0.38167 0.83397 0.84748 0.0
C105 C 0.40549 0.84142 0.81157 0.0
C106 C 0.40573 0.88224 0.8288 0.0
C107 C 0.38164 0.85959 0.85846 0.0
C108 C 0.49336 0.90987 0.86063 0.0
O109 O 0.47989 0.88168 0.87536 0.0
H110 H 0.41216 0.82589 0.79513 0.0
H111 H 0.41222 0.90552 0.82915 0.0
O112 O 0.4627 0.86003 0.71952 0.0
H113 H 0.41984 0.93275 0.59021 0.0
H114 H 0.36564 0.862 0.88608 0.0
Cu115 Cu 0.58504 0.43809 0.95959 0.0
N116 N 0.55831 0.43562 0.899 0.0
N117 N 0.53643 0.44867 0.82679 0.0
C118 C 0.55854 0.45828 0.86862 0.0
C119 C 0.52174 0.41877 0.8309 0.0
C120 C 0.53537 0.41082 0.87536 0.0
O121 O 0.59202 0.46982 1.01757 0.0
C122 C 0.64533 0.45094 0.94035 0.0
O123 O 0.64836 0.45208 1.00049 0.0
H124 H 0.57464 0.48139 0.87696 0.0
H125 H 0.52909 0.3885 0.88926 0.0
N126 N 0.56841 0.4023 1.00296 0.0
N127 N 0.56165 0.36251 0.05556 0.0
C128 C 0.58085 0.38621 1.02188 0.0
C129 C 0.54064 0.38827 0.02538 0.0
C130 C 0.53645 0.36383 0.05779 0.0
C131 C 0.57018 0.47279 0.03472 0.0
O132 O 0.54372 0.45483 1.012 0.0
H133 H 0.60357 0.39217 1.01241 0.0
H134 H 0.52464 0.39558 1.01925 0.0
O135 O 0.62082 0.44553 0.91642 0.0
H136 H 0.50263 0.40361 0.80389 0.0
H137 H 0.51649 0.34832 0.08186 0.0
H138 H 0.10098 0.50822 0.86744 0.0
C139 C 0.10015 0.52175 0.90496 0.0
H140 H 0.07444 0.5383 0.94678 0.0
H141 H 1.00279 0.52259 0.69908 0.0
H142 H 1.03382 0.57604 0.70373 0.0
H143 H 0.07273 0.59984 0.78305 0.0
H144 H 0.08099 0.57025 0.85794 0.0
C145 C 0.07573 0.52424 0.91126 0.0
C146 C 0.0507 0.5097 0.86648 0.0
C147 C 0.04556 0.52733 0.82412 0.0
C148 C 1.02271 0.5136 0.7791 0.0
C149 C 1.01913 0.53177 0.7355 0.0
C150 C 0.03696 0.56253 0.73732 0.0
C151 C 0.0589 0.57593 0.78192 0.0
C152 C 0.06335 0.55866 0.82472 0.0
H153 H 0.95357 0.48298 0.76878 0.0
C154 C 0.9562 0.47031 0.73173 0.0
H155 H 0.98358 0.45486 0.694 0.0
H156 H 0.05272 0.46952 0.94451 0.0
H157 H 1.02144 0.416 0.94044 0.0
H158 H 0.98215 0.39217 0.86184 0.0
H159 H 0.9738 0.42176 0.78695 0.0
C160 C 0.98063 0.46766 0.73023 0.0
C161 C 1.00448 0.48223 0.77754 0.0
C162 C 1.00943 0.46464 0.82033 0.0
C163 C 1.03238 0.47837 0.86516 0.0
C164 C 0.03614 0.46025 0.90853 0.0
C165 C 1.0182 0.4295 0.90697 0.0
C166 C 0.99605 0.41608 0.86275 0.0
C167 C 0.99155 0.43333 0.81996 0.0
H168 H 0.51966 0.92478 0.94659 0.0
C169 C 0.51386 0.93239 0.90513 0.0
H170 H 0.5184 0.96943 0.85614 0.0
H171 H 0.55213 1.0209 0.14375 0.0
H172 H 0.50131 0.9846 0.16825 0.0
H173 H 0.46852 0.94862 0.09025 0.0
H174 H 0.48644 0.94827 0.9876 0.0
C175 C 0.52375 0.96155 0.89778 0.0
C176 C 0.54287 0.98421 0.94455 0.0
C177 C 0.53157 0.98498 1.00367 0.0
C178 C 0.55001 1.00689 0.04767 0.0
C179 C 0.53873 1.00581 0.10756 0.0
C180 C 0.50966 0.98491 0.12249 0.0
C181 C 0.49122 0.96457 0.07862 0.0
C182 C 0.5019 0.96449 1.01988 0.0
H183 H 0.56995 0.07107 0.08243 0.0
C184 C 0.59107 0.07326 0.0962 0.0
H185 H 0.61925 0.05494 0.08899 0.0
H186 H 0.57153 0.98891 0.83598 0.0
H187 H 0.62148 0.0268 0.80945 0.0
H188 H 0.6525 0.06635 0.88357 0.0
H189 H 0.63386 0.06816 0.98479 0.0
C190 C 0.5983 0.05315 0.07577 0.0
C191 C 0.57914 0.02912 0.03131 0.0
C192 C 0.59029 0.02848 0.97203 0.0
C193 C 0.57221 1.00596 0.92882 0.0
C194 C 0.58411 1.00573 0.87027 0.0
C195 C 0.61279 0.02731 0.85445 0.0
C196 C 0.63027 0.04955 0.89622 0.0
C197 C 0.61928 0.05027 0.9543 0.0
H198 H 0.53319 0.59689 0.22388 0.0
C199 C 0.53392 0.59252 0.27254 0.0
H200 H 0.54416 0.56949 0.33851 0.0
H201 H 0.51767 0.45957 0.17212 0.0
H202 H 0.48366 0.43722 0.25723 0.0
H203 H 0.47839 0.46835 0.33677 0.0
H204 H 0.50711 0.52186 0.33198 0.0
C205 C 0.5431 0.57356 0.28988 0.0
C206 C 0.54827 0.55498 0.24406 0.0
C207 C 0.53098 0.52358 0.24732 0.0
C208 C 0.5335 0.5056 0.20067 0.0
C209 C 0.5162 0.47431 0.20554 0.0
C210 C 0.49666 0.46116 0.25431 0.0
C211 C 0.49373 0.47868 0.29912 0.0
C212 C 0.51052 0.50948 0.29583 0.0
H213 H 0.5952 0.50713 0.10598 0.0
C214 C 0.57406 0.49505 0.08215 0.0
H215 H 0.53026 0.48707 0.07446 0.0
H216 H 0.58981 0.61369 0.23169 0.0
H217 H 0.62358 0.6361 0.14608 0.0
H218 H 0.62447 0.60535 0.06004 0.0
H219 H 0.59221 0.55199 0.05984 0.0
C220 C 0.55159 0.49976 0.09736 0.0
C221 C 0.55288 0.51892 0.15013 0.0
C222 C 0.57111 0.55024 0.14819 0.0
C223 C 0.5694 0.5682 0.19614 0.0
C224 C 0.58911 0.59921 0.19495 0.0
C225 C 0.60879 0.61232 0.14636 0.0
C226 C 0.60937 0.59499 0.09805 0.0
C227 C 0.59079 0.56432 0.09866 0.0
H228 H 0.99416 0.51476 0.48019 0.0
C229 C 0.97748 0.51598 0.45213 0.0
H230 H 0.96875 0.52848 0.36545 0.0
H231 H 0.10495 0.61192 0.30276 0.0
H232 H 0.09087 0.64881 0.32777 0.0
H233 H 0.04156 0.63399 0.37094 0.0
H234 H 1.00606 0.58216 0.38967 0.0
C235 C 0.98443 0.526 0.3941 0.0
C236 C 1.01412 0.53477 0.36752 0.0
C237 C 1.03443 0.56509 0.35576 0.0
C238 C 0.06277 0.57361 0.33013 0.0
C239 C 0.08293 0.60414 0.32082 0.0
C240 C 0.07519 0.62557 0.3353 0.0
C241 C 0.04743 0.61723 0.35965 0.0
C242 C 1.02724 0.58739 0.37005 0.0
H243 H 0.09027 0.57171 0.20202 0.0
C244 C 0.10647 0.56935 0.22941 0.0
H245 H 0.11549 0.55658 0.31524 0.0
H246 H 0.9796 0.47445 0.37931 0.0
H247 H 0.99366 0.43762 0.35426 0.0
H248 H 0.04304 0.45246 0.31152 0.0
H249 H 0.0786 0.50425 0.29322 0.0
C250 C 0.10008 0.56027 0.28808 0.0
C251 C 0.07059 0.55173 0.31544 0.0
C252 C 0.05027 0.5214 0.32721 0.0
C253 C 1.02192 0.51288 0.3527 0.0
C254 C 1.00169 0.4823 0.36159 0.0
C255 C 1.00941 0.46087 0.34703 0.0
C256 C 0.03719 0.46922 0.3229 0.0
C257 C 0.05743 0.49906 0.31279 0.0
H258 H 0.51898 0.0886 0.3412 0.0
C259 C 0.54242 0.0995 0.35279 0.0
H260 H 0.57475 0.10031 0.41305 0.0
H261 H 0.48434 0.02733 0.62512 0.0
H262 H 0.50786 0.07678 0.66979 0.0
H263 H 0.54188 0.12042 0.60852 0.0
H264 H 0.55248 0.1149 0.50199 0.0
C265 C 0.55145 0.08944 0.40037 0.0
C266 C 0.53035 0.06301 0.43673 0.0
C267 C 0.52462 0.06652 0.49912 0.0
C268 C 0.50525 0.04127 0.53472 0.0
C269 C 0.49935 0.04561 0.59638 0.0
C270 C 0.51258 0.07391 0.62252 0.0
C271 C 0.53171 0.09849 0.588 0.0
C272 C 0.53766 0.09499 0.52695 0.0
H273 H 0.50658 0.98813 0.59941 0.0
C274 C 0.48293 0.97578 0.58949 0.0
H275 H 0.44881 0.97346 0.53255 0.0
H276 H 0.53887 0.04785 0.32035 0.0
H277 H 0.51582 0.99846 0.27627 0.0
H278 H 0.48102 0.95491 0.33682 0.0
H279 H 0.46961 0.96054 0.44258 0.0
C280 C 0.47206 0.98576 0.54516 0.0
C281 C 0.49193 1.01246 0.50807 0.0
C282 C 0.49757 1.00895 0.44561 0.0
C283 C 0.5171 0.03416 0.41015 0.0
C284 C 0.52353 0.02971 0.34893 0.0
C285 C 0.51055 1.00139 0.32303 0.0
C286 C 0.49103 0.97688 0.3572 0.0
C287 C 0.48462 0.98045 0.41784 0.0
H288 H 0.54487 0.4913 0.79072 0.0
C289 C 0.53057 0.46738 0.78713 0.0
H290 H 0.49397 0.43268 0.74018 0.0
H291 H 0.47776 0.55032 0.68901 0.0
H292 H 0.46968 0.55027 0.79882 0.0
H293 H 0.47529 0.51551 0.86684 0.0
H294 H 0.48959 0.48102 0.82558 0.0
C295 C 0.50803 0.45643 0.74634 0.0
C296 C 0.50265 0.4762 0.70521 0.0
C297 C 0.49303 0.49538 0.72982 0.0
C298 C 0.48838 0.51443 0.69017 0.0
C299 C 0.48044 0.53452 0.71649 0.0
C300 C 0.47591 0.53487 0.7796 0.0
C301 C 0.47917 0.51538 0.81791 0.0
C302 C 0.48759 0.49581 0.79361 0.0
H303 H 0.44069 0.51143 0.5986 0.0
C304 C 0.45946 0.52901 0.57438 0.0
H305 H 0.50562 0.54987 0.55864 0.0
H306 H 0.521 0.44224 0.64289 0.0
H307 H 0.52733 0.44104 0.53249 0.0
H308 H 0.51733 0.47261 0.46343 0.0
H309 H 0.5011 0.50571 0.50438 0.0
C310 C 0.48674 0.53281 0.58352 0.0
C311 C 0.49199 0.51329 0.62561 0.0
C312 C 0.50128 0.49391 0.60098 0.0
C313 C 0.50665 0.4754 0.64077 0.0
C314 C 0.51624 0.45652 0.61481 0.0
C315 C 0.52003 0.45564 0.55149 0.0
C316 C 0.51444 0.47344 0.51262 0.0
C317 C 0.50517 0.49239 0.53678 0.0
H318 H 0.27416 0.60365 0.2167 0.0
C319 C 0.25878 0.57991 0.21369 0.0
H320 H 0.25228 0.53732 0.23456 0.0
H321 H 0.39924 0.61982 0.24171 0.0
H322 H 0.39571 0.62628 0.13224 0.0
H323 H 0.34703 0.60724 0.08185 0.0
H324 H 0.30161 0.58183 0.14064 0.0
C325 C 0.26733 0.56107 0.23544 0.0
C326 C 0.2969 0.57194 0.26502 0.0
C327 C 0.32328 0.58645 0.22974 0.0
C328 C 0.35137 0.59704 0.25868 0.0
C329 C 0.37733 0.61147 0.22228 0.0
C330 C 0.37564 0.61523 0.15929 0.0
C331 C 0.34823 0.60453 0.13094 0.0
C332 C 0.3223 0.59016 0.1654 0.0
H333 H 0.37851 0.56354 0.37454 0.0
C334 C 0.39274 0.58751 0.37559 0.0
H335 H 0.39719 0.6289 0.35184 0.0
H336 H 0.2507 0.54414 0.34551 0.0
H337 H 0.25417 0.53744 0.45491 0.0
H338 H 0.30284 0.55659 0.50543 0.0
H339 H 0.34829 0.58233 0.44687 0.0
C340 C 0.38277 0.60496 0.35256 0.0
C341 C 0.35309 0.59266 0.32262 0.0
C342 C 0.32668 0.57786 0.35777 0.0
C343 C 0.29859 0.56724 0.32879 0.0
C344 C 0.2726 0.5526 0.36504 0.0
C345 C 0.27427 0.54868 0.42796 0.0
C346 C 0.30167 0.55943 0.45638 0.0
C347 C 0.32763 0.574 0.42205 0.0
H348 H 0.71206 0.26419 0.37221 0.0
C349 C 0.71684 0.24629 0.37967 0.0
H350 H 0.74615 0.23434 0.42128 0.0
H351 H 0.82665 0.38199 0.41556 0.0
H352 H 0.82346 0.37736 0.30446 0.0
H353 H 0.79276 0.32862 0.25454 0.0
H354 H 0.76454 0.28437 0.31546 0.0
C355 C 0.74118 0.2519 0.41214 0.0
C356 C 0.76088 0.28139 0.44141 0.0
C357 C 0.77831 0.30684 0.40498 0.0
C358 C 0.79731 0.3347 0.43378 0.0
C359 C 0.81298 0.36005 0.39627 0.0
C360 C 0.81118 0.35775 0.33235 0.0
C361 C 0.7938 0.33034 0.30426 0.0
C362 C 0.77754 0.30511 0.33987 0.0
H363 H 0.85942 0.36742 0.49196 0.0
C364 C 0.85069 0.37817 0.5217 0.0
H365 H 0.81212 0.37585 0.55939 0.0
H366 H 0.72981 0.23741 0.52494 0.0
H367 H 0.73412 0.24182 0.63607 0.0
H368 H 0.76879 0.28953 0.68574 0.0
H369 H 0.79927 0.3332 0.62459 0.0
C370 C 0.82119 0.3655 0.52951 0.0
C371 C 0.80011 0.33678 0.49893 0.0
C372 C 0.78259 0.31138 0.53526 0.0
C373 C 0.76292 0.28373 0.50654 0.0
C374 C 0.74545 0.25885 0.54418 0.0
C375 C 0.74763 0.26108 0.60809 0.0
C376 C 0.76712 0.28795 0.63605 0.0
C377 C 0.78446 0.31287 0.60035 0.0
H378 H 0.46563 0.81553 0.6742 0.0
C379 C 0.48714 0.83473 0.68445 0.0
H380 H 0.5334 0.85136 0.68676 0.0
H381 H 0.51462 0.72093 0.70976 0.0
H382 H 0.53621 0.74235 0.80899 0.0
H383 H 0.54572 0.79229 0.8384 0.0
H384 H 0.53391 0.8212 0.76858 0.0
C385 C 0.51172 0.83289 0.6748 0.0
C386 C 0.5093 0.80433 0.65375 0.0
C387 C 0.51661 0.78783 0.69481 0.0
C388 C 0.51064 0.75882 0.67823 0.0
C389 C 0.51816 0.74285 0.72034 0.0
C390 C 0.53068 0.75492 0.77739 0.0
C391 C 0.53607 0.78305 0.79391 0.0
C392 C 0.52917 0.79941 0.75334 0.0
H393 H 0.5135 0.72027 0.53085 0.0
C394 C 0.49788 0.70452 0.56362 0.0
H395 H 0.47115 0.69846 0.64126 0.0
H396 H 0.49809 0.83219 0.55994 0.0
H397 H 0.47562 0.81063 0.4612 0.0
H398 H 0.46153 0.75894 0.43542 0.0
H399 H 0.47034 0.72874 0.50736 0.0
C400 C 0.48695 0.71417 0.60883 0.0
C401 C 0.49713 0.74615 0.62078 0.0
C402 C 0.4909 0.76314 0.57861 0.0
C403 C 0.49768 0.79251 0.59463 0.0
C404 C 0.49234 0.80943 0.55092 0.0
C405 C 0.47962 0.79739 0.49399 0.0
C406 C 0.47179 0.76832 0.4794 0.0
C407 C 0.47718 0.75126 0.52109 0.0
H408 H 0.66619 0.45553 0.84979 0.0
C409 C 0.66992 0.45576 0.89908 0.0
H410 H 0.7007 0.46115 0.96842 0.0
H411 H 0.74918 0.4314 0.70503 0.0
H412 H 0.70527 0.38284 0.71052 0.0
H413 H 0.66855 0.37096 0.79311 0.0
H414 H 0.67522 0.40786 0.86988 0.0
C415 C 0.69621 0.46005 0.91937 0.0
C416 C 0.72047 0.46551 0.87528 0.0
C417 C 0.71705 0.44318 0.83262 0.0
C418 C 0.73907 0.44953 0.78697 0.0
C419 C 0.73395 0.42745 0.7424 0.0
C420 C 0.70869 0.39949 0.74473 0.0
C421 C 0.68795 0.39285 0.79107 0.0
C422 C 0.69196 0.41433 0.83459 0.0
H423 H 0.80015 0.45383 0.76915 0.0
C424 C 0.80471 0.47121 0.73604 0.0
H425 H 0.79291 0.50269 0.70655 0.0
H426 H 0.7347 0.51287 0.95163 0.0
H427 H 0.77992 0.56059 0.9498 0.0
H428 H 0.81911 0.57082 0.87388 0.0
H429 H 0.81325 0.53346 0.79901 0.0
C430 C 0.78848 0.48488 0.73813 0.0
C431 C 0.7653 0.4777 0.78608 0.0
C432 C 0.76921 0.49962 0.83021 0.0
C433 C 0.74678 0.49355 0.87466 0.0
C434 C 0.75111 0.51612 0.9173 0.0
C435 C 0.77697 0.54365 0.91674 0.0
C436 C 0.79902 0.54942 0.87395 0.0
C437 C 0.79532 0.52777 0.83112 0.0
H438 H 0.36463 0.78629 0.85288 0.0
C439 C 0.36156 0.80442 0.86918 0.0
H440 H 0.3355 0.81582 0.92566 0.0
H441 H 0.22409 0.68582 0.91789 0.0
H442 H 0.2063 0.71295 0.85783 0.0
H443 H 0.2397 0.76528 0.83046 0.0
H444 H 0.29121 0.79073 0.86264 0.0
C445 C 0.33961 0.79841 0.90945 0.0
C446 C 0.31909 0.76742 0.93016 0.0
C447 C 0.2888 0.75304 0.91249 0.0
C448 C 0.26937 0.72296 0.92923 0.0
C449 C 0.23962 0.70883 0.90821 0.0
C450 C 0.22914 0.7241 0.87326 0.0
C451 C 0.24796 0.75355 0.85777 0.0
C452 C 0.27748 0.76792 0.87672 0.0
H453 H 0.23265 0.68251 0.04023 0.0
C454 C 0.23771 0.66637 1.01986 0.0
H455 H 0.26621 0.65965 0.96106 0.0
H456 H 0.37485 0.78939 0.97865 0.0
H457 H 0.39259 0.76244 0.03961 0.0
H458 H 0.35921 0.71011 0.06711 0.0
H459 H 0.30781 0.68449 0.0342 0.0
C460 C 0.2605 0.67551 0.98031 0.0
C461 C 0.28013 0.70745 0.96484 0.0
C462 C 0.31028 0.72204 0.98361 0.0
C463 C 0.32969 0.7521 0.96685 0.0
C464 C 0.35937 0.76635 0.98831 0.0
C465 C 0.36981 0.7512 0.0238 0.0
C466 C 0.35101 0.72175 0.03935 0.0
C467 C 0.32156 0.70727 1.01991 0.0
H468 H 0.54875 0.32551 0.11805 0.0
C469 C 0.56593 0.34044 0.08657 0.0
H470 H 0.60737 0.35166 0.04712 0.0
H471 H 0.64531 0.2949 0.26113 0.0
H472 H 0.68201 0.34706 0.27064 0.0
H473 H 0.67822 0.38462 0.20846 0.0
H474 H 0.63785 0.37024 0.13596 0.0
C475 C 0.58962 0.33692 0.07752 0.0
C476 C 0.59285 0.31383 0.11207 0.0
C477 C 0.6165 0.32258 0.15458 0.0
C478 C 0.61839 0.30093 0.19129 0.0
C479 C 0.64248 0.31038 0.23279 0.0
C480 C 0.66378 0.34026 0.23863 0.0
C481 C 0.66166 0.36141 0.20357 0.0
C482 C 0.63835 0.35282 0.16205 0.0
H483 H 0.60512 0.22533 0.15402 0.0
C484 C 0.60321 0.22699 0.20354 0.0
H485 H 0.59741 0.25084 0.27598 0.0
H486 H 0.548 0.28863 0.02702 0.0
H487 H 0.5104 0.23669 1.01944 0.0
H488 H 0.51081 0.19985 0.08992 0.0
H489 H 0.54922 0.21458 0.16726 0.0
C490 C 0.59822 0.24822 0.22648 0.0
C491 C 0.5965 0.27051 0.18596 0.0
C492 C 0.57301 0.26169 0.14288 0.0
C493 C 0.57173 0.28323 0.10465 0.0
C494 C 0.54917 0.27349 0.05933 0.0
C495 C 0.52758 0.24368 0.05411 0.0
C496 C 0.52789 0.22292 0.0936 0.0
C497 C 0.55024 0.23168 0.13756 0.0
loop_
_geom_bond_atom_site_label_1
_geom_bond_atom_site_label_2
_geom_bond_distance
_geom_bond_site_symmetry_2
_ccdc_geom_bond_type
Cu0 N1 1.999 . S
Cu0 O6 1.974 . S
Cu0 N11 1.985 . S
Cu0 O20 1.959 . S
N1 Cu0 1.999 . S
N1 C3 1.263 . S
N1 C5 1.389 1_554 S
N2 C3 1.358 1_556 S
N2 C4 1.400 . S
C3 N1 1.263 . S
C3 N2 1.358 1_554 S
C3 H9 0.930 . S
C4 N2 1.400 . S
C4 C5 1.351 . S
C4 H21 0.930 . S
C5 N1 1.389 1_556 S
C5 C4 1.351 . S
C5 H10 0.930 . S
O6 Cu0 1.974 . S
O6 C16 1.282 . S
C7 O8 1.261 . S
C7 O20 1.251 . S
O8 C7 1.261 . S
H9 C3 0.930 . S
H10 C5 0.930 . S
N11 Cu0 1.985 . S
N11 C13 1.335 . S
N11 C14 1.390 . S
N12 C13 1.345 . S
N12 C15 1.336 . S
C13 N11 1.335 . S
C13 N12 1.345 . S
C13 H18 0.930 . S
C14 N11 1.390 . S
C14 C15 1.346 . S
C14 H19 0.930 . S
C15 N12 1.336 . S
C15 C14 1.346 . S
C15 H22 0.929 . S
C16 O6 1.282 . S
C16 O17 1.216 . S
O17 C16 1.216 . S
H18 C13 0.930 . S
H19 C14 0.930 . S
O20 Cu0 1.959 . S
O20 C7 1.251 . S
H21 C4 0.930 . S
H22 C15 0.929 . S
Cu23 N24 1.999 . S
Cu23 O29 1.974 . S
Cu23 N34 1.985 . S
Cu23 O43 1.959 . S
N24 Cu23 1.999 . S
N24 C26 1.263 . S
N24 C28 1.389 . S
N25 C26 1.358 . S
N25 C27 1.400 . S
C26 N24 1.263 . S
C26 N25 1.358 . S
C26 H32 0.930 . S
C27 N25 1.400 . S
C27 C28 1.351 . S
C27 H44 0.930 . S
C28 N24 1.389 . S
C28 C27 1.351 . S
C28 H33 0.930 . S
O29 Cu23 1.974 . S
O29 C39 1.282 . S
C30 O31 1.261 . S
C30 O43 1.251 . S
O31 C30 1.261 . S
H32 C26 0.930 . S
H33 C28 0.930 . S
N34 Cu23 1.985 . S
N34 C36 1.335 . S
N34 C37 1.390 . S
N35 C36 1.345 . S
N35 C38 1.336 . S
C36 N34 1.335 . S
C36 N35 1.345 . S
C36 H41 0.930 . S
C37 N34 1.390 . S
C37 C38 1.346 . S
C37 H42 0.930 . S
C38 N35 1.336 . S
C38 C37 1.346 . S
C38 H45 0.929 . S
C39 O29 1.282 . S
C39 O40 1.216 . S
O40 C39 1.216 . S
H41 C36 0.930 . S
H42 C37 0.930 . S
O43 Cu23 1.959 . S
O43 C30 1.251 . S
H44 C27 0.930 . S
H45 C38 0.929 . S
Cu46 N47 1.999 . S
Cu46 O52 1.974 . S
Cu46 N57 1.985 . S
Cu46 O66 1.959 . S
N47 Cu46 1.999 . S
N47 C49 1.263 . S
N47 C51 1.389 . S
N48 C49 1.358 . S
N48 C50 1.400 . S
C49 N47 1.263 . S
C49 N48 1.358 . S
C49 H55 0.930 . S
C50 N48 1.400 . S
C50 C51 1.351 . S
C50 H67 0.930 . S
C51 N47 1.389 . S
C51 C50 1.351 . S
C51 H56 0.930 . S
O52 Cu46 1.974 . S
O52 C62 1.282 . S
C53 O54 1.261 . S
C53 O66 1.251 . S
O54 C53 1.261 . S
H55 C49 0.930 . S
H56 C51 0.930 . S
N57 Cu46 1.985 . S
N57 C59 1.335 . S
N57 C60 1.390 . S
N58 C59 1.345 . S
N58 C61 1.336 . S
C59 N57 1.335 . S
C59 N58 1.345 . S
C59 H64 0.930 . S
C60 N57 1.390 . S
C60 C61 1.346 . S
C60 H65 0.930 . S
C61 N58 1.336 . S
C61 C60 1.346 . S
C61 H68 0.929 . S
C62 O52 1.282 . S
C62 O63 1.216 . S
O63 C62 1.216 . S
H64 C59 0.930 . S
H65 C60 0.930 . S
O66 Cu46 1.959 . S
O66 C53 1.251 . S
H67 C50 0.930 . S
H68 C61 0.929 . S
Cu69 N70 1.999 . S
Cu69 O75 1.974 . S
Cu69 N80 1.985 . S
Cu69 O89 1.959 . S
N70 Cu69 1.999 . S
N70 C72 1.263 . S
N70 C74 1.389 . S
N71 C72 1.358 . S
N71 C73 1.400 . S
C72 N70 1.263 . S
C72 N71 1.358 . S
C72 H78 0.930 . S
C73 N71 1.400 . S
C73 C74 1.351 . S
C73 H90 0.930 . S
C74 N70 1.389 . S
C74 C73 1.351 . S
C74 H79 0.930 . S
O75 Cu69 1.974 . S
O75 C85 1.282 . S
C76 O77 1.261 . S
C76 O89 1.251 . S
O77 C76 1.261 . S
H78 C72 0.930 . S
H79 C74 0.930 . S
N80 Cu69 1.985 . S
N80 C82 1.335 . S
N80 C83 1.390 . S
N81 C82 1.345 . S
N81 C84 1.336 . S
C82 N80 1.335 . S
C82 N81 1.345 . S
C82 H87 0.930 . S
C83 N80 1.390 . S
C83 C84 1.346 . S
C83 H88 0.930 . S
C84 N81 1.336 . S
C84 C83 1.346 . S
C84 H91 0.929 . S
C85 O75 1.282 . S
C85 O86 1.216 . S
O86 C85 1.216 . S
H87 C82 0.930 . S
H88 C83 0.930 . S
O89 Cu69 1.959 . S
O89 C76 1.251 . S
H90 C73 0.930 . S
H91 C84 0.929 . S
Cu92 N93 1.999 . S
Cu92 O98 1.974 . S
Cu92 N103 1.985 . S
Cu92 O112 1.959 . S
N93 Cu92 1.999 . S
N93 C95 1.263 . S
N93 C97 1.389 . S
N94 C95 1.358 . S
N94 C96 1.400 . S
C95 N93 1.263 . S
C95 N94 1.358 . S
C95 H101 0.930 . S
C96 N94 1.400 . S
C96 C97 1.351 . S
C96 H113 0.930 . S
C97 N93 1.389 . S
C97 C96 1.351 . S
C97 H102 0.930 . S
O98 Cu92 1.974 . S
O98 C108 1.282 . S
C99 O100 1.261 . S
C99 O112 1.251 . S
O100 C99 1.261 . S
H101 C95 0.930 . S
H102 C97 0.930 . S
N103 Cu92 1.985 . S
N103 C105 1.335 . S
N103 C106 1.390 . S
N104 C105 1.345 . S
N104 C107 1.336 . S
C105 N103 1.335 . S
C105 N104 1.345 . S
C105 H110 0.930 . S
C106 N103 1.390 . S
C106 C107 1.346 . S
C106 H111 0.930 . S
C107 N104 1.336 . S
C107 C106 1.346 . S
C107 H114 0.929 . S
C108 O98 1.282 . S
C108 O109 1.216 . S
O109 C108 1.216 . S
H110 C105 0.930 . S
H111 C106 0.930 . S
O112 Cu92 1.959 . S
O112 C99 1.251 . S
H113 C96 0.930 . S
H114 C107 0.929 . S
Cu115 N116 1.999 . S
Cu115 O121 1.974 . S
Cu115 N126 1.985 . S
Cu115 O135 1.959 . S
N116 Cu115 1.999 . S
N116 C118 1.263 . S
N116 C120 1.389 . S
N117 C118 1.358 . S
N117 C119 1.400 . S
C118 N116 1.263 . S
C118 N117 1.358 . S
C118 H124 0.930 . S
C119 N117 1.400 . S
C119 C120 1.351 . S
C119 H136 0.930 . S
C120 N116 1.389 . S
C120 C119 1.351 . S
C120 H125 0.930 . S
O121 Cu115 1.974 . S
O121 C131 1.282 . S
C122 O123 1.261 . S
C122 O135 1.251 . S
O123 C122 1.261 . S
H124 C118 0.930 . S
H125 C120 0.930 . S
N126 Cu115 1.985 . S
N126 C128 1.335 . S
N126 C129 1.390 1_556 S
N127 C128 1.345 1_554 S
N127 C130 1.336 . S
C128 N126 1.335 . S
C128 N127 1.345 1_556 S
C128 H133 0.930 . S
C129 N126 1.390 1_554 S
C129 C130 1.346 . S
C129 H134 0.930 . S
C130 N127 1.336 . S
C130 C129 1.346 . S
C130 H137 0.929 . S
C131 O121 1.282 . S
C131 O132 1.216 1_556 S
O132 C131 1.216 1_554 S
H133 C128 0.930 . S
H134 C129 0.930 . S
O135 Cu115 1.959 . S
O135 C122 1.251 . S
H136 C119 0.930 . S
H137 C130 0.929 . S
H138 C139 0.951 . S
C139 H138 0.951 . S
C139 C145 1.265 . S
H140 C145 0.950 . S
H141 C149 0.949 . S
H142 C150 0.950 . S
H143 C151 0.951 . S
H144 C152 0.951 . S
C145 C139 1.265 . S
C145 H140 0.950 . S
C145 C146 1.478 . S
C146 C145 1.478 . S
C146 C147 1.397 . S
C146 C163 1.394 1_455 S
C147 C146 1.397 . S
C147 C148 1.438 1_455 S
C147 C152 1.429 . S
C148 C147 1.438 1_655 S
C148 C149 1.428 . S
C148 C161 1.394 . S
C149 H141 0.949 . S
C149 C148 1.428 . S
C149 C150 1.345 . S
C150 H142 0.950 . S
C150 C149 1.345 . S
C150 C151 1.424 1_655 S
C151 H143 0.951 . S
C151 C150 1.424 1_455 S
C151 C152 1.347 . S
C152 H144 0.951 . S
C152 C147 1.429 . S
C152 C151 1.347 . S
H153 C154 0.951 . S
C154 H153 0.951 . S
C154 C160 1.265 . S
H155 C160 0.950 . S
H156 C164 0.954 . S
H157 C165 0.950 . S
H158 C166 0.951 . S
H159 C167 0.951 . S
C160 C154 1.265 . S
C160 H155 0.950 . S
C160 C161 1.478 . S
C161 C148 1.394 . S
C161 C160 1.478 . S
C161 C162 1.397 . S
C162 C161 1.397 . S
C162 C163 1.438 . S
C162 C167 1.429 . S
C163 C146 1.394 1_655 S
C163 C162 1.438 . S
C163 C164 1.422 1_655 S
C164 H156 0.954 . S
C164 C163 1.422 1_455 S
C164 C165 1.346 1_455 S
C165 H157 0.950 . S
C165 C164 1.346 1_655 S
C165 C166 1.424 . S
C166 H158 0.951 . S
C166 C165 1.424 . S
C166 C167 1.347 . S
C167 H159 0.951 . S
C167 C162 1.429 . S
C167 C166 1.347 . S
H168 C169 0.951 . S
C169 H168 0.951 . S
C169 C175 1.265 . S
H170 C175 0.950 . S
H171 C179 0.949 1_545 S
H172 C180 0.950 . S
H173 C181 0.951 . S
H174 C182 0.951 . S
C175 C169 1.265 . S
C175 H170 0.950 . S
C175 C176 1.478 . S
C176 C175 1.478 . S
C176 C177 1.397 . S
C176 C193 1.394 . S
C177 C176 1.397 . S
C177 C178 1.438 1_556 S
C177 C182 1.429 . S
C178 C177 1.438 1_554 S
C178 C179 1.428 . S
C178 C191 1.394 1_565 S
C179 H171 0.949 1_565 S
C179 C178 1.428 . S
C179 C180 1.345 . S
C180 H172 0.950 . S
C180 C179 1.345 . S
C180 C181 1.424 . S
C181 H173 0.951 . S
C181 C180 1.424 . S
C181 C182 1.347 1_554 S
C182 H174 0.951 . S
C182 C177 1.429 . S
C182 C181 1.347 1_556 S
H183 C184 0.951 . S
C184 H183 0.951 . S
C184 C190 1.265 . S
H185 C190 0.950 . S
H186 C194 0.949 . S
H187 C195 0.940 1_565 S
H188 C196 0.951 . S
H189 C197 0.951 1_554 S
C190 C184 1.265 . S
C190 H185 0.950 . S
C190 C191 1.478 . S
C191 C178 1.394 1_545 S
C191 C190 1.478 . S
C191 C192 1.397 1_554 S
C192 C191 1.397 1_556 S
C192 C193 1.438 1_545 S
C192 C197 1.429 . S
C193 C176 1.394 . S
C193 C192 1.438 1_565 S
C193 C194 1.428 . S
C194 H186 0.949 . S
C194 C193 1.428 . S
C194 C195 1.345 1_565 S
C195 H187 0.940 1_545 S
C195 C194 1.345 1_545 S
C195 C196 1.424 . S
C196 H188 0.951 . S
C196 C195 1.424 . S
C196 C197 1.347 . S
C197 H189 0.951 1_556 S
C197 C192 1.429 . S
C197 C196 1.347 . S
H198 C199 0.951 . S
C199 H198 0.951 . S
C199 C205 1.265 . S
H200 C205 0.950 . S
H201 C209 0.949 . S
H202 C210 0.950 . S
H203 C211 0.951 . S
H204 C212 0.951 . S
C205 C199 1.265 . S
C205 H200 0.950 . S
C205 C206 1.478 . S
C206 C205 1.478 . S
C206 C207 1.397 . S
C206 C223 1.394 . S
C207 C206 1.397 . S
C207 C208 1.438 . S
C207 C212 1.429 . S
C208 C207 1.438 . S
C208 C209 1.428 . S
C208 C221 1.394 . S
C209 H201 0.949 . S
C209 C208 1.428 . S
C209 C210 1.345 . S
C210 H202 0.950 . S
C210 C209 1.345 . S
C210 C211 1.424 . S
C211 H203 0.951 . S
C211 C210 1.424 . S
C211 C212 1.347 . S
C212 H204 0.951 . S
C212 C207 1.429 . S
C212 C211 1.347 . S
H213 C214 0.951 . S
C214 H213 0.951 . S
C214 C220 1.265 . S
H215 C220 0.950 . S
H216 C224 0.949 . S
H217 C225 0.950 . S
H218 C226 0.951 . S
H219 C227 0.951 . S
C220 C214 1.265 . S
C220 H215 0.950 . S
C220 C221 1.478 . S
C221 C208 1.394 . S
C221 C220 1.478 . S
C221 C222 1.397 . S
C222 C221 1.397 . S
C222 C223 1.438 . S
C222 C227 1.429 . S
C223 C206 1.394 . S
C223 C222 1.438 . S
C223 C224 1.428 . S
C224 H216 0.949 . S
C224 C223 1.428 . S
C224 C225 1.345 . S
C225 H217 0.950 . S
C225 C224 1.345 . S
C225 C226 1.424 . S
C226 H218 0.951 . S
C226 C225 1.424 . S
C226 C227 1.347 . S
C227 H219 0.951 . S
C227 C222 1.429 . S
C227 C226 1.347 . S
H228 C229 0.951 . S
C229 H228 0.951 . S
C229 C235 1.265 . S
H230 C235 0.950 . S
H231 C239 0.949 . S
H232 C240 0.950 . S
H233 C241 0.951 1_655 S
H234 C242 0.951 . S
C235 C229 1.265 . S
C235 H230 0.950 . S
C235 C236 1.478 . S
C236 C235 1.478 . S
C236 C237 1.397 . S
C236 C253 1.394 . S
C237 C236 1.397 . S
C237 C238 1.414 1_655 S
C237 C242 1.452 . S
C238 C237 1.414 1_455 S
C238 C239 1.428 . S
C238 C251 1.394 . S
C239 H231 0.949 . S
C239 C238 1.428 . S
C239 C240 1.345 . S
C240 H232 0.950 . S
C240 C239 1.345 . S
C240 C241 1.424 . S
C241 H233 0.951 1_455 S
C241 C240 1.424 . S
C241 C242 1.347 1_455 S
C242 H234 0.951 . S
C242 C237 1.452 . S
C242 C241 1.347 1_655 S
H243 C244 0.951 . S
C244 H243 0.951 . S
C244 C250 1.265 . S
H245 C250 0.950 . S
H246 C254 0.949 . S
H247 C255 0.950 . S
H248 C256 0.951 . S
H249 C257 0.951 . S
C250 C244 1.265 . S
C250 H245 0.950 . S
C250 C251 1.478 . S
C251 C238 1.394 . S
C251 C250 1.478 . S
C251 C252 1.397 . S
C252 C251 1.397 . S
C252 C253 1.438 1_455 S
C252 C257 1.429 . S
C253 C236 1.394 . S
C253 C252 1.438 1_655 S
C253 C254 1.428 . S
C254 H246 0.949 . S
C254 C253 1.428 . S
C254 C255 1.345 . S
C255 H247 0.950 . S
C255 C254 1.345 . S
C255 C256 1.424 1_655 S
C256 H248 0.951 . S
C256 C255 1.424 1_455 S
C256 C257 1.347 . S
C257 H249 0.951 . S
C257 C252 1.429 . S
C257 C256 1.347 . S
H258 C259 0.951 . S
C259 H258 0.951 . S
C259 C265 1.265 . S
H260 C265 0.950 . S
H261 C269 0.949 . S
H262 C270 0.950 . S
H263 C271 0.951 . S
H264 C272 0.951 . S
C265 C259 1.265 . S
C265 H260 0.950 . S
C265 C266 1.478 . S
C266 C265 1.478 . S
C266 C267 1.397 . S
C266 C283 1.394 . S
C267 C266 1.397 . S
C267 C268 1.438 . S
C267 C272 1.429 . S
C268 C267 1.438 . S
C268 C269 1.428 . S
C268 C281 1.394 1_545 S
C269 H261 0.949 . S
C269 C268 1.428 . S
C269 C270 1.345 . S
C270 H262 0.950 . S
C270 C269 1.345 . S
C270 C271 1.424 . S
C271 H263 0.951 . S
C271 C270 1.424 . S
C271 C272 1.347 . S
C272 H264 0.951 . S
C272 C267 1.429 . S
C272 C271 1.347 . S
H273 C274 0.951 . S
C274 H273 0.951 . S
C274 C280 1.265 . S
H275 C280 0.950 . S
H276 C284 0.949 . S
H277 C285 0.950 . S
H278 C286 0.951 . S
H279 C287 0.951 . S
C280 C274 1.265 . S
C280 H275 0.950 . S
C280 C281 1.478 . S
C281 C268 1.394 1_565 S
C281 C280 1.478 . S
C281 C282 1.397 . S
C282 C281 1.397 . S
C282 C283 1.438 1_565 S
C282 C287 1.429 . S
C283 C266 1.394 . S
C283 C282 1.438 1_545 S
C283 C284 1.428 . S
C284 H276 0.949 . S
C284 C283 1.428 . S
C284 C285 1.345 1_545 S
C285 H277 0.950 . S
C285 C284 1.345 1_565 S
C285 C286 1.424 . S
C286 H278 0.951 . S
C286 C285 1.424 . S
C286 C287 1.347 . S
C287 H279 0.951 . S
C287 C282 1.429 . S
C287 C286 1.347 . S
H288 C289 0.951 . S
C289 H288 0.951 . S
C289 C295 1.265 . S
H290 C295 0.950 . S
H291 C299 0.949 . S
H292 C300 0.950 . S
H293 C301 0.951 . S
H294 C302 0.951 . S
C295 C289 1.265 . S
C295 H290 0.950 . S
C295 C296 1.478 . S
C296 C295 1.478 . S
C296 C297 1.397 . S
C296 C313 1.394 . S
C297 C296 1.397 . S
C297 C298 1.438 . S
C297 C302 1.429 . S
C298 C297 1.438 . S
C298 C299 1.428 . S
C298 C311 1.394 . S
C299 H291 0.949 . S
C299 C298 1.428 . S
C299 C300 1.345 . S
C300 H292 0.950 . S
C300 C299 1.345 . S
C300 C301 1.424 . S
C301 H293 0.951 . S
C301 C300 1.424 . S
C301 C302 1.347 . S
C302 H294 0.951 . S
C302 C297 1.429 . S
C302 C301 1.347 . S
H303 C304 0.951 . S
C304 H303 0.951 . S
C304 C310 1.265 . S
H305 C310 0.950 . S
H306 C314 0.949 . S
H307 C315 0.950 . S
H308 C316 0.951 . S
H309 C317 0.951 . S
C310 C304 1.265 . S
C310 H305 0.950 . S
C310 C311 1.478 . S
C311 C298 1.394 . S
C311 C310 1.478 . S
C311 C312 1.397 . S
C312 C311 1.397 . S
C312 C313 1.438 . S
C312 C317 1.429 . S
C313 C296 1.394 . S
C313 C312 1.438 . S
C313 C314 1.428 . S
C314 H306 0.949 . S
C314 C313 1.428 . S
C314 C315 1.345 . S
C315 H307 0.950 . S
C315 C314 1.345 . S
C315 C316 1.424 . S
C316 H308 0.951 . S
C316 C315 1.424 . S
C316 C317 1.347 . S
C317 H309 0.951 . S
C317 C312 1.429 . S
C317 C316 1.347 . S
H318 C319 0.951 . S
C319 H318 0.951 . S
C319 C325 1.265 . S
H320 C325 0.950 . S
H321 C329 0.949 . S
H322 C330 0.950 . S
H323 C331 0.951 . S
H324 C332 0.951 . S
C325 C319 1.265 . S
C325 H320 0.950 . S
C325 C326 1.478 . S
C326 C325 1.478 . S
C326 C327 1.397 . S
C326 C343 1.394 . S
C327 C326 1.397 . S
C327 C328 1.438 . S
C327 C332 1.429 . S
C328 C327 1.438 . S
C328 C329 1.428 . S
C328 C341 1.394 . S
C329 H321 0.949 . S
C329 C328 1.428 . S
C329 C330 1.345 . S
C330 H322 0.950 . S
C330 C329 1.345 . S
C330 C331 1.424 . S
C331 H323 0.951 . S
C331 C330 1.424 . S
C331 C332 1.347 . S
C332 H324 0.951 . S
C332 C327 1.429 . S
C332 C331 1.347 . S
H333 C334 0.951 . S
C334 H333 0.951 . S
C334 C340 1.265 . S
H335 C340 0.950 . S
H336 C344 0.949 . S
H337 C345 0.950 . S
H338 C346 0.951 . S
H339 C347 0.951 . S
C340 C334 1.265 . S
C340 H335 0.950 . S
C340 C341 1.478 . S
C341 C328 1.394 . S
C341 C340 1.478 . S
C341 C342 1.397 . S
C342 C341 1.397 . S
C342 C343 1.438 . S
C342 C347 1.429 . S
C343 C326 1.394 . S
C343 C342 1.438 . S
C343 C344 1.428 . S
C344 H336 0.949 . S
C344 C343 1.428 . S
C344 C345 1.345 . S
C345 H337 0.950 . S
C345 C344 1.345 . S
C345 C346 1.424 . S
C346 H338 0.951 . S
C346 C345 1.424 . S
C346 C347 1.347 . S
C347 H339 0.951 . S
C347 C342 1.429 . S
C347 C346 1.347 . S
H348 C349 0.951 . S
C349 H348 0.951 . S
C349 C355 1.265 . S
H350 C355 0.950 . S
H351 C359 0.949 . S
H352 C360 0.950 . S
H353 C361 0.951 . S
H354 C362 0.951 . S
C355 C349 1.265 . S
C355 H350 0.950 . S
C355 C356 1.478 . S
C356 C355 1.478 . S
C356 C357 1.397 . S
C356 C373 1.394 . S
C357 C356 1.397 . S
C357 C358 1.438 . S
C357 C362 1.429 . S
C358 C357 1.438 . S
C358 C359 1.428 . S
C358 C371 1.394 . S
C359 H351 0.949 . S
C359 C358 1.428 . S
C359 C360 1.345 . S
C360 H352 0.950 . S
C360 C359 1.345 . S
C360 C361 1.424 . S
C361 H353 0.951 . S
C361 C360 1.424 . S
C361 C362 1.347 . S
C362 H354 0.951 . S
C362 C357 1.429 . S
C362 C361 1.347 . S
H363 C364 0.951 . S
C364 H363 0.951 . S
C364 C370 1.265 . S
H365 C370 0.950 . S
H366 C374 0.949 . S
H367 C375 0.950 . S
H368 C376 0.951 . S
H369 C377 0.951 . S
C370 C364 1.265 . S
C370 H365 0.950 . S
C370 C371 1.478 . S
C371 C358 1.394 . S
C371 C370 1.478 . S
C371 C372 1.397 . S
C372 C371 1.397 . S
C372 C373 1.438 . S
C372 C377 1.429 . S
C373 C356 1.394 . S
C373 C372 1.438 . S
C373 C374 1.428 . S
C374 H366 0.949 . S
C374 C373 1.428 . S
C374 C375 1.345 . S
C375 H367 0.950 . S
C375 C374 1.345 . S
C375 C376 1.424 . S
C376 H368 0.951 . S
C376 C375 1.424 . S
C376 C377 1.347 . S
C377 H369 0.951 . S
C377 C372 1.429 . S
C377 C376 1.347 . S
H378 C379 0.951 . S
C379 H378 0.951 . S
C379 C385 1.265 . S
H380 C385 0.950 . S
H381 C389 0.949 . S
H382 C390 0.950 . S
H383 C391 0.951 . S
H384 C392 0.951 . S
C385 C379 1.265 . S
C385 H380 0.950 . S
C385 C386 1.478 . S
C386 C385 1.478 . S
C386 C387 1.397 . S
C386 C403 1.394 . S
C387 C386 1.397 . S
C387 C388 1.438 . S
C387 C392 1.429 . S
C388 C387 1.438 . S
C388 C389 1.428 . S
C388 C401 1.394 . S
C389 H381 0.949 . S
C389 C388 1.428 . S
C389 C390 1.345 . S
C390 H382 0.950 . S
C390 C389 1.345 . S
C390 C391 1.424 . S
C391 H383 0.951 . S
C391 C390 1.424 . S
C391 C392 1.347 . S
C392 H384 0.951 . S
C392 C387 1.429 . S
C392 C391 1.347 . S
H393 C394 0.951 . S
C394 H393 0.951 . S
C394 C400 1.265 . S
H395 C400 0.950 . S
H396 C404 0.949 . S
H397 C405 0.950 . S
H398 C406 0.951 . S
H399 C407 0.951 . S
C400 C394 1.265 . S
C400 H395 0.950 . S
C400 C401 1.478 . S
C401 C388 1.394 . S
C401 C400 1.478 . S
C401 C402 1.397 . S
C402 C401 1.397 . S
C402 C403 1.438 . S
C402 C407 1.429 . S
C403 C386 1.394 . S
C403 C402 1.438 . S
C403 C404 1.428 . S
C404 H396 0.949 . S
C404 C403 1.428 . S
C404 C405 1.345 . S
C405 H397 0.950 . S
C405 C404 1.345 . S
C405 C406 1.424 . S
C406 H398 0.951 . S
C406 C405 1.424 . S
C406 C407 1.347 . S
C407 H399 0.951 . S
C407 C402 1.429 . S
C407 C406 1.347 . S
H408 C409 0.951 . S
C409 H408 0.951 . S
C409 C415 1.265 . S
H410 C415 0.950 . S
H411 C419 0.949 . S
H412 C420 0.950 . S
H413 C421 0.951 . S
H414 C422 0.951 . S
C415 C409 1.265 . S
C415 H410 0.950 . S
C415 C416 1.478 . S
C416 C415 1.478 . S
C416 C417 1.397 . S
C416 C433 1.394 . S
C417 C416 1.397 . S
C417 C418 1.438 . S
C417 C422 1.429 . S
C418 C417 1.438 . S
C418 C419 1.428 . S
C418 C431 1.394 . S
C419 H411 0.949 . S
C419 C418 1.428 . S
C419 C420 1.345 . S
C420 H412 0.950 . S
C420 C419 1.345 . S
C420 C421 1.424 . S
C421 H413 0.951 . S
C421 C420 1.424 . S
C421 C422 1.347 . S
C422 H414 0.951 . S
C422 C417 1.429 . S
C422 C421 1.347 . S
H423 C424 0.951 . S
C424 H423 0.951 . S
C424 C430 1.265 . S
H425 C430 0.950 . S
H426 C434 0.949 . S
H427 C435 0.950 . S
H428 C436 0.951 . S
H429 C437 0.951 . S
C430 C424 1.265 . S
C430 H425 0.950 . S
C430 C431 1.478 . S
C431 C418 1.394 . S
C431 C430 1.478 . S
C431 C432 1.397 . S
C432 C431 1.397 . S
C432 C433 1.438 . S
C432 C437 1.429 . S
C433 C416 1.394 . S
C433 C432 1.438 . S
C433 C434 1.428 . S
C434 H426 0.949 . S
C434 C433 1.428 . S
C434 C435 1.345 . S
C435 H427 0.950 . S
C435 C434 1.345 . S
C435 C436 1.424 . S
C436 H428 0.951 . S
C436 C435 1.424 . S
C436 C437 1.347 . S
C437 H429 0.951 . S
C437 C432 1.429 . S
C437 C436 1.347 . S
H438 C439 0.951 . S
C439 H438 0.951 . S
C439 C445 1.265 . S
H440 C445 0.950 . S
H441 C449 0.949 . S
H442 C450 0.950 . S
H443 C451 0.951 . S
H444 C452 0.951 . S
C445 C439 1.265 . S
C445 H440 0.950 . S
C445 C446 1.478 . S
C446 C445 1.478 . S
C446 C447 1.397 . S
C446 C463 1.394 . S
C447 C446 1.397 . S
C447 C448 1.438 . S
C447 C452 1.429 1_556 S
C448 C447 1.438 . S
C448 C449 1.428 1_556 S
C448 C461 1.394 . S
C449 H441 0.949 . S
C449 C448 1.428 1_554 S
C449 C450 1.345 . S
C450 H442 0.950 . S
C450 C449 1.345 . S
C450 C451 1.424 . S
C451 H443 0.951 . S
C451 C450 1.424 . S
C451 C452 1.347 . S
C452 H444 0.951 . S
C452 C447 1.429 1_554 S
C452 C451 1.347 . S
H453 C454 0.953 . S
C454 H453 0.953 . S
C454 C460 1.265 . S
H455 C460 0.950 . S
H456 C464 0.949 . S
H457 C465 0.950 . S
H458 C466 0.951 . S
H459 C467 0.951 . S
C460 C454 1.265 . S
C460 H455 0.950 . S
C460 C461 1.478 . S
C461 C448 1.394 . S
C461 C460 1.478 . S
C461 C462 1.397 . S
C462 C461 1.397 . S
C462 C463 1.438 . S
C462 C467 1.429 . S
C463 C446 1.394 . S
C463 C462 1.438 . S
C463 C464 1.428 . S
C464 H456 0.949 . S
C464 C463 1.428 . S
C464 C465 1.345 . S
C465 H457 0.950 . S
C465 C464 1.345 . S
C465 C466 1.424 . S
C466 H458 0.951 . S
C466 C465 1.424 . S
C466 C467 1.347 . S
C467 H459 0.951 . S
C467 C462 1.429 . S
C467 C466 1.347 . S
H468 C469 0.951 . S
C469 H468 0.951 . S
C469 C475 1.265 . S
H470 C475 0.950 . S
H471 C479 0.949 . S
H472 C480 0.950 . S
H473 C481 0.951 . S
H474 C482 0.951 . S
C475 C469 1.265 . S
C475 H470 0.950 . S
C475 C476 1.478 . S
C476 C475 1.478 . S
C476 C477 1.397 . S
C476 C493 1.394 . S
C477 C476 1.397 . S
C477 C478 1.438 . S
C477 C482 1.429 . S
C478 C477 1.438 . S
C478 C479 1.428 . S
C478 C491 1.394 . S
C479 H471 0.949 . S
C479 C478 1.428 . S
C479 C480 1.345 . S
C480 H472 0.950 . S
C480 C479 1.345 . S
C480 C481 1.424 . S
C481 H473 0.951 . S
C481 C480 1.424 . S
C481 C482 1.347 . S
C482 H474 0.951 . S
C482 C477 1.429 . S
C482 C481 1.347 . S
H483 C484 0.951 . S
C484 H483 0.951 . S
C484 C490 1.265 . S
H485 C490 0.950 . S
H486 C494 0.949 . S
H487 C495 0.950 . S
H488 C496 0.951 . S
H489 C497 0.951 . S
C490 C484 1.265 . S
C490 H485 0.950 . S
C490 C491 1.478 . S
C491 C478 1.394 . S
C491 C490 1.478 . S
C491 C492 1.397 . S
C492 C491 1.397 . S
C492 C493 1.438 . S
C492 C497 1.429 . S
C493 C476 1.394 . S
C493 C492 1.438 . S
C493 C494 1.428 . S
C494 H486 0.949 . S
C494 C493 1.428 . S
C494 C495 1.345 . S
C495 H487 0.950 . S
C495 C494 1.345 . S
C495 C496 1.424 . S
C496 H488 0.951 . S
C496 C495 1.424 . S
C496 C497 1.347 . S
C497 H489 0.951 . S
C497 C492 1.429 . S
C497 C496 1.347 . S
C139 N2 1.582 . S
C154 C85 1.696 . S
C169 C108 1.659 . S
C184 N25 1.641 . S
C199 N48 1.600 . S
C214 C131 1.669 1_554 S
C229 N71 1.685 . S
C244 C16 1.703 . S
C259 C39 1.673 . S
C274 N94 1.678 . S
C289 N117 1.627 . S
C304 C62 1.660 . S
C319 N12 1.579 . S
C334 C53 1.622 . S
C349 N35 1.609 . S
C364 C76 1.598 . S
C379 C99 1.628 . S
C394 N58 1.567 . S
C409 C122 1.612 . S
C424 N81 1.592 . S
C439 N104 1.574 . S
C454 C7 1.620 1_556 S
C469 N127 1.568 . S
C484 C30 1.628 . S
