# Generated by pormake.
# Topology qtz-x, (6)-cn, num edge types: 1
# Building blocks:
#     Node 0, Type 0, BuildingBlock: UKALOJ_clean_sbu_0, # of connection points: 6
#     Node 1, Type 0, BuildingBlock: UKALOJ_clean_sbu_0, # of connection points: 6
#     Node 2, Type 0, BuildingBlock: UKALOJ_clean_sbu_0, # of connection points: 6
#     Edge 3, Type (0, 0), BuildingBlock: FUNLAD_clean_linker_1, # of connection points: 2
#     Edge 4, Type (0, 0), BuildingBlock: FUNLAD_clean_linker_1, # of connection points: 2
#     Edge 5, Type (0, 0), BuildingBlock: FUNLAD_clean_linker_1, # of connection points: 2
#     Edge 6, Type (0, 0), BuildingBlock: FUNLAD_clean_linker_1, # of connection points: 2
#     Edge 7, Type (0, 0), BuildingBlock: FUNLAD_clean_linker_1, # of connection points: 2
#     Edge 8, Type (0, 0), BuildingBlock: FUNLAD_clean_linker_1, # of connection points: 2
#     Edge 9, Type (0, 0), BuildingBlock: FUNLAD_clean_linker_1, # of connection points: 2
#     Edge 10, Type (0, 0), BuildingBlock: FUNLAD_clean_linker_1, # of connection points: 2
#     Edge 11, Type (0, 0), BuildingBlock: FUNLAD_clean_linker_1, # of connection points: 2
# Relax obj value: 0.292
# Max RMSD: 0.254
# Mean RMSD: 0.252
data_MOF--net-qtz-x--node1-UKALOJ_clean_sbu_0--edge1-FUNLAD_clean_linker_1
_symmetry_space_group_name_H-M    P1
_symmetry_Int_Tables_number       1
_symmetry_cell_setting            triclinic
loop_
_symmetry_equiv_pos_as_xyz
'x, y, z'
_cell_length_a     20.442129
_cell_length_b     20.634648
_cell_length_c     34.12903
_cell_angle_alpha  93.492779
_cell_angle_beta   93.949858
_cell_angle_gamma 119.69707
loop_
_atom_site_label
_atom_site_type_symbol
_atom_site_fract_x
_atom_site_fract_y
_atom_site_fract_z
_atom_type_partial_charge
Zn0 Zn 0.00795 0.52673 0.19321 0.0
O1 O 0.0832 0.56332 0.14797 0.0
C2 C 0.88209 0.43124 0.1315 0.0
Zn3 Zn 0.99456 0.41403 0.18581 0.0
C4 C 0.10196 0.51745 0.13338 0.0
O5 O 0.0743 0.45266 0.14487 0.0
C6 C 0.90079 0.4206 0.24591 0.0
O7 O 0.08499 0.44432 0.23244 0.0
O8 O 0.10188 0.55797 0.23495 0.0
N9 N 0.98064 0.31069 0.17406 0.0
C10 C 0.98485 0.26221 0.1973 0.0
C11 C 0.96329 0.2133 0.13764 0.0
N12 N 0.96684 0.28008 0.13702 0.0
N13 N 0.97457 0.20097 0.17516 0.0
C14 C 0.0199 0.68015 0.18296 0.0
C15 C 0.04374 0.72819 0.24292 0.0
N16 N 0.0231 0.63042 0.20556 0.0
N17 N 0.0383 0.66049 0.24279 0.0
N18 N 0.03232 0.74166 0.20567 0.0
H19 H 0.04853 0.71743 0.12615 0.0
H20 H 0.9492 0.66657 0.13056 0.0
H21 H 0.00081 0.61674 0.12603 0.0
C22 C 0.00372 0.66872 0.13883 0.0
C23 C 0.00028 0.27501 0.24151 0.0
H24 H 0.06007 0.29086 0.25023 0.0
H25 H 0.96337 0.22253 0.25444 0.0
H26 H 0.99057 0.31993 0.25382 0.0
O27 O 0.91455 0.37487 0.22677 0.0
O28 O 0.93296 0.48864 0.23857 0.0
C29 C 0.12209 0.51282 0.24682 0.0
O30 O 0.91356 0.49557 0.15118 0.0
O31 O 0.90558 0.38616 0.13901 0.0
Zn32 Zn 0.62664 0.01465 0.53146 0.0
O33 O 0.59479 0.92284 0.48588 0.0
C34 C 0.6405 0.11214 0.47048 0.0
Zn35 Zn 0.51652 0.01052 0.5191 0.0
C36 C 0.52731 0.89214 0.46881 0.0
O37 O 0.48515 0.91836 0.47774 0.0
C38 C 0.61012 0.13103 0.58224 0.0
O39 O 0.46529 0.93349 0.56284 0.0
O40 O 0.57441 0.93689 0.57141 0.0
N41 N 0.41784 0.00668 0.50028 0.0
C42 C 0.36559 0.01488 0.51857 0.0
C43 C 0.33051 0.9954 0.45662 0.0
N44 N 0.39596 0.9948 0.46185 0.0
N45 N 0.31032 0.00857 0.49159 0.0
C46 C 0.7834 0.02166 0.53208 0.0
C47 C 0.80925 0.02254 0.59379 0.0
N48 N 0.72583 0.01923 0.55025 0.0
N49 N 0.74223 0.02003 0.58854 0.0
N50 N 0.83688 0.02437 0.55899 0.0
H51 H 0.72765 -0.00242 0.47247 0.0
H52 H 0.80537 0.97942 0.47829 0.0
H53 H 0.82296 0.07436 0.47993 0.0
C54 C 0.78451 0.01749 0.48815 0.0
C55 C 0.36777 0.02551 0.56258 0.0
H56 H 0.40726 0.01075 0.57784 0.0
H57 H 0.31036 0.99064 0.57164 0.0
H58 H 0.38795 0.08539 0.57213 0.0
O59 O 0.54686 0.10201 0.56094 0.0
O60 O 0.65462 0.10563 0.57667 0.0
C61 C 0.50739 0.91187 0.57997 0.0
O62 O 0.67932 0.09187 0.49144 0.0
O63 O 0.57099 0.08695 0.47525 0.0
Zn64 Zn 0.52322 0.55312 0.85473 0.0
O65 O 0.55794 0.50344 0.80935 0.0
C66 C 0.42334 0.57118 0.79531 0.0
Zn67 Zn 0.40843 0.45432 0.84873 0.0
C68 C 0.50958 0.4371 0.79424 0.0
O69 O 0.44414 0.40464 0.80571 0.0
C70 C 0.41935 0.56681 0.90956 0.0
O71 O 0.44151 0.40415 0.89408 0.0
O72 O 0.55595 0.50105 0.8965 0.0
N73 N 0.30359 0.3637 0.8378 0.0
C74 C 0.25668 0.31496 0.86109 0.0
C75 C 0.20319 0.27806 0.80186 0.0
N76 N 0.27011 0.341 0.80105 0.0
N77 N 0.19359 0.26054 0.83922 0.0
C78 C 0.67566 0.69257 0.84319 0.0
C79 C 0.72946 0.72656 0.90244 0.0
N80 N 0.62834 0.64317 0.86607 0.0
N81 N 0.66198 0.66408 0.90282 0.0
N82 N 0.73924 0.74558 0.86534 0.0
H83 H 0.61359 0.63354 0.78643 0.0
H84 H 0.71122 0.70444 0.78494 0.0
H85 H 0.6422 0.7318 0.79345 0.0
C86 C 0.6594 0.68977 0.79943 0.0
C87 C 0.27291 0.31974 0.90501 0.0
H88 H 0.29358 0.28059 0.91176 0.0
H89 H 0.22039 0.30266 0.91925 0.0
H90 H 0.3163 0.37722 0.91768 0.0
O91 O 0.3724 0.50301 0.8913 0.0
O92 O 0.48697 0.6011 0.90063 0.0
C93 C 0.51079 0.4389 0.90845 0.0
O94 O 0.49054 0.60597 0.81268 0.0
O95 O 0.37712 0.50617 0.80411 0.0
H96 H 0.01313 0.80531 0.16212 0.0
C97 C 0.02798 0.8047 0.19326 0.0
H98 H 0.05037 0.86066 0.25074 0.0
H99 H 0.08797 0.11428 0.12787 0.0
H100 H 0.20035 0.11208 0.11125 0.0
H101 H 0.23412 0.02321 0.13864 0.0
H102 H 0.15547 0.93587 0.18268 0.0
C103 C 0.03815 0.86108 0.21931 0.0
C104 C 0.02304 0.91984 0.20614 0.0
C105 C 0.07038 0.9711 0.1809 0.0
C106 C 0.05157 0.02295 0.16564 0.0
C107 C 0.09955 0.07357 0.14036 0.0
C108 C 0.16435 0.07302 0.13061 0.0
C109 C 0.1833 0.02293 0.14598 0.0
C110 C 0.1373 0.97268 0.17099 0.0
H111 H 0.99667 0.14006 0.21939 0.0
C112 C 0.9808 0.13928 0.18822 0.0
H113 H 0.95747 0.08125 0.13122 0.0
H114 H 0.92165 0.82995 0.25476 0.0
H115 H 0.80941 0.83231 0.27147 0.0
H116 H 0.77577 0.92133 0.24417 0.0
H117 H 0.85436 0.00862 0.20011 0.0
C118 C 0.9707 0.08227 0.1627 0.0
C119 C 0.98654 0.02431 0.17642 0.0
C120 C 0.93934 0.97324 0.20177 0.0
C121 C 0.95813 0.92135 0.21701 0.0
C122 C 0.91013 0.87073 0.2423 0.0
C123 C 0.8454 0.87136 0.2521 0.0
C124 C 0.82652 0.92153 0.23678 0.0
C125 C 0.8725 0.97175 0.21175 0.0
H126 H 0.19546 0.98039 0.47123 0.0
C127 C 0.24076 0.00866 0.4955 0.0
H128 H 0.27653 0.08031 0.54892 0.0
H129 H 0.04143 0.19039 0.52795 0.0
H130 H 0.16148 0.30605 0.5306 0.0
H131 H 0.28127 0.30436 0.53056 0.0
H132 H 0.28183 0.18713 0.52849 0.0
C133 C 0.2305 0.04541 0.52612 0.0
C134 C 0.15814 0.04618 0.52701 0.0
C135 C 0.1588 0.11529 0.52733 0.0
C136 C 0.08953 0.11612 0.52627 0.0
C137 C 0.09207 0.18614 0.52791 0.0
C138 C 0.16069 0.25311 0.52951 0.0
C139 C 0.22813 0.25217 0.52955 0.0
C140 C 0.22758 0.18432 0.52844 0.0
H141 H 0.92542 0.00052 0.57823 0.0
C142 C 0.90532 0.02218 0.55488 0.0
H143 H 0.93387 0.07797 0.50349 0.0
H144 H 0.13683 0.90512 0.53376 0.0
H145 H 0.01649 0.78868 0.52622 0.0
H146 H 0.8961 0.7888 0.51441 0.0
H147 H 0.89552 0.90558 0.51159 0.0
C148 C 0.94771 0.04922 0.52516 0.0
C149 C 0.01965 0.04773 0.52392 0.0
C150 C 0.0189 0.97845 0.52231 0.0
C151 C 0.08828 0.97793 0.52584 0.0
C152 C 0.08591 0.90851 0.52843 0.0
C153 C 0.01715 0.84123 0.52456 0.0
C154 C 0.9494 0.84132 0.51815 0.0
C155 C 0.9499 0.90891 0.51699 0.0
H156 H 0.79722 0.82374 0.82263 0.0
C157 C 0.8005 0.81175 0.85305 0.0
H158 H 0.8634 0.85185 0.90958 0.0
H159 H 0.1038 0.05711 0.78507 0.0
H160 H 0.10096 0.94235 0.76161 0.0
H161 H 0.0151 0.82241 0.78654 0.0
H162 H 0.93146 0.81664 0.83499 0.0
C163 C 0.85988 0.86106 0.8787 0.0
C164 C 0.91677 0.93362 0.86651 0.0
C165 C 0.96579 0.93587 0.83856 0.0
C166 C 0.01587 0.00502 0.82465 0.0
C167 C 0.06441 0.00601 0.79667 0.0
C168 C 0.06349 0.94054 0.78298 0.0
C169 C 0.0151 0.87302 0.79697 0.0
C170 C 0.96695 0.87041 0.82457 0.0
H171 H 0.13706 0.18328 0.88256 0.0
C172 C 0.13315 0.19438 0.85201 0.0
H173 H 0.06966 0.15239 0.79571 0.0
H174 H 0.83123 0.94822 0.92116 0.0
H175 H 0.83425 0.06301 0.94477 0.0
H176 H 0.91982 0.18291 0.91972 0.0
H177 H 0.00302 0.18864 0.87104 0.0
C178 C 0.07376 0.14405 0.82669 0.0
C179 C 0.01766 0.07164 0.83939 0.0
C180 C 0.96882 0.06943 0.86746 0.0
C181 C 0.9188 0.00028 0.8814 0.0
C182 C 0.87049 -0.00069 0.90951 0.0
C183 C 0.87152 0.06479 0.92328 0.0
C184 C 0.91976 0.1323 0.90923 0.0
C185 C 0.96768 0.13488 0.8815 0.0
H186 H 0.43561 0.65585 0.95564 0.0
C187 C 0.39607 0.59938 0.94183 0.0
H188 H 0.28843 0.50293 0.94097 0.0
H189 H 0.31284 0.63645 0.12406 0.0
H190 H 0.42968 0.63321 0.1366 0.0
H191 H 0.48789 0.60604 0.08166 0.0
H192 H 0.431 0.5835 1.0141 0.0
C193 C 0.32845 0.55883 0.95537 0.0
C194 C 0.30219 0.58713 0.98855 0.0
C195 C 0.33611 0.59886 0.02801 0.0
C196 C 0.30087 0.61125 0.05993 0.0
C197 C 0.33629 0.62444 0.09899 0.0
C198 C 0.40338 0.62309 0.10654 0.0
C199 C 0.43627 0.60803 0.07559 0.0
C200 C 0.40312 0.59563 0.03678 0.0
H201 H 0.169 0.4939 0.09364 0.0
C202 C 0.15463 0.53621 0.10304 0.0
H203 H 0.16742 0.64183 0.09291 0.0
H204 H 0.22879 0.57817 0.91663 0.0
H205 H 0.11238 0.58217 0.90471 0.0
H206 H 0.04905 0.59869 0.96031 0.0
H207 H 0.10198 0.61184 0.02818 0.0
C208 C 0.18314 0.59979 0.08553 0.0
C209 C 0.23031 0.6084 0.05258 0.0
C210 C 0.19968 0.6026 1.01319 0.0
C211 C 0.23572 0.59209 0.98116 0.0
C212 C 0.20309 0.58512 0.94205 0.0
C213 C 0.1365 0.58761 0.93481 0.0
C214 C 0.10088 0.59698 0.96611 0.0
C215 C 0.13178 0.60433 1.00491 0.0
H216 H 0.73555 0.17716 0.43684 0.0
C217 C 0.67728 0.16216 0.44006 0.0
H218 H 0.58383 0.17139 0.41739 0.0
H219 H 0.91039 0.42371 0.35045 0.0
H220 H 0.94979 0.48147 0.41804 0.0
H221 H 0.86596 0.4283 0.47006 0.0
H222 H 0.74272 0.31549 0.45472 0.0
C223 C 0.64275 0.18753 0.41561 0.0
C224 C 0.68285 0.23139 0.38304 0.0
C225 C 0.75238 0.3002 0.3918 0.0
C226 C 0.79876 0.33331 0.3613 0.0
C227 C 0.87099 0.39804 0.3718 0.0
C228 C 0.89468 0.4316 0.41067 0.0
C229 C 0.84764 0.4015 0.43999 0.0
C230 C 0.77735 0.33651 0.43085 0.0
H231 H 0.8339 0.43413 0.29086 0.0
C232 C 0.84941 0.3955 0.27714 0.0
H233 H 0.83866 0.28828 0.27559 0.0
H234 H 0.54828 0.1049 0.35526 0.0
H235 H 0.50338 0.0527 0.28684 0.0
H236 H 0.5802 0.11385 0.23348 0.0
H237 H 0.70284 0.22729 0.24828 0.0
C238 C 0.82431 0.32744 0.28983 0.0
C239 C 0.77315 0.29997 0.32156 0.0
C240 C 0.70045 0.23497 0.31242 0.0
C241 C 0.65547 0.20043 0.34315 0.0
C242 C 0.58447 0.13396 0.33314 0.0
C243 C 0.55795 0.10334 0.29394 0.0
C244 C 0.60124 0.13771 0.2639 0.0
C245 C 0.67168 0.20267 0.27284 0.0
H246 H 0.34068 0.5735 0.75077 0.0
C247 C 0.39895 0.60482 0.76458 0.0
H248 H 0.50493 0.7039 0.767 0.0
H249 H 0.36516 0.70389 0.58678 0.0
H250 H 0.35525 0.58255 0.57107 0.0
H251 H 0.37985 0.51753 0.62346 0.0
H252 H 0.4129 0.57216 0.69162 0.0
C253 C 0.44726 0.67131 0.75249 0.0
C254 C 0.42457 0.7054 0.72072 0.0
C255 C 0.4065 0.67265 0.68081 0.0
C256 C 0.39564 0.71158 0.65026 0.0
C257 C 0.37617 0.67739 0.61079 0.0
C258 C 0.37 0.6078 0.60144 0.0
C259 C 0.38359 0.57109 0.63096 0.0
C260 C 0.40199 0.60298 0.67015 0.0
H261 H 0.52081 0.8378 0.61849 0.0
C262 C 0.48221 0.85758 0.60943 0.0
H263 H 0.38057 0.85535 0.62061 0.0
H264 H 0.44914 0.77984 0.79413 0.0
H265 H 0.46022 0.90173 0.809 0.0
H266 H 0.44649 0.97098 0.75557 0.0
H267 H 0.42077 0.91837 0.6869 0.0
C268 C 0.41879 0.83407 0.62709 0.0
C269 C 0.40655 0.78452 0.65925 0.0
C270 C 0.41967 0.815 0.69919 0.0
C271 C 0.4286 0.77541 0.72995 0.0
C272 C 0.44293 0.80793 0.76958 0.0
C273 C 0.44918 0.87772 0.77853 0.0
C274 C 0.44139 0.9167 0.74845 0.0
C275 C 0.42684 0.88599 0.70918 0.0
H276 H 0.5022 0.38705 0.96423 0.0
C277 C 0.53878 0.41264 0.94147 0.0
H278 H 0.64654 0.45519 0.92242 0.0
H279 H 0.86422 0.58196 0.07568 0.0
H280 H 0.89657 0.6928 0.0428 0.0
H281 H 0.81606 0.6874 0.98399 0.0
H282 H 0.70407 0.57099 0.95742 0.0
C283 C 0.61189 0.4301 0.94601 0.0
C284 C 0.65291 0.43299 0.98466 0.0
C285 C 0.71643 0.50269 1.00109 0.0
C286 C 0.76069 0.50675 0.03618 0.0
C287 C 0.82659 0.57616 0.05022 0.0
C288 C 0.84623 0.64031 0.03142 0.0
C289 C 0.80113 0.63719 0.99826 0.0
C290 C 0.73706 0.56954 0.98316 0.0
H291 H 0.81342 0.36739 0.07516 0.0
C292 C 0.82321 0.41131 0.09798 0.0
H293 H 0.79632 0.49334 0.11683 0.0
H294 H 0.54031 0.28892 0.9595 0.0
H295 H 0.5017 0.18029 0.99555 0.0
H296 H 0.56815 0.1911 0.06086 0.0
H297 H 0.67511 0.31008 0.08994 0.0
C298 C 0.78567 0.44919 0.09392 0.0
C299 C 0.7393 0.44214 0.0563 0.0
C300 C 0.67389 0.37309 0.04083 0.0
C301 C 0.63231 0.36791 1.00427 0.0
C302 C 0.57132 0.29697 0.98802 0.0
C303 C 0.54891 0.23399 1.00828 0.0
C304 C 0.58655 0.23999 0.04498 0.0
C305 C 0.64829 0.30856 0.06121 0.0
H306 H 0.18244 0.50236 0.30055 0.0
C307 C 0.18466 0.54014 0.27919 0.0
H308 H 0.23929 0.64975 0.26279 0.0
H309 H 0.34329 0.83935 0.42469 0.0
H310 H 0.24081 0.85732 0.39927 0.0
H311 H 0.15591 0.78049 0.33955 0.0
H312 H 0.17347 0.68568 0.30476 0.0
C313 C 0.23842 0.6133 0.28472 0.0
C314 C 0.28487 0.65142 0.32343 0.0
C315 C 0.27251 0.70533 0.34427 0.0
C316 C 0.31988 0.74779 0.37949 0.0
C317 C 0.3078 0.80347 0.39856 0.0
C318 C 0.24934 0.81491 0.38415 0.0
C319 C 0.20167 0.77182 0.35049 0.0
C320 C 0.2128 0.71772 0.33068 0.0
H321 H 0.53191 0.83309 0.41347 0.0
C322 C 0.49718 0.82957 0.43684 0.0
H323 H 0.39059 0.77519 0.45758 0.0
H324 H 0.32668 0.55574 0.28987 0.0
H325 H 0.42518 0.53256 0.31711 0.0
H326 H 0.50123 0.59945 0.38078 0.0
H327 H 0.48034 0.69106 0.41731 0.0
C328 C 0.42311 0.77687 0.43333 0.0
C329 C 0.37829 0.73473 0.39479 0.0
C330 C 0.38962 0.67964 0.37446 0.0
C331 C 0.34369 0.63885 0.33836 0.0
C332 C 0.35842 0.58664 0.31785 0.0
C333 C 0.41492 0.573 0.3331 0.0
C334 C 0.45789 0.61082 0.36892 0.0
C335 C 0.44557 0.66351 0.38952 0.0
H336 H 0.48135 0.33926 0.75264 0.0
C337 C 0.52679 0.39546 0.76386 0.0
H338 H 0.64004 0.47872 0.7594 0.0
H339 H 0.57779 0.14173 0.68185 0.0
H340 H 0.5752 0.11294 0.74962 0.0
H341 H 0.58975 0.20492 0.80414 0.0
H342 H 0.60535 0.32583 0.79094 0.0
C343 C 0.59415 0.42202 0.74974 0.0
C344 C 0.60444 0.37497 0.71844 0.0
C345 C 0.59988 0.30634 0.72674 0.0
C346 C 0.59493 0.25468 0.69541 0.0
C347 C 0.58463 0.18432 0.70444 0.0
C348 C 0.58266 0.16684 0.74329 0.0
C349 C 0.59059 0.2185 0.77397 0.0
C350 C 0.59904 0.28747 0.76597 0.0
H351 H 0.68381 0.21395 0.63299 0.0
C352 C 0.63024 0.19143 0.61442 0.0
H353 H 0.52927 0.19508 0.60321 0.0
H354 H 0.62148 0.50499 0.69296 0.0
H355 H 0.63068 0.537 0.62551 0.0
H356 H 0.62647 0.44949 0.57147 0.0
H357 H 0.61264 0.32917 0.58449 0.0
C358 C 0.58204 0.216 0.62227 0.0
C359 C 0.59795 0.27326 0.65595 0.0
C360 C 0.60799 0.34417 0.6481 0.0
C361 C 0.61125 0.39505 0.67935 0.0
C362 C 0.61911 0.46449 0.67039 0.0
C363 C 0.6245 0.48358 0.63181 0.0
C364 C 0.62206 0.43427 0.60137 0.0
C365 C 0.61389 0.36533 0.60923 0.0
loop_
_geom_bond_atom_site_label_1
_geom_bond_atom_site_label_2
_geom_bond_distance
_geom_bond_site_symmetry_2
_ccdc_geom_bond_type
Zn0 O1 2.055 . S
Zn0 O8 2.046 . S
Zn0 N16 2.036 . S
Zn0 O28 2.053 1_455 S
Zn0 O30 2.066 1_455 S
O1 Zn0 2.055 . S
O1 C4 1.259 . S
C2 O30 1.256 . S
C2 O31 1.244 . S
Zn3 O5 2.046 . S
Zn3 O7 2.055 . S
Zn3 N9 2.036 . S
Zn3 O27 2.066 1_455 S
Zn3 O31 2.053 1_455 S
C4 O1 1.259 . S
C4 O5 1.254 . S
O5 Zn3 2.046 . S
O5 C4 1.254 . S
C6 O27 1.256 . S
C6 O28 1.244 . S
O7 Zn3 2.055 . S
O7 C29 1.259 . S
O8 Zn0 2.046 . S
O8 C29 1.254 . S
N9 Zn3 2.036 . S
N9 C10 1.298 . S
N9 N12 1.398 1_455 S
C10 N9 1.298 . S
C10 N13 1.367 1_455 S
C10 C23 1.481 . S
C11 N12 1.299 . S
C11 N13 1.379 . S
N12 N9 1.398 1_655 S
N12 C11 1.299 . S
N13 C10 1.367 1_655 S
N13 C11 1.379 . S
C14 N16 1.298 . S
C14 N18 1.367 1_455 S
C14 C22 1.481 . S
C15 N17 1.299 . S
C15 N18 1.379 . S
N16 Zn0 2.036 . S
N16 C14 1.298 . S
N16 N17 1.398 1_455 S
N17 C15 1.299 . S
N17 N16 1.398 1_655 S
N18 C14 1.367 1_655 S
N18 C15 1.379 . S
H19 C22 0.980 . S
H20 C22 0.981 . S
H21 C22 0.981 1_655 S
C22 C14 1.481 . S
C22 H19 0.980 . S
C22 H20 0.981 . S
C22 H21 0.981 1_455 S
C23 C10 1.481 . S
C23 H24 0.980 . S
C23 H25 0.981 . S
C23 H26 0.981 . S
H24 C23 0.980 . S
H25 C23 0.981 . S
H26 C23 0.981 . S
O27 Zn3 2.066 1_655 S
O27 C6 1.256 . S
O28 Zn0 2.053 1_655 S
O28 C6 1.244 . S
C29 O7 1.259 . S
C29 O8 1.254 . S
O30 Zn0 2.066 1_655 S
O30 C2 1.256 . S
O31 C2 1.244 . S
O31 Zn3 2.053 1_655 S
Zn32 O33 2.055 1_545 S
Zn32 O40 2.046 1_545 S
Zn32 N48 2.036 . S
Zn32 O60 2.053 . S
Zn32 O62 2.066 . S
O33 Zn32 2.055 1_565 S
O33 C36 1.259 . S
C34 O62 1.256 . S
C34 O63 1.244 . S
Zn35 O37 2.036 1_545 S
Zn35 O39 2.047 1_545 S
Zn35 N41 2.044 . S
Zn35 O59 2.074 . S
Zn35 O63 2.058 . S
C36 O33 1.259 . S
C36 O37 1.254 . S
O37 Zn35 2.036 1_565 S
O37 C36 1.254 . S
C38 O59 1.256 . S
C38 O60 1.244 . S
O39 Zn35 2.047 1_565 S
O39 C61 1.259 . S
O40 Zn32 2.046 1_565 S
O40 C61 1.254 . S
N41 Zn35 2.044 . S
N41 C42 1.298 . S
N41 N44 1.398 . S
C42 N41 1.298 . S
C42 N45 1.367 . S
C42 C55 1.481 1_545 S
C43 N44 1.299 . S
C43 N45 1.379 . S
N44 N41 1.398 . S
N44 C43 1.299 . S
N45 C42 1.367 . S
N45 C43 1.379 . S
C46 N48 1.298 . S
C46 N50 1.367 . S
C46 C54 1.481 1_545 S
C47 N49 1.299 . S
C47 N50 1.379 . S
N48 Zn32 2.036 . S
N48 C46 1.298 . S
N48 N49 1.398 . S
N49 C47 1.299 . S
N49 N48 1.398 . S
N50 C46 1.367 . S
N50 C47 1.379 . S
H51 C54 0.980 . S
H52 C54 0.981 . S
H53 C54 0.981 1_545 S
C54 C46 1.481 1_565 S
C54 H51 0.980 . S
C54 H52 0.981 . S
C54 H53 0.981 1_565 S
C55 C42 1.481 1_565 S
C55 H56 0.980 . S
C55 H57 0.981 . S
C55 H58 0.981 1_565 S
H56 C55 0.980 . S
H57 C55 0.981 . S
H58 C55 0.981 1_545 S
O59 Zn35 2.074 . S
O59 C38 1.256 . S
O60 Zn32 2.053 . S
O60 C38 1.244 . S
C61 O39 1.259 . S
C61 O40 1.254 . S
O62 Zn32 2.066 . S
O62 C34 1.256 . S
O63 C34 1.244 . S
O63 Zn35 2.058 . S
Zn64 O65 2.055 . S
Zn64 O72 2.046 . S
Zn64 N80 2.036 . S
Zn64 O92 2.053 . S
Zn64 O94 2.066 . S
O65 Zn64 2.055 . S
O65 C68 1.259 . S
C66 O94 1.256 . S
C66 O95 1.244 . S
Zn67 O69 2.046 . S
Zn67 O71 2.055 . S
Zn67 N73 2.036 . S
Zn67 O91 2.066 . S
Zn67 O95 2.053 . S
C68 O65 1.259 . S
C68 O69 1.254 . S
O69 Zn67 2.046 . S
O69 C68 1.254 . S
C70 O91 1.256 . S
C70 O92 1.244 . S
O71 Zn67 2.055 . S
O71 C93 1.259 . S
O72 Zn64 2.046 . S
O72 C93 1.254 . S
N73 Zn67 2.036 . S
N73 C74 1.298 . S
N73 N76 1.398 . S
C74 N73 1.298 . S
C74 N77 1.367 . S
C74 C87 1.481 . S
C75 N76 1.299 . S
C75 N77 1.379 . S
N76 N73 1.398 . S
N76 C75 1.299 . S
N77 C74 1.367 . S
N77 C75 1.379 . S
C78 N80 1.298 . S
C78 N82 1.367 . S
C78 C86 1.481 . S
C79 N81 1.299 . S
C79 N82 1.379 . S
N80 Zn64 2.036 . S
N80 C78 1.298 . S
N80 N81 1.398 . S
N81 C79 1.299 . S
N81 N80 1.398 . S
N82 C78 1.367 . S
N82 C79 1.379 . S
H83 C86 0.980 . S
H84 C86 0.981 . S
H85 C86 0.981 . S
C86 C78 1.481 . S
C86 H83 0.980 . S
C86 H84 0.981 . S
C86 H85 0.981 . S
C87 C74 1.481 . S
C87 H88 0.980 . S
C87 H89 0.981 . S
C87 H90 0.981 . S
H88 C87 0.980 . S
H89 C87 0.981 . S
H90 C87 0.981 . S
O91 Zn67 2.066 . S
O91 C70 1.256 . S
O92 Zn64 2.053 . S
O92 C70 1.244 . S
C93 O71 1.259 . S
C93 O72 1.254 . S
O94 Zn64 2.066 . S
O94 C66 1.256 . S
O95 C66 1.244 . S
O95 Zn67 2.053 . S
H96 C97 0.951 . S
C97 H96 0.951 . S
C97 C103 1.265 1_655 S
H98 C103 0.950 . S
H99 C107 0.949 . S
H100 C108 0.950 . S
H101 C109 0.951 . S
H102 C110 0.951 . S
C103 C97 1.265 1_455 S
C103 H98 0.950 . S
C103 C104 1.472 1_455 S
C104 C103 1.472 1_655 S
C104 C105 1.396 1_655 S
C104 C121 1.400 . S
C105 C104 1.396 1_455 S
C105 C106 1.438 1_565 S
C105 C110 1.429 . S
C106 C105 1.438 1_545 S
C106 C107 1.428 . S
C106 C119 1.394 1_455 S
C107 H99 0.949 . S
C107 C106 1.428 . S
C107 C108 1.345 . S
C108 H100 0.950 . S
C108 C107 1.345 . S
C108 C109 1.424 . S
C109 H101 0.951 . S
C109 C108 1.424 . S
C109 C110 1.347 1_545 S
C110 H102 0.951 . S
C110 C105 1.429 . S
C110 C109 1.347 1_565 S
H111 C112 0.951 1_455 S
C112 H111 0.951 1_655 S
C112 C118 1.265 . S
H113 C118 0.950 . S
H114 C122 0.949 . S
H115 C123 0.950 . S
H116 C124 0.951 . S
H117 C125 0.951 1_545 S
C118 C112 1.265 . S
C118 H113 0.950 . S
C118 C119 1.478 . S
C119 C106 1.394 1_655 S
C119 C118 1.478 . S
C119 C120 1.397 1_545 S
C120 C119 1.397 1_565 S
C120 C121 1.438 . S
C120 C125 1.429 . S
C121 C104 1.400 . S
C121 C120 1.438 . S
C121 C122 1.428 . S
C122 H114 0.949 . S
C122 C121 1.428 . S
C122 C123 1.345 . S
C123 H115 0.950 . S
C123 C122 1.345 . S
C123 C124 1.424 . S
C124 H116 0.951 . S
C124 C123 1.424 . S
C124 C125 1.347 . S
C125 H117 0.951 1_565 S
C125 C120 1.429 . S
C125 C124 1.347 . S
H126 C127 0.951 . S
C127 H126 0.951 . S
C127 C133 1.265 . S
H128 C133 0.950 . S
H129 C137 0.949 1_655 S
H130 C138 0.950 . S
H131 C139 0.951 . S
H132 C140 0.951 . S
C133 C127 1.265 . S
C133 H128 0.950 . S
C133 C134 1.478 . S
C134 C133 1.478 . S
C134 C135 1.397 . S
C134 C151 1.394 1_545 S
C135 C134 1.397 . S
C135 C136 1.438 . S
C135 C140 1.429 . S
C136 C135 1.438 . S
C136 C137 1.428 . S
C136 C149 1.394 1_455 S
C137 H129 0.949 1_455 S
C137 C136 1.428 . S
C137 C138 1.345 . S
C138 H130 0.950 . S
C138 C137 1.345 . S
C138 C139 1.424 . S
C139 H131 0.951 . S
C139 C138 1.424 . S
C139 C140 1.347 . S
C140 H132 0.951 . S
C140 C135 1.429 . S
C140 C139 1.347 . S
H141 C142 0.951 . S
C142 H141 0.951 . S
C142 C148 1.265 . S
H143 C148 0.950 . S
H144 C152 0.949 . S
H145 C153 0.956 . S
H146 C154 0.951 . S
H147 C155 0.951 . S
C148 C142 1.265 . S
C148 H143 0.950 . S
C148 C149 1.478 . S
C149 C136 1.394 1_655 S
C149 C148 1.478 . S
C149 C150 1.397 1_545 S
C150 C149 1.397 1_565 S
C150 C151 1.438 1_655 S
C150 C155 1.429 . S
C151 C134 1.394 1_565 S
C151 C150 1.438 1_455 S
C151 C152 1.428 . S
C152 H144 0.949 . S
C152 C151 1.428 . S
C152 C153 1.349 . S
C153 H145 0.956 . S
C153 C152 1.349 . S
C153 C154 1.413 1_455 S
C154 H146 0.951 . S
C154 C153 1.413 1_655 S
C154 C155 1.347 . S
C155 H147 0.951 . S
C155 C150 1.429 . S
C155 C154 1.347 . S
H156 C157 0.951 . S
C157 H156 0.951 . S
C157 C163 1.265 . S
H158 C163 0.950 . S
H159 C167 0.949 . S
H160 C168 0.950 . S
H161 C169 0.951 . S
H162 C170 0.951 . S
C163 C157 1.265 . S
C163 H158 0.950 . S
C163 C164 1.478 . S
C164 C163 1.478 . S
C164 C165 1.397 . S
C164 C181 1.394 1_565 S
C165 C164 1.397 . S
C165 C166 1.438 1_665 S
C165 C170 1.429 . S
C166 C165 1.438 1_445 S
C166 C167 1.428 . S
C166 C179 1.394 . S
C167 H159 0.949 . S
C167 C166 1.428 . S
C167 C168 1.345 . S
C168 H160 0.950 . S
C168 C167 1.345 . S
C168 C169 1.424 1_445 S
C169 H161 0.951 . S
C169 C168 1.424 1_665 S
C169 C170 1.347 . S
C170 H162 0.951 . S
C170 C165 1.429 . S
C170 C169 1.347 . S
H171 C172 0.951 . S
C172 H171 0.951 . S
C172 C178 1.265 . S
H173 C178 0.950 . S
H174 C182 0.949 . S
H175 C183 0.950 . S
H176 C184 0.951 . S
H177 C185 0.951 . S
C178 C172 1.265 . S
C178 H173 0.950 . S
C178 C179 1.478 . S
C179 C166 1.394 . S
C179 C178 1.478 . S
C179 C180 1.404 . S
C180 C179 1.404 . S
C180 C181 1.433 1_455 S
C180 C185 1.427 . S
C181 C164 1.394 1_545 S
C181 C180 1.433 1_655 S
C181 C182 1.428 1_545 S
C182 H174 0.949 . S
C182 C181 1.428 1_565 S
C182 C183 1.345 1_565 S
C183 H175 0.950 . S
C183 C182 1.345 1_545 S
C183 C184 1.424 . S
C184 H176 0.951 . S
C184 C183 1.424 . S
C184 C185 1.347 1_655 S
C185 H177 0.951 . S
C185 C180 1.427 . S
C185 C184 1.347 1_455 S
H186 C187 0.951 . S
C187 H186 0.951 . S
C187 C193 1.265 . S
H188 C193 0.950 . S
H189 C197 0.949 . S
H190 C198 0.950 . S
H191 C199 0.951 . S
H192 C200 0.951 1_556 S
C193 C187 1.265 . S
C193 H188 0.950 . S
C193 C194 1.478 . S
C194 C193 1.478 . S
C194 C195 1.397 1_556 S
C194 C211 1.394 . S
C195 C194 1.397 1_554 S
C195 C196 1.438 . S
C195 C200 1.429 . S
C196 C195 1.438 . S
C196 C197 1.428 . S
C196 C209 1.394 . S
C197 H189 0.949 . S
C197 C196 1.428 . S
C197 C198 1.345 . S
C198 H190 0.950 . S
C198 C197 1.345 . S
C198 C199 1.424 . S
C199 H191 0.951 . S
C199 C198 1.424 . S
C199 C200 1.347 . S
C200 H192 0.951 1_554 S
C200 C195 1.429 . S
C200 C199 1.347 . S
H201 C202 0.951 . S
C202 H201 0.951 . S
C202 C208 1.265 . S
H203 C208 0.950 . S
H204 C212 0.949 . S
H205 C213 0.950 . S
H206 C214 0.951 . S
H207 C215 0.951 1_554 S
C208 C202 1.265 . S
C208 H203 0.950 . S
C208 C209 1.478 . S
C209 C196 1.394 . S
C209 C208 1.478 . S
C209 C210 1.397 1_554 S
C210 C209 1.397 1_556 S
C210 C211 1.438 . S
C210 C215 1.429 . S
C211 C194 1.394 . S
C211 C210 1.438 . S
C211 C212 1.428 . S
C212 H204 0.949 . S
C212 C211 1.428 . S
C212 C213 1.345 . S
C213 H205 0.950 . S
C213 C212 1.345 . S
C213 C214 1.424 . S
C214 H206 0.951 . S
C214 C213 1.424 . S
C214 C215 1.347 . S
C215 H207 0.951 1_556 S
C215 C210 1.429 . S
C215 C214 1.347 . S
H216 C217 0.951 . S
C217 H216 0.951 . S
C217 C223 1.265 . S
H218 C223 0.950 . S
H219 C227 0.949 . S
H220 C228 0.950 . S
H221 C229 0.951 . S
H222 C230 0.951 . S
C223 C217 1.265 . S
C223 H218 0.950 . S
C223 C224 1.478 . S
C224 C223 1.478 . S
C224 C225 1.397 . S
C224 C241 1.394 . S
C225 C224 1.397 . S
C225 C226 1.438 . S
C225 C230 1.429 . S
C226 C225 1.438 . S
C226 C227 1.428 . S
C226 C239 1.394 . S
C227 H219 0.949 . S
C227 C226 1.428 . S
C227 C228 1.345 . S
C228 H220 0.950 . S
C228 C227 1.345 . S
C228 C229 1.424 . S
C229 H221 0.951 . S
C229 C228 1.424 . S
C229 C230 1.347 . S
C230 H222 0.951 . S
C230 C225 1.429 . S
C230 C229 1.347 . S
H231 C232 0.951 . S
C232 H231 0.951 . S
C232 C238 1.265 . S
H233 C238 0.950 . S
H234 C242 0.949 . S
H235 C243 0.950 . S
H236 C244 0.951 . S
H237 C245 0.951 . S
C238 C232 1.265 . S
C238 H233 0.950 . S
C238 C239 1.478 . S
C239 C226 1.394 . S
C239 C238 1.478 . S
C239 C240 1.397 . S
C240 C239 1.397 . S
C240 C241 1.438 . S
C240 C245 1.429 . S
C241 C224 1.394 . S
C241 C240 1.438 . S
C241 C242 1.428 . S
C242 H234 0.949 . S
C242 C241 1.428 . S
C242 C243 1.345 . S
C243 H235 0.950 . S
C243 C242 1.345 . S
C243 C244 1.424 . S
C244 H236 0.951 . S
C244 C243 1.424 . S
C244 C245 1.347 . S
C245 H237 0.951 . S
C245 C240 1.429 . S
C245 C244 1.347 . S
H246 C247 0.951 . S
C247 H246 0.951 . S
C247 C253 1.265 . S
H248 C253 0.950 . S
H249 C257 0.949 . S
H250 C258 0.950 . S
H251 C259 0.951 . S
H252 C260 0.951 . S
C253 C247 1.265 . S
C253 H248 0.950 . S
C253 C254 1.478 . S
C254 C253 1.478 . S
C254 C255 1.397 . S
C254 C271 1.394 . S
C255 C254 1.397 . S
C255 C256 1.438 . S
C255 C260 1.429 . S
C256 C255 1.438 . S
C256 C257 1.428 . S
C256 C269 1.394 . S
C257 H249 0.949 . S
C257 C256 1.428 . S
C257 C258 1.345 . S
C258 H250 0.950 . S
C258 C257 1.345 . S
C258 C259 1.424 . S
C259 H251 0.951 . S
C259 C258 1.424 . S
C259 C260 1.347 . S
C260 H252 0.951 . S
C260 C255 1.429 . S
C260 C259 1.347 . S
H261 C262 0.951 . S
C262 H261 0.951 . S
C262 C268 1.265 . S
H263 C268 0.950 . S
H264 C272 0.949 . S
H265 C273 0.950 . S
H266 C274 0.951 . S
H267 C275 0.951 . S
C268 C262 1.265 . S
C268 H263 0.950 . S
C268 C269 1.478 . S
C269 C256 1.394 . S
C269 C268 1.478 . S
C269 C270 1.397 . S
C270 C269 1.397 . S
C270 C271 1.438 . S
C270 C275 1.429 . S
C271 C254 1.394 . S
C271 C270 1.438 . S
C271 C272 1.428 . S
C272 H264 0.949 . S
C272 C271 1.428 . S
C272 C273 1.345 . S
C273 H265 0.950 . S
C273 C272 1.345 . S
C273 C274 1.424 . S
C274 H266 0.951 . S
C274 C273 1.424 . S
C274 C275 1.347 . S
C275 H267 0.951 . S
C275 C270 1.429 . S
C275 C274 1.347 . S
H276 C277 0.951 . S
C277 H276 0.951 . S
C277 C283 1.265 . S
H278 C283 0.950 . S
H279 C287 0.949 . S
H280 C288 0.950 . S
H281 C289 0.951 . S
H282 C290 0.951 . S
C283 C277 1.265 . S
C283 H278 0.950 . S
C283 C284 1.478 . S
C284 C283 1.478 . S
C284 C285 1.397 . S
C284 C301 1.394 . S
C285 C284 1.397 . S
C285 C286 1.438 1_556 S
C285 C290 1.429 . S
C286 C285 1.438 1_554 S
C286 C287 1.428 . S
C286 C299 1.394 . S
C287 H279 0.949 . S
C287 C286 1.428 . S
C287 C288 1.345 . S
C288 H280 0.950 . S
C288 C287 1.345 . S
C288 C289 1.424 1_554 S
C289 H281 0.951 . S
C289 C288 1.424 1_556 S
C289 C290 1.347 . S
C290 H282 0.951 . S
C290 C285 1.429 . S
C290 C289 1.347 . S
H291 C292 0.951 . S
C292 H291 0.951 . S
C292 C298 1.265 . S
H293 C298 0.950 . S
H294 C302 0.949 . S
H295 C303 0.950 . S
H296 C304 0.951 . S
H297 C305 0.951 . S
C298 C292 1.265 . S
C298 H293 0.950 . S
C298 C299 1.478 . S
C299 C286 1.394 . S
C299 C298 1.478 . S
C299 C300 1.397 . S
C300 C299 1.397 . S
C300 C301 1.438 1_554 S
C300 C305 1.429 . S
C301 C284 1.394 . S
C301 C300 1.438 1_556 S
C301 C302 1.428 . S
C302 H294 0.949 . S
C302 C301 1.428 . S
C302 C303 1.345 . S
C303 H295 0.950 . S
C303 C302 1.345 . S
C303 C304 1.424 1_556 S
C304 H296 0.951 . S
C304 C303 1.424 1_554 S
C304 C305 1.347 . S
C305 H297 0.951 . S
C305 C300 1.429 . S
C305 C304 1.347 . S
H306 C307 0.951 . S
C307 H306 0.951 . S
C307 C313 1.265 . S
H308 C313 0.950 . S
H309 C317 0.949 . S
H310 C318 0.950 . S
H311 C319 0.951 . S
H312 C320 0.951 . S
C313 C307 1.265 . S
C313 H308 0.950 . S
C313 C314 1.478 . S
C314 C313 1.478 . S
C314 C315 1.397 . S
C314 C331 1.394 . S
C315 C314 1.397 . S
C315 C316 1.438 . S
C315 C320 1.429 . S
C316 C315 1.438 . S
C316 C317 1.428 . S
C316 C329 1.394 . S
C317 H309 0.949 . S
C317 C316 1.428 . S
C317 C318 1.345 . S
C318 H310 0.950 . S
C318 C317 1.345 . S
C318 C319 1.424 . S
C319 H311 0.951 . S
C319 C318 1.424 . S
C319 C320 1.347 . S
C320 H312 0.951 . S
C320 C315 1.429 . S
C320 C319 1.347 . S
H321 C322 0.951 . S
C322 H321 0.951 . S
C322 C328 1.265 . S
H323 C328 0.950 . S
H324 C332 0.949 . S
H325 C333 0.950 . S
H326 C334 0.951 . S
H327 C335 0.951 . S
C328 C322 1.265 . S
C328 H323 0.950 . S
C328 C329 1.478 . S
C329 C316 1.394 . S
C329 C328 1.478 . S
C329 C330 1.397 . S
C330 C329 1.397 . S
C330 C331 1.438 . S
C330 C335 1.429 . S
C331 C314 1.394 . S
C331 C330 1.438 . S
C331 C332 1.428 . S
C332 H324 0.949 . S
C332 C331 1.428 . S
C332 C333 1.345 . S
C333 H325 0.950 . S
C333 C332 1.345 . S
C333 C334 1.424 . S
C334 H326 0.951 . S
C334 C333 1.424 . S
C334 C335 1.347 . S
C335 H327 0.951 . S
C335 C330 1.429 . S
C335 C334 1.347 . S
H336 C337 0.951 . S
C337 H336 0.951 . S
C337 C343 1.265 . S
H338 C343 0.950 . S
H339 C347 0.949 . S
H340 C348 0.950 . S
H341 C349 0.951 . S
H342 C350 0.951 . S
C343 C337 1.265 . S
C343 H338 0.950 . S
C343 C344 1.478 . S
C344 C343 1.478 . S
C344 C345 1.397 . S
C344 C361 1.394 . S
C345 C344 1.397 . S
C345 C346 1.438 . S
C345 C350 1.429 . S
C346 C345 1.438 . S
C346 C347 1.428 . S
C346 C359 1.394 . S
C347 H339 0.949 . S
C347 C346 1.428 . S
C347 C348 1.345 . S
C348 H340 0.950 . S
C348 C347 1.345 . S
C348 C349 1.424 . S
C349 H341 0.951 . S
C349 C348 1.424 . S
C349 C350 1.347 . S
C350 H342 0.951 . S
C350 C345 1.429 . S
C350 C349 1.347 . S
H351 C352 0.951 . S
C352 H351 0.951 . S
C352 C358 1.265 . S
H353 C358 0.950 . S
H354 C362 0.949 . S
H355 C363 0.950 . S
H356 C364 0.951 . S
H357 C365 0.951 . S
C358 C352 1.265 . S
C358 H353 0.950 . S
C358 C359 1.478 . S
C359 C346 1.394 . S
C359 C358 1.478 . S
C359 C360 1.397 . S
C360 C359 1.397 . S
C360 C361 1.438 . S
C360 C365 1.429 . S
C361 C344 1.394 . S
C361 C360 1.438 . S
C361 C362 1.428 . S
C362 H354 0.949 . S
C362 C361 1.428 . S
C362 C363 1.345 . S
C363 H355 0.950 . S
C363 C362 1.345 . S
C363 C364 1.424 . S
C364 H356 0.951 . S
C364 C363 1.424 . S
C364 C365 1.347 . S
C365 H357 0.951 . S
C365 C360 1.429 . S
C365 C364 1.347 . S
C97 N18 0.892 . S
C112 N13 0.864 . S
C127 N45 0.773 . S
C142 N50 0.782 . S
C157 N82 0.858 . S
C172 N77 0.827 . S
C187 C70 1.613 . S
C202 C4 1.606 . S
C217 C34 1.959 . S
C232 C6 1.994 . S
C247 C66 1.636 . S
C262 C61 1.598 . S
C277 C93 1.673 . S
C292 C2 1.659 . S
C307 C29 1.351 . S
C322 C36 1.291 . S
C337 C68 1.637 . S
C352 C38 1.678 . S
