# Generated by pormake.
# Topology yfk, (5)-cn, num edge types: 1
# Building blocks:
#     Node 0, Type 0, BuildingBlock: BEQFEK_clean_sbu_0, # of connection points: 5
#     Node 1, Type 0, BuildingBlock: BEQFEK_clean_sbu_0, # of connection points: 5
#     Node 2, Type 0, BuildingBlock: BEQFEK_clean_sbu_0, # of connection points: 5
#     Node 3, Type 0, BuildingBlock: BEQFEK_clean_sbu_0, # of connection points: 5
#     Node 4, Type 0, BuildingBlock: BEQFEK_clean_sbu_0, # of connection points: 5
#     Node 5, Type 0, BuildingBlock: BEQFEK_clean_sbu_0, # of connection points: 5
#     Node 6, Type 0, BuildingBlock: BEQFEK_clean_sbu_0, # of connection points: 5
#     Node 7, Type 0, BuildingBlock: BEQFEK_clean_sbu_0, # of connection points: 5
#     Node 8, Type 0, BuildingBlock: BEQFEK_clean_sbu_0, # of connection points: 5
#     Node 9, Type 0, BuildingBlock: BEQFEK_clean_sbu_0, # of connection points: 5
#     Node 10, Type 0, BuildingBlock: BEQFEK_clean_sbu_0, # of connection points: 5
#     Node 11, Type 0, BuildingBlock: BEQFEK_clean_sbu_0, # of connection points: 5
#     Node 12, Type 0, BuildingBlock: BEQFEK_clean_sbu_0, # of connection points: 5
#     Node 13, Type 0, BuildingBlock: BEQFEK_clean_sbu_0, # of connection points: 5
#     Node 14, Type 0, BuildingBlock: BEQFEK_clean_sbu_0, # of connection points: 5
#     Node 15, Type 0, BuildingBlock: BEQFEK_clean_sbu_0, # of connection points: 5
#     Edge 16, Type (0, 0), BuildingBlock: CIFDUS_clean_linker_0, # of connection points: 2
#     Edge 17, Type (0, 0), BuildingBlock: CIFDUS_clean_linker_0, # of connection points: 2
#     Edge 18, Type (0, 0), BuildingBlock: CIFDUS_clean_linker_0, # of connection points: 2
#     Edge 19, Type (0, 0), BuildingBlock: CIFDUS_clean_linker_0, # of connection points: 2
#     Edge 20, Type (0, 0), BuildingBlock: CIFDUS_clean_linker_0, # of connection points: 2
#     Edge 21, Type (0, 0), BuildingBlock: CIFDUS_clean_linker_0, # of connection points: 2
#     Edge 22, Type (0, 0), BuildingBlock: CIFDUS_clean_linker_0, # of connection points: 2
#     Edge 23, Type (0, 0), BuildingBlock: CIFDUS_clean_linker_0, # of connection points: 2
#     Edge 24, Type (0, 0), BuildingBlock: CIFDUS_clean_linker_0, # of connection points: 2
#     Edge 25, Type (0, 0), BuildingBlock: CIFDUS_clean_linker_0, # of connection points: 2
#     Edge 26, Type (0, 0), BuildingBlock: CIFDUS_clean_linker_0, # of connection points: 2
#     Edge 27, Type (0, 0), BuildingBlock: CIFDUS_clean_linker_0, # of connection points: 2
#     Edge 28, Type (0, 0), BuildingBlock: CIFDUS_clean_linker_0, # of connection points: 2
#     Edge 29, Type (0, 0), BuildingBlock: CIFDUS_clean_linker_0, # of connection points: 2
#     Edge 30, Type (0, 0), BuildingBlock: CIFDUS_clean_linker_0, # of connection points: 2
#     Edge 31, Type (0, 0), BuildingBlock: CIFDUS_clean_linker_0, # of connection points: 2
#     Edge 32, Type (0, 0), BuildingBlock: CIFDUS_clean_linker_0, # of connection points: 2
#     Edge 33, Type (0, 0), BuildingBlock: CIFDUS_clean_linker_0, # of connection points: 2
#     Edge 34, Type (0, 0), BuildingBlock: CIFDUS_clean_linker_0, # of connection points: 2
#     Edge 35, Type (0, 0), BuildingBlock: CIFDUS_clean_linker_0, # of connection points: 2
#     Edge 36, Type (0, 0), BuildingBlock: CIFDUS_clean_linker_0, # of connection points: 2
#     Edge 37, Type (0, 0), BuildingBlock: CIFDUS_clean_linker_0, # of connection points: 2
#     Edge 38, Type (0, 0), BuildingBlock: CIFDUS_clean_linker_0, # of connection points: 2
#     Edge 39, Type (0, 0), BuildingBlock: CIFDUS_clean_linker_0, # of connection points: 2
#     Edge 40, Type (0, 0), BuildingBlock: CIFDUS_clean_linker_0, # of connection points: 2
#     Edge 41, Type (0, 0), BuildingBlock: CIFDUS_clean_linker_0, # of connection points: 2
#     Edge 42, Type (0, 0), BuildingBlock: CIFDUS_clean_linker_0, # of connection points: 2
#     Edge 43, Type (0, 0), BuildingBlock: CIFDUS_clean_linker_0, # of connection points: 2
#     Edge 44, Type (0, 0), BuildingBlock: CIFDUS_clean_linker_0, # of connection points: 2
#     Edge 45, Type (0, 0), BuildingBlock: CIFDUS_clean_linker_0, # of connection points: 2
#     Edge 46, Type (0, 0), BuildingBlock: CIFDUS_clean_linker_0, # of connection points: 2
#     Edge 47, Type (0, 0), BuildingBlock: CIFDUS_clean_linker_0, # of connection points: 2
#     Edge 48, Type (0, 0), BuildingBlock: CIFDUS_clean_linker_0, # of connection points: 2
#     Edge 49, Type (0, 0), BuildingBlock: CIFDUS_clean_linker_0, # of connection points: 2
#     Edge 50, Type (0, 0), BuildingBlock: CIFDUS_clean_linker_0, # of connection points: 2
#     Edge 51, Type (0, 0), BuildingBlock: CIFDUS_clean_linker_0, # of connection points: 2
#     Edge 52, Type (0, 0), BuildingBlock: CIFDUS_clean_linker_0, # of connection points: 2
#     Edge 53, Type (0, 0), BuildingBlock: CIFDUS_clean_linker_0, # of connection points: 2
#     Edge 54, Type (0, 0), BuildingBlock: CIFDUS_clean_linker_0, # of connection points: 2
#     Edge 55, Type (0, 0), BuildingBlock: CIFDUS_clean_linker_0, # of connection points: 2
# Relax obj value: 0.345
# Max RMSD: 0.209
# Mean RMSD: 0.209
data_MOF--net-yfk--node1-BEQFEK_clean_sbu_0--edge1-CIFDUS_clean_linker_0
_symmetry_space_group_name_H-M    P1
_symmetry_Int_Tables_number       1
_symmetry_cell_setting            triclinic
loop_
_symmetry_equiv_pos_as_xyz
'x, y, z'
_cell_length_a     47.735224
_cell_length_b     47.824289
_cell_length_c     27.261014
_cell_angle_alpha  89.919513
_cell_angle_beta   90.012477
_cell_angle_gamma 89.943091
loop_
_atom_site_label
_atom_site_type_symbol
_atom_site_fract_x
_atom_site_fract_y
_atom_site_fract_z
_atom_type_partial_charge
Co0 Co 0.10493 0.03509 0.31032 0.0
Co1 Co 0.09006 0.09238 0.25953 0.0
C2 C 0.06525 0.0365 0.2256 0.0
O3 O 0.08002 0.02389 0.25749 0.0
O4 O 0.06637 0.06324 0.221 0.0
C5 C 0.12751 0.97881 0.35704 0.0
O6 O 0.14303 0.96714 0.32295 0.0
C7 C 0.08719 0.14216 0.19006 0.0
C8 C 0.08563 0.17582 0.24545 0.0
C9 C 0.08615 0.17129 0.19539 0.0
N10 N 0.08736 0.13038 0.23512 0.0
N11 N 0.08625 0.15079 0.26774 0.0
C12 C 0.08972 0.12578 0.14364 0.0
H13 H 0.09913 0.10496 0.15118 0.0
H14 H 0.10259 0.1373 0.1164 0.0
H15 H 0.06852 0.12252 0.12799 0.0
C16 C 0.16142 0.05672 0.30559 0.0
N17 N 0.13485 0.05746 0.28935 0.0
N18 N 0.12928 0.08236 0.27094 0.0
C19 C 0.15252 0.09839 0.2762 0.0
C20 C 0.17359 0.08266 0.29855 0.0
C21 C 0.17311 0.03349 0.3362 0.0
H22 H 0.16131 0.03216 0.37119 0.0
H23 H 0.17062 0.01353 0.31617 0.0
H24 H 0.19566 0.03664 0.3444 0.0
O25 O 0.0841 0.05615 0.35972 0.0
O26 O 0.07245 0.0962 0.32483 0.0
H27 H 0.14069 0.13971 0.29709 0.0
H28 H 0.17501 0.13733 0.26965 0.0
C29 C 0.15322 0.12929 0.26814 0.0
H30 H 0.14392 0.13438 0.23195 0.0
H31 H 0.08641 0.1477 0.30562 0.0
O32 O 0.11547 0.00206 0.34923 0.0
C33 C 0.07249 0.07997 0.36169 0.0
Co34 Co 0.03481 0.88857 0.6698 0.0
Co35 Co 0.09323 0.90253 0.71619 0.0
C36 C 0.03677 0.92684 0.75392 0.0
O37 O 0.02307 0.91116 0.72498 0.0
O38 O 0.06375 0.92642 0.75461 0.0
C39 C 0.97833 0.86763 0.62512 0.0
O40 O 0.96462 0.85886 0.66397 0.0
C41 C 0.14272 0.903 0.78624 0.0
C42 C 0.17672 0.90836 0.73205 0.0
C43 C 0.17192 0.90499 0.78173 0.0
N44 N 0.1312 0.90511 0.74115 0.0
N45 N 0.1518 0.90842 0.70925 0.0
C46 C 0.1261 0.89725 0.83158 0.0
H47 H 0.10551 0.88798 0.82186 0.0
H48 H 0.13776 0.88298 0.85643 0.0
H49 H 0.12225 0.91723 0.85111 0.0
C50 C 0.05683 0.83195 0.67089 0.0
N51 N 0.058 0.85842 0.6873 0.0
N52 N 0.08326 0.86369 0.70437 0.0
C53 C 0.09919 0.84052 0.69759 0.0
C54 C 0.08294 0.81963 0.676 0.0
C55 C 0.03269 0.82035 0.64244 0.0
H56 H 0.03158 0.83085 0.60616 0.0
H57 H 0.01296 0.82451 0.66256 0.0
H58 H 0.03491 0.79747 0.63675 0.0
O59 O 0.05413 0.91274 0.62228 0.0
O60 O 0.09685 0.92007 0.65093 0.0
H61 H 0.13986 0.85404 0.67542 0.0
H62 H 0.13873 0.81849 0.69804 0.0
C63 C 0.13033 0.83995 0.70312 0.0
H64 H 0.13614 0.84766 0.74008 0.0
H65 H 0.14894 0.91019 0.67143 0.0
O66 O 0.00277 0.87766 0.62937 0.0
C67 C 0.07847 0.92299 0.61776 0.0
Co68 Co 0.89146 0.95215 0.31388 0.0
Co69 Co 0.90419 0.89544 0.25893 0.0
C70 C 0.92806 0.95255 0.22589 0.0
O71 O 0.91417 0.96496 0.25922 0.0
O72 O 0.92676 0.92581 0.22066 0.0
C73 C 0.87355 0.00838 0.35648 0.0
O74 O 0.87048 0.02116 0.31414 0.0
C75 C 0.90169 0.84641 0.18736 0.0
C76 C 0.90995 0.81234 0.24022 0.0
C77 C 0.90411 0.8172 0.19125 0.0
N78 N 0.90578 0.85778 0.23216 0.0
N79 N 0.91077 0.8371 0.2632 0.0
C80 C 0.89637 0.86342 0.1423 0.0
H81 H 0.90359 0.88525 0.14782 0.0
H82 H 0.87352 0.86387 0.13485 0.0
H83 H 0.9072 0.85407 0.11023 0.0
C84 C 0.83483 0.93127 0.31217 0.0
N85 N 0.86102 0.93017 0.29431 0.0
N86 N 0.86572 0.90536 0.27503 0.0
C87 C 0.84248 0.88954 0.28202 0.0
C88 C 0.82225 0.90542 0.30631 0.0
C89 C 0.82357 0.95527 0.34135 0.0
H90 H 0.82864 0.97518 0.32247 0.0
H91 H 0.80052 0.95372 0.34588 0.0
H92 H 0.83352 0.95539 0.37814 0.0
O93 O 0.91496 0.93052 0.35912 0.0
O94 O 0.92389 0.89038 0.32187 0.0
H95 H 0.85654 0.84828 0.29914 0.0
H96 H 0.82017 0.85023 0.28085 0.0
C97 C 0.84148 0.85865 0.27401 0.0
H98 H 0.84777 0.85387 0.23579 0.0
H99 H 0.91425 0.83973 0.30067 0.0
O100 O 0.88075 0.98286 0.35785 0.0
C101 C 0.92611 0.9065 0.35847 0.0
Co102 Co 0.95163 0.10198 0.66132 0.0
Co103 Co 0.89659 0.09041 0.72246 0.0
C104 C 0.95204 0.0642 0.7507 0.0
O105 O 0.96292 0.0773 0.71495 0.0
O106 O 0.92581 0.0666 0.7603 0.0
C107 C 0.00762 0.09886 0.62701 0.0
O108 O 0.01074 0.08236 0.66515 0.0
C109 C 0.84757 0.08619 0.79401 0.0
C110 C 0.81358 0.09488 0.74116 0.0
C111 C 0.8183 0.08906 0.79027 0.0
N112 N 0.859 0.09043 0.74926 0.0
N113 N 0.83839 0.09539 0.71813 0.0
C114 C 0.86448 0.0783 0.83806 0.0
H115 H 0.88569 0.07124 0.82701 0.0
H116 H 0.86681 0.09683 0.86217 0.0
H117 H 0.85388 0.0614 0.85889 0.0
C118 C 0.93352 0.15946 0.66929 0.0
N119 N 0.93143 0.1327 0.68364 0.0
N120 N 0.90812 0.12893 0.70866 0.0
C121 C 0.89464 0.15392 0.71093 0.0
C122 C 0.91017 0.17388 0.68538 0.0
C123 C 0.95624 0.17026 0.6365 0.0
H124 H 0.95357 0.16127 0.59928 0.0
H125 H 0.9769 0.16345 0.6508 0.0
H126 H 0.95587 0.19342 0.63399 0.0
O127 O 0.92841 0.08133 0.61496 0.0
O128 O 0.89056 0.07105 0.65862 0.0
H129 H 0.85019 0.15126 0.70463 0.0
H130 H 0.86223 0.18051 0.74022 0.0
C131 C 0.86601 0.15811 0.73186 0.0
H132 H 0.86353 0.14552 0.76575 0.0
H133 H 0.8413 0.09932 0.68081 0.0
O134 O 0.98475 0.11211 0.6217 0.0
C135 C 0.90456 0.06998 0.61904 0.0
Co136 Co 0.10189 0.44769 0.91377 0.0
Co137 Co 0.08908 0.3902 0.9671 0.0
C138 C 0.06198 0.4463 -0.00242 0.0
O139 O 0.07636 0.45996 0.96625 0.0
O140 O 0.06487 0.41968 0.00254 0.0
C141 C 0.10701 0.50354 0.86912 0.0
O142 O 0.09027 0.51307 0.90352 0.0
C143 C 0.08918 0.34117 0.03885 0.0
C144 C 0.08452 0.30708 0.9849 0.0
C145 C 0.08749 0.31194 0.03463 0.0
N146 N 0.08739 0.35253 -0.00647 0.0
N147 N 0.08454 0.33185 0.96182 0.0
C148 C 0.09161 0.35822 0.08455 0.0
H149 H 0.08463 0.38002 0.0776 0.0
H150 H 0.11387 0.35877 0.09624 0.0
H151 H 0.07895 0.34883 0.11447 0.0
C152 C 0.15896 0.42786 0.92174 0.0
N153 N 0.13213 0.42604 0.93635 0.0
N154 N 0.12746 0.40107 0.95502 0.0
C155 C 0.15136 0.38591 0.95103 0.0
C156 C 0.17206 0.40242 0.92959 0.0
C157 C 0.17052 0.45173 0.8925 0.0
H158 H 0.16252 0.45045 0.85433 0.0
H159 H 0.16363 0.47183 0.90877 0.0
H160 H 0.19376 0.4511 0.89151 0.0
O161 O 0.07994 0.42579 0.8665 0.0
O162 O 0.0709 0.38536 0.90304 0.0
H163 H 0.13962 0.34419 0.93249 0.0
H164 H 0.17492 0.3474 0.95593 0.0
C165 C 0.15306 0.35508 0.95958 0.0
H166 H 0.14516 0.35013 -0.00317 0.0
H167 H 0.08301 0.33454 0.92395 0.0
O168 O 0.11504 0.47827 0.87079 0.0
C169 C 0.06918 0.40157 0.86641 0.0
Co170 Co 0.44948 0.88759 0.05956 0.0
Co171 Co 0.39055 0.89832 0.01115 0.0
C172 C 0.44394 0.92972 0.98005 0.0
O173 O 0.45869 0.9151 0.00922 0.0
O174 O 0.41736 0.92593 0.97655 0.0
C175 C 0.50818 0.86929 0.09762 0.0
O176 O 0.51984 0.86041 0.05688 0.0
C177 C 0.34131 0.8987 0.94003 0.0
C178 C 0.30699 0.8979 -0.00567 0.0
C179 C 0.31199 0.89827 0.94434 0.0
N180 N 0.35261 0.89848 0.98549 0.0
N181 N 0.33179 0.89805 0.01744 0.0
C182 C 0.35843 0.90039 0.89422 0.0
H183 H 0.37981 0.90814 0.90261 0.0
H184 H 0.36032 0.8792 0.87806 0.0
H185 H 0.3482 0.91437 0.86705 0.0
C186 C 0.43276 0.82967 0.05027 0.0
N187 N 0.42979 0.85639 0.03569 0.0
N188 N 0.40433 0.86022 0.01817 0.0
C189 C 0.3902 0.83577 0.02244 0.0
C190 C 0.40766 0.81567 0.04343 0.0
C191 C 0.457 0.81936 0.08006 0.0
H192 H 0.45712 0.83008 0.11613 0.0
H193 H 0.47675 0.82431 0.06062 0.0
H194 H 0.45591 0.79642 0.0861 0.0
O195 O 0.42671 0.90516 0.11142 0.0
O196 O 0.38499 0.91278 0.0784 0.0
H197 H 0.34847 0.84469 0.04573 0.0
H198 H 0.35265 0.81078 0.0176 0.0
C199 C 0.35923 0.83303 0.01607 0.0
H200 H 0.35291 0.84211 0.9803 0.0
H201 H 0.33447 0.89762 0.05541 0.0
O202 O 0.48324 0.8785 0.09753 0.0
C203 C 0.40172 0.914 0.11447 0.0
Co204 Co 0.90087 0.54302 0.90336 0.0
Co205 Co 0.90368 0.59961 0.96049 0.0
C206 C 0.93573 0.54792 -0.00587 0.0
O207 O 0.92402 0.53365 0.96061 0.0
O208 O 0.93047 0.57409 -0.00089 0.0
C209 C 0.89581 0.4832 0.87947 0.0
O210 O 0.90679 0.47679 0.92224 0.0
C211 C 0.90278 0.64804 0.03222 0.0
C212 C 0.89207 0.68193 0.98036 0.0
C213 C 0.89834 0.67704 0.02925 0.0
N214 N 0.89952 0.6369 0.98709 0.0
N215 N 0.893 0.65737 0.9566 0.0
C216 C 0.90859 0.63079 0.07686 0.0
H217 H 0.90224 0.60876 0.07055 0.0
H218 H 0.89721 0.6393 0.10907 0.0
H219 H 0.9314 0.63111 0.08463 0.0
C220 C 0.84216 0.55876 0.89643 0.0
N221 N 0.86733 0.56177 0.91786 0.0
N222 N 0.8672 0.58387 0.94634 0.0
C223 C 0.84093 0.59468 0.94642 0.0
C224 C 0.82394 0.57912 0.91443 0.0
C225 C 0.83805 0.54091 0.85175 0.0
H226 H 0.85763 0.54031 0.82994 0.0
H227 H 0.83276 0.51928 0.86323 0.0
H228 H 0.82136 0.54913 0.82743 0.0
O229 O 0.92301 0.56569 0.85771 0.0
O230 O 0.92231 0.60672 0.89556 0.0
H231 H 0.83598 0.63892 0.95284 0.0
H232 H 0.81023 0.61877 0.98598 0.0
C233 C 0.83266 0.61989 0.9754 0.0
H234 H 0.84573 0.62152 0.00893 0.0
H235 H 0.88934 0.65458 0.91918 0.0
O236 O 0.8922 0.50862 0.86776 0.0
C237 C 0.92923 0.59149 0.85912 0.0
Co238 Co 0.54188 0.09142 0.0753 0.0
Co239 Co 0.5985 0.08801 0.01682 0.0
C240 C 0.54698 0.0541 0.98788 0.0
O241 O 0.53341 0.06554 0.02246 0.0
O242 O 0.57286 0.06001 0.98039 0.0
C243 C 0.4826 0.09094 0.10176 0.0
O244 O 0.47772 0.07688 0.0613 0.0
C245 C 0.64794 0.08472 0.94637 0.0
C246 C 0.67931 0.10602 -0.00733 0.0
C247 C 0.67616 0.09292 0.94776 0.0
N248 N 0.63539 0.09295 0.98839 0.0
N249 N 0.65446 0.10551 0.01568 0.0
C250 C 0.6337 0.06744 0.9081 0.0
H251 H 0.61526 0.0566 0.92375 0.0
H252 H 0.62639 0.08131 0.87805 0.0
H253 H 0.64838 0.05174 0.89268 0.0
C254 C 0.55178 0.15034 0.06888 0.0
N255 N 0.55794 0.12444 0.05372 0.0
N256 N 0.58121 0.12454 0.02783 0.0
C257 C 0.58992 0.15151 0.02401 0.0
C258 C 0.5714 0.16867 0.04988 0.0
C259 C 0.53101 0.15619 0.10897 0.0
H260 H 0.53351 0.14047 0.13856 0.0
H261 H 0.50946 0.15458 0.09401 0.0
H262 H 0.53388 0.17704 0.12587 0.0
O263 O 0.56716 0.07508 0.12294 0.0
O264 O 0.60752 0.07166 0.08301 0.0
H265 H 0.63366 0.16057 0.02403 0.0
H266 H 0.6133 0.18247 0.98408 0.0
C267 C 0.61583 0.16077 -0.00206 0.0
H268 H 0.62057 0.14652 0.96698 0.0
H269 H 0.65057 0.11339 0.05071 0.0
O270 O 0.50733 0.09874 0.11175 0.0
C271 C 0.59292 0.06862 0.12178 0.0
Co272 Co 0.58797 0.54534 0.82797 0.0
Co273 Co 0.58812 0.60147 0.76907 0.0
C274 C 0.55519 0.54996 0.73538 0.0
O275 O 0.56583 0.53578 0.77021 0.0
O276 O 0.56098 0.57606 0.72989 0.0
C277 C 0.60067 0.4869 0.85786 0.0
O278 O 0.60137 0.47818 0.81221 0.0
C279 C 0.58522 0.65432 0.70543 0.0
C280 C 0.61323 0.6804 0.75071 0.0
C281 C 0.59651 0.6814 0.70923 0.0
N282 N 0.59522 0.63855 0.74284 0.0
N283 N 0.61175 0.65456 0.76958 0.0
C284 C 0.56343 0.64427 0.67025 0.0
H285 H 0.55327 0.62501 0.68427 0.0
H286 H 0.57351 0.63941 0.63459 0.0
H287 H 0.54734 0.66069 0.66422 0.0
C288 C 0.64808 0.55521 0.8296 0.0
N289 N 0.62247 0.56183 0.81282 0.0
N290 N 0.624 0.58372 0.78374 0.0
C291 C 0.65152 0.59069 0.77912 0.0
C292 C 0.66762 0.57275 0.80826 0.0
C293 C 0.65309 0.53569 0.87172 0.0
H294 H 0.63611 0.53827 0.89897 0.0
H295 H 0.6533 0.51384 0.85818 0.0
H296 H 0.6732 0.54 0.89058 0.0
O297 O 0.56623 0.56944 0.87098 0.0
O298 O 0.56922 0.61041 0.83346 0.0
H299 H 0.66669 0.63232 0.7693 0.0
H300 H 0.68273 0.60692 0.73015 0.0
C301 C 0.66255 0.61345 0.74687 0.0
H302 H 0.64727 0.61861 0.71756 0.0
H303 H 0.62142 0.648 0.80195 0.0
O304 O 0.59479 0.51214 0.86763 0.0
C305 C 0.56112 0.59542 0.8695 0.0
Co306 Co 0.54202 0.39505 0.15921 0.0
Co307 Co 0.5975 0.39914 0.21983 0.0
C308 C 0.54525 0.43092 0.2495 0.0
O309 O 0.53208 0.41952 0.21425 0.0
O310 O 0.57119 0.42541 0.2574 0.0
C311 C 0.48269 0.38638 0.12879 0.0
O312 O 0.47339 0.39234 0.1729 0.0
C313 C 0.64601 0.39975 0.29084 0.0
C314 C 0.67981 0.3896 0.23838 0.0
C315 C 0.67509 0.39617 0.28713 0.0
N316 N 0.63462 0.39571 0.24618 0.0
N317 N 0.65502 0.38956 0.21529 0.0
C318 C 0.62895 0.40568 0.33561 0.0
H319 H 0.60696 0.39884 0.32997 0.0
H320 H 0.63794 0.39482 0.36801 0.0
H321 H 0.62888 0.42853 0.34259 0.0
C322 C 0.55889 0.33796 0.15223 0.0
N323 N 0.56046 0.36233 0.17619 0.0
N324 N 0.58241 0.36244 0.20521 0.0
C325 C 0.59415 0.33661 0.20391 0.0
C326 C 0.57949 0.32 0.17011 0.0
C327 C 0.54358 0.33544 0.10423 0.0
H328 H 0.54421 0.3557 0.08447 0.0
H329 H 0.52137 0.32987 0.11123 0.0
H330 H 0.55319 0.31973 0.07958 0.0
O331 O 0.56615 0.41422 0.1139 0.0
O332 O 0.60579 0.41783 0.15594 0.0
H333 H 0.63856 0.33226 0.20952 0.0
H334 H 0.61893 0.30623 0.24282 0.0
C335 C 0.6197 0.32866 0.23243 0.0
H336 H 0.62137 0.3416 0.26604 0.0
H337 H 0.652 0.38557 0.17804 0.0
O338 O 0.50875 0.38677 0.12003 0.0
C339 C 0.59153 0.42162 0.11714 0.0
Co340 Co 0.39118 0.45224 0.81446 0.0
Co341 Co 0.40156 0.39417 0.76242 0.0
C342 C 0.4311 0.4477 0.72989 0.0
O343 O 0.41772 0.46161 0.76199 0.0
O344 O 0.42709 0.42133 0.72473 0.0
C345 C 0.37303 0.51037 0.85452 0.0
O346 O 0.35936 0.52011 0.81633 0.0
C347 C 0.40133 0.34507 0.69191 0.0
C348 C 0.40342 0.31072 0.74606 0.0
C349 C 0.40224 0.31583 0.69613 0.0
N350 N 0.40204 0.35626 0.73733 0.0
N351 N 0.40332 0.33546 0.76922 0.0
C352 C 0.39822 0.36222 0.64636 0.0
H353 H 0.3895 0.38312 0.65538 0.0
H354 H 0.38442 0.35146 0.61961 0.0
H355 H 0.41913 0.36523 0.62942 0.0
C356 C 0.33334 0.43422 0.81056 0.0
N357 N 0.35958 0.43215 0.79304 0.0
N358 N 0.36339 0.40705 0.77411 0.0
C359 C 0.33936 0.39233 0.77996 0.0
C360 C 0.31966 0.40896 0.80387 0.0
C361 C 0.32329 0.4581 0.84129 0.0
H362 H 0.33565 0.45899 0.87572 0.0
H363 H 0.32647 0.47784 0.82084 0.0
H364 H 0.30071 0.45615 0.85036 0.0
O365 O 0.40964 0.42903 0.86426 0.0
O366 O 0.41929 0.38904 0.8271 0.0
H367 H 0.34964 0.35041 0.8 0.0
H368 H 0.31493 0.35445 0.77467 0.0
C369 C 0.33702 0.36151 0.77189 0.0
H370 H 0.34535 0.35611 0.73515 0.0
H371 H 0.4039 0.33808 0.80719 0.0
O372 O 0.38391 0.48614 0.85376 0.0
C373 C 0.41989 0.40457 0.86472 0.0
Co374 Co 0.4571 0.6045 0.18003 0.0
Co375 Co 0.39421 0.58883 0.21111 0.0
C376 C 0.44586 0.55882 0.25257 0.0
O377 O 0.46213 0.57507 0.22926 0.0
O378 O 0.41922 0.56165 0.24956 0.0
C379 C 0.51518 0.62687 0.14146 0.0
O380 O 0.53706 0.64029 0.15875 0.0
C381 C 0.34397 0.58776 0.27858 0.0
C382 C 0.30938 0.58374 0.22551 0.0
C383 C 0.31452 0.58664 0.2754 0.0
N384 N 0.35506 0.58603 0.233 0.0
N385 N 0.33411 0.58343 0.20168 0.0
C386 C 0.3617 0.58965 0.32366 0.0
H387 H 0.38364 0.58363 0.31535 0.0
H388 H 0.36176 0.61155 0.33703 0.0
H389 H 0.35329 0.57583 0.35288 0.0
C390 C 0.43399 0.66007 0.18483 0.0
N391 N 0.43216 0.6332 0.19931 0.0
N392 N 0.40592 0.62735 0.21023 0.0
C393 C 0.39026 0.65049 0.20167 0.0
C394 C 0.40751 0.67193 0.1849 0.0
C395 C 0.45931 0.67221 0.16034 0.0
H396 H 0.4638 0.66037 0.12625 0.0
H397 H 0.47757 0.67038 0.18527 0.0
H398 H 0.45631 0.69461 0.15099 0.0
O399 O 0.44127 0.58657 0.12073 0.0
O400 O 0.39688 0.57658 0.14118 0.0
H401 H 0.35219 0.63601 0.16939 0.0
H402 H 0.35061 0.67164 0.19142 0.0
C403 C 0.35898 0.6504 0.19897 0.0
H404 H 0.35029 0.64277 0.23422 0.0
H405 H 0.33666 0.5819 0.16376 0.0
O406 O 0.49548 0.62089 0.17125 0.0
C407 C 0.41708 0.57678 0.11031 0.0
Co408 Co 0.6058 0.94759 0.41286 0.0
Co409 Co 0.59019 0.88899 0.45967 0.0
C410 C 0.56332 0.94442 0.4932 0.0
O411 O 0.57907 0.95818 0.46426 0.0
O412 O 0.56528 0.91763 0.49645 0.0
C413 C 0.61167 0.00549 0.38449 0.0
O414 O 0.59561 0.01081 0.42248 0.0
C415 C 0.58353 0.8366 0.52389 0.0
C416 C 0.58644 0.80546 0.46441 0.0
C417 C 0.58315 0.80767 0.51469 0.0
N418 N 0.587 0.85028 0.48081 0.0
N419 N 0.58858 0.8313 0.44576 0.0
C420 C 0.57958 0.85118 0.57185 0.0
H421 H 0.57345 0.87331 0.56579 0.0
H422 H 0.59963 0.85085 0.59244 0.0
H423 H 0.56338 0.84037 0.59406 0.0
C424 C 0.66209 0.92572 0.4219 0.0
N425 N 0.63496 0.9244 0.4349 0.0
N426 N 0.62928 0.89936 0.45245 0.0
C427 C 0.65302 0.88383 0.4501 0.0
C428 C 0.67452 0.9 0.43033 0.0
C429 C 0.67449 0.94934 0.3931 0.0
H430 H 0.66545 0.94938 0.35558 0.0
H431 H 0.66923 0.96949 0.41097 0.0
H432 H 0.69762 0.94739 0.39031 0.0
O433 O 0.58454 0.92844 0.36135 0.0
O434 O 0.57406 0.887 0.39293 0.0
H435 H 0.64446 0.84195 0.42789 0.0
H436 H 0.67636 0.84587 0.46257 0.0
C437 C 0.65432 0.85304 0.45913 0.0
H438 H 0.64274 0.84778 0.49315 0.0
H439 H 0.59145 0.83598 0.40872 0.0
O440 O 0.62001 0.98064 0.37739 0.0
C441 C 0.57352 0.90442 0.35783 0.0
Co442 Co 0.95073 0.3881 0.56472 0.0
Co443 Co 0.89272 0.40053 0.51555 0.0
C444 C 0.9464 0.43096 0.48537 0.0
O445 O 0.9607 0.41626 0.51519 0.0
O446 O 0.91989 0.42725 0.48072 0.0
C447 C 0.00871 0.36919 0.60307 0.0
O448 O 0.02153 0.36405 0.56141 0.0
C449 C 0.84385 0.40003 0.44534 0.0
C450 C 0.80944 0.40427 0.49906 0.0
C451 C 0.81466 0.40134 0.44944 0.0
N452 N 0.855 0.40193 0.49066 0.0
N453 N 0.83419 0.40454 0.52231 0.0
C454 C 0.86103 0.39782 0.39968 0.0
H455 H 0.88238 0.40624 0.40612 0.0
H456 H 0.86305 0.37548 0.38936 0.0
H457 H 0.85083 0.40926 0.36903 0.0
C458 C 0.93295 0.33058 0.55307 0.0
N459 N 0.93038 0.35764 0.54053 0.0
N460 N 0.90534 0.36212 0.52174 0.0
C461 C 0.89112 0.33761 0.52217 0.0
C462 C 0.90813 0.31692 0.54253 0.0
C463 C 0.9573 0.31892 0.58101 0.0
H464 H 0.97703 0.32518 0.56266 0.0
H465 H 0.95647 0.29576 0.58316 0.0
H466 H 0.95729 0.32765 0.6187 0.0
O467 O 0.92841 0.40537 0.61668 0.0
O468 O 0.88774 0.41553 0.58231 0.0
H469 H 0.84847 0.34763 0.53802 0.0
H470 H 0.8535 0.31295 0.51314 0.0
C471 C 0.86055 0.33503 0.51121 0.0
H472 H 0.85627 0.34342 0.47403 0.0
H473 H 0.83677 0.4061 0.5602 0.0
O474 O 0.98349 0.37747 0.60333 0.0
C475 C 0.90382 0.41523 0.61931 0.0
Co476 Co 0.38909 0.03822 0.42174 0.0
Co477 Co 0.40107 0.09792 0.46634 0.0
C478 C 0.43438 0.04585 0.49653 0.0
O479 O 0.41913 0.03061 0.46929 0.0
O480 O 0.4299 0.07224 0.49997 0.0
C481 C 0.36972 0.97836 0.37705 0.0
O482 O 0.35855 0.95979 0.40671 0.0
C483 C 0.40155 0.14722 0.53605 0.0
C484 C 0.40189 0.18158 0.48186 0.0
C485 C 0.40133 0.17649 0.53188 0.0
N486 N 0.40197 0.13604 0.49057 0.0
N487 N 0.40231 0.15685 0.45864 0.0
C488 C 0.40246 0.12996 0.58178 0.0
H489 H 0.41032 0.10863 0.57358 0.0
H490 H 0.38097 0.12806 0.59691 0.0
H491 H 0.41607 0.14 0.60968 0.0
C492 C 0.33182 0.0559 0.4322 0.0
N493 N 0.35856 0.05865 0.44708 0.0
N494 N 0.3628 0.08444 0.46228 0.0
C495 C 0.33866 0.099 0.45598 0.0
C496 C 0.31832 0.08148 0.43599 0.0
C497 C 0.32119 0.03109 0.40446 0.0
H498 H 0.33133 0.03039 0.36784 0.0
H499 H 0.32656 0.01171 0.42475 0.0
H500 H 0.29812 0.03207 0.39951 0.0
O501 O 0.40445 0.05971 0.36633 0.0
O502 O 0.41411 0.10138 0.39809 0.0
H503 H 0.34928 0.13943 0.4285 0.0
H504 H 0.3147 0.13735 0.45513 0.0
C505 C 0.33674 0.13016 0.45863 0.0
H506 H 0.34536 0.13748 0.4941 0.0
H507 H 0.40247 0.1542 0.42066 0.0
O508 O 0.3773 0.00178 0.39445 0.0
C509 C 0.41358 0.08459 0.362 0.0
Co510 Co 0.03669 0.60843 0.552 0.0
Co511 Co 0.09811 0.59163 0.51579 0.0
C512 C 0.04608 0.56031 0.48251 0.0
O513 O 0.03088 0.57647 0.50809 0.0
O514 O 0.07264 0.56381 0.48042 0.0
C515 C 0.9786 0.62964 0.59102 0.0
O516 O 0.95693 0.64391 0.57492 0.0
C517 C 0.14758 0.58877 0.44636 0.0
C518 C 0.18249 0.58414 0.4987 0.0
C519 C 0.17689 0.5864 0.44891 0.0
N520 N 0.13683 0.58789 0.49229 0.0
N521 N 0.15798 0.585 0.52315 0.0
C522 C 0.13003 0.5937 0.40175 0.0
H523 H 0.10958 0.60306 0.41218 0.0
H524 H 0.14108 0.60762 0.37554 0.0
H525 H 0.12593 0.5734 0.38346 0.0
C526 C 0.05884 0.66359 0.53927 0.0
N527 N 0.06044 0.63646 0.52634 0.0
N528 N 0.08647 0.63033 0.51436 0.0
C529 C 0.10228 0.65355 0.52091 0.0
C530 C 0.08534 0.67537 0.53736 0.0
C531 C 0.03406 0.67608 0.56493 0.0
H532 H 0.03051 0.66487 0.60007 0.0
H533 H 0.0152 0.67373 0.54156 0.0
H534 H 0.0371 0.69865 0.57266 0.0
O535 O 0.05469 0.59508 0.61312 0.0
O536 O 0.09697 0.58116 0.58696 0.0
H537 H 0.14074 0.63931 0.55225 0.0
H538 H 0.14213 0.67459 0.52826 0.0
C539 C 0.13358 0.65329 0.52225 0.0
H540 H 0.14172 0.645 0.48707 0.0
H541 H 0.15574 0.58401 0.56119 0.0
O542 O -0.00152 0.62478 0.56107 0.0
C543 C 0.07888 0.58449 0.62113 0.0
H544 H 0.06594 0.25981 0.02646 0.0
H545 H 0.11386 0.31142 0.12557 0.0
H546 H 0.11771 0.27239 0.18276 0.0
H547 H 0.10813 0.22326 0.20429 0.0
H548 H 0.06124 0.17149 0.10414 0.0
H549 H 0.05723 0.21066 0.04706 0.0
C550 C 0.07722 0.26269 0.06062 0.0
C551 C 0.08897 0.28903 0.07187 0.0
C552 C 0.08004 0.23986 0.09281 0.0
C553 C 0.10361 0.29202 0.11631 0.0
C554 C 0.10622 0.26944 0.14886 0.0
C555 C 0.09714 0.22047 0.16982 0.0
C556 C 0.08544 0.19417 0.15828 0.0
C557 C 0.09458 0.24326 0.13742 0.0
C558 C 0.07123 0.19105 0.11351 0.0
C559 C 0.06858 0.21364 0.08109 0.0
H560 H 0.22494 0.88575 0.76968 0.0
H561 H 0.17066 0.92353 0.8775 0.0
H562 H 0.2093 0.92486 0.93603 0.0
H563 H 0.25872 0.91661 0.95594 0.0
H564 H 0.31297 0.87807 0.84879 0.0
H565 H 0.27437 0.87662 0.7903 0.0
C566 C 0.22147 0.89417 0.80609 0.0
C567 C 0.19461 0.90405 0.81928 0.0
C568 C 0.24399 0.89529 0.8394 0.0
C569 C 0.19066 0.91495 0.8666 0.0
C570 C 0.21295 0.91608 0.89996 0.0
C571 C 0.26225 0.9079 0.91977 0.0
C572 C 0.28919 0.89813 0.90674 0.0
C573 C 0.23971 0.90647 0.88664 0.0
C574 C 0.29304 0.88678 0.85967 0.0
C575 C 0.27074 0.88553 0.82628 0.0
H576 H 0.92726 0.76549 0.19466 0.0
H577 H 0.87186 0.81626 0.10645 0.0
H578 H 0.86493 0.77722 0.05036 0.0
H579 H 0.87401 0.7284 0.02678 0.0
H580 H 0.92992 0.67802 0.11482 0.0
H581 H 0.9361 0.71674 0.17144 0.0
C582 C 0.91369 0.76817 0.16309 0.0
C583 C 0.90068 0.79429 0.15449 0.0
C584 C 0.90931 0.74537 0.13145 0.0
C585 C 0.88306 0.79704 0.11343 0.0
C586 C 0.87871 0.77445 0.08159 0.0
C587 C 0.8875 0.72573 0.05846 0.0
C588 C 0.90092 0.69976 0.06667 0.0
C589 C 0.89169 0.74851 0.09031 0.0
C590 C 0.91838 0.69704 0.10796 0.0
C591 C 0.92235 0.7195 0.14015 0.0
H592 H 0.7627 0.08266 0.77257 0.0
H593 H 0.82098 0.09326 0.89246 0.0
H594 H 0.78242 0.09274 0.95035 0.0
H595 H 0.73191 0.0919 0.96725 0.0
H596 H 0.6735 0.08693 0.84659 0.0
H597 H 0.7123 0.08265 0.78923 0.0
C598 C 0.7672 0.08474 0.81137 0.0
C599 C 0.79526 0.08734 0.82753 0.0
C600 C 0.74469 0.08552 0.84465 0.0
C601 C 0.80017 0.09018 0.87818 0.0
C602 C 0.77788 0.0903 0.91163 0.0
C603 C 0.72753 0.08973 0.92841 0.0
C604 C 0.69948 0.08897 0.91183 0.0
C605 C 0.75006 0.08828 0.89523 0.0
C606 C 0.69452 0.08642 0.86118 0.0
C607 C 0.71685 0.08438 0.82805 0.0
H608 H 0.57854 0.68777 0.61261 0.0
H609 H 0.60564 0.73483 0.7391 0.0
H610 H 0.60308 0.7779 0.69217 0.0
H611 H 0.59585 0.80229 0.61391 0.0
H612 H 0.56571 0.7557 0.48904 0.0
H613 H 0.5665 0.71285 0.53692 0.0
C614 C 0.5831 0.70735 0.63064 0.0
C615 C 0.59207 0.70757 0.67986 0.0
C616 C 0.58124 0.73248 0.60351 0.0
C617 C 0.59879 0.73359 0.7013 0.0
C618 C 0.59728 0.75847 0.67447 0.0
C619 C 0.58862 0.78309 0.59732 0.0
C620 C 0.58061 0.78269 0.54761 0.0
C621 C 0.58883 0.75821 0.62532 0.0
C622 C 0.57219 0.75696 0.52705 0.0
C623 C 0.57259 0.73224 0.55445 0.0
H624 H 0.76349 0.42534 0.45237 0.0
H625 H 0.81458 0.37073 0.36362 0.0
H626 H 0.77568 0.36431 0.30673 0.0
H627 H 0.72674 0.37288 0.28374 0.0
H628 H 0.67603 0.42834 0.37177 0.0
H629 H 0.71484 0.43471 0.42838 0.0
C630 C 0.76622 0.41213 0.42041 0.0
C631 C 0.79223 0.39901 0.41191 0.0
C632 C 0.74355 0.40807 0.38838 0.0
C633 C 0.79528 0.38189 0.37041 0.0
C634 C 0.77282 0.37784 0.33819 0.0
C635 C 0.72404 0.38635 0.31537 0.0
C636 C 0.69795 0.39942 0.32389 0.0
C637 C 0.74682 0.39066 0.34707 0.0
C638 C 0.69516 0.41696 0.36494 0.0
C639 C 0.71764 0.42105 0.39706 0.0
H640 H 0.41878 0.2301 0.52159 0.0
H641 H 0.37977 0.17482 0.62666 0.0
H642 H 0.3767 0.213 0.68535 0.0
H643 H 0.38415 0.2624 0.70661 0.0
H644 H 0.42281 0.31769 0.60122 0.0
H645 H 0.42581 0.27947 0.54248 0.0
C646 C 0.40962 0.22624 0.55736 0.0
C647 C 0.40021 0.19912 0.56968 0.0
C648 C 0.40722 0.24857 0.59065 0.0
C649 C 0.38826 0.19487 0.61626 0.0
C650 C 0.38605 0.21695 0.6498 0.0
C651 C 0.39316 0.26621 0.6707 0.0
C652 C 0.40265 0.2933 0.65829 0.0
C653 C 0.39539 0.2439 0.63732 0.0
C654 C 0.41436 0.29759 0.61159 0.0
C655 C 0.4165 0.27552 0.57808 0.0
H656 H 0.25947 0.57138 0.26721 0.0
H657 H 0.31717 0.60822 0.37063 0.0
H658 H 0.28029 0.61085 0.43144 0.0
H659 H 0.23129 0.60316 0.45635 0.0
H660 H 0.17298 0.56776 0.35272 0.0
H661 H 0.20998 0.56519 0.29118 0.0
C662 C 0.26418 0.57998 0.30304 0.0
C663 C 0.2919 0.58859 0.31401 0.0
C664 C 0.24238 0.58226 0.33799 0.0
C665 C 0.29693 0.60005 0.36079 0.0
C666 C 0.27548 0.60205 0.39581 0.0
C667 C 0.22653 0.59495 0.42025 0.0
C668 C 0.19893 0.58614 0.40945 0.0
C669 C 0.24814 0.59315 0.38494 0.0
C670 C 0.1935 0.57555 0.36223 0.0
C671 C 0.2149 0.5737 0.32698 0.0
H672 H 0.22771 0.08832 0.26951 0.0
H673 H 0.17319 0.09749 0.39412 0.0
H674 H 0.21371 0.10122 0.44884 0.0
H675 H 0.26472 0.09482 0.46225 0.0
H676 H 0.31909 0.0859 0.33725 0.0
H677 H 0.279 0.08953 0.28171 0.0
C678 C 0.22485 0.09217 0.30839 0.0
C679 C 0.19766 0.09289 0.32786 0.0
C680 C 0.24831 0.09388 0.33968 0.0
C681 C 0.19404 0.0973 0.37842 0.0
C682 C 0.2172 0.09911 0.40974 0.0
C683 C 0.26772 0.09447 0.42283 0.0
C684 C 0.29466 0.08992 0.40374 0.0
C685 C 0.24445 0.09642 0.39103 0.0
C686 C 0.29843 0.08934 0.35261 0.0
C687 C 0.27552 0.09128 0.32088 0.0
H688 H 0.09157 0.76558 0.704 0.0
H689 H 0.09393 0.82056 0.57895 0.0
H690 H 0.09838 0.78047 0.52378 0.0
H691 H 0.09495 0.72939 0.51062 0.0
H692 H 0.09281 0.67434 0.63557 0.0
H693 H 0.09531 0.71442 0.69121 0.0
C694 C 0.094 0.76868 0.66481 0.0
C695 C 0.09263 0.79587 0.64542 0.0
C696 C 0.09627 0.74541 0.63324 0.0
C697 C 0.09527 0.79975 0.59454 0.0
C698 C 0.09757 0.77682 0.563 0.0
C699 C 0.09599 0.72627 0.54999 0.0
C700 C 0.09391 0.69909 0.56911 0.0
C701 C 0.09719 0.7495 0.58177 0.0
C702 C 0.09474 0.69517 0.6202 0.0
C703 C 0.09592 0.71808 0.65199 0.0
H704 H 0.77062 0.88814 0.27599 0.0
H705 H 0.82077 0.90164 0.40509 0.0
H706 H 0.77934 0.89723 0.45715 0.0
H707 H 0.72779 0.89696 0.46455 0.0
H708 H 0.67743 0.88323 0.33593 0.0
H709 H 0.71965 0.87971 0.28523 0.0
C710 C 0.77247 0.88919 0.3156 0.0
C711 C 0.79852 0.89545 0.33677 0.0
C712 C 0.7484 0.88685 0.34537 0.0
C713 C 0.80079 0.89695 0.38812 0.0
C714 C 0.7771 0.89458 0.41787 0.0
C715 C 0.72624 0.89219 0.42575 0.0
C716 C 0.69974 0.89017 0.40387 0.0
C717 C 0.75063 0.89059 0.3968 0.0
C718 C 0.69777 0.88451 0.35344 0.0
C719 C 0.72188 0.88278 0.32442 0.0
H720 H 0.90239 0.30201 0.63772 0.0
H721 H 0.89679 0.26977 0.49066 0.0
H722 H 0.89298 0.22198 0.52292 0.0
H723 H 0.89776 0.18928 0.59261 0.0
H724 H 0.90482 0.22139 0.73954 0.0
H725 H 0.9011 0.26942 0.7082 0.0
C726 C 0.89967 0.28448 0.61296 0.0
C727 C 0.89995 0.28916 0.56195 0.0
C728 C 0.89799 0.25715 0.63186 0.0
C729 C 0.89649 0.26651 0.52999 0.0
C730 C 0.89452 0.23925 0.54847 0.0
C731 C 0.89775 0.20686 0.61773 0.0
C732 C 0.90157 0.20202 0.66823 0.0
C733 C 0.89617 0.23428 0.59923 0.0
C734 C 0.9017 0.22475 0.70061 0.0
C735 C 0.89982 0.25214 0.68261 0.0
H736 H 0.2674 0.39412 0.77305 0.0
H737 H 0.31824 0.40341 0.90247 0.0
H738 H 0.27694 0.39807 0.95467 0.0
H739 H 0.22542 0.39784 0.96278 0.0
H740 H 0.1744 0.38856 0.8337 0.0
H741 H 0.21636 0.38625 0.78218 0.0
C742 C 0.26939 0.39418 0.81268 0.0
C743 C 0.29561 0.39945 0.83402 0.0
C744 C 0.24543 0.39129 0.84252 0.0
C745 C 0.29811 0.39955 0.8854 0.0
C746 C 0.27451 0.39661 0.91523 0.0
C747 C 0.22367 0.39431 0.92361 0.0
C748 C 0.19707 0.39317 0.90192 0.0
C749 C 0.24791 0.39346 0.89419 0.0
C750 C 0.19483 0.38913 0.85103 0.0
C751 C 0.21878 0.3881 0.82157 0.0
H752 H 0.40171 0.7612 0.01615 0.0
H753 H 0.3957 0.8166 0.14003 0.0
H754 H 0.39183 0.77664 0.19576 0.0
H755 H 0.39641 0.72578 0.21001 0.0
H756 H 0.40217 0.67027 0.08631 0.0
H757 H 0.39944 0.71002 0.02974 0.0
C758 C 0.3987 0.76437 0.05518 0.0
C759 C 0.3989 0.79163 0.07415 0.0
C760 C 0.39671 0.74121 0.08707 0.0
C761 C 0.39537 0.79568 0.12481 0.0
C762 C 0.39337 0.77286 0.15667 0.0
C763 C 0.3962 0.72248 0.17066 0.0
C764 C 0.39935 0.69532 0.15214 0.0
C765 C 0.39487 0.7455 0.13841 0.0
C766 C 0.39949 0.69112 0.10114 0.0
C767 C 0.39815 0.71383 0.06886 0.0
H768 H 0.78567 0.53995 0.8887 0.0
H769 H 0.79509 0.62932 0.90138 0.0
H770 H 0.74785 0.63591 0.86857 0.0
H771 H 0.70348 0.61567 0.83446 0.0
H772 H 0.70048 0.52708 0.80551 0.0
H773 H 0.74651 0.52101 0.84247 0.0
C774 C 0.77792 0.56102 0.88314 0.0
C775 C 0.79436 0.58399 0.89762 0.0
C776 C 0.75199 0.56482 0.85981 0.0
C777 C 0.78302 0.61102 0.89188 0.0
C778 C 0.75608 0.61488 0.87203 0.0
C779 C 0.71331 0.59524 0.83495 0.0
C780 C 0.69829 0.57173 0.81817 0.0
C781 C 0.74042 0.5919 0.85527 0.0
C782 C 0.7114 0.5454 0.81891 0.0
C783 C 0.73762 0.54185 0.84045 0.0
H784 H 0.61543 0.20126 0.08358 0.0
H785 H 0.52841 0.20426 0.04082 0.0
H786 H 0.52265 0.24867 0.08283 0.0
H787 H 0.54071 0.2835 0.1386 0.0
H788 H 0.62996 0.29039 0.16004 0.0
H789 H 0.63631 0.244 0.1235 0.0
C790 C 0.59553 0.21216 0.08202 0.0
C791 C 0.57206 0.19908 0.06054 0.0
C792 C 0.59255 0.23863 0.10456 0.0
C793 C 0.54656 0.21366 0.05808 0.0
C794 C 0.54313 0.23887 0.08259 0.0
C795 C 0.56182 0.27562 0.13384 0.0
C796 C 0.58471 0.29094 0.15185 0.0
C797 C 0.56574 0.251 0.10722 0.0
C798 C 0.61167 0.27916 0.14761 0.0
C799 C 0.61543 0.25281 0.12556 0.0
H800 H 0.01137 0.05057 0.19888 0.0
H801 H 0.07018 0.98213 0.19888 0.0
H802 H 0.0321 0.94881 0.18837 0.0
H803 H 0.98165 0.93857 0.19841 0.0
H804 H 0.92279 0.00693 0.19885 0.0
H805 H 0.96086 0.04034 0.18853 0.0
C806 C 0.01596 0.02851 0.19439 0.0
C807 C 0.04367 0.01897 0.20053 0.0
C808 C 0.9937 0.00914 0.18938 0.0
C809 C 0.04906 0.99014 0.19488 0.0
C810 C 0.0272 0.97094 0.18922 0.0
C811 C 0.97704 0.96064 0.19397 0.0
C812 C 0.94933 0.97013 0.20016 0.0
C813 C -0.00071 0.98003 0.18926 0.0
C814 C 0.94391 -0.00103 0.19469 0.0
C815 C 0.96577 0.01822 0.18923 0.0
H816 H 0.05142 0.98135 0.77319 0.0
H817 H 0.98334 0.92278 0.78737 0.0
H818 H 0.95018 0.96113 0.79736 0.0
H819 H 0.9393 0.0112 0.78358 0.0
H820 H 0.00745 0.06969 0.76963 0.0
H821 H 0.04135 0.03197 0.77907 0.0
C822 C 0.02956 0.97693 0.78068 0.0
C823 C 0.01999 0.9491 0.77881 0.0
C824 C 0.01025 -0.00071 0.78536 0.0
C825 C 0.99138 0.94396 0.78818 0.0
C826 C 0.97224 0.96596 0.79348 0.0
C827 C 0.96151 0.01585 0.78483 0.0
C828 C 0.97068 0.0433 0.77517 0.0
C829 C 0.98118 0.99377 0.78942 0.0
C830 C -0.0003 0.04876 0.77648 0.0
C831 C 0.01923 0.0271 0.78153 0.0
H832 H 0.05663 0.50218 0.01684 0.0
H833 H 0.01169 0.42414 0.02594 0.0
H834 H 0.96762 0.4496 0.03541 0.0
H835 H 0.94132 0.49369 0.02348 0.0
H836 H 0.98618 0.57173 0.01547 0.0
H837 H 0.03064 0.54676 0.0243 0.0
C838 C 0.03731 0.49071 0.02255 0.0
C839 C 0.03756 0.46118 0.01985 0.0
C840 C 0.01188 0.50556 0.02749 0.0
C841 C 0.01229 0.44676 0.02779 0.0
C842 C 0.98695 0.46137 0.03269 0.0
C843 C 0.96077 0.50534 0.02567 0.0
C844 C 0.96035 0.53459 0.01839 0.0
C845 C 0.98636 0.49073 0.03008 0.0
C846 C 0.98576 0.54932 0.02133 0.0
C847 C 0.01129 0.53495 0.02568 0.0
H848 H 0.49858 0.93524 0.95276 0.0
H849 H 0.42106 0.98127 0.96276 0.0
H850 H 0.44684 0.02529 0.9564 0.0
H851 H 0.49179 0.05021 0.96519 0.0
H852 H 0.56941 0.00433 0.95713 0.0
H853 H 0.54331 0.96087 0.94411 0.0
C854 C 0.48722 0.95489 0.95179 0.0
C855 C 0.45785 0.95488 0.95877 0.0
C856 C 0.50231 0.9802 0.94912 0.0
C857 C 0.44352 0.98054 0.9572 0.0
C858 C 0.45835 0.00579 0.95418 0.0
C859 C 0.50304 0.03082 0.9589 0.0
C860 C 0.53258 0.0305 0.96273 0.0
C861 C 0.48782 0.00584 0.95263 0.0
C862 C 0.5468 0.00526 0.95418 0.0
C863 C 0.5318 0.98032 0.94738 0.0
H864 H 0.43583 0.5028 0.70518 0.0
H865 H 0.4819 0.4252 0.70564 0.0
H866 H 0.52583 0.45096 0.69673 0.0
H867 H 0.55119 0.49556 0.70745 0.0
H868 H 0.50526 0.57319 0.7076 0.0
H869 H 0.46139 0.54753 0.69618 0.0
C870 C 0.45541 0.49146 0.70152 0.0
C871 C 0.45552 0.46204 0.70677 0.0
C872 C 0.48072 0.50652 0.69719 0.0
C873 C 0.48107 0.44773 0.70161 0.0
C874 C 0.5063 0.46253 0.69711 0.0
C875 C 0.53169 0.50695 0.70297 0.0
C876 C 0.53154 0.53631 0.70896 0.0
C877 C 0.50645 0.49195 0.69752 0.0
C878 C 0.5061 0.55071 0.70293 0.0
C879 C 0.4809 0.53595 0.69712 0.0
H880 H 0.49989 0.55119 0.28284 0.0
H881 H 0.42115 0.50783 0.26772 0.0
H882 H 0.44535 0.46298 0.27527 0.0
H883 H 0.48961 0.43654 0.26851 0.0
H884 H 0.56841 0.47979 0.28218 0.0
H885 H 0.54351 0.52404 0.29385 0.0
C886 C 0.48787 0.53196 0.28273 0.0
C887 C 0.45869 0.533 0.27378 0.0
C888 C 0.50206 0.50613 0.28609 0.0
C889 C 0.44352 0.50782 0.2744 0.0
C890 C 0.45745 0.48207 0.27819 0.0
C891 C 0.50133 0.45551 0.27579 0.0
C892 C 0.53091 0.45484 0.27389 0.0
C893 C 0.48683 0.48099 0.28144 0.0
C894 C 0.54574 0.47958 0.28365 0.0
C895 C 0.53144 0.50501 0.2897 0.0
H896 H 0.55723 0.00098 0.50347 0.0
H897 H 0.51395 0.92323 0.52993 0.0
H898 H 0.47008 0.94887 0.54176 0.0
H899 H 0.44268 0.99236 0.52892 0.0
H900 H 0.48612 0.06984 0.50176 0.0
H901 H 0.53107 0.04538 0.50586 0.0
C902 C 0.53837 0.98958 0.513 0.0
C903 C 0.539 0.95998 0.51485 0.0
C904 C 0.51303 0.00446 0.51876 0.0
C905 C 0.51429 0.94585 0.52798 0.0
C906 C 0.48905 0.96055 0.53428 0.0
C907 C 0.46205 0.00406 0.5256 0.0
C908 C 0.46091 0.03299 0.51493 0.0
C909 C 0.48793 0.98971 0.52747 0.0
C910 C 0.48624 0.04775 0.51061 0.0
C911 C 0.51202 0.03364 0.51236 0.0
H912 H 0.00197 0.43771 0.46513 0.0
H913 H 0.92279 0.48116 0.45994 0.0
H914 H 0.94732 0.52568 0.45019 0.0
H915 H 0.99109 0.55268 0.45883 0.0
H916 H 0.07029 0.50929 0.46465 0.0
H917 H 0.04599 0.46447 0.45732 0.0
C918 C 0.99003 0.45683 0.4604 0.0
C919 C 0.96049 0.45602 0.46399 0.0
C920 C 0.00434 0.48249 0.4556 0.0
C921 C 0.94543 0.48102 0.45729 0.0
C922 C 0.95951 0.50659 0.45224 0.0
C923 C 0.00314 0.53346 0.45713 0.0
C924 C 0.03255 0.53443 0.46312 0.0
C925 C 0.98895 0.50768 0.4537 0.0
C926 C 0.04774 0.5093 0.46021 0.0
C927 C 0.03378 0.48358 0.45651 0.0
H928 H 0.1243 0.91537 0.56076 0.0
H929 H 0.04736 0.96223 0.57205 0.0
H930 H 0.05636 0.98412 0.49253 0.0
H931 H 0.08488 0.98846 0.41913 0.0
H932 H 0.16016 0.93928 0.40305 0.0
H933 H 0.15285 0.91922 0.48502 0.0
C934 C 0.10979 0.93064 0.54582 0.0
C935 C 0.08541 0.93757 0.57202 0.0
C936 C 0.11457 0.94226 0.49919 0.0
C937 C 0.06631 0.95683 0.55231 0.0
C938 C 0.07139 0.96921 0.50691 0.0
C939 C 0.0998 0.97338 0.43349 0.0
C940 C 0.1231 0.9654 0.40522 0.0
C941 C 0.09524 0.96181 0.47988 0.0
C942 C 0.14199 0.94561 0.4241 0.0
C943 C 0.13789 0.93429 0.47098 0.0
H944 H 0.00133 0.8886 0.54262 0.0
H945 H 0.92585 0.84963 0.59707 0.0
H946 H 0.90375 0.85594 0.51654 0.0
H947 H 0.90498 0.87604 0.43264 0.0
H948 H 0.97979 0.91727 0.38196 0.0
H949 H 0.00333 0.90658 0.45962 0.0
C950 C 0.98007 0.88123 0.53712 0.0
C951 C 0.96515 0.86884 0.57605 0.0
C952 C 0.96747 0.88545 0.49149 0.0
C953 C 0.93772 0.85936 0.56783 0.0
C954 C 0.9251 0.86301 0.52186 0.0
C955 C 0.92659 0.88215 0.43866 0.0
C956 C 0.941 0.89704 0.40216 0.0
C957 C 0.93963 0.87649 0.48375 0.0
C958 C 0.9687 0.90547 0.40981 0.0
C959 C 0.982 0.89948 0.45409 0.0
H960 H 0.88181 0.09089 0.53621 0.0
H961 H 0.90509 0.01411 0.60833 0.0
H962 H 0.89488 0.98774 0.53352 0.0
H963 H 0.8834 0.98731 0.4468 0.0
H964 H 0.86129 0.06397 0.37223 0.0
H965 H 0.86598 0.08969 0.44954 0.0
C966 C 0.88397 0.06831 0.5355 0.0
C967 C 0.89385 0.05418 0.57724 0.0
C968 C 0.87829 0.05344 0.49224 0.0
C969 C 0.89705 0.02509 0.5765 0.0
C970 C 0.89139 0.01014 0.53378 0.0
C971 C 0.8793 0.00962 0.44724 0.0
C972 C 0.87245 0.02379 0.40351 0.0
C973 C 0.88258 0.0242 0.49126 0.0
C974 C 0.86691 0.05262 0.40521 0.0
C975 C 0.86967 0.06733 0.44935 0.0
H976 H 0.00898 0.1306 0.54405 0.0
H977 H 0.04771 0.05914 0.61369 0.0
H978 H 0.07125 0.04726 0.5374 0.0
H979 H 0.07782 0.05477 0.44993 0.0
H980 H 0.04005 0.12632 0.37911 0.0
H981 H 0.01914 0.14057 0.45714 0.0
C982 C 0.02299 0.11274 0.54272 0.0
C983 C 0.02637 0.09566 0.58438 0.0
C984 C 0.0363 0.10581 0.49849 0.0
C985 C 0.04475 0.07271 0.58226 0.0
C986 C 0.05806 0.06572 0.5385 0.0
C987 C 0.06501 0.07351 0.45138 0.0
C988 C 0.06008 0.08918 0.40858 0.0
C989 C 0.05338 0.08169 0.49618 0.0
C990 C 0.04387 0.11368 0.41144 0.0
C991 C 0.03199 0.12189 0.45604 0.0
H992 H 0.11272 0.54165 0.64895 0.0
H993 H 0.06089 0.60793 0.70616 0.0
H994 H 0.06918 0.59139 0.78977 0.0
H995 H 0.08633 0.5549 0.84541 0.0
H996 H 0.13579 0.48688 0.7875 0.0
H997 H 0.13347 0.50738 0.70577 0.0
C998 C 0.10355 0.55262 0.67983 0.0
C999 C 0.08593 0.5757 0.67153 0.0
C1000 C 0.10778 0.54255 0.7277 0.0
C1001 C 0.07412 0.58978 0.71172 0.0
C1002 C 0.07892 0.5804 0.7595 0.0
C1003 C 0.09706 0.54484 0.81514 0.0
C1004 C 0.11082 0.5192 0.82263 0.0
C1005 C 0.095 0.55631 0.76782 0.0
C1006 C 0.12484 0.50657 0.78291 0.0
C1007 C 0.12341 0.51818 0.73596 0.0
H1008 H 0.49322 0.89812 0.17792 0.0
H1009 H 0.5585 0.84438 0.12202 0.0
H1010 H 0.58395 0.8488 0.2 0.0
H1011 H 0.58812 0.86983 0.28328 0.0
H1012 H 0.52341 0.92552 0.3344 0.0
H1013 H 0.49686 0.91825 0.25883 0.0
C1014 C 0.51294 0.88715 0.18259 0.0
C1015 C 0.52397 0.87092 0.14418 0.0
C1016 C 0.52744 0.89017 0.22669 0.0
C1017 C 0.54966 0.8571 0.15098 0.0
C1018 C 0.56414 0.85959 0.19553 0.0
C1019 C 0.56806 0.88003 0.27766 0.0
C1020 C 0.55738 0.898 0.31382 0.0
C1021 C 0.55332 0.87629 0.2335 0.0
C1022 C 0.5317 0.91154 0.3067 0.0
C1023 C 0.51665 0.90744 0.26364 0.0
H1024 H 0.86484 0.48777 0.79721 0.0
H1025 H 0.92077 0.43173 0.87374 0.0
H1026 H 0.92587 0.40357 0.79943 0.0
H1027 H 0.92044 0.39972 0.71002 0.0
H1028 H 0.86535 0.45655 0.63343 0.0
H1029 H 0.85404 0.47987 0.71072 0.0
C1030 C 0.87775 0.46908 0.7979 0.0
C1031 C 0.89299 0.46218 0.84039 0.0
C1032 C 0.88117 0.45358 0.7549 0.0
C1033 C 0.90905 0.43759 0.84128 0.0
C1034 C 0.91218 0.42166 0.7987 0.0
C1035 C 0.90573 0.41704 0.71043 0.0
C1036 C 0.89418 0.42689 0.66623 0.0
C1037 C 0.89939 0.43027 0.75483 0.0
C1038 C 0.87465 0.44883 0.6671 0.0
C1039 C 0.86822 0.46215 0.71118 0.0
H1040 H 0.48399 0.12428 0.18155 0.0
H1041 H 0.43393 0.06117 0.11013 0.0
H1042 H 0.40579 0.05578 0.18442 0.0
H1043 H 0.40041 0.06387 0.27275 0.0
H1044 H 0.45142 0.12607 0.34455 0.0
H1045 H 0.47436 0.13694 0.26675 0.0
C1046 C 0.4666 0.10969 0.18193 0.0
C1047 C 0.46141 0.09266 0.1409 0.0
C1048 C 0.45109 0.10619 0.22499 0.0
C1049 C 0.43847 0.07432 0.14143 0.0
C1050 C 0.42255 0.07106 0.18401 0.0
C1051 C 0.41638 0.07997 0.27121 0.0
C1052 C 0.42472 0.0937 0.31431 0.0
C1053 C 0.42951 0.086 0.22655 0.0
C1054 C 0.44488 0.11503 0.31181 0.0
C1055 C 0.45801 0.12122 0.26742 0.0
H1056 H 0.61962 0.50172 0.94688 0.0
H1057 H 0.59428 0.42996 0.86202 0.0
H1058 H 0.59412 0.40133 0.93675 0.0
H1059 H 0.59279 0.39969 0.02714 0.0
H1060 H 0.61743 0.47195 0.11095 0.0
H1061 H 0.62674 0.49776 0.03495 0.0
C1062 C 0.61462 0.47969 0.94438 0.0
C1063 C 0.60625 0.46804 0.89935 0.0
C1064 C 0.61426 0.46372 0.98718 0.0
C1065 C 0.60041 0.43938 0.8965 0.0
C1066 C 0.6002 0.42312 0.93916 0.0
C1067 C 0.60099 0.42084 0.02844 0.0
C1068 C 0.60422 0.43427 0.07385 0.0
C1069 C 0.60582 0.43547 0.98485 0.0
C1070 C 0.61497 0.46144 0.07602 0.0
C1071 C 0.62002 0.47616 0.03273 0.0
H1072 H 0.4002 0.41156 0.95643 0.0
H1073 H 0.46755 0.37402 0.87416 0.0
H1074 H 0.49129 0.36119 0.95059 0.0
H1075 H 0.49502 0.3654 0.03962 0.0
H1076 H 0.42784 0.40309 0.12249 0.0
H1077 H 0.40108 0.40998 0.04682 0.0
C1078 C 0.41995 0.40033 0.95548 0.0
C1079 C 0.43252 0.39413 0.91021 0.0
C1080 C 0.43323 0.39286 -0.0006 0.0
C1081 C 0.45771 0.37906 0.90886 0.0
C1082 C 0.47123 0.37178 0.95243 0.0
C1083 C 0.47432 0.37475 0.0413 0.0
C1084 C 0.46366 0.38438 0.08635 0.0
C1085 C 0.45949 0.37923 -0.00223 0.0
C1086 C 0.43659 0.39578 0.08816 0.0
C1087 C 0.42142 0.39996 0.04489 0.0
H1088 H 0.41809 0.50947 0.91296 0.0
H1089 H 0.33757 0.54915 0.89551 0.0
H1090 H 0.3438 0.57325 0.97439 0.0
H1091 H 0.37178 0.58123 0.05004 0.0
H1092 H 0.45357 0.54344 0.06266 0.0
H1093 H 0.44717 0.52008 0.98392 0.0
C1094 C 0.40193 0.52352 0.92631 0.0
C1095 C 0.37729 0.52739 0.89893 0.0
C1096 C 0.40585 0.53738 0.97089 0.0
C1097 C 0.35673 0.54594 0.91608 0.0
C1098 C 0.36023 0.55954 0.96121 0.0
C1099 C 0.38812 0.56791 0.03526 0.0
C1100 C 0.41302 0.56382 0.06195 0.0
C1101 C 0.38459 0.55512 0.98923 0.0
C1102 C 0.4343 0.54689 0.0425 0.0
C1103 C 0.43064 0.53352 -0.00238 0.0
H1104 H 0.53713 0.65707 0.06765 0.0
H1105 H 0.49331 0.5802 0.0976 0.0
H1106 H 0.50022 0.5653 0.01243 0.0
H1107 H 0.52471 0.57149 0.9334 0.0
H1108 H 0.56967 0.64802 0.90478 0.0
H1109 H 0.55647 0.66576 0.98563 0.0
C1110 C 0.52865 0.63726 0.05525 0.0
C1111 C 0.51453 0.61979 0.08869 0.0
C1112 C 0.53335 0.62866 0.00676 0.0
C1113 C 0.5036 0.59426 0.07225 0.0
C1114 C 0.50796 0.58559 0.02376 0.0
C1115 C 0.53113 0.59229 0.94455 0.0
C1116 C 0.54834 0.60837 0.91338 0.0
C1117 C 0.52361 0.60224 -0.00877 0.0
C1118 C 0.55631 0.63534 0.92798 0.0
C1119 C 0.54895 0.64538 0.97436 0.0
H1120 H 0.58048 0.08547 0.21287 0.0
H1121 H 0.634 0.02895 0.13296 0.0
H1122 H 0.6487 0.00698 0.2103 0.0
H1123 H 0.64048 -0.00027 0.29872 0.0
H1124 H 0.58599 0.05631 0.37721 0.0
H1125 H 0.57812 0.08296 0.30226 0.0
C1126 C 0.59564 0.06854 0.21248 0.0
C1127 C 0.60568 0.05828 0.16752 0.0
C1128 C 0.60375 0.05609 0.25671 0.0
C1129 C 0.62584 0.03692 0.16728 0.0
C1130 C 0.63412 0.02436 0.21141 0.0
C1131 C 0.62737 0.01825 0.29971 0.0
C1132 C 0.61328 0.0256 0.34331 0.0
C1133 C 0.62239 0.03314 0.25614 0.0
C1134 C 0.59681 0.04996 0.34413 0.0
C1135 C 0.59212 0.06512 0.30117 0.0
H1136 H 0.98772 0.38439 0.69081 0.0
H1137 H 0.06328 0.35365 0.62222 0.0
H1138 H 0.08836 0.35858 0.70031 0.0
H1139 H 0.0895 0.37591 0.78605 0.0
H1140 H 0.01407 0.40861 0.85118 0.0
H1141 H 0.98799 0.39885 0.77579 0.0
C1142 C 0.00965 0.3785 0.69266 0.0
C1143 C 0.02374 0.36898 0.65047 0.0
C1144 C 0.02389 0.38202 0.7369 0.0
C1145 C 0.05205 0.36128 0.65402 0.0
C1146 C 0.06637 0.36416 0.69858 0.0
C1147 C 0.06726 0.38042 0.78355 0.0
C1148 C 0.05341 0.39276 0.8234 0.0
C1149 C 0.05264 0.37514 0.73989 0.0
C1150 C 0.0248 0.39889 0.82058 0.0
C1151 C 0.01003 0.39341 0.77763 0.0
H1152 H 0.36353 0.92801 0.33289 0.0
H1153 H 0.38625 0.01372 0.30337 0.0
H1154 H 0.39631 0.00185 0.21793 0.0
H1155 H 0.40139 0.96622 0.15264 0.0
H1156 H 0.37972 0.8806 0.18358 0.0
H1157 H 0.36641 0.89321 0.26744 0.0
C1158 C 0.37051 0.94416 0.30776 0.0
C1159 C 0.37439 0.97164 0.32466 0.0
C1160 C 0.3765 0.93713 0.25894 0.0
C1161 C 0.38339 0.99232 0.29147 0.0
C1162 C 0.38911 0.98557 0.24257 0.0
C1163 C 0.39338 0.95056 0.17781 0.0
C1164 C 0.39127 0.92265 0.16256 0.0
C1165 C 0.38615 0.95795 0.22608 0.0
C1166 C 0.38121 0.90225 0.19499 0.0
C1167 C 0.37374 0.90944 0.2428 0.0
H1168 H 0.95847 0.65818 0.66777 0.0
H1169 H -0.00192 0.58019 0.62967 0.0
H1170 H 0.98832 0.56193 0.71223 0.0
H1171 H 0.96298 0.56651 0.7913 0.0
H1172 H 0.92427 0.64531 0.82838 0.0
H1173 H 0.9392 0.66497 0.75001 0.0
C1174 C 0.96545 0.63736 0.67788 0.0
C1175 C 0.97878 0.62044 0.64278 0.0
C1176 C 0.95953 0.62707 0.72491 0.0
C1177 C 0.98798 0.59363 0.65628 0.0
C1178 C 0.98211 0.58313 0.70326 0.0
C1179 C 0.95823 0.58811 0.78245 0.0
C1180 C 0.94227 0.60436 0.81535 0.0
C1181 C 0.96705 0.59937 0.73729 0.0
C1182 C 0.93654 0.6324 0.80378 0.0
C1183 C 0.94495 0.64361 0.75886 0.0
loop_
_geom_bond_atom_site_label_1
_geom_bond_atom_site_label_2
_geom_bond_distance
_geom_bond_site_symmetry_2
_ccdc_geom_bond_type
Co0 O3 1.970 . S
Co0 N17 1.989 . S
Co0 O25 1.967 . S
Co0 O32 1.920 . S
Co1 O4 1.966 . S
Co1 N10 2.022 . S
Co1 N18 1.993 . S
Co1 O26 1.941 . S
C2 O3 1.258 . S
C2 O4 1.263 . S
O3 Co0 1.970 . S
O3 C2 1.258 . S
O4 Co1 1.966 . S
O4 C2 1.263 . S
C5 O6 1.235 . S
C5 O32 1.289 1_565 S
O6 C5 1.235 . S
C7 C9 1.400 . S
C7 N10 1.351 . S
C7 C12 1.501 . S
C8 C9 1.387 . S
C8 N11 1.341 . S
C9 C7 1.400 . S
C9 C8 1.387 . S
N10 Co1 2.022 . S
N10 C7 1.351 . S
N10 N11 1.365 . S
N11 C8 1.341 . S
N11 N10 1.365 . S
N11 H31 0.862 . S
C12 C7 1.501 . S
C12 H13 0.961 . S
C12 H14 0.961 . S
C12 H15 0.960 . S
H13 C12 0.961 . S
H14 C12 0.961 . S
H15 C12 0.960 . S
C16 N17 1.342 . S
C16 C20 1.401 . S
C16 C21 1.499 . S
N17 Co0 1.989 . S
N17 C16 1.342 . S
N17 N18 1.388 . S
N18 Co1 1.993 . S
N18 N17 1.388 . S
N18 C19 1.346 . S
C19 N18 1.346 . S
C19 C20 1.396 . S
C19 C29 1.510 . S
C20 C16 1.401 . S
C20 C19 1.396 . S
C21 C16 1.499 . S
C21 H22 0.959 . S
C21 H23 0.960 . S
C21 H24 0.961 . S
H22 C21 0.959 . S
H23 C21 0.960 . S
H24 C21 0.961 . S
O25 Co0 1.967 . S
O25 C33 1.258 . S
O26 Co1 1.941 . S
O26 C33 1.266 . S
H27 C29 0.959 . S
H28 C29 0.961 . S
C29 C19 1.510 . S
C29 H27 0.959 . S
C29 H28 0.961 . S
C29 H30 0.960 . S
H30 C29 0.960 . S
H31 N11 0.862 . S
O32 Co0 1.920 . S
O32 C5 1.289 1_545 S
C33 O25 1.258 . S
C33 O26 1.266 . S
Co34 O37 1.970 . S
Co34 N51 1.989 . S
Co34 O59 1.967 . S
Co34 O66 1.920 . S
Co35 O38 1.966 . S
Co35 N44 2.022 . S
Co35 N52 1.993 . S
Co35 O60 1.941 . S
C36 O37 1.258 . S
C36 O38 1.263 . S
O37 Co34 1.970 . S
O37 C36 1.258 . S
O38 Co35 1.966 . S
O38 C36 1.263 . S
C39 O40 1.235 . S
C39 O66 1.289 1_655 S
O40 C39 1.235 . S
C41 C43 1.400 . S
C41 N44 1.351 . S
C41 C46 1.501 . S
C42 C43 1.387 . S
C42 N45 1.341 . S
C43 C41 1.400 . S
C43 C42 1.387 . S
N44 Co35 2.022 . S
N44 C41 1.351 . S
N44 N45 1.365 . S
N45 C42 1.341 . S
N45 N44 1.365 . S
N45 H65 0.862 . S
C46 C41 1.501 . S
C46 H47 0.961 . S
C46 H48 0.961 . S
C46 H49 0.960 . S
H47 C46 0.961 . S
H48 C46 0.961 . S
H49 C46 0.960 . S
C50 N51 1.342 . S
C50 C54 1.401 . S
C50 C55 1.499 . S
N51 Co34 1.989 . S
N51 C50 1.342 . S
N51 N52 1.388 . S
N52 Co35 1.993 . S
N52 N51 1.388 . S
N52 C53 1.346 . S
C53 N52 1.346 . S
C53 C54 1.396 . S
C53 C63 1.510 . S
C54 C50 1.401 . S
C54 C53 1.396 . S
C55 C50 1.499 . S
C55 H56 0.959 . S
C55 H57 0.960 . S
C55 H58 0.961 . S
H56 C55 0.959 . S
H57 C55 0.960 . S
H58 C55 0.961 . S
O59 Co34 1.967 . S
O59 C67 1.258 . S
O60 Co35 1.941 . S
O60 C67 1.266 . S
H61 C63 0.959 . S
H62 C63 0.961 . S
C63 C53 1.510 . S
C63 H61 0.959 . S
C63 H62 0.961 . S
C63 H64 0.960 . S
H64 C63 0.960 . S
H65 N45 0.862 . S
O66 Co34 1.920 . S
O66 C39 1.289 1_455 S
C67 O59 1.258 . S
C67 O60 1.266 . S
Co68 O71 1.970 . S
Co68 N85 1.989 . S
Co68 O93 1.967 . S
Co68 O100 1.920 . S
Co69 O72 1.966 . S
Co69 N78 2.022 . S
Co69 N86 1.993 . S
Co69 O94 1.941 . S
C70 O71 1.258 . S
C70 O72 1.263 . S
O71 Co68 1.970 . S
O71 C70 1.258 . S
O72 Co69 1.966 . S
O72 C70 1.263 . S
C73 O74 1.235 . S
C73 O100 1.289 1_545 S
O74 C73 1.235 . S
C75 C77 1.400 . S
C75 N78 1.351 . S
C75 C80 1.501 . S
C76 C77 1.387 . S
C76 N79 1.341 . S
C77 C75 1.400 . S
C77 C76 1.387 . S
N78 Co69 2.022 . S
N78 C75 1.351 . S
N78 N79 1.365 . S
N79 C76 1.341 . S
N79 N78 1.365 . S
N79 H99 0.862 . S
C80 C75 1.501 . S
C80 H81 0.961 . S
C80 H82 0.961 . S
C80 H83 0.960 . S
H81 C80 0.961 . S
H82 C80 0.961 . S
H83 C80 0.960 . S
C84 N85 1.342 . S
C84 C88 1.401 . S
C84 C89 1.499 . S
N85 Co68 1.989 . S
N85 C84 1.342 . S
N85 N86 1.388 . S
N86 Co69 1.993 . S
N86 N85 1.388 . S
N86 C87 1.346 . S
C87 N86 1.346 . S
C87 C88 1.396 . S
C87 C97 1.510 . S
C88 C84 1.401 . S
C88 C87 1.396 . S
C89 C84 1.499 . S
C89 H90 0.959 . S
C89 H91 0.960 . S
C89 H92 0.961 . S
H90 C89 0.959 . S
H91 C89 0.960 . S
H92 C89 0.961 . S
O93 Co68 1.967 . S
O93 C101 1.258 . S
O94 Co69 1.941 . S
O94 C101 1.266 . S
H95 C97 0.959 . S
H96 C97 0.961 . S
C97 C87 1.510 . S
C97 H95 0.959 . S
C97 H96 0.961 . S
C97 H98 0.960 . S
H98 C97 0.960 . S
H99 N79 0.862 . S
O100 Co68 1.920 . S
O100 C73 1.289 1_565 S
C101 O93 1.258 . S
C101 O94 1.266 . S
Co102 O105 1.970 . S
Co102 N119 1.989 . S
Co102 O127 1.967 . S
Co102 O134 1.920 . S
Co103 O106 1.966 . S
Co103 N112 2.022 . S
Co103 N120 1.993 . S
Co103 O128 1.941 . S
C104 O105 1.258 . S
C104 O106 1.263 . S
O105 Co102 1.970 . S
O105 C104 1.258 . S
O106 Co103 1.966 . S
O106 C104 1.263 . S
C107 O108 1.235 . S
C107 O134 1.289 1_455 S
O108 C107 1.235 . S
C109 C111 1.400 . S
C109 N112 1.351 . S
C109 C114 1.501 . S
C110 C111 1.387 . S
C110 N113 1.341 . S
C111 C109 1.400 . S
C111 C110 1.387 . S
N112 Co103 2.022 . S
N112 C109 1.351 . S
N112 N113 1.365 . S
N113 C110 1.341 . S
N113 N112 1.365 . S
N113 H133 0.862 . S
C114 C109 1.501 . S
C114 H115 0.961 . S
C114 H116 0.961 . S
C114 H117 0.960 . S
H115 C114 0.961 . S
H116 C114 0.961 . S
H117 C114 0.960 . S
C118 N119 1.342 . S
C118 C122 1.401 . S
C118 C123 1.499 . S
N119 Co102 1.989 . S
N119 C118 1.342 . S
N119 N120 1.388 . S
N120 Co103 1.993 . S
N120 N119 1.388 . S
N120 C121 1.346 . S
C121 N120 1.346 . S
C121 C122 1.396 . S
C121 C131 1.510 . S
C122 C118 1.401 . S
C122 C121 1.396 . S
C123 C118 1.499 . S
C123 H124 0.959 . S
C123 H125 0.960 . S
C123 H126 0.961 . S
H124 C123 0.959 . S
H125 C123 0.960 . S
H126 C123 0.961 . S
O127 Co102 1.967 . S
O127 C135 1.258 . S
O128 Co103 1.941 . S
O128 C135 1.266 . S
H129 C131 0.959 . S
H130 C131 0.961 . S
C131 C121 1.510 . S
C131 H129 0.959 . S
C131 H130 0.961 . S
C131 H132 0.960 . S
H132 C131 0.960 . S
H133 N113 0.862 . S
O134 Co102 1.920 . S
O134 C107 1.289 1_655 S
C135 O127 1.258 . S
C135 O128 1.266 . S
Co136 O139 1.970 . S
Co136 N153 1.989 . S
Co136 O161 1.967 . S
Co136 O168 1.920 . S
Co137 O140 1.966 . S
Co137 N146 2.022 1_556 S
Co137 N154 1.993 . S
Co137 O162 1.941 . S
C138 O139 1.258 . S
C138 O140 1.263 . S
O139 Co136 1.970 . S
O139 C138 1.258 . S
O140 Co137 1.966 . S
O140 C138 1.263 . S
C141 O142 1.235 . S
C141 O168 1.289 . S
O142 C141 1.235 . S
C143 C145 1.400 . S
C143 N146 1.351 . S
C143 C148 1.501 . S
C144 C145 1.387 . S
C144 N147 1.341 1_554 S
C145 C143 1.400 . S
C145 C144 1.387 . S
N146 Co137 2.022 1_554 S
N146 C143 1.351 . S
N146 N147 1.365 1_554 S
N147 C144 1.341 1_556 S
N147 N146 1.365 1_556 S
N147 H167 0.862 . S
C148 C143 1.501 . S
C148 H149 0.961 . S
C148 H150 0.961 . S
C148 H151 0.960 . S
H149 C148 0.961 . S
H150 C148 0.961 . S
H151 C148 0.960 . S
C152 N153 1.342 . S
C152 C156 1.401 . S
C152 C157 1.499 . S
N153 Co136 1.989 . S
N153 C152 1.342 . S
N153 N154 1.388 . S
N154 Co137 1.993 . S
N154 N153 1.388 . S
N154 C155 1.346 . S
C155 N154 1.346 . S
C155 C156 1.396 . S
C155 C165 1.510 . S
C156 C152 1.401 . S
C156 C155 1.396 . S
C157 C152 1.499 . S
C157 H158 0.959 . S
C157 H159 0.960 . S
C157 H160 0.961 . S
H158 C157 0.959 . S
H159 C157 0.960 . S
H160 C157 0.961 . S
O161 Co136 1.967 . S
O161 C169 1.258 . S
O162 Co137 1.941 . S
O162 C169 1.266 . S
H163 C165 0.959 . S
H164 C165 0.961 1_554 S
C165 C155 1.510 . S
C165 H163 0.959 . S
C165 H164 0.961 1_556 S
C165 H166 0.960 1_556 S
H166 C165 0.960 1_554 S
H167 N147 0.862 . S
O168 Co136 1.920 . S
O168 C141 1.289 . S
C169 O161 1.258 . S
C169 O162 1.266 . S
Co170 O173 1.970 . S
Co170 N187 1.989 . S
Co170 O195 1.967 . S
Co170 O202 1.920 . S
Co171 O174 1.966 . S
Co171 N180 2.022 1_554 S
Co171 N188 1.993 . S
Co171 O196 1.941 . S
C172 O173 1.258 . S
C172 O174 1.263 . S
O173 Co170 1.970 . S
O173 C172 1.258 . S
O174 Co171 1.966 . S
O174 C172 1.263 . S
C175 O176 1.235 . S
C175 O202 1.289 . S
O176 C175 1.235 . S
C177 C179 1.400 . S
C177 N180 1.351 . S
C177 C182 1.501 . S
C178 C179 1.387 . S
C178 N181 1.341 1_556 S
C179 C177 1.400 . S
C179 C178 1.387 . S
N180 Co171 2.022 1_556 S
N180 C177 1.351 . S
N180 N181 1.365 1_556 S
N181 C178 1.341 1_554 S
N181 N180 1.365 1_554 S
N181 H201 0.862 . S
C182 C177 1.501 . S
C182 H183 0.961 . S
C182 H184 0.961 . S
C182 H185 0.960 . S
H183 C182 0.961 . S
H184 C182 0.961 . S
H185 C182 0.960 . S
C186 N187 1.342 . S
C186 C190 1.401 . S
C186 C191 1.499 . S
N187 Co170 1.989 . S
N187 C186 1.342 . S
N187 N188 1.388 . S
N188 Co171 1.993 . S
N188 N187 1.388 . S
N188 C189 1.346 . S
C189 N188 1.346 . S
C189 C190 1.396 . S
C189 C199 1.510 . S
C190 C186 1.401 . S
C190 C189 1.396 . S
C191 C186 1.499 . S
C191 H192 0.959 . S
C191 H193 0.960 . S
C191 H194 0.961 . S
H192 C191 0.959 . S
H193 C191 0.960 . S
H194 C191 0.961 . S
O195 Co170 1.967 . S
O195 C203 1.258 . S
O196 Co171 1.941 . S
O196 C203 1.266 . S
H197 C199 0.959 . S
H198 C199 0.961 1_556 S
C199 C189 1.510 . S
C199 H197 0.959 . S
C199 H198 0.961 1_554 S
C199 H200 0.960 1_554 S
H200 C199 0.960 1_556 S
H201 N181 0.862 . S
O202 Co170 1.920 . S
O202 C175 1.289 . S
C203 O195 1.258 . S
C203 O196 1.266 . S
Co204 O207 1.970 . S
Co204 N221 1.989 . S
Co204 O229 1.967 . S
Co204 O236 1.920 . S
Co205 O208 1.966 . S
Co205 N214 2.022 1_556 S
Co205 N222 1.993 . S
Co205 O230 1.941 . S
C206 O207 1.258 . S
C206 O208 1.263 . S
O207 Co204 1.970 . S
O207 C206 1.258 . S
O208 Co205 1.966 . S
O208 C206 1.263 . S
C209 O210 1.235 . S
C209 O236 1.289 . S
O210 C209 1.235 . S
C211 C213 1.400 . S
C211 N214 1.351 . S
C211 C216 1.501 . S
C212 C213 1.387 . S
C212 N215 1.341 1_554 S
C213 C211 1.400 . S
C213 C212 1.387 . S
N214 Co205 2.022 1_554 S
N214 C211 1.351 . S
N214 N215 1.365 1_554 S
N215 C212 1.341 1_556 S
N215 N214 1.365 1_556 S
N215 H235 0.862 . S
C216 C211 1.501 . S
C216 H217 0.961 . S
C216 H218 0.961 . S
C216 H219 0.960 . S
H217 C216 0.961 . S
H218 C216 0.961 . S
H219 C216 0.960 . S
C220 N221 1.342 . S
C220 C224 1.401 . S
C220 C225 1.499 . S
N221 Co204 1.989 . S
N221 C220 1.342 . S
N221 N222 1.388 . S
N222 Co205 1.993 . S
N222 N221 1.388 . S
N222 C223 1.346 . S
C223 N222 1.346 . S
C223 C224 1.396 . S
C223 C233 1.510 . S
C224 C220 1.401 . S
C224 C223 1.396 . S
C225 C220 1.499 . S
C225 H226 0.959 . S
C225 H227 0.960 . S
C225 H228 0.961 . S
H226 C225 0.959 . S
H227 C225 0.960 . S
H228 C225 0.961 . S
O229 Co204 1.967 . S
O229 C237 1.258 . S
O230 Co205 1.941 . S
O230 C237 1.266 . S
H231 C233 0.959 . S
H232 C233 0.961 1_554 S
C233 C223 1.510 . S
C233 H231 0.959 . S
C233 H232 0.961 1_556 S
C233 H234 0.960 1_556 S
H234 C233 0.960 1_554 S
H235 N215 0.862 . S
O236 Co204 1.920 . S
O236 C209 1.289 . S
C237 O229 1.258 . S
C237 O230 1.266 . S
Co238 O241 1.970 . S
Co238 N255 1.989 . S
Co238 O263 1.967 . S
Co238 O270 1.920 . S
Co239 O242 1.966 . S
Co239 N248 2.022 1_554 S
Co239 N256 1.993 . S
Co239 O264 1.941 . S
C240 O241 1.258 . S
C240 O242 1.263 . S
O241 Co238 1.970 . S
O241 C240 1.258 . S
O242 Co239 1.966 . S
O242 C240 1.263 . S
C243 O244 1.235 . S
C243 O270 1.289 . S
O244 C243 1.235 . S
C245 C247 1.400 . S
C245 N248 1.351 . S
C245 C250 1.501 . S
C246 C247 1.387 . S
C246 N249 1.341 1_556 S
C247 C245 1.400 . S
C247 C246 1.387 . S
N248 Co239 2.022 1_556 S
N248 C245 1.351 . S
N248 N249 1.365 1_556 S
N249 C246 1.341 1_554 S
N249 N248 1.365 1_554 S
N249 H269 0.862 . S
C250 C245 1.501 . S
C250 H251 0.961 . S
C250 H252 0.961 . S
C250 H253 0.960 . S
H251 C250 0.961 . S
H252 C250 0.961 . S
H253 C250 0.960 . S
C254 N255 1.342 . S
C254 C258 1.401 . S
C254 C259 1.499 . S
N255 Co238 1.989 . S
N255 C254 1.342 . S
N255 N256 1.388 . S
N256 Co239 1.993 . S
N256 N255 1.388 . S
N256 C257 1.346 . S
C257 N256 1.346 . S
C257 C258 1.396 . S
C257 C267 1.510 . S
C258 C254 1.401 . S
C258 C257 1.396 . S
C259 C254 1.499 . S
C259 H260 0.959 . S
C259 H261 0.960 . S
C259 H262 0.961 . S
H260 C259 0.959 . S
H261 C259 0.960 . S
H262 C259 0.961 . S
O263 Co238 1.967 . S
O263 C271 1.258 . S
O264 Co239 1.941 . S
O264 C271 1.266 . S
H265 C267 0.959 . S
H266 C267 0.961 1_556 S
C267 C257 1.510 . S
C267 H265 0.959 . S
C267 H266 0.961 1_554 S
C267 H268 0.960 1_554 S
H268 C267 0.960 1_556 S
H269 N249 0.862 . S
O270 Co238 1.920 . S
O270 C243 1.289 . S
C271 O263 1.258 . S
C271 O264 1.266 . S
Co272 O275 1.970 . S
Co272 N289 1.989 . S
Co272 O297 1.967 . S
Co272 O304 1.920 . S
Co273 O276 1.966 . S
Co273 N282 2.022 . S
Co273 N290 1.993 . S
Co273 O298 1.941 . S
C274 O275 1.258 . S
C274 O276 1.263 . S
O275 Co272 1.970 . S
O275 C274 1.258 . S
O276 Co273 1.966 . S
O276 C274 1.263 . S
C277 O278 1.235 . S
C277 O304 1.289 . S
O278 C277 1.235 . S
C279 C281 1.400 . S
C279 N282 1.351 . S
C279 C284 1.501 . S
C280 C281 1.387 . S
C280 N283 1.341 . S
C281 C279 1.400 . S
C281 C280 1.387 . S
N282 Co273 2.022 . S
N282 C279 1.351 . S
N282 N283 1.365 . S
N283 C280 1.341 . S
N283 N282 1.365 . S
N283 H303 0.862 . S
C284 C279 1.501 . S
C284 H285 0.961 . S
C284 H286 0.961 . S
C284 H287 0.960 . S
H285 C284 0.961 . S
H286 C284 0.961 . S
H287 C284 0.960 . S
C288 N289 1.342 . S
C288 C292 1.401 . S
C288 C293 1.499 . S
N289 Co272 1.989 . S
N289 C288 1.342 . S
N289 N290 1.388 . S
N290 Co273 1.993 . S
N290 N289 1.388 . S
N290 C291 1.346 . S
C291 N290 1.346 . S
C291 C292 1.396 . S
C291 C301 1.510 . S
C292 C288 1.401 . S
C292 C291 1.396 . S
C293 C288 1.499 . S
C293 H294 0.959 . S
C293 H295 0.960 . S
C293 H296 0.961 . S
H294 C293 0.959 . S
H295 C293 0.960 . S
H296 C293 0.961 . S
O297 Co272 1.967 . S
O297 C305 1.258 . S
O298 Co273 1.941 . S
O298 C305 1.266 . S
H299 C301 0.959 . S
H300 C301 0.961 . S
C301 C291 1.510 . S
C301 H299 0.959 . S
C301 H300 0.961 . S
C301 H302 0.960 . S
H302 C301 0.960 . S
H303 N283 0.862 . S
O304 Co272 1.920 . S
O304 C277 1.289 . S
C305 O297 1.258 . S
C305 O298 1.266 . S
Co306 O309 1.970 . S
Co306 N323 1.989 . S
Co306 O331 1.967 . S
Co306 O338 1.920 . S
Co307 O310 1.966 . S
Co307 N316 2.022 . S
Co307 N324 1.993 . S
Co307 O332 1.941 . S
C308 O309 1.258 . S
C308 O310 1.263 . S
O309 Co306 1.970 . S
O309 C308 1.258 . S
O310 Co307 1.966 . S
O310 C308 1.263 . S
C311 O312 1.235 . S
C311 O338 1.289 . S
O312 C311 1.235 . S
C313 C315 1.400 . S
C313 N316 1.351 . S
C313 C318 1.501 . S
C314 C315 1.387 . S
C314 N317 1.341 . S
C315 C313 1.400 . S
C315 C314 1.387 . S
N316 Co307 2.022 . S
N316 C313 1.351 . S
N316 N317 1.365 . S
N317 C314 1.341 . S
N317 N316 1.365 . S
N317 H337 0.862 . S
C318 C313 1.501 . S
C318 H319 0.961 . S
C318 H320 0.961 . S
C318 H321 0.960 . S
H319 C318 0.961 . S
H320 C318 0.961 . S
H321 C318 0.960 . S
C322 N323 1.342 . S
C322 C326 1.401 . S
C322 C327 1.499 . S
N323 Co306 1.989 . S
N323 C322 1.342 . S
N323 N324 1.388 . S
N324 Co307 1.993 . S
N324 N323 1.388 . S
N324 C325 1.346 . S
C325 N324 1.346 . S
C325 C326 1.396 . S
C325 C335 1.510 . S
C326 C322 1.401 . S
C326 C325 1.396 . S
C327 C322 1.499 . S
C327 H328 0.959 . S
C327 H329 0.960 . S
C327 H330 0.961 . S
H328 C327 0.959 . S
H329 C327 0.960 . S
H330 C327 0.961 . S
O331 Co306 1.967 . S
O331 C339 1.258 . S
O332 Co307 1.941 . S
O332 C339 1.266 . S
H333 C335 0.959 . S
H334 C335 0.961 . S
C335 C325 1.510 . S
C335 H333 0.959 . S
C335 H334 0.961 . S
C335 H336 0.960 . S
H336 C335 0.960 . S
H337 N317 0.862 . S
O338 Co306 1.920 . S
O338 C311 1.289 . S
C339 O331 1.258 . S
C339 O332 1.266 . S
Co340 O343 1.970 . S
Co340 N357 1.989 . S
Co340 O365 1.967 . S
Co340 O372 1.920 . S
Co341 O344 1.966 . S
Co341 N350 2.022 . S
Co341 N358 1.993 . S
Co341 O366 1.941 . S
C342 O343 1.258 . S
C342 O344 1.263 . S
O343 Co340 1.970 . S
O343 C342 1.258 . S
O344 Co341 1.966 . S
O344 C342 1.263 . S
C345 O346 1.235 . S
C345 O372 1.289 . S
O346 C345 1.235 . S
C347 C349 1.400 . S
C347 N350 1.351 . S
C347 C352 1.501 . S
C348 C349 1.387 . S
C348 N351 1.341 . S
C349 C347 1.400 . S
C349 C348 1.387 . S
N350 Co341 2.022 . S
N350 C347 1.351 . S
N350 N351 1.365 . S
N351 C348 1.341 . S
N351 N350 1.365 . S
N351 H371 0.862 . S
C352 C347 1.501 . S
C352 H353 0.961 . S
C352 H354 0.961 . S
C352 H355 0.960 . S
H353 C352 0.961 . S
H354 C352 0.961 . S
H355 C352 0.960 . S
C356 N357 1.342 . S
C356 C360 1.401 . S
C356 C361 1.499 . S
N357 Co340 1.989 . S
N357 C356 1.342 . S
N357 N358 1.388 . S
N358 Co341 1.993 . S
N358 N357 1.388 . S
N358 C359 1.346 . S
C359 N358 1.346 . S
C359 C360 1.396 . S
C359 C369 1.510 . S
C360 C356 1.401 . S
C360 C359 1.396 . S
C361 C356 1.499 . S
C361 H362 0.959 . S
C361 H363 0.960 . S
C361 H364 0.961 . S
H362 C361 0.959 . S
H363 C361 0.960 . S
H364 C361 0.961 . S
O365 Co340 1.967 . S
O365 C373 1.258 . S
O366 Co341 1.941 . S
O366 C373 1.266 . S
H367 C369 0.959 . S
H368 C369 0.961 . S
C369 C359 1.510 . S
C369 H367 0.959 . S
C369 H368 0.961 . S
C369 H370 0.960 . S
H370 C369 0.960 . S
H371 N351 0.862 . S
O372 Co340 1.920 . S
O372 C345 1.289 . S
C373 O365 1.258 . S
C373 O366 1.266 . S
Co374 O377 1.970 . S
Co374 N391 1.989 . S
Co374 O399 1.967 . S
Co374 O406 1.920 . S
Co375 O378 1.966 . S
Co375 N384 2.022 . S
Co375 N392 1.993 . S
Co375 O400 1.941 . S
C376 O377 1.258 . S
C376 O378 1.263 . S
O377 Co374 1.970 . S
O377 C376 1.258 . S
O378 Co375 1.966 . S
O378 C376 1.263 . S
C379 O380 1.235 . S
C379 O406 1.289 . S
O380 C379 1.235 . S
C381 C383 1.400 . S
C381 N384 1.351 . S
C381 C386 1.501 . S
C382 C383 1.387 . S
C382 N385 1.341 . S
C383 C381 1.400 . S
C383 C382 1.387 . S
N384 Co375 2.022 . S
N384 C381 1.351 . S
N384 N385 1.365 . S
N385 C382 1.341 . S
N385 N384 1.365 . S
N385 H405 0.862 . S
C386 C381 1.501 . S
C386 H387 0.961 . S
C386 H388 0.961 . S
C386 H389 0.960 . S
H387 C386 0.961 . S
H388 C386 0.961 . S
H389 C386 0.960 . S
C390 N391 1.342 . S
C390 C394 1.401 . S
C390 C395 1.499 . S
N391 Co374 1.989 . S
N391 C390 1.342 . S
N391 N392 1.388 . S
N392 Co375 1.993 . S
N392 N391 1.388 . S
N392 C393 1.346 . S
C393 N392 1.346 . S
C393 C394 1.396 . S
C393 C403 1.510 . S
C394 C390 1.401 . S
C394 C393 1.396 . S
C395 C390 1.499 . S
C395 H396 0.959 . S
C395 H397 0.960 . S
C395 H398 0.961 . S
H396 C395 0.959 . S
H397 C395 0.960 . S
H398 C395 0.961 . S
O399 Co374 1.967 . S
O399 C407 1.258 . S
O400 Co375 1.941 . S
O400 C407 1.266 . S
H401 C403 0.959 . S
H402 C403 0.961 . S
C403 C393 1.510 . S
C403 H401 0.959 . S
C403 H402 0.961 . S
C403 H404 0.960 . S
H404 C403 0.960 . S
H405 N385 0.862 . S
O406 Co374 1.920 . S
O406 C379 1.289 . S
C407 O399 1.258 . S
C407 O400 1.266 . S
Co408 O411 1.970 . S
Co408 N425 1.989 . S
Co408 O433 1.967 . S
Co408 O440 1.920 . S
Co409 O412 1.966 . S
Co409 N418 2.022 . S
Co409 N426 1.993 . S
Co409 O434 1.941 . S
C410 O411 1.258 . S
C410 O412 1.263 . S
O411 Co408 1.970 . S
O411 C410 1.258 . S
O412 Co409 1.966 . S
O412 C410 1.263 . S
C413 O414 1.235 . S
C413 O440 1.289 1_545 S
O414 C413 1.235 . S
C415 C417 1.400 . S
C415 N418 1.351 . S
C415 C420 1.501 . S
C416 C417 1.387 . S
C416 N419 1.341 . S
C417 C415 1.400 . S
C417 C416 1.387 . S
N418 Co409 2.022 . S
N418 C415 1.351 . S
N418 N419 1.365 . S
N419 C416 1.341 . S
N419 N418 1.365 . S
N419 H439 0.862 . S
C420 C415 1.501 . S
C420 H421 0.961 . S
C420 H422 0.961 . S
C420 H423 0.960 . S
H421 C420 0.961 . S
H422 C420 0.961 . S
H423 C420 0.960 . S
C424 N425 1.342 . S
C424 C428 1.401 . S
C424 C429 1.499 . S
N425 Co408 1.989 . S
N425 C424 1.342 . S
N425 N426 1.388 . S
N426 Co409 1.993 . S
N426 N425 1.388 . S
N426 C427 1.346 . S
C427 N426 1.346 . S
C427 C428 1.396 . S
C427 C437 1.510 . S
C428 C424 1.401 . S
C428 C427 1.396 . S
C429 C424 1.499 . S
C429 H430 0.959 . S
C429 H431 0.960 . S
C429 H432 0.961 . S
H430 C429 0.959 . S
H431 C429 0.960 . S
H432 C429 0.961 . S
O433 Co408 1.967 . S
O433 C441 1.258 . S
O434 Co409 1.941 . S
O434 C441 1.266 . S
H435 C437 0.959 . S
H436 C437 0.961 . S
C437 C427 1.510 . S
C437 H435 0.959 . S
C437 H436 0.961 . S
C437 H438 0.960 . S
H438 C437 0.960 . S
H439 N419 0.862 . S
O440 Co408 1.920 . S
O440 C413 1.289 1_565 S
C441 O433 1.258 . S
C441 O434 1.266 . S
Co442 O445 1.970 . S
Co442 N459 1.989 . S
Co442 O467 1.967 . S
Co442 O474 1.920 . S
Co443 O446 1.966 . S
Co443 N452 2.022 . S
Co443 N460 1.993 . S
Co443 O468 1.941 . S
C444 O445 1.258 . S
C444 O446 1.263 . S
O445 Co442 1.970 . S
O445 C444 1.258 . S
O446 Co443 1.966 . S
O446 C444 1.263 . S
C447 O448 1.235 . S
C447 O474 1.289 1_455 S
O448 C447 1.235 . S
C449 C451 1.400 . S
C449 N452 1.351 . S
C449 C454 1.501 . S
C450 C451 1.387 . S
C450 N453 1.341 . S
C451 C449 1.400 . S
C451 C450 1.387 . S
N452 Co443 2.022 . S
N452 C449 1.351 . S
N452 N453 1.365 . S
N453 C450 1.341 . S
N453 N452 1.365 . S
N453 H473 0.862 . S
C454 C449 1.501 . S
C454 H455 0.961 . S
C454 H456 0.961 . S
C454 H457 0.960 . S
H455 C454 0.961 . S
H456 C454 0.961 . S
H457 C454 0.960 . S
C458 N459 1.342 . S
C458 C462 1.401 . S
C458 C463 1.499 . S
N459 Co442 1.989 . S
N459 C458 1.342 . S
N459 N460 1.388 . S
N460 Co443 1.993 . S
N460 N459 1.388 . S
N460 C461 1.346 . S
C461 N460 1.346 . S
C461 C462 1.396 . S
C461 C471 1.510 . S
C462 C458 1.401 . S
C462 C461 1.396 . S
C463 C458 1.499 . S
C463 H464 0.959 . S
C463 H465 0.960 . S
C463 H466 0.961 . S
H464 C463 0.959 . S
H465 C463 0.960 . S
H466 C463 0.961 . S
O467 Co442 1.967 . S
O467 C475 1.258 . S
O468 Co443 1.941 . S
O468 C475 1.266 . S
H469 C471 0.959 . S
H470 C471 0.961 . S
C471 C461 1.510 . S
C471 H469 0.959 . S
C471 H470 0.961 . S
C471 H472 0.960 . S
H472 C471 0.960 . S
H473 N453 0.862 . S
O474 Co442 1.920 . S
O474 C447 1.289 1_655 S
C475 O467 1.258 . S
C475 O468 1.266 . S
Co476 O479 1.970 . S
Co476 N493 1.989 . S
Co476 O501 1.967 . S
Co476 O508 1.920 . S
Co477 O480 1.966 . S
Co477 N486 2.022 . S
Co477 N494 1.993 . S
Co477 O502 1.941 . S
C478 O479 1.258 . S
C478 O480 1.263 . S
O479 Co476 1.970 . S
O479 C478 1.258 . S
O480 Co477 1.966 . S
O480 C478 1.263 . S
C481 O482 1.235 . S
C481 O508 1.289 1_565 S
O482 C481 1.235 . S
C483 C485 1.400 . S
C483 N486 1.351 . S
C483 C488 1.501 . S
C484 C485 1.387 . S
C484 N487 1.341 . S
C485 C483 1.400 . S
C485 C484 1.387 . S
N486 Co477 2.022 . S
N486 C483 1.351 . S
N486 N487 1.365 . S
N487 C484 1.341 . S
N487 N486 1.365 . S
N487 H507 0.862 . S
C488 C483 1.501 . S
C488 H489 0.961 . S
C488 H490 0.961 . S
C488 H491 0.960 . S
H489 C488 0.961 . S
H490 C488 0.961 . S
H491 C488 0.960 . S
C492 N493 1.342 . S
C492 C496 1.401 . S
C492 C497 1.499 . S
N493 Co476 1.989 . S
N493 C492 1.342 . S
N493 N494 1.388 . S
N494 Co477 1.993 . S
N494 N493 1.388 . S
N494 C495 1.346 . S
C495 N494 1.346 . S
C495 C496 1.396 . S
C495 C505 1.510 . S
C496 C492 1.401 . S
C496 C495 1.396 . S
C497 C492 1.499 . S
C497 H498 0.959 . S
C497 H499 0.960 . S
C497 H500 0.961 . S
H498 C497 0.959 . S
H499 C497 0.960 . S
H500 C497 0.961 . S
O501 Co476 1.967 . S
O501 C509 1.258 . S
O502 Co477 1.941 . S
O502 C509 1.266 . S
H503 C505 0.959 . S
H504 C505 0.961 . S
C505 C495 1.510 . S
C505 H503 0.959 . S
C505 H504 0.961 . S
C505 H506 0.960 . S
H506 C505 0.960 . S
H507 N487 0.862 . S
O508 Co476 1.920 . S
O508 C481 1.289 1_545 S
C509 O501 1.258 . S
C509 O502 1.266 . S
Co510 O513 1.970 . S
Co510 N527 1.989 . S
Co510 O535 1.967 . S
Co510 O542 1.920 . S
Co511 O514 1.966 . S
Co511 N520 2.022 . S
Co511 N528 1.993 . S
Co511 O536 1.941 . S
C512 O513 1.258 . S
C512 O514 1.263 . S
O513 Co510 1.970 . S
O513 C512 1.258 . S
O514 Co511 1.966 . S
O514 C512 1.263 . S
C515 O516 1.235 . S
C515 O542 1.289 1_655 S
O516 C515 1.235 . S
C517 C519 1.400 . S
C517 N520 1.351 . S
C517 C522 1.501 . S
C518 C519 1.387 . S
C518 N521 1.341 . S
C519 C517 1.400 . S
C519 C518 1.387 . S
N520 Co511 2.022 . S
N520 C517 1.351 . S
N520 N521 1.365 . S
N521 C518 1.341 . S
N521 N520 1.365 . S
N521 H541 0.862 . S
C522 C517 1.501 . S
C522 H523 0.961 . S
C522 H524 0.961 . S
C522 H525 0.960 . S
H523 C522 0.961 . S
H524 C522 0.961 . S
H525 C522 0.960 . S
C526 N527 1.342 . S
C526 C530 1.401 . S
C526 C531 1.499 . S
N527 Co510 1.989 . S
N527 C526 1.342 . S
N527 N528 1.388 . S
N528 Co511 1.993 . S
N528 N527 1.388 . S
N528 C529 1.346 . S
C529 N528 1.346 . S
C529 C530 1.396 . S
C529 C539 1.510 . S
C530 C526 1.401 . S
C530 C529 1.396 . S
C531 C526 1.499 . S
C531 H532 0.959 . S
C531 H533 0.960 . S
C531 H534 0.961 . S
H532 C531 0.959 . S
H533 C531 0.960 . S
H534 C531 0.961 . S
O535 Co510 1.967 . S
O535 C543 1.258 . S
O536 Co511 1.941 . S
O536 C543 1.266 . S
H537 C539 0.959 . S
H538 C539 0.961 . S
C539 C529 1.510 . S
C539 H537 0.959 . S
C539 H538 0.961 . S
C539 H540 0.960 . S
H540 C539 0.960 . S
H541 N521 0.862 . S
O542 Co510 1.920 . S
O542 C515 1.289 1_455 S
C543 O535 1.258 . S
C543 O536 1.266 . S
H544 C550 0.930 . S
H545 C553 0.930 . S
H546 C554 0.930 . S
H547 C555 0.930 . S
H548 C558 0.930 . S
H549 C559 0.930 . S
C550 H544 0.930 . S
C550 C551 1.355 . S
C550 C552 1.415 . S
C551 C550 1.355 . S
C551 C553 1.419 . S
C552 C550 1.415 . S
C552 C557 1.425 . S
C552 C559 1.409 . S
C553 H545 0.930 . S
C553 C551 1.419 . S
C553 C554 1.362 . S
C554 H546 0.930 . S
C554 C553 1.362 . S
C554 C557 1.409 . S
C555 H547 0.930 . S
C555 C556 1.355 . S
C555 C557 1.415 . S
C556 C555 1.355 . S
C556 C558 1.419 . S
C557 C552 1.425 . S
C557 C554 1.409 . S
C557 C555 1.415 . S
C558 H548 0.930 . S
C558 C556 1.419 . S
C558 C559 1.362 . S
C559 H549 0.930 . S
C559 C552 1.409 . S
C559 C558 1.362 . S
H560 C566 0.930 . S
H561 C569 0.930 . S
H562 C570 0.930 . S
H563 C571 0.930 . S
H564 C574 0.930 . S
H565 C575 0.930 . S
C566 H560 0.930 . S
C566 C567 1.355 . S
C566 C568 1.415 . S
C567 C566 1.355 . S
C567 C569 1.419 . S
C568 C566 1.415 . S
C568 C573 1.425 . S
C568 C575 1.409 . S
C569 H561 0.930 . S
C569 C567 1.419 . S
C569 C570 1.362 . S
C570 H562 0.930 . S
C570 C569 1.362 . S
C570 C573 1.409 . S
C571 H563 0.930 . S
C571 C572 1.355 . S
C571 C573 1.415 . S
C572 C571 1.355 . S
C572 C574 1.419 . S
C573 C568 1.425 . S
C573 C570 1.409 . S
C573 C571 1.415 . S
C574 H564 0.930 . S
C574 C572 1.419 . S
C574 C575 1.362 . S
C575 H565 0.930 . S
C575 C568 1.409 . S
C575 C574 1.362 . S
H576 C582 0.930 . S
H577 C585 0.930 . S
H578 C586 0.930 . S
H579 C587 0.930 . S
H580 C590 0.930 . S
H581 C591 0.930 . S
C582 H576 0.930 . S
C582 C583 1.355 . S
C582 C584 1.415 . S
C583 C582 1.355 . S
C583 C585 1.419 . S
C584 C582 1.415 . S
C584 C589 1.425 . S
C584 C591 1.409 . S
C585 H577 0.930 . S
C585 C583 1.419 . S
C585 C586 1.362 . S
C586 H578 0.930 . S
C586 C585 1.362 . S
C586 C589 1.409 . S
C587 H579 0.930 . S
C587 C588 1.355 . S
C587 C589 1.415 . S
C588 C587 1.355 . S
C588 C590 1.419 . S
C589 C584 1.425 . S
C589 C586 1.409 . S
C589 C587 1.415 . S
C590 H580 0.930 . S
C590 C588 1.419 . S
C590 C591 1.362 . S
C591 H581 0.930 . S
C591 C584 1.409 . S
C591 C590 1.362 . S
H592 C598 0.930 . S
H593 C601 0.930 . S
H594 C602 0.930 . S
H595 C603 0.930 . S
H596 C606 0.930 . S
H597 C607 0.930 . S
C598 H592 0.930 . S
C598 C599 1.355 . S
C598 C600 1.415 . S
C599 C598 1.355 . S
C599 C601 1.419 . S
C600 C598 1.415 . S
C600 C605 1.425 . S
C600 C607 1.409 . S
C601 H593 0.930 . S
C601 C599 1.419 . S
C601 C602 1.362 . S
C602 H594 0.930 . S
C602 C601 1.362 . S
C602 C605 1.409 . S
C603 H595 0.930 . S
C603 C604 1.355 . S
C603 C605 1.415 . S
C604 C603 1.355 . S
C604 C606 1.419 . S
C605 C600 1.425 . S
C605 C602 1.409 . S
C605 C603 1.415 . S
C606 H596 0.930 . S
C606 C604 1.419 . S
C606 C607 1.362 . S
C607 H597 0.930 . S
C607 C600 1.409 . S
C607 C606 1.362 . S
H608 C614 0.930 . S
H609 C617 0.930 . S
H610 C618 0.930 . S
H611 C619 0.930 . S
H612 C622 0.930 . S
H613 C623 0.930 . S
C614 H608 0.930 . S
C614 C615 1.355 . S
C614 C616 1.415 . S
C615 C614 1.355 . S
C615 C617 1.419 . S
C616 C614 1.415 . S
C616 C621 1.425 . S
C616 C623 1.409 . S
C617 H609 0.930 . S
C617 C615 1.419 . S
C617 C618 1.362 . S
C618 H610 0.930 . S
C618 C617 1.362 . S
C618 C621 1.409 . S
C619 H611 0.930 . S
C619 C620 1.355 . S
C619 C621 1.415 . S
C620 C619 1.355 . S
C620 C622 1.419 . S
C621 C616 1.425 . S
C621 C618 1.409 . S
C621 C619 1.415 . S
C622 H612 0.930 . S
C622 C620 1.419 . S
C622 C623 1.362 . S
C623 H613 0.930 . S
C623 C616 1.409 . S
C623 C622 1.362 . S
H624 C630 0.930 . S
H625 C633 0.930 . S
H626 C634 0.930 . S
H627 C635 0.930 . S
H628 C638 0.930 . S
H629 C639 0.930 . S
C630 H624 0.930 . S
C630 C631 1.355 . S
C630 C632 1.415 . S
C631 C630 1.355 . S
C631 C633 1.419 . S
C632 C630 1.415 . S
C632 C637 1.425 . S
C632 C639 1.409 . S
C633 H625 0.930 . S
C633 C631 1.419 . S
C633 C634 1.362 . S
C634 H626 0.930 . S
C634 C633 1.362 . S
C634 C637 1.409 . S
C635 H627 0.930 . S
C635 C636 1.355 . S
C635 C637 1.415 . S
C636 C635 1.355 . S
C636 C638 1.419 . S
C637 C632 1.425 . S
C637 C634 1.409 . S
C637 C635 1.415 . S
C638 H628 0.930 . S
C638 C636 1.419 . S
C638 C639 1.362 . S
C639 H629 0.930 . S
C639 C632 1.409 . S
C639 C638 1.362 . S
H640 C646 0.930 . S
H641 C649 0.930 . S
H642 C650 0.930 . S
H643 C651 0.930 . S
H644 C654 0.930 . S
H645 C655 0.930 . S
C646 H640 0.930 . S
C646 C647 1.355 . S
C646 C648 1.415 . S
C647 C646 1.355 . S
C647 C649 1.419 . S
C648 C646 1.415 . S
C648 C653 1.425 . S
C648 C655 1.409 . S
C649 H641 0.930 . S
C649 C647 1.419 . S
C649 C650 1.362 . S
C650 H642 0.930 . S
C650 C649 1.362 . S
C650 C653 1.409 . S
C651 H643 0.930 . S
C651 C652 1.355 . S
C651 C653 1.415 . S
C652 C651 1.355 . S
C652 C654 1.419 . S
C653 C648 1.425 . S
C653 C650 1.409 . S
C653 C651 1.415 . S
C654 H644 0.930 . S
C654 C652 1.419 . S
C654 C655 1.362 . S
C655 H645 0.930 . S
C655 C648 1.409 . S
C655 C654 1.362 . S
H656 C662 0.930 . S
H657 C665 0.930 . S
H658 C666 0.930 . S
H659 C667 0.930 . S
H660 C670 0.930 . S
H661 C671 0.930 . S
C662 H656 0.930 . S
C662 C663 1.355 . S
C662 C664 1.415 . S
C663 C662 1.355 . S
C663 C665 1.419 . S
C664 C662 1.415 . S
C664 C669 1.425 . S
C664 C671 1.409 . S
C665 H657 0.930 . S
C665 C663 1.419 . S
C665 C666 1.362 . S
C666 H658 0.930 . S
C666 C665 1.362 . S
C666 C669 1.409 . S
C667 H659 0.930 . S
C667 C668 1.355 . S
C667 C669 1.415 . S
C668 C667 1.355 . S
C668 C670 1.419 . S
C669 C664 1.425 . S
C669 C666 1.409 . S
C669 C667 1.415 . S
C670 H660 0.930 . S
C670 C668 1.419 . S
C670 C671 1.362 . S
C671 H661 0.930 . S
C671 C664 1.409 . S
C671 C670 1.362 . S
H672 C678 0.930 . S
H673 C681 0.930 . S
H674 C682 0.930 . S
H675 C683 0.930 . S
H676 C686 0.930 . S
H677 C687 0.930 . S
C678 H672 0.930 . S
C678 C679 1.355 . S
C678 C680 1.415 . S
C679 C678 1.355 . S
C679 C681 1.419 . S
C680 C678 1.415 . S
C680 C685 1.425 . S
C680 C687 1.409 . S
C681 H673 0.930 . S
C681 C679 1.419 . S
C681 C682 1.362 . S
C682 H674 0.930 . S
C682 C681 1.362 . S
C682 C685 1.409 . S
C683 H675 0.930 . S
C683 C684 1.355 . S
C683 C685 1.415 . S
C684 C683 1.355 . S
C684 C686 1.419 . S
C685 C680 1.425 . S
C685 C682 1.409 . S
C685 C683 1.415 . S
C686 H676 0.930 . S
C686 C684 1.419 . S
C686 C687 1.362 . S
C687 H677 0.930 . S
C687 C680 1.409 . S
C687 C686 1.362 . S
H688 C694 0.930 . S
H689 C697 0.930 . S
H690 C698 0.930 . S
H691 C699 0.930 . S
H692 C702 0.930 . S
H693 C703 0.930 . S
C694 H688 0.930 . S
C694 C695 1.355 . S
C694 C696 1.415 . S
C695 C694 1.355 . S
C695 C697 1.419 . S
C696 C694 1.415 . S
C696 C701 1.425 . S
C696 C703 1.409 . S
C697 H689 0.930 . S
C697 C695 1.419 . S
C697 C698 1.362 . S
C698 H690 0.930 . S
C698 C697 1.362 . S
C698 C701 1.409 . S
C699 H691 0.930 . S
C699 C700 1.355 . S
C699 C701 1.415 . S
C700 C699 1.355 . S
C700 C702 1.419 . S
C701 C696 1.425 . S
C701 C698 1.409 . S
C701 C699 1.415 . S
C702 H692 0.930 . S
C702 C700 1.419 . S
C702 C703 1.362 . S
C703 H693 0.930 . S
C703 C696 1.409 . S
C703 C702 1.362 . S
H704 C710 0.930 . S
H705 C713 0.930 . S
H706 C714 0.930 . S
H707 C715 0.930 . S
H708 C718 0.930 . S
H709 C719 0.930 . S
C710 H704 0.930 . S
C710 C711 1.355 . S
C710 C712 1.415 . S
C711 C710 1.355 . S
C711 C713 1.419 . S
C712 C710 1.415 . S
C712 C717 1.425 . S
C712 C719 1.409 . S
C713 H705 0.930 . S
C713 C711 1.419 . S
C713 C714 1.362 . S
C714 H706 0.930 . S
C714 C713 1.362 . S
C714 C717 1.409 . S
C715 H707 0.930 . S
C715 C716 1.355 . S
C715 C717 1.415 . S
C716 C715 1.355 . S
C716 C718 1.419 . S
C717 C712 1.425 . S
C717 C714 1.409 . S
C717 C715 1.415 . S
C718 H708 0.930 . S
C718 C716 1.419 . S
C718 C719 1.362 . S
C719 H709 0.930 . S
C719 C712 1.409 . S
C719 C718 1.362 . S
H720 C726 0.930 . S
H721 C729 0.930 . S
H722 C730 0.930 . S
H723 C731 0.930 . S
H724 C734 0.930 . S
H725 C735 0.930 . S
C726 H720 0.930 . S
C726 C727 1.355 . S
C726 C728 1.415 . S
C727 C726 1.355 . S
C727 C729 1.419 . S
C728 C726 1.415 . S
C728 C733 1.425 . S
C728 C735 1.409 . S
C729 H721 0.930 . S
C729 C727 1.419 . S
C729 C730 1.362 . S
C730 H722 0.930 . S
C730 C729 1.362 . S
C730 C733 1.409 . S
C731 H723 0.930 . S
C731 C732 1.355 . S
C731 C733 1.415 . S
C732 C731 1.355 . S
C732 C734 1.419 . S
C733 C728 1.425 . S
C733 C730 1.409 . S
C733 C731 1.415 . S
C734 H724 0.930 . S
C734 C732 1.419 . S
C734 C735 1.362 . S
C735 H725 0.930 . S
C735 C728 1.409 . S
C735 C734 1.362 . S
H736 C742 0.930 . S
H737 C745 0.930 . S
H738 C746 0.930 . S
H739 C747 0.930 . S
H740 C750 0.930 . S
H741 C751 0.930 . S
C742 H736 0.930 . S
C742 C743 1.355 . S
C742 C744 1.415 . S
C743 C742 1.355 . S
C743 C745 1.419 . S
C744 C742 1.415 . S
C744 C749 1.425 . S
C744 C751 1.409 . S
C745 H737 0.930 . S
C745 C743 1.419 . S
C745 C746 1.362 . S
C746 H738 0.930 . S
C746 C745 1.362 . S
C746 C749 1.409 . S
C747 H739 0.930 . S
C747 C748 1.355 . S
C747 C749 1.415 . S
C748 C747 1.355 . S
C748 C750 1.419 . S
C749 C744 1.425 . S
C749 C746 1.409 . S
C749 C747 1.415 . S
C750 H740 0.930 . S
C750 C748 1.419 . S
C750 C751 1.362 . S
C751 H741 0.930 . S
C751 C744 1.409 . S
C751 C750 1.362 . S
H752 C758 0.930 . S
H753 C761 0.930 . S
H754 C762 0.930 . S
H755 C763 0.930 . S
H756 C766 0.930 . S
H757 C767 0.930 . S
C758 H752 0.930 . S
C758 C759 1.355 . S
C758 C760 1.415 . S
C759 C758 1.355 . S
C759 C761 1.419 . S
C760 C758 1.415 . S
C760 C765 1.425 . S
C760 C767 1.409 . S
C761 H753 0.930 . S
C761 C759 1.419 . S
C761 C762 1.362 . S
C762 H754 0.930 . S
C762 C761 1.362 . S
C762 C765 1.409 . S
C763 H755 0.930 . S
C763 C764 1.355 . S
C763 C765 1.415 . S
C764 C763 1.355 . S
C764 C766 1.419 . S
C765 C760 1.425 . S
C765 C762 1.409 . S
C765 C763 1.415 . S
C766 H756 0.930 . S
C766 C764 1.419 . S
C766 C767 1.362 . S
C767 H757 0.930 . S
C767 C760 1.409 . S
C767 C766 1.362 . S
H768 C774 0.930 . S
H769 C777 0.930 . S
H770 C778 0.930 . S
H771 C779 0.930 . S
H772 C782 0.930 . S
H773 C783 0.930 . S
C774 H768 0.930 . S
C774 C775 1.355 . S
C774 C776 1.415 . S
C775 C774 1.355 . S
C775 C777 1.419 . S
C776 C774 1.415 . S
C776 C781 1.425 . S
C776 C783 1.409 . S
C777 H769 0.930 . S
C777 C775 1.419 . S
C777 C778 1.362 . S
C778 H770 0.930 . S
C778 C777 1.362 . S
C778 C781 1.409 . S
C779 H771 0.930 . S
C779 C780 1.355 . S
C779 C781 1.415 . S
C780 C779 1.355 . S
C780 C782 1.419 . S
C781 C776 1.425 . S
C781 C778 1.409 . S
C781 C779 1.415 . S
C782 H772 0.930 . S
C782 C780 1.419 . S
C782 C783 1.362 . S
C783 H773 0.930 . S
C783 C776 1.409 . S
C783 C782 1.362 . S
H784 C790 0.930 . S
H785 C793 0.930 . S
H786 C794 0.930 . S
H787 C795 0.930 . S
H788 C798 0.930 . S
H789 C799 0.930 . S
C790 H784 0.930 . S
C790 C791 1.355 . S
C790 C792 1.415 . S
C791 C790 1.355 . S
C791 C793 1.419 . S
C792 C790 1.415 . S
C792 C797 1.425 . S
C792 C799 1.409 . S
C793 H785 0.930 . S
C793 C791 1.419 . S
C793 C794 1.362 . S
C794 H786 0.930 . S
C794 C793 1.362 . S
C794 C797 1.409 . S
C795 H787 0.930 . S
C795 C796 1.355 . S
C795 C797 1.415 . S
C796 C795 1.355 . S
C796 C798 1.419 . S
C797 C792 1.425 . S
C797 C794 1.409 . S
C797 C795 1.415 . S
C798 H788 0.930 . S
C798 C796 1.419 . S
C798 C799 1.362 . S
C799 H789 0.930 . S
C799 C792 1.409 . S
C799 C798 1.362 . S
H800 C806 0.930 . S
H801 C809 0.926 1_565 S
H802 C810 0.930 . S
H803 C811 0.930 . S
H804 C814 0.926 1_545 S
H805 C815 0.930 . S
C806 H800 0.930 . S
C806 C807 1.355 . S
C806 C808 1.415 1_455 S
C807 C806 1.355 . S
C807 C809 1.419 . S
C808 C806 1.415 1_655 S
C808 C813 1.425 1_645 S
C808 C815 1.409 . S
C809 H801 0.926 1_545 S
C809 C807 1.419 . S
C809 C810 1.362 1_545 S
C810 H802 0.930 . S
C810 C809 1.362 1_565 S
C810 C813 1.409 . S
C811 H803 0.930 . S
C811 C812 1.355 . S
C811 C813 1.415 1_655 S
C812 C811 1.355 . S
C812 C814 1.419 . S
C813 C808 1.425 1_465 S
C813 C810 1.409 . S
C813 C811 1.415 1_455 S
C814 H804 0.926 1_565 S
C814 C812 1.419 . S
C814 C815 1.362 1_565 S
C815 H805 0.930 . S
C815 C808 1.409 . S
C815 C814 1.362 1_545 S
H816 C822 0.930 . S
H817 C825 0.930 . S
H818 C826 0.930 . S
H819 C827 0.930 . S
H820 C830 0.930 . S
H821 C831 0.930 . S
C822 H816 0.930 . S
C822 C823 1.355 . S
C822 C824 1.415 1_565 S
C823 C822 1.355 . S
C823 C825 1.419 . S
C824 C822 1.415 1_545 S
C824 C829 1.425 1_445 S
C824 C831 1.409 . S
C825 H817 0.930 . S
C825 C823 1.419 . S
C825 C826 1.362 1_455 S
C826 H818 0.930 . S
C826 C825 1.362 1_655 S
C826 C829 1.409 . S
C827 H819 0.930 . S
C827 C828 1.355 . S
C827 C829 1.415 1_545 S
C828 C827 1.355 . S
C828 C830 1.419 . S
C829 C824 1.425 1_665 S
C829 C826 1.409 . S
C829 C827 1.415 1_565 S
C830 H820 0.930 . S
C830 C828 1.419 . S
C830 C831 1.362 1_655 S
C831 H821 0.930 . S
C831 C824 1.409 . S
C831 C830 1.362 1_455 S
H832 C838 0.930 . S
H833 C841 0.930 . S
H834 C842 0.947 . S
H835 C843 0.930 . S
H836 C846 0.930 . S
H837 C847 0.947 . S
C838 H832 0.930 . S
C838 C839 1.355 1_556 S
C838 C840 1.415 . S
C839 C838 1.355 1_554 S
C839 C841 1.419 . S
C840 C838 1.415 . S
C840 C845 1.425 1_456 S
C840 C847 1.418 . S
C841 H833 0.930 . S
C841 C839 1.419 . S
C841 C842 1.338 1_455 S
C842 H834 0.947 . S
C842 C841 1.338 1_655 S
C842 C845 1.418 . S
C843 H835 0.930 . S
C843 C844 1.355 1_554 S
C843 C845 1.415 . S
C844 C843 1.355 1_556 S
C844 C846 1.419 . S
C845 C840 1.425 1_654 S
C845 C842 1.418 . S
C845 C843 1.415 . S
C846 H836 0.930 . S
C846 C844 1.419 . S
C846 C847 1.338 1_655 S
C847 H837 0.947 . S
C847 C840 1.418 . S
C847 C846 1.338 1_455 S
H848 C854 0.930 . S
H849 C857 0.930 . S
H850 C858 0.930 . S
H851 C859 0.930 . S
H852 C862 0.930 . S
H853 C863 0.930 . S
C854 H848 0.930 . S
C854 C855 1.355 1_556 S
C854 C856 1.415 . S
C855 C854 1.355 1_554 S
C855 C857 1.419 . S
C856 C854 1.415 . S
C856 C861 1.425 1_566 S
C856 C863 1.409 . S
C857 H849 0.930 . S
C857 C855 1.419 . S
C857 C858 1.362 1_565 S
C858 H850 0.930 . S
C858 C857 1.362 1_545 S
C858 C861 1.409 . S
C859 H851 0.930 . S
C859 C860 1.355 1_554 S
C859 C861 1.415 . S
C860 C859 1.355 1_556 S
C860 C862 1.419 . S
C861 C856 1.425 1_544 S
C861 C858 1.409 . S
C861 C859 1.415 . S
C862 H852 0.930 . S
C862 C860 1.419 . S
C862 C863 1.362 1_545 S
C863 H853 0.930 . S
C863 C856 1.409 . S
C863 C862 1.362 1_565 S
H864 C870 0.930 . S
H865 C873 0.930 . S
H866 C874 0.930 . S
H867 C875 0.930 . S
H868 C878 0.930 . S
H869 C879 0.930 . S
C870 H864 0.930 . S
C870 C871 1.355 . S
C870 C872 1.415 . S
C871 C870 1.355 . S
C871 C873 1.419 . S
C872 C870 1.415 . S
C872 C877 1.425 . S
C872 C879 1.409 . S
C873 H865 0.930 . S
C873 C871 1.419 . S
C873 C874 1.362 . S
C874 H866 0.930 . S
C874 C873 1.362 . S
C874 C877 1.409 . S
C875 H867 0.930 . S
C875 C876 1.355 . S
C875 C877 1.415 . S
C876 C875 1.355 . S
C876 C878 1.419 . S
C877 C872 1.425 . S
C877 C874 1.409 . S
C877 C875 1.415 . S
C878 H868 0.930 . S
C878 C876 1.419 . S
C878 C879 1.362 . S
C879 H869 0.930 . S
C879 C872 1.409 . S
C879 C878 1.362 . S
H880 C886 0.930 . S
H881 C889 0.930 . S
H882 C890 0.930 . S
H883 C891 0.930 . S
H884 C894 0.930 . S
H885 C895 0.930 . S
C886 H880 0.930 . S
C886 C887 1.355 . S
C886 C888 1.415 . S
C887 C886 1.355 . S
C887 C889 1.419 . S
C888 C886 1.415 . S
C888 C893 1.425 . S
C888 C895 1.409 . S
C889 H881 0.930 . S
C889 C887 1.419 . S
C889 C890 1.362 . S
C890 H882 0.930 . S
C890 C889 1.362 . S
C890 C893 1.409 . S
C891 H883 0.930 . S
C891 C892 1.355 . S
C891 C893 1.415 . S
C892 C891 1.355 . S
C892 C894 1.419 . S
C893 C888 1.425 . S
C893 C890 1.409 . S
C893 C891 1.415 . S
C894 H884 0.930 . S
C894 C892 1.419 . S
C894 C895 1.362 . S
C895 H885 0.930 . S
C895 C888 1.409 . S
C895 C894 1.362 . S
H896 C902 0.930 . S
H897 C905 0.930 . S
H898 C906 0.930 . S
H899 C907 0.930 . S
H900 C910 0.930 . S
H901 C911 0.930 . S
C902 H896 0.930 . S
C902 C903 1.355 . S
C902 C904 1.415 . S
C903 C902 1.355 . S
C903 C905 1.419 . S
C904 C902 1.415 . S
C904 C909 1.425 1_565 S
C904 C911 1.409 1_565 S
C905 H897 0.930 . S
C905 C903 1.419 . S
C905 C906 1.362 . S
C906 H898 0.930 . S
C906 C905 1.362 . S
C906 C909 1.409 1_565 S
C907 H899 0.930 . S
C907 C908 1.355 . S
C907 C909 1.415 . S
C908 C907 1.355 . S
C908 C910 1.419 . S
C909 C904 1.425 1_545 S
C909 C906 1.409 1_545 S
C909 C907 1.415 . S
C910 H900 0.930 . S
C910 C908 1.419 . S
C910 C911 1.362 . S
C911 H901 0.930 . S
C911 C904 1.409 1_545 S
C911 C910 1.362 . S
H912 C918 0.944 . S
H913 C921 0.930 . S
H914 C922 0.930 . S
H915 C923 0.944 . S
H916 C926 0.930 . S
H917 C927 0.930 . S
C918 H912 0.944 . S
C918 C919 1.355 . S
C918 C920 1.415 1_655 S
C919 C918 1.355 . S
C919 C921 1.419 . S
C920 C918 1.415 1_455 S
C920 C925 1.425 1_455 S
C920 C927 1.409 . S
C921 H913 0.930 . S
C921 C919 1.419 . S
C921 C922 1.362 . S
C922 H914 0.930 . S
C922 C921 1.362 . S
C922 C925 1.409 . S
C923 H915 0.944 . S
C923 C924 1.355 . S
C923 C925 1.415 1_455 S
C924 C923 1.355 . S
C924 C926 1.419 . S
C925 C920 1.425 1_655 S
C925 C922 1.409 . S
C925 C923 1.415 1_655 S
C926 H916 0.930 . S
C926 C924 1.419 . S
C926 C927 1.362 . S
C927 H917 0.930 . S
C927 C920 1.409 . S
C927 C926 1.362 . S
H928 C934 0.930 . S
H929 C937 0.930 . S
H930 C938 0.930 . S
H931 C939 0.930 . S
H932 C942 0.930 . S
H933 C943 0.930 . S
C934 H928 0.930 . S
C934 C935 1.355 . S
C934 C936 1.415 . S
C935 C934 1.355 . S
C935 C937 1.419 . S
C936 C934 1.415 . S
C936 C941 1.425 . S
C936 C943 1.409 . S
C937 H929 0.930 . S
C937 C935 1.419 . S
C937 C938 1.362 . S
C938 H930 0.930 . S
C938 C937 1.362 . S
C938 C941 1.409 . S
C939 H931 0.930 . S
C939 C940 1.355 . S
C939 C941 1.415 . S
C940 C939 1.355 . S
C940 C942 1.419 . S
C941 C936 1.425 . S
C941 C938 1.409 . S
C941 C939 1.415 . S
C942 H932 0.930 . S
C942 C940 1.419 . S
C942 C943 1.362 . S
C943 H933 0.930 . S
C943 C936 1.409 . S
C943 C942 1.362 . S
H944 C950 0.930 1_455 S
H945 C953 0.930 . S
H946 C954 0.930 . S
H947 C955 0.930 . S
H948 C958 0.930 . S
H949 C959 0.930 1_455 S
C950 H944 0.930 1_655 S
C950 C951 1.355 . S
C950 C952 1.415 . S
C951 C950 1.355 . S
C951 C953 1.419 . S
C952 C950 1.415 . S
C952 C957 1.425 . S
C952 C959 1.409 . S
C953 H945 0.930 . S
C953 C951 1.419 . S
C953 C954 1.362 . S
C954 H946 0.930 . S
C954 C953 1.362 . S
C954 C957 1.409 . S
C955 H947 0.930 . S
C955 C956 1.355 . S
C955 C957 1.415 . S
C956 C955 1.355 . S
C956 C958 1.419 . S
C957 C952 1.425 . S
C957 C954 1.409 . S
C957 C955 1.415 . S
C958 H948 0.930 . S
C958 C956 1.419 . S
C958 C959 1.362 . S
C959 H949 0.930 1_655 S
C959 C952 1.409 . S
C959 C958 1.362 . S
H960 C966 0.930 . S
H961 C969 0.930 . S
H962 C970 0.930 . S
H963 C971 0.930 . S
H964 C974 0.930 . S
H965 C975 0.930 . S
C966 H960 0.930 . S
C966 C967 1.355 . S
C966 C968 1.415 . S
C967 C966 1.355 . S
C967 C969 1.419 . S
C968 C966 1.415 . S
C968 C973 1.425 . S
C968 C975 1.409 . S
C969 H961 0.930 . S
C969 C967 1.419 . S
C969 C970 1.362 . S
C970 H962 0.930 . S
C970 C969 1.362 . S
C970 C973 1.409 . S
C971 H963 0.930 . S
C971 C972 1.355 . S
C971 C973 1.415 . S
C972 C971 1.355 . S
C972 C974 1.419 . S
C973 C968 1.425 . S
C973 C970 1.409 . S
C973 C971 1.415 . S
C974 H964 0.930 . S
C974 C972 1.419 . S
C974 C975 1.362 . S
C975 H965 0.930 . S
C975 C968 1.409 . S
C975 C974 1.362 . S
H976 C982 0.930 . S
H977 C985 0.948 . S
H978 C986 0.930 . S
H979 C987 0.930 . S
H980 C990 0.930 . S
H981 C991 0.930 . S
C982 H976 0.930 . S
C982 C983 1.355 . S
C982 C984 1.415 . S
C983 C982 1.355 . S
C983 C985 1.419 . S
C984 C982 1.415 . S
C984 C989 1.425 . S
C984 C991 1.409 . S
C985 H977 0.948 . S
C985 C983 1.419 . S
C985 C986 1.362 . S
C986 H978 0.930 . S
C986 C985 1.362 . S
C986 C989 1.409 . S
C987 H979 0.930 . S
C987 C988 1.355 . S
C987 C989 1.415 . S
C988 C987 1.355 . S
C988 C990 1.419 . S
C989 C984 1.425 . S
C989 C986 1.409 . S
C989 C987 1.415 . S
C990 H980 0.930 . S
C990 C988 1.419 . S
C990 C991 1.362 . S
C991 H981 0.930 . S
C991 C984 1.409 . S
C991 C990 1.362 . S
H992 C998 0.930 . S
H993 C1001 0.930 . S
H994 C1002 0.930 . S
H995 C1003 0.930 . S
H996 C1006 0.930 . S
H997 C1007 0.930 . S
C998 H992 0.930 . S
C998 C999 1.355 . S
C998 C1000 1.415 . S
C999 C998 1.355 . S
C999 C1001 1.419 . S
C1000 C998 1.415 . S
C1000 C1005 1.425 . S
C1000 C1007 1.409 . S
C1001 H993 0.930 . S
C1001 C999 1.419 . S
C1001 C1002 1.362 . S
C1002 H994 0.930 . S
C1002 C1001 1.362 . S
C1002 C1005 1.409 . S
C1003 H995 0.930 . S
C1003 C1004 1.355 . S
C1003 C1005 1.415 . S
C1004 C1003 1.355 . S
C1004 C1006 1.419 . S
C1005 C1000 1.425 . S
C1005 C1002 1.409 . S
C1005 C1003 1.415 . S
C1006 H996 0.930 . S
C1006 C1004 1.419 . S
C1006 C1007 1.362 . S
C1007 H997 0.930 . S
C1007 C1000 1.409 . S
C1007 C1006 1.362 . S
H1008 C1014 0.930 . S
H1009 C1017 0.930 . S
H1010 C1018 0.930 . S
H1011 C1019 0.930 . S
H1012 C1022 0.930 . S
H1013 C1023 0.930 . S
C1014 H1008 0.930 . S
C1014 C1015 1.355 . S
C1014 C1016 1.415 . S
C1015 C1014 1.355 . S
C1015 C1017 1.419 . S
C1016 C1014 1.415 . S
C1016 C1021 1.425 . S
C1016 C1023 1.409 . S
C1017 H1009 0.930 . S
C1017 C1015 1.419 . S
C1017 C1018 1.362 . S
C1018 H1010 0.930 . S
C1018 C1017 1.362 . S
C1018 C1021 1.409 . S
C1019 H1011 0.930 . S
C1019 C1020 1.355 . S
C1019 C1021 1.415 . S
C1020 C1019 1.355 . S
C1020 C1022 1.419 . S
C1021 C1016 1.425 . S
C1021 C1018 1.409 . S
C1021 C1019 1.415 . S
C1022 H1012 0.930 . S
C1022 C1020 1.419 . S
C1022 C1023 1.362 . S
C1023 H1013 0.930 . S
C1023 C1016 1.409 . S
C1023 C1022 1.362 . S
H1024 C1030 0.930 . S
H1025 C1033 0.930 . S
H1026 C1034 0.930 . S
H1027 C1035 0.930 . S
H1028 C1038 0.930 . S
H1029 C1039 0.930 . S
C1030 H1024 0.930 . S
C1030 C1031 1.355 . S
C1030 C1032 1.415 . S
C1031 C1030 1.355 . S
C1031 C1033 1.419 . S
C1032 C1030 1.415 . S
C1032 C1037 1.425 . S
C1032 C1039 1.409 . S
C1033 H1025 0.930 . S
C1033 C1031 1.419 . S
C1033 C1034 1.362 . S
C1034 H1026 0.930 . S
C1034 C1033 1.362 . S
C1034 C1037 1.409 . S
C1035 H1027 0.930 . S
C1035 C1036 1.355 . S
C1035 C1037 1.415 . S
C1036 C1035 1.355 . S
C1036 C1038 1.419 . S
C1037 C1032 1.425 . S
C1037 C1034 1.409 . S
C1037 C1035 1.415 . S
C1038 H1028 0.930 . S
C1038 C1036 1.419 . S
C1038 C1039 1.362 . S
C1039 H1029 0.930 . S
C1039 C1032 1.409 . S
C1039 C1038 1.362 . S
H1040 C1046 0.930 . S
H1041 C1049 0.930 . S
H1042 C1050 0.930 . S
H1043 C1051 0.930 . S
H1044 C1054 0.930 . S
H1045 C1055 0.930 . S
C1046 H1040 0.930 . S
C1046 C1047 1.355 . S
C1046 C1048 1.415 . S
C1047 C1046 1.355 . S
C1047 C1049 1.419 . S
C1048 C1046 1.415 . S
C1048 C1053 1.425 . S
C1048 C1055 1.409 . S
C1049 H1041 0.930 . S
C1049 C1047 1.419 . S
C1049 C1050 1.362 . S
C1050 H1042 0.930 . S
C1050 C1049 1.362 . S
C1050 C1053 1.409 . S
C1051 H1043 0.930 . S
C1051 C1052 1.355 . S
C1051 C1053 1.415 . S
C1052 C1051 1.355 . S
C1052 C1054 1.419 . S
C1053 C1048 1.425 . S
C1053 C1050 1.409 . S
C1053 C1051 1.415 . S
C1054 H1044 0.930 . S
C1054 C1052 1.419 . S
C1054 C1055 1.362 . S
C1055 H1045 0.930 . S
C1055 C1048 1.409 . S
C1055 C1054 1.362 . S
H1056 C1062 0.930 . S
H1057 C1065 0.930 . S
H1058 C1066 0.930 . S
H1059 C1067 0.930 . S
H1060 C1070 0.930 . S
H1061 C1071 0.930 . S
C1062 H1056 0.930 . S
C1062 C1063 1.355 . S
C1062 C1064 1.415 1_556 S
C1063 C1062 1.355 . S
C1063 C1065 1.419 . S
C1064 C1062 1.415 1_554 S
C1064 C1069 1.425 . S
C1064 C1071 1.409 . S
C1065 H1057 0.930 . S
C1065 C1063 1.419 . S
C1065 C1066 1.362 . S
C1066 H1058 0.930 . S
C1066 C1065 1.362 . S
C1066 C1069 1.409 1_556 S
C1067 H1059 0.930 . S
C1067 C1068 1.355 . S
C1067 C1069 1.415 . S
C1068 C1067 1.355 . S
C1068 C1070 1.419 . S
C1069 C1064 1.425 . S
C1069 C1066 1.409 1_554 S
C1069 C1067 1.415 . S
C1070 H1060 0.930 . S
C1070 C1068 1.419 . S
C1070 C1071 1.362 . S
C1071 H1061 0.930 . S
C1071 C1064 1.409 . S
C1071 C1070 1.362 . S
H1072 C1078 0.930 . S
H1073 C1081 0.930 . S
H1074 C1082 0.930 . S
H1075 C1083 0.930 . S
H1076 C1086 0.930 . S
H1077 C1087 0.930 . S
C1078 H1072 0.930 . S
C1078 C1079 1.355 . S
C1078 C1080 1.433 . S
C1079 C1078 1.355 . S
C1079 C1081 1.419 . S
C1080 C1078 1.433 . S
C1080 C1085 1.426 . S
C1080 C1087 1.390 1_556 S
C1081 H1073 0.930 . S
C1081 C1079 1.419 . S
C1081 C1082 1.362 . S
C1082 H1074 0.930 . S
C1082 C1081 1.362 . S
C1082 C1085 1.409 . S
C1083 H1075 0.930 . S
C1083 C1084 1.355 . S
C1083 C1085 1.415 1_554 S
C1084 C1083 1.355 . S
C1084 C1086 1.419 . S
C1085 C1080 1.426 . S
C1085 C1082 1.409 . S
C1085 C1083 1.415 1_556 S
C1086 H1076 0.930 . S
C1086 C1084 1.419 . S
C1086 C1087 1.362 . S
C1087 H1077 0.930 . S
C1087 C1080 1.390 1_554 S
C1087 C1086 1.362 . S
H1088 C1094 0.930 . S
H1089 C1097 0.930 . S
H1090 C1098 0.930 . S
H1091 C1099 0.930 . S
H1092 C1102 0.930 . S
H1093 C1103 0.930 . S
C1094 H1088 0.930 . S
C1094 C1095 1.355 . S
C1094 C1096 1.415 . S
C1095 C1094 1.355 . S
C1095 C1097 1.419 . S
C1096 C1094 1.415 . S
C1096 C1101 1.425 1_556 S
C1096 C1103 1.409 1_556 S
C1097 H1089 0.930 . S
C1097 C1095 1.419 . S
C1097 C1098 1.362 . S
C1098 H1090 0.930 . S
C1098 C1097 1.362 . S
C1098 C1101 1.409 1_556 S
C1099 H1091 0.930 . S
C1099 C1100 1.355 . S
C1099 C1101 1.415 . S
C1100 C1099 1.355 . S
C1100 C1102 1.419 . S
C1101 C1096 1.425 1_554 S
C1101 C1098 1.409 1_554 S
C1101 C1099 1.415 . S
C1102 H1092 0.930 . S
C1102 C1100 1.419 . S
C1102 C1103 1.362 . S
C1103 H1093 0.930 . S
C1103 C1096 1.409 1_554 S
C1103 C1102 1.362 . S
H1104 C1110 0.930 . S
H1105 C1113 0.930 . S
H1106 C1114 0.930 1_556 S
H1107 C1115 0.930 . S
H1108 C1118 0.930 . S
H1109 C1119 0.930 1_554 S
C1110 H1104 0.930 . S
C1110 C1111 1.355 . S
C1110 C1112 1.415 . S
C1111 C1110 1.355 . S
C1111 C1113 1.419 . S
C1112 C1110 1.415 . S
C1112 C1117 1.425 1_554 S
C1112 C1119 1.409 1_554 S
C1113 H1105 0.930 . S
C1113 C1111 1.419 . S
C1113 C1114 1.362 . S
C1114 H1106 0.930 1_554 S
C1114 C1113 1.362 . S
C1114 C1117 1.409 1_554 S
C1115 H1107 0.930 . S
C1115 C1116 1.355 . S
C1115 C1117 1.415 . S
C1116 C1115 1.355 . S
C1116 C1118 1.419 . S
C1117 C1112 1.425 1_556 S
C1117 C1114 1.409 1_556 S
C1117 C1115 1.415 . S
C1118 H1108 0.930 . S
C1118 C1116 1.419 . S
C1118 C1119 1.362 . S
C1119 H1109 0.930 1_556 S
C1119 C1112 1.409 1_556 S
C1119 C1118 1.362 . S
H1120 C1126 0.930 . S
H1121 C1129 0.930 . S
H1122 C1130 0.930 . S
H1123 C1131 0.930 . S
H1124 C1134 0.930 . S
H1125 C1135 0.930 . S
C1126 H1120 0.930 . S
C1126 C1127 1.355 . S
C1126 C1128 1.415 . S
C1127 C1126 1.355 . S
C1127 C1129 1.419 . S
C1128 C1126 1.415 . S
C1128 C1133 1.425 . S
C1128 C1135 1.409 . S
C1129 H1121 0.930 . S
C1129 C1127 1.419 . S
C1129 C1130 1.362 . S
C1130 H1122 0.930 . S
C1130 C1129 1.362 . S
C1130 C1133 1.409 . S
C1131 H1123 0.930 . S
C1131 C1132 1.355 . S
C1131 C1133 1.415 . S
C1132 C1131 1.355 . S
C1132 C1134 1.419 . S
C1133 C1128 1.425 . S
C1133 C1130 1.409 . S
C1133 C1131 1.415 . S
C1134 H1124 0.930 . S
C1134 C1132 1.419 . S
C1134 C1135 1.362 . S
C1135 H1125 0.930 . S
C1135 C1128 1.409 . S
C1135 C1134 1.362 . S
H1136 C1142 0.930 1_655 S
H1137 C1145 0.930 . S
H1138 C1146 0.930 . S
H1139 C1147 0.930 . S
H1140 C1150 0.930 . S
H1141 C1151 0.930 . S
C1142 H1136 0.930 1_455 S
C1142 C1143 1.355 . S
C1142 C1144 1.415 . S
C1143 C1142 1.355 . S
C1143 C1145 1.419 . S
C1144 C1142 1.415 . S
C1144 C1149 1.425 . S
C1144 C1151 1.409 . S
C1145 H1137 0.930 . S
C1145 C1143 1.419 . S
C1145 C1146 1.362 . S
C1146 H1138 0.930 . S
C1146 C1145 1.362 . S
C1146 C1149 1.409 . S
C1147 H1139 0.930 . S
C1147 C1148 1.355 . S
C1147 C1149 1.415 . S
C1148 C1147 1.355 . S
C1148 C1150 1.419 . S
C1149 C1144 1.425 . S
C1149 C1146 1.409 . S
C1149 C1147 1.415 . S
C1150 H1140 0.930 . S
C1150 C1148 1.419 . S
C1150 C1151 1.362 . S
C1151 H1141 0.930 . S
C1151 C1144 1.409 . S
C1151 C1150 1.362 . S
H1152 C1158 0.930 . S
H1153 C1161 0.930 . S
H1154 C1162 0.941 . S
H1155 C1163 0.930 . S
H1156 C1166 0.930 . S
H1157 C1167 0.930 . S
C1158 H1152 0.930 . S
C1158 C1159 1.355 . S
C1158 C1160 1.415 . S
C1159 C1158 1.355 . S
C1159 C1161 1.419 1_565 S
C1160 C1158 1.415 . S
C1160 C1165 1.425 . S
C1160 C1167 1.409 . S
C1161 H1153 0.930 . S
C1161 C1159 1.419 1_545 S
C1161 C1162 1.365 . S
C1162 H1154 0.941 . S
C1162 C1161 1.365 . S
C1162 C1165 1.397 1_545 S
C1163 H1155 0.930 . S
C1163 C1164 1.355 . S
C1163 C1165 1.415 . S
C1164 C1163 1.355 . S
C1164 C1166 1.419 . S
C1165 C1160 1.425 . S
C1165 C1162 1.397 1_565 S
C1165 C1163 1.415 . S
C1166 H1156 0.930 . S
C1166 C1164 1.419 . S
C1166 C1167 1.362 . S
C1167 H1157 0.930 . S
C1167 C1160 1.409 . S
C1167 C1166 1.362 . S
H1168 C1174 0.930 . S
H1169 C1177 0.930 1_455 S
H1170 C1178 0.930 . S
H1171 C1179 0.930 . S
H1172 C1182 0.930 . S
H1173 C1183 0.930 . S
C1174 H1168 0.930 . S
C1174 C1175 1.355 . S
C1174 C1176 1.415 . S
C1175 C1174 1.355 . S
C1175 C1177 1.419 . S
C1176 C1174 1.415 . S
C1176 C1181 1.425 . S
C1176 C1183 1.409 . S
C1177 H1169 0.930 1_655 S
C1177 C1175 1.419 . S
C1177 C1178 1.362 . S
C1178 H1170 0.930 . S
C1178 C1177 1.362 . S
C1178 C1181 1.409 . S
C1179 H1171 0.930 . S
C1179 C1180 1.355 . S
C1179 C1181 1.415 . S
C1180 C1179 1.355 . S
C1180 C1182 1.419 . S
C1181 C1176 1.425 . S
C1181 C1178 1.409 . S
C1181 C1179 1.415 . S
C1182 H1172 0.930 . S
C1182 C1180 1.419 . S
C1182 C1183 1.362 . S
C1183 H1173 0.930 . S
C1183 C1176 1.409 . S
C1183 C1182 1.362 . S
C551 C145 1.988 . S
C556 C9 1.984 . S
C567 C43 1.990 . S
C572 C179 1.992 . S
C583 C77 1.992 . S
C588 C213 1.989 . S
C599 C111 1.992 . S
C604 C247 1.989 . S
C615 C281 1.907 . S
C620 C417 1.902 . S
C631 C451 1.973 . S
C636 C315 1.966 . S
C647 C485 1.993 . S
C652 C349 1.993 . S
C663 C383 1.988 . S
C668 C519 1.984 . S
C679 C20 1.200 . S
C684 C496 1.221 . S
C695 C54 1.220 . S
C700 C530 1.200 . S
C711 C88 1.203 . S
C716 C428 1.232 . S
C727 C462 1.265 . S
C732 C122 1.270 . S
C743 C360 1.201 . S
C748 C156 1.227 . S
C759 C190 1.217 . S
C764 C394 1.200 . S
C775 C224 1.255 . S
C780 C292 1.218 . S
C791 C258 1.201 . S
C796 C326 1.228 . S
C807 C2 1.301 . S
C812 C70 1.348 . S
C823 C36 1.355 . S
C828 C104 1.295 . S
C839 C138 1.374 1_554 S
C844 C206 1.292 . S
C855 C172 1.294 . S
C860 C240 1.374 1_556 S
C871 C342 1.325 . S
C876 C274 1.354 . S
C887 C376 1.355 . S
C892 C308 1.324 . S
C903 C410 1.369 . S
C908 C478 1.288 . S
C919 C444 1.301 . S
C924 C512 1.371 . S
C935 C67 0.896 . S
C940 C5 0.936 . S
C951 C39 0.945 . S
C956 C101 0.921 . S
C967 C135 0.914 . S
C972 C73 0.945 . S
C983 C107 0.854 . S
C988 C33 0.904 . S
C999 C543 0.868 . S
C1004 C141 0.861 . S
C1015 C175 0.943 . S
C1020 C441 0.908 . S
C1031 C209 0.936 . S
C1036 C475 0.935 . S
C1047 C243 0.893 . S
C1052 C509 0.934 . S
C1063 C277 0.945 . S
C1068 C339 0.915 . S
C1079 C373 0.921 . S
C1084 C311 0.945 . S
C1095 C345 0.917 . S
C1100 C407 0.878 . S
C1111 C379 0.853 . S
C1116 C305 0.875 . S
C1127 C271 0.927 . S
C1132 C413 0.878 . S
C1143 C447 0.945 . S
C1148 C169 0.918 . S
C1159 C481 0.849 . S
C1164 C203 0.891 . S
C1175 C515 0.851 . S
C1180 C237 0.897 . S
