# Generated by pormake.
# Topology umv, (4)-cn, num edge types: 1
# Building blocks:
#     Node 0, Type 0, BuildingBlock: GALJAG_clean_sbu_0, # of connection points: 4
#     Node 1, Type 0, BuildingBlock: GALJAG_clean_sbu_0, # of connection points: 4
#     Node 2, Type 0, BuildingBlock: GALJAG_clean_sbu_0, # of connection points: 4
#     Node 3, Type 0, BuildingBlock: GALJAG_clean_sbu_0, # of connection points: 4
#     Node 4, Type 0, BuildingBlock: GALJAG_clean_sbu_0, # of connection points: 4
#     Node 5, Type 0, BuildingBlock: GALJAG_clean_sbu_0, # of connection points: 4
#     Node 6, Type 0, BuildingBlock: GALJAG_clean_sbu_0, # of connection points: 4
#     Node 7, Type 0, BuildingBlock: GALJAG_clean_sbu_0, # of connection points: 4
#     Node 8, Type 0, BuildingBlock: GALJAG_clean_sbu_0, # of connection points: 4
#     Node 9, Type 0, BuildingBlock: GALJAG_clean_sbu_0, # of connection points: 4
#     Node 10, Type 0, BuildingBlock: GALJAG_clean_sbu_0, # of connection points: 4
#     Node 11, Type 0, BuildingBlock: GALJAG_clean_sbu_0, # of connection points: 4
#     Node 12, Type 0, BuildingBlock: GALJAG_clean_sbu_0, # of connection points: 4
#     Node 13, Type 0, BuildingBlock: GALJAG_clean_sbu_0, # of connection points: 4
#     Node 14, Type 0, BuildingBlock: GALJAG_clean_sbu_0, # of connection points: 4
#     Node 15, Type 0, BuildingBlock: GALJAG_clean_sbu_0, # of connection points: 4
#     Node 16, Type 0, BuildingBlock: GALJAG_clean_sbu_0, # of connection points: 4
#     Node 17, Type 0, BuildingBlock: GALJAG_clean_sbu_0, # of connection points: 4
#     Node 18, Type 0, BuildingBlock: GALJAG_clean_sbu_0, # of connection points: 4
#     Node 19, Type 0, BuildingBlock: GALJAG_clean_sbu_0, # of connection points: 4
#     Node 20, Type 0, BuildingBlock: GALJAG_clean_sbu_0, # of connection points: 4
#     Node 21, Type 0, BuildingBlock: GALJAG_clean_sbu_0, # of connection points: 4
#     Node 22, Type 0, BuildingBlock: GALJAG_clean_sbu_0, # of connection points: 4
#     Node 23, Type 0, BuildingBlock: GALJAG_clean_sbu_0, # of connection points: 4
#     Node 24, Type 0, BuildingBlock: GALJAG_clean_sbu_0, # of connection points: 4
#     Node 25, Type 0, BuildingBlock: GALJAG_clean_sbu_0, # of connection points: 4
#     Node 26, Type 0, BuildingBlock: GALJAG_clean_sbu_0, # of connection points: 4
#     Node 27, Type 0, BuildingBlock: GALJAG_clean_sbu_0, # of connection points: 4
#     Node 28, Type 0, BuildingBlock: GALJAG_clean_sbu_0, # of connection points: 4
#     Node 29, Type 0, BuildingBlock: GALJAG_clean_sbu_0, # of connection points: 4
#     Node 30, Type 0, BuildingBlock: GALJAG_clean_sbu_0, # of connection points: 4
#     Node 31, Type 0, BuildingBlock: GALJAG_clean_sbu_0, # of connection points: 4
#     Edge 32, Type (0, 0), BuildingBlock: CIFDUS_clean_linker_0, # of connection points: 2
#     Edge 33, Type (0, 0), BuildingBlock: CIFDUS_clean_linker_0, # of connection points: 2
#     Edge 34, Type (0, 0), BuildingBlock: CIFDUS_clean_linker_0, # of connection points: 2
#     Edge 35, Type (0, 0), BuildingBlock: CIFDUS_clean_linker_0, # of connection points: 2
#     Edge 36, Type (0, 0), BuildingBlock: CIFDUS_clean_linker_0, # of connection points: 2
#     Edge 37, Type (0, 0), BuildingBlock: CIFDUS_clean_linker_0, # of connection points: 2
#     Edge 38, Type (0, 0), BuildingBlock: CIFDUS_clean_linker_0, # of connection points: 2
#     Edge 39, Type (0, 0), BuildingBlock: CIFDUS_clean_linker_0, # of connection points: 2
#     Edge 40, Type (0, 0), BuildingBlock: CIFDUS_clean_linker_0, # of connection points: 2
#     Edge 41, Type (0, 0), BuildingBlock: CIFDUS_clean_linker_0, # of connection points: 2
#     Edge 42, Type (0, 0), BuildingBlock: CIFDUS_clean_linker_0, # of connection points: 2
#     Edge 43, Type (0, 0), BuildingBlock: CIFDUS_clean_linker_0, # of connection points: 2
#     Edge 44, Type (0, 0), BuildingBlock: CIFDUS_clean_linker_0, # of connection points: 2
#     Edge 45, Type (0, 0), BuildingBlock: CIFDUS_clean_linker_0, # of connection points: 2
#     Edge 46, Type (0, 0), BuildingBlock: CIFDUS_clean_linker_0, # of connection points: 2
#     Edge 47, Type (0, 0), BuildingBlock: CIFDUS_clean_linker_0, # of connection points: 2
#     Edge 48, Type (0, 0), BuildingBlock: CIFDUS_clean_linker_0, # of connection points: 2
#     Edge 49, Type (0, 0), BuildingBlock: CIFDUS_clean_linker_0, # of connection points: 2
#     Edge 50, Type (0, 0), BuildingBlock: CIFDUS_clean_linker_0, # of connection points: 2
#     Edge 51, Type (0, 0), BuildingBlock: CIFDUS_clean_linker_0, # of connection points: 2
#     Edge 52, Type (0, 0), BuildingBlock: CIFDUS_clean_linker_0, # of connection points: 2
#     Edge 53, Type (0, 0), BuildingBlock: CIFDUS_clean_linker_0, # of connection points: 2
#     Edge 54, Type (0, 0), BuildingBlock: CIFDUS_clean_linker_0, # of connection points: 2
#     Edge 55, Type (0, 0), BuildingBlock: CIFDUS_clean_linker_0, # of connection points: 2
#     Edge 56, Type (0, 0), BuildingBlock: CIFDUS_clean_linker_0, # of connection points: 2
#     Edge 57, Type (0, 0), BuildingBlock: CIFDUS_clean_linker_0, # of connection points: 2
#     Edge 58, Type (0, 0), BuildingBlock: CIFDUS_clean_linker_0, # of connection points: 2
#     Edge 59, Type (0, 0), BuildingBlock: CIFDUS_clean_linker_0, # of connection points: 2
#     Edge 60, Type (0, 0), BuildingBlock: CIFDUS_clean_linker_0, # of connection points: 2
#     Edge 61, Type (0, 0), BuildingBlock: CIFDUS_clean_linker_0, # of connection points: 2
#     Edge 62, Type (0, 0), BuildingBlock: CIFDUS_clean_linker_0, # of connection points: 2
#     Edge 63, Type (0, 0), BuildingBlock: CIFDUS_clean_linker_0, # of connection points: 2
#     Edge 64, Type (0, 0), BuildingBlock: CIFDUS_clean_linker_0, # of connection points: 2
#     Edge 65, Type (0, 0), BuildingBlock: CIFDUS_clean_linker_0, # of connection points: 2
#     Edge 66, Type (0, 0), BuildingBlock: CIFDUS_clean_linker_0, # of connection points: 2
#     Edge 67, Type (0, 0), BuildingBlock: CIFDUS_clean_linker_0, # of connection points: 2
#     Edge 68, Type (0, 0), BuildingBlock: CIFDUS_clean_linker_0, # of connection points: 2
#     Edge 69, Type (0, 0), BuildingBlock: CIFDUS_clean_linker_0, # of connection points: 2
#     Edge 70, Type (0, 0), BuildingBlock: CIFDUS_clean_linker_0, # of connection points: 2
#     Edge 71, Type (0, 0), BuildingBlock: CIFDUS_clean_linker_0, # of connection points: 2
#     Edge 72, Type (0, 0), BuildingBlock: CIFDUS_clean_linker_0, # of connection points: 2
#     Edge 73, Type (0, 0), BuildingBlock: CIFDUS_clean_linker_0, # of connection points: 2
#     Edge 74, Type (0, 0), BuildingBlock: CIFDUS_clean_linker_0, # of connection points: 2
#     Edge 75, Type (0, 0), BuildingBlock: CIFDUS_clean_linker_0, # of connection points: 2
#     Edge 76, Type (0, 0), BuildingBlock: CIFDUS_clean_linker_0, # of connection points: 2
#     Edge 77, Type (0, 0), BuildingBlock: CIFDUS_clean_linker_0, # of connection points: 2
#     Edge 78, Type (0, 0), BuildingBlock: CIFDUS_clean_linker_0, # of connection points: 2
#     Edge 79, Type (0, 0), BuildingBlock: CIFDUS_clean_linker_0, # of connection points: 2
#     Edge 80, Type (0, 0), BuildingBlock: CIFDUS_clean_linker_0, # of connection points: 2
#     Edge 81, Type (0, 0), BuildingBlock: CIFDUS_clean_linker_0, # of connection points: 2
#     Edge 82, Type (0, 0), BuildingBlock: CIFDUS_clean_linker_0, # of connection points: 2
#     Edge 83, Type (0, 0), BuildingBlock: CIFDUS_clean_linker_0, # of connection points: 2
#     Edge 84, Type (0, 0), BuildingBlock: CIFDUS_clean_linker_0, # of connection points: 2
#     Edge 85, Type (0, 0), BuildingBlock: CIFDUS_clean_linker_0, # of connection points: 2
#     Edge 86, Type (0, 0), BuildingBlock: CIFDUS_clean_linker_0, # of connection points: 2
#     Edge 87, Type (0, 0), BuildingBlock: CIFDUS_clean_linker_0, # of connection points: 2
#     Edge 88, Type (0, 0), BuildingBlock: CIFDUS_clean_linker_0, # of connection points: 2
#     Edge 89, Type (0, 0), BuildingBlock: CIFDUS_clean_linker_0, # of connection points: 2
#     Edge 90, Type (0, 0), BuildingBlock: CIFDUS_clean_linker_0, # of connection points: 2
#     Edge 91, Type (0, 0), BuildingBlock: CIFDUS_clean_linker_0, # of connection points: 2
#     Edge 92, Type (0, 0), BuildingBlock: CIFDUS_clean_linker_0, # of connection points: 2
#     Edge 93, Type (0, 0), BuildingBlock: CIFDUS_clean_linker_0, # of connection points: 2
#     Edge 94, Type (0, 0), BuildingBlock: CIFDUS_clean_linker_0, # of connection points: 2
#     Edge 95, Type (0, 0), BuildingBlock: CIFDUS_clean_linker_0, # of connection points: 2
# Relax obj value: 0.083
# Max RMSD: 0.091
# Mean RMSD: 0.091
data_MOF--net-umv--node1-GALJAG_clean_sbu_0--edge1-CIFDUS_clean_linker_0
_symmetry_space_group_name_H-M    P1
_symmetry_Int_Tables_number       1
_symmetry_cell_setting            triclinic
loop_
_symmetry_equiv_pos_as_xyz
'x, y, z'
_cell_length_a     93.096825
_cell_length_b     23.97791
_cell_length_c     44.385663
_cell_angle_alpha  90.011356
_cell_angle_beta   90.016958
_cell_angle_gamma 89.954212
loop_
_atom_site_label
_atom_site_type_symbol
_atom_site_fract_x
_atom_site_fract_y
_atom_site_fract_z
_atom_type_partial_charge
In0 In 0.05915 0.12746 0.32025 0.0
O1 O 0.06009 0.17803 0.36387 0.0
O2 O 0.06515 0.21831 0.32242 0.0
C3 C 0.05172 0.02433 0.33797 0.0
C4 C 0.03503 0.16332 0.29295 0.0
C5 C 0.08668 0.10481 0.30636 0.0
O6 O 0.05293 0.06467 0.3562 0.0
O7 O 0.05388 0.03652 0.31057 0.0
O8 O 0.07792 0.12039 0.28616 0.0
O9 O 0.08145 0.1007 0.33245 0.0
C10 C 0.06368 0.22252 0.35054 0.0
O11 O 0.04684 0.15968 0.27884 0.0
O12 O 0.03538 0.14592 0.31975 0.0
In13 In 0.19942 0.11777 0.30988 0.0
O14 O 0.21095 0.08505 0.26773 0.0
O15 O 0.22354 0.12278 0.30192 0.0
C16 C 0.17138 0.11757 0.29367 0.0
C17 C 0.20121 0.02266 0.3411 0.0
C18 C 0.202 0.21594 0.33867 0.0
O19 O 0.1808 0.13978 0.27697 0.0
O20 O 0.1762 0.09694 0.31768 0.0
O21 O 0.20283 0.16946 0.35186 0.0
O22 O 0.20003 0.21318 0.31049 0.0
C23 C 0.22338 0.09605 0.27749 0.0
O24 O 0.20184 0.06978 0.35378 0.0
O25 O 0.19957 0.02392 0.3129 0.0
In26 In 0.05777 0.12023 0.93965 0.0
O27 O 0.05605 0.07337 0.89492 0.0
O28 O 0.05816 0.02674 0.93563 0.0
C29 C 0.05532 0.22537 0.91866 0.0
C30 C 0.03307 0.09439 0.96816 0.0
C31 C 0.08553 0.11746 0.9574 0.0
O32 O 0.05569 0.18333 0.90149 0.0
O33 O 0.05608 0.21428 0.94646 0.0
O34 O 0.07575 0.13382 0.97515 0.0
O35 O 0.08124 0.10409 0.93149 0.0
C36 C 0.05677 0.02591 0.90737 0.0
O37 O 0.04523 0.0864 0.98014 0.0
O38 O 0.03342 0.11957 0.94324 0.0
In39 In 0.19704 0.12222 0.93065 0.0
O40 O 0.20594 0.17867 0.9679 0.0
O41 O 0.2185 0.10929 0.95452 0.0
C42 C 0.16988 0.09606 0.94712 0.0
C43 C 0.19681 0.2143 0.89604 0.0
C44 C 0.20442 0.02801 0.90178 0.0
O45 O 0.17846 0.11853 0.96562 0.0
O46 O 0.17514 0.08666 0.92152 0.0
O47 O 0.20267 0.0739 0.8882 0.0
O48 O 0.20279 0.03013 0.93008 0.0
C49 C 0.21778 0.15339 0.96989 0.0
O50 O 0.20755 0.18247 0.8977 0.0
O51 O 0.18597 0.19807 0.91049 0.0
In52 In 0.94755 0.86605 0.67576 0.0
O53 O 0.95202 0.81867 0.63214 0.0
O54 O 0.94772 0.77258 0.67226 0.0
C55 C 0.95063 0.97194 0.65702 0.0
C56 C 0.97057 0.84319 0.71018 0.0
C57 C 0.91884 0.85937 0.68233 0.0
O58 O 0.95235 0.93047 0.63983 0.0
O59 O 0.94756 0.95998 0.68404 0.0
O60 O 0.92685 0.86857 0.70492 0.0
O61 O 0.92535 0.85567 0.65755 0.0
C62 C 0.95061 0.77143 0.64452 0.0
O63 O 0.95789 0.83601 0.71976 0.0
O64 O 0.97142 0.86606 0.68466 0.0
In65 In 0.80577 0.87296 0.6868 0.0
O66 O 0.79455 0.89392 0.7313 0.0
O67 O 0.78306 0.90612 0.69031 0.0
C68 C 0.83377 0.85692 0.69982 0.0
C69 C 0.80962 0.96802 0.65606 0.0
C70 C 0.79791 0.77029 0.66796 0.0
O71 O 0.82482 0.8695 0.72019 0.0
O72 O 0.82842 0.85124 0.67392 0.0
O73 O 0.79907 0.81131 0.65027 0.0
O74 O 0.80026 0.78153 0.69535 0.0
C75 C 0.78324 0.91153 0.71857 0.0
O76 O 0.8057 0.92349 0.64314 0.0
O77 O 0.81173 0.9639 0.68402 0.0
In78 In 0.94603 0.883 0.06307 0.0
O79 O 0.95059 0.92936 0.107 0.0
O80 O 0.94749 0.97629 0.06667 0.0
C81 C 0.94804 0.77677 0.08228 0.0
C82 C 0.96976 0.90296 0.03013 0.0
C83 C 0.91751 0.89605 0.05469 0.0
O84 O 0.94968 0.81825 0.0995 0.0
O85 O 0.94542 0.78882 0.05506 0.0
O86 O 0.92559 0.8827 0.03282 0.0
O87 O 0.9238 0.90013 0.07971 0.0
C88 C 0.95006 0.97684 0.09455 0.0
O89 O 0.95729 0.91272 0.01995 0.0
O90 O 0.97001 0.87877 0.05534 0.0
In91 In 0.80546 0.88816 0.06291 0.0
O92 O 0.79666 0.83011 0.02644 0.0
O93 O 0.78338 0.8968 0.04087 0.0
C94 C 0.8326 0.90598 0.04338 0.0
C95 C 0.80569 0.79787 0.0989 0.0
C96 C 0.79935 0.98483 0.09112 0.0
O97 O 0.82287 0.88976 0.02547 0.0
O98 O 0.82838 0.91465 0.06992 0.0
O99 O 0.80064 0.93897 0.10486 0.0
O100 O 0.80082 0.98183 0.06281 0.0
C101 C 0.78444 0.85279 0.02544 0.0
O102 O 0.79479 0.82849 0.096 0.0
O103 O 0.81665 0.8145 0.08499 0.0
In104 In 0.05545 0.62215 0.8104 0.0
O105 O 0.05366 0.66929 0.85507 0.0
O106 O 0.05617 0.71562 0.8144 0.0
C107 C 0.0534 0.51678 0.83137 0.0
C108 C 0.03109 0.64853 0.78087 0.0
C109 C 0.08309 0.62638 0.79235 0.0
O110 O 0.05356 0.55884 0.84852 0.0
O111 O 0.05406 0.52796 0.80358 0.0
O112 O 0.0733 0.61004 0.77464 0.0
O113 O 0.07889 0.63853 0.81849 0.0
C114 C 0.05471 0.71665 0.84263 0.0
O115 O 0.04336 0.6539 0.76904 0.0
O116 O 0.03109 0.62553 0.80642 0.0
In117 In 0.19414 0.62335 0.81262 0.0
O118 O 0.19745 0.56025 0.85021 0.0
O119 O 0.18197 0.5415 0.8164 0.0
C120 C 0.2028 0.7179 0.83964 0.0
C121 C 0.21653 0.58598 0.77985 0.0
C122 C 0.16724 0.65429 0.79844 0.0
O123 O 0.19949 0.6743 0.85401 0.0
O124 O 0.20206 0.71357 0.81125 0.0
O125 O 0.17541 0.63208 0.77898 0.0
O126 O 0.17282 0.66154 0.82404 0.0
C127 C 0.18847 0.52595 0.8398 0.0
O128 O 0.20541 0.60566 0.76723 0.0
O129 O 0.21644 0.58858 0.80814 0.0
In130 In 0.0597 0.62891 0.43952 0.0
O131 O 0.04736 0.60552 0.48241 0.0
O132 O 0.03707 0.59504 0.43992 0.0
C133 C 0.08689 0.65238 0.456 0.0
C134 C 0.06521 0.53552 0.40835 0.0
C135 C 0.05119 0.7303 0.42057 0.0
O136 O 0.0783 0.62869 0.474 0.0
O137 O 0.08165 0.66454 0.43068 0.0
O138 O 0.05355 0.69024 0.4027 0.0
O139 O 0.05264 0.71856 0.44821 0.0
C140 C 0.03647 0.58823 0.46805 0.0
O141 O 0.06093 0.57957 0.3955 0.0
O142 O 0.06708 0.53961 0.43637 0.0
In143 In 0.19824 0.62018 0.43797 0.0
O144 O 0.21027 0.64785 0.48037 0.0
O145 O 0.22258 0.61873 0.44335 0.0
C146 C 0.17096 0.62301 0.45911 0.0
C147 C 0.20035 0.71473 0.40639 0.0
C148 C 0.19956 0.52305 0.40762 0.0
O149 O 0.18044 0.59334 0.47172 0.0
O150 O 0.1753 0.6496 0.43649 0.0
O151 O 0.19763 0.5695 0.39494 0.0
O152 O 0.20086 0.52531 0.43597 0.0
C153 C 0.22259 0.64092 0.46908 0.0
O154 O 0.20049 0.66746 0.39378 0.0
O155 O 0.19904 0.71387 0.43467 0.0
In156 In 0.94982 0.38029 0.19047 0.0
O157 O 0.96183 0.35039 0.23254 0.0
O158 O 0.97412 0.37763 0.19494 0.0
C159 C 0.92184 0.37545 0.20652 0.0
C160 C 0.95165 0.28583 0.15862 0.0
C161 C 0.95175 0.48529 0.16906 0.0
O162 O 0.93132 0.39191 0.22495 0.0
O163 O 0.92654 0.36289 0.18082 0.0
O164 O 0.95127 0.44309 0.15206 0.0
O165 O 0.9515 0.47445 0.19693 0.0
C166 C 0.97413 0.35561 0.22074 0.0
O167 O 0.95265 0.33318 0.14616 0.0
O168 O 0.94958 0.28682 0.1867 0.0
In169 In 0.81003 0.3892 0.18247 0.0
O170 O 0.79918 0.4067 0.22841 0.0
O171 O 0.78784 0.4252 0.18808 0.0
C172 C 0.83723 0.35887 0.19507 0.0
C173 C 0.81525 0.48747 0.15595 0.0
C174 C 0.80142 0.2949 0.15479 0.0
O175 O 0.82901 0.37772 0.21547 0.0
O176 O 0.83157 0.35478 0.16934 0.0
O177 O 0.80449 0.33913 0.14079 0.0
O178 O 0.80225 0.29853 0.1832 0.0
C179 C 0.78806 0.4276 0.21638 0.0
O180 O 0.8063 0.45306 0.14554 0.0
O181 O 0.82199 0.47154 0.17899 0.0
In182 In 0.94718 0.36754 0.54933 0.0
O183 O 0.95812 0.39213 0.50497 0.0
O184 O 0.971 0.38302 0.5443 0.0
C185 C 0.91882 0.37058 0.5367 0.0
C186 C 0.94872 0.46226 0.58085 0.0
C187 C 0.95113 0.2629 0.5701 0.0
O188 O 0.9279 0.35765 0.51664 0.0
O189 O 0.9241 0.38011 0.56228 0.0
O190 O 0.95028 0.30478 0.5872 0.0
O191 O 0.95022 0.27383 0.54232 0.0
C192 C 0.97038 0.39746 0.51702 0.0
O193 O 0.95041 0.41512 0.59321 0.0
O194 O 0.94601 0.46103 0.55299 0.0
In195 In 0.80654 0.37509 0.5659 0.0
O196 O 0.79567 0.35164 0.52127 0.0
O197 O 0.78393 0.34154 0.5621 0.0
C198 C 0.83438 0.39643 0.55397 0.0
C199 C 0.8107 0.28067 0.59708 0.0
C200 C 0.79793 0.47713 0.58413 0.0
O201 O 0.82597 0.37932 0.53354 0.0
O202 O 0.82863 0.40309 0.57941 0.0
O203 O 0.79932 0.43646 0.60201 0.0
O204 O 0.80034 0.46571 0.55676 0.0
C205 C 0.78431 0.33449 0.53395 0.0
O206 O 0.80632 0.32489 0.60964 0.0
O207 O 0.81326 0.28491 0.56929 0.0
In208 In 0.55514 0.11713 0.80596 0.0
O209 O 0.54346 0.14932 0.76412 0.0
O210 O 0.53091 0.11997 0.80088 0.0
C211 C 0.58319 0.1225 0.79095 0.0
C212 C 0.55316 0.21101 0.83814 0.0
C213 C 0.55264 0.0121 0.82664 0.0
O214 O 0.57385 0.10756 0.77184 0.0
O215 O 0.57832 0.13273 0.81682 0.0
O216 O 0.55302 0.05403 0.84384 0.0
O217 O 0.55335 0.02319 0.79882 0.0
C218 C 0.5311 0.14377 0.77555 0.0
O219 O 0.55227 0.16355 0.85049 0.0
O220 O 0.55524 0.21038 0.81008 0.0
In221 In 0.69539 0.12644 0.81329 0.0
O222 O 0.69546 0.06347 0.85163 0.0
O223 O 0.68876 0.03627 0.80814 0.0
C224 C 0.70332 0.22095 0.8415 0.0
C225 C 0.71855 0.09709 0.78074 0.0
C226 C 0.66764 0.15077 0.80244 0.0
O227 O 0.70187 0.17491 0.855 0.0
O228 O 0.70126 0.219 0.81331 0.0
O229 O 0.67613 0.1392 0.78103 0.0
O230 O 0.67326 0.15073 0.82826 0.0
C231 C 0.69124 0.02361 0.83521 0.0
O232 O 0.70728 0.11579 0.76825 0.0
O233 O 0.7183 0.09743 0.80913 0.0
In234 In 0.55778 0.12386 0.43731 0.0
O235 O 0.54793 0.04848 0.41546 0.0
O236 O 0.56873 0.07195 0.40044 0.0
C237 C 0.55496 0.21876 0.40546 0.0
C238 C 0.53396 0.09983 0.46957 0.0
C239 C 0.58292 0.12395 0.4683 0.0
O240 O 0.55847 0.17292 0.39352 0.0
O241 O 0.55291 0.2168 0.43361 0.0
O242 O 0.57615 0.08012 0.46198 0.0
O243 O 0.57658 0.16827 0.46069 0.0
C244 C 0.55854 0.0374 0.399 0.0
O245 O 0.54639 0.08615 0.47824 0.0
O246 O 0.53376 0.13031 0.44645 0.0
In247 In 0.69486 0.13392 0.44128 0.0
O248 O 0.70664 0.14319 0.4864 0.0
O249 O 0.71888 0.14602 0.44598 0.0
C250 C 0.66695 0.13825 0.45772 0.0
C251 C 0.69655 0.2373 0.41897 0.0
C252 C 0.69797 0.03749 0.41012 0.0
O253 O 0.67613 0.11362 0.47401 0.0
O254 O 0.67177 0.15771 0.43346 0.0
O255 O 0.69689 0.0845 0.39756 0.0
O256 O 0.69749 0.03893 0.43855 0.0
C257 C 0.71874 0.15164 0.47422 0.0
O258 O 0.69714 0.1947 0.40212 0.0
O259 O 0.69498 0.22731 0.44669 0.0
In260 In 0.44816 0.87724 0.18684 0.0
O261 O 0.45624 0.8414 0.2318 0.0
O262 O 0.47165 0.87113 0.20057 0.0
C263 C 0.42169 0.87383 0.21226 0.0
C264 C 0.45083 0.78932 0.14965 0.0
C265 C 0.45023 0.97481 0.1562 0.0
O266 O 0.42994 0.91519 0.21572 0.0
O267 O 0.42706 0.83437 0.19728 0.0
O268 O 0.44732 0.92903 0.14369 0.0
O269 O 0.45218 0.97158 0.18427 0.0
C270 C 0.46936 0.84598 0.22501 0.0
O271 O 0.4614 0.81208 0.16235 0.0
O272 O 0.43893 0.81332 0.15401 0.0
In273 In 0.31007 0.86502 0.18963 0.0
O274 O 0.29765 0.90133 0.22979 0.0
O275 O 0.28581 0.87229 0.1919 0.0
C276 C 0.33751 0.84988 0.20727 0.0
C277 C 0.31154 0.95935 0.15743 0.0
C278 C 0.3046 0.76141 0.1698 0.0
O279 O 0.3277 0.85961 0.22629 0.0
O280 O 0.33345 0.84784 0.18024 0.0
O281 O 0.30639 0.80242 0.15231 0.0
O282 O 0.30529 0.77288 0.19764 0.0
C283 C 0.28555 0.89676 0.21703 0.0
O284 O 0.3091 0.91277 0.14517 0.0
O285 O 0.31384 0.95754 0.18536 0.0
In286 In 0.44722 0.87109 0.54988 0.0
O287 O 0.46028 0.8957 0.50838 0.0
O288 O 0.47143 0.87494 0.54893 0.0
C289 C 0.4191 0.87002 0.53634 0.0
C290 C 0.44763 0.97397 0.57306 0.0
C291 C 0.45061 0.76734 0.57185 0.0
O292 O 0.42842 0.85837 0.51645 0.0
O293 O 0.42407 0.87996 0.56222 0.0
O294 O 0.45026 0.80992 0.58876 0.0
O295 O 0.44935 0.77744 0.54398 0.0
C296 C 0.47216 0.89329 0.52232 0.0
O297 O 0.44874 0.93126 0.58982 0.0
O298 O 0.44608 0.96401 0.54535 0.0
In299 In 0.30706 0.87089 0.56748 0.0
O300 O 0.30703 0.82178 0.61155 0.0
O301 O 0.31213 0.77921 0.5708 0.0
C302 C 0.30003 0.97388 0.58598 0.0
C303 C 0.28311 0.83644 0.53917 0.0
C304 C 0.33472 0.89094 0.55364 0.0
O305 O 0.30124 0.93305 0.60383 0.0
O306 O 0.30201 0.9624 0.55842 0.0
O307 O 0.32578 0.87797 0.53327 0.0
O308 O 0.3296 0.89361 0.57987 0.0
C309 C 0.31024 0.77625 0.59885 0.0
O310 O 0.29517 0.83716 0.52595 0.0
O311 O 0.28314 0.85641 0.56545 0.0
In312 In 0.55709 0.62584 0.31441 0.0
O313 O 0.54764 0.6504 0.26825 0.0
O314 O 0.53364 0.64313 0.30584 0.0
C315 C 0.58563 0.61139 0.30888 0.0
C316 C 0.55759 0.72388 0.34294 0.0
C317 C 0.55055 0.52614 0.33832 0.0
O318 O 0.57773 0.61644 0.28573 0.0
O319 O 0.57904 0.61309 0.33368 0.0
O320 O 0.55009 0.57119 0.35298 0.0
O321 O 0.5539 0.53127 0.31079 0.0
C322 C 0.5351 0.65723 0.2787 0.0
O323 O 0.55199 0.68094 0.35445 0.0
O324 O 0.56332 0.71677 0.31751 0.0
In325 In 0.69914 0.63252 0.31166 0.0
O326 O 0.70088 0.57011 0.35009 0.0
O327 O 0.6961 0.5398 0.30596 0.0
C328 C 0.70302 0.73028 0.3409 0.0
C329 C 0.72296 0.61044 0.27934 0.0
C330 C 0.6708 0.63618 0.29913 0.0
O331 O 0.70347 0.68353 0.35394 0.0
O332 O 0.70105 0.72781 0.31274 0.0
O333 O 0.68005 0.64657 0.27893 0.0
O334 O 0.67596 0.62629 0.32482 0.0
C335 C 0.69835 0.5285 0.33333 0.0
O336 O 0.71119 0.62341 0.26682 0.0
O337 O 0.72288 0.61361 0.30769 0.0
In338 In 0.55681 0.61498 0.93222 0.0
O339 O 0.54573 0.58541 0.97556 0.0
O340 O 0.53288 0.61837 0.94004 0.0
C341 C 0.58558 0.60715 0.93807 0.0
C342 C 0.55325 0.52023 0.90148 0.0
C343 C 0.5542 0.72092 0.91347 0.0
O344 O 0.57773 0.61542 0.96104 0.0
O345 O 0.57886 0.60463 0.91348 0.0
O346 O 0.55252 0.67953 0.89619 0.0
O347 O 0.55705 0.70887 0.94061 0.0
C348 C 0.53322 0.59466 0.96538 0.0
O349 O 0.55194 0.5674 0.88896 0.0
O350 O 0.55639 0.5215 0.92912 0.0
In351 In 0.69855 0.6249 0.93763 0.0
O352 O 0.69787 0.68815 0.89914 0.0
O353 O 0.69477 0.71689 0.94409 0.0
C354 C 0.70415 0.52926 0.90834 0.0
C355 C 0.72316 0.64842 0.96675 0.0
C356 C 0.67083 0.60617 0.95184 0.0
O357 O 0.70327 0.5759 0.89514 0.0
O358 O 0.70253 0.531 0.93668 0.0
O359 O 0.68045 0.60567 0.97209 0.0
O360 O 0.67539 0.61499 0.92555 0.0
C361 C 0.69563 0.729 0.91656 0.0
O362 O 0.71114 0.64867 0.98008 0.0
O363 O 0.72281 0.63222 0.93974 0.0
In364 In 0.44769 0.37161 0.67885 0.0
O365 O 0.45943 0.34903 0.72244 0.0
O366 O 0.47168 0.36381 0.68245 0.0
C367 C 0.41911 0.37962 0.68411 0.0
C368 C 0.44744 0.26817 0.65646 0.0
C369 C 0.45216 0.4759 0.65902 0.0
O370 O 0.42704 0.38002 0.70744 0.0
O371 O 0.42573 0.37595 0.65939 0.0
O372 O 0.45277 0.43383 0.64175 0.0
O373 O 0.44974 0.46495 0.68649 0.0
C374 C 0.47163 0.34828 0.70963 0.0
O375 O 0.45049 0.30989 0.64006 0.0
O376 O 0.44435 0.27938 0.68347 0.0
In377 In 0.30557 0.36928 0.69011 0.0
O378 O 0.30458 0.41962 0.64664 0.0
O379 O 0.30992 0.4615 0.6876 0.0
C380 C 0.29918 0.26552 0.67114 0.0
C381 C 0.28259 0.40384 0.72161 0.0
C382 C 0.33394 0.36147 0.70121 0.0
O383 O 0.29954 0.30699 0.65363 0.0
O384 O 0.3017 0.27665 0.69847 0.0
O385 O 0.325 0.36445 0.72267 0.0
O386 O 0.32841 0.36023 0.67531 0.0
C387 C 0.30781 0.46496 0.65958 0.0
O388 O 0.29428 0.39073 0.73444 0.0
O389 O 0.28236 0.39592 0.69353 0.0
In390 In 0.44579 0.38103 0.06059 0.0
O391 O 0.4577 0.41309 0.01857 0.0
O392 O 0.47 0.3821 0.05519 0.0
C393 C 0.41869 0.35833 0.04379 0.0
C394 C 0.44238 0.48215 0.08577 0.0
C395 C 0.4502 0.28439 0.08984 0.0
O396 O 0.42846 0.3652 0.02417 0.0
O397 O 0.42284 0.36182 0.07079 0.0
O398 O 0.44895 0.33064 0.10334 0.0
O399 O 0.4495 0.28706 0.06137 0.0
C400 C 0.47002 0.40583 0.02992 0.0
O401 O 0.45042 0.44554 0.09734 0.0
O402 O 0.43588 0.46722 0.06231 0.0
In403 In 0.30519 0.36385 0.06479 0.0
O404 O 0.29405 0.3331 0.0219 0.0
O405 O 0.28112 0.36607 0.05731 0.0
C406 C 0.33382 0.35666 0.05698 0.0
C407 C 0.30333 0.26837 0.09559 0.0
C408 C 0.30258 0.46979 0.08361 0.0
O409 O 0.32563 0.36554 0.03461 0.0
O410 O 0.32754 0.35424 0.08206 0.0
O411 O 0.30062 0.42847 0.10081 0.0
O412 O 0.30563 0.4576 0.05659 0.0
C413 C 0.28155 0.34232 0.03198 0.0
O414 O 0.3018 0.31516 0.10845 0.0
O415 O 0.30546 0.27048 0.06757 0.0
H416 H 0.10528 0.15563 0.2668 0.0
H417 H 0.10256 0.02876 0.33549 0.0
H418 H 0.12853 0.01814 0.3352 0.0
H419 H 0.15196 0.05116 0.31981 0.0
H420 H 0.15584 0.18041 0.25285 0.0
H421 H 0.12952 0.18358 0.24775 0.0
C422 C 0.11042 0.12487 0.28111 0.0
C423 C 0.10205 0.0931 0.30123 0.0
C424 C 0.12554 0.11997 0.28144 0.0
C425 C 0.10879 0.05382 0.31996 0.0
C426 C 0.12365 0.04782 0.31988 0.0
C427 C 0.14709 0.0798 0.30386 0.0
C428 C 0.1558 0.11604 0.28703 0.0
C429 C 0.13212 0.08178 0.30144 0.0
C430 C 0.14933 0.15224 0.26615 0.0
C431 C 0.1343 0.15415 0.26334 0.0
H432 H 0.15146 0.15095 0.9855 0.0
H433 H 0.15387 0.01651 0.92102 0.0
H434 H 0.12786 0.00777 0.92121 0.0
H435 H 0.10449 0.04561 0.93432 0.0
H436 H 0.10102 0.18075 0.99784 0.0
H437 H 0.12732 0.18178 0.00374 0.0
C438 C 0.14626 0.11891 0.97216 0.0
C439 C 0.15455 0.08471 0.95306 0.0
C440 C 0.13112 0.11485 0.97184 0.0
C441 C 0.14771 0.0436 0.93569 0.0
C442 C 0.13282 0.03866 0.93569 0.0
C443 C 0.10947 0.07487 0.94977 0.0
C444 C 0.10092 0.11359 0.96528 0.0
C445 C 0.12443 0.07532 0.95278 0.0
C446 C 0.10745 0.15064 0.9856 0.0
C447 C 0.12246 0.15136 0.98883 0.0
H448 H 0.90008 0.88238 0.72902 0.0
H449 H 0.90226 0.81699 0.6384 0.0
H450 H 0.87642 0.80597 0.63731 0.0
H451 H 0.85315 0.8196 0.6601 0.0
H452 H 0.84964 0.88752 0.74971 0.0
H453 H 0.87598 0.89197 0.7534 0.0
C454 C 0.89486 0.86546 0.7092 0.0
C455 C 0.90311 0.85117 0.68372 0.0
C456 C 0.87976 0.8596 0.70848 0.0
C457 C 0.8962 0.82907 0.6582 0.0
C458 C 0.88139 0.82251 0.65751 0.0
C459 C 0.85811 0.83499 0.68061 0.0
C460 C 0.84948 0.85352 0.7045 0.0
C461 C 0.87307 0.8384 0.68226 0.0
C462 C 0.85609 0.87291 0.73099 0.0
C463 C 0.87113 0.87576 0.73301 0.0
H464 H 0.89785 0.86252 0.01148 0.0
H465 H 0.90244 0.96027 0.09266 0.0
H466 H 0.87681 0.97782 0.09367 0.0
H467 H 0.85294 0.95873 0.07497 0.0
H468 H 0.847 0.85812 0.99551 0.0
H469 H 0.8732 0.84937 0.98992 0.0
C470 C 0.8932 0.88812 0.0291 0.0
C471 C 0.90203 0.90934 0.05221 0.0
C472 C 0.8782 0.89751 0.02992 0.0
C473 C 0.89588 0.94261 0.07489 0.0
C474 C 0.8812 0.95292 0.07548 0.0
C475 C 0.85735 0.93548 0.05613 0.0
C476 C 0.84807 0.90875 0.03585 0.0
C477 C 0.87225 0.92951 0.05362 0.0
C478 C 0.85395 0.87924 0.0114 0.0
C479 C 0.86892 0.87385 0.00839 0.0
H480 H 0.10185 0.69775 0.81644 0.0
H481 H 0.09844 0.56806 0.74964 0.0
H482 H 0.12461 0.57045 0.74212 0.0
H483 H 0.14871 0.6021 0.75967 0.0
H484 H 0.15122 0.73058 0.82756 0.0
H485 H 0.12514 0.73687 0.82913 0.0
C486 C 0.10682 0.67038 0.79997 0.0
C487 C 0.09835 0.63211 0.78399 0.0
C488 C 0.12172 0.67189 0.79601 0.0
C489 C 0.10482 0.59767 0.7623 0.0
C490 C 0.11976 0.59894 0.75812 0.0
C491 C 0.1435 0.63242 0.77414 0.0
C492 C 0.15183 0.66555 0.79367 0.0
C493 C 0.12838 0.63486 0.7755 0.0
C494 C 0.14501 0.7044 0.81252 0.0
C495 C 0.1301 0.70787 0.81353 0.0
H496 H 0.10534 0.58632 0.48806 0.0
H497 H 0.10281 0.73851 0.43653 0.0
H498 H 0.1289 0.74616 0.43655 0.0
H499 H 0.15221 0.70352 0.44497 0.0
H500 H 0.15559 0.54877 0.49385 0.0
H501 H 0.12943 0.54825 0.5015 0.0
C502 C 0.11055 0.62182 0.47761 0.0
C503 C 0.10224 0.66178 0.46222 0.0
C504 C 0.12567 0.62493 0.47681 0.0
C505 C 0.10904 0.70724 0.44838 0.0
C506 C 0.12394 0.7115 0.44827 0.0
C507 C 0.14726 0.66995 0.45765 0.0
C508 C 0.15574 0.62581 0.46843 0.0
C509 C 0.13234 0.66956 0.46139 0.0
C510 C 0.14923 0.5831 0.48522 0.0
C511 C 0.13429 0.58272 0.48945 0.0
H512 H 0.90266 0.31186 0.17761 0.0
H513 H 0.90629 0.42944 0.25065 0.0
H514 H 0.88 0.4298 0.25642 0.0
H515 H 0.85585 0.4038 0.23645 0.0
H516 H 0.85321 0.28775 0.16232 0.0
H517 H 0.87924 0.279 0.1615 0.0
C518 C 0.89773 0.33724 0.19502 0.0
C519 C 0.90634 0.37122 0.21338 0.0
C520 C 0.88276 0.33747 0.19794 0.0
C521 C 0.89984 0.4031 0.23616 0.0
C522 C 0.88482 0.40343 0.23936 0.0
C523 C 0.86101 0.37568 0.22066 0.0
C524 C 0.85265 0.34672 0.19932 0.0
C525 C 0.87614 0.37177 0.21983 0.0
C526 C 0.85943 0.31075 0.1788 0.0
C527 C 0.87432 0.30583 0.17824 0.0
H528 H 0.90049 0.43072 0.56967 0.0
H529 H 0.9022 0.32251 0.49223 0.0
H530 H 0.87582 0.32517 0.48847 0.0
H531 H 0.85217 0.35208 0.51069 0.0
H532 H 0.85156 0.45948 0.58878 0.0
H533 H 0.87763 0.4639 0.58856 0.0
C534 C 0.89512 0.40791 0.55181 0.0
C535 C 0.9032 0.37576 0.53155 0.0
C536 C 0.88014 0.40954 0.54996 0.0
C537 C 0.89614 0.34734 0.50818 0.0
C538 C 0.88109 0.34876 0.50612 0.0
C539 C 0.85778 0.37721 0.52723 0.0
C540 C 0.84996 0.40501 0.5499 0.0
C541 C 0.87294 0.37886 0.52733 0.0
C542 C 0.85734 0.43728 0.5713 0.0
C543 C 0.87225 0.43979 0.57125 0.0
H544 H 0.6494 0.10821 0.75957 0.0
H545 H 0.65101 0.21367 0.83831 0.0
H546 H 0.62492 0.21758 0.83986 0.0
H547 H 0.60187 0.18357 0.82256 0.0
H548 H 0.59919 0.07618 0.7449 0.0
H549 H 0.62545 0.08067 0.73896 0.0
C550 C 0.64398 0.133 0.77656 0.0
C551 C 0.65208 0.1604 0.79891 0.0
C552 C 0.62883 0.134 0.77779 0.0
C553 C 0.64499 0.19198 0.82101 0.0
C554 C 0.63007 0.1941 0.82199 0.0
C555 C 0.607 0.16135 0.80417 0.0
C556 C 0.59868 0.12886 0.78449 0.0
C557 C 0.62193 0.16392 0.80112 0.0
C558 C 0.60542 0.10122 0.76044 0.0
C559 C 0.62042 0.10371 0.75712 0.0
H560 H 0.64821 0.06455 0.48357 0.0
H561 H 0.65191 0.23257 0.44998 0.0
H562 H 0.62613 0.24666 0.45599 0.0
H563 H 0.60228 0.20731 0.46375 0.0
H564 H 0.59788 0.03625 0.49209 0.0
H565 H 0.62402 0.02742 0.49584 0.0
C566 C 0.64334 0.10447 0.47826 0.0
C567 C 0.65184 0.14741 0.46624 0.0
C568 C 0.62835 0.11157 0.48063 0.0
C569 C 0.64549 0.19884 0.45905 0.0
C570 C 0.63076 0.20693 0.46247 0.0
C571 C 0.60702 0.16856 0.47154 0.0
C572 C 0.59818 0.1225 0.47753 0.0
C573 C 0.62203 0.16304 0.47224 0.0
C574 C 0.60449 0.07234 0.4873 0.0
C575 C 0.61944 0.06715 0.48925 0.0
H576 H 0.35593 0.92186 0.23475 0.0
H577 H 0.353 0.75833 0.19503 0.0
H578 H 0.3791 0.74814 0.19735 0.0
H579 H 0.40265 0.7904 0.20417 0.0
H580 H 0.40618 0.95732 0.23959 0.0
H581 H 0.38003 0.96151 0.2459 0.0
C582 C 0.36106 0.88351 0.2275 0.0
C583 C 0.35267 0.84053 0.21506 0.0
C584 C 0.37616 0.879 0.22771 0.0
C585 C 0.35933 0.79155 0.20493 0.0
C586 C 0.37423 0.78591 0.20608 0.0
C587 C 0.39775 0.82742 0.21378 0.0
C588 C 0.40634 0.87366 0.22116 0.0
C589 C 0.38276 0.83008 0.21643 0.0
C590 C 0.3998 0.92119 0.23365 0.0
C591 C 0.38484 0.92368 0.23713 0.0
H592 H 0.35252 0.84502 0.51071 0.0
H593 H 0.35153 0.95906 0.58595 0.0
H594 H 0.37756 0.96594 0.58517 0.0
H595 H 0.40054 0.93253 0.56717 0.0
H596 H 0.40274 0.81731 0.49283 0.0
H597 H 0.37635 0.81809 0.48892 0.0
C598 C 0.35805 0.87219 0.52642 0.0
C599 C 0.35016 0.90116 0.54854 0.0
C600 C 0.37321 0.87509 0.52629 0.0
C601 C 0.3574 0.93598 0.56893 0.0
C602 C 0.37229 0.93988 0.56856 0.0
C603 C 0.39526 0.9078 0.54993 0.0
C604 C 0.40349 0.87418 0.53066 0.0
C605 C 0.38028 0.90834 0.54803 0.0
C606 C 0.39657 0.8433 0.50803 0.0
C607 C 0.3815 0.84364 0.5059 0.0
H608 H 0.65133 0.59361 0.33695 0.0
H609 H 0.65511 0.66997 0.24939 0.0
H610 H 0.62886 0.66531 0.24313 0.0
H611 H 0.60461 0.64339 0.26444 0.0
H612 H 0.60209 0.56767 0.35255 0.0
H613 H 0.62809 0.56764 0.3565 0.0
C614 C 0.64647 0.60934 0.31641 0.0
C615 C 0.65512 0.63277 0.29383 0.0
C616 C 0.63156 0.60636 0.31306 0.0
C617 C 0.64864 0.65208 0.2672 0.0
C618 C 0.63365 0.64935 0.26365 0.0
C619 C 0.60982 0.62617 0.28421 0.0
C620 C 0.60143 0.60581 0.30824 0.0
C621 C 0.62495 0.62702 0.28662 0.0
C622 C 0.60829 0.58394 0.33385 0.0
C623 C 0.62317 0.58397 0.33619 0.0
H624 H 0.65121 0.57583 0.91131 0.0
H625 H 0.65548 0.6234 0.00446 0.0
H626 H 0.62912 0.6258 0.00951 0.0
H627 H 0.60474 0.62115 0.98545 0.0
H628 H 0.60199 0.57483 0.89148 0.0
H629 H 0.6278 0.56548 0.88883 0.0
C630 C 0.64641 0.58628 0.93287 0.0
C631 C 0.65524 0.59987 0.95738 0.0
C632 C 0.63146 0.58841 0.93534 0.0
C633 C 0.64887 0.61262 0.98525 0.0
C634 C 0.63381 0.6144 0.98803 0.0
C635 C 0.60983 0.60874 0.96454 0.0
C636 C 0.60138 0.59947 0.93862 0.0
C637 C 0.62496 0.60353 0.96296 0.0
C638 C 0.60815 0.583 0.91171 0.0
C639 C 0.62297 0.57741 0.9101 0.0
H640 H 0.3531 0.37703 0.65729 0.0
H641 H 0.35018 0.35242 0.7533 0.0
H642 H 0.37654 0.3579 0.75728 0.0
H643 H 0.40056 0.36815 0.73241 0.0
H644 H 0.40196 0.39466 0.63612 0.0
H645 H 0.37604 0.39047 0.63348 0.0
C646 C 0.35817 0.37259 0.67919 0.0
C647 C 0.34973 0.36371 0.70491 0.0
C648 C 0.37309 0.37647 0.68125 0.0
C649 C 0.35649 0.35892 0.73311 0.0
C650 C 0.37154 0.36218 0.73536 0.0
C651 C 0.39513 0.37346 0.71099 0.0
C652 C 0.40323 0.38137 0.68449 0.0
C653 C 0.37998 0.37085 0.70947 0.0
C654 C 0.39606 0.38814 0.65686 0.0
C655 C 0.38119 0.3857 0.65524 0.0
H656 H 0.3529 0.3826 0.01108 0.0
H657 H 0.34991 0.30652 0.0991 0.0
H658 H 0.37569 0.29404 0.10058 0.0
H659 H 0.39918 0.31178 0.07975 0.0
H660 H 0.40361 0.39039 0.99302 0.0
H661 H 0.37729 0.39368 0.98777 0.0
C662 C 0.35794 0.36289 0.03035 0.0
C663 C 0.34948 0.34643 0.05515 0.0
C664 C 0.37303 0.35623 0.03133 0.0
C665 C 0.35614 0.32058 0.07993 0.0
C666 C 0.37092 0.31312 0.08082 0.0
C667 C 0.39441 0.329 0.05946 0.0
C668 C 0.40327 0.35123 0.03695 0.0
C669 C 0.37946 0.3319 0.05705 0.0
C670 C 0.39696 0.3728 0.01064 0.0
C671 C 0.38192 0.37515 0.0078 0.0
H672 H 0.03379 0.24088 0.24821 0.0
H673 H 0.00753 0.1515 0.31197 0.0
H674 H 0.98654 0.20596 0.29693 0.0
H675 H 0.97563 0.27945 0.26592 0.0
H676 H 1.00182 0.36961 0.20231 0.0
H677 H 0.02287 0.31549 0.21749 0.0
C678 C 0.02342 0.23286 0.25845 0.0
C679 C 0.02217 0.19184 0.28092 0.0
C680 C 0.01144 0.2653 0.25018 0.0
C681 C 0.00873 0.18262 0.29446 0.0
C682 C 0.99675 0.21399 0.28603 0.0
C683 C 0.98599 0.28789 0.25575 0.0
C684 C 0.98717 0.32884 0.23322 0.0
C685 C 0.998 0.25584 0.26414 0.0
C686 C 1.00064 0.3386 0.21989 0.0
C687 C 0.01267 0.30735 0.22837 0.0
H688 H 0.22506 0.00795 0.23921 0.0
H689 H 0.25116 0.1224 0.2904 0.0
H690 H 0.27267 0.06851 0.278 0.0
H691 H 0.28398 0.98705 0.25384 0.0
H692 H 0.25787 0.87306 0.20242 0.0
H693 H 0.23641 0.92767 0.21427 0.0
C694 C 0.23549 0.0217 0.24715 0.0
C695 C 0.23653 0.06941 0.26546 0.0
C696 C 0.24776 0.98973 0.24055 0.0
C697 C 0.25009 0.08609 0.27604 0.0
C698 C 0.26238 0.05498 0.26921 0.0
C699 C 0.27355 0.97372 0.24567 0.0
C700 C 0.27246 0.92563 0.22768 0.0
C701 C 0.26131 0.00618 0.25192 0.0
C702 C 0.25894 0.9096 0.2166 0.0
C703 C 0.24669 0.94107 0.22315 0.0
H704 H 0.03093 0.00395 0.00448 0.0
H705 H 0.00547 0.12249 0.9546 0.0
H706 H 0.98362 0.07065 0.96693 0.0
H707 H 0.97174 0.99137 0.99199 0.0
H708 H 0.99734 0.8726 0.04146 0.0
H709 H 0.01916 0.92375 0.02849 0.0
C710 C 0.02057 0.01891 0.99675 0.0
C711 C 0.01978 0.06746 0.97909 0.0
C712 C 0.00811 0.98804 0.00322 0.0
C713 C 0.00632 0.08558 0.96856 0.0
C714 C 0.99384 0.05568 0.97537 0.0
C715 C 0.98213 0.97608 -0.00064 0.0
C716 C 0.98294 0.92795 0.0174 0.0
C717 C 0.99462 0.00653 0.99245 0.0
C718 C 0.99645 0.90928 0.02733 0.0
C719 C 0.00892 0.93881 0.02018 0.0
H720 H 0.21999 0.25576 0.99606 0.0
H721 H 0.24476 0.10968 0.97291 0.0
H722 H 0.26686 0.15752 0.98726 0.0
H723 H 0.27928 0.24155 0.00545 0.0
H724 H 0.25456 0.38573 0.03138 0.0
H725 H 0.23235 0.33866 0.01615 0.0
C726 C 0.2302 0.2341 0.99461 0.0
C727 C 0.2307 0.17912 0.98353 0.0
C728 C 0.24291 0.26207 0.00266 0.0
C729 C 0.24404 0.15184 0.98157 0.0
C730 C 0.25671 0.17936 0.98948 0.0
C731 C 0.26904 0.26295 0.00715 0.0
C732 C 0.26852 0.31743 0.01876 0.0
C733 C 0.25631 0.23474 -0.00039 0.0
C734 C 0.25518 0.34412 0.02195 0.0
C735 C 0.2425 0.31702 0.01355 0.0
H736 H 0.97116 0.7589 0.75121 0.0
H737 H 0.99855 0.8673 0.69915 0.0
H738 H 0.01962 0.81399 0.71475 0.0
H739 H 0.03021 0.73481 0.74173 0.0
H740 H 0.00309 0.62686 0.79456 0.0
H741 H 0.98192 0.68082 0.77955 0.0
C742 C 0.98178 0.77148 0.74381 0.0
C743 C 0.98331 0.81723 0.72425 0.0
C744 C 0.99384 0.73983 0.75234 0.0
C745 C 0.9971 0.83246 0.71439 0.0
C746 C 0.00914 0.80169 0.72306 0.0
C747 C 0.01964 0.72259 0.74957 0.0
C748 C 0.01816 0.6764 0.7688 0.0
C749 C 0.00761 0.75472 0.74157 0.0
C750 C 0.00445 0.66188 0.77941 0.0
C751 C 0.99237 0.693 0.77106 0.0
H752 H 0.74136 0.04306 0.80465 0.0
H753 H 0.72187 0.08667 0.71962 0.0
H754 H 0.73996 0.03117 0.69296 0.0
H755 H 0.76092 0.96854 0.69409 0.0
H756 H 0.7802 0.92484 0.77934 0.0
H757 H 0.76235 0.98152 0.80578 0.0
C758 C 0.74114 0.04099 0.78025 0.0
C759 C 0.73032 0.06924 0.76411 0.0
C760 C 0.75137 0.00828 0.76521 0.0
C761 C 0.73014 0.06567 0.73253 0.0
C762 C 0.74041 0.03363 0.71733 0.0
C763 C 0.76114 0.97102 0.71849 0.0
C764 C 0.7718 0.94212 0.73478 0.0
C765 C 0.75097 0.00427 0.73348 0.0
C766 C 0.77205 0.94633 0.76632 0.0
C767 C 0.7619 0.97897 0.78142 0.0
H768 H 0.72408 0.74669 0.99596 0.0
H769 H 0.75096 0.61448 0.96214 0.0
H770 H 0.77251 0.66758 0.97578 0.0
H771 H 0.78362 0.75244 0.99673 0.0
H772 H 0.75655 0.8872 0.02735 0.0
H773 H 0.73517 0.83311 0.01476 0.0
C774 C 0.73468 0.72916 0.99222 0.0
C775 C 0.73602 0.67622 0.97894 0.0
C776 C 0.74696 0.76102 0.99879 0.0
C777 C 0.74975 0.65471 0.97298 0.0
C778 C 0.76203 0.68529 0.98047 0.0
C779 C 0.77304 0.77031 0.00022 0.0
C780 C 0.77171 0.82391 0.01289 0.0
C781 C 0.76077 0.73878 0.99309 0.0
C782 C 0.75791 0.84626 0.01743 0.0
C783 C 0.74566 0.81511 0.01052 0.0
H784 H 0.2394 0.53459 0.80482 0.0
H785 H 0.21955 0.56946 0.71897 0.0
H786 H 0.23798 0.51349 0.69355 0.0
H787 H 0.25956 0.4543 0.69602 0.0
H788 H 0.27933 0.42037 0.78208 0.0
H789 H 0.26084 0.47581 0.80732 0.0
C790 C 0.23914 0.53037 0.78049 0.0
C791 C 0.22817 0.55641 0.76375 0.0
C792 C 0.2496 0.49773 0.76621 0.0
C793 C 0.22794 0.55015 0.73231 0.0
C794 C 0.23841 0.51791 0.71783 0.0
C795 C 0.25974 0.45855 0.72035 0.0
C796 C 0.27074 0.43292 0.73723 0.0
C797 C 0.24923 0.49123 0.7346 0.0
C798 C 0.27093 0.43939 0.76865 0.0
C799 C 0.26041 0.4713 0.78304 0.0
H800 H 0.01354 0.54152 0.44015 0.0
H801 H 0.03324 0.56135 0.52752 0.0
H802 H 0.01503 0.50056 0.54983 0.0
H803 H 0.99367 0.44163 0.5444 0.0
H804 H 0.97352 0.42365 0.45738 0.0
H805 H 0.992 0.48313 0.4348 0.0
C806 C 0.01379 0.53295 0.46413 0.0
C807 C 0.0247 0.55615 0.4822 0.0
C808 C 0.00337 0.49761 0.4767 0.0
C809 C 0.02491 0.54435 0.51318 0.0
C810 C 0.01456 0.50929 0.52589 0.0
C811 C 0.99342 0.45005 0.5204 0.0
C812 C 0.98234 0.42772 0.50248 0.0
C813 C 0.00382 0.48538 0.50781 0.0
C814 C 0.98202 0.43992 0.47156 0.0
C815 C 0.99251 0.47421 0.45872 0.0
H816 H 0.22389 0.71959 0.51278 0.0
H817 H 0.25042 0.62386 0.45216 0.0
H818 H 0.27145 0.67851 0.46693 0.0
H819 H 0.2822 0.7554 0.49626 0.0
H820 H 0.25546 0.85089 0.5566 0.0
H821 H 0.23457 0.79542 0.54223 0.0
C822 C 0.23432 0.71001 0.50321 0.0
C823 C 0.23562 0.66737 0.48165 0.0
C824 C 0.24627 0.7425 0.51121 0.0
C825 C 0.24917 0.65616 0.46903 0.0
C826 C 0.26117 0.68774 0.47724 0.0
C827 C 0.27174 0.76454 0.50585 0.0
C828 C 0.27032 0.80756 0.52718 0.0
C829 C 0.25981 0.73161 0.49798 0.0
C830 C 0.25679 0.81825 0.53994 0.0
C831 C 0.24486 0.78629 0.53192 0.0
H832 H 0.76588 0.48574 0.19268 0.0
H833 H 0.78518 0.44007 0.27759 0.0
H834 H 0.76728 0.49638 0.30439 0.0
H835 H 0.74603 0.5576 0.3035 0.0
H836 H 0.72669 0.60196 0.21843 0.0
H837 H 0.745 0.5479 0.19173 0.0
C838 C 0.76615 0.48771 0.21709 0.0
C839 C 0.77679 0.45828 0.23317 0.0
C840 C 0.75596 0.52057 0.23221 0.0
C841 C 0.77704 0.4619 0.26473 0.0
C842 C 0.76686 0.49434 0.28001 0.0
C843 C 0.74593 0.55613 0.27908 0.0
C844 C 0.73505 0.58414 0.26293 0.0
C845 C 0.7563 0.52396 0.26396 0.0
C846 C 0.73498 0.58115 0.23135 0.0
C847 C 0.74539 0.54993 0.21611 0.0
H848 H 0.76159 0.28112 0.55887 0.0
H849 H 0.78192 0.31488 0.47344 0.0
H850 H 0.76408 0.2568 0.44783 0.0
H851 H 0.74255 0.1979 0.4497 0.0
H852 H 0.72195 0.16557 0.53501 0.0
H853 H 0.74032 0.22068 0.56086 0.0
C854 C 0.76207 0.27613 0.5346 0.0
C855 C 0.77299 0.30274 0.51802 0.0
C856 C 0.75189 0.24225 0.52013 0.0
C857 C 0.77356 0.29526 0.48666 0.0
C858 C 0.76342 0.26179 0.47206 0.0
C859 C 0.7422 0.20211 0.47402 0.0
C860 C 0.73094 0.17731 0.49047 0.0
C861 C 0.75256 0.23501 0.48858 0.0
C862 C 0.73055 0.18386 0.52189 0.0
C863 C 0.74098 0.21574 0.53663 0.0
H864 H 0.47209 0.26471 0.75076 0.0
H865 H 0.49956 0.36743 0.69572 0.0
H866 H 0.52032 0.31037 0.70945 0.0
H867 H 0.53053 0.22959 0.73586 0.0
H868 H 0.50311 0.12612 0.79064 0.0
H869 H 0.48239 0.18409 0.7776 0.0
C870 C 0.48269 0.27529 0.74238 0.0
C871 C 0.48436 0.32066 0.72265 0.0
C872 C 0.49449 0.24118 0.7496 0.0
C873 C 0.49807 0.33306 0.71125 0.0
C874 C 0.5099 0.30011 0.71882 0.0
C875 C 0.51997 0.21916 0.74451 0.0
C876 C 0.51831 0.17319 0.76383 0.0
C877 C 0.5082 0.25348 0.73753 0.0
C878 C 0.50462 0.16094 0.77542 0.0
C879 C 0.49281 0.19439 0.76822 0.0
H880 H 0.47366 0.98579 0.48773 0.0
H881 H 0.49982 0.86657 0.53544 0.0
H882 H 0.52125 0.92276 0.52556 0.0
H883 H 0.53243 0.00664 0.5041 0.0
H884 H 0.50615 0.1271 0.45742 0.0
H885 H 0.48479 0.07056 0.467 0.0
C886 C 0.48411 0.97156 0.49532 0.0
C887 C 0.48526 0.92157 0.51167 0.0
C888 C 0.49627 0.00514 0.49054 0.0
C889 C 0.49876 0.90447 0.52233 0.0
C890 C 0.51097 0.93688 0.51699 0.0
C891 C 0.52199 0.02105 0.49653 0.0
C892 C 0.52086 0.07128 0.48032 0.0
C893 C 0.50982 0.98769 0.5015 0.0
C894 C 0.50728 0.08887 0.47021 0.0
C895 C 0.49509 0.05625 0.47538 0.0
H896 H 0.49542 0.81761 0.2026 0.0
H897 H 0.46851 0.79939 0.28111 0.0
H898 H 0.48615 0.73609 0.30363 0.0
H899 H 0.50897 0.68533 0.30067 0.0
H900 H 0.5358 0.70225 0.22194 0.0
H901 H 0.51818 0.76565 0.19937 0.0
C902 C 0.49352 0.8005 0.22487 0.0
C903 C 0.48077 0.81384 0.24041 0.0
C904 C 0.50351 0.76299 0.23725 0.0
C905 C 0.47831 0.7903 0.2689 0.0
C906 C 0.48833 0.75376 0.28163 0.0
C907 C 0.51091 0.7023 0.27839 0.0
C908 C 0.52366 0.68877 0.26291 0.0
C909 C 0.50088 0.73942 0.26587 0.0
C910 C 0.52603 0.71153 0.23419 0.0
C911 C 0.51602 0.74819 0.22143 0.0
H912 H 0.47198 0.49572 0.99303 0.0
H913 H 0.49762 0.376 0.04167 0.0
H914 H 0.51948 0.42683 0.0284 0.0
H915 H 0.53133 0.50593 0.00323 0.0
H916 H 0.50563 0.6259 0.95486 0.0
H917 H 0.48378 0.57543 0.96845 0.0
C918 C 0.48239 0.48026 0.00022 0.0
C919 C 0.48322 0.43174 0.01789 0.0
C920 C 0.49487 0.5106 0.99323 0.0
C921 C 0.49674 0.41293 0.02773 0.0
C922 C 0.50922 0.44226 0.0204 0.0
C923 C 0.52092 0.52161 0.99623 0.0
C924 C 0.52008 0.56992 0.97838 0.0
C925 C 0.50841 0.49154 0.00347 0.0
C926 C 0.50654 0.58908 0.96888 0.0
C927 C 0.49405 0.55994 0.97638 0.0
H928 H 0.06707 0.43395 0.43406 0.0
H929 H 0.06605 0.51658 0.34771 0.0
H930 H 0.06641 0.42606 0.32218 0.0
H931 H 0.0657 0.32401 0.32467 0.0
H932 H 0.06514 0.24159 0.4111 0.0
H933 H 0.06673 0.33194 0.43654 0.0
C934 C 0.06709 0.43217 0.40963 0.0
C935 C 0.06659 0.48168 0.39271 0.0
C936 C 0.06692 0.38022 0.39525 0.0
C937 C 0.06645 0.47888 0.36114 0.0
C938 C 0.06663 0.42724 0.34659 0.0
C939 C 0.06605 0.3258 0.34908 0.0
C940 C 0.06532 0.27638 0.36606 0.0
C941 C 0.06666 0.37772 0.36345 0.0
C942 C 0.06566 0.27919 0.39762 0.0
C943 C 0.06657 0.33074 0.41213 0.0
H944 H 0.20201 0.8184 0.42969 0.0
H945 H 0.20073 0.72864 0.34541 0.0
H946 H 0.20128 0.81673 0.3177 0.0
H947 H 0.2014 0.91884 0.31765 0.0
H948 H 0.20266 0.00852 0.40195 0.0
H949 H 0.20289 0.92037 0.42961 0.0
C950 C 0.20189 0.81812 0.40525 0.0
C951 C 0.20125 0.76733 0.38955 0.0
C952 C 0.20218 0.86868 0.38957 0.0
C953 C 0.20119 0.76739 0.35793 0.0
C954 C 0.20148 0.81764 0.34211 0.0
C955 C 0.20176 0.91907 0.34208 0.0
C956 C 0.20193 0.96988 0.35781 0.0
C957 C 0.20186 0.86846 0.35773 0.0
C958 C 0.20248 0.96976 0.38941 0.0
C959 C 0.20261 0.91948 0.4052 0.0
H960 H 0.05562 0.92215 0.93087 0.0
H961 H 0.05625 0.01113 0.84635 0.0
H962 H 0.05546 0.92265 0.81891 0.0
H963 H 0.05494 0.8205 0.81914 0.0
H964 H 0.05412 0.73152 0.90365 0.0
H965 H 0.05459 0.82004 0.93109 0.0
C966 C 0.05559 0.92221 0.90643 0.0
C967 C 0.05606 0.97298 0.89059 0.0
C968 C 0.05509 0.8714 0.89092 0.0
C969 C 0.05592 0.97251 0.85899 0.0
C970 C 0.05547 0.92201 0.84333 0.0
C971 C 0.05485 0.82044 0.84358 0.0
C972 C 0.05455 0.76965 0.85941 0.0
C973 C 0.05511 0.87128 0.85909 0.0
C974 C 0.05436 0.77016 0.89102 0.0
C975 C 0.05464 0.82068 0.90668 0.0
H976 H 0.2103 0.45866 0.85421 0.0
H977 H 0.16414 0.46546 0.84846 0.0
H978 H 0.16257 0.36763 0.86444 0.0
H979 H 0.17451 0.28089 0.88052 0.0
H980 H 0.22082 0.27274 0.88184 0.0
H981 H 0.22223 0.37028 0.86637 0.0
C982 C 0.19992 0.43866 0.85685 0.0
C983 C 0.18733 0.46884 0.85105 0.0
C984 C 0.19917 0.38223 0.86467 0.0
C985 C 0.17392 0.44266 0.85337 0.0
C986 C 0.17304 0.38691 0.8623 0.0
C987 C 0.18489 0.30041 0.87705 0.0
C988 C 0.19754 0.27 0.88235 0.0
C989 C 0.18562 0.3563 0.86795 0.0
C990 C 0.21094 0.29537 0.87767 0.0
C991 C 0.21176 0.35121 0.86911 0.0
H992 H 0.95119 0.66809 0.66838 0.0
H993 H 0.95209 0.75627 0.58364 0.0
H994 H 0.95185 0.66751 0.55641 0.0
H995 H 0.95039 0.56545 0.55692 0.0
H996 H 0.94976 0.47737 0.64171 0.0
H997 H 0.95089 0.56601 0.6689 0.0
C998 C 0.9514 0.66788 0.64394 0.0
C999 C 0.95156 0.71845 0.62796 0.0
C1000 C 0.95123 0.61696 0.62857 0.0
C1001 C 0.95196 0.71773 0.59636 0.0
C1002 C 0.95177 0.6671 0.58083 0.0
C1003 C 0.9505 0.56568 0.58136 0.0
C1004 C 0.94986 0.5152 0.59737 0.0
C1005 C 0.95122 0.61656 0.59673 0.0
C1006 C 0.9502 0.51587 0.62897 0.0
C1007 C 0.95083 0.56643 0.64448 0.0
H1008 H 0.81117 0.06999 0.68151 0.0
H1009 H 0.81077 0.98637 0.59541 0.0
H1010 H 0.81204 0.07646 0.5696 0.0
H1011 H 0.8123 0.17865 0.57169 0.0
H1012 H 0.81112 0.26229 0.65774 0.0
H1013 H 0.81151 0.17213 0.68359 0.0
C1014 C 0.81147 0.07148 0.65709 0.0
C1015 C 0.81092 0.02179 0.64031 0.0
C1016 C 0.81189 0.12325 0.64251 0.0
C1017 C 0.81116 0.0242 0.60873 0.0
C1018 C 0.81189 0.0756 0.59402 0.0
C1019 C 0.81226 0.17713 0.59611 0.0
C1020 C 0.81174 0.22685 0.61287 0.0
C1021 C 0.81213 0.12533 0.6107 0.0
C1022 C 0.81152 0.22443 0.64444 0.0
C1023 C 0.81173 0.17299 0.65918 0.0
H1024 H 0.95276 0.18232 0.18231 0.0
H1025 H 0.95244 0.27088 0.09766 0.0
H1026 H 0.95256 0.18222 0.07034 0.0
H1027 H 0.95172 0.08015 0.07076 0.0
H1028 H 0.95202 0.99157 0.15542 0.0
H1029 H 0.95305 0.08017 0.1827 0.0
C1030 C 0.95276 0.18223 0.15787 0.0
C1031 C 0.95247 0.2329 0.14195 0.0
C1032 C 0.95282 0.13134 0.14244 0.0
C1033 C 0.95262 0.2323 0.11034 0.0
C1034 C 0.95267 0.18171 0.09476 0.0
C1035 C 0.95207 0.08021 0.0952 0.0
C1036 C 0.95169 0.02958 0.11114 0.0
C1037 C 0.95261 0.13108 0.11061 0.0
C1038 C 0.95228 0.03013 0.14272 0.0
C1039 C 0.95283 0.08069 0.15828 0.0
H1040 H 0.79316 0.55311 0.141 0.0
H1041 H 0.83929 0.55027 0.14864 0.0
H1042 H 0.84044 0.64832 0.13292 0.0
H1043 H 0.82817 0.73382 0.11616 0.0
H1044 H 0.78185 0.73788 0.11254 0.0
H1045 H 0.78084 0.64044 0.12835 0.0
C1046 C 0.80345 0.57402 0.13886 0.0
C1047 C 0.81616 0.54489 0.14508 0.0
C1048 C 0.80394 0.63053 0.13111 0.0
C1049 C 0.82943 0.57225 0.14339 0.0
C1050 C 0.83006 0.62812 0.13462 0.0
C1051 C 0.81787 0.71347 0.11924 0.0
C1052 C 0.80511 0.74264 0.11314 0.0
C1053 C 0.81737 0.65762 0.12842 0.0
C1054 C 0.79181 0.7162 0.11732 0.0
C1055 C 0.79122 0.66042 0.12606 0.0
H1056 H 0.55091 0.314 0.81442 0.0
H1057 H 0.55302 0.22603 0.89915 0.0
H1058 H 0.55261 0.31486 0.92634 0.0
H1059 H 0.55273 0.41705 0.92566 0.0
H1060 H 0.55056 0.50478 0.84086 0.0
H1061 H 0.54983 0.41591 0.81385 0.0
C1062 C 0.55125 0.31425 0.83886 0.0
C1063 C 0.55213 0.26378 0.85484 0.0
C1064 C 0.55101 0.36517 0.85419 0.0
C1065 C 0.55239 0.26451 0.88644 0.0
C1066 C 0.55217 0.31518 0.90193 0.0
C1067 C 0.55204 0.41671 0.90126 0.0
C1068 C 0.55182 0.46719 0.88518 0.0
C1069 C 0.55166 0.36569 0.88599 0.0
C1070 C 0.55078 0.46632 0.85365 0.0
C1071 C 0.55039 0.41563 0.83824 0.0
H1072 H 0.69122 0.76494 0.85933 0.0
H1073 H 0.69726 0.82272 0.95054 0.0
H1074 H 0.69588 0.91933 0.93361 0.0
H1075 H 0.69372 0.9874 0.89273 0.0
H1076 H 0.68708 0.9301 0.80162 0.0
H1077 H 0.68778 0.83335 0.81869 0.0
C1078 C 0.69221 0.79877 0.87543 0.0
C1079 C 0.69441 0.78693 0.90603 0.0
C1080 C 0.69126 0.85423 0.86561 0.0
C1081 C 0.69555 0.83094 0.92681 0.0
C1082 C 0.69478 0.88616 0.91718 0.0
C1083 C 0.69232 0.95371 0.87668 0.0
C1084 C 0.69041 0.96571 0.84602 0.0
C1085 C 0.69272 0.89829 0.88662 0.0
C1086 C 0.68855 0.92179 0.82542 0.0
C1087 C 0.68901 0.86648 0.83511 0.0
H1088 H 0.57228 0.81705 0.32763 0.0
H1089 H 0.54029 0.75416 0.38927 0.0
H1090 H 0.53711 0.8473 0.41036 0.0
H1091 H 0.54341 0.94559 0.41135 0.0
H1092 H 0.5765 0.00892 0.3526 0.0
H1093 H 0.57917 0.91622 0.32977 0.0
C1094 C 0.56467 0.82384 0.34576 0.0
C1095 C 0.55652 0.77911 0.35695 0.0
C1096 C 0.56301 0.87733 0.35795 0.0
C1097 C 0.54673 0.78806 0.38049 0.0
C1098 C 0.54485 0.84124 0.3924 0.0
C1099 C 0.5511 0.93931 0.39329 0.0
C1100 C 0.55963 0.9838 0.38329 0.0
C1101 C 0.55288 0.88606 0.38121 0.0
C1102 C 0.56976 0.97505 0.36039 0.0
C1103 C 0.57132 0.92219 0.3475 0.0
H1104 H 0.6958 0.27098 0.36066 0.0
H1105 H 0.69924 0.33225 0.45181 0.0
H1106 H 0.70033 0.42796 0.43336 0.0
H1107 H 0.70002 0.49435 0.39139 0.0
H1108 H 0.69599 0.43344 0.30029 0.0
H1109 H 0.69541 0.33753 0.31864 0.0
C1110 C 0.69684 0.30533 0.37642 0.0
C1111 C 0.69744 0.29472 0.40747 0.0
C1112 C 0.69732 0.36028 0.3657 0.0
C1113 C 0.69871 0.33949 0.42774 0.0
C1114 C 0.69935 0.3942 0.41724 0.0
C1115 C 0.69904 0.46004 0.37559 0.0
C1116 C 0.69805 0.47082 0.34461 0.0
C1117 C 0.69861 0.40509 0.38629 0.0
C1118 C 0.69674 0.4261 0.32432 0.0
C1119 C 0.69642 0.37127 0.33476 0.0
H1120 H 0.46355 0.54169 0.11177 0.0
H1121 H 0.41938 0.5513 0.08315 0.0
H1122 H 0.41823 0.64913 0.09878 0.0
H1123 H 0.42979 0.73129 0.12129 0.0
H1124 H 0.47442 0.72271 0.14724 0.0
H1125 H 0.47553 0.62549 0.13125 0.0
C1126 C 0.45366 0.56523 0.1093 0.0
C1127 C 0.44149 0.53958 0.09695 0.0
C1128 C 0.45325 0.62173 0.11734 0.0
C1129 C 0.42882 0.57047 0.09297 0.0
C1130 C 0.42819 0.62631 0.10173 0.0
C1131 C 0.4398 0.70832 0.12303 0.0
C1132 C 0.45198 0.73401 0.13545 0.0
C1133 C 0.44035 0.65239 0.11389 0.0
C1134 C 0.4649 0.70387 0.1376 0.0
C1135 C 0.46552 0.64814 0.12872 0.0
H1136 H 0.30934 0.06186 0.18195 0.0
H1137 H 0.31093 0.97566 0.09663 0.0
H1138 H 0.30799 0.0643 0.07001 0.0
H1139 H 0.30504 0.16565 0.0712 0.0
H1140 H 0.30295 0.25181 0.15649 0.0
H1141 H 0.3058 0.16313 0.18314 0.0
C1142 C 0.30916 0.06254 0.15751 0.0
C1143 C 0.31049 0.01258 0.14117 0.0
C1144 C 0.30722 0.1133 0.14249 0.0
C1145 C 0.31 0.01378 0.10959 0.0
C1146 C 0.30828 0.06431 0.09442 0.0
C1147 C 0.30514 0.16503 0.09564 0.0
C1148 C 0.30382 0.21505 0.11193 0.0
C1149 C 0.30684 0.1142 0.11067 0.0
C1150 C 0.3039 0.21371 0.14353 0.0
C1151 C 0.30561 0.16315 0.15872 0.0
H1152 H 0.45 0.23228 0.59864 0.0
H1153 H 0.44515 0.17393 0.69003 0.0
H1154 H 0.44515 0.07749 0.6726 0.0
H1155 H 0.4462 0.00939 0.63124 0.0
H1156 H 0.45038 0.06811 0.53976 0.0
H1157 H 0.451 0.16435 0.55734 0.0
C1158 C 0.44898 0.19841 0.61469 0.0
C1159 C 0.44756 0.21016 0.64549 0.0
C1160 C 0.44885 0.14299 0.60452 0.0
C1161 C 0.4462 0.16593 0.6661 0.0
C1162 C 0.44621 0.11072 0.6562 0.0
C1163 C 0.44729 0.04331 0.61523 0.0
C1164 C 0.44822 0.03173 0.58433 0.0
C1165 C 0.44749 0.09873 0.62544 0.0
C1166 C 0.44957 0.07601 0.56374 0.0
C1167 C 0.44994 0.13109 0.57373 0.0
H1168 H 0.30974 0.56735 0.68449 0.0
H1169 H 0.30807 0.48226 0.59886 0.0
H1170 H 0.30945 0.57171 0.57252 0.0
H1171 H 0.3105 0.67369 0.57403 0.0
H1172 H 0.31098 0.7591 0.65961 0.0
H1173 H 0.31078 0.66945 0.68598 0.0
C1174 C 0.30974 0.56839 0.66005 0.0
C1175 C 0.30882 0.51848 0.64356 0.0
C1176 C 0.31033 0.6198 0.64517 0.0
C1177 C 0.30873 0.52028 0.61197 0.0
C1178 C 0.30954 0.57131 0.59694 0.0
C1179 C 0.31068 0.67266 0.59846 0.0
C1180 C 0.31081 0.7227 0.61494 0.0
C1181 C 0.31027 0.62125 0.61334 0.0
C1182 C 0.31088 0.72096 0.64653 0.0
C1183 C 0.31075 0.66982 0.66156 0.0
H1184 H 0.04948 0.76576 0.36256 0.0
H1185 H 0.04723 0.82411 0.45442 0.0
H1186 H 0.046 0.92051 0.43674 0.0
H1187 H 0.04767 0.98843 0.39541 0.0
H1188 H 0.0505 0.93005 0.30363 0.0
H1189 H 0.04929 0.83351 0.32105 0.0
C1190 C 0.04852 0.79952 0.37871 0.0
C1191 C 0.04854 0.78779 0.40977 0.0
C1192 C 0.04803 0.85489 0.3684 0.0
C1193 C 0.04727 0.832 0.43039 0.0
C1194 C 0.04662 0.88717 0.4203 0.0
C1195 C 0.04785 0.95459 0.37919 0.0
C1196 C 0.04928 0.96641 0.34828 0.0
C1197 C 0.04732 0.89916 0.38939 0.0
C1198 C 0.04945 0.92211 0.32755 0.0
C1199 C 0.04879 0.86687 0.3375 0.0
H1200 H 0.20441 0.4186 0.42916 0.0
H1201 H 0.19593 0.50969 0.34722 0.0
H1202 H 0.19636 0.42303 0.31839 0.0
H1203 H 0.19863 0.32095 0.31655 0.0
H1204 H 0.207 0.22991 0.39857 0.0
H1205 H 0.20721 0.31681 0.42715 0.0
C1206 C 0.20268 0.41943 0.405 0.0
C1207 C 0.20011 0.47041 0.39038 0.0
C1208 C 0.20294 0.36943 0.38852 0.0
C1209 C 0.19792 0.47092 0.35903 0.0
C1210 C 0.19816 0.42139 0.3425 0.0
C1211 C 0.20057 0.32022 0.34065 0.0
C1212 C 0.20277 0.26911 0.3554 0.0
C1213 C 0.2006 0.37036 0.35702 0.0
C1214 C 0.20526 0.26875 0.38665 0.0
C1215 C 0.20536 0.31841 0.40306 0.0
H1216 H 0.05311 0.48326 0.88988 0.0
H1217 H 0.05289 0.42031 0.7988 0.0
H1218 H 0.05315 0.32463 0.81774 0.0
H1219 H 0.05402 0.25879 0.86018 0.0
H1220 H 0.05447 0.32178 0.95125 0.0
H1221 H 0.05352 0.4174 0.93232 0.0
C1222 C 0.05305 0.4486 0.87418 0.0
C1223 C 0.05299 0.45891 0.84298 0.0
C1224 C 0.05328 0.39367 0.88523 0.0
C1225 C 0.05294 0.41353 0.82293 0.0
C1226 C 0.05311 0.35879 0.83374 0.0
C1227 C 0.05387 0.29344 0.87588 0.0
C1228 C 0.05434 0.28316 0.90708 0.0
C1229 C 0.05337 0.34835 0.86484 0.0
C1230 C 0.05413 0.32853 0.92713 0.0
C1231 C 0.05359 0.38324 0.91632 0.0
H1232 H 0.20737 0.92485 0.926 0.0
H1233 H 0.20648 0.01217 0.84104 0.0
H1234 H 0.20728 0.92343 0.81399 0.0
H1235 H 0.20599 0.82083 0.81461 0.0
H1236 H 0.20619 0.73418 0.89983 0.0
H1237 H 0.20804 0.82273 0.92657 0.0
C1238 C 0.20754 0.92449 0.90156 0.0
C1239 C 0.20675 0.97495 0.88556 0.0
C1240 C 0.20779 0.87337 0.88618 0.0
C1241 C 0.20703 0.97384 0.8539 0.0
C1242 C 0.20744 0.92311 0.8384 0.0
C1243 C 0.20666 0.82135 0.83901 0.0
C1244 C 0.20584 0.77107 0.85521 0.0
C1245 C 0.20749 0.87257 0.85432 0.0
C1246 C 0.20671 0.77235 0.88682 0.0
C1247 C 0.20774 0.82298 0.90216 0.0
H1248 H 0.95007 0.22973 0.62851 0.0
H1249 H 0.95495 0.16711 0.53793 0.0
H1250 H 0.95587 0.07161 0.55709 0.0
H1251 H 0.95439 0.00585 0.59932 0.0
H1252 H 0.94876 0.06812 0.68978 0.0
H1253 H 0.94909 0.16394 0.67092 0.0
C1254 C 0.95143 0.1952 0.61298 0.0
C1255 C 0.95243 0.20544 0.58184 0.0
C1256 C 0.95178 0.1404 0.62412 0.0
C1257 C 0.95414 0.16029 0.56199 0.0
C1258 C 0.95466 0.10569 0.57292 0.0
C1259 C 0.95332 0.0404 0.61494 0.0
C1260 C 0.95154 0.02993 0.6459 0.0
C1261 C 0.95335 0.09525 0.60391 0.0
C1262 C 0.95013 0.0751 0.66584 0.0
C1263 C 0.95031 0.12987 0.65507 0.0
H1264 H 0.79495 0.51216 0.64202 0.0
H1265 H 0.79532 0.57169 0.55029 0.0
H1266 H 0.79411 0.66798 0.56819 0.0
H1267 H 0.79503 0.73537 0.60995 0.0
H1268 H 0.7954 0.67567 0.70166 0.0
H1269 H 0.79411 0.57947 0.68373 0.0
C1270 C 0.79456 0.54617 0.62592 0.0
C1271 C 0.7953 0.53475 0.59486 0.0
C1272 C 0.7941 0.60147 0.63639 0.0
C1273 C 0.7948 0.5793 0.57432 0.0
C1274 C 0.79415 0.63442 0.58455 0.0
C1275 C 0.79464 0.70134 0.62602 0.0
C1276 C 0.7954 0.71269 0.6571 0.0
C1277 C 0.79411 0.64603 0.61554 0.0
C1278 C 0.79488 0.66811 0.67762 0.0
C1279 C 0.79418 0.61304 0.66738 0.0
H1280 H 0.94934 0.51853 0.11069 0.0
H1281 H 0.9547 0.58161 0.20106 0.0
H1282 H 0.95434 0.67718 0.18203 0.0
H1283 H 0.95197 0.74286 0.13997 0.0
H1284 H 0.9461 0.68036 0.04964 0.0
H1285 H 0.94719 0.5845 0.0684 0.0
C1286 C 0.9505 0.5532 0.12619 0.0
C1287 C 0.95206 0.54298 0.15725 0.0
C1288 C 0.95014 0.60812 0.11512 0.0
C1289 C 0.95349 0.58834 0.17706 0.0
C1290 C 0.95327 0.64301 0.1662 0.0
C1291 C 0.95097 0.70828 0.12435 0.0
C1292 C 0.94895 0.71871 0.09345 0.0
C1293 C 0.95152 0.65339 0.13532 0.0
C1294 C 0.94765 0.67344 0.07354 0.0
C1295 C 0.94827 0.61863 0.08425 0.0
H1296 H 0.798 0.19138 0.17905 0.0
H1297 H 0.79875 0.2795 0.09431 0.0
H1298 H 0.79712 0.19141 0.06702 0.0
H1299 H 0.79745 0.08895 0.06707 0.0
H1300 H 0.79714 0.00058 0.15174 0.0
H1301 H 0.79653 0.08889 0.1791 0.0
C1302 C 0.7976 0.1913 0.15463 0.0
C1303 C 0.79858 0.2419 0.13877 0.0
C1304 C 0.79685 0.14035 0.13901 0.0
C1305 C 0.79806 0.24112 0.1071 0.0
C1306 C 0.79717 0.19072 0.09144 0.0
C1307 C 0.79708 0.08903 0.0915 0.0
C1308 C 0.79744 0.03828 0.10732 0.0
C1309 C 0.79687 0.14002 0.10713 0.0
C1310 C 0.79692 0.03908 0.13899 0.0
C1311 C 0.7966 0.08959 0.15468 0.0
H1312 H 0.55089 0.75476 0.85565 0.0
H1313 H 0.55575 0.81716 0.94628 0.0
H1314 H 0.55518 0.91301 0.92743 0.0
H1315 H 0.55396 0.97884 0.88503 0.0
H1316 H 0.54977 0.91601 0.79433 0.0
H1317 H 0.54938 0.82043 0.81341 0.0
C1318 C 0.55176 0.78933 0.87131 0.0
C1319 C 0.55336 0.77891 0.90232 0.0
C1320 C 0.55157 0.84418 0.86029 0.0
C1321 C 0.55452 0.82412 0.9223 0.0
C1322 C 0.5542 0.87889 0.91154 0.0
C1323 C 0.55289 0.94422 0.86946 0.0
C1324 C 0.55189 0.95445 0.83831 0.0
C1325 C 0.55283 0.88939 0.88056 0.0
C1326 C 0.55057 0.90921 0.8184 0.0
C1327 C 0.55035 0.85457 0.82929 0.0
H1328 H 0.70684 0.42439 0.93119 0.0
H1329 H 0.7053 0.51559 0.84746 0.0
H1330 H 0.70596 0.4283 0.81919 0.0
H1331 H 0.70528 0.32577 0.81826 0.0
H1332 H 0.70668 0.23458 0.90201 0.0
H1333 H 0.70792 0.32191 0.93014 0.0
C1334 C 0.70679 0.42514 0.90676 0.0
C1335 C 0.70592 0.4764 0.89148 0.0
C1336 C 0.7071 0.37471 0.8906 0.0
C1337 C 0.70593 0.4767 0.8598 0.0
C1338 C 0.70627 0.42677 0.84359 0.0
C1339 C 0.70603 0.32502 0.84264 0.0
C1340 C 0.7058 0.27375 0.858 0.0
C1341 C 0.70662 0.37548 0.85874 0.0
C1342 C 0.70681 0.27348 0.88961 0.0
C1343 C 0.70747 0.32344 0.90575 0.0
H1344 H 0.55597 0.42268 0.3155 0.0
H1345 H 0.54119 0.50783 0.39537 0.0
H1346 H 0.54075 0.41993 0.42291 0.0
H1347 H 0.54597 0.31986 0.42535 0.0
H1348 H 0.56102 0.23419 0.34592 0.0
H1349 H 0.55995 0.32108 0.31723 0.0
C1350 C 0.55247 0.42179 0.3388 0.0
C1351 C 0.54867 0.47169 0.35338 0.0
C1352 C 0.55243 0.37107 0.3547 0.0
C1353 C 0.54421 0.46999 0.38363 0.0
C1354 C 0.54399 0.41976 0.39946 0.0
C1355 C 0.54895 0.32018 0.40173 0.0
C1356 C 0.55367 0.27082 0.38785 0.0
C1357 C 0.54833 0.37023 0.3854 0.0
C1358 C 0.55741 0.27175 0.35717 0.0
C1359 C 0.55679 0.32141 0.34074 0.0
H1360 H 0.70241 0.93278 0.43196 0.0
H1361 H 0.69686 0.02452 0.34915 0.0
H1362 H 0.69856 0.93806 0.32025 0.0
H1363 H 0.70083 0.8358 0.31855 0.0
H1364 H 0.70643 0.7442 0.40139 0.0
H1365 H 0.70562 0.83099 0.4301 0.0
C1366 C 0.70161 0.93384 0.40758 0.0
C1367 C 0.69944 0.985 0.39276 0.0
C1368 C 0.70263 0.88392 0.39106 0.0
C1369 C 0.69851 0.9857 0.36115 0.0
C1370 C 0.69947 0.93625 0.34458 0.0
C1371 C 0.702 0.83491 0.34286 0.0
C1372 C 0.70366 0.78356 0.35778 0.0
C1373 C 0.70144 0.88504 0.3593 0.0
C1374 C 0.70514 0.78313 0.38931 0.0
C1375 C 0.70464 0.83276 0.40579 0.0
H1376 H 0.44926 0.17946 0.06666 0.0
H1377 H 0.45412 0.26963 0.15017 0.0
H1378 H 0.45509 0.18184 0.17802 0.0
H1379 H 0.45369 0.07939 0.17889 0.0
H1380 H 0.44816 0.98942 0.0955 0.0
H1381 H 0.44835 0.077 0.06742 0.0
C1382 C 0.45064 0.17986 0.09093 0.0
C1383 C 0.45162 0.23099 0.10631 0.0
C1384 C 0.45101 0.12921 0.10686 0.0
C1385 C 0.45333 0.23083 0.13778 0.0
C1386 C 0.45387 0.18063 0.15374 0.0
C1387 C 0.4526 0.07897 0.15456 0.0
C1388 C 0.45089 0.02798 0.13932 0.0
C1389 C 0.45258 0.12958 0.13856 0.0
C1390 C 0.44946 0.02812 0.10779 0.0
C1391 C 0.44957 0.0782 0.0917 0.0
H1392 H 0.30518 0.72741 0.11158 0.0
H1393 H 0.29977 0.66656 0.20236 0.0
H1394 H 0.29796 0.571 0.18345 0.0
H1395 H 0.29896 0.50454 0.14132 0.0
H1396 H 0.30508 0.56542 0.05074 0.0
H1397 H 0.30551 0.66132 0.06939 0.0
C1398 C 0.30351 0.69329 0.12723 0.0
C1399 C 0.30263 0.70402 0.15834 0.0
C1400 C 0.30265 0.6385 0.11623 0.0
C1401 C 0.30049 0.65937 0.17831 0.0
C1402 C 0.29948 0.60474 0.16752 0.0
C1403 C 0.30029 0.53882 0.12563 0.0
C1404 C 0.30201 0.5279 0.09469 0.0
C1405 C 0.3007 0.59378 0.13656 0.0
C1406 C 0.30376 0.57273 0.07466 0.0
C1407 C 0.30402 0.62756 0.08531 0.0
H1408 H 0.45404 0.50979 0.60073 0.0
H1409 H 0.45236 0.57221 0.69183 0.0
H1410 H 0.45227 0.66802 0.67302 0.0
H1411 H 0.45163 0.73414 0.63055 0.0
H1412 H 0.45272 0.67117 0.53949 0.0
H1413 H 0.4541 0.57574 0.55841 0.0
C1414 C 0.45378 0.54436 0.61648 0.0
C1415 C 0.45321 0.53383 0.64763 0.0
C1416 C 0.45354 0.59934 0.6055 0.0
C1417 C 0.45281 0.57913 0.66773 0.0
C1418 C 0.45272 0.63397 0.65699 0.0
C1419 C 0.45224 0.69953 0.61487 0.0
C1420 C 0.45203 0.70981 0.58366 0.0
C1421 C 0.45292 0.64458 0.62591 0.0
C1422 C 0.45283 0.66448 0.56363 0.0
C1423 C 0.45362 0.60983 0.57442 0.0
H1424 H 0.29753 0.00792 0.64397 0.0
H1425 H 0.29744 0.06897 0.55252 0.0
H1426 H 0.29601 0.16493 0.57094 0.0
H1427 H 0.29659 0.23149 0.61305 0.0
H1428 H 0.29751 0.1702 0.70444 0.0
H1429 H 0.2967 0.07424 0.68601 0.0
C1430 C 0.29704 0.04218 0.62805 0.0
C1431 C 0.29766 0.03139 0.59693 0.0
C1432 C 0.29644 0.09718 0.6388 0.0
C1433 C 0.29701 0.0762 0.57659 0.0
C1434 C 0.29623 0.13107 0.58711 0.0
C1435 C 0.29645 0.19714 0.62894 0.0
C1436 C 0.29718 0.20791 0.66006 0.0
C1437 C 0.2962 0.14207 0.61817 0.0
C1438 C 0.297 0.163 0.68037 0.0
C1439 C 0.29656 0.10812 0.66985 0.0
loop_
_geom_bond_atom_site_label_1
_geom_bond_atom_site_label_2
_geom_bond_distance
_geom_bond_site_symmetry_2
_ccdc_geom_bond_type
In0 O1 2.294 . S
In0 O2 2.326 . S
In0 O6 2.266 . S
In0 O7 2.326 . S
In0 O8 2.266 . S
In0 O9 2.326 . S
In0 O11 2.294 . S
In0 O12 2.326 . S
O1 In0 2.294 . S
O1 C10 1.240 . S
O2 In0 2.326 . S
O2 C10 1.252 . S
C3 O6 1.252 . S
C3 O7 1.260 . S
C4 O11 1.240 . S
C4 O12 1.252 . S
C5 O8 1.252 . S
C5 O9 1.260 . S
O6 In0 2.266 . S
O6 C3 1.252 . S
O7 In0 2.326 . S
O7 C3 1.260 . S
O8 In0 2.266 . S
O8 C5 1.252 . S
O9 In0 2.326 . S
O9 C5 1.260 . S
C10 O1 1.240 . S
C10 O2 1.252 . S
O11 In0 2.294 . S
O11 C4 1.240 . S
O12 In0 2.326 . S
O12 C4 1.252 . S
In13 O14 2.294 . S
In13 O15 2.326 . S
In13 O19 2.266 . S
In13 O20 2.326 . S
In13 O21 2.266 . S
In13 O22 2.326 . S
In13 O24 2.294 . S
In13 O25 2.326 . S
O14 In13 2.294 . S
O14 C23 1.240 . S
O15 In13 2.326 . S
O15 C23 1.252 . S
C16 O19 1.252 . S
C16 O20 1.260 . S
C17 O24 1.240 . S
C17 O25 1.252 . S
C18 O21 1.252 . S
C18 O22 1.260 . S
O19 In13 2.266 . S
O19 C16 1.252 . S
O20 In13 2.326 . S
O20 C16 1.260 . S
O21 In13 2.266 . S
O21 C18 1.252 . S
O22 In13 2.326 . S
O22 C18 1.260 . S
C23 O14 1.240 . S
C23 O15 1.252 . S
O24 In13 2.294 . S
O24 C17 1.240 . S
O25 In13 2.326 . S
O25 C17 1.252 . S
In26 O27 2.294 . S
In26 O28 2.326 . S
In26 O32 2.266 . S
In26 O33 2.326 . S
In26 O34 2.266 . S
In26 O35 2.326 . S
In26 O37 2.294 . S
In26 O38 2.326 . S
O27 In26 2.294 . S
O27 C36 1.240 . S
O28 In26 2.326 . S
O28 C36 1.252 . S
C29 O32 1.252 . S
C29 O33 1.260 . S
C30 O37 1.240 . S
C30 O38 1.252 . S
C31 O34 1.252 . S
C31 O35 1.260 . S
O32 In26 2.266 . S
O32 C29 1.252 . S
O33 In26 2.326 . S
O33 C29 1.260 . S
O34 In26 2.266 . S
O34 C31 1.252 . S
O35 In26 2.326 . S
O35 C31 1.260 . S
C36 O27 1.240 . S
C36 O28 1.252 . S
O37 In26 2.294 . S
O37 C30 1.240 . S
O38 In26 2.326 . S
O38 C30 1.252 . S
In39 O40 2.294 . S
In39 O41 2.326 . S
In39 O45 2.266 . S
In39 O46 2.326 . S
In39 O47 2.266 . S
In39 O48 2.326 . S
In39 O50 2.294 . S
In39 O51 2.326 . S
O40 In39 2.294 . S
O40 C49 1.240 . S
O41 In39 2.326 . S
O41 C49 1.252 . S
C42 O45 1.252 . S
C42 O46 1.260 . S
C43 O50 1.240 . S
C43 O51 1.252 . S
C44 O47 1.252 . S
C44 O48 1.260 . S
O45 In39 2.266 . S
O45 C42 1.252 . S
O46 In39 2.326 . S
O46 C42 1.260 . S
O47 In39 2.266 . S
O47 C44 1.252 . S
O48 In39 2.326 . S
O48 C44 1.260 . S
C49 O40 1.240 . S
C49 O41 1.252 . S
O50 In39 2.294 . S
O50 C43 1.240 . S
O51 In39 2.326 . S
O51 C43 1.252 . S
In52 O53 2.294 . S
In52 O54 2.326 . S
In52 O58 2.266 . S
In52 O59 2.326 . S
In52 O60 2.266 . S
In52 O61 2.326 . S
In52 O63 2.294 . S
In52 O64 2.326 . S
O53 In52 2.294 . S
O53 C62 1.240 . S
O54 In52 2.326 . S
O54 C62 1.252 . S
C55 O58 1.252 . S
C55 O59 1.260 . S
C56 O63 1.240 . S
C56 O64 1.252 . S
C57 O60 1.252 . S
C57 O61 1.260 . S
O58 In52 2.266 . S
O58 C55 1.252 . S
O59 In52 2.326 . S
O59 C55 1.260 . S
O60 In52 2.266 . S
O60 C57 1.252 . S
O61 In52 2.326 . S
O61 C57 1.260 . S
C62 O53 1.240 . S
C62 O54 1.252 . S
O63 In52 2.294 . S
O63 C56 1.240 . S
O64 In52 2.326 . S
O64 C56 1.252 . S
In65 O66 2.294 . S
In65 O67 2.326 . S
In65 O71 2.266 . S
In65 O72 2.326 . S
In65 O73 2.266 . S
In65 O74 2.326 . S
In65 O76 2.294 . S
In65 O77 2.326 . S
O66 In65 2.294 . S
O66 C75 1.240 . S
O67 In65 2.326 . S
O67 C75 1.252 . S
C68 O71 1.252 . S
C68 O72 1.260 . S
C69 O76 1.240 . S
C69 O77 1.252 . S
C70 O73 1.252 . S
C70 O74 1.260 . S
O71 In65 2.266 . S
O71 C68 1.252 . S
O72 In65 2.326 . S
O72 C68 1.260 . S
O73 In65 2.266 . S
O73 C70 1.252 . S
O74 In65 2.326 . S
O74 C70 1.260 . S
C75 O66 1.240 . S
C75 O67 1.252 . S
O76 In65 2.294 . S
O76 C69 1.240 . S
O77 In65 2.326 . S
O77 C69 1.252 . S
In78 O79 2.294 . S
In78 O80 2.326 . S
In78 O84 2.266 . S
In78 O85 2.326 . S
In78 O86 2.266 . S
In78 O87 2.326 . S
In78 O89 2.294 . S
In78 O90 2.326 . S
O79 In78 2.294 . S
O79 C88 1.240 . S
O80 In78 2.326 . S
O80 C88 1.252 . S
C81 O84 1.252 . S
C81 O85 1.260 . S
C82 O89 1.240 . S
C82 O90 1.252 . S
C83 O86 1.252 . S
C83 O87 1.260 . S
O84 In78 2.266 . S
O84 C81 1.252 . S
O85 In78 2.326 . S
O85 C81 1.260 . S
O86 In78 2.266 . S
O86 C83 1.252 . S
O87 In78 2.326 . S
O87 C83 1.260 . S
C88 O79 1.240 . S
C88 O80 1.252 . S
O89 In78 2.294 . S
O89 C82 1.240 . S
O90 In78 2.326 . S
O90 C82 1.252 . S
In91 O92 2.294 . S
In91 O93 2.326 . S
In91 O97 2.266 . S
In91 O98 2.326 . S
In91 O99 2.266 . S
In91 O100 2.326 . S
In91 O102 2.294 . S
In91 O103 2.326 . S
O92 In91 2.294 . S
O92 C101 1.240 . S
O93 In91 2.326 . S
O93 C101 1.252 . S
C94 O97 1.252 . S
C94 O98 1.260 . S
C95 O102 1.240 . S
C95 O103 1.252 . S
C96 O99 1.252 . S
C96 O100 1.260 . S
O97 In91 2.266 . S
O97 C94 1.252 . S
O98 In91 2.326 . S
O98 C94 1.260 . S
O99 In91 2.266 . S
O99 C96 1.252 . S
O100 In91 2.326 . S
O100 C96 1.260 . S
C101 O92 1.240 . S
C101 O93 1.252 . S
O102 In91 2.294 . S
O102 C95 1.240 . S
O103 In91 2.326 . S
O103 C95 1.252 . S
In104 O105 2.294 . S
In104 O106 2.326 . S
In104 O110 2.266 . S
In104 O111 2.326 . S
In104 O112 2.266 . S
In104 O113 2.326 . S
In104 O115 2.294 . S
In104 O116 2.326 . S
O105 In104 2.294 . S
O105 C114 1.240 . S
O106 In104 2.326 . S
O106 C114 1.252 . S
C107 O110 1.252 . S
C107 O111 1.260 . S
C108 O115 1.240 . S
C108 O116 1.252 . S
C109 O112 1.252 . S
C109 O113 1.260 . S
O110 In104 2.266 . S
O110 C107 1.252 . S
O111 In104 2.326 . S
O111 C107 1.260 . S
O112 In104 2.266 . S
O112 C109 1.252 . S
O113 In104 2.326 . S
O113 C109 1.260 . S
C114 O105 1.240 . S
C114 O106 1.252 . S
O115 In104 2.294 . S
O115 C108 1.240 . S
O116 In104 2.326 . S
O116 C108 1.252 . S
In117 O118 2.294 . S
In117 O119 2.326 . S
In117 O123 2.266 . S
In117 O124 2.326 . S
In117 O125 2.266 . S
In117 O126 2.326 . S
In117 O128 2.294 . S
In117 O129 2.326 . S
O118 In117 2.294 . S
O118 C127 1.240 . S
O119 In117 2.326 . S
O119 C127 1.252 . S
C120 O123 1.252 . S
C120 O124 1.260 . S
C121 O128 1.240 . S
C121 O129 1.252 . S
C122 O125 1.252 . S
C122 O126 1.260 . S
O123 In117 2.266 . S
O123 C120 1.252 . S
O124 In117 2.326 . S
O124 C120 1.260 . S
O125 In117 2.266 . S
O125 C122 1.252 . S
O126 In117 2.326 . S
O126 C122 1.260 . S
C127 O118 1.240 . S
C127 O119 1.252 . S
O128 In117 2.294 . S
O128 C121 1.240 . S
O129 In117 2.326 . S
O129 C121 1.252 . S
In130 O131 2.294 . S
In130 O132 2.326 . S
In130 O136 2.266 . S
In130 O137 2.326 . S
In130 O138 2.266 . S
In130 O139 2.326 . S
In130 O141 2.294 . S
In130 O142 2.326 . S
O131 In130 2.294 . S
O131 C140 1.240 . S
O132 In130 2.326 . S
O132 C140 1.252 . S
C133 O136 1.252 . S
C133 O137 1.260 . S
C134 O141 1.240 . S
C134 O142 1.252 . S
C135 O138 1.252 . S
C135 O139 1.260 . S
O136 In130 2.266 . S
O136 C133 1.252 . S
O137 In130 2.326 . S
O137 C133 1.260 . S
O138 In130 2.266 . S
O138 C135 1.252 . S
O139 In130 2.326 . S
O139 C135 1.260 . S
C140 O131 1.240 . S
C140 O132 1.252 . S
O141 In130 2.294 . S
O141 C134 1.240 . S
O142 In130 2.326 . S
O142 C134 1.252 . S
In143 O144 2.294 . S
In143 O145 2.326 . S
In143 O149 2.266 . S
In143 O150 2.326 . S
In143 O151 2.266 . S
In143 O152 2.326 . S
In143 O154 2.294 . S
In143 O155 2.326 . S
O144 In143 2.294 . S
O144 C153 1.240 . S
O145 In143 2.326 . S
O145 C153 1.252 . S
C146 O149 1.252 . S
C146 O150 1.260 . S
C147 O154 1.240 . S
C147 O155 1.252 . S
C148 O151 1.252 . S
C148 O152 1.260 . S
O149 In143 2.266 . S
O149 C146 1.252 . S
O150 In143 2.326 . S
O150 C146 1.260 . S
O151 In143 2.266 . S
O151 C148 1.252 . S
O152 In143 2.326 . S
O152 C148 1.260 . S
C153 O144 1.240 . S
C153 O145 1.252 . S
O154 In143 2.294 . S
O154 C147 1.240 . S
O155 In143 2.326 . S
O155 C147 1.252 . S
In156 O157 2.294 . S
In156 O158 2.326 . S
In156 O162 2.266 . S
In156 O163 2.326 . S
In156 O164 2.266 . S
In156 O165 2.326 . S
In156 O167 2.294 . S
In156 O168 2.326 . S
O157 In156 2.294 . S
O157 C166 1.240 . S
O158 In156 2.326 . S
O158 C166 1.252 . S
C159 O162 1.252 . S
C159 O163 1.260 . S
C160 O167 1.240 . S
C160 O168 1.252 . S
C161 O164 1.252 . S
C161 O165 1.260 . S
O162 In156 2.266 . S
O162 C159 1.252 . S
O163 In156 2.326 . S
O163 C159 1.260 . S
O164 In156 2.266 . S
O164 C161 1.252 . S
O165 In156 2.326 . S
O165 C161 1.260 . S
C166 O157 1.240 . S
C166 O158 1.252 . S
O167 In156 2.294 . S
O167 C160 1.240 . S
O168 In156 2.326 . S
O168 C160 1.252 . S
In169 O170 2.294 . S
In169 O171 2.326 . S
In169 O175 2.266 . S
In169 O176 2.326 . S
In169 O177 2.266 . S
In169 O178 2.326 . S
In169 O180 2.294 . S
In169 O181 2.326 . S
O170 In169 2.294 . S
O170 C179 1.240 . S
O171 In169 2.326 . S
O171 C179 1.252 . S
C172 O175 1.252 . S
C172 O176 1.260 . S
C173 O180 1.240 . S
C173 O181 1.252 . S
C174 O177 1.252 . S
C174 O178 1.260 . S
O175 In169 2.266 . S
O175 C172 1.252 . S
O176 In169 2.326 . S
O176 C172 1.260 . S
O177 In169 2.266 . S
O177 C174 1.252 . S
O178 In169 2.326 . S
O178 C174 1.260 . S
C179 O170 1.240 . S
C179 O171 1.252 . S
O180 In169 2.294 . S
O180 C173 1.240 . S
O181 In169 2.326 . S
O181 C173 1.252 . S
In182 O183 2.294 . S
In182 O184 2.326 . S
In182 O188 2.266 . S
In182 O189 2.326 . S
In182 O190 2.266 . S
In182 O191 2.326 . S
In182 O193 2.294 . S
In182 O194 2.326 . S
O183 In182 2.294 . S
O183 C192 1.240 . S
O184 In182 2.326 . S
O184 C192 1.252 . S
C185 O188 1.252 . S
C185 O189 1.260 . S
C186 O193 1.240 . S
C186 O194 1.252 . S
C187 O190 1.252 . S
C187 O191 1.260 . S
O188 In182 2.266 . S
O188 C185 1.252 . S
O189 In182 2.326 . S
O189 C185 1.260 . S
O190 In182 2.266 . S
O190 C187 1.252 . S
O191 In182 2.326 . S
O191 C187 1.260 . S
C192 O183 1.240 . S
C192 O184 1.252 . S
O193 In182 2.294 . S
O193 C186 1.240 . S
O194 In182 2.326 . S
O194 C186 1.252 . S
In195 O196 2.294 . S
In195 O197 2.326 . S
In195 O201 2.266 . S
In195 O202 2.326 . S
In195 O203 2.266 . S
In195 O204 2.326 . S
In195 O206 2.294 . S
In195 O207 2.326 . S
O196 In195 2.294 . S
O196 C205 1.240 . S
O197 In195 2.326 . S
O197 C205 1.252 . S
C198 O201 1.252 . S
C198 O202 1.260 . S
C199 O206 1.240 . S
C199 O207 1.252 . S
C200 O203 1.252 . S
C200 O204 1.260 . S
O201 In195 2.266 . S
O201 C198 1.252 . S
O202 In195 2.326 . S
O202 C198 1.260 . S
O203 In195 2.266 . S
O203 C200 1.252 . S
O204 In195 2.326 . S
O204 C200 1.260 . S
C205 O196 1.240 . S
C205 O197 1.252 . S
O206 In195 2.294 . S
O206 C199 1.240 . S
O207 In195 2.326 . S
O207 C199 1.252 . S
In208 O209 2.294 . S
In208 O210 2.326 . S
In208 O214 2.266 . S
In208 O215 2.326 . S
In208 O216 2.266 . S
In208 O217 2.326 . S
In208 O219 2.294 . S
In208 O220 2.326 . S
O209 In208 2.294 . S
O209 C218 1.240 . S
O210 In208 2.326 . S
O210 C218 1.252 . S
C211 O214 1.252 . S
C211 O215 1.260 . S
C212 O219 1.240 . S
C212 O220 1.252 . S
C213 O216 1.252 . S
C213 O217 1.260 . S
O214 In208 2.266 . S
O214 C211 1.252 . S
O215 In208 2.326 . S
O215 C211 1.260 . S
O216 In208 2.266 . S
O216 C213 1.252 . S
O217 In208 2.326 . S
O217 C213 1.260 . S
C218 O209 1.240 . S
C218 O210 1.252 . S
O219 In208 2.294 . S
O219 C212 1.240 . S
O220 In208 2.326 . S
O220 C212 1.252 . S
In221 O222 2.294 . S
In221 O223 2.326 . S
In221 O227 2.266 . S
In221 O228 2.326 . S
In221 O229 2.266 . S
In221 O230 2.326 . S
In221 O232 2.294 . S
In221 O233 2.326 . S
O222 In221 2.294 . S
O222 C231 1.240 . S
O223 In221 2.326 . S
O223 C231 1.252 . S
C224 O227 1.252 . S
C224 O228 1.260 . S
C225 O232 1.240 . S
C225 O233 1.252 . S
C226 O229 1.252 . S
C226 O230 1.260 . S
O227 In221 2.266 . S
O227 C224 1.252 . S
O228 In221 2.326 . S
O228 C224 1.260 . S
O229 In221 2.266 . S
O229 C226 1.252 . S
O230 In221 2.326 . S
O230 C226 1.260 . S
C231 O222 1.240 . S
C231 O223 1.252 . S
O232 In221 2.294 . S
O232 C225 1.240 . S
O233 In221 2.326 . S
O233 C225 1.252 . S
In234 O235 2.294 . S
In234 O236 2.326 . S
In234 O240 2.266 . S
In234 O241 2.326 . S
In234 O242 2.266 . S
In234 O243 2.326 . S
In234 O245 2.294 . S
In234 O246 2.326 . S
O235 In234 2.294 . S
O235 C244 1.240 . S
O236 In234 2.326 . S
O236 C244 1.252 . S
C237 O240 1.252 . S
C237 O241 1.260 . S
C238 O245 1.240 . S
C238 O246 1.252 . S
C239 O242 1.252 . S
C239 O243 1.260 . S
O240 In234 2.266 . S
O240 C237 1.252 . S
O241 In234 2.326 . S
O241 C237 1.260 . S
O242 In234 2.266 . S
O242 C239 1.252 . S
O243 In234 2.326 . S
O243 C239 1.260 . S
C244 O235 1.240 . S
C244 O236 1.252 . S
O245 In234 2.294 . S
O245 C238 1.240 . S
O246 In234 2.326 . S
O246 C238 1.252 . S
In247 O248 2.294 . S
In247 O249 2.326 . S
In247 O253 2.266 . S
In247 O254 2.326 . S
In247 O255 2.266 . S
In247 O256 2.326 . S
In247 O258 2.294 . S
In247 O259 2.326 . S
O248 In247 2.294 . S
O248 C257 1.240 . S
O249 In247 2.326 . S
O249 C257 1.252 . S
C250 O253 1.252 . S
C250 O254 1.260 . S
C251 O258 1.240 . S
C251 O259 1.252 . S
C252 O255 1.252 . S
C252 O256 1.260 . S
O253 In247 2.266 . S
O253 C250 1.252 . S
O254 In247 2.326 . S
O254 C250 1.260 . S
O255 In247 2.266 . S
O255 C252 1.252 . S
O256 In247 2.326 . S
O256 C252 1.260 . S
C257 O248 1.240 . S
C257 O249 1.252 . S
O258 In247 2.294 . S
O258 C251 1.240 . S
O259 In247 2.326 . S
O259 C251 1.252 . S
In260 O261 2.294 . S
In260 O262 2.326 . S
In260 O266 2.266 . S
In260 O267 2.326 . S
In260 O268 2.266 . S
In260 O269 2.326 . S
In260 O271 2.294 . S
In260 O272 2.326 . S
O261 In260 2.294 . S
O261 C270 1.240 . S
O262 In260 2.326 . S
O262 C270 1.252 . S
C263 O266 1.252 . S
C263 O267 1.260 . S
C264 O271 1.240 . S
C264 O272 1.252 . S
C265 O268 1.252 . S
C265 O269 1.260 . S
O266 In260 2.266 . S
O266 C263 1.252 . S
O267 In260 2.326 . S
O267 C263 1.260 . S
O268 In260 2.266 . S
O268 C265 1.252 . S
O269 In260 2.326 . S
O269 C265 1.260 . S
C270 O261 1.240 . S
C270 O262 1.252 . S
O271 In260 2.294 . S
O271 C264 1.240 . S
O272 In260 2.326 . S
O272 C264 1.252 . S
In273 O274 2.294 . S
In273 O275 2.326 . S
In273 O279 2.266 . S
In273 O280 2.326 . S
In273 O281 2.266 . S
In273 O282 2.326 . S
In273 O284 2.294 . S
In273 O285 2.326 . S
O274 In273 2.294 . S
O274 C283 1.240 . S
O275 In273 2.326 . S
O275 C283 1.252 . S
C276 O279 1.252 . S
C276 O280 1.260 . S
C277 O284 1.240 . S
C277 O285 1.252 . S
C278 O281 1.252 . S
C278 O282 1.260 . S
O279 In273 2.266 . S
O279 C276 1.252 . S
O280 In273 2.326 . S
O280 C276 1.260 . S
O281 In273 2.266 . S
O281 C278 1.252 . S
O282 In273 2.326 . S
O282 C278 1.260 . S
C283 O274 1.240 . S
C283 O275 1.252 . S
O284 In273 2.294 . S
O284 C277 1.240 . S
O285 In273 2.326 . S
O285 C277 1.252 . S
In286 O287 2.294 . S
In286 O288 2.326 . S
In286 O292 2.266 . S
In286 O293 2.326 . S
In286 O294 2.266 . S
In286 O295 2.326 . S
In286 O297 2.294 . S
In286 O298 2.326 . S
O287 In286 2.294 . S
O287 C296 1.240 . S
O288 In286 2.326 . S
O288 C296 1.252 . S
C289 O292 1.252 . S
C289 O293 1.260 . S
C290 O297 1.240 . S
C290 O298 1.252 . S
C291 O294 1.252 . S
C291 O295 1.260 . S
O292 In286 2.266 . S
O292 C289 1.252 . S
O293 In286 2.326 . S
O293 C289 1.260 . S
O294 In286 2.266 . S
O294 C291 1.252 . S
O295 In286 2.326 . S
O295 C291 1.260 . S
C296 O287 1.240 . S
C296 O288 1.252 . S
O297 In286 2.294 . S
O297 C290 1.240 . S
O298 In286 2.326 . S
O298 C290 1.252 . S
In299 O300 2.294 . S
In299 O301 2.326 . S
In299 O305 2.266 . S
In299 O306 2.326 . S
In299 O307 2.266 . S
In299 O308 2.326 . S
In299 O310 2.294 . S
In299 O311 2.326 . S
O300 In299 2.294 . S
O300 C309 1.240 . S
O301 In299 2.326 . S
O301 C309 1.252 . S
C302 O305 1.252 . S
C302 O306 1.260 . S
C303 O310 1.240 . S
C303 O311 1.252 . S
C304 O307 1.252 . S
C304 O308 1.260 . S
O305 In299 2.266 . S
O305 C302 1.252 . S
O306 In299 2.326 . S
O306 C302 1.260 . S
O307 In299 2.266 . S
O307 C304 1.252 . S
O308 In299 2.326 . S
O308 C304 1.260 . S
C309 O300 1.240 . S
C309 O301 1.252 . S
O310 In299 2.294 . S
O310 C303 1.240 . S
O311 In299 2.326 . S
O311 C303 1.252 . S
In312 O313 2.294 . S
In312 O314 2.326 . S
In312 O318 2.266 . S
In312 O319 2.326 . S
In312 O320 2.266 . S
In312 O321 2.326 . S
In312 O323 2.294 . S
In312 O324 2.326 . S
O313 In312 2.294 . S
O313 C322 1.240 . S
O314 In312 2.326 . S
O314 C322 1.252 . S
C315 O318 1.252 . S
C315 O319 1.260 . S
C316 O323 1.240 . S
C316 O324 1.252 . S
C317 O320 1.252 . S
C317 O321 1.260 . S
O318 In312 2.266 . S
O318 C315 1.252 . S
O319 In312 2.326 . S
O319 C315 1.260 . S
O320 In312 2.266 . S
O320 C317 1.252 . S
O321 In312 2.326 . S
O321 C317 1.260 . S
C322 O313 1.240 . S
C322 O314 1.252 . S
O323 In312 2.294 . S
O323 C316 1.240 . S
O324 In312 2.326 . S
O324 C316 1.252 . S
In325 O326 2.294 . S
In325 O327 2.326 . S
In325 O331 2.266 . S
In325 O332 2.326 . S
In325 O333 2.266 . S
In325 O334 2.326 . S
In325 O336 2.294 . S
In325 O337 2.326 . S
O326 In325 2.294 . S
O326 C335 1.240 . S
O327 In325 2.326 . S
O327 C335 1.252 . S
C328 O331 1.252 . S
C328 O332 1.260 . S
C329 O336 1.240 . S
C329 O337 1.252 . S
C330 O333 1.252 . S
C330 O334 1.260 . S
O331 In325 2.266 . S
O331 C328 1.252 . S
O332 In325 2.326 . S
O332 C328 1.260 . S
O333 In325 2.266 . S
O333 C330 1.252 . S
O334 In325 2.326 . S
O334 C330 1.260 . S
C335 O326 1.240 . S
C335 O327 1.252 . S
O336 In325 2.294 . S
O336 C329 1.240 . S
O337 In325 2.326 . S
O337 C329 1.252 . S
In338 O339 2.294 . S
In338 O340 2.326 . S
In338 O344 2.266 . S
In338 O345 2.326 . S
In338 O346 2.266 . S
In338 O347 2.326 . S
In338 O349 2.294 . S
In338 O350 2.326 . S
O339 In338 2.294 . S
O339 C348 1.240 . S
O340 In338 2.326 . S
O340 C348 1.252 . S
C341 O344 1.252 . S
C341 O345 1.260 . S
C342 O349 1.240 . S
C342 O350 1.252 . S
C343 O346 1.252 . S
C343 O347 1.260 . S
O344 In338 2.266 . S
O344 C341 1.252 . S
O345 In338 2.326 . S
O345 C341 1.260 . S
O346 In338 2.266 . S
O346 C343 1.252 . S
O347 In338 2.326 . S
O347 C343 1.260 . S
C348 O339 1.240 . S
C348 O340 1.252 . S
O349 In338 2.294 . S
O349 C342 1.240 . S
O350 In338 2.326 . S
O350 C342 1.252 . S
In351 O352 2.294 . S
In351 O353 2.326 . S
In351 O357 2.266 . S
In351 O358 2.326 . S
In351 O359 2.266 . S
In351 O360 2.326 . S
In351 O362 2.294 . S
In351 O363 2.326 . S
O352 In351 2.294 . S
O352 C361 1.240 . S
O353 In351 2.326 . S
O353 C361 1.252 . S
C354 O357 1.252 . S
C354 O358 1.260 . S
C355 O362 1.240 . S
C355 O363 1.252 . S
C356 O359 1.252 . S
C356 O360 1.260 . S
O357 In351 2.266 . S
O357 C354 1.252 . S
O358 In351 2.326 . S
O358 C354 1.260 . S
O359 In351 2.266 . S
O359 C356 1.252 . S
O360 In351 2.326 . S
O360 C356 1.260 . S
C361 O352 1.240 . S
C361 O353 1.252 . S
O362 In351 2.294 . S
O362 C355 1.240 . S
O363 In351 2.326 . S
O363 C355 1.252 . S
In364 O365 2.294 . S
In364 O366 2.326 . S
In364 O370 2.266 . S
In364 O371 2.326 . S
In364 O372 2.266 . S
In364 O373 2.326 . S
In364 O375 2.294 . S
In364 O376 2.326 . S
O365 In364 2.294 . S
O365 C374 1.240 . S
O366 In364 2.326 . S
O366 C374 1.252 . S
C367 O370 1.252 . S
C367 O371 1.260 . S
C368 O375 1.240 . S
C368 O376 1.252 . S
C369 O372 1.252 . S
C369 O373 1.260 . S
O370 In364 2.266 . S
O370 C367 1.252 . S
O371 In364 2.326 . S
O371 C367 1.260 . S
O372 In364 2.266 . S
O372 C369 1.252 . S
O373 In364 2.326 . S
O373 C369 1.260 . S
C374 O365 1.240 . S
C374 O366 1.252 . S
O375 In364 2.294 . S
O375 C368 1.240 . S
O376 In364 2.326 . S
O376 C368 1.252 . S
In377 O378 2.294 . S
In377 O379 2.326 . S
In377 O383 2.266 . S
In377 O384 2.326 . S
In377 O385 2.266 . S
In377 O386 2.326 . S
In377 O388 2.294 . S
In377 O389 2.326 . S
O378 In377 2.294 . S
O378 C387 1.240 . S
O379 In377 2.326 . S
O379 C387 1.252 . S
C380 O383 1.252 . S
C380 O384 1.260 . S
C381 O388 1.240 . S
C381 O389 1.252 . S
C382 O385 1.252 . S
C382 O386 1.260 . S
O383 In377 2.266 . S
O383 C380 1.252 . S
O384 In377 2.326 . S
O384 C380 1.260 . S
O385 In377 2.266 . S
O385 C382 1.252 . S
O386 In377 2.326 . S
O386 C382 1.260 . S
C387 O378 1.240 . S
C387 O379 1.252 . S
O388 In377 2.294 . S
O388 C381 1.240 . S
O389 In377 2.326 . S
O389 C381 1.252 . S
In390 O391 2.294 . S
In390 O392 2.326 . S
In390 O396 2.266 . S
In390 O397 2.326 . S
In390 O398 2.266 . S
In390 O399 2.326 . S
In390 O401 2.294 . S
In390 O402 2.326 . S
O391 In390 2.294 . S
O391 C400 1.240 . S
O392 In390 2.326 . S
O392 C400 1.252 . S
C393 O396 1.252 . S
C393 O397 1.260 . S
C394 O401 1.240 . S
C394 O402 1.252 . S
C395 O398 1.252 . S
C395 O399 1.260 . S
O396 In390 2.266 . S
O396 C393 1.252 . S
O397 In390 2.326 . S
O397 C393 1.260 . S
O398 In390 2.266 . S
O398 C395 1.252 . S
O399 In390 2.326 . S
O399 C395 1.260 . S
C400 O391 1.240 . S
C400 O392 1.252 . S
O401 In390 2.294 . S
O401 C394 1.240 . S
O402 In390 2.326 . S
O402 C394 1.252 . S
In403 O404 2.294 . S
In403 O405 2.326 . S
In403 O409 2.266 . S
In403 O410 2.326 . S
In403 O411 2.266 . S
In403 O412 2.326 . S
In403 O414 2.294 . S
In403 O415 2.326 . S
O404 In403 2.294 . S
O404 C413 1.240 . S
O405 In403 2.326 . S
O405 C413 1.252 . S
C406 O409 1.252 . S
C406 O410 1.260 . S
C407 O414 1.240 . S
C407 O415 1.252 . S
C408 O411 1.252 . S
C408 O412 1.260 . S
O409 In403 2.266 . S
O409 C406 1.252 . S
O410 In403 2.326 . S
O410 C406 1.260 . S
O411 In403 2.266 . S
O411 C408 1.252 . S
O412 In403 2.326 . S
O412 C408 1.260 . S
C413 O404 1.240 . S
C413 O405 1.252 . S
O414 In403 2.294 . S
O414 C407 1.240 . S
O415 In403 2.326 . S
O415 C407 1.252 . S
H416 C422 0.930 . S
H417 C425 0.930 . S
H418 C426 0.930 . S
H419 C427 0.930 . S
H420 C430 0.930 . S
H421 C431 0.930 . S
C422 H416 0.930 . S
C422 C423 1.355 . S
C422 C424 1.415 . S
C423 C422 1.355 . S
C423 C425 1.419 . S
C424 C422 1.415 . S
C424 C429 1.425 . S
C424 C431 1.409 . S
C425 H417 0.930 . S
C425 C423 1.419 . S
C425 C426 1.362 . S
C426 H418 0.930 . S
C426 C425 1.362 . S
C426 C429 1.409 . S
C427 H419 0.930 . S
C427 C428 1.355 . S
C427 C429 1.415 . S
C428 C427 1.355 . S
C428 C430 1.419 . S
C429 C424 1.425 . S
C429 C426 1.409 . S
C429 C427 1.415 . S
C430 H420 0.930 . S
C430 C428 1.419 . S
C430 C431 1.362 . S
C431 H421 0.930 . S
C431 C424 1.409 . S
C431 C430 1.362 . S
H432 C438 0.930 . S
H433 C441 0.930 . S
H434 C442 0.930 . S
H435 C443 0.930 . S
H436 C446 0.930 . S
H437 C447 0.930 . S
C438 H432 0.930 . S
C438 C439 1.355 . S
C438 C440 1.415 . S
C439 C438 1.355 . S
C439 C441 1.419 . S
C440 C438 1.415 . S
C440 C445 1.425 . S
C440 C447 1.409 . S
C441 H433 0.930 . S
C441 C439 1.419 . S
C441 C442 1.362 . S
C442 H434 0.930 . S
C442 C441 1.362 . S
C442 C445 1.409 . S
C443 H435 0.930 . S
C443 C444 1.355 . S
C443 C445 1.415 . S
C444 C443 1.355 . S
C444 C446 1.419 . S
C445 C440 1.425 . S
C445 C442 1.409 . S
C445 C443 1.415 . S
C446 H436 0.930 . S
C446 C444 1.419 . S
C446 C447 1.362 . S
C447 H437 0.930 . S
C447 C440 1.409 . S
C447 C446 1.362 . S
H448 C454 0.930 . S
H449 C457 0.930 . S
H450 C458 0.930 . S
H451 C459 0.930 . S
H452 C462 0.930 . S
H453 C463 0.930 . S
C454 H448 0.930 . S
C454 C455 1.355 . S
C454 C456 1.415 . S
C455 C454 1.355 . S
C455 C457 1.419 . S
C456 C454 1.415 . S
C456 C461 1.425 . S
C456 C463 1.409 . S
C457 H449 0.930 . S
C457 C455 1.419 . S
C457 C458 1.362 . S
C458 H450 0.930 . S
C458 C457 1.362 . S
C458 C461 1.409 . S
C459 H451 0.930 . S
C459 C460 1.355 . S
C459 C461 1.415 . S
C460 C459 1.355 . S
C460 C462 1.419 . S
C461 C456 1.425 . S
C461 C458 1.409 . S
C461 C459 1.415 . S
C462 H452 0.930 . S
C462 C460 1.419 . S
C462 C463 1.362 . S
C463 H453 0.930 . S
C463 C456 1.409 . S
C463 C462 1.362 . S
H464 C470 0.930 . S
H465 C473 0.930 . S
H466 C474 0.930 . S
H467 C475 0.930 . S
H468 C478 0.930 . S
H469 C479 0.930 . S
C470 H464 0.930 . S
C470 C471 1.355 . S
C470 C472 1.415 . S
C471 C470 1.355 . S
C471 C473 1.419 . S
C472 C470 1.415 . S
C472 C477 1.425 . S
C472 C479 1.409 . S
C473 H465 0.930 . S
C473 C471 1.419 . S
C473 C474 1.362 . S
C474 H466 0.930 . S
C474 C473 1.362 . S
C474 C477 1.409 . S
C475 H467 0.930 . S
C475 C476 1.355 . S
C475 C477 1.415 . S
C476 C475 1.355 . S
C476 C478 1.419 . S
C477 C472 1.425 . S
C477 C474 1.409 . S
C477 C475 1.415 . S
C478 H468 0.930 . S
C478 C476 1.419 . S
C478 C479 1.362 . S
C479 H469 0.930 . S
C479 C472 1.409 . S
C479 C478 1.362 . S
H480 C486 0.930 . S
H481 C489 0.930 . S
H482 C490 0.930 . S
H483 C491 0.930 . S
H484 C494 0.930 . S
H485 C495 0.930 . S
C486 H480 0.930 . S
C486 C487 1.355 . S
C486 C488 1.415 . S
C487 C486 1.355 . S
C487 C489 1.419 . S
C488 C486 1.415 . S
C488 C493 1.425 . S
C488 C495 1.409 . S
C489 H481 0.930 . S
C489 C487 1.419 . S
C489 C490 1.362 . S
C490 H482 0.930 . S
C490 C489 1.362 . S
C490 C493 1.409 . S
C491 H483 0.930 . S
C491 C492 1.355 . S
C491 C493 1.415 . S
C492 C491 1.355 . S
C492 C494 1.419 . S
C493 C488 1.425 . S
C493 C490 1.409 . S
C493 C491 1.415 . S
C494 H484 0.930 . S
C494 C492 1.419 . S
C494 C495 1.362 . S
C495 H485 0.930 . S
C495 C488 1.409 . S
C495 C494 1.362 . S
H496 C502 0.930 . S
H497 C505 0.930 . S
H498 C506 0.930 . S
H499 C507 0.930 . S
H500 C510 0.930 . S
H501 C511 0.930 . S
C502 H496 0.930 . S
C502 C503 1.355 . S
C502 C504 1.415 . S
C503 C502 1.355 . S
C503 C505 1.419 . S
C504 C502 1.415 . S
C504 C509 1.425 . S
C504 C511 1.409 . S
C505 H497 0.930 . S
C505 C503 1.419 . S
C505 C506 1.362 . S
C506 H498 0.930 . S
C506 C505 1.362 . S
C506 C509 1.409 . S
C507 H499 0.930 . S
C507 C508 1.355 . S
C507 C509 1.415 . S
C508 C507 1.355 . S
C508 C510 1.419 . S
C509 C504 1.425 . S
C509 C506 1.409 . S
C509 C507 1.415 . S
C510 H500 0.930 . S
C510 C508 1.419 . S
C510 C511 1.362 . S
C511 H501 0.930 . S
C511 C504 1.409 . S
C511 C510 1.362 . S
H512 C518 0.930 . S
H513 C521 0.930 . S
H514 C522 0.930 . S
H515 C523 0.930 . S
H516 C526 0.930 . S
H517 C527 0.930 . S
C518 H512 0.930 . S
C518 C519 1.355 . S
C518 C520 1.415 . S
C519 C518 1.355 . S
C519 C521 1.419 . S
C520 C518 1.415 . S
C520 C525 1.425 . S
C520 C527 1.409 . S
C521 H513 0.930 . S
C521 C519 1.419 . S
C521 C522 1.362 . S
C522 H514 0.930 . S
C522 C521 1.362 . S
C522 C525 1.409 . S
C523 H515 0.930 . S
C523 C524 1.355 . S
C523 C525 1.415 . S
C524 C523 1.355 . S
C524 C526 1.419 . S
C525 C520 1.425 . S
C525 C522 1.409 . S
C525 C523 1.415 . S
C526 H516 0.930 . S
C526 C524 1.419 . S
C526 C527 1.362 . S
C527 H517 0.930 . S
C527 C520 1.409 . S
C527 C526 1.362 . S
H528 C534 0.930 . S
H529 C537 0.930 . S
H530 C538 0.930 . S
H531 C539 0.930 . S
H532 C542 0.930 . S
H533 C543 0.930 . S
C534 H528 0.930 . S
C534 C535 1.355 . S
C534 C536 1.415 . S
C535 C534 1.355 . S
C535 C537 1.419 . S
C536 C534 1.415 . S
C536 C541 1.425 . S
C536 C543 1.409 . S
C537 H529 0.930 . S
C537 C535 1.419 . S
C537 C538 1.362 . S
C538 H530 0.930 . S
C538 C537 1.362 . S
C538 C541 1.409 . S
C539 H531 0.930 . S
C539 C540 1.355 . S
C539 C541 1.415 . S
C540 C539 1.355 . S
C540 C542 1.419 . S
C541 C536 1.425 . S
C541 C538 1.409 . S
C541 C539 1.415 . S
C542 H532 0.930 . S
C542 C540 1.419 . S
C542 C543 1.362 . S
C543 H533 0.930 . S
C543 C536 1.409 . S
C543 C542 1.362 . S
H544 C550 0.930 . S
H545 C553 0.930 . S
H546 C554 0.930 . S
H547 C555 0.930 . S
H548 C558 0.930 . S
H549 C559 0.930 . S
C550 H544 0.930 . S
C550 C551 1.355 . S
C550 C552 1.415 . S
C551 C550 1.355 . S
C551 C553 1.419 . S
C552 C550 1.415 . S
C552 C557 1.425 . S
C552 C559 1.409 . S
C553 H545 0.930 . S
C553 C551 1.419 . S
C553 C554 1.362 . S
C554 H546 0.930 . S
C554 C553 1.362 . S
C554 C557 1.409 . S
C555 H547 0.930 . S
C555 C556 1.355 . S
C555 C557 1.415 . S
C556 C555 1.355 . S
C556 C558 1.419 . S
C557 C552 1.425 . S
C557 C554 1.409 . S
C557 C555 1.415 . S
C558 H548 0.930 . S
C558 C556 1.419 . S
C558 C559 1.362 . S
C559 H549 0.930 . S
C559 C552 1.409 . S
C559 C558 1.362 . S
H560 C566 0.930 . S
H561 C569 0.930 . S
H562 C570 0.930 . S
H563 C571 0.930 . S
H564 C574 0.930 . S
H565 C575 0.930 . S
C566 H560 0.930 . S
C566 C567 1.355 . S
C566 C568 1.415 . S
C567 C566 1.355 . S
C567 C569 1.419 . S
C568 C566 1.415 . S
C568 C573 1.425 . S
C568 C575 1.409 . S
C569 H561 0.930 . S
C569 C567 1.419 . S
C569 C570 1.362 . S
C570 H562 0.930 . S
C570 C569 1.362 . S
C570 C573 1.409 . S
C571 H563 0.930 . S
C571 C572 1.355 . S
C571 C573 1.415 . S
C572 C571 1.355 . S
C572 C574 1.419 . S
C573 C568 1.425 . S
C573 C570 1.409 . S
C573 C571 1.415 . S
C574 H564 0.930 . S
C574 C572 1.419 . S
C574 C575 1.362 . S
C575 H565 0.930 . S
C575 C568 1.409 . S
C575 C574 1.362 . S
H576 C582 0.930 . S
H577 C585 0.930 . S
H578 C586 0.930 . S
H579 C587 0.930 . S
H580 C590 0.930 . S
H581 C591 0.930 . S
C582 H576 0.930 . S
C582 C583 1.355 . S
C582 C584 1.415 . S
C583 C582 1.355 . S
C583 C585 1.419 . S
C584 C582 1.415 . S
C584 C589 1.425 . S
C584 C591 1.409 . S
C585 H577 0.930 . S
C585 C583 1.419 . S
C585 C586 1.362 . S
C586 H578 0.930 . S
C586 C585 1.362 . S
C586 C589 1.409 . S
C587 H579 0.930 . S
C587 C588 1.355 . S
C587 C589 1.415 . S
C588 C587 1.355 . S
C588 C590 1.419 . S
C589 C584 1.425 . S
C589 C586 1.409 . S
C589 C587 1.415 . S
C590 H580 0.930 . S
C590 C588 1.419 . S
C590 C591 1.362 . S
C591 H581 0.930 . S
C591 C584 1.409 . S
C591 C590 1.362 . S
H592 C598 0.930 . S
H593 C601 0.930 . S
H594 C602 0.930 . S
H595 C603 0.930 . S
H596 C606 0.930 . S
H597 C607 0.930 . S
C598 H592 0.930 . S
C598 C599 1.355 . S
C598 C600 1.415 . S
C599 C598 1.355 . S
C599 C601 1.419 . S
C600 C598 1.415 . S
C600 C605 1.425 . S
C600 C607 1.409 . S
C601 H593 0.930 . S
C601 C599 1.419 . S
C601 C602 1.362 . S
C602 H594 0.930 . S
C602 C601 1.362 . S
C602 C605 1.409 . S
C603 H595 0.930 . S
C603 C604 1.355 . S
C603 C605 1.415 . S
C604 C603 1.355 . S
C604 C606 1.419 . S
C605 C600 1.425 . S
C605 C602 1.409 . S
C605 C603 1.415 . S
C606 H596 0.930 . S
C606 C604 1.419 . S
C606 C607 1.362 . S
C607 H597 0.930 . S
C607 C600 1.409 . S
C607 C606 1.362 . S
H608 C614 0.930 . S
H609 C617 0.930 . S
H610 C618 0.930 . S
H611 C619 0.930 . S
H612 C622 0.930 . S
H613 C623 0.930 . S
C614 H608 0.930 . S
C614 C615 1.355 . S
C614 C616 1.415 . S
C615 C614 1.355 . S
C615 C617 1.419 . S
C616 C614 1.415 . S
C616 C621 1.425 . S
C616 C623 1.409 . S
C617 H609 0.930 . S
C617 C615 1.419 . S
C617 C618 1.362 . S
C618 H610 0.930 . S
C618 C617 1.362 . S
C618 C621 1.409 . S
C619 H611 0.930 . S
C619 C620 1.355 . S
C619 C621 1.415 . S
C620 C619 1.355 . S
C620 C622 1.419 . S
C621 C616 1.425 . S
C621 C618 1.409 . S
C621 C619 1.415 . S
C622 H612 0.930 . S
C622 C620 1.419 . S
C622 C623 1.362 . S
C623 H613 0.930 . S
C623 C616 1.409 . S
C623 C622 1.362 . S
H624 C630 0.930 . S
H625 C633 0.930 . S
H626 C634 0.930 . S
H627 C635 0.930 . S
H628 C638 0.930 . S
H629 C639 0.930 . S
C630 H624 0.930 . S
C630 C631 1.355 . S
C630 C632 1.415 . S
C631 C630 1.355 . S
C631 C633 1.419 . S
C632 C630 1.415 . S
C632 C637 1.425 . S
C632 C639 1.409 . S
C633 H625 0.930 . S
C633 C631 1.419 . S
C633 C634 1.362 . S
C634 H626 0.930 . S
C634 C633 1.362 . S
C634 C637 1.409 . S
C635 H627 0.930 . S
C635 C636 1.355 . S
C635 C637 1.415 . S
C636 C635 1.355 . S
C636 C638 1.419 . S
C637 C632 1.425 . S
C637 C634 1.409 . S
C637 C635 1.415 . S
C638 H628 0.930 . S
C638 C636 1.419 . S
C638 C639 1.362 . S
C639 H629 0.930 . S
C639 C632 1.409 . S
C639 C638 1.362 . S
H640 C646 0.930 . S
H641 C649 0.930 . S
H642 C650 0.930 . S
H643 C651 0.930 . S
H644 C654 0.930 . S
H645 C655 0.930 . S
C646 H640 0.930 . S
C646 C647 1.355 . S
C646 C648 1.415 . S
C647 C646 1.355 . S
C647 C649 1.419 . S
C648 C646 1.415 . S
C648 C653 1.425 . S
C648 C655 1.409 . S
C649 H641 0.930 . S
C649 C647 1.419 . S
C649 C650 1.362 . S
C650 H642 0.930 . S
C650 C649 1.362 . S
C650 C653 1.409 . S
C651 H643 0.930 . S
C651 C652 1.355 . S
C651 C653 1.415 . S
C652 C651 1.355 . S
C652 C654 1.419 . S
C653 C648 1.425 . S
C653 C650 1.409 . S
C653 C651 1.415 . S
C654 H644 0.930 . S
C654 C652 1.419 . S
C654 C655 1.362 . S
C655 H645 0.930 . S
C655 C648 1.409 . S
C655 C654 1.362 . S
H656 C662 0.930 . S
H657 C665 0.930 . S
H658 C666 0.930 . S
H659 C667 0.930 . S
H660 C670 0.930 . S
H661 C671 0.930 . S
C662 H656 0.930 . S
C662 C663 1.355 . S
C662 C664 1.415 . S
C663 C662 1.355 . S
C663 C665 1.419 . S
C664 C662 1.415 . S
C664 C669 1.425 . S
C664 C671 1.409 . S
C665 H657 0.930 . S
C665 C663 1.419 . S
C665 C666 1.362 . S
C666 H658 0.930 . S
C666 C665 1.362 . S
C666 C669 1.409 . S
C667 H659 0.930 . S
C667 C668 1.355 . S
C667 C669 1.415 . S
C668 C667 1.355 . S
C668 C670 1.419 . S
C669 C664 1.425 . S
C669 C666 1.409 . S
C669 C667 1.415 . S
C670 H660 0.930 . S
C670 C668 1.419 . S
C670 C671 1.362 . S
C671 H661 0.930 . S
C671 C664 1.409 . S
C671 C670 1.362 . S
H672 C678 0.930 . S
H673 C681 0.930 . S
H674 C682 0.931 1_655 S
H675 C683 0.930 . S
H676 C686 0.930 . S
H677 C687 0.931 1_455 S
C678 H672 0.930 . S
C678 C679 1.355 . S
C678 C680 1.415 . S
C679 C678 1.355 . S
C679 C681 1.419 . S
C680 C678 1.415 . S
C680 C685 1.425 1_455 S
C680 C687 1.410 1_455 S
C681 H673 0.930 . S
C681 C679 1.419 . S
C681 C682 1.361 . S
C682 H674 0.931 1_455 S
C682 C681 1.361 . S
C682 C685 1.410 1_455 S
C683 H675 0.930 . S
C683 C684 1.355 . S
C683 C685 1.415 . S
C684 C683 1.355 . S
C684 C686 1.419 . S
C685 C680 1.425 1_655 S
C685 C682 1.410 1_655 S
C685 C683 1.415 . S
C686 H676 0.930 . S
C686 C684 1.419 . S
C686 C687 1.361 . S
C687 H677 0.931 1_655 S
C687 C680 1.410 1_655 S
C687 C686 1.361 . S
H688 C694 0.930 . S
H689 C697 0.930 . S
H690 C698 0.931 . S
H691 C699 0.930 . S
H692 C702 0.930 . S
H693 C703 0.931 . S
C694 H688 0.930 . S
C694 C695 1.355 . S
C694 C696 1.415 . S
C695 C694 1.355 . S
C695 C697 1.419 . S
C696 C694 1.415 . S
C696 C701 1.425 1_545 S
C696 C703 1.410 . S
C697 H689 0.930 . S
C697 C695 1.419 . S
C697 C698 1.361 1_545 S
C698 H690 0.931 . S
C698 C697 1.361 1_565 S
C698 C701 1.410 . S
C699 H691 0.930 . S
C699 C700 1.355 . S
C699 C701 1.415 . S
C700 C699 1.355 . S
C700 C702 1.419 . S
C701 C696 1.425 1_565 S
C701 C698 1.410 . S
C701 C699 1.415 . S
C702 H692 0.930 . S
C702 C700 1.419 . S
C702 C703 1.361 1_565 S
C703 H693 0.931 . S
C703 C696 1.410 . S
C703 C702 1.361 1_545 S
H704 C710 0.930 1_565 S
H705 C713 0.930 . S
H706 C714 0.930 . S
H707 C715 0.930 1_545 S
H708 C718 0.930 . S
H709 C719 0.930 . S
C710 H704 0.930 1_545 S
C710 C711 1.355 . S
C710 C712 1.415 1_545 S
C711 C710 1.355 . S
C711 C713 1.419 . S
C712 C710 1.415 1_565 S
C712 C717 1.425 1_466 S
C712 C719 1.409 1_556 S
C713 H705 0.930 . S
C713 C711 1.419 . S
C713 C714 1.362 1_455 S
C714 H706 0.930 . S
C714 C713 1.362 1_655 S
C714 C717 1.409 1_556 S
C715 H707 0.930 1_565 S
C715 C716 1.355 . S
C715 C717 1.415 1_565 S
C716 C715 1.355 . S
C716 C718 1.419 . S
C717 C712 1.425 1_644 S
C717 C714 1.409 1_554 S
C717 C715 1.415 1_545 S
C718 H708 0.930 . S
C718 C716 1.419 . S
C718 C719 1.362 1_655 S
C719 H709 0.930 . S
C719 C712 1.409 1_554 S
C719 C718 1.362 1_455 S
H720 C726 0.930 . S
H721 C729 0.930 . S
H722 C730 0.930 . S
H723 C731 0.930 . S
H724 C734 0.930 . S
H725 C735 0.930 . S
C726 H720 0.930 . S
C726 C727 1.355 1_554 S
C726 C728 1.415 . S
C727 C726 1.355 1_556 S
C727 C729 1.419 . S
C728 C726 1.415 . S
C728 C733 1.425 1_554 S
C728 C735 1.409 . S
C729 H721 0.930 . S
C729 C727 1.419 . S
C729 C730 1.362 . S
C730 H722 0.930 . S
C730 C729 1.362 . S
C730 C733 1.409 . S
C731 H723 0.930 . S
C731 C732 1.355 1_556 S
C731 C733 1.415 . S
C732 C731 1.355 1_554 S
C732 C734 1.419 . S
C733 C728 1.425 1_556 S
C733 C730 1.409 . S
C733 C731 1.415 . S
C734 H724 0.930 . S
C734 C732 1.419 . S
C734 C735 1.362 . S
C735 H725 0.930 . S
C735 C728 1.409 . S
C735 C734 1.362 . S
H736 C742 0.930 . S
H737 C745 0.930 . S
H738 C746 0.930 . S
H739 C747 0.930 . S
H740 C750 0.930 . S
H741 C751 0.930 . S
C742 H736 0.930 . S
C742 C743 1.355 . S
C742 C744 1.415 . S
C743 C742 1.355 . S
C743 C745 1.419 . S
C744 C742 1.415 . S
C744 C749 1.425 1_655 S
C744 C751 1.409 . S
C745 H737 0.930 . S
C745 C743 1.419 . S
C745 C746 1.362 1_655 S
C746 H738 0.930 . S
C746 C745 1.362 1_455 S
C746 C749 1.409 . S
C747 H739 0.930 . S
C747 C748 1.355 . S
C747 C749 1.415 . S
C748 C747 1.355 . S
C748 C750 1.419 . S
C749 C744 1.425 1_455 S
C749 C746 1.409 . S
C749 C747 1.415 . S
C750 H740 0.930 . S
C750 C748 1.419 . S
C750 C751 1.362 1_455 S
C751 H741 0.930 . S
C751 C744 1.409 . S
C751 C750 1.362 1_655 S
H752 C758 0.930 1_565 S
H753 C761 0.930 . S
H754 C762 0.930 . S
H755 C763 0.930 1_545 S
H756 C766 0.930 . S
H757 C767 0.930 . S
C758 H752 0.930 1_545 S
C758 C759 1.355 . S
C758 C760 1.415 1_545 S
C759 C758 1.355 . S
C759 C761 1.419 . S
C760 C758 1.415 1_565 S
C760 C765 1.425 1_565 S
C760 C767 1.409 . S
C761 H753 0.930 . S
C761 C759 1.419 . S
C761 C762 1.362 . S
C762 H754 0.930 . S
C762 C761 1.362 . S
C762 C765 1.409 . S
C763 H755 0.930 1_565 S
C763 C764 1.355 . S
C763 C765 1.415 1_565 S
C764 C763 1.355 . S
C764 C766 1.419 . S
C765 C760 1.425 1_545 S
C765 C762 1.409 . S
C765 C763 1.415 1_545 S
C766 H756 0.930 . S
C766 C764 1.419 . S
C766 C767 1.362 . S
C767 H757 0.930 . S
C767 C760 1.409 . S
C767 C766 1.362 . S
H768 C774 0.930 1_554 S
H769 C777 0.930 . S
H770 C778 0.930 . S
H771 C779 0.930 1_556 S
H772 C782 0.930 . S
H773 C783 0.930 . S
C774 H768 0.930 1_556 S
C774 C775 1.355 . S
C774 C776 1.415 1_556 S
C775 C774 1.355 . S
C775 C777 1.419 . S
C776 C774 1.415 1_554 S
C776 C781 1.425 1_554 S
C776 C783 1.409 . S
C777 H769 0.930 . S
C777 C775 1.419 . S
C777 C778 1.362 . S
C778 H770 0.930 . S
C778 C777 1.362 . S
C778 C781 1.409 . S
C779 H771 0.930 1_554 S
C779 C780 1.355 . S
C779 C781 1.415 1_554 S
C780 C779 1.355 . S
C780 C782 1.419 . S
C781 C776 1.425 1_556 S
C781 C778 1.409 . S
C781 C779 1.415 1_556 S
C782 H772 0.930 . S
C782 C780 1.419 . S
C782 C783 1.362 . S
C783 H773 0.930 . S
C783 C776 1.409 . S
C783 C782 1.362 . S
H784 C790 0.930 . S
H785 C793 0.930 . S
H786 C794 0.930 . S
H787 C795 0.930 . S
H788 C798 0.930 . S
H789 C799 0.930 . S
C790 H784 0.930 . S
C790 C791 1.355 . S
C790 C792 1.415 . S
C791 C790 1.355 . S
C791 C793 1.419 . S
C792 C790 1.415 . S
C792 C797 1.425 . S
C792 C799 1.409 . S
C793 H785 0.930 . S
C793 C791 1.419 . S
C793 C794 1.362 . S
C794 H786 0.930 . S
C794 C793 1.362 . S
C794 C797 1.409 . S
C795 H787 0.930 . S
C795 C796 1.355 . S
C795 C797 1.415 . S
C796 C795 1.355 . S
C796 C798 1.419 . S
C797 C792 1.425 . S
C797 C794 1.409 . S
C797 C795 1.415 . S
C798 H788 0.930 . S
C798 C796 1.419 . S
C798 C799 1.362 . S
C799 H789 0.930 . S
C799 C792 1.409 . S
C799 C798 1.362 . S
H800 C806 0.930 . S
H801 C809 0.930 . S
H802 C810 0.930 . S
H803 C811 0.930 . S
H804 C814 0.930 . S
H805 C815 0.930 . S
C806 H800 0.930 . S
C806 C807 1.355 . S
C806 C808 1.415 . S
C807 C806 1.355 . S
C807 C809 1.419 . S
C808 C806 1.415 . S
C808 C813 1.425 1_455 S
C808 C815 1.409 1_455 S
C809 H801 0.930 . S
C809 C807 1.419 . S
C809 C810 1.362 . S
C810 H802 0.930 . S
C810 C809 1.362 . S
C810 C813 1.409 1_455 S
C811 H803 0.930 . S
C811 C812 1.355 . S
C811 C813 1.415 . S
C812 C811 1.355 . S
C812 C814 1.419 . S
C813 C808 1.425 1_655 S
C813 C810 1.409 1_655 S
C813 C811 1.415 . S
C814 H804 0.930 . S
C814 C812 1.419 . S
C814 C815 1.362 . S
C815 H805 0.930 . S
C815 C808 1.409 1_655 S
C815 C814 1.362 . S
H816 C822 0.930 . S
H817 C825 0.930 . S
H818 C826 0.930 . S
H819 C827 0.930 . S
H820 C830 0.930 . S
H821 C831 0.930 . S
C822 H816 0.930 . S
C822 C823 1.355 . S
C822 C824 1.415 . S
C823 C822 1.355 . S
C823 C825 1.419 . S
C824 C822 1.415 . S
C824 C829 1.425 . S
C824 C831 1.409 . S
C825 H817 0.930 . S
C825 C823 1.419 . S
C825 C826 1.362 . S
C826 H818 0.930 . S
C826 C825 1.362 . S
C826 C829 1.409 . S
C827 H819 0.930 . S
C827 C828 1.355 . S
C827 C829 1.415 . S
C828 C827 1.355 . S
C828 C830 1.419 . S
C829 C824 1.425 . S
C829 C826 1.409 . S
C829 C827 1.415 . S
C830 H820 0.930 . S
C830 C828 1.419 . S
C830 C831 1.362 . S
C831 H821 0.930 . S
C831 C824 1.409 . S
C831 C830 1.362 . S
H832 C838 0.930 . S
H833 C841 0.930 . S
H834 C842 0.930 . S
H835 C843 0.930 . S
H836 C846 0.930 . S
H837 C847 0.930 . S
C838 H832 0.930 . S
C838 C839 1.355 . S
C838 C840 1.415 . S
C839 C838 1.355 . S
C839 C841 1.419 . S
C840 C838 1.415 . S
C840 C845 1.425 . S
C840 C847 1.409 . S
C841 H833 0.930 . S
C841 C839 1.419 . S
C841 C842 1.362 . S
C842 H834 0.930 . S
C842 C841 1.362 . S
C842 C845 1.409 . S
C843 H835 0.930 . S
C843 C844 1.355 . S
C843 C845 1.415 . S
C844 C843 1.355 . S
C844 C846 1.419 . S
C845 C840 1.425 . S
C845 C842 1.409 . S
C845 C843 1.415 . S
C846 H836 0.930 . S
C846 C844 1.419 . S
C846 C847 1.362 . S
C847 H837 0.930 . S
C847 C840 1.409 . S
C847 C846 1.362 . S
H848 C854 0.930 . S
H849 C857 0.930 . S
H850 C858 0.930 . S
H851 C859 0.930 . S
H852 C862 0.930 . S
H853 C863 0.930 . S
C854 H848 0.930 . S
C854 C855 1.355 . S
C854 C856 1.415 . S
C855 C854 1.355 . S
C855 C857 1.419 . S
C856 C854 1.415 . S
C856 C861 1.425 . S
C856 C863 1.409 . S
C857 H849 0.930 . S
C857 C855 1.419 . S
C857 C858 1.362 . S
C858 H850 0.930 . S
C858 C857 1.362 . S
C858 C861 1.409 . S
C859 H851 0.930 . S
C859 C860 1.355 . S
C859 C861 1.415 . S
C860 C859 1.355 . S
C860 C862 1.419 . S
C861 C856 1.425 . S
C861 C858 1.409 . S
C861 C859 1.415 . S
C862 H852 0.930 . S
C862 C860 1.419 . S
C862 C863 1.362 . S
C863 H853 0.930 . S
C863 C856 1.409 . S
C863 C862 1.362 . S
H864 C870 0.930 . S
H865 C873 0.930 . S
H866 C874 0.930 . S
H867 C875 0.930 . S
H868 C878 0.930 . S
H869 C879 0.930 . S
C870 H864 0.930 . S
C870 C871 1.355 . S
C870 C872 1.415 . S
C871 C870 1.355 . S
C871 C873 1.419 . S
C872 C870 1.415 . S
C872 C877 1.425 . S
C872 C879 1.409 . S
C873 H865 0.930 . S
C873 C871 1.419 . S
C873 C874 1.362 . S
C874 H866 0.930 . S
C874 C873 1.362 . S
C874 C877 1.409 . S
C875 H867 0.930 . S
C875 C876 1.355 . S
C875 C877 1.415 . S
C876 C875 1.355 . S
C876 C878 1.419 . S
C877 C872 1.425 . S
C877 C874 1.409 . S
C877 C875 1.415 . S
C878 H868 0.930 . S
C878 C876 1.419 . S
C878 C879 1.362 . S
C879 H869 0.930 . S
C879 C872 1.409 . S
C879 C878 1.362 . S
H880 C886 0.930 . S
H881 C889 0.930 . S
H882 C890 0.930 . S
H883 C891 0.930 . S
H884 C894 0.930 . S
H885 C895 0.930 . S
C886 H880 0.930 . S
C886 C887 1.355 . S
C886 C888 1.415 1_565 S
C887 C886 1.355 . S
C887 C889 1.419 . S
C888 C886 1.415 1_545 S
C888 C893 1.425 1_545 S
C888 C895 1.409 . S
C889 H881 0.930 . S
C889 C887 1.419 . S
C889 C890 1.362 . S
C890 H882 0.930 . S
C890 C889 1.362 . S
C890 C893 1.409 . S
C891 H883 0.930 . S
C891 C892 1.355 . S
C891 C893 1.415 1_545 S
C892 C891 1.355 . S
C892 C894 1.419 . S
C893 C888 1.425 1_565 S
C893 C890 1.409 . S
C893 C891 1.415 1_565 S
C894 H884 0.930 . S
C894 C892 1.419 . S
C894 C895 1.362 . S
C895 H885 0.930 . S
C895 C888 1.409 . S
C895 C894 1.362 . S
H896 C902 0.930 . S
H897 C905 0.930 . S
H898 C906 0.930 . S
H899 C907 0.930 . S
H900 C910 0.930 . S
H901 C911 0.930 . S
C902 H896 0.930 . S
C902 C903 1.355 . S
C902 C904 1.415 . S
C903 C902 1.355 . S
C903 C905 1.419 . S
C904 C902 1.415 . S
C904 C909 1.425 . S
C904 C911 1.409 . S
C905 H897 0.930 . S
C905 C903 1.419 . S
C905 C906 1.362 . S
C906 H898 0.930 . S
C906 C905 1.362 . S
C906 C909 1.409 . S
C907 H899 0.930 . S
C907 C908 1.355 . S
C907 C909 1.415 . S
C908 C907 1.355 . S
C908 C910 1.419 . S
C909 C904 1.425 . S
C909 C906 1.409 . S
C909 C907 1.415 . S
C910 H900 0.930 . S
C910 C908 1.419 . S
C910 C911 1.362 . S
C911 H901 0.930 . S
C911 C904 1.409 . S
C911 C910 1.362 . S
H912 C918 0.930 . S
H913 C921 0.930 . S
H914 C922 0.930 . S
H915 C923 0.930 . S
H916 C926 0.930 . S
H917 C927 0.930 . S
C918 H912 0.930 . S
C918 C919 1.355 1_556 S
C918 C920 1.415 . S
C919 C918 1.355 1_554 S
C919 C921 1.419 . S
C920 C918 1.415 . S
C920 C925 1.425 1_556 S
C920 C927 1.409 . S
C921 H913 0.930 . S
C921 C919 1.419 . S
C921 C922 1.362 . S
C922 H914 0.930 . S
C922 C921 1.362 . S
C922 C925 1.409 . S
C923 H915 0.930 . S
C923 C924 1.355 1_554 S
C923 C925 1.415 . S
C924 C923 1.355 1_556 S
C924 C926 1.419 . S
C925 C920 1.425 1_554 S
C925 C922 1.409 . S
C925 C923 1.415 . S
C926 H916 0.930 . S
C926 C924 1.419 . S
C926 C927 1.362 . S
C927 H917 0.930 . S
C927 C920 1.409 . S
C927 C926 1.362 . S
H928 C934 0.930 . S
H929 C937 0.930 . S
H930 C938 0.930 . S
H931 C939 0.930 . S
H932 C942 0.930 . S
H933 C943 0.930 . S
C934 H928 0.930 . S
C934 C935 1.355 . S
C934 C936 1.415 . S
C935 C934 1.355 . S
C935 C937 1.419 . S
C936 C934 1.415 . S
C936 C941 1.425 . S
C936 C943 1.409 . S
C937 H929 0.930 . S
C937 C935 1.419 . S
C937 C938 1.362 . S
C938 H930 0.930 . S
C938 C937 1.362 . S
C938 C941 1.409 . S
C939 H931 0.930 . S
C939 C940 1.355 . S
C939 C941 1.415 . S
C940 C939 1.355 . S
C940 C942 1.419 . S
C941 C936 1.425 . S
C941 C938 1.409 . S
C941 C939 1.415 . S
C942 H932 0.930 . S
C942 C940 1.419 . S
C942 C943 1.362 . S
C943 H933 0.930 . S
C943 C936 1.409 . S
C943 C942 1.362 . S
H944 C950 0.930 . S
H945 C953 0.930 . S
H946 C954 0.930 . S
H947 C955 0.930 . S
H948 C958 0.930 1_545 S
H949 C959 0.930 . S
C950 H944 0.930 . S
C950 C951 1.355 . S
C950 C952 1.415 . S
C951 C950 1.355 . S
C951 C953 1.419 . S
C952 C950 1.415 . S
C952 C957 1.425 . S
C952 C959 1.409 . S
C953 H945 0.930 . S
C953 C951 1.419 . S
C953 C954 1.362 . S
C954 H946 0.930 . S
C954 C953 1.362 . S
C954 C957 1.409 . S
C955 H947 0.930 . S
C955 C956 1.355 . S
C955 C957 1.415 . S
C956 C955 1.355 . S
C956 C958 1.419 . S
C957 C952 1.425 . S
C957 C954 1.409 . S
C957 C955 1.415 . S
C958 H948 0.930 1_565 S
C958 C956 1.419 . S
C958 C959 1.362 . S
C959 H949 0.930 . S
C959 C952 1.409 . S
C959 C958 1.362 . S
H960 C966 0.930 . S
H961 C969 0.930 1_545 S
H962 C970 0.930 . S
H963 C971 0.930 . S
H964 C974 0.930 . S
H965 C975 0.930 . S
C966 H960 0.930 . S
C966 C967 1.355 . S
C966 C968 1.415 . S
C967 C966 1.355 . S
C967 C969 1.419 . S
C968 C966 1.415 . S
C968 C973 1.425 . S
C968 C975 1.409 . S
C969 H961 0.930 1_565 S
C969 C967 1.419 . S
C969 C970 1.362 . S
C970 H962 0.930 . S
C970 C969 1.362 . S
C970 C973 1.409 . S
C971 H963 0.930 . S
C971 C972 1.355 . S
C971 C973 1.415 . S
C972 C971 1.355 . S
C972 C974 1.419 . S
C973 C968 1.425 . S
C973 C970 1.409 . S
C973 C971 1.415 . S
C974 H964 0.930 . S
C974 C972 1.419 . S
C974 C975 1.362 . S
C975 H965 0.930 . S
C975 C968 1.409 . S
C975 C974 1.362 . S
H976 C982 0.930 . S
H977 C985 0.930 . S
H978 C986 0.930 . S
H979 C987 0.930 . S
H980 C990 0.930 . S
H981 C991 0.930 . S
C982 H976 0.930 . S
C982 C983 1.355 . S
C982 C984 1.415 . S
C983 C982 1.355 . S
C983 C985 1.419 . S
C984 C982 1.415 . S
C984 C989 1.425 . S
C984 C991 1.409 . S
C985 H977 0.930 . S
C985 C983 1.419 . S
C985 C986 1.362 . S
C986 H978 0.930 . S
C986 C985 1.362 . S
C986 C989 1.409 . S
C987 H979 0.930 . S
C987 C988 1.355 . S
C987 C989 1.415 . S
C988 C987 1.355 . S
C988 C990 1.419 . S
C989 C984 1.425 . S
C989 C986 1.409 . S
C989 C987 1.415 . S
C990 H980 0.930 . S
C990 C988 1.419 . S
C990 C991 1.362 . S
C991 H981 0.930 . S
C991 C984 1.409 . S
C991 C990 1.362 . S
H992 C998 0.930 . S
H993 C1001 0.930 . S
H994 C1002 0.930 . S
H995 C1003 0.930 . S
H996 C1006 0.930 . S
H997 C1007 0.930 . S
C998 H992 0.930 . S
C998 C999 1.355 . S
C998 C1000 1.415 . S
C999 C998 1.355 . S
C999 C1001 1.419 . S
C1000 C998 1.415 . S
C1000 C1005 1.425 . S
C1000 C1007 1.409 . S
C1001 H993 0.930 . S
C1001 C999 1.419 . S
C1001 C1002 1.362 . S
C1002 H994 0.930 . S
C1002 C1001 1.362 . S
C1002 C1005 1.409 . S
C1003 H995 0.930 . S
C1003 C1004 1.355 . S
C1003 C1005 1.415 . S
C1004 C1003 1.355 . S
C1004 C1006 1.419 . S
C1005 C1000 1.425 . S
C1005 C1002 1.409 . S
C1005 C1003 1.415 . S
C1006 H996 0.930 . S
C1006 C1004 1.419 . S
C1006 C1007 1.362 . S
C1007 H997 0.930 . S
C1007 C1000 1.409 . S
C1007 C1006 1.362 . S
H1008 C1014 0.930 . S
H1009 C1017 0.930 1_565 S
H1010 C1018 0.930 . S
H1011 C1019 0.930 . S
H1012 C1022 0.930 . S
H1013 C1023 0.930 . S
C1014 H1008 0.930 . S
C1014 C1015 1.355 . S
C1014 C1016 1.415 . S
C1015 C1014 1.355 . S
C1015 C1017 1.419 . S
C1016 C1014 1.415 . S
C1016 C1021 1.425 . S
C1016 C1023 1.409 . S
C1017 H1009 0.930 1_545 S
C1017 C1015 1.419 . S
C1017 C1018 1.362 . S
C1018 H1010 0.930 . S
C1018 C1017 1.362 . S
C1018 C1021 1.409 . S
C1019 H1011 0.930 . S
C1019 C1020 1.355 . S
C1019 C1021 1.415 . S
C1020 C1019 1.355 . S
C1020 C1022 1.419 . S
C1021 C1016 1.425 . S
C1021 C1018 1.409 . S
C1021 C1019 1.415 . S
C1022 H1012 0.930 . S
C1022 C1020 1.419 . S
C1022 C1023 1.362 . S
C1023 H1013 0.930 . S
C1023 C1016 1.409 . S
C1023 C1022 1.362 . S
H1024 C1030 0.930 . S
H1025 C1033 0.930 . S
H1026 C1034 0.930 . S
H1027 C1035 0.930 . S
H1028 C1038 0.930 1_565 S
H1029 C1039 0.930 . S
C1030 H1024 0.930 . S
C1030 C1031 1.355 . S
C1030 C1032 1.415 . S
C1031 C1030 1.355 . S
C1031 C1033 1.419 . S
C1032 C1030 1.415 . S
C1032 C1037 1.425 . S
C1032 C1039 1.409 . S
C1033 H1025 0.930 . S
C1033 C1031 1.419 . S
C1033 C1034 1.362 . S
C1034 H1026 0.930 . S
C1034 C1033 1.362 . S
C1034 C1037 1.409 . S
C1035 H1027 0.930 . S
C1035 C1036 1.355 . S
C1035 C1037 1.415 . S
C1036 C1035 1.355 . S
C1036 C1038 1.419 . S
C1037 C1032 1.425 . S
C1037 C1034 1.409 . S
C1037 C1035 1.415 . S
C1038 H1028 0.930 1_545 S
C1038 C1036 1.419 . S
C1038 C1039 1.362 . S
C1039 H1029 0.930 . S
C1039 C1032 1.409 . S
C1039 C1038 1.362 . S
H1040 C1046 0.930 . S
H1041 C1049 0.930 . S
H1042 C1050 0.930 . S
H1043 C1051 0.930 . S
H1044 C1054 0.930 . S
H1045 C1055 0.930 . S
C1046 H1040 0.930 . S
C1046 C1047 1.355 . S
C1046 C1048 1.415 . S
C1047 C1046 1.355 . S
C1047 C1049 1.419 . S
C1048 C1046 1.415 . S
C1048 C1053 1.425 . S
C1048 C1055 1.409 . S
C1049 H1041 0.930 . S
C1049 C1047 1.419 . S
C1049 C1050 1.362 . S
C1050 H1042 0.930 . S
C1050 C1049 1.362 . S
C1050 C1053 1.409 . S
C1051 H1043 0.930 . S
C1051 C1052 1.355 . S
C1051 C1053 1.415 . S
C1052 C1051 1.355 . S
C1052 C1054 1.419 . S
C1053 C1048 1.425 . S
C1053 C1050 1.409 . S
C1053 C1051 1.415 . S
C1054 H1044 0.930 . S
C1054 C1052 1.419 . S
C1054 C1055 1.362 . S
C1055 H1045 0.930 . S
C1055 C1048 1.409 . S
C1055 C1054 1.362 . S
H1056 C1062 0.930 . S
H1057 C1065 0.930 . S
H1058 C1066 0.930 . S
H1059 C1067 0.930 . S
H1060 C1070 0.930 . S
H1061 C1071 0.930 . S
C1062 H1056 0.930 . S
C1062 C1063 1.355 . S
C1062 C1064 1.415 . S
C1063 C1062 1.355 . S
C1063 C1065 1.419 . S
C1064 C1062 1.415 . S
C1064 C1069 1.425 . S
C1064 C1071 1.409 . S
C1065 H1057 0.930 . S
C1065 C1063 1.419 . S
C1065 C1066 1.362 . S
C1066 H1058 0.930 . S
C1066 C1065 1.362 . S
C1066 C1069 1.409 . S
C1067 H1059 0.930 . S
C1067 C1068 1.355 . S
C1067 C1069 1.415 . S
C1068 C1067 1.355 . S
C1068 C1070 1.419 . S
C1069 C1064 1.425 . S
C1069 C1066 1.409 . S
C1069 C1067 1.415 . S
C1070 H1060 0.930 . S
C1070 C1068 1.419 . S
C1070 C1071 1.362 . S
C1071 H1061 0.930 . S
C1071 C1064 1.409 . S
C1071 C1070 1.362 . S
H1072 C1078 0.930 . S
H1073 C1081 0.930 . S
H1074 C1082 0.930 . S
H1075 C1083 0.930 . S
H1076 C1086 0.930 . S
H1077 C1087 0.930 . S
C1078 H1072 0.930 . S
C1078 C1079 1.355 . S
C1078 C1080 1.415 . S
C1079 C1078 1.355 . S
C1079 C1081 1.419 . S
C1080 C1078 1.415 . S
C1080 C1085 1.425 . S
C1080 C1087 1.409 . S
C1081 H1073 0.930 . S
C1081 C1079 1.419 . S
C1081 C1082 1.362 . S
C1082 H1074 0.930 . S
C1082 C1081 1.362 . S
C1082 C1085 1.409 . S
C1083 H1075 0.930 . S
C1083 C1084 1.355 . S
C1083 C1085 1.415 . S
C1084 C1083 1.355 . S
C1084 C1086 1.419 . S
C1085 C1080 1.425 . S
C1085 C1082 1.409 . S
C1085 C1083 1.415 . S
C1086 H1076 0.930 . S
C1086 C1084 1.419 . S
C1086 C1087 1.362 . S
C1087 H1077 0.930 . S
C1087 C1080 1.409 . S
C1087 C1086 1.362 . S
H1088 C1094 0.930 . S
H1089 C1097 0.930 . S
H1090 C1098 0.930 . S
H1091 C1099 0.930 . S
H1092 C1102 0.930 . S
H1093 C1103 0.930 . S
C1094 H1088 0.930 . S
C1094 C1095 1.355 . S
C1094 C1096 1.415 . S
C1095 C1094 1.355 . S
C1095 C1097 1.419 . S
C1096 C1094 1.415 . S
C1096 C1101 1.425 . S
C1096 C1103 1.409 . S
C1097 H1089 0.930 . S
C1097 C1095 1.419 . S
C1097 C1098 1.362 . S
C1098 H1090 0.930 . S
C1098 C1097 1.362 . S
C1098 C1101 1.409 . S
C1099 H1091 0.930 . S
C1099 C1100 1.355 . S
C1099 C1101 1.415 . S
C1100 C1099 1.355 . S
C1100 C1102 1.419 . S
C1101 C1096 1.425 . S
C1101 C1098 1.409 . S
C1101 C1099 1.415 . S
C1102 H1092 0.930 . S
C1102 C1100 1.419 . S
C1102 C1103 1.362 . S
C1103 H1093 0.930 . S
C1103 C1096 1.409 . S
C1103 C1102 1.362 . S
H1104 C1110 0.930 . S
H1105 C1113 0.930 . S
H1106 C1114 0.930 . S
H1107 C1115 0.930 . S
H1108 C1118 0.930 . S
H1109 C1119 0.930 . S
C1110 H1104 0.930 . S
C1110 C1111 1.355 . S
C1110 C1112 1.415 . S
C1111 C1110 1.355 . S
C1111 C1113 1.419 . S
C1112 C1110 1.415 . S
C1112 C1117 1.425 . S
C1112 C1119 1.409 . S
C1113 H1105 0.930 . S
C1113 C1111 1.419 . S
C1113 C1114 1.362 . S
C1114 H1106 0.930 . S
C1114 C1113 1.362 . S
C1114 C1117 1.409 . S
C1115 H1107 0.930 . S
C1115 C1116 1.355 . S
C1115 C1117 1.415 . S
C1116 C1115 1.355 . S
C1116 C1118 1.419 . S
C1117 C1112 1.425 . S
C1117 C1114 1.409 . S
C1117 C1115 1.415 . S
C1118 H1108 0.930 . S
C1118 C1116 1.419 . S
C1118 C1119 1.362 . S
C1119 H1109 0.930 . S
C1119 C1112 1.409 . S
C1119 C1118 1.362 . S
H1120 C1126 0.930 . S
H1121 C1129 0.930 . S
H1122 C1130 0.930 . S
H1123 C1131 0.930 . S
H1124 C1134 0.930 . S
H1125 C1135 0.930 . S
C1126 H1120 0.930 . S
C1126 C1127 1.355 . S
C1126 C1128 1.415 . S
C1127 C1126 1.355 . S
C1127 C1129 1.419 . S
C1128 C1126 1.415 . S
C1128 C1133 1.425 . S
C1128 C1135 1.409 . S
C1129 H1121 0.930 . S
C1129 C1127 1.419 . S
C1129 C1130 1.362 . S
C1130 H1122 0.930 . S
C1130 C1129 1.362 . S
C1130 C1133 1.409 . S
C1131 H1123 0.930 . S
C1131 C1132 1.355 . S
C1131 C1133 1.415 . S
C1132 C1131 1.355 . S
C1132 C1134 1.419 . S
C1133 C1128 1.425 . S
C1133 C1130 1.409 . S
C1133 C1131 1.415 . S
C1134 H1124 0.930 . S
C1134 C1132 1.419 . S
C1134 C1135 1.362 . S
C1135 H1125 0.930 . S
C1135 C1128 1.409 . S
C1135 C1134 1.362 . S
H1136 C1142 0.930 . S
H1137 C1145 0.930 1_565 S
H1138 C1146 0.930 . S
H1139 C1147 0.930 . S
H1140 C1150 0.930 . S
H1141 C1151 0.930 . S
C1142 H1136 0.930 . S
C1142 C1143 1.355 . S
C1142 C1144 1.415 . S
C1143 C1142 1.355 . S
C1143 C1145 1.419 . S
C1144 C1142 1.415 . S
C1144 C1149 1.425 . S
C1144 C1151 1.409 . S
C1145 H1137 0.930 1_545 S
C1145 C1143 1.419 . S
C1145 C1146 1.362 . S
C1146 H1138 0.930 . S
C1146 C1145 1.362 . S
C1146 C1149 1.409 . S
C1147 H1139 0.930 . S
C1147 C1148 1.355 . S
C1147 C1149 1.415 . S
C1148 C1147 1.355 . S
C1148 C1150 1.419 . S
C1149 C1144 1.425 . S
C1149 C1146 1.409 . S
C1149 C1147 1.415 . S
C1150 H1140 0.930 . S
C1150 C1148 1.419 . S
C1150 C1151 1.362 . S
C1151 H1141 0.930 . S
C1151 C1144 1.409 . S
C1151 C1150 1.362 . S
H1152 C1158 0.930 . S
H1153 C1161 0.930 . S
H1154 C1162 0.930 . S
H1155 C1163 0.930 . S
H1156 C1166 0.930 . S
H1157 C1167 0.930 . S
C1158 H1152 0.930 . S
C1158 C1159 1.355 . S
C1158 C1160 1.415 . S
C1159 C1158 1.355 . S
C1159 C1161 1.419 . S
C1160 C1158 1.415 . S
C1160 C1165 1.425 . S
C1160 C1167 1.409 . S
C1161 H1153 0.930 . S
C1161 C1159 1.419 . S
C1161 C1162 1.362 . S
C1162 H1154 0.930 . S
C1162 C1161 1.362 . S
C1162 C1165 1.409 . S
C1163 H1155 0.930 . S
C1163 C1164 1.355 . S
C1163 C1165 1.415 . S
C1164 C1163 1.355 . S
C1164 C1166 1.419 . S
C1165 C1160 1.425 . S
C1165 C1162 1.409 . S
C1165 C1163 1.415 . S
C1166 H1156 0.930 . S
C1166 C1164 1.419 . S
C1166 C1167 1.362 . S
C1167 H1157 0.930 . S
C1167 C1160 1.409 . S
C1167 C1166 1.362 . S
H1168 C1174 0.930 . S
H1169 C1177 0.930 . S
H1170 C1178 0.930 . S
H1171 C1179 0.930 . S
H1172 C1182 0.930 . S
H1173 C1183 0.930 . S
C1174 H1168 0.930 . S
C1174 C1175 1.355 . S
C1174 C1176 1.415 . S
C1175 C1174 1.355 . S
C1175 C1177 1.419 . S
C1176 C1174 1.415 . S
C1176 C1181 1.425 . S
C1176 C1183 1.409 . S
C1177 H1169 0.930 . S
C1177 C1175 1.419 . S
C1177 C1178 1.362 . S
C1178 H1170 0.930 . S
C1178 C1177 1.362 . S
C1178 C1181 1.409 . S
C1179 H1171 0.930 . S
C1179 C1180 1.355 . S
C1179 C1181 1.415 . S
C1180 C1179 1.355 . S
C1180 C1182 1.419 . S
C1181 C1176 1.425 . S
C1181 C1178 1.409 . S
C1181 C1179 1.415 . S
C1182 H1172 0.930 . S
C1182 C1180 1.419 . S
C1182 C1183 1.362 . S
C1183 H1173 0.930 . S
C1183 C1176 1.409 . S
C1183 C1182 1.362 . S
H1184 C1190 0.930 . S
H1185 C1193 0.930 . S
H1186 C1194 0.930 . S
H1187 C1195 0.930 . S
H1188 C1198 0.930 . S
H1189 C1199 0.930 . S
C1190 H1184 0.930 . S
C1190 C1191 1.355 . S
C1190 C1192 1.415 . S
C1191 C1190 1.355 . S
C1191 C1193 1.419 . S
C1192 C1190 1.415 . S
C1192 C1197 1.425 . S
C1192 C1199 1.409 . S
C1193 H1185 0.930 . S
C1193 C1191 1.419 . S
C1193 C1194 1.362 . S
C1194 H1186 0.930 . S
C1194 C1193 1.362 . S
C1194 C1197 1.409 . S
C1195 H1187 0.930 . S
C1195 C1196 1.355 . S
C1195 C1197 1.415 . S
C1196 C1195 1.355 . S
C1196 C1198 1.419 . S
C1197 C1192 1.425 . S
C1197 C1194 1.409 . S
C1197 C1195 1.415 . S
C1198 H1188 0.930 . S
C1198 C1196 1.419 . S
C1198 C1199 1.362 . S
C1199 H1189 0.930 . S
C1199 C1192 1.409 . S
C1199 C1198 1.362 . S
H1200 C1206 0.930 . S
H1201 C1209 0.930 . S
H1202 C1210 0.930 . S
H1203 C1211 0.930 . S
H1204 C1214 0.930 . S
H1205 C1215 0.930 . S
C1206 H1200 0.930 . S
C1206 C1207 1.355 . S
C1206 C1208 1.415 . S
C1207 C1206 1.355 . S
C1207 C1209 1.419 . S
C1208 C1206 1.415 . S
C1208 C1213 1.425 . S
C1208 C1215 1.409 . S
C1209 H1201 0.930 . S
C1209 C1207 1.419 . S
C1209 C1210 1.362 . S
C1210 H1202 0.930 . S
C1210 C1209 1.362 . S
C1210 C1213 1.409 . S
C1211 H1203 0.930 . S
C1211 C1212 1.355 . S
C1211 C1213 1.415 . S
C1212 C1211 1.355 . S
C1212 C1214 1.419 . S
C1213 C1208 1.425 . S
C1213 C1210 1.409 . S
C1213 C1211 1.415 . S
C1214 H1204 0.930 . S
C1214 C1212 1.419 . S
C1214 C1215 1.362 . S
C1215 H1205 0.930 . S
C1215 C1208 1.409 . S
C1215 C1214 1.362 . S
H1216 C1222 0.930 . S
H1217 C1225 0.930 . S
H1218 C1226 0.930 . S
H1219 C1227 0.930 . S
H1220 C1230 0.930 . S
H1221 C1231 0.930 . S
C1222 H1216 0.930 . S
C1222 C1223 1.355 . S
C1222 C1224 1.415 . S
C1223 C1222 1.355 . S
C1223 C1225 1.419 . S
C1224 C1222 1.415 . S
C1224 C1229 1.425 . S
C1224 C1231 1.409 . S
C1225 H1217 0.930 . S
C1225 C1223 1.419 . S
C1225 C1226 1.362 . S
C1226 H1218 0.930 . S
C1226 C1225 1.362 . S
C1226 C1229 1.409 . S
C1227 H1219 0.930 . S
C1227 C1228 1.355 . S
C1227 C1229 1.415 . S
C1228 C1227 1.355 . S
C1228 C1230 1.419 . S
C1229 C1224 1.425 . S
C1229 C1226 1.409 . S
C1229 C1227 1.415 . S
C1230 H1220 0.930 . S
C1230 C1228 1.419 . S
C1230 C1231 1.362 . S
C1231 H1221 0.930 . S
C1231 C1224 1.409 . S
C1231 C1230 1.362 . S
H1232 C1238 0.930 . S
H1233 C1241 0.930 . S
H1234 C1242 0.930 . S
H1235 C1243 0.930 . S
H1236 C1246 0.930 . S
H1237 C1247 0.930 . S
C1238 H1232 0.930 . S
C1238 C1239 1.355 . S
C1238 C1240 1.415 . S
C1239 C1238 1.355 . S
C1239 C1241 1.419 . S
C1240 C1238 1.415 . S
C1240 C1245 1.425 . S
C1240 C1247 1.409 . S
C1241 H1233 0.930 . S
C1241 C1239 1.419 . S
C1241 C1242 1.362 . S
C1242 H1234 0.930 . S
C1242 C1241 1.362 . S
C1242 C1245 1.409 . S
C1243 H1235 0.930 . S
C1243 C1244 1.355 . S
C1243 C1245 1.415 . S
C1244 C1243 1.355 . S
C1244 C1246 1.419 . S
C1245 C1240 1.425 . S
C1245 C1242 1.409 . S
C1245 C1243 1.415 . S
C1246 H1236 0.930 . S
C1246 C1244 1.419 . S
C1246 C1247 1.362 . S
C1247 H1237 0.930 . S
C1247 C1240 1.409 . S
C1247 C1246 1.362 . S
H1248 C1254 0.930 . S
H1249 C1257 0.930 . S
H1250 C1258 0.930 . S
H1251 C1259 0.930 . S
H1252 C1262 0.930 . S
H1253 C1263 0.930 . S
C1254 H1248 0.930 . S
C1254 C1255 1.355 . S
C1254 C1256 1.415 . S
C1255 C1254 1.355 . S
C1255 C1257 1.419 . S
C1256 C1254 1.415 . S
C1256 C1261 1.425 . S
C1256 C1263 1.409 . S
C1257 H1249 0.930 . S
C1257 C1255 1.419 . S
C1257 C1258 1.362 . S
C1258 H1250 0.930 . S
C1258 C1257 1.362 . S
C1258 C1261 1.409 . S
C1259 H1251 0.930 . S
C1259 C1260 1.355 . S
C1259 C1261 1.415 . S
C1260 C1259 1.355 . S
C1260 C1262 1.419 . S
C1261 C1256 1.425 . S
C1261 C1258 1.409 . S
C1261 C1259 1.415 . S
C1262 H1252 0.930 . S
C1262 C1260 1.419 . S
C1262 C1263 1.362 . S
C1263 H1253 0.930 . S
C1263 C1256 1.409 . S
C1263 C1262 1.362 . S
H1264 C1270 0.930 . S
H1265 C1273 0.930 . S
H1266 C1274 0.930 . S
H1267 C1275 0.930 . S
H1268 C1278 0.930 . S
H1269 C1279 0.930 . S
C1270 H1264 0.930 . S
C1270 C1271 1.355 . S
C1270 C1272 1.415 . S
C1271 C1270 1.355 . S
C1271 C1273 1.419 . S
C1272 C1270 1.415 . S
C1272 C1277 1.425 . S
C1272 C1279 1.409 . S
C1273 H1265 0.930 . S
C1273 C1271 1.419 . S
C1273 C1274 1.362 . S
C1274 H1266 0.930 . S
C1274 C1273 1.362 . S
C1274 C1277 1.409 . S
C1275 H1267 0.930 . S
C1275 C1276 1.355 . S
C1275 C1277 1.415 . S
C1276 C1275 1.355 . S
C1276 C1278 1.419 . S
C1277 C1272 1.425 . S
C1277 C1274 1.409 . S
C1277 C1275 1.415 . S
C1278 H1268 0.930 . S
C1278 C1276 1.419 . S
C1278 C1279 1.362 . S
C1279 H1269 0.930 . S
C1279 C1272 1.409 . S
C1279 C1278 1.362 . S
H1280 C1286 0.930 . S
H1281 C1289 0.930 . S
H1282 C1290 0.930 . S
H1283 C1291 0.930 . S
H1284 C1294 0.930 . S
H1285 C1295 0.930 . S
C1286 H1280 0.930 . S
C1286 C1287 1.355 . S
C1286 C1288 1.415 . S
C1287 C1286 1.355 . S
C1287 C1289 1.419 . S
C1288 C1286 1.415 . S
C1288 C1293 1.425 . S
C1288 C1295 1.409 . S
C1289 H1281 0.930 . S
C1289 C1287 1.419 . S
C1289 C1290 1.362 . S
C1290 H1282 0.930 . S
C1290 C1289 1.362 . S
C1290 C1293 1.409 . S
C1291 H1283 0.930 . S
C1291 C1292 1.355 . S
C1291 C1293 1.415 . S
C1292 C1291 1.355 . S
C1292 C1294 1.419 . S
C1293 C1288 1.425 . S
C1293 C1290 1.409 . S
C1293 C1291 1.415 . S
C1294 H1284 0.930 . S
C1294 C1292 1.419 . S
C1294 C1295 1.362 . S
C1295 H1285 0.930 . S
C1295 C1288 1.409 . S
C1295 C1294 1.362 . S
H1296 C1302 0.930 . S
H1297 C1305 0.930 . S
H1298 C1306 0.930 . S
H1299 C1307 0.930 . S
H1300 C1310 0.930 1_565 S
H1301 C1311 0.930 . S
C1302 H1296 0.930 . S
C1302 C1303 1.355 . S
C1302 C1304 1.415 . S
C1303 C1302 1.355 . S
C1303 C1305 1.419 . S
C1304 C1302 1.415 . S
C1304 C1309 1.425 . S
C1304 C1311 1.409 . S
C1305 H1297 0.930 . S
C1305 C1303 1.419 . S
C1305 C1306 1.362 . S
C1306 H1298 0.930 . S
C1306 C1305 1.362 . S
C1306 C1309 1.409 . S
C1307 H1299 0.930 . S
C1307 C1308 1.355 . S
C1307 C1309 1.415 . S
C1308 C1307 1.355 . S
C1308 C1310 1.419 . S
C1309 C1304 1.425 . S
C1309 C1306 1.409 . S
C1309 C1307 1.415 . S
C1310 H1300 0.930 1_545 S
C1310 C1308 1.419 . S
C1310 C1311 1.362 . S
C1311 H1301 0.930 . S
C1311 C1304 1.409 . S
C1311 C1310 1.362 . S
H1312 C1318 0.930 . S
H1313 C1321 0.930 . S
H1314 C1322 0.930 . S
H1315 C1323 0.930 . S
H1316 C1326 0.930 . S
H1317 C1327 0.930 . S
C1318 H1312 0.930 . S
C1318 C1319 1.355 . S
C1318 C1320 1.415 . S
C1319 C1318 1.355 . S
C1319 C1321 1.419 . S
C1320 C1318 1.415 . S
C1320 C1325 1.425 . S
C1320 C1327 1.409 . S
C1321 H1313 0.930 . S
C1321 C1319 1.419 . S
C1321 C1322 1.362 . S
C1322 H1314 0.930 . S
C1322 C1321 1.362 . S
C1322 C1325 1.409 . S
C1323 H1315 0.930 . S
C1323 C1324 1.355 . S
C1323 C1325 1.415 . S
C1324 C1323 1.355 . S
C1324 C1326 1.419 . S
C1325 C1320 1.425 . S
C1325 C1322 1.409 . S
C1325 C1323 1.415 . S
C1326 H1316 0.930 . S
C1326 C1324 1.419 . S
C1326 C1327 1.362 . S
C1327 H1317 0.930 . S
C1327 C1320 1.409 . S
C1327 C1326 1.362 . S
H1328 C1334 0.930 . S
H1329 C1337 0.930 . S
H1330 C1338 0.930 . S
H1331 C1339 0.930 . S
H1332 C1342 0.930 . S
H1333 C1343 0.930 . S
C1334 H1328 0.930 . S
C1334 C1335 1.355 . S
C1334 C1336 1.415 . S
C1335 C1334 1.355 . S
C1335 C1337 1.419 . S
C1336 C1334 1.415 . S
C1336 C1341 1.425 . S
C1336 C1343 1.409 . S
C1337 H1329 0.930 . S
C1337 C1335 1.419 . S
C1337 C1338 1.362 . S
C1338 H1330 0.930 . S
C1338 C1337 1.362 . S
C1338 C1341 1.409 . S
C1339 H1331 0.930 . S
C1339 C1340 1.355 . S
C1339 C1341 1.415 . S
C1340 C1339 1.355 . S
C1340 C1342 1.419 . S
C1341 C1336 1.425 . S
C1341 C1338 1.409 . S
C1341 C1339 1.415 . S
C1342 H1332 0.930 . S
C1342 C1340 1.419 . S
C1342 C1343 1.362 . S
C1343 H1333 0.930 . S
C1343 C1336 1.409 . S
C1343 C1342 1.362 . S
H1344 C1350 0.930 . S
H1345 C1353 0.930 . S
H1346 C1354 0.930 . S
H1347 C1355 0.930 . S
H1348 C1358 0.930 . S
H1349 C1359 0.930 . S
C1350 H1344 0.930 . S
C1350 C1351 1.355 . S
C1350 C1352 1.415 . S
C1351 C1350 1.355 . S
C1351 C1353 1.419 . S
C1352 C1350 1.415 . S
C1352 C1357 1.425 . S
C1352 C1359 1.409 . S
C1353 H1345 0.930 . S
C1353 C1351 1.419 . S
C1353 C1354 1.362 . S
C1354 H1346 0.930 . S
C1354 C1353 1.362 . S
C1354 C1357 1.409 . S
C1355 H1347 0.930 . S
C1355 C1356 1.355 . S
C1355 C1357 1.415 . S
C1356 C1355 1.355 . S
C1356 C1358 1.419 . S
C1357 C1352 1.425 . S
C1357 C1354 1.409 . S
C1357 C1355 1.415 . S
C1358 H1348 0.930 . S
C1358 C1356 1.419 . S
C1358 C1359 1.362 . S
C1359 H1349 0.930 . S
C1359 C1352 1.409 . S
C1359 C1358 1.362 . S
H1360 C1366 0.930 . S
H1361 C1369 0.930 . S
H1362 C1370 0.930 . S
H1363 C1371 0.930 . S
H1364 C1374 0.930 . S
H1365 C1375 0.930 . S
C1366 H1360 0.930 . S
C1366 C1367 1.355 . S
C1366 C1368 1.415 . S
C1367 C1366 1.355 . S
C1367 C1369 1.419 . S
C1368 C1366 1.415 . S
C1368 C1373 1.425 . S
C1368 C1375 1.409 . S
C1369 H1361 0.930 . S
C1369 C1367 1.419 . S
C1369 C1370 1.362 . S
C1370 H1362 0.930 . S
C1370 C1369 1.362 . S
C1370 C1373 1.409 . S
C1371 H1363 0.930 . S
C1371 C1372 1.355 . S
C1371 C1373 1.415 . S
C1372 C1371 1.355 . S
C1372 C1374 1.419 . S
C1373 C1368 1.425 . S
C1373 C1370 1.409 . S
C1373 C1371 1.415 . S
C1374 H1364 0.930 . S
C1374 C1372 1.419 . S
C1374 C1375 1.362 . S
C1375 H1365 0.930 . S
C1375 C1368 1.409 . S
C1375 C1374 1.362 . S
H1376 C1382 0.930 . S
H1377 C1385 0.930 . S
H1378 C1386 0.930 . S
H1379 C1387 0.930 . S
H1380 C1390 0.914 1_565 S
H1381 C1391 0.930 . S
C1382 H1376 0.930 . S
C1382 C1383 1.355 . S
C1382 C1384 1.415 . S
C1383 C1382 1.355 . S
C1383 C1385 1.419 . S
C1384 C1382 1.415 . S
C1384 C1389 1.425 . S
C1384 C1391 1.409 . S
C1385 H1377 0.930 . S
C1385 C1383 1.419 . S
C1385 C1386 1.362 . S
C1386 H1378 0.930 . S
C1386 C1385 1.362 . S
C1386 C1389 1.409 . S
C1387 H1379 0.930 . S
C1387 C1388 1.355 . S
C1387 C1389 1.415 . S
C1388 C1387 1.355 . S
C1388 C1390 1.419 . S
C1389 C1384 1.425 . S
C1389 C1386 1.409 . S
C1389 C1387 1.415 . S
C1390 H1380 0.914 1_545 S
C1390 C1388 1.419 . S
C1390 C1391 1.362 . S
C1391 H1381 0.930 . S
C1391 C1384 1.409 . S
C1391 C1390 1.362 . S
H1392 C1398 0.930 . S
H1393 C1401 0.930 . S
H1394 C1402 0.930 . S
H1395 C1403 0.930 . S
H1396 C1406 0.930 . S
H1397 C1407 0.930 . S
C1398 H1392 0.930 . S
C1398 C1399 1.355 . S
C1398 C1400 1.415 . S
C1399 C1398 1.355 . S
C1399 C1401 1.419 . S
C1400 C1398 1.415 . S
C1400 C1405 1.425 . S
C1400 C1407 1.409 . S
C1401 H1393 0.930 . S
C1401 C1399 1.419 . S
C1401 C1402 1.362 . S
C1402 H1394 0.930 . S
C1402 C1401 1.362 . S
C1402 C1405 1.409 . S
C1403 H1395 0.930 . S
C1403 C1404 1.355 . S
C1403 C1405 1.415 . S
C1404 C1403 1.355 . S
C1404 C1406 1.419 . S
C1405 C1400 1.425 . S
C1405 C1402 1.409 . S
C1405 C1403 1.415 . S
C1406 H1396 0.930 . S
C1406 C1404 1.419 . S
C1406 C1407 1.362 . S
C1407 H1397 0.930 . S
C1407 C1400 1.409 . S
C1407 C1406 1.362 . S
H1408 C1414 0.930 . S
H1409 C1417 0.930 . S
H1410 C1418 0.930 . S
H1411 C1419 0.930 . S
H1412 C1422 0.930 . S
H1413 C1423 0.930 . S
C1414 H1408 0.930 . S
C1414 C1415 1.355 . S
C1414 C1416 1.415 . S
C1415 C1414 1.355 . S
C1415 C1417 1.419 . S
C1416 C1414 1.415 . S
C1416 C1421 1.425 . S
C1416 C1423 1.409 . S
C1417 H1409 0.930 . S
C1417 C1415 1.419 . S
C1417 C1418 1.362 . S
C1418 H1410 0.930 . S
C1418 C1417 1.362 . S
C1418 C1421 1.409 . S
C1419 H1411 0.930 . S
C1419 C1420 1.355 . S
C1419 C1421 1.415 . S
C1420 C1419 1.355 . S
C1420 C1422 1.419 . S
C1421 C1416 1.425 . S
C1421 C1418 1.409 . S
C1421 C1419 1.415 . S
C1422 H1412 0.930 . S
C1422 C1420 1.419 . S
C1422 C1423 1.362 . S
C1423 H1413 0.930 . S
C1423 C1416 1.409 . S
C1423 C1422 1.362 . S
H1424 C1430 0.930 . S
H1425 C1433 0.930 . S
H1426 C1434 0.930 . S
H1427 C1435 0.930 . S
H1428 C1438 0.930 . S
H1429 C1439 0.930 . S
C1430 H1424 0.930 . S
C1430 C1431 1.355 . S
C1430 C1432 1.415 . S
C1431 C1430 1.355 . S
C1431 C1433 1.419 . S
C1432 C1430 1.415 . S
C1432 C1437 1.425 . S
C1432 C1439 1.409 . S
C1433 H1425 0.930 . S
C1433 C1431 1.419 . S
C1433 C1434 1.362 . S
C1434 H1426 0.930 . S
C1434 C1433 1.362 . S
C1434 C1437 1.409 . S
C1435 H1427 0.930 . S
C1435 C1436 1.355 . S
C1435 C1437 1.415 . S
C1436 C1435 1.355 . S
C1436 C1438 1.419 . S
C1437 C1432 1.425 . S
C1437 C1434 1.409 . S
C1437 C1435 1.415 . S
C1438 H1428 0.930 . S
C1438 C1436 1.419 . S
C1438 C1439 1.362 . S
C1439 H1429 0.930 . S
C1439 C1432 1.409 . S
C1439 C1438 1.362 . S
C423 C5 1.464 . S
C428 C16 1.486 . S
C439 C42 1.475 . S
C444 C31 1.498 . S
C455 C57 1.468 . S
C460 C68 1.464 . S
C471 C83 1.465 . S
C476 C94 1.466 . S
C487 C109 1.500 . S
C492 C122 1.482 . S
C503 C133 1.484 . S
C508 C146 1.500 . S
C519 C159 1.479 . S
C524 C172 1.461 . S
C535 C185 1.490 . S
C540 C198 1.499 . S
C551 C226 1.461 . S
C556 C211 1.479 . S
C567 C250 1.461 . S
C572 C239 1.474 . S
C583 C276 1.487 . S
C588 C263 1.500 . S
C599 C304 1.491 . S
C604 C289 1.499 . S
C615 C330 1.467 . S
C620 C315 1.465 . S
C631 C356 1.463 . S
C636 C341 1.469 . S
C647 C382 1.498 . S
C652 C367 1.475 . S
C663 C406 1.467 . S
C668 C393 1.464 . S
C679 C4 1.426 . S
C684 C166 1.426 . S
C695 C23 1.425 . S
C700 C283 1.425 . S
C711 C30 1.469 . S
C716 C82 1.469 . S
C727 C49 1.424 . S
C732 C413 1.424 . S
C743 C56 1.474 . S
C748 C108 1.474 . S
C759 C225 1.482 . S
C764 C75 1.482 . S
C775 C355 1.450 . S
C780 C101 1.450 . S
C791 C121 1.444 . S
C796 C381 1.444 . S
C807 C140 1.484 . S
C812 C192 1.484 . S
C823 C153 1.425 . S
C828 C303 1.425 . S
C839 C179 1.440 . S
C844 C329 1.440 . S
C855 C205 1.423 . S
C860 C257 1.423 . S
C871 C374 1.479 . S
C876 C218 1.479 . S
C887 C296 1.471 . S
C892 C238 1.471 . S
C903 C270 1.436 . S
C908 C322 1.436 . S
C919 C400 1.430 . S
C924 C348 1.430 . S
C935 C134 0.907 . S
C940 C10 0.916 . S
C951 C147 0.918 . S
C956 C17 0.919 1_565 S
C967 C36 0.916 1_565 S
C972 C114 0.920 . S
C983 C127 0.895 . S
C988 C43 0.904 . S
C999 C62 0.919 . S
C1004 C186 0.917 . S
C1015 C69 0.918 1_545 S
C1020 C199 0.919 . S
C1031 C160 0.920 . S
C1036 C88 0.916 1_545 S
C1047 C173 0.902 . S
C1052 C95 0.912 . S
C1063 C212 0.915 . S
C1068 C342 0.905 . S
C1079 C361 0.893 . S
C1084 C231 0.899 1_565 S
C1095 C316 0.914 . S
C1100 C244 0.904 1_565 S
C1111 C251 0.893 . S
C1116 C335 0.895 . S
C1127 C394 0.901 . S
C1132 C264 0.911 . S
C1143 C277 0.917 1_545 S
C1148 C407 0.919 . S
C1159 C368 0.896 . S
C1164 C290 0.893 1_545 S
C1175 C387 0.905 . S
C1180 C309 0.896 . S
C1191 C135 1.719 . S
C1196 C3 1.707 1_565 S
C1207 C148 1.703 . S
C1212 C18 1.711 . S
C1223 C107 1.703 . S
C1228 C29 1.717 . S
C1239 C44 1.703 1_565 S
C1244 C120 1.714 . S
C1255 C187 1.719 . S
C1260 C55 1.705 1_545 S
C1271 C200 1.707 . S
C1276 C70 1.719 . S
C1287 C161 1.717 . S
C1292 C81 1.703 . S
C1303 C174 1.709 . S
C1308 C96 1.704 1_545 S
C1319 C343 1.714 . S
C1324 C213 1.717 1_565 S
C1335 C354 1.704 . S
C1340 C224 1.709 . S
C1351 C317 1.708 . S
C1356 C237 1.705 . S
C1367 C252 1.703 1_565 S
C1372 C328 1.715 . S
C1383 C395 1.710 . S
C1388 C265 1.703 1_545 S
C1399 C278 1.719 . S
C1404 C408 1.705 . S
C1415 C369 1.719 . S
C1420 C291 1.707 . S
C1431 C302 1.718 1_545 S
C1436 C380 1.714 . S
