# Generated by pormake.
# Topology sra, (4)-cn, num edge types: 1
# Building blocks:
#     Node 0, Type 0, BuildingBlock: CEKHIL_clean_sbu_0, # of connection points: 4
#     Node 1, Type 0, BuildingBlock: CEKHIL_clean_sbu_0, # of connection points: 4
#     Node 2, Type 0, BuildingBlock: CEKHIL_clean_sbu_0, # of connection points: 4
#     Node 3, Type 0, BuildingBlock: CEKHIL_clean_sbu_0, # of connection points: 4
#     Node 4, Type 0, BuildingBlock: CEKHIL_clean_sbu_0, # of connection points: 4
#     Node 5, Type 0, BuildingBlock: CEKHIL_clean_sbu_0, # of connection points: 4
#     Node 6, Type 0, BuildingBlock: CEKHIL_clean_sbu_0, # of connection points: 4
#     Node 7, Type 0, BuildingBlock: CEKHIL_clean_sbu_0, # of connection points: 4
#     Edge 8, Type (0, 0), BuildingBlock: ZUJKAS_clean_linker_0, # of connection points: 2
#     Edge 9, Type (0, 0), BuildingBlock: ZUJKAS_clean_linker_0, # of connection points: 2
#     Edge 10, Type (0, 0), BuildingBlock: ZUJKAS_clean_linker_0, # of connection points: 2
#     Edge 11, Type (0, 0), BuildingBlock: ZUJKAS_clean_linker_0, # of connection points: 2
#     Edge 12, Type (0, 0), BuildingBlock: ZUJKAS_clean_linker_0, # of connection points: 2
#     Edge 13, Type (0, 0), BuildingBlock: ZUJKAS_clean_linker_0, # of connection points: 2
#     Edge 14, Type (0, 0), BuildingBlock: ZUJKAS_clean_linker_0, # of connection points: 2
#     Edge 15, Type (0, 0), BuildingBlock: ZUJKAS_clean_linker_0, # of connection points: 2
#     Edge 16, Type (0, 0), BuildingBlock: ZUJKAS_clean_linker_0, # of connection points: 2
#     Edge 17, Type (0, 0), BuildingBlock: ZUJKAS_clean_linker_0, # of connection points: 2
#     Edge 18, Type (0, 0), BuildingBlock: ZUJKAS_clean_linker_0, # of connection points: 2
#     Edge 19, Type (0, 0), BuildingBlock: ZUJKAS_clean_linker_0, # of connection points: 2
#     Edge 20, Type (0, 0), BuildingBlock: ZUJKAS_clean_linker_0, # of connection points: 2
#     Edge 21, Type (0, 0), BuildingBlock: ZUJKAS_clean_linker_0, # of connection points: 2
#     Edge 22, Type (0, 0), BuildingBlock: ZUJKAS_clean_linker_0, # of connection points: 2
#     Edge 23, Type (0, 0), BuildingBlock: ZUJKAS_clean_linker_0, # of connection points: 2
# Relax obj value: 0.033
# Max RMSD: 0.069
# Mean RMSD: 0.069
data_MOF--net-sra--node1-CEKHIL_clean_sbu_0--edge1-ZUJKAS_clean_linker_0
_symmetry_space_group_name_H-M    P1
_symmetry_Int_Tables_number       1
_symmetry_cell_setting            triclinic
loop_
_symmetry_equiv_pos_as_xyz
'x, y, z'
_cell_length_a     35.285381
_cell_length_b     68.34135
_cell_length_c     40.391622
_cell_angle_alpha  89.982134
_cell_angle_beta   90.002004
_cell_angle_gamma 90.000509
loop_
_atom_site_label
_atom_site_type_symbol
_atom_site_fract_x
_atom_site_fract_y
_atom_site_fract_z
_atom_type_partial_charge
Co0 Co 0.01888 0.1081 0.15417 0.0
O1 O 0.02061 0.08033 0.14642 0.0
O2 O -0.00166 0.10199 0.11067 0.0
C3 C 0.07836 0.11034 0.17434 0.0
O4 O 0.01481 0.13811 0.15297 0.0
Co5 Co 0.02792 0.12472 0.22565 0.0
O6 O 0.0357 0.14967 0.20182 0.0
C7 C 0.95441 0.10832 0.20453 0.0
C8 C 0.0062 0.08382 0.11751 0.0
C9 C 0.02503 0.15236 0.17202 0.0
O10 O 0.96687 0.10559 0.17491 0.0
O11 O 0.97464 0.11489 0.22834 0.0
O12 O 0.07263 0.11017 0.14255 0.0
O13 O 0.04873 0.10754 0.19239 0.0
Co14 Co 0.00188 0.40045 0.15226 0.0
O15 O 0.0022 0.42834 0.14551 0.0
O16 O 0.0251 0.40676 0.10994 0.0
C17 C 0.94131 0.39886 0.16956 0.0
O18 O 0.00442 0.37045 0.14986 0.0
Co19 Co 0.98809 0.38281 0.22224 0.0
O20 O 0.98045 0.35826 0.19716 0.0
C21 C 0.06337 0.39892 0.20544 0.0
C22 C 0.01784 0.42496 0.11703 0.0
C23 C 0.99228 0.35603 0.1676 0.0
O24 O 0.05279 0.40184 0.17529 0.0
O25 O 0.04118 0.39256 0.22809 0.0
O26 O 0.94883 0.39941 0.13811 0.0
O27 O 0.96978 0.40094 0.18924 0.0
Co28 Co 0.02142 0.90044 0.84732 0.0
O29 O 0.02362 0.92804 0.85636 0.0
O30 O 0.00045 0.90597 0.89093 0.0
C31 C 0.08105 0.89809 0.82752 0.0
O32 O 0.01668 0.87049 0.84672 0.0
Co33 Co 0.0305 0.88577 0.77456 0.0
O34 O 0.03427 0.85984 0.79623 0.0
C35 C 0.95928 0.90449 0.79558 0.0
C36 C 0.00871 0.92421 0.88495 0.0
C37 C 0.02466 0.8566 0.82618 0.0
O38 O 0.9698 0.90362 0.82611 0.0
O39 O 0.98098 0.89992 0.77138 0.0
O40 O 0.07513 0.89782 0.85929 0.0
O41 O 0.05164 0.9015 0.80956 0.0
Co42 Co 0.00216 0.60819 0.84775 0.0
O43 O 0.00146 0.58034 0.85491 0.0
O44 O 0.0246 0.60191 0.8904 0.0
C45 C 0.9419 0.61008 0.82932 0.0
O46 O 0.00565 0.63814 0.84969 0.0
Co47 Co 0.98975 0.62578 0.77748 0.0
O48 O 0.98027 0.65015 0.80281 0.0
C49 C 0.06352 0.60793 0.79473 0.0
C50 C 0.01695 0.58374 0.88344 0.0
C51 C 0.99272 0.65246 0.83217 0.0
O52 O 0.05319 0.60624 0.82523 0.0
O53 O 0.04136 0.61401 0.77182 0.0
O54 O 0.94875 0.60976 0.86095 0.0
O55 O 0.97099 0.60779 0.81044 0.0
Co56 Co 0.51749 0.60784 0.65398 0.0
O57 O 0.51707 0.58016 0.64529 0.0
O58 O 0.4984 0.60274 0.6096 0.0
C59 C 0.57639 0.60885 0.67573 0.0
O60 O 0.51534 0.63787 0.65432 0.0
Co61 Co 0.52466 0.62236 0.72698 0.0
O62 O 0.53026 0.6483 0.7056 0.0
C63 C 0.45354 0.60452 0.70376 0.0
C64 C 0.5039 0.58429 0.61616 0.0
C65 C 0.52263 0.65166 0.67525 0.0
O66 O 0.46479 0.60588 0.67349 0.0
O67 O 0.47485 0.60836 0.72858 0.0
O68 O 0.57182 0.60915 0.6438 0.0
O69 O 0.54598 0.60614 0.69274 0.0
Co70 Co 0.50608 0.90094 0.65396 0.0
O71 O 0.50652 0.92883 0.64732 0.0
O72 O 0.52675 0.90726 0.61062 0.0
C73 C 0.44651 0.89954 0.67407 0.0
O74 O 0.5083 0.87095 0.65171 0.0
Co75 Co 0.49572 0.88347 0.72465 0.0
O76 O 0.48525 0.85909 0.69965 0.0
C77 C 0.56904 0.90103 0.70534 0.0
C78 C 0.52054 0.9255 0.6182 0.0
C79 C 0.49616 0.85669 0.66983 0.0
O80 O 0.558 0.90228 0.67497 0.0
O81 O 0.54735 0.89543 0.72893 0.0
O82 O 0.45219 0.89997 0.64228 0.0
O83 O 0.47635 0.90154 0.69213 0.0
Co84 Co 0.51901 0.39989 0.34917 0.0
O85 O 0.51749 0.42787 0.35499 0.0
O86 O 0.49928 0.4064 0.3927 0.0
C87 C 0.57819 0.39905 0.32798 0.0
O88 O 0.51805 0.3699 0.35267 0.0
Co89 Co 0.52861 0.38124 0.27951 0.0
O90 O 0.54131 0.35749 0.30531 0.0
C91 C 0.45378 0.3966 0.30002 0.0
C92 C 0.50438 0.42463 0.38449 0.0
C93 C 0.53065 0.35545 0.33525 0.0
O94 O 0.46639 0.40042 0.32926 0.0
O95 O 0.47444 0.38984 0.2766 0.0
O96 O 0.57315 0.39961 0.35984 0.0
O97 O 0.54789 0.40043 0.31028 0.0
Co98 Co 0.50344 0.10819 0.34788 0.0
O99 O 0.50329 0.08038 0.35531 0.0
O100 O 0.52389 0.10219 0.39145 0.0
C101 C 0.44396 0.10974 0.32752 0.0
O102 O 0.50613 0.13822 0.34926 0.0
Co103 Co 0.49398 0.12474 0.27643 0.0
O104 O 0.48602 0.14975 0.3001 0.0
C105 C 0.56706 0.10747 0.29691 0.0
C106 C 0.51739 0.08391 0.38434 0.0
C107 C 0.49597 0.15244 0.33011 0.0
O108 O 0.55554 0.1063 0.32714 0.0
O109 O 0.54577 0.11299 0.27299 0.0
O110 O 0.44949 0.10956 0.35933 0.0
O111 O 0.47383 0.10735 0.30964 0.0
H112 H 0.95478 0.32428 0.19161 0.0
H113 H 0.96175 0.29025 0.17535 0.0
H114 H 0.03853 0.30715 0.09737 0.0
H115 H 0.0322 0.34162 0.114 0.0
H116 H 0.94955 0.26953 0.11695 0.0
H117 H 0.10181 0.26927 0.15357 0.0
H118 H 0.07052 0.28917 0.16416 0.0
H119 H 0.08757 0.28663 0.1225 0.0
C120 C 0.97305 0.32089 0.17084 0.0
C121 C 0.99345 0.33572 0.15447 0.0
C122 C 0.97679 0.30136 0.16142 0.0
C123 C 0.00106 0.29607 0.13546 0.0
C124 C 0.02008 0.31087 0.11784 0.0
H125 H 0.00716 0.16635 0.10946 0.0
H126 H 0.00353 0.2008 0.09188 0.0
C127 C 0.01627 0.33057 0.12725 0.0
C128 C 0.00798 0.27493 0.12912 0.0
H129 H 0.0737 0.23908 0.14234 0.0
C130 C 0.97687 0.26284 0.12176 0.0
C131 C 0.04363 0.26625 0.13559 0.0
C132 C 0.07785 0.27839 0.1446 0.0
C133 C 0.97986 0.24231 0.12279 0.0
C134 C 0.01508 0.23365 0.13094 0.0
C135 C 0.04675 0.24575 0.13603 0.0
C136 C 0.01838 0.2126 0.13991 0.0
C137 C 0.94473 0.23011 0.11754 0.0
C138 C 0.02867 0.20777 0.1724 0.0
C139 C 0.03109 0.1883 0.18235 0.0
C140 C 0.02319 0.17297 0.1601 0.0
C141 C 0.01324 0.17776 0.1273 0.0
C142 C 0.01099 0.19744 0.11725 0.0
H143 H 0.9187 0.23921 0.11589 0.0
H144 H 0.94755 0.22174 0.09415 0.0
H145 H 0.94122 0.21945 0.13807 0.0
H146 H 0.03436 0.21916 0.19039 0.0
H147 H 0.0388 0.18535 0.20782 0.0
H148 H 0.01432 0.84151 0.88922 0.0
H149 H 0.01199 0.80676 0.90525 0.0
H150 H 0.02625 0.79009 0.8031 0.0
H151 H 0.02903 0.82424 0.787 0.0
H152 H 0.96217 0.77674 0.88439 0.0
H153 H 0.10942 0.75887 0.84914 0.0
H154 H 0.09336 0.78375 0.85482 0.0
H155 H 0.0849 0.77119 0.81631 0.0
C156 C 0.01707 0.83042 0.87023 0.0
C157 C 0.02228 0.83577 0.83685 0.0
C158 C 0.01577 0.81058 0.87944 0.0
C159 C 0.01988 0.79583 0.85545 0.0
C160 C 0.02416 0.80118 0.82218 0.0
H161 H 0.94833 0.68311 0.81385 0.0
H162 H 0.9551 0.71738 0.82924 0.0
C163 C 0.02554 0.82083 0.81301 0.0
C164 C 0.01855 0.77471 0.86424 0.0
H165 H 0.06517 0.73177 0.84966 0.0
C166 C 0.98501 0.76693 0.87754 0.0
C167 C 0.04859 0.76188 0.85594 0.0
C168 C 0.08624 0.76938 0.84359 0.0
C169 C 0.97963 0.74658 0.88011 0.0
C170 C 0.0083 0.73375 0.86872 0.0
C171 C 0.04298 0.74157 0.85806 0.0
C172 C 0.00129 0.71252 0.8635 0.0
C173 C 0.94281 0.73899 0.89404 0.0
C174 C 0.02503 0.69825 0.87764 0.0
C175 C 0.02114 0.67847 0.86888 0.0
C176 C 0.99401 0.67274 0.84527 0.0
C177 C 0.96964 0.68702 0.83199 0.0
C178 C 0.97323 0.70664 0.84102 0.0
H179 H 0.93009 0.74964 0.9116 0.0
H180 H 0.92238 0.73674 0.8735 0.0
H181 H 0.94692 0.72481 0.90698 0.0
H182 H 0.04716 0.70249 0.89478 0.0
H183 H 0.04047 0.66784 0.87939 0.0
H184 H 0.52521 0.68389 0.71484 0.0
H185 H 0.52278 0.71809 0.69906 0.0
H186 H 0.51509 0.70178 0.59617 0.0
H187 H 0.51686 0.66699 0.6119 0.0
H188 H 0.57227 0.73885 0.65934 0.0
H189 H 0.42588 0.73988 0.60764 0.0
H190 H 0.44312 0.71976 0.63239 0.0
H191 H 0.45882 0.72257 0.5904 0.0
C192 C 0.52302 0.68739 0.68876 0.0
C193 C 0.52124 0.67254 0.66465 0.0
C194 C 0.52167 0.70707 0.67978 0.0
C195 C 0.51855 0.71257 0.64647 0.0
C196 C 0.51695 0.69789 0.6221 0.0
H197 H 0.54076 0.84112 0.62036 0.0
H198 H 0.54728 0.80632 0.60577 0.0
C199 C 0.51812 0.67801 0.63113 0.0
C200 C 0.51715 0.73379 0.63822 0.0
H201 H 0.45647 0.77012 0.61419 0.0
C202 C 0.54729 0.74568 0.64878 0.0
C203 C 0.48446 0.74268 0.62458 0.0
C204 C 0.45103 0.73067 0.61321 0.0
C205 C 0.54478 0.76619 0.64791 0.0
C206 C 0.51143 0.7751 0.63563 0.0
C207 C 0.4821 0.76323 0.62337 0.0
C208 C 0.50438 0.79637 0.64017 0.0
C209 C 0.57671 0.77817 0.66232 0.0
C210 C 0.47723 0.80235 0.66339 0.0
C211 C 0.47359 0.82206 0.67182 0.0
C212 C 0.49682 0.83633 0.65701 0.0
C213 C 0.52248 0.83049 0.63223 0.0
C214 C 0.52636 0.81062 0.62399 0.0
H215 H 0.59856 0.76892 0.67446 0.0
H216 H 0.59057 0.78669 0.6423 0.0
H217 H 0.56555 0.78873 0.68081 0.0
H218 H 0.45993 0.79162 0.67614 0.0
H219 H 0.45323 0.82605 0.69071 0.0
H220 H 0.48962 0.34087 0.38791 0.0
H221 H 0.4839 0.30642 0.40474 0.0
H222 H 0.56458 0.29007 0.32948 0.0
H223 H 0.57077 0.32411 0.31298 0.0
H224 H 0.45738 0.27719 0.36596 0.0
H225 H 0.60155 0.25756 0.40619 0.0
H226 H 0.5862 0.28268 0.4024 0.0
H227 H 0.60329 0.26951 0.36672 0.0
C228 C 0.5068 0.32997 0.37554 0.0
C229 C 0.53053 0.33527 0.349 0.0
C230 C 0.50344 0.31028 0.38512 0.0
C231 C 0.52423 0.29563 0.36872 0.0
C232 C 0.54892 0.30107 0.34311 0.0
H233 H 0.47585 0.18531 0.29611 0.0
H234 H 0.47998 0.21912 0.31362 0.0
C235 C 0.55212 0.3206 0.33344 0.0
C236 C 0.5173 0.27447 0.37521 0.0
H237 H 0.56395 0.23088 0.38266 0.0
C238 C 0.48055 0.26711 0.37047 0.0
C239 C 0.54722 0.26122 0.38181 0.0
C240 C 0.58667 0.2682 0.38994 0.0
C241 C 0.47362 0.24688 0.36921 0.0
C242 C 0.50435 0.23364 0.37207 0.0
C243 C 0.54045 0.24097 0.37982 0.0
C244 C 0.50049 0.21263 0.36289 0.0
C245 C 0.43354 0.23992 0.36368 0.0
C246 C 0.51171 0.19752 0.38442 0.0
C247 C 0.50976 0.17786 0.37428 0.0
C248 C 0.4969 0.17302 0.34229 0.0
C249 C 0.48571 0.1883 0.321 0.0
C250 C 0.48771 0.20777 0.33108 0.0
H251 H 0.41276 0.25038 0.37434 0.0
H252 H 0.428 0.239 0.33668 0.0
H253 H 0.42873 0.22527 0.3748 0.0
H254 H 0.5221 0.20094 0.40898 0.0
H255 H 0.51874 0.16653 0.39129 0.0
H256 H 0.37516 0.11327 0.35855 0.0
H257 H 0.31262 0.11582 0.33214 0.0
H258 H 0.36566 0.11542 0.23596 0.0
H259 H 0.42782 0.11263 0.26193 0.0
H260 H 0.28315 0.1441 0.2859 0.0
H261 H 0.29046 0.06931 0.2325 0.0
H262 H 0.32181 0.07747 0.265 0.0
H263 H 0.33041 0.08455 0.2228 0.0
C264 C 0.37342 0.11381 0.33179 0.0
C265 C 0.40631 0.11256 0.3123 0.0
C266 C 0.33777 0.11529 0.31678 0.0
C267 C 0.3346 0.11547 0.28213 0.0
C268 C 0.3675 0.11492 0.26272 0.0
H269 H 0.14676 0.11344 0.14281 0.0
H270 H 0.20944 0.11664 0.16859 0.0
C271 C 0.403 0.1134 0.27764 0.0
C272 C 0.29696 0.11576 0.26602 0.0
H273 H 0.23957 0.08934 0.21476 0.0
C274 C 0.27349 0.13212 0.27044 0.0
C275 C 0.28457 0.10009 0.24586 0.0
C276 C 0.30793 0.08177 0.24142 0.0
C277 C 0.23806 0.13336 0.25472 0.0
C278 C 0.22579 0.11772 0.23447 0.0
C279 C 0.24928 0.10138 0.23008 0.0
C280 C 0.18794 0.11751 0.21875 0.0
C281 C 0.2143 0.15149 0.25947 0.0
C282 C 0.15527 0.11693 0.23845 0.0
C283 C 0.11962 0.11502 0.22386 0.0
C284 C 0.11601 0.1136 0.18927 0.0
C285 C 0.1487 0.11455 0.1695 0.0
C286 C 0.18445 0.11637 0.18417 0.0
H287 H 0.23154 0.16403 0.26842 0.0
H288 H 0.20009 0.15575 0.23602 0.0
H289 H 0.19202 0.14848 0.27819 0.0
H290 H 0.15741 0.1174 0.26519 0.0
H291 H 0.09496 0.1143 0.23977 0.0
H292 H 0.64489 0.38806 0.35742 0.0
H293 H 0.70728 0.38513 0.33105 0.0
H294 H 0.65866 0.40277 0.23766 0.0
H295 H 0.59633 0.40494 0.26347 0.0
H296 H 0.70657 0.3732 0.22914 0.0
H297 H 0.77512 0.43006 0.30705 0.0
H298 H 0.756 0.4099 0.33008 0.0
H299 H 0.72467 0.42586 0.30759 0.0
C300 C 0.64762 0.39129 0.33127 0.0
C301 C 0.61586 0.39687 0.31254 0.0
C302 C 0.68328 0.38972 0.31627 0.0
C303 C 0.68782 0.39412 0.2825 0.0
C304 C 0.65591 0.39935 0.26375 0.0
H305 H 0.89002 0.42777 0.17712 0.0
H306 H 0.82772 0.42553 0.20398 0.0
C307 C 0.6203 0.40063 0.27856 0.0
C308 C 0.72563 0.39351 0.26639 0.0
H309 H 0.81422 0.41359 0.26862 0.0
C310 C 0.73014 0.382 0.23783 0.0
C311 C 0.75626 0.40516 0.27753 0.0
C312 C 0.75279 0.41859 0.30705 0.0
C313 C 0.76425 0.38197 0.21993 0.0
C314 C 0.79494 0.39343 0.23132 0.0
C315 C 0.79062 0.40477 0.26004 0.0
C316 C 0.83148 0.39439 0.21334 0.0
C317 C 0.76675 0.37018 0.18843 0.0
C318 C 0.85407 0.37761 0.20956 0.0
C319 C 0.88949 0.37891 0.19418 0.0
C320 C 0.90267 0.39697 0.1824 0.0
C321 C 0.87998 0.41367 0.18571 0.0
C322 C 0.84464 0.4124 0.20116 0.0
H323 H 0.73825 0.36618 0.17886 0.0
H324 H 0.78214 0.3784 0.16889 0.0
H325 H 0.78254 0.35645 0.19338 0.0
H326 H 0.84474 0.36364 0.21923 0.0
H327 H 0.90679 0.36589 0.19199 0.0
H328 H 0.15021 0.89689 0.85837 0.0
H329 H 0.21266 0.89465 0.83173 0.0
H330 H 0.15872 0.88955 0.73631 0.0
H331 H 0.09667 0.89222 0.76245 0.0
H332 H 0.24555 0.8661 0.79021 0.0
H333 H 0.22786 0.93688 0.72455 0.0
H334 H 0.19708 0.92934 0.75786 0.0
H335 H 0.19044 0.9197 0.71685 0.0
C336 C 0.15176 0.89517 0.83174 0.0
C337 C 0.11864 0.89497 0.81244 0.0
C338 C 0.18736 0.89389 0.81659 0.0
C339 C 0.19022 0.89236 0.782 0.0
C340 C 0.15712 0.89122 0.76294 0.0
H341 H 0.3785 0.89423 0.64255 0.0
H342 H 0.31592 0.8906 0.66838 0.0
C343 C 0.12168 0.89266 0.77797 0.0
C344 C 0.22771 0.89247 0.76558 0.0
H345 H 0.28129 0.91782 0.70978 0.0
C346 C 0.25348 0.87741 0.7727 0.0
C347 C 0.23786 0.90727 0.74272 0.0
C348 C 0.21203 0.92432 0.73522 0.0
C349 C 0.28902 0.8766 0.75713 0.0
C350 C 0.29912 0.8914 0.73426 0.0
C351 C 0.2733 0.90641 0.72711 0.0
C352 C 0.33702 0.89221 0.71864 0.0
C353 C 0.31522 0.85977 0.76495 0.0
C354 C 0.36943 0.89441 0.73834 0.0
C355 C 0.405 0.89647 0.72372 0.0
C356 C 0.40883 0.89653 0.68907 0.0
C357 C 0.37639 0.8942 0.66931 0.0
C358 C 0.34071 0.89212 0.68401 0.0
H359 H 0.29948 0.84702 0.77505 0.0
H360 H 0.33108 0.85504 0.74259 0.0
H361 H 0.33605 0.8645 0.78391 0.0
H362 H 0.36712 0.895 0.76506 0.0
H363 H 0.42944 0.89834 0.73963 0.0
H364 H 0.64639 0.6109 0.6466 0.0
H365 H 0.70795 0.61351 0.67457 0.0
H366 H 0.65136 0.61621 0.76911 0.0
H367 H 0.59012 0.61317 0.74156 0.0
H368 H 0.73732 0.64221 0.71716 0.0
H369 H 0.72441 0.57058 0.78116 0.0
H370 H 0.69356 0.57769 0.74762 0.0
H371 H 0.68562 0.58697 0.78869 0.0
C372 C 0.64714 0.61209 0.67333 0.0
C373 C 0.61351 0.61163 0.69192 0.0
C374 C 0.68225 0.6136 0.68925 0.0
C375 C 0.68418 0.61466 0.72394 0.0
C376 C 0.65054 0.61492 0.74239 0.0
H377 H 0.87457 0.61448 0.86246 0.0
H378 H 0.81112 0.61766 0.83801 0.0
C379 C 0.61555 0.61329 0.72656 0.0
C380 C 0.72132 0.61525 0.74096 0.0
H381 H 0.77663 0.5904 0.79614 0.0
C382 C 0.74598 0.63088 0.73441 0.0
C383 C 0.73243 0.60047 0.76353 0.0
C384 C 0.70781 0.58288 0.77051 0.0
C385 C 0.78143 0.63221 0.75002 0.0
C386 C 0.79263 0.61735 0.77236 0.0
C387 C 0.7678 0.60184 0.77919 0.0
C388 C 0.83093 0.61688 0.78731 0.0
C389 C 0.80644 0.64958 0.74265 0.0
C390 C 0.86289 0.61529 0.7669 0.0
C391 C 0.89892 0.61347 0.78072 0.0
C392 C 0.9037 0.61305 0.81528 0.0
C393 C 0.87172 0.61481 0.83577 0.0
C394 C 0.83554 0.61663 0.82186 0.0
H395 H 0.78973 0.66221 0.7333 0.0
H396 H 0.82237 0.65424 0.76501 0.0
H397 H 0.82723 0.6455 0.72323 0.0
H398 H 0.8599 0.61497 0.74022 0.0
H399 H 0.92297 0.61204 0.76424 0.0
H400 H 0.60104 0.9026 0.76686 0.0
H401 H 0.66725 0.90792 0.7809 0.0
H402 H 0.6943 0.91531 0.67756 0.0
H403 H 0.62774 0.90974 0.66298 0.0
H404 H 0.74015 0.88829 0.71058 0.0
H405 H 0.73164 0.95761 0.78147 0.0
H406 H 0.6989 0.93926 0.79539 0.0
H407 H 0.69408 0.94935 0.75448 0.0
C408 C 0.62084 0.90555 0.747 0.0
C409 C 0.60896 0.90567 0.7137 0.0
C410 C 0.65872 0.90877 0.75518 0.0
C411 C 0.68554 0.91233 0.73034 0.0
C412 C 0.67388 0.91276 0.69711 0.0
H413 H 0.93116 0.91574 0.73569 0.0
H414 H 0.86487 0.91963 0.72004 0.0
C415 C 0.63585 0.90957 0.68885 0.0
C416 C 0.72616 0.9139 0.73907 0.0
H417 H 0.78902 0.93922 0.78707 0.0
C418 C 0.75097 0.89957 0.72694 0.0
C419 C 0.74001 0.92852 0.76072 0.0
C420 C 0.71485 0.94467 0.77356 0.0
C421 C 0.78911 0.89913 0.73658 0.0
C422 C 0.80293 0.91365 0.75844 0.0
C423 C 0.77825 0.92812 0.77035 0.0
C424 C 0.84302 0.91388 0.76909 0.0
C425 C 0.81404 0.88277 0.72408 0.0
C426 C 0.8527 0.91035 0.80227 0.0
C427 C 0.89075 0.90824 0.81146 0.0
C428 C 0.91956 0.90959 0.7875 0.0
C429 C 0.90967 0.91429 0.75468 0.0
C430 C 0.8718 0.91649 0.74563 0.0
H431 H 0.79715 0.87036 0.71416 0.0
H432 H 0.83228 0.88837 0.7038 0.0
H433 H 0.83276 0.8772 0.74407 0.0
H434 H 0.83077 0.90842 0.82076 0.0
H435 H 0.89742 0.90469 0.83694 0.0
H436 H 0.39158 0.60876 0.66329 0.0
H437 H 0.3248 0.60485 0.67898 0.0
H438 H 0.35882 0.58467 0.77569 0.0
H439 H 0.42524 0.58892 0.76058 0.0
H440 H 0.28075 0.57329 0.70357 0.0
H441 H 0.29466 0.63293 0.79625 0.0
H442 H 0.33034 0.62822 0.76527 0.0
H443 H 0.32755 0.61315 0.80169 0.0
C444 C 0.38479 0.60323 0.68771 0.0
C445 C 0.41361 0.59948 0.71089 0.0
C446 C 0.34669 0.60103 0.69665 0.0
C447 C 0.33696 0.59494 0.72877 0.0
C448 C 0.36574 0.58989 0.75109 0.0
H449 H 0.12098 0.5942 0.83455 0.0
H450 H 0.18714 0.58841 0.81892 0.0
C451 C 0.40368 0.59228 0.74235 0.0
C452 C 0.2969 0.59491 0.73965 0.0
H453 H 0.23616 0.61626 0.79462 0.0
C454 C 0.27094 0.58265 0.72348 0.0
C455 C 0.28427 0.60714 0.7657 0.0
C456 C 0.31053 0.62124 0.78308 0.0
C457 C 0.2326 0.58223 0.73281 0.0
C458 C 0.21993 0.59462 0.7586 0.0
C459 C 0.24603 0.60667 0.77503 0.0
C460 C 0.17937 0.59641 0.76752 0.0
C461 C 0.2061 0.56842 0.71512 0.0
C462 C 0.1532 0.6029 0.74386 0.0
C463 C 0.11553 0.60621 0.75263 0.0
C464 C 0.1032 0.6033 0.78544 0.0
C465 C 0.12944 0.59659 0.80909 0.0
C466 C 0.16724 0.59324 0.80021 0.0
H467 H 0.2217 0.55594 0.70392 0.0
H468 H 0.18418 0.56257 0.7322 0.0
H469 H 0.19159 0.5764 0.69484 0.0
H470 H 0.16213 0.60595 0.71872 0.0
H471 H 0.09629 0.61146 0.73373 0.0
H472 H 0.60549 0.11688 0.24071 0.0
H473 H 0.67129 0.11034 0.22742 0.0
H474 H 0.68561 0.08067 0.32089 0.0
H475 H 0.6194 0.08782 0.33507 0.0
H476 H 0.74221 0.10415 0.31086 0.0
H477 H 0.72314 0.06232 0.19585 0.0
H478 H 0.69806 0.085 0.19229 0.0
H479 H 0.68415 0.06745 0.22342 0.0
C480 C 0.62236 0.10876 0.25842 0.0
C481 C 0.60703 0.10279 0.28895 0.0
C482 C 0.66003 0.10485 0.25057 0.0
C483 C 0.6832 0.09449 0.27267 0.0
C484 C 0.66811 0.08847 0.30324 0.0
H485 H 0.91455 0.07436 0.1964 0.0
H486 H 0.84956 0.06781 0.21565 0.0
C487 C 0.63033 0.09261 0.31136 0.0
C488 C 0.72388 0.09158 0.26462 0.0
H489 H 0.78289 0.08026 0.20047 0.0
C490 C 0.75114 0.09853 0.28699 0.0
C491 C 0.73588 0.08373 0.23391 0.0
C492 C 0.70869 0.074 0.21025 0.0
C493 C 0.78966 0.09918 0.27851 0.0
C494 C 0.80102 0.09351 0.24625 0.0
C495 C 0.77418 0.08515 0.22486 0.0
C496 C 0.83991 0.09727 0.23366 0.0
C497 C 0.81759 0.10613 0.30426 0.0
C498 C 0.85555 0.11611 0.23623 0.0
C499 C 0.89262 0.11967 0.22601 0.0
C500 C 0.91427 0.10468 0.21178 0.0
C501 C 0.89813 0.08612 0.20725 0.0
C502 C 0.86119 0.08239 0.21835 0.0
H503 H 0.80764 0.10246 0.32962 0.0
H504 H 0.84604 0.09955 0.30057 0.0
H505 H 0.82013 0.1223 0.30283 0.0
H506 H 0.83922 0.12806 0.2465 0.0
H507 H 0.90451 0.13416 0.22935 0.0
H508 H 0.11423 0.42475 0.17809 0.0
H509 H 0.18042 0.42993 0.19468 0.0
H510 H 0.16913 0.38483 0.26888 0.0
H511 H 0.10298 0.38042 0.25372 0.0
H512 H 0.20648 0.41384 0.29367 0.0
H513 H 0.26844 0.39683 0.1706 0.0
H514 H 0.23692 0.4174 0.17039 0.0
H515 H 0.21887 0.39335 0.17946 0.0
C516 C 0.12601 0.41598 0.19792 0.0
C517 C 0.10347 0.40217 0.21457 0.0
C518 C 0.16388 0.41886 0.20727 0.0
C519 C 0.18008 0.40754 0.2327 0.0
C520 C 0.15739 0.39381 0.24929 0.0
H521 H 0.40891 0.37352 0.26242 0.0
H522 H 0.34264 0.37857 0.24777 0.0
C523 C 0.11952 0.39126 0.24052 0.0
C524 C 0.22061 0.40957 0.2423 0.0
H525 H 0.31094 0.40536 0.21298 0.0
C526 C 0.22937 0.41202 0.276 0.0
C527 C 0.25049 0.40716 0.21927 0.0
C528 C 0.24332 0.40336 0.18298 0.0
C529 C 0.26688 0.41118 0.28756 0.0
C530 C 0.29675 0.4087 0.26454 0.0
C531 C 0.28808 0.40724 0.23065 0.0
C532 C 0.3368 0.40573 0.27496 0.0
C533 C 0.27371 0.41186 0.32444 0.0
C534 C 0.35575 0.41918 0.29552 0.0
C535 C 0.39353 0.41595 0.3048 0.0
C536 C 0.41324 0.39959 0.29271 0.0
C537 C 0.39439 0.3863 0.27197 0.0
C538 C 0.35654 0.38923 0.26349 0.0
H539 H 0.24758 0.40846 0.33867 0.0
H540 H 0.29612 0.40135 0.33191 0.0
H541 H 0.28296 0.42681 0.3315 0.0
H542 H 0.3416 0.4323 0.30399 0.0
H543 H 0.40769 0.42654 0.32046 0.0
H544 H 0.04818 0.05084 0.11266 0.0
H545 H 0.04202 0.02429 0.07279 0.0
H546 H 0.94506 0.05306 0.02937 0.0
H547 H 0.95307 0.08048 0.06803 0.0
H548 H 0.99241 0.99852 0.06248 0.0
H549 H 0.00067 0.04236 0.94726 0.0
H550 H 0.00937 0.05291 0.98738 0.0
H551 H 0.96153 0.04931 0.97294 0.0
C552 C 0.02569 0.05158 0.09444 0.0
C553 C 0.00126 0.06778 0.09327 0.0
C554 C 0.02208 0.03633 0.07165 0.0
C555 C 0.99342 0.03665 0.0475 0.0
C556 C 0.96823 0.05265 0.04689 0.0
H557 H 0.95828 0.92579 0.93691 0.0
H558 H 0.94949 0.95284 0.97622 0.0
C559 C 0.97258 0.06827 0.06917 0.0
C560 C 0.99023 0.02004 0.02353 0.0
H561 H 0.98708 0.00875 0.94116 0.0
C562 C 0.99135 1.0008 0.03592 0.0
C563 C 0.98903 0.02287 0.98878 0.0
C564 C 0.99047 0.04296 0.97327 0.0
C565 C 0.99264 0.98445 0.01479 0.0
C566 C 0.99079 0.98727 0.98007 0.0
C567 C 0.98834 0.00649 0.96771 0.0
C568 C 0.99452 0.9708 0.95593 0.0
C569 C -0.002 0.96447 0.03004 0.0
C570 C 0.02161 0.97206 0.93052 0.0
C571 C 0.02572 0.95697 0.90753 0.0
C572 C 0.00333 0.94001 0.90961 0.0
C573 C 0.97622 0.9386 0.93497 0.0
C574 C 0.97141 0.95401 0.9576 0.0
H575 H 0.00983 0.96545 0.05548 0.0
H576 H 0.97013 0.95702 0.03176 0.0
H577 H 0.01729 0.95529 0.01488 0.0
H578 H 0.03992 0.98473 0.92856 0.0
H579 H 0.04699 0.95847 0.88835 0.0
H580 H 0.97635 0.55029 0.88878 0.0
H581 H 0.98396 0.52394 0.92887 0.0
H582 H 0.08101 0.55352 0.97051 0.0
H583 H 0.07153 0.58074 0.9317 0.0
H584 H 0.03395 0.49848 0.93947 0.0
H585 H 0.02677 0.54343 0.05346 0.0
H586 H 0.01734 0.55354 0.01315 0.0
H587 H 0.06543 0.55027 0.02716 0.0
C588 C -0.00079 0.55123 0.90662 0.0
C589 C 0.02316 0.56763 0.90733 0.0
C590 C 0.00363 0.5361 0.92954 0.0
C591 C 0.03267 0.53674 0.95334 0.0
C592 C 0.05754 0.55288 0.95331 0.0
H593 H 0.06889 0.42664 0.06564 0.0
H594 H 0.07807 0.45367 0.02639 0.0
C595 C 0.05236 0.56837 0.93093 0.0
C596 C 0.03645 0.52039 0.97774 0.0
H597 H 0.04088 0.50994 0.06041 0.0
C598 C 0.03537 0.50103 0.96594 0.0
C599 C 0.0381 0.52357 0.0124 0.0
C600 C 0.03659 0.54381 0.02733 0.0
C601 C 0.03447 0.4849 0.98757 0.0
C602 C 0.0368 0.48807 0.02219 0.0
C603 C 0.03927 0.50741 0.03394 0.0
C604 C 0.03347 0.47184 0.04684 0.0
C605 C 0.02897 0.46477 0.97294 0.0
C606 C 0.00677 0.47331 0.07254 0.0
C607 C 0.00253 0.45823 0.09559 0.0
C608 C 0.02437 0.44111 0.09324 0.0
C609 C 0.05138 0.43959 0.06781 0.0
C610 C 0.05636 0.45498 0.04517 0.0
H611 H 0.01673 0.46549 0.94762 0.0
H612 H 0.05684 0.45734 0.97107 0.0
H613 H 0.00996 0.4557 0.98858 0.0
H614 H 0.98867 0.48606 0.07455 0.0
H615 H 0.98135 0.45981 0.11482 0.0
H616 H 0.4856 0.42276 0.45041 0.0
H617 H 0.4793 0.45017 0.48932 0.0
H618 H 0.50232 0.49089 0.41031 0.0
H619 H 0.50851 0.46372 0.3714 0.0
H620 H 0.53761 0.47808 0.50281 0.0
H621 H 0.40767 0.51431 0.45534 0.0
H622 H 0.4198 0.48934 0.44516 0.0
H623 H 0.44321 0.50929 0.42464 0.0
C624 C 0.4888 0.43756 0.44125 0.0
C625 C 0.49752 0.44104 0.4078 0.0
C626 C 0.48524 0.4532 0.46351 0.0
C627 C 0.48987 0.4726 0.45264 0.0
C628 C 0.49791 0.4761 0.41915 0.0
H629 H 0.49948 0.58711 0.54836 0.0
H630 H 0.4951 0.56001 0.50853 0.0
C631 C 0.50165 0.46051 0.39697 0.0
C632 C 0.48902 0.48909 0.47662 0.0
H633 H 0.44331 0.53177 0.49556 0.0
C634 C 0.51681 0.48974 0.50142 0.0
C635 C 0.46222 0.50445 0.47444 0.0
C636 C 0.4313 0.50432 0.44865 0.0
C637 C 0.51899 0.50546 0.52376 0.0
C638 C 0.49184 0.52072 0.52196 0.0
C639 C 0.46404 0.52008 0.49707 0.0
C640 C 0.49181 0.53733 0.54588 0.0
C641 C 0.55119 0.50579 0.54838 0.0
C642 C 0.49011 0.53372 0.58006 0.0
C643 C 0.49316 0.54908 0.60271 0.0
C644 C 0.49703 0.5685 0.59173 0.0
C645 C 0.49656 0.57229 0.55753 0.0
C646 C 0.4941 0.55681 0.53478 0.0
H647 H 0.57545 0.49672 0.53988 0.0
H648 H 0.56147 0.52092 0.55274 0.0
H649 H 0.54123 0.49966 0.57228 0.0
H650 H 0.48702 0.51893 0.58931 0.0
H651 H 0.49284 0.54571 0.62891 0.0
H652 H 0.50794 0.96432 0.6287 0.0
H653 H 0.51299 0.99112 0.58896 0.0
H654 H 0.55225 0.95084 0.5144 0.0
H655 H 0.54717 0.92371 0.55419 0.0
H656 H 0.59322 0.99061 0.52173 0.0
H657 H 0.4365 0.99425 0.50742 0.0
H658 H 0.45443 0.99361 0.54911 0.0
H659 H 0.46042 0.9727 0.52276 0.0
C660 C 0.51797 0.9611 0.60395 0.0
C661 C 0.52692 0.94181 0.59456 0.0
C662 C 0.5208 0.97647 0.58127 0.0
C663 C 0.53269 0.97294 0.54872 0.0
C664 C 0.54298 0.95385 0.53946 0.0
H665 H 0.50081 0.04535 0.37585 0.0
H666 H 0.50748 0.01874 0.4157 0.0
C667 C 0.54002 0.93838 0.56218 0.0
C668 C 0.53237 0.98907 0.52411 0.0
H669 H 0.47235 0.01883 0.48088 0.0
C670 C 0.56686 0.99679 0.51272 0.0
C671 C 0.49791 0.99702 0.51235 0.0
C672 C 0.46011 0.98895 0.52326 0.0
C673 C 0.5677 0.01247 0.49008 0.0
C674 C 0.53319 0.02058 0.47869 0.0
C675 C 0.49877 0.01268 0.48985 0.0
C676 C 0.53189 0.03676 0.45414 0.0
C677 C 0.60535 0.0201 0.47806 0.0
C678 C 0.54353 0.05579 0.46251 0.0
C679 C 0.53954 0.07118 0.43974 0.0
C680 C 0.52391 0.06774 0.40822 0.0
C681 C 0.513 0.04856 0.39985 0.0
C682 C 0.51676 0.03329 0.42261 0.0
H683 H 0.62914 0.01027 0.485 0.0
H684 H 0.60504 0.02185 0.45072 0.0
H685 H 0.61065 0.03471 0.4891 0.0
H686 H 0.55485 0.05883 0.4869 0.0
H687 H 0.54813 0.08578 0.44696 0.0
loop_
_geom_bond_atom_site_label_1
_geom_bond_atom_site_label_2
_geom_bond_distance
_geom_bond_site_symmetry_2
_ccdc_geom_bond_type
Co0 O1 2.216 . S
Co0 O2 2.091 . S
Co0 O4 2.004 . S
Co0 O10 2.021 1_455 S
Co0 O12 2.137 . S
Co0 O13 2.244 . S
O1 Co0 2.216 . S
O1 C8 1.247 . S
O2 Co0 2.091 . S
O2 C8 1.261 . S
C3 O12 1.247 . S
C3 O13 1.272 . S
O4 Co0 2.004 . S
O4 C9 1.259 . S
Co5 O6 2.061 . S
Co5 O11 2.052 1_455 S
Co5 O13 2.135 . S
O6 Co5 2.061 . S
O6 C9 1.235 . S
C7 O10 1.238 . S
C7 O11 1.241 . S
C8 O1 1.247 . S
C8 O2 1.261 . S
C9 O4 1.259 . S
C9 O6 1.235 . S
O10 Co0 2.021 1_655 S
O10 C7 1.238 . S
O11 Co5 2.052 1_655 S
O11 C7 1.241 . S
O12 Co0 2.137 . S
O12 C3 1.247 . S
O13 Co0 2.244 . S
O13 C3 1.272 . S
O13 Co5 2.135 . S
Co14 O15 2.216 . S
Co14 O16 2.091 . S
Co14 O18 2.004 . S
Co14 O24 2.021 . S
Co14 O26 2.137 1_455 S
Co14 O27 2.244 1_455 S
O15 Co14 2.216 . S
O15 C22 1.247 . S
O16 Co14 2.091 . S
O16 C22 1.261 . S
C17 O26 1.247 . S
C17 O27 1.272 . S
O18 Co14 2.004 . S
O18 C23 1.259 . S
Co19 O20 2.061 . S
Co19 O25 2.052 . S
Co19 O27 2.135 1_455 S
O20 Co19 2.061 . S
O20 C23 1.235 . S
C21 O24 1.238 . S
C21 O25 1.241 . S
C22 O15 1.247 . S
C22 O16 1.261 . S
C23 O18 1.259 . S
C23 O20 1.235 . S
O24 Co14 2.021 . S
O24 C21 1.238 . S
O25 Co19 2.052 . S
O25 C21 1.241 . S
O26 Co14 2.137 1_655 S
O26 C17 1.247 . S
O27 Co14 2.244 1_655 S
O27 C17 1.272 . S
O27 Co19 2.135 1_655 S
Co28 O29 2.216 . S
Co28 O30 2.091 . S
Co28 O32 2.004 . S
Co28 O38 2.021 1_455 S
Co28 O40 2.137 . S
Co28 O41 2.244 . S
O29 Co28 2.216 . S
O29 C36 1.247 . S
O30 Co28 2.091 . S
O30 C36 1.261 . S
C31 O40 1.247 . S
C31 O41 1.272 . S
O32 Co28 2.004 . S
O32 C37 1.259 . S
Co33 O34 2.061 . S
Co33 O39 2.052 1_455 S
Co33 O41 2.135 . S
O34 Co33 2.061 . S
O34 C37 1.235 . S
C35 O38 1.238 . S
C35 O39 1.241 . S
C36 O29 1.247 . S
C36 O30 1.261 . S
C37 O32 1.259 . S
C37 O34 1.235 . S
O38 Co28 2.021 1_655 S
O38 C35 1.238 . S
O39 Co33 2.052 1_655 S
O39 C35 1.241 . S
O40 Co28 2.137 . S
O40 C31 1.247 . S
O41 Co28 2.244 . S
O41 C31 1.272 . S
O41 Co33 2.135 . S
Co42 O43 2.216 . S
Co42 O44 2.091 . S
Co42 O46 2.004 . S
Co42 O52 2.021 . S
Co42 O54 2.137 1_455 S
Co42 O55 2.244 1_455 S
O43 Co42 2.216 . S
O43 C50 1.247 . S
O44 Co42 2.091 . S
O44 C50 1.261 . S
C45 O54 1.247 . S
C45 O55 1.272 . S
O46 Co42 2.004 . S
O46 C51 1.259 . S
Co47 O48 2.061 . S
Co47 O53 2.052 . S
Co47 O55 2.135 1_455 S
O48 Co47 2.061 . S
O48 C51 1.235 . S
C49 O52 1.238 . S
C49 O53 1.241 . S
C50 O43 1.247 . S
C50 O44 1.261 . S
C51 O46 1.259 . S
C51 O48 1.235 . S
O52 Co42 2.021 . S
O52 C49 1.238 . S
O53 Co47 2.052 . S
O53 C49 1.241 . S
O54 Co42 2.137 1_655 S
O54 C45 1.247 . S
O55 Co42 2.244 1_655 S
O55 C45 1.272 . S
O55 Co47 2.135 1_655 S
Co56 O57 2.216 . S
Co56 O58 2.091 . S
Co56 O60 2.004 . S
Co56 O66 2.021 . S
Co56 O68 2.137 . S
Co56 O69 2.244 . S
O57 Co56 2.216 . S
O57 C64 1.247 . S
O58 Co56 2.091 . S
O58 C64 1.261 . S
C59 O68 1.247 . S
C59 O69 1.272 . S
O60 Co56 2.004 . S
O60 C65 1.259 . S
Co61 O62 2.061 . S
Co61 O67 2.052 . S
Co61 O69 2.135 . S
O62 Co61 2.061 . S
O62 C65 1.235 . S
C63 O66 1.238 . S
C63 O67 1.241 . S
C64 O57 1.247 . S
C64 O58 1.261 . S
C65 O60 1.259 . S
C65 O62 1.235 . S
O66 Co56 2.021 . S
O66 C63 1.238 . S
O67 Co61 2.052 . S
O67 C63 1.241 . S
O68 Co56 2.137 . S
O68 C59 1.247 . S
O69 Co56 2.244 . S
O69 C59 1.272 . S
O69 Co61 2.135 . S
Co70 O71 2.216 . S
Co70 O72 2.091 . S
Co70 O74 2.004 . S
Co70 O80 2.021 . S
Co70 O82 2.137 . S
Co70 O83 2.244 . S
O71 Co70 2.216 . S
O71 C78 1.247 . S
O72 Co70 2.091 . S
O72 C78 1.261 . S
C73 O82 1.247 . S
C73 O83 1.272 . S
O74 Co70 2.004 . S
O74 C79 1.259 . S
Co75 O76 2.061 . S
Co75 O81 2.052 . S
Co75 O83 2.135 . S
O76 Co75 2.061 . S
O76 C79 1.235 . S
C77 O80 1.238 . S
C77 O81 1.241 . S
C78 O71 1.247 . S
C78 O72 1.261 . S
C79 O74 1.259 . S
C79 O76 1.235 . S
O80 Co70 2.021 . S
O80 C77 1.238 . S
O81 Co75 2.052 . S
O81 C77 1.241 . S
O82 Co70 2.137 . S
O82 C73 1.247 . S
O83 Co70 2.244 . S
O83 C73 1.272 . S
O83 Co75 2.135 . S
Co84 O85 2.216 . S
Co84 O86 2.091 . S
Co84 O88 2.004 . S
Co84 O94 2.021 . S
Co84 O96 2.137 . S
Co84 O97 2.244 . S
O85 Co84 2.216 . S
O85 C92 1.247 . S
O86 Co84 2.091 . S
O86 C92 1.261 . S
C87 O96 1.247 . S
C87 O97 1.272 . S
O88 Co84 2.004 . S
O88 C93 1.259 . S
Co89 O90 2.061 . S
Co89 O95 2.052 . S
Co89 O97 2.135 . S
O90 Co89 2.061 . S
O90 C93 1.235 . S
C91 O94 1.238 . S
C91 O95 1.241 . S
C92 O85 1.247 . S
C92 O86 1.261 . S
C93 O88 1.259 . S
C93 O90 1.235 . S
O94 Co84 2.021 . S
O94 C91 1.238 . S
O95 Co89 2.052 . S
O95 C91 1.241 . S
O96 Co84 2.137 . S
O96 C87 1.247 . S
O97 Co84 2.244 . S
O97 C87 1.272 . S
O97 Co89 2.135 . S
Co98 O99 2.216 . S
Co98 O100 2.091 . S
Co98 O102 2.004 . S
Co98 O108 2.021 . S
Co98 O110 2.137 . S
Co98 O111 2.244 . S
O99 Co98 2.216 . S
O99 C106 1.247 . S
O100 Co98 2.091 . S
O100 C106 1.261 . S
C101 O110 1.247 . S
C101 O111 1.272 . S
O102 Co98 2.004 . S
O102 C107 1.259 . S
Co103 O104 2.061 . S
Co103 O109 2.052 . S
Co103 O111 2.135 . S
O104 Co103 2.061 . S
O104 C107 1.235 . S
C105 O108 1.238 . S
C105 O109 1.241 . S
C106 O99 1.247 . S
C106 O100 1.261 . S
C107 O102 1.259 . S
C107 O104 1.235 . S
O108 Co98 2.021 . S
O108 C105 1.238 . S
O109 Co103 2.052 . S
O109 C105 1.241 . S
O110 Co98 2.137 . S
O110 C101 1.247 . S
O111 Co98 2.244 . S
O111 C101 1.272 . S
O111 Co103 2.135 . S
H112 C120 0.929 . S
H113 C122 0.930 . S
H114 C124 0.930 . S
H115 C127 0.929 . S
H116 C130 0.930 . S
H117 C132 0.960 . S
H118 C132 0.960 . S
H119 C132 0.960 . S
C120 H112 0.929 . S
C120 C121 1.377 1_655 S
C120 C122 1.384 . S
C121 C120 1.377 1_455 S
C121 C127 1.390 . S
C122 H113 0.930 . S
C122 C120 1.384 . S
C122 C123 1.372 1_655 S
C123 C122 1.372 1_455 S
C123 C124 1.400 . S
C123 C128 1.490 . S
C124 H114 0.930 . S
C124 C123 1.400 . S
C124 C127 1.386 . S
H125 C141 0.930 . S
H126 C142 0.931 . S
C127 H115 0.929 . S
C127 C121 1.390 . S
C127 C124 1.386 . S
C128 C123 1.490 . S
C128 C130 1.395 1_455 S
C128 C131 1.403 . S
H129 C135 0.930 . S
C130 H116 0.930 . S
C130 C128 1.395 1_655 S
C130 C133 1.403 . S
C131 C128 1.403 . S
C131 C132 1.524 . S
C131 C135 1.400 . S
C132 H117 0.960 . S
C132 H118 0.960 . S
C132 H119 0.960 . S
C132 C131 1.524 . S
C133 C130 1.403 . S
C133 C134 1.392 1_655 S
C133 C137 1.495 . S
C134 C133 1.392 1_455 S
C134 C135 1.385 . S
C134 C136 1.478 . S
C135 H129 0.930 . S
C135 C131 1.400 . S
C135 C134 1.385 . S
C136 C134 1.478 . S
C136 C138 1.381 1_455 S
C136 C142 1.383 . S
C137 C133 1.495 . S
C137 H143 0.959 . S
C137 H144 0.961 . S
C137 H145 0.960 . S
C138 C136 1.381 1_655 S
C138 C139 1.394 . S
C138 H146 0.930 . S
C139 C138 1.394 . S
C139 C140 1.383 1_655 S
C139 H147 0.929 . S
C140 C139 1.383 1_455 S
C140 C141 1.377 . S
C141 H125 0.930 . S
C141 C140 1.377 . S
C141 C142 1.379 . S
C142 H126 0.931 . S
C142 C136 1.383 . S
C142 C141 1.379 . S
H143 C137 0.959 . S
H144 C137 0.961 . S
H145 C137 0.960 . S
H146 C138 0.930 . S
H147 C139 0.929 . S
H148 C156 0.929 . S
H149 C158 0.930 . S
H150 C160 0.930 . S
H151 C163 0.929 . S
H152 C166 0.930 1_655 S
H153 C168 0.960 . S
H154 C168 0.960 . S
H155 C168 0.960 . S
C156 H148 0.929 . S
C156 C157 1.377 . S
C156 C158 1.384 . S
C157 C156 1.377 . S
C157 C163 1.390 1_455 S
C158 H149 0.930 . S
C158 C156 1.384 . S
C158 C159 1.372 . S
C159 C158 1.372 . S
C159 C160 1.400 1_455 S
C159 C164 1.490 . S
C160 H150 0.930 . S
C160 C159 1.400 1_655 S
C160 C163 1.386 . S
H161 C177 0.930 . S
H162 C178 0.931 . S
C163 H151 0.929 . S
C163 C157 1.390 1_655 S
C163 C160 1.386 . S
C164 C159 1.490 . S
C164 C166 1.395 . S
C164 C167 1.403 . S
H165 C171 0.930 . S
C166 H152 0.930 1_455 S
C166 C164 1.395 . S
C166 C169 1.403 1_455 S
C167 C164 1.403 . S
C167 C168 1.524 . S
C167 C171 1.400 . S
C168 H153 0.960 . S
C168 H154 0.960 . S
C168 H155 0.960 . S
C168 C167 1.524 . S
C169 C166 1.403 1_655 S
C169 C170 1.390 1_655 S
C169 C173 1.498 . S
C170 C169 1.390 1_455 S
C170 C171 1.385 . S
C170 C172 1.478 . S
C171 H165 0.930 . S
C171 C167 1.400 . S
C171 C170 1.385 . S
C172 C170 1.478 . S
C172 C174 1.381 . S
C172 C178 1.383 1_455 S
C173 C169 1.498 . S
C173 H179 0.959 . S
C173 H180 0.961 . S
C173 H181 0.960 1_655 S
C174 C172 1.381 . S
C174 C175 1.394 . S
C174 H182 0.930 . S
C175 C174 1.394 . S
C175 C176 1.383 . S
C175 H183 0.929 . S
C176 C175 1.383 . S
C176 C177 1.377 1_455 S
C177 H161 0.930 . S
C177 C176 1.377 1_655 S
C177 C178 1.379 . S
C178 H162 0.931 . S
C178 C172 1.383 1_655 S
C178 C177 1.379 . S
H179 C173 0.959 . S
H180 C173 0.961 . S
H181 C173 0.960 1_455 S
H182 C174 0.930 . S
H183 C175 0.929 . S
H184 C192 0.929 . S
H185 C194 0.930 . S
H186 C196 0.930 . S
H187 C199 0.929 . S
H188 C202 0.930 . S
H189 C204 0.960 . S
H190 C204 0.960 . S
H191 C204 0.960 . S
C192 H184 0.929 . S
C192 C193 1.377 . S
C192 C194 1.384 . S
C193 C192 1.377 . S
C193 C199 1.390 . S
C194 H185 0.930 . S
C194 C192 1.384 . S
C194 C195 1.372 . S
C195 C194 1.372 . S
C195 C196 1.400 . S
C195 C200 1.490 . S
C196 H186 0.930 . S
C196 C195 1.400 . S
C196 C199 1.386 . S
H197 C213 0.930 . S
H198 C214 0.931 . S
C199 H187 0.929 . S
C199 C193 1.390 . S
C199 C196 1.386 . S
C200 C195 1.490 . S
C200 C202 1.395 . S
C200 C203 1.403 . S
H201 C207 0.930 . S
C202 H188 0.930 . S
C202 C200 1.395 . S
C202 C205 1.403 . S
C203 C200 1.403 . S
C203 C204 1.524 . S
C203 C207 1.400 . S
C204 H189 0.960 . S
C204 H190 0.960 . S
C204 H191 0.960 . S
C204 C203 1.524 . S
C205 C202 1.403 . S
C205 C206 1.392 . S
C205 C209 1.495 . S
C206 C205 1.392 . S
C206 C207 1.385 . S
C206 C208 1.478 . S
C207 H201 0.930 . S
C207 C203 1.400 . S
C207 C206 1.385 . S
C208 C206 1.478 . S
C208 C210 1.381 . S
C208 C214 1.383 . S
C209 C205 1.495 . S
C209 H215 0.959 . S
C209 H216 0.961 . S
C209 H217 0.960 . S
C210 C208 1.381 . S
C210 C211 1.394 . S
C210 H218 0.930 . S
C211 C210 1.394 . S
C211 C212 1.383 . S
C211 H219 0.929 . S
C212 C211 1.383 . S
C212 C213 1.377 . S
C213 H197 0.930 . S
C213 C212 1.377 . S
C213 C214 1.379 . S
C214 H198 0.931 . S
C214 C208 1.383 . S
C214 C213 1.379 . S
H215 C209 0.959 . S
H216 C209 0.961 . S
H217 C209 0.960 . S
H218 C210 0.930 . S
H219 C211 0.929 . S
H220 C228 0.929 . S
H221 C230 0.930 . S
H222 C232 0.930 . S
H223 C235 0.929 . S
H224 C238 0.930 . S
H225 C240 0.960 . S
H226 C240 0.960 . S
H227 C240 0.960 . S
C228 H220 0.929 . S
C228 C229 1.377 . S
C228 C230 1.384 . S
C229 C228 1.377 . S
C229 C235 1.390 . S
C230 H221 0.930 . S
C230 C228 1.384 . S
C230 C231 1.372 . S
C231 C230 1.372 . S
C231 C232 1.400 . S
C231 C236 1.490 . S
C232 H222 0.930 . S
C232 C231 1.400 . S
C232 C235 1.386 . S
H233 C249 0.930 . S
H234 C250 0.931 . S
C235 H223 0.929 . S
C235 C229 1.390 . S
C235 C232 1.386 . S
C236 C231 1.490 . S
C236 C238 1.395 . S
C236 C239 1.403 . S
H237 C243 0.930 . S
C238 H224 0.930 . S
C238 C236 1.395 . S
C238 C241 1.403 . S
C239 C236 1.403 . S
C239 C240 1.524 . S
C239 C243 1.400 . S
C240 H225 0.960 . S
C240 H226 0.960 . S
C240 H227 0.960 . S
C240 C239 1.524 . S
C241 C238 1.403 . S
C241 C242 1.392 . S
C241 C245 1.495 . S
C242 C241 1.392 . S
C242 C243 1.385 . S
C242 C244 1.478 . S
C243 H237 0.930 . S
C243 C239 1.400 . S
C243 C242 1.385 . S
C244 C242 1.478 . S
C244 C246 1.381 . S
C244 C250 1.383 . S
C245 C241 1.495 . S
C245 H251 0.959 . S
C245 H252 0.961 . S
C245 H253 0.960 . S
C246 C244 1.381 . S
C246 C247 1.394 . S
C246 H254 0.930 . S
C247 C246 1.394 . S
C247 C248 1.383 . S
C247 H255 0.929 . S
C248 C247 1.383 . S
C248 C249 1.377 . S
C249 H233 0.930 . S
C249 C248 1.377 . S
C249 C250 1.379 . S
C250 H234 0.931 . S
C250 C244 1.383 . S
C250 C249 1.379 . S
H251 C245 0.959 . S
H252 C245 0.961 . S
H253 C245 0.960 . S
H254 C246 0.930 . S
H255 C247 0.929 . S
H256 C264 0.929 . S
H257 C266 0.930 . S
H258 C268 0.930 . S
H259 C271 0.929 . S
H260 C274 0.930 . S
H261 C276 0.960 . S
H262 C276 0.960 . S
H263 C276 0.960 . S
C264 H256 0.929 . S
C264 C265 1.377 . S
C264 C266 1.384 . S
C265 C264 1.377 . S
C265 C271 1.390 . S
C266 H257 0.930 . S
C266 C264 1.384 . S
C266 C267 1.372 . S
C267 C266 1.372 . S
C267 C268 1.400 . S
C267 C272 1.490 . S
C268 H258 0.930 . S
C268 C267 1.400 . S
C268 C271 1.386 . S
H269 C285 0.930 . S
H270 C286 0.931 . S
C271 H259 0.929 . S
C271 C265 1.390 . S
C271 C268 1.386 . S
C272 C267 1.490 . S
C272 C274 1.395 . S
C272 C275 1.403 . S
H273 C279 0.930 . S
C274 H260 0.930 . S
C274 C272 1.395 . S
C274 C277 1.403 . S
C275 C272 1.403 . S
C275 C276 1.524 . S
C275 C279 1.400 . S
C276 H261 0.960 . S
C276 H262 0.960 . S
C276 H263 0.960 . S
C276 C275 1.524 . S
C277 C274 1.403 . S
C277 C278 1.392 . S
C277 C281 1.495 . S
C278 C277 1.392 . S
C278 C279 1.385 . S
C278 C280 1.478 . S
C279 H273 0.930 . S
C279 C275 1.400 . S
C279 C278 1.385 . S
C280 C278 1.478 . S
C280 C282 1.381 . S
C280 C286 1.383 . S
C281 C277 1.495 . S
C281 H287 0.959 . S
C281 H288 0.961 . S
C281 H289 0.960 . S
C282 C280 1.381 . S
C282 C283 1.394 . S
C282 H290 0.930 . S
C283 C282 1.394 . S
C283 C284 1.383 . S
C283 H291 0.929 . S
C284 C283 1.383 . S
C284 C285 1.377 . S
C285 H269 0.930 . S
C285 C284 1.377 . S
C285 C286 1.379 . S
C286 H270 0.931 . S
C286 C280 1.383 . S
C286 C285 1.379 . S
H287 C281 0.959 . S
H288 C281 0.961 . S
H289 C281 0.960 . S
H290 C282 0.930 . S
H291 C283 0.929 . S
H292 C300 0.929 . S
H293 C302 0.930 . S
H294 C304 0.930 . S
H295 C307 0.929 . S
H296 C310 0.930 . S
H297 C312 0.960 . S
H298 C312 0.960 . S
H299 C312 0.960 . S
C300 H292 0.929 . S
C300 C301 1.377 . S
C300 C302 1.384 . S
C301 C300 1.377 . S
C301 C307 1.390 . S
C302 H293 0.930 . S
C302 C300 1.384 . S
C302 C303 1.372 . S
C303 C302 1.372 . S
C303 C304 1.400 . S
C303 C308 1.490 . S
C304 H294 0.930 . S
C304 C303 1.400 . S
C304 C307 1.386 . S
H305 C321 0.930 . S
H306 C322 0.931 . S
C307 H295 0.929 . S
C307 C301 1.390 . S
C307 C304 1.386 . S
C308 C303 1.490 . S
C308 C310 1.395 . S
C308 C311 1.403 . S
H309 C315 0.930 . S
C310 H296 0.930 . S
C310 C308 1.395 . S
C310 C313 1.403 . S
C311 C308 1.403 . S
C311 C312 1.524 . S
C311 C315 1.400 . S
C312 H297 0.960 . S
C312 H298 0.960 . S
C312 H299 0.960 . S
C312 C311 1.524 . S
C313 C310 1.403 . S
C313 C314 1.392 . S
C313 C317 1.495 . S
C314 C313 1.392 . S
C314 C315 1.385 . S
C314 C316 1.478 . S
C315 H309 0.930 . S
C315 C311 1.400 . S
C315 C314 1.385 . S
C316 C314 1.478 . S
C316 C318 1.381 . S
C316 C322 1.383 . S
C317 C313 1.495 . S
C317 H323 0.959 . S
C317 H324 0.961 . S
C317 H325 0.960 . S
C318 C316 1.381 . S
C318 C319 1.394 . S
C318 H326 0.930 . S
C319 C318 1.394 . S
C319 C320 1.383 . S
C319 H327 0.929 . S
C320 C319 1.383 . S
C320 C321 1.377 . S
C321 H305 0.930 . S
C321 C320 1.377 . S
C321 C322 1.379 . S
C322 H306 0.931 . S
C322 C316 1.383 . S
C322 C321 1.379 . S
H323 C317 0.959 . S
H324 C317 0.961 . S
H325 C317 0.960 . S
H326 C318 0.930 . S
H327 C319 0.929 . S
H328 C336 0.929 . S
H329 C338 0.930 . S
H330 C340 0.930 . S
H331 C343 0.929 . S
H332 C346 0.930 . S
H333 C348 0.960 . S
H334 C348 0.960 . S
H335 C348 0.960 . S
C336 H328 0.929 . S
C336 C337 1.377 . S
C336 C338 1.384 . S
C337 C336 1.377 . S
C337 C343 1.390 . S
C338 H329 0.930 . S
C338 C336 1.384 . S
C338 C339 1.372 . S
C339 C338 1.372 . S
C339 C340 1.400 . S
C339 C344 1.490 . S
C340 H330 0.930 . S
C340 C339 1.400 . S
C340 C343 1.386 . S
H341 C357 0.930 . S
H342 C358 0.931 . S
C343 H331 0.929 . S
C343 C337 1.390 . S
C343 C340 1.386 . S
C344 C339 1.490 . S
C344 C346 1.395 . S
C344 C347 1.403 . S
H345 C351 0.930 . S
C346 H332 0.930 . S
C346 C344 1.395 . S
C346 C349 1.403 . S
C347 C344 1.403 . S
C347 C348 1.524 . S
C347 C351 1.400 . S
C348 H333 0.960 . S
C348 H334 0.960 . S
C348 H335 0.960 . S
C348 C347 1.524 . S
C349 C346 1.403 . S
C349 C350 1.392 . S
C349 C353 1.495 . S
C350 C349 1.392 . S
C350 C351 1.385 . S
C350 C352 1.478 . S
C351 H345 0.930 . S
C351 C347 1.400 . S
C351 C350 1.385 . S
C352 C350 1.478 . S
C352 C354 1.381 . S
C352 C358 1.383 . S
C353 C349 1.495 . S
C353 H359 0.959 . S
C353 H360 0.961 . S
C353 H361 0.960 . S
C354 C352 1.381 . S
C354 C355 1.394 . S
C354 H362 0.930 . S
C355 C354 1.394 . S
C355 C356 1.383 . S
C355 H363 0.929 . S
C356 C355 1.383 . S
C356 C357 1.377 . S
C357 H341 0.930 . S
C357 C356 1.377 . S
C357 C358 1.379 . S
C358 H342 0.931 . S
C358 C352 1.383 . S
C358 C357 1.379 . S
H359 C353 0.959 . S
H360 C353 0.961 . S
H361 C353 0.960 . S
H362 C354 0.930 . S
H363 C355 0.929 . S
H364 C372 0.929 . S
H365 C374 0.930 . S
H366 C376 0.930 . S
H367 C379 0.929 . S
H368 C382 0.930 . S
H369 C384 0.960 . S
H370 C384 0.960 . S
H371 C384 0.960 . S
C372 H364 0.929 . S
C372 C373 1.377 . S
C372 C374 1.384 . S
C373 C372 1.377 . S
C373 C379 1.390 . S
C374 H365 0.930 . S
C374 C372 1.384 . S
C374 C375 1.372 . S
C375 C374 1.372 . S
C375 C376 1.400 . S
C375 C380 1.490 . S
C376 H366 0.930 . S
C376 C375 1.400 . S
C376 C379 1.386 . S
H377 C393 0.930 . S
H378 C394 0.931 . S
C379 H367 0.929 . S
C379 C373 1.390 . S
C379 C376 1.386 . S
C380 C375 1.490 . S
C380 C382 1.395 . S
C380 C383 1.403 . S
H381 C387 0.930 . S
C382 H368 0.930 . S
C382 C380 1.395 . S
C382 C385 1.403 . S
C383 C380 1.403 . S
C383 C384 1.524 . S
C383 C387 1.400 . S
C384 H369 0.960 . S
C384 H370 0.960 . S
C384 H371 0.960 . S
C384 C383 1.524 . S
C385 C382 1.403 . S
C385 C386 1.392 . S
C385 C389 1.495 . S
C386 C385 1.392 . S
C386 C387 1.385 . S
C386 C388 1.478 . S
C387 H381 0.930 . S
C387 C383 1.400 . S
C387 C386 1.385 . S
C388 C386 1.478 . S
C388 C390 1.381 . S
C388 C394 1.383 . S
C389 C385 1.495 . S
C389 H395 0.959 . S
C389 H396 0.961 . S
C389 H397 0.960 . S
C390 C388 1.381 . S
C390 C391 1.394 . S
C390 H398 0.930 . S
C391 C390 1.394 . S
C391 C392 1.383 . S
C391 H399 0.929 . S
C392 C391 1.383 . S
C392 C393 1.377 . S
C393 H377 0.930 . S
C393 C392 1.377 . S
C393 C394 1.379 . S
C394 H378 0.931 . S
C394 C388 1.383 . S
C394 C393 1.379 . S
H395 C389 0.959 . S
H396 C389 0.961 . S
H397 C389 0.960 . S
H398 C390 0.930 . S
H399 C391 0.929 . S
H400 C408 0.929 . S
H401 C410 0.930 . S
H402 C412 0.930 . S
H403 C415 0.929 . S
H404 C418 0.930 . S
H405 C420 0.960 . S
H406 C420 0.960 . S
H407 C420 0.960 . S
C408 H400 0.929 . S
C408 C409 1.377 . S
C408 C410 1.384 . S
C409 C408 1.377 . S
C409 C415 1.390 . S
C410 H401 0.930 . S
C410 C408 1.384 . S
C410 C411 1.372 . S
C411 C410 1.372 . S
C411 C412 1.400 . S
C411 C416 1.490 . S
C412 H402 0.930 . S
C412 C411 1.400 . S
C412 C415 1.386 . S
H413 C429 0.930 . S
H414 C430 0.931 . S
C415 H403 0.929 . S
C415 C409 1.390 . S
C415 C412 1.386 . S
C416 C411 1.490 . S
C416 C418 1.395 . S
C416 C419 1.403 . S
H417 C423 0.930 . S
C418 H404 0.930 . S
C418 C416 1.395 . S
C418 C421 1.403 . S
C419 C416 1.403 . S
C419 C420 1.524 . S
C419 C423 1.400 . S
C420 H405 0.960 . S
C420 H406 0.960 . S
C420 H407 0.960 . S
C420 C419 1.524 . S
C421 C418 1.403 . S
C421 C422 1.392 . S
C421 C425 1.495 . S
C422 C421 1.392 . S
C422 C423 1.385 . S
C422 C424 1.478 . S
C423 H417 0.930 . S
C423 C419 1.400 . S
C423 C422 1.385 . S
C424 C422 1.478 . S
C424 C426 1.381 . S
C424 C430 1.383 . S
C425 C421 1.495 . S
C425 H431 0.959 . S
C425 H432 0.961 . S
C425 H433 0.960 . S
C426 C424 1.381 . S
C426 C427 1.394 . S
C426 H434 0.930 . S
C427 C426 1.394 . S
C427 C428 1.383 . S
C427 H435 0.929 . S
C428 C427 1.383 . S
C428 C429 1.377 . S
C429 H413 0.930 . S
C429 C428 1.377 . S
C429 C430 1.379 . S
C430 H414 0.931 . S
C430 C424 1.383 . S
C430 C429 1.379 . S
H431 C425 0.959 . S
H432 C425 0.961 . S
H433 C425 0.960 . S
H434 C426 0.930 . S
H435 C427 0.929 . S
H436 C444 0.929 . S
H437 C446 0.930 . S
H438 C448 0.930 . S
H439 C451 0.929 . S
H440 C454 0.930 . S
H441 C456 0.960 . S
H442 C456 0.960 . S
H443 C456 0.960 . S
C444 H436 0.929 . S
C444 C445 1.377 . S
C444 C446 1.384 . S
C445 C444 1.377 . S
C445 C451 1.390 . S
C446 H437 0.930 . S
C446 C444 1.384 . S
C446 C447 1.372 . S
C447 C446 1.372 . S
C447 C448 1.400 . S
C447 C452 1.490 . S
C448 H438 0.930 . S
C448 C447 1.400 . S
C448 C451 1.386 . S
H449 C465 0.930 . S
H450 C466 0.931 . S
C451 H439 0.929 . S
C451 C445 1.390 . S
C451 C448 1.386 . S
C452 C447 1.490 . S
C452 C454 1.395 . S
C452 C455 1.403 . S
H453 C459 0.930 . S
C454 H440 0.930 . S
C454 C452 1.395 . S
C454 C457 1.403 . S
C455 C452 1.403 . S
C455 C456 1.524 . S
C455 C459 1.400 . S
C456 H441 0.960 . S
C456 H442 0.960 . S
C456 H443 0.960 . S
C456 C455 1.524 . S
C457 C454 1.403 . S
C457 C458 1.392 . S
C457 C461 1.495 . S
C458 C457 1.392 . S
C458 C459 1.385 . S
C458 C460 1.478 . S
C459 H453 0.930 . S
C459 C455 1.400 . S
C459 C458 1.385 . S
C460 C458 1.478 . S
C460 C462 1.381 . S
C460 C466 1.383 . S
C461 C457 1.495 . S
C461 H467 0.959 . S
C461 H468 0.961 . S
C461 H469 0.960 . S
C462 C460 1.381 . S
C462 C463 1.394 . S
C462 H470 0.930 . S
C463 C462 1.394 . S
C463 C464 1.383 . S
C463 H471 0.929 . S
C464 C463 1.383 . S
C464 C465 1.377 . S
C465 H449 0.930 . S
C465 C464 1.377 . S
C465 C466 1.379 . S
C466 H450 0.931 . S
C466 C460 1.383 . S
C466 C465 1.379 . S
H467 C461 0.959 . S
H468 C461 0.961 . S
H469 C461 0.960 . S
H470 C462 0.930 . S
H471 C463 0.929 . S
H472 C480 0.929 . S
H473 C482 0.930 . S
H474 C484 0.930 . S
H475 C487 0.929 . S
H476 C490 0.930 . S
H477 C492 0.960 . S
H478 C492 0.960 . S
H479 C492 0.960 . S
C480 H472 0.929 . S
C480 C481 1.377 . S
C480 C482 1.384 . S
C481 C480 1.377 . S
C481 C487 1.390 . S
C482 H473 0.930 . S
C482 C480 1.384 . S
C482 C483 1.372 . S
C483 C482 1.372 . S
C483 C484 1.400 . S
C483 C488 1.490 . S
C484 H474 0.930 . S
C484 C483 1.400 . S
C484 C487 1.386 . S
H485 C501 0.930 . S
H486 C502 0.931 . S
C487 H475 0.929 . S
C487 C481 1.390 . S
C487 C484 1.386 . S
C488 C483 1.490 . S
C488 C490 1.395 . S
C488 C491 1.403 . S
H489 C495 0.930 . S
C490 H476 0.930 . S
C490 C488 1.395 . S
C490 C493 1.403 . S
C491 C488 1.403 . S
C491 C492 1.524 . S
C491 C495 1.400 . S
C492 H477 0.960 . S
C492 H478 0.960 . S
C492 H479 0.960 . S
C492 C491 1.524 . S
C493 C490 1.403 . S
C493 C494 1.392 . S
C493 C497 1.495 . S
C494 C493 1.392 . S
C494 C495 1.385 . S
C494 C496 1.478 . S
C495 H489 0.930 . S
C495 C491 1.400 . S
C495 C494 1.385 . S
C496 C494 1.478 . S
C496 C498 1.381 . S
C496 C502 1.383 . S
C497 C493 1.495 . S
C497 H503 0.959 . S
C497 H504 0.961 . S
C497 H505 0.960 . S
C498 C496 1.381 . S
C498 C499 1.394 . S
C498 H506 0.930 . S
C499 C498 1.394 . S
C499 C500 1.383 . S
C499 H507 0.929 . S
C500 C499 1.383 . S
C500 C501 1.377 . S
C501 H485 0.930 . S
C501 C500 1.377 . S
C501 C502 1.379 . S
C502 H486 0.931 . S
C502 C496 1.383 . S
C502 C501 1.379 . S
H503 C497 0.959 . S
H504 C497 0.961 . S
H505 C497 0.960 . S
H506 C498 0.930 . S
H507 C499 0.929 . S
H508 C516 0.929 . S
H509 C518 0.930 . S
H510 C520 0.930 . S
H511 C523 0.929 . S
H512 C526 0.930 . S
H513 C528 0.960 . S
H514 C528 0.960 . S
H515 C528 0.960 . S
C516 H508 0.929 . S
C516 C517 1.377 . S
C516 C518 1.384 . S
C517 C516 1.377 . S
C517 C523 1.390 . S
C518 H509 0.930 . S
C518 C516 1.384 . S
C518 C519 1.372 . S
C519 C518 1.372 . S
C519 C520 1.400 . S
C519 C524 1.490 . S
C520 H510 0.930 . S
C520 C519 1.400 . S
C520 C523 1.386 . S
H521 C537 0.930 . S
H522 C538 0.931 . S
C523 H511 0.929 . S
C523 C517 1.390 . S
C523 C520 1.386 . S
C524 C519 1.490 . S
C524 C526 1.395 . S
C524 C527 1.403 . S
H525 C531 0.930 . S
C526 H512 0.930 . S
C526 C524 1.395 . S
C526 C529 1.403 . S
C527 C524 1.403 . S
C527 C528 1.524 . S
C527 C531 1.400 . S
C528 H513 0.960 . S
C528 H514 0.960 . S
C528 H515 0.960 . S
C528 C527 1.524 . S
C529 C526 1.403 . S
C529 C530 1.392 . S
C529 C533 1.495 . S
C530 C529 1.392 . S
C530 C531 1.385 . S
C530 C532 1.478 . S
C531 H525 0.930 . S
C531 C527 1.400 . S
C531 C530 1.385 . S
C532 C530 1.478 . S
C532 C534 1.381 . S
C532 C538 1.383 . S
C533 C529 1.495 . S
C533 H539 0.959 . S
C533 H540 0.961 . S
C533 H541 0.960 . S
C534 C532 1.381 . S
C534 C535 1.394 . S
C534 H542 0.930 . S
C535 C534 1.394 . S
C535 C536 1.383 . S
C535 H543 0.929 . S
C536 C535 1.383 . S
C536 C537 1.377 . S
C537 H521 0.930 . S
C537 C536 1.377 . S
C537 C538 1.379 . S
C538 H522 0.931 . S
C538 C532 1.383 . S
C538 C537 1.379 . S
H539 C533 0.959 . S
H540 C533 0.961 . S
H541 C533 0.960 . S
H542 C534 0.930 . S
H543 C535 0.929 . S
H544 C552 0.929 . S
H545 C554 0.930 . S
H546 C556 0.930 . S
H547 C559 0.929 . S
H548 C562 0.930 . S
H549 C564 0.960 . S
H550 C564 0.960 1_455 S
H551 C564 0.960 . S
C552 H544 0.929 . S
C552 C553 1.377 . S
C552 C554 1.384 . S
C553 C552 1.377 . S
C553 C559 1.390 1_455 S
C554 H545 0.930 . S
C554 C552 1.384 . S
C554 C555 1.372 . S
C555 C554 1.372 . S
C555 C556 1.400 1_455 S
C555 C560 1.490 . S
C556 H546 0.930 . S
C556 C555 1.400 1_655 S
C556 C559 1.386 . S
H557 C573 0.930 . S
H558 C574 0.931 . S
C559 H547 0.929 . S
C559 C553 1.390 1_655 S
C559 C556 1.386 . S
C560 C555 1.490 . S
C560 C562 1.395 1_545 S
C560 C563 1.403 1_454 S
H561 C567 0.941 1_545 S
C562 H548 0.930 . S
C562 C560 1.395 1_565 S
C562 C565 1.403 . S
C563 C560 1.403 1_656 S
C563 C564 1.524 . S
C563 C567 1.389 1_545 S
C564 H549 0.960 . S
C564 H550 0.960 1_655 S
C564 H551 0.960 . S
C564 C563 1.524 . S
C565 C562 1.403 . S
C565 C566 1.392 1_554 S
C565 C569 1.495 . S
C566 C565 1.392 1_556 S
C566 C567 1.387 1_455 S
C566 C568 1.478 . S
C567 H561 0.941 1_565 S
C567 C563 1.389 1_565 S
C567 C566 1.387 1_655 S
C568 C566 1.478 . S
C568 C570 1.381 . S
C568 C574 1.383 1_455 S
C569 C565 1.495 . S
C569 H575 0.959 . S
C569 H576 0.961 . S
C569 H577 0.960 . S
C570 C568 1.381 . S
C570 C571 1.394 . S
C570 H578 0.930 . S
C571 C570 1.394 . S
C571 C572 1.383 . S
C571 H579 0.929 . S
C572 C571 1.383 . S
C572 C573 1.377 1_455 S
C573 H557 0.930 . S
C573 C572 1.377 1_655 S
C573 C574 1.379 . S
C574 H558 0.931 . S
C574 C568 1.383 1_655 S
C574 C573 1.379 . S
H575 C569 0.959 . S
H576 C569 0.961 . S
H577 C569 0.960 . S
H578 C570 0.930 . S
H579 C571 0.929 . S
H580 C588 0.929 . S
H581 C590 0.930 . S
H582 C592 0.930 . S
H583 C595 0.929 . S
H584 C598 0.930 . S
H585 C600 0.960 . S
H586 C600 0.960 . S
H587 C600 0.960 . S
C588 H580 0.929 . S
C588 C589 1.377 1_655 S
C588 C590 1.384 . S
C589 C588 1.377 1_455 S
C589 C595 1.390 . S
C590 H581 0.930 . S
C590 C588 1.384 . S
C590 C591 1.372 1_655 S
C591 C590 1.372 1_455 S
C591 C592 1.400 . S
C591 C596 1.490 . S
C592 H582 0.930 . S
C592 C591 1.400 . S
C592 C595 1.386 . S
H593 C609 0.930 . S
H594 C610 0.931 . S
C595 H583 0.929 . S
C595 C589 1.390 . S
C595 C592 1.386 . S
C596 C591 1.490 . S
C596 C598 1.395 1_455 S
C596 C599 1.403 1_556 S
H597 C603 0.930 . S
C598 H584 0.930 . S
C598 C596 1.395 1_655 S
C598 C601 1.403 . S
C599 C596 1.403 1_554 S
C599 C600 1.524 . S
C599 C603 1.400 . S
C600 H585 0.960 . S
C600 H586 0.960 . S
C600 H587 0.960 . S
C600 C599 1.524 . S
C601 C598 1.403 . S
C601 C602 1.392 1_656 S
C601 C605 1.495 . S
C602 C601 1.392 1_454 S
C602 C603 1.385 . S
C602 C604 1.478 . S
C603 H597 0.930 . S
C603 C599 1.400 . S
C603 C602 1.385 . S
C604 C602 1.478 . S
C604 C606 1.381 1_455 S
C604 C610 1.383 . S
C605 C601 1.495 . S
C605 H611 0.959 . S
C605 H612 0.961 1_655 S
C605 H613 0.960 . S
C606 C604 1.381 1_655 S
C606 C607 1.394 . S
C606 H614 0.930 . S
C607 C606 1.394 . S
C607 C608 1.383 1_655 S
C607 H615 0.929 . S
C608 C607 1.383 1_455 S
C608 C609 1.377 . S
C609 H593 0.930 . S
C609 C608 1.377 . S
C609 C610 1.379 . S
C610 H594 0.931 . S
C610 C604 1.383 . S
C610 C609 1.379 . S
H611 C605 0.959 . S
H612 C605 0.961 1_455 S
H613 C605 0.960 . S
H614 C606 0.930 . S
H615 C607 0.929 . S
H616 C624 0.929 . S
H617 C626 0.930 . S
H618 C628 0.930 . S
H619 C631 0.929 . S
H620 C634 0.930 . S
H621 C636 0.960 . S
H622 C636 0.960 . S
H623 C636 0.960 . S
C624 H616 0.929 . S
C624 C625 1.377 . S
C624 C626 1.384 . S
C625 C624 1.377 . S
C625 C631 1.390 . S
C626 H617 0.930 . S
C626 C624 1.384 . S
C626 C627 1.372 . S
C627 C626 1.372 . S
C627 C628 1.400 . S
C627 C632 1.490 . S
C628 H618 0.930 . S
C628 C627 1.400 . S
C628 C631 1.386 . S
H629 C645 0.930 . S
H630 C646 0.931 . S
C631 H619 0.929 . S
C631 C625 1.390 . S
C631 C628 1.386 . S
C632 C627 1.490 . S
C632 C634 1.395 . S
C632 C635 1.403 . S
H633 C639 0.930 . S
C634 H620 0.930 . S
C634 C632 1.395 . S
C634 C637 1.403 . S
C635 C632 1.403 . S
C635 C636 1.524 . S
C635 C639 1.400 . S
C636 H621 0.960 . S
C636 H622 0.960 . S
C636 H623 0.960 . S
C636 C635 1.524 . S
C637 C634 1.403 . S
C637 C638 1.392 . S
C637 C641 1.495 . S
C638 C637 1.392 . S
C638 C639 1.385 . S
C638 C640 1.478 . S
C639 H633 0.930 . S
C639 C635 1.400 . S
C639 C638 1.385 . S
C640 C638 1.478 . S
C640 C642 1.381 . S
C640 C646 1.383 . S
C641 C637 1.495 . S
C641 H647 0.959 . S
C641 H648 0.961 . S
C641 H649 0.960 . S
C642 C640 1.381 . S
C642 C643 1.394 . S
C642 H650 0.930 . S
C643 C642 1.394 . S
C643 C644 1.383 . S
C643 H651 0.929 . S
C644 C643 1.383 . S
C644 C645 1.377 . S
C645 H629 0.930 . S
C645 C644 1.377 . S
C645 C646 1.379 . S
C646 H630 0.931 . S
C646 C640 1.383 . S
C646 C645 1.379 . S
H647 C641 0.959 . S
H648 C641 0.961 . S
H649 C641 0.960 . S
H650 C642 0.930 . S
H651 C643 0.929 . S
H652 C660 0.929 . S
H653 C662 0.930 . S
H654 C664 0.930 . S
H655 C667 0.929 . S
H656 C670 0.930 . S
H657 C672 0.960 1_545 S
H658 C672 0.960 . S
H659 C672 0.960 . S
C660 H652 0.929 . S
C660 C661 1.377 . S
C660 C662 1.384 . S
C661 C660 1.377 . S
C661 C667 1.390 . S
C662 H653 0.930 . S
C662 C660 1.384 . S
C662 C663 1.372 . S
C663 C662 1.372 . S
C663 C664 1.400 . S
C663 C668 1.490 . S
C664 H654 0.930 . S
C664 C663 1.400 . S
C664 C667 1.386 . S
H665 C681 0.930 . S
H666 C682 0.931 . S
C667 H655 0.929 . S
C667 C661 1.390 . S
C667 C664 1.386 . S
C668 C663 1.490 . S
C668 C670 1.395 . S
C668 C671 1.403 . S
H669 C675 0.930 . S
C670 H656 0.930 . S
C670 C668 1.395 . S
C670 C673 1.403 1_565 S
C671 C668 1.403 . S
C671 C672 1.524 . S
C671 C675 1.400 1_565 S
C672 H657 0.960 1_565 S
C672 H658 0.960 . S
C672 H659 0.960 . S
C672 C671 1.524 . S
C673 C670 1.403 1_545 S
C673 C674 1.392 . S
C673 C677 1.495 . S
C674 C673 1.392 . S
C674 C675 1.385 . S
C674 C676 1.478 . S
C675 H669 0.930 . S
C675 C671 1.400 1_545 S
C675 C674 1.385 . S
C676 C674 1.478 . S
C676 C678 1.381 . S
C676 C682 1.383 . S
C677 C673 1.495 . S
C677 H683 0.959 1_545 S
C677 H684 0.961 . S
C677 H685 0.960 . S
C678 C676 1.381 . S
C678 C679 1.394 . S
C678 H686 0.930 . S
C679 C678 1.394 . S
C679 C680 1.383 . S
C679 H687 0.929 . S
C680 C679 1.383 . S
C680 C681 1.377 . S
C681 H665 0.930 . S
C681 C680 1.377 . S
C681 C682 1.379 . S
C682 H666 0.931 . S
C682 C676 1.383 . S
C682 C681 1.379 . S
H683 C677 0.959 1_565 S
H684 C677 0.961 . S
H685 C677 0.960 . S
H686 C678 0.930 . S
H687 C679 0.929 . S
C121 C23 1.388 . S
C140 C9 1.403 . S
C157 C37 1.392 . S
C176 C51 1.406 . S
C193 C65 1.393 . S
C212 C79 1.373 . S
C229 C93 1.396 . S
C248 C107 1.376 . S
C265 C101 1.420 . S
C284 C3 1.413 . S
C301 C87 1.419 . S
C320 C17 1.407 . S
C337 C31 1.423 . S
C356 C73 1.426 . S
C373 C59 1.423 . S
C392 C45 1.425 . S
C409 C77 1.323 . S
C428 C35 1.300 . S
C445 C63 1.322 . S
C464 C49 1.313 . S
C481 C105 1.322 . S
C500 C7 1.303 . S
C517 C21 1.332 . S
C536 C91 1.345 . S
C553 C8 1.331 . S
C572 C36 1.325 . S
C589 C50 1.330 . S
C608 C22 1.325 . S
C625 C92 1.333 . S
C644 C64 1.330 . S
C661 C78 1.331 . S
C680 C106 1.333 . S
