# Generated by pormake.
# Topology hcp, (12)-cn, num edge types: 1
# Building blocks:
#     Node 0, Type 0, BuildingBlock: ZALLEG_clean_sbu_0, # of connection points: 12
#     Node 1, Type 0, BuildingBlock: ZALLEG_clean_sbu_0, # of connection points: 12
#     Edge 2, Type (0, 0), BuildingBlock: UKIBIB_clean_linker_0, # of connection points: 2
#     Edge 3, Type (0, 0), BuildingBlock: UKIBIB_clean_linker_0, # of connection points: 2
#     Edge 4, Type (0, 0), BuildingBlock: UKIBIB_clean_linker_0, # of connection points: 2
#     Edge 5, Type (0, 0), BuildingBlock: UKIBIB_clean_linker_0, # of connection points: 2
#     Edge 6, Type (0, 0), BuildingBlock: UKIBIB_clean_linker_0, # of connection points: 2
#     Edge 7, Type (0, 0), BuildingBlock: UKIBIB_clean_linker_0, # of connection points: 2
#     Edge 8, Type (0, 0), BuildingBlock: UKIBIB_clean_linker_0, # of connection points: 2
#     Edge 9, Type (0, 0), BuildingBlock: UKIBIB_clean_linker_0, # of connection points: 2
#     Edge 10, Type (0, 0), BuildingBlock: UKIBIB_clean_linker_0, # of connection points: 2
#     Edge 11, Type (0, 0), BuildingBlock: UKIBIB_clean_linker_0, # of connection points: 2
#     Edge 12, Type (0, 0), BuildingBlock: UKIBIB_clean_linker_0, # of connection points: 2
#     Edge 13, Type (0, 0), BuildingBlock: UKIBIB_clean_linker_0, # of connection points: 2
# Relax obj value: 0.186
# Max RMSD: 0.270
# Mean RMSD: 0.270
data_MOF--net-hcp--node1-ZALLEG_clean_sbu_0--edge1-UKIBIB_clean_linker_0
_symmetry_space_group_name_H-M    P1
_symmetry_Int_Tables_number       1
_symmetry_cell_setting            triclinic
loop_
_symmetry_equiv_pos_as_xyz
'x, y, z'
_cell_length_a     23.996021
_cell_length_b     23.994127
_cell_length_c     37.574218
_cell_angle_alpha  89.990733
_cell_angle_beta   90.162973
_cell_angle_gamma 119.99142
loop_
_atom_site_label
_atom_site_type_symbol
_atom_site_fract_x
_atom_site_fract_y
_atom_site_fract_z
_atom_type_partial_charge
H0 H 0.58907 0.17985 0.25597 0.0
O1 O 0.60769 0.22461 0.26446 0.0
Tb2 Tb 0.55468 0.26774 0.24587 0.0
Tb3 Tb 0.61176 0.22645 0.32036 0.0
Tb4 Tb 0.70146 0.2795 0.24609 0.0
O5 O 0.55326 0.26368 0.30201 0.0
O6 O 0.64874 0.32084 0.22573 0.0
O7 O 0.59428 0.36141 0.26487 0.0
O8 O 0.64895 0.31986 0.3405 0.0
O9 O 0.74452 0.37523 0.26501 0.0
O10 O 0.70557 0.28116 0.30219 0.0
H11 H 0.50887 0.23823 0.31106 0.0
H12 H 0.64866 0.32081 0.19941 0.0
Tb13 Tb 0.5928 0.35732 0.32077 0.0
Tb14 Tb 0.6902 0.41481 0.24648 0.0
H15 H 0.56819 0.38008 0.25637 0.0
H16 H 0.64879 0.31969 0.36677 0.0
Tb17 Tb 0.7425 0.3765 0.32098 0.0
H18 H 0.78919 0.4012 0.25648 0.0
H19 H 0.73127 0.2624 0.31125 0.0
O20 O 0.68832 0.4164 0.30262 0.0
H21 H 0.70705 0.4608 0.31179 0.0
O22 O 0.47911 0.1694 0.25807 0.0
O23 O 0.81827 0.47478 0.31014 0.0
O24 O 0.76239 0.33461 0.3662 0.0
O25 O 0.54183 0.32031 0.19985 0.0
O26 O 0.63684 0.15212 0.30978 0.0
O27 O 0.66498 0.48909 0.25818 0.0
O28 O 0.7554 0.42823 0.20037 0.0
O29 O 0.55004 0.20588 0.3654 0.0
O30 O 0.64987 0.21459 0.1999 0.0
O31 O 0.63358 0.41813 0.36636 0.0
O32 O 0.49438 0.33427 0.30988 0.0
O33 O 0.80031 0.30338 0.25804 0.0
O34 O 0.51904 0.13911 0.30852 0.0
O35 O 0.78181 0.5029 0.25785 0.0
O36 O 0.63868 0.42165 0.201 0.0
O37 O 0.66929 0.23017 0.36897 0.0
O38 O 0.46678 0.2718 0.2569 0.0
O39 O 0.82981 0.37106 0.30944 0.0
O40 O 0.73828 0.43026 0.36958 0.0
O41 O 0.54744 0.20792 0.20079 0.0
O42 O 0.5383 0.29867 0.36884 0.0
O43 O 0.7595 0.33127 0.20071 0.0
O44 O 0.69803 0.18784 0.25653 0.0
O45 O 0.598 0.45004 0.30966 0.0
C46 C 0.4746 0.12798 0.28343 0.0
C47 C 0.82454 0.51522 0.28398 0.0
C48 C 0.72707 0.27722 0.38107 0.0
C49 C 0.58069 0.38075 0.18776 0.0
C50 C 0.67048 0.14604 0.28326 0.0
C51 C 0.62862 0.49357 0.28386 0.0
C52 C 0.77648 0.3893 0.1877 0.0
C53 C 0.52752 0.24065 0.38048 0.0
C54 C 0.58932 0.19204 0.18774 0.0
C55 C 0.69085 0.44047 0.38153 0.0
C56 C 0.45401 0.301 0.28343 0.0
C57 C 0.84163 0.33937 0.28375 0.0
H58 H 0.17467 0.59796 0.75477 0.0
O59 O 0.21931 0.61548 0.76329 0.0
Tb60 Tb 0.22219 0.61995 0.81926 0.0
Tb61 Tb 0.25928 0.55974 0.74471 0.0
Tb62 Tb 0.27624 0.7089 0.7445 0.0
O63 O 0.25664 0.55908 0.80098 0.0
O64 O 0.27883 0.7133 0.80045 0.0
O65 O 0.31582 0.65554 0.8386 0.0
O66 O 0.35337 0.59738 0.76321 0.0
O67 O 0.37231 0.74972 0.76277 0.0
O68 O 0.31472 0.65356 0.72414 0.0
H69 H 0.23028 0.51497 0.81034 0.0
H70 H 0.26112 0.74004 0.80922 0.0
Tb71 Tb 0.35089 0.59719 0.81911 0.0
Tb72 Tb 0.37434 0.74845 0.81863 0.0
H73 H 0.31556 0.65616 0.86484 0.0
H74 H 0.37095 0.57026 0.75491 0.0
Tb75 Tb 0.40904 0.69272 0.74421 0.0
H76 H 0.39926 0.79435 0.75433 0.0
H77 H 0.31461 0.65351 0.69781 0.0
O78 O 0.41161 0.6919 0.80044 0.0
H79 H 0.45584 0.70947 0.80971 0.0
O80 O 0.13336 0.52779 0.80836 0.0
O81 O 0.49865 0.78378 0.75493 0.0
O82 O 0.41344 0.63779 0.69928 0.0
O83 O 0.22821 0.68101 0.8669 0.0
O84 O 0.20115 0.55512 0.69881 0.0
O85 O 0.42462 0.74233 0.86826 0.0
O86 O 0.37116 0.83718 0.80689 0.0
O87 O 0.26147 0.4706 0.75624 0.0
O88 O 0.18523 0.70735 0.75522 0.0
O89 O 0.44257 0.5999 0.80793 0.0
O90 O 0.29384 0.5462 0.86821 0.0
O91 O 0.32941 0.76769 0.69941 0.0
O92 O 0.1593 0.48724 0.75665 0.0
O93 O 0.47446 0.82066 0.80829 0.0
O94 O 0.33433 0.77131 0.86333 0.0
O95 O 0.30908 0.54414 0.69861 0.0
O96 O 0.20221 0.56003 0.86539 0.0
O97 O 0.42344 0.75791 0.69804 0.0
O98 O 0.48207 0.66582 0.75604 0.0
O99 O 0.14907 0.64656 0.80865 0.0
O100 O 0.32493 0.49786 0.8089 0.0
O101 O 0.30205 0.8082 0.75614 0.0
O102 O 0.21101 0.65908 0.69854 0.0
O103 O 0.41291 0.63791 0.86443 0.0
C104 C 0.11927 0.48383 0.78254 0.0
C105 C 0.51382 0.82586 0.78176 0.0
C106 C 0.36965 0.58054 0.6863 0.0
C107 C 0.27666 0.7388 0.87826 0.0
C108 C 0.18793 0.59902 0.68577 0.0
C109 C 0.43348 0.6942 0.88047 0.0
C110 C 0.33918 0.84954 0.7815 0.0
C111 C 0.2907 0.45736 0.78273 0.0
C112 C 0.14344 0.68046 0.78206 0.0
C113 C 0.48607 0.62951 0.78199 0.0
C114 C 0.23725 0.53789 0.88066 0.0
C115 C 0.38659 0.78205 0.68619 0.0
C116 C 0.30273 0.8396 0.90935 0.0
C117 C 0.27223 0.77183 0.91063 0.0
C118 C 0.32766 0.87674 0.94012 0.0
C119 C 0.49779 0.09132 0.16358 0.0
C120 C 0.56205 0.14124 0.15993 0.0
C121 C 0.46671 0.04678 0.13629 0.0
H122 H 0.23723 0.69035 0.94604 0.0
H123 H 0.27952 0.75568 1.00051 0.0
H124 H 0.64468 0.18228 0.12505 0.0
H125 H 0.58953 0.10352 0.07662 0.0
C126 C 0.26039 0.74209 0.94412 0.0
C127 C 0.28525 0.77955 0.9752 0.0
C128 C 0.59542 0.14412 0.12868 0.0
C129 C 0.56381 0.09943 0.10101 0.0
C130 C 0.32169 0.84707 0.97303 0.0
C131 C 0.35816 0.88624 1.00328 0.0
C132 C 0.39038 0.923 1.02684 0.0
C133 C 0.49891 0.05109 0.10455 0.0
C134 C 0.46379 0.00691 0.07569 0.0
C135 C 0.43065 0.9681 0.05314 0.0
H136 H 0.31333 0.8642 0.88392 0.0
H137 H 0.35534 0.9287 0.93778 0.0
H138 H 0.47089 0.08737 0.1875 0.0
H139 H 0.41686 0.00975 0.13971 0.0
C140 C 0.45048 0.55188 0.66603 0.0
C141 C 0.3946 0.55495 0.65852 0.0
C142 C 0.48299 0.53953 0.63907 0.0
C143 C 0.67736 0.52155 0.41469 0.0
C144 C 0.69548 0.47399 0.4154 0.0
C145 C 0.65023 0.53355 0.44461 0.0
H146 H 0.3286 0.54708 0.6169 0.0
H147 H 0.38576 0.52495 0.56925 0.0
H148 H 0.70194 0.40409 0.44887 0.0
H149 H 0.65705 0.4273 0.50195 0.0
C150 C 0.37072 0.54358 0.62351 0.0
C151 C 0.40371 0.53158 0.59631 0.0
C152 C 0.69091 0.44268 0.44781 0.0
C153 C 0.6639 0.45498 0.47795 0.0
C154 C 0.46065 0.53049 0.60388 0.0
C155 C 0.49788 0.52259 0.57581 0.0
C156 C 0.53097 0.51624 0.55356 0.0
C157 C 0.64097 0.4986 0.47603 0.0
C158 C 0.60281 0.50349 0.50466 0.0
C159 C 0.57065 0.50959 0.52762 0.0
H160 H 0.4701 0.56093 0.69278 0.0
H161 H 0.52666 0.53884 0.64559 0.0
H162 H 0.678 0.54477 0.38982 0.0
H163 H 0.63262 0.56714 0.4424 0.0
C164 C 0.84096 0.4646 0.13686 0.0
C165 C 0.82464 0.41045 0.15828 0.0
C166 C 0.88587 0.48104 0.10901 0.0
C167 C 0.16185 0.4512 0.92152 0.0
C168 C 0.21428 0.51372 0.91687 0.0
C169 C 0.12034 0.43677 0.95078 0.0
H170 H 0.84556 0.33288 0.16749 0.0
H171 H 0.92201 0.3616 0.11962 0.0
H172 H 0.26258 0.60983 0.93897 0.0
H173 H 0.19267 0.58429 0.99038 0.0
C174 C 0.85542 0.37436 0.1515 0.0
C175 C 0.89978 0.39077 0.12404 0.0
C176 C 0.22581 0.56028 0.94301 0.0
C177 C 0.18458 0.54608 0.97203 0.0
C178 C 0.91517 0.4438 0.10244 0.0
C179 C 0.96075 0.45826 0.07374 0.0
C180 C -0.00079 0.46462 0.05096 0.0
C181 C 0.13028 0.48497 0.97544 0.0
C182 C 0.08218 0.4746 1.00199 0.0
C183 C 0.04405 0.46931 1.02473 0.0
H184 H 0.81868 0.49364 0.14132 0.0
H185 H 0.89742 0.52249 0.09256 0.0
H186 H 0.14967 0.41523 0.90096 0.0
H187 H 0.07826 0.38929 0.95281 0.0
C188 C 0.44025 0.82978 0.6271 0.0
C189 C 0.41101 0.8333 0.65871 0.0
C190 C 0.45378 0.87498 0.59973 0.0
C191 C 0.52129 0.23943 0.44668 0.0
C192 C 0.49299 0.21109 0.4139 0.0
C193 C 0.50912 0.20098 0.4772 0.0
H194 H 0.37643 0.88876 0.68722 0.0
H195 H 0.40072 0.96717 0.63993 0.0
H196 H 0.42688 0.12107 0.38795 0.0
H197 H 0.405 0.05477 0.44109 0.0
C198 C 0.39842 0.88433 0.66302 0.0
C199 C 0.41226 0.92932 0.636 0.0
C200 C 0.44789 0.14466 0.41305 0.0
C201 C 0.43615 0.10643 0.44332 0.0
C202 C 0.43888 0.92441 0.60392 0.0
C203 C 0.44837 0.96917 0.57538 0.0
C204 C 0.45455 0.00852 0.55313 0.0
C205 C 0.46869 0.13386 0.47519 0.0
C206 C 0.46525 0.09216 0.5042 0.0
C207 C 0.46013 0.05445 0.52725 0.0
H208 H 0.44996 0.79077 0.62296 0.0
H209 H 0.47441 0.87044 0.57505 0.0
H210 H 0.55778 0.28988 0.44793 0.0
H211 H 0.53475 0.22309 0.50163 0.0
C212 C 0.58938 0.47667 0.15684 0.0
C213 C 0.55926 0.40897 0.15913 0.0
C214 C 0.5748 0.50643 0.12947 0.0
C215 C 0.40604 0.64233 0.93867 0.0
C216 C 0.45269 0.69235 0.91768 0.0
C217 C 0.42312 0.61854 0.96798 0.0
H218 H 0.48811 0.31972 0.13454 0.0
H219 H 0.46245 0.37279 0.08581 0.0
H220 H 0.55478 0.75777 0.91172 0.0
H221 H 0.58536 0.71769 0.96474 0.0
C222 C 0.51226 0.37174 0.13357 0.0
C223 C 0.49778 0.40204 0.10573 0.0
C224 C 0.51752 0.72098 0.92813 0.0
C225 C 0.53495 0.6973 0.95802 0.0
C226 C 0.52968 0.46966 0.10347 0.0
C227 C 0.51833 0.5029 0.07458 0.0
C228 C 0.51377 0.5368 0.0522 0.0
C229 C 0.48775 0.64428 0.97721 0.0
C230 C 0.50415 0.61118 1.00394 0.0
C231 C 0.5102 0.57849 1.02653 0.0
H232 H 0.62514 0.5074 0.17615 0.0
H233 H 0.59963 0.55856 0.12842 0.0
H234 H 0.35669 0.61657 0.92992 0.0
H235 H 0.38597 0.57703 0.98193 0.0
C236 C 0.72882 0.27913 0.44711 0.0
C237 C 0.75497 0.2721 0.41513 0.0
C238 C 0.76812 0.30578 0.47734 0.0
C239 C 0.16029 0.57343 0.62153 0.0
C240 C 0.14076 0.57619 0.65636 0.0
C241 C 0.11445 0.53937 0.59494 0.0
H242 H 0.84196 0.28492 0.3903 0.0
H243 H 0.90967 0.32927 0.44325 0.0
H244 H 0.05864 0.5449 0.69106 0.0
H245 H 0.97828 0.48576 0.64438 0.0
C246 C 0.81981 0.28738 0.41492 0.0
C247 C 0.85893 0.31394 0.44501 0.0
C248 C 0.07471 0.54511 0.6641 0.0
C249 C 0.0289 0.51085 0.63757 0.0
C250 C 0.83399 0.32567 0.47596 0.0
C251 C 0.87732 0.36332 0.50465 0.0
C252 C 0.9154 0.39492 0.52787 0.0
C253 C 0.04849 0.50688 0.60295 0.0
C254 C 0.00121 0.46722 0.57626 0.0
C255 C 0.96155 0.43403 0.55407 0.0
H256 H 0.67996 0.27044 0.44767 0.0
H257 H 0.748 0.31477 0.50095 0.0
H258 H 0.211 0.59549 0.61526 0.0
H259 H 0.13062 0.53668 0.56843 0.0
C260 C 0.68389 0.06208 0.25121 0.0
C261 C 0.67528 0.08722 0.2832 0.0
C262 C 0.68079 0.00233 0.25094 0.0
C263 C 0.60738 0.57325 0.31522 0.0
C264 C 0.62374 0.55242 0.284 0.0
C265 C 0.60916 0.63239 0.31585 0.0
H266 H 0.661 0.07186 0.34019 0.0
H267 H 0.65611 0.96768 0.3395 0.0
H268 H 0.65117 0.57539 0.22857 0.0
H269 H 0.65346 0.67811 0.22984 0.0
C270 C 0.66683 0.05322 0.31507 0.0
C271 C 0.66421 -0.00611 0.31478 0.0
C272 C 0.63898 0.59033 0.25311 0.0
C273 C 0.64023 0.64897 0.25373 0.0
C274 C 0.66971 0.96771 0.28265 0.0
C275 C 0.66044 0.90388 0.28227 0.0
C276 C 0.65227 0.85026 0.28342 0.0
C277 C 0.62665 0.6707 0.28524 0.0
C278 C 0.63427 0.73386 0.28628 0.0
C279 C 0.64162 0.78718 0.28528 0.0
H280 H 0.69033 0.0872 0.22626 0.0
H281 H 0.68521 0.98243 0.22592 0.0
H282 H 0.59551 0.54513 0.33943 0.0
H283 H 0.59852 0.64887 0.34039 0.0
C284 C 0.05823 0.69242 0.75004 0.0
C285 C 0.08473 0.68565 0.78205 0.0
C286 C -0.00188 0.68871 0.74999 0.0
C287 C 0.5678 0.61262 0.81457 0.0
C288 C 0.5451 0.62483 0.78262 0.0
C289 C 0.62775 0.61605 0.81563 0.0
H290 H 0.07126 0.67384 0.83926 0.0
H291 H 0.96663 0.66794 0.83895 0.0
H292 H 0.5657 0.64667 0.72646 0.0
H293 H 0.66975 0.65163 0.72848 0.0
C294 C 0.05168 0.67842 0.81412 0.0
C295 C -0.00798 0.67516 0.81404 0.0
C296 C 0.58202 0.63752 0.75153 0.0
C297 C 0.64146 0.64037 0.75259 0.0
C298 C 0.96445 0.67882 0.78194 0.0
C299 C 0.90021 0.66886 0.78189 0.0
C300 C 0.84634 0.66021 0.78324 0.0
C301 C 0.66509 0.63103 0.78474 0.0
C302 C 0.72901 0.64025 0.78601 0.0
C303 C 0.78284 0.64873 0.78515 0.0
H304 H 0.08247 0.6977 0.72493 0.0
H305 H 0.97719 0.69166 0.72497 0.0
H306 H 0.54061 0.60309 0.83898 0.0
H307 H 0.64562 0.60873 0.84069 0.0
C308 C 0.41027 0.01065 0.29839 0.0
C309 C 0.41353 0.06673 0.28474 0.0
C310 C 0.3513 0.95304 0.29925 0.0
C311 C 0.88902 0.63276 0.26943 0.0
C312 C 0.88549 0.57663 0.28321 0.0
C313 C 0.94786 0.69059 0.26934 0.0
H314 H 0.35802 0.10735 0.26237 0.0
H315 H 0.2555 0.00695 0.26424 0.0
H316 H 0.94028 0.53611 0.30659 0.0
H317 H 0.04266 0.63684 0.30596 0.0
C318 C 0.35712 0.0646 0.27247 0.0
C319 C 0.2985 0.00748 0.27367 0.0
C320 C 0.94146 0.57891 0.29636 0.0
C321 C -3e-05 0.63622 0.29589 0.0
C322 C 0.29545 0.95164 0.28687 0.0
C323 C 0.23447 0.89341 0.28728 0.0
C324 C 0.18097 0.84783 0.28626 0.0
C325 C 0.0033 0.69213 0.28257 0.0
C326 C 0.06423 0.75045 0.28268 0.0
C327 C 0.11762 0.79614 0.28416 0.0
H328 H 0.45319 0.01116 0.30791 0.0
H329 H 0.34931 0.90985 0.30947 0.0
H330 H 0.84639 0.63211 0.25928 0.0
H331 H 0.95008 0.73382 0.25901 0.0
C332 C 0.2484 0.34458 0.75948 0.0
C333 C 0.28878 0.39478 0.78272 0.0
C334 C 0.25024 0.2871 0.75906 0.0
C335 C 0.37987 0.9606 0.80677 0.0
C336 C 0.34113 0.91209 0.78224 0.0
C337 C 0.37738 0.01766 0.80837 0.0
H338 H 0.36247 0.42343 0.82379 0.0
H339 H 0.36519 0.32383 0.82266 0.0
H340 H 0.27017 0.88632 0.73986 0.0
H341 H 0.26623 0.98518 0.74307 0.0
C342 C 0.33023 0.38592 0.80568 0.0
C343 C 0.33212 0.32898 0.80509 0.0
C344 C 0.30094 0.9224 0.75905 0.0
C345 C 0.29839 0.97893 0.76081 0.0
C346 C 0.29261 0.27967 0.78172 0.0
C347 C 0.29778 0.22266 0.78093 0.0
C348 C 0.30698 0.1779 0.78298 0.0
C349 C 0.33605 0.0264 0.78556 0.0
C350 C 0.33028 0.08299 0.78744 0.0
C351 C 0.32058 0.12748 0.78606 0.0
H352 H 0.21588 0.34981 0.74156 0.0
H353 H 0.21932 0.24897 0.74086 0.0
H354 H 0.41136 0.95425 0.82496 0.0
H355 H 0.40694 0.05437 0.8276 0.0
C356 C 0.38511 0.34495 0.30365 0.0
C357 C 0.39192 0.29962 0.28317 0.0
C358 C 0.32787 0.34624 0.30309 0.0
C359 C 0.9118 0.2966 0.26381 0.0
C360 C 0.904 0.34129 0.2843 0.0
C361 C 0.96916 0.29559 0.26497 0.0
H362 H 0.34355 0.21942 0.24644 0.0
H363 H 0.24222 0.22186 0.24573 0.0
H364 H 0.95095 0.42089 0.32158 0.0
H365 H 0.0524 0.41892 0.32331 0.0
C366 C 0.33978 0.25505 0.26233 0.0
C367 C 0.28205 0.25627 0.26195 0.0
C368 C 0.9554 0.3857 0.30565 0.0
C369 C 0.01323 0.38473 0.30665 0.0
C370 C 0.27642 0.30223 0.28221 0.0
C371 C 0.21882 0.30613 0.28158 0.0
C372 C 0.17366 0.31459 0.28341 0.0
C373 C 0.01976 0.33926 0.28645 0.0
C374 C 0.07745 0.33559 0.28772 0.0
C375 C 0.12266 0.32715 0.28627 0.0
H376 H 0.42438 0.38044 0.31973 0.0
H377 H 0.32404 0.3821 0.31876 0.0
H378 H 0.87322 0.26136 0.24726 0.0
H379 H 0.97375 0.26015 0.24931 0.0
C380 C 0.02976 0.38945 0.75164 0.0
C381 C 0.05539 0.42509 0.78311 0.0
C382 C 0.97322 0.32993 0.75251 0.0
C383 C 0.60351 0.91823 0.81385 0.0
C384 C 0.57793 0.88439 0.78185 0.0
C385 C 0.6599 0.97791 0.81376 0.0
H386 H 0.04051 0.42769 0.83989 0.0
H387 H 0.94108 0.32267 0.84123 0.0
H388 H 0.59296 0.88514 0.7249 0.0
H389 H 0.69214 -0.00956 0.72491 0.0
C390 C 0.02176 0.40137 0.81523 0.0
C391 C 0.96522 0.34142 0.81607 0.0
C392 C 0.61162 0.91003 0.74995 0.0
C393 C 0.66801 0.97015 0.74989 0.0
C394 C 0.94164 0.3051 0.7848 0.0
C395 C 0.88729 0.24091 0.7858 0.0
C396 C 0.84212 0.18693 0.78483 0.0
C397 C 0.69141 0.00472 0.78171 0.0
C398 C 0.74543 0.06915 0.78155 0.0
C399 C 0.7904 0.12321 0.78288 0.0
H400 H 0.05412 0.40692 0.72641 0.0
H401 H 0.95518 0.30249 0.7281 0.0
H402 H 0.57913 0.89933 0.83894 0.0
H403 H 0.67779 0.00396 0.83859 0.0
loop_
_geom_bond_atom_site_label_1
_geom_bond_atom_site_label_2
_geom_bond_distance
_geom_bond_site_symmetry_2
_ccdc_geom_bond_type
H0 O1 0.850 . S
O1 H0 0.850 . S
O1 Tb2 2.341 . S
O1 Tb3 2.341 . S
O1 Tb4 2.341 . S
Tb2 O1 2.341 . S
Tb2 O5 2.341 . S
Tb2 O6 2.341 . S
Tb2 O7 2.341 . S
Tb2 O22 2.344 . S
Tb2 O25 2.344 . S
Tb2 O38 2.344 . S
Tb2 O41 2.344 . S
Tb3 O1 2.341 . S
Tb3 O5 2.341 . S
Tb3 O8 2.341 . S
Tb3 O10 2.341 . S
Tb3 O26 2.344 . S
Tb3 O29 2.344 . S
Tb3 O34 2.344 . S
Tb3 O37 2.344 . S
Tb4 O1 2.341 . S
Tb4 O6 2.341 . S
Tb4 O9 2.341 . S
Tb4 O10 2.341 . S
Tb4 O30 2.344 . S
Tb4 O33 2.344 . S
Tb4 O43 2.344 . S
Tb4 O44 2.344 . S
O5 Tb2 2.341 . S
O5 Tb3 2.341 . S
O5 H11 0.850 . S
O5 Tb13 2.341 . S
O6 Tb2 2.341 . S
O6 Tb4 2.341 . S
O6 H12 0.850 . S
O6 Tb14 2.341 . S
O7 Tb2 2.341 . S
O7 Tb13 2.341 . S
O7 Tb14 2.341 . S
O7 H15 0.850 . S
O8 Tb3 2.341 . S
O8 Tb13 2.341 . S
O8 H16 0.850 . S
O8 Tb17 2.341 . S
O9 Tb4 2.341 . S
O9 Tb14 2.341 . S
O9 Tb17 2.341 . S
O9 H18 0.850 . S
O10 Tb3 2.341 . S
O10 Tb4 2.341 . S
O10 Tb17 2.341 . S
O10 H19 0.850 . S
H11 O5 0.850 . S
H12 O6 0.850 . S
Tb13 O5 2.341 . S
Tb13 O7 2.341 . S
Tb13 O8 2.341 . S
Tb13 O20 2.341 . S
Tb13 O31 2.344 . S
Tb13 O32 2.344 . S
Tb13 O42 2.344 . S
Tb13 O45 2.344 . S
Tb14 O6 2.341 . S
Tb14 O7 2.341 . S
Tb14 O9 2.341 . S
Tb14 O20 2.341 . S
Tb14 O27 2.344 . S
Tb14 O28 2.344 . S
Tb14 O35 2.344 . S
Tb14 O36 2.344 . S
H15 O7 0.850 . S
H16 O8 0.850 . S
Tb17 O8 2.341 . S
Tb17 O9 2.341 . S
Tb17 O10 2.341 . S
Tb17 O20 2.341 . S
Tb17 O23 2.344 . S
Tb17 O24 2.344 . S
Tb17 O39 2.344 . S
Tb17 O40 2.344 . S
H18 O9 0.850 . S
H19 O10 0.850 . S
O20 Tb13 2.341 . S
O20 Tb14 2.341 . S
O20 Tb17 2.341 . S
O20 H21 0.850 . S
H21 O20 0.850 . S
O22 Tb2 2.344 . S
O22 C46 1.272 . S
O23 Tb17 2.344 . S
O23 C47 1.272 . S
O24 Tb17 2.344 . S
O24 C48 1.272 . S
O25 Tb2 2.344 . S
O25 C49 1.272 . S
O26 Tb3 2.344 . S
O26 C50 1.272 . S
O27 Tb14 2.344 . S
O27 C51 1.272 . S
O28 Tb14 2.344 . S
O28 C52 1.272 . S
O29 Tb3 2.344 . S
O29 C53 1.272 . S
O30 Tb4 2.344 . S
O30 C54 1.272 . S
O31 Tb13 2.344 . S
O31 C55 1.272 . S
O32 Tb13 2.344 . S
O32 C56 1.272 . S
O33 Tb4 2.344 . S
O33 C57 1.272 . S
O34 Tb3 2.344 . S
O34 C46 1.272 . S
O35 Tb14 2.344 . S
O35 C47 1.272 . S
O36 Tb14 2.344 . S
O36 C49 1.272 . S
O37 Tb3 2.344 . S
O37 C48 1.272 . S
O38 Tb2 2.344 . S
O38 C56 1.272 . S
O39 Tb17 2.344 . S
O39 C57 1.272 . S
O40 Tb17 2.344 . S
O40 C55 1.272 . S
O41 Tb2 2.344 . S
O41 C54 1.272 . S
O42 Tb13 2.344 . S
O42 C53 1.272 . S
O43 Tb4 2.344 . S
O43 C52 1.272 . S
O44 Tb4 2.344 . S
O44 C50 1.272 . S
O45 Tb13 2.344 . S
O45 C51 1.272 . S
C46 O22 1.272 . S
C46 O34 1.272 . S
C47 O23 1.272 . S
C47 O35 1.272 . S
C48 O24 1.272 . S
C48 O37 1.272 . S
C49 O25 1.272 . S
C49 O36 1.272 . S
C50 O26 1.272 . S
C50 O44 1.272 . S
C51 O27 1.272 . S
C51 O45 1.272 . S
C52 O28 1.272 . S
C52 O43 1.272 . S
C53 O29 1.272 . S
C53 O42 1.272 . S
C54 O30 1.272 . S
C54 O41 1.272 . S
C55 O31 1.272 . S
C55 O40 1.272 . S
C56 O32 1.272 . S
C56 O38 1.272 . S
C57 O33 1.272 . S
C57 O39 1.272 . S
H58 O59 0.850 . S
O59 H58 0.850 . S
O59 Tb60 2.341 . S
O59 Tb61 2.341 . S
O59 Tb62 2.341 . S
Tb60 O59 2.341 . S
Tb60 O63 2.341 . S
Tb60 O64 2.341 . S
Tb60 O65 2.341 . S
Tb60 O80 2.344 . S
Tb60 O83 2.344 . S
Tb60 O96 2.344 . S
Tb60 O99 2.344 . S
Tb61 O59 2.341 . S
Tb61 O63 2.341 . S
Tb61 O66 2.341 . S
Tb61 O68 2.341 . S
Tb61 O84 2.344 . S
Tb61 O87 2.344 . S
Tb61 O92 2.344 . S
Tb61 O95 2.344 . S
Tb62 O59 2.341 . S
Tb62 O64 2.341 . S
Tb62 O67 2.341 . S
Tb62 O68 2.341 . S
Tb62 O88 2.344 . S
Tb62 O91 2.344 . S
Tb62 O101 2.344 . S
Tb62 O102 2.344 . S
O63 Tb60 2.341 . S
O63 Tb61 2.341 . S
O63 H69 0.850 . S
O63 Tb71 2.341 . S
O64 Tb60 2.341 . S
O64 Tb62 2.341 . S
O64 H70 0.850 . S
O64 Tb72 2.341 . S
O65 Tb60 2.341 . S
O65 Tb71 2.341 . S
O65 Tb72 2.341 . S
O65 H73 0.850 . S
O66 Tb61 2.341 . S
O66 Tb71 2.341 . S
O66 H74 0.850 . S
O66 Tb75 2.341 . S
O67 Tb62 2.341 . S
O67 Tb72 2.341 . S
O67 Tb75 2.341 . S
O67 H76 0.850 . S
O68 Tb61 2.341 . S
O68 Tb62 2.341 . S
O68 Tb75 2.341 . S
O68 H77 0.850 . S
H69 O63 0.850 . S
H70 O64 0.850 . S
Tb71 O63 2.341 . S
Tb71 O65 2.341 . S
Tb71 O66 2.341 . S
Tb71 O78 2.341 . S
Tb71 O89 2.344 . S
Tb71 O90 2.344 . S
Tb71 O100 2.344 . S
Tb71 O103 2.344 . S
Tb72 O64 2.341 . S
Tb72 O65 2.341 . S
Tb72 O67 2.341 . S
Tb72 O78 2.341 . S
Tb72 O85 2.344 . S
Tb72 O86 2.344 . S
Tb72 O93 2.344 . S
Tb72 O94 2.344 . S
H73 O65 0.850 . S
H74 O66 0.850 . S
Tb75 O66 2.341 . S
Tb75 O67 2.341 . S
Tb75 O68 2.341 . S
Tb75 O78 2.341 . S
Tb75 O81 2.344 . S
Tb75 O82 2.344 . S
Tb75 O97 2.344 . S
Tb75 O98 2.344 . S
H76 O67 0.850 . S
H77 O68 0.850 . S
O78 Tb71 2.341 . S
O78 Tb72 2.341 . S
O78 Tb75 2.341 . S
O78 H79 0.850 . S
H79 O78 0.850 . S
O80 Tb60 2.344 . S
O80 C104 1.272 . S
O81 Tb75 2.344 . S
O81 C105 1.272 . S
O82 Tb75 2.344 . S
O82 C106 1.272 . S
O83 Tb60 2.344 . S
O83 C107 1.272 . S
O84 Tb61 2.344 . S
O84 C108 1.272 . S
O85 Tb72 2.344 . S
O85 C109 1.272 . S
O86 Tb72 2.344 . S
O86 C110 1.272 . S
O87 Tb61 2.344 . S
O87 C111 1.272 . S
O88 Tb62 2.344 . S
O88 C112 1.272 . S
O89 Tb71 2.344 . S
O89 C113 1.272 . S
O90 Tb71 2.344 . S
O90 C114 1.272 . S
O91 Tb62 2.344 . S
O91 C115 1.272 . S
O92 Tb61 2.344 . S
O92 C104 1.272 . S
O93 Tb72 2.344 . S
O93 C105 1.272 . S
O94 Tb72 2.344 . S
O94 C107 1.272 . S
O95 Tb61 2.344 . S
O95 C106 1.272 . S
O96 Tb60 2.344 . S
O96 C114 1.272 . S
O97 Tb75 2.344 . S
O97 C115 1.272 . S
O98 Tb75 2.344 . S
O98 C113 1.272 . S
O99 Tb60 2.344 . S
O99 C112 1.272 . S
O100 Tb71 2.344 . S
O100 C111 1.272 . S
O101 Tb62 2.344 . S
O101 C110 1.272 . S
O102 Tb62 2.344 . S
O102 C108 1.272 . S
O103 Tb71 2.344 . S
O103 C109 1.272 . S
C104 O80 1.272 . S
C104 O92 1.272 . S
C105 O81 1.272 . S
C105 O93 1.272 . S
C106 O82 1.272 . S
C106 O95 1.272 . S
C107 O83 1.272 . S
C107 O94 1.272 . S
C108 O84 1.272 . S
C108 O102 1.272 . S
C109 O85 1.272 . S
C109 O103 1.272 . S
C110 O86 1.272 . S
C110 O101 1.272 . S
C111 O87 1.272 . S
C111 O100 1.272 . S
C112 O88 1.272 . S
C112 O99 1.272 . S
C113 O89 1.272 . S
C113 O98 1.272 . S
C114 O90 1.272 . S
C114 O96 1.272 . S
C115 O91 1.272 . S
C115 O97 1.272 . S
C116 C117 1.332 . S
C116 C118 1.345 . S
C116 H136 0.932 . S
C117 C116 1.332 . S
C117 C126 1.332 . S
C118 C116 1.345 . S
C118 C130 1.334 . S
C118 H137 0.928 . S
C119 C120 1.332 . S
C119 C121 1.345 . S
C119 H138 0.932 . S
C120 C119 1.332 . S
C120 C128 1.332 . S
C121 C119 1.345 . S
C121 C133 1.334 . S
C121 H139 0.928 . S
H122 C126 0.932 . S
H123 C127 0.928 . S
H124 C128 0.932 . S
H125 C129 0.928 . S
C126 C117 1.332 . S
C126 H122 0.932 . S
C126 C127 1.345 . S
C127 H123 0.928 . S
C127 C126 1.345 . S
C127 C130 1.334 . S
C128 C120 1.332 . S
C128 H124 0.932 . S
C128 C129 1.345 . S
C129 H125 0.928 . S
C129 C128 1.345 . S
C129 C133 1.334 . S
C130 C118 1.334 . S
C130 C127 1.334 . S
C130 C131 1.487 . S
C131 C130 1.487 . S
C131 C132 1.185 . S
C132 C131 1.185 . S
C132 C135 1.482 1_556 S
C133 C121 1.334 . S
C133 C129 1.334 . S
C133 C134 1.487 . S
C134 C133 1.487 . S
C134 C135 1.185 1_545 S
C135 C132 1.482 1_554 S
C135 C134 1.185 1_565 S
H136 C116 0.932 . S
H137 C118 0.928 . S
H138 C119 0.932 . S
H139 C121 0.928 . S
C140 C141 1.332 . S
C140 C142 1.345 . S
C140 H160 0.932 . S
C141 C140 1.332 . S
C141 C150 1.332 . S
C142 C140 1.345 . S
C142 C154 1.334 . S
C142 H161 0.928 . S
C143 C144 1.332 . S
C143 C145 1.345 . S
C143 H162 0.932 . S
C144 C143 1.332 . S
C144 C152 1.332 . S
C145 C143 1.345 . S
C145 C157 1.334 . S
C145 H163 0.928 . S
H146 C150 0.932 . S
H147 C151 0.928 . S
H148 C152 0.932 . S
H149 C153 0.928 . S
C150 C141 1.332 . S
C150 H146 0.932 . S
C150 C151 1.345 . S
C151 H147 0.928 . S
C151 C150 1.345 . S
C151 C154 1.334 . S
C152 C144 1.332 . S
C152 H148 0.932 . S
C152 C153 1.345 . S
C153 H149 0.928 . S
C153 C152 1.345 . S
C153 C157 1.334 . S
C154 C142 1.334 . S
C154 C151 1.334 . S
C154 C155 1.487 . S
C155 C154 1.487 . S
C155 C156 1.185 . S
C156 C155 1.185 . S
C156 C159 1.482 . S
C157 C145 1.334 . S
C157 C153 1.334 . S
C157 C158 1.487 . S
C158 C157 1.487 . S
C158 C159 1.185 . S
C159 C156 1.482 . S
C159 C158 1.185 . S
H160 C140 0.932 . S
H161 C142 0.928 . S
H162 C143 0.932 . S
H163 C145 0.928 . S
C164 C165 1.332 . S
C164 C166 1.345 . S
C164 H184 0.932 . S
C165 C164 1.332 . S
C165 C174 1.332 . S
C166 C164 1.345 . S
C166 C178 1.334 . S
C166 H185 0.928 . S
C167 C168 1.332 . S
C167 C169 1.345 . S
C167 H186 0.932 . S
C168 C167 1.332 . S
C168 C176 1.332 . S
C169 C167 1.345 . S
C169 C181 1.334 . S
C169 H187 0.928 . S
H170 C174 0.932 . S
H171 C175 0.928 . S
H172 C176 0.932 . S
H173 C177 0.928 . S
C174 C165 1.332 . S
C174 H170 0.932 . S
C174 C175 1.345 . S
C175 H171 0.928 . S
C175 C174 1.345 . S
C175 C178 1.334 . S
C176 C168 1.332 . S
C176 H172 0.932 . S
C176 C177 1.345 . S
C177 H173 0.928 . S
C177 C176 1.345 . S
C177 C181 1.334 . S
C178 C166 1.334 . S
C178 C175 1.334 . S
C178 C179 1.487 . S
C179 C178 1.487 . S
C179 C180 1.185 1_655 S
C180 C179 1.185 1_455 S
C180 C183 1.482 1_554 S
C181 C169 1.334 . S
C181 C177 1.334 . S
C181 C182 1.487 . S
C182 C181 1.487 . S
C182 C183 1.185 . S
C183 C180 1.482 1_556 S
C183 C182 1.185 . S
H184 C164 0.932 . S
H185 C166 0.928 . S
H186 C167 0.932 . S
H187 C169 0.928 . S
C188 C189 1.332 . S
C188 C190 1.345 . S
C188 H208 0.932 . S
C189 C188 1.332 . S
C189 C198 1.332 . S
C190 C188 1.345 . S
C190 C202 1.334 . S
C190 H209 0.928 . S
C191 C192 1.332 . S
C191 C193 1.345 . S
C191 H210 0.932 . S
C192 C191 1.332 . S
C192 C200 1.332 . S
C193 C191 1.345 . S
C193 C205 1.334 . S
C193 H211 0.928 . S
H194 C198 0.932 . S
H195 C199 0.928 . S
H196 C200 0.932 . S
H197 C201 0.928 . S
C198 C189 1.332 . S
C198 H194 0.932 . S
C198 C199 1.345 . S
C199 H195 0.928 . S
C199 C198 1.345 . S
C199 C202 1.334 . S
C200 C192 1.332 . S
C200 H196 0.932 . S
C200 C201 1.345 . S
C201 H197 0.928 . S
C201 C200 1.345 . S
C201 C205 1.334 . S
C202 C190 1.334 . S
C202 C199 1.334 . S
C202 C203 1.487 . S
C203 C202 1.487 . S
C203 C204 1.185 1_565 S
C204 C203 1.185 1_545 S
C204 C207 1.482 . S
C205 C193 1.334 . S
C205 C201 1.334 . S
C205 C206 1.487 . S
C206 C205 1.487 . S
C206 C207 1.185 . S
C207 C204 1.482 . S
C207 C206 1.185 . S
H208 C188 0.932 . S
H209 C190 0.928 . S
H210 C191 0.932 . S
H211 C193 0.928 . S
C212 C213 1.332 . S
C212 C214 1.345 . S
C212 H232 0.932 . S
C213 C212 1.332 . S
C213 C222 1.332 . S
C214 C212 1.345 . S
C214 C226 1.334 . S
C214 H233 0.928 . S
C215 C216 1.332 . S
C215 C217 1.345 . S
C215 H234 0.932 . S
C216 C215 1.332 . S
C216 C224 1.332 . S
C217 C215 1.345 . S
C217 C229 1.334 . S
C217 H235 0.928 . S
H218 C222 0.932 . S
H219 C223 0.928 . S
H220 C224 0.932 . S
H221 C225 0.928 . S
C222 C213 1.332 . S
C222 H218 0.932 . S
C222 C223 1.345 . S
C223 H219 0.928 . S
C223 C222 1.345 . S
C223 C226 1.334 . S
C224 C216 1.332 . S
C224 H220 0.932 . S
C224 C225 1.345 . S
C225 H221 0.928 . S
C225 C224 1.345 . S
C225 C229 1.334 . S
C226 C214 1.334 . S
C226 C223 1.334 . S
C226 C227 1.487 . S
C227 C226 1.487 . S
C227 C228 1.185 . S
C228 C227 1.185 . S
C228 C231 1.482 1_554 S
C229 C217 1.334 . S
C229 C225 1.334 . S
C229 C230 1.487 . S
C230 C229 1.487 . S
C230 C231 1.185 . S
C231 C228 1.482 1_556 S
C231 C230 1.185 . S
H232 C212 0.932 . S
H233 C214 0.928 . S
H234 C215 0.932 . S
H235 C217 0.928 . S
C236 C237 1.332 . S
C236 C238 1.345 . S
C236 H256 0.932 . S
C237 C236 1.332 . S
C237 C246 1.332 . S
C238 C236 1.345 . S
C238 C250 1.334 . S
C238 H257 0.928 . S
C239 C240 1.332 . S
C239 C241 1.345 . S
C239 H258 0.932 . S
C240 C239 1.332 . S
C240 C248 1.332 . S
C241 C239 1.345 . S
C241 C253 1.334 . S
C241 H259 0.928 . S
H242 C246 0.932 . S
H243 C247 0.928 . S
H244 C248 0.932 . S
H245 C249 0.928 1_655 S
C246 C237 1.332 . S
C246 H242 0.932 . S
C246 C247 1.345 . S
C247 H243 0.928 . S
C247 C246 1.345 . S
C247 C250 1.334 . S
C248 C240 1.332 . S
C248 H244 0.932 . S
C248 C249 1.345 . S
C249 H245 0.928 1_455 S
C249 C248 1.345 . S
C249 C253 1.334 . S
C250 C238 1.334 . S
C250 C247 1.334 . S
C250 C251 1.487 . S
C251 C250 1.487 . S
C251 C252 1.185 . S
C252 C251 1.185 . S
C252 C255 1.482 . S
C253 C241 1.334 . S
C253 C249 1.334 . S
C253 C254 1.487 . S
C254 C253 1.487 . S
C254 C255 1.185 1_455 S
C255 C252 1.482 . S
C255 C254 1.185 1_655 S
H256 C236 0.932 . S
H257 C238 0.928 . S
H258 C239 0.932 . S
H259 C241 0.928 . S
C260 C261 1.332 . S
C260 C262 1.345 . S
C260 H280 0.932 . S
C261 C260 1.332 . S
C261 C270 1.332 . S
C262 C260 1.345 . S
C262 C274 1.334 1_545 S
C262 H281 0.928 1_545 S
C263 C264 1.332 . S
C263 C265 1.345 . S
C263 H282 0.932 . S
C264 C263 1.332 . S
C264 C272 1.332 . S
C265 C263 1.345 . S
C265 C277 1.334 . S
C265 H283 0.928 . S
H266 C270 0.932 . S
H267 C271 0.928 1_565 S
H268 C272 0.932 . S
H269 C273 0.928 . S
C270 C261 1.332 . S
C270 H266 0.932 . S
C270 C271 1.345 . S
C271 H267 0.928 1_545 S
C271 C270 1.345 . S
C271 C274 1.334 1_545 S
C272 C264 1.332 . S
C272 H268 0.932 . S
C272 C273 1.345 . S
C273 H269 0.928 . S
C273 C272 1.345 . S
C273 C277 1.334 . S
C274 C262 1.334 1_565 S
C274 C271 1.334 1_565 S
C274 C275 1.487 . S
C275 C274 1.487 . S
C275 C276 1.185 . S
C276 C275 1.185 . S
C276 C279 1.482 . S
C277 C265 1.334 . S
C277 C273 1.334 . S
C277 C278 1.487 . S
C278 C277 1.487 . S
C278 C279 1.185 . S
C279 C276 1.482 . S
C279 C278 1.185 . S
H280 C260 0.932 . S
H281 C262 0.928 1_565 S
H282 C263 0.932 . S
H283 C265 0.928 . S
C284 C285 1.332 . S
C284 C286 1.345 . S
C284 H304 0.932 . S
C285 C284 1.332 . S
C285 C294 1.332 . S
C286 C284 1.345 . S
C286 C298 1.334 1_455 S
C286 H305 0.928 1_455 S
C287 C288 1.332 . S
C287 C289 1.345 . S
C287 H306 0.932 . S
C288 C287 1.332 . S
C288 C296 1.332 . S
C289 C287 1.345 . S
C289 C301 1.334 . S
C289 H307 0.928 . S
H290 C294 0.932 . S
H291 C295 0.928 1_655 S
H292 C296 0.932 . S
H293 C297 0.928 . S
C294 C285 1.332 . S
C294 H290 0.932 . S
C294 C295 1.345 . S
C295 H291 0.928 1_455 S
C295 C294 1.345 . S
C295 C298 1.334 1_455 S
C296 C288 1.332 . S
C296 H292 0.932 . S
C296 C297 1.345 . S
C297 H293 0.928 . S
C297 C296 1.345 . S
C297 C301 1.334 . S
C298 C286 1.334 1_655 S
C298 C295 1.334 1_655 S
C298 C299 1.487 . S
C299 C298 1.487 . S
C299 C300 1.185 . S
C300 C299 1.185 . S
C300 C303 1.482 . S
C301 C289 1.334 . S
C301 C297 1.334 . S
C301 C302 1.487 . S
C302 C301 1.487 . S
C302 C303 1.185 . S
C303 C300 1.482 . S
C303 C302 1.185 . S
H304 C284 0.932 . S
H305 C286 0.928 1_655 S
H306 C287 0.932 . S
H307 C289 0.928 . S
C308 C309 1.332 . S
C308 C310 1.345 1_545 S
C308 H328 0.932 . S
C309 C308 1.332 . S
C309 C318 1.332 . S
C310 C308 1.345 1_565 S
C310 C322 1.334 . S
C310 H329 0.928 . S
C311 C312 1.332 . S
C311 C313 1.345 . S
C311 H330 0.932 . S
C312 C311 1.332 . S
C312 C320 1.332 . S
C313 C311 1.345 . S
C313 C325 1.334 1_655 S
C313 H331 0.928 . S
H314 C318 0.932 . S
H315 C319 0.928 . S
H316 C320 0.932 . S
H317 C321 0.928 . S
C318 C309 1.332 . S
C318 H314 0.932 . S
C318 C319 1.345 . S
C319 H315 0.928 . S
C319 C318 1.345 . S
C319 C322 1.334 1_545 S
C320 C312 1.332 . S
C320 H316 0.932 . S
C320 C321 1.345 1_655 S
C321 H317 0.928 . S
C321 C320 1.345 1_455 S
C321 C325 1.334 . S
C322 C310 1.334 . S
C322 C319 1.334 1_565 S
C322 C323 1.487 . S
C323 C322 1.487 . S
C323 C324 1.185 . S
C324 C323 1.185 . S
C324 C327 1.482 . S
C325 C313 1.334 1_455 S
C325 C321 1.334 . S
C325 C326 1.487 . S
C326 C325 1.487 . S
C326 C327 1.185 . S
C327 C324 1.482 . S
C327 C326 1.185 . S
H328 C308 0.932 . S
H329 C310 0.928 . S
H330 C311 0.932 . S
H331 C313 0.928 . S
C332 C333 1.332 . S
C332 C334 1.345 . S
C332 H352 0.932 . S
C333 C332 1.332 . S
C333 C342 1.332 . S
C334 C332 1.345 . S
C334 C346 1.334 . S
C334 H353 0.928 . S
C335 C336 1.332 . S
C335 C337 1.345 1_565 S
C335 H354 0.932 . S
C336 C335 1.332 . S
C336 C344 1.332 . S
C337 C335 1.345 1_545 S
C337 C349 1.334 . S
C337 H355 0.928 . S
H338 C342 0.932 . S
H339 C343 0.928 . S
H340 C344 0.932 . S
H341 C345 0.928 . S
C342 C333 1.332 . S
C342 H338 0.932 . S
C342 C343 1.345 . S
C343 H339 0.928 . S
C343 C342 1.345 . S
C343 C346 1.334 . S
C344 C336 1.332 . S
C344 H340 0.932 . S
C344 C345 1.345 . S
C345 H341 0.928 . S
C345 C344 1.345 . S
C345 C349 1.334 1_565 S
C346 C334 1.334 . S
C346 C343 1.334 . S
C346 C347 1.487 . S
C347 C346 1.487 . S
C347 C348 1.185 . S
C348 C347 1.185 . S
C348 C351 1.482 . S
C349 C337 1.334 . S
C349 C345 1.334 1_545 S
C349 C350 1.487 . S
C350 C349 1.487 . S
C350 C351 1.185 . S
C351 C348 1.482 . S
C351 C350 1.185 . S
H352 C332 0.932 . S
H353 C334 0.928 . S
H354 C335 0.932 . S
H355 C337 0.928 . S
C356 C357 1.332 . S
C356 C358 1.345 . S
C356 H376 0.932 . S
C357 C356 1.332 . S
C357 C366 1.332 . S
C358 C356 1.345 . S
C358 C370 1.334 . S
C358 H377 0.928 . S
C359 C360 1.332 . S
C359 C361 1.345 . S
C359 H378 0.932 . S
C360 C359 1.332 . S
C360 C368 1.332 . S
C361 C359 1.345 . S
C361 C373 1.334 1_655 S
C361 H379 0.928 . S
H362 C366 0.932 . S
H363 C367 0.928 . S
H364 C368 0.932 . S
H365 C369 0.928 . S
C366 C357 1.332 . S
C366 H362 0.932 . S
C366 C367 1.345 . S
C367 H363 0.928 . S
C367 C366 1.345 . S
C367 C370 1.334 . S
C368 C360 1.332 . S
C368 H364 0.932 . S
C368 C369 1.345 1_655 S
C369 H365 0.928 . S
C369 C368 1.345 1_455 S
C369 C373 1.334 . S
C370 C358 1.334 . S
C370 C367 1.334 . S
C370 C371 1.487 . S
C371 C370 1.487 . S
C371 C372 1.185 . S
C372 C371 1.185 . S
C372 C375 1.482 . S
C373 C361 1.334 1_455 S
C373 C369 1.334 . S
C373 C374 1.487 . S
C374 C373 1.487 . S
C374 C375 1.185 . S
C375 C372 1.482 . S
C375 C374 1.185 . S
H376 C356 0.932 . S
H377 C358 0.928 . S
H378 C359 0.932 . S
H379 C361 0.928 . S
C380 C381 1.332 . S
C380 C382 1.337 1_455 S
C380 H400 0.932 . S
C381 C380 1.332 . S
C381 C390 1.332 . S
C382 C380 1.337 1_655 S
C382 C394 1.339 . S
C382 H401 0.932 . S
C383 C384 1.332 . S
C383 C385 1.345 . S
C383 H402 0.932 . S
C384 C383 1.332 . S
C384 C392 1.332 . S
C385 C383 1.345 . S
C385 C397 1.334 1_565 S
C385 H403 0.928 1_565 S
H386 C390 0.932 . S
H387 C391 0.928 . S
H388 C392 0.932 . S
H389 C393 0.928 1_545 S
C390 C381 1.332 . S
C390 H386 0.932 . S
C390 C391 1.345 1_455 S
C391 H387 0.928 . S
C391 C390 1.345 1_655 S
C391 C394 1.334 . S
C392 C384 1.332 . S
C392 H388 0.932 . S
C392 C393 1.345 . S
C393 H389 0.928 1_565 S
C393 C392 1.345 . S
C393 C397 1.334 1_565 S
C394 C382 1.339 . S
C394 C391 1.334 . S
C394 C395 1.487 . S
C395 C394 1.487 . S
C395 C396 1.185 . S
C396 C395 1.185 . S
C396 C399 1.482 . S
C397 C385 1.334 1_545 S
C397 C393 1.334 1_545 S
C397 C398 1.487 . S
C398 C397 1.487 . S
C398 C399 1.185 . S
C399 C396 1.482 . S
C399 C398 1.185 . S
H400 C380 0.932 . S
H401 C382 0.932 . S
H402 C383 0.932 . S
H403 C385 0.928 1_545 S
C117 C107 1.743 . S
C120 C54 1.844 . S
C141 C106 1.844 . S
C144 C55 1.743 . S
C165 C52 1.844 . S
C168 C114 1.743 . S
C189 C115 1.844 . S
C192 C53 1.743 . S
C213 C49 1.844 . S
C216 C109 1.743 . S
C237 C48 1.743 . S
C240 C108 1.844 . S
C261 C50 0.989 . S
C264 C51 0.989 . S
C285 C112 0.989 . S
C288 C113 0.989 . S
C309 C46 0.989 . S
C312 C47 0.989 . S
C333 C111 0.989 . S
C336 C110 0.989 . S
C357 C56 0.989 . S
C360 C57 0.989 . S
C381 C104 0.989 . S
C384 C105 0.989 . S
