# Generated by pormake.
# Topology upa, (4)-cn, num edge types: 1
# Building blocks:
#     Node 0, Type 0, BuildingBlock: KUFVIS_clean_sbu_0, # of connection points: 4
#     Node 1, Type 0, BuildingBlock: KUFVIS_clean_sbu_0, # of connection points: 4
#     Node 2, Type 0, BuildingBlock: KUFVIS_clean_sbu_0, # of connection points: 4
#     Node 3, Type 0, BuildingBlock: KUFVIS_clean_sbu_0, # of connection points: 4
#     Node 4, Type 0, BuildingBlock: KUFVIS_clean_sbu_0, # of connection points: 4
#     Node 5, Type 0, BuildingBlock: KUFVIS_clean_sbu_0, # of connection points: 4
#     Node 6, Type 0, BuildingBlock: KUFVIS_clean_sbu_0, # of connection points: 4
#     Node 7, Type 0, BuildingBlock: KUFVIS_clean_sbu_0, # of connection points: 4
#     Edge 8, Type (0, 0), BuildingBlock: FUNLAD_clean_linker_0, # of connection points: 2
#     Edge 9, Type (0, 0), BuildingBlock: FUNLAD_clean_linker_0, # of connection points: 2
#     Edge 10, Type (0, 0), BuildingBlock: FUNLAD_clean_linker_0, # of connection points: 2
#     Edge 11, Type (0, 0), BuildingBlock: FUNLAD_clean_linker_0, # of connection points: 2
#     Edge 12, Type (0, 0), BuildingBlock: FUNLAD_clean_linker_0, # of connection points: 2
#     Edge 13, Type (0, 0), BuildingBlock: FUNLAD_clean_linker_0, # of connection points: 2
#     Edge 14, Type (0, 0), BuildingBlock: FUNLAD_clean_linker_0, # of connection points: 2
#     Edge 15, Type (0, 0), BuildingBlock: FUNLAD_clean_linker_0, # of connection points: 2
#     Edge 16, Type (0, 0), BuildingBlock: FUNLAD_clean_linker_0, # of connection points: 2
#     Edge 17, Type (0, 0), BuildingBlock: FUNLAD_clean_linker_0, # of connection points: 2
#     Edge 18, Type (0, 0), BuildingBlock: FUNLAD_clean_linker_0, # of connection points: 2
#     Edge 19, Type (0, 0), BuildingBlock: FUNLAD_clean_linker_0, # of connection points: 2
#     Edge 20, Type (0, 0), BuildingBlock: FUNLAD_clean_linker_0, # of connection points: 2
#     Edge 21, Type (0, 0), BuildingBlock: FUNLAD_clean_linker_0, # of connection points: 2
#     Edge 22, Type (0, 0), BuildingBlock: FUNLAD_clean_linker_0, # of connection points: 2
#     Edge 23, Type (0, 0), BuildingBlock: FUNLAD_clean_linker_0, # of connection points: 2
# Relax obj value: 0.191
# Max RMSD: 0.140
# Mean RMSD: 0.140
data_MOF--net-upa--node1-KUFVIS_clean_sbu_0--edge1-FUNLAD_clean_linker_0
_symmetry_space_group_name_H-M    P1
_symmetry_Int_Tables_number       1
_symmetry_cell_setting            triclinic
loop_
_symmetry_equiv_pos_as_xyz
'x, y, z'
_cell_length_a     29.601586
_cell_length_b     29.600818
_cell_length_c     51.557876
_cell_angle_alpha  89.944182
_cell_angle_beta   89.975734
_cell_angle_gamma 89.927338
loop_
_atom_site_label
_atom_site_type_symbol
_atom_site_fract_x
_atom_site_fract_y
_atom_site_fract_z
_atom_type_partial_charge
Mn0 Mn 0.1908 0.2217 0.34308 0.0
Mn1 Mn 0.24709 0.12967 0.36441 0.0
C2 C 0.15184 0.16129 0.36038 0.0
C3 C 0.15106 0.25875 0.30994 0.0
C4 C 0.23846 0.21581 0.39596 0.0
O5 O 0.25358 0.23032 0.32683 0.0
O6 O 0.28672 0.16672 0.3416 0.0
C7 C 0.25645 0.0832 0.31385 0.0
N8 N 0.2417 0.08318 0.33888 0.0
C9 C 0.21042 0.00864 0.33417 0.0
C10 C 0.22555 0.00774 0.3084 0.0
C11 C 0.24863 0.04521 0.2982 0.0
C12 C 0.21944 0.04732 0.34889 0.0
H13 H 0.27392 0.11203 0.30586 0.0
C14 C 0.28752 0.20355 0.32849 0.0
O15 O 0.16652 0.28087 0.32983 0.0
O16 O 0.16203 0.21655 0.30834 0.0
N17 N 0.21272 0.09049 0.3864 0.0
C18 C 0.19944 0.09714 0.41142 0.0
C19 C 0.17532 0.06307 0.42436 0.0
C20 C 0.16542 0.02244 0.41153 0.0
C21 C 0.18014 0.01605 0.38594 0.0
C22 C 0.20443 0.05103 0.37412 0.0
H23 H 0.2068 0.12836 0.42136 0.0
O24 O 0.13351 0.20093 0.35935 0.0
O25 O 0.19232 0.15778 0.35076 0.0
O26 O 0.2154 0.23829 0.37933 0.0
O27 O 0.25261 0.17555 0.39198 0.0
C28 C 0.17109 0.97662 0.37158 0.0
C29 C 0.18616 0.97294 0.34571 0.0
H30 H 0.21937 0.97861 0.29622 0.0
H31 H 0.26021 0.04487 0.27829 0.0
H32 H 0.16416 0.06822 0.44413 0.0
H33 H 0.14639 0.99643 0.42149 0.0
H34 H 0.15219 0.94909 0.38017 0.0
H35 H 0.17863 0.94263 0.33479 0.0
Mn36 Mn 0.30466 0.69403 0.84369 0.0
Mn37 Mn 0.3958 0.75025 0.86581 0.0
C38 C 0.36357 0.65536 0.86283 0.0
C39 C 0.26905 0.65206 0.81094 0.0
C40 C 0.3086 0.74315 0.89632 0.0
O41 O 0.29794 0.7555 0.82569 0.0
O42 O 0.35886 0.78991 0.84284 0.0
C43 C 0.44271 0.75943 0.81533 0.0
N44 N 0.44251 0.74471 0.84037 0.0
C45 C 0.51688 0.71277 0.83573 0.0
C46 C 0.51798 0.72786 0.80995 0.0
C47 C 0.48072 0.75126 0.79971 0.0
C48 C 0.47819 0.72214 0.85041 0.0
H49 H 0.41404 0.77713 0.80729 0.0
C50 C 0.32355 0.79 0.82843 0.0
O51 O 0.24591 0.66998 0.82978 0.0
O52 O 0.31148 0.66225 0.80997 0.0
N53 N 0.43492 0.71603 0.88795 0.0
C54 C 0.42818 0.70305 0.91302 0.0
C55 C 0.46208 0.67873 0.92602 0.0
C56 C 0.50265 0.66834 0.91319 0.0
C57 C 0.50914 0.6828 0.88755 0.0
C58 C 0.47432 0.70729 0.87567 0.0
H59 H 0.39699 0.71075 0.92295 0.0
O60 O 0.32365 0.63774 0.86172 0.0
O61 O 0.36817 0.69514 0.85238 0.0
O62 O 0.28626 0.72144 0.87906 0.0
O63 O 0.34959 0.75567 0.89319 0.0
C64 C 0.54855 0.67333 0.87321 0.0
C65 C 0.55239 0.68826 0.84731 0.0
H66 H 0.54714 0.72141 0.79779 0.0
H67 H 0.48122 0.76282 0.77979 0.0
H68 H 0.45686 0.66779 0.94582 0.0
H69 H 0.52853 0.64918 0.92319 0.0
H70 H 0.57596 0.65428 0.88184 0.0
H71 H 0.5827 0.68045 0.83641 0.0
Mn72 Mn 0.82302 0.80612 0.33807 0.0
Mn73 Mn 0.76583 0.89727 0.3596 0.0
C74 C 0.86134 0.86839 0.35357 0.0
C75 C 0.86306 0.76963 0.30476 0.0
C76 C 0.77909 0.81262 0.39202 0.0
O77 O 0.75969 0.79543 0.323 0.0
O78 O 0.72555 0.85797 0.3385 0.0
C79 C 0.75027 0.94126 0.30876 0.0
N80 N 0.76736 0.94278 0.33327 0.0
C81 C 0.79578 0.01802 0.32648 0.0
C82 C 0.7782 0.01735 0.30123 0.0
C83 C 0.75537 0.97878 0.29234 0.0
C84 C 0.78931 0.97976 0.34204 0.0
H85 H 0.73299 0.91159 0.30175 0.0
C86 C 0.725 0.82103 0.3255 0.0
O87 O 0.8487 0.74735 0.3249 0.0
O88 O 0.85009 0.81124 0.30293 0.0
N89 N 0.80102 0.93841 0.37987 0.0
C90 C 0.81756 0.93294 0.40434 0.0
C91 C 0.84226 0.96806 0.41586 0.0
C92 C 0.84947 0.00849 0.40219 0.0
C93 C 0.8316 0.01356 0.37718 0.0
C94 C 0.8069 0.97755 0.36677 0.0
H95 H 0.81239 0.90185 0.41488 0.0
O96 O 0.88047 0.8291 0.35307 0.0
O97 O 0.82019 0.87029 0.34481 0.0
O98 O 0.80079 0.78987 0.37492 0.0
O99 O 0.76421 0.8526 0.38802 0.0
C100 C 0.83804 0.0526 0.36197 0.0
C101 C 0.82016 0.05482 0.33664 0.0
H102 H 0.78235 0.0461 0.28844 0.0
H103 H 0.74192 0.97792 0.27283 0.0
H104 H 0.85596 0.96388 0.43517 0.0
H105 H 0.86895 0.03531 0.41104 0.0
H106 H 0.85712 0.08092 0.36947 0.0
H107 H 0.82575 0.08483 0.32505 0.0
Mn108 Mn 0.7086 0.31644 0.84192 0.0
Mn109 Mn 0.61707 0.26012 0.86341 0.0
C110 C 0.64685 0.35518 0.8578 0.0
C111 C 0.74618 0.35772 0.80956 0.0
C112 C 0.70096 0.27249 0.89605 0.0
O113 O 0.71845 0.25364 0.82592 0.0
O114 O 0.65793 0.21906 0.84371 0.0
C115 C 0.57615 0.24264 0.81198 0.0
N116 N 0.57312 0.26059 0.83624 0.0
C117 C 0.49834 0.2889 0.82765 0.0
C118 C 0.50057 0.27044 0.80265 0.0
C119 C 0.53966 0.24724 0.79478 0.0
C120 C 0.53563 0.28294 0.84401 0.0
H121 H 0.60623 0.22506 0.80576 0.0
C122 C 0.69411 0.21859 0.83002 0.0
O123 O 0.76787 0.34157 0.82947 0.0
O124 O 0.70443 0.34556 0.80719 0.0
N125 N 0.57454 0.29572 0.88252 0.0
C126 C 0.57836 0.31275 0.90697 0.0
C127 C 0.54247 0.33774 0.91756 0.0
C128 C 0.50297 0.34467 0.903 0.0
C129 C 0.49955 0.3262 0.87804 0.0
C130 C 0.53626 0.30127 0.86858 0.0
H131 H 0.60876 0.30775 0.91819 0.0
O132 O 0.68648 0.37351 0.85772 0.0
O133 O 0.64429 0.31436 0.84855 0.0
O134 O 0.72448 0.29233 0.87854 0.0
O135 O 0.66023 0.25966 0.89248 0.0
C136 C 0.46148 0.3322 0.86201 0.0
C137 C 0.46088 0.31359 0.83683 0.0
H138 H 0.47261 0.27417 0.78926 0.0
H139 H 0.54173 0.2331 0.77547 0.0
H140 H 0.54536 0.35186 0.93684 0.0
H141 H 0.47555 0.36436 0.91113 0.0
H142 H 0.43264 0.35146 0.86876 0.0
H143 H 0.43159 0.3188 0.8246 0.0
Mn144 Mn 0.69374 0.30723 0.18209 0.0
Mn145 Mn 0.74862 0.39683 0.15677 0.0
C146 C 0.65387 0.36329 0.16111 0.0
C147 C 0.65246 0.27434 0.21609 0.0
C148 C 0.74272 0.30654 0.12939 0.0
O149 O 0.75537 0.30325 0.20005 0.0
O150 O 0.7888 0.36317 0.18113 0.0
C151 C 0.75727 0.44983 0.20519 0.0
N152 N 0.74279 0.44652 0.18019 0.0
C153 C 0.71188 0.52173 0.18141 0.0
C154 C 0.72678 0.52606 0.2071 0.0
C155 C 0.74953 0.48992 0.21904 0.0
C156 C 0.72097 0.48113 0.16849 0.0
H157 H 0.77449 0.42206 0.21452 0.0
C158 C 0.7894 0.32922 0.19662 0.0
O159 O 0.6707 0.24962 0.19803 0.0
O160 O 0.66209 0.31694 0.21563 0.0
N161 N 0.71391 0.43277 0.13316 0.0
C162 C 0.69953 0.42225 0.1088 0.0
C163 C 0.67484 0.45424 0.0945 0.0
C164 C 0.6655 0.49679 0.1053 0.0
C165 C 0.68116 0.50706 0.13026 0.0
C166 C 0.70591 0.47395 0.14353 0.0
H167 H 0.70638 0.38951 0.10045 0.0
O168 O 0.6372 0.32317 0.1637 0.0
O169 O 0.69367 0.36995 0.17124 0.0
O170 O 0.72098 0.28562 0.14724 0.0
O171 O 0.75487 0.34781 0.13124 0.0
C172 C 0.67221 0.54842 0.14276 0.0
C173 C 0.68756 0.55575 0.16831 0.0
H174 H 0.72055 0.55679 0.21793 0.0
H175 H 0.76089 0.49291 0.23891 0.0
H176 H 0.66283 0.44604 0.07525 0.0
H177 H 0.64602 0.52119 0.09431 0.0
H178 H 0.65301 0.57459 0.13303 0.0
H179 H 0.67998 0.58748 0.17783 0.0
Mn180 Mn 0.21118 0.1923 0.68338 0.0
Mn181 Mn 0.11897 0.24863 0.66242 0.0
C182 C 0.15118 0.15339 0.66572 0.0
C183 C 0.24826 0.15215 0.71632 0.0
C184 C 0.20501 0.24066 0.63065 0.0
O185 O 0.21955 0.25468 0.69998 0.0
O186 O 0.15608 0.28809 0.68529 0.0
C187 C 0.07292 0.25708 0.71318 0.0
N188 N 0.07273 0.24271 0.68809 0.0
C189 C 0.99841 0.21094 0.69299 0.0
C190 C 0.9977 0.22568 0.71883 0.0
C191 C 0.03514 0.24881 0.72896 0.0
C192 C 0.0369 0.22037 0.67815 0.0
H193 H 0.10173 0.27458 0.72113 0.0
C194 C 0.19285 0.28867 0.69844 0.0
O195 O 0.2704 0.16806 0.69653 0.0
O196 O 0.20599 0.16285 0.71794 0.0
N197 N 0.07964 0.21458 0.64041 0.0
C198 C 0.08596 0.202 0.61524 0.0
C199 C 0.05183 0.17803 0.60231 0.0
C200 C 0.01144 0.16759 0.6153 0.0
C201 C 1.00535 0.18167 0.64102 0.0
C202 C 0.04039 0.20584 0.65283 0.0
H203 H 0.11698 0.20977 0.60517 0.0
O204 O 0.19091 0.13528 0.66675 0.0
O205 O 0.14725 0.19361 0.67567 0.0
O206 O 0.2277 0.21775 0.64727 0.0
O207 O 0.16466 0.25452 0.63471 0.0
C208 C 0.96613 0.17217 0.65552 0.0
C209 C 0.96269 0.18673 0.68149 0.0
H210 H 0.96871 0.21916 0.7311 0.0
H211 H 0.03493 0.26009 0.74892 0.0
H212 H 0.05673 0.16739 0.58243 0.0
H213 H 0.98538 0.14869 0.60535 0.0
H214 H 0.93857 0.15336 0.64694 0.0
H215 H 0.93253 0.17888 0.6925 0.0
Mn216 Mn 0.32128 0.70813 0.18151 0.0
Mn217 Mn 0.27274 0.61546 0.15572 0.0
C218 C 0.36518 0.65458 0.16088 0.0
C219 C 0.35967 0.74235 0.21613 0.0
C220 C 0.27259 0.70695 0.12896 0.0
O221 O 0.25859 0.70854 0.19857 0.0
O222 O 0.23082 0.6446 0.18098 0.0
C223 C 0.26935 0.55936 0.20327 0.0
N224 N 0.28277 0.56504 0.17821 0.0
C225 C 0.31896 0.49219 0.17783 0.0
C226 C 0.30508 0.48537 0.20354 0.0
C227 C 0.28024 0.51914 0.21632 0.0
C228 C 0.30664 0.53273 0.16571 0.0
H229 H 0.25067 0.5854 0.21327 0.0
C230 C 0.22728 0.67906 0.19593 0.0
O231 O 0.34083 0.76654 0.19802 0.0
O232 O 0.35199 0.69939 0.2154 0.0
N233 N 0.30974 0.58364 0.13133 0.0
C234 C 0.32328 0.59682 0.10721 0.0
C235 C 0.35011 0.56764 0.09224 0.0
C236 C 0.36251 0.52517 0.10213 0.0
C237 C 0.34779 0.51217 0.12688 0.0
C238 C 0.32078 0.54251 0.14084 0.0
H239 H 0.31411 0.62953 0.09956 0.0
O240 O 0.37948 0.69552 0.16379 0.0
O241 O 0.32544 0.64574 0.17048 0.0
O242 O 0.29416 0.72863 0.14651 0.0
O243 O 0.26213 0.6652 0.13097 0.0
C244 C 0.35989 0.47082 0.13853 0.0
C245 C 0.34548 0.46083 0.16398 0.0
H246 H 0.31379 0.45458 0.21376 0.0
H247 H 0.26972 0.51428 0.23623 0.0
H248 H 0.36142 0.57796 0.07317 0.0
H249 H 0.38365 0.50298 0.09064 0.0
H250 H 0.38089 0.44677 0.12825 0.0
H251 H 0.35557 0.42922 0.17287 0.0
Mn252 Mn 0.80405 0.81675 0.68186 0.0
Mn253 Mn 0.89577 0.76008 0.66077 0.0
C254 C 0.86628 0.85526 0.66655 0.0
C255 C 0.76604 0.85783 0.71412 0.0
C256 C 0.81242 0.7733 0.62771 0.0
O257 O 0.79368 0.75376 0.69757 0.0
O258 O 0.85465 0.71905 0.68027 0.0
C259 C 0.93618 0.742 0.71229 0.0
N260 N 0.93946 0.76016 0.68808 0.0
C261 C 0.01421 0.78806 0.69693 0.0
C262 C 0.01173 0.76939 0.72189 0.0
C263 C 0.97253 0.74628 0.7296 0.0
C264 C 0.97706 0.7824 0.68045 0.0
H265 H 0.90601 0.7245 0.71839 0.0
C266 C 0.81815 0.71866 0.69369 0.0
O267 O 0.74466 0.84211 0.69402 0.0
O268 O 0.80768 0.84531 0.71672 0.0
N269 N 0.93851 0.79572 0.64186 0.0
C270 C 0.93488 0.8131 0.61746 0.0
C271 C 0.97086 0.83811 0.60704 0.0
C272 C 0.01027 0.8447 0.62172 0.0
C273 C 0.01347 0.8259 0.64663 0.0
C274 C 0.97667 0.80098 0.65592 0.0
H275 H 0.90455 0.80837 0.60616 0.0
O276 O 0.82674 0.87389 0.66643 0.0
O277 O 0.86844 0.81427 0.67564 0.0
O278 O 0.78875 0.79339 0.64505 0.0
O279 O 0.85295 0.75993 0.63153 0.0
C280 C 0.05142 0.8316 0.66278 0.0
C281 C 0.05178 0.81271 0.68791 0.0
H282 H 0.03957 0.77288 0.73537 0.0
H283 H 0.97026 0.73197 0.74888 0.0
H284 H 0.96813 0.85249 0.5878 0.0
H285 H 0.03776 0.8644 0.61372 0.0
H286 H 0.08032 0.85083 0.65616 0.0
H287 H 0.08097 0.81769 0.70024 0.0
C288 C 0.11631 0.08919 0.34712 0.0
C289 C 0.12295 0.12238 0.36609 0.0
C290 C 0.08352 0.05593 0.35064 0.0
C291 C 0.05637 0.05582 0.37306 0.0
C292 C 0.0641 0.08822 0.39238 0.0
C293 C 0.09656 0.12185 0.38868 0.0
C294 C 0.01913 0.02294 0.37632 0.0
C295 C 0.99351 0.00988 0.35611 0.0
C296 C 0.95628 0.97649 0.35788 0.0
C297 C 0.92494 0.9744 0.33747 0.0
C298 C 0.89231 0.94046 0.3368 0.0
C299 C 0.89002 0.90834 0.35672 0.0
H300 H 0.97776 0.94399 0.39373 0.0
C301 C 0.92086 0.91047 0.3773 0.0
C302 C 0.95356 0.94444 0.37803 0.0
H303 H 0.92041 0.88506 0.39244 0.0
H304 H 0.13555 0.08981 0.32924 0.0
H305 H 0.07911 0.03067 0.33568 0.0
H306 H 0.04377 0.08861 0.40986 0.0
H307 H 0.10069 0.14782 0.40328 0.0
H308 H 0.01106 0.01188 0.39585 0.0
H309 H 0.99956 0.02503 0.33721 0.0
H310 H 0.92652 0.99831 0.32157 0.0
H311 H 0.87 0.93827 0.32019 0.0
C312 C 0.43533 0.61797 0.85042 0.0
C313 C 0.4018 0.62578 0.86908 0.0
C314 C 0.46745 0.58407 0.85426 0.0
C315 C 0.46611 0.55704 0.87672 0.0
C316 C 0.43359 0.5661 0.89582 0.0
C317 C 0.40106 0.59964 0.89179 0.0
C318 C 0.49746 0.51847 0.88019 0.0
C319 C 0.50951 0.49197 0.86013 0.0
C320 C 0.54142 0.45337 0.86207 0.0
C321 C 0.54247 0.42177 0.84176 0.0
C322 C 0.57535 0.38796 0.84115 0.0
C323 C 0.60743 0.38474 0.86104 0.0
H324 H 0.57447 0.47383 0.89789 0.0
C325 C 0.60614 0.41569 0.88159 0.0
C326 C 0.57325 0.44956 0.88225 0.0
H327 H 0.63151 0.4145 0.89672 0.0
H328 H 0.43571 0.63701 0.83246 0.0
H329 H 0.49286 0.57861 0.83947 0.0
H330 H 0.43212 0.5459 0.91333 0.0
H331 H 0.37484 0.60469 0.90617 0.0
H332 H 0.50812 0.51024 0.89977 0.0
H333 H 0.49467 0.49842 0.84119 0.0
H334 H 0.51869 0.42412 0.82584 0.0
H335 H 0.5769 0.36555 0.82457 0.0
C336 C 0.6181 0.43818 0.16871 0.0
C337 C 0.62322 0.39977 0.1531 0.0
C338 C 0.58342 0.46902 0.16377 0.0
C339 C 0.55206 0.46068 0.14389 0.0
C340 C 0.55702 0.42221 0.12836 0.0
C341 C 0.5926 0.39215 0.13278 0.0
C342 C 0.51105 0.4887 0.14151 0.0
C343 C 0.51275 0.53391 0.1421 0.0
C344 C 0.47144 0.56141 0.14463 0.0
C345 C 0.46559 0.59983 0.12911 0.0
C346 C 0.42889 0.62864 0.13331 0.0
C347 C 0.39804 0.61977 0.15337 0.0
H348 H 0.44482 0.52329 0.17713 0.0
C349 C 0.40436 0.58168 0.16913 0.0
C350 C 0.44016 0.55208 0.16441 0.0
H351 H 0.38272 0.57577 0.18572 0.0
H352 H 0.63959 0.44329 0.18544 0.0
H353 H 0.57944 0.49784 0.17651 0.0
H354 H 0.53272 0.41485 0.11324 0.0
H355 H 0.59513 0.36193 0.12103 0.0
H356 H 0.4786 0.47169 0.13998 0.0
H357 H 0.54516 0.55112 0.14141 0.0
H358 H 0.48983 0.60794 0.11407 0.0
H359 H 0.42544 0.65872 0.12148 0.0
C360 C 0.11325 0.0992 0.63624 0.0
C361 C 0.11269 0.12447 0.65923 0.0
C362 C 0.08052 0.06613 0.63183 0.0
C363 C 0.04798 0.05661 0.65083 0.0
C364 C 0.04687 0.08273 0.67362 0.0
C365 C 0.07921 0.1162 0.67784 0.0
C366 C 0.01638 0.01851 0.64684 0.0
C367 C 1.00399 0.99133 0.66655 0.0
C368 C 0.97203 0.95297 0.664 0.0
C369 C 0.97041 0.92076 0.68401 0.0
C370 C 0.93746 0.8871 0.68405 0.0
C371 C 0.90589 0.88462 0.66386 0.0
H372 H 0.93991 0.97463 0.62808 0.0
C373 C 0.90778 0.91615 0.64359 0.0
C374 C 0.94072 0.9499 0.64352 0.0
H375 H 0.8828 0.91552 0.62824 0.0
H376 H 0.13947 0.10459 0.6219 0.0
H377 H 0.08184 0.04663 0.61407 0.0
H378 H 0.02145 0.07689 0.68836 0.0
H379 H 0.079 0.13456 0.69602 0.0
H380 H 1.00591 0.01111 0.62713 0.0
H381 H 0.01863 0.99695 0.68561 0.0
H382 H 0.99379 0.92252 0.70014 0.0
H383 H 0.93542 0.86424 0.70042 0.0
C384 C 0.27637 0.21416 0.43948 0.0
C385 C 0.24558 0.2348 0.42235 0.0
C386 C 0.27813 0.22663 0.46562 0.0
C387 C 0.24863 0.25982 0.47548 0.0
C388 C 0.21995 0.28246 0.45798 0.0
C389 C 0.21839 0.27014 0.43175 0.0
C390 C 0.2449 0.27037 0.50379 0.0
C391 C 0.26005 0.24289 0.52291 0.0
C392 C 0.24968 0.24894 0.55108 0.0
C393 C 0.27443 0.22381 0.56941 0.0
C394 C 0.26184 0.22325 0.59562 0.0
C395 C 0.22381 0.24757 0.60414 0.0
H396 H 0.1923 0.29438 0.54663 0.0
C397 C 0.20043 0.27452 0.58604 0.0
C398 C 0.21304 0.27514 0.55989 0.0
H399 H 0.17093 0.29375 0.59181 0.0
H400 H 0.2984 0.18728 0.43286 0.0
H401 H 0.3022 0.20946 0.47791 0.0
H402 H 0.1972 0.30856 0.46483 0.0
H403 H 0.19428 0.28684 0.41917 0.0
H404 H 0.22626 0.30066 0.50887 0.0
H405 H 0.27911 0.21284 0.51795 0.0
H406 H 0.30273 0.20317 0.56328 0.0
H407 H 0.28061 0.20197 0.6089 0.0
C408 C 0.31138 0.77606 0.94117 0.0
C409 C 0.28852 0.74989 0.92254 0.0
C410 C 0.2977 0.7761 0.96715 0.0
C411 C 0.26049 0.75006 0.97525 0.0
C412 C 0.23621 0.72585 0.95637 0.0
C413 C 0.24986 0.72589 0.93033 0.0
C414 C 0.24921 0.74301 1.00324 0.0
C415 C 0.26393 0.76959 0.02284 0.0
C416 C 0.25992 0.75759 0.05098 0.0
C417 C 0.28822 0.77946 0.06894 0.0
C418 C 0.29016 0.76529 0.09488 0.0
C419 C 0.26378 0.72879 0.10347 0.0
H420 H 0.20703 0.70682 0.04754 0.0
C421 C 0.23303 0.70914 0.08599 0.0
C422 C 0.23086 0.72348 0.06017 0.0
H423 H 0.21164 0.68138 0.09204 0.0
H424 H 0.34132 0.79503 0.93597 0.0
H425 H 0.31811 0.79464 0.98086 0.0
H426 H 0.20749 0.70536 0.96194 0.0
H427 H 0.23147 0.7052 0.91662 0.0
H428 H 0.23 0.71282 1.00763 0.0
H429 H 0.28264 0.80006 0.01829 0.0
H430 H 0.3106 0.80625 0.06263 0.0
H431 H 0.31426 0.78121 0.10775 0.0
C432 C 0.81582 0.73951 0.58314 0.0
C433 C 0.79415 0.76827 0.60098 0.0
C434 C 0.80331 0.73912 0.55699 0.0
C435 C 0.769 0.76803 0.5478 0.0
C436 C 0.74566 0.79489 0.56593 0.0
C437 C 0.75801 0.79504 0.59219 0.0
C438 C 0.75769 0.77283 0.5196 0.0
C439 C 0.78425 0.75794 0.49999 0.0
C440 C 0.7768 0.76862 0.47195 0.0
C441 C 0.80067 0.74381 0.45311 0.0
C442 C 0.79947 0.75631 0.42689 0.0
C443 C 0.77459 0.7943 0.41884 0.0
H444 H 0.73198 0.82623 0.47734 0.0
C445 C 0.7491 0.81791 0.43752 0.0
C446 C 0.75025 0.8054 0.46368 0.0
H447 H 0.72953 0.84741 0.43214 0.0
H448 H 0.84336 0.71786 0.58926 0.0
H449 H 0.82127 0.71647 0.54421 0.0
H450 H 0.71875 0.81717 0.55962 0.0
H451 H 0.74053 0.81761 0.60534 0.0
H452 H 0.72725 0.79164 0.51503 0.0
H453 H 0.81434 0.73852 0.50436 0.0
H454 H 0.82157 0.71541 0.45882 0.0
H455 H 0.81968 0.73737 0.41315 0.0
C456 C 0.69596 0.24217 0.94147 0.0
C457 C 0.71979 0.26719 0.92268 0.0
C458 C 0.70955 0.24206 0.96746 0.0
C459 C 0.7476 0.26691 0.97542 0.0
C460 C 0.77247 0.29043 0.95646 0.0
C461 C 0.75893 0.29042 0.9304 0.0
C462 C 0.75955 0.27311 1.00337 0.0
C463 C 0.74485 0.24621 0.02287 0.0
C464 C 0.75026 0.25716 0.05104 0.0
C465 C 0.72129 0.23643 0.06914 0.0
C466 C 0.72095 0.24997 0.0952 0.0
C467 C 0.74969 0.28463 0.10376 0.0
H468 H 0.80597 0.30473 0.04737 0.0
C469 C 0.78104 0.30291 0.08611 0.0
C470 C 0.78157 0.2892 0.06016 0.0
H471 H 0.80419 0.3292 0.09213 0.0
H472 H 0.66561 0.22383 0.93634 0.0
H473 H 0.68863 0.22424 0.98126 0.0
H474 H 0.8018 0.31008 0.96195 0.0
H475 H 0.77806 0.31021 0.91656 0.0
H476 H 0.77948 0.30278 1.00785 0.0
H477 H 0.72525 0.21635 0.01827 0.0
H478 H 0.6972 0.21118 0.06286 0.0
H479 H 0.69632 0.23518 0.10822 0.0
C480 C 0.59405 0.2874 0.25045 0.0
C481 C 0.61576 0.25745 0.23327 0.0
C482 C 0.5542 0.27499 0.26322 0.0
C483 C 0.53488 0.23219 0.25913 0.0
C484 C 0.55803 0.20127 0.24319 0.0
C485 C 0.59786 0.21381 0.23026 0.0
C486 C 0.49113 0.21862 0.27138 0.0
C487 C 0.45835 0.24837 0.2781 0.0
C488 C 0.41429 0.23544 0.29032 0.0
C489 C 0.37795 0.2662 0.28971 0.0
C490 C 0.33659 0.25598 0.30172 0.0
C491 C 0.33065 0.21479 0.31488 0.0
H492 H 0.43542 0.16995 0.30513 0.0
C493 C 0.36708 0.18405 0.31544 0.0
C494 C 0.40825 0.19422 0.30345 0.0
H495 H 0.36412 0.15197 0.32542 0.0
H496 H 0.60697 0.32123 0.2534 0.0
H497 H 0.53853 0.29921 0.27611 0.0
H498 H 0.54442 0.16778 0.24 0.0
H499 H 0.61356 0.18993 0.21714 0.0
H500 H 0.48505 0.18267 0.2735 0.0
H501 H 0.4631 0.28392 0.27369 0.0
H502 H 0.38157 0.29841 0.27993 0.0
H503 H 0.30951 0.28057 0.30089 0.0
C504 C 0.33331 0.87352 0.82199 0.0
C505 C 0.31344 0.83256 0.81405 0.0
C506 C 0.32641 0.91345 0.80799 0.0
C507 C 0.2996 0.91361 0.78549 0.0
C508 C 0.27969 0.87277 0.77749 0.0
C509 C 0.28609 0.83279 0.79175 0.0
C510 C 0.29357 0.9553 0.76946 0.0
C511 C 0.29405 0.99745 0.77949 0.0
C512 C 0.28629 0.03885 0.76361 0.0
C513 C 0.26073 0.07442 0.77409 0.0
C514 C 0.25041 0.11258 0.75914 0.0
C515 C 0.26686 0.11682 0.73369 0.0
H516 H 0.32474 0.01725 0.73002 0.0
C517 C 0.29481 0.08254 0.72372 0.0
C518 C 0.30406 0.04366 0.73843 0.0
H519 H 0.30741 0.08457 0.70402 0.0
H520 H 0.35467 0.87476 0.83902 0.0
H521 H 0.34323 0.94385 0.81448 0.0
H522 H 0.25911 0.87178 0.76013 0.0
H523 H 0.27057 0.80189 0.78493 0.0
H524 H 0.2863 0.95098 0.74894 0.0
H525 H 0.29662 1.00179 0.80036 0.0
H526 H 0.24706 0.07183 0.79354 0.0
H527 H 0.22845 0.13827 0.76724 0.0
C528 C 0.64413 0.83822 0.31415 0.0
C529 C 0.68139 0.80856 0.31281 0.0
C530 C 0.60273 0.82718 0.30272 0.0
C531 C 0.59726 0.78612 0.28939 0.0
C532 C 0.63435 0.75634 0.2881 0.0
C533 C 0.67595 0.76745 0.29953 0.0
C534 C 0.55312 0.77243 0.2776 0.0
C535 C 0.51964 0.80163 0.27119 0.0
C536 C 0.47595 0.78731 0.25919 0.0
C537 C 0.45213 0.81771 0.24322 0.0
C538 C 0.41253 0.80431 0.23036 0.0
C539 C 0.39554 0.76032 0.2335 0.0
H540 H 0.47363 0.72038 0.27641 0.0
C541 C 0.4178 0.73095 0.2508 0.0
C542 C 0.45743 0.74421 0.26347 0.0
H543 H 0.40559 0.69688 0.25386 0.0
H544 H 0.64666 0.87018 0.32425 0.0
H545 H 0.57499 0.85065 0.30493 0.0
H546 H 0.63118 0.72427 0.27816 0.0
H547 H 0.70368 0.74367 0.29811 0.0
H548 H 0.54894 0.73683 0.27315 0.0
H549 H 0.52512 0.83767 0.27331 0.0
H550 H 0.46511 0.85142 0.23989 0.0
H551 H 0.39641 0.82776 0.21714 0.0
C552 C 0.72137 0.16939 0.79314 0.0
C553 C 0.70751 0.17419 0.81908 0.0
C554 C 0.72873 0.12616 0.78257 0.0
C555 C 0.72325 0.08713 0.79796 0.0
C556 C 0.71112 0.09235 0.82409 0.0
C557 C 0.70266 0.13519 0.8344 0.0
C558 C 0.73139 0.04057 0.78787 0.0
C559 C 0.72092 0.02738 0.76354 0.0
C560 C 0.7286 0.98049 0.75355 0.0
C561 C 0.70331 0.965 0.73225 0.0
C562 C 0.71276 0.9231 0.72069 0.0
C563 C 0.7483 0.89596 0.72994 0.0
H564 H 0.78356 0.96292 0.77965 0.0
C565 C 0.77229 0.91052 0.75196 0.0
C566 C 0.76262 0.95216 0.76363 0.0
H567 H 0.80021 0.89073 0.75944 0.0
H568 H 0.72507 0.19887 0.78086 0.0
H569 H 0.73903 0.12336 0.76248 0.0
H570 H 0.70715 0.06303 0.83648 0.0
H571 H 0.69209 0.13783 0.85446 0.0
H572 H 0.74352 0.01566 0.80168 0.0
H573 H 0.70472 0.05146 0.75061 0.0
H574 H 0.67695 0.98599 0.72401 0.0
H575 H 0.694 0.91331 0.70357 0.0
C576 C 0.08161 0.30545 0.30222 0.0
C577 C 0.11588 0.27727 0.29243 0.0
C578 C 0.04289 0.31472 0.2874 0.0
C579 C 0.03821 0.29673 0.26227 0.0
C580 C 0.07378 0.27095 0.25196 0.0
C581 C 0.11179 0.26063 0.26702 0.0
C582 C 0.99687 0.30434 0.24631 0.0
C583 C 0.95469 0.30401 0.25634 0.0
C584 C 0.913 0.30926 0.24024 0.0
C585 C 0.87238 0.2891 0.24842 0.0
C586 C 0.83244 0.29442 0.23403 0.0
C587 C 0.83197 0.32093 0.21138 0.0
H588 H 0.94284 0.35236 0.2108 0.0
C589 C 0.87266 0.34123 0.20329 0.0
C590 C 0.9126 0.33538 0.21744 0.0
H591 H 0.87371 0.362 0.18599 0.0
H592 H 0.08352 0.31822 0.32187 0.0
H593 H 0.01649 0.33555 0.29568 0.0
H594 H 0.0713 0.2571 0.23257 0.0
H595 H 0.13747 0.23852 0.25905 0.0
H596 H 1.00127 0.30647 0.22543 0.0
H597 H 0.95033 0.29717 0.2769 0.0
H598 H 0.87155 0.26904 0.266 0.0
H599 H 0.80176 0.27858 0.24097 0.0
C600 C 0.17321 0.36772 0.71245 0.0
C601 C 0.20423 0.33152 0.71223 0.0
C602 C 0.18369 0.4087 0.72456 0.0
C603 C 0.22554 0.41474 0.73699 0.0
C604 C 0.25652 0.37859 0.73686 0.0
C605 C 0.24598 0.33744 0.72477 0.0
C606 C 0.23896 0.45865 0.74914 0.0
C607 C 0.20952 0.49117 0.75666 0.0
C608 C 0.22383 0.53478 0.76875 0.0
C609 C 0.19428 0.55739 0.78576 0.0
C610 C 0.20773 0.59707 0.79851 0.0
C611 C 0.2509 0.61537 0.79423 0.0
H612 H 0.28916 0.53923 0.74973 0.0
C613 C 0.27937 0.59418 0.77603 0.0
C614 C 0.26607 0.55448 0.76346 0.0
H615 H 0.31278 0.60742 0.77208 0.0
H616 H 0.14069 0.36471 0.70299 0.0
H617 H 0.15918 0.43575 0.7235 0.0
H618 H 0.28918 0.38221 0.7461 0.0
H619 H 0.2708 0.31053 0.725 0.0
H620 H 0.27474 0.46352 0.75281 0.0
H621 H 0.17348 0.48497 0.75532 0.0
H622 H 0.16122 0.54347 0.78991 0.0
H623 H 0.18499 0.61237 0.81243 0.0
C624 C 0.16946 0.72615 0.22007 0.0
C625 C 0.18417 0.68401 0.21067 0.0
C626 C 0.12745 0.73032 0.2326 0.0
C627 C 0.09949 0.69228 0.23627 0.0
C628 C 0.11495 0.6501 0.22761 0.0
C629 C 0.15638 0.64607 0.21474 0.0
C630 C 0.05465 0.69494 0.24956 0.0
C631 C 0.02747 0.73151 0.24823 0.0
C632 C 0.98209 0.73524 0.26094 0.0
C633 C 0.95279 0.76969 0.25264 0.0
C634 C 0.91224 0.77827 0.26567 0.0
C635 C 0.89977 0.75278 0.28755 0.0
H636 H 0.99013 0.68141 0.28936 0.0
C637 C 0.92769 0.71659 0.29511 0.0
C638 C 0.96849 0.70794 0.28201 0.0
H639 H 0.91947 0.69671 0.31211 0.0
H640 H 0.19001 0.75603 0.21735 0.0
H641 H 0.11724 0.76322 0.23964 0.0
H642 H 0.0945 0.62015 0.23039 0.0
H643 H 0.16663 0.61296 0.208 0.0
H644 H 0.04273 0.66468 0.25928 0.0
H645 H 0.03834 0.76005 0.23652 0.0
H646 H 0.962 0.7912 0.23646 0.0
H647 H 0.89169 0.80649 0.25931 0.0
C648 C 0.73963 0.41066 0.77179 0.0
C649 C 0.76385 0.39584 0.7937 0.0
C650 C 0.74931 0.45229 0.7601 0.0
C651 C 0.78356 0.48036 0.77004 0.0
C652 C 0.80905 0.46462 0.79124 0.0
C653 C 0.7996 0.42272 0.80281 0.0
C654 C 0.79127 0.52726 0.76004 0.0
C655 C 0.7806 0.54062 0.73575 0.0
C656 C 0.78874 0.58718 0.72566 0.0
C657 C 0.80074 0.59249 0.69951 0.0
C658 C 0.80924 0.63535 0.68922 0.0
C659 C 0.80453 0.67429 0.70457 0.0
H660 H 0.77321 0.6233 0.76119 0.0
C661 C 0.7908 0.66942 0.73053 0.0
C662 C 0.78341 0.62616 0.74109 0.0
H663 H 0.78724 0.69884 0.74284 0.0
H664 H 0.71154 0.39108 0.76442 0.0
H665 H 0.72821 0.46326 0.74416 0.0
H666 H 0.83559 0.48541 0.79938 0.0
H667 H 0.81854 0.41272 0.81985 0.0
H668 H 0.80766 0.5512 0.77293 0.0
H669 H 0.76826 0.51582 0.72197 0.0
H670 H 0.80461 0.56322 0.6871 0.0
H671 H 0.81976 0.63807 0.66914 0.0
loop_
_geom_bond_atom_site_label_1
_geom_bond_atom_site_label_2
_geom_bond_distance
_geom_bond_site_symmetry_2
_ccdc_geom_bond_type
Mn0 O5 2.095 . S
Mn0 O15 2.162 . S
Mn0 O16 2.297 . S
Mn0 O24 2.385 . S
Mn0 O25 2.209 . S
Mn0 O26 2.094 . S
Mn1 O6 2.121 . S
Mn1 N8 2.257 . S
Mn1 N17 2.282 . S
Mn1 O25 2.215 . S
Mn1 O27 2.117 . S
C2 O24 1.234 . S
C2 O25 1.283 . S
C3 O15 1.281 . S
C3 O16 1.236 . S
C4 O26 1.240 . S
C4 O27 1.264 . S
O5 Mn0 2.095 . S
O5 C14 1.250 . S
O6 Mn1 2.121 . S
O6 C14 1.258 . S
C7 N8 1.326 . S
C7 C11 1.460 . S
C7 H13 0.929 . S
N8 Mn1 2.257 . S
N8 C7 1.326 . S
N8 C12 1.362 . S
C9 C10 1.258 . S
C9 C12 1.431 . S
C9 C29 1.449 1_545 S
C10 C9 1.258 . S
C10 C11 1.477 . S
C10 H30 0.931 1_545 S
C11 C7 1.460 . S
C11 C10 1.477 . S
C11 H31 0.930 . S
C12 N8 1.362 . S
C12 C9 1.431 . S
C12 C22 1.476 . S
H13 C7 0.929 . S
C14 O5 1.250 . S
C14 O6 1.258 . S
O15 Mn0 2.162 . S
O15 C3 1.281 . S
O16 Mn0 2.297 . S
O16 C3 1.236 . S
N17 Mn1 2.282 . S
N17 C18 1.328 . S
N17 C22 1.318 . S
C18 N17 1.328 . S
C18 C19 1.457 . S
C18 H23 0.929 . S
C19 C18 1.457 . S
C19 C20 1.291 . S
C19 H32 0.931 . S
C20 C19 1.291 . S
C20 C21 1.373 . S
C20 H33 0.929 1_545 S
C21 C20 1.373 . S
C21 C22 1.396 . S
C21 C28 1.403 1_545 S
C22 C12 1.476 . S
C22 N17 1.318 . S
C22 C21 1.396 . S
H23 C18 0.929 . S
O24 Mn0 2.385 . S
O24 C2 1.234 . S
O25 Mn0 2.209 . S
O25 Mn1 2.215 . S
O25 C2 1.283 . S
O26 Mn0 2.094 . S
O26 C4 1.240 . S
O27 Mn1 2.117 . S
O27 C4 1.264 . S
C28 C21 1.403 1_565 S
C28 C29 1.399 . S
C28 H34 0.929 . S
C29 C9 1.449 1_565 S
C29 C28 1.399 . S
C29 H35 0.930 . S
H30 C10 0.931 1_565 S
H31 C11 0.930 . S
H32 C19 0.931 . S
H33 C20 0.929 1_565 S
H34 C28 0.929 . S
H35 C29 0.930 . S
Mn36 O41 2.095 . S
Mn36 O51 2.162 . S
Mn36 O52 2.297 . S
Mn36 O60 2.385 . S
Mn36 O61 2.209 . S
Mn36 O62 2.094 . S
Mn37 O42 2.121 . S
Mn37 N44 2.257 . S
Mn37 N53 2.282 . S
Mn37 O61 2.215 . S
Mn37 O63 2.117 . S
C38 O60 1.234 . S
C38 O61 1.283 . S
C39 O51 1.281 . S
C39 O52 1.236 . S
C40 O62 1.240 . S
C40 O63 1.264 . S
O41 Mn36 2.095 . S
O41 C50 1.250 . S
O42 Mn37 2.121 . S
O42 C50 1.258 . S
C43 N44 1.326 . S
C43 C47 1.460 . S
C43 H49 0.929 . S
N44 Mn37 2.257 . S
N44 C43 1.326 . S
N44 C48 1.362 . S
C45 C46 1.258 . S
C45 C48 1.431 . S
C45 C65 1.449 . S
C46 C45 1.258 . S
C46 C47 1.477 . S
C46 H66 0.931 . S
C47 C43 1.460 . S
C47 C46 1.477 . S
C47 H67 0.930 . S
C48 N44 1.362 . S
C48 C45 1.431 . S
C48 C58 1.476 . S
H49 C43 0.929 . S
C50 O41 1.250 . S
C50 O42 1.258 . S
O51 Mn36 2.162 . S
O51 C39 1.281 . S
O52 Mn36 2.297 . S
O52 C39 1.236 . S
N53 Mn37 2.282 . S
N53 C54 1.328 . S
N53 C58 1.318 . S
C54 N53 1.328 . S
C54 C55 1.457 . S
C54 H59 0.929 . S
C55 C54 1.457 . S
C55 C56 1.291 . S
C55 H68 0.931 . S
C56 C55 1.291 . S
C56 C57 1.373 . S
C56 H69 0.929 . S
C57 C56 1.373 . S
C57 C58 1.396 . S
C57 C64 1.403 . S
C58 C48 1.476 . S
C58 N53 1.318 . S
C58 C57 1.396 . S
H59 C54 0.929 . S
O60 Mn36 2.385 . S
O60 C38 1.234 . S
O61 Mn36 2.209 . S
O61 Mn37 2.215 . S
O61 C38 1.283 . S
O62 Mn36 2.094 . S
O62 C40 1.240 . S
O63 Mn37 2.117 . S
O63 C40 1.264 . S
C64 C57 1.403 . S
C64 C65 1.399 . S
C64 H70 0.929 . S
C65 C45 1.449 . S
C65 C64 1.399 . S
C65 H71 0.930 . S
H66 C46 0.931 . S
H67 C47 0.930 . S
H68 C55 0.931 . S
H69 C56 0.929 . S
H70 C64 0.929 . S
H71 C65 0.930 . S
Mn72 O77 2.095 . S
Mn72 O87 2.162 . S
Mn72 O88 2.297 . S
Mn72 O96 2.385 . S
Mn72 O97 2.209 . S
Mn72 O98 2.094 . S
Mn73 O78 2.121 . S
Mn73 N80 2.257 . S
Mn73 N89 2.282 . S
Mn73 O97 2.215 . S
Mn73 O99 2.117 . S
C74 O96 1.234 . S
C74 O97 1.283 . S
C75 O87 1.281 . S
C75 O88 1.236 . S
C76 O98 1.240 . S
C76 O99 1.264 . S
O77 Mn72 2.095 . S
O77 C86 1.250 . S
O78 Mn73 2.121 . S
O78 C86 1.258 . S
C79 N80 1.326 . S
C79 C83 1.460 . S
C79 H85 0.929 . S
N80 Mn73 2.257 . S
N80 C79 1.326 . S
N80 C84 1.362 . S
C81 C82 1.258 . S
C81 C84 1.431 . S
C81 C101 1.449 1_565 S
C82 C81 1.258 . S
C82 C83 1.477 . S
C82 H102 0.931 1_565 S
C83 C79 1.460 . S
C83 C82 1.477 . S
C83 H103 0.930 . S
C84 N80 1.362 . S
C84 C81 1.431 . S
C84 C94 1.476 . S
H85 C79 0.929 . S
C86 O77 1.250 . S
C86 O78 1.258 . S
O87 Mn72 2.162 . S
O87 C75 1.281 . S
O88 Mn72 2.297 . S
O88 C75 1.236 . S
N89 Mn73 2.282 . S
N89 C90 1.328 . S
N89 C94 1.318 . S
C90 N89 1.328 . S
C90 C91 1.457 . S
C90 H95 0.929 . S
C91 C90 1.457 . S
C91 C92 1.291 . S
C91 H104 0.931 . S
C92 C91 1.291 . S
C92 C93 1.373 . S
C92 H105 0.929 1_565 S
C93 C92 1.373 . S
C93 C94 1.396 . S
C93 C100 1.403 1_565 S
C94 C84 1.476 . S
C94 N89 1.318 . S
C94 C93 1.396 . S
H95 C90 0.929 . S
O96 Mn72 2.385 . S
O96 C74 1.234 . S
O97 Mn72 2.209 . S
O97 Mn73 2.215 . S
O97 C74 1.283 . S
O98 Mn72 2.094 . S
O98 C76 1.240 . S
O99 Mn73 2.117 . S
O99 C76 1.264 . S
C100 C93 1.403 1_545 S
C100 C101 1.399 . S
C100 H106 0.929 . S
C101 C81 1.449 1_545 S
C101 C100 1.399 . S
C101 H107 0.930 . S
H102 C82 0.931 1_545 S
H103 C83 0.930 . S
H104 C91 0.931 . S
H105 C92 0.929 1_545 S
H106 C100 0.929 . S
H107 C101 0.930 . S
Mn108 O113 2.095 . S
Mn108 O123 2.162 . S
Mn108 O124 2.297 . S
Mn108 O132 2.385 . S
Mn108 O133 2.209 . S
Mn108 O134 2.094 . S
Mn109 O114 2.121 . S
Mn109 N116 2.257 . S
Mn109 N125 2.282 . S
Mn109 O133 2.215 . S
Mn109 O135 2.117 . S
C110 O132 1.234 . S
C110 O133 1.283 . S
C111 O123 1.281 . S
C111 O124 1.236 . S
C112 O134 1.240 . S
C112 O135 1.264 . S
O113 Mn108 2.095 . S
O113 C122 1.250 . S
O114 Mn109 2.121 . S
O114 C122 1.258 . S
C115 N116 1.326 . S
C115 C119 1.460 . S
C115 H121 0.929 . S
N116 Mn109 2.257 . S
N116 C115 1.326 . S
N116 C120 1.362 . S
C117 C118 1.258 . S
C117 C120 1.431 . S
C117 C137 1.449 . S
C118 C117 1.258 . S
C118 C119 1.477 . S
C118 H138 0.931 . S
C119 C115 1.460 . S
C119 C118 1.477 . S
C119 H139 0.930 . S
C120 N116 1.362 . S
C120 C117 1.431 . S
C120 C130 1.476 . S
H121 C115 0.929 . S
C122 O113 1.250 . S
C122 O114 1.258 . S
O123 Mn108 2.162 . S
O123 C111 1.281 . S
O124 Mn108 2.297 . S
O124 C111 1.236 . S
N125 Mn109 2.282 . S
N125 C126 1.328 . S
N125 C130 1.318 . S
C126 N125 1.328 . S
C126 C127 1.457 . S
C126 H131 0.929 . S
C127 C126 1.457 . S
C127 C128 1.291 . S
C127 H140 0.931 . S
C128 C127 1.291 . S
C128 C129 1.373 . S
C128 H141 0.929 . S
C129 C128 1.373 . S
C129 C130 1.396 . S
C129 C136 1.403 . S
C130 C120 1.476 . S
C130 N125 1.318 . S
C130 C129 1.396 . S
H131 C126 0.929 . S
O132 Mn108 2.385 . S
O132 C110 1.234 . S
O133 Mn108 2.209 . S
O133 Mn109 2.215 . S
O133 C110 1.283 . S
O134 Mn108 2.094 . S
O134 C112 1.240 . S
O135 Mn109 2.117 . S
O135 C112 1.264 . S
C136 C129 1.403 . S
C136 C137 1.399 . S
C136 H142 0.929 . S
C137 C117 1.449 . S
C137 C136 1.399 . S
C137 H143 0.930 . S
H138 C118 0.931 . S
H139 C119 0.930 . S
H140 C127 0.931 . S
H141 C128 0.929 . S
H142 C136 0.929 . S
H143 C137 0.930 . S
Mn144 O149 2.095 . S
Mn144 O159 2.162 . S
Mn144 O160 2.297 . S
Mn144 O168 2.385 . S
Mn144 O169 2.209 . S
Mn144 O170 2.094 . S
Mn145 O150 2.121 . S
Mn145 N152 2.257 . S
Mn145 N161 2.282 . S
Mn145 O169 2.215 . S
Mn145 O171 2.117 . S
C146 O168 1.234 . S
C146 O169 1.283 . S
C147 O159 1.281 . S
C147 O160 1.236 . S
C148 O170 1.240 . S
C148 O171 1.264 . S
O149 Mn144 2.095 . S
O149 C158 1.250 . S
O150 Mn145 2.121 . S
O150 C158 1.258 . S
C151 N152 1.326 . S
C151 C155 1.460 . S
C151 H157 0.929 . S
N152 Mn145 2.257 . S
N152 C151 1.326 . S
N152 C156 1.362 . S
C153 C154 1.258 . S
C153 C156 1.431 . S
C153 C173 1.449 . S
C154 C153 1.258 . S
C154 C155 1.477 . S
C154 H174 0.931 . S
C155 C151 1.460 . S
C155 C154 1.477 . S
C155 H175 0.930 . S
C156 N152 1.362 . S
C156 C153 1.431 . S
C156 C166 1.476 . S
H157 C151 0.929 . S
C158 O149 1.250 . S
C158 O150 1.258 . S
O159 Mn144 2.162 . S
O159 C147 1.281 . S
O160 Mn144 2.297 . S
O160 C147 1.236 . S
N161 Mn145 2.282 . S
N161 C162 1.328 . S
N161 C166 1.318 . S
C162 N161 1.328 . S
C162 C163 1.457 . S
C162 H167 0.929 . S
C163 C162 1.457 . S
C163 C164 1.291 . S
C163 H176 0.931 . S
C164 C163 1.291 . S
C164 C165 1.373 . S
C164 H177 0.929 . S
C165 C164 1.373 . S
C165 C166 1.396 . S
C165 C172 1.403 . S
C166 C156 1.476 . S
C166 N161 1.318 . S
C166 C165 1.396 . S
H167 C162 0.929 . S
O168 Mn144 2.385 . S
O168 C146 1.234 . S
O169 Mn144 2.209 . S
O169 Mn145 2.215 . S
O169 C146 1.283 . S
O170 Mn144 2.094 . S
O170 C148 1.240 . S
O171 Mn145 2.117 . S
O171 C148 1.264 . S
C172 C165 1.403 . S
C172 C173 1.399 . S
C172 H178 0.929 . S
C173 C153 1.449 . S
C173 C172 1.399 . S
C173 H179 0.930 . S
H174 C154 0.931 . S
H175 C155 0.930 . S
H176 C163 0.931 . S
H177 C164 0.929 . S
H178 C172 0.929 . S
H179 C173 0.930 . S
Mn180 O185 2.095 . S
Mn180 O195 2.162 . S
Mn180 O196 2.297 . S
Mn180 O204 2.385 . S
Mn180 O205 2.209 . S
Mn180 O206 2.094 . S
Mn181 O186 2.121 . S
Mn181 N188 2.257 . S
Mn181 N197 2.282 . S
Mn181 O205 2.215 . S
Mn181 O207 2.117 . S
C182 O204 1.234 . S
C182 O205 1.283 . S
C183 O195 1.281 . S
C183 O196 1.236 . S
C184 O206 1.240 . S
C184 O207 1.264 . S
O185 Mn180 2.095 . S
O185 C194 1.250 . S
O186 Mn181 2.121 . S
O186 C194 1.258 . S
C187 N188 1.326 . S
C187 C191 1.460 . S
C187 H193 0.929 . S
N188 Mn181 2.257 . S
N188 C187 1.326 . S
N188 C192 1.362 . S
C189 C190 1.258 . S
C189 C192 1.431 . S
C189 C209 1.449 1_455 S
C190 C189 1.258 . S
C190 C191 1.477 . S
C190 H210 0.931 1_455 S
C191 C187 1.460 . S
C191 C190 1.477 . S
C191 H211 0.930 . S
C192 N188 1.362 . S
C192 C189 1.431 . S
C192 C202 1.476 . S
H193 C187 0.929 . S
C194 O185 1.250 . S
C194 O186 1.258 . S
O195 Mn180 2.162 . S
O195 C183 1.281 . S
O196 Mn180 2.297 . S
O196 C183 1.236 . S
N197 Mn181 2.282 . S
N197 C198 1.328 . S
N197 C202 1.318 . S
C198 N197 1.328 . S
C198 C199 1.457 . S
C198 H203 0.929 . S
C199 C198 1.457 . S
C199 C200 1.291 . S
C199 H212 0.931 . S
C200 C199 1.291 . S
C200 C201 1.373 . S
C200 H213 0.929 1_455 S
C201 C200 1.373 . S
C201 C202 1.396 . S
C201 C208 1.403 1_455 S
C202 C192 1.476 . S
C202 N197 1.318 . S
C202 C201 1.396 . S
H203 C198 0.929 . S
O204 Mn180 2.385 . S
O204 C182 1.234 . S
O205 Mn180 2.209 . S
O205 Mn181 2.215 . S
O205 C182 1.283 . S
O206 Mn180 2.094 . S
O206 C184 1.240 . S
O207 Mn181 2.117 . S
O207 C184 1.264 . S
C208 C201 1.403 1_655 S
C208 C209 1.399 . S
C208 H214 0.929 . S
C209 C189 1.449 1_655 S
C209 C208 1.399 . S
C209 H215 0.930 . S
H210 C190 0.931 1_655 S
H211 C191 0.930 . S
H212 C199 0.931 . S
H213 C200 0.929 1_655 S
H214 C208 0.929 . S
H215 C209 0.930 . S
Mn216 O221 2.095 . S
Mn216 O231 2.162 . S
Mn216 O232 2.297 . S
Mn216 O240 2.385 . S
Mn216 O241 2.209 . S
Mn216 O242 2.094 . S
Mn217 O222 2.121 . S
Mn217 N224 2.257 . S
Mn217 N233 2.282 . S
Mn217 O241 2.215 . S
Mn217 O243 2.117 . S
C218 O240 1.234 . S
C218 O241 1.283 . S
C219 O231 1.281 . S
C219 O232 1.236 . S
C220 O242 1.240 . S
C220 O243 1.264 . S
O221 Mn216 2.095 . S
O221 C230 1.250 . S
O222 Mn217 2.121 . S
O222 C230 1.258 . S
C223 N224 1.326 . S
C223 C227 1.460 . S
C223 H229 0.929 . S
N224 Mn217 2.257 . S
N224 C223 1.326 . S
N224 C228 1.362 . S
C225 C226 1.258 . S
C225 C228 1.431 . S
C225 C245 1.449 . S
C226 C225 1.258 . S
C226 C227 1.477 . S
C226 H246 0.931 . S
C227 C223 1.460 . S
C227 C226 1.477 . S
C227 H247 0.930 . S
C228 N224 1.362 . S
C228 C225 1.431 . S
C228 C238 1.476 . S
H229 C223 0.929 . S
C230 O221 1.250 . S
C230 O222 1.258 . S
O231 Mn216 2.162 . S
O231 C219 1.281 . S
O232 Mn216 2.297 . S
O232 C219 1.236 . S
N233 Mn217 2.282 . S
N233 C234 1.328 . S
N233 C238 1.318 . S
C234 N233 1.328 . S
C234 C235 1.457 . S
C234 H239 0.929 . S
C235 C234 1.457 . S
C235 C236 1.291 . S
C235 H248 0.931 . S
C236 C235 1.291 . S
C236 C237 1.373 . S
C236 H249 0.929 . S
C237 C236 1.373 . S
C237 C238 1.396 . S
C237 C244 1.403 . S
C238 C228 1.476 . S
C238 N233 1.318 . S
C238 C237 1.396 . S
H239 C234 0.929 . S
O240 Mn216 2.385 . S
O240 C218 1.234 . S
O241 Mn216 2.209 . S
O241 Mn217 2.215 . S
O241 C218 1.283 . S
O242 Mn216 2.094 . S
O242 C220 1.240 . S
O243 Mn217 2.117 . S
O243 C220 1.264 . S
C244 C237 1.403 . S
C244 C245 1.399 . S
C244 H250 0.929 . S
C245 C225 1.449 . S
C245 C244 1.399 . S
C245 H251 0.930 . S
H246 C226 0.931 . S
H247 C227 0.930 . S
H248 C235 0.931 . S
H249 C236 0.929 . S
H250 C244 0.929 . S
H251 C245 0.930 . S
Mn252 O257 2.095 . S
Mn252 O267 2.162 . S
Mn252 O268 2.297 . S
Mn252 O276 2.385 . S
Mn252 O277 2.209 . S
Mn252 O278 2.094 . S
Mn253 O258 2.121 . S
Mn253 N260 2.257 . S
Mn253 N269 2.282 . S
Mn253 O277 2.215 . S
Mn253 O279 2.117 . S
C254 O276 1.234 . S
C254 O277 1.283 . S
C255 O267 1.281 . S
C255 O268 1.236 . S
C256 O278 1.240 . S
C256 O279 1.264 . S
O257 Mn252 2.095 . S
O257 C266 1.250 . S
O258 Mn253 2.121 . S
O258 C266 1.258 . S
C259 N260 1.326 . S
C259 C263 1.460 . S
C259 H265 0.929 . S
N260 Mn253 2.257 . S
N260 C259 1.326 . S
N260 C264 1.362 . S
C261 C262 1.258 . S
C261 C264 1.431 . S
C261 C281 1.449 1_655 S
C262 C261 1.258 . S
C262 C263 1.477 . S
C262 H282 0.931 1_655 S
C263 C259 1.460 . S
C263 C262 1.477 . S
C263 H283 0.930 . S
C264 N260 1.362 . S
C264 C261 1.431 . S
C264 C274 1.476 . S
H265 C259 0.929 . S
C266 O257 1.250 . S
C266 O258 1.258 . S
O267 Mn252 2.162 . S
O267 C255 1.281 . S
O268 Mn252 2.297 . S
O268 C255 1.236 . S
N269 Mn253 2.282 . S
N269 C270 1.328 . S
N269 C274 1.318 . S
C270 N269 1.328 . S
C270 C271 1.457 . S
C270 H275 0.929 . S
C271 C270 1.457 . S
C271 C272 1.291 . S
C271 H284 0.931 . S
C272 C271 1.291 . S
C272 C273 1.373 . S
C272 H285 0.929 1_655 S
C273 C272 1.373 . S
C273 C274 1.396 . S
C273 C280 1.403 1_655 S
C274 C264 1.476 . S
C274 N269 1.318 . S
C274 C273 1.396 . S
H275 C270 0.929 . S
O276 Mn252 2.385 . S
O276 C254 1.234 . S
O277 Mn252 2.209 . S
O277 Mn253 2.215 . S
O277 C254 1.283 . S
O278 Mn252 2.094 . S
O278 C256 1.240 . S
O279 Mn253 2.117 . S
O279 C256 1.264 . S
C280 C273 1.403 1_455 S
C280 C281 1.399 . S
C280 H286 0.929 . S
C281 C261 1.449 1_455 S
C281 C280 1.399 . S
C281 H287 0.930 . S
H282 C262 0.931 1_455 S
H283 C263 0.930 . S
H284 C271 0.931 . S
H285 C272 0.929 1_455 S
H286 C280 0.929 . S
H287 C281 0.930 . S
C288 C289 1.386 . S
C288 C290 1.383 . S
C288 H304 0.951 . S
C289 C288 1.386 . S
C289 C293 1.383 . S
C290 C288 1.383 . S
C290 C291 1.402 . S
C290 H305 0.951 . S
C291 C290 1.402 . S
C291 C292 1.375 . S
C291 C294 1.481 . S
C292 C291 1.375 . S
C292 C293 1.367 . S
C292 H306 0.951 . S
C293 C289 1.383 . S
C293 C292 1.367 . S
C293 H307 0.950 . S
C294 C291 1.481 . S
C294 C295 1.297 1_545 S
C294 H308 0.950 1_455 S
C295 C294 1.297 1_565 S
C295 C296 1.479 1_455 S
C295 H309 0.950 . S
C296 C295 1.479 1_655 S
C296 C297 1.375 . S
C296 C302 1.404 . S
C297 C296 1.375 . S
C297 C298 1.369 . S
C297 H310 0.950 1_655 S
C298 C297 1.369 . S
C298 C299 1.392 . S
C298 H311 0.951 . S
C299 C298 1.392 . S
C299 C301 1.384 . S
H300 C302 0.949 . S
C301 C299 1.384 . S
C301 C302 1.385 . S
C301 H303 0.950 . S
C302 C296 1.404 . S
C302 H300 0.949 . S
C302 C301 1.385 . S
H303 C301 0.950 . S
H304 C288 0.951 . S
H305 C290 0.951 . S
H306 C292 0.951 . S
H307 C293 0.950 . S
H308 C294 0.950 1_655 S
H309 C295 0.950 . S
H310 C297 0.950 1_455 S
H311 C298 0.951 . S
C312 C313 1.386 . S
C312 C314 1.383 . S
C312 H328 0.951 . S
C313 C312 1.386 . S
C313 C317 1.383 . S
C314 C312 1.383 . S
C314 C315 1.402 . S
C314 H329 0.951 . S
C315 C314 1.402 . S
C315 C316 1.375 . S
C315 C318 1.481 . S
C316 C315 1.375 . S
C316 C317 1.367 . S
C316 H330 0.951 . S
C317 C313 1.383 . S
C317 C316 1.367 . S
C317 H331 0.950 . S
C318 C315 1.481 . S
C318 C319 1.297 . S
C318 H332 0.950 . S
C319 C318 1.297 . S
C319 C320 1.479 . S
C319 H333 0.950 . S
C320 C319 1.479 . S
C320 C321 1.375 . S
C320 C326 1.404 . S
C321 C320 1.375 . S
C321 C322 1.369 . S
C321 H334 0.950 . S
C322 C321 1.369 . S
C322 C323 1.392 . S
C322 H335 0.951 . S
C323 C322 1.392 . S
C323 C325 1.384 . S
H324 C326 0.949 . S
C325 C323 1.384 . S
C325 C326 1.385 . S
C325 H327 0.950 . S
C326 C320 1.404 . S
C326 H324 0.949 . S
C326 C325 1.385 . S
H327 C325 0.950 . S
H328 C312 0.951 . S
H329 C314 0.951 . S
H330 C316 0.951 . S
H331 C317 0.950 . S
H332 C318 0.950 . S
H333 C319 0.950 . S
H334 C321 0.950 . S
H335 C322 0.951 . S
C336 C337 1.386 . S
C336 C338 1.383 . S
C336 H352 0.951 . S
C337 C336 1.386 . S
C337 C341 1.383 . S
C338 C336 1.383 . S
C338 C339 1.402 . S
C338 H353 0.951 . S
C339 C338 1.402 . S
C339 C340 1.375 . S
C339 C342 1.481 . S
C340 C339 1.375 . S
C340 C341 1.367 . S
C340 H354 0.951 . S
C341 C337 1.383 . S
C341 C340 1.367 . S
C341 H355 0.950 . S
C342 C339 1.481 . S
C342 C343 1.297 . S
C342 H356 0.950 . S
C343 C342 1.297 . S
C343 C344 1.479 . S
C343 H357 0.950 . S
C344 C343 1.479 . S
C344 C345 1.375 . S
C344 C350 1.404 . S
C345 C344 1.375 . S
C345 C346 1.369 . S
C345 H358 0.950 . S
C346 C345 1.369 . S
C346 C347 1.392 . S
C346 H359 0.951 . S
C347 C346 1.392 . S
C347 C349 1.384 . S
H348 C350 0.949 . S
C349 C347 1.384 . S
C349 C350 1.385 . S
C349 H351 0.950 . S
C350 C344 1.404 . S
C350 H348 0.949 . S
C350 C349 1.385 . S
H351 C349 0.950 . S
H352 C336 0.951 . S
H353 C338 0.951 . S
H354 C340 0.951 . S
H355 C341 0.950 . S
H356 C342 0.950 . S
H357 C343 0.950 . S
H358 C345 0.950 . S
H359 C346 0.951 . S
C360 C361 1.386 . S
C360 C362 1.383 . S
C360 H376 0.951 . S
C361 C360 1.386 . S
C361 C365 1.383 . S
C362 C360 1.383 . S
C362 C363 1.402 . S
C362 H377 0.951 1_545 S
C363 C362 1.402 . S
C363 C364 1.375 . S
C363 C366 1.481 . S
C364 C363 1.375 . S
C364 C365 1.367 . S
C364 H378 0.951 . S
C365 C361 1.383 . S
C365 C364 1.367 . S
C365 H379 0.950 . S
C366 C363 1.481 . S
C366 C367 1.297 1_445 S
C366 H380 0.950 1_455 S
C367 C366 1.297 1_665 S
C367 C368 1.479 . S
C367 H381 0.950 1_655 S
C368 C367 1.479 . S
C368 C369 1.375 . S
C368 C374 1.404 . S
C369 C368 1.375 . S
C369 C370 1.369 . S
C369 H382 0.950 . S
C370 C369 1.369 . S
C370 C371 1.392 . S
C370 H383 0.951 . S
C371 C370 1.392 . S
C371 C373 1.384 . S
H372 C374 0.949 1_545 S
C373 C371 1.384 . S
C373 C374 1.385 . S
C373 H375 0.950 . S
C374 C368 1.404 . S
C374 H372 0.949 1_565 S
C374 C373 1.385 . S
H375 C373 0.950 . S
H376 C360 0.951 . S
H377 C362 0.951 1_565 S
H378 C364 0.951 . S
H379 C365 0.950 . S
H380 C366 0.950 1_655 S
H381 C367 0.950 1_455 S
H382 C369 0.950 . S
H383 C370 0.951 . S
C384 C385 1.386 . S
C384 C386 1.383 . S
C384 H400 0.951 . S
C385 C384 1.386 . S
C385 C389 1.383 . S
C386 C384 1.383 . S
C386 C387 1.402 . S
C386 H401 0.951 . S
C387 C386 1.402 . S
C387 C388 1.375 . S
C387 C390 1.481 . S
C388 C387 1.375 . S
C388 C389 1.367 . S
C388 H402 0.951 . S
C389 C385 1.383 . S
C389 C388 1.367 . S
C389 H403 0.950 . S
C390 C387 1.481 . S
C390 C391 1.297 . S
C390 H404 0.950 . S
C391 C390 1.297 . S
C391 C392 1.479 . S
C391 H405 0.950 . S
C392 C391 1.479 . S
C392 C393 1.375 . S
C392 C398 1.404 . S
C393 C392 1.375 . S
C393 C394 1.369 . S
C393 H406 0.950 . S
C394 C393 1.369 . S
C394 C395 1.392 . S
C394 H407 0.951 . S
C395 C394 1.392 . S
C395 C397 1.384 . S
H396 C398 0.949 . S
C397 C395 1.384 . S
C397 C398 1.385 . S
C397 H399 0.950 . S
C398 C392 1.404 . S
C398 H396 0.949 . S
C398 C397 1.385 . S
H399 C397 0.950 . S
H400 C384 0.951 . S
H401 C386 0.951 . S
H402 C388 0.951 . S
H403 C389 0.950 . S
H404 C390 0.950 . S
H405 C391 0.950 . S
H406 C393 0.950 . S
H407 C394 0.951 . S
C408 C409 1.386 . S
C408 C410 1.383 . S
C408 H424 0.951 . S
C409 C408 1.386 . S
C409 C413 1.383 . S
C410 C408 1.383 . S
C410 C411 1.402 . S
C410 H425 0.951 . S
C411 C410 1.402 . S
C411 C412 1.375 . S
C411 C414 1.481 . S
C412 C411 1.375 . S
C412 C413 1.367 . S
C412 H426 0.951 . S
C413 C409 1.383 . S
C413 C412 1.367 . S
C413 H427 0.950 . S
C414 C411 1.481 . S
C414 C415 1.297 1_556 S
C414 H428 0.950 . S
C415 C414 1.297 1_554 S
C415 C416 1.479 . S
C415 H429 0.950 1_554 S
C416 C415 1.479 . S
C416 C417 1.375 . S
C416 C422 1.404 . S
C417 C416 1.375 . S
C417 C418 1.369 . S
C417 H430 0.950 . S
C418 C417 1.369 . S
C418 C419 1.392 . S
C418 H431 0.951 . S
C419 C418 1.392 . S
C419 C421 1.384 . S
H420 C422 0.949 . S
C421 C419 1.384 . S
C421 C422 1.385 . S
C421 H423 0.950 . S
C422 C416 1.404 . S
C422 H420 0.949 . S
C422 C421 1.385 . S
H423 C421 0.950 . S
H424 C408 0.951 . S
H425 C410 0.951 . S
H426 C412 0.951 . S
H427 C413 0.950 . S
H428 C414 0.950 . S
H429 C415 0.950 1_556 S
H430 C417 0.950 . S
H431 C418 0.951 . S
C432 C433 1.386 . S
C432 C434 1.383 . S
C432 H448 0.951 . S
C433 C432 1.386 . S
C433 C437 1.383 . S
C434 C432 1.383 . S
C434 C435 1.402 . S
C434 H449 0.951 . S
C435 C434 1.402 . S
C435 C436 1.375 . S
C435 C438 1.481 . S
C436 C435 1.375 . S
C436 C437 1.367 . S
C436 H450 0.951 . S
C437 C433 1.383 . S
C437 C436 1.367 . S
C437 H451 0.950 . S
C438 C435 1.481 . S
C438 C439 1.297 . S
C438 H452 0.950 . S
C439 C438 1.297 . S
C439 C440 1.479 . S
C439 H453 0.950 . S
C440 C439 1.479 . S
C440 C441 1.375 . S
C440 C446 1.404 . S
C441 C440 1.375 . S
C441 C442 1.369 . S
C441 H454 0.950 . S
C442 C441 1.369 . S
C442 C443 1.392 . S
C442 H455 0.951 . S
C443 C442 1.392 . S
C443 C445 1.384 . S
H444 C446 0.949 . S
C445 C443 1.384 . S
C445 C446 1.385 . S
C445 H447 0.950 . S
C446 C440 1.404 . S
C446 H444 0.949 . S
C446 C445 1.385 . S
H447 C445 0.950 . S
H448 C432 0.951 . S
H449 C434 0.951 . S
H450 C436 0.951 . S
H451 C437 0.950 . S
H452 C438 0.950 . S
H453 C439 0.950 . S
H454 C441 0.950 . S
H455 C442 0.951 . S
C456 C457 1.386 . S
C456 C458 1.383 . S
C456 H472 0.951 . S
C457 C456 1.386 . S
C457 C461 1.383 . S
C458 C456 1.383 . S
C458 C459 1.402 . S
C458 H473 0.951 . S
C459 C458 1.402 . S
C459 C460 1.375 . S
C459 C462 1.481 . S
C460 C459 1.375 . S
C460 C461 1.367 . S
C460 H474 0.951 . S
C461 C457 1.383 . S
C461 C460 1.367 . S
C461 H475 0.950 . S
C462 C459 1.481 . S
C462 C463 1.297 1_556 S
C462 H476 0.954 . S
C463 C462 1.297 1_554 S
C463 C464 1.479 . S
C463 H477 0.950 1_554 S
C464 C463 1.479 . S
C464 C465 1.375 . S
C464 C470 1.404 . S
C465 C464 1.375 . S
C465 C466 1.369 . S
C465 H478 0.950 . S
C466 C465 1.369 . S
C466 C467 1.392 . S
C466 H479 0.951 . S
C467 C466 1.392 . S
C467 C469 1.384 . S
H468 C470 0.949 . S
C469 C467 1.384 . S
C469 C470 1.385 . S
C469 H471 0.950 . S
C470 C464 1.404 . S
C470 H468 0.949 . S
C470 C469 1.385 . S
H471 C469 0.950 . S
H472 C456 0.951 . S
H473 C458 0.951 . S
H474 C460 0.951 . S
H475 C461 0.950 . S
H476 C462 0.954 . S
H477 C463 0.950 1_556 S
H478 C465 0.950 . S
H479 C466 0.951 . S
C480 C481 1.386 . S
C480 C482 1.383 . S
C480 H496 0.951 . S
C481 C480 1.386 . S
C481 C485 1.383 . S
C482 C480 1.383 . S
C482 C483 1.402 . S
C482 H497 0.951 . S
C483 C482 1.402 . S
C483 C484 1.375 . S
C483 C486 1.481 . S
C484 C483 1.375 . S
C484 C485 1.367 . S
C484 H498 0.951 . S
C485 C481 1.383 . S
C485 C484 1.367 . S
C485 H499 0.950 . S
C486 C483 1.481 . S
C486 C487 1.297 . S
C486 H500 0.950 . S
C487 C486 1.297 . S
C487 C488 1.479 . S
C487 H501 0.950 . S
C488 C487 1.479 . S
C488 C489 1.375 . S
C488 C494 1.404 . S
C489 C488 1.375 . S
C489 C490 1.369 . S
C489 H502 0.950 . S
C490 C489 1.369 . S
C490 C491 1.392 . S
C490 H503 0.951 . S
C491 C490 1.392 . S
C491 C493 1.384 . S
H492 C494 0.949 . S
C493 C491 1.384 . S
C493 C494 1.385 . S
C493 H495 0.950 . S
C494 C488 1.404 . S
C494 H492 0.949 . S
C494 C493 1.385 . S
H495 C493 0.950 . S
H496 C480 0.951 . S
H497 C482 0.951 . S
H498 C484 0.951 . S
H499 C485 0.950 . S
H500 C486 0.950 . S
H501 C487 0.950 . S
H502 C489 0.950 . S
H503 C490 0.951 . S
C504 C505 1.386 . S
C504 C506 1.383 . S
C504 H520 0.951 . S
C505 C504 1.386 . S
C505 C509 1.383 . S
C506 C504 1.383 . S
C506 C507 1.402 . S
C506 H521 0.951 . S
C507 C506 1.402 . S
C507 C508 1.375 . S
C507 C510 1.481 . S
C508 C507 1.375 . S
C508 C509 1.367 . S
C508 H522 0.951 . S
C509 C505 1.383 . S
C509 C508 1.367 . S
C509 H523 0.950 . S
C510 C507 1.481 . S
C510 C511 1.297 . S
C510 H524 0.950 . S
C511 C510 1.297 . S
C511 C512 1.479 . S
C511 H525 0.950 . S
C512 C511 1.479 . S
C512 C513 1.375 . S
C512 C518 1.404 . S
C513 C512 1.375 . S
C513 C514 1.369 . S
C513 H526 0.950 . S
C514 C513 1.369 . S
C514 C515 1.392 . S
C514 H527 0.951 1_565 S
C515 C514 1.392 . S
C515 C517 1.384 . S
H516 C518 0.949 . S
C517 C515 1.384 . S
C517 C518 1.385 . S
C517 H519 0.950 . S
C518 C512 1.404 . S
C518 H516 0.949 . S
C518 C517 1.385 . S
H519 C517 0.950 . S
H520 C504 0.951 . S
H521 C506 0.951 . S
H522 C508 0.951 . S
H523 C509 0.950 . S
H524 C510 0.950 . S
H525 C511 0.950 . S
H526 C513 0.950 . S
H527 C514 0.951 1_545 S
C528 C529 1.386 . S
C528 C530 1.383 . S
C528 H544 0.951 . S
C529 C528 1.386 . S
C529 C533 1.383 . S
C530 C528 1.383 . S
C530 C531 1.402 . S
C530 H545 0.951 . S
C531 C530 1.402 . S
C531 C532 1.375 . S
C531 C534 1.481 . S
C532 C531 1.375 . S
C532 C533 1.367 . S
C532 H546 0.951 . S
C533 C529 1.383 . S
C533 C532 1.367 . S
C533 H547 0.950 . S
C534 C531 1.481 . S
C534 C535 1.297 . S
C534 H548 0.950 . S
C535 C534 1.297 . S
C535 C536 1.479 . S
C535 H549 0.950 . S
C536 C535 1.479 . S
C536 C537 1.375 . S
C536 C542 1.404 . S
C537 C536 1.375 . S
C537 C538 1.369 . S
C537 H550 0.950 . S
C538 C537 1.369 . S
C538 C539 1.392 . S
C538 H551 0.951 . S
C539 C538 1.392 . S
C539 C541 1.384 . S
H540 C542 0.949 . S
C541 C539 1.384 . S
C541 C542 1.385 . S
C541 H543 0.950 . S
C542 C536 1.404 . S
C542 H540 0.949 . S
C542 C541 1.385 . S
H543 C541 0.950 . S
H544 C528 0.951 . S
H545 C530 0.951 . S
H546 C532 0.951 . S
H547 C533 0.950 . S
H548 C534 0.950 . S
H549 C535 0.950 . S
H550 C537 0.950 . S
H551 C538 0.951 . S
C552 C553 1.386 . S
C552 C554 1.383 . S
C552 H568 0.951 . S
C553 C552 1.386 . S
C553 C557 1.383 . S
C554 C552 1.383 . S
C554 C555 1.402 . S
C554 H569 0.951 . S
C555 C554 1.402 . S
C555 C556 1.375 . S
C555 C558 1.481 . S
C556 C555 1.375 . S
C556 C557 1.367 . S
C556 H570 0.951 . S
C557 C553 1.383 . S
C557 C556 1.367 . S
C557 H571 0.950 . S
C558 C555 1.481 . S
C558 C559 1.297 . S
C558 H572 0.950 . S
C559 C558 1.297 . S
C559 C560 1.479 . S
C559 H573 0.950 . S
C560 C559 1.479 . S
C560 C561 1.375 . S
C560 C566 1.404 . S
C561 C560 1.375 . S
C561 C562 1.369 . S
C561 H574 0.950 . S
C562 C561 1.369 . S
C562 C563 1.392 . S
C562 H575 0.951 . S
C563 C562 1.392 . S
C563 C565 1.384 . S
H564 C566 0.949 . S
C565 C563 1.384 . S
C565 C566 1.385 . S
C565 H567 0.950 1_545 S
C566 C560 1.404 . S
C566 H564 0.949 . S
C566 C565 1.385 . S
H567 C565 0.950 1_565 S
H568 C552 0.951 . S
H569 C554 0.951 . S
H570 C556 0.951 . S
H571 C557 0.950 . S
H572 C558 0.950 . S
H573 C559 0.950 . S
H574 C561 0.950 . S
H575 C562 0.951 . S
C576 C577 1.386 . S
C576 C578 1.383 . S
C576 H592 0.951 . S
C577 C576 1.386 . S
C577 C581 1.383 . S
C578 C576 1.383 . S
C578 C579 1.402 . S
C578 H593 0.951 . S
C579 C578 1.402 . S
C579 C580 1.375 . S
C579 C582 1.481 . S
C580 C579 1.375 . S
C580 C581 1.370 . S
C580 H594 0.951 . S
C581 C577 1.383 . S
C581 C580 1.370 . S
C581 H595 0.946 1_655 S
C582 C579 1.481 . S
C582 C583 1.297 . S
C582 H596 0.950 . S
C583 C582 1.297 . S
C583 C584 1.479 . S
C583 H597 0.950 . S
C584 C583 1.479 . S
C584 C585 1.375 . S
C584 C590 1.404 . S
C585 C584 1.375 . S
C585 C586 1.369 . S
C585 H598 0.950 . S
C586 C585 1.369 . S
C586 C587 1.392 . S
C586 H599 0.951 . S
C587 C586 1.392 . S
C587 C589 1.384 . S
H588 C590 0.949 . S
C589 C587 1.384 . S
C589 C590 1.385 . S
C589 H591 0.950 . S
C590 C584 1.404 . S
C590 H588 0.949 . S
C590 C589 1.385 . S
H591 C589 0.950 . S
H592 C576 0.951 . S
H593 C578 0.951 . S
H594 C580 0.951 . S
H595 C581 0.946 1_455 S
H596 C582 0.950 . S
H597 C583 0.950 . S
H598 C585 0.950 . S
H599 C586 0.951 . S
C600 C601 1.386 . S
C600 C602 1.383 . S
C600 H616 0.951 . S
C601 C600 1.386 . S
C601 C605 1.383 . S
C602 C600 1.383 . S
C602 C603 1.402 . S
C602 H617 0.951 . S
C603 C602 1.402 . S
C603 C604 1.375 . S
C603 C606 1.481 . S
C604 C603 1.375 . S
C604 C605 1.367 . S
C604 H618 0.951 . S
C605 C601 1.383 . S
C605 C604 1.367 . S
C605 H619 0.950 . S
C606 C603 1.481 . S
C606 C607 1.297 . S
C606 H620 0.950 . S
C607 C606 1.297 . S
C607 C608 1.479 . S
C607 H621 0.950 . S
C608 C607 1.479 . S
C608 C609 1.375 . S
C608 C614 1.404 . S
C609 C608 1.375 . S
C609 C610 1.369 . S
C609 H622 0.950 . S
C610 C609 1.369 . S
C610 C611 1.392 . S
C610 H623 0.951 . S
C611 C610 1.392 . S
C611 C613 1.384 . S
H612 C614 0.949 . S
C613 C611 1.384 . S
C613 C614 1.385 . S
C613 H615 0.950 . S
C614 C608 1.404 . S
C614 H612 0.949 . S
C614 C613 1.385 . S
H615 C613 0.950 . S
H616 C600 0.951 . S
H617 C602 0.951 . S
H618 C604 0.951 . S
H619 C605 0.950 . S
H620 C606 0.950 . S
H621 C607 0.950 . S
H622 C609 0.950 . S
H623 C610 0.951 . S
C624 C625 1.386 . S
C624 C626 1.383 . S
C624 H640 0.951 . S
C625 C624 1.386 . S
C625 C629 1.383 . S
C626 C624 1.383 . S
C626 C627 1.402 . S
C626 H641 0.951 . S
C627 C626 1.402 . S
C627 C628 1.375 . S
C627 C630 1.481 . S
C628 C627 1.375 . S
C628 C629 1.367 . S
C628 H642 0.951 . S
C629 C625 1.383 . S
C629 C628 1.367 . S
C629 H643 0.950 . S
C630 C627 1.481 . S
C630 C631 1.297 . S
C630 H644 0.950 . S
C631 C630 1.297 . S
C631 C632 1.479 . S
C631 H645 0.950 . S
C632 C631 1.479 . S
C632 C633 1.375 . S
C632 C638 1.404 . S
C633 C632 1.375 . S
C633 C634 1.369 . S
C633 H646 0.950 . S
C634 C633 1.369 . S
C634 C635 1.392 . S
C634 H647 0.951 . S
C635 C634 1.392 . S
C635 C637 1.384 . S
H636 C638 0.949 . S
C637 C635 1.384 . S
C637 C638 1.385 . S
C637 H639 0.939 1_455 S
C638 C632 1.404 . S
C638 H636 0.949 . S
C638 C637 1.385 . S
H639 C637 0.939 1_655 S
H640 C624 0.951 . S
H641 C626 0.951 . S
H642 C628 0.951 . S
H643 C629 0.950 . S
H644 C630 0.950 . S
H645 C631 0.950 . S
H646 C633 0.950 . S
H647 C634 0.951 . S
C648 C649 1.386 . S
C648 C650 1.383 . S
C648 H664 0.951 . S
C649 C648 1.386 . S
C649 C653 1.383 . S
C650 C648 1.383 . S
C650 C651 1.402 . S
C650 H665 0.951 . S
C651 C650 1.402 . S
C651 C652 1.375 . S
C651 C654 1.481 . S
C652 C651 1.375 . S
C652 C653 1.367 . S
C652 H666 0.951 . S
C653 C649 1.383 . S
C653 C652 1.367 . S
C653 H667 0.950 . S
C654 C651 1.481 . S
C654 C655 1.297 . S
C654 H668 0.950 . S
C655 C654 1.297 . S
C655 C656 1.479 . S
C655 H669 0.950 . S
C656 C655 1.479 . S
C656 C657 1.375 . S
C656 C662 1.404 . S
C657 C656 1.375 . S
C657 C658 1.369 . S
C657 H670 0.950 . S
C658 C657 1.369 . S
C658 C659 1.392 . S
C658 H671 0.951 . S
C659 C658 1.392 . S
C659 C661 1.384 . S
H660 C662 0.949 . S
C661 C659 1.384 . S
C661 C662 1.385 . S
C661 H663 0.950 . S
C662 C656 1.404 . S
C662 H660 0.949 . S
C662 C661 1.385 . S
H663 C661 0.950 . S
H664 C648 0.951 . S
H665 C650 0.951 . S
H666 C652 0.951 . S
H667 C653 0.950 . S
H668 C654 0.950 . S
H669 C655 0.950 . S
H670 C657 0.950 . S
H671 C658 0.951 . S
C289 C2 0.347 . S
C299 C74 0.231 . S
C313 C38 0.427 . S
C323 C110 0.333 . S
C337 C146 0.291 . S
C347 C218 0.296 . S
C361 C182 0.429 . S
C371 C254 0.476 . S
C385 C4 1.435 . S
C395 C184 1.434 . S
C409 C40 1.399 . S
C419 C220 1.425 . S
C433 C256 1.399 . S
C443 C76 1.355 . S
C457 C112 1.417 . S
C467 C148 1.445 . S
C481 C147 1.666 . S
C491 C14 1.636 . S
C505 C50 1.601 . S
C515 C183 1.711 1_565 S
C529 C86 1.646 . S
C539 C219 1.648 . S
C553 C122 1.597 . S
C563 C255 1.661 1_545 S
C577 C3 1.707 1_655 S
C587 C158 1.579 . S
C601 C194 1.641 . S
C611 C39 1.709 . S
C625 C230 1.592 . S
C635 C75 1.670 1_455 S
C649 C111 1.667 . S
C659 C266 1.608 . S
