# Generated by pormake.
# Topology umz, (4)-cn, num edge types: 1
# Building blocks:
#     Node 0, Type 0, BuildingBlock: QUQFOY_clean_sbu_3, # of connection points: 4
#     Node 1, Type 0, BuildingBlock: QUQFOY_clean_sbu_3, # of connection points: 4
#     Node 2, Type 0, BuildingBlock: QUQFOY_clean_sbu_3, # of connection points: 4
#     Node 3, Type 0, BuildingBlock: QUQFOY_clean_sbu_3, # of connection points: 4
#     Node 4, Type 0, BuildingBlock: QUQFOY_clean_sbu_3, # of connection points: 4
#     Node 5, Type 0, BuildingBlock: QUQFOY_clean_sbu_3, # of connection points: 4
#     Node 6, Type 0, BuildingBlock: QUQFOY_clean_sbu_3, # of connection points: 4
#     Node 7, Type 0, BuildingBlock: QUQFOY_clean_sbu_3, # of connection points: 4
#     Node 8, Type 0, BuildingBlock: QUQFOY_clean_sbu_3, # of connection points: 4
#     Node 9, Type 0, BuildingBlock: QUQFOY_clean_sbu_3, # of connection points: 4
#     Node 10, Type 0, BuildingBlock: QUQFOY_clean_sbu_3, # of connection points: 4
#     Node 11, Type 0, BuildingBlock: QUQFOY_clean_sbu_3, # of connection points: 4
#     Node 12, Type 0, BuildingBlock: QUQFOY_clean_sbu_3, # of connection points: 4
#     Node 13, Type 0, BuildingBlock: QUQFOY_clean_sbu_3, # of connection points: 4
#     Node 14, Type 0, BuildingBlock: QUQFOY_clean_sbu_3, # of connection points: 4
#     Node 15, Type 0, BuildingBlock: QUQFOY_clean_sbu_3, # of connection points: 4
#     Edge 16, Type (0, 0), BuildingBlock: CIFDUS_clean_linker_0, # of connection points: 2
#     Edge 17, Type (0, 0), BuildingBlock: CIFDUS_clean_linker_0, # of connection points: 2
#     Edge 18, Type (0, 0), BuildingBlock: CIFDUS_clean_linker_0, # of connection points: 2
#     Edge 19, Type (0, 0), BuildingBlock: CIFDUS_clean_linker_0, # of connection points: 2
#     Edge 20, Type (0, 0), BuildingBlock: CIFDUS_clean_linker_0, # of connection points: 2
#     Edge 21, Type (0, 0), BuildingBlock: CIFDUS_clean_linker_0, # of connection points: 2
#     Edge 22, Type (0, 0), BuildingBlock: CIFDUS_clean_linker_0, # of connection points: 2
#     Edge 23, Type (0, 0), BuildingBlock: CIFDUS_clean_linker_0, # of connection points: 2
#     Edge 24, Type (0, 0), BuildingBlock: CIFDUS_clean_linker_0, # of connection points: 2
#     Edge 25, Type (0, 0), BuildingBlock: CIFDUS_clean_linker_0, # of connection points: 2
#     Edge 26, Type (0, 0), BuildingBlock: CIFDUS_clean_linker_0, # of connection points: 2
#     Edge 27, Type (0, 0), BuildingBlock: CIFDUS_clean_linker_0, # of connection points: 2
#     Edge 28, Type (0, 0), BuildingBlock: CIFDUS_clean_linker_0, # of connection points: 2
#     Edge 29, Type (0, 0), BuildingBlock: CIFDUS_clean_linker_0, # of connection points: 2
#     Edge 30, Type (0, 0), BuildingBlock: CIFDUS_clean_linker_0, # of connection points: 2
#     Edge 31, Type (0, 0), BuildingBlock: CIFDUS_clean_linker_0, # of connection points: 2
#     Edge 32, Type (0, 0), BuildingBlock: CIFDUS_clean_linker_0, # of connection points: 2
#     Edge 33, Type (0, 0), BuildingBlock: CIFDUS_clean_linker_0, # of connection points: 2
#     Edge 34, Type (0, 0), BuildingBlock: CIFDUS_clean_linker_0, # of connection points: 2
#     Edge 35, Type (0, 0), BuildingBlock: CIFDUS_clean_linker_0, # of connection points: 2
#     Edge 36, Type (0, 0), BuildingBlock: CIFDUS_clean_linker_0, # of connection points: 2
#     Edge 37, Type (0, 0), BuildingBlock: CIFDUS_clean_linker_0, # of connection points: 2
#     Edge 38, Type (0, 0), BuildingBlock: CIFDUS_clean_linker_0, # of connection points: 2
#     Edge 39, Type (0, 0), BuildingBlock: CIFDUS_clean_linker_0, # of connection points: 2
#     Edge 40, Type (0, 0), BuildingBlock: CIFDUS_clean_linker_0, # of connection points: 2
#     Edge 41, Type (0, 0), BuildingBlock: CIFDUS_clean_linker_0, # of connection points: 2
#     Edge 42, Type (0, 0), BuildingBlock: CIFDUS_clean_linker_0, # of connection points: 2
#     Edge 43, Type (0, 0), BuildingBlock: CIFDUS_clean_linker_0, # of connection points: 2
#     Edge 44, Type (0, 0), BuildingBlock: CIFDUS_clean_linker_0, # of connection points: 2
#     Edge 45, Type (0, 0), BuildingBlock: CIFDUS_clean_linker_0, # of connection points: 2
#     Edge 46, Type (0, 0), BuildingBlock: CIFDUS_clean_linker_0, # of connection points: 2
#     Edge 47, Type (0, 0), BuildingBlock: CIFDUS_clean_linker_0, # of connection points: 2
# Relax obj value: 0.249
# Max RMSD: 0.161
# Mean RMSD: 0.161
data_MOF--net-umz--node1-QUQFOY_clean_sbu_3--edge1-CIFDUS_clean_linker_0
_symmetry_space_group_name_H-M    P1
_symmetry_Int_Tables_number       1
_symmetry_cell_setting            triclinic
loop_
_symmetry_equiv_pos_as_xyz
'x, y, z'
_cell_length_a     54.654551
_cell_length_b     54.980739
_cell_length_c     20.322387
_cell_angle_alpha  90.374549
_cell_angle_beta   89.85072
_cell_angle_gamma 90.703379
loop_
_atom_site_label
_atom_site_type_symbol
_atom_site_fract_x
_atom_site_fract_y
_atom_site_fract_z
_atom_type_partial_charge
C0 C 0.9455 0.58124 0.08577 0.0
O1 O 0.9461 0.56635 0.03774 0.0
Cd2 Cd -0.01828 0.5643 0.96744 0.0
O3 O 0.96098 0.59869 0.08926 0.0
Cd4 Cd -0.00593 0.6179 0.02365 0.0
C5 C 0.0243 0.5717 0.09293 0.0
O6 O -0.00937 0.60133 0.91217 0.0
O7 O 0.0261 0.61496 0.9433 0.0
O8 O 0.97 0.65453 0.01361 0.0
C9 C 0.01303 0.60548 0.89828 0.0
O10 O 0.01365 0.55848 0.04957 0.0
C11 C -0.01298 0.66901 0.03172 0.0
O12 O 0.02007 0.59446 0.09733 0.0
O13 O 0.00715 0.65963 0.04909 0.0
C14 C 0.8886 0.922 0.54383 0.0
O15 O 0.9046 0.92241 0.49841 0.0
Cd16 Cd 0.90909 0.95691 0.42729 0.0
O17 O 0.87164 0.9377 0.54501 0.0
Cd18 Cd 0.8557 0.97123 0.47617 0.0
C19 C 0.90239 0.00175 0.54713 0.0
O20 O 0.87268 0.96359 0.36648 0.0
O21 O 0.86207 0.0004 0.38921 0.0
O22 O 0.81616 0.95047 0.46883 0.0
C23 C 0.87023 -0.01462 0.34724 0.0
O24 O 0.91584 -0.00982 0.50651 0.0
C25 C 0.8037 0.96895 0.48496 0.0
O26 O 0.87933 -0.00208 0.54919 0.0
O27 O 0.8155 -0.01165 0.49909 0.0
C28 C 0.53362 0.88706 0.08351 0.0
O29 O 0.53382 0.9031 0.03881 0.0
Cd30 Cd 0.49924 0.90954 0.96871 0.0
O31 O 0.51669 0.87092 0.08524 0.0
Cd32 Cd 0.48116 0.85713 0.01785 0.0
C33 C 0.45435 0.90577 0.08918 0.0
O34 O 0.48968 0.87343 0.90829 0.0
O35 O 0.45208 0.86425 0.93098 0.0
O36 O 0.49809 0.81645 0.00646 0.0
C37 C 0.46762 0.87166 0.88903 0.0
O38 O 0.46684 0.91856 0.0488 0.0
C39 C 0.47889 0.80535 0.0259 0.0
O40 O 0.45642 0.88268 0.09046 0.0
O41 O 0.46103 0.81842 0.04407 0.0
C42 C 0.56862 0.51993 0.58998 0.0
O43 O 0.55033 0.51726 0.55211 0.0
Cd44 Cd 0.54339 0.48205 0.48452 0.0
O45 O 0.58641 0.50513 0.58721 0.0
Cd46 Cd 0.59831 0.46974 0.51597 0.0
C47 C 0.55512 0.43804 0.59968 0.0
O48 O 0.57741 0.47775 0.41164 0.0
O49 O 0.58862 0.44088 0.42838 0.0
O50 O 0.63974 0.4856 0.49413 0.0
C51 C 0.57968 0.45628 0.38939 0.0
O52 O 0.53938 0.44864 0.56404 0.0
C53 C 0.65033 0.46621 0.51145 0.0
O54 O 0.57782 0.44309 0.59397 0.0
O55 O 0.6368 0.44919 0.53358 0.0
C56 C 0.93535 0.89031 0.89139 0.0
O57 O 0.93721 0.90883 0.9288 0.0
Cd58 Cd 0.97362 0.91828 -0.01013 0.0
O59 O 0.95138 0.87367 0.89314 0.0
Cd60 Cd -0.0117 0.86359 0.95892 0.0
C61 C 0.01506 0.90705 0.865 0.0
O62 O -0.01773 0.88574 0.06282 0.0
O63 O 0.01912 0.87499 0.03903 0.0
O64 O 0.97259 0.82297 -0.01371 0.0
C65 C 0.00452 0.88442 0.08018 0.0
O66 O 0.00448 0.92242 0.90235 0.0
C67 C -0.0083 0.81195 0.96734 0.0
O68 O 0.01176 0.88427 0.87319 0.0
O69 O 0.00865 0.82486 0.94198 0.0
C70 C 0.57562 0.93241 0.42776 0.0
O71 O 0.55994 0.93348 0.47392 0.0
Cd72 Cd 0.55479 0.96982 0.53931 0.0
O73 O 0.59198 0.94897 0.42209 0.0
Cd74 Cd 0.60734 -0.01412 0.47974 0.0
C75 C 0.55744 0.01044 0.40964 0.0
O76 O 0.59185 -0.01789 0.59197 0.0
O77 O 0.60218 0.01811 0.5589 0.0
O78 O 0.64755 0.96807 0.49107 0.0
C79 C 0.59421 0.0047 0.60489 0.0
O80 O 0.54515 -0.00049 0.45421 0.0
C81 C 0.65917 -0.01414 0.46575 0.0
O82 O 0.58061 0.00809 0.40545 0.0
O83 O 0.64653 0.00344 0.44462 0.0
C84 C 0.5293 0.57142 0.93018 0.0
O85 O 0.52512 0.55512 0.97291 0.0
Cd86 Cd 0.48794 0.55399 0.03594 0.0
O87 O 0.5161 0.59038 0.92809 0.0
Cd88 Cd 0.4824 0.60961 -0.00723 0.0
C89 C 0.44871 0.56824 0.90848 0.0
O90 O 0.48434 0.59005 0.10039 0.0
O91 O 0.44988 0.60586 0.07346 0.0
O92 O 0.50609 0.64728 0.00896 0.0
C93 C 0.46246 0.59506 0.11635 0.0
O94 O 0.4569 0.55262 0.94871 0.0
C95 C 0.489 0.66115 -0.00942 0.0
O96 O 0.45555 0.59047 0.91184 0.0
O97 O 0.46931 0.65098 0.97096 0.0
C98 C 0.88094 0.50705 0.36663 0.0
O99 O 0.89777 0.505 0.40913 0.0
Cd100 Cd 0.90081 0.46823 0.4721 0.0
O101 O 0.86278 0.49231 0.36638 0.0
Cd102 Cd 0.84527 0.45898 0.43441 0.0
C103 C 0.8862 0.4275 0.34623 0.0
O104 O 0.86605 0.46171 0.54091 0.0
O105 O 0.8508 0.42671 0.5128 0.0
O106 O 0.80957 0.4839 0.45584 0.0
C107 C 0.86172 0.43963 0.55579 0.0
O108 O 0.90186 0.43707 0.38531 0.0
C109 C 0.79402 0.46744 0.44079 0.0
O110 O 0.86357 0.43274 0.35075 0.0
O111 O 0.8023 0.44719 0.42063 0.0
C112 C 0.02146 0.3769 0.8561 0.0
O113 O 0.02203 0.39266 0.90207 0.0
Cd114 Cd -0.0124 0.3983 0.97462 0.0
O115 O 0.00474 0.36055 0.85508 0.0
Cd116 Cd 0.9699 0.34572 0.92329 0.0
C117 C 0.94223 0.39417 0.85601 0.0
O118 O 0.97674 0.36237 0.03305 0.0
O119 O 0.93933 0.35318 0.00714 0.0
O120 O -0.01492 0.30573 0.95087 0.0
C121 C 0.95438 0.36081 0.05033 0.0
O122 O 0.95499 0.40696 0.89609 0.0
C123 C 0.96987 0.2939 0.91562 0.0
O124 O 0.94426 0.37107 0.85372 0.0
O125 O 0.95478 0.30613 0.88211 0.0
C126 C 0.0889 0.03035 0.34397 0.0
O127 O 0.08666 0.0381 0.40243 0.0
Cd128 Cd 0.09836 -0.00159 0.44524 0.0
O129 O 0.09758 0.00923 0.3363 0.0
Cd130 Cd 0.11002 -0.01383 0.44351 0.0
C131 C 0.0816 0.95293 0.35741 0.0
O132 O 0.08489 -0.00453 0.55018 0.0
O133 O 0.09089 0.95804 0.52372 0.0
O134 O 0.14811 0.0094 0.46691 0.0
C135 C 0.08247 0.97321 0.56506 0.0
O136 O 0.0701 0.97054 0.38286 0.0
C137 C 0.16129 -0.00948 0.46905 0.0
O138 O 0.10418 0.95154 0.37019 0.0
O139 O 0.15061 0.97022 0.45915 0.0
C140 C 0.43439 0.06278 0.92699 0.0
O141 O 0.43618 0.04702 0.97211 0.0
Cd142 Cd 0.47273 0.04361 0.03818 0.0
O143 O 0.4501 0.07998 0.92263 0.0
Cd144 Cd 0.48647 0.09656 0.98005 0.0
C145 C 0.51445 0.04811 0.91069 0.0
O146 O 0.48486 0.08059 0.09156 0.0
O147 O 0.52027 0.09221 0.05415 0.0
O148 O 0.4716 0.13652 0.00984 0.0
C149 C 0.50771 0.08366 0.10148 0.0
O150 O 0.50354 0.03522 0.95398 0.0
C151 C 0.4845 0.14804 0.96806 0.0
O152 O 0.51104 0.071 0.90735 0.0
O153 O 0.49818 0.13562 0.93028 0.0
C154 C 0.38224 0.43676 0.41154 0.0
O155 O 0.39973 0.43484 0.45216 0.0
Cd156 Cd 0.4111 0.4679 0.52542 0.0
O157 O 0.36799 0.45485 0.41509 0.0
Cd158 Cd 0.36049 0.49134 0.48347 0.0
C159 C 0.41172 0.5142 0.41155 0.0
O160 O 0.37777 0.4822 0.59114 0.0
O161 O 0.3726 0.52014 0.56717 0.0
O162 O 0.31853 0.4825 0.51574 0.0
C163 C 0.37887 0.50442 0.60915 0.0
O164 O 0.42352 0.5 0.44896 0.0
C165 C 0.309 0.49845 0.4793 0.0
O166 O 0.38837 0.51434 0.41217 0.0
O167 O 0.32337 0.5111 0.44363 0.0
C168 C 0.01919 0.06429 0.01945 0.0
O169 O 0.01356 0.04713 0.97997 0.0
Cd170 Cd 0.97555 0.04391 0.922 0.0
O171 O 0.00571 0.08301 0.02427 0.0
Cd172 Cd 0.96789 0.09909 0.97145 0.0
C173 C 0.93694 0.05484 0.05345 0.0
O174 O 0.96851 0.08028 0.86303 0.0
O175 O 0.93339 0.09299 0.89672 0.0
O176 O -0.01741 0.13878 0.9342 0.0
C177 C 0.946 0.08352 0.85094 0.0
O178 O 0.94563 0.03997 0.01132 0.0
C179 C 0.97072 0.15098 0.97651 0.0
O180 O 0.94261 0.07741 0.05171 0.0
O181 O 0.9579 0.13912 0.01786 0.0
C182 C 0.3907 0.01746 0.5822 0.0
O183 O 0.40756 0.01544 0.53946 0.0
Cd184 Cd 0.41153 -0.02059 0.47229 0.0
O185 O 0.37268 0.00255 0.58255 0.0
Cd186 Cd 0.35624 0.96829 0.51498 0.0
C187 C 0.4 0.93757 0.5951 0.0
O188 O 0.37597 0.97211 0.40691 0.0
O189 O 0.36164 0.93669 0.43318 0.0
O190 O 0.31717 -0.01154 0.49757 0.0
C191 C 0.37212 0.95001 0.39065 0.0
O192 O 0.4152 0.94762 0.55573 0.0
C193 C 0.30425 0.97117 0.52097 0.0
O194 O 0.37727 0.94245 0.59268 0.0
O195 O 0.31562 0.95287 0.54279 0.0
C196 C 0.4321 0.37292 0.0981 0.0
O197 O 0.43215 0.39075 0.05864 0.0
Cd198 Cd 0.46521 0.39824 0.98275 0.0
O199 O 0.44762 0.35597 0.09129 0.0
Cd200 Cd 0.48107 0.34338 0.01582 0.0
C201 C 0.51245 0.38894 0.09226 0.0
O202 O 0.47148 0.36375 0.91329 0.0
O203 O 0.509 0.35276 0.92615 0.0
O204 O 0.46649 0.30269 -0.01494 0.0
C205 C 0.49296 0.36223 0.88958 0.0
O206 O 0.49984 0.40369 0.05848 0.0
C207 C 0.48241 0.29161 0.01854 0.0
O208 O 0.50902 0.36603 0.08712 0.0
O209 O 0.49759 0.30451 0.05115 0.0
C210 C 0.08413 0.44943 0.57263 0.0
O211 O 0.06788 0.45026 0.52815 0.0
Cd212 Cd 0.06146 0.48701 0.46559 0.0
O213 O 0.09998 0.46648 0.57777 0.0
Cd214 Cd 0.1132 0.50444 0.52339 0.0
C215 C 0.06275 0.52769 0.59571 0.0
O216 O 0.09713 0.50292 0.4117 0.0
O217 O 0.1058 0.53845 0.45322 0.0
O218 O 0.15383 0.49252 0.48988 0.0
C219 C 0.09842 0.52592 0.4043 0.0
O220 O 0.05062 0.51608 0.55188 0.0
C221 C 0.16512 0.50541 0.5323 0.0
O222 O 0.08603 0.52624 0.59867 0.0
O223 O 0.15227 0.51784 0.5722 0.0
H224 H 0.02239 0.70284 0.00955 0.0
H225 H 0.94473 0.6945 0.04151 0.0
H226 H 0.93925 0.73817 0.02531 0.0
H227 H 0.95647 0.77854 -0.00109 0.0
H228 H 0.0338 0.78612 0.95928 0.0
H229 H 0.03945 0.74295 0.98091 0.0
C230 C 0.00433 0.71067 0.01378 0.0
C231 C -0.01597 0.6956 0.0274 0.0
C232 C 0.00122 0.7356 0.00217 0.0
C233 C 0.96064 0.70582 0.03136 0.0
C234 C 0.95749 0.73075 0.02189 0.0
C235 C 0.97454 0.77072 -0.00509 0.0
C236 C -0.00533 0.78552 0.97748 0.0
C237 C 0.97762 0.74577 0.0066 0.0
C238 C 0.01796 0.7751 0.97221 0.0
C239 C 0.02124 0.75043 -0.0151 0.0
H240 H 0.68998 0.94804 0.48179 0.0
H241 H 0.68898 0.0254 0.44761 0.0
H242 H 0.73363 0.02716 0.45345 0.0
H243 H 0.77295 0.00677 0.46959 0.0
H244 H 0.77404 0.92908 0.49732 0.0
H245 H 0.72934 0.92739 0.49317 0.0
C246 C 0.69955 0.96527 0.47536 0.0
C247 C 0.6862 -0.01343 0.46447 0.0
C248 C 0.72521 0.9661 0.47812 0.0
C249 C 0.69884 0.00873 0.45574 0.0
C250 C 0.72436 0.00977 0.45942 0.0
C251 C 0.76336 -0.01048 0.47516 0.0
C252 C 0.7767 0.96812 0.48445 0.0
C253 C 0.73772 -0.01139 0.47101 0.0
C254 C 0.76412 0.9458 0.49036 0.0
C255 C 0.73859 0.94483 0.4879 0.0
H256 H 0.51584 0.77296 0.01245 0.0
H257 H 0.43742 0.7775 0.03339 0.0
H258 H 0.43362 0.7334 0.02154 0.0
H259 H 0.45247 0.69358 0.00373 0.0
H260 H 0.53098 0.68854 -0.01056 0.0
H261 H 0.53488 0.73282 -0.0003 0.0
C262 C 0.49794 0.76427 0.01471 0.0
C263 C 0.47694 0.7785 0.0236 0.0
C264 C 0.4959 0.73885 0.00853 0.0
C265 C 0.45388 0.76697 0.02686 0.0
C266 C 0.45167 0.74175 0.01976 0.0
C267 C 0.47042 0.70221 0.00244 0.0
C268 C 0.4914 0.6879 -0.00492 0.0
C269 C 0.47253 0.72754 0.01012 0.0
C270 C 0.51457 0.69923 -0.00521 0.0
C271 C 0.5168 0.72451 0.00074 0.0
H272 H 0.68503 0.50084 0.48482 0.0
H273 H 0.67525 0.42376 0.51635 0.0
H274 H 0.71852 0.41723 0.49379 0.0
H275 H 0.75916 0.43325 0.46444 0.0
H276 H 0.76982 0.51049 0.43974 0.0
H277 H 0.7262 0.51712 0.45967 0.0
C278 C 0.69241 0.48264 0.48702 0.0
C279 C 0.67693 0.46283 0.50215 0.0
C280 C 0.71743 0.47901 0.47467 0.0
C281 C 0.68678 0.43936 0.50514 0.0
C282 C 0.71152 0.43557 0.49191 0.0
C283 C 0.75186 0.4515 0.46289 0.0
C284 C 0.76755 0.47133 0.44994 0.0
C285 C 0.72698 0.45522 0.47628 0.0
C286 C 0.75801 0.49494 0.44937 0.0
C287 C 0.73312 0.49874 0.46088 0.0
H288 H 0.97533 0.2646 0.02026 0.0
H289 H 0.963 0.26345 0.81092 0.0
H290 H 0.96345 0.21883 0.81077 0.0
H291 H 0.9674 0.18018 0.87077 0.0
H292 H 0.97469 0.18144 0.08184 0.0
H293 H 0.97619 0.22603 0.08124 0.0
C294 C 0.97279 0.2545 0.9747 0.0
C295 C 0.96942 0.26711 0.91554 0.0
C296 C 0.97218 0.22897 0.97552 0.0
C297 C 0.96565 0.254 0.85692 0.0
C298 C 0.96597 0.22856 0.85686 0.0
C299 C 0.96938 0.19032 0.91648 0.0
C300 C 0.97126 0.17775 0.97621 0.0
C301 C 0.96925 0.21586 0.91587 0.0
C302 C 0.9733 0.19088 0.03539 0.0
C303 C 0.97418 0.2163 0.03499 0.0
H304 H 0.27508 0.00971 0.49403 0.0
H305 H 0.27269 0.9336 0.5449 0.0
H306 H 0.22824 0.93317 0.53488 0.0
H307 H 0.1903 0.95378 0.50696 0.0
H308 H 0.19195 0.03011 0.45917 0.0
H309 H 0.23647 0.03113 0.47304 0.0
C310 C 0.2648 -0.00692 0.50329 0.0
C311 C 0.2772 0.97167 0.51972 0.0
C312 C 0.23916 -0.00702 0.49778 0.0
C313 C 0.26362 0.95032 0.53214 0.0
C314 C 0.23819 0.95003 0.52624 0.0
C315 C 0.20038 0.97067 0.49975 0.0
C316 C 0.18792 -0.00822 0.48143 0.0
C317 C 0.22583 0.97115 0.5083 0.0
C318 C 0.20117 0.01361 0.47318 0.0
C319 C 0.2266 0.01418 0.48095 0.0
H320 H 0.48552 0.17892 0.07117 0.0
H321 H 0.483 0.17668 0.85935 0.0
H322 H 0.48093 0.22123 0.85615 0.0
H323 H 0.47965 0.26081 0.91447 0.0
H324 H 0.4873 0.26294 0.12542 0.0
H325 H 0.48759 0.21841 0.12864 0.0
C326 C 0.4845 0.18828 0.02442 0.0
C327 C 0.48411 0.17476 0.96559 0.0
C328 C 0.48424 0.21378 0.02305 0.0
C329 C 0.48327 0.18688 0.90514 0.0
C330 C 0.48204 0.21227 0.90338 0.0
C331 C 0.48134 0.25141 0.96098 0.0
C332 C 0.48316 0.26489 0.01974 0.0
C333 C 0.48245 0.2259 0.96207 0.0
C334 C 0.48583 0.25277 0.07974 0.0
C335 C 0.48596 0.22738 0.08155 0.0
H336 H 0.27845 0.49863 0.58382 0.0
H337 H 0.2802 0.50602 0.37286 0.0
H338 H 0.23547 0.50872 0.37057 0.0
H339 H 0.19586 0.50742 0.42868 0.0
H340 H 0.19431 0.50438 0.64048 0.0
H341 H 0.23907 0.50169 0.64288 0.0
C342 C 0.26895 0.50094 0.53751 0.0
C343 C 0.28235 0.50184 0.47848 0.0
C344 C 0.2434 0.50323 0.53692 0.0
C345 C 0.2701 0.50527 0.41877 0.0
C346 C 0.2446 0.50673 0.41748 0.0
C347 C 0.20542 0.50629 0.47527 0.0
C348 C 0.19202 0.5058 0.53431 0.0
C349 C 0.23107 0.50549 0.4762 0.0
C350 C 0.20441 0.50477 0.59455 0.0
C351 C 0.22992 0.50314 0.59585 0.0
H352 H -0.00759 0.57667 0.80316 0.0
H353 H 0.06034 0.61171 0.85985 0.0
H354 H 0.08157 0.59141 0.76992 0.0
H355 H 0.08154 0.56167 0.67979 0.0
H356 H 0.01372 0.52667 0.62204 0.0
H357 H -0.00815 0.54902 0.70745 0.0
C358 C 0.01177 0.5801 0.79527 0.0
C359 C 0.02478 0.59549 0.83854 0.0
C360 C 0.024 0.5682 0.7436 0.0
C361 C 0.04989 0.5998 0.82756 0.0
C362 C 0.0621 0.58815 0.77621 0.0
C363 C 0.06197 0.55899 0.68572 0.0
C364 C 0.04938 0.54235 0.64501 0.0
C365 C 0.04945 0.57193 0.73479 0.0
C366 C 0.02393 0.53933 0.65282 0.0
C367 C 0.01137 0.55208 0.70173 0.0
H368 H 0.92743 0.00755 0.08438 0.0
H369 H 0.91096 0.08116 0.14361 0.0
H370 H 0.88727 0.06587 0.2368 0.0
H371 H 0.87336 0.03191 0.30493 0.0
H372 H 0.89113 0.95833 0.24897 0.0
H373 H 0.91202 0.97336 0.1504 0.0
C374 C 0.91849 0.02027 0.11727 0.0
C375 C 0.9211 0.0455 0.10709 0.0
C376 C 0.90519 0.01138 0.17138 0.0
C377 C 0.90939 0.06168 0.15039 0.0
C378 C 0.89583 0.05296 0.20373 0.0
C379 C 0.8816 0.0191 0.27092 0.0
C380 C 0.88079 -0.00597 0.28444 0.0
C381 C 0.89393 0.02788 0.21521 0.0
C382 C 0.89155 0.97771 0.23979 0.0
C383 C 0.90354 -0.0137 0.18353 0.0
H384 H 0.42131 0.87309 0.84258 0.0
H385 H 0.49565 0.89355 0.7939 0.0
H386 H 0.48132 0.91423 0.69526 0.0
H387 H 0.4474 0.92904 0.6279 0.0
H388 H 0.37301 0.90967 0.67982 0.0
H389 H 0.38774 0.8859 0.77218 0.0
C390 C 0.43444 0.88188 0.81013 0.0
C391 C 0.45949 0.88194 0.82582 0.0
C392 C 0.42605 0.89404 0.75434 0.0
C393 C 0.47625 0.89331 0.78305 0.0
C394 C 0.46806 0.90519 0.72676 0.0
C395 C 0.4344 0.91941 0.65893 0.0
C396 C 0.40911 0.9213 0.64712 0.0
C397 C 0.44296 0.90606 0.71265 0.0
C398 C 0.39255 0.90869 0.68795 0.0
C399 C 0.40095 0.89509 0.74084 0.0
H400 H 0.51862 0.43606 0.13193 0.0
H401 H 0.5448 0.36343 0.1664 0.0
H402 H 0.56941 0.37841 0.25834 0.0
H403 H 0.58083 0.41131 0.3343 0.0
H404 H 0.55378 0.48371 0.3026 0.0
H405 H 0.53231 0.46961 0.20379 0.0
C406 C 0.52995 0.42353 0.15893 0.0
C407 C 0.52967 0.3986 0.14249 0.0
C408 C 0.54376 0.43218 0.21256 0.0
C409 C 0.5445 0.38267 0.17814 0.0
C410 C 0.55856 0.39121 0.23087 0.0
C411 C 0.57041 0.42408 0.30551 0.0
C412 C 0.56871 0.44847 0.32614 0.0
C413 C 0.55789 0.4158 0.24939 0.0
C414 C 0.55529 0.46481 0.28797 0.0
C415 C 0.54297 0.45675 0.23154 0.0
H416 H 0.0338 0.9519 0.31983 0.0
H417 H 0.10261 0.91562 0.28996 0.0
H418 H 0.08417 0.89005 0.2046 0.0
H419 H 0.04953 0.88008 0.13308 0.0
H420 H 0.98065 0.91626 0.16146 0.0
H421 H -0.00195 0.93964 0.25333 0.0
C422 C 0.04469 0.93823 0.29511 0.0
C423 C 0.06961 0.93583 0.31085 0.0
C424 C 0.03401 0.92366 0.24566 0.0
C425 C 0.08343 0.91793 0.27862 0.0
C426 C 0.07292 0.90333 0.22967 0.0
C427 C 0.03825 0.89294 0.15968 0.0
C428 C 0.01394 0.89663 0.1401 0.0
C429 C 0.04839 0.90637 0.21195 0.0
C430 C -0.00054 0.91314 0.17551 0.0
C431 C 0.00942 0.92657 0.22786 0.0
H432 H 0.54593 0.06949 0.82433 0.0
H433 H 0.5187 -0.00066 0.88728 0.0
H434 H 0.54248 -0.02059 0.80121 0.0
H435 H 0.56884 -0.01788 0.70319 0.0
H436 H 0.59594 0.0524 0.64086 0.0
H437 H 0.57459 0.07193 0.73189 0.0
C438 C 0.54529 0.04983 0.8195 0.0
C439 C 0.53036 0.036 0.86178 0.0
C440 C 0.55898 0.03846 0.76989 0.0
C441 C 0.52998 0.01049 0.85528 0.0
C442 C 0.54355 -0.00096 0.80597 0.0
C443 C 0.57032 0.00166 0.71006 0.0
C444 C 0.58375 0.01578 0.66493 0.0
C445 C 0.55781 0.01287 0.76232 0.0
C446 C 0.58556 0.04109 0.67461 0.0
C447 C 0.57332 0.05233 0.72659 0.0
H448 H 0.39365 0.54964 0.33306 0.0
H449 H 0.4607 0.51363 0.38406 0.0
H450 H 0.48277 0.53676 0.30041 0.0
H451 H 0.48252 0.56523 0.20764 0.0
H452 H 0.41538 0.60107 0.15676 0.0
H453 H 0.39403 0.58017 0.2458 0.0
C454 C 0.41312 0.54695 0.32622 0.0
C455 C 0.42539 0.52973 0.36444 0.0
C456 C 0.42574 0.56026 0.27787 0.0
C457 C 0.45071 0.52668 0.35525 0.0
C458 C 0.46339 0.53988 0.30729 0.0
C459 C 0.46329 0.56868 0.21653 0.0
C460 C 0.45054 0.58451 0.1752 0.0
C461 C 0.45101 0.55644 0.26758 0.0
C462 C 0.42563 0.58884 0.18755 0.0
C463 C 0.41336 0.57686 0.2384 0.0
H464 H 0.90921 0.3736 0.77158 0.0
H465 H 0.93927 0.443 0.83368 0.0
H466 H 0.91585 0.46345 0.74899 0.0
H467 H 0.88895 0.46139 0.65226 0.0
H468 H 0.85883 0.39196 0.59078 0.0
H469 H 0.87997 0.37192 0.68039 0.0
C470 C 0.91051 0.39321 0.76696 0.0
C471 C 0.92618 0.40665 0.80862 0.0
C472 C 0.89703 0.40492 0.71799 0.0
C473 C 0.92743 0.43212 0.80223 0.0
C474 C 0.91408 0.44388 0.75364 0.0
C475 C 0.88683 0.44192 0.6589 0.0
C476 C 0.87253 0.4282 0.61446 0.0
C477 C 0.89914 0.43042 0.71049 0.0
C478 C 0.86984 0.40299 0.624 0.0
C479 C 0.88197 0.39146 0.6752 0.0
H480 H 0.90728 0.36521 0.09113 0.0
H481 H -0.01822 0.38 0.1507 0.0
H482 H 0.96711 0.40043 0.25011 0.0
H483 H 0.93325 0.41635 0.31598 0.0
H484 H 0.8587 0.40281 0.25449 0.0
H485 H 0.87335 0.37946 0.15998 0.0
C486 C 0.92034 0.37271 0.12611 0.0
C487 C 0.9456 0.37121 0.11329 0.0
C488 C 0.91177 0.38474 0.1826 0.0
C489 C 0.96225 0.38098 0.15923 0.0
C490 C 0.95387 0.3927 0.21603 0.0
C491 C 0.92014 0.40813 0.28234 0.0
C492 C 0.89488 0.41149 0.29226 0.0
C493 C 0.92868 0.39504 0.2276 0.0
C494 C 0.87823 0.40064 0.24802 0.0
C495 C 0.88659 0.3873 0.19387 0.0
H496 H 0.02336 0.95399 0.8274 0.0
H497 H 0.04072 0.87977 0.77622 0.0
H498 H 0.06344 0.89385 0.68008 0.0
H499 H 0.07721 0.92695 0.60845 0.0
H500 H 0.0598 0.00118 0.65842 0.0
H501 H 0.03825 -0.01269 0.75723 0.0
C502 C 0.03224 0.94087 0.79553 0.0
C503 C 0.03023 0.91582 0.80913 0.0
C504 C 0.04516 0.94907 0.73991 0.0
C505 C 0.04188 0.89914 0.76709 0.0
C506 C 0.05487 0.90717 0.71193 0.0
C507 C 0.06876 0.94013 0.641 0.0
C508 C 0.07002 0.96506 0.62593 0.0
C509 C 0.05641 0.93204 0.69753 0.0
C510 C 0.05906 -0.01812 0.66882 0.0
C511 C 0.04673 0.97396 0.72531 0.0
H512 H 0.57711 0.04031 0.31665 0.0
H513 H 0.50803 0.01315 0.39129 0.0
H514 H 0.48633 0.0346 0.30502 0.0
H515 H 0.48709 0.05916 0.2043 0.0
H516 H 0.55627 0.08628 0.13026 0.0
H517 H 0.57765 0.06694 0.22055 0.0
C518 C 0.5573 0.03918 0.31434 0.0
C519 C 0.54429 0.02497 0.36014 0.0
C520 C 0.54488 0.05154 0.26454 0.0
C521 C 0.51858 0.02391 0.35665 0.0
C522 C 0.50611 0.03614 0.3072 0.0
C523 C 0.50681 0.06105 0.20834 0.0
C524 C 0.52004 0.07398 0.16029 0.0
C525 C 0.51909 0.04974 0.26031 0.0
C526 C 0.5456 0.07631 0.16635 0.0
C527 C 0.5579 0.06521 0.21794 0.0
H528 H 0.38507 0.55047 0.65449 0.0
H529 H 0.39785 0.4756 0.70544 0.0
H530 H 0.41917 0.48882 0.80541 0.0
H531 H 0.43634 0.5217 0.8743 0.0
H532 H 0.42447 0.59652 0.82057 0.0
H533 H 0.40048 0.58316 0.72572 0.0
C534 C 0.39235 0.53699 0.68764 0.0
C535 C 0.39001 0.51208 0.67232 0.0
C536 C 0.40483 0.54471 0.74436 0.0
C537 C 0.39947 0.49489 0.716 0.0
C538 C 0.4117 0.50244 0.77308 0.0
C539 C 0.42831 0.53512 0.84228 0.0
C540 C 0.43234 0.5601 0.85447 0.0
C541 C 0.41481 0.52732 0.78719 0.0
C542 C 0.4218 0.57719 0.81228 0.0
C543 C 0.40808 0.56957 0.75794 0.0
H544 H 0.88009 0.03077 0.63819 0.0
H545 H 0.95123 0.01054 0.56432 0.0
H546 H 0.97092 0.03531 0.64915 0.0
H547 H 0.9681 0.06056 0.74859 0.0
H548 H 0.89714 0.08084 0.82307 0.0
H549 H 0.87732 0.05841 0.73341 0.0
C550 C 0.8999 0.03192 0.64027 0.0
C551 C 0.9141 0.0186 0.59515 0.0
C552 C 0.9112 0.04616 0.68946 0.0
C553 C 0.93977 0.02049 0.59844 0.0
C554 C 0.95111 0.03463 0.64708 0.0
C555 C 0.9483 0.06027 0.74489 0.0
C556 C 0.93414 0.07217 0.79279 0.0
C557 C 0.93701 0.04722 0.69348 0.0
C558 C 0.9085 0.07175 0.787 0.0
C559 C 0.89713 0.05886 0.73582 0.0
H560 H 0.40054 0.97222 0.29746 0.0
H561 H 0.36887 0.90275 0.35076 0.0
H562 H 0.39057 0.88313 0.26048 0.0
H563 H 0.42058 0.88509 0.17087 0.0
H564 H 0.45222 0.95446 0.11658 0.0
H565 H 0.42843 0.97461 0.20227 0.0
C566 C 0.39819 0.95284 0.28885 0.0
C567 C 0.38327 0.93898 0.33124 0.0
C568 C 0.41085 0.94156 0.23684 0.0
C569 C 0.38035 0.91388 0.31919 0.0
C570 C 0.3928 0.90259 0.26759 0.0
C571 C 0.42217 0.90463 0.17745 0.0
C572 C 0.43835 0.91815 0.13763 0.0
C573 C 0.40845 0.91616 0.22687 0.0
C574 C 0.43997 0.94353 0.14654 0.0
C575 C 0.4264 0.95511 0.1957 0.0
H576 H 0.53847 0.36654 0.83715 0.0
H577 H 0.46338 0.38661 0.80464 0.0
H578 H 0.47582 0.41064 0.70916 0.0
H579 H 0.50837 0.42803 0.63943 0.0
H580 H 0.58355 0.40878 0.67498 0.0
H581 H 0.57064 0.3823 0.76462 0.0
C582 C 0.52476 0.37599 0.80889 0.0
C583 C 0.50005 0.37489 0.82825 0.0
C584 C 0.53207 0.39005 0.75478 0.0
C585 C 0.48255 0.38721 0.79093 0.0
C586 C 0.48965 0.401 0.73641 0.0
C587 C 0.52192 0.41788 0.66635 0.0
C588 C 0.54692 0.42055 0.65061 0.0
C589 C 0.51442 0.40288 0.71855 0.0
C590 C 0.56421 0.40723 0.68617 0.0
C591 C 0.55686 0.39206 0.73752 0.0
H592 H 0.07876 0.50473 0.29468 0.0
H593 H 0.09547 0.57462 0.38276 0.0
H594 H 0.07539 0.59509 0.29212 0.0
H595 H 0.05058 0.59316 0.19186 0.0
H596 H 0.03385 0.52324 0.10363 0.0
H597 H 0.05658 0.50295 0.18979 0.0
C598 C 0.07821 0.52444 0.29368 0.0
C599 C 0.08838 0.53807 0.34574 0.0
C600 C 0.06651 0.53617 0.24147 0.0
C601 C 0.08765 0.56363 0.34352 0.0
C602 C 0.07613 0.5754 0.29172 0.0
C603 C 0.05208 0.5735 0.19108 0.0
C604 C 0.04028 0.55981 0.1416 0.0
C605 C 0.0651 0.56185 0.24105 0.0
C606 C 0.04261 0.53433 0.14123 0.0
C607 C 0.05558 0.52263 0.19063 0.0
H608 H 0.90891 0.54836 0.36316 0.0
H609 H 0.86174 0.50284 0.24354 0.0
H610 H 0.87523 0.52426 0.14492 0.0
H611 H 0.90521 0.55149 0.09136 0.0
H612 H 0.95158 0.59773 0.21144 0.0
H613 H 0.93327 0.58084 0.3108 0.0
C614 C 0.90118 0.54351 0.31567 0.0
C615 C 0.88469 0.52377 0.31061 0.0
C616 C 0.90904 0.55589 0.25899 0.0
C617 C 0.87454 0.51792 0.24887 0.0
C618 C 0.88237 0.53005 0.19227 0.0
C619 C 0.9109 0.55827 0.13925 0.0
C620 C 0.93006 0.57551 0.14382 0.0
C621 C 0.90035 0.54841 0.19648 0.0
C622 C 0.93696 0.58438 0.20629 0.0
C623 C 0.92662 0.5746 0.26334 0.0
H624 H 0.86919 0.9274 0.66616 0.0
H625 H 0.91784 0.88212 0.55279 0.0
H626 H 0.93309 0.86398 0.6538 0.0
H627 H 0.93845 0.86718 0.77334 0.0
H628 H 0.89272 0.91559 0.88587 0.0
H629 H 0.87015 0.92587 0.78653 0.0
C630 C 0.8826 0.91304 0.66332 0.0
C631 C 0.89266 0.90644 0.602 0.0
C632 C 0.89208 0.90348 0.72175 0.0
C633 C 0.91001 0.88778 0.59938 0.0
C634 C 0.91883 0.87746 0.6572 0.0
C635 C 0.92303 0.87936 0.77655 0.0
C636 C 0.91749 0.89086 0.83677 0.0
C637 C 0.9109 0.88609 0.71868 0.0
C638 C 0.89751 0.90669 0.83998 0.0
C639 C 0.88468 0.91268 0.78309 0.0
H640 H 0.52749 0.86921 0.20685 0.0
H641 H 0.57669 0.91275 0.0885 0.0
H642 H 0.59779 0.92693 0.18753 0.0
H643 H 0.59694 0.93302 0.30685 0.0
H644 H 0.54512 0.89249 0.42507 0.0
H645 H 0.53078 0.8707 0.32718 0.0
C646 C 0.54329 0.88123 0.20252 0.0
C647 C 0.55026 0.8902 0.14041 0.0
C648 C 0.55466 0.89015 0.25987 0.0
C649 C 0.57077 0.90579 0.13577 0.0
C650 C 0.58278 0.914 0.19243 0.0
C651 C 0.58297 0.91895 0.31165 0.0
C652 C 0.57181 0.91475 0.37314 0.0
C653 C 0.57408 0.90726 0.25478 0.0
C654 C 0.55382 0.89634 0.37827 0.0
C655 C 0.54552 0.88395 0.3222 0.0
H656 H 0.5876 0.51625 0.71271 0.0
H657 H 0.54463 0.56304 0.59017 0.0
H658 H 0.53262 0.58689 0.68653 0.0
H659 H 0.52813 0.58944 0.80632 0.0
H660 H 0.56749 0.53979 0.92953 0.0
H661 H 0.58749 0.52245 0.83264 0.0
C662 C 0.57626 0.53215 0.70691 0.0
C663 C 0.56687 0.53779 0.64452 0.0
C664 C 0.56848 0.54507 0.76299 0.0
C665 C 0.55196 0.55826 0.63779 0.0
C666 C 0.54499 0.57183 0.69294 0.0
C667 C 0.54167 0.57535 0.81222 0.0
C668 C 0.54613 0.56576 0.87503 0.0
C669 C 0.55219 0.56468 0.75604 0.0
C670 C 0.56359 0.54737 0.88167 0.0
C671 C 0.57493 0.53735 0.82621 0.0
H672 H 0.05531 0.40842 0.57627 0.0
H673 H 0.10696 0.45051 0.69185 0.0
H674 H 0.09469 0.42856 0.79038 0.0
H675 H 0.06402 0.403 0.84666 0.0
H676 H 0.01277 0.36044 0.73134 0.0
H677 H 0.03051 0.37655 0.63022 0.0
C678 C 0.06434 0.41236 0.62266 0.0
C679 C 0.08159 0.43153 0.62672 0.0
C680 C 0.05706 0.39977 0.67963 0.0
C681 C 0.09341 0.43607 0.68713 0.0
C682 C 0.0863 0.42361 0.74384 0.0
C683 C 0.05719 0.39674 0.79935 0.0
C684 C 0.03677 0.38095 0.79674 0.0
C685 C 0.06732 0.40627 0.74119 0.0
C686 C 0.02837 0.3727 0.73499 0.0
C687 C 0.03838 0.38208 0.67695 0.0
H688 H 0.02632 0.08704 0.13772 0.0
H689 H 0.05645 0.03197 0.00978 0.0
H690 H 0.08325 0.01864 0.09786 0.0
H691 H 0.09369 0.0187 0.2148 0.0
H692 H 0.06242 0.07238 0.34489 0.0
H693 H 0.04078 0.09035 0.25227 0.0
C694 C 0.0392 0.07255 0.12855 0.0
C695 C 0.03915 0.06035 0.06737 0.0
C696 C 0.05411 0.06447 0.18016 0.0
C697 C 0.05593 0.04154 0.05652 0.0
C698 C 0.0712 0.03382 0.10699 0.0
C699 C 0.08247 0.03459 0.22282 0.0
C700 C 0.07941 0.04395 0.28688 0.0
C701 C 0.06973 0.04451 0.16966 0.0
C702 C 0.06499 0.0647 0.29617 0.0
C703 C 0.05252 0.07494 0.24323 0.0
H704 H 0.37221 0.01293 0.70561 0.0
H705 H 0.41856 0.05902 0.5862 0.0
H706 H 0.43254 0.08081 0.68457 0.0
H707 H 0.43699 0.0818 0.8043 0.0
H708 H 0.39411 0.0326 0.92402 0.0
H709 H 0.373 0.01737 0.82591 0.0
C710 C 0.38483 0.02821 0.7009 0.0
C711 C 0.39448 0.03424 0.63868 0.0
C712 C 0.39365 0.03989 0.75797 0.0
C713 C 0.41099 0.05393 0.63354 0.0
C714 C 0.41906 0.06632 0.68983 0.0
C715 C 0.42255 0.06822 0.80932 0.0
C716 C 0.41734 0.05817 0.87148 0.0
C717 C 0.41134 0.05873 0.75242 0.0
C718 C 0.39862 0.04052 0.87679 0.0
C719 C 0.38663 0.03171 0.82061 0.0
H720 H 0.39199 0.40056 0.12221 0.0
H721 H 0.441 0.35023 0.21445 0.0
H722 H 0.4266 0.36296 0.32276 0.0
H723 H 0.40626 0.39409 0.39047 0.0
H724 H 0.35701 0.44417 0.2979 0.0
H725 H 0.36495 0.42549 0.19119 0.0
C726 C 0.39899 0.39187 0.16595 0.0
C727 C 0.41794 0.3749 0.16017 0.0
C728 C 0.39086 0.3995 0.22832 0.0
C729 C 0.42653 0.36349 0.21729 0.0
C730 C 0.41846 0.37092 0.27948 0.0
C731 C 0.39676 0.40049 0.34724 0.0
C732 C 0.38158 0.42093 0.35212 0.0
C733 C 0.40158 0.38981 0.28556 0.0
C734 C 0.36904 0.42867 0.29572 0.0
C735 C 0.37368 0.41809 0.23436 0.0
loop_
_geom_bond_atom_site_label_1
_geom_bond_atom_site_label_2
_geom_bond_distance
_geom_bond_site_symmetry_2
_ccdc_geom_bond_type
C0 O1 1.306 . S
C0 O3 1.160 . S
O1 C0 1.306 . S
O1 Cd2 2.228 1_655 S
Cd2 O1 2.228 1_455 S
Cd2 O6 2.273 . S
Cd2 O10 2.277 . S
O3 C0 1.160 . S
O3 Cd4 2.203 1_655 S
Cd4 O3 2.203 1_455 S
Cd4 O6 2.411 . S
Cd4 O7 2.333 . S
Cd4 O8 2.352 1_455 S
Cd4 O12 2.277 . S
Cd4 O13 2.356 . S
C5 O10 1.209 . S
C5 O12 1.226 . S
O6 Cd2 2.273 . S
O6 Cd4 2.411 . S
O6 C9 1.320 . S
O7 Cd4 2.333 . S
O7 C9 1.214 . S
O8 Cd4 2.352 1_655 S
O8 C11 1.258 1_655 S
C9 O6 1.320 . S
C9 O7 1.214 . S
O10 Cd2 2.277 . S
O10 C5 1.209 . S
C11 O8 1.258 1_455 S
C11 O13 1.282 . S
O12 Cd4 2.277 . S
O12 C5 1.226 . S
O13 Cd4 2.356 . S
O13 C11 1.282 . S
C14 O15 1.306 . S
C14 O17 1.160 . S
O15 C14 1.306 . S
O15 Cd16 2.228 1_565 S
Cd16 O15 2.228 1_545 S
Cd16 O20 2.273 . S
Cd16 O24 2.277 . S
O17 C14 1.160 . S
O17 Cd18 2.203 1_565 S
Cd18 O17 2.203 1_545 S
Cd18 O20 2.411 . S
Cd18 O21 2.333 . S
Cd18 O22 2.352 1_545 S
Cd18 O26 2.277 . S
Cd18 O27 2.356 . S
C19 O24 1.209 . S
C19 O26 1.226 . S
O20 Cd16 2.273 . S
O20 Cd18 2.411 . S
O20 C23 1.320 . S
O21 Cd18 2.333 . S
O21 C23 1.214 . S
O22 Cd18 2.352 1_565 S
O22 C25 1.258 1_565 S
C23 O20 1.320 . S
C23 O21 1.214 . S
O24 Cd16 2.277 . S
O24 C19 1.209 . S
C25 O22 1.258 1_545 S
C25 O27 1.282 . S
O26 Cd18 2.277 . S
O26 C19 1.226 . S
O27 Cd18 2.356 . S
O27 C25 1.282 . S
C28 O29 1.306 . S
C28 O31 1.160 . S
O29 C28 1.306 . S
O29 Cd30 2.228 . S
Cd30 O29 2.228 . S
Cd30 O34 2.273 . S
Cd30 O38 2.277 . S
O31 C28 1.160 . S
O31 Cd32 2.203 . S
Cd32 O31 2.203 . S
Cd32 O34 2.411 . S
Cd32 O35 2.333 . S
Cd32 O36 2.352 . S
Cd32 O40 2.277 . S
Cd32 O41 2.356 . S
C33 O38 1.209 . S
C33 O40 1.226 . S
O34 Cd30 2.273 . S
O34 Cd32 2.411 . S
O34 C37 1.320 . S
O35 Cd32 2.333 . S
O35 C37 1.214 . S
O36 Cd32 2.352 . S
O36 C39 1.258 . S
C37 O34 1.320 . S
C37 O35 1.214 . S
O38 Cd30 2.277 . S
O38 C33 1.209 . S
C39 O36 1.258 . S
C39 O41 1.282 . S
O40 Cd32 2.277 . S
O40 C33 1.226 . S
O41 Cd32 2.356 . S
O41 C39 1.282 . S
C42 O43 1.306 . S
C42 O45 1.160 . S
O43 C42 1.306 . S
O43 Cd44 2.228 . S
Cd44 O43 2.228 . S
Cd44 O48 2.273 . S
Cd44 O52 2.277 . S
O45 C42 1.160 . S
O45 Cd46 2.203 . S
Cd46 O45 2.203 . S
Cd46 O48 2.411 . S
Cd46 O49 2.333 . S
Cd46 O50 2.352 . S
Cd46 O54 2.277 . S
Cd46 O55 2.356 . S
C47 O52 1.209 . S
C47 O54 1.226 . S
O48 Cd44 2.273 . S
O48 Cd46 2.411 . S
O48 C51 1.320 . S
O49 Cd46 2.333 . S
O49 C51 1.214 . S
O50 Cd46 2.352 . S
O50 C53 1.258 . S
C51 O48 1.320 . S
C51 O49 1.214 . S
O52 Cd44 2.277 . S
O52 C47 1.209 . S
C53 O50 1.258 . S
C53 O55 1.282 . S
O54 Cd46 2.277 . S
O54 C47 1.226 . S
O55 Cd46 2.356 . S
O55 C53 1.282 . S
C56 O57 1.306 . S
C56 O59 1.160 . S
O57 C56 1.306 . S
O57 Cd58 2.228 1_655 S
Cd58 O57 2.228 1_455 S
Cd58 O62 2.273 . S
Cd58 O66 2.277 . S
O59 C56 1.160 . S
O59 Cd60 2.203 1_655 S
Cd60 O59 2.203 1_455 S
Cd60 O62 2.411 . S
Cd60 O63 2.333 . S
Cd60 O64 2.352 1_455 S
Cd60 O68 2.277 . S
Cd60 O69 2.356 . S
C61 O66 1.209 . S
C61 O68 1.226 . S
O62 Cd58 2.273 . S
O62 Cd60 2.411 . S
O62 C65 1.320 . S
O63 Cd60 2.333 . S
O63 C65 1.214 . S
O64 Cd60 2.352 1_655 S
O64 C67 1.258 1_655 S
C65 O62 1.320 . S
C65 O63 1.214 . S
O66 Cd58 2.277 . S
O66 C61 1.209 . S
C67 O64 1.258 1_455 S
C67 O69 1.282 . S
O68 Cd60 2.277 . S
O68 C61 1.226 . S
O69 Cd60 2.356 . S
O69 C67 1.282 . S
C70 O71 1.306 . S
C70 O73 1.160 . S
O71 C70 1.306 . S
O71 Cd72 2.228 1_565 S
Cd72 O71 2.228 1_545 S
Cd72 O76 2.273 . S
Cd72 O80 2.277 . S
O73 C70 1.160 . S
O73 Cd74 2.203 1_565 S
Cd74 O73 2.203 1_545 S
Cd74 O76 2.411 . S
Cd74 O77 2.333 . S
Cd74 O78 2.352 1_545 S
Cd74 O82 2.277 . S
Cd74 O83 2.356 . S
C75 O80 1.209 . S
C75 O82 1.226 . S
O76 Cd72 2.273 . S
O76 Cd74 2.411 . S
O76 C79 1.320 . S
O77 Cd74 2.333 . S
O77 C79 1.214 . S
O78 Cd74 2.352 1_565 S
O78 C81 1.258 1_565 S
C79 O76 1.320 . S
C79 O77 1.214 . S
O80 Cd72 2.277 . S
O80 C75 1.209 . S
C81 O78 1.258 1_545 S
C81 O83 1.282 . S
O82 Cd74 2.277 . S
O82 C75 1.226 . S
O83 Cd74 2.356 . S
O83 C81 1.282 . S
C84 O85 1.306 . S
C84 O87 1.160 . S
O85 C84 1.306 . S
O85 Cd86 2.228 . S
Cd86 O85 2.228 . S
Cd86 O90 2.273 . S
Cd86 O94 2.277 . S
O87 C84 1.160 . S
O87 Cd88 2.203 . S
Cd88 O87 2.203 . S
Cd88 O90 2.411 . S
Cd88 O91 2.333 . S
Cd88 O92 2.352 . S
Cd88 O96 2.277 . S
Cd88 O97 2.356 . S
C89 O94 1.209 . S
C89 O96 1.226 . S
O90 Cd86 2.273 . S
O90 Cd88 2.411 . S
O90 C93 1.320 . S
O91 Cd88 2.333 . S
O91 C93 1.214 . S
O92 Cd88 2.352 . S
O92 C95 1.258 . S
C93 O90 1.320 . S
C93 O91 1.214 . S
O94 Cd86 2.277 . S
O94 C89 1.209 . S
C95 O92 1.258 . S
C95 O97 1.282 . S
O96 Cd88 2.277 . S
O96 C89 1.226 . S
O97 Cd88 2.356 . S
O97 C95 1.282 . S
C98 O99 1.306 . S
C98 O101 1.160 . S
O99 C98 1.306 . S
O99 Cd100 2.228 . S
Cd100 O99 2.228 . S
Cd100 O104 2.273 . S
Cd100 O108 2.277 . S
O101 C98 1.160 . S
O101 Cd102 2.203 . S
Cd102 O101 2.203 . S
Cd102 O104 2.411 . S
Cd102 O105 2.333 . S
Cd102 O106 2.352 . S
Cd102 O110 2.277 . S
Cd102 O111 2.356 . S
C103 O108 1.209 . S
C103 O110 1.226 . S
O104 Cd100 2.273 . S
O104 Cd102 2.411 . S
O104 C107 1.320 . S
O105 Cd102 2.333 . S
O105 C107 1.214 . S
O106 Cd102 2.352 . S
O106 C109 1.258 . S
C107 O104 1.320 . S
C107 O105 1.214 . S
O108 Cd100 2.277 . S
O108 C103 1.209 . S
C109 O106 1.258 . S
C109 O111 1.282 . S
O110 Cd102 2.277 . S
O110 C103 1.226 . S
O111 Cd102 2.356 . S
O111 C109 1.282 . S
C112 O113 1.306 . S
C112 O115 1.160 . S
O113 C112 1.306 . S
O113 Cd114 2.228 1_455 S
Cd114 O113 2.228 1_655 S
Cd114 O118 2.273 . S
Cd114 O122 2.277 . S
O115 C112 1.160 . S
O115 Cd116 2.203 1_455 S
Cd116 O115 2.203 1_655 S
Cd116 O118 2.411 . S
Cd116 O119 2.333 . S
Cd116 O120 2.352 1_655 S
Cd116 O124 2.277 . S
Cd116 O125 2.356 . S
C117 O122 1.209 . S
C117 O124 1.226 . S
O118 Cd114 2.273 . S
O118 Cd116 2.411 . S
O118 C121 1.320 . S
O119 Cd116 2.333 . S
O119 C121 1.214 . S
O120 Cd116 2.352 1_455 S
O120 C123 1.258 1_455 S
C121 O118 1.320 . S
C121 O119 1.214 . S
O122 Cd114 2.277 . S
O122 C117 1.209 . S
C123 O120 1.258 1_655 S
C123 O125 1.282 . S
O124 Cd116 2.277 . S
O124 C117 1.226 . S
O125 Cd116 2.356 . S
O125 C123 1.282 . S
C126 O127 1.306 . S
C126 O129 1.160 . S
O127 C126 1.306 . S
O127 Cd128 2.228 1_545 S
Cd128 O127 2.228 1_565 S
Cd128 O132 2.273 . S
Cd128 O136 2.277 . S
O129 C126 1.160 . S
O129 Cd130 2.203 1_545 S
Cd130 O129 2.203 1_565 S
Cd130 O132 2.411 . S
Cd130 O133 2.333 . S
Cd130 O134 2.352 1_565 S
Cd130 O138 2.277 . S
Cd130 O139 2.356 . S
C131 O136 1.209 . S
C131 O138 1.226 . S
O132 Cd128 2.273 . S
O132 Cd130 2.411 . S
O132 C135 1.320 . S
O133 Cd130 2.333 . S
O133 C135 1.214 . S
O134 Cd130 2.352 1_545 S
O134 C137 1.258 1_545 S
C135 O132 1.320 . S
C135 O133 1.214 . S
O136 Cd128 2.277 . S
O136 C131 1.209 . S
C137 O134 1.258 1_565 S
C137 O139 1.282 . S
O138 Cd130 2.277 . S
O138 C131 1.226 . S
O139 Cd130 2.356 . S
O139 C137 1.282 . S
C140 O141 1.306 . S
C140 O143 1.160 . S
O141 C140 1.306 . S
O141 Cd142 2.228 . S
Cd142 O141 2.228 . S
Cd142 O146 2.273 . S
Cd142 O150 2.277 . S
O143 C140 1.160 . S
O143 Cd144 2.203 . S
Cd144 O143 2.203 . S
Cd144 O146 2.411 . S
Cd144 O147 2.333 . S
Cd144 O148 2.352 . S
Cd144 O152 2.277 . S
Cd144 O153 2.356 . S
C145 O150 1.209 . S
C145 O152 1.226 . S
O146 Cd142 2.273 . S
O146 Cd144 2.411 . S
O146 C149 1.320 . S
O147 Cd144 2.333 . S
O147 C149 1.214 . S
O148 Cd144 2.352 . S
O148 C151 1.258 . S
C149 O146 1.320 . S
C149 O147 1.214 . S
O150 Cd142 2.277 . S
O150 C145 1.209 . S
C151 O148 1.258 . S
C151 O153 1.282 . S
O152 Cd144 2.277 . S
O152 C145 1.226 . S
O153 Cd144 2.356 . S
O153 C151 1.282 . S
C154 O155 1.306 . S
C154 O157 1.160 . S
O155 C154 1.306 . S
O155 Cd156 2.228 . S
Cd156 O155 2.228 . S
Cd156 O160 2.273 . S
Cd156 O164 2.277 . S
O157 C154 1.160 . S
O157 Cd158 2.203 . S
Cd158 O157 2.203 . S
Cd158 O160 2.411 . S
Cd158 O161 2.333 . S
Cd158 O162 2.352 . S
Cd158 O166 2.277 . S
Cd158 O167 2.356 . S
C159 O164 1.209 . S
C159 O166 1.226 . S
O160 Cd156 2.273 . S
O160 Cd158 2.411 . S
O160 C163 1.320 . S
O161 Cd158 2.333 . S
O161 C163 1.214 . S
O162 Cd158 2.352 . S
O162 C165 1.258 . S
C163 O160 1.320 . S
C163 O161 1.214 . S
O164 Cd156 2.277 . S
O164 C159 1.209 . S
C165 O162 1.258 . S
C165 O167 1.282 . S
O166 Cd158 2.277 . S
O166 C159 1.226 . S
O167 Cd158 2.356 . S
O167 C165 1.282 . S
C168 O169 1.306 . S
C168 O171 1.160 . S
O169 C168 1.306 . S
O169 Cd170 2.228 1_455 S
Cd170 O169 2.228 1_655 S
Cd170 O174 2.273 . S
Cd170 O178 2.277 . S
O171 C168 1.160 . S
O171 Cd172 2.203 1_455 S
Cd172 O171 2.203 1_655 S
Cd172 O174 2.411 . S
Cd172 O175 2.333 . S
Cd172 O176 2.352 1_655 S
Cd172 O180 2.277 . S
Cd172 O181 2.356 . S
C173 O178 1.209 . S
C173 O180 1.226 . S
O174 Cd170 2.273 . S
O174 Cd172 2.411 . S
O174 C177 1.320 . S
O175 Cd172 2.333 . S
O175 C177 1.214 . S
O176 Cd172 2.352 1_455 S
O176 C179 1.258 1_455 S
C177 O174 1.320 . S
C177 O175 1.214 . S
O178 Cd170 2.277 . S
O178 C173 1.209 . S
C179 O176 1.258 1_655 S
C179 O181 1.282 . S
O180 Cd172 2.277 . S
O180 C173 1.226 . S
O181 Cd172 2.356 . S
O181 C179 1.282 . S
C182 O183 1.306 . S
C182 O185 1.160 . S
O183 C182 1.306 . S
O183 Cd184 2.228 1_545 S
Cd184 O183 2.228 1_565 S
Cd184 O188 2.273 . S
Cd184 O192 2.277 . S
O185 C182 1.160 . S
O185 Cd186 2.203 1_545 S
Cd186 O185 2.203 1_565 S
Cd186 O188 2.411 . S
Cd186 O189 2.333 . S
Cd186 O190 2.352 1_565 S
Cd186 O194 2.277 . S
Cd186 O195 2.356 . S
C187 O192 1.209 . S
C187 O194 1.226 . S
O188 Cd184 2.273 . S
O188 Cd186 2.411 . S
O188 C191 1.320 . S
O189 Cd186 2.333 . S
O189 C191 1.214 . S
O190 Cd186 2.352 1_545 S
O190 C193 1.258 1_545 S
C191 O188 1.320 . S
C191 O189 1.214 . S
O192 Cd184 2.277 . S
O192 C187 1.209 . S
C193 O190 1.258 1_565 S
C193 O195 1.282 . S
O194 Cd186 2.277 . S
O194 C187 1.226 . S
O195 Cd186 2.356 . S
O195 C193 1.282 . S
C196 O197 1.306 . S
C196 O199 1.160 . S
O197 C196 1.306 . S
O197 Cd198 2.228 . S
Cd198 O197 2.228 . S
Cd198 O202 2.273 . S
Cd198 O206 2.277 . S
O199 C196 1.160 . S
O199 Cd200 2.203 . S
Cd200 O199 2.203 . S
Cd200 O202 2.411 . S
Cd200 O203 2.333 . S
Cd200 O204 2.352 . S
Cd200 O208 2.277 . S
Cd200 O209 2.356 . S
C201 O206 1.209 . S
C201 O208 1.226 . S
O202 Cd198 2.273 . S
O202 Cd200 2.411 . S
O202 C205 1.320 . S
O203 Cd200 2.333 . S
O203 C205 1.214 . S
O204 Cd200 2.352 . S
O204 C207 1.258 . S
C205 O202 1.320 . S
C205 O203 1.214 . S
O206 Cd198 2.277 . S
O206 C201 1.209 . S
C207 O204 1.258 . S
C207 O209 1.282 . S
O208 Cd200 2.277 . S
O208 C201 1.226 . S
O209 Cd200 2.356 . S
O209 C207 1.282 . S
C210 O211 1.306 . S
C210 O213 1.160 . S
O211 C210 1.306 . S
O211 Cd212 2.228 . S
Cd212 O211 2.228 . S
Cd212 O216 2.273 . S
Cd212 O220 2.277 . S
O213 C210 1.160 . S
O213 Cd214 2.203 . S
Cd214 O213 2.203 . S
Cd214 O216 2.411 . S
Cd214 O217 2.333 . S
Cd214 O218 2.352 . S
Cd214 O222 2.277 . S
Cd214 O223 2.356 . S
C215 O220 1.209 . S
C215 O222 1.226 . S
O216 Cd212 2.273 . S
O216 Cd214 2.411 . S
O216 C219 1.320 . S
O217 Cd214 2.333 . S
O217 C219 1.214 . S
O218 Cd214 2.352 . S
O218 C221 1.258 . S
C219 O216 1.320 . S
C219 O217 1.214 . S
O220 Cd212 2.277 . S
O220 C215 1.209 . S
C221 O218 1.258 . S
C221 O223 1.282 . S
O222 Cd214 2.277 . S
O222 C215 1.226 . S
O223 Cd214 2.356 . S
O223 C221 1.282 . S
H224 C230 0.930 . S
H225 C233 0.930 . S
H226 C234 0.930 . S
H227 C235 0.930 . S
H228 C238 0.930 . S
H229 C239 0.930 . S
C230 H224 0.930 . S
C230 C231 1.341 1_455 S
C230 C232 1.415 1_554 S
C231 C230 1.341 1_655 S
C231 C233 1.436 . S
C232 C230 1.415 1_556 S
C232 C237 1.425 1_456 S
C232 C239 1.409 . S
C233 H225 0.930 . S
C233 C231 1.436 . S
C233 C234 1.362 . S
C234 H226 0.930 . S
C234 C233 1.362 . S
C234 C237 1.409 . S
C235 H227 0.930 . S
C235 C236 1.355 1_655 S
C235 C237 1.415 1_556 S
C236 C235 1.355 1_455 S
C236 C238 1.419 . S
C237 C232 1.425 1_654 S
C237 C234 1.409 . S
C237 C235 1.415 1_554 S
C238 H228 0.930 . S
C238 C236 1.419 . S
C238 C239 1.362 . S
C239 H229 0.930 . S
C239 C232 1.409 . S
C239 C238 1.362 . S
H240 C246 0.930 . S
H241 C249 0.930 . S
H242 C250 0.930 . S
H243 C251 0.930 . S
H244 C254 0.930 . S
H245 C255 0.930 . S
C246 H240 0.930 . S
C246 C247 1.353 1_545 S
C246 C248 1.415 . S
C247 C246 1.353 1_565 S
C247 C249 1.421 . S
C248 C246 1.415 . S
C248 C253 1.425 1_545 S
C248 C255 1.409 . S
C249 H241 0.930 . S
C249 C247 1.421 . S
C249 C250 1.362 . S
C250 H242 0.930 . S
C250 C249 1.362 . S
C250 C253 1.409 . S
C251 H243 0.930 . S
C251 C252 1.355 1_565 S
C251 C253 1.415 . S
C252 C251 1.355 1_545 S
C252 C254 1.419 . S
C253 C248 1.425 1_565 S
C253 C250 1.409 . S
C253 C251 1.415 . S
C254 H244 0.930 . S
C254 C252 1.419 . S
C254 C255 1.362 . S
C255 H245 0.930 . S
C255 C248 1.409 . S
C255 C254 1.362 . S
H256 C262 0.930 . S
H257 C265 0.930 . S
H258 C266 0.930 . S
H259 C267 0.930 . S
H260 C270 0.930 . S
H261 C271 0.930 . S
C262 H256 0.930 . S
C262 C263 1.355 . S
C262 C264 1.415 . S
C263 C262 1.355 . S
C263 C265 1.419 1_554 S
C264 C262 1.415 . S
C264 C269 1.425 1_554 S
C264 C271 1.409 . S
C265 H257 0.930 . S
C265 C263 1.419 1_556 S
C265 C266 1.362 . S
C266 H258 0.930 . S
C266 C265 1.362 . S
C266 C269 1.409 . S
C267 H259 0.930 . S
C267 C268 1.355 . S
C267 C269 1.415 . S
C268 C267 1.355 . S
C268 C270 1.419 1_556 S
C269 C264 1.425 1_556 S
C269 C266 1.409 . S
C269 C267 1.415 . S
C270 H260 0.930 . S
C270 C268 1.419 1_554 S
C270 C271 1.362 . S
C271 H261 0.930 . S
C271 C264 1.409 . S
C271 C270 1.362 . S
H272 C278 0.930 . S
H273 C281 0.930 . S
H274 C282 0.930 . S
H275 C283 0.930 . S
H276 C286 0.930 . S
H277 C287 0.930 . S
C278 H272 0.930 . S
C278 C279 1.355 . S
C278 C280 1.415 . S
C279 C278 1.355 . S
C279 C281 1.419 . S
C280 C278 1.415 . S
C280 C285 1.425 . S
C280 C287 1.409 . S
C281 H273 0.930 . S
C281 C279 1.419 . S
C281 C282 1.362 . S
C282 H274 0.930 . S
C282 C281 1.362 . S
C282 C285 1.409 . S
C283 H275 0.930 . S
C283 C284 1.355 . S
C283 C285 1.415 . S
C284 C283 1.355 . S
C284 C286 1.419 . S
C285 C280 1.425 . S
C285 C282 1.409 . S
C285 C283 1.415 . S
C286 H276 0.930 . S
C286 C284 1.419 . S
C286 C287 1.362 . S
C287 H277 0.930 . S
C287 C280 1.409 . S
C287 C286 1.362 . S
H288 C294 0.930 1_554 S
H289 C297 0.930 . S
H290 C298 0.930 . S
H291 C299 0.930 1_556 S
H292 C302 0.930 . S
H293 C303 0.930 . S
C294 H288 0.930 1_556 S
C294 C295 1.355 1_455 S
C294 C296 1.415 1_556 S
C295 C294 1.355 1_655 S
C295 C297 1.419 . S
C296 C294 1.415 1_554 S
C296 C301 1.425 1_454 S
C296 C303 1.409 . S
C297 H289 0.930 . S
C297 C295 1.419 . S
C297 C298 1.362 . S
C298 H290 0.930 . S
C298 C297 1.362 . S
C298 C301 1.409 . S
C299 H291 0.930 1_554 S
C299 C300 1.371 . S
C299 C301 1.415 1_554 S
C300 C299 1.371 . S
C300 C302 1.400 1_655 S
C301 C296 1.425 1_656 S
C301 C298 1.409 . S
C301 C299 1.415 1_556 S
C302 H292 0.930 . S
C302 C300 1.400 1_455 S
C302 C303 1.362 . S
C303 H293 0.930 . S
C303 C296 1.409 . S
C303 C302 1.362 . S
H304 C310 0.930 . S
H305 C313 0.930 . S
H306 C314 0.930 . S
H307 C315 0.930 . S
H308 C318 0.930 . S
H309 C319 0.930 . S
C310 H304 0.930 . S
C310 C311 1.355 1_545 S
C310 C312 1.415 . S
C311 C310 1.355 1_565 S
C311 C313 1.419 . S
C312 C310 1.415 . S
C312 C317 1.425 1_545 S
C312 C319 1.409 . S
C313 H305 0.930 . S
C313 C311 1.419 . S
C313 C314 1.362 . S
C314 H306 0.930 . S
C314 C313 1.362 . S
C314 C317 1.409 . S
C315 H307 0.930 . S
C315 C316 1.355 1_565 S
C315 C317 1.415 . S
C316 C315 1.355 1_545 S
C316 C318 1.419 . S
C317 C312 1.425 1_565 S
C317 C314 1.409 . S
C317 C315 1.415 . S
C318 H308 0.930 . S
C318 C316 1.419 . S
C318 C319 1.362 . S
C319 H309 0.930 . S
C319 C312 1.409 . S
C319 C318 1.362 . S
H320 C326 0.930 . S
H321 C329 0.930 . S
H322 C330 0.930 . S
H323 C331 0.930 . S
H324 C334 0.930 . S
H325 C335 0.930 . S
C326 H320 0.930 . S
C326 C327 1.355 1_554 S
C326 C328 1.415 . S
C327 C326 1.355 1_556 S
C327 C329 1.419 . S
C328 C326 1.415 . S
C328 C333 1.425 1_554 S
C328 C335 1.409 . S
C329 H321 0.930 . S
C329 C327 1.419 . S
C329 C330 1.362 . S
C330 H322 0.930 . S
C330 C329 1.362 . S
C330 C333 1.409 . S
C331 H323 0.930 . S
C331 C332 1.355 1_556 S
C331 C333 1.415 . S
C332 C331 1.355 1_554 S
C332 C334 1.419 . S
C333 C328 1.425 1_556 S
C333 C330 1.409 . S
C333 C331 1.415 . S
C334 H324 0.930 . S
C334 C332 1.419 . S
C334 C335 1.362 . S
C335 H325 0.930 . S
C335 C328 1.409 . S
C335 C334 1.362 . S
H336 C342 0.930 . S
H337 C345 0.930 . S
H338 C346 0.930 . S
H339 C347 0.930 . S
H340 C350 0.930 . S
H341 C351 0.930 . S
C342 H336 0.930 . S
C342 C343 1.355 . S
C342 C344 1.415 . S
C343 C342 1.355 . S
C343 C345 1.419 . S
C344 C342 1.415 . S
C344 C349 1.425 . S
C344 C351 1.409 . S
C345 H337 0.930 . S
C345 C343 1.419 . S
C345 C346 1.362 . S
C346 H338 0.930 . S
C346 C345 1.362 . S
C346 C349 1.409 . S
C347 H339 0.930 . S
C347 C348 1.355 . S
C347 C349 1.415 . S
C348 C347 1.355 . S
C348 C350 1.419 . S
C349 C344 1.425 . S
C349 C346 1.409 . S
C349 C347 1.415 . S
C350 H340 0.930 . S
C350 C348 1.419 . S
C350 C351 1.362 . S
C351 H341 0.930 . S
C351 C344 1.409 . S
C351 C350 1.362 . S
H352 C358 0.930 . S
H353 C361 0.930 1_554 S
H354 C362 0.930 . S
H355 C363 0.930 . S
H356 C366 0.930 . S
H357 C367 0.930 . S
C358 H352 0.930 . S
C358 C359 1.355 . S
C358 C360 1.415 . S
C359 C358 1.355 . S
C359 C361 1.419 . S
C360 C358 1.415 . S
C360 C365 1.425 . S
C360 C367 1.409 . S
C361 H353 0.930 1_556 S
C361 C359 1.419 . S
C361 C362 1.362 . S
C362 H354 0.930 . S
C362 C361 1.362 . S
C362 C365 1.409 . S
C363 H355 0.930 . S
C363 C364 1.355 . S
C363 C365 1.415 . S
C364 C363 1.355 . S
C364 C366 1.419 . S
C365 C360 1.425 . S
C365 C362 1.409 . S
C365 C363 1.415 . S
C366 H356 0.930 . S
C366 C364 1.419 . S
C366 C367 1.362 . S
C367 H357 0.930 . S
C367 C360 1.409 . S
C367 C366 1.362 . S
H368 C374 0.930 . S
H369 C377 0.930 . S
H370 C378 0.930 . S
H371 C379 0.930 . S
H372 C382 0.930 . S
H373 C383 0.930 . S
C374 H368 0.930 . S
C374 C375 1.355 . S
C374 C376 1.415 . S
C375 C374 1.355 . S
C375 C377 1.419 . S
C376 C374 1.415 . S
C376 C381 1.425 . S
C376 C383 1.409 . S
C377 H369 0.930 . S
C377 C375 1.419 . S
C377 C378 1.362 . S
C378 H370 0.930 . S
C378 C377 1.362 . S
C378 C381 1.409 . S
C379 H371 0.930 . S
C379 C380 1.355 . S
C379 C381 1.415 . S
C380 C379 1.355 . S
C380 C382 1.419 . S
C381 C376 1.425 . S
C381 C378 1.409 . S
C381 C379 1.415 . S
C382 H372 0.930 . S
C382 C380 1.419 . S
C382 C383 1.362 . S
C383 H373 0.930 . S
C383 C376 1.409 . S
C383 C382 1.362 . S
H384 C390 0.930 . S
H385 C393 0.930 . S
H386 C394 0.930 . S
H387 C395 0.930 . S
H388 C398 0.930 . S
H389 C399 0.930 . S
C390 H384 0.930 . S
C390 C391 1.355 . S
C390 C392 1.415 . S
C391 C390 1.355 . S
C391 C393 1.419 . S
C392 C390 1.415 . S
C392 C397 1.425 . S
C392 C399 1.409 . S
C393 H385 0.930 . S
C393 C391 1.419 . S
C393 C394 1.362 . S
C394 H386 0.930 . S
C394 C393 1.362 . S
C394 C397 1.409 . S
C395 H387 0.930 . S
C395 C396 1.355 . S
C395 C397 1.415 . S
C396 C395 1.355 . S
C396 C398 1.419 . S
C397 C392 1.425 . S
C397 C394 1.409 . S
C397 C395 1.415 . S
C398 H388 0.930 . S
C398 C396 1.419 . S
C398 C399 1.362 . S
C399 H389 0.930 . S
C399 C392 1.409 . S
C399 C398 1.362 . S
H400 C406 0.930 . S
H401 C409 0.930 . S
H402 C410 0.930 . S
H403 C411 0.930 . S
H404 C414 0.930 . S
H405 C415 0.930 . S
C406 H400 0.930 . S
C406 C407 1.355 . S
C406 C408 1.415 . S
C407 C406 1.355 . S
C407 C409 1.419 . S
C408 C406 1.415 . S
C408 C413 1.425 . S
C408 C415 1.409 . S
C409 H401 0.930 . S
C409 C407 1.419 . S
C409 C410 1.362 . S
C410 H402 0.930 . S
C410 C409 1.362 . S
C410 C413 1.409 . S
C411 H403 0.930 . S
C411 C412 1.355 . S
C411 C413 1.415 . S
C412 C411 1.355 . S
C412 C414 1.419 . S
C413 C408 1.425 . S
C413 C410 1.409 . S
C413 C411 1.415 . S
C414 H404 0.930 . S
C414 C412 1.419 . S
C414 C415 1.362 . S
C415 H405 0.930 . S
C415 C408 1.409 . S
C415 C414 1.362 . S
H416 C422 0.930 . S
H417 C425 0.930 . S
H418 C426 0.930 . S
H419 C427 0.930 1_556 S
H420 C430 0.930 . S
H421 C431 0.930 . S
C422 H416 0.930 . S
C422 C423 1.355 . S
C422 C424 1.415 . S
C423 C422 1.355 . S
C423 C425 1.419 . S
C424 C422 1.415 . S
C424 C429 1.425 . S
C424 C431 1.409 . S
C425 H417 0.930 . S
C425 C423 1.419 . S
C425 C426 1.362 . S
C426 H418 0.930 . S
C426 C425 1.362 . S
C426 C429 1.409 . S
C427 H419 0.930 1_554 S
C427 C428 1.355 . S
C427 C429 1.415 . S
C428 C427 1.355 . S
C428 C430 1.419 . S
C429 C424 1.425 . S
C429 C426 1.409 . S
C429 C427 1.415 . S
C430 H420 0.930 . S
C430 C428 1.419 . S
C430 C431 1.362 . S
C431 H421 0.930 . S
C431 C424 1.409 . S
C431 C430 1.362 . S
H432 C438 0.930 . S
H433 C441 0.930 . S
H434 C442 0.930 . S
H435 C443 0.930 . S
H436 C446 0.930 . S
H437 C447 0.930 . S
C438 H432 0.930 . S
C438 C439 1.355 . S
C438 C440 1.415 . S
C439 C438 1.355 . S
C439 C441 1.419 . S
C440 C438 1.415 . S
C440 C445 1.425 . S
C440 C447 1.409 . S
C441 H433 0.930 . S
C441 C439 1.419 . S
C441 C442 1.362 . S
C442 H434 0.930 . S
C442 C441 1.362 . S
C442 C445 1.409 . S
C443 H435 0.930 . S
C443 C444 1.355 . S
C443 C445 1.415 . S
C444 C443 1.355 . S
C444 C446 1.419 . S
C445 C440 1.425 . S
C445 C442 1.409 . S
C445 C443 1.415 . S
C446 H436 0.930 . S
C446 C444 1.419 . S
C446 C447 1.362 . S
C447 H437 0.930 . S
C447 C440 1.409 . S
C447 C446 1.362 . S
H448 C454 0.930 . S
H449 C457 0.930 . S
H450 C458 0.930 . S
H451 C459 0.930 . S
H452 C462 0.930 1_556 S
H453 C463 0.930 . S
C454 H448 0.930 . S
C454 C455 1.355 . S
C454 C456 1.415 . S
C455 C454 1.355 . S
C455 C457 1.419 . S
C456 C454 1.415 . S
C456 C461 1.425 . S
C456 C463 1.409 . S
C457 H449 0.930 . S
C457 C455 1.419 . S
C457 C458 1.362 . S
C458 H450 0.930 . S
C458 C457 1.362 . S
C458 C461 1.409 . S
C459 H451 0.930 . S
C459 C460 1.355 . S
C459 C461 1.415 . S
C460 C459 1.355 . S
C460 C462 1.419 . S
C461 C456 1.425 . S
C461 C458 1.409 . S
C461 C459 1.415 . S
C462 H452 0.930 1_554 S
C462 C460 1.419 . S
C462 C463 1.362 . S
C463 H453 0.930 . S
C463 C456 1.409 . S
C463 C462 1.362 . S
H464 C470 0.930 . S
H465 C473 0.930 . S
H466 C474 0.930 . S
H467 C475 0.930 . S
H468 C478 0.930 . S
H469 C479 0.930 . S
C470 H464 0.930 . S
C470 C471 1.355 . S
C470 C472 1.415 . S
C471 C470 1.355 . S
C471 C473 1.419 . S
C472 C470 1.415 . S
C472 C477 1.425 . S
C472 C479 1.409 . S
C473 H465 0.930 . S
C473 C471 1.419 . S
C473 C474 1.362 . S
C474 H466 0.930 . S
C474 C473 1.362 . S
C474 C477 1.409 . S
C475 H467 0.930 . S
C475 C476 1.355 . S
C475 C477 1.415 . S
C476 C475 1.355 . S
C476 C478 1.419 . S
C477 C472 1.425 . S
C477 C474 1.409 . S
C477 C475 1.415 . S
C478 H468 0.930 . S
C478 C476 1.419 . S
C478 C479 1.362 . S
C479 H469 0.930 . S
C479 C472 1.409 . S
C479 C478 1.362 . S
H480 C486 0.930 . S
H481 C489 0.930 . S
H482 C490 0.930 . S
H483 C491 0.930 . S
H484 C494 0.930 . S
H485 C495 0.930 . S
C486 H480 0.930 . S
C486 C487 1.355 . S
C486 C488 1.415 . S
C487 C486 1.355 . S
C487 C489 1.419 . S
C488 C486 1.415 . S
C488 C493 1.425 . S
C488 C495 1.409 . S
C489 H481 0.930 . S
C489 C487 1.419 . S
C489 C490 1.362 . S
C490 H482 0.930 . S
C490 C489 1.362 . S
C490 C493 1.409 . S
C491 H483 0.930 . S
C491 C492 1.355 . S
C491 C493 1.415 . S
C492 C491 1.355 . S
C492 C494 1.419 . S
C493 C488 1.425 . S
C493 C490 1.409 . S
C493 C491 1.415 . S
C494 H484 0.930 . S
C494 C492 1.419 . S
C494 C495 1.362 . S
C495 H485 0.930 . S
C495 C488 1.409 . S
C495 C494 1.362 . S
H496 C502 0.930 . S
H497 C505 0.930 . S
H498 C506 0.930 . S
H499 C507 0.930 . S
H500 C510 0.930 . S
H501 C511 0.930 . S
C502 H496 0.930 . S
C502 C503 1.355 . S
C502 C504 1.415 . S
C503 C502 1.355 . S
C503 C505 1.419 . S
C504 C502 1.415 . S
C504 C509 1.425 . S
C504 C511 1.409 . S
C505 H497 0.930 . S
C505 C503 1.419 . S
C505 C506 1.362 . S
C506 H498 0.930 . S
C506 C505 1.362 . S
C506 C509 1.409 . S
C507 H499 0.930 . S
C507 C508 1.355 . S
C507 C509 1.415 . S
C508 C507 1.355 . S
C508 C510 1.419 . S
C509 C504 1.425 . S
C509 C506 1.409 . S
C509 C507 1.415 . S
C510 H500 0.930 . S
C510 C508 1.419 . S
C510 C511 1.362 . S
C511 H501 0.930 . S
C511 C504 1.409 . S
C511 C510 1.362 . S
H512 C518 0.930 . S
H513 C521 0.930 . S
H514 C522 0.930 . S
H515 C523 0.930 . S
H516 C526 0.930 . S
H517 C527 0.930 . S
C518 H512 0.930 . S
C518 C519 1.355 . S
C518 C520 1.415 . S
C519 C518 1.355 . S
C519 C521 1.419 . S
C520 C518 1.415 . S
C520 C525 1.425 . S
C520 C527 1.409 . S
C521 H513 0.930 . S
C521 C519 1.419 . S
C521 C522 1.362 . S
C522 H514 0.930 . S
C522 C521 1.362 . S
C522 C525 1.409 . S
C523 H515 0.930 . S
C523 C524 1.355 . S
C523 C525 1.415 . S
C524 C523 1.355 . S
C524 C526 1.419 . S
C525 C520 1.425 . S
C525 C522 1.409 . S
C525 C523 1.415 . S
C526 H516 0.930 . S
C526 C524 1.419 . S
C526 C527 1.362 . S
C527 H517 0.930 . S
C527 C520 1.409 . S
C527 C526 1.362 . S
H528 C534 0.930 . S
H529 C537 0.930 . S
H530 C538 0.930 . S
H531 C539 0.930 . S
H532 C542 0.930 . S
H533 C543 0.930 . S
C534 H528 0.930 . S
C534 C535 1.355 . S
C534 C536 1.415 . S
C535 C534 1.355 . S
C535 C537 1.419 . S
C536 C534 1.415 . S
C536 C541 1.425 . S
C536 C543 1.409 . S
C537 H529 0.930 . S
C537 C535 1.419 . S
C537 C538 1.362 . S
C538 H530 0.930 . S
C538 C537 1.362 . S
C538 C541 1.409 . S
C539 H531 0.930 . S
C539 C540 1.355 . S
C539 C541 1.415 . S
C540 C539 1.355 . S
C540 C542 1.419 . S
C541 C536 1.425 . S
C541 C538 1.409 . S
C541 C539 1.415 . S
C542 H532 0.930 . S
C542 C540 1.419 . S
C542 C543 1.362 . S
C543 H533 0.930 . S
C543 C536 1.409 . S
C543 C542 1.362 . S
H544 C550 0.930 . S
H545 C553 0.930 . S
H546 C554 0.930 . S
H547 C555 0.930 . S
H548 C558 0.930 . S
H549 C559 0.930 . S
C550 H544 0.930 . S
C550 C551 1.355 . S
C550 C552 1.415 . S
C551 C550 1.355 . S
C551 C553 1.419 . S
C552 C550 1.415 . S
C552 C557 1.425 . S
C552 C559 1.409 . S
C553 H545 0.930 . S
C553 C551 1.419 . S
C553 C554 1.362 . S
C554 H546 0.930 . S
C554 C553 1.362 . S
C554 C557 1.409 . S
C555 H547 0.930 . S
C555 C556 1.355 . S
C555 C557 1.415 . S
C556 C555 1.355 . S
C556 C558 1.419 . S
C557 C552 1.425 . S
C557 C554 1.409 . S
C557 C555 1.415 . S
C558 H548 0.930 . S
C558 C556 1.419 . S
C558 C559 1.362 . S
C559 H549 0.930 . S
C559 C552 1.409 . S
C559 C558 1.362 . S
H560 C566 0.930 . S
H561 C569 0.930 . S
H562 C570 0.930 . S
H563 C571 0.930 . S
H564 C574 0.930 . S
H565 C575 0.930 . S
C566 H560 0.930 . S
C566 C567 1.355 . S
C566 C568 1.415 . S
C567 C566 1.355 . S
C567 C569 1.419 . S
C568 C566 1.415 . S
C568 C573 1.425 . S
C568 C575 1.409 . S
C569 H561 0.930 . S
C569 C567 1.419 . S
C569 C570 1.362 . S
C570 H562 0.930 . S
C570 C569 1.362 . S
C570 C573 1.409 . S
C571 H563 0.930 . S
C571 C572 1.355 . S
C571 C573 1.415 . S
C572 C571 1.355 . S
C572 C574 1.419 . S
C573 C568 1.425 . S
C573 C570 1.409 . S
C573 C571 1.415 . S
C574 H564 0.930 . S
C574 C572 1.419 . S
C574 C575 1.362 . S
C575 H565 0.930 . S
C575 C568 1.409 . S
C575 C574 1.362 . S
H576 C582 0.930 . S
H577 C585 0.930 . S
H578 C586 0.930 . S
H579 C587 0.930 . S
H580 C590 0.930 . S
H581 C591 0.930 . S
C582 H576 0.930 . S
C582 C583 1.355 . S
C582 C584 1.415 . S
C583 C582 1.355 . S
C583 C585 1.419 . S
C584 C582 1.415 . S
C584 C589 1.425 . S
C584 C591 1.409 . S
C585 H577 0.930 . S
C585 C583 1.419 . S
C585 C586 1.362 . S
C586 H578 0.930 . S
C586 C585 1.362 . S
C586 C589 1.409 . S
C587 H579 0.930 . S
C587 C588 1.355 . S
C587 C589 1.415 . S
C588 C587 1.355 . S
C588 C590 1.419 . S
C589 C584 1.425 . S
C589 C586 1.409 . S
C589 C587 1.415 . S
C590 H580 0.930 . S
C590 C588 1.419 . S
C590 C591 1.362 . S
C591 H581 0.930 . S
C591 C584 1.409 . S
C591 C590 1.362 . S
H592 C598 0.930 . S
H593 C601 0.930 . S
H594 C602 0.930 . S
H595 C603 0.930 . S
H596 C606 0.930 . S
H597 C607 0.930 . S
C598 H592 0.930 . S
C598 C599 1.355 . S
C598 C600 1.415 . S
C599 C598 1.355 . S
C599 C601 1.419 . S
C600 C598 1.415 . S
C600 C605 1.425 . S
C600 C607 1.409 . S
C601 H593 0.930 . S
C601 C599 1.419 . S
C601 C602 1.362 . S
C602 H594 0.930 . S
C602 C601 1.362 . S
C602 C605 1.409 . S
C603 H595 0.930 . S
C603 C604 1.355 . S
C603 C605 1.415 . S
C604 C603 1.355 . S
C604 C606 1.419 . S
C605 C600 1.425 . S
C605 C602 1.409 . S
C605 C603 1.415 . S
C606 H596 0.930 . S
C606 C604 1.419 . S
C606 C607 1.362 . S
C607 H597 0.930 . S
C607 C600 1.409 . S
C607 C606 1.362 . S
H608 C614 0.930 . S
H609 C617 0.930 . S
H610 C618 0.930 . S
H611 C619 0.930 . S
H612 C622 0.930 . S
H613 C623 0.930 . S
C614 H608 0.930 . S
C614 C615 1.355 . S
C614 C616 1.415 . S
C615 C614 1.355 . S
C615 C617 1.419 . S
C616 C614 1.415 . S
C616 C621 1.425 . S
C616 C623 1.409 . S
C617 H609 0.930 . S
C617 C615 1.419 . S
C617 C618 1.362 . S
C618 H610 0.930 . S
C618 C617 1.362 . S
C618 C621 1.409 . S
C619 H611 0.930 . S
C619 C620 1.355 . S
C619 C621 1.415 . S
C620 C619 1.355 . S
C620 C622 1.419 . S
C621 C616 1.425 . S
C621 C618 1.409 . S
C621 C619 1.415 . S
C622 H612 0.930 . S
C622 C620 1.419 . S
C622 C623 1.362 . S
C623 H613 0.930 . S
C623 C616 1.409 . S
C623 C622 1.362 . S
H624 C630 0.930 . S
H625 C633 0.930 . S
H626 C634 0.930 . S
H627 C635 0.930 . S
H628 C638 0.930 . S
H629 C639 0.930 . S
C630 H624 0.930 . S
C630 C631 1.355 . S
C630 C632 1.415 . S
C631 C630 1.355 . S
C631 C633 1.419 . S
C632 C630 1.415 . S
C632 C637 1.425 . S
C632 C639 1.409 . S
C633 H625 0.930 . S
C633 C631 1.419 . S
C633 C634 1.362 . S
C634 H626 0.930 . S
C634 C633 1.362 . S
C634 C637 1.409 . S
C635 H627 0.930 . S
C635 C636 1.355 . S
C635 C637 1.415 . S
C636 C635 1.355 . S
C636 C638 1.419 . S
C637 C632 1.425 . S
C637 C634 1.409 . S
C637 C635 1.415 . S
C638 H628 0.930 . S
C638 C636 1.419 . S
C638 C639 1.362 . S
C639 H629 0.930 . S
C639 C632 1.409 . S
C639 C638 1.362 . S
H640 C646 0.930 . S
H641 C649 0.930 . S
H642 C650 0.930 . S
H643 C651 0.930 . S
H644 C654 0.930 . S
H645 C655 0.930 . S
C646 H640 0.930 . S
C646 C647 1.355 . S
C646 C648 1.415 . S
C647 C646 1.355 . S
C647 C649 1.419 . S
C648 C646 1.415 . S
C648 C653 1.425 . S
C648 C655 1.409 . S
C649 H641 0.930 . S
C649 C647 1.419 . S
C649 C650 1.362 . S
C650 H642 0.930 . S
C650 C649 1.362 . S
C650 C653 1.409 . S
C651 H643 0.930 . S
C651 C652 1.355 . S
C651 C653 1.415 . S
C652 C651 1.355 . S
C652 C654 1.419 . S
C653 C648 1.425 . S
C653 C650 1.409 . S
C653 C651 1.415 . S
C654 H644 0.930 . S
C654 C652 1.419 . S
C654 C655 1.362 . S
C655 H645 0.930 . S
C655 C648 1.409 . S
C655 C654 1.362 . S
H656 C662 0.930 . S
H657 C665 0.930 . S
H658 C666 0.930 . S
H659 C667 0.930 . S
H660 C670 0.930 . S
H661 C671 0.930 . S
C662 H656 0.930 . S
C662 C663 1.355 . S
C662 C664 1.415 . S
C663 C662 1.355 . S
C663 C665 1.419 . S
C664 C662 1.415 . S
C664 C669 1.425 . S
C664 C671 1.409 . S
C665 H657 0.930 . S
C665 C663 1.419 . S
C665 C666 1.362 . S
C666 H658 0.930 . S
C666 C665 1.362 . S
C666 C669 1.409 . S
C667 H659 0.930 . S
C667 C668 1.355 . S
C667 C669 1.415 . S
C668 C667 1.355 . S
C668 C670 1.419 . S
C669 C664 1.425 . S
C669 C666 1.409 . S
C669 C667 1.415 . S
C670 H660 0.930 . S
C670 C668 1.419 . S
C670 C671 1.362 . S
C671 H661 0.930 . S
C671 C664 1.409 . S
C671 C670 1.362 . S
H672 C678 0.930 . S
H673 C681 0.930 . S
H674 C682 0.930 . S
H675 C683 0.930 . S
H676 C686 0.930 . S
H677 C687 0.930 . S
C678 H672 0.930 . S
C678 C679 1.355 . S
C678 C680 1.415 . S
C679 C678 1.355 . S
C679 C681 1.419 . S
C680 C678 1.415 . S
C680 C685 1.425 . S
C680 C687 1.409 . S
C681 H673 0.930 . S
C681 C679 1.419 . S
C681 C682 1.362 . S
C682 H674 0.930 . S
C682 C681 1.362 . S
C682 C685 1.409 . S
C683 H675 0.930 . S
C683 C684 1.355 . S
C683 C685 1.415 . S
C684 C683 1.355 . S
C684 C686 1.419 . S
C685 C680 1.425 . S
C685 C682 1.409 . S
C685 C683 1.415 . S
C686 H676 0.930 . S
C686 C684 1.419 . S
C686 C687 1.362 . S
C687 H677 0.930 . S
C687 C680 1.409 . S
C687 C686 1.362 . S
H688 C694 0.930 . S
H689 C697 0.930 . S
H690 C698 0.930 . S
H691 C699 0.930 . S
H692 C702 0.930 . S
H693 C703 0.930 . S
C694 H688 0.930 . S
C694 C695 1.355 . S
C694 C696 1.415 . S
C695 C694 1.355 . S
C695 C697 1.419 . S
C696 C694 1.415 . S
C696 C701 1.425 . S
C696 C703 1.409 . S
C697 H689 0.930 . S
C697 C695 1.419 . S
C697 C698 1.362 . S
C698 H690 0.930 . S
C698 C697 1.362 . S
C698 C701 1.409 . S
C699 H691 0.930 . S
C699 C700 1.355 . S
C699 C701 1.415 . S
C700 C699 1.355 . S
C700 C702 1.419 . S
C701 C696 1.425 . S
C701 C698 1.409 . S
C701 C699 1.415 . S
C702 H692 0.930 . S
C702 C700 1.419 . S
C702 C703 1.362 . S
C703 H693 0.930 . S
C703 C696 1.409 . S
C703 C702 1.362 . S
H704 C710 0.930 . S
H705 C713 0.930 . S
H706 C714 0.930 . S
H707 C715 0.930 . S
H708 C718 0.930 . S
H709 C719 0.930 . S
C710 H704 0.930 . S
C710 C711 1.355 . S
C710 C712 1.415 . S
C711 C710 1.355 . S
C711 C713 1.419 . S
C712 C710 1.415 . S
C712 C717 1.425 . S
C712 C719 1.409 . S
C713 H705 0.930 . S
C713 C711 1.419 . S
C713 C714 1.362 . S
C714 H706 0.930 . S
C714 C713 1.362 . S
C714 C717 1.409 . S
C715 H707 0.930 . S
C715 C716 1.355 . S
C715 C717 1.415 . S
C716 C715 1.355 . S
C716 C718 1.419 . S
C717 C712 1.425 . S
C717 C714 1.409 . S
C717 C715 1.415 . S
C718 H708 0.930 . S
C718 C716 1.419 . S
C718 C719 1.362 . S
C719 H709 0.930 . S
C719 C712 1.409 . S
C719 C718 1.362 . S
H720 C726 0.930 . S
H721 C729 0.930 . S
H722 C730 0.930 . S
H723 C731 0.930 . S
H724 C734 0.930 . S
H725 C735 0.930 . S
C726 H720 0.930 . S
C726 C727 1.355 . S
C726 C728 1.415 . S
C727 C726 1.355 . S
C727 C729 1.419 . S
C728 C726 1.415 . S
C728 C733 1.425 . S
C728 C735 1.409 . S
C729 H721 0.930 . S
C729 C727 1.419 . S
C729 C730 1.362 . S
C730 H722 0.930 . S
C730 C729 1.362 . S
C730 C733 1.409 . S
C731 H723 0.930 . S
C731 C732 1.355 . S
C731 C733 1.415 . S
C732 C731 1.355 . S
C732 C734 1.419 . S
C733 C728 1.425 . S
C733 C730 1.409 . S
C733 C731 1.415 . S
C734 H724 0.930 . S
C734 C732 1.419 . S
C734 C735 1.362 . S
C735 H725 0.930 . S
C735 C728 1.409 . S
C735 C734 1.362 . S
C231 C11 1.161 1_655 S
C236 C67 1.129 . S
C247 C81 1.151 1_565 S
C252 C25 1.120 . S
C263 C39 1.139 . S
C268 C95 1.131 . S
C279 C53 1.119 . S
C284 C109 1.155 . S
C295 C123 1.144 . S
C300 C179 1.165 . S
C311 C193 1.115 . S
C316 C137 1.167 1_545 S
C327 C151 1.154 . S
C332 C207 1.146 . S
C343 C165 1.158 . S
C348 C221 1.142 . S
C359 C9 1.474 1_556 S
C364 C215 1.457 . S
C375 C173 1.473 . S
C380 C23 1.477 . S
C391 C37 1.483 1_556 S
C396 C187 1.484 . S
C407 C201 1.484 . S
C412 C51 1.483 . S
C423 C131 1.482 . S
C428 C65 1.483 1_554 S
C439 C145 1.468 . S
C444 C79 1.480 . S
C455 C159 1.457 . S
C460 C93 1.474 1_554 S
C471 C117 1.467 . S
C476 C107 1.480 . S
C487 C121 1.480 1_554 S
C492 C103 1.481 . S
C503 C61 1.475 . S
C508 C135 1.482 . S
C519 C75 1.456 . S
C524 C149 1.475 1_554 S
C535 C163 1.476 . S
C540 C89 1.472 . S
C551 C19 1.456 . S
C556 C177 1.474 1_556 S
C567 C191 1.475 . S
C572 C33 1.456 . S
C583 C205 1.483 1_556 S
C588 C47 1.483 . S
C599 C219 1.474 . S
C604 C5 1.455 . S
C615 C98 1.124 . S
C620 C0 1.167 . S
C631 C14 1.101 . S
C636 C56 1.199 . S
C647 C28 1.156 . S
C652 C70 1.154 . S
C663 C42 1.127 . S
C668 C84 1.180 . S
C679 C210 1.181 . S
C684 C112 1.112 . S
C695 C168 1.199 . S
C700 C126 1.099 . S
C711 C182 1.152 . S
C716 C140 1.157 . S
C727 C196 1.193 . S
C732 C154 1.102 . S
