# Generated by pormake.
# Topology tzs, (4)-cn, num edge types: 1
# Building blocks:
#     Node 0, Type 0, BuildingBlock: TATPOV_clean_sbu_0, # of connection points: 4
#     Node 1, Type 0, BuildingBlock: TATPOV_clean_sbu_0, # of connection points: 4
#     Node 2, Type 0, BuildingBlock: TATPOV_clean_sbu_0, # of connection points: 4
#     Node 3, Type 0, BuildingBlock: TATPOV_clean_sbu_0, # of connection points: 4
#     Node 4, Type 0, BuildingBlock: TATPOV_clean_sbu_0, # of connection points: 4
#     Node 5, Type 0, BuildingBlock: TATPOV_clean_sbu_0, # of connection points: 4
#     Node 6, Type 0, BuildingBlock: TATPOV_clean_sbu_0, # of connection points: 4
#     Node 7, Type 0, BuildingBlock: TATPOV_clean_sbu_0, # of connection points: 4
#     Node 8, Type 0, BuildingBlock: TATPOV_clean_sbu_0, # of connection points: 4
#     Node 9, Type 0, BuildingBlock: TATPOV_clean_sbu_0, # of connection points: 4
#     Node 10, Type 0, BuildingBlock: TATPOV_clean_sbu_0, # of connection points: 4
#     Node 11, Type 0, BuildingBlock: TATPOV_clean_sbu_0, # of connection points: 4
#     Node 12, Type 0, BuildingBlock: TATPOV_clean_sbu_0, # of connection points: 4
#     Node 13, Type 0, BuildingBlock: TATPOV_clean_sbu_0, # of connection points: 4
#     Node 14, Type 0, BuildingBlock: TATPOV_clean_sbu_0, # of connection points: 4
#     Node 15, Type 0, BuildingBlock: TATPOV_clean_sbu_0, # of connection points: 4
#     Edge 16, Type (0, 0), BuildingBlock: EYOCIG_clean_linker_4, # of connection points: 2
#     Edge 17, Type (0, 0), BuildingBlock: EYOCIG_clean_linker_4, # of connection points: 2
#     Edge 18, Type (0, 0), BuildingBlock: EYOCIG_clean_linker_4, # of connection points: 2
#     Edge 19, Type (0, 0), BuildingBlock: EYOCIG_clean_linker_4, # of connection points: 2
#     Edge 20, Type (0, 0), BuildingBlock: EYOCIG_clean_linker_4, # of connection points: 2
#     Edge 21, Type (0, 0), BuildingBlock: EYOCIG_clean_linker_4, # of connection points: 2
#     Edge 22, Type (0, 0), BuildingBlock: EYOCIG_clean_linker_4, # of connection points: 2
#     Edge 23, Type (0, 0), BuildingBlock: EYOCIG_clean_linker_4, # of connection points: 2
#     Edge 24, Type (0, 0), BuildingBlock: EYOCIG_clean_linker_4, # of connection points: 2
#     Edge 25, Type (0, 0), BuildingBlock: EYOCIG_clean_linker_4, # of connection points: 2
#     Edge 26, Type (0, 0), BuildingBlock: EYOCIG_clean_linker_4, # of connection points: 2
#     Edge 27, Type (0, 0), BuildingBlock: EYOCIG_clean_linker_4, # of connection points: 2
#     Edge 28, Type (0, 0), BuildingBlock: EYOCIG_clean_linker_4, # of connection points: 2
#     Edge 29, Type (0, 0), BuildingBlock: EYOCIG_clean_linker_4, # of connection points: 2
#     Edge 30, Type (0, 0), BuildingBlock: EYOCIG_clean_linker_4, # of connection points: 2
#     Edge 31, Type (0, 0), BuildingBlock: EYOCIG_clean_linker_4, # of connection points: 2
#     Edge 32, Type (0, 0), BuildingBlock: EYOCIG_clean_linker_4, # of connection points: 2
#     Edge 33, Type (0, 0), BuildingBlock: EYOCIG_clean_linker_4, # of connection points: 2
#     Edge 34, Type (0, 0), BuildingBlock: EYOCIG_clean_linker_4, # of connection points: 2
#     Edge 35, Type (0, 0), BuildingBlock: EYOCIG_clean_linker_4, # of connection points: 2
#     Edge 36, Type (0, 0), BuildingBlock: EYOCIG_clean_linker_4, # of connection points: 2
#     Edge 37, Type (0, 0), BuildingBlock: EYOCIG_clean_linker_4, # of connection points: 2
#     Edge 38, Type (0, 0), BuildingBlock: EYOCIG_clean_linker_4, # of connection points: 2
#     Edge 39, Type (0, 0), BuildingBlock: EYOCIG_clean_linker_4, # of connection points: 2
#     Edge 40, Type (0, 0), BuildingBlock: EYOCIG_clean_linker_4, # of connection points: 2
#     Edge 41, Type (0, 0), BuildingBlock: EYOCIG_clean_linker_4, # of connection points: 2
#     Edge 42, Type (0, 0), BuildingBlock: EYOCIG_clean_linker_4, # of connection points: 2
#     Edge 43, Type (0, 0), BuildingBlock: EYOCIG_clean_linker_4, # of connection points: 2
#     Edge 44, Type (0, 0), BuildingBlock: EYOCIG_clean_linker_4, # of connection points: 2
#     Edge 45, Type (0, 0), BuildingBlock: EYOCIG_clean_linker_4, # of connection points: 2
#     Edge 46, Type (0, 0), BuildingBlock: EYOCIG_clean_linker_4, # of connection points: 2
#     Edge 47, Type (0, 0), BuildingBlock: EYOCIG_clean_linker_4, # of connection points: 2
# Relax obj value: 0.050
# Max RMSD: 0.078
# Mean RMSD: 0.078
data_MOF--net-tzs--node1-TATPOV_clean_sbu_0--edge1-EYOCIG_clean_linker_4
_symmetry_space_group_name_H-M    P1
_symmetry_Int_Tables_number       1
_symmetry_cell_setting            triclinic
loop_
_symmetry_equiv_pos_as_xyz
'x, y, z'
_cell_length_a     38.367782
_cell_length_b     38.370247
_cell_length_c     35.282427
_cell_angle_alpha  89.97547
_cell_angle_beta   90.03939
_cell_angle_gamma 89.954909
loop_
_atom_site_label
_atom_site_type_symbol
_atom_site_fract_x
_atom_site_fract_y
_atom_site_fract_z
_atom_type_partial_charge
Zn0 Zn 0.09441 0.3946 0.1149 0.0
Zn1 Zn 0.14078 0.34703 0.14088 0.0
O2 O 0.09479 0.33008 0.16512 0.0
O3 O 0.05732 0.36955 0.14444 0.0
O4 O 0.17718 0.31143 0.15658 0.0
O5 O 0.1046 0.382 0.06085 0.0
O6 O 0.14309 0.34401 0.08222 0.0
C7 C 0.06405 0.34263 0.1638 0.0
C8 C 0.14693 0.42454 0.16231 0.0
O9 O 0.15755 0.39316 0.16514 0.0
O10 O 0.1212 0.43226 0.14155 0.0
C11 C 0.18237 0.30207 0.19065 0.0
O12 O 0.16356 0.31547 0.21806 0.0
C13 C 0.12744 0.35895 0.05479 0.0
Zn14 Zn 0.59438 0.09382 0.11419 0.0
Zn15 Zn 0.64084 0.14076 0.14104 0.0
O16 O 0.6581 0.09492 0.16545 0.0
O17 O 0.61952 0.05695 0.14411 0.0
O18 O 0.67598 0.17728 0.15724 0.0
O19 O 0.60748 0.10449 0.06038 0.0
O20 O 0.6443 0.14368 0.08249 0.0
C21 C 0.64602 0.06403 0.16396 0.0
C22 C 0.56309 0.14585 0.16134 0.0
O23 O 0.59427 0.15687 0.16471 0.0
O24 O 0.55603 0.1201 0.14036 0.0
C25 C 0.68576 0.18177 0.19128 0.0
O26 O 0.67289 0.1623 0.21843 0.0
C27 C 0.63 0.12793 0.05478 0.0
Zn28 Zn 0.89353 0.59388 0.11452 0.0
Zn29 Zn 0.84658 0.64058 0.14119 0.0
O30 O 0.89245 0.65749 0.16586 0.0
O31 O 0.93044 0.61888 0.14451 0.0
O32 O 0.81014 0.67591 0.15731 0.0
O33 O 0.88298 0.60719 0.06065 0.0
O34 O 0.84398 0.64431 0.08263 0.0
C35 C 0.92336 0.64536 0.1644 0.0
C36 C 0.84098 0.56275 0.16124 0.0
O37 O 0.83001 0.59397 0.16452 0.0
O38 O 0.86694 0.55564 0.1406 0.0
C39 C 0.80572 0.68574 0.19134 0.0
O40 O 0.82521 0.67281 0.21848 0.0
C41 C 0.85975 0.62995 0.05497 0.0
Zn42 Zn 0.39432 0.89328 0.1151 0.0
Zn43 Zn 0.34711 0.84654 0.14093 0.0
O44 O 0.33007 0.89237 0.16559 0.0
O45 O 0.36918 0.93015 0.14496 0.0
O46 O 0.31169 0.81002 0.15657 0.0
O47 O 0.38152 0.88325 0.06101 0.0
O48 O 0.34385 0.84448 0.08226 0.0
C49 C 0.34241 0.92318 0.16442 0.0
C50 C 0.42475 0.84048 0.16198 0.0
O51 O 0.39344 0.8297 0.16481 0.0
O52 O 0.43222 0.86644 0.14147 0.0
C53 C 0.30217 0.80499 0.19061 0.0
O54 O 0.31533 0.82402 0.21798 0.0
C55 C 0.3586 0.86033 0.05488 0.0
Zn56 Zn 0.0944 0.5934 0.31132 0.0
Zn57 Zn 0.14083 0.64034 0.28439 0.0
O58 O 0.09447 0.65747 0.2608 0.0
O59 O 0.05695 0.61851 0.28225 0.0
O60 O 0.17706 0.6756 0.26759 0.0
O61 O 0.10562 0.60626 0.36505 0.0
O62 O 0.14436 0.64356 0.34295 0.0
C63 C 0.06363 0.64526 0.26265 0.0
C64 C 0.14642 0.56264 0.26382 0.0
O65 O 0.15718 0.59391 0.26055 0.0
O66 O 0.12071 0.55533 0.28473 0.0
C67 C 0.18162 0.68468 0.23332 0.0
O68 O 0.16223 0.6712 0.20644 0.0
C69 C 0.12894 0.62889 0.37066 0.0
Zn70 Zn 0.39407 0.09395 0.31109 0.0
Zn71 Zn 0.34712 0.14037 0.28431 0.0
O72 O 0.32982 0.09424 0.26064 0.0
O73 O 0.36904 0.05672 0.28173 0.0
O74 O 0.31196 0.17681 0.26765 0.0
O75 O 0.3812 0.1047 0.3649 0.0
O76 O 0.34391 0.14359 0.34292 0.0
C77 C 0.34218 0.06343 0.26227 0.0
C78 C 0.42482 0.14567 0.26344 0.0
O79 O 0.39352 0.15641 0.26015 0.0
O80 O 0.43224 0.12016 0.28465 0.0
C81 C 0.30286 0.18148 0.2334 0.0
O82 O 0.31629 0.1621 0.20649 0.0
C83 C 0.35852 0.12798 0.37058 0.0
Zn84 Zn 0.89293 0.39435 0.31075 0.0
Zn85 Zn 0.84689 0.34695 0.28432 0.0
O86 O 0.89299 0.33018 0.26024 0.0
O87 O 0.93029 0.36956 0.28124 0.0
O88 O 0.81085 0.31138 0.26795 0.0
O89 O 0.88254 0.38136 0.36469 0.0
O90 O 0.84421 0.34345 0.34297 0.0
C91 C 0.92369 0.34274 0.26173 0.0
C92 C 0.84059 0.42456 0.26319 0.0
O93 O 0.83007 0.39318 0.26018 0.0
O94 O 0.86619 0.4322 0.28416 0.0
C95 C 0.8063 0.30212 0.23375 0.0
O96 O 0.82548 0.3157 0.20676 0.0
C97 C 0.85975 0.35824 0.37054 0.0
Zn98 Zn 0.59304 0.8933 0.31072 0.0
Zn99 Zn 0.64048 0.84699 0.28456 0.0
O100 O 0.65741 0.89319 0.26073 0.0
O101 O 0.61804 0.93066 0.2815 0.0
O102 O 0.6761 0.81093 0.26818 0.0
O103 O 0.60584 0.88271 0.36463 0.0
O104 O 0.64371 0.84417 0.34318 0.0
C105 C 0.64499 0.92398 0.26222 0.0
C106 C 0.56286 0.84079 0.26344 0.0
O107 O 0.59423 0.83017 0.26052 0.0
O108 O 0.55526 0.8666 0.2841 0.0
C109 C 0.68538 0.80643 0.23398 0.0
O110 O 0.67181 0.82568 0.20701 0.0
C111 C 0.62882 0.85977 0.37063 0.0
Zn112 Zn 0.89357 0.59422 0.81177 0.0
Zn113 Zn 0.84683 0.64044 0.78443 0.0
O114 O 0.82958 0.59409 0.76115 0.0
O115 O 0.86859 0.55664 0.78282 0.0
O116 O 0.81162 0.67668 0.76743 0.0
O117 O 0.88072 0.60555 0.86546 0.0
O118 O 0.84357 0.64433 0.84301 0.0
C119 C 0.84184 0.56326 0.76314 0.0
C120 C 0.92454 0.64551 0.76362 0.0
O121 O 0.89328 0.65632 0.76018 0.0
O122 O 0.93182 0.62013 0.78505 0.0
C123 C 0.80256 0.68121 0.73315 0.0
O124 O 0.81611 0.66181 0.70632 0.0
C125 C 0.85813 0.62898 0.87087 0.0
Zn126 Zn 0.39366 0.89378 0.81001 0.0
Zn127 Zn 0.34684 0.84676 0.78414 0.0
O128 O 0.39289 0.82936 0.76021 0.0
O129 O 0.43081 0.86829 0.78089 0.0
O130 O 0.31063 0.8113 0.76794 0.0
O131 O 0.38281 0.88154 0.86407 0.0
O132 O 0.34376 0.84414 0.84281 0.0
C133 C 0.42379 0.84144 0.76159 0.0
C134 C 0.34119 0.92417 0.76253 0.0
O135 O 0.33023 0.89292 0.75984 0.0
O136 O 0.36718 0.93158 0.78303 0.0
C137 C 0.30611 0.80207 0.73372 0.0
O138 O 0.3254 0.81559 0.7068 0.0
C139 C 0.35944 0.85906 0.87019 0.0
Zn140 Zn 0.09364 0.39363 0.8099 0.0
Zn141 Zn 0.14077 0.34668 0.78417 0.0
O142 O 0.15815 0.39265 0.76019 0.0
O143 O 0.11918 0.43065 0.78069 0.0
O144 O 0.17628 0.31043 0.76809 0.0
O145 O 0.10593 0.38283 0.86396 0.0
O146 O 0.14339 0.34374 0.84282 0.0
C147 C 0.14606 0.42357 0.76146 0.0
C148 C 0.06338 0.34111 0.76249 0.0
O149 O 0.09464 0.33012 0.75987 0.0
O150 O 0.05592 0.36712 0.78293 0.0
C151 C 0.18565 0.30604 0.7339 0.0
O152 O 0.1722 0.32544 0.70697 0.0
C153 C 0.12846 0.35949 0.87015 0.0
Zn154 Zn 0.59461 0.09349 0.8113 0.0
Zn155 Zn 0.64112 0.14042 0.78448 0.0
O156 O 0.59501 0.15728 0.76025 0.0
O157 O 0.55736 0.11844 0.78172 0.0
O158 O 0.67728 0.17593 0.76831 0.0
O159 O 0.60543 0.10653 0.86511 0.0
O160 O 0.64414 0.14385 0.84302 0.0
C161 C 0.56418 0.14503 0.76189 0.0
C162 C 0.647 0.06277 0.76405 0.0
O163 O 0.6578 0.09403 0.76079 0.0
O164 O 0.62121 0.0555 0.78487 0.0
C165 C 0.68181 0.18575 0.73429 0.0
O166 O 0.66252 0.17274 0.70705 0.0
C167 C 0.62863 0.12929 0.87072 0.0
Zn168 Zn 0.89389 0.3935 0.6148 0.0
Zn169 Zn 0.84723 0.34653 0.64119 0.0
O170 O 0.8302 0.39252 0.66556 0.0
O171 O 0.86878 0.43057 0.64442 0.0
O172 O 0.81184 0.31035 0.65761 0.0
O173 O 0.8811 0.38269 0.56088 0.0
O174 O 0.8441 0.34347 0.58256 0.0
C175 C 0.84223 0.42344 0.66417 0.0
C176 C 0.92479 0.34091 0.66183 0.0
O177 O 0.8936 0.3299 0.6649 0.0
O178 O 0.93195 0.36694 0.64128 0.0
C179 C 0.80226 0.30612 0.69175 0.0
O180 O 0.81546 0.32569 0.71865 0.0
C181 C 0.85869 0.35921 0.555 0.0
Zn182 Zn 0.59375 0.8942 0.61541 0.0
Zn183 Zn 0.64061 0.84699 0.64115 0.0
O184 O 0.59464 0.82948 0.66511 0.0
O185 O 0.55673 0.86855 0.64454 0.0
O186 O 0.67708 0.81146 0.65668 0.0
O187 O 0.60442 0.88207 0.56129 0.0
O188 O 0.64334 0.84447 0.58255 0.0
C189 C 0.56373 0.84161 0.66374 0.0
C190 C 0.64623 0.92438 0.66296 0.0
O191 O 0.65718 0.8931 0.66558 0.0
O192 O 0.62026 0.93189 0.64245 0.0
C193 C 0.68212 0.80189 0.69071 0.0
O194 O 0.66316 0.81509 0.7181 0.0
C195 C 0.62766 0.85943 0.55517 0.0
Zn196 Zn 0.09435 0.59338 0.61443 0.0
Zn197 Zn 0.1409 0.64028 0.64102 0.0
O198 O 0.15851 0.5944 0.66509 0.0
O199 O 0.11977 0.55646 0.644 0.0
O200 O 0.17601 0.67693 0.65705 0.0
O201 O 0.10718 0.604 0.56053 0.0
O202 O 0.14421 0.64308 0.58245 0.0
C203 C 0.14649 0.56348 0.66354 0.0
C204 C 0.06313 0.64525 0.66175 0.0
O205 O 0.09432 0.65629 0.66497 0.0
O206 O 0.05601 0.61951 0.64079 0.0
C207 C 0.18571 0.68162 0.69109 0.0
O208 O 0.1728 0.66225 0.71831 0.0
C209 C 0.12979 0.62732 0.55481 0.0
Zn210 Zn 0.39339 0.09296 0.61464 0.0
Zn211 Zn 0.34691 0.14027 0.64099 0.0
O212 O 0.39307 0.15712 0.66509 0.0
O213 O 0.43063 0.11792 0.64411 0.0
O214 O 0.31075 0.17595 0.65698 0.0
O215 O 0.38279 0.1058 0.56071 0.0
O216 O 0.34411 0.14341 0.5824 0.0
C217 C 0.42387 0.14472 0.66361 0.0
C218 C 0.34079 0.06268 0.66184 0.0
O219 O 0.33009 0.09401 0.6649 0.0
O220 O 0.36662 0.05519 0.64116 0.0
C221 C 0.30614 0.18559 0.69104 0.0
O222 O 0.32532 0.17232 0.71825 0.0
C223 C 0.35969 0.12865 0.55486 0.0
C224 C 0.25622 0.2298 0.21608 0.0
C225 C 0.27749 0.20779 0.22414 0.0
C226 C 0.23083 0.25519 0.20674 0.0
C227 C 0.20877 0.27656 0.19917 0.0
C228 C 0.75828 0.25517 0.21679 0.0
C229 C 0.78017 0.27659 0.22463 0.0
C230 C 0.73286 0.22984 0.20759 0.0
C231 C 0.71138 0.20794 0.19999 0.0
C232 C 0.75769 0.73295 0.20767 0.0
C233 C 0.77956 0.71142 0.20004 0.0
C234 C 0.73235 0.75839 0.21692 0.0
C235 C 0.71093 0.78028 0.22483 0.0
C236 C 0.2553 0.75661 0.20668 0.0
C237 C 0.27667 0.77863 0.19911 0.0
C238 C 0.22991 0.73127 0.21599 0.0
C239 C 0.2079 0.71002 0.22402 0.0
C240 C 0.73045 0.75485 0.70663 0.0
C241 C 0.70844 0.77631 0.69916 0.0
C242 C 0.75583 0.72943 0.71582 0.0
C243 C 0.77715 0.70744 0.72379 0.0
C244 C 0.23268 0.72985 0.70731 0.0
C245 C 0.21125 0.70788 0.69972 0.0
C246 C 0.25806 0.7552 0.71657 0.0
C247 C 0.27996 0.77658 0.72451 0.0
C248 C 0.2327 0.25812 0.71676 0.0
C249 C 0.21124 0.27995 0.72472 0.0
C250 C 0.25808 0.23275 0.70743 0.0
C251 C 0.27997 0.21124 0.69976 0.0
C252 C 0.72982 0.23288 0.71797 0.0
C253 C 0.70797 0.21139 0.72566 0.0
C254 C 0.75518 0.25824 0.7087 0.0
C255 C 0.77666 0.28007 0.70087 0.0
C256 C 0.13965 0.34695 0.9425 0.0
C257 C 0.13646 0.3507 0.90874 0.0
C258 C 0.1393 0.34674 -0.01747 0.0
C259 C 0.1358 0.35038 0.01626 0.0
C260 C 0.64161 0.14134 0.94275 0.0
C261 C 0.63769 0.13781 0.90907 0.0
C262 C 0.64204 0.14091 -0.01725 0.0
C263 C 0.6385 0.13701 0.01643 0.0
C264 C 0.84643 0.64225 0.94289 0.0
C265 C 0.84971 0.63831 0.90918 0.0
C266 C 0.84702 0.64245 -0.01709 0.0
C267 C 0.85088 0.63865 0.01658 0.0
C268 C 0.34643 0.8485 -0.01743 0.0
C269 C 0.35007 0.85199 0.01631 0.0
C270 C 0.3467 0.84808 0.94253 0.0
C271 C 0.35053 0.85117 0.90877 0.0
C272 C 0.14216 0.63996 0.48276 0.0
C273 C 0.13841 0.63615 0.51643 0.0
C274 C 0.14198 0.64049 0.44275 0.0
C275 C 0.13811 0.63723 0.40903 0.0
C276 C 0.34706 0.14075 0.48272 0.0
C277 C 0.35089 0.13715 0.51641 0.0
C278 C 0.34662 0.14057 0.44271 0.0
C279 C 0.35004 0.13688 0.40899 0.0
C280 C 0.84773 0.34584 0.44275 0.0
C281 C 0.85126 0.34951 0.40902 0.0
C282 C 0.84737 0.34618 0.48279 0.0
C283 C 0.8506 0.35011 0.51652 0.0
C284 C 0.64028 0.84781 0.48294 0.0
C285 C 0.6364 0.85127 0.51664 0.0
C286 C 0.64076 0.84786 0.44293 0.0
C287 C 0.63733 0.85127 0.40916 0.0
C288 C 0.16783 0.50918 0.22363 0.0
C289 C 0.16055 0.53547 0.24055 0.0
C290 C 0.16807 0.4775 0.20334 0.0
C291 C 0.16107 0.45133 0.18609 0.0
C292 C 0.50956 0.16641 0.20193 0.0
C293 C 0.53583 0.1595 0.18482 0.0
C294 C 0.47799 0.16637 0.2224 0.0
C295 C 0.45184 0.15938 0.23969 0.0
C296 C 0.81976 0.50915 0.20141 0.0
C297 C 0.82695 0.53546 0.18446 0.0
C298 C 0.81961 0.47754 0.22189 0.0
C299 C 0.82661 0.4514 0.23928 0.0
C300 C 0.50969 0.8192 0.22291 0.0
C301 C 0.53592 0.82647 0.23997 0.0
C302 C 0.47799 0.8191 0.20259 0.0
C303 C 0.45173 0.82623 0.18549 0.0
C304 C 0.82096 0.50903 0.72394 0.0
C305 C 0.82769 0.5357 0.74042 0.0
C306 C 0.82108 0.47693 0.7044 0.0
C307 C 0.82794 0.45054 0.68746 0.0
C308 C 0.50982 0.8199 0.70288 0.0
C309 C 0.53643 0.82691 0.68642 0.0
C310 C 0.4776 0.81987 0.72217 0.0
C311 C 0.45103 0.82682 0.73874 0.0
C312 C 0.16784 0.47732 0.72212 0.0
C313 C 0.16078 0.45077 0.73867 0.0
C314 C 0.16795 0.50955 0.70285 0.0
C315 C 0.16105 0.53618 0.68636 0.0
C316 C 0.47796 0.16582 0.70291 0.0
C317 C 0.45132 0.15903 0.68638 0.0
C318 C 0.51019 0.16588 0.72221 0.0
C319 C 0.53679 0.15917 0.73888 0.0
C320 C 0.66798 0.00923 0.72375 0.0
C321 C 0.66099 0.0356 0.74068 0.0
C322 C 0.66778 0.97751 0.70354 0.0
C323 C 0.66053 0.95131 0.68644 0.0
C324 C 0.97792 0.66589 0.72268 0.0
C325 C 0.95169 0.65904 0.73989 0.0
C326 C 0.00958 0.66587 0.70233 0.0
C327 C 0.03589 0.65896 0.68524 0.0
C328 C 0.31945 0.00927 0.70208 0.0
C329 C 0.32655 0.03562 0.68519 0.0
C330 C 0.31959 0.97747 0.72218 0.0
C331 C 0.32685 0.9512 0.73917 0.0
C332 C 0.01018 0.31965 0.722 0.0
C333 C 0.03642 0.32684 0.73906 0.0
C334 C 0.97841 0.31961 0.70185 0.0
C335 C 0.95203 0.32675 0.68501 0.0
C336 C 0.32109 0.00923 0.22324 0.0
C337 C 0.32784 0.03594 0.23962 0.0
C338 C 0.32118 0.97698 0.20404 0.0
C339 C 0.328 0.95043 0.18738 0.0
C340 C 0.97779 0.32178 0.22241 0.0
C341 C 0.95118 0.32855 0.23896 0.0
C342 C 0.01001 0.32169 0.20315 0.0
C343 C 0.03664 0.32837 0.1866 0.0
C344 C 0.66654 0.97814 0.22338 0.0
C345 C 0.6595 0.95149 0.23974 0.0
C346 C 0.66683 0.01034 0.20407 0.0
C347 C 0.66021 0.03687 0.18724 0.0
C348 C 0.00931 0.66641 0.22366 0.0
C349 C 0.03606 0.65961 0.24002 0.0
C350 C 0.97707 0.66637 0.20438 0.0
C351 C 0.95056 0.65959 0.18758 0.0
loop_
_geom_bond_atom_site_label_1
_geom_bond_atom_site_label_2
_geom_bond_distance
_geom_bond_site_symmetry_2
_ccdc_geom_bond_type
Zn0 O3 2.031 . S
Zn0 O5 2.049 . S
Zn0 O10 2.067 . S
Zn1 O2 1.962 . S
Zn1 O4 1.986 . S
Zn1 O6 1.996 . S
Zn1 O9 1.943 . S
O2 Zn1 1.962 . S
O2 C7 1.254 . S
O3 Zn0 2.031 . S
O3 C7 1.269 . S
O4 Zn1 1.986 . S
O4 C11 1.262 . S
O5 Zn0 2.049 . S
O5 C13 1.260 . S
O6 Zn1 1.996 . S
O6 C13 1.257 . S
C7 O2 1.254 . S
C7 O3 1.269 . S
C8 O9 1.249 . S
C8 O10 1.270 . S
O9 Zn1 1.943 . S
O9 C8 1.249 . S
O10 Zn0 2.067 . S
O10 C8 1.270 . S
C11 O4 1.262 . S
C11 O12 1.232 . S
O12 C11 1.232 . S
C13 O5 1.260 . S
C13 O6 1.257 . S
Zn14 O17 2.031 . S
Zn14 O19 2.049 . S
Zn14 O24 2.067 . S
Zn15 O16 1.962 . S
Zn15 O18 1.986 . S
Zn15 O20 1.996 . S
Zn15 O23 1.943 . S
O16 Zn15 1.962 . S
O16 C21 1.254 . S
O17 Zn14 2.031 . S
O17 C21 1.269 . S
O18 Zn15 1.986 . S
O18 C25 1.262 . S
O19 Zn14 2.049 . S
O19 C27 1.260 . S
O20 Zn15 1.996 . S
O20 C27 1.257 . S
C21 O16 1.254 . S
C21 O17 1.269 . S
C22 O23 1.249 . S
C22 O24 1.270 . S
O23 Zn15 1.943 . S
O23 C22 1.249 . S
O24 Zn14 2.067 . S
O24 C22 1.270 . S
C25 O18 1.262 . S
C25 O26 1.232 . S
O26 C25 1.232 . S
C27 O19 1.260 . S
C27 O20 1.257 . S
Zn28 O31 2.031 . S
Zn28 O33 2.049 . S
Zn28 O38 2.067 . S
Zn29 O30 1.962 . S
Zn29 O32 1.986 . S
Zn29 O34 1.996 . S
Zn29 O37 1.943 . S
O30 Zn29 1.962 . S
O30 C35 1.254 . S
O31 Zn28 2.031 . S
O31 C35 1.269 . S
O32 Zn29 1.986 . S
O32 C39 1.262 . S
O33 Zn28 2.049 . S
O33 C41 1.260 . S
O34 Zn29 1.996 . S
O34 C41 1.257 . S
C35 O30 1.254 . S
C35 O31 1.269 . S
C36 O37 1.249 . S
C36 O38 1.270 . S
O37 Zn29 1.943 . S
O37 C36 1.249 . S
O38 Zn28 2.067 . S
O38 C36 1.270 . S
C39 O32 1.262 . S
C39 O40 1.232 . S
O40 C39 1.232 . S
C41 O33 1.260 . S
C41 O34 1.257 . S
Zn42 O45 2.031 . S
Zn42 O47 2.049 . S
Zn42 O52 2.067 . S
Zn43 O44 1.962 . S
Zn43 O46 1.986 . S
Zn43 O48 1.996 . S
Zn43 O51 1.943 . S
O44 Zn43 1.962 . S
O44 C49 1.254 . S
O45 Zn42 2.031 . S
O45 C49 1.269 . S
O46 Zn43 1.986 . S
O46 C53 1.262 . S
O47 Zn42 2.049 . S
O47 C55 1.260 . S
O48 Zn43 1.996 . S
O48 C55 1.257 . S
C49 O44 1.254 . S
C49 O45 1.269 . S
C50 O51 1.249 . S
C50 O52 1.270 . S
O51 Zn43 1.943 . S
O51 C50 1.249 . S
O52 Zn42 2.067 . S
O52 C50 1.270 . S
C53 O46 1.262 . S
C53 O54 1.232 . S
O54 C53 1.232 . S
C55 O47 1.260 . S
C55 O48 1.257 . S
Zn56 O59 2.031 . S
Zn56 O61 2.049 . S
Zn56 O66 2.067 . S
Zn57 O58 1.962 . S
Zn57 O60 1.986 . S
Zn57 O62 1.996 . S
Zn57 O65 1.943 . S
O58 Zn57 1.962 . S
O58 C63 1.254 . S
O59 Zn56 2.031 . S
O59 C63 1.269 . S
O60 Zn57 1.986 . S
O60 C67 1.262 . S
O61 Zn56 2.049 . S
O61 C69 1.260 . S
O62 Zn57 1.996 . S
O62 C69 1.257 . S
C63 O58 1.254 . S
C63 O59 1.269 . S
C64 O65 1.249 . S
C64 O66 1.270 . S
O65 Zn57 1.943 . S
O65 C64 1.249 . S
O66 Zn56 2.067 . S
O66 C64 1.270 . S
C67 O60 1.262 . S
C67 O68 1.232 . S
O68 C67 1.232 . S
C69 O61 1.260 . S
C69 O62 1.257 . S
Zn70 O73 2.031 . S
Zn70 O75 2.049 . S
Zn70 O80 2.067 . S
Zn71 O72 1.962 . S
Zn71 O74 1.986 . S
Zn71 O76 1.996 . S
Zn71 O79 1.943 . S
O72 Zn71 1.962 . S
O72 C77 1.254 . S
O73 Zn70 2.031 . S
O73 C77 1.269 . S
O74 Zn71 1.986 . S
O74 C81 1.262 . S
O75 Zn70 2.049 . S
O75 C83 1.260 . S
O76 Zn71 1.996 . S
O76 C83 1.257 . S
C77 O72 1.254 . S
C77 O73 1.269 . S
C78 O79 1.249 . S
C78 O80 1.270 . S
O79 Zn71 1.943 . S
O79 C78 1.249 . S
O80 Zn70 2.067 . S
O80 C78 1.270 . S
C81 O74 1.262 . S
C81 O82 1.232 . S
O82 C81 1.232 . S
C83 O75 1.260 . S
C83 O76 1.257 . S
Zn84 O87 2.031 . S
Zn84 O89 2.049 . S
Zn84 O94 2.067 . S
Zn85 O86 1.962 . S
Zn85 O88 1.986 . S
Zn85 O90 1.996 . S
Zn85 O93 1.943 . S
O86 Zn85 1.962 . S
O86 C91 1.254 . S
O87 Zn84 2.031 . S
O87 C91 1.269 . S
O88 Zn85 1.986 . S
O88 C95 1.262 . S
O89 Zn84 2.049 . S
O89 C97 1.260 . S
O90 Zn85 1.996 . S
O90 C97 1.257 . S
C91 O86 1.254 . S
C91 O87 1.269 . S
C92 O93 1.249 . S
C92 O94 1.270 . S
O93 Zn85 1.943 . S
O93 C92 1.249 . S
O94 Zn84 2.067 . S
O94 C92 1.270 . S
C95 O88 1.262 . S
C95 O96 1.232 . S
O96 C95 1.232 . S
C97 O89 1.260 . S
C97 O90 1.257 . S
Zn98 O101 2.031 . S
Zn98 O103 2.049 . S
Zn98 O108 2.067 . S
Zn99 O100 1.962 . S
Zn99 O102 1.986 . S
Zn99 O104 1.996 . S
Zn99 O107 1.943 . S
O100 Zn99 1.962 . S
O100 C105 1.254 . S
O101 Zn98 2.031 . S
O101 C105 1.269 . S
O102 Zn99 1.986 . S
O102 C109 1.262 . S
O103 Zn98 2.049 . S
O103 C111 1.260 . S
O104 Zn99 1.996 . S
O104 C111 1.257 . S
C105 O100 1.254 . S
C105 O101 1.269 . S
C106 O107 1.249 . S
C106 O108 1.270 . S
O107 Zn99 1.943 . S
O107 C106 1.249 . S
O108 Zn98 2.067 . S
O108 C106 1.270 . S
C109 O102 1.262 . S
C109 O110 1.232 . S
O110 C109 1.232 . S
C111 O103 1.260 . S
C111 O104 1.257 . S
Zn112 O115 2.031 . S
Zn112 O117 2.049 . S
Zn112 O122 2.067 . S
Zn113 O114 1.962 . S
Zn113 O116 1.986 . S
Zn113 O118 1.996 . S
Zn113 O121 1.943 . S
O114 Zn113 1.962 . S
O114 C119 1.254 . S
O115 Zn112 2.031 . S
O115 C119 1.269 . S
O116 Zn113 1.986 . S
O116 C123 1.262 . S
O117 Zn112 2.049 . S
O117 C125 1.260 . S
O118 Zn113 1.996 . S
O118 C125 1.257 . S
C119 O114 1.254 . S
C119 O115 1.269 . S
C120 O121 1.249 . S
C120 O122 1.270 . S
O121 Zn113 1.943 . S
O121 C120 1.249 . S
O122 Zn112 2.067 . S
O122 C120 1.270 . S
C123 O116 1.262 . S
C123 O124 1.232 . S
O124 C123 1.232 . S
C125 O117 1.260 . S
C125 O118 1.257 . S
Zn126 O129 2.031 . S
Zn126 O131 2.049 . S
Zn126 O136 2.067 . S
Zn127 O128 1.962 . S
Zn127 O130 1.986 . S
Zn127 O132 1.996 . S
Zn127 O135 1.943 . S
O128 Zn127 1.962 . S
O128 C133 1.254 . S
O129 Zn126 2.031 . S
O129 C133 1.269 . S
O130 Zn127 1.986 . S
O130 C137 1.262 . S
O131 Zn126 2.049 . S
O131 C139 1.260 . S
O132 Zn127 1.996 . S
O132 C139 1.257 . S
C133 O128 1.254 . S
C133 O129 1.269 . S
C134 O135 1.249 . S
C134 O136 1.270 . S
O135 Zn127 1.943 . S
O135 C134 1.249 . S
O136 Zn126 2.067 . S
O136 C134 1.270 . S
C137 O130 1.262 . S
C137 O138 1.232 . S
O138 C137 1.232 . S
C139 O131 1.260 . S
C139 O132 1.257 . S
Zn140 O143 2.031 . S
Zn140 O145 2.049 . S
Zn140 O150 2.067 . S
Zn141 O142 1.962 . S
Zn141 O144 1.986 . S
Zn141 O146 1.996 . S
Zn141 O149 1.943 . S
O142 Zn141 1.962 . S
O142 C147 1.254 . S
O143 Zn140 2.031 . S
O143 C147 1.269 . S
O144 Zn141 1.986 . S
O144 C151 1.262 . S
O145 Zn140 2.049 . S
O145 C153 1.260 . S
O146 Zn141 1.996 . S
O146 C153 1.257 . S
C147 O142 1.254 . S
C147 O143 1.269 . S
C148 O149 1.249 . S
C148 O150 1.270 . S
O149 Zn141 1.943 . S
O149 C148 1.249 . S
O150 Zn140 2.067 . S
O150 C148 1.270 . S
C151 O144 1.262 . S
C151 O152 1.232 . S
O152 C151 1.232 . S
C153 O145 1.260 . S
C153 O146 1.257 . S
Zn154 O157 2.031 . S
Zn154 O159 2.049 . S
Zn154 O164 2.067 . S
Zn155 O156 1.962 . S
Zn155 O158 1.986 . S
Zn155 O160 1.996 . S
Zn155 O163 1.943 . S
O156 Zn155 1.962 . S
O156 C161 1.254 . S
O157 Zn154 2.031 . S
O157 C161 1.269 . S
O158 Zn155 1.986 . S
O158 C165 1.262 . S
O159 Zn154 2.049 . S
O159 C167 1.260 . S
O160 Zn155 1.996 . S
O160 C167 1.257 . S
C161 O156 1.254 . S
C161 O157 1.269 . S
C162 O163 1.249 . S
C162 O164 1.270 . S
O163 Zn155 1.943 . S
O163 C162 1.249 . S
O164 Zn154 2.067 . S
O164 C162 1.270 . S
C165 O158 1.262 . S
C165 O166 1.232 . S
O166 C165 1.232 . S
C167 O159 1.260 . S
C167 O160 1.257 . S
Zn168 O171 2.031 . S
Zn168 O173 2.049 . S
Zn168 O178 2.067 . S
Zn169 O170 1.962 . S
Zn169 O172 1.986 . S
Zn169 O174 1.996 . S
Zn169 O177 1.943 . S
O170 Zn169 1.962 . S
O170 C175 1.254 . S
O171 Zn168 2.031 . S
O171 C175 1.269 . S
O172 Zn169 1.986 . S
O172 C179 1.262 . S
O173 Zn168 2.049 . S
O173 C181 1.260 . S
O174 Zn169 1.996 . S
O174 C181 1.257 . S
C175 O170 1.254 . S
C175 O171 1.269 . S
C176 O177 1.249 . S
C176 O178 1.270 . S
O177 Zn169 1.943 . S
O177 C176 1.249 . S
O178 Zn168 2.067 . S
O178 C176 1.270 . S
C179 O172 1.262 . S
C179 O180 1.232 . S
O180 C179 1.232 . S
C181 O173 1.260 . S
C181 O174 1.257 . S
Zn182 O185 2.031 . S
Zn182 O187 2.049 . S
Zn182 O192 2.067 . S
Zn183 O184 1.962 . S
Zn183 O186 1.986 . S
Zn183 O188 1.996 . S
Zn183 O191 1.943 . S
O184 Zn183 1.962 . S
O184 C189 1.254 . S
O185 Zn182 2.031 . S
O185 C189 1.269 . S
O186 Zn183 1.986 . S
O186 C193 1.262 . S
O187 Zn182 2.049 . S
O187 C195 1.260 . S
O188 Zn183 1.996 . S
O188 C195 1.257 . S
C189 O184 1.254 . S
C189 O185 1.269 . S
C190 O191 1.249 . S
C190 O192 1.270 . S
O191 Zn183 1.943 . S
O191 C190 1.249 . S
O192 Zn182 2.067 . S
O192 C190 1.270 . S
C193 O186 1.262 . S
C193 O194 1.232 . S
O194 C193 1.232 . S
C195 O187 1.260 . S
C195 O188 1.257 . S
Zn196 O199 2.031 . S
Zn196 O201 2.049 . S
Zn196 O206 2.067 . S
Zn197 O198 1.962 . S
Zn197 O200 1.986 . S
Zn197 O202 1.996 . S
Zn197 O205 1.943 . S
O198 Zn197 1.962 . S
O198 C203 1.254 . S
O199 Zn196 2.031 . S
O199 C203 1.269 . S
O200 Zn197 1.986 . S
O200 C207 1.262 . S
O201 Zn196 2.049 . S
O201 C209 1.260 . S
O202 Zn197 1.996 . S
O202 C209 1.257 . S
C203 O198 1.254 . S
C203 O199 1.269 . S
C204 O205 1.249 . S
C204 O206 1.270 . S
O205 Zn197 1.943 . S
O205 C204 1.249 . S
O206 Zn196 2.067 . S
O206 C204 1.270 . S
C207 O200 1.262 . S
C207 O208 1.232 . S
O208 C207 1.232 . S
C209 O201 1.260 . S
C209 O202 1.257 . S
Zn210 O213 2.031 . S
Zn210 O215 2.049 . S
Zn210 O220 2.067 . S
Zn211 O212 1.962 . S
Zn211 O214 1.986 . S
Zn211 O216 1.996 . S
Zn211 O219 1.943 . S
O212 Zn211 1.962 . S
O212 C217 1.254 . S
O213 Zn210 2.031 . S
O213 C217 1.269 . S
O214 Zn211 1.986 . S
O214 C221 1.262 . S
O215 Zn210 2.049 . S
O215 C223 1.260 . S
O216 Zn211 1.996 . S
O216 C223 1.257 . S
C217 O212 1.254 . S
C217 O213 1.269 . S
C218 O219 1.249 . S
C218 O220 1.270 . S
O219 Zn211 1.943 . S
O219 C218 1.249 . S
O220 Zn210 2.067 . S
O220 C218 1.270 . S
C221 O214 1.262 . S
C221 O222 1.232 . S
O222 C221 1.232 . S
C223 O215 1.260 . S
C223 O216 1.257 . S
C224 C225 1.170 . S
C224 C226 1.380 . S
C225 C224 1.170 . S
C226 C224 1.380 . S
C226 C227 1.170 . S
C227 C226 1.170 . S
C228 C229 1.170 . S
C228 C230 1.380 . S
C229 C228 1.170 . S
C230 C228 1.380 . S
C230 C231 1.170 . S
C231 C230 1.170 . S
C232 C233 1.170 . S
C232 C234 1.380 . S
C233 C232 1.170 . S
C234 C232 1.380 . S
C234 C235 1.170 . S
C235 C234 1.170 . S
C236 C237 1.170 . S
C236 C238 1.380 . S
C237 C236 1.170 . S
C238 C236 1.380 . S
C238 C239 1.170 . S
C239 C238 1.170 . S
C240 C241 1.170 . S
C240 C242 1.380 . S
C241 C240 1.170 . S
C242 C240 1.380 . S
C242 C243 1.170 . S
C243 C242 1.170 . S
C244 C245 1.170 . S
C244 C246 1.380 . S
C245 C244 1.170 . S
C246 C244 1.380 . S
C246 C247 1.170 . S
C247 C246 1.170 . S
C248 C249 1.170 . S
C248 C250 1.380 . S
C249 C248 1.170 . S
C250 C248 1.380 . S
C250 C251 1.170 . S
C251 C250 1.170 . S
C252 C253 1.170 . S
C252 C254 1.380 . S
C253 C252 1.170 . S
C254 C252 1.380 . S
C254 C255 1.170 . S
C255 C254 1.170 . S
C256 C257 1.170 . S
C256 C258 1.380 1_556 S
C257 C256 1.170 . S
C258 C256 1.380 1_554 S
C258 C259 1.170 . S
C259 C258 1.170 . S
C260 C261 1.170 . S
C260 C262 1.380 1_556 S
C261 C260 1.170 . S
C262 C260 1.380 1_554 S
C262 C263 1.170 . S
C263 C262 1.170 . S
C264 C265 1.170 . S
C264 C266 1.380 1_556 S
C265 C264 1.170 . S
C266 C264 1.380 1_554 S
C266 C267 1.170 . S
C267 C266 1.170 . S
C268 C269 1.170 . S
C268 C270 1.380 1_554 S
C269 C268 1.170 . S
C270 C268 1.380 1_556 S
C270 C271 1.170 . S
C271 C270 1.170 . S
C272 C273 1.170 . S
C272 C274 1.380 . S
C273 C272 1.170 . S
C274 C272 1.380 . S
C274 C275 1.170 . S
C275 C274 1.170 . S
C276 C277 1.170 . S
C276 C278 1.380 . S
C277 C276 1.170 . S
C278 C276 1.380 . S
C278 C279 1.170 . S
C279 C278 1.170 . S
C280 C281 1.170 . S
C280 C282 1.380 . S
C281 C280 1.170 . S
C282 C280 1.380 . S
C282 C283 1.170 . S
C283 C282 1.170 . S
C284 C285 1.170 . S
C284 C286 1.380 . S
C285 C284 1.170 . S
C286 C284 1.380 . S
C286 C287 1.170 . S
C287 C286 1.170 . S
C288 C289 1.170 . S
C288 C290 1.380 . S
C289 C288 1.170 . S
C290 C288 1.380 . S
C290 C291 1.170 . S
C291 C290 1.170 . S
C292 C293 1.170 . S
C292 C294 1.380 . S
C293 C292 1.170 . S
C294 C292 1.380 . S
C294 C295 1.170 . S
C295 C294 1.170 . S
C296 C297 1.170 . S
C296 C298 1.380 . S
C297 C296 1.170 . S
C298 C296 1.380 . S
C298 C299 1.170 . S
C299 C298 1.170 . S
C300 C301 1.170 . S
C300 C302 1.380 . S
C301 C300 1.170 . S
C302 C300 1.380 . S
C302 C303 1.170 . S
C303 C302 1.170 . S
C304 C305 1.170 . S
C304 C306 1.380 . S
C305 C304 1.170 . S
C306 C304 1.380 . S
C306 C307 1.170 . S
C307 C306 1.170 . S
C308 C309 1.170 . S
C308 C310 1.380 . S
C309 C308 1.170 . S
C310 C308 1.380 . S
C310 C311 1.170 . S
C311 C310 1.170 . S
C312 C313 1.170 . S
C312 C314 1.380 . S
C313 C312 1.170 . S
C314 C312 1.380 . S
C314 C315 1.170 . S
C315 C314 1.170 . S
C316 C317 1.170 . S
C316 C318 1.380 . S
C317 C316 1.170 . S
C318 C316 1.380 . S
C318 C319 1.170 . S
C319 C318 1.170 . S
C320 C321 1.170 . S
C320 C322 1.380 1_545 S
C321 C320 1.170 . S
C322 C320 1.380 1_565 S
C322 C323 1.170 . S
C323 C322 1.170 . S
C324 C325 1.170 . S
C324 C326 1.380 1_655 S
C325 C324 1.170 . S
C326 C324 1.380 1_455 S
C326 C327 1.170 . S
C327 C326 1.170 . S
C328 C329 1.170 . S
C328 C330 1.380 1_545 S
C329 C328 1.170 . S
C330 C328 1.380 1_565 S
C330 C331 1.170 . S
C331 C330 1.170 . S
C332 C333 1.170 . S
C332 C334 1.380 1_455 S
C333 C332 1.170 . S
C334 C332 1.380 1_655 S
C334 C335 1.170 . S
C335 C334 1.170 . S
C336 C337 1.170 . S
C336 C338 1.380 1_545 S
C337 C336 1.170 . S
C338 C336 1.380 1_565 S
C338 C339 1.170 . S
C339 C338 1.170 . S
C340 C341 1.170 . S
C340 C342 1.380 1_655 S
C341 C340 1.170 . S
C342 C340 1.380 1_455 S
C342 C343 1.170 . S
C343 C342 1.170 . S
C344 C345 1.170 . S
C344 C346 1.380 1_565 S
C345 C344 1.170 . S
C346 C344 1.380 1_545 S
C346 C347 1.170 . S
C347 C346 1.170 . S
C348 C349 1.170 . S
C348 C350 1.380 1_455 S
C349 C348 1.170 . S
C350 C348 1.380 1_655 S
C350 C351 1.170 . S
C351 C350 1.170 . S
C225 C81 1.349 . S
C227 C11 1.359 . S
C229 C95 1.347 . S
C231 C25 1.353 . S
C233 C39 1.353 . S
C235 C109 1.347 . S
C237 C53 1.359 . S
C239 C67 1.349 . S
C241 C193 1.357 . S
C243 C123 1.347 . S
C245 C207 1.354 . S
C247 C137 1.347 . S
C249 C151 1.348 . S
C251 C221 1.352 . S
C253 C165 1.353 . S
C255 C179 1.347 . S
C257 C153 1.387 . S
C259 C13 1.364 . S
C261 C167 1.421 . S
C263 C27 1.409 . S
C265 C125 1.422 . S
C267 C41 1.404 . S
C269 C55 1.366 . S
C271 C139 1.394 . S
C273 C209 1.376 . S
C275 C69 1.410 . S
C277 C223 1.372 . S
C279 C83 1.369 . S
C281 C97 1.373 . S
C283 C181 1.408 . S
C285 C195 1.379 . S
C287 C111 1.365 . S
C289 C64 1.571 . S
C291 C8 1.590 . S
C293 C22 1.573 . S
C295 C78 1.573 . S
C297 C36 1.572 . S
C299 C92 1.590 . S
C301 C106 1.578 . S
C303 C50 1.586 . S
C305 C119 1.256 . S
C307 C175 1.270 . S
C309 C189 1.277 . S
C311 C133 1.282 . S
C313 C147 1.282 . S
C315 C203 1.276 . S
C317 C217 1.252 . S
C319 C161 1.258 . S
C321 C162 1.577 . S
C323 C190 1.587 . S
C325 C120 1.575 . S
C327 C204 1.571 . S
C329 C218 1.573 . S
C331 C134 1.589 . S
C333 C148 1.589 . S
C335 C176 1.574 . S
C337 C77 1.252 . S
C339 C49 1.262 . S
C341 C91 1.254 . S
C343 C7 1.253 . S
C345 C105 1.256 . S
C347 C21 1.270 . S
C349 C63 1.256 . S
C351 C35 1.270 . S
