# Generated by pormake.
# Topology noo, (5)-cn, num edge types: 1
# Building blocks:
#     Node 0, Type 0, BuildingBlock: BEQFEK_clean_sbu_0, # of connection points: 5
#     Node 1, Type 0, BuildingBlock: BEQFEK_clean_sbu_0, # of connection points: 5
#     Node 2, Type 0, BuildingBlock: BEQFEK_clean_sbu_0, # of connection points: 5
#     Node 3, Type 0, BuildingBlock: BEQFEK_clean_sbu_0, # of connection points: 5
#     Node 4, Type 0, BuildingBlock: BEQFEK_clean_sbu_0, # of connection points: 5
#     Node 5, Type 0, BuildingBlock: BEQFEK_clean_sbu_0, # of connection points: 5
#     Node 6, Type 0, BuildingBlock: BEQFEK_clean_sbu_0, # of connection points: 5
#     Node 7, Type 0, BuildingBlock: BEQFEK_clean_sbu_0, # of connection points: 5
#     Edge 8, Type (0, 0), BuildingBlock: CIFDUS_clean_linker_0, # of connection points: 2
#     Edge 9, Type (0, 0), BuildingBlock: CIFDUS_clean_linker_0, # of connection points: 2
#     Edge 10, Type (0, 0), BuildingBlock: CIFDUS_clean_linker_0, # of connection points: 2
#     Edge 11, Type (0, 0), BuildingBlock: CIFDUS_clean_linker_0, # of connection points: 2
#     Edge 12, Type (0, 0), BuildingBlock: CIFDUS_clean_linker_0, # of connection points: 2
#     Edge 13, Type (0, 0), BuildingBlock: CIFDUS_clean_linker_0, # of connection points: 2
#     Edge 14, Type (0, 0), BuildingBlock: CIFDUS_clean_linker_0, # of connection points: 2
#     Edge 15, Type (0, 0), BuildingBlock: CIFDUS_clean_linker_0, # of connection points: 2
#     Edge 16, Type (0, 0), BuildingBlock: CIFDUS_clean_linker_0, # of connection points: 2
#     Edge 17, Type (0, 0), BuildingBlock: CIFDUS_clean_linker_0, # of connection points: 2
#     Edge 18, Type (0, 0), BuildingBlock: CIFDUS_clean_linker_0, # of connection points: 2
#     Edge 19, Type (0, 0), BuildingBlock: CIFDUS_clean_linker_0, # of connection points: 2
#     Edge 20, Type (0, 0), BuildingBlock: CIFDUS_clean_linker_0, # of connection points: 2
#     Edge 21, Type (0, 0), BuildingBlock: CIFDUS_clean_linker_0, # of connection points: 2
#     Edge 22, Type (0, 0), BuildingBlock: CIFDUS_clean_linker_0, # of connection points: 2
#     Edge 23, Type (0, 0), BuildingBlock: CIFDUS_clean_linker_0, # of connection points: 2
#     Edge 24, Type (0, 0), BuildingBlock: CIFDUS_clean_linker_0, # of connection points: 2
#     Edge 25, Type (0, 0), BuildingBlock: CIFDUS_clean_linker_0, # of connection points: 2
#     Edge 26, Type (0, 0), BuildingBlock: CIFDUS_clean_linker_0, # of connection points: 2
#     Edge 27, Type (0, 0), BuildingBlock: CIFDUS_clean_linker_0, # of connection points: 2
# Relax obj value: 0.163
# Max RMSD: 0.157
# Mean RMSD: 0.157
data_MOF--net-noo--node1-BEQFEK_clean_sbu_0--edge1-CIFDUS_clean_linker_0
_symmetry_space_group_name_H-M    P1
_symmetry_Int_Tables_number       1
_symmetry_cell_setting            triclinic
loop_
_symmetry_equiv_pos_as_xyz
'x, y, z'
_cell_length_a     36.251109
_cell_length_b     36.061591
_cell_length_c     25.354648
_cell_angle_alpha  89.479922
_cell_angle_beta   90.458004
_cell_angle_gamma 89.922482
loop_
_atom_site_label
_atom_site_type_symbol
_atom_site_fract_x
_atom_site_fract_y
_atom_site_fract_z
_atom_type_partial_charge
Co0 Co 0.37649 0.28194 0.09224 0.0
Co1 Co 0.41042 0.2019 0.10464 0.0
C2 C 0.36371 0.22158 1.01099 0.0
O3 O 0.3588 0.25453 0.02804 0.0
O4 O 0.38329 0.1979 0.03658 0.0
C5 C 0.33073 0.34701 0.06624 0.0
O6 O 0.31504 0.32647 0.02992 0.0
C7 C 0.43473 0.12227 0.1093 0.0
C8 C 0.46925 0.12486 0.1815 0.0
C9 C 0.45737 0.10107 0.14243 0.0
N10 N 0.43338 0.157 0.12838 0.0
N11 N 0.45436 0.15825 0.17117 0.0
C12 C 0.41395 0.10972 0.06154 0.0
H13 H 0.38742 0.12495 0.05799 0.0
H14 H 0.40866 0.07943 0.06337 0.0
H15 H 0.4305 0.11597 0.02594 0.0
C16 C 0.34391 0.26086 0.19594 0.0
N17 N 0.36538 0.25389 0.15392 0.0
N18 N 0.37817 0.21976 0.15775 0.0
C19 C 0.36437 0.20367 0.20156 0.0
C20 C 0.34259 0.22922 0.2274 0.0
C21 C 0.32418 0.29669 0.20457 0.0
H22 H 0.30469 0.30182 0.17132 0.0
H23 H 0.30881 0.29635 0.24226 0.0
H24 H 0.34446 0.31972 0.20472 0.0
O25 O 0.43008 0.29136 0.08719 0.0
O26 O 0.45315 0.23488 0.09507 0.0
H27 H 0.39748 0.16245 0.24011 0.0
H28 H 0.34884 0.15396 0.2442 0.0
C29 C 0.37103 0.16424 0.21799 0.0
H30 H 0.37261 0.14627 0.18283 0.0
H31 H 0.45853 0.18212 0.1934 0.0
O32 O 0.3552 0.33278 0.09637 0.0
C33 C 0.45758 0.26952 0.0888 0.0
Co34 Co 0.72578 0.37664 0.06714 0.0
Co35 Co 0.80605 0.40585 0.07582 0.0
C36 C 0.78507 0.36449 0.98212 0.0
O37 O 0.75264 0.36018 1.001 0.0
O38 O 0.8099 0.38251 1.00693 0.0
C39 C 0.67188 0.31793 0.06667 0.0
O40 O 0.70055 0.2958 0.0629 0.0
C41 C 0.87773 0.44515 0.07869 0.0
C42 C 0.88257 0.45396 0.16465 0.0
C43 C 0.89892 0.46282 0.11706 0.0
N44 N 0.85043 0.42659 0.10307 0.0
N45 N 0.85351 0.43224 0.15432 0.0
C46 C 0.87964 0.45035 1.02018 0.0
H47 H 0.85243 0.44461 1.00165 0.0
H48 H 0.9001 0.43063 1.00409 0.0
H49 H 0.8885 0.47898 1.01007 0.0
C50 C 0.74758 0.34299 0.17258 0.0
N51 N 0.75373 0.36311 0.12829 0.0
N52 N 0.78906 0.37005 0.12501 0.0
C53 C 0.80722 0.3512 0.16303 0.0
C54 C 0.7816 0.3347 0.19695 0.0
C55 C 0.70974 0.33411 0.19204 0.0
H56 H 0.68887 0.35193 0.172 0.0
H57 H 0.70333 0.30466 0.18366 0.0
H58 H 0.70813 0.33853 0.23521 0.0
O59 O 0.71631 0.43062 0.06461 0.0
O60 O 0.77384 0.45027 0.06988 0.0
H61 H 0.86407 0.36314 0.18261 0.0
H62 H 0.85391 0.31467 0.17477 0.0
C63 C 0.84778 0.34298 0.15948 0.0
H64 H 0.85687 0.34524 0.11785 0.0
H65 H 0.83433 0.42334 0.18213 0.0
O66 O 0.6769 0.35271 0.06893 0.0
C67 C 0.73952 0.45696 0.06586 0.0
Co68 Co 0.63937 0.7291 0.04707 0.0
Co69 Co 0.59449 0.8026 0.06108 0.0
C70 C 0.63997 0.79149 0.96552 0.0
O71 O 0.65191 0.75994 0.98192 0.0
O72 O 0.61714 0.81036 0.9923 0.0
C73 C 0.702 0.67551 0.04588 0.0
O74 O 0.7251 0.70335 0.04098 0.0
C75 C 0.56401 0.87967 0.067 0.0
C76 C 0.52501 0.87136 0.1326 0.0
C77 C 0.53744 0.89775 0.09693 0.0
N78 N 0.56667 0.84432 0.08434 0.0
N79 N 0.54325 0.83969 0.12345 0.0
C80 C 0.58788 0.89581 0.0248 0.0
H81 H 0.61421 0.88022 1.02242 0.0
H82 H 0.59377 0.92545 0.03261 0.0
H83 H 0.57338 0.89366 0.98624 0.0
C84 C 0.66738 0.75251 0.15465 0.0
N85 N 0.647 0.75716 0.11016 0.0
N86 N 0.63131 0.78997 0.11133 0.0
C87 C 0.64342 0.80854 0.15365 0.0
C88 C 0.66596 0.78516 0.18427 0.0
C89 C 0.68513 0.71648 0.16998 0.0
H90 H 0.67108 0.69313 0.15005 0.0
H91 H 0.71447 0.71685 0.15785 0.0
H92 H 0.68383 0.71196 0.21326 0.0
O93 O 0.58763 0.71173 0.04258 0.0
O94 O 0.55659 0.7635 0.05575 0.0
H95 H 0.61064 0.85392 0.18093 0.0
H96 H 0.65989 0.86249 0.18229 0.0
C97 C 0.637 0.84934 0.16001 0.0
H98 H 0.63485 0.86295 0.12071 0.0
H99 H 0.5396 0.81469 0.14379 0.0
O100 O 0.66761 0.68189 0.04881 0.0
C101 C 0.55723 0.72881 0.04781 0.0
Co102 Co 0.27403 0.63664 0.05966 0.0
Co103 Co 0.19273 0.60873 0.06894 0.0
C104 C 0.21476 0.652 0.97535 0.0
O105 O 0.2478 0.6543 0.99317 0.0
O106 O 0.18974 0.63509 1.00107 0.0
C107 C 0.3524 0.64669 0.04695 0.0
O108 O 0.35123 0.61296 0.02787 0.0
C109 C 0.11562 0.58252 0.06204 0.0
C110 C 0.10906 0.55861 0.14204 0.0
C111 C 0.09103 0.56378 0.09427 0.0
N112 N 0.14672 0.58853 0.08995 0.0
N113 N 0.1427 0.57377 0.13745 0.0
C114 C 0.11003 0.59441 1.00589 0.0
H115 H 0.13009 0.57967 0.9807 0.0
H116 H 0.11568 0.62455 1.00215 0.0
H117 H 0.08154 0.5887 0.99191 0.0
C118 C 0.25441 0.67206 0.16173 0.0
N119 N 0.24634 0.65059 0.11986 0.0
N120 N 0.21131 0.64118 0.12165 0.0
C121 C 0.19559 0.65791 0.16325 0.0
C122 C 0.22244 0.67756 0.19044 0.0
C123 C 0.29162 0.68831 0.17245 0.0
H124 H 0.29792 0.70917 0.14139 0.0
H125 H 0.2928 0.70183 0.21157 0.0
H126 H 0.31288 0.66619 0.17049 0.0
O127 O 0.28212 0.58168 0.05854 0.0
O128 O 0.22361 0.56428 0.06035 0.0
H129 H 0.14578 0.68217 0.19411 0.0
H130 H 0.13871 0.65056 0.14045 0.0
C131 C 0.15541 0.65597 0.17634 0.0
H132 H 0.15096 0.63348 0.20572 0.0
H133 H 0.16334 0.57326 0.16637 0.0
O134 O 0.32274 0.66181 0.06246 0.0
C135 C 0.25766 0.55639 0.05749 0.0
Co136 Co 0.87449 0.23293 0.63266 0.0
Co137 Co 0.9185 0.30571 0.6155 0.0
C138 C 0.87033 0.29877 0.70794 0.0
O139 O 0.86004 0.26629 0.69383 0.0
O140 O 0.8933 0.31753 0.68082 0.0
C141 C 0.81188 0.18057 0.6354 0.0
O142 O 0.78911 0.20887 0.63777 0.0
C143 C 0.94969 0.38082 0.59636 0.0
C144 C 0.98885 0.36669 0.53298 0.0
C145 C 0.97549 0.39589 0.56216 0.0
N146 N 0.94783 0.34424 0.58732 0.0
N147 N 0.97157 0.336 0.54988 0.0
C148 C 0.92544 0.40088 0.63413 0.0
H149 H 0.89901 0.38583 0.6392 0.0
H150 H 0.91993 0.42963 0.62015 0.0
H151 H 0.93953 0.40213 0.67308 0.0
C152 C 0.85172 0.25167 0.5194 0.0
N153 N 0.86885 0.2582 0.56614 0.0
N154 N 0.88429 0.29106 0.56369 0.0
C155 C 0.87555 0.30755 0.51768 0.0
C156 C 0.85584 0.28281 0.48667 0.0
C157 C 0.83399 0.21564 0.50539 0.0
H158 H 0.84715 0.19252 0.52774 0.0
H159 H 0.80437 0.21676 0.51601 0.0
H160 H 0.83604 0.21045 0.46244 0.0
O161 O 0.92595 0.21535 0.64341 0.0
O162 O 0.95583 0.26771 0.63001 0.0
H163 H 0.91081 0.35083 0.48882 0.0
H164 H 0.86237 0.35902 0.47731 0.0
C165 C 0.88293 0.34767 0.50585 0.0
H166 H 0.88164 0.36397 0.54266 0.0
H167 H 0.9754 0.30936 0.53514 0.0
O168 O 0.84634 0.18625 0.63319 0.0
C169 C 0.95595 0.23334 0.64062 0.0
Co170 Co 0.78142 0.88273 0.60674 0.0
Co171 Co 0.70277 0.9167 0.60842 0.0
C172 C 0.72494 0.86651 0.69418 0.0
O173 O 0.75672 0.86213 0.67324 0.0
O174 O 0.70063 0.88745 0.67285 0.0
C175 C 0.83532 0.8237 0.59775 0.0
O176 O 0.80691 0.80123 0.60092 0.0
C177 C 0.62683 0.94632 0.61689 0.0
C178 C 0.62767 0.98569 0.54932 0.0
C179 C 0.6065 0.97381 0.59127 0.0
N180 N 0.65877 0.94234 0.59103 0.0
N181 N 0.65895 0.96577 0.55064 0.0
C182 C 0.6184 0.92729 0.66802 0.0
H183 H 0.64036 0.93389 0.69717 0.0
H184 H 0.61875 0.89682 0.6622 0.0
H185 H 0.59132 0.93592 0.68387 0.0
C186 C 0.75335 0.86009 0.49771 0.0
N187 N 0.75022 0.87553 0.54599 0.0
N188 N 0.71595 0.8863 0.55195 0.0
C189 C 0.69554 0.87569 0.51054 0.0
C190 C 0.71855 0.85995 0.47302 0.0
C191 C 0.78927 0.84801 0.47489 0.0
H192 H 0.81262 0.86167 0.49546 0.0
H193 H 0.79215 0.81754 0.47988 0.0
H194 H 0.79028 0.85484 0.43216 0.0
O195 O 0.79347 0.93616 0.61517 0.0
O196 O 0.73679 0.95819 0.61749 0.0
H197 H 0.64403 0.90327 0.49469 0.0
H198 H 0.64256 0.85358 0.4868 0.0
C199 C 0.65414 0.87643 0.51081 0.0
H200 H 0.64399 0.8736 0.55184 0.0
H201 H 0.68111 0.96902 0.525 0.0
O202 O 0.82998 0.85846 0.59845 0.0
C203 C 0.77132 0.96331 0.61912 0.0
Co204 Co 0.13198 0.77957 0.61387 0.0
Co205 Co 0.09404 0.7035 0.5943 0.0
C206 C 0.13261 0.71821 0.69607 0.0
O207 O 0.14226 0.75069 0.68109 0.0
O208 O 0.11361 0.69725 0.66627 0.0
C209 C 0.14689 0.85539 0.63557 0.0
O210 O 0.11357 0.85406 0.65549 0.0
C211 C 0.07096 0.62558 0.592 0.0
C212 C 0.03103 0.6273 0.52557 0.0
C213 C 0.04572 0.60424 0.56434 0.0
N214 N 0.0708 0.65982 0.57079 0.0
N215 N 0.04695 0.66065 0.53112 0.0
C216 C 0.09572 0.61372 0.63654 0.0
H217 H 0.12234 0.62877 0.63433 0.0
H218 H 0.10098 0.58341 0.63557 0.0
H219 H 0.08244 0.62067 0.67448 0.0
C220 C 0.17108 0.75727 0.51494 0.0
N221 N 0.14658 0.75135 0.55398 0.0
N222 N 0.1314 0.71858 0.54745 0.0
C223 C 0.14623 0.70226 0.50505 0.0
C224 C 0.17182 0.7262 0.48286 0.0
C225 C 0.19361 0.79174 0.50922 0.0
H226 H 0.17496 0.81614 0.50664 0.0
H227 H 0.21118 0.79511 0.5449 0.0
H228 H 0.21132 0.7908 0.47375 0.0
O229 O 0.07845 0.79394 0.60859 0.0
O230 O 0.05355 0.73901 0.59496 0.0
H231 H 0.10689 0.66718 0.46734 0.0
H232 H 0.15392 0.65457 0.45453 0.0
C233 C 0.13489 0.66501 0.48501 0.0
H234 H 0.13385 0.64485 0.51826 0.0
H235 H 0.04099 0.68428 0.50855 0.0
O236 O 0.16076 0.8262 0.61606 0.0
C237 C 0.05022 0.77368 0.60089 0.0
Co238 Co 0.23604 0.14185 0.65319 0.0
Co239 Co 0.30636 0.09356 0.63602 0.0
C240 C 0.29711 0.13713 0.73492 0.0
O241 O 0.26606 0.15014 0.71913 0.0
O242 O 0.31558 0.11475 0.7067 0.0
C243 C 0.16352 0.1633 0.67652 0.0
O244 O 0.16543 0.13256 0.70461 0.0
C245 C 0.38018 0.05914 0.63287 0.0
C246 C 0.37081 0.01765 0.57034 0.0
C247 C 0.39662 0.02992 0.6066 0.0
N248 N 0.34604 0.06378 0.61291 0.0
N249 N 0.3407 0.03901 0.57551 0.0
C250 C 0.39445 0.07939 0.68003 0.0
H251 H 0.37741 0.07181 0.7146 0.0
H252 H 0.39147 0.10971 0.67336 0.0
H253 H 0.42359 0.07243 0.68922 0.0
C254 C 0.26221 0.17576 0.55192 0.0
N255 N 0.2652 0.1512 0.59223 0.0
N256 N 0.29549 0.13156 0.58625 0.0
C257 C 0.31312 0.14348 0.54274 0.0
C258 C 0.29259 0.17177 0.51936 0.0
C259 C 0.23135 0.20304 0.54578 0.0
H260 H 0.2048 0.18785 0.54305 0.0
H261 H 0.23019 0.22071 0.58133 0.0
H262 H 0.23483 0.22079 0.51019 0.0
O263 O 0.21576 0.09048 0.65199 0.0
O264 O 0.26624 0.05757 0.63988 0.0
H265 H 0.34315 0.0992 0.50788 0.0
H266 H 0.36076 0.14441 0.4914 0.0
C267 C 0.34853 0.12735 0.52335 0.0
H268 H 0.36851 0.12478 0.55656 0.0
H269 H 0.31602 0.03604 0.5545 0.0
O270 O 0.19206 0.17455 0.65232 0.0
C271 C 0.23166 0.0594 0.64614 0.0
H272 H 0.51268 0.93772 0.17816 0.0
H273 H 0.52969 0.94447 1.01016 0.0
H274 H 0.50495 0.0076 1.00868 0.0
H275 H 0.4788 0.06148 0.05604 0.0
H276 H 0.46152 0.05287 0.22385 0.0
H277 H 0.48531 0.98963 0.22427 0.0
C278 C 0.51101 0.95293 0.14109 0.0
C279 C 0.52388 0.93659 0.09461 0.0
C280 C 0.49618 0.98881 0.14043 0.0
C281 C 0.52131 0.95672 0.04694 0.0
C282 C 0.50661 0.9927 0.04594 0.0
C283 C 0.47957 0.0454 0.09237 0.0
C284 C 0.46801 0.06158 0.13977 0.0
C285 C 0.49394 0.00907 0.0925 0.0
C286 C 0.47014 0.04089 0.18689 0.0
C287 C 0.48384 1.0048 0.1872 0.0
H288 H 0.95414 0.46407 0.04319 0.0
H289 H 0.91344 0.52093 0.18023 0.0
H290 H 0.96783 0.56014 0.18149 0.0
H291 H 0.0297 0.57392 0.14983 0.0
H292 H 0.0714 0.51845 1.01296 0.0
H293 H 0.01344 0.48382 1.00429 0.0
C294 C 0.95664 0.48572 0.07231 0.0
C295 C 0.92978 0.48937 0.11168 0.0
C296 C 0.98822 0.50838 0.07293 0.0
C297 C 0.93392 0.51715 0.14986 0.0
C298 C 0.96498 0.53972 0.15061 0.0
C299 C 0.02565 0.55482 0.11746 0.0
C300 C 0.05435 0.54868 0.082 0.0
C301 C 0.9927 0.5349 0.11328 0.0
C302 C 0.04923 0.52388 0.04023 0.0
C303 C 0.01631 0.50386 0.03565 0.0
H304 H 0.99113 0.4463 0.63804 0.0
H305 H 0.98598 0.43149 0.46954 0.0
H306 H 0.00791 0.49476 0.45548 0.0
H307 H 0.02907 0.55382 0.49098 0.0
H308 H 0.03447 0.56926 0.65931 0.0
H309 H 0.01222 0.50605 0.67377 0.0
C310 C 0.99427 0.45725 0.59836 0.0
C311 C 0.98654 0.43474 0.55484 0.0
C312 C 0.00743 0.49342 0.59061 0.0
C313 C 0.99171 0.44861 0.50354 0.0
C314 C 0.00425 0.48466 0.49549 0.0
C315 C 0.02547 0.54324 0.53081 0.0
C316 C 0.03412 0.5657 0.57397 0.0
C317 C 0.01237 0.50719 0.53871 0.0
C318 C 0.02917 0.55196 0.62544 0.0
C319 C 0.01599 0.51602 0.63372 0.0
H320 H 0.54309 0.93674 0.60973 0.0
H321 H 0.58977 0.04639 0.60029 0.0
H322 H 0.52855 0.07396 0.60977 0.0
H323 H 0.46137 0.06664 0.61129 0.0
H324 H 0.4141 0.95711 0.61541 0.0
H325 H 0.47583 0.92948 0.6174 0.0
C326 C 0.53976 0.96662 0.61116 0.0
C327 C 0.57055 0.98964 0.6049 0.0
C328 C 0.50442 0.98218 0.61502 0.0
C329 C 0.56618 0.02831 0.60526 0.0
C330 C 0.53128 0.04403 0.61052 0.0
C331 C 0.46472 0.03679 0.61418 0.0
C332 C 0.43357 0.01384 0.61409 0.0
C333 C 0.50014 0.02123 0.61414 0.0
C334 C 0.43797 0.97517 0.61577 0.0
C335 C 0.47314 0.95942 0.61688 0.0
H336 H 0.31804 0.52063 0.09853 0.0
H337 H 0.21976 0.50358 1.00496 0.0
H338 H 0.23376 0.43759 0.99859 0.0
H339 H 0.2731 0.38428 1.02106 0.0
H340 H 0.36936 0.4001 0.11948 0.0
H341 H 0.35685 0.46658 0.12292 0.0
C342 C 0.29995 0.50243 0.07643 0.0
C343 C 0.26805 0.51694 0.05203 0.0
C344 C 0.30759 0.46415 0.07421 0.0
C345 C 0.24448 0.49301 0.02417 0.0
C346 C 0.25243 0.45526 1.02053 0.0
C347 C 0.29134 0.40225 0.04329 0.0
C348 C 0.32212 0.38715 0.06985 0.0
C349 C 0.28373 0.44043 0.04573 0.0
C350 C 0.34534 0.41089 0.09877 0.0
C351 C 0.33831 0.449 0.10063 0.0
H352 H 0.52177 0.2305 0.08434 0.0
H353 H 0.47858 0.34223 0.08157 0.0
H354 H 0.54102 0.36681 0.07416 0.0
H355 H 0.60769 0.3567 0.06924 0.0
H356 H 0.65102 0.2451 0.07137 0.0
H357 H 0.5885 0.22038 0.0782 0.0
C358 C 0.52593 0.26025 0.0821 0.0
C359 C 0.49544 0.28446 0.08362 0.0
C360 C 0.5619 0.27423 0.07773 0.0
C361 C 0.50147 0.32292 0.08049 0.0
C362 C 0.53719 0.33703 0.07628 0.0
C363 C 0.60354 0.32694 0.07115 0.0
C364 C 0.63404 0.30279 0.06986 0.0
C365 C 0.56758 0.31294 0.07499 0.0
C366 C 0.62806 0.26432 0.07223 0.0
C367 C 0.59232 0.25016 0.0762 0.0
H368 H 0.66054 0.61293 0.05117 0.0
H369 H 0.77354 0.65054 0.04792 0.0
H370 H 0.79504 0.58629 0.05411 0.0
H371 H 0.78166 0.51953 0.06056 0.0
H372 H 0.66841 0.48244 0.06299 0.0
H373 H 0.6472 0.54657 0.05701 0.0
C374 C 0.68992 0.6072 0.0518 0.0
C375 C 0.71538 0.63664 0.0491 0.0
C376 C 0.70206 0.57027 0.05525 0.0
C377 C 0.75331 0.6285 0.04987 0.0
C378 C 0.76563 0.59175 0.05346 0.0
C379 C 0.75231 0.52541 0.05985 0.0
C380 C 0.7267 0.49604 0.06231 0.0
C381 C 0.74023 0.56242 0.05621 0.0
C382 C 0.68879 0.50434 0.06115 0.0
C383 C 0.6766 0.54106 0.05774 0.0
H384 H 0.42092 0.62107 1.02307 0.0
H385 H 0.36356 0.71807 0.07847 0.0
H386 H 0.42171 0.75188 0.08325 0.0
H387 H 0.48868 0.7541 0.07155 0.0
H388 H 0.54642 0.65687 1.01772 0.0
H389 H 0.48821 0.62303 1.01255 0.0
C390 C 0.42109 0.64961 0.03616 0.0
C391 C 0.38784 0.667 0.05019 0.0
C392 C 0.45469 0.6689 0.03911 0.0
C393 C 0.38868 0.70397 0.06732 0.0
C394 C 0.42195 0.72337 0.07007 0.0
C395 C 0.48861 0.72552 0.05857 0.0
C396 C 0.52195 0.70814 0.04489 0.0
C397 C 0.45509 0.70614 0.05598 0.0
C398 C 0.52123 0.67098 0.02854 0.0
C399 C 0.48793 0.65159 0.02552 0.0
H400 H 0.73057 0.02624 0.62677 0.0
H401 H 0.84318 0.98703 0.62235 0.0
H402 H 0.86536 0.05089 0.62768 0.0
H403 H 0.85274 0.11752 0.632 0.0
H404 H 0.74015 0.1567 0.6359 0.0
H405 H 0.71797 0.09276 0.63234 0.0
C406 C 0.76002 0.03151 0.62714 0.0
C407 C 0.78519 1.00176 0.62412 0.0
C408 C 0.77254 0.06821 0.62998 0.0
C409 C 0.8232 0.00931 0.62464 0.0
C410 C 0.83589 0.04583 0.62762 0.0
C411 C 0.8233 0.11218 0.63216 0.0
C412 C 0.79811 0.14195 0.63415 0.0
C413 C 0.81079 0.07545 0.63004 0.0
C414 C 0.76012 0.13438 0.63439 0.0
C415 C 0.74744 0.09783 0.63234 0.0
H416 H 0.98577 0.73647 0.59022 0.0
H417 H 0.02966 0.84694 0.60868 0.0
H418 H 0.9669 0.87221 0.60782 0.0
H419 H 0.89966 0.86257 0.6034 0.0
H420 H 0.85665 0.7516 0.5868 0.0
H421 H 0.91933 0.7269 0.58525 0.0
C422 C 0.98181 0.76615 0.59396 0.0
C423 C 0.01252 0.78977 0.59955 0.0
C424 C 0.94582 0.78037 0.59379 0.0
C425 C 0.0066 0.8281 0.60438 0.0
C426 C 0.97071 0.84255 0.60389 0.0
C427 C 0.90396 0.83298 0.59922 0.0
C428 C 0.87342 0.80895 0.59524 0.0
C429 C 0.94013 0.8189 0.59882 0.0
C430 C 0.87957 0.7707 0.59004 0.0
C431 C 0.91542 0.75655 0.58915 0.0
H432 H 0.25589 0.99083 0.6206 0.0
H433 H 0.15896 0.04963 0.67215 0.0
H434 H 0.1243 0.99148 0.67395 0.0
H435 H 0.12179 0.92396 0.6613 0.0
H436 H 0.21872 0.86597 0.60795 0.0
H437 H 0.25317 0.92403 0.60662 0.0
C438 C 0.22718 0.99105 0.63235 0.0
C439 C 0.21011 0.02457 0.64646 0.0
C440 C 0.20745 0.95767 0.63304 0.0
C441 C 0.17279 0.02425 0.6611 0.0
C442 C 0.15298 0.991 0.66221 0.0
C443 C 0.15048 0.92399 0.6495 0.0
C444 C 0.16769 0.89062 0.63498 0.0
C445 C 0.17008 0.95754 0.64839 0.0
C446 C 0.2048 0.89122 0.61939 0.0
C447 C 0.22454 0.92441 0.61861 0.0
H448 H 0.02409 0.26119 0.62219 0.0
H449 H 0.96838 0.16363 0.68102 0.0
H450 H 0.02793 0.13406 0.69929 0.0
H451 H 0.09563 0.13597 0.69822 0.0
H452 H 0.15102 0.23274 0.63635 0.0
H453 H 0.0915 0.26279 0.62001 0.0
C454 C 0.02487 0.23346 0.6391 0.0
C455 C 0.99178 0.2147 0.65041 0.0
C456 C 0.0591 0.21661 0.64918 0.0
C457 C 0.9934 0.17866 0.67186 0.0
C458 C 0.02744 0.1618 0.68246 0.0
C459 C 0.09471 0.16377 0.68156 0.0
C460 C 0.1277 0.18224 0.66888 0.0
C461 C 0.06043 0.18056 0.67137 0.0
C462 C 0.12603 0.218 0.6466 0.0
C463 C 0.09202 0.23515 0.63717 0.0
H464 H 0.36633 0.2494 0.32389 0.0
H465 H 0.27751 0.19407 0.24328 0.0
H466 H 0.25121 0.17464 0.32802 0.0
H467 H 0.25759 0.16782 0.42486 0.0
H468 H 0.34859 0.22021 0.5047 0.0
H469 H 0.36988 0.24688 0.42108 0.0
C470 C 0.34076 0.23384 0.32526 0.0
C471 C 0.32354 0.22333 0.27799 0.0
C472 C 0.32648 0.22205 0.374 0.0
C473 C 0.29082 0.20267 0.27957 0.0
C474 C 0.27599 0.19141 0.3279 0.0
C475 C 0.28159 0.18573 0.42378 0.0
C476 C 0.30161 0.19223 0.47041 0.0
C477 C 0.2941 0.20013 0.37534 0.0
C478 C 0.33289 0.21505 0.46898 0.0
C479 C 0.34509 0.23011 0.42125 0.0
H480 H 0.84061 0.34795 0.26047 0.0
H481 H 0.74081 0.28297 0.2561 0.0
H482 H 0.75348 0.26139 0.34618 0.0
H483 H 0.79358 0.26295 0.42801 0.0
H484 H 0.90156 0.31245 0.41456 0.0
H485 H 0.88633 0.33575 0.32736 0.0
C486 C 0.82232 0.32738 0.27676 0.0
C487 C 0.78971 0.31752 0.25005 0.0
C488 C 0.8315 0.31212 0.32595 0.0
C489 C 0.76559 0.29254 0.27548 0.0
C490 C 0.77316 0.27951 0.32699 0.0
C491 C 0.81401 0.27807 0.40548 0.0
C492 C 0.84785 0.28807 0.42936 0.0
C493 C 0.80608 0.28942 0.35296 0.0
C494 C 0.87438 0.3066 0.39879 0.0
C495 C 0.8659 0.31964 0.34854 0.0
H496 H 0.74694 0.80551 0.40664 0.0
H497 H 0.66713 0.89452 0.41151 0.0
H498 H 0.64006 0.87413 0.3297 0.0
H499 H 0.63722 0.8301 0.25882 0.0
H500 H 0.73002 0.75769 0.2328 0.0
H501 H 0.75316 0.77116 0.32154 0.0
C502 C 0.72419 0.82101 0.38948 0.0
C503 C 0.70753 0.85004 0.41791 0.0
C504 C 0.71076 0.81156 0.33878 0.0
C505 C 0.67861 0.87009 0.39358 0.0
C506 C 0.66343 0.85894 0.3459 0.0
C507 C 0.66353 0.81843 0.27054 0.0
C508 C 0.68166 0.79308 0.23791 0.0
C509 C 0.67897 0.82945 0.31857 0.0
C510 C 0.71453 0.7766 0.25694 0.0
C511 C 0.72826 0.78483 0.30757 0.0
H512 H 0.16255 0.76092 0.38866 0.0
H513 H 0.22636 0.67612 0.46784 0.0
H514 H 0.252 0.65634 0.38349 0.0
H515 H 0.24957 0.65793 0.28617 0.0
H516 H 0.18353 0.74082 0.20666 0.0
H517 H 0.16567 0.76701 0.29162 0.0
C518 C 0.18284 0.73881 0.38729 0.0
C519 C 0.19272 0.71991 0.43395 0.0
C520 C 0.19662 0.72702 0.33848 0.0
C521 C 0.21861 0.69101 0.43212 0.0
C522 C 0.23303 0.67959 0.38395 0.0
C523 C 0.23201 0.68227 0.28771 0.0
C524 C 0.21761 0.69742 0.24069 0.0
C525 C 0.22131 0.69659 0.33671 0.0
C526 C 0.19469 0.72874 0.24268 0.0
C527 C 0.18442 0.74359 0.29117 0.0
H528 H 0.7012 0.77415 0.90627 0.0
H529 H 0.60457 0.84447 0.90854 0.0
H530 H 0.62246 0.87297 0.82579 0.0
H531 H 0.66501 0.87915 0.75368 0.0
H532 H 0.76316 0.81151 0.74858 0.0
H533 H 0.74527 0.78097 0.83153 0.0
C534 C 0.68405 0.79555 0.8884 0.0
C535 C 0.65157 0.80708 0.91387 0.0
C536 C 0.69478 0.8125 0.84045 0.0
C537 C 0.62979 0.83509 0.89028 0.0
C538 C 0.63995 0.85148 0.84276 0.0
C539 C 0.68265 0.85766 0.77032 0.0
C540 C 0.71537 0.84764 0.74464 0.0
C541 C 0.67237 0.84058 0.81772 0.0
C542 C 0.73783 0.81987 0.76747 0.0
C543 C 0.72755 0.80235 0.81487 0.0
H544 H 0.19212 0.73742 0.75749 0.0
H545 H 0.09615 0.66671 0.75383 0.0
H546 H 0.11281 0.64078 0.83972 0.0
H547 H 0.15478 0.63702 0.91501 0.0
H548 H 0.25271 0.70483 0.91886 0.0
H549 H 0.23529 0.73282 0.8338 0.0
C550 C 0.1748 0.71653 0.77576 0.0
C551 C 0.1429 0.70409 0.74926 0.0
C552 C 0.18497 0.70102 0.82504 0.0
C553 C 0.12094 0.67667 0.77315 0.0
C554 C 0.1304 0.66181 0.82236 0.0
C555 C 0.17232 0.65805 0.89749 0.0
C556 C 0.20492 0.66891 0.9235 0.0
C557 C 0.16242 0.6736 0.84849 0.0
C558 C 0.22749 0.69587 0.89968 0.0
C559 C 0.21749 0.71197 0.85109 0.0
H560 H 0.27856 0.19703 0.79478 0.0
H561 H 0.34988 0.1011 0.79284 0.0
H562 H 0.37599 0.11828 0.87795 0.0
H563 H 0.37933 0.16067 0.95264 0.0
H564 H 0.30993 0.25802 0.95412 0.0
H565 H 0.28241 0.24011 0.8698 0.0
C566 C 0.29971 0.17982 0.81309 0.0
C567 C 0.31223 0.14782 0.78723 0.0
C568 C 0.31505 0.19012 0.86204 0.0
C569 C 0.33988 0.12602 0.81146 0.0
C570 C 0.3548 0.13576 0.86032 0.0
C571 C 0.35809 0.17797 0.93471 0.0
C572 C 0.34672 0.21062 0.95992 0.0
C573 C 0.34271 0.16779 0.8859 0.0
C574 C 0.31933 0.23278 0.93567 0.0
C575 C 0.30352 0.22253 0.88741 0.0
H576 H 0.81118 0.2777 0.76891 0.0
H577 H 0.90049 0.35674 0.76011 0.0
H578 H 0.88179 0.38363 0.84304 0.0
H579 H 0.84125 0.38471 0.91883 0.0
H580 H 0.7501 0.30828 0.92876 0.0
H581 H 0.7682 0.28067 0.84475 0.0
C582 C 0.82647 0.30081 0.78518 0.0
C583 C 0.85729 0.31498 0.75812 0.0
C584 C 0.81528 0.31672 0.83315 0.0
C585 C 0.8766 0.34519 0.7797 0.0
C586 C 0.86601 0.36066 0.82735 0.0
C587 C 0.82527 0.36198 0.90275 0.0
C588 C 0.79454 0.34842 0.93028 0.0
C589 C 0.83556 0.3466 0.85448 0.0
C590 C 0.77389 0.31929 0.90836 0.0
C591 C 0.7843 0.30342 0.86039 0.0
loop_
_geom_bond_atom_site_label_1
_geom_bond_atom_site_label_2
_geom_bond_distance
_geom_bond_site_symmetry_2
_ccdc_geom_bond_type
Co0 O3 1.970 1_554 S
Co0 N17 1.989 . S
Co0 O25 1.967 . S
Co0 O32 1.920 . S
Co1 O4 1.966 1_554 S
Co1 N10 2.022 . S
Co1 N18 1.993 . S
Co1 O26 1.941 . S
C2 O3 1.258 . S
C2 O4 1.263 . S
O3 Co0 1.970 1_556 S
O3 C2 1.258 . S
O4 Co1 1.966 1_556 S
O4 C2 1.263 . S
C5 O6 1.235 . S
C5 O32 1.289 . S
O6 C5 1.235 . S
C7 C9 1.400 . S
C7 N10 1.351 . S
C7 C12 1.501 1_554 S
C8 C9 1.387 . S
C8 N11 1.341 . S
C9 C7 1.400 . S
C9 C8 1.387 . S
N10 Co1 2.022 . S
N10 C7 1.351 . S
N10 N11 1.365 . S
N11 C8 1.341 . S
N11 N10 1.365 . S
N11 H31 0.862 . S
C12 C7 1.501 1_556 S
C12 H13 0.961 . S
C12 H14 0.961 . S
C12 H15 0.960 . S
H13 C12 0.961 . S
H14 C12 0.961 . S
H15 C12 0.960 . S
C16 N17 1.342 . S
C16 C20 1.401 . S
C16 C21 1.499 . S
N17 Co0 1.989 . S
N17 C16 1.342 . S
N17 N18 1.388 . S
N18 Co1 1.993 . S
N18 N17 1.388 . S
N18 C19 1.346 . S
C19 N18 1.346 . S
C19 C20 1.396 . S
C19 C29 1.510 . S
C20 C16 1.401 . S
C20 C19 1.396 . S
C21 C16 1.499 . S
C21 H22 0.959 . S
C21 H23 0.960 . S
C21 H24 0.961 . S
H22 C21 0.959 . S
H23 C21 0.960 . S
H24 C21 0.961 . S
O25 Co0 1.967 . S
O25 C33 1.258 . S
O26 Co1 1.941 . S
O26 C33 1.266 . S
H27 C29 0.959 . S
H28 C29 0.961 . S
C29 C19 1.510 . S
C29 H27 0.959 . S
C29 H28 0.961 . S
C29 H30 0.960 . S
H30 C29 0.960 . S
H31 N11 0.862 . S
O32 Co0 1.920 . S
O32 C5 1.289 . S
C33 O25 1.258 . S
C33 O26 1.266 . S
Co34 O37 1.970 1_554 S
Co34 N51 1.989 . S
Co34 O59 1.967 . S
Co34 O66 1.920 . S
Co35 O38 1.966 1_554 S
Co35 N44 2.022 . S
Co35 N52 1.993 . S
Co35 O60 1.941 . S
C36 O37 1.258 . S
C36 O38 1.263 . S
O37 Co34 1.970 1_556 S
O37 C36 1.258 . S
O38 Co35 1.966 1_556 S
O38 C36 1.263 . S
C39 O40 1.235 . S
C39 O66 1.289 . S
O40 C39 1.235 . S
C41 C43 1.400 . S
C41 N44 1.351 . S
C41 C46 1.501 1_554 S
C42 C43 1.387 . S
C42 N45 1.341 . S
C43 C41 1.400 . S
C43 C42 1.387 . S
N44 Co35 2.022 . S
N44 C41 1.351 . S
N44 N45 1.365 . S
N45 C42 1.341 . S
N45 N44 1.365 . S
N45 H65 0.862 . S
C46 C41 1.501 1_556 S
C46 H47 0.961 . S
C46 H48 0.961 . S
C46 H49 0.960 . S
H47 C46 0.961 . S
H48 C46 0.961 . S
H49 C46 0.960 . S
C50 N51 1.342 . S
C50 C54 1.401 . S
C50 C55 1.499 . S
N51 Co34 1.989 . S
N51 C50 1.342 . S
N51 N52 1.388 . S
N52 Co35 1.993 . S
N52 N51 1.388 . S
N52 C53 1.346 . S
C53 N52 1.346 . S
C53 C54 1.396 . S
C53 C63 1.510 . S
C54 C50 1.401 . S
C54 C53 1.396 . S
C55 C50 1.499 . S
C55 H56 0.959 . S
C55 H57 0.960 . S
C55 H58 0.961 . S
H56 C55 0.959 . S
H57 C55 0.960 . S
H58 C55 0.961 . S
O59 Co34 1.967 . S
O59 C67 1.258 . S
O60 Co35 1.941 . S
O60 C67 1.266 . S
H61 C63 0.959 . S
H62 C63 0.961 . S
C63 C53 1.510 . S
C63 H61 0.959 . S
C63 H62 0.961 . S
C63 H64 0.960 . S
H64 C63 0.960 . S
H65 N45 0.862 . S
O66 Co34 1.920 . S
O66 C39 1.289 . S
C67 O59 1.258 . S
C67 O60 1.266 . S
Co68 O71 1.970 1_554 S
Co68 N85 1.989 . S
Co68 O93 1.967 . S
Co68 O100 1.920 . S
Co69 O72 1.966 1_554 S
Co69 N78 2.022 . S
Co69 N86 1.993 . S
Co69 O94 1.941 . S
C70 O71 1.258 . S
C70 O72 1.263 . S
O71 Co68 1.970 1_556 S
O71 C70 1.258 . S
O72 Co69 1.966 1_556 S
O72 C70 1.263 . S
C73 O74 1.235 . S
C73 O100 1.289 . S
O74 C73 1.235 . S
C75 C77 1.400 . S
C75 N78 1.351 . S
C75 C80 1.501 1_554 S
C76 C77 1.387 . S
C76 N79 1.341 . S
C77 C75 1.400 . S
C77 C76 1.387 . S
N78 Co69 2.022 . S
N78 C75 1.351 . S
N78 N79 1.365 . S
N79 C76 1.341 . S
N79 N78 1.365 . S
N79 H99 0.862 . S
C80 C75 1.501 1_556 S
C80 H81 0.961 . S
C80 H82 0.961 . S
C80 H83 0.960 . S
H81 C80 0.961 . S
H82 C80 0.961 . S
H83 C80 0.960 . S
C84 N85 1.342 . S
C84 C88 1.401 . S
C84 C89 1.499 . S
N85 Co68 1.989 . S
N85 C84 1.342 . S
N85 N86 1.388 . S
N86 Co69 1.993 . S
N86 N85 1.388 . S
N86 C87 1.346 . S
C87 N86 1.346 . S
C87 C88 1.396 . S
C87 C97 1.510 . S
C88 C84 1.401 . S
C88 C87 1.396 . S
C89 C84 1.499 . S
C89 H90 0.959 . S
C89 H91 0.960 . S
C89 H92 0.961 . S
H90 C89 0.959 . S
H91 C89 0.960 . S
H92 C89 0.961 . S
O93 Co68 1.967 . S
O93 C101 1.258 . S
O94 Co69 1.941 . S
O94 C101 1.266 . S
H95 C97 0.959 . S
H96 C97 0.961 . S
C97 C87 1.510 . S
C97 H95 0.959 . S
C97 H96 0.961 . S
C97 H98 0.960 . S
H98 C97 0.960 . S
H99 N79 0.862 . S
O100 Co68 1.920 . S
O100 C73 1.289 . S
C101 O93 1.258 . S
C101 O94 1.266 . S
Co102 O105 1.970 1_554 S
Co102 N119 1.989 . S
Co102 O127 1.967 . S
Co102 O134 1.920 . S
Co103 O106 1.966 1_554 S
Co103 N112 2.022 . S
Co103 N120 1.993 . S
Co103 O128 1.941 . S
C104 O105 1.258 . S
C104 O106 1.263 . S
O105 Co102 1.970 1_556 S
O105 C104 1.258 . S
O106 Co103 1.966 1_556 S
O106 C104 1.263 . S
C107 O108 1.235 . S
C107 O134 1.289 . S
O108 C107 1.235 . S
C109 C111 1.400 . S
C109 N112 1.351 . S
C109 C114 1.501 1_554 S
C110 C111 1.387 . S
C110 N113 1.341 . S
C111 C109 1.400 . S
C111 C110 1.387 . S
N112 Co103 2.022 . S
N112 C109 1.351 . S
N112 N113 1.365 . S
N113 C110 1.341 . S
N113 N112 1.365 . S
N113 H133 0.862 . S
C114 C109 1.501 1_556 S
C114 H115 0.961 . S
C114 H116 0.961 . S
C114 H117 0.960 . S
H115 C114 0.961 . S
H116 C114 0.961 . S
H117 C114 0.960 . S
C118 N119 1.342 . S
C118 C122 1.401 . S
C118 C123 1.499 . S
N119 Co102 1.989 . S
N119 C118 1.342 . S
N119 N120 1.388 . S
N120 Co103 1.993 . S
N120 N119 1.388 . S
N120 C121 1.346 . S
C121 N120 1.346 . S
C121 C122 1.396 . S
C121 C131 1.510 . S
C122 C118 1.401 . S
C122 C121 1.396 . S
C123 C118 1.499 . S
C123 H124 0.959 . S
C123 H125 0.960 . S
C123 H126 0.961 . S
H124 C123 0.959 . S
H125 C123 0.960 . S
H126 C123 0.961 . S
O127 Co102 1.967 . S
O127 C135 1.258 . S
O128 Co103 1.941 . S
O128 C135 1.266 . S
H129 C131 0.959 . S
H130 C131 0.961 . S
C131 C121 1.510 . S
C131 H129 0.959 . S
C131 H130 0.961 . S
C131 H132 0.960 . S
H132 C131 0.960 . S
H133 N113 0.862 . S
O134 Co102 1.920 . S
O134 C107 1.289 . S
C135 O127 1.258 . S
C135 O128 1.266 . S
Co136 O139 1.970 . S
Co136 N153 1.989 . S
Co136 O161 1.967 . S
Co136 O168 1.920 . S
Co137 O140 1.966 . S
Co137 N146 2.022 . S
Co137 N154 1.993 . S
Co137 O162 1.941 . S
C138 O139 1.258 . S
C138 O140 1.263 . S
O139 Co136 1.970 . S
O139 C138 1.258 . S
O140 Co137 1.966 . S
O140 C138 1.263 . S
C141 O142 1.235 . S
C141 O168 1.289 . S
O142 C141 1.235 . S
C143 C145 1.400 . S
C143 N146 1.351 . S
C143 C148 1.501 . S
C144 C145 1.387 . S
C144 N147 1.341 . S
C145 C143 1.400 . S
C145 C144 1.387 . S
N146 Co137 2.022 . S
N146 C143 1.351 . S
N146 N147 1.365 . S
N147 C144 1.341 . S
N147 N146 1.365 . S
N147 H167 0.862 . S
C148 C143 1.501 . S
C148 H149 0.961 . S
C148 H150 0.961 . S
C148 H151 0.960 . S
H149 C148 0.961 . S
H150 C148 0.961 . S
H151 C148 0.960 . S
C152 N153 1.342 . S
C152 C156 1.401 . S
C152 C157 1.499 . S
N153 Co136 1.989 . S
N153 C152 1.342 . S
N153 N154 1.388 . S
N154 Co137 1.993 . S
N154 N153 1.388 . S
N154 C155 1.346 . S
C155 N154 1.346 . S
C155 C156 1.396 . S
C155 C165 1.510 . S
C156 C152 1.401 . S
C156 C155 1.396 . S
C157 C152 1.499 . S
C157 H158 0.959 . S
C157 H159 0.960 . S
C157 H160 0.961 . S
H158 C157 0.959 . S
H159 C157 0.960 . S
H160 C157 0.961 . S
O161 Co136 1.967 . S
O161 C169 1.258 . S
O162 Co137 1.941 . S
O162 C169 1.266 . S
H163 C165 0.959 . S
H164 C165 0.961 . S
C165 C155 1.510 . S
C165 H163 0.959 . S
C165 H164 0.961 . S
C165 H166 0.960 . S
H166 C165 0.960 . S
H167 N147 0.862 . S
O168 Co136 1.920 . S
O168 C141 1.289 . S
C169 O161 1.258 . S
C169 O162 1.266 . S
Co170 O173 1.970 . S
Co170 N187 1.989 . S
Co170 O195 1.967 . S
Co170 O202 1.920 . S
Co171 O174 1.966 . S
Co171 N180 2.022 . S
Co171 N188 1.993 . S
Co171 O196 1.941 . S
C172 O173 1.258 . S
C172 O174 1.263 . S
O173 Co170 1.970 . S
O173 C172 1.258 . S
O174 Co171 1.966 . S
O174 C172 1.263 . S
C175 O176 1.235 . S
C175 O202 1.289 . S
O176 C175 1.235 . S
C177 C179 1.400 . S
C177 N180 1.351 . S
C177 C182 1.501 . S
C178 C179 1.387 . S
C178 N181 1.341 . S
C179 C177 1.400 . S
C179 C178 1.387 . S
N180 Co171 2.022 . S
N180 C177 1.351 . S
N180 N181 1.365 . S
N181 C178 1.341 . S
N181 N180 1.365 . S
N181 H201 0.862 . S
C182 C177 1.501 . S
C182 H183 0.961 . S
C182 H184 0.961 . S
C182 H185 0.960 . S
H183 C182 0.961 . S
H184 C182 0.961 . S
H185 C182 0.960 . S
C186 N187 1.342 . S
C186 C190 1.401 . S
C186 C191 1.499 . S
N187 Co170 1.989 . S
N187 C186 1.342 . S
N187 N188 1.388 . S
N188 Co171 1.993 . S
N188 N187 1.388 . S
N188 C189 1.346 . S
C189 N188 1.346 . S
C189 C190 1.396 . S
C189 C199 1.510 . S
C190 C186 1.401 . S
C190 C189 1.396 . S
C191 C186 1.499 . S
C191 H192 0.959 . S
C191 H193 0.960 . S
C191 H194 0.961 . S
H192 C191 0.959 . S
H193 C191 0.960 . S
H194 C191 0.961 . S
O195 Co170 1.967 . S
O195 C203 1.258 . S
O196 Co171 1.941 . S
O196 C203 1.266 . S
H197 C199 0.959 . S
H198 C199 0.961 . S
C199 C189 1.510 . S
C199 H197 0.959 . S
C199 H198 0.961 . S
C199 H200 0.960 . S
H200 C199 0.960 . S
H201 N181 0.862 . S
O202 Co170 1.920 . S
O202 C175 1.289 . S
C203 O195 1.258 . S
C203 O196 1.266 . S
Co204 O207 1.970 . S
Co204 N221 1.989 . S
Co204 O229 1.967 . S
Co204 O236 1.920 . S
Co205 O208 1.966 . S
Co205 N214 2.022 . S
Co205 N222 1.993 . S
Co205 O230 1.941 . S
C206 O207 1.258 . S
C206 O208 1.263 . S
O207 Co204 1.970 . S
O207 C206 1.258 . S
O208 Co205 1.966 . S
O208 C206 1.263 . S
C209 O210 1.235 . S
C209 O236 1.289 . S
O210 C209 1.235 . S
C211 C213 1.400 . S
C211 N214 1.351 . S
C211 C216 1.501 . S
C212 C213 1.387 . S
C212 N215 1.341 . S
C213 C211 1.400 . S
C213 C212 1.387 . S
N214 Co205 2.022 . S
N214 C211 1.351 . S
N214 N215 1.365 . S
N215 C212 1.341 . S
N215 N214 1.365 . S
N215 H235 0.862 . S
C216 C211 1.501 . S
C216 H217 0.961 . S
C216 H218 0.961 . S
C216 H219 0.960 . S
H217 C216 0.961 . S
H218 C216 0.961 . S
H219 C216 0.960 . S
C220 N221 1.342 . S
C220 C224 1.401 . S
C220 C225 1.499 . S
N221 Co204 1.989 . S
N221 C220 1.342 . S
N221 N222 1.388 . S
N222 Co205 1.993 . S
N222 N221 1.388 . S
N222 C223 1.346 . S
C223 N222 1.346 . S
C223 C224 1.396 . S
C223 C233 1.510 . S
C224 C220 1.401 . S
C224 C223 1.396 . S
C225 C220 1.499 . S
C225 H226 0.959 . S
C225 H227 0.960 . S
C225 H228 0.961 . S
H226 C225 0.959 . S
H227 C225 0.960 . S
H228 C225 0.961 . S
O229 Co204 1.967 . S
O229 C237 1.258 . S
O230 Co205 1.941 . S
O230 C237 1.266 . S
H231 C233 0.959 . S
H232 C233 0.961 . S
C233 C223 1.510 . S
C233 H231 0.959 . S
C233 H232 0.961 . S
C233 H234 0.960 . S
H234 C233 0.960 . S
H235 N215 0.862 . S
O236 Co204 1.920 . S
O236 C209 1.289 . S
C237 O229 1.258 . S
C237 O230 1.266 . S
Co238 O241 1.970 . S
Co238 N255 1.989 . S
Co238 O263 1.967 . S
Co238 O270 1.920 . S
Co239 O242 1.966 . S
Co239 N248 2.022 . S
Co239 N256 1.993 . S
Co239 O264 1.941 . S
C240 O241 1.258 . S
C240 O242 1.263 . S
O241 Co238 1.970 . S
O241 C240 1.258 . S
O242 Co239 1.966 . S
O242 C240 1.263 . S
C243 O244 1.235 . S
C243 O270 1.289 . S
O244 C243 1.235 . S
C245 C247 1.400 . S
C245 N248 1.351 . S
C245 C250 1.501 . S
C246 C247 1.387 . S
C246 N249 1.341 . S
C247 C245 1.400 . S
C247 C246 1.387 . S
N248 Co239 2.022 . S
N248 C245 1.351 . S
N248 N249 1.365 . S
N249 C246 1.341 . S
N249 N248 1.365 . S
N249 H269 0.862 . S
C250 C245 1.501 . S
C250 H251 0.961 . S
C250 H252 0.961 . S
C250 H253 0.960 . S
H251 C250 0.961 . S
H252 C250 0.961 . S
H253 C250 0.960 . S
C254 N255 1.342 . S
C254 C258 1.401 . S
C254 C259 1.499 . S
N255 Co238 1.989 . S
N255 C254 1.342 . S
N255 N256 1.388 . S
N256 Co239 1.993 . S
N256 N255 1.388 . S
N256 C257 1.346 . S
C257 N256 1.346 . S
C257 C258 1.396 . S
C257 C267 1.510 . S
C258 C254 1.401 . S
C258 C257 1.396 . S
C259 C254 1.499 . S
C259 H260 0.959 . S
C259 H261 0.960 . S
C259 H262 0.961 . S
H260 C259 0.959 . S
H261 C259 0.960 . S
H262 C259 0.961 . S
O263 Co238 1.967 . S
O263 C271 1.258 . S
O264 Co239 1.941 . S
O264 C271 1.266 . S
H265 C267 0.959 . S
H266 C267 0.961 . S
C267 C257 1.510 . S
C267 H265 0.959 . S
C267 H266 0.961 . S
C267 H268 0.960 . S
H268 C267 0.960 . S
H269 N249 0.862 . S
O270 Co238 1.920 . S
O270 C243 1.289 . S
C271 O263 1.258 . S
C271 O264 1.266 . S
H272 C278 0.930 . S
H273 C281 0.930 1_556 S
H274 C282 0.930 1_556 S
H275 C283 0.930 . S
H276 C286 0.930 . S
H277 C287 0.930 . S
C278 H272 0.930 . S
C278 C279 1.355 . S
C278 C280 1.415 1_565 S
C279 C278 1.355 . S
C279 C281 1.419 . S
C280 C278 1.415 1_545 S
C280 C285 1.425 1_545 S
C280 C287 1.409 . S
C281 H273 0.930 1_554 S
C281 C279 1.419 . S
C281 C282 1.362 . S
C282 H274 0.930 1_554 S
C282 C281 1.362 . S
C282 C285 1.409 . S
C283 H275 0.930 . S
C283 C284 1.355 . S
C283 C285 1.415 1_545 S
C284 C283 1.355 . S
C284 C286 1.419 . S
C285 C280 1.425 1_565 S
C285 C282 1.409 . S
C285 C283 1.415 1_565 S
C286 H276 0.930 . S
C286 C284 1.419 . S
C286 C287 1.362 . S
C287 H277 0.930 . S
C287 C280 1.409 . S
C287 C286 1.362 . S
H288 C294 0.930 . S
H289 C297 0.930 . S
H290 C298 0.930 . S
H291 C299 0.930 . S
H292 C302 0.930 . S
H293 C303 0.930 1_556 S
C294 H288 0.930 . S
C294 C295 1.355 . S
C294 C296 1.415 1_655 S
C295 C294 1.355 . S
C295 C297 1.419 . S
C296 C294 1.415 1_455 S
C296 C301 1.425 1_455 S
C296 C303 1.409 . S
C297 H289 0.930 . S
C297 C295 1.419 . S
C297 C298 1.362 . S
C298 H290 0.930 . S
C298 C297 1.362 . S
C298 C301 1.409 . S
C299 H291 0.930 . S
C299 C300 1.355 . S
C299 C301 1.415 1_455 S
C300 C299 1.355 . S
C300 C302 1.419 . S
C301 C296 1.425 1_655 S
C301 C298 1.409 . S
C301 C299 1.415 1_655 S
C302 H292 0.930 . S
C302 C300 1.419 . S
C302 C303 1.362 . S
C303 H293 0.930 1_554 S
C303 C296 1.409 . S
C303 C302 1.362 . S
H304 C310 0.930 . S
H305 C313 0.930 . S
H306 C314 0.930 . S
H307 C315 0.930 . S
H308 C318 0.930 . S
H309 C319 0.930 . S
C310 H304 0.930 . S
C310 C311 1.355 . S
C310 C312 1.415 1_655 S
C311 C310 1.355 . S
C311 C313 1.419 . S
C312 C310 1.415 1_455 S
C312 C317 1.425 1_455 S
C312 C319 1.409 . S
C313 H305 0.930 . S
C313 C311 1.419 . S
C313 C314 1.362 . S
C314 H306 0.930 . S
C314 C313 1.362 . S
C314 C317 1.409 . S
C315 H307 0.930 . S
C315 C316 1.355 . S
C315 C317 1.415 1_455 S
C316 C315 1.355 . S
C316 C318 1.419 . S
C317 C312 1.425 1_655 S
C317 C314 1.409 . S
C317 C315 1.415 1_655 S
C318 H308 0.930 . S
C318 C316 1.419 . S
C318 C319 1.362 . S
C319 H309 0.930 . S
C319 C312 1.409 . S
C319 C318 1.362 . S
H320 C326 0.930 . S
H321 C329 0.930 . S
H322 C330 0.930 . S
H323 C331 0.930 . S
H324 C334 0.930 . S
H325 C335 0.930 . S
C326 H320 0.930 . S
C326 C327 1.355 . S
C326 C328 1.415 . S
C327 C326 1.355 . S
C327 C329 1.419 . S
C328 C326 1.415 . S
C328 C333 1.425 1_565 S
C328 C335 1.409 . S
C329 H321 0.930 . S
C329 C327 1.419 . S
C329 C330 1.362 1_565 S
C330 H322 0.930 . S
C330 C329 1.362 1_545 S
C330 C333 1.409 . S
C331 H323 0.930 . S
C331 C332 1.355 . S
C331 C333 1.415 . S
C332 C331 1.355 . S
C332 C334 1.419 . S
C333 C328 1.425 1_545 S
C333 C330 1.409 . S
C333 C331 1.415 . S
C334 H324 0.930 . S
C334 C332 1.419 . S
C334 C335 1.362 1_545 S
C335 H325 0.930 . S
C335 C328 1.409 . S
C335 C334 1.362 1_565 S
H336 C342 0.930 . S
H337 C345 0.930 . S
H338 C346 0.930 . S
H339 C347 0.930 . S
H340 C350 0.930 . S
H341 C351 0.930 . S
C342 H336 0.930 . S
C342 C343 1.355 . S
C342 C344 1.415 . S
C343 C342 1.355 . S
C343 C345 1.419 . S
C344 C342 1.415 . S
C344 C349 1.425 . S
C344 C351 1.409 . S
C345 H337 0.930 . S
C345 C343 1.419 . S
C345 C346 1.362 . S
C346 H338 0.930 . S
C346 C345 1.362 . S
C346 C349 1.409 . S
C347 H339 0.930 . S
C347 C348 1.355 . S
C347 C349 1.415 . S
C348 C347 1.355 . S
C348 C350 1.419 . S
C349 C344 1.425 . S
C349 C346 1.409 . S
C349 C347 1.415 . S
C350 H340 0.930 . S
C350 C348 1.419 . S
C350 C351 1.362 . S
C351 H341 0.930 . S
C351 C344 1.409 . S
C351 C350 1.362 . S
H352 C358 0.930 1_556 S
H353 C361 0.930 . S
H354 C362 0.930 . S
H355 C363 0.930 . S
H356 C366 0.922 1_556 S
H357 C367 0.930 . S
C358 H352 0.930 1_554 S
C358 C359 1.355 . S
C358 C360 1.415 . S
C359 C358 1.355 . S
C359 C361 1.419 . S
C360 C358 1.415 . S
C360 C365 1.425 . S
C360 C367 1.409 1_554 S
C361 H353 0.930 . S
C361 C359 1.419 . S
C361 C362 1.362 . S
C362 H354 0.930 . S
C362 C361 1.362 . S
C362 C365 1.409 . S
C363 H355 0.930 . S
C363 C364 1.355 . S
C363 C365 1.415 . S
C364 C363 1.355 . S
C364 C366 1.430 . S
C365 C360 1.425 . S
C365 C362 1.409 . S
C365 C363 1.415 . S
C366 H356 0.922 1_554 S
C366 C364 1.430 . S
C366 C367 1.359 1_554 S
C367 H357 0.930 . S
C367 C360 1.409 1_556 S
C367 C366 1.359 1_556 S
H368 C374 0.930 . S
H369 C377 0.930 . S
H370 C378 0.930 . S
H371 C379 0.930 1_556 S
H372 C382 0.930 . S
H373 C383 0.930 . S
C374 H368 0.930 . S
C374 C375 1.355 . S
C374 C376 1.415 . S
C375 C374 1.355 . S
C375 C377 1.419 1_554 S
C376 C374 1.415 . S
C376 C381 1.425 . S
C376 C383 1.409 . S
C377 H369 0.930 . S
C377 C375 1.419 1_556 S
C377 C378 1.362 . S
C378 H370 0.930 . S
C378 C377 1.362 . S
C378 C381 1.409 1_556 S
C379 H371 0.930 1_554 S
C379 C380 1.355 . S
C379 C381 1.415 . S
C380 C379 1.355 . S
C380 C382 1.419 . S
C381 C376 1.425 . S
C381 C378 1.409 1_554 S
C381 C379 1.415 . S
C382 H372 0.930 . S
C382 C380 1.419 . S
C382 C383 1.362 . S
C383 H373 0.930 . S
C383 C376 1.409 . S
C383 C382 1.362 . S
H384 C390 0.930 . S
H385 C393 0.930 . S
H386 C394 0.930 . S
H387 C395 0.930 . S
H388 C398 0.935 . S
H389 C399 0.938 . S
C390 H384 0.930 . S
C390 C391 1.355 . S
C390 C392 1.415 . S
C391 C390 1.355 . S
C391 C393 1.419 . S
C392 C390 1.415 . S
C392 C397 1.425 . S
C392 C399 1.409 . S
C393 H385 0.930 . S
C393 C391 1.419 . S
C393 C394 1.362 . S
C394 H386 0.930 . S
C394 C393 1.362 . S
C394 C397 1.409 . S
C395 H387 0.930 . S
C395 C396 1.355 . S
C395 C397 1.415 . S
C396 C395 1.355 . S
C396 C398 1.419 . S
C397 C392 1.425 . S
C397 C394 1.409 . S
C397 C395 1.415 . S
C398 H388 0.935 . S
C398 C396 1.419 . S
C398 C399 1.362 . S
C399 H389 0.938 . S
C399 C392 1.409 . S
C399 C398 1.362 . S
H400 C406 0.930 . S
H401 C409 0.930 1_565 S
H402 C410 0.930 . S
H403 C411 0.930 . S
H404 C414 0.930 . S
H405 C415 0.930 . S
C406 H400 0.930 . S
C406 C407 1.355 . S
C406 C408 1.415 . S
C407 C406 1.355 . S
C407 C409 1.419 . S
C408 C406 1.415 . S
C408 C413 1.425 . S
C408 C415 1.409 . S
C409 H401 0.930 1_545 S
C409 C407 1.419 . S
C409 C410 1.362 . S
C410 H402 0.930 . S
C410 C409 1.362 . S
C410 C413 1.409 . S
C411 H403 0.930 . S
C411 C412 1.355 . S
C411 C413 1.415 . S
C412 C411 1.355 . S
C412 C414 1.419 . S
C413 C408 1.425 . S
C413 C410 1.409 . S
C413 C411 1.415 . S
C414 H404 0.930 . S
C414 C412 1.419 . S
C414 C415 1.362 . S
C415 H405 0.930 . S
C415 C408 1.409 . S
C415 C414 1.362 . S
H416 C422 0.930 . S
H417 C425 0.930 1_455 S
H418 C426 0.930 . S
H419 C427 0.930 . S
H420 C430 0.930 . S
H421 C431 0.930 . S
C422 H416 0.930 . S
C422 C423 1.355 . S
C422 C424 1.415 . S
C423 C422 1.355 . S
C423 C425 1.419 . S
C424 C422 1.415 . S
C424 C429 1.425 . S
C424 C431 1.409 . S
C425 H417 0.930 1_655 S
C425 C423 1.419 . S
C425 C426 1.362 . S
C426 H418 0.930 . S
C426 C425 1.362 . S
C426 C429 1.409 . S
C427 H419 0.930 . S
C427 C428 1.355 . S
C427 C429 1.415 . S
C428 C427 1.355 . S
C428 C430 1.419 . S
C429 C424 1.425 . S
C429 C426 1.409 . S
C429 C427 1.415 . S
C430 H420 0.930 . S
C430 C428 1.419 . S
C430 C431 1.362 . S
C431 H421 0.930 . S
C431 C424 1.409 . S
C431 C430 1.362 . S
H432 C438 0.930 . S
H433 C441 0.930 . S
H434 C442 0.930 . S
H435 C443 0.930 . S
H436 C446 0.930 . S
H437 C447 0.930 . S
C438 H432 0.930 . S
C438 C439 1.355 . S
C438 C440 1.415 . S
C439 C438 1.355 . S
C439 C441 1.419 . S
C440 C438 1.415 . S
C440 C445 1.425 . S
C440 C447 1.409 . S
C441 H433 0.930 . S
C441 C439 1.419 . S
C441 C442 1.362 . S
C442 H434 0.930 . S
C442 C441 1.362 . S
C442 C445 1.409 . S
C443 H435 0.930 . S
C443 C444 1.355 . S
C443 C445 1.415 . S
C444 C443 1.355 . S
C444 C446 1.419 . S
C445 C440 1.425 . S
C445 C442 1.409 . S
C445 C443 1.415 . S
C446 H436 0.930 . S
C446 C444 1.419 . S
C446 C447 1.362 . S
C447 H437 0.930 . S
C447 C440 1.409 . S
C447 C446 1.362 . S
H448 C454 0.930 . S
H449 C457 0.930 . S
H450 C458 0.930 . S
H451 C459 0.930 . S
H452 C462 0.930 . S
H453 C463 0.930 . S
C454 H448 0.930 . S
C454 C455 1.355 . S
C454 C456 1.415 . S
C455 C454 1.355 . S
C455 C457 1.419 . S
C456 C454 1.415 . S
C456 C461 1.425 . S
C456 C463 1.409 . S
C457 H449 0.930 . S
C457 C455 1.419 . S
C457 C458 1.362 . S
C458 H450 0.930 . S
C458 C457 1.362 . S
C458 C461 1.409 . S
C459 H451 0.930 . S
C459 C460 1.355 . S
C459 C461 1.415 . S
C460 C459 1.355 . S
C460 C462 1.419 . S
C461 C456 1.425 . S
C461 C458 1.409 . S
C461 C459 1.415 . S
C462 H452 0.930 . S
C462 C460 1.419 . S
C462 C463 1.362 . S
C463 H453 0.930 . S
C463 C456 1.409 . S
C463 C462 1.362 . S
H464 C470 0.930 . S
H465 C473 0.930 . S
H466 C474 0.930 . S
H467 C475 0.930 . S
H468 C478 0.930 . S
H469 C479 0.930 . S
C470 H464 0.930 . S
C470 C471 1.355 . S
C470 C472 1.415 . S
C471 C470 1.355 . S
C471 C473 1.419 . S
C472 C470 1.415 . S
C472 C477 1.425 . S
C472 C479 1.409 . S
C473 H465 0.930 . S
C473 C471 1.419 . S
C473 C474 1.362 . S
C474 H466 0.930 . S
C474 C473 1.362 . S
C474 C477 1.409 . S
C475 H467 0.930 . S
C475 C476 1.355 . S
C475 C477 1.415 . S
C476 C475 1.355 . S
C476 C478 1.419 . S
C477 C472 1.425 . S
C477 C474 1.409 . S
C477 C475 1.415 . S
C478 H468 0.930 . S
C478 C476 1.419 . S
C478 C479 1.362 . S
C479 H469 0.930 . S
C479 C472 1.409 . S
C479 C478 1.362 . S
H480 C486 0.930 . S
H481 C489 0.930 . S
H482 C490 0.930 . S
H483 C491 0.930 . S
H484 C494 0.930 . S
H485 C495 0.930 . S
C486 H480 0.930 . S
C486 C487 1.355 . S
C486 C488 1.415 . S
C487 C486 1.355 . S
C487 C489 1.419 . S
C488 C486 1.415 . S
C488 C493 1.425 . S
C488 C495 1.409 . S
C489 H481 0.930 . S
C489 C487 1.419 . S
C489 C490 1.362 . S
C490 H482 0.930 . S
C490 C489 1.362 . S
C490 C493 1.409 . S
C491 H483 0.930 . S
C491 C492 1.355 . S
C491 C493 1.415 . S
C492 C491 1.355 . S
C492 C494 1.419 . S
C493 C488 1.425 . S
C493 C490 1.409 . S
C493 C491 1.415 . S
C494 H484 0.930 . S
C494 C492 1.419 . S
C494 C495 1.362 . S
C495 H485 0.930 . S
C495 C488 1.409 . S
C495 C494 1.362 . S
H496 C502 0.930 . S
H497 C505 0.930 . S
H498 C506 0.930 . S
H499 C507 0.930 . S
H500 C510 0.930 . S
H501 C511 0.930 . S
C502 H496 0.930 . S
C502 C503 1.355 . S
C502 C504 1.415 . S
C503 C502 1.355 . S
C503 C505 1.419 . S
C504 C502 1.415 . S
C504 C509 1.425 . S
C504 C511 1.409 . S
C505 H497 0.930 . S
C505 C503 1.419 . S
C505 C506 1.362 . S
C506 H498 0.930 . S
C506 C505 1.362 . S
C506 C509 1.409 . S
C507 H499 0.930 . S
C507 C508 1.355 . S
C507 C509 1.415 . S
C508 C507 1.355 . S
C508 C510 1.419 . S
C509 C504 1.425 . S
C509 C506 1.409 . S
C509 C507 1.415 . S
C510 H500 0.930 . S
C510 C508 1.419 . S
C510 C511 1.362 . S
C511 H501 0.930 . S
C511 C504 1.409 . S
C511 C510 1.362 . S
H512 C518 0.930 . S
H513 C521 0.930 . S
H514 C522 0.930 . S
H515 C523 0.930 . S
H516 C526 0.930 . S
H517 C527 0.930 . S
C518 H512 0.930 . S
C518 C519 1.355 . S
C518 C520 1.415 . S
C519 C518 1.355 . S
C519 C521 1.419 . S
C520 C518 1.415 . S
C520 C525 1.425 . S
C520 C527 1.409 . S
C521 H513 0.930 . S
C521 C519 1.419 . S
C521 C522 1.362 . S
C522 H514 0.930 . S
C522 C521 1.362 . S
C522 C525 1.409 . S
C523 H515 0.930 . S
C523 C524 1.355 . S
C523 C525 1.415 . S
C524 C523 1.355 . S
C524 C526 1.419 . S
C525 C520 1.425 . S
C525 C522 1.409 . S
C525 C523 1.415 . S
C526 H516 0.930 . S
C526 C524 1.419 . S
C526 C527 1.362 . S
C527 H517 0.930 . S
C527 C520 1.409 . S
C527 C526 1.362 . S
H528 C534 0.930 . S
H529 C537 0.930 . S
H530 C538 0.930 . S
H531 C539 0.930 . S
H532 C542 0.930 . S
H533 C543 0.930 . S
C534 H528 0.930 . S
C534 C535 1.355 . S
C534 C536 1.415 . S
C535 C534 1.355 . S
C535 C537 1.419 . S
C536 C534 1.415 . S
C536 C541 1.425 . S
C536 C543 1.409 . S
C537 H529 0.930 . S
C537 C535 1.419 . S
C537 C538 1.362 . S
C538 H530 0.930 . S
C538 C537 1.362 . S
C538 C541 1.409 . S
C539 H531 0.930 . S
C539 C540 1.355 . S
C539 C541 1.415 . S
C540 C539 1.355 . S
C540 C542 1.419 . S
C541 C536 1.425 . S
C541 C538 1.409 . S
C541 C539 1.415 . S
C542 H532 0.930 . S
C542 C540 1.419 . S
C542 C543 1.362 . S
C543 H533 0.930 . S
C543 C536 1.409 . S
C543 C542 1.362 . S
H544 C550 0.930 . S
H545 C553 0.930 . S
H546 C554 0.930 . S
H547 C555 0.930 . S
H548 C558 0.930 . S
H549 C559 0.930 . S
C550 H544 0.930 . S
C550 C551 1.355 . S
C550 C552 1.415 . S
C551 C550 1.355 . S
C551 C553 1.419 . S
C552 C550 1.415 . S
C552 C557 1.425 . S
C552 C559 1.409 . S
C553 H545 0.930 . S
C553 C551 1.419 . S
C553 C554 1.362 . S
C554 H546 0.930 . S
C554 C553 1.362 . S
C554 C557 1.409 . S
C555 H547 0.930 . S
C555 C556 1.355 . S
C555 C557 1.415 . S
C556 C555 1.355 . S
C556 C558 1.419 . S
C557 C552 1.425 . S
C557 C554 1.409 . S
C557 C555 1.415 . S
C558 H548 0.930 . S
C558 C556 1.419 . S
C558 C559 1.362 . S
C559 H549 0.930 . S
C559 C552 1.409 . S
C559 C558 1.362 . S
H560 C566 0.930 . S
H561 C569 0.930 . S
H562 C570 0.930 . S
H563 C571 0.930 . S
H564 C574 0.930 . S
H565 C575 0.930 . S
C566 H560 0.930 . S
C566 C567 1.355 . S
C566 C568 1.415 . S
C567 C566 1.355 . S
C567 C569 1.419 . S
C568 C566 1.415 . S
C568 C573 1.425 . S
C568 C575 1.409 . S
C569 H561 0.930 . S
C569 C567 1.419 . S
C569 C570 1.362 . S
C570 H562 0.930 . S
C570 C569 1.362 . S
C570 C573 1.409 . S
C571 H563 0.930 . S
C571 C572 1.355 . S
C571 C573 1.415 . S
C572 C571 1.355 . S
C572 C574 1.419 . S
C573 C568 1.425 . S
C573 C570 1.409 . S
C573 C571 1.415 . S
C574 H564 0.930 . S
C574 C572 1.419 . S
C574 C575 1.362 . S
C575 H565 0.930 . S
C575 C568 1.409 . S
C575 C574 1.362 . S
H576 C582 0.930 . S
H577 C585 0.930 . S
H578 C586 0.930 . S
H579 C587 0.930 . S
H580 C590 0.930 . S
H581 C591 0.930 . S
C582 H576 0.930 . S
C582 C583 1.355 . S
C582 C584 1.415 . S
C583 C582 1.355 . S
C583 C585 1.419 . S
C584 C582 1.415 . S
C584 C589 1.425 . S
C584 C591 1.409 . S
C585 H577 0.930 . S
C585 C583 1.419 . S
C585 C586 1.362 . S
C586 H578 0.930 . S
C586 C585 1.362 . S
C586 C589 1.409 . S
C587 H579 0.930 . S
C587 C588 1.355 . S
C587 C589 1.415 . S
C588 C587 1.355 . S
C588 C590 1.419 . S
C589 C584 1.425 . S
C589 C586 1.409 . S
C589 C587 1.415 . S
C590 H580 0.930 . S
C590 C588 1.419 . S
C590 C591 1.362 . S
C591 H581 0.930 . S
C591 C584 1.409 . S
C591 C590 1.362 . S
C279 C77 0.951 . S
C284 C9 0.934 . S
C295 C43 0.953 . S
C300 C111 0.983 . S
C311 C145 1.063 . S
C316 C213 1.085 . S
C327 C179 0.934 . S
C332 C247 0.934 . S
C343 C135 1.645 . S
C348 C5 1.689 . S
C359 C33 1.656 . S
C364 C39 1.683 . S
C375 C73 1.683 . S
C380 C67 1.659 . S
C391 C107 1.687 . S
C396 C101 1.641 . S
C407 C203 1.675 1_545 S
C412 C141 1.688 . S
C423 C237 1.684 1_655 S
C428 C175 1.694 . S
C439 C271 1.649 1_565 S
C444 C209 1.691 . S
C455 C169 1.680 1_455 S
C460 C243 1.697 . S
C471 C20 1.713 . S
C476 C258 1.715 . S
C487 C54 1.721 . S
C492 C156 1.717 . S
C503 C190 1.721 . S
C508 C88 1.726 . S
C519 C224 1.716 . S
C524 C122 1.714 . S
C535 C70 1.944 . S
C540 C172 1.946 . S
C551 C206 1.944 . S
C556 C104 1.947 . S
C567 C240 1.938 . S
C572 C2 1.941 . S
C583 C138 1.951 . S
C588 C36 1.953 . S
