# Generated by pormake.
# Topology fcn, (5)-cn, num edge types: 1
# Building blocks:
#     Node 0, Type 0, BuildingBlock: XOMCOT_clean_sbu_1, # of connection points: 5
#     Node 1, Type 0, BuildingBlock: XOMCOT_clean_sbu_1, # of connection points: 5
#     Node 2, Type 0, BuildingBlock: XOMCOT_clean_sbu_1, # of connection points: 5
#     Node 3, Type 0, BuildingBlock: XOMCOT_clean_sbu_1, # of connection points: 5
#     Node 4, Type 0, BuildingBlock: XOMCOT_clean_sbu_1, # of connection points: 5
#     Node 5, Type 0, BuildingBlock: XOMCOT_clean_sbu_1, # of connection points: 5
#     Node 6, Type 0, BuildingBlock: XOMCOT_clean_sbu_1, # of connection points: 5
#     Node 7, Type 0, BuildingBlock: XOMCOT_clean_sbu_1, # of connection points: 5
#     Node 8, Type 0, BuildingBlock: XOMCOT_clean_sbu_1, # of connection points: 5
#     Node 9, Type 0, BuildingBlock: XOMCOT_clean_sbu_1, # of connection points: 5
#     Node 10, Type 0, BuildingBlock: XOMCOT_clean_sbu_1, # of connection points: 5
#     Node 11, Type 0, BuildingBlock: XOMCOT_clean_sbu_1, # of connection points: 5
#     Node 12, Type 0, BuildingBlock: XOMCOT_clean_sbu_1, # of connection points: 5
#     Node 13, Type 0, BuildingBlock: XOMCOT_clean_sbu_1, # of connection points: 5
#     Node 14, Type 0, BuildingBlock: XOMCOT_clean_sbu_1, # of connection points: 5
#     Node 15, Type 0, BuildingBlock: XOMCOT_clean_sbu_1, # of connection points: 5
#     Node 16, Type 0, BuildingBlock: XOMCOT_clean_sbu_1, # of connection points: 5
#     Node 17, Type 0, BuildingBlock: XOMCOT_clean_sbu_1, # of connection points: 5
#     Node 18, Type 0, BuildingBlock: XOMCOT_clean_sbu_1, # of connection points: 5
#     Node 19, Type 0, BuildingBlock: XOMCOT_clean_sbu_1, # of connection points: 5
#     Node 20, Type 0, BuildingBlock: XOMCOT_clean_sbu_1, # of connection points: 5
#     Node 21, Type 0, BuildingBlock: XOMCOT_clean_sbu_1, # of connection points: 5
#     Node 22, Type 0, BuildingBlock: XOMCOT_clean_sbu_1, # of connection points: 5
#     Node 23, Type 0, BuildingBlock: XOMCOT_clean_sbu_1, # of connection points: 5
#     Node 24, Type 0, BuildingBlock: XOMCOT_clean_sbu_1, # of connection points: 5
#     Node 25, Type 0, BuildingBlock: XOMCOT_clean_sbu_1, # of connection points: 5
#     Node 26, Type 0, BuildingBlock: XOMCOT_clean_sbu_1, # of connection points: 5
#     Node 27, Type 0, BuildingBlock: XOMCOT_clean_sbu_1, # of connection points: 5
#     Node 28, Type 0, BuildingBlock: XOMCOT_clean_sbu_1, # of connection points: 5
#     Node 29, Type 0, BuildingBlock: XOMCOT_clean_sbu_1, # of connection points: 5
#     Node 30, Type 0, BuildingBlock: XOMCOT_clean_sbu_1, # of connection points: 5
#     Node 31, Type 0, BuildingBlock: XOMCOT_clean_sbu_1, # of connection points: 5
#     Node 32, Type 0, BuildingBlock: XOMCOT_clean_sbu_1, # of connection points: 5
#     Node 33, Type 0, BuildingBlock: XOMCOT_clean_sbu_1, # of connection points: 5
#     Node 34, Type 0, BuildingBlock: XOMCOT_clean_sbu_1, # of connection points: 5
#     Node 35, Type 0, BuildingBlock: XOMCOT_clean_sbu_1, # of connection points: 5
#     Node 36, Type 0, BuildingBlock: XOMCOT_clean_sbu_1, # of connection points: 5
#     Node 37, Type 0, BuildingBlock: XOMCOT_clean_sbu_1, # of connection points: 5
#     Node 38, Type 0, BuildingBlock: XOMCOT_clean_sbu_1, # of connection points: 5
#     Node 39, Type 0, BuildingBlock: XOMCOT_clean_sbu_1, # of connection points: 5
#     Node 40, Type 0, BuildingBlock: XOMCOT_clean_sbu_1, # of connection points: 5
#     Node 41, Type 0, BuildingBlock: XOMCOT_clean_sbu_1, # of connection points: 5
#     Node 42, Type 0, BuildingBlock: XOMCOT_clean_sbu_1, # of connection points: 5
#     Node 43, Type 0, BuildingBlock: XOMCOT_clean_sbu_1, # of connection points: 5
#     Node 44, Type 0, BuildingBlock: XOMCOT_clean_sbu_1, # of connection points: 5
#     Node 45, Type 0, BuildingBlock: XOMCOT_clean_sbu_1, # of connection points: 5
#     Node 46, Type 0, BuildingBlock: XOMCOT_clean_sbu_1, # of connection points: 5
#     Node 47, Type 0, BuildingBlock: XOMCOT_clean_sbu_1, # of connection points: 5
#     Edge 48, Type (0, 0), BuildingBlock: EZIPEK_clean_linker_0, # of connection points: 2
#     Edge 49, Type (0, 0), BuildingBlock: EZIPEK_clean_linker_0, # of connection points: 2
#     Edge 50, Type (0, 0), BuildingBlock: EZIPEK_clean_linker_0, # of connection points: 2
#     Edge 51, Type (0, 0), BuildingBlock: EZIPEK_clean_linker_0, # of connection points: 2
#     Edge 52, Type (0, 0), BuildingBlock: EZIPEK_clean_linker_0, # of connection points: 2
#     Edge 53, Type (0, 0), BuildingBlock: EZIPEK_clean_linker_0, # of connection points: 2
#     Edge 54, Type (0, 0), BuildingBlock: EZIPEK_clean_linker_0, # of connection points: 2
#     Edge 55, Type (0, 0), BuildingBlock: EZIPEK_clean_linker_0, # of connection points: 2
#     Edge 56, Type (0, 0), BuildingBlock: EZIPEK_clean_linker_0, # of connection points: 2
#     Edge 57, Type (0, 0), BuildingBlock: EZIPEK_clean_linker_0, # of connection points: 2
#     Edge 58, Type (0, 0), BuildingBlock: EZIPEK_clean_linker_0, # of connection points: 2
#     Edge 59, Type (0, 0), BuildingBlock: EZIPEK_clean_linker_0, # of connection points: 2
#     Edge 60, Type (0, 0), BuildingBlock: EZIPEK_clean_linker_0, # of connection points: 2
#     Edge 61, Type (0, 0), BuildingBlock: EZIPEK_clean_linker_0, # of connection points: 2
#     Edge 62, Type (0, 0), BuildingBlock: EZIPEK_clean_linker_0, # of connection points: 2
#     Edge 63, Type (0, 0), BuildingBlock: EZIPEK_clean_linker_0, # of connection points: 2
#     Edge 64, Type (0, 0), BuildingBlock: EZIPEK_clean_linker_0, # of connection points: 2
#     Edge 65, Type (0, 0), BuildingBlock: EZIPEK_clean_linker_0, # of connection points: 2
#     Edge 66, Type (0, 0), BuildingBlock: EZIPEK_clean_linker_0, # of connection points: 2
#     Edge 67, Type (0, 0), BuildingBlock: EZIPEK_clean_linker_0, # of connection points: 2
#     Edge 68, Type (0, 0), BuildingBlock: EZIPEK_clean_linker_0, # of connection points: 2
#     Edge 69, Type (0, 0), BuildingBlock: EZIPEK_clean_linker_0, # of connection points: 2
#     Edge 70, Type (0, 0), BuildingBlock: EZIPEK_clean_linker_0, # of connection points: 2
#     Edge 71, Type (0, 0), BuildingBlock: EZIPEK_clean_linker_0, # of connection points: 2
#     Edge 72, Type (0, 0), BuildingBlock: EZIPEK_clean_linker_0, # of connection points: 2
#     Edge 73, Type (0, 0), BuildingBlock: EZIPEK_clean_linker_0, # of connection points: 2
#     Edge 74, Type (0, 0), BuildingBlock: EZIPEK_clean_linker_0, # of connection points: 2
#     Edge 75, Type (0, 0), BuildingBlock: EZIPEK_clean_linker_0, # of connection points: 2
#     Edge 76, Type (0, 0), BuildingBlock: EZIPEK_clean_linker_0, # of connection points: 2
#     Edge 77, Type (0, 0), BuildingBlock: EZIPEK_clean_linker_0, # of connection points: 2
#     Edge 78, Type (0, 0), BuildingBlock: EZIPEK_clean_linker_0, # of connection points: 2
#     Edge 79, Type (0, 0), BuildingBlock: EZIPEK_clean_linker_0, # of connection points: 2
#     Edge 80, Type (0, 0), BuildingBlock: EZIPEK_clean_linker_0, # of connection points: 2
#     Edge 81, Type (0, 0), BuildingBlock: EZIPEK_clean_linker_0, # of connection points: 2
#     Edge 82, Type (0, 0), BuildingBlock: EZIPEK_clean_linker_0, # of connection points: 2
#     Edge 83, Type (0, 0), BuildingBlock: EZIPEK_clean_linker_0, # of connection points: 2
#     Edge 84, Type (0, 0), BuildingBlock: EZIPEK_clean_linker_0, # of connection points: 2
#     Edge 85, Type (0, 0), BuildingBlock: EZIPEK_clean_linker_0, # of connection points: 2
#     Edge 86, Type (0, 0), BuildingBlock: EZIPEK_clean_linker_0, # of connection points: 2
#     Edge 87, Type (0, 0), BuildingBlock: EZIPEK_clean_linker_0, # of connection points: 2
#     Edge 88, Type (0, 0), BuildingBlock: EZIPEK_clean_linker_0, # of connection points: 2
#     Edge 89, Type (0, 0), BuildingBlock: EZIPEK_clean_linker_0, # of connection points: 2
#     Edge 90, Type (0, 0), BuildingBlock: EZIPEK_clean_linker_0, # of connection points: 2
#     Edge 91, Type (0, 0), BuildingBlock: EZIPEK_clean_linker_0, # of connection points: 2
#     Edge 92, Type (0, 0), BuildingBlock: EZIPEK_clean_linker_0, # of connection points: 2
#     Edge 93, Type (0, 0), BuildingBlock: EZIPEK_clean_linker_0, # of connection points: 2
#     Edge 94, Type (0, 0), BuildingBlock: EZIPEK_clean_linker_0, # of connection points: 2
#     Edge 95, Type (0, 0), BuildingBlock: EZIPEK_clean_linker_0, # of connection points: 2
#     Edge 96, Type (0, 0), BuildingBlock: EZIPEK_clean_linker_0, # of connection points: 2
#     Edge 97, Type (0, 0), BuildingBlock: EZIPEK_clean_linker_0, # of connection points: 2
#     Edge 98, Type (0, 0), BuildingBlock: EZIPEK_clean_linker_0, # of connection points: 2
#     Edge 99, Type (0, 0), BuildingBlock: EZIPEK_clean_linker_0, # of connection points: 2
#     Edge 100, Type (0, 0), BuildingBlock: EZIPEK_clean_linker_0, # of connection points: 2
#     Edge 101, Type (0, 0), BuildingBlock: EZIPEK_clean_linker_0, # of connection points: 2
#     Edge 102, Type (0, 0), BuildingBlock: EZIPEK_clean_linker_0, # of connection points: 2
#     Edge 103, Type (0, 0), BuildingBlock: EZIPEK_clean_linker_0, # of connection points: 2
#     Edge 104, Type (0, 0), BuildingBlock: EZIPEK_clean_linker_0, # of connection points: 2
#     Edge 105, Type (0, 0), BuildingBlock: EZIPEK_clean_linker_0, # of connection points: 2
#     Edge 106, Type (0, 0), BuildingBlock: EZIPEK_clean_linker_0, # of connection points: 2
#     Edge 107, Type (0, 0), BuildingBlock: EZIPEK_clean_linker_0, # of connection points: 2
#     Edge 108, Type (0, 0), BuildingBlock: EZIPEK_clean_linker_0, # of connection points: 2
#     Edge 109, Type (0, 0), BuildingBlock: EZIPEK_clean_linker_0, # of connection points: 2
#     Edge 110, Type (0, 0), BuildingBlock: EZIPEK_clean_linker_0, # of connection points: 2
#     Edge 111, Type (0, 0), BuildingBlock: EZIPEK_clean_linker_0, # of connection points: 2
#     Edge 112, Type (0, 0), BuildingBlock: EZIPEK_clean_linker_0, # of connection points: 2
#     Edge 113, Type (0, 0), BuildingBlock: EZIPEK_clean_linker_0, # of connection points: 2
#     Edge 114, Type (0, 0), BuildingBlock: EZIPEK_clean_linker_0, # of connection points: 2
#     Edge 115, Type (0, 0), BuildingBlock: EZIPEK_clean_linker_0, # of connection points: 2
#     Edge 116, Type (0, 0), BuildingBlock: EZIPEK_clean_linker_0, # of connection points: 2
#     Edge 117, Type (0, 0), BuildingBlock: EZIPEK_clean_linker_0, # of connection points: 2
#     Edge 118, Type (0, 0), BuildingBlock: EZIPEK_clean_linker_0, # of connection points: 2
#     Edge 119, Type (0, 0), BuildingBlock: EZIPEK_clean_linker_0, # of connection points: 2
#     Edge 120, Type (0, 0), BuildingBlock: EZIPEK_clean_linker_0, # of connection points: 2
#     Edge 121, Type (0, 0), BuildingBlock: EZIPEK_clean_linker_0, # of connection points: 2
#     Edge 122, Type (0, 0), BuildingBlock: EZIPEK_clean_linker_0, # of connection points: 2
#     Edge 123, Type (0, 0), BuildingBlock: EZIPEK_clean_linker_0, # of connection points: 2
#     Edge 124, Type (0, 0), BuildingBlock: EZIPEK_clean_linker_0, # of connection points: 2
#     Edge 125, Type (0, 0), BuildingBlock: EZIPEK_clean_linker_0, # of connection points: 2
#     Edge 126, Type (0, 0), BuildingBlock: EZIPEK_clean_linker_0, # of connection points: 2
#     Edge 127, Type (0, 0), BuildingBlock: EZIPEK_clean_linker_0, # of connection points: 2
#     Edge 128, Type (0, 0), BuildingBlock: EZIPEK_clean_linker_0, # of connection points: 2
#     Edge 129, Type (0, 0), BuildingBlock: EZIPEK_clean_linker_0, # of connection points: 2
#     Edge 130, Type (0, 0), BuildingBlock: EZIPEK_clean_linker_0, # of connection points: 2
#     Edge 131, Type (0, 0), BuildingBlock: EZIPEK_clean_linker_0, # of connection points: 2
#     Edge 132, Type (0, 0), BuildingBlock: EZIPEK_clean_linker_0, # of connection points: 2
#     Edge 133, Type (0, 0), BuildingBlock: EZIPEK_clean_linker_0, # of connection points: 2
#     Edge 134, Type (0, 0), BuildingBlock: EZIPEK_clean_linker_0, # of connection points: 2
#     Edge 135, Type (0, 0), BuildingBlock: EZIPEK_clean_linker_0, # of connection points: 2
#     Edge 136, Type (0, 0), BuildingBlock: EZIPEK_clean_linker_0, # of connection points: 2
#     Edge 137, Type (0, 0), BuildingBlock: EZIPEK_clean_linker_0, # of connection points: 2
#     Edge 138, Type (0, 0), BuildingBlock: EZIPEK_clean_linker_0, # of connection points: 2
#     Edge 139, Type (0, 0), BuildingBlock: EZIPEK_clean_linker_0, # of connection points: 2
#     Edge 140, Type (0, 0), BuildingBlock: EZIPEK_clean_linker_0, # of connection points: 2
#     Edge 141, Type (0, 0), BuildingBlock: EZIPEK_clean_linker_0, # of connection points: 2
#     Edge 142, Type (0, 0), BuildingBlock: EZIPEK_clean_linker_0, # of connection points: 2
#     Edge 143, Type (0, 0), BuildingBlock: EZIPEK_clean_linker_0, # of connection points: 2
#     Edge 144, Type (0, 0), BuildingBlock: EZIPEK_clean_linker_0, # of connection points: 2
#     Edge 145, Type (0, 0), BuildingBlock: EZIPEK_clean_linker_0, # of connection points: 2
#     Edge 146, Type (0, 0), BuildingBlock: EZIPEK_clean_linker_0, # of connection points: 2
#     Edge 147, Type (0, 0), BuildingBlock: EZIPEK_clean_linker_0, # of connection points: 2
#     Edge 148, Type (0, 0), BuildingBlock: EZIPEK_clean_linker_0, # of connection points: 2
#     Edge 149, Type (0, 0), BuildingBlock: EZIPEK_clean_linker_0, # of connection points: 2
#     Edge 150, Type (0, 0), BuildingBlock: EZIPEK_clean_linker_0, # of connection points: 2
#     Edge 151, Type (0, 0), BuildingBlock: EZIPEK_clean_linker_0, # of connection points: 2
#     Edge 152, Type (0, 0), BuildingBlock: EZIPEK_clean_linker_0, # of connection points: 2
#     Edge 153, Type (0, 0), BuildingBlock: EZIPEK_clean_linker_0, # of connection points: 2
#     Edge 154, Type (0, 0), BuildingBlock: EZIPEK_clean_linker_0, # of connection points: 2
#     Edge 155, Type (0, 0), BuildingBlock: EZIPEK_clean_linker_0, # of connection points: 2
#     Edge 156, Type (0, 0), BuildingBlock: EZIPEK_clean_linker_0, # of connection points: 2
#     Edge 157, Type (0, 0), BuildingBlock: EZIPEK_clean_linker_0, # of connection points: 2
#     Edge 158, Type (0, 0), BuildingBlock: EZIPEK_clean_linker_0, # of connection points: 2
#     Edge 159, Type (0, 0), BuildingBlock: EZIPEK_clean_linker_0, # of connection points: 2
#     Edge 160, Type (0, 0), BuildingBlock: EZIPEK_clean_linker_0, # of connection points: 2
#     Edge 161, Type (0, 0), BuildingBlock: EZIPEK_clean_linker_0, # of connection points: 2
#     Edge 162, Type (0, 0), BuildingBlock: EZIPEK_clean_linker_0, # of connection points: 2
#     Edge 163, Type (0, 0), BuildingBlock: EZIPEK_clean_linker_0, # of connection points: 2
#     Edge 164, Type (0, 0), BuildingBlock: EZIPEK_clean_linker_0, # of connection points: 2
#     Edge 165, Type (0, 0), BuildingBlock: EZIPEK_clean_linker_0, # of connection points: 2
#     Edge 166, Type (0, 0), BuildingBlock: EZIPEK_clean_linker_0, # of connection points: 2
#     Edge 167, Type (0, 0), BuildingBlock: EZIPEK_clean_linker_0, # of connection points: 2
# Relax obj value: 0.274
# Max RMSD: 0.222
# Mean RMSD: 0.222
data_MOF--net-fcn--node1-XOMCOT_clean_sbu_1--edge1-EZIPEK_clean_linker_0
_symmetry_space_group_name_H-M    P1
_symmetry_Int_Tables_number       1
_symmetry_cell_setting            triclinic
loop_
_symmetry_equiv_pos_as_xyz
'x, y, z'
_cell_length_a     57.05262
_cell_length_b     57.153355
_cell_length_c     57.018689
_cell_angle_alpha  90.080924
_cell_angle_beta   89.805111
_cell_angle_gamma 90.161637
loop_
_atom_site_label
_atom_site_type_symbol
_atom_site_fract_x
_atom_site_fract_y
_atom_site_fract_z
_atom_type_partial_charge
C0 C 0.08111 0.22609 0.27876 0.0
C1 C 0.06264 0.24127 0.28123 0.0
N2 N 0.04281 0.2286 0.28212 0.0
N3 N 0.07304 0.20384 0.27764 0.0
C4 C 0.04954 0.20598 0.28032 0.0
H5 H 0.09935 0.23114 0.27799 0.0
Co6 Co 0.09222 0.17722 0.27316 0.0
C7 C 0.05948 0.15512 0.24854 0.0
O8 O 0.0555 0.14892 0.2704 0.0
N9 N 0.11241 0.15097 0.26847 0.0
C10 C 0.1269 0.11654 0.25685 0.0
C11 C 0.1069 0.12852 0.26326 0.0
C12 C 0.13609 0.15158 0.2663 0.0
N13 N 0.14528 0.1312 0.25864 0.0
O14 O 0.11363 0.19665 0.25462 0.0
H15 H 0.0894 0.12136 0.26283 0.0
H16 H 0.14654 0.16704 0.2687 0.0
O17 O 0.07593 0.16976 0.24456 0.0
C18 C 0.13167 0.20807 0.24778 0.0
O19 O 0.1503 0.20924 0.26118 0.0
N20 N 0.10544 0.18218 0.30271 0.0
C21 C 0.1183 0.16698 0.34707 0.0
C22 C 0.09494 0.16593 0.34004 0.0
C23 C 0.08894 0.17356 0.31775 0.0
C24 C 0.12773 0.18633 0.3103 0.0
C25 C 0.13458 0.1788 0.33272 0.0
H26 H 0.07143 0.17007 0.31144 0.0
H27 H 0.14083 0.1932 0.29866 0.0
H28 H 0.03763 0.19138 0.28126 0.0
H29 H 0.06363 0.26016 0.28233 0.0
H30 H 0.12775 0.09876 0.25033 0.0
H31 H 0.08195 0.15691 0.35061 0.0
H32 H 0.15285 0.17985 0.33773 0.0
C33 C 0.02893 0.83999 0.55083 0.0
C34 C 0.01318 0.82186 0.5532 0.0
N35 N 0.01932 0.80478 0.53815 0.0
N36 N 0.04504 0.83447 0.53439 0.0
C37 C 0.03856 0.81291 0.52675 0.0
H38 H 0.02894 0.85612 0.56077 0.0
Co39 Co 0.06978 0.85486 0.52667 0.0
C40 C 0.10713 0.82069 0.51046 0.0
O41 O 0.12103 0.82591 0.52795 0.0
N42 N 0.09464 0.87634 0.51876 0.0
C43 C 0.12771 0.89765 0.51834 0.0
C44 C 0.11696 0.87783 0.5269 0.0
C45 C 0.09272 0.89548 0.50496 0.0
N46 N 0.11226 0.90873 0.50471 0.0
O47 O 0.05358 0.86292 0.49824 0.0
H48 H 0.12485 0.86614 0.53939 0.0
H49 H 0.07742 0.89987 0.49524 0.0
O50 O 0.08665 0.82982 0.50914 0.0
C51 C 0.03699 0.87788 0.49934 0.0
O52 O 0.03119 0.88709 0.51964 0.0
N53 N 0.08387 0.84839 0.55592 0.0
C54 C 0.10582 0.84475 0.59947 0.0
C55 C 0.09821 0.82456 0.58749 0.0
C56 C 0.08756 0.82676 0.56539 0.0
C57 C 0.08765 0.86792 0.56919 0.0
C58 C 0.09962 0.8666 0.59038 0.0
H59 H 0.08266 0.8112 0.55574 0.0
H60 H 0.08255 0.88489 0.5626 0.0
H61 H 0.04769 0.80329 0.51325 0.0
H62 H 0.99872 0.82093 0.56551 0.0
H63 H 0.14522 0.90379 0.5223 0.0
H64 H 0.10163 0.80732 0.59454 0.0
H65 H 0.10425 0.8826 0.59949 0.0
C66 C 0.4246 0.77926 0.7798 0.0
C67 C 0.44285 0.76377 0.78126 0.0
N68 N 0.4629 0.77574 0.77808 0.0
N69 N 0.43295 0.801 0.77544 0.0
C70 C 0.45651 0.79827 0.77466 0.0
H71 H 0.40627 0.7749 0.7819 0.0
Co72 Co 0.41321 0.82718 0.77103 0.0
C73 C 0.4462 0.8529 0.74988 0.0
O74 O 0.44707 0.85982 0.77184 0.0
N75 N 0.39241 0.85271 0.76604 0.0
C76 C 0.37556 0.888 0.76492 0.0
C77 C 0.39542 0.87565 0.77113 0.0
C78 C 0.37038 0.85167 0.75723 0.0
N79 N 0.35994 0.87267 0.75625 0.0
O80 O 0.39506 0.8073 0.74977 0.0
H81 H 0.41083 0.88307 0.77921 0.0
H82 H 0.3616 0.83586 0.7519 0.0
O83 O 0.4316 0.8368 0.74444 0.0
C84 C 0.37783 0.79382 0.74508 0.0
O85 O 0.36212 0.78911 0.76129 0.0
N86 N 0.39747 0.82037 0.79949 0.0
C87 C 0.38388 0.83831 0.84296 0.0
C88 C 0.40725 0.83277 0.83858 0.0
C89 C 0.41367 0.824 0.81675 0.0
C90 C 0.37411 0.8225 0.80457 0.0
C91 C 0.3669 0.83145 0.82645 0.0
H92 H 0.43216 0.82361 0.81266 0.0
H93 H 0.36113 0.8204 0.79109 0.0
H94 H 0.46875 0.8123 0.7715 0.0
H95 H 0.4416 0.74517 0.78462 0.0
H96 H 0.37276 0.90664 0.76666 0.0
H97 H 0.42083 0.83796 0.8508 0.0
H98 H 0.3486 0.83565 0.82928 0.0
C99 C 0.47311 0.16872 0.0383 0.0
C100 C 0.48781 0.1876 0.03867 0.0
N101 N 0.47628 0.20591 0.02969 0.0
N102 N 0.45241 0.17468 0.0285 0.0
C103 C 0.45478 0.19781 0.02382 0.0
H104 H 0.47735 0.15176 0.0453 0.0
Co105 Co 0.42837 0.15289 0.02172 0.0
C106 C 0.40167 0.18511 0.99997 0.0
O107 O 0.39583 0.18858 0.02203 0.0
N108 N 0.40524 0.13098 0.01489 0.0
C109 C 0.37239 0.10999 0.0169 0.0
C110 C 0.38344 0.13027 0.0241 0.0
C111 C 0.40711 0.11108 1.00221 0.0
N112 N 0.38756 0.098 0.00344 0.0
O113 O 0.45024 0.1374 1.00059 0.0
H114 H 0.3765 0.14308 0.03622 0.0
H115 H 0.42275 0.10558 0.99301 0.0
O116 O 0.41814 0.17077 0.9954 0.0
C117 C 0.46969 0.12662 0.99858 0.0
O118 O 0.48153 0.12051 0.01728 0.0
N119 N 0.43539 0.13602 0.0489 0.0
C120 C 0.41847 0.11385 0.08889 0.0
C121 C 0.41891 0.13825 0.08754 0.0
C122 C 0.42747 0.14898 0.06737 0.0
C123 C 0.43801 0.11236 0.05098 0.0
C124 C 0.43 0.10087 0.0713 0.0
H125 H 0.42464 0.16755 0.0652 0.0
H126 H 0.44332 0.10202 0.03601 0.0
H127 H 0.44126 0.20854 0.01612 0.0
H128 H 0.50542 0.18812 0.04569 0.0
H129 H 0.35502 0.10408 0.02183 0.0
H130 H 0.41022 0.14882 0.10074 0.0
H131 H 0.42989 0.08193 0.07185 0.0
C132 C 0.08002 0.77641 0.22341 0.0
C133 C 0.06092 0.76208 0.22139 0.0
N134 N 0.04176 0.77499 0.2255 0.0
N135 N 0.07313 0.79832 0.22918 0.0
C136 C 0.04945 0.79692 0.23003 0.0
H137 H 0.09778 0.7712 0.21982 0.0
Co138 Co 0.09404 0.82354 0.23382 0.0
C139 C 0.06002 0.85096 0.25463 0.0
O140 O 0.05659 0.85657 0.23256 0.0
N141 N 0.1152 0.84808 0.23892 0.0
C142 C 0.13188 0.88321 0.24159 0.0
C143 C 0.11254 0.87092 0.23387 0.0
C144 C 0.13658 0.84682 0.24889 0.0
N145 N 0.14721 0.86781 0.25066 0.0
O146 O 0.11026 0.80429 0.2569 0.0
H147 H 0.0979 0.87804 0.22436 0.0
H148 H 0.14459 0.83071 0.2546 0.0
O149 O 0.07526 0.83535 0.25943 0.0
C150 C 0.12342 0.78669 0.26065 0.0
O151 O 0.13277 0.77528 0.24296 0.0
N152 N 0.11134 0.81435 0.20689 0.0
C153 C 0.13018 0.83033 0.1649 0.0
C154 C 0.10649 0.82428 0.16629 0.0
C155 C 0.0973 0.81691 0.18769 0.0
C156 C 0.13516 0.81529 0.20431 0.0
C157 C 0.145 0.82398 0.18343 0.0
H158 H 0.07846 0.81688 0.18963 0.0
H159 H 0.1465 0.81251 0.2191 0.0
H160 H 0.03803 0.81158 0.23356 0.0
H161 H 0.06094 0.74375 0.21657 0.0
H162 H 0.13477 0.90186 0.23999 0.0
H163 H 0.09457 0.829 0.15233 0.0
H164 H 0.16351 0.82823 0.1828 0.0
C165 C 0.47759 0.83596 0.46998 0.0
C166 C 0.49299 0.81766 0.46984 0.0
N167 N 0.48129 0.79842 0.47662 0.0
N168 N 0.45626 0.82856 0.47736 0.0
C169 C 0.45909 0.80536 0.48096 0.0
H170 H 0.48168 0.85335 0.46398 0.0
Co171 Co 0.42977 0.84778 0.48178 0.0
C172 C 0.40373 0.81409 0.50219 0.0
O173 O 0.39799 0.81182 0.47999 0.0
N174 N 0.40364 0.86746 0.48681 0.0
C175 C 0.36783 0.88202 0.49271 0.0
C176 C 0.38045 0.863 0.48474 0.0
C177 C 0.40449 0.88944 0.49553 0.0
N178 N 0.38315 0.89871 0.49925 0.0
O179 O 0.4477 0.86586 0.50405 0.0
H180 H 0.37295 0.84694 0.47817 0.0
H181 H 0.42046 0.89855 0.49994 0.0
O182 O 0.4196 0.82885 0.5076 0.0
C183 C 0.46532 0.87922 0.50707 0.0
O184 O 0.47774 0.88653 0.48909 0.0
N185 N 0.43784 0.86507 0.45487 0.0
C186 C 0.42307 0.8838 0.4128 0.0
C187 C 0.4282 0.85997 0.41436 0.0
C188 C 0.43498 0.85085 0.43585 0.0
C189 C 0.43776 0.88883 0.45221 0.0
C190 C 0.42984 0.89866 0.43118 0.0
H191 H 0.43456 0.83207 0.43806 0.0
H192 H 0.44078 0.90025 0.46691 0.0
H193 H 0.4453 0.79368 0.48654 0.0
H194 H 0.51113 0.81814 0.46421 0.0
H195 H 0.34894 0.88346 0.49372 0.0
H196 H 0.42309 0.84804 0.40047 0.0
H197 H 0.42619 0.91723 0.4304 0.0
C198 C 0.42002 0.22567 0.72308 0.0
C199 C 0.43775 0.2418 0.72108 0.0
N200 N 0.45814 0.23058 0.72401 0.0
N201 N 0.42905 0.20424 0.72739 0.0
C202 C 0.45255 0.20788 0.72774 0.0
H203 H 0.40154 0.22962 0.72231 0.0
Co204 Co 0.40986 0.17819 0.73436 0.0
C205 C 0.44616 0.15637 0.75551 0.0
O206 O 0.45182 0.15311 0.7334 0.0
N207 N 0.38931 0.15292 0.74208 0.0
C208 C 0.37293 0.12274 0.761 0.0
C209 C 0.39354 0.13393 0.75557 0.0
C210 C 0.36567 0.15262 0.7396 0.0
N211 N 0.35542 0.13469 0.75109 0.0
O212 O 0.39209 0.19806 0.75546 0.0
H213 H 0.40995 0.12957 0.76341 0.0
H214 H 0.35572 0.16631 0.73139 0.0
O215 O 0.42912 0.17002 0.76044 0.0
C216 C 0.37361 0.208 0.76308 0.0
O217 O 0.35367 0.20576 0.7519 0.0
N218 N 0.39297 0.18331 0.70681 0.0
C219 C 0.37058 0.16967 0.66589 0.0
C220 C 0.39263 0.16082 0.67141 0.0
C221 C 0.4035 0.16791 0.69194 0.0
C222 C 0.37317 0.19491 0.70016 0.0
C223 C 0.36137 0.18803 0.67958 0.0
H224 H 0.41951 0.15937 0.69726 0.0
H225 H 0.36543 0.20795 0.71136 0.0
H226 H 0.4654 0.19459 0.73151 0.0
H227 H 0.43587 0.26043 0.71825 0.0
H228 H 0.37074 0.10821 0.77298 0.0
H229 H 0.4004 0.1469 0.66107 0.0
H230 H 0.34443 0.19547 0.6755 0.0
C231 C 0.03738 0.17431 0.9592 0.0
C232 C 0.02091 0.19142 0.95659 0.0
N233 N 0.02637 0.20893 0.9712 0.0
N234 N 0.05333 0.18064 0.9757 0.0
C235 C 0.04589 0.20212 0.98266 0.0
H236 H 0.03709 0.15803 0.94963 0.0
Co237 Co 0.07875 0.16146 0.98633 0.0
C238 C 0.09822 0.20054 0.00629 0.0
O239 O 0.10007 0.20637 0.98407 0.0
N240 N 0.10283 0.14194 0.99687 0.0
C241 C 0.13616 0.12762 0.01108 0.0
C242 C 0.12518 0.14726 1.00245 0.0
C243 C 0.10075 0.11893 1.00201 0.0
N244 N 0.12068 0.10984 0.01061 0.0
O245 O 0.05739 0.14523 0.00722 0.0
H246 H 0.13291 0.16434 1.00097 0.0
H247 H 0.08468 0.10903 1.00041 0.0
O248 O 0.08593 0.18259 0.01163 0.0
C249 C 0.03652 0.13728 0.00808 0.0
O250 O 0.02333 0.13696 0.98927 0.0
N251 N 0.07529 0.14201 0.96041 0.0
C252 C 0.08894 0.11801 0.9204 0.0
C253 C 0.09484 0.14153 0.92328 0.0
C254 C 0.08794 0.15313 0.94348 0.0
C255 C 0.06717 0.11975 0.95704 0.0
C256 C 0.07376 0.10734 0.93674 0.0
H257 H 0.09427 0.17071 0.94664 0.0
H258 H 0.05723 0.11096 0.97056 0.0
H259 H 0.05433 0.2127 0.99588 0.0
H260 H 0.00625 0.19129 0.94458 0.0
H261 H 0.15399 0.12647 0.01738 0.0
H262 H 0.10644 0.15028 0.911 0.0
H263 H 0.06895 0.08909 0.93489 0.0
C264 C 0.28984 0.08415 0.23106 0.0
C265 C 0.29544 0.06588 0.24552 0.0
N266 N 0.28888 0.04555 0.23523 0.0
N267 N 0.27841 0.07594 0.21222 0.0
C268 C 0.2772 0.05259 0.21569 0.0
H269 H 0.29387 0.10238 0.23415 0.0
Co270 Co 0.26902 0.09527 0.1877 0.0
C271 C 0.25751 0.05658 0.15172 0.0
O272 O 0.27685 0.05932 0.13952 0.0
N273 N 0.2597 0.11561 0.16368 0.0
C274 C 0.25159 0.13317 0.12981 0.0
C275 C 0.25865 0.11276 0.14013 0.0
C276 C 0.25422 0.1383 0.16702 0.0
N277 N 0.24903 0.14923 0.14678 0.0
O278 O 0.23936 0.10043 0.2036 0.0
H279 H 0.26329 0.09731 0.13056 0.0
H280 H 0.25476 0.14688 0.18387 0.0
O281 O 0.25385 0.06864 0.1704 0.0
C282 C 0.23776 0.11485 0.22069 0.0
O283 O 0.25652 0.12612 0.2278 0.0
N284 N 0.29897 0.0918 0.17341 0.0
C285 C 0.34312 0.09169 0.15217 0.0
C286 C 0.33326 0.07081 0.16059 0.0
C287 C 0.31107 0.07126 0.17124 0.0
C288 C 0.30977 0.11241 0.16777 0.0
C289 C 0.33148 0.11272 0.15653 0.0
H290 H 0.30332 0.05496 0.17687 0.0
H291 H 0.30141 0.1289 0.17164 0.0
H292 H 0.26771 0.04114 0.20403 0.0
H293 H 0.30306 0.06802 0.26267 0.0
H294 H 0.24922 0.13626 0.11124 0.0
H295 H 0.34209 0.05427 0.1579 0.0
H296 H 0.33896 0.12925 0.15092 0.0
C297 C 0.17346 0.03106 0.47509 0.0
C298 C 0.19206 0.03287 0.49015 0.0
N299 N 0.21168 0.02898 0.47772 0.0
N300 N 0.18142 0.02618 0.45324 0.0
C301 C 0.20492 0.02493 0.45545 0.0
H302 H 0.15524 0.0336 0.47968 0.0
Co303 Co 0.1622 0.02301 0.42703 0.0
C304 C 0.19257 0.99932 0.40028 0.0
O305 O 0.19328 0.02038 0.3911 0.0
N306 N 0.14194 0.01904 0.40088 0.0
C307 C 0.12245 0.02577 0.36767 0.0
C308 C 0.14187 0.03165 0.38087 0.0
C309 C 0.12279 0.00512 0.39896 0.0
N310 N 0.11057 0.00896 0.37918 0.0
O311 O 0.14239 0.00315 0.44661 0.0
H312 H 0.15466 0.04487 0.37652 0.0
H313 H 0.11672 0.99325 0.41227 0.0
O314 O 0.17899 0.99561 0.41772 0.0
C315 C 0.12364 0.99729 0.45733 0.0
O316 O 0.10527 0.01106 0.45674 0.0
N317 N 0.14778 0.05224 0.43421 0.0
C318 C 0.13625 0.09663 0.41787 0.0
C319 C 0.15813 0.09268 0.42796 0.0
C320 C 0.16383 0.0701 0.43519 0.0
C321 C 0.12501 0.05724 0.42914 0.0
C322 C 0.11895 0.07924 0.42006 0.0
H323 H 0.18212 0.06654 0.43832 0.0
H324 H 0.11233 0.04343 0.42874 0.0
H325 H 0.21684 0.02149 0.44112 0.0
H326 H 0.19137 0.03691 0.5087 0.0
H327 H 0.11704 0.03375 0.35136 0.0
H328 H 0.17186 0.10576 0.42664 0.0
H329 H 0.10165 0.08185 0.41277 0.0
C330 C 0.23372 0.92422 0.72745 0.0
C331 C 0.23104 0.94429 0.74031 0.0
N332 N 0.22625 0.96189 0.7255 0.0
N333 N 0.23135 0.92903 0.70437 0.0
C334 C 0.22609 0.95212 0.70383 0.0
H335 H 0.23729 0.90718 0.7347 0.0
Co336 Co 0.23698 0.90717 0.68018 0.0
C337 C 0.25528 0.93846 0.65012 0.0
O338 O 0.23407 0.93481 0.64202 0.0
N339 N 0.2427 0.88453 0.65651 0.0
C340 C 0.23577 0.86121 0.62589 0.0
C341 C 0.23025 0.88218 0.63653 0.0
C342 C 0.25578 0.86476 0.65741 0.0
N343 N 0.25153 0.85013 0.63935 0.0
O344 O 0.25997 0.89196 0.70117 0.0
H345 H 0.21676 0.89413 0.63086 0.0
H346 H 0.26734 0.86016 0.67148 0.0
O347 O 0.2619 0.92679 0.66808 0.0
C348 C 0.26901 0.87582 0.7138 0.0
O349 O 0.25859 0.85544 0.71584 0.0
N350 N 0.21007 0.89027 0.68897 0.0
C351 C 0.17012 0.8671 0.6729 0.0
C352 C 0.17245 0.89131 0.67028 0.0
C353 C 0.19241 0.90257 0.67872 0.0
C354 C 0.20683 0.86724 0.69444 0.0
C355 C 0.18646 0.85539 0.68707 0.0
H356 H 0.19531 0.92064 0.67389 0.0
H357 H 0.22059 0.85726 0.70214 0.0
H358 H 0.22245 0.96166 0.68799 0.0
H359 H 0.23231 0.94589 0.75919 0.0
H360 H 0.22793 0.85407 0.61017 0.0
H361 H 0.16007 0.90108 0.65979 0.0
H362 H 0.18497 0.8367 0.68982 0.0
C363 C 0.3319 0.97392 0.97189 0.0
C364 C 0.31293 0.97181 0.98654 0.0
N365 N 0.29361 0.97579 0.97385 0.0
N366 N 0.32464 0.97934 0.94997 0.0
C367 C 0.30098 0.9801 0.95172 0.0
H368 H 0.34997 0.97138 0.97691 0.0
Co369 Co 0.34566 0.98385 0.92473 0.0
C370 C 0.31412 0.00882 0.90027 0.0
O371 O 0.31064 0.98741 0.89262 0.0
N372 N 0.36779 0.98894 0.90014 0.0
C373 C 0.38663 0.98817 0.86568 0.0
C374 C 0.36605 0.98253 0.87739 0.0
C375 C 0.38963 0.99831 0.90169 0.0
N376 N 0.40132 0.99807 0.88121 0.0
O377 O 0.36412 0.00231 0.94611 0.0
H378 H 0.35088 0.97408 0.86981 0.0
H379 H 0.39756 0.00455 0.9176 0.0
O380 O 0.32961 0.01228 0.91599 0.0
C381 C 0.38093 0.00742 0.95978 0.0
O382 O 0.39785 0.99229 0.96329 0.0
N383 N 0.35957 0.95431 0.93101 0.0
C384 C 0.37179 0.91014 0.91426 0.0
C385 C 0.34886 0.91468 0.92139 0.0
C386 C 0.34301 0.93703 0.92908 0.0
C387 C 0.38273 0.94888 0.92806 0.0
C388 C 0.3892 0.92689 0.91906 0.0
H389 H 0.32459 0.94114 0.93021 0.0
H390 H 0.39602 0.96222 0.92959 0.0
H391 H 0.28938 0.98335 0.93715 0.0
H392 H 0.3132 0.96769 0.00507 0.0
H393 H 0.39051 0.98524 0.84732 0.0
H394 H 0.33497 0.90225 0.91768 0.0
H395 H 0.40718 0.9239 0.91369 0.0
C396 C 0.29219 0.91672 0.27779 0.0
C397 C 0.296 0.93632 0.26453 0.0
N398 N 0.28391 0.95408 0.27419 0.0
N399 N 0.27792 0.92207 0.29588 0.0
C400 C 0.27285 0.94502 0.29311 0.0
H401 H 0.29988 0.8997 0.27484 0.0
Co402 Co 0.27156 0.9004 0.31908 0.0
C403 C 0.25207 0.92772 0.36005 0.0
O404 O 0.26054 0.91332 0.37572 0.0
N405 N 0.2657 0.87718 0.34237 0.0
C406 C 0.27204 0.85071 0.37045 0.0
C407 C 0.27972 0.87114 0.36051 0.0
C408 C 0.24904 0.86026 0.34238 0.0
N409 N 0.2529 0.84376 0.3588 0.0
O410 O 0.24172 0.89438 0.30504 0.0
H411 H 0.2947 0.88089 0.36644 0.0
H412 H 0.23457 0.85964 0.33042 0.0
O413 O 0.25618 0.92466 0.33821 0.0
C414 C 0.2401 0.88162 0.28676 0.0
O415 O 0.25897 0.87214 0.27762 0.0
N416 N 0.30168 0.90568 0.33108 0.0
C417 C 0.34627 0.90348 0.35022 0.0
C418 C 0.33094 0.92149 0.35665 0.0
C419 C 0.30871 0.92253 0.34651 0.0
C420 C 0.31721 0.88937 0.32309 0.0
C421 C 0.33975 0.888 0.33236 0.0
H422 H 0.29696 0.93598 0.35221 0.0
H423 H 0.31146 0.87637 0.31054 0.0
H424 H 0.26197 0.95507 0.30496 0.0
H425 H 0.30707 0.93763 0.24912 0.0
H426 H 0.28014 0.84136 0.38479 0.0
H427 H 0.33562 0.93376 0.37037 0.0
H428 H 0.35122 0.87384 0.32712 0.0
C429 C 0.33974 0.04082 0.52422 0.0
C430 C 0.32181 0.04217 0.50824 0.0
N431 N 0.30236 0.03337 0.51834 0.0
N432 N 0.33167 0.03082 0.54407 0.0
C433 C 0.30873 0.02665 0.54006 0.0
H434 H 0.35762 0.04654 0.52149 0.0
Co435 Co 0.35053 0.02355 0.56929 0.0
C436 C 0.31117 0.0102 0.60376 0.0
O437 O 0.31053 0.03011 0.61524 0.0
N438 N 0.36991 0.01617 0.59444 0.0
C439 C 0.38558 0.01059 0.62969 0.0
C440 C 0.36594 0.01747 0.61784 0.0
C441 C 0.39242 0.00957 0.59259 0.0
N442 N 0.40219 0.00588 0.61371 0.0
O443 O 0.35696 0.99356 0.55504 0.0
H444 H 0.3502 0.02359 0.62612 0.0
H445 H 0.40163 0.00789 0.57612 0.0
O446 O 0.32459 0.0077 0.58594 0.0
C447 C 0.37111 0.99092 0.53786 0.0
O448 O 0.38292 0.00893 0.52976 0.0
N449 N 0.34552 0.0537 0.58209 0.0
C450 C 0.3443 0.09785 0.60292 0.0
C451 C 0.32359 0.08738 0.59463 0.0
C452 C 0.3246 0.06513 0.58419 0.0
C453 C 0.36589 0.06523 0.58714 0.0
C454 C 0.36566 0.08694 0.59819 0.0
H455 H 0.30855 0.05685 0.57847 0.0
H456 H 0.3826 0.05726 0.5832 0.0
H457 H 0.2969 0.01866 0.55259 0.0
H458 H 0.32283 0.04926 0.49066 0.0
H459 H 0.38773 0.00953 0.64852 0.0
H460 H 0.30681 0.09581 0.59726 0.0
H461 H 0.38207 0.09493 0.60345 0.0
C462 C 0.20514 0.08671 0.77798 0.0
C463 C 0.20189 0.06913 0.76184 0.0
N464 N 0.21788 0.05246 0.76603 0.0
N465 N 0.22286 0.081 0.79249 0.0
C466 C 0.23051 0.06002 0.78458 0.0
H467 H 0.19502 0.10263 0.77935 0.0
Co468 Co 0.23201 0.10113 0.81659 0.0
C469 C 0.24849 0.05557 0.84259 0.0
O470 O 0.23326 0.03967 0.836 0.0
N471 N 0.24123 0.12179 0.84037 0.0
C472 C 0.24301 0.14005 0.87472 0.0
C473 C 0.23703 0.11957 0.86359 0.0
C474 C 0.25083 0.14326 0.83804 0.0
N475 N 0.25186 0.15491 0.85863 0.0
O476 O 0.26108 0.1063 0.80085 0.0
H477 H 0.22882 0.10453 0.8717 0.0
H478 H 0.25606 0.15064 0.82147 0.0
O479 O 0.24717 0.07659 0.83514 0.0
C480 C 0.26165 0.11945 0.78283 0.0
O481 O 0.2422 0.12876 0.77496 0.0
N482 N 0.20234 0.09715 0.83122 0.0
C483 C 0.15927 0.09507 0.85433 0.0
C484 C 0.16938 0.07473 0.84508 0.0
C485 C 0.19117 0.07613 0.83381 0.0
C486 C 0.19097 0.11732 0.83721 0.0
C487 C 0.16989 0.11664 0.84958 0.0
H488 H 0.19867 0.06042 0.82672 0.0
H489 H 0.19873 0.13413 0.83318 0.0
H490 H 0.24487 0.05039 0.79221 0.0
H491 H 0.18862 0.06838 0.74834 0.0
H492 H 0.24068 0.14391 0.89318 0.0
H493 H 0.16102 0.05786 0.84748 0.0
H494 H 0.16207 0.13282 0.85565 0.0
C495 C 0.16684 0.96624 0.02542 0.0
C496 C 0.18408 0.96494 0.00863 0.0
N497 N 0.20402 0.97313 0.01805 0.0
N498 N 0.17573 0.97515 0.04548 0.0
C499 C 0.1985 0.97958 0.0402 0.0
H500 H 0.14867 0.96155 0.0229 0.0
Co501 Co 0.15565 0.98162 0.07086 0.0
C502 C 0.20172 0.99209 0.09695 0.0
O503 O 0.21235 0.97253 0.09117 0.0
N504 N 0.13463 0.98807 0.09495 0.0
C505 C 0.11732 0.99993 0.12784 0.0
C506 C 0.13835 0.99408 0.11758 0.0
C507 C 0.11129 0.99012 0.09199 0.0
N508 N 0.10045 0.99767 0.11158 0.0
O509 O 0.14989 0.01198 0.05784 0.0
H510 H 0.15529 0.99555 0.12586 0.0
H511 H 0.10257 0.98749 0.07539 0.0
O512 O 0.1809 0.99597 0.08969 0.0
C513 C 0.13402 0.01555 0.04259 0.0
O514 O 0.12141 0.99798 0.03474 0.0
N515 N 0.16001 0.95129 0.08332 0.0
C516 C 0.15545 0.90699 0.10347 0.0
C517 C 0.16711 0.92499 0.11532 0.0
C518 C 0.16864 0.94712 0.10523 0.0
C519 C 0.14943 0.93359 0.07114 0.0
C520 C 0.14698 0.91123 0.08088 0.0
H521 H 0.17493 0.96112 0.11605 0.0
H522 H 0.14115 0.93719 0.05456 0.0
H523 H 0.2107 0.98839 0.05157 0.0
H524 H 0.1822 0.95852 0.99086 0.0
H525 H 0.11485 0.00716 0.14523 0.0
H526 H 0.17303 0.92253 0.13319 0.0
H527 H 0.13711 0.89793 0.0716 0.0
C528 C 0.23698 0.28275 0.09233 0.0
C529 C 0.25168 0.28536 0.07338 0.0
N530 N 0.23862 0.28417 0.05389 0.0
N531 N 0.21482 0.27915 0.08486 0.0
C532 C 0.21629 0.28123 0.06128 0.0
H533 H 0.24235 0.28303 0.11045 0.0
Co534 Co 0.18973 0.27278 0.10523 0.0
C535 C 0.14897 0.25722 0.0745 0.0
O536 O 0.13431 0.27099 0.0856 0.0
N537 N 0.16449 0.26674 0.12699 0.0
C538 C 0.13378 0.27206 0.15102 0.0
C539 C 0.14574 0.28047 0.13191 0.0
C540 C 0.16272 0.2495 0.14324 0.0
N541 N 0.14472 0.25274 0.15828 0.0
O542 O 0.20277 0.24285 0.11143 0.0
H543 H 0.14095 0.29611 0.12268 0.0
H544 H 0.17447 0.23494 0.14449 0.0
O545 O 0.1709 0.25794 0.07958 0.0
C546 C 0.21709 0.24178 0.12854 0.0
O547 O 0.22113 0.2605 0.14129 0.0
N548 N 0.17951 0.30316 0.10102 0.0
C549 C 0.16088 0.34569 0.11369 0.0
C550 C 0.15344 0.33461 0.09294 0.0
C551 C 0.16378 0.31335 0.08631 0.0
C552 C 0.18944 0.31562 0.11881 0.0
C553 C 0.18064 0.33732 0.12523 0.0
H554 H 0.15762 0.30431 0.07089 0.0
H555 H 0.20271 0.30752 0.12957 0.0
H556 H 0.20148 0.28122 0.04973 0.0
H557 H 0.27053 0.28751 0.07378 0.0
H558 H 0.11895 0.28015 0.15969 0.0
H559 H 0.13868 0.3413 0.08315 0.0
H560 H 0.18711 0.34584 0.14093 0.0
C561 C 0.72657 0.22157 0.92348 0.0
C562 C 0.74067 0.21918 0.94266 0.0
N563 N 0.72738 0.22223 0.96186 0.0
N564 N 0.70445 0.22674 0.93033 0.0
C565 C 0.70544 0.2266 0.95406 0.0
H566 H 0.73208 0.21875 0.90563 0.0
Co567 Co 0.67954 0.2313 0.90903 0.0
C568 C 0.65185 0.25636 0.93746 0.0
O569 O 0.64245 0.23542 0.93892 0.0
N570 N 0.65537 0.23657 0.88716 0.0
C571 C 0.62232 0.23335 0.86659 0.0
C572 C 0.6337 0.22696 0.88691 0.0
C573 C 0.65647 0.24923 0.86713 0.0
N574 N 0.63686 0.24723 0.85429 0.0
O575 O 0.70086 0.25093 0.89101 0.0
H576 H 0.62666 0.21587 0.9005 0.0
H577 H 0.67158 0.25912 0.86138 0.0
O578 O 0.67031 0.25919 0.92514 0.0
C579 C 0.71782 0.25512 0.87704 0.0
O580 O 0.72867 0.23758 0.86682 0.0
N581 N 0.68625 0.20169 0.89456 0.0
C582 C 0.66786 0.15761 0.88354 0.0
C583 C 0.67764 0.1618 0.90551 0.0
C584 C 0.68603 0.18406 0.91087 0.0
C585 C 0.68112 0.19644 0.87172 0.0
C586 C 0.67104 0.17459 0.86595 0.0
H587 H 0.6889 0.18763 0.92919 0.0
H588 H 0.68162 0.21 0.85856 0.0
H589 H 0.69039 0.22904 0.96537 0.0
H590 H 0.75913 0.21482 0.94263 0.0
H591 H 0.60495 0.22804 0.86112 0.0
H592 H 0.67547 0.14916 0.91951 0.0
H593 H 0.66383 0.17187 0.84861 0.0
C594 C 0.03474 0.4787 0.16734 0.0
C595 C 0.03911 0.49227 0.18666 0.0
N596 N 0.03116 0.48114 0.20607 0.0
N597 N 0.02298 0.45946 0.17403 0.0
C598 C 0.0204 0.46168 0.19745 0.0
H599 H 0.04 0.48254 0.14952 0.0
Co600 Co 0.0153 0.43508 0.15388 0.0
C601 C 0.00585 0.39578 0.1893 0.0
O602 O 0.02296 0.38235 0.18198 0.0
N603 N 0.0079 0.41017 0.13278 0.0
C604 C 0.01273 0.37938 0.10909 0.0
C605 C 0.0195 0.3897 0.12974 0.0
C606 C 0.99337 0.41107 0.11414 0.0
N607 N 0.99647 0.39305 0.09917 0.0
O608 O 0.98526 0.44833 0.14983 0.0
H609 H 0.03375 0.38355 0.14044 0.0
H610 H 0.9816 0.42515 0.11085 0.0
O611 O 1.00252 0.41596 0.18012 0.0
C612 C 0.98495 0.46532 0.13534 0.0
O613 O 0.00406 0.47101 0.12379 0.0
N614 N 0.04573 0.42474 0.15597 0.0
C615 C 0.09041 0.40795 0.14899 0.0
C616 C 0.08107 0.40926 0.17184 0.0
C617 C 0.05833 0.41787 0.17499 0.0
C618 C 0.05621 0.42735 0.13464 0.0
C619 C 0.0783 0.4183 0.13051 0.0
H620 H 0.0506 0.41825 0.19231 0.0
H621 H 0.04647 0.43482 0.12023 0.0
H622 H 0.01049 0.44919 0.20741 0.0
H623 H 0.04747 0.50928 0.18625 0.0
H624 H 0.02016 0.36381 0.10124 0.0
H625 H 0.09048 0.40205 0.18661 0.0
H626 H 0.08523 0.41813 0.11279 0.0
C627 C 0.77382 0.78995 0.41387 0.0
C628 C 0.75856 0.79217 0.43248 0.0
N629 N 0.76896 0.7832 0.4516 0.0
N630 N 0.79347 0.77912 0.42114 0.0
C631 C 0.79002 0.77538 0.44429 0.0
H632 H 0.77079 0.79591 0.39616 0.0
Co633 Co 0.81879 0.77102 0.40207 0.0
C634 C 0.85362 0.76186 0.44094 0.0
O635 O 0.86533 0.78131 0.43704 0.0
N636 N 0.84443 0.76245 0.38229 0.0
C637 C 0.87909 0.75292 0.36651 0.0
C638 C 0.86746 0.75854 0.38677 0.0
C639 C 0.84284 0.75928 0.35886 0.0
N640 N 0.8636 0.75358 0.34902 0.0
O641 O 0.80464 0.74143 0.39676 0.0
H642 H 0.87596 0.75902 0.40342 0.0
H643 H 0.8268 0.76137 0.34912 0.0
O644 O 0.83526 0.75731 0.42902 0.0
C645 C 0.78786 0.74117 0.38208 0.0
O646 O 0.7824 0.76033 0.37069 0.0
N647 N 0.83097 0.80118 0.40558 0.0
C648 C 0.84786 0.84664 0.40408 0.0
C649 C 0.84015 0.83709 0.42542 0.0
C650 C 0.83178 0.81406 0.42581 0.0
C651 C 0.83526 0.81166 0.38454 0.0
C652 C 0.84452 0.83401 0.38342 0.0
H653 H 0.82655 0.80644 0.44234 0.0
H654 H 0.83159 0.80267 0.36834 0.0
H655 H 0.80263 0.76724 0.45579 0.0
H656 H 0.7414 0.8002 0.43219 0.0
H657 H 0.89734 0.74802 0.3648 0.0
H658 H 0.84187 0.84684 0.44163 0.0
H659 H 0.8494 0.84123 0.36652 0.0
C660 C 0.97962 0.02456 0.16945 0.0
C661 C 0.97837 0.01115 0.1893 0.0
N662 N 0.97606 0.02553 0.2078 0.0
N663 N 0.97867 0.04749 0.17527 0.0
C664 C 0.976 0.04746 0.19888 0.0
H665 H 0.98096 0.01784 0.15182 0.0
Co666 Co 0.982 0.07228 0.15365 0.0
C667 C 1.00134 0.10205 0.18405 0.0
O668 O 0.97931 0.10858 0.18313 0.0
N669 N 0.98635 0.09704 0.13137 0.0
C670 C 0.98119 0.1302 0.11131 0.0
C671 C 0.97566 0.11811 0.1315 0.0
C672 C 0.99874 0.09713 0.11097 0.0
N673 N 0.99576 0.11688 0.09847 0.0
O674 O 0.00421 0.05266 0.13697 0.0
H675 H 0.9643 0.12436 0.14522 0.0
H676 H 0.00882 0.08265 0.1044 0.0
O677 O 0.00768 0.08456 0.17167 0.0
C678 C 0.00927 0.03966 0.11953 0.0
O679 O 0.99382 0.03581 0.10297 0.0
N680 N 0.95443 0.06212 0.13749 0.0
C681 C 0.9125 0.08194 0.1233 0.0
C682 C 0.91377 0.07063 0.14499 0.0
C683 C 0.93526 0.06134 0.15205 0.0
C684 C 0.95113 0.06711 0.11434 0.0
C685 C 0.93056 0.0782 0.10705 0.0
H686 H 0.93713 0.05741 0.17043 0.0
H687 H 0.96557 0.0666 0.10235 0.0
H688 H 0.97412 0.06307 0.20933 0.0
H689 H 0.97879 0.99223 0.19015 0.0
H690 H 0.97491 0.14734 0.10635 0.0
H691 H 0.89986 0.0727 0.15781 0.0
H692 H 0.92982 0.08596 0.08974 0.0
C693 C 0.28183 0.71523 0.58391 0.0
C694 C 0.26602 0.71442 0.56597 0.0
N695 N 0.27522 0.72603 0.54772 0.0
N696 N 0.30121 0.72726 0.57719 0.0
C697 C 0.29657 0.73365 0.55477 0.0
H698 H 0.2792 0.70728 0.60088 0.0
Co699 Co 0.32636 0.73399 0.59801 0.0
C700 C 0.35265 0.7564 0.56844 0.0
O701 O 0.36163 0.73534 0.5703 0.0
N702 N 0.35027 0.74097 0.61972 0.0
C703 C 0.3815 0.73641 0.64264 0.0
C704 C 0.37079 0.72949 0.62209 0.0
C705 C 0.34904 0.75495 0.63891 0.0
N706 N 0.36764 0.7523 0.65313 0.0
O707 O 0.30458 0.75295 0.61569 0.0
H708 H 0.37682 0.7158 0.61045 0.0
H709 H 0.33431 0.76602 0.64322 0.0
O710 O 0.33436 0.76125 0.5804 0.0
C711 C 0.28574 0.75553 0.62743 0.0
O712 O 0.27283 0.73725 0.63284 0.0
N713 N 0.32186 0.70526 0.6131 0.0
C714 C 0.34032 0.6625 0.62752 0.0
C715 C 0.33826 0.66775 0.60376 0.0
C716 C 0.32918 0.68916 0.59698 0.0
C717 C 0.32149 0.69985 0.63641 0.0
C718 C 0.33041 0.67811 0.64404 0.0
H719 H 0.33074 0.69402 0.57872 0.0
H720 H 0.31683 0.71308 0.64917 0.0
H721 H 0.3083 0.74386 0.54391 0.0
H722 H 0.24917 0.70567 0.5661 0.0
H723 H 0.39758 0.72953 0.64989 0.0
H724 H 0.34581 0.65637 0.59053 0.0
H725 H 0.33188 0.67463 0.66264 0.0
C726 C 0.03141 0.53134 0.33128 0.0
C727 C 0.03369 0.51674 0.31249 0.0
N728 N 0.02615 0.52815 0.29346 0.0
N729 N 0.02232 0.55204 0.32437 0.0
C730 C 0.01942 0.5496 0.30091 0.0
H731 H 0.03689 0.52726 0.34887 0.0
Co732 Co 0.01732 0.57675 0.34575 0.0
C733 C 0.992 0.60177 0.31622 0.0
O734 O 0.01332 0.61038 0.3145 0.0
N735 N 0.01172 0.60074 0.36814 0.0
C736 C 0.01669 0.63269 0.39007 0.0
C737 C 0.02233 0.62183 0.36916 0.0
C738 C 0.99899 0.59962 0.38828 0.0
N739 N 1.002 0.61861 0.4021 0.0
O740 O 1.00009 0.55432 0.36515 0.0
H741 H 0.03391 0.62862 0.35581 0.0
H742 H 0.98824 0.5849 0.39326 0.0
O743 O 0.98841 0.58478 0.33035 0.0
C744 C 1.00056 0.53806 0.38047 0.0
O745 O 0.02038 0.53139 0.38993 0.0
N746 N 0.04773 0.57171 0.35863 0.0
C747 C 0.09222 0.58877 0.36964 0.0
C748 C 0.08738 0.5808 0.34704 0.0
C749 C 0.06476 0.57339 0.3417 0.0
C750 C 0.05358 0.57513 0.38156 0.0
C751 C 0.07564 0.5845 0.38744 0.0
H752 H 0.06035 0.57201 0.32336 0.0
H753 H 0.04034 0.57354 0.39487 0.0
H754 H 0.01322 0.56328 0.28946 0.0
H755 H 0.04067 0.49913 0.31262 0.0
H756 H 0.02321 0.64941 0.3962 0.0
H757 H 0.09968 0.584 0.33286 0.0
H758 H 0.07887 0.59035 0.40522 0.0
C759 C 0.4582 0.47477 0.83667 0.0
C760 C 0.45511 0.48906 0.81774 0.0
N761 N 0.46821 0.48118 0.79959 0.0
N762 N 0.47408 0.45826 0.83142 0.0
C763 C 0.48101 0.46358 0.80933 0.0
H764 H 0.44963 0.47657 0.85351 0.0
Co765 Co 0.48158 0.43532 0.85367 0.0
C766 C 0.5005 0.40773 0.81002 0.0
O767 O 0.4857 0.41442 0.79383 0.0
N768 N 0.4886 0.41251 0.87684 0.0
C769 C 0.4873 0.38036 0.89901 0.0
C770 C 0.48002 0.39046 0.8784 0.0
C771 C 0.50194 0.41477 0.8963 0.0
N772 N 0.50106 0.39577 0.91033 0.0
O773 O 0.50988 0.4513 0.86005 0.0
H774 H 0.46889 0.38215 0.86557 0.0
H775 H 0.51215 0.42994 0.90022 0.0
O776 O 0.49874 0.41524 0.83111 0.0
C777 C 0.50826 0.46921 0.87332 0.0
O778 O 0.48783 0.47526 0.88204 0.0
N779 N 0.45233 0.4215 0.84887 0.0
C780 C 0.40743 0.40301 0.85101 0.0
C781 C 0.42257 0.39677 0.83274 0.0
C782 C 0.44506 0.40623 0.83197 0.0
C783 C 0.43718 0.42885 0.86589 0.0
C784 C 0.41453 0.41982 0.86732 0.0
H785 H 0.45666 0.3999 0.81878 0.0
H786 H 0.44322 0.44103 0.87911 0.0
H787 H 0.4961 0.45559 0.80137 0.0
H788 H 0.44429 0.50456 0.81783 0.0
H789 H 0.4828 0.36303 0.90525 0.0
H790 H 0.41766 0.38331 0.82026 0.0
H791 H 0.40335 0.42454 0.88196 0.0
C792 C 0.5897 0.72756 0.79204 0.0
C793 C 0.57053 0.74183 0.79452 0.0
N794 N 0.55323 0.73318 0.78112 0.0
N795 N 0.58462 0.7099 0.77713 0.0
C796 C 0.56209 0.7138 0.77073 0.0
H797 H 0.6064 0.73001 0.8006 0.0
Co798 Co 0.60663 0.687 0.76859 0.0
C799 C 0.57746 0.64629 0.7509 0.0
O800 O 0.58975 0.63057 0.76207 0.0
N801 N 0.62976 0.66381 0.7601 0.0
C802 C 0.65515 0.63414 0.76305 0.0
C803 C 0.63504 0.64391 0.77182 0.0
C804 C 0.6469 0.66503 0.74355 0.0
N805 N 0.66285 0.64764 0.74545 0.0
O806 O 0.61202 0.70306 0.7403 0.0
H807 H 0.62541 0.63701 0.78652 0.0
H808 H 0.64829 0.67877 0.73087 0.0
O809 O 0.5819 0.66816 0.75321 0.0
C810 C 0.62627 0.72007 0.74324 0.0
O811 O 0.63535 0.72393 0.76401 0.0
N812 N 0.60351 0.67393 0.79796 0.0
C813 C 0.61509 0.6547 0.84064 0.0
C814 C 0.59462 0.64739 0.82901 0.0
C815 C 0.58863 0.6579 0.80764 0.0
C816 C 0.62179 0.68286 0.81044 0.0
C817 C 0.6277 0.67376 0.8321 0.0
H818 H 0.57329 0.65201 0.79831 0.0
H819 H 0.63301 0.69597 0.80257 0.0
H820 H 0.55236 0.70281 0.75872 0.0
H821 H 0.56926 0.7573 0.80542 0.0
H822 H 0.66438 0.61924 0.77018 0.0
H823 H 0.58431 0.63288 0.83564 0.0
H824 H 0.64343 0.67982 0.84083 0.0
C825 C 0.52622 0.33142 0.03808 0.0
C826 C 0.50992 0.31388 0.03758 0.0
N827 N 0.52002 0.2951 0.02787 0.0
N828 N 0.54674 0.32387 0.02877 0.0
C829 C 0.54226 0.30138 0.02266 0.0
H830 H 0.52338 0.34836 0.04589 0.0
Co831 Co 0.57367 0.34326 0.02621 0.0
C832 C 0.59708 0.30907 0.00312 0.0
O833 O 0.59738 0.30092 0.02465 0.0
N834 N 0.5994 0.36333 0.02297 0.0
C835 C 0.63507 0.37777 0.01618 0.0
C836 C 0.62251 0.35874 0.02428 0.0
C837 C 0.59844 0.38561 0.01531 0.0
N838 N 0.61969 0.39468 0.01067 0.0
O839 O 0.55529 0.36315 0.00548 0.0
H840 H 0.62978 0.34269 0.03055 0.0
H841 H 0.58239 0.39504 0.01217 0.0
O842 O 0.58439 0.32693 0.99878 0.0
C843 C 0.53778 0.37673 0.00292 0.0
O844 O 0.5254 0.38317 0.02125 0.0
N845 N 0.56632 0.35749 0.05517 0.0
C846 C 0.58398 0.36904 0.09907 0.0
C847 C 0.57779 0.34599 0.09394 0.0
C848 C 0.5695 0.34054 0.07173 0.0
C849 C 0.56833 0.38056 0.06122 0.0
C850 C 0.57776 0.38675 0.08317 0.0
H851 H 0.56896 0.32228 0.06679 0.0
H852 H 0.56548 0.39407 0.04837 0.0
H853 H 0.55495 0.28955 0.01512 0.0
H854 H 0.49234 0.31443 0.0448 0.0
H855 H 0.65391 0.37902 0.01429 0.0
H856 H 0.58254 0.33192 0.10571 0.0
H857 H 0.58232 0.40482 0.08668 0.0
C858 C 0.91751 0.28192 0.29966 0.0
C859 C 0.93572 0.26641 0.30245 0.0
N860 N 0.95303 0.27252 0.28758 0.0
N861 N 0.92326 0.29777 0.2831 0.0
C862 C 0.94507 0.29153 0.27596 0.0
H863 H 0.9011 0.28179 0.30921 0.0
Co864 Co 0.90301 0.32182 0.27359 0.0
C865 C 0.9416 0.35621 0.25851 0.0
O866 O 0.93908 0.36946 0.27716 0.0
N867 N 0.88184 0.34546 0.26353 0.0
C868 C 0.86434 0.37825 0.25159 0.0
C869 C 0.88487 0.36864 0.25967 0.0
C870 C 0.85901 0.34172 0.25822 0.0
N871 N 0.84813 0.36124 0.25071 0.0
O872 O 0.8955 0.304 0.24586 0.0
H873 H 0.90079 0.37832 0.26226 0.0
H874 H 0.85049 0.32508 0.26005 0.0
O875 O 0.92908 0.33764 0.25608 0.0
C876 C 0.88086 0.2871 0.24774 0.0
O877 O 0.87233 0.28166 0.26845 0.0
N878 N 0.90855 0.338 0.30234 0.0
C879 C 0.91157 0.35874 0.34681 0.0
C880 C 0.93154 0.34921 0.336 0.0
C881 C 0.92965 0.33889 0.31371 0.0
C882 C 0.88879 0.34552 0.31364 0.0
C883 C 0.88999 0.35644 0.33548 0.0
H884 H 0.94519 0.33175 0.30554 0.0
H885 H 0.87173 0.34282 0.30597 0.0
H886 H 0.95506 0.30076 0.2627 0.0
H887 H 0.93639 0.25195 0.31468 0.0
H888 H 0.86161 0.39623 0.24635 0.0
H889 H 0.94844 0.35012 0.34455 0.0
H890 H 0.87406 0.3629 0.34358 0.0
C891 C 0.97522 0.67572 0.53468 0.0
C892 C 0.98964 0.69475 0.53741 0.0
N893 N 0.97653 0.71409 0.53561 0.0
N894 N 0.95306 0.68275 0.53027 0.0
C895 C 0.95433 0.70636 0.53214 0.0
H896 H 0.98071 0.65788 0.53641 0.0
Co897 Co 0.92785 0.66242 0.52193 0.0
C898 C 0.90396 0.69786 0.50131 0.0
O899 O 0.89668 0.69925 0.52314 0.0
N900 N 0.90353 0.64155 0.51378 0.0
C901 C 0.87088 0.62021 0.51704 0.0
C902 C 0.88204 0.64067 0.52372 0.0
C903 C 0.90494 0.62154 0.501 0.0
N904 N 0.88547 0.60828 0.50286 0.0
O905 O 0.94905 0.64592 0.50051 0.0
H906 H 0.87546 0.6534 0.53614 0.0
H907 H 0.92032 0.6159 0.49148 0.0
O908 O 0.91942 0.68257 0.49603 0.0
C909 C 0.96661 0.63267 0.49651 0.0
O910 O 0.97817 0.62334 0.51403 0.0
N911 N 0.93317 0.64442 0.5486 0.0
C912 C 0.91846 0.6214 0.5898 0.0
C913 C 0.91604 0.64575 0.58701 0.0
C914 C 0.92394 0.65683 0.56675 0.0
C915 C 0.93662 0.62095 0.55071 0.0
C916 C 0.9302 0.6093 0.5715 0.0
H917 H 0.92006 0.67519 0.56436 0.0
H918 H 0.94234 0.61076 0.53583 0.0
H919 H 0.93933 0.71756 0.53177 0.0
H920 H 0.00832 0.69448 0.54067 0.0
H921 H 0.85383 0.61414 0.52282 0.0
H922 H 0.90653 0.65623 0.59967 0.0
H923 H 0.9338 0.59093 0.57216 0.0
C924 C 0.58569 0.27824 0.72463 0.0
C925 C 0.56712 0.26323 0.72181 0.0
N926 N 0.5474 0.27526 0.72606 0.0
N927 N 0.57775 0.29971 0.7307 0.0
C928 C 0.55415 0.29735 0.73125 0.0
H929 H 0.60396 0.27372 0.72248 0.0
Co930 Co 0.59782 0.32506 0.73697 0.0
C931 C 0.56464 0.35 0.76084 0.0
O932 O 0.56209 0.3583 0.73955 0.0
N933 N 0.61856 0.34991 0.74324 0.0
C934 C 0.63647 0.38468 0.74214 0.0
C935 C 0.61635 0.37242 0.7364 0.0
C936 C 0.64015 0.34894 0.75291 0.0
N937 N 0.65131 0.36963 0.75235 0.0
O938 O 0.6151 0.30403 0.75728 0.0
H939 H 0.6014 0.37935 0.72714 0.0
H940 H 0.64829 0.33326 0.75942 0.0
O941 O 0.57946 0.33368 0.76426 0.0
C942 C 0.63134 0.29 0.76323 0.0
O943 O 0.64813 0.28474 0.74835 0.0
N944 N 0.61455 0.31895 0.70896 0.0
C945 C 0.63393 0.33495 0.66708 0.0
C946 C 0.60973 0.3318 0.66919 0.0
C947 C 0.60038 0.32388 0.69036 0.0
C948 C 0.63835 0.31886 0.70608 0.0
C949 C 0.64846 0.32672 0.68504 0.0
H950 H 0.58162 0.32482 0.69287 0.0
H951 H 0.64978 0.31607 0.72072 0.0
H952 H 0.54216 0.3114 0.7353 0.0
H953 H 0.56796 0.24484 0.71731 0.0
H954 H 0.64007 0.40297 0.73878 0.0
H955 H 0.59802 0.33823 0.65575 0.0
H956 H 0.66725 0.3293 0.68405 0.0
C957 C 0.97384 0.3337 0.97038 0.0
C958 C 0.98953 0.31576 0.96854 0.0
N959 N 0.97799 0.29575 0.97284 0.0
N960 N 0.95251 0.3253 0.97656 0.0
C961 C 0.95548 0.30183 0.97705 0.0
H962 H 0.9778 0.35176 0.96682 0.0
Co963 Co 0.92645 0.34477 0.98282 0.0
C964 C 0.90421 0.31115 0.0066 0.0
O965 O 0.89705 0.30804 0.98495 0.0
N966 N 0.90131 0.36519 0.98935 0.0
C967 C 0.86799 0.38518 0.98574 0.0
C968 C 0.87988 0.36504 0.97939 0.0
C969 C 0.90184 0.38532 1.00197 0.0
N970 N 0.88201 0.39783 0.99985 0.0
O971 O 0.94702 0.36426 1.00132 0.0
H972 H 0.87384 0.35184 0.96721 0.0
H973 H 0.91681 0.39162 0.01166 0.0
O974 O 0.91909 0.32733 0.0108 0.0
C975 C 0.96326 0.37925 0.00458 0.0
O976 O 0.97364 0.38916 0.98654 0.0
N977 N 0.93104 0.35972 0.95401 0.0
C978 C 0.91377 0.37364 0.91068 0.0
C979 C 0.91772 0.35007 0.91535 0.0
C980 C 0.92613 0.34349 0.93713 0.0
C981 C 0.93006 0.38305 0.949 0.0
C982 C 0.92164 0.39047 0.92702 0.0
H983 H 0.9257 0.3251 0.94151 0.0
H984 H 0.93299 0.39583 0.96267 0.0
H985 H 0.94147 0.28942 0.9797 0.0
H986 H 0.00791 0.31715 0.96396 0.0
H987 H 0.85092 0.39063 0.97962 0.0
H988 H 0.91175 0.33664 0.9033 0.0
H989 H 0.91863 0.40891 0.92396 0.0
C990 C 0.9153 0.72626 0.20782 0.0
C991 C 0.93348 0.742 0.20639 0.0
N992 N 0.95136 0.73358 0.2191 0.0
N993 N 0.92162 0.70814 0.22155 0.0
C994 C 0.94388 0.713 0.22799 0.0
H995 H 0.89848 0.72781 0.19929 0.0
Co996 Co 0.90115 0.68369 0.2284 0.0
C997 C 0.94372 0.65159 0.24378 0.0
O998 O 0.9538 0.6472 0.22357 0.0
N999 N 0.88023 0.65907 0.23523 0.0
C1000 C 0.86577 0.62332 0.24145 0.0
C1001 C 0.88526 0.636 0.2351 0.0
C1002 C 0.85722 0.6599 0.24064 0.0
N1003 N 0.84812 0.63843 0.24484 0.0
O1004 O 0.8941 0.69822 0.25778 0.0
H1005 H 0.90195 0.62879 0.23033 0.0
H1006 H 0.84726 0.67585 0.24133 0.0
O1007 O 0.92559 0.66482 0.24484 0.0
C1008 C 0.8815 0.71665 0.25781 0.0
O1009 O 0.87247 0.72434 0.23815 0.0
N1010 N 0.90627 0.67121 0.19846 0.0
C1011 C 0.90669 0.65231 0.15371 0.0
C1012 C 0.92781 0.6585 0.16458 0.0
C1013 C 0.92714 0.66869 0.18694 0.0
C1014 C 0.88575 0.66822 0.18657 0.0
C1015 C 0.88553 0.65832 0.16436 0.0
H1016 H 0.94323 0.67471 0.19477 0.0
H1017 H 0.86928 0.67306 0.19458 0.0
H1018 H 0.95464 0.70164 0.23849 0.0
H1019 H 0.93381 0.75814 0.19647 0.0
H1020 H 0.86465 0.60454 0.24367 0.0
H1021 H 0.94449 0.65476 0.15628 0.0
H1022 H 0.86893 0.65439 0.15603 0.0
C1023 C 0.53174 0.67324 0.46434 0.0
C1024 C 0.51573 0.69093 0.46317 0.0
N1025 N 0.52411 0.70893 0.47562 0.0
N1026 N 0.55039 0.67987 0.47756 0.0
C1027 C 0.54498 0.70201 0.4842 0.0
H1028 H 0.52961 0.65657 0.45569 0.0
Co1029 Co 0.57681 0.66067 0.48465 0.0
C1030 C 0.59966 0.69894 0.50165 0.0
O1031 O 0.60015 0.70341 0.47905 0.0
N1032 N 0.60211 0.64128 0.49186 0.0
C1033 C 0.63755 0.62716 0.49979 0.0
C1034 C 0.62524 0.64621 0.49157 0.0
C1035 C 0.60086 0.61908 0.49984 0.0
N1036 N 0.62206 0.61003 0.50465 0.0
O1037 O 0.55784 0.64472 0.50821 0.0
H1038 H 0.6327 0.66263 0.48606 0.0
H1039 H 0.58466 0.60975 0.50295 0.0
O1040 O 0.5873 0.68165 0.50872 0.0
C1041 C 0.53772 0.63519 0.51051 0.0
O1042 O 0.52424 0.63183 0.49222 0.0
N1043 N 0.56982 0.64128 0.45931 0.0
C1044 C 0.58263 0.61749 0.41904 0.0
C1045 C 0.58347 0.64186 0.41961 0.0
C1046 C 0.5774 0.65337 0.44014 0.0
C1047 C 0.56544 0.61781 0.45796 0.0
C1048 C 0.57203 0.60538 0.43774 0.0
H1049 H 0.58121 0.67187 0.44169 0.0
H1050 H 0.55935 0.60824 0.47309 0.0
H1051 H 0.55596 0.71309 0.49488 0.0
H1052 H 0.49948 0.69091 0.45341 0.0
H1053 H 0.65634 0.62594 0.50203 0.0
H1054 H 0.59175 0.65164 0.40556 0.0
H1055 H 0.57135 0.58645 0.43774 0.0
C1056 C 0.79624 0.58263 0.72326 0.0
C1057 C 0.80165 0.5637 0.73687 0.0
N1058 N 0.78889 0.54505 0.72972 0.0
N1059 N 0.7791 0.57673 0.70817 0.0
C1060 C 0.77439 0.55416 0.71324 0.0
H1061 H 0.80429 0.59972 0.7246 0.0
Co1062 Co 0.76501 0.5964 0.68543 0.0
C1063 C 0.75854 0.55064 0.6536 0.0
O1064 O 0.77912 0.54081 0.65087 0.0
N1065 N 0.75028 0.61601 0.66304 0.0
C1066 C 0.72754 0.62898 0.63399 0.0
C1067 C 0.73532 0.60951 0.64576 0.0
C1068 C 0.75072 0.63961 0.66155 0.0
N1069 N 0.73747 0.64777 0.64399 0.0
O1070 O 0.77141 0.6246 0.70688 0.0
H1071 H 0.72975 0.59185 0.64203 0.0
H1072 H 0.76006 0.65109 0.67334 0.0
O1073 O 0.75648 0.56942 0.66565 0.0
C1074 C 0.76092 0.63881 0.72138 0.0
O1075 O 0.77143 0.62485 0.70708 0.0
N1076 N 0.79549 0.59981 0.66995 0.0
C1077 C 0.83997 0.60328 0.64842 0.0
C1078 C 0.83186 0.58197 0.65742 0.0
C1079 C 0.80966 0.58059 0.66783 0.0
C1080 C 0.80405 0.62103 0.66262 0.0
C1081 C 0.82583 0.62303 0.65132 0.0
H1082 H 0.80435 0.56397 0.6749 0.0
H1083 H 0.79469 0.63689 0.66585 0.0
H1084 H 0.75991 0.54509 0.70548 0.0
H1085 H 0.81349 0.56436 0.75158 0.0
H1086 H 0.71542 0.62939 0.61943 0.0
H1087 H 0.84256 0.56639 0.65617 0.0
H1088 H 0.83175 0.64 0.64523 0.0
C1089 C 0.6642 0.53448 0.98503 0.0
C1090 C 0.68294 0.53748 0.99985 0.0
N1091 N 0.70228 0.53001 0.9886 0.0
N1092 N 0.67173 0.52471 0.96482 0.0
C1093 C 0.69511 0.52247 0.96741 0.0
H1094 H 0.64622 0.53917 0.98872 0.0
Co1095 Co 0.65256 0.51684 0.93997 0.0
C1096 C 0.69243 0.50656 0.90446 0.0
O1097 O 0.69161 0.5263 0.89276 0.0
N1098 N 0.63277 0.50909 0.91473 0.0
C1099 C 0.61715 0.50311 0.87942 0.0
C1100 C 0.63711 0.50886 0.89135 0.0
C1101 C 0.60965 0.50449 0.91635 0.0
N1102 N 0.59984 0.50074 0.89518 0.0
O1103 O 0.64791 0.48681 0.95322 0.0
H1104 H 0.65337 0.51304 0.88293 0.0
H1105 H 0.60003 0.5044 0.9327 0.0
O1106 O 0.67914 0.50324 0.92227 0.0
C1107 C 0.63283 0.48513 0.96964 0.0
O1108 O 0.6208 0.5036 0.97612 0.0
N1109 N 0.65515 0.54698 0.9288 0.0
C1110 C 0.64897 0.59066 0.90966 0.0
C1111 C 0.67175 0.58225 0.91359 0.0
C1112 C 0.67449 0.56014 0.92375 0.0
C1113 C 0.63347 0.55689 0.92888 0.0
C1114 C 0.62985 0.57853 0.91883 0.0
H1115 H 0.69187 0.5533 0.92668 0.0
H1116 H 0.61861 0.54733 0.93577 0.0
H1117 H 0.70676 0.51536 0.95423 0.0
H1118 H 0.68253 0.54479 0.01737 0.0
H1119 H 0.6153 0.50131 0.86061 0.0
H1120 H 0.68694 0.59182 0.90733 0.0
H1121 H 0.61212 0.58497 0.9168 0.0
C1122 C 0.71712 0.42031 0.22352 0.0
C1123 C 0.71314 0.43783 0.23938 0.0
N1124 N 0.71936 0.4581 0.22931 0.0
N1125 N 0.72554 0.4294 0.20326 0.0
C1126 C 0.72709 0.45268 0.20757 0.0
H1127 H 0.71387 0.40193 0.2266 0.0
Co1128 Co 0.73182 0.40984 0.1774 0.0
C1129 C 0.7549 0.44444 0.15655 0.0
O1130 O 0.73303 0.45132 0.15507 0.0
N1131 N 0.73859 0.38867 0.15267 0.0
C1132 C 0.7576 0.37085 0.12346 0.0
C1133 C 0.75221 0.39198 0.13348 0.0
C1134 C 0.73577 0.36511 0.15356 0.0
N1135 N 0.74751 0.35397 0.13632 0.0
O1136 O 0.75035 0.39032 0.19831 0.0
H1137 H 0.76006 0.40819 0.12821 0.0
H1138 H 0.72744 0.35594 0.16783 0.0
O1139 O 0.75967 0.42694 0.16969 0.0
C1140 C 0.75589 0.37278 0.21092 0.0
O1141 O 0.74146 0.35498 0.2129 0.0
N1142 N 0.70228 0.39591 0.18128 0.0
C1143 C 0.65735 0.38406 0.16674 0.0
C1144 C 0.66696 0.4057 0.161 0.0
C1145 C 0.68937 0.41119 0.16838 0.0
C1146 C 0.69229 0.37582 0.18967 0.0
C1147 C 0.66954 0.36942 0.18237 0.0
H1148 H 0.69728 0.42718 0.16218 0.0
H1149 H 0.70216 0.3639 0.20031 0.0
H1150 H 0.73343 0.4656 0.1953 0.0
H1151 H 0.70613 0.43594 0.25695 0.0
H1152 H 0.76952 0.36795 0.10893 0.0
H1153 H 0.65801 0.41746 0.14914 0.0
H1154 H 0.66243 0.3525 0.18719 0.0
C1155 C 0.83366 0.47166 0.47235 0.0
C1156 C 0.8148 0.46797 0.48687 0.0
N1157 N 0.79528 0.47226 0.4746 0.0
N1158 N 0.82627 0.47808 0.45077 0.0
C1159 C 0.80253 0.47832 0.45279 0.0
H1160 H 0.85177 0.47075 0.47769 0.0
Co1161 Co 0.84767 0.48744 0.42693 0.0
C1162 C 0.81201 0.50581 0.40218 0.0
O1163 O 0.81068 0.48354 0.39662 0.0
N1164 N 0.87035 0.49741 0.40421 0.0
C1165 C 0.88954 0.51799 0.37684 0.0
C1166 C 0.86782 0.51196 0.38569 0.0
C1167 C 0.89396 0.49483 0.40594 0.0
N1168 N 0.90589 0.50723 0.38975 0.0
O1169 O 0.86163 0.50924 0.44937 0.0
H1170 H 0.85156 0.5196 0.38007 0.0
H1171 H 0.90264 0.48542 0.41972 0.0
O1172 O 0.82708 0.51227 0.41748 0.0
C1173 C 0.87968 0.51687 0.46014 0.0
O1174 O 0.89985 0.5061 0.45818 0.0
N1175 N 0.8658 0.46072 0.43269 0.0
C1176 C 0.88887 0.41972 0.41997 0.0
C1177 C 0.8685 0.42657 0.40849 0.0
C1178 C 0.85725 0.44693 0.41521 0.0
C1179 C 0.88416 0.45325 0.44609 0.0
C1180 C 0.89614 0.43251 0.43986 0.0
H1181 H 0.8424 0.45278 0.40513 0.0
H1182 H 0.89052 0.46376 0.46045 0.0
H1183 H 0.79072 0.48351 0.439 0.0
H1184 H 0.81532 0.46343 0.50529 0.0
H1185 H 0.89311 0.53065 0.36318 0.0
H1186 H 0.8621 0.417 0.39336 0.0
H1187 H 0.91161 0.42734 0.44946 0.0
C1188 C 0.78038 0.42122 0.78191 0.0
C1189 C 0.78285 0.43952 0.76681 0.0
N1190 N 0.77732 0.45919 0.77839 0.0
N1191 N 0.77371 0.42912 0.80332 0.0
C1192 C 0.77148 0.45254 0.80044 0.0
H1193 H 0.78383 0.40311 0.77763 0.0
Co1194 Co 0.76994 0.40776 0.82831 0.0
C1195 C 0.7502 0.43773 0.85653 0.0
O1196 O 0.77211 0.43596 0.86331 0.0
N1197 N 0.7649 0.38438 0.85223 0.0
C1198 C 0.7691 0.36175 0.88394 0.0
C1199 C 0.77438 0.38316 0.87388 0.0
C1200 C 0.75347 0.36353 0.85002 0.0
N1201 N 0.75585 0.34943 0.8688 0.0
O1202 O 0.74982 0.39086 0.80697 0.0
H1203 H 0.78493 0.3967 0.88178 0.0
H1204 H 0.74428 0.35786 0.83463 0.0
O1205 O 0.74332 0.42492 0.83944 0.0
C1206 C 0.74333 0.37458 0.79319 0.0
O1207 O 0.75725 0.3567 0.78932 0.0
N1208 N 0.79926 0.39378 0.82032 0.0
C1209 C 0.84346 0.38301 0.83788 0.0
C1210 C 0.83903 0.40522 0.82897 0.0
C1211 C 0.81658 0.41048 0.82125 0.0
C1212 C 0.80496 0.37096 0.8241 0.0
C1213 C 0.82682 0.36522 0.83398 0.0
H1214 H 0.81253 0.42882 0.81958 0.0
H1215 H 0.7917 0.35775 0.82246 0.0
H1216 H 0.76602 0.46447 0.81406 0.0
H1217 H 0.78853 0.4386 0.74869 0.0
H1218 H 0.77479 0.35559 0.90094 0.0
H1219 H 0.8514 0.41936 0.83179 0.0
H1220 H 0.82983 0.34766 0.84039 0.0
C1221 C 0.83421 0.52961 0.02268 0.0
C1222 C 0.81494 0.53261 0.00861 0.0
N1223 N 0.79579 0.5304 0.02219 0.0
N1224 N 0.82702 0.52538 0.04489 0.0
C1225 C 0.80345 0.52622 0.04405 0.0
H1226 H 0.85232 0.53054 0.0171 0.0
Co1227 Co 0.84604 0.52074 0.07061 0.0
C1228 C 0.81363 0.49617 0.09495 0.0
O1229 O 0.80852 0.51753 0.10167 0.0
N1230 N 0.86521 0.51644 0.09666 0.0
C1231 C 0.87838 0.51368 0.1333 0.0
C1232 C 0.85986 0.52044 0.11943 0.0
C1233 C 0.88729 0.50827 0.09711 0.0
N1234 N 0.89565 0.50627 0.11905 0.0
O1235 O 0.86581 0.50095 0.05076 0.0
H1236 H 0.84349 0.52753 0.12571 0.0
H1237 H 0.89715 0.50326 0.08173 0.0
O1238 O 0.82908 0.49308 0.07913 0.0
C1239 C 0.88133 0.49102 0.03798 0.0
O1240 O 0.90098 0.5021 0.03326 0.0
N1241 N 0.86174 0.54868 0.0641 0.0
C1242 C 0.8824 0.58987 0.07909 0.0
C1243 C 0.85799 0.58813 0.0777 0.0
C1244 C 0.84797 0.56716 0.07026 0.0
C1245 C 0.8854 0.55138 0.06181 0.0
C1246 C 0.8962 0.57207 0.06933 0.0
H1247 H 0.82931 0.5646 0.07251 0.0
H1248 H 0.89633 0.53676 0.05742 0.0
H1249 H 0.79206 0.52393 0.05904 0.0
H1250 H 0.81488 0.53578 0.9899 0.0
H1251 H 0.87905 0.51394 0.15227 0.0
H1252 H 0.8469 0.60149 0.08536 0.0
H1253 H 0.91513 0.57287 0.07046 0.0
C1254 C 0.71112 0.58522 0.27297 0.0
C1255 C 0.70671 0.56539 0.26016 0.0
N1256 N 0.71173 0.54641 0.27333 0.0
N1257 N 0.72014 0.57913 0.29381 0.0
C1258 C 0.72071 0.55558 0.29335 0.0
H1259 H 0.70748 0.60293 0.26753 0.0
Co1260 Co 0.72679 0.59989 0.31804 0.0
C1261 C 0.74286 0.56295 0.35504 0.0
O1262 O 0.72328 0.56217 0.36712 0.0
N1263 N 0.73306 0.62117 0.34239 0.0
C1264 C 0.73648 0.6373 0.37782 0.0
C1265 C 0.72892 0.61811 0.36553 0.0
C1266 C 0.74149 0.64314 0.34097 0.0
N1267 N 0.7442 0.65315 0.36227 0.0
O1268 O 0.75631 0.60728 0.30304 0.0
H1269 H 0.71993 0.6034 0.3731 0.0
H1270 H 0.74531 0.65176 0.32469 0.0
O1271 O 0.74438 0.57576 0.33657 0.0
C1272 C 0.75753 0.62082 0.28527 0.0
O1273 O 0.73872 0.63175 0.278 0.0
N1274 N 0.69712 0.59395 0.33104 0.0
C1275 C 0.65368 0.59286 0.35286 0.0
C1276 C 0.66528 0.57192 0.34757 0.0
C1277 C 0.68714 0.57286 0.33642 0.0
C1278 C 0.68429 0.61397 0.333 0.0
C1279 C 0.66279 0.61394 0.34447 0.0
H1280 H 0.69634 0.55673 0.33319 0.0
H1281 H 0.69145 0.63038 0.32675 0.0
H1282 H 0.72689 0.54584 0.30798 0.0
H1283 H 0.70021 0.56513 0.24236 0.0
H1284 H 0.73592 0.63966 0.39666 0.0
H1285 H 0.6583 0.55529 0.35345 0.0
H1286 H 0.65389 0.63036 0.34776 0.0
C1287 C 0.66643 0.46923 0.52106 0.0
C1288 C 0.68498 0.46715 0.50578 0.0
N1289 N 0.7048 0.47133 0.51773 0.0
N1290 N 0.67435 0.47517 0.54252 0.0
C1291 C 0.69799 0.47576 0.54008 0.0
H1292 H 0.64818 0.46673 0.51672 0.0
Co1293 Co 0.65316 0.48096 0.56704 0.0
C1294 C 0.69018 0.49429 0.60544 0.0
O1295 O 0.68822 0.47528 0.61817 0.0
N1296 N 0.63064 0.48642 0.59089 0.0
C1297 C 0.61115 0.49 0.62469 0.0
C1298 C 0.63195 0.48338 0.61435 0.0
C1299 C 0.60829 0.49341 0.5874 0.0
N1300 N 0.59633 0.49633 0.60763 0.0
O1301 O 0.64733 0.51161 0.55444 0.0
H1302 H 0.64667 0.47621 0.62351 0.0
H1303 H 0.60069 0.49571 0.57037 0.0
O1304 O 0.67798 0.49651 0.58667 0.0
C1305 C 0.63223 0.5161 0.53867 0.0
O1306 O 0.61953 0.49918 0.52963 0.0
N1307 N 0.65775 0.45053 0.57831 0.0
C1308 C 0.65654 0.40685 0.59944 0.0
C1309 C 0.6779 0.41879 0.59679 0.0
C1310 C 0.67823 0.4405 0.58535 0.0
C1311 C 0.63756 0.43771 0.57807 0.0
C1312 C 0.6365 0.41582 0.58871 0.0
H1313 H 0.69465 0.44974 0.58336 0.0
H1314 H 0.62177 0.44515 0.57079 0.0
H1315 H 0.71005 0.47905 0.55424 0.0
H1316 H 0.68406 0.46296 0.48728 0.0
H1317 H 0.60724 0.49035 0.64328 0.0
H1318 H 0.69379 0.41205 0.60458 0.0
H1319 H 0.6198 0.40688 0.59022 0.0
C1320 C 0.73174 0.79382 0.5827 0.0
C1321 C 0.74558 0.79603 0.56308 0.0
N1322 N 0.73582 0.78322 0.54588 0.0
N1323 N 0.71339 0.77971 0.57781 0.0
C1324 C 0.71646 0.77333 0.55523 0.0
H1325 H 0.73444 0.80251 0.59934 0.0
Co1326 Co 0.68957 0.77387 0.59903 0.0
C1327 C 0.65005 0.7631 0.56217 0.0
O1328 O 0.63739 0.78209 0.56424 0.0
N1329 N 0.6658 0.76848 0.62102 0.0
C1330 C 0.63166 0.76507 0.63969 0.0
C1331 C 0.64238 0.77121 0.61913 0.0
C1332 C 0.66895 0.7622 0.64353 0.0
N1333 N 0.64846 0.75959 0.65509 0.0
O1334 O 0.70128 0.74339 0.60421 0.0
H1335 H 0.63328 0.77792 0.60426 0.0
H1336 H 0.6859 0.75966 0.65138 0.0
O1337 O 0.66896 0.76035 0.57401 0.0
C1338 C 0.7189 0.74201 0.61781 0.0
O1339 O 0.72909 0.76125 0.62528 0.0
N1340 N 0.68002 0.80439 0.59649 0.0
C1341 C 0.66112 0.84695 0.60792 0.0
C1342 C 0.65866 0.83819 0.58502 0.0
C1343 C 0.66938 0.8169 0.57927 0.0
C1344 C 0.68576 0.81467 0.61725 0.0
C1345 C 0.67649 0.83613 0.62339 0.0
H1346 H 0.66812 0.81003 0.56169 0.0
H1347 H 0.69594 0.80507 0.62997 0.0
H1348 H 0.70466 0.76205 0.54566 0.0
H1349 H 0.7611 0.80683 0.56124 0.0
H1350 H 0.61301 0.76512 0.64329 0.0
H1351 H 0.64743 0.8468 0.57245 0.0
H1352 H 0.67903 0.84279 0.64101 0.0
C1353 C 0.21999 0.71956 0.42406 0.0
C1354 C 0.2361 0.71894 0.44167 0.0
N1355 N 0.22584 0.727 0.46125 0.0
N1356 N 0.19954 0.72859 0.432 0.0
C1357 C 0.20363 0.73271 0.45509 0.0
H1358 H 0.22309 0.71329 0.40652 0.0
Co1359 Co 0.17417 0.73404 0.4111 0.0
C1360 C 0.1517 0.75788 0.44385 0.0
O1361 O 0.14741 0.73578 0.44861 0.0
N1362 N 0.15021 0.73988 0.38914 0.0
C1363 C 0.11954 0.73415 0.36575 0.0
C1364 C 0.12977 0.72823 0.38689 0.0
C1365 C 0.15154 0.75341 0.36962 0.0
N1366 N 0.13341 0.74991 0.35487 0.0
O1367 O 0.19583 0.75158 0.39186 0.0
H1368 H 0.12353 0.7151 0.39906 0.0
H1369 H 0.16606 0.76484 0.3654 0.0
O1370 O 0.1659 0.76242 0.42708 0.0
C1371 C 0.21291 0.75323 0.37752 0.0
O1372 O 0.22323 0.73438 0.36936 0.0
N1373 N 0.17906 0.70455 0.39748 0.0
C1374 C 0.16294 0.66076 0.38341 0.0
C1375 C 0.16433 0.66641 0.40717 0.0
C1376 C 0.17229 0.68843 0.41379 0.0
C1377 C 0.18063 0.69849 0.37438 0.0
C1378 C 0.17284 0.6763 0.36691 0.0
H1379 H 0.17032 0.69361 0.43193 0.0
H1380 H 0.18546 0.71142 0.36154 0.0
H1381 H 0.19083 0.73978 0.46717 0.0
H1382 H 0.25384 0.71234 0.44046 0.0
H1383 H 0.10368 0.72671 0.35847 0.0
H1384 H 0.15683 0.65495 0.42035 0.0
H1385 H 0.1719 0.67246 0.34834 0.0
C1386 C 0.53812 0.98463 0.66686 0.0
C1387 C 0.53987 0.99951 0.68568 0.0
N1388 N 0.53163 0.98827 0.70471 0.0
N1389 N 0.52829 0.9643 0.67385 0.0
C1390 C 0.52484 0.96688 0.69718 0.0
H1391 H 0.54365 0.98842 0.64912 0.0
Co1392 Co 0.52193 0.94005 0.65318 0.0
C1393 C 0.50859 0.89937 0.68395 0.0
O1394 O 0.52321 0.88516 0.6734 0.0
N1395 N 0.51569 0.91526 0.63115 0.0
C1396 C 0.52104 0.88555 0.60607 0.0
C1397 C 0.52942 0.89668 0.62562 0.0
C1398 C 0.49842 0.91416 0.61493 0.0
N1399 N 0.50174 0.89683 0.59919 0.0
O1400 O 0.49236 0.95325 0.64752 0.0
H1401 H 0.54533 0.89185 0.6344 0.0
H1402 H 0.48394 0.92604 0.61416 0.0
O1403 O 0.50773 0.92103 0.67836 0.0
C1404 C 0.4926 0.96929 0.63205 0.0
O1405 O 0.51203 0.97404 0.6206 0.0
N1406 N 0.55198 0.92967 0.65723 0.0
C1407 C 0.5951 0.90983 0.65015 0.0
C1408 C 0.58467 0.90885 0.67251 0.0
C1409 C 0.56259 0.91902 0.6757 0.0
C1410 C 0.56417 0.93489 0.63737 0.0
C1411 C 0.58562 0.92451 0.63311 0.0
H1412 H 0.55359 0.91716 0.69222 0.0
H1413 H 0.55583 0.94487 0.62363 0.0
H1414 H 0.51738 0.95355 0.70843 0.0
H1415 H 0.54689 0.01713 0.68555 0.0
H1416 H 0.52919 0.87114 0.59682 0.0
H1417 H 0.59224 0.89833 0.68632 0.0
H1418 H 0.59363 0.92625 0.61594 0.0
C1419 C 0.2782 0.28637 0.9235 0.0
C1420 C 0.26459 0.28938 0.9431 0.0
N1421 N 0.27669 0.28147 0.96153 0.0
N1422 N 0.29884 0.27636 0.92937 0.0
C1423 C 0.29745 0.27385 0.95296 0.0
H1424 H 0.27356 0.29224 0.9062 0.0
Co1425 Co 0.32339 0.26949 0.908 0.0
C1426 C 0.3494 0.24395 0.93828 0.0
O1427 O 0.35943 0.26457 0.94014 0.0
N1428 N 0.34744 0.26252 0.88645 0.0
C1429 C 0.38157 0.26319 0.86728 0.0
C1430 C 0.36981 0.27023 0.88726 0.0
C1431 C 0.34612 0.25051 0.866 0.0
N1432 N 0.36648 0.25092 0.85402 0.0
O1433 O 0.30186 0.25076 0.89025 0.0
H1434 H 0.37694 0.281 0.90112 0.0
H1435 H 0.33043 0.24221 0.85939 0.0
O1436 O 0.33144 0.24177 0.92523 0.0
C1437 C 0.28349 0.24895 0.87778 0.0
O1438 O 0.27153 0.26763 0.87194 0.0
N1439 N 0.31763 0.29744 0.892 0.0
C1440 C 0.33199 0.33946 0.87256 0.0
C1441 C 0.32898 0.3375 0.89678 0.0
C1442 C 0.32233 0.31609 0.90618 0.0
C1443 C 0.31674 0.30013 0.86821 0.0
C1444 C 0.32403 0.32127 0.858 0.0
H1445 H 0.32386 0.31364 0.92491 0.0
H1446 H 0.3135 0.28523 0.857 0.0
H1447 H 0.31145 0.26716 0.96374 0.0
H1448 H 0.24733 0.29715 0.94391 0.0
H1449 H 0.39955 0.26715 0.8626 0.0
H1450 H 0.33526 0.35111 0.90845 0.0
H1451 H 0.32652 0.3222 0.83919 0.0
C1452 C 0.47494 0.53071 0.67393 0.0
C1453 C 0.47302 0.51618 0.69285 0.0
N1454 N 0.4783 0.52853 0.71217 0.0
N1455 N 0.4812 0.55239 0.68115 0.0
C1456 C 0.48342 0.55045 0.70472 0.0
H1457 H 0.4714 0.52587 0.65594 0.0
Co1458 Co 0.48469 0.57719 0.6597 0.0
C1459 C 0.50893 0.60554 0.68783 0.0
O1460 O 0.48821 0.61543 0.68674 0.0
N1461 N 0.48927 0.60134 0.63685 0.0
C1462 C 0.4826 0.63238 0.61406 0.0
C1463 C 0.4772 0.62156 0.63506 0.0
C1464 C 0.50237 0.60074 0.6169 0.0
N1465 N 0.49843 0.61911 0.60268 0.0
O1466 O 0.50374 0.55554 0.6412 0.0
H1467 H 0.4645 0.6276 0.64771 0.0
H1468 H 0.51378 0.5867 0.61186 0.0
O1469 O 0.51258 0.58709 0.67566 0.0
C1470 C 0.5078 0.54313 0.62304 0.0
O1471 O 0.49246 0.54259 0.60593 0.0
N1472 N 0.45443 0.57009 0.6465 0.0
C1473 C 0.41028 0.58934 0.63782 0.0
C1474 C 0.41494 0.57866 0.65927 0.0
C1475 C 0.43734 0.56997 0.66353 0.0
C1476 C 0.44826 0.57564 0.62406 0.0
C1477 C 0.42651 0.5863 0.61948 0.0
H1478 H 0.44153 0.56661 0.68162 0.0
H1479 H 0.46123 0.57531 0.61044 0.0
H1480 H 0.48823 0.56473 0.71619 0.0
H1481 H 0.46784 0.49793 0.69257 0.0
H1482 H 0.47515 0.64844 0.60743 0.0
H1483 H 0.40277 0.58049 0.67378 0.0
H1484 H 0.42331 0.59393 0.60241 0.0
C1485 C 0.77767 0.20587 0.0885 0.0
C1486 C 0.76217 0.20189 0.0705 0.0
N1487 N 0.76798 0.21615 0.05267 0.0
N1488 N 0.79317 0.22255 0.08202 0.0
C1489 C 0.78674 0.2286 0.06004 0.0
H1490 H 0.77754 0.19732 0.1054 0.0
Co1491 Co 0.81633 0.23419 0.10186 0.0
C1492 C 0.85542 0.24902 0.06997 0.0
O1493 O 0.87043 0.23766 0.08315 0.0
N1494 N 0.83908 0.24639 0.12295 0.0
C1495 C 0.86421 0.27105 0.1401 0.0
C1496 C 0.85235 0.26587 0.11998 0.0
C1497 C 0.84215 0.24109 0.14592 0.0
N1498 N 0.8576 0.25563 0.15649 0.0
O1499 O 0.79965 0.26249 0.10506 0.0
H1500 H 0.85212 0.27713 0.10494 0.0
H1501 H 0.83176 0.22834 0.15533 0.0
O1502 O 0.83348 0.24774 0.07467 0.0
C1503 C 0.78204 0.26222 0.1188 0.0
O1504 O 0.77538 0.24242 0.12843 0.0
N1505 N 0.83159 0.20521 0.10016 0.0
C1506 C 0.8523 0.16145 0.10436 0.0
C1507 C 0.85412 0.17398 0.0833 0.0
C1508 C 0.84277 0.19559 0.08125 0.0
C1509 C 0.82771 0.1921 0.11973 0.0
C1510 C 0.83786 0.17012 0.12222 0.0
H1511 H 0.84326 0.20457 0.06464 0.0
H1512 H 0.81661 0.1988 0.13355 0.0
H1513 H 0.79544 0.2419 0.04967 0.0
H1514 H 0.74778 0.18951 0.07041 0.0
H1515 H 0.87475 0.28652 0.14328 0.0
H1516 H 0.86452 0.16733 0.06885 0.0
H1517 H 0.83551 0.16053 0.13844 0.0
C1518 C 0.53104 0.02799 0.835 0.0
C1519 C 0.53346 0.0139 0.81568 0.0
N1520 N 0.52889 0.02689 0.79667 0.0
N1521 N 0.52484 0.04978 0.82821 0.0
C1522 C 0.52394 0.04861 0.80455 0.0
H1523 H 0.53401 0.02274 0.85296 0.0
Co1524 Co 0.52062 0.07452 0.84927 0.0
C1525 C 0.49566 0.10006 0.82168 0.0
O1526 O 0.51717 0.10814 0.81999 0.0
N1527 N 0.51665 0.09871 0.87145 0.0
C1528 C 0.52398 0.13017 0.89346 0.0
C1529 C 0.52861 0.11913 0.87238 0.0
C1530 C 0.50484 0.09789 0.89206 0.0
N1531 N 0.50899 0.11663 0.9057 0.0
O1532 O 0.50443 0.05263 0.87008 0.0
H1533 H 0.54093 0.12498 0.85917 0.0
H1534 H 0.49452 0.08329 0.89808 0.0
O1535 O 0.49163 0.08255 0.83495 0.0
C1536 C 0.49387 0.03829 0.88375 0.0
O1537 O 0.50404 0.03276 0.90362 0.0
N1538 N 0.55067 0.06973 0.86081 0.0
C1539 C 0.59442 0.0876 0.87296 0.0
C1540 C 0.58664 0.08846 0.8498 0.0
C1541 C 0.56491 0.0792 0.84408 0.0
C1542 C 0.55854 0.0665 0.88313 0.0
C1543 C 0.58101 0.07478 0.88944 0.0
H1544 H 0.55813 0.08236 0.82669 0.0
H1545 H 0.54685 0.05969 0.89643 0.0
H1546 H 0.52019 0.06335 0.79332 0.0
H1547 H 0.53825 0.99559 0.81549 0.0
H1548 H 0.53165 0.14636 0.89969 0.0
H1549 H 0.59641 0.09802 0.83658 0.0
H1550 H 0.58663 0.07361 0.90752 0.0
C1551 C 0.96446 0.98081 0.33646 0.0
C1552 C 0.96116 0.99536 0.31769 0.0
N1553 N 0.97106 0.98529 0.29888 0.0
N1554 N 0.97637 0.96155 0.3296 0.0
C1555 C 0.98003 0.96474 0.30635 0.0
H1556 H 0.95878 0.98427 0.35421 0.0
Co1557 Co 0.98411 0.93874 0.35176 0.0
C1558 C 0.99182 0.89819 0.31248 0.0
O1559 O 0.97174 0.88777 0.30842 0.0
N1560 N 0.99105 0.91648 0.37455 0.0
C1561 C 0.99573 0.88243 0.39268 0.0
C1562 C 0.98882 0.8931 0.37236 0.0
C1563 C 0.99768 0.91971 0.39701 0.0
N1564 N 1.00107 0.89921 0.40834 0.0
O1565 O 0.01607 0.94881 0.35147 0.0
H1566 H 0.98124 0.88443 0.35751 0.0
H1567 H 0.99954 0.93671 0.40505 0.0
O1568 O 0.99297 0.91494 0.32753 0.0
C1569 C 0.01988 0.9676 0.36289 0.0
O1570 O 1.00203 0.97839 0.37264 0.0
N1571 N 0.95279 0.93078 0.35443 0.0
C1572 C 0.91046 0.91637 0.3729 0.0
C1573 C 0.91779 0.90826 0.35081 0.0
C1574 C 0.93881 0.91662 0.34133 0.0
C1575 C 0.94429 0.94113 0.37426 0.0
C1576 C 0.92253 0.93489 0.38332 0.0
H1577 H 0.9439 0.91139 0.32409 0.0
H1578 H 0.95524 0.95323 0.3839 0.0
H1579 H 0.98888 0.95244 0.29504 0.0
H1580 H 0.95259 0.01224 0.31785 0.0
H1581 H 0.99584 0.8638 0.39608 0.0
H1582 H 0.90794 0.89492 0.34156 0.0
H1583 H 0.91674 0.94221 0.39988 0.0
C1584 C 0.02105 0.14016 0.23442 0.0
C1585 C 0.04515 0.14394 0.22972 0.0
C1586 C 0.04049 0.12188 0.1929 0.0
C1587 C 0.01756 0.11492 0.20002 0.0
N1588 N 0.98927 0.11274 0.23175 0.0
N1589 N 0.07899 0.13406 0.20588 0.0
C1590 C 0.00882 0.12265 0.22202 0.0
C1591 C 0.0553 0.13368 0.20929 0.0
N1592 N 0.00946 0.15378 0.25033 0.0
N1593 N 0.04791 0.11825 0.17039 0.0
H1594 H 0.09063 0.14175 0.21758 0.0
H1595 H 0.08723 0.12474 0.19247 0.0
H1596 H 0.03739 0.11071 0.15754 0.0
H1597 H 0.06362 0.12503 0.16391 0.0
H1598 H 0.99138 0.15279 0.25294 0.0
H1599 H 0.01735 0.16803 0.25846 0.0
H1600 H 0.98369 0.11651 0.24878 0.0
H1601 H 0.98035 0.0988 0.22413 0.0
C1602 C 0.11583 0.77175 0.46545 0.0
C1603 C 0.13918 0.77636 0.45773 0.0
C1604 C 0.13771 0.81353 0.47934 0.0
C1605 C 0.11681 0.80623 0.49087 0.0
N1606 N 0.08839 0.77567 0.49758 0.0
N1607 N 0.17367 0.80111 0.46063 0.0
C1608 C 0.10639 0.78464 0.48458 0.0
C1609 C 0.15048 0.79725 0.46533 0.0
N1610 N 0.10231 0.75557 0.4541 0.0
N1611 N 0.14521 0.83614 0.48142 0.0
H1612 H 0.18427 0.78931 0.45166 0.0
H1613 H 0.18302 0.81505 0.46782 0.0
H1614 H 0.13594 0.84868 0.49093 0.0
H1615 H 0.15907 0.84296 0.47158 0.0
H1616 H 0.08468 0.75284 0.45814 0.0
H1617 H 0.10779 0.74716 0.43879 0.0
H1618 H 0.0816 0.75893 0.49486 0.0
H1619 H 0.08219 0.78385 0.51271 0.0
C1620 C 0.4689 0.88266 0.69386 0.0
C1621 C 0.49174 0.88938 0.70113 0.0
C1622 C 0.48569 0.86925 0.73849 0.0
C1623 C 0.46197 0.86436 0.73231 0.0
N1624 N 0.42966 0.87158 0.70587 0.0
N1625 N 0.5197 0.8939 0.73227 0.0
C1626 C 0.45316 0.8724 0.71042 0.0
C1627 C 0.49943 0.88417 0.72404 0.0
N1628 N 0.46235 0.88569 0.67104 0.0
N1629 N 0.49562 0.85882 0.75757 0.0
H1630 H 0.52993 0.90526 0.72227 0.0
H1631 H 0.52493 0.89275 0.74972 0.0
H1632 H 0.48677 0.84706 0.76832 0.0
H1633 H 0.51345 0.85987 0.7613 0.0
H1634 H 0.44703 0.8786 0.66408 0.0
H1635 H 0.47306 0.89384 0.65861 0.0
H1636 H 0.42213 0.87931 0.69118 0.0
H1637 H 0.41726 0.86541 0.71782 0.0
C1638 C 0.36265 0.1969 0.98333 0.0
C1639 C 0.38756 0.19633 0.98111 0.0
C1640 C 0.38423 0.21858 0.94461 0.0
C1641 C 0.36055 0.22368 0.95003 0.0
N1642 N 0.32651 0.21706 0.97422 0.0
N1643 N 0.42235 0.20829 0.95968 0.0
C1644 C 0.34944 0.21244 0.96914 0.0
C1645 C 0.39847 0.20728 0.96153 0.0
N1646 N 0.35148 0.18187 0.99827 0.0
N1647 N 0.39292 0.22415 0.92301 0.0
H1648 H 0.43366 0.20113 0.97198 0.0
H1649 H 0.43099 0.21816 0.94695 0.0
H1650 H 0.38228 0.23117 0.91 0.0
H1651 H 0.40946 0.21908 0.91715 0.0
H1652 H 0.33333 0.18007 0.99912 0.0
H1653 H 0.36034 0.16922 0.00784 0.0
H1654 H 0.31846 0.21215 0.98989 0.0
H1655 H 0.31575 0.22662 0.96308 0.0
C1656 C 0.04554 0.88819 0.27372 0.0
C1657 C 0.04626 0.86323 0.27334 0.0
C1658 C 0.01628 0.86224 0.30435 0.0
C1659 C 0.01346 0.88695 0.30251 0.0
N1660 N 0.03123 0.92375 0.29196 0.0
N1661 N 0.03155 0.8263 0.28784 0.0
C1662 C 0.02985 0.90005 0.28915 0.0
C1663 C 0.03186 0.85022 0.28895 0.0
N1664 N 0.0595 0.90068 0.25878 0.0
N1665 N 0.0048 0.8503 0.32166 0.0
H1666 H 0.04284 0.81656 0.27737 0.0
H1667 H 0.01899 0.81593 0.29611 0.0
H1668 H 0.99317 0.85825 0.33317 0.0
H1669 H 0.00849 0.83307 0.32621 0.0
H1670 H 0.05713 0.9183 0.25491 0.0
H1671 H 0.07319 0.89314 0.24952 0.0
H1672 H 0.04407 0.93428 0.28437 0.0
H1673 H 0.02128 0.9328 0.30419 0.0
C1674 C 0.37028 0.79581 0.55778 0.0
C1675 C 0.36334 0.77282 0.5513 0.0
C1676 C 0.38624 0.77605 0.51514 0.0
C1677 C 0.3911 0.79991 0.52013 0.0
N1678 N 0.38275 0.83395 0.54415 0.0
N1679 N 0.35931 0.74395 0.52057 0.0
C1680 C 0.38175 0.81028 0.5409 0.0
C1681 C 0.36963 0.76388 0.52896 0.0
N1682 N 0.36691 0.80359 0.58021 0.0
N1683 N 0.39817 0.76453 0.49782 0.0
H1684 H 0.34637 0.73483 0.52974 0.0
H1685 H 0.36168 0.73804 0.50342 0.0
H1686 H 0.41135 0.77228 0.48783 0.0
H1687 H 0.39684 0.74651 0.49523 0.0
H1688 H 0.37398 0.81924 0.58643 0.0
H1689 H 0.35886 0.79357 0.59321 0.0
H1690 H 0.37401 0.84245 0.55778 0.0
H1691 H 0.39024 0.84543 0.53211 0.0
C1692 C 0.46439 0.15089 0.79532 0.0
C1693 C 0.45645 0.141 0.77388 0.0
C1694 C 0.46907 0.10194 0.78708 0.0
C1695 C 0.47719 0.11206 0.80816 0.0
N1696 N 0.47701 0.14409 0.83538 0.0
N1697 N 0.44689 0.10605 0.75132 0.0
C1698 C 0.4729 0.13591 0.81324 0.0
C1699 C 0.45756 0.11621 0.77027 0.0
N1700 N 0.46533 0.17467 0.79798 0.0
N1701 N 0.47306 0.07875 0.78283 0.0
H1702 H 0.43802 0.11526 0.7384 0.0
H1703 H 0.44478 0.08807 0.74932 0.0
H1704 H 0.47873 0.06733 0.79585 0.0
H1705 H 0.47139 0.07091 0.76643 0.0
H1706 H 0.47319 0.18293 0.81223 0.0
H1707 H 0.46026 0.18636 0.78495 0.0
H1708 H 0.47232 0.16076 0.84105 0.0
H1709 H 0.48293 0.13321 0.8488 0.0
C1710 C 0.13601 0.21981 0.01956 0.0
C1711 C 0.11226 0.21342 0.02434 0.0
C1712 C 0.11705 0.22857 0.06434 0.0
C1713 C 0.13872 0.23927 0.05804 0.0
N1714 N 0.1687 0.24491 0.02853 0.0
N1715 N 0.07912 0.21559 0.0508 0.0
C1716 C 0.14825 0.23468 0.03543 0.0
C1717 C 0.10252 0.2187 0.04667 0.0
N1718 N 0.14752 0.21097 1.00042 0.0
N1719 N 0.11066 0.22709 0.08741 0.0
H1720 H 0.06744 0.20997 0.03796 0.0
H1721 H 0.07089 0.22119 0.06615 0.0
H1722 H 0.12159 0.23266 0.10097 0.0
H1723 H 0.09603 0.2177 0.09311 0.0
H1724 H 0.16558 0.21251 0.99805 0.0
H1725 H 0.13991 0.20013 0.98794 0.0
H1726 H 0.17437 0.2455 0.01115 0.0
H1727 H 0.17962 0.25348 0.04005 0.0
C1728 C 0.2227 0.04915 0.12584 0.0
C1729 C 0.23934 0.04046 0.14202 0.0
C1730 C 0.22611 1.00063 0.13296 0.0
C1731 C 0.21341 0.00903 0.11326 0.0
N1732 N 0.20304 0.04221 0.08898 0.0
N1733 N 0.2589 0.0073 0.1588 0.0
C1734 C 0.21239 0.0336 0.10924 0.0
C1735 C 0.24152 0.01601 0.14504 0.0
N1736 N 0.21663 0.07219 0.12641 0.0
N1737 N 0.22296 0.97826 0.14078 0.0
H1738 H 0.2705 0.01815 0.16776 0.0
H1739 H 0.26289 0.98954 0.15956 0.0
H1740 H 0.21103 0.96667 0.1333 0.0
H1741 H 0.23018 0.97219 0.15639 0.0
H1742 H 0.20342 0.07922 0.11601 0.0
H1743 H 0.22262 0.08337 0.13954 0.0
H1744 H 0.20395 0.05984 0.08443 0.0
H1745 H 0.1968 0.03162 0.07549 0.0
C1746 C 0.23125 0.9857 0.38421 0.0
C1747 C 0.20751 0.9806 0.39003 0.0
C1748 C 0.21294 0.94046 0.37566 0.0
C1749 C 0.23591 0.94639 0.36802 0.0
N1750 N 0.26404 0.97661 0.35892 0.0
N1751 N 0.1742 0.9548 0.38532 0.0
C1752 C 0.24416 0.96963 0.37034 0.0
C1753 C 0.19787 0.95838 0.38421 0.0
N1754 N 0.24191 0.00537 0.39276 0.0
N1755 N 0.20541 0.91776 0.37458 0.0
H1756 H 0.16238 0.96794 0.38983 0.0
H1757 H 0.16606 0.93964 0.37925 0.0
H1758 H 0.21532 0.9044 0.36702 0.0
H1759 H 0.18993 0.912 0.38245 0.0
H1760 H 0.25982 0.00856 0.39093 0.0
H1761 H 0.23358 0.01722 0.40386 0.0
H1762 H 0.2697 0.99396 0.35844 0.0
H1763 H 0.27313 0.96569 0.34749 0.0
C1764 C 0.30776 0.96907 0.62067 0.0
C1765 C 0.29702 0.99019 0.61293 0.0
C1766 C 0.26033 0.97835 0.63187 0.0
C1767 C 0.27035 0.95646 0.63833 0.0
N1768 N 0.30226 0.92908 0.63391 0.0
N1769 N 0.26154 0.01145 0.60546 0.0
C1770 C 0.29374 0.95128 0.63142 0.0
C1771 C 0.27283 0.99371 0.6168 0.0
N1772 N 0.3314 0.9661 0.61846 0.0
N1773 N 0.23924 0.98518 0.64095 0.0
H1774 H 0.27006 0.02269 0.59378 0.0
H1775 H 0.24338 0.01335 0.6056 0.0
H1776 H 0.22948 0.97505 0.65251 0.0
H1777 H 0.23256 0.00201 0.63892 0.0
H1778 H 0.34055 0.95273 0.62675 0.0
H1779 H 0.34218 0.97768 0.60942 0.0
H1780 H 0.31827 0.92369 0.62695 0.0
H1781 H 0.29244 0.91534 0.64085 0.0
C1782 C 0.26191 0.04558 0.88336 0.0
C1783 C 0.26739 0.04894 0.85926 0.0
C1784 C 0.30759 0.03535 0.8663 0.0
C1785 C 0.30079 0.02812 0.88906 0.0
N1786 N 0.2737 0.0297 0.92121 0.0
N1787 N 0.29563 0.04881 0.82772 0.0
C1788 C 0.27866 0.0346 0.89829 0.0
C1789 C 0.29047 0.04479 0.85081 0.0
N1790 N 0.24077 0.05308 0.89184 0.0
N1791 N 0.33054 0.03321 0.85977 0.0
H1792 H 0.28373 0.0563 0.81611 0.0
H1793 H 0.31126 0.04389 0.8197 0.0
H1794 H 0.34326 0.027 0.87129 0.0
H1795 H 0.33744 0.03948 0.84407 0.0
H1796 H 0.23592 0.05259 0.90942 0.0
H1797 H 0.22829 0.06114 0.88125 0.0
H1798 H 0.25725 0.03138 0.92891 0.0
H1799 H 0.28663 0.02405 0.93277 0.0
C1800 C 0.60307 0.29257 0.96227 0.0
C1801 C 0.61237 0.29821 0.98475 0.0
C1802 C 0.65067 0.28204 0.97273 0.0
C1803 C 0.64094 0.27564 0.95096 0.0
N1804 N 0.61096 0.28041 0.92208 0.0
N1805 N 0.64654 0.30125 0.01007 0.0
C1806 C 0.6181 0.28286 0.9448 0.0
C1807 C 0.63661 0.29385 0.98957 0.0
N1808 N 0.57957 0.29475 0.95815 0.0
N1809 N 0.67316 0.27569 0.97772 0.0
H1810 H 0.63712 0.30683 0.02455 0.0
H1811 H 0.66454 0.30248 0.01269 0.0
H1812 H 0.68468 0.26994 0.96477 0.0
H1813 H 0.68029 0.27568 0.99449 0.0
H1814 H 0.57142 0.28889 0.94292 0.0
H1815 H 0.56762 0.30038 0.97079 0.0
H1816 H 0.59539 0.28727 0.9156 0.0
H1817 H 0.62194 0.27353 0.90913 0.0
C1818 C 0.99608 0.38331 0.23053 0.0
C1819 C 0.98899 0.38613 0.2069 0.0
C1820 C 0.95064 0.36857 0.21651 0.0
C1821 C 0.95837 0.36421 0.23984 0.0
N1822 N 0.99031 0.36292 0.26739 0.0
N1823 N 0.9612 0.37776 0.17625 0.0
C1824 C 0.98164 0.37035 0.24635 0.0
C1825 C 0.96674 0.37769 0.19957 0.0
N1826 N 0.01635 0.39362 0.23806 0.0
N1827 N 0.92766 0.36513 0.2107 0.0
H1828 H 0.9722 0.38475 0.16339 0.0
H1829 H 0.94655 0.36927 0.16943 0.0
H1830 H 0.91527 0.35822 0.22219 0.0
H1831 H 0.92041 0.37077 0.19496 0.0
H1832 H 0.02119 0.3945 0.25563 0.0
H1833 H 0.02733 0.40318 0.22695 0.0
H1834 H 0.00779 0.36483 0.27223 0.0
H1835 H 0.98061 0.35262 0.27902 0.0
C1836 C 0.87892 0.70424 0.4652 0.0
C1837 C 0.89294 0.71346 0.48355 0.0
C1838 C 0.87576 0.75205 0.47708 0.0
C1839 C 0.86444 0.74396 0.45657 0.0
N1840 N 0.85933 0.7121 0.42858 0.0
N1841 N 0.91013 0.74789 0.50082 0.0
C1842 C 0.86701 0.71994 0.44986 0.0
C1843 C 0.89287 0.73788 0.48778 0.0
N1844 N 0.87634 0.68059 0.46272 0.0
N1845 N 0.87002 0.77321 0.48665 0.0
H1846 H 0.92483 0.73847 0.50563 0.0
H1847 H 0.91173 0.76592 0.50317 0.0
H1848 H 0.85659 0.78364 0.48005 0.0
H1849 H 0.8767 0.77894 0.50267 0.0
H1850 H 0.86416 0.67305 0.45138 0.0
H1851 H 0.88496 0.66852 0.47328 0.0
H1852 H 0.86332 0.69551 0.42211 0.0
H1853 H 0.85086 0.72247 0.41634 0.0
C1854 C 0.96361 0.60047 0.2825 0.0
C1855 C 0.97322 0.61272 0.30181 0.0
C1856 C 0.95955 0.65012 0.28541 0.0
C1857 C 0.95166 0.63817 0.26495 0.0
N1858 N 0.94185 0.60147 0.24608 0.0
N1859 N 0.97491 0.6476 0.32515 0.0
C1860 C 0.95233 0.61317 0.26418 0.0
C1861 C 0.96937 0.63709 0.30432 0.0
N1862 N 0.96631 0.57675 0.28115 0.0
N1863 N 0.95886 0.674 0.28628 0.0
H1864 H 0.98161 0.63823 0.33931 0.0
H1865 H 0.97095 0.66488 0.3293 0.0
H1866 H 0.95073 0.68412 0.27358 0.0
H1867 H 0.96719 0.68401 0.29904 0.0
H1868 H 0.96327 0.56687 0.26613 0.0
H1869 H 0.97205 0.56679 0.29527 0.0
H1870 H 0.93883 0.58352 0.24592 0.0
H1871 H 0.93491 0.60974 0.23147 0.0
C1872 C 0.54189 0.39991 0.79709 0.0
C1873 C 0.51946 0.39118 0.80339 0.0
C1874 C 0.53006 0.35229 0.78827 0.0
C1875 C 0.55172 0.36157 0.78037 0.0
N1876 N 0.58153 0.39098 0.78422 0.0
N1877 N 0.49451 0.35808 0.81123 0.0
C1878 C 0.55868 0.38441 0.78709 0.0
C1879 C 0.5143 0.36696 0.80101 0.0
N1880 N 0.54677 0.42319 0.79975 0.0
N1881 N 0.52435 0.3297 0.78291 0.0
H1882 H 0.48313 0.3684 0.82115 0.0
H1883 H 0.49038 0.34035 0.81172 0.0
H1884 H 0.53646 0.31818 0.77554 0.0
H1885 H 0.50777 0.32248 0.78538 0.0
H1886 H 0.5617 0.43124 0.79293 0.0
H1887 H 0.53525 0.4348 0.8079 0.0
H1888 H 0.58842 0.40678 0.79017 0.0
H1889 H 0.59417 0.37927 0.77819 0.0
C1890 C 0.55034 0.61954 0.69598 0.0
C1891 C 0.52696 0.61575 0.7038 0.0
C1892 C 0.53593 0.63692 0.74035 0.0
C1893 C 0.55981 0.63795 0.73378 0.0
N1894 N 0.59067 0.62759 0.70667 0.0
N1895 N 0.49913 0.61642 0.73601 0.0
C1896 C 0.56731 0.62836 0.71202 0.0
C1897 C 0.52014 0.62335 0.72667 0.0
N1898 N 0.55611 0.61611 0.67294 0.0
N1899 N 0.5283 0.64882 0.75971 0.0
H1900 H 0.48759 0.60518 0.72743 0.0
H1901 H 0.49432 0.6196 0.75336 0.0
H1902 H 0.53949 0.65862 0.77032 0.0
H1903 H 0.51062 0.65076 0.7639 0.0
H1904 H 0.57234 0.62067 0.66585 0.0
H1905 H 0.54397 0.61109 0.66028 0.0
H1906 H 0.59736 0.61819 0.69249 0.0
H1907 H 0.60354 0.63511 0.71726 0.0
C1908 C 0.88401 0.25698 0.03794 0.0
C1909 C 0.86503 0.26524 0.05172 0.0
C1910 C 0.87264 0.30515 0.03685 0.0
C1911 C 0.89312 0.2969 0.02541 0.0
N1912 N 0.92151 0.26637 0.02062 0.0
N1913 N 0.84154 0.29817 0.06495 0.0
C1914 C 0.89968 0.27319 0.02752 0.0
C1915 C 0.85926 0.28959 0.05128 0.0
N1916 N 0.88672 0.23351 0.0343 0.0
N1917 N 0.86571 0.32777 0.03349 0.0
H1918 H 0.82943 0.28774 0.0737 0.0
H1919 H 0.8392 0.31592 0.0683 0.0
H1920 H 0.87595 0.33997 0.0245 0.0
H1921 H 0.84945 0.33424 0.03866 0.0
H1922 H 0.89899 0.22663 0.02261 0.0
H1923 H 0.87492 0.22116 0.04086 0.0
H1924 H 0.928 0.24954 0.02312 0.0
H1925 H 0.93413 0.27858 0.01569 0.0
C1926 C 0.60603 0.71841 0.54131 0.0
C1927 C 0.614 0.71353 0.51814 0.0
C1928 C 0.64704 0.74064 0.52433 0.0
C1929 C 0.6402 0.74363 0.54796 0.0
N1930 N 0.61762 0.72911 0.58062 0.0
N1931 N 0.64716 0.71459 0.49114 0.0
C1932 C 0.62115 0.73043 0.557 0.0
C1933 C 0.63604 0.72298 0.51066 0.0
N1934 N 0.58364 0.71316 0.54808 0.0
N1935 N 0.66345 0.75512 0.51456 0.0
H1936 H 0.64087 0.70075 0.48114 0.0
H1937 H 0.66416 0.71956 0.48654 0.0
H1938 H 0.67152 0.76858 0.52391 0.0
H1939 H 0.66733 0.75511 0.49668 0.0
H1940 H 0.57672 0.7182 0.56426 0.0
H1941 H 0.57101 0.70658 0.5367 0.0
H1942 H 0.60501 0.71826 0.58824 0.0
H1943 H 0.62941 0.73639 0.59245 0.0
C1944 C 0.72286 0.52509 0.60308 0.0
C1945 C 0.70408 0.51432 0.61554 0.0
C1946 C 0.718 0.53232 0.65225 0.0
C1947 C 0.73808 0.54101 0.6403 0.0
N1948 N 0.75569 0.55242 0.60367 0.0
N1949 N 0.67896 0.51578 0.64945 0.0
C1950 C 0.73932 0.5394 0.61545 0.0
C1951 C 0.70024 0.52042 0.63941 0.0
N1952 N 0.72521 0.5214 0.57957 0.0
N1953 N 0.71614 0.53472 0.676 0.0
H1954 H 0.66516 0.50857 0.63996 0.0
H1955 H 0.67403 0.52156 0.66606 0.0
H1956 H 0.72721 0.54538 0.68572 0.0
H1957 H 0.70402 0.52558 0.68618 0.0
H1958 H 0.74025 0.52545 0.57002 0.0
H1959 H 0.71177 0.5144 0.56952 0.0
H1960 H 0.75639 0.55392 0.5855 0.0
H1961 H 0.76737 0.5636 0.61223 0.0
C1962 C 0.7123 0.44819 0.87733 0.0
C1963 C 0.73472 0.45492 0.86874 0.0
C1964 C 0.73099 0.49253 0.88943 0.0
C1965 C 0.70736 0.48733 0.89496 0.0
N1966 N 0.67448 0.46052 0.89191 0.0
N1967 N 0.76355 0.48572 0.86332 0.0
C1968 C 0.6977 0.46521 0.88839 0.0
C1969 C 0.74358 0.47768 0.87393 0.0
N1970 N 0.70532 0.42531 0.87613 0.0
N1971 N 0.74171 0.51139 0.89959 0.0
H1972 H 0.77328 0.47597 0.85135 0.0
H1973 H 0.7692 0.50303 0.86455 0.0
H1974 H 0.73321 0.52226 0.91163 0.0
H1975 H 0.75963 0.51467 0.89815 0.0
H1976 H 0.69028 0.41897 0.88438 0.0
H1977 H 0.71566 0.41208 0.86898 0.0
H1978 H 0.66594 0.44626 0.88436 0.0
H1979 H 0.6633 0.47143 0.90121 0.0
C1980 C 0.79528 0.45957 0.14573 0.0
C1981 C 0.77205 0.45361 0.13906 0.0
C1982 C 0.77914 0.46996 0.09974 0.0
C1983 C 0.80187 0.47643 0.10683 0.0
N1984 N 0.83444 0.4697 0.13237 0.0
N1985 N 0.74469 0.44652 0.10707 0.0
C1986 C 0.81089 0.46862 0.1285 0.0
C1987 C 0.76479 0.45678 0.11524 0.0
N1988 N 0.80205 0.4581 0.16865 0.0
N1989 N 0.77114 0.47689 0.0783 0.0
H1990 H 0.73374 0.43598 0.11718 0.0
H1991 H 0.74004 0.44629 0.08943 0.0
H1992 H 0.78216 0.48434 0.06572 0.0
H1993 H 0.75363 0.47592 0.07329 0.0
H1994 H 0.81802 0.46452 0.17471 0.0
H1995 H 0.79096 0.45245 0.18206 0.0
H1996 H 0.84247 0.46283 0.14722 0.0
H1997 H 0.84608 0.47477 0.11918 0.0
C1998 C 0.78316 0.53922 0.4022 0.0
C1999 C 0.79685 0.52283 0.38955 0.0
C2000 C 0.77768 0.53502 0.35279 0.0
C2001 C 0.76409 0.55154 0.36553 0.0
N2002 N 0.7606 0.57476 0.40075 0.0
N2003 N 0.81107 0.50896 0.35198 0.0
C2004 C 0.76891 0.55526 0.38974 0.0
C2005 C 0.79527 0.52186 0.3646 0.0
N2006 N 0.78258 0.53875 0.42618 0.0
N2007 N 0.77342 0.53124 0.32957 0.0
H2008 H 0.82415 0.49887 0.35959 0.0
H2009 H 0.81264 0.50981 0.3338 0.0
H2010 H 0.76305 0.54223 0.31958 0.0
H2011 H 0.77968 0.51681 0.32032 0.0
H2012 H 0.77066 0.54843 0.43609 0.0
H2013 H 0.79235 0.52719 0.43625 0.0
H2014 H 0.7655 0.57967 0.41764 0.0
H2015 H 0.75124 0.58754 0.39193 0.0
C2016 C 0.12853 0.21999 0.18139 0.0
C2017 C 0.14102 0.24131 0.18046 0.0
C2018 C 0.14179 0.24306 0.22333 0.0
C2019 C 0.13216 0.22013 0.2245 0.0
N2020 N 0.11688 0.18613 0.20394 0.0
N2021 N 0.16256 0.27179 0.19991 0.0
C2022 C 0.12541 0.20846 0.20335 0.0
C2023 C 0.14851 0.25245 0.20128 0.0
N2024 N 0.11928 0.21109 0.16118 0.0
N2025 N 0.14336 0.2564 0.24319 0.0
H2026 H 0.16788 0.27902 0.18396 0.0
H2027 H 0.17063 0.27933 0.21445 0.0
H2028 H 0.13721 0.25071 0.25947 0.0
H2029 H 0.14816 0.27399 0.24306 0.0
H2030 H 0.10765 0.19703 0.16067 0.0
H2031 H 0.12197 0.21898 0.14489 0.0
H2032 H 0.11467 0.17577 0.18908 0.0
H2033 H 0.11338 0.1771 0.21931 0.0
C2034 C 0.99614 0.8792 0.44673 0.0
C2035 C 0.00825 0.89562 0.43234 0.0
C2036 C 0.03284 0.90573 0.46574 0.0
C2037 C 0.02491 0.88556 0.47775 0.0
N2038 N 0.99819 0.85296 0.48004 0.0
N2039 N 0.04186 0.92117 0.42754 0.0
C2040 C 0.0063 0.87216 0.46832 0.0
C2041 C 0.02758 0.90813 0.44167 0.0
N2042 N 0.97447 0.87133 0.44039 0.0
N2043 N 0.04445 0.92305 0.47739 0.0
H2044 H 0.04014 0.9216 0.40936 0.0
H2045 H 0.05711 0.92916 0.43369 0.0
H2046 H 0.04629 0.92289 0.49558 0.0
H2047 H 0.0493 0.93875 0.46939 0.0
H2048 H 0.96403 0.86085 0.45114 0.0
H2049 H 0.96583 0.87756 0.42562 0.0
H2050 H 0.98632 0.84113 0.47277 0.0
H2051 H 0.00428 0.84834 0.49663 0.0
C2052 C 0.37833 0.7859 0.67804 0.0
C2053 C 0.37064 0.76252 0.67606 0.0
C2054 C 0.3707 0.75873 0.7189 0.0
C2055 C 0.37583 0.78305 0.72114 0.0
N2056 N 0.38116 0.82063 0.70195 0.0
N2057 N 0.35576 0.72756 0.69408 0.0
C2058 C 0.37888 0.79688 0.70046 0.0
C2059 C 0.36569 0.7492 0.69637 0.0
N2060 N 0.38558 0.79748 0.65836 0.0
N2061 N 0.37202 0.74437 0.738 0.0
H2062 H 0.35219 0.72008 0.67778 0.0
H2063 H 0.34928 0.71798 0.70823 0.0
H2064 H 0.37722 0.75017 0.75452 0.0
H2065 H 0.37055 0.72623 0.73694 0.0
H2066 H 0.39401 0.81366 0.65874 0.0
H2067 H 0.38494 0.78991 0.6417 0.0
H2068 H 0.38048 0.83168 0.68746 0.0
H2069 H 0.38179 0.82973 0.71765 0.0
C2070 C 0.49196 0.10322 0.96809 0.0
C2071 C 0.48057 0.12426 0.97482 0.0
C2072 C 0.48686 0.13972 0.93509 0.0
C2073 C 0.50049 0.11992 0.92936 0.0
N2074 N 0.52104 0.08569 0.94256 0.0
N2075 N 0.47393 0.16527 0.96614 0.0
C2076 C 0.50456 0.1025 0.94654 0.0
C2077 C 0.47988 0.14334 0.95873 0.0
N2078 N 0.48994 0.08359 0.9816 0.0
N2079 N 0.47986 0.1547 0.91788 0.0
H2080 H 0.47089 0.16936 0.98367 0.0
H2081 H 0.47503 0.17994 0.95536 0.0
H2082 H 0.48408 0.15218 0.90025 0.0
H2083 H 0.46793 0.16818 0.92086 0.0
H2084 H 0.49618 0.0673 0.97625 0.0
H2085 H 0.47986 0.08296 0.99686 0.0
H2086 H 0.52613 0.07365 0.95526 0.0
H2087 H 0.53149 0.0856 0.92753 0.0
C2088 C 0.11018 0.77107 0.32484 0.0
C2089 C 0.13087 0.75918 0.33132 0.0
C2090 C 0.14798 0.76882 0.29291 0.0
C2091 C 0.12608 0.77764 0.28517 0.0
N2092 N 0.0843 0.78073 0.29296 0.0
N2093 N 0.16684 0.74115 0.31854 0.0
C2094 C 0.10655 0.77708 0.30091 0.0
C2095 C 0.14909 0.7565 0.31452 0.0
N2096 N 0.09418 0.77717 0.34158 0.0
N2097 N 0.16794 0.77284 0.28023 0.0
H2098 H 0.16699 0.73039 0.33321 0.0
H2099 H 0.17951 0.73706 0.30598 0.0
H2100 H 0.16825 0.78307 0.26511 0.0
H2101 H 0.18454 0.76833 0.28632 0.0
H2102 H 0.07979 0.78779 0.33805 0.0
H2103 H 0.09671 0.77374 0.35935 0.0
H2104 H 0.06951 0.7786 0.30354 0.0
H2105 H 0.08025 0.78283 0.27531 0.0
C2106 C 0.48185 0.90699 0.53717 0.0
C2107 C 0.47318 0.8844 0.53139 0.0
C2108 C 0.47841 0.87253 0.57238 0.0
C2109 C 0.49037 0.89365 0.57694 0.0
N2110 N 0.50896 0.92836 0.56162 0.0
N2111 N 0.46926 0.84364 0.54298 0.0
C2112 C 0.4936 0.91025 0.5588 0.0
C2113 C 0.47286 0.86656 0.54889 0.0
N2114 N 0.4783 0.9255 0.52251 0.0
N2115 N 0.4727 0.85805 0.59053 0.0
H2116 H 0.46791 0.83779 0.52575 0.0
H2117 H 0.47074 0.83 0.55499 0.0
H2118 H 0.47674 0.86217 0.60791 0.0
H2119 H 0.46206 0.84333 0.58851 0.0
H2120 H 0.48275 0.94262 0.52709 0.0
H2121 H 0.46851 0.92421 0.50715 0.0
H2122 H 0.51355 0.93964 0.54799 0.0
H2123 H 0.51871 0.93074 0.57688 0.0
C2124 C 0.3789 0.21781 0.82936 0.0
C2125 C 0.37063 0.24102 0.83115 0.0
C2126 C 0.36694 0.24348 0.78833 0.0
C2127 C 0.3739 0.21968 0.78647 0.0
N2128 N 0.38931 0.18472 0.80481 0.0
N2129 N 0.35553 0.27591 0.81361 0.0
C2130 C 0.38086 0.20702 0.80687 0.0
C2131 C 0.36446 0.2539 0.81092 0.0
N2132 N 0.38362 0.2058 0.84953 0.0
N2133 N 0.36386 0.2564 0.76839 0.0
H2134 H 0.35457 0.28421 0.82989 0.0
H2135 H 0.34806 0.28556 0.80012 0.0
H2136 H 0.36615 0.24952 0.75159 0.0
H2137 H 0.36089 0.27435 0.76829 0.0
H2138 H 0.38746 0.18806 0.85031 0.0
H2139 H 0.38273 0.21358 0.86607 0.0
H2140 H 0.3973 0.17555 0.81831 0.0
H2141 H 0.38918 0.17518 0.78928 0.0
C2142 C 0.01413 0.1104 0.03512 0.0
C2143 C 0.02601 0.13188 0.03135 0.0
C2144 C 0.01998 0.14218 0.07272 0.0
C2145 C 0.00568 0.12215 0.0757 0.0
N2146 N 0.98427 0.09056 0.05779 0.0
N2147 N 0.03456 0.17098 0.04538 0.0
C2148 C 1.00144 0.1071 0.05635 0.0
C2149 C 0.0274 0.14859 0.04982 0.0
N2150 N 0.0154 0.09292 0.0188 0.0
N2151 N 0.02713 0.1547 0.09181 0.0
H2152 H 0.03872 0.17695 0.02861 0.0
H2153 H 0.03369 0.18429 0.05786 0.0
H2154 H 0.02275 0.14994 0.10893 0.0
H2155 H 0.03937 0.16823 0.09075 0.0
H2156 H 0.00889 0.07613 0.02182 0.0
H2157 H 0.02494 0.09453 0.00325 0.0
H2158 H 0.97918 0.08016 0.04366 0.0
H2159 H 0.97312 0.08956 0.07221 0.0
C2160 C 0.20345 0.14125 0.22842 0.0
C2161 C 0.21479 0.11957 0.23218 0.0
C2162 C 0.18208 0.10769 0.25778 0.0
C2163 C 0.16899 0.12732 0.25013 0.0
N2164 N 0.16603 0.15973 0.2233 0.0
N2165 N 0.21487 0.08158 0.25053 0.0
C2166 C 0.17943 0.1434 0.23425 0.0
C2167 C 0.20403 0.10252 0.24682 0.0
N2168 N 0.21543 0.15992 0.21944 0.0
N2169 N 0.17411 0.09478 0.27629 0.0
H2170 H 0.2315 0.07776 0.2439 0.0
H2171 H 0.20682 0.06759 0.25908 0.0
H2172 H 0.15875 0.09896 0.28532 0.0
H2173 H 0.18384 0.08157 0.28415 0.0
H2174 H 0.20831 0.1767 0.21882 0.0
H2175 H 0.2331 0.15932 0.21497 0.0
H2176 H 0.17248 0.17121 0.21066 0.0
H2177 H 0.1479 0.15953 0.22455 0.0
C2178 C 0.12388 0.93109 0.46974 0.0
C2179 C 0.11559 0.93083 0.49304 0.0
C2180 C 0.11432 0.9738 0.49364 0.0
C2181 C 0.12214 0.97426 0.46988 0.0
N2182 N 0.1388 0.95305 0.4368 0.0
N2183 N 0.10026 0.95071 0.52673 0.0
C2184 C 0.12821 0.95284 0.45833 0.0
C2185 C 0.11013 0.95189 0.50489 0.0
N2186 N 0.12658 0.91027 0.4582 0.0
N2187 N 0.11251 0.99429 0.50594 0.0
H2188 H 0.09762 0.9349 0.53548 0.0
H2189 H 0.09328 0.96502 0.53559 0.0
H2190 H 0.11667 0.01057 0.4988 0.0
H2191 H 0.10901 0.99522 0.52383 0.0
H2192 H 0.12943 0.90879 0.44023 0.0
H2193 H 0.12425 0.89413 0.46642 0.0
H2194 H 0.14649 0.93844 0.4291 0.0
H2195 H 0.14168 0.968 0.42701 0.0
C2196 C 0.33528 0.88095 0.72188 0.0
C2197 C 0.33719 0.87722 0.7463 0.0
C2198 C 0.29428 0.87565 0.74996 0.0
C2199 C 0.29229 0.87917 0.72529 0.0
N2200 N 0.31078 0.8894 0.68838 0.0
N2201 N 0.3197 0.87294 0.78425 0.0
C2202 C 0.31274 0.88331 0.71147 0.0
C2203 C 0.31694 0.87528 0.76056 0.0
N2204 N 0.35519 0.88093 0.70849 0.0
N2205 N 0.2744 0.87258 0.76313 0.0
H2206 H 0.33619 0.87232 0.79209 0.0
H2207 H 0.30604 0.87257 0.79635 0.0
H2208 H 0.25759 0.87453 0.75629 0.0
H2209 H 0.27424 0.86792 0.78073 0.0
H2210 H 0.35526 0.88032 0.69025 0.0
H2211 H 0.37193 0.88002 0.71574 0.0
H2212 H 0.32477 0.89532 0.67823 0.0
H2213 H 0.29494 0.89025 0.67951 0.0
C2214 C 0.3907 0.055 0.00578 0.0
C2215 C 0.38434 0.07527 0.99318 0.0
C2216 C 0.37655 0.05168 0.95831 0.0
C2217 C 0.38142 0.03088 0.97135 0.0
N2218 N 0.38688 0.01301 0.00939 0.0
N2219 N 0.36731 0.09312 0.95937 0.0
C2220 C 0.38679 0.03259 0.99566 0.0
C2221 C 0.37593 0.07359 0.97007 0.0
N2222 N 0.40092 0.05724 0.02726 0.0
N2223 N 0.37383 0.05095 0.93453 0.0
H2224 H 0.36743 0.10954 0.96739 0.0
H2225 H 0.3583 0.09271 0.94352 0.0
H2226 H 0.3741 0.03571 0.92472 0.0
H2227 H 0.37329 0.06583 0.92404 0.0
H2228 H 0.40826 0.04328 0.03635 0.0
H2229 H 0.40374 0.07348 0.03507 0.0
H2230 H 0.38857 0.01356 0.02757 0.0
H2231 H 0.38262 0.99641 0.00307 0.0
C2232 C 0.20861 0.89215 0.25793 0.0
C2233 C 0.217 0.87737 0.27594 0.0
C2234 C 0.17857 0.85936 0.27938 0.0
C2235 C 0.17061 0.87199 0.25952 0.0
N2236 N 0.18178 0.89469 0.22537 0.0
N2237 N 0.21236 0.8406 0.29604 0.0
C2238 C 0.1866 0.88697 0.24747 0.0
C2239 C 0.20275 0.85899 0.28435 0.0
N2240 N 0.22167 0.91081 0.25058 0.0
N2241 N 0.16311 0.8485 0.29411 0.0
H2242 H 0.23046 0.8387 0.29752 0.0
H2243 H 0.20259 0.82602 0.30119 0.0
H2244 H 0.14502 0.85048 0.29259 0.0
H2245 H 0.16843 0.84013 0.30944 0.0
H2246 H 0.21524 0.92336 0.23903 0.0
H2247 H 0.23823 0.91456 0.25736 0.0
H2248 H 0.19376 0.90423 0.21537 0.0
H2249 H 0.1673 0.88895 0.21587 0.0
C2250 C 0.35904 0.95974 0.50888 0.0
C2251 C 0.37424 0.9676 0.52692 0.0
C2252 C 0.39199 0.92904 0.52877 0.0
C2253 C 0.37865 0.92153 0.50924 0.0
N2254 N 0.35404 0.93248 0.47667 0.0
N2255 N 0.41132 0.96216 0.54611 0.0
C2256 C 0.36323 0.93757 0.49816 0.0
C2257 C 0.39258 0.95303 0.53455 0.0
N2258 N 0.34107 0.97362 0.50159 0.0
N2259 N 0.40353 0.91323 0.54239 0.0
H2260 H 0.41292 0.97993 0.54985 0.0
H2261 H 0.42642 0.95237 0.54907 0.0
H2262 H 0.40172 0.89521 0.54009 0.0
H2263 H 0.4125 0.91806 0.55756 0.0
H2264 H 0.32804 0.96783 0.4902 0.0
H2265 H 0.33853 0.9905 0.50806 0.0
H2266 H 0.3444 0.94443 0.46689 0.0
H2267 H 0.35824 0.91733 0.4674 0.0
C2268 C 0.29609 0.10696 0.75837 0.0
C2269 C 0.28428 0.12465 0.77125 0.0
C2270 C 0.31944 0.14893 0.77069 0.0
C2271 C 0.33096 0.13196 0.7567 0.0
N2272 N 0.32924 0.09701 0.73343 0.0
N2273 N 0.2824 0.16528 0.78291 0.0
C2274 C 0.31889 0.11161 0.74932 0.0
C2275 C 0.29515 0.14662 0.77511 0.0
N2276 N 0.28562 0.08569 0.75505 0.0
N2277 N 0.33203 0.16628 0.78125 0.0
H2278 H 0.26431 0.16456 0.78531 0.0
H2279 H 0.28934 0.18212 0.78428 0.0
H2280 H 0.35017 0.16728 0.77992 0.0
H2281 H 0.32487 0.17788 0.79342 0.0
H2282 H 0.29421 0.07125 0.748 0.0
H2283 H 0.2685 0.0822 0.76046 0.0
H2284 H 0.32064 0.08298 0.72556 0.0
H2285 H 0.34595 0.10024 0.72663 0.0
C2286 C 0.11074 0.05266 0.04179 0.0
C2287 C 0.13001 0.03941 0.03342 0.0
C2288 C 0.14144 0.07191 0.00773 0.0
C2289 C 0.12413 0.08613 0.0185 0.0
N2290 N 0.09509 0.09135 0.0488 0.0
N2291 N 0.16446 0.0363 0.00906 0.0
C2292 C 0.10945 0.07683 0.0363 0.0
C2293 C 0.14567 0.04906 0.01663 0.0
N2294 N 0.09342 0.04214 0.05459 0.0
N2295 N 0.15297 0.07986 0.98828 0.0
H2296 H 0.16719 0.01897 0.01402 0.0
H2297 H 0.17796 0.04324 0.99888 0.0
H2298 H 0.14976 0.09624 0.98098 0.0
H2299 H 0.16409 0.06955 0.97813 0.0
H2300 H 0.07771 0.05039 0.0589 0.0
H2301 H 0.09379 0.02451 0.05911 0.0
H2302 H 0.08554 0.08594 0.06343 0.0
H2303 H 0.09465 0.10939 0.04611 0.0
C2304 C 0.22324 0.18254 0.156 0.0
C2305 C 0.24262 0.17328 0.14367 0.0
C2306 C 0.24581 0.20944 0.12114 0.0
C2307 C 0.2277 0.21928 0.13508 0.0
N2308 N 0.20588 0.21762 0.17156 0.0
N2309 N 0.27651 0.18033 0.11937 0.0
C2310 C 0.21858 0.2067 0.15445 0.0
C2311 C 0.25523 0.18748 0.12765 0.0
N2312 N 0.20825 0.16813 0.1678 0.0
N2313 N 0.25391 0.22087 0.10172 0.0
H2314 H 0.28442 0.16489 0.12497 0.0
H2315 H 0.28735 0.19089 0.10909 0.0
H2316 H 0.24785 0.23728 0.09679 0.0
H2317 H 0.2654 0.21328 0.0897 0.0
H2318 H 0.1924 0.17408 0.17467 0.0
H2319 H 0.21029 0.15002 0.16829 0.0
H2320 H 0.20021 0.20901 0.18668 0.0
H2321 H 0.20337 0.23567 0.17193 0.0
C2322 C 0.73758 0.28752 0.85368 0.0
C2323 C 0.72731 0.2797 0.87502 0.0
C2324 C 0.73307 0.31942 0.89108 0.0
C2325 C 0.74669 0.32575 0.8713 0.0
N2326 N 0.7676 0.31231 0.83714 0.0
N2327 N 0.72227 0.28775 0.91671 0.0
C2328 C 0.75054 0.3088 0.85349 0.0
C2329 C 0.72689 0.29551 0.89453 0.0
N2330 N 0.73443 0.2753 0.83334 0.0
N2331 N 0.72544 0.33618 0.90632 0.0
H2332 H 0.72054 0.27017 0.92094 0.0
H2333 H 0.72352 0.29853 0.93142 0.0
H2334 H 0.72868 0.35396 0.90374 0.0
H2335 H 0.71371 0.33257 0.91992 0.0
H2336 H 0.74028 0.28149 0.81715 0.0
H2337 H 0.72353 0.26067 0.83216 0.0
H2338 H 0.77217 0.29977 0.82465 0.0
H2339 H 0.77932 0.32615 0.83859 0.0
C2340 C 0.95561 0.4965 0.14516 0.0
C2341 C 0.96306 0.4778 0.1306 0.0
C2342 C 0.92473 0.47541 0.11324 0.0
C2343 C 0.91777 0.49596 0.12512 0.0
N2344 N 0.92924 0.52947 0.14838 0.0
N2345 N 0.95754 0.45802 0.09361 0.0
C2346 C 0.93389 0.50755 0.14015 0.0
C2347 C 0.94855 0.46974 0.1124 0.0
N2348 N 0.96928 0.50388 0.16334 0.0
N2349 N 0.90852 0.46093 0.10343 0.0
H2350 H 0.97557 0.45686 0.0908 0.0
H2351 H 0.94723 0.45283 0.07944 0.0
H2352 H 0.89065 0.46329 0.10647 0.0
H2353 H 0.91306 0.44518 0.09533 0.0
H2354 H 0.9636 0.51602 0.17575 0.0
H2355 H 0.98573 0.49675 0.16673 0.0
H2356 H 0.94142 0.53942 0.15766 0.0
H2357 H 0.91418 0.53861 0.14387 0.0
C2358 C 0.77573 0.68207 0.35643 0.0
C2359 C 0.75448 0.67561 0.36739 0.0
C2360 C 0.75578 0.71201 0.39015 0.0
C2361 C 0.77542 0.71928 0.37671 0.0
N2362 N 0.79703 0.71467 0.34073 0.0
N2363 N 0.72106 0.6875 0.39061 0.0
C2364 C 0.78328 0.70543 0.35789 0.0
C2365 C 0.74351 0.69141 0.38325 0.0
N2366 N 0.78969 0.66575 0.34604 0.0
N2367 N 0.74875 0.72475 0.40915 0.0
H2368 H 0.71094 0.67366 0.38432 0.0
H2369 H 0.71169 0.69943 0.40078 0.0
H2370 H 0.75694 0.74034 0.41405 0.0
H2371 H 0.73592 0.71896 0.42085 0.0
H2372 H 0.80641 0.66992 0.33989 0.0
H2373 H 0.78586 0.6479 0.34628 0.0
H2374 H 0.80068 0.70544 0.32543 0.0
H2375 H 0.80203 0.73218 0.34046 0.0
C2376 C 0.03479 0.00386 0.11527 0.0
C2377 C 0.03286 0.02861 0.11815 0.0
C2378 C 0.07546 0.03248 0.11374 0.0
C2379 C 0.0775 0.0079 0.11282 0.0
N2380 N 0.06028 0.96972 0.1148 0.0
N2381 N 0.05262 0.06571 0.12561 0.0
C2382 C 0.05744 0.99344 0.114 0.0
C2383 C 0.05352 0.04271 0.11908 0.0
N2384 N 0.01505 0.99027 0.11429 0.0
N2385 N 0.0945 0.04615 0.1086 0.0
H2386 H 0.03737 0.07456 0.12983 0.0
H2387 H 0.06751 0.07564 0.12923 0.0
H2388 H 0.11075 0.03922 0.10398 0.0
H2389 H 0.09353 0.06419 0.10622 0.0
H2390 H 0.01508 0.97277 0.10923 0.0
H2391 H 0.9983 0.99658 0.11788 0.0
H2392 H 0.04676 0.95791 0.11804 0.0
H2393 H 0.07674 0.96187 0.11366 0.0
C2394 C 0.27768 0.79622 0.61188 0.0
C2395 C 0.27634 0.77979 0.63067 0.0
C2396 C 0.25532 0.80923 0.65398 0.0
C2397 C 0.25995 0.8264 0.63657 0.0
N2398 N 0.27994 0.8371 0.60102 0.0
N2399 N 0.26743 0.77264 0.6715 0.0
C2400 C 0.2725 0.82013 0.61615 0.0
C2401 C 0.26613 0.78683 0.6523 0.0
N2402 N 0.28232 0.7889 0.58954 0.0
N2403 N 0.23974 0.8139 0.67154 0.0
H2404 H 0.27594 0.75653 0.67129 0.0
H2405 H 0.26216 0.77795 0.68819 0.0
H2406 H 0.23056 0.82957 0.67239 0.0
H2407 H 0.23403 0.80134 0.68352 0.0
H2408 H 0.2816 0.79999 0.57506 0.0
H2409 H 0.28373 0.77134 0.58502 0.0
H2410 H 0.29117 0.83371 0.58697 0.0
H2411 H 0.27686 0.85485 0.60398 0.0
C2412 C 0.94596 0.49985 0.37494 0.0
C2413 C 0.93067 0.51241 0.38989 0.0
C2414 C 0.96383 0.53565 0.40438 0.0
C2415 C 0.97816 0.52608 0.38653 0.0
N2416 N 0.98409 0.49765 0.35593 0.0
N2417 N 0.92441 0.5426 0.41861 0.0
C2418 C 0.96963 0.50754 0.37225 0.0
C2419 C 0.93951 0.53025 0.40476 0.0
N2420 N 0.93773 0.48042 0.36365 0.0
N2421 N 0.97369 0.54944 0.42125 0.0
H2422 H 0.90662 0.53874 0.41941 0.0
H2423 H 0.92916 0.55749 0.42801 0.0
H2424 H 0.99168 0.55262 0.42173 0.0
H2425 H 0.96466 0.55562 0.43588 0.0
H2426 H 0.94825 0.46907 0.354 0.0
H2427 H 0.92042 0.47473 0.36544 0.0
H2428 H 0.97846 0.48604 0.34303 0.0
H2429 H 1.00193 0.50148 0.35514 0.0
C2430 C 0.54084 0.49781 0.86603 0.0
C2431 C 0.52959 0.4814 0.88087 0.0
C2432 C 0.56501 0.47672 0.90327 0.0
C2433 C 0.57588 0.49479 0.8904 0.0
N2434 N 0.5715 0.52712 0.8635 0.0
N2435 N 0.52821 0.46468 0.91971 0.0
C2436 C 0.56304 0.50682 0.87284 0.0
C2437 C 0.5407 0.47388 0.90152 0.0
N2438 N 0.53045 0.50471 0.84566 0.0
N2439 N 0.5779 0.46096 0.91554 0.0
H2440 H 0.50992 0.46437 0.91972 0.0
H2441 H 0.5361 0.45994 0.9355 0.0
H2442 H 0.59619 0.46117 0.91564 0.0
H2443 H 0.57023 0.44606 0.92288 0.0
H2444 H 0.53903 0.51489 0.83312 0.0
H2445 H 0.51371 0.49911 0.84083 0.0
H2446 H 0.56196 0.53735 0.85183 0.0
H2447 H 0.58688 0.53501 0.86944 0.0
C2448 C 0.62165 0.75307 0.71483 0.0
C2449 C 0.63453 0.73373 0.72315 0.0
C2450 C 0.65673 0.73188 0.68713 0.0
C2451 C 0.64494 0.75192 0.67878 0.0
N2452 N 0.62186 0.78604 0.68816 0.0
N2453 N 0.67175 0.71399 0.72204 0.0
C2454 C 0.62903 0.76398 0.6937 0.0
C2455 C 0.65453 0.72608 0.71092 0.0
N2456 N 0.60266 0.76101 0.72705 0.0
N2457 N 0.66825 0.71715 0.67228 0.0
H2458 H 0.67132 0.71099 0.74008 0.0
H2459 H 0.68739 0.70954 0.71372 0.0
H2460 H 0.66847 0.7193 0.65414 0.0
H2461 H 0.67472 0.7011 0.67797 0.0
H2462 H 0.59126 0.77361 0.7205 0.0
H2463 H 0.59783 0.75409 0.7433 0.0
H2464 H 0.61152 0.79622 0.69925 0.0
H2465 H 0.62855 0.79508 0.67372 0.0
C2466 C 0.51991 0.40483 0.97347 0.0
C2467 C 0.52956 0.3825 0.97862 0.0
C2468 C 0.52551 0.37211 0.937 0.0
C2469 C 0.51204 0.39241 0.93297 0.0
N2470 N 0.49225 0.42595 0.94942 0.0
N2471 N 0.53491 0.34243 0.96525 0.0
C2472 C 0.50813 0.40831 0.95174 0.0
C2473 C 0.53072 0.36543 0.96036 0.0
N2474 N 0.52255 0.42299 0.98883 0.0
N2475 N 0.53355 0.35926 0.91849 0.0
H2476 H 0.53582 0.33584 0.98222 0.0
H2477 H 0.53413 0.32935 0.9525 0.0
H2478 H 0.53083 0.36431 0.90113 0.0
H2479 H 0.54512 0.34531 0.9205 0.0
H2480 H 0.51747 0.44003 0.98485 0.0
H2481 H 0.53224 0.42162 0.00423 0.0
H2482 H 0.48729 0.43668 0.96337 0.0
H2483 H 0.48221 0.42822 0.93438 0.0
C2484 C 0.88627 0.25736 0.21547 0.0
C2485 C 0.87227 0.27462 0.22659 0.0
C2486 C 0.84642 0.27611 0.19274 0.0
C2487 C 0.86063 0.25944 0.18117 0.0
N2488 N 0.89111 0.23076 0.18228 0.0
N2489 N 0.8338 0.29161 0.23 0.0
C2490 C 0.87959 0.2488 0.19293 0.0
C2491 C 0.8507 0.28134 0.21655 0.0
N2492 N 0.90576 0.24928 0.22659 0.0
N2493 N 0.82943 0.28769 0.1807 0.0
H2494 H 0.83518 0.29255 0.24817 0.0
H2495 H 0.81717 0.29571 0.22373 0.0
H2496 H 0.82522 0.28382 0.16335 0.0
H2497 H 0.82084 0.3023 0.18746 0.0
H2498 H 0.91802 0.23818 0.21893 0.0
H2499 H 0.90961 0.25401 0.24383 0.0
H2500 H 0.90427 0.22102 0.19019 0.0
H2501 H 0.8863 0.22459 0.16573 0.0
C2502 C 0.98456 0.60712 0.465 0.0
C2503 C 0.97502 0.62903 0.47185 0.0
C2504 C 0.98016 0.64272 0.43124 0.0
C2505 C 0.9929 0.62224 0.42564 0.0
N2506 N 0.01358 0.58874 0.44046 0.0
N2507 N 0.97035 0.6701 0.46198 0.0
C2508 C 0.99689 0.60544 0.44344 0.0
C2509 C 0.97454 0.64758 0.45511 0.0
N2510 N 0.98128 0.58765 0.47849 0.0
N2511 N 0.97302 0.65735 0.41382 0.0
H2512 H 0.96868 0.67513 0.47946 0.0
H2513 H 0.97167 0.68424 0.45052 0.0
H2514 H 0.97613 0.65383 0.39613 0.0
H2515 H 0.96192 0.6715 0.41686 0.0
H2516 H 0.98674 0.57107 0.47313 0.0
H2517 H 0.97066 0.58751 0.4934 0.0
H2518 H 0.01842 0.57719 0.45372 0.0
H2519 H 0.02447 0.58859 0.42584 0.0
C2520 C 0.62581 0.28068 0.82972 0.0
C2521 C 0.63312 0.25722 0.83148 0.0
C2522 C 0.63462 0.25415 0.78867 0.0
C2523 C 0.63067 0.27867 0.78684 0.0
N2524 N 0.62475 0.31592 0.80657 0.0
N2525 N 0.6469 0.22191 0.81336 0.0
C2526 C 0.62659 0.29212 0.8076 0.0
C2527 C 0.63821 0.24402 0.81113 0.0
N2528 N 0.61794 0.29193 0.84935 0.0
N2529 N 0.63365 0.24029 0.76913 0.0
H2530 H 0.64886 0.2138 0.8296 0.0
H2531 H 0.65362 0.21233 0.79932 0.0
H2532 H 0.6294 0.24668 0.75257 0.0
H2533 H 0.63439 0.22209 0.76974 0.0
H2534 H 0.60981 0.30822 0.84902 0.0
H2535 H 0.61766 0.28395 0.8658 0.0
H2536 H 0.6248 0.32665 0.82134 0.0
H2537 H 0.62499 0.32538 0.79109 0.0
C2538 C 0.97977 0.40574 0.0364 0.0
C2539 C 0.97196 0.38325 0.02899 0.0
C2540 C 0.97617 0.36925 0.06941 0.0
C2541 C 0.98721 0.39042 0.07579 0.0
N2542 N 0.00534 0.42648 0.06306 0.0
N2543 N 0.97044 0.3417 0.03807 0.0
C2544 C 0.99069 0.40809 0.05866 0.0
C2545 C 0.9722 0.3644 0.04539 0.0
N2546 N 0.97599 0.42505 0.02288 0.0
N2547 N 0.96935 0.35378 0.08633 0.0
H2548 H 0.97066 0.33686 0.02048 0.0
H2549 H 0.97219 0.32753 0.04942 0.0
H2550 H 0.97146 0.35724 0.10418 0.0
H2551 H 0.95939 0.33891 0.08264 0.0
H2552 H 0.97983 0.44195 0.02864 0.0
H2553 H 0.9665 0.42458 0.00731 0.0
H2554 H 0.01 0.43866 0.05025 0.0
H2555 H 0.01487 0.42806 0.07854 0.0
C2556 C 0.85788 0.71883 0.2942 0.0
C2557 C 0.87563 0.72846 0.28006 0.0
C2558 C 0.88265 0.75825 0.31021 0.0
C2559 C 0.86771 0.74559 0.32555 0.0
N2560 N 0.84718 0.70976 0.33386 0.0
N2561 N 0.90502 0.75813 0.27377 0.0
C2562 C 0.85701 0.72473 0.31806 0.0
C2563 C 0.88814 0.74852 0.28778 0.0
N2564 N 0.84061 0.70562 0.28455 0.0
N2565 N 0.89106 0.77958 0.31698 0.0
H2566 H 0.90832 0.75202 0.25683 0.0
H2567 H 0.91628 0.77142 0.27921 0.0
H2568 H 0.88692 0.78693 0.33324 0.0
H2569 H 0.90061 0.79062 0.30601 0.0
H2570 H 0.82588 0.70073 0.29415 0.0
H2571 H 0.83928 0.70316 0.26653 0.0
H2572 H 0.8414 0.69314 0.32899 0.0
H2573 H 0.84701 0.71304 0.35186 0.0
C2574 C 0.51821 0.60872 0.54004 0.0
C2575 C 0.52825 0.63074 0.53448 0.0
C2576 C 0.52123 0.64376 0.57498 0.0
C2577 C 0.50845 0.62301 0.5796 0.0
N2578 N 0.49044 0.58795 0.56442 0.0
N2579 N 0.53404 0.67128 0.54549 0.0
C2580 C 0.50581 0.60602 0.56155 0.0
C2581 C 0.52838 0.64886 0.55163 0.0
N2582 N 0.52102 0.59018 0.52515 0.0
N2583 N 0.52724 0.65826 0.59303 0.0
H2584 H 0.53806 0.67622 0.52837 0.0
H2585 H 0.53216 0.68543 0.55689 0.0
H2586 H 0.52303 0.65457 0.61045 0.0
H2587 H 0.5385 0.67251 0.59095 0.0
H2588 H 0.51601 0.57317 0.52948 0.0
H2589 H 0.53048 0.59133 0.5095 0.0
H2590 H 0.48621 0.57619 0.55111 0.0
H2591 H 0.47989 0.58651 0.5792 0.0
C2592 C 0.70373 0.66201 0.74644 0.0
C2593 C 0.68656 0.64717 0.73651 0.0
C2594 C 0.71769 0.62377 0.71829 0.0
C2595 C 0.73488 0.64043 0.72564 0.0
N2596 N 0.74272 0.67817 0.74362 0.0
N2597 N 0.67661 0.61664 0.70952 0.0
C2598 C 0.72735 0.66043 0.73863 0.0
C2599 C 0.69342 0.62914 0.721 0.0
N2600 N 0.69784 0.6767 0.76444 0.0
N2601 N 0.72409 0.60191 0.71141 0.0
H2602 H 0.65877 0.6201 0.71174 0.0
H2603 H 0.68049 0.60459 0.69633 0.0
H2604 H 0.74076 0.59562 0.71448 0.0
H2605 H 0.71214 0.58885 0.7069 0.0
H2606 H 0.71021 0.68584 0.77428 0.0
H2607 H 0.68084 0.67816 0.771 0.0
H2608 H 0.73741 0.69413 0.7507 0.0
H2609 H 0.76041 0.67793 0.73893 0.0
C2610 C 0.60935 0.44898 0.97594 0.0
C2611 C 0.62909 0.46266 0.98165 0.0
C2612 C 0.64105 0.43275 0.00981 0.0
C2613 C 0.62402 0.41729 1.00029 0.0
N2614 N 0.59621 0.40965 0.96918 0.0
N2615 N 0.66471 0.46753 0.00379 0.0
C2616 C 0.60934 0.4251 0.98187 0.0
C2617 C 0.64545 0.45443 0.99836 0.0
N2618 N 0.59024 0.45873 0.9656 0.0
N2619 N 0.65168 0.42766 0.03059 0.0
H2620 H 0.66747 0.48422 0.99696 0.0
H2621 H 0.67842 0.46125 0.01403 0.0
H2622 H 0.64735 0.41301 0.04055 0.0
H2623 H 0.66274 0.43932 0.03926 0.0
H2624 H 0.57444 0.44964 0.96403 0.0
H2625 H 0.58934 0.47641 0.96129 0.0
H2626 H 0.58623 0.41477 0.95478 0.0
H2627 H 0.59767 0.39157 0.97115 0.0
C2628 C 0.8051 0.36434 0.25591 0.0
C2629 C 0.8249 0.36326 0.24097 0.0
C2630 C 0.80028 0.37219 0.20699 0.0
C2631 C 0.77985 0.37116 0.22149 0.0
N2632 N 0.76271 0.36563 0.25991 0.0
N2633 N 0.84105 0.36119 0.2022 0.0
C2634 C 0.78225 0.36689 0.24602 0.0
C2635 C 0.82236 0.36582 0.21649 0.0
N2636 N 0.80838 0.3638 0.27962 0.0
N2637 N 0.79896 0.37957 0.18424 0.0
H2638 H 0.85737 0.35621 0.2087 0.0
H2639 H 0.83979 0.35996 0.18401 0.0
H2640 H 0.78342 0.38363 0.17576 0.0
H2641 H 0.81368 0.3834 0.17407 0.0
H2642 H 0.79519 0.36686 0.29187 0.0
H2643 H 0.82491 0.3617 0.2871 0.0
H2644 H 0.76289 0.35977 0.27718 0.0
H2645 H 0.74597 0.36976 0.25394 0.0
C2646 C 0.87282 0.583 0.47016 0.0
C2647 C 0.88203 0.58521 0.49301 0.0
C2648 C 0.88582 0.54242 0.49575 0.0
C2649 C 0.87883 0.54029 0.47192 0.0
N2650 N 0.86722 0.55896 0.43562 0.0
N2651 N 0.89857 0.56796 0.52749 0.0
C2652 C 0.87245 0.56067 0.45896 0.0
C2653 C 0.88881 0.56513 0.50583 0.0
N2654 N 0.86429 0.60247 0.45928 0.0
N2655 N 0.88873 0.52269 0.50895 0.0
H2656 H 0.90007 0.5843 0.53551 0.0
H2657 H 0.90631 0.55449 0.53695 0.0
H2658 H 0.88619 0.50588 0.50226 0.0
H2659 H 0.8917 0.52289 0.52695 0.0
H2660 H 0.85492 0.60209 0.44366 0.0
H2661 H 0.86512 0.61907 0.46687 0.0
H2662 H 0.86533 0.57331 0.4246 0.0
H2663 H 0.86644 0.54322 0.42652 0.0
C2664 C 0.69428 0.36932 0.74779 0.0
C2665 C 0.67429 0.37414 0.76166 0.0
C2666 C 0.69911 0.38091 0.79609 0.0
C2667 C 0.71944 0.37542 0.78232 0.0
N2668 N 0.73655 0.37084 0.74375 0.0
N2669 N 0.65652 0.38301 0.79861 0.0
C2670 C 0.71706 0.3713 0.75778 0.0
C2671 C 0.67648 0.37998 0.7856 0.0
N2672 N 0.69126 0.36203 0.72517 0.0
N2673 N 0.70121 0.38716 0.81915 0.0
H2674 H 0.63985 0.38317 0.79115 0.0
H2675 H 0.65604 0.38421 0.8168 0.0
H2676 H 0.71644 0.38547 0.82881 0.0
H2677 H 0.68792 0.39495 0.8289 0.0
H2678 H 0.70465 0.35521 0.71479 0.0
H2679 H 0.67483 0.36155 0.7172 0.0
H2680 H 0.73594 0.37008 0.72553 0.0
H2681 H 0.75346 0.37365 0.75005 0.0
C2682 C 0.88433 0.44072 0.99423 0.0
C2683 C 0.87843 0.42133 0.0085 0.0
C2684 C 0.87145 0.44761 0.04194 0.0
C2685 C 0.87737 0.46722 0.0276 0.0
N2686 N 0.88269 0.48272 0.98862 0.0
N2687 N 0.86255 0.40592 0.04416 0.0
C2688 C 0.88182 0.46382 0.00327 0.0
C2689 C 0.87067 0.42475 0.03181 0.0
N2690 N 0.89307 0.43694 0.97223 0.0
N2691 N 0.86775 0.45058 0.06542 0.0
H2692 H 0.86239 0.38904 0.03714 0.0
H2693 H 0.8544 0.40712 0.06046 0.0
H2694 H 0.86766 0.46684 0.07354 0.0
H2695 H 0.86607 0.43685 0.07728 0.0
H2696 H 0.90043 0.45006 0.96189 0.0
H2697 H 0.89436 0.42026 0.96492 0.0
H2698 H 0.88377 0.48134 0.97043 0.0
H2699 H 0.87979 0.4998 0.99442 0.0
C2700 C 0.78827 0.61126 0.25461 0.0
C2701 C 0.78029 0.62536 0.27354 0.0
C2702 C 0.81823 0.64442 0.27529 0.0
C2703 C 0.82536 0.63315 0.25451 0.0
N2704 N 0.81552 0.60827 0.22184 0.0
N2705 N 0.78501 0.66181 0.29409 0.0
C2706 C 0.80994 0.61711 0.24338 0.0
C2707 C 0.79445 0.64382 0.2817 0.0
N2708 N 0.77528 0.59253 0.24739 0.0
N2709 N 0.83427 0.65463 0.28967 0.0
H2710 H 0.76701 0.66365 0.29631 0.0
H2711 H 0.7948 0.67651 0.29854 0.0
H2712 H 0.85224 0.65434 0.2862 0.0
H2713 H 0.82963 0.66076 0.30625 0.0
H2714 H 0.78128 0.58041 0.23512 0.0
H2715 H 0.75913 0.58831 0.25491 0.0
H2716 H 0.80406 0.59804 0.21199 0.0
H2717 H 0.83082 0.613 0.21296 0.0
C2718 C 0.64547 0.54862 0.51223 0.0
C2719 C 0.62981 0.54022 0.52967 0.0
C2720 C 0.613 0.57924 0.53353 0.0
C2721 C 0.62634 0.58698 0.51403 0.0
N2722 N 0.65189 0.57718 0.48165 0.0
N2723 N 0.59419 0.54624 0.55187 0.0
C2724 C 0.64182 0.57122 0.50254 0.0
C2725 C 0.61221 0.55511 0.53886 0.0
N2726 N 0.66372 0.53504 0.50479 0.0
N2727 N 0.60158 0.59505 0.54739 0.0
H2728 H 0.59203 0.52843 0.5546 0.0
H2729 H 0.57988 0.55622 0.55727 0.0
H2730 H 0.60309 0.61307 0.54488 0.0
H2731 H 0.59303 0.59041 0.5629 0.0
H2732 H 0.67708 0.54127 0.49394 0.0
H2733 H 0.66645 0.51808 0.51085 0.0
H2734 H 0.66122 0.56541 0.47125 0.0
H2735 H 0.64905 0.5932 0.47362 0.0
C2736 C 0.72623 0.68791 0.65483 0.0
C2737 C 0.73445 0.67189 0.63777 0.0
C2738 C 0.736 0.70292 0.60836 0.0
C2739 C 0.72751 0.71891 0.62539 0.0
N2740 N 0.7221 0.72845 0.66645 0.0
N2741 N 0.75434 0.66537 0.60113 0.0
C2742 C 0.72526 0.71206 0.64925 0.0
C2743 C 0.74143 0.67974 0.61528 0.0
N2744 N 0.71849 0.67976 0.67602 0.0
N2745 N 0.73902 0.70997 0.58565 0.0
H2746 H 0.75941 0.64863 0.60627 0.0
H2747 H 0.76198 0.67078 0.58544 0.0
H2748 H 0.73701 0.72732 0.58041 0.0
H2749 H 0.74261 0.6985 0.5719 0.0
H2750 H 0.71239 0.69032 0.6895 0.0
H2751 H 0.71641 0.662 0.67959 0.0
H2752 H 0.72229 0.72462 0.68428 0.0
H2753 H 0.72168 0.74633 0.66321 0.0
C2754 C 0.22472 0.79388 0.3903 0.0
C2755 C 0.2225 0.7769 0.3721 0.0
C2756 C 0.24131 0.80428 0.34483 0.0
C2757 C 0.24076 0.82193 0.36229 0.0
N2758 N 0.22684 0.83514 0.39977 0.0
N2759 N 0.22351 0.76865 0.33045 0.0
C2760 C 0.23067 0.81722 0.3844 0.0
C2761 C 0.22925 0.78287 0.34884 0.0
N2762 N 0.22294 0.78757 0.41335 0.0
N2763 N 0.2544 0.80737 0.32499 0.0
H2764 H 0.21379 0.75332 0.33244 0.0
H2765 H 0.22622 0.77345 0.31302 0.0
H2766 H 0.26428 0.82243 0.3219 0.0
H2767 H 0.25717 0.79408 0.31276 0.0
H2768 H 0.22632 0.79908 0.42712 0.0
H2769 H 0.22115 0.7703 0.41882 0.0
H2770 H 0.21757 0.83302 0.41542 0.0
H2771 H 0.2308 0.85249 0.39561 0.0
C2772 C 0.45715 0.9718 0.60748 0.0
C2773 C 0.47084 0.98116 0.62574 0.0
C2774 C 0.44065 0.01034 0.63314 0.0
C2775 C 0.42542 0.9977 0.61811 0.0
N2776 N 0.41767 0.96188 0.59714 0.0
N2777 N 0.47519 0.00858 0.65767 0.0
C2778 C 0.43321 0.97712 0.60694 0.0
C2779 C 0.46247 1.00023 0.63922 0.0
N2780 N 0.46705 0.95868 0.59016 0.0
N2781 N 0.43475 0.03221 0.6407 0.0
H2782 H 0.49166 0.00203 0.66197 0.0
H2783 H 0.46869 0.02092 0.66947 0.0
H2784 H 0.41945 0.04058 0.63536 0.0
H2785 H 0.44613 0.04288 0.65018 0.0
H2786 H 0.45754 0.95234 0.57592 0.0
H2787 H 0.48515 0.95678 0.5888 0.0
H2788 H 0.42284 0.94543 0.59111 0.0
H2789 H 0.3996 0.96455 0.5976 0.0
C2790 C 0.26356 0.21962 0.85084 0.0
C2791 C 0.27439 0.22506 0.87259 0.0
C2792 C 0.27415 0.1835 0.88244 0.0
C2793 C 0.25991 0.17858 0.86276 0.0
N2794 N 0.23543 0.19425 0.83199 0.0
N2795 N 0.2819 0.21206 0.9124 0.0
C2796 C 0.25297 0.19727 0.84792 0.0
C2797 C 0.27735 0.20699 0.88944 0.0
N2798 N 0.26404 0.23514 0.83267 0.0
N2799 N 0.28532 0.16593 0.89405 0.0
H2800 H 0.28154 0.22903 0.9191 0.0
H2801 H 0.28271 0.19916 0.9253 0.0
H2802 H 0.28507 0.14864 0.88819 0.0
H2803 H 0.29716 0.16916 0.90758 0.0
H2804 H 0.25793 0.23086 0.81598 0.0
H2805 H 0.27293 0.25107 0.83342 0.0
H2806 H 0.22878 0.20801 0.82205 0.0
H2807 H 0.22555 0.17893 0.83093 0.0
C2808 C 0.5737 0.53214 0.61504 0.0
C2809 C 0.57407 0.50783 0.6108 0.0
C2810 C 0.53114 0.50629 0.61472 0.0
C2811 C 0.53084 0.53064 0.6204 0.0
N2812 N 0.55347 0.56503 0.63182 0.0
N2813 N 0.55433 0.47093 0.60873 0.0
C2814 C 0.55255 0.54309 0.62229 0.0
C2815 C 0.55306 0.49467 0.61117 0.0
N2816 N 0.59371 0.54492 0.61167 0.0
N2817 N 0.51051 0.49418 0.61319 0.0
H2818 H 0.57016 0.46234 0.60556 0.0
H2819 H 0.5402 0.45962 0.61108 0.0
H2820 H 0.49441 0.50121 0.6182 0.0
H2821 H 0.50914 0.47731 0.60644 0.0
H2822 H 0.59403 0.56315 0.61136 0.0
H2823 H 0.60966 0.53734 0.60696 0.0
H2824 H 0.56911 0.5735 0.63595 0.0
H2825 H 0.53908 0.57403 0.63818 0.0
C2826 C 0.76433 0.31685 0.15162 0.0
C2827 C 0.75218 0.32931 0.1339 0.0
C2828 C 0.75822 0.29694 0.10659 0.0
C2829 C 0.76973 0.2842 0.12451 0.0
N2830 N 0.77789 0.27952 0.16589 0.0
N2831 N 0.7315 0.32854 0.09741 0.0
C2832 C 0.77056 0.29318 0.1477 0.0
C2833 C 0.74713 0.31837 0.1123 0.0
N2834 N 0.7718 0.32807 0.17133 0.0
N2835 N 0.75841 0.28893 0.08403 0.0
H2836 H 0.72286 0.34407 0.10166 0.0
H2837 H 0.72538 0.32044 0.08224 0.0
H2838 H 0.7663 0.27325 0.0792 0.0
H2839 H 0.75228 0.29866 0.0699 0.0
H2840 H 0.78274 0.32054 0.18377 0.0
H2841 H 0.76899 0.34572 0.17412 0.0
H2842 H 0.77606 0.28447 0.1834 0.0
H2843 H 0.78441 0.26265 0.16379 0.0
C2844 C 0.44436 0.99327 0.88225 0.0
C2845 C 0.42464 0.00736 0.87744 0.0
C2846 C 0.45028 0.04185 0.87291 0.0
C2847 C 0.47024 0.02773 0.87825 0.0
N2848 N 0.48664 0.98901 0.88144 0.0
N2849 N 0.4078 0.04425 0.8675 0.0
C2850 C 0.46732 0.00312 0.881 0.0
C2851 C 0.42744 0.03138 0.87212 0.0
N2852 N 0.44093 0.9706 0.88902 0.0
N2853 N 0.45302 0.06529 0.86923 0.0
H2854 H 0.3911 0.0368 0.86686 0.0
H2855 H 0.40753 0.0621 0.8642 0.0
H2856 H 0.46893 0.0738 0.87082 0.0
H2857 H 0.43979 0.07671 0.86435 0.0
H2858 H 0.45412 0.96004 0.89578 0.0
H2859 H 0.42438 0.96278 0.88922 0.0
H2860 H 0.4858 0.97082 0.88135 0.0
H2861 H 0.50366 0.99544 0.87942 0.0
C2862 C 0.06031 0.97901 0.34775 0.0
C2863 C 0.04394 0.97698 0.36655 0.0
C2864 C 0.06983 1.00042 0.39109 0.0
C2865 C 0.08769 0.99936 0.37388 0.0
N2866 N 0.10129 0.98352 0.33713 0.0
N2867 N 0.03716 0.98024 0.40843 0.0
C2868 C 0.08337 0.98743 0.35251 0.0
C2869 C 0.04994 0.98593 0.38896 0.0
N2870 N 0.05367 0.97423 0.32526 0.0
N2871 N 0.07118 0.01635 0.40879 0.0
H2872 H 0.02315 0.96857 0.40805 0.0
H2873 H 0.04235 0.98494 0.42533 0.0
H2874 H 0.08393 0.02935 0.40869 0.0
H2875 H 0.05783 0.01881 0.42109 0.0
H2876 H 0.06445 0.97745 0.31083 0.0
H2877 H 0.03661 0.96953 0.32078 0.0
H2878 H 0.09946 0.97306 0.32226 0.0
H2879 H 0.11844 0.98886 0.34046 0.0
C2880 C 0.12124 0.13685 0.4067 0.0
C2881 C 0.13349 0.1161 0.40065 0.0
C2882 C 0.13681 0.12946 0.35988 0.0
C2883 C 0.12588 0.15088 0.36611 0.0
N2884 N 0.11067 0.17664 0.39585 0.0
N2885 N 0.15791 0.0954 0.37268 0.0
C2886 C 0.11902 0.15509 0.38972 0.0
C2887 C 0.14293 0.11336 0.37768 0.0
N2888 N 0.11143 0.13889 0.4285 0.0
N2889 N 0.13993 0.12359 0.33678 0.0
H2890 H 0.16258 0.08264 0.38473 0.0
H2891 H 0.16749 0.09437 0.35712 0.0
H2892 H 0.13538 0.13438 0.32283 0.0
H2893 H 0.14495 0.10695 0.33128 0.0
H2894 H 0.10018 0.15238 0.43332 0.0
H2895 H 0.11351 0.12621 0.44147 0.0
H2896 H 0.1072 0.18168 0.41306 0.0
H2897 H 0.109 0.19021 0.38375 0.0
C2898 C 0.12841 0.85898 0.66093 0.0
C2899 C 0.15267 0.85449 0.65775 0.0
C2900 C 0.14429 0.83599 0.61955 0.0
C2901 C 0.12073 0.8439 0.62109 0.0
N2902 N 0.08926 0.86022 0.64404 0.0
N2903 N 0.18393 0.83806 0.63431 0.0
C2904 C 0.11242 0.85433 0.64223 0.0
C2905 C 0.16054 0.84215 0.63748 0.0
N2906 N 0.12087 0.86772 0.68198 0.0
N2907 N 0.1515 0.82315 0.60059 0.0
H2908 H 0.19651 0.84135 0.647 0.0
H2909 H 0.19133 0.83233 0.61864 0.0
H2910 H 0.14158 0.82072 0.58553 0.0
H2911 H 0.16697 0.81355 0.60021 0.0
H2912 H 0.1034 0.87047 0.68638 0.0
H2913 H 0.1323 0.87078 0.69591 0.0
H2914 H 0.08218 0.87024 0.65752 0.0
H2915 H 0.0769 0.85522 0.63153 0.0
C2916 C 0.3817 0.85024 0.88569 0.0
C2917 C 0.3788 0.85601 0.86161 0.0
C2918 C 0.37079 0.89681 0.87245 0.0
C2919 C 0.37554 0.89151 0.8963 0.0
N2920 N 0.3879 0.86408 0.92565 0.0
N2921 N 0.3757 0.88598 0.83183 0.0
C2922 C 0.3817 0.86843 0.90295 0.0
C2923 C 0.37459 0.87959 0.85493 0.0
N2924 N 0.38399 0.8273 0.89199 0.0
N2925 N 0.36225 0.91833 0.86644 0.0
H2926 H 0.37883 0.87428 0.8182 0.0
H2927 H 0.37572 0.90332 0.82622 0.0
H2928 H 0.36047 0.93209 0.87828 0.0
H2929 H 0.3553 0.92204 0.84999 0.0
H2930 H 0.38418 0.82152 0.90928 0.0
H2931 H 0.38388 0.81372 0.87973 0.0
H2932 H 0.39479 0.84825 0.93136 0.0
H2933 H 0.38771 0.87703 0.93858 0.0
C2934 C 0.40506 0.10521 0.13018 0.0
C2935 C 0.40154 0.1028 0.10566 0.0
C2936 C 0.36236 0.08624 0.11308 0.0
C2937 C 0.36455 0.09193 0.13716 0.0
N2938 N 0.38756 0.1071 0.1691 0.0
N2939 N 0.37508 0.09437 0.07366 0.0
C2940 C 0.38591 0.1013 0.1459 0.0
C2941 C 0.37991 0.09375 0.09709 0.0
N2942 N 0.42676 0.11124 0.13831 0.0
N2943 N 0.3431 0.0743 0.10522 0.0
H2944 H 0.38693 0.10034 0.06122 0.0
H2945 H 0.35856 0.09108 0.06666 0.0
H2946 H 0.32886 0.06993 0.11581 0.0
H2947 H 0.34207 0.06702 0.08849 0.0
H2948 H 0.4312 0.11159 0.15599 0.0
H2949 H 0.44099 0.11406 0.1271 0.0
H2950 H 0.40141 0.11663 0.17618 0.0
H2951 H 0.37437 0.1032 0.18122 0.0
C2952 C 0.15103 0.84472 0.12818 0.0
C2953 C 0.13708 0.84928 0.14832 0.0
C2954 C 0.13114 0.88959 0.1352 0.0
C2955 C 0.1477 0.88613 0.117 0.0
N2956 N 0.17458 0.86093 0.09641 0.0
N2957 N 0.11774 0.87754 0.17335 0.0
C2958 C 0.15791 0.86376 0.11341 0.0
C2959 C 0.12822 0.87215 0.15246 0.0
N2960 N 0.15724 0.82224 0.12299 0.0
N2961 N 0.11776 0.90942 0.13571 0.0
H2962 H 0.11555 0.86544 0.18678 0.0
H2963 H 0.11339 0.89456 0.17826 0.0
H2964 H 0.11897 0.9225 0.123 0.0
H2965 H 0.10374 0.91171 0.14724 0.0
H2966 H 0.16538 0.81738 0.10736 0.0
H2967 H 0.15274 0.80815 0.13374 0.0
H2968 H 0.1844 0.84573 0.09438 0.0
H2969 H 0.17955 0.87441 0.08511 0.0
C2970 C 0.38893 0.90891 0.36094 0.0
C2971 C 0.3668 0.89826 0.36517 0.0
C2972 C 0.38097 0.8824 0.40212 0.0
C2973 C 0.40383 0.89073 0.39685 0.0
N2974 N 0.43053 0.90987 0.37031 0.0
N2975 N 0.34381 0.86988 0.38673 0.0
C2976 C 0.40814 0.90349 0.37597 0.0
C2977 C 0.36344 0.88351 0.38484 0.0
N2978 N 0.39145 0.92426 0.34277 0.0
N2979 N 0.37579 0.87386 0.42394 0.0
H2980 H 0.33084 0.8694 0.374 0.0
H2981 H 0.34173 0.85701 0.3995 0.0
H2982 H 0.38799 0.87316 0.43744 0.0
H2983 H 0.35879 0.86987 0.4294 0.0
H2984 H 0.40643 0.93438 0.3401 0.0
H2985 H 0.3779 0.92788 0.33109 0.0
H2986 H 0.43523 0.91714 0.35424 0.0
H2987 H 0.44471 0.90652 0.38131 0.0
C2988 C 0.337 0.11833 0.64139 0.0
C2989 C 0.34433 0.11953 0.61756 0.0
C2990 C 0.36134 0.15857 0.62435 0.0
C2991 C 0.35635 0.15619 0.64861 0.0
N2992 N 0.33827 0.13521 0.68052 0.0
N2993 N 0.35858 0.14217 0.58496 0.0
C2994 C 0.34313 0.1368 0.65704 0.0
C2995 C 0.35485 0.14026 0.60859 0.0
N2996 N 0.3248 0.09918 0.64918 0.0
N2997 N 0.37335 0.1779 0.61683 0.0
H2998 H 0.35348 0.12916 0.57315 0.0
H2999 H 0.36532 0.15695 0.57672 0.0
H3000 H 0.37726 0.19184 0.62802 0.0
H3001 H 0.37969 0.18023 0.59988 0.0
H3002 H 0.31666 0.09804 0.66547 0.0
H3003 H 0.32172 0.08438 0.639 0.0
H3004 H 0.33138 0.12052 0.68875 0.0
H3005 H 0.34156 0.14875 0.69229 0.0
C3006 C 0.12313 0.09273 0.91003 0.0
C3007 C 0.10255 0.10454 0.90268 0.0
C3008 C 0.11692 0.10478 0.86204 0.0
C3009 C 0.13812 0.09431 0.86971 0.0
N3010 N 0.1593 0.07323 0.89963 0.0
N3011 N 0.07726 0.11736 0.87176 0.0
C3012 C 0.14034 0.08631 0.89317 0.0
C3013 C 0.09856 0.10891 0.87856 0.0
N3014 N 0.12737 0.08966 0.93342 0.0
N3015 N 0.11479 0.11141 0.83912 0.0
H3016 H 0.0637 0.12031 0.88375 0.0
H3017 H 0.07233 0.11984 0.8544 0.0
H3018 H 0.1273 0.10719 0.8264 0.0
H3019 H 0.10112 0.1215 0.83268 0.0
H3020 H 0.14352 0.08457 0.94005 0.0
H3021 H 0.11527 0.09352 0.94656 0.0
H3022 H 0.16018 0.06409 0.91538 0.0
H3023 H 0.1736 0.06998 0.88876 0.0
C3024 C 0.12898 0.35463 0.14228 0.0
C3025 C 0.14561 0.36289 0.12569 0.0
C3026 C 0.13021 0.40243 0.13074 0.0
C3027 C 0.1108 0.39301 0.14331 0.0
N3028 N 0.08923 0.35841 0.15556 0.0
N3029 N 0.16193 0.39472 0.1033 0.0
C3030 C 0.10949 0.36865 0.14774 0.0
C3031 C 0.14627 0.38689 0.11969 0.0
N3032 N 0.13187 0.33365 0.15324 0.0
N3033 N 0.13337 0.4261 0.12968 0.0
H3034 H 0.17445 0.38382 0.09562 0.0
H3035 H 0.16157 0.41158 0.0964 0.0
H3036 H 0.12216 0.4378 0.13816 0.0
H3037 H 0.14818 0.43393 0.12237 0.0
H3038 H 0.12083 0.32789 0.16668 0.0
H3039 H 0.14697 0.3237 0.15142 0.0
H3040 H 0.08717 0.34031 0.15669 0.0
H3041 H 0.07365 0.36748 0.15827 0.0
C3042 C 0.63706 0.09941 0.86891 0.0
C3043 C 0.61466 0.10316 0.87943 0.0
C3044 C 0.62733 0.14238 0.89206 0.0
C3045 C 0.64969 0.1387 0.88153 0.0
N3046 N 0.67715 0.11306 0.86258 0.0
N3047 N 0.58959 0.12703 0.90401 0.0
C3048 C 0.65493 0.11697 0.8707 0.0
C3049 C 0.61025 0.12418 0.89209 0.0
N3050 N 0.64097 0.07911 0.85682 0.0
N3051 N 0.62194 0.16392 0.90105 0.0
H3052 H 0.57535 0.11576 0.90268 0.0
H3053 H 0.58688 0.13998 0.91656 0.0
H3054 H 0.634 0.17752 0.90214 0.0
H3055 H 0.60514 0.16908 0.90594 0.0
H3056 H 0.65557 0.07611 0.84627 0.0
H3057 H 0.62904 0.06524 0.85685 0.0
H3058 H 0.68308 0.09703 0.85633 0.0
H3059 H 0.69029 0.12579 0.86321 0.0
C3060 C 0.89909 0.88863 0.40492 0.0
C3061 C 0.89222 0.90337 0.3861 0.0
C3062 C 0.85269 0.88679 0.38783 0.0
C3063 C 0.86119 0.86883 0.40266 0.0
N3064 N 0.89348 0.85144 0.42387 0.0
N3065 N 0.86224 0.91771 0.36023 0.0
C3066 C 0.88441 0.86975 0.41141 0.0
C3067 C 0.86879 0.90304 0.37793 0.0
N3068 N 0.91996 0.89188 0.41617 0.0
N3069 N 0.82926 0.8879 0.38305 0.0
H3070 H 0.87329 0.93075 0.35367 0.0
H3071 H 0.84633 0.91637 0.35143 0.0
H3072 H 0.81724 0.8762 0.39041 0.0
H3073 H 0.82154 0.90142 0.37365 0.0
H3074 H 0.92361 0.88407 0.43226 0.0
H3075 H 0.93293 0.9035 0.41081 0.0
H3076 H 0.91124 0.84986 0.42772 0.0
H3077 H 0.88394 0.83671 0.4288 0.0
C3078 C 0.86257 0.11888 0.09825 0.0
C3079 C 0.86744 0.1408 0.10899 0.0
C3080 C 0.89963 0.12329 0.1314 0.0
C3081 C 0.8956 0.10154 0.11968 0.0
N3082 N 0.87452 0.07863 0.09125 0.0
N3083 N 0.89006 0.16456 0.13561 0.0
C3084 C 0.87738 0.09935 0.10292 0.0
C3085 C 0.88584 0.14314 0.12555 0.0
N3086 N 0.84317 0.11659 0.0844 0.0
N3087 N 0.9174 0.12518 0.14738 0.0
H3088 H 0.88231 0.18001 0.12987 0.0
H3089 H 0.90109 0.1676 0.14974 0.0
H3090 H 0.92763 0.11123 0.15279 0.0
H3091 H 0.92275 0.14057 0.15546 0.0
H3092 H 0.83709 0.10072 0.07783 0.0
H3093 H 0.83204 0.13052 0.08061 0.0
H3094 H 0.86353 0.07639 0.0769 0.0
H3095 H 0.88405 0.06363 0.09534 0.0
C3096 C 0.35139 0.61972 0.62628 0.0
C3097 C 0.35645 0.64288 0.63404 0.0
C3098 C 0.39526 0.62977 0.64709 0.0
C3099 C 0.39138 0.60747 0.63661 0.0
N3100 N 0.36638 0.58156 0.61467 0.0
N3101 N 0.3853 0.67075 0.64787 0.0
C3102 C 0.36957 0.60253 0.62576 0.0
C3103 C 0.37884 0.64807 0.64362 0.0
N3104 N 0.32904 0.61419 0.61972 0.0
N3105 N 0.4147 0.63367 0.66051 0.0
H3106 H 0.37424 0.68497 0.64561 0.0
H3107 H 0.40244 0.67577 0.65169 0.0
H3108 H 0.42798 0.62147 0.66276 0.0
H3109 H 0.41675 0.64841 0.67109 0.0
H3110 H 0.32352 0.59727 0.61572 0.0
H3111 H 0.31541 0.62632 0.62031 0.0
H3112 H 0.35194 0.57775 0.60421 0.0
H3113 H 0.37902 0.56841 0.61467 0.0
C3114 C 0.12362 0.6477 0.36856 0.0
C3115 C 0.14638 0.64163 0.37654 0.0
C3116 C 0.13337 0.60073 0.38165 0.0
C3117 C 0.11105 0.60675 0.37258 0.0
N3118 N 0.08635 0.63512 0.35326 0.0
N3119 N 0.17414 0.61208 0.38757 0.0
C3120 C 0.1067 0.62994 0.36473 0.0
C3121 C 0.15161 0.61798 0.38215 0.0
N3122 N 0.1175 0.67067 0.36604 0.0
N3123 N 0.13693 0.57867 0.39009 0.0
H3124 H 0.18771 0.62436 0.3878 0.0
H3125 H 0.1798 0.59497 0.39 0.0
H3126 H 0.12408 0.56566 0.38939 0.0
H3127 H 0.15194 0.5736 0.39904 0.0
H3128 H 0.10028 0.67629 0.36394 0.0
H3129 H 0.12922 0.68446 0.36777 0.0
H3130 H 0.08374 0.65065 0.3441 0.0
H3131 H 0.07262 0.62333 0.3513 0.0
C3132 C 0.37423 0.34897 0.86842 0.0
C3133 C 0.35064 0.35564 0.86434 0.0
C3134 C 0.36413 0.39384 0.85011 0.0
C3135 C 0.38734 0.38763 0.8564 0.0
N3136 N 0.41364 0.36162 0.87677 0.0
N3137 N 0.3225 0.385 0.85371 0.0
C3138 C 0.39213 0.36589 0.86712 0.0
C3139 C 0.34535 0.37829 0.85581 0.0
N3140 N 0.37961 0.32621 0.8731 0.0
N3141 N 0.3602 0.41433 0.83848 0.0
H3142 H 0.30856 0.37363 0.8571 0.0
H3143 H 0.31738 0.40204 0.84987 0.0
H3144 H 0.37361 0.4262 0.83468 0.0
H3145 H 0.34405 0.4189 0.83144 0.0
H3146 H 0.3967 0.31987 0.8738 0.0
H3147 H 0.36695 0.31318 0.87371 0.0
H3148 H 0.41712 0.34713 0.88725 0.0
H3149 H 0.42744 0.37361 0.87638 0.0
C3150 C 0.63198 0.62979 0.90009 0.0
C3151 C 0.64414 0.60943 0.89267 0.0
C3152 C 0.6416 0.62221 0.85211 0.0
C3153 C 0.62587 0.64012 0.859 0.0
N3154 N 0.60524 0.66099 0.88939 0.0
N3155 N 0.65589 0.58372 0.86085 0.0
C3156 C 0.62086 0.64404 0.88301 0.0
C3157 C 0.64787 0.60496 0.86849 0.0
N3158 N 0.63125 0.63541 0.92337 0.0
N3159 N 0.65103 0.62185 0.83008 0.0
H3160 H 0.65998 0.56988 0.87195 0.0
H3161 H 0.65619 0.579 0.84318 0.0
H3162 H 0.64807 0.635 0.81793 0.0
H3163 H 0.66416 0.61023 0.82502 0.0
H3164 H 0.6243 0.65099 0.92978 0.0
H3165 H 0.63954 0.6253 0.9361 0.0
H3166 H 0.59904 0.66312 0.90645 0.0
H3167 H 0.59733 0.67205 0.87723 0.0
C3168 C 0.61428 0.38469 0.15698 0.0
C3169 C 0.63716 0.37601 0.15235 0.0
C3170 C 0.62547 0.36557 0.11239 0.0
C3171 C 0.60219 0.37292 0.11735 0.0
N3172 N 0.5734 0.3866 0.14503 0.0
N3173 N 0.6633 0.35397 0.12741 0.0
C3174 C 0.59625 0.38161 0.13991 0.0
C3175 C 0.64225 0.36492 0.13067 0.0
N3176 N 0.61008 0.39648 0.17742 0.0
N3177 N 0.63188 0.36024 0.08986 0.0
H3178 H 0.67643 0.35362 0.14006 0.0
H3179 H 0.66699 0.34337 0.113 0.0
H3180 H 0.62033 0.36092 0.07576 0.0
H3181 H 0.64915 0.35738 0.08464 0.0
H3182 H 0.59472 0.40568 0.18082 0.0
H3183 H 0.6226 0.39787 0.19066 0.0
H3184 H 0.56745 0.3908 0.16179 0.0
H3185 H 0.56005 0.38514 0.13265 0.0
C3186 C 0.92338 0.3937 0.37148 0.0
C3187 C 0.91255 0.37132 0.36983 0.0
C3188 C 0.89313 0.37778 0.40782 0.0
C3189 C 0.90276 0.40067 0.40862 0.0
N3190 N 0.93316 0.42705 0.39599 0.0
N3191 N 0.89301 0.33939 0.38935 0.0
C3192 C 0.92023 0.40728 0.3922 0.0
C3193 C 0.89949 0.36242 0.38914 0.0
N3194 N 0.93494 0.40293 0.35259 0.0
N3195 N 0.87683 0.37138 0.42421 0.0
H3196 H 0.89772 0.32784 0.37596 0.0
H3197 H 0.88488 0.33131 0.40358 0.0
H3198 H 0.87286 0.382 0.4386 0.0
H3199 H 0.86678 0.35619 0.42314 0.0
H3200 H 0.94061 0.42025 0.3518 0.0
H3201 H 0.93739 0.39395 0.33688 0.0
H3202 H 0.94764 0.43167 0.38581 0.0
H3203 H 0.93095 0.4375 0.41081 0.0
C3204 C 0.88174 0.61871 0.64531 0.0
C3205 C 0.86316 0.6048 0.63605 0.0
C3206 C 0.88987 0.59096 0.60545 0.0
C3207 C 0.90545 0.60972 0.61004 0.0
N3208 N 0.91998 0.63687 0.63872 0.0
N3209 N 0.84946 0.5789 0.6053 0.0
C3210 C 0.90262 0.622 0.63163 0.0
C3211 C 0.8672 0.59125 0.61556 0.0
N3212 N 0.87955 0.6283 0.66719 0.0
N3213 N 0.89744 0.57144 0.59406 0.0
H3214 H 0.83222 0.57919 0.61141 0.0
H3215 H 0.8516 0.57026 0.58931 0.0
H3216 H 0.9152 0.56781 0.59237 0.0
H3217 H 0.88673 0.55688 0.59129 0.0
H3218 H 0.89279 0.63755 0.67563 0.0
H3219 H 0.86485 0.62559 0.67777 0.0
H3220 H 0.91847 0.64853 0.65267 0.0
H3221 H 0.93605 0.63767 0.62991 0.0
C3222 C 0.64578 0.39439 0.63993 0.0
C3223 C 0.65375 0.38806 0.6172 0.0
C3224 C 0.65014 0.34636 0.62726 0.0
C3225 C 0.64273 0.35279 0.65015 0.0
N3226 N 0.63733 0.3826 0.67972 0.0
N3227 N 0.66661 0.35874 0.58977 0.0
C3228 C 0.64178 0.37673 0.65689 0.0
C3229 C 0.65697 0.3642 0.61105 0.0
N3230 N 0.64117 0.41735 0.64507 0.0
N3231 N 0.64994 0.32329 0.62092 0.0
H3232 H 0.67133 0.37148 0.57752 0.0
H3233 H 0.67139 0.34189 0.5848 0.0
H3234 H 0.64568 0.30995 0.63268 0.0
H3235 H 0.65283 0.31737 0.6039 0.0
H3236 H 0.63189 0.42274 0.65986 0.0
H3237 H 0.64532 0.43116 0.63387 0.0
H3238 H 0.63918 0.39944 0.68644 0.0
H3239 H 0.63356 0.3703 0.6926 0.0
C3240 C 0.90284 0.37395 0.86781 0.0
C3241 C 0.89696 0.3793 0.89148 0.0
C3242 C 0.85691 0.38882 0.87934 0.0
C3243 C 0.86195 0.38083 0.85623 0.0
N3244 N 0.8891 0.36419 0.82857 0.0
N3245 N 0.86677 0.38731 0.92034 0.0
C3246 C 0.8848 0.37294 0.85047 0.0
C3247 C 0.87361 0.3857 0.89738 0.0
N3248 N 0.92576 0.37019 0.86195 0.0
N3249 N 0.83618 0.39979 0.88414 0.0
H3250 H 0.87805 0.38508 0.93442 0.0
H3251 H 0.84932 0.38877 0.92557 0.0
H3252 H 0.8229 0.40177 0.87187 0.0
H3253 H 0.83294 0.40873 0.89975 0.0
H3254 H 0.93169 0.36813 0.8448 0.0
H3255 H 0.93924 0.37114 0.87426 0.0
H3256 H 0.90467 0.35598 0.82381 0.0
H3257 H 0.87633 0.3637 0.81551 0.0
C3258 C 0.89775 0.62937 0.09168 0.0
C3259 C 0.89254 0.6057 0.09705 0.0
C3260 C 0.90338 0.61212 0.13809 0.0
C3261 C 0.90593 0.63628 0.13338 0.0
N3262 N 0.9054 0.66865 0.1065 0.0
N3263 N 0.88705 0.57518 0.12592 0.0
C3264 C 0.90332 0.64513 0.1103 0.0
C3265 C 0.89474 0.59717 0.12035 0.0
N3266 N 0.89721 0.63662 0.06886 0.0
N3267 N 0.90903 0.60345 0.15971 0.0
H3268 H 0.8814 0.56311 0.1135 0.0
H3269 H 0.88446 0.5695 0.14308 0.0
H3270 H 0.91481 0.61393 0.17353 0.0
H3271 H 0.91 0.58564 0.1634 0.0
H3272 H 0.90242 0.65317 0.06333 0.0
H3273 H 0.89282 0.6254 0.0551 0.0
H3274 H 0.90145 0.67679 0.0907 0.0
H3275 H 0.91039 0.6803 0.1197 0.0
C3276 C 0.62239 0.60194 0.41023 0.0
C3277 C 0.59899 0.60562 0.40268 0.0
C3278 C 0.61084 0.59809 0.36197 0.0
C3279 C 0.63399 0.59363 0.36981 0.0
N3280 N 0.66098 0.58698 0.40172 0.0
N3281 N 0.56993 0.60468 0.37229 0.0
C3282 C 0.63938 0.59388 0.39405 0.0
C3283 C 0.59287 0.60271 0.37878 0.0
N3284 N 0.62905 0.60825 0.43238 0.0
N3285 N 0.60636 0.59874 0.33844 0.0
H3286 H 0.55662 0.60825 0.38437 0.0
H3287 H 0.56381 0.60117 0.35548 0.0
H3288 H 0.61893 0.59435 0.32585 0.0
H3289 H 0.59066 0.60454 0.3313 0.0
H3290 H 0.64654 0.61043 0.4371 0.0
H3291 H 0.61738 0.61344 0.44547 0.0
H3292 H 0.66474 0.58406 0.41935 0.0
H3293 H 0.67473 0.58242 0.39057 0.0
C3294 C 0.64915 0.88746 0.61931 0.0
C3295 C 0.64395 0.86331 0.61803 0.0
C3296 C 0.60754 0.86911 0.63995 0.0
C3297 C 0.61342 0.89317 0.64261 0.0
N3298 N 0.64147 0.9245 0.63866 0.0
N3299 N 0.6207 0.83015 0.63065 0.0
C3300 C 0.63482 0.9021 0.63345 0.0
C3301 C 0.62392 0.85385 0.62945 0.0
N3302 N 0.66751 0.89635 0.60667 0.0
N3303 N 0.58578 0.86091 0.646 0.0
H3304 H 0.63125 0.81823 0.62178 0.0
H3305 H 0.60847 0.82222 0.64171 0.0
H3306 H 0.57305 0.87082 0.6544 0.0
H3307 H 0.57959 0.84444 0.64115 0.0
H3308 H 0.67085 0.91418 0.60493 0.0
H3309 H 0.67835 0.88587 0.5963 0.0
H3310 H 0.6577 0.93156 0.63414 0.0
H3311 H 0.63146 0.93541 0.64942 0.0
C3312 C 0.98161 0.24776 0.266 0.0
C3313 C 0.9758 0.26157 0.28586 0.0
C3314 C 0.01271 0.25014 0.30459 0.0
C3315 C 0.01942 0.23805 0.28394 0.0
N3316 N 0.01196 0.22786 0.24371 0.0
N3317 N 0.98706 0.27898 0.32249 0.0
C3318 C 0.00426 0.23742 0.2643 0.0
C3319 C 0.99172 0.26356 0.30478 0.0
N3320 N 0.96519 0.24409 0.24907 0.0
N3321 N 0.02625 0.24822 0.32418 0.0
H3322 H 0.97207 0.2894 0.32271 0.0
H3323 H 0.99889 0.28298 0.33577 0.0
H3324 H 0.04145 0.23811 0.32451 0.0
H3325 H 0.02141 0.25482 0.34052 0.0
H3326 H 0.96718 0.23217 0.2354 0.0
H3327 H 0.94879 0.25194 0.24977 0.0
H3328 H 0.00275 0.22893 0.22802 0.0
H3329 H 0.02849 0.22035 0.24187 0.0
C3330 C 0.99567 0.77484 0.51701 0.0
C3331 C 0.00881 0.78172 0.53693 0.0
C3332 C 0.99676 0.74571 0.55714 0.0
C3333 C 0.98541 0.73782 0.53653 0.0
N3334 N 0.97727 0.74307 0.49547 0.0
N3335 N 0.02564 0.77185 0.57418 0.0
C3336 C 0.98561 0.75195 0.51607 0.0
C3337 C 0.01037 0.7666 0.55654 0.0
N3338 N 0.99237 0.79042 0.49924 0.0
N3339 N 0.99399 0.73337 0.57746 0.0
H3340 H 0.03642 0.78663 0.57378 0.0
H3341 H 0.0293 0.76051 0.58796 0.0
H3342 H 0.98359 0.71835 0.57842 0.0
H3343 H 1.00005 0.73919 0.59366 0.0
H3344 H 0.98091 0.78754 0.48535 0.0
H3345 H 0.99991 0.80703 0.4994 0.0
H3346 H 0.97903 0.75155 0.47942 0.0
H3347 H 0.97022 0.72628 0.49408 0.0
C3348 C 0.52301 0.75519 0.75922 0.0
C3349 C 0.52991 0.74273 0.77951 0.0
C3350 C 0.49406 0.75517 0.79971 0.0
C3351 C 0.48617 0.76591 0.77879 0.0
N3352 N 0.49124 0.77311 0.73753 0.0
N3353 N 0.52063 0.72737 0.81759 0.0
C3354 C 0.50018 0.76518 0.75822 0.0
C3355 C 0.51497 0.74171 0.79934 0.0
N3356 N 0.53859 0.75805 0.74124 0.0
N3357 N 0.48193 0.75864 0.8201 0.0
H3358 H 0.53571 0.71707 0.81749 0.0
H3359 H 0.50947 0.72406 0.83169 0.0
H3360 H 0.46704 0.76917 0.82099 0.0
H3361 H 0.48781 0.75303 0.83641 0.0
H3362 H 0.53572 0.76915 0.72708 0.0
H3363 H 0.55518 0.75047 0.74137 0.0
H3364 H 0.49966 0.77104 0.72143 0.0
H3365 H 0.47445 0.7801 0.73616 0.0
C3366 C 0.508 0.25974 0.04888 0.0
C3367 C 0.50992 0.27214 0.02757 0.0
C3368 C 0.48885 0.24092 0.00707 0.0
C3369 C 0.48531 0.22943 0.02887 0.0
N3370 N 0.48653 0.23064 0.07101 0.0
N3371 N 0.49953 0.27701 0.98714 0.0
C3372 C 0.49347 0.2397 0.04995 0.0
C3373 C 0.49952 0.26345 0.00683 0.0
N3374 N 0.52043 0.26705 0.06797 0.0
N3375 N 0.48306 0.22988 0.98666 0.0
H3376 H 0.50779 0.29332 0.98653 0.0
H3377 H 0.49011 0.27283 0.97209 0.0
H3378 H 0.47561 0.21324 0.98627 0.0
H3379 H 0.48721 0.23643 0.97013 0.0
H3380 H 0.52159 0.25743 0.08342 0.0
H3381 H 0.53137 0.28171 0.06754 0.0
H3382 H 0.49036 0.23845 0.08707 0.0
H3383 H 0.47476 0.21668 0.07227 0.0
C3384 C 0.98886 0.74504 0.20102 0.0
C3385 C 0.97428 0.7439 0.22109 0.0
C3386 C 0.00442 0.7637 0.24441 0.0
C3387 C 0.01809 0.76655 0.22384 0.0
N3388 N 0.02196 0.76382 0.18197 0.0
N3389 N 0.96639 0.75444 0.26116 0.0
C3390 C 0.00984 0.75836 0.20193 0.0
C3391 C 0.98155 0.75393 0.24262 0.0
N3392 N 0.98302 0.73256 0.18144 0.0
N3393 N 0.01382 0.76921 0.26571 0.0
H3394 H 0.94989 0.74665 0.2605 0.0
H3395 H 0.96954 0.76378 0.27653 0.0
H3396 H 0.03074 0.77588 0.26752 0.0
H3397 H 0.00565 0.76551 0.28164 0.0
H3398 H 0.99403 0.7308 0.16695 0.0
H3399 H 0.96803 0.7221 0.18061 0.0
H3400 H 0.01589 0.76007 0.16517 0.0
H3401 H 0.03709 0.77411 0.18219 0.0
C3402 C 0.50206 0.7393 0.49704 0.0
C3403 C 0.51392 0.7318 0.47656 0.0
C3404 C 0.50008 0.76607 0.45537 0.0
C3405 C 0.49055 0.77506 0.47649 0.0
N3406 N 0.48492 0.77189 0.51825 0.0
N3407 N 0.52785 0.73947 0.43751 0.0
C3408 C 0.49207 0.76207 0.49761 0.0
C3409 C 0.514 0.74566 0.45608 0.0
N3410 N 0.4999 0.72439 0.5156 0.0
N3411 N 0.49498 0.77662 0.43454 0.0
H3412 H 0.53856 0.72471 0.43778 0.0
H3413 H 0.53039 0.75009 0.42288 0.0
H3414 H 0.48369 0.7909 0.43339 0.0
H3415 H 0.49982 0.76975 0.41831 0.0
H3416 H 0.48942 0.72785 0.53018 0.0
H3417 H 0.5073 0.70772 0.51555 0.0
H3418 H 0.48755 0.76412 0.53454 0.0
H3419 H 0.47802 0.78873 0.51928 0.0
C3420 C 0.51116 0.26512 0.70506 0.0
C3421 C 0.52416 0.2655 0.72612 0.0
C3422 C 0.49311 0.24346 0.74617 0.0
C3423 C 0.48094 0.24148 0.72462 0.0
N3424 N 0.47923 0.24761 0.683 0.0
N3425 N 0.52948 0.25324 0.76599 0.0
C3426 C 0.49018 0.25166 0.70389 0.0
C3427 C 0.51567 0.25412 0.7465 0.0
N3428 N 0.519 0.27777 0.6863 0.0
N3429 N 0.48259 0.2361 0.76642 0.0
H3430 H 0.54563 0.26179 0.76695 0.0
H3431 H 0.52565 0.24299 0.78059 0.0
H3432 H 0.46585 0.22875 0.76677 0.0
H3433 H 0.48955 0.23892 0.78304 0.0
H3434 H 0.50942 0.28016 0.671 0.0
H3435 H 0.53461 0.28733 0.68674 0.0
H3436 H 0.48593 0.25281 0.66683 0.0
H3437 H 0.46417 0.2373 0.68168 0.0
C3438 C 1.00209 0.23775 0.99272 0.0
C3439 C 0.01457 0.23112 0.97227 0.0
C3440 C 0.99872 0.26481 0.95133 0.0
C3441 C 0.98837 0.27286 0.9724 0.0
N3442 N 0.98381 0.26947 0.01425 0.0
N3443 N 0.02873 0.24061 0.93366 0.0
C3444 C 0.99093 0.25996 0.99346 0.0
C3445 C 0.01398 0.24532 0.95197 0.0
N3446 N 1.00037 0.22256 0.0111 0.0
N3447 N 0.99352 0.27563 0.93067 0.0
H3448 H 0.04085 0.22699 0.93409 0.0
H3449 H 0.03062 0.25157 0.91919 0.0
H3450 H 0.9818 0.28958 0.92973 0.0
H3451 H 0.99893 0.26935 0.91437 0.0
H3452 H 0.98959 0.22549 0.02559 0.0
H3453 H 0.0082 0.2061 0.01087 0.0
H3454 H 0.98716 0.26182 0.03046 0.0
H3455 H 0.97637 0.28608 0.01541 0.0
C3456 C 0.30247 0.01668 0.26591 0.0
C3457 C 0.29174 0.02164 0.244 0.0
C3458 C 0.27673 0.9817 0.24234 0.0
C3459 C 0.28419 0.97773 0.26558 0.0
N3460 N 0.30448 0.99144 0.3 0.0
N3461 N 0.28721 0.002 0.20716 0.0
C3462 C 0.29696 0.99534 0.27766 0.0
C3463 C 0.28371 0.00235 0.23075 0.0
N3464 N 0.32121 0.0297 0.27301 0.0
N3465 N 0.26314 0.96554 0.23116 0.0
H3466 H 0.29707 0.01499 0.19883 0.0
H3467 H 0.28407 0.98714 0.19699 0.0
H3468 H 0.25734 0.95029 0.23942 0.0
H3469 H 0.25598 0.96856 0.21462 0.0
H3470 H 0.33091 0.02615 0.28802 0.0
H3471 H 0.32965 0.04124 0.26158 0.0
H3472 H 0.3115 0.00458 0.31056 0.0
H3473 H 0.30231 0.97547 0.30854 0.0
C3474 C 0.24695 0.0514 0.48793 0.0
C3475 C 0.23506 0.02973 0.48674 0.0
C3476 C 0.2682 0.01006 0.50513 0.0
C3477 C 0.27937 0.03208 0.5081 0.0
N3478 N 0.27747 0.07414 0.50672 0.0
N3479 N 0.23211 0.98909 0.4968 0.0
C3480 C 0.26827 0.05291 0.50058 0.0
C3481 C 0.24506 0.00922 0.49612 0.0
N3482 N 0.23773 0.07045 0.47691 0.0
N3483 N 0.28007 0.98995 0.51002 0.0
H3484 H 0.21536 0.98791 0.4896 0.0
H3485 H 0.23727 0.97415 0.50583 0.0
H3486 H 0.29715 0.98992 0.51636 0.0
H3487 H 0.27376 0.97331 0.50602 0.0
H3488 H 0.24666 0.08626 0.47503 0.0
H3489 H 0.22179 0.0698 0.468 0.0
H3490 H 0.26916 0.09 0.5035 0.0
H3491 H 0.29232 0.0758 0.5172 0.0
C3492 C 0.20463 0.99003 0.75002 0.0
C3493 C 0.22189 0.98579 0.73259 0.0
C3494 C 0.23371 0.02712 0.73464 0.0
C3495 C 0.21913 0.03007 0.75453 0.0
N3496 N 0.19178 0.01434 0.78249 0.0
N3497 N 0.25443 0.99995 0.70936 0.0
C3498 C 0.20482 0.01151 0.76257 0.0
C3499 C 0.2367 0.00433 0.72488 0.0
N3500 N 0.18766 0.97361 0.75402 0.0
N3501 N 0.24451 0.0462 0.72507 0.0
H3502 H 0.25766 0.98345 0.70234 0.0
H3503 H 0.26712 0.01226 0.70479 0.0
H3504 H 0.24269 0.06293 0.73217 0.0
H3505 H 0.25355 0.0458 0.70918 0.0
H3506 H 0.17343 0.97626 0.76519 0.0
H3507 H 0.18654 0.95823 0.7442 0.0
H3508 H 0.18288 1.0007 0.79074 0.0
H3509 H 0.19127 0.0301 0.79175 0.0
C3510 C 0.26062 0.99643 0.99255 0.0
C3511 C 0.27009 0.97567 0.98294 0.0
C3512 C 0.23715 0.95306 0.99863 0.0
C3513 C 0.22663 0.97409 0.00667 0.0
N3514 N 0.22649 0.01618 0.00834 0.0
N3515 N 0.26659 0.93488 0.97375 0.0
C3516 C 0.2379 0.99593 0.00287 0.0
C3517 C 0.25799 0.95418 0.98495 0.0
N3518 N 0.27374 0.01645 0.99232 0.0
N3519 N 0.22786 0.93201 0.00525 0.0
H3520 H 0.28211 0.93532 0.96402 0.0
H3521 H 0.25753 0.9191 0.97253 0.0
H3522 H 0.21335 0.93063 0.01633 0.0
H3523 H 0.23577 0.916 1.0017 0.0
H3524 H 0.26914 0.03157 1.00142 0.0
H3525 H 0.29011 0.0174 0.98414 0.0
H3526 H 0.23275 0.03274 0.00393 0.0
H3527 H 0.20976 0.01639 0.01566 0.0
C3528 C 0.26935 0.30265 0.99844 0.0
C3529 C 0.26846 0.2816 0.98539 0.0
C3530 C 0.248 0.26206 0.01775 0.0
C3531 C 0.2475 0.28355 0.03022 0.0
N3532 N 0.25463 0.32491 0.03172 0.0
N3533 N 0.25443 0.24228 0.98054 0.0
C3534 C 0.2574 0.30405 0.02035 0.0
C3535 C 0.25706 0.26155 0.99449 0.0
N3536 N 0.28193 0.32112 0.98984 0.0
N3537 N 0.2407 0.242 0.02858 0.0
H3538 H 0.2615 0.2413 0.96366 0.0
H3539 H 0.24403 0.22796 0.98501 0.0
H3540 H 0.23429 0.24174 0.04572 0.0
H3541 H 0.24266 0.22539 0.02133 0.0
H3542 H 0.28513 0.33643 0.99922 0.0
H3543 H 0.29069 0.32039 0.97375 0.0
H3544 H 0.25961 0.34098 0.02472 0.0
H3545 H 0.24559 0.32627 0.04761 0.0
C3546 C 0.7586 0.19829 0.01435 0.0
C3547 C 0.75667 0.21729 0.03017 0.0
C3548 C 0.73559 0.23985 1.00062 0.0
C3549 C 0.73558 0.22013 0.98561 0.0
N3550 N 0.74268 0.17902 0.98 0.0
N3551 N 0.73783 0.25328 0.04079 0.0
C3552 C 0.74577 0.19882 0.99306 0.0
C3553 C 0.74352 0.23728 0.02401 0.0
N3554 N 0.77331 0.18019 0.01935 0.0
N3555 N 0.72926 0.26123 0.99221 0.0
H3556 H 0.74188 0.25053 0.05837 0.0
H3557 H 0.7268 0.26745 0.03772 0.0
H3558 H 0.72471 0.26386 0.97472 0.0
H3559 H 0.73087 0.2766 1.00194 0.0
H3560 H 0.77718 0.16689 0.00745 0.0
H3561 H 0.78328 0.17963 0.03464 0.0
H3562 H 0.74807 0.16252 0.98547 0.0
H3563 H 0.73259 0.17882 0.96476 0.0
C3564 C 0.01654 0.48319 0.24771 0.0
C3565 C 0.03274 0.49003 0.2301 0.0
C3566 C 0.04531 0.52279 0.25517 0.0
C3567 C 0.02619 0.5182 0.27034 0.0
N3568 N 0.99201 0.49559 0.28003 0.0
N3569 N 0.07068 0.50761 0.22463 0.0
C3570 C 0.01111 0.49905 0.26599 0.0
C3571 C 0.04947 0.50763 0.23579 0.0
N3572 N 0.01021 0.46031 0.24991 0.0
N3573 N 0.05957 0.54151 0.25952 0.0
H3574 H 0.07542 0.49425 0.21306 0.0
H3575 H 0.08452 0.51867 0.22898 0.0
H3576 H 0.05735 0.55233 0.27409 0.0
H3577 H 0.07239 0.54733 0.24786 0.0
H3578 H 0.99912 0.45419 0.26312 0.0
H3579 H 0.02026 0.44717 0.24222 0.0
H3580 H 0.97941 0.48281 0.27656 0.0
H3581 H 0.98781 0.50696 0.29376 0.0
C3582 C 0.75229 0.76201 0.51193 0.0
C3583 C 0.7431 0.78277 0.52176 0.0
C3584 C 0.75309 0.80422 0.48609 0.0
C3585 C 0.76 0.78298 0.47525 0.0
N3586 N 0.76173 0.74085 0.47633 0.0
N3587 N 0.72974 0.82228 0.51663 0.0
C3588 C 0.75837 0.76158 0.48776 0.0
C3589 C 0.74194 0.80349 0.50832 0.0
N3590 N 0.75592 0.743 0.5259 0.0
N3591 N 0.75836 0.82515 0.4758 0.0
H3592 H 0.72085 0.82196 0.53265 0.0
H3593 H 0.72648 0.83715 0.50661 0.0
H3594 H 0.76801 0.82643 0.4603 0.0
H3595 H 0.75548 0.84121 0.48398 0.0
H3596 H 0.7648 0.7281 0.52028 0.0
H3597 H 0.75185 0.74306 0.54373 0.0
H3598 H 0.75882 0.72462 0.48413 0.0
H3599 H 0.76511 0.73989 0.45839 0.0
C3600 C 0.99122 0.02305 0.24853 0.0
C3601 C 0.97352 0.01794 0.23182 0.0
C3602 C 0.95519 0.99015 0.25912 0.0
C3603 C 0.97252 0.99557 0.27591 0.0
N3604 N 0.00503 0.01904 0.28866 0.0
N3605 N 0.93608 1.00099 0.22275 0.0
C3606 C 0.98987 0.01274 0.27124 0.0
C3607 C 0.95473 0.00271 0.23763 0.0
N3608 N 0.00988 0.03673 0.24226 0.0
N3609 N 0.93933 0.97282 0.26379 0.0
H3610 H 0.93494 0.0109 0.20744 0.0
H3611 H 0.92089 0.99158 0.2265 0.0
H3612 H 0.93898 0.96388 0.27974 0.0
H3613 H 0.9276 0.96623 0.25148 0.0
H3614 H 0.02442 0.03959 0.25285 0.0
H3615 H 0.01164 0.04421 0.22571 0.0
H3616 H 0.01645 0.03323 0.28757 0.0
H3617 H 0.00532 0.01067 0.30491 0.0
C3618 C 0.25304 0.74817 0.51782 0.0
C3619 C 0.26449 0.72742 0.52497 0.0
C3620 C 0.24624 0.70599 0.49273 0.0
C3621 C 0.23678 0.72716 0.48401 0.0
N3622 N 0.23419 0.76917 0.48611 0.0
N3623 N 0.27569 0.68775 0.51709 0.0
C3624 C 0.24092 0.74853 0.49601 0.0
C3625 C 0.26224 0.70669 0.51166 0.0
N3626 N 0.25317 0.76722 0.53225 0.0
N3627 N 0.23915 0.68514 0.48339 0.0
H3628 H 0.2878 0.68804 0.53078 0.0
H3629 H 0.2765 0.67275 0.50673 0.0
H3630 H 0.22638 0.68407 0.47037 0.0
H3631 H 0.24396 0.66897 0.49021 0.0
H3632 H 0.24309 0.78208 0.52928 0.0
H3633 H 0.26215 0.76736 0.54813 0.0
H3634 H 0.23867 0.78547 0.49297 0.0
H3635 H 0.2257 0.77003 0.46998 0.0
C3636 C 0.45205 0.50778 0.76846 0.0
C3637 C 0.46903 0.49112 0.77585 0.0
C3638 C 0.4926 0.50045 0.74109 0.0
C3639 C 0.47733 0.51904 0.73554 0.0
N3640 N 0.44303 0.54167 0.74467 0.0
N3641 N 0.49405 0.46218 0.75817 0.0
C3642 C 0.45734 0.52325 0.74964 0.0
C3643 C 0.48664 0.48477 0.75942 0.0
N3644 N 0.42955 0.506 0.7765 0.0
N3645 N 0.51255 0.49737 0.72822 0.0
H3646 H 0.48453 0.44887 0.76625 0.0
H3647 H 0.50587 0.45614 0.74559 0.0
H3648 H 0.51722 0.50865 0.71457 0.0
H3649 H 0.5253 0.48512 0.73262 0.0
H3650 H 0.41585 0.51637 0.77051 0.0
H3651 H 0.42389 0.49162 0.78627 0.0
H3652 H 0.42962 0.54711 0.75585 0.0
H3653 H 0.44577 0.55266 0.73036 0.0
C3654 C 0.80452 0.51498 0.75776 0.0
C3655 C 0.7887 0.52146 0.7397 0.0
C3656 C 0.76517 0.48668 0.74806 0.0
C3657 C 0.7789 0.48211 0.76813 0.0
N3658 N 0.81148 0.4923 0.79289 0.0
N3659 N 0.76648 0.50271 0.70915 0.0
C3660 C 0.79839 0.49656 0.77338 0.0
C3661 C 0.77215 0.50449 0.7323 0.0
N3662 N 0.82694 0.52333 0.75725 0.0
N3663 N 0.74563 0.47355 0.74385 0.0
H3664 H 0.77584 0.51185 0.69633 0.0
H3665 H 0.75577 0.48951 0.70247 0.0
H3666 H 0.74006 0.46041 0.75531 0.0
H3667 H 0.73398 0.47731 0.73032 0.0
H3668 H 0.83996 0.51802 0.76883 0.0
H3669 H 0.83344 0.53249 0.74279 0.0
H3670 H 0.82431 0.50382 0.79894 0.0
H3671 H 0.80833 0.47822 0.80404 0.0
C3672 C 0.75925 0.55134 0.01389 0.0
C3673 C 0.77198 0.53021 0.01443 0.0
C3674 C 0.73798 0.50861 1.00002 0.0
C3675 C 0.72585 0.53007 0.99739 0.0
N3676 N 0.72604 0.5722 0.99792 0.0
N3677 N 0.77523 0.48919 0.00598 0.0
C3678 C 0.73673 0.55158 0.00341 0.0
C3679 C 0.76183 0.50895 0.00687 0.0
N3680 N 0.76875 0.57105 0.02358 0.0
N3681 N 0.72636 0.48793 0.99692 0.0
H3682 H 0.79255 0.48881 0.01178 0.0
H3683 H 0.76977 0.47366 0.99813 0.0
H3684 H 0.70875 0.4871 0.99231 0.0
H3685 H 0.7335 0.47166 1.00081 0.0
H3686 H 0.75946 0.58653 0.02598 0.0
H3687 H 0.78551 0.57128 0.03086 0.0
H3688 H 0.73394 0.58851 1.00002 0.0
H3689 H 0.71004 0.57293 0.98917 0.0
C3690 C 0.72407 0.50434 0.27507 0.0
C3691 C 0.70934 0.52203 0.26598 0.0
C3692 C 0.69875 0.49582 0.23347 0.0
C3693 C 0.71718 0.48068 0.24016 0.0
N3694 N 0.74915 0.47163 0.26594 0.0
N3695 N 0.6738 0.52837 0.24457 0.0
C3696 C 0.7305 0.48544 0.26045 0.0
C3697 C 0.69411 0.5161 0.24723 0.0
N3698 N 0.72811 0.50295 0.29854 0.0
N3699 N 0.68575 0.49074 0.21404 0.0
H3700 H 0.66865 0.54108 0.25669 0.0
H3701 H 0.66088 0.52424 0.23241 0.0
H3702 H 0.68776 0.4753 0.20451 0.0
H3703 H 0.67387 0.50232 0.2066 0.0
H3704 H 0.73815 0.48977 0.30611 0.0
H3705 H 0.71707 0.51132 0.31046 0.0
H3706 H 0.76054 0.47556 0.27967 0.0
H3707 H 0.7544 0.45767 0.25535 0.0
C3708 C 0.76328 0.49313 0.49509 0.0
C3709 C 0.77188 0.47254 0.48424 0.0
C3710 C 0.73769 0.45063 0.49855 0.0
C3711 C 0.72816 0.47159 0.50784 0.0
N3712 N 0.73 0.51344 0.51217 0.0
N3713 N 0.76676 0.4324 0.47316 0.0
C3714 C 0.74051 0.49305 0.50547 0.0
C3715 C 0.75885 0.45148 0.48522 0.0
N3716 N 0.77718 0.5126 0.49581 0.0
N3717 N 0.72683 0.42984 0.50331 0.0
H3718 H 0.7824 0.43267 0.46361 0.0
H3719 H 0.75717 0.41702 0.47118 0.0
H3720 H 0.71173 0.42878 0.51363 0.0
H3721 H 0.73372 0.4136 0.49882 0.0
H3722 H 0.77324 0.52741 0.5057 0.0
H3723 H 0.79352 0.51336 0.48756 0.0
H3724 H 0.73704 0.52993 0.50888 0.0
H3725 H 0.71324 0.51398 0.51948 0.0
C3726 C 0.50893 1.00008 0.73991 0.0
C3727 C 0.53076 0.99757 0.72821 0.0
C3728 C 0.55051 0.01795 0.76045 0.0
C3729 C 0.52911 0.01854 0.77294 0.0
N3730 N 0.48871 0.00732 0.77673 0.0
N3731 N 0.57289 0.99986 0.72916 0.0
C3732 C 0.50851 0.00872 0.76329 0.0
C3733 C 0.55175 0.00544 0.73896 0.0
N3734 N 0.48858 0.99533 0.72828 0.0
N3735 N 0.56957 0.02944 0.76925 0.0
H3736 H 0.57436 0.98952 0.71414 0.0
H3737 H 0.58892 0.00341 0.73711 0.0
H3738 H 0.56906 0.03837 0.78522 0.0
H3739 H 0.58514 0.03172 0.75992 0.0
H3740 H 0.47203 0.99877 0.7352 0.0
H3741 H 0.48821 0.98994 0.71082 0.0
H3742 H 0.47385 0.99794 0.77176 0.0
H3743 H 0.48777 0.01429 0.79363 0.0
loop_
_geom_bond_atom_site_label_1
_geom_bond_atom_site_label_2
_geom_bond_distance
_geom_bond_site_symmetry_2
_ccdc_geom_bond_type
C0 C1 1.351 . S
C0 N3 1.368 . S
C0 H5 0.931 . S
C1 C0 1.351 . S
C1 N2 1.373 . S
C1 H29 0.930 . S
N2 C1 1.373 . S
N2 C4 1.340 . S
N3 C0 1.368 . S
N3 C4 1.321 . S
N3 Co6 2.135 . S
C4 N2 1.340 . S
C4 N3 1.321 . S
C4 H28 0.930 . S
H5 C0 0.931 . S
Co6 N3 2.135 . S
Co6 N9 2.121 . S
Co6 O14 2.055 . S
Co6 O17 2.039 . S
Co6 N20 2.140 . S
C7 O8 1.227 . S
C7 O17 1.265 . S
O8 C7 1.227 . S
N9 Co6 2.121 . S
N9 C11 1.375 . S
N9 C12 1.313 . S
C10 C11 1.338 . S
C10 N13 1.377 . S
C10 H30 0.930 . S
C11 N9 1.375 . S
C11 C10 1.338 . S
C11 H15 0.931 . S
C12 N9 1.313 . S
C12 N13 1.344 . S
C12 H16 0.930 . S
N13 C10 1.377 . S
N13 C12 1.344 . S
O14 Co6 2.055 . S
O14 C18 1.253 . S
H15 C11 0.931 . S
H16 C12 0.930 . S
O17 Co6 2.039 . S
O17 C7 1.265 . S
C18 O14 1.253 . S
C18 O19 1.227 . S
O19 C18 1.227 . S
N20 Co6 2.140 . S
N20 C23 1.346 . S
N20 C24 1.345 . S
C21 C22 1.387 . S
C21 C25 1.391 . S
C22 C21 1.387 . S
C22 C23 1.369 . S
C22 H31 0.929 . S
C23 N20 1.346 . S
C23 C22 1.369 . S
C23 H26 0.928 . S
C24 N20 1.345 . S
C24 C25 1.371 . S
C24 H27 0.931 . S
C25 C21 1.391 . S
C25 C24 1.371 . S
C25 H32 0.930 . S
H26 C23 0.928 . S
H27 C24 0.931 . S
H28 C4 0.930 . S
H29 C1 0.930 . S
H30 C10 0.930 . S
H31 C22 0.929 . S
H32 C25 0.930 . S
C33 C34 1.351 . S
C33 N36 1.368 . S
C33 H38 0.931 . S
C34 C33 1.351 . S
C34 N35 1.373 . S
C34 H62 0.930 1_455 S
N35 C34 1.373 . S
N35 C37 1.340 . S
N36 C33 1.368 . S
N36 C37 1.321 . S
N36 Co39 2.135 . S
C37 N35 1.340 . S
C37 N36 1.321 . S
C37 H61 0.930 . S
H38 C33 0.931 . S
Co39 N36 2.135 . S
Co39 N42 2.121 . S
Co39 O47 2.055 . S
Co39 O50 2.039 . S
Co39 N53 2.140 . S
C40 O41 1.227 . S
C40 O50 1.265 . S
O41 C40 1.227 . S
N42 Co39 2.121 . S
N42 C44 1.375 . S
N42 C45 1.313 . S
C43 C44 1.338 . S
C43 N46 1.377 . S
C43 H63 0.930 . S
C44 N42 1.375 . S
C44 C43 1.338 . S
C44 H48 0.931 . S
C45 N42 1.313 . S
C45 N46 1.344 . S
C45 H49 0.930 . S
N46 C43 1.377 . S
N46 C45 1.344 . S
O47 Co39 2.055 . S
O47 C51 1.253 . S
H48 C44 0.931 . S
H49 C45 0.930 . S
O50 Co39 2.039 . S
O50 C40 1.265 . S
C51 O47 1.253 . S
C51 O52 1.227 . S
O52 C51 1.227 . S
N53 Co39 2.140 . S
N53 C56 1.346 . S
N53 C57 1.345 . S
C54 C55 1.387 . S
C54 C58 1.391 . S
C55 C54 1.387 . S
C55 C56 1.369 . S
C55 H64 0.929 . S
C56 N53 1.346 . S
C56 C55 1.369 . S
C56 H59 0.928 . S
C57 N53 1.345 . S
C57 C58 1.371 . S
C57 H60 0.931 . S
C58 C54 1.391 . S
C58 C57 1.371 . S
C58 H65 0.930 . S
H59 C56 0.928 . S
H60 C57 0.931 . S
H61 C37 0.930 . S
H62 C34 0.930 1_655 S
H63 C43 0.930 . S
H64 C55 0.929 . S
H65 C58 0.930 . S
C66 C67 1.351 . S
C66 N69 1.368 . S
C66 H71 0.931 . S
C67 C66 1.351 . S
C67 N68 1.373 . S
C67 H95 0.930 . S
N68 C67 1.373 . S
N68 C70 1.340 . S
N69 C66 1.368 . S
N69 C70 1.321 . S
N69 Co72 2.135 . S
C70 N68 1.340 . S
C70 N69 1.321 . S
C70 H94 0.930 . S
H71 C66 0.931 . S
Co72 N69 2.135 . S
Co72 N75 2.121 . S
Co72 O80 2.055 . S
Co72 O83 2.039 . S
Co72 N86 2.140 . S
C73 O74 1.227 . S
C73 O83 1.265 . S
O74 C73 1.227 . S
N75 Co72 2.121 . S
N75 C77 1.375 . S
N75 C78 1.313 . S
C76 C77 1.338 . S
C76 N79 1.377 . S
C76 H96 0.930 . S
C77 N75 1.375 . S
C77 C76 1.338 . S
C77 H81 0.931 . S
C78 N75 1.313 . S
C78 N79 1.344 . S
C78 H82 0.930 . S
N79 C76 1.377 . S
N79 C78 1.344 . S
O80 Co72 2.055 . S
O80 C84 1.253 . S
H81 C77 0.931 . S
H82 C78 0.930 . S
O83 Co72 2.039 . S
O83 C73 1.265 . S
C84 O80 1.253 . S
C84 O85 1.227 . S
O85 C84 1.227 . S
N86 Co72 2.140 . S
N86 C89 1.346 . S
N86 C90 1.345 . S
C87 C88 1.387 . S
C87 C91 1.391 . S
C88 C87 1.387 . S
C88 C89 1.369 . S
C88 H97 0.929 . S
C89 N86 1.346 . S
C89 C88 1.369 . S
C89 H92 0.928 . S
C90 N86 1.345 . S
C90 C91 1.371 . S
C90 H93 0.931 . S
C91 C87 1.391 . S
C91 C90 1.371 . S
C91 H98 0.930 . S
H92 C89 0.928 . S
H93 C90 0.931 . S
H94 C70 0.930 . S
H95 C67 0.930 . S
H96 C76 0.930 . S
H97 C88 0.929 . S
H98 C91 0.930 . S
C99 C100 1.351 . S
C99 N102 1.368 . S
C99 H104 0.931 . S
C100 C99 1.351 . S
C100 N101 1.373 . S
C100 H128 0.930 . S
N101 C100 1.373 . S
N101 C103 1.340 . S
N102 C99 1.368 . S
N102 C103 1.321 . S
N102 Co105 2.135 . S
C103 N101 1.340 . S
C103 N102 1.321 . S
C103 H127 0.930 . S
H104 C99 0.931 . S
Co105 N102 2.135 . S
Co105 N108 2.121 . S
Co105 O113 2.055 1_554 S
Co105 O116 2.039 1_554 S
Co105 N119 2.140 . S
C106 O107 1.227 . S
C106 O116 1.265 1_554 S
O107 C106 1.227 . S
N108 Co105 2.121 . S
N108 C110 1.375 . S
N108 C111 1.313 1_554 S
C109 C110 1.338 . S
C109 N112 1.377 1_554 S
C109 H129 0.930 1_554 S
C110 N108 1.375 . S
C110 C109 1.338 . S
C110 H114 0.931 . S
C111 N108 1.313 1_556 S
C111 N112 1.344 . S
C111 H115 0.930 . S
N112 C109 1.377 1_556 S
N112 C111 1.344 . S
O113 Co105 2.055 1_556 S
O113 C117 1.253 1_556 S
H114 C110 0.931 . S
H115 C111 0.930 . S
O116 Co105 2.039 1_556 S
O116 C106 1.265 1_556 S
C117 O113 1.253 1_554 S
C117 O118 1.227 . S
O118 C117 1.227 . S
N119 Co105 2.140 . S
N119 C122 1.346 . S
N119 C123 1.345 . S
C120 C121 1.387 . S
C120 C124 1.391 . S
C121 C120 1.387 . S
C121 C122 1.369 . S
C121 H130 0.929 . S
C122 N119 1.346 . S
C122 C121 1.369 . S
C122 H125 0.928 . S
C123 N119 1.345 . S
C123 C124 1.371 . S
C123 H126 0.931 . S
C124 C120 1.391 . S
C124 C123 1.371 . S
C124 H131 0.930 . S
H125 C122 0.928 . S
H126 C123 0.931 . S
H127 C103 0.930 . S
H128 C100 0.930 . S
H129 C109 0.930 1_556 S
H130 C121 0.929 . S
H131 C124 0.930 . S
C132 C133 1.351 . S
C132 N135 1.368 . S
C132 H137 0.931 . S
C133 C132 1.351 . S
C133 N134 1.373 . S
C133 H161 0.930 . S
N134 C133 1.373 . S
N134 C136 1.340 . S
N135 C132 1.368 . S
N135 C136 1.321 . S
N135 Co138 2.135 . S
C136 N134 1.340 . S
C136 N135 1.321 . S
C136 H160 0.930 . S
H137 C132 0.931 . S
Co138 N135 2.135 . S
Co138 N141 2.121 . S
Co138 O146 2.055 . S
Co138 O149 2.039 . S
Co138 N152 2.140 . S
C139 O140 1.227 . S
C139 O149 1.265 . S
O140 C139 1.227 . S
N141 Co138 2.121 . S
N141 C143 1.375 . S
N141 C144 1.313 . S
C142 C143 1.338 . S
C142 N145 1.377 . S
C142 H162 0.930 . S
C143 N141 1.375 . S
C143 C142 1.338 . S
C143 H147 0.931 . S
C144 N141 1.313 . S
C144 N145 1.344 . S
C144 H148 0.930 . S
N145 C142 1.377 . S
N145 C144 1.344 . S
O146 Co138 2.055 . S
O146 C150 1.253 . S
H147 C143 0.931 . S
H148 C144 0.930 . S
O149 Co138 2.039 . S
O149 C139 1.265 . S
C150 O146 1.253 . S
C150 O151 1.227 . S
O151 C150 1.227 . S
N152 Co138 2.140 . S
N152 C155 1.346 . S
N152 C156 1.345 . S
C153 C154 1.387 . S
C153 C157 1.391 . S
C154 C153 1.387 . S
C154 C155 1.369 . S
C154 H163 0.929 . S
C155 N152 1.346 . S
C155 C154 1.369 . S
C155 H158 0.928 . S
C156 N152 1.345 . S
C156 C157 1.371 . S
C156 H159 0.931 . S
C157 C153 1.391 . S
C157 C156 1.371 . S
C157 H164 0.930 . S
H158 C155 0.928 . S
H159 C156 0.931 . S
H160 C136 0.930 . S
H161 C133 0.930 . S
H162 C142 0.930 . S
H163 C154 0.929 . S
H164 C157 0.930 . S
C165 C166 1.351 . S
C165 N168 1.368 . S
C165 H170 0.931 . S
C166 C165 1.351 . S
C166 N167 1.373 . S
C166 H194 0.930 . S
N167 C166 1.373 . S
N167 C169 1.340 . S
N168 C165 1.368 . S
N168 C169 1.321 . S
N168 Co171 2.135 . S
C169 N167 1.340 . S
C169 N168 1.321 . S
C169 H193 0.930 . S
H170 C165 0.931 . S
Co171 N168 2.135 . S
Co171 N174 2.121 . S
Co171 O179 2.055 . S
Co171 O182 2.039 . S
Co171 N185 2.140 . S
C172 O173 1.227 . S
C172 O182 1.265 . S
O173 C172 1.227 . S
N174 Co171 2.121 . S
N174 C176 1.375 . S
N174 C177 1.313 . S
C175 C176 1.338 . S
C175 N178 1.377 . S
C175 H195 0.930 . S
C176 N174 1.375 . S
C176 C175 1.338 . S
C176 H180 0.931 . S
C177 N174 1.313 . S
C177 N178 1.344 . S
C177 H181 0.930 . S
N178 C175 1.377 . S
N178 C177 1.344 . S
O179 Co171 2.055 . S
O179 C183 1.253 . S
H180 C176 0.931 . S
H181 C177 0.930 . S
O182 Co171 2.039 . S
O182 C172 1.265 . S
C183 O179 1.253 . S
C183 O184 1.227 . S
O184 C183 1.227 . S
N185 Co171 2.140 . S
N185 C188 1.346 . S
N185 C189 1.345 . S
C186 C187 1.387 . S
C186 C190 1.391 . S
C187 C186 1.387 . S
C187 C188 1.369 . S
C187 H196 0.929 . S
C188 N185 1.346 . S
C188 C187 1.369 . S
C188 H191 0.928 . S
C189 N185 1.345 . S
C189 C190 1.371 . S
C189 H192 0.931 . S
C190 C186 1.391 . S
C190 C189 1.371 . S
C190 H197 0.930 . S
H191 C188 0.928 . S
H192 C189 0.931 . S
H193 C169 0.930 . S
H194 C166 0.930 . S
H195 C175 0.930 . S
H196 C187 0.929 . S
H197 C190 0.930 . S
C198 C199 1.351 . S
C198 N201 1.368 . S
C198 H203 0.931 . S
C199 C198 1.351 . S
C199 N200 1.373 . S
C199 H227 0.930 . S
N200 C199 1.373 . S
N200 C202 1.340 . S
N201 C198 1.368 . S
N201 C202 1.321 . S
N201 Co204 2.135 . S
C202 N200 1.340 . S
C202 N201 1.321 . S
C202 H226 0.930 . S
H203 C198 0.931 . S
Co204 N201 2.135 . S
Co204 N207 2.121 . S
Co204 O212 2.055 . S
Co204 O215 2.039 . S
Co204 N218 2.140 . S
C205 O206 1.227 . S
C205 O215 1.265 . S
O206 C205 1.227 . S
N207 Co204 2.121 . S
N207 C209 1.375 . S
N207 C210 1.313 . S
C208 C209 1.338 . S
C208 N211 1.377 . S
C208 H228 0.930 . S
C209 N207 1.375 . S
C209 C208 1.338 . S
C209 H213 0.931 . S
C210 N207 1.313 . S
C210 N211 1.344 . S
C210 H214 0.930 . S
N211 C208 1.377 . S
N211 C210 1.344 . S
O212 Co204 2.055 . S
O212 C216 1.253 . S
H213 C209 0.931 . S
H214 C210 0.930 . S
O215 Co204 2.039 . S
O215 C205 1.265 . S
C216 O212 1.253 . S
C216 O217 1.227 . S
O217 C216 1.227 . S
N218 Co204 2.140 . S
N218 C221 1.346 . S
N218 C222 1.345 . S
C219 C220 1.387 . S
C219 C223 1.391 . S
C220 C219 1.387 . S
C220 C221 1.369 . S
C220 H229 0.929 . S
C221 N218 1.346 . S
C221 C220 1.369 . S
C221 H224 0.928 . S
C222 N218 1.345 . S
C222 C223 1.371 . S
C222 H225 0.931 . S
C223 C219 1.391 . S
C223 C222 1.371 . S
C223 H230 0.930 . S
H224 C221 0.928 . S
H225 C222 0.931 . S
H226 C202 0.930 . S
H227 C199 0.930 . S
H228 C208 0.930 . S
H229 C220 0.929 . S
H230 C223 0.930 . S
C231 C232 1.351 . S
C231 N234 1.368 . S
C231 H236 0.931 . S
C232 C231 1.351 . S
C232 N233 1.373 . S
C232 H260 0.930 1_455 S
N233 C232 1.373 . S
N233 C235 1.340 . S
N234 C231 1.368 . S
N234 C235 1.321 . S
N234 Co237 2.135 . S
C235 N233 1.340 . S
C235 N234 1.321 . S
C235 H259 0.930 . S
H236 C231 0.931 . S
Co237 N234 2.135 . S
Co237 N240 2.121 . S
Co237 O245 2.055 1_556 S
Co237 O248 2.039 1_556 S
Co237 N251 2.140 . S
C238 O239 1.227 . S
C238 O248 1.265 1_556 S
O239 C238 1.227 . S
N240 Co237 2.121 . S
N240 C242 1.375 . S
N240 C243 1.313 1_556 S
C241 C242 1.338 . S
C241 N244 1.377 1_556 S
C241 H261 0.930 1_556 S
C242 N240 1.375 . S
C242 C241 1.338 . S
C242 H246 0.931 . S
C243 N240 1.313 1_554 S
C243 N244 1.344 . S
C243 H247 0.930 . S
N244 C241 1.377 1_554 S
N244 C243 1.344 . S
O245 Co237 2.055 1_554 S
O245 C249 1.253 1_554 S
H246 C242 0.931 . S
H247 C243 0.930 . S
O248 Co237 2.039 1_554 S
O248 C238 1.265 1_554 S
C249 O245 1.253 1_556 S
C249 O250 1.227 . S
O250 C249 1.227 . S
N251 Co237 2.140 . S
N251 C254 1.346 . S
N251 C255 1.345 . S
C252 C253 1.387 . S
C252 C256 1.391 . S
C253 C252 1.387 . S
C253 C254 1.369 . S
C253 H262 0.929 . S
C254 N251 1.346 . S
C254 C253 1.369 . S
C254 H257 0.928 . S
C255 N251 1.345 . S
C255 C256 1.371 . S
C255 H258 0.931 . S
C256 C252 1.391 . S
C256 C255 1.371 . S
C256 H263 0.930 . S
H257 C254 0.928 . S
H258 C255 0.931 . S
H259 C235 0.930 . S
H260 C232 0.930 1_655 S
H261 C241 0.930 1_554 S
H262 C253 0.929 . S
H263 C256 0.930 . S
C264 C265 1.351 . S
C264 N267 1.368 . S
C264 H269 0.931 . S
C265 C264 1.351 . S
C265 N266 1.373 . S
C265 H293 0.930 . S
N266 C265 1.373 . S
N266 C268 1.340 . S
N267 C264 1.368 . S
N267 C268 1.321 . S
N267 Co270 2.135 . S
C268 N266 1.340 . S
C268 N267 1.321 . S
C268 H292 0.930 . S
H269 C264 0.931 . S
Co270 N267 2.135 . S
Co270 N273 2.121 . S
Co270 O278 2.055 . S
Co270 O281 2.039 . S
Co270 N284 2.140 . S
C271 O272 1.227 . S
C271 O281 1.265 . S
O272 C271 1.227 . S
N273 Co270 2.121 . S
N273 C275 1.375 . S
N273 C276 1.313 . S
C274 C275 1.338 . S
C274 N277 1.377 . S
C274 H294 0.930 . S
C275 N273 1.375 . S
C275 C274 1.338 . S
C275 H279 0.931 . S
C276 N273 1.313 . S
C276 N277 1.344 . S
C276 H280 0.930 . S
N277 C274 1.377 . S
N277 C276 1.344 . S
O278 Co270 2.055 . S
O278 C282 1.253 . S
H279 C275 0.931 . S
H280 C276 0.930 . S
O281 Co270 2.039 . S
O281 C271 1.265 . S
C282 O278 1.253 . S
C282 O283 1.227 . S
O283 C282 1.227 . S
N284 Co270 2.140 . S
N284 C287 1.346 . S
N284 C288 1.345 . S
C285 C286 1.387 . S
C285 C289 1.391 . S
C286 C285 1.387 . S
C286 C287 1.369 . S
C286 H295 0.929 . S
C287 N284 1.346 . S
C287 C286 1.369 . S
C287 H290 0.928 . S
C288 N284 1.345 . S
C288 C289 1.371 . S
C288 H291 0.931 . S
C289 C285 1.391 . S
C289 C288 1.371 . S
C289 H296 0.930 . S
H290 C287 0.928 . S
H291 C288 0.931 . S
H292 C268 0.930 . S
H293 C265 0.930 . S
H294 C274 0.930 . S
H295 C286 0.929 . S
H296 C289 0.930 . S
C297 C298 1.351 . S
C297 N300 1.368 . S
C297 H302 0.931 . S
C298 C297 1.351 . S
C298 N299 1.373 . S
C298 H326 0.930 . S
N299 C298 1.373 . S
N299 C301 1.340 . S
N300 C297 1.368 . S
N300 C301 1.321 . S
N300 Co303 2.135 . S
C301 N299 1.340 . S
C301 N300 1.321 . S
C301 H325 0.930 . S
H302 C297 0.931 . S
Co303 N300 2.135 . S
Co303 N306 2.121 . S
Co303 O311 2.055 1_545 S
Co303 O314 2.039 1_545 S
Co303 N317 2.140 . S
C304 O305 1.227 . S
C304 O314 1.265 1_545 S
O305 C304 1.227 . S
N306 Co303 2.121 . S
N306 C308 1.375 . S
N306 C309 1.313 1_545 S
C307 C308 1.338 . S
C307 N310 1.377 1_545 S
C307 H327 0.930 1_545 S
C308 N306 1.375 . S
C308 C307 1.338 . S
C308 H312 0.931 . S
C309 N306 1.313 1_565 S
C309 N310 1.344 . S
C309 H313 0.930 . S
N310 C307 1.377 1_565 S
N310 C309 1.344 . S
O311 Co303 2.055 1_565 S
O311 C315 1.253 1_565 S
H312 C308 0.931 . S
H313 C309 0.930 . S
O314 Co303 2.039 1_565 S
O314 C304 1.265 1_565 S
C315 O311 1.253 1_545 S
C315 O316 1.227 . S
O316 C315 1.227 . S
N317 Co303 2.140 . S
N317 C320 1.346 . S
N317 C321 1.345 . S
C318 C319 1.387 . S
C318 C322 1.391 . S
C319 C318 1.387 . S
C319 C320 1.369 . S
C319 H328 0.929 . S
C320 N317 1.346 . S
C320 C319 1.369 . S
C320 H323 0.928 . S
C321 N317 1.345 . S
C321 C322 1.371 . S
C321 H324 0.931 . S
C322 C318 1.391 . S
C322 C321 1.371 . S
C322 H329 0.930 . S
H323 C320 0.928 . S
H324 C321 0.931 . S
H325 C301 0.930 . S
H326 C298 0.930 . S
H327 C307 0.930 1_565 S
H328 C319 0.929 . S
H329 C322 0.930 . S
C330 C331 1.351 . S
C330 N333 1.368 . S
C330 H335 0.931 . S
C331 C330 1.351 . S
C331 N332 1.373 . S
C331 H359 0.930 . S
N332 C331 1.373 . S
N332 C334 1.340 . S
N333 C330 1.368 . S
N333 C334 1.321 . S
N333 Co336 2.135 . S
C334 N332 1.340 . S
C334 N333 1.321 . S
C334 H358 0.930 . S
H335 C330 0.931 . S
Co336 N333 2.135 . S
Co336 N339 2.121 . S
Co336 O344 2.055 . S
Co336 O347 2.039 . S
Co336 N350 2.140 . S
C337 O338 1.227 . S
C337 O347 1.265 . S
O338 C337 1.227 . S
N339 Co336 2.121 . S
N339 C341 1.375 . S
N339 C342 1.313 . S
C340 C341 1.338 . S
C340 N343 1.377 . S
C340 H360 0.930 . S
C341 N339 1.375 . S
C341 C340 1.338 . S
C341 H345 0.931 . S
C342 N339 1.313 . S
C342 N343 1.344 . S
C342 H346 0.930 . S
N343 C340 1.377 . S
N343 C342 1.344 . S
O344 Co336 2.055 . S
O344 C348 1.253 . S
H345 C341 0.931 . S
H346 C342 0.930 . S
O347 Co336 2.039 . S
O347 C337 1.265 . S
C348 O344 1.253 . S
C348 O349 1.227 . S
O349 C348 1.227 . S
N350 Co336 2.140 . S
N350 C353 1.346 . S
N350 C354 1.345 . S
C351 C352 1.387 . S
C351 C355 1.391 . S
C352 C351 1.387 . S
C352 C353 1.369 . S
C352 H361 0.929 . S
C353 N350 1.346 . S
C353 C352 1.369 . S
C353 H356 0.928 . S
C354 N350 1.345 . S
C354 C355 1.371 . S
C354 H357 0.931 . S
C355 C351 1.391 . S
C355 C354 1.371 . S
C355 H362 0.930 . S
H356 C353 0.928 . S
H357 C354 0.931 . S
H358 C334 0.930 . S
H359 C331 0.930 . S
H360 C340 0.930 . S
H361 C352 0.929 . S
H362 C355 0.930 . S
C363 C364 1.351 . S
C363 N366 1.368 . S
C363 H368 0.931 . S
C364 C363 1.351 . S
C364 N365 1.373 . S
C364 H392 0.930 1_556 S
N365 C364 1.373 . S
N365 C367 1.340 . S
N366 C363 1.368 . S
N366 C367 1.321 . S
N366 Co369 2.135 . S
C367 N365 1.340 . S
C367 N366 1.321 . S
C367 H391 0.930 . S
H368 C363 0.931 . S
Co369 N366 2.135 . S
Co369 N372 2.121 . S
Co369 O377 2.055 1_565 S
Co369 O380 2.039 1_565 S
Co369 N383 2.140 . S
C370 O371 1.227 . S
C370 O380 1.265 1_565 S
O371 C370 1.227 . S
N372 Co369 2.121 . S
N372 C374 1.375 . S
N372 C375 1.313 1_565 S
C373 C374 1.338 . S
C373 N376 1.377 1_565 S
C373 H393 0.930 1_565 S
C374 N372 1.375 . S
C374 C373 1.338 . S
C374 H378 0.931 . S
C375 N372 1.313 1_545 S
C375 N376 1.344 . S
C375 H379 0.930 . S
N376 C373 1.377 1_545 S
N376 C375 1.344 . S
O377 Co369 2.055 1_545 S
O377 C381 1.253 1_545 S
H378 C374 0.931 . S
H379 C375 0.930 . S
O380 Co369 2.039 1_545 S
O380 C370 1.265 1_545 S
C381 O377 1.253 1_565 S
C381 O382 1.227 . S
O382 C381 1.227 . S
N383 Co369 2.140 . S
N383 C386 1.346 . S
N383 C387 1.345 . S
C384 C385 1.387 . S
C384 C388 1.391 . S
C385 C384 1.387 . S
C385 C386 1.369 . S
C385 H394 0.929 . S
C386 N383 1.346 . S
C386 C385 1.369 . S
C386 H389 0.928 . S
C387 N383 1.345 . S
C387 C388 1.371 . S
C387 H390 0.931 . S
C388 C384 1.391 . S
C388 C387 1.371 . S
C388 H395 0.930 . S
H389 C386 0.928 . S
H390 C387 0.931 . S
H391 C367 0.930 . S
H392 C364 0.930 1_554 S
H393 C373 0.930 1_545 S
H394 C385 0.929 . S
H395 C388 0.930 . S
C396 C397 1.351 . S
C396 N399 1.368 . S
C396 H401 0.931 . S
C397 C396 1.351 . S
C397 N398 1.373 . S
C397 H425 0.930 . S
N398 C397 1.373 . S
N398 C400 1.340 . S
N399 C396 1.368 . S
N399 C400 1.321 . S
N399 Co402 2.135 . S
C400 N398 1.340 . S
C400 N399 1.321 . S
C400 H424 0.930 . S
H401 C396 0.931 . S
Co402 N399 2.135 . S
Co402 N405 2.121 . S
Co402 O410 2.055 . S
Co402 O413 2.039 . S
Co402 N416 2.140 . S
C403 O404 1.227 . S
C403 O413 1.265 . S
O404 C403 1.227 . S
N405 Co402 2.121 . S
N405 C407 1.375 . S
N405 C408 1.313 . S
C406 C407 1.338 . S
C406 N409 1.377 . S
C406 H426 0.930 . S
C407 N405 1.375 . S
C407 C406 1.338 . S
C407 H411 0.931 . S
C408 N405 1.313 . S
C408 N409 1.344 . S
C408 H412 0.930 . S
N409 C406 1.377 . S
N409 C408 1.344 . S
O410 Co402 2.055 . S
O410 C414 1.253 . S
H411 C407 0.931 . S
H412 C408 0.930 . S
O413 Co402 2.039 . S
O413 C403 1.265 . S
C414 O410 1.253 . S
C414 O415 1.227 . S
O415 C414 1.227 . S
N416 Co402 2.140 . S
N416 C419 1.346 . S
N416 C420 1.345 . S
C417 C418 1.387 . S
C417 C421 1.391 . S
C418 C417 1.387 . S
C418 C419 1.369 . S
C418 H427 0.929 . S
C419 N416 1.346 . S
C419 C418 1.369 . S
C419 H422 0.928 . S
C420 N416 1.345 . S
C420 C421 1.371 . S
C420 H423 0.931 . S
C421 C417 1.391 . S
C421 C420 1.371 . S
C421 H428 0.930 . S
H422 C419 0.928 . S
H423 C420 0.931 . S
H424 C400 0.930 . S
H425 C397 0.930 . S
H426 C406 0.930 . S
H427 C418 0.929 . S
H428 C421 0.930 . S
C429 C430 1.351 . S
C429 N432 1.368 . S
C429 H434 0.931 . S
C430 C429 1.351 . S
C430 N431 1.373 . S
C430 H458 0.930 . S
N431 C430 1.373 . S
N431 C433 1.340 . S
N432 C429 1.368 . S
N432 C433 1.321 . S
N432 Co435 2.135 . S
C433 N431 1.340 . S
C433 N432 1.321 . S
C433 H457 0.930 . S
H434 C429 0.931 . S
Co435 N432 2.135 . S
Co435 N438 2.121 . S
Co435 O443 2.055 1_545 S
Co435 O446 2.039 1_545 S
Co435 N449 2.140 . S
C436 O437 1.227 . S
C436 O446 1.265 1_545 S
O437 C436 1.227 . S
N438 Co435 2.121 . S
N438 C440 1.375 . S
N438 C441 1.313 1_545 S
C439 C440 1.338 . S
C439 N442 1.377 1_545 S
C439 H459 0.930 1_545 S
C440 N438 1.375 . S
C440 C439 1.338 . S
C440 H444 0.931 . S
C441 N438 1.313 1_565 S
C441 N442 1.344 . S
C441 H445 0.930 . S
N442 C439 1.377 1_565 S
N442 C441 1.344 . S
O443 Co435 2.055 1_565 S
O443 C447 1.253 1_565 S
H444 C440 0.931 . S
H445 C441 0.930 . S
O446 Co435 2.039 1_565 S
O446 C436 1.265 1_565 S
C447 O443 1.253 1_545 S
C447 O448 1.227 . S
O448 C447 1.227 . S
N449 Co435 2.140 . S
N449 C452 1.346 . S
N449 C453 1.345 . S
C450 C451 1.387 . S
C450 C454 1.391 . S
C451 C450 1.387 . S
C451 C452 1.369 . S
C451 H460 0.929 . S
C452 N449 1.346 . S
C452 C451 1.369 . S
C452 H455 0.928 . S
C453 N449 1.345 . S
C453 C454 1.371 . S
C453 H456 0.931 . S
C454 C450 1.391 . S
C454 C453 1.371 . S
C454 H461 0.930 . S
H455 C452 0.928 . S
H456 C453 0.931 . S
H457 C433 0.930 . S
H458 C430 0.930 . S
H459 C439 0.930 1_565 S
H460 C451 0.929 . S
H461 C454 0.930 . S
C462 C463 1.351 . S
C462 N465 1.368 . S
C462 H467 0.931 . S
C463 C462 1.351 . S
C463 N464 1.373 . S
C463 H491 0.930 . S
N464 C463 1.373 . S
N464 C466 1.340 . S
N465 C462 1.368 . S
N465 C466 1.321 . S
N465 Co468 2.135 . S
C466 N464 1.340 . S
C466 N465 1.321 . S
C466 H490 0.930 . S
H467 C462 0.931 . S
Co468 N465 2.135 . S
Co468 N471 2.121 . S
Co468 O476 2.055 . S
Co468 O479 2.039 . S
Co468 N482 2.140 . S
C469 O470 1.227 . S
C469 O479 1.265 . S
O470 C469 1.227 . S
N471 Co468 2.121 . S
N471 C473 1.375 . S
N471 C474 1.313 . S
C472 C473 1.338 . S
C472 N475 1.377 . S
C472 H492 0.930 . S
C473 N471 1.375 . S
C473 C472 1.338 . S
C473 H477 0.931 . S
C474 N471 1.313 . S
C474 N475 1.344 . S
C474 H478 0.930 . S
N475 C472 1.377 . S
N475 C474 1.344 . S
O476 Co468 2.055 . S
O476 C480 1.253 . S
H477 C473 0.931 . S
H478 C474 0.930 . S
O479 Co468 2.039 . S
O479 C469 1.265 . S
C480 O476 1.253 . S
C480 O481 1.227 . S
O481 C480 1.227 . S
N482 Co468 2.140 . S
N482 C485 1.346 . S
N482 C486 1.345 . S
C483 C484 1.387 . S
C483 C487 1.391 . S
C484 C483 1.387 . S
C484 C485 1.369 . S
C484 H493 0.929 . S
C485 N482 1.346 . S
C485 C484 1.369 . S
C485 H488 0.928 . S
C486 N482 1.345 . S
C486 C487 1.371 . S
C486 H489 0.931 . S
C487 C483 1.391 . S
C487 C486 1.371 . S
C487 H494 0.930 . S
H488 C485 0.928 . S
H489 C486 0.931 . S
H490 C466 0.930 . S
H491 C463 0.930 . S
H492 C472 0.930 . S
H493 C484 0.929 . S
H494 C487 0.930 . S
C495 C496 1.351 . S
C495 N498 1.368 . S
C495 H500 0.931 . S
C496 C495 1.351 . S
C496 N497 1.373 . S
C496 H524 0.930 1_554 S
N497 C496 1.373 . S
N497 C499 1.340 . S
N498 C495 1.368 . S
N498 C499 1.321 . S
N498 Co501 2.135 . S
C499 N497 1.340 . S
C499 N498 1.321 . S
C499 H523 0.930 . S
H500 C495 0.931 . S
Co501 N498 2.135 . S
Co501 N504 2.121 . S
Co501 O509 2.055 1_565 S
Co501 O512 2.039 1_565 S
Co501 N515 2.140 . S
C502 O503 1.227 . S
C502 O512 1.265 1_565 S
O503 C502 1.227 . S
N504 Co501 2.121 . S
N504 C506 1.375 . S
N504 C507 1.313 1_565 S
C505 C506 1.338 . S
C505 N508 1.377 1_565 S
C505 H525 0.930 1_565 S
C506 N504 1.375 . S
C506 C505 1.338 . S
C506 H510 0.931 . S
C507 N504 1.313 1_545 S
C507 N508 1.344 . S
C507 H511 0.930 . S
N508 C505 1.377 1_545 S
N508 C507 1.344 . S
O509 Co501 2.055 1_545 S
O509 C513 1.253 1_545 S
H510 C506 0.931 . S
H511 C507 0.930 . S
O512 Co501 2.039 1_545 S
O512 C502 1.265 1_545 S
C513 O509 1.253 1_565 S
C513 O514 1.227 . S
O514 C513 1.227 . S
N515 Co501 2.140 . S
N515 C518 1.346 . S
N515 C519 1.345 . S
C516 C517 1.387 . S
C516 C520 1.391 . S
C517 C516 1.387 . S
C517 C518 1.369 . S
C517 H526 0.929 . S
C518 N515 1.346 . S
C518 C517 1.369 . S
C518 H521 0.928 . S
C519 N515 1.345 . S
C519 C520 1.371 . S
C519 H522 0.931 . S
C520 C516 1.391 . S
C520 C519 1.371 . S
C520 H527 0.930 . S
H521 C518 0.928 . S
H522 C519 0.931 . S
H523 C499 0.930 . S
H524 C496 0.930 1_556 S
H525 C505 0.930 1_545 S
H526 C517 0.929 . S
H527 C520 0.930 . S
C528 C529 1.351 . S
C528 N531 1.368 . S
C528 H533 0.931 . S
C529 C528 1.351 . S
C529 N530 1.373 . S
C529 H557 0.930 . S
N530 C529 1.373 . S
N530 C532 1.340 . S
N531 C528 1.368 . S
N531 C532 1.321 . S
N531 Co534 2.135 . S
C532 N530 1.340 . S
C532 N531 1.321 . S
C532 H556 0.930 . S
H533 C528 0.931 . S
Co534 N531 2.135 . S
Co534 N537 2.121 . S
Co534 O542 2.055 . S
Co534 O545 2.039 . S
Co534 N548 2.140 . S
C535 O536 1.227 . S
C535 O545 1.265 . S
O536 C535 1.227 . S
N537 Co534 2.121 . S
N537 C539 1.375 . S
N537 C540 1.313 . S
C538 C539 1.338 . S
C538 N541 1.377 . S
C538 H558 0.930 . S
C539 N537 1.375 . S
C539 C538 1.338 . S
C539 H543 0.931 . S
C540 N537 1.313 . S
C540 N541 1.344 . S
C540 H544 0.930 . S
N541 C538 1.377 . S
N541 C540 1.344 . S
O542 Co534 2.055 . S
O542 C546 1.253 . S
H543 C539 0.931 . S
H544 C540 0.930 . S
O545 Co534 2.039 . S
O545 C535 1.265 . S
C546 O542 1.253 . S
C546 O547 1.227 . S
O547 C546 1.227 . S
N548 Co534 2.140 . S
N548 C551 1.346 . S
N548 C552 1.345 . S
C549 C550 1.387 . S
C549 C553 1.391 . S
C550 C549 1.387 . S
C550 C551 1.369 . S
C550 H559 0.929 . S
C551 N548 1.346 . S
C551 C550 1.369 . S
C551 H554 0.928 . S
C552 N548 1.345 . S
C552 C553 1.371 . S
C552 H555 0.931 . S
C553 C549 1.391 . S
C553 C552 1.371 . S
C553 H560 0.930 . S
H554 C551 0.928 . S
H555 C552 0.931 . S
H556 C532 0.930 . S
H557 C529 0.930 . S
H558 C538 0.930 . S
H559 C550 0.929 . S
H560 C553 0.930 . S
C561 C562 1.351 . S
C561 N564 1.368 . S
C561 H566 0.931 . S
C562 C561 1.351 . S
C562 N563 1.373 . S
C562 H590 0.930 . S
N563 C562 1.373 . S
N563 C565 1.340 . S
N564 C561 1.368 . S
N564 C565 1.321 . S
N564 Co567 2.135 . S
C565 N563 1.340 . S
C565 N564 1.321 . S
C565 H589 0.930 . S
H566 C561 0.931 . S
Co567 N564 2.135 . S
Co567 N570 2.121 . S
Co567 O575 2.055 . S
Co567 O578 2.039 . S
Co567 N581 2.140 . S
C568 O569 1.227 . S
C568 O578 1.265 . S
O569 C568 1.227 . S
N570 Co567 2.121 . S
N570 C572 1.375 . S
N570 C573 1.313 . S
C571 C572 1.338 . S
C571 N574 1.377 . S
C571 H591 0.930 . S
C572 N570 1.375 . S
C572 C571 1.338 . S
C572 H576 0.931 . S
C573 N570 1.313 . S
C573 N574 1.344 . S
C573 H577 0.930 . S
N574 C571 1.377 . S
N574 C573 1.344 . S
O575 Co567 2.055 . S
O575 C579 1.253 . S
H576 C572 0.931 . S
H577 C573 0.930 . S
O578 Co567 2.039 . S
O578 C568 1.265 . S
C579 O575 1.253 . S
C579 O580 1.227 . S
O580 C579 1.227 . S
N581 Co567 2.140 . S
N581 C584 1.346 . S
N581 C585 1.345 . S
C582 C583 1.387 . S
C582 C586 1.391 . S
C583 C582 1.387 . S
C583 C584 1.369 . S
C583 H592 0.929 . S
C584 N581 1.346 . S
C584 C583 1.369 . S
C584 H587 0.928 . S
C585 N581 1.345 . S
C585 C586 1.371 . S
C585 H588 0.931 . S
C586 C582 1.391 . S
C586 C585 1.371 . S
C586 H593 0.930 . S
H587 C584 0.928 . S
H588 C585 0.931 . S
H589 C565 0.930 . S
H590 C562 0.930 . S
H591 C571 0.930 . S
H592 C583 0.929 . S
H593 C586 0.930 . S
C594 C595 1.351 . S
C594 N597 1.368 . S
C594 H599 0.931 . S
C595 C594 1.351 . S
C595 N596 1.373 . S
C595 H623 0.930 . S
N596 C595 1.373 . S
N596 C598 1.340 . S
N597 C594 1.368 . S
N597 C598 1.321 . S
N597 Co600 2.135 . S
C598 N596 1.340 . S
C598 N597 1.321 . S
C598 H622 0.930 . S
H599 C594 0.931 . S
Co600 N597 2.135 . S
Co600 N603 2.121 . S
Co600 O608 2.055 1_455 S
Co600 O611 2.039 1_455 S
Co600 N614 2.140 . S
C601 O602 1.227 . S
C601 O611 1.265 1_455 S
O602 C601 1.227 . S
N603 Co600 2.121 . S
N603 C605 1.375 . S
N603 C606 1.313 1_455 S
C604 C605 1.338 . S
C604 N607 1.377 1_455 S
C604 H624 0.930 1_455 S
C605 N603 1.375 . S
C605 C604 1.338 . S
C605 H609 0.931 . S
C606 N603 1.313 1_655 S
C606 N607 1.344 . S
C606 H610 0.930 . S
N607 C604 1.377 1_655 S
N607 C606 1.344 . S
O608 Co600 2.055 1_655 S
O608 C612 1.253 1_655 S
H609 C605 0.931 . S
H610 C606 0.930 . S
O611 Co600 2.039 1_655 S
O611 C601 1.265 1_655 S
C612 O608 1.253 1_455 S
C612 O613 1.227 . S
O613 C612 1.227 . S
N614 Co600 2.140 . S
N614 C617 1.346 . S
N614 C618 1.345 . S
C615 C616 1.387 . S
C615 C619 1.391 . S
C616 C615 1.387 . S
C616 C617 1.369 . S
C616 H625 0.929 . S
C617 N614 1.346 . S
C617 C616 1.369 . S
C617 H620 0.928 . S
C618 N614 1.345 . S
C618 C619 1.371 . S
C618 H621 0.931 . S
C619 C615 1.391 . S
C619 C618 1.371 . S
C619 H626 0.930 . S
H620 C617 0.928 . S
H621 C618 0.931 . S
H622 C598 0.930 . S
H623 C595 0.930 . S
H624 C604 0.930 1_655 S
H625 C616 0.929 . S
H626 C619 0.930 . S
C627 C628 1.351 . S
C627 N630 1.368 . S
C627 H632 0.931 . S
C628 C627 1.351 . S
C628 N629 1.373 . S
C628 H656 0.930 . S
N629 C628 1.373 . S
N629 C631 1.340 . S
N630 C627 1.368 . S
N630 C631 1.321 . S
N630 Co633 2.135 . S
C631 N629 1.340 . S
C631 N630 1.321 . S
C631 H655 0.930 . S
H632 C627 0.931 . S
Co633 N630 2.135 . S
Co633 N636 2.121 . S
Co633 O641 2.055 . S
Co633 O644 2.039 . S
Co633 N647 2.140 . S
C634 O635 1.227 . S
C634 O644 1.265 . S
O635 C634 1.227 . S
N636 Co633 2.121 . S
N636 C638 1.375 . S
N636 C639 1.313 . S
C637 C638 1.338 . S
C637 N640 1.377 . S
C637 H657 0.930 . S
C638 N636 1.375 . S
C638 C637 1.338 . S
C638 H642 0.931 . S
C639 N636 1.313 . S
C639 N640 1.344 . S
C639 H643 0.930 . S
N640 C637 1.377 . S
N640 C639 1.344 . S
O641 Co633 2.055 . S
O641 C645 1.253 . S
H642 C638 0.931 . S
H643 C639 0.930 . S
O644 Co633 2.039 . S
O644 C634 1.265 . S
C645 O641 1.253 . S
C645 O646 1.227 . S
O646 C645 1.227 . S
N647 Co633 2.140 . S
N647 C650 1.346 . S
N647 C651 1.345 . S
C648 C649 1.387 . S
C648 C652 1.391 . S
C649 C648 1.387 . S
C649 C650 1.369 . S
C649 H658 0.929 . S
C650 N647 1.346 . S
C650 C649 1.369 . S
C650 H653 0.928 . S
C651 N647 1.345 . S
C651 C652 1.371 . S
C651 H654 0.931 . S
C652 C648 1.391 . S
C652 C651 1.371 . S
C652 H659 0.930 . S
H653 C650 0.928 . S
H654 C651 0.931 . S
H655 C631 0.930 . S
H656 C628 0.930 . S
H657 C637 0.930 . S
H658 C649 0.929 . S
H659 C652 0.930 . S
C660 C661 1.351 . S
C660 N663 1.368 . S
C660 H665 0.931 . S
C661 C660 1.351 . S
C661 N662 1.373 . S
C661 H689 0.930 1_545 S
N662 C661 1.373 . S
N662 C664 1.340 . S
N663 C660 1.368 . S
N663 C664 1.321 . S
N663 Co666 2.135 . S
C664 N662 1.340 . S
C664 N663 1.321 . S
C664 H688 0.930 . S
H665 C660 0.931 . S
Co666 N663 2.135 . S
Co666 N669 2.121 . S
Co666 O674 2.055 1_655 S
Co666 O677 2.039 1_655 S
Co666 N680 2.140 . S
C667 O668 1.227 . S
C667 O677 1.265 1_655 S
O668 C667 1.227 . S
N669 Co666 2.121 . S
N669 C671 1.375 . S
N669 C672 1.313 1_655 S
C670 C671 1.338 . S
C670 N673 1.377 1_655 S
C670 H690 0.930 1_655 S
C671 N669 1.375 . S
C671 C670 1.338 . S
C671 H675 0.931 . S
C672 N669 1.313 1_455 S
C672 N673 1.344 . S
C672 H676 0.930 . S
N673 C670 1.377 1_455 S
N673 C672 1.344 . S
O674 Co666 2.055 1_455 S
O674 C678 1.253 1_455 S
H675 C671 0.931 . S
H676 C672 0.930 . S
O677 Co666 2.039 1_455 S
O677 C667 1.265 1_455 S
C678 O674 1.253 1_655 S
C678 O679 1.227 . S
O679 C678 1.227 . S
N680 Co666 2.140 . S
N680 C683 1.346 . S
N680 C684 1.345 . S
C681 C682 1.387 . S
C681 C685 1.391 . S
C682 C681 1.387 . S
C682 C683 1.369 . S
C682 H691 0.929 . S
C683 N680 1.346 . S
C683 C682 1.369 . S
C683 H686 0.928 . S
C684 N680 1.345 . S
C684 C685 1.371 . S
C684 H687 0.931 . S
C685 C681 1.391 . S
C685 C684 1.371 . S
C685 H692 0.930 . S
H686 C683 0.928 . S
H687 C684 0.931 . S
H688 C664 0.930 . S
H689 C661 0.930 1_565 S
H690 C670 0.930 1_455 S
H691 C682 0.929 . S
H692 C685 0.930 . S
C693 C694 1.351 . S
C693 N696 1.368 . S
C693 H698 0.931 . S
C694 C693 1.351 . S
C694 N695 1.373 . S
C694 H722 0.930 . S
N695 C694 1.373 . S
N695 C697 1.340 . S
N696 C693 1.368 . S
N696 C697 1.321 . S
N696 Co699 2.135 . S
C697 N695 1.340 . S
C697 N696 1.321 . S
C697 H721 0.930 . S
H698 C693 0.931 . S
Co699 N696 2.135 . S
Co699 N702 2.121 . S
Co699 O707 2.055 . S
Co699 O710 2.039 . S
Co699 N713 2.140 . S
C700 O701 1.227 . S
C700 O710 1.265 . S
O701 C700 1.227 . S
N702 Co699 2.121 . S
N702 C704 1.375 . S
N702 C705 1.313 . S
C703 C704 1.338 . S
C703 N706 1.377 . S
C703 H723 0.930 . S
C704 N702 1.375 . S
C704 C703 1.338 . S
C704 H708 0.931 . S
C705 N702 1.313 . S
C705 N706 1.344 . S
C705 H709 0.930 . S
N706 C703 1.377 . S
N706 C705 1.344 . S
O707 Co699 2.055 . S
O707 C711 1.253 . S
H708 C704 0.931 . S
H709 C705 0.930 . S
O710 Co699 2.039 . S
O710 C700 1.265 . S
C711 O707 1.253 . S
C711 O712 1.227 . S
O712 C711 1.227 . S
N713 Co699 2.140 . S
N713 C716 1.346 . S
N713 C717 1.345 . S
C714 C715 1.387 . S
C714 C718 1.391 . S
C715 C714 1.387 . S
C715 C716 1.369 . S
C715 H724 0.929 . S
C716 N713 1.346 . S
C716 C715 1.369 . S
C716 H719 0.928 . S
C717 N713 1.345 . S
C717 C718 1.371 . S
C717 H720 0.931 . S
C718 C714 1.391 . S
C718 C717 1.371 . S
C718 H725 0.930 . S
H719 C716 0.928 . S
H720 C717 0.931 . S
H721 C697 0.930 . S
H722 C694 0.930 . S
H723 C703 0.930 . S
H724 C715 0.929 . S
H725 C718 0.930 . S
C726 C727 1.351 . S
C726 N729 1.368 . S
C726 H731 0.931 . S
C727 C726 1.351 . S
C727 N728 1.373 . S
C727 H755 0.930 . S
N728 C727 1.373 . S
N728 C730 1.340 . S
N729 C726 1.368 . S
N729 C730 1.321 . S
N729 Co732 2.135 . S
C730 N728 1.340 . S
C730 N729 1.321 . S
C730 H754 0.930 . S
H731 C726 0.931 . S
Co732 N729 2.135 . S
Co732 N735 2.121 . S
Co732 O740 2.055 1_455 S
Co732 O743 2.039 1_455 S
Co732 N746 2.140 . S
C733 O734 1.227 . S
C733 O743 1.265 1_455 S
O734 C733 1.227 . S
N735 Co732 2.121 . S
N735 C737 1.375 . S
N735 C738 1.313 1_455 S
C736 C737 1.338 . S
C736 N739 1.377 1_455 S
C736 H756 0.930 1_455 S
C737 N735 1.375 . S
C737 C736 1.338 . S
C737 H741 0.931 . S
C738 N735 1.313 1_655 S
C738 N739 1.344 . S
C738 H742 0.930 . S
N739 C736 1.377 1_655 S
N739 C738 1.344 . S
O740 Co732 2.055 1_655 S
O740 C744 1.253 1_655 S
H741 C737 0.931 . S
H742 C738 0.930 . S
O743 Co732 2.039 1_655 S
O743 C733 1.265 1_655 S
C744 O740 1.253 1_455 S
C744 O745 1.227 . S
O745 C744 1.227 . S
N746 Co732 2.140 . S
N746 C749 1.346 . S
N746 C750 1.345 . S
C747 C748 1.387 . S
C747 C751 1.391 . S
C748 C747 1.387 . S
C748 C749 1.369 . S
C748 H757 0.929 . S
C749 N746 1.346 . S
C749 C748 1.369 . S
C749 H752 0.928 . S
C750 N746 1.345 . S
C750 C751 1.371 . S
C750 H753 0.931 . S
C751 C747 1.391 . S
C751 C750 1.371 . S
C751 H758 0.930 . S
H752 C749 0.928 . S
H753 C750 0.931 . S
H754 C730 0.930 . S
H755 C727 0.930 . S
H756 C736 0.930 1_655 S
H757 C748 0.929 . S
H758 C751 0.930 . S
C759 C760 1.351 . S
C759 N762 1.368 . S
C759 H764 0.931 . S
C760 C759 1.351 . S
C760 N761 1.373 . S
C760 H788 0.930 . S
N761 C760 1.373 . S
N761 C763 1.340 . S
N762 C759 1.368 . S
N762 C763 1.321 . S
N762 Co765 2.135 . S
C763 N761 1.340 . S
C763 N762 1.321 . S
C763 H787 0.930 . S
H764 C759 0.931 . S
Co765 N762 2.135 . S
Co765 N768 2.121 . S
Co765 O773 2.055 . S
Co765 O776 2.039 . S
Co765 N779 2.140 . S
C766 O767 1.227 . S
C766 O776 1.265 . S
O767 C766 1.227 . S
N768 Co765 2.121 . S
N768 C770 1.375 . S
N768 C771 1.313 . S
C769 C770 1.338 . S
C769 N772 1.377 . S
C769 H789 0.930 . S
C770 N768 1.375 . S
C770 C769 1.338 . S
C770 H774 0.931 . S
C771 N768 1.313 . S
C771 N772 1.344 . S
C771 H775 0.930 . S
N772 C769 1.377 . S
N772 C771 1.344 . S
O773 Co765 2.055 . S
O773 C777 1.253 . S
H774 C770 0.931 . S
H775 C771 0.930 . S
O776 Co765 2.039 . S
O776 C766 1.265 . S
C777 O773 1.253 . S
C777 O778 1.227 . S
O778 C777 1.227 . S
N779 Co765 2.140 . S
N779 C782 1.346 . S
N779 C783 1.345 . S
C780 C781 1.387 . S
C780 C784 1.391 . S
C781 C780 1.387 . S
C781 C782 1.369 . S
C781 H790 0.929 . S
C782 N779 1.346 . S
C782 C781 1.369 . S
C782 H785 0.928 . S
C783 N779 1.345 . S
C783 C784 1.371 . S
C783 H786 0.931 . S
C784 C780 1.391 . S
C784 C783 1.371 . S
C784 H791 0.930 . S
H785 C782 0.928 . S
H786 C783 0.931 . S
H787 C763 0.930 . S
H788 C760 0.930 . S
H789 C769 0.930 . S
H790 C781 0.929 . S
H791 C784 0.930 . S
C792 C793 1.351 . S
C792 N795 1.368 . S
C792 H797 0.931 . S
C793 C792 1.351 . S
C793 N794 1.373 . S
C793 H821 0.930 . S
N794 C793 1.373 . S
N794 C796 1.340 . S
N795 C792 1.368 . S
N795 C796 1.321 . S
N795 Co798 2.135 . S
C796 N794 1.340 . S
C796 N795 1.321 . S
C796 H820 0.930 . S
H797 C792 0.931 . S
Co798 N795 2.135 . S
Co798 N801 2.121 . S
Co798 O806 2.055 . S
Co798 O809 2.039 . S
Co798 N812 2.140 . S
C799 O800 1.227 . S
C799 O809 1.265 . S
O800 C799 1.227 . S
N801 Co798 2.121 . S
N801 C803 1.375 . S
N801 C804 1.313 . S
C802 C803 1.338 . S
C802 N805 1.377 . S
C802 H822 0.930 . S
C803 N801 1.375 . S
C803 C802 1.338 . S
C803 H807 0.931 . S
C804 N801 1.313 . S
C804 N805 1.344 . S
C804 H808 0.930 . S
N805 C802 1.377 . S
N805 C804 1.344 . S
O806 Co798 2.055 . S
O806 C810 1.253 . S
H807 C803 0.931 . S
H808 C804 0.930 . S
O809 Co798 2.039 . S
O809 C799 1.265 . S
C810 O806 1.253 . S
C810 O811 1.227 . S
O811 C810 1.227 . S
N812 Co798 2.140 . S
N812 C815 1.346 . S
N812 C816 1.345 . S
C813 C814 1.387 . S
C813 C817 1.391 . S
C814 C813 1.387 . S
C814 C815 1.369 . S
C814 H823 0.929 . S
C815 N812 1.346 . S
C815 C814 1.369 . S
C815 H818 0.928 . S
C816 N812 1.345 . S
C816 C817 1.371 . S
C816 H819 0.931 . S
C817 C813 1.391 . S
C817 C816 1.371 . S
C817 H824 0.930 . S
H818 C815 0.928 . S
H819 C816 0.931 . S
H820 C796 0.930 . S
H821 C793 0.930 . S
H822 C802 0.930 . S
H823 C814 0.929 . S
H824 C817 0.930 . S
C825 C826 1.351 . S
C825 N828 1.368 . S
C825 H830 0.931 . S
C826 C825 1.351 . S
C826 N827 1.373 . S
C826 H854 0.930 . S
N827 C826 1.373 . S
N827 C829 1.340 . S
N828 C825 1.368 . S
N828 C829 1.321 . S
N828 Co831 2.135 . S
C829 N827 1.340 . S
C829 N828 1.321 . S
C829 H853 0.930 . S
H830 C825 0.931 . S
Co831 N828 2.135 . S
Co831 N834 2.121 . S
Co831 O839 2.055 1_554 S
Co831 O842 2.039 1_554 S
Co831 N845 2.140 . S
C832 O833 1.227 . S
C832 O842 1.265 1_554 S
O833 C832 1.227 . S
N834 Co831 2.121 . S
N834 C836 1.375 . S
N834 C837 1.313 1_554 S
C835 C836 1.338 . S
C835 N838 1.377 1_554 S
C835 H855 0.930 1_554 S
C836 N834 1.375 . S
C836 C835 1.338 . S
C836 H840 0.931 . S
C837 N834 1.313 1_556 S
C837 N838 1.344 . S
C837 H841 0.930 . S
N838 C835 1.377 1_556 S
N838 C837 1.344 . S
O839 Co831 2.055 1_556 S
O839 C843 1.253 1_556 S
H840 C836 0.931 . S
H841 C837 0.930 . S
O842 Co831 2.039 1_556 S
O842 C832 1.265 1_556 S
C843 O839 1.253 1_554 S
C843 O844 1.227 . S
O844 C843 1.227 . S
N845 Co831 2.140 . S
N845 C848 1.346 . S
N845 C849 1.345 . S
C846 C847 1.387 . S
C846 C850 1.391 . S
C847 C846 1.387 . S
C847 C848 1.369 . S
C847 H856 0.929 . S
C848 N845 1.346 . S
C848 C847 1.369 . S
C848 H851 0.928 . S
C849 N845 1.345 . S
C849 C850 1.371 . S
C849 H852 0.931 . S
C850 C846 1.391 . S
C850 C849 1.371 . S
C850 H857 0.930 . S
H851 C848 0.928 . S
H852 C849 0.931 . S
H853 C829 0.930 . S
H854 C826 0.930 . S
H855 C835 0.930 1_556 S
H856 C847 0.929 . S
H857 C850 0.930 . S
C858 C859 1.351 . S
C858 N861 1.368 . S
C858 H863 0.931 . S
C859 C858 1.351 . S
C859 N860 1.373 . S
C859 H887 0.930 . S
N860 C859 1.373 . S
N860 C862 1.340 . S
N861 C858 1.368 . S
N861 C862 1.321 . S
N861 Co864 2.135 . S
C862 N860 1.340 . S
C862 N861 1.321 . S
C862 H886 0.930 . S
H863 C858 0.931 . S
Co864 N861 2.135 . S
Co864 N867 2.121 . S
Co864 O872 2.055 . S
Co864 O875 2.039 . S
Co864 N878 2.140 . S
C865 O866 1.227 . S
C865 O875 1.265 . S
O866 C865 1.227 . S
N867 Co864 2.121 . S
N867 C869 1.375 . S
N867 C870 1.313 . S
C868 C869 1.338 . S
C868 N871 1.377 . S
C868 H888 0.930 . S
C869 N867 1.375 . S
C869 C868 1.338 . S
C869 H873 0.931 . S
C870 N867 1.313 . S
C870 N871 1.344 . S
C870 H874 0.930 . S
N871 C868 1.377 . S
N871 C870 1.344 . S
O872 Co864 2.055 . S
O872 C876 1.253 . S
H873 C869 0.931 . S
H874 C870 0.930 . S
O875 Co864 2.039 . S
O875 C865 1.265 . S
C876 O872 1.253 . S
C876 O877 1.227 . S
O877 C876 1.227 . S
N878 Co864 2.140 . S
N878 C881 1.346 . S
N878 C882 1.345 . S
C879 C880 1.387 . S
C879 C883 1.391 . S
C880 C879 1.387 . S
C880 C881 1.369 . S
C880 H889 0.929 . S
C881 N878 1.346 . S
C881 C880 1.369 . S
C881 H884 0.928 . S
C882 N878 1.345 . S
C882 C883 1.371 . S
C882 H885 0.931 . S
C883 C879 1.391 . S
C883 C882 1.371 . S
C883 H890 0.930 . S
H884 C881 0.928 . S
H885 C882 0.931 . S
H886 C862 0.930 . S
H887 C859 0.930 . S
H888 C868 0.930 . S
H889 C880 0.929 . S
H890 C883 0.930 . S
C891 C892 1.351 . S
C891 N894 1.368 . S
C891 H896 0.931 . S
C892 C891 1.351 . S
C892 N893 1.373 . S
C892 H920 0.930 1_655 S
N893 C892 1.373 . S
N893 C895 1.340 . S
N894 C891 1.368 . S
N894 C895 1.321 . S
N894 Co897 2.135 . S
C895 N893 1.340 . S
C895 N894 1.321 . S
C895 H919 0.930 . S
H896 C891 0.931 . S
Co897 N894 2.135 . S
Co897 N900 2.121 . S
Co897 O905 2.055 . S
Co897 O908 2.039 . S
Co897 N911 2.140 . S
C898 O899 1.227 . S
C898 O908 1.265 . S
O899 C898 1.227 . S
N900 Co897 2.121 . S
N900 C902 1.375 . S
N900 C903 1.313 . S
C901 C902 1.338 . S
C901 N904 1.377 . S
C901 H921 0.930 . S
C902 N900 1.375 . S
C902 C901 1.338 . S
C902 H906 0.931 . S
C903 N900 1.313 . S
C903 N904 1.344 . S
C903 H907 0.930 . S
N904 C901 1.377 . S
N904 C903 1.344 . S
O905 Co897 2.055 . S
O905 C909 1.253 . S
H906 C902 0.931 . S
H907 C903 0.930 . S
O908 Co897 2.039 . S
O908 C898 1.265 . S
C909 O905 1.253 . S
C909 O910 1.227 . S
O910 C909 1.227 . S
N911 Co897 2.140 . S
N911 C914 1.346 . S
N911 C915 1.345 . S
C912 C913 1.387 . S
C912 C916 1.391 . S
C913 C912 1.387 . S
C913 C914 1.369 . S
C913 H922 0.929 . S
C914 N911 1.346 . S
C914 C913 1.369 . S
C914 H917 0.928 . S
C915 N911 1.345 . S
C915 C916 1.371 . S
C915 H918 0.931 . S
C916 C912 1.391 . S
C916 C915 1.371 . S
C916 H923 0.930 . S
H917 C914 0.928 . S
H918 C915 0.931 . S
H919 C895 0.930 . S
H920 C892 0.930 1_455 S
H921 C901 0.930 . S
H922 C913 0.929 . S
H923 C916 0.930 . S
C924 C925 1.351 . S
C924 N927 1.368 . S
C924 H929 0.931 . S
C925 C924 1.351 . S
C925 N926 1.373 . S
C925 H953 0.930 . S
N926 C925 1.373 . S
N926 C928 1.340 . S
N927 C924 1.368 . S
N927 C928 1.321 . S
N927 Co930 2.135 . S
C928 N926 1.340 . S
C928 N927 1.321 . S
C928 H952 0.930 . S
H929 C924 0.931 . S
Co930 N927 2.135 . S
Co930 N933 2.121 . S
Co930 O938 2.055 . S
Co930 O941 2.039 . S
Co930 N944 2.140 . S
C931 O932 1.227 . S
C931 O941 1.265 . S
O932 C931 1.227 . S
N933 Co930 2.121 . S
N933 C935 1.375 . S
N933 C936 1.313 . S
C934 C935 1.338 . S
C934 N937 1.377 . S
C934 H954 0.930 . S
C935 N933 1.375 . S
C935 C934 1.338 . S
C935 H939 0.931 . S
C936 N933 1.313 . S
C936 N937 1.344 . S
C936 H940 0.930 . S
N937 C934 1.377 . S
N937 C936 1.344 . S
O938 Co930 2.055 . S
O938 C942 1.253 . S
H939 C935 0.931 . S
H940 C936 0.930 . S
O941 Co930 2.039 . S
O941 C931 1.265 . S
C942 O938 1.253 . S
C942 O943 1.227 . S
O943 C942 1.227 . S
N944 Co930 2.140 . S
N944 C947 1.346 . S
N944 C948 1.345 . S
C945 C946 1.387 . S
C945 C949 1.391 . S
C946 C945 1.387 . S
C946 C947 1.369 . S
C946 H955 0.929 . S
C947 N944 1.346 . S
C947 C946 1.369 . S
C947 H950 0.928 . S
C948 N944 1.345 . S
C948 C949 1.371 . S
C948 H951 0.931 . S
C949 C945 1.391 . S
C949 C948 1.371 . S
C949 H956 0.930 . S
H950 C947 0.928 . S
H951 C948 0.931 . S
H952 C928 0.930 . S
H953 C925 0.930 . S
H954 C934 0.930 . S
H955 C946 0.929 . S
H956 C949 0.930 . S
C957 C958 1.351 . S
C957 N960 1.368 . S
C957 H962 0.931 . S
C958 C957 1.351 . S
C958 N959 1.373 . S
C958 H986 0.930 1_655 S
N959 C958 1.373 . S
N959 C961 1.340 . S
N960 C957 1.368 . S
N960 C961 1.321 . S
N960 Co963 2.135 . S
C961 N959 1.340 . S
C961 N960 1.321 . S
C961 H985 0.930 . S
H962 C957 0.931 . S
Co963 N960 2.135 . S
Co963 N966 2.121 . S
Co963 O971 2.055 1_556 S
Co963 O974 2.039 1_556 S
Co963 N977 2.140 . S
C964 O965 1.227 . S
C964 O974 1.265 1_556 S
O965 C964 1.227 . S
N966 Co963 2.121 . S
N966 C968 1.375 . S
N966 C969 1.313 1_556 S
C967 C968 1.338 . S
C967 N970 1.377 1_556 S
C967 H987 0.930 1_556 S
C968 N966 1.375 . S
C968 C967 1.338 . S
C968 H972 0.931 . S
C969 N966 1.313 1_554 S
C969 N970 1.344 . S
C969 H973 0.930 . S
N970 C967 1.377 1_554 S
N970 C969 1.344 . S
O971 Co963 2.055 1_554 S
O971 C975 1.253 1_554 S
H972 C968 0.931 . S
H973 C969 0.930 . S
O974 Co963 2.039 1_554 S
O974 C964 1.265 1_554 S
C975 O971 1.253 1_556 S
C975 O976 1.227 . S
O976 C975 1.227 . S
N977 Co963 2.140 . S
N977 C980 1.346 . S
N977 C981 1.345 . S
C978 C979 1.387 . S
C978 C982 1.391 . S
C979 C978 1.387 . S
C979 C980 1.369 . S
C979 H988 0.929 . S
C980 N977 1.346 . S
C980 C979 1.369 . S
C980 H983 0.928 . S
C981 N977 1.345 . S
C981 C982 1.371 . S
C981 H984 0.931 . S
C982 C978 1.391 . S
C982 C981 1.371 . S
C982 H989 0.930 . S
H983 C980 0.928 . S
H984 C981 0.931 . S
H985 C961 0.930 . S
H986 C958 0.930 1_455 S
H987 C967 0.930 1_554 S
H988 C979 0.929 . S
H989 C982 0.930 . S
C990 C991 1.351 . S
C990 N993 1.368 . S
C990 H995 0.931 . S
C991 C990 1.351 . S
C991 N992 1.373 . S
C991 H1019 0.930 . S
N992 C991 1.373 . S
N992 C994 1.340 . S
N993 C990 1.368 . S
N993 C994 1.321 . S
N993 Co996 2.135 . S
C994 N992 1.340 . S
C994 N993 1.321 . S
C994 H1018 0.930 . S
H995 C990 0.931 . S
Co996 N993 2.135 . S
Co996 N999 2.121 . S
Co996 O1004 2.055 . S
Co996 O1007 2.039 . S
Co996 N1010 2.140 . S
C997 O998 1.227 . S
C997 O1007 1.265 . S
O998 C997 1.227 . S
N999 Co996 2.121 . S
N999 C1001 1.375 . S
N999 C1002 1.313 . S
C1000 C1001 1.338 . S
C1000 N1003 1.377 . S
C1000 H1020 0.930 . S
C1001 N999 1.375 . S
C1001 C1000 1.338 . S
C1001 H1005 0.931 . S
C1002 N999 1.313 . S
C1002 N1003 1.344 . S
C1002 H1006 0.930 . S
N1003 C1000 1.377 . S
N1003 C1002 1.344 . S
O1004 Co996 2.055 . S
O1004 C1008 1.253 . S
H1005 C1001 0.931 . S
H1006 C1002 0.930 . S
O1007 Co996 2.039 . S
O1007 C997 1.265 . S
C1008 O1004 1.253 . S
C1008 O1009 1.227 . S
O1009 C1008 1.227 . S
N1010 Co996 2.140 . S
N1010 C1013 1.346 . S
N1010 C1014 1.345 . S
C1011 C1012 1.387 . S
C1011 C1015 1.391 . S
C1012 C1011 1.387 . S
C1012 C1013 1.369 . S
C1012 H1021 0.929 . S
C1013 N1010 1.346 . S
C1013 C1012 1.369 . S
C1013 H1016 0.928 . S
C1014 N1010 1.345 . S
C1014 C1015 1.371 . S
C1014 H1017 0.931 . S
C1015 C1011 1.391 . S
C1015 C1014 1.371 . S
C1015 H1022 0.930 . S
H1016 C1013 0.928 . S
H1017 C1014 0.931 . S
H1018 C994 0.930 . S
H1019 C991 0.930 . S
H1020 C1000 0.930 . S
H1021 C1012 0.929 . S
H1022 C1015 0.930 . S
C1023 C1024 1.351 . S
C1023 N1026 1.368 . S
C1023 H1028 0.931 . S
C1024 C1023 1.351 . S
C1024 N1025 1.373 . S
C1024 H1052 0.930 . S
N1025 C1024 1.373 . S
N1025 C1027 1.340 . S
N1026 C1023 1.368 . S
N1026 C1027 1.321 . S
N1026 Co1029 2.135 . S
C1027 N1025 1.340 . S
C1027 N1026 1.321 . S
C1027 H1051 0.930 . S
H1028 C1023 0.931 . S
Co1029 N1026 2.135 . S
Co1029 N1032 2.121 . S
Co1029 O1037 2.055 . S
Co1029 O1040 2.039 . S
Co1029 N1043 2.140 . S
C1030 O1031 1.227 . S
C1030 O1040 1.265 . S
O1031 C1030 1.227 . S
N1032 Co1029 2.121 . S
N1032 C1034 1.375 . S
N1032 C1035 1.313 . S
C1033 C1034 1.338 . S
C1033 N1036 1.377 . S
C1033 H1053 0.930 . S
C1034 N1032 1.375 . S
C1034 C1033 1.338 . S
C1034 H1038 0.931 . S
C1035 N1032 1.313 . S
C1035 N1036 1.344 . S
C1035 H1039 0.930 . S
N1036 C1033 1.377 . S
N1036 C1035 1.344 . S
O1037 Co1029 2.055 . S
O1037 C1041 1.253 . S
H1038 C1034 0.931 . S
H1039 C1035 0.930 . S
O1040 Co1029 2.039 . S
O1040 C1030 1.265 . S
C1041 O1037 1.253 . S
C1041 O1042 1.227 . S
O1042 C1041 1.227 . S
N1043 Co1029 2.140 . S
N1043 C1046 1.346 . S
N1043 C1047 1.345 . S
C1044 C1045 1.387 . S
C1044 C1048 1.391 . S
C1045 C1044 1.387 . S
C1045 C1046 1.369 . S
C1045 H1054 0.929 . S
C1046 N1043 1.346 . S
C1046 C1045 1.369 . S
C1046 H1049 0.928 . S
C1047 N1043 1.345 . S
C1047 C1048 1.371 . S
C1047 H1050 0.931 . S
C1048 C1044 1.391 . S
C1048 C1047 1.371 . S
C1048 H1055 0.930 . S
H1049 C1046 0.928 . S
H1050 C1047 0.931 . S
H1051 C1027 0.930 . S
H1052 C1024 0.930 . S
H1053 C1033 0.930 . S
H1054 C1045 0.929 . S
H1055 C1048 0.930 . S
C1056 C1057 1.351 . S
C1056 N1059 1.368 . S
C1056 H1061 0.931 . S
C1057 C1056 1.351 . S
C1057 N1058 1.373 . S
C1057 H1085 0.930 . S
N1058 C1057 1.373 . S
N1058 C1060 1.340 . S
N1059 C1056 1.368 . S
N1059 C1060 1.321 . S
N1059 Co1062 2.135 . S
C1060 N1058 1.340 . S
C1060 N1059 1.321 . S
C1060 H1084 0.930 . S
H1061 C1056 0.931 . S
Co1062 N1059 2.135 . S
Co1062 N1065 2.121 . S
Co1062 O1070 2.055 . S
Co1062 O1073 2.039 . S
Co1062 N1076 2.140 . S
C1063 O1064 1.227 . S
C1063 O1073 1.265 . S
O1064 C1063 1.227 . S
N1065 Co1062 2.121 . S
N1065 C1067 1.375 . S
N1065 C1068 1.313 . S
C1066 C1067 1.338 . S
C1066 N1069 1.377 . S
C1066 H1086 0.930 . S
C1067 N1065 1.375 . S
C1067 C1066 1.338 . S
C1067 H1071 0.931 . S
C1068 N1065 1.313 . S
C1068 N1069 1.344 . S
C1068 H1072 0.930 . S
N1069 C1066 1.377 . S
N1069 C1068 1.344 . S
O1070 Co1062 2.055 . S
O1070 C1074 1.253 . S
H1071 C1067 0.931 . S
H1072 C1068 0.930 . S
O1073 Co1062 2.039 . S
O1073 C1063 1.265 . S
C1074 O1070 1.253 . S
C1074 O1075 1.227 . S
O1075 C1074 1.227 . S
N1076 Co1062 2.140 . S
N1076 C1079 1.346 . S
N1076 C1080 1.345 . S
C1077 C1078 1.387 . S
C1077 C1081 1.391 . S
C1078 C1077 1.387 . S
C1078 C1079 1.369 . S
C1078 H1087 0.929 . S
C1079 N1076 1.346 . S
C1079 C1078 1.369 . S
C1079 H1082 0.928 . S
C1080 N1076 1.345 . S
C1080 C1081 1.371 . S
C1080 H1083 0.931 . S
C1081 C1077 1.391 . S
C1081 C1080 1.371 . S
C1081 H1088 0.930 . S
H1082 C1079 0.928 . S
H1083 C1080 0.931 . S
H1084 C1060 0.930 . S
H1085 C1057 0.930 . S
H1086 C1066 0.930 . S
H1087 C1078 0.929 . S
H1088 C1081 0.930 . S
C1089 C1090 1.351 . S
C1089 N1092 1.368 . S
C1089 H1094 0.931 . S
C1090 C1089 1.351 . S
C1090 N1091 1.373 . S
C1090 H1118 0.930 1_556 S
N1091 C1090 1.373 . S
N1091 C1093 1.340 . S
N1092 C1089 1.368 . S
N1092 C1093 1.321 . S
N1092 Co1095 2.135 . S
C1093 N1091 1.340 . S
C1093 N1092 1.321 . S
C1093 H1117 0.930 . S
H1094 C1089 0.931 . S
Co1095 N1092 2.135 . S
Co1095 N1098 2.121 . S
Co1095 O1103 2.055 . S
Co1095 O1106 2.039 . S
Co1095 N1109 2.140 . S
C1096 O1097 1.227 . S
C1096 O1106 1.265 . S
O1097 C1096 1.227 . S
N1098 Co1095 2.121 . S
N1098 C1100 1.375 . S
N1098 C1101 1.313 . S
C1099 C1100 1.338 . S
C1099 N1102 1.377 . S
C1099 H1119 0.930 . S
C1100 N1098 1.375 . S
C1100 C1099 1.338 . S
C1100 H1104 0.931 . S
C1101 N1098 1.313 . S
C1101 N1102 1.344 . S
C1101 H1105 0.930 . S
N1102 C1099 1.377 . S
N1102 C1101 1.344 . S
O1103 Co1095 2.055 . S
O1103 C1107 1.253 . S
H1104 C1100 0.931 . S
H1105 C1101 0.930 . S
O1106 Co1095 2.039 . S
O1106 C1096 1.265 . S
C1107 O1103 1.253 . S
C1107 O1108 1.227 . S
O1108 C1107 1.227 . S
N1109 Co1095 2.140 . S
N1109 C1112 1.346 . S
N1109 C1113 1.345 . S
C1110 C1111 1.387 . S
C1110 C1114 1.391 . S
C1111 C1110 1.387 . S
C1111 C1112 1.369 . S
C1111 H1120 0.929 . S
C1112 N1109 1.346 . S
C1112 C1111 1.369 . S
C1112 H1115 0.928 . S
C1113 N1109 1.345 . S
C1113 C1114 1.371 . S
C1113 H1116 0.931 . S
C1114 C1110 1.391 . S
C1114 C1113 1.371 . S
C1114 H1121 0.930 . S
H1115 C1112 0.928 . S
H1116 C1113 0.931 . S
H1117 C1093 0.930 . S
H1118 C1090 0.930 1_554 S
H1119 C1099 0.930 . S
H1120 C1111 0.929 . S
H1121 C1114 0.930 . S
C1122 C1123 1.351 . S
C1122 N1125 1.368 . S
C1122 H1127 0.931 . S
C1123 C1122 1.351 . S
C1123 N1124 1.373 . S
C1123 H1151 0.930 . S
N1124 C1123 1.373 . S
N1124 C1126 1.340 . S
N1125 C1122 1.368 . S
N1125 C1126 1.321 . S
N1125 Co1128 2.135 . S
C1126 N1124 1.340 . S
C1126 N1125 1.321 . S
C1126 H1150 0.930 . S
H1127 C1122 0.931 . S
Co1128 N1125 2.135 . S
Co1128 N1131 2.121 . S
Co1128 O1136 2.055 . S
Co1128 O1139 2.039 . S
Co1128 N1142 2.140 . S
C1129 O1130 1.227 . S
C1129 O1139 1.265 . S
O1130 C1129 1.227 . S
N1131 Co1128 2.121 . S
N1131 C1133 1.375 . S
N1131 C1134 1.313 . S
C1132 C1133 1.338 . S
C1132 N1135 1.377 . S
C1132 H1152 0.930 . S
C1133 N1131 1.375 . S
C1133 C1132 1.338 . S
C1133 H1137 0.931 . S
C1134 N1131 1.313 . S
C1134 N1135 1.344 . S
C1134 H1138 0.930 . S
N1135 C1132 1.377 . S
N1135 C1134 1.344 . S
O1136 Co1128 2.055 . S
O1136 C1140 1.253 . S
H1137 C1133 0.931 . S
H1138 C1134 0.930 . S
O1139 Co1128 2.039 . S
O1139 C1129 1.265 . S
C1140 O1136 1.253 . S
C1140 O1141 1.227 . S
O1141 C1140 1.227 . S
N1142 Co1128 2.140 . S
N1142 C1145 1.346 . S
N1142 C1146 1.345 . S
C1143 C1144 1.387 . S
C1143 C1147 1.391 . S
C1144 C1143 1.387 . S
C1144 C1145 1.369 . S
C1144 H1153 0.929 . S
C1145 N1142 1.346 . S
C1145 C1144 1.369 . S
C1145 H1148 0.928 . S
C1146 N1142 1.345 . S
C1146 C1147 1.371 . S
C1146 H1149 0.931 . S
C1147 C1143 1.391 . S
C1147 C1146 1.371 . S
C1147 H1154 0.930 . S
H1148 C1145 0.928 . S
H1149 C1146 0.931 . S
H1150 C1126 0.930 . S
H1151 C1123 0.930 . S
H1152 C1132 0.930 . S
H1153 C1144 0.929 . S
H1154 C1147 0.930 . S
C1155 C1156 1.351 . S
C1155 N1158 1.368 . S
C1155 H1160 0.931 . S
C1156 C1155 1.351 . S
C1156 N1157 1.373 . S
C1156 H1184 0.930 . S
N1157 C1156 1.373 . S
N1157 C1159 1.340 . S
N1158 C1155 1.368 . S
N1158 C1159 1.321 . S
N1158 Co1161 2.135 . S
C1159 N1157 1.340 . S
C1159 N1158 1.321 . S
C1159 H1183 0.930 . S
H1160 C1155 0.931 . S
Co1161 N1158 2.135 . S
Co1161 N1164 2.121 . S
Co1161 O1169 2.055 . S
Co1161 O1172 2.039 . S
Co1161 N1175 2.140 . S
C1162 O1163 1.227 . S
C1162 O1172 1.265 . S
O1163 C1162 1.227 . S
N1164 Co1161 2.121 . S
N1164 C1166 1.375 . S
N1164 C1167 1.313 . S
C1165 C1166 1.338 . S
C1165 N1168 1.377 . S
C1165 H1185 0.930 . S
C1166 N1164 1.375 . S
C1166 C1165 1.338 . S
C1166 H1170 0.931 . S
C1167 N1164 1.313 . S
C1167 N1168 1.344 . S
C1167 H1171 0.930 . S
N1168 C1165 1.377 . S
N1168 C1167 1.344 . S
O1169 Co1161 2.055 . S
O1169 C1173 1.253 . S
H1170 C1166 0.931 . S
H1171 C1167 0.930 . S
O1172 Co1161 2.039 . S
O1172 C1162 1.265 . S
C1173 O1169 1.253 . S
C1173 O1174 1.227 . S
O1174 C1173 1.227 . S
N1175 Co1161 2.140 . S
N1175 C1178 1.346 . S
N1175 C1179 1.345 . S
C1176 C1177 1.387 . S
C1176 C1180 1.391 . S
C1177 C1176 1.387 . S
C1177 C1178 1.369 . S
C1177 H1186 0.929 . S
C1178 N1175 1.346 . S
C1178 C1177 1.369 . S
C1178 H1181 0.928 . S
C1179 N1175 1.345 . S
C1179 C1180 1.371 . S
C1179 H1182 0.931 . S
C1180 C1176 1.391 . S
C1180 C1179 1.371 . S
C1180 H1187 0.930 . S
H1181 C1178 0.928 . S
H1182 C1179 0.931 . S
H1183 C1159 0.930 . S
H1184 C1156 0.930 . S
H1185 C1165 0.930 . S
H1186 C1177 0.929 . S
H1187 C1180 0.930 . S
C1188 C1189 1.351 . S
C1188 N1191 1.368 . S
C1188 H1193 0.931 . S
C1189 C1188 1.351 . S
C1189 N1190 1.373 . S
C1189 H1217 0.930 . S
N1190 C1189 1.373 . S
N1190 C1192 1.340 . S
N1191 C1188 1.368 . S
N1191 C1192 1.321 . S
N1191 Co1194 2.135 . S
C1192 N1190 1.340 . S
C1192 N1191 1.321 . S
C1192 H1216 0.930 . S
H1193 C1188 0.931 . S
Co1194 N1191 2.135 . S
Co1194 N1197 2.121 . S
Co1194 O1202 2.055 . S
Co1194 O1205 2.039 . S
Co1194 N1208 2.140 . S
C1195 O1196 1.227 . S
C1195 O1205 1.265 . S
O1196 C1195 1.227 . S
N1197 Co1194 2.121 . S
N1197 C1199 1.375 . S
N1197 C1200 1.313 . S
C1198 C1199 1.338 . S
C1198 N1201 1.377 . S
C1198 H1218 0.930 . S
C1199 N1197 1.375 . S
C1199 C1198 1.338 . S
C1199 H1203 0.931 . S
C1200 N1197 1.313 . S
C1200 N1201 1.344 . S
C1200 H1204 0.930 . S
N1201 C1198 1.377 . S
N1201 C1200 1.344 . S
O1202 Co1194 2.055 . S
O1202 C1206 1.253 . S
H1203 C1199 0.931 . S
H1204 C1200 0.930 . S
O1205 Co1194 2.039 . S
O1205 C1195 1.265 . S
C1206 O1202 1.253 . S
C1206 O1207 1.227 . S
O1207 C1206 1.227 . S
N1208 Co1194 2.140 . S
N1208 C1211 1.346 . S
N1208 C1212 1.345 . S
C1209 C1210 1.387 . S
C1209 C1213 1.391 . S
C1210 C1209 1.387 . S
C1210 C1211 1.369 . S
C1210 H1219 0.929 . S
C1211 N1208 1.346 . S
C1211 C1210 1.369 . S
C1211 H1214 0.928 . S
C1212 N1208 1.345 . S
C1212 C1213 1.371 . S
C1212 H1215 0.931 . S
C1213 C1209 1.391 . S
C1213 C1212 1.371 . S
C1213 H1220 0.930 . S
H1214 C1211 0.928 . S
H1215 C1212 0.931 . S
H1216 C1192 0.930 . S
H1217 C1189 0.930 . S
H1218 C1198 0.930 . S
H1219 C1210 0.929 . S
H1220 C1213 0.930 . S
C1221 C1222 1.351 . S
C1221 N1224 1.368 . S
C1221 H1226 0.931 . S
C1222 C1221 1.351 . S
C1222 N1223 1.373 . S
C1222 H1250 0.930 1_554 S
N1223 C1222 1.373 . S
N1223 C1225 1.340 . S
N1224 C1221 1.368 . S
N1224 C1225 1.321 . S
N1224 Co1227 2.135 . S
C1225 N1223 1.340 . S
C1225 N1224 1.321 . S
C1225 H1249 0.930 . S
H1226 C1221 0.931 . S
Co1227 N1224 2.135 . S
Co1227 N1230 2.121 . S
Co1227 O1235 2.055 . S
Co1227 O1238 2.039 . S
Co1227 N1241 2.140 . S
C1228 O1229 1.227 . S
C1228 O1238 1.265 . S
O1229 C1228 1.227 . S
N1230 Co1227 2.121 . S
N1230 C1232 1.375 . S
N1230 C1233 1.313 . S
C1231 C1232 1.338 . S
C1231 N1234 1.377 . S
C1231 H1251 0.930 . S
C1232 N1230 1.375 . S
C1232 C1231 1.338 . S
C1232 H1236 0.931 . S
C1233 N1230 1.313 . S
C1233 N1234 1.344 . S
C1233 H1237 0.930 . S
N1234 C1231 1.377 . S
N1234 C1233 1.344 . S
O1235 Co1227 2.055 . S
O1235 C1239 1.253 . S
H1236 C1232 0.931 . S
H1237 C1233 0.930 . S
O1238 Co1227 2.039 . S
O1238 C1228 1.265 . S
C1239 O1235 1.253 . S
C1239 O1240 1.227 . S
O1240 C1239 1.227 . S
N1241 Co1227 2.140 . S
N1241 C1244 1.346 . S
N1241 C1245 1.345 . S
C1242 C1243 1.387 . S
C1242 C1246 1.391 . S
C1243 C1242 1.387 . S
C1243 C1244 1.369 . S
C1243 H1252 0.929 . S
C1244 N1241 1.346 . S
C1244 C1243 1.369 . S
C1244 H1247 0.928 . S
C1245 N1241 1.345 . S
C1245 C1246 1.371 . S
C1245 H1248 0.931 . S
C1246 C1242 1.391 . S
C1246 C1245 1.371 . S
C1246 H1253 0.930 . S
H1247 C1244 0.928 . S
H1248 C1245 0.931 . S
H1249 C1225 0.930 . S
H1250 C1222 0.930 1_556 S
H1251 C1231 0.930 . S
H1252 C1243 0.929 . S
H1253 C1246 0.930 . S
C1254 C1255 1.351 . S
C1254 N1257 1.368 . S
C1254 H1259 0.931 . S
C1255 C1254 1.351 . S
C1255 N1256 1.373 . S
C1255 H1283 0.930 . S
N1256 C1255 1.373 . S
N1256 C1258 1.340 . S
N1257 C1254 1.368 . S
N1257 C1258 1.321 . S
N1257 Co1260 2.135 . S
C1258 N1256 1.340 . S
C1258 N1257 1.321 . S
C1258 H1282 0.930 . S
H1259 C1254 0.931 . S
Co1260 N1257 2.135 . S
Co1260 N1263 2.121 . S
Co1260 O1268 2.055 . S
Co1260 O1271 2.039 . S
Co1260 N1274 2.140 . S
C1261 O1262 1.227 . S
C1261 O1271 1.265 . S
O1262 C1261 1.227 . S
N1263 Co1260 2.121 . S
N1263 C1265 1.375 . S
N1263 C1266 1.313 . S
C1264 C1265 1.338 . S
C1264 N1267 1.377 . S
C1264 H1284 0.930 . S
C1265 N1263 1.375 . S
C1265 C1264 1.338 . S
C1265 H1269 0.931 . S
C1266 N1263 1.313 . S
C1266 N1267 1.344 . S
C1266 H1270 0.930 . S
N1267 C1264 1.377 . S
N1267 C1266 1.344 . S
O1268 Co1260 2.055 . S
O1268 C1272 1.253 . S
H1269 C1265 0.931 . S
H1270 C1266 0.930 . S
O1271 Co1260 2.039 . S
O1271 C1261 1.265 . S
C1272 O1268 1.253 . S
C1272 O1273 1.227 . S
O1273 C1272 1.227 . S
N1274 Co1260 2.140 . S
N1274 C1277 1.346 . S
N1274 C1278 1.345 . S
C1275 C1276 1.387 . S
C1275 C1279 1.391 . S
C1276 C1275 1.387 . S
C1276 C1277 1.369 . S
C1276 H1285 0.929 . S
C1277 N1274 1.346 . S
C1277 C1276 1.369 . S
C1277 H1280 0.928 . S
C1278 N1274 1.345 . S
C1278 C1279 1.371 . S
C1278 H1281 0.931 . S
C1279 C1275 1.391 . S
C1279 C1278 1.371 . S
C1279 H1286 0.930 . S
H1280 C1277 0.928 . S
H1281 C1278 0.931 . S
H1282 C1258 0.930 . S
H1283 C1255 0.930 . S
H1284 C1264 0.930 . S
H1285 C1276 0.929 . S
H1286 C1279 0.930 . S
C1287 C1288 1.351 . S
C1287 N1290 1.368 . S
C1287 H1292 0.931 . S
C1288 C1287 1.351 . S
C1288 N1289 1.373 . S
C1288 H1316 0.930 . S
N1289 C1288 1.373 . S
N1289 C1291 1.340 . S
N1290 C1287 1.368 . S
N1290 C1291 1.321 . S
N1290 Co1293 2.135 . S
C1291 N1289 1.340 . S
C1291 N1290 1.321 . S
C1291 H1315 0.930 . S
H1292 C1287 0.931 . S
Co1293 N1290 2.135 . S
Co1293 N1296 2.121 . S
Co1293 O1301 2.055 . S
Co1293 O1304 2.039 . S
Co1293 N1307 2.140 . S
C1294 O1295 1.227 . S
C1294 O1304 1.265 . S
O1295 C1294 1.227 . S
N1296 Co1293 2.121 . S
N1296 C1298 1.375 . S
N1296 C1299 1.313 . S
C1297 C1298 1.338 . S
C1297 N1300 1.377 . S
C1297 H1317 0.930 . S
C1298 N1296 1.375 . S
C1298 C1297 1.338 . S
C1298 H1302 0.931 . S
C1299 N1296 1.313 . S
C1299 N1300 1.344 . S
C1299 H1303 0.930 . S
N1300 C1297 1.377 . S
N1300 C1299 1.344 . S
O1301 Co1293 2.055 . S
O1301 C1305 1.253 . S
H1302 C1298 0.931 . S
H1303 C1299 0.930 . S
O1304 Co1293 2.039 . S
O1304 C1294 1.265 . S
C1305 O1301 1.253 . S
C1305 O1306 1.227 . S
O1306 C1305 1.227 . S
N1307 Co1293 2.140 . S
N1307 C1310 1.346 . S
N1307 C1311 1.345 . S
C1308 C1309 1.387 . S
C1308 C1312 1.391 . S
C1309 C1308 1.387 . S
C1309 C1310 1.369 . S
C1309 H1318 0.929 . S
C1310 N1307 1.346 . S
C1310 C1309 1.369 . S
C1310 H1313 0.928 . S
C1311 N1307 1.345 . S
C1311 C1312 1.371 . S
C1311 H1314 0.931 . S
C1312 C1308 1.391 . S
C1312 C1311 1.371 . S
C1312 H1319 0.930 . S
H1313 C1310 0.928 . S
H1314 C1311 0.931 . S
H1315 C1291 0.930 . S
H1316 C1288 0.930 . S
H1317 C1297 0.930 . S
H1318 C1309 0.929 . S
H1319 C1312 0.930 . S
C1320 C1321 1.351 . S
C1320 N1323 1.368 . S
C1320 H1325 0.931 . S
C1321 C1320 1.351 . S
C1321 N1322 1.373 . S
C1321 H1349 0.930 . S
N1322 C1321 1.373 . S
N1322 C1324 1.340 . S
N1323 C1320 1.368 . S
N1323 C1324 1.321 . S
N1323 Co1326 2.135 . S
C1324 N1322 1.340 . S
C1324 N1323 1.321 . S
C1324 H1348 0.930 . S
H1325 C1320 0.931 . S
Co1326 N1323 2.135 . S
Co1326 N1329 2.121 . S
Co1326 O1334 2.055 . S
Co1326 O1337 2.039 . S
Co1326 N1340 2.140 . S
C1327 O1328 1.227 . S
C1327 O1337 1.265 . S
O1328 C1327 1.227 . S
N1329 Co1326 2.121 . S
N1329 C1331 1.375 . S
N1329 C1332 1.313 . S
C1330 C1331 1.338 . S
C1330 N1333 1.377 . S
C1330 H1350 0.930 . S
C1331 N1329 1.375 . S
C1331 C1330 1.338 . S
C1331 H1335 0.931 . S
C1332 N1329 1.313 . S
C1332 N1333 1.344 . S
C1332 H1336 0.930 . S
N1333 C1330 1.377 . S
N1333 C1332 1.344 . S
O1334 Co1326 2.055 . S
O1334 C1338 1.253 . S
H1335 C1331 0.931 . S
H1336 C1332 0.930 . S
O1337 Co1326 2.039 . S
O1337 C1327 1.265 . S
C1338 O1334 1.253 . S
C1338 O1339 1.227 . S
O1339 C1338 1.227 . S
N1340 Co1326 2.140 . S
N1340 C1343 1.346 . S
N1340 C1344 1.345 . S
C1341 C1342 1.387 . S
C1341 C1345 1.391 . S
C1342 C1341 1.387 . S
C1342 C1343 1.369 . S
C1342 H1351 0.929 . S
C1343 N1340 1.346 . S
C1343 C1342 1.369 . S
C1343 H1346 0.928 . S
C1344 N1340 1.345 . S
C1344 C1345 1.371 . S
C1344 H1347 0.931 . S
C1345 C1341 1.391 . S
C1345 C1344 1.371 . S
C1345 H1352 0.930 . S
H1346 C1343 0.928 . S
H1347 C1344 0.931 . S
H1348 C1324 0.930 . S
H1349 C1321 0.930 . S
H1350 C1330 0.930 . S
H1351 C1342 0.929 . S
H1352 C1345 0.930 . S
C1353 C1354 1.351 . S
C1353 N1356 1.368 . S
C1353 H1358 0.931 . S
C1354 C1353 1.351 . S
C1354 N1355 1.373 . S
C1354 H1382 0.930 . S
N1355 C1354 1.373 . S
N1355 C1357 1.340 . S
N1356 C1353 1.368 . S
N1356 C1357 1.321 . S
N1356 Co1359 2.135 . S
C1357 N1355 1.340 . S
C1357 N1356 1.321 . S
C1357 H1381 0.930 . S
H1358 C1353 0.931 . S
Co1359 N1356 2.135 . S
Co1359 N1362 2.121 . S
Co1359 O1367 2.055 . S
Co1359 O1370 2.039 . S
Co1359 N1373 2.140 . S
C1360 O1361 1.227 . S
C1360 O1370 1.265 . S
O1361 C1360 1.227 . S
N1362 Co1359 2.121 . S
N1362 C1364 1.375 . S
N1362 C1365 1.313 . S
C1363 C1364 1.338 . S
C1363 N1366 1.377 . S
C1363 H1383 0.930 . S
C1364 N1362 1.375 . S
C1364 C1363 1.338 . S
C1364 H1368 0.931 . S
C1365 N1362 1.313 . S
C1365 N1366 1.344 . S
C1365 H1369 0.930 . S
N1366 C1363 1.377 . S
N1366 C1365 1.344 . S
O1367 Co1359 2.055 . S
O1367 C1371 1.253 . S
H1368 C1364 0.931 . S
H1369 C1365 0.930 . S
O1370 Co1359 2.039 . S
O1370 C1360 1.265 . S
C1371 O1367 1.253 . S
C1371 O1372 1.227 . S
O1372 C1371 1.227 . S
N1373 Co1359 2.140 . S
N1373 C1376 1.346 . S
N1373 C1377 1.345 . S
C1374 C1375 1.387 . S
C1374 C1378 1.391 . S
C1375 C1374 1.387 . S
C1375 C1376 1.369 . S
C1375 H1384 0.929 . S
C1376 N1373 1.346 . S
C1376 C1375 1.369 . S
C1376 H1379 0.928 . S
C1377 N1373 1.345 . S
C1377 C1378 1.371 . S
C1377 H1380 0.931 . S
C1378 C1374 1.391 . S
C1378 C1377 1.371 . S
C1378 H1385 0.930 . S
H1379 C1376 0.928 . S
H1380 C1377 0.931 . S
H1381 C1357 0.930 . S
H1382 C1354 0.930 . S
H1383 C1363 0.930 . S
H1384 C1375 0.929 . S
H1385 C1378 0.930 . S
C1386 C1387 1.351 . S
C1386 N1389 1.368 . S
C1386 H1391 0.931 . S
C1387 C1386 1.351 . S
C1387 N1388 1.373 . S
C1387 H1415 0.930 1_565 S
N1388 C1387 1.373 . S
N1388 C1390 1.340 . S
N1389 C1386 1.368 . S
N1389 C1390 1.321 . S
N1389 Co1392 2.135 . S
C1390 N1388 1.340 . S
C1390 N1389 1.321 . S
C1390 H1414 0.930 . S
H1391 C1386 0.931 . S
Co1392 N1389 2.135 . S
Co1392 N1395 2.121 . S
Co1392 O1400 2.055 . S
Co1392 O1403 2.039 . S
Co1392 N1406 2.140 . S
C1393 O1394 1.227 . S
C1393 O1403 1.265 . S
O1394 C1393 1.227 . S
N1395 Co1392 2.121 . S
N1395 C1397 1.375 . S
N1395 C1398 1.313 . S
C1396 C1397 1.338 . S
C1396 N1399 1.377 . S
C1396 H1416 0.930 . S
C1397 N1395 1.375 . S
C1397 C1396 1.338 . S
C1397 H1401 0.931 . S
C1398 N1395 1.313 . S
C1398 N1399 1.344 . S
C1398 H1402 0.930 . S
N1399 C1396 1.377 . S
N1399 C1398 1.344 . S
O1400 Co1392 2.055 . S
O1400 C1404 1.253 . S
H1401 C1397 0.931 . S
H1402 C1398 0.930 . S
O1403 Co1392 2.039 . S
O1403 C1393 1.265 . S
C1404 O1400 1.253 . S
C1404 O1405 1.227 . S
O1405 C1404 1.227 . S
N1406 Co1392 2.140 . S
N1406 C1409 1.346 . S
N1406 C1410 1.345 . S
C1407 C1408 1.387 . S
C1407 C1411 1.391 . S
C1408 C1407 1.387 . S
C1408 C1409 1.369 . S
C1408 H1417 0.929 . S
C1409 N1406 1.346 . S
C1409 C1408 1.369 . S
C1409 H1412 0.928 . S
C1410 N1406 1.345 . S
C1410 C1411 1.371 . S
C1410 H1413 0.931 . S
C1411 C1407 1.391 . S
C1411 C1410 1.371 . S
C1411 H1418 0.930 . S
H1412 C1409 0.928 . S
H1413 C1410 0.931 . S
H1414 C1390 0.930 . S
H1415 C1387 0.930 1_545 S
H1416 C1396 0.930 . S
H1417 C1408 0.929 . S
H1418 C1411 0.930 . S
C1419 C1420 1.351 . S
C1419 N1422 1.368 . S
C1419 H1424 0.931 . S
C1420 C1419 1.351 . S
C1420 N1421 1.373 . S
C1420 H1448 0.930 . S
N1421 C1420 1.373 . S
N1421 C1423 1.340 . S
N1422 C1419 1.368 . S
N1422 C1423 1.321 . S
N1422 Co1425 2.135 . S
C1423 N1421 1.340 . S
C1423 N1422 1.321 . S
C1423 H1447 0.930 . S
H1424 C1419 0.931 . S
Co1425 N1422 2.135 . S
Co1425 N1428 2.121 . S
Co1425 O1433 2.055 . S
Co1425 O1436 2.039 . S
Co1425 N1439 2.140 . S
C1426 O1427 1.227 . S
C1426 O1436 1.265 . S
O1427 C1426 1.227 . S
N1428 Co1425 2.121 . S
N1428 C1430 1.375 . S
N1428 C1431 1.313 . S
C1429 C1430 1.338 . S
C1429 N1432 1.377 . S
C1429 H1449 0.930 . S
C1430 N1428 1.375 . S
C1430 C1429 1.338 . S
C1430 H1434 0.931 . S
C1431 N1428 1.313 . S
C1431 N1432 1.344 . S
C1431 H1435 0.930 . S
N1432 C1429 1.377 . S
N1432 C1431 1.344 . S
O1433 Co1425 2.055 . S
O1433 C1437 1.253 . S
H1434 C1430 0.931 . S
H1435 C1431 0.930 . S
O1436 Co1425 2.039 . S
O1436 C1426 1.265 . S
C1437 O1433 1.253 . S
C1437 O1438 1.227 . S
O1438 C1437 1.227 . S
N1439 Co1425 2.140 . S
N1439 C1442 1.346 . S
N1439 C1443 1.345 . S
C1440 C1441 1.387 . S
C1440 C1444 1.391 . S
C1441 C1440 1.387 . S
C1441 C1442 1.369 . S
C1441 H1450 0.929 . S
C1442 N1439 1.346 . S
C1442 C1441 1.369 . S
C1442 H1445 0.928 . S
C1443 N1439 1.345 . S
C1443 C1444 1.371 . S
C1443 H1446 0.931 . S
C1444 C1440 1.391 . S
C1444 C1443 1.371 . S
C1444 H1451 0.930 . S
H1445 C1442 0.928 . S
H1446 C1443 0.931 . S
H1447 C1423 0.930 . S
H1448 C1420 0.930 . S
H1449 C1429 0.930 . S
H1450 C1441 0.929 . S
H1451 C1444 0.930 . S
C1452 C1453 1.351 . S
C1452 N1455 1.368 . S
C1452 H1457 0.931 . S
C1453 C1452 1.351 . S
C1453 N1454 1.373 . S
C1453 H1481 0.930 . S
N1454 C1453 1.373 . S
N1454 C1456 1.340 . S
N1455 C1452 1.368 . S
N1455 C1456 1.321 . S
N1455 Co1458 2.135 . S
C1456 N1454 1.340 . S
C1456 N1455 1.321 . S
C1456 H1480 0.930 . S
H1457 C1452 0.931 . S
Co1458 N1455 2.135 . S
Co1458 N1461 2.121 . S
Co1458 O1466 2.055 . S
Co1458 O1469 2.039 . S
Co1458 N1472 2.140 . S
C1459 O1460 1.227 . S
C1459 O1469 1.265 . S
O1460 C1459 1.227 . S
N1461 Co1458 2.121 . S
N1461 C1463 1.375 . S
N1461 C1464 1.313 . S
C1462 C1463 1.338 . S
C1462 N1465 1.377 . S
C1462 H1482 0.930 . S
C1463 N1461 1.375 . S
C1463 C1462 1.338 . S
C1463 H1467 0.931 . S
C1464 N1461 1.313 . S
C1464 N1465 1.344 . S
C1464 H1468 0.930 . S
N1465 C1462 1.377 . S
N1465 C1464 1.344 . S
O1466 Co1458 2.055 . S
O1466 C1470 1.253 . S
H1467 C1463 0.931 . S
H1468 C1464 0.930 . S
O1469 Co1458 2.039 . S
O1469 C1459 1.265 . S
C1470 O1466 1.253 . S
C1470 O1471 1.227 . S
O1471 C1470 1.227 . S
N1472 Co1458 2.140 . S
N1472 C1475 1.346 . S
N1472 C1476 1.345 . S
C1473 C1474 1.387 . S
C1473 C1477 1.391 . S
C1474 C1473 1.387 . S
C1474 C1475 1.369 . S
C1474 H1483 0.929 . S
C1475 N1472 1.346 . S
C1475 C1474 1.369 . S
C1475 H1478 0.928 . S
C1476 N1472 1.345 . S
C1476 C1477 1.371 . S
C1476 H1479 0.931 . S
C1477 C1473 1.391 . S
C1477 C1476 1.371 . S
C1477 H1484 0.930 . S
H1478 C1475 0.928 . S
H1479 C1476 0.931 . S
H1480 C1456 0.930 . S
H1481 C1453 0.930 . S
H1482 C1462 0.930 . S
H1483 C1474 0.929 . S
H1484 C1477 0.930 . S
C1485 C1486 1.351 . S
C1485 N1488 1.368 . S
C1485 H1490 0.931 . S
C1486 C1485 1.351 . S
C1486 N1487 1.373 . S
C1486 H1514 0.930 . S
N1487 C1486 1.373 . S
N1487 C1489 1.340 . S
N1488 C1485 1.368 . S
N1488 C1489 1.321 . S
N1488 Co1491 2.135 . S
C1489 N1487 1.340 . S
C1489 N1488 1.321 . S
C1489 H1513 0.930 . S
H1490 C1485 0.931 . S
Co1491 N1488 2.135 . S
Co1491 N1494 2.121 . S
Co1491 O1499 2.055 . S
Co1491 O1502 2.039 . S
Co1491 N1505 2.140 . S
C1492 O1493 1.227 . S
C1492 O1502 1.265 . S
O1493 C1492 1.227 . S
N1494 Co1491 2.121 . S
N1494 C1496 1.375 . S
N1494 C1497 1.313 . S
C1495 C1496 1.338 . S
C1495 N1498 1.377 . S
C1495 H1515 0.930 . S
C1496 N1494 1.375 . S
C1496 C1495 1.338 . S
C1496 H1500 0.931 . S
C1497 N1494 1.313 . S
C1497 N1498 1.344 . S
C1497 H1501 0.930 . S
N1498 C1495 1.377 . S
N1498 C1497 1.344 . S
O1499 Co1491 2.055 . S
O1499 C1503 1.253 . S
H1500 C1496 0.931 . S
H1501 C1497 0.930 . S
O1502 Co1491 2.039 . S
O1502 C1492 1.265 . S
C1503 O1499 1.253 . S
C1503 O1504 1.227 . S
O1504 C1503 1.227 . S
N1505 Co1491 2.140 . S
N1505 C1508 1.346 . S
N1505 C1509 1.345 . S
C1506 C1507 1.387 . S
C1506 C1510 1.391 . S
C1507 C1506 1.387 . S
C1507 C1508 1.369 . S
C1507 H1516 0.929 . S
C1508 N1505 1.346 . S
C1508 C1507 1.369 . S
C1508 H1511 0.928 . S
C1509 N1505 1.345 . S
C1509 C1510 1.371 . S
C1509 H1512 0.931 . S
C1510 C1506 1.391 . S
C1510 C1509 1.371 . S
C1510 H1517 0.930 . S
H1511 C1508 0.928 . S
H1512 C1509 0.931 . S
H1513 C1489 0.930 . S
H1514 C1486 0.930 . S
H1515 C1495 0.930 . S
H1516 C1507 0.929 . S
H1517 C1510 0.930 . S
C1518 C1519 1.351 . S
C1518 N1521 1.368 . S
C1518 H1523 0.931 . S
C1519 C1518 1.351 . S
C1519 N1520 1.373 . S
C1519 H1547 0.930 1_545 S
N1520 C1519 1.373 . S
N1520 C1522 1.340 . S
N1521 C1518 1.368 . S
N1521 C1522 1.321 . S
N1521 Co1524 2.135 . S
C1522 N1520 1.340 . S
C1522 N1521 1.321 . S
C1522 H1546 0.930 . S
H1523 C1518 0.931 . S
Co1524 N1521 2.135 . S
Co1524 N1527 2.121 . S
Co1524 O1532 2.055 . S
Co1524 O1535 2.039 . S
Co1524 N1538 2.140 . S
C1525 O1526 1.227 . S
C1525 O1535 1.265 . S
O1526 C1525 1.227 . S
N1527 Co1524 2.121 . S
N1527 C1529 1.375 . S
N1527 C1530 1.313 . S
C1528 C1529 1.338 . S
C1528 N1531 1.377 . S
C1528 H1548 0.930 . S
C1529 N1527 1.375 . S
C1529 C1528 1.338 . S
C1529 H1533 0.931 . S
C1530 N1527 1.313 . S
C1530 N1531 1.344 . S
C1530 H1534 0.930 . S
N1531 C1528 1.377 . S
N1531 C1530 1.344 . S
O1532 Co1524 2.055 . S
O1532 C1536 1.253 . S
H1533 C1529 0.931 . S
H1534 C1530 0.930 . S
O1535 Co1524 2.039 . S
O1535 C1525 1.265 . S
C1536 O1532 1.253 . S
C1536 O1537 1.227 . S
O1537 C1536 1.227 . S
N1538 Co1524 2.140 . S
N1538 C1541 1.346 . S
N1538 C1542 1.345 . S
C1539 C1540 1.387 . S
C1539 C1543 1.391 . S
C1540 C1539 1.387 . S
C1540 C1541 1.369 . S
C1540 H1549 0.929 . S
C1541 N1538 1.346 . S
C1541 C1540 1.369 . S
C1541 H1544 0.928 . S
C1542 N1538 1.345 . S
C1542 C1543 1.371 . S
C1542 H1545 0.931 . S
C1543 C1539 1.391 . S
C1543 C1542 1.371 . S
C1543 H1550 0.930 . S
H1544 C1541 0.928 . S
H1545 C1542 0.931 . S
H1546 C1522 0.930 . S
H1547 C1519 0.930 1_565 S
H1548 C1528 0.930 . S
H1549 C1540 0.929 . S
H1550 C1543 0.930 . S
C1551 C1552 1.351 . S
C1551 N1554 1.368 . S
C1551 H1556 0.931 . S
C1552 C1551 1.351 . S
C1552 N1553 1.373 . S
C1552 H1580 0.930 1_565 S
N1553 C1552 1.373 . S
N1553 C1555 1.340 . S
N1554 C1551 1.368 . S
N1554 C1555 1.321 . S
N1554 Co1557 2.135 . S
C1555 N1553 1.340 . S
C1555 N1554 1.321 . S
C1555 H1579 0.930 . S
H1556 C1551 0.931 . S
Co1557 N1554 2.135 . S
Co1557 N1560 2.121 . S
Co1557 O1565 2.055 1_655 S
Co1557 O1568 2.039 1_655 S
Co1557 N1571 2.140 . S
C1558 O1559 1.227 . S
C1558 O1568 1.265 1_655 S
O1559 C1558 1.227 . S
N1560 Co1557 2.121 . S
N1560 C1562 1.375 . S
N1560 C1563 1.313 1_655 S
C1561 C1562 1.338 . S
C1561 N1564 1.377 1_655 S
C1561 H1581 0.930 1_655 S
C1562 N1560 1.375 . S
C1562 C1561 1.338 . S
C1562 H1566 0.931 . S
C1563 N1560 1.313 1_455 S
C1563 N1564 1.344 . S
C1563 H1567 0.930 . S
N1564 C1561 1.377 1_455 S
N1564 C1563 1.344 . S
O1565 Co1557 2.055 1_455 S
O1565 C1569 1.253 1_455 S
H1566 C1562 0.931 . S
H1567 C1563 0.930 . S
O1568 Co1557 2.039 1_455 S
O1568 C1558 1.265 1_455 S
C1569 O1565 1.253 1_655 S
C1569 O1570 1.227 . S
O1570 C1569 1.227 . S
N1571 Co1557 2.140 . S
N1571 C1574 1.346 . S
N1571 C1575 1.345 . S
C1572 C1573 1.387 . S
C1572 C1576 1.391 . S
C1573 C1572 1.387 . S
C1573 C1574 1.369 . S
C1573 H1582 0.929 . S
C1574 N1571 1.346 . S
C1574 C1573 1.369 . S
C1574 H1577 0.928 . S
C1575 N1571 1.345 . S
C1575 C1576 1.371 . S
C1575 H1578 0.931 . S
C1576 C1572 1.391 . S
C1576 C1575 1.371 . S
C1576 H1583 0.930 . S
H1577 C1574 0.928 . S
H1578 C1575 0.931 . S
H1579 C1555 0.930 . S
H1580 C1552 0.930 1_545 S
H1581 C1561 0.930 1_455 S
H1582 C1573 0.929 . S
H1583 C1576 0.930 . S
C1584 C1585 1.363 . S
C1584 C1590 1.379 . S
C1584 N1592 1.356 . S
C1585 C1584 1.363 . S
C1585 C1591 1.363 . S
C1586 C1587 1.363 . S
C1586 C1591 1.379 . S
C1586 N1593 1.356 . S
C1587 C1586 1.363 . S
C1587 C1590 1.363 . S
N1588 C1590 1.356 1_655 S
N1588 H1600 0.984 . S
N1588 H1601 0.985 . S
N1589 C1591 1.356 . S
N1589 H1594 0.984 . S
N1589 H1595 0.985 . S
C1590 C1584 1.379 . S
C1590 C1587 1.363 . S
C1590 N1588 1.356 1_455 S
C1591 C1585 1.363 . S
C1591 C1586 1.379 . S
C1591 N1589 1.356 . S
N1592 C1584 1.356 . S
N1592 H1598 0.984 . S
N1592 H1599 0.984 . S
N1593 C1586 1.356 . S
N1593 H1596 0.984 . S
N1593 H1597 0.985 . S
H1594 N1589 0.984 . S
H1595 N1589 0.985 . S
H1596 N1593 0.984 . S
H1597 N1593 0.985 . S
H1598 N1592 0.984 . S
H1599 N1592 0.984 . S
H1600 N1588 0.984 . S
H1601 N1588 0.985 . S
C1602 C1603 1.363 . S
C1602 C1608 1.379 . S
C1602 N1610 1.356 . S
C1603 C1602 1.363 . S
C1603 C1609 1.363 . S
C1604 C1605 1.363 . S
C1604 C1609 1.379 . S
C1604 N1611 1.356 . S
C1605 C1604 1.363 . S
C1605 C1608 1.363 . S
N1606 C1608 1.356 . S
N1606 H1618 0.984 . S
N1606 H1619 0.985 . S
N1607 C1609 1.356 . S
N1607 H1612 0.984 . S
N1607 H1613 0.985 . S
C1608 C1602 1.379 . S
C1608 C1605 1.363 . S
C1608 N1606 1.356 . S
C1609 C1603 1.363 . S
C1609 C1604 1.379 . S
C1609 N1607 1.356 . S
N1610 C1602 1.356 . S
N1610 H1616 0.984 . S
N1610 H1617 0.984 . S
N1611 C1604 1.356 . S
N1611 H1614 0.984 . S
N1611 H1615 0.985 . S
H1612 N1607 0.984 . S
H1613 N1607 0.985 . S
H1614 N1611 0.984 . S
H1615 N1611 0.985 . S
H1616 N1610 0.984 . S
H1617 N1610 0.984 . S
H1618 N1606 0.984 . S
H1619 N1606 0.985 . S
C1620 C1621 1.363 . S
C1620 C1626 1.379 . S
C1620 N1628 1.356 . S
C1621 C1620 1.363 . S
C1621 C1627 1.363 . S
C1622 C1623 1.363 . S
C1622 C1627 1.379 . S
C1622 N1629 1.356 . S
C1623 C1622 1.363 . S
C1623 C1626 1.363 . S
N1624 C1626 1.356 . S
N1624 H1636 0.984 . S
N1624 H1637 0.985 . S
N1625 C1627 1.356 . S
N1625 H1630 0.984 . S
N1625 H1631 0.985 . S
C1626 C1620 1.379 . S
C1626 C1623 1.363 . S
C1626 N1624 1.356 . S
C1627 C1621 1.363 . S
C1627 C1622 1.379 . S
C1627 N1625 1.356 . S
N1628 C1620 1.356 . S
N1628 H1634 0.984 . S
N1628 H1635 0.984 . S
N1629 C1622 1.356 . S
N1629 H1632 0.984 . S
N1629 H1633 0.985 . S
H1630 N1625 0.984 . S
H1631 N1625 0.985 . S
H1632 N1629 0.984 . S
H1633 N1629 0.985 . S
H1634 N1628 0.984 . S
H1635 N1628 0.984 . S
H1636 N1624 0.984 . S
H1637 N1624 0.985 . S
C1638 C1639 1.363 . S
C1638 C1644 1.379 . S
C1638 N1646 1.356 1_556 S
C1639 C1638 1.363 . S
C1639 C1645 1.363 . S
C1640 C1641 1.363 . S
C1640 C1645 1.379 . S
C1640 N1647 1.356 . S
C1641 C1640 1.363 . S
C1641 C1644 1.363 . S
N1642 C1644 1.356 . S
N1642 H1654 0.984 . S
N1642 H1655 0.985 . S
N1643 C1645 1.356 . S
N1643 H1648 0.984 . S
N1643 H1649 0.985 . S
C1644 C1638 1.379 . S
C1644 C1641 1.363 . S
C1644 N1642 1.356 . S
C1645 C1639 1.363 . S
C1645 C1640 1.379 . S
C1645 N1643 1.356 . S
N1646 C1638 1.356 1_554 S
N1646 H1652 0.984 . S
N1646 H1653 0.984 . S
N1647 C1640 1.356 . S
N1647 H1650 0.984 . S
N1647 H1651 0.985 . S
H1648 N1643 0.984 . S
H1649 N1643 0.985 . S
H1650 N1647 0.984 . S
H1651 N1647 0.985 . S
H1652 N1646 0.984 . S
H1653 N1646 0.984 . S
H1654 N1642 0.984 . S
H1655 N1642 0.985 . S
C1656 C1657 1.363 . S
C1656 C1662 1.379 . S
C1656 N1664 1.356 . S
C1657 C1656 1.363 . S
C1657 C1663 1.363 . S
C1658 C1659 1.363 . S
C1658 C1663 1.379 . S
C1658 N1665 1.356 . S
C1659 C1658 1.363 . S
C1659 C1662 1.363 . S
N1660 C1662 1.356 . S
N1660 H1672 0.984 . S
N1660 H1673 0.985 . S
N1661 C1663 1.356 . S
N1661 H1666 0.984 . S
N1661 H1667 0.985 . S
C1662 C1656 1.379 . S
C1662 C1659 1.363 . S
C1662 N1660 1.356 . S
C1663 C1657 1.363 . S
C1663 C1658 1.379 . S
C1663 N1661 1.356 . S
N1664 C1656 1.356 . S
N1664 H1670 0.984 . S
N1664 H1671 0.984 . S
N1665 C1658 1.356 . S
N1665 H1668 0.984 1_455 S
N1665 H1669 0.985 . S
H1666 N1661 0.984 . S
H1667 N1661 0.985 . S
H1668 N1665 0.984 1_655 S
H1669 N1665 0.985 . S
H1670 N1664 0.984 . S
H1671 N1664 0.984 . S
H1672 N1660 0.984 . S
H1673 N1660 0.985 . S
C1674 C1675 1.363 . S
C1674 C1680 1.379 . S
C1674 N1682 1.356 . S
C1675 C1674 1.363 . S
C1675 C1681 1.363 . S
C1676 C1677 1.363 . S
C1676 C1681 1.379 . S
C1676 N1683 1.356 . S
C1677 C1676 1.363 . S
C1677 C1680 1.363 . S
N1678 C1680 1.356 . S
N1678 H1690 0.984 . S
N1678 H1691 0.985 . S
N1679 C1681 1.356 . S
N1679 H1684 0.984 . S
N1679 H1685 0.985 . S
C1680 C1674 1.379 . S
C1680 C1677 1.363 . S
C1680 N1678 1.356 . S
C1681 C1675 1.363 . S
C1681 C1676 1.379 . S
C1681 N1679 1.356 . S
N1682 C1674 1.356 . S
N1682 H1688 0.984 . S
N1682 H1689 0.984 . S
N1683 C1676 1.356 . S
N1683 H1686 0.984 . S
N1683 H1687 0.985 . S
H1684 N1679 0.984 . S
H1685 N1679 0.985 . S
H1686 N1683 0.984 . S
H1687 N1683 0.985 . S
H1688 N1682 0.984 . S
H1689 N1682 0.984 . S
H1690 N1678 0.984 . S
H1691 N1678 0.985 . S
C1692 C1693 1.363 . S
C1692 C1698 1.379 . S
C1692 N1700 1.356 . S
C1693 C1692 1.363 . S
C1693 C1699 1.363 . S
C1694 C1695 1.363 . S
C1694 C1699 1.379 . S
C1694 N1701 1.356 . S
C1695 C1694 1.363 . S
C1695 C1698 1.363 . S
N1696 C1698 1.356 . S
N1696 H1708 0.984 . S
N1696 H1709 0.985 . S
N1697 C1699 1.356 . S
N1697 H1702 0.984 . S
N1697 H1703 0.985 . S
C1698 C1692 1.379 . S
C1698 C1695 1.363 . S
C1698 N1696 1.356 . S
C1699 C1693 1.363 . S
C1699 C1694 1.379 . S
C1699 N1697 1.356 . S
N1700 C1692 1.356 . S
N1700 H1706 0.984 . S
N1700 H1707 0.984 . S
N1701 C1694 1.356 . S
N1701 H1704 0.984 . S
N1701 H1705 0.985 . S
H1702 N1697 0.984 . S
H1703 N1697 0.985 . S
H1704 N1701 0.984 . S
H1705 N1701 0.985 . S
H1706 N1700 0.984 . S
H1707 N1700 0.984 . S
H1708 N1696 0.984 . S
H1709 N1696 0.985 . S
C1710 C1711 1.363 . S
C1710 C1716 1.379 . S
C1710 N1718 1.356 1_554 S
C1711 C1710 1.363 . S
C1711 C1717 1.363 . S
C1712 C1713 1.363 . S
C1712 C1717 1.379 . S
C1712 N1719 1.356 . S
C1713 C1712 1.363 . S
C1713 C1716 1.363 . S
N1714 C1716 1.356 . S
N1714 H1726 0.984 . S
N1714 H1727 0.985 . S
N1715 C1717 1.356 . S
N1715 H1720 0.984 . S
N1715 H1721 0.985 . S
C1716 C1710 1.379 . S
C1716 C1713 1.363 . S
C1716 N1714 1.356 . S
C1717 C1711 1.363 . S
C1717 C1712 1.379 . S
C1717 N1715 1.356 . S
N1718 C1710 1.356 1_556 S
N1718 H1724 0.984 . S
N1718 H1725 0.984 . S
N1719 C1712 1.356 . S
N1719 H1722 0.984 . S
N1719 H1723 0.985 . S
H1720 N1715 0.984 . S
H1721 N1715 0.985 . S
H1722 N1719 0.984 . S
H1723 N1719 0.985 . S
H1724 N1718 0.984 . S
H1725 N1718 0.984 . S
H1726 N1714 0.984 . S
H1727 N1714 0.985 . S
C1728 C1729 1.363 . S
C1728 C1734 1.379 . S
C1728 N1736 1.356 . S
C1729 C1728 1.363 . S
C1729 C1735 1.363 . S
C1730 C1731 1.363 . S
C1730 C1735 1.379 . S
C1730 N1737 1.356 1_545 S
C1731 C1730 1.363 . S
C1731 C1734 1.363 . S
N1732 C1734 1.356 . S
N1732 H1744 0.984 . S
N1732 H1745 0.985 . S
N1733 C1735 1.356 . S
N1733 H1738 0.984 . S
N1733 H1739 0.985 . S
C1734 C1728 1.379 . S
C1734 C1731 1.363 . S
C1734 N1732 1.356 . S
C1735 C1729 1.363 . S
C1735 C1730 1.379 . S
C1735 N1733 1.356 . S
N1736 C1728 1.356 . S
N1736 H1742 0.984 . S
N1736 H1743 0.984 . S
N1737 C1730 1.356 1_565 S
N1737 H1740 0.984 . S
N1737 H1741 0.985 . S
H1738 N1733 0.984 . S
H1739 N1733 0.985 . S
H1740 N1737 0.984 . S
H1741 N1737 0.985 . S
H1742 N1736 0.984 . S
H1743 N1736 0.984 . S
H1744 N1732 0.984 . S
H1745 N1732 0.985 . S
C1746 C1747 1.363 . S
C1746 C1752 1.379 . S
C1746 N1754 1.356 1_565 S
C1747 C1746 1.363 . S
C1747 C1753 1.363 . S
C1748 C1749 1.363 . S
C1748 C1753 1.379 . S
C1748 N1755 1.356 . S
C1749 C1748 1.363 . S
C1749 C1752 1.363 . S
N1750 C1752 1.356 . S
N1750 H1762 0.984 . S
N1750 H1763 0.985 . S
N1751 C1753 1.356 . S
N1751 H1756 0.984 . S
N1751 H1757 0.985 . S
C1752 C1746 1.379 . S
C1752 C1749 1.363 . S
C1752 N1750 1.356 . S
C1753 C1747 1.363 . S
C1753 C1748 1.379 . S
C1753 N1751 1.356 . S
N1754 C1746 1.356 1_545 S
N1754 H1760 0.984 . S
N1754 H1761 0.984 . S
N1755 C1748 1.356 . S
N1755 H1758 0.984 . S
N1755 H1759 0.985 . S
H1756 N1751 0.984 . S
H1757 N1751 0.985 . S
H1758 N1755 0.984 . S
H1759 N1755 0.985 . S
H1760 N1754 0.984 . S
H1761 N1754 0.984 . S
H1762 N1750 0.984 . S
H1763 N1750 0.985 . S
C1764 C1765 1.363 . S
C1764 C1770 1.379 . S
C1764 N1772 1.356 . S
C1765 C1764 1.363 . S
C1765 C1771 1.363 . S
C1766 C1767 1.363 . S
C1766 C1771 1.379 . S
C1766 N1773 1.356 . S
C1767 C1766 1.363 . S
C1767 C1770 1.363 . S
N1768 C1770 1.356 . S
N1768 H1780 0.984 . S
N1768 H1781 0.985 . S
N1769 C1771 1.356 . S
N1769 H1774 0.984 1_565 S
N1769 H1775 0.985 . S
C1770 C1764 1.379 . S
C1770 C1767 1.363 . S
C1770 N1768 1.356 . S
C1771 C1765 1.363 . S
C1771 C1766 1.379 . S
C1771 N1769 1.356 . S
N1772 C1764 1.356 . S
N1772 H1778 0.984 . S
N1772 H1779 0.984 . S
N1773 C1766 1.356 . S
N1773 H1776 0.984 . S
N1773 H1777 0.985 . S
H1774 N1769 0.984 1_545 S
H1775 N1769 0.985 . S
H1776 N1773 0.984 . S
H1777 N1773 0.985 . S
H1778 N1772 0.984 . S
H1779 N1772 0.984 . S
H1780 N1768 0.984 . S
H1781 N1768 0.985 . S
C1782 C1783 1.363 . S
C1782 C1788 1.379 . S
C1782 N1790 1.356 . S
C1783 C1782 1.363 . S
C1783 C1789 1.363 . S
C1784 C1785 1.363 . S
C1784 C1789 1.379 . S
C1784 N1791 1.356 . S
C1785 C1784 1.363 . S
C1785 C1788 1.363 . S
N1786 C1788 1.356 . S
N1786 H1798 0.984 . S
N1786 H1799 0.985 . S
N1787 C1789 1.356 . S
N1787 H1792 0.984 . S
N1787 H1793 0.985 . S
C1788 C1782 1.379 . S
C1788 C1785 1.363 . S
C1788 N1786 1.356 . S
C1789 C1783 1.363 . S
C1789 C1784 1.379 . S
C1789 N1787 1.356 . S
N1790 C1782 1.356 . S
N1790 H1796 0.984 . S
N1790 H1797 0.984 . S
N1791 C1784 1.356 . S
N1791 H1794 0.984 . S
N1791 H1795 0.985 . S
H1792 N1787 0.984 . S
H1793 N1787 0.985 . S
H1794 N1791 0.984 . S
H1795 N1791 0.985 . S
H1796 N1790 0.984 . S
H1797 N1790 0.984 . S
H1798 N1786 0.984 . S
H1799 N1786 0.985 . S
C1800 C1801 1.363 . S
C1800 C1806 1.379 . S
C1800 N1808 1.356 . S
C1801 C1800 1.363 . S
C1801 C1807 1.363 . S
C1802 C1803 1.363 . S
C1802 C1807 1.379 . S
C1802 N1809 1.356 . S
C1803 C1802 1.363 . S
C1803 C1806 1.363 . S
N1804 C1806 1.356 . S
N1804 H1816 0.984 . S
N1804 H1817 0.985 . S
N1805 C1807 1.356 1_554 S
N1805 H1810 0.984 . S
N1805 H1811 0.985 . S
C1806 C1800 1.379 . S
C1806 C1803 1.363 . S
C1806 N1804 1.356 . S
C1807 C1801 1.363 . S
C1807 C1802 1.379 . S
C1807 N1805 1.356 1_556 S
N1808 C1800 1.356 . S
N1808 H1814 0.984 . S
N1808 H1815 0.984 . S
N1809 C1802 1.356 . S
N1809 H1812 0.984 . S
N1809 H1813 0.985 . S
H1810 N1805 0.984 . S
H1811 N1805 0.985 . S
H1812 N1809 0.984 . S
H1813 N1809 0.985 . S
H1814 N1808 0.984 . S
H1815 N1808 0.984 . S
H1816 N1804 0.984 . S
H1817 N1804 0.985 . S
C1818 C1819 1.363 . S
C1818 C1824 1.379 . S
C1818 N1826 1.356 1_655 S
C1819 C1818 1.363 . S
C1819 C1825 1.363 . S
C1820 C1821 1.363 . S
C1820 C1825 1.379 . S
C1820 N1827 1.356 . S
C1821 C1820 1.363 . S
C1821 C1824 1.363 . S
N1822 C1824 1.356 . S
N1822 H1834 0.984 . S
N1822 H1835 0.985 . S
N1823 C1825 1.356 . S
N1823 H1828 0.984 . S
N1823 H1829 0.985 . S
C1824 C1818 1.379 . S
C1824 C1821 1.363 . S
C1824 N1822 1.356 . S
C1825 C1819 1.363 . S
C1825 C1820 1.379 . S
C1825 N1823 1.356 . S
N1826 C1818 1.356 1_455 S
N1826 H1832 0.984 . S
N1826 H1833 0.984 . S
N1827 C1820 1.356 . S
N1827 H1830 0.984 . S
N1827 H1831 0.985 . S
H1828 N1823 0.984 . S
H1829 N1823 0.985 . S
H1830 N1827 0.984 . S
H1831 N1827 0.985 . S
H1832 N1826 0.984 . S
H1833 N1826 0.984 . S
H1834 N1822 0.984 . S
H1835 N1822 0.985 . S
C1836 C1837 1.363 . S
C1836 C1842 1.379 . S
C1836 N1844 1.356 . S
C1837 C1836 1.363 . S
C1837 C1843 1.363 . S
C1838 C1839 1.363 . S
C1838 C1843 1.379 . S
C1838 N1845 1.356 . S
C1839 C1838 1.363 . S
C1839 C1842 1.363 . S
N1840 C1842 1.356 . S
N1840 H1852 0.984 . S
N1840 H1853 0.985 . S
N1841 C1843 1.356 . S
N1841 H1846 0.984 . S
N1841 H1847 0.985 . S
C1842 C1836 1.379 . S
C1842 C1839 1.363 . S
C1842 N1840 1.356 . S
C1843 C1837 1.363 . S
C1843 C1838 1.379 . S
C1843 N1841 1.356 . S
N1844 C1836 1.356 . S
N1844 H1850 0.984 . S
N1844 H1851 0.984 . S
N1845 C1838 1.356 . S
N1845 H1848 0.984 . S
N1845 H1849 0.985 . S
H1846 N1841 0.984 . S
H1847 N1841 0.985 . S
H1848 N1845 0.984 . S
H1849 N1845 0.985 . S
H1850 N1844 0.984 . S
H1851 N1844 0.984 . S
H1852 N1840 0.984 . S
H1853 N1840 0.985 . S
C1854 C1855 1.363 . S
C1854 C1860 1.379 . S
C1854 N1862 1.356 . S
C1855 C1854 1.363 . S
C1855 C1861 1.363 . S
C1856 C1857 1.363 . S
C1856 C1861 1.379 . S
C1856 N1863 1.356 . S
C1857 C1856 1.363 . S
C1857 C1860 1.363 . S
N1858 C1860 1.356 . S
N1858 H1870 0.984 . S
N1858 H1871 0.985 . S
N1859 C1861 1.356 . S
N1859 H1864 0.984 1_655 S
N1859 H1865 0.985 1_655 S
C1860 C1854 1.379 . S
C1860 C1857 1.363 . S
C1860 N1858 1.356 . S
C1861 C1855 1.363 . S
C1861 C1856 1.379 . S
C1861 N1859 1.356 . S
N1862 C1854 1.356 . S
N1862 H1868 0.984 . S
N1862 H1869 0.984 . S
N1863 C1856 1.356 . S
N1863 H1866 0.984 . S
N1863 H1867 0.985 . S
H1864 N1859 0.984 1_455 S
H1865 N1859 0.985 1_455 S
H1866 N1863 0.984 . S
H1867 N1863 0.985 . S
H1868 N1862 0.984 . S
H1869 N1862 0.984 . S
H1870 N1858 0.984 . S
H1871 N1858 0.985 . S
C1872 C1873 1.363 . S
C1872 C1878 1.379 . S
C1872 N1880 1.356 . S
C1873 C1872 1.363 . S
C1873 C1879 1.363 . S
C1874 C1875 1.363 . S
C1874 C1879 1.379 . S
C1874 N1881 1.356 . S
C1875 C1874 1.363 . S
C1875 C1878 1.363 . S
N1876 C1878 1.356 . S
N1876 H1888 0.984 . S
N1876 H1889 0.985 . S
N1877 C1879 1.356 . S
N1877 H1882 0.984 . S
N1877 H1883 0.985 . S
C1878 C1872 1.379 . S
C1878 C1875 1.363 . S
C1878 N1876 1.356 . S
C1879 C1873 1.363 . S
C1879 C1874 1.379 . S
C1879 N1877 1.356 . S
N1880 C1872 1.356 . S
N1880 H1886 0.984 . S
N1880 H1887 0.984 . S
N1881 C1874 1.356 . S
N1881 H1884 0.984 . S
N1881 H1885 0.985 . S
H1882 N1877 0.984 . S
H1883 N1877 0.985 . S
H1884 N1881 0.984 . S
H1885 N1881 0.985 . S
H1886 N1880 0.984 . S
H1887 N1880 0.984 . S
H1888 N1876 0.984 . S
H1889 N1876 0.985 . S
C1890 C1891 1.363 . S
C1890 C1896 1.379 . S
C1890 N1898 1.356 . S
C1891 C1890 1.363 . S
C1891 C1897 1.363 . S
C1892 C1893 1.363 . S
C1892 C1897 1.379 . S
C1892 N1899 1.356 . S
C1893 C1892 1.363 . S
C1893 C1896 1.363 . S
N1894 C1896 1.356 . S
N1894 H1906 0.984 . S
N1894 H1907 0.985 . S
N1895 C1897 1.356 . S
N1895 H1900 0.984 . S
N1895 H1901 0.985 . S
C1896 C1890 1.379 . S
C1896 C1893 1.363 . S
C1896 N1894 1.356 . S
C1897 C1891 1.363 . S
C1897 C1892 1.379 . S
C1897 N1895 1.356 . S
N1898 C1890 1.356 . S
N1898 H1904 0.984 . S
N1898 H1905 0.984 . S
N1899 C1892 1.356 . S
N1899 H1902 0.984 . S
N1899 H1903 0.985 . S
H1900 N1895 0.984 . S
H1901 N1895 0.985 . S
H1902 N1899 0.984 . S
H1903 N1899 0.985 . S
H1904 N1898 0.984 . S
H1905 N1898 0.984 . S
H1906 N1894 0.984 . S
H1907 N1894 0.985 . S
C1908 C1909 1.363 . S
C1908 C1914 1.379 . S
C1908 N1916 1.356 . S
C1909 C1908 1.363 . S
C1909 C1915 1.363 . S
C1910 C1911 1.363 . S
C1910 C1915 1.379 . S
C1910 N1917 1.356 . S
C1911 C1910 1.363 . S
C1911 C1914 1.363 . S
N1912 C1914 1.388 . S
N1912 H1924 0.974 1_554 S
N1912 H1925 0.966 1_554 S
N1913 C1915 1.356 . S
N1913 H1918 0.984 . S
N1913 H1919 0.985 . S
C1914 C1908 1.379 . S
C1914 C1911 1.363 . S
C1914 N1912 1.388 . S
C1915 C1909 1.363 . S
C1915 C1910 1.379 . S
C1915 N1913 1.356 . S
N1916 C1908 1.356 . S
N1916 H1922 0.984 . S
N1916 H1923 0.984 . S
N1917 C1910 1.356 . S
N1917 H1920 0.984 . S
N1917 H1921 0.985 . S
H1918 N1913 0.984 . S
H1919 N1913 0.985 . S
H1920 N1917 0.984 . S
H1921 N1917 0.985 . S
H1922 N1916 0.984 . S
H1923 N1916 0.984 . S
H1924 N1912 0.974 1_556 S
H1925 N1912 0.966 1_556 S
C1926 C1927 1.363 . S
C1926 C1932 1.379 . S
C1926 N1934 1.356 . S
C1927 C1926 1.363 . S
C1927 C1933 1.363 . S
C1928 C1929 1.363 . S
C1928 C1933 1.379 . S
C1928 N1935 1.356 . S
C1929 C1928 1.363 . S
C1929 C1932 1.363 . S
N1930 C1932 1.356 . S
N1930 H1942 0.984 . S
N1930 H1943 0.985 . S
N1931 C1933 1.356 . S
N1931 H1936 0.984 . S
N1931 H1937 0.985 . S
C1932 C1926 1.379 . S
C1932 C1929 1.363 . S
C1932 N1930 1.356 . S
C1933 C1927 1.363 . S
C1933 C1928 1.379 . S
C1933 N1931 1.356 . S
N1934 C1926 1.356 . S
N1934 H1940 0.984 . S
N1934 H1941 0.984 . S
N1935 C1928 1.356 . S
N1935 H1938 0.984 . S
N1935 H1939 0.985 . S
H1936 N1931 0.984 . S
H1937 N1931 0.985 . S
H1938 N1935 0.984 . S
H1939 N1935 0.985 . S
H1940 N1934 0.984 . S
H1941 N1934 0.984 . S
H1942 N1930 0.984 . S
H1943 N1930 0.985 . S
C1944 C1945 1.363 . S
C1944 C1950 1.379 . S
C1944 N1952 1.356 . S
C1945 C1944 1.363 . S
C1945 C1951 1.363 . S
C1946 C1947 1.363 . S
C1946 C1951 1.379 . S
C1946 N1953 1.356 . S
C1947 C1946 1.363 . S
C1947 C1950 1.363 . S
N1948 C1950 1.356 . S
N1948 H1960 0.984 . S
N1948 H1961 0.985 . S
N1949 C1951 1.356 . S
N1949 H1954 0.984 . S
N1949 H1955 0.985 . S
C1950 C1944 1.379 . S
C1950 C1947 1.363 . S
C1950 N1948 1.356 . S
C1951 C1945 1.363 . S
C1951 C1946 1.379 . S
C1951 N1949 1.356 . S
N1952 C1944 1.356 . S
N1952 H1958 0.984 . S
N1952 H1959 0.984 . S
N1953 C1946 1.356 . S
N1953 H1956 0.984 . S
N1953 H1957 0.985 . S
H1954 N1949 0.984 . S
H1955 N1949 0.985 . S
H1956 N1953 0.984 . S
H1957 N1953 0.985 . S
H1958 N1952 0.984 . S
H1959 N1952 0.984 . S
H1960 N1948 0.984 . S
H1961 N1948 0.985 . S
C1962 C1963 1.363 . S
C1962 C1968 1.379 . S
C1962 N1970 1.356 . S
C1963 C1962 1.363 . S
C1963 C1969 1.363 . S
C1964 C1965 1.363 . S
C1964 C1969 1.379 . S
C1964 N1971 1.356 . S
C1965 C1964 1.363 . S
C1965 C1968 1.363 . S
N1966 C1968 1.356 . S
N1966 H1978 0.984 . S
N1966 H1979 0.985 . S
N1967 C1969 1.356 . S
N1967 H1972 0.984 . S
N1967 H1973 0.985 . S
C1968 C1962 1.379 . S
C1968 C1965 1.363 . S
C1968 N1966 1.356 . S
C1969 C1963 1.363 . S
C1969 C1964 1.379 . S
C1969 N1967 1.356 . S
N1970 C1962 1.356 . S
N1970 H1976 0.984 . S
N1970 H1977 0.984 . S
N1971 C1964 1.356 . S
N1971 H1974 0.984 . S
N1971 H1975 0.985 . S
H1972 N1967 0.984 . S
H1973 N1967 0.985 . S
H1974 N1971 0.984 . S
H1975 N1971 0.985 . S
H1976 N1970 0.984 . S
H1977 N1970 0.984 . S
H1978 N1966 0.984 . S
H1979 N1966 0.985 . S
C1980 C1981 1.363 . S
C1980 C1986 1.379 . S
C1980 N1988 1.356 . S
C1981 C1980 1.363 . S
C1981 C1987 1.363 . S
C1982 C1983 1.363 . S
C1982 C1987 1.379 . S
C1982 N1989 1.356 . S
C1983 C1982 1.363 . S
C1983 C1986 1.363 . S
N1984 C1986 1.356 . S
N1984 H1996 0.984 . S
N1984 H1997 0.985 . S
N1985 C1987 1.356 . S
N1985 H1990 0.984 . S
N1985 H1991 0.985 . S
C1986 C1980 1.379 . S
C1986 C1983 1.363 . S
C1986 N1984 1.356 . S
C1987 C1981 1.363 . S
C1987 C1982 1.379 . S
C1987 N1985 1.356 . S
N1988 C1980 1.356 . S
N1988 H1994 0.984 . S
N1988 H1995 0.984 . S
N1989 C1982 1.356 . S
N1989 H1992 0.984 . S
N1989 H1993 0.985 . S
H1990 N1985 0.984 . S
H1991 N1985 0.985 . S
H1992 N1989 0.984 . S
H1993 N1989 0.985 . S
H1994 N1988 0.984 . S
H1995 N1988 0.984 . S
H1996 N1984 0.984 . S
H1997 N1984 0.985 . S
C1998 C1999 1.363 . S
C1998 C2004 1.379 . S
C1998 N2006 1.356 . S
C1999 C1998 1.363 . S
C1999 C2005 1.363 . S
C2000 C2001 1.363 . S
C2000 C2005 1.379 . S
C2000 N2007 1.356 . S
C2001 C2000 1.363 . S
C2001 C2004 1.363 . S
N2002 C2004 1.356 . S
N2002 H2014 0.984 . S
N2002 H2015 0.985 . S
N2003 C2005 1.356 . S
N2003 H2008 0.984 . S
N2003 H2009 0.985 . S
C2004 C1998 1.379 . S
C2004 C2001 1.363 . S
C2004 N2002 1.356 . S
C2005 C1999 1.363 . S
C2005 C2000 1.379 . S
C2005 N2003 1.356 . S
N2006 C1998 1.356 . S
N2006 H2012 0.984 . S
N2006 H2013 0.984 . S
N2007 C2000 1.356 . S
N2007 H2010 0.984 . S
N2007 H2011 0.985 . S
H2008 N2003 0.984 . S
H2009 N2003 0.985 . S
H2010 N2007 0.984 . S
H2011 N2007 0.985 . S
H2012 N2006 0.984 . S
H2013 N2006 0.984 . S
H2014 N2002 0.984 . S
H2015 N2002 0.985 . S
C2016 C2017 1.363 . S
C2016 C2022 1.379 . S
C2016 N2024 1.356 . S
C2017 C2016 1.363 . S
C2017 C2023 1.363 . S
C2018 C2019 1.363 . S
C2018 C2023 1.379 . S
C2018 N2025 1.356 . S
C2019 C2018 1.363 . S
C2019 C2022 1.363 . S
N2020 C2022 1.356 . S
N2020 H2032 0.984 . S
N2020 H2033 0.985 . S
N2021 C2023 1.356 . S
N2021 H2026 0.984 . S
N2021 H2027 0.985 . S
C2022 C2016 1.379 . S
C2022 C2019 1.363 . S
C2022 N2020 1.356 . S
C2023 C2017 1.363 . S
C2023 C2018 1.379 . S
C2023 N2021 1.356 . S
N2024 C2016 1.356 . S
N2024 H2030 0.984 . S
N2024 H2031 0.984 . S
N2025 C2018 1.356 . S
N2025 H2028 0.984 . S
N2025 H2029 0.985 . S
H2026 N2021 0.984 . S
H2027 N2021 0.985 . S
H2028 N2025 0.984 . S
H2029 N2025 0.985 . S
H2030 N2024 0.984 . S
H2031 N2024 0.984 . S
H2032 N2020 0.984 . S
H2033 N2020 0.985 . S
C2034 C2035 1.363 1_655 S
C2034 C2040 1.379 . S
C2034 N2042 1.356 . S
C2035 C2034 1.363 1_455 S
C2035 C2041 1.363 . S
C2036 C2037 1.363 . S
C2036 C2041 1.379 . S
C2036 N2043 1.356 . S
C2037 C2036 1.363 . S
C2037 C2040 1.363 1_455 S
N2038 C2040 1.356 . S
N2038 H2050 0.984 . S
N2038 H2051 0.985 . S
N2039 C2041 1.356 . S
N2039 H2044 0.984 . S
N2039 H2045 0.985 . S
C2040 C2034 1.379 . S
C2040 C2037 1.363 1_655 S
C2040 N2038 1.356 . S
C2041 C2035 1.363 . S
C2041 C2036 1.379 . S
C2041 N2039 1.356 . S
N2042 C2034 1.356 . S
N2042 H2048 0.984 . S
N2042 H2049 0.984 . S
N2043 C2036 1.356 . S
N2043 H2046 0.984 . S
N2043 H2047 0.985 . S
H2044 N2039 0.984 . S
H2045 N2039 0.985 . S
H2046 N2043 0.984 . S
H2047 N2043 0.985 . S
H2048 N2042 0.984 . S
H2049 N2042 0.984 . S
H2050 N2038 0.984 . S
H2051 N2038 0.985 . S
C2052 C2053 1.363 . S
C2052 C2058 1.379 . S
C2052 N2060 1.356 . S
C2053 C2052 1.363 . S
C2053 C2059 1.363 . S
C2054 C2055 1.363 . S
C2054 C2059 1.379 . S
C2054 N2061 1.356 . S
C2055 C2054 1.363 . S
C2055 C2058 1.363 . S
N2056 C2058 1.356 . S
N2056 H2068 0.984 . S
N2056 H2069 0.985 . S
N2057 C2059 1.356 . S
N2057 H2062 0.984 . S
N2057 H2063 0.985 . S
C2058 C2052 1.379 . S
C2058 C2055 1.363 . S
C2058 N2056 1.356 . S
C2059 C2053 1.363 . S
C2059 C2054 1.379 . S
C2059 N2057 1.356 . S
N2060 C2052 1.356 . S
N2060 H2066 0.984 . S
N2060 H2067 0.984 . S
N2061 C2054 1.356 . S
N2061 H2064 0.984 . S
N2061 H2065 0.985 . S
H2062 N2057 0.984 . S
H2063 N2057 0.985 . S
H2064 N2061 0.984 . S
H2065 N2061 0.985 . S
H2066 N2060 0.984 . S
H2067 N2060 0.984 . S
H2068 N2056 0.984 . S
H2069 N2056 0.985 . S
C2070 C2071 1.363 . S
C2070 C2076 1.379 . S
C2070 N2078 1.356 . S
C2071 C2070 1.363 . S
C2071 C2077 1.363 . S
C2072 C2073 1.363 . S
C2072 C2077 1.379 . S
C2072 N2079 1.356 . S
C2073 C2072 1.363 . S
C2073 C2076 1.363 . S
N2074 C2076 1.356 . S
N2074 H2086 0.984 . S
N2074 H2087 0.985 . S
N2075 C2077 1.356 . S
N2075 H2080 0.984 1_556 S
N2075 H2081 0.985 . S
C2076 C2070 1.379 . S
C2076 C2073 1.363 . S
C2076 N2074 1.356 . S
C2077 C2071 1.363 . S
C2077 C2072 1.379 . S
C2077 N2075 1.356 . S
N2078 C2070 1.356 . S
N2078 H2084 0.984 . S
N2078 H2085 0.984 1_556 S
N2079 C2072 1.356 . S
N2079 H2082 0.984 . S
N2079 H2083 0.985 . S
H2080 N2075 0.984 1_554 S
H2081 N2075 0.985 . S
H2082 N2079 0.984 . S
H2083 N2079 0.985 . S
H2084 N2078 0.984 . S
H2085 N2078 0.984 1_554 S
H2086 N2074 0.984 . S
H2087 N2074 0.985 . S
C2088 C2089 1.363 . S
C2088 C2094 1.379 . S
C2088 N2096 1.356 . S
C2089 C2088 1.363 . S
C2089 C2095 1.363 . S
C2090 C2091 1.363 . S
C2090 C2095 1.379 . S
C2090 N2097 1.356 . S
C2091 C2090 1.363 . S
C2091 C2094 1.363 . S
N2092 C2094 1.356 . S
N2092 H2104 0.984 . S
N2092 H2105 0.985 . S
N2093 C2095 1.356 . S
N2093 H2098 0.984 . S
N2093 H2099 0.985 . S
C2094 C2088 1.379 . S
C2094 C2091 1.363 . S
C2094 N2092 1.356 . S
C2095 C2089 1.363 . S
C2095 C2090 1.379 . S
C2095 N2093 1.356 . S
N2096 C2088 1.356 . S
N2096 H2102 0.984 . S
N2096 H2103 0.984 . S
N2097 C2090 1.356 . S
N2097 H2100 0.984 . S
N2097 H2101 0.985 . S
H2098 N2093 0.984 . S
H2099 N2093 0.985 . S
H2100 N2097 0.984 . S
H2101 N2097 0.985 . S
H2102 N2096 0.984 . S
H2103 N2096 0.984 . S
H2104 N2092 0.984 . S
H2105 N2092 0.985 . S
C2106 C2107 1.363 . S
C2106 C2112 1.379 . S
C2106 N2114 1.356 . S
C2107 C2106 1.363 . S
C2107 C2113 1.363 . S
C2108 C2109 1.363 . S
C2108 C2113 1.379 . S
C2108 N2115 1.356 . S
C2109 C2108 1.363 . S
C2109 C2112 1.363 . S
N2110 C2112 1.356 . S
N2110 H2122 0.984 . S
N2110 H2123 0.985 . S
N2111 C2113 1.356 . S
N2111 H2116 0.984 . S
N2111 H2117 0.985 . S
C2112 C2106 1.379 . S
C2112 C2109 1.363 . S
C2112 N2110 1.356 . S
C2113 C2107 1.363 . S
C2113 C2108 1.379 . S
C2113 N2111 1.356 . S
N2114 C2106 1.356 . S
N2114 H2120 0.984 . S
N2114 H2121 0.984 . S
N2115 C2108 1.356 . S
N2115 H2118 0.984 . S
N2115 H2119 0.985 . S
H2116 N2111 0.984 . S
H2117 N2111 0.985 . S
H2118 N2115 0.984 . S
H2119 N2115 0.985 . S
H2120 N2114 0.984 . S
H2121 N2114 0.984 . S
H2122 N2110 0.984 . S
H2123 N2110 0.985 . S
C2124 C2125 1.363 . S
C2124 C2130 1.379 . S
C2124 N2132 1.356 . S
C2125 C2124 1.363 . S
C2125 C2131 1.363 . S
C2126 C2127 1.363 . S
C2126 C2131 1.379 . S
C2126 N2133 1.356 . S
C2127 C2126 1.363 . S
C2127 C2130 1.363 . S
N2128 C2130 1.356 . S
N2128 H2140 0.984 . S
N2128 H2141 0.985 . S
N2129 C2131 1.356 . S
N2129 H2134 0.984 . S
N2129 H2135 0.985 . S
C2130 C2124 1.379 . S
C2130 C2127 1.363 . S
C2130 N2128 1.356 . S
C2131 C2125 1.363 . S
C2131 C2126 1.379 . S
C2131 N2129 1.356 . S
N2132 C2124 1.356 . S
N2132 H2138 0.984 . S
N2132 H2139 0.984 . S
N2133 C2126 1.356 . S
N2133 H2136 0.984 . S
N2133 H2137 0.985 . S
H2134 N2129 0.984 . S
H2135 N2129 0.985 . S
H2136 N2133 0.984 . S
H2137 N2133 0.985 . S
H2138 N2132 0.984 . S
H2139 N2132 0.984 . S
H2140 N2128 0.984 . S
H2141 N2128 0.985 . S
C2142 C2143 1.363 . S
C2142 C2148 1.381 . S
C2142 N2150 1.356 1_455 S
C2143 C2142 1.363 . S
C2143 C2149 1.363 . S
C2144 C2145 1.363 . S
C2144 C2149 1.379 . S
C2144 N2151 1.356 . S
C2145 C2144 1.363 . S
C2145 C2148 1.378 . S
N2146 C2148 1.343 1_655 S
N2146 H2158 0.984 . S
N2146 H2159 0.985 . S
N2147 C2149 1.356 . S
N2147 H2152 0.984 1_554 S
N2147 H2153 0.985 . S
C2148 C2142 1.381 . S
C2148 C2145 1.378 . S
C2148 N2146 1.343 1_455 S
C2149 C2143 1.363 . S
C2149 C2144 1.379 . S
C2149 N2147 1.356 . S
N2150 C2142 1.356 1_655 S
N2150 H2156 0.984 . S
N2150 H2157 0.984 1_554 S
N2151 C2144 1.356 . S
N2151 H2154 0.984 . S
N2151 H2155 0.985 . S
H2152 N2147 0.984 1_556 S
H2153 N2147 0.985 . S
H2154 N2151 0.984 . S
H2155 N2151 0.985 . S
H2156 N2150 0.984 . S
H2157 N2150 0.984 1_556 S
H2158 N2146 0.984 . S
H2159 N2146 0.985 . S
C2160 C2161 1.363 . S
C2160 C2166 1.379 . S
C2160 N2168 1.356 . S
C2161 C2160 1.363 . S
C2161 C2167 1.363 . S
C2162 C2163 1.363 . S
C2162 C2167 1.379 . S
C2162 N2169 1.356 . S
C2163 C2162 1.363 . S
C2163 C2166 1.363 . S
N2164 C2166 1.356 . S
N2164 H2176 0.984 . S
N2164 H2177 0.985 . S
N2165 C2167 1.356 . S
N2165 H2170 0.984 . S
N2165 H2171 0.985 . S
C2166 C2160 1.379 . S
C2166 C2163 1.363 . S
C2166 N2164 1.356 . S
C2167 C2161 1.363 . S
C2167 C2162 1.379 . S
C2167 N2165 1.356 . S
N2168 C2160 1.356 . S
N2168 H2174 0.984 . S
N2168 H2175 0.984 . S
N2169 C2162 1.356 . S
N2169 H2172 0.984 . S
N2169 H2173 0.985 . S
H2170 N2165 0.984 . S
H2171 N2165 0.985 . S
H2172 N2169 0.984 . S
H2173 N2169 0.985 . S
H2174 N2168 0.984 . S
H2175 N2168 0.984 . S
H2176 N2164 0.984 . S
H2177 N2164 0.985 . S
C2178 C2179 1.363 . S
C2178 C2184 1.379 . S
C2178 N2186 1.356 . S
C2179 C2178 1.363 . S
C2179 C2185 1.363 . S
C2180 C2181 1.363 . S
C2180 C2185 1.379 . S
C2180 N2187 1.356 . S
C2181 C2180 1.363 . S
C2181 C2184 1.363 . S
N2182 C2184 1.356 . S
N2182 H2194 0.984 . S
N2182 H2195 0.985 1_565 S
N2183 C2185 1.356 . S
N2183 H2188 0.984 . S
N2183 H2189 0.985 . S
C2184 C2178 1.379 . S
C2184 C2181 1.363 . S
C2184 N2182 1.356 . S
C2185 C2179 1.363 . S
C2185 C2180 1.379 . S
C2185 N2183 1.356 . S
N2186 C2178 1.356 . S
N2186 H2192 0.984 . S
N2186 H2193 0.984 . S
N2187 C2180 1.356 . S
N2187 H2190 0.984 1_565 S
N2187 H2191 0.985 . S
H2188 N2183 0.984 . S
H2189 N2183 0.985 . S
H2190 N2187 0.984 1_545 S
H2191 N2187 0.985 . S
H2192 N2186 0.984 . S
H2193 N2186 0.984 . S
H2194 N2182 0.984 . S
H2195 N2182 0.985 1_545 S
C2196 C2197 1.363 . S
C2196 C2202 1.379 . S
C2196 N2204 1.356 . S
C2197 C2196 1.363 . S
C2197 C2203 1.363 . S
C2198 C2199 1.363 . S
C2198 C2203 1.379 . S
C2198 N2205 1.356 . S
C2199 C2198 1.363 . S
C2199 C2202 1.363 . S
N2200 C2202 1.356 . S
N2200 H2212 0.984 . S
N2200 H2213 0.985 . S
N2201 C2203 1.356 . S
N2201 H2206 0.984 . S
N2201 H2207 0.985 . S
C2202 C2196 1.379 . S
C2202 C2199 1.363 . S
C2202 N2200 1.356 . S
C2203 C2197 1.363 . S
C2203 C2198 1.379 . S
C2203 N2201 1.356 . S
N2204 C2196 1.356 . S
N2204 H2210 0.984 . S
N2204 H2211 0.984 . S
N2205 C2198 1.356 . S
N2205 H2208 0.984 . S
N2205 H2209 0.985 . S
H2206 N2201 0.984 . S
H2207 N2201 0.985 . S
H2208 N2205 0.984 . S
H2209 N2205 0.985 . S
H2210 N2204 0.984 . S
H2211 N2204 0.984 . S
H2212 N2200 0.984 . S
H2213 N2200 0.985 . S
C2214 C2215 1.363 1_554 S
C2214 C2220 1.379 . S
C2214 N2222 1.356 . S
C2215 C2214 1.363 1_556 S
C2215 C2221 1.363 . S
C2216 C2217 1.363 . S
C2216 C2221 1.379 . S
C2216 N2223 1.356 . S
C2217 C2216 1.363 . S
C2217 C2220 1.363 1_556 S
N2218 C2220 1.356 . S
N2218 H2230 0.984 . S
N2218 H2231 0.985 1_545 S
N2219 C2221 1.356 . S
N2219 H2224 0.984 . S
N2219 H2225 0.985 . S
C2220 C2214 1.379 . S
C2220 C2217 1.363 1_554 S
C2220 N2218 1.356 . S
C2221 C2215 1.363 . S
C2221 C2216 1.379 . S
C2221 N2219 1.356 . S
N2222 C2214 1.356 . S
N2222 H2228 0.984 . S
N2222 H2229 0.984 . S
N2223 C2216 1.356 . S
N2223 H2226 0.984 1_545 S
N2223 H2227 0.985 . S
H2224 N2219 0.984 . S
H2225 N2219 0.985 . S
H2226 N2223 0.984 1_565 S
H2227 N2223 0.985 . S
H2228 N2222 0.984 . S
H2229 N2222 0.984 . S
H2230 N2218 0.984 . S
H2231 N2218 0.985 1_565 S
C2232 C2233 1.363 . S
C2232 C2238 1.379 . S
C2232 N2240 1.356 . S
C2233 C2232 1.363 . S
C2233 C2239 1.363 . S
C2234 C2235 1.363 . S
C2234 C2239 1.379 . S
C2234 N2241 1.356 . S
C2235 C2234 1.363 . S
C2235 C2238 1.363 . S
N2236 C2238 1.356 . S
N2236 H2248 0.984 . S
N2236 H2249 0.985 . S
N2237 C2239 1.356 . S
N2237 H2242 0.984 . S
N2237 H2243 0.985 . S
C2238 C2232 1.379 . S
C2238 C2235 1.363 . S
C2238 N2236 1.356 . S
C2239 C2233 1.363 . S
C2239 C2234 1.379 . S
C2239 N2237 1.356 . S
N2240 C2232 1.356 . S
N2240 H2246 0.984 . S
N2240 H2247 0.984 . S
N2241 C2234 1.356 . S
N2241 H2244 0.984 . S
N2241 H2245 0.985 . S
H2242 N2237 0.984 . S
H2243 N2237 0.985 . S
H2244 N2241 0.984 . S
H2245 N2241 0.985 . S
H2246 N2240 0.984 . S
H2247 N2240 0.984 . S
H2248 N2236 0.984 . S
H2249 N2236 0.985 . S
C2250 C2251 1.363 . S
C2250 C2256 1.379 . S
C2250 N2258 1.356 . S
C2251 C2250 1.363 . S
C2251 C2257 1.363 . S
C2252 C2253 1.363 . S
C2252 C2257 1.379 . S
C2252 N2259 1.356 . S
C2253 C2252 1.363 . S
C2253 C2256 1.363 . S
N2254 C2256 1.356 . S
N2254 H2266 0.984 . S
N2254 H2267 0.985 . S
N2255 C2257 1.356 . S
N2255 H2260 0.984 1_565 S
N2255 H2261 0.985 . S
C2256 C2250 1.379 . S
C2256 C2253 1.363 . S
C2256 N2254 1.356 . S
C2257 C2251 1.363 . S
C2257 C2252 1.379 . S
C2257 N2255 1.356 . S
N2258 C2250 1.356 . S
N2258 H2264 0.984 . S
N2258 H2265 0.984 1_565 S
N2259 C2252 1.356 . S
N2259 H2262 0.984 . S
N2259 H2263 0.985 . S
H2260 N2255 0.984 1_545 S
H2261 N2255 0.985 . S
H2262 N2259 0.984 . S
H2263 N2259 0.985 . S
H2264 N2258 0.984 . S
H2265 N2258 0.984 1_545 S
H2266 N2254 0.984 . S
H2267 N2254 0.985 . S
C2268 C2269 1.363 . S
C2268 C2274 1.379 . S
C2268 N2276 1.356 . S
C2269 C2268 1.363 . S
C2269 C2275 1.363 . S
C2270 C2271 1.363 . S
C2270 C2275 1.379 . S
C2270 N2277 1.356 . S
C2271 C2270 1.363 . S
C2271 C2274 1.363 . S
N2272 C2274 1.356 . S
N2272 H2284 0.984 . S
N2272 H2285 0.985 . S
N2273 C2275 1.356 . S
N2273 H2278 0.984 . S
N2273 H2279 0.985 . S
C2274 C2268 1.379 . S
C2274 C2271 1.363 . S
C2274 N2272 1.356 . S
C2275 C2269 1.363 . S
C2275 C2270 1.379 . S
C2275 N2273 1.356 . S
N2276 C2268 1.356 . S
N2276 H2282 0.984 . S
N2276 H2283 0.984 . S
N2277 C2270 1.356 . S
N2277 H2280 0.984 . S
N2277 H2281 0.985 . S
H2278 N2273 0.984 . S
H2279 N2273 0.985 . S
H2280 N2277 0.984 . S
H2281 N2277 0.985 . S
H2282 N2276 0.984 . S
H2283 N2276 0.984 . S
H2284 N2272 0.984 . S
H2285 N2272 0.985 . S
C2286 C2287 1.363 . S
C2286 C2292 1.379 . S
C2286 N2294 1.356 . S
C2287 C2286 1.363 . S
C2287 C2293 1.363 1_554 S
C2288 C2289 1.363 1_556 S
C2288 C2293 1.379 . S
C2288 N2295 1.356 . S
C2289 C2288 1.363 1_554 S
C2289 C2292 1.363 . S
N2290 C2292 1.356 . S
N2290 H2302 0.984 . S
N2290 H2303 0.985 . S
N2291 C2293 1.356 . S
N2291 H2296 0.984 1_545 S
N2291 H2297 0.985 . S
C2292 C2286 1.379 . S
C2292 C2289 1.363 . S
C2292 N2290 1.356 . S
C2293 C2287 1.363 1_556 S
C2293 C2288 1.379 . S
C2293 N2291 1.356 . S
N2294 C2286 1.356 . S
N2294 H2300 0.984 . S
N2294 H2301 0.984 1_545 S
N2295 C2288 1.356 . S
N2295 H2298 0.984 . S
N2295 H2299 0.985 . S
H2296 N2291 0.984 1_565 S
H2297 N2291 0.985 . S
H2298 N2295 0.984 . S
H2299 N2295 0.985 . S
H2300 N2294 0.984 . S
H2301 N2294 0.984 1_565 S
H2302 N2290 0.984 . S
H2303 N2290 0.985 . S
C2304 C2305 1.363 . S
C2304 C2310 1.379 . S
C2304 N2312 1.356 . S
C2305 C2304 1.363 . S
C2305 C2311 1.363 . S
C2306 C2307 1.363 . S
C2306 C2311 1.379 . S
C2306 N2313 1.356 . S
C2307 C2306 1.363 . S
C2307 C2310 1.363 . S
N2308 C2310 1.356 . S
N2308 H2320 0.984 . S
N2308 H2321 0.985 . S
N2309 C2311 1.356 . S
N2309 H2314 0.984 . S
N2309 H2315 0.985 . S
C2310 C2304 1.379 . S
C2310 C2307 1.363 . S
C2310 N2308 1.356 . S
C2311 C2305 1.363 . S
C2311 C2306 1.379 . S
C2311 N2309 1.356 . S
N2312 C2304 1.356 . S
N2312 H2318 0.984 . S
N2312 H2319 0.984 . S
N2313 C2306 1.356 . S
N2313 H2316 0.984 . S
N2313 H2317 0.985 . S
H2314 N2309 0.984 . S
H2315 N2309 0.985 . S
H2316 N2313 0.984 . S
H2317 N2313 0.985 . S
H2318 N2312 0.984 . S
H2319 N2312 0.984 . S
H2320 N2308 0.984 . S
H2321 N2308 0.985 . S
C2322 C2323 1.363 . S
C2322 C2328 1.379 . S
C2322 N2330 1.356 . S
C2323 C2322 1.363 . S
C2323 C2329 1.363 . S
C2324 C2325 1.363 . S
C2324 C2329 1.379 . S
C2324 N2331 1.356 . S
C2325 C2324 1.363 . S
C2325 C2328 1.363 . S
N2326 C2328 1.356 . S
N2326 H2338 0.984 . S
N2326 H2339 0.985 . S
N2327 C2329 1.356 . S
N2327 H2332 0.984 . S
N2327 H2333 0.985 . S
C2328 C2322 1.379 . S
C2328 C2325 1.363 . S
C2328 N2326 1.356 . S
C2329 C2323 1.363 . S
C2329 C2324 1.379 . S
C2329 N2327 1.356 . S
N2330 C2322 1.356 . S
N2330 H2336 0.984 . S
N2330 H2337 0.984 . S
N2331 C2324 1.356 . S
N2331 H2334 0.984 . S
N2331 H2335 0.985 . S
H2332 N2327 0.984 . S
H2333 N2327 0.985 . S
H2334 N2331 0.984 . S
H2335 N2331 0.985 . S
H2336 N2330 0.984 . S
H2337 N2330 0.984 . S
H2338 N2326 0.984 . S
H2339 N2326 0.985 . S
C2340 C2341 1.363 . S
C2340 C2346 1.379 . S
C2340 N2348 1.356 . S
C2341 C2340 1.363 . S
C2341 C2347 1.363 . S
C2342 C2343 1.363 . S
C2342 C2347 1.379 . S
C2342 N2349 1.356 . S
C2343 C2342 1.363 . S
C2343 C2346 1.363 . S
N2344 C2346 1.356 . S
N2344 H2356 0.984 . S
N2344 H2357 0.985 . S
N2345 C2347 1.356 . S
N2345 H2350 0.984 1_655 S
N2345 H2351 0.985 . S
C2346 C2340 1.379 . S
C2346 C2343 1.363 . S
C2346 N2344 1.356 . S
C2347 C2341 1.363 . S
C2347 C2342 1.379 . S
C2347 N2345 1.356 . S
N2348 C2340 1.356 . S
N2348 H2354 0.984 . S
N2348 H2355 0.984 1_655 S
N2349 C2342 1.356 . S
N2349 H2352 0.984 . S
N2349 H2353 0.985 . S
H2350 N2345 0.984 1_455 S
H2351 N2345 0.985 . S
H2352 N2349 0.984 . S
H2353 N2349 0.985 . S
H2354 N2348 0.984 . S
H2355 N2348 0.984 1_455 S
H2356 N2344 0.984 . S
H2357 N2344 0.985 . S
C2358 C2359 1.363 . S
C2358 C2364 1.379 . S
C2358 N2366 1.356 . S
C2359 C2358 1.363 . S
C2359 C2365 1.363 . S
C2360 C2361 1.363 . S
C2360 C2365 1.379 . S
C2360 N2367 1.356 . S
C2361 C2360 1.363 . S
C2361 C2364 1.363 . S
N2362 C2364 1.356 . S
N2362 H2374 0.984 . S
N2362 H2375 0.985 . S
N2363 C2365 1.356 . S
N2363 H2368 0.984 . S
N2363 H2369 0.985 . S
C2364 C2358 1.379 . S
C2364 C2361 1.363 . S
C2364 N2362 1.356 . S
C2365 C2359 1.363 . S
C2365 C2360 1.379 . S
C2365 N2363 1.356 . S
N2366 C2358 1.356 . S
N2366 H2372 0.984 . S
N2366 H2373 0.984 . S
N2367 C2360 1.356 . S
N2367 H2370 0.984 . S
N2367 H2371 0.985 . S
H2368 N2363 0.984 . S
H2369 N2363 0.985 . S
H2370 N2367 0.984 . S
H2371 N2367 0.985 . S
H2372 N2366 0.984 . S
H2373 N2366 0.984 . S
H2374 N2362 0.984 . S
H2375 N2362 0.985 . S
C2376 C2377 1.363 1_565 S
C2376 C2382 1.379 . S
C2376 N2384 1.356 . S
C2377 C2376 1.363 1_545 S
C2377 C2383 1.363 . S
C2378 C2379 1.363 . S
C2378 C2383 1.379 . S
C2378 N2385 1.356 . S
C2379 C2378 1.363 . S
C2379 C2382 1.363 1_545 S
N2380 C2382 1.356 . S
N2380 H2392 0.984 . S
N2380 H2393 0.985 . S
N2381 C2383 1.356 . S
N2381 H2386 0.984 1_455 S
N2381 H2387 0.985 . S
C2382 C2376 1.379 . S
C2382 C2379 1.363 1_565 S
C2382 N2380 1.356 . S
C2383 C2377 1.363 . S
C2383 C2378 1.379 . S
C2383 N2381 1.356 . S
N2384 C2376 1.356 . S
N2384 H2390 0.984 . S
N2384 H2391 0.984 1_455 S
N2385 C2378 1.356 . S
N2385 H2388 0.984 . S
N2385 H2389 0.985 . S
H2386 N2381 0.984 1_655 S
H2387 N2381 0.985 . S
H2388 N2385 0.984 . S
H2389 N2385 0.985 . S
H2390 N2384 0.984 . S
H2391 N2384 0.984 1_655 S
H2392 N2380 0.984 . S
H2393 N2380 0.985 . S
C2394 C2395 1.363 . S
C2394 C2400 1.379 . S
C2394 N2402 1.356 . S
C2395 C2394 1.363 . S
C2395 C2401 1.363 . S
C2396 C2397 1.363 . S
C2396 C2401 1.379 . S
C2396 N2403 1.356 . S
C2397 C2396 1.363 . S
C2397 C2400 1.363 . S
N2398 C2400 1.356 . S
N2398 H2410 0.984 . S
N2398 H2411 0.985 . S
N2399 C2401 1.356 . S
N2399 H2404 0.984 . S
N2399 H2405 0.985 . S
C2400 C2394 1.379 . S
C2400 C2397 1.363 . S
C2400 N2398 1.356 . S
C2401 C2395 1.363 . S
C2401 C2396 1.379 . S
C2401 N2399 1.356 . S
N2402 C2394 1.356 . S
N2402 H2408 0.984 . S
N2402 H2409 0.984 . S
N2403 C2396 1.356 . S
N2403 H2406 0.984 . S
N2403 H2407 0.985 . S
H2404 N2399 0.984 . S
H2405 N2399 0.985 . S
H2406 N2403 0.984 . S
H2407 N2403 0.985 . S
H2408 N2402 0.984 . S
H2409 N2402 0.984 . S
H2410 N2398 0.984 . S
H2411 N2398 0.985 . S
C2412 C2413 1.363 . S
C2412 C2418 1.379 . S
C2412 N2420 1.356 . S
C2413 C2412 1.363 . S
C2413 C2419 1.363 . S
C2414 C2415 1.363 . S
C2414 C2419 1.379 . S
C2414 N2421 1.356 . S
C2415 C2414 1.363 . S
C2415 C2418 1.363 . S
N2416 C2418 1.356 . S
N2416 H2428 0.984 . S
N2416 H2429 0.985 1_655 S
N2417 C2419 1.356 . S
N2417 H2422 0.984 . S
N2417 H2423 0.985 . S
C2418 C2412 1.379 . S
C2418 C2415 1.363 . S
C2418 N2416 1.356 . S
C2419 C2413 1.363 . S
C2419 C2414 1.379 . S
C2419 N2417 1.356 . S
N2420 C2412 1.356 . S
N2420 H2426 0.984 . S
N2420 H2427 0.984 . S
N2421 C2414 1.356 . S
N2421 H2424 0.984 1_655 S
N2421 H2425 0.985 . S
H2422 N2417 0.984 . S
H2423 N2417 0.985 . S
H2424 N2421 0.984 1_455 S
H2425 N2421 0.985 . S
H2426 N2420 0.984 . S
H2427 N2420 0.984 . S
H2428 N2416 0.984 . S
H2429 N2416 0.985 1_455 S
C2430 C2431 1.363 . S
C2430 C2436 1.379 . S
C2430 N2438 1.356 . S
C2431 C2430 1.363 . S
C2431 C2437 1.363 . S
C2432 C2433 1.363 . S
C2432 C2437 1.379 . S
C2432 N2439 1.356 . S
C2433 C2432 1.363 . S
C2433 C2436 1.363 . S
N2434 C2436 1.356 . S
N2434 H2446 0.984 . S
N2434 H2447 0.985 . S
N2435 C2437 1.356 . S
N2435 H2440 0.984 . S
N2435 H2441 0.985 . S
C2436 C2430 1.379 . S
C2436 C2433 1.363 . S
C2436 N2434 1.356 . S
C2437 C2431 1.363 . S
C2437 C2432 1.379 . S
C2437 N2435 1.356 . S
N2438 C2430 1.356 . S
N2438 H2444 0.984 . S
N2438 H2445 0.984 . S
N2439 C2432 1.356 . S
N2439 H2442 0.984 . S
N2439 H2443 0.985 . S
H2440 N2435 0.984 . S
H2441 N2435 0.985 . S
H2442 N2439 0.984 . S
H2443 N2439 0.985 . S
H2444 N2438 0.984 . S
H2445 N2438 0.984 . S
H2446 N2434 0.984 . S
H2447 N2434 0.985 . S
C2448 C2449 1.363 . S
C2448 C2454 1.379 . S
C2448 N2456 1.356 . S
C2449 C2448 1.363 . S
C2449 C2455 1.363 . S
C2450 C2451 1.363 . S
C2450 C2455 1.379 . S
C2450 N2457 1.356 . S
C2451 C2450 1.363 . S
C2451 C2454 1.363 . S
N2452 C2454 1.356 . S
N2452 H2464 0.984 . S
N2452 H2465 0.985 . S
N2453 C2455 1.356 . S
N2453 H2458 0.984 . S
N2453 H2459 0.985 . S
C2454 C2448 1.379 . S
C2454 C2451 1.363 . S
C2454 N2452 1.356 . S
C2455 C2449 1.363 . S
C2455 C2450 1.379 . S
C2455 N2453 1.356 . S
N2456 C2448 1.356 . S
N2456 H2462 0.984 . S
N2456 H2463 0.984 . S
N2457 C2450 1.356 . S
N2457 H2460 0.984 . S
N2457 H2461 0.985 . S
H2458 N2453 0.984 . S
H2459 N2453 0.985 . S
H2460 N2457 0.984 . S
H2461 N2457 0.985 . S
H2462 N2456 0.984 . S
H2463 N2456 0.984 . S
H2464 N2452 0.984 . S
H2465 N2452 0.985 . S
C2466 C2467 1.363 . S
C2466 C2472 1.379 . S
C2466 N2474 1.356 . S
C2467 C2466 1.363 . S
C2467 C2473 1.363 . S
C2468 C2469 1.363 . S
C2468 C2473 1.379 . S
C2468 N2475 1.356 . S
C2469 C2468 1.363 . S
C2469 C2472 1.363 . S
N2470 C2472 1.356 . S
N2470 H2482 0.984 . S
N2470 H2483 0.985 . S
N2471 C2473 1.356 . S
N2471 H2476 0.984 1_556 S
N2471 H2477 0.985 . S
C2472 C2466 1.379 . S
C2472 C2469 1.363 . S
C2472 N2470 1.356 . S
C2473 C2467 1.363 . S
C2473 C2468 1.379 . S
C2473 N2471 1.356 . S
N2474 C2466 1.356 . S
N2474 H2480 0.984 . S
N2474 H2481 0.984 1_556 S
N2475 C2468 1.356 . S
N2475 H2478 0.984 . S
N2475 H2479 0.985 . S
H2476 N2471 0.984 1_554 S
H2477 N2471 0.985 . S
H2478 N2475 0.984 . S
H2479 N2475 0.985 . S
H2480 N2474 0.984 . S
H2481 N2474 0.984 1_554 S
H2482 N2470 0.984 . S
H2483 N2470 0.985 . S
C2484 C2485 1.363 . S
C2484 C2490 1.379 . S
C2484 N2492 1.356 . S
C2485 C2484 1.363 . S
C2485 C2491 1.363 . S
C2486 C2487 1.363 . S
C2486 C2491 1.379 . S
C2486 N2493 1.356 . S
C2487 C2486 1.363 . S
C2487 C2490 1.363 . S
N2488 C2490 1.356 . S
N2488 H2500 0.984 . S
N2488 H2501 0.985 . S
N2489 C2491 1.356 . S
N2489 H2494 0.984 . S
N2489 H2495 0.985 . S
C2490 C2484 1.379 . S
C2490 C2487 1.363 . S
C2490 N2488 1.356 . S
C2491 C2485 1.363 . S
C2491 C2486 1.379 . S
C2491 N2489 1.356 . S
N2492 C2484 1.356 . S
N2492 H2498 0.984 . S
N2492 H2499 0.984 . S
N2493 C2486 1.356 . S
N2493 H2496 0.984 . S
N2493 H2497 0.985 . S
H2494 N2489 0.984 . S
H2495 N2489 0.985 . S
H2496 N2493 0.984 . S
H2497 N2493 0.985 . S
H2498 N2492 0.984 . S
H2499 N2492 0.984 . S
H2500 N2488 0.984 . S
H2501 N2488 0.985 . S
C2502 C2503 1.385 . S
C2502 C2508 1.377 1_655 S
C2502 N2510 1.342 1_655 S
C2503 C2502 1.385 . S
C2503 C2509 1.363 . S
C2504 C2505 1.363 . S
C2504 C2509 1.379 . S
C2504 N2511 1.356 . S
C2505 C2504 1.363 . S
C2505 C2508 1.355 1_655 S
N2506 C2508 1.364 . S
N2506 H2518 0.984 . S
N2506 H2519 0.985 . S
N2507 C2509 1.356 . S
N2507 H2512 0.984 . S
N2507 H2513 0.985 . S
C2508 C2502 1.377 1_455 S
C2508 C2505 1.355 1_455 S
C2508 N2506 1.364 . S
C2509 C2503 1.363 . S
C2509 C2504 1.379 . S
C2509 N2507 1.356 . S
N2510 C2502 1.342 1_455 S
N2510 H2516 0.984 . S
N2510 H2517 0.984 . S
N2511 C2504 1.356 . S
N2511 H2514 0.984 . S
N2511 H2515 0.985 . S
H2512 N2507 0.984 . S
H2513 N2507 0.985 . S
H2514 N2511 0.984 . S
H2515 N2511 0.985 . S
H2516 N2510 0.984 . S
H2517 N2510 0.984 . S
H2518 N2506 0.984 . S
H2519 N2506 0.985 . S
C2520 C2521 1.363 . S
C2520 C2526 1.379 . S
C2520 N2528 1.356 . S
C2521 C2520 1.363 . S
C2521 C2527 1.363 . S
C2522 C2523 1.363 . S
C2522 C2527 1.379 . S
C2522 N2529 1.356 . S
C2523 C2522 1.363 . S
C2523 C2526 1.363 . S
N2524 C2526 1.356 . S
N2524 H2536 0.984 . S
N2524 H2537 0.985 . S
N2525 C2527 1.356 . S
N2525 H2530 0.984 . S
N2525 H2531 0.985 . S
C2526 C2520 1.379 . S
C2526 C2523 1.363 . S
C2526 N2524 1.356 . S
C2527 C2521 1.363 . S
C2527 C2522 1.379 . S
C2527 N2525 1.356 . S
N2528 C2520 1.356 . S
N2528 H2534 0.984 . S
N2528 H2535 0.984 . S
N2529 C2522 1.356 . S
N2529 H2532 0.984 . S
N2529 H2533 0.985 . S
H2530 N2525 0.984 . S
H2531 N2525 0.985 . S
H2532 N2529 0.984 . S
H2533 N2529 0.985 . S
H2534 N2528 0.984 . S
H2535 N2528 0.984 . S
H2536 N2524 0.984 . S
H2537 N2524 0.985 . S
C2538 C2539 1.363 . S
C2538 C2544 1.378 1_655 S
C2538 N2546 1.356 1_655 S
C2539 C2538 1.363 . S
C2539 C2545 1.363 . S
C2540 C2541 1.363 . S
C2540 C2545 1.379 . S
C2540 N2547 1.356 . S
C2541 C2540 1.363 . S
C2541 C2544 1.360 1_655 S
N2542 C2544 1.359 . S
N2542 H2554 0.984 . S
N2542 H2555 0.985 . S
N2543 C2545 1.356 . S
N2543 H2548 0.984 1_554 S
N2543 H2549 0.985 . S
C2544 C2538 1.378 1_455 S
C2544 C2541 1.360 1_455 S
C2544 N2542 1.359 . S
C2545 C2539 1.363 . S
C2545 C2540 1.379 . S
C2545 N2543 1.356 . S
N2546 C2538 1.356 1_455 S
N2546 H2552 0.984 . S
N2546 H2553 0.984 1_554 S
N2547 C2540 1.356 . S
N2547 H2550 0.984 . S
N2547 H2551 0.985 . S
H2548 N2543 0.984 1_556 S
H2549 N2543 0.985 . S
H2550 N2547 0.984 . S
H2551 N2547 0.985 . S
H2552 N2546 0.984 . S
H2553 N2546 0.984 1_556 S
H2554 N2542 0.984 . S
H2555 N2542 0.985 . S
C2556 C2557 1.363 . S
C2556 C2562 1.379 . S
C2556 N2564 1.356 . S
C2557 C2556 1.363 . S
C2557 C2563 1.363 . S
C2558 C2559 1.363 . S
C2558 C2563 1.379 . S
C2558 N2565 1.356 . S
C2559 C2558 1.363 . S
C2559 C2562 1.363 . S
N2560 C2562 1.356 . S
N2560 H2572 0.984 . S
N2560 H2573 0.985 . S
N2561 C2563 1.356 . S
N2561 H2566 0.984 . S
N2561 H2567 0.985 . S
C2562 C2556 1.379 . S
C2562 C2559 1.363 . S
C2562 N2560 1.356 . S
C2563 C2557 1.363 . S
C2563 C2558 1.379 . S
C2563 N2561 1.356 . S
N2564 C2556 1.356 . S
N2564 H2570 0.984 . S
N2564 H2571 0.984 . S
N2565 C2558 1.356 . S
N2565 H2568 0.984 . S
N2565 H2569 0.985 . S
H2566 N2561 0.984 . S
H2567 N2561 0.985 . S
H2568 N2565 0.984 . S
H2569 N2565 0.985 . S
H2570 N2564 0.984 . S
H2571 N2564 0.984 . S
H2572 N2560 0.984 . S
H2573 N2560 0.985 . S
C2574 C2575 1.363 . S
C2574 C2580 1.379 . S
C2574 N2582 1.356 . S
C2575 C2574 1.363 . S
C2575 C2581 1.363 . S
C2576 C2577 1.363 . S
C2576 C2581 1.379 . S
C2576 N2583 1.356 . S
C2577 C2576 1.363 . S
C2577 C2580 1.363 . S
N2578 C2580 1.356 . S
N2578 H2590 0.984 . S
N2578 H2591 0.985 . S
N2579 C2581 1.356 . S
N2579 H2584 0.984 . S
N2579 H2585 0.985 . S
C2580 C2574 1.379 . S
C2580 C2577 1.363 . S
C2580 N2578 1.356 . S
C2581 C2575 1.363 . S
C2581 C2576 1.379 . S
C2581 N2579 1.356 . S
N2582 C2574 1.356 . S
N2582 H2588 0.984 . S
N2582 H2589 0.984 . S
N2583 C2576 1.356 . S
N2583 H2586 0.984 . S
N2583 H2587 0.985 . S
H2584 N2579 0.984 . S
H2585 N2579 0.985 . S
H2586 N2583 0.984 . S
H2587 N2583 0.985 . S
H2588 N2582 0.984 . S
H2589 N2582 0.984 . S
H2590 N2578 0.984 . S
H2591 N2578 0.985 . S
C2592 C2593 1.363 . S
C2592 C2598 1.379 . S
C2592 N2600 1.356 . S
C2593 C2592 1.363 . S
C2593 C2599 1.363 . S
C2594 C2595 1.363 . S
C2594 C2599 1.379 . S
C2594 N2601 1.356 . S
C2595 C2594 1.363 . S
C2595 C2598 1.363 . S
N2596 C2598 1.356 . S
N2596 H2608 0.984 . S
N2596 H2609 0.985 . S
N2597 C2599 1.356 . S
N2597 H2602 0.984 . S
N2597 H2603 0.985 . S
C2598 C2592 1.379 . S
C2598 C2595 1.363 . S
C2598 N2596 1.356 . S
C2599 C2593 1.363 . S
C2599 C2594 1.379 . S
C2599 N2597 1.356 . S
N2600 C2592 1.356 . S
N2600 H2606 0.984 . S
N2600 H2607 0.984 . S
N2601 C2594 1.356 . S
N2601 H2604 0.984 . S
N2601 H2605 0.985 . S
H2602 N2597 0.984 . S
H2603 N2597 0.985 . S
H2604 N2601 0.984 . S
H2605 N2601 0.985 . S
H2606 N2600 0.984 . S
H2607 N2600 0.984 . S
H2608 N2596 0.984 . S
H2609 N2596 0.985 . S
C2610 C2611 1.363 . S
C2610 C2616 1.379 . S
C2610 N2618 1.356 . S
C2611 C2610 1.363 . S
C2611 C2617 1.363 1_556 S
C2612 C2613 1.363 1_554 S
C2612 C2617 1.379 . S
C2612 N2619 1.356 . S
C2613 C2612 1.363 1_556 S
C2613 C2616 1.363 . S
N2614 C2616 1.356 . S
N2614 H2626 0.984 . S
N2614 H2627 0.985 . S
N2615 C2617 1.356 . S
N2615 H2620 0.984 . S
N2615 H2621 0.985 . S
C2616 C2610 1.379 . S
C2616 C2613 1.363 . S
C2616 N2614 1.356 . S
C2617 C2611 1.363 1_554 S
C2617 C2612 1.379 . S
C2617 N2615 1.356 . S
N2618 C2610 1.356 . S
N2618 H2624 0.984 . S
N2618 H2625 0.984 . S
N2619 C2612 1.356 . S
N2619 H2622 0.984 . S
N2619 H2623 0.985 . S
H2620 N2615 0.984 . S
H2621 N2615 0.985 . S
H2622 N2619 0.984 . S
H2623 N2619 0.985 . S
H2624 N2618 0.984 . S
H2625 N2618 0.984 . S
H2626 N2614 0.984 . S
H2627 N2614 0.985 . S
C2628 C2629 1.363 . S
C2628 C2634 1.379 . S
C2628 N2636 1.356 . S
C2629 C2628 1.363 . S
C2629 C2635 1.363 . S
C2630 C2631 1.363 . S
C2630 C2635 1.379 . S
C2630 N2637 1.356 . S
C2631 C2630 1.363 . S
C2631 C2634 1.363 . S
N2632 C2634 1.356 . S
N2632 H2644 0.984 . S
N2632 H2645 0.985 . S
N2633 C2635 1.356 . S
N2633 H2638 0.984 . S
N2633 H2639 0.985 . S
C2634 C2628 1.379 . S
C2634 C2631 1.363 . S
C2634 N2632 1.356 . S
C2635 C2629 1.363 . S
C2635 C2630 1.379 . S
C2635 N2633 1.356 . S
N2636 C2628 1.356 . S
N2636 H2642 0.984 . S
N2636 H2643 0.984 . S
N2637 C2630 1.356 . S
N2637 H2640 0.984 . S
N2637 H2641 0.985 . S
H2638 N2633 0.984 . S
H2639 N2633 0.985 . S
H2640 N2637 0.984 . S
H2641 N2637 0.985 . S
H2642 N2636 0.984 . S
H2643 N2636 0.984 . S
H2644 N2632 0.984 . S
H2645 N2632 0.985 . S
C2646 C2647 1.363 . S
C2646 C2652 1.379 . S
C2646 N2654 1.356 . S
C2647 C2646 1.363 . S
C2647 C2653 1.363 . S
C2648 C2649 1.363 . S
C2648 C2653 1.379 . S
C2648 N2655 1.356 . S
C2649 C2648 1.363 . S
C2649 C2652 1.363 . S
N2650 C2652 1.356 . S
N2650 H2662 0.984 . S
N2650 H2663 0.985 . S
N2651 C2653 1.356 . S
N2651 H2656 0.984 . S
N2651 H2657 0.985 . S
C2652 C2646 1.379 . S
C2652 C2649 1.363 . S
C2652 N2650 1.356 . S
C2653 C2647 1.363 . S
C2653 C2648 1.379 . S
C2653 N2651 1.356 . S
N2654 C2646 1.356 . S
N2654 H2660 0.984 . S
N2654 H2661 0.984 . S
N2655 C2648 1.356 . S
N2655 H2658 0.984 . S
N2655 H2659 0.985 . S
H2656 N2651 0.984 . S
H2657 N2651 0.985 . S
H2658 N2655 0.984 . S
H2659 N2655 0.985 . S
H2660 N2654 0.984 . S
H2661 N2654 0.984 . S
H2662 N2650 0.984 . S
H2663 N2650 0.985 . S
C2664 C2665 1.363 . S
C2664 C2670 1.379 . S
C2664 N2672 1.356 . S
C2665 C2664 1.363 . S
C2665 C2671 1.363 . S
C2666 C2667 1.363 . S
C2666 C2671 1.379 . S
C2666 N2673 1.356 . S
C2667 C2666 1.363 . S
C2667 C2670 1.363 . S
N2668 C2670 1.356 . S
N2668 H2680 0.984 . S
N2668 H2681 0.985 . S
N2669 C2671 1.356 . S
N2669 H2674 0.984 . S
N2669 H2675 0.985 . S
C2670 C2664 1.379 . S
C2670 C2667 1.363 . S
C2670 N2668 1.356 . S
C2671 C2665 1.363 . S
C2671 C2666 1.379 . S
C2671 N2669 1.356 . S
N2672 C2664 1.356 . S
N2672 H2678 0.984 . S
N2672 H2679 0.984 . S
N2673 C2666 1.356 . S
N2673 H2676 0.984 . S
N2673 H2677 0.985 . S
H2674 N2669 0.984 . S
H2675 N2669 0.985 . S
H2676 N2673 0.984 . S
H2677 N2673 0.985 . S
H2678 N2672 0.984 . S
H2679 N2672 0.984 . S
H2680 N2668 0.984 . S
H2681 N2668 0.985 . S
C2682 C2683 1.363 1_556 S
C2682 C2688 1.379 . S
C2682 N2690 1.356 . S
C2683 C2682 1.363 1_554 S
C2683 C2689 1.363 . S
C2684 C2685 1.363 . S
C2684 C2689 1.379 . S
C2684 N2691 1.356 . S
C2685 C2684 1.363 . S
C2685 C2688 1.363 1_554 S
N2686 C2688 1.356 . S
N2686 H2698 0.984 . S
N2686 H2699 0.985 . S
N2687 C2689 1.356 . S
N2687 H2692 0.984 . S
N2687 H2693 0.985 . S
C2688 C2682 1.379 . S
C2688 C2685 1.363 1_556 S
C2688 N2686 1.356 . S
C2689 C2683 1.363 . S
C2689 C2684 1.379 . S
C2689 N2687 1.356 . S
N2690 C2682 1.356 . S
N2690 H2696 0.984 . S
N2690 H2697 0.984 . S
N2691 C2684 1.356 . S
N2691 H2694 0.984 . S
N2691 H2695 0.985 . S
H2692 N2687 0.984 . S
H2693 N2687 0.985 . S
H2694 N2691 0.984 . S
H2695 N2691 0.985 . S
H2696 N2690 0.984 . S
H2697 N2690 0.984 . S
H2698 N2686 0.984 . S
H2699 N2686 0.985 . S
C2700 C2701 1.363 . S
C2700 C2706 1.379 . S
C2700 N2708 1.356 . S
C2701 C2700 1.363 . S
C2701 C2707 1.363 . S
C2702 C2703 1.363 . S
C2702 C2707 1.379 . S
C2702 N2709 1.356 . S
C2703 C2702 1.363 . S
C2703 C2706 1.363 . S
N2704 C2706 1.356 . S
N2704 H2716 0.984 . S
N2704 H2717 0.985 . S
N2705 C2707 1.356 . S
N2705 H2710 0.984 . S
N2705 H2711 0.985 . S
C2706 C2700 1.379 . S
C2706 C2703 1.363 . S
C2706 N2704 1.356 . S
C2707 C2701 1.363 . S
C2707 C2702 1.379 . S
C2707 N2705 1.356 . S
N2708 C2700 1.356 . S
N2708 H2714 0.984 . S
N2708 H2715 0.984 . S
N2709 C2702 1.356 . S
N2709 H2712 0.984 . S
N2709 H2713 0.985 . S
H2710 N2705 0.984 . S
H2711 N2705 0.985 . S
H2712 N2709 0.984 . S
H2713 N2709 0.985 . S
H2714 N2708 0.984 . S
H2715 N2708 0.984 . S
H2716 N2704 0.984 . S
H2717 N2704 0.985 . S
C2718 C2719 1.363 . S
C2718 C2724 1.379 . S
C2718 N2726 1.356 . S
C2719 C2718 1.363 . S
C2719 C2725 1.363 . S
C2720 C2721 1.363 . S
C2720 C2725 1.379 . S
C2720 N2727 1.356 . S
C2721 C2720 1.363 . S
C2721 C2724 1.363 . S
N2722 C2724 1.356 . S
N2722 H2734 0.984 . S
N2722 H2735 0.985 . S
N2723 C2725 1.356 . S
N2723 H2728 0.984 . S
N2723 H2729 0.985 . S
C2724 C2718 1.379 . S
C2724 C2721 1.363 . S
C2724 N2722 1.356 . S
C2725 C2719 1.363 . S
C2725 C2720 1.379 . S
C2725 N2723 1.356 . S
N2726 C2718 1.356 . S
N2726 H2732 0.984 . S
N2726 H2733 0.984 . S
N2727 C2720 1.356 . S
N2727 H2730 0.984 . S
N2727 H2731 0.985 . S
H2728 N2723 0.984 . S
H2729 N2723 0.985 . S
H2730 N2727 0.984 . S
H2731 N2727 0.985 . S
H2732 N2726 0.984 . S
H2733 N2726 0.984 . S
H2734 N2722 0.984 . S
H2735 N2722 0.985 . S
C2736 C2737 1.363 . S
C2736 C2742 1.379 . S
C2736 N2744 1.356 . S
C2737 C2736 1.363 . S
C2737 C2743 1.363 . S
C2738 C2739 1.363 . S
C2738 C2743 1.379 . S
C2738 N2745 1.356 . S
C2739 C2738 1.363 . S
C2739 C2742 1.363 . S
N2740 C2742 1.356 . S
N2740 H2752 0.984 . S
N2740 H2753 0.985 . S
N2741 C2743 1.356 . S
N2741 H2746 0.984 . S
N2741 H2747 0.985 . S
C2742 C2736 1.379 . S
C2742 C2739 1.363 . S
C2742 N2740 1.356 . S
C2743 C2737 1.363 . S
C2743 C2738 1.379 . S
C2743 N2741 1.356 . S
N2744 C2736 1.356 . S
N2744 H2750 0.984 . S
N2744 H2751 0.984 . S
N2745 C2738 1.356 . S
N2745 H2748 0.984 . S
N2745 H2749 0.985 . S
H2746 N2741 0.984 . S
H2747 N2741 0.985 . S
H2748 N2745 0.984 . S
H2749 N2745 0.985 . S
H2750 N2744 0.984 . S
H2751 N2744 0.984 . S
H2752 N2740 0.984 . S
H2753 N2740 0.985 . S
C2754 C2755 1.363 . S
C2754 C2760 1.379 . S
C2754 N2762 1.356 . S
C2755 C2754 1.363 . S
C2755 C2761 1.363 . S
C2756 C2757 1.363 . S
C2756 C2761 1.379 . S
C2756 N2763 1.356 . S
C2757 C2756 1.363 . S
C2757 C2760 1.363 . S
N2758 C2760 1.356 . S
N2758 H2770 0.984 . S
N2758 H2771 0.985 . S
N2759 C2761 1.356 . S
N2759 H2764 0.984 . S
N2759 H2765 0.985 . S
C2760 C2754 1.379 . S
C2760 C2757 1.363 . S
C2760 N2758 1.356 . S
C2761 C2755 1.363 . S
C2761 C2756 1.379 . S
C2761 N2759 1.356 . S
N2762 C2754 1.356 . S
N2762 H2768 0.984 . S
N2762 H2769 0.984 . S
N2763 C2756 1.356 . S
N2763 H2766 0.984 . S
N2763 H2767 0.985 . S
H2764 N2759 0.984 . S
H2765 N2759 0.985 . S
H2766 N2763 0.984 . S
H2767 N2763 0.985 . S
H2768 N2762 0.984 . S
H2769 N2762 0.984 . S
H2770 N2758 0.984 . S
H2771 N2758 0.985 . S
C2772 C2773 1.363 . S
C2772 C2778 1.379 . S
C2772 N2780 1.356 . S
C2773 C2772 1.363 . S
C2773 C2779 1.365 . S
C2774 C2775 1.363 1_545 S
C2774 C2779 1.379 1_545 S
C2774 N2781 1.356 . S
C2775 C2774 1.363 1_565 S
C2775 C2778 1.363 . S
N2776 C2778 1.356 . S
N2776 H2788 0.984 . S
N2776 H2789 0.985 . S
N2777 C2779 1.355 1_545 S
N2777 H2782 0.984 . S
N2777 H2783 0.985 . S
C2778 C2772 1.379 . S
C2778 C2775 1.363 . S
C2778 N2776 1.356 . S
C2779 C2773 1.365 . S
C2779 C2774 1.379 1_565 S
C2779 N2777 1.355 1_565 S
N2780 C2772 1.356 . S
N2780 H2786 0.984 . S
N2780 H2787 0.984 . S
N2781 C2774 1.356 . S
N2781 H2784 0.984 . S
N2781 H2785 0.985 . S
H2782 N2777 0.984 . S
H2783 N2777 0.985 . S
H2784 N2781 0.984 . S
H2785 N2781 0.985 . S
H2786 N2780 0.984 . S
H2787 N2780 0.984 . S
H2788 N2776 0.984 . S
H2789 N2776 0.985 . S
C2790 C2791 1.363 . S
C2790 C2796 1.379 . S
C2790 N2798 1.356 . S
C2791 C2790 1.363 . S
C2791 C2797 1.363 . S
C2792 C2793 1.363 . S
C2792 C2797 1.379 . S
C2792 N2799 1.356 . S
C2793 C2792 1.363 . S
C2793 C2796 1.363 . S
N2794 C2796 1.356 . S
N2794 H2806 0.984 . S
N2794 H2807 0.985 . S
N2795 C2797 1.356 . S
N2795 H2800 0.984 . S
N2795 H2801 0.985 . S
C2796 C2790 1.379 . S
C2796 C2793 1.363 . S
C2796 N2794 1.356 . S
C2797 C2791 1.363 . S
C2797 C2792 1.379 . S
C2797 N2795 1.356 . S
N2798 C2790 1.356 . S
N2798 H2804 0.984 . S
N2798 H2805 0.984 . S
N2799 C2792 1.356 . S
N2799 H2802 0.984 . S
N2799 H2803 0.985 . S
H2800 N2795 0.984 . S
H2801 N2795 0.985 . S
H2802 N2799 0.984 . S
H2803 N2799 0.985 . S
H2804 N2798 0.984 . S
H2805 N2798 0.984 . S
H2806 N2794 0.984 . S
H2807 N2794 0.985 . S
C2808 C2809 1.363 . S
C2808 C2814 1.379 . S
C2808 N2816 1.356 . S
C2809 C2808 1.363 . S
C2809 C2815 1.363 . S
C2810 C2811 1.363 . S
C2810 C2815 1.379 . S
C2810 N2817 1.356 . S
C2811 C2810 1.363 . S
C2811 C2814 1.363 . S
N2812 C2814 1.356 . S
N2812 H2824 0.984 . S
N2812 H2825 0.985 . S
N2813 C2815 1.356 . S
N2813 H2818 0.984 . S
N2813 H2819 0.985 . S
C2814 C2808 1.379 . S
C2814 C2811 1.363 . S
C2814 N2812 1.356 . S
C2815 C2809 1.363 . S
C2815 C2810 1.379 . S
C2815 N2813 1.356 . S
N2816 C2808 1.356 . S
N2816 H2822 0.984 . S
N2816 H2823 0.984 . S
N2817 C2810 1.356 . S
N2817 H2820 0.984 . S
N2817 H2821 0.985 . S
H2818 N2813 0.984 . S
H2819 N2813 0.985 . S
H2820 N2817 0.984 . S
H2821 N2817 0.985 . S
H2822 N2816 0.984 . S
H2823 N2816 0.984 . S
H2824 N2812 0.984 . S
H2825 N2812 0.985 . S
C2826 C2827 1.363 . S
C2826 C2832 1.379 . S
C2826 N2834 1.356 . S
C2827 C2826 1.363 . S
C2827 C2833 1.363 . S
C2828 C2829 1.363 . S
C2828 C2833 1.379 . S
C2828 N2835 1.356 . S
C2829 C2828 1.363 . S
C2829 C2832 1.363 . S
N2830 C2832 1.356 . S
N2830 H2842 0.984 . S
N2830 H2843 0.985 . S
N2831 C2833 1.356 . S
N2831 H2836 0.984 . S
N2831 H2837 0.985 . S
C2832 C2826 1.379 . S
C2832 C2829 1.363 . S
C2832 N2830 1.356 . S
C2833 C2827 1.363 . S
C2833 C2828 1.379 . S
C2833 N2831 1.356 . S
N2834 C2826 1.356 . S
N2834 H2840 0.984 . S
N2834 H2841 0.984 . S
N2835 C2828 1.356 . S
N2835 H2838 0.984 . S
N2835 H2839 0.985 . S
H2836 N2831 0.984 . S
H2837 N2831 0.985 . S
H2838 N2835 0.984 . S
H2839 N2835 0.985 . S
H2840 N2834 0.984 . S
H2841 N2834 0.984 . S
H2842 N2830 0.984 . S
H2843 N2830 0.985 . S
C2844 C2845 1.363 1_565 S
C2844 C2850 1.379 . S
C2844 N2852 1.356 . S
C2845 C2844 1.363 1_545 S
C2845 C2851 1.363 . S
C2846 C2847 1.363 . S
C2846 C2851 1.379 . S
C2846 N2853 1.356 . S
C2847 C2846 1.363 . S
C2847 C2850 1.363 1_545 S
N2848 C2850 1.356 . S
N2848 H2860 0.984 . S
N2848 H2861 0.985 . S
N2849 C2851 1.356 . S
N2849 H2854 0.984 . S
N2849 H2855 0.985 . S
C2850 C2844 1.379 . S
C2850 C2847 1.363 1_565 S
C2850 N2848 1.356 . S
C2851 C2845 1.363 . S
C2851 C2846 1.379 . S
C2851 N2849 1.356 . S
N2852 C2844 1.356 . S
N2852 H2858 0.984 . S
N2852 H2859 0.984 . S
N2853 C2846 1.356 . S
N2853 H2856 0.984 . S
N2853 H2857 0.985 . S
H2854 N2849 0.984 . S
H2855 N2849 0.985 . S
H2856 N2853 0.984 . S
H2857 N2853 0.985 . S
H2858 N2852 0.984 . S
H2859 N2852 0.984 . S
H2860 N2848 0.984 . S
H2861 N2848 0.985 . S
C2862 C2863 1.363 . S
C2862 C2868 1.379 . S
C2862 N2870 1.356 . S
C2863 C2862 1.363 . S
C2863 C2869 1.363 . S
C2864 C2865 1.363 . S
C2864 C2869 1.379 . S
C2864 N2871 1.356 . S
C2865 C2864 1.363 . S
C2865 C2868 1.363 . S
N2866 C2868 1.356 . S
N2866 H2878 0.984 . S
N2866 H2879 0.985 . S
N2867 C2869 1.356 . S
N2867 H2872 0.984 1_455 S
N2867 H2873 0.985 . S
C2868 C2862 1.379 . S
C2868 C2865 1.363 . S
C2868 N2866 1.356 . S
C2869 C2863 1.363 . S
C2869 C2864 1.379 . S
C2869 N2867 1.356 . S
N2870 C2862 1.356 . S
N2870 H2876 0.984 . S
N2870 H2877 0.984 1_455 S
N2871 C2864 1.356 . S
N2871 H2874 0.984 . S
N2871 H2875 0.987 . S
H2872 N2867 0.984 1_655 S
H2873 N2867 0.985 . S
H2874 N2871 0.984 . S
H2875 N2871 0.987 . S
H2876 N2870 0.984 . S
H2877 N2870 0.984 1_655 S
H2878 N2866 0.984 . S
H2879 N2866 0.985 . S
C2880 C2881 1.363 . S
C2880 C2886 1.379 . S
C2880 N2888 1.356 . S
C2881 C2880 1.363 . S
C2881 C2887 1.363 . S
C2882 C2883 1.363 . S
C2882 C2887 1.379 . S
C2882 N2889 1.356 . S
C2883 C2882 1.363 . S
C2883 C2886 1.363 . S
N2884 C2886 1.356 . S
N2884 H2896 0.984 . S
N2884 H2897 0.985 . S
N2885 C2887 1.356 . S
N2885 H2890 0.984 . S
N2885 H2891 0.985 . S
C2886 C2880 1.379 . S
C2886 C2883 1.363 . S
C2886 N2884 1.356 . S
C2887 C2881 1.363 . S
C2887 C2882 1.379 . S
C2887 N2885 1.356 . S
N2888 C2880 1.356 . S
N2888 H2894 0.984 . S
N2888 H2895 0.984 . S
N2889 C2882 1.356 . S
N2889 H2892 0.984 . S
N2889 H2893 0.985 . S
H2890 N2885 0.984 . S
H2891 N2885 0.985 . S
H2892 N2889 0.984 . S
H2893 N2889 0.985 . S
H2894 N2888 0.984 . S
H2895 N2888 0.984 . S
H2896 N2884 0.984 . S
H2897 N2884 0.985 . S
C2898 C2899 1.363 . S
C2898 C2904 1.379 . S
C2898 N2906 1.356 . S
C2899 C2898 1.363 . S
C2899 C2905 1.363 . S
C2900 C2901 1.363 . S
C2900 C2905 1.379 . S
C2900 N2907 1.356 . S
C2901 C2900 1.363 . S
C2901 C2904 1.363 . S
N2902 C2904 1.356 . S
N2902 H2914 0.984 . S
N2902 H2915 0.985 . S
N2903 C2905 1.356 . S
N2903 H2908 0.984 . S
N2903 H2909 0.985 . S
C2904 C2898 1.379 . S
C2904 C2901 1.363 . S
C2904 N2902 1.356 . S
C2905 C2899 1.363 . S
C2905 C2900 1.379 . S
C2905 N2903 1.356 . S
N2906 C2898 1.356 . S
N2906 H2912 0.984 . S
N2906 H2913 0.984 . S
N2907 C2900 1.356 . S
N2907 H2910 0.984 . S
N2907 H2911 0.985 . S
H2908 N2903 0.984 . S
H2909 N2903 0.985 . S
H2910 N2907 0.984 . S
H2911 N2907 0.985 . S
H2912 N2906 0.984 . S
H2913 N2906 0.984 . S
H2914 N2902 0.984 . S
H2915 N2902 0.985 . S
C2916 C2917 1.363 . S
C2916 C2922 1.379 . S
C2916 N2924 1.356 . S
C2917 C2916 1.363 . S
C2917 C2923 1.363 . S
C2918 C2919 1.363 . S
C2918 C2923 1.379 . S
C2918 N2925 1.356 . S
C2919 C2918 1.363 . S
C2919 C2922 1.363 . S
N2920 C2922 1.356 . S
N2920 H2932 0.984 . S
N2920 H2933 0.985 . S
N2921 C2923 1.356 . S
N2921 H2926 0.984 . S
N2921 H2927 0.985 . S
C2922 C2916 1.379 . S
C2922 C2919 1.363 . S
C2922 N2920 1.356 . S
C2923 C2917 1.363 . S
C2923 C2918 1.379 . S
C2923 N2921 1.356 . S
N2924 C2916 1.356 . S
N2924 H2930 0.984 . S
N2924 H2931 0.984 . S
N2925 C2918 1.356 . S
N2925 H2928 0.984 . S
N2925 H2929 0.985 . S
H2926 N2921 0.984 . S
H2927 N2921 0.985 . S
H2928 N2925 0.984 . S
H2929 N2925 0.985 . S
H2930 N2924 0.984 . S
H2931 N2924 0.984 . S
H2932 N2920 0.984 . S
H2933 N2920 0.985 . S
C2934 C2935 1.363 . S
C2934 C2940 1.379 . S
C2934 N2942 1.356 . S
C2935 C2934 1.363 . S
C2935 C2941 1.363 . S
C2936 C2937 1.363 . S
C2936 C2941 1.379 . S
C2936 N2943 1.356 . S
C2937 C2936 1.363 . S
C2937 C2940 1.363 . S
N2938 C2940 1.356 . S
N2938 H2950 0.984 . S
N2938 H2951 0.985 . S
N2939 C2941 1.356 . S
N2939 H2944 0.984 . S
N2939 H2945 0.985 . S
C2940 C2934 1.379 . S
C2940 C2937 1.363 . S
C2940 N2938 1.356 . S
C2941 C2935 1.363 . S
C2941 C2936 1.379 . S
C2941 N2939 1.356 . S
N2942 C2934 1.356 . S
N2942 H2948 0.984 . S
N2942 H2949 0.984 . S
N2943 C2936 1.356 . S
N2943 H2946 0.984 . S
N2943 H2947 0.985 . S
H2944 N2939 0.984 . S
H2945 N2939 0.985 . S
H2946 N2943 0.984 . S
H2947 N2943 0.985 . S
H2948 N2942 0.984 . S
H2949 N2942 0.984 . S
H2950 N2938 0.984 . S
H2951 N2938 0.985 . S
C2952 C2953 1.363 . S
C2952 C2958 1.379 . S
C2952 N2960 1.356 . S
C2953 C2952 1.363 . S
C2953 C2959 1.363 . S
C2954 C2955 1.363 . S
C2954 C2959 1.379 . S
C2954 N2961 1.356 . S
C2955 C2954 1.363 . S
C2955 C2958 1.363 . S
N2956 C2958 1.356 . S
N2956 H2968 0.984 . S
N2956 H2969 0.985 . S
N2957 C2959 1.356 . S
N2957 H2962 0.984 . S
N2957 H2963 0.985 . S
C2958 C2952 1.379 . S
C2958 C2955 1.363 . S
C2958 N2956 1.356 . S
C2959 C2953 1.363 . S
C2959 C2954 1.379 . S
C2959 N2957 1.356 . S
N2960 C2952 1.356 . S
N2960 H2966 0.984 . S
N2960 H2967 0.984 . S
N2961 C2954 1.356 . S
N2961 H2964 0.984 . S
N2961 H2965 0.985 . S
H2962 N2957 0.984 . S
H2963 N2957 0.985 . S
H2964 N2961 0.984 . S
H2965 N2961 0.985 . S
H2966 N2960 0.984 . S
H2967 N2960 0.984 . S
H2968 N2956 0.984 . S
H2969 N2956 0.985 . S
C2970 C2971 1.363 . S
C2970 C2976 1.379 . S
C2970 N2978 1.356 . S
C2971 C2970 1.363 . S
C2971 C2977 1.363 . S
C2972 C2973 1.363 . S
C2972 C2977 1.379 . S
C2972 N2979 1.356 . S
C2973 C2972 1.363 . S
C2973 C2976 1.363 . S
N2974 C2976 1.356 . S
N2974 H2986 0.984 . S
N2974 H2987 0.985 . S
N2975 C2977 1.356 . S
N2975 H2980 0.984 . S
N2975 H2981 0.985 . S
C2976 C2970 1.379 . S
C2976 C2973 1.363 . S
C2976 N2974 1.356 . S
C2977 C2971 1.363 . S
C2977 C2972 1.379 . S
C2977 N2975 1.356 . S
N2978 C2970 1.356 . S
N2978 H2984 0.984 . S
N2978 H2985 0.984 . S
N2979 C2972 1.356 . S
N2979 H2982 0.984 . S
N2979 H2983 0.985 . S
H2980 N2975 0.984 . S
H2981 N2975 0.985 . S
H2982 N2979 0.984 . S
H2983 N2979 0.985 . S
H2984 N2978 0.984 . S
H2985 N2978 0.984 . S
H2986 N2974 0.984 . S
H2987 N2974 0.985 . S
C2988 C2989 1.363 . S
C2988 C2994 1.379 . S
C2988 N2996 1.356 . S
C2989 C2988 1.363 . S
C2989 C2995 1.363 . S
C2990 C2991 1.363 . S
C2990 C2995 1.379 . S
C2990 N2997 1.356 . S
C2991 C2990 1.363 . S
C2991 C2994 1.363 . S
N2992 C2994 1.356 . S
N2992 H3004 0.984 . S
N2992 H3005 0.985 . S
N2993 C2995 1.356 . S
N2993 H2998 0.984 . S
N2993 H2999 0.985 . S
C2994 C2988 1.379 . S
C2994 C2991 1.363 . S
C2994 N2992 1.356 . S
C2995 C2989 1.363 . S
C2995 C2990 1.379 . S
C2995 N2993 1.356 . S
N2996 C2988 1.356 . S
N2996 H3002 0.984 . S
N2996 H3003 0.984 . S
N2997 C2990 1.356 . S
N2997 H3000 0.984 . S
N2997 H3001 0.985 . S
H2998 N2993 0.984 . S
H2999 N2993 0.985 . S
H3000 N2997 0.984 . S
H3001 N2997 0.985 . S
H3002 N2996 0.984 . S
H3003 N2996 0.984 . S
H3004 N2992 0.984 . S
H3005 N2992 0.985 . S
C3006 C3007 1.363 . S
C3006 C3012 1.379 . S
C3006 N3014 1.356 . S
C3007 C3006 1.363 . S
C3007 C3013 1.363 . S
C3008 C3009 1.363 . S
C3008 C3013 1.379 . S
C3008 N3015 1.356 . S
C3009 C3008 1.363 . S
C3009 C3012 1.363 . S
N3010 C3012 1.356 . S
N3010 H3022 0.984 . S
N3010 H3023 0.985 . S
N3011 C3013 1.356 . S
N3011 H3016 0.984 . S
N3011 H3017 0.985 . S
C3012 C3006 1.379 . S
C3012 C3009 1.363 . S
C3012 N3010 1.356 . S
C3013 C3007 1.363 . S
C3013 C3008 1.379 . S
C3013 N3011 1.356 . S
N3014 C3006 1.356 . S
N3014 H3020 0.984 . S
N3014 H3021 0.984 . S
N3015 C3008 1.356 . S
N3015 H3018 0.984 . S
N3015 H3019 0.985 . S
H3016 N3011 0.984 . S
H3017 N3011 0.985 . S
H3018 N3015 0.984 . S
H3019 N3015 0.985 . S
H3020 N3014 0.984 . S
H3021 N3014 0.984 . S
H3022 N3010 0.984 . S
H3023 N3010 0.985 . S
C3024 C3025 1.363 . S
C3024 C3030 1.379 . S
C3024 N3032 1.356 . S
C3025 C3024 1.363 . S
C3025 C3031 1.363 . S
C3026 C3027 1.363 . S
C3026 C3031 1.379 . S
C3026 N3033 1.356 . S
C3027 C3026 1.363 . S
C3027 C3030 1.363 . S
N3028 C3030 1.356 . S
N3028 H3040 0.984 . S
N3028 H3041 0.985 . S
N3029 C3031 1.356 . S
N3029 H3034 0.984 . S
N3029 H3035 0.985 . S
C3030 C3024 1.379 . S
C3030 C3027 1.363 . S
C3030 N3028 1.356 . S
C3031 C3025 1.363 . S
C3031 C3026 1.379 . S
C3031 N3029 1.356 . S
N3032 C3024 1.356 . S
N3032 H3038 0.984 . S
N3032 H3039 0.984 . S
N3033 C3026 1.356 . S
N3033 H3036 0.984 . S
N3033 H3037 0.985 . S
H3034 N3029 0.984 . S
H3035 N3029 0.985 . S
H3036 N3033 0.984 . S
H3037 N3033 0.985 . S
H3038 N3032 0.984 . S
H3039 N3032 0.984 . S
H3040 N3028 0.984 . S
H3041 N3028 0.985 . S
C3042 C3043 1.363 . S
C3042 C3048 1.379 . S
C3042 N3050 1.356 . S
C3043 C3042 1.363 . S
C3043 C3049 1.363 . S
C3044 C3045 1.363 . S
C3044 C3049 1.379 . S
C3044 N3051 1.356 . S
C3045 C3044 1.363 . S
C3045 C3048 1.363 . S
N3046 C3048 1.356 . S
N3046 H3058 0.984 . S
N3046 H3059 0.985 . S
N3047 C3049 1.356 . S
N3047 H3052 0.984 . S
N3047 H3053 0.985 . S
C3048 C3042 1.379 . S
C3048 C3045 1.363 . S
C3048 N3046 1.356 . S
C3049 C3043 1.363 . S
C3049 C3044 1.379 . S
C3049 N3047 1.356 . S
N3050 C3042 1.356 . S
N3050 H3056 0.984 . S
N3050 H3057 0.984 . S
N3051 C3044 1.356 . S
N3051 H3054 0.984 . S
N3051 H3055 0.985 . S
H3052 N3047 0.984 . S
H3053 N3047 0.985 . S
H3054 N3051 0.984 . S
H3055 N3051 0.985 . S
H3056 N3050 0.984 . S
H3057 N3050 0.984 . S
H3058 N3046 0.984 . S
H3059 N3046 0.985 . S
C3060 C3061 1.363 . S
C3060 C3066 1.379 . S
C3060 N3068 1.356 . S
C3061 C3060 1.363 . S
C3061 C3067 1.363 . S
C3062 C3063 1.363 . S
C3062 C3067 1.379 . S
C3062 N3069 1.356 . S
C3063 C3062 1.363 . S
C3063 C3066 1.363 . S
N3064 C3066 1.356 . S
N3064 H3076 0.984 . S
N3064 H3077 0.985 . S
N3065 C3067 1.356 . S
N3065 H3070 0.984 . S
N3065 H3071 0.985 . S
C3066 C3060 1.379 . S
C3066 C3063 1.363 . S
C3066 N3064 1.356 . S
C3067 C3061 1.363 . S
C3067 C3062 1.379 . S
C3067 N3065 1.356 . S
N3068 C3060 1.356 . S
N3068 H3074 0.984 . S
N3068 H3075 0.984 . S
N3069 C3062 1.356 . S
N3069 H3072 0.984 . S
N3069 H3073 0.985 . S
H3070 N3065 0.984 . S
H3071 N3065 0.985 . S
H3072 N3069 0.984 . S
H3073 N3069 0.985 . S
H3074 N3068 0.984 . S
H3075 N3068 0.984 . S
H3076 N3064 0.984 . S
H3077 N3064 0.985 . S
C3078 C3079 1.363 . S
C3078 C3084 1.379 . S
C3078 N3086 1.356 . S
C3079 C3078 1.363 . S
C3079 C3085 1.363 . S
C3080 C3081 1.363 . S
C3080 C3085 1.379 . S
C3080 N3087 1.356 . S
C3081 C3080 1.363 . S
C3081 C3084 1.363 . S
N3082 C3084 1.356 . S
N3082 H3094 0.984 . S
N3082 H3095 0.985 . S
N3083 C3085 1.356 . S
N3083 H3088 0.984 . S
N3083 H3089 0.985 . S
C3084 C3078 1.379 . S
C3084 C3081 1.363 . S
C3084 N3082 1.356 . S
C3085 C3079 1.363 . S
C3085 C3080 1.379 . S
C3085 N3083 1.356 . S
N3086 C3078 1.356 . S
N3086 H3092 0.984 . S
N3086 H3093 0.984 . S
N3087 C3080 1.356 . S
N3087 H3090 0.984 . S
N3087 H3091 0.985 . S
H3088 N3083 0.984 . S
H3089 N3083 0.985 . S
H3090 N3087 0.984 . S
H3091 N3087 0.985 . S
H3092 N3086 0.984 . S
H3093 N3086 0.984 . S
H3094 N3082 0.984 . S
H3095 N3082 0.985 . S
C3096 C3097 1.363 . S
C3096 C3102 1.379 . S
C3096 N3104 1.356 . S
C3097 C3096 1.363 . S
C3097 C3103 1.363 . S
C3098 C3099 1.363 . S
C3098 C3103 1.379 . S
C3098 N3105 1.356 . S
C3099 C3098 1.363 . S
C3099 C3102 1.363 . S
N3100 C3102 1.356 . S
N3100 H3112 0.984 . S
N3100 H3113 0.985 . S
N3101 C3103 1.356 . S
N3101 H3106 0.984 . S
N3101 H3107 0.985 . S
C3102 C3096 1.379 . S
C3102 C3099 1.363 . S
C3102 N3100 1.356 . S
C3103 C3097 1.363 . S
C3103 C3098 1.379 . S
C3103 N3101 1.356 . S
N3104 C3096 1.356 . S
N3104 H3110 0.984 . S
N3104 H3111 0.984 . S
N3105 C3098 1.356 . S
N3105 H3108 0.984 . S
N3105 H3109 0.985 . S
H3106 N3101 0.984 . S
H3107 N3101 0.985 . S
H3108 N3105 0.984 . S
H3109 N3105 0.985 . S
H3110 N3104 0.984 . S
H3111 N3104 0.984 . S
H3112 N3100 0.984 . S
H3113 N3100 0.985 . S
C3114 C3115 1.363 . S
C3114 C3120 1.379 . S
C3114 N3122 1.356 . S
C3115 C3114 1.363 . S
C3115 C3121 1.363 . S
C3116 C3117 1.363 . S
C3116 C3121 1.379 . S
C3116 N3123 1.356 . S
C3117 C3116 1.363 . S
C3117 C3120 1.363 . S
N3118 C3120 1.356 . S
N3118 H3130 0.984 . S
N3118 H3131 0.985 . S
N3119 C3121 1.356 . S
N3119 H3124 0.984 . S
N3119 H3125 0.985 . S
C3120 C3114 1.379 . S
C3120 C3117 1.363 . S
C3120 N3118 1.356 . S
C3121 C3115 1.363 . S
C3121 C3116 1.379 . S
C3121 N3119 1.356 . S
N3122 C3114 1.356 . S
N3122 H3128 0.984 . S
N3122 H3129 0.984 . S
N3123 C3116 1.356 . S
N3123 H3126 0.984 . S
N3123 H3127 0.985 . S
H3124 N3119 0.984 . S
H3125 N3119 0.985 . S
H3126 N3123 0.984 . S
H3127 N3123 0.985 . S
H3128 N3122 0.984 . S
H3129 N3122 0.984 . S
H3130 N3118 0.984 . S
H3131 N3118 0.985 . S
C3132 C3133 1.363 . S
C3132 C3138 1.379 . S
C3132 N3140 1.356 . S
C3133 C3132 1.363 . S
C3133 C3139 1.363 . S
C3134 C3135 1.363 . S
C3134 C3139 1.379 . S
C3134 N3141 1.356 . S
C3135 C3134 1.363 . S
C3135 C3138 1.363 . S
N3136 C3138 1.356 . S
N3136 H3148 0.984 . S
N3136 H3149 0.985 . S
N3137 C3139 1.356 . S
N3137 H3142 0.984 . S
N3137 H3143 0.985 . S
C3138 C3132 1.379 . S
C3138 C3135 1.363 . S
C3138 N3136 1.356 . S
C3139 C3133 1.363 . S
C3139 C3134 1.379 . S
C3139 N3137 1.356 . S
N3140 C3132 1.356 . S
N3140 H3146 0.984 . S
N3140 H3147 0.984 . S
N3141 C3134 1.356 . S
N3141 H3144 0.984 . S
N3141 H3145 0.985 . S
H3142 N3137 0.984 . S
H3143 N3137 0.985 . S
H3144 N3141 0.984 . S
H3145 N3141 0.985 . S
H3146 N3140 0.984 . S
H3147 N3140 0.984 . S
H3148 N3136 0.984 . S
H3149 N3136 0.985 . S
C3150 C3151 1.363 . S
C3150 C3156 1.379 . S
C3150 N3158 1.356 . S
C3151 C3150 1.363 . S
C3151 C3157 1.363 . S
C3152 C3153 1.363 . S
C3152 C3157 1.379 . S
C3152 N3159 1.356 . S
C3153 C3152 1.363 . S
C3153 C3156 1.363 . S
N3154 C3156 1.356 . S
N3154 H3166 0.984 . S
N3154 H3167 0.985 . S
N3155 C3157 1.356 . S
N3155 H3160 0.984 . S
N3155 H3161 0.985 . S
C3156 C3150 1.379 . S
C3156 C3153 1.363 . S
C3156 N3154 1.356 . S
C3157 C3151 1.363 . S
C3157 C3152 1.379 . S
C3157 N3155 1.356 . S
N3158 C3150 1.356 . S
N3158 H3164 0.984 . S
N3158 H3165 0.984 . S
N3159 C3152 1.356 . S
N3159 H3162 0.984 . S
N3159 H3163 0.985 . S
H3160 N3155 0.984 . S
H3161 N3155 0.985 . S
H3162 N3159 0.984 . S
H3163 N3159 0.985 . S
H3164 N3158 0.984 . S
H3165 N3158 0.984 . S
H3166 N3154 0.984 . S
H3167 N3154 0.985 . S
C3168 C3169 1.363 . S
C3168 C3174 1.379 . S
C3168 N3176 1.356 . S
C3169 C3168 1.363 . S
C3169 C3175 1.363 . S
C3170 C3171 1.363 . S
C3170 C3175 1.379 . S
C3170 N3177 1.356 . S
C3171 C3170 1.363 . S
C3171 C3174 1.363 . S
N3172 C3174 1.356 . S
N3172 H3184 0.984 . S
N3172 H3185 0.985 . S
N3173 C3175 1.356 . S
N3173 H3178 0.984 . S
N3173 H3179 0.985 . S
C3174 C3168 1.379 . S
C3174 C3171 1.363 . S
C3174 N3172 1.356 . S
C3175 C3169 1.363 . S
C3175 C3170 1.379 . S
C3175 N3173 1.356 . S
N3176 C3168 1.356 . S
N3176 H3182 0.984 . S
N3176 H3183 0.984 . S
N3177 C3170 1.356 . S
N3177 H3180 0.984 . S
N3177 H3181 0.985 . S
H3178 N3173 0.984 . S
H3179 N3173 0.985 . S
H3180 N3177 0.984 . S
H3181 N3177 0.985 . S
H3182 N3176 0.984 . S
H3183 N3176 0.984 . S
H3184 N3172 0.984 . S
H3185 N3172 0.985 . S
C3186 C3187 1.363 . S
C3186 C3192 1.379 . S
C3186 N3194 1.356 . S
C3187 C3186 1.363 . S
C3187 C3193 1.363 . S
C3188 C3189 1.363 . S
C3188 C3193 1.379 . S
C3188 N3195 1.356 . S
C3189 C3188 1.363 . S
C3189 C3192 1.363 . S
N3190 C3192 1.356 . S
N3190 H3202 0.984 . S
N3190 H3203 0.985 . S
N3191 C3193 1.356 . S
N3191 H3196 0.984 . S
N3191 H3197 0.985 . S
C3192 C3186 1.379 . S
C3192 C3189 1.363 . S
C3192 N3190 1.356 . S
C3193 C3187 1.363 . S
C3193 C3188 1.379 . S
C3193 N3191 1.356 . S
N3194 C3186 1.356 . S
N3194 H3200 0.984 . S
N3194 H3201 0.984 . S
N3195 C3188 1.356 . S
N3195 H3198 0.984 . S
N3195 H3199 0.985 . S
H3196 N3191 0.984 . S
H3197 N3191 0.985 . S
H3198 N3195 0.984 . S
H3199 N3195 0.985 . S
H3200 N3194 0.984 . S
H3201 N3194 0.984 . S
H3202 N3190 0.984 . S
H3203 N3190 0.985 . S
C3204 C3205 1.363 . S
C3204 C3210 1.379 . S
C3204 N3212 1.356 . S
C3205 C3204 1.363 . S
C3205 C3211 1.363 . S
C3206 C3207 1.363 . S
C3206 C3211 1.379 . S
C3206 N3213 1.356 . S
C3207 C3206 1.363 . S
C3207 C3210 1.363 . S
N3208 C3210 1.356 . S
N3208 H3220 0.984 . S
N3208 H3221 0.985 . S
N3209 C3211 1.356 . S
N3209 H3214 0.984 . S
N3209 H3215 0.985 . S
C3210 C3204 1.379 . S
C3210 C3207 1.363 . S
C3210 N3208 1.356 . S
C3211 C3205 1.363 . S
C3211 C3206 1.379 . S
C3211 N3209 1.356 . S
N3212 C3204 1.356 . S
N3212 H3218 0.984 . S
N3212 H3219 0.984 . S
N3213 C3206 1.356 . S
N3213 H3216 0.984 . S
N3213 H3217 0.985 . S
H3214 N3209 0.984 . S
H3215 N3209 0.985 . S
H3216 N3213 0.984 . S
H3217 N3213 0.985 . S
H3218 N3212 0.984 . S
H3219 N3212 0.984 . S
H3220 N3208 0.984 . S
H3221 N3208 0.985 . S
C3222 C3223 1.363 . S
C3222 C3228 1.379 . S
C3222 N3230 1.356 . S
C3223 C3222 1.363 . S
C3223 C3229 1.363 . S
C3224 C3225 1.363 . S
C3224 C3229 1.379 . S
C3224 N3231 1.356 . S
C3225 C3224 1.363 . S
C3225 C3228 1.363 . S
N3226 C3228 1.356 . S
N3226 H3238 0.984 . S
N3226 H3239 0.985 . S
N3227 C3229 1.356 . S
N3227 H3232 0.984 . S
N3227 H3233 0.985 . S
C3228 C3222 1.379 . S
C3228 C3225 1.363 . S
C3228 N3226 1.356 . S
C3229 C3223 1.363 . S
C3229 C3224 1.379 . S
C3229 N3227 1.356 . S
N3230 C3222 1.356 . S
N3230 H3236 0.984 . S
N3230 H3237 0.984 . S
N3231 C3224 1.356 . S
N3231 H3234 0.984 . S
N3231 H3235 0.985 . S
H3232 N3227 0.984 . S
H3233 N3227 0.985 . S
H3234 N3231 0.984 . S
H3235 N3231 0.985 . S
H3236 N3230 0.984 . S
H3237 N3230 0.984 . S
H3238 N3226 0.984 . S
H3239 N3226 0.985 . S
C3240 C3241 1.363 . S
C3240 C3246 1.379 . S
C3240 N3248 1.356 . S
C3241 C3240 1.363 . S
C3241 C3247 1.363 . S
C3242 C3243 1.363 . S
C3242 C3247 1.379 . S
C3242 N3249 1.356 . S
C3243 C3242 1.363 . S
C3243 C3246 1.363 . S
N3244 C3246 1.356 . S
N3244 H3256 0.984 . S
N3244 H3257 0.985 . S
N3245 C3247 1.356 . S
N3245 H3250 0.984 . S
N3245 H3251 0.985 . S
C3246 C3240 1.379 . S
C3246 C3243 1.363 . S
C3246 N3244 1.356 . S
C3247 C3241 1.363 . S
C3247 C3242 1.379 . S
C3247 N3245 1.356 . S
N3248 C3240 1.356 . S
N3248 H3254 0.984 . S
N3248 H3255 0.984 . S
N3249 C3242 1.356 . S
N3249 H3252 0.984 . S
N3249 H3253 0.985 . S
H3250 N3245 0.984 . S
H3251 N3245 0.985 . S
H3252 N3249 0.984 . S
H3253 N3249 0.985 . S
H3254 N3248 0.984 . S
H3255 N3248 0.984 . S
H3256 N3244 0.984 . S
H3257 N3244 0.985 . S
C3258 C3259 1.363 . S
C3258 C3264 1.379 . S
C3258 N3266 1.356 . S
C3259 C3258 1.363 . S
C3259 C3265 1.363 . S
C3260 C3261 1.363 . S
C3260 C3265 1.379 . S
C3260 N3267 1.356 . S
C3261 C3260 1.363 . S
C3261 C3264 1.363 . S
N3262 C3264 1.356 . S
N3262 H3274 0.984 . S
N3262 H3275 0.985 . S
N3263 C3265 1.356 . S
N3263 H3268 0.984 . S
N3263 H3269 0.985 . S
C3264 C3258 1.379 . S
C3264 C3261 1.363 . S
C3264 N3262 1.356 . S
C3265 C3259 1.363 . S
C3265 C3260 1.379 . S
C3265 N3263 1.356 . S
N3266 C3258 1.356 . S
N3266 H3272 0.984 . S
N3266 H3273 0.984 . S
N3267 C3260 1.356 . S
N3267 H3270 0.984 . S
N3267 H3271 0.985 . S
H3268 N3263 0.984 . S
H3269 N3263 0.985 . S
H3270 N3267 0.984 . S
H3271 N3267 0.985 . S
H3272 N3266 0.984 . S
H3273 N3266 0.984 . S
H3274 N3262 0.984 . S
H3275 N3262 0.985 . S
C3276 C3277 1.363 . S
C3276 C3282 1.379 . S
C3276 N3284 1.356 . S
C3277 C3276 1.363 . S
C3277 C3283 1.363 . S
C3278 C3279 1.363 . S
C3278 C3283 1.379 . S
C3278 N3285 1.356 . S
C3279 C3278 1.363 . S
C3279 C3282 1.363 . S
N3280 C3282 1.356 . S
N3280 H3292 0.984 . S
N3280 H3293 0.985 . S
N3281 C3283 1.356 . S
N3281 H3286 0.984 . S
N3281 H3287 0.985 . S
C3282 C3276 1.379 . S
C3282 C3279 1.363 . S
C3282 N3280 1.356 . S
C3283 C3277 1.363 . S
C3283 C3278 1.379 . S
C3283 N3281 1.356 . S
N3284 C3276 1.356 . S
N3284 H3290 0.984 . S
N3284 H3291 0.984 . S
N3285 C3278 1.356 . S
N3285 H3288 0.984 . S
N3285 H3289 0.985 . S
H3286 N3281 0.984 . S
H3287 N3281 0.985 . S
H3288 N3285 0.984 . S
H3289 N3285 0.985 . S
H3290 N3284 0.984 . S
H3291 N3284 0.984 . S
H3292 N3280 0.984 . S
H3293 N3280 0.985 . S
C3294 C3295 1.363 . S
C3294 C3300 1.379 . S
C3294 N3302 1.356 . S
C3295 C3294 1.363 . S
C3295 C3301 1.363 . S
C3296 C3297 1.363 . S
C3296 C3301 1.379 . S
C3296 N3303 1.356 . S
C3297 C3296 1.363 . S
C3297 C3300 1.363 . S
N3298 C3300 1.356 . S
N3298 H3310 0.984 . S
N3298 H3311 0.985 . S
N3299 C3301 1.356 . S
N3299 H3304 0.984 . S
N3299 H3305 0.985 . S
C3300 C3294 1.379 . S
C3300 C3297 1.363 . S
C3300 N3298 1.356 . S
C3301 C3295 1.363 . S
C3301 C3296 1.379 . S
C3301 N3299 1.356 . S
N3302 C3294 1.356 . S
N3302 H3308 0.984 . S
N3302 H3309 0.984 . S
N3303 C3296 1.356 . S
N3303 H3306 0.984 . S
N3303 H3307 0.985 . S
H3304 N3299 0.984 . S
H3305 N3299 0.985 . S
H3306 N3303 0.984 . S
H3307 N3303 0.985 . S
H3308 N3302 0.984 . S
H3309 N3302 0.984 . S
H3310 N3298 0.984 . S
H3311 N3298 0.985 . S
C3312 C3313 1.363 . S
C3312 C3318 1.379 1_655 S
C3312 N3320 1.356 . S
C3313 C3312 1.363 . S
C3313 C3319 1.363 . S
C3314 C3315 1.363 . S
C3314 C3319 1.379 1_455 S
C3314 N3321 1.356 . S
C3315 C3314 1.363 . S
C3315 C3318 1.363 . S
N3316 C3318 1.356 . S
N3316 H3328 0.984 . S
N3316 H3329 0.985 . S
N3317 C3319 1.356 . S
N3317 H3322 0.984 . S
N3317 H3323 0.985 . S
C3318 C3312 1.379 1_455 S
C3318 C3315 1.363 . S
C3318 N3316 1.356 . S
C3319 C3313 1.363 . S
C3319 C3314 1.379 1_655 S
C3319 N3317 1.356 . S
N3320 C3312 1.356 . S
N3320 H3326 0.984 . S
N3320 H3327 0.984 . S
N3321 C3314 1.356 . S
N3321 H3324 0.984 . S
N3321 H3325 0.985 . S
H3322 N3317 0.984 . S
H3323 N3317 0.985 . S
H3324 N3321 0.984 . S
H3325 N3321 0.985 . S
H3326 N3320 0.984 . S
H3327 N3320 0.984 . S
H3328 N3316 0.984 . S
H3329 N3316 0.985 . S
C3330 C3331 1.363 1_655 S
C3330 C3336 1.379 . S
C3330 N3338 1.356 . S
C3331 C3330 1.363 1_455 S
C3331 C3337 1.363 . S
C3332 C3333 1.363 1_455 S
C3332 C3337 1.379 . S
C3332 N3339 1.356 . S
C3333 C3332 1.363 1_655 S
C3333 C3336 1.363 . S
N3334 C3336 1.356 . S
N3334 H3346 0.984 . S
N3334 H3347 0.985 . S
N3335 C3337 1.356 . S
N3335 H3340 0.984 . S
N3335 H3341 0.985 . S
C3336 C3330 1.379 . S
C3336 C3333 1.363 . S
C3336 N3334 1.356 . S
C3337 C3331 1.363 . S
C3337 C3332 1.379 . S
C3337 N3335 1.356 . S
N3338 C3330 1.356 . S
N3338 H3344 0.984 . S
N3338 H3345 0.984 1_655 S
N3339 C3332 1.356 . S
N3339 H3342 0.984 1_455 S
N3339 H3343 0.985 . S
H3340 N3335 0.984 . S
H3341 N3335 0.985 . S
H3342 N3339 0.984 1_655 S
H3343 N3339 0.985 . S
H3344 N3338 0.984 . S
H3345 N3338 0.984 1_455 S
H3346 N3334 0.984 . S
H3347 N3334 0.985 . S
C3348 C3349 1.363 . S
C3348 C3354 1.379 . S
C3348 N3356 1.356 . S
C3349 C3348 1.363 . S
C3349 C3355 1.363 . S
C3350 C3351 1.363 . S
C3350 C3355 1.379 . S
C3350 N3357 1.356 . S
C3351 C3350 1.363 . S
C3351 C3354 1.363 . S
N3352 C3354 1.356 . S
N3352 H3364 0.984 . S
N3352 H3365 0.985 . S
N3353 C3355 1.356 . S
N3353 H3358 0.984 . S
N3353 H3359 0.985 . S
C3354 C3348 1.379 . S
C3354 C3351 1.363 . S
C3354 N3352 1.356 . S
C3355 C3349 1.363 . S
C3355 C3350 1.379 . S
C3355 N3353 1.356 . S
N3356 C3348 1.356 . S
N3356 H3362 0.984 . S
N3356 H3363 0.984 . S
N3357 C3350 1.356 . S
N3357 H3360 0.984 . S
N3357 H3361 0.985 . S
H3358 N3353 0.984 . S
H3359 N3353 0.985 . S
H3360 N3357 0.984 . S
H3361 N3357 0.985 . S
H3362 N3356 0.984 . S
H3363 N3356 0.984 . S
H3364 N3352 0.984 . S
H3365 N3352 0.985 . S
C3366 C3367 1.363 . S
C3366 C3372 1.379 . S
C3366 N3374 1.356 . S
C3367 C3366 1.363 . S
C3367 C3373 1.363 . S
C3368 C3369 1.363 . S
C3368 C3373 1.379 . S
C3368 N3375 1.356 . S
C3369 C3368 1.363 . S
C3369 C3372 1.363 . S
N3370 C3372 1.356 . S
N3370 H3382 0.984 . S
N3370 H3383 0.985 . S
N3371 C3373 1.356 . S
N3371 H3376 0.984 . S
N3371 H3377 0.985 . S
C3372 C3366 1.379 . S
C3372 C3369 1.363 . S
C3372 N3370 1.356 . S
C3373 C3367 1.363 . S
C3373 C3368 1.379 . S
C3373 N3371 1.356 . S
N3374 C3366 1.356 . S
N3374 H3380 0.984 . S
N3374 H3381 0.984 . S
N3375 C3368 1.356 . S
N3375 H3378 0.984 . S
N3375 H3379 0.985 . S
H3376 N3371 0.984 . S
H3377 N3371 0.985 . S
H3378 N3375 0.984 . S
H3379 N3375 0.985 . S
H3380 N3374 0.984 . S
H3381 N3374 0.984 . S
H3382 N3370 0.984 . S
H3383 N3370 0.985 . S
C3384 C3385 1.363 . S
C3384 C3390 1.379 1_655 S
C3384 N3392 1.356 . S
C3385 C3384 1.363 . S
C3385 C3391 1.363 . S
C3386 C3387 1.363 . S
C3386 C3391 1.379 1_455 S
C3386 N3393 1.356 . S
C3387 C3386 1.363 . S
C3387 C3390 1.363 . S
N3388 C3390 1.356 . S
N3388 H3400 0.984 . S
N3388 H3401 0.985 . S
N3389 C3391 1.356 . S
N3389 H3394 0.984 . S
N3389 H3395 0.985 . S
C3390 C3384 1.379 1_455 S
C3390 C3387 1.363 . S
C3390 N3388 1.356 . S
C3391 C3385 1.363 . S
C3391 C3386 1.379 1_655 S
C3391 N3389 1.356 . S
N3392 C3384 1.356 . S
N3392 H3398 0.984 . S
N3392 H3399 0.984 . S
N3393 C3386 1.356 . S
N3393 H3396 0.984 . S
N3393 H3397 0.985 . S
H3394 N3389 0.984 . S
H3395 N3389 0.985 . S
H3396 N3393 0.984 . S
H3397 N3393 0.985 . S
H3398 N3392 0.984 . S
H3399 N3392 0.984 . S
H3400 N3388 0.984 . S
H3401 N3388 0.985 . S
C3402 C3403 1.363 . S
C3402 C3408 1.379 . S
C3402 N3410 1.356 . S
C3403 C3402 1.363 . S
C3403 C3409 1.363 . S
C3404 C3405 1.363 . S
C3404 C3409 1.379 . S
C3404 N3411 1.356 . S
C3405 C3404 1.363 . S
C3405 C3408 1.363 . S
N3406 C3408 1.356 . S
N3406 H3418 0.984 . S
N3406 H3419 0.985 . S
N3407 C3409 1.356 . S
N3407 H3412 0.984 . S
N3407 H3413 0.985 . S
C3408 C3402 1.379 . S
C3408 C3405 1.363 . S
C3408 N3406 1.356 . S
C3409 C3403 1.363 . S
C3409 C3404 1.379 . S
C3409 N3407 1.356 . S
N3410 C3402 1.356 . S
N3410 H3416 0.984 . S
N3410 H3417 0.984 . S
N3411 C3404 1.356 . S
N3411 H3414 0.984 . S
N3411 H3415 0.985 . S
H3412 N3407 0.984 . S
H3413 N3407 0.985 . S
H3414 N3411 0.984 . S
H3415 N3411 0.985 . S
H3416 N3410 0.984 . S
H3417 N3410 0.984 . S
H3418 N3406 0.984 . S
H3419 N3406 0.985 . S
C3420 C3421 1.363 . S
C3420 C3426 1.379 . S
C3420 N3428 1.356 . S
C3421 C3420 1.363 . S
C3421 C3427 1.363 . S
C3422 C3423 1.363 . S
C3422 C3427 1.379 . S
C3422 N3429 1.356 . S
C3423 C3422 1.363 . S
C3423 C3426 1.363 . S
N3424 C3426 1.356 . S
N3424 H3436 0.984 . S
N3424 H3437 0.985 . S
N3425 C3427 1.356 . S
N3425 H3430 0.984 . S
N3425 H3431 0.985 . S
C3426 C3420 1.379 . S
C3426 C3423 1.363 . S
C3426 N3424 1.356 . S
C3427 C3421 1.363 . S
C3427 C3422 1.379 . S
C3427 N3425 1.356 . S
N3428 C3420 1.356 . S
N3428 H3434 0.984 . S
N3428 H3435 0.984 . S
N3429 C3422 1.356 . S
N3429 H3432 0.984 . S
N3429 H3433 0.985 . S
H3430 N3425 0.984 . S
H3431 N3425 0.985 . S
H3432 N3429 0.984 . S
H3433 N3429 0.985 . S
H3434 N3428 0.984 . S
H3435 N3428 0.984 . S
H3436 N3424 0.984 . S
H3437 N3424 0.985 . S
C3438 C3439 1.363 1_655 S
C3438 C3444 1.379 . S
C3438 N3446 1.356 . S
C3439 C3438 1.363 1_455 S
C3439 C3445 1.363 . S
C3440 C3441 1.363 1_455 S
C3440 C3445 1.379 . S
C3440 N3447 1.356 . S
C3441 C3440 1.363 1_655 S
C3441 C3444 1.363 . S
N3442 C3444 1.356 . S
N3442 H3454 0.984 . S
N3442 H3455 0.985 . S
N3443 C3445 1.356 . S
N3443 H3448 0.984 . S
N3443 H3449 0.985 . S
C3444 C3438 1.379 . S
C3444 C3441 1.363 . S
C3444 N3442 1.356 . S
C3445 C3439 1.363 . S
C3445 C3440 1.379 . S
C3445 N3443 1.356 . S
N3446 C3438 1.356 . S
N3446 H3452 0.984 . S
N3446 H3453 0.984 1_655 S
N3447 C3440 1.356 . S
N3447 H3450 0.984 1_455 S
N3447 H3451 0.985 . S
H3448 N3443 0.984 . S
H3449 N3443 0.985 . S
H3450 N3447 0.984 1_655 S
H3451 N3447 0.985 . S
H3452 N3446 0.984 . S
H3453 N3446 0.984 1_455 S
H3454 N3442 0.984 . S
H3455 N3442 0.985 . S
C3456 C3457 1.363 . S
C3456 C3462 1.379 1_545 S
C3456 N3464 1.356 . S
C3457 C3456 1.363 . S
C3457 C3463 1.363 . S
C3458 C3459 1.363 . S
C3458 C3463 1.379 1_565 S
C3458 N3465 1.356 . S
C3459 C3458 1.363 . S
C3459 C3462 1.363 . S
N3460 C3462 1.356 . S
N3460 H3472 1.015 . S
N3460 H3473 0.985 . S
N3461 C3463 1.356 . S
N3461 H3466 0.984 . S
N3461 H3467 1.015 . S
C3462 C3456 1.379 1_565 S
C3462 C3459 1.363 . S
C3462 N3460 1.356 . S
C3463 C3457 1.363 . S
C3463 C3458 1.379 1_545 S
C3463 N3461 1.356 . S
N3464 C3456 1.356 . S
N3464 H3470 0.984 . S
N3464 H3471 0.984 . S
N3465 C3458 1.356 . S
N3465 H3468 0.984 . S
N3465 H3469 0.985 . S
H3466 N3461 0.984 . S
H3467 N3461 1.015 . S
H3468 N3465 0.984 . S
H3469 N3465 0.985 . S
H3470 N3464 0.984 . S
H3471 N3464 0.984 . S
H3472 N3460 1.015 . S
H3473 N3460 0.985 . S
C3474 C3475 1.363 . S
C3474 C3480 1.379 . S
C3474 N3482 1.356 . S
C3475 C3474 1.363 . S
C3475 C3481 1.363 . S
C3476 C3477 1.363 . S
C3476 C3481 1.379 . S
C3476 N3483 1.356 . S
C3477 C3476 1.363 . S
C3477 C3480 1.363 . S
N3478 C3480 1.356 . S
N3478 H3490 0.984 . S
N3478 H3491 0.985 . S
N3479 C3481 1.356 . S
N3479 H3484 0.984 . S
N3479 H3485 0.985 . S
C3480 C3474 1.379 . S
C3480 C3477 1.363 . S
C3480 N3478 1.356 . S
C3481 C3475 1.363 . S
C3481 C3476 1.379 . S
C3481 N3479 1.356 . S
N3482 C3474 1.356 . S
N3482 H3488 0.984 . S
N3482 H3489 0.984 . S
N3483 C3476 1.356 . S
N3483 H3486 0.984 . S
N3483 H3487 0.985 . S
H3484 N3479 0.984 . S
H3485 N3479 0.985 . S
H3486 N3483 0.984 . S
H3487 N3483 0.985 . S
H3488 N3482 0.984 . S
H3489 N3482 0.984 . S
H3490 N3478 0.984 . S
H3491 N3478 0.985 . S
C3492 C3493 1.363 . S
C3492 C3498 1.379 1_565 S
C3492 N3500 1.356 . S
C3493 C3492 1.363 . S
C3493 C3499 1.363 . S
C3494 C3495 1.363 . S
C3494 C3499 1.379 1_545 S
C3494 N3501 1.356 . S
C3495 C3494 1.363 . S
C3495 C3498 1.363 . S
N3496 C3498 1.356 . S
N3496 H3508 1.003 . S
N3496 H3509 0.985 . S
N3497 C3499 1.356 . S
N3497 H3502 0.984 . S
N3497 H3503 1.003 . S
C3498 C3492 1.379 1_545 S
C3498 C3495 1.363 . S
C3498 N3496 1.356 . S
C3499 C3493 1.363 . S
C3499 C3494 1.379 1_565 S
C3499 N3497 1.356 . S
N3500 C3492 1.356 . S
N3500 H3506 0.984 . S
N3500 H3507 0.984 . S
N3501 C3494 1.356 . S
N3501 H3504 0.984 . S
N3501 H3505 0.985 . S
H3502 N3497 0.984 . S
H3503 N3497 1.003 . S
H3504 N3501 0.984 . S
H3505 N3501 0.985 . S
H3506 N3500 0.984 . S
H3507 N3500 0.984 . S
H3508 N3496 1.003 . S
H3509 N3496 0.985 . S
C3510 C3511 1.363 1_554 S
C3510 C3516 1.379 . S
C3510 N3518 1.356 . S
C3511 C3510 1.363 1_556 S
C3511 C3517 1.363 . S
C3512 C3513 1.363 1_556 S
C3512 C3517 1.379 . S
C3512 N3519 1.356 . S
C3513 C3512 1.363 1_554 S
C3513 C3516 1.363 . S
N3514 C3516 1.356 . S
N3514 H3526 0.984 . S
N3514 H3527 0.985 . S
N3515 C3517 1.356 . S
N3515 H3520 0.984 . S
N3515 H3521 0.985 . S
C3516 C3510 1.379 . S
C3516 C3513 1.363 . S
C3516 N3514 1.356 . S
C3517 C3511 1.363 . S
C3517 C3512 1.379 . S
C3517 N3515 1.356 . S
N3518 C3510 1.356 . S
N3518 H3524 0.984 . S
N3518 H3525 0.984 1_554 S
N3519 C3512 1.356 . S
N3519 H3522 0.984 1_556 S
N3519 H3523 0.985 . S
H3520 N3515 0.984 . S
H3521 N3515 0.985 . S
H3522 N3519 0.984 1_554 S
H3523 N3519 0.985 . S
H3524 N3518 0.984 . S
H3525 N3518 0.984 1_556 S
H3526 N3514 0.984 . S
H3527 N3514 0.985 . S
C3528 C3529 1.363 . S
C3528 C3534 1.379 1_556 S
C3528 N3536 1.356 . S
C3529 C3528 1.363 . S
C3529 C3535 1.363 . S
C3530 C3531 1.363 . S
C3530 C3535 1.379 1_554 S
C3530 N3537 1.356 . S
C3531 C3530 1.363 . S
C3531 C3534 1.363 . S
N3532 C3534 1.356 . S
N3532 H3544 0.984 . S
N3532 H3545 0.985 . S
N3533 C3535 1.356 . S
N3533 H3538 0.984 . S
N3533 H3539 0.985 . S
C3534 C3528 1.379 1_554 S
C3534 C3531 1.363 . S
C3534 N3532 1.356 . S
C3535 C3529 1.363 . S
C3535 C3530 1.379 1_556 S
C3535 N3533 1.356 . S
N3536 C3528 1.356 . S
N3536 H3542 0.984 . S
N3536 H3543 0.984 . S
N3537 C3530 1.356 . S
N3537 H3540 0.984 . S
N3537 H3541 0.985 . S
H3538 N3533 0.984 . S
H3539 N3533 0.985 . S
H3540 N3537 0.984 . S
H3541 N3537 0.985 . S
H3542 N3536 0.984 . S
H3543 N3536 0.984 . S
H3544 N3532 0.984 . S
H3545 N3532 0.985 . S
C3546 C3547 1.363 . S
C3546 C3552 1.379 1_554 S
C3546 N3554 1.356 . S
C3547 C3546 1.363 . S
C3547 C3553 1.363 . S
C3548 C3549 1.363 . S
C3548 C3553 1.379 1_556 S
C3548 N3555 1.356 . S
C3549 C3548 1.363 . S
C3549 C3552 1.363 . S
N3550 C3552 1.356 . S
N3550 H3562 0.984 . S
N3550 H3563 0.985 . S
N3551 C3553 1.356 . S
N3551 H3556 0.984 . S
N3551 H3557 0.985 . S
C3552 C3546 1.379 1_556 S
C3552 C3549 1.363 . S
C3552 N3550 1.356 . S
C3553 C3547 1.363 . S
C3553 C3548 1.379 1_554 S
C3553 N3551 1.356 . S
N3554 C3546 1.356 . S
N3554 H3560 0.984 . S
N3554 H3561 0.984 . S
N3555 C3548 1.356 . S
N3555 H3558 0.984 . S
N3555 H3559 0.985 . S
H3556 N3551 0.984 . S
H3557 N3551 0.985 . S
H3558 N3555 0.984 . S
H3559 N3555 0.985 . S
H3560 N3554 0.984 . S
H3561 N3554 0.984 . S
H3562 N3550 0.984 . S
H3563 N3550 0.985 . S
C3564 C3565 1.363 . S
C3564 C3570 1.379 . S
C3564 N3572 1.356 . S
C3565 C3564 1.363 . S
C3565 C3571 1.363 . S
C3566 C3567 1.363 . S
C3566 C3571 1.379 . S
C3566 N3573 1.356 . S
C3567 C3566 1.363 . S
C3567 C3570 1.363 . S
N3568 C3570 1.356 . S
N3568 H3580 0.984 . S
N3568 H3581 0.985 . S
N3569 C3571 1.356 . S
N3569 H3574 0.984 . S
N3569 H3575 0.985 . S
C3570 C3564 1.379 . S
C3570 C3567 1.363 . S
C3570 N3568 1.356 . S
C3571 C3565 1.363 . S
C3571 C3566 1.379 . S
C3571 N3569 1.356 . S
N3572 C3564 1.356 . S
N3572 H3578 0.984 . S
N3572 H3579 0.984 . S
N3573 C3566 1.356 . S
N3573 H3576 0.984 . S
N3573 H3577 0.985 . S
H3574 N3569 0.984 . S
H3575 N3569 0.985 . S
H3576 N3573 0.984 . S
H3577 N3573 0.985 . S
H3578 N3572 0.984 . S
H3579 N3572 0.984 . S
H3580 N3568 0.984 . S
H3581 N3568 0.985 . S
C3582 C3583 1.363 . S
C3582 C3588 1.379 . S
C3582 N3590 1.356 . S
C3583 C3582 1.363 . S
C3583 C3589 1.363 . S
C3584 C3585 1.363 . S
C3584 C3589 1.379 . S
C3584 N3591 1.356 . S
C3585 C3584 1.363 . S
C3585 C3588 1.363 . S
N3586 C3588 1.356 . S
N3586 H3598 0.984 . S
N3586 H3599 0.985 . S
N3587 C3589 1.356 . S
N3587 H3592 0.984 . S
N3587 H3593 0.985 . S
C3588 C3582 1.379 . S
C3588 C3585 1.363 . S
C3588 N3586 1.356 . S
C3589 C3583 1.363 . S
C3589 C3584 1.379 . S
C3589 N3587 1.356 . S
N3590 C3582 1.356 . S
N3590 H3596 0.984 . S
N3590 H3597 0.984 . S
N3591 C3584 1.356 . S
N3591 H3594 0.984 . S
N3591 H3595 0.985 . S
H3592 N3587 0.984 . S
H3593 N3587 0.985 . S
H3594 N3591 0.984 . S
H3595 N3591 0.985 . S
H3596 N3590 0.984 . S
H3597 N3590 0.984 . S
H3598 N3586 0.984 . S
H3599 N3586 0.985 . S
C3600 C3601 1.363 . S
C3600 C3606 1.379 . S
C3600 N3608 1.356 . S
C3601 C3600 1.363 . S
C3601 C3607 1.363 1_545 S
C3602 C3603 1.363 . S
C3602 C3607 1.379 . S
C3602 N3609 1.356 . S
C3603 C3602 1.363 . S
C3603 C3606 1.363 1_565 S
N3604 C3606 1.356 . S
N3604 H3616 0.984 . S
N3604 H3617 1.014 . S
N3605 C3607 1.356 . S
N3605 H3610 1.014 . S
N3605 H3611 0.985 . S
C3606 C3600 1.379 . S
C3606 C3603 1.363 1_545 S
C3606 N3604 1.356 . S
C3607 C3601 1.363 1_565 S
C3607 C3602 1.379 . S
C3607 N3605 1.356 . S
N3608 C3600 1.356 . S
N3608 H3614 0.984 . S
N3608 H3615 0.984 . S
N3609 C3602 1.356 . S
N3609 H3612 0.984 . S
N3609 H3613 0.985 . S
H3610 N3605 1.014 . S
H3611 N3605 0.985 . S
H3612 N3609 0.984 . S
H3613 N3609 0.985 . S
H3614 N3608 0.984 . S
H3615 N3608 0.984 . S
H3616 N3604 0.984 . S
H3617 N3604 1.014 . S
C3618 C3619 1.363 . S
C3618 C3624 1.379 . S
C3618 N3626 1.356 . S
C3619 C3618 1.363 . S
C3619 C3625 1.363 . S
C3620 C3621 1.363 . S
C3620 C3625 1.379 . S
C3620 N3627 1.356 . S
C3621 C3620 1.363 . S
C3621 C3624 1.363 . S
N3622 C3624 1.356 . S
N3622 H3634 0.984 . S
N3622 H3635 0.985 . S
N3623 C3625 1.356 . S
N3623 H3628 0.984 . S
N3623 H3629 0.985 . S
C3624 C3618 1.379 . S
C3624 C3621 1.363 . S
C3624 N3622 1.356 . S
C3625 C3619 1.363 . S
C3625 C3620 1.379 . S
C3625 N3623 1.356 . S
N3626 C3618 1.356 . S
N3626 H3632 0.984 . S
N3626 H3633 0.984 . S
N3627 C3620 1.356 . S
N3627 H3630 0.984 . S
N3627 H3631 0.985 . S
H3628 N3623 0.984 . S
H3629 N3623 0.985 . S
H3630 N3627 0.984 . S
H3631 N3627 0.985 . S
H3632 N3626 0.984 . S
H3633 N3626 0.984 . S
H3634 N3622 0.984 . S
H3635 N3622 0.985 . S
C3636 C3637 1.363 . S
C3636 C3642 1.379 . S
C3636 N3644 1.356 . S
C3637 C3636 1.363 . S
C3637 C3643 1.363 . S
C3638 C3639 1.363 . S
C3638 C3643 1.379 . S
C3638 N3645 1.356 . S
C3639 C3638 1.363 . S
C3639 C3642 1.363 . S
N3640 C3642 1.356 . S
N3640 H3652 0.984 . S
N3640 H3653 0.985 . S
N3641 C3643 1.356 . S
N3641 H3646 0.984 . S
N3641 H3647 0.985 . S
C3642 C3636 1.379 . S
C3642 C3639 1.363 . S
C3642 N3640 1.356 . S
C3643 C3637 1.363 . S
C3643 C3638 1.379 . S
C3643 N3641 1.356 . S
N3644 C3636 1.356 . S
N3644 H3650 0.984 . S
N3644 H3651 0.984 . S
N3645 C3638 1.356 . S
N3645 H3648 0.984 . S
N3645 H3649 0.985 . S
H3646 N3641 0.984 . S
H3647 N3641 0.985 . S
H3648 N3645 0.984 . S
H3649 N3645 0.985 . S
H3650 N3644 0.984 . S
H3651 N3644 0.984 . S
H3652 N3640 0.984 . S
H3653 N3640 0.985 . S
C3654 C3655 1.363 . S
C3654 C3660 1.379 . S
C3654 N3662 1.356 . S
C3655 C3654 1.363 . S
C3655 C3661 1.363 . S
C3656 C3657 1.363 . S
C3656 C3661 1.379 . S
C3656 N3663 1.356 . S
C3657 C3656 1.363 . S
C3657 C3660 1.363 . S
N3658 C3660 1.356 . S
N3658 H3670 0.984 . S
N3658 H3671 0.985 . S
N3659 C3661 1.356 . S
N3659 H3664 0.984 . S
N3659 H3665 0.985 . S
C3660 C3654 1.379 . S
C3660 C3657 1.363 . S
C3660 N3658 1.356 . S
C3661 C3655 1.363 . S
C3661 C3656 1.379 . S
C3661 N3659 1.356 . S
N3662 C3654 1.356 . S
N3662 H3668 0.984 . S
N3662 H3669 0.984 . S
N3663 C3656 1.356 . S
N3663 H3666 0.984 . S
N3663 H3667 0.985 . S
H3664 N3659 0.984 . S
H3665 N3659 0.985 . S
H3666 N3663 0.984 . S
H3667 N3663 0.985 . S
H3668 N3662 0.984 . S
H3669 N3662 0.984 . S
H3670 N3658 0.984 . S
H3671 N3658 0.985 . S
C3672 C3673 1.363 . S
C3672 C3678 1.379 . S
C3672 N3680 1.356 . S
C3673 C3672 1.363 . S
C3673 C3679 1.363 1_554 S
C3674 C3675 1.363 . S
C3674 C3679 1.379 . S
C3674 N3681 1.356 . S
C3675 C3674 1.363 . S
C3675 C3678 1.363 1_556 S
N3676 C3678 1.356 . S
N3676 H3688 0.984 . S
N3676 H3689 0.985 1_554 S
N3677 C3679 1.356 . S
N3677 H3682 0.984 1_556 S
N3677 H3683 0.985 . S
C3678 C3672 1.379 . S
C3678 C3675 1.363 1_554 S
C3678 N3676 1.356 . S
C3679 C3673 1.363 1_556 S
C3679 C3674 1.379 . S
C3679 N3677 1.356 . S
N3680 C3672 1.356 . S
N3680 H3686 0.984 . S
N3680 H3687 0.984 . S
N3681 C3674 1.356 . S
N3681 H3684 0.984 . S
N3681 H3685 0.985 . S
H3682 N3677 0.984 1_554 S
H3683 N3677 0.985 . S
H3684 N3681 0.984 . S
H3685 N3681 0.985 . S
H3686 N3680 0.984 . S
H3687 N3680 0.984 . S
H3688 N3676 0.984 . S
H3689 N3676 0.985 1_556 S
C3690 C3691 1.363 . S
C3690 C3696 1.379 . S
C3690 N3698 1.356 . S
C3691 C3690 1.363 . S
C3691 C3697 1.363 . S
C3692 C3693 1.363 . S
C3692 C3697 1.379 . S
C3692 N3699 1.356 . S
C3693 C3692 1.363 . S
C3693 C3696 1.363 . S
N3694 C3696 1.356 . S
N3694 H3706 0.984 . S
N3694 H3707 0.985 . S
N3695 C3697 1.356 . S
N3695 H3700 0.984 . S
N3695 H3701 0.985 . S
C3696 C3690 1.379 . S
C3696 C3693 1.363 . S
C3696 N3694 1.356 . S
C3697 C3691 1.363 . S
C3697 C3692 1.379 . S
C3697 N3695 1.356 . S
N3698 C3690 1.356 . S
N3698 H3704 0.984 . S
N3698 H3705 0.984 . S
N3699 C3692 1.356 . S
N3699 H3702 0.984 . S
N3699 H3703 0.985 . S
H3700 N3695 0.984 . S
H3701 N3695 0.985 . S
H3702 N3699 0.984 . S
H3703 N3699 0.985 . S
H3704 N3698 0.984 . S
H3705 N3698 0.984 . S
H3706 N3694 0.984 . S
H3707 N3694 0.985 . S
C3708 C3709 1.363 . S
C3708 C3714 1.379 . S
C3708 N3716 1.356 . S
C3709 C3708 1.363 . S
C3709 C3715 1.363 . S
C3710 C3711 1.363 . S
C3710 C3715 1.379 . S
C3710 N3717 1.356 . S
C3711 C3710 1.363 . S
C3711 C3714 1.363 . S
N3712 C3714 1.356 . S
N3712 H3724 0.984 . S
N3712 H3725 0.985 . S
N3713 C3715 1.356 . S
N3713 H3718 0.984 . S
N3713 H3719 0.985 . S
C3714 C3708 1.379 . S
C3714 C3711 1.363 . S
C3714 N3712 1.356 . S
C3715 C3709 1.363 . S
C3715 C3710 1.379 . S
C3715 N3713 1.356 . S
N3716 C3708 1.356 . S
N3716 H3722 0.984 . S
N3716 H3723 0.984 . S
N3717 C3710 1.356 . S
N3717 H3720 0.984 . S
N3717 H3721 0.985 . S
H3718 N3713 0.984 . S
H3719 N3713 0.985 . S
H3720 N3717 0.984 . S
H3721 N3717 0.985 . S
H3722 N3716 0.984 . S
H3723 N3716 0.984 . S
H3724 N3712 0.984 . S
H3725 N3712 0.985 . S
C3726 C3727 1.363 . S
C3726 C3732 1.379 . S
C3726 N3734 1.356 . S
C3727 C3726 1.363 . S
C3727 C3733 1.363 1_565 S
C3728 C3729 1.363 . S
C3728 C3733 1.379 . S
C3728 N3735 1.356 . S
C3729 C3728 1.363 . S
C3729 C3732 1.363 1_545 S
N3730 C3732 1.356 . S
N3730 H3742 0.984 . S
N3730 H3743 0.985 1_565 S
N3731 C3733 1.356 . S
N3731 H3736 0.984 1_545 S
N3731 H3737 0.985 . S
C3732 C3726 1.379 . S
C3732 C3729 1.363 1_565 S
C3732 N3730 1.356 . S
C3733 C3727 1.363 1_545 S
C3733 C3728 1.379 . S
C3733 N3731 1.356 . S
N3734 C3726 1.356 . S
N3734 H3740 0.984 . S
N3734 H3741 0.984 . S
N3735 C3728 1.356 . S
N3735 H3738 0.984 . S
N3735 H3739 0.985 . S
H3736 N3731 0.984 1_565 S
H3737 N3731 0.985 . S
H3738 N3735 0.984 . S
H3739 N3735 0.985 . S
H3740 N3734 0.984 . S
H3741 N3734 0.984 . S
H3742 N3730 0.984 . S
H3743 N3730 0.985 1_545 S
C1585 C7 2.112 . S
C1587 C667 2.112 1_455 S
C1603 C1360 2.112 . S
C1605 C40 2.112 . S
C1621 C1393 2.112 . S
C1623 C73 2.112 . S
C1639 C106 2.112 1_556 S
C1641 C1426 2.112 . S
C1657 C139 2.112 . S
C1659 C1558 2.112 1_455 S
C1675 C700 2.112 . S
C1677 C172 2.112 . S
C1693 C205 2.112 . S
C1695 C1525 2.112 . S
C1711 C238 2.112 1_554 S
C1713 C535 2.112 . S
C1729 C271 2.112 . S
C1731 C502 2.112 1_545 S
C1747 C304 2.112 1_565 S
C1749 C403 2.112 . S
C1765 C436 2.112 1_565 S
C1767 C337 2.112 . S
C1783 C469 2.112 . S
C1785 C370 2.112 1_545 S
C1801 C832 2.112 1_556 S
C1803 C568 2.112 . S
C1819 C601 2.112 1_655 S
C1821 C865 2.112 . S
C1837 C898 2.112 . S
C1839 C634 2.112 . S
C1855 C733 2.112 1_655 S
C1857 C997 2.112 . S
C1873 C766 2.112 . S
C1875 C931 2.112 . S
C1891 C1459 2.112 . S
C1893 C799 2.112 . S
C1909 C1492 2.112 . S
C1911 C964 2.112 1_554 S
C1927 C1030 2.112 . S
C1929 C1327 2.112 . S
C1945 C1294 2.112 . S
C1947 C1063 2.112 . S
C1963 C1195 2.112 . S
C1965 C1096 2.112 . S
C1981 C1129 2.112 . S
C1983 C1228 2.112 . S
C1999 C1162 2.112 . S
C2001 C1261 2.112 . S
C2017 N541 1.523 . S
C2019 C18 1.331 . S
C2035 N1564 1.523 . S
C2037 C51 1.331 . S
C2053 N706 1.523 . S
C2055 C84 1.331 . S
C2071 C117 1.331 1_556 S
C2073 N1531 1.523 . S
C2089 N1366 1.523 . S
C2091 C150 1.331 . S
C2107 C183 1.331 . S
C2109 N1399 1.523 . S
C2125 N1432 1.523 . S
C2127 C216 1.331 . S
C2143 C249 1.331 1_554 S
C2145 N673 1.523 . S
C2161 C282 1.331 . S
C2163 N13 1.523 . S
C2179 N46 1.523 . S
C2181 C315 1.331 1_565 S
C2197 N79 1.523 . S
C2199 C348 1.331 . S
C2215 N112 1.523 . S
C2217 C381 1.331 1_545 S
C2233 C414 1.331 . S
C2235 N145 1.523 . S
C2251 C447 1.331 1_565 S
C2253 N178 1.523 . S
C2269 C480 1.331 . S
C2271 N211 1.523 . S
C2287 C513 1.331 1_545 S
C2289 N244 1.523 . S
C2305 N277 1.523 . S
C2307 C546 1.331 . S
C2323 C579 1.331 . S
C2325 N1201 1.523 . S
C2341 C612 1.331 1_655 S
C2343 N1234 1.523 . S
C2359 N1267 1.523 . S
C2361 C645 1.331 . S
C2377 C678 1.331 1_455 S
C2379 N508 1.523 . S
C2395 C711 1.331 . S
C2397 N343 1.523 . S
C2413 N1168 1.523 . S
C2415 C744 1.331 1_655 S
C2431 C777 1.331 . S
C2433 N1102 1.523 . S
C2449 C810 1.331 . S
C2451 N1333 1.523 . S
C2467 C843 1.331 1_556 S
C2469 N772 1.523 . S
C2485 C876 1.331 . S
C2487 N1498 1.523 . S
C2503 C909 1.331 . S
C2505 N739 1.523 . S
C2521 N574 1.523 . S
C2523 C942 1.331 . S
C2539 C975 1.331 1_554 S
C2541 N607 1.523 . S
C2557 C1008 1.331 . S
C2559 N640 1.523 . S
C2575 C1041 1.331 . S
C2577 N1465 1.523 . S
C2593 N805 1.523 . S
C2595 C1074 1.331 . S
C2611 C1107 1.331 . S
C2613 N838 1.523 . S
C2629 N871 1.523 . S
C2631 C1140 1.331 . S
C2647 N904 1.523 . S
C2649 C1173 1.331 . S
C2665 N937 1.523 . S
C2667 C1206 1.331 . S
C2683 N970 1.523 . S
C2685 C1239 1.331 . S
C2701 C1272 1.331 . S
C2703 N1003 1.523 . S
C2719 C1305 1.331 . S
C2721 N1036 1.523 . S
C2737 N1069 1.523 . S
C2739 C1338 1.331 . S
C2755 C1371 1.331 . S
C2757 N409 1.523 . S
C2773 C1404 1.331 . S
C2775 N442 1.523 . S
C2791 C1437 1.331 . S
C2793 N475 1.523 . S
C2809 N1300 1.523 . S
C2811 C1470 1.331 . S
C2827 N1135 1.523 . S
C2829 C1503 1.331 . S
C2845 N376 1.523 . S
C2847 C1536 1.331 . S
C2863 C1569 1.331 1_455 S
C2865 N310 1.523 . S
C2881 C318 1.456 . S
C2883 C21 1.456 . S
C2899 C351 1.456 . S
C2901 C54 1.456 . S
C2917 C87 1.456 . S
C2919 C384 1.456 . S
C2935 C120 1.456 . S
C2937 C285 1.456 . S
C2953 C153 1.456 . S
C2955 C516 1.456 . S
C2971 C417 1.456 . S
C2973 C186 1.456 . S
C2989 C450 1.456 . S
C2991 C219 1.456 . S
C3007 C252 1.456 . S
C3009 C483 1.456 . S
C3025 C549 1.456 . S
C3027 C615 1.456 . S
C3043 C1539 1.456 . S
C3045 C582 1.456 . S
C3061 C1572 1.456 . S
C3063 C648 1.456 . S
C3079 C1506 1.456 . S
C3081 C681 1.456 . S
C3097 C714 1.456 . S
C3099 C1473 1.456 . S
C3115 C1374 1.456 . S
C3117 C747 1.456 . S
C3133 C1440 1.456 . S
C3135 C780 1.456 . S
C3151 C1110 1.456 . S
C3153 C813 1.456 . S
C3169 C1143 1.456 . S
C3171 C846 1.456 . S
C3187 C879 1.456 . S
C3189 C1176 1.456 . S
C3205 C1077 1.456 . S
C3207 C912 1.456 . S
C3223 C1308 1.456 . S
C3225 C945 1.456 . S
C3241 C978 1.456 . S
C3243 C1209 1.456 . S
C3259 C1242 1.456 . S
C3261 C1011 1.456 . S
C3277 C1044 1.456 . S
C3279 C1275 1.456 . S
C3295 C1341 1.456 . S
C3297 C1407 1.456 . S
C3313 N860 1.456 . S
C3315 N2 1.456 . S
C3331 N35 1.456 . S
C3333 N893 1.456 . S
C3349 N794 1.456 . S
C3351 N68 1.456 . S
C3367 N827 1.456 . S
C3369 N101 1.456 . S
C3385 N992 1.456 . S
C3387 N134 1.456 . S
C3403 N1025 1.456 . S
C3405 N167 1.456 . S
C3421 N926 1.456 . S
C3423 N200 1.456 . S
C3439 N233 1.456 . S
C3441 N959 1.456 . S
C3457 N266 1.456 . S
C3459 N398 1.456 . S
C3475 N299 1.456 . S
C3477 N431 1.456 . S
C3493 N332 1.456 . S
C3495 N464 1.456 . S
C3511 N365 1.456 . S
C3513 N497 1.456 . S
C3529 N1421 1.456 . S
C3531 N530 1.456 . S
C3547 N1487 1.456 . S
C3549 N563 1.456 . S
C3565 N596 1.456 . S
C3567 N728 1.456 . S
C3583 N1322 1.456 . S
C3585 N629 1.456 . S
C3601 N662 1.456 . S
C3603 N1553 1.456 . S
C3619 N695 1.456 . S
C3621 N1355 1.456 . S
C3637 N761 1.456 . S
C3639 N1454 1.456 . S
C3655 N1058 1.456 . S
C3657 N1190 1.456 . S
C3673 N1223 1.456 . S
C3675 N1091 1.456 . S
C3691 N1256 1.456 . S
C3693 N1124 1.456 . S
C3709 N1157 1.456 . S
C3711 N1289 1.456 . S
C3727 N1388 1.456 . S
C3729 N1520 1.456 . S
