# Generated by pormake.
# Topology uki, (4)-cn, num edge types: 1
# Building blocks:
#     Node 0, Type 0, BuildingBlock: KOZSID_clean_sbu_0, # of connection points: 4
#     Node 1, Type 0, BuildingBlock: KOZSID_clean_sbu_0, # of connection points: 4
#     Node 2, Type 0, BuildingBlock: KOZSID_clean_sbu_0, # of connection points: 4
#     Node 3, Type 0, BuildingBlock: KOZSID_clean_sbu_0, # of connection points: 4
#     Node 4, Type 0, BuildingBlock: KOZSID_clean_sbu_0, # of connection points: 4
#     Node 5, Type 0, BuildingBlock: KOZSID_clean_sbu_0, # of connection points: 4
#     Node 6, Type 0, BuildingBlock: KOZSID_clean_sbu_0, # of connection points: 4
#     Node 7, Type 0, BuildingBlock: KOZSID_clean_sbu_0, # of connection points: 4
#     Node 8, Type 0, BuildingBlock: KOZSID_clean_sbu_0, # of connection points: 4
#     Node 9, Type 0, BuildingBlock: KOZSID_clean_sbu_0, # of connection points: 4
#     Node 10, Type 0, BuildingBlock: KOZSID_clean_sbu_0, # of connection points: 4
#     Node 11, Type 0, BuildingBlock: KOZSID_clean_sbu_0, # of connection points: 4
#     Node 12, Type 0, BuildingBlock: KOZSID_clean_sbu_0, # of connection points: 4
#     Node 13, Type 0, BuildingBlock: KOZSID_clean_sbu_0, # of connection points: 4
#     Node 14, Type 0, BuildingBlock: KOZSID_clean_sbu_0, # of connection points: 4
#     Node 15, Type 0, BuildingBlock: KOZSID_clean_sbu_0, # of connection points: 4
#     Edge 16, Type (0, 0), BuildingBlock: KIFKEQ_clean_linker_1, # of connection points: 2
#     Edge 17, Type (0, 0), BuildingBlock: KIFKEQ_clean_linker_1, # of connection points: 2
#     Edge 18, Type (0, 0), BuildingBlock: KIFKEQ_clean_linker_1, # of connection points: 2
#     Edge 19, Type (0, 0), BuildingBlock: KIFKEQ_clean_linker_1, # of connection points: 2
#     Edge 20, Type (0, 0), BuildingBlock: KIFKEQ_clean_linker_1, # of connection points: 2
#     Edge 21, Type (0, 0), BuildingBlock: KIFKEQ_clean_linker_1, # of connection points: 2
#     Edge 22, Type (0, 0), BuildingBlock: KIFKEQ_clean_linker_1, # of connection points: 2
#     Edge 23, Type (0, 0), BuildingBlock: KIFKEQ_clean_linker_1, # of connection points: 2
#     Edge 24, Type (0, 0), BuildingBlock: KIFKEQ_clean_linker_1, # of connection points: 2
#     Edge 25, Type (0, 0), BuildingBlock: KIFKEQ_clean_linker_1, # of connection points: 2
#     Edge 26, Type (0, 0), BuildingBlock: KIFKEQ_clean_linker_1, # of connection points: 2
#     Edge 27, Type (0, 0), BuildingBlock: KIFKEQ_clean_linker_1, # of connection points: 2
#     Edge 28, Type (0, 0), BuildingBlock: KIFKEQ_clean_linker_1, # of connection points: 2
#     Edge 29, Type (0, 0), BuildingBlock: KIFKEQ_clean_linker_1, # of connection points: 2
#     Edge 30, Type (0, 0), BuildingBlock: KIFKEQ_clean_linker_1, # of connection points: 2
#     Edge 31, Type (0, 0), BuildingBlock: KIFKEQ_clean_linker_1, # of connection points: 2
#     Edge 32, Type (0, 0), BuildingBlock: KIFKEQ_clean_linker_1, # of connection points: 2
#     Edge 33, Type (0, 0), BuildingBlock: KIFKEQ_clean_linker_1, # of connection points: 2
#     Edge 34, Type (0, 0), BuildingBlock: KIFKEQ_clean_linker_1, # of connection points: 2
#     Edge 35, Type (0, 0), BuildingBlock: KIFKEQ_clean_linker_1, # of connection points: 2
#     Edge 36, Type (0, 0), BuildingBlock: KIFKEQ_clean_linker_1, # of connection points: 2
#     Edge 37, Type (0, 0), BuildingBlock: KIFKEQ_clean_linker_1, # of connection points: 2
#     Edge 38, Type (0, 0), BuildingBlock: KIFKEQ_clean_linker_1, # of connection points: 2
#     Edge 39, Type (0, 0), BuildingBlock: KIFKEQ_clean_linker_1, # of connection points: 2
#     Edge 40, Type (0, 0), BuildingBlock: KIFKEQ_clean_linker_1, # of connection points: 2
#     Edge 41, Type (0, 0), BuildingBlock: KIFKEQ_clean_linker_1, # of connection points: 2
#     Edge 42, Type (0, 0), BuildingBlock: KIFKEQ_clean_linker_1, # of connection points: 2
#     Edge 43, Type (0, 0), BuildingBlock: KIFKEQ_clean_linker_1, # of connection points: 2
#     Edge 44, Type (0, 0), BuildingBlock: KIFKEQ_clean_linker_1, # of connection points: 2
#     Edge 45, Type (0, 0), BuildingBlock: KIFKEQ_clean_linker_1, # of connection points: 2
#     Edge 46, Type (0, 0), BuildingBlock: KIFKEQ_clean_linker_1, # of connection points: 2
#     Edge 47, Type (0, 0), BuildingBlock: KIFKEQ_clean_linker_1, # of connection points: 2
# Relax obj value: 0.121
# Max RMSD: 0.240
# Mean RMSD: 0.240
data_MOF--net-uki--node1-KOZSID_clean_sbu_0--edge1-KIFKEQ_clean_linker_1
_symmetry_space_group_name_H-M    P1
_symmetry_Int_Tables_number       1
_symmetry_cell_setting            triclinic
loop_
_symmetry_equiv_pos_as_xyz
'x, y, z'
_cell_length_a     38.14433
_cell_length_b     38.056729
_cell_length_c     89.613124
_cell_angle_alpha  90.02801
_cell_angle_beta   89.990899
_cell_angle_gamma 89.97507
loop_
_atom_site_label
_atom_site_type_symbol
_atom_site_fract_x
_atom_site_fract_y
_atom_site_fract_z
_atom_type_partial_charge
C0 C 0.17968 0.2351 0.33198 0.0
C1 C 0.20783 0.21307 0.32898 0.0
C2 C 0.20047 0.19644 0.31576 0.0
C3 C 0.1684 0.20922 0.3114 0.0
N4 N 0.15529 0.23313 0.32098 0.0
Co5 Co 0.10912 0.25702 0.31901 0.0
N6 N 0.10548 0.245 0.29748 0.0
C7 C 0.12413 0.22005 0.29038 0.0
C8 C 0.11567 0.21726 0.27553 0.0
C9 C 0.08988 0.24182 0.27318 0.0
C10 C 0.08406 0.2583 0.28677 0.0
N11 N 0.06273 0.28038 0.3172 0.0
C12 C 0.04497 0.29086 0.30488 0.0
C13 C 1.01342 0.30669 0.30878 0.0
C14 C 1.01117 0.30539 0.32402 0.0
C15 C 0.04142 0.28915 0.32859 0.0
N16 N 0.11276 0.26929 0.34052 0.0
C17 C 0.08606 0.27933 0.34938 0.0
C18 C 0.09617 0.28558 0.36384 0.0
C19 C 0.13141 0.27879 0.36415 0.0
C20 C 0.14087 0.26872 0.3498 0.0
N21 N 0.13265 0.30103 0.31357 0.0
C22 C 0.16171 0.3637 0.30261 0.0
C23 C 0.1345 0.36439 0.31314 0.0
C24 C 0.12068 0.33276 0.31865 0.0
C25 C 0.17476 0.331 0.29811 0.0
C26 C 0.15979 0.30016 0.3036 0.0
N27 N 0.08561 0.21258 0.3241 0.0
C28 C 0.08413 0.15802 0.33782 0.0
C29 C 0.05717 0.14503 0.32866 0.0
C30 C 0.0439 0.16749 0.31758 0.0
C31 C 0.05814 0.20102 0.31561 0.0
C32 C 0.09797 0.19166 0.33535 0.0
H33 H 0.04754 0.21712 0.30682 0.0
H34 H 0.11929 0.20033 0.34233 0.0
H35 H 0.0997 0.33399 0.32669 0.0
H36 H 0.16954 0.27557 0.29936 0.0
C37 C 0.15237 0.20354 0.29752 0.0
C38 C 0.17581 0.25546 0.34584 0.0
C39 C 0.05583 0.28389 0.28943 0.0
C40 C 0.05326 0.28719 0.34332 0.0
H41 H 0.23107 0.20919 0.3357 0.0
H42 H 0.21705 0.17804 0.30983 0.0
H43 H 0.12743 0.2001 0.2673 0.0
H44 H 0.07653 0.24669 0.26273 0.0
H45 H 0.99394 0.31788 0.3014 0.0
H46 H 0.99059 0.31626 0.33094 0.0
H47 H 0.08005 0.29483 0.37297 0.0
H48 H 0.14811 0.28046 0.37388 0.0
H49 H 0.12386 0.38916 0.31703 0.0
H50 H 0.19552 0.32918 0.28989 0.0
H51 H 0.09483 0.14229 0.34678 0.0
H52 H 0.02342 0.15898 0.31005 0.0
C53 C 0.28741 0.98632 0.72014 0.0
C54 C 0.30313 0.01822 0.71666 0.0
C55 C 0.30246 0.02119 0.70144 0.0
C56 C 0.28659 0.99104 0.69648 0.0
N57 N 0.27737 0.96915 0.7076 0.0
Co58 Co 0.25429 0.92265 0.70522 0.0
N59 N 0.26727 0.91998 0.68374 0.0
C60 C 0.27878 0.9469 0.67531 0.0
C61 C 0.28742 0.93711 0.66106 0.0
C62 C 0.2805 0.90188 0.66036 0.0
C63 C 0.26735 0.89217 0.67423 0.0
N64 N 0.23069 0.8764 0.70274 0.0
C65 C 0.23255 0.8526 0.69145 0.0
C66 C 0.20984 0.82471 0.694 0.0
C67 C 0.1932 0.83142 0.70727 0.0
C68 C 0.20645 0.86298 0.71207 0.0
N69 N 0.24163 0.92533 0.72672 0.0
C70 C 0.21654 0.90636 0.73352 0.0
C71 C 0.21337 0.9141 0.74843 0.0
C72 C 0.23786 0.93974 0.75115 0.0
C73 C 0.25466 0.9462 0.73769 0.0
N74 N 0.20999 0.94632 0.70007 0.0
C75 C 0.1423 0.97425 0.69557 0.0
C76 C 0.16443 0.9874 0.70678 0.0
C77 C 0.19803 0.9734 0.70874 0.0
C78 C 0.15574 0.94782 0.68622 0.0
C79 C 0.18946 0.93428 0.68864 0.0
N80 N 0.29814 0.89895 0.71074 0.0
C81 C 0.32774 0.8562 0.72607 0.0
C82 C 0.36046 0.86972 0.72196 0.0
C83 C 0.36137 0.89748 0.71167 0.0
C84 C 0.32994 0.91137 0.70603 0.0
C85 C 0.29707 0.87126 0.72046 0.0
H86 H 0.33138 0.9328 0.6982 0.0
H87 H 0.27243 0.86115 0.72442 0.0
H88 H 0.21383 0.98376 0.71768 0.0
H89 H 0.19849 0.91337 0.68149 0.0
C90 C 0.28604 0.97955 0.6817 0.0
C91 C 0.28044 0.97439 0.73543 0.0
C92 C 0.25253 0.85727 0.67753 0.0
C93 C 0.20031 0.87843 0.72603 0.0
H94 H 0.314 0.03736 0.7243 0.0
H95 H 0.31368 0.04208 0.69479 0.0
H96 H 0.29862 0.95333 0.65236 0.0
H97 H 0.28457 0.88543 0.65067 0.0
H98 H 0.20519 0.80222 0.68689 0.0
H99 H 0.17421 0.81491 0.71286 0.0
H100 H 0.19604 0.90191 0.75647 0.0
H101 H 0.24252 0.95255 0.76175 0.0
H102 H 0.15555 1.00755 0.71443 0.0
H103 H 0.14024 0.93727 0.67714 0.0
H104 H 0.32574 0.835 0.73409 0.0
H105 H 0.38614 0.90851 0.70808 0.0
C106 C 0.84636 0.80235 0.33001 0.0
C107 C 0.81804 0.82363 0.32639 0.0
C108 C 0.82607 0.83963 0.31311 0.0
C109 C 0.8586 0.82712 0.30929 0.0
N110 N 0.87138 0.80389 0.31924 0.0
Co111 Co 0.9177 0.77999 0.31788 0.0
N112 N 0.92257 0.79126 0.29631 0.0
C113 C 0.90424 0.81584 0.28886 0.0
C114 C 0.9135 0.81806 0.27407 0.0
C115 C 0.93945 0.79348 0.27214 0.0
C116 C 0.94456 0.77758 0.2859 0.0
N117 N 0.96421 0.75665 0.31665 0.0
C118 C 0.9826 0.74569 0.30458 0.0
C119 C 1.01401 0.73016 0.30886 0.0
C120 C 0.01548 0.73208 0.3241 0.0
C121 C 0.98496 0.7484 0.32829 0.0
N122 N 0.9129 0.76844 0.33942 0.0
C123 C 0.9392 0.75887 0.34858 0.0
C124 C 0.92855 0.7536 0.36302 0.0
C125 C 0.89335 0.76058 0.36302 0.0
C126 C 0.88443 0.7697 0.34849 0.0
N127 N 0.89457 0.73573 0.31245 0.0
C128 C 0.86633 0.67257 0.30156 0.0
C129 C 0.89294 0.67234 0.31237 0.0
C130 C 0.90634 0.7042 0.31783 0.0
C131 C 0.85342 0.70507 0.29675 0.0
C132 C 0.86799 0.73616 0.30221 0.0
N133 N 0.94085 0.82463 0.32298 0.0
C134 C 0.94179 0.87922 0.33669 0.0
C135 C 0.96927 0.89211 0.32779 0.0
C136 C 0.98301 0.86959 0.31683 0.0
C137 C 0.96876 0.83608 0.31472 0.0
C138 C 0.92795 0.84567 0.33408 0.0
H139 H 0.97978 0.81987 0.30605 0.0
H140 H 0.90623 0.83714 0.34086 0.0
H141 H 0.92687 0.70332 0.32609 0.0
H142 H 0.8584 0.76056 0.29773 0.0
C143 C 0.87543 0.83234 0.29557 0.0
C144 C 0.84971 0.78308 0.34419 0.0
C145 C 0.97253 0.752 0.28898 0.0
C146 C 0.97234 0.75089 0.34288 0.0
H147 H 0.79417 0.82745 0.3327 0.0
H148 H 0.80962 0.85737 0.30679 0.0
H149 H 0.90207 0.83478 0.2656 0.0
H150 H 0.95332 0.78815 0.26185 0.0
H151 H 0.03392 0.71879 0.30173 0.0
H152 H 0.03574 0.72157 0.33128 0.0
H153 H 0.94432 0.74505 0.37238 0.0
H154 H 0.8764 0.75983 0.3727 0.0
H155 H 0.90345 0.64775 0.31649 0.0
H156 H 0.83312 0.70653 0.28832 0.0
H157 H 0.93069 0.89496 0.34558 0.0
H158 H 1.00392 0.87803 0.3095 0.0
C159 C 0.74419 0.04316 0.72163 0.0
C160 C 0.73139 1.00991 0.71824 0.0
C161 C 0.73282 1.00656 0.70303 0.0
C162 C 0.74658 0.03768 0.698 0.0
N163 N 0.75383 0.06042 0.70908 0.0
Co164 Co 0.77546 0.10748 0.70667 0.0
N165 N 0.76267 0.10939 0.68518 0.0
C166 C 0.75248 0.08188 0.67677 0.0
C167 C 0.74362 0.09118 0.66248 0.0
C168 C 0.74902 0.12668 0.66176 0.0
C169 C 0.76158 0.13708 0.67564 0.0
N170 N 0.79778 0.15429 0.70411 0.0
C171 C 0.79524 0.17786 0.69278 0.0
C172 C 0.81716 0.2064 0.69528 0.0
C173 C 0.83394 0.20035 0.70857 0.0
C174 C 0.82158 0.16849 0.71344 0.0
N175 N 0.7878 0.10549 0.7282 0.0
C176 C 0.81197 0.1255 0.73507 0.0
C177 C 0.81396 0.11906 0.75012 0.0
C178 C 0.78967 0.09322 0.75286 0.0
C179 C 0.77437 0.08507 0.73924 0.0
N180 N 0.82046 0.085 0.70166 0.0
C181 C 0.88837 0.05785 0.69687 0.0
C182 C 0.86686 0.04485 0.70833 0.0
C183 C 0.83315 0.05848 0.71044 0.0
C184 C 0.87433 0.08392 0.68751 0.0
C185 C 0.84052 0.09709 0.69009 0.0
N186 N 0.73088 0.13003 0.71203 0.0
C187 C 0.70004 0.17283 0.7269 0.0
C188 C 0.66772 0.15833 0.72283 0.0
C189 C 0.66762 0.12992 0.71284 0.0
C190 C 0.69946 0.11649 0.7074 0.0
C191 C 0.73112 0.1582 0.72151 0.0
H192 H 0.6987 0.0946 0.69976 0.0
H193 H 0.75543 0.16914 0.72545 0.0
H194 H 0.81776 0.04817 0.71952 0.0
H195 H 0.83097 0.11767 0.68289 0.0
C196 C 0.74689 0.04889 0.68318 0.0
C197 C 0.74891 0.05649 0.73688 0.0
C198 C 0.7752 0.17251 0.67891 0.0
C199 C 0.8277 0.15362 0.72751 0.0
H200 H 0.72209 0.99006 0.72592 0.0
H201 H 0.72359 0.98462 0.69642 0.0
H202 H 0.73334 0.07438 0.65377 0.0
H203 H 0.74446 0.14284 0.65203 0.0
H204 H 0.82113 0.22896 0.68813 0.0
H205 H 0.85234 0.21754 0.71416 0.0
H206 H 0.83005 0.13253 0.75826 0.0
H207 H 0.78398 0.0818 0.76363 0.0
H208 H 0.87626 0.02504 0.71601 0.0
H209 H 0.88936 0.09438 0.67828 0.0
H210 H 0.70141 0.19453 0.73471 0.0
H211 H 0.64316 0.11809 0.70932 0.0
C212 C 0.17933 0.2972 0.9432 0.0
C213 C 0.20768 0.31886 0.94629 0.0
C214 C 0.20016 0.33585 0.95942 0.0
C215 C 0.16778 0.32362 0.96365 0.0
N216 N 0.15465 0.29974 0.95407 0.0
Co217 Co 0.10817 0.27649 0.95587 0.0
N218 N 0.10419 0.2887 0.97735 0.0
C219 C 0.12287 0.31354 0.98449 0.0
C220 C 0.11414 0.31643 0.99931 0.0
C221 C 0.08818 0.29203 1.0016 0.0
C222 C 0.08252 0.27554 0.98799 0.0
N223 N 0.06148 0.25377 0.95751 0.0
C224 C 0.04344 0.24343 0.96977 0.0
C225 C 1.01173 0.22811 0.96579 0.0
C226 C 1.00972 0.22955 0.95054 0.0
C227 C 0.04024 0.24538 0.94605 0.0
N228 N 0.11214 0.26401 0.9344 0.0
C229 C 0.0855 0.25442 0.92543 0.0
C230 C 0.0959 0.24786 0.91104 0.0
C231 C 0.13128 0.25398 0.91089 0.0
C232 C 0.14051 0.26397 0.92528 0.0
N233 N 0.13106 0.2322 0.96145 0.0
C234 C 0.1598 0.16924 0.97232 0.0
C235 C 0.13256 0.16881 0.96181 0.0
C236 C 0.11891 0.20057 0.95635 0.0
C237 C 0.17295 0.20182 0.97691 0.0
C238 C 0.15812 0.23281 0.97147 0.0
N239 N 0.08533 0.32124 0.95062 0.0
C240 C 0.08493 0.37567 0.93679 0.0
C241 C 0.05789 0.38916 0.94579 0.0
C242 C 0.04403 0.36701 0.95684 0.0
C243 C 0.0578 0.33329 0.95896 0.0
C244 C 0.09825 0.34187 0.93939 0.0
H245 H 0.04679 0.31743 0.96774 0.0
H246 H 0.11963 0.33282 0.93252 0.0
H247 H 0.09796 0.19955 0.94828 0.0
H248 H 0.16797 0.25731 0.97576 0.0
C249 C 0.15146 0.32968 0.97744 0.0
C250 C 0.17557 0.27656 0.92941 0.0
C251 C 0.05432 0.25001 0.98526 0.0
C252 C 0.05241 0.24713 0.93136 0.0
H253 H 0.2312 0.32225 0.93969 0.0
H254 H 0.21682 0.35408 0.96538 0.0
H255 H 0.1259 0.33349 1.00758 0.0
H256 H 0.07464 0.28724 1.01201 0.0
H257 H 0.99201 0.21712 0.9731 0.0
H258 H 0.98911 0.21898 0.94356 0.0
H259 H 0.07987 0.23884 0.90184 0.0
H260 H 0.14822 0.2519 0.90124 0.0
H261 H 0.12182 0.14414 0.95788 0.0
H262 H 0.19373 0.20343 0.98512 0.0
H263 H 0.09609 0.39115 0.92784 0.0
H264 H 0.02343 0.37591 0.96424 0.0
C265 C 0.24209 0.98605 0.054 0.0
C266 C 0.22673 0.01789 0.0579 0.0
C267 C 0.22828 0.02025 0.07313 0.0
C268 C 0.24422 0.98979 0.07771 0.0
N269 N 0.25257 0.96827 0.06631 0.0
Co270 Co 0.27542 0.92157 0.0681 0.0
N271 N 0.2632 0.91806 0.0896 0.0
C272 C 0.2536 0.94494 0.09848 0.0
C273 C 0.24728 0.93485 0.11293 0.0
C274 C 0.25358 0.89943 0.11321 0.0
C275 C 0.26343 0.88986 0.09885 0.0
N276 N 0.29882 0.8751 0.07003 0.0
C277 C 0.29655 0.85063 0.08101 0.0
C278 C 0.31821 0.82218 0.07799 0.0
C279 C 0.33493 0.82944 0.06479 0.0
C280 C 0.32255 0.86175 0.06045 0.0
N281 N 0.28737 0.92511 0.04657 0.0
C282 C 0.31211 0.90626 0.03946 0.0
C283 C 0.31482 0.91468 0.0246 0.0
C284 C 0.2904 0.94062 0.02227 0.0
C285 C 0.27409 0.94656 0.03588 0.0
N286 N 0.32004 0.94471 0.07319 0.0
C287 C 0.38769 0.97268 0.07784 0.0
C288 C 0.36544 0.98617 0.06675 0.0
C289 C 0.33187 0.97216 0.06471 0.0
C290 C 0.37444 0.94572 0.08696 0.0
C291 C 0.34077 0.93213 0.08444 0.0
N292 N 0.23124 0.89839 0.06266 0.0
C293 C 0.20087 0.85616 0.04734 0.0
C294 C 0.16837 0.8695 0.05187 0.0
C295 C 0.16798 0.89698 0.06231 0.0
C296 C 0.19969 0.91069 0.06774 0.0
C297 C 0.23181 0.87107 0.05274 0.0
H298 H 0.19869 0.93184 0.07574 0.0
H299 H 0.25624 0.86108 0.04848 0.0
H300 H 0.31592 0.98291 0.05591 0.0
H301 H 0.33191 0.91082 0.0914 0.0
C302 C 0.24614 0.97794 0.09244 0.0
C303 C 0.24857 0.97484 0.03856 0.0
C304 C 0.2762 0.85469 0.09485 0.0
C305 C 0.32837 0.87779 0.04659 0.0
H306 H 0.21564 0.03746 0.05052 0.0
H307 H 0.21774 0.04103 0.08005 0.0
H308 H 0.23832 0.95111 0.12208 0.0
H309 H 0.25174 0.8827 0.12294 0.0
H310 H 0.32178 0.7988 0.08468 0.0
H311 H 0.3531 0.81264 0.05885 0.0
H312 H 0.33178 0.90274 0.01635 0.0
H313 H 0.28547 0.95395 1.01181 0.0
H314 H 0.37415 1.00668 0.05925 0.0
H315 H 0.38999 0.93484 0.09594 0.0
H316 H 0.20245 0.83518 0.03919 0.0
H317 H 0.14338 0.90787 0.0662 0.0
C318 C 0.85225 0.73416 0.94164 0.0
C319 C 0.82445 0.71138 0.9442 0.0
C320 C 0.83127 0.69454 0.9574 0.0
C321 C 0.86281 0.70775 0.96217 0.0
N322 N 0.87611 0.73215 0.95287 0.0
Co323 Co 0.92229 0.75576 0.95531 0.0
N324 N 0.92515 0.74289 0.97678 0.0
C325 C 0.90626 0.71769 0.98356 0.0
C326 C 0.91415 0.71432 0.99845 0.0
C327 C 0.93981 0.73877 1.00116 0.0
C328 C 0.94613 0.75576 0.98774 0.0
N329 N 0.96872 0.77886 0.95764 0.0
C330 C 0.98601 0.78876 0.97016 0.0
C331 C 0.01775 0.80465 0.96664 0.0
C332 C 0.02053 0.80417 0.95141 0.0
C333 C 0.99042 0.78826 0.94648 0.0
N334 N 0.91943 0.76894 0.93385 0.0
C335 C 0.94621 0.78056 0.92539 0.0
C336 C 0.93627 0.78943 0.91119 0.0
C337 C 0.90111 0.78257 0.91056 0.0
C338 C 0.89157 0.76921 0.92442 0.0
N339 N 0.89869 0.79968 0.96095 0.0
C340 C 0.86931 0.86209 0.97214 0.0
C341 C 0.89697 0.86305 0.96183 0.0
C342 C 0.91096 0.83158 0.95621 0.0
C343 C 0.85599 0.82926 0.97631 0.0
C344 C 0.87114 0.79855 0.9707 0.0
N345 N 0.94585 0.71139 0.95004 0.0
C346 C 0.94734 0.65718 0.93604 0.0
C347 C 0.97377 0.6436 0.94533 0.0
C348 C 0.98688 0.66565 0.95659 0.0
C349 C 0.9729 0.6993 0.95865 0.0
C350 C 0.9338 0.69094 0.93857 0.0
H351 H 0.98329 0.71504 0.96761 0.0
H352 H 0.91289 0.70006 0.93147 0.0
H353 H 0.93228 0.83306 0.94835 0.0
H354 H 0.86115 0.77383 0.97469 0.0
C355 C 0.87834 0.70148 0.9761 0.0
C356 C 0.85675 0.75443 0.92778 0.0
C357 C 0.97437 0.78148 0.98547 0.0
C358 C 0.97882 0.78782 0.93173 0.0
H359 H 0.80193 0.70683 0.93712 0.0
H360 H 0.81484 0.67546 0.96299 0.0
H361 H 0.90207 0.69685 1.00647 0.0
H362 H 0.95275 0.74326 1.01174 0.0
H363 H 0.03692 0.81552 0.97425 0.0
H364 H 0.04127 0.81554 0.94474 0.0
H365 H 0.95236 0.80079 0.90249 0.0
H366 H 0.88459 0.78685 0.90093 0.0
H367 H 0.90784 0.8879 0.9582 0.0
H368 H 0.83487 0.82723 0.98434 0.0
H369 H 0.93681 0.64179 0.92692 0.0
H370 H 1.00699 0.65668 0.96421 0.0
C371 C 0.78651 0.04517 0.05406 0.0
C372 C 0.80193 1.01337 0.05796 0.0
C373 C 0.80047 1.01113 0.0732 0.0
C374 C 0.78454 0.04161 0.07777 0.0
N375 N 0.77611 0.06304 0.06637 0.0
Co376 Co 0.75322 0.10973 0.06814 0.0
N377 N 0.76557 0.11341 0.08962 0.0
C378 C 0.77523 0.0866 0.09852 0.0
C379 C 0.78164 0.09679 0.11295 0.0
C380 C 0.77535 0.13222 0.1132 0.0
C381 C 0.76541 0.14168 0.09884 0.0
N382 N 0.72981 0.15621 0.07007 0.0
C383 C 0.73217 0.18077 0.08102 0.0
C384 C 0.71047 0.20917 0.07801 0.0
C385 C 0.69364 0.2018 0.06484 0.0
C386 C 0.706 0.16946 0.06051 0.0
N387 N 0.74115 0.10604 0.04663 0.0
C388 C 0.71634 0.12482 0.03954 0.0
C389 C 0.71354 0.11628 0.02469 0.0
C390 C 0.73795 0.09033 0.02235 0.0
C391 C 0.75436 0.0845 0.03594 0.0
N392 N 0.70865 0.08659 0.07329 0.0
C393 C 0.64099 0.0587 0.07796 0.0
C394 C 0.66326 0.04509 0.06689 0.0
C395 C 0.69684 0.05907 0.06486 0.0
C396 C 0.65422 0.08573 0.08705 0.0
C397 C 0.68791 0.09928 0.08453 0.0
N398 N 0.79735 0.13291 0.06263 0.0
C399 C 0.82754 0.175 0.04718 0.0
C400 C 0.86009 0.16173 0.05167 0.0
C401 C 0.86061 0.13437 0.06216 0.0
C402 C 0.82895 0.12069 0.06766 0.0
C403 C 0.79666 0.16013 0.05267 0.0
H404 H 0.83004 0.09962 0.07569 0.0
H405 H 0.77219 0.17006 0.04844 0.0
H406 H 0.71279 0.04823 0.05606 0.0
H407 H 0.69677 0.12065 0.09147 0.0
C408 C 0.78269 0.05356 0.09249 0.0
C409 C 0.77991 0.05624 0.03861 0.0
C410 C 0.75267 0.17683 0.09482 0.0
C411 C 0.7001 0.15332 0.04667 0.0
H412 H 0.81297 0.99374 0.05059 0.0
H413 H 0.81107 0.9904 0.08013 0.0
H414 H 0.79068 0.08062 0.1221 0.0
H415 H 0.77727 0.14904 0.12291 0.0
H416 H 0.70693 0.2326 0.08469 0.0
H417 H 0.67541 0.21854 0.05891 0.0
H418 H 0.6965 0.12815 0.01645 0.0
H419 H 0.74281 0.07692 1.01189 0.0
H420 H 0.65456 0.02452 0.05942 0.0
H421 H 0.63864 0.09671 0.09601 0.0
H422 H 0.82585 0.19587 0.039 0.0
H423 H 0.88525 0.12355 0.06602 0.0
C424 C 0.677 0.73378 0.83181 0.0
C425 C 0.70483 0.71121 0.82896 0.0
C426 C 0.6974 0.69435 0.81581 0.0
C427 C 0.66552 0.70737 0.81136 0.0
N428 N 0.65256 0.73166 0.82081 0.0
Co429 Co 0.60616 0.75507 0.81885 0.0
N430 N 0.60211 0.742 0.79743 0.0
C431 C 0.6205 0.7166 0.79051 0.0
C432 C 0.61182 0.71316 0.7757 0.0
C433 C 0.58619 0.73779 0.7732 0.0
C434 C 0.58069 0.75495 0.78666 0.0
N435 N 0.55973 0.77832 0.81694 0.0
C436 C 0.54199 0.78843 0.80456 0.0
C437 C 0.5105 0.8045 0.80834 0.0
C438 C 0.50835 0.80394 0.82358 0.0
C439 C 0.53856 0.78781 0.82827 0.0
N440 N 0.61003 0.76815 0.84029 0.0
C441 C 0.58358 0.77955 0.84901 0.0
C442 C 0.59414 0.78826 0.86315 0.0
C443 C 0.62934 0.7815 0.86346 0.0
C444 C 0.6383 0.76837 0.84949 0.0
N445 N 0.62936 0.799 0.81299 0.0
C446 C 0.65587 0.86173 0.80108 0.0
C447 C 0.63219 0.86238 0.81303 0.0
C448 C 0.61907 0.83067 0.81878 0.0
C449 C 0.66728 0.82919 0.79573 0.0
C450 C 0.65413 0.79825 0.80195 0.0
N451 N 0.58291 0.71069 0.82432 0.0
C452 C 0.5823 0.65619 0.83811 0.0
C453 C 0.55518 0.64287 0.82911 0.0
C454 C 0.54132 0.6652 0.81812 0.0
C455 C 0.55521 0.69885 0.81603 0.0
C456 C 0.59574 0.68998 0.83554 0.0
H457 H 0.54422 0.71478 0.80726 0.0
H458 H 0.61718 0.69892 0.84239 0.0
H459 H 0.59975 0.83182 0.82755 0.0
H460 H 0.66309 0.77366 0.79739 0.0
C461 C 0.64905 0.70071 0.79766 0.0
C462 C 0.67302 0.75378 0.84579 0.0
C463 C 0.55296 0.78112 0.78916 0.0
C464 C 0.55073 0.78706 0.84294 0.0
H465 H 0.72773 0.70675 0.83583 0.0
H466 H 0.71362 0.67531 0.81007 0.0
H467 H 0.62348 0.69564 0.76758 0.0
H468 H 0.57282 0.74236 0.76273 0.0
H469 H 0.49107 0.81549 0.80088 0.0
H470 H 0.48793 0.81537 0.83043 0.0
H471 H 0.57842 0.79951 0.87201 0.0
H472 H 0.64629 0.78573 0.87296 0.0
H473 H 0.62281 0.88714 0.81746 0.0
H474 H 0.68579 0.82768 0.78658 0.0
H475 H 0.59345 0.64058 0.84702 0.0
H476 H 0.52067 0.65646 0.81072 0.0
C477 C 0.78919 0.48647 0.21948 0.0
C478 C 0.80517 0.51778 0.21532 0.0
C479 C 0.80354 0.51948 0.20007 0.0
C480 C 0.78695 0.48917 0.19576 0.0
N481 N 0.77829 0.46833 0.20732 0.0
Co482 Co 0.75463 0.42194 0.20593 0.0
N483 N 0.76637 0.41738 0.18442 0.0
C484 C 0.77608 0.44377 0.17532 0.0
C485 C 0.78189 0.43303 0.16091 0.0
C486 C 0.77517 0.39768 0.1609 0.0
C487 C 0.7656 0.38882 0.17538 0.0
N488 N 0.73078 0.3756 0.20442 0.0
C489 C 0.73286 0.35054 0.19366 0.0
C490 C 0.71106 0.3224 0.19695 0.0
C491 C 0.69447 0.33045 0.21011 0.0
C492 C 0.70706 0.3629 0.21414 0.0
N493 N 0.74284 0.42667 0.22742 0.0
C494 C 0.71787 0.40848 0.23469 0.0
C495 C 0.71515 0.41777 0.24946 0.0
C496 C 0.73978 0.44359 0.25156 0.0
C497 C 0.75624 0.4486 0.23792 0.0
N498 N 0.71021 0.4455 0.20081 0.0
C499 C 0.64237 0.4738 0.197 0.0
C500 C 0.66675 0.48943 0.20669 0.0
C501 C 0.7001 0.47482 0.20852 0.0
C502 C 0.65379 0.44479 0.18857 0.0
C503 C 0.68779 0.43138 0.1905 0.0
N504 N 0.79859 0.39842 0.21145 0.0
C505 C 0.82867 0.35698 0.22726 0.0
C506 C 0.86127 0.36962 0.22252 0.0
C507 C 0.86184 0.39626 0.2117 0.0
C508 C 0.83022 0.40993 0.20615 0.0
C509 C 0.79783 0.37182 0.22171 0.0
H510 H 0.83137 0.43047 0.19788 0.0
H511 H 0.77334 0.36244 0.22614 0.0
H512 H 0.71729 0.48677 0.21659 0.0
H513 H 0.6954 0.40874 0.18403 0.0
C514 C 0.78438 0.47682 0.18111 0.0
C515 C 0.78213 0.47638 0.23502 0.0
C516 C 0.75298 0.35386 0.17972 0.0
C517 C 0.70139 0.37976 0.22785 0.0
H518 H 0.8166 0.5375 0.22253 0.0
H519 H 0.81436 0.53977 0.19298 0.0
H520 H 0.79091 0.44877 0.15161 0.0
H521 H 0.77668 0.38052 0.15129 0.0
H522 H 0.70727 0.29872 0.19046 0.0
H523 H 0.67623 0.3141 0.21622 0.0
H524 H 0.69803 0.40647 0.25781 0.0
H525 H 0.74478 0.45743 0.2619 0.0
H526 H 0.66009 0.51259 0.21311 0.0
H527 H 0.63631 0.43152 0.18091 0.0
H528 H 0.82694 0.33666 0.23569 0.0
H529 H 0.88652 0.40658 0.20763 0.0
C530 C 0.34932 0.29632 0.83109 0.0
C531 C 0.32085 0.31787 0.82803 0.0
C532 C 0.32816 0.33472 0.81486 0.0
C533 C 0.36053 0.32253 0.81058 0.0
N534 N 0.37386 0.29879 0.82017 0.0
Co535 Co 0.42039 0.27566 0.81831 0.0
N536 N 0.42408 0.28763 0.7968 0.0
C537 C 0.40524 0.31232 0.78966 0.0
C538 C 0.41374 0.31496 0.7748 0.0
C539 C 0.43972 0.29055 0.77251 0.0
C540 C 0.4456 0.2743 0.78614 0.0
N541 N 0.46716 0.25311 0.81661 0.0
C542 C 0.48506 0.24264 0.80433 0.0
C543 C 0.51697 0.22766 0.80826 0.0
C544 C 0.51922 0.22937 0.8235 0.0
C545 C 0.48862 0.24506 0.82804 0.0
N546 N 0.41672 0.26339 0.8398 0.0
C547 C 0.44352 0.25402 0.84873 0.0
C548 C 0.43332 0.2476 0.86316 0.0
C549 C 0.39791 0.25358 0.86337 0.0
C550 C 0.38846 0.26337 0.84899 0.0
N551 N 0.39763 0.23122 0.81283 0.0
C552 C 0.36922 0.16805 0.802 0.0
C553 C 0.39669 0.1678 0.81241 0.0
C554 C 0.41015 0.19966 0.81786 0.0
C555 C 0.35567 0.20054 0.79751 0.0
C556 C 0.37037 0.23163 0.80292 0.0
N557 N 0.44311 0.32056 0.82345 0.0
C558 C 0.44368 0.37499 0.83731 0.0
C559 C 0.47058 0.38851 0.82825 0.0
C560 C 0.48423 0.36638 0.81712 0.0
C561 C 0.47046 0.33266 0.81502 0.0
C562 C 0.43034 0.34119 0.83472 0.0
H563 H 0.48135 0.31679 0.8062 0.0
H564 H 0.40908 0.33213 0.84165 0.0
H565 H 0.43126 0.19878 0.82586 0.0
H566 H 0.36024 0.25606 0.79867 0.0
C567 C 0.37666 0.32846 0.79674 0.0
C568 C 0.35331 0.27587 0.84492 0.0
C569 C 0.47379 0.24873 0.78887 0.0
C570 C 0.47661 0.24689 0.84275 0.0
H571 H 0.29741 0.32128 0.83468 0.0
H572 H 0.31136 0.35283 0.80889 0.0
H573 H 0.40181 0.33185 0.76652 0.0
H574 H 0.45309 0.28555 0.76207 0.0
H575 H 0.53666 0.2167 0.80091 0.0
H576 H 0.54001 0.21907 0.83046 0.0
H577 H 0.4495 0.23878 0.87235 0.0
H578 H 0.3811 0.25159 0.87306 0.0
H579 H 0.40774 0.1432 0.81625 0.0
H580 H 0.3347 0.20199 0.78938 0.0
H581 H 0.43268 0.39043 0.84632 0.0
H582 H 0.50468 0.37529 0.80966 0.0
C583 C 0.24112 0.54703 0.22021 0.0
C584 C 0.22427 0.516 0.21629 0.0
C585 C 0.22498 0.51408 0.20103 0.0
C586 C 0.24196 0.54398 0.19647 0.0
N587 N 0.25175 0.56474 0.20791 0.0
Co588 Co 0.2764 0.61053 0.20619 0.0
N589 N 0.26338 0.61521 0.18483 0.0
C590 C 0.2525 0.58899 0.17587 0.0
C591 C 0.24604 0.59976 0.16152 0.0
C592 C 0.25357 0.63494 0.1614 0.0
C593 C 0.26423 0.64369 0.17575 0.0
N594 N 0.30128 0.65625 0.20434 0.0
C595 C 0.29908 0.68129 0.19359 0.0
C596 C 0.32176 0.70891 0.1966 0.0
C597 C 0.33905 0.70051 0.20955 0.0
C598 C 0.32597 0.66838 0.21375 0.0
N599 N 0.28943 0.60568 0.22753 0.0
C600 C 0.31532 0.62326 0.23449 0.0
C601 C 0.31866 0.61406 0.24924 0.0
C602 C 0.29346 0.58896 0.25166 0.0
C603 C 0.27606 0.58426 0.23821 0.0
N604 N 0.31993 0.58589 0.2006 0.0
C605 C 0.38743 0.55691 0.19665 0.0
C606 C 0.363 0.54153 0.20639 0.0
C607 C 0.32982 0.55648 0.20829 0.0
C608 C 0.37611 0.58584 0.18815 0.0
C609 C 0.34225 0.59957 0.19015 0.0
N610 N 0.23339 0.63512 0.21224 0.0
C611 C 0.20578 0.67667 0.22877 0.0
C612 C 0.17237 0.66391 0.2251 0.0
C613 C 0.17026 0.6378 0.21401 0.0
C614 C 0.20102 0.62405 0.20762 0.0
C615 C 0.23567 0.66179 0.2224 0.0
H616 H 0.19865 0.60352 0.19938 0.0
H617 H 0.26074 0.67117 0.22618 0.0
H618 H 0.31269 0.54482 0.21646 0.0
H619 H 0.33475 0.62222 0.18367 0.0
C620 C 0.24386 0.55615 0.18179 0.0
C621 C 0.24916 0.55727 0.23565 0.0
C622 C 0.27793 0.67837 0.17992 0.0
C623 C 0.3321 0.65148 0.22741 0.0
H624 H 0.21286 0.49662 0.22367 0.0
H625 H 0.21332 0.49394 0.19409 0.0
H626 H 0.23611 0.58416 0.15235 0.0
H627 H 0.25188 0.65206 0.15179 0.0
H628 H 0.32565 0.73248 0.19006 0.0
H629 H 0.35808 0.71644 0.21542 0.0
H630 H 0.33656 0.62499 0.25738 0.0
H631 H 0.28866 0.57539 0.26208 0.0
H632 H 0.36955 0.5184 0.21284 0.0
H633 H 0.39361 0.59887 0.18043 0.0
H634 H 0.20914 0.69766 0.2368 0.0
H635 H 0.14522 0.627 0.21067 0.0
C636 C 0.68208 0.794 0.44485 0.0
C637 C 0.71516 0.80376 0.44979 0.0
C638 C 0.71415 0.80296 0.46505 0.0
C639 C 0.68062 0.79291 0.46858 0.0
N640 N 0.6602 0.78763 0.45653 0.0
Co641 Co 0.61007 0.77232 0.45683 0.0
N642 N 0.60539 0.78219 0.47863 0.0
C643 C 0.63209 0.78819 0.48815 0.0
C644 C 0.62139 0.79355 0.50258 0.0
C645 C 0.58573 0.79008 0.50225 0.0
C646 C 0.57666 0.78249 0.48759 0.0
N647 N 0.55979 0.75747 0.45695 0.0
C648 C 0.53472 0.76077 0.46765 0.0
C649 C 0.50327 0.74592 0.46297 0.0
C650 C 0.50893 0.73246 0.44906 0.0
C651 C 0.54333 0.73972 0.44598 0.0
N652 N 0.61501 0.7617 0.43511 0.0
C653 C 0.59259 0.7425 0.42684 0.0
C654 C 0.60285 0.73869 0.41227 0.0
C655 C 0.6339 0.75638 0.41123 0.0
C656 C 0.64083 0.77005 0.42531 0.0
N657 N 0.62487 0.72399 0.46179 0.0
C658 C 0.65124 0.66029 0.4734 0.0
C659 C 0.61831 0.67323 0.47765 0.0
C660 C 0.60596 0.70497 0.47194 0.0
C661 C 0.66943 0.67877 0.46223 0.0
C662 C 0.65556 0.71017 0.45644 0.0
N663 N 0.59535 0.82082 0.45228 0.0
C664 C 0.5588 0.86212 0.43892 0.0
C665 C 0.57062 0.89016 0.44786 0.0
C666 C 0.59577 0.88237 0.45882 0.0
C667 C 0.60796 0.84799 0.46069 0.0
C668 C 0.57129 0.82782 0.44135 0.0
H669 H 0.62719 0.84345 0.46924 0.0
H670 H 0.5611 0.80694 0.43449 0.0
H671 H 0.58158 0.7145 0.47628 0.0
H672 H 0.67046 0.72389 0.44805 0.0
C673 C 0.66635 0.79201 0.48292 0.0
C674 C 0.67352 0.78822 0.42907 0.0
C675 C 0.54111 0.77199 0.48311 0.0
C676 C 0.56016 0.73258 0.43254 0.0
H677 H 0.73779 0.81027 0.44305 0.0
H678 H 0.73517 0.8096 0.47266 0.0
H679 H 0.63754 0.79963 0.51217 0.0
H680 H 0.56841 0.79198 0.51178 0.0
H681 H 0.47903 0.74364 0.46916 0.0
H682 H 0.4902 0.71892 0.44204 0.0
H683 H 0.58897 0.72543 0.40336 0.0
H684 H 0.64981 0.75857 0.40128 0.0
H685 H 0.6022 0.65948 0.4857 0.0
H686 H 0.69484 0.66999 0.45836 0.0
H687 H 0.53999 0.86642 0.43007 0.0
H688 H 0.60559 0.90242 0.46628 0.0
C689 C 0.74769 0.48225 0.55237 0.0
C690 C 0.73473 0.51562 0.55544 0.0
C691 C 0.73576 0.51964 0.57062 0.0
C692 C 0.74945 0.48876 0.57595 0.0
N693 N 0.757 0.46554 0.56509 0.0
Co694 Co 0.77859 0.4186 0.56796 0.0
N695 N 0.76529 0.41763 0.58941 0.0
C696 C 0.75494 0.44551 0.59756 0.0
C697 C 0.74573 0.43681 0.61188 0.0
C698 C 0.75105 0.40132 0.61289 0.0
C699 C 0.76391 0.39033 0.59914 0.0
N700 N 0.80088 0.37193 0.57097 0.0
C701 C 0.79798 0.34882 0.58245 0.0
C702 C 0.82 0.32019 0.58028 0.0
C703 C 0.83718 0.32569 0.56704 0.0
C704 C 0.82495 0.35734 0.56187 0.0
N705 N 0.79147 0.41962 0.54646 0.0
C706 C 0.81589 0.39938 0.53987 0.0
C707 C 0.81839 0.40532 0.52479 0.0
C708 C 0.79419 0.43107 0.52175 0.0
C709 C 0.77839 0.43963 0.53522 0.0
N710 N 0.82342 0.44134 0.57297 0.0
C711 C 0.89089 0.46945 0.5779 0.0
C712 C 0.86972 0.48132 0.56611 0.0
C713 C 0.83622 0.46735 0.56396 0.0
C714 C 0.87671 0.44387 0.58747 0.0
C715 C 0.84315 0.43013 0.5848 0.0
N716 N 0.73414 0.39588 0.56258 0.0
C717 C 0.70353 0.35302 0.54767 0.0
C718 C 0.67116 0.36783 0.5515 0.0
C719 C 0.67092 0.39635 0.56143 0.0
C720 C 0.70266 0.40966 0.56701 0.0
C721 C 0.73454 0.36749 0.55322 0.0
H722 H 0.70177 0.43171 0.57456 0.0
H723 H 0.75893 0.35632 0.54947 0.0
H724 H 0.82109 0.47702 0.55468 0.0
H725 H 0.83351 0.4099 0.59215 0.0
C726 C 0.74945 0.47821 0.59087 0.0
C727 C 0.75285 0.46825 0.53725 0.0
C728 C 0.77743 0.35471 0.59615 0.0
C729 C 0.83146 0.37161 0.54771 0.0
H730 H 0.72558 0.5351 0.54755 0.0
H731 H 0.72633 0.54186 0.57701 0.0
H732 H 0.73524 0.45397 0.62042 0.0
H733 H 0.74619 0.38558 0.62271 0.0
H734 H 0.82375 0.29792 0.58761 0.0
H735 H 0.85574 0.30826 0.56168 0.0
H736 H 0.83482 0.39162 0.51684 0.0
H737 H 0.7889 0.44222 0.51088 0.0
H738 H 0.87918 0.50056 0.55818 0.0
H739 H 0.89139 0.43422 0.59696 0.0
H740 H 0.70505 0.33121 0.53993 0.0
H741 H 0.64644 0.4084 0.5648 0.0
C742 C 0.3495 0.23084 0.44453 0.0
C743 C 0.32131 0.20923 0.44791 0.0
C744 C 0.32943 0.19251 0.46103 0.0
C745 C 0.36198 0.20484 0.46497 0.0
N746 N 0.37467 0.22851 0.4552 0.0
Co747 Co 0.42109 0.25206 0.45659 0.0
N748 N 0.42603 0.24031 0.47806 0.0
C749 C 0.40785 0.21542 0.48539 0.0
C750 C 0.41725 0.21279 0.50015 0.0
C751 C 0.44312 0.23742 0.50217 0.0
C752 C 0.44805 0.25377 0.48849 0.0
N753 N 0.46756 0.27542 0.45784 0.0
C754 C 0.48584 0.28634 0.46995 0.0
C755 C 0.51726 0.30188 0.46571 0.0
C756 C 0.51882 0.30003 0.45046 0.0
C757 C 0.48834 0.2837 0.44622 0.0
N758 N 0.41635 0.26378 0.4351 0.0
C759 C 0.44266 0.27317 0.42591 0.0
C760 C 0.43178 0.27906 0.41153 0.0
C761 C 0.39644 0.27275 0.41164 0.0
C762 C 0.3877 0.26332 0.42614 0.0
N763 N 0.39794 0.29634 0.46214 0.0
C764 C 0.36854 0.3594 0.47274 0.0
C765 C 0.3954 0.35975 0.46203 0.0
C766 C 0.40938 0.32794 0.45672 0.0
C767 C 0.3562 0.3268 0.47769 0.0
C768 C 0.37137 0.29579 0.47239 0.0
N769 N 0.44423 0.20729 0.4514 0.0
C770 C 0.44334 0.15111 0.43881 0.0
C771 C 0.47292 0.13993 0.44679 0.0
C772 C 0.48854 0.16367 0.45671 0.0
C773 C 0.4737 0.19692 0.45895 0.0
C774 C 0.42979 0.185 0.44109 0.0
H775 H 0.48561 0.21383 0.46715 0.0
H776 H 0.40703 0.19277 0.43476 0.0
H777 H 0.42996 0.32893 0.44848 0.0
H778 H 0.36209 0.27134 0.47695 0.0
C779 C 0.37897 0.19906 0.47863 0.0
C780 C 0.35275 0.2511 0.43061 0.0
C781 C 0.47569 0.27977 0.48551 0.0
C782 C 0.47581 0.28114 0.43161 0.0
H783 H 0.29753 0.20568 0.4415 0.0
H784 H 0.31305 0.17438 0.46719 0.0
H785 H 0.40596 0.19579 0.50855 0.0
H786 H 0.45702 0.24252 0.51248 0.0
H787 H 0.53713 0.31316 0.47287 0.0
H788 H 0.53913 0.31053 0.4433 0.0
H789 H 0.44745 0.28788 0.40218 0.0
H790 H 0.37918 0.27442 0.40208 0.0
H791 H 0.40554 0.38441 0.45781 0.0
H792 H 0.33576 0.32524 0.48606 0.0
H793 H 0.4307 0.13375 0.43089 0.0
H794 H 0.51136 0.15611 0.46315 0.0
C795 C 0.28811 0.54622 0.55246 0.0
C796 C 0.30627 0.51555 0.55581 0.0
C797 C 0.30742 0.51315 0.57104 0.0
C798 C 0.29013 0.54239 0.57613 0.0
N799 N 0.27834 0.56324 0.56508 0.0
Co800 Co 0.25236 0.60815 0.56768 0.0
N801 N 0.26712 0.61225 0.58891 0.0
C802 C 0.28113 0.58637 0.59725 0.0
C803 C 0.29055 0.59715 0.61128 0.0
C804 C 0.28158 0.63191 0.61192 0.0
C805 C 0.2665 0.64034 0.59826 0.0
N806 N 0.22594 0.65278 0.57043 0.0
C807 C 0.22758 0.67708 0.58153 0.0
C808 C 0.20295 0.70344 0.57928 0.0
C809 C 0.18534 0.69523 0.5664 0.0
C810 C 0.19998 0.66434 0.56151 0.0
N811 N 0.23791 0.60406 0.54642 0.0
C812 C 0.21099 0.62122 0.54002 0.0
C813 C 0.20669 0.6127 0.52523 0.0
C814 C 0.23236 0.58843 0.52219 0.0
C815 C 0.25094 0.58349 0.53533 0.0
N816 N 0.21024 0.58178 0.57365 0.0
C817 C 0.14353 0.55251 0.57825 0.0
C818 C 0.16561 0.53975 0.56701 0.0
C819 C 0.19894 0.55429 0.56505 0.0
C820 C 0.1565 0.57855 0.58783 0.0
C821 C 0.18985 0.59292 0.58531 0.0
N822 N 0.29382 0.63472 0.56133 0.0
C823 C 0.31856 0.67964 0.54558 0.0
C824 C 0.35256 0.6691 0.54934 0.0
C825 C 0.35656 0.64158 0.55962 0.0
C826 C 0.32686 0.62503 0.56563 0.0
C827 C 0.28973 0.66206 0.55158 0.0
H828 H 0.33063 0.60388 0.57347 0.0
H829 H 0.26408 0.67004 0.54792 0.0
H830 H 0.21485 0.54431 0.55607 0.0
H831 H 0.1984 0.61416 0.59239 0.0
C832 C 0.29007 0.55416 0.59086 0.0
C833 C 0.27843 0.55674 0.53724 0.0
C834 C 0.24948 0.67424 0.59501 0.0
C835 C 0.19361 0.64818 0.54771 0.0
H836 H 0.31745 0.49678 0.54809 0.0
H837 H 0.32058 0.49322 0.57759 0.0
H838 H 0.30369 0.58196 0.61983 0.0
H839 H 0.28569 0.64891 0.62143 0.0
H840 H 0.1978 0.72593 0.58635 0.0
H841 H 0.16487 0.71041 0.56108 0.0
H842 H 0.18773 0.62343 0.51749 0.0
H843 H 0.23658 0.57542 0.51159 0.0
H844 H 0.15684 0.51918 0.55953 0.0
H845 H 0.14031 0.58903 0.59671 0.0
H846 H 0.31417 0.70047 0.53756 0.0
H847 H 0.38243 0.63278 0.56293 0.0
H848 H 0.12441 0.41793 0.29038 0.0
H849 H 0.23012 0.38302 0.29884 0.0
H850 H 0.14692 0.46736 0.27593 0.0
H851 H 0.25292 0.43312 0.28496 0.0
H852 H 0.27899 0.49465 0.24243 0.0
H853 H 0.25864 0.45077 0.26022 0.0
H854 H 0.1765 0.52163 0.27454 0.0
H855 H 0.19643 0.56485 0.25608 0.0
C856 C 0.15252 0.42136 0.28945 0.0
C857 C 0.17548 0.39645 0.29565 0.0
C858 C 0.16552 0.44981 0.28118 0.0
C859 C 0.20188 0.45428 0.27906 0.0
C860 C 0.22479 0.43021 0.28596 0.0
C861 C 0.21176 0.40156 0.29403 0.0
C862 C 0.25686 0.50084 0.24955 0.0
C863 C 0.23915 0.5329 0.24793 0.0
C864 C 0.24521 0.47581 0.25984 0.0
C865 C 0.21574 0.48238 0.26892 0.0
C866 C 0.19887 0.51525 0.26761 0.0
C867 C 0.21042 0.54021 0.25718 0.0
H868 H 0.56024 0.83506 0.76925 0.0
H869 H 0.49144 0.75025 0.78159 0.0
H870 H 0.5173 0.85533 0.75078 0.0
H871 H 0.44777 0.77094 0.7638 0.0
H872 H 0.38025 0.80114 0.72531 0.0
H873 H 0.43016 0.77809 0.73919 0.0
H874 H 0.46294 0.8842 0.74936 0.0
H875 H 0.41375 0.90697 0.73489 0.0
C876 C 0.53599 0.82063 0.76785 0.0
C877 C 0.52899 0.79117 0.77675 0.0
C878 C 0.51117 0.83238 0.75741 0.0
C879 C 0.4787 0.81502 0.75575 0.0
C880 C 0.47249 0.78479 0.76445 0.0
C881 C 0.4974 0.77294 0.77474 0.0
C882 C 0.39842 0.81947 0.73038 0.0
C883 C 0.39299 0.85586 0.72905 0.0
C884 C 0.42698 0.8063 0.73845 0.0
C885 C 0.45062 0.82914 0.74566 0.0
C886 C 0.44576 0.86563 0.74386 0.0
C887 C 0.41744 0.87879 0.73559 0.0
H888 H 0.75194 0.53918 0.24128 0.0
H889 H 0.83444 0.46986 0.25573 0.0
H890 H 0.77153 0.58373 0.25893 0.0
H891 H 0.85356 0.51376 0.27408 0.0
H892 H 0.90441 0.61816 0.28989 0.0
H893 H 0.88277 0.5682 0.27551 0.0
H894 H 0.77624 0.60216 0.28358 0.0
H895 H 0.7982 0.65278 0.29737 0.0
C896 C 0.77393 0.53336 0.24852 0.0
C897 C 0.79187 0.50135 0.24715 0.0
C898 C 0.78511 0.55876 0.25875 0.0
C899 C 0.81431 0.55263 0.26804 0.0
C900 C 0.8314 0.51981 0.26699 0.0
C901 C 0.82032 0.49448 0.25661 0.0
C902 C 0.87637 0.61456 0.28876 0.0
C903 C 0.85302 0.63954 0.29466 0.0
C904 C 0.86386 0.58581 0.28053 0.0
C905 C 0.82762 0.58109 0.27815 0.0
C906 C 0.80431 0.60524 0.28477 0.0
C907 C 0.81685 0.63419 0.2928 0.0
H908 H 0.46747 0.19286 0.76987 0.0
H909 H 0.53447 0.28028 0.78061 0.0
H910 H 0.51063 0.17183 0.75162 0.0
H911 H 0.5784 0.25892 0.76307 0.0
H912 H 0.64635 0.22666 0.72505 0.0
H913 H 0.59599 0.24985 0.7386 0.0
H914 H 0.56553 0.14405 0.75046 0.0
H915 H 0.61517 0.12105 0.7363 0.0
C916 C 0.49136 0.2077 0.76815 0.0
C917 C 0.49778 0.23814 0.77653 0.0
C918 C 0.51632 0.19553 0.75785 0.0
C919 C 0.54838 0.21343 0.75582 0.0
C920 C 0.55399 0.24459 0.76401 0.0
C921 C 0.52893 0.25686 0.77415 0.0
C922 C 0.62857 0.2084 0.73041 0.0
C923 C 0.63479 0.17205 0.72965 0.0
C924 C 0.59977 0.22167 0.7383 0.0
C925 C 0.57666 0.199 0.7459 0.0
C926 C 0.58228 0.16248 0.74466 0.0
C927 C 0.61085 0.14919 0.73655 0.0
H928 H 0.19459 0.96788 0.01869 0.0
H929 H 0.27943 0.03653 0.03106 0.0
H930 H 0.17428 1.01118 1.00035 0.0
H931 H 0.25868 0.08058 0.01345 0.0
H932 H 0.2282 0.14932 0.97546 0.0
H933 H 0.2513 0.09886 0.98901 0.0
H934 H 0.14549 0.06557 0.99904 0.0
H935 H 0.12268 0.11529 0.98484 0.0
C936 C 0.20901 0.99218 0.01733 0.0
C937 C 0.23848 0.99904 0.02621 0.0
C938 C 0.19724 0.01722 1.00697 0.0
C939 C 0.21457 0.04977 1.00538 0.0
C940 C 0.24483 0.05581 0.01405 0.0
C941 C 0.25672 0.03067 0.02424 0.0
C942 C 0.20995 0.13089 0.98041 0.0
C943 C 0.17364 0.13634 0.97913 0.0
C944 C 0.22315 0.10203 0.9883 0.0
C945 C 0.20041 0.07811 0.9954 0.0
C946 C 0.16399 0.08297 0.99363 0.0
C947 C 0.1508 0.11159 0.98551 0.0
H948 H 0.14827 0.80097 0.0488 0.0
H949 H 0.11466 0.90678 0.03927 0.0
H950 H 0.09778 0.7779 0.03532 0.0
H951 H 0.06496 0.884 0.02513 0.0
H952 H 0.9675 0.83558 1.00536 0.0
H953 H 1.01066 0.85563 0.02378 0.0
H954 H 0.07916 0.77009 1.011 0.0
H955 H 0.0352 0.74959 0.99332 0.0
C956 C 0.12994 0.8193 0.04383 0.0
C957 C 0.1355 0.85567 0.04506 0.0
C958 C 0.10106 0.80611 0.03597 0.0
C959 C 0.07722 0.82892 0.02885 0.0
C960 C 0.08225 0.86543 0.03056 0.0
C961 C 0.11087 0.8786 0.03864 0.0
C962 C 0.99153 0.8208 1.00684 0.0
C963 C 0.99815 0.79108 0.99803 0.0
C964 C 0.01651 0.83245 0.01723 0.0
C965 C 0.04882 0.81477 0.01892 0.0
C966 C 0.05459 0.78423 1.01034 0.0
C967 C 0.02949 0.77245 1.00012 0.0
H968 H 0.90614 0.91595 0.98491 0.0
H969 H 0.80075 0.88155 0.97549 0.0
H970 H 0.88314 0.96545 0.99919 0.0
H971 H 0.77746 0.93178 0.98916 0.0
H972 H 0.74913 0.99445 0.03117 0.0
H973 H 0.76997 0.95029 0.01359 0.0
H974 H 0.85422 0.01977 1.00042 0.0
H975 H 0.83383 0.06317 0.01871 0.0
C976 C 0.878 0.91949 0.9856 0.0
C977 C 0.85527 0.89471 0.97916 0.0
C978 C 0.86471 0.94801 0.99377 0.0
C979 C 0.82827 0.95274 0.99554 0.0
C980 C 0.80563 0.92872 0.98844 0.0
C981 C 0.81894 0.89997 0.98048 0.0
C982 C 0.77182 1.00029 0.02433 0.0
C983 C 0.79 0.03199 0.02627 0.0
C984 C 0.78378 0.97509 0.01417 0.0
C985 C 0.81402 0.98112 1.00549 0.0
C986 C 0.83128 1.01373 1.00704 0.0
C987 C 0.81945 0.03883 0.01738 0.0
H988 H 0.91401 0.12438 0.03922 0.0
H989 H 0.87982 0.23027 0.04826 0.0
H990 H 0.96357 0.14705 0.02494 0.0
H991 H 0.93008 0.25323 0.0346 0.0
H992 H 0.99248 0.2808 0.99252 0.0
H993 H 0.94841 0.26017 1.01012 0.0
H994 H 0.01781 0.176 0.02358 0.0
H995 H 0.06116 0.19618 1.00527 0.0
C996 C 0.91763 0.15256 0.03845 0.0
C997 C 0.89288 0.17553 0.04477 0.0
C998 C 0.94615 0.16566 0.03028 0.0
C999 C 0.95092 0.20214 0.02838 0.0
C1000 C 0.92698 0.22503 0.0354 0.0
C1001 C 0.89823 0.2119 0.04336 0.0
C1002 C 0.99832 0.25816 0.99941 0.0
C1003 C 0.02999 0.23994 0.99755 0.0
C1004 C 0.97317 0.24634 1.0096 0.0
C1005 C 0.97922 0.21619 0.01838 0.0
C1006 C 1.01177 0.19887 0.01689 0.0
C1007 C 0.03683 0.21058 1.00653 0.0
H1008 H 0.69762 0.91447 0.81195 0.0
H1009 H 0.63991 0.88207 0.77295 0.0
H1010 H 0.7195 0.9662 0.7983 0.0
H1011 H 0.66092 0.93386 0.75944 0.0
H1012 H 0.68039 0.04579 0.74372 0.0
H1013 H 0.65593 1.00172 0.76075 0.0
H1014 H 0.76045 0.97357 0.77476 0.0
H1015 H 0.78484 0.01687 0.75739 0.0
C1016 C 0.68929 0.91876 0.80054 0.0
C1017 C 0.66711 0.89446 0.79346 0.0
C1018 C 0.70185 0.94818 0.79272 0.0
C1019 C 0.69178 0.95417 0.77782 0.0
C1020 C 0.66883 0.93021 0.77095 0.0
C1021 C 0.65692 0.90053 0.77864 0.0
C1022 C 0.69801 0.03079 0.75075 0.0
C1023 C 0.73444 0.03525 0.74947 0.0
C1024 C 0.68408 1.00542 0.7604 0.0
C1025 C 0.70628 0.98418 0.7691 0.0
C1026 C 0.74268 0.98985 0.76836 0.0
C1027 C 0.75664 1.01481 0.7585 0.0
H1028 H 0.99369 0.25317 0.28264 0.0
H1029 H 0.06269 0.33656 0.26885 0.0
H1030 H 0.94952 0.27307 0.26493 0.0
H1031 H 0.01923 0.35597 0.25043 0.0
H1032 H 0.9156 0.40731 0.2344 0.0
H1033 H 0.96518 0.38518 0.24883 0.0
H1034 H 0.93086 0.27869 0.24046 0.0
H1035 H 0.88057 0.30116 0.22667 0.0
C1036 C 0.99957 0.27538 0.2755 0.0
C1037 C 0.03137 0.29349 0.2771 0.0
C1038 C 0.97436 0.28678 0.26525 0.0
C1039 C 0.98047 0.31636 0.25614 0.0
C1040 C 1.01314 0.33354 0.25738 0.0
C1041 C 0.03826 0.32227 0.2678 0.0
C1042 C 0.91903 0.37917 0.23549 0.0
C1043 C 0.89405 0.356 0.22949 0.0
C1044 C 0.94758 0.36637 0.24374 0.0
C1045 C 0.95213 0.32999 0.24605 0.0
C1046 C 0.92794 0.30685 0.23934 0.0
C1047 C 0.89917 0.31969 0.23131 0.0
H1048 H 0.33578 0.96774 0.75463 0.0
H1049 H 0.24819 0.03457 0.74402 0.0
H1050 H 0.35624 1.01069 0.77308 0.0
H1051 H 0.26904 0.07837 0.76174 0.0
H1052 H 0.30105 0.14698 0.79956 0.0
H1053 H 0.27802 0.09641 0.78604 0.0
H1054 H 0.38375 0.06544 0.77455 0.0
H1055 H 0.40652 0.11516 0.78876 0.0
C1056 C 0.32074 0.99153 0.75643 0.0
C1057 C 0.29042 0.99794 0.74803 0.0
C1058 C 0.33262 0.0164 0.76685 0.0
C1059 C 0.31457 0.04843 0.76895 0.0
C1060 C 0.28349 0.054 0.76076 0.0
C1061 C 0.27149 0.02899 0.75052 0.0
C1062 C 0.3193 0.129 0.7943 0.0
C1063 C 0.35557 0.13507 0.79519 0.0
C1064 C 0.30614 0.10009 0.78642 0.0
C1065 C 0.32884 0.07678 0.77891 0.0
C1066 C 0.36527 0.08231 0.78028 0.0
C1067 C 0.37844 0.11094 0.7884 0.0
H1068 H 0.03333 0.78488 0.28196 0.0
H1069 H 0.96911 0.69645 0.26957 0.0
H1070 H 0.07987 0.76408 0.26531 0.0
H1071 H 0.0156 0.67567 0.25261 0.0
H1072 H 0.10421 0.67249 0.21479 0.0
H1073 H 0.05331 0.69463 0.22865 0.0
H1074 H 0.11772 0.70764 0.26778 0.0
H1075 H 0.1678 0.68414 0.25444 0.0
C1076 C 0.02901 0.76136 0.27539 0.0
C1077 C 0.99786 0.74214 0.27702 0.0
C1078 C 0.05562 0.74935 0.26594 0.0
C1079 C 0.05149 0.71808 0.25775 0.0
C1080 C 0.01944 0.6999 0.25874 0.0
C1081 C 0.99291 0.71172 0.2684 0.0
C1082 C 0.10751 0.67965 0.22639 0.0
C1083 C 0.14061 0.67695 0.23333 0.0
C1084 C 0.07831 0.69248 0.2343 0.0
C1085 C 0.08168 0.70338 0.24923 0.0
C1086 C 0.11447 0.7002 0.25619 0.0
C1087 C 0.14334 0.68689 0.24844 0.0
H1088 H 0.68453 0.47714 0.52986 0.0
H1089 H 0.78883 0.50807 0.51683 0.0
H1090 H 0.65979 0.52094 0.51281 0.0
H1091 H 0.76413 0.5513 0.49943 0.0
H1092 H 0.69661 0.60936 0.46228 0.0
H1093 H 0.72177 0.55907 0.47561 0.0
H1094 H 0.66549 0.58916 0.51533 0.0
H1095 H 0.64207 0.64008 0.50258 0.0
C1096 C 0.70208 0.49249 0.52294 0.0
C1097 C 0.73852 0.48881 0.52445 0.0
C1098 C 0.68799 0.51769 0.51328 0.0
C1099 C 0.71005 0.53958 0.50481 0.0
C1100 C 0.74651 0.53453 0.50568 0.0
C1101 C 0.76064 0.50964 0.51555 0.0
C1102 C 0.6898 0.60556 0.47389 0.0
C1103 C 0.66668 0.6289 0.48118 0.0
C1104 C 0.7041 0.57656 0.48148 0.0
C1105 C 0.69512 0.56989 0.49644 0.0
C1106 C 0.67225 0.59313 0.50371 0.0
C1107 C 0.65859 0.62233 0.49628 0.0
H1108 H 0.61858 0.40568 0.53828 0.0
H1109 H 0.64992 0.29955 0.54861 0.0
H1110 H 0.56886 0.38333 0.52401 0.0
H1111 H 0.59958 0.27701 0.53488 0.0
H1112 H 0.53728 0.24863 0.49283 0.0
H1113 H 0.58178 0.26942 0.51023 0.0
H1114 H 0.51379 0.35532 0.52303 0.0
H1115 H 0.46997 0.33487 0.50497 0.0
C1116 C 0.61433 0.37756 0.53779 0.0
C1117 C 0.63833 0.35439 0.54449 0.0
C1118 C 0.58572 0.36465 0.52962 0.0
C1119 C 0.58013 0.3282 0.52807 0.0
C1120 C 0.60334 0.30517 0.53543 0.0
C1121 C 0.63215 0.31808 0.54341 0.0
C1122 C 0.53184 0.27169 0.49954 0.0
C1123 C 0.50039 0.29023 0.49761 0.0
C1124 C 0.55723 0.28361 0.5096 0.0
C1125 C 0.55166 0.31424 0.51814 0.0
C1126 C 0.51941 0.33203 0.51653 0.0
C1127 C 0.4941 0.32019 0.50632 0.0
H1128 H 0.24699 0.49519 0.52999 0.0
H1129 H 0.33184 0.56318 0.51704 0.0
H1130 H 0.26788 0.45019 0.51283 0.0
H1131 H 0.35224 0.51897 0.49912 0.0
H1132 H 0.40481 0.41489 0.48455 0.0
H1133 H 0.38135 0.46519 0.49818 0.0
H1134 H 0.276 0.42926 0.48895 0.0
H1135 H 0.29981 0.3782 0.47602 0.0
C1136 C 0.26959 0.50078 0.52306 0.0
C1137 C 0.28775 0.53258 0.52474 0.0
C1138 C 0.28164 0.47503 0.51314 0.0
C1139 C 0.31203 0.48054 0.50447 0.0
C1140 C 0.32921 0.51327 0.50574 0.0
C1141 C 0.31731 0.53889 0.51584 0.0
C1142 C 0.37665 0.41809 0.48529 0.0
C1143 C 0.35419 0.39245 0.4793 0.0
C1144 C 0.36306 0.44708 0.49308 0.0
C1145 C 0.32657 0.4515 0.4949 0.0
C1146 C 0.30419 0.42656 0.48821 0.0
C1147 C 0.31781 0.39732 0.48067 0.0
H1148 H 0.54921 0.71884 0.50312 0.0
H1149 H 0.47577 0.7983 0.48915 0.0
H1150 H 0.50647 0.69601 0.52088 0.0
H1151 H 0.4319 0.77446 0.50627 0.0
H1152 H 0.36538 0.73916 0.54509 0.0
H1153 H 0.41271 0.7661 0.53081 0.0
H1154 H 0.45516 0.66298 0.52154 0.0
H1155 H 0.40858 0.63646 0.53631 0.0
C1156 C 0.52388 0.73157 0.50399 0.0
C1157 C 0.51578 0.76044 0.49486 0.0
C1158 C 0.49913 0.71822 0.51402 0.0
C1159 C 0.46535 0.73302 0.51502 0.0
C1160 C 0.45766 0.76254 0.50606 0.0
C1161 C 0.48267 0.77619 0.49617 0.0
C1162 C 0.3851 0.72235 0.54011 0.0
C1163 C 0.38325 0.68568 0.54184 0.0
C1164 C 0.41215 0.73776 0.53181 0.0
C1165 C 0.43789 0.71687 0.52483 0.0
C1166 C 0.43636 0.68016 0.52689 0.0
C1167 C 0.40955 0.66482 0.53536 0.0
H1168 H 0.33324 0.19642 0.4128 0.0
H1169 H 0.31003 0.30497 0.42208 0.0
H1170 H 0.29162 0.19702 0.39204 0.0
H1171 H 0.26738 0.3057 0.40165 0.0
H1172 H 0.2209 0.30711 0.35466 0.0
H1173 H 0.26293 0.30567 0.37533 0.0
H1174 H 0.23193 0.19887 0.38514 0.0
H1175 H 0.19095 0.20039 0.36416 0.0
C1176 C 0.31852 0.22019 0.41055 0.0
C1177 C 0.32431 0.25048 0.41915 0.0
C1178 C 0.29463 0.22063 0.39866 0.0
C1179 C 0.27591 0.25144 0.39504 0.0
C1180 C 0.28156 0.28162 0.40387 0.0
C1181 C 0.30563 0.28117 0.41572 0.0
C1182 C 0.2236 0.28327 0.36116 0.0
C1183 C 0.20324 0.25369 0.35772 0.0
C1184 C 0.24733 0.28248 0.37313 0.0
C1185 C 0.25099 0.25215 0.38205 0.0
C1186 C 0.23047 0.22251 0.37846 0.0
C1187 C 0.20691 0.2233 0.36645 0.0
H1188 H 0.27265 0.74228 0.59374 0.0
H1189 H 0.22041 0.669 0.62289 0.0
H1190 H 0.27154 0.78682 0.61367 0.0
H1191 H 0.22085 0.71277 0.643 0.0
H1192 H 0.27827 0.79009 0.67777 0.0
H1193 H 0.27541 0.7459 0.65774 0.0
H1194 H 0.21892 0.81921 0.63003 0.0
H1195 H 0.22023 0.8626 0.65028 0.0
C1196 C 0.26105 0.73573 0.60441 0.0
C1197 C 0.24738 0.70196 0.60688 0.0
C1198 C 0.26042 0.76112 0.6158 0.0
C1199 C 0.24658 0.75303 0.62995 0.0
C1200 C 0.23218 0.71952 0.63229 0.0
C1201 C 0.23199 0.69452 0.6208 0.0
C1202 C 0.26512 0.79659 0.66742 0.0
C1203 C 0.25021 0.83003 0.66545 0.0
C1204 C 0.26346 0.77139 0.65599 0.0
C1205 C 0.24734 0.77934 0.64227 0.0
C1206 C 0.23196 0.81258 0.6404 0.0
C1207 C 0.23281 0.83739 0.65196 0.0
H1208 H 0.68009 0.83688 0.40681 0.0
H1209 H 0.72827 0.74355 0.42464 0.0
H1210 H 0.72176 0.83647 0.38592 0.0
H1211 H 0.77017 0.74301 0.40392 0.0
H1212 H 0.81208 0.72929 0.35631 0.0
H1213 H 0.7702 0.73177 0.37704 0.0
H1214 H 0.78423 0.84422 0.37968 0.0
H1215 H 0.82606 0.84144 0.35896 0.0
C1216 C 0.70009 0.81669 0.40636 0.0
C1217 C 0.70141 0.79056 0.41739 0.0
C1218 C 0.72391 0.81636 0.39442 0.0
C1219 C 0.74929 0.78958 0.39315 0.0
C1220 C 0.75075 0.76375 0.40439 0.0
C1221 C 0.7271 0.76425 0.41636 0.0
C1222 C 0.80575 0.75452 0.36123 0.0
C1223 C 0.8217 0.78523 0.35586 0.0
C1224 C 0.78207 0.75597 0.3732 0.0
C1225 C 0.77381 0.78822 0.3801 0.0
C1226 C 0.78956 0.81901 0.37455 0.0
C1227 C 0.81343 0.81748 0.36265 0.0
H1228 H 0.80748 0.16817 0.65163 0.0
H1229 H 0.74738 0.23885 0.67923 0.0
H1230 H 0.80746 0.21168 0.63143 0.0
H1231 H 0.74903 0.28324 0.65925 0.0
H1232 H 0.80829 0.35927 0.62373 0.0
H1233 H 0.80722 0.31592 0.64399 0.0
H1234 H 0.7499 0.24434 0.61579 0.0
H1235 H 0.74929 0.28857 0.59575 0.0
C1236 C 0.79412 0.19298 0.65334 0.0
C1237 C 0.77654 0.19977 0.66684 0.0
C1238 C 0.79424 0.21786 0.64181 0.0
C1239 C 0.77794 0.25062 0.64374 0.0
C1240 C 0.76161 0.25807 0.65746 0.0
C1241 C 0.76067 0.23277 0.66886 0.0
C1242 C 0.79491 0.33452 0.62196 0.0
C1243 C 0.77795 0.32766 0.60831 0.0
C1244 C 0.79444 0.30972 0.63352 0.0
C1245 C 0.77818 0.27699 0.63149 0.0
C1246 C 0.76244 0.2695 0.61766 0.0
C1247 C 0.76208 0.29471 0.60622 0.0
H1248 H 0.19296 0.33106 0.91116 0.0
H1249 H 0.21937 0.22349 0.9209 0.0
H1250 H 0.23462 0.3312 0.89042 0.0
H1251 H 0.26206 0.22352 0.90046 0.0
H1252 H 0.30958 0.22295 0.85361 0.0
H1253 H 0.267 0.22334 0.87409 0.0
H1254 H 0.29464 0.33108 0.88391 0.0
H1255 H 0.33619 0.33058 0.86312 0.0
C1256 C 0.20831 0.30765 0.90898 0.0
C1257 C 0.20346 0.27743 0.91772 0.0
C1258 C 0.23225 0.30765 0.89711 0.0
C1259 C 0.25196 0.27737 0.89365 0.0
C1260 C 0.24713 0.2472 0.90257 0.0
C1261 C 0.22301 0.24721 0.9144 0.0
C1262 C 0.30602 0.24676 0.86007 0.0
C1263 C 0.32559 0.2769 0.85668 0.0
C1264 C 0.28197 0.24695 0.87193 0.0
C1265 C 0.27721 0.27725 0.88079 0.0
C1266 C 0.29696 0.30744 0.87726 0.0
C1267 C 0.32084 0.30723 0.86536 0.0
H1268 H 0.33237 0.69574 0.16167 0.0
H1269 H 0.22517 0.72252 0.17152 0.0
H1270 H 0.33237 0.73712 0.1408 0.0
H1271 H 0.22506 0.7649 0.15095 0.0
H1272 H 0.22375 0.81082 0.10385 0.0
H1273 H 0.22455 0.76878 0.12455 0.0
H1274 H 0.33206 0.79714 0.13395 0.0
H1275 H 0.33115 0.83817 0.11295 0.0
C1276 C 0.30905 0.71117 0.15951 0.0
C1277 C 0.27896 0.70649 0.16831 0.0
C1278 C 0.30895 0.73492 0.14755 0.0
C1279 C 0.2787 0.75458 0.14407 0.0
C1280 C 0.2487 0.74999 0.15308 0.0
C1281 C 0.24881 0.72607 0.16499 0.0
C1282 C 0.2476 0.80752 0.11026 0.0
C1283 C 0.27755 0.82714 0.1067 0.0
C1284 C 0.24803 0.78379 0.12224 0.0
C1285 C 0.27837 0.77942 0.13106 0.0
C1286 C 0.30839 0.79918 0.12734 0.0
C1287 C 0.30795 0.82274 0.11532 0.0
H1288 H 0.78981 0.78043 0.92839 0.0
H1289 H 0.86145 0.72268 0.90036 0.0
H1290 H 0.74539 0.77833 0.90847 0.0
H1291 H 0.81786 0.72224 0.88023 0.0
H1292 H 0.73967 0.78052 0.845 0.0
H1293 H 0.78439 0.77888 0.86481 0.0
H1294 H 0.71333 0.72106 0.89302 0.0
H1295 H 0.66947 0.72108 0.873 0.0
C1296 C 0.79608 0.76751 0.91795 0.0
C1297 C 0.82935 0.75247 0.91579 0.0
C1298 C 0.77076 0.76631 0.90658 0.0
C1299 C 0.77844 0.75055 0.89275 0.0
C1300 C 0.81147 0.73501 0.89069 0.0
C1301 C 0.83639 0.73537 0.90218 0.0
C1302 C 0.73381 0.76726 0.8554 0.0
C1303 C 0.70084 0.75165 0.85759 0.0
C1304 C 0.75929 0.76634 0.86671 0.0
C1305 C 0.75205 0.75029 0.88051 0.0
C1306 C 0.71937 0.73406 0.88258 0.0
C1307 C 0.69431 0.73416 0.87115 0.0
H1308 H 0.69816 0.19351 0.11314 0.0
H1309 H 0.80528 0.2209 0.10349 0.0
H1310 H 0.69776 0.2347 0.13411 0.0
H1311 H 0.80498 0.26312 0.12414 0.0
H1312 H 0.80567 0.3099 0.17103 0.0
H1313 H 0.80527 0.26737 0.15049 0.0
H1314 H 0.69749 0.29461 0.14099 0.0
H1315 H 0.69801 0.33611 0.16184 0.0
C1316 C 0.7214 0.20899 0.11539 0.0
C1317 C 0.75157 0.20454 0.10662 0.0
C1318 C 0.72126 0.23265 0.12739 0.0
C1319 C 0.75135 0.25247 0.13094 0.0
C1320 C 0.78146 0.24806 0.12197 0.0
C1321 C 0.78159 0.22423 0.11001 0.0
C1322 C 0.78183 0.3062 0.16465 0.0
C1323 C 0.7517 0.32568 0.16814 0.0
C1324 C 0.78163 0.2822 0.15275 0.0
C1325 C 0.75136 0.27741 0.14393 0.0
C1326 C 0.72113 0.29696 0.1476 0.0
C1327 C 0.72134 0.32078 0.15954 0.0
H1328 H 0.93261 0.95154 0.33602 0.0
H1329 H 0.03647 0.91709 0.32341 0.0
H1330 H 0.95373 1.01144 0.33805 0.0
H1331 H 0.05683 0.9774 0.32416 0.0
H1332 H 0.09361 0.08554 0.337 0.0
H1333 H 0.07254 0.02549 0.33853 0.0
H1334 H 0.97 0.05971 0.32402 0.0
H1335 H 0.99024 0.12004 0.32374 0.0
C1336 C 0.96002 0.95654 0.33373 0.0
C1337 C 0.98266 0.929 0.32951 0.0
C1338 C 0.97207 0.99126 0.33463 0.0
C1339 C 1.00706 0.99978 0.33114 0.0
C1340 C 0.02982 0.97218 0.32712 0.0
C1341 C 0.0179 0.93739 0.32643 0.0
C1342 C 0.06633 0.08052 0.33446 0.0
C1343 C 0.0438 0.10809 0.33019 0.0
C1344 C 0.05432 0.04573 0.33509 0.0
C1345 C 0.0195 0.03724 0.33128 0.0
C1346 C 0.99686 0.06489 0.32723 0.0
C1347 C 1.00872 0.09971 0.32681 0.0
H1348 H 0.94656 0.0953 0.68792 0.0
H1349 H 0.91484 0.9914 0.70188 0.0
H1350 H 1.00687 0.07526 0.68593 0.0
H1351 H 0.97544 0.9721 0.70096 0.0
H1352 H 0.08356 0.93677 0.68734 0.0
H1353 H 0.02318 0.95684 0.68599 0.0
H1354 H 0.05566 0.06027 0.70031 0.0
H1355 H 0.11629 0.04091 0.70059 0.0
C1356 C 0.95227 0.06811 0.69051 0.0
C1357 C 0.92542 0.04512 0.6951 0.0
C1358 C 0.98717 0.0567 0.6896 0.0
C1359 C 0.99649 0.02201 0.69339 0.0
C1360 C 0.96956 0.99889 0.69777 0.0
C1361 C 0.93462 1.01019 0.69853 0.0
C1362 C 0.07806 0.96403 0.6899 0.0
C1363 C 0.10521 0.98707 0.69411 0.0
C1364 C 0.04312 0.97545 0.68936 0.0
C1365 C 0.03408 1.01023 0.69316 0.0
C1366 C 0.06131 0.03341 0.69714 0.0
C1367 C 0.09628 0.02208 0.69753 0.0
H1368 H 0.09549 0.44801 0.9376 0.0
H1369 H 0.99113 0.41529 0.95021 0.0
H1370 H 0.07535 0.50836 0.93575 0.0
H1371 H 0.97171 0.47596 0.94952 0.0
H1372 H 0.9367 0.58479 0.93666 0.0
H1373 H 0.95692 0.5244 0.93505 0.0
H1374 H 0.05964 0.55681 0.95003 0.0
H1375 H 0.04022 0.61748 0.95047 0.0
C1376 C 0.06818 0.45348 0.93992 0.0
C1377 C 0.0451 0.42631 0.9441 0.0
C1378 C 0.0567 0.48845 0.93911 0.0
C1379 C 0.02184 0.49754 0.9426 0.0
C1380 C 0.99864 0.4703 0.94656 0.0
C1381 C 1.01001 0.43529 0.9472 0.0
C1382 C 0.96385 0.5793 0.93929 0.0
C1383 C 0.98666 0.60646 0.94374 0.0
C1384 C 0.97536 0.54432 0.93862 0.0
C1385 C 1.00997 0.53522 0.94253 0.0
C1386 C 0.03292 0.56247 0.94675 0.0
C1387 C 0.02153 0.59748 0.94725 0.0
H1388 H 0.4467 0.93567 0.08625 0.0
H1389 H 0.41327 0.03963 0.07306 0.0
H1390 H 0.50674 0.95632 0.08802 0.0
H1391 H 0.47364 0.0595 0.07363 0.0
H1392 H 0.58193 0.09583 0.08624 0.0
H1393 H 0.52184 0.07523 0.08794 0.0
H1394 H 0.55505 0.97187 0.07376 0.0
H1395 H 0.61542 0.99171 0.07326 0.0
C1396 C 0.45195 0.96299 0.08378 0.0
C1397 C 0.42466 0.9858 0.07947 0.0
C1398 C 0.48675 0.97477 0.08454 0.0
C1399 C 0.49557 1.00965 0.08085 0.0
C1400 C 0.4682 0.03258 0.07675 0.0
C1401 C 0.43336 0.02093 0.07617 0.0
C1402 C 0.57668 0.06848 0.0838 0.0
C1403 C 0.604 0.04562 0.07957 0.0
C1404 C 0.54187 0.05673 0.08453 0.0
C1405 C 0.53307 0.02181 0.08087 0.0
C1406 C 0.56046 0.99883 0.07685 0.0
C1407 C 0.59531 1.01046 0.07631 0.0
H1408 H 0.53723 0.41462 0.8235 0.0
H1409 H 0.43336 0.44736 0.83686 0.0
H1410 H 0.55677 0.47521 0.8243 0.0
H1411 H 0.45368 0.50759 0.83886 0.0
H1412 H 0.48837 0.61701 0.82457 0.0
H1413 H 0.46889 0.55641 0.82488 0.0
H1414 H 0.57231 0.52337 0.83871 0.0
H1415 H 0.59256 0.58373 0.83719 0.0
C1416 C 0.51848 0.4346 0.82669 0.0
C1417 C 0.48347 0.42563 0.82998 0.0
C1418 C 0.52993 0.46957 0.8274 0.0
C1419 C 0.50694 0.49681 0.83162 0.0
C1420 C 0.47218 0.48772 0.8353 0.0
C1421 C 0.4606 0.4528 0.8344 0.0
C1422 C 0.50721 0.5969 0.8275 0.0
C1423 C 0.54229 0.60572 0.8307 0.0
C1424 C 0.49578 0.5619 0.82793 0.0
C1425 C 0.51889 0.53447 0.83179 0.0
C1426 C 0.55372 0.54341 0.83541 0.0
C1427 C 0.56527 0.57838 0.8348 0.0
H1428 H 0.60299 0.50338 0.21949 0.0
H1429 H 0.59628 0.47349 0.17303 0.0
H1430 H 0.54341 0.52454 0.21866 0.0
H1431 H 0.53516 0.49189 0.1726 0.0
H1432 H 0.43377 0.55679 0.17275 0.0
H1433 H 0.49491 0.53838 0.17249 0.0
H1434 H 0.48614 0.50654 0.21863 0.0
H1435 H 0.42656 0.5277 0.21928 0.0
C1436 C 0.58901 0.50134 0.20902 0.0
C1437 C 0.60513 0.48676 0.19629 0.0
C1438 C 0.5542 0.51292 0.20864 0.0
C1439 C 0.5338 0.50969 0.19561 0.0
C1440 C 0.54984 0.49522 0.18284 0.0
C1441 C 0.58498 0.48409 0.18315 0.0
C1442 C 0.44496 0.54635 0.18292 0.0
C1443 C 0.42466 0.5439 0.19603 0.0
C1444 C 0.48011 0.53522 0.18271 0.0
C1445 C 0.49601 0.52099 0.19556 0.0
C1446 C 0.47546 0.51798 0.20855 0.0
C1447 C 0.44065 0.52955 0.20883 0.0
H1448 H 0.437 0.07808 0.44936 0.0
H1449 H 0.54028 0.11937 0.44097 0.0
H1450 H 0.46029 0.01845 0.44892 0.0
H1451 H 0.5636 0.05987 0.43949 0.0
H1452 H 0.6043 0.95326 0.45324 0.0
H1453 H 0.58043 1.01195 0.45268 0.0
H1454 H 0.48194 0.97091 0.43637 0.0
H1455 H 0.50477 0.91163 0.43844 0.0
C1456 C 0.46466 0.07428 0.44712 0.0
C1457 C 0.48682 0.10343 0.44525 0.0
C1458 C 0.47814 0.03994 0.44677 0.0
C1459 C 0.51414 0.03367 0.44423 0.0
C1460 C 0.53599 0.06312 0.44189 0.0
C1461 C 0.5226 0.09743 0.44259 0.0
C1462 C 0.5773 0.9564 0.44979 0.0
C1463 C 0.55657 0.92698 0.44611 0.0
C1464 C 0.56367 0.99058 0.44915 0.0
C1465 C 0.52896 0.99689 0.44447 0.0
C1466 C 0.50852 0.96757 0.44033 0.0
C1467 C 0.52196 0.93325 0.44126 0.0
H1468 H 0.91707 0.53528 0.57122 0.0
H1469 H 0.94906 0.43436 0.58881 0.0
H1470 H 0.97777 0.55497 0.57185 0.0
H1471 H 1.00948 0.45527 0.59021 0.0
H1472 H 0.108 0.52706 0.60266 0.0
H1473 H 0.04663 0.50719 0.60376 0.0
H1474 H 0.03412 0.53215 0.55711 0.0
H1475 H 0.09535 0.55109 0.55592 0.0
C1476 C 0.93681 0.51717 0.57523 0.0
C1477 C 0.92771 0.48286 0.57975 0.0
C1478 C 0.97165 0.52869 0.57569 0.0
C1479 C 0.99836 0.50662 0.58102 0.0
C1480 C 0.98936 0.47293 0.58614 0.0
C1481 C 0.95456 0.46107 0.5854 0.0
C1482 C 0.09207 0.52819 0.59267 0.0
C1483 C 0.10647 0.54043 0.57919 0.0
C1484 C 0.05708 0.51674 0.59328 0.0
C1485 C 0.03562 0.51823 0.58053 0.0
C1486 C 0.04998 0.53088 0.56713 0.0
C1487 C 0.08505 0.54151 0.56643 0.0
loop_
_geom_bond_atom_site_label_1
_geom_bond_atom_site_label_2
_geom_bond_distance
_geom_bond_site_symmetry_2
_ccdc_geom_bond_type
C0 C1 1.443 . S
C0 N4 1.376 . S
C0 C38 1.389 . S
C1 C0 1.443 . S
C1 C2 1.340 . S
C1 H41 0.951 . S
C2 C1 1.340 . S
C2 C3 1.439 . S
C2 H42 0.950 . S
C3 C2 1.439 . S
C3 N4 1.374 . S
C3 C37 1.395 . S
N4 C0 1.376 . S
N4 C3 1.374 . S
N4 Co5 2.008 . S
Co5 N4 2.008 . S
Co5 N6 1.995 . S
Co5 N11 2.008 . S
Co5 N16 1.995 . S
Co5 N21 2.282 . S
Co5 N27 2.282 . S
N6 Co5 1.995 . S
N6 C7 1.376 . S
N6 C10 1.383 . S
C7 N6 1.376 . S
C7 C8 1.446 . S
C7 C37 1.391 . S
C8 C7 1.446 . S
C8 C9 1.339 . S
C8 H43 0.949 . S
C9 C8 1.339 . S
C9 C10 1.439 . S
C9 H44 0.950 . S
C10 N6 1.383 . S
C10 C9 1.439 . S
C10 C39 1.392 . S
N11 Co5 2.008 . S
N11 C12 1.376 . S
N11 C15 1.374 . S
C12 N11 1.376 . S
C12 C13 1.443 1_455 S
C12 C39 1.389 . S
C13 C12 1.443 1_655 S
C13 C14 1.340 . S
C13 H45 0.951 . S
C14 C13 1.340 . S
C14 C15 1.439 1_655 S
C14 H46 0.950 . S
C15 N11 1.374 . S
C15 C14 1.439 1_455 S
C15 C40 1.395 . S
N16 Co5 1.995 . S
N16 C17 1.376 . S
N16 C20 1.383 . S
C17 N16 1.376 . S
C17 C18 1.446 . S
C17 C40 1.391 . S
C18 C17 1.446 . S
C18 C19 1.339 . S
C18 H47 0.949 . S
C19 C18 1.339 . S
C19 C20 1.439 . S
C19 H48 0.950 . S
C20 N16 1.383 . S
C20 C19 1.439 . S
C20 C38 1.392 . S
N21 Co5 2.282 . S
N21 C24 1.332 . S
N21 C26 1.332 . S
C22 C23 1.386 . S
C22 C25 1.388 . S
C23 C22 1.386 . S
C23 C24 1.382 . S
C23 H49 0.950 . S
C24 N21 1.332 . S
C24 C23 1.382 . S
C24 H35 0.952 . S
C25 C22 1.388 . S
C25 C26 1.382 . S
C25 H50 0.950 . S
C26 N21 1.332 . S
C26 C25 1.382 . S
C26 H36 0.948 . S
N27 Co5 2.282 . S
N27 C31 1.332 . S
N27 C32 1.332 . S
C28 C29 1.388 . S
C28 C32 1.382 . S
C28 H51 0.950 . S
C29 C28 1.388 . S
C29 C30 1.386 . S
C30 C29 1.386 . S
C30 C31 1.382 . S
C30 H52 0.950 . S
C31 N27 1.332 . S
C31 C30 1.382 . S
C31 H33 0.952 . S
C32 N27 1.332 . S
C32 C28 1.382 . S
C32 H34 0.948 . S
H33 C31 0.952 . S
H34 C32 0.948 . S
H35 C24 0.952 . S
H36 C26 0.948 . S
C37 C3 1.395 . S
C37 C7 1.391 . S
C38 C0 1.389 . S
C38 C20 1.392 . S
C39 C10 1.392 . S
C39 C12 1.389 . S
C40 C15 1.395 . S
C40 C17 1.391 . S
H41 C1 0.951 . S
H42 C2 0.950 . S
H43 C8 0.949 . S
H44 C9 0.950 . S
H45 C13 0.951 . S
H46 C14 0.950 . S
H47 C18 0.949 . S
H48 C19 0.950 . S
H49 C23 0.950 . S
H50 C25 0.950 . S
H51 C28 0.950 . S
H52 C30 0.950 . S
C53 C54 1.443 1_565 S
C53 N57 1.376 . S
C53 C91 1.389 . S
C54 C53 1.443 1_545 S
C54 C55 1.340 . S
C54 H94 0.951 . S
C55 C54 1.340 . S
C55 C56 1.439 1_545 S
C55 H95 0.950 . S
C56 C55 1.439 1_565 S
C56 N57 1.374 . S
C56 C90 1.395 . S
N57 C53 1.376 . S
N57 C56 1.374 . S
N57 Co58 2.008 . S
Co58 N57 2.008 . S
Co58 N59 1.995 . S
Co58 N64 2.008 . S
Co58 N69 1.995 . S
Co58 N74 2.282 . S
Co58 N80 2.282 . S
N59 Co58 1.995 . S
N59 C60 1.376 . S
N59 C63 1.383 . S
C60 N59 1.376 . S
C60 C61 1.446 . S
C60 C90 1.391 . S
C61 C60 1.446 . S
C61 C62 1.339 . S
C61 H96 0.949 . S
C62 C61 1.339 . S
C62 C63 1.439 . S
C62 H97 0.950 . S
C63 N59 1.383 . S
C63 C62 1.439 . S
C63 C92 1.392 . S
N64 Co58 2.008 . S
N64 C65 1.376 . S
N64 C68 1.374 . S
C65 N64 1.376 . S
C65 C66 1.443 . S
C65 C92 1.389 . S
C66 C65 1.443 . S
C66 C67 1.340 . S
C66 H98 0.951 . S
C67 C66 1.340 . S
C67 C68 1.439 . S
C67 H99 0.950 . S
C68 N64 1.374 . S
C68 C67 1.439 . S
C68 C93 1.395 . S
N69 Co58 1.995 . S
N69 C70 1.376 . S
N69 C73 1.383 . S
C70 N69 1.376 . S
C70 C71 1.446 . S
C70 C93 1.391 . S
C71 C70 1.446 . S
C71 C72 1.339 . S
C71 H100 0.949 . S
C72 C71 1.339 . S
C72 C73 1.439 . S
C72 H101 0.950 . S
C73 N69 1.383 . S
C73 C72 1.439 . S
C73 C91 1.392 . S
N74 Co58 2.282 . S
N74 C77 1.332 . S
N74 C79 1.332 . S
C75 C76 1.386 . S
C75 C78 1.388 . S
C76 C75 1.386 . S
C76 C77 1.382 . S
C76 H102 0.950 . S
C77 N74 1.332 . S
C77 C76 1.382 . S
C77 H88 0.952 . S
C78 C75 1.388 . S
C78 C79 1.382 . S
C78 H103 0.950 . S
C79 N74 1.332 . S
C79 C78 1.382 . S
C79 H89 0.948 . S
N80 Co58 2.282 . S
N80 C84 1.332 . S
N80 C85 1.332 . S
C81 C82 1.388 . S
C81 C85 1.382 . S
C81 H104 0.950 . S
C82 C81 1.388 . S
C82 C83 1.386 . S
C83 C82 1.386 . S
C83 C84 1.382 . S
C83 H105 0.950 . S
C84 N80 1.332 . S
C84 C83 1.382 . S
C84 H86 0.952 . S
C85 N80 1.332 . S
C85 C81 1.382 . S
C85 H87 0.948 . S
H86 C84 0.952 . S
H87 C85 0.948 . S
H88 C77 0.952 . S
H89 C79 0.948 . S
C90 C56 1.395 . S
C90 C60 1.391 . S
C91 C53 1.389 . S
C91 C73 1.392 . S
C92 C63 1.392 . S
C92 C65 1.389 . S
C93 C68 1.395 . S
C93 C70 1.391 . S
H94 C54 0.951 . S
H95 C55 0.950 . S
H96 C61 0.949 . S
H97 C62 0.950 . S
H98 C66 0.951 . S
H99 C67 0.950 . S
H100 C71 0.949 . S
H101 C72 0.950 . S
H102 C76 0.950 . S
H103 C78 0.950 . S
H104 C81 0.950 . S
H105 C83 0.950 . S
C106 C107 1.443 . S
C106 N110 1.376 . S
C106 C144 1.389 . S
C107 C106 1.443 . S
C107 C108 1.340 . S
C107 H147 0.951 . S
C108 C107 1.340 . S
C108 C109 1.439 . S
C108 H148 0.950 . S
C109 C108 1.439 . S
C109 N110 1.374 . S
C109 C143 1.395 . S
N110 C106 1.376 . S
N110 C109 1.374 . S
N110 Co111 2.008 . S
Co111 N110 2.008 . S
Co111 N112 1.995 . S
Co111 N117 2.008 . S
Co111 N122 1.995 . S
Co111 N127 2.282 . S
Co111 N133 2.282 . S
N112 Co111 1.995 . S
N112 C113 1.376 . S
N112 C116 1.383 . S
C113 N112 1.376 . S
C113 C114 1.446 . S
C113 C143 1.391 . S
C114 C113 1.446 . S
C114 C115 1.339 . S
C114 H149 0.949 . S
C115 C114 1.339 . S
C115 C116 1.439 . S
C115 H150 0.950 . S
C116 N112 1.383 . S
C116 C115 1.439 . S
C116 C145 1.392 . S
N117 Co111 2.008 . S
N117 C118 1.376 . S
N117 C121 1.374 . S
C118 N117 1.376 . S
C118 C119 1.443 1_655 S
C118 C145 1.389 . S
C119 C118 1.443 1_455 S
C119 C120 1.340 . S
C119 H151 0.951 . S
C120 C119 1.340 . S
C120 C121 1.439 1_455 S
C120 H152 0.950 . S
C121 N117 1.374 . S
C121 C120 1.439 1_655 S
C121 C146 1.395 . S
N122 Co111 1.995 . S
N122 C123 1.376 . S
N122 C126 1.383 . S
C123 N122 1.376 . S
C123 C124 1.446 . S
C123 C146 1.391 . S
C124 C123 1.446 . S
C124 C125 1.339 . S
C124 H153 0.949 . S
C125 C124 1.339 . S
C125 C126 1.439 . S
C125 H154 0.950 . S
C126 N122 1.383 . S
C126 C125 1.439 . S
C126 C144 1.392 . S
N127 Co111 2.282 . S
N127 C130 1.332 . S
N127 C132 1.332 . S
C128 C129 1.386 . S
C128 C131 1.388 . S
C129 C128 1.386 . S
C129 C130 1.382 . S
C129 H155 0.950 . S
C130 N127 1.332 . S
C130 C129 1.382 . S
C130 H141 0.952 . S
C131 C128 1.388 . S
C131 C132 1.382 . S
C131 H156 0.950 . S
C132 N127 1.332 . S
C132 C131 1.382 . S
C132 H142 0.948 . S
N133 Co111 2.282 . S
N133 C137 1.332 . S
N133 C138 1.332 . S
C134 C135 1.388 . S
C134 C138 1.382 . S
C134 H157 0.950 . S
C135 C134 1.388 . S
C135 C136 1.386 . S
C136 C135 1.386 . S
C136 C137 1.382 . S
C136 H158 0.950 . S
C137 N133 1.332 . S
C137 C136 1.382 . S
C137 H139 0.952 . S
C138 N133 1.332 . S
C138 C134 1.382 . S
C138 H140 0.948 . S
H139 C137 0.952 . S
H140 C138 0.948 . S
H141 C130 0.952 . S
H142 C132 0.948 . S
C143 C109 1.395 . S
C143 C113 1.391 . S
C144 C106 1.389 . S
C144 C126 1.392 . S
C145 C116 1.392 . S
C145 C118 1.389 . S
C146 C121 1.395 . S
C146 C123 1.391 . S
H147 C107 0.951 . S
H148 C108 0.950 . S
H149 C114 0.949 . S
H150 C115 0.950 . S
H151 C119 0.951 . S
H152 C120 0.950 . S
H153 C124 0.949 . S
H154 C125 0.950 . S
H155 C129 0.950 . S
H156 C131 0.950 . S
H157 C134 0.950 . S
H158 C136 0.950 . S
C159 C160 1.443 1_545 S
C159 N163 1.376 . S
C159 C197 1.389 . S
C160 C159 1.443 1_565 S
C160 C161 1.340 . S
C160 H200 0.951 . S
C161 C160 1.340 . S
C161 C162 1.439 1_565 S
C161 H201 0.950 . S
C162 C161 1.439 1_545 S
C162 N163 1.374 . S
C162 C196 1.395 . S
N163 C159 1.376 . S
N163 C162 1.374 . S
N163 Co164 2.008 . S
Co164 N163 2.008 . S
Co164 N165 1.995 . S
Co164 N170 2.008 . S
Co164 N175 1.995 . S
Co164 N180 2.282 . S
Co164 N186 2.282 . S
N165 Co164 1.995 . S
N165 C166 1.376 . S
N165 C169 1.383 . S
C166 N165 1.376 . S
C166 C167 1.446 . S
C166 C196 1.391 . S
C167 C166 1.446 . S
C167 C168 1.339 . S
C167 H202 0.949 . S
C168 C167 1.339 . S
C168 C169 1.439 . S
C168 H203 0.950 . S
C169 N165 1.383 . S
C169 C168 1.439 . S
C169 C198 1.392 . S
N170 Co164 2.008 . S
N170 C171 1.376 . S
N170 C174 1.374 . S
C171 N170 1.376 . S
C171 C172 1.443 . S
C171 C198 1.389 . S
C172 C171 1.443 . S
C172 C173 1.340 . S
C172 H204 0.951 . S
C173 C172 1.340 . S
C173 C174 1.439 . S
C173 H205 0.950 . S
C174 N170 1.374 . S
C174 C173 1.439 . S
C174 C199 1.395 . S
N175 Co164 1.995 . S
N175 C176 1.376 . S
N175 C179 1.383 . S
C176 N175 1.376 . S
C176 C177 1.446 . S
C176 C199 1.391 . S
C177 C176 1.446 . S
C177 C178 1.339 . S
C177 H206 0.949 . S
C178 C177 1.339 . S
C178 C179 1.439 . S
C178 H207 0.950 . S
C179 N175 1.383 . S
C179 C178 1.439 . S
C179 C197 1.392 . S
N180 Co164 2.282 . S
N180 C183 1.332 . S
N180 C185 1.332 . S
C181 C182 1.386 . S
C181 C184 1.388 . S
C182 C181 1.386 . S
C182 C183 1.382 . S
C182 H208 0.950 . S
C183 N180 1.332 . S
C183 C182 1.382 . S
C183 H194 0.952 . S
C184 C181 1.388 . S
C184 C185 1.382 . S
C184 H209 0.950 . S
C185 N180 1.332 . S
C185 C184 1.382 . S
C185 H195 0.948 . S
N186 Co164 2.282 . S
N186 C190 1.332 . S
N186 C191 1.332 . S
C187 C188 1.388 . S
C187 C191 1.382 . S
C187 H210 0.950 . S
C188 C187 1.388 . S
C188 C189 1.386 . S
C189 C188 1.386 . S
C189 C190 1.382 . S
C189 H211 0.950 . S
C190 N186 1.332 . S
C190 C189 1.382 . S
C190 H192 0.952 . S
C191 N186 1.332 . S
C191 C187 1.382 . S
C191 H193 0.948 . S
H192 C190 0.952 . S
H193 C191 0.948 . S
H194 C183 0.952 . S
H195 C185 0.948 . S
C196 C162 1.395 . S
C196 C166 1.391 . S
C197 C159 1.389 . S
C197 C179 1.392 . S
C198 C169 1.392 . S
C198 C171 1.389 . S
C199 C174 1.395 . S
C199 C176 1.391 . S
H200 C160 0.951 . S
H201 C161 0.950 . S
H202 C167 0.949 . S
H203 C168 0.950 . S
H204 C172 0.951 . S
H205 C173 0.950 . S
H206 C177 0.949 . S
H207 C178 0.950 . S
H208 C182 0.950 . S
H209 C184 0.950 . S
H210 C187 0.950 . S
H211 C189 0.950 . S
C212 C213 1.443 . S
C212 N216 1.376 . S
C212 C250 1.389 . S
C213 C212 1.443 . S
C213 C214 1.340 . S
C213 H253 0.951 . S
C214 C213 1.340 . S
C214 C215 1.439 . S
C214 H254 0.950 . S
C215 C214 1.439 . S
C215 N216 1.374 . S
C215 C249 1.395 . S
N216 C212 1.376 . S
N216 C215 1.374 . S
N216 Co217 2.008 . S
Co217 N216 2.008 . S
Co217 N218 1.995 . S
Co217 N223 2.008 . S
Co217 N228 1.995 . S
Co217 N233 2.282 . S
Co217 N239 2.282 . S
N218 Co217 1.995 . S
N218 C219 1.376 . S
N218 C222 1.383 . S
C219 N218 1.376 . S
C219 C220 1.446 . S
C219 C249 1.391 . S
C220 C219 1.446 . S
C220 C221 1.339 . S
C220 H255 0.949 . S
C221 C220 1.339 . S
C221 C222 1.439 . S
C221 H256 0.950 . S
C222 N218 1.383 . S
C222 C221 1.439 . S
C222 C251 1.392 . S
N223 Co217 2.008 . S
N223 C224 1.376 . S
N223 C227 1.374 . S
C224 N223 1.376 . S
C224 C225 1.443 1_455 S
C224 C251 1.389 . S
C225 C224 1.443 1_655 S
C225 C226 1.340 . S
C225 H257 0.951 . S
C226 C225 1.340 . S
C226 C227 1.439 1_655 S
C226 H258 0.950 . S
C227 N223 1.374 . S
C227 C226 1.439 1_455 S
C227 C252 1.395 . S
N228 Co217 1.995 . S
N228 C229 1.376 . S
N228 C232 1.383 . S
C229 N228 1.376 . S
C229 C230 1.446 . S
C229 C252 1.391 . S
C230 C229 1.446 . S
C230 C231 1.339 . S
C230 H259 0.949 . S
C231 C230 1.339 . S
C231 C232 1.439 . S
C231 H260 0.950 . S
C232 N228 1.383 . S
C232 C231 1.439 . S
C232 C250 1.392 . S
N233 Co217 2.282 . S
N233 C236 1.332 . S
N233 C238 1.332 . S
C234 C235 1.386 . S
C234 C237 1.388 . S
C235 C234 1.386 . S
C235 C236 1.382 . S
C235 H261 0.950 . S
C236 N233 1.332 . S
C236 C235 1.382 . S
C236 H247 0.952 . S
C237 C234 1.388 . S
C237 C238 1.382 . S
C237 H262 0.950 . S
C238 N233 1.332 . S
C238 C237 1.382 . S
C238 H248 0.948 . S
N239 Co217 2.282 . S
N239 C243 1.332 . S
N239 C244 1.332 . S
C240 C241 1.388 . S
C240 C244 1.382 . S
C240 H263 0.950 . S
C241 C240 1.388 . S
C241 C242 1.386 . S
C242 C241 1.386 . S
C242 C243 1.382 . S
C242 H264 0.950 . S
C243 N239 1.332 . S
C243 C242 1.382 . S
C243 H245 0.952 . S
C244 N239 1.332 . S
C244 C240 1.382 . S
C244 H246 0.948 . S
H245 C243 0.952 . S
H246 C244 0.948 . S
H247 C236 0.952 . S
H248 C238 0.948 . S
C249 C215 1.395 . S
C249 C219 1.391 . S
C250 C212 1.389 . S
C250 C232 1.392 . S
C251 C222 1.392 . S
C251 C224 1.389 . S
C252 C227 1.395 . S
C252 C229 1.391 . S
H253 C213 0.951 . S
H254 C214 0.950 . S
H255 C220 0.949 . S
H256 C221 0.950 . S
H257 C225 0.951 . S
H258 C226 0.950 . S
H259 C230 0.949 . S
H260 C231 0.950 . S
H261 C235 0.950 . S
H262 C237 0.950 . S
H263 C240 0.950 . S
H264 C242 0.950 . S
C265 C266 1.443 1_565 S
C265 N269 1.376 . S
C265 C303 1.389 . S
C266 C265 1.443 1_545 S
C266 C267 1.340 . S
C266 H306 0.951 . S
C267 C266 1.340 . S
C267 C268 1.439 1_545 S
C267 H307 0.950 . S
C268 C267 1.439 1_565 S
C268 N269 1.374 . S
C268 C302 1.395 . S
N269 C265 1.376 . S
N269 C268 1.374 . S
N269 Co270 2.008 . S
Co270 N269 2.008 . S
Co270 N271 1.995 . S
Co270 N276 2.008 . S
Co270 N281 1.995 . S
Co270 N286 2.282 . S
Co270 N292 2.282 . S
N271 Co270 1.995 . S
N271 C272 1.376 . S
N271 C275 1.383 . S
C272 N271 1.376 . S
C272 C273 1.446 . S
C272 C302 1.391 . S
C273 C272 1.446 . S
C273 C274 1.339 . S
C273 H308 0.949 . S
C274 C273 1.339 . S
C274 C275 1.439 . S
C274 H309 0.950 . S
C275 N271 1.383 . S
C275 C274 1.439 . S
C275 C304 1.392 . S
N276 Co270 2.008 . S
N276 C277 1.376 . S
N276 C280 1.374 . S
C277 N276 1.376 . S
C277 C278 1.443 . S
C277 C304 1.389 . S
C278 C277 1.443 . S
C278 C279 1.340 . S
C278 H310 0.951 . S
C279 C278 1.340 . S
C279 C280 1.439 . S
C279 H311 0.950 . S
C280 N276 1.374 . S
C280 C279 1.439 . S
C280 C305 1.395 . S
N281 Co270 1.995 . S
N281 C282 1.376 . S
N281 C285 1.383 . S
C282 N281 1.376 . S
C282 C283 1.446 . S
C282 C305 1.391 . S
C283 C282 1.446 . S
C283 C284 1.339 . S
C283 H312 0.949 . S
C284 C283 1.339 . S
C284 C285 1.439 . S
C284 H313 0.950 . S
C285 N281 1.383 . S
C285 C284 1.439 . S
C285 C303 1.392 . S
N286 Co270 2.282 . S
N286 C289 1.332 . S
N286 C291 1.332 . S
C287 C288 1.386 . S
C287 C290 1.388 . S
C288 C287 1.386 . S
C288 C289 1.382 . S
C288 H314 0.950 . S
C289 N286 1.332 . S
C289 C288 1.382 . S
C289 H300 0.952 . S
C290 C287 1.388 . S
C290 C291 1.382 . S
C290 H315 0.950 . S
C291 N286 1.332 . S
C291 C290 1.382 . S
C291 H301 0.948 . S
N292 Co270 2.282 . S
N292 C296 1.332 . S
N292 C297 1.332 . S
C293 C294 1.388 . S
C293 C297 1.382 . S
C293 H316 0.950 . S
C294 C293 1.388 . S
C294 C295 1.386 . S
C295 C294 1.386 . S
C295 C296 1.382 . S
C295 H317 0.950 . S
C296 N292 1.332 . S
C296 C295 1.382 . S
C296 H298 0.952 . S
C297 N292 1.332 . S
C297 C293 1.382 . S
C297 H299 0.948 . S
H298 C296 0.952 . S
H299 C297 0.948 . S
H300 C289 0.952 . S
H301 C291 0.948 . S
C302 C268 1.395 . S
C302 C272 1.391 . S
C303 C265 1.389 . S
C303 C285 1.392 . S
C304 C275 1.392 . S
C304 C277 1.389 . S
C305 C280 1.395 . S
C305 C282 1.391 . S
H306 C266 0.951 . S
H307 C267 0.950 . S
H308 C273 0.949 . S
H309 C274 0.950 . S
H310 C278 0.951 . S
H311 C279 0.950 . S
H312 C283 0.949 . S
H313 C284 0.950 . S
H314 C288 0.950 . S
H315 C290 0.950 . S
H316 C293 0.950 . S
H317 C295 0.950 . S
C318 C319 1.443 . S
C318 N322 1.376 . S
C318 C356 1.389 . S
C319 C318 1.443 . S
C319 C320 1.340 . S
C319 H359 0.951 . S
C320 C319 1.340 . S
C320 C321 1.439 . S
C320 H360 0.950 . S
C321 C320 1.439 . S
C321 N322 1.374 . S
C321 C355 1.395 . S
N322 C318 1.376 . S
N322 C321 1.374 . S
N322 Co323 2.008 . S
Co323 N322 2.008 . S
Co323 N324 1.995 . S
Co323 N329 2.008 . S
Co323 N334 1.995 . S
Co323 N339 2.282 . S
Co323 N345 2.282 . S
N324 Co323 1.995 . S
N324 C325 1.376 . S
N324 C328 1.383 . S
C325 N324 1.376 . S
C325 C326 1.446 . S
C325 C355 1.391 . S
C326 C325 1.446 . S
C326 C327 1.339 . S
C326 H361 0.949 . S
C327 C326 1.339 . S
C327 C328 1.439 . S
C327 H362 0.950 . S
C328 N324 1.383 . S
C328 C327 1.439 . S
C328 C357 1.392 . S
N329 Co323 2.008 . S
N329 C330 1.376 . S
N329 C333 1.374 . S
C330 N329 1.376 . S
C330 C331 1.443 1_655 S
C330 C357 1.389 . S
C331 C330 1.443 1_455 S
C331 C332 1.340 . S
C331 H363 0.951 . S
C332 C331 1.340 . S
C332 C333 1.439 1_455 S
C332 H364 0.950 . S
C333 N329 1.374 . S
C333 C332 1.439 1_655 S
C333 C358 1.395 . S
N334 Co323 1.995 . S
N334 C335 1.376 . S
N334 C338 1.383 . S
C335 N334 1.376 . S
C335 C336 1.446 . S
C335 C358 1.391 . S
C336 C335 1.446 . S
C336 C337 1.339 . S
C336 H365 0.949 . S
C337 C336 1.339 . S
C337 C338 1.439 . S
C337 H366 0.950 . S
C338 N334 1.383 . S
C338 C337 1.439 . S
C338 C356 1.392 . S
N339 Co323 2.282 . S
N339 C342 1.332 . S
N339 C344 1.332 . S
C340 C341 1.386 . S
C340 C343 1.388 . S
C341 C340 1.386 . S
C341 C342 1.382 . S
C341 H367 0.950 . S
C342 N339 1.332 . S
C342 C341 1.382 . S
C342 H353 0.952 . S
C343 C340 1.388 . S
C343 C344 1.382 . S
C343 H368 0.950 . S
C344 N339 1.332 . S
C344 C343 1.382 . S
C344 H354 0.948 . S
N345 Co323 2.282 . S
N345 C349 1.332 . S
N345 C350 1.332 . S
C346 C347 1.388 . S
C346 C350 1.382 . S
C346 H369 0.950 . S
C347 C346 1.388 . S
C347 C348 1.386 . S
C348 C347 1.386 . S
C348 C349 1.382 . S
C348 H370 0.950 . S
C349 N345 1.332 . S
C349 C348 1.382 . S
C349 H351 0.952 . S
C350 N345 1.332 . S
C350 C346 1.382 . S
C350 H352 0.948 . S
H351 C349 0.952 . S
H352 C350 0.948 . S
H353 C342 0.952 . S
H354 C344 0.948 . S
C355 C321 1.395 . S
C355 C325 1.391 . S
C356 C318 1.389 . S
C356 C338 1.392 . S
C357 C328 1.392 . S
C357 C330 1.389 . S
C358 C333 1.395 . S
C358 C335 1.391 . S
H359 C319 0.951 . S
H360 C320 0.950 . S
H361 C326 0.949 . S
H362 C327 0.950 . S
H363 C331 0.951 . S
H364 C332 0.950 . S
H365 C336 0.949 . S
H366 C337 0.950 . S
H367 C341 0.950 . S
H368 C343 0.950 . S
H369 C346 0.950 . S
H370 C348 0.950 . S
C371 C372 1.443 1_545 S
C371 N375 1.376 . S
C371 C409 1.389 . S
C372 C371 1.443 1_565 S
C372 C373 1.340 . S
C372 H412 0.951 . S
C373 C372 1.340 . S
C373 C374 1.439 1_565 S
C373 H413 0.950 . S
C374 C373 1.439 1_545 S
C374 N375 1.374 . S
C374 C408 1.395 . S
N375 C371 1.376 . S
N375 C374 1.374 . S
N375 Co376 2.008 . S
Co376 N375 2.008 . S
Co376 N377 1.995 . S
Co376 N382 2.008 . S
Co376 N387 1.995 . S
Co376 N392 2.282 . S
Co376 N398 2.282 . S
N377 Co376 1.995 . S
N377 C378 1.376 . S
N377 C381 1.383 . S
C378 N377 1.376 . S
C378 C379 1.446 . S
C378 C408 1.391 . S
C379 C378 1.446 . S
C379 C380 1.339 . S
C379 H414 0.949 . S
C380 C379 1.339 . S
C380 C381 1.439 . S
C380 H415 0.950 . S
C381 N377 1.383 . S
C381 C380 1.439 . S
C381 C410 1.392 . S
N382 Co376 2.008 . S
N382 C383 1.376 . S
N382 C386 1.374 . S
C383 N382 1.376 . S
C383 C384 1.443 . S
C383 C410 1.389 . S
C384 C383 1.443 . S
C384 C385 1.340 . S
C384 H416 0.951 . S
C385 C384 1.340 . S
C385 C386 1.439 . S
C385 H417 0.950 . S
C386 N382 1.374 . S
C386 C385 1.439 . S
C386 C411 1.395 . S
N387 Co376 1.995 . S
N387 C388 1.376 . S
N387 C391 1.383 . S
C388 N387 1.376 . S
C388 C389 1.446 . S
C388 C411 1.391 . S
C389 C388 1.446 . S
C389 C390 1.339 . S
C389 H418 0.949 . S
C390 C389 1.339 . S
C390 C391 1.439 . S
C390 H419 0.950 . S
C391 N387 1.383 . S
C391 C390 1.439 . S
C391 C409 1.392 . S
N392 Co376 2.282 . S
N392 C395 1.332 . S
N392 C397 1.332 . S
C393 C394 1.386 . S
C393 C396 1.388 . S
C394 C393 1.386 . S
C394 C395 1.382 . S
C394 H420 0.950 . S
C395 N392 1.332 . S
C395 C394 1.382 . S
C395 H406 0.952 . S
C396 C393 1.388 . S
C396 C397 1.382 . S
C396 H421 0.950 . S
C397 N392 1.332 . S
C397 C396 1.382 . S
C397 H407 0.948 . S
N398 Co376 2.282 . S
N398 C402 1.332 . S
N398 C403 1.332 . S
C399 C400 1.388 . S
C399 C403 1.382 . S
C399 H422 0.950 . S
C400 C399 1.388 . S
C400 C401 1.386 . S
C401 C400 1.386 . S
C401 C402 1.382 . S
C401 H423 0.950 . S
C402 N398 1.332 . S
C402 C401 1.382 . S
C402 H404 0.952 . S
C403 N398 1.332 . S
C403 C399 1.382 . S
C403 H405 0.948 . S
H404 C402 0.952 . S
H405 C403 0.948 . S
H406 C395 0.952 . S
H407 C397 0.948 . S
C408 C374 1.395 . S
C408 C378 1.391 . S
C409 C371 1.389 . S
C409 C391 1.392 . S
C410 C381 1.392 . S
C410 C383 1.389 . S
C411 C386 1.395 . S
C411 C388 1.391 . S
H412 C372 0.951 . S
H413 C373 0.950 . S
H414 C379 0.949 . S
H415 C380 0.950 . S
H416 C384 0.951 . S
H417 C385 0.950 . S
H418 C389 0.949 . S
H419 C390 0.950 . S
H420 C394 0.950 . S
H421 C396 0.950 . S
H422 C399 0.950 . S
H423 C401 0.950 . S
C424 C425 1.443 . S
C424 N428 1.376 . S
C424 C462 1.389 . S
C425 C424 1.443 . S
C425 C426 1.340 . S
C425 H465 0.951 . S
C426 C425 1.340 . S
C426 C427 1.439 . S
C426 H466 0.950 . S
C427 C426 1.439 . S
C427 N428 1.374 . S
C427 C461 1.395 . S
N428 C424 1.376 . S
N428 C427 1.374 . S
N428 Co429 2.008 . S
Co429 N428 2.008 . S
Co429 N430 1.995 . S
Co429 N435 2.008 . S
Co429 N440 1.995 . S
Co429 N445 2.282 . S
Co429 N451 2.282 . S
N430 Co429 1.995 . S
N430 C431 1.376 . S
N430 C434 1.383 . S
C431 N430 1.376 . S
C431 C432 1.446 . S
C431 C461 1.391 . S
C432 C431 1.446 . S
C432 C433 1.339 . S
C432 H467 0.949 . S
C433 C432 1.339 . S
C433 C434 1.439 . S
C433 H468 0.950 . S
C434 N430 1.383 . S
C434 C433 1.439 . S
C434 C463 1.392 . S
N435 Co429 2.008 . S
N435 C436 1.376 . S
N435 C439 1.374 . S
C436 N435 1.376 . S
C436 C437 1.443 . S
C436 C463 1.389 . S
C437 C436 1.443 . S
C437 C438 1.340 . S
C437 H469 0.951 . S
C438 C437 1.340 . S
C438 C439 1.439 . S
C438 H470 0.950 . S
C439 N435 1.374 . S
C439 C438 1.439 . S
C439 C464 1.395 . S
N440 Co429 1.995 . S
N440 C441 1.376 . S
N440 C444 1.383 . S
C441 N440 1.376 . S
C441 C442 1.446 . S
C441 C464 1.391 . S
C442 C441 1.446 . S
C442 C443 1.339 . S
C442 H471 0.949 . S
C443 C442 1.339 . S
C443 C444 1.439 . S
C443 H472 0.950 . S
C444 N440 1.383 . S
C444 C443 1.439 . S
C444 C462 1.392 . S
N445 Co429 2.282 . S
N445 C448 1.332 . S
N445 C450 1.332 . S
C446 C447 1.386 . S
C446 C449 1.388 . S
C447 C446 1.386 . S
C447 C448 1.382 . S
C447 H473 0.950 . S
C448 N445 1.332 . S
C448 C447 1.382 . S
C448 H459 0.952 . S
C449 C446 1.388 . S
C449 C450 1.382 . S
C449 H474 0.950 . S
C450 N445 1.332 . S
C450 C449 1.382 . S
C450 H460 0.948 . S
N451 Co429 2.282 . S
N451 C455 1.332 . S
N451 C456 1.332 . S
C452 C453 1.388 . S
C452 C456 1.382 . S
C452 H475 0.950 . S
C453 C452 1.388 . S
C453 C454 1.386 . S
C454 C453 1.386 . S
C454 C455 1.382 . S
C454 H476 0.950 . S
C455 N451 1.332 . S
C455 C454 1.382 . S
C455 H457 0.952 . S
C456 N451 1.332 . S
C456 C452 1.382 . S
C456 H458 0.948 . S
H457 C455 0.952 . S
H458 C456 0.948 . S
H459 C448 0.952 . S
H460 C450 0.948 . S
C461 C427 1.395 . S
C461 C431 1.391 . S
C462 C424 1.389 . S
C462 C444 1.392 . S
C463 C434 1.392 . S
C463 C436 1.389 . S
C464 C439 1.395 . S
C464 C441 1.391 . S
H465 C425 0.951 . S
H466 C426 0.950 . S
H467 C432 0.949 . S
H468 C433 0.950 . S
H469 C437 0.951 . S
H470 C438 0.950 . S
H471 C442 0.949 . S
H472 C443 0.950 . S
H473 C447 0.950 . S
H474 C449 0.950 . S
H475 C452 0.950 . S
H476 C454 0.950 . S
C477 C478 1.443 . S
C477 N481 1.376 . S
C477 C515 1.389 . S
C478 C477 1.443 . S
C478 C479 1.340 . S
C478 H518 0.951 . S
C479 C478 1.340 . S
C479 C480 1.439 . S
C479 H519 0.950 . S
C480 C479 1.439 . S
C480 N481 1.374 . S
C480 C514 1.395 . S
N481 C477 1.376 . S
N481 C480 1.374 . S
N481 Co482 2.008 . S
Co482 N481 2.008 . S
Co482 N483 1.995 . S
Co482 N488 2.008 . S
Co482 N493 1.995 . S
Co482 N498 2.282 . S
Co482 N504 2.282 . S
N483 Co482 1.995 . S
N483 C484 1.376 . S
N483 C487 1.383 . S
C484 N483 1.376 . S
C484 C485 1.446 . S
C484 C514 1.391 . S
C485 C484 1.446 . S
C485 C486 1.339 . S
C485 H520 0.949 . S
C486 C485 1.339 . S
C486 C487 1.439 . S
C486 H521 0.950 . S
C487 N483 1.383 . S
C487 C486 1.439 . S
C487 C516 1.392 . S
N488 Co482 2.008 . S
N488 C489 1.376 . S
N488 C492 1.374 . S
C489 N488 1.376 . S
C489 C490 1.443 . S
C489 C516 1.389 . S
C490 C489 1.443 . S
C490 C491 1.340 . S
C490 H522 0.951 . S
C491 C490 1.340 . S
C491 C492 1.439 . S
C491 H523 0.950 . S
C492 N488 1.374 . S
C492 C491 1.439 . S
C492 C517 1.395 . S
N493 Co482 1.995 . S
N493 C494 1.376 . S
N493 C497 1.383 . S
C494 N493 1.376 . S
C494 C495 1.446 . S
C494 C517 1.391 . S
C495 C494 1.446 . S
C495 C496 1.339 . S
C495 H524 0.949 . S
C496 C495 1.339 . S
C496 C497 1.439 . S
C496 H525 0.950 . S
C497 N493 1.383 . S
C497 C496 1.439 . S
C497 C515 1.392 . S
N498 Co482 2.282 . S
N498 C501 1.332 . S
N498 C503 1.332 . S
C499 C500 1.386 . S
C499 C502 1.388 . S
C500 C499 1.386 . S
C500 C501 1.382 . S
C500 H526 0.950 . S
C501 N498 1.332 . S
C501 C500 1.382 . S
C501 H512 0.952 . S
C502 C499 1.388 . S
C502 C503 1.382 . S
C502 H527 0.950 . S
C503 N498 1.332 . S
C503 C502 1.382 . S
C503 H513 0.948 . S
N504 Co482 2.282 . S
N504 C508 1.332 . S
N504 C509 1.332 . S
C505 C506 1.388 . S
C505 C509 1.382 . S
C505 H528 0.950 . S
C506 C505 1.388 . S
C506 C507 1.386 . S
C507 C506 1.386 . S
C507 C508 1.382 . S
C507 H529 0.950 . S
C508 N504 1.332 . S
C508 C507 1.382 . S
C508 H510 0.952 . S
C509 N504 1.332 . S
C509 C505 1.382 . S
C509 H511 0.948 . S
H510 C508 0.952 . S
H511 C509 0.948 . S
H512 C501 0.952 . S
H513 C503 0.948 . S
C514 C480 1.395 . S
C514 C484 1.391 . S
C515 C477 1.389 . S
C515 C497 1.392 . S
C516 C487 1.392 . S
C516 C489 1.389 . S
C517 C492 1.395 . S
C517 C494 1.391 . S
H518 C478 0.951 . S
H519 C479 0.950 . S
H520 C485 0.949 . S
H521 C486 0.950 . S
H522 C490 0.951 . S
H523 C491 0.950 . S
H524 C495 0.949 . S
H525 C496 0.950 . S
H526 C500 0.950 . S
H527 C502 0.950 . S
H528 C505 0.950 . S
H529 C507 0.950 . S
C530 C531 1.443 . S
C530 N534 1.376 . S
C530 C568 1.389 . S
C531 C530 1.443 . S
C531 C532 1.340 . S
C531 H571 0.951 . S
C532 C531 1.340 . S
C532 C533 1.439 . S
C532 H572 0.950 . S
C533 C532 1.439 . S
C533 N534 1.374 . S
C533 C567 1.395 . S
N534 C530 1.376 . S
N534 C533 1.374 . S
N534 Co535 2.008 . S
Co535 N534 2.008 . S
Co535 N536 1.995 . S
Co535 N541 2.008 . S
Co535 N546 1.995 . S
Co535 N551 2.282 . S
Co535 N557 2.282 . S
N536 Co535 1.995 . S
N536 C537 1.376 . S
N536 C540 1.383 . S
C537 N536 1.376 . S
C537 C538 1.446 . S
C537 C567 1.391 . S
C538 C537 1.446 . S
C538 C539 1.339 . S
C538 H573 0.949 . S
C539 C538 1.339 . S
C539 C540 1.439 . S
C539 H574 0.950 . S
C540 N536 1.383 . S
C540 C539 1.439 . S
C540 C569 1.392 . S
N541 Co535 2.008 . S
N541 C542 1.376 . S
N541 C545 1.374 . S
C542 N541 1.376 . S
C542 C543 1.443 . S
C542 C569 1.389 . S
C543 C542 1.443 . S
C543 C544 1.340 . S
C543 H575 0.951 . S
C544 C543 1.340 . S
C544 C545 1.439 . S
C544 H576 0.950 . S
C545 N541 1.374 . S
C545 C544 1.439 . S
C545 C570 1.395 . S
N546 Co535 1.995 . S
N546 C547 1.376 . S
N546 C550 1.383 . S
C547 N546 1.376 . S
C547 C548 1.446 . S
C547 C570 1.391 . S
C548 C547 1.446 . S
C548 C549 1.339 . S
C548 H577 0.949 . S
C549 C548 1.339 . S
C549 C550 1.439 . S
C549 H578 0.950 . S
C550 N546 1.383 . S
C550 C549 1.439 . S
C550 C568 1.392 . S
N551 Co535 2.282 . S
N551 C554 1.332 . S
N551 C556 1.332 . S
C552 C553 1.386 . S
C552 C555 1.388 . S
C553 C552 1.386 . S
C553 C554 1.382 . S
C553 H579 0.950 . S
C554 N551 1.332 . S
C554 C553 1.382 . S
C554 H565 0.952 . S
C555 C552 1.388 . S
C555 C556 1.382 . S
C555 H580 0.950 . S
C556 N551 1.332 . S
C556 C555 1.382 . S
C556 H566 0.948 . S
N557 Co535 2.282 . S
N557 C561 1.332 . S
N557 C562 1.332 . S
C558 C559 1.388 . S
C558 C562 1.382 . S
C558 H581 0.950 . S
C559 C558 1.388 . S
C559 C560 1.386 . S
C560 C559 1.386 . S
C560 C561 1.382 . S
C560 H582 0.950 . S
C561 N557 1.332 . S
C561 C560 1.382 . S
C561 H563 0.952 . S
C562 N557 1.332 . S
C562 C558 1.382 . S
C562 H564 0.948 . S
H563 C561 0.952 . S
H564 C562 0.948 . S
H565 C554 0.952 . S
H566 C556 0.948 . S
C567 C533 1.395 . S
C567 C537 1.391 . S
C568 C530 1.389 . S
C568 C550 1.392 . S
C569 C540 1.392 . S
C569 C542 1.389 . S
C570 C545 1.395 . S
C570 C547 1.391 . S
H571 C531 0.951 . S
H572 C532 0.950 . S
H573 C538 0.949 . S
H574 C539 0.950 . S
H575 C543 0.951 . S
H576 C544 0.950 . S
H577 C548 0.949 . S
H578 C549 0.950 . S
H579 C553 0.950 . S
H580 C555 0.950 . S
H581 C558 0.950 . S
H582 C560 0.950 . S
C583 C584 1.443 . S
C583 N587 1.376 . S
C583 C621 1.389 . S
C584 C583 1.443 . S
C584 C585 1.340 . S
C584 H624 0.951 . S
C585 C584 1.340 . S
C585 C586 1.439 . S
C585 H625 0.950 . S
C586 C585 1.439 . S
C586 N587 1.374 . S
C586 C620 1.395 . S
N587 C583 1.376 . S
N587 C586 1.374 . S
N587 Co588 2.008 . S
Co588 N587 2.008 . S
Co588 N589 1.995 . S
Co588 N594 2.008 . S
Co588 N599 1.995 . S
Co588 N604 2.282 . S
Co588 N610 2.282 . S
N589 Co588 1.995 . S
N589 C590 1.376 . S
N589 C593 1.383 . S
C590 N589 1.376 . S
C590 C591 1.446 . S
C590 C620 1.391 . S
C591 C590 1.446 . S
C591 C592 1.339 . S
C591 H626 0.949 . S
C592 C591 1.339 . S
C592 C593 1.439 . S
C592 H627 0.950 . S
C593 N589 1.383 . S
C593 C592 1.439 . S
C593 C622 1.392 . S
N594 Co588 2.008 . S
N594 C595 1.376 . S
N594 C598 1.374 . S
C595 N594 1.376 . S
C595 C596 1.443 . S
C595 C622 1.389 . S
C596 C595 1.443 . S
C596 C597 1.340 . S
C596 H628 0.951 . S
C597 C596 1.340 . S
C597 C598 1.439 . S
C597 H629 0.950 . S
C598 N594 1.374 . S
C598 C597 1.439 . S
C598 C623 1.395 . S
N599 Co588 1.995 . S
N599 C600 1.376 . S
N599 C603 1.383 . S
C600 N599 1.376 . S
C600 C601 1.446 . S
C600 C623 1.391 . S
C601 C600 1.446 . S
C601 C602 1.339 . S
C601 H630 0.949 . S
C602 C601 1.339 . S
C602 C603 1.439 . S
C602 H631 0.950 . S
C603 N599 1.383 . S
C603 C602 1.439 . S
C603 C621 1.392 . S
N604 Co588 2.282 . S
N604 C607 1.332 . S
N604 C609 1.332 . S
C605 C606 1.386 . S
C605 C608 1.388 . S
C606 C605 1.386 . S
C606 C607 1.382 . S
C606 H632 0.950 . S
C607 N604 1.332 . S
C607 C606 1.382 . S
C607 H618 0.952 . S
C608 C605 1.388 . S
C608 C609 1.382 . S
C608 H633 0.950 . S
C609 N604 1.332 . S
C609 C608 1.382 . S
C609 H619 0.948 . S
N610 Co588 2.282 . S
N610 C614 1.332 . S
N610 C615 1.332 . S
C611 C612 1.388 . S
C611 C615 1.382 . S
C611 H634 0.950 . S
C612 C611 1.388 . S
C612 C613 1.386 . S
C613 C612 1.386 . S
C613 C614 1.382 . S
C613 H635 0.950 . S
C614 N610 1.332 . S
C614 C613 1.382 . S
C614 H616 0.952 . S
C615 N610 1.332 . S
C615 C611 1.382 . S
C615 H617 0.948 . S
H616 C614 0.952 . S
H617 C615 0.948 . S
H618 C607 0.952 . S
H619 C609 0.948 . S
C620 C586 1.395 . S
C620 C590 1.391 . S
C621 C583 1.389 . S
C621 C603 1.392 . S
C622 C593 1.392 . S
C622 C595 1.389 . S
C623 C598 1.395 . S
C623 C600 1.391 . S
H624 C584 0.951 . S
H625 C585 0.950 . S
H626 C591 0.949 . S
H627 C592 0.950 . S
H628 C596 0.951 . S
H629 C597 0.950 . S
H630 C601 0.949 . S
H631 C602 0.950 . S
H632 C606 0.950 . S
H633 C608 0.950 . S
H634 C611 0.950 . S
H635 C613 0.950 . S
C636 C637 1.443 . S
C636 N640 1.376 . S
C636 C674 1.389 . S
C637 C636 1.443 . S
C637 C638 1.340 . S
C637 H677 0.951 . S
C638 C637 1.340 . S
C638 C639 1.439 . S
C638 H678 0.950 . S
C639 C638 1.439 . S
C639 N640 1.374 . S
C639 C673 1.395 . S
N640 C636 1.376 . S
N640 C639 1.374 . S
N640 Co641 2.008 . S
Co641 N640 2.008 . S
Co641 N642 1.995 . S
Co641 N647 2.008 . S
Co641 N652 1.995 . S
Co641 N657 2.282 . S
Co641 N663 2.282 . S
N642 Co641 1.995 . S
N642 C643 1.376 . S
N642 C646 1.383 . S
C643 N642 1.376 . S
C643 C644 1.446 . S
C643 C673 1.391 . S
C644 C643 1.446 . S
C644 C645 1.339 . S
C644 H679 0.949 . S
C645 C644 1.339 . S
C645 C646 1.439 . S
C645 H680 0.950 . S
C646 N642 1.383 . S
C646 C645 1.439 . S
C646 C675 1.392 . S
N647 Co641 2.008 . S
N647 C648 1.376 . S
N647 C651 1.374 . S
C648 N647 1.376 . S
C648 C649 1.443 . S
C648 C675 1.389 . S
C649 C648 1.443 . S
C649 C650 1.340 . S
C649 H681 0.951 . S
C650 C649 1.340 . S
C650 C651 1.439 . S
C650 H682 0.950 . S
C651 N647 1.374 . S
C651 C650 1.439 . S
C651 C676 1.395 . S
N652 Co641 1.995 . S
N652 C653 1.376 . S
N652 C656 1.383 . S
C653 N652 1.376 . S
C653 C654 1.446 . S
C653 C676 1.391 . S
C654 C653 1.446 . S
C654 C655 1.339 . S
C654 H683 0.949 . S
C655 C654 1.339 . S
C655 C656 1.439 . S
C655 H684 0.950 . S
C656 N652 1.383 . S
C656 C655 1.439 . S
C656 C674 1.392 . S
N657 Co641 2.282 . S
N657 C660 1.332 . S
N657 C662 1.332 . S
C658 C659 1.386 . S
C658 C661 1.388 . S
C659 C658 1.386 . S
C659 C660 1.382 . S
C659 H685 0.950 . S
C660 N657 1.332 . S
C660 C659 1.382 . S
C660 H671 0.952 . S
C661 C658 1.388 . S
C661 C662 1.382 . S
C661 H686 0.950 . S
C662 N657 1.332 . S
C662 C661 1.382 . S
C662 H672 0.948 . S
N663 Co641 2.282 . S
N663 C667 1.332 . S
N663 C668 1.332 . S
C664 C665 1.388 . S
C664 C668 1.382 . S
C664 H687 0.950 . S
C665 C664 1.388 . S
C665 C666 1.386 . S
C666 C665 1.386 . S
C666 C667 1.382 . S
C666 H688 0.950 . S
C667 N663 1.332 . S
C667 C666 1.382 . S
C667 H669 0.952 . S
C668 N663 1.332 . S
C668 C664 1.382 . S
C668 H670 0.948 . S
H669 C667 0.952 . S
H670 C668 0.948 . S
H671 C660 0.952 . S
H672 C662 0.948 . S
C673 C639 1.395 . S
C673 C643 1.391 . S
C674 C636 1.389 . S
C674 C656 1.392 . S
C675 C646 1.392 . S
C675 C648 1.389 . S
C676 C651 1.395 . S
C676 C653 1.391 . S
H677 C637 0.951 . S
H678 C638 0.950 . S
H679 C644 0.949 . S
H680 C645 0.950 . S
H681 C649 0.951 . S
H682 C650 0.950 . S
H683 C654 0.949 . S
H684 C655 0.950 . S
H685 C659 0.950 . S
H686 C661 0.950 . S
H687 C664 0.950 . S
H688 C666 0.950 . S
C689 C690 1.443 . S
C689 N693 1.376 . S
C689 C727 1.389 . S
C690 C689 1.443 . S
C690 C691 1.340 . S
C690 H730 0.951 . S
C691 C690 1.340 . S
C691 C692 1.439 . S
C691 H731 0.950 . S
C692 C691 1.439 . S
C692 N693 1.374 . S
C692 C726 1.395 . S
N693 C689 1.376 . S
N693 C692 1.374 . S
N693 Co694 2.008 . S
Co694 N693 2.008 . S
Co694 N695 1.995 . S
Co694 N700 2.008 . S
Co694 N705 1.995 . S
Co694 N710 2.282 . S
Co694 N716 2.282 . S
N695 Co694 1.995 . S
N695 C696 1.376 . S
N695 C699 1.383 . S
C696 N695 1.376 . S
C696 C697 1.446 . S
C696 C726 1.391 . S
C697 C696 1.446 . S
C697 C698 1.339 . S
C697 H732 0.949 . S
C698 C697 1.339 . S
C698 C699 1.439 . S
C698 H733 0.950 . S
C699 N695 1.383 . S
C699 C698 1.439 . S
C699 C728 1.392 . S
N700 Co694 2.008 . S
N700 C701 1.376 . S
N700 C704 1.374 . S
C701 N700 1.376 . S
C701 C702 1.443 . S
C701 C728 1.389 . S
C702 C701 1.443 . S
C702 C703 1.340 . S
C702 H734 0.951 . S
C703 C702 1.340 . S
C703 C704 1.439 . S
C703 H735 0.950 . S
C704 N700 1.374 . S
C704 C703 1.439 . S
C704 C729 1.395 . S
N705 Co694 1.995 . S
N705 C706 1.376 . S
N705 C709 1.383 . S
C706 N705 1.376 . S
C706 C707 1.446 . S
C706 C729 1.391 . S
C707 C706 1.446 . S
C707 C708 1.339 . S
C707 H736 0.949 . S
C708 C707 1.339 . S
C708 C709 1.439 . S
C708 H737 0.950 . S
C709 N705 1.383 . S
C709 C708 1.439 . S
C709 C727 1.392 . S
N710 Co694 2.282 . S
N710 C713 1.332 . S
N710 C715 1.332 . S
C711 C712 1.386 . S
C711 C714 1.388 . S
C712 C711 1.386 . S
C712 C713 1.382 . S
C712 H738 0.950 . S
C713 N710 1.332 . S
C713 C712 1.382 . S
C713 H724 0.952 . S
C714 C711 1.388 . S
C714 C715 1.382 . S
C714 H739 0.950 . S
C715 N710 1.332 . S
C715 C714 1.382 . S
C715 H725 0.948 . S
N716 Co694 2.282 . S
N716 C720 1.332 . S
N716 C721 1.332 . S
C717 C718 1.388 . S
C717 C721 1.382 . S
C717 H740 0.950 . S
C718 C717 1.388 . S
C718 C719 1.386 . S
C719 C718 1.386 . S
C719 C720 1.382 . S
C719 H741 0.950 . S
C720 N716 1.332 . S
C720 C719 1.382 . S
C720 H722 0.952 . S
C721 N716 1.332 . S
C721 C717 1.382 . S
C721 H723 0.948 . S
H722 C720 0.952 . S
H723 C721 0.948 . S
H724 C713 0.952 . S
H725 C715 0.948 . S
C726 C692 1.395 . S
C726 C696 1.391 . S
C727 C689 1.389 . S
C727 C709 1.392 . S
C728 C699 1.392 . S
C728 C701 1.389 . S
C729 C704 1.395 . S
C729 C706 1.391 . S
H730 C690 0.951 . S
H731 C691 0.950 . S
H732 C697 0.949 . S
H733 C698 0.950 . S
H734 C702 0.951 . S
H735 C703 0.950 . S
H736 C707 0.949 . S
H737 C708 0.950 . S
H738 C712 0.950 . S
H739 C714 0.950 . S
H740 C717 0.950 . S
H741 C719 0.950 . S
C742 C743 1.443 . S
C742 N746 1.376 . S
C742 C780 1.389 . S
C743 C742 1.443 . S
C743 C744 1.340 . S
C743 H783 0.951 . S
C744 C743 1.340 . S
C744 C745 1.439 . S
C744 H784 0.950 . S
C745 C744 1.439 . S
C745 N746 1.374 . S
C745 C779 1.395 . S
N746 C742 1.376 . S
N746 C745 1.374 . S
N746 Co747 2.008 . S
Co747 N746 2.008 . S
Co747 N748 1.995 . S
Co747 N753 2.008 . S
Co747 N758 1.995 . S
Co747 N763 2.282 . S
Co747 N769 2.282 . S
N748 Co747 1.995 . S
N748 C749 1.376 . S
N748 C752 1.383 . S
C749 N748 1.376 . S
C749 C750 1.446 . S
C749 C779 1.391 . S
C750 C749 1.446 . S
C750 C751 1.339 . S
C750 H785 0.949 . S
C751 C750 1.339 . S
C751 C752 1.439 . S
C751 H786 0.950 . S
C752 N748 1.383 . S
C752 C751 1.439 . S
C752 C781 1.392 . S
N753 Co747 2.008 . S
N753 C754 1.376 . S
N753 C757 1.374 . S
C754 N753 1.376 . S
C754 C755 1.443 . S
C754 C781 1.389 . S
C755 C754 1.443 . S
C755 C756 1.340 . S
C755 H787 0.951 . S
C756 C755 1.340 . S
C756 C757 1.439 . S
C756 H788 0.950 . S
C757 N753 1.374 . S
C757 C756 1.439 . S
C757 C782 1.395 . S
N758 Co747 1.995 . S
N758 C759 1.376 . S
N758 C762 1.383 . S
C759 N758 1.376 . S
C759 C760 1.446 . S
C759 C782 1.391 . S
C760 C759 1.446 . S
C760 C761 1.339 . S
C760 H789 0.949 . S
C761 C760 1.339 . S
C761 C762 1.439 . S
C761 H790 0.950 . S
C762 N758 1.383 . S
C762 C761 1.439 . S
C762 C780 1.392 . S
N763 Co747 2.282 . S
N763 C766 1.332 . S
N763 C768 1.332 . S
C764 C765 1.386 . S
C764 C767 1.388 . S
C765 C764 1.386 . S
C765 C766 1.382 . S
C765 H791 0.950 . S
C766 N763 1.332 . S
C766 C765 1.382 . S
C766 H777 0.952 . S
C767 C764 1.388 . S
C767 C768 1.382 . S
C767 H792 0.950 . S
C768 N763 1.332 . S
C768 C767 1.382 . S
C768 H778 0.948 . S
N769 Co747 2.282 . S
N769 C773 1.332 . S
N769 C774 1.332 . S
C770 C771 1.388 . S
C770 C774 1.382 . S
C770 H793 0.950 . S
C771 C770 1.388 . S
C771 C772 1.386 . S
C772 C771 1.386 . S
C772 C773 1.382 . S
C772 H794 0.950 . S
C773 N769 1.332 . S
C773 C772 1.382 . S
C773 H775 0.952 . S
C774 N769 1.332 . S
C774 C770 1.382 . S
C774 H776 0.948 . S
H775 C773 0.952 . S
H776 C774 0.948 . S
H777 C766 0.952 . S
H778 C768 0.948 . S
C779 C745 1.395 . S
C779 C749 1.391 . S
C780 C742 1.389 . S
C780 C762 1.392 . S
C781 C752 1.392 . S
C781 C754 1.389 . S
C782 C757 1.395 . S
C782 C759 1.391 . S
H783 C743 0.951 . S
H784 C744 0.950 . S
H785 C750 0.949 . S
H786 C751 0.950 . S
H787 C755 0.951 . S
H788 C756 0.950 . S
H789 C760 0.949 . S
H790 C761 0.950 . S
H791 C765 0.950 . S
H792 C767 0.950 . S
H793 C770 0.950 . S
H794 C772 0.950 . S
C795 C796 1.443 . S
C795 N799 1.376 . S
C795 C833 1.389 . S
C796 C795 1.443 . S
C796 C797 1.340 . S
C796 H836 0.951 . S
C797 C796 1.340 . S
C797 C798 1.439 . S
C797 H837 0.950 . S
C798 C797 1.439 . S
C798 N799 1.374 . S
C798 C832 1.395 . S
N799 C795 1.376 . S
N799 C798 1.374 . S
N799 Co800 2.008 . S
Co800 N799 2.008 . S
Co800 N801 1.995 . S
Co800 N806 2.008 . S
Co800 N811 1.995 . S
Co800 N816 2.282 . S
Co800 N822 2.282 . S
N801 Co800 1.995 . S
N801 C802 1.376 . S
N801 C805 1.383 . S
C802 N801 1.376 . S
C802 C803 1.446 . S
C802 C832 1.391 . S
C803 C802 1.446 . S
C803 C804 1.339 . S
C803 H838 0.949 . S
C804 C803 1.339 . S
C804 C805 1.439 . S
C804 H839 0.950 . S
C805 N801 1.383 . S
C805 C804 1.439 . S
C805 C834 1.392 . S
N806 Co800 2.008 . S
N806 C807 1.376 . S
N806 C810 1.374 . S
C807 N806 1.376 . S
C807 C808 1.443 . S
C807 C834 1.389 . S
C808 C807 1.443 . S
C808 C809 1.340 . S
C808 H840 0.951 . S
C809 C808 1.340 . S
C809 C810 1.439 . S
C809 H841 0.950 . S
C810 N806 1.374 . S
C810 C809 1.439 . S
C810 C835 1.395 . S
N811 Co800 1.995 . S
N811 C812 1.376 . S
N811 C815 1.383 . S
C812 N811 1.376 . S
C812 C813 1.446 . S
C812 C835 1.391 . S
C813 C812 1.446 . S
C813 C814 1.339 . S
C813 H842 0.949 . S
C814 C813 1.339 . S
C814 C815 1.439 . S
C814 H843 0.950 . S
C815 N811 1.383 . S
C815 C814 1.439 . S
C815 C833 1.392 . S
N816 Co800 2.282 . S
N816 C819 1.332 . S
N816 C821 1.332 . S
C817 C818 1.386 . S
C817 C820 1.388 . S
C818 C817 1.386 . S
C818 C819 1.382 . S
C818 H844 0.950 . S
C819 N816 1.332 . S
C819 C818 1.382 . S
C819 H830 0.952 . S
C820 C817 1.388 . S
C820 C821 1.382 . S
C820 H845 0.950 . S
C821 N816 1.332 . S
C821 C820 1.382 . S
C821 H831 0.948 . S
N822 Co800 2.282 . S
N822 C826 1.332 . S
N822 C827 1.332 . S
C823 C824 1.388 . S
C823 C827 1.382 . S
C823 H846 0.950 . S
C824 C823 1.388 . S
C824 C825 1.386 . S
C825 C824 1.386 . S
C825 C826 1.382 . S
C825 H847 0.950 . S
C826 N822 1.332 . S
C826 C825 1.382 . S
C826 H828 0.952 . S
C827 N822 1.332 . S
C827 C823 1.382 . S
C827 H829 0.948 . S
H828 C826 0.952 . S
H829 C827 0.948 . S
H830 C819 0.952 . S
H831 C821 0.948 . S
C832 C798 1.395 . S
C832 C802 1.391 . S
C833 C795 1.389 . S
C833 C815 1.392 . S
C834 C805 1.392 . S
C834 C807 1.389 . S
C835 C810 1.395 . S
C835 C812 1.391 . S
H836 C796 0.951 . S
H837 C797 0.950 . S
H838 C803 0.949 . S
H839 C804 0.950 . S
H840 C808 0.951 . S
H841 C809 0.950 . S
H842 C813 0.949 . S
H843 C814 0.950 . S
H844 C818 0.950 . S
H845 C820 0.950 . S
H846 C823 0.950 . S
H847 C825 0.950 . S
H848 C856 0.950 . S
H849 C861 0.950 . S
H850 C858 0.950 . S
H851 C860 0.950 . S
H852 C862 0.950 . S
H853 C864 0.950 . S
H854 C866 0.950 . S
H855 C867 0.950 . S
C856 H848 0.950 . S
C856 C857 1.386 . S
C856 C858 1.391 . S
C857 C856 1.386 . S
C857 C861 1.393 . S
C858 H850 0.950 . S
C858 C856 1.391 . S
C858 C859 1.400 . S
C859 C858 1.400 . S
C859 C860 1.398 . S
C859 C865 1.491 . S
C860 H851 0.950 . S
C860 C859 1.398 . S
C860 C861 1.391 . S
C861 H849 0.950 . S
C861 C857 1.393 . S
C861 C860 1.391 . S
C862 H852 0.950 . S
C862 C863 1.386 . S
C862 C864 1.391 . S
C863 C862 1.386 . S
C863 C867 1.393 . S
C864 H853 0.950 . S
C864 C862 1.391 . S
C864 C865 1.400 . S
C865 C859 1.491 . S
C865 C864 1.400 . S
C865 C866 1.398 . S
C866 H854 0.950 . S
C866 C865 1.398 . S
C866 C867 1.391 . S
C867 H855 0.950 . S
C867 C863 1.393 . S
C867 C866 1.391 . S
H868 C876 0.950 . S
H869 C881 0.950 . S
H870 C878 0.950 . S
H871 C880 0.950 . S
H872 C882 0.950 . S
H873 C884 0.950 . S
H874 C886 0.950 . S
H875 C887 0.950 . S
C876 H868 0.950 . S
C876 C877 1.386 . S
C876 C878 1.391 . S
C877 C876 1.386 . S
C877 C881 1.393 . S
C878 H870 0.950 . S
C878 C876 1.391 . S
C878 C879 1.400 . S
C879 C878 1.400 . S
C879 C880 1.398 . S
C879 C885 1.491 . S
C880 H871 0.950 . S
C880 C879 1.398 . S
C880 C881 1.391 . S
C881 H869 0.950 . S
C881 C877 1.393 . S
C881 C880 1.391 . S
C882 H872 0.950 . S
C882 C883 1.386 . S
C882 C884 1.391 . S
C883 C882 1.386 . S
C883 C887 1.393 . S
C884 H873 0.950 . S
C884 C882 1.391 . S
C884 C885 1.400 . S
C885 C879 1.491 . S
C885 C884 1.400 . S
C885 C886 1.398 . S
C886 H874 0.950 . S
C886 C885 1.398 . S
C886 C887 1.391 . S
C887 H875 0.950 . S
C887 C883 1.393 . S
C887 C886 1.391 . S
H888 C896 0.950 . S
H889 C901 0.950 . S
H890 C898 0.950 . S
H891 C900 0.950 . S
H892 C902 0.950 . S
H893 C904 0.950 . S
H894 C906 0.950 . S
H895 C907 0.950 . S
C896 H888 0.950 . S
C896 C897 1.386 . S
C896 C898 1.391 . S
C897 C896 1.386 . S
C897 C901 1.393 . S
C898 H890 0.950 . S
C898 C896 1.391 . S
C898 C899 1.400 . S
C899 C898 1.400 . S
C899 C900 1.398 . S
C899 C905 1.491 . S
C900 H891 0.950 . S
C900 C899 1.398 . S
C900 C901 1.391 . S
C901 H889 0.950 . S
C901 C897 1.393 . S
C901 C900 1.391 . S
C902 H892 0.950 . S
C902 C903 1.386 . S
C902 C904 1.391 . S
C903 C902 1.386 . S
C903 C907 1.393 . S
C904 H893 0.950 . S
C904 C902 1.391 . S
C904 C905 1.400 . S
C905 C899 1.491 . S
C905 C904 1.400 . S
C905 C906 1.398 . S
C906 H894 0.950 . S
C906 C905 1.398 . S
C906 C907 1.391 . S
C907 H895 0.950 . S
C907 C903 1.393 . S
C907 C906 1.391 . S
H908 C916 0.950 . S
H909 C921 0.950 . S
H910 C918 0.950 . S
H911 C920 0.950 . S
H912 C922 0.950 . S
H913 C924 0.950 . S
H914 C926 0.950 . S
H915 C927 0.950 . S
C916 H908 0.950 . S
C916 C917 1.386 . S
C916 C918 1.391 . S
C917 C916 1.386 . S
C917 C921 1.393 . S
C918 H910 0.950 . S
C918 C916 1.391 . S
C918 C919 1.400 . S
C919 C918 1.400 . S
C919 C920 1.398 . S
C919 C925 1.491 . S
C920 H911 0.950 . S
C920 C919 1.398 . S
C920 C921 1.391 . S
C921 H909 0.950 . S
C921 C917 1.393 . S
C921 C920 1.391 . S
C922 H912 0.950 . S
C922 C923 1.386 . S
C922 C924 1.391 . S
C923 C922 1.386 . S
C923 C927 1.393 . S
C924 H913 0.950 . S
C924 C922 1.391 . S
C924 C925 1.400 . S
C925 C919 1.491 . S
C925 C924 1.400 . S
C925 C926 1.398 . S
C926 H914 0.950 . S
C926 C925 1.398 . S
C926 C927 1.391 . S
C927 H915 0.950 . S
C927 C923 1.393 . S
C927 C926 1.391 . S
H928 C936 0.950 1_565 S
H929 C941 0.950 . S
H930 C938 0.950 . S
H931 C940 0.964 . S
H932 C942 0.950 . S
H933 C944 0.950 . S
H934 C946 0.950 . S
H935 C947 0.950 . S
C936 H928 0.950 1_545 S
C936 C937 1.386 . S
C936 C938 1.391 . S
C937 C936 1.386 . S
C937 C941 1.393 . S
C938 H930 0.950 . S
C938 C936 1.391 . S
C938 C939 1.400 . S
C939 C938 1.400 . S
C939 C940 1.398 . S
C939 C945 1.491 1_554 S
C940 H931 0.964 . S
C940 C939 1.398 . S
C940 C941 1.391 . S
C941 H929 0.950 . S
C941 C937 1.393 . S
C941 C940 1.391 . S
C942 H932 0.950 . S
C942 C943 1.386 . S
C942 C944 1.391 . S
C943 C942 1.386 . S
C943 C947 1.393 . S
C944 H933 0.950 . S
C944 C942 1.391 . S
C944 C945 1.400 . S
C945 C939 1.491 1_556 S
C945 C944 1.400 . S
C945 C946 1.398 . S
C946 H934 0.950 . S
C946 C945 1.398 . S
C946 C947 1.391 . S
C947 H935 0.950 . S
C947 C943 1.393 . S
C947 C946 1.391 . S
H948 C956 0.950 . S
H949 C961 0.950 . S
H950 C958 0.950 . S
H951 C960 0.950 . S
H952 C962 0.950 . S
H953 C964 0.950 1_554 S
H954 C966 0.950 . S
H955 C967 0.950 . S
C956 H948 0.950 . S
C956 C957 1.386 . S
C956 C958 1.391 . S
C957 C956 1.386 . S
C957 C961 1.393 . S
C958 H950 0.950 . S
C958 C956 1.391 . S
C958 C959 1.400 . S
C959 C958 1.400 . S
C959 C960 1.398 . S
C959 C965 1.491 1_554 S
C960 H951 0.950 . S
C960 C959 1.398 . S
C960 C961 1.391 . S
C961 H949 0.950 . S
C961 C957 1.393 . S
C961 C960 1.391 . S
C962 H952 0.950 . S
C962 C963 1.386 1_655 S
C962 C964 1.391 1_655 S
C963 C962 1.386 1_455 S
C963 C967 1.393 . S
C964 H953 0.950 1_556 S
C964 C962 1.391 1_455 S
C964 C965 1.400 . S
C965 C959 1.491 1_556 S
C965 C964 1.400 . S
C965 C966 1.398 . S
C966 H954 0.950 . S
C966 C965 1.398 . S
C966 C967 1.391 . S
C967 H955 0.950 . S
C967 C963 1.393 . S
C967 C966 1.391 . S
H968 C976 0.950 . S
H969 C981 0.950 . S
H970 C978 0.950 . S
H971 C980 0.950 . S
H972 C982 0.950 . S
H973 C984 0.950 . S
H974 C986 0.950 . S
H975 C987 0.950 . S
C976 H968 0.950 . S
C976 C977 1.386 . S
C976 C978 1.391 . S
C977 C976 1.386 . S
C977 C981 1.393 . S
C978 H970 0.950 . S
C978 C976 1.391 . S
C978 C979 1.400 . S
C979 C978 1.400 . S
C979 C980 1.398 . S
C979 C985 1.491 1_556 S
C980 H971 0.950 . S
C980 C979 1.398 . S
C980 C981 1.391 . S
C981 H969 0.950 . S
C981 C977 1.393 . S
C981 C980 1.391 . S
C982 H972 0.950 . S
C982 C983 1.386 . S
C982 C984 1.391 . S
C983 C982 1.386 . S
C983 C987 1.393 1_565 S
C984 H973 0.950 . S
C984 C982 1.391 . S
C984 C985 1.400 . S
C985 C979 1.491 1_554 S
C985 C984 1.400 . S
C985 C986 1.398 . S
C986 H974 0.950 . S
C986 C985 1.398 . S
C986 C987 1.391 1_565 S
C987 H975 0.950 . S
C987 C983 1.393 1_545 S
C987 C986 1.391 1_545 S
H988 C996 0.950 . S
H989 C1001 0.950 . S
H990 C998 0.950 . S
H991 C1000 0.950 1_556 S
H992 C1002 0.950 . S
H993 C1004 0.950 . S
H994 C1006 0.950 1_554 S
H995 C1007 0.950 . S
C996 H988 0.950 . S
C996 C997 1.386 . S
C996 C998 1.391 . S
C997 C996 1.386 . S
C997 C1001 1.393 . S
C998 H990 0.950 . S
C998 C996 1.391 . S
C998 C999 1.400 . S
C999 C998 1.400 . S
C999 C1000 1.398 . S
C999 C1005 1.491 1_554 S
C1000 H991 0.950 1_554 S
C1000 C999 1.398 . S
C1000 C1001 1.391 . S
C1001 H989 0.950 . S
C1001 C997 1.393 . S
C1001 C1000 1.391 . S
C1002 H992 0.950 . S
C1002 C1003 1.386 . S
C1002 C1004 1.391 . S
C1003 C1002 1.386 . S
C1003 C1007 1.393 1_655 S
C1004 H993 0.950 . S
C1004 C1002 1.391 . S
C1004 C1005 1.400 . S
C1005 C999 1.491 1_556 S
C1005 C1004 1.400 . S
C1005 C1006 1.398 . S
C1006 H994 0.950 1_556 S
C1006 C1005 1.398 . S
C1006 C1007 1.391 1_655 S
C1007 H995 0.950 . S
C1007 C1003 1.393 1_455 S
C1007 C1006 1.391 1_455 S
H1008 C1016 0.950 . S
H1009 C1021 0.950 . S
H1010 C1018 0.950 . S
H1011 C1020 0.950 . S
H1012 C1022 0.950 . S
H1013 C1024 0.950 . S
H1014 C1026 0.950 . S
H1015 C1027 0.950 1_545 S
C1016 H1008 0.950 . S
C1016 C1017 1.386 . S
C1016 C1018 1.391 . S
C1017 C1016 1.386 . S
C1017 C1021 1.393 . S
C1018 H1010 0.950 . S
C1018 C1016 1.391 . S
C1018 C1019 1.400 . S
C1019 C1018 1.400 . S
C1019 C1020 1.398 . S
C1019 C1025 1.491 . S
C1020 H1011 0.950 . S
C1020 C1019 1.398 . S
C1020 C1021 1.391 . S
C1021 H1009 0.950 . S
C1021 C1017 1.393 . S
C1021 C1020 1.391 . S
C1022 H1012 0.950 . S
C1022 C1023 1.386 . S
C1022 C1024 1.391 . S
C1023 C1022 1.386 . S
C1023 C1027 1.393 . S
C1024 H1013 0.950 . S
C1024 C1022 1.391 . S
C1024 C1025 1.400 . S
C1025 C1019 1.491 . S
C1025 C1024 1.400 . S
C1025 C1026 1.398 . S
C1026 H1014 0.950 . S
C1026 C1025 1.398 . S
C1026 C1027 1.391 . S
C1027 H1015 0.950 1_565 S
C1027 C1023 1.393 . S
C1027 C1026 1.391 . S
H1028 C1036 0.950 . S
H1029 C1041 0.950 1_455 S
H1030 C1038 0.950 . S
H1031 C1040 0.950 . S
H1032 C1042 0.950 . S
H1033 C1044 0.950 . S
H1034 C1046 0.950 . S
H1035 C1047 0.950 . S
C1036 H1028 0.950 . S
C1036 C1037 1.386 . S
C1036 C1038 1.391 . S
C1037 C1036 1.386 . S
C1037 C1041 1.393 . S
C1038 H1030 0.950 . S
C1038 C1036 1.391 . S
C1038 C1039 1.400 . S
C1039 C1038 1.400 . S
C1039 C1040 1.398 . S
C1039 C1045 1.491 . S
C1040 H1031 0.950 . S
C1040 C1039 1.398 . S
C1040 C1041 1.391 . S
C1041 H1029 0.950 1_655 S
C1041 C1037 1.393 . S
C1041 C1040 1.391 . S
C1042 H1032 0.950 . S
C1042 C1043 1.386 . S
C1042 C1044 1.391 . S
C1043 C1042 1.386 . S
C1043 C1047 1.393 . S
C1044 H1033 0.950 . S
C1044 C1042 1.391 . S
C1044 C1045 1.400 . S
C1045 C1039 1.491 . S
C1045 C1044 1.400 . S
C1045 C1046 1.398 . S
C1046 H1034 0.950 . S
C1046 C1045 1.398 . S
C1046 C1047 1.391 . S
C1047 H1035 0.950 . S
C1047 C1043 1.393 . S
C1047 C1046 1.391 . S
H1048 C1056 0.950 . S
H1049 C1061 0.950 . S
H1050 C1058 0.950 . S
H1051 C1060 0.950 . S
H1052 C1062 0.950 . S
H1053 C1064 0.950 . S
H1054 C1066 0.950 . S
H1055 C1067 0.950 . S
C1056 H1048 0.950 . S
C1056 C1057 1.386 . S
C1056 C1058 1.391 . S
C1057 C1056 1.386 . S
C1057 C1061 1.393 . S
C1058 H1050 0.950 . S
C1058 C1056 1.391 . S
C1058 C1059 1.400 . S
C1059 C1058 1.400 . S
C1059 C1060 1.398 . S
C1059 C1065 1.491 . S
C1060 H1051 0.950 . S
C1060 C1059 1.398 . S
C1060 C1061 1.391 . S
C1061 H1049 0.950 . S
C1061 C1057 1.393 . S
C1061 C1060 1.391 . S
C1062 H1052 0.950 . S
C1062 C1063 1.386 . S
C1062 C1064 1.391 . S
C1063 C1062 1.386 . S
C1063 C1067 1.393 . S
C1064 H1053 0.950 . S
C1064 C1062 1.391 . S
C1064 C1065 1.400 . S
C1065 C1059 1.491 . S
C1065 C1064 1.400 . S
C1065 C1066 1.398 . S
C1066 H1054 0.950 . S
C1066 C1065 1.398 . S
C1066 C1067 1.391 . S
C1067 H1055 0.950 . S
C1067 C1063 1.393 . S
C1067 C1066 1.391 . S
H1068 C1076 0.950 . S
H1069 C1081 0.955 . S
H1070 C1078 0.950 . S
H1071 C1080 0.950 . S
H1072 C1082 0.950 . S
H1073 C1084 0.950 . S
H1074 C1086 0.950 . S
H1075 C1087 0.950 . S
C1076 H1068 0.950 . S
C1076 C1077 1.386 . S
C1076 C1078 1.391 . S
C1077 C1076 1.386 . S
C1077 C1081 1.391 1_455 S
C1078 H1070 0.950 . S
C1078 C1076 1.391 . S
C1078 C1079 1.400 . S
C1079 C1078 1.400 . S
C1079 C1080 1.398 . S
C1079 C1085 1.491 . S
C1080 H1071 0.950 . S
C1080 C1079 1.398 . S
C1080 C1081 1.388 1_455 S
C1081 H1069 0.955 . S
C1081 C1077 1.391 1_655 S
C1081 C1080 1.388 1_655 S
C1082 H1072 0.950 . S
C1082 C1083 1.386 . S
C1082 C1084 1.391 . S
C1083 C1082 1.386 . S
C1083 C1087 1.393 . S
C1084 H1073 0.950 . S
C1084 C1082 1.391 . S
C1084 C1085 1.400 . S
C1085 C1079 1.491 . S
C1085 C1084 1.400 . S
C1085 C1086 1.398 . S
C1086 H1074 0.950 . S
C1086 C1085 1.398 . S
C1086 C1087 1.391 . S
C1087 H1075 0.950 . S
C1087 C1083 1.393 . S
C1087 C1086 1.391 . S
H1088 C1096 0.950 . S
H1089 C1101 0.950 . S
H1090 C1098 0.950 . S
H1091 C1100 0.950 . S
H1092 C1102 0.950 . S
H1093 C1104 0.950 . S
H1094 C1106 0.950 . S
H1095 C1107 0.950 . S
C1096 H1088 0.950 . S
C1096 C1097 1.386 . S
C1096 C1098 1.391 . S
C1097 C1096 1.386 . S
C1097 C1101 1.393 . S
C1098 H1090 0.950 . S
C1098 C1096 1.391 . S
C1098 C1099 1.400 . S
C1099 C1098 1.400 . S
C1099 C1100 1.398 . S
C1099 C1105 1.491 . S
C1100 H1091 0.950 . S
C1100 C1099 1.398 . S
C1100 C1101 1.391 . S
C1101 H1089 0.950 . S
C1101 C1097 1.393 . S
C1101 C1100 1.391 . S
C1102 H1092 0.950 . S
C1102 C1103 1.386 . S
C1102 C1104 1.391 . S
C1103 C1102 1.386 . S
C1103 C1107 1.393 . S
C1104 H1093 0.950 . S
C1104 C1102 1.391 . S
C1104 C1105 1.400 . S
C1105 C1099 1.491 . S
C1105 C1104 1.400 . S
C1105 C1106 1.398 . S
C1106 H1094 0.950 . S
C1106 C1105 1.398 . S
C1106 C1107 1.391 . S
C1107 H1095 0.950 . S
C1107 C1103 1.393 . S
C1107 C1106 1.391 . S
H1108 C1116 0.950 . S
H1109 C1121 0.950 . S
H1110 C1118 0.950 . S
H1111 C1120 0.950 . S
H1112 C1122 0.950 . S
H1113 C1124 0.950 . S
H1114 C1126 0.950 . S
H1115 C1127 0.950 . S
C1116 H1108 0.950 . S
C1116 C1117 1.386 . S
C1116 C1118 1.391 . S
C1117 C1116 1.386 . S
C1117 C1121 1.393 . S
C1118 H1110 0.950 . S
C1118 C1116 1.391 . S
C1118 C1119 1.400 . S
C1119 C1118 1.400 . S
C1119 C1120 1.398 . S
C1119 C1125 1.491 . S
C1120 H1111 0.950 . S
C1120 C1119 1.398 . S
C1120 C1121 1.391 . S
C1121 H1109 0.950 . S
C1121 C1117 1.393 . S
C1121 C1120 1.391 . S
C1122 H1112 0.950 . S
C1122 C1123 1.386 . S
C1122 C1124 1.391 . S
C1123 C1122 1.386 . S
C1123 C1127 1.393 . S
C1124 H1113 0.950 . S
C1124 C1122 1.391 . S
C1124 C1125 1.400 . S
C1125 C1119 1.491 . S
C1125 C1124 1.400 . S
C1125 C1126 1.398 . S
C1126 H1114 0.950 . S
C1126 C1125 1.398 . S
C1126 C1127 1.391 . S
C1127 H1115 0.950 . S
C1127 C1123 1.393 . S
C1127 C1126 1.391 . S
H1128 C1136 0.950 . S
H1129 C1141 0.950 . S
H1130 C1138 0.950 . S
H1131 C1140 0.950 . S
H1132 C1142 0.950 . S
H1133 C1144 0.950 . S
H1134 C1146 0.950 . S
H1135 C1147 0.950 . S
C1136 H1128 0.950 . S
C1136 C1137 1.386 . S
C1136 C1138 1.391 . S
C1137 C1136 1.386 . S
C1137 C1141 1.393 . S
C1138 H1130 0.950 . S
C1138 C1136 1.391 . S
C1138 C1139 1.400 . S
C1139 C1138 1.400 . S
C1139 C1140 1.398 . S
C1139 C1145 1.491 . S
C1140 H1131 0.950 . S
C1140 C1139 1.398 . S
C1140 C1141 1.391 . S
C1141 H1129 0.950 . S
C1141 C1137 1.393 . S
C1141 C1140 1.391 . S
C1142 H1132 0.950 . S
C1142 C1143 1.386 . S
C1142 C1144 1.391 . S
C1143 C1142 1.386 . S
C1143 C1147 1.393 . S
C1144 H1133 0.950 . S
C1144 C1142 1.391 . S
C1144 C1145 1.400 . S
C1145 C1139 1.491 . S
C1145 C1144 1.400 . S
C1145 C1146 1.398 . S
C1146 H1134 0.950 . S
C1146 C1145 1.398 . S
C1146 C1147 1.391 . S
C1147 H1135 0.950 . S
C1147 C1143 1.393 . S
C1147 C1146 1.391 . S
H1148 C1156 0.950 . S
H1149 C1161 0.950 . S
H1150 C1158 0.950 . S
H1151 C1160 0.950 . S
H1152 C1162 0.950 . S
H1153 C1164 0.950 . S
H1154 C1166 0.950 . S
H1155 C1167 0.950 . S
C1156 H1148 0.950 . S
C1156 C1157 1.386 . S
C1156 C1158 1.391 . S
C1157 C1156 1.386 . S
C1157 C1161 1.393 . S
C1158 H1150 0.950 . S
C1158 C1156 1.391 . S
C1158 C1159 1.400 . S
C1159 C1158 1.400 . S
C1159 C1160 1.398 . S
C1159 C1165 1.491 . S
C1160 H1151 0.950 . S
C1160 C1159 1.398 . S
C1160 C1161 1.391 . S
C1161 H1149 0.950 . S
C1161 C1157 1.393 . S
C1161 C1160 1.391 . S
C1162 H1152 0.950 . S
C1162 C1163 1.386 . S
C1162 C1164 1.391 . S
C1163 C1162 1.386 . S
C1163 C1167 1.393 . S
C1164 H1153 0.950 . S
C1164 C1162 1.391 . S
C1164 C1165 1.400 . S
C1165 C1159 1.491 . S
C1165 C1164 1.400 . S
C1165 C1166 1.398 . S
C1166 H1154 0.950 . S
C1166 C1165 1.398 . S
C1166 C1167 1.391 . S
C1167 H1155 0.950 . S
C1167 C1163 1.393 . S
C1167 C1166 1.391 . S
H1168 C1176 0.950 . S
H1169 C1181 0.950 . S
H1170 C1178 0.950 . S
H1171 C1180 0.950 . S
H1172 C1182 0.950 . S
H1173 C1184 0.950 . S
H1174 C1186 0.950 . S
H1175 C1187 0.950 . S
C1176 H1168 0.950 . S
C1176 C1177 1.386 . S
C1176 C1178 1.391 . S
C1177 C1176 1.386 . S
C1177 C1181 1.393 . S
C1178 H1170 0.950 . S
C1178 C1176 1.391 . S
C1178 C1179 1.400 . S
C1179 C1178 1.400 . S
C1179 C1180 1.398 . S
C1179 C1185 1.491 . S
C1180 H1171 0.950 . S
C1180 C1179 1.398 . S
C1180 C1181 1.391 . S
C1181 H1169 0.950 . S
C1181 C1177 1.393 . S
C1181 C1180 1.391 . S
C1182 H1172 0.950 . S
C1182 C1183 1.386 . S
C1182 C1184 1.391 . S
C1183 C1182 1.386 . S
C1183 C1187 1.393 . S
C1184 H1173 0.950 . S
C1184 C1182 1.391 . S
C1184 C1185 1.400 . S
C1185 C1179 1.491 . S
C1185 C1184 1.400 . S
C1185 C1186 1.398 . S
C1186 H1174 0.950 . S
C1186 C1185 1.398 . S
C1186 C1187 1.391 . S
C1187 H1175 0.950 . S
C1187 C1183 1.393 . S
C1187 C1186 1.391 . S
H1188 C1196 0.950 . S
H1189 C1201 0.950 . S
H1190 C1198 0.950 . S
H1191 C1200 0.950 . S
H1192 C1202 0.950 . S
H1193 C1204 0.950 . S
H1194 C1206 0.950 . S
H1195 C1207 0.950 . S
C1196 H1188 0.950 . S
C1196 C1197 1.386 . S
C1196 C1198 1.391 . S
C1197 C1196 1.386 . S
C1197 C1201 1.393 . S
C1198 H1190 0.950 . S
C1198 C1196 1.391 . S
C1198 C1199 1.400 . S
C1199 C1198 1.400 . S
C1199 C1200 1.398 . S
C1199 C1205 1.491 . S
C1200 H1191 0.950 . S
C1200 C1199 1.398 . S
C1200 C1201 1.391 . S
C1201 H1189 0.950 . S
C1201 C1197 1.393 . S
C1201 C1200 1.391 . S
C1202 H1192 0.950 . S
C1202 C1203 1.386 . S
C1202 C1204 1.391 . S
C1203 C1202 1.386 . S
C1203 C1207 1.393 . S
C1204 H1193 0.950 . S
C1204 C1202 1.391 . S
C1204 C1205 1.400 . S
C1205 C1199 1.491 . S
C1205 C1204 1.400 . S
C1205 C1206 1.398 . S
C1206 H1194 0.950 . S
C1206 C1205 1.398 . S
C1206 C1207 1.391 . S
C1207 H1195 0.950 . S
C1207 C1203 1.393 . S
C1207 C1206 1.391 . S
H1208 C1216 0.950 . S
H1209 C1221 0.950 . S
H1210 C1218 0.950 . S
H1211 C1220 0.950 . S
H1212 C1222 0.950 . S
H1213 C1224 0.950 . S
H1214 C1226 0.950 . S
H1215 C1227 0.950 . S
C1216 H1208 0.950 . S
C1216 C1217 1.386 . S
C1216 C1218 1.391 . S
C1217 C1216 1.386 . S
C1217 C1221 1.393 . S
C1218 H1210 0.950 . S
C1218 C1216 1.391 . S
C1218 C1219 1.400 . S
C1219 C1218 1.400 . S
C1219 C1220 1.398 . S
C1219 C1225 1.491 . S
C1220 H1211 0.950 . S
C1220 C1219 1.398 . S
C1220 C1221 1.391 . S
C1221 H1209 0.950 . S
C1221 C1217 1.393 . S
C1221 C1220 1.391 . S
C1222 H1212 0.950 . S
C1222 C1223 1.386 . S
C1222 C1224 1.391 . S
C1223 C1222 1.386 . S
C1223 C1227 1.393 . S
C1224 H1213 0.950 . S
C1224 C1222 1.391 . S
C1224 C1225 1.400 . S
C1225 C1219 1.491 . S
C1225 C1224 1.400 . S
C1225 C1226 1.398 . S
C1226 H1214 0.950 . S
C1226 C1225 1.398 . S
C1226 C1227 1.391 . S
C1227 H1215 0.950 . S
C1227 C1223 1.393 . S
C1227 C1226 1.391 . S
H1228 C1236 0.950 . S
H1229 C1241 0.950 . S
H1230 C1238 0.950 . S
H1231 C1240 0.950 . S
H1232 C1242 0.950 . S
H1233 C1244 0.950 . S
H1234 C1246 0.950 . S
H1235 C1247 0.950 . S
C1236 H1228 0.950 . S
C1236 C1237 1.386 . S
C1236 C1238 1.391 . S
C1237 C1236 1.386 . S
C1237 C1241 1.393 . S
C1238 H1230 0.950 . S
C1238 C1236 1.391 . S
C1238 C1239 1.400 . S
C1239 C1238 1.400 . S
C1239 C1240 1.398 . S
C1239 C1245 1.491 . S
C1240 H1231 0.950 . S
C1240 C1239 1.398 . S
C1240 C1241 1.391 . S
C1241 H1229 0.950 . S
C1241 C1237 1.393 . S
C1241 C1240 1.391 . S
C1242 H1232 0.950 . S
C1242 C1243 1.386 . S
C1242 C1244 1.391 . S
C1243 C1242 1.386 . S
C1243 C1247 1.393 . S
C1244 H1233 0.950 . S
C1244 C1242 1.391 . S
C1244 C1245 1.400 . S
C1245 C1239 1.491 . S
C1245 C1244 1.400 . S
C1245 C1246 1.398 . S
C1246 H1234 0.950 . S
C1246 C1245 1.398 . S
C1246 C1247 1.391 . S
C1247 H1235 0.950 . S
C1247 C1243 1.393 . S
C1247 C1246 1.391 . S
H1248 C1256 0.950 . S
H1249 C1261 0.950 . S
H1250 C1258 0.950 . S
H1251 C1260 0.950 . S
H1252 C1262 0.950 . S
H1253 C1264 0.950 . S
H1254 C1266 0.950 . S
H1255 C1267 0.950 . S
C1256 H1248 0.950 . S
C1256 C1257 1.386 . S
C1256 C1258 1.391 . S
C1257 C1256 1.386 . S
C1257 C1261 1.393 . S
C1258 H1250 0.950 . S
C1258 C1256 1.391 . S
C1258 C1259 1.400 . S
C1259 C1258 1.400 . S
C1259 C1260 1.398 . S
C1259 C1265 1.491 . S
C1260 H1251 0.950 . S
C1260 C1259 1.398 . S
C1260 C1261 1.391 . S
C1261 H1249 0.950 . S
C1261 C1257 1.393 . S
C1261 C1260 1.391 . S
C1262 H1252 0.950 . S
C1262 C1263 1.386 . S
C1262 C1264 1.391 . S
C1263 C1262 1.386 . S
C1263 C1267 1.393 . S
C1264 H1253 0.950 . S
C1264 C1262 1.391 . S
C1264 C1265 1.400 . S
C1265 C1259 1.491 . S
C1265 C1264 1.400 . S
C1265 C1266 1.398 . S
C1266 H1254 0.950 . S
C1266 C1265 1.398 . S
C1266 C1267 1.391 . S
C1267 H1255 0.950 . S
C1267 C1263 1.393 . S
C1267 C1266 1.391 . S
H1268 C1276 0.950 . S
H1269 C1281 0.950 . S
H1270 C1278 0.950 . S
H1271 C1280 0.950 . S
H1272 C1282 0.950 . S
H1273 C1284 0.950 . S
H1274 C1286 0.950 . S
H1275 C1287 0.950 . S
C1276 H1268 0.950 . S
C1276 C1277 1.386 . S
C1276 C1278 1.391 . S
C1277 C1276 1.386 . S
C1277 C1281 1.393 . S
C1278 H1270 0.950 . S
C1278 C1276 1.391 . S
C1278 C1279 1.400 . S
C1279 C1278 1.400 . S
C1279 C1280 1.398 . S
C1279 C1285 1.491 . S
C1280 H1271 0.950 . S
C1280 C1279 1.398 . S
C1280 C1281 1.391 . S
C1281 H1269 0.950 . S
C1281 C1277 1.393 . S
C1281 C1280 1.391 . S
C1282 H1272 0.950 . S
C1282 C1283 1.386 . S
C1282 C1284 1.391 . S
C1283 C1282 1.386 . S
C1283 C1287 1.393 . S
C1284 H1273 0.950 . S
C1284 C1282 1.391 . S
C1284 C1285 1.400 . S
C1285 C1279 1.491 . S
C1285 C1284 1.400 . S
C1285 C1286 1.398 . S
C1286 H1274 0.950 . S
C1286 C1285 1.398 . S
C1286 C1287 1.391 . S
C1287 H1275 0.950 . S
C1287 C1283 1.393 . S
C1287 C1286 1.391 . S
H1288 C1296 0.950 . S
H1289 C1301 0.950 . S
H1290 C1298 0.950 . S
H1291 C1300 0.950 . S
H1292 C1302 0.950 . S
H1293 C1304 0.950 . S
H1294 C1306 0.950 . S
H1295 C1307 0.950 . S
C1296 H1288 0.950 . S
C1296 C1297 1.386 . S
C1296 C1298 1.391 . S
C1297 C1296 1.386 . S
C1297 C1301 1.393 . S
C1298 H1290 0.950 . S
C1298 C1296 1.391 . S
C1298 C1299 1.400 . S
C1299 C1298 1.400 . S
C1299 C1300 1.398 . S
C1299 C1305 1.491 . S
C1300 H1291 0.950 . S
C1300 C1299 1.398 . S
C1300 C1301 1.391 . S
C1301 H1289 0.950 . S
C1301 C1297 1.393 . S
C1301 C1300 1.391 . S
C1302 H1292 0.950 . S
C1302 C1303 1.386 . S
C1302 C1304 1.391 . S
C1303 C1302 1.386 . S
C1303 C1307 1.393 . S
C1304 H1293 0.950 . S
C1304 C1302 1.391 . S
C1304 C1305 1.400 . S
C1305 C1299 1.491 . S
C1305 C1304 1.400 . S
C1305 C1306 1.398 . S
C1306 H1294 0.950 . S
C1306 C1305 1.398 . S
C1306 C1307 1.391 . S
C1307 H1295 0.950 . S
C1307 C1303 1.393 . S
C1307 C1306 1.391 . S
H1308 C1316 0.950 . S
H1309 C1321 0.950 . S
H1310 C1318 0.950 . S
H1311 C1320 0.950 . S
H1312 C1322 0.950 . S
H1313 C1324 0.950 . S
H1314 C1326 0.950 . S
H1315 C1327 0.950 . S
C1316 H1308 0.950 . S
C1316 C1317 1.386 . S
C1316 C1318 1.391 . S
C1317 C1316 1.386 . S
C1317 C1321 1.393 . S
C1318 H1310 0.950 . S
C1318 C1316 1.391 . S
C1318 C1319 1.400 . S
C1319 C1318 1.400 . S
C1319 C1320 1.398 . S
C1319 C1325 1.491 . S
C1320 H1311 0.950 . S
C1320 C1319 1.398 . S
C1320 C1321 1.391 . S
C1321 H1309 0.950 . S
C1321 C1317 1.393 . S
C1321 C1320 1.391 . S
C1322 H1312 0.950 . S
C1322 C1323 1.386 . S
C1322 C1324 1.391 . S
C1323 C1322 1.386 . S
C1323 C1327 1.393 . S
C1324 H1313 0.950 . S
C1324 C1322 1.391 . S
C1324 C1325 1.400 . S
C1325 C1319 1.491 . S
C1325 C1324 1.400 . S
C1325 C1326 1.398 . S
C1326 H1314 0.950 . S
C1326 C1325 1.398 . S
C1326 C1327 1.391 . S
C1327 H1315 0.950 . S
C1327 C1323 1.393 . S
C1327 C1326 1.391 . S
H1328 C1336 0.950 . S
H1329 C1341 0.950 . S
H1330 C1338 0.950 . S
H1331 C1340 0.950 . S
H1332 C1342 0.950 . S
H1333 C1344 0.950 . S
H1334 C1346 0.950 . S
H1335 C1347 0.950 . S
C1336 H1328 0.950 . S
C1336 C1337 1.386 . S
C1336 C1338 1.391 . S
C1337 C1336 1.386 . S
C1337 C1341 1.393 1_655 S
C1338 H1330 0.950 . S
C1338 C1336 1.391 . S
C1338 C1339 1.400 . S
C1339 C1338 1.400 . S
C1339 C1340 1.398 1_655 S
C1339 C1345 1.491 1_665 S
C1340 H1331 0.950 . S
C1340 C1339 1.398 1_455 S
C1340 C1341 1.391 . S
C1341 H1329 0.950 . S
C1341 C1337 1.393 1_455 S
C1341 C1340 1.391 . S
C1342 H1332 0.950 . S
C1342 C1343 1.386 . S
C1342 C1344 1.391 . S
C1343 C1342 1.386 . S
C1343 C1347 1.393 1_455 S
C1344 H1333 0.950 . S
C1344 C1342 1.391 . S
C1344 C1345 1.400 . S
C1345 C1339 1.491 1_445 S
C1345 C1344 1.400 . S
C1345 C1346 1.398 1_455 S
C1346 H1334 0.950 . S
C1346 C1345 1.398 1_655 S
C1346 C1347 1.391 . S
C1347 H1335 0.950 . S
C1347 C1343 1.393 1_655 S
C1347 C1346 1.391 . S
H1348 C1356 0.950 . S
H1349 C1361 0.950 . S
H1350 C1358 0.950 . S
H1351 C1360 0.950 . S
H1352 C1362 0.950 . S
H1353 C1364 0.950 . S
H1354 C1366 0.950 . S
H1355 C1367 0.950 . S
C1356 H1348 0.950 . S
C1356 C1357 1.386 . S
C1356 C1358 1.391 . S
C1357 C1356 1.386 . S
C1357 C1361 1.393 1_545 S
C1358 H1350 0.950 . S
C1358 C1356 1.391 . S
C1358 C1359 1.400 . S
C1359 C1358 1.400 . S
C1359 C1360 1.398 1_545 S
C1359 C1365 1.491 1_645 S
C1360 H1351 0.950 . S
C1360 C1359 1.398 1_565 S
C1360 C1361 1.391 . S
C1361 H1349 0.950 . S
C1361 C1357 1.393 1_565 S
C1361 C1360 1.391 . S
C1362 H1352 0.950 . S
C1362 C1363 1.386 . S
C1362 C1364 1.391 . S
C1363 C1362 1.386 . S
C1363 C1367 1.393 1_565 S
C1364 H1353 0.950 . S
C1364 C1362 1.391 . S
C1364 C1365 1.400 . S
C1365 C1359 1.491 1_465 S
C1365 C1364 1.400 . S
C1365 C1366 1.398 1_565 S
C1366 H1354 0.950 . S
C1366 C1365 1.398 1_545 S
C1366 C1367 1.391 . S
C1367 H1355 0.950 . S
C1367 C1363 1.393 1_545 S
C1367 C1366 1.391 . S
H1368 C1376 0.950 . S
H1369 C1381 0.950 1_655 S
H1370 C1378 0.950 . S
H1371 C1380 0.950 . S
H1372 C1382 0.950 . S
H1373 C1384 0.950 . S
H1374 C1386 0.950 . S
H1375 C1387 0.950 1_455 S
C1376 H1368 0.950 . S
C1376 C1377 1.386 . S
C1376 C1378 1.391 . S
C1377 C1376 1.386 . S
C1377 C1381 1.393 . S
C1378 H1370 0.950 . S
C1378 C1376 1.391 . S
C1378 C1379 1.400 . S
C1379 C1378 1.400 . S
C1379 C1380 1.398 1_455 S
C1379 C1385 1.491 1_455 S
C1380 H1371 0.950 . S
C1380 C1379 1.398 1_655 S
C1380 C1381 1.391 1_655 S
C1381 H1369 0.950 1_455 S
C1381 C1377 1.393 . S
C1381 C1380 1.391 1_455 S
C1382 H1372 0.950 . S
C1382 C1383 1.386 . S
C1382 C1384 1.391 . S
C1383 C1382 1.386 . S
C1383 C1387 1.393 . S
C1384 H1373 0.950 . S
C1384 C1382 1.391 . S
C1384 C1385 1.400 . S
C1385 C1379 1.491 1_655 S
C1385 C1384 1.400 . S
C1385 C1386 1.398 1_655 S
C1386 H1374 0.950 . S
C1386 C1385 1.398 1_455 S
C1386 C1387 1.391 1_455 S
C1387 H1375 0.950 1_655 S
C1387 C1383 1.393 . S
C1387 C1386 1.391 1_655 S
H1388 C1396 0.950 . S
H1389 C1401 0.950 . S
H1390 C1398 0.950 . S
H1391 C1400 0.950 . S
H1392 C1402 0.950 . S
H1393 C1404 0.950 . S
H1394 C1406 0.950 . S
H1395 C1407 0.950 . S
C1396 H1388 0.950 . S
C1396 C1397 1.386 . S
C1396 C1398 1.391 . S
C1397 C1396 1.386 . S
C1397 C1401 1.393 1_565 S
C1398 H1390 0.950 . S
C1398 C1396 1.391 . S
C1398 C1399 1.400 . S
C1399 C1398 1.400 . S
C1399 C1400 1.398 1_565 S
C1399 C1405 1.491 1_565 S
C1400 H1391 0.950 . S
C1400 C1399 1.398 1_545 S
C1400 C1401 1.391 . S
C1401 H1389 0.950 . S
C1401 C1397 1.393 1_545 S
C1401 C1400 1.391 . S
C1402 H1392 0.950 . S
C1402 C1403 1.386 . S
C1402 C1404 1.391 . S
C1403 C1402 1.386 . S
C1403 C1407 1.393 1_545 S
C1404 H1393 0.950 . S
C1404 C1402 1.391 . S
C1404 C1405 1.400 . S
C1405 C1399 1.491 1_545 S
C1405 C1404 1.400 . S
C1405 C1406 1.398 1_545 S
C1406 H1394 0.950 . S
C1406 C1405 1.398 1_565 S
C1406 C1407 1.391 . S
C1407 H1395 0.950 . S
C1407 C1403 1.393 1_565 S
C1407 C1406 1.391 . S
H1408 C1416 0.950 . S
H1409 C1421 0.950 . S
H1410 C1418 0.950 . S
H1411 C1420 0.950 . S
H1412 C1422 0.950 . S
H1413 C1424 0.950 . S
H1414 C1426 0.950 . S
H1415 C1427 0.950 . S
C1416 H1408 0.950 . S
C1416 C1417 1.386 . S
C1416 C1418 1.391 . S
C1417 C1416 1.386 . S
C1417 C1421 1.393 . S
C1418 H1410 0.950 . S
C1418 C1416 1.391 . S
C1418 C1419 1.400 . S
C1419 C1418 1.400 . S
C1419 C1420 1.398 . S
C1419 C1425 1.491 . S
C1420 H1411 0.950 . S
C1420 C1419 1.398 . S
C1420 C1421 1.391 . S
C1421 H1409 0.950 . S
C1421 C1417 1.393 . S
C1421 C1420 1.391 . S
C1422 H1412 0.950 . S
C1422 C1423 1.386 . S
C1422 C1424 1.391 . S
C1423 C1422 1.386 . S
C1423 C1427 1.393 . S
C1424 H1413 0.950 . S
C1424 C1422 1.391 . S
C1424 C1425 1.400 . S
C1425 C1419 1.491 . S
C1425 C1424 1.400 . S
C1425 C1426 1.398 . S
C1426 H1414 0.950 . S
C1426 C1425 1.398 . S
C1426 C1427 1.391 . S
C1427 H1415 0.950 . S
C1427 C1423 1.393 . S
C1427 C1426 1.391 . S
H1428 C1436 0.950 . S
H1429 C1441 0.950 . S
H1430 C1438 0.950 . S
H1431 C1440 0.950 . S
H1432 C1442 0.950 . S
H1433 C1444 0.950 . S
H1434 C1446 0.950 . S
H1435 C1447 0.950 . S
C1436 H1428 0.950 . S
C1436 C1437 1.386 . S
C1436 C1438 1.391 . S
C1437 C1436 1.386 . S
C1437 C1441 1.393 . S
C1438 H1430 0.950 . S
C1438 C1436 1.391 . S
C1438 C1439 1.400 . S
C1439 C1438 1.400 . S
C1439 C1440 1.398 . S
C1439 C1445 1.491 . S
C1440 H1431 0.950 . S
C1440 C1439 1.398 . S
C1440 C1441 1.391 . S
C1441 H1429 0.950 . S
C1441 C1437 1.393 . S
C1441 C1440 1.391 . S
C1442 H1432 0.950 . S
C1442 C1443 1.386 . S
C1442 C1444 1.391 . S
C1443 C1442 1.386 . S
C1443 C1447 1.393 . S
C1444 H1433 0.950 . S
C1444 C1442 1.391 . S
C1444 C1445 1.400 . S
C1445 C1439 1.491 . S
C1445 C1444 1.400 . S
C1445 C1446 1.398 . S
C1446 H1434 0.950 . S
C1446 C1445 1.398 . S
C1446 C1447 1.391 . S
C1447 H1435 0.950 . S
C1447 C1443 1.393 . S
C1447 C1446 1.391 . S
H1448 C1456 0.950 . S
H1449 C1461 0.950 . S
H1450 C1458 0.950 . S
H1451 C1460 0.950 . S
H1452 C1462 0.950 . S
H1453 C1464 0.950 . S
H1454 C1466 0.950 . S
H1455 C1467 0.950 . S
C1456 H1448 0.950 . S
C1456 C1457 1.386 . S
C1456 C1458 1.391 . S
C1457 C1456 1.386 . S
C1457 C1461 1.393 . S
C1458 H1450 0.950 . S
C1458 C1456 1.391 . S
C1458 C1459 1.400 . S
C1459 C1458 1.400 . S
C1459 C1460 1.398 . S
C1459 C1465 1.491 1_545 S
C1460 H1451 0.950 . S
C1460 C1459 1.398 . S
C1460 C1461 1.391 . S
C1461 H1449 0.950 . S
C1461 C1457 1.393 . S
C1461 C1460 1.391 . S
C1462 H1452 0.950 . S
C1462 C1463 1.386 . S
C1462 C1464 1.391 . S
C1463 C1462 1.386 . S
C1463 C1467 1.393 . S
C1464 H1453 0.950 . S
C1464 C1462 1.391 . S
C1464 C1465 1.400 . S
C1465 C1459 1.491 1_565 S
C1465 C1464 1.400 . S
C1465 C1466 1.398 . S
C1466 H1454 0.950 . S
C1466 C1465 1.398 . S
C1466 C1467 1.391 . S
C1467 H1455 0.950 . S
C1467 C1463 1.393 . S
C1467 C1466 1.391 . S
H1468 C1476 0.950 . S
H1469 C1481 0.950 . S
H1470 C1478 0.950 . S
H1471 C1480 0.950 . S
H1472 C1482 0.950 . S
H1473 C1484 0.950 . S
H1474 C1486 0.950 . S
H1475 C1487 0.950 . S
C1476 H1468 0.950 . S
C1476 C1477 1.386 . S
C1476 C1478 1.391 . S
C1477 C1476 1.386 . S
C1477 C1481 1.393 . S
C1478 H1470 0.950 . S
C1478 C1476 1.391 . S
C1478 C1479 1.400 . S
C1479 C1478 1.400 . S
C1479 C1480 1.398 . S
C1479 C1485 1.491 1_655 S
C1480 H1471 0.950 . S
C1480 C1479 1.398 . S
C1480 C1481 1.391 . S
C1481 H1469 0.950 . S
C1481 C1477 1.393 . S
C1481 C1480 1.391 . S
C1482 H1472 0.950 . S
C1482 C1483 1.386 . S
C1482 C1484 1.391 . S
C1483 C1482 1.386 . S
C1483 C1487 1.393 . S
C1484 H1473 0.950 . S
C1484 C1482 1.391 . S
C1484 C1485 1.400 . S
C1485 C1479 1.491 1_455 S
C1485 C1484 1.400 . S
C1485 C1486 1.398 . S
C1486 H1474 0.950 . S
C1486 C1485 1.398 . S
C1486 C1487 1.391 . S
C1487 H1475 0.950 . S
C1487 C1483 1.393 . S
C1487 C1486 1.391 . S
C857 C22 1.698 . S
C863 C621 1.744 . S
C877 C463 1.736 . S
C883 C82 1.676 . S
C897 C515 1.740 . S
C903 C128 1.682 . S
C917 C569 1.742 . S
C923 C188 1.686 . S
C937 C303 1.743 1_545 S
C943 C234 1.697 . S
C957 C294 1.689 . S
C963 C357 1.739 1_455 S
C977 C340 1.690 . S
C983 C409 1.740 1_565 S
C997 C400 1.686 . S
C1003 C251 1.742 1_655 S
C1017 C446 1.676 . S
C1023 C197 1.736 1_565 S
C1037 C39 1.740 1_655 S
C1043 C506 1.692 . S
C1057 C91 1.745 1_545 S
C1063 C552 1.697 . S
C1077 C145 1.736 1_455 S
C1083 C612 1.679 . S
C1097 C727 1.744 . S
C1103 C658 1.698 . S
C1117 C718 1.687 . S
C1123 C781 1.742 . S
C1137 C833 1.741 . S
C1143 C764 1.682 . S
C1157 C675 1.740 . S
C1163 C824 1.682 . S
C1177 C780 2.108 . S
C1183 C38 2.107 . S
C1197 C834 2.116 . S
C1203 C92 2.105 . S
C1217 C674 2.113 . S
C1223 C144 2.104 . S
C1237 C198 2.104 . S
C1243 C728 2.113 . S
C1257 C250 2.105 . S
C1263 C568 2.110 . S
C1277 C622 2.115 . S
C1283 C304 2.108 . S
C1297 C356 2.107 . S
C1303 C462 2.116 . S
C1317 C410 2.115 . S
C1323 C516 2.109 . S
C1337 C135 2.021 . S
C1343 C29 2.008 . S
C1357 C181 2.008 . S
C1363 C75 2.020 . S
C1377 C241 2.019 . S
C1383 C347 2.009 . S
C1397 C287 2.009 . S
C1403 C393 2.020 . S
C1417 C559 2.008 . S
C1423 C453 2.021 . S
C1437 C499 2.017 . S
C1443 C605 2.012 . S
C1457 C771 2.022 . S
C1463 C665 2.007 . S
C1477 C711 2.021 . S
C1483 C817 2.007 . S
