# Generated by pormake.
# Topology snk, (6)-cn, num edge types: 1
# Building blocks:
#     Node 0, Type 0, BuildingBlock: PAMTOO_clean_sbu_0, # of connection points: 6
#     Node 1, Type 0, BuildingBlock: PAMTOO_clean_sbu_0, # of connection points: 6
#     Node 2, Type 0, BuildingBlock: PAMTOO_clean_sbu_0, # of connection points: 6
#     Node 3, Type 0, BuildingBlock: PAMTOO_clean_sbu_0, # of connection points: 6
#     Node 4, Type 0, BuildingBlock: PAMTOO_clean_sbu_0, # of connection points: 6
#     Node 5, Type 0, BuildingBlock: PAMTOO_clean_sbu_0, # of connection points: 6
#     Node 6, Type 0, BuildingBlock: PAMTOO_clean_sbu_0, # of connection points: 6
#     Node 7, Type 0, BuildingBlock: PAMTOO_clean_sbu_0, # of connection points: 6
#     Edge 8, Type (0, 0), BuildingBlock: AJUNOK_clean_linker_0, # of connection points: 2
#     Edge 9, Type (0, 0), BuildingBlock: AJUNOK_clean_linker_0, # of connection points: 2
#     Edge 10, Type (0, 0), BuildingBlock: AJUNOK_clean_linker_0, # of connection points: 2
#     Edge 11, Type (0, 0), BuildingBlock: AJUNOK_clean_linker_0, # of connection points: 2
#     Edge 12, Type (0, 0), BuildingBlock: AJUNOK_clean_linker_0, # of connection points: 2
#     Edge 13, Type (0, 0), BuildingBlock: AJUNOK_clean_linker_0, # of connection points: 2
#     Edge 14, Type (0, 0), BuildingBlock: AJUNOK_clean_linker_0, # of connection points: 2
#     Edge 15, Type (0, 0), BuildingBlock: AJUNOK_clean_linker_0, # of connection points: 2
#     Edge 16, Type (0, 0), BuildingBlock: AJUNOK_clean_linker_0, # of connection points: 2
#     Edge 17, Type (0, 0), BuildingBlock: AJUNOK_clean_linker_0, # of connection points: 2
#     Edge 18, Type (0, 0), BuildingBlock: AJUNOK_clean_linker_0, # of connection points: 2
#     Edge 19, Type (0, 0), BuildingBlock: AJUNOK_clean_linker_0, # of connection points: 2
#     Edge 20, Type (0, 0), BuildingBlock: AJUNOK_clean_linker_0, # of connection points: 2
#     Edge 21, Type (0, 0), BuildingBlock: AJUNOK_clean_linker_0, # of connection points: 2
#     Edge 22, Type (0, 0), BuildingBlock: AJUNOK_clean_linker_0, # of connection points: 2
#     Edge 23, Type (0, 0), BuildingBlock: AJUNOK_clean_linker_0, # of connection points: 2
#     Edge 24, Type (0, 0), BuildingBlock: AJUNOK_clean_linker_0, # of connection points: 2
#     Edge 25, Type (0, 0), BuildingBlock: AJUNOK_clean_linker_0, # of connection points: 2
#     Edge 26, Type (0, 0), BuildingBlock: AJUNOK_clean_linker_0, # of connection points: 2
#     Edge 27, Type (0, 0), BuildingBlock: AJUNOK_clean_linker_0, # of connection points: 2
#     Edge 28, Type (0, 0), BuildingBlock: AJUNOK_clean_linker_0, # of connection points: 2
#     Edge 29, Type (0, 0), BuildingBlock: AJUNOK_clean_linker_0, # of connection points: 2
#     Edge 30, Type (0, 0), BuildingBlock: AJUNOK_clean_linker_0, # of connection points: 2
#     Edge 31, Type (0, 0), BuildingBlock: AJUNOK_clean_linker_0, # of connection points: 2
# Relax obj value: 0.103
# Max RMSD: 0.184
# Mean RMSD: 0.145
data_MOF--net-snk--node1-PAMTOO_clean_sbu_0--edge1-AJUNOK_clean_linker_0
_symmetry_space_group_name_H-M    P1
_symmetry_Int_Tables_number       1
_symmetry_cell_setting            triclinic
loop_
_symmetry_equiv_pos_as_xyz
'x, y, z'
_cell_length_a     27.602745
_cell_length_b     27.565471
_cell_length_c     20.957268
_cell_angle_alpha  89.262664
_cell_angle_beta   91.787684
_cell_angle_gamma 89.174908
loop_
_atom_site_label
_atom_site_type_symbol
_atom_site_fract_x
_atom_site_fract_y
_atom_site_fract_z
_atom_type_partial_charge
Dy0 Dy 0.98262 0.04069 0.62607 0.0
Dy1 Dy 0.98097 0.97116 0.49634 0.0
C2 C 0.05878 0.95397 0.61084 0.0
O3 O 0.03871 0.07021 0.56131 0.0
O4 O 0.00636 0.0438 0.46597 0.0
O5 O 0.02028 0.07882 0.70154 0.0
O6 O 0.94173 0.07969 0.69594 0.0
O7 O 0.91003 0.00749 0.51094 0.0
O8 O 0.93813 0.07819 0.54963 0.0
O9 O 0.95688 0.92162 0.57329 0.0
O10 O 0.93004 0.98077 0.64124 0.0
O11 O 0.93879 0.93623 0.42186 0.0
O12 O 0.01702 0.93557 0.41927 0.0
C13 C 0.03582 0.07186 0.49843 0.0
O14 O 0.03057 0.97738 0.64952 0.0
O15 O 0.05085 0.9543 0.54868 0.0
C16 C 0.97932 0.07419 0.79825 0.0
C17 C 0.97835 0.0446 0.92774 0.0
C18 C -0.01055 0.01118 0.87999 0.0
C19 C -0.01001 0.02585 0.81594 0.0
C20 C 0.9672 0.10752 0.8454 0.0
C21 C 0.96659 0.09283 0.90968 0.0
C22 C 0.9804 0.08941 0.73064 0.0
C23 C 0.90692 0.05462 0.51402 0.0
C24 C 0.93207 0.93531 0.6227 0.0
C25 C 0.97406 0.94426 0.32114 0.0
C26 C 0.97511 0.97807 0.19338 0.0
C27 C 0.96338 0.00982 0.24279 0.0
C28 C 0.96307 -0.00689 0.30618 0.0
C29 C 0.98481 0.91231 0.27193 0.0
C30 C 0.98519 0.92899 0.20859 0.0
C31 C 0.97658 0.92697 0.388 0.0
H32 H -0.00261 0.97352 0.89211 0.0
H33 H -0.00125 -0.00061 0.78013 0.0
H34 H 0.95844 0.14489 0.83256 0.0
H35 H 0.9577 0.11931 0.94538 0.0
H36 H 0.9555 0.04779 0.23254 0.0
H37 H 0.95487 0.01843 0.34362 0.0
H38 H -0.00663 0.87452 0.28256 0.0
H39 H -0.00662 0.90346 0.17144 0.0
Dy40 Dy 0.27365 0.73036 0.71123 0.0
Dy41 Dy 0.20557 0.73855 0.84013 0.0
C42 C 0.1932 0.81171 0.72268 0.0
O43 O 0.30598 0.78667 0.77485 0.0
O44 O 0.28034 0.75737 0.87071 0.0
O45 O 0.31177 0.76631 0.63602 0.0
O46 O 0.30977 0.68783 0.64045 0.0
O47 O 0.24379 0.66708 0.8452 0.0
O48 O 0.31054 0.68376 0.78608 0.0
O49 O 0.15599 0.71204 0.76282 0.0
O50 O 0.21396 0.67741 0.70054 0.0
O51 O 0.16194 0.70658 0.91343 0.0
O52 O 0.17569 0.7837 0.91279 0.0
C53 C 0.30952 0.78393 0.8375 0.0
O54 O 0.21058 0.7783 0.68549 0.0
O55 O 0.19834 0.80799 0.78492 0.0
C56 C 0.30411 0.7254 0.53885 0.0
C57 C 0.27166 0.72932 0.4098 0.0
C58 C 0.2387 0.72196 0.45874 0.0
C59 C 0.25475 0.72034 0.52266 0.0
C60 C 0.33731 0.73177 0.4903 0.0
C61 C 0.32124 0.73363 0.42623 0.0
C62 C 0.32045 0.72595 0.60633 0.0
C63 C 0.28898 0.65886 0.83061 0.0
C64 C 0.16867 0.68292 0.7169 0.0
C65 C 0.1753 0.74418 1.01283 0.0
C66 C 0.20563 0.73947 0.1426 0.0
C67 C 0.23907 0.74936 0.09514 0.0
C68 C 0.22403 0.75178 1.03086 0.0
C69 C 0.14189 0.73391 0.05996 0.0
C70 C 0.15691 0.73157 0.12439 0.0
C71 C 0.15945 0.74694 0.94509 0.0
H72 H 0.20047 0.71739 0.44763 0.0
H73 H 0.22856 0.71555 0.55959 0.0
H74 H 0.37552 0.73595 0.50198 0.0
H75 H 0.34746 0.7394 0.38959 0.0
H76 H 0.27678 0.75568 0.10784 0.0
H77 H 0.25047 0.75965 0.99522 0.0
H78 H 0.10421 0.72772 0.04694 0.0
H79 H 0.13054 0.72318 0.15996 0.0
Dy80 Dy 0.47044 0.02303 0.96402 0.0
Dy81 Dy 0.48872 0.9573 0.09804 0.0
C82 C 0.42374 0.91979 0.98242 0.0
O83 O 0.43249 0.06363 0.03991 0.0
O84 O 0.42002 -0.0008 0.10817 0.0
O85 O 0.42127 0.05379 0.89136 0.0
O86 O 0.49854 0.06337 0.8847 0.0
O87 O 0.51644 0.03131 0.11642 0.0
O88 O 0.53543 0.05262 1.01436 0.0
O89 O 0.55145 0.94178 0.03647 0.0
O90 O 0.51562 0.95891 0.93834 0.0
O91 O 0.53592 0.93357 0.17677 0.0
O92 O 0.46157 0.90954 0.1709 0.0
C93 C 0.41091 0.04392 0.08876 0.0
O94 O 0.41539 0.96532 0.96657 0.0
O95 O 0.4566 0.90709 1.02627 0.0
C96 C 0.45436 0.05068 0.7892 0.0
C97 C 0.45667 0.0185 0.66205 0.0
C98 C 0.46226 0.98526 0.71333 0.0
C99 C 0.46106 0.00122 0.77634 0.0
C100 C 0.44805 0.08389 0.73835 0.0
C101 C 0.44928 0.06795 0.67524 0.0
C102 C 0.45632 0.06774 0.85543 0.0
C103 C 0.54128 0.05711 0.07626 0.0
C104 C 0.55026 0.93818 0.97397 0.0
C105 C 0.49446 0.92677 0.27279 0.0
C106 C 0.47987 0.95518 0.39977 0.0
C107 C 0.47843 -0.01024 0.34977 0.0
C108 C 0.48569 0.97567 0.2869 0.0
C109 C 0.49621 0.89213 0.32236 0.0
C110 C 0.48916 0.90622 0.38543 0.0
C111 C 0.50114 0.91201 0.20637 0.0
H112 H 0.46894 0.94712 0.70477 0.0
H113 H 0.4663 0.97509 0.81509 0.0
H114 H 0.44289 0.1222 0.74746 0.0
H115 H 0.44472 0.09433 0.63667 0.0
H116 H 0.47127 0.02769 0.35923 0.0
H117 H 0.48446 0.00294 0.24919 0.0
H118 H 0.50316 0.85425 0.31233 0.0
H119 H 0.49159 0.8789 0.42303 0.0
Dy120 Dy 0.20606 0.24341 0.23092 0.0
Dy121 Dy 0.27697 0.2335 0.36433 0.0
C122 C 0.29009 0.16375 0.2454 0.0
O123 O 0.15723 0.21098 0.3023 0.0
O124 O 0.21518 0.18322 0.37708 0.0
O125 O 0.1631 0.21236 0.15358 0.0
O126 O 0.17813 0.28926 0.15365 0.0
O127 O 0.21352 0.27869 0.3889 0.0
O128 O 0.18969 0.3086 0.29006 0.0
O129 O 0.30749 0.29235 0.30322 0.0
O130 O 0.2805 0.26455 0.20632 0.0
O131 O 0.31584 0.26875 0.44165 0.0
O132 O 0.31563 0.19022 0.43664 0.0
C133 C 0.1703 0.18585 0.35398 0.0
O134 O 0.24447 0.17201 0.22901 0.0
O135 O 0.31226 0.18756 0.29144 0.0
C136 C 0.18073 0.24922 0.05424 0.0
C137 C 0.21583 0.24012 0.92915 0.0
C138 C 0.24122 0.26731 0.97527 0.0
C139 C 0.2241 0.27153 0.03716 0.0
C140 C 0.15505 0.22245 1.00818 0.0
C141 C 0.17237 0.21796 0.94629 0.0
C142 C 0.16285 0.25262 0.12008 0.0
C143 C 0.18949 0.3104 0.35278 0.0
C144 C 0.31034 0.29056 0.24079 0.0
C145 C 0.31239 0.22562 0.53942 0.0
C146 C 0.28392 0.22672 0.66806 0.0
C147 C 0.25833 0.19932 0.62242 0.0
C148 C 0.27233 0.19881 0.55875 0.0
C149 C 0.33832 0.25261 0.58503 0.0
C150 C 0.32424 0.2532 0.64871 0.0
C151 C 0.3259 0.22786 0.47162 0.0
H152 H 0.27419 0.28575 0.96341 0.0
H153 H 0.24494 0.29223 0.07165 0.0
H154 H 0.12171 0.20472 1.02021 0.0
H155 H 0.15201 0.19664 0.91198 0.0
H156 H 0.22746 0.17821 0.63613 0.0
H157 H 0.25155 0.1778 0.52456 0.0
H158 H 0.36904 0.27391 0.57115 0.0
H159 H 0.34423 0.27528 0.68251 0.0
Dy160 Dy 0.79561 0.22413 0.18766 0.0
Dy161 Dy 0.72768 0.2268 0.31664 0.0
C162 C 0.71156 0.30295 0.20122 0.0
O163 O 0.82467 0.2819 0.25228 0.0
O164 O 0.80185 0.24788 0.34672 0.0
O165 O 0.83517 0.25957 0.11354 0.0
O166 O 0.83312 0.18105 0.11867 0.0
O167 O 0.76156 0.15424 0.30361 0.0
O168 O 0.83238 0.17917 0.26398 0.0
O169 O 0.67656 0.2052 0.2393 0.0
O170 O 0.73333 0.17391 0.17196 0.0
O171 O 0.68883 0.1879 0.38875 0.0
O172 O 0.69705 0.2657 0.39483 0.0
C173 C 0.82838 0.27808 0.31491 0.0
O174 O 0.73345 0.27321 0.16278 0.0
O175 O 0.71326 0.29649 0.26355 0.0
C176 C 0.82969 0.21769 1.01672 0.0
C177 C 0.80081 0.21763 0.88648 0.0
C178 C 0.76667 0.22602 0.93369 0.0
C179 C 0.78101 0.22617 0.99816 0.0
C180 C 0.86374 0.20806 0.97008 0.0
C181 C 0.84939 0.20791 0.90535 0.0
C182 C 0.84455 0.21896 0.08466 0.0
C183 C 0.8085 0.14949 0.30024 0.0
C184 C 0.68832 0.17864 0.19049 0.0
C185 C 0.70124 0.22118 0.49092 0.0
C186 C 0.7351 0.21879 0.61926 0.0
C187 C 0.76715 0.20987 0.56973 0.0
C188 C 0.75036 0.2112 0.506 0.0
C189 C 0.66899 0.22877 0.54017 0.0
C190 C 0.68572 0.22741 0.60385 0.0
C191 C 0.68399 0.22619 0.42406 0.0
H192 H 0.72878 0.23237 0.92076 0.0
H193 H 0.75411 0.23313 1.03362 0.0
H194 H 0.90142 0.20107 0.98367 0.0
H195 H 0.87639 0.20113 0.86998 0.0
H196 H 0.80534 0.20309 0.58022 0.0
H197 H 0.77581 0.20525 0.46844 0.0
H198 H 0.63098 0.23639 0.52936 0.0
H199 H 0.66003 0.23333 0.64109 0.0
Dy200 Dy 0.7033 0.74513 0.72529 0.0
Dy201 Dy 0.77188 0.73179 0.85928 0.0
C202 C 0.79232 0.66932 0.73553 0.0
O203 O 0.65607 0.70924 0.79635 0.0
O204 O 0.71666 0.67394 0.8594 0.0
O205 O 0.657 0.71482 0.6512 0.0
O206 O 0.67597 0.7907 0.64728 0.0
O207 O 0.70573 0.77359 0.88378 0.0
O208 O 0.68563 0.80838 0.78645 0.0
O209 O 0.80112 0.79486 0.80567 0.0
O210 O 0.77636 0.77364 0.70466 0.0
O211 O 0.80942 0.76504 0.93898 0.0
O212 O 0.80672 0.68686 0.93329 0.0
C213 C 0.67089 0.67813 0.84117 0.0
O214 O 0.74771 0.67801 0.71467 0.0
O215 O 0.81195 0.69128 0.78516 0.0
C216 C 0.67216 0.74877 0.55017 0.0
C217 C 0.7018 0.73783 0.42322 0.0
C218 C 0.73618 0.73799 0.47419 0.0
C219 C 0.7215 0.74333 0.53704 0.0
C220 C 0.6377 0.74872 0.49963 0.0
C221 C 0.65237 0.7434 0.43663 0.0
C222 C 0.65689 0.75445 0.61647 0.0
C223 C 0.68362 0.80754 0.84901 0.0
C224 C 0.80411 0.79879 0.74346 0.0
C225 C 0.80017 0.72182 1.03497 0.0
C226 C 0.7673 0.7229 0.16135 0.0
C227 C 0.73405 0.72448 0.10905 0.0
C228 C 0.75034 0.72377 0.04648 0.0
C229 C 0.83347 0.72 0.08682 0.0
C230 C 0.81721 0.72055 0.14949 0.0
C231 C 0.81728 0.72386 0.96908 0.0
H232 H 0.77447 0.73363 0.46547 0.0
H233 H 0.74866 0.74334 0.57547 0.0
H234 H 0.59948 0.75306 0.50883 0.0
H235 H 0.62509 0.74438 0.39833 0.0
H236 H 0.69547 0.7274 0.11643 0.0
H237 H 0.72405 0.72553 1.00701 0.0
H238 H 0.87206 0.71864 0.07886 0.0
H239 H 0.84369 0.71916 0.18874 0.0
Dy240 Dy 0.48953 0.52019 0.10685 0.0
Dy241 Dy 0.49113 0.45125 0.97665 0.0
C242 C 0.56729 0.43647 0.0916 0.0
O243 O 0.54482 0.5513 0.04257 0.0
O244 O 0.51311 0.52524 0.94674 0.0
O245 O 0.52863 0.55515 0.18401 0.0
O246 O 0.45025 0.55952 0.17786 0.0
O247 O 0.42153 0.49233 0.97291 0.0
O248 O 0.44181 0.55833 1.03393 0.0
O249 O 0.46363 0.40321 0.05409 0.0
O250 O 0.43421 0.46314 0.11843 0.0
O251 O 0.45525 0.40814 0.9041 0.0
O252 O 0.53237 0.42008 0.90114 0.0
C253 C 0.54117 0.55415 0.97989 0.0
O254 O 0.53565 0.45523 0.12991 0.0
O255 O 0.56171 0.44101 1.02953 0.0
C256 C 0.4871 0.55125 0.28026 0.0
C257 C 0.48311 0.52052 0.40905 0.0
C258 C 0.48541 0.48638 0.35988 0.0
C259 C 0.48727 0.5016 0.29608 0.0
C260 C 0.48499 0.58547 0.32901 0.0
C261 C 0.48306 0.57027 0.39293 0.0
C262 C 0.48916 0.56714 0.21305 0.0
C263 C 0.41471 0.53738 0.98994 0.0
C264 C 0.43672 0.41754 0.10131 0.0
C265 C 0.48875 0.42117 0.80325 0.0
C266 C 0.48254 0.45366 0.67482 0.0
C267 C 0.48187 0.48705 0.72498 0.0
C268 C 0.4848 0.47093 0.78853 0.0
C269 C 0.48927 0.38767 0.75356 0.0
C270 C 0.48624 0.40377 0.68983 0.0
C271 C 0.49399 0.40465 0.87027 0.0
H272 H 0.48535 0.44786 0.37077 0.0
H273 H 0.48885 0.47462 0.25901 0.0
H274 H 0.48504 0.62393 0.31767 0.0
H275 H 0.48226 0.59741 0.4298 0.0
H276 H 0.48015 0.52571 0.71513 0.0
H277 H 0.48473 0.49735 0.82627 0.0
H278 H 0.49242 0.34914 0.76401 0.0
H279 H 0.48676 0.37719 0.65223 0.0
Dy280 Dy 0.97321 0.52501 0.45963 0.0
Dy281 Dy 0.98568 0.45681 0.59252 0.0
C282 C 0.92752 0.41987 0.4701 0.0
O283 O 0.93115 0.56369 0.53339 0.0
O284 O 0.91541 0.49735 0.59647 0.0
O285 O 0.92778 0.55921 0.38554 0.0
O286 O 0.00586 0.56428 0.3826 0.0
O287 O 0.00885 0.53088 0.61766 0.0
O288 O 0.03299 0.55677 0.51938 0.0
O289 O 0.05196 0.44432 0.53583 0.0
O290 O 0.02024 0.46206 0.43584 0.0
O291 O 0.0315 0.42893 0.67013 0.0
O292 O 0.95516 0.41154 0.66597 0.0
C293 C 0.90807 0.54309 0.58031 0.0
O294 O 0.91964 0.46548 0.45367 0.0
O295 O 0.95766 0.40731 0.51732 0.0
C296 C 0.96356 0.55418 0.28498 0.0
C297 C 0.96794 0.52075 0.15834 0.0
C298 C 0.96233 0.48791 0.20946 0.0
C299 C 0.96062 0.50444 0.27218 0.0
C300 C 0.96791 0.58723 0.23419 0.0
C301 C 0.97004 0.57069 0.17137 0.0
C302 C 0.96466 0.5711 0.35139 0.0
C303 C 0.03351 0.56016 0.58187 0.0
C304 C 0.05347 0.4412 0.47339 0.0
C305 C -0.00879 0.42611 0.76752 0.0
C306 C 0.98344 0.45529 0.89553 0.0
C307 C -0.00647 0.48937 0.84748 0.0
C308 C -0.00256 0.47491 0.7841 0.0
C309 C 0.98085 0.39204 0.81523 0.0
C310 C 0.977 0.40649 0.87876 0.0
C311 C -0.00471 0.41083 0.70067 0.0
H312 H 0.95938 0.44937 0.20106 0.0
H313 H 0.95761 0.47833 0.31086 0.0
H314 H 0.97051 0.62573 0.2432 0.0
H315 H 0.97446 0.5969 0.13311 0.0
H316 H -0.00127 0.52717 0.85904 0.0
H317 H 0.00524 0.5019 0.74799 0.0
H318 H 0.97568 0.35429 0.80336 0.0
H319 H 0.96854 0.37959 0.91471 0.0
C320 C 0.07092 0.09906 0.39535 0.0
C321 C 0.06739 0.10467 0.46199 0.0
C322 C 0.10307 0.12673 0.35995 0.0
C323 C 0.1331 0.16063 0.38999 0.0
H324 H 0.04961 0.0722 0.37027 0.0
H325 H 0.10568 0.12031 0.30926 0.0
S326 S 0.13256 0.19567 0.56006 0.0
N327 N 0.09299 0.15143 0.55459 0.0
N328 N 0.15377 0.20284 0.48779 0.0
C329 C 0.12845 0.16849 0.45558 0.0
C330 C 0.09548 0.14067 0.49167 0.0
C331 C 0.11767 0.8852 0.60166 0.0
C332 C 0.09764 0.92217 0.63867 0.0
C333 C 0.15 0.85076 0.62882 0.0
C334 C 0.1636 0.85195 0.69405 0.0
H335 H 0.10695 0.88154 0.55181 0.0
H336 H 0.16301 0.82203 0.59868 0.0
S337 S 0.1268 0.94564 0.80966 0.0
N338 N 0.09765 0.96109 0.74236 0.0
N339 N 0.15841 0.89627 0.79354 0.0
C340 C 0.14604 0.8904 0.73083 0.0
C341 C 0.11306 0.92552 0.7031 0.0
C342 C 0.35469 0.86066 0.84692 0.0
C343 C 0.34352 0.8151 0.87257 0.0
C344 C 0.38101 0.89399 0.88303 0.0
C345 C 0.39768 0.88266 0.94571 0.0
H346 H 0.34134 0.87151 0.79962 0.0
H347 H 0.38798 0.9291 0.86165 0.0
S348 S 0.38208 0.76602 1.03221 0.0
N349 N 0.35383 0.75868 0.96246 0.0
N350 N 0.40401 0.82145 1.03033 0.0
C351 C 0.38882 0.8363 0.97084 0.0
C352 C 0.36146 0.80248 0.93425 0.0
C353 C 0.38316 0.07123 0.1943 0.0
C354 C 0.37856 0.07373 0.12725 0.0
C355 C 0.35425 0.10033 0.23259 0.0
C356 C 0.31866 0.13156 0.20503 0.0
H357 H 0.41011 0.04746 0.21733 0.0
H358 H 0.35963 0.09824 0.284 0.0
S359 S 0.29119 0.15018 1.03186 0.0
N360 N 0.3359 0.10966 1.0349 0.0
N361 N 0.27993 0.16304 0.10674 0.0
C362 C 0.31299 0.13363 0.13802 0.0
C363 C 0.34343 0.10506 0.09909 0.0
C364 C 0.88367 0.85953 0.62253 0.0
C365 C 0.90256 0.89919 0.65605 0.0
C366 C 0.8524 0.82698 0.65156 0.0
C367 C 0.83941 0.83239 0.71558 0.0
H368 H 0.89187 0.85434 0.57284 0.0
H369 H 0.83806 0.79753 0.62328 0.0
S370 S 0.88242 0.9283 0.82571 0.0
N371 N 0.90829 0.94079 0.75758 0.0
N372 N 0.84998 0.87936 0.81255 0.0
C373 C 0.85951 0.87097 0.75037 0.0
C374 C 0.8909 0.90447 0.72048 0.0
C375 C 0.90029 0.11967 0.43176 0.0
C376 C 0.87938 0.08006 0.46277 0.0
C377 C 0.87837 0.14019 0.37672 0.0
C378 C 0.83433 0.1224 0.35177 0.0
H379 H 0.93454 0.13407 0.44899 0.0
H380 H 0.89544 0.17105 0.35469 0.0
S381 S 0.76514 0.01926 0.41572 0.0
N382 N 0.81296 0.02322 0.46464 0.0
N383 N 0.77067 0.06295 0.36187 0.0
C384 C 0.81298 0.08292 0.38252 0.0
C385 C 0.83577 0.06149 0.43796 0.0
C386 C 0.60967 0.13614 0.19287 0.0
C387 C 0.65004 0.15048 0.15841 0.0
C388 C 0.57425 0.10667 0.16534 0.0
C389 C 0.5775 0.09103 0.10203 0.0
H390 H 0.60602 0.14655 0.24219 0.0
H391 H 0.54431 0.09574 0.19425 0.0
S392 S 0.6744 0.12179 0.98988 0.0
N393 N 0.69022 0.14913 0.05681 0.0
N394 N 0.62325 0.09396 1.00447 0.0
C395 C 0.61684 0.10655 0.06619 0.0
C396 C 0.65328 0.13615 0.09459 0.0
C397 C 0.61577 0.86876 0.84624 0.0
C398 C 0.65262 0.84343 0.88114 0.0
C399 C 0.58359 0.90002 0.87652 0.0
C400 C 0.58705 0.90743 0.9429 0.0
H401 H 0.6108 0.86345 0.79538 0.0
H402 H 0.55518 0.91775 0.84751 0.0
S403 S 0.68046 0.85319 0.05506 0.0
N404 N 0.69302 0.83041 0.98499 0.0
N405 N 0.63269 0.88902 0.04193 0.0
C406 C 0.62495 0.88364 0.97804 0.0
C407 C 0.65764 0.8517 0.94715 0.0
C408 C 0.61623 0.60265 0.97215 0.0
C409 C 0.57147 0.58875 0.94509 0.0
C410 C 0.64779 0.63166 0.93798 0.0
C411 C 0.63559 0.64854 0.87569 0.0
H412 H 0.62771 0.58987 1.01942 0.0
H413 H 0.68216 0.64085 0.96078 0.0
S414 S 0.52074 0.62554 0.78522 0.0
N415 N 0.51514 0.59608 0.85364 0.0
N416 N 0.57444 0.65119 0.78958 0.0
C417 C 0.59015 0.63639 0.84887 0.0
C418 C 0.55815 0.60627 0.88348 0.0
C419 C 0.64534 0.36451 0.21152 0.0
C420 C 0.67948 0.34151 0.17324 0.0
C421 C 0.61027 0.39641 0.1849 0.0
C422 C 0.60797 0.40665 0.11892 0.0
H423 H 0.64435 0.35653 0.26221 0.0
H424 H 0.58387 0.4119 0.21626 0.0
S425 S 0.69326 0.36084 0.99898 0.0
N426 N 0.71195 0.33485 0.06688 0.0
N427 N 0.64596 0.3948 1.0167 0.0
C428 C 0.6436 0.38601 0.08052 0.0
C429 C 0.67937 0.35345 0.10771 0.0
C430 C 0.88649 0.39403 0.36879 0.0
C431 C 0.90431 0.38206 0.43085 0.0
C432 C 0.86451 0.35931 0.32987 0.0
C433 C 0.85876 0.3116 0.35205 0.0
H434 H 0.88919 0.43062 0.34998 0.0
H435 H 0.85012 0.37051 0.2832 0.0
S436 S 0.9012 0.26064 0.50918 0.0
N437 N 0.91676 0.31823 0.51132 0.0
N438 N 0.87449 0.25317 0.43851 0.0
C439 C 0.87741 0.29869 0.41328 0.0
C440 C 0.90042 0.33387 0.45263 0.0
C441 C 0.82437 0.64448 0.63147 0.0
C442 C 0.82199 0.63651 0.69768 0.0
C443 C 0.85202 0.61386 0.59359 0.0
C444 C 0.87698 0.57338 0.62043 0.0
H445 H 0.80535 0.67512 0.60895 0.0
H446 H 0.85366 0.6218 0.54294 0.0
S447 S 0.88061 0.53623 0.79164 0.0
N448 N 0.8462 0.58575 0.78873 0.0
N449 N 0.897 0.52679 0.71762 0.0
C450 C 0.8741 0.56463 0.68667 0.0
C451 C 0.84694 0.59664 0.72536 0.0
C452 C 0.36381 0.36265 0.23391 0.0
C453 C 0.34661 0.31954 0.20715 0.0
C454 C 0.3937 0.39347 0.19958 0.0
C455 C 0.40808 0.38208 0.13747 0.0
H456 H 0.35272 0.37363 0.28077 0.0
H457 H 0.40512 0.42687 0.22179 0.0
S458 S 0.37675 0.27076 0.04843 0.0
N459 N 0.34891 0.26503 0.11664 0.0
N460 N 0.40527 0.32294 0.05235 0.0
C461 C 0.393 0.33791 0.11132 0.0
C462 C 0.36216 0.30669 0.14607 0.0
C463 C 0.38372 0.56607 0.88407 0.0
C464 C 0.38056 0.56686 0.95088 0.0
C465 C 0.35346 0.59564 0.84503 0.0
C466 C 0.31817 0.6256 0.87169 0.0
H467 H 0.41071 0.54346 0.86196 0.0
H468 H 0.35772 0.59513 0.79381 0.0
S469 S 0.29503 0.63959 0.04409 0.0
N470 N 0.34013 0.59967 0.04222 0.0
N471 N 0.28144 0.65411 0.96885 0.0
C472 C 0.31399 0.62585 0.93848 0.0
C473 C 0.34578 0.59676 0.9782 0.0
C474 C 0.14132 0.63812 0.62028 0.0
C475 C 0.13141 0.6553 0.68159 0.0
C476 C 0.10829 0.60924 0.5868 0.0
C477 C 0.06452 0.59594 0.61388 0.0
H478 H 0.17521 0.64643 0.59814 0.0
H479 H 0.11806 0.59565 0.54058 0.0
S480 S 0.01919 0.63452 0.7705 0.0
N481 N 0.07306 0.65946 0.7662 0.0
N482 N 0.01101 0.60477 0.70327 0.0
C483 C 0.05317 0.61433 0.67401 0.0
C484 C 0.08661 0.64419 0.70787 0.0
C485 C 0.12484 0.37524 0.3479 0.0
C486 C 0.15835 0.34671 0.38438 0.0
C487 C 0.09209 0.40653 0.37715 0.0
C488 C 0.09142 0.41074 0.44408 0.0
H489 H 0.12293 0.37258 0.29644 0.0
H490 H 0.06638 0.42685 0.34666 0.0
S491 S 0.17427 0.34667 0.56141 0.0
N492 N 0.19081 0.32689 0.49131 0.0
N493 N 0.12919 0.38542 0.54591 0.0
C494 C 0.1259 0.38369 0.48114 0.0
C495 C 0.15929 0.3518 0.45134 0.0
C496 C 0.93966 0.0403 1.03479 0.0
C497 C 0.97895 0.02896 0.99608 0.0
C498 C 0.93884 0.02418 0.09866 0.0
C499 C 0.97725 -0.00391 0.12621 0.0
H500 H 0.90886 0.06094 1.01519 0.0
H501 H 0.90745 0.03296 0.1263 0.0
S502 S 0.09109 0.96153 0.0476 0.0
N503 N 0.05896 -0.00866 0.99165 0.0
N504 N 0.05736 0.96108 0.1113 0.0
C505 C 0.01734 0.98577 0.08856 0.0
C506 C 0.0182 0.00218 1.02368 0.0
C507 C 0.27811 0.70619 0.29474 0.0
C508 C 0.25435 0.73269 0.34183 0.0
C509 C 0.26217 0.70857 0.23048 0.0
C510 C 0.22176 0.7374 0.21091 0.0
H511 H 0.30892 0.68295 0.30775 0.0
H512 H 0.28127 0.68722 0.19594 0.0
S513 S 0.14962 0.81721 0.31416 0.0
N514 N 0.19025 0.79114 0.36347 0.0
N515 N 0.16011 0.79513 0.24295 0.0
C516 C 0.19812 0.7646 0.25725 0.0
C517 C 0.21444 0.76237 0.32258 0.0
C518 C 0.4918 0.02646 0.55366 0.0
C519 C 0.46093 0.00204 0.59507 0.0
C520 C 0.49763 0.01105 0.49081 0.0
C521 C 0.47278 0.97062 0.46674 0.0
H522 H 0.51232 0.05729 0.57031 0.0
H523 H 0.5224 0.03059 0.46109 0.0
S524 S 0.38468 0.8964 0.55415 0.0
N525 N 0.40332 0.93685 0.60658 0.0
N526 N 0.41408 0.90801 0.48836 0.0
C527 C 0.44124 0.94626 0.50735 0.0
C528 C 0.43536 0.96193 0.57145 0.0
C529 C 0.20218 0.24253 0.80984 0.0
C530 C 0.23408 0.23553 0.86306 0.0
C531 C 0.21851 0.23926 0.74719 0.0
C532 C 0.26746 0.22891 0.73509 0.0
H533 H 0.16435 0.25144 0.81661 0.0
H534 H 0.19272 0.2457 0.70784 0.0
S535 S 0.36492 0.20296 0.85721 0.0
N536 N 0.31653 0.21475 0.89905 0.0
N537 N 0.34706 0.20869 0.7815 0.0
C538 C 0.29959 0.22096 0.78772 0.0
C539 C 0.28298 0.22425 0.85154 0.0
C540 C 0.79852 0.18162 0.77683 0.0
C541 C 0.78556 0.21943 0.8178 0.0
C542 C 0.78259 0.18186 0.71248 0.0
C543 C 0.75313 0.2199 0.68684 0.0
H544 H 0.82024 0.15113 0.79498 0.0
H545 H 0.79255 0.15156 0.68295 0.0
S546 S 0.71431 0.33034 0.77203 0.0
N547 N 0.74512 0.29787 0.82664 0.0
N548 N 0.71525 0.29829 0.70605 0.0
C549 C 0.74132 0.25863 0.72681 0.0
C550 C 0.7575 0.2584 0.79214 0.0
C551 C 0.75587 0.76156 0.33421 0.0
C552 C 0.71782 0.73298 0.35628 0.0
C553 C 0.7717 0.75786 0.27143 0.0
C554 C 0.75017 0.72539 0.22806 0.0
H555 H 0.77318 0.78754 0.3655 0.0
H556 H 0.80059 0.7812 0.25645 0.0
S557 S 0.6518 0.63959 0.26345 0.0
N558 N 0.66067 0.66929 0.33065 0.0
N559 N 0.69043 0.66227 0.21279 0.0
C560 C 0.7125 0.69612 0.24973 0.0
C561 C 0.69635 0.69992 0.31371 0.0
C562 C 0.51475 0.45214 0.56416 0.0
C563 C 0.4812 0.47085 0.60705 0.0
C564 C 0.51503 0.46836 0.50042 0.0
C565 C 0.48181 0.50401 0.47695 0.0
H566 H 0.54158 0.42525 0.58022 0.0
H567 H 0.54197 0.45333 0.46947 0.0
S568 S 0.38409 0.56206 0.56827 0.0
N569 N 0.41221 0.52523 0.62052 0.0
N570 N 0.41284 0.55577 0.50086 0.0
C571 C 0.44766 0.52262 0.51907 0.0
C572 C 0.44732 0.50605 0.58399 0.0
C573 C 0.94942 0.51044 0.97793 0.0
C574 C 0.97959 0.47087 0.96291 0.0
C575 C 0.94567 0.52615 0.04109 0.0
C576 C 0.97214 0.50306 0.09171 0.0
H577 H 0.9282 0.52915 0.9406 0.0
H578 H 0.92151 0.55637 0.05041 0.0
S579 S 0.05944 0.40033 0.0767 0.0
N580 N 0.03812 0.41044 1.00316 0.0
N581 N 0.03177 0.44026 0.12158 0.0
C582 C 0.00297 0.46384 0.07707 0.0
C583 C 0.00652 0.4477 1.01282 0.0
loop_
_geom_bond_atom_site_label_1
_geom_bond_atom_site_label_2
_geom_bond_distance
_geom_bond_site_symmetry_2
_ccdc_geom_bond_type
Dy0 O3 2.307 . S
Dy0 O5 2.395 . S
Dy0 O6 2.379 1_455 S
Dy0 O8 2.339 1_455 S
Dy0 O10 2.298 1_445 S
Dy0 O14 2.275 1_545 S
Dy0 C22 2.738 1_455 S
Dy1 O4 2.298 1_665 S
Dy1 O7 2.275 1_565 S
Dy1 O9 2.307 . S
Dy1 O11 2.395 . S
Dy1 O12 2.379 1_655 S
Dy1 O15 2.339 1_655 S
Dy1 C31 2.738 1_655 S
C2 O14 1.254 . S
C2 O15 1.257 . S
O3 Dy0 2.307 . S
O3 C13 1.266 . S
O4 Dy1 2.298 1_445 S
O4 C13 1.236 . S
O5 Dy0 2.395 . S
O5 C22 1.255 1_455 S
O6 Dy0 2.379 1_655 S
O6 C22 1.249 . S
O7 Dy1 2.275 1_545 S
O7 C23 1.254 . S
O8 Dy0 2.339 1_655 S
O8 C23 1.257 . S
O9 Dy1 2.307 . S
O9 C24 1.266 . S
O10 Dy0 2.298 1_665 S
O10 C24 1.236 . S
O11 Dy1 2.395 . S
O11 C31 1.255 1_655 S
O12 Dy1 2.379 1_455 S
O12 C31 1.249 . S
C13 O3 1.266 . S
C13 O4 1.236 . S
O14 Dy0 2.275 1_565 S
O14 C2 1.254 . S
O15 Dy1 2.339 1_455 S
O15 C2 1.257 . S
C16 C19 1.344 . S
C16 C20 1.328 . S
C16 C22 1.516 . S
C17 C18 1.304 . S
C17 C21 1.323 . S
C18 C17 1.304 . S
C18 C19 1.371 . S
C18 H32 0.930 1_645 S
C19 C16 1.344 . S
C19 C18 1.371 . S
C19 H33 0.931 1_645 S
C20 C16 1.328 . S
C20 C21 1.433 . S
C20 H34 0.931 . S
C21 C17 1.323 . S
C21 C20 1.433 . S
C21 H35 0.933 . S
C22 Dy0 2.738 1_655 S
C22 O5 1.255 1_655 S
C22 O6 1.249 . S
C22 C16 1.516 . S
C23 O7 1.254 . S
C23 O8 1.257 . S
C24 O9 1.266 . S
C24 O10 1.236 . S
C25 C28 1.344 . S
C25 C29 1.328 . S
C25 C31 1.516 . S
C26 C27 1.304 . S
C26 C30 1.323 . S
C27 C26 1.304 . S
C27 C28 1.371 . S
C27 H36 0.930 1_465 S
C28 C25 1.344 . S
C28 C27 1.371 . S
C28 H37 0.931 1_465 S
C29 C25 1.328 . S
C29 C30 1.433 . S
C29 H38 0.931 . S
C30 C26 1.323 . S
C30 C29 1.433 . S
C30 H39 0.933 . S
C31 Dy1 2.738 1_455 S
C31 O11 1.255 1_455 S
C31 O12 1.249 . S
C31 C25 1.516 . S
H32 C18 0.930 1_465 S
H33 C19 0.931 1_465 S
H34 C20 0.931 . S
H35 C21 0.933 . S
H36 C27 0.930 1_645 S
H37 C28 0.931 1_645 S
H38 C29 0.931 . S
H39 C30 0.933 . S
Dy40 O43 2.307 . S
Dy40 O45 2.395 . S
Dy40 O46 2.379 . S
Dy40 O48 2.339 . S
Dy40 O50 2.298 . S
Dy40 O54 2.275 . S
Dy40 C62 2.738 . S
Dy41 O44 2.298 . S
Dy41 O47 2.275 . S
Dy41 O49 2.307 . S
Dy41 O51 2.395 . S
Dy41 O52 2.379 . S
Dy41 O55 2.339 . S
Dy41 C71 2.738 . S
C42 O54 1.254 . S
C42 O55 1.257 . S
O43 Dy40 2.307 . S
O43 C53 1.266 . S
O44 Dy41 2.298 . S
O44 C53 1.236 . S
O45 Dy40 2.395 . S
O45 C62 1.255 . S
O46 Dy40 2.379 . S
O46 C62 1.249 . S
O47 Dy41 2.275 . S
O47 C63 1.254 . S
O48 Dy40 2.339 . S
O48 C63 1.257 . S
O49 Dy41 2.307 . S
O49 C64 1.266 . S
O50 Dy40 2.298 . S
O50 C64 1.236 . S
O51 Dy41 2.395 . S
O51 C71 1.255 . S
O52 Dy41 2.379 . S
O52 C71 1.249 . S
C53 O43 1.266 . S
C53 O44 1.236 . S
O54 Dy40 2.275 . S
O54 C42 1.254 . S
O55 Dy41 2.339 . S
O55 C42 1.257 . S
C56 C59 1.344 . S
C56 C60 1.328 . S
C56 C62 1.516 . S
C57 C58 1.304 . S
C57 C61 1.323 . S
C58 C57 1.304 . S
C58 C59 1.371 . S
C58 H72 0.930 . S
C59 C56 1.344 . S
C59 C58 1.371 . S
C59 H73 0.931 . S
C60 C56 1.328 . S
C60 C61 1.433 . S
C60 H74 0.931 . S
C61 C57 1.323 . S
C61 C60 1.433 . S
C61 H75 0.933 . S
C62 Dy40 2.738 . S
C62 O45 1.255 . S
C62 O46 1.249 . S
C62 C56 1.516 . S
C63 O47 1.254 . S
C63 O48 1.257 . S
C64 O49 1.266 . S
C64 O50 1.236 . S
C65 C68 1.344 . S
C65 C69 1.328 . S
C65 C71 1.516 1_554 S
C66 C67 1.304 . S
C66 C70 1.323 . S
C67 C66 1.304 . S
C67 C68 1.371 . S
C67 H76 0.930 . S
C68 C65 1.344 . S
C68 C67 1.371 . S
C68 H77 0.931 . S
C69 C65 1.328 . S
C69 C70 1.433 . S
C69 H78 0.938 . S
C70 C66 1.323 . S
C70 C69 1.433 . S
C70 H79 0.933 . S
C71 Dy41 2.738 . S
C71 O51 1.255 . S
C71 O52 1.249 . S
C71 C65 1.516 1_556 S
H72 C58 0.930 . S
H73 C59 0.931 . S
H74 C60 0.931 . S
H75 C61 0.933 . S
H76 C67 0.930 . S
H77 C68 0.931 . S
H78 C69 0.938 . S
H79 C70 0.933 . S
Dy80 O83 2.307 1_556 S
Dy80 O85 2.395 . S
Dy80 O86 2.379 . S
Dy80 O88 2.339 . S
Dy80 O90 2.298 1_545 S
Dy80 O94 2.275 1_545 S
Dy80 C102 2.738 . S
Dy81 O84 2.298 1_565 S
Dy81 O87 2.275 1_565 S
Dy81 O89 2.307 1_554 S
Dy81 O91 2.395 . S
Dy81 O92 2.379 . S
Dy81 O95 2.339 . S
Dy81 C111 2.738 . S
C82 O94 1.254 . S
C82 O95 1.257 1_556 S
O83 Dy80 2.307 1_554 S
O83 C93 1.266 . S
O84 Dy81 2.298 1_545 S
O84 C93 1.236 . S
O85 Dy80 2.395 . S
O85 C102 1.255 . S
O86 Dy80 2.379 . S
O86 C102 1.249 . S
O87 Dy81 2.275 1_545 S
O87 C103 1.254 . S
O88 Dy80 2.339 . S
O88 C103 1.257 1_556 S
O89 Dy81 2.307 1_556 S
O89 C104 1.266 . S
O90 Dy80 2.298 1_565 S
O90 C104 1.236 . S
O91 Dy81 2.395 . S
O91 C111 1.255 . S
O92 Dy81 2.379 . S
O92 C111 1.249 . S
C93 O83 1.266 . S
C93 O84 1.236 . S
O94 Dy80 2.275 1_565 S
O94 C82 1.254 . S
O95 Dy81 2.339 . S
O95 C82 1.257 1_554 S
C96 C99 1.344 . S
C96 C100 1.328 . S
C96 C102 1.516 . S
C97 C98 1.304 . S
C97 C101 1.323 . S
C98 C97 1.304 . S
C98 C99 1.371 . S
C98 H112 0.930 1_545 S
C99 C96 1.344 . S
C99 C98 1.371 . S
C99 H113 0.931 1_545 S
C100 C96 1.328 . S
C100 C101 1.433 . S
C100 H114 0.931 . S
C101 C97 1.323 . S
C101 C100 1.433 . S
C101 H115 0.933 . S
C102 Dy80 2.738 . S
C102 O85 1.255 . S
C102 O86 1.249 . S
C102 C96 1.516 . S
C103 O87 1.254 . S
C103 O88 1.257 1_554 S
C104 O89 1.266 . S
C104 O90 1.236 . S
C105 C108 1.344 . S
C105 C109 1.328 . S
C105 C111 1.516 . S
C106 C107 1.304 . S
C106 C110 1.323 . S
C107 C106 1.304 . S
C107 C108 1.371 . S
C107 H116 0.930 1_565 S
C108 C105 1.344 . S
C108 C107 1.371 . S
C108 H117 0.931 1_565 S
C109 C105 1.328 . S
C109 C110 1.433 . S
C109 H118 0.931 . S
C110 C106 1.323 . S
C110 C109 1.433 . S
C110 H119 0.933 . S
C111 Dy81 2.738 . S
C111 O91 1.255 . S
C111 O92 1.249 . S
C111 C105 1.516 . S
H112 C98 0.930 1_565 S
H113 C99 0.931 1_565 S
H114 C100 0.931 . S
H115 C101 0.933 . S
H116 C107 0.930 1_545 S
H117 C108 0.931 1_545 S
H118 C109 0.931 . S
H119 C110 0.933 . S
Dy120 O123 2.307 . S
Dy120 O125 2.395 . S
Dy120 O126 2.379 . S
Dy120 O128 2.339 . S
Dy120 O130 2.298 . S
Dy120 O134 2.275 . S
Dy120 C142 2.738 . S
Dy121 O124 2.298 . S
Dy121 O127 2.275 . S
Dy121 O129 2.307 . S
Dy121 O131 2.395 . S
Dy121 O132 2.379 . S
Dy121 O135 2.339 . S
Dy121 C151 2.738 . S
C122 O134 1.254 . S
C122 O135 1.257 . S
O123 Dy120 2.307 . S
O123 C133 1.266 . S
O124 Dy121 2.298 . S
O124 C133 1.236 . S
O125 Dy120 2.395 . S
O125 C142 1.255 . S
O126 Dy120 2.379 . S
O126 C142 1.249 . S
O127 Dy121 2.275 . S
O127 C143 1.254 . S
O128 Dy120 2.339 . S
O128 C143 1.257 . S
O129 Dy121 2.307 . S
O129 C144 1.266 . S
O130 Dy120 2.298 . S
O130 C144 1.236 . S
O131 Dy121 2.395 . S
O131 C151 1.255 . S
O132 Dy121 2.379 . S
O132 C151 1.249 . S
C133 O123 1.266 . S
C133 O124 1.236 . S
O134 Dy120 2.275 . S
O134 C122 1.254 . S
O135 Dy121 2.339 . S
O135 C122 1.257 . S
C136 C139 1.344 . S
C136 C140 1.328 . S
C136 C142 1.516 1_556 S
C137 C138 1.304 . S
C137 C141 1.323 . S
C138 C137 1.304 . S
C138 C139 1.371 . S
C138 H152 0.930 . S
C139 C136 1.344 . S
C139 C138 1.371 . S
C139 H153 0.931 . S
C140 C136 1.328 . S
C140 C141 1.433 . S
C140 H154 0.931 . S
C141 C137 1.323 . S
C141 C140 1.433 . S
C141 H155 0.933 . S
C142 Dy120 2.738 . S
C142 O125 1.255 . S
C142 O126 1.249 . S
C142 C136 1.516 1_554 S
C143 O127 1.254 . S
C143 O128 1.257 . S
C144 O129 1.266 . S
C144 O130 1.236 . S
C145 C148 1.344 . S
C145 C149 1.328 . S
C145 C151 1.516 . S
C146 C147 1.304 . S
C146 C150 1.323 . S
C147 C146 1.304 . S
C147 C148 1.371 . S
C147 H156 0.930 . S
C148 C145 1.344 . S
C148 C147 1.371 . S
C148 H157 0.931 . S
C149 C145 1.328 . S
C149 C150 1.433 . S
C149 H158 0.931 . S
C150 C146 1.323 . S
C150 C149 1.433 . S
C150 H159 0.933 . S
C151 Dy121 2.738 . S
C151 O131 1.255 . S
C151 O132 1.249 . S
C151 C145 1.516 . S
H152 C138 0.930 . S
H153 C139 0.931 . S
H154 C140 0.931 . S
H155 C141 0.933 . S
H156 C147 0.930 . S
H157 C148 0.931 . S
H158 C149 0.931 . S
H159 C150 0.933 . S
Dy160 O163 2.307 . S
Dy160 O165 2.395 . S
Dy160 O166 2.379 . S
Dy160 O168 2.339 . S
Dy160 O170 2.298 . S
Dy160 O174 2.275 . S
Dy160 C182 2.738 . S
Dy161 O164 2.298 . S
Dy161 O167 2.275 . S
Dy161 O169 2.307 . S
Dy161 O171 2.395 . S
Dy161 O172 2.379 . S
Dy161 O175 2.339 . S
Dy161 C191 2.738 . S
C162 O174 1.254 . S
C162 O175 1.257 . S
O163 Dy160 2.307 . S
O163 C173 1.266 . S
O164 Dy161 2.298 . S
O164 C173 1.236 . S
O165 Dy160 2.395 . S
O165 C182 1.255 . S
O166 Dy160 2.379 . S
O166 C182 1.249 . S
O167 Dy161 2.275 . S
O167 C183 1.254 . S
O168 Dy160 2.339 . S
O168 C183 1.257 . S
O169 Dy161 2.307 . S
O169 C184 1.266 . S
O170 Dy160 2.298 . S
O170 C184 1.236 . S
O171 Dy161 2.395 . S
O171 C191 1.255 . S
O172 Dy161 2.379 . S
O172 C191 1.249 . S
C173 O163 1.266 . S
C173 O164 1.236 . S
O174 Dy160 2.275 . S
O174 C162 1.254 . S
O175 Dy161 2.339 . S
O175 C162 1.257 . S
C176 C179 1.344 . S
C176 C180 1.328 . S
C176 C182 1.516 1_556 S
C177 C178 1.304 . S
C177 C181 1.323 . S
C178 C177 1.304 . S
C178 C179 1.371 . S
C178 H192 0.930 . S
C179 C176 1.344 . S
C179 C178 1.371 . S
C179 H193 0.931 . S
C180 C176 1.328 . S
C180 C181 1.433 . S
C180 H194 0.936 . S
C181 C177 1.323 . S
C181 C180 1.433 . S
C181 H195 0.933 . S
C182 Dy160 2.738 . S
C182 O165 1.255 . S
C182 O166 1.249 . S
C182 C176 1.516 1_554 S
C183 O167 1.254 . S
C183 O168 1.257 . S
C184 O169 1.266 . S
C184 O170 1.236 . S
C185 C188 1.344 . S
C185 C189 1.328 . S
C185 C191 1.516 . S
C186 C187 1.304 . S
C186 C190 1.323 . S
C187 C186 1.304 . S
C187 C188 1.371 . S
C187 H196 0.930 . S
C188 C185 1.344 . S
C188 C187 1.371 . S
C188 H197 0.931 . S
C189 C185 1.328 . S
C189 C190 1.433 . S
C189 H198 0.931 . S
C190 C186 1.323 . S
C190 C189 1.433 . S
C190 H199 0.933 . S
C191 Dy161 2.738 . S
C191 O171 1.255 . S
C191 O172 1.249 . S
C191 C185 1.516 . S
H192 C178 0.930 . S
H193 C179 0.931 . S
H194 C180 0.936 . S
H195 C181 0.933 . S
H196 C187 0.930 . S
H197 C188 0.931 . S
H198 C189 0.931 . S
H199 C190 0.933 . S
Dy200 O203 2.307 . S
Dy200 O205 2.395 . S
Dy200 O206 2.379 . S
Dy200 O208 2.339 . S
Dy200 O210 2.298 . S
Dy200 O214 2.275 . S
Dy200 C222 2.738 . S
Dy201 O204 2.298 . S
Dy201 O207 2.275 . S
Dy201 O209 2.307 . S
Dy201 O211 2.395 . S
Dy201 O212 2.379 . S
Dy201 O215 2.339 . S
Dy201 C231 2.738 . S
C202 O214 1.254 . S
C202 O215 1.257 . S
O203 Dy200 2.307 . S
O203 C213 1.266 . S
O204 Dy201 2.298 . S
O204 C213 1.236 . S
O205 Dy200 2.395 . S
O205 C222 1.255 . S
O206 Dy200 2.379 . S
O206 C222 1.249 . S
O207 Dy201 2.275 . S
O207 C223 1.254 . S
O208 Dy200 2.339 . S
O208 C223 1.257 . S
O209 Dy201 2.307 . S
O209 C224 1.266 . S
O210 Dy200 2.298 . S
O210 C224 1.236 . S
O211 Dy201 2.395 . S
O211 C231 1.255 . S
O212 Dy201 2.379 . S
O212 C231 1.249 . S
C213 O203 1.266 . S
C213 O204 1.236 . S
O214 Dy200 2.275 . S
O214 C202 1.254 . S
O215 Dy201 2.339 . S
O215 C202 1.257 . S
C216 C219 1.344 . S
C216 C220 1.328 . S
C216 C222 1.516 . S
C217 C218 1.304 . S
C217 C221 1.323 . S
C218 C217 1.304 . S
C218 C219 1.371 . S
C218 H232 0.930 . S
C219 C216 1.344 . S
C219 C218 1.371 . S
C219 H233 0.931 . S
C220 C216 1.328 . S
C220 C221 1.433 . S
C220 H234 0.931 . S
C221 C217 1.323 . S
C221 C220 1.433 . S
C221 H235 0.933 . S
C222 Dy200 2.738 . S
C222 O205 1.255 . S
C222 O206 1.249 . S
C222 C216 1.516 . S
C223 O207 1.254 . S
C223 O208 1.257 . S
C224 O209 1.266 . S
C224 O210 1.236 . S
C225 C228 1.344 . S
C225 C229 1.328 . S
C225 C231 1.516 1_554 S
C226 C227 1.304 . S
C226 C230 1.323 . S
C227 C226 1.304 . S
C227 C228 1.371 . S
C227 H236 0.930 . S
C228 C225 1.344 . S
C228 C227 1.371 . S
C228 H237 0.931 . S
C229 C225 1.328 . S
C229 C230 1.433 . S
C229 H238 0.931 . S
C230 C226 1.323 . S
C230 C229 1.433 . S
C230 H239 0.933 . S
C231 Dy201 2.738 . S
C231 O211 1.255 . S
C231 O212 1.249 . S
C231 C225 1.516 1_556 S
H232 C218 0.930 . S
H233 C219 0.931 . S
H234 C220 0.931 . S
H235 C221 0.933 . S
H236 C227 0.930 . S
H237 C228 0.931 . S
H238 C229 0.931 . S
H239 C230 0.933 . S
Dy240 O243 2.307 1_554 S
Dy240 O245 2.395 . S
Dy240 O246 2.379 . S
Dy240 O248 2.339 . S
Dy240 O250 2.298 . S
Dy240 O254 2.275 . S
Dy240 C262 2.738 . S
Dy241 O244 2.298 . S
Dy241 O247 2.275 . S
Dy241 O249 2.307 1_556 S
Dy241 O251 2.395 . S
Dy241 O252 2.379 . S
Dy241 O255 2.339 . S
Dy241 C271 2.738 . S
C242 O254 1.254 . S
C242 O255 1.257 1_554 S
O243 Dy240 2.307 1_556 S
O243 C253 1.266 . S
O244 Dy241 2.298 . S
O244 C253 1.236 . S
O245 Dy240 2.395 . S
O245 C262 1.255 . S
O246 Dy240 2.379 . S
O246 C262 1.249 . S
O247 Dy241 2.275 . S
O247 C263 1.254 . S
O248 Dy240 2.339 . S
O248 C263 1.257 1_554 S
O249 Dy241 2.307 1_554 S
O249 C264 1.266 . S
O250 Dy240 2.298 . S
O250 C264 1.236 . S
O251 Dy241 2.395 . S
O251 C271 1.255 . S
O252 Dy241 2.379 . S
O252 C271 1.249 . S
C253 O243 1.266 . S
C253 O244 1.236 . S
O254 Dy240 2.275 . S
O254 C242 1.254 . S
O255 Dy241 2.339 . S
O255 C242 1.257 1_556 S
C256 C259 1.344 . S
C256 C260 1.328 . S
C256 C262 1.516 . S
C257 C258 1.304 . S
C257 C261 1.323 . S
C258 C257 1.304 . S
C258 C259 1.371 . S
C258 H272 0.930 . S
C259 C256 1.344 . S
C259 C258 1.371 . S
C259 H273 0.931 . S
C260 C256 1.328 . S
C260 C261 1.433 . S
C260 H274 0.931 . S
C261 C257 1.323 . S
C261 C260 1.433 . S
C261 H275 0.933 . S
C262 Dy240 2.738 . S
C262 O245 1.255 . S
C262 O246 1.249 . S
C262 C256 1.516 . S
C263 O247 1.254 . S
C263 O248 1.257 1_556 S
C264 O249 1.266 . S
C264 O250 1.236 . S
C265 C268 1.344 . S
C265 C269 1.328 . S
C265 C271 1.516 . S
C266 C267 1.304 . S
C266 C270 1.323 . S
C267 C266 1.304 . S
C267 C268 1.371 . S
C267 H276 0.930 . S
C268 C265 1.344 . S
C268 C267 1.371 . S
C268 H277 0.931 . S
C269 C265 1.328 . S
C269 C270 1.433 . S
C269 H278 0.931 . S
C270 C266 1.323 . S
C270 C269 1.433 . S
C270 H279 0.933 . S
C271 Dy241 2.738 . S
C271 O251 1.255 . S
C271 O252 1.249 . S
C271 C265 1.516 . S
H272 C258 0.930 . S
H273 C259 0.931 . S
H274 C260 0.931 . S
H275 C261 0.933 . S
H276 C267 0.930 . S
H277 C268 0.931 . S
H278 C269 0.931 . S
H279 C270 0.933 . S
Dy280 O283 2.307 . S
Dy280 O285 2.395 . S
Dy280 O286 2.379 1_655 S
Dy280 O288 2.339 1_655 S
Dy280 O290 2.298 1_655 S
Dy280 O294 2.275 . S
Dy280 C302 2.738 1_655 S
Dy281 O284 2.298 1_455 S
Dy281 O287 2.275 . S
Dy281 O289 2.307 . S
Dy281 O291 2.395 . S
Dy281 O292 2.379 1_455 S
Dy281 O295 2.339 1_455 S
Dy281 C311 2.738 1_455 S
C282 O294 1.254 . S
C282 O295 1.257 . S
O283 Dy280 2.307 . S
O283 C293 1.266 . S
O284 Dy281 2.298 1_655 S
O284 C293 1.236 . S
O285 Dy280 2.395 . S
O285 C302 1.255 1_655 S
O286 Dy280 2.379 1_455 S
O286 C302 1.249 . S
O287 Dy281 2.275 . S
O287 C303 1.254 . S
O288 Dy280 2.339 1_455 S
O288 C303 1.257 . S
O289 Dy281 2.307 . S
O289 C304 1.266 . S
O290 Dy280 2.298 1_455 S
O290 C304 1.236 . S
O291 Dy281 2.395 . S
O291 C311 1.255 1_455 S
O292 Dy281 2.379 1_655 S
O292 C311 1.249 . S
C293 O283 1.266 . S
C293 O284 1.236 . S
O294 Dy280 2.275 . S
O294 C282 1.254 . S
O295 Dy281 2.339 1_655 S
O295 C282 1.257 . S
C296 C299 1.345 . S
C296 C300 1.328 . S
C296 C302 1.516 . S
C297 C298 1.304 . S
C297 C301 1.323 . S
C298 C297 1.304 . S
C298 C299 1.372 . S
C298 H312 0.930 1_455 S
C299 C296 1.345 . S
C299 C298 1.372 . S
C299 H313 0.930 1_455 S
C300 C296 1.328 . S
C300 C301 1.433 . S
C300 H314 0.931 . S
C301 C297 1.323 . S
C301 C300 1.433 . S
C301 H315 0.933 . S
C302 Dy280 2.738 1_455 S
C302 O285 1.255 1_455 S
C302 O286 1.249 . S
C302 C296 1.516 . S
C303 O287 1.254 . S
C303 O288 1.257 . S
C304 O289 1.266 . S
C304 O290 1.236 . S
C305 C308 1.343 . S
C305 C309 1.328 . S
C305 C311 1.516 . S
C306 C307 1.304 . S
C306 C310 1.323 . S
C307 C306 1.304 . S
C307 C308 1.371 . S
C307 H316 0.930 1_655 S
C308 C305 1.343 . S
C308 C307 1.371 . S
C308 H317 0.932 1_655 S
C309 C305 1.328 . S
C309 C310 1.433 . S
C309 H318 0.931 . S
C310 C306 1.323 . S
C310 C309 1.433 . S
C310 H319 0.933 . S
C311 Dy281 2.738 1_655 S
C311 O291 1.255 1_655 S
C311 O292 1.249 . S
C311 C305 1.516 . S
H312 C298 0.930 1_655 S
H313 C299 0.930 1_655 S
H314 C300 0.931 . S
H315 C301 0.933 . S
H316 C307 0.930 1_455 S
H317 C308 0.932 1_455 S
H318 C309 0.931 . S
H319 C310 0.933 . S
C320 C321 1.369 . S
C320 C322 1.419 . S
C320 H324 0.930 . S
C321 C320 1.369 . S
C321 C330 1.429 . S
C322 C320 1.419 . S
C322 C323 1.363 . S
C322 H325 0.929 . S
C323 C322 1.363 . S
C323 C329 1.428 . S
H324 C320 0.930 . S
H325 C322 0.929 . S
S326 N327 1.613 . S
S326 N328 1.610 . S
N327 S326 1.613 . S
N327 C330 1.350 . S
N328 S326 1.610 . S
N328 C329 1.351 . S
C329 C323 1.428 . S
C329 N328 1.351 . S
C329 C330 1.434 . S
C330 C321 1.429 . S
C330 N327 1.350 . S
C330 C329 1.434 . S
C331 C332 1.369 . S
C331 C333 1.419 . S
C331 H335 0.930 . S
C332 C331 1.369 . S
C332 C341 1.429 . S
C333 C331 1.419 . S
C333 C334 1.363 . S
C333 H336 0.929 . S
C334 C333 1.363 . S
C334 C340 1.428 . S
H335 C331 0.930 . S
H336 C333 0.929 . S
S337 N338 1.613 . S
S337 N339 1.610 . S
N338 S337 1.613 . S
N338 C341 1.350 . S
N339 S337 1.610 . S
N339 C340 1.351 . S
C340 C334 1.428 . S
C340 N339 1.351 . S
C340 C341 1.434 . S
C341 C332 1.429 . S
C341 N338 1.350 . S
C341 C340 1.434 . S
C342 C343 1.369 . S
C342 C344 1.419 . S
C342 H346 0.930 . S
C343 C342 1.369 . S
C343 C352 1.429 . S
C344 C342 1.419 . S
C344 C345 1.363 . S
C344 H347 0.929 . S
C345 C344 1.363 . S
C345 C351 1.428 . S
H346 C342 0.930 . S
H347 C344 0.929 . S
S348 N349 1.613 . S
S348 N350 1.610 . S
N349 S348 1.613 . S
N349 C352 1.350 . S
N350 S348 1.610 . S
N350 C351 1.351 . S
C351 C345 1.428 . S
C351 N350 1.351 . S
C351 C352 1.434 . S
C352 C343 1.429 . S
C352 N349 1.350 . S
C352 C351 1.434 . S
C353 C354 1.369 . S
C353 C355 1.419 . S
C353 H357 0.930 . S
C354 C353 1.369 . S
C354 C363 1.429 . S
C355 C353 1.419 . S
C355 C356 1.363 . S
C355 H358 0.929 . S
C356 C355 1.363 . S
C356 C362 1.428 . S
H357 C353 0.930 . S
H358 C355 0.929 . S
S359 N360 1.613 . S
S359 N361 1.610 . S
N360 S359 1.613 . S
N360 C363 1.350 . S
N361 S359 1.610 . S
N361 C362 1.351 . S
C362 C356 1.428 . S
C362 N361 1.351 . S
C362 C363 1.434 . S
C363 C354 1.429 . S
C363 N360 1.350 . S
C363 C362 1.434 . S
C364 C365 1.369 . S
C364 C366 1.419 . S
C364 H368 0.930 . S
C365 C364 1.369 . S
C365 C374 1.429 . S
C366 C364 1.419 . S
C366 C367 1.363 . S
C366 H369 0.929 . S
C367 C366 1.363 . S
C367 C373 1.428 . S
H368 C364 0.930 . S
H369 C366 0.929 . S
S370 N371 1.613 . S
S370 N372 1.610 . S
N371 S370 1.613 . S
N371 C374 1.350 . S
N372 S370 1.610 . S
N372 C373 1.351 . S
C373 C367 1.428 . S
C373 N372 1.351 . S
C373 C374 1.434 . S
C374 C365 1.429 . S
C374 N371 1.350 . S
C374 C373 1.434 . S
C375 C376 1.369 . S
C375 C377 1.419 . S
C375 H379 0.930 . S
C376 C375 1.369 . S
C376 C385 1.429 . S
C377 C375 1.419 . S
C377 C378 1.363 . S
C377 H380 0.929 . S
C378 C377 1.363 . S
C378 C384 1.428 . S
H379 C375 0.930 . S
H380 C377 0.929 . S
S381 N382 1.613 . S
S381 N383 1.610 . S
N382 S381 1.613 . S
N382 C385 1.350 . S
N383 S381 1.610 . S
N383 C384 1.351 . S
C384 C378 1.428 . S
C384 N383 1.351 . S
C384 C385 1.434 . S
C385 C376 1.429 . S
C385 N382 1.350 . S
C385 C384 1.434 . S
C386 C387 1.369 . S
C386 C388 1.419 . S
C386 H390 0.930 . S
C387 C386 1.369 . S
C387 C396 1.429 . S
C388 C386 1.419 . S
C388 C389 1.363 . S
C388 H391 0.929 . S
C389 C388 1.363 . S
C389 C395 1.428 . S
H390 C386 0.930 . S
H391 C388 0.929 . S
S392 N393 1.615 . S
S392 N394 1.612 1_554 S
N393 S392 1.615 . S
N393 C396 1.350 . S
N394 S392 1.612 1_556 S
N394 C395 1.338 1_556 S
C395 C389 1.428 . S
C395 N394 1.338 1_554 S
C395 C396 1.434 . S
C396 C387 1.429 . S
C396 N393 1.350 . S
C396 C395 1.434 . S
C397 C398 1.369 . S
C397 C399 1.419 . S
C397 H401 0.930 . S
C398 C397 1.369 . S
C398 C407 1.429 . S
C399 C397 1.419 . S
C399 C400 1.363 . S
C399 H402 0.929 . S
C400 C399 1.363 . S
C400 C406 1.428 . S
H401 C397 0.930 . S
H402 C399 0.929 . S
S403 N404 1.613 . S
S403 N405 1.610 . S
N404 S403 1.613 . S
N404 C407 1.350 . S
N405 S403 1.610 . S
N405 C406 1.351 . S
C406 C400 1.428 . S
C406 N405 1.351 . S
C406 C407 1.434 . S
C407 C398 1.429 . S
C407 N404 1.350 . S
C407 C406 1.434 . S
C408 C409 1.369 . S
C408 C410 1.419 . S
C408 H412 0.930 . S
C409 C408 1.369 . S
C409 C418 1.429 . S
C410 C408 1.419 . S
C410 C411 1.363 . S
C410 H413 0.929 . S
C411 C410 1.363 . S
C411 C417 1.428 . S
H412 C408 0.930 . S
H413 C410 0.929 . S
S414 N415 1.613 . S
S414 N416 1.610 . S
N415 S414 1.613 . S
N415 C418 1.350 . S
N416 S414 1.610 . S
N416 C417 1.351 . S
C417 C411 1.428 . S
C417 N416 1.351 . S
C417 C418 1.434 . S
C418 C409 1.429 . S
C418 N415 1.350 . S
C418 C417 1.434 . S
C419 C420 1.369 . S
C419 C421 1.419 . S
C419 H423 0.930 . S
C420 C419 1.369 . S
C420 C429 1.429 . S
C421 C419 1.419 . S
C421 C422 1.363 . S
C421 H424 0.929 . S
C422 C421 1.363 . S
C422 C428 1.428 . S
H423 C419 0.930 . S
H424 C421 0.929 . S
S425 N426 1.613 . S
S425 N427 1.610 . S
N426 S425 1.613 . S
N426 C429 1.350 . S
N427 S425 1.610 . S
N427 C428 1.351 . S
C428 C422 1.428 . S
C428 N427 1.351 . S
C428 C429 1.434 . S
C429 C420 1.429 . S
C429 N426 1.350 . S
C429 C428 1.434 . S
C430 C431 1.369 . S
C430 C432 1.419 . S
C430 H434 0.930 . S
C431 C430 1.369 . S
C431 C440 1.429 . S
C432 C430 1.419 . S
C432 C433 1.363 . S
C432 H435 0.929 . S
C433 C432 1.363 . S
C433 C439 1.428 . S
H434 C430 0.930 . S
H435 C432 0.929 . S
S436 N437 1.613 . S
S436 N438 1.610 . S
N437 S436 1.613 . S
N437 C440 1.350 . S
N438 S436 1.610 . S
N438 C439 1.351 . S
C439 C433 1.428 . S
C439 N438 1.351 . S
C439 C440 1.434 . S
C440 C431 1.429 . S
C440 N437 1.350 . S
C440 C439 1.434 . S
C441 C442 1.369 . S
C441 C443 1.419 . S
C441 H445 0.930 . S
C442 C441 1.369 . S
C442 C451 1.429 . S
C443 C441 1.419 . S
C443 C444 1.363 . S
C443 H446 0.929 . S
C444 C443 1.363 . S
C444 C450 1.428 . S
H445 C441 0.930 . S
H446 C443 0.929 . S
S447 N448 1.613 . S
S447 N449 1.610 . S
N448 S447 1.613 . S
N448 C451 1.350 . S
N449 S447 1.610 . S
N449 C450 1.351 . S
C450 C444 1.428 . S
C450 N449 1.351 . S
C450 C451 1.434 . S
C451 C442 1.429 . S
C451 N448 1.350 . S
C451 C450 1.434 . S
C452 C453 1.369 . S
C452 C454 1.419 . S
C452 H456 0.930 . S
C453 C452 1.369 . S
C453 C462 1.429 . S
C454 C452 1.419 . S
C454 C455 1.363 . S
C454 H457 0.929 . S
C455 C454 1.363 . S
C455 C461 1.428 . S
H456 C452 0.930 . S
H457 C454 0.929 . S
S458 N459 1.613 . S
S458 N460 1.610 . S
N459 S458 1.613 . S
N459 C462 1.350 . S
N460 S458 1.610 . S
N460 C461 1.351 . S
C461 C455 1.428 . S
C461 N460 1.351 . S
C461 C462 1.434 . S
C462 C453 1.429 . S
C462 N459 1.350 . S
C462 C461 1.434 . S
C463 C464 1.369 . S
C463 C465 1.419 . S
C463 H467 0.930 . S
C464 C463 1.369 . S
C464 C473 1.429 . S
C465 C463 1.419 . S
C465 C466 1.363 . S
C465 H468 0.929 . S
C466 C465 1.363 . S
C466 C472 1.428 . S
H467 C463 0.930 . S
H468 C465 0.929 . S
S469 N470 1.613 . S
S469 N471 1.610 . S
N470 S469 1.613 . S
N470 C473 1.350 . S
N471 S469 1.610 . S
N471 C472 1.351 . S
C472 C466 1.428 . S
C472 N471 1.351 . S
C472 C473 1.434 . S
C473 C464 1.429 . S
C473 N470 1.350 . S
C473 C472 1.434 . S
C474 C475 1.369 . S
C474 C476 1.419 . S
C474 H478 0.930 . S
C475 C474 1.369 . S
C475 C484 1.429 . S
C476 C474 1.419 . S
C476 C477 1.363 . S
C476 H479 0.929 . S
C477 C476 1.363 . S
C477 C483 1.428 . S
H478 C474 0.930 . S
H479 C476 0.929 . S
S480 N481 1.613 . S
S480 N482 1.610 . S
N481 S480 1.613 . S
N481 C484 1.350 . S
N482 S480 1.610 . S
N482 C483 1.351 . S
C483 C477 1.428 . S
C483 N482 1.351 . S
C483 C484 1.434 . S
C484 C475 1.429 . S
C484 N481 1.350 . S
C484 C483 1.434 . S
C485 C486 1.369 . S
C485 C487 1.419 . S
C485 H489 0.930 . S
C486 C485 1.369 . S
C486 C495 1.429 . S
C487 C485 1.419 . S
C487 C488 1.363 . S
C487 H490 0.929 . S
C488 C487 1.363 . S
C488 C494 1.428 . S
H489 C485 0.930 . S
H490 C487 0.929 . S
S491 N492 1.613 . S
S491 N493 1.610 . S
N492 S491 1.613 . S
N492 C495 1.350 . S
N493 S491 1.610 . S
N493 C494 1.351 . S
C494 C488 1.428 . S
C494 N493 1.351 . S
C494 C495 1.434 . S
C495 C486 1.429 . S
C495 N492 1.350 . S
C495 C494 1.434 . S
C496 C497 1.369 1_565 S
C496 C498 1.419 1_556 S
C496 H500 0.930 . S
C497 C496 1.369 1_545 S
C497 C506 1.429 1_655 S
C498 C496 1.419 1_554 S
C498 C499 1.363 1_655 S
C498 H501 0.929 . S
C499 C498 1.363 1_455 S
C499 C505 1.420 1_565 S
H500 C496 0.930 . S
H501 C498 0.929 . S
S502 N503 1.613 . S
S502 N504 1.610 1_556 S
N503 S502 1.613 . S
N503 C506 1.350 . S
N504 S502 1.610 1_554 S
N504 C505 1.352 . S
C505 C499 1.420 1_545 S
C505 N504 1.352 . S
C505 C506 1.442 1_554 S
C506 C497 1.429 1_455 S
C506 N503 1.350 . S
C506 C505 1.442 1_556 S
C507 C508 1.369 . S
C507 C509 1.419 . S
C507 H511 0.930 . S
C508 C507 1.369 . S
C508 C517 1.429 . S
C509 C507 1.419 . S
C509 C510 1.363 . S
C509 H512 0.929 . S
C510 C509 1.363 . S
C510 C516 1.428 . S
H511 C507 0.930 . S
H512 C509 0.929 . S
S513 N514 1.613 . S
S513 N515 1.610 . S
N514 S513 1.613 . S
N514 C517 1.350 . S
N515 S513 1.610 . S
N515 C516 1.351 . S
C516 C510 1.428 . S
C516 N515 1.351 . S
C516 C517 1.434 . S
C517 C508 1.429 . S
C517 N514 1.350 . S
C517 C516 1.434 . S
C518 C519 1.369 . S
C518 C520 1.419 . S
C518 H522 0.930 . S
C519 C518 1.369 . S
C519 C528 1.429 1_545 S
C520 C518 1.419 . S
C520 C521 1.363 1_545 S
C520 H523 0.929 . S
C521 C520 1.363 1_565 S
C521 C527 1.428 . S
H522 C518 0.930 . S
H523 C520 0.929 . S
S524 N525 1.613 . S
S524 N526 1.610 . S
N525 S524 1.613 . S
N525 C528 1.350 . S
N526 S524 1.610 . S
N526 C527 1.351 . S
C527 C521 1.428 . S
C527 N526 1.351 . S
C527 C528 1.434 . S
C528 C519 1.429 1_565 S
C528 N525 1.350 . S
C528 C527 1.434 . S
C529 C530 1.369 . S
C529 C531 1.419 . S
C529 H533 0.930 . S
C530 C529 1.369 . S
C530 C539 1.429 . S
C531 C529 1.419 . S
C531 C532 1.363 . S
C531 H534 0.929 . S
C532 C531 1.363 . S
C532 C538 1.428 . S
H533 C529 0.930 . S
H534 C531 0.929 . S
S535 N536 1.613 . S
S535 N537 1.610 . S
N536 S535 1.613 . S
N536 C539 1.350 . S
N537 S535 1.610 . S
N537 C538 1.351 . S
C538 C532 1.428 . S
C538 N537 1.351 . S
C538 C539 1.434 . S
C539 C530 1.429 . S
C539 N536 1.350 . S
C539 C538 1.434 . S
C540 C541 1.369 . S
C540 C542 1.419 . S
C540 H544 0.930 . S
C541 C540 1.369 . S
C541 C550 1.429 . S
C542 C540 1.419 . S
C542 C543 1.363 . S
C542 H545 0.929 . S
C543 C542 1.363 . S
C543 C549 1.428 . S
H544 C540 0.930 . S
H545 C542 0.929 . S
S546 N547 1.613 . S
S546 N548 1.610 . S
N547 S546 1.613 . S
N547 C550 1.350 . S
N548 S546 1.610 . S
N548 C549 1.351 . S
C549 C543 1.428 . S
C549 N548 1.351 . S
C549 C550 1.434 . S
C550 C541 1.429 . S
C550 N547 1.350 . S
C550 C549 1.434 . S
C551 C552 1.369 . S
C551 C553 1.419 . S
C551 H555 0.930 . S
C552 C551 1.369 . S
C552 C561 1.429 . S
C553 C551 1.419 . S
C553 C554 1.363 . S
C553 H556 0.929 . S
C554 C553 1.363 . S
C554 C560 1.428 . S
H555 C551 0.930 . S
H556 C553 0.929 . S
S557 N558 1.613 . S
S557 N559 1.610 . S
N558 S557 1.613 . S
N558 C561 1.350 . S
N559 S557 1.610 . S
N559 C560 1.351 . S
C560 C554 1.428 . S
C560 N559 1.351 . S
C560 C561 1.434 . S
C561 C552 1.429 . S
C561 N558 1.350 . S
C561 C560 1.434 . S
C562 C563 1.369 . S
C562 C564 1.419 . S
C562 H566 0.930 . S
C563 C562 1.369 . S
C563 C572 1.429 . S
C564 C562 1.419 . S
C564 C565 1.363 . S
C564 H567 0.929 . S
C565 C564 1.363 . S
C565 C571 1.428 . S
H566 C562 0.930 . S
H567 C564 0.929 . S
S568 N569 1.613 . S
S568 N570 1.610 . S
N569 S568 1.613 . S
N569 C572 1.350 . S
N570 S568 1.610 . S
N570 C571 1.351 . S
C571 C565 1.428 . S
C571 N570 1.351 . S
C571 C572 1.434 . S
C572 C563 1.429 . S
C572 N569 1.350 . S
C572 C571 1.434 . S
C573 C574 1.369 . S
C573 C575 1.419 1_556 S
C573 H577 0.930 . S
C574 C573 1.369 . S
C574 C583 1.429 1_655 S
C575 C573 1.419 1_554 S
C575 C576 1.363 1_655 S
C575 H578 0.929 . S
C576 C575 1.363 1_455 S
C576 C582 1.428 . S
H577 C573 0.930 . S
H578 C575 0.929 . S
S579 N580 1.613 1_554 S
S579 N581 1.610 . S
N580 S579 1.613 1_556 S
N580 C583 1.350 . S
N581 S579 1.610 . S
N581 C582 1.351 . S
C582 C576 1.428 . S
C582 N581 1.351 . S
C582 C583 1.434 1_554 S
C583 C574 1.429 1_455 S
C583 N580 1.350 . S
C583 C582 1.434 1_556 S
C321 C13 1.666 . S
C323 C133 1.664 . S
C332 C2 1.442 . S
C334 C42 1.444 . S
C343 C53 1.366 . S
C345 C82 1.362 . S
C354 C93 1.733 . S
C356 C122 1.736 . S
C365 C24 1.664 . S
C367 C224 1.669 . S
C376 C23 1.442 . S
C378 C183 1.443 . S
C387 C184 1.365 . S
C389 C103 1.359 . S
C398 C223 1.737 . S
C400 C104 1.734 . S
C409 C253 1.666 . S
C411 C213 1.667 . S
C420 C162 1.444 . S
C422 C242 1.441 . S
C431 C282 1.362 . S
C433 C173 1.367 . S
C442 C202 1.738 . S
C444 C293 1.731 . S
C453 C144 1.667 . S
C455 C264 1.666 . S
C464 C263 1.442 . S
C466 C63 1.444 . S
C475 C64 1.366 . S
C477 C303 1.361 . S
C486 C143 1.737 . S
C488 C304 1.732 . S
C497 C17 1.598 . S
C499 C26 1.604 . S
C508 C57 1.610 . S
C510 C66 1.621 . S
C519 C97 1.577 . S
C521 C106 1.588 . S
C530 C137 1.904 . S
C532 C146 1.914 . S
C541 C177 1.610 . S
C543 C186 1.621 . S
C552 C217 1.911 . S
C554 C226 1.909 . S
C563 C266 1.602 . S
C565 C257 1.601 . S
C574 C306 1.588 . S
C576 C297 1.579 . S
