# Generated by pormake.
# Topology sow, (4)-cn, num edge types: 1
# Building blocks:
#     Node 0, Type 0, BuildingBlock: QUQFOY_clean_sbu_1, # of connection points: 4
#     Node 1, Type 0, BuildingBlock: QUQFOY_clean_sbu_1, # of connection points: 4
#     Node 2, Type 0, BuildingBlock: QUQFOY_clean_sbu_1, # of connection points: 4
#     Node 3, Type 0, BuildingBlock: QUQFOY_clean_sbu_1, # of connection points: 4
#     Node 4, Type 0, BuildingBlock: QUQFOY_clean_sbu_1, # of connection points: 4
#     Node 5, Type 0, BuildingBlock: QUQFOY_clean_sbu_1, # of connection points: 4
#     Node 6, Type 0, BuildingBlock: QUQFOY_clean_sbu_1, # of connection points: 4
#     Node 7, Type 0, BuildingBlock: QUQFOY_clean_sbu_1, # of connection points: 4
#     Edge 8, Type (0, 0), BuildingBlock: MIFKUJ_clean_linker_0, # of connection points: 2
#     Edge 9, Type (0, 0), BuildingBlock: MIFKUJ_clean_linker_0, # of connection points: 2
#     Edge 10, Type (0, 0), BuildingBlock: MIFKUJ_clean_linker_0, # of connection points: 2
#     Edge 11, Type (0, 0), BuildingBlock: MIFKUJ_clean_linker_0, # of connection points: 2
#     Edge 12, Type (0, 0), BuildingBlock: MIFKUJ_clean_linker_0, # of connection points: 2
#     Edge 13, Type (0, 0), BuildingBlock: MIFKUJ_clean_linker_0, # of connection points: 2
#     Edge 14, Type (0, 0), BuildingBlock: MIFKUJ_clean_linker_0, # of connection points: 2
#     Edge 15, Type (0, 0), BuildingBlock: MIFKUJ_clean_linker_0, # of connection points: 2
#     Edge 16, Type (0, 0), BuildingBlock: MIFKUJ_clean_linker_0, # of connection points: 2
#     Edge 17, Type (0, 0), BuildingBlock: MIFKUJ_clean_linker_0, # of connection points: 2
#     Edge 18, Type (0, 0), BuildingBlock: MIFKUJ_clean_linker_0, # of connection points: 2
#     Edge 19, Type (0, 0), BuildingBlock: MIFKUJ_clean_linker_0, # of connection points: 2
#     Edge 20, Type (0, 0), BuildingBlock: MIFKUJ_clean_linker_0, # of connection points: 2
#     Edge 21, Type (0, 0), BuildingBlock: MIFKUJ_clean_linker_0, # of connection points: 2
#     Edge 22, Type (0, 0), BuildingBlock: MIFKUJ_clean_linker_0, # of connection points: 2
#     Edge 23, Type (0, 0), BuildingBlock: MIFKUJ_clean_linker_0, # of connection points: 2
# Relax obj value: 0.078
# Max RMSD: 0.127
# Mean RMSD: 0.127
data_MOF--net-sow--node1-QUQFOY_clean_sbu_1--edge1-MIFKUJ_clean_linker_0
_symmetry_space_group_name_H-M    P1
_symmetry_Int_Tables_number       1
_symmetry_cell_setting            triclinic
loop_
_symmetry_equiv_pos_as_xyz
'x, y, z'
_cell_length_a     45.65979
_cell_length_b     47.446073
_cell_length_c     30.794253
_cell_angle_alpha  89.971611
_cell_angle_beta   90.0736
_cell_angle_gamma 89.965432
loop_
_atom_site_label
_atom_site_type_symbol
_atom_site_fract_x
_atom_site_fract_y
_atom_site_fract_z
_atom_type_partial_charge
O0 O 0.17269 0.21119 0.07008 0.0
Cd1 Cd 0.13943 0.22119 0.02784 0.0
Cd2 Cd 0.11647 0.16884 0.06418 0.0
O3 O 0.15631 0.17101 0.09723 0.0
O4 O 0.1557 0.2533 0.99364 0.0
O5 O 0.14318 0.21278 0.96373 0.0
C6 C 0.15383 0.23784 0.9594 0.0
C7 C 0.09579 0.1247 0.04663 0.0
C8 C 0.1756 0.1904 0.09578 0.0
C9 C 0.08306 0.22421 0.07692 0.0
O10 O 0.08503 0.19772 0.08224 0.0
O11 O 0.10247 0.23786 0.05627 0.0
O12 O 0.09864 0.13298 0.08618 0.0
O13 O 0.10606 0.14091 0.01659 0.0
O14 O 0.32799 0.3021 0.5725 0.0
Cd15 Cd 0.36059 0.28991 0.53044 0.0
Cd16 Cd 0.3858 0.34261 0.56658 0.0
O17 O 0.34719 0.3404 0.60229 0.0
O18 O 0.34233 0.25708 0.50018 0.0
O19 O 0.356 0.29558 0.46557 0.0
C20 C 0.34416 0.27088 0.4643 0.0
C21 C 0.40693 0.38671 0.54976 0.0
C22 C 0.32671 0.32226 0.5996 0.0
C23 C 0.41825 0.28644 0.57732 0.0
O24 O 0.41707 0.31304 0.58158 0.0
O25 O 0.39781 0.27293 0.55856 0.0
O26 O 0.40523 0.37759 0.58902 0.0
O27 O 0.39519 0.37144 0.51973 0.0
O28 O 0.68559 0.31126 0.94539 0.0
Cd29 Cd 0.64938 0.30031 0.98154 0.0
Cd30 Cd 0.63361 0.35458 0.94641 0.0
O31 O 0.67673 0.35539 0.92636 0.0
O32 O 0.66386 0.26502 0.00982 0.0
O33 O 0.65061 0.30243 0.04734 0.0
C34 C 0.66122 0.27719 0.04691 0.0
C35 C 0.60826 0.39605 0.96614 0.0
C36 C 0.69333 0.33382 0.92632 0.0
C37 C 0.60268 0.30112 0.91472 0.0
O38 O 0.60865 0.32714 0.91062 0.0
O39 O 0.61417 0.28653 0.94491 0.0
O40 O 0.61714 0.39172 0.92708 0.0
O41 O 0.61502 0.37739 0.99501 0.0
O42 O 0.82295 0.20635 0.44267 0.0
Cd43 Cd 0.85587 0.21904 0.48367 0.0
Cd44 Cd 0.88169 0.16749 0.44611 0.0
O45 O 0.84177 0.16782 0.41339 0.0
O46 O 0.83704 0.25125 0.51458 0.0
O47 O 0.85348 0.21362 0.54887 0.0
C48 C 0.84068 0.23787 0.55052 0.0
C49 C 0.90536 0.12418 0.46064 0.0
C50 C 0.82122 0.18592 0.41613 0.0
C51 C 0.911 0.22506 0.43231 0.0
O52 O 0.9108 0.19843 0.42805 0.0
O53 O 0.89096 0.23774 0.45315 0.0
O54 O 0.90195 0.13348 0.42173 0.0
O55 O 0.89409 0.13884 0.49174 0.0
O56 O 0.82479 0.80512 0.94093 0.0
Cd57 Cd 0.85856 0.79272 0.98072 0.0
Cd58 Cd 0.88153 0.84613 0.94597 0.0
O59 O 0.8409 0.84586 0.91546 0.0
O60 O 0.84135 0.75888 0.00959 0.0
O61 O 0.8555 0.79642 0.04614 0.0
C62 C 0.84383 0.77164 0.04626 0.0
C63 C 0.90412 0.88933 0.96418 0.0
C64 C 0.82147 0.82662 0.91681 0.0
C65 C 0.91285 0.79036 0.92627 0.0
O66 O 0.91098 0.81699 0.92279 0.0
O67 O 0.89447 0.7765 0.94869 0.0
O68 O 0.89969 0.88199 0.92452 0.0
O69 O 0.89449 0.8727 0.99413 0.0
O70 O 0.67772 0.70603 0.44045 0.0
Cd71 Cd 0.64468 0.71822 0.48152 0.0
Cd72 Cd 0.62062 0.66557 0.4453 0.0
O73 O 0.6607 0.66612 0.4132 0.0
O74 O 0.66287 0.75129 0.51109 0.0
O75 O 0.64819 0.71358 0.54677 0.0
C76 C 0.66034 0.73815 0.54743 0.0
C77 C 0.59791 0.62221 0.46214 0.0
C78 C 0.68042 0.68508 0.41506 0.0
C79 C 0.58958 0.72216 0.42942 0.0
O80 O 0.59094 0.69554 0.42524 0.0
O81 O 0.60877 0.73556 0.45098 0.0
O82 O 0.60131 0.63055 0.42273 0.0
O83 O 0.60868 0.63788 0.49247 0.0
O84 O 0.32885 0.7109 0.06234 0.0
Cd85 Cd 0.36227 0.72139 0.02082 0.0
Cd86 Cd 0.38524 0.66914 0.06098 0.0
O87 O 0.34469 0.67118 0.09191 0.0
O88 O 0.34523 0.75415 0.98877 0.0
O89 O 0.35803 0.71468 0.95611 0.0
C90 C 0.34684 0.73964 0.95357 0.0
C91 C 0.40729 0.6253 0.0453 0.0
C92 C 0.32538 0.69048 0.08857 0.0
C93 C 0.41774 0.72522 0.07261 0.0
O94 O 0.4156 0.69891 0.0795 0.0
O95 O 0.39893 0.73839 0.04995 0.0
O96 O 0.4035 0.63384 0.08455 0.0
O97 O 0.39714 0.641 0.01449 0.0
O98 O 0.16889 0.79693 0.56272 0.0
Cd99 Cd 0.13594 0.78831 0.51916 0.0
Cd100 Cd 0.11634 0.84233 0.55577 0.0
O101 O 0.15638 0.83892 0.58784 0.0
O102 O 0.15226 0.7554 0.4868 0.0
O103 O 0.14126 0.79572 0.45496 0.0
C104 C 0.15168 0.77048 0.45204 0.0
C105 C 0.09626 0.88699 0.53941 0.0
C106 C 0.17379 0.81791 0.58732 0.0
C107 C 0.07987 0.78827 0.56851 0.0
O108 O 0.08436 0.81439 0.57483 0.0
O109 O 0.09752 0.77362 0.54598 0.0
O110 O 0.09937 0.87833 0.57873 0.0
O111 O 0.10612 0.87095 0.50889 0.0
H112 H 0.33072 0.33588 0.68526 0.0
H113 H 0.29534 0.32411 0.74231 0.0
H114 H 0.23435 0.29494 0.64532 0.0
H115 H 0.27007 0.30567 0.58819 0.0
H116 H 0.21018 0.3287 0.72274 0.0
H117 H 0.26965 0.24902 0.68016 0.0
H118 H 0.31578 0.22357 0.66661 0.0
H119 H 0.34041 0.23397 0.80026 0.0
H120 H 0.29523 0.26078 0.81403 0.0
H121 H 0.16215 0.20812 0.88406 0.0
H122 H 0.18488 0.22499 0.8168 0.0
H123 H 0.19371 0.30794 0.87249 0.0
H124 H 0.17105 0.29134 0.93952 0.0
H125 H 0.24015 0.24529 0.80944 0.0
H126 H 0.19055 0.35707 0.79062 0.0
H127 H 0.14397 0.3817 0.805 0.0
H128 H 0.09724 0.30352 0.79404 0.0
H129 H 0.14345 0.27849 0.779 0.0
C130 C 0.30944 0.32775 0.67601 0.0
C131 C 0.30309 0.32168 0.63234 0.0
C132 C 0.28934 0.32091 0.70862 0.0
C133 C 0.26238 0.30851 0.69793 0.0
C134 C 0.25505 0.30453 0.65412 0.0
C135 C 0.27544 0.31065 0.6216 0.0
C136 C 0.24327 0.29701 0.73247 0.0
C137 C 0.21669 0.31051 0.74182 0.0
C138 C 0.25161 0.27294 0.75668 0.0
C139 C 0.27924 0.25743 0.74793 0.0
C140 C 0.28521 0.24649 0.70642 0.0
C141 C 0.31123 0.23177 0.69869 0.0
C142 C 0.33119 0.22736 0.73243 0.0
C143 C 0.32514 0.23763 0.77398 0.0
C144 C 0.2994 0.25273 0.78171 0.0
C145 C 0.16854 0.23004 0.88172 0.0
C146 C 0.16489 0.24835 0.91718 0.0
C147 C 0.18158 0.23964 0.84333 0.0
C148 C 0.19084 0.26777 0.83952 0.0
C149 C 0.1864 0.28626 0.87443 0.0
C150 C 0.17357 0.27666 0.91285 0.0
C151 C 0.20726 0.2773 0.80058 0.0
C152 C 0.23349 0.26343 0.79037 0.0
C153 C 0.19853 0.30096 0.77565 0.0
C154 C 0.17053 0.31588 0.78403 0.0
C155 C 0.17032 0.34516 0.79106 0.0
C156 C 0.14398 0.35919 0.79937 0.0
C157 C 0.11767 0.34418 0.80055 0.0
C158 C 0.11764 0.31511 0.79328 0.0
C159 C 0.14391 0.30098 0.78493 0.0
H160 H 0.09731 0.35507 0.80702 0.0
H161 H 0.35126 0.21584 0.72647 0.0
H162 H 0.22182 0.22691 0.09876 0.0
H163 H 0.25564 0.23436 0.15878 0.0
H164 H 0.21816 0.16356 0.22677 0.0
H165 H 0.18365 0.15624 0.16692 0.0
H166 H 0.21899 0.20854 0.27712 0.0
H167 H 0.28959 0.16233 0.18852 0.0
H168 H 0.31799 0.15233 0.12226 0.0
H169 H 0.35372 0.236 0.12506 0.0
H170 H 0.32521 0.24666 0.19103 0.0
H171 H 0.3165 0.2204 0.45411 0.0
H172 H 0.29293 0.20191 0.38896 0.0
H173 H 0.31986 0.27556 0.31731 0.0
H174 H 0.34373 0.2943 0.38264 0.0
H175 H 0.32607 0.22558 0.26971 0.0
H176 H 0.25217 0.27245 0.3546 0.0
H177 H 0.22365 0.28241 0.42078 0.0
H178 H 0.19406 0.19655 0.42426 0.0
H179 H 0.22277 0.18597 0.35839 0.0
C180 C 0.22109 0.21249 0.12602 0.0
C181 C 0.19979 0.19108 0.12808 0.0
C182 C 0.24063 0.21672 0.16033 0.0
C183 C 0.23956 0.19951 0.19737 0.0
C184 C 0.21939 0.17715 0.19855 0.0
C185 C 0.19976 0.17289 0.16417 0.0
C186 C 0.25729 0.20678 0.23638 0.0
C187 C 0.24251 0.21163 0.27563 0.0
C188 C 0.28787 0.21167 0.23428 0.0
C189 C 0.30506 0.20537 0.19456 0.0
C190 C 0.30331 0.17869 0.17482 0.0
C191 C 0.31947 0.17288 0.13735 0.0
C192 C 0.3376 0.19353 0.11941 0.0
C193 C 0.33965 0.22002 0.13898 0.0
C194 C 0.32353 0.22595 0.17645 0.0
C195 C 0.31766 0.23264 0.42446 0.0
C196 C 0.33184 0.25896 0.42368 0.0
C197 C 0.30411 0.22202 0.38724 0.0
C198 C 0.30435 0.23749 0.34841 0.0
C199 C 0.3194 0.26329 0.34698 0.0
C200 C 0.33293 0.27401 0.38436 0.0
C201 C 0.28767 0.2273 0.31006 0.0
C202 C 0.30261 0.22209 0.27108 0.0
C203 C 0.2572 0.22202 0.31231 0.0
C204 C 0.23988 0.22834 0.35186 0.0
C205 C 0.23979 0.25563 0.36969 0.0
C206 C 0.22355 0.2614 0.40711 0.0
C207 C 0.20712 0.2401 0.42679 0.0
C208 C 0.20684 0.21301 0.40902 0.0
C209 C 0.22307 0.20712 0.37164 0.0
H210 H 0.19456 0.24461 0.45575 0.0
H211 H 0.35009 0.18899 0.0904 0.0
H212 H 0.81489 0.15268 0.34354 0.0
H213 H 0.78168 0.16109 0.28244 0.0
H214 H 0.74114 0.22932 0.35277 0.0
H215 H 0.77346 0.22058 0.41421 0.0
H216 H 0.70141 0.20384 0.30435 0.0
H217 H 0.79885 0.24039 0.2828 0.0
H218 H 0.85268 0.23719 0.27774 0.0
H219 H 0.84481 0.17884 0.17184 0.0
H220 H 0.79091 0.18131 0.17677 0.0
H221 H 0.65844 0.29624 0.13109 0.0
H222 H 0.68025 0.27431 0.19564 0.0
H223 H 0.71047 0.20476 0.11749 0.0
H224 H 0.68879 0.22638 0.05311 0.0
H225 H 0.75406 0.227 0.16808 0.0
H226 H 0.65524 0.1949 0.18668 0.0
H227 H 0.60166 0.20014 0.19263 0.0
H228 H 0.61248 0.25312 0.30451 0.0
H229 H 0.66616 0.24852 0.29886 0.0
C230 C 0.79835 0.16893 0.34653 0.0
C231 C 0.7972 0.18624 0.38358 0.0
C232 C 0.77951 0.17387 0.3114 0.0
C233 C 0.75944 0.19635 0.31254 0.0
C234 C 0.75658 0.21201 0.35092 0.0
C235 C 0.77521 0.207 0.38606 0.0
C236 C 0.74347 0.20548 0.2728 0.0
C237 C 0.71294 0.20902 0.27461 0.0
C238 C 0.75844 0.21204 0.23379 0.0
C239 C 0.79085 0.21079 0.23048 0.0
C240 C 0.8086 0.22673 0.25863 0.0
C241 C 0.83912 0.22506 0.25578 0.0
C242 C 0.85215 0.20777 0.22455 0.0
C243 C 0.83468 0.19217 0.19607 0.0
C244 C 0.80415 0.1937 0.19888 0.0
C245 C 0.66941 0.27612 0.12778 0.0
C246 C 0.67189 0.2631 0.08693 0.0
C247 C 0.68181 0.26357 0.16469 0.0
C248 C 0.69694 0.23785 0.16138 0.0
C249 C 0.69894 0.22461 0.1208 0.0
C250 C 0.68642 0.237 0.08404 0.0
C251 C 0.71203 0.22543 0.19967 0.0
C252 C 0.74246 0.22146 0.19762 0.0
C253 C 0.69701 0.21884 0.23853 0.0
C254 C 0.66474 0.22156 0.2421 0.0
C255 C 0.6462 0.20786 0.21234 0.0
C256 C 0.61581 0.21067 0.2157 0.0
C257 C 0.60368 0.227 0.24886 0.0
C258 C 0.62191 0.2405 0.27881 0.0
C259 C 0.65232 0.23777 0.27557 0.0
H260 H 0.58014 0.22915 0.25141 0.0
H261 H 0.87577 0.20653 0.22233 0.0
H262 H 0.70443 0.36711 0.85569 0.0
H263 H 0.73623 0.35488 0.79474 0.0
H264 H 0.77029 0.28417 0.86688 0.0
H265 H 0.73858 0.2962 0.92798 0.0
H266 H 0.81222 0.3089 0.81141 0.0
H267 H 0.7141 0.27272 0.80746 0.0
H268 H 0.66028 0.27649 0.81114 0.0
H269 H 0.66031 0.3305 0.69926 0.0
H270 H 0.71423 0.32757 0.69548 0.0
H271 H 0.84727 0.21705 0.63329 0.0
H272 H 0.82762 0.23702 0.70074 0.0
H273 H 0.78971 0.3058 0.62829 0.0
H274 H 0.80912 0.2861 0.56109 0.0
H275 H 0.75068 0.28239 0.68485 0.0
H276 H 0.85016 0.31631 0.68831 0.0
H277 H 0.90392 0.31149 0.68671 0.0
H278 H 0.901 0.25899 0.80025 0.0
H279 H 0.84715 0.2632 0.80218 0.0
C280 C 0.7195 0.34963 0.85933 0.0
C281 C 0.71866 0.33237 0.89644 0.0
C282 C 0.73752 0.34255 0.8243 0.0
C283 C 0.75509 0.31825 0.82602 0.0
C284 C 0.75674 0.30288 0.86482 0.0
C285 C 0.73858 0.3098 0.89971 0.0
C286 C 0.76837 0.3067 0.78589 0.0
C287 C 0.79881 0.30294 0.78379 0.0
C288 C 0.75077 0.2989 0.74995 0.0
C289 C 0.71827 0.30026 0.75158 0.0
C290 C 0.70267 0.28564 0.7839 0.0
C291 C 0.67215 0.28765 0.78605 0.0
C292 C 0.65692 0.30392 0.75569 0.0
C293 C 0.67216 0.31805 0.72293 0.0
C294 C 0.70271 0.31624 0.72078 0.0
C295 C 0.83487 0.23649 0.6318 0.0
C296 C 0.82978 0.24998 0.59182 0.0
C297 C 0.82374 0.24792 0.67035 0.0
C298 C 0.80733 0.27299 0.66954 0.0
C299 C 0.80229 0.28645 0.62968 0.0
C300 C 0.8135 0.27516 0.59129 0.0
C301 C 0.79468 0.28497 0.70992 0.0
C302 C 0.7642 0.28857 0.71224 0.0
C303 C 0.81223 0.2923 0.74614 0.0
C304 C 0.84461 0.28984 0.74513 0.0
C305 C 0.86096 0.30355 0.71273 0.0
C306 C 0.89146 0.30096 0.7118 0.0
C307 C 0.90587 0.28488 0.74329 0.0
C308 C 0.88981 0.27141 0.77584 0.0
C309 C 0.85931 0.27391 0.77689 0.0
H310 H 0.92948 0.2829 0.74252 0.0
H311 H 0.63328 0.30538 0.75733 0.0
H312 H 0.84473 0.79276 0.12933 0.0
H313 H 0.82223 0.77206 0.19417 0.0
H314 H 0.79415 0.70041 0.11873 0.0
H315 H 0.81637 0.7209 0.05401 0.0
H316 H 0.74982 0.72221 0.16632 0.0
H317 H 0.84936 0.6938 0.19124 0.0
H318 H 0.90257 0.70099 0.1992 0.0
H319 H 0.88769 0.75645 0.3071 0.0
H320 H 0.83434 0.74989 0.29941 0.0
H321 H 0.6884 0.65066 0.34417 0.0
H322 H 0.72198 0.6587 0.28351 0.0
H323 H 0.75951 0.7296 0.35127 0.0
H324 H 0.72685 0.72123 0.41228 0.0
H325 H 0.80062 0.70428 0.30614 0.0
H326 H 0.70247 0.73724 0.27793 0.0
H327 H 0.64889 0.73292 0.26974 0.0
H328 H 0.66075 0.67214 0.16801 0.0
H329 H 0.71441 0.67578 0.17606 0.0
C330 C 0.83403 0.77246 0.12668 0.0
C331 C 0.83231 0.75852 0.08647 0.0
C332 C 0.82127 0.76061 0.16378 0.0
C333 C 0.80661 0.7346 0.16134 0.0
C334 C 0.80532 0.72048 0.12139 0.0
C335 C 0.81812 0.73224 0.08442 0.0
C336 C 0.79127 0.72276 0.19976 0.0
C337 C 0.76104 0.71779 0.19666 0.0
C338 C 0.80575 0.71767 0.23966 0.0
C339 C 0.83783 0.72153 0.2445 0.0
C340 C 0.85742 0.7077 0.21645 0.0
C341 C 0.88761 0.71163 0.22096 0.0
C342 C 0.8985 0.72922 0.25357 0.0
C343 C 0.87922 0.74285 0.28183 0.0
C344 C 0.849 0.73901 0.27744 0.0
C345 C 0.70435 0.66746 0.34669 0.0
C346 C 0.70459 0.68555 0.38288 0.0
C347 C 0.72339 0.67219 0.3118 0.0
C348 C 0.74275 0.69524 0.31232 0.0
C349 C 0.74465 0.71183 0.34989 0.0
C350 C 0.72582 0.70703 0.3848 0.0
C351 C 0.75914 0.70378 0.27271 0.0
C352 C 0.78949 0.7083 0.27561 0.0
C353 C 0.74471 0.70882 0.23267 0.0
C354 C 0.71244 0.70654 0.22794 0.0
C355 C 0.69364 0.72278 0.25406 0.0
C356 C 0.66327 0.72049 0.24941 0.0
C357 C 0.65144 0.70224 0.21842 0.0
C358 C 0.66995 0.68624 0.19204 0.0
C359 C 0.70034 0.6884 0.19664 0.0
H360 H 0.62793 0.70056 0.21471 0.0
H361 H 0.92188 0.73224 0.257 0.0
H362 H 0.69096 0.78711 0.5556 0.0
H363 H 0.71334 0.80664 0.62091 0.0
H364 H 0.67931 0.73744 0.69633 0.0
H365 H 0.65674 0.71756 0.63073 0.0
H366 H 0.67384 0.79015 0.73812 0.0
H367 H 0.74774 0.73507 0.66726 0.0
H368 H 0.77896 0.71945 0.60659 0.0
H369 H 0.81535 0.80259 0.59604 0.0
H370 H 0.78399 0.81883 0.65625 0.0
H371 H 0.77298 0.79297 0.91698 0.0
H372 H 0.73987 0.78428 0.85637 0.0
H373 H 0.78182 0.85031 0.78297 0.0
H374 H 0.81542 0.85894 0.84347 0.0
H375 H 0.78184 0.8016 0.73952 0.0
H376 H 0.70994 0.85593 0.81449 0.0
H377 H 0.67942 0.87066 0.87643 0.0
H378 H 0.6399 0.78862 0.88089 0.0
H379 H 0.67049 0.77324 0.81934 0.0
C380 C 0.688 0.77606 0.58607 0.0
C381 C 0.67218 0.75065 0.5879 0.0
C382 C 0.70088 0.78727 0.62338 0.0
C383 C 0.69822 0.77336 0.66336 0.0
C384 C 0.68163 0.74848 0.66573 0.0
C385 C 0.66885 0.73711 0.62823 0.0
C386 C 0.71378 0.78434 0.70216 0.0
C387 C 0.69748 0.79241 0.73871 0.0
C388 C 0.74455 0.7879 0.70242 0.0
C389 C 0.76323 0.77826 0.66591 0.0
C390 C 0.76216 0.7501 0.6517 0.0
C391 C 0.77993 0.74112 0.61746 0.0
C392 C 0.79905 0.76004 0.59738 0.0
C393 C 0.80048 0.78798 0.61156 0.0
C394 C 0.78271 0.79708 0.64575 0.0
C395 C 0.77471 0.8062 0.88843 0.0
C396 C 0.79707 0.82649 0.88497 0.0
C397 C 0.75562 0.80126 0.85378 0.0
C398 C 0.75837 0.81659 0.81503 0.0
C399 C 0.77935 0.83819 0.81256 0.0
C400 C 0.79843 0.84323 0.84731 0.0
C401 C 0.74195 0.80767 0.77566 0.0
C402 C 0.75815 0.79973 0.73894 0.0
C403 C 0.71114 0.8042 0.77542 0.0
C404 C 0.69271 0.81336 0.81249 0.0
C405 C 0.69492 0.84094 0.8289 0.0
C406 C 0.67757 0.84943 0.8639 0.0
C407 C 0.65778 0.83057 0.88265 0.0
C408 C 0.65526 0.8032 0.86636 0.0
C409 C 0.67257 0.7946 0.83137 0.0
H410 H 0.64436 0.83719 0.90974 0.0
H411 H 0.81282 0.75303 0.57091 0.0
H412 H 0.3251 0.79234 0.93904 0.0
H413 H 0.30109 0.81007 0.87369 0.0
H414 H 0.31645 0.73059 0.80971 0.0
H415 H 0.34097 0.71272 0.87509 0.0
H416 H 0.32524 0.77535 0.75481 0.0
H417 H 0.25056 0.74459 0.85461 0.0
H418 H 0.2247 0.74307 0.92483 0.0
H419 H 0.20717 0.83182 0.91596 0.0
H420 H 0.23329 0.83393 0.84592 0.0
H421 H 0.21451 0.77601 0.59436 0.0
H422 H 0.24905 0.76815 0.6532 0.0
H423 H 0.2234 0.84694 0.71185 0.0
H424 H 0.1879 0.85465 0.6533 0.0
H425 H 0.22198 0.80649 0.76973 0.0
H426 H 0.29302 0.8365 0.66616 0.0
H427 H 0.3185 0.83765 0.59563 0.0
H428 H 0.34274 0.75074 0.6107 0.0
H429 H 0.31706 0.74893 0.68106 0.0
C430 C 0.32365 0.77865 0.91098 0.0
C431 C 0.33475 0.751 0.91241 0.0
C432 C 0.30983 0.78884 0.87365 0.0
C433 C 0.30654 0.77152 0.83704 0.0
C434 C 0.31867 0.7443 0.83765 0.0
C435 C 0.33262 0.73409 0.87505 0.0
C436 C 0.2893 0.78141 0.79897 0.0
C437 C 0.30258 0.78194 0.75791 0.0
C438 C 0.25997 0.79073 0.80326 0.0
C439 C 0.24416 0.78947 0.84527 0.0
C440 C 0.24139 0.76382 0.8678 0.0
C441 C 0.22665 0.76284 0.90754 0.0
C442 C 0.21438 0.78735 0.92491 0.0
C443 C 0.21674 0.81286 0.9025 0.0
C444 C 0.23149 0.81396 0.86278 0.0
C445 C 0.21649 0.79201 0.61927 0.0
C446 C 0.19823 0.81595 0.61909 0.0
C447 C 0.23648 0.78752 0.6529 0.0
C448 C 0.23908 0.80703 0.68692 0.0
C449 C 0.22181 0.83157 0.68594 0.0
C450 C 0.20162 0.83604 0.65231 0.0
C451 C 0.25781 0.80039 0.72522 0.0
C452 C 0.24476 0.80032 0.76648 0.0
C453 C 0.28733 0.79151 0.72102 0.0
C454 C 0.30293 0.79254 0.67879 0.0
C455 C 0.30361 0.81757 0.65431 0.0
C456 C 0.31812 0.81835 0.61438 0.0
C457 C 0.33218 0.79427 0.59866 0.0
C458 C 0.33182 0.76937 0.62291 0.0
C459 C 0.31733 0.76847 0.66285 0.0
H460 H 0.34339 0.79491 0.56773 0.0
H461 H 0.20297 0.78655 0.95567 0.0
H462 H 0.31701 0.65986 0.16342 0.0
H463 H 0.28116 0.66949 0.22064 0.0
H464 H 0.24186 0.7341 0.14107 0.0
H465 H 0.27751 0.72477 0.08402 0.0
H466 H 0.2575 0.75397 0.21975 0.0
H467 H 0.20486 0.67386 0.16475 0.0
H468 H 0.19877 0.62442 0.14185 0.0
H469 H 0.22208 0.59624 0.26984 0.0
H470 H 0.22871 0.64552 0.29337 0.0
H471 H 0.14868 0.79384 0.37057 0.0
H472 H 0.17209 0.77661 0.30417 0.0
H473 H 0.207 0.70554 0.37483 0.0
H474 H 0.18286 0.72204 0.44065 0.0
H475 H 0.19137 0.68857 0.29811 0.0
H476 H 0.24844 0.76601 0.35219 0.0
H477 H 0.25745 0.81462 0.3772 0.0
H478 H 0.22953 0.84674 0.25349 0.0
H479 H 0.22 0.79831 0.22793 0.0
C480 C 0.30026 0.67559 0.15762 0.0
C481 C 0.30036 0.69172 0.11926 0.0
C482 C 0.27976 0.68109 0.1904 0.0
C483 C 0.25891 0.70265 0.18523 0.0
C484 C 0.25786 0.71751 0.14589 0.0
C485 C 0.27826 0.71207 0.11324 0.0
C486 C 0.24021 0.71176 0.22215 0.0
C487 C 0.24262 0.73978 0.23636 0.0
C488 C 0.22157 0.69304 0.24477 0.0
C489 C 0.21754 0.66339 0.23071 0.0
C490 C 0.20893 0.65712 0.18792 0.0
C491 C 0.20533 0.62912 0.17485 0.0
C492 C 0.2101 0.6072 0.20434 0.0
C493 C 0.21842 0.61324 0.24702 0.0
C494 C 0.22207 0.64121 0.26025 0.0
C495 C 0.16112 0.77441 0.37182 0.0
C496 C 0.16406 0.75943 0.41096 0.0
C497 C 0.17461 0.76463 0.33388 0.0
C498 C 0.1918 0.74 0.33457 0.0
C499 C 0.19392 0.72458 0.37335 0.0
C500 C 0.18015 0.73413 0.41107 0.0
C501 C 0.20859 0.73084 0.29559 0.0
C502 C 0.206 0.70282 0.28117 0.0
C503 C 0.22747 0.74944 0.27305 0.0
C504 C 0.23319 0.77857 0.28833 0.0
C505 C 0.24401 0.78346 0.33044 0.0
C506 C 0.24925 0.81097 0.34469 0.0
C507 C 0.24398 0.83376 0.31699 0.0
C508 C 0.23354 0.82907 0.27493 0.0
C509 C 0.22823 0.8016 0.26054 0.0
H510 H 0.24805 0.85504 0.32808 0.0
H511 H 0.2073 0.58554 0.19416 0.0
H512 H 0.02427 0.21564 0.0748 0.0
H513 H 0.98892 0.23175 0.12904 0.0
H514 H 0.05744 0.27903 0.19291 0.0
H515 H 0.09176 0.26499 0.13644 0.0
H516 H 0.98963 0.2153 0.20304 0.0
H517 H 0.03499 0.32305 0.26894 0.0
H518 H 0.05271 0.36824 0.23948 0.0
H519 H 0.0058 0.35332 0.12078 0.0
H520 H 0.98744 0.30823 0.14971 0.0
H521 H 0.96783 0.21222 0.41646 0.0
H522 H 0.99573 0.22775 0.35329 0.0
H523 H 0.92786 0.28758 0.32159 0.0
H524 H 0.90028 0.27281 0.38592 0.0
H525 H 0.98495 0.30344 0.28949 0.0
H526 H 0.91662 0.22775 0.28251 0.0
H527 H 0.89279 0.18471 0.31013 0.0
H528 H 0.97413 0.13971 0.30014 0.0
H529 H 0.99856 0.18266 0.27305 0.0
C530 C 0.03123 0.23058 0.09933 0.0
C531 C 0.0605 0.23931 0.10153 0.0
C532 C 0.01116 0.23962 0.13055 0.0
C533 C 0.02036 0.25655 0.16554 0.0
C534 C 0.04933 0.26663 0.16597 0.0
C535 C 0.06909 0.25846 0.13375 0.0
C536 C 1.0016 0.25939 0.20488 0.0
C537 C 0.98835 0.23484 0.22119 0.0
C538 C 0.99925 0.28484 0.22892 0.0
C539 C 0.00997 0.31212 0.21146 0.0
C540 C 0.02829 0.32947 0.23666 0.0
C541 C 0.03849 0.35506 0.22001 0.0
C542 C 0.03044 0.36362 0.17825 0.0
C543 C 0.0121 0.34663 0.15308 0.0
C544 C 1.00183 0.32102 0.16956 0.0
C545 C 0.95958 0.22967 0.39728 0.0
C546 C 0.93182 0.2411 0.40559 0.0
C547 C 0.97549 0.23852 0.3612 0.0
C548 C 0.96344 0.25828 0.3323 0.0
C549 C 0.93746 0.27227 0.3435 0.0
C550 C 0.92174 0.26379 0.38025 0.0
C551 C 0.97447 0.2593 0.28719 0.0
C552 C 0.98603 0.28434 0.27023 0.0
C553 C 0.97423 0.23468 0.26138 0.0
C554 C 0.95945 0.20845 0.276 0.0
C555 C 0.92944 0.20869 0.28633 0.0
C556 C 0.91583 0.18433 0.30192 0.0
C557 C 0.93195 0.1595 0.30697 0.0
C558 C 0.96168 0.15896 0.29621 0.0
C559 C 0.97541 0.1833 0.28067 0.0
H560 H 0.92141 0.14067 0.31917 0.0
H561 H 0.03837 0.38343 0.16542 0.0
H562 H 0.41522 0.23591 0.61964 0.0
H563 H 0.45011 0.21881 0.67436 0.0
H564 H 0.50901 0.28667 0.64187 0.0
H565 H 0.47426 0.3039 0.58784 0.0
H566 H 0.53885 0.23841 0.66759 0.0
H567 H 0.45754 0.29795 0.71346 0.0
H568 H 0.40531 0.30956 0.72332 0.0
H569 H 0.39357 0.23438 0.79909 0.0
H570 H 0.44556 0.22205 0.78874 0.0
H571 H 0.59565 0.31938 0.83228 0.0
H572 H 0.56799 0.29755 0.77396 0.0
H573 H 0.54204 0.23021 0.85978 0.0
H574 H 0.57056 0.25194 0.91907 0.0
H575 H 0.49533 0.25822 0.81201 0.0
H576 H 0.58501 0.21179 0.78425 0.0
H577 H 0.63847 0.20723 0.77592 0.0
H578 H 0.63642 0.26389 0.66725 0.0
H579 H 0.58305 0.26935 0.67546 0.0
C580 C 0.43614 0.24644 0.62302 0.0
C581 C 0.44201 0.27137 0.59995 0.0
C582 C 0.45598 0.23672 0.65436 0.0
C583 C 0.48195 0.2517 0.6625 0.0
C584 C 0.48913 0.27478 0.6361 0.0
C585 C 0.46921 0.28469 0.60536 0.0
C586 C 0.49914 0.24704 0.70267 0.0
C587 C 0.52938 0.2423 0.69931 0.0
C588 C 0.48659 0.25165 0.74411 0.0
C589 C 0.45524 0.25882 0.74969 0.0
C590 C 0.44369 0.28372 0.73172 0.0
C591 C 0.41415 0.29046 0.73743 0.0
C592 C 0.39606 0.27267 0.76163 0.0
C593 C 0.40749 0.24809 0.78011 0.0
C594 C 0.43699 0.24117 0.77426 0.0
C595 C 0.58405 0.29995 0.83903 0.0
C596 C 0.58498 0.28753 0.88046 0.0
C597 C 0.56854 0.28732 0.80543 0.0
C598 C 0.55335 0.2621 0.81244 0.0
C599 C 0.55394 0.24956 0.85376 0.0
C600 C 0.57007 0.262 0.8875 0.0
C601 C 0.53522 0.2507 0.77674 0.0
C602 C 0.50474 0.25273 0.78079 0.0
C603 C 0.5477 0.24423 0.73588 0.0
C604 C 0.57989 0.24094 0.73049 0.0
C605 C 0.59594 0.22342 0.75871 0.0
C606 C 0.62626 0.22066 0.75398 0.0
C607 C 0.64081 0.23516 0.72095 0.0
C608 C 0.62508 0.25252 0.69264 0.0
C609 C 0.59478 0.25546 0.69733 0.0
H610 H 0.66429 0.23306 0.71742 0.0
H611 H 0.37325 0.27807 0.76625 0.0
H612 H 0.02955 0.81245 0.59687 0.0
H613 H 0.99786 0.79485 0.65433 0.0
H614 H 0.04511 0.71608 0.6551 0.0
H615 H 0.07714 0.73371 0.59728 0.0
H616 H 0.962 0.75102 0.67605 0.0
H617 H 0.06023 0.70325 0.76324 0.0
H618 H 0.1143 0.70406 0.76084 0.0
H619 H 0.11229 0.78898 0.71254 0.0
H620 H 0.05828 0.78874 0.71525 0.0
H621 H 0.90757 0.73788 0.89046 0.0
H622 H 0.9356 0.71973 0.82857 0.0
H623 H 0.99289 0.79186 0.8357 0.0
H624 H 0.96501 0.81007 0.89703 0.0
H625 H 0.02235 0.74433 0.80987 0.0
H626 H 0.93229 0.79563 0.77665 0.0
H627 H 0.87885 0.80319 0.77868 0.0
H628 H 0.86506 0.72261 0.71863 0.0
H629 H 0.91848 0.7144 0.71691 0.0
C630 C 0.0326 0.79103 0.60824 0.0
C631 C 0.05609 0.77462 0.59315 0.0
C632 C 0.01436 0.78091 0.64095 0.0
C633 C 0.01946 0.75434 0.65946 0.0
C634 C 0.04099 0.73674 0.64141 0.0
C635 C 0.05918 0.7468 0.60829 0.0
C636 C 0.00573 0.74776 0.70183 0.0
C637 C 0.97512 0.74871 0.70525 0.0
C638 C 0.02288 0.74526 0.74 0.0
C639 C 0.0553 0.7458 0.73888 0.0
C640 C 0.07138 0.72208 0.75219 0.0
C641 C 0.10199 0.72245 0.7508 0.0
C642 C 0.11672 0.74652 0.73638 0.0
C643 C 0.10087 0.77032 0.72355 0.0
C644 C 0.07027 0.77007 0.72501 0.0
C645 C 0.92681 0.74928 0.87981 0.0
C646 C 0.93398 0.77554 0.89817 0.0
C647 C 0.94268 0.73897 0.84434 0.0
C648 C 0.96604 0.75466 0.82724 0.0
C649 C 0.97493 0.77942 0.84838 0.0
C650 C 0.95893 0.78986 0.88335 0.0
C651 C 0.97865 0.74812 0.78414 0.0
C652 C 0.00909 0.74496 0.78062 0.0
C653 C 0.96137 0.74939 0.74594 0.0
C654 C 0.9293 0.75421 0.74728 0.0
C655 C 0.91784 0.77941 0.7643 0.0
C656 C 0.88757 0.78383 0.76532 0.0
C657 C 0.86856 0.76334 0.74894 0.0
C658 C 0.8798 0.73841 0.73145 0.0
C659 C 0.91007 0.73385 0.73048 0.0
H660 H 0.84513 0.76683 0.74965 0.0
H661 H 0.14041 0.74675 0.73525 0.0
H662 H 0.40728 0.76277 0.13609 0.0
H663 H 0.4415 0.77657 0.19293 0.0
H664 H 0.51205 0.73666 0.12246 0.0
H665 H 0.47694 0.72069 0.06759 0.0
H666 H 0.51356 0.71697 0.1946 0.0
H667 H 0.50901 0.81196 0.15161 0.0
H668 H 0.48749 0.85707 0.12789 0.0
H669 H 0.44088 0.86374 0.24845 0.0
H670 H 0.46177 0.81847 0.2727 0.0
H671 H 0.59776 0.7719 0.3868 0.0
H672 H 0.57036 0.78717 0.32244 0.0
H673 H 0.50671 0.72173 0.34533 0.0
H674 H 0.53441 0.70587 0.40861 0.0
H675 H 0.51288 0.80089 0.29071 0.0
H676 H 0.50698 0.68052 0.25831 0.0
H677 H 0.53377 0.63767 0.28047 0.0
H678 H 0.61159 0.6866 0.30136 0.0
H679 H 0.58551 0.72959 0.27826 0.0
C680 C 0.43032 0.75791 0.13209 0.0
C681 C 0.43967 0.74084 0.09767 0.0
C682 C 0.45001 0.76595 0.16452 0.0
C683 C 0.47961 0.7578 0.16227 0.0
C684 C 0.48936 0.74304 0.12534 0.0
C685 C 0.46942 0.73412 0.09375 0.0
C686 C 0.4987 0.76002 0.20144 0.0
C687 C 0.51367 0.73563 0.2149 0.0
C688 C 0.49955 0.78437 0.22822 0.0
C689 C 0.4869 0.81169 0.2139 0.0
C690 C 0.49403 0.82293 0.17298 0.0
C691 C 0.48195 0.84856 0.15944 0.0
C692 C 0.46281 0.86325 0.18662 0.0
C693 C 0.45573 0.85235 0.22744 0.0
C694 C 0.46774 0.82673 0.24113 0.0
C695 C 0.57722 0.76161 0.37917 0.0
C696 C 0.56837 0.73744 0.40212 0.0
C697 C 0.56161 0.77036 0.34239 0.0
C698 C 0.53696 0.75513 0.3287 0.0
C699 C 0.52597 0.73347 0.35512 0.0
C700 C 0.54176 0.72444 0.39127 0.0
C701 C 0.52614 0.75767 0.28356 0.0
C702 C 0.51299 0.78272 0.26935 0.0
C703 C 0.5279 0.73438 0.25506 0.0
C704 C 0.54417 0.70832 0.2669 0.0
C705 C 0.52988 0.68209 0.26722 0.0
C706 C 0.54495 0.65778 0.27998 0.0
C707 C 0.57434 0.65943 0.29241 0.0
C708 C 0.58881 0.68536 0.2918 0.0
C709 C 0.5739 0.7097 0.27883 0.0
H710 H 0.58592 0.64061 0.30248 0.0
H711 H 0.45348 0.88308 0.17608 0.0
H712 H 0.07698 0.08452 0.10355 0.0
H713 H 0.04534 0.04421 0.08875 0.0
H714 H 0.04472 0.06539 0.95254 0.0
H715 H 0.07643 0.10603 0.96719 0.0
H716 H 0.98967 0.05564 0.9831 0.0
H717 H 0.08213 0.0083 0.98824 0.0
H718 H 0.13002 0.99489 0.01904 0.0
H719 H 0.08733 0.95928 0.13044 0.0
H720 H 0.03917 0.97283 0.10057 0.0
H721 H 0.9233 0.92945 0.90747 0.0
H722 H 0.95558 0.96926 0.92223 0.0
H723 H 0.95709 0.94728 0.05812 0.0
H724 H 0.92483 0.90703 0.04347 0.0
H725 H 0.01175 0.95742 0.02779 0.0
H726 H 0.91936 1.00481 0.02294 0.0
H727 H 0.87141 0.01829 0.99241 0.0
H728 H 0.91387 0.05393 0.88085 0.0
H729 H 0.96209 0.04031 0.91045 0.0
C730 C 0.07046 0.08045 0.07031 0.0
C731 C 0.0793 0.09852 0.03653 0.0
C732 C 0.05238 0.0573 0.06189 0.0
C733 C 0.04271 0.05163 0.0195 0.0
C734 C 0.05191 0.06933 0.98552 0.0
C735 C 0.07018 0.09246 0.9939 0.0
C736 C 0.02197 0.02799 0.01115 0.0
C737 C 0.9947 0.03408 0.99222 0.0
C738 C 0.02812 0.99998 0.02425 0.0
C739 C 0.05705 0.99184 0.04235 0.0
C740 C 0.08296 0.99784 0.01949 0.0
C741 C 0.11016 0.99016 0.03674 0.0
C742 C 0.11173 0.97631 0.07673 0.0
C743 C 0.08609 0.97005 0.0995 0.0
C744 C 0.05883 0.9777 0.0824 0.0
C745 C 0.9302 0.9332 0.94063 0.0
C746 C 0.9214 0.91504 0.97432 0.0
C747 C 0.94864 0.95608 0.94903 0.0
C748 C 0.95868 0.96144 0.99134 0.0
C749 C 0.94963 0.94358 0.02521 0.0
C750 C 0.93104 0.92068 0.01684 0.0
C751 C 0.97945 0.98506 0.9997 0.0
C752 C 0.00672 0.97898 0.01865 0.0
C753 C 0.97329 0.01309 0.98667 0.0
C754 C 0.94433 0.02128 0.96873 0.0
C755 C 0.91846 0.0153 0.99172 0.0
C756 C 0.89124 0.02301 0.97462 0.0
C757 C 0.88959 0.03689 0.93466 0.0
C758 C 0.91518 0.04315 0.91177 0.0
C759 C 0.94247 0.03546 0.92872 0.0
H760 H 0.86849 0.04285 0.92148 0.0
H761 H 0.1328 0.97038 0.09003 0.0
H762 H 0.58342 0.60013 0.54184 0.0
H763 H 0.55146 0.55974 0.55673 0.0
H764 H 0.5401 0.5466 0.41915 0.0
H765 H 0.57226 0.58641 0.4041 0.0
H766 H 0.49498 0.55217 0.53763 0.0
H767 H 0.52838 0.47756 0.39732 0.0
H768 H 0.57223 0.46544 0.35447 0.0
H769 H 0.62755 0.49177 0.45975 0.0
H770 H 0.58405 0.50369 0.50343 0.0
H771 H 0.42008 0.40917 0.46979 0.0
H772 H 0.45163 0.44978 0.45427 0.0
H773 H 0.46427 0.46289 0.5916 0.0
H774 H 0.4326 0.42282 0.60729 0.0
H775 H 0.50857 0.45737 0.47282 0.0
H776 H 0.4753 0.53207 0.61309 0.0
H777 H 0.43152 0.5441 0.65614 0.0
H778 H 0.37604 0.51748 0.55122 0.0
H779 H 0.41947 0.50564 0.50734 0.0
C780 C 0.57443 0.58839 0.51479 0.0
C781 C 0.58053 0.59647 0.47179 0.0
C782 C 0.55603 0.56539 0.52333 0.0
C783 C 0.54349 0.54991 0.48909 0.0
C784 C 0.54984 0.55781 0.44617 0.0
C785 C 0.56822 0.58071 0.43763 0.0
C786 C 0.52292 0.52619 0.49805 0.0
C787 C 0.49822 0.53132 0.524 0.0
C788 C 0.5266 0.49915 0.47928 0.0
C789 C 0.55293 0.49179 0.45345 0.0
C790 C 0.5499 0.48067 0.41138 0.0
C791 C 0.57469 0.47385 0.38694 0.0
C792 C 0.60265 0.47792 0.40432 0.0
C793 C 0.60588 0.48873 0.44625 0.0
C794 C 0.58116 0.49557 0.47084 0.0
C795 C 0.42923 0.42097 0.49666 0.0
C796 C 0.42369 0.41277 0.53978 0.0
C797 C 0.44741 0.44409 0.48775 0.0
C798 C 0.46022 0.45959 0.52174 0.0
C799 C 0.45433 0.45163 0.56478 0.0
C800 C 0.43622 0.42859 0.57369 0.0
C801 C 0.48065 0.48335 0.51244 0.0
C802 C 0.50532 0.47823 0.48642 0.0
C803 C 0.47696 0.51039 0.53118 0.0
C804 C 0.45067 0.5177 0.55712 0.0
C805 C 0.45376 0.52888 0.59915 0.0
C806 C 0.429 0.53565 0.62371 0.0
C807 C 0.40102 0.53147 0.60648 0.0
C808 C 0.39773 0.5206 0.56459 0.0
C809 C 0.42241 0.51381 0.5399 0.0
H810 H 0.38188 0.53672 0.62555 0.0
H811 H 0.62182 0.47264 0.38534 0.0
H812 H 0.42787 0.60609 0.96692 0.0
H813 H 0.46113 0.56645 0.95425 0.0
H814 H 0.45954 0.54651 0.09093 0.0
H815 H 0.42691 0.5864 0.10389 0.0
H816 H 0.51364 0.54579 0.06362 0.0
H817 H 0.42387 0.50524 0.013 0.0
H818 H 0.37847 0.50247 0.96977 0.0
H819 H 0.42868 0.50444 0.85201 0.0
H820 H 0.47439 0.50759 0.89455 0.0
H821 H 0.58421 0.41101 0.04472 0.0
H822 H 0.54967 0.4495 0.05905 0.0
H823 H 0.55444 0.47484 0.92474 0.0
H824 H 0.58872 0.43653 0.91016 0.0
H825 H 0.4983 0.47203 0.95187 0.0
H826 H 0.58807 0.5131 0.00353 0.0
H827 H 0.63319 0.51544 0.04745 0.0
H828 H 0.58227 0.51169 0.16444 0.0
H829 H 0.53683 0.50894 0.12117 0.0
C830 C 0.43428 0.59303 0.99418 0.0
C831 C 0.42468 0.59944 0.03641 0.0
C832 C 0.45329 0.5703 0.9869 0.0
C833 C 0.46281 0.55327 0.0216 0.0
C834 C 0.45266 0.55931 0.06361 0.0
C835 C 0.43385 0.58209 0.07094 0.0
C836 C 0.48424 0.52993 0.01458 0.0
C837 C 0.51002 0.52943 0.03961 0.0
C838 C 0.47998 0.50883 0.98265 0.0
C839 C 0.45254 0.50694 0.95697 0.0
C840 C 0.42522 0.50531 0.97788 0.0
C841 C 0.39943 0.50363 0.95351 0.0
C842 C 0.40068 0.50336 0.90818 0.0
C843 C 0.42774 0.50469 0.88713 0.0
C844 C 0.4536 0.5064 0.91135 0.0
C845 C 0.57815 0.42497 0.01836 0.0
C846 C 0.58931 0.42067 0.97631 0.0
C847 C 0.5584 0.44699 0.02659 0.0
C848 C 0.54946 0.46516 0.99297 0.0
C849 C 0.56089 0.46109 0.95117 0.0
C850 C 0.58066 0.43921 0.94296 0.0
C851 C 0.52763 0.48797 1.00086 0.0
C852 C 0.50182 0.48836 0.97596 0.0
C853 C 0.53178 0.50888 0.03304 0.0
C854 C 0.55907 0.5105 0.0591 0.0
C855 C 0.5865 0.51252 0.03862 0.0
C856 C 0.61214 0.51398 0.06339 0.0
C857 C 0.6106 0.51363 0.1087 0.0
C858 C 0.58342 0.5119 0.12933 0.0
C859 C 0.55772 0.51042 0.1047 0.0
H860 H 0.63047 0.51477 0.12783 0.0
H861 H 0.38069 0.50205 0.88936 0.0
H862 H 0.07157 0.923 0.59793 0.0
H863 H 0.03986 0.96331 0.58342 0.0
H864 H 0.05096 0.951 0.44571 0.0
H865 H 0.08296 0.91043 0.45999 0.0
H866 H 0.05258 0.00748 0.46878 0.0
H867 H 0.99015 0.92797 0.49322 0.0
H868 H 0.97156 0.88651 0.53281 0.0
H869 H 0.94949 0.93889 0.64164 0.0
H870 H 0.96838 0.98064 0.60293 0.0
H871 H 0.93231 0.09058 0.40084 0.0
H872 H 0.96492 0.05072 0.41399 0.0
H873 H 0.95236 0.05994 0.55203 0.0
H874 H 0.91931 0.09987 0.53908 0.0
H875 H 0.95157 1.00484 0.52805 0.0
H876 H 0.01414 0.08435 0.50382 0.0
H877 H 0.03267 0.12586 0.46427 0.0
H878 H 0.05446 0.07361 0.35517 0.0
H879 H 0.03565 0.03182 0.39385 0.0
C880 C 0.06758 0.92896 0.56449 0.0
C881 C 0.07974 0.91333 0.5301 0.0
C882 C 0.04929 0.95199 0.55627 0.0
C883 C 0.04261 0.95994 0.51348 0.0
C884 C 0.05569 0.94517 0.479 0.0
C885 C 0.07398 0.92199 0.48721 0.0
C886 C 0.02128 0.98308 0.50501 0.0
C887 C 0.03037 0.00673 0.48121 0.0
C888 C 0.99246 0.98242 0.52203 0.0
C889 C 0.98095 0.95739 0.54533 0.0
C890 C 0.98156 0.93062 0.52573 0.0
C891 C 0.97093 0.90707 0.54799 0.0
C892 C 0.95943 0.91005 0.58976 0.0
C893 C 0.95845 0.93661 0.60931 0.0
C894 C 0.96909 0.96023 0.58721 0.0
C895 C 0.93624 0.08405 0.43405 0.0
C896 C 0.92323 0.09854 0.46895 0.0
C897 C 0.95508 0.06131 0.44151 0.0
C898 C 0.96153 0.05257 0.48403 0.0
C899 C 0.94783 0.06637 0.51893 0.0
C900 C 0.92894 0.0892 0.51149 0.0
C901 C 0.98286 0.02932 0.49192 0.0
C902 C 0.97377 1.00562 0.5156 0.0
C903 C 0.01168 0.02995 0.47481 0.0
C904 C 0.02322 0.055 0.45158 0.0
C905 C 0.02268 0.08174 0.47127 0.0
C906 C 0.03326 0.10532 0.44903 0.0
C907 C 0.04465 0.10239 0.40718 0.0
C908 C 0.04558 0.07585 0.38756 0.0
C909 C 0.03498 0.05221 0.40964 0.0
H910 H 0.05283 0.12066 0.39001 0.0
H911 H 0.95121 0.8918 0.60694 0.0
loop_
_geom_bond_atom_site_label_1
_geom_bond_atom_site_label_2
_geom_bond_distance
_geom_bond_site_symmetry_2
_ccdc_geom_bond_type
O0 Cd1 2.223 . S
O0 C8 1.315 . S
Cd1 O0 2.223 . S
Cd1 O4 2.297 1_554 S
Cd1 O5 2.439 1_554 S
Cd1 O11 2.240 . S
Cd2 O3 2.240 . S
Cd2 O10 2.223 . S
Cd2 O12 2.297 . S
Cd2 O13 2.439 . S
O3 Cd2 2.240 . S
O3 C8 1.279 . S
O4 Cd1 2.297 1_556 S
O4 C6 1.247 . S
O5 Cd1 2.439 1_556 S
O5 C6 1.208 . S
C6 O4 1.247 . S
C6 O5 1.208 . S
C7 O12 1.247 . S
C7 O13 1.208 . S
C8 O0 1.315 . S
C8 O3 1.279 . S
C9 O10 1.315 . S
C9 O11 1.279 . S
O10 Cd2 2.223 . S
O10 C9 1.315 . S
O11 Cd1 2.240 . S
O11 C9 1.279 . S
O12 Cd2 2.297 . S
O12 C7 1.247 . S
O13 Cd2 2.439 . S
O13 C7 1.208 . S
O14 Cd15 2.223 . S
O14 C22 1.315 . S
Cd15 O14 2.223 . S
Cd15 O18 2.297 . S
Cd15 O19 2.439 . S
Cd15 O25 2.240 . S
Cd16 O17 2.240 . S
Cd16 O24 2.223 . S
Cd16 O26 2.297 . S
Cd16 O27 2.439 . S
O17 Cd16 2.240 . S
O17 C22 1.279 . S
O18 Cd15 2.297 . S
O18 C20 1.247 . S
O19 Cd15 2.439 . S
O19 C20 1.208 . S
C20 O18 1.247 . S
C20 O19 1.208 . S
C21 O26 1.247 . S
C21 O27 1.208 . S
C22 O14 1.315 . S
C22 O17 1.279 . S
C23 O24 1.315 . S
C23 O25 1.279 . S
O24 Cd16 2.223 . S
O24 C23 1.315 . S
O25 Cd15 2.240 . S
O25 C23 1.279 . S
O26 Cd16 2.297 . S
O26 C21 1.247 . S
O27 Cd16 2.439 . S
O27 C21 1.208 . S
O28 Cd29 2.223 . S
O28 C36 1.315 . S
Cd29 O28 2.223 . S
Cd29 O32 2.297 1_556 S
Cd29 O33 2.439 1_556 S
Cd29 O39 2.240 . S
Cd30 O31 2.240 . S
Cd30 O38 2.223 . S
Cd30 O40 2.297 . S
Cd30 O41 2.439 . S
O31 Cd30 2.240 . S
O31 C36 1.279 . S
O32 Cd29 2.297 1_554 S
O32 C34 1.247 . S
O33 Cd29 2.439 1_554 S
O33 C34 1.208 . S
C34 O32 1.247 . S
C34 O33 1.208 . S
C35 O40 1.247 . S
C35 O41 1.208 . S
C36 O28 1.315 . S
C36 O31 1.279 . S
C37 O38 1.315 . S
C37 O39 1.279 . S
O38 Cd30 2.223 . S
O38 C37 1.315 . S
O39 Cd29 2.240 . S
O39 C37 1.279 . S
O40 Cd30 2.297 . S
O40 C35 1.247 . S
O41 Cd30 2.439 . S
O41 C35 1.208 . S
O42 Cd43 2.223 . S
O42 C50 1.315 . S
Cd43 O42 2.223 . S
Cd43 O46 2.297 . S
Cd43 O47 2.439 . S
Cd43 O53 2.240 . S
Cd44 O45 2.240 . S
Cd44 O52 2.223 . S
Cd44 O54 2.297 . S
Cd44 O55 2.439 . S
O45 Cd44 2.240 . S
O45 C50 1.279 . S
O46 Cd43 2.297 . S
O46 C48 1.247 . S
O47 Cd43 2.439 . S
O47 C48 1.208 . S
C48 O46 1.247 . S
C48 O47 1.208 . S
C49 O54 1.247 . S
C49 O55 1.208 . S
C50 O42 1.315 . S
C50 O45 1.279 . S
C51 O52 1.315 . S
C51 O53 1.279 . S
O52 Cd44 2.223 . S
O52 C51 1.315 . S
O53 Cd43 2.240 . S
O53 C51 1.279 . S
O54 Cd44 2.297 . S
O54 C49 1.247 . S
O55 Cd44 2.439 . S
O55 C49 1.208 . S
O56 Cd57 2.223 . S
O56 C64 1.315 . S
Cd57 O56 2.223 . S
Cd57 O60 2.297 1_556 S
Cd57 O61 2.439 1_556 S
Cd57 O67 2.240 . S
Cd58 O59 2.240 . S
Cd58 O66 2.223 . S
Cd58 O68 2.297 . S
Cd58 O69 2.439 . S
O59 Cd58 2.240 . S
O59 C64 1.279 . S
O60 Cd57 2.297 1_554 S
O60 C62 1.247 . S
O61 Cd57 2.439 1_554 S
O61 C62 1.208 . S
C62 O60 1.247 . S
C62 O61 1.208 . S
C63 O68 1.247 . S
C63 O69 1.208 . S
C64 O56 1.315 . S
C64 O59 1.279 . S
C65 O66 1.315 . S
C65 O67 1.279 . S
O66 Cd58 2.223 . S
O66 C65 1.315 . S
O67 Cd57 2.240 . S
O67 C65 1.279 . S
O68 Cd58 2.297 . S
O68 C63 1.247 . S
O69 Cd58 2.439 . S
O69 C63 1.208 . S
O70 Cd71 2.223 . S
O70 C78 1.315 . S
Cd71 O70 2.223 . S
Cd71 O74 2.297 . S
Cd71 O75 2.439 . S
Cd71 O81 2.240 . S
Cd72 O73 2.240 . S
Cd72 O80 2.223 . S
Cd72 O82 2.297 . S
Cd72 O83 2.439 . S
O73 Cd72 2.240 . S
O73 C78 1.279 . S
O74 Cd71 2.297 . S
O74 C76 1.247 . S
O75 Cd71 2.439 . S
O75 C76 1.208 . S
C76 O74 1.247 . S
C76 O75 1.208 . S
C77 O82 1.247 . S
C77 O83 1.208 . S
C78 O70 1.315 . S
C78 O73 1.279 . S
C79 O80 1.315 . S
C79 O81 1.279 . S
O80 Cd72 2.223 . S
O80 C79 1.315 . S
O81 Cd71 2.240 . S
O81 C79 1.279 . S
O82 Cd72 2.297 . S
O82 C77 1.247 . S
O83 Cd72 2.439 . S
O83 C77 1.208 . S
O84 Cd85 2.223 . S
O84 C92 1.315 . S
Cd85 O84 2.223 . S
Cd85 O88 2.297 1_554 S
Cd85 O89 2.439 1_554 S
Cd85 O95 2.240 . S
Cd86 O87 2.240 . S
Cd86 O94 2.223 . S
Cd86 O96 2.297 . S
Cd86 O97 2.439 . S
O87 Cd86 2.240 . S
O87 C92 1.279 . S
O88 Cd85 2.297 1_556 S
O88 C90 1.247 . S
O89 Cd85 2.439 1_556 S
O89 C90 1.208 . S
C90 O88 1.247 . S
C90 O89 1.208 . S
C91 O96 1.247 . S
C91 O97 1.208 . S
C92 O84 1.315 . S
C92 O87 1.279 . S
C93 O94 1.315 . S
C93 O95 1.279 . S
O94 Cd86 2.223 . S
O94 C93 1.315 . S
O95 Cd85 2.240 . S
O95 C93 1.279 . S
O96 Cd86 2.297 . S
O96 C91 1.247 . S
O97 Cd86 2.439 . S
O97 C91 1.208 . S
O98 Cd99 2.223 . S
O98 C106 1.315 . S
Cd99 O98 2.223 . S
Cd99 O102 2.297 . S
Cd99 O103 2.439 . S
Cd99 O109 2.240 . S
Cd100 O101 2.240 . S
Cd100 O108 2.223 . S
Cd100 O110 2.297 . S
Cd100 O111 2.439 . S
O101 Cd100 2.240 . S
O101 C106 1.279 . S
O102 Cd99 2.297 . S
O102 C104 1.247 . S
O103 Cd99 2.439 . S
O103 C104 1.208 . S
C104 O102 1.247 . S
C104 O103 1.208 . S
C105 O110 1.247 . S
C105 O111 1.208 . S
C106 O98 1.315 . S
C106 O101 1.279 . S
C107 O108 1.315 . S
C107 O109 1.279 . S
O108 Cd100 2.223 . S
O108 C107 1.315 . S
O109 Cd99 2.240 . S
O109 C107 1.279 . S
O110 Cd100 2.297 . S
O110 C105 1.247 . S
O111 Cd100 2.439 . S
O111 C105 1.208 . S
H112 C130 0.951 . S
H113 C132 0.951 . S
H114 C134 0.950 . S
H115 C135 0.950 . S
H116 C137 0.950 . S
H117 C140 0.950 . S
H118 C141 0.950 . S
H119 C143 0.950 . S
H120 C144 0.950 . S
H121 C145 0.951 . S
H122 C147 0.951 . S
H123 C149 0.950 . S
H124 C150 0.950 . S
H125 C152 0.950 . S
H126 C155 0.950 . S
H127 C156 0.950 . S
H128 C158 0.950 . S
H129 C159 0.950 . S
C130 H112 0.951 . S
C130 C131 1.366 . S
C130 C132 1.388 . S
C131 C130 1.366 . S
C131 C135 1.385 . S
C132 H113 0.951 . S
C132 C130 1.388 . S
C132 C133 1.366 . S
C133 C132 1.366 . S
C133 C134 1.414 . S
C133 C136 1.499 . S
C134 H114 0.950 . S
C134 C133 1.414 . S
C134 C135 1.374 . S
C135 H115 0.950 . S
C135 C131 1.385 . S
C135 C134 1.374 . S
C136 C133 1.499 . S
C136 C137 1.373 . S
C136 C138 1.389 . S
C137 H116 0.950 . S
C137 C136 1.373 . S
C137 C153 1.377 . S
C138 C136 1.389 . S
C138 C139 1.524 . S
C138 C152 1.377 . S
C139 C138 1.524 . S
C139 C140 1.397 . S
C139 C144 1.363 . S
C140 H117 0.950 . S
C140 C139 1.397 . S
C140 C141 1.334 . S
C141 H118 0.950 . S
C141 C140 1.334 . S
C141 C142 1.287 . S
C142 C141 1.287 . S
C142 C143 1.524 . S
C142 H161 0.913 . S
C143 H119 0.950 . S
C143 C142 1.524 . S
C143 C144 1.415 . S
C144 H120 0.950 . S
C144 C139 1.363 . S
C144 C143 1.415 . S
C145 H121 0.951 . S
C145 C146 1.366 . S
C145 C147 1.388 . S
C146 C145 1.366 . S
C146 C150 1.385 . S
C147 H122 0.951 . S
C147 C145 1.388 . S
C147 C148 1.366 . S
C148 C147 1.366 . S
C148 C149 1.414 . S
C148 C151 1.499 . S
C149 H123 0.950 . S
C149 C148 1.414 . S
C149 C150 1.374 . S
C150 H124 0.950 . S
C150 C146 1.385 . S
C150 C149 1.374 . S
C151 C148 1.499 . S
C151 C152 1.373 . S
C151 C153 1.389 . S
C152 H125 0.950 . S
C152 C138 1.377 . S
C152 C151 1.373 . S
C153 C137 1.377 . S
C153 C151 1.389 . S
C153 C154 1.524 . S
C154 C153 1.524 . S
C154 C155 1.397 . S
C154 C159 1.363 . S
C155 H126 0.950 . S
C155 C154 1.397 . S
C155 C156 1.334 . S
C156 H127 0.950 . S
C156 C155 1.334 . S
C156 C157 1.287 . S
C157 C156 1.287 . S
C157 C158 1.524 . S
C157 H160 0.999 . S
C158 H128 0.950 . S
C158 C157 1.524 . S
C158 C159 1.415 . S
C159 H129 0.950 . S
C159 C154 1.363 . S
C159 C158 1.415 . S
H160 C157 0.999 . S
H161 C142 0.913 . S
H162 C180 0.951 . S
H163 C182 0.951 . S
H164 C184 0.950 . S
H165 C185 0.950 . S
H166 C187 0.950 . S
H167 C190 0.950 . S
H168 C191 0.950 . S
H169 C193 0.950 . S
H170 C194 0.950 . S
H171 C195 0.951 . S
H172 C197 0.951 . S
H173 C199 0.950 . S
H174 C200 0.950 . S
H175 C202 0.950 . S
H176 C205 0.950 . S
H177 C206 0.950 . S
H178 C208 0.950 . S
H179 C209 0.950 . S
C180 H162 0.951 . S
C180 C181 1.366 . S
C180 C182 1.388 . S
C181 C180 1.366 . S
C181 C185 1.385 . S
C182 H163 0.951 . S
C182 C180 1.388 . S
C182 C183 1.366 . S
C183 C182 1.366 . S
C183 C184 1.414 . S
C183 C186 1.499 . S
C184 H164 0.950 . S
C184 C183 1.414 . S
C184 C185 1.374 . S
C185 H165 0.950 . S
C185 C181 1.385 . S
C185 C184 1.374 . S
C186 C183 1.499 . S
C186 C187 1.373 . S
C186 C188 1.389 . S
C187 H166 0.950 . S
C187 C186 1.373 . S
C187 C203 1.377 . S
C188 C186 1.389 . S
C188 C189 1.524 . S
C188 C202 1.377 . S
C189 C188 1.524 . S
C189 C190 1.397 . S
C189 C194 1.363 . S
C190 H167 0.950 . S
C190 C189 1.397 . S
C190 C191 1.334 . S
C191 H168 0.950 . S
C191 C190 1.334 . S
C191 C192 1.287 . S
C192 C191 1.287 . S
C192 C193 1.524 . S
C192 H211 0.913 . S
C193 H169 0.950 . S
C193 C192 1.524 . S
C193 C194 1.415 . S
C194 H170 0.950 . S
C194 C189 1.363 . S
C194 C193 1.415 . S
C195 H171 0.951 . S
C195 C196 1.366 . S
C195 C197 1.388 . S
C196 C195 1.366 . S
C196 C200 1.385 . S
C197 H172 0.951 . S
C197 C195 1.388 . S
C197 C198 1.366 . S
C198 C197 1.366 . S
C198 C199 1.414 . S
C198 C201 1.499 . S
C199 H173 0.950 . S
C199 C198 1.414 . S
C199 C200 1.374 . S
C200 H174 0.950 . S
C200 C196 1.385 . S
C200 C199 1.374 . S
C201 C198 1.499 . S
C201 C202 1.373 . S
C201 C203 1.389 . S
C202 H175 0.950 . S
C202 C188 1.377 . S
C202 C201 1.373 . S
C203 C187 1.377 . S
C203 C201 1.389 . S
C203 C204 1.524 . S
C204 C203 1.524 . S
C204 C205 1.397 . S
C204 C209 1.363 . S
C205 H176 0.950 . S
C205 C204 1.397 . S
C205 C206 1.334 . S
C206 H177 0.950 . S
C206 C205 1.334 . S
C206 C207 1.287 . S
C207 C206 1.287 . S
C207 C208 1.524 . S
C207 H210 0.999 . S
C208 H178 0.950 . S
C208 C207 1.524 . S
C208 C209 1.415 . S
C209 H179 0.950 . S
C209 C204 1.363 . S
C209 C208 1.415 . S
H210 C207 0.999 . S
H211 C192 0.913 . S
H212 C230 0.951 . S
H213 C232 0.951 . S
H214 C234 0.950 . S
H215 C235 0.950 . S
H216 C237 0.950 . S
H217 C240 0.950 . S
H218 C241 0.950 . S
H219 C243 0.950 . S
H220 C244 0.950 . S
H221 C245 0.951 . S
H222 C247 0.951 . S
H223 C249 0.950 . S
H224 C250 0.950 . S
H225 C252 0.950 . S
H226 C255 0.950 . S
H227 C256 0.950 . S
H228 C258 0.950 . S
H229 C259 0.950 . S
C230 H212 0.951 . S
C230 C231 1.366 . S
C230 C232 1.388 . S
C231 C230 1.366 . S
C231 C235 1.385 . S
C232 H213 0.951 . S
C232 C230 1.388 . S
C232 C233 1.366 . S
C233 C232 1.366 . S
C233 C234 1.414 . S
C233 C236 1.499 . S
C234 H214 0.950 . S
C234 C233 1.414 . S
C234 C235 1.374 . S
C235 H215 0.950 . S
C235 C231 1.385 . S
C235 C234 1.374 . S
C236 C233 1.499 . S
C236 C237 1.373 . S
C236 C238 1.389 . S
C237 H216 0.950 . S
C237 C236 1.373 . S
C237 C253 1.377 . S
C238 C236 1.389 . S
C238 C239 1.524 . S
C238 C252 1.377 . S
C239 C238 1.524 . S
C239 C240 1.397 . S
C239 C244 1.363 . S
C240 H217 0.950 . S
C240 C239 1.397 . S
C240 C241 1.334 . S
C241 H218 0.950 . S
C241 C240 1.334 . S
C241 C242 1.287 . S
C242 C241 1.287 . S
C242 C243 1.524 . S
C242 H261 0.913 . S
C243 H219 0.950 . S
C243 C242 1.524 . S
C243 C244 1.415 . S
C244 H220 0.950 . S
C244 C239 1.363 . S
C244 C243 1.415 . S
C245 H221 0.951 . S
C245 C246 1.366 . S
C245 C247 1.388 . S
C246 C245 1.366 . S
C246 C250 1.385 . S
C247 H222 0.951 . S
C247 C245 1.388 . S
C247 C248 1.366 . S
C248 C247 1.366 . S
C248 C249 1.414 . S
C248 C251 1.499 . S
C249 H223 0.950 . S
C249 C248 1.414 . S
C249 C250 1.374 . S
C250 H224 0.950 . S
C250 C246 1.385 . S
C250 C249 1.374 . S
C251 C248 1.499 . S
C251 C252 1.373 . S
C251 C253 1.389 . S
C252 H225 0.950 . S
C252 C238 1.377 . S
C252 C251 1.373 . S
C253 C237 1.377 . S
C253 C251 1.389 . S
C253 C254 1.524 . S
C254 C253 1.524 . S
C254 C255 1.397 . S
C254 C259 1.363 . S
C255 H226 0.950 . S
C255 C254 1.397 . S
C255 C256 1.334 . S
C256 H227 0.950 . S
C256 C255 1.334 . S
C256 C257 1.287 . S
C257 C256 1.287 . S
C257 C258 1.524 . S
C257 H260 0.999 . S
C258 H228 0.950 . S
C258 C257 1.524 . S
C258 C259 1.415 . S
C259 H229 0.950 . S
C259 C254 1.363 . S
C259 C258 1.415 . S
H260 C257 0.999 . S
H261 C242 0.913 . S
H262 C280 0.951 . S
H263 C282 0.951 . S
H264 C284 0.950 . S
H265 C285 0.950 . S
H266 C287 0.950 . S
H267 C290 0.950 . S
H268 C291 0.950 . S
H269 C293 0.950 . S
H270 C294 0.950 . S
H271 C295 0.951 . S
H272 C297 0.951 . S
H273 C299 0.950 . S
H274 C300 0.950 . S
H275 C302 0.950 . S
H276 C305 0.950 . S
H277 C306 0.950 . S
H278 C308 0.950 . S
H279 C309 0.950 . S
C280 H262 0.951 . S
C280 C281 1.366 . S
C280 C282 1.388 . S
C281 C280 1.366 . S
C281 C285 1.385 . S
C282 H263 0.951 . S
C282 C280 1.388 . S
C282 C283 1.366 . S
C283 C282 1.366 . S
C283 C284 1.414 . S
C283 C286 1.499 . S
C284 H264 0.950 . S
C284 C283 1.414 . S
C284 C285 1.374 . S
C285 H265 0.950 . S
C285 C281 1.385 . S
C285 C284 1.374 . S
C286 C283 1.499 . S
C286 C287 1.373 . S
C286 C288 1.389 . S
C287 H266 0.950 . S
C287 C286 1.373 . S
C287 C303 1.377 . S
C288 C286 1.389 . S
C288 C289 1.524 . S
C288 C302 1.377 . S
C289 C288 1.524 . S
C289 C290 1.397 . S
C289 C294 1.363 . S
C290 H267 0.950 . S
C290 C289 1.397 . S
C290 C291 1.334 . S
C291 H268 0.950 . S
C291 C290 1.334 . S
C291 C292 1.287 . S
C292 C291 1.287 . S
C292 C293 1.524 . S
C292 H311 0.913 . S
C293 H269 0.950 . S
C293 C292 1.524 . S
C293 C294 1.415 . S
C294 H270 0.950 . S
C294 C289 1.363 . S
C294 C293 1.415 . S
C295 H271 0.951 . S
C295 C296 1.366 . S
C295 C297 1.388 . S
C296 C295 1.366 . S
C296 C300 1.385 . S
C297 H272 0.951 . S
C297 C295 1.388 . S
C297 C298 1.366 . S
C298 C297 1.366 . S
C298 C299 1.414 . S
C298 C301 1.499 . S
C299 H273 0.950 . S
C299 C298 1.414 . S
C299 C300 1.374 . S
C300 H274 0.950 . S
C300 C296 1.385 . S
C300 C299 1.374 . S
C301 C298 1.499 . S
C301 C302 1.373 . S
C301 C303 1.389 . S
C302 H275 0.950 . S
C302 C288 1.377 . S
C302 C301 1.373 . S
C303 C287 1.377 . S
C303 C301 1.389 . S
C303 C304 1.524 . S
C304 C303 1.524 . S
C304 C305 1.397 . S
C304 C309 1.363 . S
C305 H276 0.950 . S
C305 C304 1.397 . S
C305 C306 1.334 . S
C306 H277 0.950 . S
C306 C305 1.334 . S
C306 C307 1.287 . S
C307 C306 1.287 . S
C307 C308 1.524 . S
C307 H310 0.999 . S
C308 H278 0.950 . S
C308 C307 1.524 . S
C308 C309 1.415 . S
C309 H279 0.950 . S
C309 C304 1.363 . S
C309 C308 1.415 . S
H310 C307 0.999 . S
H311 C292 0.913 . S
H312 C330 0.951 . S
H313 C332 0.951 . S
H314 C334 0.950 . S
H315 C335 0.950 . S
H316 C337 0.950 . S
H317 C340 0.950 . S
H318 C341 0.950 . S
H319 C343 0.950 . S
H320 C344 0.950 . S
H321 C345 0.951 . S
H322 C347 0.951 . S
H323 C349 0.950 . S
H324 C350 0.950 . S
H325 C352 0.950 . S
H326 C355 0.950 . S
H327 C356 0.950 . S
H328 C358 0.950 . S
H329 C359 0.950 . S
C330 H312 0.951 . S
C330 C331 1.366 . S
C330 C332 1.388 . S
C331 C330 1.366 . S
C331 C335 1.385 . S
C332 H313 0.951 . S
C332 C330 1.388 . S
C332 C333 1.366 . S
C333 C332 1.366 . S
C333 C334 1.414 . S
C333 C336 1.499 . S
C334 H314 0.950 . S
C334 C333 1.414 . S
C334 C335 1.374 . S
C335 H315 0.950 . S
C335 C331 1.385 . S
C335 C334 1.374 . S
C336 C333 1.499 . S
C336 C337 1.373 . S
C336 C338 1.389 . S
C337 H316 0.950 . S
C337 C336 1.373 . S
C337 C353 1.377 . S
C338 C336 1.389 . S
C338 C339 1.524 . S
C338 C352 1.377 . S
C339 C338 1.524 . S
C339 C340 1.397 . S
C339 C344 1.363 . S
C340 H317 0.950 . S
C340 C339 1.397 . S
C340 C341 1.334 . S
C341 H318 0.950 . S
C341 C340 1.334 . S
C341 C342 1.287 . S
C342 C341 1.287 . S
C342 C343 1.524 . S
C342 H361 0.913 . S
C343 H319 0.950 . S
C343 C342 1.524 . S
C343 C344 1.415 . S
C344 H320 0.950 . S
C344 C339 1.363 . S
C344 C343 1.415 . S
C345 H321 0.951 . S
C345 C346 1.366 . S
C345 C347 1.388 . S
C346 C345 1.366 . S
C346 C350 1.385 . S
C347 H322 0.951 . S
C347 C345 1.388 . S
C347 C348 1.366 . S
C348 C347 1.366 . S
C348 C349 1.414 . S
C348 C351 1.499 . S
C349 H323 0.950 . S
C349 C348 1.414 . S
C349 C350 1.374 . S
C350 H324 0.950 . S
C350 C346 1.385 . S
C350 C349 1.374 . S
C351 C348 1.499 . S
C351 C352 1.373 . S
C351 C353 1.389 . S
C352 H325 0.950 . S
C352 C338 1.377 . S
C352 C351 1.373 . S
C353 C337 1.377 . S
C353 C351 1.389 . S
C353 C354 1.524 . S
C354 C353 1.524 . S
C354 C355 1.397 . S
C354 C359 1.363 . S
C355 H326 0.950 . S
C355 C354 1.397 . S
C355 C356 1.334 . S
C356 H327 0.950 . S
C356 C355 1.334 . S
C356 C357 1.287 . S
C357 C356 1.287 . S
C357 C358 1.524 . S
C357 H360 0.999 . S
C358 H328 0.950 . S
C358 C357 1.524 . S
C358 C359 1.415 . S
C359 H329 0.950 . S
C359 C354 1.363 . S
C359 C358 1.415 . S
H360 C357 0.999 . S
H361 C342 0.913 . S
H362 C380 0.951 . S
H363 C382 0.951 . S
H364 C384 0.950 . S
H365 C385 0.950 . S
H366 C387 0.950 . S
H367 C390 0.950 . S
H368 C391 0.950 . S
H369 C393 0.950 . S
H370 C394 0.950 . S
H371 C395 0.951 . S
H372 C397 0.951 . S
H373 C399 0.950 . S
H374 C400 0.950 . S
H375 C402 0.950 . S
H376 C405 0.950 . S
H377 C406 0.950 . S
H378 C408 0.950 . S
H379 C409 0.950 . S
C380 H362 0.951 . S
C380 C381 1.366 . S
C380 C382 1.388 . S
C381 C380 1.366 . S
C381 C385 1.385 . S
C382 H363 0.951 . S
C382 C380 1.388 . S
C382 C383 1.366 . S
C383 C382 1.366 . S
C383 C384 1.414 . S
C383 C386 1.499 . S
C384 H364 0.950 . S
C384 C383 1.414 . S
C384 C385 1.374 . S
C385 H365 0.950 . S
C385 C381 1.385 . S
C385 C384 1.374 . S
C386 C383 1.499 . S
C386 C387 1.373 . S
C386 C388 1.389 . S
C387 H366 0.950 . S
C387 C386 1.373 . S
C387 C403 1.377 . S
C388 C386 1.389 . S
C388 C389 1.524 . S
C388 C402 1.377 . S
C389 C388 1.524 . S
C389 C390 1.397 . S
C389 C394 1.363 . S
C390 H367 0.950 . S
C390 C389 1.397 . S
C390 C391 1.334 . S
C391 H368 0.950 . S
C391 C390 1.334 . S
C391 C392 1.287 . S
C392 C391 1.287 . S
C392 C393 1.524 . S
C392 H411 0.913 . S
C393 H369 0.950 . S
C393 C392 1.524 . S
C393 C394 1.415 . S
C394 H370 0.950 . S
C394 C389 1.363 . S
C394 C393 1.415 . S
C395 H371 0.951 . S
C395 C396 1.366 . S
C395 C397 1.388 . S
C396 C395 1.366 . S
C396 C400 1.385 . S
C397 H372 0.951 . S
C397 C395 1.388 . S
C397 C398 1.366 . S
C398 C397 1.366 . S
C398 C399 1.414 . S
C398 C401 1.499 . S
C399 H373 0.950 . S
C399 C398 1.414 . S
C399 C400 1.374 . S
C400 H374 0.950 . S
C400 C396 1.385 . S
C400 C399 1.374 . S
C401 C398 1.499 . S
C401 C402 1.373 . S
C401 C403 1.389 . S
C402 H375 0.950 . S
C402 C388 1.377 . S
C402 C401 1.373 . S
C403 C387 1.377 . S
C403 C401 1.389 . S
C403 C404 1.524 . S
C404 C403 1.524 . S
C404 C405 1.397 . S
C404 C409 1.363 . S
C405 H376 0.950 . S
C405 C404 1.397 . S
C405 C406 1.334 . S
C406 H377 0.950 . S
C406 C405 1.334 . S
C406 C407 1.287 . S
C407 C406 1.287 . S
C407 C408 1.524 . S
C407 H410 0.999 . S
C408 H378 0.950 . S
C408 C407 1.524 . S
C408 C409 1.415 . S
C409 H379 0.950 . S
C409 C404 1.363 . S
C409 C408 1.415 . S
H410 C407 0.999 . S
H411 C392 0.913 . S
H412 C430 0.951 . S
H413 C432 0.951 . S
H414 C434 0.950 . S
H415 C435 0.950 . S
H416 C437 0.950 . S
H417 C440 0.950 . S
H418 C441 0.950 . S
H419 C443 0.950 . S
H420 C444 0.950 . S
H421 C445 0.951 . S
H422 C447 0.951 . S
H423 C449 0.950 . S
H424 C450 0.950 . S
H425 C452 0.950 . S
H426 C455 0.950 . S
H427 C456 0.950 . S
H428 C458 0.950 . S
H429 C459 0.950 . S
C430 H412 0.951 . S
C430 C431 1.366 . S
C430 C432 1.388 . S
C431 C430 1.366 . S
C431 C435 1.385 . S
C432 H413 0.951 . S
C432 C430 1.388 . S
C432 C433 1.366 . S
C433 C432 1.366 . S
C433 C434 1.414 . S
C433 C436 1.499 . S
C434 H414 0.950 . S
C434 C433 1.414 . S
C434 C435 1.374 . S
C435 H415 0.950 . S
C435 C431 1.385 . S
C435 C434 1.374 . S
C436 C433 1.499 . S
C436 C437 1.373 . S
C436 C438 1.389 . S
C437 H416 0.950 . S
C437 C436 1.373 . S
C437 C453 1.377 . S
C438 C436 1.389 . S
C438 C439 1.524 . S
C438 C452 1.377 . S
C439 C438 1.524 . S
C439 C440 1.397 . S
C439 C444 1.363 . S
C440 H417 0.950 . S
C440 C439 1.397 . S
C440 C441 1.334 . S
C441 H418 0.950 . S
C441 C440 1.334 . S
C441 C442 1.287 . S
C442 C441 1.287 . S
C442 C443 1.524 . S
C442 H461 0.913 . S
C443 H419 0.950 . S
C443 C442 1.524 . S
C443 C444 1.415 . S
C444 H420 0.950 . S
C444 C439 1.363 . S
C444 C443 1.415 . S
C445 H421 0.951 . S
C445 C446 1.366 . S
C445 C447 1.388 . S
C446 C445 1.366 . S
C446 C450 1.385 . S
C447 H422 0.951 . S
C447 C445 1.388 . S
C447 C448 1.366 . S
C448 C447 1.366 . S
C448 C449 1.414 . S
C448 C451 1.499 . S
C449 H423 0.950 . S
C449 C448 1.414 . S
C449 C450 1.374 . S
C450 H424 0.950 . S
C450 C446 1.385 . S
C450 C449 1.374 . S
C451 C448 1.499 . S
C451 C452 1.373 . S
C451 C453 1.389 . S
C452 H425 0.950 . S
C452 C438 1.377 . S
C452 C451 1.373 . S
C453 C437 1.377 . S
C453 C451 1.389 . S
C453 C454 1.524 . S
C454 C453 1.524 . S
C454 C455 1.397 . S
C454 C459 1.363 . S
C455 H426 0.950 . S
C455 C454 1.397 . S
C455 C456 1.334 . S
C456 H427 0.950 . S
C456 C455 1.334 . S
C456 C457 1.287 . S
C457 C456 1.287 . S
C457 C458 1.524 . S
C457 H460 0.999 . S
C458 H428 0.950 . S
C458 C457 1.524 . S
C458 C459 1.415 . S
C459 H429 0.950 . S
C459 C454 1.363 . S
C459 C458 1.415 . S
H460 C457 0.999 . S
H461 C442 0.913 . S
H462 C480 0.951 . S
H463 C482 0.951 . S
H464 C484 0.950 . S
H465 C485 0.950 . S
H466 C487 0.950 . S
H467 C490 0.950 . S
H468 C491 0.950 . S
H469 C493 0.950 . S
H470 C494 0.950 . S
H471 C495 0.951 . S
H472 C497 0.951 . S
H473 C499 0.950 . S
H474 C500 0.950 . S
H475 C502 0.950 . S
H476 C505 0.950 . S
H477 C506 0.950 . S
H478 C508 0.950 . S
H479 C509 0.950 . S
C480 H462 0.951 . S
C480 C481 1.366 . S
C480 C482 1.388 . S
C481 C480 1.366 . S
C481 C485 1.385 . S
C482 H463 0.951 . S
C482 C480 1.388 . S
C482 C483 1.366 . S
C483 C482 1.366 . S
C483 C484 1.414 . S
C483 C486 1.499 . S
C484 H464 0.950 . S
C484 C483 1.414 . S
C484 C485 1.374 . S
C485 H465 0.950 . S
C485 C481 1.385 . S
C485 C484 1.374 . S
C486 C483 1.499 . S
C486 C487 1.373 . S
C486 C488 1.389 . S
C487 H466 0.950 . S
C487 C486 1.373 . S
C487 C503 1.377 . S
C488 C486 1.389 . S
C488 C489 1.524 . S
C488 C502 1.377 . S
C489 C488 1.524 . S
C489 C490 1.397 . S
C489 C494 1.363 . S
C490 H467 0.950 . S
C490 C489 1.397 . S
C490 C491 1.334 . S
C491 H468 0.950 . S
C491 C490 1.334 . S
C491 C492 1.287 . S
C492 C491 1.287 . S
C492 C493 1.524 . S
C492 H511 0.913 . S
C493 H469 0.950 . S
C493 C492 1.524 . S
C493 C494 1.415 . S
C494 H470 0.950 . S
C494 C489 1.363 . S
C494 C493 1.415 . S
C495 H471 0.951 . S
C495 C496 1.366 . S
C495 C497 1.388 . S
C496 C495 1.366 . S
C496 C500 1.385 . S
C497 H472 0.951 . S
C497 C495 1.388 . S
C497 C498 1.366 . S
C498 C497 1.366 . S
C498 C499 1.414 . S
C498 C501 1.499 . S
C499 H473 0.950 . S
C499 C498 1.414 . S
C499 C500 1.374 . S
C500 H474 0.950 . S
C500 C496 1.385 . S
C500 C499 1.374 . S
C501 C498 1.499 . S
C501 C502 1.373 . S
C501 C503 1.389 . S
C502 H475 0.950 . S
C502 C488 1.377 . S
C502 C501 1.373 . S
C503 C487 1.377 . S
C503 C501 1.389 . S
C503 C504 1.524 . S
C504 C503 1.524 . S
C504 C505 1.397 . S
C504 C509 1.363 . S
C505 H476 0.950 . S
C505 C504 1.397 . S
C505 C506 1.334 . S
C506 H477 0.950 . S
C506 C505 1.334 . S
C506 C507 1.287 . S
C507 C506 1.287 . S
C507 C508 1.524 . S
C507 H510 0.999 . S
C508 H478 0.950 . S
C508 C507 1.524 . S
C508 C509 1.415 . S
C509 H479 0.950 . S
C509 C504 1.363 . S
C509 C508 1.415 . S
H510 C507 0.999 . S
H511 C492 0.913 . S
H512 C530 0.951 . S
H513 C532 0.951 . S
H514 C534 0.950 . S
H515 C535 0.950 . S
H516 C537 0.950 . S
H517 C540 0.950 . S
H518 C541 0.950 . S
H519 C543 0.950 . S
H520 C544 0.950 . S
H521 C545 0.951 . S
H522 C547 0.951 . S
H523 C549 0.950 . S
H524 C550 0.950 . S
H525 C552 0.950 . S
H526 C555 0.950 . S
H527 C556 0.950 . S
H528 C558 0.950 . S
H529 C559 0.950 . S
C530 H512 0.951 . S
C530 C531 1.366 . S
C530 C532 1.388 . S
C531 C530 1.366 . S
C531 C535 1.385 . S
C532 H513 0.951 . S
C532 C530 1.388 . S
C532 C533 1.366 . S
C533 C532 1.366 . S
C533 C534 1.414 . S
C533 C536 1.499 . S
C534 H514 0.950 . S
C534 C533 1.414 . S
C534 C535 1.374 . S
C535 H515 0.950 . S
C535 C531 1.385 . S
C535 C534 1.374 . S
C536 C533 1.499 . S
C536 C537 1.373 . S
C536 C538 1.389 . S
C537 H516 0.950 . S
C537 C536 1.373 . S
C537 C553 1.377 1_455 S
C538 C536 1.389 . S
C538 C539 1.524 . S
C538 C552 1.377 1_455 S
C539 C538 1.524 . S
C539 C540 1.397 . S
C539 C544 1.363 1_455 S
C540 H517 0.950 . S
C540 C539 1.397 . S
C540 C541 1.334 . S
C541 H518 0.950 . S
C541 C540 1.334 . S
C541 C542 1.287 . S
C542 C541 1.287 . S
C542 C543 1.524 1_455 S
C542 H561 0.913 . S
C543 H519 0.950 . S
C543 C542 1.524 1_655 S
C543 C544 1.415 . S
C544 H520 0.950 . S
C544 C539 1.363 1_655 S
C544 C543 1.415 . S
C545 H521 0.951 . S
C545 C546 1.366 . S
C545 C547 1.388 . S
C546 C545 1.366 . S
C546 C550 1.385 . S
C547 H522 0.951 . S
C547 C545 1.388 . S
C547 C548 1.366 . S
C548 C547 1.366 . S
C548 C549 1.414 . S
C548 C551 1.499 . S
C549 H523 0.950 . S
C549 C548 1.414 . S
C549 C550 1.374 . S
C550 H524 0.950 . S
C550 C546 1.385 . S
C550 C549 1.374 . S
C551 C548 1.499 . S
C551 C552 1.373 . S
C551 C553 1.389 . S
C552 H525 0.950 . S
C552 C538 1.377 1_655 S
C552 C551 1.373 . S
C553 C537 1.377 1_655 S
C553 C551 1.389 . S
C553 C554 1.524 . S
C554 C553 1.524 . S
C554 C555 1.397 . S
C554 C559 1.363 1_655 S
C555 H526 0.950 . S
C555 C554 1.397 . S
C555 C556 1.334 . S
C556 H527 0.950 . S
C556 C555 1.334 . S
C556 C557 1.287 . S
C557 C556 1.287 . S
C557 C558 1.524 1_655 S
C557 H560 0.999 . S
C558 H528 0.950 . S
C558 C557 1.524 1_455 S
C558 C559 1.415 . S
C559 H529 0.950 . S
C559 C554 1.363 1_455 S
C559 C558 1.415 . S
H560 C557 0.999 . S
H561 C542 0.913 . S
H562 C580 0.951 . S
H563 C582 0.951 . S
H564 C584 0.950 . S
H565 C585 0.950 . S
H566 C587 0.950 . S
H567 C590 0.950 . S
H568 C591 0.950 . S
H569 C593 0.950 . S
H570 C594 0.950 . S
H571 C595 0.951 . S
H572 C597 0.951 . S
H573 C599 0.950 . S
H574 C600 0.950 . S
H575 C602 0.950 . S
H576 C605 0.950 . S
H577 C606 0.950 . S
H578 C608 0.950 . S
H579 C609 0.950 . S
C580 H562 0.951 . S
C580 C581 1.366 . S
C580 C582 1.388 . S
C581 C580 1.366 . S
C581 C585 1.385 . S
C582 H563 0.951 . S
C582 C580 1.388 . S
C582 C583 1.366 . S
C583 C582 1.366 . S
C583 C584 1.414 . S
C583 C586 1.499 . S
C584 H564 0.950 . S
C584 C583 1.414 . S
C584 C585 1.374 . S
C585 H565 0.950 . S
C585 C581 1.385 . S
C585 C584 1.374 . S
C586 C583 1.499 . S
C586 C587 1.373 . S
C586 C588 1.389 . S
C587 H566 0.950 . S
C587 C586 1.373 . S
C587 C603 1.377 . S
C588 C586 1.389 . S
C588 C589 1.524 . S
C588 C602 1.377 . S
C589 C588 1.524 . S
C589 C590 1.397 . S
C589 C594 1.363 . S
C590 H567 0.950 . S
C590 C589 1.397 . S
C590 C591 1.334 . S
C591 H568 0.950 . S
C591 C590 1.334 . S
C591 C592 1.287 . S
C592 C591 1.287 . S
C592 C593 1.524 . S
C592 H611 0.913 . S
C593 H569 0.950 . S
C593 C592 1.524 . S
C593 C594 1.415 . S
C594 H570 0.950 . S
C594 C589 1.363 . S
C594 C593 1.415 . S
C595 H571 0.951 . S
C595 C596 1.366 . S
C595 C597 1.388 . S
C596 C595 1.366 . S
C596 C600 1.385 . S
C597 H572 0.951 . S
C597 C595 1.388 . S
C597 C598 1.366 . S
C598 C597 1.366 . S
C598 C599 1.414 . S
C598 C601 1.499 . S
C599 H573 0.950 . S
C599 C598 1.414 . S
C599 C600 1.374 . S
C600 H574 0.950 . S
C600 C596 1.385 . S
C600 C599 1.374 . S
C601 C598 1.499 . S
C601 C602 1.373 . S
C601 C603 1.389 . S
C602 H575 0.950 . S
C602 C588 1.377 . S
C602 C601 1.373 . S
C603 C587 1.377 . S
C603 C601 1.389 . S
C603 C604 1.524 . S
C604 C603 1.524 . S
C604 C605 1.397 . S
C604 C609 1.363 . S
C605 H576 0.950 . S
C605 C604 1.397 . S
C605 C606 1.334 . S
C606 H577 0.950 . S
C606 C605 1.334 . S
C606 C607 1.287 . S
C607 C606 1.287 . S
C607 C608 1.524 . S
C607 H610 0.999 . S
C608 H578 0.950 . S
C608 C607 1.524 . S
C608 C609 1.415 . S
C609 H579 0.950 . S
C609 C604 1.363 . S
C609 C608 1.415 . S
H610 C607 0.999 . S
H611 C592 0.913 . S
H612 C630 0.951 . S
H613 C632 0.951 . S
H614 C634 0.950 . S
H615 C635 0.950 . S
H616 C637 0.950 . S
H617 C640 0.950 . S
H618 C641 0.950 . S
H619 C643 0.950 . S
H620 C644 0.950 . S
H621 C645 0.951 . S
H622 C647 0.951 . S
H623 C649 0.950 . S
H624 C650 0.950 . S
H625 C652 0.950 . S
H626 C655 0.950 . S
H627 C656 0.950 . S
H628 C658 0.950 . S
H629 C659 0.950 . S
C630 H612 0.951 . S
C630 C631 1.366 . S
C630 C632 1.388 . S
C631 C630 1.366 . S
C631 C635 1.385 . S
C632 H613 0.951 . S
C632 C630 1.388 . S
C632 C633 1.366 . S
C633 C632 1.366 . S
C633 C634 1.414 . S
C633 C636 1.499 . S
C634 H614 0.950 . S
C634 C633 1.414 . S
C634 C635 1.374 . S
C635 H615 0.950 . S
C635 C631 1.385 . S
C635 C634 1.374 . S
C636 C633 1.499 . S
C636 C637 1.373 1_455 S
C636 C638 1.389 . S
C637 H616 0.950 . S
C637 C636 1.373 1_655 S
C637 C653 1.377 . S
C638 C636 1.389 . S
C638 C639 1.524 . S
C638 C652 1.377 . S
C639 C638 1.524 . S
C639 C640 1.397 . S
C639 C644 1.363 . S
C640 H617 0.950 . S
C640 C639 1.397 . S
C640 C641 1.334 . S
C641 H618 0.950 . S
C641 C640 1.334 . S
C641 C642 1.287 . S
C642 C641 1.287 . S
C642 C643 1.524 . S
C642 H661 0.913 . S
C643 H619 0.950 . S
C643 C642 1.524 . S
C643 C644 1.415 . S
C644 H620 0.950 . S
C644 C639 1.363 . S
C644 C643 1.415 . S
C645 H621 0.951 . S
C645 C646 1.366 . S
C645 C647 1.388 . S
C646 C645 1.366 . S
C646 C650 1.385 . S
C647 H622 0.951 . S
C647 C645 1.388 . S
C647 C648 1.366 . S
C648 C647 1.366 . S
C648 C649 1.414 . S
C648 C651 1.499 . S
C649 H623 0.950 . S
C649 C648 1.414 . S
C649 C650 1.374 . S
C650 H624 0.950 . S
C650 C646 1.385 . S
C650 C649 1.374 . S
C651 C648 1.499 . S
C651 C652 1.373 1_655 S
C651 C653 1.389 . S
C652 H625 0.950 . S
C652 C638 1.377 . S
C652 C651 1.373 1_455 S
C653 C637 1.377 . S
C653 C651 1.389 . S
C653 C654 1.524 . S
C654 C653 1.524 . S
C654 C655 1.397 . S
C654 C659 1.363 . S
C655 H626 0.950 . S
C655 C654 1.397 . S
C655 C656 1.334 . S
C656 H627 0.950 . S
C656 C655 1.334 . S
C656 C657 1.287 . S
C657 C656 1.287 . S
C657 C658 1.524 . S
C657 H660 0.999 . S
C658 H628 0.950 . S
C658 C657 1.524 . S
C658 C659 1.415 . S
C659 H629 0.950 . S
C659 C654 1.363 . S
C659 C658 1.415 . S
H660 C657 0.999 . S
H661 C642 0.913 . S
H662 C680 0.951 . S
H663 C682 0.951 . S
H664 C684 0.950 . S
H665 C685 0.950 . S
H666 C687 0.950 . S
H667 C690 0.950 . S
H668 C691 0.950 . S
H669 C693 0.950 . S
H670 C694 0.950 . S
H671 C695 0.951 . S
H672 C697 0.951 . S
H673 C699 0.950 . S
H674 C700 0.950 . S
H675 C702 0.950 . S
H676 C705 0.950 . S
H677 C706 0.950 . S
H678 C708 0.950 . S
H679 C709 0.950 . S
C680 H662 0.951 . S
C680 C681 1.366 . S
C680 C682 1.388 . S
C681 C680 1.366 . S
C681 C685 1.385 . S
C682 H663 0.951 . S
C682 C680 1.388 . S
C682 C683 1.366 . S
C683 C682 1.366 . S
C683 C684 1.414 . S
C683 C686 1.499 . S
C684 H664 0.950 . S
C684 C683 1.414 . S
C684 C685 1.374 . S
C685 H665 0.950 . S
C685 C681 1.385 . S
C685 C684 1.374 . S
C686 C683 1.499 . S
C686 C687 1.373 . S
C686 C688 1.389 . S
C687 H666 0.950 . S
C687 C686 1.373 . S
C687 C703 1.377 . S
C688 C686 1.389 . S
C688 C689 1.524 . S
C688 C702 1.377 . S
C689 C688 1.524 . S
C689 C690 1.397 . S
C689 C694 1.363 . S
C690 H667 0.950 . S
C690 C689 1.397 . S
C690 C691 1.334 . S
C691 H668 0.950 . S
C691 C690 1.334 . S
C691 C692 1.287 . S
C692 C691 1.287 . S
C692 C693 1.524 . S
C692 H711 0.913 . S
C693 H669 0.950 . S
C693 C692 1.524 . S
C693 C694 1.415 . S
C694 H670 0.950 . S
C694 C689 1.363 . S
C694 C693 1.415 . S
C695 H671 0.951 . S
C695 C696 1.366 . S
C695 C697 1.388 . S
C696 C695 1.366 . S
C696 C700 1.385 . S
C697 H672 0.951 . S
C697 C695 1.388 . S
C697 C698 1.366 . S
C698 C697 1.366 . S
C698 C699 1.414 . S
C698 C701 1.499 . S
C699 H673 0.950 . S
C699 C698 1.414 . S
C699 C700 1.374 . S
C700 H674 0.950 . S
C700 C696 1.385 . S
C700 C699 1.374 . S
C701 C698 1.499 . S
C701 C702 1.373 . S
C701 C703 1.389 . S
C702 H675 0.950 . S
C702 C688 1.377 . S
C702 C701 1.373 . S
C703 C687 1.377 . S
C703 C701 1.389 . S
C703 C704 1.524 . S
C704 C703 1.524 . S
C704 C705 1.397 . S
C704 C709 1.363 . S
C705 H676 0.950 . S
C705 C704 1.397 . S
C705 C706 1.334 . S
C706 H677 0.950 . S
C706 C705 1.334 . S
C706 C707 1.287 . S
C707 C706 1.287 . S
C707 C708 1.524 . S
C707 H710 0.999 . S
C708 H678 0.950 . S
C708 C707 1.524 . S
C708 C709 1.415 . S
C709 H679 0.950 . S
C709 C704 1.363 . S
C709 C708 1.415 . S
H710 C707 0.999 . S
H711 C692 0.913 . S
H712 C730 0.951 . S
H713 C732 0.951 . S
H714 C734 0.950 . S
H715 C735 0.950 . S
H716 C737 0.950 . S
H717 C740 0.950 . S
H718 C741 0.950 . S
H719 C743 0.950 . S
H720 C744 0.950 1_554 S
H721 C745 0.951 . S
H722 C747 0.951 . S
H723 C749 0.950 . S
H724 C750 0.950 . S
H725 C752 0.950 . S
H726 C755 0.950 . S
H727 C756 0.950 . S
H728 C758 0.950 . S
H729 C759 0.950 1_556 S
C730 H712 0.951 . S
C730 C731 1.366 . S
C730 C732 1.388 . S
C731 C730 1.366 . S
C731 C735 1.385 1_554 S
C732 H713 0.951 . S
C732 C730 1.388 . S
C732 C733 1.366 . S
C733 C732 1.366 . S
C733 C734 1.414 1_554 S
C733 C736 1.499 . S
C734 H714 0.950 . S
C734 C733 1.414 1_556 S
C734 C735 1.374 . S
C735 H715 0.950 . S
C735 C731 1.385 1_556 S
C735 C734 1.374 . S
C736 C733 1.499 . S
C736 C737 1.373 1_455 S
C736 C738 1.389 1_544 S
C737 H716 0.950 . S
C737 C736 1.373 1_655 S
C737 C753 1.377 . S
C738 C736 1.389 1_566 S
C738 C739 1.524 . S
C738 C752 1.377 . S
C739 C738 1.524 . S
C739 C740 1.397 1_565 S
C739 C744 1.363 . S
C740 H717 0.950 . S
C740 C739 1.397 1_545 S
C740 C741 1.334 . S
C741 H718 0.950 . S
C741 C740 1.334 . S
C741 C742 1.287 1_545 S
C742 C741 1.287 1_565 S
C742 C743 1.524 . S
C742 H761 0.913 . S
C743 H719 0.950 . S
C743 C742 1.524 . S
C743 C744 1.415 . S
C744 H720 0.950 1_556 S
C744 C739 1.363 . S
C744 C743 1.415 . S
C745 H721 0.951 . S
C745 C746 1.366 . S
C745 C747 1.388 . S
C746 C745 1.366 . S
C746 C750 1.385 1_556 S
C747 H722 0.951 . S
C747 C745 1.388 . S
C747 C748 1.366 . S
C748 C747 1.366 . S
C748 C749 1.414 1_556 S
C748 C751 1.499 . S
C749 H723 0.950 . S
C749 C748 1.414 1_554 S
C749 C750 1.374 . S
C750 H724 0.950 . S
C750 C746 1.385 1_554 S
C750 C749 1.374 . S
C751 C748 1.499 . S
C751 C752 1.373 1_655 S
C751 C753 1.389 1_566 S
C752 H725 0.950 . S
C752 C738 1.377 . S
C752 C751 1.373 1_455 S
C753 C737 1.377 . S
C753 C751 1.389 1_544 S
C753 C754 1.524 . S
C754 C753 1.524 . S
C754 C755 1.397 1_545 S
C754 C759 1.363 . S
C755 H726 0.950 . S
C755 C754 1.397 1_565 S
C755 C756 1.334 . S
C756 H727 0.950 . S
C756 C755 1.334 . S
C756 C757 1.287 1_565 S
C757 C756 1.287 1_545 S
C757 C758 1.524 . S
C757 H760 0.999 . S
C758 H728 0.950 . S
C758 C757 1.524 . S
C758 C759 1.415 . S
C759 H729 0.950 1_554 S
C759 C754 1.363 . S
C759 C758 1.415 . S
H760 C757 0.999 . S
H761 C742 0.913 . S
H762 C780 0.951 . S
H763 C782 0.951 . S
H764 C784 0.950 . S
H765 C785 0.950 . S
H766 C787 0.950 . S
H767 C790 0.950 . S
H768 C791 0.950 . S
H769 C793 0.950 . S
H770 C794 0.950 . S
H771 C795 0.951 . S
H772 C797 0.951 . S
H773 C799 0.950 . S
H774 C800 0.950 . S
H775 C802 0.950 . S
H776 C805 0.950 . S
H777 C806 0.950 . S
H778 C808 0.950 . S
H779 C809 0.950 . S
C780 H762 0.951 . S
C780 C781 1.366 . S
C780 C782 1.388 . S
C781 C780 1.366 . S
C781 C785 1.385 . S
C782 H763 0.951 . S
C782 C780 1.388 . S
C782 C783 1.366 . S
C783 C782 1.366 . S
C783 C784 1.414 . S
C783 C786 1.499 . S
C784 H764 0.950 . S
C784 C783 1.414 . S
C784 C785 1.374 . S
C785 H765 0.950 . S
C785 C781 1.385 . S
C785 C784 1.374 . S
C786 C783 1.499 . S
C786 C787 1.373 . S
C786 C788 1.389 . S
C787 H766 0.950 . S
C787 C786 1.373 . S
C787 C803 1.377 . S
C788 C786 1.389 . S
C788 C789 1.524 . S
C788 C802 1.377 . S
C789 C788 1.524 . S
C789 C790 1.397 . S
C789 C794 1.363 . S
C790 H767 0.950 . S
C790 C789 1.397 . S
C790 C791 1.334 . S
C791 H768 0.950 . S
C791 C790 1.334 . S
C791 C792 1.287 . S
C792 C791 1.287 . S
C792 C793 1.524 . S
C792 H811 0.913 . S
C793 H769 0.950 . S
C793 C792 1.524 . S
C793 C794 1.415 . S
C794 H770 0.950 . S
C794 C789 1.363 . S
C794 C793 1.415 . S
C795 H771 0.951 . S
C795 C796 1.366 . S
C795 C797 1.388 . S
C796 C795 1.366 . S
C796 C800 1.385 . S
C797 H772 0.951 . S
C797 C795 1.388 . S
C797 C798 1.366 . S
C798 C797 1.366 . S
C798 C799 1.414 . S
C798 C801 1.499 . S
C799 H773 0.950 . S
C799 C798 1.414 . S
C799 C800 1.374 . S
C800 H774 0.950 . S
C800 C796 1.385 . S
C800 C799 1.374 . S
C801 C798 1.499 . S
C801 C802 1.373 . S
C801 C803 1.389 . S
C802 H775 0.950 . S
C802 C788 1.377 . S
C802 C801 1.373 . S
C803 C787 1.377 . S
C803 C801 1.389 . S
C803 C804 1.524 . S
C804 C803 1.524 . S
C804 C805 1.397 . S
C804 C809 1.363 . S
C805 H776 0.950 . S
C805 C804 1.397 . S
C805 C806 1.334 . S
C806 H777 0.950 . S
C806 C805 1.334 . S
C806 C807 1.287 . S
C807 C806 1.287 . S
C807 C808 1.524 . S
C807 H810 0.999 . S
C808 H778 0.950 . S
C808 C807 1.524 . S
C808 C809 1.415 . S
C809 H779 0.950 . S
C809 C804 1.363 . S
C809 C808 1.415 . S
H810 C807 0.999 . S
H811 C792 0.913 . S
H812 C830 0.951 . S
H813 C832 0.951 . S
H814 C834 0.950 . S
H815 C835 0.950 . S
H816 C837 0.950 . S
H817 C840 0.950 1_554 S
H818 C841 0.950 . S
H819 C843 0.950 . S
H820 C844 0.950 . S
H821 C845 0.951 . S
H822 C847 0.951 . S
H823 C849 0.950 . S
H824 C850 0.950 . S
H825 C852 0.950 . S
H826 C855 0.950 1_556 S
H827 C856 0.950 . S
H828 C858 0.950 . S
H829 C859 0.950 . S
C830 H812 0.951 . S
C830 C831 1.366 1_556 S
C830 C832 1.388 . S
C831 C830 1.366 1_554 S
C831 C835 1.385 . S
C832 H813 0.951 . S
C832 C830 1.388 . S
C832 C833 1.366 1_556 S
C833 C832 1.366 1_554 S
C833 C834 1.414 . S
C833 C836 1.499 . S
C834 H814 0.950 . S
C834 C833 1.414 . S
C834 C835 1.374 . S
C835 H815 0.950 . S
C835 C831 1.385 . S
C835 C834 1.374 . S
C836 C833 1.499 . S
C836 C837 1.373 . S
C836 C838 1.389 1_554 S
C837 H816 0.950 . S
C837 C836 1.373 . S
C837 C853 1.377 . S
C838 C836 1.389 1_556 S
C838 C839 1.524 . S
C838 C852 1.377 . S
C839 C838 1.524 . S
C839 C840 1.397 . S
C839 C844 1.363 . S
C840 H817 0.950 1_556 S
C840 C839 1.397 . S
C840 C841 1.334 . S
C841 H818 0.950 . S
C841 C840 1.334 . S
C841 C842 1.287 . S
C842 C841 1.287 . S
C842 C843 1.524 . S
C842 H861 0.913 . S
C843 H819 0.950 . S
C843 C842 1.524 . S
C843 C844 1.415 . S
C844 H820 0.950 . S
C844 C839 1.363 . S
C844 C843 1.415 . S
C845 H821 0.951 . S
C845 C846 1.366 1_554 S
C845 C847 1.388 . S
C846 C845 1.366 1_556 S
C846 C850 1.385 . S
C847 H822 0.951 . S
C847 C845 1.388 . S
C847 C848 1.366 1_554 S
C848 C847 1.366 1_556 S
C848 C849 1.414 . S
C848 C851 1.499 . S
C849 H823 0.950 . S
C849 C848 1.414 . S
C849 C850 1.374 . S
C850 H824 0.950 . S
C850 C846 1.385 . S
C850 C849 1.374 . S
C851 C848 1.499 . S
C851 C852 1.373 . S
C851 C853 1.389 1_556 S
C852 H825 0.950 . S
C852 C838 1.377 . S
C852 C851 1.373 . S
C853 C837 1.377 . S
C853 C851 1.389 1_554 S
C853 C854 1.524 . S
C854 C853 1.524 . S
C854 C855 1.397 . S
C854 C859 1.363 . S
C855 H826 0.950 1_554 S
C855 C854 1.397 . S
C855 C856 1.334 . S
C856 H827 0.950 . S
C856 C855 1.334 . S
C856 C857 1.287 . S
C857 C856 1.287 . S
C857 C858 1.524 . S
C857 H860 0.999 . S
C858 H828 0.950 . S
C858 C857 1.524 . S
C858 C859 1.415 . S
C859 H829 0.950 . S
C859 C854 1.363 . S
C859 C858 1.415 . S
H860 C857 0.999 . S
H861 C842 0.913 . S
H862 C880 0.951 . S
H863 C882 0.951 . S
H864 C884 0.950 . S
H865 C885 0.950 . S
H866 C887 0.950 . S
H867 C890 0.950 1_455 S
H868 C891 0.950 . S
H869 C893 0.950 . S
H870 C894 0.950 . S
H871 C895 0.951 . S
H872 C897 0.951 . S
H873 C899 0.950 . S
H874 C900 0.950 . S
H875 C902 0.950 . S
H876 C905 0.950 1_655 S
H877 C906 0.950 . S
H878 C908 0.950 . S
H879 C909 0.950 . S
C880 H862 0.951 . S
C880 C881 1.366 . S
C880 C882 1.388 . S
C881 C880 1.366 . S
C881 C885 1.385 . S
C882 H863 0.951 . S
C882 C880 1.388 . S
C882 C883 1.366 . S
C883 C882 1.366 . S
C883 C884 1.414 . S
C883 C886 1.499 . S
C884 H864 0.950 . S
C884 C883 1.414 . S
C884 C885 1.374 . S
C885 H865 0.950 . S
C885 C881 1.385 . S
C885 C884 1.374 . S
C886 C883 1.499 . S
C886 C887 1.373 1_565 S
C886 C888 1.389 1_455 S
C887 H866 0.950 . S
C887 C886 1.373 1_545 S
C887 C903 1.377 . S
C888 C886 1.389 1_655 S
C888 C889 1.524 . S
C888 C902 1.377 . S
C889 C888 1.524 . S
C889 C890 1.397 . S
C889 C894 1.363 . S
C890 H867 0.950 1_655 S
C890 C889 1.397 . S
C890 C891 1.334 . S
C891 H868 0.950 . S
C891 C890 1.334 . S
C891 C892 1.287 . S
C892 C891 1.287 . S
C892 C893 1.524 . S
C892 H911 0.913 . S
C893 H869 0.950 . S
C893 C892 1.524 . S
C893 C894 1.415 . S
C894 H870 0.950 . S
C894 C889 1.363 . S
C894 C893 1.415 . S
C895 H871 0.951 . S
C895 C896 1.366 . S
C895 C897 1.388 . S
C896 C895 1.366 . S
C896 C900 1.385 . S
C897 H872 0.951 . S
C897 C895 1.388 . S
C897 C898 1.366 . S
C898 C897 1.366 . S
C898 C899 1.414 . S
C898 C901 1.499 . S
C899 H873 0.950 . S
C899 C898 1.414 . S
C899 C900 1.374 . S
C900 H874 0.950 . S
C900 C896 1.385 . S
C900 C899 1.374 . S
C901 C898 1.499 . S
C901 C902 1.373 1_545 S
C901 C903 1.389 1_655 S
C902 H875 0.950 . S
C902 C888 1.377 . S
C902 C901 1.373 1_565 S
C903 C887 1.377 . S
C903 C901 1.389 1_455 S
C903 C904 1.524 . S
C904 C903 1.524 . S
C904 C905 1.397 . S
C904 C909 1.363 . S
C905 H876 0.950 1_455 S
C905 C904 1.397 . S
C905 C906 1.334 . S
C906 H877 0.950 . S
C906 C905 1.334 . S
C906 C907 1.287 . S
C907 C906 1.287 . S
C907 C908 1.524 . S
C907 H910 0.999 . S
C908 H878 0.950 . S
C908 C907 1.524 . S
C908 C909 1.415 . S
C909 H879 0.950 . S
C909 C904 1.363 . S
C909 C908 1.415 . S
H910 C907 0.999 . S
H911 C892 0.913 . S
C131 C22 1.663 . S
C146 C6 1.670 . S
C181 C8 1.662 . S
C196 C20 1.670 . S
C231 C50 1.662 . S
C246 C34 1.670 . S
C281 C36 1.663 . S
C296 C48 1.670 . S
C331 C62 1.670 . S
C346 C78 1.662 . S
C381 C76 1.670 . S
C396 C64 1.662 . S
C431 C90 1.670 . S
C446 C106 1.662 . S
C481 C92 1.662 . S
C496 C104 1.670 . S
C531 C9 0.475 . S
C546 C51 0.479 . S
C581 C23 0.479 . S
C596 C37 0.475 . S
C631 C107 0.477 . S
C646 C65 0.477 . S
C681 C93 0.475 . S
C696 C79 0.479 . S
C731 C7 1.505 . S
C746 C63 1.505 . S
C781 C77 1.505 . S
C796 C21 1.505 . S
C831 C91 1.505 . S
C846 C35 1.505 . S
C881 C105 1.505 . S
C896 C49 1.505 . S
