# Generated by pormake.
# Topology vck, (7)-cn, num edge types: 1
# Building blocks:
#     Node 0, Type 0, BuildingBlock: HICVOG_clean_sbu_0, # of connection points: 7
#     Node 1, Type 0, BuildingBlock: HICVOG_clean_sbu_0, # of connection points: 7
#     Node 2, Type 0, BuildingBlock: HICVOG_clean_sbu_0, # of connection points: 7
#     Node 3, Type 0, BuildingBlock: HICVOG_clean_sbu_0, # of connection points: 7
#     Node 4, Type 0, BuildingBlock: HICVOG_clean_sbu_0, # of connection points: 7
#     Node 5, Type 0, BuildingBlock: HICVOG_clean_sbu_0, # of connection points: 7
#     Node 6, Type 0, BuildingBlock: HICVOG_clean_sbu_0, # of connection points: 7
#     Node 7, Type 0, BuildingBlock: HICVOG_clean_sbu_0, # of connection points: 7
#     Node 8, Type 0, BuildingBlock: HICVOG_clean_sbu_0, # of connection points: 7
#     Node 9, Type 0, BuildingBlock: HICVOG_clean_sbu_0, # of connection points: 7
#     Node 10, Type 0, BuildingBlock: HICVOG_clean_sbu_0, # of connection points: 7
#     Node 11, Type 0, BuildingBlock: HICVOG_clean_sbu_0, # of connection points: 7
#     Node 12, Type 0, BuildingBlock: HICVOG_clean_sbu_0, # of connection points: 7
#     Node 13, Type 0, BuildingBlock: HICVOG_clean_sbu_0, # of connection points: 7
#     Node 14, Type 0, BuildingBlock: HICVOG_clean_sbu_0, # of connection points: 7
#     Node 15, Type 0, BuildingBlock: HICVOG_clean_sbu_0, # of connection points: 7
#     Edge 16, Type (0, 0), None
#     Edge 17, Type (0, 0), None
#     Edge 18, Type (0, 0), None
#     Edge 19, Type (0, 0), None
#     Edge 20, Type (0, 0), None
#     Edge 21, Type (0, 0), None
#     Edge 22, Type (0, 0), None
#     Edge 23, Type (0, 0), None
#     Edge 24, Type (0, 0), None
#     Edge 25, Type (0, 0), None
#     Edge 26, Type (0, 0), None
#     Edge 27, Type (0, 0), None
#     Edge 28, Type (0, 0), None
#     Edge 29, Type (0, 0), None
#     Edge 30, Type (0, 0), None
#     Edge 31, Type (0, 0), None
#     Edge 32, Type (0, 0), None
#     Edge 33, Type (0, 0), None
#     Edge 34, Type (0, 0), None
#     Edge 35, Type (0, 0), None
#     Edge 36, Type (0, 0), None
#     Edge 37, Type (0, 0), None
#     Edge 38, Type (0, 0), None
#     Edge 39, Type (0, 0), None
#     Edge 40, Type (0, 0), None
#     Edge 41, Type (0, 0), None
#     Edge 42, Type (0, 0), None
#     Edge 43, Type (0, 0), None
#     Edge 44, Type (0, 0), None
#     Edge 45, Type (0, 0), None
#     Edge 46, Type (0, 0), None
#     Edge 47, Type (0, 0), None
#     Edge 48, Type (0, 0), None
#     Edge 49, Type (0, 0), None
#     Edge 50, Type (0, 0), None
#     Edge 51, Type (0, 0), None
#     Edge 52, Type (0, 0), None
#     Edge 53, Type (0, 0), None
#     Edge 54, Type (0, 0), None
#     Edge 55, Type (0, 0), None
#     Edge 56, Type (0, 0), None
#     Edge 57, Type (0, 0), None
#     Edge 58, Type (0, 0), None
#     Edge 59, Type (0, 0), None
#     Edge 60, Type (0, 0), None
#     Edge 61, Type (0, 0), None
#     Edge 62, Type (0, 0), None
#     Edge 63, Type (0, 0), None
#     Edge 64, Type (0, 0), None
#     Edge 65, Type (0, 0), None
#     Edge 66, Type (0, 0), None
#     Edge 67, Type (0, 0), None
#     Edge 68, Type (0, 0), None
#     Edge 69, Type (0, 0), None
#     Edge 70, Type (0, 0), None
#     Edge 71, Type (0, 0), None
# Relax obj value: 0.242
# Max RMSD: 0.247
# Mean RMSD: 0.247
data_MOF--net-vck--node1-HICVOG_clean_sbu_0--edge1-none
_symmetry_space_group_name_H-M    P1
_symmetry_Int_Tables_number       1
_symmetry_cell_setting            triclinic
loop_
_symmetry_equiv_pos_as_xyz
'x, y, z'
_cell_length_a     45.481276
_cell_length_b     26.853725
_cell_length_c     7.2326781
_cell_angle_alpha  90.006039
_cell_angle_beta   89.981181
_cell_angle_gamma 89.998934
loop_
_atom_site_label
_atom_site_type_symbol
_atom_site_fract_x
_atom_site_fract_y
_atom_site_fract_z
_atom_type_partial_charge
Zn0 Zn 0.56313 0.1464 0.98948 0.0
C1 C 0.52745 0.2473 0.2332 0.0
N2 N 0.5083 0.25024 1.08389 0.0
C3 C 0.524 0.23235 0.93302 0.0
N4 N 0.55064 0.21696 0.99476 0.0
N5 N 0.55389 0.23185 0.16729 0.0
C6 C 0.5886 0.17505 0.49447 0.0
O7 O 0.57364 0.15186 0.36608 0.0
O8 O 0.5661 0.13058 0.73 0.0
Zn9 Zn 0.5945 0.24463 0.23482 0.0
N10 N 0.53362 0.10249 1.09716 0.0
C11 C 0.48519 0.08535 0.20678 0.0
C12 C 0.50648 0.11909 1.14757 0.0
C13 C 0.54032 0.05327 1.10637 0.0
N14 N 0.49167 0.03609 0.21103 0.0
C15 C 0.51877 0.01909 0.16278 0.0
O16 O 0.62672 0.20441 1.10786 0.0
C17 C 0.62883 0.15707 1.09155 0.0
O18 O 0.60588 0.12961 1.08044 0.0
H19 H 0.50092 0.15778 1.13841 0.0
H20 H 0.56185 0.04082 1.06234 0.0
C21 C 0.63063 0.33349 0.28656 0.0
C22 C 0.63537 0.38527 0.30434 0.0
C23 C 0.58488 0.39928 0.23884 0.0
C24 C 0.58035 0.34821 0.22057 0.0
N25 N 0.60314 0.31614 0.24557 0.0
N26 N 0.61213 0.41653 0.28019 0.0
H27 H 0.64842 0.30726 0.30634 0.0
C28 C 0.58608 0.16047 0.68068 0.0
O29 O 0.59793 0.19068 0.80076 0.0
O30 O 0.59869 0.2183 0.46867 0.0
H31 H 0.55867 0.33435 0.18854 0.0
H32 H 0.46348 0.09812 0.24555 0.0
H33 H 0.56684 0.42507 0.22063 0.0
Zn34 Zn 0.48044 0.83806 0.98961 0.0
C35 C 0.51613 0.73717 0.23322 0.0
N36 N 0.53528 0.73423 1.08382 0.0
C37 C 0.51958 0.75212 0.93303 0.0
N38 N 0.49294 0.76751 0.99489 0.0
N39 N 0.48969 0.75262 0.16743 0.0
C40 C 0.45496 0.80938 0.49471 0.0
O41 O 0.46991 0.83259 0.36625 0.0
O42 O 0.47747 0.85385 0.73014 0.0
Zn43 Zn 0.44907 0.73983 0.23499 0.0
N44 N 0.50995 0.88199 1.09721 0.0
C45 C 0.55837 0.89913 0.2068 0.0
C46 C 0.53708 0.86539 1.14762 0.0
C47 C 0.50325 0.93121 1.10639 0.0
N48 N 0.55189 0.9484 0.21103 0.0
C49 C 0.52479 0.96539 0.16278 0.0
O50 O 0.41686 0.78005 1.10817 0.0
C51 C 0.41475 0.82739 1.09179 0.0
O52 O 0.43769 0.85485 1.08066 0.0
H53 H 0.54264 0.8267 1.13849 0.0
H54 H 0.48172 0.94366 1.06238 0.0
C55 C 0.41295 0.65095 0.28646 0.0
C56 C 0.40821 0.59916 0.30408 0.0
C57 C 0.45871 0.58518 0.23862 0.0
C58 C 0.46324 0.63625 0.22051 0.0
N59 N 0.44044 0.66831 0.24556 0.0
N60 N 0.43146 0.56791 0.27988 0.0
H61 H 0.39515 0.67716 0.30629 0.0
C62 C 0.4575 0.82395 0.68093 0.0
O63 O 0.44567 0.79372 0.80105 0.0
O64 O 0.44488 0.76612 0.46891 0.0
H65 H 0.48492 0.65012 0.18854 0.0
H66 H 0.58007 0.88637 0.24558 0.0
H67 H 0.47676 0.55939 0.22036 0.0
Zn68 Zn 0.6991 0.49457 0.48476 0.0
C69 C 0.76958 0.48234 0.18242 0.0
N70 N 0.78529 0.5002 0.33321 0.0
C71 C 0.76615 0.49727 0.48256 0.0
N72 N 0.7397 0.48187 0.41661 0.0
N73 N 0.74294 0.46689 0.24412 0.0
C74 C 0.70751 0.41028 0.9304 0.0
O75 O 0.69563 0.44051 1.0504 0.0
O76 O 0.69494 0.46814 0.7185 0.0
Zn77 Zn 0.73042 0.39634 0.23938 0.0
N78 N 0.69044 0.56608 0.49585 0.0
C79 C 0.70872 0.64922 0.48952 0.0
C80 C 0.71325 0.59816 0.47117 0.0
C81 C 0.66295 0.58344 0.53661 0.0
N82 N 0.68146 0.66648 0.53065 0.0
C83 C 0.65821 0.63522 0.55449 0.0
O84 O 0.68768 0.37961 0.33062 0.0
C85 C 0.66475 0.4071 0.3416 0.0
O86 O 0.66687 0.45444 0.35772 0.0
H87 H 0.73494 0.5843 0.43929 0.0
H88 H 0.64514 0.55722 0.55612 0.0
C89 C 0.75325 0.30323 0.3563 0.0
C90 C 0.77479 0.26905 0.41267 0.0
C91 C 0.80837 0.33532 0.45658 0.0
C92 C 0.78707 0.36906 0.3974 0.0
N93 N 0.75994 0.35245 0.34709 0.0
N94 N 0.80189 0.28605 0.46085 0.0
H95 H 0.73171 0.29076 0.31232 0.0
C96 C 0.70502 0.42488 0.74415 0.0
O97 O 0.72005 0.40176 0.61583 0.0
O98 O 0.72748 0.38042 0.97992 0.0
H99 H 0.79262 0.40775 0.38818 0.0
H100 H 0.72677 0.67501 0.47156 0.0
H101 H 0.83007 0.3481 0.49529 0.0
Zn102 Zn 0.34448 0.48985 0.48442 0.0
C103 C 0.27401 0.50207 0.18221 0.0
N104 N 0.2583 0.4842 0.33306 0.0
C105 C 0.27744 0.48715 0.48236 0.0
N106 N 0.30388 0.50254 0.41632 0.0
N107 N 0.30065 0.51751 0.24385 0.0
C108 C 0.33607 0.57419 0.9301 0.0
O109 O 0.34797 0.54398 1.05 0.0
O110 O 0.34863 0.51633 0.71811 0.0
Zn111 Zn 0.31316 0.58808 0.23923 0.0
N112 N 0.35314 0.41835 0.49567 0.0
C113 C 0.33487 0.3352 0.4895 0.0
C114 C 0.33034 0.38626 0.47099 0.0
C115 C 0.38063 0.401 0.5366 0.0
N116 N 0.36213 0.31796 0.53077 0.0
C117 C 0.38537 0.34923 0.55462 0.0
O118 O 0.3559 0.6048 0.33039 0.0
C119 C 0.37884 0.57731 0.34128 0.0
O120 O 0.37671 0.52997 0.35727 0.0
H121 H 0.30866 0.40011 0.43899 0.0
H122 H 0.39843 0.42723 0.55611 0.0
C123 C 0.29033 0.68118 0.35635 0.0
C124 C 0.26879 0.71535 0.4129 0.0
C125 C 0.23522 0.64907 0.45707 0.0
C126 C 0.25652 0.61534 0.3977 0.0
N127 N 0.28364 0.63195 0.34717 0.0
N128 N 0.24169 0.69834 0.4613 0.0
H129 H 0.31186 0.69364 0.31221 0.0
C130 C 0.33855 0.55959 0.74383 0.0
O131 O 0.3235 0.58268 0.61562 0.0
O132 O 0.3161 0.60403 0.97979 0.0
H133 H 0.25097 0.57665 0.3885 0.0
H134 H 0.31682 0.30941 0.47153 0.0
H135 H 0.21352 0.63629 0.49595 0.0
Zn136 Zn 0.56313 0.6464 0.48946 0.0
C137 C 0.52745 0.74726 0.73322 0.0
N138 N 0.50831 0.75023 0.58389 0.0
C139 C 0.52401 0.73238 0.433 0.0
N140 N 0.55065 0.71697 0.49475 0.0
N141 N 0.5539 0.73184 0.6673 0.0
C142 C 0.58861 0.67504 0.99446 0.0
O143 O 0.57364 0.65185 0.86607 0.0
O144 O 0.5661 0.63058 0.22998 0.0
Zn145 Zn 0.59451 0.74462 0.73484 0.0
N146 N 0.53361 0.60249 0.59712 0.0
C147 C 0.48518 0.58535 0.70662 0.0
C148 C 0.50648 0.61909 0.64743 0.0
C149 C 0.54032 0.55328 0.60638 0.0
N150 N 0.49166 0.53609 0.71092 0.0
C151 C 0.51877 0.51909 0.66276 0.0
O152 O 0.62672 0.70441 0.60787 0.0
C153 C 0.62883 0.65707 0.59158 0.0
O154 O 0.60588 0.62961 0.58043 0.0
H155 H 0.50092 0.65778 0.6382 0.0
H156 H 0.56186 0.54082 0.56241 0.0
C157 C 0.63063 0.83349 0.78657 0.0
C158 C 0.63537 0.88526 0.80438 0.0
C159 C 0.58488 0.89927 0.73896 0.0
C160 C 0.58035 0.8482 0.72067 0.0
N161 N 0.60315 0.81613 0.74561 0.0
N162 N 0.61213 0.91653 0.78028 0.0
H163 H 0.64843 0.80726 0.80631 0.0
C164 C 0.58609 0.66045 0.18067 0.0
O165 O 0.59793 0.69067 0.30075 0.0
O166 O 0.59869 0.71829 0.96867 0.0
H167 H 0.55867 0.83434 0.68867 0.0
H168 H 0.46347 0.59812 0.74532 0.0
H169 H 0.56683 0.92506 0.7208 0.0
Zn170 Zn 0.48044 0.33806 0.48959 0.0
C171 C 0.51613 0.23721 0.73324 0.0
N172 N 0.53528 0.23424 0.58383 0.0
C173 C 0.51957 0.25209 0.43302 0.0
N174 N 0.49293 0.2675 0.49488 0.0
N175 N 0.48968 0.25263 0.66743 0.0
C176 C 0.45495 0.30939 0.9947 0.0
O177 O 0.4699 0.3326 0.86624 0.0
O178 O 0.47747 0.35386 0.23012 0.0
Zn179 Zn 0.44907 0.23983 0.73501 0.0
N180 N 0.50995 0.38199 0.59717 0.0
C181 C 0.55838 0.39914 0.70665 0.0
C182 C 0.53708 0.36539 0.64748 0.0
C183 C 0.50325 0.4312 0.6064 0.0
N184 N 0.55189 0.4484 0.71092 0.0
C185 C 0.52479 0.46539 0.66276 0.0
O186 O 0.41686 0.28005 0.60818 0.0
C187 C 0.41475 0.32739 0.59183 0.0
O188 O 0.43769 0.35486 0.58065 0.0
H189 H 0.54264 0.3267 0.63827 0.0
H190 H 0.48171 0.44365 0.56244 0.0
C191 C 0.41295 0.15095 0.78647 0.0
C192 C 0.40821 0.09917 0.80412 0.0
C193 C 0.45872 0.08519 0.73874 0.0
C194 C 0.46324 0.13626 0.72061 0.0
N195 N 0.44044 0.16832 0.7456 0.0
N196 N 0.43146 0.06791 0.77997 0.0
H197 H 0.39515 0.17716 0.80626 0.0
C198 C 0.45749 0.32396 0.18092 0.0
O199 O 0.44566 0.29373 0.30104 0.0
O200 O 0.44487 0.26613 0.96891 0.0
H201 H 0.48493 0.15013 0.68867 0.0
H202 H 0.58008 0.38637 0.74535 0.0
H203 H 0.47677 0.0594 0.72053 0.0
Zn204 Zn 0.6991 -0.00542 0.98477 0.0
C205 C 0.76958 0.98234 0.68243 0.0
N206 N 0.78529 0.0002 0.83322 0.0
C207 C 0.76615 -0.00273 0.98258 0.0
N208 N 0.7397 0.98187 0.91662 0.0
N209 N 0.74294 0.96689 0.74414 0.0
C210 C 0.7075 0.91029 0.43041 0.0
O211 O 0.69563 0.94051 0.55042 0.0
O212 O 0.69494 0.96815 0.21852 0.0
Zn213 Zn 0.73042 0.89634 0.73939 0.0
N214 N 0.69044 0.06608 0.99587 0.0
C215 C 0.70872 0.14922 0.98959 0.0
C216 C 0.71326 0.09816 0.97122 0.0
C217 C 0.66295 0.08344 1.03661 0.0
N218 N 0.68146 0.16648 1.03069 0.0
C219 C 0.6582 0.13522 1.05448 0.0
O220 O 0.68768 0.87961 0.83064 0.0
C221 C 0.66475 0.9071 0.84162 0.0
O222 O 0.66687 0.95444 0.85774 0.0
H223 H 0.73494 0.0843 0.93937 0.0
H224 H 0.64514 0.05722 1.05609 0.0
C225 C 0.75325 0.80323 0.8563 0.0
C226 C 0.77479 0.76905 0.91268 0.0
C227 C 0.80836 0.83532 0.95662 0.0
C228 C 0.78707 0.86906 0.89744 0.0
N229 N 0.75994 0.85245 0.8471 0.0
N230 N 0.80189 0.78605 0.96087 0.0
H231 H 0.73171 0.79076 0.81231 0.0
C232 C 0.70502 0.92488 0.24417 0.0
O233 O 0.72005 0.90177 1.11584 0.0
O234 O 0.72748 0.88042 0.47993 0.0
H235 H 0.79262 0.90775 0.88823 0.0
H236 H 0.72678 0.17501 0.97165 0.0
H237 H 0.83007 0.8481 0.99534 0.0
Zn238 Zn 0.34448 0.98985 0.98444 0.0
C239 C 0.27401 0.00207 0.68223 0.0
N240 N 0.2583 0.9842 0.83307 0.0
C241 C 0.27744 0.98715 0.98237 0.0
N242 N 0.30388 0.00253 0.91633 0.0
N243 N 0.30065 0.01751 0.74386 0.0
C244 C 0.33608 0.07419 0.43012 0.0
O245 O 0.34797 0.04398 0.55002 0.0
O246 O 0.34863 0.01632 0.21813 0.0
Zn247 Zn 0.31316 0.08807 0.73925 0.0
N248 N 0.35314 0.91834 0.9957 0.0
C249 C 0.33487 0.8352 0.98956 0.0
C250 C 0.33034 0.88626 0.97105 0.0
C251 C 0.38063 0.901 1.03659 0.0
N252 N 0.36213 0.81796 1.03081 0.0
C253 C 0.38537 0.84923 1.05462 0.0
O254 O 0.3559 0.1048 0.83041 0.0
C255 C 0.37884 0.07731 0.8413 0.0
O256 O 0.37671 0.02997 0.85729 0.0
H257 H 0.30865 0.9001 0.93907 0.0
H258 H 0.39843 0.92723 1.05608 0.0
C259 C 0.29033 0.18118 0.85636 0.0
C260 C 0.26879 0.21535 0.91291 0.0
C261 C 0.23523 0.14907 0.95711 0.0
C262 C 0.25652 0.11534 0.89774 0.0
N263 N 0.28364 0.13195 0.84719 0.0
N264 N 0.2417 0.19834 0.96132 0.0
H265 H 0.31186 0.19364 0.8122 0.0
C266 C 0.33855 0.05958 0.24385 0.0
O267 O 0.3235 0.08268 1.11564 0.0
O268 O 0.3161 0.10403 0.4798 0.0
H269 H 0.25097 0.07665 0.88855 0.0
H270 H 0.31682 0.8094 0.97162 0.0
H271 H 0.21353 0.13629 0.996 0.0
Zn272 Zn 0.09448 0.24458 0.7346 0.0
C273 C 0.02401 0.23236 0.43245 0.0
N274 N 1.0083 0.25022 0.5833 0.0
C275 C 0.02744 0.24728 0.73258 0.0
N276 N 0.05388 0.23188 0.66652 0.0
N277 N 0.05065 0.2169 0.49405 0.0
C278 C 0.08608 0.16027 0.18025 0.0
O279 O 0.09797 0.19047 0.30022 0.0
O280 O 0.09863 0.21815 0.96835 0.0
Zn281 Zn 0.06316 0.14634 0.48931 0.0
N282 N 0.10314 0.31609 0.74568 0.0
C283 C 0.08487 0.39923 0.73932 0.0
C284 C 0.08034 0.34817 0.72094 0.0
C285 C 0.13063 0.33344 0.78655 0.0
N286 N 0.11213 0.41648 0.78054 0.0
C287 C 0.13537 0.38522 0.80445 0.0
O288 O 0.1059 0.12959 0.58046 0.0
C289 C 0.12883 0.15707 0.59145 0.0
O290 O 0.12671 0.20441 0.60757 0.0
H291 H 0.05865 0.33432 0.68899 0.0
H292 H 0.14843 0.30721 0.80612 0.0
C293 C 0.04032 0.05325 0.6063 0.0
C294 C 1.01877 0.01907 0.66268 0.0
C295 C 0.98519 0.08535 0.70663 0.0
C296 C 1.0065 0.11908 0.64744 0.0
N297 N 0.03363 0.10247 0.59709 0.0
N298 N 0.99167 0.03608 0.71089 0.0
H299 H 0.06186 0.04078 0.5623 0.0
C300 C 0.08856 0.17488 0.99401 0.0
O301 O 0.07352 0.15178 0.86574 0.0
O302 O 0.0661 0.13042 0.22986 0.0
H303 H 1.00094 0.15777 0.63822 0.0
H304 H 0.06682 0.42502 0.7213 0.0
H305 H 0.96349 0.09812 0.74536 0.0
Zn306 Zn 0.98045 0.83806 0.48912 0.0
C307 C 1.01614 0.73717 0.73265 0.0
N308 N 0.03528 0.73422 0.58323 0.0
C309 C 1.01958 0.75211 0.43244 0.0
N310 N 0.99294 0.7675 0.49432 0.0
N311 N 0.98969 0.75262 0.66686 0.0
C312 C 0.95498 0.80943 0.99415 0.0
O313 O 0.96994 0.83262 0.86572 0.0
O314 O 0.97749 0.85388 0.22964 0.0
Zn315 Zn 0.94908 0.73984 0.73448 0.0
N316 N 1.00995 0.88198 0.59686 0.0
C317 C 0.05835 0.8991 0.70676 0.0
C318 C 0.03707 0.86537 0.64738 0.0
C319 C 1.00325 0.93119 0.6061 0.0
N320 N 0.05188 0.94837 0.71103 0.0
C321 C 0.02478 0.96537 0.66266 0.0
O322 O 0.91686 0.78002 0.60756 0.0
C323 C 0.91475 0.82736 0.59124 0.0
O324 O 0.93769 0.85483 0.58017 0.0
H325 H 0.04262 0.82668 0.6382 0.0
H326 H 0.98172 0.94366 0.562 0.0
C327 C 0.91295 0.65097 0.78607 0.0
C328 C 0.90821 0.59919 0.80384 0.0
C329 C 0.95871 0.58519 0.73861 0.0
C330 C 0.96325 0.63626 0.72036 0.0
N331 N 0.94044 0.66833 0.74523 0.0
N332 N 0.93146 0.56793 0.77982 0.0
H333 H 0.89514 0.67719 0.80575 0.0
C334 C 0.95751 0.82399 0.18038 0.0
O335 O 0.94568 0.79375 0.30047 0.0
O336 O 0.94488 0.76618 0.96833 0.0
H337 H 0.98493 0.65012 0.68844 0.0
H338 H 0.08005 0.88632 0.74563 0.0
H339 H 0.97677 0.55941 0.7205 0.0
Zn340 Zn 0.1991 0.49455 0.98467 0.0
C341 C 0.26956 0.48236 0.6822 0.0
N342 N 0.28528 0.50019 0.83301 0.0
C343 C 0.26615 0.49721 0.9824 0.0
N344 N 0.2397 0.48184 0.91645 0.0
N345 N 0.24293 0.46688 0.74394 0.0
C346 C 0.2075 0.41023 0.43026 0.0
O347 O 0.19562 0.44044 0.55027 0.0
O348 O 0.19494 0.46811 0.2184 0.0
Zn349 Zn 0.23042 0.39632 0.73924 0.0
N350 N 0.19045 0.56606 0.99582 0.0
C351 C 0.20873 0.64919 0.98966 0.0
C352 C 0.21326 0.59813 0.97126 0.0
C353 C 0.16295 0.58342 1.03654 0.0
N354 N 0.18147 0.66646 1.03073 0.0
C355 C 0.15821 0.6352 1.05446 0.0
O356 O 0.18768 0.37957 0.83052 0.0
C357 C 0.16475 0.40706 0.84158 0.0
O358 O 0.16687 0.4544 0.85769 0.0
H359 H 0.23495 0.58427 0.93944 0.0
H360 H 0.14514 0.55721 1.05597 0.0
C361 C 0.25325 0.30322 0.85637 0.0
C362 C 0.27479 0.26906 0.91283 0.0
C363 C 0.30837 0.33533 0.95655 0.0
C364 C 0.28707 0.36906 0.89726 0.0
N365 N 0.25994 0.35244 0.84701 0.0
N366 N 0.30189 0.28607 0.96096 0.0
H367 H 0.23171 0.29075 0.81243 0.0
C368 C 0.20502 0.42484 0.24403 0.0
O369 O 0.22006 0.40173 1.1157 0.0
O370 O 0.22748 0.38039 0.47979 0.0
H371 H 0.29263 0.40774 0.88788 0.0
H372 H 0.22679 0.67498 0.97178 0.0
H373 H 0.33007 0.34812 0.99522 0.0
Zn374 Zn 0.81314 0.58805 0.73899 0.0
C375 C 0.77745 0.48719 0.9826 0.0
N376 N 0.75831 0.48421 0.83325 0.0
C377 C 0.77402 0.50206 0.68238 0.0
N378 N 0.80065 0.51748 0.74416 0.0
N379 N 0.8039 0.50261 0.9167 0.0
C380 C 0.8386 0.55945 0.2439 0.0
O381 O 0.82362 0.58263 1.11556 0.0
O382 O 0.81609 0.6039 0.47952 0.0
Zn383 Zn 0.84451 0.48983 0.98428 0.0
N384 N 0.78363 0.63195 0.84683 0.0
C385 C 0.73521 0.64908 0.9567 0.0
C386 C 0.7565 0.61534 0.89731 0.0
C387 C 0.79032 0.68117 0.85609 0.0
N388 N 0.74168 0.69834 0.96099 0.0
C389 C 0.76878 0.71534 0.91265 0.0
O390 O 0.87672 0.53001 0.85722 0.0
C391 C 0.87883 0.57735 0.84102 0.0
O392 O 0.85589 0.60482 0.82997 0.0
H393 H 0.75094 0.57666 0.88807 0.0
H394 H 0.81185 0.69363 0.812 0.0
C395 C 0.88063 0.40098 1.03611 0.0
C396 C 0.88537 0.3492 1.05403 0.0
C397 C 0.83488 0.33519 0.9888 0.0
C398 C 0.83034 0.38625 0.9704 0.0
N399 N 0.85315 0.41833 0.99519 0.0
N400 N 0.86213 0.31794 1.03008 0.0
H401 H 0.89843 0.4272 1.05574 0.0
C402 C 0.83608 0.57403 0.43014 0.0
O403 O 0.84793 0.5438 0.55016 0.0
O404 O 0.84869 0.51621 0.21806 0.0
H405 H 0.80866 0.40011 0.93843 0.0
H406 H 0.7135 0.6363 0.99554 0.0
H407 H 0.81683 0.3094 0.97075 0.0
Zn408 Zn 0.09448 0.74457 0.23461 0.0
C409 C 0.02402 0.73239 0.93243 0.0
N410 N 1.0083 0.75022 1.0833 0.0
C411 C 0.02744 0.74724 0.2326 0.0
N412 N 0.05389 0.73188 0.16653 0.0
N413 N 0.05066 0.71691 0.99404 0.0
C414 C 0.08609 0.66026 0.68024 0.0
O415 O 0.09798 0.69045 0.80021 0.0
O416 O 0.09863 0.71814 0.46835 0.0
Zn417 Zn 0.06316 0.64634 0.98929 0.0
N418 N 0.10314 0.81608 0.24572 0.0
C419 C 0.08486 0.89922 0.23945 0.0
C420 C 0.08033 0.84816 0.22104 0.0
C421 C 0.13063 0.83344 0.28657 0.0
N422 N 0.11212 0.91648 0.28063 0.0
C423 C 0.13537 0.88521 0.30449 0.0
O424 O 0.1059 0.62958 1.08045 0.0
C425 C 0.12883 0.65706 1.09149 0.0
O426 O 0.12672 0.70441 1.10758 0.0
H427 H 0.05865 0.8343 0.18912 0.0
H428 H 0.14843 0.80721 0.30609 0.0
C429 C 0.04032 0.55325 1.10631 0.0
C430 C 1.01877 0.51908 0.16266 0.0
C431 C 0.98519 0.58535 0.20648 0.0
C432 C 1.00649 0.61908 1.1473 0.0
N433 N 0.03363 0.60247 1.09705 0.0
N434 N 0.99166 0.53608 0.21079 0.0
H435 H 0.06186 0.54078 1.06236 0.0
C436 C 0.08856 0.67487 0.494 0.0
O437 O 0.07353 0.65177 0.36574 0.0
O438 O 0.06611 0.63042 0.72984 0.0
H439 H 1.00093 0.65776 1.13801 0.0
H440 H 0.06681 0.92501 0.22147 0.0
H441 H 0.96348 0.59812 0.24514 0.0
Zn442 Zn 0.98044 0.33806 0.98909 0.0
C443 C 1.01614 0.23721 0.23266 0.0
N444 N 0.03528 0.23423 1.08323 0.0
C445 C 1.01957 0.25207 0.93242 0.0
N446 N 0.99294 0.2675 0.99431 0.0
N447 N 0.98969 0.25263 0.16687 0.0
C448 C 0.95497 0.30944 0.49414 0.0
O449 O 0.96993 0.33263 0.36571 0.0
O450 O 0.97749 0.35388 0.72963 0.0
Zn451 Zn 0.94907 0.23984 0.2345 0.0
N452 N 1.00995 0.38197 1.09682 0.0
C453 C 0.05836 0.3991 0.2066 0.0
C454 C 0.03707 0.36537 1.14725 0.0
C455 C 1.00325 0.43119 1.10611 0.0
N456 N 0.05188 0.44837 0.21092 0.0
C457 C 0.02478 0.46537 0.16264 0.0
O458 O 0.91686 0.28003 1.10757 0.0
C459 C 0.91475 0.32737 1.09127 0.0
O460 O 0.93769 0.35484 1.08016 0.0
H461 H 0.04263 0.32668 1.13799 0.0
H462 H 0.98172 0.44365 1.06206 0.0
C463 C 0.91295 0.15097 0.28609 0.0
C464 C 0.90821 0.0992 0.30388 0.0
C465 C 0.95872 0.0852 0.23873 0.0
C466 C 0.96325 0.13627 0.22046 0.0
N467 N 0.94044 0.16834 0.24527 0.0
N468 N 0.93146 0.06794 0.27991 0.0
H469 H 0.89514 0.17719 0.30573 0.0
C470 C 0.95751 0.324 0.68037 0.0
O471 O 0.94567 0.29376 0.80046 0.0
O472 O 0.94488 0.26619 0.46834 0.0
H473 H 0.98493 0.15013 0.18857 0.0
H474 H 0.08006 0.38633 0.2454 0.0
H475 H 0.97677 0.05942 0.22066 0.0
Zn476 Zn 0.1991 -0.00545 0.48469 0.0
C477 C 0.26956 0.98236 0.18222 0.0
N478 N 0.28528 0.00019 0.33303 0.0
C479 C 0.26615 -0.00279 0.48242 0.0
N480 N 0.2397 0.98185 0.41646 0.0
N481 N 0.24293 0.96688 0.24395 0.0
C482 C 0.2075 0.91024 0.93028 0.0
O483 O 0.19562 0.94044 1.05029 0.0
O484 O 0.19494 0.96811 0.71842 0.0
Zn485 Zn 0.23042 0.89632 0.23925 0.0
N486 N 0.19045 0.06606 0.49584 0.0
C487 C 0.20874 0.1492 0.48973 0.0
C488 C 0.21327 0.09813 0.47132 0.0
C489 C 0.16295 0.08343 0.53654 0.0
N490 N 0.18147 0.16646 0.53076 0.0
C491 C 0.15821 0.13521 0.55446 0.0
O492 O 0.18768 0.87957 0.33053 0.0
C493 C 0.16475 0.90706 0.3416 0.0
O494 O 0.16687 0.9544 0.35771 0.0
H495 H 0.23495 0.08427 0.43952 0.0
H496 H 0.14514 0.05721 0.55594 0.0
C497 C 0.25325 0.80322 0.35637 0.0
C498 C 0.27479 0.76906 0.41283 0.0
C499 C 0.30837 0.83533 0.45659 0.0
C500 C 0.28707 0.86906 0.39729 0.0
N501 N 0.25994 0.85244 0.34702 0.0
N502 N 0.30189 0.78607 0.46099 0.0
H503 H 0.23171 0.79075 0.31242 0.0
C504 C 0.20502 0.92484 0.74405 0.0
O505 O 0.22006 0.90173 0.61571 0.0
O506 O 0.22748 0.88039 0.97981 0.0
H507 H 0.29263 0.90774 0.38793 0.0
H508 H 0.2268 0.17498 0.47188 0.0
H509 H 0.33007 0.84812 0.49527 0.0
Zn510 Zn 0.81314 0.08805 0.239 0.0
C511 C 0.77745 0.98719 0.48262 0.0
N512 N 0.75831 0.98421 0.33327 0.0
C513 C 0.77402 0.00206 0.18239 0.0
N514 N 0.80065 0.01748 0.24417 0.0
N515 N 0.8039 0.00261 0.41672 0.0
C516 C 0.8386 0.05945 0.74392 0.0
O517 O 0.82362 0.08263 0.61558 0.0
O518 O 0.81609 0.10389 0.97954 0.0
Zn519 Zn 0.84451 0.98983 0.4843 0.0
N520 N 0.78363 0.13195 0.34684 0.0
C521 C 0.73521 0.14908 0.45673 0.0
C522 C 0.7565 0.11534 0.39734 0.0
C523 C 0.79032 0.18117 0.35609 0.0
N524 N 0.74168 0.19834 0.46102 0.0
C525 C 0.76878 0.21534 0.41266 0.0
O526 O 0.87672 0.03001 0.35724 0.0
C527 C 0.87883 0.07735 0.34104 0.0
O528 O 0.85589 0.10482 0.32998 0.0
H529 H 0.75094 0.07666 0.38811 0.0
H530 H 0.81185 0.19363 0.31199 0.0
C531 C 0.88064 0.90098 0.53611 0.0
C532 C 0.88537 0.8492 0.55403 0.0
C533 C 0.83487 0.83519 0.48887 0.0
C534 C 0.83034 0.88625 0.47046 0.0
N535 N 0.85315 0.91833 0.49522 0.0
N536 N 0.86213 0.81794 0.53012 0.0
H537 H 0.89844 0.9272 0.5557 0.0
C538 C 0.83608 0.07403 0.93016 0.0
O539 O 0.84793 0.0438 1.05017 0.0
O540 O 0.84869 0.0162 0.71808 0.0
H541 H 0.80866 0.90011 0.43851 0.0
H542 H 0.71351 0.1363 0.49559 0.0
H543 H 0.81682 0.8094 0.47085 0.0
loop_
_geom_bond_atom_site_label_1
_geom_bond_atom_site_label_2
_geom_bond_distance
_geom_bond_site_symmetry_2
_ccdc_geom_bond_type
Zn0 N4 2.020 . S
Zn0 O8 2.019 . S
Zn0 N10 2.119 . S
Zn0 O18 1.975 . S
C1 N2 1.334 . S
C1 N5 1.336 . S
N2 C1 1.334 . S
N2 C3 1.334 1_554 S
C3 N2 1.334 1_556 S
C3 N4 1.336 . S
N4 Zn0 2.020 . S
N4 C3 1.336 . S
N4 N5 1.354 1_556 S
N5 C1 1.336 . S
N5 N4 1.354 1_554 S
N5 Zn9 2.020 . S
C6 O7 1.244 . S
C6 O30 1.257 . S
O7 C6 1.244 . S
O8 Zn0 2.019 . S
O8 C28 1.257 . S
Zn9 N5 2.020 . S
Zn9 O16 1.975 . S
Zn9 N25 2.119 . S
Zn9 O30 2.019 . S
N10 Zn0 2.119 . S
N10 C12 1.334 1_556 S
N10 C13 1.328 . S
C11 C12 1.391 . S
C11 N14 1.329 1_554 S
C11 H32 0.930 . S
C12 N10 1.334 1_554 S
C12 C11 1.391 . S
C12 H19 0.930 . S
C13 N10 1.328 . S
C13 C15 1.392 . S
C13 H20 0.930 . S
N14 C11 1.329 1_556 S
N14 C15 1.331 . S
C15 C13 1.392 . S
C15 N14 1.331 . S
O16 Zn9 1.975 . S
O16 C17 1.252 1_554 S
C17 O16 1.252 1_556 S
C17 O18 1.252 . S
O18 Zn0 1.975 . S
O18 C17 1.252 . S
H19 C12 0.930 . S
H20 C13 0.930 . S
C21 C22 1.392 . S
C21 N25 1.328 . S
C21 H27 0.930 . S
C22 C21 1.392 . S
C22 N26 1.331 . S
C23 C24 1.391 . S
C23 N26 1.329 1_556 S
C23 H33 0.930 . S
C24 C23 1.391 . S
C24 N25 1.334 1_556 S
C24 H31 0.930 . S
N25 Zn9 2.119 . S
N25 C21 1.328 . S
N25 C24 1.334 1_554 S
N26 C22 1.331 . S
N26 C23 1.329 1_554 S
H27 C21 0.930 . S
C28 O8 1.257 . S
C28 O29 1.244 . S
O29 C28 1.244 . S
O30 C6 1.257 . S
O30 Zn9 2.019 . S
H31 C24 0.930 . S
H32 C11 0.930 . S
H33 C23 0.930 . S
Zn34 N38 2.020 . S
Zn34 O42 2.019 . S
Zn34 N44 2.119 . S
Zn34 O52 1.975 . S
C35 N36 1.334 . S
C35 N39 1.336 . S
N36 C35 1.334 . S
N36 C37 1.334 1_554 S
C37 N36 1.334 1_556 S
C37 N38 1.336 . S
N38 Zn34 2.020 . S
N38 C37 1.336 . S
N38 N39 1.354 1_556 S
N39 C35 1.336 . S
N39 N38 1.354 1_554 S
N39 Zn43 2.020 . S
C40 O41 1.244 . S
C40 O64 1.257 . S
O41 C40 1.244 . S
O42 Zn34 2.019 . S
O42 C62 1.257 . S
Zn43 N39 2.020 . S
Zn43 O50 1.975 . S
Zn43 N59 2.119 . S
Zn43 O64 2.019 . S
N44 Zn34 2.119 . S
N44 C46 1.334 1_556 S
N44 C47 1.328 . S
C45 C46 1.391 . S
C45 N48 1.329 1_554 S
C45 H66 0.930 . S
C46 N44 1.334 1_554 S
C46 C45 1.391 . S
C46 H53 0.930 . S
C47 N44 1.328 . S
C47 C49 1.392 . S
C47 H54 0.930 . S
N48 C45 1.329 1_556 S
N48 C49 1.331 . S
C49 C47 1.392 . S
C49 N48 1.331 . S
O50 Zn43 1.975 . S
O50 C51 1.252 1_554 S
C51 O50 1.252 1_556 S
C51 O52 1.252 . S
O52 Zn34 1.975 . S
O52 C51 1.252 . S
H53 C46 0.930 . S
H54 C47 0.930 . S
C55 C56 1.392 . S
C55 N59 1.328 . S
C55 H61 0.930 . S
C56 C55 1.392 . S
C56 N60 1.331 . S
C57 C58 1.391 . S
C57 N60 1.329 1_556 S
C57 H67 0.930 . S
C58 C57 1.391 . S
C58 N59 1.334 1_556 S
C58 H65 0.930 . S
N59 Zn43 2.119 . S
N59 C55 1.328 . S
N59 C58 1.334 1_554 S
N60 C56 1.331 . S
N60 C57 1.329 1_554 S
H61 C55 0.930 . S
C62 O42 1.257 . S
C62 O63 1.244 . S
O63 C62 1.244 . S
O64 C40 1.257 . S
O64 Zn43 2.019 . S
H65 C58 0.930 . S
H66 C45 0.930 . S
H67 C57 0.930 . S
Zn68 N72 2.020 . S
Zn68 O76 2.019 . S
Zn68 N78 2.119 . S
Zn68 O86 1.975 . S
C69 N70 1.334 . S
C69 N73 1.336 . S
N70 C69 1.334 . S
N70 C71 1.334 . S
C71 N70 1.334 . S
C71 N72 1.336 . S
N72 Zn68 2.020 . S
N72 C71 1.336 . S
N72 N73 1.354 . S
N73 C69 1.336 . S
N73 N72 1.354 . S
N73 Zn77 2.020 . S
C74 O75 1.244 . S
C74 O98 1.257 . S
O75 C74 1.244 . S
O76 Zn68 2.019 . S
O76 C96 1.257 . S
Zn77 N73 2.020 . S
Zn77 O84 1.975 . S
Zn77 N93 2.119 . S
Zn77 O98 2.019 1_554 S
N78 Zn68 2.119 . S
N78 C80 1.334 . S
N78 C81 1.328 . S
C79 C80 1.391 . S
C79 N82 1.329 . S
C79 H100 0.930 . S
C80 N78 1.334 . S
C80 C79 1.391 . S
C80 H87 0.930 . S
C81 N78 1.328 . S
C81 C83 1.392 . S
C81 H88 0.930 . S
N82 C79 1.329 . S
N82 C83 1.331 . S
C83 C81 1.392 . S
C83 N82 1.331 . S
O84 Zn77 1.975 . S
O84 C85 1.252 . S
C85 O84 1.252 . S
C85 O86 1.252 . S
O86 Zn68 1.975 . S
O86 C85 1.252 . S
H87 C80 0.930 . S
H88 C81 0.930 . S
C89 C90 1.392 . S
C89 N93 1.328 . S
C89 H95 0.930 1_554 S
C90 C89 1.392 . S
C90 N94 1.331 . S
C91 C92 1.391 . S
C91 N94 1.329 . S
C91 H101 0.930 . S
C92 C91 1.391 . S
C92 N93 1.334 . S
C92 H99 0.930 . S
N93 Zn77 2.119 . S
N93 C89 1.328 . S
N93 C92 1.334 . S
N94 C90 1.331 . S
N94 C91 1.329 . S
H95 C89 0.930 1_556 S
C96 O76 1.257 . S
C96 O97 1.244 . S
O97 C96 1.244 . S
O98 C74 1.257 . S
O98 Zn77 2.019 1_556 S
H99 C92 0.930 . S
H100 C79 0.930 . S
H101 C91 0.930 . S
Zn102 N106 2.020 . S
Zn102 O110 2.019 . S
Zn102 N112 2.119 . S
Zn102 O120 1.975 . S
C103 N104 1.334 . S
C103 N107 1.336 . S
N104 C103 1.334 . S
N104 C105 1.334 . S
C105 N104 1.334 . S
C105 N106 1.336 . S
N106 Zn102 2.020 . S
N106 C105 1.336 . S
N106 N107 1.354 . S
N107 C103 1.336 . S
N107 N106 1.354 . S
N107 Zn111 2.020 . S
C108 O109 1.244 . S
C108 O132 1.257 . S
O109 C108 1.244 . S
O110 Zn102 2.019 . S
O110 C130 1.257 . S
Zn111 N107 2.020 . S
Zn111 O118 1.975 . S
Zn111 N127 2.119 . S
Zn111 O132 2.019 1_554 S
N112 Zn102 2.119 . S
N112 C114 1.334 . S
N112 C115 1.328 . S
C113 C114 1.391 . S
C113 N116 1.329 . S
C113 H134 0.930 . S
C114 N112 1.334 . S
C114 C113 1.391 . S
C114 H121 0.930 . S
C115 N112 1.328 . S
C115 C117 1.392 . S
C115 H122 0.930 . S
N116 C113 1.329 . S
N116 C117 1.331 . S
C117 C115 1.392 . S
C117 N116 1.331 . S
O118 Zn111 1.975 . S
O118 C119 1.252 . S
C119 O118 1.252 . S
C119 O120 1.252 . S
O120 Zn102 1.975 . S
O120 C119 1.252 . S
H121 C114 0.930 . S
H122 C115 0.930 . S
C123 C124 1.392 . S
C123 N127 1.328 . S
C123 H129 0.930 1_554 S
C124 C123 1.392 . S
C124 N128 1.331 . S
C125 C126 1.391 . S
C125 N128 1.329 . S
C125 H135 0.930 . S
C126 C125 1.391 . S
C126 N127 1.334 . S
C126 H133 0.930 . S
N127 Zn111 2.119 . S
N127 C123 1.328 . S
N127 C126 1.334 . S
N128 C124 1.331 . S
N128 C125 1.329 . S
H129 C123 0.930 1_556 S
C130 O110 1.257 . S
C130 O131 1.244 . S
O131 C130 1.244 . S
O132 C108 1.257 . S
O132 Zn111 2.019 1_556 S
H133 C126 0.930 . S
H134 C113 0.930 . S
H135 C125 0.930 . S
Zn136 N140 2.020 . S
Zn136 O144 2.019 . S
Zn136 N146 2.119 . S
Zn136 O154 1.975 . S
C137 N138 1.334 . S
C137 N141 1.336 . S
N138 C137 1.334 . S
N138 C139 1.334 . S
C139 N138 1.334 . S
C139 N140 1.336 . S
N140 Zn136 2.020 . S
N140 C139 1.336 . S
N140 N141 1.354 . S
N141 C137 1.336 . S
N141 N140 1.354 . S
N141 Zn145 2.020 . S
C142 O143 1.244 . S
C142 O166 1.257 . S
O143 C142 1.244 . S
O144 Zn136 2.019 . S
O144 C164 1.257 . S
Zn145 N141 2.020 . S
Zn145 O152 1.975 . S
Zn145 N161 2.119 . S
Zn145 O166 2.019 . S
N146 Zn136 2.119 . S
N146 C148 1.334 . S
N146 C149 1.328 . S
C147 C148 1.391 . S
C147 N150 1.329 . S
C147 H168 0.930 . S
C148 N146 1.334 . S
C148 C147 1.391 . S
C148 H155 0.930 . S
C149 N146 1.328 . S
C149 C151 1.392 . S
C149 H156 0.930 . S
N150 C147 1.329 . S
N150 C151 1.331 . S
C151 C149 1.392 . S
C151 N150 1.331 . S
O152 Zn145 1.975 . S
O152 C153 1.252 . S
C153 O152 1.252 . S
C153 O154 1.252 . S
O154 Zn136 1.975 . S
O154 C153 1.252 . S
H155 C148 0.930 . S
H156 C149 0.930 . S
C157 C158 1.392 . S
C157 N161 1.328 . S
C157 H163 0.930 . S
C158 C157 1.392 . S
C158 N162 1.331 . S
C159 C160 1.391 . S
C159 N162 1.329 . S
C159 H169 0.930 . S
C160 C159 1.391 . S
C160 N161 1.334 . S
C160 H167 0.930 . S
N161 Zn145 2.119 . S
N161 C157 1.328 . S
N161 C160 1.334 . S
N162 C158 1.331 . S
N162 C159 1.329 . S
H163 C157 0.930 . S
C164 O144 1.257 . S
C164 O165 1.244 . S
O165 C164 1.244 . S
O166 C142 1.257 . S
O166 Zn145 2.019 . S
H167 C160 0.930 . S
H168 C147 0.930 . S
H169 C159 0.930 . S
Zn170 N174 2.020 . S
Zn170 O178 2.019 . S
Zn170 N180 2.119 . S
Zn170 O188 1.975 . S
C171 N172 1.334 . S
C171 N175 1.336 . S
N172 C171 1.334 . S
N172 C173 1.334 . S
C173 N172 1.334 . S
C173 N174 1.336 . S
N174 Zn170 2.020 . S
N174 C173 1.336 . S
N174 N175 1.354 . S
N175 C171 1.336 . S
N175 N174 1.354 . S
N175 Zn179 2.020 . S
C176 O177 1.244 . S
C176 O200 1.257 . S
O177 C176 1.244 . S
O178 Zn170 2.019 . S
O178 C198 1.257 . S
Zn179 N175 2.020 . S
Zn179 O186 1.975 . S
Zn179 N195 2.119 . S
Zn179 O200 2.019 . S
N180 Zn170 2.119 . S
N180 C182 1.334 . S
N180 C183 1.328 . S
C181 C182 1.391 . S
C181 N184 1.329 . S
C181 H202 0.930 . S
C182 N180 1.334 . S
C182 C181 1.391 . S
C182 H189 0.930 . S
C183 N180 1.328 . S
C183 C185 1.392 . S
C183 H190 0.930 . S
N184 C181 1.329 . S
N184 C185 1.331 . S
C185 C183 1.392 . S
C185 N184 1.331 . S
O186 Zn179 1.975 . S
O186 C187 1.252 . S
C187 O186 1.252 . S
C187 O188 1.252 . S
O188 Zn170 1.975 . S
O188 C187 1.252 . S
H189 C182 0.930 . S
H190 C183 0.930 . S
C191 C192 1.392 . S
C191 N195 1.328 . S
C191 H197 0.930 . S
C192 C191 1.392 . S
C192 N196 1.331 . S
C193 C194 1.391 . S
C193 N196 1.329 . S
C193 H203 0.930 . S
C194 C193 1.391 . S
C194 N195 1.334 . S
C194 H201 0.930 . S
N195 Zn179 2.119 . S
N195 C191 1.328 . S
N195 C194 1.334 . S
N196 C192 1.331 . S
N196 C193 1.329 . S
H197 C191 0.930 . S
C198 O178 1.257 . S
C198 O199 1.244 . S
O199 C198 1.244 . S
O200 C176 1.257 . S
O200 Zn179 2.019 . S
H201 C194 0.930 . S
H202 C181 0.930 . S
H203 C193 0.930 . S
Zn204 N208 2.020 . S
Zn204 O212 2.019 1_556 S
Zn204 N214 2.119 1_565 S
Zn204 O222 1.975 . S
C205 N206 1.334 1_565 S
C205 N209 1.336 . S
N206 C205 1.334 1_545 S
N206 C207 1.334 . S
C207 N206 1.334 . S
C207 N208 1.336 1_545 S
N208 Zn204 2.020 . S
N208 C207 1.336 1_565 S
N208 N209 1.354 . S
N209 C205 1.336 . S
N209 N208 1.354 . S
N209 Zn213 2.020 . S
C210 O211 1.244 . S
C210 O234 1.257 . S
O211 C210 1.244 . S
O212 Zn204 2.019 1_554 S
O212 C232 1.257 . S
Zn213 N209 2.020 . S
Zn213 O220 1.975 . S
Zn213 N229 2.119 . S
Zn213 O234 2.019 . S
N214 Zn204 2.119 1_545 S
N214 C216 1.334 . S
N214 C217 1.328 . S
C215 C216 1.391 . S
C215 N218 1.329 . S
C215 H236 0.930 . S
C216 N214 1.334 . S
C216 C215 1.391 . S
C216 H223 0.930 . S
C217 N214 1.328 . S
C217 C219 1.392 . S
C217 H224 0.930 1_556 S
N218 C215 1.329 . S
N218 C219 1.331 . S
C219 C217 1.392 . S
C219 N218 1.331 . S
O220 Zn213 1.975 . S
O220 C221 1.252 . S
C221 O220 1.252 . S
C221 O222 1.252 . S
O222 Zn204 1.975 . S
O222 C221 1.252 . S
H223 C216 0.930 . S
H224 C217 0.930 1_554 S
C225 C226 1.392 . S
C225 N229 1.328 . S
C225 H231 0.930 . S
C226 C225 1.392 . S
C226 N230 1.331 . S
C227 C228 1.391 . S
C227 N230 1.329 . S
C227 H237 0.930 . S
C228 C227 1.391 . S
C228 N229 1.334 . S
C228 H235 0.930 . S
N229 Zn213 2.119 . S
N229 C225 1.328 . S
N229 C228 1.334 . S
N230 C226 1.331 . S
N230 C227 1.329 . S
H231 C225 0.930 . S
C232 O212 1.257 . S
C232 O233 1.244 . S
O233 C232 1.244 . S
O234 C210 1.257 . S
O234 Zn213 2.019 . S
H235 C228 0.930 . S
H236 C215 0.930 . S
H237 C227 0.930 . S
Zn238 N242 2.020 . S
Zn238 O246 2.019 1_556 S
Zn238 N248 2.119 1_545 S
Zn238 O256 1.975 . S
C239 N240 1.334 1_545 S
C239 N243 1.336 . S
N240 C239 1.334 1_565 S
N240 C241 1.334 . S
C241 N240 1.334 . S
C241 N242 1.336 1_565 S
N242 Zn238 2.020 . S
N242 C241 1.336 1_545 S
N242 N243 1.354 . S
N243 C239 1.336 . S
N243 N242 1.354 . S
N243 Zn247 2.020 . S
C244 O245 1.244 . S
C244 O268 1.257 . S
O245 C244 1.244 . S
O246 Zn238 2.019 1_554 S
O246 C266 1.257 . S
Zn247 N243 2.020 . S
Zn247 O254 1.975 . S
Zn247 N263 2.119 . S
Zn247 O268 2.019 . S
N248 Zn238 2.119 1_565 S
N248 C250 1.334 . S
N248 C251 1.328 . S
C249 C250 1.391 . S
C249 N252 1.329 . S
C249 H270 0.930 . S
C250 N248 1.334 . S
C250 C249 1.391 . S
C250 H257 0.930 . S
C251 N248 1.328 . S
C251 C253 1.392 . S
C251 H258 0.930 1_556 S
N252 C249 1.329 . S
N252 C253 1.331 . S
C253 C251 1.392 . S
C253 N252 1.331 . S
O254 Zn247 1.975 . S
O254 C255 1.252 . S
C255 O254 1.252 . S
C255 O256 1.252 . S
O256 Zn238 1.975 . S
O256 C255 1.252 . S
H257 C250 0.930 . S
H258 C251 0.930 1_554 S
C259 C260 1.392 . S
C259 N263 1.328 . S
C259 H265 0.930 . S
C260 C259 1.392 . S
C260 N264 1.331 . S
C261 C262 1.391 . S
C261 N264 1.329 . S
C261 H271 0.930 . S
C262 C261 1.391 . S
C262 N263 1.334 . S
C262 H269 0.930 . S
N263 Zn247 2.119 . S
N263 C259 1.328 . S
N263 C262 1.334 . S
N264 C260 1.331 . S
N264 C261 1.329 . S
H265 C259 0.930 . S
C266 O246 1.257 . S
C266 O267 1.244 . S
O267 C266 1.244 . S
O268 C244 1.257 . S
O268 Zn247 2.019 . S
H269 C262 0.930 . S
H270 C249 0.930 . S
H271 C261 0.930 . S
Zn272 N276 2.020 . S
Zn272 O280 2.019 . S
Zn272 N282 2.119 . S
Zn272 O290 1.975 . S
C273 N274 1.334 1_455 S
C273 N277 1.336 . S
N274 C273 1.334 1_655 S
N274 C275 1.334 1_655 S
C275 N274 1.334 1_455 S
C275 N276 1.336 . S
N276 Zn272 2.020 . S
N276 C275 1.336 . S
N276 N277 1.354 . S
N277 C273 1.336 . S
N277 N276 1.354 . S
N277 Zn281 2.020 . S
C278 O279 1.244 . S
C278 O302 1.257 . S
O279 C278 1.244 . S
O280 Zn272 2.019 . S
O280 C300 1.257 . S
Zn281 N277 2.020 . S
Zn281 O288 1.975 . S
Zn281 N297 2.119 . S
Zn281 O302 2.019 . S
N282 Zn272 2.119 . S
N282 C284 1.334 . S
N282 C285 1.328 . S
C283 C284 1.391 . S
C283 N286 1.329 . S
C283 H304 0.930 . S
C284 N282 1.334 . S
C284 C283 1.391 . S
C284 H291 0.930 . S
C285 N282 1.328 . S
C285 C287 1.392 . S
C285 H292 0.930 . S
N286 C283 1.329 . S
N286 C287 1.331 . S
C287 C285 1.392 . S
C287 N286 1.331 . S
O288 Zn281 1.975 . S
O288 C289 1.252 . S
C289 O288 1.252 . S
C289 O290 1.252 . S
O290 Zn272 1.975 . S
O290 C289 1.252 . S
H291 C284 0.930 . S
H292 C285 0.930 . S
C293 C294 1.401 . S
C293 N297 1.328 . S
C293 H299 0.930 . S
C294 C293 1.401 . S
C294 N298 1.329 1_455 S
C295 C296 1.391 . S
C295 N298 1.316 1_455 S
C295 H305 0.930 . S
C296 C295 1.391 . S
C296 N297 1.334 . S
C296 H303 0.930 . S
N297 Zn281 2.119 . S
N297 C293 1.328 . S
N297 C296 1.334 . S
N298 C294 1.329 1_655 S
N298 C295 1.316 1_655 S
H299 C293 0.930 . S
C300 O280 1.257 . S
C300 O301 1.244 . S
O301 C300 1.244 . S
O302 C278 1.257 . S
O302 Zn281 2.019 . S
H303 C296 0.930 . S
H304 C283 0.930 . S
H305 C295 0.930 . S
Zn306 N310 2.020 . S
Zn306 O314 2.019 . S
Zn306 N316 2.119 . S
Zn306 O324 1.975 . S
C307 N308 1.334 1_655 S
C307 N311 1.336 . S
N308 C307 1.334 1_455 S
N308 C309 1.334 1_455 S
C309 N308 1.334 1_655 S
C309 N310 1.336 . S
N310 Zn306 2.020 . S
N310 C309 1.336 . S
N310 N311 1.354 . S
N311 C307 1.336 . S
N311 N310 1.354 . S
N311 Zn315 2.020 . S
C312 O313 1.244 . S
C312 O336 1.257 . S
O313 C312 1.244 . S
O314 Zn306 2.019 . S
O314 C334 1.257 . S
Zn315 N311 2.020 . S
Zn315 O322 1.975 . S
Zn315 N331 2.119 . S
Zn315 O336 2.019 . S
N316 Zn306 2.119 . S
N316 C318 1.334 . S
N316 C319 1.328 . S
C317 C318 1.391 . S
C317 N320 1.316 1_655 S
C317 H338 0.930 . S
C318 N316 1.334 . S
C318 C317 1.391 . S
C318 H325 0.930 . S
C319 N316 1.328 . S
C319 C321 1.401 . S
C319 H326 0.930 . S
N320 C317 1.316 1_455 S
N320 C321 1.329 1_455 S
C321 C319 1.401 . S
C321 N320 1.329 1_655 S
O322 Zn315 1.975 . S
O322 C323 1.252 . S
C323 O322 1.252 . S
C323 O324 1.252 . S
O324 Zn306 1.975 . S
O324 C323 1.252 . S
H325 C318 0.930 . S
H326 C319 0.930 . S
C327 C328 1.392 . S
C327 N331 1.328 . S
C327 H333 0.930 . S
C328 C327 1.392 . S
C328 N332 1.331 . S
C329 C330 1.391 . S
C329 N332 1.329 . S
C329 H339 0.930 . S
C330 C329 1.391 . S
C330 N331 1.334 . S
C330 H337 0.930 . S
N331 Zn315 2.119 . S
N331 C327 1.328 . S
N331 C330 1.334 . S
N332 C328 1.331 . S
N332 C329 1.329 . S
H333 C327 0.930 . S
C334 O314 1.257 . S
C334 O335 1.244 . S
O335 C334 1.244 . S
O336 C312 1.257 . S
O336 Zn315 2.019 . S
H337 C330 0.930 . S
H338 C317 0.930 . S
H339 C329 0.930 . S
Zn340 N344 2.020 . S
Zn340 O348 2.019 1_556 S
Zn340 N350 2.119 . S
Zn340 O358 1.975 . S
C341 N342 1.334 . S
C341 N345 1.336 . S
N342 C341 1.334 . S
N342 C343 1.334 . S
C343 N342 1.334 . S
C343 N344 1.336 . S
N344 Zn340 2.020 . S
N344 C343 1.336 . S
N344 N345 1.354 . S
N345 C341 1.336 . S
N345 N344 1.354 . S
N345 Zn349 2.020 . S
C346 O347 1.244 . S
C346 O370 1.257 . S
O347 C346 1.244 . S
O348 Zn340 2.019 1_554 S
O348 C368 1.257 . S
Zn349 N345 2.020 . S
Zn349 O356 1.975 . S
Zn349 N365 2.119 . S
Zn349 O370 2.019 . S
N350 Zn340 2.119 . S
N350 C352 1.334 . S
N350 C353 1.328 . S
C351 C352 1.391 . S
C351 N354 1.329 . S
C351 H372 0.930 . S
C352 N350 1.334 . S
C352 C351 1.391 . S
C352 H359 0.930 . S
C353 N350 1.328 . S
C353 C355 1.392 . S
C353 H360 0.930 1_556 S
N354 C351 1.329 . S
N354 C355 1.331 . S
C355 C353 1.392 . S
C355 N354 1.331 . S
O356 Zn349 1.975 . S
O356 C357 1.252 . S
C357 O356 1.252 . S
C357 O358 1.252 . S
O358 Zn340 1.975 . S
O358 C357 1.252 . S
H359 C352 0.930 . S
H360 C353 0.930 1_554 S
C361 C362 1.392 . S
C361 N365 1.328 . S
C361 H367 0.930 . S
C362 C361 1.392 . S
C362 N366 1.331 . S
C363 C364 1.391 . S
C363 N366 1.329 . S
C363 H373 0.930 . S
C364 C363 1.391 . S
C364 N365 1.334 . S
C364 H371 0.930 . S
N365 Zn349 2.119 . S
N365 C361 1.328 . S
N365 C364 1.334 . S
N366 C362 1.331 . S
N366 C363 1.329 . S
H367 C361 0.930 . S
C368 O348 1.257 . S
C368 O369 1.244 . S
O369 C368 1.244 . S
O370 C346 1.257 . S
O370 Zn349 2.019 . S
H371 C364 0.930 . S
H372 C351 0.930 . S
H373 C363 0.930 . S
Zn374 N378 2.020 . S
Zn374 O382 2.019 . S
Zn374 N384 2.119 . S
Zn374 O392 1.975 . S
C375 N376 1.334 . S
C375 N379 1.336 . S
N376 C375 1.334 . S
N376 C377 1.334 . S
C377 N376 1.334 . S
C377 N378 1.336 . S
N378 Zn374 2.020 . S
N378 C377 1.336 . S
N378 N379 1.354 . S
N379 C375 1.336 . S
N379 N378 1.354 . S
N379 Zn383 2.020 . S
C380 O381 1.244 . S
C380 O404 1.257 . S
O381 C380 1.244 . S
O382 Zn374 2.019 . S
O382 C402 1.257 . S
Zn383 N379 2.020 . S
Zn383 O390 1.975 . S
Zn383 N399 2.119 . S
Zn383 O404 2.019 1_556 S
N384 Zn374 2.119 . S
N384 C386 1.334 . S
N384 C387 1.328 . S
C385 C386 1.391 . S
C385 N388 1.329 . S
C385 H406 0.930 . S
C386 N384 1.334 . S
C386 C385 1.391 . S
C386 H393 0.930 . S
C387 N384 1.328 . S
C387 C389 1.392 . S
C387 H394 0.930 . S
N388 C385 1.329 . S
N388 C389 1.331 . S
C389 C387 1.392 . S
C389 N388 1.331 . S
O390 Zn383 1.975 . S
O390 C391 1.252 . S
C391 O390 1.252 . S
C391 O392 1.252 . S
O392 Zn374 1.975 . S
O392 C391 1.252 . S
H393 C386 0.930 . S
H394 C387 0.930 . S
C395 C396 1.392 . S
C395 N399 1.328 . S
C395 H401 0.930 1_556 S
C396 C395 1.392 . S
C396 N400 1.331 . S
C397 C398 1.391 . S
C397 N400 1.329 . S
C397 H407 0.930 . S
C398 C397 1.391 . S
C398 N399 1.334 . S
C398 H405 0.930 . S
N399 Zn383 2.119 . S
N399 C395 1.328 . S
N399 C398 1.334 . S
N400 C396 1.331 . S
N400 C397 1.329 . S
H401 C395 0.930 1_554 S
C402 O382 1.257 . S
C402 O403 1.244 . S
O403 C402 1.244 . S
O404 C380 1.257 . S
O404 Zn383 2.019 1_554 S
H405 C398 0.930 . S
H406 C385 0.930 . S
H407 C397 0.930 . S
Zn408 N412 2.020 . S
Zn408 O416 2.019 . S
Zn408 N418 2.119 . S
Zn408 O426 1.975 . S
C409 N410 1.334 1_456 S
C409 N413 1.336 . S
N410 C409 1.334 1_654 S
N410 C411 1.334 1_655 S
C411 N410 1.334 1_455 S
C411 N412 1.336 . S
N412 Zn408 2.020 . S
N412 C411 1.336 . S
N412 N413 1.354 1_554 S
N413 C409 1.336 . S
N413 N412 1.354 1_556 S
N413 Zn417 2.020 . S
C414 O415 1.244 . S
C414 O438 1.257 . S
O415 C414 1.244 . S
O416 Zn408 2.019 . S
O416 C436 1.257 . S
Zn417 N413 2.020 . S
Zn417 O424 1.975 . S
Zn417 N433 2.119 . S
Zn417 O438 2.019 . S
N418 Zn408 2.119 . S
N418 C420 1.334 1_554 S
N418 C421 1.328 . S
C419 C420 1.391 . S
C419 N422 1.329 1_556 S
C419 H440 0.930 . S
C420 N418 1.334 1_556 S
C420 C419 1.391 . S
C420 H427 0.930 . S
C421 N418 1.328 . S
C421 C423 1.392 . S
C421 H428 0.930 . S
N422 C419 1.329 1_554 S
N422 C423 1.331 . S
C423 C421 1.392 . S
C423 N422 1.331 . S
O424 Zn417 1.975 . S
O424 C425 1.252 . S
C425 O424 1.252 . S
C425 O426 1.252 1_556 S
O426 Zn408 1.975 . S
O426 C425 1.252 1_554 S
H427 C420 0.930 . S
H428 C421 0.930 . S
C429 C430 1.401 . S
C429 N433 1.328 . S
C429 H435 0.930 . S
C430 C429 1.401 . S
C430 N434 1.329 1_455 S
C431 C432 1.391 . S
C431 N434 1.316 1_454 S
C431 H441 0.930 . S
C432 C431 1.391 . S
C432 N433 1.334 1_554 S
C432 H439 0.930 . S
N433 Zn417 2.119 . S
N433 C429 1.328 . S
N433 C432 1.334 1_556 S
N434 C430 1.329 1_655 S
N434 C431 1.316 1_656 S
H435 C429 0.930 . S
C436 O416 1.257 . S
C436 O437 1.244 . S
O437 C436 1.244 . S
O438 C414 1.257 . S
O438 Zn417 2.019 . S
H439 C432 0.930 . S
H440 C419 0.930 . S
H441 C431 0.930 . S
Zn442 N446 2.020 . S
Zn442 O450 2.019 . S
Zn442 N452 2.119 . S
Zn442 O460 1.975 . S
C443 N444 1.334 1_655 S
C443 N447 1.336 . S
N444 C443 1.334 1_455 S
N444 C445 1.334 1_454 S
C445 N444 1.334 1_656 S
C445 N446 1.336 . S
N446 Zn442 2.020 . S
N446 C445 1.336 . S
N446 N447 1.354 1_556 S
N447 C443 1.336 . S
N447 N446 1.354 1_554 S
N447 Zn451 2.020 . S
C448 O449 1.244 . S
C448 O472 1.257 . S
O449 C448 1.244 . S
O450 Zn442 2.019 . S
O450 C470 1.257 . S
Zn451 N447 2.020 . S
Zn451 O458 1.975 . S
Zn451 N467 2.119 . S
Zn451 O472 2.019 . S
N452 Zn442 2.119 . S
N452 C454 1.334 1_556 S
N452 C455 1.328 . S
C453 C454 1.391 . S
C453 N456 1.316 1_654 S
C453 H474 0.930 . S
C454 N452 1.334 1_554 S
C454 C453 1.391 . S
C454 H461 0.930 . S
C455 N452 1.328 . S
C455 C457 1.401 . S
C455 H462 0.930 . S
N456 C453 1.316 1_456 S
N456 C457 1.329 1_455 S
C457 C455 1.401 . S
C457 N456 1.329 1_655 S
O458 Zn451 1.975 . S
O458 C459 1.252 1_554 S
C459 O458 1.252 1_556 S
C459 O460 1.252 . S
O460 Zn442 1.975 . S
O460 C459 1.252 . S
H461 C454 0.930 . S
H462 C455 0.930 . S
C463 C464 1.392 . S
C463 N467 1.328 . S
C463 H469 0.930 . S
C464 C463 1.392 . S
C464 N468 1.331 . S
C465 C466 1.391 . S
C465 N468 1.329 1_556 S
C465 H475 0.930 . S
C466 C465 1.391 . S
C466 N467 1.334 1_556 S
C466 H473 0.930 . S
N467 Zn451 2.119 . S
N467 C463 1.328 . S
N467 C466 1.334 1_554 S
N468 C464 1.331 . S
N468 C465 1.329 1_554 S
H469 C463 0.930 . S
C470 O450 1.257 . S
C470 O471 1.244 . S
O471 C470 1.244 . S
O472 C448 1.257 . S
O472 Zn451 2.019 . S
H473 C466 0.930 . S
H474 C453 0.930 . S
H475 C465 0.930 . S
Zn476 N480 2.020 . S
Zn476 O484 2.019 . S
Zn476 N486 2.119 1_565 S
Zn476 O494 1.975 . S
C477 N478 1.334 1_565 S
C477 N481 1.336 . S
N478 C477 1.334 1_545 S
N478 C479 1.334 . S
C479 N478 1.334 . S
C479 N480 1.336 1_545 S
N480 Zn476 2.020 . S
N480 C479 1.336 1_565 S
N480 N481 1.354 . S
N481 C477 1.336 . S
N481 N480 1.354 . S
N481 Zn485 2.020 . S
C482 O483 1.244 . S
C482 O506 1.257 . S
O483 C482 1.244 . S
O484 Zn476 2.019 . S
O484 C504 1.257 . S
Zn485 N481 2.020 . S
Zn485 O492 1.975 . S
Zn485 N501 2.119 . S
Zn485 O506 2.019 1_554 S
N486 Zn476 2.119 1_545 S
N486 C488 1.334 . S
N486 C489 1.328 . S
C487 C488 1.391 . S
C487 N490 1.329 . S
C487 H508 0.930 . S
C488 N486 1.334 . S
C488 C487 1.391 . S
C488 H495 0.930 . S
C489 N486 1.328 . S
C489 C491 1.392 . S
C489 H496 0.930 . S
N490 C487 1.329 . S
N490 C491 1.331 . S
C491 C489 1.392 . S
C491 N490 1.331 . S
O492 Zn485 1.975 . S
O492 C493 1.252 . S
C493 O492 1.252 . S
C493 O494 1.252 . S
O494 Zn476 1.975 . S
O494 C493 1.252 . S
H495 C488 0.930 . S
H496 C489 0.930 . S
C497 C498 1.392 . S
C497 N501 1.328 . S
C497 H503 0.930 1_554 S
C498 C497 1.392 . S
C498 N502 1.331 . S
C499 C500 1.391 . S
C499 N502 1.329 . S
C499 H509 0.930 . S
C500 C499 1.391 . S
C500 N501 1.334 . S
C500 H507 0.930 . S
N501 Zn485 2.119 . S
N501 C497 1.328 . S
N501 C500 1.334 . S
N502 C498 1.331 . S
N502 C499 1.329 . S
H503 C497 0.930 1_556 S
C504 O484 1.257 . S
C504 O505 1.244 . S
O505 C504 1.244 . S
O506 C482 1.257 . S
O506 Zn485 2.019 1_556 S
H507 C500 0.930 . S
H508 C487 0.930 . S
H509 C499 0.930 . S
Zn510 N514 2.020 . S
Zn510 O518 2.019 1_554 S
Zn510 N520 2.119 . S
Zn510 O528 1.975 . S
C511 N512 1.334 . S
C511 N515 1.336 1_565 S
N512 C511 1.334 . S
N512 C513 1.334 1_565 S
C513 N512 1.334 1_545 S
C513 N514 1.336 . S
N514 Zn510 2.020 . S
N514 C513 1.336 . S
N514 N515 1.354 . S
N515 C511 1.336 1_545 S
N515 N514 1.354 . S
N515 Zn519 2.020 . S
C516 O517 1.244 . S
C516 O540 1.257 . S
O517 C516 1.244 . S
O518 Zn510 2.019 1_556 S
O518 C538 1.257 . S
Zn519 N515 2.020 . S
Zn519 O526 1.975 . S
Zn519 N535 2.119 1_545 S
Zn519 O540 2.019 . S
N520 Zn510 2.119 . S
N520 C522 1.334 . S
N520 C523 1.328 . S
C521 C522 1.391 . S
C521 N524 1.329 . S
C521 H542 0.930 . S
C522 N520 1.334 . S
C522 C521 1.391 . S
C522 H529 0.930 . S
C523 N520 1.328 . S
C523 C525 1.392 . S
C523 H530 0.930 1_554 S
N524 C521 1.329 . S
N524 C525 1.331 . S
C525 C523 1.392 . S
C525 N524 1.331 . S
O526 Zn519 1.975 . S
O526 C527 1.252 . S
C527 O526 1.252 . S
C527 O528 1.252 . S
O528 Zn510 1.975 . S
O528 C527 1.252 . S
H529 C522 0.930 . S
H530 C523 0.930 1_556 S
C531 C532 1.392 . S
C531 N535 1.328 . S
C531 H537 0.930 . S
C532 C531 1.392 . S
C532 N536 1.331 . S
C533 C534 1.391 . S
C533 N536 1.329 . S
C533 H543 0.930 . S
C534 C533 1.391 . S
C534 N535 1.334 . S
C534 H541 0.930 . S
N535 Zn519 2.119 1_565 S
N535 C531 1.328 . S
N535 C534 1.334 . S
N536 C532 1.331 . S
N536 C533 1.329 . S
H537 C531 0.930 . S
C538 O518 1.257 . S
C538 O539 1.244 . S
O539 C538 1.244 . S
O540 C516 1.257 . S
O540 Zn519 2.019 . S
H541 C534 0.930 . S
H542 C521 0.930 . S
H543 C533 0.930 . S
C1 C173 2.979 . S
C35 C139 2.979 . S
C71 C377 2.978 . S
C105 C341 2.978 . S
C37 C137 2.978 . S
C171 C3 2.978 . S
C207 C513 2.978 1_556 S
C477 C241 2.978 1_554 S
C445 C275 2.978 1_655 S
C409 C307 2.978 1_455 S
C103 C343 2.978 1_554 S
C375 C69 2.978 1_556 S
C411 C309 2.979 1_455 S
C443 C273 2.979 1_655 S
C479 C239 2.978 . S
C205 C511 2.978 . S
C28 C6 1.288 . S
C40 C62 1.288 . S
C96 C74 1.288 . S
C130 C108 1.288 . S
C164 C142 1.288 1_554 S
C198 C176 1.288 1_554 S
C210 C232 1.288 . S
C266 C244 1.288 . S
C278 C300 1.288 1_554 S
C334 C312 1.288 1_554 S
C368 C346 1.288 . S
C402 C380 1.288 . S
C436 C414 1.288 . S
C448 C470 1.288 . S
C482 C504 1.288 . S
C538 C516 1.288 . S
C15 C49 1.331 1_545 S
C90 C525 1.331 . S
C124 C498 1.331 . S
C185 C151 1.331 . S
C389 C226 1.331 . S
C260 C362 1.331 . S
C321 C294 1.329 1_665 S
C457 C430 1.329 1_655 S
C17 C219 1.982 . S
C51 C253 1.982 . S
C85 C22 1.981 . S
C56 C119 1.981 . S
C83 C153 1.982 . S
C117 C187 1.982 . S
C221 C158 1.981 . S
C192 C255 1.981 . S
C491 C289 1.982 . S
C323 C532 1.982 . S
C287 C357 1.981 . S
C391 C328 1.981 . S
C425 C355 1.982 . S
C396 C459 1.982 . S
C493 C423 1.981 . S
C527 C464 1.981 . S
