# Generated by pormake.
# Topology smd, (6)-cn, num edge types: 1
# Building blocks:
#     Node 0, Type 0, BuildingBlock: PAMTOO_clean_sbu_0, # of connection points: 6
#     Node 1, Type 0, BuildingBlock: PAMTOO_clean_sbu_0, # of connection points: 6
#     Node 2, Type 0, BuildingBlock: PAMTOO_clean_sbu_0, # of connection points: 6
#     Node 3, Type 0, BuildingBlock: PAMTOO_clean_sbu_0, # of connection points: 6
#     Node 4, Type 0, BuildingBlock: PAMTOO_clean_sbu_0, # of connection points: 6
#     Node 5, Type 0, BuildingBlock: PAMTOO_clean_sbu_0, # of connection points: 6
#     Node 6, Type 0, BuildingBlock: PAMTOO_clean_sbu_0, # of connection points: 6
#     Node 7, Type 0, BuildingBlock: PAMTOO_clean_sbu_0, # of connection points: 6
#     Node 8, Type 0, BuildingBlock: PAMTOO_clean_sbu_0, # of connection points: 6
#     Node 9, Type 0, BuildingBlock: PAMTOO_clean_sbu_0, # of connection points: 6
#     Node 10, Type 0, BuildingBlock: PAMTOO_clean_sbu_0, # of connection points: 6
#     Node 11, Type 0, BuildingBlock: PAMTOO_clean_sbu_0, # of connection points: 6
#     Node 12, Type 0, BuildingBlock: PAMTOO_clean_sbu_0, # of connection points: 6
#     Node 13, Type 0, BuildingBlock: PAMTOO_clean_sbu_0, # of connection points: 6
#     Node 14, Type 0, BuildingBlock: PAMTOO_clean_sbu_0, # of connection points: 6
#     Node 15, Type 0, BuildingBlock: PAMTOO_clean_sbu_0, # of connection points: 6
#     Node 16, Type 0, BuildingBlock: PAMTOO_clean_sbu_0, # of connection points: 6
#     Node 17, Type 0, BuildingBlock: PAMTOO_clean_sbu_0, # of connection points: 6
#     Edge 18, Type (0, 0), None
#     Edge 19, Type (0, 0), None
#     Edge 20, Type (0, 0), None
#     Edge 21, Type (0, 0), None
#     Edge 22, Type (0, 0), None
#     Edge 23, Type (0, 0), None
#     Edge 24, Type (0, 0), None
#     Edge 25, Type (0, 0), None
#     Edge 26, Type (0, 0), None
#     Edge 27, Type (0, 0), None
#     Edge 28, Type (0, 0), None
#     Edge 29, Type (0, 0), None
#     Edge 30, Type (0, 0), None
#     Edge 31, Type (0, 0), None
#     Edge 32, Type (0, 0), None
#     Edge 33, Type (0, 0), None
#     Edge 34, Type (0, 0), None
#     Edge 35, Type (0, 0), None
#     Edge 36, Type (0, 0), None
#     Edge 37, Type (0, 0), None
#     Edge 38, Type (0, 0), None
#     Edge 39, Type (0, 0), None
#     Edge 40, Type (0, 0), None
#     Edge 41, Type (0, 0), None
#     Edge 42, Type (0, 0), None
#     Edge 43, Type (0, 0), None
#     Edge 44, Type (0, 0), None
#     Edge 45, Type (0, 0), None
#     Edge 46, Type (0, 0), None
#     Edge 47, Type (0, 0), None
#     Edge 48, Type (0, 0), None
#     Edge 49, Type (0, 0), None
#     Edge 50, Type (0, 0), None
#     Edge 51, Type (0, 0), None
#     Edge 52, Type (0, 0), None
#     Edge 53, Type (0, 0), None
#     Edge 54, Type (0, 0), None
#     Edge 55, Type (0, 0), None
#     Edge 56, Type (0, 0), None
#     Edge 57, Type (0, 0), None
#     Edge 58, Type (0, 0), None
#     Edge 59, Type (0, 0), None
#     Edge 60, Type (0, 0), None
#     Edge 61, Type (0, 0), None
#     Edge 62, Type (0, 0), None
#     Edge 63, Type (0, 0), None
#     Edge 64, Type (0, 0), None
#     Edge 65, Type (0, 0), None
#     Edge 66, Type (0, 0), None
#     Edge 67, Type (0, 0), None
#     Edge 68, Type (0, 0), None
#     Edge 69, Type (0, 0), None
#     Edge 70, Type (0, 0), None
#     Edge 71, Type (0, 0), None
# Relax obj value: 0.367
# Max RMSD: 0.417
# Mean RMSD: 0.417
data_MOF--net-smd--node1-PAMTOO_clean_sbu_0--edge1-none
_symmetry_space_group_name_H-M    P1
_symmetry_Int_Tables_number       1
_symmetry_cell_setting            triclinic
loop_
_symmetry_equiv_pos_as_xyz
'x, y, z'
_cell_length_a     28.258973
_cell_length_b     28.261311
_cell_length_c     15.240835
_cell_angle_alpha  90.007022
_cell_angle_beta   89.971104
_cell_angle_gamma 120.03657
loop_
_atom_site_label
_atom_site_type_symbol
_atom_site_fract_x
_atom_site_fract_y
_atom_site_fract_z
_atom_type_partial_charge
Dy0 Dy 0.98274 0.23837 0.50206 0.0
Dy1 Dy 0.04311 0.27131 0.62428 0.0
C2 C 0.0754 0.20497 0.52908 0.0
O3 O 0.91711 0.17374 0.57953 0.0
O4 O 0.98396 0.17977 0.66375 0.0
O5 O 0.95009 0.16994 0.41415 0.0
O6 O 0.92959 0.23532 0.39933 0.0
O7 O 0.9674 0.27903 0.62868 0.0
O8 O 0.96793 0.28078 0.62636 0.0
O9 O 0.09412 0.32886 0.5043 0.0
O10 O 0.02078 0.31669 0.43095 0.0
O11 O 0.05657 0.32513 0.73453 0.0
O12 O 0.10886 0.29112 0.71537 0.0
C13 C 0.93196 0.15158 0.63916 0.0
O14 O 0.06001 0.23065 0.47468 0.0
O15 O 0.05127 0.19826 0.60326 0.0
C16 C 0.95988 0.20779 0.27392 0.0
C17 C 0.01535 0.23282 0.11325 0.0
C18 C 0.99373 0.18028 0.14848 0.0
C19 C 0.96734 0.16827 0.22974 0.0
C20 C 0.9823 0.26041 0.2381 0.0
C21 C 0.01038 0.27285 0.15913 0.0
C22 C 0.93403 0.19586 0.36114 0.0
C23 C 0.93967 0.25808 0.70118 0.0
C24 C 0.07346 0.34139 0.43454 0.0
C25 C 0.07534 0.28822 0.85711 0.0
C26 C 0.03828 0.24572 1.02485 0.0
C27 C 0.0032 0.22382 0.95298 0.0
C28 C 0.02182 0.24469 0.86949 0.0
C29 C 0.11161 0.30698 0.92797 0.0
C30 C 0.09302 0.28596 1.01191 0.0
C31 C 0.09154 0.31403 0.77057 0.0
H32 H 0.99721 0.14886 0.11328 0.0
H33 H 0.952 0.12788 0.25746 0.0
H34 H 0.97847 0.29229 0.27085 0.0
H35 H 0.02687 0.31338 0.13227 0.0
H36 H 0.96077 0.19266 0.96203 0.0
H37 H 0.99371 0.22815 0.81518 0.0
H38 H 0.15374 0.3382 0.91898 0.0
H39 H 0.12085 0.3019 1.06708 0.0
Dy40 Dy 0.78593 0.76684 0.50207 0.0
Dy41 Dy 0.7526 0.79407 0.62445 0.0
C42 C 0.81907 0.89288 0.52997 0.0
O43 O 0.85066 0.76626 0.57973 0.0
O44 O 0.84427 0.82702 0.66364 0.0
O45 O 0.8543 0.80272 0.414 0.0
O46 O 0.78897 0.71676 0.39917 0.0
O47 O 0.74514 0.71071 0.62843 0.0
O48 O 0.74337 0.70944 0.62612 0.0
O49 O 0.69547 0.78801 0.50435 0.0
O50 O 0.70768 0.72696 0.43069 0.0
O51 O 0.69886 0.75348 0.73474 0.0
O52 O 0.73231 0.83975 0.71534 0.0
C53 C 0.8727 0.80346 0.63916 0.0
O54 O 0.7939 0.8519 0.47518 0.0
O55 O 0.82522 0.87563 0.60463 0.0
C56 C 0.81643 0.77472 0.27383 0.0
C57 C 0.79143 0.8053 0.11331 0.0
C58 C 0.84407 0.83602 0.14828 0.0
C59 C 0.85605 0.82164 0.22951 0.0
C60 C 0.76373 0.74472 0.2383 0.0
C61 C 0.75129 0.76047 0.15945 0.0
C62 C 0.82839 0.76074 0.36096 0.0
C63 C 0.76602 0.70388 0.70093 0.0
C64 C 0.68311 0.75505 0.43432 0.0
C65 C 0.73581 0.8094 0.85716 0.0
C66 C 0.77856 0.8152 1.02482 0.0
C67 C 0.79991 0.80127 0.95306 0.0
C68 C 0.77897 0.79891 0.86962 0.0
C69 C 0.71762 0.82763 0.92787 0.0
C70 C 0.73876 0.83024 1.01176 0.0
C71 C 0.70979 0.79954 0.77073 0.0
H72 H 0.87561 0.87077 0.11286 0.0
H73 H 0.8965 0.8466 0.25707 0.0
H74 H 0.73178 0.70909 0.27117 0.0
H75 H 0.71068 0.73659 0.13284 0.0
H76 H 0.83074 0.7896 0.96217 0.0
H77 H 0.79522 0.78693 0.81539 0.0
H78 H 0.68676 0.83898 0.91882 0.0
H79 H 0.72321 0.84266 1.06683 0.0
Dy80 Dy 0.25854 0.04477 0.50041 0.0
Dy81 Dy 0.23056 0.98329 0.6238 0.0
C82 C 0.1321 0.95108 0.5283 0.0
O83 O 0.25893 0.10932 0.57955 0.0
O84 O 0.19731 0.04178 0.66199 0.0
O85 O 0.22471 0.07934 0.41219 0.0
O86 O 0.31033 0.09914 0.39993 0.0
O87 O 0.31395 0.05924 0.62763 0.0
O88 O 0.31519 0.05871 0.62528 0.0
O89 O 0.23639 0.932 0.50403 0.0
O90 O 0.29726 0.00513 0.42933 0.0
O91 O 0.27116 0.97017 0.73405 0.0
O92 O 0.18471 0.9181 0.71587 0.0
C93 C 0.22127 0.09387 0.63816 0.0
O94 O 0.17314 0.96758 0.47313 0.0
O95 O 0.14915 0.97431 0.60315 0.0
C96 C 0.25481 0.07269 0.2721 0.0
C97 C 0.22346 0.01712 0.11136 0.0
C98 C 0.19565 0.04283 0.14386 0.0
C99 C 0.21029 0.06915 0.2252 0.0
C100 C 0.28222 0.0467 0.23864 0.0
C101 C 0.26601 0.01847 0.15986 0.0
C102 C 0.26754 0.09655 0.36073 0.0
C103 C 0.32089 0.08695 0.7002 0.0
C104 C 0.2692 0.95244 0.43376 0.0
C105 C 0.21598 0.95312 0.85695 0.0
C106 C 0.21256 0.9929 1.02363 0.0
C107 C 0.22474 0.02674 0.9503 0.0
C108 C 0.22596 0.00676 0.86743 0.0
C109 C 0.19932 0.91801 0.9293 0.0
C110 C 0.19788 0.93794 1.01264 0.0
C111 C 0.22508 0.9358 0.77089 0.0
H112 H 0.16255 0.04208 0.10686 0.0
H113 H 0.18703 0.08693 0.25137 0.0
H114 H 0.31605 0.04761 0.27332 0.0
H115 H 0.28775 0.99888 0.13535 0.0
H116 H 0.23605 0.06927 0.95762 0.0
H117 H 0.23674 0.03396 0.81202 0.0
H118 H 0.18822 0.87572 0.92191 0.0
H119 H 0.18648 0.91095 1.06887 0.0
Dy120 Dy 0.98058 0.77469 0.5504 0.0
Dy121 Dy 0.03622 0.8088 0.67709 0.0
C122 C 0.08641 0.78552 0.48696 0.0
O123 O 0.93056 0.71029 0.66485 0.0
O124 O 0.00337 0.73146 0.74932 0.0
O125 O 0.97582 0.72773 0.43529 0.0
O126 O 0.91744 0.75477 0.45392 0.0
O127 O 0.95205 0.804 0.70152 0.0
O128 O 0.95855 0.83846 0.575 0.0
O129 O 0.10459 0.86783 0.59689 0.0
O130 O 0.0401 0.8663 0.51408 0.0
O131 O 0.06049 0.884 0.74588 0.0
O132 O 0.09043 0.82862 0.78637 0.0
C133 C 0.95128 0.70066 0.73807 0.0
O134 O 0.05552 0.7657 0.55689 0.0
O135 O 0.05473 0.76425 0.55926 0.0
C136 C 0.95975 0.76929 0.31556 0.0
C137 C 0.99491 0.82261 0.15368 0.0
C138 C 0.03229 0.83657 0.22296 0.0
C139 C 0.01457 0.81039 0.30394 0.0
C140 C 0.92282 0.75777 0.24755 0.0
C141 C 0.93968 0.78465 0.16819 0.0
C142 C 0.94121 0.73867 0.39801 0.0
C143 C 0.93299 0.82703 0.64852 0.0
C144 C 0.09215 0.89171 0.53703 0.0
C145 C 0.05683 0.86279 0.89401 0.0
C146 C 0.01372 0.83971 1.06331 0.0
C147 C 0.05659 0.89246 1.04271 0.0
C148 C 0.07742 0.9042 0.95716 0.0
C149 C 0.01055 0.81267 0.91274 0.0
C150 C 0.99006 0.80056 0.99662 0.0
C151 C 0.08237 0.8692 0.80858 0.0
H152 H 0.07536 0.86539 0.21344 0.0
H153 H 0.044 0.82109 0.35619 0.0
H154 H 0.88069 0.7281 0.25476 0.0
H155 H 0.90944 0.77411 0.11695 0.0
H156 H 0.07442 0.92392 0.09254 0.0
H157 H 0.11012 0.94469 0.94089 0.0
H158 H 0.99143 0.78163 0.86355 0.0
H159 H 0.95721 0.75936 1.00942 0.0
Dy160 Dy 0.25262 0.23228 0.55348 0.0
Dy161 Dy 0.21681 0.25198 0.68027 0.0
C162 C 0.23895 0.32546 0.48967 0.0
O163 O 0.31482 0.24379 0.6683 0.0
O164 O 0.29475 0.29667 0.75108 0.0
O165 O 0.30273 0.27747 0.44285 0.0
O166 O 0.27595 0.19181 0.45728 0.0
O167 O 0.22042 0.17193 0.70212 0.0
O168 O 0.18832 0.14613 0.57343 0.0
O169 O 0.15735 0.26008 0.60048 0.0
O170 O 0.16112 0.19919 0.5148 0.0
O171 O 0.14227 0.2003 0.75059 0.0
O172 O 0.19703 0.28569 0.79064 0.0
C173 C 0.32472 0.27442 0.74072 0.0
O174 O 0.259 0.31511 0.56005 0.0
O175 O 0.26042 0.31576 0.56247 0.0
C176 C 0.26483 0.2223 0.32022 0.0
C177 C 0.21213 0.20186 0.15727 0.0
C178 C 0.19412 0.22085 0.22787 0.0
C179 C 0.2199 0.23022 0.30937 0.0
C180 C 0.28156 0.20274 0.25099 0.0
C181 C 0.25485 0.19094 0.17116 0.0
C182 C 0.29368 0.23305 0.40376 0.0
C183 C 0.19806 0.13076 0.64724 0.0
C184 C 0.13457 0.22444 0.53944 0.0
C185 C 0.16518 0.21788 0.89846 0.0
C186 C 0.19264 0.20083 1.06706 0.0
C187 C 0.13902 0.18947 1.04887 0.0
C188 C 0.1252 0.19737 0.96396 0.0
C189 C 0.21569 0.2221 0.91441 0.0
C190 C 0.2301 0.21555 0.99776 0.0
C191 C 0.15723 0.23678 0.8136 0.0
H192 H 0.16187 0.23055 0.21957 0.0
H193 H 0.20565 0.24494 0.36279 0.0
H194 H 0.31581 0.19731 0.25897 0.0
H195 H 0.26876 0.17426 0.11991 0.0
H196 H 0.10842 0.17588 0.10012 0.0
H197 H 0.08424 0.18892 0.94999 0.0
H198 H 0.24539 0.2332 0.86333 0.0
H199 H 0.27188 0.22512 1.0076 0.0
Dy200 Dy 0.79474 0.04434 0.55129 0.0
Dy201 Dy 0.77304 0.9888 0.67785 0.0
C202 C 0.69969 0.93855 0.4876 0.0
O203 O 0.78055 0.09437 0.66582 0.0
O204 O 0.72846 0.02145 0.74995 0.0
O205 O 0.75281 0.0488 0.43566 0.0
O206 O 0.8382 0.10746 0.4547 0.0
O207 O 0.85269 0.07281 0.70191 0.0
O208 O 0.88042 0.06571 0.57557 0.0
O209 O 0.76337 0.92039 0.59802 0.0
O210 O 0.82692 0.98494 0.51586 0.0
O211 O 0.82421 0.96473 0.74628 0.0
O212 O 0.73887 0.93459 0.78721 0.0
C213 C 0.75008 0.07358 0.73897 0.0
O214 O 0.71065 0.96944 0.55748 0.0
O215 O 0.71005 0.97024 0.55983 0.0
C216 C 0.81086 0.06488 0.31637 0.0
C217 C 0.82915 0.02986 0.1545 0.0
C218 C 0.80569 0.99242 0.22375 0.0
C219 C 0.79712 0.01007 0.30475 0.0
C220 C 0.83637 0.10182 0.24839 0.0
C221 C 0.84645 0.08505 0.16903 0.0
C222 C 0.79848 0.08343 0.39857 0.0
C223 C 0.8948 0.09141 0.64892 0.0
C224 C 0.79999 0.93291 0.5387 0.0
C225 C 0.80684 0.96832 0.89458 0.0
C226 C 0.82715 0.01117 1.06402 0.0
C227 C 0.83784 0.96898 1.04267 0.0
C228 C 0.82865 0.94832 0.95701 0.0
C229 C 0.80216 0.01401 0.91406 0.0
C230 C 0.81072 0.03437 0.99801 0.0
C231 C 0.78761 0.94279 0.80915 0.0
H232 H 0.79141 0.94936 0.2141 0.0
H233 H 0.77824 0.9806 0.35696 0.0
H234 H 0.84876 0.14386 0.2556 0.0
H235 H 0.86607 0.11528 0.1177 0.0
H236 H 0.85215 0.95156 0.09206 0.0
H237 H 0.83698 0.91607 0.94017 0.0
H238 H 0.78942 0.03271 0.86546 0.0
H239 H 0.8018 0.06675 1.01149 0.0
Dy240 Dy 0.64672 0.55606 0.8339 0.0
Dy241 Dy 0.70218 0.59247 0.96033 0.0
C242 C 0.75018 0.53861 0.86818 0.0
O243 O 0.57915 0.49631 0.91391 0.0
O244 O 0.6439 0.50093 1.00015 0.0
O245 O 0.62404 0.48213 0.76187 0.0
O246 O 0.59342 0.53705 0.72335 0.0
O247 O 0.62542 0.59826 0.95356 0.0
O248 O 0.62617 0.59971 0.9511 0.0
O249 O 0.75272 0.65454 0.84549 0.0
O250 O 0.67947 0.63407 0.76349 0.0
O251 O 0.70729 0.64341 1.0696 0.0
O252 O 0.76656 0.61696 1.05588 0.0
C253 C 0.59203 0.47394 0.97562 0.0
O254 O 0.73086 0.56025 0.81277 0.0
O255 O 0.72509 0.52897 0.942 0.0
C256 C 0.62933 0.5059 0.61425 0.0
C257 C 0.6742 0.53397 0.44562 0.0
C258 C 0.63184 0.48027 0.46355 0.0
C259 C 0.60987 0.4662 0.54834 0.0
C260 C 0.67559 0.55653 0.59849 0.0
C261 C 0.69664 0.57126 0.51517 0.0
C262 C 0.60254 0.49745 0.69939 0.0
C263 C 0.59517 0.57846 1.0242 0.0
C264 C 0.73171 0.66429 0.77345 0.0
C265 C 0.72499 0.60636 0.19243 0.0
C266 C 0.69297 0.55361 0.35535 0.0
C267 C 0.65621 0.53495 0.2845 0.0
C268 C 0.67254 0.56071 0.20303 0.0
C269 C 0.76114 0.62407 0.26172 0.0
C270 C 0.7464 0.59704 0.34156 0.0
C271 C 0.74294 0.63486 0.10885 0.0
H272 H 0.61497 0.44974 0.41224 0.0
H273 H 0.5773 0.42518 0.56198 0.0
H274 H 0.69415 0.58607 0.64977 0.0
H275 H 0.72874 0.61315 0.5057 0.0
H276 H 0.61441 0.5022 0.29251 0.0
H277 H 0.64372 0.54595 0.14945 0.0
H278 H 0.80035 0.65972 0.25349 0.0
H279 H 0.77647 0.61187 0.39349 0.0
Dy280 Dy 0.46755 0.11362 0.83352 0.0
Dy281 Dy 0.4321 0.13379 0.96001 0.0
C282 C 0.48684 0.23513 0.86595 0.0
O283 O 0.527 0.10567 0.91352 0.0
O284 O 0.52375 0.16713 0.99823 0.0
O285 O 0.54173 0.16487 0.76192 0.0
O286 O 0.48685 0.07926 0.72341 0.0
O287 O 0.42542 0.0508 0.95399 0.0
O288 O 0.42398 0.0501 0.95157 0.0
O289 O 0.36995 0.12241 0.84531 0.0
O290 O 0.38919 0.06842 0.76404 0.0
O291 O 0.38217 0.08895 1.07101 0.0
O292 O 0.40865 0.17448 1.05556 0.0
C293 C 0.55012 0.14164 0.97393 0.0
O294 O 0.46426 0.19383 0.81132 0.0
O295 O 0.49671 0.21976 0.93965 0.0
C296 C 0.518 0.14647 0.61434 0.0
C297 C 0.49121 0.16523 0.44628 0.0
C298 C 0.54525 0.17844 0.46548 0.0
C299 C 0.55869 0.16953 0.55008 0.0
C300 C 0.46675 0.14027 0.59742 0.0
C301 C 0.45273 0.14765 0.51432 0.0
C302 C 0.52641 0.12804 0.69944 0.0
C303 C 0.44538 0.0405 1.02454 0.0
C304 C 0.35974 0.09132 0.77345 0.0
C305 C 0.41991 0.14463 0.19301 0.0
C306 C 0.47236 0.16511 0.35603 0.0
C307 C 0.49104 0.147 0.28524 0.0
C308 C 0.46534 0.13753 0.2037 0.0
C309 C 0.40254 0.16344 0.26246 0.0
C310 C 0.42912 0.17525 0.34241 0.0
C311 C 0.39102 0.13347 0.10952 0.0
H312 H 0.57652 0.19456 0.41526 0.0
H313 H 0.60003 0.17958 0.56485 0.0
H314 H 0.43625 0.12708 0.64739 0.0
H315 H 0.41061 0.13668 0.50346 0.0
H316 H 0.52359 0.1378 0.29352 0.0
H317 H 0.4799 0.12315 0.15022 0.0
H318 H 0.36781 0.16808 0.25462 0.0
H319 H 0.41461 0.19105 0.39417 0.0
Dy320 Dy 0.91099 0.37693 0.83373 0.0
Dy321 Dy 0.89123 0.32173 0.95963 0.0
C322 C 0.78956 0.27404 0.86767 0.0
O323 O 0.91903 0.4447 0.91285 0.0
O324 O 0.8576 0.37994 0.99753 0.0
O325 O 0.85931 0.39884 0.76116 0.0
O326 O 0.94521 0.43059 0.72354 0.0
O327 O 0.97399 0.39839 0.95427 0.0
O328 O 0.97469 0.39764 0.9518 0.0
O329 O 0.90303 0.27116 0.84524 0.0
O330 O 0.95708 0.34464 0.76466 0.0
O331 O 0.9364 0.31665 1.06992 0.0
O332 O 0.85081 0.25717 1.05473 0.0
C333 C 0.88303 0.43185 0.9732 0.0
O334 O 0.83078 0.29287 0.81268 0.0
O335 O 0.80499 0.29953 0.94112 0.0
C336 C 0.87859 0.39421 0.61358 0.0
C337 C 0.86036 0.34884 0.44519 0.0
C338 C 0.84589 0.3887 0.46498 0.0
C339 C 0.85463 0.41102 0.54966 0.0
C340 C 0.88643 0.35025 0.59595 0.0
C341 C 0.87948 0.32913 0.51272 0.0
C342 C 0.89636 0.42084 0.69904 0.0
C343 C 0.98395 0.42836 1.02511 0.0
C344 C 0.93445 0.2923 0.77387 0.0
C345 C 0.88077 0.29827 0.19173 0.0
C346 C 0.86002 0.32981 0.35486 0.0
C347 C 0.87621 0.36606 0.28346 0.0
C348 C 0.8858 0.35 0.20185 0.0
C349 C 0.86414 0.26262 0.26161 0.0
C350 C 0.85177 0.27704 0.3416 0.0
C351 C 0.89196 0.28073 0.10837 0.0
H352 H 0.82884 0.4031 0.41517 0.0
H353 H 0.84373 0.44169 0.56473 0.0
H354 H 0.90076 0.33372 0.64537 0.0
H355 H 0.89189 0.2991 0.50147 0.0
H356 H 0.88396 0.40737 0.29129 0.0
H357 H 0.89888 0.37857 0.14792 0.0
H358 H 0.8622 0.22415 0.25383 0.0
H359 H 0.83823 0.24749 0.39434 0.0
Dy360 Dy 0.64133 0.09387 0.89128 0.0
Dy361 Dy 0.70203 0.12728 1.01397 0.0
C362 C 0.7447 0.10796 0.81202 0.0
O363 O 0.59036 0.03723 1.01155 0.0
O364 O 0.66353 0.04897 1.08491 0.0
O365 O 0.62749 0.03997 0.78091 0.0
O366 O 0.57411 0.07242 0.80247 0.0
O367 O 0.62472 0.13557 1.03864 0.0
O368 O 0.63309 0.16706 0.90931 0.0
O369 O 0.76773 0.19158 0.93631 0.0
O370 O 0.70034 0.18582 0.85354 0.0
O371 O 0.73772 0.19662 0.09986 0.0
O372 O 0.75073 0.12694 0.12274 0.0
C373 C 0.61087 0.0247 1.08129 0.0
O374 O 0.7178 0.0874 0.88541 0.0
O375 O 0.7175 0.08544 0.88813 0.0
C376 C 0.60719 0.07698 0.66063 0.0
C377 C 0.64656 0.12265 0.49511 0.0
C378 C 0.67871 0.14586 0.57012 0.0
C379 C 0.65926 0.12301 0.65182 0.0
C380 C 0.57247 0.05766 0.58783 0.0
C381 C 0.59213 0.08041 0.50493 0.0
C382 C 0.59148 0.05014 0.74623 0.0
C383 C 0.60933 0.16098 0.98367 0.0
C384 C 0.7525 0.2139 0.87743 0.0
C385 C 0.72391 0.16106 0.24297 0.0
C386 C 0.67257 0.13801 0.40804 0.0
C387 C 0.64548 0.1423 0.33399 0.0
C388 C 0.6713 0.15443 0.25205 0.0
C389 C 0.74953 0.15554 0.31674 0.0
C390 C 0.72503 0.14531 0.39834 0.0
C391 C 0.75033 0.16964 0.15655 0.0
H392 H 0.71998 0.18021 0.56523 0.0
H393 H 0.68596 0.14005 0.70763 0.0
H394 H 0.53095 0.02457 0.59447 0.0
H395 H 0.56568 0.06348 0.44843 0.0
H396 H 0.60469 0.13629 0.33933 0.0
H397 H 0.64978 0.15785 0.19616 0.0
H398 H 0.78865 0.15904 0.31218 0.0
H399 H 0.74684 0.14143 0.45368 0.0
Dy400 Dy 0.93044 0.57089 0.89011 0.0
Dy401 Dy 0.8972 0.59822 1.0128 0.0
C402 C 0.91679 0.66042 0.81074 0.0
O403 O 0.98733 0.57697 1.01023 0.0
O404 O 0.97548 0.63833 1.08367 0.0
O405 O 0.98384 0.61065 0.779 0.0
O406 O 0.95175 0.52493 0.80141 0.0
O407 O 0.8891 0.51268 1.03759 0.0
O408 O 0.85743 0.48924 0.90845 0.0
O409 O 0.83302 0.59985 0.93533 0.0
O410 O 0.83835 0.53774 0.85326 0.0
O411 O 0.8277 0.56432 0.09848 0.0
O412 O 0.89741 0.64697 0.12201 0.0
C413 C 0.9998 0.61003 1.08 0.0
O414 O 0.93719 0.654 0.88419 0.0
O415 O 0.93917 0.65567 0.88695 0.0
C416 C 0.94658 0.55277 0.65931 0.0
C417 C 0.90068 0.54599 0.49389 0.0
C418 C 0.87751 0.55501 0.56891 0.0
C419 C 0.90048 0.55866 0.65057 0.0
C420 C 0.96582 0.53724 0.58652 0.0
C421 C 0.94296 0.53393 0.50367 0.0
C422 C 0.9737 0.56437 0.74472 0.0
C423 C 0.86365 0.47171 0.98283 0.0
C424 C 0.81042 0.56197 0.87698 0.0
C425 C 0.86294 0.58568 0.2419 0.0
C426 C 0.88557 0.55691 0.40687 0.0
C427 C 0.88064 0.52526 0.33284 0.0
C428 C 0.86872 0.53919 0.25094 0.0
C429 C 0.86909 0.61706 0.31569 0.0
C430 C 0.87917 0.60261 0.39722 0.0
C431 C 0.8546 0.60375 0.1555 0.0
H432 H 0.84323 0.562 0.56396 0.0
H433 H 0.88358 0.56856 0.70636 0.0
H434 H 0.99901 0.52899 0.59308 0.0
H435 H 0.95996 0.52451 0.44711 0.0
H436 H 0.88597 0.49008 0.33819 0.0
H437 H 0.86478 0.51402 0.19505 0.0
H438 H 0.8662 0.65302 0.31123 0.0
H439 H 0.88358 0.6285 0.45259 0.0
Dy440 Dy 0.45421 0.3824 0.88985 0.0
Dy441 Dy 0.42621 0.32104 1.01348 0.0
C442 C 0.36359 0.2786 0.81386 0.0
O443 O 0.44813 0.43371 1.00951 0.0
O444 O 0.38734 0.3606 1.08436 0.0
O445 O 0.4136 0.39543 0.77956 0.0
O446 O 0.50008 0.44751 0.79757 0.0
O447 O 0.51153 0.39839 1.04103 0.0
O448 O 0.53536 0.39065 0.91159 0.0
O449 O 0.42615 0.25663 0.93427 0.0
O450 O 0.48745 0.32403 0.85118 0.0
O451 O 0.45994 0.2864 0.10172 0.0
O452 O 0.37432 0.26666 0.11391 0.0
C453 C 0.41527 0.41328 1.07977 0.0
O454 O 0.37088 0.30642 0.88641 0.0
O455 O 0.3692 0.30669 0.88893 0.0
C456 C 0.46877 0.41276 0.65659 0.0
C457 C 0.47238 0.37329 0.48981 0.0
C458 C 0.46071 0.33952 0.56312 0.0
C459 C 0.4593 0.35932 0.64603 0.0
C460 C 0.48498 0.44788 0.58428 0.0
C461 C 0.48649 0.42809 0.50088 0.0
C462 C 0.45965 0.42991 0.74271 0.0
C463 C 0.55257 0.41451 0.986 0.0
C464 C 0.46364 0.27202 0.87535 0.0
C465 C 0.42987 0.2932 0.24168 0.0
C466 C 0.46144 0.34906 0.40212 0.0
C467 C 0.48925 0.32335 0.36964 0.0
C468 C 0.4745 0.29688 0.28844 0.0
C469 C 0.40249 0.31923 0.27508 0.0
C470 C 0.41881 0.34761 0.35372 0.0
C471 C 0.4171 0.26926 0.15315 0.0
H472 H 0.44979 0.2971 0.55572 0.0
H473 H 0.44863 0.33207 0.70139 0.0
H474 H 0.49556 0.49002 0.59176 0.0
H475 H 0.4975 0.45504 0.44466 0.0
H476 H 0.52241 0.32418 0.40656 0.0
H477 H 0.49776 0.27911 0.26228 0.0
H478 H 0.36862 0.31825 0.24045 0.0
H479 H 0.39706 0.36721 0.37821 0.0
Dy480 Dy 0.3181 0.89697 0.16094 0.0
Dy481 Dy 0.37728 0.93242 0.28652 0.0
C482 C 0.41284 0.86698 0.19652 0.0
O483 O 0.25299 0.83455 0.24098 0.0
O484 O 0.3183 0.84178 0.33014 0.0
O485 O 0.2824 0.8261 1.0771 0.0
O486 O 0.26754 0.89406 1.0544 0.0
O487 O 0.30045 0.93804 0.2866 0.0
O488 O 0.30095 0.93978 0.28392 0.0
O489 O 0.42954 0.98943 0.168 0.0
O490 O 0.35733 0.97454 1.08806 0.0
O491 O 0.38851 0.98835 0.39219 0.0
O492 O 0.44248 0.9555 0.37979 0.0
C493 C 0.26679 0.81345 0.30365 0.0
O494 O 0.3968 0.89061 0.13901 0.0
O495 O 0.38765 0.86049 0.26963 0.0
C496 C 0.28932 0.85776 0.93348 0.0
C497 C 0.33609 0.88439 0.76613 0.0
C498 C 0.36944 0.90262 0.84075 0.0
C499 C 0.34621 0.88909 0.92379 0.0
C500 C 0.25622 0.83768 0.85897 0.0
C501 C 0.27947 0.85051 0.77541 0.0
C502 C 0.26594 0.85037 1.02146 0.0
C503 C 0.27166 0.91759 0.35852 0.0
C504 C 0.40982 0.00095 0.09625 0.0
C505 C 0.40568 0.95413 0.51815 0.0
C506 C 0.35974 0.90719 0.68022 0.0
C507 C 0.35292 0.87346 0.60851 0.0
C508 C 0.37635 0.8969 0.52791 0.0
C509 C 0.41128 0.98743 0.58928 0.0
C510 C 0.38918 0.96402 0.67018 0.0
C511 C 0.42338 0.97853 0.43151 0.0
H512 H 0.41323 0.92918 0.83477 0.0
H513 H 0.3726 0.90498 0.9804 0.0
H514 H 0.21253 0.81454 0.86493 0.0
H515 H 0.25311 0.83704 0.71835 0.0
H516 H 0.33017 0.82938 0.61513 0.0
H517 H 0.37106 0.87039 0.47318 0.0
H518 H 0.43215 0.03124 0.58159 0.0
H519 H 0.39454 0.98979 0.72555 0.0
Dy520 Dy 0.12796 0.44532 0.161 0.0
Dy521 Dy 0.09262 0.46902 0.28661 0.0
C522 C 0.1576 0.57002 0.19619 0.0
O523 O 0.19055 0.44286 0.24062 0.0
O524 O 0.18335 0.50092 0.32992 0.0
O525 O 0.19899 0.48072 1.07741 0.0
O526 O 0.13101 0.39789 1.0542 0.0
O527 O 0.08728 0.38669 0.28709 0.0
O528 O 0.08555 0.38548 0.28442 0.0
O529 O 0.03525 0.46387 0.16842 0.0
O530 O 0.05039 0.40685 1.08811 0.0
O531 O 0.03681 0.42429 0.39248 0.0
O532 O 0.06963 0.51114 0.37997 0.0
C533 C 0.2117 0.47782 0.30324 0.0
O534 O 0.13403 0.53021 0.13888 0.0
O535 O 0.16426 0.55155 0.26937 0.0
C536 C 0.16752 0.45631 0.93369 0.0
C537 C 0.14088 0.4765 0.76646 0.0
C538 C 0.12196 0.49079 0.84119 0.0
C539 C 0.13545 0.48103 0.92415 0.0
C540 C 0.18855 0.44441 0.85914 0.0
C541 C 0.1756 0.45476 0.77563 0.0
C542 C 0.1748 0.44009 1.02153 0.0
C543 C 0.10799 0.37863 0.3589 0.0
C544 C 0.02377 0.43267 0.09658 0.0
C545 C 0.07113 0.47584 0.51834 0.0
C546 C 0.11809 0.47721 0.68049 0.0
C547 C 0.15181 0.50423 0.60876 0.0
C548 C 0.12835 0.50399 0.5281 0.0
C549 C 0.03786 0.44806 0.58948 0.0
C550 C 0.06125 0.44951 0.67039 0.0
C551 C 0.04666 0.46902 0.43177 0.0
H552 H 0.09488 0.50741 0.83533 0.0
H553 H 0.119 0.49086 0.98079 0.0
H554 H 0.21259 0.42484 0.865 0.0
H555 H 0.1897 0.44259 0.71848 0.0
H556 H 0.19589 0.52578 0.61539 0.0
H557 H 0.15485 0.52527 0.47334 0.0
H558 H 0.99408 0.42502 0.5818 0.0
H559 H 0.03543 0.42897 0.7257 0.0
Dy560 Dy 0.57945 0.70615 0.16068 0.0
Dy561 Dy 0.55578 0.64692 0.28644 0.0
C562 C 0.45472 0.61141 0.19656 0.0
O563 O 0.58174 0.77107 0.24053 0.0
O564 O 0.52409 0.7058 0.33048 0.0
O565 O 0.54426 0.74183 1.07692 0.0
O566 O 0.62701 0.75652 1.05384 0.0
O567 O 0.63809 0.72398 0.2866 0.0
O568 O 0.63931 0.72348 0.28392 0.0
O569 O 0.56025 0.59455 0.16787 0.0
O570 O 0.61745 0.66664 1.08752 0.0
O571 O 0.60079 0.63589 0.39182 0.0
O572 O 0.51397 0.58161 0.37965 0.0
C573 C 0.54702 0.75724 0.30356 0.0
O574 O 0.49436 0.62758 0.13891 0.0
O575 O 0.47342 0.63642 0.2698 0.0
C576 C 0.56863 0.73444 0.93324 0.0
C577 C 0.54823 0.6873 0.76615 0.0
C578 C 0.53393 0.65419 0.841 0.0
C579 C 0.54372 0.67759 0.92389 0.0
C580 C 0.5806 0.76726 0.85855 0.0
C581 C 0.57009 0.74382 0.77513 0.0
C582 C 0.58489 0.75811 1.02103 0.0
C583 C 0.64621 0.75273 0.35849 0.0
C584 C 0.59134 0.61416 0.09589 0.0
C585 C 0.54939 0.61839 0.51801 0.0
C586 C 0.54755 0.66369 0.68026 0.0
C587 C 0.52017 0.6699 0.60871 0.0
C588 C 0.52066 0.64684 0.52802 0.0
C589 C 0.57761 0.61341 0.58899 0.0
C590 C 0.57584 0.63517 0.66998 0.0
C591 C 0.55617 0.60085 0.43127 0.0
H592 H 0.51729 0.61047 0.83528 0.0
H593 H 0.53378 0.65138 0.98063 0.0
H594 H 0.6004 0.81092 0.86421 0.0
H595 H 0.58226 0.77002 0.71788 0.0
H596 H 0.49819 0.69198 0.61548 0.0
H597 H 0.49912 0.65174 0.47338 0.0
H598 H 0.60124 0.59325 0.58121 0.0
H599 H 0.59658 0.63027 0.72525 0.0
Dy600 Dy 0.30654 0.43264 0.22672 0.0
Dy601 Dy 0.36583 0.46864 0.35232 0.0
C602 C 0.41255 0.44811 0.15487 0.0
O603 O 0.25451 0.37608 0.3458 0.0
O604 O 0.32688 0.39113 0.42537 0.0
O605 O 0.29579 0.37677 0.12122 0.0
O606 O 0.24105 0.40874 0.13369 0.0
O607 O 0.28714 0.47507 0.37375 0.0
O608 O 0.29596 0.5045 0.2425 0.0
O609 O 0.43054 0.53111 0.2719 0.0
O610 O 0.36492 0.52331 0.18285 0.0
O611 O 0.40108 0.53946 0.43628 0.0
O612 O 0.41651 0.47188 0.45898 0.0
C613 C 0.27438 0.36475 0.41756 0.0
O614 O 0.38375 0.42763 0.22679 0.0
O615 O 0.38325 0.4259 0.22947 0.0
C616 C 0.27805 0.41051 0.99521 0.0
C617 C 0.32359 0.45782 0.83306 0.0
C618 C 0.32986 0.49137 0.90475 0.0
C619 C 0.30662 0.46774 0.98536 0.0
C620 C 0.27308 0.37737 0.92411 0.0
C621 C 0.29488 0.40099 0.84314 0.0
C622 C 0.26056 0.38608 1.08193 0.0
C623 C 0.2711 0.49848 0.31582 0.0
C624 C 0.4164 0.55196 0.20932 0.0
C625 C 0.3942 0.50778 0.57992 0.0
C626 C 0.34726 0.4808 0.74719 0.0
C627 C 0.31401 0.46246 0.67247 0.0
C628 C 0.33732 0.47618 0.58948 0.0
C629 C 0.4272 0.52798 0.65452 0.0
C630 C 0.40386 0.51494 0.73804 0.0
C631 C 0.41771 0.51537 0.49197 0.0
H632 H 0.35206 0.53546 0.89812 0.0
H633 H 0.31149 0.49413 1.04006 0.0
H634 H 0.25291 0.33355 0.93181 0.0
H635 H 0.28989 0.3754 0.78771 0.0
H636 H 0.27024 0.43567 0.67833 0.0
H637 H 0.31099 0.46025 0.5328 0.0
H638 H 0.47089 0.5514 0.64865 0.0
H639 H 0.43014 0.52847 0.79518 0.0
Dy640 Dy 0.59146 0.89724 0.22658 0.0
Dy641 Dy 0.55573 0.92038 0.35303 0.0
C642 C 0.57619 0.98813 0.15698 0.0
O643 O 0.64829 0.90254 0.34522 0.0
O644 O 0.63423 0.96113 0.42331 0.0
O645 O 0.64707 0.94228 0.12082 0.0
O646 O 0.61595 0.85575 0.13426 0.0
O647 O 0.54998 0.83555 0.37431 0.0
O648 O 0.51987 0.81461 0.24346 0.0
O649 O 0.49302 0.92239 0.27293 0.0
O650 O 0.50101 0.86537 0.18205 0.0
O651 O 0.48481 0.88414 0.43688 0.0
O652 O 0.55222 0.96715 0.46051 0.0
C653 C 0.66033 0.93466 0.41593 0.0
O654 O 0.59683 0.97955 0.22836 0.0
O655 O 0.59857 0.98082 0.23096 0.0
C656 C 0.61406 0.89027 0.99533 0.0
C657 C 0.56667 0.88785 0.83316 0.0
C658 C 0.53317 0.86012 0.90472 0.0
C659 C 0.55685 0.86095 0.9854 0.0
C660 C 0.64715 0.91878 0.92433 0.0
C661 C 0.62351 0.91682 0.84342 0.0
C662 C 0.63837 0.89778 1.08213 0.0
C663 C 0.52636 0.79595 0.3166 0.0
C664 C 0.47227 0.88786 0.2096 0.0
C665 C 0.51635 0.90827 0.58054 0.0
C666 C 0.54359 0.88818 0.7473 0.0
C667 C 0.56333 0.87503 0.67232 0.0
C668 C 0.54953 0.88473 0.58955 0.0
C669 C 0.49449 0.91892 0.65529 0.0
C670 C 0.50774 0.90862 0.73858 0.0
C671 C 0.50873 0.92461 0.49305 0.0
H672 H 0.48909 0.83763 0.89797 0.0
H673 H 0.5305 0.83926 1.04011 0.0
H674 H 0.69095 0.94293 0.93205 0.0
H675 H 0.64911 0.93806 0.78827 0.0
H676 H 0.59127 0.85943 0.67786 0.0
H677 H 0.56661 0.87588 0.53268 0.0
H678 H 0.46965 0.93765 0.64975 0.0
H679 H 0.49296 0.91987 0.79595 0.0
Dy680 Dy 0.12702 0.71812 0.22594 0.0
Dy681 Dy 0.10348 0.65902 0.3523 0.0
C682 C 0.0363 0.61197 0.15579 0.0
O683 O 0.12212 0.76988 0.34451 0.0
O684 O 0.06317 0.69729 0.42244 0.0
O685 O 0.08205 0.7288 0.1203 0.0
O686 O 0.16864 0.78408 0.13362 0.0
O687 O 0.18846 0.7379 0.37391 0.0
O688 O 0.20956 0.72909 0.24286 0.0
O689 O 0.10176 0.59442 0.27213 0.0
O690 O 0.15905 0.65967 0.18167 0.0
O691 O 0.13918 0.62402 0.43638 0.0
O692 O 0.05628 0.60882 0.45969 0.0
C693 C 0.08997 0.7499 0.41519 0.0
O694 O 0.0447 0.64107 0.22728 0.0
O695 O 0.04338 0.64152 0.22988 0.0
C696 C 0.13402 0.74771 0.99472 0.0
C697 C 0.13638 0.70279 0.83244 0.0
C698 C 0.16409 0.69698 0.9039 0.0
C699 C 0.16328 0.71979 0.98465 0.0
C700 C 0.10556 0.75237 0.9238 0.0
C701 C 0.10749 0.73069 0.84285 0.0
C702 C 0.12661 0.76456 1.08157 0.0
C703 C 0.2281 0.75402 0.31622 0.0
C704 C 0.13651 0.60838 0.20906 0.0
C705 C 0.11506 0.6317 0.57989 0.0
C706 C 0.13585 0.67925 0.74657 0.0
C707 C 0.14888 0.71208 0.67153 0.0
C708 C 0.13882 0.68846 0.58881 0.0
C709 C 0.10457 0.59924 0.65466 0.0
C710 C 0.11523 0.6229 0.73791 0.0
C711 C 0.09866 0.60768 0.49243 0.0
H712 H 0.18652 0.67535 0.89705 0.0
H713 H 0.18492 0.71506 1.03932 0.0
H714 H 0.08149 0.77207 0.93159 0.0
H715 H 0.08629 0.73508 0.78775 0.0
H716 H 0.16465 0.75567 0.67701 0.0
H717 H 0.14765 0.71437 0.53192 0.0
H718 H 0.08579 0.55565 0.64922 0.0
H719 H 0.1041 0.59692 0.79532 0.0
loop_
_geom_bond_atom_site_label_1
_geom_bond_atom_site_label_2
_geom_bond_distance
_geom_bond_site_symmetry_2
_ccdc_geom_bond_type
Dy0 O3 2.307 . S
Dy0 O5 2.395 1_655 S
Dy0 O6 2.379 . S
Dy0 O8 2.339 . S
Dy0 O10 2.298 1_655 S
Dy0 O14 2.275 1_655 S
Dy0 C22 2.738 . S
Dy1 O4 2.298 1_455 S
Dy1 O7 2.275 1_455 S
Dy1 O9 2.307 . S
Dy1 O11 2.395 . S
Dy1 O12 2.379 . S
Dy1 O15 2.339 . S
Dy1 C31 2.738 . S
C2 O14 1.254 . S
C2 O15 1.257 . S
O3 Dy0 2.307 . S
O3 C13 1.266 . S
O4 Dy1 2.298 1_655 S
O4 C13 1.236 . S
O5 Dy0 2.395 1_455 S
O5 C22 1.255 1_455 S
O6 Dy0 2.379 . S
O6 C22 1.249 . S
O7 Dy1 2.275 1_655 S
O7 C23 1.254 . S
O8 Dy0 2.339 . S
O8 C23 1.257 . S
O9 Dy1 2.307 . S
O9 C24 1.266 . S
O10 Dy0 2.298 1_455 S
O10 C24 1.236 . S
O11 Dy1 2.395 . S
O11 C31 1.255 . S
O12 Dy1 2.379 . S
O12 C31 1.249 . S
C13 O3 1.266 . S
C13 O4 1.236 . S
O14 Dy0 2.275 1_455 S
O14 C2 1.254 . S
O15 Dy1 2.339 . S
O15 C2 1.257 . S
C16 C19 1.344 1_655 S
C16 C20 1.328 . S
C16 C22 1.516 . S
C17 C18 1.304 1_656 S
C17 C21 1.323 1_556 S
C18 C17 1.304 1_454 S
C18 C19 1.371 . S
C18 H32 0.930 . S
C19 C16 1.344 1_455 S
C19 C18 1.371 . S
C19 H33 0.931 . S
C20 C16 1.328 . S
C20 C21 1.433 . S
C20 H34 0.931 . S
C21 C17 1.323 1_554 S
C21 C20 1.433 . S
C21 H35 0.934 . S
C22 Dy0 2.738 . S
C22 O5 1.255 1_655 S
C22 O6 1.249 . S
C22 C16 1.516 . S
C23 O7 1.254 . S
C23 O8 1.257 . S
C24 O9 1.266 . S
C24 O10 1.236 . S
C25 C28 1.344 1_455 S
C25 C29 1.328 . S
C25 C31 1.516 . S
C26 C27 1.304 1_455 S
C26 C30 1.323 . S
C27 C26 1.304 1_655 S
C27 C28 1.371 . S
C27 H36 0.930 . S
C28 C25 1.344 1_655 S
C28 C27 1.371 . S
C28 H37 0.931 . S
C29 C25 1.328 . S
C29 C30 1.433 . S
C29 H38 0.931 . S
C30 C26 1.323 . S
C30 C29 1.433 . S
C30 H39 0.933 . S
C31 Dy1 2.738 . S
C31 O11 1.255 . S
C31 O12 1.249 . S
C31 C25 1.516 . S
H32 C18 0.930 . S
H33 C19 0.931 . S
H34 C20 0.931 . S
H35 C21 0.934 . S
H36 C27 0.930 . S
H37 C28 0.931 . S
H38 C29 0.931 . S
H39 C30 0.933 . S
Dy40 O43 2.307 . S
Dy40 O45 2.395 . S
Dy40 O46 2.379 . S
Dy40 O48 2.339 . S
Dy40 O50 2.298 . S
Dy40 O54 2.275 . S
Dy40 C62 2.738 . S
Dy41 O44 2.298 . S
Dy41 O47 2.275 . S
Dy41 O49 2.307 . S
Dy41 O51 2.395 . S
Dy41 O52 2.379 . S
Dy41 O55 2.339 . S
Dy41 C71 2.738 . S
C42 O54 1.254 . S
C42 O55 1.257 . S
O43 Dy40 2.307 . S
O43 C53 1.266 . S
O44 Dy41 2.298 . S
O44 C53 1.236 . S
O45 Dy40 2.395 . S
O45 C62 1.255 . S
O46 Dy40 2.379 . S
O46 C62 1.249 . S
O47 Dy41 2.275 . S
O47 C63 1.254 . S
O48 Dy40 2.339 . S
O48 C63 1.257 . S
O49 Dy41 2.307 . S
O49 C64 1.266 . S
O50 Dy40 2.298 . S
O50 C64 1.236 . S
O51 Dy41 2.395 . S
O51 C71 1.255 . S
O52 Dy41 2.379 . S
O52 C71 1.249 . S
C53 O43 1.266 . S
C53 O44 1.236 . S
O54 Dy40 2.275 . S
O54 C42 1.254 . S
O55 Dy41 2.339 . S
O55 C42 1.257 . S
C56 C59 1.344 . S
C56 C60 1.328 . S
C56 C62 1.516 . S
C57 C58 1.304 1_556 S
C57 C61 1.323 1_556 S
C58 C57 1.304 1_554 S
C58 C59 1.371 . S
C58 H72 0.930 . S
C59 C56 1.344 . S
C59 C58 1.371 . S
C59 H73 0.931 . S
C60 C56 1.328 . S
C60 C61 1.433 . S
C60 H74 0.931 . S
C61 C57 1.323 1_554 S
C61 C60 1.433 . S
C61 H75 0.934 . S
C62 Dy40 2.738 . S
C62 O45 1.255 . S
C62 O46 1.249 . S
C62 C56 1.516 . S
C63 O47 1.254 . S
C63 O48 1.257 . S
C64 O49 1.266 . S
C64 O50 1.236 . S
C65 C68 1.344 . S
C65 C69 1.328 . S
C65 C71 1.516 . S
C66 C67 1.304 . S
C66 C70 1.323 . S
C67 C66 1.304 . S
C67 C68 1.371 . S
C67 H76 0.930 . S
C68 C65 1.344 . S
C68 C67 1.371 . S
C68 H77 0.931 . S
C69 C65 1.328 . S
C69 C70 1.433 . S
C69 H78 0.931 . S
C70 C66 1.323 . S
C70 C69 1.433 . S
C70 H79 0.933 . S
C71 Dy41 2.738 . S
C71 O51 1.255 . S
C71 O52 1.249 . S
C71 C65 1.516 . S
H72 C58 0.930 . S
H73 C59 0.931 . S
H74 C60 0.931 . S
H75 C61 0.934 . S
H76 C67 0.930 . S
H77 C68 0.931 . S
H78 C69 0.931 . S
H79 C70 0.933 . S
Dy80 O83 2.307 . S
Dy80 O85 2.395 . S
Dy80 O86 2.379 . S
Dy80 O88 2.339 . S
Dy80 O90 2.298 1_545 S
Dy80 O94 2.275 1_545 S
Dy80 C102 2.738 . S
Dy81 O84 2.298 1_565 S
Dy81 O87 2.275 1_565 S
Dy81 O89 2.307 . S
Dy81 O91 2.395 1_565 S
Dy81 O92 2.379 . S
Dy81 O95 2.339 . S
Dy81 C111 2.738 . S
C82 O94 1.254 . S
C82 O95 1.257 . S
O83 Dy80 2.307 . S
O83 C93 1.266 . S
O84 Dy81 2.298 1_545 S
O84 C93 1.236 . S
O85 Dy80 2.395 . S
O85 C102 1.255 . S
O86 Dy80 2.379 . S
O86 C102 1.249 . S
O87 Dy81 2.275 1_545 S
O87 C103 1.254 . S
O88 Dy80 2.339 . S
O88 C103 1.257 . S
O89 Dy81 2.307 . S
O89 C104 1.266 . S
O90 Dy80 2.298 1_565 S
O90 C104 1.236 . S
O91 Dy81 2.395 1_545 S
O91 C111 1.255 1_545 S
O92 Dy81 2.379 . S
O92 C111 1.249 . S
C93 O83 1.266 . S
C93 O84 1.236 . S
O94 Dy80 2.275 1_565 S
O94 C82 1.254 . S
O95 Dy81 2.339 . S
O95 C82 1.257 . S
C96 C99 1.344 . S
C96 C100 1.328 . S
C96 C102 1.516 . S
C97 C98 1.304 1_556 S
C97 C101 1.323 1_556 S
C98 C97 1.304 1_554 S
C98 C99 1.371 . S
C98 H112 0.930 1_545 S
C99 C96 1.344 . S
C99 C98 1.371 . S
C99 H113 0.931 1_545 S
C100 C96 1.328 . S
C100 C101 1.433 . S
C100 H114 0.931 . S
C101 C97 1.323 1_554 S
C101 C100 1.433 . S
C101 H115 0.934 . S
C102 Dy80 2.738 . S
C102 O85 1.255 . S
C102 O86 1.249 . S
C102 C96 1.516 . S
C103 O87 1.254 . S
C103 O88 1.257 . S
C104 O89 1.266 . S
C104 O90 1.236 . S
C105 C108 1.344 1_565 S
C105 C109 1.328 . S
C105 C111 1.516 . S
C106 C107 1.304 1_565 S
C106 C110 1.323 . S
C107 C106 1.304 1_545 S
C107 C108 1.371 . S
C107 H116 0.930 . S
C108 C105 1.344 1_545 S
C108 C107 1.371 . S
C108 H117 0.931 . S
C109 C105 1.328 . S
C109 C110 1.433 . S
C109 H118 0.931 . S
C110 C106 1.323 . S
C110 C109 1.433 . S
C110 H119 0.933 . S
C111 Dy81 2.738 . S
C111 O91 1.255 1_565 S
C111 O92 1.249 . S
C111 C105 1.516 . S
H112 C98 0.930 1_565 S
H113 C99 0.931 1_565 S
H114 C100 0.931 . S
H115 C101 0.934 . S
H116 C107 0.930 . S
H117 C108 0.931 . S
H118 C109 0.931 . S
H119 C110 0.933 . S
Dy120 O123 2.307 . S
Dy120 O125 2.395 1_655 S
Dy120 O126 2.379 . S
Dy120 O128 2.339 . S
Dy120 O130 2.298 1_655 S
Dy120 O134 2.275 1_655 S
Dy120 C142 2.738 . S
Dy121 O124 2.298 1_455 S
Dy121 O127 2.275 1_455 S
Dy121 O129 2.307 . S
Dy121 O131 2.395 . S
Dy121 O132 2.379 . S
Dy121 O135 2.339 . S
Dy121 C151 2.738 . S
C122 O134 1.254 . S
C122 O135 1.257 . S
O123 Dy120 2.307 . S
O123 C133 1.266 . S
O124 Dy121 2.298 1_655 S
O124 C133 1.236 . S
O125 Dy120 2.395 1_455 S
O125 C142 1.255 1_455 S
O126 Dy120 2.379 . S
O126 C142 1.249 . S
O127 Dy121 2.275 1_655 S
O127 C143 1.254 . S
O128 Dy120 2.339 . S
O128 C143 1.257 . S
O129 Dy121 2.307 . S
O129 C144 1.266 . S
O130 Dy120 2.298 1_455 S
O130 C144 1.236 . S
O131 Dy121 2.395 . S
O131 C151 1.255 . S
O132 Dy121 2.379 . S
O132 C151 1.249 . S
C133 O123 1.266 . S
C133 O124 1.236 . S
O134 Dy120 2.275 1_455 S
O134 C122 1.254 . S
O135 Dy121 2.339 . S
O135 C122 1.257 . S
C136 C139 1.344 1_655 S
C136 C140 1.328 . S
C136 C142 1.516 . S
C137 C138 1.304 1_655 S
C137 C141 1.323 . S
C138 C137 1.304 1_455 S
C138 C139 1.371 . S
C138 H152 0.930 . S
C139 C136 1.344 1_455 S
C139 C138 1.371 . S
C139 H153 0.931 . S
C140 C136 1.328 . S
C140 C141 1.433 . S
C140 H154 0.931 . S
C141 C137 1.323 . S
C141 C140 1.433 . S
C141 H155 0.933 . S
C142 Dy120 2.738 . S
C142 O125 1.255 1_655 S
C142 O126 1.249 . S
C142 C136 1.516 . S
C143 O127 1.254 . S
C143 O128 1.257 . S
C144 O129 1.266 . S
C144 O130 1.236 . S
C145 C148 1.344 1_455 S
C145 C149 1.328 . S
C145 C151 1.516 . S
C146 C147 1.304 1_454 S
C146 C150 1.323 1_554 S
C147 C146 1.304 1_656 S
C147 C148 1.371 . S
C147 H156 0.930 . S
C148 C145 1.344 1_655 S
C148 C147 1.371 . S
C148 H157 0.931 . S
C149 C145 1.328 . S
C149 C150 1.433 . S
C149 H158 0.931 . S
C150 C146 1.323 1_556 S
C150 C149 1.433 . S
C150 H159 0.934 . S
C151 Dy121 2.738 . S
C151 O131 1.255 . S
C151 O132 1.249 . S
C151 C145 1.516 . S
H152 C138 0.930 . S
H153 C139 0.931 . S
H154 C140 0.931 . S
H155 C141 0.933 . S
H156 C147 0.930 . S
H157 C148 0.931 . S
H158 C149 0.931 . S
H159 C150 0.934 . S
Dy160 O163 2.307 . S
Dy160 O165 2.395 . S
Dy160 O166 2.379 . S
Dy160 O168 2.339 . S
Dy160 O170 2.298 . S
Dy160 O174 2.275 . S
Dy160 C182 2.738 . S
Dy161 O164 2.298 . S
Dy161 O167 2.275 . S
Dy161 O169 2.307 . S
Dy161 O171 2.395 . S
Dy161 O172 2.379 . S
Dy161 O175 2.339 . S
Dy161 C191 2.738 . S
C162 O174 1.254 . S
C162 O175 1.257 . S
O163 Dy160 2.307 . S
O163 C173 1.266 . S
O164 Dy161 2.298 . S
O164 C173 1.236 . S
O165 Dy160 2.395 . S
O165 C182 1.255 . S
O166 Dy160 2.379 . S
O166 C182 1.249 . S
O167 Dy161 2.275 . S
O167 C183 1.254 . S
O168 Dy160 2.339 . S
O168 C183 1.257 . S
O169 Dy161 2.307 . S
O169 C184 1.266 . S
O170 Dy160 2.298 . S
O170 C184 1.236 . S
O171 Dy161 2.395 . S
O171 C191 1.255 . S
O172 Dy161 2.379 . S
O172 C191 1.249 . S
C173 O163 1.266 . S
C173 O164 1.236 . S
O174 Dy160 2.275 . S
O174 C162 1.254 . S
O175 Dy161 2.339 . S
O175 C162 1.257 . S
C176 C179 1.344 . S
C176 C180 1.328 . S
C176 C182 1.516 . S
C177 C178 1.304 . S
C177 C181 1.323 . S
C178 C177 1.304 . S
C178 C179 1.371 . S
C178 H192 0.930 . S
C179 C176 1.344 . S
C179 C178 1.371 . S
C179 H193 0.931 . S
C180 C176 1.328 . S
C180 C181 1.433 . S
C180 H194 0.931 . S
C181 C177 1.323 . S
C181 C180 1.433 . S
C181 H195 0.933 . S
C182 Dy160 2.738 . S
C182 O165 1.255 . S
C182 O166 1.249 . S
C182 C176 1.516 . S
C183 O167 1.254 . S
C183 O168 1.257 . S
C184 O169 1.266 . S
C184 O170 1.236 . S
C185 C188 1.344 . S
C185 C189 1.328 . S
C185 C191 1.516 . S
C186 C187 1.304 1_554 S
C186 C190 1.323 1_554 S
C187 C186 1.304 1_556 S
C187 C188 1.371 . S
C187 H196 0.930 . S
C188 C185 1.344 . S
C188 C187 1.371 . S
C188 H197 0.931 . S
C189 C185 1.328 . S
C189 C190 1.433 . S
C189 H198 0.931 . S
C190 C186 1.323 1_556 S
C190 C189 1.433 . S
C190 H199 0.934 . S
C191 Dy161 2.738 . S
C191 O171 1.255 . S
C191 O172 1.249 . S
C191 C185 1.516 . S
H192 C178 0.930 . S
H193 C179 0.931 . S
H194 C180 0.931 . S
H195 C181 0.933 . S
H196 C187 0.930 . S
H197 C188 0.931 . S
H198 C189 0.931 . S
H199 C190 0.934 . S
Dy200 O203 2.307 . S
Dy200 O205 2.395 . S
Dy200 O206 2.379 . S
Dy200 O208 2.339 . S
Dy200 O210 2.298 1_545 S
Dy200 O214 2.275 1_545 S
Dy200 C222 2.738 . S
Dy201 O204 2.298 1_565 S
Dy201 O207 2.275 1_565 S
Dy201 O209 2.307 . S
Dy201 O211 2.395 1_565 S
Dy201 O212 2.379 . S
Dy201 O215 2.339 . S
Dy201 C231 2.738 . S
C202 O214 1.254 . S
C202 O215 1.257 . S
O203 Dy200 2.307 . S
O203 C213 1.266 . S
O204 Dy201 2.298 1_545 S
O204 C213 1.236 . S
O205 Dy200 2.395 . S
O205 C222 1.255 . S
O206 Dy200 2.379 . S
O206 C222 1.249 . S
O207 Dy201 2.275 1_545 S
O207 C223 1.254 . S
O208 Dy200 2.339 . S
O208 C223 1.257 . S
O209 Dy201 2.307 . S
O209 C224 1.266 . S
O210 Dy200 2.298 1_565 S
O210 C224 1.236 . S
O211 Dy201 2.395 1_545 S
O211 C231 1.255 1_545 S
O212 Dy201 2.379 . S
O212 C231 1.249 . S
C213 O203 1.266 . S
C213 O204 1.236 . S
O214 Dy200 2.275 1_565 S
O214 C202 1.254 . S
O215 Dy201 2.339 . S
O215 C202 1.257 . S
C216 C219 1.344 1_545 S
C216 C220 1.328 . S
C216 C222 1.516 . S
C217 C218 1.304 1_545 S
C217 C221 1.323 . S
C218 C217 1.304 1_565 S
C218 C219 1.371 . S
C218 H232 0.930 . S
C219 C216 1.344 1_565 S
C219 C218 1.371 . S
C219 H233 0.931 . S
C220 C216 1.328 . S
C220 C221 1.433 . S
C220 H234 0.931 . S
C221 C217 1.323 . S
C221 C220 1.433 . S
C221 H235 0.933 . S
C222 Dy200 2.738 . S
C222 O205 1.255 . S
C222 O206 1.249 . S
C222 C216 1.516 . S
C223 O207 1.254 . S
C223 O208 1.257 . S
C224 O209 1.266 . S
C224 O210 1.236 . S
C225 C228 1.344 1_565 S
C225 C229 1.328 . S
C225 C231 1.516 . S
C226 C227 1.304 1_564 S
C226 C230 1.323 1_554 S
C227 C226 1.304 1_546 S
C227 C228 1.371 . S
C227 H236 0.930 . S
C228 C225 1.344 1_545 S
C228 C227 1.371 . S
C228 H237 0.931 . S
C229 C225 1.328 . S
C229 C230 1.433 . S
C229 H238 0.931 . S
C230 C226 1.323 1_556 S
C230 C229 1.433 . S
C230 H239 0.934 . S
C231 Dy201 2.738 . S
C231 O211 1.255 1_565 S
C231 O212 1.249 . S
C231 C225 1.516 . S
H232 C218 0.930 . S
H233 C219 0.931 . S
H234 C220 0.931 . S
H235 C221 0.933 . S
H236 C227 0.930 . S
H237 C228 0.931 . S
H238 C229 0.931 . S
H239 C230 0.934 . S
Dy240 O243 2.307 . S
Dy240 O245 2.395 . S
Dy240 O246 2.379 . S
Dy240 O248 2.339 . S
Dy240 O250 2.298 . S
Dy240 O254 2.275 . S
Dy240 C262 2.738 . S
Dy241 O244 2.298 . S
Dy241 O247 2.275 . S
Dy241 O249 2.307 . S
Dy241 O251 2.395 1_556 S
Dy241 O252 2.379 1_556 S
Dy241 O255 2.339 . S
Dy241 C271 2.738 1_556 S
C242 O254 1.254 . S
C242 O255 1.257 . S
O243 Dy240 2.307 . S
O243 C253 1.266 . S
O244 Dy241 2.298 . S
O244 C253 1.236 . S
O245 Dy240 2.395 . S
O245 C262 1.255 . S
O246 Dy240 2.379 . S
O246 C262 1.249 . S
O247 Dy241 2.275 . S
O247 C263 1.254 . S
O248 Dy240 2.339 . S
O248 C263 1.257 . S
O249 Dy241 2.307 . S
O249 C264 1.266 . S
O250 Dy240 2.298 . S
O250 C264 1.236 . S
O251 Dy241 2.395 1_554 S
O251 C271 1.255 . S
O252 Dy241 2.379 1_554 S
O252 C271 1.249 . S
C253 O243 1.266 . S
C253 O244 1.236 . S
O254 Dy240 2.275 . S
O254 C242 1.254 . S
O255 Dy241 2.339 . S
O255 C242 1.257 . S
C256 C259 1.344 . S
C256 C260 1.328 . S
C256 C262 1.516 . S
C257 C258 1.304 . S
C257 C261 1.323 . S
C258 C257 1.304 . S
C258 C259 1.371 . S
C258 H272 0.930 . S
C259 C256 1.344 . S
C259 C258 1.371 . S
C259 H273 0.931 . S
C260 C256 1.328 . S
C260 C261 1.433 . S
C260 H274 0.931 . S
C261 C257 1.323 . S
C261 C260 1.433 . S
C261 H275 0.933 . S
C262 Dy240 2.738 . S
C262 O245 1.255 . S
C262 O246 1.249 . S
C262 C256 1.516 . S
C263 O247 1.254 . S
C263 O248 1.257 . S
C264 O249 1.266 . S
C264 O250 1.236 . S
C265 C268 1.344 . S
C265 C269 1.328 . S
C265 C271 1.516 . S
C266 C267 1.304 . S
C266 C270 1.323 . S
C267 C266 1.304 . S
C267 C268 1.371 . S
C267 H276 0.930 . S
C268 C265 1.344 . S
C268 C267 1.371 . S
C268 H277 0.931 . S
C269 C265 1.328 . S
C269 C270 1.433 . S
C269 H278 0.931 . S
C270 C266 1.323 . S
C270 C269 1.433 . S
C270 H279 0.933 . S
C271 Dy241 2.738 1_554 S
C271 O251 1.255 . S
C271 O252 1.249 . S
C271 C265 1.516 . S
H272 C258 0.930 . S
H273 C259 0.931 . S
H274 C260 0.931 . S
H275 C261 0.933 . S
H276 C267 0.930 . S
H277 C268 0.931 . S
H278 C269 0.931 . S
H279 C270 0.933 . S
Dy280 O283 2.307 . S
Dy280 O285 2.395 . S
Dy280 O286 2.379 . S
Dy280 O288 2.339 . S
Dy280 O290 2.298 . S
Dy280 O294 2.275 . S
Dy280 C302 2.738 . S
Dy281 O284 2.298 . S
Dy281 O287 2.275 . S
Dy281 O289 2.307 . S
Dy281 O291 2.395 1_556 S
Dy281 O292 2.379 1_556 S
Dy281 O295 2.339 . S
Dy281 C311 2.738 1_556 S
C282 O294 1.254 . S
C282 O295 1.257 . S
O283 Dy280 2.307 . S
O283 C293 1.266 . S
O284 Dy281 2.298 . S
O284 C293 1.236 . S
O285 Dy280 2.395 . S
O285 C302 1.255 . S
O286 Dy280 2.379 . S
O286 C302 1.249 . S
O287 Dy281 2.275 . S
O287 C303 1.254 . S
O288 Dy280 2.339 . S
O288 C303 1.257 . S
O289 Dy281 2.307 . S
O289 C304 1.266 . S
O290 Dy280 2.298 . S
O290 C304 1.236 . S
O291 Dy281 2.395 1_554 S
O291 C311 1.255 . S
O292 Dy281 2.379 1_554 S
O292 C311 1.249 . S
C293 O283 1.266 . S
C293 O284 1.236 . S
O294 Dy280 2.275 . S
O294 C282 1.254 . S
O295 Dy281 2.339 . S
O295 C282 1.257 . S
C296 C299 1.344 . S
C296 C300 1.328 . S
C296 C302 1.516 . S
C297 C298 1.304 . S
C297 C301 1.323 . S
C298 C297 1.304 . S
C298 C299 1.371 . S
C298 H312 0.930 . S
C299 C296 1.344 . S
C299 C298 1.371 . S
C299 H313 0.931 . S
C300 C296 1.328 . S
C300 C301 1.433 . S
C300 H314 0.931 . S
C301 C297 1.323 . S
C301 C300 1.433 . S
C301 H315 0.933 . S
C302 Dy280 2.738 . S
C302 O285 1.255 . S
C302 O286 1.249 . S
C302 C296 1.516 . S
C303 O287 1.254 . S
C303 O288 1.257 . S
C304 O289 1.266 . S
C304 O290 1.236 . S
C305 C308 1.344 . S
C305 C309 1.328 . S
C305 C311 1.516 . S
C306 C307 1.304 . S
C306 C310 1.323 . S
C307 C306 1.304 . S
C307 C308 1.371 . S
C307 H316 0.930 . S
C308 C305 1.344 . S
C308 C307 1.371 . S
C308 H317 0.931 . S
C309 C305 1.328 . S
C309 C310 1.433 . S
C309 H318 0.931 . S
C310 C306 1.323 . S
C310 C309 1.433 . S
C310 H319 0.933 . S
C311 Dy281 2.738 1_554 S
C311 O291 1.255 . S
C311 O292 1.249 . S
C311 C305 1.516 . S
H312 C298 0.930 . S
H313 C299 0.931 . S
H314 C300 0.931 . S
H315 C301 0.933 . S
H316 C307 0.930 . S
H317 C308 0.931 . S
H318 C309 0.931 . S
H319 C310 0.933 . S
Dy320 O323 2.307 . S
Dy320 O325 2.395 . S
Dy320 O326 2.379 . S
Dy320 O328 2.339 1_655 S
Dy320 O330 2.298 . S
Dy320 O334 2.275 . S
Dy320 C342 2.738 . S
Dy321 O324 2.298 . S
Dy321 O327 2.275 . S
Dy321 O329 2.307 . S
Dy321 O331 2.395 1_556 S
Dy321 O332 2.379 1_556 S
Dy321 O335 2.339 . S
Dy321 C351 2.738 1_556 S
C322 O334 1.254 . S
C322 O335 1.257 . S
O323 Dy320 2.307 . S
O323 C333 1.266 . S
O324 Dy321 2.298 . S
O324 C333 1.236 . S
O325 Dy320 2.395 . S
O325 C342 1.255 . S
O326 Dy320 2.379 . S
O326 C342 1.249 . S
O327 Dy321 2.275 . S
O327 C343 1.254 1_655 S
O328 Dy320 2.339 1_455 S
O328 C343 1.257 . S
O329 Dy321 2.307 . S
O329 C344 1.266 . S
O330 Dy320 2.298 . S
O330 C344 1.236 . S
O331 Dy321 2.395 1_554 S
O331 C351 1.255 . S
O332 Dy321 2.379 1_554 S
O332 C351 1.249 . S
C333 O323 1.266 . S
C333 O324 1.236 . S
O334 Dy320 2.275 . S
O334 C322 1.254 . S
O335 Dy321 2.339 . S
O335 C322 1.257 . S
C336 C339 1.344 . S
C336 C340 1.328 . S
C336 C342 1.516 . S
C337 C338 1.304 . S
C337 C341 1.323 . S
C338 C337 1.304 . S
C338 C339 1.371 . S
C338 H352 0.930 . S
C339 C336 1.344 . S
C339 C338 1.371 . S
C339 H353 0.931 . S
C340 C336 1.328 . S
C340 C341 1.433 . S
C340 H354 0.931 1_655 S
C341 C337 1.323 . S
C341 C340 1.433 . S
C341 H355 0.933 1_655 S
C342 Dy320 2.738 . S
C342 O325 1.255 . S
C342 O326 1.249 . S
C342 C336 1.516 . S
C343 O327 1.254 1_455 S
C343 O328 1.257 . S
C344 O329 1.266 . S
C344 O330 1.236 . S
C345 C348 1.344 . S
C345 C349 1.328 . S
C345 C351 1.516 . S
C346 C347 1.304 . S
C346 C350 1.323 . S
C347 C346 1.304 . S
C347 C348 1.371 . S
C347 H356 0.930 . S
C348 C345 1.344 . S
C348 C347 1.371 . S
C348 H357 0.931 . S
C349 C345 1.328 . S
C349 C350 1.433 . S
C349 H358 0.931 . S
C350 C346 1.323 . S
C350 C349 1.433 . S
C350 H359 0.933 . S
C351 Dy321 2.738 1_554 S
C351 O331 1.255 . S
C351 O332 1.249 . S
C351 C345 1.516 . S
H352 C338 0.930 . S
H353 C339 0.931 . S
H354 C340 0.931 1_455 S
H355 C341 0.933 1_455 S
H356 C347 0.930 . S
H357 C348 0.931 . S
H358 C349 0.931 . S
H359 C350 0.933 . S
Dy360 O363 2.307 . S
Dy360 O365 2.395 . S
Dy360 O366 2.379 . S
Dy360 O368 2.339 . S
Dy360 O370 2.298 . S
Dy360 O374 2.275 . S
Dy360 C382 2.738 . S
Dy361 O364 2.298 . S
Dy361 O367 2.275 . S
Dy361 O369 2.307 . S
Dy361 O371 2.395 1_556 S
Dy361 O372 2.379 1_556 S
Dy361 O375 2.339 . S
Dy361 C391 2.738 1_556 S
C362 O374 1.254 . S
C362 O375 1.257 . S
O363 Dy360 2.307 . S
O363 C373 1.266 . S
O364 Dy361 2.298 . S
O364 C373 1.236 . S
O365 Dy360 2.395 . S
O365 C382 1.255 . S
O366 Dy360 2.379 . S
O366 C382 1.249 . S
O367 Dy361 2.275 . S
O367 C383 1.254 . S
O368 Dy360 2.339 . S
O368 C383 1.257 . S
O369 Dy361 2.307 . S
O369 C384 1.266 . S
O370 Dy360 2.298 . S
O370 C384 1.236 . S
O371 Dy361 2.395 1_554 S
O371 C391 1.255 . S
O372 Dy361 2.379 1_554 S
O372 C391 1.249 . S
C373 O363 1.266 . S
C373 O364 1.236 . S
O374 Dy360 2.275 . S
O374 C362 1.254 . S
O375 Dy361 2.339 . S
O375 C362 1.257 . S
C376 C379 1.344 . S
C376 C380 1.328 . S
C376 C382 1.516 . S
C377 C378 1.304 . S
C377 C381 1.323 . S
C378 C377 1.304 . S
C378 C379 1.371 . S
C378 H392 0.930 . S
C379 C376 1.344 . S
C379 C378 1.371 . S
C379 H393 0.931 . S
C380 C376 1.328 . S
C380 C381 1.433 . S
C380 H394 0.931 . S
C381 C377 1.323 . S
C381 C380 1.433 . S
C381 H395 0.933 . S
C382 Dy360 2.738 . S
C382 O365 1.255 . S
C382 O366 1.249 . S
C382 C376 1.516 . S
C383 O367 1.254 . S
C383 O368 1.257 . S
C384 O369 1.266 . S
C384 O370 1.236 . S
C385 C388 1.344 . S
C385 C389 1.328 . S
C385 C391 1.516 . S
C386 C387 1.304 . S
C386 C390 1.323 . S
C387 C386 1.304 . S
C387 C388 1.371 . S
C387 H396 0.930 . S
C388 C385 1.344 . S
C388 C387 1.371 . S
C388 H397 0.931 . S
C389 C385 1.328 . S
C389 C390 1.433 . S
C389 H398 0.931 . S
C390 C386 1.323 . S
C390 C389 1.433 . S
C390 H399 0.933 . S
C391 Dy361 2.738 1_554 S
C391 O371 1.255 . S
C391 O372 1.249 . S
C391 C385 1.516 . S
H392 C378 0.930 . S
H393 C379 0.931 . S
H394 C380 0.931 . S
H395 C381 0.933 . S
H396 C387 0.930 . S
H397 C388 0.931 . S
H398 C389 0.931 . S
H399 C390 0.933 . S
Dy400 O403 2.307 . S
Dy400 O405 2.395 . S
Dy400 O406 2.379 . S
Dy400 O408 2.339 . S
Dy400 O410 2.298 . S
Dy400 O414 2.275 . S
Dy400 C422 2.738 . S
Dy401 O404 2.298 . S
Dy401 O407 2.275 . S
Dy401 O409 2.307 . S
Dy401 O411 2.395 1_556 S
Dy401 O412 2.379 1_556 S
Dy401 O415 2.339 . S
Dy401 C431 2.738 1_556 S
C402 O414 1.254 . S
C402 O415 1.257 . S
O403 Dy400 2.307 . S
O403 C413 1.266 1_655 S
O404 Dy401 2.298 . S
O404 C413 1.235 1_655 S
O405 Dy400 2.395 . S
O405 C422 1.255 . S
O406 Dy400 2.379 . S
O406 C422 1.249 . S
O407 Dy401 2.275 . S
O407 C423 1.254 . S
O408 Dy400 2.339 . S
O408 C423 1.257 . S
O409 Dy401 2.307 . S
O409 C424 1.266 . S
O410 Dy400 2.298 . S
O410 C424 1.236 . S
O411 Dy401 2.395 1_554 S
O411 C431 1.255 . S
O412 Dy401 2.379 1_554 S
O412 C431 1.249 . S
C413 O403 1.266 1_455 S
C413 O404 1.235 1_455 S
O414 Dy400 2.275 . S
O414 C402 1.254 . S
O415 Dy401 2.339 . S
O415 C402 1.257 . S
C416 C419 1.344 . S
C416 C420 1.328 . S
C416 C422 1.516 . S
C417 C418 1.304 . S
C417 C421 1.323 . S
C418 C417 1.304 . S
C418 C419 1.371 . S
C418 H432 0.930 . S
C419 C416 1.344 . S
C419 C418 1.371 . S
C419 H433 0.931 . S
C420 C416 1.328 . S
C420 C421 1.433 . S
C420 H434 0.931 . S
C421 C417 1.323 . S
C421 C420 1.433 . S
C421 H435 0.933 . S
C422 Dy400 2.738 . S
C422 O405 1.255 . S
C422 O406 1.249 . S
C422 C416 1.516 . S
C423 O407 1.254 . S
C423 O408 1.257 . S
C424 O409 1.266 . S
C424 O410 1.236 . S
C425 C428 1.344 . S
C425 C429 1.328 . S
C425 C431 1.516 . S
C426 C427 1.304 . S
C426 C430 1.323 . S
C427 C426 1.304 . S
C427 C428 1.371 . S
C427 H436 0.930 . S
C428 C425 1.344 . S
C428 C427 1.371 . S
C428 H437 0.931 . S
C429 C425 1.328 . S
C429 C430 1.433 . S
C429 H438 0.931 . S
C430 C426 1.323 . S
C430 C429 1.433 . S
C430 H439 0.933 . S
C431 Dy401 2.738 1_554 S
C431 O411 1.255 . S
C431 O412 1.249 . S
C431 C425 1.516 . S
H432 C418 0.930 . S
H433 C419 0.931 . S
H434 C420 0.931 . S
H435 C421 0.933 . S
H436 C427 0.930 . S
H437 C428 0.931 . S
H438 C429 0.931 . S
H439 C430 0.933 . S
Dy440 O443 2.307 . S
Dy440 O445 2.395 . S
Dy440 O446 2.379 . S
Dy440 O448 2.339 . S
Dy440 O450 2.298 . S
Dy440 O454 2.275 . S
Dy440 C462 2.738 . S
Dy441 O444 2.298 . S
Dy441 O447 2.275 . S
Dy441 O449 2.307 . S
Dy441 O451 2.395 1_556 S
Dy441 O452 2.379 1_556 S
Dy441 O455 2.339 . S
Dy441 C471 2.738 1_556 S
C442 O454 1.254 . S
C442 O455 1.257 . S
O443 Dy440 2.307 . S
O443 C453 1.266 . S
O444 Dy441 2.298 . S
O444 C453 1.236 . S
O445 Dy440 2.395 . S
O445 C462 1.255 . S
O446 Dy440 2.379 . S
O446 C462 1.249 . S
O447 Dy441 2.275 . S
O447 C463 1.254 . S
O448 Dy440 2.339 . S
O448 C463 1.257 . S
O449 Dy441 2.307 . S
O449 C464 1.266 . S
O450 Dy440 2.298 . S
O450 C464 1.236 . S
O451 Dy441 2.395 1_554 S
O451 C471 1.255 . S
O452 Dy441 2.379 1_554 S
O452 C471 1.249 . S
C453 O443 1.266 . S
C453 O444 1.236 . S
O454 Dy440 2.275 . S
O454 C442 1.254 . S
O455 Dy441 2.339 . S
O455 C442 1.257 . S
C456 C459 1.344 . S
C456 C460 1.328 . S
C456 C462 1.516 . S
C457 C458 1.304 . S
C457 C461 1.323 . S
C458 C457 1.304 . S
C458 C459 1.371 . S
C458 H472 0.930 . S
C459 C456 1.344 . S
C459 C458 1.371 . S
C459 H473 0.931 . S
C460 C456 1.328 . S
C460 C461 1.433 . S
C460 H474 0.931 . S
C461 C457 1.323 . S
C461 C460 1.433 . S
C461 H475 0.933 . S
C462 Dy440 2.738 . S
C462 O445 1.255 . S
C462 O446 1.249 . S
C462 C456 1.516 . S
C463 O447 1.254 . S
C463 O448 1.257 . S
C464 O449 1.266 . S
C464 O450 1.236 . S
C465 C468 1.344 . S
C465 C469 1.328 . S
C465 C471 1.516 . S
C466 C467 1.304 . S
C466 C470 1.323 . S
C467 C466 1.304 . S
C467 C468 1.371 . S
C467 H476 0.930 . S
C468 C465 1.344 . S
C468 C467 1.371 . S
C468 H477 0.931 . S
C469 C465 1.328 . S
C469 C470 1.433 . S
C469 H478 0.931 . S
C470 C466 1.323 . S
C470 C469 1.433 . S
C470 H479 0.933 . S
C471 Dy441 2.738 1_554 S
C471 O451 1.255 . S
C471 O452 1.249 . S
C471 C465 1.516 . S
H472 C458 0.930 . S
H473 C459 0.931 . S
H474 C460 0.931 . S
H475 C461 0.933 . S
H476 C467 0.930 . S
H477 C468 0.931 . S
H478 C469 0.931 . S
H479 C470 0.933 . S
Dy480 O483 2.307 . S
Dy480 O485 2.395 1_554 S
Dy480 O486 2.379 1_554 S
Dy480 O488 2.339 . S
Dy480 O490 2.298 . S
Dy480 O494 2.275 . S
Dy480 C502 2.738 1_554 S
Dy481 O484 2.298 . S
Dy481 O487 2.275 . S
Dy481 O489 2.307 1_565 S
Dy481 O491 2.395 . S
Dy481 O492 2.379 . S
Dy481 O495 2.339 . S
Dy481 C511 2.738 . S
C482 O494 1.254 . S
C482 O495 1.257 . S
O483 Dy480 2.307 . S
O483 C493 1.266 . S
O484 Dy481 2.298 . S
O484 C493 1.236 . S
O485 Dy480 2.395 1_556 S
O485 C502 1.255 . S
O486 Dy480 2.379 1_556 S
O486 C502 1.249 . S
O487 Dy481 2.275 . S
O487 C503 1.254 . S
O488 Dy480 2.339 . S
O488 C503 1.257 . S
O489 Dy481 2.307 1_545 S
O489 C504 1.266 . S
O490 Dy480 2.298 . S
O490 C504 1.236 1_565 S
O491 Dy481 2.395 . S
O491 C511 1.255 . S
O492 Dy481 2.379 . S
O492 C511 1.249 . S
C493 O483 1.266 . S
C493 O484 1.236 . S
O494 Dy480 2.275 . S
O494 C482 1.254 . S
O495 Dy481 2.339 . S
O495 C482 1.257 . S
C496 C499 1.344 . S
C496 C500 1.328 . S
C496 C502 1.516 . S
C497 C498 1.304 . S
C497 C501 1.323 . S
C498 C497 1.304 . S
C498 C499 1.371 . S
C498 H512 0.930 . S
C499 C496 1.344 . S
C499 C498 1.371 . S
C499 H513 0.931 . S
C500 C496 1.328 . S
C500 C501 1.433 . S
C500 H514 0.931 . S
C501 C497 1.323 . S
C501 C500 1.433 . S
C501 H515 0.933 . S
C502 Dy480 2.738 1_556 S
C502 O485 1.255 . S
C502 O486 1.249 . S
C502 C496 1.516 . S
C503 O487 1.254 . S
C503 O488 1.257 . S
C504 O489 1.266 . S
C504 O490 1.236 1_545 S
C505 C508 1.344 . S
C505 C509 1.328 . S
C505 C511 1.516 . S
C506 C507 1.304 . S
C506 C510 1.323 . S
C507 C506 1.304 . S
C507 C508 1.371 . S
C507 H516 0.930 . S
C508 C505 1.344 . S
C508 C507 1.371 . S
C508 H517 0.931 . S
C509 C505 1.328 . S
C509 C510 1.433 . S
C509 H518 0.931 . S
C510 C506 1.323 . S
C510 C509 1.433 . S
C510 H519 0.933 . S
C511 Dy481 2.738 . S
C511 O491 1.255 . S
C511 O492 1.249 . S
C511 C505 1.516 . S
H512 C498 0.930 . S
H513 C499 0.931 . S
H514 C500 0.931 . S
H515 C501 0.933 . S
H516 C507 0.930 . S
H517 C508 0.931 . S
H518 C509 0.931 . S
H519 C510 0.933 . S
Dy520 O523 2.307 . S
Dy520 O525 2.395 1_554 S
Dy520 O526 2.379 1_554 S
Dy520 O528 2.339 . S
Dy520 O530 2.298 . S
Dy520 O534 2.275 . S
Dy520 C542 2.738 1_554 S
Dy521 O524 2.298 . S
Dy521 O527 2.275 . S
Dy521 O529 2.307 . S
Dy521 O531 2.395 . S
Dy521 O532 2.379 . S
Dy521 O535 2.339 . S
Dy521 C551 2.738 . S
C522 O534 1.254 . S
C522 O535 1.257 . S
O523 Dy520 2.307 . S
O523 C533 1.266 . S
O524 Dy521 2.298 . S
O524 C533 1.236 . S
O525 Dy520 2.395 1_556 S
O525 C542 1.255 . S
O526 Dy520 2.379 1_556 S
O526 C542 1.249 . S
O527 Dy521 2.275 . S
O527 C543 1.254 . S
O528 Dy520 2.339 . S
O528 C543 1.257 . S
O529 Dy521 2.307 . S
O529 C544 1.266 . S
O530 Dy520 2.298 . S
O530 C544 1.236 . S
O531 Dy521 2.395 . S
O531 C551 1.255 . S
O532 Dy521 2.379 . S
O532 C551 1.249 . S
C533 O523 1.266 . S
C533 O524 1.236 . S
O534 Dy520 2.275 . S
O534 C522 1.254 . S
O535 Dy521 2.339 . S
O535 C522 1.257 . S
C536 C539 1.344 . S
C536 C540 1.328 . S
C536 C542 1.516 . S
C537 C538 1.304 . S
C537 C541 1.323 . S
C538 C537 1.304 . S
C538 C539 1.371 . S
C538 H552 0.930 . S
C539 C536 1.344 . S
C539 C538 1.371 . S
C539 H553 0.931 . S
C540 C536 1.328 . S
C540 C541 1.433 . S
C540 H554 0.931 . S
C541 C537 1.323 . S
C541 C540 1.433 . S
C541 H555 0.933 . S
C542 Dy520 2.738 1_556 S
C542 O525 1.255 . S
C542 O526 1.249 . S
C542 C536 1.516 . S
C543 O527 1.254 . S
C543 O528 1.257 . S
C544 O529 1.266 . S
C544 O530 1.236 . S
C545 C548 1.344 . S
C545 C549 1.328 . S
C545 C551 1.516 . S
C546 C547 1.304 . S
C546 C550 1.323 . S
C547 C546 1.304 . S
C547 C548 1.371 . S
C547 H556 0.930 . S
C548 C545 1.344 . S
C548 C547 1.371 . S
C548 H557 0.931 . S
C549 C545 1.328 . S
C549 C550 1.433 . S
C549 H558 0.931 . S
C550 C546 1.323 . S
C550 C549 1.433 . S
C550 H559 0.933 . S
C551 Dy521 2.738 . S
C551 O531 1.255 . S
C551 O532 1.249 . S
C551 C545 1.516 . S
H552 C538 0.930 . S
H553 C539 0.931 . S
H554 C540 0.931 . S
H555 C541 0.933 . S
H556 C547 0.930 . S
H557 C548 0.931 . S
H558 C549 0.931 . S
H559 C550 0.933 . S
Dy560 O563 2.307 . S
Dy560 O565 2.395 1_554 S
Dy560 O566 2.379 1_554 S
Dy560 O568 2.339 . S
Dy560 O570 2.298 . S
Dy560 O574 2.275 . S
Dy560 C582 2.738 1_554 S
Dy561 O564 2.298 . S
Dy561 O567 2.275 . S
Dy561 O569 2.307 . S
Dy561 O571 2.395 . S
Dy561 O572 2.379 . S
Dy561 O575 2.339 . S
Dy561 C591 2.738 . S
C562 O574 1.254 . S
C562 O575 1.257 . S
O563 Dy560 2.307 . S
O563 C573 1.266 . S
O564 Dy561 2.298 . S
O564 C573 1.236 . S
O565 Dy560 2.395 1_556 S
O565 C582 1.255 . S
O566 Dy560 2.379 1_556 S
O566 C582 1.249 . S
O567 Dy561 2.275 . S
O567 C583 1.254 . S
O568 Dy560 2.339 . S
O568 C583 1.257 . S
O569 Dy561 2.307 . S
O569 C584 1.266 . S
O570 Dy560 2.298 . S
O570 C584 1.236 . S
O571 Dy561 2.395 . S
O571 C591 1.255 . S
O572 Dy561 2.379 . S
O572 C591 1.249 . S
C573 O563 1.266 . S
C573 O564 1.236 . S
O574 Dy560 2.275 . S
O574 C562 1.254 . S
O575 Dy561 2.339 . S
O575 C562 1.257 . S
C576 C579 1.344 . S
C576 C580 1.328 . S
C576 C582 1.516 . S
C577 C578 1.304 . S
C577 C581 1.323 . S
C578 C577 1.304 . S
C578 C579 1.371 . S
C578 H592 0.930 . S
C579 C576 1.344 . S
C579 C578 1.371 . S
C579 H593 0.931 . S
C580 C576 1.328 . S
C580 C581 1.433 . S
C580 H594 0.931 . S
C581 C577 1.323 . S
C581 C580 1.433 . S
C581 H595 0.933 . S
C582 Dy560 2.738 1_556 S
C582 O565 1.255 . S
C582 O566 1.249 . S
C582 C576 1.516 . S
C583 O567 1.254 . S
C583 O568 1.257 . S
C584 O569 1.266 . S
C584 O570 1.236 . S
C585 C588 1.344 . S
C585 C589 1.328 . S
C585 C591 1.516 . S
C586 C587 1.304 . S
C586 C590 1.323 . S
C587 C586 1.304 . S
C587 C588 1.371 . S
C587 H596 0.930 . S
C588 C585 1.344 . S
C588 C587 1.371 . S
C588 H597 0.931 . S
C589 C585 1.328 . S
C589 C590 1.433 . S
C589 H598 0.931 . S
C590 C586 1.323 . S
C590 C589 1.433 . S
C590 H599 0.933 . S
C591 Dy561 2.738 . S
C591 O571 1.255 . S
C591 O572 1.249 . S
C591 C585 1.516 . S
H592 C578 0.930 . S
H593 C579 0.931 . S
H594 C580 0.931 . S
H595 C581 0.933 . S
H596 C587 0.930 . S
H597 C588 0.931 . S
H598 C589 0.931 . S
H599 C590 0.933 . S
Dy600 O603 2.307 . S
Dy600 O605 2.395 1_554 S
Dy600 O606 2.379 1_554 S
Dy600 O608 2.339 . S
Dy600 O610 2.298 . S
Dy600 O614 2.275 . S
Dy600 C622 2.738 1_554 S
Dy601 O604 2.298 . S
Dy601 O607 2.275 . S
Dy601 O609 2.307 . S
Dy601 O611 2.395 . S
Dy601 O612 2.379 . S
Dy601 O615 2.339 . S
Dy601 C631 2.738 . S
C602 O614 1.254 . S
C602 O615 1.257 . S
O603 Dy600 2.307 . S
O603 C613 1.266 . S
O604 Dy601 2.298 . S
O604 C613 1.236 . S
O605 Dy600 2.395 1_556 S
O605 C622 1.255 . S
O606 Dy600 2.379 1_556 S
O606 C622 1.249 . S
O607 Dy601 2.275 . S
O607 C623 1.254 . S
O608 Dy600 2.339 . S
O608 C623 1.257 . S
O609 Dy601 2.307 . S
O609 C624 1.266 . S
O610 Dy600 2.298 . S
O610 C624 1.236 . S
O611 Dy601 2.395 . S
O611 C631 1.255 . S
O612 Dy601 2.379 . S
O612 C631 1.249 . S
C613 O603 1.266 . S
C613 O604 1.236 . S
O614 Dy600 2.275 . S
O614 C602 1.254 . S
O615 Dy601 2.339 . S
O615 C602 1.257 . S
C616 C619 1.344 . S
C616 C620 1.328 . S
C616 C622 1.516 . S
C617 C618 1.304 . S
C617 C621 1.323 . S
C618 C617 1.304 . S
C618 C619 1.371 . S
C618 H632 0.930 . S
C619 C616 1.344 . S
C619 C618 1.371 . S
C619 H633 0.931 . S
C620 C616 1.328 . S
C620 C621 1.433 . S
C620 H634 0.931 . S
C621 C617 1.323 . S
C621 C620 1.433 . S
C621 H635 0.933 . S
C622 Dy600 2.738 1_556 S
C622 O605 1.255 . S
C622 O606 1.249 . S
C622 C616 1.516 . S
C623 O607 1.254 . S
C623 O608 1.257 . S
C624 O609 1.266 . S
C624 O610 1.236 . S
C625 C628 1.344 . S
C625 C629 1.328 . S
C625 C631 1.516 . S
C626 C627 1.304 . S
C626 C630 1.323 . S
C627 C626 1.304 . S
C627 C628 1.371 . S
C627 H636 0.930 . S
C628 C625 1.344 . S
C628 C627 1.371 . S
C628 H637 0.931 . S
C629 C625 1.328 . S
C629 C630 1.433 . S
C629 H638 0.931 . S
C630 C626 1.323 . S
C630 C629 1.433 . S
C630 H639 0.933 . S
C631 Dy601 2.738 . S
C631 O611 1.255 . S
C631 O612 1.249 . S
C631 C625 1.516 . S
H632 C618 0.930 . S
H633 C619 0.931 . S
H634 C620 0.931 . S
H635 C621 0.933 . S
H636 C627 0.930 . S
H637 C628 0.931 . S
H638 C629 0.931 . S
H639 C630 0.933 . S
Dy640 O643 2.307 . S
Dy640 O645 2.395 1_554 S
Dy640 O646 2.379 1_554 S
Dy640 O648 2.339 . S
Dy640 O650 2.298 . S
Dy640 O654 2.275 . S
Dy640 C662 2.738 1_554 S
Dy641 O644 2.298 . S
Dy641 O647 2.275 . S
Dy641 O649 2.307 . S
Dy641 O651 2.395 . S
Dy641 O652 2.379 . S
Dy641 O655 2.339 1_565 S
Dy641 C671 2.738 . S
C642 O654 1.254 1_545 S
C642 O655 1.257 . S
O643 Dy640 2.307 . S
O643 C653 1.266 . S
O644 Dy641 2.298 . S
O644 C653 1.236 . S
O645 Dy640 2.395 1_556 S
O645 C662 1.255 . S
O646 Dy640 2.379 1_556 S
O646 C662 1.249 . S
O647 Dy641 2.275 . S
O647 C663 1.254 . S
O648 Dy640 2.339 . S
O648 C663 1.257 . S
O649 Dy641 2.307 . S
O649 C664 1.266 . S
O650 Dy640 2.298 . S
O650 C664 1.236 . S
O651 Dy641 2.395 . S
O651 C671 1.255 . S
O652 Dy641 2.379 . S
O652 C671 1.249 . S
C653 O643 1.266 . S
C653 O644 1.236 . S
O654 Dy640 2.275 . S
O654 C642 1.254 1_565 S
O655 Dy641 2.339 1_545 S
O655 C642 1.257 . S
C656 C659 1.344 . S
C656 C660 1.328 . S
C656 C662 1.516 . S
C657 C658 1.304 . S
C657 C661 1.323 . S
C658 C657 1.304 . S
C658 C659 1.371 . S
C658 H672 0.930 . S
C659 C656 1.344 . S
C659 C658 1.371 . S
C659 H673 0.931 . S
C660 C656 1.328 . S
C660 C661 1.433 . S
C660 H674 0.931 . S
C661 C657 1.323 . S
C661 C660 1.433 . S
C661 H675 0.933 . S
C662 Dy640 2.738 1_556 S
C662 O645 1.255 . S
C662 O646 1.249 . S
C662 C656 1.516 . S
C663 O647 1.254 . S
C663 O648 1.257 . S
C664 O649 1.266 . S
C664 O650 1.236 . S
C665 C668 1.344 . S
C665 C669 1.328 . S
C665 C671 1.516 . S
C666 C667 1.304 . S
C666 C670 1.323 . S
C667 C666 1.304 . S
C667 C668 1.371 . S
C667 H676 0.930 . S
C668 C665 1.344 . S
C668 C667 1.371 . S
C668 H677 0.931 . S
C669 C665 1.328 . S
C669 C670 1.433 . S
C669 H678 0.931 1_565 S
C670 C666 1.323 . S
C670 C669 1.433 . S
C670 H679 0.933 1_565 S
C671 Dy641 2.738 . S
C671 O651 1.255 . S
C671 O652 1.249 . S
C671 C665 1.516 . S
H672 C658 0.930 . S
H673 C659 0.931 . S
H674 C660 0.931 . S
H675 C661 0.933 . S
H676 C667 0.930 . S
H677 C668 0.931 . S
H678 C669 0.931 1_545 S
H679 C670 0.933 1_545 S
Dy680 O683 2.307 . S
Dy680 O685 2.395 1_554 S
Dy680 O686 2.379 1_554 S
Dy680 O688 2.339 . S
Dy680 O690 2.298 . S
Dy680 O694 2.275 . S
Dy680 C702 2.738 1_554 S
Dy681 O684 2.298 . S
Dy681 O687 2.275 . S
Dy681 O689 2.307 . S
Dy681 O691 2.395 . S
Dy681 O692 2.379 . S
Dy681 O695 2.339 . S
Dy681 C711 2.738 . S
C682 O694 1.254 . S
C682 O695 1.257 . S
O683 Dy680 2.307 . S
O683 C693 1.266 . S
O684 Dy681 2.298 . S
O684 C693 1.236 . S
O685 Dy680 2.395 1_556 S
O685 C702 1.255 . S
O686 Dy680 2.379 1_556 S
O686 C702 1.249 . S
O687 Dy681 2.275 . S
O687 C703 1.254 . S
O688 Dy680 2.339 . S
O688 C703 1.257 . S
O689 Dy681 2.307 . S
O689 C704 1.266 . S
O690 Dy680 2.298 . S
O690 C704 1.236 . S
O691 Dy681 2.395 . S
O691 C711 1.255 . S
O692 Dy681 2.379 . S
O692 C711 1.249 . S
C693 O683 1.266 . S
C693 O684 1.236 . S
O694 Dy680 2.275 . S
O694 C682 1.254 . S
O695 Dy681 2.339 . S
O695 C682 1.257 . S
C696 C699 1.344 . S
C696 C700 1.328 . S
C696 C702 1.516 . S
C697 C698 1.304 . S
C697 C701 1.323 . S
C698 C697 1.304 . S
C698 C699 1.371 . S
C698 H712 0.930 . S
C699 C696 1.344 . S
C699 C698 1.371 . S
C699 H713 0.931 . S
C700 C696 1.328 . S
C700 C701 1.433 . S
C700 H714 0.931 . S
C701 C697 1.323 . S
C701 C700 1.433 . S
C701 H715 0.933 . S
C702 Dy680 2.738 1_556 S
C702 O685 1.255 . S
C702 O686 1.249 . S
C702 C696 1.516 . S
C703 O687 1.254 . S
C703 O688 1.257 . S
C704 O689 1.266 . S
C704 O690 1.236 . S
C705 C708 1.344 . S
C705 C709 1.328 . S
C705 C711 1.516 . S
C706 C707 1.304 . S
C706 C710 1.323 . S
C707 C706 1.304 . S
C707 C708 1.371 . S
C707 H716 0.930 . S
C708 C705 1.344 . S
C708 C707 1.371 . S
C708 H717 0.931 . S
C709 C705 1.328 . S
C709 C710 1.433 . S
C709 H718 0.931 . S
C710 C706 1.323 . S
C710 C709 1.433 . S
C710 H719 0.933 . S
C711 Dy681 2.738 . S
C711 O691 1.255 . S
C711 O692 1.249 . S
C711 C705 1.516 . S
H712 C698 0.930 . S
H713 C699 0.931 . S
H714 C700 0.931 . S
H715 C701 0.933 . S
H716 C707 0.930 . S
H717 C708 0.931 . S
H718 C709 0.931 . S
H719 C710 0.933 . S
C543 C24 4.340 . S
C64 C583 4.340 . S
C104 C503 4.340 . S
C103 C304 4.340 . S
C344 C23 4.340 . S
C63 C264 4.340 . S
C133 C402 4.340 . S
C173 C442 4.340 . S
C362 C213 4.340 . S
C653 C202 4.340 . S
C122 C693 4.340 . S
C613 C162 4.340 . S
C343 C544 4.340 1_556 S
C263 C584 4.340 1_556 S
C303 C504 4.340 1_556 S
C373 C642 4.340 1_556 S
C682 C413 4.340 1_554 S
C602 C453 4.340 1_554 S
C2 C184 1.964 . S
C224 C42 1.965 . S
C144 C82 1.964 . S
C183 C93 1.965 . S
C223 C13 1.964 . S
C143 C53 1.964 . S
C424 C242 1.964 . S
C464 C282 1.965 . S
C384 C322 1.965 . S
C423 C333 1.965 . S
C463 C253 1.965 . S
C383 C293 1.965 . S
C664 C482 1.964 . S
C704 C522 1.965 . S
C562 C624 1.965 . S
C573 C663 1.965 . S
C493 C703 1.965 . S
C623 C533 1.964 . S
C17 C26 1.752 1_655 S
C57 C66 1.752 . S
C97 C106 1.751 1_545 S
C146 C137 1.752 1_455 S
C177 C186 1.752 . S
C217 C226 1.751 1_545 S
C266 C257 1.752 . S
C297 C306 1.752 . S
C346 C337 1.751 . S
C386 C377 1.752 . S
C426 C417 1.752 . S
C466 C457 1.751 . S
C506 C497 1.752 . S
C537 C546 1.752 . S
C577 C586 1.751 . S
C617 C626 1.752 . S
C657 C666 1.752 . S
C706 C697 1.751 . S
