# Generated by pormake.
# Topology dia-g, (3)-cn, num edge types: 1
# Building blocks:
#     Node 0, Type 0, BuildingBlock: WUSLED_clean_sbu_0, # of connection points: 3
#     Node 1, Type 0, BuildingBlock: WUSLED_clean_sbu_0, # of connection points: 3
#     Node 2, Type 0, BuildingBlock: WUSLED_clean_sbu_0, # of connection points: 3
#     Node 3, Type 0, BuildingBlock: WUSLED_clean_sbu_0, # of connection points: 3
#     Node 4, Type 0, BuildingBlock: WUSLED_clean_sbu_0, # of connection points: 3
#     Node 5, Type 0, BuildingBlock: WUSLED_clean_sbu_0, # of connection points: 3
#     Node 6, Type 0, BuildingBlock: WUSLED_clean_sbu_0, # of connection points: 3
#     Node 7, Type 0, BuildingBlock: WUSLED_clean_sbu_0, # of connection points: 3
#     Node 8, Type 0, BuildingBlock: WUSLED_clean_sbu_0, # of connection points: 3
#     Node 9, Type 0, BuildingBlock: WUSLED_clean_sbu_0, # of connection points: 3
#     Node 10, Type 0, BuildingBlock: WUSLED_clean_sbu_0, # of connection points: 3
#     Node 11, Type 0, BuildingBlock: WUSLED_clean_sbu_0, # of connection points: 3
#     Node 12, Type 0, BuildingBlock: WUSLED_clean_sbu_0, # of connection points: 3
#     Node 13, Type 0, BuildingBlock: WUSLED_clean_sbu_0, # of connection points: 3
#     Node 14, Type 0, BuildingBlock: WUSLED_clean_sbu_0, # of connection points: 3
#     Node 15, Type 0, BuildingBlock: WUSLED_clean_sbu_0, # of connection points: 3
#     Edge 16, Type (0, 0), BuildingBlock: XUDNAN_clean_linker_2, # of connection points: 2
#     Edge 17, Type (0, 0), BuildingBlock: XUDNAN_clean_linker_2, # of connection points: 2
#     Edge 18, Type (0, 0), BuildingBlock: XUDNAN_clean_linker_2, # of connection points: 2
#     Edge 19, Type (0, 0), BuildingBlock: XUDNAN_clean_linker_2, # of connection points: 2
#     Edge 20, Type (0, 0), BuildingBlock: XUDNAN_clean_linker_2, # of connection points: 2
#     Edge 21, Type (0, 0), BuildingBlock: XUDNAN_clean_linker_2, # of connection points: 2
#     Edge 22, Type (0, 0), BuildingBlock: XUDNAN_clean_linker_2, # of connection points: 2
#     Edge 23, Type (0, 0), BuildingBlock: XUDNAN_clean_linker_2, # of connection points: 2
#     Edge 24, Type (0, 0), BuildingBlock: XUDNAN_clean_linker_2, # of connection points: 2
#     Edge 25, Type (0, 0), BuildingBlock: XUDNAN_clean_linker_2, # of connection points: 2
#     Edge 26, Type (0, 0), BuildingBlock: XUDNAN_clean_linker_2, # of connection points: 2
#     Edge 27, Type (0, 0), BuildingBlock: XUDNAN_clean_linker_2, # of connection points: 2
#     Edge 28, Type (0, 0), BuildingBlock: XUDNAN_clean_linker_2, # of connection points: 2
#     Edge 29, Type (0, 0), BuildingBlock: XUDNAN_clean_linker_2, # of connection points: 2
#     Edge 30, Type (0, 0), BuildingBlock: XUDNAN_clean_linker_2, # of connection points: 2
#     Edge 31, Type (0, 0), BuildingBlock: XUDNAN_clean_linker_2, # of connection points: 2
#     Edge 32, Type (0, 0), BuildingBlock: XUDNAN_clean_linker_2, # of connection points: 2
#     Edge 33, Type (0, 0), BuildingBlock: XUDNAN_clean_linker_2, # of connection points: 2
#     Edge 34, Type (0, 0), BuildingBlock: XUDNAN_clean_linker_2, # of connection points: 2
#     Edge 35, Type (0, 0), BuildingBlock: XUDNAN_clean_linker_2, # of connection points: 2
#     Edge 36, Type (0, 0), BuildingBlock: XUDNAN_clean_linker_2, # of connection points: 2
#     Edge 37, Type (0, 0), BuildingBlock: XUDNAN_clean_linker_2, # of connection points: 2
#     Edge 38, Type (0, 0), BuildingBlock: XUDNAN_clean_linker_2, # of connection points: 2
#     Edge 39, Type (0, 0), BuildingBlock: XUDNAN_clean_linker_2, # of connection points: 2
# Relax obj value: 0.111
# Max RMSD: 0.094
# Mean RMSD: 0.094
data_MOF--net-dia-g--node1-WUSLED_clean_sbu_0--edge1-XUDNAN_clean_linker_2
_symmetry_space_group_name_H-M    P1
_symmetry_Int_Tables_number       1
_symmetry_cell_setting            triclinic
loop_
_symmetry_equiv_pos_as_xyz
'x, y, z'
_cell_length_a     69.10945
_cell_length_b     70.807228
_cell_length_c     142.53454
_cell_angle_alpha  90.662038
_cell_angle_beta   90.066837
_cell_angle_gamma 90.131626
loop_
_atom_site_label
_atom_site_type_symbol
_atom_site_fract_x
_atom_site_fract_y
_atom_site_fract_z
_atom_type_partial_charge
C0 C 0.09388 0.09027 0.42716 0.0
C1 C 0.08964 0.07873 0.43488 0.0
C2 C 0.06428 0.06252 0.42588 0.0
C3 C 0.07493 0.06501 0.43425 0.0
C4 C 0.06788 0.0749 0.41842 0.0
C5 C 0.0825 0.08854 0.41906 0.0
U6 U 0.13249 0.12436 0.43794 0.0
O7 O 0.16402 0.12427 0.43579 0.0
O8 O 0.147 0.14883 0.4315 0.0
C9 C 0.16423 0.14105 0.43195 0.0
C10 C 0.11114 0.10274 0.4269 0.0
C11 C 0.17747 0.14361 0.42392 0.0
C12 C 0.188 0.13703 0.40793 0.0
C13 C 0.17404 0.1355 0.41505 0.0
C14 C 0.20864 0.15517 0.41839 0.0
C15 C 0.20577 0.14647 0.40957 0.0
C16 C 0.19466 0.15376 0.42544 0.0
C17 C 0.13007 0.13659 0.46458 0.0
C18 C 0.15667 0.14286 0.47536 0.0
C19 C 0.12367 0.1438 0.48103 0.0
C20 C 0.11698 0.13977 0.47195 0.0
C21 C 0.14362 0.14459 0.48291 0.0
C22 C 0.14996 0.1389 0.46627 0.0
C23 C 0.12281 0.12825 0.45571 0.0
O24 O 0.10828 0.12101 0.42789 0.0
O25 O 0.12662 0.09676 0.43133 0.0
O26 O 0.13282 0.11394 0.45236 0.0
O27 O 0.11692 0.13988 0.44918 0.0
H28 H 0.09816 0.07982 0.44125 0.0
H29 H 0.07257 0.05577 0.44014 0.0
H30 H 0.05969 0.07375 0.41195 0.0
H31 H 0.0854 0.09732 0.41304 0.0
H32 H 0.18497 0.1305 0.40118 0.0
H33 H 0.16082 0.12769 0.41369 0.0
H34 H 0.22207 0.16238 0.42004 0.0
H35 H 0.19757 0.16016 0.43224 0.0
H36 H 0.17212 0.14364 0.47658 0.0
H37 H 0.11325 0.14492 0.48668 0.0
H38 H 0.10158 0.13801 0.47079 0.0
H39 H 0.16033 0.13661 0.46069 0.0
C40 C 0.94284 0.59526 0.67515 0.0
C41 C 0.94932 0.58956 0.684 0.0
C42 C 0.9675 0.56355 0.67685 0.0
C43 C 0.9616 0.574 0.68484 0.0
C44 C 0.96068 0.56919 0.668 0.0
C45 C 0.9485 0.58491 0.66717 0.0
U46 U 0.9101 0.63296 0.68581 0.0
O47 O 0.91123 0.66391 0.68489 0.0
O48 O 0.88528 0.64861 0.68008 0.0
C49 C 0.89395 0.66507 0.68109 0.0
C50 C 0.93098 0.61245 0.67417 0.0
C51 C 0.89182 0.67887 0.67351 0.0
C52 C 0.89215 0.68803 0.65713 0.0
C53 C 0.89389 0.67408 0.664 0.0
C54 C 0.88635 0.71155 0.66925 0.0
C55 C 0.88866 0.7071 0.65966 0.0
C56 C 0.88778 0.6976 0.67605 0.0
C57 C 0.89926 0.62865 0.71226 0.0
C58 C 0.89195 0.65447 0.72305 0.0
C59 C 0.89401 0.62244 0.72877 0.0
C60 C 0.89775 0.61593 0.71967 0.0
C61 C 0.89176 0.64187 0.73062 0.0
C62 C 0.89569 0.64791 0.71393 0.0
C63 C 0.90702 0.62181 0.70325 0.0
O64 O 0.91218 0.61024 0.67511 0.0
O65 O 0.93764 0.62744 0.67864 0.0
O66 O 0.92188 0.63135 0.70005 0.0
O67 O 0.89444 0.61709 0.6967 0.0
H68 H 0.94518 0.59737 0.69026 0.0
H69 H 0.96677 0.57046 0.69177 0.0
H70 H 0.96463 0.56142 0.66171 0.0
H71 H 0.94363 0.58909 0.66027 0.0
H72 H 0.89359 0.68377 0.64985 0.0
H73 H 0.89693 0.65964 0.66188 0.0
H74 H 0.88407 0.72593 0.67164 0.0
H75 H 0.8861 0.70156 0.68337 0.0
H76 H 0.88997 0.66948 0.72423 0.0
H77 H 0.89416 0.61236 0.73443 0.0
H78 H 0.90052 0.60103 0.71851 0.0
H79 H 0.89673 0.65795 0.70827 0.0
C80 C 0.38783 0.37705 0.9638 0.0
C81 C 0.40126 0.38781 0.969 0.0
C82 C 0.38988 0.3735 0.98354 0.0
C83 C 0.40229 0.38604 0.9788 0.0
C84 C 0.37678 0.36255 0.9782 0.0
C85 C 0.37583 0.36429 0.96846 0.0
U86 U 0.40046 0.39736 0.93941 0.0
O87 O 0.39623 0.38463 0.92537 0.0
O88 O 0.38053 0.41043 0.92941 0.0
C89 C 0.38321 0.39722 0.923 0.0
C90 C 0.38479 0.37976 0.95366 0.0
C91 C 0.36576 0.39009 0.9182 0.0
C92 C 0.33255 0.37851 0.91811 0.0
C93 C 0.34925 0.38399 0.92308 0.0
C94 C 0.34893 0.38501 0.90347 0.0
C95 C 0.33226 0.37898 0.90823 0.0
C96 C 0.36546 0.39044 0.9084 0.0
C97 C 0.44652 0.42955 0.93773 0.0
C98 C 0.45956 0.44748 0.92469 0.0
C99 C 0.47149 0.45304 0.94045 0.0
C100 C 0.45917 0.43909 0.94378 0.0
C101 C 0.47194 0.45766 0.93086 0.0
C102 C 0.4468 0.43365 0.92812 0.0
C103 C 0.43262 0.4165 0.94205 0.0
O104 O 0.38001 0.39692 0.95117 0.0
O105 O 0.39724 0.37168 0.94792 0.0
O106 O 0.43236 0.39883 0.9391 0.0
O107 O 0.41536 0.42339 0.9438 0.0
H108 H 0.41065 0.39779 0.96552 0.0
H109 H 0.41272 0.39453 0.98265 0.0
H110 H 0.36675 0.35301 0.98156 0.0
H111 H 0.36526 0.35599 0.96458 0.0
H112 H 0.31994 0.37385 0.92196 0.0
H113 H 0.34922 0.38367 0.93067 0.0
H114 H 0.3491 0.38595 0.89589 0.0
H115 H 0.37799 0.39528 0.90454 0.0
H116 H 0.45954 0.45022 0.91724 0.0
H117 H 0.48004 0.46064 0.94561 0.0
H118 H 0.45907 0.43619 0.95123 0.0
H119 H 0.43706 0.42641 0.92332 0.0
C120 C 0.60116 0.93925 0.17486 0.0
C121 C 0.60083 0.95039 0.18307 0.0
C122 C 0.57391 0.96886 0.17686 0.0
C123 C 0.58741 0.9651 0.18404 0.0
C124 C 0.57497 0.95821 0.16849 0.0
C125 C 0.58843 0.94354 0.16752 0.0
U126 U 0.63254 0.9004 0.18569 0.0
O127 O 0.63214 0.86984 0.18301 0.0
O128 O 0.65882 0.88598 0.1804 0.0
C129 C 0.65019 0.8694 0.18012 0.0
C130 C 0.61356 0.9223 0.17406 0.0
C131 C 0.65495 0.85611 0.17239 0.0
C132 C 0.64494 0.83477 0.15972 0.0
C133 C 0.64142 0.85066 0.16547 0.0
C134 C 0.67589 0.8304 0.16734 0.0
C135 C 0.66186 0.82403 0.16091 0.0
C136 C 0.67249 0.8463 0.17298 0.0
C137 C 0.63825 0.90346 0.21307 0.0
C138 C 0.65318 0.88163 0.22402 0.0
C139 C 0.63622 0.90924 0.22985 0.0
C140 C 0.63217 0.91455 0.22068 0.0
C141 C 0.64681 0.89273 0.23172 0.0
C142 C 0.64888 0.88693 0.21475 0.0
C143 C 0.63222 0.90942 0.20364 0.0
O144 O 0.63203 0.92454 0.17603 0.0
O145 O 0.6062 0.9069 0.17768 0.0
O146 O 0.61863 0.8993 0.19954 0.0
O147 O 0.64577 0.9151 0.19784 0.0
H148 H 0.61056 0.94738 0.18882 0.0
H149 H 0.58728 0.97324 0.19052 0.0
H150 H 0.56478 0.96057 0.16285 0.0
H151 H 0.58844 0.9351 0.16113 0.0
H152 H 0.63386 0.83012 0.15482 0.0
H153 H 0.62773 0.85797 0.16489 0.0
H154 H 0.6891 0.82247 0.16836 0.0
H155 H 0.6831 0.85018 0.17828 0.0
H156 H 0.66147 0.8689 0.22514 0.0
H157 H 0.63047 0.91795 0.23547 0.0
H158 H 0.62381 0.92725 0.21953 0.0
H159 H 0.65366 0.87812 0.20895 0.0
C160 C 0.08776 0.43918 0.85484 0.0
C161 C 0.07571 0.43869 0.84692 0.0
C162 C 0.05783 0.46583 0.85313 0.0
C163 C 0.06073 0.4519 0.8461 0.0
C164 C 0.06946 0.46557 0.8612 0.0
C165 C 0.08423 0.45236 0.86203 0.0
U166 U 0.13145 0.40635 0.84756 0.0
O167 O 0.16061 0.4119 0.85329 0.0
O168 O 0.14505 0.38516 0.85665 0.0
C169 C 0.16045 0.39586 0.85784 0.0
C170 C 0.1051 0.42746 0.85574 0.0
C171 C 0.17678 0.38994 0.86362 0.0
C172 C 0.20129 0.39708 0.87532 0.0
C173 C 0.18461 0.40218 0.87043 0.0
C174 C 0.20197 0.36724 0.86681 0.0
C175 C 0.21041 0.37968 0.87342 0.0
C176 C 0.18528 0.37233 0.86197 0.0
C177 C 0.13373 0.39156 0.82005 0.0
C178 C 0.1555 0.38982 0.80663 0.0
C179 C 0.12091 0.38698 0.8043 0.0
C180 C 0.11806 0.38841 0.81398 0.0
C181 C 0.13957 0.38832 0.80052 0.0
C182 C 0.15262 0.39154 0.81637 0.0
C183 C 0.12924 0.3983 0.82963 0.0
O184 O 0.1034 0.40902 0.85489 0.0
O185 O 0.12093 0.43422 0.85196 0.0
O186 O 0.13819 0.41333 0.83298 0.0
O187 O 0.12198 0.38704 0.83602 0.0
H188 H 0.07822 0.42857 0.8413 0.0
H189 H 0.0518 0.45157 0.83985 0.0
H190 H 0.06789 0.4762 0.86666 0.0
H191 H 0.09349 0.45294 0.86817 0.0
H192 H 0.20742 0.40711 0.88029 0.0
H193 H 0.17808 0.41582 0.87182 0.0
H194 H 0.20837 0.35361 0.86528 0.0
H195 H 0.17936 0.36275 0.85672 0.0
H196 H 0.17 0.39112 0.80383 0.0
H197 H 0.1084 0.38617 0.79972 0.0
H198 H 0.10339 0.38858 0.81666 0.0
H199 H 0.16495 0.39402 0.82092 0.0
C200 C 0.60063 0.59334 0.10759 0.0
C201 C 0.59361 0.58762 0.09877 0.0
C202 C 0.5759 0.56143 0.10584 0.0
C203 C 0.58131 0.57198 0.09791 0.0
C204 C 0.58335 0.56703 0.11465 0.0
C205 C 0.59554 0.58284 0.11551 0.0
U206 U 0.63273 0.63171 0.09713 0.0
O207 O 0.63191 0.66257 0.09892 0.0
O208 O 0.65817 0.64698 0.10276 0.0
C209 C 0.64961 0.66351 0.10227 0.0
C210 C 0.61245 0.61069 0.10865 0.0
C211 C 0.65306 0.6772 0.10996 0.0
C212 C 0.64776 0.68954 0.12574 0.0
C213 C 0.64492 0.67532 0.11891 0.0
C214 C 0.66701 0.70736 0.11474 0.0
C215 C 0.65864 0.70587 0.12368 0.0
C216 C 0.66425 0.69319 0.10798 0.0
C217 C 0.64234 0.62581 0.07021 0.0
C218 C 0.65657 0.64798 0.0592 0.0
C219 C 0.64364 0.61806 0.05362 0.0
C220 C 0.63882 0.61324 0.06277 0.0
C221 C 0.65216 0.63561 0.05169 0.0
C222 C 0.65156 0.64314 0.06844 0.0
C223 C 0.63491 0.62061 0.07951 0.0
O224 O 0.63121 0.6087 0.10745 0.0
O225 O 0.6055 0.62567 0.10447 0.0
O226 O 0.62071 0.63097 0.08285 0.0
O227 O 0.64761 0.61574 0.0859 0.0
H228 H 0.59732 0.59551 0.09255 0.0
H229 H 0.57567 0.56851 0.09101 0.0
H230 H 0.57984 0.5592 0.1209 0.0
H231 H 0.60084 0.587 0.12238 0.0
H232 H 0.641 0.68799 0.13254 0.0
H233 H 0.63618 0.66309 0.12056 0.0
H234 H 0.67575 0.71951 0.11295 0.0
H235 H 0.67068 0.69486 0.10111 0.0
H236 H 0.66309 0.66162 0.05789 0.0
H237 H 0.64026 0.60819 0.04798 0.0
H238 H 0.63176 0.59981 0.06399 0.0
H239 H 0.65438 0.65306 0.07413 0.0
C240 C 0.38872 0.15236 0.32014 0.0
C241 C 0.40706 0.14958 0.31609 0.0
C242 C 0.39344 0.15447 0.30051 0.0
C243 C 0.40943 0.1508 0.30632 0.0
C244 C 0.37519 0.15713 0.30459 0.0
C245 C 0.37289 0.15619 0.31431 0.0
U246 U 0.4004 0.13566 0.34535 0.0
O247 O 0.39557 0.15084 0.35881 0.0
O248 O 0.38049 0.12415 0.35584 0.0
C249 C 0.38261 0.13854 0.36165 0.0
C250 C 0.38534 0.15124 0.33035 0.0
C251 C 0.36449 0.14595 0.3658 0.0
C252 C 0.33091 0.15585 0.36418 0.0
C253 C 0.34923 0.15257 0.36022 0.0
C254 C 0.34329 0.14734 0.37945 0.0
C255 C 0.32768 0.15273 0.37379 0.0
C256 C 0.36152 0.14396 0.37549 0.0
C257 C 0.44665 0.10301 0.34744 0.0
C258 C 0.4578 0.08152 0.35953 0.0
C259 C 0.47506 0.0835 0.34481 0.0
C260 C 0.46213 0.09724 0.34177 0.0
C261 C 0.47289 0.07514 0.35364 0.0
C262 C 0.44466 0.09529 0.35643 0.0
C263 C 0.43219 0.11567 0.34323 0.0
O264 O 0.38007 0.13462 0.33346 0.0
O265 O 0.3978 0.15995 0.3359 0.0
O266 O 0.43235 0.13365 0.34566 0.0
O267 O 0.41471 0.10876 0.34199 0.0
H268 H 0.41948 0.14651 0.32045 0.0
H269 H 0.42364 0.14868 0.30329 0.0
H270 H 0.36272 0.16015 0.30024 0.0
H271 H 0.35865 0.15843 0.31729 0.0
H272 H 0.31899 0.15971 0.35966 0.0
H273 H 0.35116 0.15414 0.35272 0.0
H274 H 0.34106 0.14441 0.38681 0.0
H275 H 0.37303 0.13871 0.37991 0.0
H276 H 0.45574 0.0754 0.36639 0.0
H277 H 0.48672 0.07928 0.34017 0.0
H278 H 0.46393 0.10302 0.33482 0.0
H279 H 0.43274 0.09951 0.36091 0.0
C280 C 0.94089 0.93825 0.60842 0.0
C281 C 0.94404 0.94653 0.59966 0.0
C282 C 0.96907 0.96694 0.60644 0.0
C283 C 0.95796 0.96077 0.59868 0.0
C284 C 0.96506 0.95935 0.6153 0.0
C285 C 0.95113 0.94507 0.61626 0.0
U286 U 0.9086 0.89963 0.59771 0.0
O287 O 0.90902 0.86904 0.59978 0.0
O288 O 0.88284 0.88509 0.60342 0.0
C289 C 0.89148 0.86855 0.60333 0.0
C290 C 0.92841 0.92143 0.60933 0.0
C291 C 0.88868 0.85605 0.61144 0.0
C292 C 0.90237 0.83783 0.62421 0.0
C293 C 0.90337 0.85321 0.61811 0.0
C294 C 0.87127 0.82901 0.61764 0.0
C295 C 0.88663 0.82526 0.62377 0.0
C296 C 0.8723 0.8443 0.61153 0.0
C297 C 0.90175 0.90251 0.57045 0.0
C298 C 0.88535 0.88096 0.55961 0.0
C299 C 0.90448 0.90686 0.55364 0.0
C300 C 0.9088 0.91258 0.56279 0.0
C301 C 0.89276 0.89092 0.55185 0.0
C302 C 0.88988 0.88667 0.56884 0.0
C303 C 0.90807 0.90869 0.57987 0.0
O304 O 0.90987 0.92379 0.60762 0.0
O305 O 0.93538 0.90596 0.60547 0.0
O306 O 0.92193 0.89876 0.58372 0.0
O307 O 0.8947 0.91415 0.58587 0.0
H308 H 0.93623 0.94152 0.59352 0.0
H309 H 0.96045 0.96657 0.59179 0.0
H310 H 0.97338 0.96369 0.6214 0.0
H311 H 0.94891 0.93883 0.62308 0.0
H312 H 0.91449 0.83501 0.62881 0.0
H313 H 0.91618 0.86205 0.61817 0.0
H314 H 0.85918 0.81928 0.61707 0.0
H315 H 0.8609 0.84613 0.60639 0.0
H316 H 0.87613 0.86874 0.55856 0.0
H317 H 0.91096 0.91468 0.54797 0.0
H318 H 0.91811 0.92474 0.56389 0.0
H319 H 0.88433 0.87866 0.57469 0.0
C320 C 0.59325 0.59147 0.92602 0.0
C321 C 0.58473 0.58502 0.93434 0.0
C322 C 0.56203 0.56546 0.92526 0.0
C323 C 0.56923 0.57213 0.93397 0.0
C324 C 0.5706 0.57224 0.917 0.0
C325 C 0.58594 0.58509 0.91739 0.0
U326 U 0.63179 0.62375 0.93785 0.0
O327 O 0.66314 0.62447 0.93551 0.0
O328 O 0.64567 0.64951 0.93241 0.0
C329 C 0.66294 0.64178 0.9323 0.0
C330 C 0.61033 0.60405 0.92601 0.0
C331 C 0.67516 0.64514 0.92405 0.0
C332 C 0.68597 0.63699 0.90832 0.0
C333 C 0.67222 0.63556 0.9155 0.0
C334 C 0.70516 0.65818 0.91805 0.0
C335 C 0.70296 0.6478 0.90965 0.0
C336 C 0.69137 0.65686 0.92516 0.0
C337 C 0.62958 0.63023 0.96506 0.0
C338 C 0.6499 0.64886 0.97569 0.0
C339 C 0.62733 0.62592 0.98183 0.0
C340 C 0.62136 0.62135 0.97278 0.0
C341 C 0.64146 0.63994 0.9835 0.0
C342 C 0.64404 0.64398 0.9665 0.0
C343 C 0.62289 0.62392 0.95573 0.0
O344 O 0.60728 0.622 0.92794 0.0
O345 O 0.62598 0.5974 0.93002 0.0
O346 O 0.63318 0.61057 0.95169 0.0
O347 O 0.61666 0.6368 0.94989 0.0
H348 H 0.59019 0.58977 0.9411 0.0
H349 H 0.5629 0.56743 0.94048 0.0
H350 H 0.56584 0.56723 0.91017 0.0
H351 H 0.5924 0.58979 0.91089 0.0
H352 H 0.68362 0.6291 0.90187 0.0
H353 H 0.65974 0.62647 0.91451 0.0
H354 H 0.71808 0.66646 0.9194 0.0
H355 H 0.69386 0.66431 0.93173 0.0
H356 H 0.66083 0.65969 0.97666 0.0
H357 H 0.62094 0.61807 0.98752 0.0
H358 H 0.61039 0.61054 0.97179 0.0
H359 H 0.65072 0.65088 0.96058 0.0
C360 C 0.4432 0.09471 0.17576 0.0
C361 C 0.45022 0.08952 0.18459 0.0
C362 C 0.46839 0.06332 0.17756 0.0
C363 C 0.46277 0.07418 0.18547 0.0
C364 C 0.46093 0.06841 0.16873 0.0
C365 C 0.44853 0.08398 0.16785 0.0
U366 U 0.41087 0.1329 0.18642 0.0
O367 O 0.41174 0.16374 0.18492 0.0
O368 O 0.38551 0.14804 0.18087 0.0
C369 C 0.3941 0.1646 0.18151 0.0
C370 C 0.43118 0.11182 0.17474 0.0
C371 C 0.3909 0.17811 0.17389 0.0
C372 C 0.39548 0.18928 0.15796 0.0
C373 C 0.39808 0.17531 0.16477 0.0
C374 C 0.37841 0.20872 0.16932 0.0
C375 C 0.38581 0.20627 0.16022 0.0
C376 C 0.38091 0.19479 0.17606 0.0
C377 C 0.40138 0.12896 0.21321 0.0
C378 C 0.39288 0.1541 0.22422 0.0
C379 C 0.39722 0.12219 0.22976 0.0
C380 C 0.40102 0.11609 0.22059 0.0
C381 C 0.39366 0.14138 0.23176 0.0
C382 C 0.39676 0.14795 0.21502 0.0
C383 C 0.40878 0.12247 0.20404 0.0
O384 O 0.41245 0.10962 0.17598 0.0
O385 O 0.43802 0.12704 0.17895 0.0
O386 O 0.4232 0.13232 0.2006 0.0
O387 O 0.39598 0.11733 0.19767 0.0
H388 H 0.44635 0.09761 0.19081 0.0
H389 H 0.46843 0.07124 0.19238 0.0
H390 H 0.46457 0.06037 0.16247 0.0
H391 H 0.44326 0.08776 0.16096 0.0
H392 H 0.40143 0.187 0.15102 0.0
H393 H 0.40589 0.16252 0.16297 0.0
H394 H 0.37061 0.22143 0.17125 0.0
H395 H 0.37522 0.19717 0.18305 0.0
H396 H 0.38985 0.16892 0.22546 0.0
H397 H 0.39818 0.11199 0.23534 0.0
H398 H 0.40461 0.10138 0.21934 0.0
H399 H 0.39688 0.15811 0.20939 0.0
C400 C 0.88815 0.87719 0.46327 0.0
C401 C 0.90022 0.88942 0.46847 0.0
C402 C 0.89052 0.87407 0.48304 0.0
C403 C 0.90137 0.88788 0.47829 0.0
C404 C 0.87883 0.86168 0.47771 0.0
C405 C 0.8777 0.86323 0.46797 0.0
U406 U 0.90024 0.89538 0.43828 0.0
O407 O 0.89542 0.88066 0.4247 0.0
O408 O 0.88036 0.90719 0.42787 0.0
C409 C 0.88249 0.89301 0.42194 0.0
C410 C 0.88501 0.87923 0.45308 0.0
C411 C 0.86441 0.88564 0.4177 0.0
C412 C 0.83087 0.87539 0.41914 0.0
C413 C 0.84914 0.87871 0.42319 0.0
C414 C 0.84336 0.88451 0.40399 0.0
C415 C 0.82773 0.8788 0.40956 0.0
C416 C 0.86153 0.88789 0.40803 0.0
C417 C 0.94668 0.92773 0.43622 0.0
C418 C 0.95783 0.94891 0.42399 0.0
C419 C 0.97499 0.94753 0.43878 0.0
C420 C 0.9621 0.93378 0.44189 0.0
C421 C 0.97282 0.95559 0.42989 0.0
C422 C 0.94472 0.93514 0.42716 0.0
C423 C 0.93227 0.91508 0.44049 0.0
O424 O 0.88016 0.89614 0.45022 0.0
O425 O 0.89731 0.87063 0.44746 0.0
O426 O 0.93219 0.89715 0.43797 0.0
O427 O 0.91489 0.92207 0.44182 0.0
H428 H 0.90845 0.90031 0.46498 0.0
H429 H 0.91072 0.89751 0.48215 0.0
H430 H 0.87002 0.85108 0.48109 0.0
H431 H 0.86821 0.85374 0.46409 0.0
H432 H 0.81891 0.87133 0.42359 0.0
H433 H 0.85102 0.87693 0.43067 0.0
H434 H 0.84117 0.88768 0.39665 0.0
H435 H 0.87306 0.89336 0.40368 0.0
H436 H 0.95582 0.95482 0.41708 0.0
H437 H 0.98658 0.95201 0.44343 0.0
H438 H 0.96387 0.92823 0.44889 0.0
H439 H 0.93286 0.93068 0.42268 0.0
C440 C 0.10393 0.4451 0.68188 0.0
C441 C 0.10267 0.46151 0.68743 0.0
C442 C 0.07457 0.47195 0.67864 0.0
C443 C 0.08812 0.47472 0.68587 0.0
C444 C 0.07684 0.45641 0.67249 0.0
C445 C 0.09138 0.44291 0.67415 0.0
U446 U 0.13496 0.39759 0.6855 0.0
O447 O 0.12429 0.37683 0.67512 0.0
O448 O 0.15273 0.39008 0.67314 0.0
C449 C 0.14018 0.37743 0.67009 0.0
C450 C 0.11579 0.42956 0.68564 0.0
C451 C 0.14756 0.35895 0.6667 0.0
C452 C 0.14368 0.33289 0.65563 0.0
C453 C 0.13786 0.3504 0.65915 0.0
C454 C 0.16952 0.33198 0.66708 0.0
C455 C 0.15967 0.32337 0.65946 0.0
C456 C 0.16349 0.34963 0.67069 0.0
C457 C 0.148 0.38901 0.71174 0.0
C458 C 0.15842 0.37999 0.72736 0.0
C459 C 0.13817 0.40749 0.72541 0.0
C460 C 0.13818 0.40451 0.71565 0.0
C461 C 0.14826 0.39521 0.73147 0.0
C462 C 0.15811 0.37688 0.71766 0.0
C463 C 0.14764 0.38459 0.7016 0.0
O464 O 0.13454 0.42882 0.68409 0.0
O465 O 0.10756 0.413 0.68675 0.0
O466 O 0.13072 0.38011 0.69799 0.0
O467 O 0.15802 0.39548 0.69614 0.0
H468 H 0.11204 0.4634 0.69347 0.0
H469 H 0.08661 0.48648 0.69074 0.0
H470 H 0.06647 0.45393 0.66691 0.0
H471 H 0.09203 0.43031 0.66979 0.0
H472 H 0.13523 0.32667 0.64999 0.0
H473 H 0.12548 0.35725 0.656 0.0
H474 H 0.18192 0.32518 0.67022 0.0
H475 H 0.17122 0.35593 0.67656 0.0
H476 H 0.16683 0.3704 0.73157 0.0
H477 H 0.12981 0.41921 0.72814 0.0
H478 H 0.13024 0.41407 0.71119 0.0
H479 H 0.16582 0.36485 0.71477 0.0
C480 C 0.59457 0.94123 0.35654 0.0
C481 C 0.59043 0.95288 0.34886 0.0
C482 C 0.56486 0.96879 0.35779 0.0
C483 C 0.57568 0.96651 0.34948 0.0
C484 C 0.56838 0.9563 0.36522 0.0
C485 C 0.58306 0.94277 0.3646 0.0
U486 U 0.63309 0.90767 0.3455 0.0
O487 O 0.66456 0.90725 0.34778 0.0
O488 O 0.64711 0.88259 0.35159 0.0
C489 C 0.66445 0.89026 0.3514 0.0
C490 C 0.61177 0.92871 0.35679 0.0
C491 C 0.67729 0.88736 0.35955 0.0
C492 C 0.68833 0.89515 0.37534 0.0
C493 C 0.67443 0.89661 0.36819 0.0
C494 C 0.70771 0.87472 0.36542 0.0
C495 C 0.70551 0.88467 0.37395 0.0
C496 C 0.69375 0.87605 0.35834 0.0
C497 C 0.62863 0.89802 0.31838 0.0
C498 C 0.64967 0.88062 0.30763 0.0
C499 C 0.62286 0.89883 0.30159 0.0
C500 C 0.61772 0.90406 0.31071 0.0
C501 C 0.639 0.88728 0.29993 0.0
C502 C 0.64459 0.88609 0.31684 0.0
C503 C 0.62315 0.90542 0.32771 0.0
O504 O 0.6088 0.91051 0.35551 0.0
O505 O 0.62741 0.93486 0.35255 0.0
O506 O 0.63409 0.91895 0.33121 0.0
O507 O 0.61723 0.89329 0.33401 0.0
H508 H 0.59904 0.95193 0.34253 0.0
H509 H 0.57341 0.97582 0.34361 0.0
H510 H 0.56006 0.95726 0.37164 0.0
H511 H 0.58586 0.93389 0.37059 0.0
H512 H 0.68577 0.90262 0.38189 0.0
H513 H 0.66177 0.90533 0.36931 0.0
H514 H 0.72067 0.86665 0.36398 0.0
H515 H 0.69621 0.86878 0.35171 0.0
H516 H 0.66221 0.87174 0.30651 0.0
H517 H 0.61429 0.90401 0.2958 0.0
H518 H 0.60535 0.91322 0.31175 0.0
H519 H 0.65324 0.88132 0.32269 0.0
C520 C 0.09834 0.0942 0.60733 0.0
C521 C 0.09322 0.08679 0.5985 0.0
C522 C 0.07385 0.06214 0.60589 0.0
C523 C 0.08106 0.071 0.59779 0.0
C524 C 0.07932 0.06951 0.61473 0.0
C525 C 0.09142 0.08538 0.61542 0.0
U526 U 0.13062 0.13213 0.59654 0.0
O527 O 0.13106 0.16294 0.59865 0.0
O528 O 0.15684 0.14621 0.60208 0.0
C529 C 0.1489 0.16306 0.60185 0.0
C530 C 0.11036 0.1114 0.60819 0.0
C531 C 0.15322 0.17638 0.6096 0.0
C532 C 0.15162 0.18709 0.62589 0.0
C533 C 0.14787 0.17322 0.61896 0.0
C534 C 0.16629 0.20699 0.61415 0.0
C535 C 0.16061 0.20429 0.62351 0.0
C536 C 0.16261 0.19323 0.60731 0.0
C537 C 0.13961 0.12639 0.5695 0.0
C538 C 0.14789 0.14867 0.55719 0.0
C539 C 0.14865 0.11501 0.554 0.0
C540 C 0.14304 0.11149 0.5632 0.0
C541 C 0.15111 0.13361 0.55084 0.0
C542 C 0.14222 0.14508 0.56649 0.0
C543 C 0.13185 0.12157 0.57882 0.0
O544 O 0.12901 0.1091 0.6068 0.0
O545 O 0.10345 0.12642 0.60402 0.0
O546 O 0.11831 0.13257 0.58232 0.0
O547 O 0.14428 0.11566 0.58512 0.0
H548 H 0.09839 0.09339 0.59216 0.0
H549 H 0.07698 0.06601 0.59085 0.0
H550 H 0.07436 0.06297 0.62112 0.0
H551 H 0.09528 0.09086 0.6223 0.0
H552 H 0.14699 0.1846 0.63302 0.0
H553 H 0.14058 0.16026 0.62087 0.0
H554 H 0.17355 0.21986 0.61208 0.0
H555 H 0.16693 0.19589 0.60013 0.0
H556 H 0.14974 0.16314 0.55498 0.0
H557 H 0.15057 0.10307 0.54928 0.0
H558 H 0.1409 0.09699 0.56534 0.0
H559 H 0.13959 0.15683 0.57125 0.0
C560 C 0.8945 0.65018 0.81855 0.0
C561 C 0.91282 0.65063 0.81432 0.0
C562 C 0.89749 0.65332 0.79898 0.0
C563 C 0.91429 0.65225 0.80455 0.0
C564 C 0.8793 0.65273 0.8033 0.0
C565 C 0.87785 0.65121 0.81298 0.0
U566 U 0.89979 0.63964 0.84583 0.0
O567 O 0.88993 0.65991 0.85679 0.0
O568 O 0.87365 0.63322 0.85389 0.0
C569 C 0.87479 0.64925 0.85857 0.0
C570 C 0.89157 0.64993 0.82872 0.0
C571 C 0.86109 0.65349 0.86606 0.0
C572 C 0.83025 0.66773 0.87008 0.0
C573 C 0.84713 0.66754 0.86467 0.0
C574 C 0.84225 0.64106 0.87886 0.0
C575 C 0.82732 0.65386 0.87689 0.0
C576 C 0.85897 0.64077 0.87342 0.0
C577 C 0.94429 0.60461 0.85239 0.0
C578 C 0.95458 0.57354 0.85747 0.0
C579 C 0.9779 0.59543 0.851 0.0
C580 C 0.96344 0.609 0.85006 0.0
C581 C 0.97343 0.57734 0.85436 0.0
C582 C 0.94006 0.58707 0.85643 0.0
C583 C 0.92857 0.61759 0.84993 0.0
O584 O 0.88507 0.63424 0.8324 0.0
O585 O 0.90336 0.65962 0.83421 0.0
O586 O 0.93052 0.6361 0.84996 0.0
O587 O 0.91146 0.61109 0.84746 0.0
H588 H 0.92584 0.64993 0.81854 0.0
H589 H 0.92848 0.6526 0.80133 0.0
H590 H 0.86615 0.65383 0.79919 0.0
H591 H 0.8636 0.65116 0.81616 0.0
H592 H 0.81887 0.67762 0.86838 0.0
H593 H 0.84845 0.67722 0.85888 0.0
H594 H 0.84033 0.63035 0.88415 0.0
H595 H 0.86956 0.62973 0.8745 0.0
H596 H 0.95077 0.55969 0.86005 0.0
H597 H 0.99239 0.59869 0.8486 0.0
H598 H 0.96704 0.62249 0.847 0.0
H599 H 0.92537 0.58352 0.8584 0.0
C600 C 0.4429 0.43733 0.1089 0.0
C601 C 0.44385 0.44746 0.10051 0.0
C602 C 0.47059 0.4665 0.10676 0.0
C603 C 0.4575 0.46196 0.09947 0.0
C604 C 0.46887 0.45691 0.11531 0.0
C605 C 0.45519 0.44244 0.11635 0.0
U606 U 0.41053 0.3986 0.09819 0.0
O607 O 0.41109 0.36802 0.10046 0.0
O608 O 0.38465 0.38405 0.10375 0.0
C609 C 0.39329 0.36751 0.10369 0.0
C610 C 0.43045 0.42044 0.10975 0.0
C611 C 0.3892 0.35433 0.11142 0.0
C612 C 0.40022 0.33306 0.12365 0.0
C613 C 0.40341 0.34876 0.1179 0.0
C614 C 0.3683 0.3291 0.11689 0.0
C615 C 0.38292 0.32261 0.12289 0.0
C616 C 0.3714 0.34481 0.11125 0.0
C617 C 0.40302 0.40177 0.07095 0.0
C618 C 0.38507 0.38141 0.06013 0.0
C619 C 0.40619 0.40576 0.05414 0.0
C620 C 0.41083 0.41124 0.06329 0.0
C621 C 0.39326 0.39074 0.05235 0.0
C622 C 0.39 0.38681 0.06936 0.0
C623 C 0.40959 0.40777 0.08037 0.0
O624 O 0.41186 0.42272 0.10812 0.0
O625 O 0.43743 0.40502 0.10584 0.0
O626 O 0.42351 0.39775 0.08412 0.0
O627 O 0.3964 0.41324 0.08645 0.0
H628 H 0.43447 0.44379 0.09467 0.0
H629 H 0.45815 0.46929 0.09285 0.0
H630 H 0.47874 0.4599 0.12105 0.0
H631 H 0.4547 0.43476 0.12287 0.0
H632 H 0.41175 0.32834 0.12821 0.0
H633 H 0.4173 0.35586 0.11815 0.0
H634 H 0.35477 0.32144 0.11622 0.0
H635 H 0.36026 0.34879 0.1063 0.0
H636 H 0.37488 0.36993 0.05912 0.0
H637 H 0.41337 0.41306 0.0485 0.0
H638 H 0.42099 0.42276 0.06437 0.0
H639 H 0.38381 0.37928 0.07521 0.0
H640 H 0.13634 0.15979 0.53842 0.0
H641 H 0.17787 0.11414 0.54058 0.0
H642 H 0.183 0.1149 0.52353 0.0
H643 H 0.11364 0.14594 0.51847 0.0
H644 H 0.11137 0.16871 0.51304 0.0
H645 H 0.11321 0.16717 0.52559 0.0
H646 H 0.14285 0.18956 0.52556 0.0
H647 H 0.14097 0.19138 0.51298 0.0
H648 H 0.16336 0.18396 0.51826 0.0
H649 H 0.18062 0.11727 0.50639 0.0
H650 H 0.17119 0.12149 0.48993 0.0
H651 H 0.1314 0.16592 0.49828 0.0
C652 C 0.14698 0.1504 0.53534 0.0
C653 C 0.15656 0.13676 0.54085 0.0
C654 C 0.17014 0.12452 0.53651 0.0
C655 C 0.17329 0.12494 0.52682 0.0
C656 C 0.16309 0.13796 0.52154 0.0
C657 C 0.15045 0.15073 0.52562 0.0
C658 C 0.14051 0.16241 0.51815 0.0
C659 C 0.11836 0.16095 0.51886 0.0
C660 C 0.14732 0.18306 0.51878 0.0
C661 C 0.14814 0.15294 0.50928 0.0
C662 C 0.1617 0.13937 0.51145 0.0
C663 C 0.17035 0.12815 0.50457 0.0
C664 C 0.16494 0.13071 0.49522 0.0
C665 C 0.15076 0.14421 0.49277 0.0
C666 C 0.14239 0.1556 0.49992 0.0
H667 H 0.87288 0.62691 0.74588 0.0
H668 H 0.91134 0.67241 0.73772 0.0
H669 H 0.91567 0.6814 0.75433 0.0
H670 H 0.85094 0.65225 0.76626 0.0
H671 H 0.84976 0.63104 0.77311 0.0
H672 H 0.84771 0.62963 0.76052 0.0
H673 H 0.87625 0.60592 0.76002 0.0
H674 H 0.87852 0.60743 0.77258 0.0
H675 H 0.89908 0.61254 0.76526 0.0
H676 H 0.91947 0.68272 0.77181 0.0
H677 H 0.91918 0.6785 0.78905 0.0
H678 H 0.87804 0.63256 0.78577 0.0
C679 C 0.88194 0.63897 0.74757 0.0
C680 C 0.89172 0.64898 0.74047 0.0
C681 C 0.90342 0.66471 0.743 0.0
C682 C 0.90611 0.66985 0.75243 0.0
C683 C 0.89686 0.65926 0.75925 0.0
C684 C 0.88471 0.64438 0.75695 0.0
C685 C 0.87712 0.63485 0.76565 0.0
C686 C 0.85507 0.63708 0.76643 0.0
C687 C 0.88311 0.61395 0.76588 0.0
C688 C 0.88744 0.64624 0.77317 0.0
C689 C 0.89874 0.66029 0.76935 0.0
C690 C 0.91045 0.67195 0.77491 0.0
C691 C 0.91036 0.66934 0.78465 0.0
C692 C 0.89857 0.65526 0.78869 0.0
C693 C 0.88702 0.64358 0.78285 0.0
H694 H 0.39476 0.4022 0.99664 0.0
H695 H 0.38505 0.34172 0.99422 0.0
H696 H 0.38263 0.33973 1.01144 0.0
H697 H 0.42464 0.39958 0.0176 0.0
H698 H 0.41538 0.42138 0.02243 0.0
H699 H 0.41632 0.41788 1.0099 0.0
H700 H 0.37959 0.42501 1.00887 0.0
H701 H 0.37846 0.4282 0.02141 0.0
H702 H 0.36283 0.41123 1.01566 0.0
H703 H 0.38197 0.34428 0.02911 0.0
H704 H 0.3848 0.35475 0.0456 0.0
H705 H 0.39307 0.41249 0.03631 0.0
C706 C 0.39236 0.38847 0.9997 0.0
C707 C 0.38993 0.37215 0.994 0.0
C708 C 0.38661 0.35453 0.99838 0.0
C709 C 0.38528 0.35322 1.00818 0.0
C710 C 0.38738 0.36962 1.01356 0.0
C711 C 0.39101 0.38688 1.00948 0.0
C712 C 0.39307 0.4023 0.01685 0.0
C713 C 0.41357 0.41079 1.01668 0.0
C714 C 0.37755 0.41759 1.01562 0.0
C715 C 0.38979 0.39111 0.02569 0.0
C716 C 0.38668 0.37226 0.02367 0.0
C717 C 0.38429 0.35907 0.03077 0.0
C718 C 0.38573 0.36524 0.04016 0.0
C719 C 0.38935 0.38451 0.04242 0.0
C720 C 0.39078 0.39758 0.03498 0.0
H721 H 0.65281 0.91606 0.24702 0.0
H722 H 0.64842 0.85675 0.23922 0.0
H723 H 0.65012 0.84828 0.25598 0.0
H724 H 0.68324 0.91157 0.26778 0.0
H725 H 0.66999 0.92956 0.27409 0.0
H726 H 0.67184 0.9305 0.26149 0.0
H727 H 0.63437 0.9314 0.26019 0.0
H728 H 0.63242 0.93044 0.27275 0.0
H729 H 0.62029 0.91298 0.26555 0.0
H730 H 0.64919 0.84679 0.27413 0.0
H731 H 0.6441 0.85271 0.29119 0.0
H732 H 0.64627 0.91296 0.28644 0.0
C733 C 0.65224 0.90123 0.24874 0.0
C734 C 0.65034 0.88713 0.24168 0.0
C735 C 0.65013 0.8679 0.24441 0.0
C736 C 0.65098 0.86293 0.25395 0.0
C737 C 0.65201 0.87733 0.26071 0.0
C738 C 0.65262 0.89608 0.25817 0.0
C739 C 0.65171 0.90909 0.26662 0.0
C740 C 0.67031 0.92088 0.26755 0.0
C741 C 0.63362 0.92171 0.26625 0.0
C742 C 0.65021 0.89484 0.27438 0.0
C743 C 0.65073 0.87654 0.27092 0.0
C744 C 0.64892 0.8611 0.27688 0.0
C745 C 0.64611 0.86455 0.28655 0.0
C746 C 0.64482 0.88328 0.29009 0.0
C747 C 0.64725 0.8985 0.28391 0.0
H748 H 0.15005 0.36434 0.78584 0.0
H749 H 0.13323 0.42182 0.79259 0.0
H750 H 0.1355 0.43022 0.77585 0.0
H751 H 0.1839 0.37677 0.76679 0.0
H752 H 0.1774 0.35671 0.75955 0.0
H753 H 0.17592 0.35517 0.77215 0.0
H754 H 0.13988 0.34537 0.77091 0.0
H755 H 0.14132 0.34665 0.75832 0.0
H756 H 0.12326 0.36015 0.76457 0.0
H757 H 0.14003 0.43268 0.75862 0.0
H758 H 0.14297 0.4285 0.74161 0.0
H759 H 0.15334 0.36845 0.74557 0.0
C760 C 0.14709 0.3787 0.78375 0.0
C761 C 0.14173 0.39259 0.79045 0.0
C762 C 0.13758 0.41114 0.78751 0.0
C763 C 0.13887 0.41603 0.77805 0.0
C764 C 0.14424 0.40216 0.77158 0.0
C765 C 0.14814 0.38383 0.77425 0.0
C766 C 0.15268 0.37157 0.76572 0.0
C767 C 0.17373 0.36464 0.76607 0.0
C768 C 0.13842 0.35495 0.76483 0.0
C769 C 0.14991 0.3857 0.75789 0.0
C770 C 0.14564 0.40334 0.76147 0.0
C771 C 0.14305 0.41883 0.7557 0.0
C772 C 0.1445 0.41619 0.74596 0.0
C773 C 0.14796 0.39803 0.74197 0.0
C774 C 0.15086 0.38264 0.74816 0.0
H775 H 0.61818 0.63962 0.99902 0.0
H776 H 0.67743 0.65086 0.99064 0.0
H777 H 0.68656 0.65466 1.00739 0.0
H778 H 0.61507 0.66823 0.01981 0.0
H779 H 0.60165 0.65048 0.02605 0.0
H780 H 0.59962 0.65195 1.01348 0.0
H781 H 0.60977 0.61675 1.01185 0.0
H782 H 0.61187 0.61517 0.0244 0.0
H783 H 0.63219 0.60914 0.01705 0.0
H784 H 0.68911 0.65465 0.02575 0.0
H785 H 0.68505 0.649 0.04286 0.0
H786 H 0.62492 0.63442 0.03811 0.0
C787 C 0.63316 0.64282 1.00059 0.0
C788 C 0.64707 0.64469 0.99341 0.0
C789 C 0.66636 0.6495 0.99595 0.0
C790 C 0.67172 0.65157 1.00547 0.0
C791 C 0.65767 0.64866 1.01236 0.0
C792 C 0.63883 0.64427 1.00994 0.0
C793 C 0.62675 0.63959 0.01839 0.0
C794 C 0.60977 0.6534 0.0195 0.0
C795 C 0.61973 0.61894 0.01789 0.0
C796 C 0.64149 0.64236 0.02606 0.0
C797 C 0.6593 0.64773 0.02256 0.0
C798 C 0.67517 0.65049 0.02851 0.0
C799 C 0.67275 0.64733 0.03821 0.0
C800 C 0.6547 0.64119 0.04176 0.0
C801 C 0.63892 0.63903 0.03558 0.0
H802 H 0.37687 0.12393 0.247 0.0
H803 H 0.4092 0.17398 0.23917 0.0
H804 H 0.41191 0.18321 0.25584 0.0
H805 H 0.35105 0.14547 0.26698 0.0
H806 H 0.35262 0.1243 0.27384 0.0
H807 H 0.35164 0.12267 0.26122 0.0
H808 H 0.38343 0.10332 0.26126 0.0
H809 H 0.38475 0.10518 0.27386 0.0
H810 H 0.40471 0.11317 0.26679 0.0
H811 H 0.41441 0.18514 0.2735 0.0
H812 H 0.41286 0.18147 0.29078 0.0
H813 H 0.37849 0.13069 0.2871 0.0
C814 C 0.38437 0.13694 0.24876 0.0
C815 C 0.39283 0.14819 0.2417 0.0
C816 C 0.40233 0.16521 0.24437 0.0
C817 C 0.40412 0.17051 0.25385 0.0
C818 C 0.39624 0.15874 0.26062 0.0
C819 C 0.38625 0.14248 0.25819 0.0
C820 C 0.3796 0.13205 0.26683 0.0
C821 C 0.3574 0.13107 0.26724 0.0
C822 C 0.38866 0.11226 0.2672 0.0
C823 C 0.38762 0.1448 0.2745 0.0
C824 C 0.39729 0.16008 0.27078 0.0
C825 C 0.40667 0.17335 0.2765 0.0
C826 C 0.40585 0.17111 0.28627 0.0
C827 C 0.39557 0.15585 0.2902 0.0
C828 C 0.38638 0.14253 0.28424 0.0
H829 H 0.89112 0.90309 0.49617 0.0
H830 H 0.89047 0.84193 0.49367 0.0
H831 H 0.88861 0.8395 0.51089 0.0
H832 H 0.92111 0.90522 0.51697 0.0
H833 H 0.90844 0.92521 0.5219 0.0
H834 H 0.90957 0.92198 0.50936 0.0
H835 H 0.87208 0.9231 0.50858 0.0
H836 H 0.87085 0.926 0.52114 0.0
H837 H 0.8581 0.90679 0.51546 0.0
H838 H 0.88747 0.84375 0.52855 0.0
H839 H 0.88912 0.85434 0.54508 0.0
H840 H 0.88912 0.91271 0.53597 0.0
C841 C 0.8908 0.88917 0.49923 0.0
C842 C 0.89081 0.87271 0.4935 0.0
C843 C 0.89016 0.85479 0.49785 0.0
C844 C 0.88915 0.85324 0.50765 0.0
C845 C 0.88882 0.86973 0.51306 0.0
C846 C 0.88976 0.88734 0.50901 0.0
C847 C 0.88948 0.90284 0.51641 0.0
C848 C 0.90827 0.9145 0.51614 0.0
C849 C 0.87155 0.91542 0.51533 0.0
C850 C 0.88835 0.89122 0.52525 0.0
C851 C 0.88795 0.87215 0.52319 0.0
C852 C 0.88768 0.85868 0.53025 0.0
C853 C 0.88844 0.86488 0.53965 0.0
C854 C 0.88939 0.88442 0.54195 0.0
C855 C 0.88879 0.89766 0.53457 0.0
H856 H 0.98454 0.98596 0.44057 0.0
H857 H 0.99084 0.96073 0.41286 0.0
H858 H 1.01413 0.98592 0.40867 0.0
H859 H 0.98785 0.03487 0.43312 0.0
H860 H 1.00095 0.04219 0.44349 0.0
H861 H 0.98418 0.02269 0.44401 0.0
H862 H 1.01137 1.00127 0.45047 0.0
H863 H 0.02824 0.02066 0.44993 0.0
H864 H 0.03356 0.99872 0.44393 0.0
H865 H 0.03798 1.013 0.40789 0.0
H866 H 0.05993 0.04007 0.41027 0.0
H867 H 0.03788 0.04781 0.43856 0.0
C868 C 0.99081 0.98569 0.43361 0.0
C869 C 0.98593 0.97128 0.42705 0.0
C870 C 0.99423 0.97167 0.41798 0.0
C871 C 1.00753 0.98588 0.41555 0.0
C872 C 1.01222 0.99969 0.42226 0.0
C873 C 1.00399 0.99976 0.43107 0.0
C874 C 1.01158 0.01602 0.43704 0.0
C875 C 0.99516 0.02976 0.43957 0.0
C876 C 0.0218 1.00873 0.44586 0.0
C877 C 0.0258 0.02489 0.43031 0.0
C878 C 0.02582 1.01533 0.42179 0.0
C879 C 0.03792 0.02069 0.41449 0.0
C880 C 0.05028 0.03621 0.41591 0.0
C881 C 0.05057 0.04632 0.42457 0.0
C882 C 0.03811 0.04044 0.43186 0.0
H883 H 0.05925 0.49677 0.66548 0.0
H884 H 0.04901 0.47215 0.69276 0.0
H885 H 0.01943 0.49113 0.69456 0.0
H886 H 0.04464 0.54332 0.67165 0.0
H887 H 0.03274 0.54834 0.6607 0.0
H888 H 0.05228 0.53158 0.66098 0.0
H889 H 0.03003 0.50627 0.65334 0.0
H890 H 1.01036 0.52295 0.6531 0.0
H891 H 1.00727 0.50057 0.65881 0.0
H892 H 0.99184 0.51276 0.69385 0.0
H893 H 0.96835 0.53804 0.69117 0.0
H894 H 0.99666 0.5511 0.66479 0.0
C895 C 0.05054 0.49523 0.67174 0.0
C896 C 0.05629 0.48291 0.67898 0.0
C897 C 0.04478 0.48147 0.68714 0.0
C898 C 0.02793 0.49213 0.68822 0.0
C899 C 0.02269 0.50427 0.68106 0.0
C900 C 0.03358 0.50602 0.67298 0.0
C901 C 0.02495 0.52104 0.66669 0.0
C902 C 0.03953 0.53702 0.6649 0.0
C903 C 1.01772 0.51218 0.65743 0.0
C904 C 1.00808 0.52783 0.67268 0.0
C905 C 1.00689 0.51758 0.68083 0.0
C906 C 0.99268 0.52103 0.68752 0.0
C907 C 0.97949 0.53561 0.68597 0.0
C908 C 0.98074 0.54699 0.67787 0.0
C909 C 0.99512 0.54273 0.67105 0.0
H910 H 0.55514 0.53532 0.93698 0.0
H911 H 0.53267 0.56292 0.9122 0.0
H912 H 0.50826 0.53772 0.91035 0.0
H913 H 0.54996 0.48834 0.92937 0.0
H914 H 0.54185 0.47943 0.9405 0.0
H915 H 0.5572 0.49998 0.94014 0.0
H916 H 0.53189 0.51931 0.94964 0.0
H917 H 0.5166 0.49869 0.95016 0.0
H918 H 0.50729 0.52037 0.94547 0.0
H919 H 0.48581 0.50922 0.91133 0.0
H920 H 0.46683 0.48109 0.91547 0.0
H921 H 0.506 0.47124 0.93884 0.0
C922 C 0.54495 0.5363 0.93123 0.0
C923 C 0.54612 0.55111 0.92468 0.0
C924 C 0.53247 0.55157 0.91722 0.0
C925 C 0.51842 0.53735 0.91613 0.0
C926 C 0.518 0.52277 0.92259 0.0
C927 C 0.53078 0.52228 0.93005 0.0
C928 C 0.52715 0.50518 0.93607 0.0
C929 C 0.54512 0.49248 0.93654 0.0
C930 C 0.52034 0.51125 0.94592 0.0
C931 C 0.51089 0.49577 0.93064 0.0
C932 C 0.5055 0.50627 0.923 0.0
C933 C 0.49001 0.50083 0.91729 0.0
C934 C 0.4794 0.48458 0.91967 0.0
C935 C 0.4845 0.47367 0.92761 0.0
C936 C 0.50098 0.47924 0.93291 0.0
H937 H 0.55752 0.99445 0.16445 0.0
H938 H 0.55306 0.9737 0.19294 0.0
H939 H 0.52517 0.99444 0.19575 0.0
H940 H 0.54505 0.04282 0.16972 0.0
H941 H 0.53102 0.04597 0.15918 0.0
H942 H 0.55065 0.02929 0.15928 0.0
H943 H 0.52711 1.00294 0.15373 0.0
H944 H 0.50734 0.01951 0.15376 0.0
H945 H 0.50564 0.99817 0.16048 0.0
H946 H 0.49682 0.01564 0.19537 0.0
H947 H 0.47213 0.0397 0.19265 0.0
H948 H 0.49574 0.04928 0.16482 0.0
C949 C 0.55067 0.99426 0.17128 0.0
C950 C 0.55767 0.98242 0.1785 0.0
C951 C 0.5483 0.98278 0.18734 0.0
C952 C 0.53226 0.99438 0.18898 0.0
C953 C 0.52563 1.00566 0.18173 0.0
C954 C 0.53462 1.00594 0.17309 0.0
C955 C 0.52464 0.01985 0.16664 0.0
C956 C 0.53869 0.03541 0.16353 0.0
C957 C 0.51565 1.0095 0.15815 0.0
C958 C 0.50904 0.02763 0.17311 0.0
C959 C 0.50966 0.01883 0.18169 0.0
C960 C 0.49644 0.02296 0.18875 0.0
C961 C 0.48253 0.03689 0.18715 0.0
C962 C 0.48214 0.04709 0.17863 0.0
C963 C 0.49546 0.04198 0.17144 0.0
H964 H 0.98551 0.55043 0.86709 0.0
H965 H 0.99193 0.56871 0.83829 0.0
H966 H 1.01321 0.54173 0.83498 0.0
H967 H 0.03568 0.53447 0.86959 0.0
H968 H 0.02947 0.51451 0.87674 0.0
H969 H 1.01465 0.53542 0.87706 0.0
H970 H 0.98458 0.51525 0.87281 0.0
H971 H 0.99932 0.4943 0.87243 0.0
H972 H 0.98492 0.50058 0.86238 0.0
H973 H 0.0325 0.51309 0.83437 0.0
H974 H 0.05197 0.48465 0.83684 0.0
H975 H 0.03411 0.48396 0.86608 0.0
C976 C 0.99157 0.54874 0.86013 0.0
C977 C 0.98729 0.56173 0.85295 0.0
C978 C 0.99535 0.55912 0.84391 0.0
C979 C 1.00731 0.54376 0.84194 0.0
C980 C 1.01121 0.53119 0.84909 0.0
C981 C 1.00388 0.53352 0.85804 0.0
C982 C 1.01093 0.51792 0.86441 0.0
C983 C 0.02343 0.52607 0.87243 0.0
C984 C 0.99391 0.50633 0.86823 0.0
C985 C 0.02302 0.5064 0.85754 0.0
C986 C 0.02282 0.51438 0.84876 0.0
C987 C 0.0328 0.50659 0.8412 0.0
C988 C 0.04363 0.49028 0.84266 0.0
C989 C 0.04444 0.48187 0.85161 0.0
C990 C 0.03382 0.49003 0.85914 0.0
H991 H 0.48634 0.49355 0.1189 0.0
H992 H 0.49259 0.46917 0.09096 0.0
H993 H 0.52072 0.48964 0.08816 0.0
H994 H 0.49911 0.54111 0.11285 0.0
H995 H 0.51245 0.54575 0.12352 0.0
H996 H 0.49287 0.52892 0.12348 0.0
H997 H 0.51608 0.50349 0.12991 0.0
H998 H 0.53581 0.5202 0.12984 0.0
H999 H 0.53799 0.49802 0.1236 0.0
H1000 H 0.54874 0.51151 0.08843 0.0
H1001 H 0.573 0.53638 0.09101 0.0
H1002 H 0.54809 0.54852 0.11842 0.0
C1003 C 0.49365 0.49249 0.1122 0.0
C1004 C 0.48707 0.47975 0.10512 0.0
C1005 C 0.49703 0.47898 0.09644 0.0
C1006 C 0.5132 0.49042 0.09481 0.0
C1007 C 0.51937 0.50264 0.10191 0.0
C1008 C 0.50985 0.50395 0.11041 0.0
C1009 C 0.51936 0.51873 0.11672 0.0
C1010 C 0.50509 0.53457 0.11929 0.0
C1011 C 0.52781 0.50956 0.12554 0.0
C1012 C 0.53535 0.5258 0.11033 0.0
C1013 C 0.53527 0.51598 0.10192 0.0
C1014 C 0.54877 0.51954 0.09493 0.0
C1015 C 0.56242 0.5339 0.09645 0.0
C1016 C 0.56234 0.54495 0.10482 0.0
C1017 C 0.54873 0.54048 0.11193 0.0
H1018 H 0.4855 0.04537 0.34277 0.0
H1019 H 0.49032 0.06957 0.37078 0.0
H1020 H 0.51355 0.04446 0.37501 0.0
H1021 H 0.48868 0.99627 0.34977 0.0
H1022 H 0.50236 0.98941 0.33953 0.0
H1023 H 0.48559 1.00882 0.33894 0.0
H1024 H 0.51306 0.03067 0.33308 0.0
H1025 H 0.52992 1.01136 0.33367 0.0
H1026 H 0.53489 0.03309 0.33994 0.0
H1027 H 0.53745 0.01751 0.37587 0.0
H1028 H 0.55958 0.99068 0.37355 0.0
H1029 H 0.53899 0.9838 0.34491 0.0
C1030 C 0.49145 0.04545 0.3498 0.0
C1031 C 0.48612 0.05954 0.35644 0.0
C1032 C 0.49403 0.05887 0.3656 0.0
C1033 C 0.5073 0.04471 0.36805 0.0
C1034 C 0.51241 0.03121 0.36128 0.0
C1035 C 0.50462 0.03141 0.35237 0.0
C1036 C 0.51257 1.01542 0.34636 0.0
C1037 C 0.49633 1.00166 0.34348 0.0
C1038 C 0.52325 0.0231 0.33775 0.0
C1039 C 0.52646 1.00637 0.3532 0.0
C1040 C 0.52602 0.01562 0.36179 0.0
C1041 C 0.53774 1.01006 0.3692 0.0
C1042 C 0.55021 0.99466 0.36781 0.0
C1043 C 0.55099 0.98486 0.35907 0.0
C1044 C 0.53887 0.99092 0.35167 0.0
H1045 H 0.0426 0.0527 0.61717 0.0
H1046 H 0.07504 0.03348 0.59277 0.0
H1047 H 0.05186 1.00745 0.59046 0.0
H1048 H 0.03084 1.00467 0.62542 0.0
H1049 H 1.00727 1.01162 0.62959 0.0
H1050 H 0.02683 0.0285 0.62955 0.0
H1051 H 1.00585 0.05107 0.61965 0.0
H1052 H 0.98635 0.03416 0.61955 0.0
H1053 H 0.99589 0.04281 0.60864 0.0
H1054 H 0.02446 0.98484 0.59008 0.0
H1055 H 0.99566 0.96499 0.5924 0.0
H1056 H 0.98118 0.99741 0.61746 0.0
C1057 C 0.04507 0.04287 0.61143 0.0
C1058 C 0.0606 0.04547 0.60505 0.0
C1059 C 0.06305 0.03224 0.59761 0.0
C1060 C 0.05003 0.01726 0.59627 0.0
C1061 C 0.03471 1.01542 0.60252 0.0
C1062 C 0.0323 0.02763 0.61004 0.0
C1063 C 1.0145 0.02233 0.61569 0.0
C1064 C 0.02021 0.01643 0.62565 0.0
C1065 C 0.99977 0.03857 0.61589 0.0
C1066 C 1.00703 1.00558 0.60999 0.0
C1067 C 0.01899 1.00189 0.60244 0.0
C1068 C 1.01502 0.9875 0.596 0.0
C1069 C 0.99849 0.97641 0.59733 0.0
C1070 C 0.98602 0.97968 0.60506 0.0
C1071 C 0.99044 0.99448 0.6115 0.0
H1072 H 0.30648 0.17711 0.38532 0.0
H1073 H 0.3043 0.12317 0.37067 0.0
H1074 H 0.27219 0.11678 0.3775 0.0
H1075 H 0.28418 0.16307 0.40637 0.0
H1076 H 0.26981 0.18404 0.40809 0.0
H1077 H 0.29215 0.18529 0.40164 0.0
H1078 H 0.27397 0.19943 0.38749 0.0
H1079 H 0.25155 0.19826 0.39392 0.0
H1080 H 0.2535 0.18698 0.38256 0.0
H1081 H 0.24212 0.11478 0.38666 0.0
H1082 H 0.21469 0.11744 0.39746 0.0
H1083 H 0.23411 0.17363 0.40581 0.0
C1084 C 0.29899 0.16415 0.38346 0.0
C1085 C 0.30768 0.15063 0.3774 0.0
C1086 C 0.2977 0.13373 0.37519 0.0
C1087 C 0.2795 0.12998 0.37905 0.0
C1088 C 0.27128 0.14342 0.38501 0.0
C1089 C 0.28049 0.16028 0.38715 0.0
C1090 C 0.26824 0.17203 0.39389 0.0
C1091 C 0.27926 0.17635 0.40304 0.0
C1092 C 0.26141 0.19026 0.38919 0.0
C1093 C 0.25131 0.15868 0.39554 0.0
C1094 C 0.25335 0.1424 0.39023 0.0
C1095 C 0.24013 0.12761 0.39073 0.0
C1096 C 0.22441 0.12936 0.39687 0.0
C1097 C 0.22183 0.14583 0.40249 0.0
C1098 C 0.23551 0.16078 0.40169 0.0
H1099 H 0.86907 0.74152 0.66015 0.0
H1100 H 0.90844 0.70819 0.64286 0.0
H1101 H 0.91027 0.7341 0.63167 0.0
H1102 H 0.84444 0.76648 0.64153 0.0
H1103 H 0.84385 0.78851 0.648 0.0
H1104 H 0.84369 0.76645 0.65418 0.0
H1105 H 0.87384 0.77724 0.66362 0.0
H1106 H 0.87421 0.79925 0.65741 0.0
H1107 H 0.89535 0.78437 0.65744 0.0
H1108 H 0.91011 0.76401 0.62288 0.0
H1109 H 0.90721 0.79638 0.61677 0.0
H1110 H 0.86958 0.81156 0.63995 0.0
C1111 C 0.87817 0.73952 0.65405 0.0
C1112 C 0.88853 0.72245 0.65249 0.0
C1113 C 0.89991 0.72069 0.64424 0.0
C1114 C 0.90124 0.73549 0.63783 0.0
C1115 C 0.89132 0.75216 0.63976 0.0
C1116 C 0.88001 0.75431 0.64766 0.0
C1117 C 0.87185 0.77418 0.64834 0.0
C1118 C 0.84963 0.77387 0.64799 0.0
C1119 C 0.87926 0.78436 0.65723 0.0
C1120 C 0.88034 0.78283 0.63956 0.0
C1121 C 0.89152 0.76978 0.63474 0.0
C1122 C 0.90135 0.77434 0.62656 0.0
C1123 C 0.8997 0.79273 0.62317 0.0
C1124 C 0.8883 0.80632 0.62793 0.0
C1125 C 0.8784 0.80135 0.63621 0.0
H1126 H 0.29415 0.38824 0.9118 0.0
H1127 H 0.33092 0.35793 0.8921 0.0
H1128 H 0.30306 0.35293 0.88159 0.0
H1129 H 0.25011 0.35828 0.90754 0.0
H1130 H 0.23406 0.3782 0.90869 0.0
H1131 H 0.25643 0.37778 0.91521 0.0
H1132 H 0.26611 0.40992 0.90801 0.0
H1133 H 0.2439 0.41029 0.90141 0.0
H1134 H 0.26676 0.4122 0.89542 0.0
H1135 H 0.27287 0.35475 0.87236 0.0
H1136 H 0.24113 0.36126 0.86537 0.0
H1137 H 0.22272 0.38815 0.89143 0.0
C1138 C 0.29621 0.38008 0.90541 0.0
C1139 C 0.31478 0.37361 0.90274 0.0
C1140 C 0.31691 0.36327 0.89423 0.0
C1141 C 0.30116 0.36025 0.88823 0.0
C1142 C 0.28324 0.36735 0.89091 0.0
C1143 C 0.28054 0.37677 0.89935 0.0
C1144 C 0.25988 0.38368 0.90027 0.0
C1145 C 0.24951 0.3739 0.90841 0.0
C1146 C 0.25914 0.40531 0.90134 0.0
C1147 C 0.2517 0.37726 0.8909 0.0
C1148 C 0.26542 0.36778 0.88565 0.0
C1149 C 0.2618 0.3617 0.8765 0.0
C1150 C 0.24363 0.36538 0.87261 0.0
C1151 C 0.22921 0.37498 0.87788 0.0
C1152 C 0.23335 0.3808 0.88719 0.0
H1153 H 0.65878 0.81336 0.14217 0.0
H1154 H 0.66888 0.79146 0.17003 0.0
H1155 H 0.67053 0.7591 0.16352 0.0
H1156 H 0.62908 0.77667 0.13353 0.0
H1157 H 0.63939 0.77578 0.12192 0.0
H1158 H 0.64004 0.79748 0.12862 0.0
H1159 H 0.6773 0.79896 0.12674 0.0
H1160 H 0.67676 0.77724 0.12002 0.0
H1161 H 0.69178 0.77916 0.13033 0.0
H1162 H 0.66872 0.72894 0.15426 0.0
H1163 H 0.66533 0.70302 0.14262 0.0
H1164 H 0.65729 0.7442 0.12063 0.0
C1165 C 0.66147 0.80173 0.14685 0.0
C1166 C 0.66374 0.8049 0.15661 0.0
C1167 C 0.6673 0.78935 0.16253 0.0
C1168 C 0.66822 0.77091 0.1589 0.0
C1169 C 0.66584 0.7682 0.14929 0.0
C1170 C 0.66282 0.78316 0.14331 0.0
C1171 C 0.66078 0.77618 0.13325 0.0
C1172 C 0.64115 0.78187 0.12909 0.0
C1173 C 0.67766 0.78332 0.12723 0.0
C1174 C 0.66207 0.75501 0.13461 0.0
C1175 C 0.66522 0.75073 0.1439 0.0
C1176 C 0.66639 0.73212 0.14693 0.0
C1177 C 0.66428 0.71747 0.14028 0.0
C1178 C 0.66103 0.72149 0.1307 0.0
C1179 C 0.66003 0.74059 0.12787 0.0
H1180 H 0.80265 0.67921 0.88563 0.0
H1181 H 0.80799 0.62077 0.87651 0.0
H1182 H 0.77555 0.61392 0.88269 0.0
H1183 H 0.77911 0.66944 0.90717 0.0
H1184 H 0.76315 0.68953 0.90687 0.0
H1185 H 0.78624 0.69049 0.90105 0.0
H1186 H 0.76925 0.69886 0.88545 0.0
H1187 H 0.74605 0.69793 0.8912 0.0
H1188 H 0.75047 0.68359 0.8809 0.0
H1189 H 0.74393 0.61267 0.8903 0.0
H1190 H 0.71485 0.61644 0.89996 0.0
H1191 H 0.72884 0.6758 0.90436 0.0
C1192 C 0.79684 0.66505 0.8849 0.0
C1193 C 0.80781 0.65043 0.8807 0.0
C1194 C 0.79989 0.63205 0.87986 0.0
C1195 C 0.78143 0.62806 0.88326 0.0
C1196 C 0.77103 0.64263 0.88746 0.0
C1197 C 0.77837 0.66073 0.88835 0.0
C1198 C 0.76442 0.67338 0.89369 0.0
C1199 C 0.77379 0.68116 0.90273 0.0
C1200 C 0.75711 0.68939 0.88744 0.0
C1201 C 0.74838 0.65939 0.89581 0.0
C1202 C 0.75246 0.64185 0.892 0.0
C1203 C 0.74036 0.62639 0.89323 0.0
C1204 C 0.72373 0.62875 0.89868 0.0
C1205 C 0.7193 0.64646 0.90288 0.0
C1206 C 0.73174 0.66205 0.90127 0.0
H1207 H 0.38919 0.31257 0.1414 0.0
H1208 H 0.37258 0.28992 0.11414 0.0
H1209 H 0.37058 0.25797 0.12076 0.0
H1210 H 0.41858 0.27455 0.1486 0.0
H1211 H 0.41069 0.27482 0.16066 0.0
H1212 H 0.41007 0.2962 0.15394 0.0
H1213 H 0.37355 0.29998 0.1576 0.0
H1214 H 0.37407 0.27861 0.16434 0.0
H1215 H 0.35714 0.28089 0.1548 0.0
H1216 H 0.37248 0.22816 0.12999 0.0
H1217 H 0.37615 0.2027 0.14159 0.0
H1218 H 0.39055 0.24451 0.163 0.0
C1219 C 0.38504 0.30087 0.13686 0.0
C1220 C 0.38099 0.30372 0.12725 0.0
C1221 C 0.37553 0.28808 0.12154 0.0
C1222 C 0.37442 0.26986 0.12522 0.0
C1223 C 0.37857 0.26747 0.13469 0.0
C1224 C 0.38351 0.28254 0.14047 0.0
C1225 C 0.38713 0.27595 0.15041 0.0
C1226 C 0.40786 0.28066 0.15359 0.0
C1227 C 0.37208 0.28436 0.15719 0.0
C1228 C 0.38423 0.25484 0.14919 0.0
C1229 C 0.37919 0.25025 0.14008 0.0
C1230 C 0.37629 0.23158 0.13718 0.0
C1231 C 0.37856 0.2172 0.14379 0.0
C1232 C 0.38361 0.22156 0.15321 0.0
C1233 C 0.38642 0.24069 0.15589 0.0
H1234 H 0.80527 0.85359 0.399 0.0
H1235 H 0.80582 0.90958 0.41161 0.0
H1236 H 0.77389 0.91617 0.40465 0.0
H1237 H 0.78333 0.86562 0.3775 0.0
H1238 H 0.76805 0.84502 0.37648 0.0
H1239 H 0.79042 0.84383 0.38294 0.0
H1240 H 0.77189 0.8323 0.39756 0.0
H1241 H 0.74943 0.8334 0.39114 0.0
H1242 H 0.75204 0.84609 0.4021 0.0
H1243 H 0.74383 0.91798 0.39557 0.0
H1244 H 0.71609 0.91491 0.38497 0.0
H1245 H 0.73273 0.85699 0.37852 0.0
C1246 C 0.7984 0.86706 0.4004 0.0
C1247 C 0.8078 0.8811 0.40592 0.0
C1248 C 0.79866 0.89866 0.4075 0.0
C1249 C 0.78057 0.90251 0.40357 0.0
C1250 C 0.77165 0.88856 0.39813 0.0
C1251 C 0.78004 0.8711 0.39659 0.0
C1252 C 0.76719 0.85894 0.39027 0.0
C1253 C 0.77789 0.85301 0.38126 0.0
C1254 C 0.75969 0.84165 0.39559 0.0
C1255 C 0.75082 0.87265 0.38821 0.0
C1256 C 0.7537 0.88953 0.39293 0.0
C1257 C 0.74116 0.90471 0.39196 0.0
C1258 C 0.72525 0.90272 0.38594 0.0
C1259 C 0.72178 0.88562 0.38093 0.0
C1260 C 0.7348 0.87031 0.38219 0.0
H1261 H 0.15747 0.31097 0.64113 0.0
H1262 H 0.17428 0.29238 0.66889 0.0
H1263 H 0.1788 0.25997 0.66259 0.0
H1264 H 0.12816 0.27189 0.6364 0.0
H1265 H 0.13346 0.27108 0.62403 0.0
H1266 H 0.13476 0.29317 0.63036 0.0
H1267 H 0.1703 0.29781 0.62496 0.0
H1268 H 0.16902 0.27581 0.6185 0.0
H1269 H 0.18778 0.27949 0.62713 0.0
H1270 H 0.17785 0.22839 0.65329 0.0
H1271 H 0.173 0.20196 0.64193 0.0
H1272 H 0.15433 0.24195 0.62097 0.0
C1273 C 0.16215 0.30021 0.64596 0.0
C1274 C 0.16524 0.30438 0.65557 0.0
C1275 C 0.1719 0.28974 0.66148 0.0
C1276 C 0.17439 0.2712 0.65798 0.0
C1277 C 0.17016 0.26749 0.64855 0.0
C1278 C 0.16432 0.2817 0.64264 0.0
C1279 C 0.15904 0.27408 0.63303 0.0
C1280 C 0.13759 0.27777 0.63083 0.0
C1281 C 0.17234 0.28229 0.62546 0.0
C1282 C 0.16277 0.25331 0.63439 0.0
C1283 C 0.16926 0.24964 0.64335 0.0
C1284 C 0.17292 0.2312 0.64624 0.0
C1285 C 0.16997 0.21626 0.63976 0.0
C1286 C 0.16343 0.21985 0.63052 0.0
C1287 C 0.15975 0.23868 0.6279 0.0
loop_
_geom_bond_atom_site_label_1
_geom_bond_atom_site_label_2
_geom_bond_distance
_geom_bond_site_symmetry_2
_ccdc_geom_bond_type
C0 C1 1.264 . S
C0 C5 1.479 . S
C0 C10 1.465 . S
C1 C0 1.264 . S
C1 C3 1.339 . S
C1 H28 0.931 . S
C2 C3 1.395 . S
C2 C4 1.320 . S
C3 C1 1.339 . S
C3 C2 1.395 . S
C3 H29 0.929 . S
C4 C2 1.320 . S
C4 C5 1.405 . S
C4 H30 0.930 . S
C5 C0 1.479 . S
C5 C4 1.405 . S
C5 H31 0.931 . S
U6 O7 2.454 . S
U6 O8 2.458 . S
U6 C9 2.984 . S
U6 C10 2.847 . S
U6 C23 2.882 . S
U6 O24 2.441 . S
U6 O25 2.420 . S
U6 O26 2.455 . S
U6 O27 2.449 . S
O7 U6 2.454 . S
O7 C9 1.353 . S
O8 U6 2.458 . S
O8 C9 1.286 . S
C9 U6 2.984 . S
C9 O7 1.353 . S
C9 O8 1.286 . S
C9 C11 1.363 . S
C10 C0 1.465 . S
C10 U6 2.847 . S
C10 O24 1.249 . S
C10 O25 1.202 . S
C11 C9 1.363 . S
C11 C13 1.408 . S
C11 C16 1.342 . S
C12 C13 1.310 . S
C12 C15 1.461 . S
C12 H32 0.932 . S
C13 C11 1.408 . S
C13 C12 1.310 . S
C13 H33 0.930 . S
C14 C15 1.474 . S
C14 C16 1.285 . S
C14 H34 0.929 . S
C15 C12 1.461 . S
C15 C14 1.474 . S
C16 C11 1.342 . S
C16 C14 1.285 . S
C16 H35 0.930 . S
C17 C20 1.424 . S
C17 C22 1.245 . S
C17 C23 1.428 . S
C18 C21 1.260 . S
C18 C22 1.477 . S
C18 H36 0.932 . S
C19 C20 1.384 . S
C19 C21 1.479 . S
C19 H37 0.929 . S
C20 C17 1.424 . S
C20 C19 1.384 . S
C20 H38 0.928 . S
C21 C18 1.260 . S
C21 C19 1.479 . S
C22 C17 1.245 . S
C22 C18 1.477 . S
C22 H39 0.932 . S
C23 U6 2.882 . S
C23 C17 1.428 . S
C23 O26 1.301 . S
C23 O27 1.282 . S
O24 U6 2.441 . S
O24 C10 1.249 . S
O25 U6 2.420 . S
O25 C10 1.202 . S
O26 U6 2.455 . S
O26 C23 1.301 . S
O27 U6 2.449 . S
O27 C23 1.282 . S
H28 C1 0.931 . S
H29 C3 0.929 . S
H30 C4 0.930 . S
H31 C5 0.931 . S
H32 C12 0.932 . S
H33 C13 0.930 . S
H34 C14 0.929 . S
H35 C16 0.930 . S
H36 C18 0.932 . S
H37 C19 0.929 . S
H38 C20 0.928 . S
H39 C22 0.932 . S
C40 C41 1.264 . S
C40 C45 1.479 . S
C40 C50 1.465 . S
C41 C40 1.264 . S
C41 C43 1.339 . S
C41 H68 0.931 . S
C42 C43 1.395 . S
C42 C44 1.320 . S
C43 C41 1.339 . S
C43 C42 1.395 . S
C43 H69 0.929 . S
C44 C42 1.320 . S
C44 C45 1.405 . S
C44 H70 0.930 . S
C45 C40 1.479 . S
C45 C44 1.405 . S
C45 H71 0.931 . S
U46 O47 2.454 . S
U46 O48 2.458 . S
U46 C49 2.984 . S
U46 C50 2.847 . S
U46 C63 2.882 . S
U46 O64 2.441 . S
U46 O65 2.420 . S
U46 O66 2.455 . S
U46 O67 2.449 . S
O47 U46 2.454 . S
O47 C49 1.353 . S
O48 U46 2.458 . S
O48 C49 1.286 . S
C49 U46 2.984 . S
C49 O47 1.353 . S
C49 O48 1.286 . S
C49 C51 1.363 . S
C50 C40 1.465 . S
C50 U46 2.847 . S
C50 O64 1.249 . S
C50 O65 1.202 . S
C51 C49 1.363 . S
C51 C53 1.408 . S
C51 C56 1.342 . S
C52 C53 1.310 . S
C52 C55 1.461 . S
C52 H72 0.932 . S
C53 C51 1.408 . S
C53 C52 1.310 . S
C53 H73 0.930 . S
C54 C55 1.474 . S
C54 C56 1.285 . S
C54 H74 0.929 . S
C55 C52 1.461 . S
C55 C54 1.474 . S
C56 C51 1.342 . S
C56 C54 1.285 . S
C56 H75 0.930 . S
C57 C60 1.424 . S
C57 C62 1.245 . S
C57 C63 1.428 . S
C58 C61 1.260 . S
C58 C62 1.477 . S
C58 H76 0.932 . S
C59 C60 1.384 . S
C59 C61 1.479 . S
C59 H77 0.929 . S
C60 C57 1.424 . S
C60 C59 1.384 . S
C60 H78 0.928 . S
C61 C58 1.260 . S
C61 C59 1.479 . S
C62 C57 1.245 . S
C62 C58 1.477 . S
C62 H79 0.932 . S
C63 U46 2.882 . S
C63 C57 1.428 . S
C63 O66 1.301 . S
C63 O67 1.282 . S
O64 U46 2.441 . S
O64 C50 1.249 . S
O65 U46 2.420 . S
O65 C50 1.202 . S
O66 U46 2.455 . S
O66 C63 1.301 . S
O67 U46 2.449 . S
O67 C63 1.282 . S
H68 C41 0.931 . S
H69 C43 0.929 . S
H70 C44 0.930 . S
H71 C45 0.931 . S
H72 C52 0.932 . S
H73 C53 0.930 . S
H74 C54 0.929 . S
H75 C56 0.930 . S
H76 C58 0.932 . S
H77 C59 0.929 . S
H78 C60 0.928 . S
H79 C62 0.932 . S
C80 C81 1.264 . S
C80 C85 1.479 . S
C80 C90 1.465 . S
C81 C80 1.264 . S
C81 C83 1.339 . S
C81 H108 0.931 . S
C82 C83 1.395 . S
C82 C84 1.320 . S
C83 C81 1.339 . S
C83 C82 1.395 . S
C83 H109 0.929 . S
C84 C82 1.320 . S
C84 C85 1.405 . S
C84 H110 0.930 . S
C85 C80 1.479 . S
C85 C84 1.405 . S
C85 H111 0.931 . S
U86 O87 2.454 . S
U86 O88 2.458 . S
U86 C89 2.984 . S
U86 C90 2.847 . S
U86 C103 2.882 . S
U86 O104 2.441 . S
U86 O105 2.420 . S
U86 O106 2.455 . S
U86 O107 2.449 . S
O87 U86 2.454 . S
O87 C89 1.353 . S
O88 U86 2.458 . S
O88 C89 1.286 . S
C89 U86 2.984 . S
C89 O87 1.353 . S
C89 O88 1.286 . S
C89 C91 1.363 . S
C90 C80 1.465 . S
C90 U86 2.847 . S
C90 O104 1.249 . S
C90 O105 1.202 . S
C91 C89 1.363 . S
C91 C93 1.408 . S
C91 C96 1.342 . S
C92 C93 1.310 . S
C92 C95 1.461 . S
C92 H112 0.932 . S
C93 C91 1.408 . S
C93 C92 1.310 . S
C93 H113 0.930 . S
C94 C95 1.474 . S
C94 C96 1.285 . S
C94 H114 0.929 . S
C95 C92 1.461 . S
C95 C94 1.474 . S
C96 C91 1.342 . S
C96 C94 1.285 . S
C96 H115 0.930 . S
C97 C100 1.424 . S
C97 C102 1.245 . S
C97 C103 1.428 . S
C98 C101 1.260 . S
C98 C102 1.477 . S
C98 H116 0.932 . S
C99 C100 1.384 . S
C99 C101 1.479 . S
C99 H117 0.929 . S
C100 C97 1.424 . S
C100 C99 1.384 . S
C100 H118 0.928 . S
C101 C98 1.260 . S
C101 C99 1.479 . S
C102 C97 1.245 . S
C102 C98 1.477 . S
C102 H119 0.932 . S
C103 U86 2.882 . S
C103 C97 1.428 . S
C103 O106 1.301 . S
C103 O107 1.282 . S
O104 U86 2.441 . S
O104 C90 1.249 . S
O105 U86 2.420 . S
O105 C90 1.202 . S
O106 U86 2.455 . S
O106 C103 1.301 . S
O107 U86 2.449 . S
O107 C103 1.282 . S
H108 C81 0.931 . S
H109 C83 0.929 . S
H110 C84 0.930 . S
H111 C85 0.931 . S
H112 C92 0.932 . S
H113 C93 0.930 . S
H114 C94 0.929 . S
H115 C96 0.930 . S
H116 C98 0.932 . S
H117 C99 0.929 . S
H118 C100 0.928 . S
H119 C102 0.932 . S
C120 C121 1.264 . S
C120 C125 1.479 . S
C120 C130 1.465 . S
C121 C120 1.264 . S
C121 C123 1.339 . S
C121 H148 0.931 . S
C122 C123 1.395 . S
C122 C124 1.320 . S
C123 C121 1.339 . S
C123 C122 1.395 . S
C123 H149 0.929 . S
C124 C122 1.320 . S
C124 C125 1.405 . S
C124 H150 0.930 . S
C125 C120 1.479 . S
C125 C124 1.405 . S
C125 H151 0.931 . S
U126 O127 2.454 . S
U126 O128 2.458 . S
U126 C129 2.984 . S
U126 C130 2.847 . S
U126 C143 2.882 . S
U126 O144 2.441 . S
U126 O145 2.420 . S
U126 O146 2.455 . S
U126 O147 2.449 . S
O127 U126 2.454 . S
O127 C129 1.353 . S
O128 U126 2.458 . S
O128 C129 1.286 . S
C129 U126 2.984 . S
C129 O127 1.353 . S
C129 O128 1.286 . S
C129 C131 1.363 . S
C130 C120 1.465 . S
C130 U126 2.847 . S
C130 O144 1.249 . S
C130 O145 1.202 . S
C131 C129 1.363 . S
C131 C133 1.408 . S
C131 C136 1.342 . S
C132 C133 1.310 . S
C132 C135 1.461 . S
C132 H152 0.932 . S
C133 C131 1.408 . S
C133 C132 1.310 . S
C133 H153 0.930 . S
C134 C135 1.474 . S
C134 C136 1.285 . S
C134 H154 0.929 . S
C135 C132 1.461 . S
C135 C134 1.474 . S
C136 C131 1.342 . S
C136 C134 1.285 . S
C136 H155 0.930 . S
C137 C140 1.424 . S
C137 C142 1.245 . S
C137 C143 1.428 . S
C138 C141 1.260 . S
C138 C142 1.477 . S
C138 H156 0.932 . S
C139 C140 1.384 . S
C139 C141 1.479 . S
C139 H157 0.929 . S
C140 C137 1.424 . S
C140 C139 1.384 . S
C140 H158 0.928 . S
C141 C138 1.260 . S
C141 C139 1.479 . S
C142 C137 1.245 . S
C142 C138 1.477 . S
C142 H159 0.932 . S
C143 U126 2.882 . S
C143 C137 1.428 . S
C143 O146 1.301 . S
C143 O147 1.282 . S
O144 U126 2.441 . S
O144 C130 1.249 . S
O145 U126 2.420 . S
O145 C130 1.202 . S
O146 U126 2.455 . S
O146 C143 1.301 . S
O147 U126 2.449 . S
O147 C143 1.282 . S
H148 C121 0.931 . S
H149 C123 0.929 . S
H150 C124 0.930 . S
H151 C125 0.931 . S
H152 C132 0.932 . S
H153 C133 0.930 . S
H154 C134 0.929 . S
H155 C136 0.930 . S
H156 C138 0.932 . S
H157 C139 0.929 . S
H158 C140 0.928 . S
H159 C142 0.932 . S
C160 C161 1.264 . S
C160 C165 1.479 . S
C160 C170 1.465 . S
C161 C160 1.264 . S
C161 C163 1.339 . S
C161 H188 0.931 . S
C162 C163 1.395 . S
C162 C164 1.320 . S
C163 C161 1.339 . S
C163 C162 1.395 . S
C163 H189 0.929 . S
C164 C162 1.320 . S
C164 C165 1.405 . S
C164 H190 0.930 . S
C165 C160 1.479 . S
C165 C164 1.405 . S
C165 H191 0.931 . S
U166 O167 2.454 . S
U166 O168 2.458 . S
U166 C169 2.984 . S
U166 C170 2.847 . S
U166 C183 2.882 . S
U166 O184 2.441 . S
U166 O185 2.420 . S
U166 O186 2.455 . S
U166 O187 2.449 . S
O167 U166 2.454 . S
O167 C169 1.353 . S
O168 U166 2.458 . S
O168 C169 1.286 . S
C169 U166 2.984 . S
C169 O167 1.353 . S
C169 O168 1.286 . S
C169 C171 1.363 . S
C170 C160 1.465 . S
C170 U166 2.847 . S
C170 O184 1.249 . S
C170 O185 1.202 . S
C171 C169 1.363 . S
C171 C173 1.408 . S
C171 C176 1.342 . S
C172 C173 1.310 . S
C172 C175 1.461 . S
C172 H192 0.932 . S
C173 C171 1.408 . S
C173 C172 1.310 . S
C173 H193 0.930 . S
C174 C175 1.474 . S
C174 C176 1.285 . S
C174 H194 0.929 . S
C175 C172 1.461 . S
C175 C174 1.474 . S
C176 C171 1.342 . S
C176 C174 1.285 . S
C176 H195 0.930 . S
C177 C180 1.424 . S
C177 C182 1.245 . S
C177 C183 1.428 . S
C178 C181 1.260 . S
C178 C182 1.477 . S
C178 H196 0.932 . S
C179 C180 1.384 . S
C179 C181 1.479 . S
C179 H197 0.929 . S
C180 C177 1.424 . S
C180 C179 1.384 . S
C180 H198 0.928 . S
C181 C178 1.260 . S
C181 C179 1.479 . S
C182 C177 1.245 . S
C182 C178 1.477 . S
C182 H199 0.932 . S
C183 U166 2.882 . S
C183 C177 1.428 . S
C183 O186 1.301 . S
C183 O187 1.282 . S
O184 U166 2.441 . S
O184 C170 1.249 . S
O185 U166 2.420 . S
O185 C170 1.202 . S
O186 U166 2.455 . S
O186 C183 1.301 . S
O187 U166 2.449 . S
O187 C183 1.282 . S
H188 C161 0.931 . S
H189 C163 0.929 . S
H190 C164 0.930 . S
H191 C165 0.931 . S
H192 C172 0.932 . S
H193 C173 0.930 . S
H194 C174 0.929 . S
H195 C176 0.930 . S
H196 C178 0.932 . S
H197 C179 0.929 . S
H198 C180 0.928 . S
H199 C182 0.932 . S
C200 C201 1.264 . S
C200 C205 1.479 . S
C200 C210 1.465 . S
C201 C200 1.264 . S
C201 C203 1.339 . S
C201 H228 0.931 . S
C202 C203 1.395 . S
C202 C204 1.320 . S
C203 C201 1.339 . S
C203 C202 1.395 . S
C203 H229 0.929 . S
C204 C202 1.320 . S
C204 C205 1.405 . S
C204 H230 0.930 . S
C205 C200 1.479 . S
C205 C204 1.405 . S
C205 H231 0.931 . S
U206 O207 2.454 . S
U206 O208 2.458 . S
U206 C209 2.984 . S
U206 C210 2.847 . S
U206 C223 2.882 . S
U206 O224 2.441 . S
U206 O225 2.420 . S
U206 O226 2.455 . S
U206 O227 2.449 . S
O207 U206 2.454 . S
O207 C209 1.353 . S
O208 U206 2.458 . S
O208 C209 1.286 . S
C209 U206 2.984 . S
C209 O207 1.353 . S
C209 O208 1.286 . S
C209 C211 1.363 . S
C210 C200 1.465 . S
C210 U206 2.847 . S
C210 O224 1.249 . S
C210 O225 1.202 . S
C211 C209 1.363 . S
C211 C213 1.408 . S
C211 C216 1.342 . S
C212 C213 1.310 . S
C212 C215 1.461 . S
C212 H232 0.932 . S
C213 C211 1.408 . S
C213 C212 1.310 . S
C213 H233 0.930 . S
C214 C215 1.474 . S
C214 C216 1.285 . S
C214 H234 0.929 . S
C215 C212 1.461 . S
C215 C214 1.474 . S
C216 C211 1.342 . S
C216 C214 1.285 . S
C216 H235 0.930 . S
C217 C220 1.424 . S
C217 C222 1.245 . S
C217 C223 1.428 . S
C218 C221 1.260 . S
C218 C222 1.477 . S
C218 H236 0.932 . S
C219 C220 1.384 . S
C219 C221 1.479 . S
C219 H237 0.929 . S
C220 C217 1.424 . S
C220 C219 1.384 . S
C220 H238 0.928 . S
C221 C218 1.260 . S
C221 C219 1.479 . S
C222 C217 1.245 . S
C222 C218 1.477 . S
C222 H239 0.932 . S
C223 U206 2.882 . S
C223 C217 1.428 . S
C223 O226 1.301 . S
C223 O227 1.282 . S
O224 U206 2.441 . S
O224 C210 1.249 . S
O225 U206 2.420 . S
O225 C210 1.202 . S
O226 U206 2.455 . S
O226 C223 1.301 . S
O227 U206 2.449 . S
O227 C223 1.282 . S
H228 C201 0.931 . S
H229 C203 0.929 . S
H230 C204 0.930 . S
H231 C205 0.931 . S
H232 C212 0.932 . S
H233 C213 0.930 . S
H234 C214 0.929 . S
H235 C216 0.930 . S
H236 C218 0.932 . S
H237 C219 0.929 . S
H238 C220 0.928 . S
H239 C222 0.932 . S
C240 C241 1.264 . S
C240 C245 1.479 . S
C240 C250 1.465 . S
C241 C240 1.264 . S
C241 C243 1.339 . S
C241 H268 0.931 . S
C242 C243 1.395 . S
C242 C244 1.320 . S
C243 C241 1.339 . S
C243 C242 1.395 . S
C243 H269 0.929 . S
C244 C242 1.320 . S
C244 C245 1.405 . S
C244 H270 0.930 . S
C245 C240 1.479 . S
C245 C244 1.405 . S
C245 H271 0.931 . S
U246 O247 2.454 . S
U246 O248 2.458 . S
U246 C249 2.984 . S
U246 C250 2.847 . S
U246 C263 2.882 . S
U246 O264 2.441 . S
U246 O265 2.420 . S
U246 O266 2.455 . S
U246 O267 2.449 . S
O247 U246 2.454 . S
O247 C249 1.353 . S
O248 U246 2.458 . S
O248 C249 1.286 . S
C249 U246 2.984 . S
C249 O247 1.353 . S
C249 O248 1.286 . S
C249 C251 1.363 . S
C250 C240 1.465 . S
C250 U246 2.847 . S
C250 O264 1.249 . S
C250 O265 1.202 . S
C251 C249 1.363 . S
C251 C253 1.408 . S
C251 C256 1.342 . S
C252 C253 1.310 . S
C252 C255 1.461 . S
C252 H272 0.932 . S
C253 C251 1.408 . S
C253 C252 1.310 . S
C253 H273 0.930 . S
C254 C255 1.474 . S
C254 C256 1.285 . S
C254 H274 0.929 . S
C255 C252 1.461 . S
C255 C254 1.474 . S
C256 C251 1.342 . S
C256 C254 1.285 . S
C256 H275 0.930 . S
C257 C260 1.424 . S
C257 C262 1.245 . S
C257 C263 1.428 . S
C258 C261 1.260 . S
C258 C262 1.477 . S
C258 H276 0.932 . S
C259 C260 1.384 . S
C259 C261 1.479 . S
C259 H277 0.929 . S
C260 C257 1.424 . S
C260 C259 1.384 . S
C260 H278 0.928 . S
C261 C258 1.260 . S
C261 C259 1.479 . S
C262 C257 1.245 . S
C262 C258 1.477 . S
C262 H279 0.932 . S
C263 U246 2.882 . S
C263 C257 1.428 . S
C263 O266 1.301 . S
C263 O267 1.282 . S
O264 U246 2.441 . S
O264 C250 1.249 . S
O265 U246 2.420 . S
O265 C250 1.202 . S
O266 U246 2.455 . S
O266 C263 1.301 . S
O267 U246 2.449 . S
O267 C263 1.282 . S
H268 C241 0.931 . S
H269 C243 0.929 . S
H270 C244 0.930 . S
H271 C245 0.931 . S
H272 C252 0.932 . S
H273 C253 0.930 . S
H274 C254 0.929 . S
H275 C256 0.930 . S
H276 C258 0.932 . S
H277 C259 0.929 . S
H278 C260 0.928 . S
H279 C262 0.932 . S
C280 C281 1.264 . S
C280 C285 1.479 . S
C280 C290 1.465 . S
C281 C280 1.264 . S
C281 C283 1.339 . S
C281 H308 0.931 . S
C282 C283 1.395 . S
C282 C284 1.320 . S
C283 C281 1.339 . S
C283 C282 1.395 . S
C283 H309 0.929 . S
C284 C282 1.320 . S
C284 C285 1.405 . S
C284 H310 0.930 . S
C285 C280 1.479 . S
C285 C284 1.405 . S
C285 H311 0.931 . S
U286 O287 2.454 . S
U286 O288 2.458 . S
U286 C289 2.984 . S
U286 C290 2.847 . S
U286 C303 2.882 . S
U286 O304 2.441 . S
U286 O305 2.420 . S
U286 O306 2.455 . S
U286 O307 2.449 . S
O287 U286 2.454 . S
O287 C289 1.353 . S
O288 U286 2.458 . S
O288 C289 1.286 . S
C289 U286 2.984 . S
C289 O287 1.353 . S
C289 O288 1.286 . S
C289 C291 1.363 . S
C290 C280 1.465 . S
C290 U286 2.847 . S
C290 O304 1.249 . S
C290 O305 1.202 . S
C291 C289 1.363 . S
C291 C293 1.408 . S
C291 C296 1.342 . S
C292 C293 1.310 . S
C292 C295 1.461 . S
C292 H312 0.932 . S
C293 C291 1.408 . S
C293 C292 1.310 . S
C293 H313 0.930 . S
C294 C295 1.474 . S
C294 C296 1.285 . S
C294 H314 0.929 . S
C295 C292 1.461 . S
C295 C294 1.474 . S
C296 C291 1.342 . S
C296 C294 1.285 . S
C296 H315 0.930 . S
C297 C300 1.424 . S
C297 C302 1.245 . S
C297 C303 1.428 . S
C298 C301 1.260 . S
C298 C302 1.477 . S
C298 H316 0.932 . S
C299 C300 1.384 . S
C299 C301 1.479 . S
C299 H317 0.929 . S
C300 C297 1.424 . S
C300 C299 1.384 . S
C300 H318 0.928 . S
C301 C298 1.260 . S
C301 C299 1.479 . S
C302 C297 1.245 . S
C302 C298 1.477 . S
C302 H319 0.932 . S
C303 U286 2.882 . S
C303 C297 1.428 . S
C303 O306 1.301 . S
C303 O307 1.282 . S
O304 U286 2.441 . S
O304 C290 1.249 . S
O305 U286 2.420 . S
O305 C290 1.202 . S
O306 U286 2.455 . S
O306 C303 1.301 . S
O307 U286 2.449 . S
O307 C303 1.282 . S
H308 C281 0.931 . S
H309 C283 0.929 . S
H310 C284 0.930 . S
H311 C285 0.931 . S
H312 C292 0.932 . S
H313 C293 0.930 . S
H314 C294 0.929 . S
H315 C296 0.930 . S
H316 C298 0.932 . S
H317 C299 0.929 . S
H318 C300 0.928 . S
H319 C302 0.932 . S
C320 C321 1.264 . S
C320 C325 1.479 . S
C320 C330 1.465 . S
C321 C320 1.264 . S
C321 C323 1.339 . S
C321 H348 0.931 . S
C322 C323 1.395 . S
C322 C324 1.320 . S
C323 C321 1.339 . S
C323 C322 1.395 . S
C323 H349 0.929 . S
C324 C322 1.320 . S
C324 C325 1.405 . S
C324 H350 0.930 . S
C325 C320 1.479 . S
C325 C324 1.405 . S
C325 H351 0.931 . S
U326 O327 2.454 . S
U326 O328 2.458 . S
U326 C329 2.984 . S
U326 C330 2.847 . S
U326 C343 2.882 . S
U326 O344 2.441 . S
U326 O345 2.420 . S
U326 O346 2.455 . S
U326 O347 2.449 . S
O327 U326 2.454 . S
O327 C329 1.353 . S
O328 U326 2.458 . S
O328 C329 1.286 . S
C329 U326 2.984 . S
C329 O327 1.353 . S
C329 O328 1.286 . S
C329 C331 1.363 . S
C330 C320 1.465 . S
C330 U326 2.847 . S
C330 O344 1.249 . S
C330 O345 1.202 . S
C331 C329 1.363 . S
C331 C333 1.408 . S
C331 C336 1.342 . S
C332 C333 1.310 . S
C332 C335 1.461 . S
C332 H352 0.932 . S
C333 C331 1.408 . S
C333 C332 1.310 . S
C333 H353 0.930 . S
C334 C335 1.474 . S
C334 C336 1.285 . S
C334 H354 0.929 . S
C335 C332 1.461 . S
C335 C334 1.474 . S
C336 C331 1.342 . S
C336 C334 1.285 . S
C336 H355 0.930 . S
C337 C340 1.424 . S
C337 C342 1.245 . S
C337 C343 1.428 . S
C338 C341 1.260 . S
C338 C342 1.477 . S
C338 H356 0.932 . S
C339 C340 1.384 . S
C339 C341 1.479 . S
C339 H357 0.929 . S
C340 C337 1.424 . S
C340 C339 1.384 . S
C340 H358 0.928 . S
C341 C338 1.260 . S
C341 C339 1.479 . S
C342 C337 1.245 . S
C342 C338 1.477 . S
C342 H359 0.932 . S
C343 U326 2.882 . S
C343 C337 1.428 . S
C343 O346 1.301 . S
C343 O347 1.282 . S
O344 U326 2.441 . S
O344 C330 1.249 . S
O345 U326 2.420 . S
O345 C330 1.202 . S
O346 U326 2.455 . S
O346 C343 1.301 . S
O347 U326 2.449 . S
O347 C343 1.282 . S
H348 C321 0.931 . S
H349 C323 0.929 . S
H350 C324 0.930 . S
H351 C325 0.931 . S
H352 C332 0.932 . S
H353 C333 0.930 . S
H354 C334 0.929 . S
H355 C336 0.930 . S
H356 C338 0.932 . S
H357 C339 0.929 . S
H358 C340 0.928 . S
H359 C342 0.932 . S
C360 C361 1.264 . S
C360 C365 1.479 . S
C360 C370 1.465 . S
C361 C360 1.264 . S
C361 C363 1.339 . S
C361 H388 0.931 . S
C362 C363 1.395 . S
C362 C364 1.320 . S
C363 C361 1.339 . S
C363 C362 1.395 . S
C363 H389 0.929 . S
C364 C362 1.320 . S
C364 C365 1.405 . S
C364 H390 0.930 . S
C365 C360 1.479 . S
C365 C364 1.405 . S
C365 H391 0.931 . S
U366 O367 2.454 . S
U366 O368 2.458 . S
U366 C369 2.984 . S
U366 C370 2.847 . S
U366 C383 2.882 . S
U366 O384 2.441 . S
U366 O385 2.420 . S
U366 O386 2.455 . S
U366 O387 2.449 . S
O367 U366 2.454 . S
O367 C369 1.353 . S
O368 U366 2.458 . S
O368 C369 1.286 . S
C369 U366 2.984 . S
C369 O367 1.353 . S
C369 O368 1.286 . S
C369 C371 1.363 . S
C370 C360 1.465 . S
C370 U366 2.847 . S
C370 O384 1.249 . S
C370 O385 1.202 . S
C371 C369 1.363 . S
C371 C373 1.408 . S
C371 C376 1.342 . S
C372 C373 1.310 . S
C372 C375 1.461 . S
C372 H392 0.932 . S
C373 C371 1.408 . S
C373 C372 1.310 . S
C373 H393 0.930 . S
C374 C375 1.474 . S
C374 C376 1.285 . S
C374 H394 0.929 . S
C375 C372 1.461 . S
C375 C374 1.474 . S
C376 C371 1.342 . S
C376 C374 1.285 . S
C376 H395 0.930 . S
C377 C380 1.424 . S
C377 C382 1.245 . S
C377 C383 1.428 . S
C378 C381 1.260 . S
C378 C382 1.477 . S
C378 H396 0.932 . S
C379 C380 1.384 . S
C379 C381 1.479 . S
C379 H397 0.929 . S
C380 C377 1.424 . S
C380 C379 1.384 . S
C380 H398 0.928 . S
C381 C378 1.260 . S
C381 C379 1.479 . S
C382 C377 1.245 . S
C382 C378 1.477 . S
C382 H399 0.932 . S
C383 U366 2.882 . S
C383 C377 1.428 . S
C383 O386 1.301 . S
C383 O387 1.282 . S
O384 U366 2.441 . S
O384 C370 1.249 . S
O385 U366 2.420 . S
O385 C370 1.202 . S
O386 U366 2.455 . S
O386 C383 1.301 . S
O387 U366 2.449 . S
O387 C383 1.282 . S
H388 C361 0.931 . S
H389 C363 0.929 . S
H390 C364 0.930 . S
H391 C365 0.931 . S
H392 C372 0.932 . S
H393 C373 0.930 . S
H394 C374 0.929 . S
H395 C376 0.930 . S
H396 C378 0.932 . S
H397 C379 0.929 . S
H398 C380 0.928 . S
H399 C382 0.932 . S
C400 C401 1.264 . S
C400 C405 1.479 . S
C400 C410 1.465 . S
C401 C400 1.264 . S
C401 C403 1.339 . S
C401 H428 0.931 . S
C402 C403 1.395 . S
C402 C404 1.320 . S
C403 C401 1.339 . S
C403 C402 1.395 . S
C403 H429 0.929 . S
C404 C402 1.320 . S
C404 C405 1.405 . S
C404 H430 0.930 . S
C405 C400 1.479 . S
C405 C404 1.405 . S
C405 H431 0.931 . S
U406 O407 2.454 . S
U406 O408 2.458 . S
U406 C409 2.984 . S
U406 C410 2.847 . S
U406 C423 2.882 . S
U406 O424 2.441 . S
U406 O425 2.420 . S
U406 O426 2.455 . S
U406 O427 2.449 . S
O407 U406 2.454 . S
O407 C409 1.353 . S
O408 U406 2.458 . S
O408 C409 1.286 . S
C409 U406 2.984 . S
C409 O407 1.353 . S
C409 O408 1.286 . S
C409 C411 1.363 . S
C410 C400 1.465 . S
C410 U406 2.847 . S
C410 O424 1.249 . S
C410 O425 1.202 . S
C411 C409 1.363 . S
C411 C413 1.408 . S
C411 C416 1.342 . S
C412 C413 1.310 . S
C412 C415 1.461 . S
C412 H432 0.932 . S
C413 C411 1.408 . S
C413 C412 1.310 . S
C413 H433 0.930 . S
C414 C415 1.474 . S
C414 C416 1.285 . S
C414 H434 0.929 . S
C415 C412 1.461 . S
C415 C414 1.474 . S
C416 C411 1.342 . S
C416 C414 1.285 . S
C416 H435 0.930 . S
C417 C420 1.424 . S
C417 C422 1.245 . S
C417 C423 1.428 . S
C418 C421 1.260 . S
C418 C422 1.477 . S
C418 H436 0.932 . S
C419 C420 1.384 . S
C419 C421 1.479 . S
C419 H437 0.929 . S
C420 C417 1.424 . S
C420 C419 1.384 . S
C420 H438 0.928 . S
C421 C418 1.260 . S
C421 C419 1.479 . S
C422 C417 1.245 . S
C422 C418 1.477 . S
C422 H439 0.932 . S
C423 U406 2.882 . S
C423 C417 1.428 . S
C423 O426 1.301 . S
C423 O427 1.282 . S
O424 U406 2.441 . S
O424 C410 1.249 . S
O425 U406 2.420 . S
O425 C410 1.202 . S
O426 U406 2.455 . S
O426 C423 1.301 . S
O427 U406 2.449 . S
O427 C423 1.282 . S
H428 C401 0.931 . S
H429 C403 0.929 . S
H430 C404 0.930 . S
H431 C405 0.931 . S
H432 C412 0.932 . S
H433 C413 0.930 . S
H434 C414 0.929 . S
H435 C416 0.930 . S
H436 C418 0.932 . S
H437 C419 0.929 . S
H438 C420 0.928 . S
H439 C422 0.932 . S
C440 C441 1.264 . S
C440 C445 1.479 . S
C440 C450 1.465 . S
C441 C440 1.264 . S
C441 C443 1.339 . S
C441 H468 0.931 . S
C442 C443 1.395 . S
C442 C444 1.320 . S
C443 C441 1.339 . S
C443 C442 1.395 . S
C443 H469 0.929 . S
C444 C442 1.320 . S
C444 C445 1.405 . S
C444 H470 0.930 . S
C445 C440 1.479 . S
C445 C444 1.405 . S
C445 H471 0.931 . S
U446 O447 2.454 . S
U446 O448 2.458 . S
U446 C449 2.984 . S
U446 C450 2.847 . S
U446 C463 2.882 . S
U446 O464 2.441 . S
U446 O465 2.420 . S
U446 O466 2.455 . S
U446 O467 2.449 . S
O447 U446 2.454 . S
O447 C449 1.353 . S
O448 U446 2.458 . S
O448 C449 1.286 . S
C449 U446 2.984 . S
C449 O447 1.353 . S
C449 O448 1.286 . S
C449 C451 1.363 . S
C450 C440 1.465 . S
C450 U446 2.847 . S
C450 O464 1.249 . S
C450 O465 1.202 . S
C451 C449 1.363 . S
C451 C453 1.408 . S
C451 C456 1.342 . S
C452 C453 1.310 . S
C452 C455 1.461 . S
C452 H472 0.932 . S
C453 C451 1.408 . S
C453 C452 1.310 . S
C453 H473 0.930 . S
C454 C455 1.474 . S
C454 C456 1.285 . S
C454 H474 0.929 . S
C455 C452 1.461 . S
C455 C454 1.474 . S
C456 C451 1.342 . S
C456 C454 1.285 . S
C456 H475 0.930 . S
C457 C460 1.424 . S
C457 C462 1.245 . S
C457 C463 1.428 . S
C458 C461 1.260 . S
C458 C462 1.477 . S
C458 H476 0.932 . S
C459 C460 1.384 . S
C459 C461 1.479 . S
C459 H477 0.929 . S
C460 C457 1.424 . S
C460 C459 1.384 . S
C460 H478 0.928 . S
C461 C458 1.260 . S
C461 C459 1.479 . S
C462 C457 1.245 . S
C462 C458 1.477 . S
C462 H479 0.932 . S
C463 U446 2.882 . S
C463 C457 1.428 . S
C463 O466 1.301 . S
C463 O467 1.282 . S
O464 U446 2.441 . S
O464 C450 1.249 . S
O465 U446 2.420 . S
O465 C450 1.202 . S
O466 U446 2.455 . S
O466 C463 1.301 . S
O467 U446 2.449 . S
O467 C463 1.282 . S
H468 C441 0.931 . S
H469 C443 0.929 . S
H470 C444 0.930 . S
H471 C445 0.931 . S
H472 C452 0.932 . S
H473 C453 0.930 . S
H474 C454 0.929 . S
H475 C456 0.930 . S
H476 C458 0.932 . S
H477 C459 0.929 . S
H478 C460 0.928 . S
H479 C462 0.932 . S
C480 C481 1.264 . S
C480 C485 1.479 . S
C480 C490 1.465 . S
C481 C480 1.264 . S
C481 C483 1.339 . S
C481 H508 0.931 . S
C482 C483 1.395 . S
C482 C484 1.320 . S
C483 C481 1.339 . S
C483 C482 1.395 . S
C483 H509 0.929 . S
C484 C482 1.320 . S
C484 C485 1.405 . S
C484 H510 0.930 . S
C485 C480 1.479 . S
C485 C484 1.405 . S
C485 H511 0.931 . S
U486 O487 2.454 . S
U486 O488 2.458 . S
U486 C489 2.984 . S
U486 C490 2.847 . S
U486 C503 2.882 . S
U486 O504 2.441 . S
U486 O505 2.420 . S
U486 O506 2.455 . S
U486 O507 2.449 . S
O487 U486 2.454 . S
O487 C489 1.353 . S
O488 U486 2.458 . S
O488 C489 1.286 . S
C489 U486 2.984 . S
C489 O487 1.353 . S
C489 O488 1.286 . S
C489 C491 1.363 . S
C490 C480 1.465 . S
C490 U486 2.847 . S
C490 O504 1.249 . S
C490 O505 1.202 . S
C491 C489 1.363 . S
C491 C493 1.408 . S
C491 C496 1.342 . S
C492 C493 1.310 . S
C492 C495 1.461 . S
C492 H512 0.932 . S
C493 C491 1.408 . S
C493 C492 1.310 . S
C493 H513 0.930 . S
C494 C495 1.474 . S
C494 C496 1.285 . S
C494 H514 0.929 . S
C495 C492 1.461 . S
C495 C494 1.474 . S
C496 C491 1.342 . S
C496 C494 1.285 . S
C496 H515 0.930 . S
C497 C500 1.424 . S
C497 C502 1.245 . S
C497 C503 1.428 . S
C498 C501 1.260 . S
C498 C502 1.477 . S
C498 H516 0.932 . S
C499 C500 1.384 . S
C499 C501 1.479 . S
C499 H517 0.929 . S
C500 C497 1.424 . S
C500 C499 1.384 . S
C500 H518 0.928 . S
C501 C498 1.260 . S
C501 C499 1.479 . S
C502 C497 1.245 . S
C502 C498 1.477 . S
C502 H519 0.932 . S
C503 U486 2.882 . S
C503 C497 1.428 . S
C503 O506 1.301 . S
C503 O507 1.282 . S
O504 U486 2.441 . S
O504 C490 1.249 . S
O505 U486 2.420 . S
O505 C490 1.202 . S
O506 U486 2.455 . S
O506 C503 1.301 . S
O507 U486 2.449 . S
O507 C503 1.282 . S
H508 C481 0.931 . S
H509 C483 0.929 . S
H510 C484 0.930 . S
H511 C485 0.931 . S
H512 C492 0.932 . S
H513 C493 0.930 . S
H514 C494 0.929 . S
H515 C496 0.930 . S
H516 C498 0.932 . S
H517 C499 0.929 . S
H518 C500 0.928 . S
H519 C502 0.932 . S
C520 C521 1.264 . S
C520 C525 1.479 . S
C520 C530 1.465 . S
C521 C520 1.264 . S
C521 C523 1.339 . S
C521 H548 0.931 . S
C522 C523 1.395 . S
C522 C524 1.320 . S
C523 C521 1.339 . S
C523 C522 1.395 . S
C523 H549 0.929 . S
C524 C522 1.320 . S
C524 C525 1.405 . S
C524 H550 0.930 . S
C525 C520 1.479 . S
C525 C524 1.405 . S
C525 H551 0.931 . S
U526 O527 2.454 . S
U526 O528 2.458 . S
U526 C529 2.984 . S
U526 C530 2.847 . S
U526 C543 2.882 . S
U526 O544 2.441 . S
U526 O545 2.420 . S
U526 O546 2.455 . S
U526 O547 2.449 . S
O527 U526 2.454 . S
O527 C529 1.353 . S
O528 U526 2.458 . S
O528 C529 1.286 . S
C529 U526 2.984 . S
C529 O527 1.353 . S
C529 O528 1.286 . S
C529 C531 1.363 . S
C530 C520 1.465 . S
C530 U526 2.847 . S
C530 O544 1.249 . S
C530 O545 1.202 . S
C531 C529 1.363 . S
C531 C533 1.408 . S
C531 C536 1.342 . S
C532 C533 1.310 . S
C532 C535 1.461 . S
C532 H552 0.932 . S
C533 C531 1.408 . S
C533 C532 1.310 . S
C533 H553 0.930 . S
C534 C535 1.474 . S
C534 C536 1.285 . S
C534 H554 0.929 . S
C535 C532 1.461 . S
C535 C534 1.474 . S
C536 C531 1.342 . S
C536 C534 1.285 . S
C536 H555 0.930 . S
C537 C540 1.424 . S
C537 C542 1.245 . S
C537 C543 1.428 . S
C538 C541 1.260 . S
C538 C542 1.477 . S
C538 H556 0.932 . S
C539 C540 1.384 . S
C539 C541 1.479 . S
C539 H557 0.929 . S
C540 C537 1.424 . S
C540 C539 1.384 . S
C540 H558 0.928 . S
C541 C538 1.260 . S
C541 C539 1.479 . S
C542 C537 1.245 . S
C542 C538 1.477 . S
C542 H559 0.932 . S
C543 U526 2.882 . S
C543 C537 1.428 . S
C543 O546 1.301 . S
C543 O547 1.282 . S
O544 U526 2.441 . S
O544 C530 1.249 . S
O545 U526 2.420 . S
O545 C530 1.202 . S
O546 U526 2.455 . S
O546 C543 1.301 . S
O547 U526 2.449 . S
O547 C543 1.282 . S
H548 C521 0.931 . S
H549 C523 0.929 . S
H550 C524 0.930 . S
H551 C525 0.931 . S
H552 C532 0.932 . S
H553 C533 0.930 . S
H554 C534 0.929 . S
H555 C536 0.930 . S
H556 C538 0.932 . S
H557 C539 0.929 . S
H558 C540 0.928 . S
H559 C542 0.932 . S
C560 C561 1.264 . S
C560 C565 1.479 . S
C560 C570 1.465 . S
C561 C560 1.264 . S
C561 C563 1.339 . S
C561 H588 0.931 . S
C562 C563 1.395 . S
C562 C564 1.320 . S
C563 C561 1.339 . S
C563 C562 1.395 . S
C563 H589 0.929 . S
C564 C562 1.320 . S
C564 C565 1.405 . S
C564 H590 0.930 . S
C565 C560 1.479 . S
C565 C564 1.405 . S
C565 H591 0.931 . S
U566 O567 2.454 . S
U566 O568 2.458 . S
U566 C569 2.984 . S
U566 C570 2.847 . S
U566 C583 2.882 . S
U566 O584 2.441 . S
U566 O585 2.420 . S
U566 O586 2.455 . S
U566 O587 2.449 . S
O567 U566 2.454 . S
O567 C569 1.353 . S
O568 U566 2.458 . S
O568 C569 1.286 . S
C569 U566 2.984 . S
C569 O567 1.353 . S
C569 O568 1.286 . S
C569 C571 1.363 . S
C570 C560 1.465 . S
C570 U566 2.847 . S
C570 O584 1.249 . S
C570 O585 1.202 . S
C571 C569 1.363 . S
C571 C573 1.408 . S
C571 C576 1.342 . S
C572 C573 1.310 . S
C572 C575 1.461 . S
C572 H592 0.932 . S
C573 C571 1.408 . S
C573 C572 1.310 . S
C573 H593 0.930 . S
C574 C575 1.474 . S
C574 C576 1.285 . S
C574 H594 0.929 . S
C575 C572 1.461 . S
C575 C574 1.474 . S
C576 C571 1.342 . S
C576 C574 1.285 . S
C576 H595 0.930 . S
C577 C580 1.424 . S
C577 C582 1.245 . S
C577 C583 1.428 . S
C578 C581 1.260 . S
C578 C582 1.477 . S
C578 H596 0.932 . S
C579 C580 1.384 . S
C579 C581 1.479 . S
C579 H597 0.929 . S
C580 C577 1.424 . S
C580 C579 1.384 . S
C580 H598 0.928 . S
C581 C578 1.260 . S
C581 C579 1.479 . S
C582 C577 1.245 . S
C582 C578 1.477 . S
C582 H599 0.932 . S
C583 U566 2.882 . S
C583 C577 1.428 . S
C583 O586 1.301 . S
C583 O587 1.282 . S
O584 U566 2.441 . S
O584 C570 1.249 . S
O585 U566 2.420 . S
O585 C570 1.202 . S
O586 U566 2.455 . S
O586 C583 1.301 . S
O587 U566 2.449 . S
O587 C583 1.282 . S
H588 C561 0.931 . S
H589 C563 0.929 . S
H590 C564 0.930 . S
H591 C565 0.931 . S
H592 C572 0.932 . S
H593 C573 0.930 . S
H594 C574 0.929 . S
H595 C576 0.930 . S
H596 C578 0.932 . S
H597 C579 0.929 . S
H598 C580 0.928 . S
H599 C582 0.932 . S
C600 C601 1.264 . S
C600 C605 1.479 . S
C600 C610 1.465 . S
C601 C600 1.264 . S
C601 C603 1.339 . S
C601 H628 0.931 . S
C602 C603 1.395 . S
C602 C604 1.320 . S
C603 C601 1.339 . S
C603 C602 1.395 . S
C603 H629 0.929 . S
C604 C602 1.320 . S
C604 C605 1.405 . S
C604 H630 0.930 . S
C605 C600 1.479 . S
C605 C604 1.405 . S
C605 H631 0.931 . S
U606 O607 2.454 . S
U606 O608 2.458 . S
U606 C609 2.984 . S
U606 C610 2.847 . S
U606 C623 2.882 . S
U606 O624 2.441 . S
U606 O625 2.420 . S
U606 O626 2.455 . S
U606 O627 2.449 . S
O607 U606 2.454 . S
O607 C609 1.353 . S
O608 U606 2.458 . S
O608 C609 1.286 . S
C609 U606 2.984 . S
C609 O607 1.353 . S
C609 O608 1.286 . S
C609 C611 1.363 . S
C610 C600 1.465 . S
C610 U606 2.847 . S
C610 O624 1.249 . S
C610 O625 1.202 . S
C611 C609 1.363 . S
C611 C613 1.408 . S
C611 C616 1.342 . S
C612 C613 1.310 . S
C612 C615 1.461 . S
C612 H632 0.932 . S
C613 C611 1.408 . S
C613 C612 1.310 . S
C613 H633 0.930 . S
C614 C615 1.474 . S
C614 C616 1.285 . S
C614 H634 0.929 . S
C615 C612 1.461 . S
C615 C614 1.474 . S
C616 C611 1.342 . S
C616 C614 1.285 . S
C616 H635 0.930 . S
C617 C620 1.424 . S
C617 C622 1.245 . S
C617 C623 1.428 . S
C618 C621 1.260 . S
C618 C622 1.477 . S
C618 H636 0.932 . S
C619 C620 1.384 . S
C619 C621 1.479 . S
C619 H637 0.929 . S
C620 C617 1.424 . S
C620 C619 1.384 . S
C620 H638 0.928 . S
C621 C618 1.260 . S
C621 C619 1.479 . S
C622 C617 1.245 . S
C622 C618 1.477 . S
C622 H639 0.932 . S
C623 U606 2.882 . S
C623 C617 1.428 . S
C623 O626 1.301 . S
C623 O627 1.282 . S
O624 U606 2.441 . S
O624 C610 1.249 . S
O625 U606 2.420 . S
O625 C610 1.202 . S
O626 U606 2.455 . S
O626 C623 1.301 . S
O627 U606 2.449 . S
O627 C623 1.282 . S
H628 C601 0.931 . S
H629 C603 0.929 . S
H630 C604 0.930 . S
H631 C605 0.931 . S
H632 C612 0.932 . S
H633 C613 0.930 . S
H634 C614 0.929 . S
H635 C616 0.930 . S
H636 C618 0.932 . S
H637 C619 0.929 . S
H638 C620 0.928 . S
H639 C622 0.932 . S
H640 C652 0.930 . S
H641 C654 0.930 . S
H642 C655 0.930 . S
H643 C659 0.959 . S
H644 C659 0.959 . S
H645 C659 0.961 . S
H646 C660 0.960 . S
H647 C660 0.961 . S
H648 C660 0.959 . S
H649 C663 0.929 . S
H650 C664 0.931 . S
H651 C666 0.930 . S
C652 H640 0.930 . S
C652 C653 1.399 . S
C652 C657 1.399 . S
C653 C652 1.399 . S
C653 C654 1.376 . S
C654 H641 0.930 . S
C654 C653 1.376 . S
C654 C655 1.388 . S
C655 H642 0.930 . S
C655 C654 1.388 . S
C655 C656 1.390 . S
C656 C655 1.390 . S
C656 C657 1.394 . S
C656 C662 1.465 . S
C657 C652 1.399 . S
C657 C656 1.394 . S
C657 C658 1.516 . S
C658 C657 1.516 . S
C658 C659 1.502 . S
C658 C660 1.561 . S
C658 C661 1.526 . S
C659 H643 0.959 . S
C659 H644 0.959 . S
C659 H645 0.961 . S
C659 C658 1.502 . S
C660 H646 0.960 . S
C660 H647 0.961 . S
C660 H648 0.959 . S
C660 C658 1.561 . S
C661 C658 1.526 . S
C661 C662 1.396 . S
C661 C666 1.390 . S
C662 C656 1.465 . S
C662 C661 1.396 . S
C662 C663 1.399 . S
C663 H649 0.929 . S
C663 C662 1.399 . S
C663 C664 1.385 . S
C664 H650 0.931 . S
C664 C663 1.385 . S
C664 C665 1.389 . S
C665 C664 1.389 . S
C665 C666 1.387 . S
C666 H651 0.930 . S
C666 C661 1.390 . S
C666 C665 1.387 . S
H667 C679 0.930 . S
H668 C681 0.930 . S
H669 C682 0.930 . S
H670 C686 0.959 . S
H671 C686 0.959 . S
H672 C686 0.961 . S
H673 C687 0.960 . S
H674 C687 0.961 . S
H675 C687 0.959 . S
H676 C690 0.929 . S
H677 C691 0.931 . S
H678 C693 0.930 . S
C679 H667 0.930 . S
C679 C680 1.399 . S
C679 C684 1.399 . S
C680 C679 1.399 . S
C680 C681 1.376 . S
C681 H668 0.930 . S
C681 C680 1.376 . S
C681 C682 1.388 . S
C682 H669 0.930 . S
C682 C681 1.388 . S
C682 C683 1.390 . S
C683 C682 1.390 . S
C683 C684 1.394 . S
C683 C689 1.465 . S
C684 C679 1.399 . S
C684 C683 1.394 . S
C684 C685 1.516 . S
C685 C684 1.516 . S
C685 C686 1.502 . S
C685 C687 1.561 . S
C685 C688 1.526 . S
C686 H670 0.959 . S
C686 H671 0.959 . S
C686 H672 0.961 . S
C686 C685 1.502 . S
C687 H673 0.960 . S
C687 H674 0.961 . S
C687 H675 0.959 . S
C687 C685 1.561 . S
C688 C685 1.526 . S
C688 C689 1.396 . S
C688 C693 1.390 . S
C689 C683 1.465 . S
C689 C688 1.396 . S
C689 C690 1.399 . S
C690 H676 0.929 . S
C690 C689 1.399 . S
C690 C691 1.385 . S
C691 H677 0.931 . S
C691 C690 1.385 . S
C691 C692 1.389 . S
C692 C691 1.389 . S
C692 C693 1.387 . S
C693 H678 0.930 . S
C693 C688 1.390 . S
C693 C692 1.387 . S
H694 C706 0.930 . S
H695 C708 0.930 . S
H696 C709 0.930 . S
H697 C713 1.007 . S
H698 C713 1.020 . S
H699 C713 0.874 1_556 S
H700 C714 0.960 . S
H701 C714 0.977 . S
H702 C714 0.959 . S
H703 C717 0.929 . S
H704 C718 0.931 . S
H705 C720 0.930 . S
C706 H694 0.930 . S
C706 C707 1.399 . S
C706 C711 1.399 . S
C707 C706 1.399 . S
C707 C708 1.376 . S
C708 H695 0.930 . S
C708 C707 1.376 . S
C708 C709 1.388 . S
C709 H696 0.930 . S
C709 C708 1.388 . S
C709 C710 1.390 . S
C710 C709 1.390 . S
C710 C711 1.394 . S
C710 C716 1.465 1_556 S
C711 C706 1.399 . S
C711 C710 1.394 . S
C711 C712 1.553 . S
C712 C711 1.553 . S
C712 C713 1.491 1_556 S
C712 C714 1.584 . S
C712 C715 1.475 1_556 S
C713 H697 1.007 . S
C713 H698 1.020 . S
C713 H699 0.874 1_554 S
C713 C712 1.491 1_554 S
C714 H700 0.960 . S
C714 H701 0.977 . S
C714 H702 0.959 . S
C714 C712 1.584 . S
C715 C712 1.475 1_554 S
C715 C716 1.396 . S
C715 C720 1.390 . S
C716 C710 1.465 1_554 S
C716 C715 1.396 . S
C716 C717 1.399 . S
C717 H703 0.929 . S
C717 C716 1.399 . S
C717 C718 1.385 . S
C718 H704 0.931 . S
C718 C717 1.385 . S
C718 C719 1.389 . S
C719 C718 1.389 . S
C719 C720 1.387 . S
C720 H705 0.930 . S
C720 C715 1.390 . S
C720 C719 1.387 . S
H721 C733 0.930 . S
H722 C735 0.930 . S
H723 C736 0.930 . S
H724 C740 0.959 . S
H725 C740 0.959 . S
H726 C740 0.961 . S
H727 C741 0.960 . S
H728 C741 0.961 . S
H729 C741 0.959 . S
H730 C744 0.929 . S
H731 C745 0.931 . S
H732 C747 0.930 . S
C733 H721 0.930 . S
C733 C734 1.399 . S
C733 C738 1.399 . S
C734 C733 1.399 . S
C734 C735 1.376 . S
C735 H722 0.930 . S
C735 C734 1.376 . S
C735 C736 1.388 . S
C736 H723 0.930 . S
C736 C735 1.388 . S
C736 C737 1.390 . S
C737 C736 1.390 . S
C737 C738 1.394 . S
C737 C743 1.465 . S
C738 C733 1.399 . S
C738 C737 1.394 . S
C738 C739 1.516 . S
C739 C738 1.516 . S
C739 C740 1.502 . S
C739 C741 1.561 . S
C739 C742 1.526 . S
C740 H724 0.959 . S
C740 H725 0.959 . S
C740 H726 0.961 . S
C740 C739 1.502 . S
C741 H727 0.960 . S
C741 H728 0.961 . S
C741 H729 0.959 . S
C741 C739 1.561 . S
C742 C739 1.526 . S
C742 C743 1.396 . S
C742 C747 1.390 . S
C743 C737 1.465 . S
C743 C742 1.396 . S
C743 C744 1.399 . S
C744 H730 0.929 . S
C744 C743 1.399 . S
C744 C745 1.385 . S
C745 H731 0.931 . S
C745 C744 1.385 . S
C745 C746 1.389 . S
C746 C745 1.389 . S
C746 C747 1.387 . S
C747 H732 0.930 . S
C747 C742 1.390 . S
C747 C746 1.387 . S
H748 C760 0.930 . S
H749 C762 0.930 . S
H750 C763 0.930 . S
H751 C767 0.959 . S
H752 C767 0.959 . S
H753 C767 0.961 . S
H754 C768 0.960 . S
H755 C768 0.961 . S
H756 C768 0.959 . S
H757 C771 0.929 . S
H758 C772 0.931 . S
H759 C774 0.930 . S
C760 H748 0.930 . S
C760 C761 1.399 . S
C760 C765 1.399 . S
C761 C760 1.399 . S
C761 C762 1.376 . S
C762 H749 0.930 . S
C762 C761 1.376 . S
C762 C763 1.388 . S
C763 H750 0.930 . S
C763 C762 1.388 . S
C763 C764 1.390 . S
C764 C763 1.390 . S
C764 C765 1.394 . S
C764 C770 1.465 . S
C765 C760 1.399 . S
C765 C764 1.394 . S
C765 C766 1.516 . S
C766 C765 1.516 . S
C766 C767 1.502 . S
C766 C768 1.561 . S
C766 C769 1.526 . S
C767 H751 0.959 . S
C767 H752 0.959 . S
C767 H753 0.961 . S
C767 C766 1.502 . S
C768 H754 0.960 . S
C768 H755 0.961 . S
C768 H756 0.959 . S
C768 C766 1.561 . S
C769 C766 1.526 . S
C769 C770 1.396 . S
C769 C774 1.390 . S
C770 C764 1.465 . S
C770 C769 1.396 . S
C770 C771 1.399 . S
C771 H757 0.929 . S
C771 C770 1.399 . S
C771 C772 1.385 . S
C772 H758 0.931 . S
C772 C771 1.385 . S
C772 C773 1.389 . S
C773 C772 1.389 . S
C773 C774 1.387 . S
C774 H759 0.930 . S
C774 C769 1.390 . S
C774 C773 1.387 . S
H775 C787 0.930 . S
H776 C789 0.930 . S
H777 C790 0.930 . S
H778 C794 0.959 . S
H779 C794 0.959 . S
H780 C794 0.961 . S
H781 C795 0.934 1_556 S
H782 C795 0.993 . S
H783 C795 0.948 1_556 S
H784 C798 0.929 . S
H785 C799 0.931 . S
H786 C801 0.930 . S
C787 H775 0.930 . S
C787 C788 1.399 . S
C787 C792 1.399 . S
C788 C787 1.399 . S
C788 C789 1.376 . S
C789 H776 0.930 . S
C789 C788 1.376 . S
C789 C790 1.388 . S
C790 H777 0.930 . S
C790 C789 1.388 . S
C790 C791 1.390 . S
C791 C790 1.390 . S
C791 C792 1.394 . S
C791 C797 1.465 1_556 S
C792 C787 1.399 . S
C792 C791 1.394 . S
C792 C793 1.516 1_556 S
C793 C792 1.516 1_554 S
C793 C794 1.502 . S
C793 C795 1.568 . S
C793 C796 1.526 . S
C794 H778 0.959 . S
C794 H779 0.959 . S
C794 H780 0.961 . S
C794 C793 1.502 . S
C795 H781 0.934 1_554 S
C795 H782 0.993 . S
C795 H783 0.948 1_554 S
C795 C793 1.568 . S
C796 C793 1.526 . S
C796 C797 1.396 . S
C796 C801 1.390 . S
C797 C791 1.465 1_554 S
C797 C796 1.396 . S
C797 C798 1.399 . S
C798 H784 0.929 . S
C798 C797 1.399 . S
C798 C799 1.385 . S
C799 H785 0.931 . S
C799 C798 1.385 . S
C799 C800 1.389 . S
C800 C799 1.389 . S
C800 C801 1.387 . S
C801 H786 0.930 . S
C801 C796 1.390 . S
C801 C800 1.387 . S
H802 C814 0.930 . S
H803 C816 0.930 . S
H804 C817 0.930 . S
H805 C821 0.959 . S
H806 C821 0.959 . S
H807 C821 0.961 . S
H808 C822 0.960 . S
H809 C822 0.961 . S
H810 C822 0.959 . S
H811 C825 0.929 . S
H812 C826 0.931 . S
H813 C828 0.930 . S
C814 H802 0.930 . S
C814 C815 1.399 . S
C814 C819 1.399 . S
C815 C814 1.399 . S
C815 C816 1.376 . S
C816 H803 0.930 . S
C816 C815 1.376 . S
C816 C817 1.388 . S
C817 H804 0.930 . S
C817 C816 1.388 . S
C817 C818 1.390 . S
C818 C817 1.390 . S
C818 C819 1.394 . S
C818 C824 1.465 . S
C819 C814 1.399 . S
C819 C818 1.394 . S
C819 C820 1.516 . S
C820 C819 1.516 . S
C820 C821 1.502 . S
C820 C822 1.561 . S
C820 C823 1.526 . S
C821 H805 0.959 . S
C821 H806 0.959 . S
C821 H807 0.961 . S
C821 C820 1.502 . S
C822 H808 0.960 . S
C822 H809 0.961 . S
C822 H810 0.959 . S
C822 C820 1.561 . S
C823 C820 1.526 . S
C823 C824 1.396 . S
C823 C828 1.390 . S
C824 C818 1.465 . S
C824 C823 1.396 . S
C824 C825 1.399 . S
C825 H811 0.929 . S
C825 C824 1.399 . S
C825 C826 1.385 . S
C826 H812 0.931 . S
C826 C825 1.385 . S
C826 C827 1.389 . S
C827 C826 1.389 . S
C827 C828 1.387 . S
C828 H813 0.930 . S
C828 C823 1.390 . S
C828 C827 1.387 . S
H829 C841 0.930 . S
H830 C843 0.930 . S
H831 C844 0.930 . S
H832 C848 0.959 . S
H833 C848 0.959 . S
H834 C848 0.961 . S
H835 C849 0.960 . S
H836 C849 0.961 . S
H837 C849 0.959 . S
H838 C852 0.929 . S
H839 C853 0.931 . S
H840 C855 0.930 . S
C841 H829 0.930 . S
C841 C842 1.399 . S
C841 C846 1.399 . S
C842 C841 1.399 . S
C842 C843 1.376 . S
C843 H830 0.930 . S
C843 C842 1.376 . S
C843 C844 1.388 . S
C844 H831 0.930 . S
C844 C843 1.388 . S
C844 C845 1.390 . S
C845 C844 1.390 . S
C845 C846 1.394 . S
C845 C851 1.465 . S
C846 C841 1.399 . S
C846 C845 1.394 . S
C846 C847 1.516 . S
C847 C846 1.516 . S
C847 C848 1.502 . S
C847 C849 1.561 . S
C847 C850 1.526 . S
C848 H832 0.959 . S
C848 H833 0.959 . S
C848 H834 0.961 . S
C848 C847 1.502 . S
C849 H835 0.960 . S
C849 H836 0.961 . S
C849 H837 0.959 . S
C849 C847 1.561 . S
C850 C847 1.526 . S
C850 C851 1.396 . S
C850 C855 1.390 . S
C851 C845 1.465 . S
C851 C850 1.396 . S
C851 C852 1.399 . S
C852 H838 0.929 . S
C852 C851 1.399 . S
C852 C853 1.385 . S
C853 H839 0.931 . S
C853 C852 1.385 . S
C853 C854 1.389 . S
C854 C853 1.389 . S
C854 C855 1.387 . S
C855 H840 0.930 . S
C855 C850 1.390 . S
C855 C854 1.387 . S
H856 C868 0.930 . S
H857 C870 0.930 . S
H858 C871 0.930 1_455 S
H859 C875 0.959 . S
H860 C875 0.959 . S
H861 C875 0.961 1_565 S
H862 C876 0.960 1_655 S
H863 C876 0.961 1_545 S
H864 C876 0.959 . S
H865 C879 0.929 . S
H866 C880 0.931 . S
H867 C882 0.930 . S
C868 H856 0.930 . S
C868 C869 1.399 . S
C868 C873 1.399 . S
C869 C868 1.399 . S
C869 C870 1.376 . S
C870 H857 0.930 . S
C870 C869 1.376 . S
C870 C871 1.388 . S
C871 H858 0.930 1_655 S
C871 C870 1.388 . S
C871 C872 1.390 . S
C872 C871 1.390 . S
C872 C873 1.394 . S
C872 C878 1.465 1_665 S
C873 C868 1.399 . S
C873 C872 1.394 . S
C873 C874 1.521 . S
C874 C873 1.521 . S
C874 C875 1.499 1_565 S
C874 C876 1.563 1_655 S
C874 C877 1.516 1_665 S
C875 H859 0.959 . S
C875 H860 0.959 . S
C875 H861 0.961 1_545 S
C875 C874 1.499 1_545 S
C876 H862 0.960 1_455 S
C876 H863 0.961 1_565 S
C876 H864 0.959 . S
C876 C874 1.563 1_455 S
C877 C874 1.516 1_445 S
C877 C878 1.399 . S
C877 C882 1.393 . S
C878 C872 1.465 1_445 S
C878 C877 1.399 . S
C878 C879 1.399 . S
C879 H865 0.929 . S
C879 C878 1.399 . S
C879 C880 1.385 . S
C880 H866 0.931 . S
C880 C879 1.385 . S
C880 C881 1.389 . S
C881 C880 1.389 . S
C881 C882 1.387 . S
C882 H867 0.930 . S
C882 C877 1.393 . S
C882 C881 1.387 . S
H883 C895 0.930 . S
H884 C897 0.930 . S
H885 C898 0.930 . S
H886 C902 0.959 . S
H887 C902 0.959 . S
H888 C902 0.961 . S
H889 C903 0.948 1_455 S
H890 C903 0.971 . S
H891 C903 0.966 . S
H892 C906 0.929 . S
H893 C907 0.931 . S
H894 C909 0.930 . S
C895 H883 0.930 . S
C895 C896 1.399 . S
C895 C900 1.399 . S
C896 C895 1.399 . S
C896 C897 1.376 . S
C897 H884 0.930 . S
C897 C896 1.376 . S
C897 C898 1.388 . S
C898 H885 0.930 . S
C898 C897 1.388 . S
C898 C899 1.390 . S
C899 C898 1.390 . S
C899 C900 1.394 . S
C899 C905 1.465 1_455 S
C900 C895 1.399 . S
C900 C899 1.394 . S
C900 C901 1.516 . S
C901 C900 1.516 . S
C901 C902 1.502 . S
C901 C903 1.557 1_455 S
C901 C904 1.526 1_455 S
C902 H886 0.959 . S
C902 H887 0.959 . S
C902 H888 0.961 . S
C902 C901 1.502 . S
C903 H889 0.948 1_655 S
C903 H890 0.971 . S
C903 H891 0.966 . S
C903 C901 1.557 1_655 S
C904 C901 1.526 1_655 S
C904 C905 1.396 . S
C904 C909 1.390 . S
C905 C899 1.465 1_655 S
C905 C904 1.396 . S
C905 C906 1.399 . S
C906 H892 0.929 . S
C906 C905 1.399 . S
C906 C907 1.385 . S
C907 H893 0.931 . S
C907 C906 1.385 . S
C907 C908 1.389 . S
C908 C907 1.389 . S
C908 C909 1.387 . S
C909 H894 0.930 . S
C909 C904 1.390 . S
C909 C908 1.387 . S
H910 C922 0.930 . S
H911 C924 0.930 . S
H912 C925 0.930 . S
H913 C929 0.959 . S
H914 C929 0.959 . S
H915 C929 0.961 . S
H916 C930 0.960 . S
H917 C930 0.961 . S
H918 C930 0.959 . S
H919 C933 0.929 . S
H920 C934 0.931 . S
H921 C936 0.930 . S
C922 H910 0.930 . S
C922 C923 1.399 . S
C922 C927 1.399 . S
C923 C922 1.399 . S
C923 C924 1.376 . S
C924 H911 0.930 . S
C924 C923 1.376 . S
C924 C925 1.388 . S
C925 H912 0.930 . S
C925 C924 1.388 . S
C925 C926 1.390 . S
C926 C925 1.390 . S
C926 C927 1.394 . S
C926 C932 1.465 . S
C927 C922 1.399 . S
C927 C926 1.394 . S
C927 C928 1.516 . S
C928 C927 1.516 . S
C928 C929 1.502 . S
C928 C930 1.561 . S
C928 C931 1.526 . S
C929 H913 0.959 . S
C929 H914 0.959 . S
C929 H915 0.961 . S
C929 C928 1.502 . S
C930 H916 0.960 . S
C930 H917 0.961 . S
C930 H918 0.959 . S
C930 C928 1.561 . S
C931 C928 1.526 . S
C931 C932 1.396 . S
C931 C936 1.390 . S
C932 C926 1.465 . S
C932 C931 1.396 . S
C932 C933 1.399 . S
C933 H919 0.929 . S
C933 C932 1.399 . S
C933 C934 1.385 . S
C934 H920 0.931 . S
C934 C933 1.385 . S
C934 C935 1.389 . S
C935 C934 1.389 . S
C935 C936 1.387 . S
C936 H921 0.930 . S
C936 C931 1.390 . S
C936 C935 1.387 . S
H937 C949 0.930 . S
H938 C951 0.930 . S
H939 C952 0.930 . S
H940 C956 0.959 . S
H941 C956 0.959 . S
H942 C956 0.961 . S
H943 C957 0.960 . S
H944 C957 0.961 . S
H945 C957 0.959 . S
H946 C960 0.951 . S
H947 C961 0.931 . S
H948 C963 0.930 . S
C949 H937 0.930 . S
C949 C950 1.399 . S
C949 C954 1.399 . S
C950 C949 1.399 . S
C950 C951 1.376 . S
C951 H938 0.930 . S
C951 C950 1.376 . S
C951 C952 1.388 . S
C952 H939 0.930 . S
C952 C951 1.388 . S
C952 C953 1.390 . S
C953 C952 1.390 . S
C953 C954 1.394 . S
C953 C959 1.465 1_565 S
C954 C949 1.399 . S
C954 C953 1.394 . S
C954 C955 1.516 1_565 S
C955 C954 1.516 1_545 S
C955 C956 1.502 . S
C955 C957 1.561 1_545 S
C955 C958 1.526 . S
C956 H940 0.959 . S
C956 H941 0.959 . S
C956 H942 0.961 . S
C956 C955 1.502 . S
C957 H943 0.960 . S
C957 H944 0.961 . S
C957 H945 0.959 . S
C957 C955 1.561 1_565 S
C958 C955 1.526 . S
C958 C959 1.396 . S
C958 C963 1.390 . S
C959 C953 1.465 1_545 S
C959 C958 1.396 . S
C959 C960 1.399 . S
C960 H946 0.951 . S
C960 C959 1.399 . S
C960 C961 1.385 . S
C961 H947 0.931 . S
C961 C960 1.385 . S
C961 C962 1.389 . S
C962 C961 1.389 . S
C962 C963 1.387 . S
C963 H948 0.930 . S
C963 C958 1.390 . S
C963 C962 1.387 . S
H964 C976 0.930 . S
H965 C978 0.930 . S
H966 C979 0.930 . S
H967 C983 0.912 1_455 S
H968 C983 0.957 1_455 S
H969 C983 0.986 . S
H970 C984 0.960 . S
H971 C984 0.961 . S
H972 C984 0.959 . S
H973 C987 0.929 . S
H974 C988 0.931 . S
H975 C990 0.930 . S
C976 H964 0.930 . S
C976 C977 1.399 . S
C976 C981 1.399 . S
C977 C976 1.399 . S
C977 C978 1.376 . S
C978 H965 0.930 . S
C978 C977 1.376 . S
C978 C979 1.388 . S
C979 H966 0.930 . S
C979 C978 1.388 . S
C979 C980 1.390 . S
C980 C979 1.390 . S
C980 C981 1.394 . S
C980 C986 1.461 1_655 S
C981 C976 1.399 . S
C981 C980 1.394 . S
C981 C982 1.516 . S
C982 C981 1.516 . S
C982 C983 1.528 . S
C982 C984 1.561 . S
C982 C985 1.526 . S
C983 H967 0.912 1_655 S
C983 H968 0.957 1_655 S
C983 H969 0.986 . S
C983 C982 1.528 . S
C984 H970 0.960 . S
C984 H971 0.961 . S
C984 H972 0.959 . S
C984 C982 1.561 . S
C985 C982 1.526 . S
C985 C986 1.395 1_655 S
C985 C990 1.390 1_655 S
C986 C980 1.461 1_455 S
C986 C985 1.395 1_455 S
C986 C987 1.403 . S
C987 H973 0.929 . S
C987 C986 1.403 . S
C987 C988 1.385 . S
C988 H974 0.931 . S
C988 C987 1.385 . S
C988 C989 1.389 . S
C989 C988 1.389 . S
C989 C990 1.387 . S
C990 H975 0.930 . S
C990 C985 1.390 1_455 S
C990 C989 1.387 . S
H991 C1003 0.930 . S
H992 C1005 0.930 . S
H993 C1006 0.930 . S
H994 C1010 0.959 . S
H995 C1010 0.959 . S
H996 C1010 0.961 . S
H997 C1011 0.960 . S
H998 C1011 0.961 . S
H999 C1011 0.959 . S
H1000 C1014 0.929 . S
H1001 C1015 0.931 . S
H1002 C1017 0.930 . S
C1003 H991 0.930 . S
C1003 C1004 1.399 . S
C1003 C1008 1.399 . S
C1004 C1003 1.399 . S
C1004 C1005 1.376 . S
C1005 H992 0.930 . S
C1005 C1004 1.376 . S
C1005 C1006 1.388 . S
C1006 H993 0.930 . S
C1006 C1005 1.388 . S
C1006 C1007 1.390 . S
C1007 C1006 1.390 . S
C1007 C1008 1.394 . S
C1007 C1013 1.465 . S
C1008 C1003 1.399 . S
C1008 C1007 1.394 . S
C1008 C1009 1.516 . S
C1009 C1008 1.516 . S
C1009 C1010 1.502 . S
C1009 C1011 1.561 . S
C1009 C1012 1.526 . S
C1010 H994 0.959 . S
C1010 H995 0.959 . S
C1010 H996 0.961 . S
C1010 C1009 1.502 . S
C1011 H997 0.960 . S
C1011 H998 0.961 . S
C1011 H999 0.959 . S
C1011 C1009 1.561 . S
C1012 C1009 1.526 . S
C1012 C1013 1.396 . S
C1012 C1017 1.390 . S
C1013 C1007 1.465 . S
C1013 C1012 1.396 . S
C1013 C1014 1.399 . S
C1014 H1000 0.929 . S
C1014 C1013 1.399 . S
C1014 C1015 1.385 . S
C1015 H1001 0.931 . S
C1015 C1014 1.385 . S
C1015 C1016 1.389 . S
C1016 C1015 1.389 . S
C1016 C1017 1.387 . S
C1017 H1002 0.930 . S
C1017 C1012 1.390 . S
C1017 C1016 1.387 . S
H1018 C1030 0.930 . S
H1019 C1032 0.930 . S
H1020 C1033 0.930 . S
H1021 C1037 0.959 . S
H1022 C1037 0.959 . S
H1023 C1037 0.961 1_545 S
H1024 C1038 0.960 . S
H1025 C1038 0.961 1_565 S
H1026 C1038 0.959 . S
H1027 C1041 0.929 . S
H1028 C1042 0.931 . S
H1029 C1044 0.930 . S
C1030 H1018 0.930 . S
C1030 C1031 1.399 . S
C1030 C1035 1.399 . S
C1031 C1030 1.399 . S
C1031 C1032 1.376 . S
C1032 H1019 0.930 . S
C1032 C1031 1.376 . S
C1032 C1033 1.388 . S
C1033 H1020 0.930 . S
C1033 C1032 1.388 . S
C1033 C1034 1.390 . S
C1034 C1033 1.390 . S
C1034 C1035 1.394 . S
C1034 C1040 1.465 1_545 S
C1035 C1030 1.399 . S
C1035 C1034 1.394 . S
C1035 C1036 1.538 . S
C1036 C1035 1.538 . S
C1036 C1037 1.491 1_545 S
C1036 C1038 1.569 . S
C1036 C1039 1.508 1_545 S
C1037 H1021 0.959 . S
C1037 H1022 0.959 . S
C1037 H1023 0.961 1_565 S
C1037 C1036 1.491 1_565 S
C1038 H1024 0.960 . S
C1038 H1025 0.961 1_545 S
C1038 H1026 0.959 . S
C1038 C1036 1.569 . S
C1039 C1036 1.508 1_565 S
C1039 C1040 1.396 . S
C1039 C1044 1.390 . S
C1040 C1034 1.465 1_565 S
C1040 C1039 1.396 . S
C1040 C1041 1.399 . S
C1041 H1027 0.929 . S
C1041 C1040 1.399 . S
C1041 C1042 1.385 . S
C1042 H1028 0.931 . S
C1042 C1041 1.385 . S
C1042 C1043 1.389 . S
C1043 C1042 1.389 . S
C1043 C1044 1.387 . S
C1044 H1029 0.930 . S
C1044 C1039 1.390 . S
C1044 C1043 1.387 . S
H1045 C1057 0.930 . S
H1046 C1059 0.930 . S
H1047 C1060 0.942 . S
H1048 C1064 0.959 1_565 S
H1049 C1064 0.959 1_655 S
H1050 C1064 0.961 . S
H1051 C1065 0.960 . S
H1052 C1065 0.961 . S
H1053 C1065 0.959 . S
H1054 C1068 0.929 . S
H1055 C1069 0.931 . S
H1056 C1071 0.930 . S
C1057 H1045 0.930 . S
C1057 C1058 1.399 . S
C1057 C1062 1.399 . S
C1058 C1057 1.399 . S
C1058 C1059 1.376 . S
C1059 H1046 0.930 . S
C1059 C1058 1.376 . S
C1059 C1060 1.378 1_545 S
C1060 H1047 0.942 . S
C1060 C1059 1.378 1_565 S
C1060 C1061 1.388 1_565 S
C1061 C1060 1.388 1_545 S
C1061 C1062 1.418 . S
C1061 C1067 1.446 1_445 S
C1062 C1057 1.399 . S
C1062 C1061 1.418 . S
C1062 C1063 1.516 1_455 S
C1063 C1062 1.516 1_655 S
C1063 C1064 1.502 1_655 S
C1063 C1065 1.561 . S
C1063 C1066 1.526 1_545 S
C1064 H1048 0.959 1_545 S
C1064 H1049 0.959 1_455 S
C1064 H1050 0.961 . S
C1064 C1063 1.502 1_455 S
C1065 H1051 0.960 . S
C1065 H1052 0.961 . S
C1065 H1053 0.959 . S
C1065 C1063 1.561 . S
C1066 C1063 1.526 1_565 S
C1066 C1067 1.396 . S
C1066 C1071 1.390 . S
C1067 C1061 1.446 1_665 S
C1067 C1066 1.396 . S
C1067 C1068 1.399 . S
C1068 H1054 0.929 . S
C1068 C1067 1.399 . S
C1068 C1069 1.385 . S
C1069 H1055 0.931 . S
C1069 C1068 1.385 . S
C1069 C1070 1.389 . S
C1070 C1069 1.389 . S
C1070 C1071 1.387 . S
C1071 H1056 0.930 . S
C1071 C1066 1.390 . S
C1071 C1070 1.387 . S
H1072 C1084 0.930 . S
H1073 C1086 0.930 . S
H1074 C1087 0.930 . S
H1075 C1091 0.959 . S
H1076 C1091 0.959 . S
H1077 C1091 0.961 . S
H1078 C1092 0.960 . S
H1079 C1092 0.961 . S
H1080 C1092 0.959 . S
H1081 C1095 0.929 . S
H1082 C1096 0.931 . S
H1083 C1098 0.930 . S
C1084 H1072 0.930 . S
C1084 C1085 1.399 . S
C1084 C1089 1.399 . S
C1085 C1084 1.399 . S
C1085 C1086 1.376 . S
C1086 H1073 0.930 . S
C1086 C1085 1.376 . S
C1086 C1087 1.388 . S
C1087 H1074 0.930 . S
C1087 C1086 1.388 . S
C1087 C1088 1.390 . S
C1088 C1087 1.390 . S
C1088 C1089 1.394 . S
C1088 C1094 1.465 . S
C1089 C1084 1.399 . S
C1089 C1088 1.394 . S
C1089 C1090 1.516 . S
C1090 C1089 1.516 . S
C1090 C1091 1.502 . S
C1090 C1092 1.561 . S
C1090 C1093 1.526 . S
C1091 H1075 0.959 . S
C1091 H1076 0.959 . S
C1091 H1077 0.961 . S
C1091 C1090 1.502 . S
C1092 H1078 0.960 . S
C1092 H1079 0.961 . S
C1092 H1080 0.959 . S
C1092 C1090 1.561 . S
C1093 C1090 1.526 . S
C1093 C1094 1.396 . S
C1093 C1098 1.390 . S
C1094 C1088 1.465 . S
C1094 C1093 1.396 . S
C1094 C1095 1.399 . S
C1095 H1081 0.929 . S
C1095 C1094 1.399 . S
C1095 C1096 1.385 . S
C1096 H1082 0.931 . S
C1096 C1095 1.385 . S
C1096 C1097 1.389 . S
C1097 C1096 1.389 . S
C1097 C1098 1.387 . S
C1098 H1083 0.930 . S
C1098 C1093 1.390 . S
C1098 C1097 1.387 . S
H1099 C1111 0.930 . S
H1100 C1113 0.930 . S
H1101 C1114 0.930 . S
H1102 C1118 0.959 . S
H1103 C1118 0.959 . S
H1104 C1118 0.961 . S
H1105 C1119 0.960 . S
H1106 C1119 0.961 . S
H1107 C1119 0.959 . S
H1108 C1122 0.929 . S
H1109 C1123 0.931 . S
H1110 C1125 0.930 . S
C1111 H1099 0.930 . S
C1111 C1112 1.399 . S
C1111 C1116 1.399 . S
C1112 C1111 1.399 . S
C1112 C1113 1.376 . S
C1113 H1100 0.930 . S
C1113 C1112 1.376 . S
C1113 C1114 1.388 . S
C1114 H1101 0.930 . S
C1114 C1113 1.388 . S
C1114 C1115 1.390 . S
C1115 C1114 1.390 . S
C1115 C1116 1.394 . S
C1115 C1121 1.465 . S
C1116 C1111 1.399 . S
C1116 C1115 1.394 . S
C1116 C1117 1.516 . S
C1117 C1116 1.516 . S
C1117 C1118 1.502 . S
C1117 C1119 1.561 . S
C1117 C1120 1.526 . S
C1118 H1102 0.959 . S
C1118 H1103 0.959 . S
C1118 H1104 0.961 . S
C1118 C1117 1.502 . S
C1119 H1105 0.960 . S
C1119 H1106 0.961 . S
C1119 H1107 0.959 . S
C1119 C1117 1.561 . S
C1120 C1117 1.526 . S
C1120 C1121 1.396 . S
C1120 C1125 1.390 . S
C1121 C1115 1.465 . S
C1121 C1120 1.396 . S
C1121 C1122 1.399 . S
C1122 H1108 0.929 . S
C1122 C1121 1.399 . S
C1122 C1123 1.385 . S
C1123 H1109 0.931 . S
C1123 C1122 1.385 . S
C1123 C1124 1.389 . S
C1124 C1123 1.389 . S
C1124 C1125 1.387 . S
C1125 H1110 0.930 . S
C1125 C1120 1.390 . S
C1125 C1124 1.387 . S
H1126 C1138 0.930 . S
H1127 C1140 0.930 . S
H1128 C1141 0.930 . S
H1129 C1145 0.959 . S
H1130 C1145 0.959 . S
H1131 C1145 0.961 . S
H1132 C1146 0.960 . S
H1133 C1146 0.961 . S
H1134 C1146 0.959 . S
H1135 C1149 0.929 . S
H1136 C1150 0.931 . S
H1137 C1152 0.930 . S
C1138 H1126 0.930 . S
C1138 C1139 1.399 . S
C1138 C1143 1.399 . S
C1139 C1138 1.399 . S
C1139 C1140 1.376 . S
C1140 H1127 0.930 . S
C1140 C1139 1.376 . S
C1140 C1141 1.388 . S
C1141 H1128 0.930 . S
C1141 C1140 1.388 . S
C1141 C1142 1.390 . S
C1142 C1141 1.390 . S
C1142 C1143 1.394 . S
C1142 C1148 1.465 . S
C1143 C1138 1.399 . S
C1143 C1142 1.394 . S
C1143 C1144 1.516 . S
C1144 C1143 1.516 . S
C1144 C1145 1.502 . S
C1144 C1146 1.561 . S
C1144 C1147 1.526 . S
C1145 H1129 0.959 . S
C1145 H1130 0.959 . S
C1145 H1131 0.961 . S
C1145 C1144 1.502 . S
C1146 H1132 0.960 . S
C1146 H1133 0.961 . S
C1146 H1134 0.959 . S
C1146 C1144 1.561 . S
C1147 C1144 1.526 . S
C1147 C1148 1.396 . S
C1147 C1152 1.390 . S
C1148 C1142 1.465 . S
C1148 C1147 1.396 . S
C1148 C1149 1.399 . S
C1149 H1135 0.929 . S
C1149 C1148 1.399 . S
C1149 C1150 1.385 . S
C1150 H1136 0.931 . S
C1150 C1149 1.385 . S
C1150 C1151 1.389 . S
C1151 C1150 1.389 . S
C1151 C1152 1.387 . S
C1152 H1137 0.930 . S
C1152 C1147 1.390 . S
C1152 C1151 1.387 . S
H1153 C1165 0.930 . S
H1154 C1167 0.930 . S
H1155 C1168 0.930 . S
H1156 C1172 0.959 . S
H1157 C1172 0.959 . S
H1158 C1172 0.961 . S
H1159 C1173 0.960 . S
H1160 C1173 0.961 . S
H1161 C1173 0.959 . S
H1162 C1176 0.929 . S
H1163 C1177 0.931 . S
H1164 C1179 0.930 . S
C1165 H1153 0.930 . S
C1165 C1166 1.399 . S
C1165 C1170 1.399 . S
C1166 C1165 1.399 . S
C1166 C1167 1.376 . S
C1167 H1154 0.930 . S
C1167 C1166 1.376 . S
C1167 C1168 1.388 . S
C1168 H1155 0.930 . S
C1168 C1167 1.388 . S
C1168 C1169 1.390 . S
C1169 C1168 1.390 . S
C1169 C1170 1.394 . S
C1169 C1175 1.465 . S
C1170 C1165 1.399 . S
C1170 C1169 1.394 . S
C1170 C1171 1.516 . S
C1171 C1170 1.516 . S
C1171 C1172 1.502 . S
C1171 C1173 1.561 . S
C1171 C1174 1.526 . S
C1172 H1156 0.959 . S
C1172 H1157 0.959 . S
C1172 H1158 0.961 . S
C1172 C1171 1.502 . S
C1173 H1159 0.960 . S
C1173 H1160 0.961 . S
C1173 H1161 0.959 . S
C1173 C1171 1.561 . S
C1174 C1171 1.526 . S
C1174 C1175 1.396 . S
C1174 C1179 1.390 . S
C1175 C1169 1.465 . S
C1175 C1174 1.396 . S
C1175 C1176 1.399 . S
C1176 H1162 0.929 . S
C1176 C1175 1.399 . S
C1176 C1177 1.385 . S
C1177 H1163 0.931 . S
C1177 C1176 1.385 . S
C1177 C1178 1.389 . S
C1178 C1177 1.389 . S
C1178 C1179 1.387 . S
C1179 H1164 0.930 . S
C1179 C1174 1.390 . S
C1179 C1178 1.387 . S
H1180 C1192 0.930 . S
H1181 C1194 0.930 . S
H1182 C1195 0.930 . S
H1183 C1199 0.959 . S
H1184 C1199 0.959 . S
H1185 C1199 0.961 . S
H1186 C1200 0.960 . S
H1187 C1200 0.961 . S
H1188 C1200 0.959 . S
H1189 C1203 0.929 . S
H1190 C1204 0.931 . S
H1191 C1206 0.930 . S
C1192 H1180 0.930 . S
C1192 C1193 1.399 . S
C1192 C1197 1.399 . S
C1193 C1192 1.399 . S
C1193 C1194 1.376 . S
C1194 H1181 0.930 . S
C1194 C1193 1.376 . S
C1194 C1195 1.388 . S
C1195 H1182 0.930 . S
C1195 C1194 1.388 . S
C1195 C1196 1.390 . S
C1196 C1195 1.390 . S
C1196 C1197 1.394 . S
C1196 C1202 1.465 . S
C1197 C1192 1.399 . S
C1197 C1196 1.394 . S
C1197 C1198 1.516 . S
C1198 C1197 1.516 . S
C1198 C1199 1.502 . S
C1198 C1200 1.561 . S
C1198 C1201 1.526 . S
C1199 H1183 0.959 . S
C1199 H1184 0.959 . S
C1199 H1185 0.961 . S
C1199 C1198 1.502 . S
C1200 H1186 0.960 . S
C1200 H1187 0.961 . S
C1200 H1188 0.959 . S
C1200 C1198 1.561 . S
C1201 C1198 1.526 . S
C1201 C1202 1.396 . S
C1201 C1206 1.390 . S
C1202 C1196 1.465 . S
C1202 C1201 1.396 . S
C1202 C1203 1.399 . S
C1203 H1189 0.929 . S
C1203 C1202 1.399 . S
C1203 C1204 1.385 . S
C1204 H1190 0.931 . S
C1204 C1203 1.385 . S
C1204 C1205 1.389 . S
C1205 C1204 1.389 . S
C1205 C1206 1.387 . S
C1206 H1191 0.930 . S
C1206 C1201 1.390 . S
C1206 C1205 1.387 . S
H1207 C1219 0.930 . S
H1208 C1221 0.930 . S
H1209 C1222 0.930 . S
H1210 C1226 0.959 . S
H1211 C1226 0.959 . S
H1212 C1226 0.961 . S
H1213 C1227 0.960 . S
H1214 C1227 0.961 . S
H1215 C1227 0.959 . S
H1216 C1230 0.929 . S
H1217 C1231 0.931 . S
H1218 C1233 0.930 . S
C1219 H1207 0.930 . S
C1219 C1220 1.399 . S
C1219 C1224 1.399 . S
C1220 C1219 1.399 . S
C1220 C1221 1.376 . S
C1221 H1208 0.930 . S
C1221 C1220 1.376 . S
C1221 C1222 1.388 . S
C1222 H1209 0.930 . S
C1222 C1221 1.388 . S
C1222 C1223 1.390 . S
C1223 C1222 1.390 . S
C1223 C1224 1.394 . S
C1223 C1229 1.465 . S
C1224 C1219 1.399 . S
C1224 C1223 1.394 . S
C1224 C1225 1.516 . S
C1225 C1224 1.516 . S
C1225 C1226 1.502 . S
C1225 C1227 1.561 . S
C1225 C1228 1.526 . S
C1226 H1210 0.959 . S
C1226 H1211 0.959 . S
C1226 H1212 0.961 . S
C1226 C1225 1.502 . S
C1227 H1213 0.960 . S
C1227 H1214 0.961 . S
C1227 H1215 0.959 . S
C1227 C1225 1.561 . S
C1228 C1225 1.526 . S
C1228 C1229 1.396 . S
C1228 C1233 1.390 . S
C1229 C1223 1.465 . S
C1229 C1228 1.396 . S
C1229 C1230 1.399 . S
C1230 H1216 0.929 . S
C1230 C1229 1.399 . S
C1230 C1231 1.385 . S
C1231 H1217 0.931 . S
C1231 C1230 1.385 . S
C1231 C1232 1.389 . S
C1232 C1231 1.389 . S
C1232 C1233 1.387 . S
C1233 H1218 0.930 . S
C1233 C1228 1.390 . S
C1233 C1232 1.387 . S
H1234 C1246 0.930 . S
H1235 C1248 0.930 . S
H1236 C1249 0.930 . S
H1237 C1253 0.959 . S
H1238 C1253 0.959 . S
H1239 C1253 0.961 . S
H1240 C1254 0.960 . S
H1241 C1254 0.961 . S
H1242 C1254 0.959 . S
H1243 C1257 0.929 . S
H1244 C1258 0.931 . S
H1245 C1260 0.930 . S
C1246 H1234 0.930 . S
C1246 C1247 1.399 . S
C1246 C1251 1.399 . S
C1247 C1246 1.399 . S
C1247 C1248 1.376 . S
C1248 H1235 0.930 . S
C1248 C1247 1.376 . S
C1248 C1249 1.388 . S
C1249 H1236 0.930 . S
C1249 C1248 1.388 . S
C1249 C1250 1.390 . S
C1250 C1249 1.390 . S
C1250 C1251 1.394 . S
C1250 C1256 1.465 . S
C1251 C1246 1.399 . S
C1251 C1250 1.394 . S
C1251 C1252 1.516 . S
C1252 C1251 1.516 . S
C1252 C1253 1.502 . S
C1252 C1254 1.561 . S
C1252 C1255 1.526 . S
C1253 H1237 0.959 . S
C1253 H1238 0.959 . S
C1253 H1239 0.961 . S
C1253 C1252 1.502 . S
C1254 H1240 0.960 . S
C1254 H1241 0.961 . S
C1254 H1242 0.959 . S
C1254 C1252 1.561 . S
C1255 C1252 1.526 . S
C1255 C1256 1.396 . S
C1255 C1260 1.390 . S
C1256 C1250 1.465 . S
C1256 C1255 1.396 . S
C1256 C1257 1.399 . S
C1257 H1243 0.929 . S
C1257 C1256 1.399 . S
C1257 C1258 1.385 . S
C1258 H1244 0.931 . S
C1258 C1257 1.385 . S
C1258 C1259 1.389 . S
C1259 C1258 1.389 . S
C1259 C1260 1.387 . S
C1260 H1245 0.930 . S
C1260 C1255 1.390 . S
C1260 C1259 1.387 . S
H1261 C1273 0.930 . S
H1262 C1275 0.930 . S
H1263 C1276 0.930 . S
H1264 C1280 0.959 . S
H1265 C1280 0.959 . S
H1266 C1280 0.961 . S
H1267 C1281 0.960 . S
H1268 C1281 0.961 . S
H1269 C1281 0.959 . S
H1270 C1284 0.929 . S
H1271 C1285 0.931 . S
H1272 C1287 0.930 . S
C1273 H1261 0.930 . S
C1273 C1274 1.399 . S
C1273 C1278 1.399 . S
C1274 C1273 1.399 . S
C1274 C1275 1.376 . S
C1275 H1262 0.930 . S
C1275 C1274 1.376 . S
C1275 C1276 1.388 . S
C1276 H1263 0.930 . S
C1276 C1275 1.388 . S
C1276 C1277 1.390 . S
C1277 C1276 1.390 . S
C1277 C1278 1.394 . S
C1277 C1283 1.465 . S
C1278 C1273 1.399 . S
C1278 C1277 1.394 . S
C1278 C1279 1.516 . S
C1279 C1278 1.516 . S
C1279 C1280 1.502 . S
C1279 C1281 1.561 . S
C1279 C1282 1.526 . S
C1280 H1264 0.959 . S
C1280 H1265 0.959 . S
C1280 H1266 0.961 . S
C1280 C1279 1.502 . S
C1281 H1267 0.960 . S
C1281 H1268 0.961 . S
C1281 H1269 0.959 . S
C1281 C1279 1.561 . S
C1282 C1279 1.526 . S
C1282 C1283 1.396 . S
C1282 C1287 1.390 . S
C1283 C1277 1.465 . S
C1283 C1282 1.396 . S
C1283 C1284 1.399 . S
C1284 H1270 0.929 . S
C1284 C1283 1.399 . S
C1284 C1285 1.385 . S
C1285 H1271 0.931 . S
C1285 C1284 1.385 . S
C1285 C1286 1.389 . S
C1286 C1285 1.389 . S
C1286 C1287 1.387 . S
C1287 H1272 0.930 . S
C1287 C1282 1.390 . S
C1287 C1286 1.387 . S
C653 C541 2.069 . S
C665 C21 1.996 . S
C680 C61 1.957 . S
C692 C562 2.158 . S
C707 C82 2.145 . S
C719 C621 2.005 . S
C734 C141 1.998 . S
C746 C501 2.074 . S
C761 C181 2.020 . S
C773 C461 2.019 . S
C788 C341 2.013 . S
C800 C221 2.067 . S
C815 C381 1.958 . S
C827 C242 2.159 . S
C842 C402 2.149 . S
C854 C301 1.996 . S
C869 C421 2.164 . S
C881 C2 2.002 . S
C896 C442 1.956 . S
C908 C42 2.001 . S
C923 C322 2.051 . S
C935 C101 2.146 . S
C950 C122 1.959 . S
C962 C362 1.996 . S
C977 C581 2.130 . S
C989 C162 1.999 . S
C1004 C602 1.960 . S
C1016 C202 1.998 . S
C1031 C261 2.164 . S
C1043 C482 2.003 . S
C1058 C522 1.983 . S
C1070 C282 1.971 . S
C1085 C255 1.782 . S
C1097 C15 1.802 . S
C1112 C55 1.789 . S
C1124 C295 1.763 . S
C1139 C95 1.832 . S
C1151 C175 1.786 . S
C1166 C135 1.812 . S
C1178 C215 1.848 . S
C1193 C575 1.783 . S
C1205 C335 1.799 . S
C1220 C615 1.784 . S
C1232 C375 1.819 . S
C1247 C415 1.783 . S
C1259 C495 1.800 . S
C1274 C455 1.820 . S
C1286 C535 1.849 . S
