# Generated by pormake.
# Topology ukg, (4)-cn, num edge types: 1
# Building blocks:
#     Node 0, Type 0, BuildingBlock: KOZSID_clean_sbu_0, # of connection points: 4
#     Node 1, Type 0, BuildingBlock: KOZSID_clean_sbu_0, # of connection points: 4
#     Node 2, Type 0, BuildingBlock: KOZSID_clean_sbu_0, # of connection points: 4
#     Node 3, Type 0, BuildingBlock: KOZSID_clean_sbu_0, # of connection points: 4
#     Node 4, Type 0, BuildingBlock: KOZSID_clean_sbu_0, # of connection points: 4
#     Node 5, Type 0, BuildingBlock: KOZSID_clean_sbu_0, # of connection points: 4
#     Node 6, Type 0, BuildingBlock: KOZSID_clean_sbu_0, # of connection points: 4
#     Node 7, Type 0, BuildingBlock: KOZSID_clean_sbu_0, # of connection points: 4
#     Edge 8, Type (0, 0), BuildingBlock: KIFKEQ_clean_linker_1, # of connection points: 2
#     Edge 9, Type (0, 0), BuildingBlock: KIFKEQ_clean_linker_1, # of connection points: 2
#     Edge 10, Type (0, 0), BuildingBlock: KIFKEQ_clean_linker_1, # of connection points: 2
#     Edge 11, Type (0, 0), BuildingBlock: KIFKEQ_clean_linker_1, # of connection points: 2
#     Edge 12, Type (0, 0), BuildingBlock: KIFKEQ_clean_linker_1, # of connection points: 2
#     Edge 13, Type (0, 0), BuildingBlock: KIFKEQ_clean_linker_1, # of connection points: 2
#     Edge 14, Type (0, 0), BuildingBlock: KIFKEQ_clean_linker_1, # of connection points: 2
#     Edge 15, Type (0, 0), BuildingBlock: KIFKEQ_clean_linker_1, # of connection points: 2
#     Edge 16, Type (0, 0), BuildingBlock: KIFKEQ_clean_linker_1, # of connection points: 2
#     Edge 17, Type (0, 0), BuildingBlock: KIFKEQ_clean_linker_1, # of connection points: 2
#     Edge 18, Type (0, 0), BuildingBlock: KIFKEQ_clean_linker_1, # of connection points: 2
#     Edge 19, Type (0, 0), BuildingBlock: KIFKEQ_clean_linker_1, # of connection points: 2
#     Edge 20, Type (0, 0), BuildingBlock: KIFKEQ_clean_linker_1, # of connection points: 2
#     Edge 21, Type (0, 0), BuildingBlock: KIFKEQ_clean_linker_1, # of connection points: 2
#     Edge 22, Type (0, 0), BuildingBlock: KIFKEQ_clean_linker_1, # of connection points: 2
#     Edge 23, Type (0, 0), BuildingBlock: KIFKEQ_clean_linker_1, # of connection points: 2
# Relax obj value: 0.107
# Max RMSD: 0.260
# Mean RMSD: 0.246
data_MOF--net-ukg--node1-KOZSID_clean_sbu_0--edge1-KIFKEQ_clean_linker_1
_symmetry_space_group_name_H-M    P1
_symmetry_Int_Tables_number       1
_symmetry_cell_setting            triclinic
loop_
_symmetry_equiv_pos_as_xyz
'x, y, z'
_cell_length_a     36.291392
_cell_length_b     36.411458
_cell_length_c     49.475693
_cell_angle_alpha  90.480147
_cell_angle_beta   89.520581
_cell_angle_gamma 89.887414
loop_
_atom_site_label
_atom_site_type_symbol
_atom_site_fract_x
_atom_site_fract_y
_atom_site_fract_z
_atom_type_partial_charge
C0 C 0.95714 0.63888 0.16833 0.0
C1 C 0.9254 0.65665 0.15998 0.0
C2 C 0.93606 0.6903 0.15062 0.0
C3 C 0.97358 0.69121 0.15371 0.0
N4 N 0.98748 0.66003 0.16404 0.0
Co5 Co 0.04034 0.65146 0.17315 0.0
N6 N 0.05718 0.69555 0.15255 0.0
C7 C 0.03521 0.72256 0.14348 0.0
C8 C 0.05417 0.75018 0.13083 0.0
C9 C 0.09053 0.74032 0.13226 0.0
C10 C 0.09172 0.7071 0.14576 0.0
N11 N 0.09311 0.64305 0.18264 0.0
C12 C 0.12449 0.6588 0.17308 0.0
C13 C 0.15547 0.64408 0.18529 0.0
C14 C 0.14317 0.61898 0.20357 0.0
C15 C 0.10557 0.6195 0.20138 0.0
N16 N 0.0239 0.60719 0.19364 0.0
C17 C 0.0445 0.58769 0.21096 0.0
C18 C 0.02634 0.55845 0.22206 0.0
C19 C 0.9918 0.55965 0.21143 0.0
C20 C 0.99081 0.5898 0.19439 0.0
N21 N 0.04612 0.62101 0.14016 0.0
C22 C 0.04816 0.57617 0.09317 0.0
C23 C 0.06388 0.56445 0.11755 0.0
C24 C 0.06263 0.58719 0.14069 0.0
C25 C 0.03224 0.6113 0.09294 0.0
C26 C 0.03164 0.63308 0.11637 0.0
N27 N 0.0334 0.68254 0.20577 0.0
C28 C 0.99184 0.70521 0.24054 0.0
C29 C 1.01317 0.73686 0.24407 0.0
C30 C 0.04653 0.73916 0.22961 0.0
C31 C 0.05638 0.7115 0.21094 0.0
C32 C 1.00239 0.67855 0.22145 0.0
H33 H 0.08176 0.71464 0.19977 0.0
H34 H 0.9841 0.65581 0.21844 0.0
H35 H 0.07457 0.57713 0.15905 0.0
H36 H 0.01859 0.65953 0.11522 0.0
C37 C 0.9969 0.7194 0.14518 0.0
C38 C 0.95656 0.6037 0.18269 0.0
C39 C 0.12631 0.68982 0.15437 0.0
C40 C 0.08173 0.59526 0.21417 0.0
H41 H 0.89738 0.64663 0.16116 0.0
H42 H 0.91854 0.71147 0.1424 0.0
H43 H 0.04291 0.77447 0.12148 0.0
H44 H 0.11362 0.7562 0.12485 0.0
H45 H 0.18404 0.65111 0.18165 0.0
H46 H 0.15972 0.60176 0.21645 0.0
H47 H 0.03706 0.53838 0.23599 0.0
H48 H 0.96952 0.54108 0.21632 0.0
H49 H 0.07708 0.53784 0.11886 0.0
H50 H 0.0192 0.62173 0.07496 0.0
H51 H 0.96591 0.70198 0.25125 0.0
H52 H 0.06446 0.76265 0.23214 0.0
C53 C 0.41371 0.51478 0.62085 0.0
C54 C 0.4434 0.53866 0.62243 0.0
C55 C 0.43765 0.5603 0.64494 0.0
C56 C 0.40499 0.5484 0.656 0.0
N57 N 0.39008 0.5204 0.64195 0.0
Co58 Co 0.34311 0.49526 0.65115 0.0
N59 N 0.34345 0.51412 0.68891 0.0
C60 C 0.36338 0.54271 0.69798 0.0
C61 C 0.35772 0.54969 0.72504 0.0
C62 C 0.33246 0.52401 0.7334 0.0
C63 C 0.3241 0.50272 0.7109 0.0
N64 N 0.29593 0.47044 0.65998 0.0
C65 C 0.28069 0.46248 0.68432 0.0
C66 C 0.24699 0.44497 0.68117 0.0
C67 C 0.24095 0.44227 0.65392 0.0
C68 C 0.27115 0.45814 0.64196 0.0
N69 N 0.34267 0.47618 0.61345 0.0
C70 C 0.31295 0.46323 0.60039 0.0
C71 C 0.32056 0.45272 0.57423 0.0
C72 C 0.35733 0.45972 0.57052 0.0
C73 C 0.37018 0.4741 0.59476 0.0
N74 N 0.37061 0.45194 0.66301 0.0
C75 C 0.40389 0.39175 0.68827 0.0
C76 C 0.37384 0.38675 0.67092 0.0
C77 C 0.35793 0.41716 0.65818 0.0
C78 C 0.41794 0.42725 0.69151 0.0
C79 C 0.4009 0.45679 0.6789 0.0
N80 N 0.31565 0.53934 0.64013 0.0
C81 C 0.30975 0.59312 0.61219 0.0
C82 C 0.28269 0.60799 0.62965 0.0
C83 C 0.27157 0.58668 0.65176 0.0
C84 C 0.28801 0.55263 0.65647 0.0
C85 C 0.32578 0.55886 0.61775 0.0
H86 H 0.27919 0.53773 0.67407 0.0
H87 H 0.34713 0.54868 0.60434 0.0
H88 H 0.3345 0.41274 0.64527 0.0
H89 H 0.41135 0.48384 0.68314 0.0
C90 C 0.39086 0.55827 0.68157 0.0
C91 C 0.40757 0.4887 0.59836 0.0
C92 C 0.29572 0.47386 0.71055 0.0
C93 C 0.28009 0.45641 0.61443 0.0
H94 H 0.46675 0.54038 0.60877 0.0
H95 H 0.45587 0.58121 0.65286 0.0
H96 H 0.37119 0.57019 0.73744 0.0
H97 H 0.32126 0.52143 0.75364 0.0
H98 H 0.22854 0.43544 0.69689 0.0
H99 H 0.21792 0.4291 0.64404 0.0
H100 H 0.30188 0.44051 0.55979 0.0
H101 H 0.37274 0.45531 0.55196 0.0
H102 H 0.36236 0.35968 0.66758 0.0
H103 H 0.44085 0.43255 0.70488 0.0
H104 H 0.31888 0.60793 0.59449 0.0
H105 H 0.25124 0.59671 0.66617 0.0
C106 C 0.54941 0.85737 0.17053 0.0
C107 C 0.58173 0.8398 0.16255 0.0
C108 C 0.57197 0.80567 0.15332 0.0
C109 C 0.53437 0.80424 0.15619 0.0
N110 N 0.5196 0.83552 0.16625 0.0
Co111 Co 0.46634 0.84338 0.17518 0.0
N112 N 0.45092 0.79837 0.15471 0.0
C113 C 0.47363 0.77145 0.14587 0.0
C114 C 0.45554 0.74318 0.13319 0.0
C115 C 0.41899 0.75251 0.13436 0.0
C116 C 0.41681 0.78609 0.14775 0.0
N117 N 0.41317 0.85102 0.18453 0.0
C118 C 0.38238 0.83433 0.17499 0.0
C119 C 0.35079 0.84863 0.18719 0.0
C120 C 0.36208 0.87455 0.20537 0.0
C121 C 0.39973 0.87486 0.20316 0.0
N122 N 0.48125 0.88867 0.19541 0.0
C123 C 0.45972 0.90864 0.21232 0.0
C124 C 0.47671 0.93925 0.22254 0.0
C125 C 0.51146 0.93842 0.21179 0.0
C126 C 0.5138 0.90698 0.19574 0.0
N127 N 0.46109 0.87279 0.14209 0.0
C128 C 0.4641 0.918 0.09599 0.0
C129 C 0.44632 0.92984 0.11989 0.0
C130 C 0.44504 0.90685 0.14261 0.0
C131 C 0.47854 0.88227 0.09545 0.0
C132 C 0.47672 0.86031 0.11847 0.0
N133 N 0.47308 0.81347 0.20798 0.0
C134 C 0.5141 0.79448 0.24342 0.0
C135 C 0.49516 0.76122 0.24654 0.0
C136 C 0.46258 0.75656 0.23169 0.0
C137 C 0.45176 0.78321 0.21291 0.0
C138 C 0.50288 0.81982 0.22412 0.0
H139 H 0.42717 0.77822 0.20141 0.0
H140 H 0.51983 0.84361 0.22144 0.0
H141 H 0.43204 0.91716 0.16079 0.0
H142 H 0.48907 0.8335 0.11723 0.0
C143 C 0.51183 0.77534 0.14772 0.0
C144 C 0.54883 0.89296 0.18476 0.0
C145 C 0.38169 0.8031 0.15607 0.0
C146 C 0.42263 0.90028 0.21567 0.0
H147 H 0.60956 0.85025 0.1639 0.0
H148 H 0.59012 0.7845 0.14538 0.0
H149 H 0.46751 0.71882 0.12397 0.0
H150 H 0.3964 0.73607 0.12685 0.0
H151 H 0.32247 0.84091 0.18353 0.0
H152 H 0.34483 0.89182 0.21814 0.0
H153 H 0.46506 0.96002 0.23588 0.0
H154 H 0.53304 0.9581 0.21597 0.0
H155 H 0.43458 0.95714 0.12144 0.0
H156 H 0.49162 0.87126 0.07736 0.0
H157 H 0.53841 0.80058 0.25515 0.0
H158 H 0.44641 0.73174 0.23345 0.0
C159 C 0.07431 0.98101 0.61864 0.0
C160 C 0.04136 0.96177 0.6198 0.0
C161 C 0.0421 0.94145 0.64306 0.0
C162 C 0.07527 0.94945 0.65488 0.0
N163 N 0.09523 0.97376 0.64059 0.0
Co164 Co 0.14479 0.99225 0.65043 0.0
N165 N 0.13877 0.97707 0.68864 0.0
C166 C 0.11388 0.95291 0.69803 0.0
C167 C 0.11559 0.94886 0.72558 0.0
C168 C 0.14341 0.97177 0.73392 0.0
C169 C 0.15735 0.98841 0.71088 0.0
N170 N 0.19459 1.01003 0.65988 0.0
C171 C 0.20894 0.01783 0.68439 0.0
C172 C 0.2456 0.02836 0.68195 0.0
C173 C 0.25416 0.02721 0.65489 0.0
C174 C 0.22248 0.01591 0.64237 0.0
N175 N 0.15085 1.00783 0.61234 0.0
C176 C 0.18312 0.01478 0.59981 0.0
C177 C 0.17895 0.02436 0.57323 0.0
C178 C 0.14173 0.02308 0.56872 0.0
C179 C 0.12522 0.01275 0.5929 0.0
N180 N 0.12378 0.04036 0.66018 0.0
C181 C 0.09981 0.10695 0.68345 0.0
C182 C 0.13164 0.10554 0.66718 0.0
C183 C 0.14278 0.07209 0.65532 0.0
C184 C 0.07928 0.07475 0.68657 0.0
C185 C 0.09181 0.04187 0.675 0.0
N186 N 0.16592 0.94369 0.64154 0.0
C187 C 0.16847 0.88867 0.61391 0.0
C188 C 0.19131 0.87145 0.63276 0.0
C189 C 0.20227 0.89173 0.65544 0.0
C190 C 0.18966 0.92767 0.6593 0.0
C191 C 0.15588 0.9247 0.61876 0.0
H192 H 0.19856 0.94216 0.67716 0.0
H193 H 0.13734 0.93683 0.60441 0.0
H194 H 0.16762 0.0716 0.64318 0.0
H195 H 0.07643 0.01732 0.67926 0.0
C196 C 0.08569 0.94002 0.68121 0.0
C197 C 0.08584 1.00418 0.59582 0.0
C198 C 0.18942 0.01311 0.71024 0.0
C199 C 0.21585 0.01693 0.61455 0.0
H200 H 0.01911 0.96228 0.60539 0.0
H201 H 0.02039 0.92412 0.65091 0.0
H202 H 0.0977 0.93251 0.73828 0.0
H203 H 0.15225 0.97575 0.75456 0.0
H204 H 0.26426 0.03589 0.69801 0.0
H205 H 0.27995 0.03507 0.64546 0.0
H206 H 0.20027 0.03223 0.55901 0.0
H207 H 0.12837 0.02844 0.54967 0.0
H208 H 0.14809 0.12993 0.664 0.0
H209 H 0.05466 0.07449 0.6991 0.0
H210 H 0.15933 0.87398 0.59607 0.0
H211 H 0.22036 0.87978 0.67031 0.0
C212 C 1.00582 0.3648 0.93838 0.0
C213 C 1.00628 0.34812 0.96357 0.0
C214 C 1.01062 0.31114 0.95911 0.0
C215 C 1.01095 0.30698 0.93155 0.0
N216 N 1.00708 0.33899 0.91847 0.0
Co217 Co 0.99407 0.34295 0.87988 0.0
N218 N 0.0164 0.29458 0.87138 0.0
C219 C 0.02274 0.26778 0.88931 0.0
C220 C 0.03812 0.23699 0.87762 0.0
C221 C 0.04122 0.2449 0.85062 0.0
C222 C 0.02732 0.28018 0.84731 0.0
N223 N 0.98059 0.34643 0.84137 0.0
C224 C 0.99383 0.32753 0.81963 0.0
C225 C 0.97561 0.33796 0.79635 0.0
C226 C 0.94985 0.36386 0.80406 0.0
C227 C 0.95378 0.3679 0.83153 0.0
N228 N 0.97147 0.39125 0.88876 0.0
C229 C 0.94373 0.40626 0.87476 0.0
C230 C 0.92752 0.43521 0.88819 0.0
C231 C 0.94646 0.43856 0.91203 0.0
C232 C 0.97461 0.41254 0.91137 0.0
N233 N 0.04106 0.3671 0.87144 0.0
C234 C 0.10662 0.39421 0.84854 0.0
C235 C 0.07298 0.41225 0.84471 0.0
C236 C 0.04067 0.3982 0.85612 0.0
C237 C 0.10704 0.3635 0.86554 0.0
C238 C 0.07404 0.35078 0.8772 0.0
N239 N 0.94637 0.3187 0.8874 0.0
C240 C 0.89931 0.27539 0.87411 0.0
C241 C 0.87574 0.28819 0.89465 0.0
C242 C 0.88856 0.31589 0.91196 0.0
C243 C 0.92408 0.3303 0.9083 0.0
C244 C 0.93419 0.2912 0.87064 0.0
H245 H 0.9331 0.35141 0.9221 0.0
H246 H 0.95097 0.28159 0.85395 0.0
H247 H 0.01503 0.41142 0.85119 0.0
H248 H 0.07491 0.32671 0.88977 0.0
C249 C 0.01789 0.27437 0.91709 0.0
C250 C 1.00031 0.40454 0.93384 0.0
C251 C 0.02084 0.29731 0.82094 0.0
C252 C 0.93621 0.39412 0.84829 0.0
H253 H 1.00293 0.36109 0.98319 0.0
H254 H 1.01303 0.28989 0.97416 0.0
H255 H 0.04671 0.21207 0.88756 0.0
H256 H 0.05165 0.22645 0.83508 0.0
H257 H 0.97998 0.32741 0.77606 0.0
H258 H 0.93104 0.37844 0.79109 0.0
H259 H 0.90428 0.4515 0.88173 0.0
H260 H 0.93842 0.45651 0.92854 0.0
H261 H 0.07122 0.4359 0.83165 0.0
H262 H 0.13254 0.34901 0.86935 0.0
H263 H 0.89039 0.25406 0.86026 0.0
H264 H 0.87124 0.32632 0.92824 0.0
C265 C 0.59171 0.51012 0.33531 0.0
C266 C 0.56154 0.50828 0.31823 0.0
C267 C 0.5618 0.474 0.30683 0.0
C268 C 0.59185 0.45682 0.3176 0.0
N269 N 0.61042 0.47775 0.33544 0.0
Co270 Co 0.6554 0.46262 0.35567 0.0
N271 N 0.64886 0.40987 0.34535 0.0
C272 C 0.62682 0.39725 0.32556 0.0
C273 C 0.62919 0.36008 0.32146 0.0
C274 C 0.65452 0.34826 0.33966 0.0
C275 C 0.66609 0.37902 0.35411 0.0
N276 N 0.70008 0.44698 0.37609 0.0
C277 C 0.71212 0.41289 0.38312 0.0
C278 C 0.74446 0.41514 0.39783 0.0
C279 C 0.7536 0.45156 0.39932 0.0
C280 C 0.72627 0.46961 0.38576 0.0
N281 N 0.66227 0.51548 0.36547 0.0
C282 C 0.69305 0.53017 0.37604 0.0
C283 C 0.69096 0.56752 0.3796 0.0
C284 C 0.65692 0.57722 0.37028 0.0
C285 C 0.64012 0.54512 0.3615 0.0
N286 N 0.6249 0.4561 0.38852 0.0
C287 C 0.57823 0.45765 0.43458 0.0
C288 C 0.61408 0.47182 0.43546 0.0
C289 C 0.63671 0.4708 0.41246 0.0
C290 C 0.56704 0.44075 0.41032 0.0
C291 C 0.59076 0.44019 0.38761 0.0
N292 N 0.68638 0.47061 0.32315 0.0
C293 C 0.7441 0.46107 0.29926 0.0
C294 C 0.73924 0.4937 0.28466 0.0
C295 C 0.70565 0.51231 0.2881 0.0
C296 C 0.68 0.50059 0.30735 0.0
C297 C 0.71717 0.44977 0.31804 0.0
H298 H 0.65587 0.51722 0.31021 0.0
H299 H 0.72231 0.42515 0.32934 0.0
H300 H 0.66348 0.48308 0.41403 0.0
H301 H 0.58101 0.4279 0.36912 0.0
C302 C 0.6015 0.42028 0.31324 0.0
C303 C 0.6048 0.54474 0.34716 0.0
C304 C 0.69558 0.37786 0.37429 0.0
C305 C 0.72194 0.50769 0.38449 0.0
H306 H 0.54217 0.52994 0.31364 0.0
H307 H 0.54231 0.46289 0.2925 0.0
H308 H 0.61394 0.34347 0.30718 0.0
H309 H 0.66384 0.32018 0.34158 0.0
H310 H 0.76014 0.39281 0.40633 0.0
H311 H 0.77694 0.4635 0.40962 0.0
H312 H 0.71158 0.58554 0.38814 0.0
H313 H 0.64598 0.60486 0.36946 0.0
H314 H 0.62467 0.48418 0.45379 0.0
H315 H 0.53969 0.42923 0.4085 0.0
H316 H 0.76923 0.44519 0.29728 0.0
H317 H 0.69944 0.53669 0.2766 0.0
C318 C 0.4777 0.12262 0.93716 0.0
C319 C 0.46183 0.13449 0.96135 0.0
C320 C 0.44741 0.16849 0.95673 0.0
C321 C 0.45534 0.17552 0.93014 0.0
N322 N 0.47418 0.14829 0.91757 0.0
Co323 Co 0.49007 0.14759 0.87879 0.0
N324 N 0.47926 0.2012 0.87462 0.0
C325 C 0.46111 0.2227 0.89262 0.0
C326 C 0.45762 0.25843 0.88461 0.0
C327 C 0.47402 0.25967 0.85971 0.0
C328 C 0.48667 0.22439 0.85386 0.0
N329 N 0.50487 0.14655 0.83979 0.0
C330 C 0.50843 0.17419 0.82168 0.0
C331 C 0.51825 0.16071 0.79628 0.0
C332 C 0.5198 0.12334 0.7983 0.0
C333 C 0.51112 0.11609 0.82474 0.0
N334 N 0.50181 0.09425 0.88338 0.0
C335 C 0.50857 0.06989 0.8633 0.0
C336 C 0.51523 0.03498 0.87229 0.0
C337 C 0.51214 0.03721 0.89983 0.0
C338 C 0.5037 0.07349 0.9061 0.0
N339 N 0.43935 0.13497 0.86774 0.0
C340 C 0.37447 0.10985 0.84259 0.0
C341 C 0.38987 0.09073 0.86437 0.0
C342 C 0.42188 0.1041 0.87694 0.0
C343 C 0.39043 0.14351 0.83569 0.0
C344 C 0.42272 0.15513 0.84806 0.0
N345 N 0.54104 0.16023 0.88887 0.0
C346 C 0.60617 0.15602 0.87884 0.0
C347 C 0.61416 0.18487 0.89691 0.0
C348 C 0.58438 0.19986 0.91177 0.0
C349 C 0.54826 0.18738 0.90735 0.0
C350 C 0.56993 0.14389 0.8755 0.0
H351 H 0.52616 0.20041 0.91849 0.0
H352 H 0.56535 0.12195 0.86127 0.0
H353 H 0.43322 0.08847 0.89329 0.0
H354 H 0.43476 0.17977 0.84048 0.0
C355 C 0.44973 0.209 0.91748 0.0
C356 C 0.49387 0.08602 0.93349 0.0
C357 C 0.49886 0.21285 0.82669 0.0
C358 C 0.51167 0.08146 0.83658 0.0
H359 H 0.46062 0.12 0.98034 0.0
H360 H 0.43368 0.18637 0.97123 0.0
H361 H 0.44451 0.28088 0.8955 0.0
H362 H 0.47496 0.28356 0.8469 0.0
H363 H 0.52277 0.1763 0.77802 0.0
H364 H 0.52665 0.10381 0.78241 0.0
H365 H 0.52194 1.01086 0.86029 0.0
H366 H 0.51492 0.01456 0.91371 0.0
H367 H 0.37841 0.06487 0.87096 0.0
H368 H 0.37887 0.16054 0.82005 0.0
H369 H 0.62745 0.1434 0.86645 0.0
H370 H 0.58862 0.22139 0.9266 0.0
C371 C 0.91074 0.98997 0.33041 0.0
C372 C 0.94189 0.9921 0.31397 0.0
C373 C 0.94243 0.02666 0.30351 0.0
C374 C 0.91199 0.04378 0.31432 0.0
N375 N 0.89244 0.02254 0.33136 0.0
Co376 Co 0.84746 0.03783 0.35221 0.0
N377 N 0.85495 0.09077 0.34328 0.0
C378 C 0.87779 0.10364 0.32394 0.0
C379 C 0.87612 0.14093 0.32088 0.0
C380 C 0.85041 0.15262 0.3393 0.0
C381 C 0.83792 0.12164 0.35283 0.0
N382 N 0.80257 0.05357 0.37313 0.0
C383 C 0.79066 0.08764 0.38087 0.0
C384 C 0.75793 0.08545 0.39549 0.0
C385 C 0.74841 0.04911 0.39617 0.0
C386 C 0.77591 0.03105 0.38225 0.0
N387 N 0.83978 0.98479 0.36078 0.0
C388 C 0.80864 0.97029 0.37112 0.0
C389 C 0.81014 0.93284 0.37373 0.0
C390 C 0.84418 0.92287 0.36404 0.0
C391 C 0.86164 0.95492 0.35606 0.0
N392 N 0.87745 0.04318 0.38509 0.0
C393 C 0.92289 0.04056 0.43113 0.0
C394 C 0.88676 0.02705 0.43178 0.0
C395 C 0.86478 0.02852 0.40877 0.0
C396 C 0.93502 0.05733 0.40714 0.0
C397 C 0.91187 0.05849 0.38445 0.0
N398 N 0.81696 0.0312 0.31967 0.0
C399 C 0.76044 0.04409 0.29611 0.0
C400 C 0.76374 1.01127 0.28118 0.0
C401 C 0.7958 0.99038 0.28436 0.0
C402 C 0.8219 1.00077 0.30358 0.0
C403 C 0.78756 0.0538 0.3149 0.0
H404 H 0.84497 0.98276 0.30633 0.0
H405 H 0.78364 0.07869 0.32648 0.0
H406 H 0.83777 0.01667 0.41012 0.0
H407 H 0.92229 0.07078 0.3662 0.0
C408 C 0.90311 0.0806 0.31107 0.0
C409 C 0.89696 0.95515 0.34127 0.0
C410 C 0.80768 0.12269 0.37281 0.0
C411 C 0.77986 0.99295 0.3801 0.0
H412 H 0.96152 0.9705 0.30931 0.0
H413 H 0.96283 0.03807 0.2899 0.0
H414 H 0.89205 0.15771 0.30714 0.0
H415 H 0.84146 0.18077 0.34194 0.0
H416 H 0.74222 0.1078 0.40442 0.0
H417 H 0.72467 0.03722 0.40616 0.0
H418 H 0.78908 0.91492 0.38182 0.0
H419 H 0.85459 0.89506 0.36236 0.0
H420 H 0.87545 0.01486 0.44992 0.0
H421 H 0.96263 0.06835 0.40551 0.0
H422 H 0.73655 0.06163 0.29386 0.0
H423 H 0.79974 0.96485 0.27331 0.0
H424 H 0.05474 0.39701 0.97331 0.0
H425 H 0.9905 0.48234 0.93652 0.0
H426 H 0.06785 0.43744 1.01091 0.0
H427 H 1.00295 0.52247 0.97435 0.0
H428 H 0.05415 0.59591 0.0395 0.0
H429 H 0.04789 0.55714 0.99941 0.0
H430 H 0.03376 0.46226 0.05014 0.0
H431 H 0.03941 0.50101 0.09025 0.0
C432 C 0.04103 0.42335 0.97378 0.0
C433 C 0.01538 0.43327 0.95369 0.0
C434 C 0.04949 0.44706 0.99532 0.0
C435 C 0.03447 0.48258 0.99682 0.0
C436 C 0.01361 0.49468 0.97476 0.0
C437 C 1.00503 0.47073 0.95326 0.0
C438 C 0.04949 0.56682 0.04223 0.0
C439 C 0.0471 0.55188 0.06841 0.0
C440 C 0.04594 0.54451 0.0191 0.0
C441 C 0.04017 0.50644 0.02135 0.0
C442 C 0.03868 0.49134 0.04748 0.0
C443 C 0.04202 0.51367 0.07061 0.0
H444 H 0.44474 0.42687 0.5822 0.0
H445 H 0.42972 0.54073 0.56211 0.0
H446 H 0.48558 0.41874 0.54284 0.0
H447 H 0.46998 0.53289 0.5226 0.0
H448 H 0.57163 0.5166 0.46924 0.0
H449 H 0.53247 0.52341 0.50902 0.0
H450 H 0.48625 0.41606 0.494 0.0
H451 H 0.52677 0.40859 0.45455 0.0
C452 C 0.4506 0.45024 0.56947 0.0
C453 C 0.43487 0.48464 0.57559 0.0
C454 C 0.47365 0.44556 0.54672 0.0
C455 C 0.4814 0.47516 0.52938 0.0
C456 C 0.46541 0.50957 0.53563 0.0
C457 C 0.44236 0.51418 0.55833 0.0
C458 C 0.55349 0.49414 0.47449 0.0
C459 C 0.55282 0.46184 0.45859 0.0
C460 C 0.53054 0.4983 0.49724 0.0
C461 C 0.50596 0.47035 0.50495 0.0
C462 C 0.50506 0.43807 0.489 0.0
C463 C 0.52805 0.43393 0.46611 0.0
H464 H 0.41472 0.96817 0.07542 0.0
H465 H 0.52402 0.92423 0.06203 0.0
H466 H 0.42257 1.0079 0.03625 0.0
H467 H 0.53129 0.96279 0.02242 0.0
H468 H 0.54677 0.06556 0.96948 0.0
H469 H 0.53977 0.02545 1.00877 0.0
H470 H 0.42612 1.00627 0.98752 0.0
H471 H 0.43338 0.04686 0.9486 0.0
C472 C 0.44044 0.96694 0.0642 0.0
C473 C 0.46861 0.94268 0.072 0.0
C474 C 0.44481 0.98947 0.04147 0.0
C475 C 0.47756 0.98861 0.02592 0.0
C476 C 0.5058 0.96459 0.0339 0.0
C477 C 0.5014 0.94203 0.05653 0.0
C478 C 0.5205 0.05237 0.97318 0.0
C479 C 0.49068 0.05905 0.95604 0.0
C480 C 0.51639 0.02935 0.99564 0.0
C481 C 0.48227 0.01256 1.00156 0.0
C482 C 0.45262 0.01904 0.98399 0.0
C483 C 0.4568 0.04196 0.96153 0.0
H484 H 0.92679 0.98177 0.46534 0.0
H485 H 0.97551 0.08814 0.45142 0.0
H486 H 0.96464 0.97415 0.50506 0.0
H487 H 0.01502 0.07964 0.49068 0.0
H488 H 0.05408 0.06805 0.57894 0.0
H489 H 0.01533 0.0776 0.5392 0.0
H490 H 0.02564 0.96234 0.51882 0.0
H491 H 0.06343 0.95311 0.55886 0.0
C492 C 0.94552 1.0037 0.47073 0.0
C493 C 0.9476 0.03581 0.45509 0.0
C494 C 0.96777 0.99903 0.49344 0.0
C495 C 0.99318 0.02618 0.50129 0.0
C496 C 0.99554 0.05825 0.48557 0.0
C497 C 0.97314 0.06296 0.46278 0.0
C498 C 0.04761 0.04483 0.56601 0.0
C499 C 0.06099 1.00973 0.57222 0.0
C500 C 0.02573 0.05028 0.54308 0.0
C501 C 0.01698 0.02075 0.52566 0.0
C502 C 0.03095 0.98568 0.53191 0.0
C503 C 0.05269 0.98029 0.55484 0.0
H504 H 0.16001 0.7326 0.19197 0.0
H505 H 0.17395 0.69096 0.1108 0.0
H506 H 0.22213 0.7585 0.19049 0.0
H507 H 0.2365 0.71707 0.10906 0.0
H508 H 0.33526 0.80279 0.11239 0.0
H509 H 0.27287 0.77653 0.10987 0.0
H510 H 0.28534 0.733 0.19019 0.0
H511 H 0.34733 0.75908 0.19245 0.0
C512 C 0.17632 0.7295 0.17365 0.0
C513 C 0.16224 0.7098 0.15151 0.0
C514 C 0.21206 0.74399 0.17285 0.0
C515 C 0.23469 0.73947 0.14979 0.0
C516 C 0.21991 0.72112 0.12713 0.0
C517 C 0.18411 0.70623 0.12806 0.0
C518 C 0.32475 0.78699 0.12921 0.0
C519 C 0.34605 0.78286 0.15258 0.0
C520 C 0.28903 0.77202 0.12784 0.0
C521 C 0.27374 0.75304 0.14998 0.0
C522 C 0.29582 0.74798 0.17295 0.0
C523 C 0.33148 0.76255 0.17418 0.0
H524 H 0.21245 0.63307 0.64106 0.0
H525 H 0.31755 0.66964 0.60964 0.0
H526 H 0.18957 0.69593 0.64001 0.0
H527 H 0.29377 0.73237 0.60757 0.0
H528 H 0.22228 0.83675 0.58841 0.0
H529 H 0.24334 0.77261 0.58481 0.0
H530 H 0.20668 0.75374 0.66672 0.0
H531 H 0.18619 0.81752 0.67037 0.0
C532 C 0.23078 0.65433 0.63387 0.0
C533 C 0.26722 0.64592 0.62584 0.0
C534 C 0.21747 0.69045 0.63313 0.0
C535 C 0.23991 0.71922 0.62391 0.0
C536 C 0.2757 0.71078 0.61464 0.0
C537 C 0.28926 0.67465 0.61574 0.0
C538 C 0.21857 0.81875 0.60553 0.0
C539 C 0.20268 0.83221 0.6297 0.0
C540 C 0.23081 0.78215 0.60354 0.0
C541 C 0.22662 0.75805 0.62547 0.0
C542 C 0.21006 0.77145 0.64939 0.0
C543 C 0.19852 0.80806 0.65154 0.0
H544 H 0.68064 0.14856 0.88871 0.0
H545 H 0.63677 0.25526 0.91078 0.0
H546 H 0.74203 0.1736 0.88815 0.0
H547 H 0.69872 0.27929 0.91337 0.0
H548 H 0.81082 0.32507 0.88921 0.0
H549 H 0.74847 0.30039 0.89061 0.0
H550 H 0.79277 0.19323 0.9096 0.0
H551 H 0.85498 0.2179 0.90593 0.0
C552 C 0.6838 0.17738 0.89361 0.0
C553 C 0.65285 0.19969 0.89938 0.0
C554 C 0.71962 0.19175 0.89388 0.0
C555 C 0.7262 0.22884 0.90068 0.0
C556 C 0.69536 0.25086 0.90739 0.0
C557 C 0.65941 0.23669 0.90646 0.0
C558 C 0.80698 0.29625 0.8937 0.0
C559 C 0.83767 0.27338 0.8974 0.0
C560 C 0.7711 0.28196 0.89476 0.0
C561 C 0.76476 0.24445 0.90022 0.0
C562 C 0.79587 0.22193 0.90462 0.0
C563 C 0.83176 0.23609 0.90284 0.0
H564 H 0.76581 0.35514 0.36114 0.0
H565 H 0.66532 0.31761 0.39871 0.0
H566 H 0.79237 0.29348 0.36523 0.0
H567 H 0.69128 0.25541 0.40175 0.0
H568 H 0.73811 0.14553 0.35915 0.0
H569 H 0.71135 0.20716 0.36394 0.0
H570 H 0.81064 0.24487 0.40248 0.0
H571 H 0.83676 0.18269 0.39872 0.0
C572 C 0.74972 0.33392 0.37087 0.0
C573 C 0.71367 0.34149 0.38006 0.0
C574 C 0.76484 0.29851 0.37306 0.0
C575 C 0.74395 0.26945 0.38379 0.0
C576 C 0.70808 0.27712 0.39333 0.0
C577 C 0.6933 0.31276 0.39176 0.0
C578 C 0.75373 0.16666 0.36945 0.0
C579 C 0.78934 0.15902 0.37898 0.0
C580 C 0.7385 0.20205 0.37204 0.0
C581 C 0.75886 0.23101 0.38356 0.0
C582 C 0.79426 0.22324 0.39346 0.0
C583 C 0.80913 0.18762 0.39146 0.0
H584 H 0.75511 0.56654 0.27636 0.0
H585 H 0.79267 0.45771 0.25382 0.0
H586 H 0.80345 0.59323 0.24907 0.0
H587 H 0.84314 0.48473 0.22792 0.0
H588 H 0.91578 0.5443 0.16621 0.0
H589 H 0.86177 0.51768 0.18889 0.0
H590 H 0.8665 0.60374 0.24954 0.0
H591 H 0.91911 0.63059 0.22616 0.0
C592 C 0.77344 0.54809 0.26545 0.0
C593 C 0.76936 0.50969 0.26734 0.0
C594 C 0.80184 0.56359 0.25006 0.0
C595 C 0.82774 0.54136 0.23629 0.0
C596 C 0.82364 0.50293 0.23793 0.0
C597 C 0.79486 0.48733 0.25318 0.0
C598 C 0.90453 0.55777 0.18406 0.0
C599 C 0.92109 0.58977 0.19423 0.0
C600 C 0.87393 0.54232 0.19732 0.0
C601 C 0.85944 0.55839 0.22121 0.0
C602 C 0.87606 0.5908 0.23099 0.0
C603 C 0.90635 0.60629 0.21764 0.0
H604 H 0.36583 0.34052 0.71729 0.0
H605 H 0.47636 0.37438 0.69677 0.0
H606 H 0.39037 0.29567 0.74869 0.0
H607 H 0.5012 0.32876 0.72758 0.0
H608 H 0.52974 0.27746 0.80981 0.0
H609 H 0.50774 0.31823 0.77429 0.0
H610 H 0.42208 0.24016 0.75488 0.0
H611 H 0.44324 0.20064 0.7912 0.0
C612 C 0.39544 0.33772 0.719 0.0
C613 C 0.41911 0.36107 0.70456 0.0
C614 C 0.40963 0.31194 0.73705 0.0
C615 C 0.44792 0.30854 0.74096 0.0
C616 C 0.47159 0.33101 0.72565 0.0
C617 C 0.45737 0.35703 0.70781 0.0
C618 C 0.50641 0.26911 0.79773 0.0
C619 C 0.48813 0.23607 0.80324 0.0
C620 C 0.49384 0.29228 0.77725 0.0
C621 C 0.46288 0.28274 0.76163 0.0
C622 C 0.44549 0.24893 0.76671 0.0
C623 C 0.45783 0.22602 0.78734 0.0
H624 H 0.57244 0.8859 0.2363 0.0
H625 H 0.60281 0.93396 0.16002 0.0
H626 H 0.62479 0.91592 0.25792 0.0
H627 H 0.65589 0.96403 0.18161 0.0
H628 H 0.76705 0.97871 0.23073 0.0
H629 H 0.71674 0.94943 0.20579 0.0
H630 H 0.64032 0.98165 0.26898 0.0
H631 H 0.69036 1.0106 0.29388 0.0
C632 C 0.59071 0.90261 0.22413 0.0
C633 C 0.58361 0.90781 0.19656 0.0
C634 C 0.62049 0.92004 0.23651 0.0
C635 C 0.64423 0.94281 0.22158 0.0
C636 C 0.63809 0.94669 0.19366 0.0
C637 C 0.60786 0.9295 0.18129 0.0
C638 C 0.73944 0.97977 0.23917 0.0
C639 C 0.73279 0.99704 0.26434 0.0
C640 C 0.71061 0.96315 0.22482 0.0
C641 C 0.67459 0.96289 0.23551 0.0
C642 C 0.66783 0.98096 0.26032 0.0
C643 C 0.69647 0.99795 0.27446 0.0
H644 H 0.08394 0.30116 0.79057 0.0
H645 H 0.98057 0.24395 0.7968 0.0
H646 H 0.10319 0.26004 0.75354 0.0
H647 H 0.99989 0.20169 0.76094 0.0
H648 H 0.03194 0.13954 0.68645 0.0
H649 H 1.01245 0.19038 0.71563 0.0
H650 H 0.12357 0.19985 0.7458 0.0
H651 H 0.14308 0.15009 0.71559 0.0
C652 C 0.06521 0.28001 0.78365 0.0
C653 C 0.03067 0.27585 0.79614 0.0
C654 C 0.07631 0.2561 0.76269 0.0
C655 C 0.05328 0.22715 0.75407 0.0
C656 C 0.01826 0.22387 0.76639 0.0
C657 C 1.00709 0.24799 0.78706 0.0
C658 C 0.05224 0.15293 0.69906 0.0
C659 C 0.08902 0.1408 0.69874 0.0
C660 C 0.04106 0.18194 0.71602 0.0
C661 C 0.06619 0.19922 0.73356 0.0
C662 C 0.10335 0.18781 0.73245 0.0
C663 C 0.11463 0.15914 0.71514 0.0
H664 H 0.15419 0.35166 0.81858 0.0
H665 H 0.13391 0.46385 0.84306 0.0
H666 H 0.20323 0.37198 0.78823 0.0
H667 H 0.18393 0.48433 0.81367 0.0
H668 H 0.23846 0.51239 0.73229 0.0
H669 H 0.19628 0.49351 0.76816 0.0
H670 H 0.26202 0.39592 0.78053 0.0
H671 H 0.30309 0.41455 0.74354 0.0
C672 C 0.16091 0.38062 0.818 0.0
C673 C 0.14004 0.40614 0.83317 0.0
C674 C 0.18917 0.39239 0.80058 0.0
C675 C 0.19768 0.43001 0.79808 0.0
C676 C 0.17782 0.45527 0.81436 0.0
C677 C 0.14925 0.44353 0.83145 0.0
C678 C 0.24414 0.4873 0.74313 0.0
C679 C 0.27413 0.4651 0.73545 0.0
C680 C 0.22003 0.47638 0.7638 0.0
C681 C 0.22541 0.44299 0.77752 0.0
C682 C 0.25642 0.42146 0.77029 0.0
C683 C 0.28032 0.43228 0.74936 0.0
H684 H 0.54435 0.58504 0.36335 0.0
H685 H 0.63168 0.58157 0.30395 0.0
H686 H 0.51764 0.63875 0.34101 0.0
H687 H 0.60475 0.63382 0.28088 0.0
H688 H 0.56807 0.74497 0.25528 0.0
H689 H 0.59433 0.69665 0.28217 0.0
H690 H 0.48511 0.65777 0.30203 0.0
H691 H 0.45848 0.70829 0.27658 0.0
C692 C 0.55796 0.59613 0.34566 0.0
C693 C 0.59031 0.57965 0.33556 0.0
C694 C 0.54249 0.62658 0.3326 0.0
C695 C 0.55889 0.64099 0.309 0.0
C696 C 0.59156 0.62434 0.29923 0.0
C697 C 0.60707 0.59422 0.31238 0.0
C698 C 0.54935 0.72685 0.26584 0.0
C699 C 0.51087 0.73117 0.26371 0.0
C700 C 0.56461 0.69843 0.28099 0.0
C701 C 0.54206 0.67273 0.29424 0.0
C702 C 0.50354 0.67709 0.2924 0.0
C703 C 0.48818 0.70591 0.2774 0.0
H704 H 0.31573 0.06572 0.85845 0.0
H705 H 0.36346 0.11802 0.78822 0.0
H706 H 0.26592 0.04166 0.83008 0.0
H707 H 0.31307 0.09592 0.76088 0.0
H708 H 0.2 0.08399 0.72511 0.0
H709 H 0.24137 0.10734 0.76014 0.0
H710 H 0.26286 0.99647 0.78586 0.0
H711 H 0.22215 0.97311 0.75026 0.0
C712 C 0.31573 0.07228 0.83716 0.0
C713 C 0.34357 0.0946 0.82595 0.0
C714 C 0.28704 0.05864 0.82098 0.0
C715 C 0.28527 0.06755 0.79341 0.0
C716 C 0.31317 0.08938 0.78221 0.0
C717 C 0.34203 0.1023 0.79809 0.0
C718 C 0.21275 0.06476 0.73879 0.0
C719 C 0.20744 0.02685 0.73532 0.0
C720 C 0.23653 0.07804 0.7587 0.0
C721 C 0.25534 0.05369 0.77569 0.0
C722 C 0.24837 0.01585 0.77328 0.0
C723 C 0.22493 1.0025 0.75305 0.0
H724 H 0.0141 0.8099 0.23174 0.0
H725 H 0.97923 0.7351 0.29412 0.0
H726 H 0.98572 0.86085 0.25666 0.0
H727 H 0.95058 0.78632 0.31908 0.0
H728 H 0.93668 0.90036 0.36574 0.0
H729 H 0.96607 0.84661 0.3439 0.0
H730 H 0.92025 0.87877 0.26738 0.0
H731 H 0.89082 0.93176 0.28925 0.0
C732 C 1.0009 0.80438 0.25099 0.0
C733 C 0.99902 0.76831 0.26088 0.0
C734 C 0.98424 0.83356 0.26514 0.0
C735 C 0.96555 0.82766 0.28977 0.0
C736 C 0.96479 0.79184 0.30021 0.0
C737 C 0.98105 0.76248 0.28583 0.0
C738 C 0.9326 0.89546 0.34435 0.0
C739 C 0.91171 0.92022 0.32913 0.0
C740 C 0.9494 0.86481 0.33183 0.0
C741 C 0.94596 0.85868 0.30379 0.0
C742 C 0.92406 0.88299 0.28888 0.0
C743 C 0.90697 0.91319 0.30141 0.0
loop_
_geom_bond_atom_site_label_1
_geom_bond_atom_site_label_2
_geom_bond_distance
_geom_bond_site_symmetry_2
_ccdc_geom_bond_type
C0 C1 1.443 . S
C0 N4 1.376 . S
C0 C38 1.389 . S
C1 C0 1.443 . S
C1 C2 1.340 . S
C1 H41 0.951 . S
C2 C1 1.340 . S
C2 C3 1.439 . S
C2 H42 0.950 . S
C3 C2 1.439 . S
C3 N4 1.374 . S
C3 C37 1.395 . S
N4 C0 1.376 . S
N4 C3 1.374 . S
N4 Co5 2.008 1_655 S
Co5 N4 2.008 1_455 S
Co5 N6 1.995 . S
Co5 N11 2.008 . S
Co5 N16 1.995 1_455 S
Co5 N21 2.282 . S
Co5 N27 2.282 1_455 S
N6 Co5 1.995 . S
N6 C7 1.376 1_455 S
N6 C10 1.383 . S
C7 N6 1.376 1_655 S
C7 C8 1.446 1_655 S
C7 C37 1.391 . S
C8 C7 1.446 1_455 S
C8 C9 1.339 . S
C8 H43 0.949 . S
C9 C8 1.339 . S
C9 C10 1.439 . S
C9 H44 0.950 . S
C10 N6 1.383 . S
C10 C9 1.439 . S
C10 C39 1.392 . S
N11 Co5 2.008 . S
N11 C12 1.376 . S
N11 C15 1.374 . S
C12 N11 1.376 . S
C12 C13 1.443 . S
C12 C39 1.389 . S
C13 C12 1.443 . S
C13 C14 1.340 . S
C13 H45 0.951 . S
C14 C13 1.340 . S
C14 C15 1.439 . S
C14 H46 0.950 . S
C15 N11 1.374 . S
C15 C14 1.439 . S
C15 C40 1.395 . S
N16 Co5 1.995 1_655 S
N16 C17 1.376 1_655 S
N16 C20 1.383 . S
C17 N16 1.376 1_455 S
C17 C18 1.446 1_455 S
C17 C40 1.391 . S
C18 C17 1.446 1_655 S
C18 C19 1.339 . S
C18 H47 0.949 . S
C19 C18 1.339 . S
C19 C20 1.439 . S
C19 H48 0.950 . S
C20 N16 1.383 . S
C20 C19 1.439 . S
C20 C38 1.392 . S
N21 Co5 2.282 . S
N21 C24 1.332 . S
N21 C26 1.332 . S
C22 C23 1.386 . S
C22 C25 1.388 . S
C23 C22 1.386 . S
C23 C24 1.382 . S
C23 H49 0.950 . S
C24 N21 1.332 . S
C24 C23 1.382 . S
C24 H35 0.952 . S
C25 C22 1.388 . S
C25 C26 1.382 . S
C25 H50 0.950 . S
C26 N21 1.332 . S
C26 C25 1.382 . S
C26 H36 0.948 1_455 S
N27 Co5 2.282 1_655 S
N27 C31 1.332 . S
N27 C32 1.332 . S
C28 C29 1.388 . S
C28 C32 1.382 . S
C28 H51 0.950 . S
C29 C28 1.388 . S
C29 C30 1.386 . S
C30 C29 1.386 . S
C30 C31 1.382 . S
C30 H52 0.950 . S
C31 N27 1.332 . S
C31 C30 1.382 . S
C31 H33 0.952 . S
C32 N27 1.332 . S
C32 C28 1.382 . S
C32 H34 0.948 1_655 S
H33 C31 0.952 . S
H34 C32 0.948 1_455 S
H35 C24 0.952 . S
H36 C26 0.948 1_655 S
C37 C3 1.395 . S
C37 C7 1.391 . S
C38 C0 1.389 . S
C38 C20 1.392 . S
C39 C10 1.392 . S
C39 C12 1.389 . S
C40 C15 1.395 . S
C40 C17 1.391 . S
H41 C1 0.951 . S
H42 C2 0.950 . S
H43 C8 0.949 . S
H44 C9 0.950 . S
H45 C13 0.951 . S
H46 C14 0.950 . S
H47 C18 0.949 . S
H48 C19 0.950 . S
H49 C23 0.950 . S
H50 C25 0.950 . S
H51 C28 0.950 . S
H52 C30 0.950 . S
C53 C54 1.443 . S
C53 N57 1.376 . S
C53 C91 1.389 . S
C54 C53 1.443 . S
C54 C55 1.340 . S
C54 H94 0.951 . S
C55 C54 1.340 . S
C55 C56 1.439 . S
C55 H95 0.950 . S
C56 C55 1.439 . S
C56 N57 1.374 . S
C56 C90 1.395 . S
N57 C53 1.376 . S
N57 C56 1.374 . S
N57 Co58 2.008 . S
Co58 N57 2.008 . S
Co58 N59 1.995 . S
Co58 N64 2.008 . S
Co58 N69 1.995 . S
Co58 N74 2.282 . S
Co58 N80 2.282 . S
N59 Co58 1.995 . S
N59 C60 1.376 . S
N59 C63 1.383 . S
C60 N59 1.376 . S
C60 C61 1.446 . S
C60 C90 1.391 . S
C61 C60 1.446 . S
C61 C62 1.339 . S
C61 H96 0.949 . S
C62 C61 1.339 . S
C62 C63 1.439 . S
C62 H97 0.950 . S
C63 N59 1.383 . S
C63 C62 1.439 . S
C63 C92 1.392 . S
N64 Co58 2.008 . S
N64 C65 1.376 . S
N64 C68 1.374 . S
C65 N64 1.376 . S
C65 C66 1.443 . S
C65 C92 1.389 . S
C66 C65 1.443 . S
C66 C67 1.340 . S
C66 H98 0.951 . S
C67 C66 1.340 . S
C67 C68 1.439 . S
C67 H99 0.950 . S
C68 N64 1.374 . S
C68 C67 1.439 . S
C68 C93 1.395 . S
N69 Co58 1.995 . S
N69 C70 1.376 . S
N69 C73 1.383 . S
C70 N69 1.376 . S
C70 C71 1.446 . S
C70 C93 1.391 . S
C71 C70 1.446 . S
C71 C72 1.339 . S
C71 H100 0.949 . S
C72 C71 1.339 . S
C72 C73 1.439 . S
C72 H101 0.950 . S
C73 N69 1.383 . S
C73 C72 1.439 . S
C73 C91 1.392 . S
N74 Co58 2.282 . S
N74 C77 1.332 . S
N74 C79 1.332 . S
C75 C76 1.386 . S
C75 C78 1.388 . S
C76 C75 1.386 . S
C76 C77 1.382 . S
C76 H102 0.950 . S
C77 N74 1.332 . S
C77 C76 1.382 . S
C77 H88 0.952 . S
C78 C75 1.388 . S
C78 C79 1.382 . S
C78 H103 0.950 . S
C79 N74 1.332 . S
C79 C78 1.382 . S
C79 H89 0.948 . S
N80 Co58 2.282 . S
N80 C84 1.332 . S
N80 C85 1.332 . S
C81 C82 1.388 . S
C81 C85 1.382 . S
C81 H104 0.950 . S
C82 C81 1.388 . S
C82 C83 1.386 . S
C83 C82 1.386 . S
C83 C84 1.382 . S
C83 H105 0.950 . S
C84 N80 1.332 . S
C84 C83 1.382 . S
C84 H86 0.952 . S
C85 N80 1.332 . S
C85 C81 1.382 . S
C85 H87 0.948 . S
H86 C84 0.952 . S
H87 C85 0.948 . S
H88 C77 0.952 . S
H89 C79 0.948 . S
C90 C56 1.395 . S
C90 C60 1.391 . S
C91 C53 1.389 . S
C91 C73 1.392 . S
C92 C63 1.392 . S
C92 C65 1.389 . S
C93 C68 1.395 . S
C93 C70 1.391 . S
H94 C54 0.951 . S
H95 C55 0.950 . S
H96 C61 0.949 . S
H97 C62 0.950 . S
H98 C66 0.951 . S
H99 C67 0.950 . S
H100 C71 0.949 . S
H101 C72 0.950 . S
H102 C76 0.950 . S
H103 C78 0.950 . S
H104 C81 0.950 . S
H105 C83 0.950 . S
C106 C107 1.443 . S
C106 N110 1.376 . S
C106 C144 1.389 . S
C107 C106 1.443 . S
C107 C108 1.340 . S
C107 H147 0.951 . S
C108 C107 1.340 . S
C108 C109 1.439 . S
C108 H148 0.950 . S
C109 C108 1.439 . S
C109 N110 1.374 . S
C109 C143 1.395 . S
N110 C106 1.376 . S
N110 C109 1.374 . S
N110 Co111 2.008 . S
Co111 N110 2.008 . S
Co111 N112 1.995 . S
Co111 N117 2.008 . S
Co111 N122 1.995 . S
Co111 N127 2.282 . S
Co111 N133 2.282 . S
N112 Co111 1.995 . S
N112 C113 1.376 . S
N112 C116 1.383 . S
C113 N112 1.376 . S
C113 C114 1.446 . S
C113 C143 1.391 . S
C114 C113 1.446 . S
C114 C115 1.339 . S
C114 H149 0.949 . S
C115 C114 1.339 . S
C115 C116 1.439 . S
C115 H150 0.950 . S
C116 N112 1.383 . S
C116 C115 1.439 . S
C116 C145 1.392 . S
N117 Co111 2.008 . S
N117 C118 1.376 . S
N117 C121 1.374 . S
C118 N117 1.376 . S
C118 C119 1.443 . S
C118 C145 1.389 . S
C119 C118 1.443 . S
C119 C120 1.340 . S
C119 H151 0.951 . S
C120 C119 1.340 . S
C120 C121 1.439 . S
C120 H152 0.950 . S
C121 N117 1.374 . S
C121 C120 1.439 . S
C121 C146 1.395 . S
N122 Co111 1.995 . S
N122 C123 1.376 . S
N122 C126 1.383 . S
C123 N122 1.376 . S
C123 C124 1.446 . S
C123 C146 1.391 . S
C124 C123 1.446 . S
C124 C125 1.339 . S
C124 H153 0.949 . S
C125 C124 1.339 . S
C125 C126 1.439 . S
C125 H154 0.950 . S
C126 N122 1.383 . S
C126 C125 1.439 . S
C126 C144 1.392 . S
N127 Co111 2.282 . S
N127 C130 1.332 . S
N127 C132 1.332 . S
C128 C129 1.386 . S
C128 C131 1.388 . S
C129 C128 1.386 . S
C129 C130 1.382 . S
C129 H155 0.950 . S
C130 N127 1.332 . S
C130 C129 1.382 . S
C130 H141 0.952 . S
C131 C128 1.388 . S
C131 C132 1.382 . S
C131 H156 0.950 . S
C132 N127 1.332 . S
C132 C131 1.382 . S
C132 H142 0.948 . S
N133 Co111 2.282 . S
N133 C137 1.332 . S
N133 C138 1.332 . S
C134 C135 1.388 . S
C134 C138 1.382 . S
C134 H157 0.950 . S
C135 C134 1.388 . S
C135 C136 1.386 . S
C136 C135 1.386 . S
C136 C137 1.382 . S
C136 H158 0.950 . S
C137 N133 1.332 . S
C137 C136 1.382 . S
C137 H139 0.952 . S
C138 N133 1.332 . S
C138 C134 1.382 . S
C138 H140 0.948 . S
H139 C137 0.952 . S
H140 C138 0.948 . S
H141 C130 0.952 . S
H142 C132 0.948 . S
C143 C109 1.395 . S
C143 C113 1.391 . S
C144 C106 1.389 . S
C144 C126 1.392 . S
C145 C116 1.392 . S
C145 C118 1.389 . S
C146 C121 1.395 . S
C146 C123 1.391 . S
H147 C107 0.951 . S
H148 C108 0.950 . S
H149 C114 0.949 . S
H150 C115 0.950 . S
H151 C119 0.951 . S
H152 C120 0.950 . S
H153 C124 0.949 . S
H154 C125 0.950 . S
H155 C129 0.950 . S
H156 C131 0.950 . S
H157 C134 0.950 . S
H158 C136 0.950 . S
C159 C160 1.443 . S
C159 N163 1.376 . S
C159 C197 1.389 . S
C160 C159 1.443 . S
C160 C161 1.340 . S
C160 H200 0.951 . S
C161 C160 1.340 . S
C161 C162 1.439 . S
C161 H201 0.950 . S
C162 C161 1.439 . S
C162 N163 1.374 . S
C162 C196 1.395 . S
N163 C159 1.376 . S
N163 C162 1.374 . S
N163 Co164 2.008 . S
Co164 N163 2.008 . S
Co164 N165 1.995 . S
Co164 N170 2.008 1_565 S
Co164 N175 1.995 1_565 S
Co164 N180 2.282 1_565 S
Co164 N186 2.282 . S
N165 Co164 1.995 . S
N165 C166 1.376 . S
N165 C169 1.383 . S
C166 N165 1.376 . S
C166 C167 1.446 . S
C166 C196 1.391 . S
C167 C166 1.446 . S
C167 C168 1.339 . S
C167 H202 0.949 . S
C168 C167 1.339 . S
C168 C169 1.439 . S
C168 H203 0.950 . S
C169 N165 1.383 . S
C169 C168 1.439 . S
C169 C198 1.392 1_565 S
N170 Co164 2.008 1_545 S
N170 C171 1.376 . S
N170 C174 1.374 . S
C171 N170 1.376 . S
C171 C172 1.443 . S
C171 C198 1.389 . S
C172 C171 1.443 . S
C172 C173 1.340 . S
C172 H204 0.951 . S
C173 C172 1.340 . S
C173 C174 1.439 . S
C173 H205 0.950 . S
C174 N170 1.374 . S
C174 C173 1.439 . S
C174 C199 1.395 . S
N175 Co164 1.995 1_545 S
N175 C176 1.376 . S
N175 C179 1.383 . S
C176 N175 1.376 . S
C176 C177 1.446 . S
C176 C199 1.391 . S
C177 C176 1.446 . S
C177 C178 1.339 . S
C177 H206 0.949 . S
C178 C177 1.339 . S
C178 C179 1.439 . S
C178 H207 0.950 . S
C179 N175 1.383 . S
C179 C178 1.439 . S
C179 C197 1.392 1_545 S
N180 Co164 2.282 1_545 S
N180 C183 1.332 . S
N180 C185 1.332 . S
C181 C182 1.386 . S
C181 C184 1.388 . S
C182 C181 1.386 . S
C182 C183 1.382 . S
C182 H208 0.950 . S
C183 N180 1.332 . S
C183 C182 1.382 . S
C183 H194 0.952 . S
C184 C181 1.388 . S
C184 C185 1.382 . S
C184 H209 0.950 . S
C185 N180 1.332 . S
C185 C184 1.382 . S
C185 H195 0.948 . S
N186 Co164 2.282 . S
N186 C190 1.332 . S
N186 C191 1.332 . S
C187 C188 1.388 . S
C187 C191 1.382 . S
C187 H210 0.950 . S
C188 C187 1.388 . S
C188 C189 1.386 . S
C189 C188 1.386 . S
C189 C190 1.382 . S
C189 H211 0.950 . S
C190 N186 1.332 . S
C190 C189 1.382 . S
C190 H192 0.952 . S
C191 N186 1.332 . S
C191 C187 1.382 . S
C191 H193 0.948 . S
H192 C190 0.952 . S
H193 C191 0.948 . S
H194 C183 0.952 . S
H195 C185 0.948 . S
C196 C162 1.395 . S
C196 C166 1.391 . S
C197 C159 1.389 . S
C197 C179 1.392 1_565 S
C198 C169 1.392 1_545 S
C198 C171 1.389 . S
C199 C174 1.395 . S
C199 C176 1.391 . S
H200 C160 0.951 . S
H201 C161 0.950 . S
H202 C167 0.949 . S
H203 C168 0.950 . S
H204 C172 0.951 . S
H205 C173 0.950 . S
H206 C177 0.949 . S
H207 C178 0.950 . S
H208 C182 0.950 . S
H209 C184 0.950 . S
H210 C187 0.950 . S
H211 C189 0.950 . S
C212 C213 1.438 1_655 S
C212 N216 1.369 1_655 S
C212 C250 1.401 . S
C213 C212 1.438 1_455 S
C213 C214 1.340 . S
C213 H253 0.951 . S
C214 C213 1.340 . S
C214 C215 1.439 . S
C214 H254 0.950 . S
C215 C214 1.439 . S
C215 N216 1.374 . S
C215 C249 1.395 . S
N216 C212 1.369 1_455 S
N216 C215 1.374 . S
N216 Co217 2.008 1_455 S
Co217 N216 2.008 1_655 S
Co217 N218 1.995 1_655 S
Co217 N223 2.008 . S
Co217 N228 1.995 . S
Co217 N233 2.282 1_655 S
Co217 N239 2.282 . S
N218 Co217 1.995 1_455 S
N218 C219 1.376 . S
N218 C222 1.383 . S
C219 N218 1.376 . S
C219 C220 1.446 . S
C219 C249 1.391 . S
C220 C219 1.446 . S
C220 C221 1.339 . S
C220 H255 0.949 . S
C221 C220 1.339 . S
C221 C222 1.439 . S
C221 H256 0.950 . S
C222 N218 1.383 . S
C222 C221 1.439 . S
C222 C251 1.392 . S
N223 Co217 2.008 . S
N223 C224 1.371 1_655 S
N223 C227 1.374 . S
C224 N223 1.371 1_455 S
C224 C225 1.440 1_455 S
C224 C251 1.397 . S
C225 C224 1.440 1_655 S
C225 C226 1.340 . S
C225 H257 0.951 . S
C226 C225 1.340 . S
C226 C227 1.439 . S
C226 H258 0.950 . S
C227 N223 1.374 . S
C227 C226 1.439 . S
C227 C252 1.395 . S
N228 Co217 1.995 . S
N228 C229 1.376 . S
N228 C232 1.383 . S
C229 N228 1.376 . S
C229 C230 1.446 . S
C229 C252 1.391 . S
C230 C229 1.446 . S
C230 C231 1.339 . S
C230 H259 0.949 . S
C231 C230 1.339 . S
C231 C232 1.439 . S
C231 H260 0.950 . S
C232 N228 1.383 . S
C232 C231 1.439 . S
C232 C250 1.392 . S
N233 Co217 2.282 1_455 S
N233 C236 1.332 . S
N233 C238 1.332 . S
C234 C235 1.386 . S
C234 C237 1.388 . S
C235 C234 1.386 . S
C235 C236 1.382 . S
C235 H261 0.950 . S
C236 N233 1.332 . S
C236 C235 1.382 . S
C236 H247 0.952 . S
C237 C234 1.388 . S
C237 C238 1.382 . S
C237 H262 0.950 . S
C238 N233 1.332 . S
C238 C237 1.382 . S
C238 H248 0.948 . S
N239 Co217 2.282 . S
N239 C243 1.332 . S
N239 C244 1.332 . S
C240 C241 1.388 . S
C240 C244 1.382 . S
C240 H263 0.950 . S
C241 C240 1.388 . S
C241 C242 1.386 . S
C242 C241 1.386 . S
C242 C243 1.382 . S
C242 H264 0.950 . S
C243 N239 1.332 . S
C243 C242 1.382 . S
C243 H245 0.952 . S
C244 N239 1.332 . S
C244 C240 1.382 . S
C244 H246 0.948 . S
H245 C243 0.952 . S
H246 C244 0.948 . S
H247 C236 0.952 . S
H248 C238 0.948 . S
C249 C215 1.395 . S
C249 C219 1.391 . S
C250 C212 1.401 . S
C250 C232 1.392 . S
C251 C222 1.392 . S
C251 C224 1.397 . S
C252 C227 1.395 . S
C252 C229 1.391 . S
H253 C213 0.951 . S
H254 C214 0.950 . S
H255 C220 0.949 . S
H256 C221 0.950 . S
H257 C225 0.951 . S
H258 C226 0.950 . S
H259 C230 0.949 . S
H260 C231 0.950 . S
H261 C235 0.950 . S
H262 C237 0.950 . S
H263 C240 0.950 . S
H264 C242 0.950 . S
C265 C266 1.443 . S
C265 N269 1.376 . S
C265 C303 1.389 . S
C266 C265 1.443 . S
C266 C267 1.340 . S
C266 H306 0.951 . S
C267 C266 1.340 . S
C267 C268 1.439 . S
C267 H307 0.950 . S
C268 C267 1.439 . S
C268 N269 1.374 . S
C268 C302 1.395 . S
N269 C265 1.376 . S
N269 C268 1.374 . S
N269 Co270 2.008 . S
Co270 N269 2.008 . S
Co270 N271 1.995 . S
Co270 N276 2.008 . S
Co270 N281 1.995 . S
Co270 N286 2.282 . S
Co270 N292 2.282 . S
N271 Co270 1.995 . S
N271 C272 1.376 . S
N271 C275 1.383 . S
C272 N271 1.376 . S
C272 C273 1.446 . S
C272 C302 1.391 . S
C273 C272 1.446 . S
C273 C274 1.339 . S
C273 H308 0.949 . S
C274 C273 1.339 . S
C274 C275 1.439 . S
C274 H309 0.950 . S
C275 N271 1.383 . S
C275 C274 1.439 . S
C275 C304 1.392 . S
N276 Co270 2.008 . S
N276 C277 1.376 . S
N276 C280 1.374 . S
C277 N276 1.376 . S
C277 C278 1.443 . S
C277 C304 1.389 . S
C278 C277 1.443 . S
C278 C279 1.340 . S
C278 H310 0.951 . S
C279 C278 1.340 . S
C279 C280 1.439 . S
C279 H311 0.950 . S
C280 N276 1.374 . S
C280 C279 1.439 . S
C280 C305 1.395 . S
N281 Co270 1.995 . S
N281 C282 1.376 . S
N281 C285 1.383 . S
C282 N281 1.376 . S
C282 C283 1.446 . S
C282 C305 1.391 . S
C283 C282 1.446 . S
C283 C284 1.339 . S
C283 H312 0.949 . S
C284 C283 1.339 . S
C284 C285 1.439 . S
C284 H313 0.950 . S
C285 N281 1.383 . S
C285 C284 1.439 . S
C285 C303 1.392 . S
N286 Co270 2.282 . S
N286 C289 1.332 . S
N286 C291 1.332 . S
C287 C288 1.386 . S
C287 C290 1.388 . S
C288 C287 1.386 . S
C288 C289 1.382 . S
C288 H314 0.950 . S
C289 N286 1.332 . S
C289 C288 1.382 . S
C289 H300 0.952 . S
C290 C287 1.388 . S
C290 C291 1.382 . S
C290 H315 0.950 . S
C291 N286 1.332 . S
C291 C290 1.382 . S
C291 H301 0.948 . S
N292 Co270 2.282 . S
N292 C296 1.332 . S
N292 C297 1.332 . S
C293 C294 1.388 . S
C293 C297 1.382 . S
C293 H316 0.950 . S
C294 C293 1.388 . S
C294 C295 1.386 . S
C295 C294 1.386 . S
C295 C296 1.382 . S
C295 H317 0.950 . S
C296 N292 1.332 . S
C296 C295 1.382 . S
C296 H298 0.952 . S
C297 N292 1.332 . S
C297 C293 1.382 . S
C297 H299 0.948 . S
H298 C296 0.952 . S
H299 C297 0.948 . S
H300 C289 0.952 . S
H301 C291 0.948 . S
C302 C268 1.395 . S
C302 C272 1.391 . S
C303 C265 1.389 . S
C303 C285 1.392 . S
C304 C275 1.392 . S
C304 C277 1.389 . S
C305 C280 1.395 . S
C305 C282 1.391 . S
H306 C266 0.951 . S
H307 C267 0.950 . S
H308 C273 0.949 . S
H309 C274 0.950 . S
H310 C278 0.951 . S
H311 C279 0.950 . S
H312 C283 0.949 . S
H313 C284 0.950 . S
H314 C288 0.950 . S
H315 C290 0.950 . S
H316 C293 0.950 . S
H317 C295 0.950 . S
C318 C319 1.443 . S
C318 N322 1.376 . S
C318 C356 1.389 . S
C319 C318 1.443 . S
C319 C320 1.340 . S
C319 H359 0.951 . S
C320 C319 1.340 . S
C320 C321 1.439 . S
C320 H360 0.950 . S
C321 C320 1.439 . S
C321 N322 1.374 . S
C321 C355 1.395 . S
N322 C318 1.376 . S
N322 C321 1.374 . S
N322 Co323 2.008 . S
Co323 N322 2.008 . S
Co323 N324 1.995 . S
Co323 N329 2.008 . S
Co323 N334 1.995 . S
Co323 N339 2.282 . S
Co323 N345 2.282 . S
N324 Co323 1.995 . S
N324 C325 1.376 . S
N324 C328 1.383 . S
C325 N324 1.376 . S
C325 C326 1.446 . S
C325 C355 1.391 . S
C326 C325 1.446 . S
C326 C327 1.339 . S
C326 H361 0.949 . S
C327 C326 1.339 . S
C327 C328 1.439 . S
C327 H362 0.950 . S
C328 N324 1.383 . S
C328 C327 1.439 . S
C328 C357 1.392 . S
N329 Co323 2.008 . S
N329 C330 1.376 . S
N329 C333 1.374 . S
C330 N329 1.376 . S
C330 C331 1.443 . S
C330 C357 1.389 . S
C331 C330 1.443 . S
C331 C332 1.340 . S
C331 H363 0.951 . S
C332 C331 1.340 . S
C332 C333 1.439 . S
C332 H364 0.950 . S
C333 N329 1.374 . S
C333 C332 1.439 . S
C333 C358 1.395 . S
N334 Co323 1.995 . S
N334 C335 1.376 . S
N334 C338 1.383 . S
C335 N334 1.376 . S
C335 C336 1.446 . S
C335 C358 1.391 . S
C336 C335 1.446 . S
C336 C337 1.339 . S
C336 H365 0.949 . S
C337 C336 1.339 . S
C337 C338 1.439 . S
C337 H366 0.950 . S
C338 N334 1.383 . S
C338 C337 1.439 . S
C338 C356 1.392 . S
N339 Co323 2.282 . S
N339 C342 1.332 . S
N339 C344 1.332 . S
C340 C341 1.386 . S
C340 C343 1.388 . S
C341 C340 1.386 . S
C341 C342 1.382 . S
C341 H367 0.950 . S
C342 N339 1.332 . S
C342 C341 1.382 . S
C342 H353 0.952 . S
C343 C340 1.388 . S
C343 C344 1.382 . S
C343 H368 0.950 . S
C344 N339 1.332 . S
C344 C343 1.382 . S
C344 H354 0.948 . S
N345 Co323 2.282 . S
N345 C349 1.332 . S
N345 C350 1.332 . S
C346 C347 1.388 . S
C346 C350 1.382 . S
C346 H369 0.950 . S
C347 C346 1.388 . S
C347 C348 1.386 . S
C348 C347 1.386 . S
C348 C349 1.382 . S
C348 H370 0.950 . S
C349 N345 1.332 . S
C349 C348 1.382 . S
C349 H351 0.952 . S
C350 N345 1.332 . S
C350 C346 1.382 . S
C350 H352 0.948 . S
H351 C349 0.952 . S
H352 C350 0.948 . S
H353 C342 0.952 . S
H354 C344 0.948 . S
C355 C321 1.395 . S
C355 C325 1.391 . S
C356 C318 1.389 . S
C356 C338 1.392 . S
C357 C328 1.392 . S
C357 C330 1.389 . S
C358 C333 1.395 . S
C358 C335 1.391 . S
H359 C319 0.951 . S
H360 C320 0.950 . S
H361 C326 0.949 . S
H362 C327 0.950 . S
H363 C331 0.951 . S
H364 C332 0.950 . S
H365 C336 0.949 . S
H366 C337 0.950 . S
H367 C341 0.950 . S
H368 C343 0.950 . S
H369 C346 0.950 . S
H370 C348 0.950 . S
C371 C372 1.443 . S
C371 N375 1.376 . S
C371 C409 1.389 . S
C372 C371 1.443 . S
C372 C373 1.340 . S
C372 H412 0.951 . S
C373 C372 1.340 . S
C373 C374 1.439 1_565 S
C373 H413 0.950 . S
C374 C373 1.439 1_545 S
C374 N375 1.374 1_545 S
C374 C408 1.395 . S
N375 C371 1.376 . S
N375 C374 1.374 1_565 S
N375 Co376 2.008 1_565 S
Co376 N375 2.008 1_545 S
Co376 N377 1.995 . S
Co376 N382 2.008 . S
Co376 N387 1.995 1_545 S
Co376 N392 2.282 . S
Co376 N398 2.282 1_545 S
N377 Co376 1.995 . S
N377 C378 1.376 . S
N377 C381 1.383 . S
C378 N377 1.376 . S
C378 C379 1.446 . S
C378 C408 1.391 . S
C379 C378 1.446 . S
C379 C380 1.339 . S
C379 H414 0.949 . S
C380 C379 1.339 . S
C380 C381 1.439 . S
C380 H415 0.950 . S
C381 N377 1.383 . S
C381 C380 1.439 . S
C381 C410 1.392 . S
N382 Co376 2.008 . S
N382 C383 1.376 . S
N382 C386 1.374 1_545 S
C383 N382 1.376 . S
C383 C384 1.443 . S
C383 C410 1.389 . S
C384 C383 1.443 . S
C384 C385 1.340 . S
C384 H416 0.951 . S
C385 C384 1.340 . S
C385 C386 1.439 1_545 S
C385 H417 0.950 . S
C386 N382 1.374 1_565 S
C386 C385 1.439 1_565 S
C386 C411 1.395 . S
N387 Co376 1.995 1_565 S
N387 C388 1.376 . S
N387 C391 1.383 . S
C388 N387 1.376 . S
C388 C389 1.446 . S
C388 C411 1.391 . S
C389 C388 1.446 . S
C389 C390 1.339 . S
C389 H418 0.949 . S
C390 C389 1.339 . S
C390 C391 1.439 . S
C390 H419 0.950 . S
C391 N387 1.383 . S
C391 C390 1.439 . S
C391 C409 1.392 . S
N392 Co376 2.282 . S
N392 C395 1.332 1_545 S
N392 C397 1.332 . S
C393 C394 1.386 . S
C393 C396 1.388 . S
C394 C393 1.386 . S
C394 C395 1.382 1_545 S
C394 H420 0.950 1_545 S
C395 N392 1.332 1_565 S
C395 C394 1.382 1_565 S
C395 H406 0.952 . S
C396 C393 1.388 . S
C396 C397 1.382 . S
C396 H421 0.950 . S
C397 N392 1.332 . S
C397 C396 1.382 . S
C397 H407 0.948 . S
N398 Co376 2.282 1_565 S
N398 C402 1.332 1_565 S
N398 C403 1.332 . S
C399 C400 1.388 . S
C399 C403 1.382 . S
C399 H422 0.950 . S
C400 C399 1.388 . S
C400 C401 1.386 . S
C401 C400 1.386 . S
C401 C402 1.382 1_565 S
C401 H423 0.950 1_565 S
C402 N398 1.332 1_545 S
C402 C401 1.382 1_545 S
C402 H404 0.952 . S
C403 N398 1.332 . S
C403 C399 1.382 . S
C403 H405 0.948 . S
H404 C402 0.952 . S
H405 C403 0.948 . S
H406 C395 0.952 . S
H407 C397 0.948 . S
C408 C374 1.395 . S
C408 C378 1.391 . S
C409 C371 1.389 . S
C409 C391 1.392 . S
C410 C381 1.392 . S
C410 C383 1.389 . S
C411 C386 1.395 . S
C411 C388 1.391 . S
H412 C372 0.951 . S
H413 C373 0.950 . S
H414 C379 0.949 . S
H415 C380 0.950 . S
H416 C384 0.951 . S
H417 C385 0.950 . S
H418 C389 0.949 . S
H419 C390 0.950 . S
H420 C394 0.950 1_565 S
H421 C396 0.950 . S
H422 C399 0.950 . S
H423 C401 0.950 1_545 S
H424 C432 0.950 . S
H425 C437 0.950 . S
H426 C434 0.950 1_554 S
H427 C436 0.950 . S
H428 C438 0.950 . S
H429 C440 0.950 1_655 S
H430 C442 0.950 . S
H431 C443 0.950 . S
C432 H424 0.950 . S
C432 C433 1.386 1_455 S
C432 C434 1.391 . S
C433 C432 1.386 1_655 S
C433 C437 1.393 . S
C434 H426 0.950 1_556 S
C434 C432 1.391 . S
C434 C435 1.400 . S
C435 C434 1.400 . S
C435 C436 1.398 1_455 S
C435 C441 1.491 1_556 S
C436 H427 0.950 . S
C436 C435 1.398 1_655 S
C436 C437 1.391 . S
C437 H425 0.950 . S
C437 C433 1.393 . S
C437 C436 1.391 . S
C438 H428 0.950 . S
C438 C439 1.386 . S
C438 C440 1.391 1_554 S
C439 C438 1.386 . S
C439 C443 1.393 . S
C440 H429 0.950 1_455 S
C440 C438 1.391 1_556 S
C440 C441 1.400 1_556 S
C441 C435 1.491 1_554 S
C441 C440 1.400 1_554 S
C441 C442 1.398 . S
C442 H430 0.950 . S
C442 C441 1.398 . S
C442 C443 1.391 . S
C443 H431 0.950 . S
C443 C439 1.393 . S
C443 C442 1.391 . S
H444 C452 0.950 . S
H445 C457 0.950 . S
H446 C454 0.950 . S
H447 C456 0.950 . S
H448 C458 0.950 . S
H449 C460 0.950 . S
H450 C462 0.950 . S
H451 C463 0.950 . S
C452 H444 0.950 . S
C452 C453 1.386 . S
C452 C454 1.391 . S
C453 C452 1.386 . S
C453 C457 1.393 . S
C454 H446 0.950 . S
C454 C452 1.391 . S
C454 C455 1.400 . S
C455 C454 1.400 . S
C455 C456 1.398 . S
C455 C461 1.491 . S
C456 H447 0.950 . S
C456 C455 1.398 . S
C456 C457 1.391 . S
C457 H445 0.950 . S
C457 C453 1.393 . S
C457 C456 1.391 . S
C458 H448 0.950 . S
C458 C459 1.386 . S
C458 C460 1.391 . S
C459 C458 1.386 . S
C459 C463 1.393 . S
C460 H449 0.950 . S
C460 C458 1.391 . S
C460 C461 1.400 . S
C461 C455 1.491 . S
C461 C460 1.400 . S
C461 C462 1.398 . S
C462 H450 0.950 . S
C462 C461 1.398 . S
C462 C463 1.391 . S
C463 H451 0.950 . S
C463 C459 1.393 . S
C463 C462 1.391 . S
H464 C472 0.950 . S
H465 C477 0.950 . S
H466 C474 0.950 . S
H467 C476 0.950 1_556 S
H468 C478 0.950 . S
H469 C480 0.950 . S
H470 C482 0.950 . S
H471 C483 0.950 . S
C472 H464 0.950 . S
C472 C473 1.386 . S
C472 C474 1.391 . S
C473 C472 1.386 . S
C473 C477 1.393 . S
C474 H466 0.950 . S
C474 C472 1.391 . S
C474 C475 1.400 . S
C475 C474 1.400 . S
C475 C476 1.398 . S
C475 C481 1.491 1_564 S
C476 H467 0.950 1_554 S
C476 C475 1.398 . S
C476 C477 1.391 . S
C477 H465 0.950 . S
C477 C473 1.393 . S
C477 C476 1.391 . S
C478 H468 0.950 . S
C478 C479 1.386 . S
C478 C480 1.391 . S
C479 C478 1.386 . S
C479 C483 1.393 . S
C480 H469 0.950 . S
C480 C478 1.391 . S
C480 C481 1.400 . S
C481 C475 1.491 1_546 S
C481 C480 1.400 . S
C481 C482 1.398 . S
C482 H470 0.950 . S
C482 C481 1.398 . S
C482 C483 1.391 . S
C483 H471 0.950 . S
C483 C479 1.393 . S
C483 C482 1.391 . S
H484 C492 0.938 1_565 S
H485 C497 0.950 . S
H486 C494 0.950 . S
H487 C496 0.950 1_455 S
H488 C498 0.950 . S
H489 C500 0.950 . S
H490 C502 0.950 1_655 S
H491 C503 0.950 . S
C492 H484 0.938 1_545 S
C492 C493 1.402 . S
C492 C494 1.387 1_545 S
C493 C492 1.402 . S
C493 C497 1.393 . S
C494 H486 0.950 . S
C494 C492 1.387 1_565 S
C494 C495 1.400 1_565 S
C495 C494 1.400 1_545 S
C495 C496 1.398 . S
C495 C501 1.491 1_655 S
C496 H487 0.950 1_655 S
C496 C495 1.398 . S
C496 C497 1.391 . S
C497 H485 0.950 . S
C497 C493 1.393 . S
C497 C496 1.391 . S
C498 H488 0.950 . S
C498 C499 1.386 1_545 S
C498 C500 1.391 . S
C499 C498 1.386 1_565 S
C499 C503 1.393 . S
C500 H489 0.950 . S
C500 C498 1.391 . S
C500 C501 1.400 . S
C501 C495 1.491 1_455 S
C501 C500 1.400 . S
C501 C502 1.398 1_545 S
C502 H490 0.950 1_455 S
C502 C501 1.398 1_565 S
C502 C503 1.391 . S
C503 H491 0.950 . S
C503 C499 1.393 . S
C503 C502 1.391 . S
H504 C512 0.950 . S
H505 C517 0.950 . S
H506 C514 0.950 . S
H507 C516 0.950 . S
H508 C518 0.950 . S
H509 C520 0.950 . S
H510 C522 0.950 . S
H511 C523 0.950 . S
C512 H504 0.950 . S
C512 C513 1.386 . S
C512 C514 1.391 . S
C513 C512 1.386 . S
C513 C517 1.393 . S
C514 H506 0.950 . S
C514 C512 1.391 . S
C514 C515 1.400 . S
C515 C514 1.400 . S
C515 C516 1.398 . S
C515 C521 1.491 . S
C516 H507 0.950 . S
C516 C515 1.398 . S
C516 C517 1.391 . S
C517 H505 0.950 . S
C517 C513 1.393 . S
C517 C516 1.391 . S
C518 H508 0.950 . S
C518 C519 1.386 . S
C518 C520 1.391 . S
C519 C518 1.386 . S
C519 C523 1.393 . S
C520 H509 0.950 . S
C520 C518 1.391 . S
C520 C521 1.400 . S
C521 C515 1.491 . S
C521 C520 1.400 . S
C521 C522 1.398 . S
C522 H510 0.950 . S
C522 C521 1.398 . S
C522 C523 1.391 . S
C523 H511 0.950 . S
C523 C519 1.393 . S
C523 C522 1.391 . S
H524 C532 0.950 . S
H525 C537 0.950 . S
H526 C534 0.950 . S
H527 C536 0.950 . S
H528 C538 0.950 . S
H529 C540 0.950 . S
H530 C542 0.950 . S
H531 C543 0.950 . S
C532 H524 0.950 . S
C532 C533 1.386 . S
C532 C534 1.391 . S
C533 C532 1.386 . S
C533 C537 1.393 . S
C534 H526 0.950 . S
C534 C532 1.391 . S
C534 C535 1.400 . S
C535 C534 1.400 . S
C535 C536 1.398 . S
C535 C541 1.491 . S
C536 H527 0.950 . S
C536 C535 1.398 . S
C536 C537 1.391 . S
C537 H525 0.950 . S
C537 C533 1.393 . S
C537 C536 1.391 . S
C538 H528 0.950 . S
C538 C539 1.386 . S
C538 C540 1.391 . S
C539 C538 1.386 . S
C539 C543 1.393 . S
C540 H529 0.950 . S
C540 C538 1.391 . S
C540 C541 1.400 . S
C541 C535 1.491 . S
C541 C540 1.400 . S
C541 C542 1.398 . S
C542 H530 0.950 . S
C542 C541 1.398 . S
C542 C543 1.391 . S
C543 H531 0.950 . S
C543 C539 1.393 . S
C543 C542 1.391 . S
H544 C552 0.950 . S
H545 C557 0.950 . S
H546 C554 0.950 . S
H547 C556 0.950 . S
H548 C558 0.950 . S
H549 C560 0.950 . S
H550 C562 0.950 . S
H551 C563 0.950 . S
C552 H544 0.950 . S
C552 C553 1.386 . S
C552 C554 1.391 . S
C553 C552 1.386 . S
C553 C557 1.393 . S
C554 H546 0.950 . S
C554 C552 1.391 . S
C554 C555 1.400 . S
C555 C554 1.400 . S
C555 C556 1.398 . S
C555 C561 1.491 . S
C556 H547 0.950 . S
C556 C555 1.398 . S
C556 C557 1.391 . S
C557 H545 0.950 . S
C557 C553 1.393 . S
C557 C556 1.391 . S
C558 H548 0.950 . S
C558 C559 1.386 . S
C558 C560 1.391 . S
C559 C558 1.386 . S
C559 C563 1.393 . S
C560 H549 0.950 . S
C560 C558 1.391 . S
C560 C561 1.400 . S
C561 C555 1.491 . S
C561 C560 1.400 . S
C561 C562 1.398 . S
C562 H550 0.950 . S
C562 C561 1.398 . S
C562 C563 1.391 . S
C563 H551 0.950 . S
C563 C559 1.393 . S
C563 C562 1.391 . S
H564 C572 0.950 . S
H565 C577 0.950 . S
H566 C574 0.950 . S
H567 C576 0.950 . S
H568 C578 0.950 . S
H569 C580 0.950 . S
H570 C582 0.950 . S
H571 C583 0.950 . S
C572 H564 0.950 . S
C572 C573 1.386 . S
C572 C574 1.391 . S
C573 C572 1.386 . S
C573 C577 1.393 . S
C574 H566 0.950 . S
C574 C572 1.391 . S
C574 C575 1.400 . S
C575 C574 1.400 . S
C575 C576 1.398 . S
C575 C581 1.491 . S
C576 H567 0.950 . S
C576 C575 1.398 . S
C576 C577 1.391 . S
C577 H565 0.950 . S
C577 C573 1.393 . S
C577 C576 1.391 . S
C578 H568 0.950 . S
C578 C579 1.386 . S
C578 C580 1.391 . S
C579 C578 1.386 . S
C579 C583 1.393 . S
C580 H569 0.950 . S
C580 C578 1.391 . S
C580 C581 1.400 . S
C581 C575 1.491 . S
C581 C580 1.400 . S
C581 C582 1.398 . S
C582 H570 0.950 . S
C582 C581 1.398 . S
C582 C583 1.391 . S
C583 H571 0.950 . S
C583 C579 1.393 . S
C583 C582 1.391 . S
H584 C592 0.950 . S
H585 C597 0.950 . S
H586 C594 0.950 . S
H587 C596 0.950 . S
H588 C598 0.950 . S
H589 C600 0.950 . S
H590 C602 0.950 . S
H591 C603 0.950 . S
C592 H584 0.950 . S
C592 C593 1.386 . S
C592 C594 1.391 . S
C593 C592 1.386 . S
C593 C597 1.393 . S
C594 H586 0.950 . S
C594 C592 1.391 . S
C594 C595 1.400 . S
C595 C594 1.400 . S
C595 C596 1.398 . S
C595 C601 1.491 . S
C596 H587 0.950 . S
C596 C595 1.398 . S
C596 C597 1.391 . S
C597 H585 0.950 . S
C597 C593 1.393 . S
C597 C596 1.391 . S
C598 H588 0.950 . S
C598 C599 1.386 . S
C598 C600 1.391 . S
C599 C598 1.386 . S
C599 C603 1.393 . S
C600 H589 0.950 . S
C600 C598 1.391 . S
C600 C601 1.400 . S
C601 C595 1.491 . S
C601 C600 1.400 . S
C601 C602 1.398 . S
C602 H590 0.950 . S
C602 C601 1.398 . S
C602 C603 1.391 . S
C603 H591 0.950 . S
C603 C599 1.393 . S
C603 C602 1.391 . S
H604 C612 0.950 . S
H605 C617 0.950 . S
H606 C614 0.950 . S
H607 C616 0.950 . S
H608 C618 0.950 . S
H609 C620 0.950 . S
H610 C622 0.950 . S
H611 C623 0.950 . S
C612 H604 0.950 . S
C612 C613 1.386 . S
C612 C614 1.391 . S
C613 C612 1.386 . S
C613 C617 1.393 . S
C614 H606 0.950 . S
C614 C612 1.391 . S
C614 C615 1.400 . S
C615 C614 1.400 . S
C615 C616 1.398 . S
C615 C621 1.491 . S
C616 H607 0.950 . S
C616 C615 1.398 . S
C616 C617 1.391 . S
C617 H605 0.950 . S
C617 C613 1.393 . S
C617 C616 1.391 . S
C618 H608 0.950 . S
C618 C619 1.386 . S
C618 C620 1.391 . S
C619 C618 1.386 . S
C619 C623 1.393 . S
C620 H609 0.950 . S
C620 C618 1.391 . S
C620 C621 1.400 . S
C621 C615 1.491 . S
C621 C620 1.400 . S
C621 C622 1.398 . S
C622 H610 0.950 . S
C622 C621 1.398 . S
C622 C623 1.391 . S
C623 H611 0.950 . S
C623 C619 1.393 . S
C623 C622 1.391 . S
H624 C632 0.950 . S
H625 C637 0.950 . S
H626 C634 0.950 . S
H627 C636 0.950 . S
H628 C638 0.950 . S
H629 C640 0.950 . S
H630 C642 0.950 . S
H631 C643 0.950 . S
C632 H624 0.950 . S
C632 C633 1.386 . S
C632 C634 1.391 . S
C633 C632 1.386 . S
C633 C637 1.393 . S
C634 H626 0.950 . S
C634 C632 1.391 . S
C634 C635 1.400 . S
C635 C634 1.400 . S
C635 C636 1.398 . S
C635 C641 1.491 . S
C636 H627 0.950 . S
C636 C635 1.398 . S
C636 C637 1.391 . S
C637 H625 0.950 . S
C637 C633 1.393 . S
C637 C636 1.391 . S
C638 H628 0.950 . S
C638 C639 1.386 . S
C638 C640 1.391 . S
C639 C638 1.386 . S
C639 C643 1.393 . S
C640 H629 0.950 . S
C640 C638 1.391 . S
C640 C641 1.400 . S
C641 C635 1.491 . S
C641 C640 1.400 . S
C641 C642 1.398 . S
C642 H630 0.950 . S
C642 C641 1.398 . S
C642 C643 1.391 . S
C643 H631 0.950 . S
C643 C639 1.393 . S
C643 C642 1.391 . S
H644 C652 0.950 . S
H645 C657 0.950 . S
H646 C654 0.950 . S
H647 C656 0.950 . S
H648 C658 0.950 . S
H649 C660 0.950 . S
H650 C662 0.950 . S
H651 C663 0.950 . S
C652 H644 0.950 . S
C652 C653 1.386 . S
C652 C654 1.391 . S
C653 C652 1.386 . S
C653 C657 1.393 . S
C654 H646 0.950 . S
C654 C652 1.391 . S
C654 C655 1.400 . S
C655 C654 1.400 . S
C655 C656 1.398 . S
C655 C661 1.491 . S
C656 H647 0.950 . S
C656 C655 1.398 . S
C656 C657 1.391 . S
C657 H645 0.950 . S
C657 C653 1.393 . S
C657 C656 1.391 . S
C658 H648 0.950 . S
C658 C659 1.386 . S
C658 C660 1.391 . S
C659 C658 1.386 . S
C659 C663 1.393 . S
C660 H649 0.950 . S
C660 C658 1.391 . S
C660 C661 1.400 . S
C661 C655 1.491 . S
C661 C660 1.400 . S
C661 C662 1.398 . S
C662 H650 0.950 . S
C662 C661 1.398 . S
C662 C663 1.391 . S
C663 H651 0.950 . S
C663 C659 1.393 . S
C663 C662 1.391 . S
H664 C672 0.950 . S
H665 C677 0.950 . S
H666 C674 0.950 . S
H667 C676 0.950 . S
H668 C678 0.950 . S
H669 C680 0.950 . S
H670 C682 0.950 . S
H671 C683 0.950 . S
C672 H664 0.950 . S
C672 C673 1.386 . S
C672 C674 1.391 . S
C673 C672 1.386 . S
C673 C677 1.393 . S
C674 H666 0.950 . S
C674 C672 1.391 . S
C674 C675 1.400 . S
C675 C674 1.400 . S
C675 C676 1.398 . S
C675 C681 1.491 . S
C676 H667 0.950 . S
C676 C675 1.398 . S
C676 C677 1.391 . S
C677 H665 0.950 . S
C677 C673 1.393 . S
C677 C676 1.391 . S
C678 H668 0.950 . S
C678 C679 1.386 . S
C678 C680 1.391 . S
C679 C678 1.386 . S
C679 C683 1.393 . S
C680 H669 0.950 . S
C680 C678 1.391 . S
C680 C681 1.400 . S
C681 C675 1.491 . S
C681 C680 1.400 . S
C681 C682 1.398 . S
C682 H670 0.950 . S
C682 C681 1.398 . S
C682 C683 1.391 . S
C683 H671 0.950 . S
C683 C679 1.393 . S
C683 C682 1.391 . S
H684 C692 0.950 . S
H685 C697 0.950 . S
H686 C694 0.950 . S
H687 C696 0.950 . S
H688 C698 0.950 . S
H689 C700 0.950 . S
H690 C702 0.950 . S
H691 C703 0.950 . S
C692 H684 0.950 . S
C692 C693 1.386 . S
C692 C694 1.391 . S
C693 C692 1.386 . S
C693 C697 1.393 . S
C694 H686 0.950 . S
C694 C692 1.391 . S
C694 C695 1.400 . S
C695 C694 1.400 . S
C695 C696 1.398 . S
C695 C701 1.491 . S
C696 H687 0.950 . S
C696 C695 1.398 . S
C696 C697 1.391 . S
C697 H685 0.950 . S
C697 C693 1.393 . S
C697 C696 1.391 . S
C698 H688 0.950 . S
C698 C699 1.386 . S
C698 C700 1.391 . S
C699 C698 1.386 . S
C699 C703 1.393 . S
C700 H689 0.950 . S
C700 C698 1.391 . S
C700 C701 1.400 . S
C701 C695 1.491 . S
C701 C700 1.400 . S
C701 C702 1.398 . S
C702 H690 0.950 . S
C702 C701 1.398 . S
C702 C703 1.391 . S
C703 H691 0.950 . S
C703 C699 1.393 . S
C703 C702 1.391 . S
H704 C712 0.950 . S
H705 C717 0.950 . S
H706 C714 0.950 . S
H707 C716 0.950 . S
H708 C718 0.950 . S
H709 C720 0.950 . S
H710 C722 0.950 . S
H711 C723 0.928 1_565 S
C712 H704 0.950 . S
C712 C713 1.386 . S
C712 C714 1.391 . S
C713 C712 1.386 . S
C713 C717 1.393 . S
C714 H706 0.950 . S
C714 C712 1.391 . S
C714 C715 1.400 . S
C715 C714 1.400 . S
C715 C716 1.398 . S
C715 C721 1.491 . S
C716 H707 0.950 . S
C716 C715 1.398 . S
C716 C717 1.391 . S
C717 H705 0.950 . S
C717 C713 1.393 . S
C717 C716 1.391 . S
C718 H708 0.950 . S
C718 C719 1.386 . S
C718 C720 1.391 . S
C719 C718 1.386 . S
C719 C723 1.393 . S
C720 H709 0.950 . S
C720 C718 1.391 . S
C720 C721 1.400 . S
C721 C715 1.491 . S
C721 C720 1.400 . S
C721 C722 1.398 . S
C722 H710 0.950 . S
C722 C721 1.398 . S
C722 C723 1.391 . S
C723 H711 0.928 1_545 S
C723 C719 1.393 . S
C723 C722 1.391 . S
H724 C732 0.950 . S
H725 C737 0.950 . S
H726 C734 0.950 . S
H727 C736 0.950 . S
H728 C738 0.950 . S
H729 C740 0.950 . S
H730 C742 0.950 . S
H731 C743 0.950 . S
C732 H724 0.950 . S
C732 C733 1.386 . S
C732 C734 1.391 . S
C733 C732 1.386 . S
C733 C737 1.393 . S
C734 H726 0.950 . S
C734 C732 1.391 . S
C734 C735 1.400 . S
C735 C734 1.400 . S
C735 C736 1.398 . S
C735 C741 1.491 . S
C736 H727 0.950 . S
C736 C735 1.398 . S
C736 C737 1.391 . S
C737 H725 0.950 . S
C737 C733 1.393 . S
C737 C736 1.391 . S
C738 H728 0.950 . S
C738 C739 1.386 . S
C738 C740 1.391 . S
C739 C738 1.386 . S
C739 C743 1.393 . S
C740 H729 0.950 . S
C740 C738 1.391 . S
C740 C741 1.400 . S
C741 C735 1.491 . S
C741 C740 1.400 . S
C741 C742 1.398 . S
C742 H730 0.950 . S
C742 C741 1.398 . S
C742 C743 1.391 . S
C743 H731 0.950 . S
C743 C739 1.393 . S
C743 C742 1.391 . S
C433 C250 2.062 . S
C439 C22 2.057 . S
C453 C91 1.988 . S
C459 C287 1.984 . S
C473 C128 1.866 . S
C479 C356 1.869 . S
C493 C393 1.966 . S
C499 C197 1.972 . S
C513 C39 2.810 . S
C519 C145 2.814 . S
C533 C82 2.441 . S
C539 C188 2.462 . S
C553 C347 2.439 . S
C559 C241 2.444 . S
C573 C304 2.830 . S
C579 C410 2.832 . S
C593 C294 1.609 . S
C599 C38 1.574 . S
C613 C75 1.622 . S
C619 C357 1.711 . S
C633 C144 1.633 . S
C639 C400 1.678 . S
C653 C251 1.527 . S
C659 C181 1.466 . S
C673 C234 1.509 . S
C679 C92 1.587 . S
C693 C303 1.634 . S
C699 C135 1.691 . S
C713 C340 1.577 . S
C719 C198 1.648 . S
C733 C29 1.583 . S
C739 C409 1.543 . S
