# Generated by pormake.
# Topology nov, (5)-cn, num edge types: 1
# Building blocks:
#     Node 0, Type 0, BuildingBlock: BEQFEK_clean_sbu_0, # of connection points: 5
#     Node 1, Type 0, BuildingBlock: BEQFEK_clean_sbu_0, # of connection points: 5
#     Node 2, Type 0, BuildingBlock: BEQFEK_clean_sbu_0, # of connection points: 5
#     Node 3, Type 0, BuildingBlock: BEQFEK_clean_sbu_0, # of connection points: 5
#     Node 4, Type 0, BuildingBlock: BEQFEK_clean_sbu_0, # of connection points: 5
#     Node 5, Type 0, BuildingBlock: BEQFEK_clean_sbu_0, # of connection points: 5
#     Node 6, Type 0, BuildingBlock: BEQFEK_clean_sbu_0, # of connection points: 5
#     Node 7, Type 0, BuildingBlock: BEQFEK_clean_sbu_0, # of connection points: 5
#     Edge 8, Type (0, 0), BuildingBlock: OJICUG_clean_linker_0, # of connection points: 2
#     Edge 9, Type (0, 0), BuildingBlock: OJICUG_clean_linker_0, # of connection points: 2
#     Edge 10, Type (0, 0), BuildingBlock: OJICUG_clean_linker_0, # of connection points: 2
#     Edge 11, Type (0, 0), BuildingBlock: OJICUG_clean_linker_0, # of connection points: 2
#     Edge 12, Type (0, 0), BuildingBlock: OJICUG_clean_linker_0, # of connection points: 2
#     Edge 13, Type (0, 0), BuildingBlock: OJICUG_clean_linker_0, # of connection points: 2
#     Edge 14, Type (0, 0), BuildingBlock: OJICUG_clean_linker_0, # of connection points: 2
#     Edge 15, Type (0, 0), BuildingBlock: OJICUG_clean_linker_0, # of connection points: 2
#     Edge 16, Type (0, 0), BuildingBlock: OJICUG_clean_linker_0, # of connection points: 2
#     Edge 17, Type (0, 0), BuildingBlock: OJICUG_clean_linker_0, # of connection points: 2
#     Edge 18, Type (0, 0), BuildingBlock: OJICUG_clean_linker_0, # of connection points: 2
#     Edge 19, Type (0, 0), BuildingBlock: OJICUG_clean_linker_0, # of connection points: 2
#     Edge 20, Type (0, 0), BuildingBlock: OJICUG_clean_linker_0, # of connection points: 2
#     Edge 21, Type (0, 0), BuildingBlock: OJICUG_clean_linker_0, # of connection points: 2
#     Edge 22, Type (0, 0), BuildingBlock: OJICUG_clean_linker_0, # of connection points: 2
#     Edge 23, Type (0, 0), BuildingBlock: OJICUG_clean_linker_0, # of connection points: 2
#     Edge 24, Type (0, 0), BuildingBlock: OJICUG_clean_linker_0, # of connection points: 2
#     Edge 25, Type (0, 0), BuildingBlock: OJICUG_clean_linker_0, # of connection points: 2
#     Edge 26, Type (0, 0), BuildingBlock: OJICUG_clean_linker_0, # of connection points: 2
#     Edge 27, Type (0, 0), BuildingBlock: OJICUG_clean_linker_0, # of connection points: 2
# Relax obj value: 0.078
# Max RMSD: 0.098
# Mean RMSD: 0.098
data_MOF--net-nov--node1-BEQFEK_clean_sbu_0--edge1-OJICUG_clean_linker_0
_symmetry_space_group_name_H-M    P1
_symmetry_Int_Tables_number       1
_symmetry_cell_setting            triclinic
loop_
_symmetry_equiv_pos_as_xyz
'x, y, z'
_cell_length_a     30.059335
_cell_length_b     30.693852
_cell_length_c     19.188213
_cell_angle_alpha  89.933091
_cell_angle_beta   89.994622
_cell_angle_gamma 90.029431
loop_
_atom_site_label
_atom_site_type_symbol
_atom_site_fract_x
_atom_site_fract_y
_atom_site_fract_z
_atom_type_partial_charge
Co0 Co 0.96924 0.13017 0.17341 0.0
Co1 Co 0.07432 0.1222 0.16042 0.0
C2 C 1.01341 0.05668 0.0966 0.0
O3 O 0.97791 0.07446 0.11938 0.0
O4 O 0.05155 0.07207 0.11095 0.0
C5 C 0.88175 0.1013 0.21514 0.0
O6 O 0.90159 0.06318 0.21353 0.0
C7 C 0.16549 0.08876 0.18551 0.0
C8 C 0.20546 0.14465 0.14902 0.0
C9 C 0.20884 0.10378 0.17905 0.0
N10 N 0.13778 0.11969 0.16122 0.0
N11 N 0.16205 0.1526 0.13819 0.0
C12 C 0.15072 0.04532 0.21241 0.0
H13 H 0.11408 0.04467 0.21963 0.0
H14 H 0.16766 0.03754 0.26222 0.0
H15 H 0.16025 0.01985 0.17424 0.0
C16 C 0.9975 0.15221 0.31754 0.0
N17 N 1.00631 0.13457 0.25467 0.0
N18 N 0.04946 0.12771 0.24987 0.0
C19 C 0.06912 0.13903 0.31016 0.0
C20 C 0.03721 0.15595 0.35465 0.0
C21 C 0.95356 0.17225 0.33554 0.0
H22 H 0.94004 0.18964 0.28947 0.0
H23 H 0.9298 0.14599 0.34956 0.0
H24 H 0.95616 0.19542 0.3796 0.0
O25 O 0.98485 0.1783 0.1081 0.0
O26 O 0.05883 0.174 0.10546 0.0
H27 H 0.1359 0.15932 0.28766 0.0
H28 H 0.12674 0.14465 0.37801 0.0
C29 C 0.11819 0.13673 0.32328 0.0
H30 H 0.12975 0.1032 0.31348 0.0
H31 H 0.1489 0.1812 0.11716 0.0
O32 O 0.90432 0.13516 0.20003 0.0
C33 C 0.02264 0.19217 0.08732 0.0
Co34 Co 0.61569 0.8433 0.67167 0.0
Co35 Co 0.51109 0.85405 0.66003 0.0
C36 C 0.57326 0.92212 0.6072 0.0
O37 O 0.60817 0.90034 0.62145 0.0
O38 O 0.53487 0.9081 0.62334 0.0
C39 C 0.70466 0.87053 0.70671 0.0
O40 O 0.68607 0.90905 0.70027 0.0
C41 C 0.42202 0.88292 0.7053 0.0
C42 C 0.37911 0.84535 0.63378 0.0
C43 C 0.37786 0.87427 0.68911 0.0
N44 N 0.44798 0.85961 0.6621 0.0
N45 N 0.42209 0.83776 0.61885 0.0
C46 C 0.43943 0.91459 0.75793 0.0
H47 H 0.47402 0.92426 0.74473 0.0
H48 H 0.43964 0.8995 0.81034 0.0
H49 H 0.41766 0.94376 0.76011 0.0
C50 C 0.58884 0.8227 0.81716 0.0
N51 N 0.57884 0.83864 0.75363 0.0
N52 N 0.53524 0.83921 0.74678 0.0
C53 C 0.51629 0.82127 0.8036 0.0
C54 C 0.5495 0.81092 0.8509 0.0
C55 C 0.63539 0.81529 0.8421 0.0
H56 H 0.65579 0.84463 0.83123 0.0
H57 H 0.63628 0.80834 0.89885 0.0
H58 H 0.65016 0.78753 0.8132 0.0
O59 O 0.59826 0.79593 0.60365 0.0
O60 O 0.52552 0.80843 0.59415 0.0
H61 H 0.46859 0.77134 0.83102 0.0
H62 H 0.4479 0.8259 0.8347 0.0
C63 C 0.46971 0.8036 0.8049 0.0
H64 H 0.45656 0.79952 0.75149 0.0
H65 H 0.43377 0.81686 0.5801 0.0
O66 O 0.68076 0.83673 0.69718 0.0
C67 C 0.56028 0.78764 0.57661 0.0
Co68 Co 0.97516 0.83275 0.83487 0.0
Co69 Co 0.07912 0.84802 0.84793 0.0
C70 C 0.01671 0.91245 0.90416 0.0
O71 O 0.98282 0.88951 0.88775 0.0
O72 O 0.05587 0.90048 0.8885 0.0
C73 C 0.89231 0.86278 0.78091 0.0
O74 O 0.91671 0.89795 0.77269 0.0
C75 C 0.17116 0.88034 0.82672 0.0
C76 C 0.20954 0.82253 0.85962 0.0
C77 C 0.21412 0.86415 0.83276 0.0
N78 N 0.14257 0.84932 0.84814 0.0
N79 N 0.16587 0.81521 0.86892 0.0
C80 C 0.15748 0.92501 0.8038 0.0
H81 H 0.12085 0.92687 0.79725 0.0
H82 H 0.1741 0.93409 0.75435 0.0
H83 H 0.16802 0.94893 0.84386 0.0
C84 C 1.00506 0.81159 0.69043 0.0
N85 N 1.01273 0.82891 0.75389 0.0
N86 N 0.05539 0.83817 0.75895 0.0
C87 C 0.07579 0.82871 0.69844 0.0
C88 C 0.04495 0.81074 0.65324 0.0
C89 C 0.96217 0.79004 0.67075 0.0
H90 H 0.94589 0.77616 0.71765 0.0
H91 H 0.93958 0.81478 0.64782 0.0
H92 H 0.96744 0.76371 0.63209 0.0
O93 O 0.99088 0.78425 0.90001 0.0
O94 O 0.06289 0.79962 0.90927 0.0
H95 H 0.14401 0.81248 0.71778 0.0
H96 H 0.13298 0.83015 0.62939 0.0
C97 C 0.1244 0.83522 0.685 0.0
H98 H 0.13355 0.86901 0.6986 0.0
H99 H 0.15187 0.78632 0.88748 0.0
O100 O 0.91047 0.82897 0.80691 0.0
C101 C 0.02923 0.77681 0.92599 0.0
Co102 Co 0.609 0.13992 0.33175 0.0
Co103 Co 0.50496 0.12369 0.34282 0.0
C104 C 0.5675 0.06317 0.40917 0.0
O105 O 0.60129 0.08539 0.3901 0.0
O106 O 0.52839 0.07338 0.39023 0.0
C107 C 0.69347 0.10845 0.28604 0.0
O108 O 0.67013 0.07228 0.28335 0.0
C109 C 0.41386 0.0896 0.31814 0.0
C110 C 0.37381 0.14583 0.35267 0.0
C111 C 0.3705 0.10464 0.32391 0.0
N112 N 0.44152 0.12081 0.34163 0.0
N113 N 0.41719 0.15394 0.36348 0.0
C114 C 0.42861 0.04583 0.29287 0.0
H115 H 0.46529 0.04499 0.28616 0.0
H116 H 0.4119 0.03755 0.24308 0.0
H117 H 0.41875 0.0208 0.3317 0.0
C118 C 0.58064 0.15836 0.18608 0.0
N119 N 0.57239 0.14121 0.24956 0.0
N120 N 0.52974 0.13166 0.2537 0.0
C121 C 0.50994 0.14094 0.19253 0.0
C122 C 0.54116 0.15897 0.14788 0.0
C123 C 0.62349 0.18047 0.16764 0.0
H124 H 0.63817 0.1958 0.21463 0.0
H125 H 0.64727 0.15573 0.14798 0.0
H126 H 0.61871 0.20574 0.12698 0.0
O127 O 0.59177 0.18983 0.39316 0.0
O128 O 0.51973 0.17409 0.40117 0.0
H129 H 0.4417 0.15717 0.21203 0.0
H130 H 0.45296 0.14129 0.12288 0.0
C131 C 0.46134 0.13507 0.17826 0.0
H132 H 0.45198 0.10107 0.18979 0.0
H133 H 0.43029 0.18277 0.38366 0.0
O134 O 0.67406 0.14332 0.30533 0.0
C135 C 0.55303 0.19751 0.41761 0.0
Co136 Co 0.47338 0.63148 0.17146 0.0
Co137 Co 0.5779 0.6237 0.15778 0.0
C138 C 0.5192 0.55371 0.10679 0.0
O139 O 0.48424 0.57545 0.12095 0.0
O140 O 0.55761 0.56751 0.12346 0.0
C141 C 0.38836 0.598 0.21389 0.0
O142 O 0.41072 0.56125 0.21237 0.0
C143 C 0.67231 0.60631 0.19433 0.0
C144 C 0.70523 0.65294 0.12326 0.0
C145 C 0.71344 0.62377 0.17677 0.0
N146 N 0.64122 0.62521 0.15391 0.0
N147 N 0.6614 0.65204 0.11025 0.0
C148 C 0.66229 0.57516 0.25223 0.0
H149 H 0.62599 0.57383 0.26262 0.0
H150 H 0.6806 0.58462 0.30011 0.0
H151 H 0.67388 0.5422 0.23703 0.0
C152 C 0.49999 0.65317 0.31622 0.0
N153 N 0.51048 0.63782 0.25258 0.0
N154 N 0.55407 0.63853 0.24545 0.0
C155 C 0.57242 0.65687 0.30247 0.0
C156 C 0.53887 0.66613 0.3499 0.0
C157 C 0.45326 0.65807 0.34194 0.0
H158 H 0.43474 0.62741 0.33254 0.0
H159 H 0.45227 0.66544 0.39851 0.0
H160 H 0.43651 0.68453 0.31249 0.0
O161 O 0.48659 0.68004 0.10337 0.0
O162 O 0.55886 0.6671 0.09133 0.0
H163 H 0.61996 0.70608 0.3337 0.0
H164 H 0.64089 0.65147 0.33184 0.0
C165 C 0.61881 0.67486 0.30468 0.0
H166 H 0.63146 0.68098 0.25147 0.0
H167 H 0.64502 0.67151 0.07381 0.0
O168 O 0.40852 0.63324 0.19834 0.0
C169 C 0.52403 0.68779 0.07436 0.0
Co170 Co 0.11196 0.33578 0.67062 0.0
Co171 Co 1.00735 0.34053 0.65768 0.0
C172 C 0.0628 0.41075 0.60029 0.0
O173 O 0.09842 0.39151 0.61949 0.0
O174 O 0.02461 0.39508 0.61402 0.0
C175 C 0.19397 0.37059 0.72287 0.0
O176 O 0.1693 0.40556 0.73086 0.0
C177 C 0.91048 0.35735 0.67938 0.0
C178 C 0.88503 0.29199 0.65242 0.0
C179 C 0.87216 0.33198 0.67887 0.0
N180 N 0.94457 0.33258 0.65695 0.0
N181 N 0.92865 0.29412 0.63874 0.0
C182 C 0.91526 0.40311 0.70512 0.0
H183 H 0.95091 0.41204 0.71029 0.0
H184 H 0.89794 0.40704 0.75581 0.0
H185 H 0.8993 0.42555 0.66728 0.0
C186 C 0.08511 0.31028 0.81444 0.0
N187 N 0.07553 0.3276 0.75156 0.0
N188 N 0.03227 0.33373 0.74732 0.0
C189 C 1.01329 0.32241 0.80822 0.0
C190 C 0.04581 0.30619 0.85249 0.0
C191 C 0.12968 0.29165 0.83257 0.0
H192 H 0.14653 0.27963 0.78493 0.0
H193 H 0.15056 0.31764 0.85592 0.0
H194 H 0.12673 0.26445 0.87038 0.0
O195 O 0.10179 0.28731 0.60441 0.0
O196 O 0.02823 0.29258 0.59898 0.0
H197 H 0.94602 0.30164 0.79204 0.0
H198 H 0.95719 0.32105 0.87938 0.0
C199 C 0.96459 0.32596 0.8233 0.0
H200 H 0.9532 0.35894 0.80917 0.0
H201 H 0.94799 0.26826 0.62084 0.0
O202 O 0.17628 0.33641 0.69764 0.0
C203 C 0.06432 0.27421 0.5817 0.0
Co204 Co 0.46826 0.3422 0.83196 0.0
Co205 Co 0.57267 0.34086 0.84791 0.0
C206 C 0.51517 0.41046 0.91226 0.0
O207 O 0.47878 0.39529 0.8887 0.0
O208 O 0.55217 0.39261 0.89793 0.0
C209 C 0.38049 0.37509 0.80126 0.0
O210 O 0.39941 0.41269 0.81505 0.0
C211 C 0.66732 0.35975 0.81168 0.0
C212 C 0.69998 0.31904 0.89166 0.0
C213 C 0.70872 0.34519 0.83433 0.0
N214 N 0.63588 0.34159 0.85246 0.0
N215 N 0.65584 0.31843 0.9013 0.0
C216 C 0.65754 0.38893 0.7511 0.0
H217 H 0.62129 0.39062 0.74092 0.0
H218 H 0.67545 0.37745 0.70401 0.0
H219 H 0.66959 0.42225 0.7631 0.0
C220 C 0.49431 0.32932 0.68429 0.0
N221 N 0.5054 0.33966 0.75027 0.0
N222 N 0.54868 0.33499 0.75775 0.0
C223 C 0.5659 0.31837 0.69863 0.0
C224 C 0.53225 0.31508 0.64925 0.0
C225 C 0.44757 0.32993 0.65745 0.0
H226 H 0.43082 0.36023 0.67469 0.0
H227 H 0.44676 0.32833 0.59969 0.0
H228 H 0.429 0.30183 0.67942 0.0
O229 O 0.4806 0.29073 0.89478 0.0
O230 O 0.55452 0.29021 0.90046 0.0
H231 H 0.6232 0.28935 0.74837 0.0
H232 H 0.60617 0.26328 0.66903 0.0
C233 C 0.6098 0.29522 0.6955 0.0
H234 H 0.63374 0.31489 0.66482 0.0
H235 H 0.63919 0.30075 0.93976 0.0
O236 O 0.40374 0.34049 0.8049 0.0
C237 C 0.51707 0.27396 0.91612 0.0
Co238 Co 0.11569 0.62809 0.33608 0.0
Co239 Co 1.01102 0.6305 0.35376 0.0
C240 C 0.06732 0.55862 0.41365 0.0
O241 O 0.10389 0.57417 0.39102 0.0
O242 O 0.03038 0.57711 0.40072 0.0
C243 C 0.20268 0.59464 0.29919 0.0
O244 O 0.18301 0.55691 0.30916 0.0
C245 C 0.91654 0.61163 0.32022 0.0
C246 C 0.88378 0.66152 0.38535 0.0
C247 C 0.87541 0.62965 0.33607 0.0
N248 N 0.94775 0.63265 0.35757 0.0
N249 N 0.92771 0.66155 0.39772 0.0
C250 C 0.92644 0.57772 0.26652 0.0
H251 H 0.96277 0.57531 0.25704 0.0
H252 H 0.9087 0.58529 0.21725 0.0
H253 H 0.91414 0.54572 0.28537 0.0
C254 C 0.0885 0.64309 0.18931 0.0
N255 N 0.07792 0.63233 0.25533 0.0
N256 N 0.03464 0.63667 0.26352 0.0
C257 C 0.01681 0.65301 0.2046 0.0
C258 C 0.05021 0.65705 0.15495 0.0
C259 C 0.13506 0.64314 0.16169 0.0
H260 H 0.15179 0.61232 0.17657 0.0
H261 H 0.13557 0.64631 0.10408 0.0
H262 H 0.15387 0.67052 0.1853 0.0
O263 O 0.10488 0.6791 0.40006 0.0
O264 O 0.03105 0.67981 0.40744 0.0
H265 H 0.97305 0.70453 0.16947 0.0
H266 H 0.94773 0.65186 0.17748 0.0
C267 C 0.97201 0.67446 0.20158 0.0
H268 H 0.96052 0.68355 0.25434 0.0
H269 H 0.94424 0.68281 0.4313 0.0
O270 O 0.18023 0.62942 0.30765 0.0
C271 C 0.06869 0.69582 0.42244 0.0
C272 C 0.97329 0.96142 0.98556 0.0
C273 C 1.01235 0.9518 0.94805 0.0
H274 H 0.9427 0.00234 0.06312 0.0
C275 C 0.05013 0.97792 0.95817 0.0
H276 H 0.94367 0.94175 0.97897 0.0
C277 C 0.04986 0.01135 0.00657 0.0
C278 C 1.0116 0.02037 0.04603 0.0
H279 H 0.08071 0.97195 0.92982 0.0
H280 H 0.0801 0.03017 0.01286 0.0
C281 C 0.97285 -0.00427 0.0341 0.0
C282 C 0.61193 0.00618 0.47448 0.0
C283 C 0.57179 0.02838 0.46203 0.0
H284 H 0.6443 0.95461 0.53113 0.0
C285 C 0.53444 0.01833 0.50299 0.0
H286 H 0.6414 0.01377 0.44434 0.0
C287 C 0.53634 -0.01418 0.55307 0.0
C288 C 0.57545 0.96169 0.56324 0.0
H289 H 0.50327 0.03556 0.49639 0.0
H290 H 0.50635 0.97872 0.58233 0.0
C291 C 0.61368 0.97273 0.52455 0.0
C292 C 0.47616 0.50226 0.03009 0.0
C293 C 0.51638 0.51464 0.06199 0.0
H294 H 0.44411 0.45984 0.95675 0.0
C295 C 0.55551 0.49211 0.04475 0.0
H296 H 0.44547 0.51917 0.04193 0.0
C297 C 0.55486 0.45894 0.99552 0.0
C298 C 0.51499 0.447 0.96241 0.0
H299 H 0.58713 0.50067 0.06815 0.0
H300 H 0.5859 0.44266 0.98355 0.0
C301 C 0.47546 0.46863 0.98078 0.0
C302 C 0.10596 0.46525 0.529 0.0
C303 C 0.06518 0.44994 0.55548 0.0
H304 H 0.1388 0.51141 0.46247 0.0
C305 C 0.02564 0.47048 0.53444 0.0
H306 H 0.137 0.44994 0.54384 0.0
C307 C 0.02663 0.50503 0.48756 0.0
C308 C 0.0672 0.5203 0.46052 0.0
H309 H 0.99359 0.45959 0.55353 0.0
H310 H 0.99531 0.51986 0.47279 0.0
C311 C 0.10696 0.50018 0.48191 0.0
C312 C 0.32993 0.08666 0.21509 0.0
C313 C 0.33023 0.08905 0.28817 0.0
H314 H 0.29006 0.08918 0.12248 0.0
C315 C 0.2898 0.08754 0.32457 0.0
H316 H 0.36064 0.08919 0.18584 0.0
C317 C 0.24947 0.08691 0.28832 0.0
C318 C 0.24915 0.08864 0.21519 0.0
H319 H 0.28934 0.09034 0.38086 0.0
H320 H 0.21877 0.08965 0.31754 0.0
C321 C 0.2896 0.08689 0.17883 0.0
C322 C 0.33633 0.87928 0.80159 0.0
C323 C 0.33716 0.88451 0.72887 0.0
H324 H 0.29574 0.86916 0.8921 0.0
C325 C 0.29693 0.89074 0.69304 0.0
H326 H 0.3666 0.87302 0.83037 0.0
C327 C 0.2564 0.88861 0.72845 0.0
C328 C 0.25547 0.88003 0.8003 0.0
H329 H 0.29669 0.89419 0.63683 0.0
H330 H 0.22593 0.8895 0.6984 0.0
C331 C 0.29574 0.87676 0.83694 0.0
C332 C 0.82428 0.90324 0.74238 0.0
C333 C 0.84431 0.8636 0.76146 0.0
H334 H 0.7652 0.93641 0.71067 0.0
C335 C 0.81795 0.82564 0.76189 0.0
H336 H 0.84336 0.93318 0.74149 0.0
C337 C 0.77265 0.82746 0.74358 0.0
C338 C 0.75272 0.86735 0.72507 0.0
H339 H 0.83231 0.79453 0.7762 0.0
H340 H 0.75319 0.79776 0.74453 0.0
C341 C 0.77922 0.90511 0.72477 0.0
C342 C 0.76689 0.14615 0.26164 0.0
C343 C 0.74171 0.10764 0.26796 0.0
H344 H 0.8308 0.17458 0.23965 0.0
C345 C 0.76312 0.06752 0.2568 0.0
H346 H 0.75147 0.17762 0.26978 0.0
C347 C 0.80835 0.06577 0.24007 0.0
C348 C 0.83362 0.1041 0.23337 0.0
H349 H 0.74498 0.03715 0.26133 0.0
H350 H 0.82344 0.03413 0.23201 0.0
C351 C 0.81233 0.1444 0.24424 0.0
C352 C 0.81476 0.58602 0.27819 0.0
C353 C 0.83372 0.62635 0.29612 0.0
H354 H 0.76066 0.55335 0.22641 0.0
C355 C 0.81268 0.66495 0.27521 0.0
H356 H 0.83032 0.55585 0.29434 0.0
C357 C 0.7738 0.66353 0.23625 0.0
C358 C 0.75457 0.62347 0.21831 0.0
H359 H 0.82672 0.69647 0.288 0.0
H360 H 0.75848 0.69397 0.22068 0.0
C361 C 0.77499 0.58459 0.23995 0.0
C362 C 0.81613 0.30331 0.76073 0.0
C363 C 0.83106 0.33813 0.71956 0.0
H364 H 0.7665 0.2786 0.82871 0.0
C365 C 0.80651 0.37705 0.71833 0.0
H366 H 0.83471 0.27312 0.76376 0.0
C367 C 0.76679 0.38038 0.75651 0.0
C368 C 0.75152 0.34485 0.79638 0.0
H369 H 0.81747 0.40439 0.68704 0.0
H370 H 0.74837 0.4106 0.75493 0.0
C371 C 0.77712 0.30667 0.79873 0.0
C372 C 0.31276 0.33425 0.75968 0.0
C373 C 0.33278 0.37343 0.78118 0.0
H374 H 0.25332 0.30252 0.72426 0.0
C375 C 0.30672 0.41144 0.78325 0.0
H376 H 0.33188 0.30438 0.75734 0.0
C377 C 0.26178 0.41035 0.76454 0.0
C378 C 0.24171 0.37127 0.74287 0.0
H379 H 0.32097 0.4422 0.79958 0.0
H380 H 0.24283 0.44032 0.76686 0.0
C381 C 0.26774 0.3332 0.7406 0.0
C382 C 0.27457 0.55742 0.27035 0.0
C383 C 0.25015 0.59623 0.2772 0.0
H384 H 0.33675 0.52759 0.24524 0.0
C385 C 0.27159 0.63602 0.26264 0.0
H386 H 0.25928 0.52616 0.28104 0.0
C387 C 0.3164 0.63685 0.24184 0.0
C388 C 0.34074 0.59791 0.23523 0.0
H389 H 0.25377 0.66654 0.26724 0.0
H390 H 0.33196 0.66798 0.23117 0.0
C391 C 0.31918 0.55825 0.24976 0.0
C392 C 0.066 0.28355 0.97435 0.0
C393 C 0.0381 0.27978 0.91604 0.0
H394 H 0.08292 0.25827 0.07532 0.0
C395 C 1.00332 0.2491 0.91729 0.0
H396 H 0.09302 0.30691 0.9747 0.0
C397 C 0.99623 0.22304 0.97567 0.0
C398 C 0.025 0.2257 0.03282 0.0
H399 H 0.9823 0.24412 0.87221 0.0
H400 H 0.96993 0.19888 0.97428 0.0
C401 C 0.05992 0.25618 0.03197 0.0
C402 C 0.52087 0.76077 0.47164 0.0
C403 C 0.55544 0.75533 0.52023 0.0
H404 H 0.48953 0.73785 0.37909 0.0
C405 C 0.58391 0.71931 0.51398 0.0
H406 H 0.49873 0.78856 0.4744 0.0
C407 C 0.57747 0.68913 0.4601 0.0
C408 C 0.54306 0.69505 0.41124 0.0
H409 H 0.6107 0.71432 0.55087 0.0
H410 H 0.59972 0.6615 0.45595 0.0
C411 C 0.51512 0.73134 0.41739 0.0
C412 C 0.07242 0.74665 0.02524 0.0
C413 C 0.03553 0.74334 0.98047 0.0
H414 H 0.10512 0.72305 0.11613 0.0
C415 C 1.00515 0.7091 0.99019 0.0
H416 H 0.09629 0.77289 0.01973 0.0
C417 C 1.01134 0.67924 0.04465 0.0
C418 C 0.04743 0.68375 0.0908 0.0
H419 H 0.97657 0.70565 0.95628 0.0
H420 H 0.98718 0.65345 0.05211 0.0
C421 C 0.07796 0.7176 0.08017 0.0
C422 C 0.50327 0.25665 0.57109 0.0
C423 C 0.53471 0.28938 0.58399 0.0
H424 H 0.48411 0.2028 0.50817 0.0
C425 C 0.57132 0.29368 0.53875 0.0
H426 H 0.47562 0.25129 0.60615 0.0
C427 C 0.57728 0.26453 0.48334 0.0
C428 C 0.54617 0.23121 0.4716 0.0
H429 H 0.59606 0.31873 0.5476 0.0
H430 H 0.60644 0.26765 0.45054 0.0
C431 C 0.50859 0.22835 0.51512 0.0
C432 C 0.56998 0.74352 0.91526 0.0
C433 C 0.54415 0.78134 0.9112 0.0
H434 H 0.58334 0.68448 0.96946 0.0
C435 C 0.51009 0.78805 0.96044 0.0
H436 H 0.59509 0.73645 0.87645 0.0
C437 C 0.50222 0.7573 0.01317 0.0
C438 C 0.52878 0.71983 0.01756 0.0
H439 H 0.48932 0.81682 0.9576 0.0
H440 H 0.47608 0.76312 0.05087 0.0
C441 C 0.56267 0.71339 0.96808 0.0
C442 C 0.02828 0.20806 0.53272 0.0
C443 C 0.06175 0.23998 0.52877 0.0
H444 H 0.99506 0.15529 0.48084 0.0
C445 C 0.08789 0.24318 0.46872 0.0
H446 H 1.0073 0.20563 0.57849 0.0
C447 C 0.07951 0.21598 0.41217 0.0
C448 C 0.04613 0.18388 0.4158 0.0
H449 H 0.11293 0.26842 0.4639 0.0
H450 H 0.09846 0.22093 0.36482 0.0
C451 C 0.02096 0.17973 0.47692 0.0
C452 C 0.48863 0.24088 0.02536 0.0
C453 C 0.51724 0.2387 0.96794 0.0
H454 H 0.47553 0.21911 0.12901 0.0
C455 C 0.55189 0.20789 0.96766 0.0
H456 H 0.46254 0.26519 0.02759 0.0
C457 C 0.55869 0.18063 0.02504 0.0
C458 C 0.53155 0.18443 0.08407 0.0
H459 H 0.57476 0.2061 0.92411 0.0
H460 H 0.58605 0.15766 0.0243 0.0
C461 C 0.49622 0.21452 0.08342 0.0
C462 C 0.09791 0.72934 0.53076 0.0
C463 C 0.06899 0.73126 0.47371 0.0
H464 H 0.11134 0.75144 0.63405 0.0
C465 C 0.03439 0.76212 0.47329 0.0
H466 H 0.12404 0.70507 0.53297 0.0
C467 C 0.02768 0.78944 0.53043 0.0
C468 C 0.05493 0.78571 0.58933 0.0
H469 H 1.01137 0.76378 0.4299 0.0
H470 H 1.00025 0.81231 0.52969 0.0
C471 C 0.09049 0.75587 0.58859 0.0
loop_
_geom_bond_atom_site_label_1
_geom_bond_atom_site_label_2
_geom_bond_distance
_geom_bond_site_symmetry_2
_ccdc_geom_bond_type
Co0 O3 1.970 . S
Co0 N17 1.989 . S
Co0 O25 1.967 . S
Co0 O32 1.920 . S
Co1 O4 1.966 . S
Co1 N10 2.022 . S
Co1 N18 1.993 . S
Co1 O26 1.941 . S
C2 O3 1.258 1_455 S
C2 O4 1.263 . S
O3 Co0 1.970 . S
O3 C2 1.258 1_655 S
O4 Co1 1.966 . S
O4 C2 1.263 . S
C5 O6 1.235 . S
C5 O32 1.289 . S
O6 C5 1.235 . S
C7 C9 1.400 . S
C7 N10 1.351 . S
C7 C12 1.501 . S
C8 C9 1.387 . S
C8 N11 1.341 . S
C9 C7 1.400 . S
C9 C8 1.387 . S
N10 Co1 2.022 . S
N10 C7 1.351 . S
N10 N11 1.365 . S
N11 C8 1.341 . S
N11 N10 1.365 . S
N11 H31 0.862 . S
C12 C7 1.501 . S
C12 H13 0.961 . S
C12 H14 0.961 . S
C12 H15 0.960 . S
H13 C12 0.961 . S
H14 C12 0.961 . S
H15 C12 0.960 . S
C16 N17 1.342 . S
C16 C20 1.401 1_655 S
C16 C21 1.499 . S
N17 Co0 1.989 . S
N17 C16 1.342 . S
N17 N18 1.388 1_655 S
N18 Co1 1.993 . S
N18 N17 1.388 1_455 S
N18 C19 1.346 . S
C19 N18 1.346 . S
C19 C20 1.396 . S
C19 C29 1.510 . S
C20 C16 1.401 1_455 S
C20 C19 1.396 . S
C21 C16 1.499 . S
C21 H22 0.959 . S
C21 H23 0.960 . S
C21 H24 0.961 . S
H22 C21 0.959 . S
H23 C21 0.960 . S
H24 C21 0.961 . S
O25 Co0 1.967 . S
O25 C33 1.258 1_655 S
O26 Co1 1.941 . S
O26 C33 1.266 . S
H27 C29 0.959 . S
H28 C29 0.961 . S
C29 C19 1.510 . S
C29 H27 0.959 . S
C29 H28 0.961 . S
C29 H30 0.960 . S
H30 C29 0.960 . S
H31 N11 0.862 . S
O32 Co0 1.920 . S
O32 C5 1.289 . S
C33 O25 1.258 1_455 S
C33 O26 1.266 . S
Co34 O37 1.970 . S
Co34 N51 1.989 . S
Co34 O59 1.967 . S
Co34 O66 1.920 . S
Co35 O38 1.966 . S
Co35 N44 2.022 . S
Co35 N52 1.993 . S
Co35 O60 1.941 . S
C36 O37 1.258 . S
C36 O38 1.263 . S
O37 Co34 1.970 . S
O37 C36 1.258 . S
O38 Co35 1.966 . S
O38 C36 1.263 . S
C39 O40 1.235 . S
C39 O66 1.289 . S
O40 C39 1.235 . S
C41 C43 1.400 . S
C41 N44 1.351 . S
C41 C46 1.501 . S
C42 C43 1.387 . S
C42 N45 1.341 . S
C43 C41 1.400 . S
C43 C42 1.387 . S
N44 Co35 2.022 . S
N44 C41 1.351 . S
N44 N45 1.365 . S
N45 C42 1.341 . S
N45 N44 1.365 . S
N45 H65 0.862 . S
C46 C41 1.501 . S
C46 H47 0.961 . S
C46 H48 0.961 . S
C46 H49 0.960 . S
H47 C46 0.961 . S
H48 C46 0.961 . S
H49 C46 0.960 . S
C50 N51 1.342 . S
C50 C54 1.401 . S
C50 C55 1.499 . S
N51 Co34 1.989 . S
N51 C50 1.342 . S
N51 N52 1.388 . S
N52 Co35 1.993 . S
N52 N51 1.388 . S
N52 C53 1.346 . S
C53 N52 1.346 . S
C53 C54 1.396 . S
C53 C63 1.510 . S
C54 C50 1.401 . S
C54 C53 1.396 . S
C55 C50 1.499 . S
C55 H56 0.959 . S
C55 H57 0.960 . S
C55 H58 0.961 . S
H56 C55 0.959 . S
H57 C55 0.960 . S
H58 C55 0.961 . S
O59 Co34 1.967 . S
O59 C67 1.258 . S
O60 Co35 1.941 . S
O60 C67 1.266 . S
H61 C63 0.959 . S
H62 C63 0.961 . S
C63 C53 1.510 . S
C63 H61 0.959 . S
C63 H62 0.961 . S
C63 H64 0.960 . S
H64 C63 0.960 . S
H65 N45 0.862 . S
O66 Co34 1.920 . S
O66 C39 1.289 . S
C67 O59 1.258 . S
C67 O60 1.266 . S
Co68 O71 1.970 . S
Co68 N85 1.989 . S
Co68 O93 1.967 . S
Co68 O100 1.920 . S
Co69 O72 1.966 . S
Co69 N78 2.022 . S
Co69 N86 1.993 . S
Co69 O94 1.941 . S
C70 O71 1.258 1_455 S
C70 O72 1.263 . S
O71 Co68 1.970 . S
O71 C70 1.258 1_655 S
O72 Co69 1.966 . S
O72 C70 1.263 . S
C73 O74 1.235 . S
C73 O100 1.289 . S
O74 C73 1.235 . S
C75 C77 1.400 . S
C75 N78 1.351 . S
C75 C80 1.501 . S
C76 C77 1.387 . S
C76 N79 1.341 . S
C77 C75 1.400 . S
C77 C76 1.387 . S
N78 Co69 2.022 . S
N78 C75 1.351 . S
N78 N79 1.365 . S
N79 C76 1.341 . S
N79 N78 1.365 . S
N79 H99 0.862 . S
C80 C75 1.501 . S
C80 H81 0.961 . S
C80 H82 0.961 . S
C80 H83 0.960 . S
H81 C80 0.961 . S
H82 C80 0.961 . S
H83 C80 0.960 . S
C84 N85 1.342 . S
C84 C88 1.401 1_655 S
C84 C89 1.499 . S
N85 Co68 1.989 . S
N85 C84 1.342 . S
N85 N86 1.388 1_655 S
N86 Co69 1.993 . S
N86 N85 1.388 1_455 S
N86 C87 1.346 . S
C87 N86 1.346 . S
C87 C88 1.396 . S
C87 C97 1.510 . S
C88 C84 1.401 1_455 S
C88 C87 1.396 . S
C89 C84 1.499 . S
C89 H90 0.959 . S
C89 H91 0.960 . S
C89 H92 0.961 . S
H90 C89 0.959 . S
H91 C89 0.960 . S
H92 C89 0.961 . S
O93 Co68 1.967 . S
O93 C101 1.258 1_655 S
O94 Co69 1.941 . S
O94 C101 1.266 . S
H95 C97 0.959 . S
H96 C97 0.961 . S
C97 C87 1.510 . S
C97 H95 0.959 . S
C97 H96 0.961 . S
C97 H98 0.960 . S
H98 C97 0.960 . S
H99 N79 0.862 . S
O100 Co68 1.920 . S
O100 C73 1.289 . S
C101 O93 1.258 1_455 S
C101 O94 1.266 . S
Co102 O105 1.970 . S
Co102 N119 1.989 . S
Co102 O127 1.967 . S
Co102 O134 1.920 . S
Co103 O106 1.966 . S
Co103 N112 2.022 . S
Co103 N120 1.993 . S
Co103 O128 1.941 . S
C104 O105 1.258 . S
C104 O106 1.263 . S
O105 Co102 1.970 . S
O105 C104 1.258 . S
O106 Co103 1.966 . S
O106 C104 1.263 . S
C107 O108 1.235 . S
C107 O134 1.289 . S
O108 C107 1.235 . S
C109 C111 1.400 . S
C109 N112 1.351 . S
C109 C114 1.501 . S
C110 C111 1.387 . S
C110 N113 1.341 . S
C111 C109 1.400 . S
C111 C110 1.387 . S
N112 Co103 2.022 . S
N112 C109 1.351 . S
N112 N113 1.365 . S
N113 C110 1.341 . S
N113 N112 1.365 . S
N113 H133 0.862 . S
C114 C109 1.501 . S
C114 H115 0.961 . S
C114 H116 0.961 . S
C114 H117 0.960 . S
H115 C114 0.961 . S
H116 C114 0.961 . S
H117 C114 0.960 . S
C118 N119 1.342 . S
C118 C122 1.401 . S
C118 C123 1.499 . S
N119 Co102 1.989 . S
N119 C118 1.342 . S
N119 N120 1.388 . S
N120 Co103 1.993 . S
N120 N119 1.388 . S
N120 C121 1.346 . S
C121 N120 1.346 . S
C121 C122 1.396 . S
C121 C131 1.510 . S
C122 C118 1.401 . S
C122 C121 1.396 . S
C123 C118 1.499 . S
C123 H124 0.959 . S
C123 H125 0.960 . S
C123 H126 0.961 . S
H124 C123 0.959 . S
H125 C123 0.960 . S
H126 C123 0.961 . S
O127 Co102 1.967 . S
O127 C135 1.258 . S
O128 Co103 1.941 . S
O128 C135 1.266 . S
H129 C131 0.959 . S
H130 C131 0.961 . S
C131 C121 1.510 . S
C131 H129 0.959 . S
C131 H130 0.961 . S
C131 H132 0.960 . S
H132 C131 0.960 . S
H133 N113 0.862 . S
O134 Co102 1.920 . S
O134 C107 1.289 . S
C135 O127 1.258 . S
C135 O128 1.266 . S
Co136 O139 1.970 . S
Co136 N153 1.989 . S
Co136 O161 1.967 . S
Co136 O168 1.920 . S
Co137 O140 1.966 . S
Co137 N146 2.022 . S
Co137 N154 1.993 . S
Co137 O162 1.941 . S
C138 O139 1.258 . S
C138 O140 1.263 . S
O139 Co136 1.970 . S
O139 C138 1.258 . S
O140 Co137 1.966 . S
O140 C138 1.263 . S
C141 O142 1.235 . S
C141 O168 1.289 . S
O142 C141 1.235 . S
C143 C145 1.400 . S
C143 N146 1.351 . S
C143 C148 1.501 . S
C144 C145 1.387 . S
C144 N147 1.341 . S
C145 C143 1.400 . S
C145 C144 1.387 . S
N146 Co137 2.022 . S
N146 C143 1.351 . S
N146 N147 1.365 . S
N147 C144 1.341 . S
N147 N146 1.365 . S
N147 H167 0.862 . S
C148 C143 1.501 . S
C148 H149 0.961 . S
C148 H150 0.961 . S
C148 H151 0.960 . S
H149 C148 0.961 . S
H150 C148 0.961 . S
H151 C148 0.960 . S
C152 N153 1.342 . S
C152 C156 1.401 . S
C152 C157 1.499 . S
N153 Co136 1.989 . S
N153 C152 1.342 . S
N153 N154 1.388 . S
N154 Co137 1.993 . S
N154 N153 1.388 . S
N154 C155 1.346 . S
C155 N154 1.346 . S
C155 C156 1.396 . S
C155 C165 1.510 . S
C156 C152 1.401 . S
C156 C155 1.396 . S
C157 C152 1.499 . S
C157 H158 0.959 . S
C157 H159 0.960 . S
C157 H160 0.961 . S
H158 C157 0.959 . S
H159 C157 0.960 . S
H160 C157 0.961 . S
O161 Co136 1.967 . S
O161 C169 1.258 . S
O162 Co137 1.941 . S
O162 C169 1.266 . S
H163 C165 0.959 . S
H164 C165 0.961 . S
C165 C155 1.510 . S
C165 H163 0.959 . S
C165 H164 0.961 . S
C165 H166 0.960 . S
H166 C165 0.960 . S
H167 N147 0.862 . S
O168 Co136 1.920 . S
O168 C141 1.289 . S
C169 O161 1.258 . S
C169 O162 1.266 . S
Co170 O173 1.970 . S
Co170 N187 1.989 . S
Co170 O195 1.967 . S
Co170 O202 1.920 . S
Co171 O174 1.966 1_655 S
Co171 N180 2.022 . S
Co171 N188 1.993 1_655 S
Co171 O196 1.941 1_655 S
C172 O173 1.258 . S
C172 O174 1.263 . S
O173 Co170 1.970 . S
O173 C172 1.258 . S
O174 Co171 1.966 1_455 S
O174 C172 1.263 . S
C175 O176 1.235 . S
C175 O202 1.289 . S
O176 C175 1.235 . S
C177 C179 1.400 . S
C177 N180 1.351 . S
C177 C182 1.501 . S
C178 C179 1.387 . S
C178 N181 1.341 . S
C179 C177 1.400 . S
C179 C178 1.387 . S
N180 Co171 2.022 . S
N180 C177 1.351 . S
N180 N181 1.365 . S
N181 C178 1.341 . S
N181 N180 1.365 . S
N181 H201 0.862 . S
C182 C177 1.501 . S
C182 H183 0.961 . S
C182 H184 0.961 . S
C182 H185 0.960 . S
H183 C182 0.961 . S
H184 C182 0.961 . S
H185 C182 0.960 . S
C186 N187 1.342 . S
C186 C190 1.401 . S
C186 C191 1.499 . S
N187 Co170 1.989 . S
N187 C186 1.342 . S
N187 N188 1.388 . S
N188 Co171 1.993 1_455 S
N188 N187 1.388 . S
N188 C189 1.346 . S
C189 N188 1.346 . S
C189 C190 1.396 . S
C189 C199 1.510 1_455 S
C190 C186 1.401 . S
C190 C189 1.396 . S
C191 C186 1.499 . S
C191 H192 0.959 . S
C191 H193 0.960 . S
C191 H194 0.961 . S
H192 C191 0.959 . S
H193 C191 0.960 . S
H194 C191 0.961 . S
O195 Co170 1.967 . S
O195 C203 1.258 . S
O196 Co171 1.941 1_455 S
O196 C203 1.266 . S
H197 C199 0.959 . S
H198 C199 0.961 . S
C199 C189 1.510 1_655 S
C199 H197 0.959 . S
C199 H198 0.961 . S
C199 H200 0.960 . S
H200 C199 0.960 . S
H201 N181 0.862 . S
O202 Co170 1.920 . S
O202 C175 1.289 . S
C203 O195 1.258 . S
C203 O196 1.266 . S
Co204 O207 1.970 . S
Co204 N221 1.989 . S
Co204 O229 1.967 . S
Co204 O236 1.920 . S
Co205 O208 1.966 . S
Co205 N214 2.022 . S
Co205 N222 1.993 . S
Co205 O230 1.941 . S
C206 O207 1.258 . S
C206 O208 1.263 . S
O207 Co204 1.970 . S
O207 C206 1.258 . S
O208 Co205 1.966 . S
O208 C206 1.263 . S
C209 O210 1.235 . S
C209 O236 1.289 . S
O210 C209 1.235 . S
C211 C213 1.400 . S
C211 N214 1.351 . S
C211 C216 1.501 . S
C212 C213 1.387 . S
C212 N215 1.341 . S
C213 C211 1.400 . S
C213 C212 1.387 . S
N214 Co205 2.022 . S
N214 C211 1.351 . S
N214 N215 1.365 . S
N215 C212 1.341 . S
N215 N214 1.365 . S
N215 H235 0.862 . S
C216 C211 1.501 . S
C216 H217 0.961 . S
C216 H218 0.961 . S
C216 H219 0.960 . S
H217 C216 0.961 . S
H218 C216 0.961 . S
H219 C216 0.960 . S
C220 N221 1.342 . S
C220 C224 1.401 . S
C220 C225 1.499 . S
N221 Co204 1.989 . S
N221 C220 1.342 . S
N221 N222 1.388 . S
N222 Co205 1.993 . S
N222 N221 1.388 . S
N222 C223 1.346 . S
C223 N222 1.346 . S
C223 C224 1.396 . S
C223 C233 1.510 . S
C224 C220 1.401 . S
C224 C223 1.396 . S
C225 C220 1.499 . S
C225 H226 0.959 . S
C225 H227 0.960 . S
C225 H228 0.961 . S
H226 C225 0.959 . S
H227 C225 0.960 . S
H228 C225 0.961 . S
O229 Co204 1.967 . S
O229 C237 1.258 . S
O230 Co205 1.941 . S
O230 C237 1.266 . S
H231 C233 0.959 . S
H232 C233 0.961 . S
C233 C223 1.510 . S
C233 H231 0.959 . S
C233 H232 0.961 . S
C233 H234 0.960 . S
H234 C233 0.960 . S
H235 N215 0.862 . S
O236 Co204 1.920 . S
O236 C209 1.289 . S
C237 O229 1.258 . S
C237 O230 1.266 . S
Co238 O241 1.970 . S
Co238 N255 1.989 . S
Co238 O263 1.967 . S
Co238 O270 1.920 . S
Co239 O242 1.966 1_655 S
Co239 N248 2.022 . S
Co239 N256 1.993 1_655 S
Co239 O264 1.941 1_655 S
C240 O241 1.258 . S
C240 O242 1.263 . S
O241 Co238 1.970 . S
O241 C240 1.258 . S
O242 Co239 1.966 1_455 S
O242 C240 1.263 . S
C243 O244 1.235 . S
C243 O270 1.289 . S
O244 C243 1.235 . S
C245 C247 1.400 . S
C245 N248 1.351 . S
C245 C250 1.501 . S
C246 C247 1.387 . S
C246 N249 1.341 . S
C247 C245 1.400 . S
C247 C246 1.387 . S
N248 Co239 2.022 . S
N248 C245 1.351 . S
N248 N249 1.365 . S
N249 C246 1.341 . S
N249 N248 1.365 . S
N249 H269 0.862 . S
C250 C245 1.501 . S
C250 H251 0.961 . S
C250 H252 0.961 . S
C250 H253 0.960 . S
H251 C250 0.961 . S
H252 C250 0.961 . S
H253 C250 0.960 . S
C254 N255 1.342 . S
C254 C258 1.401 . S
C254 C259 1.499 . S
N255 Co238 1.989 . S
N255 C254 1.342 . S
N255 N256 1.388 . S
N256 Co239 1.993 1_455 S
N256 N255 1.388 . S
N256 C257 1.346 . S
C257 N256 1.346 . S
C257 C258 1.396 . S
C257 C267 1.510 1_455 S
C258 C254 1.401 . S
C258 C257 1.396 . S
C259 C254 1.499 . S
C259 H260 0.959 . S
C259 H261 0.960 . S
C259 H262 0.961 . S
H260 C259 0.959 . S
H261 C259 0.960 . S
H262 C259 0.961 . S
O263 Co238 1.967 . S
O263 C271 1.258 . S
O264 Co239 1.941 1_455 S
O264 C271 1.266 . S
H265 C267 0.959 . S
H266 C267 0.961 . S
C267 C257 1.510 1_655 S
C267 H265 0.959 . S
C267 H266 0.961 . S
C267 H268 0.960 . S
H268 C267 0.960 . S
H269 N249 0.862 . S
O270 Co238 1.920 . S
O270 C243 1.289 . S
C271 O263 1.258 . S
C271 O264 1.266 . S
C272 C273 1.387 1_655 S
C272 H276 0.950 . S
C272 C281 1.390 1_566 S
C273 C272 1.387 1_455 S
C273 C275 1.387 . S
H274 C281 0.950 . S
C275 C273 1.387 . S
C275 C277 1.390 1_566 S
C275 H279 0.950 . S
H276 C272 0.950 . S
C277 C275 1.390 1_544 S
C277 C278 1.387 . S
C277 H280 0.950 . S
C278 C277 1.387 . S
C278 C281 1.387 1_455 S
H279 C275 0.950 . S
H280 C277 0.950 . S
C281 C272 1.390 1_544 S
C281 H274 0.950 . S
C281 C278 1.387 1_655 S
C282 C283 1.387 . S
C282 H286 0.950 . S
C282 C291 1.390 1_545 S
C283 C282 1.387 . S
C283 C285 1.387 . S
H284 C291 0.950 . S
C285 C283 1.387 . S
C285 C287 1.390 1_545 S
C285 H289 0.950 . S
H286 C282 0.950 . S
C287 C285 1.390 1_565 S
C287 C288 1.387 . S
C287 H290 0.950 . S
C288 C287 1.387 . S
C288 C291 1.387 . S
H289 C285 0.950 . S
H290 C287 0.950 . S
C291 C282 1.390 1_565 S
C291 H284 0.950 . S
C291 C288 1.387 . S
C292 C293 1.387 . S
C292 H296 0.950 . S
C292 C301 1.390 1_554 S
C293 C292 1.387 . S
C293 C295 1.387 . S
H294 C301 0.950 . S
C295 C293 1.387 . S
C295 C297 1.390 1_554 S
C295 H299 0.950 . S
H296 C292 0.950 . S
C297 C295 1.390 1_556 S
C297 C298 1.387 . S
C297 H300 0.950 . S
C298 C297 1.387 . S
C298 C301 1.387 . S
H299 C295 0.950 . S
H300 C297 0.950 . S
C301 C292 1.390 1_556 S
C301 H294 0.950 . S
C301 C298 1.387 . S
C302 C303 1.387 . S
C302 H306 0.950 . S
C302 C311 1.390 . S
C303 C302 1.387 . S
C303 C305 1.366 1_455 S
H304 C311 0.950 . S
C305 C303 1.366 1_655 S
C305 C307 1.390 . S
C305 H309 0.971 . S
H306 C302 0.950 . S
C307 C305 1.390 . S
C307 C308 1.366 1_655 S
C307 H310 0.971 . S
C308 C307 1.366 1_455 S
C308 C311 1.387 . S
H309 C305 0.971 . S
H310 C307 0.971 . S
C311 C302 1.390 . S
C311 H304 0.950 . S
C311 C308 1.387 . S
C312 C313 1.387 . S
C312 H316 0.950 . S
C312 C321 1.390 . S
C313 C312 1.387 . S
C313 C315 1.387 . S
H314 C321 0.950 . S
C315 C313 1.387 . S
C315 C317 1.390 . S
C315 H319 0.950 . S
H316 C312 0.950 . S
C317 C315 1.390 . S
C317 C318 1.387 . S
C317 H320 0.950 . S
C318 C317 1.387 . S
C318 C321 1.387 . S
H319 C315 0.950 . S
H320 C317 0.950 . S
C321 C312 1.390 . S
C321 H314 0.950 . S
C321 C318 1.387 . S
C322 C323 1.387 . S
C322 H326 0.950 . S
C322 C331 1.390 . S
C323 C322 1.387 . S
C323 C325 1.387 . S
H324 C331 0.950 . S
C325 C323 1.387 . S
C325 C327 1.390 . S
C325 H329 0.950 . S
H326 C322 0.950 . S
C327 C325 1.390 . S
C327 C328 1.387 . S
C327 H330 0.950 . S
C328 C327 1.387 . S
C328 C331 1.387 . S
H329 C325 0.950 . S
H330 C327 0.950 . S
C331 C322 1.390 . S
C331 H324 0.950 . S
C331 C328 1.387 . S
C332 C333 1.387 . S
C332 H336 0.950 . S
C332 C341 1.390 . S
C333 C332 1.387 . S
C333 C335 1.387 . S
H334 C341 0.950 . S
C335 C333 1.387 . S
C335 C337 1.390 . S
C335 H339 0.950 . S
H336 C332 0.950 . S
C337 C335 1.390 . S
C337 C338 1.387 . S
C337 H340 0.950 . S
C338 C337 1.387 . S
C338 C341 1.387 . S
H339 C335 0.950 . S
H340 C337 0.950 . S
C341 C332 1.390 . S
C341 H334 0.950 . S
C341 C338 1.387 . S
C342 C343 1.387 . S
C342 H346 0.950 . S
C342 C351 1.390 . S
C343 C342 1.387 . S
C343 C345 1.387 . S
H344 C351 0.950 . S
C345 C343 1.387 . S
C345 C347 1.390 . S
C345 H349 0.950 . S
H346 C342 0.950 . S
C347 C345 1.390 . S
C347 C348 1.387 . S
C347 H350 0.950 . S
C348 C347 1.387 . S
C348 C351 1.387 . S
H349 C345 0.950 . S
H350 C347 0.950 . S
C351 C342 1.390 . S
C351 H344 0.950 . S
C351 C348 1.387 . S
C352 C353 1.387 . S
C352 H356 0.950 . S
C352 C361 1.390 . S
C353 C352 1.387 . S
C353 C355 1.387 . S
H354 C361 0.950 . S
C355 C353 1.387 . S
C355 C357 1.390 . S
C355 H359 0.950 . S
H356 C352 0.950 . S
C357 C355 1.390 . S
C357 C358 1.387 . S
C357 H360 0.950 . S
C358 C357 1.387 . S
C358 C361 1.387 . S
H359 C355 0.950 . S
H360 C357 0.950 . S
C361 C352 1.390 . S
C361 H354 0.950 . S
C361 C358 1.387 . S
C362 C363 1.387 . S
C362 H366 0.950 . S
C362 C371 1.390 . S
C363 C362 1.387 . S
C363 C365 1.387 . S
H364 C371 0.950 . S
C365 C363 1.387 . S
C365 C367 1.390 . S
C365 H369 0.950 . S
H366 C362 0.950 . S
C367 C365 1.390 . S
C367 C368 1.387 . S
C367 H370 0.950 . S
C368 C367 1.387 . S
C368 C371 1.387 . S
H369 C365 0.950 . S
H370 C367 0.950 . S
C371 C362 1.390 . S
C371 H364 0.950 . S
C371 C368 1.387 . S
C372 C373 1.387 . S
C372 H376 0.950 . S
C372 C381 1.390 . S
C373 C372 1.387 . S
C373 C375 1.387 . S
H374 C381 0.950 . S
C375 C373 1.387 . S
C375 C377 1.390 . S
C375 H379 0.950 . S
H376 C372 0.950 . S
C377 C375 1.390 . S
C377 C378 1.387 . S
C377 H380 0.950 . S
C378 C377 1.387 . S
C378 C381 1.387 . S
H379 C375 0.950 . S
H380 C377 0.950 . S
C381 C372 1.390 . S
C381 H374 0.950 . S
C381 C378 1.387 . S
C382 C383 1.387 . S
C382 H386 0.950 . S
C382 C391 1.390 . S
C383 C382 1.387 . S
C383 C385 1.387 . S
H384 C391 0.950 . S
C385 C383 1.387 . S
C385 C387 1.390 . S
C385 H389 0.950 . S
H386 C382 0.950 . S
C387 C385 1.390 . S
C387 C388 1.387 . S
C387 H390 0.950 . S
C388 C387 1.387 . S
C388 C391 1.387 . S
H389 C385 0.950 . S
H390 C387 0.950 . S
C391 C382 1.390 . S
C391 H384 0.950 . S
C391 C388 1.387 . S
C392 C393 1.387 . S
C392 H396 0.950 . S
C392 C401 1.394 . S
C393 C392 1.387 . S
C393 C395 1.387 1_455 S
H394 C401 0.947 1_554 S
C395 C393 1.387 1_655 S
C395 C397 1.390 . S
C395 H399 0.950 . S
H396 C392 0.950 . S
C397 C395 1.390 . S
C397 C398 1.387 1_656 S
C397 H400 0.950 . S
C398 C397 1.387 1_454 S
C398 C401 1.386 1_554 S
H399 C395 0.950 . S
H400 C397 0.950 . S
C401 C392 1.394 . S
C401 H394 0.947 1_556 S
C401 C398 1.386 1_556 S
C402 C403 1.387 . S
C402 H406 0.950 . S
C402 C411 1.390 . S
C403 C402 1.387 . S
C403 C405 1.387 . S
H404 C411 0.950 . S
C405 C403 1.387 . S
C405 C407 1.390 . S
C405 H409 0.950 . S
H406 C402 0.950 . S
C407 C405 1.390 . S
C407 C408 1.387 . S
C407 H410 0.950 . S
C408 C407 1.387 . S
C408 C411 1.387 . S
H409 C405 0.950 . S
H410 C407 0.950 . S
C411 C402 1.390 . S
C411 H404 0.950 . S
C411 C408 1.387 . S
C412 C413 1.387 1_554 S
C412 H416 0.950 1_554 S
C412 C421 1.390 . S
C413 C412 1.387 1_556 S
C413 C415 1.387 1_456 S
H414 C421 0.950 . S
C415 C413 1.387 1_654 S
C415 C417 1.390 . S
C415 H419 0.950 1_554 S
H416 C412 0.950 1_556 S
C417 C415 1.390 . S
C417 C418 1.387 1_655 S
C417 H420 0.950 . S
C418 C417 1.387 1_455 S
C418 C421 1.387 . S
H419 C415 0.950 1_556 S
H420 C417 0.950 . S
C421 C412 1.390 . S
C421 H414 0.950 . S
C421 C418 1.387 . S
C422 C423 1.387 . S
C422 H426 0.950 . S
C422 C431 1.390 . S
C423 C422 1.387 . S
C423 C425 1.387 . S
H424 C431 0.950 . S
C425 C423 1.387 . S
C425 C427 1.390 . S
C425 H429 0.950 . S
H426 C422 0.950 . S
C427 C425 1.390 . S
C427 C428 1.387 . S
C427 H430 0.950 . S
C428 C427 1.387 . S
C428 C431 1.387 . S
H429 C425 0.950 . S
H430 C427 0.950 . S
C431 C422 1.390 . S
C431 H424 0.950 . S
C431 C428 1.387 . S
C432 C433 1.387 . S
C432 H436 0.950 . S
C432 C441 1.390 . S
C433 C432 1.387 . S
C433 C435 1.387 . S
H434 C441 0.950 1_554 S
C435 C433 1.387 . S
C435 C437 1.390 . S
C435 H439 0.950 . S
H436 C432 0.950 . S
C437 C435 1.390 . S
C437 C438 1.387 1_556 S
C437 H440 0.950 1_556 S
C438 C437 1.387 1_554 S
C438 C441 1.387 1_554 S
H439 C435 0.950 . S
H440 C437 0.950 1_554 S
C441 C432 1.390 . S
C441 H434 0.950 1_556 S
C441 C438 1.387 1_556 S
C442 C443 1.387 1_655 S
C442 H446 0.950 . S
C442 C451 1.390 . S
C443 C442 1.387 1_455 S
C443 C445 1.387 . S
H444 C451 0.950 . S
C445 C443 1.387 . S
C445 C447 1.390 . S
C445 H449 0.950 . S
H446 C442 0.950 . S
C447 C445 1.390 . S
C447 C448 1.387 . S
C447 H450 0.950 . S
C448 C447 1.387 . S
C448 C451 1.387 1_455 S
H449 C445 0.950 . S
H450 C447 0.950 . S
C451 C442 1.390 . S
C451 H444 0.950 . S
C451 C448 1.387 1_655 S
C452 C453 1.387 1_554 S
C452 H456 0.950 . S
C452 C461 1.390 . S
C453 C452 1.387 1_556 S
C453 C455 1.387 . S
H454 C461 0.950 . S
C455 C453 1.387 . S
C455 C457 1.390 1_556 S
C455 H459 0.950 . S
H456 C452 0.950 . S
C457 C455 1.390 1_554 S
C457 C458 1.387 . S
C457 H460 0.950 . S
C458 C457 1.387 . S
C458 C461 1.387 . S
H459 C455 0.950 . S
H460 C457 0.950 . S
C461 C452 1.390 . S
C461 H454 0.950 . S
C461 C458 1.387 . S
C462 C463 1.387 . S
C462 H466 0.950 . S
C462 C471 1.390 . S
C463 C462 1.387 . S
C463 C465 1.387 . S
H464 C471 0.950 . S
C465 C463 1.387 . S
C465 C467 1.390 . S
C465 H469 0.950 . S
H466 C462 0.950 . S
C467 C465 1.390 . S
C467 C468 1.387 . S
C467 H470 0.950 1_455 S
C468 C467 1.387 . S
C468 C471 1.387 . S
H469 C465 0.950 . S
H470 C467 0.950 1_655 S
C471 C462 1.390 . S
C471 H464 0.950 . S
C471 C468 1.387 . S
C273 C70 1.683 . S
C278 C2 1.683 . S
C283 C104 1.683 . S
C288 C36 1.683 . S
C293 C138 1.683 . S
C298 C206 1.683 . S
C303 C172 1.683 . S
C308 C240 1.683 . S
C313 C111 1.197 . S
C318 C9 1.197 . S
C323 C43 1.197 . S
C328 C77 1.197 . S
C333 C73 1.837 . S
C338 C39 1.837 . S
C343 C107 1.835 . S
C348 C5 1.835 . S
C353 C247 1.198 . S
C358 C145 1.198 . S
C363 C179 1.197 . S
C368 C213 1.197 . S
C373 C209 1.835 . S
C378 C175 1.835 . S
C383 C243 1.837 . S
C388 C141 1.837 . S
C393 C190 1.373 . S
C398 C33 1.371 . S
C403 C67 1.370 . S
C408 C156 1.373 . S
C413 C101 1.370 . S
C418 C258 1.373 . S
C423 C224 1.373 . S
C428 C135 1.370 . S
C433 C54 1.373 . S
C438 C169 1.370 . S
C443 C203 1.371 . S
C448 C20 1.373 . S
C453 C237 1.371 . S
C458 C122 1.375 . S
C463 C271 1.370 . S
C468 C88 1.374 . S
