# Generated by pormake.
# Topology smu, (6)-cn, num edge types: 1
# Building blocks:
#     Node 0, Type 0, BuildingBlock: CUKXOW_clean_sbu_0, # of connection points: 6
#     Node 1, Type 0, BuildingBlock: CUKXOW_clean_sbu_0, # of connection points: 6
#     Node 2, Type 0, BuildingBlock: CUKXOW_clean_sbu_0, # of connection points: 6
#     Node 3, Type 0, BuildingBlock: CUKXOW_clean_sbu_0, # of connection points: 6
#     Node 4, Type 0, BuildingBlock: CUKXOW_clean_sbu_0, # of connection points: 6
#     Node 5, Type 0, BuildingBlock: CUKXOW_clean_sbu_0, # of connection points: 6
#     Edge 6, Type (0, 0), BuildingBlock: EZIPEK_clean_linker_0, # of connection points: 2
#     Edge 7, Type (0, 0), BuildingBlock: EZIPEK_clean_linker_0, # of connection points: 2
#     Edge 8, Type (0, 0), BuildingBlock: EZIPEK_clean_linker_0, # of connection points: 2
#     Edge 9, Type (0, 0), BuildingBlock: EZIPEK_clean_linker_0, # of connection points: 2
#     Edge 10, Type (0, 0), BuildingBlock: EZIPEK_clean_linker_0, # of connection points: 2
#     Edge 11, Type (0, 0), BuildingBlock: EZIPEK_clean_linker_0, # of connection points: 2
#     Edge 12, Type (0, 0), BuildingBlock: EZIPEK_clean_linker_0, # of connection points: 2
#     Edge 13, Type (0, 0), BuildingBlock: EZIPEK_clean_linker_0, # of connection points: 2
#     Edge 14, Type (0, 0), BuildingBlock: EZIPEK_clean_linker_0, # of connection points: 2
#     Edge 15, Type (0, 0), BuildingBlock: EZIPEK_clean_linker_0, # of connection points: 2
#     Edge 16, Type (0, 0), BuildingBlock: EZIPEK_clean_linker_0, # of connection points: 2
#     Edge 17, Type (0, 0), BuildingBlock: EZIPEK_clean_linker_0, # of connection points: 2
#     Edge 18, Type (0, 0), BuildingBlock: EZIPEK_clean_linker_0, # of connection points: 2
#     Edge 19, Type (0, 0), BuildingBlock: EZIPEK_clean_linker_0, # of connection points: 2
#     Edge 20, Type (0, 0), BuildingBlock: EZIPEK_clean_linker_0, # of connection points: 2
#     Edge 21, Type (0, 0), BuildingBlock: EZIPEK_clean_linker_0, # of connection points: 2
#     Edge 22, Type (0, 0), BuildingBlock: EZIPEK_clean_linker_0, # of connection points: 2
#     Edge 23, Type (0, 0), BuildingBlock: EZIPEK_clean_linker_0, # of connection points: 2
# Relax obj value: 0.195
# Max RMSD: 0.300
# Mean RMSD: 0.280
data_MOF--net-smu--node1-CUKXOW_clean_sbu_0--edge1-EZIPEK_clean_linker_0
_symmetry_space_group_name_H-M    P1
_symmetry_Int_Tables_number       1
_symmetry_cell_setting            triclinic
loop_
_symmetry_equiv_pos_as_xyz
'x, y, z'
_cell_length_a     22.569093
_cell_length_b     22.401604
_cell_length_c     21.285436
_cell_angle_alpha  94.178518
_cell_angle_beta   89.853181
_cell_angle_gamma 119.74435
loop_
_atom_site_label
_atom_site_type_symbol
_atom_site_fract_x
_atom_site_fract_y
_atom_site_fract_z
_atom_type_partial_charge
Tb0 Tb 0.43027 0.18645 0.27528 0.0
C1 C 0.37193 0.08905 0.39718 0.0
Tb2 Tb 0.32603 0.0356 0.26185 0.0
O3 O 0.36233 0.20484 0.21932 0.0
O4 O 0.32364 0.13 0.28268 0.0
O5 O 0.41089 0.1527 0.37634 0.0
C6 C 0.1935 0.94702 0.26293 0.0
O7 O 0.33464 0.0339 0.35944 0.0
C8 C 0.45857 0.0692 0.25595 0.0
C9 C 0.38452 0.09687 0.13898 0.0
O10 O 0.24107 0.93136 0.27455 0.0
O11 O 0.22118 1.01007 0.24839 0.0
O12 O 0.40775 1.01392 0.22631 0.0
O13 O 0.43123 0.09718 0.28798 0.0
O14 O 0.33077 0.04944 0.16503 0.0
O15 O 0.43508 0.15184 0.17312 0.0
C16 C 0.51736 0.32277 0.29989 0.0
O17 O 0.53221 0.27904 0.27012 0.0
O18 O 0.4558 0.2883 0.3191 0.0
C19 C 0.30742 0.16084 0.24452 0.0
Tb20 Tb 0.75856 0.75095 0.28059 0.0
C21 C 0.7849 0.71204 0.40498 0.0
Tb22 Tb 0.80708 0.64306 0.2749 0.0
O23 O 0.65556 0.67386 0.31119 0.0
O24 O 0.7157 0.64334 0.2603 0.0
O25 O 0.80134 0.76559 0.37282 0.0
C26 C 0.83805 0.54127 0.26648 0.0
O27 O 0.77461 0.65257 0.37436 0.0
C28 C 0.91513 0.76695 0.28545 0.0
C29 C 0.76795 0.69082 0.14721 0.0
O30 O 0.83449 0.57367 0.31831 0.0
O31 O 0.81582 0.56063 0.22024 0.0
O32 O 0.91715 0.71053 0.28128 0.0
O33 O 0.85309 0.75122 0.28244 0.0
O34 O 0.7908 0.65206 0.17219 0.0
O35 O 0.74954 0.72954 0.18145 0.0
C36 C 0.78297 0.87522 0.25431 0.0
O37 O 0.7877 0.83051 0.21626 0.0
O38 O 0.75879 0.84785 0.30721 0.0
C39 C 0.66253 0.62097 0.29106 0.0
Tb40 Tb 0.89072 0.25549 0.23682 0.0
C41 C 0.96574 0.27769 0.37145 0.0
Tb42 Tb 0.04074 0.31008 0.24547 0.0
O43 O 0.87539 0.16401 0.27636 0.0
O44 O 0.95378 0.21149 0.21422 0.0
O45 O 0.91148 0.27375 0.34136 0.0
C46 C 0.1521 0.29997 0.26405 0.0
O47 O 1.01926 0.28593 0.34044 0.0
C48 C 1.00149 0.40494 0.2511 0.0
C49 C 0.98357 0.29193 0.11477 0.0
O50 O 0.1016 0.2811 0.30109 0.0
O51 O 0.1426 0.33024 0.2183 0.0
O52 O 0.06139 0.41718 0.23232 0.0
O53 O 0.97402 0.34717 0.27213 0.0
O54 O 1.02384 0.27952 0.14847 0.0
O55 O 0.92946 0.29215 0.14093 0.0
C56 C 0.75547 0.20682 0.2205 0.0
O57 O 0.80081 0.26998 0.24041 0.0
O58 O 0.78746 0.17333 0.20725 0.0
C59 C 0.92411 0.16056 0.24768 0.0
Tb60 Tb 1.031 0.30854 0.76239 0.0
C61 C 0.07017 0.35091 0.62887 0.0
Tb62 Tb 0.18108 0.41564 0.74695 0.0
O63 O 0.99839 0.38623 0.74489 0.0
O64 O 0.09549 0.41676 0.77637 0.0
O65 O 1.0285 0.30172 0.6628 0.0
C66 C 0.31541 0.5067 0.74882 0.0
O67 O 0.13007 0.40429 0.65239 0.0
C68 C 0.15216 0.28711 0.72524 0.0
C69 C 0.11155 0.37241 0.88611 0.0
O70 O 0.26792 0.51688 0.72555 0.0
O71 O 0.28672 0.44804 0.77315 0.0
O72 O 0.19138 0.33664 0.69176 0.0
O73 O 0.12774 0.31126 0.76671 0.0
O74 O 0.16521 0.41714 0.85336 0.0
O75 O 0.05451 0.32259 0.85917 0.0
C76 C 0.94291 0.17513 0.76506 0.0
O77 O 0.9361 0.2242 0.79591 0.0
O78 O 0.99649 0.202 0.73137 0.0
C79 C 0.06025 0.43914 0.7538 0.0
Tb80 Tb 0.30794 1.02014 0.76612 0.0
C81 C 0.29855 0.96376 0.62954 0.0
Tb82 Tb 0.26302 0.87495 0.7522 0.0
O83 O 0.41167 0.04129 0.79688 0.0
O84 O 0.35425 0.96008 0.73305 0.0
O85 O 0.3002 1.01351 0.66653 0.0
C86 C 0.2161 0.73759 0.75374 0.0
O87 O 0.29367 0.9074 0.65307 0.0
C88 C 0.16098 0.89822 0.75117 0.0
C89 C 0.30728 0.96834 0.88983 0.0
O90 O 0.20852 0.76862 0.70833 0.0
O91 O 0.25512 0.78472 0.79731 0.0
O92 O 0.16656 0.85425 0.71355 0.0
O93 O 0.21408 0.92943 0.78699 0.0
O94 O 0.29868 0.91083 0.85594 0.0
O95 O 0.30233 1.0164 0.86329 0.0
C96 C 0.272 0.11491 0.75427 0.0
O97 O 0.23253 0.04904 0.74574 0.0
O98 O 0.33416 0.12932 0.77012 0.0
C99 C 0.40853 0.98708 0.76584 0.0
Tb100 Tb 0.74849 0.73839 0.76942 0.0
C101 C 0.70139 0.76152 0.64741 0.0
Tb102 Tb 0.66116 0.80165 0.78764 0.0
O103 O 0.65922 0.63701 0.73492 0.0
O104 O 0.64655 0.70434 0.79575 0.0
O105 O 0.75027 0.75634 0.67425 0.0
C106 C 0.58295 0.86165 0.78946 0.0
O107 O 0.65723 0.77387 0.68135 0.0
C108 C 0.79161 0.88931 0.80316 0.0
C109 C 0.7076 0.747 0.90629 0.0
O110 O 0.56027 0.79559 0.79009 0.0
O111 O 0.64848 0.89254 0.78609 0.0
O112 O 0.74527 0.88683 0.84042 0.0
O113 O 0.76268 0.83988 0.76052 0.0
O114 O 0.66791 0.77182 0.88591 0.0
O115 O 0.74459 0.73157 0.86827 0.0
C116 C 0.87425 0.76138 0.78402 0.0
O117 O 0.84962 0.79666 0.8126 0.0
O118 O 0.8265 0.70947 0.74853 0.0
C119 C 0.61353 0.64908 0.76183 0.0
C120 C 0.28705 1.01278 0.99155 0.0
C121 C 0.32575 0.98715 0.95884 0.0
C122 C 0.4187 0.05243 0.0403 0.0
C123 C 0.38116 0.08196 0.06891 0.0
N124 N 0.29029 0.10685 0.05793 0.0
N125 N 0.43252 0.98837 0.94902 0.0
C126 C 0.31904 0.06769 0.03932 0.0
C127 C 0.39291 1.00845 0.98255 0.0
N128 N 0.21931 0.98495 0.97581 0.0
N129 N 0.47862 0.06619 0.0687 0.0
H130 H 0.41343 0.95334 0.90927 0.0
H131 H 0.48422 1.0077 0.95938 0.0
H132 H 0.50025 0.10244 0.10741 0.0
H133 H 0.50571 0.04144 0.05462 0.0
H134 H 0.18703 0.99777 1.00112 0.0
H135 H 0.19451 0.94394 0.94134 0.0
H136 H 0.24746 0.10269 0.03507 0.0
H137 H 0.31422 0.14835 0.09215 0.0
C138 C 0.75268 0.80392 0.54682 0.0
C139 C 0.70024 0.74973 0.57727 0.0
C140 C 0.71224 0.66579 0.50303 0.0
C141 C 0.76511 0.72073 0.47226 0.0
N142 N 0.85303 0.84065 0.48493 0.0
N143 N 0.61928 0.62976 0.5761 0.0
C144 C 0.79 0.78959 0.49977 0.0
C145 C 0.67667 0.68083 0.55228 0.0
N146 N 0.76716 0.86977 0.56386 0.0
N147 N 0.70065 0.60023 0.49023 0.0
H148 H 0.59275 0.64115 0.61081 0.0
H149 H 0.59468 0.57862 0.55733 0.0
H150 H 0.73066 0.58857 0.46033 0.0
H151 H 0.66716 0.55885 0.51503 0.0
H152 H 0.80059 0.91191 0.53975 0.0
H153 H 0.74002 0.8804 0.59852 0.0
H154 H 0.87664 0.89044 0.50709 0.0
H155 H 0.88535 0.8306 0.45651 0.0
C156 C 1.02208 0.37528 0.02811 0.0
C157 C 1.00937 0.31166 0.04999 0.0
C158 C 0.09757 0.31293 0.98042 0.0
C159 C 0.10737 0.37381 0.9558 0.0
N160 N 0.09529 0.47354 0.96871 0.0
N161 N 1.02274 0.21149 0.03386 0.0
C162 C 0.07442 0.40817 0.98378 0.0
C163 C 0.04372 0.27812 0.02193 0.0
N164 N 0.98133 0.4019 0.04607 0.0
N165 N 0.13978 0.28811 0.96235 0.0
H166 H 0.98027 0.18325 0.06061 0.0
H167 H 0.0426 0.18223 1.01258 0.0
H168 H 0.18006 0.31505 0.93308 0.0
H169 H 0.13966 0.24644 0.98118 0.0
H170 H 0.98315 0.44404 0.02659 0.0
H171 H 0.9407 0.37746 0.07553 0.0
H172 H 0.07962 0.5056 0.9919 0.0
H173 H 0.13411 0.4974 0.93705 0.0
C174 C 0.40305 0.04238 0.48753 0.0
C175 C 0.36549 0.07244 0.46413 0.0
C176 C 0.27351 1.00524 0.53467 0.0
C177 C 0.31472 0.98272 0.56368 0.0
N178 N 0.42427 0.98937 0.57357 0.0
N179 N 0.26889 0.08973 0.47271 0.0
C180 C 0.38111 1.00393 0.54175 0.0
C181 C 0.30219 0.05649 0.49074 0.0
N182 N 0.45753 0.04684 0.45586 0.0
N183 N 0.20642 0.97693 0.54942 0.0
H184 H 0.28945 0.12777 0.44095 0.0
H185 H 0.22479 0.08439 0.49327 0.0
H186 H 0.18423 0.93828 0.58055 0.0
H187 H 0.17167 0.98664 0.52662 0.0
H188 H 0.48178 1.01927 0.46629 0.0
H189 H 0.47498 0.07388 0.41604 0.0
H190 H 0.47601 1.01112 0.56448 0.0
H191 H 0.4092 0.95852 0.61132 0.0
C192 C 0.68892 0.65927 0.98258 0.0
C193 C 0.71092 0.72956 0.97181 0.0
C194 C 0.7926 0.76616 0.06095 0.0
C195 C 0.76287 0.69752 0.07844 0.0
N196 N 0.68258 0.57743 0.05532 0.0
N197 N 0.77702 0.84959 1.0076 0.0
C198 C 0.71091 0.64353 0.03895 0.0
C199 C 0.76028 0.78285 0.01366 0.0
N200 N 0.64972 0.60773 0.93748 0.0
N201 N 0.85298 0.81515 0.0896 0.0
H202 H 0.75264 0.86263 0.97408 0.0
H203 H 0.80965 0.8905 0.03951 0.0
H204 H 0.87888 0.80164 0.12104 0.0
H205 H 0.88035 0.8656 0.07674 0.0
H206 H 0.6386 0.55687 0.93904 0.0
H207 H 0.63208 0.61667 0.89605 0.0
H208 H 0.63887 0.53634 0.03297 0.0
H209 H 0.70232 0.56449 0.09295 0.0
C210 C 1.02915 0.27063 0.46342 0.0
C211 C 0.97668 0.28274 0.44177 0.0
C212 C 0.98093 0.33647 0.54728 0.0
C213 C 0.04517 0.34056 0.56182 0.0
N214 N 0.13206 0.31383 0.5283 0.0
N215 N 0.89559 0.32007 0.46869 0.0
C216 C 0.07021 0.30917 0.5177 0.0
C217 C 0.9505 0.31381 0.48515 0.0
N218 N 1.03734 0.21944 0.43332 0.0
N219 N 0.94601 0.34939 0.59362 0.0
H220 H 0.86377 0.29339 0.42933 0.0
H221 H 0.88157 0.35208 0.49464 0.0
H222 H 0.9651 0.36585 0.6394 0.0
H223 H 0.89559 0.33816 0.58805 0.0
H224 H 0.07139 0.20472 0.4495 0.0
H225 H 1.0035 0.18636 0.39698 0.0
H226 H 0.15448 0.29578 0.49478 0.0
H227 H 0.16362 0.34155 0.56776 0.0
C228 C 0.56398 0.07416 0.2034 0.0
C229 C 0.53586 0.09976 0.25111 0.0
C230 C 0.65493 0.18765 0.28542 0.0
C231 C 0.67998 0.17205 0.22943 0.0
N232 N 0.65507 0.10366 0.13004 0.0
N233 N 0.56228 0.18713 0.33906 0.0
C234 C 0.6335 0.11623 0.1869 0.0
C235 C 0.58342 0.15868 0.29187 0.0
N236 N 0.52638 1.00863 0.17578 0.0
N237 N 0.69853 0.2249 0.33588 0.0
H238 H 0.5162 0.16083 0.35981 0.0
H239 H 0.59329 0.23715 0.35968 0.0
H240 H 0.7505 0.24135 0.33707 0.0
H241 H 0.68178 0.23135 0.38022 0.0
H242 H 0.54678 0.98636 0.14433 0.0
H243 H 0.47848 0.97325 0.19054 0.0
H244 H 0.62189 0.06736 0.09508 0.0
H245 H 0.70463 0.13434 0.11536 0.0
C246 C 0.58849 0.51511 0.35046 0.0
C247 C 0.61336 0.54519 0.29305 0.0
C248 C 0.57137 0.42947 0.23875 0.0
C249 C 0.55393 0.39974 0.29769 0.0
N250 N 0.55034 0.41513 0.4107 0.0
N251 N 0.60251 0.52939 0.18037 0.0
C252 C 0.56273 0.44276 0.3537 0.0
C253 C 0.59811 0.50186 0.23656 0.0
N254 N 0.58611 0.55485 0.40098 0.0
N255 N 0.5625 0.38897 0.1844 0.0
H256 H 0.6179 0.58136 0.17742 0.0
H257 H 0.58279 0.49978 0.13775 0.0
H258 H 0.53544 0.33535 0.1812 0.0
H259 H 0.58448 0.40876 0.14226 0.0
H260 H 0.56043 0.53463 0.44162 0.0
H261 H 0.60397 0.60745 0.39991 0.0
H262 H 0.5627 0.44459 0.45376 0.0
H263 H 0.53321 0.36307 0.41529 0.0
C264 C 0.92893 0.44445 0.3096 0.0
C265 C 0.97096 0.45146 0.25775 0.0
C266 C 0.93512 0.52902 0.21616 0.0
C267 C 0.88187 0.50815 0.26046 0.0
N268 N 0.82377 0.43666 0.3447 0.0
N269 N 1.01489 0.50316 0.16046 0.0
C270 C 0.87757 0.46311 0.30574 0.0
C271 C 0.97448 0.49468 0.2106 0.0
N272 N 0.94145 0.42486 0.36487 0.0
N273 N 0.95173 0.58455 0.18247 0.0
H274 H 0.04695 0.48221 0.15625 0.0
H275 H 1.01374 0.52793 0.12132 0.0
H276 H 0.92833 0.6145 0.18759 0.0
H277 H 0.99435 0.60619 0.15475 0.0
H278 H 0.91732 0.42715 0.40604 0.0
H279 H 0.98279 0.417 0.37156 0.0
H280 H 0.81576 0.39869 0.37466 0.0
H281 H 0.78378 0.44728 0.34234 0.0
C282 C 0.0901 0.55682 0.80585 0.0
C283 C 0.08587 0.51507 0.75067 0.0
C284 C 0.17303 0.61814 0.70326 0.0
C285 C 0.17614 0.66088 0.75702 0.0
N286 N 0.12628 0.67199 0.85474 0.0
N287 N 0.10241 0.51258 0.63938 0.0
C288 C 0.13151 0.63057 0.80726 0.0
C289 C 0.12146 0.54764 0.69725 0.0
N290 N 0.05385 0.52577 0.85662 0.0
N291 N 0.22035 0.64437 0.65804 0.0
H292 H 0.05917 0.46431 0.63328 0.0
H293 H 0.12263 0.53495 0.59759 0.0
H294 H 0.2601 0.69539 0.66128 0.0
H295 H 0.22422 0.61359 0.62094 0.0
H296 H 0.05816 0.55194 0.90028 0.0
H297 H 1.02039 0.47267 0.85527 0.0
H298 H 0.08964 0.6539 0.88885 0.0
H299 H 0.15534 0.72556 0.85774 0.0
C300 C 0.51708 0.99041 0.81024 0.0
C301 C 0.45655 0.95716 0.77015 0.0
C302 C 0.4923 0.87252 0.73297 0.0
C303 C 0.5413 0.89593 0.78271 0.0
N304 N 0.59635 0.9746 0.87447 0.0
N305 N 0.38167 0.85054 0.70417 0.0
C306 C 0.55256 0.95415 0.82314 0.0
C307 C 0.44302 0.89416 0.73404 0.0
N308 N 0.54359 0.05745 0.83369 0.0
N309 N 0.49238 0.8295 0.68398 0.0
H310 H 0.33863 0.85363 0.71217 0.0
H311 H 0.36993 0.80307 0.68116 0.0
H312 H 0.52807 0.81279 0.68096 0.0
H313 H 0.46204 0.81719 0.64295 0.0
H314 H 0.59004 0.08451 0.85923 0.0
H315 H 0.52538 0.08932 0.82053 0.0
H316 H 0.60096 1.01215 0.90917 0.0
H317 H 0.62317 0.9496 0.88525 0.0
C318 C 0.42476 0.51788 0.70696 0.0
C319 C 0.39072 0.54793 0.74169 0.0
C320 C 0.49785 0.62853 0.79787 0.0
C321 C 0.53563 0.6068 0.75754 0.0
N322 N 0.53062 0.52495 0.6734 0.0
N323 N 0.39854 0.64232 0.80923 0.0
C324 C 0.49789 0.54986 0.71173 0.0
C325 C 0.42889 0.60761 0.78234 0.0
N326 N 0.38668 0.45744 0.67047 0.0
N327 N 0.52421 0.66114 0.85588 0.0
H328 H 0.34748 0.62727 0.79957 0.0
H329 H 0.42612 0.68962 0.8357 0.0
H330 H 0.56588 0.66099 0.87601 0.0
H331 H 0.49755 0.67506 0.88826 0.0
H332 H 0.40607 0.42697 0.651 0.0
H333 H 0.33425 0.43601 0.66178 0.0
H334 H 0.50754 0.49149 0.63329 0.0
H335 H 0.5813 0.53822 0.68017 0.0
C336 C 0.27168 0.23549 0.30808 0.0
C337 C 0.25677 0.18345 0.25825 0.0
C338 C 0.16792 0.20357 0.21579 0.0
C339 C 0.19088 0.26276 0.2594 0.0
N340 N 0.26668 0.33801 0.34476 0.0
N341 N 0.1911 0.11737 0.16452 0.0
C342 C 0.24304 0.27924 0.30519 0.0
C343 C 0.20462 0.16709 0.21228 0.0
N344 N 0.3123 0.24253 0.35873 0.0
N345 N 0.1095 0.18045 0.17954 0.0
H346 H 0.21343 0.08623 0.16353 0.0
H347 H 0.16026 0.10895 0.1248 0.0
H348 H 0.08073 0.20518 0.18051 0.0
H349 H 0.086 0.1334 0.15241 0.0
H350 H 0.31946 0.27472 0.39923 0.0
H351 H 0.33335 0.21104 0.36354 0.0
H352 H 0.31 0.35743 0.37439 0.0
H353 H 0.24633 0.37086 0.34415 0.0
C354 C 1.02577 0.83922 0.34269 0.0
C355 C 0.97859 0.83426 0.29592 0.0
C356 C 0.072 0.90474 0.22974 0.0
C357 C 0.11965 0.90643 0.2745 0.0
N358 N 0.14313 0.89627 0.3829 0.0
N359 N 0.95818 0.88662 0.21141 0.0
C360 C 0.09709 0.8801 0.33406 0.0
C361 C 1.0024 0.87555 0.24497 0.0
N362 N 1.0017 0.80213 0.39412 0.0
N363 N 0.09224 0.92744 0.17137 0.0
H364 H 0.90759 0.86574 0.22391 0.0
H365 H 0.97326 0.92173 0.17704 0.0
H366 H 0.14204 0.94582 0.15672 0.0
H367 H 0.05814 0.9217 0.13539 0.0
H368 H 1.03256 0.79587 0.4262 0.0
H369 H 0.94963 0.77535 0.40287 0.0
H370 H 0.129 0.88378 0.4288 0.0
H371 H 0.1956 0.92784 0.37924 0.0
C372 C 0.85335 0.04888 0.18611 0.0
C373 C 0.90992 0.09006 0.22842 0.0
C374 C 0.88802 0.98924 0.28285 0.0
C375 C 0.82582 0.94957 0.2462 0.0
N376 N 0.75828 0.93539 0.15269 0.0
N377 N 0.99519 0.09798 0.29953 0.0
C378 C 0.81166 0.97735 0.19409 0.0
C379 C 0.93182 0.05931 0.27109 0.0
N380 N 0.83764 0.07971 0.14099 0.0
N381 N 0.90527 0.9601 0.3286 0.0
H382 H 1.0272 0.14888 0.2893 0.0
H383 H 1.01817 0.07904 0.3283 0.0
H384 H 0.87842 0.90769 0.33526 0.0
H385 H 0.94571 0.9879 0.36131 0.0
H386 H 0.79265 0.05579 0.11335 0.0
H387 H 0.87029 0.13087 0.13188 0.0
H388 H 0.74894 0.9504 0.11044 0.0
H389 H 0.72443 0.88367 0.159 0.0
C390 C 0.22325 0.25335 0.79027 0.0
C391 C 0.17639 0.23843 0.73855 0.0
C392 C 0.20501 0.15304 0.69223 0.0
C393 C 0.246 0.16306 0.7469 0.0
N394 N 0.28136 0.21171 0.85413 0.0
N395 N 0.11467 0.1663 0.64548 0.0
C396 C 0.25165 0.21011 0.79765 0.0
C397 C 0.16463 0.18553 0.69129 0.0
N398 N 0.24403 0.31072 0.83085 0.0
N399 N 0.20707 0.11483 0.64006 0.0
H400 H 0.0846 0.18958 0.64331 0.0
H401 H 0.09884 0.12337 0.61336 0.0
H402 H 0.23882 0.0933 0.6379 0.0
H403 H 0.18306 0.11055 0.59693 0.0
H404 H 0.28517 0.32869 0.86308 0.0
H405 H 0.22373 0.34321 0.8302 0.0
H406 H 0.27902 0.23904 0.89495 0.0
H407 H 0.30302 0.1811 0.86189 0.0
C408 C 0.04755 0.88031 0.72451 0.0
C409 C 0.09097 0.87695 0.77025 0.0
C410 C 0.99083 0.79765 0.82675 0.0
C411 C 0.94817 0.79337 0.77601 0.0
N412 N 0.93554 0.82529 0.67287 0.0
N413 N 0.1034 0.82301 0.86039 0.0
C414 C 0.97641 0.83321 0.72378 0.0
C415 C 0.0627 0.8338 0.82076 0.0
N416 N 0.07481 0.9285 0.68136 0.0
N417 N 0.96274 0.7672 0.88074 0.0
H418 H 0.15628 0.84779 0.85879 0.0
H419 H 0.08414 0.78539 0.8925 0.0
H420 H 0.91017 0.73683 0.88549 0.0
H421 H 0.99146 0.77589 0.92212 0.0
H422 H 0.04558 0.93875 0.65083 0.0
H423 H 0.12707 0.96282 0.68007 0.0
H424 H 0.95421 0.84759 0.63079 0.0
H425 H 0.88303 0.79175 0.67029 0.0
C426 C 0.88619 0.05123 0.72333 0.0
C427 C 0.90749 0.10084 0.77618 0.0
C428 C 0.87577 1.00853 0.84682 0.0
C429 C 0.85008 0.95918 0.79388 0.0
N430 N 0.86427 0.93759 0.68434 0.0
N431 N 0.94257 0.12858 0.88671 0.0
C432 C 0.86562 0.9816 0.73271 0.0
C433 C 0.90808 0.08019 0.83774 0.0
N434 N 0.88326 0.06993 0.66421 0.0
N435 N 0.86874 0.9861 0.90581 0.0
H436 H 0.96889 0.18145 0.88212 0.0
H437 H 0.95007 0.11644 0.93112 0.0
H438 H 0.85338 0.93482 0.91262 0.0
H439 H 0.87674 1.01722 0.94727 0.0
H440 H 0.86201 0.03425 0.6251 0.0
H441 H 0.89599 0.12002 0.65532 0.0
H442 H 0.88219 0.95353 0.63999 0.0
H443 H 0.85517 0.88829 0.69157 0.0
loop_
_geom_bond_atom_site_label_1
_geom_bond_atom_site_label_2
_geom_bond_distance
_geom_bond_site_symmetry_2
_ccdc_geom_bond_type
Tb0 O3 2.453 . S
Tb0 O4 2.596 . S
Tb0 O5 2.374 . S
Tb0 O13 2.343 . S
Tb0 O15 2.353 . S
Tb0 O17 2.427 . S
Tb0 O18 2.513 . S
C1 O5 1.251 . S
C1 O7 1.263 . S
Tb2 O4 2.343 . S
Tb2 O7 2.353 . S
Tb2 O10 2.427 1_545 S
Tb2 O11 2.513 1_545 S
Tb2 O12 2.453 . S
Tb2 O13 2.596 . S
Tb2 O14 2.374 . S
O3 Tb0 2.453 . S
O3 C19 1.245 . S
O4 Tb0 2.596 . S
O4 Tb2 2.343 . S
O4 C19 1.259 . S
O5 Tb0 2.374 . S
O5 C1 1.251 . S
C6 O10 1.275 . S
C6 O11 1.246 . S
O7 C1 1.263 . S
O7 Tb2 2.353 . S
C8 O12 1.245 . S
C8 O13 1.259 . S
C9 O14 1.250 . S
C9 O15 1.263 . S
O10 Tb2 2.427 1_565 S
O10 C6 1.275 . S
O11 Tb2 2.513 1_565 S
O11 C6 1.246 . S
O12 Tb2 2.453 . S
O12 C8 1.245 . S
O13 Tb0 2.343 . S
O13 Tb2 2.596 . S
O13 C8 1.259 . S
O14 Tb2 2.374 . S
O14 C9 1.250 . S
O15 Tb0 2.353 . S
O15 C9 1.263 . S
C16 O17 1.275 . S
C16 O18 1.246 . S
O17 Tb0 2.427 . S
O17 C16 1.275 . S
O18 Tb0 2.513 . S
O18 C16 1.246 . S
C19 O3 1.245 . S
C19 O4 1.259 . S
Tb20 O23 2.453 . S
Tb20 O24 2.596 . S
Tb20 O25 2.374 . S
Tb20 O33 2.343 . S
Tb20 O35 2.353 . S
Tb20 O37 2.427 . S
Tb20 O38 2.513 . S
C21 O25 1.251 . S
C21 O27 1.263 . S
Tb22 O24 2.343 . S
Tb22 O27 2.353 . S
Tb22 O30 2.427 . S
Tb22 O31 2.513 . S
Tb22 O32 2.453 . S
Tb22 O33 2.596 . S
Tb22 O34 2.374 . S
O23 Tb20 2.453 . S
O23 C39 1.245 . S
O24 Tb20 2.596 . S
O24 Tb22 2.343 . S
O24 C39 1.259 . S
O25 Tb20 2.374 . S
O25 C21 1.251 . S
C26 O30 1.275 . S
C26 O31 1.246 . S
O27 C21 1.263 . S
O27 Tb22 2.353 . S
C28 O32 1.245 . S
C28 O33 1.259 . S
C29 O34 1.250 . S
C29 O35 1.263 . S
O30 Tb22 2.427 . S
O30 C26 1.275 . S
O31 Tb22 2.513 . S
O31 C26 1.246 . S
O32 Tb22 2.453 . S
O32 C28 1.245 . S
O33 Tb20 2.343 . S
O33 Tb22 2.596 . S
O33 C28 1.259 . S
O34 Tb22 2.374 . S
O34 C29 1.250 . S
O35 Tb20 2.353 . S
O35 C29 1.263 . S
C36 O37 1.275 . S
C36 O38 1.246 . S
O37 Tb20 2.427 . S
O37 C36 1.275 . S
O38 Tb20 2.513 . S
O38 C36 1.246 . S
C39 O23 1.245 . S
C39 O24 1.259 . S
Tb40 O43 2.453 . S
Tb40 O44 2.596 . S
Tb40 O45 2.374 . S
Tb40 O53 2.343 . S
Tb40 O55 2.353 . S
Tb40 O57 2.427 . S
Tb40 O58 2.513 . S
C41 O45 1.251 . S
C41 O47 1.263 . S
Tb42 O44 2.343 . S
Tb42 O47 2.353 . S
Tb42 O50 2.427 1_655 S
Tb42 O51 2.513 1_655 S
Tb42 O52 2.453 . S
Tb42 O53 2.596 . S
Tb42 O54 2.374 . S
O43 Tb40 2.453 . S
O43 C59 1.245 . S
O44 Tb40 2.596 . S
O44 Tb42 2.343 . S
O44 C59 1.259 . S
O45 Tb40 2.374 . S
O45 C41 1.251 . S
C46 O50 1.275 . S
C46 O51 1.246 . S
O47 C41 1.263 . S
O47 Tb42 2.353 . S
C48 O52 1.245 . S
C48 O53 1.259 . S
C49 O54 1.250 . S
C49 O55 1.263 . S
O50 Tb42 2.427 1_455 S
O50 C46 1.275 . S
O51 Tb42 2.513 1_455 S
O51 C46 1.246 . S
O52 Tb42 2.453 . S
O52 C48 1.245 . S
O53 Tb40 2.343 . S
O53 Tb42 2.596 . S
O53 C48 1.259 . S
O54 Tb42 2.374 . S
O54 C49 1.250 . S
O55 Tb40 2.353 . S
O55 C49 1.263 . S
C56 O57 1.275 . S
C56 O58 1.246 . S
O57 Tb40 2.427 . S
O57 C56 1.275 . S
O58 Tb40 2.513 . S
O58 C56 1.246 . S
C59 O43 1.245 . S
C59 O44 1.259 . S
Tb60 O63 2.453 . S
Tb60 O64 2.596 . S
Tb60 O65 2.374 . S
Tb60 O73 2.343 . S
Tb60 O75 2.353 . S
Tb60 O77 2.427 1_455 S
Tb60 O78 2.513 1_455 S
C61 O65 1.251 . S
C61 O67 1.263 . S
Tb62 O64 2.343 . S
Tb62 O67 2.353 . S
Tb62 O70 2.427 . S
Tb62 O71 2.513 . S
Tb62 O72 2.453 . S
Tb62 O73 2.596 . S
Tb62 O74 2.374 . S
O63 Tb60 2.453 . S
O63 C79 1.245 . S
O64 Tb60 2.596 . S
O64 Tb62 2.343 . S
O64 C79 1.259 . S
O65 Tb60 2.374 . S
O65 C61 1.251 . S
C66 O70 1.275 . S
C66 O71 1.246 . S
O67 C61 1.263 . S
O67 Tb62 2.353 . S
C68 O72 1.245 . S
C68 O73 1.259 . S
C69 O74 1.250 . S
C69 O75 1.263 . S
O70 Tb62 2.427 . S
O70 C66 1.275 . S
O71 Tb62 2.513 . S
O71 C66 1.246 . S
O72 Tb62 2.453 . S
O72 C68 1.245 . S
O73 Tb60 2.343 . S
O73 Tb62 2.596 . S
O73 C68 1.259 . S
O74 Tb62 2.374 . S
O74 C69 1.250 . S
O75 Tb60 2.353 . S
O75 C69 1.263 . S
C76 O77 1.275 . S
C76 O78 1.246 . S
O77 Tb60 2.427 1_655 S
O77 C76 1.275 . S
O78 Tb60 2.513 1_655 S
O78 C76 1.246 . S
C79 O63 1.245 . S
C79 O64 1.259 . S
Tb80 O83 2.453 . S
Tb80 O84 2.596 . S
Tb80 O85 2.374 . S
Tb80 O93 2.343 . S
Tb80 O95 2.353 . S
Tb80 O97 2.427 1_565 S
Tb80 O98 2.513 1_565 S
C81 O85 1.251 . S
C81 O87 1.263 . S
Tb82 O84 2.343 . S
Tb82 O87 2.353 . S
Tb82 O90 2.427 . S
Tb82 O91 2.513 . S
Tb82 O92 2.453 . S
Tb82 O93 2.596 . S
Tb82 O94 2.374 . S
O83 Tb80 2.453 . S
O83 C99 1.245 . S
O84 Tb80 2.596 . S
O84 Tb82 2.343 . S
O84 C99 1.259 . S
O85 Tb80 2.374 . S
O85 C81 1.251 . S
C86 O90 1.275 . S
C86 O91 1.246 . S
O87 C81 1.263 . S
O87 Tb82 2.353 . S
C88 O92 1.245 . S
C88 O93 1.259 . S
C89 O94 1.250 . S
C89 O95 1.263 . S
O90 Tb82 2.427 . S
O90 C86 1.275 . S
O91 Tb82 2.513 . S
O91 C86 1.246 . S
O92 Tb82 2.453 . S
O92 C88 1.245 . S
O93 Tb80 2.343 . S
O93 Tb82 2.596 . S
O93 C88 1.259 . S
O94 Tb82 2.374 . S
O94 C89 1.250 . S
O95 Tb80 2.353 . S
O95 C89 1.263 . S
C96 O97 1.275 . S
C96 O98 1.246 . S
O97 Tb80 2.427 1_545 S
O97 C96 1.275 . S
O98 Tb80 2.513 1_545 S
O98 C96 1.246 . S
C99 O83 1.245 . S
C99 O84 1.259 . S
Tb100 O103 2.453 . S
Tb100 O104 2.596 . S
Tb100 O105 2.374 . S
Tb100 O113 2.343 . S
Tb100 O115 2.353 . S
Tb100 O117 2.427 . S
Tb100 O118 2.513 . S
C101 O105 1.251 . S
C101 O107 1.263 . S
Tb102 O104 2.343 . S
Tb102 O107 2.353 . S
Tb102 O110 2.427 . S
Tb102 O111 2.513 . S
Tb102 O112 2.453 . S
Tb102 O113 2.596 . S
Tb102 O114 2.374 . S
O103 Tb100 2.453 . S
O103 C119 1.245 . S
O104 Tb100 2.596 . S
O104 Tb102 2.343 . S
O104 C119 1.259 . S
O105 Tb100 2.374 . S
O105 C101 1.251 . S
C106 O110 1.275 . S
C106 O111 1.246 . S
O107 C101 1.263 . S
O107 Tb102 2.353 . S
C108 O112 1.245 . S
C108 O113 1.259 . S
C109 O114 1.250 . S
C109 O115 1.263 . S
O110 Tb102 2.427 . S
O110 C106 1.275 . S
O111 Tb102 2.513 . S
O111 C106 1.246 . S
O112 Tb102 2.453 . S
O112 C108 1.245 . S
O113 Tb100 2.343 . S
O113 Tb102 2.596 . S
O113 C108 1.259 . S
O114 Tb102 2.374 . S
O114 C109 1.250 . S
O115 Tb100 2.353 . S
O115 C109 1.263 . S
C116 O117 1.275 . S
C116 O118 1.246 . S
O117 Tb100 2.427 . S
O117 C116 1.275 . S
O118 Tb100 2.513 . S
O118 C116 1.246 . S
C119 O103 1.245 . S
C119 O104 1.259 . S
C120 C121 1.368 . S
C120 C126 1.375 1_566 S
C120 N128 1.357 . S
C121 C120 1.368 . S
C121 C127 1.363 . S
C122 C123 1.363 . S
C122 C127 1.379 1_544 S
C122 N129 1.356 . S
C123 C122 1.363 . S
C123 C126 1.363 . S
N124 C126 1.356 . S
N124 H136 0.984 . S
N124 H137 0.985 . S
N125 C127 1.356 . S
N125 H130 0.984 . S
N125 H131 0.985 . S
C126 C120 1.375 1_544 S
C126 C123 1.363 . S
C126 N124 1.356 . S
C127 C121 1.363 . S
C127 C122 1.379 1_566 S
C127 N125 1.356 . S
N128 C120 1.357 . S
N128 H134 0.984 1_556 S
N128 H135 0.984 . S
N129 C122 1.356 . S
N129 H132 0.984 . S
N129 H133 0.985 1_554 S
H130 N125 0.984 . S
H131 N125 0.985 . S
H132 N129 0.984 . S
H133 N129 0.985 1_556 S
H134 N128 0.984 1_554 S
H135 N128 0.984 . S
H136 N124 0.984 . S
H137 N124 0.985 . S
C138 C139 1.363 . S
C138 C144 1.379 . S
C138 N146 1.356 . S
C139 C138 1.363 . S
C139 C145 1.363 . S
C140 C141 1.363 . S
C140 C145 1.379 . S
C140 N147 1.356 . S
C141 C140 1.363 . S
C141 C144 1.363 . S
N142 C144 1.356 . S
N142 H154 0.984 . S
N142 H155 0.985 . S
N143 C145 1.356 . S
N143 H148 0.984 . S
N143 H149 0.985 . S
C144 C138 1.379 . S
C144 C141 1.363 . S
C144 N142 1.356 . S
C145 C139 1.363 . S
C145 C140 1.379 . S
C145 N143 1.356 . S
N146 C138 1.356 . S
N146 H152 0.984 . S
N146 H153 0.984 . S
N147 C140 1.356 . S
N147 H150 0.984 . S
N147 H151 0.985 . S
H148 N143 0.984 . S
H149 N143 0.985 . S
H150 N147 0.984 . S
H151 N147 0.985 . S
H152 N146 0.984 . S
H153 N146 0.984 . S
H154 N142 0.984 . S
H155 N142 0.985 . S
C156 C157 1.363 1_455 S
C156 C162 1.379 . S
C156 N164 1.356 1_455 S
C157 C156 1.363 1_655 S
C157 C163 1.363 1_554 S
C158 C159 1.363 1_655 S
C158 C163 1.379 . S
C158 N165 1.356 1_655 S
C159 C158 1.363 1_455 S
C159 C162 1.363 1_556 S
N160 C162 1.356 . S
N160 H172 0.984 . S
N160 H173 0.985 1_554 S
N161 C163 1.357 . S
N161 H166 0.982 1_556 S
N161 H167 0.987 . S
C162 C156 1.379 . S
C162 C159 1.363 1_554 S
C162 N160 1.356 . S
C163 C157 1.363 1_556 S
C163 C158 1.379 . S
C163 N161 1.357 . S
N164 C156 1.356 1_655 S
N164 H170 0.984 1_655 S
N164 H171 0.984 . S
N165 C158 1.356 1_455 S
N165 H168 0.984 . S
N165 H169 0.985 1_455 S
H166 N161 0.982 1_554 S
H167 N161 0.987 . S
H168 N165 0.984 . S
H169 N165 0.985 1_655 S
H170 N164 0.984 1_455 S
H171 N164 0.984 . S
H172 N160 0.984 . S
H173 N160 0.985 1_556 S
C174 C175 1.363 . S
C174 C180 1.379 1_545 S
C174 N182 1.356 . S
C175 C174 1.363 . S
C175 C181 1.363 . S
C176 C177 1.363 . S
C176 C181 1.379 1_565 S
C176 N183 1.356 . S
C177 C176 1.363 . S
C177 C180 1.363 . S
N178 C180 1.356 . S
N178 H190 0.984 . S
N178 H191 0.985 . S
N179 C181 1.356 . S
N179 H184 0.984 . S
N179 H185 0.985 . S
C180 C174 1.379 1_565 S
C180 C177 1.363 . S
C180 N178 1.356 . S
C181 C175 1.363 . S
C181 C176 1.379 1_545 S
C181 N179 1.356 . S
N182 C174 1.356 . S
N182 H188 0.984 . S
N182 H189 0.984 . S
N183 C176 1.356 . S
N183 H186 0.984 . S
N183 H187 0.985 . S
H184 N179 0.984 . S
H185 N179 0.985 . S
H186 N183 0.984 . S
H187 N183 0.985 . S
H188 N182 0.984 . S
H189 N182 0.984 . S
H190 N178 0.984 . S
H191 N178 0.985 . S
C192 C193 1.363 1_554 S
C192 C198 1.379 . S
C192 N200 1.356 1_554 S
C193 C192 1.363 1_556 S
C193 C199 1.363 . S
C194 C195 1.363 1_556 S
C194 C199 1.379 . S
C194 N201 1.356 1_556 S
C195 C194 1.363 1_554 S
C195 C198 1.363 . S
N196 C198 1.356 . S
N196 H208 0.984 . S
N196 H209 0.985 . S
N197 C199 1.356 . S
N197 H202 0.984 . S
N197 H203 0.985 . S
C198 C192 1.379 . S
C198 C195 1.363 . S
C198 N196 1.356 . S
C199 C193 1.363 . S
C199 C194 1.379 . S
C199 N197 1.356 . S
N200 C192 1.356 1_556 S
N200 H206 0.984 1_556 S
N200 H207 0.984 . S
N201 C194 1.356 1_554 S
N201 H204 0.984 . S
N201 H205 0.985 1_554 S
H202 N197 0.984 . S
H203 N197 0.985 . S
H204 N201 0.984 . S
H205 N201 0.985 1_556 S
H206 N200 0.984 1_554 S
H207 N200 0.984 . S
H208 N196 0.984 . S
H209 N196 0.985 . S
C210 C211 1.363 1_455 S
C210 C216 1.379 . S
C210 N218 1.356 . S
C211 C210 1.363 1_655 S
C211 C217 1.363 . S
C212 C213 1.363 1_655 S
C212 C217 1.379 . S
C212 N219 1.356 . S
C213 C212 1.363 1_455 S
C213 C216 1.363 . S
N214 C216 1.356 . S
N214 H226 0.984 . S
N214 H227 0.985 . S
N215 C217 1.356 . S
N215 H220 0.984 . S
N215 H221 0.985 . S
C216 C210 1.379 . S
C216 C213 1.363 . S
C216 N214 1.356 . S
C217 C211 1.363 . S
C217 C212 1.379 . S
C217 N215 1.356 . S
N218 C210 1.356 . S
N218 H224 0.984 . S
N218 H225 0.984 1_455 S
N219 C212 1.356 . S
N219 H222 0.984 1_655 S
N219 H223 0.985 . S
H220 N215 0.984 . S
H221 N215 0.985 . S
H222 N219 0.984 1_455 S
H223 N219 0.985 . S
H224 N218 0.984 . S
H225 N218 0.984 1_655 S
H226 N214 0.984 . S
H227 N214 0.985 . S
C228 C229 1.363 . S
C228 C234 1.379 . S
C228 N236 1.356 . S
C229 C228 1.363 . S
C229 C235 1.363 . S
C230 C231 1.363 . S
C230 C235 1.379 . S
C230 N237 1.356 . S
C231 C230 1.363 . S
C231 C234 1.363 . S
N232 C234 1.356 . S
N232 H244 0.984 . S
N232 H245 0.985 . S
N233 C235 1.356 . S
N233 H238 0.984 . S
N233 H239 0.985 . S
C234 C228 1.379 . S
C234 C231 1.363 . S
C234 N232 1.356 . S
C235 C229 1.363 . S
C235 C230 1.379 . S
C235 N233 1.356 . S
N236 C228 1.356 . S
N236 H242 0.984 . S
N236 H243 0.984 . S
N237 C230 1.356 . S
N237 H240 0.984 . S
N237 H241 0.985 . S
H238 N233 0.984 . S
H239 N233 0.985 . S
H240 N237 0.984 . S
H241 N237 0.985 . S
H242 N236 0.984 . S
H243 N236 0.984 . S
H244 N232 0.984 . S
H245 N232 0.985 . S
C246 C247 1.363 . S
C246 C252 1.379 . S
C246 N254 1.356 . S
C247 C246 1.363 . S
C247 C253 1.363 . S
C248 C249 1.363 . S
C248 C253 1.379 . S
C248 N255 1.356 . S
C249 C248 1.363 . S
C249 C252 1.363 . S
N250 C252 1.356 . S
N250 H262 0.984 . S
N250 H263 0.985 . S
N251 C253 1.356 . S
N251 H256 0.984 . S
N251 H257 0.985 . S
C252 C246 1.379 . S
C252 C249 1.363 . S
C252 N250 1.356 . S
C253 C247 1.363 . S
C253 C248 1.379 . S
C253 N251 1.356 . S
N254 C246 1.356 . S
N254 H260 0.984 . S
N254 H261 0.984 . S
N255 C248 1.356 . S
N255 H258 0.984 . S
N255 H259 0.985 . S
H256 N251 0.984 . S
H257 N251 0.985 . S
H258 N255 0.984 . S
H259 N255 0.985 . S
H260 N254 0.984 . S
H261 N254 0.984 . S
H262 N250 0.984 . S
H263 N250 0.985 . S
C264 C265 1.363 . S
C264 C270 1.379 . S
C264 N272 1.356 . S
C265 C264 1.363 . S
C265 C271 1.363 . S
C266 C267 1.363 . S
C266 C271 1.379 . S
C266 N273 1.356 . S
C267 C266 1.363 . S
C267 C270 1.363 . S
N268 C270 1.356 . S
N268 H280 0.984 . S
N268 H281 0.985 . S
N269 C271 1.356 . S
N269 H274 0.984 . S
N269 H275 0.985 . S
C270 C264 1.379 . S
C270 C267 1.363 . S
C270 N268 1.356 . S
C271 C265 1.363 . S
C271 C266 1.379 . S
C271 N269 1.356 . S
N272 C264 1.356 . S
N272 H278 0.984 . S
N272 H279 0.984 . S
N273 C266 1.356 . S
N273 H276 0.984 . S
N273 H277 0.985 . S
H274 N269 0.984 . S
H275 N269 0.985 . S
H276 N273 0.984 . S
H277 N273 0.985 . S
H278 N272 0.984 . S
H279 N272 0.984 . S
H280 N268 0.984 . S
H281 N268 0.985 . S
C282 C283 1.363 . S
C282 C288 1.379 . S
C282 N290 1.356 . S
C283 C282 1.363 . S
C283 C289 1.363 . S
C284 C285 1.363 . S
C284 C289 1.379 . S
C284 N291 1.356 . S
C285 C284 1.363 . S
C285 C288 1.363 . S
N286 C288 1.356 . S
N286 H298 0.984 . S
N286 H299 0.985 . S
N287 C289 1.356 . S
N287 H292 0.984 . S
N287 H293 0.985 . S
C288 C282 1.379 . S
C288 C285 1.363 . S
C288 N286 1.356 . S
C289 C283 1.363 . S
C289 C284 1.379 . S
C289 N287 1.356 . S
N290 C282 1.356 . S
N290 H296 0.984 . S
N290 H297 0.984 . S
N291 C284 1.356 . S
N291 H294 0.984 . S
N291 H295 0.985 . S
H292 N287 0.984 . S
H293 N287 0.985 . S
H294 N291 0.984 . S
H295 N291 0.985 . S
H296 N290 0.984 . S
H297 N290 0.984 . S
H298 N286 0.984 . S
H299 N286 0.985 . S
C300 C301 1.363 . S
C300 C306 1.379 . S
C300 N308 1.356 . S
C301 C300 1.363 . S
C301 C307 1.363 . S
C302 C303 1.363 . S
C302 C307 1.379 . S
C302 N309 1.356 . S
C303 C302 1.363 . S
C303 C306 1.363 . S
N304 C306 1.356 . S
N304 H316 0.984 . S
N304 H317 0.985 . S
N305 C307 1.356 . S
N305 H310 0.984 . S
N305 H311 0.985 . S
C306 C300 1.379 . S
C306 C303 1.363 . S
C306 N304 1.356 . S
C307 C301 1.363 . S
C307 C302 1.379 . S
C307 N305 1.356 . S
N308 C300 1.356 . S
N308 H314 0.984 . S
N308 H315 0.984 . S
N309 C302 1.356 . S
N309 H312 0.984 . S
N309 H313 0.985 . S
H310 N305 0.984 . S
H311 N305 0.985 . S
H312 N309 0.984 . S
H313 N309 0.985 . S
H314 N308 0.984 . S
H315 N308 0.984 . S
H316 N304 0.984 . S
H317 N304 0.985 . S
C318 C319 1.363 . S
C318 C324 1.379 . S
C318 N326 1.356 . S
C319 C318 1.363 . S
C319 C325 1.363 . S
C320 C321 1.363 . S
C320 C325 1.379 . S
C320 N327 1.356 . S
C321 C320 1.363 . S
C321 C324 1.363 . S
N322 C324 1.356 . S
N322 H334 0.984 . S
N322 H335 0.985 . S
N323 C325 1.356 . S
N323 H328 0.984 . S
N323 H329 0.985 . S
C324 C318 1.379 . S
C324 C321 1.363 . S
C324 N322 1.356 . S
C325 C319 1.363 . S
C325 C320 1.379 . S
C325 N323 1.356 . S
N326 C318 1.356 . S
N326 H332 0.984 . S
N326 H333 0.984 . S
N327 C320 1.356 . S
N327 H330 0.984 . S
N327 H331 0.985 . S
H328 N323 0.984 . S
H329 N323 0.985 . S
H330 N327 0.984 . S
H331 N327 0.985 . S
H332 N326 0.984 . S
H333 N326 0.984 . S
H334 N322 0.984 . S
H335 N322 0.985 . S
C336 C337 1.363 . S
C336 C342 1.379 . S
C336 N344 1.356 . S
C337 C336 1.363 . S
C337 C343 1.363 . S
C338 C339 1.363 . S
C338 C343 1.379 . S
C338 N345 1.356 . S
C339 C338 1.363 . S
C339 C342 1.363 . S
N340 C342 1.356 . S
N340 H352 0.984 . S
N340 H353 0.985 . S
N341 C343 1.356 . S
N341 H346 0.984 . S
N341 H347 0.985 1_545 S
C342 C336 1.379 . S
C342 C339 1.363 . S
C342 N340 1.356 . S
C343 C337 1.363 . S
C343 C338 1.379 . S
C343 N341 1.356 . S
N344 C336 1.356 . S
N344 H350 0.984 . S
N344 H351 0.984 . S
N345 C338 1.356 . S
N345 H348 0.984 . S
N345 H349 0.985 1_455 S
H346 N341 0.984 . S
H347 N341 0.985 1_565 S
H348 N345 0.984 . S
H349 N345 0.985 1_655 S
H350 N344 0.984 . S
H351 N344 0.984 . S
H352 N340 0.984 . S
H353 N340 0.985 . S
C354 C355 1.363 . S
C354 C360 1.379 1_655 S
C354 N362 1.356 . S
C355 C354 1.363 . S
C355 C361 1.363 . S
C356 C357 1.363 . S
C356 C361 1.379 1_455 S
C356 N363 1.356 . S
C357 C356 1.363 . S
C357 C360 1.363 . S
N358 C360 1.356 . S
N358 H370 0.984 . S
N358 H371 0.985 . S
N359 C361 1.356 . S
N359 H364 0.984 . S
N359 H365 0.985 . S
C360 C354 1.379 1_455 S
C360 C357 1.363 . S
C360 N358 1.356 . S
C361 C355 1.363 . S
C361 C356 1.379 1_655 S
C361 N359 1.356 . S
N362 C354 1.356 . S
N362 H368 0.984 . S
N362 H369 0.984 . S
N363 C356 1.356 . S
N363 H366 0.984 . S
N363 H367 0.985 . S
H364 N359 0.984 . S
H365 N359 0.985 . S
H366 N363 0.984 . S
H367 N363 0.985 . S
H368 N362 0.984 . S
H369 N362 0.984 . S
H370 N358 0.984 . S
H371 N358 0.985 . S
C372 C373 1.363 . S
C372 C378 1.379 1_545 S
C372 N380 1.356 . S
C373 C372 1.363 . S
C373 C379 1.363 . S
C374 C375 1.363 . S
C374 C379 1.379 1_565 S
C374 N381 1.356 . S
C375 C374 1.363 . S
C375 C378 1.363 . S
N376 C378 1.356 . S
N376 H388 0.984 . S
N376 H389 0.985 . S
N377 C379 1.356 . S
N377 H382 0.984 . S
N377 H383 0.985 . S
C378 C372 1.379 1_565 S
C378 C375 1.363 . S
C378 N376 1.356 . S
C379 C373 1.363 . S
C379 C374 1.379 1_545 S
C379 N377 1.356 . S
N380 C372 1.356 . S
N380 H386 0.984 . S
N380 H387 0.984 . S
N381 C374 1.356 . S
N381 H384 0.984 . S
N381 H385 0.985 . S
H382 N377 0.984 . S
H383 N377 0.985 . S
H384 N381 0.984 . S
H385 N381 0.985 . S
H386 N380 0.984 . S
H387 N380 0.984 . S
H388 N376 0.984 . S
H389 N376 0.985 . S
C390 C391 1.363 . S
C390 C396 1.379 . S
C390 N398 1.356 . S
C391 C390 1.363 . S
C391 C397 1.363 . S
C392 C393 1.363 . S
C392 C397 1.379 . S
C392 N399 1.356 . S
C393 C392 1.363 . S
C393 C396 1.363 . S
N394 C396 1.356 . S
N394 H406 0.984 . S
N394 H407 0.985 . S
N395 C397 1.356 . S
N395 H400 0.984 . S
N395 H401 0.985 . S
C396 C390 1.379 . S
C396 C393 1.363 . S
C396 N394 1.356 . S
C397 C391 1.363 . S
C397 C392 1.379 . S
C397 N395 1.356 . S
N398 C390 1.356 . S
N398 H404 0.984 . S
N398 H405 0.984 . S
N399 C392 1.356 . S
N399 H402 0.984 . S
N399 H403 0.985 . S
H400 N395 0.984 . S
H401 N395 0.985 . S
H402 N399 0.984 . S
H403 N399 0.985 . S
H404 N398 0.984 . S
H405 N398 0.984 . S
H406 N394 0.984 . S
H407 N394 0.985 . S
C408 C409 1.363 . S
C408 C414 1.379 1_455 S
C408 N416 1.356 . S
C409 C408 1.363 . S
C409 C415 1.363 . S
C410 C411 1.363 . S
C410 C415 1.379 1_655 S
C410 N417 1.356 . S
C411 C410 1.363 . S
C411 C414 1.363 . S
N412 C414 1.356 . S
N412 H424 0.984 . S
N412 H425 0.985 . S
N413 C415 1.356 . S
N413 H418 0.984 . S
N413 H419 0.985 . S
C414 C408 1.379 1_655 S
C414 C411 1.363 . S
C414 N412 1.356 . S
C415 C409 1.363 . S
C415 C410 1.379 1_455 S
C415 N413 1.356 . S
N416 C408 1.356 . S
N416 H422 0.984 . S
N416 H423 0.984 . S
N417 C410 1.356 . S
N417 H420 0.984 . S
N417 H421 0.985 . S
H418 N413 0.984 . S
H419 N413 0.985 . S
H420 N417 0.984 . S
H421 N417 0.985 . S
H422 N416 0.984 . S
H423 N416 0.984 . S
H424 N412 0.984 . S
H425 N412 0.985 . S
C426 C427 1.363 . S
C426 C432 1.379 1_545 S
C426 N434 1.356 . S
C427 C426 1.363 . S
C427 C433 1.363 . S
C428 C429 1.363 . S
C428 C433 1.379 1_565 S
C428 N435 1.356 . S
C429 C428 1.363 . S
C429 C432 1.363 . S
N430 C432 1.356 . S
N430 H442 0.984 . S
N430 H443 0.985 . S
N431 C433 1.356 . S
N431 H436 0.984 . S
N431 H437 0.985 . S
C432 C426 1.379 1_565 S
C432 C429 1.363 . S
C432 N430 1.356 . S
C433 C427 1.363 . S
C433 C428 1.379 1_545 S
C433 N431 1.356 . S
N434 C426 1.356 . S
N434 H440 0.984 . S
N434 H441 0.984 . S
N435 C428 1.356 . S
N435 H438 0.984 . S
N435 H439 0.985 . S
H436 N431 0.984 . S
H437 N431 0.985 . S
H438 N435 0.984 . S
H439 N435 0.985 . S
H440 N434 0.984 . S
H441 N434 0.984 . S
H442 N430 0.984 . S
H443 N430 0.985 . S
C121 C89 1.917 . S
C123 C9 1.881 . S
C139 C101 2.019 . S
C141 C21 2.072 . S
C157 C49 2.199 . S
C159 C69 2.246 . S
C175 C1 2.306 . S
C177 C81 2.253 . S
C193 C109 2.140 . S
C195 C29 2.173 . S
C211 C41 1.961 . S
C213 C61 1.926 . S
C229 C8 1.820 . S
C231 C56 1.648 . S
C247 C39 1.818 . S
C249 C16 1.643 . S
C265 C48 1.818 . S
C267 C26 1.646 . S
C283 C79 1.827 . S
C285 C86 1.645 . S
C301 C99 1.819 . S
C303 C106 1.656 . S
C319 C66 1.684 . S
C321 C119 1.825 . S
C337 C19 1.119 . S
C339 C46 1.347 . S
C355 C28 1.120 . S
C357 C6 1.336 . S
C373 C59 1.119 . S
C375 C36 1.328 . S
C391 C68 1.118 . S
C393 C96 1.337 . S
C409 C88 1.119 . S
C411 C116 1.329 . S
C427 C76 1.370 . S
C429 C108 1.125 . S
