# Generated by pormake.
# Topology vbb, (4)-cn, num edge types: 1
# Building blocks:
#     Node 0, Type 0, BuildingBlock: ESEHIV_clean_sbu_0, # of connection points: 4
#     Node 1, Type 0, BuildingBlock: ESEHIV_clean_sbu_0, # of connection points: 4
#     Node 2, Type 0, BuildingBlock: ESEHIV_clean_sbu_0, # of connection points: 4
#     Node 3, Type 0, BuildingBlock: ESEHIV_clean_sbu_0, # of connection points: 4
#     Node 4, Type 0, BuildingBlock: ESEHIV_clean_sbu_0, # of connection points: 4
#     Node 5, Type 0, BuildingBlock: ESEHIV_clean_sbu_0, # of connection points: 4
#     Node 6, Type 0, BuildingBlock: ESEHIV_clean_sbu_0, # of connection points: 4
#     Node 7, Type 0, BuildingBlock: ESEHIV_clean_sbu_0, # of connection points: 4
#     Node 8, Type 0, BuildingBlock: ESEHIV_clean_sbu_0, # of connection points: 4
#     Node 9, Type 0, BuildingBlock: ESEHIV_clean_sbu_0, # of connection points: 4
#     Node 10, Type 0, BuildingBlock: ESEHIV_clean_sbu_0, # of connection points: 4
#     Node 11, Type 0, BuildingBlock: ESEHIV_clean_sbu_0, # of connection points: 4
#     Node 12, Type 0, BuildingBlock: ESEHIV_clean_sbu_0, # of connection points: 4
#     Node 13, Type 0, BuildingBlock: ESEHIV_clean_sbu_0, # of connection points: 4
#     Node 14, Type 0, BuildingBlock: ESEHIV_clean_sbu_0, # of connection points: 4
#     Node 15, Type 0, BuildingBlock: ESEHIV_clean_sbu_0, # of connection points: 4
#     Node 16, Type 0, BuildingBlock: ESEHIV_clean_sbu_0, # of connection points: 4
#     Node 17, Type 0, BuildingBlock: ESEHIV_clean_sbu_0, # of connection points: 4
#     Node 18, Type 0, BuildingBlock: ESEHIV_clean_sbu_0, # of connection points: 4
#     Node 19, Type 0, BuildingBlock: ESEHIV_clean_sbu_0, # of connection points: 4
#     Node 20, Type 0, BuildingBlock: ESEHIV_clean_sbu_0, # of connection points: 4
#     Node 21, Type 0, BuildingBlock: ESEHIV_clean_sbu_0, # of connection points: 4
#     Node 22, Type 0, BuildingBlock: ESEHIV_clean_sbu_0, # of connection points: 4
#     Node 23, Type 0, BuildingBlock: ESEHIV_clean_sbu_0, # of connection points: 4
#     Node 24, Type 0, BuildingBlock: ESEHIV_clean_sbu_0, # of connection points: 4
#     Node 25, Type 0, BuildingBlock: ESEHIV_clean_sbu_0, # of connection points: 4
#     Node 26, Type 0, BuildingBlock: ESEHIV_clean_sbu_0, # of connection points: 4
#     Node 27, Type 0, BuildingBlock: ESEHIV_clean_sbu_0, # of connection points: 4
#     Node 28, Type 0, BuildingBlock: ESEHIV_clean_sbu_0, # of connection points: 4
#     Node 29, Type 0, BuildingBlock: ESEHIV_clean_sbu_0, # of connection points: 4
#     Node 30, Type 0, BuildingBlock: ESEHIV_clean_sbu_0, # of connection points: 4
#     Node 31, Type 0, BuildingBlock: ESEHIV_clean_sbu_0, # of connection points: 4
#     Edge 32, Type (0, 0), BuildingBlock: CIFDUS_clean_linker_0, # of connection points: 2
#     Edge 33, Type (0, 0), BuildingBlock: CIFDUS_clean_linker_0, # of connection points: 2
#     Edge 34, Type (0, 0), BuildingBlock: CIFDUS_clean_linker_0, # of connection points: 2
#     Edge 35, Type (0, 0), BuildingBlock: CIFDUS_clean_linker_0, # of connection points: 2
#     Edge 36, Type (0, 0), BuildingBlock: CIFDUS_clean_linker_0, # of connection points: 2
#     Edge 37, Type (0, 0), BuildingBlock: CIFDUS_clean_linker_0, # of connection points: 2
#     Edge 38, Type (0, 0), BuildingBlock: CIFDUS_clean_linker_0, # of connection points: 2
#     Edge 39, Type (0, 0), BuildingBlock: CIFDUS_clean_linker_0, # of connection points: 2
#     Edge 40, Type (0, 0), BuildingBlock: CIFDUS_clean_linker_0, # of connection points: 2
#     Edge 41, Type (0, 0), BuildingBlock: CIFDUS_clean_linker_0, # of connection points: 2
#     Edge 42, Type (0, 0), BuildingBlock: CIFDUS_clean_linker_0, # of connection points: 2
#     Edge 43, Type (0, 0), BuildingBlock: CIFDUS_clean_linker_0, # of connection points: 2
#     Edge 44, Type (0, 0), BuildingBlock: CIFDUS_clean_linker_0, # of connection points: 2
#     Edge 45, Type (0, 0), BuildingBlock: CIFDUS_clean_linker_0, # of connection points: 2
#     Edge 46, Type (0, 0), BuildingBlock: CIFDUS_clean_linker_0, # of connection points: 2
#     Edge 47, Type (0, 0), BuildingBlock: CIFDUS_clean_linker_0, # of connection points: 2
#     Edge 48, Type (0, 0), BuildingBlock: CIFDUS_clean_linker_0, # of connection points: 2
#     Edge 49, Type (0, 0), BuildingBlock: CIFDUS_clean_linker_0, # of connection points: 2
#     Edge 50, Type (0, 0), BuildingBlock: CIFDUS_clean_linker_0, # of connection points: 2
#     Edge 51, Type (0, 0), BuildingBlock: CIFDUS_clean_linker_0, # of connection points: 2
#     Edge 52, Type (0, 0), BuildingBlock: CIFDUS_clean_linker_0, # of connection points: 2
#     Edge 53, Type (0, 0), BuildingBlock: CIFDUS_clean_linker_0, # of connection points: 2
#     Edge 54, Type (0, 0), BuildingBlock: CIFDUS_clean_linker_0, # of connection points: 2
#     Edge 55, Type (0, 0), BuildingBlock: CIFDUS_clean_linker_0, # of connection points: 2
#     Edge 56, Type (0, 0), BuildingBlock: CIFDUS_clean_linker_0, # of connection points: 2
#     Edge 57, Type (0, 0), BuildingBlock: CIFDUS_clean_linker_0, # of connection points: 2
#     Edge 58, Type (0, 0), BuildingBlock: CIFDUS_clean_linker_0, # of connection points: 2
#     Edge 59, Type (0, 0), BuildingBlock: CIFDUS_clean_linker_0, # of connection points: 2
#     Edge 60, Type (0, 0), BuildingBlock: CIFDUS_clean_linker_0, # of connection points: 2
#     Edge 61, Type (0, 0), BuildingBlock: CIFDUS_clean_linker_0, # of connection points: 2
#     Edge 62, Type (0, 0), BuildingBlock: CIFDUS_clean_linker_0, # of connection points: 2
#     Edge 63, Type (0, 0), BuildingBlock: CIFDUS_clean_linker_0, # of connection points: 2
#     Edge 64, Type (0, 0), BuildingBlock: CIFDUS_clean_linker_0, # of connection points: 2
#     Edge 65, Type (0, 0), BuildingBlock: CIFDUS_clean_linker_0, # of connection points: 2
#     Edge 66, Type (0, 0), BuildingBlock: CIFDUS_clean_linker_0, # of connection points: 2
#     Edge 67, Type (0, 0), BuildingBlock: CIFDUS_clean_linker_0, # of connection points: 2
#     Edge 68, Type (0, 0), BuildingBlock: CIFDUS_clean_linker_0, # of connection points: 2
#     Edge 69, Type (0, 0), BuildingBlock: CIFDUS_clean_linker_0, # of connection points: 2
#     Edge 70, Type (0, 0), BuildingBlock: CIFDUS_clean_linker_0, # of connection points: 2
#     Edge 71, Type (0, 0), BuildingBlock: CIFDUS_clean_linker_0, # of connection points: 2
#     Edge 72, Type (0, 0), BuildingBlock: CIFDUS_clean_linker_0, # of connection points: 2
#     Edge 73, Type (0, 0), BuildingBlock: CIFDUS_clean_linker_0, # of connection points: 2
#     Edge 74, Type (0, 0), BuildingBlock: CIFDUS_clean_linker_0, # of connection points: 2
#     Edge 75, Type (0, 0), BuildingBlock: CIFDUS_clean_linker_0, # of connection points: 2
#     Edge 76, Type (0, 0), BuildingBlock: CIFDUS_clean_linker_0, # of connection points: 2
#     Edge 77, Type (0, 0), BuildingBlock: CIFDUS_clean_linker_0, # of connection points: 2
#     Edge 78, Type (0, 0), BuildingBlock: CIFDUS_clean_linker_0, # of connection points: 2
#     Edge 79, Type (0, 0), BuildingBlock: CIFDUS_clean_linker_0, # of connection points: 2
#     Edge 80, Type (0, 0), BuildingBlock: CIFDUS_clean_linker_0, # of connection points: 2
#     Edge 81, Type (0, 0), BuildingBlock: CIFDUS_clean_linker_0, # of connection points: 2
#     Edge 82, Type (0, 0), BuildingBlock: CIFDUS_clean_linker_0, # of connection points: 2
#     Edge 83, Type (0, 0), BuildingBlock: CIFDUS_clean_linker_0, # of connection points: 2
#     Edge 84, Type (0, 0), BuildingBlock: CIFDUS_clean_linker_0, # of connection points: 2
#     Edge 85, Type (0, 0), BuildingBlock: CIFDUS_clean_linker_0, # of connection points: 2
#     Edge 86, Type (0, 0), BuildingBlock: CIFDUS_clean_linker_0, # of connection points: 2
#     Edge 87, Type (0, 0), BuildingBlock: CIFDUS_clean_linker_0, # of connection points: 2
#     Edge 88, Type (0, 0), BuildingBlock: CIFDUS_clean_linker_0, # of connection points: 2
#     Edge 89, Type (0, 0), BuildingBlock: CIFDUS_clean_linker_0, # of connection points: 2
#     Edge 90, Type (0, 0), BuildingBlock: CIFDUS_clean_linker_0, # of connection points: 2
#     Edge 91, Type (0, 0), BuildingBlock: CIFDUS_clean_linker_0, # of connection points: 2
#     Edge 92, Type (0, 0), BuildingBlock: CIFDUS_clean_linker_0, # of connection points: 2
#     Edge 93, Type (0, 0), BuildingBlock: CIFDUS_clean_linker_0, # of connection points: 2
#     Edge 94, Type (0, 0), BuildingBlock: CIFDUS_clean_linker_0, # of connection points: 2
#     Edge 95, Type (0, 0), BuildingBlock: CIFDUS_clean_linker_0, # of connection points: 2
# Relax obj value: 0.029
# Max RMSD: 0.075
# Mean RMSD: 0.075
data_MOF--net-vbb--node1-ESEHIV_clean_sbu_0--edge1-CIFDUS_clean_linker_0
_symmetry_space_group_name_H-M    P1
_symmetry_Int_Tables_number       1
_symmetry_cell_setting            triclinic
loop_
_symmetry_equiv_pos_as_xyz
'x, y, z'
_cell_length_a     52.303836
_cell_length_b     31.663828
_cell_length_c     95.940064
_cell_angle_alpha  90.213031
_cell_angle_beta   89.589035
_cell_angle_gamma 90.343047
loop_
_atom_site_label
_atom_site_type_symbol
_atom_site_fract_x
_atom_site_fract_y
_atom_site_fract_z
_atom_type_partial_charge
Cu0 Cu 0.52775 0.01773 0.09069 0.0
N1 N 0.56318 0.02352 0.09315 0.0
N2 N 0.60085 0.05797 0.0931 0.0
C3 C 0.57647 0.05731 0.0885 0.0
C4 C 0.60292 0.02289 0.101 0.0
C5 C 0.57965 1.00179 0.10104 0.0
O6 O 0.51225 0.05397 0.10471 0.0
C7 C 0.53172 0.00858 0.06259 0.0
O8 O 0.54591 0.9775 0.06715 0.0
H9 H 0.56787 0.08213 0.08242 0.0
H10 H 0.57484 0.97365 0.10687 0.0
N11 N 0.51369 0.96361 0.09321 0.0
N12 N 0.48253 0.91491 0.09525 0.0
C13 C 0.4883 0.95612 0.09323 0.0
C14 C 0.52461 0.92581 0.09523 0.0
C15 C 0.50544 0.89571 0.0965 0.0
C16 C 0.51334 0.03954 0.11708 0.0
O17 O 0.52353 1.0022 0.119 0.0
H18 H 0.47439 0.98071 0.09158 0.0
H19 H 0.54497 0.92047 0.09575 0.0
O20 O 0.52096 0.03276 0.07149 0.0
H21 H 0.61986 0.01342 0.10656 0.0
H22 H 0.50826 0.86239 0.09835 0.0
Cu23 Cu 0.78667 0.2637 0.08691 0.0
N24 N 0.75086 0.26135 0.08846 0.0
N25 N 0.71243 0.23012 0.09081 0.0
C26 C 0.73761 0.22842 0.09383 0.0
C27 C 0.7097 0.26597 0.08338 0.0
C28 C 0.73341 0.28511 0.08194 0.0
O29 O 0.80012 0.23531 0.10309 0.0
C30 C 0.7818 0.2233 0.06044 0.0
O31 O 0.762 0.20372 0.06595 0.0
H32 H 0.74663 0.2019 0.09884 0.0
H33 H 0.73786 0.31283 0.07581 0.0
N34 N 0.80084 0.31779 0.08844 0.0
N35 N 0.83266 0.36532 0.09024 0.0
C36 C 0.82622 0.32477 0.08746 0.0
C37 C 0.79058 0.35521 0.09193 0.0
C38 C 0.81016 0.38466 0.09299 0.0
C39 C 0.80148 0.19661 0.10639 0.0
O40 O 0.79592 0.16717 0.0972 0.0
H41 H 0.83968 0.30006 0.08493 0.0
H42 H 0.77048 0.36042 0.09397 0.0
O43 O 0.79653 0.24481 0.06829 0.0
H44 H 0.69203 0.2768 0.07885 0.0
H45 H 0.80798 0.41738 0.09603 0.0
Cu46 Cu 0.52546 0.23355 0.20113 0.0
N47 N 0.56017 0.23422 0.19647 0.0
N48 N 0.59877 0.20663 0.19233 0.0
C49 C 0.57392 0.19865 0.19512 0.0
C50 C 0.6008 0.24917 0.19194 0.0
C51 C 0.57687 0.26615 0.19446 0.0
O52 O 0.51009 0.19238 0.18884 0.0
C53 C 0.53327 0.24493 0.2293 0.0
O54 O 0.54625 0.27726 0.22435 0.0
H55 H 0.5659 0.16741 0.19659 0.0
H56 H 0.57216 0.2993 0.19496 0.0
N57 N 0.50815 0.28384 0.198 0.0
N58 N 0.47336 0.32398 0.19568 0.0
C59 C 0.48297 0.28451 0.19532 0.0
C60 C 0.51501 0.32439 0.20004 0.0
C61 C 0.49358 0.34928 0.19855 0.0
C62 C 0.50978 0.15273 0.19071 0.0
O63 O 0.51801 0.13731 0.20254 0.0
H64 H 0.47185 0.25607 0.19367 0.0
H65 H 0.53382 0.33496 0.20315 0.0
O66 O 0.52219 0.22003 0.22077 0.0
H67 H 0.61826 0.26674 0.18999 0.0
H68 H 0.49278 0.38305 0.20024 0.0
Cu69 Cu 0.79338 0.02857 0.20043 0.0
N70 N 0.75885 0.02873 0.19572 0.0
N71 N 0.72067 0.0589 0.19287 0.0
C72 C 0.74256 0.05858 0.20024 0.0
C73 C 0.7231 0.0271 0.18353 0.0
C74 C 0.74679 0.00872 0.18525 0.0
O75 O 0.81063 0.06512 0.18715 0.0
C76 C 0.78438 0.01851 0.22837 0.0
O77 O 0.7716 0.98647 0.22307 0.0
H78 H 0.74751 0.0814 0.20821 0.0
H79 H 0.75533 0.98475 0.17868 0.0
N80 N 0.8095 0.97692 0.19787 0.0
N81 N 0.84299 0.9342 0.19497 0.0
C82 C 0.83503 0.9743 0.19668 0.0
C83 C 0.80069 0.93703 0.19692 0.0
C84 C 0.82142 0.91045 0.19517 0.0
C85 C 0.80219 0.1003 0.1829 0.0
O86 O 0.78369 0.11894 0.18985 0.0
H87 H 0.84755 1.00155 0.19734 0.0
H88 H 0.78074 0.92795 0.1975 0.0
O89 O 0.79616 0.0434 0.22007 0.0
H90 H 0.70962 0.01969 0.17536 0.0
H91 H 0.82062 0.87646 0.19402 0.0
Cu92 Cu 0.53681 0.99681 0.95106 0.0
N93 N 0.50218 0.99458 0.94681 0.0
N94 N 0.46467 0.96059 0.94494 0.0
C95 C 0.48607 0.96625 0.95256 0.0
C96 C 0.46733 0.98755 0.93411 0.0
C97 C 0.49054 0.00823 0.93525 0.0
O98 O 0.55365 0.95968 0.93793 0.0
C99 C 0.52983 1.00706 0.97928 0.0
O100 O 0.51592 0.03821 0.97452 0.0
H101 H 0.49116 0.94776 0.96156 0.0
H102 H 0.49933 0.0286 0.92754 0.0
N103 N 0.55228 0.04879 0.94785 0.0
N104 N 0.58552 0.09186 0.94407 0.0
C105 C 0.57729 0.05158 0.94477 0.0
C106 C 0.54408 0.08882 0.94914 0.0
C107 C 0.56471 0.11563 0.94686 0.0
C108 C 0.54548 0.92337 0.93442 0.0
O109 O 0.52766 0.90491 0.94199 0.0
H110 H 0.5895 0.02424 0.94376 0.0
H111 H 0.52479 0.0978 0.95195 0.0
O112 O 0.54118 0.98302 0.97056 0.0
H113 H 0.45455 0.98974 0.92533 0.0
H114 H 0.56448 0.14977 0.94742 0.0
Cu115 Cu 0.27381 0.77865 0.95583 0.0
N116 N 0.30846 0.77495 0.95143 0.0
N117 N 0.34747 0.80036 0.94659 0.0
C118 C 0.32213 0.80791 0.94658 0.0
C119 C 0.3498 0.7607 0.95158 0.0
C120 C 0.32564 0.74509 0.95458 0.0
O121 O 0.2609 0.82439 0.94443 0.0
C122 C 0.28649 0.8041 0.98352 0.0
O123 O 0.30531 0.82533 0.97765 0.0
H124 H 0.31371 0.83813 0.94417 0.0
H125 H 0.32105 0.7152 0.95944 0.0
N126 N 0.25523 0.73044 0.95115 0.0
N127 N 0.22041 0.69126 0.9471 0.0
C128 C 0.22956 0.72895 0.95142 0.0
C129 C 0.26283 0.69235 0.94653 0.0
C130 C 0.24131 0.66797 0.94405 0.0
C131 C 0.25991 0.81573 0.93145 0.0
O132 O 0.26615 0.77754 0.9273 0.0
H133 H 0.2179 0.75519 0.95483 0.0
H134 H 0.28251 0.68319 0.9449 0.0
O135 O 0.27011 0.78551 0.97588 0.0
H136 H 0.36767 0.74471 0.95344 0.0
H137 H 0.24111 0.63594 0.94008 0.0
Cu138 Cu 0.52786 0.74786 0.84075 0.0
N139 N 0.4924 0.74907 0.84352 0.0
N140 N 0.45304 0.77631 0.84533 0.0
C141 C 0.47757 0.78308 0.84134 0.0
C142 C 0.45253 0.73628 0.85018 0.0
C143 C 0.47683 0.71969 0.84913 0.0
O144 O 0.54267 0.77672 0.8565 0.0
C145 C 0.52516 0.74954 0.81253 0.0
O146 O 0.51057 0.71705 0.81577 0.0
H147 H 0.4848 0.81237 0.83703 0.0
H148 H 0.48284 0.68889 0.85261 0.0
N149 N 0.54227 0.69403 0.84129 0.0
N150 N 0.57374 0.64656 0.84262 0.0
C151 C 0.56737 0.68777 0.84342 0.0
C152 C 0.53219 0.65544 0.83906 0.0
C153 C 0.55157 0.62604 0.83993 0.0
C154 C 0.54123 0.81558 0.85965 0.0
O155 O 0.5317 0.84242 0.85069 0.0
H156 H 0.58068 0.71328 0.84549 0.0
H157 H 0.51236 0.64916 0.83666 0.0
O158 O 0.53537 0.77065 0.82239 0.0
H159 H 0.436 0.72052 0.85465 0.0
H160 H 0.54953 0.59235 0.83831 0.0
Cu161 Cu 0.27913 0.99042 0.83852 0.0
N162 N 0.3141 0.99161 0.84253 0.0
N163 N 0.35346 0.96529 0.84521 0.0
C164 C 0.32959 0.95834 0.84037 0.0
C165 C 0.35289 1.00479 0.8506 0.0
C166 C 0.32855 0.02085 0.849 0.0
O167 O 0.26467 0.94832 0.85097 0.0
C168 C 0.28618 1.00345 0.81045 0.0
O169 O 0.29845 0.03616 0.81565 0.0
H170 H 0.32323 0.92934 0.83546 0.0
H171 H 0.32173 0.05105 0.85271 0.0
N172 N 0.26157 0.04091 0.84184 0.0
N173 N 0.22768 0.08308 0.84475 0.0
C174 C 0.23607 0.04291 0.84379 0.0
C175 C 0.26974 0.08127 0.84152 0.0
C176 C 0.24887 0.10737 0.84333 0.0
C177 C 0.26431 0.9586 0.86383 0.0
O178 O 0.27234 0.9965 0.86741 0.0
H179 H 0.22381 0.01525 0.84397 0.0
H180 H 0.28931 0.0911 0.83971 0.0
O181 O 0.27572 0.97727 0.81882 0.0
H182 H 0.36862 0.02048 0.85578 0.0
H183 H 0.24928 0.14154 0.84345 0.0
Cu184 Cu 0.53251 0.49839 0.59142 0.0
N185 N 0.56684 0.49574 0.59651 0.0
N186 N 0.60627 0.52104 0.60034 0.0
C187 C 0.58113 0.53012 0.59945 0.0
C188 C 0.60775 0.47904 0.59794 0.0
C189 C 0.58344 0.4636 0.59546 0.0
O190 O 0.51897 0.54686 0.60135 0.0
C191 C 0.51349 0.50809 0.56352 0.0
O192 O 0.49077 0.51312 0.56918 0.0
H193 H 0.57321 0.56151 0.60034 0.0
H194 H 0.57851 0.43184 0.59224 0.0
N195 N 0.51349 0.45031 0.59639 0.0
N196 N 0.47953 0.40789 0.59964 0.0
C197 C 0.48797 0.4459 0.5951 0.0
C198 C 0.52154 0.41402 0.60208 0.0
C199 C 0.50069 0.38777 0.60405 0.0
C200 C 0.51678 0.54225 0.6145 0.0
O201 O 0.52143 0.50498 0.61986 0.0
H202 H 0.47587 0.4701 0.59083 0.0
H203 H 0.5411 0.4072 0.60476 0.0
O204 O 0.53283 0.50364 0.5713 0.0
H205 H 0.62528 0.46116 0.59714 0.0
H206 H 0.5011 0.35653 0.60857 0.0
Cu207 Cu 0.78562 0.72444 0.59458 0.0
N208 N 0.75016 0.72822 0.59696 0.0
N209 N 0.70967 0.70547 0.59882 0.0
C210 C 0.73447 0.6944 0.59754 0.0
C211 C 0.70984 0.74817 0.59902 0.0
C212 C 0.73485 0.76211 0.59787 0.0
O213 O 0.79758 0.68187 0.60762 0.0
C214 C 0.78455 0.74238 0.56666 0.0
O215 O 0.7744 0.77655 0.57214 0.0
H216 H 0.74121 0.66226 0.59664 0.0
H217 H 0.74132 0.79458 0.59751 0.0
N218 N 0.80369 0.77379 0.599 0.0
N219 N 0.83811 0.81569 0.60126 0.0
C220 C 0.82841 0.78003 0.59554 0.0
C221 C 0.79734 0.80663 0.60723 0.0
C222 C 0.8185 0.83268 0.60858 0.0
C223 C 0.78976 0.68715 0.62014 0.0
O224 O 0.77426 0.71871 0.62282 0.0
H225 H 0.83915 0.75812 0.58914 0.0
H226 H 0.77902 0.81049 0.61236 0.0
O227 O 0.79172 0.71309 0.57484 0.0
H228 H 0.69312 0.768 0.5999 0.0
H229 H 0.8196 0.86091 0.61494 0.0
Cu230 Cu 0.53804 0.75009 0.70084 0.0
N231 N 0.57316 0.75607 0.69762 0.0
N232 N 0.6136 0.73569 0.69408 0.0
C233 C 0.58876 0.72385 0.69427 0.0
C234 C 0.61361 0.77717 0.69742 0.0
C235 C 0.58861 0.78966 0.6996 0.0
O236 O 0.52632 0.704 0.68914 0.0
C237 C 0.53867 0.76485 0.72962 0.0
O238 O 0.54893 0.80086 0.72565 0.0
H239 H 0.58201 0.69183 0.69267 0.0
H240 H 0.58227 0.82065 0.70283 0.0
N241 N 0.51893 0.79762 0.69632 0.0
N242 N 0.48387 0.83631 0.69289 0.0
C243 C 0.4934 0.7999 0.69792 0.0
C244 C 0.52601 0.83384 0.69008 0.0
C245 C 0.50442 0.85787 0.68799 0.0
C246 C 0.52537 0.71002 0.67604 0.0
O247 O 0.53174 0.74729 0.67108 0.0
H248 H 0.4821 0.77493 0.7026 0.0
H249 H 0.54534 0.8417 0.68691 0.0
O250 O 0.53242 0.73772 0.72039 0.0
H251 H 0.63045 0.79694 0.69842 0.0
H252 H 0.50387 0.8882 0.68285 0.0
Cu253 Cu 0.80794 0.55248 0.70639 0.0
N254 N 0.77805 0.56847 0.69729 0.0
N255 N 0.74176 0.60283 0.6928 0.0
C256 C 0.76063 0.59622 0.70209 0.0
C257 C 0.74744 0.57776 0.6818 0.0
C258 C 0.76984 0.55666 0.68459 0.0
O259 O 0.83614 0.59204 0.70342 0.0
C260 C 0.7903 0.52082 0.73288 0.0
O261 O 0.78128 0.48842 0.72584 0.0
H262 H 0.76204 0.61165 0.71214 0.0
H263 H 0.77982 0.53515 0.6777 0.0
N264 N 0.81988 0.50003 0.70041 0.0
N265 N 0.84785 0.44818 0.69629 0.0
C266 C 0.84447 0.488 0.70102 0.0
C267 C 0.80707 0.46677 0.69512 0.0
C268 C 0.82428 0.43467 0.69257 0.0
C269 C 0.84268 0.61438 0.69294 0.0
O270 O 0.86456 0.63488 0.69334 0.0
H271 H 0.85948 0.50795 0.70517 0.0
H272 H 0.78668 0.46582 0.69334 0.0
O273 O 0.80166 0.55066 0.72639 0.0
H274 H 0.7367 0.57587 0.67222 0.0
H275 H 0.81977 0.40393 0.68825 0.0
Cu276 Cu 0.53354 0.48442 0.45582 0.0
N277 N 0.49948 0.48542 0.45025 0.0
N278 N 0.46025 0.45895 0.44678 0.0
C279 C 0.48319 0.45329 0.45282 0.0
C280 C 0.46223 0.49651 0.44017 0.0
C281 C 0.48655 0.51266 0.44227 0.0
O282 O 0.54902 0.43998 0.44476 0.0
C283 C 0.55243 0.47547 0.48346 0.0
O284 O 0.57523 0.47917 0.47775 0.0
H285 H 0.48832 0.42605 0.45895 0.0
H286 H 0.49442 0.5415 0.43797 0.0
N287 N 0.55176 0.53456 0.45272 0.0
N288 N 0.58629 0.57647 0.45107 0.0
C289 C 0.57737 0.53637 0.45136 0.0
C290 C 0.54399 0.57496 0.45321 0.0
C291 C 0.56527 0.60093 0.45212 0.0
C292 C 0.55173 0.44827 0.43185 0.0
O293 O 0.54584 0.48623 0.42746 0.0
H294 H 0.58923 0.50852 0.45097 0.0
H295 H 0.52444 0.58481 0.45486 0.0
O296 O 0.53284 0.47417 0.47571 0.0
H297 H 0.44749 0.51073 0.43391 0.0
H298 H 0.56531 0.63506 0.45277 0.0
Cu299 Cu 0.28046 0.26194 0.45327 0.0
N300 N 0.31574 0.254 0.45456 0.0
N301 N 0.35654 0.27599 0.45425 0.0
C302 C 0.33276 0.28183 0.44926 0.0
C303 C 0.35446 0.24244 0.46286 0.0
C304 C 0.32922 0.22917 0.46313 0.0
O305 O 0.27718 0.29627 0.43669 0.0
C306 C 0.28369 0.30702 0.47884 0.0
O307 O 0.30431 0.32446 0.47343 0.0
H308 H 0.32734 0.30771 0.4426 0.0
H309 H 0.321 0.20547 0.46993 0.0
N310 N 0.26195 0.21175 0.45086 0.0
N311 N 0.22694 0.17126 0.44889 0.0
C312 C 0.23727 0.20992 0.44695 0.0
C313 C 0.26747 0.17271 0.45541 0.0
C314 C 0.24586 0.14763 0.45423 0.0
C315 C 0.25848 0.31227 0.43021 0.0
O316 O 0.23544 0.31151 0.43573 0.0
H317 H 0.22646 0.23716 0.4438 0.0
H318 H 0.2854 0.16373 0.46005 0.0
O319 O 0.26918 0.28487 0.47108 0.0
H320 H 0.36961 0.2304 0.46933 0.0
H321 H 0.24395 0.11508 0.4575 0.0
Cu322 Cu 0.53584 0.26367 0.34081 0.0
N323 N 0.50058 0.26565 0.34393 0.0
N324 N 0.46219 0.29548 0.34668 0.0
C325 C 0.48775 0.30153 0.34665 0.0
C326 C 0.45882 0.25396 0.34391 0.0
C327 C 0.48255 0.23564 0.3422 0.0
O328 O 0.55068 0.30612 0.35297 0.0
C329 C 0.53377 0.24662 0.31264 0.0
O330 O 0.52249 0.2126 0.31759 0.0
H331 H 0.49704 0.33196 0.34784 0.0
H332 H 0.48629 0.20319 0.33935 0.0
N333 N 0.55064 0.2118 0.34507 0.0
N334 N 0.58166 0.16435 0.34787 0.0
C335 C 0.57565 0.20338 0.34338 0.0
C336 C 0.5403 0.17695 0.35084 0.0
C337 C 0.5594 0.14752 0.35253 0.0
C338 C 0.55101 0.29747 0.36593 0.0
O339 O 0.54275 0.26023 0.37002 0.0
H340 H 0.58913 0.22569 0.33893 0.0
H341 H 0.52047 0.17348 0.35389 0.0
O342 O 0.54185 0.27449 0.32117 0.0
H343 H 0.44054 0.23809 0.3429 0.0
H344 H 0.55716 0.11663 0.35719 0.0
Cu345 Cu 0.2707 0.47867 0.33801 0.0
N346 N 0.30495 0.47987 0.34343 0.0
N347 N 0.34363 0.45075 0.34566 0.0
C348 C 0.32309 0.4559 0.33737 0.0
C349 C 0.33849 0.47389 0.35719 0.0
C350 C 0.31456 0.49158 0.35582 0.0
O351 O 0.25383 0.4342 0.34862 0.0
C352 C 0.27738 0.5048 0.31096 0.0
O353 O 0.28579 0.53797 0.31785 0.0
H354 H 0.32002 0.43918 0.32767 0.0
H355 H 0.30392 0.50808 0.36385 0.0
N356 N 0.25284 0.5272 0.3429 0.0
N357 N 0.2184 0.56728 0.3465 0.0
C358 C 0.22719 0.52905 0.34262 0.0
C359 C 0.26079 0.56559 0.34714 0.0
C360 C 0.2395 0.59056 0.34932 0.0
C361 C 0.26536 0.40105 0.35247 0.0
O362 O 0.28713 0.39109 0.34644 0.0
H363 H 0.21528 0.50285 0.33933 0.0
H364 H 0.28058 0.57478 0.34848 0.0
O365 O 0.26942 0.47288 0.31784 0.0
H366 H 0.35 0.4746 0.36652 0.0
H367 H 0.23958 0.6231 0.35281 0.0
Cu368 Cu 1.02216 0.02574 0.5875 0.0
N369 N 0.05707 0.02885 0.59157 0.0
N370 N 0.0944 0.06289 0.59421 0.0
C371 C 0.0687 0.066 0.59425 0.0
C372 C 0.09919 0.02167 0.5917 0.0
C373 C 0.07608 1.00074 0.58998 0.0
O374 O 1.00733 0.0717 0.59849 0.0
C375 C 0.03424 0.04593 0.55901 0.0
O376 O 0.05263 0.0693 0.56428 0.0
H377 H 0.05839 0.09539 0.59533 0.0
H378 H 0.07346 0.96817 0.58685 0.0
N379 N 1.00582 0.97583 0.59311 0.0
N380 N 0.97291 0.93244 0.59779 0.0
C381 C 0.98022 0.97159 0.59382 0.0
C382 C 1.01523 0.93802 0.59674 0.0
C383 C 0.99493 0.91112 0.59961 0.0
C384 C 1.00683 0.06517 0.61163 0.0
O385 O 1.01398 0.02807 0.61624 0.0
H386 H 0.96722 0.99675 0.59118 0.0
H387 H 0.03533 0.93047 0.59722 0.0
O388 O 1.01818 0.02827 0.56722 0.0
H389 H 0.118 0.00825 0.5902 0.0
H390 H 0.99634 0.87856 0.6029 0.0
Cu391 Cu 0.2818 0.2618 0.58676 0.0
N392 N 0.24714 0.25909 0.59164 0.0
N393 N 0.20941 0.22767 0.596 0.0
C394 C 0.23499 0.2228 0.59493 0.0
C395 C 0.20541 0.26906 0.5934 0.0
C396 C 0.2287 0.2883 0.59067 0.0
O397 O 0.29769 0.21605 0.59695 0.0
C398 C 0.26917 0.2394 0.55874 0.0
O399 O 0.25138 0.21558 0.56446 0.0
H400 H 0.2447 0.1928 0.59555 0.0
H401 H 0.2318 0.32072 0.58755 0.0
N402 N 0.29817 0.31177 0.59222 0.0
N403 N 0.33095 0.35559 0.59652 0.0
C404 C 0.32364 0.31764 0.5914 0.0
C405 C 0.28884 0.34724 0.59803 0.0
C406 C 0.30903 0.37442 0.60066 0.0
C407 C 0.299 0.22211 0.61008 0.0
O408 O 0.29107 0.25831 0.6152 0.0
H409 H 0.3365 0.29427 0.58709 0.0
H410 H 0.2689 0.35269 0.60043 0.0
O411 O 0.28501 0.2588 0.56653 0.0
H412 H 0.18695 0.28425 0.59307 0.0
H413 H 0.30768 0.40519 0.60555 0.0
Cu414 Cu 1.02951 0.25099 0.70283 0.0
N415 N 0.06469 0.24469 0.69999 0.0
N416 N 0.1018 0.21046 0.69762 0.0
C417 C 0.07612 0.2069 0.69862 0.0
C418 C 0.10671 0.25233 0.69837 0.0
C419 C 0.08378 0.27336 0.69992 0.0
O420 O 1.01344 0.2095 0.69053 0.0
C421 C 0.03254 0.26931 0.73117 0.0
O422 O 0.04586 0.3011 0.72609 0.0
H423 H 0.06569 0.17727 0.69854 0.0
H424 H 0.08137 0.30696 0.70138 0.0
N425 N 1.01711 0.30429 0.69805 0.0
N426 N 0.98859 0.35575 0.6949 0.0
C427 C 0.99284 0.3169 0.70015 0.0
C428 C 1.02871 0.33616 0.6912 0.0
C429 C 1.0112 0.36802 0.6893 0.0
C430 C 1.01436 0.2172 0.67747 0.0
O431 O 1.02458 0.25301 0.6733 0.0
H432 H 0.97857 0.29766 0.70537 0.0
H433 H 0.04823 0.33581 0.68744 0.0
O434 O 1.02288 0.24251 0.72269 0.0
H435 H 0.12556 0.26664 0.69837 0.0
H436 H 1.01468 0.39733 0.68382 0.0
Cu437 Cu 0.29297 0.0285 0.69898 0.0
N438 N 0.25799 0.02638 0.69526 0.0
N439 N 0.2191 0.05369 0.69205 0.0
C440 C 0.24443 0.06151 0.69281 0.0
C441 C 0.21662 0.01165 0.6941 0.0
C442 C 0.24069 0.99485 0.69607 0.0
O443 O 0.30624 0.07338 0.6872 0.0
C444 C 0.28892 0.01061 0.72707 0.0
O445 O 0.27896 0.97597 0.72177 0.0
H446 H 0.25302 0.09266 0.69237 0.0
H447 H 0.24509 0.96237 0.69849 0.0
N448 N 0.31123 0.97965 0.69464 0.0
N449 N 0.34598 0.93968 0.6916 0.0
C450 C 0.33677 0.97734 0.69586 0.0
C451 C 0.30377 0.94208 0.68945 0.0
C452 C 0.32521 0.91723 0.6876 0.0
C453 C 0.30663 0.06562 0.67415 0.0
O454 O 0.29988 0.02776 0.66983 0.0
H455 H 0.34832 1.00308 0.69985 0.0
H456 H 0.28428 0.93359 0.68695 0.0
O457 O 0.29688 0.03931 0.7188 0.0
H458 H 0.19871 0.99438 0.69444 0.0
H459 H 0.32549 0.88556 0.68332 0.0
Cu460 Cu 1.03066 1.00034 0.45287 0.0
N461 N 0.99523 1.00465 0.45054 0.0
N462 N 0.95448 0.98301 0.44842 0.0
C463 C 0.97937 0.97169 0.44825 0.0
C464 C 0.95491 0.02525 0.45065 0.0
C465 C 0.98001 0.03842 0.45198 0.0
O466 O 0.04399 0.96905 0.43691 0.0
C467 C 1.02179 0.96451 0.48009 0.0
O468 O 1.00089 0.94781 0.4749 0.0
H469 H 0.9861 0.93963 0.44732 0.0
H470 H 0.9866 0.07009 0.45429 0.0
N471 N 0.04777 0.05195 0.45149 0.0
N472 N 0.08253 0.09357 0.45166 0.0
C473 C 0.07187 0.05697 0.45602 0.0
C474 C 0.04277 0.08662 0.44395 0.0
C475 C 0.0642 0.1125 0.44408 0.0
C476 C 0.04112 0.93078 0.43316 0.0
O477 O 1.03052 0.90351 0.44174 0.0
H478 H 0.08199 0.03256 0.46155 0.0
H479 H 1.02543 0.09161 0.43812 0.0
O480 O 0.03795 0.98208 0.47192 0.0
H481 H 0.93836 0.04539 0.45159 0.0
H482 H 0.06635 0.14215 0.43861 0.0
Cu483 Cu 0.77607 0.77573 0.45539 0.0
N484 N 0.81048 0.77385 0.45009 0.0
N485 N 0.84974 0.79975 0.44581 0.0
C486 C 0.82735 0.80514 0.45271 0.0
C487 C 0.84673 0.76326 0.43862 0.0
C488 C 0.82247 0.74754 0.44121 0.0
O489 O 0.76156 0.82016 0.444 0.0
C490 C 0.78422 0.75858 0.48333 0.0
O491 O 0.79551 0.72578 0.47761 0.0
H492 H 0.8228 0.83204 0.45923 0.0
H493 H 0.81377 0.72022 0.43634 0.0
N494 N 0.75788 0.72586 0.45178 0.0
N495 N 0.72392 0.68346 0.44885 0.0
C496 C 0.73228 0.72359 0.45053 0.0
C497 C 0.76613 0.68578 0.45089 0.0
C498 C 0.74522 0.65954 0.44907 0.0
C499 C 0.75933 0.81173 0.43105 0.0
O500 O 0.76517 0.77363 0.42664 0.0
H501 H 0.71999 0.75088 0.45131 0.0
H502 H 0.78585 0.6762 0.45181 0.0
O503 O 0.77424 0.78611 0.47539 0.0
H504 H 0.86051 0.74989 0.43141 0.0
H505 H 0.74571 0.6255 0.44806 0.0
Cu506 Cu 1.03138 0.76352 0.33731 0.0
N507 N 0.99604 0.76211 0.34027 0.0
N508 N 0.95703 0.78859 0.34407 0.0
C509 C 0.98245 0.79513 0.34506 0.0
C510 C 0.95451 0.74947 0.33855 0.0
C511 C 0.97866 0.73317 0.33623 0.0
O512 O 0.04603 0.79653 0.35248 0.0
C513 C 1.0222 0.79275 0.30956 0.0
O514 O 1.00074 0.80769 0.3147 0.0
H515 H 0.99105 0.82468 0.34822 0.0
H516 H 0.98321 0.70336 0.33129 0.0
N517 N 0.04665 0.7114 0.33985 0.0
N518 N 0.08078 0.67021 0.34276 0.0
C519 C 0.07157 0.70575 0.33698 0.0
C520 C 0.03948 0.67805 0.34762 0.0
C521 C 0.06052 0.65231 0.34934 0.0
C522 C 0.04434 0.83528 0.35588 0.0
O523 O 0.03474 0.86246 0.34706 0.0
H524 H 0.08298 0.72893 0.33145 0.0
H525 H 1.02095 0.6744 0.35256 0.0
O526 O 0.03886 0.77799 0.31784 0.0
H527 H 0.93659 0.73428 0.33592 0.0
H528 H 0.06121 0.62436 0.35577 0.0
Cu529 Cu 0.77214 0.99505 0.33971 0.0
N530 N 0.80726 0.98942 0.3424 0.0
N531 N 0.84416 0.95423 0.34322 0.0
C532 C 0.81872 0.95166 0.34122 0.0
C533 C 0.84897 0.99544 0.34582 0.0
C534 C 0.82614 0.0172 0.34522 0.0
O535 O 0.75669 0.9529 0.35189 0.0
C536 C 0.77687 0.0125 0.31173 0.0
O537 O 0.79015 0.04377 0.31716 0.0
H538 H 0.80844 0.92273 0.33892 0.0
H539 H 0.82373 0.05084 0.34644 0.0
N540 N 0.75816 0.04748 0.34441 0.0
N541 N 0.7272 0.09511 0.34759 0.0
C542 C 0.73337 0.05671 0.34247 0.0
C543 C 0.76818 0.08125 0.35101 0.0
C544 C 0.74914 0.11078 0.35292 0.0
C545 C 0.75765 0.96115 0.36491 0.0
O546 O 0.76707 0.99778 0.36888 0.0
H547 H 0.72009 0.03523 0.33748 0.0
H548 H 0.78761 0.08379 0.35464 0.0
O549 O 0.7663 0.98587 0.31993 0.0
H550 H 0.8677 0.00905 0.34762 0.0
H551 H 0.75112 0.14076 0.35827 0.0
Cu552 Cu 1.02944 0.52477 0.08999 0.0
N553 N 0.06505 0.52329 0.09257 0.0
N554 N 0.10507 0.54788 0.09536 0.0
C555 C 0.07985 0.557 0.09577 0.0
C556 C 0.10612 0.50648 0.09193 0.0
C557 C 0.08146 0.49149 0.09016 0.0
O558 O 1.01575 0.56092 0.10467 0.0
C559 C 0.03876 0.55276 0.06196 0.0
O560 O 0.06001 0.56897 0.06691 0.0
H561 H 0.07226 0.588 0.09794 0.0
H562 H 0.07596 0.46011 0.08679 0.0
N563 N 1.01313 0.47294 0.09316 0.0
N564 N 0.98025 0.42734 0.09487 0.0
C565 C 0.98831 0.4655 0.09026 0.0
C566 C 1.02122 0.43838 0.09987 0.0
C567 C 1.00104 0.41013 0.10088 0.0
C568 C 1.01769 0.60068 0.10622 0.0
O569 O 1.02686 0.62381 0.09598 0.0
H570 H 0.97636 0.4882 0.08504 0.0
H571 H 0.04013 0.43458 0.10416 0.0
O572 O 1.0222 0.53756 0.07042 0.0
H573 H 0.12347 0.48873 0.09018 0.0
H574 H 1.00149 0.37995 0.10612 0.0
Cu575 Cu 0.28495 0.75412 0.09083 0.0
N576 N 0.24954 0.75632 0.09414 0.0
N577 N 0.20905 0.73273 0.09614 0.0
C578 C 0.2341 0.72225 0.09557 0.0
C579 C 0.20895 0.77538 0.09524 0.0
C580 C 0.23384 0.78973 0.09394 0.0
O581 O 0.29727 0.70692 0.10171 0.0
C582 C 0.2766 0.72724 0.06278 0.0
O583 O 0.25983 0.70099 0.06825 0.0
H584 H 0.24119 0.69024 0.0954 0.0
H585 H 0.23994 0.82208 0.09242 0.0
N586 N 0.30279 0.80268 0.09661 0.0
N587 N 0.33581 0.84707 0.1 0.0
C588 C 0.32776 0.81061 0.09401 0.0
C589 C 0.29468 0.83513 0.10452 0.0
C590 C 0.31493 0.86252 0.10661 0.0
C591 C 0.29656 0.71256 0.11487 0.0
O592 O 0.2889 0.74924 0.11973 0.0
H593 H 0.33971 0.78988 0.08783 0.0
H594 H 0.27558 0.83819 0.10877 0.0
O595 O 0.29044 0.7497 0.07079 0.0
H596 H 0.19213 0.79508 0.09518 0.0
H597 H 0.31436 0.89107 0.11283 0.0
Cu598 Cu 0.03265 0.742 0.20232 0.0
N599 N 0.06784 0.74463 0.19891 0.0
N600 N 0.10739 0.71974 0.19562 0.0
C601 C 0.08214 0.71083 0.19559 0.0
C602 C 0.10902 0.76126 0.19882 0.0
C603 C 0.08454 0.77651 0.2009 0.0
O604 O 1.01839 0.70431 0.18827 0.0
C605 C 0.04319 0.71668 0.23042 0.0
O606 O 0.06437 0.70087 0.22523 0.0
H607 H 0.07416 0.6798 0.19374 0.0
H608 H 0.07938 0.80799 0.20426 0.0
N609 N 1.01614 0.79257 0.19879 0.0
N610 N 0.98125 0.83234 0.19629 0.0
C611 C 0.99181 0.79905 0.2028 0.0
C612 C 1.02154 0.823 0.18948 0.0
C613 C 1.00008 0.84783 0.18799 0.0
C614 C 1.02007 0.66452 0.18681 0.0
O615 O 1.02968 0.64174 0.1969 0.0
H616 H 0.98173 0.7779 0.20978 0.0
H617 H 0.03906 0.82504 0.18345 0.0
O618 O 1.02631 0.73086 0.22216 0.0
H619 H 0.12661 0.77881 0.2003 0.0
H620 H 0.99806 0.87336 0.18062 0.0
Cu621 Cu 0.28143 0.50984 0.20199 0.0
N622 N 0.24645 0.50671 0.19845 0.0
N623 N 0.20662 0.53114 0.19612 0.0
C624 C 0.23168 0.54111 0.19712 0.0
C625 C 0.20571 0.48851 0.19684 0.0
C626 C 0.23027 0.47357 0.19836 0.0
O627 O 0.29408 0.55738 0.19119 0.0
C628 C 0.28236 0.54897 0.22893 0.0
O629 O 0.2778 0.58443 0.22236 0.0
H630 H 0.23923 0.57296 0.19762 0.0
H631 H 0.2357 0.44107 0.19989 0.0
N632 N 0.3001 0.46255 0.19643 0.0
N633 N 0.33499 0.42398 0.19229 0.0
C634 C 0.32579 0.46141 0.19672 0.0
C635 C 0.29266 0.42452 0.19157 0.0
C636 C 0.3142 0.40052 0.18907 0.0
C637 C 0.29468 0.55143 0.17804 0.0
O638 O 0.28801 0.5142 0.17312 0.0
H639 H 0.33746 0.48749 0.20036 0.0
H640 H 0.27309 0.41485 0.18987 0.0
O641 O 0.28541 0.51515 0.22198 0.0
H642 H 0.18852 0.46934 0.19662 0.0
H643 H 0.31454 0.36853 0.18505 0.0
Cu644 Cu 1.03 0.49896 0.95486 0.0
N645 N 0.99508 0.50136 0.95114 0.0
N646 N 0.95581 0.4763 0.94695 0.0
C647 C 0.98104 0.46782 0.94711 0.0
C648 C 0.95394 0.51724 0.95082 0.0
C649 C 0.97824 0.53259 0.95346 0.0
O650 O 0.04483 0.46057 0.94117 0.0
C651 C 1.01797 0.47545 0.98305 0.0
O652 O 0.99664 0.4602 0.97788 0.0
H653 H 0.98916 0.43728 0.94482 0.0
H654 H 0.98316 0.56361 0.95741 0.0
N655 N 0.04688 0.54937 0.95113 0.0
N656 N 0.08169 0.58943 0.94784 0.0
C657 C 0.07201 0.55382 0.9535 0.0
C658 C 0.04009 0.58353 0.94377 0.0
C659 C 0.06158 0.60858 0.94181 0.0
C660 C 0.04306 0.4207 0.93989 0.0
O661 O 0.03271 0.39828 0.94998 0.0
H662 H 0.0831 0.53022 0.95885 0.0
H663 H 1.0213 0.58867 0.93948 0.0
O664 O 0.03539 0.48877 0.97477 0.0
H665 H 0.93624 0.53421 0.95238 0.0
H666 H 0.06258 0.63731 0.93575 0.0
Cu667 Cu 0.78082 0.2681 0.95311 0.0
N668 N 0.81555 0.26507 0.9487 0.0
N669 N 0.8556 0.28791 0.94503 0.0
C670 C 0.83087 0.29882 0.94672 0.0
C671 C 0.8557 0.24526 0.94576 0.0
C672 C 0.83095 0.23128 0.94802 0.0
O673 O 0.76546 0.30697 0.94011 0.0
C674 C 0.79247 0.29671 0.98083 0.0
O675 O 0.81132 0.31802 0.97505 0.0
H676 H 0.8241 0.33093 0.94739 0.0
H677 H 0.82475 0.19896 0.94952 0.0
N678 N 0.76352 0.21821 0.94926 0.0
N679 N 0.72731 0.18115 0.94656 0.0
C680 C 0.7396 0.21137 0.95394 0.0
C681 C 0.76691 0.1911 0.93861 0.0
C682 C 0.74467 0.16792 0.93699 0.0
C683 C 0.76757 0.34669 0.93871 0.0
O684 O 0.77922 0.36922 0.9483 0.0
H685 H 0.73094 0.23089 0.96192 0.0
H686 H 0.78335 0.19099 0.93171 0.0
O687 O 0.77637 0.27765 0.9731 0.0
H688 H 0.87246 0.22549 0.94506 0.0
H689 H 0.74104 0.14569 0.92864 0.0
Cu690 Cu 0.03821 0.28012 0.84298 0.0
N691 N 1.00294 0.27882 0.84641 0.0
N692 N 0.96396 0.3068 0.84903 0.0
C693 C 0.98815 0.31291 0.84447 0.0
C694 C 0.96336 0.26684 0.8539 0.0
C695 C 0.98754 0.24972 0.85236 0.0
O696 O 0.05225 0.31539 0.85778 0.0
C697 C 0.03236 0.27335 0.8148 0.0
O698 O 1.01967 0.24035 0.81951 0.0
H699 H 0.99522 0.3421 0.84003 0.0
H700 H 0.9936 0.21899 0.85587 0.0
N701 N 0.05534 0.22869 0.84454 0.0
N702 N 0.08963 0.18655 0.84449 0.0
C703 C 0.08103 0.22666 0.8442 0.0
C704 C 0.04716 0.18834 0.84507 0.0
C705 C 0.06832 0.16224 0.84512 0.0
C706 C 0.04865 0.35469 0.8596 0.0
O707 O 0.03796 0.37683 0.84969 0.0
H708 H 0.09315 0.25442 0.84362 0.0
H709 H 1.02735 0.17847 0.845 0.0
O710 O 0.04289 0.29809 0.82365 0.0
H711 H 0.947 0.25181 0.85881 0.0
H712 H 0.06798 0.12806 0.84512 0.0
Cu713 Cu 0.76721 0.48336 0.84319 0.0
N714 N 0.80208 0.48142 0.84739 0.0
N715 N 0.84044 0.45128 0.84976 0.0
C716 C 0.81741 0.44937 0.84351 0.0
C717 C 0.83968 0.4864 0.85778 0.0
C718 C 0.8159 0.50474 0.85639 0.0
O719 O 0.75073 0.44698 0.85679 0.0
C720 C 0.77511 0.49625 0.81563 0.0
O721 O 0.78752 0.52759 0.8216 0.0
H722 H 0.81135 0.42418 0.83662 0.0
H723 H 0.80876 0.53163 0.86216 0.0
N724 N 0.75206 0.53616 0.84578 0.0
N725 N 0.72038 0.58343 0.84648 0.0
C726 C 0.72668 0.54237 0.84492 0.0
C727 C 0.76238 0.5746 0.84796 0.0
C728 C 0.74287 0.60385 0.8484 0.0
C729 C 0.75638 0.40855 0.85881 0.0
O730 O 0.77015 0.38833 0.84947 0.0
H731 H 0.71321 0.51717 0.84273 0.0
H732 H 0.78261 0.58111 0.84886 0.0
O733 O 0.76373 0.46948 0.82345 0.0
H734 H 0.85463 0.49668 0.86479 0.0
H735 H 0.74516 0.63751 0.84997 0.0
H736 H 0.51086 0.01382 0.14391 0.0
H737 H 0.50031 0.1234 0.11798 0.0
H738 H 0.49502 0.16747 0.13881 0.0
H739 H 0.49826 0.17584 0.16419 0.0
H740 H 0.51088 0.06639 0.18994 0.0
H741 H 0.51017 0.02114 0.16929 0.0
C742 C 0.50713 0.04729 0.14277 0.0
C743 C 0.50635 0.06542 0.1294 0.0
C744 C 0.50462 0.07244 0.15475 0.0
C745 C 0.50115 0.1087 0.12814 0.0
C746 C 0.49822 0.13391 0.14005 0.0
C747 C 0.50048 0.142 0.16534 0.0
C748 C 0.50495 0.12462 0.17861 0.0
C749 C 0.50065 0.11629 0.15339 0.0
C750 C 0.50759 0.08068 0.17987 0.0
C751 C 0.50728 0.05478 0.16805 0.0
H752 H 0.79597 0.17831 0.17173 0.0
H753 H 0.82205 0.05278 0.16167 0.0
H754 H 0.82516 0.07149 0.13706 0.0
H755 H 0.81669 0.12188 0.11801 0.0
H756 H 0.79274 0.24839 0.1285 0.0
H757 H 0.79273 0.23096 0.15314 0.0
C758 C 0.80275 0.15529 0.16418 0.0
C759 C 0.80854 0.1142 0.16854 0.0
C760 C 0.80464 0.16627 0.15002 0.0
C761 C 0.8175 0.08477 0.15863 0.0
C762 C 0.81911 0.09531 0.14451 0.0
C763 C 0.81175 0.14568 0.12571 0.0
C764 C 0.8045 0.18619 0.12135 0.0
C765 C 0.81212 0.13568 0.14002 0.0
C766 C 0.79842 0.21688 0.1315 0.0
C767 C 0.79831 0.20696 0.14565 0.0
H768 H 0.55488 0.89315 0.86975 0.0
H769 H 0.53685 0.7658 0.88249 0.0
H770 H 0.53844 0.78694 0.9069 0.0
H771 H 0.54113 0.84296 0.92464 0.0
H772 H 0.56174 0.96944 0.9121 0.0
H773 H 0.56337 0.94721 0.88776 0.0
C774 C 0.55162 0.87003 0.87789 0.0
C775 C 0.54551 0.82817 0.8743 0.0
C776 C 0.55297 0.8822 0.89199 0.0
C777 C 0.54162 0.79831 0.88496 0.0
C778 C 0.54241 0.81036 0.89895 0.0
C779 C 0.54641 0.86542 0.91659 0.0
C780 C 0.55105 0.90777 0.92018 0.0
C781 C 0.54754 0.8524 0.90258 0.0
C782 C 0.55811 0.93653 0.90965 0.0
C783 C 0.55887 0.92396 0.89569 0.0
H784 H 0.26054 0.97308 0.89168 0.0
H785 H 0.25412 0.87415 0.86077 0.0
H786 H 0.24936 0.82169 0.87924 0.0
H787 H 0.25131 0.80339 0.90398 0.0
H788 H 0.25913 0.90179 0.93494 0.0
H789 H 0.25868 0.95524 0.91657 0.0
C790 C 0.25783 0.94009 0.88895 0.0
C791 C 0.25802 0.92749 0.87484 0.0
C792 C 0.25546 0.91007 0.89962 0.0
C793 C 0.25419 0.88469 0.87152 0.0
C794 C 0.25154 0.85467 0.88209 0.0
C795 C 0.25263 0.83657 0.90675 0.0
C796 C 0.25555 0.84859 0.92081 0.0
C797 C 0.25281 0.86692 0.89615 0.0
C798 C 0.2569 0.8917 0.92422 0.0
C799 C 0.25679 0.92223 0.9137 0.0
H800 H 0.51013 0.54066 0.6425 0.0
H801 H 0.5166 0.62638 0.60775 0.0
H802 H 0.51791 0.68638 0.62387 0.0
H803 H 0.52123 0.71367 0.64782 0.0
H804 H 0.51596 0.62731 0.68247 0.0
H805 H 0.51011 0.56831 0.66634 0.0
C806 C 0.51153 0.57249 0.63841 0.0
C807 C 0.51352 0.57897 0.62393 0.0
C808 C 0.51274 0.60667 0.64772 0.0
C809 C 0.51508 0.62046 0.61884 0.0
C810 C 0.51597 0.65477 0.62805 0.0
C811 C 0.51859 0.682 0.65187 0.0
C812 C 0.51933 0.67489 0.66635 0.0
C813 C 0.51548 0.64813 0.64252 0.0
C814 C 0.51563 0.63368 0.67139 0.0
C815 C 0.51231 0.5999 0.66217 0.0
H816 H 0.8527 0.59222 0.66623 0.0
H817 H 0.79758 0.65493 0.69248 0.0
H818 H 0.77408 0.67811 0.67196 0.0
H819 H 0.77239 0.68778 0.64675 0.0
H820 H 0.82937 0.63028 0.62016 0.0
H821 H 0.84893 0.5974 0.64055 0.0
C822 C 0.83511 0.60992 0.66737 0.0
C823 C 0.82614 0.62045 0.68079 0.0
C824 C 0.82239 0.62462 0.65547 0.0
C825 C 0.80402 0.64485 0.68225 0.0
C826 C 0.79089 0.65867 0.67051 0.0
C827 C 0.78893 0.66767 0.64534 0.0
C828 C 0.7996 0.66196 0.63194 0.0
C829 C 0.80031 0.64972 0.65709 0.0
C830 C 0.82084 0.63536 0.63035 0.0
C831 C 0.83208 0.61671 0.64201 0.0
H832 H 0.56061 0.45812 0.40419 0.0
H833 H 0.55501 0.36299 0.43621 0.0
H834 H 0.55711 0.30752 0.41845 0.0
H835 H 0.55563 0.28656 0.39382 0.0
H836 H 0.55978 0.38188 0.3618 0.0
H837 H 0.5634 0.43686 0.37963 0.0
C838 C 0.56018 0.42525 0.40732 0.0
C839 C 0.5573 0.41472 0.4215 0.0
C840 C 0.56092 0.39361 0.39706 0.0
C841 C 0.5571 0.37198 0.42537 0.0
C842 C 0.55817 0.34025 0.41521 0.0
C843 C 0.55763 0.31932 0.39071 0.0
C844 C 0.55708 0.33014 0.37649 0.0
C845 C 0.55931 0.35077 0.40102 0.0
C846 C 0.56001 0.37268 0.37266 0.0
C847 C 0.56199 0.40415 0.38286 0.0
H848 H 0.2961 0.3569 0.36947 0.0
H849 H 0.2191 0.40356 0.36614 0.0
H850 H 0.20978 0.38006 0.38998 0.0
H851 H 0.22443 0.34902 0.41224 0.0
H852 H 0.30273 0.30731 0.41531 0.0
H853 H 0.31056 0.32659 0.39123 0.0
C854 C 0.27711 0.3613 0.37383 0.0
C855 C 0.25825 0.38153 0.36597 0.0
C856 C 0.27222 0.34924 0.38764 0.0
C857 C 0.23391 0.38772 0.37194 0.0
C858 C 0.22863 0.37457 0.3856 0.0
C859 C 0.2432 0.34432 0.40764 0.0
C860 C 0.2629 0.32679 0.41568 0.0
C861 C 0.2478 0.3559 0.39366 0.0
C862 C 0.28714 0.3209 0.4095 0.0
C863 C 0.29169 0.33172 0.39565 0.0
H864 H 0.99801 0.05707 0.63935 0.0
H865 H 1.00683 0.15079 0.6071 0.0
H866 H 1.00753 0.2067 0.6248 0.0
H867 H 1.01029 0.22791 0.64946 0.0
H868 H 1.00249 0.13371 0.68166 0.0
H869 H 0.99656 0.07898 0.6639 0.0
C870 C 0.99974 0.08978 0.63615 0.0
C871 C 1.00262 0.09968 0.6219 0.0
C872 C 1.00055 0.1216 0.64639 0.0
C873 C 1.00455 0.14226 0.61796 0.0
C874 C 1.00514 0.17421 0.6281 0.0
C875 C 1.00701 0.19548 0.65263 0.0
C876 C 1.00715 0.1849 0.66691 0.0
C877 C 1.00388 0.16411 0.64235 0.0
C878 C 1.00257 0.14278 0.67078 0.0
C879 C 0.99927 0.11143 0.66062 0.0
H880 H 0.30887 0.22995 0.6376 0.0
H881 H 0.30409 0.13745 0.60455 0.0
H882 H 0.3087 0.08062 0.62157 0.0
H883 H 0.30952 0.05745 0.64599 0.0
H884 H 0.3129 0.1503 0.67901 0.0
H885 H 0.31363 0.20691 0.66178 0.0
C886 C 0.30912 0.19737 0.63407 0.0
C887 C 0.30583 0.18792 0.61983 0.0
C888 C 0.31135 0.16498 0.64392 0.0
C889 C 0.30654 0.14558 0.61544 0.0
C890 C 0.30904 0.1131 0.62518 0.0
C891 C 0.31072 0.09005 0.64944 0.0
C892 C 0.31085 0.09962 0.6638 0.0
C893 C 0.31075 0.12244 0.63948 0.0
C894 C 0.31268 0.14202 0.66805 0.0
C895 C 0.313 0.17442 0.6582 0.0
H896 H 0.04716 0.91448 0.36749 0.0
H897 H 0.04995 0.78208 0.37793 0.0
H898 H 0.05027 0.79955 0.40264 0.0
H899 H 0.04641 0.85214 0.42153 0.0
H900 H 0.04581 0.98463 0.41117 0.0
H901 H 0.04816 0.96737 0.38643 0.0
C902 C 0.04818 0.88948 0.37516 0.0
C903 C 0.04828 0.84705 0.37076 0.0
C904 C 0.04857 0.89969 0.38949 0.0
C905 C 0.04982 0.8151 0.38092 0.0
C906 C 0.04988 0.825 0.39512 0.0
C907 C 0.04708 0.87722 0.41387 0.0
C908 C 0.0457 0.91956 0.41827 0.0
C909 C 0.04873 0.86714 0.39956 0.0
C910 C 0.04685 0.95168 0.40815 0.0
C911 C 0.04809 0.94188 0.39394 0.0
H912 H 0.75005 0.8012 0.40345 0.0
H913 H 0.75654 0.89725 0.4353 0.0
H914 H 0.75385 0.9522 0.41754 0.0
H915 H 0.75418 0.97255 0.39288 0.0
H916 H 0.74882 0.87648 0.36098 0.0
H917 H 0.74623 0.82187 0.37891 0.0
C918 C 0.75058 0.83416 0.40655 0.0
C919 C 0.75382 0.84506 0.42069 0.0
C920 C 0.74938 0.86554 0.39627 0.0
C921 C 0.75415 0.88793 0.42452 0.0
C922 C 0.75273 0.91938 0.41435 0.0
C923 C 0.75213 0.9397 0.38982 0.0
C924 C 0.75201 0.9286 0.37558 0.0
C925 C 0.75104 0.90849 0.40018 0.0
C926 C 0.74904 0.88593 0.37184 0.0
C927 C 0.74769 0.85467 0.38209 0.0
H928 H 1.01378 0.70593 0.16224 0.0
H929 H 1.01648 0.58067 0.17976 0.0
H930 H 1.01347 0.55003 0.15637 0.0
H931 H 1.01345 0.55888 0.13092 0.0
H932 H 1.01379 0.68425 0.1134 0.0
H933 H 1.01205 0.71475 0.13685 0.0
C934 C 1.01335 0.67188 0.16101 0.0
C935 C 1.01534 0.64565 0.17282 0.0
C936 C 1.01233 0.65451 0.1475 0.0
C937 C 1.01499 0.60163 0.17091 0.0
C938 C 1.01333 0.58409 0.15752 0.0
C939 C 1.01277 0.5929 0.13219 0.0
C940 C 1.01373 0.61924 0.12035 0.0
C941 C 1.01248 0.61023 0.14572 0.0
C942 C 1.0131 0.66323 0.12228 0.0
C943 C 1.01216 0.68068 0.1357 0.0
H944 H 0.30133 0.54553 0.15005 0.0
H945 H 0.29921 0.63593 0.18384 0.0
H946 H 0.30201 0.69386 0.1671 0.0
H947 H 0.30107 0.71857 0.14291 0.0
H948 H 0.30218 0.62823 0.1091 0.0
H949 H 0.30403 0.57034 0.12588 0.0
C950 C 0.30173 0.5779 0.15379 0.0
C951 C 0.29977 0.58641 0.16818 0.0
C952 C 0.30302 0.61097 0.14411 0.0
C953 C 0.30062 0.6285 0.17283 0.0
C954 C 0.30211 0.66163 0.16326 0.0
C955 C 0.30197 0.68623 0.13918 0.0
C956 C 0.30119 0.6777 0.12476 0.0
C957 C 0.3027 0.6532 0.14887 0.0
C958 C 0.30268 0.63567 0.12013 0.0
C959 C 0.30363 0.60256 0.12972 0.0
H960 H 0.05201 0.31332 0.88438 0.0
H961 H 0.05265 0.43824 0.86654 0.0
H962 H 0.05362 0.46938 0.88989 0.0
H963 H 0.05077 0.46128 0.91525 0.0
H964 H 0.04674 0.33657 0.93319 0.0
H965 H 0.05083 0.30521 0.90992 0.0
C966 C 0.05279 0.34738 0.88558 0.0
C967 C 0.05234 0.37343 0.87368 0.0
C968 C 0.05254 0.36509 0.89907 0.0
C969 C 0.05298 0.41747 0.87548 0.0
C970 C 0.05348 0.43529 0.88885 0.0
C971 C 0.05115 0.42719 0.91414 0.0
C972 C 0.04846 0.40133 0.92602 0.0
C973 C 0.05274 0.40942 0.90071 0.0
C974 C 0.04875 0.35725 0.92427 0.0
C975 C 0.05103 0.3393 0.91095 0.0
H976 H 0.75793 0.3049 0.91456 0.0
H977 H 0.76282 0.43053 0.932 0.0
H978 H 0.75643 0.46067 0.90881 0.0
H979 H 0.75342 0.45113 0.88339 0.0
H980 H 0.75283 0.32537 0.86592 0.0
H981 H 0.7533 0.29536 0.88939 0.0
C982 C 0.75723 0.33893 0.91337 0.0
C983 C 0.76085 0.36545 0.92506 0.0
C984 C 0.75442 0.35593 0.89998 0.0
C985 C 0.76013 0.40941 0.92322 0.0
C986 C 0.75652 0.42663 0.90995 0.0
C987 C 0.75286 0.41714 0.88472 0.0
C988 C 0.7529 0.39043 0.87292 0.0
C989 C 0.75418 0.40018 0.89823 0.0
C990 C 0.75271 0.34651 0.87483 0.0
C991 C 0.75308 0.32939 0.88824 0.0
H992 H 0.3808 0.80693 0.09499 0.0
H993 H 0.34867 0.92935 0.10407 0.0
H994 H 0.39125 0.96075 0.10377 0.0
H995 H 0.43759 0.95393 0.10094 0.0
H996 H 0.46994 0.83235 0.09092 0.0
H997 H 0.42739 0.8004 0.09166 0.0
C998 C 0.38299 0.84054 0.09677 0.0
C999 C 0.36127 0.86552 0.09959 0.0
C1000 C 0.40769 0.85868 0.09648 0.0
C1001 C 0.36483 0.909 0.10208 0.0
C1002 C 0.38927 0.92715 0.10183 0.0
C1003 C 0.43547 0.92054 0.09875 0.0
C1004 C 0.45724 0.89583 0.09583 0.0
C1005 C 0.41084 0.90234 0.09904 0.0
C1006 C 0.45379 0.85231 0.09334 0.0
C1007 C 0.42934 0.83396 0.09368 0.0
H1008 H 0.87733 0.32346 0.09373 0.0
H1009 H 0.8462 0.44814 0.08808 0.0
H1010 H 0.88915 0.47847 0.08912 0.0
H1011 H 0.9356 0.46974 0.09168 0.0
H1012 H 0.96662 0.34461 0.09645 0.0
H1013 H 0.92366 0.31453 0.09566 0.0
C1014 C 0.87979 0.35722 0.09254 0.0
C1015 C 0.85824 0.38328 0.09078 0.0
C1016 C 0.90464 0.37451 0.09303 0.0
C1017 C 0.86217 0.42715 0.08958 0.0
C1018 C 0.88684 0.44457 0.09011 0.0
C1019 C 0.93312 0.43585 0.09239 0.0
C1020 C 0.95462 0.40965 0.09414 0.0
C1021 C 0.90824 0.41857 0.09182 0.0
C1022 C 0.95063 0.36579 0.09528 0.0
C1023 C 0.92599 0.34845 0.09475 0.0
H1024 H 0.45414 0.40115 0.18985 0.0
H1025 H 0.43186 0.27308 0.19978 0.0
H1026 H 0.38714 0.29239 0.19876 0.0
H1027 H 0.35394 0.34606 0.19605 0.0
H1028 H 0.37574 0.47461 0.18703 0.0
H1029 H 0.42084 0.45488 0.18696 0.0
C1030 C 0.43957 0.37746 0.19187 0.0
C1031 C 0.4467 0.33562 0.19481 0.0
C1032 C 0.41362 0.38891 0.19153 0.0
C1033 C 0.42729 0.30537 0.19722 0.0
C1034 C 0.40153 0.31643 0.19676 0.0
C1035 C 0.36855 0.36961 0.19391 0.0
C1036 C 0.36148 0.41172 0.19159 0.0
C1037 C 0.39446 0.35811 0.194 0.0
C1038 C 0.38069 0.44206 0.18902 0.0
C1039 C 0.40648 0.43076 0.18893 0.0
H1040 H 0.86241 0.85853 0.20221 0.0
H1041 H 0.88291 0.97932 0.18459 0.0
H1042 H 0.92768 0.95879 0.18368 0.0
H1043 H 0.96131 0.90719 0.18837 0.0
H1044 H 0.94042 0.7851 0.20503 0.0
H1045 H 0.89587 0.80568 0.20591 0.0
C1046 C 0.87661 0.88016 0.19802 0.0
C1047 C 0.8692 0.92056 0.19361 0.0
C1048 C 0.90245 0.86811 0.19747 0.0
C1049 C 0.88801 0.94832 0.18832 0.0
C1050 C 0.91368 0.93654 0.18773 0.0
C1051 C 0.94708 0.88487 0.19208 0.0
C1052 C 0.95463 0.84475 0.19674 0.0
C1053 C 0.92118 0.89663 0.19238 0.0
C1054 C 0.93564 0.81656 0.20164 0.0
C1055 C 0.90993 0.82814 0.20204 0.0
H1056 H 0.70338 0.11418 0.93459 0.0
H1057 H 0.68939 0.22483 0.96001 0.0
H1058 H 0.64428 0.20781 0.96097 0.0
H1059 H 0.60833 0.16098 0.955 0.0
H1060 H 0.62187 0.05212 0.92891 0.0
H1061 H 0.66729 0.0696 0.92761 0.0
C1062 C 0.69058 0.13493 0.94024 0.0
C1063 C 0.70031 0.17066 0.94725 0.0
C1064 C 0.66429 0.12545 0.9406 0.0
C1065 C 0.68304 0.19665 0.95466 0.0
C1066 C 0.65695 0.1872 0.95514 0.0
C1067 C 0.62115 0.14152 0.94885 0.0
C1068 C 0.61172 0.10515 0.94216 0.0
C1069 C 0.64734 0.15166 0.94817 0.0
C1070 C 0.62869 0.07995 0.93435 0.0
C1071 C 0.65468 0.08995 0.93357 0.0
H1072 H 0.20097 0.61229 0.94855 0.0
H1073 H 0.17974 0.74272 0.94341 0.0
H1074 H 0.13468 0.72274 0.9431 0.0
H1075 H 0.10105 0.66825 0.94492 0.0
H1076 H 0.12273 0.53766 0.94922 0.0
H1077 H 0.16763 0.55769 0.94919 0.0
C1078 C 0.18655 0.6363 0.94719 0.0
C1079 C 0.19385 0.67897 0.94614 0.0
C1080 C 0.1606 0.62461 0.94696 0.0
C1081 C 0.17475 0.7097 0.94452 0.0
C1082 C 0.14892 0.69829 0.94426 0.0
C1083 C 0.11559 0.64417 0.94572 0.0
C1084 C 0.10833 0.60159 0.94727 0.0
C1085 C 0.14158 0.65585 0.94558 0.0
C1086 C 0.12755 0.57081 0.94837 0.0
C1087 C 0.15335 0.58217 0.94824 0.0
H1088 H 0.61914 0.68609 0.83823 0.0
H1089 H 0.5857 0.56649 0.85012 0.0
H1090 H 0.6283 0.53635 0.85246 0.0
H1091 H 0.67507 0.54411 0.85137 0.0
H1092 H 0.70833 0.66382 0.83943 0.0
H1093 H 0.66577 0.69402 0.83732 0.0
C1094 C 0.62105 0.65357 0.84149 0.0
C1095 C 0.59903 0.62874 0.84401 0.0
C1096 C 0.64565 0.63648 0.84291 0.0
C1097 C 0.60215 0.58633 0.84795 0.0
C1098 C 0.62657 0.5691 0.84937 0.0
C1099 C 0.67309 0.57671 0.8482 0.0
C1100 C 0.69508 0.60151 0.84555 0.0
C1101 C 0.64846 0.59386 0.84687 0.0
C1102 C 0.69193 0.64399 0.84171 0.0
C1103 C 0.66752 0.66126 0.84039 0.0
H1104 H 0.10992 0.11391 0.85421 0.0
H1105 H 0.12909 0.22889 0.83239 0.0
H1106 H 0.17366 0.20765 0.83098 0.0
H1107 H 0.20735 0.156 0.83552 0.0
H1108 H 0.18855 0.04063 0.85713 0.0
H1109 H 0.14386 0.06208 0.85883 0.0
C1110 C 0.1238 0.13418 0.84907 0.0
C1111 C 0.11599 0.17314 0.84352 0.0
C1112 C 0.14958 0.12164 0.8482 0.0
C1113 C 0.13444 0.19913 0.837 0.0
C1114 C 0.16001 0.18688 0.8361 0.0
C1115 C 0.19357 0.13573 0.84074 0.0
C1116 C 0.20142 0.09669 0.84616 0.0
C1117 C 0.16784 0.14826 0.84168 0.0
C1118 C 0.18308 0.07059 0.8527 0.0
C1119 C 0.15748 0.08293 0.85373 0.0
H1120 H 0.43581 0.45346 0.59967 0.0
H1121 H 0.46436 0.32583 0.59923 0.0
H1122 H 0.42077 0.29843 0.59862 0.0
H1123 H 0.37458 0.31044 0.59788 0.0
H1124 H 0.34581 0.43785 0.59748 0.0
H1125 H 0.38942 0.46548 0.59877 0.0
C1126 C 0.43258 0.41966 0.59932 0.0
C1127 C 0.45356 0.39187 0.59949 0.0
C1128 C 0.40736 0.404 0.59884 0.0
C1129 C 0.44876 0.34809 0.59929 0.0
C1130 C 0.42377 0.33233 0.59885 0.0
C1131 C 0.37776 0.34426 0.59792 0.0
C1132 C 0.35677 0.37193 0.5975 0.0
C1133 C 0.40293 0.35996 0.59855 0.0
C1134 C 0.36146 0.41572 0.59791 0.0
C1135 C 0.38646 0.43158 0.59857 0.0
H1136 H 0.85513 0.89593 0.60473 0.0
H1137 H 0.8806 0.76905 0.59609 0.0
H1138 H 0.92463 0.79392 0.59438 0.0
H1139 H 0.95615 0.85184 0.59505 0.0
H1140 H 0.93088 0.97841 0.60425 0.0
H1141 H 0.88679 0.95349 0.60609 0.0
C1142 C 0.87029 0.87362 0.60259 0.0
C1143 C 0.8643 0.83065 0.60046 0.0
C1144 C 0.89576 0.8881 0.6017 0.0
C1145 C 0.88436 0.80239 0.59754 0.0
C1146 C 0.90968 0.81655 0.59665 0.0
C1147 C 0.94107 0.87391 0.59761 0.0
C1148 C 0.94696 0.91703 0.59942 0.0
C1149 C 0.91563 0.85935 0.59867 0.0
C1150 C 0.92698 0.94519 0.60256 0.0
C1151 C 0.9017 0.93092 0.6037 0.0
H1152 H 0.46517 0.91556 0.69122 0.0
H1153 H 0.44221 0.78458 0.6934 0.0
H1154 H 0.39741 0.805 0.69315 0.0
H1155 H 0.36449 0.86013 0.69261 0.0
H1156 H 0.3876 0.99086 0.68959 0.0
H1157 H 0.43236 0.97038 0.6898 0.0
C1158 C 0.45043 0.8914 0.6915 0.0
C1159 C 0.45728 0.84857 0.69242 0.0
C1160 C 0.42457 0.90331 0.69124 0.0
C1161 C 0.43771 0.81784 0.69295 0.0
C1162 C 0.41198 0.82946 0.69271 0.0
C1163 C 0.37928 0.88412 0.69186 0.0
C1164 C 0.3725 0.92703 0.69121 0.0
C1165 C 0.40516 0.87212 0.6919 0.0
C1166 C 0.39208 0.95766 0.69038 0.0
C1167 C 0.41779 0.94596 0.69041 0.0
H1168 H 0.89567 0.48057 0.69441 0.0
H1169 H 0.85369 0.36308 0.69688 0.0
H1170 H 0.89373 0.32386 0.69649 0.0
H1171 H 0.94072 0.32293 0.69575 0.0
H1172 H 0.98261 0.4406 0.69392 0.0
H1173 H 0.94255 0.47968 0.6938 0.0
C1174 C 0.89521 0.44642 0.695 0.0
C1175 C 0.87156 0.42495 0.69574 0.0
C1176 C 0.91834 0.42404 0.69488 0.0
C1177 C 0.87149 0.38054 0.69617 0.0
C1178 C 0.89443 0.35805 0.69604 0.0
C1179 C 0.94114 0.35712 0.69547 0.0
C1180 C 0.96478 0.3787 0.69488 0.0
C1181 C 0.91798 0.37947 0.69546 0.0
C1182 C 0.9648 0.42307 0.69423 0.0
C1183 C 0.94186 0.44549 0.69424 0.0
H1184 H 0.60575 0.65116 0.44216 0.0
H1185 H 0.62691 0.53198 0.46033 0.0
H1186 H 0.6715 0.55403 0.46072 0.0
H1187 H 0.70457 0.60781 0.45663 0.0
H1188 H 0.68383 0.72745 0.43873 0.0
H1189 H 0.63914 0.70492 0.43778 0.0
C1190 C 0.62008 0.6301 0.44627 0.0
C1191 C 0.61279 0.58982 0.45112 0.0
C1192 C 0.64587 0.64316 0.4466 0.0
C1193 C 0.63181 0.56282 0.45627 0.0
C1194 C 0.6574 0.57553 0.45661 0.0
C1195 C 0.69037 0.6288 0.45236 0.0
C1196 C 0.69766 0.66934 0.4478 0.0
C1197 C 0.66467 0.61564 0.45183 0.0
C1198 C 0.67879 0.6963 0.4425 0.0
C1199 C 0.6532 0.68335 0.44189 0.0
H1200 H 0.11092 0.14388 0.43466 0.0
H1201 H 0.11406 0.07157 0.47264 0.0
H1202 H 0.1595 0.08752 0.47478 0.0
H1203 H 0.19865 0.12175 0.46586 0.0
H1204 H 0.19536 0.19654 0.42852 0.0
H1205 H 0.14976 0.18019 0.42617 0.0
C1206 C 0.12141 0.13205 0.4435 0.0
C1207 C 0.10896 0.10618 0.4534 0.0
C1208 C 0.14764 0.14159 0.44474 0.0
C1209 C 0.12312 0.09088 0.46472 0.0
C1210 C 0.14916 0.1001 0.46599 0.0
C1211 C 0.18797 0.13404 0.45714 0.0
C1212 C 0.20037 0.15998 0.4473 0.0
C1213 C 0.16168 0.12509 0.45601 0.0
C1214 C 0.18618 0.17652 0.43622 0.0
C1215 C 0.16014 0.16719 0.43488 0.0
H1216 H 0.68146 0.05495 0.34744 0.0
H1217 H 0.7164 0.1787 0.34844 0.0
H1218 H 0.67418 0.21125 0.34884 0.0
H1219 H 0.62738 0.20455 0.34877 0.0
H1220 H 0.59252 0.08078 0.34717 0.0
H1221 H 0.63472 0.04827 0.34714 0.0
C1222 C 0.67991 0.08904 0.34758 0.0
C1223 C 0.70219 0.11428 0.34784 0.0
C1224 C 0.65556 0.10756 0.34774 0.0
C1225 C 0.69966 0.15845 0.34836 0.0
C1226 C 0.6755 0.17711 0.34851 0.0
C1227 C 0.62895 0.17049 0.34827 0.0
C1228 C 0.60668 0.14522 0.34792 0.0
C1229 C 0.65332 0.15197 0.34817 0.0
C1230 C 0.60923 0.10104 0.34758 0.0
C1231 C 0.6334 0.08241 0.34748 0.0
H1232 H 0.20001 0.64593 0.34298 0.0
H1233 H 0.17702 0.51736 0.35123 0.0
H1234 H 0.13216 0.53775 0.35072 0.0
H1235 H 0.09926 0.59192 0.34736 0.0
H1236 H 0.12265 0.72092 0.33988 0.0
H1237 H 0.16724 0.70048 0.34059 0.0
C1238 C 0.18522 0.62248 0.34484 0.0
C1239 C 0.19197 0.58014 0.34703 0.0
C1240 C 0.15938 0.63441 0.34454 0.0
C1241 C 0.17244 0.55007 0.34927 0.0
C1242 C 0.14673 0.56173 0.34904 0.0
C1243 C 0.11408 0.61562 0.34599 0.0
C1244 C 0.10732 0.65781 0.34339 0.0
C1245 C 0.13994 0.60377 0.34657 0.0
C1246 C 0.12697 0.688 0.34155 0.0
C1247 C 0.15265 0.67644 0.34209 0.0
H1248 H 0.55203 0.96055 0.04191 0.0
H1249 H 0.50429 0.0694 0.04904 0.0
H1250 H 0.49938 0.07808 0.02386 0.0
H1251 H 0.50883 0.05487 0.99992 0.0
H1252 H 0.55668 0.94604 0.99292 0.0
H1253 H 0.56131 0.93723 1.01807 0.0
C1254 C 0.54053 0.98625 0.038 0.0
C1255 C 0.52855 0.01434 0.04738 0.0
C1256 C 0.5378 0.991 0.02355 0.0
C1257 C 0.51372 0.04736 0.04207 0.0
C1258 C 0.51091 0.05231 0.02768 0.0
C1259 C 0.52025 0.02914 1.00387 0.0
C1260 C 0.5324 1.00114 0.99452 0.0
C1261 C 0.52288 0.02432 1.01833 0.0
C1262 C 0.54713 0.96804 0.99985 0.0
C1263 C 0.54979 0.963 1.01424 0.0
H1264 H 0.80976 0.28136 0.04579 0.0
H1265 H 0.75634 0.17819 0.04052 0.0
H1266 H 0.754 0.19295 1.01559 0.0
H1267 H 0.76613 0.23638 0.99535 0.0
H1268 H 0.81949 0.33961 1.00066 0.0
H1269 H 0.82246 0.32399 0.02551 0.0
C1270 C 0.79789 0.26164 0.03917 0.0
C1271 C 0.78334 0.22852 0.04506 0.0
C1272 C 0.79624 0.27082 0.02486 0.0
C1273 C 0.76783 0.20375 0.03629 0.0
C1274 C 0.76634 0.21235 0.02203 0.0
C1275 C 0.77822 0.25576 1.00196 0.0
C1276 C 0.7924 0.28939 0.99612 0.0
C1277 C 0.78017 0.24618 1.01623 0.0
C1278 C 0.80825 0.3137 1.00485 0.0
C1279 C 0.81007 0.30464 1.01907 0.0
H1280 H 0.55249 0.29562 0.24962 0.0
H1281 H 0.50985 0.18 0.24333 0.0
H1282 H 0.50662 0.17028 0.26856 0.0
H1283 H 0.51557 0.1949 0.29231 0.0
H1284 H 0.55776 0.31097 0.29859 0.0
H1285 H 0.5615 0.32017 0.27337 0.0
C1286 C 0.54251 0.26821 0.25374 0.0
C1287 C 0.53142 0.23856 0.24457 0.0
C1288 C 0.54063 0.26293 0.26823 0.0
C1289 C 0.51854 0.20332 0.25013 0.0
C1290 C 0.51668 0.19774 0.26456 0.0
C1291 C 0.52564 0.22221 0.28819 0.0
C1292 C 0.53638 0.25221 0.29736 0.0
C1293 C 0.52762 0.22739 0.27369 0.0
C1294 C 0.5493 0.28742 0.2918 0.0
C1295 C 0.55145 0.2927 0.27737 0.0
H1296 H 0.76142 0.96932 0.24798 0.0
H1297 H 0.80886 0.08052 0.24337 0.0
H1298 H 0.81029 0.08861 0.26873 0.0
H1299 H 0.79853 0.06355 0.29214 0.0
H1300 H 0.75134 0.95202 0.29667 0.0
H1301 H 0.74934 0.94471 0.27133 0.0
C1302 C 0.77207 0.99544 0.25248 0.0
C1303 C 0.78506 0.02428 0.24373 0.0
C1304 C 0.77286 0.9998 0.26705 0.0
C1305 C 0.79871 0.05786 0.24981 0.0
C1306 C 0.79954 0.06249 0.26433 0.0
C1307 C 0.78774 0.03764 0.28762 0.0
C1308 C 0.7751 0.00832 0.29635 0.0
C1309 C 0.78675 0.03356 0.27303 0.0
C1310 C 0.76124 0.97501 0.29024 0.0
C1311 C 0.7601 0.9708 0.27574 0.0
H1312 H 0.25955 0.74458 0.99793 0.0
H1313 H 0.3141 0.84601 1.00339 0.0
H1314 H 0.31666 0.83017 0.02825 0.0
H1315 H 0.30364 0.78719 0.04843 0.0
H1316 H 0.24956 0.68508 0.04279 0.0
H1317 H 0.24692 0.70122 1.01799 0.0
C1318 C 0.27182 0.76354 1.00457 0.0
C1319 C 0.28648 0.79667 0.99879 0.0
C1320 C 0.27355 0.75379 1.01881 0.0
C1321 C 0.30254 0.82046 1.00755 0.0
C1322 C 0.30409 0.8113 0.02177 0.0
C1323 C 0.29143 0.7682 0.04177 0.0
C1324 C 0.27686 0.73487 0.04751 0.0
C1325 C 0.28982 0.77786 0.0275 0.0
C1326 C 0.26104 0.71084 0.03869 0.0
C1327 C 0.25942 0.72016 0.0245 0.0
H1328 H 0.55364 0.81283 0.75183 0.0
H1329 H 0.51371 0.69749 0.74116 0.0
H1330 H 0.50595 0.68334 0.7658 0.0
H1331 H 0.51039 0.70334 0.79023 0.0
H1332 H 0.55082 0.81769 0.80134 0.0
H1333 H 0.55848 0.83262 0.7766 0.0
C1334 C 0.54322 0.7846 0.75489 0.0
C1335 C 0.53424 0.75629 0.74462 0.0
C1336 C 0.53891 0.7765 0.76913 0.0
C1337 C 0.52087 0.7198 0.7488 0.0
C1338 C 0.51639 0.71168 0.7629 0.0
C1339 C 0.52085 0.73166 0.78729 0.0
C1340 C 0.52995 0.75945 0.79765 0.0
C1341 C 0.5253 0.7398 0.77313 0.0
C1342 C 0.54359 0.79579 0.79359 0.0
C1343 C 0.54797 0.80432 0.77945 0.0
H1344 H 0.27111 0.95661 0.74691 0.0
H1345 H 0.31037 0.07596 0.74179 0.0
H1346 H 0.31301 0.08386 0.76709 0.0
H1347 H 0.30416 0.05701 0.79058 0.0
H1348 H 0.26454 0.93803 0.79578 0.0
H1349 H 0.26207 0.92989 0.77045 0.0
C1350 C 0.28028 0.98439 0.7513 0.0
C1351 C 0.29057 0.01565 0.74242 0.0
C1352 C 0.28165 0.98878 0.76586 0.0
C1353 C 0.3023 0.05143 0.74834 0.0
C1354 C 0.30381 0.05595 0.76282 0.0
C1355 C 0.29499 0.02921 0.78621 0.0
C1356 C 0.28457 0.99811 0.7951 0.0
C1357 C 0.29356 0.02483 0.77166 0.0
C1358 C 0.27271 0.96243 0.7892 0.0
C1359 C 0.2713 0.95777 0.77472 0.0
H1360 H 0.50826 0.48751 0.49806 0.0
H1361 H 0.58947 0.47059 0.50333 0.0
H1362 H 0.58457 0.47999 0.52849 0.0
H1363 H 0.55743 0.49403 0.54891 0.0
H1364 H 0.4763 0.51211 0.54363 0.0
H1365 H 0.48109 0.50166 0.51851 0.0
C1366 C 0.52489 0.4855 0.50471 0.0
C1367 C 0.5492 0.47815 0.4988 0.0
C1368 C 0.522 0.49158 0.51915 0.0
C1369 C 0.57054 0.47611 0.50759 0.0
C1370 C 0.56777 0.48162 0.52198 0.0
C1371 C 0.54076 0.49586 0.54229 0.0
C1372 C 0.51652 0.50393 0.54819 0.0
C1373 C 0.54363 0.48967 0.52786 0.0
C1374 C 0.49519 0.50608 0.5394 0.0
C1375 C 0.4979 0.49996 0.52502 0.0
H1376 H 0.76891 0.79899 0.54739 0.0
H1377 H 0.80552 0.6778 0.55123 0.0
H1378 H 0.80889 0.67258 0.5258 0.0
H1379 H 0.80109 0.70226 0.50254 0.0
H1380 H 0.76403 0.82317 0.49888 0.0
H1381 H 0.76123 0.82863 0.52426 0.0
C1382 C 0.77768 0.77137 0.54271 0.0
C1383 C 0.78696 0.73879 0.55126 0.0
C1384 C 0.77946 0.76855 0.52812 0.0
C1385 C 0.79822 0.70331 0.54494 0.0
C1386 C 0.80014 0.70033 0.53039 0.0
C1387 C 0.79244 0.7299 0.50727 0.0
C1388 C 0.78279 0.76231 0.49876 0.0
C1389 C 0.79078 0.73274 0.52189 0.0
C1390 C 0.7716 0.79778 0.50513 0.0
C1391 C 0.76999 0.80091 0.51965 0.0
H1392 H 0.7936 0.55424 0.79762 0.0
H1393 H 0.75573 0.43286 0.79878 0.0
H1394 H 0.75661 0.42989 0.77319 0.0
H1395 H 0.76905 0.46174 0.75048 0.0
H1396 H 0.80684 0.58348 0.75015 0.0
H1397 H 0.80499 0.58619 0.77546 0.0
C1398 C 0.7855 0.52698 0.79235 0.0
C1399 C 0.77472 0.49369 0.80016 0.0
C1400 C 0.78607 0.52557 0.77774 0.0
C1401 C 0.76417 0.4589 0.79305 0.0
C1402 C 0.7647 0.45721 0.77841 0.0
C1403 C 0.7768 0.48891 0.75594 0.0
C1404 C 0.78815 0.52231 0.74834 0.0
C1405 C 0.77572 0.49034 0.77064 0.0
C1406 C 0.79806 0.55726 0.75564 0.0
C1407 C 0.79703 0.55888 0.77016 0.0
H1408 H 0.25351 0.25266 0.49365 0.0
H1409 H 0.30891 0.35307 0.49865 0.0
H1410 H 0.3097 0.34057 0.52377 0.0
H1411 H 0.29614 0.29897 0.54418 0.0
H1412 H 0.24122 0.1979 0.539 0.0
H1413 H 0.23908 0.21252 0.51408 0.0
C1414 C 0.26546 0.27234 0.50024 0.0
C1415 C 0.28107 0.30391 0.49423 0.0
C1416 C 0.26627 0.26435 0.51463 0.0
C1417 C 0.29663 0.32867 0.50297 0.0
C1418 C 0.29723 0.32135 0.51734 0.0
C1419 C 0.2838 0.27996 0.5376 0.0
C1420 C 0.26902 0.24713 0.54348 0.0
C1421 C 0.28248 0.28877 0.52325 0.0
C1422 C 0.25292 0.22321 0.53478 0.0
C1423 C 0.25159 0.23166 0.52051 0.0
H1424 H 0.28349 0.57302 0.29428 0.0
H1425 H 0.27123 0.43817 0.2929 0.0
H1426 H 0.27246 0.43988 0.26738 0.0
H1427 H 0.27708 0.47983 0.24551 0.0
H1428 H 0.28757 0.61508 0.24707 0.0
H1429 H 0.28709 0.61301 0.27253 0.0
C1430 C 0.28112 0.54392 0.28842 0.0
C1431 C 0.27738 0.50545 0.29551 0.0
C1432 C 0.2816 0.54524 0.2738 0.0
C1433 C 0.27408 0.46818 0.28772 0.0
C1434 C 0.27486 0.46915 0.27313 0.0
C1435 C 0.2794 0.50885 0.25142 0.0
C1436 C 0.28253 0.54757 0.24438 0.0
C1437 C 0.27866 0.5075 0.26607 0.0
C1438 C 0.28515 0.5849 0.25221 0.0
C1439 C 0.28488 0.58373 0.26677 0.0
H1440 H 0.05149 0.02162 0.49407 0.0
H1441 H 0.99517 0.9234 0.50059 0.0
H1442 H 0.9934 0.94054 0.52543 0.0
H1443 H 1.00672 0.98509 0.54525 0.0
H1444 H 0.06261 0.08394 0.53857 0.0
H1445 H 0.06534 0.06526 0.51391 0.0
C1446 C 0.03912 1.00346 0.50095 0.0
C1447 C 1.02359 0.97103 0.49542 0.0
C1448 C 0.03775 0.01412 0.51521 0.0
C1449 C 1.00741 0.94838 0.50452 0.0
C1450 C 1.00626 0.95835 0.51874 0.0
C1451 C 1.01935 1.00279 0.53839 0.0
C1452 C 0.03429 0.03613 0.54382 0.0
C1453 C 1.02105 0.99159 0.52418 0.0
C1454 C 0.05078 0.05829 0.53474 0.0
C1455 C 0.05246 0.04749 0.52061 0.0
H1456 H 0.052 0.32061 0.75145 0.0
H1457 H 1.00636 0.20795 0.74554 0.0
H1458 H 1.00214 0.20009 0.77078 0.0
H1459 H 1.01177 0.22445 0.79443 0.0
H1460 H 0.05761 0.3367 0.8006 0.0
H1461 H 0.06133 0.34549 0.77529 0.0
C1462 C 0.04107 0.29433 0.75566 0.0
C1463 C 1.02952 0.26485 0.74654 0.0
C1464 C 0.03877 0.28993 0.77022 0.0
C1465 C 1.01546 0.23107 0.75225 0.0
C1466 C 1.01304 0.22656 0.7667 0.0
C1467 C 1.02258 0.25098 0.7903 0.0
C1468 C 0.03443 0.27989 0.79947 0.0
C1469 C 1.02468 0.2557 0.77577 0.0
C1470 C 0.0483 0.31398 0.79383 0.0
C1471 C 0.05043 0.31898 0.77934 0.0
H1472 H 1.01087 0.77034 0.24426 0.0
H1473 H 0.07176 0.68153 0.251 0.0
H1474 H 0.07189 0.69908 0.2758 0.0
H1475 H 0.05492 0.7399 0.29568 0.0
H1476 H 0.99399 0.82866 0.28896 0.0
H1477 H 0.99403 0.81143 0.26413 0.0
C1478 C 1.02396 0.75442 0.25117 0.0
C1479 C 0.04115 0.72436 0.24572 0.0
C1480 C 1.02424 0.76518 0.26545 0.0
C1481 C 0.05823 0.70461 0.25486 0.0
C1482 C 0.05842 0.71481 0.26907 0.0
C1483 C 0.04188 0.75594 0.28876 0.0
C1484 C 1.0246 0.78581 0.29424 0.0
C1485 C 0.04167 0.74531 0.27448 0.0
C1486 C 1.0076 0.80571 0.28508 0.0
C1487 C 1.00749 0.79568 0.27086 0.0
H1488 H 0.05057 0.52907 0.99667 0.0
H1489 H 0.98864 0.44095 1.00379 0.0
H1490 H 0.98845 0.45877 0.02859 0.0
H1491 H 1.00569 0.49967 0.04835 0.0
H1492 H 0.06746 0.58809 0.04115 0.0
H1493 H 0.06753 0.5704 1.01637 0.0
C1494 C 0.03723 0.51336 1.00366 0.0
C1495 C 1.01979 0.4834 0.99833 0.0
C1496 C 0.03689 0.52433 1.01792 0.0
C1497 C 1.00238 0.46395 1.00757 0.0
C1498 C 1.00215 0.4743 0.02177 0.0
C1499 C 1.01895 0.51551 0.04134 0.0
C1500 C 0.03646 0.5454 0.04667 0.0
C1501 C 1.01917 0.5047 0.02706 0.0
C1502 C 0.0537 0.5651 0.03739 0.0
C1503 C 0.05386 0.55482 0.02319 0.0
H1504 H 0.64149 0.07848 0.10937 0.0
H1505 H 0.60318 0.11231 0.07135 0.0
H1506 H 0.63368 0.16964 0.06758 0.0
H1507 H 0.67162 0.21009 0.07484 0.0
H1508 H 0.71067 0.17577 0.11253 0.0
H1509 H 0.67982 0.11865 0.11653 0.0
C1510 C 0.63991 0.09805 0.10018 0.0
C1511 C 0.61979 0.0909 0.09072 0.0
C1512 C 0.65772 0.13109 0.098 0.0
C1513 C 0.61807 0.11721 0.07896 0.0
C1514 C 0.63564 0.15003 0.07674 0.0
C1515 C 0.67323 0.19048 0.08402 0.0
C1516 C 0.69346 0.19748 0.0934 0.0
C1517 C 0.65549 0.15742 0.08621 0.0
C1518 C 0.69544 0.17103 0.10509 0.0
C1519 C 0.67775 0.13836 0.1074 0.0
H1520 H 0.64852 0.21619 0.19897 0.0
H1521 H 0.59399 0.12694 0.18237 0.0
H1522 H 0.627 0.07285 0.1811 0.0
H1523 H 0.6713 0.05028 0.1852 0.0
H1524 H 0.72582 0.14029 0.20147 0.0
H1525 H 0.69299 0.19427 0.20243 0.0
C1526 C 0.64394 0.18509 0.19491 0.0
C1527 C 0.61877 0.17568 0.19083 0.0
C1528 C 0.66301 0.15399 0.19427 0.0
C1529 C 0.61311 0.13492 0.18577 0.0
C1530 C 0.63201 0.10396 0.18499 0.0
C1531 C 0.67603 0.08175 0.18887 0.0
C1532 C 0.70101 0.09079 0.1934 0.0
C1533 C 0.65701 0.11301 0.18932 0.0
C1534 C 0.7067 0.13184 0.19822 0.0
C1535 C 0.68794 0.16303 0.19865 0.0
H1536 H 0.41831 0.95519 0.9325 0.0
H1537 H 0.46765 0.89006 0.96119 0.0
H1538 H 0.43612 0.83443 0.96382 0.0
H1539 H 0.39422 0.80389 0.95833 0.0
H1540 H 0.34543 0.86684 0.92902 0.0
H1541 H 0.37723 0.92294 0.92614 0.0
C1542 C 0.42239 0.92878 0.93925 0.0
C1543 C 0.44554 0.92764 0.94666 0.0
C1544 C 0.40424 0.89603 0.94058 0.0
C1545 C 0.45004 0.89293 0.95548 0.0
C1546 C 0.43201 0.86054 0.95693 0.0
C1547 C 0.39069 0.82946 0.95114 0.0
C1548 C 0.36738 0.83112 0.94395 0.0
C1549 C 0.40905 0.86172 0.94955 0.0
C1550 C 0.36305 0.86499 0.93482 0.0
C1551 C 0.38126 0.89709 0.93315 0.0
H1552 H 0.45598 0.86187 0.84602 0.0
H1553 H 0.40246 0.75782 0.84398 0.0
H1554 H 0.36686 0.80721 0.84386 0.0
H1555 H 0.35078 0.87983 0.84448 0.0
H1556 H 0.40413 0.98416 0.84605 0.0
H1557 H 0.43983 0.9348 0.84623 0.0
C1558 C 0.43658 0.84991 0.84539 0.0
C1559 C 0.43205 0.80594 0.84501 0.0
C1560 C 0.41608 0.87861 0.8453 0.0
C1561 C 0.40662 0.7913 0.84445 0.0
C1562 C 0.3862 0.81961 0.84431 0.0
C1563 C 0.37018 0.89194 0.84469 0.0
C1564 C 0.3746 0.93591 0.84521 0.0
C1565 C 0.39068 0.86332 0.84474 0.0
C1566 C 0.40001 0.95064 0.84579 0.0
C1567 C 0.4205 0.92237 0.84582 0.0
H1568 H 0.70839 0.62438 0.60757 0.0
H1569 H 0.66129 0.72305 0.59075 0.0
H1570 H 0.6247 0.67494 0.59031 0.0
H1571 H 0.60662 0.60405 0.59357 0.0
H1572 H 0.65364 0.50497 0.6102 0.0
H1573 H 0.68987 0.55384 0.61153 0.0
C1574 C 0.69019 0.63536 0.60373 0.0
C1575 C 0.68776 0.67739 0.59914 0.0
C1576 C 0.66923 0.60733 0.60336 0.0
C1577 C 0.66378 0.69114 0.59447 0.0
C1578 C 0.64283 0.6635 0.59412 0.0
C1579 C 0.62462 0.59313 0.59769 0.0
C1580 C 0.62729 0.55064 0.60176 0.0
C1581 C 0.64539 0.62144 0.59843 0.0
C1582 C 0.65105 0.53723 0.60683 0.0
C1583 C 0.67177 0.56525 0.60765 0.0
H1584 H 0.66065 0.7442 0.70525 0.0
H1585 H 0.61562 0.66562 0.6779 0.0
H1586 H 0.65156 0.61744 0.67494 0.0
H1587 H 0.69551 0.59659 0.6806 0.0
H1588 H 0.7406 0.67539 0.70787 0.0
H1589 H 0.705 0.72433 0.71041 0.0
C1590 C 0.6588 0.71685 0.69851 0.0
C1591 C 0.63539 0.70858 0.69183 0.0
C1592 C 0.67954 0.68906 0.69692 0.0
C1593 C 0.63326 0.67252 0.6833 0.0
C1594 C 0.65386 0.645 0.68156 0.0
C1595 C 0.69764 0.62464 0.68699 0.0
C1596 C 0.72072 0.63202 0.69409 0.0
C1597 C 0.67704 0.65277 0.6884 0.0
C1598 C 0.72297 0.6684 0.70248 0.0
C1599 C 0.70264 0.69663 0.70386 0.0
H1600 H 0.46117 0.3743 0.45076 0.0
H1601 H 0.41024 0.47856 0.4435 0.0
H1602 H 0.37356 0.43061 0.44466 0.0
H1603 H 0.35585 0.35978 0.44868 0.0
H1604 H 0.40658 0.25553 0.45623 0.0
H1605 H 0.44346 0.3031 0.45435 0.0
C1606 C 0.44207 0.38674 0.44955 0.0
C1607 C 0.43859 0.43026 0.44712 0.0
C1608 C 0.42101 0.359 0.45036 0.0
C1609 C 0.41362 0.44533 0.44526 0.0
C1610 C 0.39258 0.41791 0.44601 0.0
C1611 C 0.37493 0.34717 0.4497 0.0
C1612 C 0.37835 0.30389 0.45255 0.0
C1613 C 0.39604 0.37474 0.44863 0.0
C1614 C 0.40334 0.28863 0.45415 0.0
C1615 C 0.42444 0.31583 0.45303 0.0
H1616 H 0.41568 0.29573 0.33473 0.0
H1617 H 0.46518 0.36807 0.36161 0.0
H1618 H 0.43304 0.42366 0.36338 0.0
H1619 H 0.39063 0.4517 0.35728 0.0
H1620 H 0.34123 0.37782 0.33067 0.0
H1621 H 0.37354 0.3234 0.32873 0.0
C1622 C 0.41934 0.3234 0.3411 0.0
C1623 C 0.44281 0.32757 0.34806 0.0
C1624 C 0.40083 0.35532 0.34202 0.0
C1625 C 0.44738 0.36416 0.35606 0.0
C1626 C 0.42897 0.39593 0.3571 0.0
C1627 C 0.38693 0.42369 0.35107 0.0
C1628 C 0.36348 0.41941 0.34405 0.0
C1629 C 0.40561 0.39191 0.3501 0.0
C1630 C 0.35917 0.38283 0.33597 0.0
C1631 C 0.3776 0.35125 0.33496 0.0
H1632 H 0.14277 0.06274 0.60402 0.0
H1633 H 0.08683 0.14152 0.58419 0.0
H1634 H 0.1171 0.20013 0.58362 0.0
H1635 H 0.15995 0.22852 0.58782 0.0
H1636 H 0.21613 0.15096 0.60802 0.0
H1637 H 0.18552 0.09263 0.60921 0.0
C1638 C 0.13728 0.09275 0.59958 0.0
C1639 C 0.11247 0.09762 0.59424 0.0
C1640 C 0.1549 0.12665 0.59927 0.0
C1641 C 0.10558 0.13691 0.58861 0.0
C1642 C 0.12297 0.1705 0.58819 0.0
C1643 C 0.16549 0.1992 0.59269 0.0
C1644 C 0.19053 0.19437 0.59771 0.0
C1645 C 0.14772 0.16572 0.59342 0.0
C1646 C 0.19721 0.1556 0.60382 0.0
C1647 C 0.17964 0.12215 0.60457 0.0
H1648 H 0.17062 0.04895 0.70204 0.0
H1649 H 0.22274 0.12939 0.67916 0.0
H1650 H 0.19085 0.18522 0.67876 0.0
H1651 H 0.14855 0.2123 0.68556 0.0
H1652 H 0.09633 0.13178 0.7083 0.0
H1653 H 0.12756 0.07486 0.70787 0.0
C1654 C 0.17488 0.07841 0.69679 0.0
C1655 C 0.19922 0.08495 0.69077 0.0
C1656 C 0.15639 0.11055 0.69659 0.0
C1657 C 0.20439 0.12365 0.68411 0.0
C1658 C 0.18611 0.15562 0.68383 0.0
C1659 C 0.14405 0.18235 0.69045 0.0
C1660 C 0.12011 0.1765 0.69697 0.0
C1661 C 0.16217 0.14968 0.6902 0.0
C1662 C 0.11445 0.13715 0.70307 0.0
C1663 C 0.13239 0.10457 0.7029 0.0
H1664 H 0.95323 0.90047 0.44032 0.0
H1665 H 0.90505 1.00164 0.45532 0.0
H1666 H 0.86846 0.95409 0.45551 0.0
H1667 H 0.85007 0.88355 0.45199 0.0
H1668 H 0.89865 0.78141 0.43836 0.0
H1669 H 0.93504 0.82974 0.43719 0.0
C1670 C 0.9349 0.91239 0.44377 0.0
C1671 C 0.93236 0.95507 0.44788 0.0
C1672 C 0.91383 0.88454 0.44415 0.0
C1673 C 0.90797 0.96939 0.45199 0.0
C1674 C 0.88689 0.94201 0.45219 0.0
C1675 C 0.8686 0.87151 0.44892 0.0
C1676 C 0.87139 0.82852 0.44531 0.0
C1677 C 0.88963 0.89943 0.44842 0.0
C1678 C 0.89567 0.81421 0.44107 0.0
C1679 C 0.9166 0.84188 0.44045 0.0
H1680 H 0.91165 0.79483 0.33095 0.0
H1681 H 0.95844 0.85346 0.36249 0.0
H1682 H 0.92767 0.91069 0.36495 0.0
H1683 H 0.88784 0.9453 0.35767 0.0
H1684 H 0.84099 0.88601 0.32632 0.0
H1685 H 0.87113 0.82775 0.32439 0.0
C1686 C 0.91493 0.8197 0.33853 0.0
C1687 C 0.93746 0.81985 0.34645 0.0
C1688 C 0.89715 0.85263 0.33988 0.0
C1689 C 0.94148 0.8528 0.3561 0.0
C1690 C 0.92385 0.88555 0.35754 0.0
C1691 C 0.88434 0.9197 0.35038 0.0
C1692 C 0.8622 0.92007 0.34215 0.0
C1693 C 0.90177 0.88612 0.34935 0.0
C1694 C 0.85772 0.88633 0.33289 0.0
C1695 C 0.87502 0.85304 0.33173 0.0
H1696 H 0.20794 0.64946 0.1032 0.0
H1697 H 0.16003 0.75102 0.08894 0.0
H1698 H 0.12361 0.70322 0.08804 0.0
H1699 H 0.10538 0.63196 0.09025 0.0
H1700 H 0.1531 0.52968 0.10386 0.0
H1701 H 0.1895 0.57813 0.10572 0.0
C1702 C 0.18965 0.6613 0.09981 0.0
C1703 C 0.18713 0.70426 0.09614 0.0
C1704 C 0.1686 0.63329 0.09908 0.0
C1705 C 0.16288 0.7186 0.09201 0.0
C1706 C 0.14189 0.69106 0.09139 0.0
C1707 C 0.12361 0.62025 0.0938 0.0
C1708 C 0.12635 0.57702 0.09692 0.0
C1709 C 0.14454 0.6483 0.0948 0.0
C1710 C 0.1504 0.56256 0.10125 0.0
C1711 C 0.17124 0.59036 0.10237 0.0
H1712 H 0.10585 0.63667 0.20182 0.0
H1713 H 0.15576 0.73537 0.18657 0.0
H1714 H 0.191 0.68502 0.18488 0.0
H1715 H 0.20758 0.61311 0.18798 0.0
H1716 H 0.15738 0.51537 0.20381 0.0
H1717 H 0.12209 0.565 0.20453 0.0
C1718 C 0.12428 0.64719 0.19791 0.0
C1719 C 0.12805 0.68986 0.19426 0.0
C1720 C 0.14441 0.61813 0.197 0.0
C1721 C 0.15235 0.70288 0.18955 0.0
C1722 C 0.17248 0.67403 0.18853 0.0
C1723 C 0.18901 0.60259 0.19168 0.0
C1724 C 0.18539 0.56027 0.19587 0.0
C1725 C 0.16875 0.63161 0.19231 0.0
C1726 C 0.16089 0.54735 0.20036 0.0
C1727 C 0.14064 0.5759 0.20088 0.0
H1728 H 0.85576 0.37001 0.93717 0.0
H1729 H 0.90475 0.27065 0.95196 0.0
H1730 H 0.94043 0.32015 0.95316 0.0
H1731 H 0.957 0.39233 0.95166 0.0
H1732 H 0.90808 0.49257 0.93763 0.0
H1733 H 0.87281 0.44213 0.93494 0.0
C1734 C 0.87416 0.35907 0.94073 0.0
C1735 C 0.8773 0.31645 0.94457 0.0
C1736 C 0.89456 0.388 0.94171 0.0
C1737 C 0.90161 0.30295 0.94881 0.0
C1738 C 0.92206 0.33141 0.94963 0.0
C1739 C 0.93881 0.40319 0.94778 0.0
C1740 C 0.93527 0.44632 0.94482 0.0
C1741 C 0.91865 0.37409 0.94631 0.0
C1742 C 0.91128 0.45972 0.94011 0.0
C1743 C 0.89114 0.43083 0.93851 0.0
H1744 H 0.91313 0.29352 0.84662 0.0
H1745 H 0.96988 0.39082 0.85303 0.0
H1746 H 0.93658 0.4444 0.85383 0.0
H1747 H 0.89117 0.46402 0.85259 0.0
H1748 H 0.83434 0.36697 0.84598 0.0
H1749 H 0.86759 0.31325 0.84533 0.0
C1750 C 0.91813 0.32642 0.84827 0.0
C1751 C 0.94398 0.33807 0.84969 0.0
C1752 C 0.89882 0.35728 0.84862 0.0
C1753 C 0.95019 0.38097 0.85169 0.0
C1754 C 0.93113 0.41168 0.85223 0.0
C1755 C 0.88609 0.4311 0.85107 0.0
C1756 C 0.86028 0.41971 0.84927 0.0
C1757 C 0.90537 0.40026 0.85067 0.0
C1758 C 0.85405 0.37685 0.84717 0.0
C1759 C 0.87307 0.34598 0.84689 0.0
loop_
_geom_bond_atom_site_label_1
_geom_bond_atom_site_label_2
_geom_bond_distance
_geom_bond_site_symmetry_2
_ccdc_geom_bond_type
Cu0 N1 1.999 . S
Cu0 O6 1.974 . S
Cu0 N11 1.985 1_545 S
Cu0 O20 1.959 1_545 S
N1 Cu0 1.999 . S
N1 C3 1.263 . S
N1 C5 1.389 . S
N2 C3 1.358 . S
N2 C4 1.400 . S
C3 N1 1.263 . S
C3 N2 1.358 . S
C3 H9 0.930 . S
C4 N2 1.400 . S
C4 C5 1.351 . S
C4 H21 0.930 . S
C5 N1 1.389 . S
C5 C4 1.351 . S
C5 H10 0.930 1_545 S
O6 Cu0 1.974 . S
O6 C16 1.282 . S
C7 O8 1.261 . S
C7 O20 1.251 1_545 S
O8 C7 1.261 . S
H9 C3 0.930 . S
H10 C5 0.930 1_565 S
N11 Cu0 1.985 1_565 S
N11 C13 1.335 . S
N11 C14 1.390 . S
N12 C13 1.345 . S
N12 C15 1.336 . S
C13 N11 1.335 . S
C13 N12 1.345 . S
C13 H18 0.930 . S
C14 N11 1.390 . S
C14 C15 1.346 . S
C14 H19 0.930 1_565 S
C15 N12 1.336 . S
C15 C14 1.346 . S
C15 H22 0.929 . S
C16 O6 1.282 . S
C16 O17 1.216 . S
O17 C16 1.216 . S
H18 C13 0.930 . S
H19 C14 0.930 1_545 S
O20 Cu0 1.959 1_565 S
O20 C7 1.251 1_565 S
H21 C4 0.930 . S
H22 C15 0.929 . S
Cu23 N24 1.999 . S
Cu23 O29 1.974 . S
Cu23 N34 1.985 . S
Cu23 O43 1.959 . S
N24 Cu23 1.999 . S
N24 C26 1.263 . S
N24 C28 1.389 . S
N25 C26 1.358 . S
N25 C27 1.400 . S
C26 N24 1.263 . S
C26 N25 1.358 . S
C26 H32 0.930 . S
C27 N25 1.400 . S
C27 C28 1.351 . S
C27 H44 0.930 . S
C28 N24 1.389 . S
C28 C27 1.351 . S
C28 H33 0.930 . S
O29 Cu23 1.974 . S
O29 C39 1.282 . S
C30 O31 1.261 . S
C30 O43 1.251 . S
O31 C30 1.261 . S
H32 C26 0.930 . S
H33 C28 0.930 . S
N34 Cu23 1.985 . S
N34 C36 1.335 . S
N34 C37 1.390 . S
N35 C36 1.345 . S
N35 C38 1.336 . S
C36 N34 1.335 . S
C36 N35 1.345 . S
C36 H41 0.930 . S
C37 N34 1.390 . S
C37 C38 1.346 . S
C37 H42 0.930 . S
C38 N35 1.336 . S
C38 C37 1.346 . S
C38 H45 0.929 . S
C39 O29 1.282 . S
C39 O40 1.216 . S
O40 C39 1.216 . S
H41 C36 0.930 . S
H42 C37 0.930 . S
O43 Cu23 1.959 . S
O43 C30 1.251 . S
H44 C27 0.930 . S
H45 C38 0.929 . S
Cu46 N47 1.999 . S
Cu46 O52 1.974 . S
Cu46 N57 1.985 . S
Cu46 O66 1.959 . S
N47 Cu46 1.999 . S
N47 C49 1.263 . S
N47 C51 1.389 . S
N48 C49 1.358 . S
N48 C50 1.400 . S
C49 N47 1.263 . S
C49 N48 1.358 . S
C49 H55 0.930 . S
C50 N48 1.400 . S
C50 C51 1.351 . S
C50 H67 0.930 . S
C51 N47 1.389 . S
C51 C50 1.351 . S
C51 H56 0.930 . S
O52 Cu46 1.974 . S
O52 C62 1.282 . S
C53 O54 1.261 . S
C53 O66 1.251 . S
O54 C53 1.261 . S
H55 C49 0.930 . S
H56 C51 0.930 . S
N57 Cu46 1.985 . S
N57 C59 1.335 . S
N57 C60 1.390 . S
N58 C59 1.345 . S
N58 C61 1.336 . S
C59 N57 1.335 . S
C59 N58 1.345 . S
C59 H64 0.930 . S
C60 N57 1.390 . S
C60 C61 1.346 . S
C60 H65 0.930 . S
C61 N58 1.336 . S
C61 C60 1.346 . S
C61 H68 0.929 . S
C62 O52 1.282 . S
C62 O63 1.216 . S
O63 C62 1.216 . S
H64 C59 0.930 . S
H65 C60 0.930 . S
O66 Cu46 1.959 . S
O66 C53 1.251 . S
H67 C50 0.930 . S
H68 C61 0.929 . S
Cu69 N70 1.999 . S
Cu69 O75 1.974 . S
Cu69 N80 1.985 1_545 S
Cu69 O89 1.959 1_545 S
N70 Cu69 1.999 . S
N70 C72 1.263 . S
N70 C74 1.389 . S
N71 C72 1.358 . S
N71 C73 1.400 . S
C72 N70 1.263 . S
C72 N71 1.358 . S
C72 H78 0.930 . S
C73 N71 1.400 . S
C73 C74 1.351 . S
C73 H90 0.930 . S
C74 N70 1.389 . S
C74 C73 1.351 . S
C74 H79 0.930 1_545 S
O75 Cu69 1.974 . S
O75 C85 1.282 . S
C76 O77 1.261 . S
C76 O89 1.251 1_545 S
O77 C76 1.261 . S
H78 C72 0.930 . S
H79 C74 0.930 1_565 S
N80 Cu69 1.985 1_565 S
N80 C82 1.335 . S
N80 C83 1.390 . S
N81 C82 1.345 . S
N81 C84 1.336 . S
C82 N80 1.335 . S
C82 N81 1.345 . S
C82 H87 0.930 . S
C83 N80 1.390 . S
C83 C84 1.346 . S
C83 H88 0.930 1_565 S
C84 N81 1.336 . S
C84 C83 1.346 . S
C84 H91 0.929 . S
C85 O75 1.282 . S
C85 O86 1.216 . S
O86 C85 1.216 . S
H87 C82 0.930 . S
H88 C83 0.930 1_545 S
O89 Cu69 1.959 1_565 S
O89 C76 1.251 1_565 S
H90 C73 0.930 . S
H91 C84 0.929 . S
Cu92 N93 1.999 . S
Cu92 O98 1.974 . S
Cu92 N103 1.985 1_565 S
Cu92 O112 1.959 1_565 S
N93 Cu92 1.999 . S
N93 C95 1.263 . S
N93 C97 1.389 . S
N94 C95 1.358 . S
N94 C96 1.400 . S
C95 N93 1.263 . S
C95 N94 1.358 . S
C95 H101 0.930 . S
C96 N94 1.400 . S
C96 C97 1.351 . S
C96 H113 0.930 . S
C97 N93 1.389 . S
C97 C96 1.351 . S
C97 H102 0.930 1_565 S
O98 Cu92 1.974 . S
O98 C108 1.282 . S
C99 O100 1.261 . S
C99 O112 1.251 1_565 S
O100 C99 1.261 . S
H101 C95 0.930 . S
H102 C97 0.930 1_545 S
N103 Cu92 1.985 1_545 S
N103 C105 1.335 . S
N103 C106 1.390 . S
N104 C105 1.345 . S
N104 C107 1.336 . S
C105 N103 1.335 . S
C105 N104 1.345 . S
C105 H110 0.930 . S
C106 N103 1.390 . S
C106 C107 1.346 . S
C106 H111 0.930 1_545 S
C107 N104 1.336 . S
C107 C106 1.346 . S
C107 H114 0.929 . S
C108 O98 1.282 . S
C108 O109 1.216 . S
O109 C108 1.216 . S
H110 C105 0.930 . S
H111 C106 0.930 1_565 S
O112 Cu92 1.959 1_545 S
O112 C99 1.251 1_545 S
H113 C96 0.930 . S
H114 C107 0.929 . S
Cu115 N116 1.999 . S
Cu115 O121 1.974 . S
Cu115 N126 1.985 . S
Cu115 O135 1.959 . S
N116 Cu115 1.999 . S
N116 C118 1.263 . S
N116 C120 1.389 . S
N117 C118 1.358 . S
N117 C119 1.400 . S
C118 N116 1.263 . S
C118 N117 1.358 . S
C118 H124 0.930 . S
C119 N117 1.400 . S
C119 C120 1.351 . S
C119 H136 0.930 . S
C120 N116 1.389 . S
C120 C119 1.351 . S
C120 H125 0.930 . S
O121 Cu115 1.974 . S
O121 C131 1.282 . S
C122 O123 1.261 . S
C122 O135 1.251 . S
O123 C122 1.261 . S
H124 C118 0.930 . S
H125 C120 0.930 . S
N126 Cu115 1.985 . S
N126 C128 1.335 . S
N126 C129 1.390 . S
N127 C128 1.345 . S
N127 C130 1.336 . S
C128 N126 1.335 . S
C128 N127 1.345 . S
C128 H133 0.930 . S
C129 N126 1.390 . S
C129 C130 1.346 . S
C129 H134 0.930 . S
C130 N127 1.336 . S
C130 C129 1.346 . S
C130 H137 0.929 . S
C131 O121 1.282 . S
C131 O132 1.216 . S
O132 C131 1.216 . S
H133 C128 0.930 . S
H134 C129 0.930 . S
O135 Cu115 1.959 . S
O135 C122 1.251 . S
H136 C119 0.930 . S
H137 C130 0.929 . S
Cu138 N139 1.999 . S
Cu138 O144 1.974 . S
Cu138 N149 1.985 . S
Cu138 O158 1.959 . S
N139 Cu138 1.999 . S
N139 C141 1.263 . S
N139 C143 1.389 . S
N140 C141 1.358 . S
N140 C142 1.400 . S
C141 N139 1.263 . S
C141 N140 1.358 . S
C141 H147 0.930 . S
C142 N140 1.400 . S
C142 C143 1.351 . S
C142 H159 0.930 . S
C143 N139 1.389 . S
C143 C142 1.351 . S
C143 H148 0.930 . S
O144 Cu138 1.974 . S
O144 C154 1.282 . S
C145 O146 1.261 . S
C145 O158 1.251 . S
O146 C145 1.261 . S
H147 C141 0.930 . S
H148 C143 0.930 . S
N149 Cu138 1.985 . S
N149 C151 1.335 . S
N149 C152 1.390 . S
N150 C151 1.345 . S
N150 C153 1.336 . S
C151 N149 1.335 . S
C151 N150 1.345 . S
C151 H156 0.930 . S
C152 N149 1.390 . S
C152 C153 1.346 . S
C152 H157 0.930 . S
C153 N150 1.336 . S
C153 C152 1.346 . S
C153 H160 0.929 . S
C154 O144 1.282 . S
C154 O155 1.216 . S
O155 C154 1.216 . S
H156 C151 0.930 . S
H157 C152 0.930 . S
O158 Cu138 1.959 . S
O158 C145 1.251 . S
H159 C142 0.930 . S
H160 C153 0.929 . S
Cu161 N162 1.999 . S
Cu161 O167 1.974 . S
Cu161 N172 1.985 1_565 S
Cu161 O181 1.959 1_565 S
N162 Cu161 1.999 . S
N162 C164 1.263 . S
N162 C166 1.389 . S
N163 C164 1.358 . S
N163 C165 1.400 . S
C164 N162 1.263 . S
C164 N163 1.358 . S
C164 H170 0.930 . S
C165 N163 1.400 . S
C165 C166 1.351 . S
C165 H182 0.930 . S
C166 N162 1.389 . S
C166 C165 1.351 . S
C166 H171 0.930 1_565 S
O167 Cu161 1.974 . S
O167 C177 1.282 . S
C168 O169 1.261 . S
C168 O181 1.251 1_565 S
O169 C168 1.261 . S
H170 C164 0.930 . S
H171 C166 0.930 1_545 S
N172 Cu161 1.985 1_545 S
N172 C174 1.335 . S
N172 C175 1.390 . S
N173 C174 1.345 . S
N173 C176 1.336 . S
C174 N172 1.335 . S
C174 N173 1.345 . S
C174 H179 0.930 . S
C175 N172 1.390 . S
C175 C176 1.346 . S
C175 H180 0.930 1_545 S
C176 N173 1.336 . S
C176 C175 1.346 . S
C176 H183 0.929 . S
C177 O167 1.282 . S
C177 O178 1.216 . S
O178 C177 1.216 . S
H179 C174 0.930 . S
H180 C175 0.930 1_565 S
O181 Cu161 1.959 1_545 S
O181 C168 1.251 1_545 S
H182 C165 0.930 . S
H183 C176 0.929 . S
Cu184 N185 1.999 . S
Cu184 O190 1.974 . S
Cu184 N195 1.985 . S
Cu184 O204 1.959 . S
N185 Cu184 1.999 . S
N185 C187 1.263 . S
N185 C189 1.389 . S
N186 C187 1.358 . S
N186 C188 1.400 . S
C187 N185 1.263 . S
C187 N186 1.358 . S
C187 H193 0.930 . S
C188 N186 1.400 . S
C188 C189 1.351 . S
C188 H205 0.930 . S
C189 N185 1.389 . S
C189 C188 1.351 . S
C189 H194 0.930 . S
O190 Cu184 1.974 . S
O190 C200 1.282 . S
C191 O192 1.261 . S
C191 O204 1.251 . S
O192 C191 1.261 . S
H193 C187 0.930 . S
H194 C189 0.930 . S
N195 Cu184 1.985 . S
N195 C197 1.335 . S
N195 C198 1.390 . S
N196 C197 1.345 . S
N196 C199 1.336 . S
C197 N195 1.335 . S
C197 N196 1.345 . S
C197 H202 0.930 . S
C198 N195 1.390 . S
C198 C199 1.346 . S
C198 H203 0.930 . S
C199 N196 1.336 . S
C199 C198 1.346 . S
C199 H206 0.929 . S
C200 O190 1.282 . S
C200 O201 1.216 . S
O201 C200 1.216 . S
H202 C197 0.930 . S
H203 C198 0.930 . S
O204 Cu184 1.959 . S
O204 C191 1.251 . S
H205 C188 0.930 . S
H206 C199 0.929 . S
Cu207 N208 1.999 . S
Cu207 O213 1.974 . S
Cu207 N218 1.985 . S
Cu207 O227 1.959 . S
N208 Cu207 1.999 . S
N208 C210 1.263 . S
N208 C212 1.389 . S
N209 C210 1.358 . S
N209 C211 1.400 . S
C210 N208 1.263 . S
C210 N209 1.358 . S
C210 H216 0.930 . S
C211 N209 1.400 . S
C211 C212 1.351 . S
C211 H228 0.930 . S
C212 N208 1.389 . S
C212 C211 1.351 . S
C212 H217 0.930 . S
O213 Cu207 1.974 . S
O213 C223 1.282 . S
C214 O215 1.261 . S
C214 O227 1.251 . S
O215 C214 1.261 . S
H216 C210 0.930 . S
H217 C212 0.930 . S
N218 Cu207 1.985 . S
N218 C220 1.335 . S
N218 C221 1.390 . S
N219 C220 1.345 . S
N219 C222 1.336 . S
C220 N218 1.335 . S
C220 N219 1.345 . S
C220 H225 0.930 . S
C221 N218 1.390 . S
C221 C222 1.346 . S
C221 H226 0.930 . S
C222 N219 1.336 . S
C222 C221 1.346 . S
C222 H229 0.929 . S
C223 O213 1.282 . S
C223 O224 1.216 . S
O224 C223 1.216 . S
H225 C220 0.930 . S
H226 C221 0.930 . S
O227 Cu207 1.959 . S
O227 C214 1.251 . S
H228 C211 0.930 . S
H229 C222 0.929 . S
Cu230 N231 1.999 . S
Cu230 O236 1.974 . S
Cu230 N241 1.985 . S
Cu230 O250 1.959 . S
N231 Cu230 1.999 . S
N231 C233 1.263 . S
N231 C235 1.389 . S
N232 C233 1.358 . S
N232 C234 1.400 . S
C233 N231 1.263 . S
C233 N232 1.358 . S
C233 H239 0.930 . S
C234 N232 1.400 . S
C234 C235 1.351 . S
C234 H251 0.930 . S
C235 N231 1.389 . S
C235 C234 1.351 . S
C235 H240 0.930 . S
O236 Cu230 1.974 . S
O236 C246 1.282 . S
C237 O238 1.261 . S
C237 O250 1.251 . S
O238 C237 1.261 . S
H239 C233 0.930 . S
H240 C235 0.930 . S
N241 Cu230 1.985 . S
N241 C243 1.335 . S
N241 C244 1.390 . S
N242 C243 1.345 . S
N242 C245 1.336 . S
C243 N241 1.335 . S
C243 N242 1.345 . S
C243 H248 0.930 . S
C244 N241 1.390 . S
C244 C245 1.346 . S
C244 H249 0.930 . S
C245 N242 1.336 . S
C245 C244 1.346 . S
C245 H252 0.929 . S
C246 O236 1.282 . S
C246 O247 1.216 . S
O247 C246 1.216 . S
H248 C243 0.930 . S
H249 C244 0.930 . S
O250 Cu230 1.959 . S
O250 C237 1.251 . S
H251 C234 0.930 . S
H252 C245 0.929 . S
Cu253 N254 1.999 . S
Cu253 O259 1.974 . S
Cu253 N264 1.985 . S
Cu253 O273 1.959 . S
N254 Cu253 1.999 . S
N254 C256 1.263 . S
N254 C258 1.389 . S
N255 C256 1.358 . S
N255 C257 1.400 . S
C256 N254 1.263 . S
C256 N255 1.358 . S
C256 H262 0.930 . S
C257 N255 1.400 . S
C257 C258 1.351 . S
C257 H274 0.930 . S
C258 N254 1.389 . S
C258 C257 1.351 . S
C258 H263 0.930 . S
O259 Cu253 1.974 . S
O259 C269 1.282 . S
C260 O261 1.261 . S
C260 O273 1.251 . S
O261 C260 1.261 . S
H262 C256 0.930 . S
H263 C258 0.930 . S
N264 Cu253 1.985 . S
N264 C266 1.335 . S
N264 C267 1.390 . S
N265 C266 1.345 . S
N265 C268 1.336 . S
C266 N264 1.335 . S
C266 N265 1.345 . S
C266 H271 0.930 . S
C267 N264 1.390 . S
C267 C268 1.346 . S
C267 H272 0.930 . S
C268 N265 1.336 . S
C268 C267 1.346 . S
C268 H275 0.929 . S
C269 O259 1.282 . S
C269 O270 1.216 . S
O270 C269 1.216 . S
H271 C266 0.930 . S
H272 C267 0.930 . S
O273 Cu253 1.959 . S
O273 C260 1.251 . S
H274 C257 0.930 . S
H275 C268 0.929 . S
Cu276 N277 1.999 . S
Cu276 O282 1.974 . S
Cu276 N287 1.985 . S
Cu276 O296 1.959 . S
N277 Cu276 1.999 . S
N277 C279 1.263 . S
N277 C281 1.389 . S
N278 C279 1.358 . S
N278 C280 1.400 . S
C279 N277 1.263 . S
C279 N278 1.358 . S
C279 H285 0.930 . S
C280 N278 1.400 . S
C280 C281 1.351 . S
C280 H297 0.930 . S
C281 N277 1.389 . S
C281 C280 1.351 . S
C281 H286 0.930 . S
O282 Cu276 1.974 . S
O282 C292 1.282 . S
C283 O284 1.261 . S
C283 O296 1.251 . S
O284 C283 1.261 . S
H285 C279 0.930 . S
H286 C281 0.930 . S
N287 Cu276 1.985 . S
N287 C289 1.335 . S
N287 C290 1.390 . S
N288 C289 1.345 . S
N288 C291 1.336 . S
C289 N287 1.335 . S
C289 N288 1.345 . S
C289 H294 0.930 . S
C290 N287 1.390 . S
C290 C291 1.346 . S
C290 H295 0.930 . S
C291 N288 1.336 . S
C291 C290 1.346 . S
C291 H298 0.929 . S
C292 O282 1.282 . S
C292 O293 1.216 . S
O293 C292 1.216 . S
H294 C289 0.930 . S
H295 C290 0.930 . S
O296 Cu276 1.959 . S
O296 C283 1.251 . S
H297 C280 0.930 . S
H298 C291 0.929 . S
Cu299 N300 1.999 . S
Cu299 O305 1.974 . S
Cu299 N310 1.985 . S
Cu299 O319 1.959 . S
N300 Cu299 1.999 . S
N300 C302 1.263 . S
N300 C304 1.389 . S
N301 C302 1.358 . S
N301 C303 1.400 . S
C302 N300 1.263 . S
C302 N301 1.358 . S
C302 H308 0.930 . S
C303 N301 1.400 . S
C303 C304 1.351 . S
C303 H320 0.930 . S
C304 N300 1.389 . S
C304 C303 1.351 . S
C304 H309 0.930 . S
O305 Cu299 1.974 . S
O305 C315 1.282 . S
C306 O307 1.261 . S
C306 O319 1.251 . S
O307 C306 1.261 . S
H308 C302 0.930 . S
H309 C304 0.930 . S
N310 Cu299 1.985 . S
N310 C312 1.335 . S
N310 C313 1.390 . S
N311 C312 1.345 . S
N311 C314 1.336 . S
C312 N310 1.335 . S
C312 N311 1.345 . S
C312 H317 0.930 . S
C313 N310 1.390 . S
C313 C314 1.346 . S
C313 H318 0.930 . S
C314 N311 1.336 . S
C314 C313 1.346 . S
C314 H321 0.929 . S
C315 O305 1.282 . S
C315 O316 1.216 . S
O316 C315 1.216 . S
H317 C312 0.930 . S
H318 C313 0.930 . S
O319 Cu299 1.959 . S
O319 C306 1.251 . S
H320 C303 0.930 . S
H321 C314 0.929 . S
Cu322 N323 1.999 . S
Cu322 O328 1.974 . S
Cu322 N333 1.985 . S
Cu322 O342 1.959 . S
N323 Cu322 1.999 . S
N323 C325 1.263 . S
N323 C327 1.389 . S
N324 C325 1.358 . S
N324 C326 1.400 . S
C325 N323 1.263 . S
C325 N324 1.358 . S
C325 H331 0.930 . S
C326 N324 1.400 . S
C326 C327 1.351 . S
C326 H343 0.930 . S
C327 N323 1.389 . S
C327 C326 1.351 . S
C327 H332 0.930 . S
O328 Cu322 1.974 . S
O328 C338 1.282 . S
C329 O330 1.261 . S
C329 O342 1.251 . S
O330 C329 1.261 . S
H331 C325 0.930 . S
H332 C327 0.930 . S
N333 Cu322 1.985 . S
N333 C335 1.335 . S
N333 C336 1.390 . S
N334 C335 1.345 . S
N334 C337 1.336 . S
C335 N333 1.335 . S
C335 N334 1.345 . S
C335 H340 0.930 . S
C336 N333 1.390 . S
C336 C337 1.346 . S
C336 H341 0.930 . S
C337 N334 1.336 . S
C337 C336 1.346 . S
C337 H344 0.929 . S
C338 O328 1.282 . S
C338 O339 1.216 . S
O339 C338 1.216 . S
H340 C335 0.930 . S
H341 C336 0.930 . S
O342 Cu322 1.959 . S
O342 C329 1.251 . S
H343 C326 0.930 . S
H344 C337 0.929 . S
Cu345 N346 1.999 . S
Cu345 O351 1.974 . S
Cu345 N356 1.985 . S
Cu345 O365 1.959 . S
N346 Cu345 1.999 . S
N346 C348 1.263 . S
N346 C350 1.389 . S
N347 C348 1.358 . S
N347 C349 1.400 . S
C348 N346 1.263 . S
C348 N347 1.358 . S
C348 H354 0.930 . S
C349 N347 1.400 . S
C349 C350 1.351 . S
C349 H366 0.930 . S
C350 N346 1.389 . S
C350 C349 1.351 . S
C350 H355 0.930 . S
O351 Cu345 1.974 . S
O351 C361 1.282 . S
C352 O353 1.261 . S
C352 O365 1.251 . S
O353 C352 1.261 . S
H354 C348 0.930 . S
H355 C350 0.930 . S
N356 Cu345 1.985 . S
N356 C358 1.335 . S
N356 C359 1.390 . S
N357 C358 1.345 . S
N357 C360 1.336 . S
C358 N356 1.335 . S
C358 N357 1.345 . S
C358 H363 0.930 . S
C359 N356 1.390 . S
C359 C360 1.346 . S
C359 H364 0.930 . S
C360 N357 1.336 . S
C360 C359 1.346 . S
C360 H367 0.929 . S
C361 O351 1.282 . S
C361 O362 1.216 . S
O362 C361 1.216 . S
H363 C358 0.930 . S
H364 C359 0.930 . S
O365 Cu345 1.959 . S
O365 C352 1.251 . S
H366 C349 0.930 . S
H367 C360 0.929 . S
Cu368 N369 1.999 . S
Cu368 O374 1.974 . S
Cu368 N379 1.985 1_445 S
Cu368 O388 1.959 1_545 S
N369 Cu368 1.999 . S
N369 C371 1.263 . S
N369 C373 1.389 . S
N370 C371 1.358 . S
N370 C372 1.400 . S
C371 N369 1.263 . S
C371 N370 1.358 . S
C371 H377 0.930 . S
C372 N370 1.400 . S
C372 C373 1.351 . S
C372 H389 0.930 . S
C373 N369 1.389 . S
C373 C372 1.351 . S
C373 H378 0.930 1_545 S
O374 Cu368 1.974 . S
O374 C384 1.282 1_455 S
C375 O376 1.261 . S
C375 O388 1.251 1_645 S
O376 C375 1.261 . S
H377 C371 0.930 . S
H378 C373 0.930 1_565 S
N379 Cu368 1.985 1_665 S
N379 C381 1.335 . S
N379 C382 1.390 . S
N380 C381 1.345 . S
N380 C383 1.336 . S
C381 N379 1.335 . S
C381 N380 1.345 . S
C381 H386 0.930 . S
C382 N379 1.390 . S
C382 C383 1.346 . S
C382 H387 0.930 1_565 S
C383 N380 1.336 . S
C383 C382 1.346 . S
C383 H390 0.929 . S
C384 O374 1.282 1_655 S
C384 O385 1.216 . S
O385 C384 1.216 . S
H386 C381 0.930 . S
H387 C382 0.930 1_545 S
O388 Cu368 1.959 1_565 S
O388 C375 1.251 1_465 S
H389 C372 0.930 . S
H390 C383 0.929 . S
Cu391 N392 1.999 . S
Cu391 O397 1.974 . S
Cu391 N402 1.985 . S
Cu391 O411 1.959 . S
N392 Cu391 1.999 . S
N392 C394 1.263 . S
N392 C396 1.389 . S
N393 C394 1.358 . S
N393 C395 1.400 . S
C394 N392 1.263 . S
C394 N393 1.358 . S
C394 H400 0.930 . S
C395 N393 1.400 . S
C395 C396 1.351 . S
C395 H412 0.930 . S
C396 N392 1.389 . S
C396 C395 1.351 . S
C396 H401 0.930 . S
O397 Cu391 1.974 . S
O397 C407 1.282 . S
C398 O399 1.261 . S
C398 O411 1.251 . S
O399 C398 1.261 . S
H400 C394 0.930 . S
H401 C396 0.930 . S
N402 Cu391 1.985 . S
N402 C404 1.335 . S
N402 C405 1.390 . S
N403 C404 1.345 . S
N403 C406 1.336 . S
C404 N402 1.335 . S
C404 N403 1.345 . S
C404 H409 0.930 . S
C405 N402 1.390 . S
C405 C406 1.346 . S
C405 H410 0.930 . S
C406 N403 1.336 . S
C406 C405 1.346 . S
C406 H413 0.929 . S
C407 O397 1.282 . S
C407 O408 1.216 . S
O408 C407 1.216 . S
H409 C404 0.930 . S
H410 C405 0.930 . S
O411 Cu391 1.959 . S
O411 C398 1.251 . S
H412 C395 0.930 . S
H413 C406 0.929 . S
Cu414 N415 1.999 . S
Cu414 O420 1.974 . S
Cu414 N425 1.985 1_455 S
Cu414 O434 1.959 . S
N415 Cu414 1.999 . S
N415 C417 1.263 . S
N415 C419 1.389 . S
N416 C417 1.358 . S
N416 C418 1.400 . S
C417 N415 1.263 . S
C417 N416 1.358 . S
C417 H423 0.930 . S
C418 N416 1.400 . S
C418 C419 1.351 . S
C418 H435 0.930 . S
C419 N415 1.389 . S
C419 C418 1.351 . S
C419 H424 0.930 . S
O420 Cu414 1.974 . S
O420 C430 1.282 1_455 S
C421 O422 1.261 . S
C421 O434 1.251 1_655 S
O422 C421 1.261 . S
H423 C417 0.930 . S
H424 C419 0.930 . S
N425 Cu414 1.985 1_655 S
N425 C427 1.335 . S
N425 C428 1.390 . S
N426 C427 1.345 . S
N426 C429 1.336 . S
C427 N425 1.335 . S
C427 N426 1.345 . S
C427 H432 0.930 . S
C428 N425 1.390 . S
C428 C429 1.346 . S
C428 H433 0.930 . S
C429 N426 1.336 . S
C429 C428 1.346 . S
C429 H436 0.929 . S
C430 O420 1.282 1_655 S
C430 O431 1.216 . S
O431 C430 1.216 . S
H432 C427 0.930 . S
H433 C428 0.930 . S
O434 Cu414 1.959 . S
O434 C421 1.251 1_455 S
H435 C418 0.930 . S
H436 C429 0.929 . S
Cu437 N438 1.999 . S
Cu437 O443 1.974 . S
Cu437 N448 1.985 1_545 S
Cu437 O457 1.959 1_545 S
N438 Cu437 1.999 . S
N438 C440 1.263 . S
N438 C442 1.389 . S
N439 C440 1.358 . S
N439 C441 1.400 . S
C440 N438 1.263 . S
C440 N439 1.358 . S
C440 H446 0.930 . S
C441 N439 1.400 . S
C441 C442 1.351 . S
C441 H458 0.930 . S
C442 N438 1.389 . S
C442 C441 1.351 . S
C442 H447 0.930 1_545 S
O443 Cu437 1.974 . S
O443 C453 1.282 . S
C444 O445 1.261 . S
C444 O457 1.251 1_545 S
O445 C444 1.261 . S
H446 C440 0.930 . S
H447 C442 0.930 1_565 S
N448 Cu437 1.985 1_565 S
N448 C450 1.335 . S
N448 C451 1.390 . S
N449 C450 1.345 . S
N449 C452 1.336 . S
C450 N448 1.335 . S
C450 N449 1.345 . S
C450 H455 0.930 . S
C451 N448 1.390 . S
C451 C452 1.346 . S
C451 H456 0.930 1_565 S
C452 N449 1.336 . S
C452 C451 1.346 . S
C452 H459 0.929 . S
C453 O443 1.282 . S
C453 O454 1.216 . S
O454 C453 1.216 . S
H455 C450 0.930 . S
H456 C451 0.930 1_545 S
O457 Cu437 1.959 1_565 S
O457 C444 1.251 1_565 S
H458 C441 0.930 . S
H459 C452 0.929 . S
Cu460 N461 1.999 . S
Cu460 O466 1.974 . S
Cu460 N471 1.985 1_665 S
Cu460 O480 1.959 1_565 S
N461 Cu460 1.999 . S
N461 C463 1.263 . S
N461 C465 1.389 . S
N462 C463 1.358 . S
N462 C464 1.400 . S
C463 N461 1.263 . S
C463 N462 1.358 . S
C463 H469 0.930 . S
C464 N462 1.400 . S
C464 C465 1.351 . S
C464 H481 0.930 . S
C465 N461 1.389 . S
C465 C464 1.351 . S
C465 H470 0.930 1_565 S
O466 Cu460 1.974 . S
O466 C476 1.282 1_655 S
C467 O468 1.261 . S
C467 O480 1.251 1_465 S
O468 C467 1.261 . S
H469 C463 0.930 . S
H470 C465 0.930 1_545 S
N471 Cu460 1.985 1_445 S
N471 C473 1.335 . S
N471 C474 1.390 . S
N472 C473 1.345 . S
N472 C475 1.336 . S
C473 N471 1.335 . S
C473 N472 1.345 . S
C473 H478 0.930 . S
C474 N471 1.390 . S
C474 C475 1.346 . S
C474 H479 0.930 1_545 S
C475 N472 1.336 . S
C475 C474 1.346 . S
C475 H482 0.929 . S
C476 O466 1.282 1_455 S
C476 O477 1.216 . S
O477 C476 1.216 . S
H478 C473 0.930 . S
H479 C474 0.930 1_565 S
O480 Cu460 1.959 1_545 S
O480 C467 1.251 1_645 S
H481 C464 0.930 . S
H482 C475 0.929 . S
Cu483 N484 1.999 . S
Cu483 O489 1.974 . S
Cu483 N494 1.985 . S
Cu483 O503 1.959 . S
N484 Cu483 1.999 . S
N484 C486 1.263 . S
N484 C488 1.389 . S
N485 C486 1.358 . S
N485 C487 1.400 . S
C486 N484 1.263 . S
C486 N485 1.358 . S
C486 H492 0.930 . S
C487 N485 1.400 . S
C487 C488 1.351 . S
C487 H504 0.930 . S
C488 N484 1.389 . S
C488 C487 1.351 . S
C488 H493 0.930 . S
O489 Cu483 1.974 . S
O489 C499 1.282 . S
C490 O491 1.261 . S
C490 O503 1.251 . S
O491 C490 1.261 . S
H492 C486 0.930 . S
H493 C488 0.930 . S
N494 Cu483 1.985 . S
N494 C496 1.335 . S
N494 C497 1.390 . S
N495 C496 1.345 . S
N495 C498 1.336 . S
C496 N494 1.335 . S
C496 N495 1.345 . S
C496 H501 0.930 . S
C497 N494 1.390 . S
C497 C498 1.346 . S
C497 H502 0.930 . S
C498 N495 1.336 . S
C498 C497 1.346 . S
C498 H505 0.929 . S
C499 O489 1.282 . S
C499 O500 1.216 . S
O500 C499 1.216 . S
H501 C496 0.930 . S
H502 C497 0.930 . S
O503 Cu483 1.959 . S
O503 C490 1.251 . S
H504 C487 0.930 . S
H505 C498 0.929 . S
Cu506 N507 1.999 . S
Cu506 O512 1.974 . S
Cu506 N517 1.985 1_655 S
Cu506 O526 1.959 . S
N507 Cu506 1.999 . S
N507 C509 1.263 . S
N507 C511 1.389 . S
N508 C509 1.358 . S
N508 C510 1.400 . S
C509 N507 1.263 . S
C509 N508 1.358 . S
C509 H515 0.930 . S
C510 N508 1.400 . S
C510 C511 1.351 . S
C510 H527 0.930 . S
C511 N507 1.389 . S
C511 C510 1.351 . S
C511 H516 0.930 . S
O512 Cu506 1.974 . S
O512 C522 1.282 1_655 S
C513 O514 1.261 . S
C513 O526 1.251 1_455 S
O514 C513 1.261 . S
H515 C509 0.930 . S
H516 C511 0.930 . S
N517 Cu506 1.985 1_455 S
N517 C519 1.335 . S
N517 C520 1.390 . S
N518 C519 1.345 . S
N518 C521 1.336 . S
C519 N517 1.335 . S
C519 N518 1.345 . S
C519 H524 0.930 . S
C520 N517 1.390 . S
C520 C521 1.346 . S
C520 H525 0.930 . S
C521 N518 1.336 . S
C521 C520 1.346 . S
C521 H528 0.929 . S
C522 O512 1.282 1_455 S
C522 O523 1.216 . S
O523 C522 1.216 . S
H524 C519 0.930 . S
H525 C520 0.930 . S
O526 Cu506 1.959 . S
O526 C513 1.251 1_655 S
H527 C510 0.930 . S
H528 C521 0.929 . S
Cu529 N530 1.999 . S
Cu529 O535 1.974 . S
Cu529 N540 1.985 1_565 S
Cu529 O549 1.959 1_565 S
N530 Cu529 1.999 . S
N530 C532 1.263 . S
N530 C534 1.389 . S
N531 C532 1.358 . S
N531 C533 1.400 . S
C532 N530 1.263 . S
C532 N531 1.358 . S
C532 H538 0.930 . S
C533 N531 1.400 . S
C533 C534 1.351 . S
C533 H550 0.930 . S
C534 N530 1.389 . S
C534 C533 1.351 . S
C534 H539 0.930 1_565 S
O535 Cu529 1.974 . S
O535 C545 1.282 . S
C536 O537 1.261 . S
C536 O549 1.251 1_565 S
O537 C536 1.261 . S
H538 C532 0.930 . S
H539 C534 0.930 1_545 S
N540 Cu529 1.985 1_545 S
N540 C542 1.335 . S
N540 C543 1.390 . S
N541 C542 1.345 . S
N541 C544 1.336 . S
C542 N540 1.335 . S
C542 N541 1.345 . S
C542 H547 0.930 . S
C543 N540 1.390 . S
C543 C544 1.346 . S
C543 H548 0.930 1_545 S
C544 N541 1.336 . S
C544 C543 1.346 . S
C544 H551 0.929 . S
C545 O535 1.282 . S
C545 O546 1.216 . S
O546 C545 1.216 . S
H547 C542 0.930 . S
H548 C543 0.930 1_565 S
O549 Cu529 1.959 1_545 S
O549 C536 1.251 1_545 S
H550 C533 0.930 . S
H551 C544 0.929 . S
Cu552 N553 1.999 . S
Cu552 O558 1.974 . S
Cu552 N563 1.985 1_455 S
Cu552 O572 1.959 . S
N553 Cu552 1.999 . S
N553 C555 1.263 . S
N553 C557 1.389 . S
N554 C555 1.358 . S
N554 C556 1.400 . S
C555 N553 1.263 . S
C555 N554 1.358 . S
C555 H561 0.930 . S
C556 N554 1.400 . S
C556 C557 1.351 . S
C556 H573 0.930 . S
C557 N553 1.389 . S
C557 C556 1.351 . S
C557 H562 0.930 . S
O558 Cu552 1.974 . S
O558 C568 1.282 1_455 S
C559 O560 1.261 . S
C559 O572 1.251 1_655 S
O560 C559 1.261 . S
H561 C555 0.930 . S
H562 C557 0.930 . S
N563 Cu552 1.985 1_655 S
N563 C565 1.335 . S
N563 C566 1.390 . S
N564 C565 1.345 . S
N564 C567 1.336 . S
C565 N563 1.335 . S
C565 N564 1.345 . S
C565 H570 0.930 . S
C566 N563 1.390 . S
C566 C567 1.346 . S
C566 H571 0.930 . S
C567 N564 1.336 . S
C567 C566 1.346 . S
C567 H574 0.929 . S
C568 O558 1.282 1_655 S
C568 O569 1.216 . S
O569 C568 1.216 . S
H570 C565 0.930 . S
H571 C566 0.930 . S
O572 Cu552 1.959 . S
O572 C559 1.251 1_455 S
H573 C556 0.930 . S
H574 C567 0.929 . S
Cu575 N576 1.999 . S
Cu575 O581 1.974 . S
Cu575 N586 1.985 . S
Cu575 O595 1.959 . S
N576 Cu575 1.999 . S
N576 C578 1.263 . S
N576 C580 1.389 . S
N577 C578 1.358 . S
N577 C579 1.400 . S
C578 N576 1.263 . S
C578 N577 1.358 . S
C578 H584 0.930 . S
C579 N577 1.400 . S
C579 C580 1.351 . S
C579 H596 0.930 . S
C580 N576 1.389 . S
C580 C579 1.351 . S
C580 H585 0.930 . S
O581 Cu575 1.974 . S
O581 C591 1.282 . S
C582 O583 1.261 . S
C582 O595 1.251 . S
O583 C582 1.261 . S
H584 C578 0.930 . S
H585 C580 0.930 . S
N586 Cu575 1.985 . S
N586 C588 1.335 . S
N586 C589 1.390 . S
N587 C588 1.345 . S
N587 C590 1.336 . S
C588 N586 1.335 . S
C588 N587 1.345 . S
C588 H593 0.930 . S
C589 N586 1.390 . S
C589 C590 1.346 . S
C589 H594 0.930 . S
C590 N587 1.336 . S
C590 C589 1.346 . S
C590 H597 0.929 . S
C591 O581 1.282 . S
C591 O592 1.216 . S
O592 C591 1.216 . S
H593 C588 0.930 . S
H594 C589 0.930 . S
O595 Cu575 1.959 . S
O595 C582 1.251 . S
H596 C579 0.930 . S
H597 C590 0.929 . S
Cu598 N599 1.999 . S
Cu598 O604 1.974 . S
Cu598 N609 1.985 1_455 S
Cu598 O618 1.959 . S
N599 Cu598 1.999 . S
N599 C601 1.263 . S
N599 C603 1.389 . S
N600 C601 1.358 . S
N600 C602 1.400 . S
C601 N599 1.263 . S
C601 N600 1.358 . S
C601 H607 0.930 . S
C602 N600 1.400 . S
C602 C603 1.351 . S
C602 H619 0.930 . S
C603 N599 1.389 . S
C603 C602 1.351 . S
C603 H608 0.930 . S
O604 Cu598 1.974 . S
O604 C614 1.282 1_455 S
C605 O606 1.261 . S
C605 O618 1.251 1_655 S
O606 C605 1.261 . S
H607 C601 0.930 . S
H608 C603 0.930 . S
N609 Cu598 1.985 1_655 S
N609 C611 1.335 . S
N609 C612 1.390 . S
N610 C611 1.345 . S
N610 C613 1.336 . S
C611 N609 1.335 . S
C611 N610 1.345 . S
C611 H616 0.930 . S
C612 N609 1.390 . S
C612 C613 1.346 . S
C612 H617 0.930 . S
C613 N610 1.336 . S
C613 C612 1.346 . S
C613 H620 0.929 . S
C614 O604 1.282 1_655 S
C614 O615 1.216 . S
O615 C614 1.216 . S
H616 C611 0.930 . S
H617 C612 0.930 . S
O618 Cu598 1.959 . S
O618 C605 1.251 1_455 S
H619 C602 0.930 . S
H620 C613 0.929 . S
Cu621 N622 1.999 . S
Cu621 O627 1.974 . S
Cu621 N632 1.985 . S
Cu621 O641 1.959 . S
N622 Cu621 1.999 . S
N622 C624 1.263 . S
N622 C626 1.389 . S
N623 C624 1.358 . S
N623 C625 1.400 . S
C624 N622 1.263 . S
C624 N623 1.358 . S
C624 H630 0.930 . S
C625 N623 1.400 . S
C625 C626 1.351 . S
C625 H642 0.930 . S
C626 N622 1.389 . S
C626 C625 1.351 . S
C626 H631 0.930 . S
O627 Cu621 1.974 . S
O627 C637 1.282 . S
C628 O629 1.261 . S
C628 O641 1.251 . S
O629 C628 1.261 . S
H630 C624 0.930 . S
H631 C626 0.930 . S
N632 Cu621 1.985 . S
N632 C634 1.335 . S
N632 C635 1.390 . S
N633 C634 1.345 . S
N633 C636 1.336 . S
C634 N632 1.335 . S
C634 N633 1.345 . S
C634 H639 0.930 . S
C635 N632 1.390 . S
C635 C636 1.346 . S
C635 H640 0.930 . S
C636 N633 1.336 . S
C636 C635 1.346 . S
C636 H643 0.929 . S
C637 O627 1.282 . S
C637 O638 1.216 . S
O638 C637 1.216 . S
H639 C634 0.930 . S
H640 C635 0.930 . S
O641 Cu621 1.959 . S
O641 C628 1.251 . S
H642 C625 0.930 . S
H643 C636 0.929 . S
Cu644 N645 1.999 . S
Cu644 O650 1.974 . S
Cu644 N655 1.985 1_655 S
Cu644 O664 1.959 . S
N645 Cu644 1.999 . S
N645 C647 1.263 . S
N645 C649 1.389 . S
N646 C647 1.358 . S
N646 C648 1.400 . S
C647 N645 1.263 . S
C647 N646 1.358 . S
C647 H653 0.930 . S
C648 N646 1.400 . S
C648 C649 1.351 . S
C648 H665 0.930 . S
C649 N645 1.389 . S
C649 C648 1.351 . S
C649 H654 0.930 . S
O650 Cu644 1.974 . S
O650 C660 1.282 1_655 S
C651 O652 1.261 . S
C651 O664 1.251 1_455 S
O652 C651 1.261 . S
H653 C647 0.930 . S
H654 C649 0.930 . S
N655 Cu644 1.985 1_455 S
N655 C657 1.335 . S
N655 C658 1.390 . S
N656 C657 1.345 . S
N656 C659 1.336 . S
C657 N655 1.335 . S
C657 N656 1.345 . S
C657 H662 0.930 . S
C658 N655 1.390 . S
C658 C659 1.346 . S
C658 H663 0.930 . S
C659 N656 1.336 . S
C659 C658 1.346 . S
C659 H666 0.929 . S
C660 O650 1.282 1_455 S
C660 O661 1.216 . S
O661 C660 1.216 . S
H662 C657 0.930 . S
H663 C658 0.930 . S
O664 Cu644 1.959 . S
O664 C651 1.251 1_655 S
H665 C648 0.930 . S
H666 C659 0.929 . S
Cu667 N668 1.999 . S
Cu667 O673 1.974 . S
Cu667 N678 1.985 . S
Cu667 O687 1.959 . S
N668 Cu667 1.999 . S
N668 C670 1.263 . S
N668 C672 1.389 . S
N669 C670 1.358 . S
N669 C671 1.400 . S
C670 N668 1.263 . S
C670 N669 1.358 . S
C670 H676 0.930 . S
C671 N669 1.400 . S
C671 C672 1.351 . S
C671 H688 0.930 . S
C672 N668 1.389 . S
C672 C671 1.351 . S
C672 H677 0.930 . S
O673 Cu667 1.974 . S
O673 C683 1.282 . S
C674 O675 1.261 . S
C674 O687 1.251 . S
O675 C674 1.261 . S
H676 C670 0.930 . S
H677 C672 0.930 . S
N678 Cu667 1.985 . S
N678 C680 1.335 . S
N678 C681 1.390 . S
N679 C680 1.345 . S
N679 C682 1.336 . S
C680 N678 1.335 . S
C680 N679 1.345 . S
C680 H685 0.930 . S
C681 N678 1.390 . S
C681 C682 1.346 . S
C681 H686 0.930 . S
C682 N679 1.336 . S
C682 C681 1.346 . S
C682 H689 0.929 . S
C683 O673 1.282 . S
C683 O684 1.216 . S
O684 C683 1.216 . S
H685 C680 0.930 . S
H686 C681 0.930 . S
O687 Cu667 1.959 . S
O687 C674 1.251 . S
H688 C671 0.930 . S
H689 C682 0.929 . S
Cu690 N691 1.999 . S
Cu690 O696 1.974 . S
Cu690 N701 1.985 1_655 S
Cu690 O710 1.959 . S
N691 Cu690 1.999 . S
N691 C693 1.263 . S
N691 C695 1.389 . S
N692 C693 1.358 . S
N692 C694 1.400 . S
C693 N691 1.263 . S
C693 N692 1.358 . S
C693 H699 0.930 . S
C694 N692 1.400 . S
C694 C695 1.351 . S
C694 H711 0.930 . S
C695 N691 1.389 . S
C695 C694 1.351 . S
C695 H700 0.930 . S
O696 Cu690 1.974 . S
O696 C706 1.282 1_655 S
C697 O698 1.261 . S
C697 O710 1.251 1_455 S
O698 C697 1.261 . S
H699 C693 0.930 . S
H700 C695 0.930 . S
N701 Cu690 1.985 1_455 S
N701 C703 1.335 . S
N701 C704 1.390 . S
N702 C703 1.345 . S
N702 C705 1.336 . S
C703 N701 1.335 . S
C703 N702 1.345 . S
C703 H708 0.930 . S
C704 N701 1.390 . S
C704 C705 1.346 . S
C704 H709 0.930 . S
C705 N702 1.336 . S
C705 C704 1.346 . S
C705 H712 0.929 . S
C706 O696 1.282 1_455 S
C706 O707 1.216 . S
O707 C706 1.216 . S
H708 C703 0.930 . S
H709 C704 0.930 . S
O710 Cu690 1.959 . S
O710 C697 1.251 1_655 S
H711 C694 0.930 . S
H712 C705 0.929 . S
Cu713 N714 1.999 . S
Cu713 O719 1.974 . S
Cu713 N724 1.985 . S
Cu713 O733 1.959 . S
N714 Cu713 1.999 . S
N714 C716 1.263 . S
N714 C718 1.389 . S
N715 C716 1.358 . S
N715 C717 1.400 . S
C716 N714 1.263 . S
C716 N715 1.358 . S
C716 H722 0.930 . S
C717 N715 1.400 . S
C717 C718 1.351 . S
C717 H734 0.930 . S
C718 N714 1.389 . S
C718 C717 1.351 . S
C718 H723 0.930 . S
O719 Cu713 1.974 . S
O719 C729 1.282 . S
C720 O721 1.261 . S
C720 O733 1.251 . S
O721 C720 1.261 . S
H722 C716 0.930 . S
H723 C718 0.930 . S
N724 Cu713 1.985 . S
N724 C726 1.335 . S
N724 C727 1.390 . S
N725 C726 1.345 . S
N725 C728 1.336 . S
C726 N724 1.335 . S
C726 N725 1.345 . S
C726 H731 0.930 . S
C727 N724 1.390 . S
C727 C728 1.346 . S
C727 H732 0.930 . S
C728 N725 1.336 . S
C728 C727 1.346 . S
C728 H735 0.929 . S
C729 O719 1.282 . S
C729 O730 1.216 . S
O730 C729 1.216 . S
H731 C726 0.930 . S
H732 C727 0.930 . S
O733 Cu713 1.959 . S
O733 C720 1.251 . S
H734 C717 0.930 . S
H735 C728 0.929 . S
H736 C742 0.930 . S
H737 C745 0.930 . S
H738 C746 0.930 . S
H739 C747 0.930 . S
H740 C750 0.930 . S
H741 C751 0.930 . S
C742 H736 0.930 . S
C742 C743 1.355 . S
C742 C744 1.415 . S
C743 C742 1.355 . S
C743 C745 1.419 . S
C744 C742 1.415 . S
C744 C749 1.425 . S
C744 C751 1.409 . S
C745 H737 0.930 . S
C745 C743 1.419 . S
C745 C746 1.362 . S
C746 H738 0.930 . S
C746 C745 1.362 . S
C746 C749 1.409 . S
C747 H739 0.930 . S
C747 C748 1.355 . S
C747 C749 1.415 . S
C748 C747 1.355 . S
C748 C750 1.419 . S
C749 C744 1.425 . S
C749 C746 1.409 . S
C749 C747 1.415 . S
C750 H740 0.930 . S
C750 C748 1.419 . S
C750 C751 1.362 . S
C751 H741 0.930 . S
C751 C744 1.409 . S
C751 C750 1.362 . S
H752 C758 0.930 . S
H753 C761 0.930 . S
H754 C762 0.930 . S
H755 C763 0.930 . S
H756 C766 0.930 . S
H757 C767 0.930 . S
C758 H752 0.930 . S
C758 C759 1.355 . S
C758 C760 1.415 . S
C759 C758 1.355 . S
C759 C761 1.419 . S
C760 C758 1.415 . S
C760 C765 1.425 . S
C760 C767 1.409 . S
C761 H753 0.930 . S
C761 C759 1.419 . S
C761 C762 1.362 . S
C762 H754 0.930 . S
C762 C761 1.362 . S
C762 C765 1.409 . S
C763 H755 0.930 . S
C763 C764 1.355 . S
C763 C765 1.415 . S
C764 C763 1.355 . S
C764 C766 1.419 . S
C765 C760 1.425 . S
C765 C762 1.409 . S
C765 C763 1.415 . S
C766 H756 0.930 . S
C766 C764 1.419 . S
C766 C767 1.362 . S
C767 H757 0.930 . S
C767 C760 1.409 . S
C767 C766 1.362 . S
H768 C774 0.930 . S
H769 C777 0.930 . S
H770 C778 0.930 . S
H771 C779 0.930 . S
H772 C782 0.930 . S
H773 C783 0.930 . S
C774 H768 0.930 . S
C774 C775 1.355 . S
C774 C776 1.415 . S
C775 C774 1.355 . S
C775 C777 1.419 . S
C776 C774 1.415 . S
C776 C781 1.425 . S
C776 C783 1.409 . S
C777 H769 0.930 . S
C777 C775 1.419 . S
C777 C778 1.362 . S
C778 H770 0.930 . S
C778 C777 1.362 . S
C778 C781 1.409 . S
C779 H771 0.930 . S
C779 C780 1.355 . S
C779 C781 1.415 . S
C780 C779 1.355 . S
C780 C782 1.419 . S
C781 C776 1.425 . S
C781 C778 1.409 . S
C781 C779 1.415 . S
C782 H772 0.930 . S
C782 C780 1.419 . S
C782 C783 1.362 . S
C783 H773 0.930 . S
C783 C776 1.409 . S
C783 C782 1.362 . S
H784 C790 0.930 . S
H785 C793 0.930 . S
H786 C794 0.930 . S
H787 C795 0.930 . S
H788 C798 0.930 . S
H789 C799 0.930 . S
C790 H784 0.930 . S
C790 C791 1.355 . S
C790 C792 1.415 . S
C791 C790 1.355 . S
C791 C793 1.419 . S
C792 C790 1.415 . S
C792 C797 1.425 . S
C792 C799 1.409 . S
C793 H785 0.930 . S
C793 C791 1.419 . S
C793 C794 1.362 . S
C794 H786 0.930 . S
C794 C793 1.362 . S
C794 C797 1.409 . S
C795 H787 0.930 . S
C795 C796 1.355 . S
C795 C797 1.415 . S
C796 C795 1.355 . S
C796 C798 1.419 . S
C797 C792 1.425 . S
C797 C794 1.409 . S
C797 C795 1.415 . S
C798 H788 0.930 . S
C798 C796 1.419 . S
C798 C799 1.362 . S
C799 H789 0.930 . S
C799 C792 1.409 . S
C799 C798 1.362 . S
H800 C806 0.930 . S
H801 C809 0.930 . S
H802 C810 0.930 . S
H803 C811 0.930 . S
H804 C814 0.930 . S
H805 C815 0.930 . S
C806 H800 0.930 . S
C806 C807 1.355 . S
C806 C808 1.415 . S
C807 C806 1.355 . S
C807 C809 1.419 . S
C808 C806 1.415 . S
C808 C813 1.425 . S
C808 C815 1.409 . S
C809 H801 0.930 . S
C809 C807 1.419 . S
C809 C810 1.362 . S
C810 H802 0.930 . S
C810 C809 1.362 . S
C810 C813 1.409 . S
C811 H803 0.930 . S
C811 C812 1.355 . S
C811 C813 1.415 . S
C812 C811 1.355 . S
C812 C814 1.419 . S
C813 C808 1.425 . S
C813 C810 1.409 . S
C813 C811 1.415 . S
C814 H804 0.930 . S
C814 C812 1.419 . S
C814 C815 1.362 . S
C815 H805 0.930 . S
C815 C808 1.409 . S
C815 C814 1.362 . S
H816 C822 0.930 . S
H817 C825 0.930 . S
H818 C826 0.930 . S
H819 C827 0.930 . S
H820 C830 0.930 . S
H821 C831 0.930 . S
C822 H816 0.930 . S
C822 C823 1.355 . S
C822 C824 1.415 . S
C823 C822 1.355 . S
C823 C825 1.419 . S
C824 C822 1.415 . S
C824 C829 1.425 . S
C824 C831 1.409 . S
C825 H817 0.930 . S
C825 C823 1.419 . S
C825 C826 1.362 . S
C826 H818 0.930 . S
C826 C825 1.362 . S
C826 C829 1.409 . S
C827 H819 0.930 . S
C827 C828 1.355 . S
C827 C829 1.415 . S
C828 C827 1.355 . S
C828 C830 1.419 . S
C829 C824 1.425 . S
C829 C826 1.409 . S
C829 C827 1.415 . S
C830 H820 0.930 . S
C830 C828 1.419 . S
C830 C831 1.362 . S
C831 H821 0.930 . S
C831 C824 1.409 . S
C831 C830 1.362 . S
H832 C838 0.930 . S
H833 C841 0.930 . S
H834 C842 0.930 . S
H835 C843 0.930 . S
H836 C846 0.930 . S
H837 C847 0.930 . S
C838 H832 0.930 . S
C838 C839 1.355 . S
C838 C840 1.415 . S
C839 C838 1.355 . S
C839 C841 1.419 . S
C840 C838 1.415 . S
C840 C845 1.425 . S
C840 C847 1.409 . S
C841 H833 0.930 . S
C841 C839 1.419 . S
C841 C842 1.362 . S
C842 H834 0.930 . S
C842 C841 1.362 . S
C842 C845 1.409 . S
C843 H835 0.930 . S
C843 C844 1.355 . S
C843 C845 1.415 . S
C844 C843 1.355 . S
C844 C846 1.419 . S
C845 C840 1.425 . S
C845 C842 1.409 . S
C845 C843 1.415 . S
C846 H836 0.930 . S
C846 C844 1.419 . S
C846 C847 1.362 . S
C847 H837 0.930 . S
C847 C840 1.409 . S
C847 C846 1.362 . S
H848 C854 0.930 . S
H849 C857 0.930 . S
H850 C858 0.930 . S
H851 C859 0.930 . S
H852 C862 0.930 . S
H853 C863 0.930 . S
C854 H848 0.930 . S
C854 C855 1.355 . S
C854 C856 1.415 . S
C855 C854 1.355 . S
C855 C857 1.419 . S
C856 C854 1.415 . S
C856 C861 1.425 . S
C856 C863 1.409 . S
C857 H849 0.930 . S
C857 C855 1.419 . S
C857 C858 1.362 . S
C858 H850 0.930 . S
C858 C857 1.362 . S
C858 C861 1.409 . S
C859 H851 0.930 . S
C859 C860 1.355 . S
C859 C861 1.415 . S
C860 C859 1.355 . S
C860 C862 1.419 . S
C861 C856 1.425 . S
C861 C858 1.409 . S
C861 C859 1.415 . S
C862 H852 0.930 . S
C862 C860 1.419 . S
C862 C863 1.362 . S
C863 H853 0.930 . S
C863 C856 1.409 . S
C863 C862 1.362 . S
H864 C870 0.930 . S
H865 C873 0.930 . S
H866 C874 0.930 . S
H867 C875 0.930 . S
H868 C878 0.930 . S
H869 C879 0.930 . S
C870 H864 0.930 . S
C870 C871 1.355 1_455 S
C870 C872 1.415 . S
C871 C870 1.355 1_655 S
C871 C873 1.419 . S
C872 C870 1.415 . S
C872 C877 1.425 1_455 S
C872 C879 1.409 . S
C873 H865 0.930 . S
C873 C871 1.419 . S
C873 C874 1.362 . S
C874 H866 0.930 . S
C874 C873 1.362 . S
C874 C877 1.409 . S
C875 H867 0.930 . S
C875 C876 1.355 1_655 S
C875 C877 1.415 . S
C876 C875 1.355 1_455 S
C876 C878 1.419 . S
C877 C872 1.425 1_655 S
C877 C874 1.409 . S
C877 C875 1.415 . S
C878 H868 0.930 . S
C878 C876 1.419 . S
C878 C879 1.362 . S
C879 H869 0.930 . S
C879 C872 1.409 . S
C879 C878 1.362 . S
H880 C886 0.930 . S
H881 C889 0.930 . S
H882 C890 0.930 . S
H883 C891 0.930 . S
H884 C894 0.930 . S
H885 C895 0.930 . S
C886 H880 0.930 . S
C886 C887 1.355 . S
C886 C888 1.415 . S
C887 C886 1.355 . S
C887 C889 1.419 . S
C888 C886 1.415 . S
C888 C893 1.425 . S
C888 C895 1.409 . S
C889 H881 0.930 . S
C889 C887 1.419 . S
C889 C890 1.362 . S
C890 H882 0.930 . S
C890 C889 1.362 . S
C890 C893 1.409 . S
C891 H883 0.930 . S
C891 C892 1.355 . S
C891 C893 1.415 . S
C892 C891 1.355 . S
C892 C894 1.419 . S
C893 C888 1.425 . S
C893 C890 1.409 . S
C893 C891 1.415 . S
C894 H884 0.930 . S
C894 C892 1.419 . S
C894 C895 1.362 . S
C895 H885 0.930 . S
C895 C888 1.409 . S
C895 C894 1.362 . S
H896 C902 0.930 . S
H897 C905 0.930 . S
H898 C906 0.930 . S
H899 C907 0.930 . S
H900 C910 0.930 . S
H901 C911 0.930 . S
C902 H896 0.930 . S
C902 C903 1.356 . S
C902 C904 1.415 . S
C903 C902 1.356 . S
C903 C905 1.417 1_455 S
C904 C902 1.415 . S
C904 C909 1.425 1_455 S
C904 C911 1.409 . S
C905 H897 0.930 . S
C905 C903 1.417 1_655 S
C905 C906 1.362 . S
C906 H898 0.930 . S
C906 C905 1.362 . S
C906 C909 1.409 . S
C907 H899 0.930 . S
C907 C908 1.356 . S
C907 C909 1.415 . S
C908 C907 1.356 . S
C908 C910 1.418 1_655 S
C909 C904 1.425 1_655 S
C909 C906 1.409 . S
C909 C907 1.415 . S
C910 H900 0.930 . S
C910 C908 1.418 1_455 S
C910 C911 1.362 . S
C911 H901 0.930 . S
C911 C904 1.409 . S
C911 C910 1.362 . S
H912 C918 0.930 . S
H913 C921 0.930 . S
H914 C922 0.930 . S
H915 C923 0.930 . S
H916 C926 0.930 . S
H917 C927 0.930 . S
C918 H912 0.930 . S
C918 C919 1.355 . S
C918 C920 1.415 . S
C919 C918 1.355 . S
C919 C921 1.419 . S
C920 C918 1.415 . S
C920 C925 1.425 . S
C920 C927 1.409 . S
C921 H913 0.930 . S
C921 C919 1.419 . S
C921 C922 1.362 . S
C922 H914 0.930 . S
C922 C921 1.362 . S
C922 C925 1.409 . S
C923 H915 0.930 . S
C923 C924 1.355 . S
C923 C925 1.415 . S
C924 C923 1.355 . S
C924 C926 1.419 . S
C925 C920 1.425 . S
C925 C922 1.409 . S
C925 C923 1.415 . S
C926 H916 0.930 . S
C926 C924 1.419 . S
C926 C927 1.362 . S
C927 H917 0.930 . S
C927 C920 1.409 . S
C927 C926 1.362 . S
H928 C934 0.930 . S
H929 C937 0.930 . S
H930 C938 0.930 . S
H931 C939 0.930 . S
H932 C942 0.930 . S
H933 C943 0.930 . S
C934 H928 0.930 . S
C934 C935 1.355 1_455 S
C934 C936 1.415 . S
C935 C934 1.355 1_655 S
C935 C937 1.419 . S
C936 C934 1.415 . S
C936 C941 1.425 1_455 S
C936 C943 1.409 . S
C937 H929 0.930 . S
C937 C935 1.419 . S
C937 C938 1.362 . S
C938 H930 0.930 . S
C938 C937 1.362 . S
C938 C941 1.409 . S
C939 H931 0.930 . S
C939 C940 1.355 1_655 S
C939 C941 1.415 . S
C940 C939 1.355 1_455 S
C940 C942 1.419 . S
C941 C936 1.425 1_655 S
C941 C938 1.409 . S
C941 C939 1.415 . S
C942 H932 0.930 . S
C942 C940 1.419 . S
C942 C943 1.362 . S
C943 H933 0.930 . S
C943 C936 1.409 . S
C943 C942 1.362 . S
H944 C950 0.930 . S
H945 C953 0.930 . S
H946 C954 0.930 . S
H947 C955 0.930 . S
H948 C958 0.930 . S
H949 C959 0.930 . S
C950 H944 0.930 . S
C950 C951 1.355 . S
C950 C952 1.415 . S
C951 C950 1.355 . S
C951 C953 1.419 . S
C952 C950 1.415 . S
C952 C957 1.425 . S
C952 C959 1.409 . S
C953 H945 0.930 . S
C953 C951 1.419 . S
C953 C954 1.362 . S
C954 H946 0.930 . S
C954 C953 1.362 . S
C954 C957 1.409 . S
C955 H947 0.930 . S
C955 C956 1.355 . S
C955 C957 1.415 . S
C956 C955 1.355 . S
C956 C958 1.419 . S
C957 C952 1.425 . S
C957 C954 1.409 . S
C957 C955 1.415 . S
C958 H948 0.930 . S
C958 C956 1.419 . S
C958 C959 1.362 . S
C959 H949 0.930 . S
C959 C952 1.409 . S
C959 C958 1.362 . S
H960 C966 0.930 . S
H961 C969 0.930 . S
H962 C970 0.930 . S
H963 C971 0.930 . S
H964 C974 0.930 . S
H965 C975 0.930 . S
C966 H960 0.930 . S
C966 C967 1.355 1_455 S
C966 C968 1.415 . S
C967 C966 1.355 1_655 S
C967 C969 1.419 . S
C968 C966 1.415 . S
C968 C973 1.425 1_455 S
C968 C975 1.409 . S
C969 H961 0.930 . S
C969 C967 1.419 . S
C969 C970 1.362 . S
C970 H962 0.930 . S
C970 C969 1.362 . S
C970 C973 1.409 . S
C971 H963 0.930 . S
C971 C972 1.355 1_655 S
C971 C973 1.415 . S
C972 C971 1.355 1_455 S
C972 C974 1.419 . S
C973 C968 1.425 1_655 S
C973 C970 1.409 . S
C973 C971 1.415 . S
C974 H964 0.930 . S
C974 C972 1.419 . S
C974 C975 1.362 . S
C975 H965 0.930 . S
C975 C968 1.409 . S
C975 C974 1.362 . S
H976 C982 0.930 . S
H977 C985 0.930 . S
H978 C986 0.930 . S
H979 C987 0.930 . S
H980 C990 0.930 . S
H981 C991 0.930 . S
C982 H976 0.930 . S
C982 C983 1.355 . S
C982 C984 1.415 . S
C983 C982 1.355 . S
C983 C985 1.419 . S
C984 C982 1.415 . S
C984 C989 1.425 . S
C984 C991 1.409 . S
C985 H977 0.930 . S
C985 C983 1.419 . S
C985 C986 1.362 . S
C986 H978 0.930 . S
C986 C985 1.362 . S
C986 C989 1.409 . S
C987 H979 0.930 . S
C987 C988 1.355 . S
C987 C989 1.415 . S
C988 C987 1.355 . S
C988 C990 1.419 . S
C989 C984 1.425 . S
C989 C986 1.409 . S
C989 C987 1.415 . S
C990 H980 0.930 . S
C990 C988 1.419 . S
C990 C991 1.362 . S
C991 H981 0.930 . S
C991 C984 1.409 . S
C991 C990 1.362 . S
H992 C998 0.930 . S
H993 C1001 0.930 . S
H994 C1002 0.930 . S
H995 C1003 0.930 . S
H996 C1006 0.930 . S
H997 C1007 0.930 . S
C998 H992 0.930 . S
C998 C999 1.355 . S
C998 C1000 1.415 . S
C999 C998 1.355 . S
C999 C1001 1.419 . S
C1000 C998 1.415 . S
C1000 C1005 1.425 . S
C1000 C1007 1.409 . S
C1001 H993 0.930 . S
C1001 C999 1.419 . S
C1001 C1002 1.362 . S
C1002 H994 0.930 . S
C1002 C1001 1.362 . S
C1002 C1005 1.409 . S
C1003 H995 0.930 . S
C1003 C1004 1.355 . S
C1003 C1005 1.415 . S
C1004 C1003 1.355 . S
C1004 C1006 1.419 . S
C1005 C1000 1.425 . S
C1005 C1002 1.409 . S
C1005 C1003 1.415 . S
C1006 H996 0.930 . S
C1006 C1004 1.419 . S
C1006 C1007 1.362 . S
C1007 H997 0.930 . S
C1007 C1000 1.409 . S
C1007 C1006 1.362 . S
H1008 C1014 0.930 . S
H1009 C1017 0.930 . S
H1010 C1018 0.930 . S
H1011 C1019 0.930 . S
H1012 C1022 0.930 . S
H1013 C1023 0.930 . S
C1014 H1008 0.930 . S
C1014 C1015 1.355 . S
C1014 C1016 1.415 . S
C1015 C1014 1.355 . S
C1015 C1017 1.419 . S
C1016 C1014 1.415 . S
C1016 C1021 1.425 . S
C1016 C1023 1.409 . S
C1017 H1009 0.930 . S
C1017 C1015 1.419 . S
C1017 C1018 1.362 . S
C1018 H1010 0.930 . S
C1018 C1017 1.362 . S
C1018 C1021 1.409 . S
C1019 H1011 0.930 . S
C1019 C1020 1.355 . S
C1019 C1021 1.415 . S
C1020 C1019 1.355 . S
C1020 C1022 1.419 . S
C1021 C1016 1.425 . S
C1021 C1018 1.409 . S
C1021 C1019 1.415 . S
C1022 H1012 0.930 . S
C1022 C1020 1.419 . S
C1022 C1023 1.362 . S
C1023 H1013 0.930 . S
C1023 C1016 1.409 . S
C1023 C1022 1.362 . S
H1024 C1030 0.930 . S
H1025 C1033 0.930 . S
H1026 C1034 0.930 . S
H1027 C1035 0.930 . S
H1028 C1038 0.930 . S
H1029 C1039 0.930 . S
C1030 H1024 0.930 . S
C1030 C1031 1.355 . S
C1030 C1032 1.415 . S
C1031 C1030 1.355 . S
C1031 C1033 1.419 . S
C1032 C1030 1.415 . S
C1032 C1037 1.425 . S
C1032 C1039 1.409 . S
C1033 H1025 0.930 . S
C1033 C1031 1.419 . S
C1033 C1034 1.362 . S
C1034 H1026 0.930 . S
C1034 C1033 1.362 . S
C1034 C1037 1.409 . S
C1035 H1027 0.930 . S
C1035 C1036 1.355 . S
C1035 C1037 1.415 . S
C1036 C1035 1.355 . S
C1036 C1038 1.419 . S
C1037 C1032 1.425 . S
C1037 C1034 1.409 . S
C1037 C1035 1.415 . S
C1038 H1028 0.930 . S
C1038 C1036 1.419 . S
C1038 C1039 1.362 . S
C1039 H1029 0.930 . S
C1039 C1032 1.409 . S
C1039 C1038 1.362 . S
H1040 C1046 0.930 . S
H1041 C1049 0.930 . S
H1042 C1050 0.930 . S
H1043 C1051 0.930 . S
H1044 C1054 0.930 . S
H1045 C1055 0.930 . S
C1046 H1040 0.930 . S
C1046 C1047 1.355 . S
C1046 C1048 1.415 . S
C1047 C1046 1.355 . S
C1047 C1049 1.419 . S
C1048 C1046 1.415 . S
C1048 C1053 1.425 . S
C1048 C1055 1.409 . S
C1049 H1041 0.930 . S
C1049 C1047 1.419 . S
C1049 C1050 1.362 . S
C1050 H1042 0.930 . S
C1050 C1049 1.362 . S
C1050 C1053 1.409 . S
C1051 H1043 0.930 . S
C1051 C1052 1.355 . S
C1051 C1053 1.415 . S
C1052 C1051 1.355 . S
C1052 C1054 1.419 . S
C1053 C1048 1.425 . S
C1053 C1050 1.409 . S
C1053 C1051 1.415 . S
C1054 H1044 0.930 . S
C1054 C1052 1.419 . S
C1054 C1055 1.362 . S
C1055 H1045 0.930 . S
C1055 C1048 1.409 . S
C1055 C1054 1.362 . S
H1056 C1062 0.930 . S
H1057 C1065 0.930 . S
H1058 C1066 0.930 . S
H1059 C1067 0.930 . S
H1060 C1070 0.930 . S
H1061 C1071 0.930 . S
C1062 H1056 0.930 . S
C1062 C1063 1.355 . S
C1062 C1064 1.415 . S
C1063 C1062 1.355 . S
C1063 C1065 1.419 . S
C1064 C1062 1.415 . S
C1064 C1069 1.425 . S
C1064 C1071 1.409 . S
C1065 H1057 0.930 . S
C1065 C1063 1.419 . S
C1065 C1066 1.362 . S
C1066 H1058 0.930 . S
C1066 C1065 1.362 . S
C1066 C1069 1.409 . S
C1067 H1059 0.930 . S
C1067 C1068 1.355 . S
C1067 C1069 1.415 . S
C1068 C1067 1.355 . S
C1068 C1070 1.419 . S
C1069 C1064 1.425 . S
C1069 C1066 1.409 . S
C1069 C1067 1.415 . S
C1070 H1060 0.930 . S
C1070 C1068 1.419 . S
C1070 C1071 1.362 . S
C1071 H1061 0.930 . S
C1071 C1064 1.409 . S
C1071 C1070 1.362 . S
H1072 C1078 0.930 . S
H1073 C1081 0.930 . S
H1074 C1082 0.930 . S
H1075 C1083 0.930 . S
H1076 C1086 0.930 . S
H1077 C1087 0.930 . S
C1078 H1072 0.930 . S
C1078 C1079 1.355 . S
C1078 C1080 1.415 . S
C1079 C1078 1.355 . S
C1079 C1081 1.419 . S
C1080 C1078 1.415 . S
C1080 C1085 1.425 . S
C1080 C1087 1.409 . S
C1081 H1073 0.930 . S
C1081 C1079 1.419 . S
C1081 C1082 1.362 . S
C1082 H1074 0.930 . S
C1082 C1081 1.362 . S
C1082 C1085 1.409 . S
C1083 H1075 0.930 . S
C1083 C1084 1.355 . S
C1083 C1085 1.415 . S
C1084 C1083 1.355 . S
C1084 C1086 1.419 . S
C1085 C1080 1.425 . S
C1085 C1082 1.409 . S
C1085 C1083 1.415 . S
C1086 H1076 0.930 . S
C1086 C1084 1.419 . S
C1086 C1087 1.362 . S
C1087 H1077 0.930 . S
C1087 C1080 1.409 . S
C1087 C1086 1.362 . S
H1088 C1094 0.930 . S
H1089 C1097 0.930 . S
H1090 C1098 0.930 . S
H1091 C1099 0.930 . S
H1092 C1102 0.930 . S
H1093 C1103 0.930 . S
C1094 H1088 0.930 . S
C1094 C1095 1.355 . S
C1094 C1096 1.415 . S
C1095 C1094 1.355 . S
C1095 C1097 1.419 . S
C1096 C1094 1.415 . S
C1096 C1101 1.425 . S
C1096 C1103 1.409 . S
C1097 H1089 0.930 . S
C1097 C1095 1.419 . S
C1097 C1098 1.362 . S
C1098 H1090 0.930 . S
C1098 C1097 1.362 . S
C1098 C1101 1.409 . S
C1099 H1091 0.930 . S
C1099 C1100 1.355 . S
C1099 C1101 1.415 . S
C1100 C1099 1.355 . S
C1100 C1102 1.419 . S
C1101 C1096 1.425 . S
C1101 C1098 1.409 . S
C1101 C1099 1.415 . S
C1102 H1092 0.930 . S
C1102 C1100 1.419 . S
C1102 C1103 1.362 . S
C1103 H1093 0.930 . S
C1103 C1096 1.409 . S
C1103 C1102 1.362 . S
H1104 C1110 0.930 . S
H1105 C1113 0.930 . S
H1106 C1114 0.930 . S
H1107 C1115 0.930 . S
H1108 C1118 0.930 . S
H1109 C1119 0.930 . S
C1110 H1104 0.930 . S
C1110 C1111 1.355 . S
C1110 C1112 1.415 . S
C1111 C1110 1.355 . S
C1111 C1113 1.419 . S
C1112 C1110 1.415 . S
C1112 C1117 1.425 . S
C1112 C1119 1.409 . S
C1113 H1105 0.930 . S
C1113 C1111 1.419 . S
C1113 C1114 1.362 . S
C1114 H1106 0.930 . S
C1114 C1113 1.362 . S
C1114 C1117 1.409 . S
C1115 H1107 0.930 . S
C1115 C1116 1.355 . S
C1115 C1117 1.415 . S
C1116 C1115 1.355 . S
C1116 C1118 1.419 . S
C1117 C1112 1.425 . S
C1117 C1114 1.409 . S
C1117 C1115 1.415 . S
C1118 H1108 0.930 . S
C1118 C1116 1.419 . S
C1118 C1119 1.362 . S
C1119 H1109 0.930 . S
C1119 C1112 1.409 . S
C1119 C1118 1.362 . S
H1120 C1126 0.930 . S
H1121 C1129 0.930 . S
H1122 C1130 0.930 . S
H1123 C1131 0.930 . S
H1124 C1134 0.930 . S
H1125 C1135 0.930 . S
C1126 H1120 0.930 . S
C1126 C1127 1.355 . S
C1126 C1128 1.415 . S
C1127 C1126 1.355 . S
C1127 C1129 1.419 . S
C1128 C1126 1.415 . S
C1128 C1133 1.425 . S
C1128 C1135 1.409 . S
C1129 H1121 0.930 . S
C1129 C1127 1.419 . S
C1129 C1130 1.362 . S
C1130 H1122 0.930 . S
C1130 C1129 1.362 . S
C1130 C1133 1.409 . S
C1131 H1123 0.930 . S
C1131 C1132 1.355 . S
C1131 C1133 1.415 . S
C1132 C1131 1.355 . S
C1132 C1134 1.419 . S
C1133 C1128 1.425 . S
C1133 C1130 1.409 . S
C1133 C1131 1.415 . S
C1134 H1124 0.930 . S
C1134 C1132 1.419 . S
C1134 C1135 1.362 . S
C1135 H1125 0.930 . S
C1135 C1128 1.409 . S
C1135 C1134 1.362 . S
H1136 C1142 0.930 . S
H1137 C1145 0.930 . S
H1138 C1146 0.930 . S
H1139 C1147 0.930 . S
H1140 C1150 0.930 . S
H1141 C1151 0.930 . S
C1142 H1136 0.930 . S
C1142 C1143 1.355 . S
C1142 C1144 1.415 . S
C1143 C1142 1.355 . S
C1143 C1145 1.419 . S
C1144 C1142 1.415 . S
C1144 C1149 1.425 . S
C1144 C1151 1.409 . S
C1145 H1137 0.930 . S
C1145 C1143 1.419 . S
C1145 C1146 1.362 . S
C1146 H1138 0.930 . S
C1146 C1145 1.362 . S
C1146 C1149 1.409 . S
C1147 H1139 0.930 . S
C1147 C1148 1.355 . S
C1147 C1149 1.415 . S
C1148 C1147 1.355 . S
C1148 C1150 1.419 . S
C1149 C1144 1.425 . S
C1149 C1146 1.409 . S
C1149 C1147 1.415 . S
C1150 H1140 0.930 . S
C1150 C1148 1.419 . S
C1150 C1151 1.362 . S
C1151 H1141 0.930 . S
C1151 C1144 1.409 . S
C1151 C1150 1.362 . S
H1152 C1158 0.930 . S
H1153 C1161 0.930 . S
H1154 C1162 0.930 . S
H1155 C1163 0.930 . S
H1156 C1166 0.930 . S
H1157 C1167 0.930 . S
C1158 H1152 0.930 . S
C1158 C1159 1.355 . S
C1158 C1160 1.415 . S
C1159 C1158 1.355 . S
C1159 C1161 1.419 . S
C1160 C1158 1.415 . S
C1160 C1165 1.425 . S
C1160 C1167 1.409 . S
C1161 H1153 0.930 . S
C1161 C1159 1.419 . S
C1161 C1162 1.362 . S
C1162 H1154 0.930 . S
C1162 C1161 1.362 . S
C1162 C1165 1.409 . S
C1163 H1155 0.930 . S
C1163 C1164 1.355 . S
C1163 C1165 1.415 . S
C1164 C1163 1.355 . S
C1164 C1166 1.419 . S
C1165 C1160 1.425 . S
C1165 C1162 1.409 . S
C1165 C1163 1.415 . S
C1166 H1156 0.930 . S
C1166 C1164 1.419 . S
C1166 C1167 1.362 . S
C1167 H1157 0.930 . S
C1167 C1160 1.409 . S
C1167 C1166 1.362 . S
H1168 C1174 0.930 . S
H1169 C1177 0.930 . S
H1170 C1178 0.930 . S
H1171 C1179 0.930 . S
H1172 C1182 0.930 . S
H1173 C1183 0.930 . S
C1174 H1168 0.930 . S
C1174 C1175 1.355 . S
C1174 C1176 1.415 . S
C1175 C1174 1.355 . S
C1175 C1177 1.419 . S
C1176 C1174 1.415 . S
C1176 C1181 1.425 . S
C1176 C1183 1.409 . S
C1177 H1169 0.930 . S
C1177 C1175 1.419 . S
C1177 C1178 1.362 . S
C1178 H1170 0.930 . S
C1178 C1177 1.362 . S
C1178 C1181 1.409 . S
C1179 H1171 0.930 . S
C1179 C1180 1.355 . S
C1179 C1181 1.415 . S
C1180 C1179 1.355 . S
C1180 C1182 1.419 . S
C1181 C1176 1.425 . S
C1181 C1178 1.409 . S
C1181 C1179 1.415 . S
C1182 H1172 0.930 . S
C1182 C1180 1.419 . S
C1182 C1183 1.362 . S
C1183 H1173 0.930 . S
C1183 C1176 1.409 . S
C1183 C1182 1.362 . S
H1184 C1190 0.930 . S
H1185 C1193 0.930 . S
H1186 C1194 0.930 . S
H1187 C1195 0.930 . S
H1188 C1198 0.930 . S
H1189 C1199 0.930 . S
C1190 H1184 0.930 . S
C1190 C1191 1.355 . S
C1190 C1192 1.415 . S
C1191 C1190 1.355 . S
C1191 C1193 1.419 . S
C1192 C1190 1.415 . S
C1192 C1197 1.425 . S
C1192 C1199 1.409 . S
C1193 H1185 0.930 . S
C1193 C1191 1.419 . S
C1193 C1194 1.362 . S
C1194 H1186 0.930 . S
C1194 C1193 1.362 . S
C1194 C1197 1.409 . S
C1195 H1187 0.930 . S
C1195 C1196 1.355 . S
C1195 C1197 1.415 . S
C1196 C1195 1.355 . S
C1196 C1198 1.419 . S
C1197 C1192 1.425 . S
C1197 C1194 1.409 . S
C1197 C1195 1.415 . S
C1198 H1188 0.930 . S
C1198 C1196 1.419 . S
C1198 C1199 1.362 . S
C1199 H1189 0.930 . S
C1199 C1192 1.409 . S
C1199 C1198 1.362 . S
H1200 C1206 0.930 . S
H1201 C1209 0.930 . S
H1202 C1210 0.930 . S
H1203 C1211 0.930 . S
H1204 C1214 0.930 . S
H1205 C1215 0.930 . S
C1206 H1200 0.930 . S
C1206 C1207 1.355 . S
C1206 C1208 1.415 . S
C1207 C1206 1.355 . S
C1207 C1209 1.419 . S
C1208 C1206 1.415 . S
C1208 C1213 1.425 . S
C1208 C1215 1.409 . S
C1209 H1201 0.930 . S
C1209 C1207 1.419 . S
C1209 C1210 1.362 . S
C1210 H1202 0.930 . S
C1210 C1209 1.362 . S
C1210 C1213 1.409 . S
C1211 H1203 0.930 . S
C1211 C1212 1.355 . S
C1211 C1213 1.415 . S
C1212 C1211 1.355 . S
C1212 C1214 1.419 . S
C1213 C1208 1.425 . S
C1213 C1210 1.409 . S
C1213 C1211 1.415 . S
C1214 H1204 0.930 . S
C1214 C1212 1.419 . S
C1214 C1215 1.362 . S
C1215 H1205 0.930 . S
C1215 C1208 1.409 . S
C1215 C1214 1.362 . S
H1216 C1222 0.930 . S
H1217 C1225 0.930 . S
H1218 C1226 0.930 . S
H1219 C1227 0.930 . S
H1220 C1230 0.930 . S
H1221 C1231 0.930 . S
C1222 H1216 0.930 . S
C1222 C1223 1.355 . S
C1222 C1224 1.415 . S
C1223 C1222 1.355 . S
C1223 C1225 1.419 . S
C1224 C1222 1.415 . S
C1224 C1229 1.425 . S
C1224 C1231 1.409 . S
C1225 H1217 0.930 . S
C1225 C1223 1.419 . S
C1225 C1226 1.362 . S
C1226 H1218 0.930 . S
C1226 C1225 1.362 . S
C1226 C1229 1.409 . S
C1227 H1219 0.930 . S
C1227 C1228 1.355 . S
C1227 C1229 1.415 . S
C1228 C1227 1.355 . S
C1228 C1230 1.419 . S
C1229 C1224 1.425 . S
C1229 C1226 1.409 . S
C1229 C1227 1.415 . S
C1230 H1220 0.930 . S
C1230 C1228 1.419 . S
C1230 C1231 1.362 . S
C1231 H1221 0.930 . S
C1231 C1224 1.409 . S
C1231 C1230 1.362 . S
H1232 C1238 0.930 . S
H1233 C1241 0.930 . S
H1234 C1242 0.930 . S
H1235 C1243 0.930 . S
H1236 C1246 0.930 . S
H1237 C1247 0.930 . S
C1238 H1232 0.930 . S
C1238 C1239 1.355 . S
C1238 C1240 1.415 . S
C1239 C1238 1.355 . S
C1239 C1241 1.419 . S
C1240 C1238 1.415 . S
C1240 C1245 1.425 . S
C1240 C1247 1.409 . S
C1241 H1233 0.930 . S
C1241 C1239 1.419 . S
C1241 C1242 1.362 . S
C1242 H1234 0.930 . S
C1242 C1241 1.362 . S
C1242 C1245 1.409 . S
C1243 H1235 0.930 . S
C1243 C1244 1.355 . S
C1243 C1245 1.415 . S
C1244 C1243 1.355 . S
C1244 C1246 1.419 . S
C1245 C1240 1.425 . S
C1245 C1242 1.409 . S
C1245 C1243 1.415 . S
C1246 H1236 0.930 . S
C1246 C1244 1.419 . S
C1246 C1247 1.362 . S
C1247 H1237 0.930 . S
C1247 C1240 1.409 . S
C1247 C1246 1.362 . S
H1248 C1254 0.930 . S
H1249 C1257 0.930 . S
H1250 C1258 0.930 . S
H1251 C1259 0.930 . S
H1252 C1262 0.930 . S
H1253 C1263 0.930 . S
C1254 H1248 0.930 . S
C1254 C1255 1.355 1_545 S
C1254 C1256 1.415 . S
C1255 C1254 1.355 1_565 S
C1255 C1257 1.419 . S
C1256 C1254 1.415 . S
C1256 C1261 1.425 1_544 S
C1256 C1263 1.409 1_554 S
C1257 H1249 0.930 . S
C1257 C1255 1.419 . S
C1257 C1258 1.362 . S
C1258 H1250 0.930 . S
C1258 C1257 1.362 . S
C1258 C1261 1.409 1_554 S
C1259 H1251 0.930 . S
C1259 C1260 1.355 1_565 S
C1259 C1261 1.415 . S
C1260 C1259 1.355 1_545 S
C1260 C1262 1.419 . S
C1261 C1256 1.425 1_566 S
C1261 C1258 1.409 1_556 S
C1261 C1259 1.415 . S
C1262 H1252 0.930 . S
C1262 C1260 1.419 . S
C1262 C1263 1.362 . S
C1263 H1253 0.930 . S
C1263 C1256 1.409 1_556 S
C1263 C1262 1.362 . S
H1264 C1270 0.930 . S
H1265 C1273 0.930 . S
H1266 C1274 0.930 . S
H1267 C1275 0.930 . S
H1268 C1278 0.930 . S
H1269 C1279 0.930 . S
C1270 H1264 0.930 . S
C1270 C1271 1.355 . S
C1270 C1272 1.415 . S
C1271 C1270 1.355 . S
C1271 C1273 1.419 . S
C1272 C1270 1.415 . S
C1272 C1277 1.425 1_554 S
C1272 C1279 1.409 1_554 S
C1273 H1265 0.930 . S
C1273 C1271 1.419 . S
C1273 C1274 1.362 . S
C1274 H1266 0.930 . S
C1274 C1273 1.362 . S
C1274 C1277 1.409 1_554 S
C1275 H1267 0.930 . S
C1275 C1276 1.355 . S
C1275 C1277 1.415 . S
C1276 C1275 1.355 . S
C1276 C1278 1.419 . S
C1277 C1272 1.425 1_556 S
C1277 C1274 1.409 1_556 S
C1277 C1275 1.415 . S
C1278 H1268 0.930 . S
C1278 C1276 1.419 . S
C1278 C1279 1.362 . S
C1279 H1269 0.930 . S
C1279 C1272 1.409 1_556 S
C1279 C1278 1.362 . S
H1280 C1286 0.930 . S
H1281 C1289 0.930 . S
H1282 C1290 0.930 . S
H1283 C1291 0.930 . S
H1284 C1294 0.930 . S
H1285 C1295 0.930 . S
C1286 H1280 0.930 . S
C1286 C1287 1.355 . S
C1286 C1288 1.415 . S
C1287 C1286 1.355 . S
C1287 C1289 1.419 . S
C1288 C1286 1.415 . S
C1288 C1293 1.425 . S
C1288 C1295 1.409 . S
C1289 H1281 0.930 . S
C1289 C1287 1.419 . S
C1289 C1290 1.362 . S
C1290 H1282 0.930 . S
C1290 C1289 1.362 . S
C1290 C1293 1.409 . S
C1291 H1283 0.930 . S
C1291 C1292 1.355 . S
C1291 C1293 1.415 . S
C1292 C1291 1.355 . S
C1292 C1294 1.419 . S
C1293 C1288 1.425 . S
C1293 C1290 1.409 . S
C1293 C1291 1.415 . S
C1294 H1284 0.930 . S
C1294 C1292 1.419 . S
C1294 C1295 1.362 . S
C1295 H1285 0.930 . S
C1295 C1288 1.409 . S
C1295 C1294 1.362 . S
H1296 C1302 0.930 . S
H1297 C1305 0.930 . S
H1298 C1306 0.930 . S
H1299 C1307 0.930 . S
H1300 C1310 0.930 . S
H1301 C1311 0.930 . S
C1302 H1296 0.930 . S
C1302 C1303 1.353 . S
C1302 C1304 1.415 . S
C1303 C1302 1.353 . S
C1303 C1305 1.421 1_565 S
C1304 C1302 1.415 . S
C1304 C1309 1.425 1_565 S
C1304 C1311 1.409 . S
C1305 H1297 0.930 . S
C1305 C1303 1.421 1_545 S
C1305 C1306 1.362 . S
C1306 H1298 0.930 . S
C1306 C1305 1.362 . S
C1306 C1309 1.409 . S
C1307 H1299 0.930 . S
C1307 C1308 1.368 . S
C1307 C1309 1.415 . S
C1308 C1307 1.368 . S
C1308 C1310 1.401 1_545 S
C1309 C1304 1.425 1_545 S
C1309 C1306 1.409 . S
C1309 C1307 1.415 . S
C1310 H1300 0.930 . S
C1310 C1308 1.401 1_565 S
C1310 C1311 1.362 . S
C1311 H1301 0.930 . S
C1311 C1304 1.409 . S
C1311 C1310 1.362 . S
H1312 C1318 0.930 . S
H1313 C1321 0.930 . S
H1314 C1322 0.930 . S
H1315 C1323 0.930 . S
H1316 C1326 0.930 . S
H1317 C1327 0.930 . S
C1318 H1312 0.930 . S
C1318 C1319 1.355 . S
C1318 C1320 1.415 . S
C1319 C1318 1.355 . S
C1319 C1321 1.419 . S
C1320 C1318 1.415 . S
C1320 C1325 1.425 1_556 S
C1320 C1327 1.409 1_556 S
C1321 H1313 0.930 . S
C1321 C1319 1.419 . S
C1321 C1322 1.362 . S
C1322 H1314 0.930 . S
C1322 C1321 1.362 . S
C1322 C1325 1.409 1_556 S
C1323 H1315 0.930 . S
C1323 C1324 1.355 . S
C1323 C1325 1.415 . S
C1324 C1323 1.355 . S
C1324 C1326 1.419 . S
C1325 C1320 1.425 1_554 S
C1325 C1322 1.409 1_554 S
C1325 C1323 1.415 . S
C1326 H1316 0.930 . S
C1326 C1324 1.419 . S
C1326 C1327 1.362 . S
C1327 H1317 0.930 . S
C1327 C1320 1.409 1_554 S
C1327 C1326 1.362 . S
H1328 C1334 0.930 . S
H1329 C1337 0.930 . S
H1330 C1338 0.930 . S
H1331 C1339 0.930 . S
H1332 C1342 0.930 . S
H1333 C1343 0.930 . S
C1334 H1328 0.930 . S
C1334 C1335 1.355 . S
C1334 C1336 1.415 . S
C1335 C1334 1.355 . S
C1335 C1337 1.419 . S
C1336 C1334 1.415 . S
C1336 C1341 1.425 . S
C1336 C1343 1.409 . S
C1337 H1329 0.930 . S
C1337 C1335 1.419 . S
C1337 C1338 1.362 . S
C1338 H1330 0.930 . S
C1338 C1337 1.362 . S
C1338 C1341 1.409 . S
C1339 H1331 0.930 . S
C1339 C1340 1.355 . S
C1339 C1341 1.415 . S
C1340 C1339 1.355 . S
C1340 C1342 1.419 . S
C1341 C1336 1.425 . S
C1341 C1338 1.409 . S
C1341 C1339 1.415 . S
C1342 H1332 0.930 . S
C1342 C1340 1.419 . S
C1342 C1343 1.362 . S
C1343 H1333 0.930 . S
C1343 C1336 1.409 . S
C1343 C1342 1.362 . S
H1344 C1350 0.930 . S
H1345 C1353 0.930 . S
H1346 C1354 0.930 . S
H1347 C1355 0.930 . S
H1348 C1358 0.930 . S
H1349 C1359 0.930 . S
C1350 H1344 0.930 . S
C1350 C1351 1.355 1_545 S
C1350 C1352 1.415 . S
C1351 C1350 1.355 1_565 S
C1351 C1353 1.419 . S
C1352 C1350 1.415 . S
C1352 C1357 1.425 1_545 S
C1352 C1359 1.409 . S
C1353 H1345 0.930 . S
C1353 C1351 1.419 . S
C1353 C1354 1.362 . S
C1354 H1346 0.930 . S
C1354 C1353 1.362 . S
C1354 C1357 1.409 . S
C1355 H1347 0.930 . S
C1355 C1356 1.355 1_565 S
C1355 C1357 1.415 . S
C1356 C1355 1.355 1_545 S
C1356 C1358 1.419 . S
C1357 C1352 1.425 1_565 S
C1357 C1354 1.409 . S
C1357 C1355 1.415 . S
C1358 H1348 0.930 . S
C1358 C1356 1.419 . S
C1358 C1359 1.362 . S
C1359 H1349 0.930 . S
C1359 C1352 1.409 . S
C1359 C1358 1.362 . S
H1360 C1366 0.930 . S
H1361 C1369 0.930 . S
H1362 C1370 0.930 . S
H1363 C1371 0.930 . S
H1364 C1374 0.930 . S
H1365 C1375 0.930 . S
C1366 H1360 0.930 . S
C1366 C1367 1.355 . S
C1366 C1368 1.415 . S
C1367 C1366 1.355 . S
C1367 C1369 1.419 . S
C1368 C1366 1.415 . S
C1368 C1373 1.425 . S
C1368 C1375 1.409 . S
C1369 H1361 0.930 . S
C1369 C1367 1.419 . S
C1369 C1370 1.362 . S
C1370 H1362 0.930 . S
C1370 C1369 1.362 . S
C1370 C1373 1.409 . S
C1371 H1363 0.930 . S
C1371 C1372 1.355 . S
C1371 C1373 1.415 . S
C1372 C1371 1.355 . S
C1372 C1374 1.419 . S
C1373 C1368 1.425 . S
C1373 C1370 1.409 . S
C1373 C1371 1.415 . S
C1374 H1364 0.930 . S
C1374 C1372 1.419 . S
C1374 C1375 1.362 . S
C1375 H1365 0.930 . S
C1375 C1368 1.409 . S
C1375 C1374 1.362 . S
H1376 C1382 0.930 . S
H1377 C1385 0.930 . S
H1378 C1386 0.930 . S
H1379 C1387 0.930 . S
H1380 C1390 0.930 . S
H1381 C1391 0.930 . S
C1382 H1376 0.930 . S
C1382 C1383 1.355 . S
C1382 C1384 1.415 . S
C1383 C1382 1.355 . S
C1383 C1385 1.419 . S
C1384 C1382 1.415 . S
C1384 C1389 1.425 . S
C1384 C1391 1.409 . S
C1385 H1377 0.930 . S
C1385 C1383 1.419 . S
C1385 C1386 1.362 . S
C1386 H1378 0.930 . S
C1386 C1385 1.362 . S
C1386 C1389 1.409 . S
C1387 H1379 0.930 . S
C1387 C1388 1.355 . S
C1387 C1389 1.415 . S
C1388 C1387 1.355 . S
C1388 C1390 1.419 . S
C1389 C1384 1.425 . S
C1389 C1386 1.409 . S
C1389 C1387 1.415 . S
C1390 H1380 0.930 . S
C1390 C1388 1.419 . S
C1390 C1391 1.362 . S
C1391 H1381 0.930 . S
C1391 C1384 1.409 . S
C1391 C1390 1.362 . S
H1392 C1398 0.930 . S
H1393 C1401 0.930 . S
H1394 C1402 0.930 . S
H1395 C1403 0.930 . S
H1396 C1406 0.930 . S
H1397 C1407 0.930 . S
C1398 H1392 0.930 . S
C1398 C1399 1.355 . S
C1398 C1400 1.415 . S
C1399 C1398 1.355 . S
C1399 C1401 1.419 . S
C1400 C1398 1.415 . S
C1400 C1405 1.425 . S
C1400 C1407 1.409 . S
C1401 H1393 0.930 . S
C1401 C1399 1.419 . S
C1401 C1402 1.362 . S
C1402 H1394 0.930 . S
C1402 C1401 1.362 . S
C1402 C1405 1.409 . S
C1403 H1395 0.930 . S
C1403 C1404 1.355 . S
C1403 C1405 1.415 . S
C1404 C1403 1.355 . S
C1404 C1406 1.419 . S
C1405 C1400 1.425 . S
C1405 C1402 1.409 . S
C1405 C1403 1.415 . S
C1406 H1396 0.930 . S
C1406 C1404 1.419 . S
C1406 C1407 1.362 . S
C1407 H1397 0.930 . S
C1407 C1400 1.409 . S
C1407 C1406 1.362 . S
H1408 C1414 0.930 . S
H1409 C1417 0.930 . S
H1410 C1418 0.930 . S
H1411 C1419 0.930 . S
H1412 C1422 0.930 . S
H1413 C1423 0.930 . S
C1414 H1408 0.930 . S
C1414 C1415 1.355 . S
C1414 C1416 1.415 . S
C1415 C1414 1.355 . S
C1415 C1417 1.419 . S
C1416 C1414 1.415 . S
C1416 C1421 1.425 . S
C1416 C1423 1.409 . S
C1417 H1409 0.930 . S
C1417 C1415 1.419 . S
C1417 C1418 1.362 . S
C1418 H1410 0.930 . S
C1418 C1417 1.362 . S
C1418 C1421 1.409 . S
C1419 H1411 0.930 . S
C1419 C1420 1.355 . S
C1419 C1421 1.415 . S
C1420 C1419 1.355 . S
C1420 C1422 1.419 . S
C1421 C1416 1.425 . S
C1421 C1418 1.409 . S
C1421 C1419 1.415 . S
C1422 H1412 0.930 . S
C1422 C1420 1.419 . S
C1422 C1423 1.362 . S
C1423 H1413 0.930 . S
C1423 C1416 1.409 . S
C1423 C1422 1.362 . S
H1424 C1430 0.930 . S
H1425 C1433 0.930 . S
H1426 C1434 0.930 . S
H1427 C1435 0.930 . S
H1428 C1438 0.930 . S
H1429 C1439 0.930 . S
C1430 H1424 0.930 . S
C1430 C1431 1.355 . S
C1430 C1432 1.415 . S
C1431 C1430 1.355 . S
C1431 C1433 1.419 . S
C1432 C1430 1.415 . S
C1432 C1437 1.425 . S
C1432 C1439 1.409 . S
C1433 H1425 0.930 . S
C1433 C1431 1.419 . S
C1433 C1434 1.362 . S
C1434 H1426 0.930 . S
C1434 C1433 1.362 . S
C1434 C1437 1.409 . S
C1435 H1427 0.930 . S
C1435 C1436 1.355 . S
C1435 C1437 1.415 . S
C1436 C1435 1.355 . S
C1436 C1438 1.419 . S
C1437 C1432 1.425 . S
C1437 C1434 1.409 . S
C1437 C1435 1.415 . S
C1438 H1428 0.930 . S
C1438 C1436 1.419 . S
C1438 C1439 1.362 . S
C1439 H1429 0.930 . S
C1439 C1432 1.409 . S
C1439 C1438 1.362 . S
H1440 C1446 0.930 . S
H1441 C1449 0.930 . S
H1442 C1450 0.930 . S
H1443 C1451 0.930 . S
H1444 C1454 0.930 . S
H1445 C1455 0.930 . S
C1446 H1440 0.930 . S
C1446 C1447 1.355 1_545 S
C1446 C1448 1.416 . S
C1447 C1446 1.355 1_565 S
C1447 C1449 1.419 . S
C1448 C1446 1.416 . S
C1448 C1453 1.425 1_445 S
C1448 C1455 1.408 1_455 S
C1449 H1441 0.930 . S
C1449 C1447 1.419 . S
C1449 C1450 1.362 . S
C1450 H1442 0.930 . S
C1450 C1449 1.362 . S
C1450 C1453 1.409 1_455 S
C1451 H1443 0.930 . S
C1451 C1452 1.355 1_565 S
C1451 C1453 1.415 . S
C1452 C1451 1.355 1_545 S
C1452 C1454 1.419 . S
C1453 C1448 1.425 1_665 S
C1453 C1450 1.409 1_655 S
C1453 C1451 1.415 . S
C1454 H1444 0.930 . S
C1454 C1452 1.419 . S
C1454 C1455 1.362 . S
C1455 H1445 0.930 . S
C1455 C1448 1.408 1_655 S
C1455 C1454 1.362 . S
H1456 C1462 0.930 . S
H1457 C1465 0.930 . S
H1458 C1466 0.930 . S
H1459 C1467 0.930 . S
H1460 C1470 0.930 . S
H1461 C1471 0.930 . S
C1462 H1456 0.930 . S
C1462 C1463 1.355 1_455 S
C1462 C1464 1.415 . S
C1463 C1462 1.355 1_655 S
C1463 C1465 1.419 . S
C1464 C1462 1.415 . S
C1464 C1469 1.425 1_455 S
C1464 C1471 1.409 . S
C1465 H1457 0.930 . S
C1465 C1463 1.419 . S
C1465 C1466 1.362 . S
C1466 H1458 0.930 . S
C1466 C1465 1.362 . S
C1466 C1469 1.409 . S
C1467 H1459 0.930 . S
C1467 C1468 1.355 1_655 S
C1467 C1469 1.415 . S
C1468 C1467 1.355 1_455 S
C1468 C1470 1.419 . S
C1469 C1464 1.425 1_655 S
C1469 C1466 1.409 . S
C1469 C1467 1.415 . S
C1470 H1460 0.930 . S
C1470 C1468 1.419 . S
C1470 C1471 1.362 . S
C1471 H1461 0.930 . S
C1471 C1464 1.409 . S
C1471 C1470 1.362 . S
H1472 C1478 0.930 . S
H1473 C1481 0.930 . S
H1474 C1482 0.930 . S
H1475 C1483 0.930 . S
H1476 C1486 0.930 . S
H1477 C1487 0.930 . S
C1478 H1472 0.930 . S
C1478 C1479 1.355 . S
C1478 C1480 1.415 . S
C1479 C1478 1.355 . S
C1479 C1481 1.419 1_655 S
C1480 C1478 1.415 . S
C1480 C1485 1.425 1_655 S
C1480 C1487 1.409 . S
C1481 H1473 0.930 . S
C1481 C1479 1.419 1_455 S
C1481 C1482 1.362 . S
C1482 H1474 0.930 . S
C1482 C1481 1.362 . S
C1482 C1485 1.409 . S
C1483 H1475 0.930 . S
C1483 C1484 1.355 . S
C1483 C1485 1.415 . S
C1484 C1483 1.355 . S
C1484 C1486 1.419 1_455 S
C1485 C1480 1.425 1_455 S
C1485 C1482 1.409 . S
C1485 C1483 1.415 . S
C1486 H1476 0.930 . S
C1486 C1484 1.419 1_655 S
C1486 C1487 1.362 . S
C1487 H1477 0.930 . S
C1487 C1480 1.409 . S
C1487 C1486 1.362 . S
H1488 C1494 0.930 . S
H1489 C1497 0.930 . S
H1490 C1498 0.930 . S
H1491 C1499 0.930 . S
H1492 C1502 0.930 . S
H1493 C1503 0.930 . S
C1494 H1488 0.930 . S
C1494 C1495 1.355 . S
C1494 C1496 1.415 . S
C1495 C1494 1.355 . S
C1495 C1497 1.419 1_455 S
C1496 C1494 1.415 . S
C1496 C1501 1.425 1_456 S
C1496 C1503 1.409 1_556 S
C1497 H1489 0.930 . S
C1497 C1495 1.419 1_655 S
C1497 C1498 1.362 . S
C1498 H1490 0.930 . S
C1498 C1497 1.362 . S
C1498 C1501 1.409 1_556 S
C1499 H1491 0.930 . S
C1499 C1500 1.355 . S
C1499 C1501 1.415 . S
C1500 C1499 1.355 . S
C1500 C1502 1.419 1_655 S
C1501 C1496 1.425 1_654 S
C1501 C1498 1.409 1_554 S
C1501 C1499 1.415 . S
C1502 H1492 0.930 . S
C1502 C1500 1.419 1_455 S
C1502 C1503 1.362 . S
C1503 H1493 0.930 . S
C1503 C1496 1.409 1_554 S
C1503 C1502 1.362 . S
H1504 C1510 0.930 . S
H1505 C1513 0.930 . S
H1506 C1514 0.930 . S
H1507 C1515 0.930 . S
H1508 C1518 0.930 . S
H1509 C1519 0.930 . S
C1510 H1504 0.930 . S
C1510 C1511 1.355 . S
C1510 C1512 1.415 . S
C1511 C1510 1.355 . S
C1511 C1513 1.419 . S
C1512 C1510 1.415 . S
C1512 C1517 1.425 . S
C1512 C1519 1.409 . S
C1513 H1505 0.930 . S
C1513 C1511 1.419 . S
C1513 C1514 1.362 . S
C1514 H1506 0.930 . S
C1514 C1513 1.362 . S
C1514 C1517 1.409 . S
C1515 H1507 0.930 . S
C1515 C1516 1.355 . S
C1515 C1517 1.415 . S
C1516 C1515 1.355 . S
C1516 C1518 1.419 . S
C1517 C1512 1.425 . S
C1517 C1514 1.409 . S
C1517 C1515 1.415 . S
C1518 H1508 0.930 . S
C1518 C1516 1.419 . S
C1518 C1519 1.362 . S
C1519 H1509 0.930 . S
C1519 C1512 1.409 . S
C1519 C1518 1.362 . S
H1520 C1526 0.930 . S
H1521 C1529 0.930 . S
H1522 C1530 0.930 . S
H1523 C1531 0.930 . S
H1524 C1534 0.930 . S
H1525 C1535 0.930 . S
C1526 H1520 0.930 . S
C1526 C1527 1.355 . S
C1526 C1528 1.415 . S
C1527 C1526 1.355 . S
C1527 C1529 1.419 . S
C1528 C1526 1.415 . S
C1528 C1533 1.425 . S
C1528 C1535 1.409 . S
C1529 H1521 0.930 . S
C1529 C1527 1.419 . S
C1529 C1530 1.362 . S
C1530 H1522 0.930 . S
C1530 C1529 1.362 . S
C1530 C1533 1.409 . S
C1531 H1523 0.930 . S
C1531 C1532 1.355 . S
C1531 C1533 1.415 . S
C1532 C1531 1.355 . S
C1532 C1534 1.419 . S
C1533 C1528 1.425 . S
C1533 C1530 1.409 . S
C1533 C1531 1.415 . S
C1534 H1524 0.930 . S
C1534 C1532 1.419 . S
C1534 C1535 1.362 . S
C1535 H1525 0.930 . S
C1535 C1528 1.409 . S
C1535 C1534 1.362 . S
H1536 C1542 0.930 . S
H1537 C1545 0.930 . S
H1538 C1546 0.930 . S
H1539 C1547 0.930 . S
H1540 C1550 0.930 . S
H1541 C1551 0.930 . S
C1542 H1536 0.930 . S
C1542 C1543 1.355 . S
C1542 C1544 1.415 . S
C1543 C1542 1.355 . S
C1543 C1545 1.419 . S
C1544 C1542 1.415 . S
C1544 C1549 1.425 . S
C1544 C1551 1.409 . S
C1545 H1537 0.930 . S
C1545 C1543 1.419 . S
C1545 C1546 1.362 . S
C1546 H1538 0.930 . S
C1546 C1545 1.362 . S
C1546 C1549 1.409 . S
C1547 H1539 0.930 . S
C1547 C1548 1.355 . S
C1547 C1549 1.415 . S
C1548 C1547 1.355 . S
C1548 C1550 1.419 . S
C1549 C1544 1.425 . S
C1549 C1546 1.409 . S
C1549 C1547 1.415 . S
C1550 H1540 0.930 . S
C1550 C1548 1.419 . S
C1550 C1551 1.362 . S
C1551 H1541 0.930 . S
C1551 C1544 1.409 . S
C1551 C1550 1.362 . S
H1552 C1558 0.930 . S
H1553 C1561 0.930 . S
H1554 C1562 0.930 . S
H1555 C1563 0.930 . S
H1556 C1566 0.930 . S
H1557 C1567 0.930 . S
C1558 H1552 0.930 . S
C1558 C1559 1.355 . S
C1558 C1560 1.415 . S
C1559 C1558 1.355 . S
C1559 C1561 1.419 . S
C1560 C1558 1.415 . S
C1560 C1565 1.425 . S
C1560 C1567 1.409 . S
C1561 H1553 0.930 . S
C1561 C1559 1.419 . S
C1561 C1562 1.362 . S
C1562 H1554 0.930 . S
C1562 C1561 1.362 . S
C1562 C1565 1.409 . S
C1563 H1555 0.930 . S
C1563 C1564 1.355 . S
C1563 C1565 1.415 . S
C1564 C1563 1.355 . S
C1564 C1566 1.419 . S
C1565 C1560 1.425 . S
C1565 C1562 1.409 . S
C1565 C1563 1.415 . S
C1566 H1556 0.930 . S
C1566 C1564 1.419 . S
C1566 C1567 1.362 . S
C1567 H1557 0.930 . S
C1567 C1560 1.409 . S
C1567 C1566 1.362 . S
H1568 C1574 0.930 . S
H1569 C1577 0.930 . S
H1570 C1578 0.930 . S
H1571 C1579 0.930 . S
H1572 C1582 0.930 . S
H1573 C1583 0.930 . S
C1574 H1568 0.930 . S
C1574 C1575 1.355 . S
C1574 C1576 1.415 . S
C1575 C1574 1.355 . S
C1575 C1577 1.419 . S
C1576 C1574 1.415 . S
C1576 C1581 1.425 . S
C1576 C1583 1.409 . S
C1577 H1569 0.930 . S
C1577 C1575 1.419 . S
C1577 C1578 1.362 . S
C1578 H1570 0.930 . S
C1578 C1577 1.362 . S
C1578 C1581 1.409 . S
C1579 H1571 0.930 . S
C1579 C1580 1.355 . S
C1579 C1581 1.415 . S
C1580 C1579 1.355 . S
C1580 C1582 1.419 . S
C1581 C1576 1.425 . S
C1581 C1578 1.409 . S
C1581 C1579 1.415 . S
C1582 H1572 0.930 . S
C1582 C1580 1.419 . S
C1582 C1583 1.362 . S
C1583 H1573 0.930 . S
C1583 C1576 1.409 . S
C1583 C1582 1.362 . S
H1584 C1590 0.930 . S
H1585 C1593 0.930 . S
H1586 C1594 0.930 . S
H1587 C1595 0.930 . S
H1588 C1598 0.930 . S
H1589 C1599 0.930 . S
C1590 H1584 0.930 . S
C1590 C1591 1.355 . S
C1590 C1592 1.415 . S
C1591 C1590 1.355 . S
C1591 C1593 1.419 . S
C1592 C1590 1.415 . S
C1592 C1597 1.425 . S
C1592 C1599 1.409 . S
C1593 H1585 0.930 . S
C1593 C1591 1.419 . S
C1593 C1594 1.362 . S
C1594 H1586 0.930 . S
C1594 C1593 1.362 . S
C1594 C1597 1.409 . S
C1595 H1587 0.930 . S
C1595 C1596 1.355 . S
C1595 C1597 1.415 . S
C1596 C1595 1.355 . S
C1596 C1598 1.419 . S
C1597 C1592 1.425 . S
C1597 C1594 1.409 . S
C1597 C1595 1.415 . S
C1598 H1588 0.930 . S
C1598 C1596 1.419 . S
C1598 C1599 1.362 . S
C1599 H1589 0.930 . S
C1599 C1592 1.409 . S
C1599 C1598 1.362 . S
H1600 C1606 0.930 . S
H1601 C1609 0.930 . S
H1602 C1610 0.930 . S
H1603 C1611 0.930 . S
H1604 C1614 0.930 . S
H1605 C1615 0.930 . S
C1606 H1600 0.930 . S
C1606 C1607 1.355 . S
C1606 C1608 1.415 . S
C1607 C1606 1.355 . S
C1607 C1609 1.419 . S
C1608 C1606 1.415 . S
C1608 C1613 1.425 . S
C1608 C1615 1.409 . S
C1609 H1601 0.930 . S
C1609 C1607 1.419 . S
C1609 C1610 1.362 . S
C1610 H1602 0.930 . S
C1610 C1609 1.362 . S
C1610 C1613 1.409 . S
C1611 H1603 0.930 . S
C1611 C1612 1.355 . S
C1611 C1613 1.415 . S
C1612 C1611 1.355 . S
C1612 C1614 1.419 . S
C1613 C1608 1.425 . S
C1613 C1610 1.409 . S
C1613 C1611 1.415 . S
C1614 H1604 0.930 . S
C1614 C1612 1.419 . S
C1614 C1615 1.362 . S
C1615 H1605 0.930 . S
C1615 C1608 1.409 . S
C1615 C1614 1.362 . S
H1616 C1622 0.930 . S
H1617 C1625 0.930 . S
H1618 C1626 0.930 . S
H1619 C1627 0.930 . S
H1620 C1630 0.930 . S
H1621 C1631 0.930 . S
C1622 H1616 0.930 . S
C1622 C1623 1.355 . S
C1622 C1624 1.415 . S
C1623 C1622 1.355 . S
C1623 C1625 1.419 . S
C1624 C1622 1.415 . S
C1624 C1629 1.425 . S
C1624 C1631 1.409 . S
C1625 H1617 0.930 . S
C1625 C1623 1.419 . S
C1625 C1626 1.362 . S
C1626 H1618 0.930 . S
C1626 C1625 1.362 . S
C1626 C1629 1.409 . S
C1627 H1619 0.930 . S
C1627 C1628 1.355 . S
C1627 C1629 1.415 . S
C1628 C1627 1.355 . S
C1628 C1630 1.419 . S
C1629 C1624 1.425 . S
C1629 C1626 1.409 . S
C1629 C1627 1.415 . S
C1630 H1620 0.930 . S
C1630 C1628 1.419 . S
C1630 C1631 1.362 . S
C1631 H1621 0.930 . S
C1631 C1624 1.409 . S
C1631 C1630 1.362 . S
H1632 C1638 0.930 . S
H1633 C1641 0.930 . S
H1634 C1642 0.930 . S
H1635 C1643 0.930 . S
H1636 C1646 0.930 . S
H1637 C1647 0.930 . S
C1638 H1632 0.930 . S
C1638 C1639 1.355 . S
C1638 C1640 1.415 . S
C1639 C1638 1.355 . S
C1639 C1641 1.419 . S
C1640 C1638 1.415 . S
C1640 C1645 1.425 . S
C1640 C1647 1.409 . S
C1641 H1633 0.930 . S
C1641 C1639 1.419 . S
C1641 C1642 1.362 . S
C1642 H1634 0.930 . S
C1642 C1641 1.362 . S
C1642 C1645 1.409 . S
C1643 H1635 0.930 . S
C1643 C1644 1.355 . S
C1643 C1645 1.415 . S
C1644 C1643 1.355 . S
C1644 C1646 1.419 . S
C1645 C1640 1.425 . S
C1645 C1642 1.409 . S
C1645 C1643 1.415 . S
C1646 H1636 0.930 . S
C1646 C1644 1.419 . S
C1646 C1647 1.362 . S
C1647 H1637 0.930 . S
C1647 C1640 1.409 . S
C1647 C1646 1.362 . S
H1648 C1654 0.930 . S
H1649 C1657 0.930 . S
H1650 C1658 0.930 . S
H1651 C1659 0.930 . S
H1652 C1662 0.930 . S
H1653 C1663 0.930 . S
C1654 H1648 0.930 . S
C1654 C1655 1.355 . S
C1654 C1656 1.415 . S
C1655 C1654 1.355 . S
C1655 C1657 1.419 . S
C1656 C1654 1.415 . S
C1656 C1661 1.425 . S
C1656 C1663 1.409 . S
C1657 H1649 0.930 . S
C1657 C1655 1.419 . S
C1657 C1658 1.362 . S
C1658 H1650 0.930 . S
C1658 C1657 1.362 . S
C1658 C1661 1.409 . S
C1659 H1651 0.930 . S
C1659 C1660 1.355 . S
C1659 C1661 1.415 . S
C1660 C1659 1.355 . S
C1660 C1662 1.419 . S
C1661 C1656 1.425 . S
C1661 C1658 1.409 . S
C1661 C1659 1.415 . S
C1662 H1652 0.930 . S
C1662 C1660 1.419 . S
C1662 C1663 1.362 . S
C1663 H1653 0.930 . S
C1663 C1656 1.409 . S
C1663 C1662 1.362 . S
H1664 C1670 0.930 . S
H1665 C1673 0.930 . S
H1666 C1674 0.930 . S
H1667 C1675 0.930 . S
H1668 C1678 0.930 . S
H1669 C1679 0.930 . S
C1670 H1664 0.930 . S
C1670 C1671 1.355 . S
C1670 C1672 1.415 . S
C1671 C1670 1.355 . S
C1671 C1673 1.419 . S
C1672 C1670 1.415 . S
C1672 C1677 1.425 . S
C1672 C1679 1.409 . S
C1673 H1665 0.930 . S
C1673 C1671 1.419 . S
C1673 C1674 1.362 . S
C1674 H1666 0.930 . S
C1674 C1673 1.362 . S
C1674 C1677 1.409 . S
C1675 H1667 0.930 . S
C1675 C1676 1.355 . S
C1675 C1677 1.415 . S
C1676 C1675 1.355 . S
C1676 C1678 1.419 . S
C1677 C1672 1.425 . S
C1677 C1674 1.409 . S
C1677 C1675 1.415 . S
C1678 H1668 0.930 . S
C1678 C1676 1.419 . S
C1678 C1679 1.362 . S
C1679 H1669 0.930 . S
C1679 C1672 1.409 . S
C1679 C1678 1.362 . S
H1680 C1686 0.930 . S
H1681 C1689 0.930 . S
H1682 C1690 0.930 . S
H1683 C1691 0.930 . S
H1684 C1694 0.930 . S
H1685 C1695 0.930 . S
C1686 H1680 0.930 . S
C1686 C1687 1.355 . S
C1686 C1688 1.415 . S
C1687 C1686 1.355 . S
C1687 C1689 1.419 . S
C1688 C1686 1.415 . S
C1688 C1693 1.425 . S
C1688 C1695 1.409 . S
C1689 H1681 0.930 . S
C1689 C1687 1.419 . S
C1689 C1690 1.362 . S
C1690 H1682 0.930 . S
C1690 C1689 1.362 . S
C1690 C1693 1.409 . S
C1691 H1683 0.930 . S
C1691 C1692 1.355 . S
C1691 C1693 1.415 . S
C1692 C1691 1.355 . S
C1692 C1694 1.419 . S
C1693 C1688 1.425 . S
C1693 C1690 1.409 . S
C1693 C1691 1.415 . S
C1694 H1684 0.930 . S
C1694 C1692 1.419 . S
C1694 C1695 1.362 . S
C1695 H1685 0.930 . S
C1695 C1688 1.409 . S
C1695 C1694 1.362 . S
H1696 C1702 0.930 . S
H1697 C1705 0.930 . S
H1698 C1706 0.930 . S
H1699 C1707 0.930 . S
H1700 C1710 0.930 . S
H1701 C1711 0.930 . S
C1702 H1696 0.930 . S
C1702 C1703 1.355 . S
C1702 C1704 1.415 . S
C1703 C1702 1.355 . S
C1703 C1705 1.419 . S
C1704 C1702 1.415 . S
C1704 C1709 1.425 . S
C1704 C1711 1.409 . S
C1705 H1697 0.930 . S
C1705 C1703 1.419 . S
C1705 C1706 1.362 . S
C1706 H1698 0.930 . S
C1706 C1705 1.362 . S
C1706 C1709 1.409 . S
C1707 H1699 0.930 . S
C1707 C1708 1.355 . S
C1707 C1709 1.415 . S
C1708 C1707 1.355 . S
C1708 C1710 1.419 . S
C1709 C1704 1.425 . S
C1709 C1706 1.409 . S
C1709 C1707 1.415 . S
C1710 H1700 0.930 . S
C1710 C1708 1.419 . S
C1710 C1711 1.362 . S
C1711 H1701 0.930 . S
C1711 C1704 1.409 . S
C1711 C1710 1.362 . S
H1712 C1718 0.930 . S
H1713 C1721 0.930 . S
H1714 C1722 0.930 . S
H1715 C1723 0.930 . S
H1716 C1726 0.930 . S
H1717 C1727 0.930 . S
C1718 H1712 0.930 . S
C1718 C1719 1.355 . S
C1718 C1720 1.415 . S
C1719 C1718 1.355 . S
C1719 C1721 1.419 . S
C1720 C1718 1.415 . S
C1720 C1725 1.425 . S
C1720 C1727 1.409 . S
C1721 H1713 0.930 . S
C1721 C1719 1.419 . S
C1721 C1722 1.362 . S
C1722 H1714 0.930 . S
C1722 C1721 1.362 . S
C1722 C1725 1.409 . S
C1723 H1715 0.930 . S
C1723 C1724 1.355 . S
C1723 C1725 1.415 . S
C1724 C1723 1.355 . S
C1724 C1726 1.419 . S
C1725 C1720 1.425 . S
C1725 C1722 1.409 . S
C1725 C1723 1.415 . S
C1726 H1716 0.930 . S
C1726 C1724 1.419 . S
C1726 C1727 1.362 . S
C1727 H1717 0.930 . S
C1727 C1720 1.409 . S
C1727 C1726 1.362 . S
H1728 C1734 0.930 . S
H1729 C1737 0.930 . S
H1730 C1738 0.930 . S
H1731 C1739 0.930 . S
H1732 C1742 0.930 . S
H1733 C1743 0.930 . S
C1734 H1728 0.930 . S
C1734 C1735 1.355 . S
C1734 C1736 1.415 . S
C1735 C1734 1.355 . S
C1735 C1737 1.419 . S
C1736 C1734 1.415 . S
C1736 C1741 1.425 . S
C1736 C1743 1.409 . S
C1737 H1729 0.930 . S
C1737 C1735 1.419 . S
C1737 C1738 1.362 . S
C1738 H1730 0.930 . S
C1738 C1737 1.362 . S
C1738 C1741 1.409 . S
C1739 H1731 0.930 . S
C1739 C1740 1.355 . S
C1739 C1741 1.415 . S
C1740 C1739 1.355 . S
C1740 C1742 1.419 . S
C1741 C1736 1.425 . S
C1741 C1738 1.409 . S
C1741 C1739 1.415 . S
C1742 H1732 0.930 . S
C1742 C1740 1.419 . S
C1742 C1743 1.362 . S
C1743 H1733 0.930 . S
C1743 C1736 1.409 . S
C1743 C1742 1.362 . S
H1744 C1750 0.930 . S
H1745 C1753 0.930 . S
H1746 C1754 0.930 . S
H1747 C1755 0.930 . S
H1748 C1758 0.930 . S
H1749 C1759 0.930 . S
C1750 H1744 0.930 . S
C1750 C1751 1.355 . S
C1750 C1752 1.415 . S
C1751 C1750 1.355 . S
C1751 C1753 1.419 . S
C1752 C1750 1.415 . S
C1752 C1757 1.425 . S
C1752 C1759 1.409 . S
C1753 H1745 0.930 . S
C1753 C1751 1.419 . S
C1753 C1754 1.362 . S
C1754 H1746 0.930 . S
C1754 C1753 1.362 . S
C1754 C1757 1.409 . S
C1755 H1747 0.930 . S
C1755 C1756 1.355 . S
C1755 C1757 1.415 . S
C1756 C1755 1.355 . S
C1756 C1758 1.419 . S
C1757 C1752 1.425 . S
C1757 C1754 1.409 . S
C1757 C1755 1.415 . S
C1758 H1748 0.930 . S
C1758 C1756 1.419 . S
C1758 C1759 1.362 . S
C1759 H1749 0.930 . S
C1759 C1752 1.409 . S
C1759 C1758 1.362 . S
C743 C16 1.545 . S
C748 C62 1.574 . S
C759 C85 1.582 . S
C764 C39 1.583 . S
C775 C154 1.567 . S
C780 C108 1.590 . S
C791 C177 1.534 . S
C796 C131 1.560 . S
C807 C200 1.573 . S
C812 C246 1.545 . S
C823 C269 1.585 . S
C828 C223 1.563 . S
C839 C292 1.587 . S
C844 C338 1.561 . S
C855 C361 1.567 . S
C860 C315 1.586 . S
C871 C384 1.569 . S
C876 C430 1.584 1_455 S
C887 C407 1.546 . S
C892 C453 1.576 . S
C903 C522 1.579 . S
C908 C476 1.580 1_655 S
C919 C499 1.584 . S
C924 C545 1.557 . S
C935 C614 1.532 . S
C940 C568 1.558 1_455 S
C951 C637 1.576 . S
C956 C591 1.547 . S
C967 C706 1.564 1_655 S
C972 C660 1.536 . S
C983 C683 1.534 . S
C988 C729 1.542 . S
C999 N587 1.761 . S
C1004 N12 1.779 . S
C1015 N35 1.777 . S
C1020 N564 1.754 . S
C1031 N58 1.784 . S
C1036 N633 1.739 . S
C1047 N81 1.752 . S
C1052 N610 1.738 . S
C1063 N679 1.735 . S
C1068 N104 1.775 . S
C1079 N127 1.735 . S
C1084 N656 1.759 . S
C1095 N150 1.780 . S
C1100 N725 1.759 . S
C1111 N702 1.771 . S
C1116 N173 1.728 . S
C1127 N196 1.771 . S
C1132 N403 1.771 . S
C1143 N219 1.783 . S
C1148 N380 1.735 . S
C1159 N242 1.735 . S
C1164 N449 1.770 . S
C1175 N265 1.753 . S
C1180 N426 1.776 . S
C1191 N288 1.767 . S
C1196 N495 1.737 . S
C1207 N472 1.783 . S
C1212 N311 1.735 . S
C1223 N541 1.768 . S
C1228 N334 1.774 . S
C1239 N357 1.733 . S
C1244 N518 1.773 . S
C1255 C7 1.617 1_565 S
C1260 C99 1.617 1_545 S
C1271 C30 1.577 . S
C1276 C674 1.577 . S
C1287 C53 1.630 . S
C1292 C329 1.630 . S
C1303 C76 1.578 1_565 S
C1308 C536 1.575 1_545 S
C1319 C122 1.590 . S
C1324 C582 1.589 . S
C1335 C237 1.595 . S
C1340 C145 1.595 . S
C1351 C444 1.626 1_565 S
C1356 C168 1.626 1_545 S
C1367 C283 1.608 . S
C1372 C191 1.608 . S
C1383 C214 1.622 . S
C1388 C490 1.622 . S
C1399 C720 1.589 . S
C1404 C260 1.590 . S
C1415 C306 1.581 . S
C1420 C398 1.581 . S
C1431 C352 1.582 . S
C1436 C628 1.581 . S
C1447 C467 1.581 . S
C1452 C375 1.581 . S
C1463 C421 1.624 . S
C1468 C697 1.624 . S
C1479 C605 1.576 . S
C1484 C513 1.577 . S
C1495 C651 1.574 . S
C1500 C559 1.574 . S
C1511 N2 1.153 . S
C1516 N25 1.188 . S
C1527 N48 1.191 . S
C1532 N71 1.178 . S
C1543 N94 1.163 . S
C1548 N117 1.191 . S
C1559 N140 1.104 . S
C1564 N163 1.115 . S
C1575 N209 1.104 . S
C1580 N186 1.137 . S
C1591 N232 1.191 . S
C1596 N255 1.178 . S
C1607 N278 1.139 . S
C1612 N301 1.105 . S
C1623 N324 1.186 . S
C1628 N347 1.187 . S
C1639 N370 1.124 . S
C1644 N393 1.173 . S
C1655 N439 1.195 . S
C1660 N416 1.180 . S
C1671 N462 1.127 . S
C1676 N485 1.110 . S
C1687 N508 1.195 . S
C1692 N531 1.170 . S
C1703 N577 1.112 . S
C1708 N554 1.156 . S
C1719 N600 1.122 . S
C1724 N623 1.111 . S
C1735 N669 1.106 . S
C1740 N646 1.133 . S
C1751 N692 1.194 . S
C1756 N715 1.166 . S
