# Generated by pormake.
# Topology zfo, (5)-cn, num edge types: 1
# Building blocks:
#     Node 0, Type 0, BuildingBlock: BEQFEK_clean_sbu_0, # of connection points: 5
#     Node 1, Type 0, BuildingBlock: BEQFEK_clean_sbu_0, # of connection points: 5
#     Node 2, Type 0, BuildingBlock: BEQFEK_clean_sbu_0, # of connection points: 5
#     Node 3, Type 0, BuildingBlock: BEQFEK_clean_sbu_0, # of connection points: 5
#     Node 4, Type 0, BuildingBlock: BEQFEK_clean_sbu_0, # of connection points: 5
#     Node 5, Type 0, BuildingBlock: BEQFEK_clean_sbu_0, # of connection points: 5
#     Node 6, Type 0, BuildingBlock: BEQFEK_clean_sbu_0, # of connection points: 5
#     Node 7, Type 0, BuildingBlock: BEQFEK_clean_sbu_0, # of connection points: 5
#     Node 8, Type 0, BuildingBlock: BEQFEK_clean_sbu_0, # of connection points: 5
#     Node 9, Type 0, BuildingBlock: BEQFEK_clean_sbu_0, # of connection points: 5
#     Node 10, Type 0, BuildingBlock: BEQFEK_clean_sbu_0, # of connection points: 5
#     Node 11, Type 0, BuildingBlock: BEQFEK_clean_sbu_0, # of connection points: 5
#     Node 12, Type 0, BuildingBlock: BEQFEK_clean_sbu_0, # of connection points: 5
#     Node 13, Type 0, BuildingBlock: BEQFEK_clean_sbu_0, # of connection points: 5
#     Node 14, Type 0, BuildingBlock: BEQFEK_clean_sbu_0, # of connection points: 5
#     Node 15, Type 0, BuildingBlock: BEQFEK_clean_sbu_0, # of connection points: 5
#     Edge 16, Type (0, 0), BuildingBlock: XUDNAN_clean_linker_2, # of connection points: 2
#     Edge 17, Type (0, 0), BuildingBlock: XUDNAN_clean_linker_2, # of connection points: 2
#     Edge 18, Type (0, 0), BuildingBlock: XUDNAN_clean_linker_2, # of connection points: 2
#     Edge 19, Type (0, 0), BuildingBlock: XUDNAN_clean_linker_2, # of connection points: 2
#     Edge 20, Type (0, 0), BuildingBlock: XUDNAN_clean_linker_2, # of connection points: 2
#     Edge 21, Type (0, 0), BuildingBlock: XUDNAN_clean_linker_2, # of connection points: 2
#     Edge 22, Type (0, 0), BuildingBlock: XUDNAN_clean_linker_2, # of connection points: 2
#     Edge 23, Type (0, 0), BuildingBlock: XUDNAN_clean_linker_2, # of connection points: 2
#     Edge 24, Type (0, 0), BuildingBlock: XUDNAN_clean_linker_2, # of connection points: 2
#     Edge 25, Type (0, 0), BuildingBlock: XUDNAN_clean_linker_2, # of connection points: 2
#     Edge 26, Type (0, 0), BuildingBlock: XUDNAN_clean_linker_2, # of connection points: 2
#     Edge 27, Type (0, 0), BuildingBlock: XUDNAN_clean_linker_2, # of connection points: 2
#     Edge 28, Type (0, 0), BuildingBlock: XUDNAN_clean_linker_2, # of connection points: 2
#     Edge 29, Type (0, 0), BuildingBlock: XUDNAN_clean_linker_2, # of connection points: 2
#     Edge 30, Type (0, 0), BuildingBlock: XUDNAN_clean_linker_2, # of connection points: 2
#     Edge 31, Type (0, 0), BuildingBlock: XUDNAN_clean_linker_2, # of connection points: 2
#     Edge 32, Type (0, 0), BuildingBlock: XUDNAN_clean_linker_2, # of connection points: 2
#     Edge 33, Type (0, 0), BuildingBlock: XUDNAN_clean_linker_2, # of connection points: 2
#     Edge 34, Type (0, 0), BuildingBlock: XUDNAN_clean_linker_2, # of connection points: 2
#     Edge 35, Type (0, 0), BuildingBlock: XUDNAN_clean_linker_2, # of connection points: 2
#     Edge 36, Type (0, 0), BuildingBlock: XUDNAN_clean_linker_2, # of connection points: 2
#     Edge 37, Type (0, 0), BuildingBlock: XUDNAN_clean_linker_2, # of connection points: 2
#     Edge 38, Type (0, 0), BuildingBlock: XUDNAN_clean_linker_2, # of connection points: 2
#     Edge 39, Type (0, 0), BuildingBlock: XUDNAN_clean_linker_2, # of connection points: 2
#     Edge 40, Type (0, 0), BuildingBlock: XUDNAN_clean_linker_2, # of connection points: 2
#     Edge 41, Type (0, 0), BuildingBlock: XUDNAN_clean_linker_2, # of connection points: 2
#     Edge 42, Type (0, 0), BuildingBlock: XUDNAN_clean_linker_2, # of connection points: 2
#     Edge 43, Type (0, 0), BuildingBlock: XUDNAN_clean_linker_2, # of connection points: 2
#     Edge 44, Type (0, 0), BuildingBlock: XUDNAN_clean_linker_2, # of connection points: 2
#     Edge 45, Type (0, 0), BuildingBlock: XUDNAN_clean_linker_2, # of connection points: 2
#     Edge 46, Type (0, 0), BuildingBlock: XUDNAN_clean_linker_2, # of connection points: 2
#     Edge 47, Type (0, 0), BuildingBlock: XUDNAN_clean_linker_2, # of connection points: 2
#     Edge 48, Type (0, 0), BuildingBlock: XUDNAN_clean_linker_2, # of connection points: 2
#     Edge 49, Type (0, 0), BuildingBlock: XUDNAN_clean_linker_2, # of connection points: 2
#     Edge 50, Type (0, 0), BuildingBlock: XUDNAN_clean_linker_2, # of connection points: 2
#     Edge 51, Type (0, 0), BuildingBlock: XUDNAN_clean_linker_2, # of connection points: 2
#     Edge 52, Type (0, 0), BuildingBlock: XUDNAN_clean_linker_2, # of connection points: 2
#     Edge 53, Type (0, 0), BuildingBlock: XUDNAN_clean_linker_2, # of connection points: 2
#     Edge 54, Type (0, 0), BuildingBlock: XUDNAN_clean_linker_2, # of connection points: 2
#     Edge 55, Type (0, 0), BuildingBlock: XUDNAN_clean_linker_2, # of connection points: 2
# Relax obj value: 0.172
# Max RMSD: 0.173
# Mean RMSD: 0.165
data_MOF--net-zfo--node1-BEQFEK_clean_sbu_0--edge1-XUDNAN_clean_linker_2
_symmetry_space_group_name_H-M    P1
_symmetry_Int_Tables_number       1
_symmetry_cell_setting            triclinic
loop_
_symmetry_equiv_pos_as_xyz
'x, y, z'
_cell_length_a     32.771529
_cell_length_b     32.70954
_cell_length_c     66.045282
_cell_angle_alpha  90.073535
_cell_angle_beta   89.996363
_cell_angle_gamma 90.04582
loop_
_atom_site_label
_atom_site_type_symbol
_atom_site_fract_x
_atom_site_fract_y
_atom_site_fract_z
_atom_type_partial_charge
Co0 Co 0.10949 0.20051 0.09655 0.0
Co1 Co 0.10355 0.18807 0.14425 0.0
C2 C 0.0548 0.25214 0.12182 0.0
O3 O 0.07065 0.24364 0.10476 0.0
O4 O 0.06468 0.23259 0.13773 0.0
C5 C 0.09434 0.22424 0.05592 0.0
O6 O 0.05993 0.23545 0.06445 0.0
C7 C 0.12048 0.2197 0.18527 0.0
C8 C 0.11892 0.16351 0.2037 0.0
C9 C 0.12702 0.20512 0.20481 0.0
N10 N 0.11019 0.18798 0.17322 0.0
N11 N 0.10883 0.15459 0.18442 0.0
C12 C 0.12323 0.2631 0.17815 0.0
H13 H 0.1037 0.26802 0.16473 0.0
H14 H 0.15509 0.2702 0.17375 0.0
H15 H 0.11391 0.28447 0.19037 0.0
C16 C 0.19619 0.21502 0.10772 0.0
N17 N 0.15746 0.20461 0.11234 0.0
N18 N 0.15512 0.1964 0.13183 0.0
C19 C 0.19265 0.19936 0.13995 0.0
C20 C 0.21956 0.21227 0.12518 0.0
C21 C 0.20953 0.22979 0.08736 0.0
H22 H 0.20878 0.20382 0.07653 0.0
H23 H 0.18781 0.25324 0.08179 0.0
H24 H 0.24084 0.2427 0.08783 0.0
O25 O 0.08272 0.14624 0.10104 0.0
O26 O 0.07942 0.13611 0.13438 0.0
H27 H 0.18413 0.16216 0.16645 0.0
H28 H 0.23615 0.17743 0.16186 0.0
C29 C 0.20382 0.18747 0.16113 0.0
H30 H 0.20051 0.21412 0.17134 0.0
H31 H 0.10212 0.12552 0.1788 0.0
O32 O 0.12154 0.2072 0.06678 0.0
C33 C 0.07256 0.12434 0.11626 0.0
Co34 Co 0.79461 0.10657 0.61064 0.0
Co35 Co 0.80148 0.0977 0.65836 0.0
C36 C 0.74114 0.04924 0.63216 0.0
O37 O 0.75103 0.06658 0.61564 0.0
O38 O 0.75879 0.05835 0.64878 0.0
C39 C 0.78253 0.10064 0.56693 0.0
O40 O 0.76636 0.06483 0.57101 0.0
C41 C 0.75833 0.12137 0.69485 0.0
C42 C 0.80523 0.12032 0.71876 0.0
C43 C 0.76532 0.13229 0.71494 0.0
N44 N 0.79271 0.10532 0.68704 0.0
N45 N 0.82044 0.10391 0.70156 0.0
C46 C 0.72 0.12722 0.68283 0.0
H47 H 0.71602 0.10182 0.67192 0.0
H48 H 0.72215 0.15601 0.67404 0.0
H49 H 0.69289 0.12859 0.69287 0.0
C50 C 0.78071 0.19286 0.62224 0.0
N51 N 0.78742 0.1533 0.62681 0.0
N52 N 0.7957 0.15007 0.6462 0.0
C53 C 0.79718 0.18776 0.65436 0.0
C54 C 0.78658 0.21619 0.63965 0.0
C55 C 0.76789 0.20736 0.60173 0.0
H56 H 0.75035 0.18312 0.59381 0.0
H57 H 0.74886 0.23531 0.60288 0.0
H58 H 0.79547 0.21442 0.59263 0.0
O59 O 0.84831 0.08137 0.61768 0.0
O60 O 0.85596 0.0749 0.65109 0.0
H61 H 0.83059 0.22682 0.67486 0.0
H62 H 0.78974 0.19831 0.68619 0.0
C63 C 0.81461 0.19689 0.67485 0.0
H64 H 0.83657 0.17278 0.67932 0.0
H65 H 0.85041 0.09408 0.69944 0.0
O66 O 0.79603 0.12259 0.58139 0.0
C67 C 0.86944 0.07055 0.63305 0.0
Co68 Co 0.8894 0.78549 0.09727 0.0
Co69 Co 0.90271 0.79303 0.14471 0.0
C70 C 0.95264 0.73613 0.11808 0.0
O71 O 0.93308 0.74513 0.10209 0.0
O72 O 0.9438 0.75269 0.13497 0.0
C73 C 0.8752 0.74676 0.05948 0.0
O74 O 0.88439 0.71471 0.07054 0.0
C75 C 0.88552 0.74985 0.18179 0.0
C76 C 0.88321 0.79786 0.2052 0.0
C77 C 0.87418 0.75692 0.2018 0.0
N78 N 0.89862 0.78511 0.17358 0.0
N79 N 0.89834 0.81352 0.18783 0.0
C80 C 0.88263 0.7106 0.17014 0.0
H81 H 0.90919 0.70737 0.15993 0.0
H82 H 0.85472 0.71089 0.16064 0.0
H83 H 0.88182 0.68384 0.18044 0.0
C84 C 0.80375 0.77137 0.11094 0.0
N85 N 0.84396 0.77715 0.11447 0.0
N86 N 0.84946 0.7843 0.13388 0.0
C87 C 0.81283 0.7854 0.14311 0.0
C88 C 0.78273 0.77609 0.12911 0.0
C89 C 0.78617 0.76202 0.09056 0.0
H90 H 0.80477 0.73816 0.08305 0.0
H91 H 0.7542 0.75111 0.09168 0.0
H92 H 0.78727 0.78996 0.08106 0.0
O93 O 0.91294 0.8408 0.1029 0.0
O94 O 0.92216 0.8481 0.13623 0.0
H95 H 0.77567 0.81777 0.16489 0.0
H96 H 0.80615 0.77724 0.17509 0.0
C97 C 0.80579 0.80241 0.1639 0.0
H98 H 0.82968 0.82509 0.16769 0.0
H99 H 0.90554 0.8442 0.18533 0.0
O100 O 0.87392 0.78171 0.06795 0.0
C101 C 0.92457 0.86197 0.11816 0.0
Co102 Co 0.20155 0.89008 0.60003 0.0
Co103 Co 0.20076 0.88425 0.64804 0.0
C104 C 0.2612 0.93677 0.625 0.0
O105 O 0.24785 0.92662 0.60758 0.0
O106 O 0.24547 0.92269 0.6412 0.0
C107 C 0.21287 0.90424 0.55585 0.0
O108 O 0.22913 0.93995 0.56012 0.0
C109 C 0.23903 0.86833 0.68739 0.0
C110 C 0.18976 0.83836 0.70459 0.0
C111 C 0.23114 0.84714 0.70519 0.0
N112 N 0.20448 0.87058 0.67644 0.0
N113 N 0.17483 0.85359 0.6871 0.0
C114 C 0.27904 0.88536 0.68053 0.0
H115 H 0.28861 0.87001 0.6663 0.0
H116 H 0.30314 0.88216 0.69219 0.0
H117 H 0.27501 0.91836 0.67734 0.0
C118 C 0.20545 0.80061 0.60444 0.0
N119 N 0.20445 0.83826 0.61265 0.0
N120 N 0.20715 0.83532 0.63245 0.0
C121 C 0.21272 0.79557 0.63736 0.0
C122 C 0.2114 0.77213 0.61974 0.0
C123 C 0.19647 0.79217 0.58261 0.0
H124 H 0.17071 0.81166 0.57764 0.0
H125 H 0.2237 0.79979 0.57337 0.0
H126 H 0.18785 0.75981 0.58 0.0
O127 O 0.15116 0.91711 0.60829 0.0
O128 O 0.14679 0.9124 0.64184 0.0
H129 H 0.19575 0.78098 0.66777 0.0
H130 H 0.23679 0.74983 0.65795 0.0
C131 C 0.22346 0.78094 0.65815 0.0
H132 H 0.24641 0.80166 0.66485 0.0
H133 H 0.14503 0.84986 0.68185 0.0
O134 O 0.20034 0.8814 0.57013 0.0
C135 C 0.13238 0.92423 0.6248 0.0
Co136 Co 0.60799 0.2977 0.93213 0.0
Co137 Co 0.60562 0.30723 0.88417 0.0
C138 C 0.55409 0.24585 0.90665 0.0
O139 O 0.56656 0.25675 0.92407 0.0
O140 O 0.56689 0.2627 0.89052 0.0
C141 C 0.61213 0.25895 0.97102 0.0
O142 O 0.59958 0.2273 0.96045 0.0
C143 C 0.62389 0.27533 0.84312 0.0
C144 C 0.62334 0.33178 0.82487 0.0
C145 C 0.63078 0.29008 0.82363 0.0
N146 N 0.61387 0.30702 0.85526 0.0
N147 N 0.61323 0.34057 0.84415 0.0
C148 C 0.6257 0.23176 0.85005 0.0
H149 H 0.60707 0.22724 0.86382 0.0
H150 H 0.65762 0.22353 0.85379 0.0
H151 H 0.61482 0.21094 0.83791 0.0
C152 C 0.69498 0.2806 0.92246 0.0
N153 N 0.65668 0.29098 0.91705 0.0
N154 N 0.65591 0.29846 0.89745 0.0
C155 C 0.6939 0.29479 0.89002 0.0
C156 C 0.71951 0.28244 0.90541 0.0
C157 C 0.70712 0.26735 0.94326 0.0
H158 H 0.68825 0.24075 0.94784 0.0
H159 H 0.73991 0.25897 0.94395 0.0
H160 H 0.701 0.29251 0.95412 0.0
O161 O 0.58493 0.35288 0.92689 0.0
O162 O 0.58191 0.36007 0.89337 0.0
H163 H 0.73926 0.31461 0.86851 0.0
H164 H 0.70335 0.27815 0.859 0.0
C165 C 0.70668 0.30529 0.86888 0.0
H166 H 0.68791 0.3307 0.86292 0.0
H167 H 0.60675 0.36964 0.84983 0.0
O168 O 0.61869 0.2926 0.96193 0.0
C169 C 0.57575 0.37379 0.91122 0.0
Co170 Co 0.7049 0.61202 0.41761 0.0
Co171 Co 0.69655 0.60092 0.37036 0.0
C172 C 0.75973 0.5557 0.39575 0.0
O173 O 0.74946 0.57307 0.41224 0.0
O174 O 0.74158 0.56384 0.37916 0.0
C175 C 0.71698 0.60561 0.46093 0.0
O176 O 0.72978 0.56857 0.45659 0.0
C177 C 0.73049 0.61748 0.33007 0.0
C178 C 0.67781 0.60594 0.31006 0.0
C179 C 0.71807 0.61928 0.3099 0.0
N180 N 0.69886 0.60457 0.34142 0.0
N181 N 0.66757 0.59739 0.32933 0.0
C182 C 0.77168 0.62712 0.33864 0.0
H183 H 0.77584 0.61203 0.3535 0.0
H184 H 0.77439 0.66058 0.34104 0.0
H185 H 0.79609 0.61715 0.32809 0.0
C186 C 0.7152 0.69854 0.40493 0.0
N187 N 0.70948 0.65859 0.4008 0.0
N188 N 0.70183 0.65421 0.38139 0.0
C189 C 0.69987 0.6914 0.37274 0.0
C190 C 0.70921 0.7209 0.38722 0.0
C191 C 0.72782 0.7143 0.42527 0.0
H192 H 0.74645 0.69108 0.43326 0.0
H193 H 0.74578 0.74292 0.42385 0.0
H194 H 0.70016 0.72051 0.43446 0.0
O195 O 0.65167 0.58368 0.41255 0.0
O196 O 0.64419 0.57659 0.37924 0.0
H197 H 0.66792 0.72892 0.35101 0.0
H198 H 0.70882 0.69863 0.34079 0.0
C199 C 0.68345 0.69884 0.35188 0.0
H200 H 0.66127 0.67466 0.34773 0.0
H201 H 0.63899 0.58751 0.33429 0.0
O202 O 0.70547 0.62896 0.44664 0.0
C203 C 0.63109 0.57152 0.39725 0.0
Co204 Co 0.39783 0.7177 0.9211 0.0
Co205 Co 0.40882 0.70128 0.87424 0.0
C206 C 0.45462 0.76781 0.89645 0.0
O207 O 0.43922 0.75911 0.91358 0.0
O208 O 0.44512 0.74823 0.88049 0.0
C209 C 0.38619 0.7604 0.95857 0.0
O210 O 0.39742 0.79171 0.94745 0.0
C211 C 0.38928 0.72828 0.83332 0.0
C212 C 0.40487 0.67475 0.81447 0.0
C213 C 0.38831 0.71375 0.81356 0.0
N214 N 0.40475 0.69894 0.84534 0.0
N215 N 0.41434 0.66712 0.83397 0.0
C216 C 0.37658 0.76965 0.84075 0.0
H217 H 0.39237 0.77729 0.8551 0.0
H218 H 0.3433 0.76978 0.84375 0.0
H219 H 0.38327 0.79332 0.82918 0.0
C220 C 0.31102 0.72567 0.90754 0.0
N221 N 0.35118 0.7199 0.904 0.0
N222 N 0.35602 0.70834 0.88507 0.0
C223 C 0.31925 0.70381 0.87635 0.0
C224 C 0.28945 0.71585 0.89 0.0
C225 C 0.29412 0.74079 0.9272 0.0
H226 H 0.31554 0.76294 0.93415 0.0
H227 H 0.26407 0.75574 0.92503 0.0
H228 H 0.29047 0.71458 0.9377 0.0
O229 O 0.42409 0.66285 0.91848 0.0
O230 O 0.43301 0.6508 0.88556 0.0
H231 H 0.33744 0.6595 0.85394 0.0
H232 H 0.28309 0.66422 0.85727 0.0
C233 C 0.3123 0.6814 0.85681 0.0
H234 H 0.31062 0.70338 0.8441 0.0
H235 H 0.42663 0.63995 0.83955 0.0
O236 O 0.38293 0.72543 0.95026 0.0
C237 C 0.43668 0.64007 0.90404 0.0
Co238 Co 0.29461 0.38436 0.41625 0.0
Co239 Co 0.30203 0.39587 0.36875 0.0
C240 C 0.24125 0.4425 0.39537 0.0
O241 O 0.25083 0.42429 0.41169 0.0
O242 O 0.2592 0.43432 0.37873 0.0
C243 C 0.28679 0.39194 0.45957 0.0
O244 O 0.27854 0.43024 0.45523 0.0
C245 C 0.25848 0.37541 0.33198 0.0
C246 C 0.30585 0.37442 0.30829 0.0
C247 C 0.26543 0.36399 0.31196 0.0
N248 N 0.29336 0.39009 0.33994 0.0
N249 N 0.32137 0.39045 0.32553 0.0
C250 C 0.21974 0.37094 0.34383 0.0
H251 H 0.21532 0.39778 0.35379 0.0
H252 H 0.22168 0.34343 0.35359 0.0
H253 H 0.1929 0.36825 0.33367 0.0
C254 C 0.28028 0.29861 0.40321 0.0
N255 N 0.28806 0.33836 0.39941 0.0
N256 N 0.29626 0.34286 0.38007 0.0
C257 C 0.29653 0.30583 0.37118 0.0
C258 C 0.28512 0.27667 0.38531 0.0
C259 C 0.26726 0.28258 0.4234 0.0
H260 H 0.24989 0.3063 0.43177 0.0
H261 H 0.24813 0.25478 0.4217 0.0
H262 H 0.29477 0.27467 0.43237 0.0
O263 O 0.34801 0.41126 0.41009 0.0
O264 O 0.35602 0.41875 0.37674 0.0
H265 H 0.32796 0.26704 0.34987 0.0
H266 H 0.2881 0.29772 0.33926 0.0
C267 C 0.3132 0.29756 0.35046 0.0
H268 H 0.33604 0.3211 0.34631 0.0
H269 H 0.35172 0.39892 0.3278 0.0
O270 O 0.29464 0.36716 0.44523 0.0
C271 C 0.36906 0.4231 0.39487 0.0
Co272 Co 0.92023 0.76993 0.87536 0.0
Co273 Co 0.84379 0.82657 0.87701 0.0
C274 C 0.86765 0.77235 0.91199 0.0
O275 O 0.8961 0.75573 0.9018 0.0
O276 O 0.8461 0.80111 0.90461 0.0
C277 C 0.99196 0.72629 0.88505 0.0
O278 O 0.98031 0.73408 0.90369 0.0
C279 C 0.76059 0.85491 0.88639 0.0
C280 C 0.7428 0.88396 0.85758 0.0
C281 C 0.7274 0.87179 0.87619 0.0
N282 N 0.79318 0.85544 0.874 0.0
N283 N 0.78264 0.87404 0.85706 0.0
C284 C 0.76245 0.84098 0.90796 0.0
H285 H 0.79176 0.85074 0.91482 0.0
H286 H 0.76077 0.80711 0.90851 0.0
H287 H 0.73733 0.85435 0.91707 0.0
C288 C 0.88331 0.74496 0.83682 0.0
N289 N 0.88224 0.76608 0.85424 0.0
N290 N 0.84719 0.78512 0.85597 0.0
C291 C 0.82297 0.77329 0.8404 0.0
C292 C 0.8452 0.74765 0.82738 0.0
C293 C 0.92221 0.72771 0.82847 0.0
H294 H 0.9486 0.74586 0.83393 0.0
H295 H 0.92602 0.69579 0.83382 0.0
H296 H 0.92247 0.72839 0.81169 0.0
O297 O 0.94229 0.82477 0.87605 0.0
O298 O 0.89013 0.86762 0.87448 0.0
H299 H 0.77378 0.81038 0.8297 0.0
H300 H 0.76126 0.75701 0.8325 0.0
C301 C 0.77839 0.78292 0.83925 0.0
H302 H 0.76603 0.78898 0.85459 0.0
H303 H 0.80207 0.87786 0.84466 0.0
O304 O 0.96846 0.73561 0.87048 0.0
C305 C 0.92853 0.86091 0.87501 0.0
Co306 Co 0.19611 0.90893 0.37074 0.0
Co307 Co 0.14806 0.82647 0.37163 0.0
C308 C 0.18969 0.86157 0.40884 0.0
O309 O 0.20437 0.89192 0.39926 0.0
O310 O 0.16776 0.83498 0.39987 0.0
C311 C 0.24513 0.98038 0.37895 0.0
O312 O 0.24922 0.96523 0.39724 0.0
C313 C 0.14055 0.73955 0.37983 0.0
C314 C 0.08723 0.72078 0.36158 0.0
C315 C 0.11661 0.70629 0.37481 0.0
N316 N 0.12593 0.77259 0.37026 0.0
N317 N 0.09386 0.76129 0.35945 0.0
C318 C 0.17869 0.73922 0.39227 0.0
H319 H 0.1989 0.76501 0.38794 0.0
H320 H 0.19522 0.70986 0.39033 0.0
H321 H 0.17042 0.74231 0.40847 0.0
C322 C 0.23336 0.86913 0.33472 0.0
N323 N 0.21048 0.86772 0.35169 0.0
N324 N 0.19024 0.83298 0.35208 0.0
C325 C 0.19961 0.81124 0.33536 0.0
C326 C 0.22718 0.83337 0.32373 0.0
C327 C 0.25547 0.90655 0.32773 0.0
H328 H 0.23298 0.93108 0.32457 0.0
H329 H 0.27592 0.91756 0.33997 0.0
H330 H 0.27363 0.90046 0.31386 0.0
O331 O 0.13812 0.92468 0.36716 0.0
O332 O 0.10379 0.86618 0.36612 0.0
H333 H 0.14612 0.77803 0.32684 0.0
H334 H 0.19261 0.75892 0.31549 0.0
C335 C 0.17903 0.77216 0.32943 0.0
H336 H 0.18195 0.7497 0.34189 0.0
H337 H 0.07684 0.78109 0.35039 0.0
O338 O 0.22624 0.95993 0.36553 0.0
C339 C 0.10478 0.90509 0.36524 0.0
Co340 Co 0.0794 0.20079 0.87008 0.0
Co341 Co 0.16765 0.16768 0.8747 0.0
C342 C 0.1272 0.21116 0.90888 0.0
O343 O 0.096 0.217 0.89779 0.0
O344 O 0.15821 0.19198 0.90219 0.0
C345 C 0.00882 0.25095 0.87598 0.0
O346 O 0.03087 0.27013 0.88961 0.0
C347 C 0.25323 0.15093 0.88566 0.0
C348 C 0.27708 0.12622 0.85686 0.0
C349 C 0.28875 0.13733 0.87627 0.0
N350 N 0.22258 0.14917 0.87216 0.0
N351 N 0.23685 0.13344 0.85515 0.0
C352 C 0.24732 0.16199 0.90748 0.0
H353 H 0.21811 0.14906 0.91301 0.0
H354 H 0.24594 0.19575 0.909 0.0
H355 H 0.2723 0.14981 0.91706 0.0
C356 C 0.1144 0.23896 0.83355 0.0
N357 N 0.11795 0.21668 0.85055 0.0
N358 N 0.1563 0.20669 0.85341 0.0
C359 C 0.17905 0.22491 0.83889 0.0
C360 C 0.15323 0.24572 0.82549 0.0
C361 C 0.07395 0.24966 0.82443 0.0
H362 H 0.05085 0.22634 0.82855 0.0
H363 H 0.06372 0.27963 0.83047 0.0
H364 H 0.07584 0.25129 0.80768 0.0
O365 O 0.0704 0.14203 0.86924 0.0
O366 O 0.13293 0.11723 0.87198 0.0
H367 H 0.23643 0.20015 0.82952 0.0
H368 H 0.23636 0.25481 0.83273 0.0
C369 C 0.22473 0.22557 0.839 0.0
H370 H 0.23641 0.22181 0.85464 0.0
H371 H 0.21927 0.12864 0.84218 0.0
O372 O 0.02527 0.22368 0.86502 0.0
C373 C 0.09456 0.11185 0.87015 0.0
Co374 Co 0.77942 0.09266 0.38134 0.0
Co375 Co 0.83479 0.17057 0.38026 0.0
C376 C 0.79706 0.13936 0.41921 0.0
O377 O 0.77789 0.11078 0.41016 0.0
O378 O 0.82004 0.16383 0.40943 0.0
C379 C 0.73565 0.01876 0.39148 0.0
O380 O 0.74392 0.0281 0.41039 0.0
C381 C 0.85404 0.25657 0.3878 0.0
C382 C 0.89788 0.27106 0.36344 0.0
C383 C 0.87687 0.28805 0.37958 0.0
N384 N 0.86145 0.22227 0.37721 0.0
N385 N 0.88812 0.23101 0.36282 0.0
C386 C 0.82151 0.26037 0.4036 0.0
H387 H 0.79761 0.23679 0.40134 0.0
H388 H 0.80724 0.29112 0.40317 0.0
H389 H 0.83551 0.25618 0.41874 0.0
C390 C 0.74161 0.13433 0.34631 0.0
N391 N 0.76668 0.13423 0.36246 0.0
N392 N 0.7874 0.16862 0.36296 0.0
C393 C 0.77377 0.19318 0.34796 0.0
C394 C 0.7445 0.17213 0.33654 0.0
C395 C 0.72102 0.09638 0.33867 0.0
H396 H 0.73985 0.06921 0.34221 0.0
H397 H 0.69102 0.09292 0.34627 0.0
H398 H 0.71653 0.09725 0.32204 0.0
O399 O 0.83354 0.07252 0.37486 0.0
O400 O 0.87486 0.12605 0.37254 0.0
H401 H 0.81652 0.23708 0.33669 0.0
H402 H 0.76416 0.2548 0.33708 0.0
C403 C 0.78739 0.23652 0.34525 0.0
H404 H 0.7924 0.25091 0.3602 0.0
H405 H 0.89846 0.20997 0.35208 0.0
O406 O 0.74482 0.04383 0.37752 0.0
C407 C 0.86849 0.08761 0.37131 0.0
Co408 Co 0.41398 0.74029 0.14542 0.0
Co409 Co 0.34294 0.67748 0.13953 0.0
C410 C 0.37088 0.73525 0.10623 0.0
O411 O 0.39573 0.7538 0.11783 0.0
O412 O 0.35011 0.70481 0.11248 0.0
C413 C 0.48527 0.78706 0.13943 0.0
O414 O 0.47279 0.78614 0.12054 0.0
C415 C 0.25834 0.66139 0.12934 0.0
C416 C 0.24569 0.60153 0.14345 0.0
C417 C 0.22795 0.63279 0.13243 0.0
N418 N 0.29278 0.64781 0.13802 0.0
N419 N 0.28521 0.61175 0.14626 0.0
C420 C 0.2541 0.70238 0.11955 0.0
H421 H 0.27474 0.72479 0.12695 0.0
H422 H 0.22211 0.71342 0.12034 0.0
H423 H 0.26297 0.6998 0.10338 0.0
C424 C 0.36262 0.76619 0.18022 0.0
N425 N 0.37011 0.74274 0.16385 0.0
N426 N 0.34021 0.71624 0.1615 0.0
C427 C 0.31281 0.72188 0.17651 0.0
C428 C 0.32595 0.75385 0.18885 0.0
C429 C 0.3898 0.80022 0.18711 0.0
H430 H 0.40415 0.81526 0.17385 0.0
H431 H 0.37255 0.82312 0.19609 0.0
H432 H 0.41444 0.78738 0.19671 0.0
O433 O 0.438 0.68505 0.14575 0.0
O434 O 0.389 0.63857 0.14375 0.0
H435 H 0.28545 0.66257 0.17821 0.0
H436 H 0.26333 0.69931 0.19526 0.0
C437 C 0.27645 0.69502 0.17993 0.0
H438 H 0.25279 0.7021 0.16845 0.0
H439 H 0.3067 0.59465 0.15427 0.0
O440 O 0.4615 0.77418 0.15326 0.0
C441 C 0.4266 0.64791 0.14549 0.0
Co442 Co 0.2889 0.41323 0.64403 0.0
Co443 Co 0.33178 0.3276 0.64625 0.0
C444 C 0.29794 0.35816 0.60736 0.0
O445 O 0.28609 0.39085 0.61594 0.0
O446 O 0.31582 0.33036 0.6174 0.0
C447 C 0.23433 0.47395 0.62901 0.0
O448 O 0.22621 0.44563 0.6155 0.0
C449 C 0.34099 0.23903 0.64203 0.0
C450 C 0.39587 0.22651 0.66038 0.0
C451 C 0.36698 0.20763 0.64814 0.0
N452 N 0.35414 0.2743 0.65026 0.0
N453 N 0.38711 0.26667 0.66109 0.0
C454 C 0.30246 0.23593 0.62993 0.0
H455 H 0.28309 0.26331 0.63233 0.0
H456 H 0.28497 0.20822 0.63427 0.0
H457 H 0.31016 0.23408 0.61359 0.0
C458 C 0.24812 0.38024 0.6809 0.0
N459 N 0.27152 0.37542 0.66428 0.0
N460 N 0.28713 0.33837 0.66428 0.0
C461 C 0.27237 0.31764 0.68037 0.0
C462 C 0.24752 0.34362 0.69182 0.0
C463 C 0.2318 0.42092 0.68744 0.0
H464 H 0.25094 0.44591 0.68125 0.0
H465 H 0.20034 0.42464 0.68152 0.0
H466 H 0.23119 0.42354 0.70419 0.0
O467 O 0.3458 0.42862 0.64938 0.0
O468 O 0.37654 0.36824 0.65143 0.0
H469 H 0.31161 0.27064 0.69168 0.0
H470 H 0.25759 0.25916 0.6939 0.0
C471 C 0.28134 0.27348 0.68428 0.0
H472 H 0.28221 0.25655 0.66983 0.0
H473 H 0.4036 0.28889 0.66899 0.0
O474 O 0.25757 0.46546 0.64383 0.0
C475 C 0.37773 0.40725 0.65207 0.0
Co476 Co 0.58073 0.31145 0.15556 0.0
Co477 Co 0.66945 0.34477 0.15189 0.0
C478 C 0.63058 0.29856 0.11791 0.0
O479 O 0.59909 0.29206 0.12867 0.0
O480 O 0.66036 0.31966 0.12458 0.0
C481 C 0.50981 0.26106 0.14952 0.0
O482 O 0.53188 0.24249 0.1357 0.0
C483 C 0.75664 0.35119 0.14242 0.0
C484 C 0.77893 0.39241 0.16657 0.0
C485 C 0.79136 0.37021 0.14982 0.0
N486 N 0.72488 0.36206 0.15409 0.0
N487 N 0.73834 0.38693 0.16842 0.0
C488 C 0.7542 0.32014 0.12578 0.0
H489 H 0.73431 0.29443 0.13054 0.0
H490 H 0.78474 0.30799 0.12176 0.0
H491 H 0.74042 0.33452 0.1122 0.0
C492 C 0.61344 0.27768 0.1937 0.0
N493 N 0.61816 0.29762 0.17608 0.0
N494 N 0.65667 0.30753 0.17364 0.0
C495 C 0.67842 0.29157 0.18912 0.0
C496 C 0.65172 0.27225 0.2027 0.0
C497 C 0.57227 0.2687 0.20252 0.0
H498 H 0.54974 0.2915 0.19716 0.0
H499 H 0.56206 0.238 0.19743 0.0
H500 H 0.57299 0.26966 0.21931 0.0
O501 O 0.57263 0.37052 0.15483 0.0
O502 O 0.63534 0.39571 0.15371 0.0
H503 H 0.73416 0.3204 0.19808 0.0
H504 H 0.73612 0.26516 0.19792 0.0
C505 C 0.72406 0.29245 0.18996 0.0
H506 H 0.73688 0.29305 0.17444 0.0
H507 H 0.7199 0.39956 0.17969 0.0
O508 O 0.52595 0.28877 0.16039 0.0
C509 C 0.59678 0.40085 0.15435 0.0
Co510 Co 0.70948 0.58673 0.64577 0.0
Co511 Co 0.65665 0.666 0.6475 0.0
C512 C 0.69607 0.6366 0.60866 0.0
O513 O 0.71369 0.60687 0.61747 0.0
O514 O 0.67306 0.66099 0.61846 0.0
C515 C 0.75395 0.51327 0.6352 0.0
O516 O 0.74713 0.52323 0.61624 0.0
C517 C 0.6399 0.75267 0.64096 0.0
C518 C 0.5955 0.7673 0.66505 0.0
C519 C 0.61742 0.7843 0.64924 0.0
N520 N 0.63135 0.71819 0.65114 0.0
N521 N 0.60444 0.72704 0.66542 0.0
C522 C 0.67302 0.75644 0.62547 0.0
H523 H 0.69645 0.73245 0.62771 0.0
H524 H 0.68779 0.78695 0.6263 0.0
H525 H 0.65942 0.75303 0.61019 0.0
C526 C 0.74596 0.6242 0.68209 0.0
N527 N 0.72196 0.62633 0.66562 0.0
N528 N 0.70298 0.66164 0.66536 0.0
C529 C 0.7172 0.6848 0.68083 0.0
C530 C 0.74484 0.6617 0.69229 0.0
C531 C 0.76313 0.58451 0.68958 0.0
H532 H 0.74271 0.55893 0.68527 0.0
H533 H 0.79343 0.57924 0.68256 0.0
H534 H 0.76609 0.58418 0.7063 0.0
O535 O 0.65465 0.56723 0.65088 0.0
O536 O 0.61487 0.62179 0.65371 0.0
H537 H 0.67728 0.73045 0.69288 0.0
H538 H 0.7304 0.74571 0.69175 0.0
C539 C 0.7058 0.72867 0.68387 0.0
H540 H 0.70053 0.74348 0.66906 0.0
H541 H 0.59322 0.70586 0.67585 0.0
O542 O 0.74332 0.53759 0.64923 0.0
C543 C 0.61997 0.58307 0.6542 0.0
H544 H 0.04858 0.06673 0.1444 0.0
H545 H 0.04605 0.09371 0.08 0.0
H546 H 0.00654 0.03084 0.07393 0.0
H547 H 0.06011 0.95729 0.13902 0.0
H548 H 0.02805 0.94554 0.16042 0.0
H549 H 0.0562 0.99284 0.15982 0.0
H550 H 0.98904 0.03318 0.1651 0.0
H551 H 0.96063 0.98602 0.16557 0.0
H552 H 0.94715 0.02554 0.1478 0.0
H553 H 0.96662 0.96617 0.07466 0.0
H554 H 0.93176 0.90121 0.08183 0.0
H555 H 0.96029 0.91477 0.14576 0.0
C556 C 0.03986 0.05939 0.12901 0.0
C557 C 0.05049 0.08534 0.11268 0.0
C558 C 0.03845 0.07443 0.09277 0.0
C559 C 0.01584 0.0388 0.08916 0.0
C560 C 0.00556 0.01421 0.10557 0.0
C561 C 0.01736 0.02376 0.12509 0.0
C562 C 0.00266 0.99161 0.13995 0.0
C563 C 0.03892 0.97057 0.15041 0.0
C564 C 0.97311 0.01021 0.15552 0.0
C565 C 0.98072 0.96257 0.12571 0.0
C566 C 0.98268 0.9764 0.10597 0.0
C567 C 0.96493 0.95495 0.09005 0.0
C568 C 0.94511 0.91802 0.09432 0.0
C569 C 0.94321 0.90266 0.11438 0.0
C570 C 0.96102 0.92562 0.13028 0.0
H571 H 0.07415 0.94056 0.65477 0.0
H572 H 0.10392 0.96366 0.5916 0.0
H573 H 0.04207 0.00448 0.58796 0.0
H574 H 0.96534 0.93081 0.64694 0.0
H575 H 0.95124 0.95626 0.67013 0.0
H576 H -0.00102 0.92917 0.66852 0.0
H577 H 0.03765 0.99472 0.67931 0.0
H578 H 0.99002 0.02205 0.68091 0.0
H579 H 0.03057 0.04119 0.66509 0.0
H580 H 0.97802 0.04155 0.59005 0.0
H581 H 0.91198 0.07285 0.59781 0.0
H582 H 0.91977 0.02769 0.65959 0.0
C583 C 0.06763 0.95433 0.64022 0.0
C584 C 0.09417 0.9486 0.62349 0.0
C585 C 0.08431 0.96712 0.60469 0.0
C586 C 0.04917 0.99065 0.60241 0.0
C587 C 0.02374 0.99561 0.61903 0.0
C588 C 0.03213 0.97806 0.63758 0.0
C589 C 0.99842 0.98796 0.65267 0.0
C590 C 0.97724 0.94871 0.66 0.0
C591 C 0.01518 0.01297 0.67056 0.0
C592 C 0.97005 0.01355 0.63956 0.0
C593 C 0.98567 0.01748 0.62025 0.0
C594 C 0.96536 0.03882 0.60512 0.0
C595 C 0.9277 0.05644 0.60971 0.0
C596 C 0.91044 0.05277 0.62931 0.0
C597 C 0.9322 0.03127 0.64451 0.0
H598 H 0.46594 0.58151 0.8777 0.0
H599 H 0.45347 0.6097 0.94173 0.0
H600 H 0.48844 0.54541 0.95027 0.0
H601 H 0.4486 0.47301 0.8823 0.0
H602 H 0.48538 0.45959 0.86312 0.0
H603 H 0.45936 0.50802 0.86192 0.0
H604 H 0.52899 0.54556 0.86097 0.0
H605 H 0.55522 0.49726 0.86225 0.0
H606 H 0.56574 0.53641 0.88076 0.0
H607 H 0.52496 0.47872 0.95206 0.0
H608 H 0.55923 0.41257 0.94703 0.0
H609 H 0.54807 0.42692 0.88184 0.0
C610 C 0.47048 0.57419 0.89353 0.0
C611 C 0.4569 0.60081 0.90903 0.0
C612 C 0.46348 0.58992 0.92955 0.0
C613 C 0.48341 0.55346 0.93458 0.0
C614 C 0.49655 0.52809 0.91896 0.0
C615 C 0.49028 0.53782 0.89885 0.0
C616 C 0.50725 0.50492 0.88502 0.0
C617 C 0.47311 0.48522 0.87235 0.0
C618 C 0.54133 0.52207 0.87145 0.0
C619 C 0.52406 0.47525 0.90053 0.0
C620 C 0.51759 0.48932 0.92 0.0
C621 C 0.53019 0.46733 0.93689 0.0
C622 C 0.54969 0.42974 0.93385 0.0
C623 C 0.55642 0.41438 0.91403 0.0
C624 C 0.54352 0.43773 0.89718 0.0
H625 H 0.57631 0.54298 0.36869 0.0
H626 H 0.59697 0.55072 0.4336 0.0
H627 H 0.53317 0.51294 0.43963 0.0
H628 H 0.46684 0.55634 0.37081 0.0
H629 H 0.45671 0.52078 0.35055 0.0
H630 H 0.5042 0.54853 0.35115 0.0
H631 H 0.54404 0.48022 0.34968 0.0
H632 H 0.49667 0.45225 0.34916 0.0
H633 H 0.53412 0.44142 0.36841 0.0
H634 H 0.4683 0.47382 0.43892 0.0
H635 H 0.40423 0.4377 0.43166 0.0
H636 H 0.42393 0.45524 0.36715 0.0
C637 C 0.5674 0.53684 0.38418 0.0
C638 C 0.59184 0.5499 0.40067 0.0
C639 C 0.57891 0.54119 0.42069 0.0
C640 C 0.5427 0.51963 0.4243 0.0
C641 C 0.51957 0.50702 0.40776 0.0
C642 C 0.53116 0.5154 0.38809 0.0
C643 C 0.50032 0.4985 0.3731 0.0
C644 C 0.48086 0.53311 0.36067 0.0
C645 C 0.51997 0.46617 0.35927 0.0
C646 C 0.46966 0.47929 0.38745 0.0
C647 C 0.48158 0.48453 0.40735 0.0
C648 C 0.45856 0.46958 0.4234 0.0
C649 C 0.42214 0.449 0.41907 0.0
C650 C 0.4088 0.44353 0.3988 0.0
C651 C 0.43318 0.45881 0.38279 0.0
H652 H 0.01355 0.09052 0.86906 0.0
H653 H 0.13554 0.03863 0.87076 0.0
H654 H 0.10563 0.96932 0.87163 0.0
H655 H 0.96778 0.02002 0.90326 0.0
H656 H 0.91979 0.01763 0.88997 0.0
H657 H 0.95054 0.0632 0.88864 0.0
H658 H 0.95065 0.05879 0.84949 0.0
H659 H 0.91974 0.01327 0.85067 0.0
H660 H 0.96769 0.0125 0.8373 0.0
H661 H 0.06316 0.90657 0.87328 0.0
H662 H 0.0112 0.85298 0.87516 0.0
H663 H 0.91552 0.94491 0.87254 0.0
C664 C 0.03411 0.06464 0.86946 0.0
C665 C 0.07704 0.07007 0.86981 0.0
C666 C 0.10267 0.0353 0.87046 0.0
C667 C 0.08594 0.99583 0.87096 0.0
C668 C 0.04357 0.9917 0.8708 0.0
C669 C 0.01796 0.02508 0.87001 0.0
C670 C 0.97344 0.01212 0.87039 0.0
C671 C 0.95162 0.02926 0.88918 0.0
C672 C 0.9516 0.02493 0.85079 0.0
C673 C 0.97803 0.96609 0.87163 0.0
C674 C 0.01881 0.95518 0.8718 0.0
C675 C 0.03116 0.91471 0.87309 0.0
C676 C 0.00115 0.88445 0.87419 0.0
C677 C 0.95896 0.89455 0.874 0.0
C678 C 0.94736 0.9361 0.8727 0.0
H679 H 0.0904 0.9863 0.3733 0.0
H680 H 0.03226 0.87581 0.35084 0.0
H681 H 0.96757 0.91344 0.3469 0.0
H682 H 0.00711 0.01948 0.40282 0.0
H683 H 0.01432 0.07318 0.39787 0.0
H684 H 0.05725 0.03895 0.39703 0.0
H685 H 0.07348 0.06266 0.36051 0.0
H686 H 0.03047 0.09697 0.36121 0.0
H687 H 0.03451 0.05943 0.3413 0.0
H688 H 0.90904 0.96068 0.3472 0.0
H689 H 0.8579 0.01397 0.35342 0.0
H690 H 0.95233 0.09493 0.37639 0.0
C691 C 0.06421 0.97019 0.36724 0.0
C692 C 0.06643 0.92813 0.36223 0.0
C693 C 0.03129 0.90797 0.35476 0.0
C694 C 0.99449 0.92914 0.35236 0.0
C695 C 0.99327 0.97042 0.35756 0.0
C696 C 0.02705 0.9908 0.36494 0.0
C697 C 0.01651 0.03447 0.37079 0.0
C698 C 0.02425 0.04194 0.39347 0.0
C699 C 0.04015 0.0652 0.35766 0.0
C700 C 0.97128 0.03517 0.3659 0.0
C701 C 0.95886 0.99795 0.35805 0.0
C702 C 0.91839 0.99003 0.3532 0.0
C703 C 0.88956 0.02056 0.35687 0.0
C704 C 0.90111 0.05866 0.36542 0.0
C705 C 0.94272 0.06636 0.3696 0.0
H706 H 0.51583 0.42122 0.15277 0.0
H707 H 0.63712 0.47477 0.15494 0.0
H708 H 0.60645 0.54379 0.15343 0.0
H709 H 0.47342 0.4916 0.11753 0.0
H710 H 0.4239 0.49264 0.12939 0.0
H711 H 0.45531 0.44767 0.13133 0.0
H712 H 0.45062 0.45101 0.17046 0.0
H713 H 0.4191 0.49594 0.16866 0.0
H714 H 0.46535 0.49727 0.18342 0.0
H715 H 0.56252 0.6066 0.15113 0.0
H716 H 0.50912 0.65901 0.14813 0.0
H717 H 0.41626 0.56408 0.1471 0.0
C718 C 0.53611 0.44737 0.15305 0.0
C719 C 0.579 0.44251 0.15402 0.0
C720 C 0.60424 0.47767 0.15422 0.0
C721 C 0.58708 0.51698 0.15338 0.0
C722 C 0.5447 0.52052 0.15231 0.0
C723 C 0.51957 0.48666 0.15215 0.0
C724 C 0.47502 0.49868 0.15056 0.0
C725 C 0.4558 0.48164 0.13104 0.0
C726 C 0.45112 0.48491 0.1694 0.0
C727 C 0.47894 0.54475 0.14974 0.0
C728 C 0.51939 0.55667 0.15084 0.0
C729 C 0.53077 0.59761 0.15029 0.0
C730 C 0.50007 0.62716 0.14857 0.0
C731 C 0.4583 0.61575 0.14735 0.0
C732 C 0.44779 0.57387 0.14797 0.0
H733 H 0.39576 0.48825 0.6456 0.0
H734 H 0.44857 0.37424 0.66672 0.0
H735 H 0.51421 0.40944 0.67245 0.0
H736 H 0.48247 0.52143 0.61829 0.0
H737 H 0.47624 0.57481 0.62434 0.0
H738 H 0.4324 0.54168 0.62351 0.0
H739 H 0.41374 0.56263 0.66019 0.0
H740 H 0.45769 0.59576 0.66117 0.0
H741 H 0.45094 0.55661 0.68007 0.0
H742 H 0.57415 0.45522 0.67444 0.0
H743 H 0.62707 0.50776 0.67065 0.0
H744 H 0.53683 0.59304 0.64762 0.0
C745 C 0.42098 0.47076 0.65168 0.0
C746 C 0.41694 0.42846 0.65585 0.0
C747 C 0.4509 0.4066 0.66344 0.0
C748 C 0.48822 0.42639 0.66685 0.0
C749 C 0.49114 0.468 0.66254 0.0
C750 C 0.45858 0.48997 0.65502 0.0
C751 C 0.47076 0.53382 0.65042 0.0
C752 C 0.46514 0.54348 0.6278 0.0
C753 C 0.44686 0.56398 0.66376 0.0
C754 C 0.51552 0.53286 0.65622 0.0
C755 C 0.52629 0.49463 0.6634 0.0
C756 C 0.56607 0.4853 0.66896 0.0
C757 C 0.59592 0.51544 0.66669 0.0
C758 C 0.58611 0.55457 0.65881 0.0
C759 C 0.54512 0.56366 0.65393 0.0
H760 H 0.14584 0.18466 0.02894 0.0
H761 H 0.05605 0.28175 0.0334 0.0
H762 H 0.06135 0.29369 0.99674 0.0
H763 H 0.20821 0.2314 0.98786 0.0
H764 H 0.21683 0.18311 0.9754 0.0
H765 H 0.21013 0.18495 1.00249 0.0
H766 H 0.15088 0.13277 0.99981 0.0
H767 H 0.15748 0.13072 0.97278 0.0
H768 H 0.1084 0.14357 0.98333 0.0
H769 H 0.07083 0.29163 0.95978 0.0
H770 H 0.08256 0.27411 0.924 0.0
H771 H 0.16615 0.17803 0.94215 0.0
C772 C 0.12801 0.20896 0.02221 0.0
C773 C 0.10067 0.23244 0.03407 0.0
C774 C 0.07715 0.26336 0.02466 0.0
C775 C 0.08011 0.27056 1.00383 0.0
C776 C 0.1067 0.24657 0.9925 0.0
C777 C 0.13027 0.21633 1.00125 0.0
C778 C 0.15375 0.19281 0.98515 0.0
C779 C 0.19998 0.19842 0.98789 0.0
C780 C 0.1419 0.14728 0.98528 0.0
C781 C 0.13882 0.21396 0.96605 0.0
C782 C 0.11209 0.2452 0.97077 0.0
C783 C 0.09212 0.26761 0.95587 0.0
C784 C 0.09891 0.25735 0.93557 0.0
C785 C 0.12545 0.22492 0.93025 0.0
C786 C 0.14635 0.20353 0.94573 0.0
H787 H 0.7642 0.08432 0.44629 0.0
H788 H 0.82544 0.20187 0.44304 0.0
H789 H 0.82563 0.20605 0.4803 0.0
H790 H 0.70088 0.10696 0.49054 0.0
H791 H 0.70633 0.05629 0.50088 0.0
H792 H 0.70836 0.06389 0.47388 0.0
H793 H 0.77885 0.02822 0.47268 0.0
H794 H 0.77716 0.02067 0.49966 0.0
H795 H 0.81973 0.04712 0.48839 0.0
H796 H 0.82191 0.19624 0.518 0.0
H797 H 0.81495 0.17289 0.55336 0.0
H798 H 0.75744 0.06101 0.53226 0.0
C799 C 0.77709 0.11126 0.45338 0.0
C800 C 0.79451 0.14297 0.44162 0.0
C801 C 0.81168 0.17731 0.45161 0.0
C802 C 0.81195 0.17997 0.47281 0.0
C803 C 0.79505 0.14798 0.48392 0.0
C804 C 0.7779 0.11428 0.47457 0.0
C805 C 0.76346 0.08326 0.49005 0.0
C806 C 0.71699 0.07726 0.48876 0.0
C807 C 0.78617 0.04241 0.48754 0.0
C808 C 0.77552 0.10463 0.50955 0.0
C809 C 0.79347 0.14203 0.50567 0.0
C810 C 0.80775 0.16707 0.52123 0.0
C811 C 0.80371 0.15349 0.54128 0.0
C812 C 0.78568 0.11508 0.54566 0.0
C813 C 0.7713 0.09054 0.52949 0.0
H814 H 0.84725 0.82008 0.94466 0.0
H815 H 0.87697 0.69577 0.92719 0.0
H816 H 0.87517 0.67479 0.96308 0.0
H817 H 0.91177 0.82232 0.98674 0.0
H818 H 0.87904 0.85313 1.0025 0.0
H819 H 0.87613 0.85745 0.97538 0.0
H820 H 0.79881 0.84115 0.97654 0.0
H821 H 0.8014 0.83707 1.00373 0.0
H822 H 0.78147 0.79524 0.98893 0.0
H823 H 0.87559 0.66819 1.00052 0.0
H824 H 0.88123 0.67652 0.03743 0.0
H825 H 0.85495 0.80607 0.03137 0.0
C826 C 0.85217 0.78823 0.94841 0.0
C827 C 0.8616 0.75931 0.93318 0.0
C828 C 0.86933 0.71823 0.93865 0.0
C829 C 0.86827 0.70605 0.95897 0.0
C830 C 0.85986 0.73542 0.97369 0.0
C831 C 0.85205 0.77571 0.96872 0.0
C832 C 0.84802 0.80186 0.98763 0.0
C833 C 0.88069 0.83567 0.98808 0.0
C834 C 0.80485 0.81989 0.98931 0.0
C835 C 0.85558 0.77011 1.00395 0.0
C836 C 0.86166 0.73191 0.99551 0.0
C837 C 0.87056 0.69787 1.00733 0.0
C838 C 0.87376 0.70298 0.02833 0.0
C839 C 0.86855 0.74195 0.03737 0.0
C840 C 0.8589 0.77585 0.02496 0.0
H841 H 0.22185 0.9194 0.43478 0.0
H842 H 0.16915 0.79753 0.43341 0.0
H843 H 0.1725 0.79451 0.47059 0.0
H844 H 0.29039 0.9024 0.47813 0.0
H845 H 0.28213 0.95289 0.48828 0.0
H846 H 0.27888 0.9443 0.46137 0.0
H847 H 0.20612 0.97509 0.46117 0.0
H848 H 0.20896 0.98349 0.48808 0.0
H849 H 0.16763 0.95387 0.4776 0.0
H850 H 0.17671 0.80611 0.50768 0.0
H851 H 0.18341 0.83069 0.54265 0.0
H852 H 0.23345 0.9454 0.52072 0.0
C853 C 0.21173 0.89175 0.44226 0.0
C854 C 0.19551 0.85853 0.43107 0.0
C855 C 0.18195 0.82325 0.44154 0.0
C856 C 0.18368 0.82124 0.46271 0.0
C857 C 0.19905 0.85476 0.47326 0.0
C858 C 0.21306 0.88929 0.46345 0.0
C859 C 0.22633 0.92174 0.47854 0.0
C860 C 0.27216 0.93086 0.47645 0.0
C861 C 0.20072 0.96085 0.4762 0.0
C862 C 0.21702 0.90018 0.49834 0.0
C863 C 0.20146 0.86153 0.49486 0.0
C864 C 0.18927 0.83614 0.51062 0.0
C865 C 0.19319 0.85049 0.5305 0.0
C866 C 0.20923 0.88993 0.53457 0.0
C867 C 0.22134 0.91502 0.51818 0.0
H868 H 0.66123 0.33557 0.08381 0.0
H869 H 0.59906 0.22646 0.10477 0.0
H870 H 0.59279 0.20219 0.06949 0.0
H871 H 0.59743 0.35109 0.04175 0.0
H872 H 0.6368 0.36984 0.02512 0.0
H873 H 0.64177 0.37627 0.05207 0.0
H874 H 0.71158 0.33922 0.05128 0.0
H875 H 0.70697 0.33291 0.02426 0.0
H876 H 0.71514 0.28896 0.04018 0.0
H877 H 0.58963 0.19145 0.0322 0.0
H878 H 0.58652 0.19621 0.99503 0.0
H879 H 0.64691 0.31435 0.99756 0.0
C880 C 0.6473 0.30609 0.08094 0.0
C881 C 0.63116 0.2825 0.09698 0.0
C882 C 0.61188 0.24475 0.09267 0.0
C883 C 0.60827 0.2307 0.0727 0.0
C884 C 0.62367 0.255 0.05716 0.0
C885 C 0.64264 0.29198 0.06098 0.0
C886 C 0.65304 0.3138 0.04137 0.0
C887 C 0.63093 0.35519 0.04001 0.0
C888 C 0.69944 0.31902 0.03914 0.0
C889 C 0.63643 0.28357 0.02598 0.0
C890 C 0.62022 0.24961 0.03547 0.0
C891 C 0.6024 0.21779 0.02458 0.0
C892 C 0.60079 0.22081 1.00344 0.0
C893 C 0.61641 0.25566 0.99333 0.0
C894 C 0.6347 0.28731 1.00482 0.0
H895 H 0.72874 0.5822 0.58125 0.0
H896 H 0.67212 0.70182 0.58551 0.0
H897 H 0.6751 0.70853 0.54839 0.0
H898 H 0.79616 0.60492 0.53839 0.0
H899 H 0.78917 0.55516 0.52715 0.0
H900 H 0.78583 0.56127 0.55423 0.0
H901 H 0.71382 0.52856 0.55385 0.0
H902 H 0.71684 0.52249 0.5268 0.0
H903 H 0.67476 0.55007 0.53786 0.0
H904 H 0.68107 0.70094 0.51066 0.0
H905 H 0.68836 0.67899 0.47508 0.0
H906 H 0.73941 0.56349 0.4952 0.0
C907 C 0.71759 0.61013 0.57444 0.0
C908 C 0.70053 0.6417 0.58642 0.0
C909 C 0.68559 0.67736 0.57677 0.0
C910 C 0.68717 0.68147 0.55565 0.0
C911 C 0.70364 0.64958 0.5443 0.0
C912 C 0.71859 0.61458 0.55334 0.0
C913 C 0.73261 0.58387 0.53759 0.0
C914 C 0.77868 0.57585 0.53945 0.0
C915 C 0.70803 0.54389 0.53912 0.0
C916 C 0.72269 0.60686 0.5183 0.0
C917 C 0.70635 0.64486 0.52251 0.0
C918 C 0.69402 0.67133 0.50717 0.0
C919 C 0.69825 0.65855 0.48699 0.0
C920 C 0.71442 0.61949 0.48229 0.0
C921 C 0.72702 0.59355 0.49824 0.0
H922 H 0.35097 0.68846 0.07305 0.0
H923 H 0.38603 0.81118 0.09106 0.0
H924 H 0.38782 0.83208 0.05518 0.0
H925 H 0.41738 0.68285 0.03147 0.0
H926 H 0.38344 0.65391 0.01544 0.0
H927 H 0.37954 0.64965 0.04254 0.0
H928 H 0.30326 0.67003 0.04084 0.0
H929 H 0.30685 0.67417 0.01368 0.0
H930 H 0.28884 0.71691 0.02843 0.0
H931 H 0.39037 0.83872 0.01764 0.0
H932 H 0.39612 0.83026 0.9807 0.0
H933 H 0.36226 0.7024 0.98654 0.0
C934 C 0.35805 0.71996 0.06943 0.0
C935 C 0.36792 0.74836 0.08484 0.0
C936 C 0.37818 0.78901 0.0795 0.0
C937 C 0.37916 0.80119 0.05917 0.0
C938 C 0.3701 0.7723 0.04432 0.0
C939 C 0.35982 0.73249 0.04914 0.0
C940 C 0.35488 0.70671 0.03018 0.0
C941 C 0.38565 0.67119 0.0299 0.0
C942 C 0.31083 0.69104 0.02817 0.0
C943 C 0.36466 0.73809 0.01399 0.0
C944 C 0.37278 0.77583 0.02251 0.0
C945 C 0.3838 0.8094 1.01077 0.0
C946 C 0.38702 0.80423 0.98977 0.0
C947 C 0.37965 0.76568 0.98065 0.0
C948 C 0.36791 0.73231 0.993 0.0
H949 H 0.27655 0.41721 0.57978 0.0
H950 H 0.31028 0.28921 0.58446 0.0
H951 H 0.30811 0.28315 0.54721 0.0
H952 H 0.20799 0.40678 0.53635 0.0
H953 H 0.2241 0.45453 0.52534 0.0
H954 H 0.22531 0.44788 0.55242 0.0
H955 H 0.30189 0.46731 0.55276 0.0
H956 H 0.3011 0.47377 0.5257 0.0
H957 H 0.33716 0.43917 0.5371 0.0
H958 H 0.30571 0.29193 0.50931 0.0
H959 H 0.30312 0.31484 0.47371 0.0
H960 H 0.27205 0.43737 0.49384 0.0
C961 C 0.2828 0.38769 0.57303 0.0
C962 C 0.29335 0.3536 0.58511 0.0
C963 C 0.302 0.31574 0.57557 0.0
C964 C 0.30082 0.31197 0.55441 0.0
C965 C 0.29099 0.34634 0.54295 0.0
C966 C 0.28203 0.38345 0.55193 0.0
C967 C 0.27427 0.41618 0.53618 0.0
C968 C 0.2303 0.43228 0.53766 0.0
C969 C 0.30547 0.45116 0.53805 0.0
C970 C 0.28072 0.3918 0.51692 0.0
C971 C 0.29009 0.35152 0.52115 0.0
C972 C 0.29818 0.32335 0.50581 0.0
C973 C 0.29671 0.33669 0.48563 0.0
C974 C 0.2874 0.37792 0.48093 0.0
C975 C 0.27916 0.40564 0.49687 0.0
H976 H 0.18039 0.27129 0.20769 0.0
H977 H 0.10899 0.1867 0.24389 0.0
H978 H 0.13574 0.21879 0.27498 0.0
H979 H 0.26734 0.27431 0.23922 0.0
H980 H 0.27729 0.32807 0.23579 0.0
H981 H 0.2518 0.29945 0.2162 0.0
H982 H 0.19128 0.35024 0.21708 0.0
H983 H 0.2167 0.37927 0.23657 0.0
H984 H 0.16573 0.36032 0.24074 0.0
H985 H 0.1732 0.25658 0.30195 0.0
H986 H 0.21591 0.30026 0.32343 0.0
H987 H 0.25945 0.36498 0.27031 0.0
C988 C 0.16918 0.26029 0.22206 0.0
C989 C 0.14162 0.22694 0.22324 0.0
C990 C 0.12977 0.21233 0.24255 0.0
C991 C 0.14476 0.2304 0.26031 0.0
C992 C 0.17165 0.26321 0.2586 0.0
C993 C 0.18359 0.27828 0.24 0.0
C994 C 0.21346 0.3135 0.2425 0.0
C995 C 0.25493 0.3032 0.23285 0.0
C996 C 0.19572 0.35319 0.2337 0.0
C997 C 0.21655 0.31568 0.26542 0.0
C998 C 0.19227 0.28619 0.27433 0.0
C999 C 0.19138 0.28059 0.29519 0.0
C1000 C 0.21541 0.30616 0.30734 0.0
C1001 C 0.23947 0.33775 0.29873 0.0
C1002 C 0.24049 0.34195 0.2774 0.0
H1003 H 0.75952 0.12998 0.75656 0.0
H1004 H 0.71634 0.19686 0.70406 0.0
H1005 H 0.67432 0.24025 0.72598 0.0
H1006 H 0.6661 0.13472 0.78634 0.0
H1007 H 0.69214 0.14347 0.80999 0.0
H1008 H 0.71688 0.11497 0.79011 0.0
H1009 H 0.77812 0.16505 0.79109 0.0
H1010 H 0.75367 0.19352 0.81104 0.0
H1011 H 0.76917 0.21909 0.78813 0.0
H1012 H 0.63794 0.27787 0.75335 0.0
H1013 H 0.61239 0.30965 0.78475 0.0
H1014 H 0.68252 0.22273 0.82013 0.0
C1015 C 0.74077 0.15342 0.74969 0.0
C1016 C 0.73968 0.15835 0.72839 0.0
C1017 C 0.71587 0.19041 0.72009 0.0
C1018 C 0.69225 0.21582 0.73251 0.0
C1019 C 0.69325 0.20955 0.75333 0.0
C1020 C 0.7172 0.1795 0.76195 0.0
C1021 C 0.71441 0.18105 0.7849 0.0
C1022 C 0.6963 0.14117 0.79333 0.0
C1023 C 0.75634 0.19024 0.79435 0.0
C1024 C 0.68517 0.21663 0.78775 0.0
C1025 C 0.67322 0.23238 0.7693 0.0
C1026 C 0.64695 0.2657 0.76791 0.0
C1027 C 0.63264 0.28359 0.78585 0.0
C1028 C 0.64453 0.26829 0.80502 0.0
C1029 C 0.67135 0.23435 0.80587 0.0
H1030 H 0.78114 0.67663 0.30663 0.0
H1031 H 0.70401 0.59573 0.27109 0.0
H1032 H 0.73634 0.62117 0.2399 0.0
H1033 H 0.78135 0.75994 0.27306 0.0
H1034 H 0.8341 0.77345 0.27699 0.0
H1035 H 0.8059 0.74831 0.2968 0.0
H1036 H 0.86005 0.69078 0.29819 0.0
H1037 H 0.88867 0.71592 0.27849 0.0
H1038 H 0.87303 0.66344 0.27536 0.0
H1039 H 0.77229 0.65908 0.21264 0.0
H1040 H 0.8137 0.70289 0.19077 0.0
H1041 H 0.87384 0.75441 0.24352 0.0
C1042 C 0.77187 0.66301 0.29247 0.0
C1043 C 0.74041 0.63329 0.29152 0.0
C1044 C 0.72808 0.6183 0.27232 0.0
C1045 C 0.74633 0.63251 0.25448 0.0
C1046 C 0.77717 0.66163 0.256 0.0
C1047 C 0.79024 0.67645 0.27447 0.0
C1048 C 0.82373 0.70813 0.27172 0.0
C1049 C 0.81046 0.74993 0.28014 0.0
C1050 C 0.86375 0.69369 0.28152 0.0
C1051 C 0.82711 0.70898 0.2488 0.0
C1052 C 0.7997 0.68207 0.24011 0.0
C1053 C 0.79494 0.67916 0.21925 0.0
C1054 C 0.81932 0.70383 0.20687 0.0
C1055 C 0.84913 0.73038 0.21526 0.0
C1056 C 0.85239 0.73342 0.23659 0.0
H1057 H 0.31906 0.76137 0.80991 0.0
H1058 H 0.41866 0.70879 0.77535 0.0
H1059 H 0.39024 0.73891 0.74408 0.0
H1060 H 0.24194 0.745 0.77322 0.0
H1061 H 0.21537 0.7922 0.77815 0.0
H1062 H 0.24437 0.76813 0.79799 0.0
H1063 H 0.28617 0.83457 0.80304 0.0
H1064 H 0.25716 0.85899 0.78329 0.0
H1065 H 0.31204 0.85715 0.7817 0.0
H1066 H 0.35012 0.77241 0.71661 0.0
H1067 H 0.30081 0.80713 0.6944 0.0
H1068 H 0.22751 0.83984 0.74665 0.0
C1069 C 0.33559 0.75715 0.7959 0.0
C1070 C 0.37175 0.73357 0.79514 0.0
C1071 C 0.39117 0.72706 0.77627 0.0
C1072 C 0.3753 0.74411 0.75847 0.0
C1073 C 0.33979 0.76739 0.75976 0.0
C1074 C 0.3201 0.77392 0.77796 0.0
C1075 C 0.28157 0.79896 0.77501 0.0
C1076 C 0.24357 0.77461 0.78147 0.0
C1077 C 0.28442 0.83985 0.78644 0.0
C1078 C 0.28262 0.80534 0.75227 0.0
C1079 C 0.31658 0.78693 0.74383 0.0
C1080 C 0.32383 0.78757 0.72308 0.0
C1081 C 0.29582 0.80778 0.7106 0.0
C1082 C 0.26115 0.82755 0.71888 0.0
C1083 C 0.25424 0.82576 0.73998 0.0
H1084 H 0.78589 0.77278 0.79928 0.0
H1085 H 0.87275 0.67528 0.811 0.0
H1086 H 0.86203 0.64905 0.77668 0.0
H1087 H 0.71503 0.69817 0.7754 0.0
H1088 H 0.69403 0.73596 0.75852 0.0
H1089 H 0.7127 0.75103 0.78308 0.0
H1090 H 0.76026 0.80387 0.76588 0.0
H1091 H 0.74256 0.78816 0.74124 0.0
H1092 H 0.79629 0.78688 0.74703 0.0
H1093 H 0.85022 0.64182 0.73894 0.0
H1094 H 0.81947 0.63422 0.70527 0.0
H1095 H 0.72121 0.71582 0.7232 0.0
C1096 C 0.80218 0.74542 0.79506 0.0
C1097 C 0.83255 0.72807 0.80776 0.0
C1098 C 0.85216 0.69171 0.80119 0.0
C1099 C 0.84577 0.67598 0.78173 0.0
C1100 C 0.8172 0.69497 0.7694 0.0
C1101 C 0.79379 0.72717 0.77623 0.0
C1102 C 0.76067 0.73759 0.76096 0.0
C1103 C 0.71808 0.73023 0.77003 0.0
C1104 C 0.76524 0.78176 0.75334 0.0
C1105 C 0.77021 0.70697 0.74429 0.0
C1106 C 0.80407 0.68405 0.74921 0.0
C1107 C 0.82224 0.65778 0.73533 0.0
C1108 C 0.8041 0.65327 0.71627 0.0
C1109 C 0.76644 0.67244 0.71161 0.0
C1110 C 0.74974 0.7003 0.72589 0.0
H1111 H 0.30066 0.81496 0.30585 0.0
H1112 H 0.17283 0.83618 0.29296 0.0
H1113 H 0.18506 0.82175 0.25668 0.0
H1114 H 0.3413 0.85826 0.25865 0.0
H1115 H 0.38067 0.82011 0.25622 0.0
H1116 H 0.36254 0.83475 0.28096 0.0
H1117 H 0.34558 0.75909 0.28893 0.0
H1118 H 0.36363 0.74423 0.26425 0.0
H1119 H 0.31264 0.73088 0.27208 0.0
H1120 H 0.21023 0.8022 0.2223 0.0
H1121 H 0.2467 0.77773 0.19183 0.0
H1122 H 0.35832 0.76763 0.22669 0.0
C1123 C 0.27554 0.81702 0.29525 0.0
C1124 C 0.23585 0.82679 0.30199 0.0
C1125 C 0.20341 0.82878 0.28792 0.0
C1126 C 0.21011 0.82072 0.26734 0.0
C1127 C 0.24947 0.81069 0.2611 0.0
C1128 C 0.2817 0.80879 0.27459 0.0
C1129 C 0.32057 0.79543 0.26398 0.0
C1130 C 0.3532 0.82915 0.26502 0.0
C1131 C 0.33653 0.75501 0.27284 0.0
C1132 C 0.30502 0.7897 0.24252 0.0
C1133 C 0.26396 0.79894 0.24121 0.0
C1134 C 0.24241 0.79502 0.22312 0.0
C1135 C 0.26328 0.78097 0.20593 0.0
C1136 C 0.30517 0.77077 0.20696 0.0
C1137 C 0.32636 0.77564 0.22546 0.0
H1138 H 0.21612 0.23084 0.7982 0.0
H1139 H 0.11572 0.31414 0.80989 0.0
H1140 H 0.12698 0.34636 0.77672 0.0
H1141 H 0.2804 0.31293 0.77627 0.0
H1142 H 0.30497 0.2782 0.75892 0.0
H1143 H 0.28712 0.26002 0.7831 0.0
H1144 H 0.24459 0.20435 0.76479 0.0
H1145 H 0.26156 0.22291 0.74055 0.0
H1146 H 0.20776 0.21931 0.74593 0.0
H1147 H 0.14387 0.36268 0.73999 0.0
H1148 H 0.17458 0.37344 0.70635 0.0
H1149 H 0.27566 0.29473 0.72325 0.0
C1150 C 0.19703 0.25648 0.7942 0.0
C1151 C 0.16388 0.26866 0.80659 0.0
C1152 C 0.13981 0.30243 0.80035 0.0
C1153 C 0.14631 0.32141 0.78158 0.0
C1154 C 0.17843 0.30779 0.76955 0.0
C1155 C 0.20447 0.2773 0.776 0.0
C1156 C 0.23868 0.27064 0.76088 0.0
C1157 C 0.28026 0.28109 0.77036 0.0
C1158 C 0.23809 0.22669 0.75255 0.0
C1159 C 0.22699 0.30127 0.74466 0.0
C1160 C 0.19157 0.32163 0.74972 0.0
C1161 C 0.17249 0.34808 0.73618 0.0
C1162 C 0.19044 0.35431 0.71711 0.0
C1163 C 0.22804 0.33554 0.71195 0.0
C1164 C 0.24658 0.30906 0.72621 0.0
H1165 H 0.77306 0.22285 0.30562 0.0
H1166 H 0.6672 0.15195 0.32399 0.0
H1167 H 0.6354 0.16512 0.29089 0.0
H1168 H 0.7079 0.30317 0.2831 0.0
H1169 H 0.74505 0.3154 0.2639 0.0
H1170 H 0.76154 0.29664 0.2882 0.0
H1171 H 0.80121 0.23858 0.2702 0.0
H1172 H 0.78402 0.25656 0.24588 0.0
H1173 H 0.77439 0.20446 0.25335 0.0
H1174 H 0.62046 0.1781 0.25382 0.0
H1175 H 0.6117 0.20681 0.2198 0.0
H1176 H 0.71442 0.28818 0.23034 0.0
C1177 C 0.74274 0.21091 0.30312 0.0
C1178 C 0.72347 0.18494 0.31742 0.0
C1179 C 0.68382 0.16997 0.31301 0.0
C1180 C 0.66521 0.17764 0.29429 0.0
C1181 C 0.68552 0.20242 0.28044 0.0
C1182 C 0.72243 0.22051 0.28502 0.0
C1183 C 0.73538 0.24976 0.26835 0.0
C1184 C 0.73758 0.29386 0.27637 0.0
C1185 C 0.77617 0.23653 0.25889 0.0
C1186 C 0.7004 0.24436 0.2535 0.0
C1187 C 0.67283 0.21579 0.26051 0.0
C1188 C 0.64065 0.20206 0.24858 0.0
C1189 C 0.63559 0.21912 0.22929 0.0
C1190 C 0.66094 0.25144 0.22241 0.0
C1191 C 0.69416 0.26375 0.23479 0.0
H1192 H 0.46293 0.21059 0.12559 0.0
H1193 H 0.45545 0.30061 0.17393 0.0
H1194 H 0.38059 0.29975 0.17141 0.0
H1195 H 0.38204 0.24921 0.09565 0.0
H1196 H 0.36233 0.19993 0.08828 0.0
H1197 H 0.41569 0.20572 0.09418 0.0
H1198 H 0.41049 0.14871 0.12127 0.0
H1199 H 0.35733 0.14214 0.11515 0.0
H1200 H 0.37242 0.15259 0.14089 0.0
H1201 H 0.3078 0.29253 0.16273 0.0
H1202 H 0.23907 0.27255 0.15115 0.0
H1203 H 0.29219 0.1863 0.10881 0.0
C1204 C 0.44554 0.22966 0.13585 0.0
C1205 C 0.46509 0.25581 0.1499 0.0
C1206 C 0.44121 0.28035 0.16303 0.0
C1207 C 0.39866 0.28027 0.16165 0.0
C1208 C 0.38046 0.25526 0.1472 0.0
C1209 C 0.4029 0.22983 0.13476 0.0
C1210 C 0.3754 0.20567 0.12067 0.0
C1211 C 0.38442 0.21576 0.09837 0.0
C1212 C 0.37913 0.15954 0.12475 0.0
C1213 C 0.33404 0.22185 0.12705 0.0
C1214 C 0.33789 0.25063 0.14229 0.0
C1215 C 0.3043 0.26993 0.15088 0.0
C1216 C 0.26553 0.25854 0.14418 0.0
C1217 C 0.26077 0.22809 0.12914 0.0
C1218 C 0.29535 0.21004 0.12015 0.0
H1219 H 0.80731 0.27914 0.61355 0.0
H1220 H 0.75282 0.25427 0.6722 0.0
H1221 H 0.74788 0.32799 0.67883 0.0
H1222 H 0.8615 0.37224 0.62606 0.0
H1223 H 0.84832 0.39785 0.60282 0.0
H1224 H 0.8527 0.34293 0.60334 0.0
H1225 H 0.77913 0.33578 0.58938 0.0
H1226 H 0.77479 0.39062 0.58852 0.0
H1227 H 0.73775 0.36095 0.60235 0.0
H1228 H 0.74898 0.40331 0.67946 0.0
H1229 H 0.74307 0.47645 0.67172 0.0
H1230 H 0.78751 0.45378 0.61073 0.0
C1231 C 0.79407 0.28915 0.62771 0.0
C1232 C 0.78161 0.26081 0.64263 0.0
C1233 C 0.76431 0.27531 0.66093 0.0
C1234 C 0.76112 0.31717 0.6648 0.0
C1235 C 0.7743 0.34425 0.64997 0.0
C1236 C 0.78937 0.331 0.63157 0.0
C1237 C 0.79709 0.36673 0.61746 0.0
C1238 C 0.84262 0.37013 0.61211 0.0
C1239 C 0.7706 0.36332 0.5983 0.0
C1240 C 0.78359 0.40197 0.63082 0.0
C1241 C 0.77169 0.3882 0.64968 0.0
C1242 C 0.75801 0.41458 0.66473 0.0
C1243 C 0.75498 0.45615 0.66018 0.0
C1244 C 0.76465 0.47082 0.64056 0.0
C1245 C 0.77993 0.44343 0.62583 0.0
H1246 H 0.54428 0.81981 0.11484 0.0
H1247 H 0.52629 0.76019 0.17288 0.0
H1248 H 0.60059 0.75146 0.17629 0.0
H1249 H 0.62215 0.75801 0.09718 0.0
H1250 H 0.65192 0.79776 0.0854 0.0
H1251 H 0.5976 0.80378 0.08813 0.0
H1252 H 0.60797 0.87185 0.10755 0.0
H1253 H 0.66234 0.86667 0.1044 0.0
H1254 H 0.64102 0.87305 0.12937 0.0
H1255 H 0.67478 0.73962 0.17104 0.0
H1256 H 0.74699 0.73719 0.16066 0.0
H1257 H 0.7187 0.80954 0.10746 0.0
C1258 C 0.55607 0.80599 0.12853 0.0
C1259 C 0.52945 0.79067 0.14358 0.0
C1260 C 0.54602 0.77249 0.16122 0.0
C1261 C 0.5882 0.76708 0.16323 0.0
C1262 C 0.61342 0.78075 0.14767 0.0
C1263 C 0.59821 0.80092 0.13094 0.0
C1264 C 0.63211 0.81202 0.11629 0.0
C1265 C 0.62552 0.79167 0.09553 0.0
C1266 C 0.6361 0.85867 0.11429 0.0
C1267 C 0.66853 0.79383 0.12714 0.0
C1268 C 0.65688 0.77564 0.14513 0.0
C1269 C 0.68448 0.75466 0.15727 0.0
C1270 C 0.72536 0.7534 0.15123 0.0
C1271 C 0.73845 0.77358 0.13341 0.0
C1272 C 0.70953 0.79362 0.12108 0.0
H1273 H 0.19895 0.53581 0.65116 0.0
H1274 H 0.25939 0.50864 0.59431 0.0
H1275 H 0.25955 0.58204 0.58563 0.0
H1276 H 0.13267 0.61661 0.62951 0.0
H1277 H 0.13441 0.64728 0.65219 0.0
H1278 H 0.13856 0.59245 0.65386 0.0
H1279 H 0.20673 0.60046 0.67335 0.0
H1280 H 0.20309 0.65526 0.67149 0.0
H1281 H 0.24778 0.62932 0.66211 0.0
H1282 H 0.26194 0.65805 0.58545 0.0
H1283 H 0.25477 0.73232 0.59046 0.0
H1284 H 0.18173 0.71051 0.64422 0.0
C1285 C 0.21156 0.54549 0.63678 0.0
C1286 C 0.22915 0.51697 0.62334 0.0
C1287 C 0.24549 0.53028 0.60466 0.0
C1288 C 0.24593 0.57181 0.59967 0.0
C1289 C 0.22891 0.5994 0.61331 0.0
C1290 C 0.21093 0.58684 0.63121 0.0
C1291 C 0.1937 0.62299 0.64278 0.0
C1292 C 0.14706 0.61963 0.64469 0.0
C1293 C 0.21405 0.62724 0.66367 0.0
C1294 C 0.20588 0.65773 0.62886 0.0
C1295 C 0.22679 0.64339 0.61215 0.0
C1296 C 0.24441 0.66968 0.59809 0.0
C1297 C 0.23994 0.71182 0.601 0.0
C1298 C 0.21689 0.72731 0.61744 0.0
C1299 C 0.19957 0.69972 0.6315 0.0
H1300 H 0.96101 0.3007 0.89981 0.0
H1301 H 0.95511 0.20516 0.85406 0.0
H1302 H 0.88115 0.19949 0.85926 0.0
H1303 H 0.88738 0.25923 0.93344 0.0
H1304 H 0.86434 0.30751 0.93994 0.0
H1305 H 0.91724 0.30551 0.93258 0.0
H1306 H 0.90414 0.35818 0.90401 0.0
H1307 H 0.85147 0.36115 0.91165 0.0
H1308 H 0.86421 0.34861 0.88583 0.0
H1309 H 0.80962 0.20089 0.87029 0.0
H1310 H 0.74057 0.21816 0.88245 0.0
H1311 H 0.79085 0.31405 0.92033 0.0
C1312 C 0.94406 0.27904 0.89067 0.0
C1313 C 0.96393 0.25316 0.87665 0.0
C1314 C 0.94065 0.22528 0.86494 0.0
C1315 C 0.89863 0.22155 0.86788 0.0
C1316 C 0.88031 0.24623 0.8824 0.0
C1317 C 0.90189 0.27515 0.89326 0.0
C1318 C 0.87413 0.29871 0.90744 0.0
C1319 C 0.88653 0.29234 0.92967 0.0
C1320 C 0.87344 0.34436 0.90189 0.0
C1321 C 0.83367 0.27828 0.90285 0.0
C1322 C 0.83826 0.2477 0.88855 0.0
C1323 C 0.80551 0.22475 0.88147 0.0
C1324 C 0.76661 0.23451 0.88854 0.0
C1325 C 0.76098 0.26699 0.90238 0.0
C1326 C 0.79485 0.28854 0.91005 0.0
H1327 H 0.6863 0.78384 0.41291 0.0
H1328 H 0.74169 0.75948 0.3544 0.0
H1329 H 0.74494 0.83326 0.34763 0.0
H1330 H 0.63025 0.87569 0.40023 0.0
H1331 H 0.64285 0.90166 0.42349 0.0
H1332 H 0.63947 0.84667 0.42296 0.0
H1333 H 0.71309 0.84107 0.43702 0.0
H1334 H 0.71642 0.89598 0.43788 0.0
H1335 H 0.75407 0.86699 0.4241 0.0
H1336 H 0.74253 0.90891 0.347 0.0
H1337 H 0.7472 0.98223 0.35486 0.0
H1338 H 0.70279 0.95869 0.41573 0.0
C1339 C 0.69939 0.79394 0.39874 0.0
C1340 C 0.71271 0.76566 0.38394 0.0
C1341 C 0.72965 0.78037 0.36561 0.0
C1342 C 0.73187 0.8223 0.36166 0.0
C1343 C 0.71805 0.84928 0.37642 0.0
C1344 C 0.70314 0.83585 0.39481 0.0
C1345 C 0.6947 0.8715 0.40891 0.0
C1346 C 0.6491 0.87401 0.4142 0.0
C1347 C 0.72116 0.86872 0.4281 0.0
C1348 C 0.70762 0.90695 0.39558 0.0
C1349 C 0.71985 0.89335 0.37672 0.0
C1350 C 0.73318 0.92002 0.36173 0.0
C1351 C 0.73549 0.96169 0.36633 0.0
C1352 C 0.72547 0.97619 0.38595 0.0
C1353 C 0.71058 0.94848 0.40061 0.0
H1354 H 0.05 0.69829 0.91161 0.0
H1355 H 0.03191 0.73557 0.84914 0.0
H1356 H 0.10612 0.73475 0.84372 0.0
H1357 H 0.13523 0.75669 0.92164 0.0
H1358 H 0.16231 0.71931 0.93648 0.0
H1359 H 0.10745 0.71795 0.93532 0.0
H1360 H 0.10927 0.64302 0.92262 0.0
H1361 H 0.16417 0.64374 0.92422 0.0
H1362 H 0.13958 0.63017 0.90074 0.0
H1363 H 0.18085 0.74219 0.84669 0.0
H1364 H 0.25359 0.74391 0.85574 0.0
H1365 H 0.22513 0.69398 0.91496 0.0
C1366 C 0.06164 0.70515 0.89665 0.0
C1367 C 0.03519 0.71715 0.88083 0.0
C1368 C 0.05152 0.72612 0.86148 0.0
C1369 C 0.09367 0.72596 0.85826 0.0
C1370 C 0.11897 0.71584 0.8744 0.0
C1371 C 0.10372 0.70437 0.89304 0.0
C1372 C 0.13793 0.69565 0.90789 0.0
C1373 C 0.13556 0.72411 0.92642 0.0
C1374 C 0.13773 0.65045 0.91424 0.0
C1375 C 0.17465 0.70555 0.89485 0.0
C1376 C 0.16283 0.71746 0.87566 0.0
C1377 C 0.19068 0.73152 0.86141 0.0
C1378 C 0.23194 0.73224 0.86668 0.0
C1379 C 0.24515 0.71807 0.88584 0.0
C1380 C 0.21601 0.70492 0.90019 0.0
H1381 H 0.30597 0.20938 0.40842 0.0
H1382 H 0.24473 0.2455 0.35298 0.0
H1383 H 0.23524 0.17326 0.34382 0.0
H1384 H 0.35565 0.11842 0.38959 0.0
H1385 H 0.34605 0.08869 0.41205 0.0
H1386 H 0.3513 0.14342 0.41383 0.0
H1387 H 0.2805 0.14856 0.43115 0.0
H1388 H 0.27537 0.09382 0.4297 0.0
H1389 H 0.23662 0.12624 0.41892 0.0
H1390 H 0.23276 0.0983 0.34028 0.0
H1391 H 0.22713 0.02399 0.34495 0.0
H1392 H 0.2841 0.03506 0.40414 0.0
C1393 C 0.29034 0.20201 0.39444 0.0
C1394 C 0.27707 0.233 0.38112 0.0
C1395 C 0.25653 0.22221 0.36302 0.0
C1396 C 0.2508 0.18128 0.35772 0.0
C1397 C 0.26505 0.15144 0.3709 0.0
C1398 C 0.28356 0.1611 0.38909 0.0
C1399 C 0.29305 0.12283 0.40113 0.0
C1400 C 0.33927 0.11808 0.40433 0.0
C1401 C 0.27 0.12287 0.42142 0.0
C1402 C 0.27667 0.09036 0.38687 0.0
C1403 C 0.26146 0.10766 0.36937 0.0
C1404 C 0.24441 0.08427 0.35393 0.0
C1405 C 0.24151 0.04203 0.35672 0.0
C1406 C 0.25496 0.02369 0.37497 0.0
C1407 C 0.2736 0.04816 0.39003 0.0
H1408 H 0.5272 0.76057 0.91509 0.0
H1409 H 0.45936 0.83753 0.87387 0.0
H1410 H 0.52102 0.88031 0.86846 0.0
H1411 H 0.59933 0.83864 0.93584 0.0
H1412 H 0.64133 0.8031 0.93527 0.0
H1413 H 0.59011 0.78479 0.93945 0.0
H1414 H 0.59748 0.73509 0.90903 0.0
H1415 H 0.64858 0.75305 0.90488 0.0
H1416 H 0.6118 0.75511 0.88462 0.0
H1417 H 0.59201 0.91008 0.86511 0.0
H1418 H 0.66637 0.91997 0.86121 0.0
H1419 H 0.6874 0.8165 0.90092 0.0
C1420 C 0.5251 0.78746 0.90559 0.0
C1421 C 0.48861 0.79689 0.89539 0.0
C1422 C 0.48707 0.83075 0.88216 0.0
C1423 C 0.52184 0.85513 0.87906 0.0
C1424 C 0.55788 0.84454 0.88903 0.0
C1425 C 0.55976 0.81116 0.90187 0.0
C1426 C 0.60319 0.80195 0.90808 0.0
C1427 C 0.6088 0.80746 0.93102 0.0
C1428 C 0.616 0.75877 0.90123 0.0
C1429 C 0.62564 0.83475 0.89642 0.0
C1430 C 0.59902 0.85977 0.886 0.0
C1431 C 0.61307 0.89097 0.87343 0.0
C1432 C 0.65539 0.89627 0.87128 0.0
C1433 C 0.68324 0.87002 0.8813 0.0
C1434 C 0.66775 0.83892 0.89401 0.0
H1435 H 0.21037 0.48582 0.36332 0.0
H1436 H 0.20552 0.4767 0.42888 0.0
H1437 H 0.16396 0.5394 0.43023 0.0
H1438 H 0.22497 0.58897 0.36088 0.0
H1439 H 0.19393 0.59788 0.3388 0.0
H1440 H 0.21719 0.54875 0.34258 0.0
H1441 H 0.14639 0.51374 0.34014 0.0
H1442 H 0.12283 0.56289 0.3362 0.0
H1443 H 0.1056 0.53038 0.3565 0.0
H1444 H 0.13425 0.60868 0.42504 0.0
H1445 H 0.11452 0.67773 0.41328 0.0
H1446 H 0.13546 0.64089 0.35117 0.0
C1447 C 0.19967 0.49636 0.37794 0.0
C1448 C 0.21126 0.4763 0.39599 0.0
C1449 C 0.19693 0.49137 0.41482 0.0
C1450 C 0.17323 0.52697 0.41575 0.0
C1451 C 0.16355 0.54677 0.39771 0.0
C1452 C 0.17578 0.53169 0.37913 0.0
C1453 C 0.16431 0.56055 0.36214 0.0
C1454 C 0.20236 0.57488 0.35043 0.0
C1455 C 0.13291 0.5407 0.34791 0.0
C1456 C 0.14545 0.59513 0.37416 0.0
C1457 C 0.14498 0.5864 0.39466 0.0
C1458 C 0.1333 0.61542 0.40901 0.0
C1459 C 0.12228 0.65446 0.40225 0.0
C1460 C 0.12273 0.66387 0.38138 0.0
C1461 C 0.13366 0.63371 0.36715 0.0
H1462 H 0.47917 0.25169 0.92323 0.0
H1463 H 0.55418 0.17541 0.88474 0.0
H1464 H 0.49462 0.13094 0.87762 0.0
H1465 H 0.40552 0.17152 0.9417 0.0
H1466 H 0.36306 0.20624 0.93954 0.0
H1467 H 0.41312 0.22552 0.94569 0.0
H1468 H 0.40946 0.27513 0.91514 0.0
H1469 H 0.35958 0.25613 0.90898 0.0
H1470 H 0.39951 0.25486 0.89022 0.0
H1471 H 0.42568 0.10053 0.87134 0.0
H1472 H 0.35257 0.09008 0.86389 0.0
H1473 H 0.32264 0.19218 0.90316 0.0
C1474 C 0.4832 0.22455 0.91403 0.0
C1475 C 0.52108 0.2159 0.90498 0.0
C1476 C 0.52531 0.18166 0.8921 0.0
C1477 C 0.49176 0.15629 0.88807 0.0
C1478 C 0.45426 0.1662 0.89678 0.0
C1479 C 0.44976 0.19977 0.90938 0.0
C1480 C 0.40531 0.20816 0.9139 0.0
C1481 C 0.39623 0.20251 0.93656 0.0
C1482 C 0.39275 0.25108 0.90661 0.0
C1483 C 0.38542 0.17492 0.9014 0.0
C1484 C 0.41412 0.15027 0.89214 0.0
C1485 C 0.40292 0.11919 0.8788 0.0
C1486 C 0.36134 0.11361 0.8746 0.0
C1487 C 0.33153 0.13941 0.88343 0.0
C1488 C 0.344 0.17029 0.89705 0.0
H1489 H 0.8559 0.35033 0.35448 0.0
H1490 H 0.88808 0.32287 0.41656 0.0
H1491 H 0.87208 0.39409 0.42645 0.0
H1492 H 0.88876 0.46122 0.35431 0.0
H1493 H 0.84542 0.47569 0.33913 0.0
H1494 H 0.86787 0.42573 0.33615 0.0
H1495 H 0.79745 0.39235 0.34293 0.0
H1496 H 0.77489 0.442 0.34602 0.0
H1497 H 0.77043 0.40462 0.36593 0.0
H1498 H 0.84351 0.46422 0.43042 0.0
H1499 H 0.80165 0.52666 0.42868 0.0
H1500 H 0.78566 0.50803 0.36404 0.0
C1501 C 0.8611 0.35998 0.36996 0.0
C1502 C 0.87385 0.33173 0.38475 0.0
C1503 C 0.87878 0.34452 0.40505 0.0
C1504 C 0.86992 0.38484 0.41075 0.0
C1505 C 0.8561 0.41183 0.39593 0.0
C1506 C 0.85177 0.39997 0.37592 0.0
C1507 C 0.83101 0.43293 0.36356 0.0
C1508 C 0.86001 0.4499 0.34733 0.0
C1509 C 0.79109 0.41701 0.35407 0.0
C1510 C 0.82279 0.4644 0.37989 0.0
C1511 C 0.83835 0.45208 0.39835 0.0
C1512 C 0.83179 0.47455 0.41599 0.0
C1513 C 0.80787 0.50999 0.41484 0.0
C1514 C 0.79033 0.52237 0.39622 0.0
C1515 C 0.79894 0.49973 0.37847 0.0
H1516 H 0.00187 0.70951 0.14905 0.0
H1517 H 0.98669 0.70342 0.08378 0.0
H1518 H 0.05289 0.66823 0.08084 0.0
H1519 H 0.10368 0.73363 0.14909 0.0
H1520 H 0.11744 0.70342 0.17084 0.0
H1521 H 0.06622 0.72234 0.16828 0.0
H1522 H 0.03787 0.64863 0.17135 0.0
H1523 H 0.08913 0.62943 0.17408 0.0
H1524 H 0.05638 0.60938 0.15451 0.0
H1525 H 0.12512 0.6447 0.08433 0.0
H1526 H 0.19634 0.62973 0.09453 0.0
H1527 H 0.16383 0.64784 0.15742 0.0
C1528 C 0.01191 0.69983 0.13417 0.0
C1529 C 0.98899 0.70931 0.11665 0.0
C1530 C 0.00352 0.69643 0.09746 0.0
C1531 C 0.04114 0.67637 0.09561 0.0
C1532 C 0.06361 0.6688 0.11312 0.0
C1533 C 0.04927 0.67954 0.13207 0.0
C1534 C 0.08065 0.67062 0.14833 0.0
C1535 C 0.0927 0.70984 0.1598 0.0
C1536 C 0.06507 0.63754 0.16293 0.0
C1537 C 0.1155 0.65482 0.13547 0.0
C1538 C 0.10495 0.65375 0.11519 0.0
C1539 C 0.13338 0.64423 0.10019 0.0
C1540 C 0.17364 0.63585 0.10606 0.0
C1541 C 0.1848 0.63667 0.12671 0.0
C1542 C 0.15537 0.64573 0.1416 0.0
H1543 H 0.33154 0.16598 0.61569 0.0
H1544 H 0.39691 0.14699 0.6721 0.0
H1545 H 0.38759 0.07269 0.66838 0.0
H1546 H 0.25461 0.09662 0.62623 0.0
H1547 H 0.2483 0.07921 0.60051 0.0
H1548 H 0.2673 0.12983 0.60539 0.0
H1549 H 0.33129 0.11407 0.58367 0.0
H1550 H 0.31258 0.06309 0.57891 0.0
H1551 H 0.36253 0.07044 0.58975 0.0
H1552 H 0.36325 0.00215 0.66143 0.0
H1553 H 0.32238 0.94123 0.6528 0.0
H1554 H 0.26876 0.00601 0.6022 0.0
C1555 C 0.34362 0.14657 0.62743 0.0
C1556 C 0.36403 0.16281 0.64452 0.0
C1557 C 0.38101 0.13553 0.65889 0.0
C1558 C 0.376 0.09316 0.65688 0.0
C1559 C 0.35418 0.07838 0.64032 0.0
C1560 C 0.33823 0.10423 0.62583 0.0
C1561 C 0.31191 0.08104 0.61083 0.0
C1562 C 0.26794 0.09765 0.61075 0.0
C1563 C 0.33072 0.08223 0.58953 0.0
C1564 C 0.314 0.0384 0.61972 0.0
C1565 C 0.33943 0.0374 0.63643 0.0
C1566 C 0.34368 0.00241 0.64823 0.0
C1567 C 0.32013 0.96806 0.64333 0.0
C1568 C 0.2924 0.96907 0.62693 0.0
C1569 C 0.29045 0.00417 0.61454 0.0
H1570 H 0.85702 0.34632 0.17188 0.0
H1571 H 0.81951 0.38105 0.11143 0.0
H1572 H 0.88848 0.36463 0.09849 0.0
H1573 H 0.96683 0.37909 0.16786 0.0
H1574 H 0.98395 0.33527 0.18203 0.0
H1575 H 0.93462 0.35734 0.18719 0.0
H1576 H 0.90055 0.28683 0.18109 0.0
H1577 H 0.9496 0.26466 0.17592 0.0
H1578 H 0.90925 0.26054 0.15747 0.0
H1579 H 0.95773 0.33639 0.09151 0.0
H1580 H 0.02049 0.29501 0.09047 0.0
H1581 H 0.01231 0.27658 0.15546 0.0
C1582 C 0.86394 0.35168 0.15606 0.0
C1583 C 0.8335 0.36519 0.1426 0.0
C1584 C 0.8428 0.3708 0.12189 0.0
C1585 C 0.88185 0.36181 0.11448 0.0
C1586 C 0.91107 0.34733 0.12803 0.0
C1587 C 0.9026 0.34231 0.1484 0.0
C1588 C 0.93746 0.32135 0.15926 0.0
C1589 C 0.95687 0.34998 0.17502 0.0
C1590 C 0.92336 0.28096 0.16899 0.0
C1591 C 0.9661 0.31385 0.14167 0.0
C1592 C 0.95077 0.32992 0.12389 0.0
C1593 C 0.97037 0.32421 0.10538 0.0
C1594 C 0.00601 0.30057 0.10495 0.0
C1595 C 0.02135 0.28243 0.12288 0.0
C1596 C 0.00161 0.29024 0.14151 0.0
H1597 H 0.71605 0.00153 0.66398 0.0
H1598 H 0.6985 0.02008 0.59946 0.0
H1599 H 0.65503 0.95864 0.59808 0.0
H1600 H 0.72842 0.89795 0.66189 0.0
H1601 H 0.70202 0.88637 0.68514 0.0
H1602 H 0.72566 0.9355 0.68186 0.0
H1603 H 0.65668 0.97119 0.68932 0.0
H1604 H 0.63277 0.92199 0.69268 0.0
H1605 H 0.61224 0.95781 0.67464 0.0
H1606 H 0.62376 0.88983 0.6024 0.0
H1607 H 0.60551 0.81932 0.61249 0.0
H1608 H 0.64108 0.84598 0.67424 0.0
C1609 C 0.70219 0.99337 0.64965 0.0
C1610 C 0.7107 0.01574 0.63184 0.0
C1611 C 0.69239 0.00358 0.61334 0.0
C1612 C 0.66749 0.96876 0.61241 0.0
C1613 C 0.66075 0.9467 0.63013 0.0
C1614 C 0.67722 0.95874 0.64846 0.0
C1615 C 0.66862 0.92757 0.66487 0.0
C1616 C 0.70855 0.91087 0.67396 0.0
C1617 C 0.64092 0.94573 0.68135 0.0
C1618 C 0.64641 0.89523 0.65269 0.0
C1619 C 0.64171 0.90712 0.63273 0.0
C1620 C 0.6262 0.88061 0.61808 0.0
C1621 C 0.61599 0.84071 0.6239 0.0
C1622 C 0.62121 0.8279 0.64416 0.0
C1623 C 0.63561 0.85572 0.65881 0.0
loop_
_geom_bond_atom_site_label_1
_geom_bond_atom_site_label_2
_geom_bond_distance
_geom_bond_site_symmetry_2
_ccdc_geom_bond_type
Co0 O3 1.970 . S
Co0 N17 1.989 . S
Co0 O25 1.967 . S
Co0 O32 1.920 . S
Co1 O4 1.966 . S
Co1 N10 2.022 . S
Co1 N18 1.993 . S
Co1 O26 1.941 . S
C2 O3 1.258 . S
C2 O4 1.263 . S
O3 Co0 1.970 . S
O3 C2 1.258 . S
O4 Co1 1.966 . S
O4 C2 1.263 . S
C5 O6 1.235 . S
C5 O32 1.289 . S
O6 C5 1.235 . S
C7 C9 1.400 . S
C7 N10 1.351 . S
C7 C12 1.501 . S
C8 C9 1.387 . S
C8 N11 1.341 . S
C9 C7 1.400 . S
C9 C8 1.387 . S
N10 Co1 2.022 . S
N10 C7 1.351 . S
N10 N11 1.365 . S
N11 C8 1.341 . S
N11 N10 1.365 . S
N11 H31 0.862 . S
C12 C7 1.501 . S
C12 H13 0.961 . S
C12 H14 0.961 . S
C12 H15 0.960 . S
H13 C12 0.961 . S
H14 C12 0.961 . S
H15 C12 0.960 . S
C16 N17 1.342 . S
C16 C20 1.401 . S
C16 C21 1.499 . S
N17 Co0 1.989 . S
N17 C16 1.342 . S
N17 N18 1.388 . S
N18 Co1 1.993 . S
N18 N17 1.388 . S
N18 C19 1.346 . S
C19 N18 1.346 . S
C19 C20 1.396 . S
C19 C29 1.510 . S
C20 C16 1.401 . S
C20 C19 1.396 . S
C21 C16 1.499 . S
C21 H22 0.959 . S
C21 H23 0.960 . S
C21 H24 0.961 . S
H22 C21 0.959 . S
H23 C21 0.960 . S
H24 C21 0.961 . S
O25 Co0 1.967 . S
O25 C33 1.258 . S
O26 Co1 1.941 . S
O26 C33 1.266 . S
H27 C29 0.959 . S
H28 C29 0.961 . S
C29 C19 1.510 . S
C29 H27 0.959 . S
C29 H28 0.961 . S
C29 H30 0.960 . S
H30 C29 0.960 . S
H31 N11 0.862 . S
O32 Co0 1.920 . S
O32 C5 1.289 . S
C33 O25 1.258 . S
C33 O26 1.266 . S
Co34 O37 1.970 . S
Co34 N51 1.989 . S
Co34 O59 1.967 . S
Co34 O66 1.920 . S
Co35 O38 1.966 . S
Co35 N44 2.022 . S
Co35 N52 1.993 . S
Co35 O60 1.941 . S
C36 O37 1.258 . S
C36 O38 1.263 . S
O37 Co34 1.970 . S
O37 C36 1.258 . S
O38 Co35 1.966 . S
O38 C36 1.263 . S
C39 O40 1.235 . S
C39 O66 1.289 . S
O40 C39 1.235 . S
C41 C43 1.400 . S
C41 N44 1.351 . S
C41 C46 1.501 . S
C42 C43 1.387 . S
C42 N45 1.341 . S
C43 C41 1.400 . S
C43 C42 1.387 . S
N44 Co35 2.022 . S
N44 C41 1.351 . S
N44 N45 1.365 . S
N45 C42 1.341 . S
N45 N44 1.365 . S
N45 H65 0.862 . S
C46 C41 1.501 . S
C46 H47 0.961 . S
C46 H48 0.961 . S
C46 H49 0.960 . S
H47 C46 0.961 . S
H48 C46 0.961 . S
H49 C46 0.960 . S
C50 N51 1.342 . S
C50 C54 1.401 . S
C50 C55 1.499 . S
N51 Co34 1.989 . S
N51 C50 1.342 . S
N51 N52 1.388 . S
N52 Co35 1.993 . S
N52 N51 1.388 . S
N52 C53 1.346 . S
C53 N52 1.346 . S
C53 C54 1.396 . S
C53 C63 1.510 . S
C54 C50 1.401 . S
C54 C53 1.396 . S
C55 C50 1.499 . S
C55 H56 0.959 . S
C55 H57 0.960 . S
C55 H58 0.961 . S
H56 C55 0.959 . S
H57 C55 0.960 . S
H58 C55 0.961 . S
O59 Co34 1.967 . S
O59 C67 1.258 . S
O60 Co35 1.941 . S
O60 C67 1.266 . S
H61 C63 0.959 . S
H62 C63 0.961 . S
C63 C53 1.510 . S
C63 H61 0.959 . S
C63 H62 0.961 . S
C63 H64 0.960 . S
H64 C63 0.960 . S
H65 N45 0.862 . S
O66 Co34 1.920 . S
O66 C39 1.289 . S
C67 O59 1.258 . S
C67 O60 1.266 . S
Co68 O71 1.970 . S
Co68 N85 1.989 . S
Co68 O93 1.967 . S
Co68 O100 1.920 . S
Co69 O72 1.966 . S
Co69 N78 2.022 . S
Co69 N86 1.993 . S
Co69 O94 1.941 . S
C70 O71 1.258 . S
C70 O72 1.263 . S
O71 Co68 1.970 . S
O71 C70 1.258 . S
O72 Co69 1.966 . S
O72 C70 1.263 . S
C73 O74 1.235 . S
C73 O100 1.289 . S
O74 C73 1.235 . S
C75 C77 1.400 . S
C75 N78 1.351 . S
C75 C80 1.501 . S
C76 C77 1.387 . S
C76 N79 1.341 . S
C77 C75 1.400 . S
C77 C76 1.387 . S
N78 Co69 2.022 . S
N78 C75 1.351 . S
N78 N79 1.365 . S
N79 C76 1.341 . S
N79 N78 1.365 . S
N79 H99 0.862 . S
C80 C75 1.501 . S
C80 H81 0.961 . S
C80 H82 0.961 . S
C80 H83 0.960 . S
H81 C80 0.961 . S
H82 C80 0.961 . S
H83 C80 0.960 . S
C84 N85 1.342 . S
C84 C88 1.401 . S
C84 C89 1.499 . S
N85 Co68 1.989 . S
N85 C84 1.342 . S
N85 N86 1.388 . S
N86 Co69 1.993 . S
N86 N85 1.388 . S
N86 C87 1.346 . S
C87 N86 1.346 . S
C87 C88 1.396 . S
C87 C97 1.510 . S
C88 C84 1.401 . S
C88 C87 1.396 . S
C89 C84 1.499 . S
C89 H90 0.959 . S
C89 H91 0.960 . S
C89 H92 0.961 . S
H90 C89 0.959 . S
H91 C89 0.960 . S
H92 C89 0.961 . S
O93 Co68 1.967 . S
O93 C101 1.258 . S
O94 Co69 1.941 . S
O94 C101 1.266 . S
H95 C97 0.959 . S
H96 C97 0.961 . S
C97 C87 1.510 . S
C97 H95 0.959 . S
C97 H96 0.961 . S
C97 H98 0.960 . S
H98 C97 0.960 . S
H99 N79 0.862 . S
O100 Co68 1.920 . S
O100 C73 1.289 . S
C101 O93 1.258 . S
C101 O94 1.266 . S
Co102 O105 1.970 . S
Co102 N119 1.989 . S
Co102 O127 1.967 . S
Co102 O134 1.920 . S
Co103 O106 1.966 . S
Co103 N112 2.022 . S
Co103 N120 1.993 . S
Co103 O128 1.941 . S
C104 O105 1.258 . S
C104 O106 1.263 . S
O105 Co102 1.970 . S
O105 C104 1.258 . S
O106 Co103 1.966 . S
O106 C104 1.263 . S
C107 O108 1.235 . S
C107 O134 1.289 . S
O108 C107 1.235 . S
C109 C111 1.400 . S
C109 N112 1.351 . S
C109 C114 1.501 . S
C110 C111 1.387 . S
C110 N113 1.341 . S
C111 C109 1.400 . S
C111 C110 1.387 . S
N112 Co103 2.022 . S
N112 C109 1.351 . S
N112 N113 1.365 . S
N113 C110 1.341 . S
N113 N112 1.365 . S
N113 H133 0.862 . S
C114 C109 1.501 . S
C114 H115 0.961 . S
C114 H116 0.961 . S
C114 H117 0.960 . S
H115 C114 0.961 . S
H116 C114 0.961 . S
H117 C114 0.960 . S
C118 N119 1.342 . S
C118 C122 1.401 . S
C118 C123 1.499 . S
N119 Co102 1.989 . S
N119 C118 1.342 . S
N119 N120 1.388 . S
N120 Co103 1.993 . S
N120 N119 1.388 . S
N120 C121 1.346 . S
C121 N120 1.346 . S
C121 C122 1.396 . S
C121 C131 1.510 . S
C122 C118 1.401 . S
C122 C121 1.396 . S
C123 C118 1.499 . S
C123 H124 0.959 . S
C123 H125 0.960 . S
C123 H126 0.961 . S
H124 C123 0.959 . S
H125 C123 0.960 . S
H126 C123 0.961 . S
O127 Co102 1.967 . S
O127 C135 1.258 . S
O128 Co103 1.941 . S
O128 C135 1.266 . S
H129 C131 0.959 . S
H130 C131 0.961 . S
C131 C121 1.510 . S
C131 H129 0.959 . S
C131 H130 0.961 . S
C131 H132 0.960 . S
H132 C131 0.960 . S
H133 N113 0.862 . S
O134 Co102 1.920 . S
O134 C107 1.289 . S
C135 O127 1.258 . S
C135 O128 1.266 . S
Co136 O139 1.970 . S
Co136 N153 1.989 . S
Co136 O161 1.967 . S
Co136 O168 1.920 . S
Co137 O140 1.966 . S
Co137 N146 2.022 . S
Co137 N154 1.993 . S
Co137 O162 1.941 . S
C138 O139 1.258 . S
C138 O140 1.263 . S
O139 Co136 1.970 . S
O139 C138 1.258 . S
O140 Co137 1.966 . S
O140 C138 1.263 . S
C141 O142 1.235 . S
C141 O168 1.289 . S
O142 C141 1.235 . S
C143 C145 1.400 . S
C143 N146 1.351 . S
C143 C148 1.501 . S
C144 C145 1.387 . S
C144 N147 1.341 . S
C145 C143 1.400 . S
C145 C144 1.387 . S
N146 Co137 2.022 . S
N146 C143 1.351 . S
N146 N147 1.365 . S
N147 C144 1.341 . S
N147 N146 1.365 . S
N147 H167 0.862 . S
C148 C143 1.501 . S
C148 H149 0.961 . S
C148 H150 0.961 . S
C148 H151 0.960 . S
H149 C148 0.961 . S
H150 C148 0.961 . S
H151 C148 0.960 . S
C152 N153 1.342 . S
C152 C156 1.401 . S
C152 C157 1.499 . S
N153 Co136 1.989 . S
N153 C152 1.342 . S
N153 N154 1.388 . S
N154 Co137 1.993 . S
N154 N153 1.388 . S
N154 C155 1.346 . S
C155 N154 1.346 . S
C155 C156 1.396 . S
C155 C165 1.510 . S
C156 C152 1.401 . S
C156 C155 1.396 . S
C157 C152 1.499 . S
C157 H158 0.959 . S
C157 H159 0.960 . S
C157 H160 0.961 . S
H158 C157 0.959 . S
H159 C157 0.960 . S
H160 C157 0.961 . S
O161 Co136 1.967 . S
O161 C169 1.258 . S
O162 Co137 1.941 . S
O162 C169 1.266 . S
H163 C165 0.959 . S
H164 C165 0.961 . S
C165 C155 1.510 . S
C165 H163 0.959 . S
C165 H164 0.961 . S
C165 H166 0.960 . S
H166 C165 0.960 . S
H167 N147 0.862 . S
O168 Co136 1.920 . S
O168 C141 1.289 . S
C169 O161 1.258 . S
C169 O162 1.266 . S
Co170 O173 1.970 . S
Co170 N187 1.989 . S
Co170 O195 1.967 . S
Co170 O202 1.920 . S
Co171 O174 1.966 . S
Co171 N180 2.022 . S
Co171 N188 1.993 . S
Co171 O196 1.941 . S
C172 O173 1.258 . S
C172 O174 1.263 . S
O173 Co170 1.970 . S
O173 C172 1.258 . S
O174 Co171 1.966 . S
O174 C172 1.263 . S
C175 O176 1.235 . S
C175 O202 1.289 . S
O176 C175 1.235 . S
C177 C179 1.400 . S
C177 N180 1.351 . S
C177 C182 1.501 . S
C178 C179 1.387 . S
C178 N181 1.341 . S
C179 C177 1.400 . S
C179 C178 1.387 . S
N180 Co171 2.022 . S
N180 C177 1.351 . S
N180 N181 1.365 . S
N181 C178 1.341 . S
N181 N180 1.365 . S
N181 H201 0.862 . S
C182 C177 1.501 . S
C182 H183 0.961 . S
C182 H184 0.961 . S
C182 H185 0.960 . S
H183 C182 0.961 . S
H184 C182 0.961 . S
H185 C182 0.960 . S
C186 N187 1.342 . S
C186 C190 1.401 . S
C186 C191 1.499 . S
N187 Co170 1.989 . S
N187 C186 1.342 . S
N187 N188 1.388 . S
N188 Co171 1.993 . S
N188 N187 1.388 . S
N188 C189 1.346 . S
C189 N188 1.346 . S
C189 C190 1.396 . S
C189 C199 1.510 . S
C190 C186 1.401 . S
C190 C189 1.396 . S
C191 C186 1.499 . S
C191 H192 0.959 . S
C191 H193 0.960 . S
C191 H194 0.961 . S
H192 C191 0.959 . S
H193 C191 0.960 . S
H194 C191 0.961 . S
O195 Co170 1.967 . S
O195 C203 1.258 . S
O196 Co171 1.941 . S
O196 C203 1.266 . S
H197 C199 0.959 . S
H198 C199 0.961 . S
C199 C189 1.510 . S
C199 H197 0.959 . S
C199 H198 0.961 . S
C199 H200 0.960 . S
H200 C199 0.960 . S
H201 N181 0.862 . S
O202 Co170 1.920 . S
O202 C175 1.289 . S
C203 O195 1.258 . S
C203 O196 1.266 . S
Co204 O207 1.970 . S
Co204 N221 1.989 . S
Co204 O229 1.967 . S
Co204 O236 1.920 . S
Co205 O208 1.966 . S
Co205 N214 2.022 . S
Co205 N222 1.993 . S
Co205 O230 1.941 . S
C206 O207 1.258 . S
C206 O208 1.263 . S
O207 Co204 1.970 . S
O207 C206 1.258 . S
O208 Co205 1.966 . S
O208 C206 1.263 . S
C209 O210 1.235 . S
C209 O236 1.289 . S
O210 C209 1.235 . S
C211 C213 1.400 . S
C211 N214 1.351 . S
C211 C216 1.501 . S
C212 C213 1.387 . S
C212 N215 1.341 . S
C213 C211 1.400 . S
C213 C212 1.387 . S
N214 Co205 2.022 . S
N214 C211 1.351 . S
N214 N215 1.365 . S
N215 C212 1.341 . S
N215 N214 1.365 . S
N215 H235 0.862 . S
C216 C211 1.501 . S
C216 H217 0.961 . S
C216 H218 0.961 . S
C216 H219 0.960 . S
H217 C216 0.961 . S
H218 C216 0.961 . S
H219 C216 0.960 . S
C220 N221 1.342 . S
C220 C224 1.401 . S
C220 C225 1.499 . S
N221 Co204 1.989 . S
N221 C220 1.342 . S
N221 N222 1.388 . S
N222 Co205 1.993 . S
N222 N221 1.388 . S
N222 C223 1.346 . S
C223 N222 1.346 . S
C223 C224 1.396 . S
C223 C233 1.510 . S
C224 C220 1.401 . S
C224 C223 1.396 . S
C225 C220 1.499 . S
C225 H226 0.959 . S
C225 H227 0.960 . S
C225 H228 0.961 . S
H226 C225 0.959 . S
H227 C225 0.960 . S
H228 C225 0.961 . S
O229 Co204 1.967 . S
O229 C237 1.258 . S
O230 Co205 1.941 . S
O230 C237 1.266 . S
H231 C233 0.959 . S
H232 C233 0.961 . S
C233 C223 1.510 . S
C233 H231 0.959 . S
C233 H232 0.961 . S
C233 H234 0.960 . S
H234 C233 0.960 . S
H235 N215 0.862 . S
O236 Co204 1.920 . S
O236 C209 1.289 . S
C237 O229 1.258 . S
C237 O230 1.266 . S
Co238 O241 1.970 . S
Co238 N255 1.989 . S
Co238 O263 1.967 . S
Co238 O270 1.920 . S
Co239 O242 1.966 . S
Co239 N248 2.022 . S
Co239 N256 1.993 . S
Co239 O264 1.941 . S
C240 O241 1.258 . S
C240 O242 1.263 . S
O241 Co238 1.970 . S
O241 C240 1.258 . S
O242 Co239 1.966 . S
O242 C240 1.263 . S
C243 O244 1.235 . S
C243 O270 1.289 . S
O244 C243 1.235 . S
C245 C247 1.400 . S
C245 N248 1.351 . S
C245 C250 1.501 . S
C246 C247 1.387 . S
C246 N249 1.341 . S
C247 C245 1.400 . S
C247 C246 1.387 . S
N248 Co239 2.022 . S
N248 C245 1.351 . S
N248 N249 1.365 . S
N249 C246 1.341 . S
N249 N248 1.365 . S
N249 H269 0.862 . S
C250 C245 1.501 . S
C250 H251 0.961 . S
C250 H252 0.961 . S
C250 H253 0.960 . S
H251 C250 0.961 . S
H252 C250 0.961 . S
H253 C250 0.960 . S
C254 N255 1.342 . S
C254 C258 1.401 . S
C254 C259 1.499 . S
N255 Co238 1.989 . S
N255 C254 1.342 . S
N255 N256 1.388 . S
N256 Co239 1.993 . S
N256 N255 1.388 . S
N256 C257 1.346 . S
C257 N256 1.346 . S
C257 C258 1.396 . S
C257 C267 1.510 . S
C258 C254 1.401 . S
C258 C257 1.396 . S
C259 C254 1.499 . S
C259 H260 0.959 . S
C259 H261 0.960 . S
C259 H262 0.961 . S
H260 C259 0.959 . S
H261 C259 0.960 . S
H262 C259 0.961 . S
O263 Co238 1.967 . S
O263 C271 1.258 . S
O264 Co239 1.941 . S
O264 C271 1.266 . S
H265 C267 0.959 . S
H266 C267 0.961 . S
C267 C257 1.510 . S
C267 H265 0.959 . S
C267 H266 0.961 . S
C267 H268 0.960 . S
H268 C267 0.960 . S
H269 N249 0.862 . S
O270 Co238 1.920 . S
O270 C243 1.289 . S
C271 O263 1.258 . S
C271 O264 1.266 . S
Co272 O275 1.970 . S
Co272 N289 1.989 . S
Co272 O297 1.967 . S
Co272 O304 1.920 1_655 S
Co273 O276 1.966 . S
Co273 N282 2.022 . S
Co273 N290 1.993 . S
Co273 O298 1.941 . S
C274 O275 1.258 . S
C274 O276 1.263 . S
O275 Co272 1.970 . S
O275 C274 1.258 . S
O276 Co273 1.966 . S
O276 C274 1.263 . S
C277 O278 1.235 . S
C277 O304 1.289 . S
O278 C277 1.235 . S
C279 C281 1.400 . S
C279 N282 1.351 . S
C279 C284 1.501 . S
C280 C281 1.387 . S
C280 N283 1.341 . S
C281 C279 1.400 . S
C281 C280 1.387 . S
N282 Co273 2.022 . S
N282 C279 1.351 . S
N282 N283 1.365 . S
N283 C280 1.341 . S
N283 N282 1.365 . S
N283 H303 0.862 . S
C284 C279 1.501 . S
C284 H285 0.961 . S
C284 H286 0.961 . S
C284 H287 0.960 . S
H285 C284 0.961 . S
H286 C284 0.961 . S
H287 C284 0.960 . S
C288 N289 1.342 . S
C288 C292 1.401 . S
C288 C293 1.499 . S
N289 Co272 1.989 . S
N289 C288 1.342 . S
N289 N290 1.388 . S
N290 Co273 1.993 . S
N290 N289 1.388 . S
N290 C291 1.346 . S
C291 N290 1.346 . S
C291 C292 1.396 . S
C291 C301 1.510 . S
C292 C288 1.401 . S
C292 C291 1.396 . S
C293 C288 1.499 . S
C293 H294 0.959 1_655 S
C293 H295 0.960 . S
C293 H296 0.961 . S
H294 C293 0.959 1_455 S
H295 C293 0.960 . S
H296 C293 0.961 . S
O297 Co272 1.967 . S
O297 C305 1.258 . S
O298 Co273 1.941 . S
O298 C305 1.266 . S
H299 C301 0.959 . S
H300 C301 0.961 . S
C301 C291 1.510 . S
C301 H299 0.959 . S
C301 H300 0.961 . S
C301 H302 0.960 . S
H302 C301 0.960 . S
H303 N283 0.862 . S
O304 Co272 1.920 1_455 S
O304 C277 1.289 . S
C305 O297 1.258 . S
C305 O298 1.266 . S
Co306 O309 1.970 . S
Co306 N323 1.989 . S
Co306 O331 1.967 . S
Co306 O338 1.920 1_565 S
Co307 O310 1.966 . S
Co307 N316 2.022 . S
Co307 N324 1.993 . S
Co307 O332 1.941 . S
C308 O309 1.258 . S
C308 O310 1.263 . S
O309 Co306 1.970 . S
O309 C308 1.258 . S
O310 Co307 1.966 . S
O310 C308 1.263 . S
C311 O312 1.235 . S
C311 O338 1.289 . S
O312 C311 1.235 . S
C313 C315 1.400 . S
C313 N316 1.351 . S
C313 C318 1.501 . S
C314 C315 1.387 . S
C314 N317 1.341 . S
C315 C313 1.400 . S
C315 C314 1.387 . S
N316 Co307 2.022 . S
N316 C313 1.351 . S
N316 N317 1.365 . S
N317 C314 1.341 . S
N317 N316 1.365 . S
N317 H337 0.862 . S
C318 C313 1.501 . S
C318 H319 0.961 . S
C318 H320 0.961 . S
C318 H321 0.960 . S
H319 C318 0.961 . S
H320 C318 0.961 . S
H321 C318 0.960 . S
C322 N323 1.342 . S
C322 C326 1.401 . S
C322 C327 1.499 . S
N323 Co306 1.989 . S
N323 C322 1.342 . S
N323 N324 1.388 . S
N324 Co307 1.993 . S
N324 N323 1.388 . S
N324 C325 1.346 . S
C325 N324 1.346 . S
C325 C326 1.396 . S
C325 C335 1.510 . S
C326 C322 1.401 . S
C326 C325 1.396 . S
C327 C322 1.499 . S
C327 H328 0.959 1_565 S
C327 H329 0.960 . S
C327 H330 0.961 . S
H328 C327 0.959 1_545 S
H329 C327 0.960 . S
H330 C327 0.961 . S
O331 Co306 1.967 . S
O331 C339 1.258 . S
O332 Co307 1.941 . S
O332 C339 1.266 . S
H333 C335 0.959 . S
H334 C335 0.961 . S
C335 C325 1.510 . S
C335 H333 0.959 . S
C335 H334 0.961 . S
C335 H336 0.960 . S
H336 C335 0.960 . S
H337 N317 0.862 . S
O338 Co306 1.920 1_545 S
O338 C311 1.289 . S
C339 O331 1.258 . S
C339 O332 1.266 . S
Co340 O343 1.970 . S
Co340 N357 1.989 . S
Co340 O365 1.967 . S
Co340 O372 1.920 1_455 S
Co341 O344 1.966 . S
Co341 N350 2.022 . S
Co341 N358 1.993 . S
Co341 O366 1.941 . S
C342 O343 1.258 . S
C342 O344 1.263 . S
O343 Co340 1.970 . S
O343 C342 1.258 . S
O344 Co341 1.966 . S
O344 C342 1.263 . S
C345 O346 1.235 . S
C345 O372 1.289 . S
O346 C345 1.235 . S
C347 C349 1.400 . S
C347 N350 1.351 . S
C347 C352 1.501 . S
C348 C349 1.387 . S
C348 N351 1.341 . S
C349 C347 1.400 . S
C349 C348 1.387 . S
N350 Co341 2.022 . S
N350 C347 1.351 . S
N350 N351 1.365 . S
N351 C348 1.341 . S
N351 N350 1.365 . S
N351 H371 0.862 . S
C352 C347 1.501 . S
C352 H353 0.961 . S
C352 H354 0.961 . S
C352 H355 0.960 . S
H353 C352 0.961 . S
H354 C352 0.961 . S
H355 C352 0.960 . S
C356 N357 1.342 . S
C356 C360 1.401 . S
C356 C361 1.499 . S
N357 Co340 1.989 . S
N357 C356 1.342 . S
N357 N358 1.388 . S
N358 Co341 1.993 . S
N358 N357 1.388 . S
N358 C359 1.346 . S
C359 N358 1.346 . S
C359 C360 1.396 . S
C359 C369 1.510 . S
C360 C356 1.401 . S
C360 C359 1.396 . S
C361 C356 1.499 . S
C361 H362 0.959 1_455 S
C361 H363 0.960 . S
C361 H364 0.961 . S
H362 C361 0.959 1_655 S
H363 C361 0.960 . S
H364 C361 0.961 . S
O365 Co340 1.967 . S
O365 C373 1.258 . S
O366 Co341 1.941 . S
O366 C373 1.266 . S
H367 C369 0.959 . S
H368 C369 0.961 . S
C369 C359 1.510 . S
C369 H367 0.959 . S
C369 H368 0.961 . S
C369 H370 0.960 . S
H370 C369 0.960 . S
H371 N351 0.862 . S
O372 Co340 1.920 1_655 S
O372 C345 1.289 . S
C373 O365 1.258 . S
C373 O366 1.266 . S
Co374 O377 1.970 . S
Co374 N391 1.989 . S
Co374 O399 1.967 . S
Co374 O406 1.920 1_545 S
Co375 O378 1.966 . S
Co375 N384 2.022 . S
Co375 N392 1.993 . S
Co375 O400 1.941 . S
C376 O377 1.258 . S
C376 O378 1.263 . S
O377 Co374 1.970 . S
O377 C376 1.258 . S
O378 Co375 1.966 . S
O378 C376 1.263 . S
C379 O380 1.235 . S
C379 O406 1.289 . S
O380 C379 1.235 . S
C381 C383 1.400 . S
C381 N384 1.351 . S
C381 C386 1.501 . S
C382 C383 1.387 . S
C382 N385 1.341 . S
C383 C381 1.400 . S
C383 C382 1.387 . S
N384 Co375 2.022 . S
N384 C381 1.351 . S
N384 N385 1.365 . S
N385 C382 1.341 . S
N385 N384 1.365 . S
N385 H405 0.862 . S
C386 C381 1.501 . S
C386 H387 0.961 . S
C386 H388 0.961 . S
C386 H389 0.960 . S
H387 C386 0.961 . S
H388 C386 0.961 . S
H389 C386 0.960 . S
C390 N391 1.342 . S
C390 C394 1.401 . S
C390 C395 1.499 . S
N391 Co374 1.989 . S
N391 C390 1.342 . S
N391 N392 1.388 . S
N392 Co375 1.993 . S
N392 N391 1.388 . S
N392 C393 1.346 . S
C393 N392 1.346 . S
C393 C394 1.396 . S
C393 C403 1.510 . S
C394 C390 1.401 . S
C394 C393 1.396 . S
C395 C390 1.499 . S
C395 H396 0.959 1_545 S
C395 H397 0.960 . S
C395 H398 0.961 . S
H396 C395 0.959 1_565 S
H397 C395 0.960 . S
H398 C395 0.961 . S
O399 Co374 1.967 . S
O399 C407 1.258 . S
O400 Co375 1.941 . S
O400 C407 1.266 . S
H401 C403 0.959 . S
H402 C403 0.961 . S
C403 C393 1.510 . S
C403 H401 0.959 . S
C403 H402 0.961 . S
C403 H404 0.960 . S
H404 C403 0.960 . S
H405 N385 0.862 . S
O406 Co374 1.920 1_565 S
O406 C379 1.289 . S
C407 O399 1.258 . S
C407 O400 1.266 . S
Co408 O411 1.970 . S
Co408 N425 1.989 . S
Co408 O433 1.967 . S
Co408 O440 1.920 . S
Co409 O412 1.966 . S
Co409 N418 2.022 . S
Co409 N426 1.993 . S
Co409 O434 1.941 . S
C410 O411 1.258 . S
C410 O412 1.263 . S
O411 Co408 1.970 . S
O411 C410 1.258 . S
O412 Co409 1.966 . S
O412 C410 1.263 . S
C413 O414 1.235 . S
C413 O440 1.289 . S
O414 C413 1.235 . S
C415 C417 1.400 . S
C415 N418 1.351 . S
C415 C420 1.501 . S
C416 C417 1.387 . S
C416 N419 1.341 . S
C417 C415 1.400 . S
C417 C416 1.387 . S
N418 Co409 2.022 . S
N418 C415 1.351 . S
N418 N419 1.365 . S
N419 C416 1.341 . S
N419 N418 1.365 . S
N419 H439 0.862 . S
C420 C415 1.501 . S
C420 H421 0.961 . S
C420 H422 0.961 . S
C420 H423 0.960 . S
H421 C420 0.961 . S
H422 C420 0.961 . S
H423 C420 0.960 . S
C424 N425 1.342 . S
C424 C428 1.401 . S
C424 C429 1.499 . S
N425 Co408 1.989 . S
N425 C424 1.342 . S
N425 N426 1.388 . S
N426 Co409 1.993 . S
N426 N425 1.388 . S
N426 C427 1.346 . S
C427 N426 1.346 . S
C427 C428 1.396 . S
C427 C437 1.510 . S
C428 C424 1.401 . S
C428 C427 1.396 . S
C429 C424 1.499 . S
C429 H430 0.959 . S
C429 H431 0.960 . S
C429 H432 0.961 . S
H430 C429 0.959 . S
H431 C429 0.960 . S
H432 C429 0.961 . S
O433 Co408 1.967 . S
O433 C441 1.258 . S
O434 Co409 1.941 . S
O434 C441 1.266 . S
H435 C437 0.959 . S
H436 C437 0.961 . S
C437 C427 1.510 . S
C437 H435 0.959 . S
C437 H436 0.961 . S
C437 H438 0.960 . S
H438 C437 0.960 . S
H439 N419 0.862 . S
O440 Co408 1.920 . S
O440 C413 1.289 . S
C441 O433 1.258 . S
C441 O434 1.266 . S
Co442 O445 1.970 . S
Co442 N459 1.989 . S
Co442 O467 1.967 . S
Co442 O474 1.920 . S
Co443 O446 1.966 . S
Co443 N452 2.022 . S
Co443 N460 1.993 . S
Co443 O468 1.941 . S
C444 O445 1.258 . S
C444 O446 1.263 . S
O445 Co442 1.970 . S
O445 C444 1.258 . S
O446 Co443 1.966 . S
O446 C444 1.263 . S
C447 O448 1.235 . S
C447 O474 1.289 . S
O448 C447 1.235 . S
C449 C451 1.400 . S
C449 N452 1.351 . S
C449 C454 1.501 . S
C450 C451 1.387 . S
C450 N453 1.341 . S
C451 C449 1.400 . S
C451 C450 1.387 . S
N452 Co443 2.022 . S
N452 C449 1.351 . S
N452 N453 1.365 . S
N453 C450 1.341 . S
N453 N452 1.365 . S
N453 H473 0.862 . S
C454 C449 1.501 . S
C454 H455 0.961 . S
C454 H456 0.961 . S
C454 H457 0.960 . S
H455 C454 0.961 . S
H456 C454 0.961 . S
H457 C454 0.960 . S
C458 N459 1.342 . S
C458 C462 1.401 . S
C458 C463 1.499 . S
N459 Co442 1.989 . S
N459 C458 1.342 . S
N459 N460 1.388 . S
N460 Co443 1.993 . S
N460 N459 1.388 . S
N460 C461 1.346 . S
C461 N460 1.346 . S
C461 C462 1.396 . S
C461 C471 1.510 . S
C462 C458 1.401 . S
C462 C461 1.396 . S
C463 C458 1.499 . S
C463 H464 0.959 . S
C463 H465 0.960 . S
C463 H466 0.961 . S
H464 C463 0.959 . S
H465 C463 0.960 . S
H466 C463 0.961 . S
O467 Co442 1.967 . S
O467 C475 1.258 . S
O468 Co443 1.941 . S
O468 C475 1.266 . S
H469 C471 0.959 . S
H470 C471 0.961 . S
C471 C461 1.510 . S
C471 H469 0.959 . S
C471 H470 0.961 . S
C471 H472 0.960 . S
H472 C471 0.960 . S
H473 N453 0.862 . S
O474 Co442 1.920 . S
O474 C447 1.289 . S
C475 O467 1.258 . S
C475 O468 1.266 . S
Co476 O479 1.970 . S
Co476 N493 1.989 . S
Co476 O501 1.967 . S
Co476 O508 1.920 . S
Co477 O480 1.966 . S
Co477 N486 2.022 . S
Co477 N494 1.993 . S
Co477 O502 1.941 . S
C478 O479 1.258 . S
C478 O480 1.263 . S
O479 Co476 1.970 . S
O479 C478 1.258 . S
O480 Co477 1.966 . S
O480 C478 1.263 . S
C481 O482 1.235 . S
C481 O508 1.289 . S
O482 C481 1.235 . S
C483 C485 1.400 . S
C483 N486 1.351 . S
C483 C488 1.501 . S
C484 C485 1.387 . S
C484 N487 1.341 . S
C485 C483 1.400 . S
C485 C484 1.387 . S
N486 Co477 2.022 . S
N486 C483 1.351 . S
N486 N487 1.365 . S
N487 C484 1.341 . S
N487 N486 1.365 . S
N487 H507 0.862 . S
C488 C483 1.501 . S
C488 H489 0.961 . S
C488 H490 0.961 . S
C488 H491 0.960 . S
H489 C488 0.961 . S
H490 C488 0.961 . S
H491 C488 0.960 . S
C492 N493 1.342 . S
C492 C496 1.401 . S
C492 C497 1.499 . S
N493 Co476 1.989 . S
N493 C492 1.342 . S
N493 N494 1.388 . S
N494 Co477 1.993 . S
N494 N493 1.388 . S
N494 C495 1.346 . S
C495 N494 1.346 . S
C495 C496 1.396 . S
C495 C505 1.510 . S
C496 C492 1.401 . S
C496 C495 1.396 . S
C497 C492 1.499 . S
C497 H498 0.959 . S
C497 H499 0.960 . S
C497 H500 0.961 . S
H498 C497 0.959 . S
H499 C497 0.960 . S
H500 C497 0.961 . S
O501 Co476 1.967 . S
O501 C509 1.258 . S
O502 Co477 1.941 . S
O502 C509 1.266 . S
H503 C505 0.959 . S
H504 C505 0.961 . S
C505 C495 1.510 . S
C505 H503 0.959 . S
C505 H504 0.961 . S
C505 H506 0.960 . S
H506 C505 0.960 . S
H507 N487 0.862 . S
O508 Co476 1.920 . S
O508 C481 1.289 . S
C509 O501 1.258 . S
C509 O502 1.266 . S
Co510 O513 1.970 . S
Co510 N527 1.989 . S
Co510 O535 1.967 . S
Co510 O542 1.920 . S
Co511 O514 1.966 . S
Co511 N520 2.022 . S
Co511 N528 1.993 . S
Co511 O536 1.941 . S
C512 O513 1.258 . S
C512 O514 1.263 . S
O513 Co510 1.970 . S
O513 C512 1.258 . S
O514 Co511 1.966 . S
O514 C512 1.263 . S
C515 O516 1.235 . S
C515 O542 1.289 . S
O516 C515 1.235 . S
C517 C519 1.400 . S
C517 N520 1.351 . S
C517 C522 1.501 . S
C518 C519 1.387 . S
C518 N521 1.341 . S
C519 C517 1.400 . S
C519 C518 1.387 . S
N520 Co511 2.022 . S
N520 C517 1.351 . S
N520 N521 1.365 . S
N521 C518 1.341 . S
N521 N520 1.365 . S
N521 H541 0.862 . S
C522 C517 1.501 . S
C522 H523 0.961 . S
C522 H524 0.961 . S
C522 H525 0.960 . S
H523 C522 0.961 . S
H524 C522 0.961 . S
H525 C522 0.960 . S
C526 N527 1.342 . S
C526 C530 1.401 . S
C526 C531 1.499 . S
N527 Co510 1.989 . S
N527 C526 1.342 . S
N527 N528 1.388 . S
N528 Co511 1.993 . S
N528 N527 1.388 . S
N528 C529 1.346 . S
C529 N528 1.346 . S
C529 C530 1.396 . S
C529 C539 1.510 . S
C530 C526 1.401 . S
C530 C529 1.396 . S
C531 C526 1.499 . S
C531 H532 0.959 . S
C531 H533 0.960 . S
C531 H534 0.961 . S
H532 C531 0.959 . S
H533 C531 0.960 . S
H534 C531 0.961 . S
O535 Co510 1.967 . S
O535 C543 1.258 . S
O536 Co511 1.941 . S
O536 C543 1.266 . S
H537 C539 0.959 . S
H538 C539 0.961 . S
C539 C529 1.510 . S
C539 H537 0.959 . S
C539 H538 0.961 . S
C539 H540 0.960 . S
H540 C539 0.960 . S
H541 N521 0.862 . S
O542 Co510 1.920 . S
O542 C515 1.289 . S
C543 O535 1.258 . S
C543 O536 1.266 . S
H544 C556 0.930 . S
H545 C558 0.930 . S
H546 C559 0.930 1_655 S
H547 C563 0.959 . S
H548 C563 0.959 . S
H549 C563 0.973 . S
H550 C564 0.960 . S
H551 C564 0.961 1_565 S
H552 C564 0.959 . S
H553 C567 0.929 . S
H554 C568 0.931 . S
H555 C570 0.930 . S
C556 H544 0.930 . S
C556 C557 1.399 . S
C556 C561 1.399 . S
C557 C556 1.399 . S
C557 C558 1.376 . S
C558 H545 0.930 . S
C558 C557 1.376 . S
C558 C559 1.388 . S
C559 H546 0.930 1_455 S
C559 C558 1.388 . S
C559 C560 1.389 1_455 S
C560 C559 1.389 1_655 S
C560 C561 1.386 1_655 S
C560 C566 1.473 1_545 S
C561 C556 1.399 . S
C561 C560 1.386 1_455 S
C561 C562 1.516 1_545 S
C562 C561 1.516 1_565 S
C562 C563 1.502 . S
C562 C564 1.561 1_465 S
C562 C565 1.526 1_455 S
C563 H547 0.959 . S
C563 H548 0.959 . S
C563 H549 0.973 . S
C563 C562 1.502 . S
C564 H550 0.960 . S
C564 H551 0.961 1_545 S
C564 H552 0.959 . S
C564 C562 1.561 1_645 S
C565 C562 1.526 1_655 S
C565 C566 1.396 . S
C565 C570 1.390 . S
C566 C560 1.473 1_565 S
C566 C565 1.396 . S
C566 C567 1.399 . S
C567 H553 0.929 . S
C567 C566 1.399 . S
C567 C568 1.385 . S
C568 H554 0.931 . S
C568 C567 1.385 . S
C568 C569 1.389 . S
C569 C568 1.389 . S
C569 C570 1.387 . S
C570 H555 0.930 . S
C570 C565 1.390 . S
C570 C569 1.387 . S
H571 C583 0.930 . S
H572 C585 0.930 . S
H573 C586 0.930 . S
H574 C590 0.959 . S
H575 C590 0.959 . S
H576 C590 0.961 . S
H577 C591 0.960 . S
H578 C591 0.961 1_655 S
H579 C591 0.959 . S
H580 C594 0.929 . S
H581 C595 0.931 . S
H582 C597 0.930 . S
C583 H571 0.930 . S
C583 C584 1.399 . S
C583 C588 1.399 . S
C584 C583 1.399 . S
C584 C585 1.376 . S
C585 H572 0.930 . S
C585 C584 1.376 . S
C585 C586 1.388 1_565 S
C586 H573 0.930 . S
C586 C585 1.388 1_545 S
C586 C587 1.390 . S
C587 C586 1.390 . S
C587 C588 1.394 1_545 S
C587 C593 1.465 1_455 S
C588 C583 1.399 . S
C588 C587 1.394 1_565 S
C588 C589 1.516 1_455 S
C589 C588 1.516 1_655 S
C589 C590 1.502 . S
C589 C591 1.561 1_665 S
C589 C592 1.526 1_565 S
C590 H574 0.959 . S
C590 H575 0.959 . S
C590 H576 0.961 . S
C590 C589 1.502 . S
C591 H577 0.960 . S
C591 H578 0.961 1_455 S
C591 H579 0.959 . S
C591 C589 1.561 1_445 S
C592 C589 1.526 1_545 S
C592 C593 1.396 . S
C592 C597 1.390 . S
C593 C587 1.465 1_655 S
C593 C592 1.396 . S
C593 C594 1.399 . S
C594 H580 0.929 . S
C594 C593 1.399 . S
C594 C595 1.385 . S
C595 H581 0.931 . S
C595 C594 1.385 . S
C595 C596 1.389 . S
C596 C595 1.389 . S
C596 C597 1.387 . S
C597 H582 0.930 . S
C597 C592 1.390 . S
C597 C596 1.387 . S
H598 C610 0.930 . S
H599 C612 0.930 . S
H600 C613 0.930 . S
H601 C617 0.959 . S
H602 C617 0.959 . S
H603 C617 0.961 . S
H604 C618 0.960 . S
H605 C618 0.961 . S
H606 C618 0.959 . S
H607 C621 0.929 . S
H608 C622 0.931 . S
H609 C624 0.930 . S
C610 H598 0.930 . S
C610 C611 1.399 . S
C610 C615 1.399 . S
C611 C610 1.399 . S
C611 C612 1.376 . S
C612 H599 0.930 . S
C612 C611 1.376 . S
C612 C613 1.388 . S
C613 H600 0.930 . S
C613 C612 1.388 . S
C613 C614 1.390 . S
C614 C613 1.390 . S
C614 C615 1.394 . S
C614 C620 1.465 . S
C615 C610 1.399 . S
C615 C614 1.394 . S
C615 C616 1.516 . S
C616 C615 1.516 . S
C616 C617 1.502 . S
C616 C618 1.561 . S
C616 C619 1.526 . S
C617 H601 0.959 . S
C617 H602 0.959 . S
C617 H603 0.961 . S
C617 C616 1.502 . S
C618 H604 0.960 . S
C618 H605 0.961 . S
C618 H606 0.959 . S
C618 C616 1.561 . S
C619 C616 1.526 . S
C619 C620 1.396 . S
C619 C624 1.390 . S
C620 C614 1.465 . S
C620 C619 1.396 . S
C620 C621 1.399 . S
C621 H607 0.929 . S
C621 C620 1.399 . S
C621 C622 1.385 . S
C622 H608 0.931 . S
C622 C621 1.385 . S
C622 C623 1.389 . S
C623 C622 1.389 . S
C623 C624 1.387 . S
C624 H609 0.930 . S
C624 C619 1.390 . S
C624 C623 1.387 . S
H625 C637 0.930 . S
H626 C639 0.930 . S
H627 C640 0.930 . S
H628 C644 0.959 . S
H629 C644 0.959 . S
H630 C644 0.961 . S
H631 C645 0.960 . S
H632 C645 0.961 . S
H633 C645 0.959 . S
H634 C648 0.929 . S
H635 C649 0.931 . S
H636 C651 0.930 . S
C637 H625 0.930 . S
C637 C638 1.399 . S
C637 C642 1.399 . S
C638 C637 1.399 . S
C638 C639 1.376 . S
C639 H626 0.930 . S
C639 C638 1.376 . S
C639 C640 1.388 . S
C640 H627 0.930 . S
C640 C639 1.388 . S
C640 C641 1.390 . S
C641 C640 1.390 . S
C641 C642 1.394 . S
C641 C647 1.465 . S
C642 C637 1.399 . S
C642 C641 1.394 . S
C642 C643 1.516 . S
C643 C642 1.516 . S
C643 C644 1.502 . S
C643 C645 1.561 . S
C643 C646 1.526 . S
C644 H628 0.959 . S
C644 H629 0.959 . S
C644 H630 0.961 . S
C644 C643 1.502 . S
C645 H631 0.960 . S
C645 H632 0.961 . S
C645 H633 0.959 . S
C645 C643 1.561 . S
C646 C643 1.526 . S
C646 C647 1.396 . S
C646 C651 1.390 . S
C647 C641 1.465 . S
C647 C646 1.396 . S
C647 C648 1.399 . S
C648 H634 0.929 . S
C648 C647 1.399 . S
C648 C649 1.385 . S
C649 H635 0.931 . S
C649 C648 1.385 . S
C649 C650 1.389 . S
C650 C649 1.389 . S
C650 C651 1.387 . S
C651 H636 0.930 . S
C651 C646 1.390 . S
C651 C650 1.387 . S
H652 C664 0.930 . S
H653 C666 0.930 . S
H654 C667 0.930 . S
H655 C671 0.959 . S
H656 C671 0.964 . S
H657 C671 0.961 . S
H658 C672 0.960 1_545 S
H659 C672 0.961 . S
H660 C672 0.959 . S
H661 C675 0.929 1_455 S
H662 C676 0.931 . S
H663 C678 0.930 . S
C664 H652 0.930 . S
C664 C665 1.399 . S
C664 C669 1.399 . S
C665 C664 1.399 . S
C665 C666 1.376 . S
C666 H653 0.930 . S
C666 C665 1.376 . S
C666 C667 1.388 . S
C667 H654 0.930 . S
C667 C666 1.388 . S
C667 C668 1.390 . S
C668 C667 1.390 . S
C668 C669 1.394 . S
C668 C674 1.453 1_445 S
C669 C664 1.399 . S
C669 C668 1.394 . S
C669 C670 1.516 1_455 S
C670 C669 1.516 1_655 S
C670 C671 1.502 . S
C670 C672 1.561 1_645 S
C670 C673 1.526 1_545 S
C671 H655 0.959 . S
C671 H656 0.964 . S
C671 H657 0.961 . S
C671 C670 1.502 . S
C672 H658 0.960 1_565 S
C672 H659 0.961 . S
C672 H660 0.959 . S
C672 C670 1.561 1_465 S
C673 C670 1.526 1_565 S
C673 C674 1.407 . S
C673 C678 1.390 . S
C674 C668 1.453 1_665 S
C674 C673 1.407 . S
C674 C675 1.402 . S
C675 H661 0.929 1_655 S
C675 C674 1.402 . S
C675 C676 1.385 . S
C676 H662 0.931 . S
C676 C675 1.385 . S
C676 C677 1.389 . S
C677 C676 1.389 . S
C677 C678 1.387 . S
C678 H663 0.930 . S
C678 C673 1.390 . S
C678 C677 1.387 . S
H679 C691 0.930 1_545 S
H680 C693 0.930 . S
H681 C694 0.930 . S
H682 C698 0.959 . S
H683 C698 0.959 . S
H684 C698 0.961 . S
H685 C699 0.960 . S
H686 C699 0.961 . S
H687 C699 0.959 . S
H688 C702 0.929 . S
H689 C703 0.931 1_565 S
H690 C705 0.930 . S
C691 H679 0.930 1_565 S
C691 C692 1.399 . S
C691 C696 1.398 1_565 S
C692 C691 1.399 . S
C692 C693 1.376 . S
C693 H680 0.930 . S
C693 C692 1.376 . S
C693 C694 1.388 . S
C694 H681 0.930 . S
C694 C693 1.388 . S
C694 C695 1.390 . S
C695 C694 1.390 . S
C695 C696 1.392 1_565 S
C695 C701 1.465 1_455 S
C696 C691 1.398 1_545 S
C696 C695 1.392 1_545 S
C696 C697 1.519 . S
C697 C696 1.519 . S
C697 C698 1.502 . S
C697 C699 1.561 . S
C697 C700 1.526 1_455 S
C698 H682 0.959 . S
C698 H683 0.959 . S
C698 H684 0.961 . S
C698 C697 1.502 . S
C699 H685 0.960 . S
C699 H686 0.961 . S
C699 H687 0.959 . S
C699 C697 1.561 . S
C700 C697 1.526 1_655 S
C700 C701 1.396 1_545 S
C700 C705 1.390 . S
C701 C695 1.465 1_655 S
C701 C700 1.396 1_565 S
C701 C702 1.399 . S
C702 H688 0.929 . S
C702 C701 1.399 . S
C702 C703 1.385 1_565 S
C703 H689 0.931 1_545 S
C703 C702 1.385 1_545 S
C703 C704 1.389 . S
C704 C703 1.389 . S
C704 C705 1.387 . S
C705 H690 0.930 . S
C705 C700 1.390 . S
C705 C704 1.387 . S
H706 C718 0.930 . S
H707 C720 0.930 . S
H708 C721 0.930 . S
H709 C725 0.959 . S
H710 C725 0.959 . S
H711 C725 0.961 . S
H712 C726 0.960 . S
H713 C726 0.961 . S
H714 C726 0.959 . S
H715 C729 0.929 . S
H716 C730 0.931 . S
H717 C732 0.930 . S
C718 H706 0.930 . S
C718 C719 1.399 . S
C718 C723 1.399 . S
C719 C718 1.399 . S
C719 C720 1.376 . S
C720 H707 0.930 . S
C720 C719 1.376 . S
C720 C721 1.388 . S
C721 H708 0.930 . S
C721 C720 1.388 . S
C721 C722 1.390 . S
C722 C721 1.390 . S
C722 C723 1.394 . S
C722 C728 1.465 . S
C723 C718 1.399 . S
C723 C722 1.394 . S
C723 C724 1.516 . S
C724 C723 1.516 . S
C724 C725 1.502 . S
C724 C726 1.561 . S
C724 C727 1.526 . S
C725 H709 0.959 . S
C725 H710 0.959 . S
C725 H711 0.961 . S
C725 C724 1.502 . S
C726 H712 0.960 . S
C726 H713 0.961 . S
C726 H714 0.959 . S
C726 C724 1.561 . S
C727 C724 1.526 . S
C727 C728 1.396 . S
C727 C732 1.390 . S
C728 C722 1.465 . S
C728 C727 1.396 . S
C728 C729 1.399 . S
C729 H715 0.929 . S
C729 C728 1.399 . S
C729 C730 1.385 . S
C730 H716 0.931 . S
C730 C729 1.385 . S
C730 C731 1.389 . S
C731 C730 1.389 . S
C731 C732 1.387 . S
C732 H717 0.930 . S
C732 C727 1.390 . S
C732 C731 1.387 . S
H733 C745 0.930 . S
H734 C747 0.930 . S
H735 C748 0.930 . S
H736 C752 0.959 . S
H737 C752 0.959 . S
H738 C752 0.961 . S
H739 C753 0.960 . S
H740 C753 0.961 . S
H741 C753 0.959 . S
H742 C756 0.929 . S
H743 C757 0.931 . S
H744 C759 0.930 . S
C745 H733 0.930 . S
C745 C746 1.399 . S
C745 C750 1.399 . S
C746 C745 1.399 . S
C746 C747 1.376 . S
C747 H734 0.930 . S
C747 C746 1.376 . S
C747 C748 1.388 . S
C748 H735 0.930 . S
C748 C747 1.388 . S
C748 C749 1.390 . S
C749 C748 1.390 . S
C749 C750 1.394 . S
C749 C755 1.465 . S
C750 C745 1.399 . S
C750 C749 1.394 . S
C750 C751 1.516 . S
C751 C750 1.516 . S
C751 C752 1.502 . S
C751 C753 1.561 . S
C751 C754 1.526 . S
C752 H736 0.959 . S
C752 H737 0.959 . S
C752 H738 0.961 . S
C752 C751 1.502 . S
C753 H739 0.960 . S
C753 H740 0.961 . S
C753 H741 0.959 . S
C753 C751 1.561 . S
C754 C751 1.526 . S
C754 C755 1.396 . S
C754 C759 1.390 . S
C755 C749 1.465 . S
C755 C754 1.396 . S
C755 C756 1.399 . S
C756 H742 0.929 . S
C756 C755 1.399 . S
C756 C757 1.385 . S
C757 H743 0.931 . S
C757 C756 1.385 . S
C757 C758 1.389 . S
C758 C757 1.389 . S
C758 C759 1.387 . S
C759 H744 0.930 . S
C759 C754 1.390 . S
C759 C758 1.387 . S
H760 C772 0.930 . S
H761 C774 0.930 . S
H762 C775 0.930 1_556 S
H763 C779 0.959 . S
H764 C779 0.959 . S
H765 C779 0.961 . S
H766 C780 0.960 . S
H767 C780 0.961 . S
H768 C780 0.959 . S
H769 C783 0.929 . S
H770 C784 0.931 . S
H771 C786 0.930 . S
C772 H760 0.930 . S
C772 C773 1.399 . S
C772 C777 1.399 1_554 S
C773 C772 1.399 . S
C773 C774 1.376 . S
C774 H761 0.930 . S
C774 C773 1.376 . S
C774 C775 1.388 . S
C775 H762 0.930 1_554 S
C775 C774 1.388 . S
C775 C776 1.390 1_554 S
C776 C775 1.390 1_556 S
C776 C777 1.394 . S
C776 C782 1.465 . S
C777 C772 1.399 1_556 S
C777 C776 1.394 . S
C777 C778 1.516 . S
C778 C777 1.516 . S
C778 C779 1.502 . S
C778 C780 1.561 . S
C778 C781 1.526 . S
C779 H763 0.959 . S
C779 H764 0.959 . S
C779 H765 0.961 . S
C779 C778 1.502 . S
C780 H766 0.960 . S
C780 H767 0.961 . S
C780 H768 0.959 . S
C780 C778 1.561 . S
C781 C778 1.526 . S
C781 C782 1.396 . S
C781 C786 1.390 . S
C782 C776 1.465 . S
C782 C781 1.396 . S
C782 C783 1.399 . S
C783 H769 0.929 . S
C783 C782 1.399 . S
C783 C784 1.385 . S
C784 H770 0.931 . S
C784 C783 1.385 . S
C784 C785 1.389 . S
C785 C784 1.389 . S
C785 C786 1.387 . S
C786 H771 0.930 . S
C786 C781 1.390 . S
C786 C785 1.387 . S
H787 C799 0.930 . S
H788 C801 0.930 . S
H789 C802 0.930 . S
H790 C806 0.959 . S
H791 C806 0.959 . S
H792 C806 0.961 . S
H793 C807 0.960 . S
H794 C807 0.961 . S
H795 C807 0.959 . S
H796 C810 0.929 . S
H797 C811 0.931 . S
H798 C813 0.930 . S
C799 H787 0.930 . S
C799 C800 1.399 . S
C799 C804 1.399 . S
C800 C799 1.399 . S
C800 C801 1.376 . S
C801 H788 0.930 . S
C801 C800 1.376 . S
C801 C802 1.388 . S
C802 H789 0.930 . S
C802 C801 1.388 . S
C802 C803 1.390 . S
C803 C802 1.390 . S
C803 C804 1.394 . S
C803 C809 1.465 . S
C804 C799 1.399 . S
C804 C803 1.394 . S
C804 C805 1.516 . S
C805 C804 1.516 . S
C805 C806 1.502 1_545 S
C805 C807 1.561 . S
C805 C808 1.526 . S
C806 H790 0.959 . S
C806 H791 0.959 . S
C806 H792 0.961 . S
C806 C805 1.502 1_565 S
C807 H793 0.960 . S
C807 H794 0.961 . S
C807 H795 0.959 . S
C807 C805 1.561 . S
C808 C805 1.526 . S
C808 C809 1.396 . S
C808 C813 1.390 . S
C809 C803 1.465 . S
C809 C808 1.396 . S
C809 C810 1.399 . S
C810 H796 0.929 . S
C810 C809 1.399 . S
C810 C811 1.385 . S
C811 H797 0.931 . S
C811 C810 1.385 . S
C811 C812 1.389 . S
C812 C811 1.389 . S
C812 C813 1.387 . S
C813 H798 0.930 . S
C813 C808 1.390 . S
C813 C812 1.387 . S
H814 C826 0.930 . S
H815 C828 0.930 . S
H816 C829 0.930 . S
H817 C833 0.959 1_455 S
H818 C833 0.959 . S
H819 C833 0.961 . S
H820 C834 0.960 . S
H821 C834 0.961 . S
H822 C834 0.959 . S
H823 C837 0.929 1_556 S
H824 C838 0.931 . S
H825 C840 0.930 . S
C826 H814 0.930 . S
C826 C827 1.399 . S
C826 C831 1.399 . S
C827 C826 1.399 . S
C827 C828 1.376 . S
C828 H815 0.930 . S
C828 C827 1.376 . S
C828 C829 1.388 . S
C829 H816 0.930 . S
C829 C828 1.388 . S
C829 C830 1.390 . S
C830 C829 1.390 . S
C830 C831 1.394 . S
C830 C836 1.465 . S
C831 C826 1.399 . S
C831 C830 1.394 . S
C831 C832 1.516 . S
C832 C831 1.516 . S
C832 C833 1.502 . S
C832 C834 1.561 . S
C832 C835 1.526 . S
C833 H817 0.959 1_655 S
C833 H818 0.959 . S
C833 H819 0.961 . S
C833 C832 1.502 . S
C834 H820 0.960 . S
C834 H821 0.961 . S
C834 H822 0.959 . S
C834 C832 1.561 . S
C835 C832 1.526 . S
C835 C836 1.396 . S
C835 C840 1.390 1_556 S
C836 C830 1.465 . S
C836 C835 1.396 . S
C836 C837 1.399 1_556 S
C837 H823 0.929 1_554 S
C837 C836 1.399 1_554 S
C837 C838 1.385 . S
C838 H824 0.931 . S
C838 C837 1.385 . S
C838 C839 1.389 . S
C839 C838 1.389 . S
C839 C840 1.387 . S
C840 H825 0.930 . S
C840 C835 1.390 1_554 S
C840 C839 1.387 . S
H841 C853 0.930 . S
H842 C855 0.930 . S
H843 C856 0.930 . S
H844 C860 0.956 1_565 S
H845 C860 0.959 . S
H846 C860 0.961 . S
H847 C861 0.960 . S
H848 C861 0.943 1_545 S
H849 C861 0.959 . S
H850 C864 0.929 . S
H851 C865 0.931 . S
H852 C867 0.930 . S
C853 H841 0.930 . S
C853 C854 1.399 . S
C853 C858 1.399 . S
C854 C853 1.399 . S
C854 C855 1.376 . S
C855 H842 0.930 . S
C855 C854 1.376 . S
C855 C856 1.388 . S
C856 H843 0.930 . S
C856 C855 1.388 . S
C856 C857 1.390 . S
C857 C856 1.390 . S
C857 C858 1.394 . S
C857 C863 1.465 . S
C858 C853 1.399 . S
C858 C857 1.394 . S
C858 C859 1.516 . S
C859 C858 1.516 . S
C859 C860 1.502 1_565 S
C859 C861 1.561 . S
C859 C862 1.526 . S
C860 H844 0.956 1_545 S
C860 H845 0.959 . S
C860 H846 0.961 . S
C860 C859 1.502 1_545 S
C861 H847 0.960 . S
C861 H848 0.943 1_565 S
C861 H849 0.959 . S
C861 C859 1.561 . S
C862 C859 1.526 . S
C862 C863 1.396 . S
C862 C867 1.390 . S
C863 C857 1.465 . S
C863 C862 1.396 . S
C863 C864 1.399 . S
C864 H850 0.929 . S
C864 C863 1.399 . S
C864 C865 1.385 . S
C865 H851 0.931 . S
C865 C864 1.385 . S
C865 C866 1.389 . S
C866 C865 1.389 . S
C866 C867 1.387 . S
C867 H852 0.930 . S
C867 C862 1.390 . S
C867 C866 1.387 . S
H868 C880 0.930 . S
H869 C882 0.930 . S
H870 C883 0.930 . S
H871 C887 0.959 . S
H872 C887 0.959 . S
H873 C887 0.961 . S
H874 C888 0.960 . S
H875 C888 0.961 . S
H876 C888 0.959 . S
H877 C891 0.929 1_554 S
H878 C892 0.931 . S
H879 C894 0.930 . S
C880 H868 0.930 . S
C880 C881 1.399 . S
C880 C885 1.399 . S
C881 C880 1.399 . S
C881 C882 1.376 . S
C882 H869 0.930 . S
C882 C881 1.376 . S
C882 C883 1.388 . S
C883 H870 0.930 . S
C883 C882 1.388 . S
C883 C884 1.390 . S
C884 C883 1.390 . S
C884 C885 1.394 . S
C884 C890 1.465 . S
C885 C880 1.399 . S
C885 C884 1.394 . S
C885 C886 1.516 . S
C886 C885 1.516 . S
C886 C887 1.502 . S
C886 C888 1.561 . S
C886 C889 1.526 . S
C887 H871 0.959 . S
C887 H872 0.959 . S
C887 H873 0.961 . S
C887 C886 1.502 . S
C888 H874 0.960 . S
C888 H875 0.961 . S
C888 H876 0.959 . S
C888 C886 1.561 . S
C889 C886 1.526 . S
C889 C890 1.396 . S
C889 C894 1.390 1_554 S
C890 C884 1.465 . S
C890 C889 1.396 . S
C890 C891 1.399 1_554 S
C891 H877 0.929 1_556 S
C891 C890 1.399 1_556 S
C891 C892 1.385 . S
C892 H878 0.931 . S
C892 C891 1.385 . S
C892 C893 1.389 . S
C893 C892 1.389 . S
C893 C894 1.387 . S
C894 H879 0.930 . S
C894 C889 1.390 1_556 S
C894 C893 1.387 . S
H895 C907 0.930 . S
H896 C909 0.930 . S
H897 C910 0.930 . S
H898 C914 0.959 . S
H899 C914 0.959 . S
H900 C914 0.961 . S
H901 C915 0.960 . S
H902 C915 0.961 . S
H903 C915 0.959 . S
H904 C918 0.929 . S
H905 C919 0.931 . S
H906 C921 0.930 . S
C907 H895 0.930 . S
C907 C908 1.399 . S
C907 C912 1.399 . S
C908 C907 1.399 . S
C908 C909 1.376 . S
C909 H896 0.930 . S
C909 C908 1.376 . S
C909 C910 1.388 . S
C910 H897 0.930 . S
C910 C909 1.388 . S
C910 C911 1.390 . S
C911 C910 1.390 . S
C911 C912 1.394 . S
C911 C917 1.465 . S
C912 C907 1.399 . S
C912 C911 1.394 . S
C912 C913 1.516 . S
C913 C912 1.516 . S
C913 C914 1.502 . S
C913 C915 1.561 . S
C913 C916 1.526 . S
C914 H898 0.959 . S
C914 H899 0.959 . S
C914 H900 0.961 . S
C914 C913 1.502 . S
C915 H901 0.960 . S
C915 H902 0.961 . S
C915 H903 0.959 . S
C915 C913 1.561 . S
C916 C913 1.526 . S
C916 C917 1.396 . S
C916 C921 1.390 . S
C917 C911 1.465 . S
C917 C916 1.396 . S
C917 C918 1.399 . S
C918 H904 0.929 . S
C918 C917 1.399 . S
C918 C919 1.385 . S
C919 H905 0.931 . S
C919 C918 1.385 . S
C919 C920 1.389 . S
C920 C919 1.389 . S
C920 C921 1.387 . S
C921 H906 0.930 . S
C921 C916 1.390 . S
C921 C920 1.387 . S
H922 C934 0.930 . S
H923 C936 0.930 . S
H924 C937 0.930 . S
H925 C941 0.959 . S
H926 C941 0.959 . S
H927 C941 0.961 . S
H928 C942 0.960 . S
H929 C942 0.961 . S
H930 C942 0.959 . S
H931 C945 0.929 1_554 S
H932 C946 0.931 . S
H933 C948 0.930 . S
C934 H922 0.930 . S
C934 C935 1.399 . S
C934 C939 1.399 . S
C935 C934 1.399 . S
C935 C936 1.376 . S
C936 H923 0.930 . S
C936 C935 1.376 . S
C936 C937 1.388 . S
C937 H924 0.930 . S
C937 C936 1.388 . S
C937 C938 1.390 . S
C938 C937 1.390 . S
C938 C939 1.394 . S
C938 C944 1.465 . S
C939 C934 1.399 . S
C939 C938 1.394 . S
C939 C940 1.516 . S
C940 C939 1.516 . S
C940 C941 1.502 . S
C940 C942 1.561 . S
C940 C943 1.526 . S
C941 H925 0.959 . S
C941 H926 0.959 . S
C941 H927 0.961 . S
C941 C940 1.502 . S
C942 H928 0.960 . S
C942 H929 0.961 . S
C942 H930 0.959 . S
C942 C940 1.561 . S
C943 C940 1.526 . S
C943 C944 1.396 . S
C943 C948 1.390 1_554 S
C944 C938 1.465 . S
C944 C943 1.396 . S
C944 C945 1.399 1_554 S
C945 H931 0.929 1_556 S
C945 C944 1.399 1_556 S
C945 C946 1.385 . S
C946 H932 0.931 . S
C946 C945 1.385 . S
C946 C947 1.389 . S
C947 C946 1.389 . S
C947 C948 1.387 . S
C948 H933 0.930 . S
C948 C943 1.390 1_556 S
C948 C947 1.387 . S
H949 C961 0.930 . S
H950 C963 0.930 . S
H951 C964 0.930 . S
H952 C968 0.959 . S
H953 C968 0.959 . S
H954 C968 0.961 . S
H955 C969 0.960 . S
H956 C969 0.961 . S
H957 C969 0.959 . S
H958 C972 0.929 . S
H959 C973 0.931 . S
H960 C975 0.930 . S
C961 H949 0.930 . S
C961 C962 1.399 . S
C961 C966 1.399 . S
C962 C961 1.399 . S
C962 C963 1.376 . S
C963 H950 0.930 . S
C963 C962 1.376 . S
C963 C964 1.388 . S
C964 H951 0.930 . S
C964 C963 1.388 . S
C964 C965 1.390 . S
C965 C964 1.390 . S
C965 C966 1.394 . S
C965 C971 1.465 . S
C966 C961 1.399 . S
C966 C965 1.394 . S
C966 C967 1.516 . S
C967 C966 1.516 . S
C967 C968 1.502 . S
C967 C969 1.561 . S
C967 C970 1.526 . S
C968 H952 0.959 . S
C968 H953 0.959 . S
C968 H954 0.961 . S
C968 C967 1.502 . S
C969 H955 0.960 . S
C969 H956 0.961 . S
C969 H957 0.959 . S
C969 C967 1.561 . S
C970 C967 1.526 . S
C970 C971 1.396 . S
C970 C975 1.390 . S
C971 C965 1.465 . S
C971 C970 1.396 . S
C971 C972 1.399 . S
C972 H958 0.929 . S
C972 C971 1.399 . S
C972 C973 1.385 . S
C973 H959 0.931 . S
C973 C972 1.385 . S
C973 C974 1.389 . S
C974 C973 1.389 . S
C974 C975 1.387 . S
C975 H960 0.930 . S
C975 C970 1.390 . S
C975 C974 1.387 . S
H976 C988 0.930 . S
H977 C990 0.930 . S
H978 C991 0.930 . S
H979 C995 0.959 . S
H980 C995 0.959 . S
H981 C995 0.961 . S
H982 C996 0.960 . S
H983 C996 0.961 . S
H984 C996 0.959 . S
H985 C999 0.929 . S
H986 C1000 0.931 . S
H987 C1002 0.930 . S
C988 H976 0.930 . S
C988 C989 1.399 . S
C988 C993 1.399 . S
C989 C988 1.399 . S
C989 C990 1.376 . S
C990 H977 0.930 . S
C990 C989 1.376 . S
C990 C991 1.388 . S
C991 H978 0.930 . S
C991 C990 1.388 . S
C991 C992 1.390 . S
C992 C991 1.390 . S
C992 C993 1.394 . S
C992 C998 1.465 . S
C993 C988 1.399 . S
C993 C992 1.394 . S
C993 C994 1.516 . S
C994 C993 1.516 . S
C994 C995 1.502 . S
C994 C996 1.561 . S
C994 C997 1.526 . S
C995 H979 0.959 . S
C995 H980 0.959 . S
C995 H981 0.961 . S
C995 C994 1.502 . S
C996 H982 0.960 . S
C996 H983 0.961 . S
C996 H984 0.959 . S
C996 C994 1.561 . S
C997 C994 1.526 . S
C997 C998 1.396 . S
C997 C1002 1.390 . S
C998 C992 1.465 . S
C998 C997 1.396 . S
C998 C999 1.399 . S
C999 H985 0.929 . S
C999 C998 1.399 . S
C999 C1000 1.385 . S
C1000 H986 0.931 . S
C1000 C999 1.385 . S
C1000 C1001 1.389 . S
C1001 C1000 1.389 . S
C1001 C1002 1.387 . S
C1002 H987 0.930 . S
C1002 C997 1.390 . S
C1002 C1001 1.387 . S
H1003 C1015 0.930 . S
H1004 C1017 0.930 . S
H1005 C1018 0.930 . S
H1006 C1022 0.959 . S
H1007 C1022 0.959 . S
H1008 C1022 0.961 . S
H1009 C1023 0.960 . S
H1010 C1023 0.961 . S
H1011 C1023 0.959 . S
H1012 C1026 0.929 . S
H1013 C1027 0.931 . S
H1014 C1029 0.930 . S
C1015 H1003 0.930 . S
C1015 C1016 1.399 . S
C1015 C1020 1.399 . S
C1016 C1015 1.399 . S
C1016 C1017 1.376 . S
C1017 H1004 0.930 . S
C1017 C1016 1.376 . S
C1017 C1018 1.388 . S
C1018 H1005 0.930 . S
C1018 C1017 1.388 . S
C1018 C1019 1.390 . S
C1019 C1018 1.390 . S
C1019 C1020 1.394 . S
C1019 C1025 1.465 . S
C1020 C1015 1.399 . S
C1020 C1019 1.394 . S
C1020 C1021 1.516 . S
C1021 C1020 1.516 . S
C1021 C1022 1.502 . S
C1021 C1023 1.561 . S
C1021 C1024 1.526 . S
C1022 H1006 0.959 . S
C1022 H1007 0.959 . S
C1022 H1008 0.961 . S
C1022 C1021 1.502 . S
C1023 H1009 0.960 . S
C1023 H1010 0.961 . S
C1023 H1011 0.959 . S
C1023 C1021 1.561 . S
C1024 C1021 1.526 . S
C1024 C1025 1.396 . S
C1024 C1029 1.390 . S
C1025 C1019 1.465 . S
C1025 C1024 1.396 . S
C1025 C1026 1.399 . S
C1026 H1012 0.929 . S
C1026 C1025 1.399 . S
C1026 C1027 1.385 . S
C1027 H1013 0.931 . S
C1027 C1026 1.385 . S
C1027 C1028 1.389 . S
C1028 C1027 1.389 . S
C1028 C1029 1.387 . S
C1029 H1014 0.930 . S
C1029 C1024 1.390 . S
C1029 C1028 1.387 . S
H1030 C1042 0.930 . S
H1031 C1044 0.930 . S
H1032 C1045 0.930 . S
H1033 C1049 0.959 . S
H1034 C1049 0.959 . S
H1035 C1049 0.961 . S
H1036 C1050 0.960 . S
H1037 C1050 0.961 . S
H1038 C1050 0.959 . S
H1039 C1053 0.929 . S
H1040 C1054 0.931 . S
H1041 C1056 0.930 . S
C1042 H1030 0.930 . S
C1042 C1043 1.399 . S
C1042 C1047 1.399 . S
C1043 C1042 1.399 . S
C1043 C1044 1.376 . S
C1044 H1031 0.930 . S
C1044 C1043 1.376 . S
C1044 C1045 1.388 . S
C1045 H1032 0.930 . S
C1045 C1044 1.388 . S
C1045 C1046 1.390 . S
C1046 C1045 1.390 . S
C1046 C1047 1.394 . S
C1046 C1052 1.465 . S
C1047 C1042 1.399 . S
C1047 C1046 1.394 . S
C1047 C1048 1.516 . S
C1048 C1047 1.516 . S
C1048 C1049 1.502 . S
C1048 C1050 1.561 . S
C1048 C1051 1.526 . S
C1049 H1033 0.959 . S
C1049 H1034 0.959 . S
C1049 H1035 0.961 . S
C1049 C1048 1.502 . S
C1050 H1036 0.960 . S
C1050 H1037 0.961 . S
C1050 H1038 0.959 . S
C1050 C1048 1.561 . S
C1051 C1048 1.526 . S
C1051 C1052 1.396 . S
C1051 C1056 1.390 . S
C1052 C1046 1.465 . S
C1052 C1051 1.396 . S
C1052 C1053 1.399 . S
C1053 H1039 0.929 . S
C1053 C1052 1.399 . S
C1053 C1054 1.385 . S
C1054 H1040 0.931 . S
C1054 C1053 1.385 . S
C1054 C1055 1.389 . S
C1055 C1054 1.389 . S
C1055 C1056 1.387 . S
C1056 H1041 0.930 . S
C1056 C1051 1.390 . S
C1056 C1055 1.387 . S
H1057 C1069 0.930 . S
H1058 C1071 0.930 . S
H1059 C1072 0.930 . S
H1060 C1076 0.959 . S
H1061 C1076 0.959 . S
H1062 C1076 0.961 . S
H1063 C1077 0.960 . S
H1064 C1077 0.961 . S
H1065 C1077 0.959 . S
H1066 C1080 0.929 . S
H1067 C1081 0.931 . S
H1068 C1083 0.930 . S
C1069 H1057 0.930 . S
C1069 C1070 1.399 . S
C1069 C1074 1.399 . S
C1070 C1069 1.399 . S
C1070 C1071 1.376 . S
C1071 H1058 0.930 . S
C1071 C1070 1.376 . S
C1071 C1072 1.388 . S
C1072 H1059 0.930 . S
C1072 C1071 1.388 . S
C1072 C1073 1.390 . S
C1073 C1072 1.390 . S
C1073 C1074 1.394 . S
C1073 C1079 1.465 . S
C1074 C1069 1.399 . S
C1074 C1073 1.394 . S
C1074 C1075 1.516 . S
C1075 C1074 1.516 . S
C1075 C1076 1.502 . S
C1075 C1077 1.561 . S
C1075 C1078 1.526 . S
C1076 H1060 0.959 . S
C1076 H1061 0.959 . S
C1076 H1062 0.961 . S
C1076 C1075 1.502 . S
C1077 H1063 0.960 . S
C1077 H1064 0.961 . S
C1077 H1065 0.959 . S
C1077 C1075 1.561 . S
C1078 C1075 1.526 . S
C1078 C1079 1.396 . S
C1078 C1083 1.390 . S
C1079 C1073 1.465 . S
C1079 C1078 1.396 . S
C1079 C1080 1.399 . S
C1080 H1066 0.929 . S
C1080 C1079 1.399 . S
C1080 C1081 1.385 . S
C1081 H1067 0.931 . S
C1081 C1080 1.385 . S
C1081 C1082 1.389 . S
C1082 C1081 1.389 . S
C1082 C1083 1.387 . S
C1083 H1068 0.930 . S
C1083 C1078 1.390 . S
C1083 C1082 1.387 . S
H1084 C1096 0.930 . S
H1085 C1098 0.930 . S
H1086 C1099 0.930 . S
H1087 C1103 0.959 . S
H1088 C1103 0.959 . S
H1089 C1103 0.961 . S
H1090 C1104 0.960 . S
H1091 C1104 0.961 . S
H1092 C1104 0.959 . S
H1093 C1107 0.929 . S
H1094 C1108 0.931 . S
H1095 C1110 0.930 . S
C1096 H1084 0.930 . S
C1096 C1097 1.399 . S
C1096 C1101 1.399 . S
C1097 C1096 1.399 . S
C1097 C1098 1.376 . S
C1098 H1085 0.930 . S
C1098 C1097 1.376 . S
C1098 C1099 1.388 . S
C1099 H1086 0.930 . S
C1099 C1098 1.388 . S
C1099 C1100 1.390 . S
C1100 C1099 1.390 . S
C1100 C1101 1.394 . S
C1100 C1106 1.465 . S
C1101 C1096 1.399 . S
C1101 C1100 1.394 . S
C1101 C1102 1.516 . S
C1102 C1101 1.516 . S
C1102 C1103 1.502 . S
C1102 C1104 1.561 . S
C1102 C1105 1.526 . S
C1103 H1087 0.959 . S
C1103 H1088 0.959 . S
C1103 H1089 0.961 . S
C1103 C1102 1.502 . S
C1104 H1090 0.960 . S
C1104 H1091 0.961 . S
C1104 H1092 0.959 . S
C1104 C1102 1.561 . S
C1105 C1102 1.526 . S
C1105 C1106 1.396 . S
C1105 C1110 1.390 . S
C1106 C1100 1.465 . S
C1106 C1105 1.396 . S
C1106 C1107 1.399 . S
C1107 H1093 0.929 . S
C1107 C1106 1.399 . S
C1107 C1108 1.385 . S
C1108 H1094 0.931 . S
C1108 C1107 1.385 . S
C1108 C1109 1.389 . S
C1109 C1108 1.389 . S
C1109 C1110 1.387 . S
C1110 H1095 0.930 . S
C1110 C1105 1.390 . S
C1110 C1109 1.387 . S
H1111 C1123 0.930 . S
H1112 C1125 0.930 . S
H1113 C1126 0.930 . S
H1114 C1130 0.959 . S
H1115 C1130 0.959 . S
H1116 C1130 0.961 . S
H1117 C1131 0.960 . S
H1118 C1131 0.961 . S
H1119 C1131 0.959 . S
H1120 C1134 0.929 . S
H1121 C1135 0.931 . S
H1122 C1137 0.930 . S
C1123 H1111 0.930 . S
C1123 C1124 1.399 . S
C1123 C1128 1.399 . S
C1124 C1123 1.399 . S
C1124 C1125 1.376 . S
C1125 H1112 0.930 . S
C1125 C1124 1.376 . S
C1125 C1126 1.388 . S
C1126 H1113 0.930 . S
C1126 C1125 1.388 . S
C1126 C1127 1.390 . S
C1127 C1126 1.390 . S
C1127 C1128 1.394 . S
C1127 C1133 1.465 . S
C1128 C1123 1.399 . S
C1128 C1127 1.394 . S
C1128 C1129 1.516 . S
C1129 C1128 1.516 . S
C1129 C1130 1.502 . S
C1129 C1131 1.561 . S
C1129 C1132 1.526 . S
C1130 H1114 0.959 . S
C1130 H1115 0.959 . S
C1130 H1116 0.961 . S
C1130 C1129 1.502 . S
C1131 H1117 0.960 . S
C1131 H1118 0.961 . S
C1131 H1119 0.959 . S
C1131 C1129 1.561 . S
C1132 C1129 1.526 . S
C1132 C1133 1.396 . S
C1132 C1137 1.390 . S
C1133 C1127 1.465 . S
C1133 C1132 1.396 . S
C1133 C1134 1.399 . S
C1134 H1120 0.929 . S
C1134 C1133 1.399 . S
C1134 C1135 1.385 . S
C1135 H1121 0.931 . S
C1135 C1134 1.385 . S
C1135 C1136 1.389 . S
C1136 C1135 1.389 . S
C1136 C1137 1.387 . S
C1137 H1122 0.930 . S
C1137 C1132 1.390 . S
C1137 C1136 1.387 . S
H1138 C1150 0.930 . S
H1139 C1152 0.930 . S
H1140 C1153 0.930 . S
H1141 C1157 0.959 . S
H1142 C1157 0.959 . S
H1143 C1157 0.961 . S
H1144 C1158 0.960 . S
H1145 C1158 0.961 . S
H1146 C1158 0.959 . S
H1147 C1161 0.929 . S
H1148 C1162 0.931 . S
H1149 C1164 0.930 . S
C1150 H1138 0.930 . S
C1150 C1151 1.399 . S
C1150 C1155 1.399 . S
C1151 C1150 1.399 . S
C1151 C1152 1.376 . S
C1152 H1139 0.930 . S
C1152 C1151 1.376 . S
C1152 C1153 1.388 . S
C1153 H1140 0.930 . S
C1153 C1152 1.388 . S
C1153 C1154 1.390 . S
C1154 C1153 1.390 . S
C1154 C1155 1.394 . S
C1154 C1160 1.465 . S
C1155 C1150 1.399 . S
C1155 C1154 1.394 . S
C1155 C1156 1.516 . S
C1156 C1155 1.516 . S
C1156 C1157 1.502 . S
C1156 C1158 1.561 . S
C1156 C1159 1.526 . S
C1157 H1141 0.959 . S
C1157 H1142 0.959 . S
C1157 H1143 0.961 . S
C1157 C1156 1.502 . S
C1158 H1144 0.960 . S
C1158 H1145 0.961 . S
C1158 H1146 0.959 . S
C1158 C1156 1.561 . S
C1159 C1156 1.526 . S
C1159 C1160 1.396 . S
C1159 C1164 1.390 . S
C1160 C1154 1.465 . S
C1160 C1159 1.396 . S
C1160 C1161 1.399 . S
C1161 H1147 0.929 . S
C1161 C1160 1.399 . S
C1161 C1162 1.385 . S
C1162 H1148 0.931 . S
C1162 C1161 1.385 . S
C1162 C1163 1.389 . S
C1163 C1162 1.389 . S
C1163 C1164 1.387 . S
C1164 H1149 0.930 . S
C1164 C1159 1.390 . S
C1164 C1163 1.387 . S
H1165 C1177 0.930 . S
H1166 C1179 0.930 . S
H1167 C1180 0.930 . S
H1168 C1184 0.959 . S
H1169 C1184 0.959 . S
H1170 C1184 0.961 . S
H1171 C1185 0.960 . S
H1172 C1185 0.961 . S
H1173 C1185 0.959 . S
H1174 C1188 0.929 . S
H1175 C1189 0.931 . S
H1176 C1191 0.930 . S
C1177 H1165 0.930 . S
C1177 C1178 1.399 . S
C1177 C1182 1.399 . S
C1178 C1177 1.399 . S
C1178 C1179 1.376 . S
C1179 H1166 0.930 . S
C1179 C1178 1.376 . S
C1179 C1180 1.388 . S
C1180 H1167 0.930 . S
C1180 C1179 1.388 . S
C1180 C1181 1.390 . S
C1181 C1180 1.390 . S
C1181 C1182 1.394 . S
C1181 C1187 1.465 . S
C1182 C1177 1.399 . S
C1182 C1181 1.394 . S
C1182 C1183 1.516 . S
C1183 C1182 1.516 . S
C1183 C1184 1.502 . S
C1183 C1185 1.561 . S
C1183 C1186 1.526 . S
C1184 H1168 0.959 . S
C1184 H1169 0.959 . S
C1184 H1170 0.961 . S
C1184 C1183 1.502 . S
C1185 H1171 0.960 . S
C1185 H1172 0.961 . S
C1185 H1173 0.959 . S
C1185 C1183 1.561 . S
C1186 C1183 1.526 . S
C1186 C1187 1.396 . S
C1186 C1191 1.390 . S
C1187 C1181 1.465 . S
C1187 C1186 1.396 . S
C1187 C1188 1.399 . S
C1188 H1174 0.929 . S
C1188 C1187 1.399 . S
C1188 C1189 1.385 . S
C1189 H1175 0.931 . S
C1189 C1188 1.385 . S
C1189 C1190 1.389 . S
C1190 C1189 1.389 . S
C1190 C1191 1.387 . S
C1191 H1176 0.930 . S
C1191 C1186 1.390 . S
C1191 C1190 1.387 . S
H1192 C1204 0.930 . S
H1193 C1206 0.930 . S
H1194 C1207 0.930 . S
H1195 C1211 0.959 . S
H1196 C1211 0.959 . S
H1197 C1211 0.961 . S
H1198 C1212 0.960 . S
H1199 C1212 0.961 . S
H1200 C1212 0.959 . S
H1201 C1215 0.929 . S
H1202 C1216 0.931 . S
H1203 C1218 0.930 . S
C1204 H1192 0.930 . S
C1204 C1205 1.399 . S
C1204 C1209 1.399 . S
C1205 C1204 1.399 . S
C1205 C1206 1.376 . S
C1206 H1193 0.930 . S
C1206 C1205 1.376 . S
C1206 C1207 1.388 . S
C1207 H1194 0.930 . S
C1207 C1206 1.388 . S
C1207 C1208 1.390 . S
C1208 C1207 1.390 . S
C1208 C1209 1.394 . S
C1208 C1214 1.465 . S
C1209 C1204 1.399 . S
C1209 C1208 1.394 . S
C1209 C1210 1.516 . S
C1210 C1209 1.516 . S
C1210 C1211 1.502 . S
C1210 C1212 1.561 . S
C1210 C1213 1.526 . S
C1211 H1195 0.959 . S
C1211 H1196 0.959 . S
C1211 H1197 0.961 . S
C1211 C1210 1.502 . S
C1212 H1198 0.960 . S
C1212 H1199 0.961 . S
C1212 H1200 0.959 . S
C1212 C1210 1.561 . S
C1213 C1210 1.526 . S
C1213 C1214 1.396 . S
C1213 C1218 1.390 . S
C1214 C1208 1.465 . S
C1214 C1213 1.396 . S
C1214 C1215 1.399 . S
C1215 H1201 0.929 . S
C1215 C1214 1.399 . S
C1215 C1216 1.385 . S
C1216 H1202 0.931 . S
C1216 C1215 1.385 . S
C1216 C1217 1.389 . S
C1217 C1216 1.389 . S
C1217 C1218 1.387 . S
C1218 H1203 0.930 . S
C1218 C1213 1.390 . S
C1218 C1217 1.387 . S
H1219 C1231 0.930 . S
H1220 C1233 0.930 . S
H1221 C1234 0.930 . S
H1222 C1238 0.959 . S
H1223 C1238 0.959 . S
H1224 C1238 0.961 . S
H1225 C1239 0.960 . S
H1226 C1239 0.961 . S
H1227 C1239 0.959 . S
H1228 C1242 0.929 . S
H1229 C1243 0.931 . S
H1230 C1245 0.930 . S
C1231 H1219 0.930 . S
C1231 C1232 1.399 . S
C1231 C1236 1.399 . S
C1232 C1231 1.399 . S
C1232 C1233 1.376 . S
C1233 H1220 0.930 . S
C1233 C1232 1.376 . S
C1233 C1234 1.388 . S
C1234 H1221 0.930 . S
C1234 C1233 1.388 . S
C1234 C1235 1.390 . S
C1235 C1234 1.390 . S
C1235 C1236 1.394 . S
C1235 C1241 1.465 . S
C1236 C1231 1.399 . S
C1236 C1235 1.394 . S
C1236 C1237 1.516 . S
C1237 C1236 1.516 . S
C1237 C1238 1.502 . S
C1237 C1239 1.561 . S
C1237 C1240 1.526 . S
C1238 H1222 0.959 . S
C1238 H1223 0.959 . S
C1238 H1224 0.961 . S
C1238 C1237 1.502 . S
C1239 H1225 0.960 . S
C1239 H1226 0.961 . S
C1239 H1227 0.959 . S
C1239 C1237 1.561 . S
C1240 C1237 1.526 . S
C1240 C1241 1.396 . S
C1240 C1245 1.390 . S
C1241 C1235 1.465 . S
C1241 C1240 1.396 . S
C1241 C1242 1.399 . S
C1242 H1228 0.929 . S
C1242 C1241 1.399 . S
C1242 C1243 1.385 . S
C1243 H1229 0.931 . S
C1243 C1242 1.385 . S
C1243 C1244 1.389 . S
C1244 C1243 1.389 . S
C1244 C1245 1.387 . S
C1245 H1230 0.930 . S
C1245 C1240 1.390 . S
C1245 C1244 1.387 . S
H1246 C1258 0.930 . S
H1247 C1260 0.930 . S
H1248 C1261 0.930 . S
H1249 C1265 0.959 . S
H1250 C1265 0.959 . S
H1251 C1265 0.961 . S
H1252 C1266 0.960 . S
H1253 C1266 0.961 . S
H1254 C1266 0.959 . S
H1255 C1269 0.929 . S
H1256 C1270 0.931 . S
H1257 C1272 0.930 . S
C1258 H1246 0.930 . S
C1258 C1259 1.399 . S
C1258 C1263 1.399 . S
C1259 C1258 1.399 . S
C1259 C1260 1.376 . S
C1260 H1247 0.930 . S
C1260 C1259 1.376 . S
C1260 C1261 1.388 . S
C1261 H1248 0.930 . S
C1261 C1260 1.388 . S
C1261 C1262 1.390 . S
C1262 C1261 1.390 . S
C1262 C1263 1.394 . S
C1262 C1268 1.465 . S
C1263 C1258 1.399 . S
C1263 C1262 1.394 . S
C1263 C1264 1.516 . S
C1264 C1263 1.516 . S
C1264 C1265 1.502 . S
C1264 C1266 1.561 . S
C1264 C1267 1.526 . S
C1265 H1249 0.959 . S
C1265 H1250 0.959 . S
C1265 H1251 0.961 . S
C1265 C1264 1.502 . S
C1266 H1252 0.960 . S
C1266 H1253 0.961 . S
C1266 H1254 0.959 . S
C1266 C1264 1.561 . S
C1267 C1264 1.526 . S
C1267 C1268 1.396 . S
C1267 C1272 1.390 . S
C1268 C1262 1.465 . S
C1268 C1267 1.396 . S
C1268 C1269 1.399 . S
C1269 H1255 0.929 . S
C1269 C1268 1.399 . S
C1269 C1270 1.385 . S
C1270 H1256 0.931 . S
C1270 C1269 1.385 . S
C1270 C1271 1.389 . S
C1271 C1270 1.389 . S
C1271 C1272 1.387 . S
C1272 H1257 0.930 . S
C1272 C1267 1.390 . S
C1272 C1271 1.387 . S
H1273 C1285 0.930 . S
H1274 C1287 0.930 . S
H1275 C1288 0.930 . S
H1276 C1292 0.959 . S
H1277 C1292 0.959 . S
H1278 C1292 0.961 . S
H1279 C1293 0.960 . S
H1280 C1293 0.961 . S
H1281 C1293 0.959 . S
H1282 C1296 0.929 . S
H1283 C1297 0.931 . S
H1284 C1299 0.930 . S
C1285 H1273 0.930 . S
C1285 C1286 1.399 . S
C1285 C1290 1.399 . S
C1286 C1285 1.399 . S
C1286 C1287 1.376 . S
C1287 H1274 0.930 . S
C1287 C1286 1.376 . S
C1287 C1288 1.388 . S
C1288 H1275 0.930 . S
C1288 C1287 1.388 . S
C1288 C1289 1.390 . S
C1289 C1288 1.390 . S
C1289 C1290 1.394 . S
C1289 C1295 1.465 . S
C1290 C1285 1.399 . S
C1290 C1289 1.394 . S
C1290 C1291 1.516 . S
C1291 C1290 1.516 . S
C1291 C1292 1.502 . S
C1291 C1293 1.561 . S
C1291 C1294 1.526 . S
C1292 H1276 0.959 . S
C1292 H1277 0.959 . S
C1292 H1278 0.961 . S
C1292 C1291 1.502 . S
C1293 H1279 0.960 . S
C1293 H1280 0.961 . S
C1293 H1281 0.959 . S
C1293 C1291 1.561 . S
C1294 C1291 1.526 . S
C1294 C1295 1.396 . S
C1294 C1299 1.390 . S
C1295 C1289 1.465 . S
C1295 C1294 1.396 . S
C1295 C1296 1.399 . S
C1296 H1282 0.929 . S
C1296 C1295 1.399 . S
C1296 C1297 1.385 . S
C1297 H1283 0.931 . S
C1297 C1296 1.385 . S
C1297 C1298 1.389 . S
C1298 C1297 1.389 . S
C1298 C1299 1.387 . S
C1299 H1284 0.930 . S
C1299 C1294 1.390 . S
C1299 C1298 1.387 . S
H1300 C1312 0.930 . S
H1301 C1314 0.930 . S
H1302 C1315 0.930 . S
H1303 C1319 0.959 . S
H1304 C1319 0.959 . S
H1305 C1319 0.961 . S
H1306 C1320 0.960 . S
H1307 C1320 0.961 . S
H1308 C1320 0.959 . S
H1309 C1323 0.929 . S
H1310 C1324 0.931 . S
H1311 C1326 0.930 . S
C1312 H1300 0.930 . S
C1312 C1313 1.399 . S
C1312 C1317 1.399 . S
C1313 C1312 1.399 . S
C1313 C1314 1.376 . S
C1314 H1301 0.930 . S
C1314 C1313 1.376 . S
C1314 C1315 1.388 . S
C1315 H1302 0.930 . S
C1315 C1314 1.388 . S
C1315 C1316 1.390 . S
C1316 C1315 1.390 . S
C1316 C1317 1.394 . S
C1316 C1322 1.465 . S
C1317 C1312 1.399 . S
C1317 C1316 1.394 . S
C1317 C1318 1.516 . S
C1318 C1317 1.516 . S
C1318 C1319 1.502 . S
C1318 C1320 1.561 . S
C1318 C1321 1.526 . S
C1319 H1303 0.959 . S
C1319 H1304 0.959 . S
C1319 H1305 0.961 . S
C1319 C1318 1.502 . S
C1320 H1306 0.960 . S
C1320 H1307 0.961 . S
C1320 H1308 0.959 . S
C1320 C1318 1.561 . S
C1321 C1318 1.526 . S
C1321 C1322 1.396 . S
C1321 C1326 1.390 . S
C1322 C1316 1.465 . S
C1322 C1321 1.396 . S
C1322 C1323 1.399 . S
C1323 H1309 0.929 . S
C1323 C1322 1.399 . S
C1323 C1324 1.385 . S
C1324 H1310 0.931 . S
C1324 C1323 1.385 . S
C1324 C1325 1.389 . S
C1325 C1324 1.389 . S
C1325 C1326 1.387 . S
C1326 H1311 0.930 . S
C1326 C1321 1.390 . S
C1326 C1325 1.387 . S
H1327 C1339 0.930 . S
H1328 C1341 0.930 . S
H1329 C1342 0.930 . S
H1330 C1346 0.959 . S
H1331 C1346 0.959 . S
H1332 C1346 0.961 . S
H1333 C1347 0.960 . S
H1334 C1347 0.961 . S
H1335 C1347 0.959 . S
H1336 C1350 0.929 . S
H1337 C1351 0.931 . S
H1338 C1353 0.930 . S
C1339 H1327 0.930 . S
C1339 C1340 1.399 . S
C1339 C1344 1.399 . S
C1340 C1339 1.399 . S
C1340 C1341 1.376 . S
C1341 H1328 0.930 . S
C1341 C1340 1.376 . S
C1341 C1342 1.388 . S
C1342 H1329 0.930 . S
C1342 C1341 1.388 . S
C1342 C1343 1.390 . S
C1343 C1342 1.390 . S
C1343 C1344 1.394 . S
C1343 C1349 1.465 . S
C1344 C1339 1.399 . S
C1344 C1343 1.394 . S
C1344 C1345 1.516 . S
C1345 C1344 1.516 . S
C1345 C1346 1.502 . S
C1345 C1347 1.561 . S
C1345 C1348 1.526 . S
C1346 H1330 0.959 . S
C1346 H1331 0.959 . S
C1346 H1332 0.961 . S
C1346 C1345 1.502 . S
C1347 H1333 0.960 . S
C1347 H1334 0.961 . S
C1347 H1335 0.959 . S
C1347 C1345 1.561 . S
C1348 C1345 1.526 . S
C1348 C1349 1.396 . S
C1348 C1353 1.390 . S
C1349 C1343 1.465 . S
C1349 C1348 1.396 . S
C1349 C1350 1.399 . S
C1350 H1336 0.929 . S
C1350 C1349 1.399 . S
C1350 C1351 1.385 . S
C1351 H1337 0.931 . S
C1351 C1350 1.385 . S
C1351 C1352 1.389 . S
C1352 C1351 1.389 . S
C1352 C1353 1.387 . S
C1353 H1338 0.930 . S
C1353 C1348 1.390 . S
C1353 C1352 1.387 . S
H1354 C1366 0.930 . S
H1355 C1368 0.930 . S
H1356 C1369 0.930 . S
H1357 C1373 0.959 . S
H1358 C1373 0.959 . S
H1359 C1373 0.961 . S
H1360 C1374 0.960 . S
H1361 C1374 0.961 . S
H1362 C1374 0.959 . S
H1363 C1377 0.929 . S
H1364 C1378 0.931 . S
H1365 C1380 0.930 . S
C1366 H1354 0.930 . S
C1366 C1367 1.399 . S
C1366 C1371 1.399 . S
C1367 C1366 1.399 . S
C1367 C1368 1.376 . S
C1368 H1355 0.930 . S
C1368 C1367 1.376 . S
C1368 C1369 1.388 . S
C1369 H1356 0.930 . S
C1369 C1368 1.388 . S
C1369 C1370 1.390 . S
C1370 C1369 1.390 . S
C1370 C1371 1.394 . S
C1370 C1376 1.465 . S
C1371 C1366 1.399 . S
C1371 C1370 1.394 . S
C1371 C1372 1.516 . S
C1372 C1371 1.516 . S
C1372 C1373 1.502 . S
C1372 C1374 1.561 . S
C1372 C1375 1.526 . S
C1373 H1357 0.959 . S
C1373 H1358 0.959 . S
C1373 H1359 0.961 . S
C1373 C1372 1.502 . S
C1374 H1360 0.960 . S
C1374 H1361 0.961 . S
C1374 H1362 0.959 . S
C1374 C1372 1.561 . S
C1375 C1372 1.526 . S
C1375 C1376 1.396 . S
C1375 C1380 1.390 . S
C1376 C1370 1.465 . S
C1376 C1375 1.396 . S
C1376 C1377 1.399 . S
C1377 H1363 0.929 . S
C1377 C1376 1.399 . S
C1377 C1378 1.385 . S
C1378 H1364 0.931 . S
C1378 C1377 1.385 . S
C1378 C1379 1.389 . S
C1379 C1378 1.389 . S
C1379 C1380 1.387 . S
C1380 H1365 0.930 . S
C1380 C1375 1.390 . S
C1380 C1379 1.387 . S
H1381 C1393 0.930 . S
H1382 C1395 0.930 . S
H1383 C1396 0.930 . S
H1384 C1400 0.959 . S
H1385 C1400 0.959 . S
H1386 C1400 0.961 . S
H1387 C1401 0.960 . S
H1388 C1401 0.961 . S
H1389 C1401 0.959 . S
H1390 C1404 0.929 . S
H1391 C1405 0.931 . S
H1392 C1407 0.930 . S
C1393 H1381 0.930 . S
C1393 C1394 1.399 . S
C1393 C1398 1.399 . S
C1394 C1393 1.399 . S
C1394 C1395 1.376 . S
C1395 H1382 0.930 . S
C1395 C1394 1.376 . S
C1395 C1396 1.388 . S
C1396 H1383 0.930 . S
C1396 C1395 1.388 . S
C1396 C1397 1.390 . S
C1397 C1396 1.390 . S
C1397 C1398 1.394 . S
C1397 C1403 1.465 . S
C1398 C1393 1.399 . S
C1398 C1397 1.394 . S
C1398 C1399 1.516 . S
C1399 C1398 1.516 . S
C1399 C1400 1.502 . S
C1399 C1401 1.561 . S
C1399 C1402 1.526 . S
C1400 H1384 0.959 . S
C1400 H1385 0.959 . S
C1400 H1386 0.961 . S
C1400 C1399 1.502 . S
C1401 H1387 0.960 . S
C1401 H1388 0.961 . S
C1401 H1389 0.959 . S
C1401 C1399 1.561 . S
C1402 C1399 1.526 . S
C1402 C1403 1.396 . S
C1402 C1407 1.390 . S
C1403 C1397 1.465 . S
C1403 C1402 1.396 . S
C1403 C1404 1.399 . S
C1404 H1390 0.929 . S
C1404 C1403 1.399 . S
C1404 C1405 1.385 . S
C1405 H1391 0.931 . S
C1405 C1404 1.385 . S
C1405 C1406 1.389 . S
C1406 C1405 1.389 . S
C1406 C1407 1.387 . S
C1407 H1392 0.930 . S
C1407 C1402 1.390 . S
C1407 C1406 1.387 . S
H1408 C1420 0.930 . S
H1409 C1422 0.930 . S
H1410 C1423 0.930 . S
H1411 C1427 0.959 . S
H1412 C1427 0.959 . S
H1413 C1427 0.961 . S
H1414 C1428 0.960 . S
H1415 C1428 0.961 . S
H1416 C1428 0.959 . S
H1417 C1431 0.929 . S
H1418 C1432 0.931 . S
H1419 C1434 0.930 . S
C1420 H1408 0.930 . S
C1420 C1421 1.399 . S
C1420 C1425 1.399 . S
C1421 C1420 1.399 . S
C1421 C1422 1.376 . S
C1422 H1409 0.930 . S
C1422 C1421 1.376 . S
C1422 C1423 1.388 . S
C1423 H1410 0.930 . S
C1423 C1422 1.388 . S
C1423 C1424 1.390 . S
C1424 C1423 1.390 . S
C1424 C1425 1.394 . S
C1424 C1430 1.465 . S
C1425 C1420 1.399 . S
C1425 C1424 1.394 . S
C1425 C1426 1.516 . S
C1426 C1425 1.516 . S
C1426 C1427 1.502 . S
C1426 C1428 1.561 . S
C1426 C1429 1.526 . S
C1427 H1411 0.959 . S
C1427 H1412 0.959 . S
C1427 H1413 0.961 . S
C1427 C1426 1.502 . S
C1428 H1414 0.960 . S
C1428 H1415 0.961 . S
C1428 H1416 0.959 . S
C1428 C1426 1.561 . S
C1429 C1426 1.526 . S
C1429 C1430 1.396 . S
C1429 C1434 1.390 . S
C1430 C1424 1.465 . S
C1430 C1429 1.396 . S
C1430 C1431 1.399 . S
C1431 H1417 0.929 . S
C1431 C1430 1.399 . S
C1431 C1432 1.385 . S
C1432 H1418 0.931 . S
C1432 C1431 1.385 . S
C1432 C1433 1.389 . S
C1433 C1432 1.389 . S
C1433 C1434 1.387 . S
C1434 H1419 0.930 . S
C1434 C1429 1.390 . S
C1434 C1433 1.387 . S
H1435 C1447 0.930 . S
H1436 C1449 0.930 . S
H1437 C1450 0.930 . S
H1438 C1454 0.959 . S
H1439 C1454 0.959 . S
H1440 C1454 0.961 . S
H1441 C1455 0.960 . S
H1442 C1455 0.961 . S
H1443 C1455 0.959 . S
H1444 C1458 0.929 . S
H1445 C1459 0.931 . S
H1446 C1461 0.930 . S
C1447 H1435 0.930 . S
C1447 C1448 1.399 . S
C1447 C1452 1.399 . S
C1448 C1447 1.399 . S
C1448 C1449 1.376 . S
C1449 H1436 0.930 . S
C1449 C1448 1.376 . S
C1449 C1450 1.388 . S
C1450 H1437 0.930 . S
C1450 C1449 1.388 . S
C1450 C1451 1.390 . S
C1451 C1450 1.390 . S
C1451 C1452 1.394 . S
C1451 C1457 1.465 . S
C1452 C1447 1.399 . S
C1452 C1451 1.394 . S
C1452 C1453 1.516 . S
C1453 C1452 1.516 . S
C1453 C1454 1.502 . S
C1453 C1455 1.561 . S
C1453 C1456 1.526 . S
C1454 H1438 0.959 . S
C1454 H1439 0.959 . S
C1454 H1440 0.961 . S
C1454 C1453 1.502 . S
C1455 H1441 0.960 . S
C1455 H1442 0.961 . S
C1455 H1443 0.959 . S
C1455 C1453 1.561 . S
C1456 C1453 1.526 . S
C1456 C1457 1.396 . S
C1456 C1461 1.390 . S
C1457 C1451 1.465 . S
C1457 C1456 1.396 . S
C1457 C1458 1.399 . S
C1458 H1444 0.929 . S
C1458 C1457 1.399 . S
C1458 C1459 1.385 . S
C1459 H1445 0.931 . S
C1459 C1458 1.385 . S
C1459 C1460 1.389 . S
C1460 C1459 1.389 . S
C1460 C1461 1.387 . S
C1461 H1446 0.930 . S
C1461 C1456 1.390 . S
C1461 C1460 1.387 . S
H1462 C1474 0.930 . S
H1463 C1476 0.930 . S
H1464 C1477 0.930 . S
H1465 C1481 0.959 . S
H1466 C1481 0.959 . S
H1467 C1481 0.961 . S
H1468 C1482 0.960 . S
H1469 C1482 0.961 . S
H1470 C1482 0.959 . S
H1471 C1485 0.929 . S
H1472 C1486 0.931 . S
H1473 C1488 0.930 . S
C1474 H1462 0.930 . S
C1474 C1475 1.399 . S
C1474 C1479 1.399 . S
C1475 C1474 1.399 . S
C1475 C1476 1.376 . S
C1476 H1463 0.930 . S
C1476 C1475 1.376 . S
C1476 C1477 1.388 . S
C1477 H1464 0.930 . S
C1477 C1476 1.388 . S
C1477 C1478 1.390 . S
C1478 C1477 1.390 . S
C1478 C1479 1.394 . S
C1478 C1484 1.465 . S
C1479 C1474 1.399 . S
C1479 C1478 1.394 . S
C1479 C1480 1.516 . S
C1480 C1479 1.516 . S
C1480 C1481 1.502 . S
C1480 C1482 1.561 . S
C1480 C1483 1.526 . S
C1481 H1465 0.959 . S
C1481 H1466 0.959 . S
C1481 H1467 0.961 . S
C1481 C1480 1.502 . S
C1482 H1468 0.960 . S
C1482 H1469 0.961 . S
C1482 H1470 0.959 . S
C1482 C1480 1.561 . S
C1483 C1480 1.526 . S
C1483 C1484 1.396 . S
C1483 C1488 1.390 . S
C1484 C1478 1.465 . S
C1484 C1483 1.396 . S
C1484 C1485 1.399 . S
C1485 H1471 0.929 . S
C1485 C1484 1.399 . S
C1485 C1486 1.385 . S
C1486 H1472 0.931 . S
C1486 C1485 1.385 . S
C1486 C1487 1.389 . S
C1487 C1486 1.389 . S
C1487 C1488 1.387 . S
C1488 H1473 0.930 . S
C1488 C1483 1.390 . S
C1488 C1487 1.387 . S
H1489 C1501 0.930 . S
H1490 C1503 0.930 . S
H1491 C1504 0.930 . S
H1492 C1508 0.959 . S
H1493 C1508 0.959 . S
H1494 C1508 0.961 . S
H1495 C1509 0.960 . S
H1496 C1509 0.961 . S
H1497 C1509 0.959 . S
H1498 C1512 0.929 . S
H1499 C1513 0.931 . S
H1500 C1515 0.930 . S
C1501 H1489 0.930 . S
C1501 C1502 1.399 . S
C1501 C1506 1.399 . S
C1502 C1501 1.399 . S
C1502 C1503 1.376 . S
C1503 H1490 0.930 . S
C1503 C1502 1.376 . S
C1503 C1504 1.388 . S
C1504 H1491 0.930 . S
C1504 C1503 1.388 . S
C1504 C1505 1.390 . S
C1505 C1504 1.390 . S
C1505 C1506 1.394 . S
C1505 C1511 1.465 . S
C1506 C1501 1.399 . S
C1506 C1505 1.394 . S
C1506 C1507 1.516 . S
C1507 C1506 1.516 . S
C1507 C1508 1.502 . S
C1507 C1509 1.561 . S
C1507 C1510 1.526 . S
C1508 H1492 0.959 . S
C1508 H1493 0.959 . S
C1508 H1494 0.961 . S
C1508 C1507 1.502 . S
C1509 H1495 0.960 . S
C1509 H1496 0.961 . S
C1509 H1497 0.959 . S
C1509 C1507 1.561 . S
C1510 C1507 1.526 . S
C1510 C1511 1.396 . S
C1510 C1515 1.390 . S
C1511 C1505 1.465 . S
C1511 C1510 1.396 . S
C1511 C1512 1.399 . S
C1512 H1498 0.929 . S
C1512 C1511 1.399 . S
C1512 C1513 1.385 . S
C1513 H1499 0.931 . S
C1513 C1512 1.385 . S
C1513 C1514 1.389 . S
C1514 C1513 1.389 . S
C1514 C1515 1.387 . S
C1515 H1500 0.930 . S
C1515 C1510 1.390 . S
C1515 C1514 1.387 . S
H1516 C1528 0.930 . S
H1517 C1530 0.930 . S
H1518 C1531 0.930 . S
H1519 C1535 0.959 . S
H1520 C1535 0.959 . S
H1521 C1535 0.961 . S
H1522 C1536 0.960 . S
H1523 C1536 0.961 . S
H1524 C1536 0.959 . S
H1525 C1539 0.929 . S
H1526 C1540 0.931 . S
H1527 C1542 0.930 . S
C1528 H1516 0.930 . S
C1528 C1529 1.399 . S
C1528 C1533 1.399 . S
C1529 C1528 1.399 . S
C1529 C1530 1.376 . S
C1530 H1517 0.930 . S
C1530 C1529 1.376 . S
C1530 C1531 1.388 . S
C1531 H1518 0.930 . S
C1531 C1530 1.388 . S
C1531 C1532 1.390 . S
C1532 C1531 1.390 . S
C1532 C1533 1.394 . S
C1532 C1538 1.465 . S
C1533 C1528 1.399 . S
C1533 C1532 1.394 . S
C1533 C1534 1.516 . S
C1534 C1533 1.516 . S
C1534 C1535 1.502 . S
C1534 C1536 1.561 . S
C1534 C1537 1.526 . S
C1535 H1519 0.959 . S
C1535 H1520 0.959 . S
C1535 H1521 0.961 . S
C1535 C1534 1.502 . S
C1536 H1522 0.960 . S
C1536 H1523 0.961 . S
C1536 H1524 0.959 . S
C1536 C1534 1.561 . S
C1537 C1534 1.526 . S
C1537 C1538 1.396 . S
C1537 C1542 1.390 . S
C1538 C1532 1.465 . S
C1538 C1537 1.396 . S
C1538 C1539 1.399 . S
C1539 H1525 0.929 . S
C1539 C1538 1.399 . S
C1539 C1540 1.385 . S
C1540 H1526 0.931 . S
C1540 C1539 1.385 . S
C1540 C1541 1.389 . S
C1541 C1540 1.389 . S
C1541 C1542 1.387 . S
C1542 H1527 0.930 . S
C1542 C1537 1.390 . S
C1542 C1541 1.387 . S
H1543 C1555 0.930 . S
H1544 C1557 0.930 . S
H1545 C1558 0.930 . S
H1546 C1562 0.959 . S
H1547 C1562 0.959 . S
H1548 C1562 0.961 . S
H1549 C1563 0.960 . S
H1550 C1563 0.961 . S
H1551 C1563 0.959 . S
H1552 C1566 0.929 . S
H1553 C1567 0.931 . S
H1554 C1569 0.930 . S
C1555 H1543 0.930 . S
C1555 C1556 1.399 . S
C1555 C1560 1.399 . S
C1556 C1555 1.399 . S
C1556 C1557 1.376 . S
C1557 H1544 0.930 . S
C1557 C1556 1.376 . S
C1557 C1558 1.388 . S
C1558 H1545 0.930 . S
C1558 C1557 1.388 . S
C1558 C1559 1.390 . S
C1559 C1558 1.390 . S
C1559 C1560 1.394 . S
C1559 C1565 1.465 . S
C1560 C1555 1.399 . S
C1560 C1559 1.394 . S
C1560 C1561 1.516 . S
C1561 C1560 1.516 . S
C1561 C1562 1.502 . S
C1561 C1563 1.561 . S
C1561 C1564 1.526 . S
C1562 H1546 0.959 . S
C1562 H1547 0.959 . S
C1562 H1548 0.961 . S
C1562 C1561 1.502 . S
C1563 H1549 0.960 . S
C1563 H1550 0.961 . S
C1563 H1551 0.959 . S
C1563 C1561 1.561 . S
C1564 C1561 1.526 . S
C1564 C1565 1.396 . S
C1564 C1569 1.390 . S
C1565 C1559 1.465 . S
C1565 C1564 1.396 . S
C1565 C1566 1.399 . S
C1566 H1552 0.929 . S
C1566 C1565 1.399 . S
C1566 C1567 1.385 . S
C1567 H1553 0.931 . S
C1567 C1566 1.385 . S
C1567 C1568 1.389 . S
C1568 C1567 1.389 . S
C1568 C1569 1.387 . S
C1569 H1554 0.930 . S
C1569 C1564 1.390 . S
C1569 C1568 1.387 . S
H1570 C1582 0.930 . S
H1571 C1584 0.930 . S
H1572 C1585 0.930 . S
H1573 C1589 0.959 . S
H1574 C1589 0.959 . S
H1575 C1589 0.961 . S
H1576 C1590 0.960 . S
H1577 C1590 0.961 . S
H1578 C1590 0.959 . S
H1579 C1593 0.929 . S
H1580 C1594 0.931 . S
H1581 C1596 0.930 . S
C1582 H1570 0.930 . S
C1582 C1583 1.399 . S
C1582 C1587 1.399 . S
C1583 C1582 1.399 . S
C1583 C1584 1.376 . S
C1584 H1571 0.930 . S
C1584 C1583 1.376 . S
C1584 C1585 1.388 . S
C1585 H1572 0.930 . S
C1585 C1584 1.388 . S
C1585 C1586 1.390 . S
C1586 C1585 1.390 . S
C1586 C1587 1.394 . S
C1586 C1592 1.465 . S
C1587 C1582 1.399 . S
C1587 C1586 1.394 . S
C1587 C1588 1.516 . S
C1588 C1587 1.516 . S
C1588 C1589 1.502 . S
C1588 C1590 1.561 . S
C1588 C1591 1.526 . S
C1589 H1573 0.959 . S
C1589 H1574 0.959 . S
C1589 H1575 0.961 . S
C1589 C1588 1.502 . S
C1590 H1576 0.960 . S
C1590 H1577 0.961 . S
C1590 H1578 0.959 . S
C1590 C1588 1.561 . S
C1591 C1588 1.526 . S
C1591 C1592 1.396 . S
C1591 C1596 1.390 . S
C1592 C1586 1.465 . S
C1592 C1591 1.396 . S
C1592 C1593 1.399 . S
C1593 H1579 0.929 . S
C1593 C1592 1.399 . S
C1593 C1594 1.385 . S
C1594 H1580 0.931 . S
C1594 C1593 1.385 . S
C1594 C1595 1.389 . S
C1595 C1594 1.389 . S
C1595 C1596 1.387 . S
C1596 H1581 0.930 . S
C1596 C1591 1.390 . S
C1596 C1595 1.387 . S
H1597 C1609 0.930 . S
H1598 C1611 0.930 . S
H1599 C1612 0.930 . S
H1600 C1616 0.959 . S
H1601 C1616 0.959 . S
H1602 C1616 0.961 . S
H1603 C1617 0.960 . S
H1604 C1617 0.961 . S
H1605 C1617 0.959 . S
H1606 C1620 0.929 . S
H1607 C1621 0.931 . S
H1608 C1623 0.930 . S
C1609 H1597 0.930 . S
C1609 C1610 1.399 . S
C1609 C1614 1.399 . S
C1610 C1609 1.399 . S
C1610 C1611 1.376 . S
C1611 H1598 0.930 . S
C1611 C1610 1.376 . S
C1611 C1612 1.388 . S
C1612 H1599 0.930 . S
C1612 C1611 1.388 . S
C1612 C1613 1.390 . S
C1613 C1612 1.390 . S
C1613 C1614 1.394 . S
C1613 C1619 1.465 . S
C1614 C1609 1.399 . S
C1614 C1613 1.394 . S
C1614 C1615 1.516 . S
C1615 C1614 1.516 . S
C1615 C1616 1.502 . S
C1615 C1617 1.561 . S
C1615 C1618 1.526 . S
C1616 H1600 0.959 . S
C1616 H1601 0.959 . S
C1616 H1602 0.961 . S
C1616 C1615 1.502 . S
C1617 H1603 0.960 . S
C1617 H1604 0.961 . S
C1617 H1605 0.959 . S
C1617 C1615 1.561 . S
C1618 C1615 1.526 . S
C1618 C1619 1.396 . S
C1618 C1623 1.390 . S
C1619 C1613 1.465 . S
C1619 C1618 1.396 . S
C1619 C1620 1.399 . S
C1620 H1606 0.929 . S
C1620 C1619 1.399 . S
C1620 C1621 1.385 . S
C1621 H1607 0.931 . S
C1621 C1620 1.385 . S
C1621 C1622 1.389 . S
C1622 C1621 1.389 . S
C1622 C1623 1.387 . S
C1623 H1608 0.930 . S
C1623 C1618 1.390 . S
C1623 C1622 1.387 . S
C557 C33 1.728 . S
C569 C101 1.741 . S
C584 C135 1.727 . S
C596 C67 1.742 . S
C611 C237 1.723 . S
C623 C169 1.746 . S
C638 C203 1.726 . S
C650 C271 1.744 . S
C665 C373 1.775 . S
C677 C305 1.765 . S
C692 C339 1.781 . S
C704 C407 1.762 . S
C719 C509 1.773 . S
C731 C441 1.773 . S
C746 C475 1.775 . S
C758 C543 1.765 . S
C773 C5 1.505 . S
C785 C342 1.533 . S
C800 C376 1.526 . S
C812 C39 1.505 . S
C827 C274 1.533 . S
C839 C73 1.495 . S
C854 C308 1.525 . S
C866 C107 1.508 . S
C881 C478 1.535 . S
C893 C141 1.494 . S
C908 C512 1.518 . S
C920 C175 1.522 . S
C935 C410 1.534 . S
C947 C209 1.494 . S
C962 C444 1.519 . S
C974 C243 1.519 . S
C989 C9 1.403 . S
C1001 C247 1.375 . S
C1016 C43 1.390 . S
C1028 C145 1.418 . S
C1043 C179 1.428 . S
C1055 C77 1.403 . S
C1070 C213 1.415 . S
C1082 C111 1.386 . S
C1097 C292 2.092 . S
C1109 C530 2.095 . S
C1124 C326 2.078 . S
C1136 C428 2.074 . S
C1151 C360 2.094 . S
C1163 C462 2.094 . S
C1178 C394 2.095 . S
C1190 C496 2.089 . S
C1205 C481 1.011 . S
C1217 C20 1.021 . S
C1232 C54 1.003 . S
C1244 C515 1.026 . S
C1259 C413 1.037 . S
C1271 C88 0.987 . S
C1286 C447 0.959 . S
C1298 C122 1.038 . S
C1313 C345 1.038 . S
C1325 C156 0.986 . S
C1340 C190 0.999 . S
C1352 C379 1.029 . S
C1367 C277 1.032 . S
C1379 C224 0.997 . S
C1394 C258 1.000 . S
C1406 C311 1.028 . S
C1421 C206 0.953 . S
C1433 C281 0.848 . S
C1448 C240 0.947 . S
C1460 C315 0.920 . S
C1475 C138 0.958 . S
C1487 C349 0.849 . S
C1502 C383 0.944 . S
C1514 C172 0.929 . S
C1529 C70 0.887 1_455 S
C1541 C417 0.971 . S
C1556 C451 0.848 . S
C1568 C104 0.945 1_545 S
C1583 C485 0.903 . S
C1595 C2 0.956 1_655 S
C1610 C36 0.951 1_565 S
C1622 C519 0.913 . S
