# Generated by pormake.
# Topology zni, (4)-cn, num edge types: 1
# Building blocks:
#     Node 0, Type 0, BuildingBlock: NAHDIM_clean_sbu_0, # of connection points: 4
#     Node 1, Type 0, BuildingBlock: NAHDIM_clean_sbu_0, # of connection points: 4
#     Node 2, Type 0, BuildingBlock: NAHDIM_clean_sbu_0, # of connection points: 4
#     Node 3, Type 0, BuildingBlock: NAHDIM_clean_sbu_0, # of connection points: 4
#     Node 4, Type 0, BuildingBlock: NAHDIM_clean_sbu_0, # of connection points: 4
#     Node 5, Type 0, BuildingBlock: NAHDIM_clean_sbu_0, # of connection points: 4
#     Node 6, Type 0, BuildingBlock: NAHDIM_clean_sbu_0, # of connection points: 4
#     Node 7, Type 0, BuildingBlock: NAHDIM_clean_sbu_0, # of connection points: 4
#     Node 8, Type 0, BuildingBlock: NAHDIM_clean_sbu_0, # of connection points: 4
#     Node 9, Type 0, BuildingBlock: NAHDIM_clean_sbu_0, # of connection points: 4
#     Node 10, Type 0, BuildingBlock: NAHDIM_clean_sbu_0, # of connection points: 4
#     Node 11, Type 0, BuildingBlock: NAHDIM_clean_sbu_0, # of connection points: 4
#     Node 12, Type 0, BuildingBlock: NAHDIM_clean_sbu_0, # of connection points: 4
#     Node 13, Type 0, BuildingBlock: NAHDIM_clean_sbu_0, # of connection points: 4
#     Node 14, Type 0, BuildingBlock: NAHDIM_clean_sbu_0, # of connection points: 4
#     Node 15, Type 0, BuildingBlock: NAHDIM_clean_sbu_0, # of connection points: 4
#     Node 16, Type 0, BuildingBlock: NAHDIM_clean_sbu_0, # of connection points: 4
#     Node 17, Type 0, BuildingBlock: NAHDIM_clean_sbu_0, # of connection points: 4
#     Node 18, Type 0, BuildingBlock: NAHDIM_clean_sbu_0, # of connection points: 4
#     Node 19, Type 0, BuildingBlock: NAHDIM_clean_sbu_0, # of connection points: 4
#     Node 20, Type 0, BuildingBlock: NAHDIM_clean_sbu_0, # of connection points: 4
#     Node 21, Type 0, BuildingBlock: NAHDIM_clean_sbu_0, # of connection points: 4
#     Node 22, Type 0, BuildingBlock: NAHDIM_clean_sbu_0, # of connection points: 4
#     Node 23, Type 0, BuildingBlock: NAHDIM_clean_sbu_0, # of connection points: 4
#     Node 24, Type 0, BuildingBlock: NAHDIM_clean_sbu_0, # of connection points: 4
#     Node 25, Type 0, BuildingBlock: NAHDIM_clean_sbu_0, # of connection points: 4
#     Node 26, Type 0, BuildingBlock: NAHDIM_clean_sbu_0, # of connection points: 4
#     Node 27, Type 0, BuildingBlock: NAHDIM_clean_sbu_0, # of connection points: 4
#     Node 28, Type 0, BuildingBlock: NAHDIM_clean_sbu_0, # of connection points: 4
#     Node 29, Type 0, BuildingBlock: NAHDIM_clean_sbu_0, # of connection points: 4
#     Node 30, Type 0, BuildingBlock: NAHDIM_clean_sbu_0, # of connection points: 4
#     Node 31, Type 0, BuildingBlock: NAHDIM_clean_sbu_0, # of connection points: 4
#     Edge 32, Type (0, 0), BuildingBlock: TEMPAE_clean_linker_10, # of connection points: 2
#     Edge 33, Type (0, 0), BuildingBlock: TEMPAE_clean_linker_10, # of connection points: 2
#     Edge 34, Type (0, 0), BuildingBlock: TEMPAE_clean_linker_10, # of connection points: 2
#     Edge 35, Type (0, 0), BuildingBlock: TEMPAE_clean_linker_10, # of connection points: 2
#     Edge 36, Type (0, 0), BuildingBlock: TEMPAE_clean_linker_10, # of connection points: 2
#     Edge 37, Type (0, 0), BuildingBlock: TEMPAE_clean_linker_10, # of connection points: 2
#     Edge 38, Type (0, 0), BuildingBlock: TEMPAE_clean_linker_10, # of connection points: 2
#     Edge 39, Type (0, 0), BuildingBlock: TEMPAE_clean_linker_10, # of connection points: 2
#     Edge 40, Type (0, 0), BuildingBlock: TEMPAE_clean_linker_10, # of connection points: 2
#     Edge 41, Type (0, 0), BuildingBlock: TEMPAE_clean_linker_10, # of connection points: 2
#     Edge 42, Type (0, 0), BuildingBlock: TEMPAE_clean_linker_10, # of connection points: 2
#     Edge 43, Type (0, 0), BuildingBlock: TEMPAE_clean_linker_10, # of connection points: 2
#     Edge 44, Type (0, 0), BuildingBlock: TEMPAE_clean_linker_10, # of connection points: 2
#     Edge 45, Type (0, 0), BuildingBlock: TEMPAE_clean_linker_10, # of connection points: 2
#     Edge 46, Type (0, 0), BuildingBlock: TEMPAE_clean_linker_10, # of connection points: 2
#     Edge 47, Type (0, 0), BuildingBlock: TEMPAE_clean_linker_10, # of connection points: 2
#     Edge 48, Type (0, 0), BuildingBlock: TEMPAE_clean_linker_10, # of connection points: 2
#     Edge 49, Type (0, 0), BuildingBlock: TEMPAE_clean_linker_10, # of connection points: 2
#     Edge 50, Type (0, 0), BuildingBlock: TEMPAE_clean_linker_10, # of connection points: 2
#     Edge 51, Type (0, 0), BuildingBlock: TEMPAE_clean_linker_10, # of connection points: 2
#     Edge 52, Type (0, 0), BuildingBlock: TEMPAE_clean_linker_10, # of connection points: 2
#     Edge 53, Type (0, 0), BuildingBlock: TEMPAE_clean_linker_10, # of connection points: 2
#     Edge 54, Type (0, 0), BuildingBlock: TEMPAE_clean_linker_10, # of connection points: 2
#     Edge 55, Type (0, 0), BuildingBlock: TEMPAE_clean_linker_10, # of connection points: 2
#     Edge 56, Type (0, 0), BuildingBlock: TEMPAE_clean_linker_10, # of connection points: 2
#     Edge 57, Type (0, 0), BuildingBlock: TEMPAE_clean_linker_10, # of connection points: 2
#     Edge 58, Type (0, 0), BuildingBlock: TEMPAE_clean_linker_10, # of connection points: 2
#     Edge 59, Type (0, 0), BuildingBlock: TEMPAE_clean_linker_10, # of connection points: 2
#     Edge 60, Type (0, 0), BuildingBlock: TEMPAE_clean_linker_10, # of connection points: 2
#     Edge 61, Type (0, 0), BuildingBlock: TEMPAE_clean_linker_10, # of connection points: 2
#     Edge 62, Type (0, 0), BuildingBlock: TEMPAE_clean_linker_10, # of connection points: 2
#     Edge 63, Type (0, 0), BuildingBlock: TEMPAE_clean_linker_10, # of connection points: 2
#     Edge 64, Type (0, 0), BuildingBlock: TEMPAE_clean_linker_10, # of connection points: 2
#     Edge 65, Type (0, 0), BuildingBlock: TEMPAE_clean_linker_10, # of connection points: 2
#     Edge 66, Type (0, 0), BuildingBlock: TEMPAE_clean_linker_10, # of connection points: 2
#     Edge 67, Type (0, 0), BuildingBlock: TEMPAE_clean_linker_10, # of connection points: 2
#     Edge 68, Type (0, 0), BuildingBlock: TEMPAE_clean_linker_10, # of connection points: 2
#     Edge 69, Type (0, 0), BuildingBlock: TEMPAE_clean_linker_10, # of connection points: 2
#     Edge 70, Type (0, 0), BuildingBlock: TEMPAE_clean_linker_10, # of connection points: 2
#     Edge 71, Type (0, 0), BuildingBlock: TEMPAE_clean_linker_10, # of connection points: 2
#     Edge 72, Type (0, 0), BuildingBlock: TEMPAE_clean_linker_10, # of connection points: 2
#     Edge 73, Type (0, 0), BuildingBlock: TEMPAE_clean_linker_10, # of connection points: 2
#     Edge 74, Type (0, 0), BuildingBlock: TEMPAE_clean_linker_10, # of connection points: 2
#     Edge 75, Type (0, 0), BuildingBlock: TEMPAE_clean_linker_10, # of connection points: 2
#     Edge 76, Type (0, 0), BuildingBlock: TEMPAE_clean_linker_10, # of connection points: 2
#     Edge 77, Type (0, 0), BuildingBlock: TEMPAE_clean_linker_10, # of connection points: 2
#     Edge 78, Type (0, 0), BuildingBlock: TEMPAE_clean_linker_10, # of connection points: 2
#     Edge 79, Type (0, 0), BuildingBlock: TEMPAE_clean_linker_10, # of connection points: 2
#     Edge 80, Type (0, 0), BuildingBlock: TEMPAE_clean_linker_10, # of connection points: 2
#     Edge 81, Type (0, 0), BuildingBlock: TEMPAE_clean_linker_10, # of connection points: 2
#     Edge 82, Type (0, 0), BuildingBlock: TEMPAE_clean_linker_10, # of connection points: 2
#     Edge 83, Type (0, 0), BuildingBlock: TEMPAE_clean_linker_10, # of connection points: 2
#     Edge 84, Type (0, 0), BuildingBlock: TEMPAE_clean_linker_10, # of connection points: 2
#     Edge 85, Type (0, 0), BuildingBlock: TEMPAE_clean_linker_10, # of connection points: 2
#     Edge 86, Type (0, 0), BuildingBlock: TEMPAE_clean_linker_10, # of connection points: 2
#     Edge 87, Type (0, 0), BuildingBlock: TEMPAE_clean_linker_10, # of connection points: 2
#     Edge 88, Type (0, 0), BuildingBlock: TEMPAE_clean_linker_10, # of connection points: 2
#     Edge 89, Type (0, 0), BuildingBlock: TEMPAE_clean_linker_10, # of connection points: 2
#     Edge 90, Type (0, 0), BuildingBlock: TEMPAE_clean_linker_10, # of connection points: 2
#     Edge 91, Type (0, 0), BuildingBlock: TEMPAE_clean_linker_10, # of connection points: 2
#     Edge 92, Type (0, 0), BuildingBlock: TEMPAE_clean_linker_10, # of connection points: 2
#     Edge 93, Type (0, 0), BuildingBlock: TEMPAE_clean_linker_10, # of connection points: 2
#     Edge 94, Type (0, 0), BuildingBlock: TEMPAE_clean_linker_10, # of connection points: 2
#     Edge 95, Type (0, 0), BuildingBlock: TEMPAE_clean_linker_10, # of connection points: 2
# Relax obj value: 0.185
# Max RMSD: 0.100
# Mean RMSD: 0.100
data_MOF--net-zni--node1-NAHDIM_clean_sbu_0--edge1-TEMPAE_clean_linker_10
_symmetry_space_group_name_H-M    P1
_symmetry_Int_Tables_number       1
_symmetry_cell_setting            triclinic
loop_
_symmetry_equiv_pos_as_xyz
'x, y, z'
_cell_length_a     55.217881
_cell_length_b     55.219195
_cell_length_c     32.003144
_cell_angle_alpha  90.010987
_cell_angle_beta   89.984669
_cell_angle_gamma 89.99499
loop_
_atom_site_label
_atom_site_type_symbol
_atom_site_fract_x
_atom_site_fract_y
_atom_site_fract_z
_atom_type_partial_charge
C0 C 0.16816 0.07039 0.35305 0.0
O1 O 0.18092 0.0728 0.38744 0.0
O2 O 0.14566 0.09794 0.45006 0.0
Zn3 Zn 0.13202 0.10261 0.39246 0.0
O4 O 0.09636 0.09491 0.39246 0.0
C5 C 0.15332 0.15028 0.38963 0.0
O6 O 0.17096 0.13952 0.41 0.0
O7 O 0.14811 0.08151 0.34947 0.0
C8 C 0.08291 0.09834 0.42418 0.0
O9 O 0.09264 0.10654 0.45887 0.0
C10 C 0.1468 0.0781 0.47005 0.0
O11 O 0.13935 0.05804 0.45208 0.0
O12 O 0.13527 0.13781 0.37765 0.0
C13 C 0.1738 0.92763 0.59383 0.0
O14 O 0.16877 0.94373 0.62278 0.0
O15 O 0.14833 0.90685 0.69685 0.0
Zn16 Zn 0.14251 0.89274 0.63975 0.0
O17 O 0.14793 0.85659 0.64017 0.0
C18 C 0.09214 0.89225 0.65258 0.0
O19 O 0.09998 0.88451 0.68898 0.0
O20 O 0.16451 0.9066 0.59594 0.0
C21 C 0.15645 0.84416 0.6702 0.0
O22 O 0.16265 0.85506 0.70508 0.0
C23 C 0.16847 0.91281 0.71308 0.0
O24 O 0.18849 0.91035 0.6913 0.0
O25 O 0.10754 0.89785 0.62468 0.0
C26 C 0.33088 0.9327 0.85357 0.0
O27 O 0.31959 0.93122 0.88961 0.0
O28 O 0.35035 0.89988 0.94534 0.0
Zn29 Zn 0.3634 0.89537 0.88736 0.0
O30 O 0.3994 0.90145 0.88984 0.0
C31 C 0.37023 0.84473 0.88879 0.0
O32 O 0.38588 0.85171 0.91728 0.0
O33 O 0.34889 0.91893 0.84647 0.0
C34 C 0.41342 0.89491 0.86045 0.0
O35 O 0.40416 0.88413 0.82751 0.0
C36 C 0.35766 0.91738 0.96783 0.0
O37 O 0.37243 0.93344 0.95145 0.0
O38 O 0.35764 0.86071 0.87016 0.0
C39 C 0.32859 0.0927 0.07126 0.0
O40 O 0.34842 0.10219 0.05554 0.0
O41 O 0.34468 0.10048 0.20748 0.0
Zn42 Zn 0.34822 0.11168 0.14805 0.0
O43 O 0.34037 0.14738 0.14673 0.0
C44 C 0.39543 0.08897 0.1408 0.0
O45 O 0.38496 0.07145 0.1619 0.0
O46 O 0.32505 0.09391 0.11044 0.0
C47 C 0.34944 0.16115 0.11901 0.0
O48 O 0.36367 0.15173 0.09041 0.0
C49 C 0.35897 0.1102 0.23368 0.0
O50 O 0.37477 0.12621 0.22025 0.0
O51 O 0.38298 0.10735 0.13031 0.0
C52 C 0.17606 0.93954 0.14035 0.0
O53 O 0.18945 0.93872 0.10645 0.0
O54 O 0.15767 0.91131 0.04159 0.0
Zn55 Zn 0.14323 0.90495 0.09819 0.0
O56 O 0.1071 0.91104 0.09601 0.0
C57 C 0.15149 0.85411 0.08507 0.0
O58 O 0.15197 0.86117 0.04588 0.0
O59 O 0.15696 0.92675 0.14256 0.0
C60 C 0.09259 0.89565 0.08029 0.0
O61 O 0.10136 0.87571 0.06383 0.0
C62 C 0.15683 0.93132 0.02205 0.0
O63 O 0.14685 0.95022 0.04011 0.0
O64 O 0.14862 0.86987 0.11365 0.0
C65 C 0.31025 0.91963 0.39304 0.0
O66 O 0.31047 0.9282 0.35475 0.0
O67 O 0.3415 0.89702 0.30305 0.0
Zn68 Zn 0.34595 0.88494 0.36175 0.0
O69 O 0.33823 0.84926 0.3625 0.0
C70 C 0.39325 0.90751 0.36867 0.0
O71 O 0.38244 0.92585 0.35033 0.0
O72 O 0.32409 0.90205 0.40242 0.0
C73 C 0.34607 0.83626 0.39234 0.0
O74 O 0.35848 0.84662 0.42246 0.0
C75 C 0.35579 0.88801 0.27611 0.0
O76 O 0.3719 0.87201 0.2884 0.0
O77 O 0.38098 0.88876 0.37765 0.0
C78 C 0.33133 0.07376 0.66017 0.0
O79 O 0.31931 0.07554 0.62489 0.0
O80 O 0.35231 0.10457 0.56582 0.0
Zn81 Zn 0.36479 0.10966 0.6241 0.0
O82 O 0.40079 0.10408 0.62341 0.0
C83 C 0.33986 0.15574 0.63671 0.0
O84 O 0.32067 0.14415 0.62294 0.0
O85 O 0.35007 0.08673 0.66578 0.0
C86 C 0.41398 0.1173 0.60021 0.0
O87 O 0.40363 0.13394 0.57692 0.0
C88 C 0.36003 0.08691 0.54413 0.0
O89 O 0.3747 0.07112 0.56153 0.0
O90 O 0.35974 0.14439 0.64056 0.0
C91 C 0.18105 0.08636 0.89363 0.0
O92 O 0.17316 0.0692 0.86867 0.0
O93 O 0.14716 0.10505 0.79694 0.0
Zn94 Zn 0.14484 0.11924 0.85472 0.0
O95 O 0.14802 0.15564 0.85242 0.0
C96 C 0.09998 0.09308 0.8693 0.0
O97 O 0.11008 0.07658 0.84537 0.0
O98 O 0.17133 0.10722 0.89237 0.0
C99 C 0.15325 0.16815 0.82029 0.0
O100 O 0.15697 0.15718 0.78444 0.0
C101 C 0.16678 0.10011 0.77797 0.0
O102 O 0.18756 0.1041 0.7967 0.0
O103 O 0.11184 0.11208 0.8784 0.0
C104 C 0.85362 0.93556 0.63079 0.0
O105 O 0.86674 0.94031 0.59752 0.0
O106 O 0.85119 0.89525 0.5395 0.0
Zn107 Zn 0.86223 0.88941 0.59863 0.0
O108 O 0.89849 0.89411 0.60114 0.0
C109 C 0.83805 0.84227 0.60115 0.0
O110 O 0.82229 0.85227 0.57571 0.0
O111 O 0.84767 0.91373 0.63797 0.0
C112 C 0.91318 0.87642 0.59889 0.0
O113 O 0.90462 0.8544 0.59407 0.0
C114 C 0.85887 0.88076 0.51166 0.0
O115 O 0.8729 0.8627 0.52294 0.0
O116 O 0.85517 0.85506 0.61583 0.0
C117 C 0.82252 0.08399 0.39722 0.0
O118 O 0.82561 0.07042 0.36392 0.0
O119 O 0.8524 0.101 0.3016 0.0
Zn120 Zn 0.85706 0.11702 0.35735 0.0
O121 O 0.84987 0.15259 0.35085 0.0
C122 C 0.9019 0.09392 0.38515 0.0
O123 O 0.88892 0.07398 0.38579 0.0
O124 O 0.83441 0.10359 0.40077 0.0
C125 C 0.85604 0.16704 0.37986 0.0
O126 O 0.86675 0.15824 0.41324 0.0
C127 C 0.83294 0.10407 0.28108 0.0
O128 O 0.81542 0.11695 0.29776 0.0
O129 O 0.89189 0.11374 0.37473 0.0
C130 C 0.63261 0.05488 0.13593 0.0
O131 O 0.61909 0.04887 0.10377 0.0
O132 O 0.63995 0.09345 0.04007 0.0
Zn133 Zn 0.62591 0.09979 0.09695 0.0
O134 O 0.58982 0.09477 0.09437 0.0
C135 C 0.65029 0.14645 0.102 0.0
O136 O 0.66771 0.13528 0.08171 0.0
O137 O 0.63928 0.07679 0.13973 0.0
C138 C 0.57731 0.10065 0.12612 0.0
O139 O 0.58841 0.10968 0.15894 0.0
C140 C 0.63331 0.10792 0.01143 0.0
O141 O 0.61818 0.12546 0.02089 0.0
O142 O 0.63159 0.13461 0.11284 0.0
C143 C 0.67758 0.92385 0.911 0.0
O144 O 0.67433 0.9368 0.87703 0.0
O145 O 0.64888 0.904 0.81617 0.0
Zn146 Zn 0.64271 0.89036 0.87329 0.0
O147 O 0.64875 0.85439 0.87083 0.0
C148 C 0.59501 0.91228 0.87215 0.0
O149 O 0.60577 0.92836 0.84824 0.0
O150 O 0.66547 0.90448 0.91595 0.0
C151 C 0.63255 0.84027 0.85662 0.0
O152 O 0.61205 0.84949 0.84314 0.0
C153 C 0.6681 0.8992 0.79598 0.0
O154 O 0.68488 0.88581 0.81371 0.0
O155 O 0.60755 0.89534 0.88813 0.0
C156 C 0.86447 0.05761 0.8599 0.0
O157 O 0.88138 0.05322 0.88776 0.0
O158 O 0.85977 0.10006 0.9554 0.0
Zn159 Zn 0.8702 0.10404 0.89556 0.0
O160 O 0.90662 0.1014 0.89186 0.0
C161 C 0.86655 0.15454 0.90317 0.0
O162 O 0.87615 0.14855 0.93929 0.0
O163 O 0.85556 0.07879 0.85775 0.0
C164 C 0.91988 0.09235 0.92035 0.0
O165 O 0.90972 0.08403 0.95458 0.0
C166 C 0.84666 0.08366 0.97168 0.0
O167 O 0.83795 0.06623 0.94816 0.0
O168 O 0.8615 0.13785 0.87722 0.0
C169 C 0.68133 0.08119 0.59146 0.0
O170 O 0.67972 0.06892 0.62651 0.0
O171 O 0.65044 0.0999 0.68587 0.0
Zn172 Zn 0.64522 0.11393 0.6286 0.0
O173 O 0.65103 0.15017 0.62988 0.0
C174 C 0.59496 0.11712 0.63879 0.0
O175 O 0.60298 0.12797 0.67261 0.0
O176 O 0.668 0.09971 0.58608 0.0
C177 C 0.65192 0.16292 0.66297 0.0
O178 O 0.64897 0.15246 0.69946 0.0
C179 C 0.66983 0.10223 0.70684 0.0
O180 O 0.68851 0.11315 0.68973 0.0
O181 O 0.61025 0.1086 0.61297 0.0
C182 C 0.62924 0.93978 0.37671 0.0
O183 O 0.61341 0.94474 0.40617 0.0
O184 O 0.63568 0.89747 0.47241 0.0
Zn185 Zn 0.62331 0.89397 0.41377 0.0
O186 O 0.58721 0.89892 0.41475 0.0
C187 C 0.64862 0.84843 0.40461 0.0
O188 O 0.66577 0.85985 0.42513 0.0
O189 O 0.63764 0.9184 0.37421 0.0
C190 C 0.57522 0.89581 0.3813 0.0
O191 O 0.58678 0.88935 0.34717 0.0
C192 C 0.65094 0.91268 0.48637 0.0
O193 O 0.66054 0.92871 0.46097 0.0
O194 O 0.62941 0.8598 0.39494 0.0
C195 C 0.82409 0.92706 0.09291 0.0
O196 O 0.82499 0.93671 0.1304 0.0
O197 O 0.85653 0.90477 0.18227 0.0
Zn198 Zn 0.86296 0.89514 0.12275 0.0
O199 O 0.85793 0.85892 0.11917 0.0
C200 C 0.91349 0.90418 0.13611 0.0
O201 O 0.90659 0.90103 0.17503 0.0
O202 O 0.83897 0.91038 0.08331 0.0
C203 C 0.87417 0.84364 0.12904 0.0
O204 O 0.89545 0.85142 0.14146 0.0
C205 C 0.83872 0.89583 0.20211 0.0
O206 O 0.82341 0.88176 0.18214 0.0
O207 O 0.89766 0.90316 0.10725 0.0
C208 C 0.66792 0.57311 0.84317 0.0
O209 O 0.67872 0.57435 0.87968 0.0
O210 O 0.64634 0.60186 0.93575 0.0
Zn211 Zn 0.63534 0.60981 0.87745 0.0
O212 O 0.59908 0.60526 0.87471 0.0
C213 C 0.64517 0.65983 0.89451 0.0
O214 O 0.64405 0.65169 0.93303 0.0
O215 O 0.65013 0.58705 0.83559 0.0
C216 C 0.58465 0.61953 0.89346 0.0
O217 O 0.59352 0.63774 0.91497 0.0
C218 C 0.63507 0.58655 0.9581 0.0
O219 O 0.61694 0.57442 0.94168 0.0
O220 O 0.64283 0.64494 0.86442 0.0
C221 C 0.68824 0.38411 0.11365 0.0
O222 O 0.69377 0.36913 0.14411 0.0
O223 O 0.65012 0.38785 0.21033 0.0
Zn224 Zn 0.64315 0.37655 0.1513 0.0
O225 O 0.64762 0.3404 0.14795 0.0
C226 C 0.5923 0.37785 0.16304 0.0
O227 O 0.59926 0.36798 0.19837 0.0
O228 O 0.66649 0.39142 0.11045 0.0
C229 C 0.64137 0.32857 0.11569 0.0
O230 O 0.63184 0.34024 0.08391 0.0
C231 C 0.64975 0.37241 0.23982 0.0
O232 O 0.64578 0.34953 0.23093 0.0
O233 O 0.60831 0.38392 0.13646 0.0
C234 C 0.83193 0.43334 0.33661 0.0
O235 O 0.82101 0.4318 0.37299 0.0
O236 O 0.85261 0.40005 0.42755 0.0
Zn237 Zn 0.86389 0.39507 0.36853 0.0
O238 O 0.90006 0.39933 0.3676 0.0
C239 C 0.83999 0.34836 0.36768 0.0
O240 O 0.82445 0.35933 0.39235 0.0
O241 O 0.84942 0.41914 0.32846 0.0
C242 C 0.91307 0.3865 0.39173 0.0
O243 O 0.90244 0.37114 0.41717 0.0
C244 C 0.85979 0.41783 0.44947 0.0
O245 O 0.87364 0.43437 0.43214 0.0
O246 O 0.85737 0.36047 0.35213 0.0
C247 C 0.81534 0.60364 0.606 0.0
O248 O 0.81074 0.61662 0.6395 0.0
O249 O 0.8565 0.59995 0.69656 0.0
Zn250 Zn 0.86117 0.61252 0.63819 0.0
O251 O 0.85438 0.64831 0.63953 0.0
C252 C 0.90962 0.59194 0.63605 0.0
O253 O 0.9003 0.57614 0.6622 0.0
O254 O 0.83717 0.59778 0.59838 0.0
C255 C 0.85989 0.66143 0.60835 0.0
O256 O 0.87026 0.65132 0.57578 0.0
C257 C 0.8691 0.61043 0.72442 0.0
O258 O 0.88405 0.62774 0.71303 0.0
O259 O 0.89598 0.6081 0.62036 0.0
C260 C 0.66659 0.42779 0.65913 0.0
O261 O 0.67785 0.4257 0.62315 0.0
O262 O 0.64636 0.39573 0.56777 0.0
Zn263 Zn 0.63382 0.39079 0.62613 0.0
O264 O 0.59774 0.39585 0.62627 0.0
C265 C 0.65894 0.34466 0.63763 0.0
O266 O 0.67782 0.35602 0.62213 0.0
O267 O 0.64845 0.41432 0.66676 0.0
C268 C 0.58433 0.38221 0.60417 0.0
O269 O 0.59449 0.36541 0.58095 0.0
C270 C 0.63623 0.41088 0.54355 0.0
O271 O 0.61836 0.42423 0.55787 0.0
O272 O 0.63929 0.35621 0.64306 0.0
C273 C 0.80703 0.38893 0.87813 0.0
O274 O 0.80257 0.37422 0.84677 0.0
O275 O 0.84834 0.39523 0.7848 0.0
Zn276 Zn 0.85344 0.3832 0.84368 0.0
O277 O 0.84992 0.34673 0.84451 0.0
C278 C 0.89925 0.40959 0.85168 0.0
O279 O 0.88846 0.42645 0.82949 0.0
O280 O 0.82848 0.39678 0.88303 0.0
C281 C 0.8682 0.33289 0.84068 0.0
O282 O 0.88971 0.34254 0.8352 0.0
C283 C 0.86458 0.39 0.75812 0.0
O284 O 0.88357 0.37756 0.77035 0.0
O285 O 0.88736 0.39093 0.86254 0.0
C286 C 0.82975 0.57717 0.14785 0.0
O287 O 0.81881 0.57761 0.11141 0.0
O288 O 0.85113 0.60545 0.05361 0.0
Zn289 Zn 0.86169 0.61407 0.11181 0.0
O290 O 0.89793 0.60974 0.11449 0.0
C291 C 0.8515 0.66389 0.09316 0.0
O292 O 0.85173 0.65522 0.05494 0.0
O293 O 0.84724 0.59162 0.15462 0.0
C294 C 0.9122 0.6244 0.09628 0.0
O295 O 0.90315 0.64272 0.07532 0.0
C296 C 0.86104 0.58813 0.03386 0.0
O297 O 0.8769 0.57442 0.05329 0.0
O298 O 0.85431 0.64938 0.12367 0.0
C299 C 0.68898 0.60997 0.38331 0.0
O300 O 0.69332 0.62481 0.3521 0.0
O301 O 0.64633 0.60707 0.29327 0.0
Zn302 Zn 0.64248 0.61882 0.35262 0.0
O303 O 0.64839 0.65484 0.35467 0.0
C304 C 0.59194 0.62692 0.35956 0.0
O305 O 0.59827 0.64498 0.33522 0.0
O306 O 0.6673 0.60326 0.38993 0.0
C307 C 0.64485 0.66643 0.3884 0.0
O308 O 0.63763 0.65455 0.42172 0.0
C309 C 0.64155 0.62164 0.26366 0.0
O310 O 0.63481 0.64384 0.2727 0.0
O311 O 0.60821 0.61233 0.37218 0.0
C312 C 0.35624 0.43468 0.15243 0.0
O313 O 0.37039 0.43932 0.12038 0.0
O314 O 0.3504 0.39585 0.05855 0.0
Zn315 Zn 0.36221 0.38873 0.11695 0.0
O316 O 0.3987 0.39197 0.11777 0.0
C317 C 0.33555 0.34289 0.1197 0.0
O318 O 0.31954 0.35432 0.0966 0.0
O319 O 0.34888 0.41309 0.15779 0.0
C320 C 0.41254 0.3739 0.11164 0.0
O321 O 0.40288 0.3526 0.10414 0.0
C322 C 0.35502 0.3805 0.03004 0.0
O323 O 0.36683 0.36067 0.0399 0.0
O324 O 0.35393 0.35437 0.13309 0.0
C325 C 0.31775 0.58396 0.90752 0.0
O326 O 0.3181 0.57221 0.87183 0.0
O327 O 0.34556 0.60246 0.81172 0.0
Zn328 Zn 0.35434 0.61509 0.86871 0.0
O329 O 0.35096 0.65154 0.86952 0.0
C330 C 0.40434 0.60856 0.85056 0.0
O331 O 0.39604 0.61296 0.81287 0.0
O332 O 0.33204 0.60175 0.91287 0.0
C333 C 0.35759 0.66493 0.83928 0.0
O334 O 0.36636 0.65483 0.80533 0.0
C335 C 0.32717 0.61002 0.79177 0.0
O336 O 0.31266 0.6258 0.80961 0.0
O337 O 0.38945 0.60745 0.88085 0.0
C338 C 0.16504 0.57358 0.63799 0.0
O339 O 0.16903 0.57004 0.59803 0.0
O340 O 0.15428 0.61499 0.55185 0.0
Zn341 Zn 0.14025 0.61738 0.60984 0.0
O342 O 0.10437 0.61068 0.60593 0.0
C343 C 0.1638 0.66368 0.625 0.0
O344 O 0.18206 0.65358 0.60525 0.0
O345 O 0.15447 0.59287 0.64981 0.0
C346 C 0.08984 0.6195 0.63273 0.0
O347 O 0.09851 0.6331 0.66291 0.0
C348 C 0.14717 0.59856 0.52689 0.0
O349 O 0.13127 0.58254 0.5399 0.0
O350 O 0.14466 0.65141 0.63119 0.0
C351 C 0.18435 0.40999 0.38468 0.0
O352 O 0.18446 0.42026 0.34766 0.0
O353 O 0.14902 0.3927 0.29397 0.0
Zn354 Zn 0.14372 0.38111 0.35267 0.0
O355 O 0.14772 0.34494 0.35217 0.0
C356 C 0.09343 0.37808 0.34678 0.0
O357 O 0.1007 0.36429 0.31574 0.0
O358 O 0.16823 0.3943 0.39316 0.0
C359 C 0.14132 0.33237 0.38351 0.0
O360 O 0.13205 0.34336 0.41623 0.0
C361 C 0.16604 0.38386 0.27201 0.0
O362 O 0.18135 0.36871 0.28948 0.0
O363 O 0.1093 0.38849 0.36927 0.0
C364 C 0.35691 0.56156 0.37527 0.0
O365 O 0.37271 0.55834 0.40548 0.0
O366 O 0.35489 0.60555 0.46528 0.0
Zn367 Zn 0.36358 0.6089 0.40457 0.0
O368 O 0.39977 0.60586 0.39923 0.0
C369 C 0.33733 0.65438 0.40141 0.0
O370 O 0.32298 0.64353 0.42828 0.0
O371 O 0.34866 0.58275 0.369 0.0
C372 C 0.4139 0.61593 0.42533 0.0
O373 O 0.40457 0.62829 0.45651 0.0
C374 C 0.33771 0.5932 0.4809 0.0
O375 O 0.32362 0.58043 0.45623 0.0
O376 O 0.35488 0.6426 0.38565 0.0
C377 C 0.17709 0.58955 0.10283 0.0
O378 O 0.1734 0.57633 0.13635 0.0
O379 O 0.14755 0.61489 0.19766 0.0
Zn380 Zn 0.14201 0.62481 0.13807 0.0
O381 O 0.14748 0.66089 0.13424 0.0
C382 C 0.09141 0.61672 0.15131 0.0
O383 O 0.09838 0.61976 0.1902 0.0
O384 O 0.1655 0.60926 0.09821 0.0
C385 C 0.13134 0.67626 0.14425 0.0
O386 O 0.11028 0.66859 0.1579 0.0
C387 C 0.16749 0.61311 0.21717 0.0
O388 O 0.18798 0.61679 0.19728 0.0
O389 O 0.10721 0.61744 0.12238 0.0
C390 C 0.13373 0.43999 0.83957 0.0
O391 O 0.11396 0.44334 0.86165 0.0
O392 O 0.14411 0.39655 0.93717 0.0
Zn393 Zn 0.1302 0.39424 0.87941 0.0
O394 O 0.09413 0.39941 0.88354 0.0
C395 C 0.15538 0.34922 0.85947 0.0
O396 O 0.17425 0.36012 0.87593 0.0
O397 O 0.14479 0.41986 0.8421 0.0
C398 C 0.08076 0.39482 0.85223 0.0
O399 O 0.09081 0.38654 0.81785 0.0
C400 C 0.13721 0.38071 0.96336 0.0
O401 O 0.12211 0.36377 0.95098 0.0
O402 O 0.13544 0.36061 0.85679 0.0
C403 C 0.32982 0.39487 0.56752 0.0
O404 O 0.34483 0.37746 0.55686 0.0
O405 O 0.34941 0.39862 0.70285 0.0
Zn406 Zn 0.35362 0.38655 0.64407 0.0
O407 O 0.34702 0.35047 0.64184 0.0
C408 C 0.40395 0.38149 0.65078 0.0
O409 O 0.39628 0.36914 0.68328 0.0
O410 O 0.33062 0.40306 0.60459 0.0
C411 C 0.34549 0.3369 0.67386 0.0
O412 O 0.34809 0.3464 0.7112 0.0
C413 C 0.32946 0.39774 0.72259 0.0
O414 O 0.30999 0.38992 0.70319 0.0
O415 O 0.38841 0.39169 0.62734 0.0
C416 C 0.16271 0.05215 0.28243 0.0
C417 C 0.1755 0.05294 0.32025 0.0
C418 C 0.16706 0.03388 0.25303 0.0
C419 C 0.18466 0.01591 0.26157 0.0
C420 C 0.19871 0.01743 0.2985 0.0
C421 C 0.19394 0.03596 0.32751 0.0
C422 C 0.15176 0.03303 0.21391 0.0
C423 C 0.21778 0.99875 0.30865 0.0
C424 C 0.16806 0.95629 0.21139 0.0
C425 C 0.18137 0.95712 0.17409 0.0
C426 C 0.17022 0.97459 0.24144 0.0
C427 C 0.18606 0.99427 0.23404 0.0
C428 C 0.20078 0.99442 0.1978 0.0
C429 C 0.19826 0.97579 0.16816 0.0
C430 C 0.15438 0.9736 0.27991 0.0
C431 C 0.21814 0.01493 0.18919 0.0
H432 H 0.14865 0.06538 0.2763 0.0
H433 H 0.20398 0.0365 0.35658 0.0
H434 H 0.16342 0.0312 0.18586 0.0
H435 H 0.1397 0.01696 0.21498 0.0
H436 H 0.14034 0.04946 0.21025 0.0
H437 H 0.23062 0.0054 0.33278 0.0
H438 H 0.20886 0.98218 0.32081 0.0
H439 H 0.22816 0.99358 0.28034 0.0
H440 H 0.15523 0.94173 0.21653 0.0
H441 H 0.20876 0.97647 0.13957 0.0
H442 H 0.14072 0.98833 0.27854 0.0
H443 H 0.16539 0.97649 0.30845 0.0
H444 H 0.1447 0.95604 0.28285 0.0
H445 H 0.20777 0.03147 0.18102 0.0
H446 H 0.23065 0.01071 0.16299 0.0
H447 H 0.22898 0.01912 0.21746 0.0
C448 C 0.20778 0.95252 0.56415 0.0
C449 C 0.19205 0.93264 0.56107 0.0
C450 C 0.22716 0.95531 0.53602 0.0
C451 C 0.23077 0.93781 0.50426 0.0
C452 C 0.21403 0.9186 0.49953 0.0
C453 C 0.19492 0.91626 0.52796 0.0
C454 C 0.24447 0.9762 0.54173 0.0
C455 C 0.21706 0.89964 0.46586 0.0
C456 C 0.27293 0.9433 0.41127 0.0
C457 C 0.29197 0.92806 0.42365 0.0
C458 C 0.25354 0.94825 0.4384 0.0
C459 C 0.25325 0.93768 0.4787 0.0
C460 C 0.27331 0.92382 0.49237 0.0
C461 C 0.29241 0.91918 0.46468 0.0
C462 C 0.23264 0.96339 0.42284 0.0
C463 C 0.27383 0.91237 0.53523 0.0
H464 H 0.20559 0.96534 0.58953 0.0
H465 H 0.18263 0.90105 0.52496 0.0
H466 H 0.26168 0.96941 0.55524 0.0
H467 H 0.24884 0.98467 0.51121 0.0
H468 H 0.23701 0.99027 0.56296 0.0
H469 H 0.20145 0.88698 0.46441 0.0
H470 H 0.21918 0.90838 0.43487 0.0
H471 H 0.23372 0.88896 0.47191 0.0
H472 H 0.27255 0.95044 0.37973 0.0
H473 H 0.30723 0.9077 0.47474 0.0
H474 H 0.22613 0.9759 0.44754 0.0
H475 H 0.21734 0.95133 0.41434 0.0
H476 H 0.23767 0.97414 0.39482 0.0
H477 H 0.26919 0.92591 0.55955 0.0
H478 H 0.29181 0.90445 0.54272 0.0
H479 H 0.26007 0.89775 0.53682 0.0
C480 C 0.30712 0.03756 0.68285 0.0
C481 C 0.32509 0.05487 0.69127 0.0
C482 C 0.30348 0.01776 0.70974 0.0
C483 C 0.31822 0.01523 0.74568 0.0
C484 C 0.33529 0.03347 0.75564 0.0
C485 C 0.33847 0.05306 0.72839 0.0
C486 C 0.28483 0.99888 0.69845 0.0
C487 C 0.3513 0.03155 0.79377 0.0
C488 C 0.30765 0.96998 0.83323 0.0
C489 C 0.32477 0.95208 0.82332 0.0
C490 C 0.30415 0.9901 0.80697 0.0
C491 C 0.3182 0.99233 0.77014 0.0
C492 C 0.33444 0.9736 0.75883 0.0
C493 C 0.33749 0.95372 0.78548 0.0
C494 C 0.28643 0.00953 0.81984 0.0
C495 C 0.34973 0.97521 0.71975 0.0
H496 H 0.29654 0.03893 0.65443 0.0
H497 H 0.35217 0.06649 0.73549 0.0
H498 H 0.29411 0.9823 0.68717 0.0
H499 H 0.27399 0.99375 0.72628 0.0
H500 H 0.27237 0.00529 0.67354 0.0
H501 H 0.36213 0.04823 0.79903 0.0
H502 H 0.34024 0.02801 0.82204 0.0
H503 H 0.36395 0.01608 0.78998 0.0
H504 H 0.2976 0.96878 0.86225 0.0
H505 H 0.35056 0.93986 0.7773 0.0
H506 H 0.2754 0.0155 0.79276 0.0
H507 H 0.29651 0.02556 0.83143 0.0
H508 H 0.27408 0.00327 0.84505 0.0
H509 H 0.33818 0.97908 0.6922 0.0
H510 H 0.36003 0.95829 0.71374 0.0
H511 H 0.36281 0.99037 0.72283 0.0
C512 C 0.20981 0.10094 0.94806 0.0
C513 C 0.20235 0.08243 0.92094 0.0
C514 C 0.23087 0.09866 0.97202 0.0
C515 C 0.24489 0.07726 0.96908 0.0
C516 C 0.23716 0.05815 0.94275 0.0
C517 C 0.21595 0.06098 0.91886 0.0
C518 C 0.23843 0.1195 -0.00025 0.0
C519 C 0.25158 0.03503 0.93893 0.0
C520 C 0.30973 0.08938 0.0005 0.0
C521 C 0.30895 0.08419 0.04338 0.0
C522 C 0.28946 0.08539 0.97497 0.0
C523 C 0.26803 0.07576 0.9927 0.0
C524 C 0.26789 0.06847 0.03509 0.0
C525 C 0.28832 0.07292 0.06003 0.0
C526 C 0.29038 0.09338 0.92987 0.0
C527 C 0.24558 0.05761 0.05492 0.0
H528 H 0.19938 0.11753 0.95012 0.0
H529 H 0.21031 0.04659 0.89797 0.0
H530 H 0.24028 0.11326 0.03253 0.0
H531 H 0.25637 0.12644 0.98968 0.0
H532 H 0.22527 0.13472 0.99898 0.0
H533 H 0.2415 0.02074 0.92175 0.0
H534 H 0.2687 0.03871 0.92193 0.0
H535 H 0.25651 0.02802 0.97028 0.0
H536 H 0.32567 0.09789 0.98727 0.0
H537 H 0.28772 0.06848 0.09301 0.0
H538 H 0.2792 0.10993 0.92592 0.0
H539 H 0.28272 0.07923 0.90915 0.0
H540 H 0.30913 0.0975 0.9195 0.0
H541 H 0.23182 0.072 0.05968 0.0
H542 H 0.24963 0.04922 0.08568 0.0
H543 H 0.23747 0.04371 0.03417 0.0
C544 C 0.86098 0.97707 0.65866 0.0
C545 C 0.84918 0.95469 0.6623 0.0
C546 C 0.86005 0.99417 0.69097 0.0
C547 C 0.84666 0.98892 0.72759 0.0
C548 C 0.83333 0.96708 0.73028 0.0
C549 C 0.83489 0.95009 0.69769 0.0
C550 C 0.87467 0.01718 0.68696 0.0
C551 C 0.81841 0.96111 0.76845 0.0
C552 C 0.87204 0.01785 0.82543 0.0
C553 C 0.85791 0.03885 0.82887 0.0
C554 C 0.86794 0.00103 0.79345 0.0
C555 C 0.84898 0.00508 0.76452 0.0
C556 C 0.8338 0.02557 0.7691 0.0
C557 C 0.83857 0.04236 0.80107 0.0
C558 C 0.8847 0.97951 0.78944 0.0
C559 C 0.8131 0.03021 0.73937 0.0
H560 H 0.87197 0.98084 0.63136 0.0
H561 H 0.82551 0.93293 0.70053 0.0
H562 H 0.86322 0.03319 0.69381 0.0
H563 H 0.88962 0.01701 0.71013 0.0
H564 H 0.88262 0.01935 0.65529 0.0
H565 H 0.80636 0.94529 0.76314 0.0
H566 H 0.83062 0.95688 0.79498 0.0
H567 H 0.80718 0.97687 0.77777 0.0
H568 H 0.88699 0.01496 0.8468 0.0
H569 H 0.82744 0.05846 0.80379 0.0
H570 H 0.89499 0.98079 0.75973 0.0
H571 H 0.8741 0.96246 0.7884 0.0
H572 H 0.89782 0.97836 0.81567 0.0
H573 H 0.82036 0.0351 0.70817 0.0
H574 H 0.80118 0.04514 0.75029 0.0
H575 H 0.80202 0.0136 0.73541 0.0
C576 C 0.80089 0.09239 0.46416 0.0
C577 C 0.8034 0.07817 0.4281 0.0
C578 C 0.7812 0.08924 0.49124 0.0
C579 C 0.76354 0.07143 0.48206 0.0
C580 C 0.76663 0.05612 0.44698 0.0
C581 C 0.78657 0.05967 0.42037 0.0
C582 C 0.77867 0.10584 0.52852 0.0
C583 C 0.74826 0.03684 0.43636 0.0
C584 C 0.71927 0.05938 0.57046 0.0
C585 C 0.70062 0.07569 0.56072 0.0
C586 C 0.73941 0.05673 0.54397 0.0
C587 C 0.74082 0.0707 0.50696 0.0
C588 C 0.72134 0.08605 0.49577 0.0
C589 C 0.70151 0.08837 0.52278 0.0
C590 C 0.75974 0.04003 0.55677 0.0
C591 C 0.72205 0.10112 0.45639 0.0
H592 H 0.81394 0.10657 0.47064 0.0
H593 H 0.78843 0.04852 0.39267 0.0
H594 H 0.76272 0.1178 0.52416 0.0
H595 H 0.77557 0.09513 0.55735 0.0
H596 H 0.79492 0.11739 0.53317 0.0
H597 H 0.75486 0.02442 0.41152 0.0
H598 H 0.74365 0.02602 0.46446 0.0
H599 H 0.73132 0.04555 0.42533 0.0
H600 H 0.71869 0.04942 0.59962 0.0
H601 H 0.68705 0.1008 0.51476 0.0
H602 H 0.77558 0.05096 0.56672 0.0
H603 H 0.7656 0.02869 0.53 0.0
H604 H 0.75444 0.02798 0.58302 0.0
H605 H 0.73649 0.11501 0.45907 0.0
H606 H 0.70458 0.11048 0.45035 0.0
H607 H 0.72645 0.0896 0.42903 0.0
C608 C 0.62065 0.97901 0.34119 0.0
C609 C 0.63472 0.95794 0.34406 0.0
C610 C 0.62342 0.99507 0.30764 0.0
C611 C 0.64095 0.99015 0.27651 0.0
C612 C 0.65618 0.96965 0.28044 0.0
C613 C 0.65275 0.95364 0.31405 0.0
C614 C 0.60666 0.01663 0.30441 0.0
C615 C 0.6754 0.96411 0.2483 0.0
C616 C 0.62483 0.015 0.16987 0.0
C617 C 0.6373 0.03712 0.16959 0.0
C618 C 0.62666 0.9991 0.20384 0.0
C619 C 0.64161 0.00529 0.23813 0.0
C620 C 0.65533 0.02694 0.23703 0.0
C621 C 0.65287 0.04272 0.20286 0.0
C622 C 0.61156 0.97628 0.20395 0.0
C623 C 0.67184 0.03389 0.27265 0.0
H624 H 0.6067 0.9825 0.36426 0.0
H625 H 0.66383 0.93749 0.31629 0.0
H626 H 0.61726 0.03352 0.30027 0.0
H627 H 0.59487 0.0146 0.27655 0.0
H628 H 0.59495 0.01866 0.33243 0.0
H629 H 0.6877 0.94935 0.25861 0.0
H630 H 0.66668 0.95852 0.2186 0.0
H631 H 0.68635 0.9805 0.2416 0.0
H632 H 0.6128 0.01049 0.14427 0.0
H633 H 0.66273 0.0597 0.20267 0.0
H634 H 0.59789 0.9773 0.22932 0.0
H635 H 0.62312 0.96027 0.21025 0.0
H636 H 0.60196 0.97341 0.17385 0.0
H637 H 0.66082 0.0387 0.30043 0.0
H638 H 0.68355 0.04959 0.26467 0.0
H639 H 0.68353 0.01838 0.28156 0.0
C640 C 0.71333 0.94901 0.93255 0.0
C641 C 0.69733 0.92982 0.94065 0.0
C642 C 0.73389 0.95276 0.95762 0.0
C643 C 0.73855 0.93687 0.99139 0.0
C644 C 0.72176 0.91832 0.00103 0.0
C645 C 0.70136 0.91506 0.97563 0.0
C646 C 0.75122 0.97292 0.94669 0.0
C647 C 0.726 0.90103 0.03689 0.0
C648 C 0.80231 0.92123 0.02524 0.0
C649 C 0.80384 0.93282 0.06416 0.0
C650 C 0.78163 0.92352 0.00018 0.0
C651 C 0.76199 0.93786 0.01424 0.0
C652 C 0.76404 0.95091 0.05216 0.0
C653 C 0.78496 0.9482 0.07676 0.0
C654 C 0.78024 0.90941 0.95981 0.0
C655 C 0.74363 0.96664 0.06791 0.0
H656 H 0.71029 0.96061 0.90574 0.0
H657 H 0.689 0.90032 0.98241 0.0
H658 H 0.75646 0.98318 0.97509 0.0
H659 H 0.76801 0.96511 0.93323 0.0
H660 H 0.74335 0.98571 0.92359 0.0
H661 H 0.71035 0.88876 0.04213 0.0
H662 H 0.74225 0.88982 0.03037 0.0
H663 H 0.72954 0.91122 0.06613 0.0
H664 H 0.8169 0.90951 0.01499 0.0
H665 H 0.78605 0.9574 0.10662 0.0
H666 H 0.77467 0.92142 0.93375 0.0
H667 H 0.76633 0.89499 0.96268 0.0
H668 H 0.79779 0.90079 0.95157 0.0
H669 H 0.73653 0.97829 0.04247 0.0
H670 H 0.74939 0.97834 0.09434 0.0
H671 H 0.7285 0.95498 0.07871 0.0
C672 C 0.69042 0.4649 0.67807 0.0
C673 C 0.67274 0.44765 0.68839 0.0
C674 C 0.69401 0.48551 0.70311 0.0
C675 C 0.67946 0.48893 0.73906 0.0
C676 C 0.66258 0.4709 0.75085 0.0
C677 C 0.65948 0.45047 0.72547 0.0
C678 C 0.71245 0.50418 0.6899 0.0
C679 C 0.64674 0.47381 0.78904 0.0
C680 C 0.69106 0.53567 0.82369 0.0
C681 C 0.67391 0.55345 0.81339 0.0
C682 C 0.69424 0.51512 0.79835 0.0
C683 C 0.67984 0.51231 0.76209 0.0
C684 C 0.6636 0.53092 0.75023 0.0
C685 C 0.6609 0.55128 0.77593 0.0
C686 C 0.712 0.49583 0.81166 0.0
C687 C 0.64794 0.52866 0.71172 0.0
H688 H 0.70089 0.46279 0.64964 0.0
H689 H 0.64595 0.43713 0.73397 0.0
H690 H 0.70298 0.52044 0.67776 0.0
H691 H 0.72354 0.51001 0.717 0.0
H692 H 0.72469 0.49723 0.66509 0.0
H693 H 0.63583 0.45735 0.79561 0.0
H694 H 0.65796 0.47793 0.81688 0.0
H695 H 0.63419 0.48928 0.78439 0.0
H696 H 0.70134 0.53728 0.8524 0.0
H697 H 0.64779 0.56504 0.76745 0.0
H698 H 0.72298 0.48964 0.78465 0.0
H699 H 0.70195 0.47989 0.82368 0.0
H700 H 0.72439 0.50234 0.8366 0.0
H701 H 0.65917 0.52407 0.6841 0.0
H702 H 0.63777 0.54558 0.70496 0.0
H703 H 0.63471 0.51374 0.71614 0.0
C704 C 0.79216 0.41015 0.94256 0.0
C705 C 0.78821 0.3935 0.91014 0.0
C706 C 0.77553 0.41245 0.97558 0.0
C707 C 0.75473 0.39746 0.97645 0.0
C708 C 0.75014 0.38143 0.94285 0.0
C709 C 0.76683 0.37979 0.90997 0.0
C710 C 0.78076 0.43012 0.01041 0.0
C711 C 0.72828 0.36497 0.94273 0.0
C712 C 0.72827 0.37703 0.07974 0.0
C713 C 0.70636 0.38984 0.08101 0.0
C714 C 0.74457 0.38005 0.04659 0.0
C715 C 0.73902 0.39657 0.01416 0.0
C716 C 0.71755 0.41054 0.01634 0.0
C717 C 0.70134 0.40687 0.04962 0.0
C718 C 0.76717 0.36463 0.04527 0.0
C719 C 0.71128 0.42868 0.98277 0.0
H720 H 0.80853 0.42098 0.94269 0.0
H721 H 0.76358 0.36693 0.88501 0.0
H722 H 0.76437 0.44091 0.01788 0.0
H723 H 0.78586 0.42004 0.03907 0.0
H724 H 0.79576 0.44269 0.00237 0.0
H725 H 0.72651 0.35469 0.91304 0.0
H726 H 0.72971 0.35183 0.96886 0.0
H727 H 0.7115 0.37561 0.94769 0.0
H728 H 0.73233 0.36387 0.10387 0.0
H729 H 0.68453 0.41698 0.05059 0.0
H730 H 0.78343 0.3762 0.04139 0.0
H731 H 0.76637 0.35227 0.01795 0.0
H732 H 0.76944 0.35355 0.07397 0.0
H733 H 0.72703 0.44055 0.97612 0.0
H734 H 0.69559 0.44018 0.99166 0.0
H735 H 0.70677 0.41901 0.95341 0.0
C736 C 0.8089 0.47101 0.31775 0.0
C737 C 0.8261 0.45329 0.30728 0.0
C738 C 0.80545 0.49148 0.29233 0.0
C739 C 0.81964 0.49431 0.25579 0.0
C740 C 0.83613 0.4759 0.24405 0.0
C741 C 0.8391 0.45562 0.26983 0.0
C742 C 0.78746 0.51058 0.30558 0.0
C743 C 0.85161 0.4782 0.20529 0.0
C744 C 0.807 0.53991 0.16972 0.0
C745 C 0.82429 0.55783 0.17858 0.0
C746 C 0.80418 0.51971 0.19599 0.0
C747 C 0.81911 0.51735 0.23171 0.0
C748 C 0.83556 0.53606 0.24207 0.0
C749 C 0.83788 0.55609 0.21549 0.0
C750 C 0.78616 0.50031 0.18428 0.0
C751 C 0.8518 0.53427 0.27993 0.0
H752 H 0.79866 0.4693 0.34649 0.0
H753 H 0.85229 0.44195 0.26125 0.0
H754 H 0.79731 0.52696 0.31628 0.0
H755 H 0.77593 0.51605 0.2788 0.0
H756 H 0.77561 0.50423 0.33141 0.0
H757 H 0.86238 0.46159 0.19908 0.0
H758 H 0.84011 0.48197 0.17764 0.0
H759 H 0.86427 0.49366 0.2089 0.0
H760 H 0.79626 0.54119 0.14146 0.0
H761 H 0.85114 0.56993 0.22285 0.0
H762 H 0.77539 0.49475 0.21193 0.0
H763 H 0.79599 0.48405 0.17294 0.0
H764 H 0.77359 0.50641 0.15931 0.0
H765 H 0.84098 0.53013 0.30824 0.0
H766 H 0.86215 0.55122 0.28552 0.0
H767 H 0.86488 0.51922 0.27555 0.0
C768 C 0.70517 0.58588 0.44362 0.0
C769 C 0.70852 0.6038 0.4131 0.0
C770 C 0.72278 0.58177 0.47452 0.0
C771 C 0.74391 0.5963 0.47533 0.0
C772 C 0.74778 0.61373 0.4436 0.0
C773 C 0.73015 0.6171 0.41267 0.0
C774 C 0.71833 0.56261 0.50725 0.0
C775 C 0.76991 0.62983 0.44362 0.0
C776 C 0.77407 0.61185 0.57802 0.0
C777 C 0.79595 0.59907 0.57508 0.0
C778 C 0.75657 0.61031 0.54647 0.0
C779 C 0.76081 0.59524 0.51144 0.0
C780 C 0.7822 0.58114 0.50946 0.0
C781 C 0.79969 0.58342 0.54115 0.0
C782 C 0.73414 0.62591 0.54955 0.0
C783 C 0.78706 0.56442 0.4731 0.0
H784 H 0.68859 0.57537 0.44386 0.0
H785 H 0.7329 0.63097 0.38918 0.0
H786 H 0.73474 0.5513 0.51165 0.0
H787 H 0.71429 0.57138 0.53765 0.0
H788 H 0.70288 0.55065 0.49892 0.0
H789 H 0.77087 0.64153 0.41543 0.0
H790 H 0.76964 0.64163 0.4717 0.0
H791 H 0.78662 0.61874 0.44518 0.0
H792 H 0.77102 0.62397 0.60413 0.0
H793 H 0.81647 0.57332 0.5389 0.0
H794 H 0.71764 0.61469 0.54576 0.0
H795 H 0.73419 0.63948 0.52398 0.0
H796 H 0.73297 0.63565 0.57986 0.0
H797 H 0.77087 0.55318 0.46633 0.0
H798 H 0.80272 0.55227 0.47905 0.0
H799 H 0.79095 0.57527 0.44472 0.0
C800 C 0.36407 0.47569 0.18214 0.0
C801 C 0.35133 0.45374 0.1839 0.0
C802 C 0.36175 0.49306 0.21381 0.0
C803 C 0.346 0.48858 0.24786 0.0
C804 C 0.33212 0.46702 0.24881 0.0
C805 C 0.3351 0.44973 0.21694 0.0
C806 C 0.37706 0.5157 0.21178 0.0
C807 C 0.31479 0.46185 0.28419 0.0
C808 C 0.36518 0.52017 0.34747 0.0
C809 C 0.35148 0.54155 0.3459 0.0
C810 C 0.36272 0.50226 0.31674 0.0
C811 C 0.34588 0.50559 0.28392 0.0
C812 C 0.33088 0.5264 0.28358 0.0
C813 C 0.33399 0.54426 0.31443 0.0
C814 C 0.37922 0.48044 0.31809 0.0
C815 C 0.31234 0.53032 0.2496 0.0
H816 H 0.37661 0.47899 0.15672 0.0
H817 H 0.32503 0.4329 0.21833 0.0
H818 H 0.36549 0.53203 0.21463 0.0
H819 H 0.38998 0.51593 0.23834 0.0
H820 H 0.38754 0.51698 0.18221 0.0
H821 H 0.30319 0.44584 0.27772 0.0
H822 H 0.32514 0.45839 0.31328 0.0
H823 H 0.30298 0.47776 0.29003 0.0
H824 H 0.37867 0.51785 0.37174 0.0
H825 H 0.32316 0.56062 0.31324 0.0
H826 H 0.39179 0.48095 0.29103 0.0
H827 H 0.36852 0.46351 0.31559 0.0
H828 H 0.39013 0.47971 0.34723 0.0
H829 H 0.3217 0.53449 0.21977 0.0
H830 H 0.29986 0.54551 0.25702 0.0
H831 H 0.30151 0.51365 0.2446 0.0
C832 C 0.21329 0.56494 0.08144 0.0
C833 C 0.19644 0.58326 0.07262 0.0
C834 C 0.23333 0.56098 0.05516 0.0
C835 C 0.23649 0.5757 0.01935 0.0
C836 C 0.21886 0.59335 0.00922 0.0
C837 C 0.19908 0.5969 0.03593 0.0
C838 C 0.25165 0.54185 0.06676 0.0
C839 C 0.22146 0.60935 0.97117 0.0
C840 C 0.2983 0.5919 0.97668 0.0
C841 C 0.2988 0.57882 0.93911 0.0
C842 C 0.27872 0.5899 0.00434 0.0
C843 C 0.25914 0.57442 0.99426 0.0
C844 C 0.26023 0.55998 0.95774 0.0
C845 C 0.28007 0.56237 0.93054 0.0
C846 C 0.27833 0.60552 0.0431 0.0
C847 C 0.23981 0.5431 0.94613 0.0
H848 H 0.21135 0.55426 0.10965 0.0
H849 H 0.18602 0.61092 0.02858 0.0
H850 H 0.25619 0.53051 0.03923 0.0
H851 H 0.26864 0.5507 0.07723 0.0
H852 H 0.24505 0.52992 0.09228 0.0
H853 H 0.20534 0.62104 0.96615 0.0
H854 H 0.23758 0.62117 0.9748 0.0
H855 H 0.22432 0.59816 0.94281 0.0
H856 H 0.3128 0.60446 0.98383 0.0
H857 H 0.28037 0.55205 0.90172 0.0
H858 H 0.27392 0.59445 0.071 0.0
H859 H 0.264 0.6195 0.04 0.0
H860 H 0.2959 0.61479 0.04851 0.0
H861 H 0.2341 0.53221 0.97355 0.0
H862 H 0.24495 0.53062 0.92038 0.0
H863 H 0.22392 0.55387 0.93591 0.0
C864 C 0.12517 0.47537 0.79408 0.0
C865 C 0.14204 0.45908 0.8107 0.0
C866 C 0.13232 0.49349 0.7661 0.0
C867 C 0.15709 0.49582 0.75536 0.0
C868 C 0.17433 0.47967 0.77259 0.0
C869 C 0.16653 0.46119 0.79966 0.0
C870 C 0.11326 0.50998 0.74767 0.0
C871 C 0.20095 0.48205 0.76271 0.0
C872 C 0.16659 0.52945 0.65374 0.0
C873 C 0.16808 0.55344 0.66787 0.0
C874 C 0.16447 0.51019 0.68206 0.0
C875 C 0.16451 0.51505 0.7255 0.0
C876 C 0.16821 0.53901 0.73989 0.0
C877 C 0.16959 0.55801 0.71086 0.0
C878 C 0.16009 0.48498 0.66538 0.0
C879 C 0.16913 0.54481 0.78596 0.0
H880 H 0.1062 0.47364 0.80231 0.0
H881 H 0.17961 0.44869 0.81279 0.0
H882 H 0.11696 0.52902 0.75665 0.0
H883 H 0.11383 0.50901 0.71304 0.0
H884 H 0.09469 0.5052 0.75822 0.0
H885 H 0.21209 0.46842 0.7795 0.0
H886 H 0.20398 0.47991 0.72865 0.0
H887 H 0.20738 0.50042 0.77137 0.0
H888 H 0.16535 0.52582 0.62051 0.0
H889 H 0.17101 0.57653 0.72185 0.0
H890 H 0.141 0.47975 0.67148 0.0
H891 H 0.17179 0.47162 0.68152 0.0
H892 H 0.16345 0.48376 0.63122 0.0
H893 H 0.15064 0.5436 0.79936 0.0
H894 H 0.17623 0.56332 0.79187 0.0
H895 H 0.18066 0.53154 0.80274 0.0
C896 C 0.20595 0.40013 0.45105 0.0
C897 C 0.20477 0.41369 0.41404 0.0
C898 C 0.22665 0.40056 0.47633 0.0
C899 C 0.24662 0.41512 0.46461 0.0
C900 C 0.24501 0.43004 0.42874 0.0
C901 C 0.22411 0.42907 0.40372 0.0
C902 C 0.22764 0.38433 0.51429 0.0
C903 C 0.26578 0.44611 0.41565 0.0
C904 C 0.29436 0.42125 0.5493 0.0
C905 C 0.31037 0.40252 0.53851 0.0
C906 C 0.2742 0.42662 0.52417 0.0
C907 C 0.26984 0.41272 0.48778 0.0
C908 C 0.2866 0.39461 0.4757 0.0
C909 C 0.30672 0.38984 0.50107 0.0
C910 C 0.25698 0.44638 0.5376 0.0
C911 C 0.28256 0.3793 0.4372 0.0
H912 H 0.19106 0.38831 0.45949 0.0
H913 H 0.22329 0.43975 0.37535 0.0
H914 H 0.24157 0.3701 0.50953 0.0
H915 H 0.23297 0.39488 0.54231 0.0
H916 H 0.21002 0.37536 0.52066 0.0
H917 H 0.26041 0.4591 0.39081 0.0
H918 H 0.27284 0.45642 0.4428 0.0
H919 H 0.28083 0.43477 0.40358 0.0
H920 H 0.29718 0.4313 0.578 0.0
H921 H 0.31905 0.37543 0.49235 0.0
H922 H 0.23984 0.43817 0.54885 0.0
H923 H 0.25241 0.45826 0.51078 0.0
H924 H 0.26464 0.45769 0.5631 0.0
H925 H 0.26612 0.368 0.44149 0.0
H926 H 0.29812 0.36714 0.43056 0.0
H927 H 0.27944 0.39098 0.40954 0.0
C928 C 0.13335 0.18853 0.36577 0.0
C929 C 0.15323 0.17693 0.38438 0.0
C930 C 0.13202 0.21387 0.36379 0.0
C931 C 0.15103 0.22797 0.38074 0.0
C932 C 0.1715 0.2164 0.39837 0.0
C933 C 0.17235 0.191 0.40001 0.0
C934 C 0.10991 0.22557 0.34468 0.0
C935 C 0.19218 0.23085 0.41655 0.0
C936 C 0.1551 0.29411 0.34883 0.0
C937 C 0.14412 0.3057 0.38297 0.0
C938 C 0.15768 0.26883 0.3478 0.0
C939 C 0.14898 0.25481 0.38164 0.0
C940 C 0.13797 0.2664 0.41624 0.0
C941 C 0.1357 0.2917 0.41652 0.0
C942 C 0.16958 0.25711 0.31043 0.0
C943 C 0.1284 0.25203 0.45287 0.0
H944 H 0.11852 0.17782 0.35352 0.0
H945 H 0.1878 0.18221 0.41434 0.0
H946 H 0.10009 0.23612 0.36884 0.0
H947 H 0.11537 0.23843 0.31978 0.0
H948 H 0.09725 0.21206 0.33109 0.0
H949 H 0.20738 0.21913 0.42697 0.0
H950 H 0.19914 0.24392 0.39312 0.0
H951 H 0.18567 0.2415 0.44372 0.0
H952 H 0.1617 0.30479 0.3228 0.0
H953 H 0.12718 0.30049 0.443 0.0
H954 H 0.15671 0.2445 0.2951 0.0
H955 H 0.18542 0.24624 0.32063 0.0
H956 H 0.17575 0.27061 0.28701 0.0
H957 H 0.11426 0.23921 0.44208 0.0
H958 H 0.12052 0.26381 0.47752 0.0
H959 H 0.14319 0.24112 0.46687 0.0
C960 C 0.94868 0.90348 0.61304 0.0
C961 C 0.93957 0.88041 0.60347 0.0
C962 C 0.97356 0.90715 0.61958 0.0
C963 C 0.98967 0.8873 0.61632 0.0
C964 C 0.98065 0.86411 0.60567 0.0
C965 C 0.95571 0.86094 0.59945 0.0
C966 C 0.98252 0.93212 0.63097 0.0
C967 C 0.99729 0.84251 0.60174 0.0
C968 C 0.05733 0.89733 0.60306 0.0
C969 C 0.06584 0.8928 0.64362 0.0
C970 C 0.03249 0.89614 0.59383 0.0
C971 C 0.01582 0.89041 0.62596 0.0
C972 C 0.02425 0.88655 0.66718 0.0
C973 C 0.04915 0.88774 0.67548 0.0
C974 C 0.02415 0.90034 0.54949 0.0
C975 C 0.00702 0.88054 0.70236 0.0
H976 H 0.93634 0.91863 0.61617 0.0
H977 H 0.94885 0.84308 0.59187 0.0
H978 H 0.99045 0.93181 0.66282 0.0
H979 H 0.99707 0.93783 0.60918 0.0
H980 H 0.96784 0.94587 0.63022 0.0
H981 H 0.98756 0.82596 0.59133 0.0
H982 H 0.01199 0.84645 0.57912 0.0
H983 H 0.00594 0.83872 0.63233 0.0
H984 H 0.07011 0.90125 0.57827 0.0
H985 H 0.05555 0.88436 0.70696 0.0
H986 H 0.00994 0.91454 0.54872 0.0
H987 H 0.01597 0.8835 0.53691 0.0
H988 H 0.03923 0.90591 0.52861 0.0
H989 H 0.99266 0.89453 0.70458 0.0
H990 H 0.01635 0.87926 0.73303 0.0
H991 H 0.99796 0.863 0.69592 0.0
C992 C 0.38401 0.80182 0.89487 0.0
C993 C 0.36736 0.81867 0.87906 0.0
C994 C 0.38153 0.77701 0.88667 0.0
C995 C 0.36177 0.76875 0.86239 0.0
C996 C 0.34489 0.78563 0.84622 0.0
C997 C 0.34796 0.81043 0.85457 0.0
C998 C 0.40006 0.7596 0.90414 0.0
C999 C 0.32348 0.77746 0.8205 0.0
C1000 C 0.36872 0.70634 0.81395 0.0
C1001 C 0.35696 0.69165 0.84341 0.0
C1002 C 0.36987 0.73156 0.81913 0.0
C1003 C 0.35879 0.74237 0.8544 0.0
C1004 C 0.34614 0.72774 0.88344 0.0
C1005 C 0.34547 0.70254 0.8777 0.0
C1006 C 0.38368 0.74654 0.78764 0.0
C1007 C 0.33388 0.73862 0.92122 0.0
H1008 H 0.39913 0.80803 0.91363 0.0
H1009 H 0.33498 0.82334 0.84235 0.0
H1010 H 0.39111 0.74651 0.92542 0.0
H1011 H 0.40841 0.74902 0.87842 0.0
H1012 H 0.41466 0.76901 0.92166 0.0
H1013 H 0.31208 0.79288 0.81 0.0
H1014 H 0.32982 0.76736 0.7926 0.0
H1015 H 0.31208 0.76489 0.83908 0.0
H1016 H 0.37765 0.69809 0.78736 0.0
H1017 H 0.3362 0.69134 0.90046 0.0
H1018 H 0.39964 0.75494 0.80293 0.0
H1019 H 0.37215 0.76147 0.77574 0.0
H1020 H 0.39007 0.73557 0.7607 0.0
H1021 H 0.34769 0.74663 0.94227 0.0
H1022 H 0.32331 0.72501 0.93913 0.0
H1023 H 0.32154 0.75345 0.91155 0.0
C1024 C 0.43619 0.0695 0.14823 0.0
C1025 C 0.42192 0.08867 0.13333 0.0
C1026 C 0.46154 0.07014 0.14487 0.0
C1027 C 0.47288 0.09044 0.12623 0.0
C1028 C 0.45854 0.10943 0.10978 0.0
C1029 C 0.43325 0.10831 0.11349 0.0
C1030 C 0.47622 0.04949 0.16261 0.0
C1031 C 0.46996 0.13136 0.08961 0.0
C1032 C 0.53688 0.10614 0.15995 0.0
C1033 C 0.55064 0.09766 0.12614 0.0
C1034 C 0.51159 0.10378 0.16038 0.0
C1035 C 0.49974 0.09257 0.12625 0.0
C1036 C 0.51351 0.08378 0.09216 0.0
C1037 C 0.53881 0.08649 0.09245 0.0
C1038 C 0.49752 0.11347 0.19726 0.0
C1039 C 0.50151 0.07164 0.05531 0.0
H1040 H 0.42761 0.05423 0.16349 0.0
H1041 H 0.42238 0.12317 0.10174 0.0
H1042 H 0.48913 0.04259 0.13885 0.0
H1043 H 0.48707 0.05603 0.18952 0.0
H1044 H 0.46465 0.03425 0.17331 0.0
H1045 H 0.45626 0.14382 0.07603 0.0
H1046 H 0.48068 0.14148 0.11318 0.0
H1047 H 0.48262 0.12571 0.06453 0.0
H1048 H 0.54584 0.11481 0.1861 0.0
H1049 H 0.54932 0.07983 0.06624 0.0
H1050 H 0.4868 0.09872 0.21182 0.0
H1051 H 0.48453 0.12751 0.18663 0.0
H1052 H 0.50948 0.12154 0.22146 0.0
H1053 H 0.4908 0.05582 0.06606 0.0
H1054 H 0.51483 0.0654 0.03163 0.0
H1055 H 0.48871 0.08438 0.04013 0.0
C1056 C 0.11663 0.719 0.14132 0.0
C1057 C 0.13587 0.70249 0.13894 0.0
C1058 C 0.12034 0.74379 0.13427 0.0
C1059 C 0.14394 0.75232 0.12513 0.0
C1060 C 0.16357 0.73585 0.12388 0.0
C1061 C 0.15928 0.71109 0.13053 0.0
C1062 C 0.0989 0.76076 0.13545 0.0
C1063 C 0.18903 0.74434 0.11478 0.0
C1064 C 0.14791 0.81083 0.06354 0.0
C1065 C 0.15149 0.82797 0.09527 0.0
C1066 C 0.14584 0.7861 0.07281 0.0
C1067 C 0.14775 0.77828 0.11479 0.0
C1068 C 0.15221 0.79539 0.14684 0.0
C1069 C 0.15385 0.82008 0.13673 0.0
C1070 C 0.14082 0.76845 0.0378 0.0
C1071 C 0.15473 0.78765 0.19187 0.0
H1072 H 0.09848 0.7125 0.14775 0.0
H1073 H 0.17427 0.69845 0.12895 0.0
H1074 H 0.1022 0.77558 0.15815 0.0
H1075 H 0.09639 0.76925 0.10432 0.0
H1076 H 0.08185 0.75136 0.14422 0.0
H1077 H 0.20251 0.7295 0.11763 0.0
H1078 H 0.18998 0.75178 0.08262 0.0
H1079 H 0.19413 0.75914 0.13651 0.0
H1080 H 0.14599 0.81677 0.03143 0.0
H1081 H 0.15675 0.83324 0.16138 0.0
H1082 H 0.12305 0.75955 0.04299 0.0
H1083 H 0.15477 0.75399 0.03741 0.0
H1084 H 0.14054 0.77737 0.0067 0.0
H1085 H 0.13735 0.77995 0.20309 0.0
H1086 H 0.15984 0.80294 0.21262 0.0
H1087 H 0.16862 0.77322 0.19469 0.0
C1088 C 0.53519 0.89316 0.3451 0.0
C1089 C 0.5486 0.89909 0.38087 0.0
C1090 C 0.5099 0.89558 0.34448 0.0
C1091 C 0.49773 0.90428 0.38041 0.0
C1092 C 0.51117 0.91067 0.4164 0.0
C1093 C 0.53646 0.90793 0.41626 0.0
C1094 C 0.49617 0.88846 0.30554 0.0
C1095 C 0.49882 0.92016 0.4552 0.0
C1096 C 0.43377 0.92775 0.3636 0.0
C1097 C 0.41983 0.90757 0.37499 0.0
C1098 C 0.45915 0.92721 0.3663 0.0
C1099 C 0.47084 0.90594 0.38057 0.0
C1100 C 0.45685 0.88576 0.39323 0.0
C1101 C 0.43153 0.88684 0.39039 0.0
C1102 C 0.47349 0.94914 0.35281 0.0
C1103 C 0.46865 0.86274 0.40856 0.0
H1104 H 0.54441 0.88632 0.31763 0.0
H1105 H 0.54669 0.91267 0.44397 0.0
H1106 H 0.48342 0.87352 0.31283 0.0
H1107 H 0.48523 0.90397 0.29419 0.0
H1108 H 0.50838 0.88246 0.27996 0.0
H1109 H 0.51195 0.92516 0.48004 0.0
H1110 H 0.48776 0.93631 0.44742 0.0
H1111 H 0.48631 0.90623 0.46778 0.0
H1112 H 0.42489 0.94387 0.35179 0.0
H1113 H 0.42093 0.87115 0.39934 0.0
H1114 H 0.48453 0.94461 0.32492 0.0
H1115 H 0.4862 0.95467 0.3779 0.0
H1116 H 0.46165 0.96478 0.34503 0.0
H1117 H 0.47974 0.8547 0.38319 0.0
H1118 H 0.45517 0.84908 0.419 0.0
H1119 H 0.48103 0.86676 0.43496 0.0
C1120 C 0.36045 0.19489 0.65321 0.0
C1121 C 0.339 0.18215 0.64486 0.0
C1122 C 0.36031 0.22007 0.65871 0.0
C1123 C 0.33816 0.23287 0.65616 0.0
C1124 C 0.31635 0.22011 0.64863 0.0
C1125 C 0.31704 0.19488 0.64289 0.0
C1126 C 0.38398 0.23304 0.66647 0.0
C1127 C 0.29236 0.23315 0.6461 0.0
C1128 C 0.33828 0.29576 0.70423 0.0
C1129 C 0.34201 0.31044 0.66904 0.0
C1130 C 0.33618 0.27052 0.70037 0.0
C1131 C 0.33808 0.2597 0.6604 0.0
C1132 C 0.34129 0.27446 0.62466 0.0
C1133 C 0.34313 0.29966 0.62939 0.0
C1134 C 0.33254 0.25539 0.73916 0.0
C1135 C 0.34354 0.26358 0.58153 0.0
H1136 H 0.37752 0.18524 0.65471 0.0
H1137 H 0.30038 0.18517 0.63657 0.0
H1138 H 0.38742 0.24625 0.64102 0.0
H1139 H 0.38301 0.2434 0.69612 0.0
H1140 H 0.39959 0.22038 0.66821 0.0
H1141 H 0.27693 0.22048 0.64177 0.0
H1142 H 0.28928 0.24382 0.67499 0.0
H1143 H 0.29259 0.2461 0.61961 0.0
H1144 H 0.33722 0.30394 0.73496 0.0
H1145 H 0.34599 0.31087 0.60202 0.0
H1146 H 0.34859 0.24365 0.74422 0.0
H1147 H 0.31665 0.2433 0.73525 0.0
H1148 H 0.32978 0.26667 0.76751 0.0
H1149 H 0.35993 0.25198 0.58 0.0
H1150 H 0.34485 0.27762 0.55676 0.0
H1151 H 0.32771 0.25185 0.57479 0.0
C1152 C 0.06295 0.10961 0.9043 0.0
C1153 C 0.07421 0.0909 0.88183 0.0
C1154 C 0.03805 0.10897 0.91292 0.0
C1155 C 0.02404 0.08911 0.89886 0.0
C1156 C 0.03544 0.06972 0.87758 0.0
C1157 C 0.06039 0.07086 0.86928 0.0
C1158 C 0.02657 0.12998 0.93576 0.0
C1159 C 0.02112 0.04818 0.86231 0.0
C1160 C 0.96125 0.08056 0.94547 0.0
C1161 C 0.94651 0.09116 0.91479 0.0
C1162 C 0.98652 0.07952 0.94058 0.0
C1163 C 0.99728 0.08937 0.90421 0.0
C1164 C 0.98249 0.09997 0.87305 0.0
C1165 C 0.95731 0.10071 0.87869 0.0
C1166 C 0.00171 0.06804 0.97443 0.0
C1167 C 0.99329 0.11071 0.83384 0.0
H1168 H 0.07347 0.12514 0.91427 0.0
H1169 H 0.06894 0.05627 0.85205 0.0
H1170 H 0.01368 0.13941 0.91473 0.0
H1171 H 0.01608 0.12336 0.96303 0.0
H1172 H 0.04019 0.14331 0.94687 0.0
H1173 H 0.03292 0.03383 0.84896 0.0
H1174 H 0.01039 0.04029 0.88827 0.0
H1175 H 0.00812 0.05406 0.83791 0.0
H1176 H 0.95307 0.07309 0.97343 0.0
H1177 H 0.94609 0.10892 0.85479 0.0
H1178 H 0.01452 0.08157 0.98738 0.0
H1179 H 0.0127 0.05308 0.96116 0.0
H1180 H 0.99052 0.06076 0.0004 0.0
H1181 H 0.00591 0.12558 0.84215 0.0
H1182 H 0.97926 0.118 0.81238 0.0
H1183 H 0.00393 0.09678 0.81691 0.0
C1184 C 0.84101 0.69808 0.64109 0.0
C1185 C 0.85482 0.68777 0.60884 0.0
C1186 C 0.83635 0.72307 0.64211 0.0
C1187 C 0.8459 0.73811 0.61032 0.0
C1188 C 0.8597 0.72778 0.57755 0.0
C1189 C 0.86391 0.70273 0.57712 0.0
C1190 C 0.8214 0.73342 0.67736 0.0
C1191 C 0.87036 0.74326 0.54324 0.0
C1192 C 0.82076 0.80091 0.5887 0.0
C1193 C 0.83824 0.8157 0.6077 0.0
C1194 C 0.8225 0.77556 0.59061 0.0
C1195 C 0.84224 0.76478 0.61186 0.0
C1196 C 0.85938 0.77959 0.63251 0.0
C1197 C 0.85713 0.80485 0.63029 0.0
C1198 C 0.80374 0.76032 0.56854 0.0
C1199 C 0.8807 0.76879 0.65546 0.0
H1200 H 0.8338 0.68662 0.66562 0.0
H1201 H 0.87461 0.69492 0.55212 0.0
H1202 H 0.83246 0.74637 0.69575 0.0
H1203 H 0.80577 0.74365 0.6646 0.0
H1204 H 0.8145 0.71916 0.69875 0.0
H1205 H 0.88032 0.73237 0.51963 0.0
H1206 H 0.85579 0.75348 0.52716 0.0
H1207 H 0.883 0.75673 0.55685 0.0
H1208 H 0.80606 0.80912 0.57129 0.0
H1209 H 0.87071 0.81609 0.64518 0.0
H1210 H 0.79646 0.74633 0.59 0.0
H1211 H 0.81225 0.75073 0.54185 0.0
H1212 H 0.78843 0.77137 0.55651 0.0
H1213 H 0.87441 0.75522 0.67858 0.0
H1214 H 0.89158 0.78274 0.67201 0.0
H1215 H 0.89265 0.75923 0.63297 0.0
C1216 C 0.9397 0.0716 0.40552 0.0
C1217 C 0.9282 0.09333 0.39442 0.0
C1218 C 0.96481 0.07079 0.4126 0.0
C1219 C 0.97872 0.09219 0.40831 0.0
C1220 C 0.96715 0.11423 0.3978 0.0
C1221 C 0.94206 0.11454 0.39108 0.0
C1222 C 0.97652 0.04698 0.424 0.0
C1223 C 0.98135 0.13744 0.39283 0.0
C1224 C 0.04144 0.09825 0.45601 0.0
C1225 C 0.05636 0.0948 0.42101 0.0
C1226 C 0.01613 0.09661 0.45268 0.0
C1227 C 0.0055 0.09155 0.41338 0.0
C1228 C 0.02049 0.08736 0.37823 0.0
C1229 C 0.04572 0.08897 0.38249 0.0
C1230 C 0.00073 0.10102 0.49094 0.0
C1231 C 0.00984 0.08199 0.33575 0.0
H1232 H 0.92914 0.05513 0.40828 0.0
H1233 H 0.93336 0.13144 0.3826 0.0
H1234 H 0.98954 0.0416 0.39927 0.0
H1235 H 0.98693 0.04892 0.45346 0.0
H1236 H 0.96304 0.03222 0.42796 0.0
H1237 H 0.96953 0.15317 0.38557 0.0
H1238 H 0.99155 0.14142 0.42189 0.0
H1239 H 0.99479 0.1354 0.3673 0.0
H1240 H 0.04949 0.10263 0.48595 0.0
H1241 H 0.05709 0.08622 0.35528 0.0
H1242 H 0.98775 0.08591 0.49536 0.0
H1243 H 0.98995 0.11779 0.48666 0.0
H1244 H 0.01179 0.10294 0.51974 0.0
H1245 H 0.99723 0.06639 0.33771 0.0
H1246 H 0.02398 0.07784 0.3121 0.0
H1247 H 0.99922 0.09781 0.32478 0.0
C1248 C 0.65553 0.28969 0.14766 0.0
C1249 C 0.64436 0.30192 0.1144 0.0
C1250 C 0.65796 0.26438 0.14734 0.0
C1251 C 0.64891 0.251 0.11302 0.0
C1252 C 0.63788 0.26325 0.07914 0.0
C1253 C 0.63577 0.28857 0.08021 0.0
C1254 C 0.66992 0.25195 0.18394 0.0
C1255 C 0.62794 0.24958 0.04203 0.0
C1256 C 0.67047 0.18673 0.09247 0.0
C1257 C 0.65105 0.17305 0.10804 0.0
C1258 C 0.67031 0.21213 0.09476 0.0
C1259 C 0.65025 0.2241 0.11301 0.0
C1260 C 0.63095 0.21037 0.12989 0.0
C1261 C 0.63159 0.18503 0.12725 0.0
C1262 C 0.69129 0.22618 0.07663 0.0
C1263 C 0.60926 0.22248 0.14969 0.0
H1264 H 0.6623 0.29986 0.17417 0.0
H1265 H 0.62713 0.29787 0.05438 0.0
H1266 H 0.65681 0.23963 0.19937 0.0
H1267 H 0.68528 0.24068 0.17293 0.0
H1268 H 0.67677 0.26504 0.20751 0.0
H1269 H 0.62042 0.26185 0.01778 0.0
H1270 H 0.64241 0.23838 0.02766 0.0
H1271 H 0.61342 0.23706 0.05241 0.0
H1272 H 0.6856 0.17764 0.07763 0.0
H1273 H 0.61652 0.17463 0.13948 0.0
H1274 H 0.69869 0.23887 0.10027 0.0
H1275 H 0.68493 0.23723 0.04984 0.0
H1276 H 0.70612 0.21415 0.06568 0.0
H1277 H 0.61518 0.23488 0.17498 0.0
H1278 H 0.59625 0.20919 0.16295 0.0
H1279 H 0.59967 0.2336 0.12603 0.0
C1280 C 0.5565 0.89247 0.89542 0.0
C1281 C 0.56824 0.91195 0.87582 0.0
C1282 C 0.53116 0.89051 0.89506 0.0
C1283 C 0.51719 0.90851 0.8748 0.0
C1284 C 0.52885 0.9287 0.85641 0.0
C1285 C 0.55424 0.93016 0.85707 0.0
C1286 C 0.5194 0.8687 0.91503 0.0
C1287 C 0.51456 0.94836 0.8348 0.0
C1288 C 0.45556 0.88994 0.83289 0.0
C1289 C 0.43991 0.89885 0.86381 0.0
C1290 C 0.48072 0.89308 0.83605 0.0
C1291 C 0.49049 0.90551 0.87088 0.0
C1292 C 0.4748 0.91474 0.90204 0.0
C1293 C 0.44971 0.91126 0.89818 0.0
C1294 C 0.49687 0.8829 0.80223 0.0
C1295 C 0.48455 0.92817 0.93954 0.0
H1296 H 0.56714 0.8783 0.90999 0.0
H1297 H 0.56313 0.94531 0.84198 0.0
H1298 H 0.5053 0.87452 0.9376 0.0
H1299 H 0.51027 0.85767 0.89069 0.0
H1300 H 0.53269 0.85705 0.9316 0.0
H1301 H 0.5262 0.96367 0.82462 0.0
H1302 H 0.50534 0.94075 0.80692 0.0
H1303 H 0.50028 0.95545 0.8559 0.0
H1304 H 0.44818 0.88031 0.80627 0.0
H1305 H 0.43776 0.91824 0.9222 0.0
H1306 H 0.50964 0.86956 0.81589 0.0
H1307 H 0.50787 0.89759 0.78816 0.0
H1308 H 0.48641 0.87385 0.77702 0.0
H1309 H 0.49682 0.9162 0.95761 0.0
H1310 H 0.46991 0.93462 0.96059 0.0
H1311 H 0.49537 0.944 0.9292 0.0
C1312 C 0.84332 0.29593 0.8559 0.0
C1313 C 0.86565 0.30631 0.84499 0.0
C1314 C 0.84124 0.27092 0.86309 0.0
C1315 C 0.86196 0.25598 0.85916 0.0
C1316 C 0.88432 0.26624 0.84672 0.0
C1317 C 0.88589 0.29126 0.83983 0.0
C1318 C 0.8171 0.26062 0.87629 0.0
C1319 C 0.90681 0.2509 0.84204 0.0
C1320 C 0.86747 0.1983 0.92256 0.0
C1321 C 0.86327 0.18041 0.8923 0.0
C1322 C 0.86629 0.22296 0.91242 0.0
C1323 C 0.86084 0.22995 0.87094 0.0
C1324 C 0.85582 0.21203 0.84049 0.0
C1325 C 0.85705 0.18743 0.85156 0.0
C1326 C 0.87162 0.24152 0.94587 0.0
C1327 C 0.84994 0.21883 0.79595 0.0
H1328 H 0.82757 0.30741 0.85985 0.0
H1329 H 0.90318 0.29908 0.83114 0.0
H1330 H 0.81219 0.24498 0.85624 0.0
H1331 H 0.81833 0.25386 0.90887 0.0
H1332 H 0.80235 0.27427 0.87466 0.0
H1333 H 0.92238 0.26138 0.82953 0.0
H1334 H 0.912 0.24331 0.87287 0.0
H1335 H 0.90323 0.2354 0.82086 0.0
H1336 H 0.87211 0.19305 0.9542 0.0
H1337 H 0.85374 0.17371 0.82802 0.0
H1338 H 0.85666 0.25487 0.94783 0.0
H1339 H 0.88833 0.25163 0.9377 0.0
H1340 H 0.87415 0.23315 0.97713 0.0
H1341 H 0.83494 0.23219 0.79519 0.0
H1342 H 0.84472 0.20287 0.77683 0.0
H1343 H 0.86593 0.22754 0.78131 0.0
C1344 C 0.55945 0.10259 0.59661 0.0
C1345 C 0.56857 0.11551 0.63094 0.0
C1346 C 0.5344 0.10134 0.58903 0.0
C1347 C 0.51818 0.11341 0.61626 0.0
C1348 C 0.5273 0.1264 0.65097 0.0
C1349 C 0.55234 0.12722 0.65794 0.0
C1350 C 0.52529 0.08718 0.55186 0.0
C1351 C 0.51061 0.13963 0.68063 0.0
C1352 C 0.45531 0.13206 0.58083 0.0
C1353 C 0.44071 0.11502 0.60136 0.0
C1354 C 0.48064 0.13125 0.58423 0.0
C1355 C 0.49163 0.11286 0.6085 0.0
C1356 C 0.47704 0.09504 0.62794 0.0
C1357 C 0.45174 0.09638 0.62427 0.0
C1358 C 0.49557 0.15065 0.56318 0.0
C1359 C 0.48811 0.07502 0.6538 0.0
H1360 H 0.57187 0.09344 0.57566 0.0
H1361 H 0.55919 0.13728 0.68451 0.0
H1362 H 0.51243 0.07299 0.56232 0.0
H1363 H 0.51526 0.09937 0.53041 0.0
H1364 H 0.54022 0.07841 0.53417 0.0
H1365 H 0.52061 0.14886 0.7062 0.0
H1366 H 0.49995 0.15339 0.6633 0.0
H1367 H 0.49754 0.12674 0.69473 0.0
H1368 H 0.44695 0.14649 0.56297 0.0
H1369 H 0.4406 0.08303 0.63996 0.0
H1370 H 0.50994 0.14232 0.54369 0.0
H1371 H 0.5047 0.16189 0.58723 0.0
H1372 H 0.48441 0.1627 0.54314 0.0
H1373 H 0.50249 0.06564 0.63578 0.0
H1374 H 0.47447 0.06145 0.66388 0.0
H1375 H 0.49674 0.08284 0.68204 0.0
C1376 C 0.64067 0.70619 0.42507 0.0
C1377 C 0.64768 0.69309 0.38954 0.0
C1378 C 0.64218 0.73155 0.42596 0.0
C1379 C 0.65106 0.7441 0.39055 0.0
C1380 C 0.65867 0.73097 0.35492 0.0
C1381 C 0.65681 0.70561 0.35477 0.0
C1382 C 0.63377 0.74493 0.46449 0.0
C1383 C 0.66841 0.74373 0.31672 0.0
C1384 C 0.63059 0.80938 0.38008 0.0
C1385 C 0.65032 0.822 0.3971 0.0
C1386 C 0.63089 0.78406 0.37671 0.0
C1387 C 0.65147 0.77103 0.39045 0.0
C1388 C 0.67183 0.78369 0.40611 0.0
C1389 C 0.67099 0.80904 0.40935 0.0
C1390 C 0.6088 0.77121 0.35986 0.0
C1391 C 0.69418 0.7704 0.42069 0.0
H1392 H 0.63359 0.69668 0.45206 0.0
H1393 H 0.66236 0.69561 0.32724 0.0
H1394 H 0.64854 0.7566 0.47659 0.0
H1395 H 0.61836 0.75696 0.45642 0.0
H1396 H 0.62793 0.73246 0.48979 0.0
H1397 H 0.67466 0.73082 0.29236 0.0
H1398 H 0.65414 0.75545 0.30307 0.0
H1399 H 0.68376 0.75565 0.3255 0.0
H1400 H 0.61456 0.81923 0.37043 0.0
H1401 H 0.68636 0.81864 0.42236 0.0
H1402 H 0.60072 0.75977 0.38472 0.0
H1403 H 0.61397 0.75901 0.33379 0.0
H1404 H 0.59478 0.78404 0.34848 0.0
H1405 H 0.68972 0.75925 0.44848 0.0
H1406 H 0.70913 0.78296 0.42907 0.0
H1407 H 0.70067 0.75788 0.39599 0.0
C1408 C 0.94738 0.91176 0.08541 0.0
C1409 C 0.93961 0.9062 0.12604 0.0
C1410 C 0.97216 0.91211 0.0753 0.0
C1411 C 0.98949 0.90642 0.10641 0.0
C1412 C 0.98175 0.90131 0.14763 0.0
C1413 C 0.95695 0.90143 0.15699 0.0
C1414 C 0.97977 0.91804 0.03117 0.0
C1415 C 0.99962 0.8949 0.18162 0.0
C1416 C 0.05032 0.87967 0.07619 0.0
C1417 C 0.06605 0.89915 0.08352 0.0
C1418 C 0.02528 0.88201 0.0824 0.0
C1419 C 0.01566 0.9045 0.09569 0.0
C1420 C 0.03131 0.92453 0.10149 0.0
C1421 C 0.05636 0.92157 0.09564 0.0
C1422 C 0.00924 0.86013 0.07635 0.0
C1423 C 0.02167 0.94889 0.115 0.0
H1424 H 0.93409 0.91559 0.06138 0.0
H1425 H 0.95113 0.89707 0.18846 0.0
H1426 H 0.99361 0.93261 0.03131 0.0
H1427 H 0.98818 0.90189 0.01652 0.0
H1428 H 0.96426 0.92391 0.01153 0.0
H1429 H 0.9907 0.89209 0.21236 0.0
H1430 H 0.00942 0.87806 0.17306 0.0
H1431 H 0.01333 0.90945 0.18494 0.0
H1432 H 0.05764 0.86227 0.06687 0.0
H1433 H 0.06838 0.93677 0.10105 0.0
H1434 H 0.9943 0.86442 0.05442 0.0
H1435 H 0.00087 0.855 0.10662 0.0
H1436 H 0.01938 0.84427 0.06406 0.0
H1437 H 0.00653 0.95454 0.09442 0.0
H1438 H 0.03586 0.96315 0.1144 0.0
H1439 H 0.01439 0.9476 0.14724 0.0
C1440 C 0.65916 0.80383 0.86485 0.0
C1441 C 0.63613 0.8137 0.85749 0.0
C1442 C 0.66248 0.77868 0.86796 0.0
C1443 C 0.64224 0.76308 0.86428 0.0
C1444 C 0.61906 0.77292 0.85592 0.0
C1445 C 0.61633 0.7981 0.85233 0.0
C1446 C 0.68754 0.76883 0.87623 0.0
C1447 C 0.59698 0.75692 0.85228 0.0
C1448 C 0.64942 0.69537 0.84613 0.0
C1449 C 0.64639 0.68624 0.88671 0.0
C1450 C 0.64888 0.72043 0.83843 0.0
C1451 C 0.6449 0.73665 0.87201 0.0
C1452 C 0.64235 0.72755 0.91311 0.0
C1453 C 0.64329 0.7025 0.91998 0.0
C1454 C 0.65206 0.72951 0.79428 0.0
C1455 C 0.63783 0.74422 0.94974 0.0
H1456 H 0.67459 0.81578 0.86851 0.0
H1457 H 0.59848 0.80558 0.84669 0.0
H1458 H 0.68812 0.76041 0.90768 0.0
H1459 H 0.69204 0.75449 0.8532 0.0
H1460 H 0.70164 0.78315 0.87471 0.0
H1461 H 0.58044 0.76731 0.84394 0.0
H1462 H 0.59997 0.74276 0.82826 0.0
H1463 H 0.59374 0.74753 0.88243 0.0
H1464 H 0.65194 0.68292 0.82029 0.0
H1465 H 0.64089 0.69564 0.95143 0.0
H1466 H 0.66651 0.74347 0.79315 0.0
H1467 H 0.63508 0.73823 0.78349 0.0
H1468 H 0.65677 0.71473 0.77218 0.0
H1469 H 0.65242 0.75797 0.95186 0.0
H1470 H 0.63689 0.7343 0.97989 0.0
H1471 H 0.62053 0.75408 0.94511 0.0
C1472 C 0.44962 0.39878 0.126 0.0
C1473 C 0.43919 0.37652 0.1149 0.0
C1474 C 0.47476 0.40101 0.13162 0.0
C1475 C 0.48978 0.38049 0.12596 0.0
C1476 C 0.47943 0.35818 0.1135 0.0
C1477 C 0.45428 0.35646 0.10815 0.0
C1478 C 0.48514 0.42511 0.14489 0.0
C1479 C 0.49485 0.33589 0.10707 0.0
C1480 C 0.55805 0.38676 0.11376 0.0
C1481 C 0.56613 0.38041 0.15385 0.0
C1482 C 0.53318 0.38747 0.10437 0.0
C1483 C 0.51608 0.38179 0.13586 0.0
C1484 C 0.52414 0.37611 0.17667 0.0
C1485 C 0.54903 0.37546 0.18513 0.0
C1486 C 0.52524 0.3936 0.06049 0.0
C1487 C 0.50647 0.37009 0.21121 0.0
H1488 H 0.43812 0.41441 0.13114 0.0
H1489 H 0.44642 0.33921 0.09934 0.0
H1490 H 0.49284 0.42355 0.17679 0.0
H1491 H 0.50012 0.43047 0.12373 0.0
H1492 H 0.47129 0.43971 0.14498 0.0
H1493 H 0.48423 0.32033 0.0949 0.0
H1494 H 0.50978 0.33983 0.08488 0.0
H1495 H 0.50325 0.33049 0.13716 0.0
H1496 H 0.57115 0.39062 0.08943 0.0
H1497 H 0.55509 0.3707 0.21628 0.0
H1498 H 0.51179 0.40851 0.06107 0.0
H1499 H 0.51626 0.37765 0.04618 0.0
H1500 H 0.54068 0.39906 0.04031 0.0
H1501 H 0.49301 0.38486 0.21474 0.0
H1502 H 0.51563 0.36725 0.24172 0.0
H1503 H 0.49636 0.35338 0.20311 0.0
C1504 C 0.86079 0.20941 0.40613 0.0
C1505 C 0.85176 0.19344 0.37583 0.0
C1506 C 0.85746 0.2345 0.40243 0.0
C1507 C 0.84466 0.24389 0.36769 0.0
C1508 C 0.83522 0.22788 0.33724 0.0
C1509 C 0.83894 0.20283 0.3416 0.0
C1510 C 0.86792 0.25099 0.4355 0.0
C1511 C 0.82135 0.23723 0.29993 0.0
C1512 C 0.82106 0.30796 0.38196 0.0
C1513 C 0.83941 0.32165 0.36295 0.0
C1514 C 0.82196 0.28254 0.38216 0.0
C1515 C 0.84174 0.27055 0.36307 0.0
C1516 C 0.85974 0.28422 0.3422 0.0
C1517 C 0.85832 0.30959 0.34229 0.0
C1518 C 0.80229 0.26857 0.40438 0.0
C1519 C 0.88113 0.27211 0.32149 0.0
H1520 H 0.87073 0.20234 0.43265 0.0
H1521 H 0.83183 0.19061 0.3181 0.0
H1522 H 0.88115 0.26361 0.42111 0.0
H1523 H 0.85334 0.26215 0.44959 0.0
H1524 H 0.87717 0.24079 0.4608 0.0
H1525 H 0.81455 0.22236 0.2797 0.0
H1526 H 0.80572 0.24828 0.31047 0.0
H1527 H 0.83314 0.24919 0.28093 0.0
H1528 H 0.80631 0.3171 0.3978 0.0
H1529 H 0.87257 0.31999 0.32741 0.0
H1530 H 0.80992 0.25975 0.43261 0.0
H1531 H 0.79514 0.25402 0.38392 0.0
H1532 H 0.78702 0.28039 0.41414 0.0
H1533 H 0.89252 0.26321 0.34556 0.0
H1534 H 0.89255 0.28516 0.30389 0.0
H1535 H 0.87488 0.2578 0.29969 0.0
C1536 C 0.94622 0.61045 0.60257 0.0
C1537 C 0.93619 0.59311 0.62957 0.0
C1538 C 0.97139 0.61372 0.59992 0.0
C1539 C 0.9869 0.59937 0.62497 0.0
C1540 C 0.97695 0.58115 0.65092 0.0
C1541 C 0.95172 0.5782 0.65284 0.0
C1542 C 0.98131 0.63323 0.57164 0.0
C1543 C 0.9929 0.56546 0.67806 0.0
C1544 C 0.05439 0.59786 0.60092 0.0
C1545 C 0.06351 0.61443 0.63022 0.0
C1546 C 0.02948 0.59276 0.59874 0.0
C1547 C 0.01334 0.60461 0.62637 0.0
C1548 C 0.02243 0.62147 0.65577 0.0
C1549 C 0.04738 0.62613 0.65741 0.0
C1550 C 0.02046 0.57461 0.56708 0.0
C1551 C 0.00578 0.63459 0.68564 0.0
H1552 H 0.93438 0.62198 0.5843 0.0
H1553 H 0.94417 0.56473 0.67374 0.0
H1554 H 0.98962 0.64777 0.5908 0.0
H1555 H 0.99573 0.62575 0.55123 0.0
H1556 H 0.96705 0.64141 0.55164 0.0
H1557 H 0.98254 0.55089 0.69398 0.0
H1558 H 0.00746 0.55705 0.65908 0.0
H1559 H 0.00178 0.57681 0.70223 0.0
H1560 H 0.06673 0.5887 0.57982 0.0
H1561 H 0.05424 0.63902 0.68004 0.0
H1562 H 0.00691 0.58321 0.54625 0.0
H1563 H 0.01126 0.55941 0.58327 0.0
H1564 H 0.03533 0.56712 0.54758 0.0
H1565 H 0.99196 0.64494 0.66789 0.0
H1566 H 0.01569 0.64733 0.70635 0.0
H1567 H 0.99598 0.62131 0.70541 0.0
C1568 C 0.65952 0.20314 0.69661 0.0
C1569 C 0.65534 0.18948 0.66034 0.0
C1570 C 0.66183 0.22844 0.69478 0.0
C1571 C 0.65965 0.24037 0.65582 0.0
C1572 C 0.65587 0.22665 0.61902 0.0
C1573 C 0.65388 0.20136 0.62169 0.0
C1574 C 0.66611 0.24244 0.73463 0.0
C1575 C 0.65323 0.23874 0.57693 0.0
C1576 C 0.63814 0.30559 0.65387 0.0
C1577 C 0.65963 0.31818 0.6451 0.0
C1578 C 0.638 0.28032 0.65801 0.0
C1579 C 0.65993 0.26728 0.65373 0.0
C1580 C 0.68181 0.2799 0.64609 0.0
C1581 C 0.68139 0.30521 0.64164 0.0
C1582 C 0.61425 0.26752 0.66588 0.0
C1583 C 0.70558 0.2666 0.64185 0.0
H1584 H 0.66085 0.19408 0.72656 0.0
H1585 H 0.65065 0.19095 0.59352 0.0
H1586 H 0.68216 0.25437 0.73117 0.0
H1587 H 0.65032 0.25427 0.74118 0.0
H1588 H 0.66899 0.23035 0.76193 0.0
H1589 H 0.65127 0.22543 0.55111 0.0
H1590 H 0.63708 0.25069 0.57707 0.0
H1591 H 0.66921 0.25031 0.57044 0.0
H1592 H 0.62122 0.31542 0.65651 0.0
H1593 H 0.69808 0.31481 0.63503 0.0
H1594 H 0.6155 0.25634 0.69459 0.0
H1595 H 0.6102 0.25509 0.63955 0.0
H1596 H 0.5989 0.28036 0.66941 0.0
H1597 H 0.70871 0.25502 0.66965 0.0
H1598 H 0.72116 0.27916 0.63829 0.0
H1599 H 0.70496 0.25448 0.61422 0.0
C1600 C 0.04377 0.40999 0.88938 0.0
C1601 C 0.05427 0.39883 0.85436 0.0
C1602 C 0.01863 0.41362 0.89183 0.0
C1603 C 0.00365 0.40575 0.85863 0.0
C1604 C 0.01416 0.39467 0.82308 0.0
C1605 C 0.03933 0.39141 0.82132 0.0
C1606 C 0.00809 0.42565 0.9301 0.0
C1607 C 0.99876 0.3859 0.78712 0.0
C1608 C 0.93758 0.39045 0.87693 0.0
C1609 C 0.92581 0.41024 0.85831 0.0
C1610 C 0.96292 0.38919 0.87857 0.0
C1611 C 0.97688 0.40825 0.86144 0.0
C1612 C 0.96515 0.42882 0.84447 0.0
C1613 C 0.93973 0.42955 0.84301 0.0
C1614 C 0.97473 0.36693 0.89692 0.0
C1615 C 0.97945 0.4496 0.82628 0.0
H1616 H 0.0552 0.41589 0.91496 0.0
H1617 H 0.04727 0.38278 0.79416 0.0
H1618 H 0.99715 0.44163 0.92085 0.0
H1619 H 0.99575 0.41291 0.94639 0.0
H1620 H 0.02229 0.43161 0.95244 0.0
H1621 H 0.00978 0.37806 0.76141 0.0
H1622 H 0.98588 0.3719 0.79828 0.0
H1623 H 0.98787 0.40108 0.77439 0.0
H1624 H 0.92701 0.37546 0.88897 0.0
H1625 H 0.93081 0.44495 0.82873 0.0
H1626 H 0.98828 0.37217 0.92084 0.0
H1627 H 0.9845 0.35693 0.87199 0.0
H1628 H 0.96136 0.35449 0.91149 0.0
H1629 H 0.9934 0.45582 0.84881 0.0
H1630 H 0.96772 0.46521 0.8179 0.0
H1631 H 0.98907 0.44345 0.79774 0.0
C1632 C 0.84548 0.80878 0.12116 0.0
C1633 C 0.86923 0.81733 0.12621 0.0
C1634 C 0.84067 0.78388 0.11784 0.0
C1635 C 0.86011 0.76718 0.119 0.0
C1636 C 0.88409 0.77569 0.1245 0.0
C1637 C 0.88834 0.80065 0.12832 0.0
C1638 C 0.81483 0.77546 0.11256 0.0
C1639 C 0.90534 0.75847 0.12542 0.0
C1640 C 0.85024 0.70017 0.14042 0.0
C1641 C 0.85128 0.69044 0.09995 0.0
C1642 C 0.85222 0.72525 0.14707 0.0
C1643 C 0.85563 0.74088 0.11248 0.0
C1644 C 0.85601 0.73122 0.07153 0.0
C1645 C 0.85368 0.70616 0.06576 0.0
C1646 C 0.85134 0.73495 0.19114 0.0
C1647 C 0.85981 0.74726 0.03385 0.0
H1648 H 0.8306 0.82157 0.11987 0.0
H1649 H 0.90674 0.8071 0.13216 0.0
H1650 H 0.81266 0.76654 0.08173 0.0
H1651 H 0.8103 0.76183 0.1368 0.0
H1652 H 0.80167 0.79063 0.11469 0.0
H1653 H 0.9228 0.76795 0.13085 0.0
H1654 H 0.90277 0.74478 0.15039 0.0
H1655 H 0.9065 0.74857 0.09531 0.0
H1656 H 0.84827 0.68815 0.16698 0.0
H1657 H 0.85453 0.69884 0.03437 0.0
H1658 H 0.83784 0.74977 0.19347 0.0
H1659 H 0.86922 0.7427 0.19961 0.0
H1660 H 0.84665 0.7207 0.21426 0.0
H1661 H 0.84608 0.76192 0.03329 0.0
H1662 H 0.85869 0.73703 0.00401 0.0
H1663 H 0.87787 0.756 0.03572 0.0
C1664 C 0.55888 0.60482 0.39778 0.0
C1665 C 0.56621 0.62384 0.37162 0.0
C1666 C 0.53441 0.60191 0.40888 0.0
C1667 C 0.51694 0.6184 0.3934 0.0
C1668 C 0.52427 0.63765 0.36711 0.0
C1669 C 0.54877 0.64013 0.35659 0.0
C1670 C 0.52723 0.58118 0.43703 0.0
C1671 C 0.50619 0.65562 0.34992 0.0
C1672 C 0.45037 0.60196 0.38554 0.0
C1673 C 0.44049 0.61487 0.41926 0.0
C1674 C 0.47538 0.60218 0.37771 0.0
C1675 C 0.49088 0.61563 0.40421 0.0
C1676 C 0.48113 0.62799 0.43913 0.0
C1677 C 0.45605 0.62745 0.44625 0.0
C1678 C 0.48509 0.58873 0.34018 0.0
C1679 C 0.49709 0.64252 0.46812 0.0
H1680 H 0.57225 0.59216 0.40955 0.0
H1681 H 0.55422 0.6549 0.33637 0.0
H1682 H 0.51813 0.58826 0.46544 0.0
H1683 H 0.51404 0.56932 0.42076 0.0
H1684 H 0.54302 0.57007 0.44673 0.0
H1685 H 0.51488 0.66965 0.33005 0.0
H1686 H 0.49235 0.64603 0.331 0.0
H1687 H 0.49658 0.66478 0.37594 0.0
H1688 H 0.43851 0.59206 0.36465 0.0
H1689 H 0.4486 0.63738 0.4725 0.0
H1690 H 0.50024 0.5767 0.34955 0.0
H1691 H 0.49239 0.60186 0.31716 0.0
H1692 H 0.47096 0.57763 0.32459 0.0
H1693 H 0.51245 0.63129 0.47927 0.0
H1694 H 0.48701 0.64949 0.49566 0.0
H1695 H 0.50488 0.65814 0.45096 0.0
C1696 C 0.35205 0.30404 0.14812 0.0
C1697 C 0.33428 0.31623 0.12486 0.0
C1698 C 0.35291 0.27866 0.14921 0.0
C1699 C 0.33562 0.26509 0.12646 0.0
C1700 C 0.31702 0.27725 0.10437 0.0
C1701 C 0.31655 0.30269 0.10388 0.0
C1702 C 0.37296 0.26638 0.17332 0.0
C1703 C 0.29822 0.2634 0.07983 0.0
C1704 C 0.35569 0.20278 0.09014 0.0
C1705 C 0.3449 0.18762 0.11997 0.0
C1706 C 0.35245 0.22797 0.09155 0.0
C1707 C 0.33805 0.2383 0.12354 0.0
C1708 C 0.32674 0.22309 0.15332 0.0
C1709 C 0.33031 0.19792 0.1512 0.0
C1710 C 0.36482 0.24358 0.05919 0.0
C1711 C 0.31123 0.23344 0.18783 0.0
H1712 H 0.36577 0.31433 0.16459 0.0
H1713 H 0.30274 0.31192 0.08585 0.0
H1714 H 0.36534 0.25263 0.19489 0.0
H1715 H 0.38517 0.25677 0.15132 0.0
H1716 H 0.38391 0.27944 0.19178 0.0
H1717 H 0.28383 0.27541 0.06724 0.0
H1718 H 0.30704 0.25394 0.05329 0.0
H1719 H 0.28967 0.24936 0.09974 0.0
H1720 H 0.36695 0.19501 0.06586 0.0
H1721 H 0.32187 0.18635 0.17435 0.0
H1722 H 0.3778 0.25602 0.07469 0.0
H1723 H 0.35127 0.25495 0.04276 0.0
H1724 H 0.37481 0.23269 0.03562 0.0
H1725 H 0.32236 0.24531 0.20815 0.0
H1726 H 0.30288 0.21911 0.20748 0.0
H1727 H 0.29661 0.24481 0.17441 0.0
C1728 C 0.44684 0.61449 0.82621 0.0
C1729 C 0.43079 0.60729 0.85785 0.0
C1730 C 0.47189 0.61524 0.83317 0.0
C1731 C 0.4812 0.60828 0.87257 0.0
C1732 C 0.4652 0.60025 0.90426 0.0
C1733 C 0.44013 0.60003 0.89664 0.0
C1734 C 0.48832 0.62416 0.7987 0.0
C1735 C 0.47453 0.59232 0.94643 0.0
C1736 C 0.54855 0.59429 0.87486 0.0
C1737 C 0.55814 0.61608 0.8902 0.0
C1738 C 0.52345 0.59115 0.87036 0.0
C1739 C 0.50762 0.61039 0.88084 0.0
C1740 C 0.51718 0.63227 0.89697 0.0
C1741 C 0.54232 0.63478 0.90175 0.0
C1742 C 0.5139 0.56743 0.85364 0.0
C1743 C 0.50092 0.65332 0.908 0.0
H1744 H 0.4398 0.62022 0.79618 0.0
H1745 H 0.42784 0.59434 0.92115 0.0
H1746 H 0.49796 0.64073 0.80912 0.0
H1747 H 0.50227 0.61033 0.79147 0.0
H1748 H 0.47824 0.62842 0.76957 0.0
H1749 H 0.45989 0.58511 0.96674 0.0
H1750 H 0.4886 0.57815 0.94256 0.0
H1751 H 0.48317 0.60787 0.96255 0.0
H1752 H 0.56067 0.57968 0.86624 0.0
H1753 H 0.5496 0.65167 0.91357 0.0
H1754 H 0.50522 0.57041 0.82281 0.0
H1755 H 0.49982 0.56009 0.87489 0.0
H1756 H 0.52842 0.55368 0.84991 0.0
H1757 H 0.49133 0.6597 0.87959 0.0
H1758 H 0.51113 0.66877 0.92155 0.0
H1759 H 0.48692 0.64752 0.93075 0.0
C1760 C 0.1849 0.70386 0.6272 0.0
C1761 C 0.16459 0.68964 0.63678 0.0
C1762 C 0.185 0.72889 0.63504 0.0
C1763 C 0.16429 0.73995 0.65284 0.0
C1764 C 0.14407 0.72556 0.66394 0.0
C1765 C 0.14447 0.70059 0.65581 0.0
C1766 C 0.20694 0.74363 0.62292 0.0
C1767 C 0.12166 0.73666 0.68304 0.0
C1768 C 0.16842 0.80347 0.69848 0.0
C1769 C 0.15902 0.81754 0.66576 0.0
C1770 C 0.17053 0.7782 0.69461 0.0
C1771 C 0.16303 0.76676 0.6572 0.0
C1772 C 0.15373 0.78089 0.62397 0.0
C1773 C 0.15185 0.80607 0.62864 0.0
C1774 C 0.18058 0.76372 0.73067 0.0
C1775 C 0.1455 0.76937 0.58357 0.0
H1776 H 0.20056 0.69555 0.61265 0.0
H1777 H 0.12873 0.68976 0.66352 0.0
H1778 H 0.20211 0.75623 0.59723 0.0
H1779 H 0.21307 0.75481 0.64971 0.0
H1780 H 0.22225 0.73209 0.6124 0.0
H1781 H 0.10814 0.72278 0.69241 0.0
H1782 H 0.12653 0.74756 0.71092 0.0
H1783 H 0.11306 0.74911 0.66023 0.0
H1784 H 0.17405 0.81217 0.72724 0.0
H1785 H 0.14459 0.81675 0.60315 0.0
H1786 H 0.19643 0.75297 0.72019 0.0
H1787 H 0.16674 0.75071 0.74197 0.0
H1788 H 0.18621 0.7754 0.75721 0.0
H1789 H 0.16058 0.75892 0.56942 0.0
H1790 H 0.13909 0.78295 0.56048 0.0
H1791 H 0.13056 0.75644 0.58985 0.0
C1792 C 0.05895 0.39625 0.38733 0.0
C1793 C 0.06721 0.3809 0.35542 0.0
C1794 C 0.03407 0.39873 0.39564 0.0
C1795 C 0.01713 0.38545 0.37159 0.0
C1796 C 0.02538 0.36998 0.33934 0.0
C1797 C 0.05028 0.36793 0.33161 0.0
C1798 C 0.0259 0.41547 0.43017 0.0
C1799 C 0.00789 0.35545 0.31306 0.0
C1800 C 0.95412 0.37149 0.4124 0.0
C1801 C 0.93984 0.38768 0.3893 0.0
C1802 C 0.97941 0.37114 0.40804 0.0
C1803 C 0.99071 0.38746 0.38004 0.0
C1804 C 0.9765 0.40447 0.35782 0.0
C1805 C 0.95123 0.40434 0.36264 0.0
C1806 C 0.99394 0.35269 0.43221 0.0
C1807 C 0.98791 0.42225 0.32786 0.0
H1808 H 0.07192 0.40635 0.40583 0.0
H1809 H 0.05646 0.35599 0.30693 0.0
H1810 H 0.01344 0.4294 0.41745 0.0
H1811 H 0.01569 0.40511 0.45407 0.0
H1812 H 0.04134 0.42474 0.44566 0.0
H1813 H 0.01726 0.34426 0.28914 0.0
H1814 H 0.99704 0.3433 0.33335 0.0
H1815 H 0.99505 0.36776 0.29696 0.0
H1816 H 0.9455 0.35861 0.43318 0.0
H1817 H 0.94036 0.41704 0.34488 0.0
H1818 H 0.00885 0.3617 0.44946 0.0
H1819 H 0.00234 0.33962 0.41021 0.0
H1820 H 0.98264 0.34245 0.45486 0.0
H1821 H 0.0028 0.43225 0.34348 0.0
H1822 H 0.9746 0.43554 0.31557 0.0
H1823 H 0.99594 0.41232 0.30109 0.0
C1824 C 0.31697 0.69431 0.41378 0.0
C1825 C 0.3353 0.68083 0.39421 0.0
C1826 C 0.31662 0.71971 0.41144 0.0
C1827 C 0.3351 0.73191 0.38914 0.0
C1828 C 0.35301 0.71838 0.36777 0.0
C1829 C 0.35285 0.69301 0.37046 0.0
C1830 C 0.29709 0.73351 0.43433 0.0
C1831 C 0.37302 0.73071 0.34364 0.0
C1832 C 0.32854 0.79851 0.3608 0.0
C1833 C 0.34227 0.80968 0.3923 0.0
C1834 C 0.32565 0.77323 0.35973 0.0
C1835 C 0.33685 0.7588 0.39075 0.0
C1836 C 0.35043 0.77 0.42292 0.0
C1837 C 0.35292 0.79527 0.42336 0.0
C1838 C 0.31091 0.76194 0.3251 0.0
C1839 C 0.36272 0.75523 0.45652 0.0
H1840 H 0.30325 0.68507 0.43203 0.0
H1841 H 0.36706 0.68279 0.35511 0.0
H1842 H 0.30523 0.74363 0.46079 0.0
H1843 H 0.28855 0.74699 0.4133 0.0
H1844 H 0.28278 0.72136 0.44685 0.0
H1845 H 0.38449 0.71761 0.32625 0.0
H1846 H 0.36532 0.74388 0.3211 0.0
H1847 H 0.38473 0.74101 0.36551 0.0
H1848 H 0.32019 0.8095 0.33673 0.0
H1849 H 0.36355 0.80371 0.44782 0.0
H1850 H 0.29637 0.75044 0.33847 0.0
H1851 H 0.32262 0.75001 0.30585 0.0
H1852 H 0.30252 0.77574 0.3044 0.0
H1853 H 0.3492 0.7439 0.47311 0.0
H1854 H 0.3722 0.76674 0.47982 0.0
H1855 H 0.37612 0.74278 0.44215 0.0
C1856 C 0.95421 0.64088 0.09112 0.0
C1857 C 0.93873 0.62146 0.10019 0.0
C1858 C 0.9793 0.63892 0.09717 0.0
C1859 C 0.98916 0.61687 0.11199 0.0
C1860 C 0.97372 0.59689 0.11968 0.0
C1861 C 0.94864 0.5995 0.11405 0.0
C1862 C 0.99512 0.66074 0.08919 0.0
C1863 C 0.98363 0.57297 0.13484 0.0
C1864 C 0.05732 0.60898 0.10119 0.0
C1865 C 0.06527 0.61519 0.14141 0.0
C1866 C 0.03251 0.60878 0.09135 0.0
C1867 C 0.01537 0.61534 0.12228 0.0
C1868 C 0.02331 0.62131 0.16304 0.0
C1869 C 0.04812 0.62097 0.17218 0.0
C1870 C 0.02465 0.60192 0.04775 0.0
C1871 C 0.00563 0.62869 0.19677 0.0
H1872 H 0.94666 0.65792 0.08046 0.0
H1873 H 0.93678 0.58434 0.12071 0.0
H1874 H 0.00367 0.66666 0.11887 0.0
H1875 H 0.00995 0.65602 0.06727 0.0
H1876 H 0.98478 0.67621 0.07599 0.0
H1877 H 0.96952 0.55864 0.13585 0.0
H1878 H 0.99858 0.56683 0.11423 0.0
H1879 H 0.99125 0.57517 0.16668 0.0
H1880 H 0.07048 0.60439 0.07734 0.0
H1881 H 0.05409 0.62589 0.2033 0.0
H1882 H 0.01591 0.61766 0.03238 0.0
H1883 H 0.01101 0.58719 0.04909 0.0
H1884 H 0.04008 0.59585 0.02808 0.0
H1885 H 0.99567 0.64518 0.18692 0.0
H1886 H 0.01474 0.63247 0.22703 0.0
H1887 H 0.99203 0.61419 0.20171 0.0
C1888 C 0.15111 0.2064 0.86204 0.0
C1889 C 0.15489 0.1949 0.82348 0.0
C1890 C 0.15219 0.23169 0.86565 0.0
C1891 C 0.15717 0.2459 0.82985 0.0
C1892 C 0.16127 0.23443 0.79091 0.0
C1893 C 0.16007 0.20906 0.78817 0.0
C1894 C 0.1477 0.24323 0.90776 0.0
C1895 C 0.16665 0.249 0.75208 0.0
C1896 C 0.13541 0.31099 0.83547 0.0
C1897 C 0.15648 0.32322 0.84797 0.0
C1898 C 0.13558 0.28594 0.82817 0.0
C1899 C 0.15737 0.27278 0.83326 0.0
C1900 C 0.17892 0.28513 0.84426 0.0
C1901 C 0.17821 0.31021 0.8516 0.0
C1902 C 0.1122 0.27343 0.81655 0.0
C1903 C 0.20254 0.27173 0.84967 0.0
H1904 H 0.14716 0.19565 0.88953 0.0
H1905 H 0.16306 0.20034 0.75827 0.0
H1906 H 0.16342 0.25458 0.9168 0.0
H1907 H 0.13167 0.25531 0.90602 0.0
H1908 H 0.14454 0.22959 0.9327 0.0
H1909 H 0.17015 0.23732 0.72446 0.0
H1910 H 0.15115 0.26109 0.74492 0.0
H1911 H 0.18268 0.26072 0.75734 0.0
H1912 H 0.11854 0.32087 0.83247 0.0
H1913 H 0.1946 0.31952 0.86103 0.0
H1914 H 0.10681 0.26083 0.8419 0.0
H1915 H 0.11472 0.26247 0.78783 0.0
H1916 H 0.09718 0.28645 0.81125 0.0
H1917 H 0.20117 0.25922 0.87669 0.0
H1918 H 0.21802 0.2842 0.85504 0.0
H1919 H 0.20643 0.26056 0.82164 0.0
C1920 C 0.44677 0.37047 0.66692 0.0
C1921 C 0.43021 0.383 0.64167 0.0
C1922 C 0.47169 0.37133 0.65882 0.0
C1923 C 0.48036 0.38511 0.62467 0.0
C1924 C 0.4638 0.3979 0.5991 0.0
C1925 C 0.43888 0.39667 0.60786 0.0
C1926 C 0.48877 0.35737 0.68677 0.0
C1927 C 0.47241 0.41285 0.5625 0.0
C1928 C 0.54678 0.40235 0.631 0.0
C1929 C 0.55762 0.38426 0.60651 0.0
C1930 C 0.52155 0.40341 0.63589 0.0
C1931 C 0.5068 0.38593 0.61593 0.0
C1932 C 0.51755 0.36813 0.59005 0.0
C1933 C 0.54283 0.36753 0.58559 0.0
C1934 C 0.51073 0.42275 0.66358 0.0
C1935 C 0.50242 0.34915 0.5683 0.0
H1936 H 0.44027 0.35984 0.69308 0.0
H1937 H 0.4262 0.40641 0.58822 0.0
H1938 H 0.49918 0.34406 0.668 0.0
H1939 H 0.50203 0.3699 0.70127 0.0
H1940 H 0.47911 0.34752 0.71203 0.0
H1941 H 0.45724 0.42188 0.54587 0.0
H1942 H 0.48531 0.4269 0.57339 0.0
H1943 H 0.48227 0.40117 0.54 0.0
H1944 H 0.55805 0.41545 0.64707 0.0
H1945 H 0.55102 0.35355 0.56648 0.0
H1946 H 0.50243 0.41422 0.69151 0.0
H1947 H 0.49614 0.43253 0.64677 0.0
H1948 H 0.52446 0.43611 0.67419 0.0
H1949 H 0.49369 0.3373 0.5919 0.0
H1950 H 0.51336 0.33765 0.54696 0.0
H1951 H 0.48775 0.35785 0.55001 0.0
C1952 C 0.15888 0.10046 0.53446 0.0
C1953 C 0.15417 0.07832 0.51454 0.0
C1954 C 0.16326 0.10156 0.57751 0.0
C1955 C 0.16317 0.07996 0.60129 0.0
C1956 C 0.1598 0.05739 0.58108 0.0
C1957 C 0.15518 0.05684 0.53789 0.0
C1958 C 0.16674 0.12602 0.59784 0.0
C1959 C 0.16001 0.03394 0.60532 0.0
C1960 C 0.18742 0.08764 0.71149 0.0
C1961 C 0.166 0.09205 0.73384 0.0
C1962 C 0.18679 0.08228 0.66858 0.0
C1963 C 0.16423 0.08152 0.64761 0.0
C1964 C 0.14252 0.0848 0.67045 0.0
C1965 C 0.14367 0.08994 0.71326 0.0
C1966 C 0.21029 0.07853 0.64536 0.0
C1967 C 0.11808 0.08416 0.64926 0.0
H1968 H 0.15831 0.11716 0.51669 0.0
H1969 H 0.15179 0.03964 0.52267 0.0
H1970 H 0.15132 0.12981 0.61912 0.0
H1971 H 0.18347 0.1261 0.61701 0.0
H1972 H 0.16792 0.1409 0.57458 0.0
H1973 H 0.16058 0.01788 0.58443 0.0
H1974 H 0.17582 0.03328 0.62668 0.0
H1975 H 0.14346 0.03278 0.62488 0.0
H1976 H 0.20475 0.089 0.72723 0.0
H1977 H 0.127 0.0931 0.73031 0.0
H1978 H 0.21382 0.09435 0.62488 0.0
H1979 H 0.20915 0.06231 0.62497 0.0
H1980 H 0.22591 0.07636 0.66693 0.0
H1981 H 0.11657 0.09959 0.62719 0.0
H1982 H 0.10289 0.08528 0.67195 0.0
H1983 H 0.11608 0.06727 0.63081 0.0
C1984 C 0.14802 0.91961 0.78155 0.0
C1985 C 0.16925 0.92029 0.75751 0.0
C1986 C 0.14852 0.9243 0.82452 0.0
C1987 C 0.17078 0.93009 0.84404 0.0
C1988 C 0.1921 0.93206 0.81969 0.0
C1989 C 0.19112 0.92698 0.77665 0.0
C1990 C 0.12535 0.92193 0.84935 0.0
C1991 C 0.21608 0.9386 0.83932 0.0
C1992 C 0.16229 0.95367 0.9544 0.0
C1993 C 0.16424 0.93219 0.97758 0.0
C1994 C 0.16613 0.95371 0.91098 0.0
C1995 C 0.17175 0.93172 0.89038 0.0
C1996 C 0.17523 0.91035 0.91402 0.0
C1997 C 0.17156 0.91087 0.95731 0.0
C1998 C 0.16277 0.97698 0.88692 0.0
C1999 C 0.18119 0.88649 0.89329 0.0
H2000 H 0.13099 0.9146 0.76707 0.0
H2001 H 0.20758 0.92776 0.75824 0.0
H2002 H 0.127 0.90667 0.87175 0.0
H2003 H 0.12206 0.9386 0.86783 0.0
H2004 H 0.10935 0.9186 0.82911 0.0
H2005 H 0.23013 0.94271 0.8155 0.0
H2006 H 0.21403 0.95451 0.86021 0.0
H2007 H 0.22255 0.92329 0.85878 0.0
H2008 H 0.15692 0.97028 0.96988 0.0
H2009 H 0.17336 0.89422 0.97497 0.0
H2010 H 0.14533 0.97634 0.86976 0.0
H2011 H 0.17739 0.97928 0.86346 0.0
H2012 H 0.16258 0.99305 0.90782 0.0
H2013 H 0.1655 0.88042 0.87432 0.0
H2014 H 0.18552 0.8721 0.91636 0.0
H2015 H 0.19681 0.88859 0.87181 0.0
C2016 C 0.33786 0.89947 0.0309 0.0
C2017 C 0.35264 0.91743 0.01327 0.0
C2018 C 0.33597 0.89687 0.07436 0.0
C2019 C 0.34919 0.9126 0.10078 0.0
C2020 C 0.36284 0.93177 0.08324 0.0
C2021 C 0.36438 0.93398 0.03964 0.0
C2022 C 0.32105 0.87632 0.09188 0.0
C2023 C 0.37709 0.94899 0.11042 0.0
C2024 C 0.33623 0.91098 0.21748 0.0
C2025 C 0.35427 0.89503 0.23158 0.0
C2026 C 0.33444 0.91715 0.17499 0.0
C2027 C 0.35109 0.90716 0.14612 0.0
C2028 C 0.3695 0.89132 0.1603 0.0
C2029 C 0.37084 0.88545 0.20281 0.0
C2030 C 0.3146 0.9341 0.16092 0.0
C2031 C 0.38766 0.88033 0.13049 0.0
H2032 H 0.32852 0.88674 0.01076 0.0
H2033 H 0.3757 0.94803 0.0263 0.0
H2034 H 0.33327 0.86241 0.10536 0.0
H2035 H 0.30916 0.88288 0.11743 0.0
H2036 H 0.30963 0.86757 0.06762 0.0
H2037 H 0.38418 0.96468 0.09245 0.0
H2038 H 0.36572 0.95584 0.13643 0.0
H2039 H 0.39265 0.93924 0.1245 0.0
H2040 H 0.32337 0.91848 0.23956 0.0
H2041 H 0.38488 0.87319 0.21342 0.0
H2042 H 0.30242 0.92461 0.13873 0.0
H2043 H 0.32249 0.94977 0.14407 0.0
H2044 H 0.3036 0.94095 0.18749 0.0
H2045 H 0.37813 0.86916 0.10681 0.0
H2046 H 0.40116 0.86874 0.14671 0.0
H2047 H 0.39746 0.89485 0.11351 0.0
C2048 C 0.36762 0.06943 0.47318 0.0
C2049 C 0.35555 0.0863 0.49852 0.0
C2050 C 0.3664 0.07093 0.42945 0.0
C2051 C 0.35272 0.08969 0.4107 0.0
C2052 C 0.33929 0.10582 0.43609 0.0
C2053 C 0.34087 0.10394 0.47971 0.0
C2054 C 0.3809 0.05333 0.40341 0.0
C2055 C 0.32434 0.12595 0.41726 0.0
C2056 C 0.37413 0.11457 0.30671 0.0
C2057 C 0.35762 0.10417 0.27869 0.0
C2058 C 0.37284 0.10972 0.34962 0.0
C2059 C 0.35456 0.09411 0.365 0.0
C2060 C 0.33799 0.0833 0.3369 0.0
C2061 C 0.33972 0.08844 0.29399 0.0
C2062 C 0.39092 0.12156 0.37859 0.0
C2063 C 0.31827 0.06656 0.35222 0.0
H2064 H 0.37889 0.05565 0.48743 0.0
H2065 H 0.33131 0.11692 0.49905 0.0
H2066 H 0.36959 0.04571 0.37796 0.0
H2067 H 0.39628 0.06298 0.38855 0.0
H2068 H 0.38825 0.03817 0.42238 0.0
H2069 H 0.31292 0.13524 0.44094 0.0
H2070 H 0.33653 0.13955 0.40277 0.0
H2071 H 0.31244 0.11879 0.39222 0.0
H2072 H 0.38806 0.12667 0.29518 0.0
H2073 H 0.3269 0.08032 0.27252 0.0
H2074 H 0.40084 0.10754 0.39657 0.0
H2075 H 0.38131 0.13321 0.40147 0.0
H2076 H 0.40432 0.13285 0.36152 0.0
H2077 H 0.3263 0.05132 0.37004 0.0
H2078 H 0.30727 0.05905 0.32621 0.0
H2079 H 0.30608 0.07646 0.37385 0.0
C2080 C 0.81965 0.88582 0.27091 0.0
C2081 C 0.83746 0.89822 0.24813 0.0
C2082 C 0.82049 0.8849 0.31472 0.0
C2083 C 0.8396 0.89663 0.33613 0.0
C2084 C 0.85673 0.91045 0.31346 0.0
C2085 C 0.85543 0.91111 0.26972 0.0
C2086 C 0.80177 0.87015 0.33786 0.0
C2087 C 0.87734 0.9233 0.33516 0.0
C2088 C 0.83825 0.90388 0.45429 0.0
C2089 C 0.85289 0.88445 0.46704 0.0
C2090 C 0.83335 0.90791 0.41176 0.0
C2091 C 0.84339 0.89217 0.38144 0.0
C2092 C 0.85784 0.87234 0.39422 0.0
C2093 C 0.86237 0.86871 0.43681 0.0
C2094 C 0.81777 0.92916 0.39924 0.0
C2095 C 0.86891 0.85514 0.36281 0.0
H2096 H 0.80559 0.87597 0.25451 0.0
H2097 H 0.86917 0.92091 0.2524 0.0
H2098 H 0.81033 0.85347 0.35032 0.0
H2099 H 0.79455 0.88046 0.36488 0.0
H2100 H 0.78643 0.8648 0.3174 0.0
H2101 H 0.88751 0.93537 0.31364 0.0
H2102 H 0.87047 0.93424 0.36171 0.0
H2103 H 0.8901 0.90971 0.34813 0.0
H2104 H 0.83081 0.9161 0.47748 0.0
H2105 H 0.87365 0.85362 0.44635 0.0
H2106 H 0.80244 0.92292 0.37958 0.0
H2107 H 0.82855 0.94201 0.38015 0.0
H2108 H 0.8104 0.93901 0.42671 0.0
H2109 H 0.85452 0.84699 0.34313 0.0
H2110 H 0.87928 0.8403 0.37796 0.0
H2111 H 0.88128 0.8652 0.34171 0.0
C2112 C 0.82975 0.06523 0.03729 0.0
C2113 C 0.84185 0.0843 0.01719 0.0
C2114 C 0.82598 0.0656 0.08075 0.0
C2115 C 0.83445 0.08554 0.10443 0.0
C2116 C 0.8463 0.10499 0.08415 0.0
C2117 C 0.84986 0.10411 0.04089 0.0
C2118 C 0.81329 0.04455 0.1014 0.0
C2119 C 0.85553 0.12665 0.10823 0.0
C2120 C 0.81168 0.10268 0.21206 0.0
C2121 C 0.83134 0.0958 0.23715 0.0
C2122 C 0.81165 0.098 0.16895 0.0
C2123 C 0.83174 0.08612 0.15062 0.0
C2124 C 0.85084 0.07766 0.17625 0.0
C2125 C 0.85042 0.08262 0.21922 0.0
C2126 C 0.7909 0.1072 0.14267 0.0
C2127 C 0.87251 0.06478 0.15793 0.0
H2128 H 0.8235 0.04986 0.01919 0.0
H2129 H 0.85912 0.11901 0.02566 0.0
H2130 H 0.8258 0.0355 0.12355 0.0
H2131 H 0.79756 0.05111 0.11979 0.0
H2132 H 0.80683 0.03095 0.07837 0.0
H2133 H 0.86382 0.14053 0.08757 0.0
H2134 H 0.84049 0.1352 0.12586 0.0
H2135 H 0.8693 0.12077 0.13134 0.0
H2136 H 0.79676 0.11269 0.2257 0.0
H2137 H 0.86555 0.07698 0.23845 0.0
H2138 H 0.78475 0.09306 0.12046 0.0
H2139 H 0.79706 0.12294 0.12394 0.0
H2140 H 0.77524 0.11297 0.16208 0.0
H2141 H 0.86663 0.05024 0.13628 0.0
H2142 H 0.88423 0.0567 0.18245 0.0
H2143 H 0.88349 0.07782 0.13958 0.0
C2144 C 0.68694 0.10708 0.77876 0.0
C2145 C 0.66936 0.09713 0.7522 0.0
C2146 C 0.68402 0.1064 0.82233 0.0
C2147 C 0.66311 0.09541 0.83955 0.0
C2148 C 0.64636 0.08362 0.813 0.0
C2149 C 0.64967 0.08465 0.76963 0.0
C2150 C 0.70237 0.11904 0.84967 0.0
C2151 C 0.62396 0.07147 0.83014 0.0
C2152 C 0.65648 0.08518 0.95651 0.0
C2153 C 0.64207 0.10504 0.96801 0.0
C2154 C 0.664 0.08198 0.91492 0.0
C2155 C 0.65695 0.09907 0.8843 0.0
C2156 C 0.64288 0.11942 0.89597 0.0
C2157 C 0.6356 0.12213 0.93762 0.0
C2158 C 0.679 0.06009 0.90356 0.0
C2159 C 0.63506 0.13813 0.86425 0.0
H2160 H 0.70227 0.11666 0.76555 0.0
H2161 H 0.63617 0.07663 0.7493 0.0
H2162 H 0.69451 0.13621 0.86155 0.0
H2163 H 0.707 0.10772 0.87716 0.0
H2164 H 0.71927 0.12337 0.83237 0.0
H2165 H 0.61447 0.0605 0.80607 0.0
H2166 H 0.62865 0.05955 0.85683 0.0
H2167 H 0.61123 0.08546 0.84188 0.0
H2168 H 0.66159 0.07192 0.97987 0.0
H2169 H 0.62461 0.1376 0.94626 0.0
H2170 H 0.69564 0.06574 0.88673 0.0
H2171 H 0.66858 0.04823 0.88214 0.0
H2172 H 0.68431 0.04936 0.93145 0.0
H2173 H 0.6511 0.14559 0.84782 0.0
H2174 H 0.62493 0.15335 0.87873 0.0
H2175 H 0.62332 0.12954 0.84033 0.0
C2176 C 0.67099 0.93102 0.54933 0.0
C2177 C 0.65714 0.91243 0.53137 0.0
C2178 C 0.67574 0.93131 0.5925 0.0
C2179 C 0.66644 0.91256 0.61806 0.0
C2180 C 0.65301 0.89345 0.59986 0.0
C2181 C 0.64852 0.89364 0.55683 0.0
C2182 C 0.69017 0.95193 0.6109 0.0
C2183 C 0.64286 0.87303 0.62598 0.0
C2184 C 0.68897 0.89712 0.72659 0.0
C2185 C 0.67001 0.90604 0.75139 0.0
C2186 C 0.68897 0.90052 0.68312 0.0
C2187 C 0.66956 0.91316 0.66415 0.0
C2188 C 0.65129 0.92365 0.68936 0.0
C2189 C 0.65173 0.91996 0.73268 0.0
C2190 C 0.70886 0.88921 0.65729 0.0
C2191 C 0.63035 0.93737 0.67036 0.0
H2192 H 0.67775 0.94558 0.52984 0.0
H2193 H 0.63797 0.87909 0.54321 0.0
H2194 H 0.67848 0.96272 0.63209 0.0
H2195 H 0.70539 0.94482 0.6299 0.0
H2196 H 0.69758 0.96416 0.58647 0.0
H2197 H 0.63358 0.85909 0.60674 0.0
H2198 H 0.65759 0.86414 0.64388 0.0
H2199 H 0.62969 0.88033 0.64896 0.0
H2200 H 0.70328 0.88652 0.74084 0.0
H2201 H 0.63716 0.92718 0.75166 0.0
H2202 H 0.71562 0.90218 0.63354 0.0
H2203 H 0.70157 0.87327 0.64034 0.0
H2204 H 0.72433 0.88315 0.67687 0.0
H2205 H 0.637 0.9509 0.64745 0.0
H2206 H 0.61933 0.94685 0.69437 0.0
H2207 H 0.61844 0.92457 0.65328 0.0
C2208 C 0.62237 0.57554 0.03054 0.0
C2209 C 0.63966 0.58561 0.00357 0.0
C2210 C 0.62432 0.57839 0.07396 0.0
C2211 C 0.6442 0.59135 0.09071 0.0
C2212 C 0.66269 0.59985 0.06382 0.0
C2213 C 0.66012 0.59701 0.02051 0.0
C2214 C 0.60416 0.56915 0.10159 0.0
C2215 C 0.68438 0.61339 0.08055 0.0
C2216 C 0.63267 0.62836 0.18828 0.0
C2217 C 0.64269 0.61371 0.21957 0.0
C2218 C 0.63304 0.62118 0.14634 0.0
C2219 C 0.64395 0.59888 0.13526 0.0
C2220 C 0.65433 0.58406 0.16657 0.0
C2221 C 0.65344 0.59159 0.20851 0.0
C2222 C 0.62156 0.63742 0.11389 0.0
C2223 C 0.66638 0.56033 0.15575 0.0
H2224 H 0.60654 0.56663 0.0177 0.0
H2225 H 0.67372 0.60458 -0.00017 0.0
H2226 H 0.61163 0.55932 0.12891 0.0
H2227 H 0.59358 0.58472 0.11374 0.0
H2228 H 0.59164 0.55691 0.08451 0.0
H2229 H 0.69875 0.61558 0.05653 0.0
H2230 H 0.67867 0.63165 0.09114 0.0
H2231 H 0.69215 0.60385 0.10794 0.0
H2232 H 0.62423 0.64542 0.19658 0.0
H2233 H 0.6613 0.58023 0.23256 0.0
H2234 H 0.60711 0.62745 0.09705 0.0
H2235 H 0.63529 0.64292 0.09042 0.0
H2236 H 0.61355 0.65402 0.1278 0.0
H2237 H 0.65317 0.54805 0.14051 0.0
H2238 H 0.67393 0.55109 0.1837 0.0
H2239 H 0.68126 0.56347 0.13307 0.0
C2240 C 0.6635 0.40013 0.48403 0.0
C2241 C 0.64196 0.41069 0.49846 0.0
C2242 C 0.66755 0.39671 0.44115 0.0
C2243 C 0.64939 0.40353 0.41223 0.0
C2244 C 0.62823 0.41541 0.42651 0.0
C2245 C 0.62488 0.41907 0.46948 0.0
C2246 C 0.69062 0.38453 0.42703 0.0
C2247 C 0.60828 0.42265 0.39674 0.0
C2248 C 0.66026 0.40304 0.29483 0.0
C2249 C 0.65112 0.38019 0.28393 0.0
C2250 C 0.66055 0.41071 0.33672 0.0
C2251 C 0.65096 0.39537 0.36807 0.0
C2252 C 0.64191 0.37223 0.35718 0.0
C2253 C 0.64235 0.36485 0.31535 0.0
C2254 C 0.67084 0.43526 0.34739 0.0
C2255 C 0.63118 0.35545 0.38958 0.0
H2256 H 0.67689 0.39389 0.50634 0.0
H2257 H 0.6082 0.42724 0.48045 0.0
H2258 H 0.68659 0.36571 0.41709 0.0
H2259 H 0.69846 0.39413 0.39974 0.0
H2260 H 0.70439 0.38386 0.45232 0.0
H2261 H 0.59417 0.43385 0.4122 0.0
H2262 H 0.61576 0.43294 0.36994 0.0
H2263 H 0.59954 0.40612 0.38397 0.0
H2264 H 0.6672 0.4149 0.27063 0.0
H2265 H 0.63512 0.34723 0.30713 0.0
H2266 H 0.68477 0.43349 0.37218 0.0
H2267 H 0.65632 0.44711 0.35987 0.0
H2268 H 0.67912 0.44428 0.31984 0.0
H2269 H 0.64478 0.3514 0.4141 0.0
H2270 H 0.62488 0.33807 0.37588 0.0
H2271 H 0.61558 0.36438 0.40512 0.0
C2272 C 0.84214 0.41073 0.70001 0.0
C2273 C 0.86206 0.39711 0.71374 0.0
C2274 C 0.83941 0.41675 0.65758 0.0
C2275 C 0.85696 0.40882 0.62836 0.0
C2276 C 0.87728 0.39541 0.6422 0.0
C2277 C 0.8796 0.38978 0.68467 0.0
C2278 C 0.81762 0.43123 0.64394 0.0
C2279 C 0.89637 0.38656 0.612 0.0
C2280 C 0.84314 0.39851 0.51397 0.0
C2281 C 0.8556 0.4178 0.49518 0.0
C2282 C 0.8422 0.39616 0.55755 0.0
C2283 C 0.85389 0.41356 0.58296 0.0
C2284 C 0.86507 0.43394 0.5643 0.0
C2285 C 0.86583 0.4358 0.52056 0.0
C2286 C 0.83005 0.37417 0.57624 0.0
C2287 C 0.87751 0.45302 0.5904 0.0
H2288 H 0.82856 0.41654 0.72232 0.0
H2289 H 0.89508 0.3793 0.69497 0.0
H2290 H 0.82347 0.44745 0.62614 0.0
H2291 H 0.80622 0.42016 0.62272 0.0
H2292 H 0.80635 0.43718 0.67081 0.0
H2293 H 0.91134 0.37681 0.62797 0.0
H2294 H 0.88806 0.37416 0.58878 0.0
H2295 H 0.90416 0.40206 0.59451 0.0
H2296 H 0.83498 0.38461 0.49463 0.0
H2297 H 0.87531 0.45088 0.50633 0.0
H2298 H 0.81766 0.37957 0.60189 0.0
H2299 H 0.84398 0.36204 0.58986 0.0
H2300 H 0.81957 0.36377 0.55265 0.0
H2301 H 0.86575 0.4587 0.61676 0.0
H2302 H 0.88238 0.46927 0.57173 0.0
H2303 H 0.89433 0.44537 0.60401 0.0
C2304 C 0.84212 0.60205 0.96715 0.0
C2305 C 0.85786 0.58621 0.98806 0.0
C2306 C 0.84189 0.60336 0.9234 0.0
C2307 C 0.85777 0.58846 0.90005 0.0
C2308 C 0.87244 0.57124 0.92083 0.0
C2309 C 0.8723 0.5703 0.96465 0.0
C2310 C 0.82583 0.62184 0.90238 0.0
C2311 C 0.8895 0.55494 0.89697 0.0
C2312 C 0.84979 0.58641 0.78206 0.0
C2313 C 0.86666 0.60386 0.76905 0.0
C2314 C 0.84688 0.58085 0.82461 0.0
C2315 C 0.86117 0.59305 0.85468 0.0
C2316 C 0.87848 0.61038 0.84163 0.0
C2317 C 0.88101 0.61556 0.79902 0.0
C2318 C 0.82828 0.56225 0.83745 0.0
C2319 C 0.89411 0.62377 0.87276 0.0
H2320 H 0.83072 0.61425 0.98497 0.0
H2321 H 0.88439 0.55788 0.98053 0.0
H2322 H 0.83717 0.63662 0.88939 0.0
H2323 H 0.81586 0.61351 0.87595 0.0
H2324 H 0.81251 0.62991 0.92439 0.0
H2325 H 0.89719 0.54044 0.91703 0.0
H2326 H 0.88009 0.54643 0.87009 0.0
H2327 H 0.90466 0.56587 0.88423 0.0
H2328 H 0.83866 0.57727 0.75905 0.0
H2329 H 0.89414 0.62901 0.78927 0.0
H2330 H 0.81415 0.57093 0.85704 0.0
H2331 H 0.8369 0.54794 0.85672 0.0
H2332 H 0.81938 0.5536 0.81013 0.0
H2333 H 0.88251 0.63445 0.89427 0.0
H2334 H 0.9071 0.63628 0.85738 0.0
H2335 H 0.90447 0.61069 0.89205 0.0
C2336 C 0.35036 0.40954 0.78866 0.0
C2337 C 0.32949 0.40099 0.76851 0.0
C2338 C 0.3524 0.40887 0.83229 0.0
C2339 C 0.3331 0.39938 0.85636 0.0
C2340 C 0.31134 0.39228 0.83644 0.0
C2341 C 0.30977 0.39321 0.79267 0.0
C2342 C 0.37584 0.41682 0.85236 0.0
C2343 C 0.29033 0.38218 0.86108 0.0
C2344 C 0.35255 0.36745 0.95556 0.0
C2345 C 0.34794 0.38505 0.98612 0.0
C2346 C 0.34717 0.37172 0.91343 0.0
C2347 C 0.33694 0.39418 0.90145 0.0
C2348 C 0.33165 0.41183 0.93221 0.0
C2349 C 0.33722 0.40706 0.97426 0.0
C2350 C 0.35303 0.35238 0.88157 0.0
C2351 C 0.3207 0.43595 0.92055 0.0
H2352 H 0.36559 0.41584 0.77025 0.0
H2353 H 0.29353 0.38666 0.77737 0.0
H2354 H 0.37221 0.42906 0.87913 0.0
H2355 H 0.38555 0.40075 0.8647 0.0
H2356 H 0.38794 0.42629 0.82994 0.0
H2357 H 0.27364 0.38069 0.84186 0.0
H2358 H 0.29507 0.36387 0.87281 0.0
H2359 H 0.28643 0.3937 0.88867 0.0
H2360 H 0.36069 0.35035 0.96443 0.0
H2361 H 0.33355 0.42073 0.99772 0.0
H2362 H 0.36688 0.35923 0.85938 0.0
H2363 H 0.33664 0.34784 0.86312 0.0
H2364 H 0.36 0.33553 0.89623 0.0
H2365 H 0.33363 0.44629 0.90092 0.0
H2366 H 0.3161 0.44702 0.94843 0.0
H2367 H 0.30405 0.43321 0.90173 0.0
C2368 C 0.33924 0.58607 0.72888 0.0
C2369 C 0.32415 0.60355 0.74719 0.0
C2370 C 0.33901 0.58208 0.68561 0.0
C2371 C 0.32342 0.596 0.66004 0.0
C2372 C 0.30711 0.61262 0.67858 0.0
C2373 C 0.30762 0.61615 0.72202 0.0
C2374 C 0.35652 0.56402 0.66707 0.0
C2375 C 0.29021 0.6278 0.65234 0.0
C2376 C 0.34687 0.60995 0.5515 0.0
C2377 C 0.33356 0.59384 0.5266 0.0
C2378 C 0.34346 0.61097 0.5948 0.0
C2379 C 0.32639 0.59538 0.61389 0.0
C2380 C 0.31277 0.57911 0.58904 0.0
C2381 C 0.31646 0.57858 0.54557 0.0
C2382 C 0.35827 0.62868 0.62018 0.0
C2383 C 0.29451 0.56215 0.60842 0.0
H2384 H 0.35189 0.57606 0.74817 0.0
H2385 H 0.29581 0.6296 0.73594 0.0
H2386 H 0.34713 0.55207 0.6444 0.0
H2387 H 0.37094 0.5738 0.6498 0.0
H2388 H 0.3652 0.55258 0.69137 0.0
H2389 H 0.27666 0.63759 0.67168 0.0
H2390 H 0.30087 0.64133 0.6345 0.0
H2391 H 0.2805 0.61635 0.62932 0.0
H2392 H 0.36003 0.62191 0.53714 0.0
H2393 H 0.30611 0.56608 0.52653 0.0
H2394 H 0.36954 0.61874 0.64318 0.0
H2395 H 0.34611 0.64089 0.63803 0.0
H2396 H 0.37038 0.63993 0.60039 0.0
H2397 H 0.3037 0.54993 0.6309 0.0
H2398 H 0.28503 0.55094 0.58468 0.0
H2399 H 0.28082 0.57262 0.62625 0.0
C2400 C 0.15175 0.57799 0.45783 0.0
C2401 C 0.15518 0.59855 0.48284 0.0
C2402 C 0.15687 0.57856 0.4149 0.0
C2403 C 0.16512 0.60036 0.3965 0.0
C2404 C 0.1697 0.62083 0.42196 0.0
C2405 C 0.16488 0.6196 0.46494 0.0
C2406 C 0.15225 0.55621 0.38891 0.0
C2407 C 0.17818 0.64451 0.40344 0.0
C2408 C 0.18811 0.60187 0.28436 0.0
C2409 C 0.16713 0.60885 0.26279 0.0
C2410 C 0.18772 0.59851 0.32792 0.0
C2411 C 0.16597 0.60272 0.35027 0.0
C2412 C 0.14478 0.60971 0.32855 0.0
C2413 C 0.14558 0.61247 0.28512 0.0
C2414 C 0.21051 0.59057 0.35003 0.0
C2415 C 0.1213 0.61471 0.35126 0.0
H2416 H 0.14456 0.56157 0.47163 0.0
H2417 H 0.1676 0.63555 0.48415 0.0
H2418 H 0.13599 0.55908 0.36916 0.0
H2419 H 0.16773 0.55269 0.36766 0.0
H2420 H 0.14919 0.53992 0.40857 0.0
H2421 H 0.18313 0.65793 0.42785 0.0
H2422 H 0.19407 0.64156 0.38286 0.0
H2423 H 0.16355 0.65232 0.38387 0.0
H2424 H 0.20478 0.59894 0.2672 0.0
H2425 H 0.12932 0.61803 0.26874 0.0
H2426 H 0.20697 0.57387 0.36832 0.0
H2427 H 0.21632 0.60474 0.37247 0.0
H2428 H 0.22562 0.58702 0.32793 0.0
H2429 H 0.11539 0.59832 0.3685 0.0
H2430 H 0.10653 0.62023 0.32972 0.0
H2431 H 0.12402 0.62932 0.37461 0.0
C2432 C 0.14788 0.40126 0.20711 0.0
C2433 C 0.16619 0.38756 0.22619 0.0
C2434 C 0.14548 0.40189 0.16352 0.0
C2435 C 0.16186 0.38857 0.13841 0.0
C2436 C 0.1813 0.37598 0.15731 0.0
C2437 C 0.18322 0.37559 0.20104 0.0
C2438 C 0.12455 0.41562 0.14452 0.0
C2439 C 0.19926 0.36177 0.13152 0.0
C2440 C 0.13609 0.36507 0.03647 0.0
C2441 C 0.14489 0.38201 0.0076 0.0
C2442 C 0.14195 0.36675 0.07897 0.0
C2443 C 0.15706 0.38582 0.09297 0.0
C2444 C 0.16655 0.40262 0.06389 0.0
C2445 C 0.16032 0.40055 0.02149 0.0
C2446 C 0.13147 0.34845 0.10904 0.0
C2447 C 0.18282 0.42308 0.07771 0.0
H2448 H 0.13473 0.41072 0.22627 0.0
H2449 H 0.19754 0.3651 0.2155 0.0
H2450 H 0.13099 0.42751 0.11889 0.0
H2451 H 0.11145 0.40262 0.13077 0.0
H2452 H 0.11487 0.42691 0.16791 0.0
H2453 H 0.21497 0.35555 0.15037 0.0
H2454 H 0.19018 0.34565 0.11801 0.0
H2455 H 0.20603 0.37287 0.10509 0.0
H2456 H 0.12424 0.35065 0.02602 0.0
H2457 H 0.16727 0.41367 -0.00066 0.0
H2458 H 0.11961 0.35775 0.13198 0.0
H2459 H 0.14621 0.33953 0.12687 0.0
H2460 H 0.1207 0.33426 0.09291 0.0
H2461 H 0.17263 0.43552 0.0985 0.0
H2462 H 0.18999 0.43365 0.05089 0.0
H2463 H 0.19831 0.4159 0.096 0.0
loop_
_geom_bond_atom_site_label_1
_geom_bond_atom_site_label_2
_geom_bond_distance
_geom_bond_site_symmetry_2
_ccdc_geom_bond_type
C0 O1 1.160 . S
C0 O7 1.185 . S
O1 C0 1.160 . S
O2 Zn3 1.899 . S
O2 C10 1.284 . S
Zn3 O2 1.899 . S
Zn3 O4 2.032 . S
Zn3 O7 2.086 . S
Zn3 O12 1.977 . S
O4 Zn3 2.032 . S
O4 C8 1.278 . S
C5 O6 1.203 . S
C5 O12 1.267 . S
O6 C5 1.203 . S
O7 C0 1.185 . S
O7 Zn3 2.086 . S
C8 O4 1.278 . S
C8 O9 1.211 . S
O9 C8 1.211 . S
C10 O2 1.284 . S
C10 O11 1.273 . S
O11 C10 1.273 . S
O12 Zn3 1.977 . S
O12 C5 1.267 . S
C13 O14 1.160 . S
C13 O20 1.185 . S
O14 C13 1.160 . S
O15 Zn16 1.899 . S
O15 C23 1.284 . S
Zn16 O15 1.899 . S
Zn16 O17 2.032 . S
Zn16 O20 2.086 . S
Zn16 O25 1.977 . S
O17 Zn16 2.032 . S
O17 C21 1.278 . S
C18 O19 1.203 . S
C18 O25 1.267 . S
O19 C18 1.203 . S
O20 C13 1.185 . S
O20 Zn16 2.086 . S
C21 O17 1.278 . S
C21 O22 1.211 . S
O22 C21 1.211 . S
C23 O15 1.284 . S
C23 O24 1.273 . S
O24 C23 1.273 . S
O25 Zn16 1.977 . S
O25 C18 1.267 . S
C26 O27 1.160 . S
C26 O33 1.185 . S
O27 C26 1.160 . S
O28 Zn29 1.899 . S
O28 C36 1.284 . S
Zn29 O28 1.899 . S
Zn29 O30 2.032 . S
Zn29 O33 2.086 . S
Zn29 O38 1.977 . S
O30 Zn29 2.032 . S
O30 C34 1.278 . S
C31 O32 1.203 . S
C31 O38 1.267 . S
O32 C31 1.203 . S
O33 C26 1.185 . S
O33 Zn29 2.086 . S
C34 O30 1.278 . S
C34 O35 1.211 . S
O35 C34 1.211 . S
C36 O28 1.284 . S
C36 O37 1.273 . S
O37 C36 1.273 . S
O38 Zn29 1.977 . S
O38 C31 1.267 . S
C39 O40 1.160 . S
C39 O46 1.185 . S
O40 C39 1.160 . S
O41 Zn42 1.899 . S
O41 C49 1.284 . S
Zn42 O41 1.899 . S
Zn42 O43 2.032 . S
Zn42 O46 2.086 . S
Zn42 O51 1.977 . S
O43 Zn42 2.032 . S
O43 C47 1.278 . S
C44 O45 1.203 . S
C44 O51 1.267 . S
O45 C44 1.203 . S
O46 C39 1.185 . S
O46 Zn42 2.086 . S
C47 O43 1.278 . S
C47 O48 1.211 . S
O48 C47 1.211 . S
C49 O41 1.284 . S
C49 O50 1.273 . S
O50 C49 1.273 . S
O51 Zn42 1.977 . S
O51 C44 1.267 . S
C52 O53 1.160 . S
C52 O59 1.185 . S
O53 C52 1.160 . S
O54 Zn55 1.899 . S
O54 C62 1.284 . S
Zn55 O54 1.899 . S
Zn55 O56 2.032 . S
Zn55 O59 2.086 . S
Zn55 O64 1.977 . S
O56 Zn55 2.032 . S
O56 C60 1.278 . S
C57 O58 1.203 . S
C57 O64 1.267 . S
O58 C57 1.203 . S
O59 C52 1.185 . S
O59 Zn55 2.086 . S
C60 O56 1.278 . S
C60 O61 1.211 . S
O61 C60 1.211 . S
C62 O54 1.284 . S
C62 O63 1.273 . S
O63 C62 1.273 . S
O64 Zn55 1.977 . S
O64 C57 1.267 . S
C65 O66 1.160 . S
C65 O72 1.185 . S
O66 C65 1.160 . S
O67 Zn68 1.899 . S
O67 C75 1.284 . S
Zn68 O67 1.899 . S
Zn68 O69 2.032 . S
Zn68 O72 2.086 . S
Zn68 O77 1.977 . S
O69 Zn68 2.032 . S
O69 C73 1.278 . S
C70 O71 1.203 . S
C70 O77 1.267 . S
O71 C70 1.203 . S
O72 C65 1.185 . S
O72 Zn68 2.086 . S
C73 O69 1.278 . S
C73 O74 1.211 . S
O74 C73 1.211 . S
C75 O67 1.284 . S
C75 O76 1.273 . S
O76 C75 1.273 . S
O77 Zn68 1.977 . S
O77 C70 1.267 . S
C78 O79 1.160 . S
C78 O85 1.185 . S
O79 C78 1.160 . S
O80 Zn81 1.899 . S
O80 C88 1.284 . S
Zn81 O80 1.899 . S
Zn81 O82 2.032 . S
Zn81 O85 2.086 . S
Zn81 O90 1.977 . S
O82 Zn81 2.032 . S
O82 C86 1.278 . S
C83 O84 1.203 . S
C83 O90 1.267 . S
O84 C83 1.203 . S
O85 C78 1.185 . S
O85 Zn81 2.086 . S
C86 O82 1.278 . S
C86 O87 1.211 . S
O87 C86 1.211 . S
C88 O80 1.284 . S
C88 O89 1.273 . S
O89 C88 1.273 . S
O90 Zn81 1.977 . S
O90 C83 1.267 . S
C91 O92 1.160 . S
C91 O98 1.185 . S
O92 C91 1.160 . S
O93 Zn94 1.899 . S
O93 C101 1.284 . S
Zn94 O93 1.899 . S
Zn94 O95 2.032 . S
Zn94 O98 2.086 . S
Zn94 O103 1.977 . S
O95 Zn94 2.032 . S
O95 C99 1.278 . S
C96 O97 1.203 . S
C96 O103 1.267 . S
O97 C96 1.203 . S
O98 C91 1.185 . S
O98 Zn94 2.086 . S
C99 O95 1.278 . S
C99 O100 1.211 . S
O100 C99 1.211 . S
C101 O93 1.284 . S
C101 O102 1.273 . S
O102 C101 1.273 . S
O103 Zn94 1.977 . S
O103 C96 1.267 . S
C104 O105 1.160 . S
C104 O111 1.185 . S
O105 C104 1.160 . S
O106 Zn107 1.899 . S
O106 C114 1.284 . S
Zn107 O106 1.899 . S
Zn107 O108 2.032 . S
Zn107 O111 2.086 . S
Zn107 O116 1.977 . S
O108 Zn107 2.032 . S
O108 C112 1.278 . S
C109 O110 1.203 . S
C109 O116 1.267 . S
O110 C109 1.203 . S
O111 C104 1.185 . S
O111 Zn107 2.086 . S
C112 O108 1.278 . S
C112 O113 1.211 . S
O113 C112 1.211 . S
C114 O106 1.284 . S
C114 O115 1.273 . S
O115 C114 1.273 . S
O116 Zn107 1.977 . S
O116 C109 1.267 . S
C117 O118 1.160 . S
C117 O124 1.185 . S
O118 C117 1.160 . S
O119 Zn120 1.899 . S
O119 C127 1.284 . S
Zn120 O119 1.899 . S
Zn120 O121 2.032 . S
Zn120 O124 2.086 . S
Zn120 O129 1.977 . S
O121 Zn120 2.032 . S
O121 C125 1.278 . S
C122 O123 1.203 . S
C122 O129 1.267 . S
O123 C122 1.203 . S
O124 C117 1.185 . S
O124 Zn120 2.086 . S
C125 O121 1.278 . S
C125 O126 1.211 . S
O126 C125 1.211 . S
C127 O119 1.284 . S
C127 O128 1.273 . S
O128 C127 1.273 . S
O129 Zn120 1.977 . S
O129 C122 1.267 . S
C130 O131 1.160 . S
C130 O137 1.185 . S
O131 C130 1.160 . S
O132 Zn133 1.899 . S
O132 C140 1.284 . S
Zn133 O132 1.899 . S
Zn133 O134 2.032 . S
Zn133 O137 2.086 . S
Zn133 O142 1.977 . S
O134 Zn133 2.032 . S
O134 C138 1.278 . S
C135 O136 1.203 . S
C135 O142 1.267 . S
O136 C135 1.203 . S
O137 C130 1.185 . S
O137 Zn133 2.086 . S
C138 O134 1.278 . S
C138 O139 1.211 . S
O139 C138 1.211 . S
C140 O132 1.284 . S
C140 O141 1.273 . S
O141 C140 1.273 . S
O142 Zn133 1.977 . S
O142 C135 1.267 . S
C143 O144 1.160 . S
C143 O150 1.185 . S
O144 C143 1.160 . S
O145 Zn146 1.899 . S
O145 C153 1.284 . S
Zn146 O145 1.899 . S
Zn146 O147 2.032 . S
Zn146 O150 2.086 . S
Zn146 O155 1.977 . S
O147 Zn146 2.032 . S
O147 C151 1.278 . S
C148 O149 1.203 . S
C148 O155 1.267 . S
O149 C148 1.203 . S
O150 C143 1.185 . S
O150 Zn146 2.086 . S
C151 O147 1.278 . S
C151 O152 1.211 . S
O152 C151 1.211 . S
C153 O145 1.284 . S
C153 O154 1.273 . S
O154 C153 1.273 . S
O155 Zn146 1.977 . S
O155 C148 1.267 . S
C156 O157 1.160 . S
C156 O163 1.185 . S
O157 C156 1.160 . S
O158 Zn159 1.899 . S
O158 C166 1.284 . S
Zn159 O158 1.899 . S
Zn159 O160 2.032 . S
Zn159 O163 2.086 . S
Zn159 O168 1.977 . S
O160 Zn159 2.032 . S
O160 C164 1.278 . S
C161 O162 1.203 . S
C161 O168 1.267 . S
O162 C161 1.203 . S
O163 C156 1.185 . S
O163 Zn159 2.086 . S
C164 O160 1.278 . S
C164 O165 1.211 . S
O165 C164 1.211 . S
C166 O158 1.284 . S
C166 O167 1.273 . S
O167 C166 1.273 . S
O168 Zn159 1.977 . S
O168 C161 1.267 . S
C169 O170 1.160 . S
C169 O176 1.185 . S
O170 C169 1.160 . S
O171 Zn172 1.899 . S
O171 C179 1.284 . S
Zn172 O171 1.899 . S
Zn172 O173 2.032 . S
Zn172 O176 2.086 . S
Zn172 O181 1.977 . S
O173 Zn172 2.032 . S
O173 C177 1.278 . S
C174 O175 1.203 . S
C174 O181 1.267 . S
O175 C174 1.203 . S
O176 C169 1.185 . S
O176 Zn172 2.086 . S
C177 O173 1.278 . S
C177 O178 1.211 . S
O178 C177 1.211 . S
C179 O171 1.284 . S
C179 O180 1.273 . S
O180 C179 1.273 . S
O181 Zn172 1.977 . S
O181 C174 1.267 . S
C182 O183 1.160 . S
C182 O189 1.185 . S
O183 C182 1.160 . S
O184 Zn185 1.899 . S
O184 C192 1.284 . S
Zn185 O184 1.899 . S
Zn185 O186 2.032 . S
Zn185 O189 2.086 . S
Zn185 O194 1.977 . S
O186 Zn185 2.032 . S
O186 C190 1.278 . S
C187 O188 1.203 . S
C187 O194 1.267 . S
O188 C187 1.203 . S
O189 C182 1.185 . S
O189 Zn185 2.086 . S
C190 O186 1.278 . S
C190 O191 1.211 . S
O191 C190 1.211 . S
C192 O184 1.284 . S
C192 O193 1.273 . S
O193 C192 1.273 . S
O194 Zn185 1.977 . S
O194 C187 1.267 . S
C195 O196 1.160 . S
C195 O202 1.185 . S
O196 C195 1.160 . S
O197 Zn198 1.899 . S
O197 C205 1.284 . S
Zn198 O197 1.899 . S
Zn198 O199 2.032 . S
Zn198 O202 2.086 . S
Zn198 O207 1.977 . S
O199 Zn198 2.032 . S
O199 C203 1.278 . S
C200 O201 1.203 . S
C200 O207 1.267 . S
O201 C200 1.203 . S
O202 C195 1.185 . S
O202 Zn198 2.086 . S
C203 O199 1.278 . S
C203 O204 1.211 . S
O204 C203 1.211 . S
C205 O197 1.284 . S
C205 O206 1.273 . S
O206 C205 1.273 . S
O207 Zn198 1.977 . S
O207 C200 1.267 . S
C208 O209 1.160 . S
C208 O215 1.185 . S
O209 C208 1.160 . S
O210 Zn211 1.899 . S
O210 C218 1.284 . S
Zn211 O210 1.899 . S
Zn211 O212 2.032 . S
Zn211 O215 2.086 . S
Zn211 O220 1.977 . S
O212 Zn211 2.032 . S
O212 C216 1.278 . S
C213 O214 1.203 . S
C213 O220 1.267 . S
O214 C213 1.203 . S
O215 C208 1.185 . S
O215 Zn211 2.086 . S
C216 O212 1.278 . S
C216 O217 1.211 . S
O217 C216 1.211 . S
C218 O210 1.284 . S
C218 O219 1.273 . S
O219 C218 1.273 . S
O220 Zn211 1.977 . S
O220 C213 1.267 . S
C221 O222 1.160 . S
C221 O228 1.185 . S
O222 C221 1.160 . S
O223 Zn224 1.899 . S
O223 C231 1.284 . S
Zn224 O223 1.899 . S
Zn224 O225 2.032 . S
Zn224 O228 2.086 . S
Zn224 O233 1.977 . S
O225 Zn224 2.032 . S
O225 C229 1.278 . S
C226 O227 1.203 . S
C226 O233 1.267 . S
O227 C226 1.203 . S
O228 C221 1.185 . S
O228 Zn224 2.086 . S
C229 O225 1.278 . S
C229 O230 1.211 . S
O230 C229 1.211 . S
C231 O223 1.284 . S
C231 O232 1.273 . S
O232 C231 1.273 . S
O233 Zn224 1.977 . S
O233 C226 1.267 . S
C234 O235 1.160 . S
C234 O241 1.185 . S
O235 C234 1.160 . S
O236 Zn237 1.899 . S
O236 C244 1.284 . S
Zn237 O236 1.899 . S
Zn237 O238 2.032 . S
Zn237 O241 2.086 . S
Zn237 O246 1.977 . S
O238 Zn237 2.032 . S
O238 C242 1.278 . S
C239 O240 1.203 . S
C239 O246 1.267 . S
O240 C239 1.203 . S
O241 C234 1.185 . S
O241 Zn237 2.086 . S
C242 O238 1.278 . S
C242 O243 1.211 . S
O243 C242 1.211 . S
C244 O236 1.284 . S
C244 O245 1.273 . S
O245 C244 1.273 . S
O246 Zn237 1.977 . S
O246 C239 1.267 . S
C247 O248 1.160 . S
C247 O254 1.185 . S
O248 C247 1.160 . S
O249 Zn250 1.899 . S
O249 C257 1.284 . S
Zn250 O249 1.899 . S
Zn250 O251 2.032 . S
Zn250 O254 2.086 . S
Zn250 O259 1.977 . S
O251 Zn250 2.032 . S
O251 C255 1.278 . S
C252 O253 1.203 . S
C252 O259 1.267 . S
O253 C252 1.203 . S
O254 C247 1.185 . S
O254 Zn250 2.086 . S
C255 O251 1.278 . S
C255 O256 1.211 . S
O256 C255 1.211 . S
C257 O249 1.284 . S
C257 O258 1.273 . S
O258 C257 1.273 . S
O259 Zn250 1.977 . S
O259 C252 1.267 . S
C260 O261 1.160 . S
C260 O267 1.185 . S
O261 C260 1.160 . S
O262 Zn263 1.899 . S
O262 C270 1.284 . S
Zn263 O262 1.899 . S
Zn263 O264 2.032 . S
Zn263 O267 2.086 . S
Zn263 O272 1.977 . S
O264 Zn263 2.032 . S
O264 C268 1.278 . S
C265 O266 1.203 . S
C265 O272 1.267 . S
O266 C265 1.203 . S
O267 C260 1.185 . S
O267 Zn263 2.086 . S
C268 O264 1.278 . S
C268 O269 1.211 . S
O269 C268 1.211 . S
C270 O262 1.284 . S
C270 O271 1.273 . S
O271 C270 1.273 . S
O272 Zn263 1.977 . S
O272 C265 1.267 . S
C273 O274 1.160 . S
C273 O280 1.185 . S
O274 C273 1.160 . S
O275 Zn276 1.899 . S
O275 C283 1.284 . S
Zn276 O275 1.899 . S
Zn276 O277 2.032 . S
Zn276 O280 2.086 . S
Zn276 O285 1.977 . S
O277 Zn276 2.032 . S
O277 C281 1.278 . S
C278 O279 1.203 . S
C278 O285 1.267 . S
O279 C278 1.203 . S
O280 C273 1.185 . S
O280 Zn276 2.086 . S
C281 O277 1.278 . S
C281 O282 1.211 . S
O282 C281 1.211 . S
C283 O275 1.284 . S
C283 O284 1.273 . S
O284 C283 1.273 . S
O285 Zn276 1.977 . S
O285 C278 1.267 . S
C286 O287 1.160 . S
C286 O293 1.185 . S
O287 C286 1.160 . S
O288 Zn289 1.899 . S
O288 C296 1.284 . S
Zn289 O288 1.899 . S
Zn289 O290 2.032 . S
Zn289 O293 2.086 . S
Zn289 O298 1.977 . S
O290 Zn289 2.032 . S
O290 C294 1.278 . S
C291 O292 1.203 . S
C291 O298 1.267 . S
O292 C291 1.203 . S
O293 C286 1.185 . S
O293 Zn289 2.086 . S
C294 O290 1.278 . S
C294 O295 1.211 . S
O295 C294 1.211 . S
C296 O288 1.284 . S
C296 O297 1.273 . S
O297 C296 1.273 . S
O298 Zn289 1.977 . S
O298 C291 1.267 . S
C299 O300 1.160 . S
C299 O306 1.185 . S
O300 C299 1.160 . S
O301 Zn302 1.899 . S
O301 C309 1.284 . S
Zn302 O301 1.899 . S
Zn302 O303 2.032 . S
Zn302 O306 2.086 . S
Zn302 O311 1.977 . S
O303 Zn302 2.032 . S
O303 C307 1.278 . S
C304 O305 1.203 . S
C304 O311 1.267 . S
O305 C304 1.203 . S
O306 C299 1.185 . S
O306 Zn302 2.086 . S
C307 O303 1.278 . S
C307 O308 1.211 . S
O308 C307 1.211 . S
C309 O301 1.284 . S
C309 O310 1.273 . S
O310 C309 1.273 . S
O311 Zn302 1.977 . S
O311 C304 1.267 . S
C312 O313 1.160 . S
C312 O319 1.185 . S
O313 C312 1.160 . S
O314 Zn315 1.899 . S
O314 C322 1.284 . S
Zn315 O314 1.899 . S
Zn315 O316 2.032 . S
Zn315 O319 2.086 . S
Zn315 O324 1.977 . S
O316 Zn315 2.032 . S
O316 C320 1.278 . S
C317 O318 1.203 . S
C317 O324 1.267 . S
O318 C317 1.203 . S
O319 C312 1.185 . S
O319 Zn315 2.086 . S
C320 O316 1.278 . S
C320 O321 1.211 . S
O321 C320 1.211 . S
C322 O314 1.284 . S
C322 O323 1.273 . S
O323 C322 1.273 . S
O324 Zn315 1.977 . S
O324 C317 1.267 . S
C325 O326 1.160 . S
C325 O332 1.185 . S
O326 C325 1.160 . S
O327 Zn328 1.899 . S
O327 C335 1.284 . S
Zn328 O327 1.899 . S
Zn328 O329 2.032 . S
Zn328 O332 2.086 . S
Zn328 O337 1.977 . S
O329 Zn328 2.032 . S
O329 C333 1.278 . S
C330 O331 1.203 . S
C330 O337 1.267 . S
O331 C330 1.203 . S
O332 C325 1.185 . S
O332 Zn328 2.086 . S
C333 O329 1.278 . S
C333 O334 1.211 . S
O334 C333 1.211 . S
C335 O327 1.284 . S
C335 O336 1.273 . S
O336 C335 1.273 . S
O337 Zn328 1.977 . S
O337 C330 1.267 . S
C338 O339 1.160 . S
C338 O345 1.185 . S
O339 C338 1.160 . S
O340 Zn341 1.899 . S
O340 C348 1.284 . S
Zn341 O340 1.899 . S
Zn341 O342 2.032 . S
Zn341 O345 2.086 . S
Zn341 O350 1.977 . S
O342 Zn341 2.032 . S
O342 C346 1.278 . S
C343 O344 1.203 . S
C343 O350 1.267 . S
O344 C343 1.203 . S
O345 C338 1.185 . S
O345 Zn341 2.086 . S
C346 O342 1.278 . S
C346 O347 1.211 . S
O347 C346 1.211 . S
C348 O340 1.284 . S
C348 O349 1.273 . S
O349 C348 1.273 . S
O350 Zn341 1.977 . S
O350 C343 1.267 . S
C351 O352 1.160 . S
C351 O358 1.185 . S
O352 C351 1.160 . S
O353 Zn354 1.899 . S
O353 C361 1.284 . S
Zn354 O353 1.899 . S
Zn354 O355 2.032 . S
Zn354 O358 2.086 . S
Zn354 O363 1.977 . S
O355 Zn354 2.032 . S
O355 C359 1.278 . S
C356 O357 1.203 . S
C356 O363 1.267 . S
O357 C356 1.203 . S
O358 C351 1.185 . S
O358 Zn354 2.086 . S
C359 O355 1.278 . S
C359 O360 1.211 . S
O360 C359 1.211 . S
C361 O353 1.284 . S
C361 O362 1.273 . S
O362 C361 1.273 . S
O363 Zn354 1.977 . S
O363 C356 1.267 . S
C364 O365 1.160 . S
C364 O371 1.185 . S
O365 C364 1.160 . S
O366 Zn367 1.899 . S
O366 C374 1.284 . S
Zn367 O366 1.899 . S
Zn367 O368 2.032 . S
Zn367 O371 2.086 . S
Zn367 O376 1.977 . S
O368 Zn367 2.032 . S
O368 C372 1.278 . S
C369 O370 1.203 . S
C369 O376 1.267 . S
O370 C369 1.203 . S
O371 C364 1.185 . S
O371 Zn367 2.086 . S
C372 O368 1.278 . S
C372 O373 1.211 . S
O373 C372 1.211 . S
C374 O366 1.284 . S
C374 O375 1.273 . S
O375 C374 1.273 . S
O376 Zn367 1.977 . S
O376 C369 1.267 . S
C377 O378 1.160 . S
C377 O384 1.185 . S
O378 C377 1.160 . S
O379 Zn380 1.899 . S
O379 C387 1.284 . S
Zn380 O379 1.899 . S
Zn380 O381 2.032 . S
Zn380 O384 2.086 . S
Zn380 O389 1.977 . S
O381 Zn380 2.032 . S
O381 C385 1.278 . S
C382 O383 1.203 . S
C382 O389 1.267 . S
O383 C382 1.203 . S
O384 C377 1.185 . S
O384 Zn380 2.086 . S
C385 O381 1.278 . S
C385 O386 1.211 . S
O386 C385 1.211 . S
C387 O379 1.284 . S
C387 O388 1.273 . S
O388 C387 1.273 . S
O389 Zn380 1.977 . S
O389 C382 1.267 . S
C390 O391 1.160 . S
C390 O397 1.185 . S
O391 C390 1.160 . S
O392 Zn393 1.899 . S
O392 C400 1.284 . S
Zn393 O392 1.899 . S
Zn393 O394 2.032 . S
Zn393 O397 2.086 . S
Zn393 O402 1.977 . S
O394 Zn393 2.032 . S
O394 C398 1.278 . S
C395 O396 1.203 . S
C395 O402 1.267 . S
O396 C395 1.203 . S
O397 C390 1.185 . S
O397 Zn393 2.086 . S
C398 O394 1.278 . S
C398 O399 1.211 . S
O399 C398 1.211 . S
C400 O392 1.284 . S
C400 O401 1.273 . S
O401 C400 1.273 . S
O402 Zn393 1.977 . S
O402 C395 1.267 . S
C403 O404 1.160 . S
C403 O410 1.185 . S
O404 C403 1.160 . S
O405 Zn406 1.899 . S
O405 C413 1.284 . S
Zn406 O405 1.899 . S
Zn406 O407 2.032 . S
Zn406 O410 2.086 . S
Zn406 O415 1.977 . S
O407 Zn406 2.032 . S
O407 C411 1.278 . S
C408 O409 1.203 . S
C408 O415 1.267 . S
O409 C408 1.203 . S
O410 C403 1.185 . S
O410 Zn406 2.086 . S
C411 O407 1.278 . S
C411 O412 1.211 . S
O412 C411 1.211 . S
C413 O405 1.284 . S
C413 O414 1.273 . S
O414 C413 1.273 . S
O415 Zn406 1.977 . S
O415 C408 1.267 . S
C416 C417 1.391 . S
C416 C418 1.394 . S
C416 H432 0.931 . S
C417 C416 1.391 . S
C417 C421 1.376 . S
C418 C416 1.394 . S
C418 C419 1.369 . S
C418 C422 1.531 . S
C419 C418 1.369 . S
C419 C420 1.410 . S
C419 C427 1.503 1_545 S
C420 C419 1.410 . S
C420 C421 1.392 . S
C420 C423 1.511 1_545 S
C421 C417 1.376 . S
C421 C420 1.392 . S
C421 H433 0.929 . S
C422 C418 1.531 . S
C422 H434 0.960 . S
C422 H435 0.962 . S
C422 H436 0.960 . S
C423 C420 1.511 1_565 S
C423 H437 0.961 . S
C423 H438 0.961 . S
C423 H439 0.961 1_565 S
C424 C425 1.370 . S
C424 C426 1.363 . S
C424 H440 0.931 . S
C425 C424 1.370 . S
C425 C429 1.408 . S
C426 C424 1.363 . S
C426 C427 1.370 . S
C426 C430 1.524 . S
C427 C419 1.503 1_565 S
C427 C426 1.370 . S
C427 C428 1.403 . S
C428 C427 1.403 . S
C428 C429 1.404 . S
C428 C431 1.539 1_565 S
C429 C425 1.408 . S
C429 C428 1.404 . S
C429 H441 0.930 . S
C430 C426 1.524 . S
C430 H442 0.956 . S
C430 H443 0.961 . S
C430 H444 0.961 . S
C431 C428 1.539 1_545 S
C431 H445 0.958 . S
C431 H446 0.961 . S
C431 H447 0.960 . S
H432 C416 0.931 . S
H433 C421 0.929 . S
H434 C422 0.960 . S
H435 C422 0.962 . S
H436 C422 0.960 . S
H437 C423 0.961 . S
H438 C423 0.961 . S
H439 C423 0.961 1_545 S
H440 C424 0.931 . S
H441 C429 0.930 . S
H442 C430 0.956 . S
H443 C430 0.961 . S
H444 C430 0.961 . S
H445 C431 0.958 . S
H446 C431 0.961 . S
H447 C431 0.960 . S
C448 C449 1.391 . S
C448 C450 1.394 . S
C448 H464 0.931 . S
C449 C448 1.391 . S
C449 C453 1.376 . S
C450 C448 1.394 . S
C450 C451 1.369 . S
C450 C454 1.531 . S
C451 C450 1.369 . S
C451 C452 1.410 . S
C451 C459 1.503 . S
C452 C451 1.410 . S
C452 C453 1.392 . S
C452 C455 1.511 . S
C453 C449 1.376 . S
C453 C452 1.392 . S
C453 H465 0.929 . S
C454 C450 1.531 . S
C454 H466 0.960 . S
C454 H467 0.962 . S
C454 H468 0.960 . S
C455 C452 1.511 . S
C455 H469 0.961 . S
C455 H470 0.961 . S
C455 H471 0.961 . S
C456 C457 1.370 . S
C456 C458 1.363 . S
C456 H472 0.931 . S
C457 C456 1.370 . S
C457 C461 1.408 . S
C458 C456 1.363 . S
C458 C459 1.370 . S
C458 C462 1.524 . S
C459 C451 1.503 . S
C459 C458 1.370 . S
C459 C460 1.403 . S
C460 C459 1.403 . S
C460 C461 1.404 . S
C460 C463 1.539 . S
C461 C457 1.408 . S
C461 C460 1.404 . S
C461 H473 0.930 . S
C462 C458 1.524 . S
C462 H474 0.956 . S
C462 H475 0.961 . S
C462 H476 0.961 . S
C463 C460 1.539 . S
C463 H477 0.958 . S
C463 H478 0.961 . S
C463 H479 0.960 . S
H464 C448 0.931 . S
H465 C453 0.929 . S
H466 C454 0.960 . S
H467 C454 0.962 . S
H468 C454 0.960 . S
H469 C455 0.961 . S
H470 C455 0.961 . S
H471 C455 0.961 . S
H472 C456 0.931 . S
H473 C461 0.930 . S
H474 C462 0.956 . S
H475 C462 0.961 . S
H476 C462 0.961 . S
H477 C463 0.958 . S
H478 C463 0.961 . S
H479 C463 0.960 . S
C480 C481 1.391 . S
C480 C482 1.394 . S
C480 H496 0.931 . S
C481 C480 1.391 . S
C481 C485 1.376 . S
C482 C480 1.394 . S
C482 C483 1.369 . S
C482 C486 1.531 1_545 S
C483 C482 1.369 . S
C483 C484 1.410 . S
C483 C491 1.503 1_545 S
C484 C483 1.410 . S
C484 C485 1.392 . S
C484 C487 1.511 . S
C485 C481 1.376 . S
C485 C484 1.392 . S
C485 H497 0.929 . S
C486 C482 1.531 1_565 S
C486 H498 0.960 . S
C486 H499 0.962 . S
C486 H500 0.960 . S
C487 C484 1.511 . S
C487 H501 0.961 . S
C487 H502 0.961 . S
C487 H503 0.961 . S
C488 C489 1.370 . S
C488 C490 1.363 . S
C488 H504 0.931 . S
C489 C488 1.370 . S
C489 C493 1.408 . S
C490 C488 1.363 . S
C490 C491 1.370 . S
C490 C494 1.524 1_565 S
C491 C483 1.503 1_565 S
C491 C490 1.370 . S
C491 C492 1.403 . S
C492 C491 1.403 . S
C492 C493 1.404 . S
C492 C495 1.539 . S
C493 C489 1.408 . S
C493 C492 1.404 . S
C493 H505 0.930 . S
C494 C490 1.524 1_545 S
C494 H506 0.956 . S
C494 H507 0.961 . S
C494 H508 0.961 . S
C495 C492 1.539 . S
C495 H509 0.958 . S
C495 H510 0.961 . S
C495 H511 0.960 . S
H496 C480 0.931 . S
H497 C485 0.929 . S
H498 C486 0.960 . S
H499 C486 0.962 . S
H500 C486 0.960 . S
H501 C487 0.961 . S
H502 C487 0.961 . S
H503 C487 0.961 . S
H504 C488 0.931 . S
H505 C493 0.930 . S
H506 C494 0.956 . S
H507 C494 0.961 . S
H508 C494 0.961 . S
H509 C495 0.958 . S
H510 C495 0.961 . S
H511 C495 0.960 . S
C512 C513 1.391 . S
C512 C514 1.394 . S
C512 H528 0.931 . S
C513 C512 1.391 . S
C513 C517 1.376 . S
C514 C512 1.394 . S
C514 C515 1.369 . S
C514 C518 1.531 1_556 S
C515 C514 1.369 . S
C515 C516 1.410 . S
C515 C523 1.503 1_556 S
C516 C515 1.410 . S
C516 C517 1.392 . S
C516 C519 1.511 . S
C517 C513 1.376 . S
C517 C516 1.392 . S
C517 H529 0.929 . S
C518 C514 1.531 1_554 S
C518 H530 0.960 . S
C518 H531 0.962 . S
C518 H532 0.960 . S
C519 C516 1.511 . S
C519 H533 0.961 . S
C519 H534 0.961 . S
C519 H535 0.961 . S
C520 C521 1.370 . S
C520 C522 1.363 . S
C520 H536 0.931 . S
C521 C520 1.370 . S
C521 C525 1.408 . S
C522 C520 1.363 . S
C522 C523 1.370 . S
C522 C526 1.513 1_554 S
C523 C515 1.503 1_554 S
C523 C522 1.370 . S
C523 C524 1.403 . S
C524 C523 1.403 . S
C524 C525 1.404 . S
C524 C527 1.539 . S
C525 C521 1.408 . S
C525 C524 1.404 . S
C525 H537 0.930 . S
C526 C522 1.513 1_556 S
C526 H538 0.951 1_556 S
C526 H539 0.982 . S
C526 H540 0.956 1_556 S
C527 C524 1.539 . S
C527 H541 0.958 . S
C527 H542 0.961 . S
C527 H543 0.960 . S
H528 C512 0.931 . S
H529 C517 0.929 . S
H530 C518 0.960 . S
H531 C518 0.962 . S
H532 C518 0.960 . S
H533 C519 0.961 . S
H534 C519 0.961 . S
H535 C519 0.961 . S
H536 C520 0.931 . S
H537 C525 0.930 . S
H538 C526 0.951 1_554 S
H539 C526 0.982 . S
H540 C526 0.956 1_554 S
H541 C527 0.958 . S
H542 C527 0.961 . S
H543 C527 0.960 . S
C544 C545 1.391 . S
C544 C546 1.394 . S
C544 H560 0.931 . S
C545 C544 1.391 . S
C545 C549 1.376 . S
C546 C544 1.394 . S
C546 C547 1.369 . S
C546 C550 1.531 1_565 S
C547 C546 1.369 . S
C547 C548 1.410 . S
C547 C555 1.503 1_565 S
C548 C547 1.410 . S
C548 C549 1.392 . S
C548 C551 1.511 . S
C549 C545 1.376 . S
C549 C548 1.392 . S
C549 H561 0.929 . S
C550 C546 1.531 1_545 S
C550 H562 0.960 . S
C550 H563 0.962 . S
C550 H564 0.960 . S
C551 C548 1.511 . S
C551 H565 0.961 . S
C551 H566 0.961 . S
C551 H567 0.961 . S
C552 C553 1.370 . S
C552 C554 1.363 . S
C552 H568 0.931 . S
C553 C552 1.370 . S
C553 C557 1.408 . S
C554 C552 1.363 . S
C554 C555 1.370 . S
C554 C558 1.524 1_545 S
C555 C547 1.503 1_545 S
C555 C554 1.370 . S
C555 C556 1.403 . S
C556 C555 1.403 . S
C556 C557 1.404 . S
C556 C559 1.539 . S
C557 C553 1.408 . S
C557 C556 1.404 . S
C557 H569 0.930 . S
C558 C554 1.524 1_565 S
C558 H570 0.956 . S
C558 H571 0.961 . S
C558 H572 0.961 . S
C559 C556 1.539 . S
C559 H573 0.958 . S
C559 H574 0.961 . S
C559 H575 0.960 . S
H560 C544 0.931 . S
H561 C549 0.929 . S
H562 C550 0.960 . S
H563 C550 0.962 . S
H564 C550 0.960 . S
H565 C551 0.961 . S
H566 C551 0.961 . S
H567 C551 0.961 . S
H568 C552 0.931 . S
H569 C557 0.930 . S
H570 C558 0.956 . S
H571 C558 0.961 . S
H572 C558 0.961 . S
H573 C559 0.958 . S
H574 C559 0.961 . S
H575 C559 0.960 . S
C576 C577 1.391 . S
C576 C578 1.394 . S
C576 H592 0.931 . S
C577 C576 1.391 . S
C577 C581 1.376 . S
C578 C576 1.394 . S
C578 C579 1.369 . S
C578 C582 1.531 . S
C579 C578 1.369 . S
C579 C580 1.410 . S
C579 C587 1.503 . S
C580 C579 1.410 . S
C580 C581 1.392 . S
C580 C583 1.511 . S
C581 C577 1.376 . S
C581 C580 1.392 . S
C581 H593 0.929 . S
C582 C578 1.531 . S
C582 H594 0.960 . S
C582 H595 0.962 . S
C582 H596 0.960 . S
C583 C580 1.511 . S
C583 H597 0.961 . S
C583 H598 0.961 . S
C583 H599 0.961 . S
C584 C585 1.370 . S
C584 C586 1.363 . S
C584 H600 0.931 . S
C585 C584 1.370 . S
C585 C589 1.408 . S
C586 C584 1.363 . S
C586 C587 1.370 . S
C586 C590 1.524 . S
C587 C579 1.503 . S
C587 C586 1.370 . S
C587 C588 1.403 . S
C588 C587 1.403 . S
C588 C589 1.404 . S
C588 C591 1.539 . S
C589 C585 1.408 . S
C589 C588 1.404 . S
C589 H601 0.930 . S
C590 C586 1.524 . S
C590 H602 0.956 . S
C590 H603 0.961 . S
C590 H604 0.961 . S
C591 C588 1.539 . S
C591 H605 0.958 . S
C591 H606 0.961 . S
C591 H607 0.960 . S
H592 C576 0.931 . S
H593 C581 0.929 . S
H594 C582 0.960 . S
H595 C582 0.962 . S
H596 C582 0.960 . S
H597 C583 0.961 . S
H598 C583 0.961 . S
H599 C583 0.961 . S
H600 C584 0.931 . S
H601 C589 0.930 . S
H602 C590 0.956 . S
H603 C590 0.961 . S
H604 C590 0.961 . S
H605 C591 0.958 . S
H606 C591 0.961 . S
H607 C591 0.960 . S
C608 C609 1.391 . S
C608 C610 1.394 . S
C608 H624 0.931 . S
C609 C608 1.391 . S
C609 C613 1.376 . S
C610 C608 1.394 . S
C610 C611 1.369 . S
C610 C614 1.531 1_565 S
C611 C610 1.369 . S
C611 C612 1.410 . S
C611 C619 1.503 1_565 S
C612 C611 1.410 . S
C612 C613 1.392 . S
C612 C615 1.511 . S
C613 C609 1.376 . S
C613 C612 1.392 . S
C613 H625 0.929 . S
C614 C610 1.531 1_545 S
C614 H626 0.960 . S
C614 H627 0.962 . S
C614 H628 0.960 . S
C615 C612 1.511 . S
C615 H629 0.961 . S
C615 H630 0.961 . S
C615 H631 0.961 . S
C616 C617 1.370 . S
C616 C618 1.363 . S
C616 H632 0.931 . S
C617 C616 1.370 . S
C617 C621 1.408 . S
C618 C616 1.363 . S
C618 C619 1.370 . S
C618 C622 1.524 1_545 S
C619 C611 1.503 1_545 S
C619 C618 1.370 . S
C619 C620 1.403 . S
C620 C619 1.403 . S
C620 C621 1.404 . S
C620 C623 1.539 . S
C621 C617 1.408 . S
C621 C620 1.404 . S
C621 H633 0.930 . S
C622 C618 1.524 1_565 S
C622 H634 0.956 . S
C622 H635 0.961 . S
C622 H636 0.961 . S
C623 C620 1.539 . S
C623 H637 0.958 . S
C623 H638 0.961 . S
C623 H639 0.960 . S
H624 C608 0.931 . S
H625 C613 0.929 . S
H626 C614 0.960 . S
H627 C614 0.962 . S
H628 C614 0.960 . S
H629 C615 0.961 . S
H630 C615 0.961 . S
H631 C615 0.961 . S
H632 C616 0.931 . S
H633 C621 0.930 . S
H634 C622 0.956 . S
H635 C622 0.961 . S
H636 C622 0.961 . S
H637 C623 0.958 . S
H638 C623 0.961 . S
H639 C623 0.960 . S
C640 C641 1.391 . S
C640 C642 1.394 . S
C640 H656 0.931 . S
C641 C640 1.391 . S
C641 C645 1.376 . S
C642 C640 1.394 . S
C642 C643 1.369 . S
C642 C646 1.531 . S
C643 C642 1.369 . S
C643 C644 1.410 . S
C643 C651 1.503 1_556 S
C644 C643 1.410 . S
C644 C645 1.392 . S
C644 C647 1.511 1_556 S
C645 C641 1.376 . S
C645 C644 1.392 . S
C645 H657 0.929 . S
C646 C642 1.531 . S
C646 H658 0.957 1_556 S
C646 H659 0.962 . S
C646 H660 0.960 . S
C647 C644 1.511 1_554 S
C647 H661 0.961 1_554 S
C647 H662 0.961 . S
C647 H663 0.961 . S
C648 C649 1.370 . S
C648 C650 1.363 . S
C648 H664 0.931 . S
C649 C648 1.370 . S
C649 C653 1.408 . S
C650 C648 1.363 . S
C650 C651 1.370 . S
C650 C654 1.524 1_554 S
C651 C643 1.503 1_554 S
C651 C650 1.370 . S
C651 C652 1.403 . S
C652 C651 1.403 . S
C652 C653 1.404 . S
C652 C655 1.539 . S
C653 C649 1.408 . S
C653 C652 1.404 . S
C653 H665 0.930 . S
C654 C650 1.524 1_556 S
C654 H666 0.956 . S
C654 H667 0.961 . S
C654 H668 0.961 . S
C655 C652 1.539 . S
C655 H669 0.958 . S
C655 H670 0.961 . S
C655 H671 0.960 . S
H656 C640 0.931 . S
H657 C645 0.929 . S
H658 C646 0.957 1_554 S
H659 C646 0.962 . S
H660 C646 0.960 . S
H661 C647 0.961 1_556 S
H662 C647 0.961 . S
H663 C647 0.961 . S
H664 C648 0.931 . S
H665 C653 0.930 . S
H666 C654 0.956 . S
H667 C654 0.961 . S
H668 C654 0.961 . S
H669 C655 0.958 . S
H670 C655 0.961 . S
H671 C655 0.960 . S
C672 C673 1.391 . S
C672 C674 1.394 . S
C672 H688 0.931 . S
C673 C672 1.391 . S
C673 C677 1.376 . S
C674 C672 1.394 . S
C674 C675 1.369 . S
C674 C678 1.531 . S
C675 C674 1.369 . S
C675 C676 1.410 . S
C675 C683 1.503 . S
C676 C675 1.410 . S
C676 C677 1.392 . S
C676 C679 1.511 . S
C677 C673 1.376 . S
C677 C676 1.392 . S
C677 H689 0.929 . S
C678 C674 1.531 . S
C678 H690 0.960 . S
C678 H691 0.962 . S
C678 H692 0.960 . S
C679 C676 1.511 . S
C679 H693 0.961 . S
C679 H694 0.961 . S
C679 H695 0.961 . S
C680 C681 1.370 . S
C680 C682 1.363 . S
C680 H696 0.931 . S
C681 C680 1.370 . S
C681 C685 1.408 . S
C682 C680 1.363 . S
C682 C683 1.370 . S
C682 C686 1.524 . S
C683 C675 1.503 . S
C683 C682 1.370 . S
C683 C684 1.403 . S
C684 C683 1.403 . S
C684 C685 1.404 . S
C684 C687 1.539 . S
C685 C681 1.408 . S
C685 C684 1.404 . S
C685 H697 0.930 . S
C686 C682 1.524 . S
C686 H698 0.956 . S
C686 H699 0.961 . S
C686 H700 0.961 . S
C687 C684 1.539 . S
C687 H701 0.958 . S
C687 H702 0.961 . S
C687 H703 0.960 . S
H688 C672 0.931 . S
H689 C677 0.929 . S
H690 C678 0.960 . S
H691 C678 0.962 . S
H692 C678 0.960 . S
H693 C679 0.961 . S
H694 C679 0.961 . S
H695 C679 0.961 . S
H696 C680 0.931 . S
H697 C685 0.930 . S
H698 C686 0.956 . S
H699 C686 0.961 . S
H700 C686 0.961 . S
H701 C687 0.958 . S
H702 C687 0.961 . S
H703 C687 0.960 . S
C704 C705 1.391 . S
C704 C706 1.394 . S
C704 H720 0.931 . S
C705 C704 1.391 . S
C705 C709 1.376 . S
C706 C704 1.394 . S
C706 C707 1.369 . S
C706 C710 1.531 . S
C707 C706 1.369 . S
C707 C708 1.410 . S
C707 C715 1.503 1_556 S
C708 C707 1.410 . S
C708 C709 1.392 . S
C708 C711 1.511 . S
C709 C705 1.376 . S
C709 C708 1.392 . S
C709 H721 0.929 . S
C710 C706 1.531 . S
C710 H722 0.960 . S
C710 H723 0.962 . S
C710 H724 0.960 . S
C711 C708 1.511 . S
C711 H725 0.961 . S
C711 H726 0.961 1_556 S
C711 H727 0.961 . S
C712 C713 1.370 . S
C712 C714 1.363 . S
C712 H728 0.931 . S
C713 C712 1.370 . S
C713 C717 1.408 . S
C714 C712 1.363 . S
C714 C715 1.370 . S
C714 C718 1.524 . S
C715 C707 1.503 1_554 S
C715 C714 1.370 . S
C715 C716 1.403 . S
C716 C715 1.403 . S
C716 C717 1.404 . S
C716 C719 1.539 1_554 S
C717 C713 1.408 . S
C717 C716 1.404 . S
C717 H729 0.930 . S
C718 C714 1.524 . S
C718 H730 0.956 . S
C718 H731 0.961 . S
C718 H732 0.961 . S
C719 C716 1.539 1_556 S
C719 H733 0.958 . S
C719 H734 0.961 . S
C719 H735 0.960 . S
H720 C704 0.931 . S
H721 C709 0.929 . S
H722 C710 0.960 . S
H723 C710 0.962 . S
H724 C710 0.960 . S
H725 C711 0.961 . S
H726 C711 0.961 1_554 S
H727 C711 0.961 . S
H728 C712 0.931 . S
H729 C717 0.930 . S
H730 C718 0.956 . S
H731 C718 0.961 . S
H732 C718 0.961 . S
H733 C719 0.958 . S
H734 C719 0.961 . S
H735 C719 0.960 . S
C736 C737 1.391 . S
C736 C738 1.394 . S
C736 H752 0.931 . S
C737 C736 1.391 . S
C737 C741 1.376 . S
C738 C736 1.394 . S
C738 C739 1.369 . S
C738 C742 1.531 . S
C739 C738 1.369 . S
C739 C740 1.410 . S
C739 C747 1.503 . S
C740 C739 1.410 . S
C740 C741 1.392 . S
C740 C743 1.511 . S
C741 C737 1.376 . S
C741 C740 1.392 . S
C741 H753 0.929 . S
C742 C738 1.531 . S
C742 H754 0.960 . S
C742 H755 0.962 . S
C742 H756 0.960 . S
C743 C740 1.511 . S
C743 H757 0.961 . S
C743 H758 0.961 . S
C743 H759 0.961 . S
C744 C745 1.370 . S
C744 C746 1.363 . S
C744 H760 0.931 . S
C745 C744 1.370 . S
C745 C749 1.408 . S
C746 C744 1.363 . S
C746 C747 1.370 . S
C746 C750 1.524 . S
C747 C739 1.503 . S
C747 C746 1.370 . S
C747 C748 1.403 . S
C748 C747 1.403 . S
C748 C749 1.404 . S
C748 C751 1.539 . S
C749 C745 1.408 . S
C749 C748 1.404 . S
C749 H761 0.930 . S
C750 C746 1.524 . S
C750 H762 0.956 . S
C750 H763 0.961 . S
C750 H764 0.961 . S
C751 C748 1.539 . S
C751 H765 0.958 . S
C751 H766 0.961 . S
C751 H767 0.960 . S
H752 C736 0.931 . S
H753 C741 0.929 . S
H754 C742 0.960 . S
H755 C742 0.962 . S
H756 C742 0.960 . S
H757 C743 0.961 . S
H758 C743 0.961 . S
H759 C743 0.961 . S
H760 C744 0.931 . S
H761 C749 0.930 . S
H762 C750 0.956 . S
H763 C750 0.961 . S
H764 C750 0.961 . S
H765 C751 0.958 . S
H766 C751 0.961 . S
H767 C751 0.960 . S
C768 C769 1.391 . S
C768 C770 1.394 . S
C768 H784 0.931 . S
C769 C768 1.391 . S
C769 C773 1.376 . S
C770 C768 1.394 . S
C770 C771 1.369 . S
C770 C774 1.531 . S
C771 C770 1.369 . S
C771 C772 1.410 . S
C771 C779 1.503 . S
C772 C771 1.410 . S
C772 C773 1.392 . S
C772 C775 1.511 . S
C773 C769 1.376 . S
C773 C772 1.392 . S
C773 H785 0.929 . S
C774 C770 1.531 . S
C774 H786 0.960 . S
C774 H787 0.962 . S
C774 H788 0.960 . S
C775 C772 1.511 . S
C775 H789 0.961 . S
C775 H790 0.961 . S
C775 H791 0.961 . S
C776 C777 1.370 . S
C776 C778 1.363 . S
C776 H792 0.931 . S
C777 C776 1.370 . S
C777 C781 1.408 . S
C778 C776 1.363 . S
C778 C779 1.370 . S
C778 C782 1.524 . S
C779 C771 1.503 . S
C779 C778 1.370 . S
C779 C780 1.403 . S
C780 C779 1.403 . S
C780 C781 1.404 . S
C780 C783 1.539 . S
C781 C777 1.408 . S
C781 C780 1.404 . S
C781 H793 0.930 . S
C782 C778 1.524 . S
C782 H794 0.956 . S
C782 H795 0.961 . S
C782 H796 0.961 . S
C783 C780 1.539 . S
C783 H797 0.958 . S
C783 H798 0.961 . S
C783 H799 0.960 . S
H784 C768 0.931 . S
H785 C773 0.929 . S
H786 C774 0.960 . S
H787 C774 0.962 . S
H788 C774 0.960 . S
H789 C775 0.961 . S
H790 C775 0.961 . S
H791 C775 0.961 . S
H792 C776 0.931 . S
H793 C781 0.930 . S
H794 C782 0.956 . S
H795 C782 0.961 . S
H796 C782 0.961 . S
H797 C783 0.958 . S
H798 C783 0.961 . S
H799 C783 0.960 . S
C800 C801 1.391 . S
C800 C802 1.394 . S
C800 H816 0.931 . S
C801 C800 1.391 . S
C801 C805 1.376 . S
C802 C800 1.394 . S
C802 C803 1.369 . S
C802 C806 1.531 . S
C803 C802 1.369 . S
C803 C804 1.410 . S
C803 C811 1.503 . S
C804 C803 1.410 . S
C804 C805 1.392 . S
C804 C807 1.511 . S
C805 C801 1.376 . S
C805 C804 1.392 . S
C805 H817 0.929 . S
C806 C802 1.531 . S
C806 H818 0.960 . S
C806 H819 0.962 . S
C806 H820 0.960 . S
C807 C804 1.511 . S
C807 H821 0.961 . S
C807 H822 0.961 . S
C807 H823 0.961 . S
C808 C809 1.370 . S
C808 C810 1.363 . S
C808 H824 0.931 . S
C809 C808 1.370 . S
C809 C813 1.408 . S
C810 C808 1.363 . S
C810 C811 1.370 . S
C810 C814 1.524 . S
C811 C803 1.503 . S
C811 C810 1.370 . S
C811 C812 1.403 . S
C812 C811 1.403 . S
C812 C813 1.404 . S
C812 C815 1.539 . S
C813 C809 1.408 . S
C813 C812 1.404 . S
C813 H825 0.930 . S
C814 C810 1.524 . S
C814 H826 0.956 . S
C814 H827 0.961 . S
C814 H828 0.961 . S
C815 C812 1.539 . S
C815 H829 0.958 . S
C815 H830 0.961 . S
C815 H831 0.960 . S
H816 C800 0.931 . S
H817 C805 0.929 . S
H818 C806 0.960 . S
H819 C806 0.962 . S
H820 C806 0.960 . S
H821 C807 0.961 . S
H822 C807 0.961 . S
H823 C807 0.961 . S
H824 C808 0.931 . S
H825 C813 0.930 . S
H826 C814 0.956 . S
H827 C814 0.961 . S
H828 C814 0.961 . S
H829 C815 0.958 . S
H830 C815 0.961 . S
H831 C815 0.960 . S
C832 C833 1.391 . S
C832 C834 1.394 . S
C832 H848 0.931 . S
C833 C832 1.391 . S
C833 C837 1.376 . S
C834 C832 1.394 . S
C834 C835 1.369 . S
C834 C838 1.531 . S
C835 C834 1.369 . S
C835 C836 1.410 . S
C835 C843 1.503 1_554 S
C836 C835 1.410 . S
C836 C837 1.392 . S
C836 C839 1.511 1_554 S
C837 C833 1.376 . S
C837 C836 1.392 . S
C837 H849 0.929 . S
C838 C834 1.531 . S
C838 H850 0.960 . S
C838 H851 0.962 . S
C838 H852 0.960 . S
C839 C836 1.511 1_556 S
C839 H853 0.961 . S
C839 H854 0.961 . S
C839 H855 0.961 . S
C840 C841 1.370 . S
C840 C842 1.363 . S
C840 H856 0.931 . S
C841 C840 1.370 . S
C841 C845 1.408 . S
C842 C840 1.363 . S
C842 C843 1.370 . S
C842 C846 1.524 1_556 S
C843 C835 1.503 1_556 S
C843 C842 1.370 . S
C843 C844 1.403 . S
C844 C843 1.403 . S
C844 C845 1.404 . S
C844 C847 1.539 . S
C845 C841 1.408 . S
C845 C844 1.404 . S
C845 H857 0.930 . S
C846 C842 1.524 1_554 S
C846 H858 0.956 . S
C846 H859 0.961 . S
C846 H860 0.961 1_554 S
C847 C844 1.539 . S
C847 H861 0.958 . S
C847 H862 0.961 . S
C847 H863 0.960 . S
H848 C832 0.931 . S
H849 C837 0.929 . S
H850 C838 0.960 . S
H851 C838 0.962 . S
H852 C838 0.960 . S
H853 C839 0.961 . S
H854 C839 0.961 . S
H855 C839 0.961 . S
H856 C840 0.931 . S
H857 C845 0.930 . S
H858 C846 0.956 . S
H859 C846 0.961 . S
H860 C846 0.961 1_556 S
H861 C847 0.958 . S
H862 C847 0.961 . S
H863 C847 0.960 . S
C864 C865 1.391 . S
C864 C866 1.394 . S
C864 H880 0.931 . S
C865 C864 1.391 . S
C865 C869 1.376 . S
C866 C864 1.394 . S
C866 C867 1.369 . S
C866 C870 1.531 . S
C867 C866 1.369 . S
C867 C868 1.410 . S
C867 C875 1.503 . S
C868 C867 1.410 . S
C868 C869 1.392 . S
C868 C871 1.511 . S
C869 C865 1.376 . S
C869 C868 1.392 . S
C869 H881 0.929 . S
C870 C866 1.531 . S
C870 H882 0.960 . S
C870 H883 0.962 . S
C870 H884 0.960 . S
C871 C868 1.511 . S
C871 H885 0.961 . S
C871 H886 0.961 . S
C871 H887 0.961 . S
C872 C873 1.370 . S
C872 C874 1.363 . S
C872 H888 0.931 . S
C873 C872 1.370 . S
C873 C877 1.408 . S
C874 C872 1.363 . S
C874 C875 1.370 . S
C874 C878 1.524 . S
C875 C867 1.503 . S
C875 C874 1.370 . S
C875 C876 1.403 . S
C876 C875 1.403 . S
C876 C877 1.404 . S
C876 C879 1.539 . S
C877 C873 1.408 . S
C877 C876 1.404 . S
C877 H889 0.930 . S
C878 C874 1.524 . S
C878 H890 0.956 . S
C878 H891 0.961 . S
C878 H892 0.961 . S
C879 C876 1.539 . S
C879 H893 0.958 . S
C879 H894 0.961 . S
C879 H895 0.960 . S
H880 C864 0.931 . S
H881 C869 0.929 . S
H882 C870 0.960 . S
H883 C870 0.962 . S
H884 C870 0.960 . S
H885 C871 0.961 . S
H886 C871 0.961 . S
H887 C871 0.961 . S
H888 C872 0.931 . S
H889 C877 0.930 . S
H890 C878 0.956 . S
H891 C878 0.961 . S
H892 C878 0.961 . S
H893 C879 0.958 . S
H894 C879 0.961 . S
H895 C879 0.960 . S
C896 C897 1.391 . S
C896 C898 1.394 . S
C896 H912 0.931 . S
C897 C896 1.391 . S
C897 C901 1.376 . S
C898 C896 1.394 . S
C898 C899 1.369 . S
C898 C902 1.531 . S
C899 C898 1.369 . S
C899 C900 1.410 . S
C899 C907 1.503 . S
C900 C899 1.410 . S
C900 C901 1.392 . S
C900 C903 1.511 . S
C901 C897 1.376 . S
C901 C900 1.392 . S
C901 H913 0.929 . S
C902 C898 1.531 . S
C902 H914 0.960 . S
C902 H915 0.962 . S
C902 H916 0.960 . S
C903 C900 1.511 . S
C903 H917 0.961 . S
C903 H918 0.961 . S
C903 H919 0.961 . S
C904 C905 1.370 . S
C904 C906 1.363 . S
C904 H920 0.931 . S
C905 C904 1.370 . S
C905 C909 1.408 . S
C906 C904 1.363 . S
C906 C907 1.370 . S
C906 C910 1.524 . S
C907 C899 1.503 . S
C907 C906 1.370 . S
C907 C908 1.403 . S
C908 C907 1.403 . S
C908 C909 1.404 . S
C908 C911 1.539 . S
C909 C905 1.408 . S
C909 C908 1.404 . S
C909 H921 0.930 . S
C910 C906 1.524 . S
C910 H922 0.956 . S
C910 H923 0.961 . S
C910 H924 0.961 . S
C911 C908 1.539 . S
C911 H925 0.958 . S
C911 H926 0.961 . S
C911 H927 0.960 . S
H912 C896 0.931 . S
H913 C901 0.929 . S
H914 C902 0.960 . S
H915 C902 0.962 . S
H916 C902 0.960 . S
H917 C903 0.961 . S
H918 C903 0.961 . S
H919 C903 0.961 . S
H920 C904 0.931 . S
H921 C909 0.930 . S
H922 C910 0.956 . S
H923 C910 0.961 . S
H924 C910 0.961 . S
H925 C911 0.958 . S
H926 C911 0.961 . S
H927 C911 0.960 . S
C928 C929 1.391 . S
C928 C930 1.394 . S
C928 H944 0.931 . S
C929 C928 1.391 . S
C929 C933 1.376 . S
C930 C928 1.394 . S
C930 C931 1.369 . S
C930 C934 1.531 . S
C931 C930 1.369 . S
C931 C932 1.410 . S
C931 C939 1.503 . S
C932 C931 1.410 . S
C932 C933 1.392 . S
C932 C935 1.511 . S
C933 C929 1.376 . S
C933 C932 1.392 . S
C933 H945 0.929 . S
C934 C930 1.531 . S
C934 H946 0.960 . S
C934 H947 0.962 . S
C934 H948 0.960 . S
C935 C932 1.511 . S
C935 H949 0.961 . S
C935 H950 0.961 . S
C935 H951 0.961 . S
C936 C937 1.370 . S
C936 C938 1.363 . S
C936 H952 0.931 . S
C937 C936 1.370 . S
C937 C941 1.408 . S
C938 C936 1.363 . S
C938 C939 1.370 . S
C938 C942 1.524 . S
C939 C931 1.503 . S
C939 C938 1.370 . S
C939 C940 1.403 . S
C940 C939 1.403 . S
C940 C941 1.404 . S
C940 C943 1.539 . S
C941 C937 1.408 . S
C941 C940 1.404 . S
C941 H953 0.930 . S
C942 C938 1.524 . S
C942 H954 0.956 . S
C942 H955 0.961 . S
C942 H956 0.961 . S
C943 C940 1.539 . S
C943 H957 0.958 . S
C943 H958 0.961 . S
C943 H959 0.960 . S
H944 C928 0.931 . S
H945 C933 0.929 . S
H946 C934 0.960 . S
H947 C934 0.962 . S
H948 C934 0.960 . S
H949 C935 0.961 . S
H950 C935 0.961 . S
H951 C935 0.961 . S
H952 C936 0.931 . S
H953 C941 0.930 . S
H954 C942 0.956 . S
H955 C942 0.961 . S
H956 C942 0.961 . S
H957 C943 0.958 . S
H958 C943 0.961 . S
H959 C943 0.960 . S
C960 C961 1.391 . S
C960 C962 1.394 . S
C960 H976 0.931 . S
C961 C960 1.391 . S
C961 C965 1.376 . S
C962 C960 1.394 . S
C962 C963 1.369 . S
C962 C966 1.531 . S
C963 C962 1.369 . S
C963 C964 1.410 . S
C963 C971 1.503 1_655 S
C964 C963 1.410 . S
C964 C965 1.392 . S
C964 C967 1.511 . S
C965 C961 1.376 . S
C965 C964 1.392 . S
C965 H977 0.929 . S
C966 C962 1.531 . S
C966 H978 0.960 1_655 S
C966 H979 0.960 1_655 S
C966 H980 0.960 . S
C967 C964 1.511 . S
C967 H981 0.961 . S
C967 H982 0.961 1_655 S
C967 H983 0.961 . S
C968 C969 1.370 . S
C968 C970 1.363 . S
C968 H984 0.931 . S
C969 C968 1.370 . S
C969 C973 1.408 . S
C970 C968 1.363 . S
C970 C971 1.370 . S
C970 C974 1.524 . S
C971 C963 1.503 1_455 S
C971 C970 1.370 . S
C971 C972 1.403 . S
C972 C971 1.403 . S
C972 C973 1.404 . S
C972 C975 1.539 . S
C973 C969 1.408 . S
C973 C972 1.404 . S
C973 H985 0.930 . S
C974 C970 1.524 . S
C974 H986 0.956 . S
C974 H987 0.961 . S
C974 H988 0.961 . S
C975 C972 1.539 . S
C975 H989 0.958 . S
C975 H990 0.961 . S
C975 H991 0.960 . S
H976 C960 0.931 . S
H977 C965 0.929 . S
H978 C966 0.960 1_455 S
H979 C966 0.960 1_455 S
H980 C966 0.960 . S
H981 C967 0.961 . S
H982 C967 0.961 1_455 S
H983 C967 0.961 . S
H984 C968 0.931 . S
H985 C973 0.930 . S
H986 C974 0.956 . S
H987 C974 0.961 . S
H988 C974 0.961 . S
H989 C975 0.958 . S
H990 C975 0.961 . S
H991 C975 0.960 . S
C992 C993 1.391 . S
C992 C994 1.394 . S
C992 H1008 0.931 . S
C993 C992 1.391 . S
C993 C997 1.376 . S
C994 C992 1.394 . S
C994 C995 1.369 . S
C994 C998 1.531 . S
C995 C994 1.369 . S
C995 C996 1.410 . S
C995 C1003 1.503 . S
C996 C995 1.410 . S
C996 C997 1.392 . S
C996 C999 1.511 . S
C997 C993 1.376 . S
C997 C996 1.392 . S
C997 H1009 0.929 . S
C998 C994 1.531 . S
C998 H1010 0.960 . S
C998 H1011 0.962 . S
C998 H1012 0.960 . S
C999 C996 1.511 . S
C999 H1013 0.961 . S
C999 H1014 0.961 . S
C999 H1015 0.961 . S
C1000 C1001 1.370 . S
C1000 C1002 1.363 . S
C1000 H1016 0.931 . S
C1001 C1000 1.370 . S
C1001 C1005 1.408 . S
C1002 C1000 1.363 . S
C1002 C1003 1.370 . S
C1002 C1006 1.524 . S
C1003 C995 1.503 . S
C1003 C1002 1.370 . S
C1003 C1004 1.403 . S
C1004 C1003 1.403 . S
C1004 C1005 1.404 . S
C1004 C1007 1.539 . S
C1005 C1001 1.408 . S
C1005 C1004 1.404 . S
C1005 H1017 0.930 . S
C1006 C1002 1.524 . S
C1006 H1018 0.956 . S
C1006 H1019 0.961 . S
C1006 H1020 0.961 . S
C1007 C1004 1.539 . S
C1007 H1021 0.958 . S
C1007 H1022 0.961 . S
C1007 H1023 0.960 . S
H1008 C992 0.931 . S
H1009 C997 0.929 . S
H1010 C998 0.960 . S
H1011 C998 0.962 . S
H1012 C998 0.960 . S
H1013 C999 0.961 . S
H1014 C999 0.961 . S
H1015 C999 0.961 . S
H1016 C1000 0.931 . S
H1017 C1005 0.930 . S
H1018 C1006 0.956 . S
H1019 C1006 0.961 . S
H1020 C1006 0.961 . S
H1021 C1007 0.958 . S
H1022 C1007 0.961 . S
H1023 C1007 0.960 . S
C1024 C1025 1.391 . S
C1024 C1026 1.394 . S
C1024 H1040 0.931 . S
C1025 C1024 1.391 . S
C1025 C1029 1.376 . S
C1026 C1024 1.394 . S
C1026 C1027 1.369 . S
C1026 C1030 1.531 . S
C1027 C1026 1.369 . S
C1027 C1028 1.410 . S
C1027 C1035 1.503 . S
C1028 C1027 1.410 . S
C1028 C1029 1.392 . S
C1028 C1031 1.511 . S
C1029 C1025 1.376 . S
C1029 C1028 1.392 . S
C1029 H1041 0.929 . S
C1030 C1026 1.531 . S
C1030 H1042 0.960 . S
C1030 H1043 0.962 . S
C1030 H1044 0.960 . S
C1031 C1028 1.511 . S
C1031 H1045 0.961 . S
C1031 H1046 0.961 . S
C1031 H1047 0.961 . S
C1032 C1033 1.370 . S
C1032 C1034 1.363 . S
C1032 H1048 0.931 . S
C1033 C1032 1.370 . S
C1033 C1037 1.408 . S
C1034 C1032 1.363 . S
C1034 C1035 1.370 . S
C1034 C1038 1.524 . S
C1035 C1027 1.503 . S
C1035 C1034 1.370 . S
C1035 C1036 1.403 . S
C1036 C1035 1.403 . S
C1036 C1037 1.404 . S
C1036 C1039 1.539 . S
C1037 C1033 1.408 . S
C1037 C1036 1.404 . S
C1037 H1049 0.930 . S
C1038 C1034 1.524 . S
C1038 H1050 0.956 . S
C1038 H1051 0.961 . S
C1038 H1052 0.961 . S
C1039 C1036 1.539 . S
C1039 H1053 0.958 . S
C1039 H1054 0.961 . S
C1039 H1055 0.960 . S
H1040 C1024 0.931 . S
H1041 C1029 0.929 . S
H1042 C1030 0.960 . S
H1043 C1030 0.962 . S
H1044 C1030 0.960 . S
H1045 C1031 0.961 . S
H1046 C1031 0.961 . S
H1047 C1031 0.961 . S
H1048 C1032 0.931 . S
H1049 C1037 0.930 . S
H1050 C1038 0.956 . S
H1051 C1038 0.961 . S
H1052 C1038 0.961 . S
H1053 C1039 0.958 . S
H1054 C1039 0.961 . S
H1055 C1039 0.960 . S
C1056 C1057 1.391 . S
C1056 C1058 1.394 . S
C1056 H1072 0.931 . S
C1057 C1056 1.391 . S
C1057 C1061 1.376 . S
C1058 C1056 1.394 . S
C1058 C1059 1.369 . S
C1058 C1062 1.531 . S
C1059 C1058 1.369 . S
C1059 C1060 1.410 . S
C1059 C1067 1.503 . S
C1060 C1059 1.410 . S
C1060 C1061 1.392 . S
C1060 C1063 1.511 . S
C1061 C1057 1.376 . S
C1061 C1060 1.392 . S
C1061 H1073 0.929 . S
C1062 C1058 1.531 . S
C1062 H1074 0.960 . S
C1062 H1075 0.962 . S
C1062 H1076 0.960 . S
C1063 C1060 1.511 . S
C1063 H1077 0.961 . S
C1063 H1078 0.961 . S
C1063 H1079 0.961 . S
C1064 C1065 1.370 . S
C1064 C1066 1.363 . S
C1064 H1080 0.931 . S
C1065 C1064 1.370 . S
C1065 C1069 1.408 . S
C1066 C1064 1.363 . S
C1066 C1067 1.370 . S
C1066 C1070 1.524 . S
C1067 C1059 1.503 . S
C1067 C1066 1.370 . S
C1067 C1068 1.403 . S
C1068 C1067 1.403 . S
C1068 C1069 1.404 . S
C1068 C1071 1.539 . S
C1069 C1065 1.408 . S
C1069 C1068 1.404 . S
C1069 H1081 0.930 . S
C1070 C1066 1.524 . S
C1070 H1082 0.956 . S
C1070 H1083 0.961 . S
C1070 H1084 0.961 . S
C1071 C1068 1.539 . S
C1071 H1085 0.958 . S
C1071 H1086 0.961 . S
C1071 H1087 0.960 . S
H1072 C1056 0.931 . S
H1073 C1061 0.929 . S
H1074 C1062 0.960 . S
H1075 C1062 0.962 . S
H1076 C1062 0.960 . S
H1077 C1063 0.961 . S
H1078 C1063 0.961 . S
H1079 C1063 0.961 . S
H1080 C1064 0.931 . S
H1081 C1069 0.930 . S
H1082 C1070 0.956 . S
H1083 C1070 0.961 . S
H1084 C1070 0.961 . S
H1085 C1071 0.958 . S
H1086 C1071 0.961 . S
H1087 C1071 0.960 . S
C1088 C1089 1.391 . S
C1088 C1090 1.394 . S
C1088 H1104 0.931 . S
C1089 C1088 1.391 . S
C1089 C1093 1.376 . S
C1090 C1088 1.394 . S
C1090 C1091 1.369 . S
C1090 C1094 1.531 . S
C1091 C1090 1.369 . S
C1091 C1092 1.410 . S
C1091 C1099 1.503 . S
C1092 C1091 1.410 . S
C1092 C1093 1.392 . S
C1092 C1095 1.511 . S
C1093 C1089 1.376 . S
C1093 C1092 1.392 . S
C1093 H1105 0.929 . S
C1094 C1090 1.531 . S
C1094 H1106 0.960 . S
C1094 H1107 0.962 . S
C1094 H1108 0.960 . S
C1095 C1092 1.511 . S
C1095 H1109 0.961 . S
C1095 H1110 0.961 . S
C1095 H1111 0.961 . S
C1096 C1097 1.370 . S
C1096 C1098 1.363 . S
C1096 H1112 0.931 . S
C1097 C1096 1.370 . S
C1097 C1101 1.408 . S
C1098 C1096 1.363 . S
C1098 C1099 1.370 . S
C1098 C1102 1.524 . S
C1099 C1091 1.503 . S
C1099 C1098 1.370 . S
C1099 C1100 1.403 . S
C1100 C1099 1.403 . S
C1100 C1101 1.404 . S
C1100 C1103 1.539 . S
C1101 C1097 1.408 . S
C1101 C1100 1.404 . S
C1101 H1113 0.930 . S
C1102 C1098 1.524 . S
C1102 H1114 0.956 . S
C1102 H1115 0.961 . S
C1102 H1116 0.961 . S
C1103 C1100 1.539 . S
C1103 H1117 0.958 . S
C1103 H1118 0.961 . S
C1103 H1119 0.960 . S
H1104 C1088 0.931 . S
H1105 C1093 0.929 . S
H1106 C1094 0.960 . S
H1107 C1094 0.962 . S
H1108 C1094 0.960 . S
H1109 C1095 0.961 . S
H1110 C1095 0.961 . S
H1111 C1095 0.961 . S
H1112 C1096 0.931 . S
H1113 C1101 0.930 . S
H1114 C1102 0.956 . S
H1115 C1102 0.961 . S
H1116 C1102 0.961 . S
H1117 C1103 0.958 . S
H1118 C1103 0.961 . S
H1119 C1103 0.960 . S
C1120 C1121 1.391 . S
C1120 C1122 1.394 . S
C1120 H1136 0.931 . S
C1121 C1120 1.391 . S
C1121 C1125 1.376 . S
C1122 C1120 1.394 . S
C1122 C1123 1.369 . S
C1122 C1126 1.531 . S
C1123 C1122 1.369 . S
C1123 C1124 1.410 . S
C1123 C1131 1.503 . S
C1124 C1123 1.410 . S
C1124 C1125 1.392 . S
C1124 C1127 1.511 . S
C1125 C1121 1.376 . S
C1125 C1124 1.392 . S
C1125 H1137 0.929 . S
C1126 C1122 1.531 . S
C1126 H1138 0.960 . S
C1126 H1139 0.962 . S
C1126 H1140 0.960 . S
C1127 C1124 1.511 . S
C1127 H1141 0.961 . S
C1127 H1142 0.961 . S
C1127 H1143 0.961 . S
C1128 C1129 1.370 . S
C1128 C1130 1.363 . S
C1128 H1144 0.931 . S
C1129 C1128 1.370 . S
C1129 C1133 1.408 . S
C1130 C1128 1.363 . S
C1130 C1131 1.370 . S
C1130 C1134 1.524 . S
C1131 C1123 1.503 . S
C1131 C1130 1.370 . S
C1131 C1132 1.403 . S
C1132 C1131 1.403 . S
C1132 C1133 1.404 . S
C1132 C1135 1.539 . S
C1133 C1129 1.408 . S
C1133 C1132 1.404 . S
C1133 H1145 0.930 . S
C1134 C1130 1.524 . S
C1134 H1146 0.956 . S
C1134 H1147 0.961 . S
C1134 H1148 0.961 . S
C1135 C1132 1.539 . S
C1135 H1149 0.958 . S
C1135 H1150 0.961 . S
C1135 H1151 0.960 . S
H1136 C1120 0.931 . S
H1137 C1125 0.929 . S
H1138 C1126 0.960 . S
H1139 C1126 0.962 . S
H1140 C1126 0.960 . S
H1141 C1127 0.961 . S
H1142 C1127 0.961 . S
H1143 C1127 0.961 . S
H1144 C1128 0.931 . S
H1145 C1133 0.930 . S
H1146 C1134 0.956 . S
H1147 C1134 0.961 . S
H1148 C1134 0.961 . S
H1149 C1135 0.958 . S
H1150 C1135 0.961 . S
H1151 C1135 0.960 . S
C1152 C1153 1.391 . S
C1152 C1154 1.394 . S
C1152 H1168 0.931 . S
C1153 C1152 1.391 . S
C1153 C1157 1.376 . S
C1154 C1152 1.394 . S
C1154 C1155 1.369 . S
C1154 C1158 1.531 . S
C1155 C1154 1.369 . S
C1155 C1156 1.410 . S
C1155 C1163 1.503 1_455 S
C1156 C1155 1.410 . S
C1156 C1157 1.392 . S
C1156 C1159 1.511 . S
C1157 C1153 1.376 . S
C1157 C1156 1.392 . S
C1157 H1169 0.929 . S
C1158 C1154 1.531 . S
C1158 H1170 0.960 . S
C1158 H1171 0.962 . S
C1158 H1172 0.960 . S
C1159 C1156 1.511 . S
C1159 H1173 0.961 . S
C1159 H1174 0.961 . S
C1159 H1175 0.961 . S
C1160 C1161 1.370 . S
C1160 C1162 1.363 . S
C1160 H1176 0.931 . S
C1161 C1160 1.370 . S
C1161 C1165 1.408 . S
C1162 C1160 1.363 . S
C1162 C1163 1.370 . S
C1162 C1166 1.524 1_655 S
C1163 C1155 1.503 1_655 S
C1163 C1162 1.370 . S
C1163 C1164 1.403 . S
C1164 C1163 1.403 . S
C1164 C1165 1.404 . S
C1164 C1167 1.539 . S
C1165 C1161 1.408 . S
C1165 C1164 1.404 . S
C1165 H1177 0.930 . S
C1166 C1162 1.524 1_455 S
C1166 H1178 0.956 . S
C1166 H1179 0.961 . S
C1166 H1180 0.961 1_455 S
C1167 C1164 1.539 . S
C1167 H1181 0.958 . S
C1167 H1182 0.961 . S
C1167 H1183 0.960 1_655 S
H1168 C1152 0.931 . S
H1169 C1157 0.929 . S
H1170 C1158 0.960 . S
H1171 C1158 0.962 . S
H1172 C1158 0.960 . S
H1173 C1159 0.961 . S
H1174 C1159 0.961 . S
H1175 C1159 0.961 . S
H1176 C1160 0.931 . S
H1177 C1165 0.930 . S
H1178 C1166 0.956 . S
H1179 C1166 0.961 . S
H1180 C1166 0.961 1_655 S
H1181 C1167 0.958 . S
H1182 C1167 0.961 . S
H1183 C1167 0.960 1_455 S
C1184 C1185 1.391 . S
C1184 C1186 1.394 . S
C1184 H1200 0.931 . S
C1185 C1184 1.391 . S
C1185 C1189 1.376 . S
C1186 C1184 1.394 . S
C1186 C1187 1.369 . S
C1186 C1190 1.531 . S
C1187 C1186 1.369 . S
C1187 C1188 1.410 . S
C1187 C1195 1.503 . S
C1188 C1187 1.410 . S
C1188 C1189 1.392 . S
C1188 C1191 1.511 . S
C1189 C1185 1.376 . S
C1189 C1188 1.392 . S
C1189 H1201 0.929 . S
C1190 C1186 1.531 . S
C1190 H1202 0.960 . S
C1190 H1203 0.962 . S
C1190 H1204 0.960 . S
C1191 C1188 1.511 . S
C1191 H1205 0.961 . S
C1191 H1206 0.961 . S
C1191 H1207 0.961 . S
C1192 C1193 1.370 . S
C1192 C1194 1.363 . S
C1192 H1208 0.931 . S
C1193 C1192 1.370 . S
C1193 C1197 1.408 . S
C1194 C1192 1.363 . S
C1194 C1195 1.370 . S
C1194 C1198 1.524 . S
C1195 C1187 1.503 . S
C1195 C1194 1.370 . S
C1195 C1196 1.403 . S
C1196 C1195 1.403 . S
C1196 C1197 1.404 . S
C1196 C1199 1.539 . S
C1197 C1193 1.408 . S
C1197 C1196 1.404 . S
C1197 H1209 0.930 . S
C1198 C1194 1.524 . S
C1198 H1210 0.956 . S
C1198 H1211 0.961 . S
C1198 H1212 0.961 . S
C1199 C1196 1.539 . S
C1199 H1213 0.958 . S
C1199 H1214 0.961 . S
C1199 H1215 0.960 . S
H1200 C1184 0.931 . S
H1201 C1189 0.929 . S
H1202 C1190 0.960 . S
H1203 C1190 0.962 . S
H1204 C1190 0.960 . S
H1205 C1191 0.961 . S
H1206 C1191 0.961 . S
H1207 C1191 0.961 . S
H1208 C1192 0.931 . S
H1209 C1197 0.930 . S
H1210 C1198 0.956 . S
H1211 C1198 0.961 . S
H1212 C1198 0.961 . S
H1213 C1199 0.958 . S
H1214 C1199 0.961 . S
H1215 C1199 0.960 . S
C1216 C1217 1.391 . S
C1216 C1218 1.394 . S
C1216 H1232 0.931 . S
C1217 C1216 1.391 . S
C1217 C1221 1.376 . S
C1218 C1216 1.394 . S
C1218 C1219 1.369 . S
C1218 C1222 1.531 . S
C1219 C1218 1.369 . S
C1219 C1220 1.410 . S
C1219 C1227 1.503 1_655 S
C1220 C1219 1.410 . S
C1220 C1221 1.392 . S
C1220 C1223 1.511 . S
C1221 C1217 1.376 . S
C1221 C1220 1.392 . S
C1221 H1233 0.929 . S
C1222 C1218 1.531 . S
C1222 H1234 0.960 . S
C1222 H1235 0.962 . S
C1222 H1236 0.960 . S
C1223 C1220 1.511 . S
C1223 H1237 0.961 . S
C1223 H1238 0.961 . S
C1223 H1239 0.961 . S
C1224 C1225 1.370 . S
C1224 C1226 1.363 . S
C1224 H1240 0.931 . S
C1225 C1224 1.370 . S
C1225 C1229 1.408 . S
C1226 C1224 1.363 . S
C1226 C1227 1.370 . S
C1226 C1230 1.524 1_455 S
C1227 C1219 1.503 1_455 S
C1227 C1226 1.370 . S
C1227 C1228 1.403 . S
C1228 C1227 1.403 . S
C1228 C1229 1.404 . S
C1228 C1231 1.539 . S
C1229 C1225 1.408 . S
C1229 C1228 1.404 . S
C1229 H1241 0.930 . S
C1230 C1226 1.524 1_655 S
C1230 H1242 0.956 . S
C1230 H1243 0.961 . S
C1230 H1244 0.961 1_655 S
C1231 C1228 1.539 . S
C1231 H1245 0.958 . S
C1231 H1246 0.961 . S
C1231 H1247 0.960 1_455 S
H1232 C1216 0.931 . S
H1233 C1221 0.929 . S
H1234 C1222 0.960 . S
H1235 C1222 0.962 . S
H1236 C1222 0.960 . S
H1237 C1223 0.961 . S
H1238 C1223 0.961 . S
H1239 C1223 0.961 . S
H1240 C1224 0.931 . S
H1241 C1229 0.930 . S
H1242 C1230 0.956 . S
H1243 C1230 0.961 . S
H1244 C1230 0.961 1_455 S
H1245 C1231 0.958 . S
H1246 C1231 0.961 . S
H1247 C1231 0.960 1_655 S
C1248 C1249 1.391 . S
C1248 C1250 1.394 . S
C1248 H1264 0.931 . S
C1249 C1248 1.391 . S
C1249 C1253 1.376 . S
C1250 C1248 1.394 . S
C1250 C1251 1.369 . S
C1250 C1254 1.531 . S
C1251 C1250 1.369 . S
C1251 C1252 1.410 . S
C1251 C1259 1.503 . S
C1252 C1251 1.410 . S
C1252 C1253 1.392 . S
C1252 C1255 1.511 . S
C1253 C1249 1.376 . S
C1253 C1252 1.392 . S
C1253 H1265 0.929 . S
C1254 C1250 1.531 . S
C1254 H1266 0.960 . S
C1254 H1267 0.962 . S
C1254 H1268 0.960 . S
C1255 C1252 1.511 . S
C1255 H1269 0.961 . S
C1255 H1270 0.961 . S
C1255 H1271 0.961 . S
C1256 C1257 1.370 . S
C1256 C1258 1.363 . S
C1256 H1272 0.931 . S
C1257 C1256 1.370 . S
C1257 C1261 1.408 . S
C1258 C1256 1.363 . S
C1258 C1259 1.370 . S
C1258 C1262 1.524 . S
C1259 C1251 1.503 . S
C1259 C1258 1.370 . S
C1259 C1260 1.403 . S
C1260 C1259 1.403 . S
C1260 C1261 1.404 . S
C1260 C1263 1.539 . S
C1261 C1257 1.408 . S
C1261 C1260 1.404 . S
C1261 H1273 0.930 . S
C1262 C1258 1.524 . S
C1262 H1274 0.956 . S
C1262 H1275 0.961 . S
C1262 H1276 0.961 . S
C1263 C1260 1.539 . S
C1263 H1277 0.958 . S
C1263 H1278 0.961 . S
C1263 H1279 0.960 . S
H1264 C1248 0.931 . S
H1265 C1253 0.929 . S
H1266 C1254 0.960 . S
H1267 C1254 0.962 . S
H1268 C1254 0.960 . S
H1269 C1255 0.961 . S
H1270 C1255 0.961 . S
H1271 C1255 0.961 . S
H1272 C1256 0.931 . S
H1273 C1261 0.930 . S
H1274 C1262 0.956 . S
H1275 C1262 0.961 . S
H1276 C1262 0.961 . S
H1277 C1263 0.958 . S
H1278 C1263 0.961 . S
H1279 C1263 0.960 . S
C1280 C1281 1.391 . S
C1280 C1282 1.394 . S
C1280 H1296 0.931 . S
C1281 C1280 1.391 . S
C1281 C1285 1.376 . S
C1282 C1280 1.394 . S
C1282 C1283 1.369 . S
C1282 C1286 1.531 . S
C1283 C1282 1.369 . S
C1283 C1284 1.410 . S
C1283 C1291 1.503 . S
C1284 C1283 1.410 . S
C1284 C1285 1.392 . S
C1284 C1287 1.511 . S
C1285 C1281 1.376 . S
C1285 C1284 1.392 . S
C1285 H1297 0.929 . S
C1286 C1282 1.531 . S
C1286 H1298 0.960 . S
C1286 H1299 0.962 . S
C1286 H1300 0.960 . S
C1287 C1284 1.511 . S
C1287 H1301 0.961 . S
C1287 H1302 0.961 . S
C1287 H1303 0.961 . S
C1288 C1289 1.370 . S
C1288 C1290 1.363 . S
C1288 H1304 0.931 . S
C1289 C1288 1.370 . S
C1289 C1293 1.408 . S
C1290 C1288 1.363 . S
C1290 C1291 1.370 . S
C1290 C1294 1.524 . S
C1291 C1283 1.503 . S
C1291 C1290 1.370 . S
C1291 C1292 1.403 . S
C1292 C1291 1.403 . S
C1292 C1293 1.404 . S
C1292 C1295 1.539 . S
C1293 C1289 1.408 . S
C1293 C1292 1.404 . S
C1293 H1305 0.930 . S
C1294 C1290 1.524 . S
C1294 H1306 0.956 . S
C1294 H1307 0.961 . S
C1294 H1308 0.961 . S
C1295 C1292 1.539 . S
C1295 H1309 0.958 . S
C1295 H1310 0.961 . S
C1295 H1311 0.960 . S
H1296 C1280 0.931 . S
H1297 C1285 0.929 . S
H1298 C1286 0.960 . S
H1299 C1286 0.962 . S
H1300 C1286 0.960 . S
H1301 C1287 0.961 . S
H1302 C1287 0.961 . S
H1303 C1287 0.961 . S
H1304 C1288 0.931 . S
H1305 C1293 0.930 . S
H1306 C1294 0.956 . S
H1307 C1294 0.961 . S
H1308 C1294 0.961 . S
H1309 C1295 0.958 . S
H1310 C1295 0.961 . S
H1311 C1295 0.960 . S
C1312 C1313 1.391 . S
C1312 C1314 1.394 . S
C1312 H1328 0.931 . S
C1313 C1312 1.391 . S
C1313 C1317 1.376 . S
C1314 C1312 1.394 . S
C1314 C1315 1.369 . S
C1314 C1318 1.531 . S
C1315 C1314 1.369 . S
C1315 C1316 1.410 . S
C1315 C1323 1.503 . S
C1316 C1315 1.410 . S
C1316 C1317 1.392 . S
C1316 C1319 1.511 . S
C1317 C1313 1.376 . S
C1317 C1316 1.392 . S
C1317 H1329 0.929 . S
C1318 C1314 1.531 . S
C1318 H1330 0.960 . S
C1318 H1331 0.962 . S
C1318 H1332 0.960 . S
C1319 C1316 1.511 . S
C1319 H1333 0.961 . S
C1319 H1334 0.961 . S
C1319 H1335 0.961 . S
C1320 C1321 1.370 . S
C1320 C1322 1.363 . S
C1320 H1336 0.931 . S
C1321 C1320 1.370 . S
C1321 C1325 1.408 . S
C1322 C1320 1.363 . S
C1322 C1323 1.370 . S
C1322 C1326 1.524 . S
C1323 C1315 1.503 . S
C1323 C1322 1.370 . S
C1323 C1324 1.403 . S
C1324 C1323 1.403 . S
C1324 C1325 1.404 . S
C1324 C1327 1.539 . S
C1325 C1321 1.408 . S
C1325 C1324 1.404 . S
C1325 H1337 0.930 . S
C1326 C1322 1.524 . S
C1326 H1338 0.956 . S
C1326 H1339 0.961 . S
C1326 H1340 0.961 . S
C1327 C1324 1.539 . S
C1327 H1341 0.958 . S
C1327 H1342 0.961 . S
C1327 H1343 0.960 . S
H1328 C1312 0.931 . S
H1329 C1317 0.929 . S
H1330 C1318 0.960 . S
H1331 C1318 0.962 . S
H1332 C1318 0.960 . S
H1333 C1319 0.961 . S
H1334 C1319 0.961 . S
H1335 C1319 0.961 . S
H1336 C1320 0.931 . S
H1337 C1325 0.930 . S
H1338 C1326 0.956 . S
H1339 C1326 0.961 . S
H1340 C1326 0.961 . S
H1341 C1327 0.958 . S
H1342 C1327 0.961 . S
H1343 C1327 0.960 . S
C1344 C1345 1.391 . S
C1344 C1346 1.394 . S
C1344 H1360 0.931 . S
C1345 C1344 1.391 . S
C1345 C1349 1.376 . S
C1346 C1344 1.394 . S
C1346 C1347 1.369 . S
C1346 C1350 1.531 . S
C1347 C1346 1.369 . S
C1347 C1348 1.410 . S
C1347 C1355 1.503 . S
C1348 C1347 1.410 . S
C1348 C1349 1.392 . S
C1348 C1351 1.511 . S
C1349 C1345 1.376 . S
C1349 C1348 1.392 . S
C1349 H1361 0.929 . S
C1350 C1346 1.531 . S
C1350 H1362 0.960 . S
C1350 H1363 0.962 . S
C1350 H1364 0.960 . S
C1351 C1348 1.511 . S
C1351 H1365 0.961 . S
C1351 H1366 0.961 . S
C1351 H1367 0.961 . S
C1352 C1353 1.370 . S
C1352 C1354 1.363 . S
C1352 H1368 0.931 . S
C1353 C1352 1.370 . S
C1353 C1357 1.408 . S
C1354 C1352 1.363 . S
C1354 C1355 1.370 . S
C1354 C1358 1.524 . S
C1355 C1347 1.503 . S
C1355 C1354 1.370 . S
C1355 C1356 1.403 . S
C1356 C1355 1.403 . S
C1356 C1357 1.404 . S
C1356 C1359 1.539 . S
C1357 C1353 1.408 . S
C1357 C1356 1.404 . S
C1357 H1369 0.930 . S
C1358 C1354 1.524 . S
C1358 H1370 0.956 . S
C1358 H1371 0.961 . S
C1358 H1372 0.961 . S
C1359 C1356 1.539 . S
C1359 H1373 0.958 . S
C1359 H1374 0.961 . S
C1359 H1375 0.960 . S
H1360 C1344 0.931 . S
H1361 C1349 0.929 . S
H1362 C1350 0.960 . S
H1363 C1350 0.962 . S
H1364 C1350 0.960 . S
H1365 C1351 0.961 . S
H1366 C1351 0.961 . S
H1367 C1351 0.961 . S
H1368 C1352 0.931 . S
H1369 C1357 0.930 . S
H1370 C1358 0.956 . S
H1371 C1358 0.961 . S
H1372 C1358 0.961 . S
H1373 C1359 0.958 . S
H1374 C1359 0.961 . S
H1375 C1359 0.960 . S
C1376 C1377 1.391 . S
C1376 C1378 1.394 . S
C1376 H1392 0.931 . S
C1377 C1376 1.391 . S
C1377 C1381 1.376 . S
C1378 C1376 1.394 . S
C1378 C1379 1.369 . S
C1378 C1382 1.531 . S
C1379 C1378 1.369 . S
C1379 C1380 1.410 . S
C1379 C1387 1.503 . S
C1380 C1379 1.410 . S
C1380 C1381 1.392 . S
C1380 C1383 1.511 . S
C1381 C1377 1.376 . S
C1381 C1380 1.392 . S
C1381 H1393 0.929 . S
C1382 C1378 1.531 . S
C1382 H1394 0.960 . S
C1382 H1395 0.962 . S
C1382 H1396 0.960 . S
C1383 C1380 1.511 . S
C1383 H1397 0.961 . S
C1383 H1398 0.961 . S
C1383 H1399 0.961 . S
C1384 C1385 1.370 . S
C1384 C1386 1.363 . S
C1384 H1400 0.931 . S
C1385 C1384 1.370 . S
C1385 C1389 1.408 . S
C1386 C1384 1.363 . S
C1386 C1387 1.370 . S
C1386 C1390 1.524 . S
C1387 C1379 1.503 . S
C1387 C1386 1.370 . S
C1387 C1388 1.403 . S
C1388 C1387 1.403 . S
C1388 C1389 1.404 . S
C1388 C1391 1.539 . S
C1389 C1385 1.408 . S
C1389 C1388 1.404 . S
C1389 H1401 0.930 . S
C1390 C1386 1.524 . S
C1390 H1402 0.956 . S
C1390 H1403 0.961 . S
C1390 H1404 0.961 . S
C1391 C1388 1.539 . S
C1391 H1405 0.958 . S
C1391 H1406 0.961 . S
C1391 H1407 0.960 . S
H1392 C1376 0.931 . S
H1393 C1381 0.929 . S
H1394 C1382 0.960 . S
H1395 C1382 0.962 . S
H1396 C1382 0.960 . S
H1397 C1383 0.961 . S
H1398 C1383 0.961 . S
H1399 C1383 0.961 . S
H1400 C1384 0.931 . S
H1401 C1389 0.930 . S
H1402 C1390 0.956 . S
H1403 C1390 0.961 . S
H1404 C1390 0.961 . S
H1405 C1391 0.958 . S
H1406 C1391 0.961 . S
H1407 C1391 0.960 . S
C1408 C1409 1.391 . S
C1408 C1410 1.394 . S
C1408 H1424 0.931 . S
C1409 C1408 1.391 . S
C1409 C1413 1.376 . S
C1410 C1408 1.394 . S
C1410 C1411 1.369 . S
C1410 C1414 1.531 . S
C1411 C1410 1.369 . S
C1411 C1412 1.410 . S
C1411 C1419 1.503 1_655 S
C1412 C1411 1.410 . S
C1412 C1413 1.392 . S
C1412 C1415 1.511 . S
C1413 C1409 1.376 . S
C1413 C1412 1.392 . S
C1413 H1425 0.929 . S
C1414 C1410 1.531 . S
C1414 H1426 0.960 . S
C1414 H1427 0.962 . S
C1414 H1428 0.960 . S
C1415 C1412 1.511 . S
C1415 H1429 0.961 . S
C1415 H1430 0.961 . S
C1415 H1431 0.961 . S
C1416 C1417 1.370 . S
C1416 C1418 1.363 . S
C1416 H1432 0.931 . S
C1417 C1416 1.370 . S
C1417 C1421 1.408 . S
C1418 C1416 1.363 . S
C1418 C1419 1.370 . S
C1418 C1422 1.524 1_455 S
C1419 C1411 1.503 1_455 S
C1419 C1418 1.370 . S
C1419 C1420 1.403 . S
C1420 C1419 1.403 . S
C1420 C1421 1.404 . S
C1420 C1423 1.539 . S
C1421 C1417 1.408 . S
C1421 C1420 1.404 . S
C1421 H1433 0.930 . S
C1422 C1418 1.524 1_655 S
C1422 H1434 0.956 . S
C1422 H1435 0.961 . S
C1422 H1436 0.961 1_655 S
C1423 C1420 1.539 . S
C1423 H1437 0.958 . S
C1423 H1438 0.961 . S
C1423 H1439 0.960 1_455 S
H1424 C1408 0.931 . S
H1425 C1413 0.929 . S
H1426 C1414 0.960 . S
H1427 C1414 0.962 . S
H1428 C1414 0.960 . S
H1429 C1415 0.961 . S
H1430 C1415 0.961 . S
H1431 C1415 0.961 . S
H1432 C1416 0.931 . S
H1433 C1421 0.930 . S
H1434 C1422 0.956 . S
H1435 C1422 0.961 . S
H1436 C1422 0.961 1_455 S
H1437 C1423 0.958 . S
H1438 C1423 0.961 . S
H1439 C1423 0.960 1_655 S
C1440 C1441 1.391 . S
C1440 C1442 1.394 . S
C1440 H1456 0.931 . S
C1441 C1440 1.391 . S
C1441 C1445 1.376 . S
C1442 C1440 1.394 . S
C1442 C1443 1.369 . S
C1442 C1446 1.531 . S
C1443 C1442 1.369 . S
C1443 C1444 1.410 . S
C1443 C1451 1.503 . S
C1444 C1443 1.410 . S
C1444 C1445 1.392 . S
C1444 C1447 1.511 . S
C1445 C1441 1.376 . S
C1445 C1444 1.392 . S
C1445 H1457 0.929 . S
C1446 C1442 1.531 . S
C1446 H1458 0.960 . S
C1446 H1459 0.962 . S
C1446 H1460 0.960 . S
C1447 C1444 1.511 . S
C1447 H1461 0.961 . S
C1447 H1462 0.961 . S
C1447 H1463 0.961 . S
C1448 C1449 1.370 . S
C1448 C1450 1.363 . S
C1448 H1464 0.931 . S
C1449 C1448 1.370 . S
C1449 C1453 1.408 . S
C1450 C1448 1.363 . S
C1450 C1451 1.370 . S
C1450 C1454 1.524 . S
C1451 C1443 1.503 . S
C1451 C1450 1.370 . S
C1451 C1452 1.403 . S
C1452 C1451 1.403 . S
C1452 C1453 1.404 . S
C1452 C1455 1.539 . S
C1453 C1449 1.408 . S
C1453 C1452 1.404 . S
C1453 H1465 0.930 . S
C1454 C1450 1.524 . S
C1454 H1466 0.956 . S
C1454 H1467 0.961 . S
C1454 H1468 0.961 . S
C1455 C1452 1.539 . S
C1455 H1469 0.958 . S
C1455 H1470 0.961 . S
C1455 H1471 0.960 . S
H1456 C1440 0.931 . S
H1457 C1445 0.929 . S
H1458 C1446 0.960 . S
H1459 C1446 0.962 . S
H1460 C1446 0.960 . S
H1461 C1447 0.961 . S
H1462 C1447 0.961 . S
H1463 C1447 0.961 . S
H1464 C1448 0.931 . S
H1465 C1453 0.930 . S
H1466 C1454 0.956 . S
H1467 C1454 0.961 . S
H1468 C1454 0.961 . S
H1469 C1455 0.958 . S
H1470 C1455 0.961 . S
H1471 C1455 0.960 . S
C1472 C1473 1.391 . S
C1472 C1474 1.394 . S
C1472 H1488 0.931 . S
C1473 C1472 1.391 . S
C1473 C1477 1.376 . S
C1474 C1472 1.394 . S
C1474 C1475 1.369 . S
C1474 C1478 1.531 . S
C1475 C1474 1.369 . S
C1475 C1476 1.410 . S
C1475 C1483 1.503 . S
C1476 C1475 1.410 . S
C1476 C1477 1.392 . S
C1476 C1479 1.511 . S
C1477 C1473 1.376 . S
C1477 C1476 1.392 . S
C1477 H1489 0.929 . S
C1478 C1474 1.531 . S
C1478 H1490 0.960 . S
C1478 H1491 0.962 . S
C1478 H1492 0.960 . S
C1479 C1476 1.511 . S
C1479 H1493 0.961 . S
C1479 H1494 0.961 . S
C1479 H1495 0.961 . S
C1480 C1481 1.370 . S
C1480 C1482 1.363 . S
C1480 H1496 0.931 . S
C1481 C1480 1.370 . S
C1481 C1485 1.408 . S
C1482 C1480 1.363 . S
C1482 C1483 1.370 . S
C1482 C1486 1.524 . S
C1483 C1475 1.503 . S
C1483 C1482 1.370 . S
C1483 C1484 1.403 . S
C1484 C1483 1.403 . S
C1484 C1485 1.404 . S
C1484 C1487 1.539 . S
C1485 C1481 1.408 . S
C1485 C1484 1.404 . S
C1485 H1497 0.930 . S
C1486 C1482 1.524 . S
C1486 H1498 0.956 . S
C1486 H1499 0.961 . S
C1486 H1500 0.961 . S
C1487 C1484 1.539 . S
C1487 H1501 0.958 . S
C1487 H1502 0.961 . S
C1487 H1503 0.960 . S
H1488 C1472 0.931 . S
H1489 C1477 0.929 . S
H1490 C1478 0.960 . S
H1491 C1478 0.962 . S
H1492 C1478 0.960 . S
H1493 C1479 0.961 . S
H1494 C1479 0.961 . S
H1495 C1479 0.961 . S
H1496 C1480 0.931 . S
H1497 C1485 0.930 . S
H1498 C1486 0.956 . S
H1499 C1486 0.961 . S
H1500 C1486 0.961 . S
H1501 C1487 0.958 . S
H1502 C1487 0.961 . S
H1503 C1487 0.960 . S
C1504 C1505 1.391 . S
C1504 C1506 1.394 . S
C1504 H1520 0.931 . S
C1505 C1504 1.391 . S
C1505 C1509 1.376 . S
C1506 C1504 1.394 . S
C1506 C1507 1.369 . S
C1506 C1510 1.531 . S
C1507 C1506 1.369 . S
C1507 C1508 1.410 . S
C1507 C1515 1.503 . S
C1508 C1507 1.410 . S
C1508 C1509 1.392 . S
C1508 C1511 1.511 . S
C1509 C1505 1.376 . S
C1509 C1508 1.392 . S
C1509 H1521 0.929 . S
C1510 C1506 1.531 . S
C1510 H1522 0.960 . S
C1510 H1523 0.962 . S
C1510 H1524 0.960 . S
C1511 C1508 1.511 . S
C1511 H1525 0.961 . S
C1511 H1526 0.961 . S
C1511 H1527 0.961 . S
C1512 C1513 1.370 . S
C1512 C1514 1.363 . S
C1512 H1528 0.931 . S
C1513 C1512 1.370 . S
C1513 C1517 1.408 . S
C1514 C1512 1.363 . S
C1514 C1515 1.370 . S
C1514 C1518 1.524 . S
C1515 C1507 1.503 . S
C1515 C1514 1.370 . S
C1515 C1516 1.403 . S
C1516 C1515 1.403 . S
C1516 C1517 1.404 . S
C1516 C1519 1.539 . S
C1517 C1513 1.408 . S
C1517 C1516 1.404 . S
C1517 H1529 0.930 . S
C1518 C1514 1.524 . S
C1518 H1530 0.956 . S
C1518 H1531 0.961 . S
C1518 H1532 0.961 . S
C1519 C1516 1.539 . S
C1519 H1533 0.958 . S
C1519 H1534 0.961 . S
C1519 H1535 0.960 . S
H1520 C1504 0.931 . S
H1521 C1509 0.929 . S
H1522 C1510 0.960 . S
H1523 C1510 0.962 . S
H1524 C1510 0.960 . S
H1525 C1511 0.961 . S
H1526 C1511 0.961 . S
H1527 C1511 0.961 . S
H1528 C1512 0.931 . S
H1529 C1517 0.930 . S
H1530 C1518 0.956 . S
H1531 C1518 0.961 . S
H1532 C1518 0.961 . S
H1533 C1519 0.958 . S
H1534 C1519 0.961 . S
H1535 C1519 0.960 . S
C1536 C1537 1.391 . S
C1536 C1538 1.394 . S
C1536 H1552 0.931 . S
C1537 C1536 1.391 . S
C1537 C1541 1.376 . S
C1538 C1536 1.394 . S
C1538 C1539 1.369 . S
C1538 C1542 1.531 . S
C1539 C1538 1.369 . S
C1539 C1540 1.410 . S
C1539 C1547 1.503 1_655 S
C1540 C1539 1.410 . S
C1540 C1541 1.392 . S
C1540 C1543 1.511 . S
C1541 C1537 1.376 . S
C1541 C1540 1.392 . S
C1541 H1553 0.929 . S
C1542 C1538 1.531 . S
C1542 H1554 0.960 . S
C1542 H1555 0.962 . S
C1542 H1556 0.960 . S
C1543 C1540 1.511 . S
C1543 H1557 0.961 . S
C1543 H1558 0.961 . S
C1543 H1559 0.961 . S
C1544 C1545 1.370 . S
C1544 C1546 1.363 . S
C1544 H1560 0.931 . S
C1545 C1544 1.370 . S
C1545 C1549 1.408 . S
C1546 C1544 1.363 . S
C1546 C1547 1.370 . S
C1546 C1550 1.525 1_455 S
C1547 C1539 1.503 1_455 S
C1547 C1546 1.370 . S
C1547 C1548 1.403 . S
C1548 C1547 1.403 . S
C1548 C1549 1.404 . S
C1548 C1551 1.539 . S
C1549 C1545 1.408 . S
C1549 C1548 1.404 . S
C1549 H1561 0.930 . S
C1550 C1546 1.525 1_655 S
C1550 H1562 0.956 . S
C1550 H1563 0.960 . S
C1550 H1564 0.961 1_655 S
C1551 C1548 1.539 . S
C1551 H1565 0.958 . S
C1551 H1566 0.961 . S
C1551 H1567 0.960 1_455 S
H1552 C1536 0.931 . S
H1553 C1541 0.929 . S
H1554 C1542 0.960 . S
H1555 C1542 0.962 . S
H1556 C1542 0.960 . S
H1557 C1543 0.961 . S
H1558 C1543 0.961 . S
H1559 C1543 0.961 . S
H1560 C1544 0.931 . S
H1561 C1549 0.930 . S
H1562 C1550 0.956 . S
H1563 C1550 0.960 . S
H1564 C1550 0.961 1_455 S
H1565 C1551 0.958 . S
H1566 C1551 0.961 . S
H1567 C1551 0.960 1_655 S
C1568 C1569 1.391 . S
C1568 C1570 1.394 . S
C1568 H1584 0.931 . S
C1569 C1568 1.391 . S
C1569 C1573 1.376 . S
C1570 C1568 1.394 . S
C1570 C1571 1.369 . S
C1570 C1574 1.531 . S
C1571 C1570 1.369 . S
C1571 C1572 1.410 . S
C1571 C1579 1.503 . S
C1572 C1571 1.410 . S
C1572 C1573 1.392 . S
C1572 C1575 1.511 . S
C1573 C1569 1.376 . S
C1573 C1572 1.392 . S
C1573 H1585 0.929 . S
C1574 C1570 1.531 . S
C1574 H1586 0.960 . S
C1574 H1587 0.962 . S
C1574 H1588 0.960 . S
C1575 C1572 1.511 . S
C1575 H1589 0.961 . S
C1575 H1590 0.961 . S
C1575 H1591 0.961 . S
C1576 C1577 1.370 . S
C1576 C1578 1.363 . S
C1576 H1592 0.931 . S
C1577 C1576 1.370 . S
C1577 C1581 1.408 . S
C1578 C1576 1.363 . S
C1578 C1579 1.370 . S
C1578 C1582 1.524 . S
C1579 C1571 1.503 . S
C1579 C1578 1.370 . S
C1579 C1580 1.403 . S
C1580 C1579 1.403 . S
C1580 C1581 1.404 . S
C1580 C1583 1.539 . S
C1581 C1577 1.408 . S
C1581 C1580 1.404 . S
C1581 H1593 0.930 . S
C1582 C1578 1.524 . S
C1582 H1594 0.956 . S
C1582 H1595 0.961 . S
C1582 H1596 0.961 . S
C1583 C1580 1.539 . S
C1583 H1597 0.958 . S
C1583 H1598 0.961 . S
C1583 H1599 0.960 . S
H1584 C1568 0.931 . S
H1585 C1573 0.929 . S
H1586 C1574 0.960 . S
H1587 C1574 0.962 . S
H1588 C1574 0.960 . S
H1589 C1575 0.961 . S
H1590 C1575 0.961 . S
H1591 C1575 0.961 . S
H1592 C1576 0.931 . S
H1593 C1581 0.930 . S
H1594 C1582 0.956 . S
H1595 C1582 0.961 . S
H1596 C1582 0.961 . S
H1597 C1583 0.958 . S
H1598 C1583 0.961 . S
H1599 C1583 0.960 . S
C1600 C1601 1.391 . S
C1600 C1602 1.394 . S
C1600 H1616 0.931 . S
C1601 C1600 1.391 . S
C1601 C1605 1.376 . S
C1602 C1600 1.394 . S
C1602 C1603 1.369 . S
C1602 C1606 1.531 . S
C1603 C1602 1.369 . S
C1603 C1604 1.410 . S
C1603 C1611 1.503 1_455 S
C1604 C1603 1.410 . S
C1604 C1605 1.392 . S
C1604 C1607 1.511 . S
C1605 C1601 1.376 . S
C1605 C1604 1.392 . S
C1605 H1617 0.929 . S
C1606 C1602 1.531 . S
C1606 H1618 0.960 1_455 S
C1606 H1619 0.962 1_455 S
C1606 H1620 0.960 . S
C1607 C1604 1.511 . S
C1607 H1621 0.961 . S
C1607 H1622 0.961 1_455 S
C1607 H1623 0.961 . S
C1608 C1609 1.370 . S
C1608 C1610 1.363 . S
C1608 H1624 0.931 . S
C1609 C1608 1.370 . S
C1609 C1613 1.408 . S
C1610 C1608 1.363 . S
C1610 C1611 1.370 . S
C1610 C1614 1.524 . S
C1611 C1603 1.503 1_655 S
C1611 C1610 1.370 . S
C1611 C1612 1.403 . S
C1612 C1611 1.403 . S
C1612 C1613 1.404 . S
C1612 C1615 1.539 . S
C1613 C1609 1.408 . S
C1613 C1612 1.404 . S
C1613 H1625 0.930 . S
C1614 C1610 1.524 . S
C1614 H1626 0.956 . S
C1614 H1627 0.961 . S
C1614 H1628 0.961 . S
C1615 C1612 1.539 . S
C1615 H1629 0.958 . S
C1615 H1630 0.961 . S
C1615 H1631 0.960 . S
H1616 C1600 0.931 . S
H1617 C1605 0.929 . S
H1618 C1606 0.960 1_655 S
H1619 C1606 0.962 1_655 S
H1620 C1606 0.960 . S
H1621 C1607 0.961 . S
H1622 C1607 0.961 1_655 S
H1623 C1607 0.961 . S
H1624 C1608 0.931 . S
H1625 C1613 0.930 . S
H1626 C1614 0.956 . S
H1627 C1614 0.961 . S
H1628 C1614 0.961 . S
H1629 C1615 0.958 . S
H1630 C1615 0.961 . S
H1631 C1615 0.960 . S
C1632 C1633 1.391 . S
C1632 C1634 1.394 . S
C1632 H1648 0.931 . S
C1633 C1632 1.391 . S
C1633 C1637 1.376 . S
C1634 C1632 1.394 . S
C1634 C1635 1.369 . S
C1634 C1638 1.531 . S
C1635 C1634 1.369 . S
C1635 C1636 1.410 . S
C1635 C1643 1.503 . S
C1636 C1635 1.410 . S
C1636 C1637 1.392 . S
C1636 C1639 1.511 . S
C1637 C1633 1.376 . S
C1637 C1636 1.392 . S
C1637 H1649 0.929 . S
C1638 C1634 1.531 . S
C1638 H1650 0.960 . S
C1638 H1651 0.962 . S
C1638 H1652 0.960 . S
C1639 C1636 1.511 . S
C1639 H1653 0.961 . S
C1639 H1654 0.961 . S
C1639 H1655 0.961 . S
C1640 C1641 1.370 . S
C1640 C1642 1.363 . S
C1640 H1656 0.931 . S
C1641 C1640 1.370 . S
C1641 C1645 1.408 . S
C1642 C1640 1.363 . S
C1642 C1643 1.370 . S
C1642 C1646 1.524 . S
C1643 C1635 1.503 . S
C1643 C1642 1.370 . S
C1643 C1644 1.403 . S
C1644 C1643 1.403 . S
C1644 C1645 1.404 . S
C1644 C1647 1.539 . S
C1645 C1641 1.408 . S
C1645 C1644 1.404 . S
C1645 H1657 0.930 . S
C1646 C1642 1.524 . S
C1646 H1658 0.956 . S
C1646 H1659 0.961 . S
C1646 H1660 0.961 . S
C1647 C1644 1.539 . S
C1647 H1661 0.958 . S
C1647 H1662 0.961 . S
C1647 H1663 0.960 . S
H1648 C1632 0.931 . S
H1649 C1637 0.929 . S
H1650 C1638 0.960 . S
H1651 C1638 0.962 . S
H1652 C1638 0.960 . S
H1653 C1639 0.961 . S
H1654 C1639 0.961 . S
H1655 C1639 0.961 . S
H1656 C1640 0.931 . S
H1657 C1645 0.930 . S
H1658 C1646 0.956 . S
H1659 C1646 0.961 . S
H1660 C1646 0.961 . S
H1661 C1647 0.958 . S
H1662 C1647 0.961 . S
H1663 C1647 0.960 . S
C1664 C1665 1.391 . S
C1664 C1666 1.394 . S
C1664 H1680 0.931 . S
C1665 C1664 1.391 . S
C1665 C1669 1.376 . S
C1666 C1664 1.394 . S
C1666 C1667 1.369 . S
C1666 C1670 1.531 . S
C1667 C1666 1.369 . S
C1667 C1668 1.410 . S
C1667 C1675 1.503 . S
C1668 C1667 1.410 . S
C1668 C1669 1.392 . S
C1668 C1671 1.511 . S
C1669 C1665 1.376 . S
C1669 C1668 1.392 . S
C1669 H1681 0.929 . S
C1670 C1666 1.531 . S
C1670 H1682 0.960 . S
C1670 H1683 0.962 . S
C1670 H1684 0.960 . S
C1671 C1668 1.511 . S
C1671 H1685 0.961 . S
C1671 H1686 0.961 . S
C1671 H1687 0.961 . S
C1672 C1673 1.370 . S
C1672 C1674 1.363 . S
C1672 H1688 0.931 . S
C1673 C1672 1.370 . S
C1673 C1677 1.408 . S
C1674 C1672 1.363 . S
C1674 C1675 1.370 . S
C1674 C1678 1.524 . S
C1675 C1667 1.503 . S
C1675 C1674 1.370 . S
C1675 C1676 1.403 . S
C1676 C1675 1.403 . S
C1676 C1677 1.404 . S
C1676 C1679 1.539 . S
C1677 C1673 1.408 . S
C1677 C1676 1.404 . S
C1677 H1689 0.930 . S
C1678 C1674 1.524 . S
C1678 H1690 0.956 . S
C1678 H1691 0.961 . S
C1678 H1692 0.961 . S
C1679 C1676 1.539 . S
C1679 H1693 0.958 . S
C1679 H1694 0.961 . S
C1679 H1695 0.960 . S
H1680 C1664 0.931 . S
H1681 C1669 0.929 . S
H1682 C1670 0.960 . S
H1683 C1670 0.962 . S
H1684 C1670 0.960 . S
H1685 C1671 0.961 . S
H1686 C1671 0.961 . S
H1687 C1671 0.961 . S
H1688 C1672 0.931 . S
H1689 C1677 0.930 . S
H1690 C1678 0.956 . S
H1691 C1678 0.961 . S
H1692 C1678 0.961 . S
H1693 C1679 0.958 . S
H1694 C1679 0.961 . S
H1695 C1679 0.960 . S
C1696 C1697 1.391 . S
C1696 C1698 1.394 . S
C1696 H1712 0.931 . S
C1697 C1696 1.391 . S
C1697 C1701 1.376 . S
C1698 C1696 1.394 . S
C1698 C1699 1.369 . S
C1698 C1702 1.531 . S
C1699 C1698 1.369 . S
C1699 C1700 1.410 . S
C1699 C1707 1.503 . S
C1700 C1699 1.410 . S
C1700 C1701 1.392 . S
C1700 C1703 1.511 . S
C1701 C1697 1.376 . S
C1701 C1700 1.392 . S
C1701 H1713 0.929 . S
C1702 C1698 1.531 . S
C1702 H1714 0.960 . S
C1702 H1715 0.962 . S
C1702 H1716 0.960 . S
C1703 C1700 1.511 . S
C1703 H1717 0.961 . S
C1703 H1718 0.961 . S
C1703 H1719 0.961 . S
C1704 C1705 1.370 . S
C1704 C1706 1.363 . S
C1704 H1720 0.931 . S
C1705 C1704 1.370 . S
C1705 C1709 1.408 . S
C1706 C1704 1.363 . S
C1706 C1707 1.370 . S
C1706 C1710 1.524 . S
C1707 C1699 1.503 . S
C1707 C1706 1.370 . S
C1707 C1708 1.403 . S
C1708 C1707 1.403 . S
C1708 C1709 1.404 . S
C1708 C1711 1.539 . S
C1709 C1705 1.408 . S
C1709 C1708 1.404 . S
C1709 H1721 0.930 . S
C1710 C1706 1.524 . S
C1710 H1722 0.956 . S
C1710 H1723 0.961 . S
C1710 H1724 0.961 . S
C1711 C1708 1.539 . S
C1711 H1725 0.958 . S
C1711 H1726 0.961 . S
C1711 H1727 0.960 . S
H1712 C1696 0.931 . S
H1713 C1701 0.929 . S
H1714 C1702 0.960 . S
H1715 C1702 0.962 . S
H1716 C1702 0.960 . S
H1717 C1703 0.961 . S
H1718 C1703 0.961 . S
H1719 C1703 0.961 . S
H1720 C1704 0.931 . S
H1721 C1709 0.930 . S
H1722 C1710 0.956 . S
H1723 C1710 0.961 . S
H1724 C1710 0.961 . S
H1725 C1711 0.958 . S
H1726 C1711 0.961 . S
H1727 C1711 0.960 . S
C1728 C1729 1.391 . S
C1728 C1730 1.394 . S
C1728 H1744 0.931 . S
C1729 C1728 1.391 . S
C1729 C1733 1.376 . S
C1730 C1728 1.394 . S
C1730 C1731 1.369 . S
C1730 C1734 1.531 . S
C1731 C1730 1.369 . S
C1731 C1732 1.410 . S
C1731 C1739 1.503 . S
C1732 C1731 1.410 . S
C1732 C1733 1.392 . S
C1732 C1735 1.511 . S
C1733 C1729 1.376 . S
C1733 C1732 1.392 . S
C1733 H1745 0.929 . S
C1734 C1730 1.531 . S
C1734 H1746 0.960 . S
C1734 H1747 0.962 . S
C1734 H1748 0.960 . S
C1735 C1732 1.511 . S
C1735 H1749 0.961 . S
C1735 H1750 0.961 . S
C1735 H1751 0.961 . S
C1736 C1737 1.370 . S
C1736 C1738 1.363 . S
C1736 H1752 0.931 . S
C1737 C1736 1.370 . S
C1737 C1741 1.408 . S
C1738 C1736 1.363 . S
C1738 C1739 1.370 . S
C1738 C1742 1.524 . S
C1739 C1731 1.503 . S
C1739 C1738 1.370 . S
C1739 C1740 1.403 . S
C1740 C1739 1.403 . S
C1740 C1741 1.404 . S
C1740 C1743 1.539 . S
C1741 C1737 1.408 . S
C1741 C1740 1.404 . S
C1741 H1753 0.930 . S
C1742 C1738 1.524 . S
C1742 H1754 0.956 . S
C1742 H1755 0.961 . S
C1742 H1756 0.961 . S
C1743 C1740 1.539 . S
C1743 H1757 0.958 . S
C1743 H1758 0.961 . S
C1743 H1759 0.960 . S
H1744 C1728 0.931 . S
H1745 C1733 0.929 . S
H1746 C1734 0.960 . S
H1747 C1734 0.962 . S
H1748 C1734 0.960 . S
H1749 C1735 0.961 . S
H1750 C1735 0.961 . S
H1751 C1735 0.961 . S
H1752 C1736 0.931 . S
H1753 C1741 0.930 . S
H1754 C1742 0.956 . S
H1755 C1742 0.961 . S
H1756 C1742 0.961 . S
H1757 C1743 0.958 . S
H1758 C1743 0.961 . S
H1759 C1743 0.960 . S
C1760 C1761 1.391 . S
C1760 C1762 1.394 . S
C1760 H1776 0.931 . S
C1761 C1760 1.391 . S
C1761 C1765 1.376 . S
C1762 C1760 1.394 . S
C1762 C1763 1.369 . S
C1762 C1766 1.531 . S
C1763 C1762 1.369 . S
C1763 C1764 1.410 . S
C1763 C1771 1.503 . S
C1764 C1763 1.410 . S
C1764 C1765 1.392 . S
C1764 C1767 1.511 . S
C1765 C1761 1.376 . S
C1765 C1764 1.392 . S
C1765 H1777 0.929 . S
C1766 C1762 1.531 . S
C1766 H1778 0.960 . S
C1766 H1779 0.962 . S
C1766 H1780 0.960 . S
C1767 C1764 1.511 . S
C1767 H1781 0.961 . S
C1767 H1782 0.961 . S
C1767 H1783 0.961 . S
C1768 C1769 1.370 . S
C1768 C1770 1.363 . S
C1768 H1784 0.931 . S
C1769 C1768 1.370 . S
C1769 C1773 1.408 . S
C1770 C1768 1.363 . S
C1770 C1771 1.370 . S
C1770 C1774 1.524 . S
C1771 C1763 1.503 . S
C1771 C1770 1.370 . S
C1771 C1772 1.403 . S
C1772 C1771 1.403 . S
C1772 C1773 1.404 . S
C1772 C1775 1.539 . S
C1773 C1769 1.408 . S
C1773 C1772 1.404 . S
C1773 H1785 0.930 . S
C1774 C1770 1.524 . S
C1774 H1786 0.956 . S
C1774 H1787 0.961 . S
C1774 H1788 0.961 . S
C1775 C1772 1.539 . S
C1775 H1789 0.958 . S
C1775 H1790 0.961 . S
C1775 H1791 0.960 . S
H1776 C1760 0.931 . S
H1777 C1765 0.929 . S
H1778 C1766 0.960 . S
H1779 C1766 0.962 . S
H1780 C1766 0.960 . S
H1781 C1767 0.961 . S
H1782 C1767 0.961 . S
H1783 C1767 0.961 . S
H1784 C1768 0.931 . S
H1785 C1773 0.930 . S
H1786 C1774 0.956 . S
H1787 C1774 0.961 . S
H1788 C1774 0.961 . S
H1789 C1775 0.958 . S
H1790 C1775 0.961 . S
H1791 C1775 0.960 . S
C1792 C1793 1.391 . S
C1792 C1794 1.394 . S
C1792 H1808 0.931 . S
C1793 C1792 1.391 . S
C1793 C1797 1.376 . S
C1794 C1792 1.394 . S
C1794 C1795 1.369 . S
C1794 C1798 1.531 . S
C1795 C1794 1.369 . S
C1795 C1796 1.410 . S
C1795 C1803 1.503 1_455 S
C1796 C1795 1.410 . S
C1796 C1797 1.392 . S
C1796 C1799 1.511 . S
C1797 C1793 1.376 . S
C1797 C1796 1.392 . S
C1797 H1809 0.929 . S
C1798 C1794 1.531 . S
C1798 H1810 0.960 . S
C1798 H1811 0.962 . S
C1798 H1812 0.960 . S
C1799 C1796 1.511 . S
C1799 H1813 0.961 . S
C1799 H1814 0.961 . S
C1799 H1815 0.961 . S
C1800 C1801 1.370 . S
C1800 C1802 1.363 . S
C1800 H1816 0.931 . S
C1801 C1800 1.370 . S
C1801 C1805 1.408 . S
C1802 C1800 1.363 . S
C1802 C1803 1.370 . S
C1802 C1806 1.506 1_655 S
C1803 C1795 1.503 1_655 S
C1803 C1802 1.370 . S
C1803 C1804 1.403 . S
C1804 C1803 1.403 . S
C1804 C1805 1.404 . S
C1804 C1807 1.539 . S
C1805 C1801 1.408 . S
C1805 C1804 1.404 . S
C1805 H1817 0.930 . S
C1806 C1802 1.506 1_455 S
C1806 H1818 0.976 . S
C1806 H1819 0.980 . S
C1806 H1820 0.941 1_455 S
C1807 C1804 1.539 . S
C1807 H1821 0.958 . S
C1807 H1822 0.961 . S
C1807 H1823 0.960 1_655 S
H1808 C1792 0.931 . S
H1809 C1797 0.929 . S
H1810 C1798 0.960 . S
H1811 C1798 0.962 . S
H1812 C1798 0.960 . S
H1813 C1799 0.961 . S
H1814 C1799 0.961 . S
H1815 C1799 0.961 . S
H1816 C1800 0.931 . S
H1817 C1805 0.930 . S
H1818 C1806 0.976 . S
H1819 C1806 0.980 . S
H1820 C1806 0.941 1_655 S
H1821 C1807 0.958 . S
H1822 C1807 0.961 . S
H1823 C1807 0.960 1_455 S
C1824 C1825 1.391 . S
C1824 C1826 1.394 . S
C1824 H1840 0.931 . S
C1825 C1824 1.391 . S
C1825 C1829 1.376 . S
C1826 C1824 1.394 . S
C1826 C1827 1.369 . S
C1826 C1830 1.531 . S
C1827 C1826 1.369 . S
C1827 C1828 1.410 . S
C1827 C1835 1.503 . S
C1828 C1827 1.410 . S
C1828 C1829 1.392 . S
C1828 C1831 1.511 . S
C1829 C1825 1.376 . S
C1829 C1828 1.392 . S
C1829 H1841 0.929 . S
C1830 C1826 1.531 . S
C1830 H1842 0.960 . S
C1830 H1843 0.962 . S
C1830 H1844 0.960 . S
C1831 C1828 1.511 . S
C1831 H1845 0.961 . S
C1831 H1846 0.961 . S
C1831 H1847 0.961 . S
C1832 C1833 1.370 . S
C1832 C1834 1.363 . S
C1832 H1848 0.931 . S
C1833 C1832 1.370 . S
C1833 C1837 1.408 . S
C1834 C1832 1.363 . S
C1834 C1835 1.370 . S
C1834 C1838 1.524 . S
C1835 C1827 1.503 . S
C1835 C1834 1.370 . S
C1835 C1836 1.403 . S
C1836 C1835 1.403 . S
C1836 C1837 1.404 . S
C1836 C1839 1.539 . S
C1837 C1833 1.408 . S
C1837 C1836 1.404 . S
C1837 H1849 0.930 . S
C1838 C1834 1.524 . S
C1838 H1850 0.956 . S
C1838 H1851 0.961 . S
C1838 H1852 0.961 . S
C1839 C1836 1.539 . S
C1839 H1853 0.958 . S
C1839 H1854 0.961 . S
C1839 H1855 0.960 . S
H1840 C1824 0.931 . S
H1841 C1829 0.929 . S
H1842 C1830 0.960 . S
H1843 C1830 0.962 . S
H1844 C1830 0.960 . S
H1845 C1831 0.961 . S
H1846 C1831 0.961 . S
H1847 C1831 0.961 . S
H1848 C1832 0.931 . S
H1849 C1837 0.930 . S
H1850 C1838 0.956 . S
H1851 C1838 0.961 . S
H1852 C1838 0.961 . S
H1853 C1839 0.958 . S
H1854 C1839 0.961 . S
H1855 C1839 0.960 . S
C1856 C1857 1.391 . S
C1856 C1858 1.394 . S
C1856 H1872 0.931 . S
C1857 C1856 1.391 . S
C1857 C1861 1.376 . S
C1858 C1856 1.394 . S
C1858 C1859 1.369 . S
C1858 C1862 1.545 . S
C1859 C1858 1.369 . S
C1859 C1860 1.410 . S
C1859 C1867 1.503 1_655 S
C1860 C1859 1.410 . S
C1860 C1861 1.392 . S
C1860 C1863 1.511 . S
C1861 C1857 1.376 . S
C1861 C1860 1.392 . S
C1861 H1873 0.929 . S
C1862 C1858 1.545 . S
C1862 H1874 0.940 1_655 S
C1862 H1875 0.955 1_655 S
C1862 H1876 0.975 . S
C1863 C1860 1.511 . S
C1863 H1877 0.961 . S
C1863 H1878 0.961 1_655 S
C1863 H1879 0.961 . S
C1864 C1865 1.370 . S
C1864 C1866 1.363 . S
C1864 H1880 0.931 . S
C1865 C1864 1.370 . S
C1865 C1869 1.408 . S
C1866 C1864 1.363 . S
C1866 C1867 1.370 . S
C1866 C1870 1.524 . S
C1867 C1859 1.503 1_455 S
C1867 C1866 1.370 . S
C1867 C1868 1.403 . S
C1868 C1867 1.403 . S
C1868 C1869 1.404 . S
C1868 C1871 1.539 . S
C1869 C1865 1.408 . S
C1869 C1868 1.404 . S
C1869 H1881 0.930 . S
C1870 C1866 1.524 . S
C1870 H1882 0.956 . S
C1870 H1883 0.961 . S
C1870 H1884 0.961 . S
C1871 C1868 1.539 . S
C1871 H1885 0.958 . S
C1871 H1886 0.961 . S
C1871 H1887 0.960 . S
H1872 C1856 0.931 . S
H1873 C1861 0.929 . S
H1874 C1862 0.940 1_455 S
H1875 C1862 0.955 1_455 S
H1876 C1862 0.975 . S
H1877 C1863 0.961 . S
H1878 C1863 0.961 1_455 S
H1879 C1863 0.961 . S
H1880 C1864 0.931 . S
H1881 C1869 0.930 . S
H1882 C1870 0.956 . S
H1883 C1870 0.961 . S
H1884 C1870 0.961 . S
H1885 C1871 0.958 . S
H1886 C1871 0.961 . S
H1887 C1871 0.960 . S
C1888 C1889 1.391 . S
C1888 C1890 1.394 . S
C1888 H1904 0.931 . S
C1889 C1888 1.391 . S
C1889 C1893 1.376 . S
C1890 C1888 1.394 . S
C1890 C1891 1.369 . S
C1890 C1894 1.531 . S
C1891 C1890 1.369 . S
C1891 C1892 1.410 . S
C1891 C1899 1.503 . S
C1892 C1891 1.410 . S
C1892 C1893 1.392 . S
C1892 C1895 1.511 . S
C1893 C1889 1.376 . S
C1893 C1892 1.392 . S
C1893 H1905 0.929 . S
C1894 C1890 1.531 . S
C1894 H1906 0.960 . S
C1894 H1907 0.962 . S
C1894 H1908 0.960 . S
C1895 C1892 1.511 . S
C1895 H1909 0.961 . S
C1895 H1910 0.961 . S
C1895 H1911 0.961 . S
C1896 C1897 1.370 . S
C1896 C1898 1.363 . S
C1896 H1912 0.931 . S
C1897 C1896 1.370 . S
C1897 C1901 1.408 . S
C1898 C1896 1.363 . S
C1898 C1899 1.370 . S
C1898 C1902 1.524 . S
C1899 C1891 1.503 . S
C1899 C1898 1.370 . S
C1899 C1900 1.403 . S
C1900 C1899 1.403 . S
C1900 C1901 1.404 . S
C1900 C1903 1.539 . S
C1901 C1897 1.408 . S
C1901 C1900 1.404 . S
C1901 H1913 0.930 . S
C1902 C1898 1.524 . S
C1902 H1914 0.956 . S
C1902 H1915 0.961 . S
C1902 H1916 0.961 . S
C1903 C1900 1.539 . S
C1903 H1917 0.958 . S
C1903 H1918 0.961 . S
C1903 H1919 0.960 . S
H1904 C1888 0.931 . S
H1905 C1893 0.929 . S
H1906 C1894 0.960 . S
H1907 C1894 0.962 . S
H1908 C1894 0.960 . S
H1909 C1895 0.961 . S
H1910 C1895 0.961 . S
H1911 C1895 0.961 . S
H1912 C1896 0.931 . S
H1913 C1901 0.930 . S
H1914 C1902 0.956 . S
H1915 C1902 0.961 . S
H1916 C1902 0.961 . S
H1917 C1903 0.958 . S
H1918 C1903 0.961 . S
H1919 C1903 0.960 . S
C1920 C1921 1.391 . S
C1920 C1922 1.394 . S
C1920 H1936 0.931 . S
C1921 C1920 1.391 . S
C1921 C1925 1.376 . S
C1922 C1920 1.394 . S
C1922 C1923 1.369 . S
C1922 C1926 1.531 . S
C1923 C1922 1.369 . S
C1923 C1924 1.410 . S
C1923 C1931 1.503 . S
C1924 C1923 1.410 . S
C1924 C1925 1.392 . S
C1924 C1927 1.511 . S
C1925 C1921 1.376 . S
C1925 C1924 1.392 . S
C1925 H1937 0.929 . S
C1926 C1922 1.531 . S
C1926 H1938 0.960 . S
C1926 H1939 0.962 . S
C1926 H1940 0.960 . S
C1927 C1924 1.511 . S
C1927 H1941 0.961 . S
C1927 H1942 0.961 . S
C1927 H1943 0.961 . S
C1928 C1929 1.370 . S
C1928 C1930 1.363 . S
C1928 H1944 0.931 . S
C1929 C1928 1.370 . S
C1929 C1933 1.408 . S
C1930 C1928 1.363 . S
C1930 C1931 1.370 . S
C1930 C1934 1.524 . S
C1931 C1923 1.503 . S
C1931 C1930 1.370 . S
C1931 C1932 1.403 . S
C1932 C1931 1.403 . S
C1932 C1933 1.404 . S
C1932 C1935 1.539 . S
C1933 C1929 1.408 . S
C1933 C1932 1.404 . S
C1933 H1945 0.930 . S
C1934 C1930 1.524 . S
C1934 H1946 0.956 . S
C1934 H1947 0.961 . S
C1934 H1948 0.961 . S
C1935 C1932 1.539 . S
C1935 H1949 0.958 . S
C1935 H1950 0.961 . S
C1935 H1951 0.960 . S
H1936 C1920 0.931 . S
H1937 C1925 0.929 . S
H1938 C1926 0.960 . S
H1939 C1926 0.962 . S
H1940 C1926 0.960 . S
H1941 C1927 0.961 . S
H1942 C1927 0.961 . S
H1943 C1927 0.961 . S
H1944 C1928 0.931 . S
H1945 C1933 0.930 . S
H1946 C1934 0.956 . S
H1947 C1934 0.961 . S
H1948 C1934 0.961 . S
H1949 C1935 0.958 . S
H1950 C1935 0.961 . S
H1951 C1935 0.960 . S
C1952 C1953 1.391 . S
C1952 C1954 1.394 . S
C1952 H1968 0.931 . S
C1953 C1952 1.391 . S
C1953 C1957 1.376 . S
C1954 C1952 1.394 . S
C1954 C1955 1.369 . S
C1954 C1958 1.531 . S
C1955 C1954 1.369 . S
C1955 C1956 1.410 . S
C1955 C1963 1.503 . S
C1956 C1955 1.410 . S
C1956 C1957 1.392 . S
C1956 C1959 1.511 . S
C1957 C1953 1.376 . S
C1957 C1956 1.392 . S
C1957 H1969 0.929 . S
C1958 C1954 1.531 . S
C1958 H1970 0.960 . S
C1958 H1971 0.962 . S
C1958 H1972 0.960 . S
C1959 C1956 1.511 . S
C1959 H1973 0.961 . S
C1959 H1974 0.961 . S
C1959 H1975 0.961 . S
C1960 C1961 1.370 . S
C1960 C1962 1.363 . S
C1960 H1976 0.931 . S
C1961 C1960 1.370 . S
C1961 C1965 1.408 . S
C1962 C1960 1.363 . S
C1962 C1963 1.370 . S
C1962 C1966 1.524 . S
C1963 C1955 1.503 . S
C1963 C1962 1.370 . S
C1963 C1964 1.403 . S
C1964 C1963 1.403 . S
C1964 C1965 1.404 . S
C1964 C1967 1.539 . S
C1965 C1961 1.408 . S
C1965 C1964 1.404 . S
C1965 H1977 0.930 . S
C1966 C1962 1.524 . S
C1966 H1978 0.956 . S
C1966 H1979 0.961 . S
C1966 H1980 0.961 . S
C1967 C1964 1.539 . S
C1967 H1981 0.958 . S
C1967 H1982 0.961 . S
C1967 H1983 0.960 . S
H1968 C1952 0.931 . S
H1969 C1957 0.929 . S
H1970 C1958 0.960 . S
H1971 C1958 0.962 . S
H1972 C1958 0.960 . S
H1973 C1959 0.961 . S
H1974 C1959 0.961 . S
H1975 C1959 0.961 . S
H1976 C1960 0.931 . S
H1977 C1965 0.930 . S
H1978 C1966 0.956 . S
H1979 C1966 0.961 . S
H1980 C1966 0.961 . S
H1981 C1967 0.958 . S
H1982 C1967 0.961 . S
H1983 C1967 0.960 . S
C1984 C1985 1.391 . S
C1984 C1986 1.394 . S
C1984 H2000 0.931 . S
C1985 C1984 1.391 . S
C1985 C1989 1.376 . S
C1986 C1984 1.394 . S
C1986 C1987 1.369 . S
C1986 C1990 1.531 . S
C1987 C1986 1.369 . S
C1987 C1988 1.410 . S
C1987 C1995 1.503 . S
C1988 C1987 1.410 . S
C1988 C1989 1.392 . S
C1988 C1991 1.511 . S
C1989 C1985 1.376 . S
C1989 C1988 1.392 . S
C1989 H2001 0.929 . S
C1990 C1986 1.531 . S
C1990 H2002 0.960 . S
C1990 H2003 0.962 . S
C1990 H2004 0.960 . S
C1991 C1988 1.511 . S
C1991 H2005 0.961 . S
C1991 H2006 0.961 . S
C1991 H2007 0.961 . S
C1992 C1993 1.370 . S
C1992 C1994 1.363 . S
C1992 H2008 0.931 . S
C1993 C1992 1.370 . S
C1993 C1997 1.408 . S
C1994 C1992 1.363 . S
C1994 C1995 1.370 . S
C1994 C1998 1.524 . S
C1995 C1987 1.503 . S
C1995 C1994 1.370 . S
C1995 C1996 1.403 . S
C1996 C1995 1.403 . S
C1996 C1997 1.404 . S
C1996 C1999 1.539 . S
C1997 C1993 1.408 . S
C1997 C1996 1.404 . S
C1997 H2009 0.930 . S
C1998 C1994 1.524 . S
C1998 H2010 0.956 . S
C1998 H2011 0.961 . S
C1998 H2012 0.961 . S
C1999 C1996 1.539 . S
C1999 H2013 0.958 . S
C1999 H2014 0.961 . S
C1999 H2015 0.960 . S
H2000 C1984 0.931 . S
H2001 C1989 0.929 . S
H2002 C1990 0.960 . S
H2003 C1990 0.962 . S
H2004 C1990 0.960 . S
H2005 C1991 0.961 . S
H2006 C1991 0.961 . S
H2007 C1991 0.961 . S
H2008 C1992 0.931 . S
H2009 C1997 0.930 . S
H2010 C1998 0.956 . S
H2011 C1998 0.961 . S
H2012 C1998 0.961 . S
H2013 C1999 0.958 . S
H2014 C1999 0.961 . S
H2015 C1999 0.960 . S
C2016 C2017 1.391 . S
C2016 C2018 1.394 . S
C2016 H2032 0.931 . S
C2017 C2016 1.391 . S
C2017 C2021 1.376 . S
C2018 C2016 1.394 . S
C2018 C2019 1.369 . S
C2018 C2022 1.531 . S
C2019 C2018 1.369 . S
C2019 C2020 1.410 . S
C2019 C2027 1.503 . S
C2020 C2019 1.410 . S
C2020 C2021 1.392 . S
C2020 C2023 1.511 . S
C2021 C2017 1.376 . S
C2021 C2020 1.392 . S
C2021 H2033 0.929 . S
C2022 C2018 1.531 . S
C2022 H2034 0.960 . S
C2022 H2035 0.962 . S
C2022 H2036 0.960 . S
C2023 C2020 1.511 . S
C2023 H2037 0.961 . S
C2023 H2038 0.961 . S
C2023 H2039 0.961 . S
C2024 C2025 1.370 . S
C2024 C2026 1.363 . S
C2024 H2040 0.931 . S
C2025 C2024 1.370 . S
C2025 C2029 1.408 . S
C2026 C2024 1.363 . S
C2026 C2027 1.370 . S
C2026 C2030 1.524 . S
C2027 C2019 1.503 . S
C2027 C2026 1.370 . S
C2027 C2028 1.403 . S
C2028 C2027 1.403 . S
C2028 C2029 1.404 . S
C2028 C2031 1.539 . S
C2029 C2025 1.408 . S
C2029 C2028 1.404 . S
C2029 H2041 0.930 . S
C2030 C2026 1.524 . S
C2030 H2042 0.956 . S
C2030 H2043 0.961 . S
C2030 H2044 0.961 . S
C2031 C2028 1.539 . S
C2031 H2045 0.958 . S
C2031 H2046 0.961 . S
C2031 H2047 0.960 . S
H2032 C2016 0.931 . S
H2033 C2021 0.929 . S
H2034 C2022 0.960 . S
H2035 C2022 0.962 . S
H2036 C2022 0.960 . S
H2037 C2023 0.961 . S
H2038 C2023 0.961 . S
H2039 C2023 0.961 . S
H2040 C2024 0.931 . S
H2041 C2029 0.930 . S
H2042 C2030 0.956 . S
H2043 C2030 0.961 . S
H2044 C2030 0.961 . S
H2045 C2031 0.958 . S
H2046 C2031 0.961 . S
H2047 C2031 0.960 . S
C2048 C2049 1.391 . S
C2048 C2050 1.394 . S
C2048 H2064 0.931 . S
C2049 C2048 1.391 . S
C2049 C2053 1.376 . S
C2050 C2048 1.394 . S
C2050 C2051 1.369 . S
C2050 C2054 1.531 . S
C2051 C2050 1.369 . S
C2051 C2052 1.410 . S
C2051 C2059 1.503 . S
C2052 C2051 1.410 . S
C2052 C2053 1.392 . S
C2052 C2055 1.511 . S
C2053 C2049 1.376 . S
C2053 C2052 1.392 . S
C2053 H2065 0.929 . S
C2054 C2050 1.531 . S
C2054 H2066 0.960 . S
C2054 H2067 0.962 . S
C2054 H2068 0.960 . S
C2055 C2052 1.511 . S
C2055 H2069 0.961 . S
C2055 H2070 0.961 . S
C2055 H2071 0.961 . S
C2056 C2057 1.370 . S
C2056 C2058 1.363 . S
C2056 H2072 0.931 . S
C2057 C2056 1.370 . S
C2057 C2061 1.408 . S
C2058 C2056 1.363 . S
C2058 C2059 1.370 . S
C2058 C2062 1.524 . S
C2059 C2051 1.503 . S
C2059 C2058 1.370 . S
C2059 C2060 1.403 . S
C2060 C2059 1.403 . S
C2060 C2061 1.404 . S
C2060 C2063 1.539 . S
C2061 C2057 1.408 . S
C2061 C2060 1.404 . S
C2061 H2073 0.930 . S
C2062 C2058 1.524 . S
C2062 H2074 0.956 . S
C2062 H2075 0.961 . S
C2062 H2076 0.961 . S
C2063 C2060 1.539 . S
C2063 H2077 0.958 . S
C2063 H2078 0.961 . S
C2063 H2079 0.960 . S
H2064 C2048 0.931 . S
H2065 C2053 0.929 . S
H2066 C2054 0.960 . S
H2067 C2054 0.962 . S
H2068 C2054 0.960 . S
H2069 C2055 0.961 . S
H2070 C2055 0.961 . S
H2071 C2055 0.961 . S
H2072 C2056 0.931 . S
H2073 C2061 0.930 . S
H2074 C2062 0.956 . S
H2075 C2062 0.961 . S
H2076 C2062 0.961 . S
H2077 C2063 0.958 . S
H2078 C2063 0.961 . S
H2079 C2063 0.960 . S
C2080 C2081 1.391 . S
C2080 C2082 1.394 . S
C2080 H2096 0.931 . S
C2081 C2080 1.391 . S
C2081 C2085 1.376 . S
C2082 C2080 1.394 . S
C2082 C2083 1.369 . S
C2082 C2086 1.531 . S
C2083 C2082 1.369 . S
C2083 C2084 1.410 . S
C2083 C2091 1.503 . S
C2084 C2083 1.410 . S
C2084 C2085 1.392 . S
C2084 C2087 1.511 . S
C2085 C2081 1.376 . S
C2085 C2084 1.392 . S
C2085 H2097 0.929 . S
C2086 C2082 1.531 . S
C2086 H2098 0.960 . S
C2086 H2099 0.962 . S
C2086 H2100 0.960 . S
C2087 C2084 1.511 . S
C2087 H2101 0.961 . S
C2087 H2102 0.961 . S
C2087 H2103 0.961 . S
C2088 C2089 1.370 . S
C2088 C2090 1.363 . S
C2088 H2104 0.931 . S
C2089 C2088 1.370 . S
C2089 C2093 1.408 . S
C2090 C2088 1.363 . S
C2090 C2091 1.370 . S
C2090 C2094 1.524 . S
C2091 C2083 1.503 . S
C2091 C2090 1.370 . S
C2091 C2092 1.403 . S
C2092 C2091 1.403 . S
C2092 C2093 1.404 . S
C2092 C2095 1.539 . S
C2093 C2089 1.408 . S
C2093 C2092 1.404 . S
C2093 H2105 0.930 . S
C2094 C2090 1.524 . S
C2094 H2106 0.956 . S
C2094 H2107 0.961 . S
C2094 H2108 0.961 . S
C2095 C2092 1.539 . S
C2095 H2109 0.958 . S
C2095 H2110 0.961 . S
C2095 H2111 0.960 . S
H2096 C2080 0.931 . S
H2097 C2085 0.929 . S
H2098 C2086 0.960 . S
H2099 C2086 0.962 . S
H2100 C2086 0.960 . S
H2101 C2087 0.961 . S
H2102 C2087 0.961 . S
H2103 C2087 0.961 . S
H2104 C2088 0.931 . S
H2105 C2093 0.930 . S
H2106 C2094 0.956 . S
H2107 C2094 0.961 . S
H2108 C2094 0.961 . S
H2109 C2095 0.958 . S
H2110 C2095 0.961 . S
H2111 C2095 0.960 . S
C2112 C2113 1.391 . S
C2112 C2114 1.394 . S
C2112 H2128 0.931 . S
C2113 C2112 1.391 . S
C2113 C2117 1.376 . S
C2114 C2112 1.394 . S
C2114 C2115 1.369 . S
C2114 C2118 1.531 . S
C2115 C2114 1.369 . S
C2115 C2116 1.410 . S
C2115 C2123 1.503 . S
C2116 C2115 1.410 . S
C2116 C2117 1.392 . S
C2116 C2119 1.511 . S
C2117 C2113 1.376 . S
C2117 C2116 1.392 . S
C2117 H2129 0.929 . S
C2118 C2114 1.531 . S
C2118 H2130 0.960 . S
C2118 H2131 0.962 . S
C2118 H2132 0.960 . S
C2119 C2116 1.511 . S
C2119 H2133 0.961 . S
C2119 H2134 0.961 . S
C2119 H2135 0.961 . S
C2120 C2121 1.370 . S
C2120 C2122 1.363 . S
C2120 H2136 0.931 . S
C2121 C2120 1.370 . S
C2121 C2125 1.408 . S
C2122 C2120 1.363 . S
C2122 C2123 1.370 . S
C2122 C2126 1.524 . S
C2123 C2115 1.503 . S
C2123 C2122 1.370 . S
C2123 C2124 1.403 . S
C2124 C2123 1.403 . S
C2124 C2125 1.404 . S
C2124 C2127 1.539 . S
C2125 C2121 1.408 . S
C2125 C2124 1.404 . S
C2125 H2137 0.930 . S
C2126 C2122 1.524 . S
C2126 H2138 0.956 . S
C2126 H2139 0.961 . S
C2126 H2140 0.961 . S
C2127 C2124 1.539 . S
C2127 H2141 0.958 . S
C2127 H2142 0.961 . S
C2127 H2143 0.960 . S
H2128 C2112 0.931 . S
H2129 C2117 0.929 . S
H2130 C2118 0.960 . S
H2131 C2118 0.962 . S
H2132 C2118 0.960 . S
H2133 C2119 0.961 . S
H2134 C2119 0.961 . S
H2135 C2119 0.961 . S
H2136 C2120 0.931 . S
H2137 C2125 0.930 . S
H2138 C2126 0.956 . S
H2139 C2126 0.961 . S
H2140 C2126 0.961 . S
H2141 C2127 0.958 . S
H2142 C2127 0.961 . S
H2143 C2127 0.960 . S
C2144 C2145 1.391 . S
C2144 C2146 1.394 . S
C2144 H2160 0.931 . S
C2145 C2144 1.391 . S
C2145 C2149 1.376 . S
C2146 C2144 1.394 . S
C2146 C2147 1.369 . S
C2146 C2150 1.531 . S
C2147 C2146 1.369 . S
C2147 C2148 1.410 . S
C2147 C2155 1.503 . S
C2148 C2147 1.410 . S
C2148 C2149 1.392 . S
C2148 C2151 1.511 . S
C2149 C2145 1.376 . S
C2149 C2148 1.392 . S
C2149 H2161 0.929 . S
C2150 C2146 1.531 . S
C2150 H2162 0.960 . S
C2150 H2163 0.962 . S
C2150 H2164 0.960 . S
C2151 C2148 1.511 . S
C2151 H2165 0.961 . S
C2151 H2166 0.961 . S
C2151 H2167 0.961 . S
C2152 C2153 1.370 . S
C2152 C2154 1.363 . S
C2152 H2168 0.931 . S
C2153 C2152 1.370 . S
C2153 C2157 1.408 . S
C2154 C2152 1.363 . S
C2154 C2155 1.370 . S
C2154 C2158 1.524 . S
C2155 C2147 1.503 . S
C2155 C2154 1.370 . S
C2155 C2156 1.403 . S
C2156 C2155 1.403 . S
C2156 C2157 1.404 . S
C2156 C2159 1.539 . S
C2157 C2153 1.408 . S
C2157 C2156 1.404 . S
C2157 H2169 0.930 . S
C2158 C2154 1.524 . S
C2158 H2170 0.956 . S
C2158 H2171 0.961 . S
C2158 H2172 0.961 . S
C2159 C2156 1.539 . S
C2159 H2173 0.958 . S
C2159 H2174 0.961 . S
C2159 H2175 0.960 . S
H2160 C2144 0.931 . S
H2161 C2149 0.929 . S
H2162 C2150 0.960 . S
H2163 C2150 0.962 . S
H2164 C2150 0.960 . S
H2165 C2151 0.961 . S
H2166 C2151 0.961 . S
H2167 C2151 0.961 . S
H2168 C2152 0.931 . S
H2169 C2157 0.930 . S
H2170 C2158 0.956 . S
H2171 C2158 0.961 . S
H2172 C2158 0.961 . S
H2173 C2159 0.958 . S
H2174 C2159 0.961 . S
H2175 C2159 0.960 . S
C2176 C2177 1.391 . S
C2176 C2178 1.394 . S
C2176 H2192 0.931 . S
C2177 C2176 1.391 . S
C2177 C2181 1.376 . S
C2178 C2176 1.394 . S
C2178 C2179 1.369 . S
C2178 C2182 1.531 . S
C2179 C2178 1.369 . S
C2179 C2180 1.410 . S
C2179 C2187 1.503 . S
C2180 C2179 1.410 . S
C2180 C2181 1.392 . S
C2180 C2183 1.511 . S
C2181 C2177 1.376 . S
C2181 C2180 1.392 . S
C2181 H2193 0.929 . S
C2182 C2178 1.531 . S
C2182 H2194 0.960 . S
C2182 H2195 0.962 . S
C2182 H2196 0.960 . S
C2183 C2180 1.511 . S
C2183 H2197 0.961 . S
C2183 H2198 0.961 . S
C2183 H2199 0.961 . S
C2184 C2185 1.370 . S
C2184 C2186 1.363 . S
C2184 H2200 0.931 . S
C2185 C2184 1.370 . S
C2185 C2189 1.408 . S
C2186 C2184 1.363 . S
C2186 C2187 1.370 . S
C2186 C2190 1.524 . S
C2187 C2179 1.503 . S
C2187 C2186 1.370 . S
C2187 C2188 1.403 . S
C2188 C2187 1.403 . S
C2188 C2189 1.404 . S
C2188 C2191 1.539 . S
C2189 C2185 1.408 . S
C2189 C2188 1.404 . S
C2189 H2201 0.930 . S
C2190 C2186 1.524 . S
C2190 H2202 0.956 . S
C2190 H2203 0.961 . S
C2190 H2204 0.961 . S
C2191 C2188 1.539 . S
C2191 H2205 0.958 . S
C2191 H2206 0.961 . S
C2191 H2207 0.960 . S
H2192 C2176 0.931 . S
H2193 C2181 0.929 . S
H2194 C2182 0.960 . S
H2195 C2182 0.962 . S
H2196 C2182 0.960 . S
H2197 C2183 0.961 . S
H2198 C2183 0.961 . S
H2199 C2183 0.961 . S
H2200 C2184 0.931 . S
H2201 C2189 0.930 . S
H2202 C2190 0.956 . S
H2203 C2190 0.961 . S
H2204 C2190 0.961 . S
H2205 C2191 0.958 . S
H2206 C2191 0.961 . S
H2207 C2191 0.960 . S
C2208 C2209 1.391 . S
C2208 C2210 1.394 . S
C2208 H2224 0.931 . S
C2209 C2208 1.391 . S
C2209 C2213 1.376 . S
C2210 C2208 1.394 . S
C2210 C2211 1.369 . S
C2210 C2214 1.531 . S
C2211 C2210 1.369 . S
C2211 C2212 1.410 . S
C2211 C2219 1.503 . S
C2212 C2211 1.410 . S
C2212 C2213 1.392 . S
C2212 C2215 1.511 . S
C2213 C2209 1.376 . S
C2213 C2212 1.392 . S
C2213 H2225 0.929 . S
C2214 C2210 1.531 . S
C2214 H2226 0.960 . S
C2214 H2227 0.962 . S
C2214 H2228 0.960 . S
C2215 C2212 1.511 . S
C2215 H2229 0.961 . S
C2215 H2230 0.961 . S
C2215 H2231 0.961 . S
C2216 C2217 1.370 . S
C2216 C2218 1.363 . S
C2216 H2232 0.931 . S
C2217 C2216 1.370 . S
C2217 C2221 1.408 . S
C2218 C2216 1.363 . S
C2218 C2219 1.370 . S
C2218 C2222 1.524 . S
C2219 C2211 1.503 . S
C2219 C2218 1.370 . S
C2219 C2220 1.403 . S
C2220 C2219 1.403 . S
C2220 C2221 1.404 . S
C2220 C2223 1.539 . S
C2221 C2217 1.408 . S
C2221 C2220 1.404 . S
C2221 H2233 0.930 . S
C2222 C2218 1.524 . S
C2222 H2234 0.956 . S
C2222 H2235 0.961 . S
C2222 H2236 0.961 . S
C2223 C2220 1.539 . S
C2223 H2237 0.958 . S
C2223 H2238 0.961 . S
C2223 H2239 0.960 . S
H2224 C2208 0.931 . S
H2225 C2213 0.929 . S
H2226 C2214 0.960 . S
H2227 C2214 0.962 . S
H2228 C2214 0.960 . S
H2229 C2215 0.961 . S
H2230 C2215 0.961 . S
H2231 C2215 0.961 . S
H2232 C2216 0.931 . S
H2233 C2221 0.930 . S
H2234 C2222 0.956 . S
H2235 C2222 0.961 . S
H2236 C2222 0.961 . S
H2237 C2223 0.958 . S
H2238 C2223 0.961 . S
H2239 C2223 0.960 . S
C2240 C2241 1.391 . S
C2240 C2242 1.394 . S
C2240 H2256 0.931 . S
C2241 C2240 1.391 . S
C2241 C2245 1.376 . S
C2242 C2240 1.394 . S
C2242 C2243 1.369 . S
C2242 C2246 1.531 . S
C2243 C2242 1.369 . S
C2243 C2244 1.410 . S
C2243 C2251 1.503 . S
C2244 C2243 1.410 . S
C2244 C2245 1.392 . S
C2244 C2247 1.511 . S
C2245 C2241 1.376 . S
C2245 C2244 1.392 . S
C2245 H2257 0.929 . S
C2246 C2242 1.531 . S
C2246 H2258 0.960 . S
C2246 H2259 0.962 . S
C2246 H2260 0.960 . S
C2247 C2244 1.511 . S
C2247 H2261 0.961 . S
C2247 H2262 0.961 . S
C2247 H2263 0.961 . S
C2248 C2249 1.370 . S
C2248 C2250 1.363 . S
C2248 H2264 0.931 . S
C2249 C2248 1.370 . S
C2249 C2253 1.408 . S
C2250 C2248 1.363 . S
C2250 C2251 1.370 . S
C2250 C2254 1.524 . S
C2251 C2243 1.503 . S
C2251 C2250 1.370 . S
C2251 C2252 1.403 . S
C2252 C2251 1.403 . S
C2252 C2253 1.404 . S
C2252 C2255 1.539 . S
C2253 C2249 1.408 . S
C2253 C2252 1.404 . S
C2253 H2265 0.930 . S
C2254 C2250 1.524 . S
C2254 H2266 0.956 . S
C2254 H2267 0.961 . S
C2254 H2268 0.961 . S
C2255 C2252 1.539 . S
C2255 H2269 0.958 . S
C2255 H2270 0.961 . S
C2255 H2271 0.960 . S
H2256 C2240 0.931 . S
H2257 C2245 0.929 . S
H2258 C2246 0.960 . S
H2259 C2246 0.962 . S
H2260 C2246 0.960 . S
H2261 C2247 0.961 . S
H2262 C2247 0.961 . S
H2263 C2247 0.961 . S
H2264 C2248 0.931 . S
H2265 C2253 0.930 . S
H2266 C2254 0.956 . S
H2267 C2254 0.961 . S
H2268 C2254 0.961 . S
H2269 C2255 0.958 . S
H2270 C2255 0.961 . S
H2271 C2255 0.960 . S
C2272 C2273 1.391 . S
C2272 C2274 1.394 . S
C2272 H2288 0.931 . S
C2273 C2272 1.391 . S
C2273 C2277 1.376 . S
C2274 C2272 1.394 . S
C2274 C2275 1.369 . S
C2274 C2278 1.531 . S
C2275 C2274 1.369 . S
C2275 C2276 1.410 . S
C2275 C2283 1.503 . S
C2276 C2275 1.410 . S
C2276 C2277 1.392 . S
C2276 C2279 1.511 . S
C2277 C2273 1.376 . S
C2277 C2276 1.392 . S
C2277 H2289 0.929 . S
C2278 C2274 1.531 . S
C2278 H2290 0.960 . S
C2278 H2291 0.962 . S
C2278 H2292 0.960 . S
C2279 C2276 1.511 . S
C2279 H2293 0.961 . S
C2279 H2294 0.961 . S
C2279 H2295 0.961 . S
C2280 C2281 1.370 . S
C2280 C2282 1.363 . S
C2280 H2296 0.931 . S
C2281 C2280 1.370 . S
C2281 C2285 1.408 . S
C2282 C2280 1.363 . S
C2282 C2283 1.370 . S
C2282 C2286 1.524 . S
C2283 C2275 1.503 . S
C2283 C2282 1.370 . S
C2283 C2284 1.403 . S
C2284 C2283 1.403 . S
C2284 C2285 1.404 . S
C2284 C2287 1.539 . S
C2285 C2281 1.408 . S
C2285 C2284 1.404 . S
C2285 H2297 0.930 . S
C2286 C2282 1.524 . S
C2286 H2298 0.956 . S
C2286 H2299 0.961 . S
C2286 H2300 0.961 . S
C2287 C2284 1.539 . S
C2287 H2301 0.958 . S
C2287 H2302 0.961 . S
C2287 H2303 0.960 . S
H2288 C2272 0.931 . S
H2289 C2277 0.929 . S
H2290 C2278 0.960 . S
H2291 C2278 0.962 . S
H2292 C2278 0.960 . S
H2293 C2279 0.961 . S
H2294 C2279 0.961 . S
H2295 C2279 0.961 . S
H2296 C2280 0.931 . S
H2297 C2285 0.930 . S
H2298 C2286 0.956 . S
H2299 C2286 0.961 . S
H2300 C2286 0.961 . S
H2301 C2287 0.958 . S
H2302 C2287 0.961 . S
H2303 C2287 0.960 . S
C2304 C2305 1.391 . S
C2304 C2306 1.394 . S
C2304 H2320 0.931 . S
C2305 C2304 1.391 . S
C2305 C2309 1.376 . S
C2306 C2304 1.394 . S
C2306 C2307 1.369 . S
C2306 C2310 1.531 . S
C2307 C2306 1.369 . S
C2307 C2308 1.410 . S
C2307 C2315 1.503 . S
C2308 C2307 1.410 . S
C2308 C2309 1.392 . S
C2308 C2311 1.511 . S
C2309 C2305 1.376 . S
C2309 C2308 1.392 . S
C2309 H2321 0.929 . S
C2310 C2306 1.531 . S
C2310 H2322 0.960 . S
C2310 H2323 0.962 . S
C2310 H2324 0.960 . S
C2311 C2308 1.511 . S
C2311 H2325 0.961 . S
C2311 H2326 0.961 . S
C2311 H2327 0.961 . S
C2312 C2313 1.370 . S
C2312 C2314 1.363 . S
C2312 H2328 0.931 . S
C2313 C2312 1.370 . S
C2313 C2317 1.408 . S
C2314 C2312 1.363 . S
C2314 C2315 1.370 . S
C2314 C2318 1.524 . S
C2315 C2307 1.503 . S
C2315 C2314 1.370 . S
C2315 C2316 1.403 . S
C2316 C2315 1.403 . S
C2316 C2317 1.404 . S
C2316 C2319 1.539 . S
C2317 C2313 1.408 . S
C2317 C2316 1.404 . S
C2317 H2329 0.930 . S
C2318 C2314 1.524 . S
C2318 H2330 0.956 . S
C2318 H2331 0.961 . S
C2318 H2332 0.961 . S
C2319 C2316 1.539 . S
C2319 H2333 0.958 . S
C2319 H2334 0.961 . S
C2319 H2335 0.960 . S
H2320 C2304 0.931 . S
H2321 C2309 0.929 . S
H2322 C2310 0.960 . S
H2323 C2310 0.962 . S
H2324 C2310 0.960 . S
H2325 C2311 0.961 . S
H2326 C2311 0.961 . S
H2327 C2311 0.961 . S
H2328 C2312 0.931 . S
H2329 C2317 0.930 . S
H2330 C2318 0.956 . S
H2331 C2318 0.961 . S
H2332 C2318 0.961 . S
H2333 C2319 0.958 . S
H2334 C2319 0.961 . S
H2335 C2319 0.960 . S
C2336 C2337 1.391 . S
C2336 C2338 1.394 . S
C2336 H2352 0.931 . S
C2337 C2336 1.391 . S
C2337 C2341 1.376 . S
C2338 C2336 1.394 . S
C2338 C2339 1.369 . S
C2338 C2342 1.531 . S
C2339 C2338 1.369 . S
C2339 C2340 1.410 . S
C2339 C2347 1.503 . S
C2340 C2339 1.410 . S
C2340 C2341 1.392 . S
C2340 C2343 1.511 . S
C2341 C2337 1.376 . S
C2341 C2340 1.392 . S
C2341 H2353 0.929 . S
C2342 C2338 1.531 . S
C2342 H2354 0.960 . S
C2342 H2355 0.962 . S
C2342 H2356 0.960 . S
C2343 C2340 1.511 . S
C2343 H2357 0.961 . S
C2343 H2358 0.961 . S
C2343 H2359 0.961 . S
C2344 C2345 1.370 . S
C2344 C2346 1.363 . S
C2344 H2360 0.931 . S
C2345 C2344 1.370 . S
C2345 C2349 1.408 . S
C2346 C2344 1.363 . S
C2346 C2347 1.370 . S
C2346 C2350 1.524 . S
C2347 C2339 1.503 . S
C2347 C2346 1.370 . S
C2347 C2348 1.403 . S
C2348 C2347 1.403 . S
C2348 C2349 1.404 . S
C2348 C2351 1.539 . S
C2349 C2345 1.408 . S
C2349 C2348 1.404 . S
C2349 H2361 0.930 . S
C2350 C2346 1.524 . S
C2350 H2362 0.956 . S
C2350 H2363 0.961 . S
C2350 H2364 0.961 . S
C2351 C2348 1.539 . S
C2351 H2365 0.958 . S
C2351 H2366 0.961 . S
C2351 H2367 0.960 . S
H2352 C2336 0.931 . S
H2353 C2341 0.929 . S
H2354 C2342 0.960 . S
H2355 C2342 0.962 . S
H2356 C2342 0.960 . S
H2357 C2343 0.961 . S
H2358 C2343 0.961 . S
H2359 C2343 0.961 . S
H2360 C2344 0.931 . S
H2361 C2349 0.930 . S
H2362 C2350 0.956 . S
H2363 C2350 0.961 . S
H2364 C2350 0.961 . S
H2365 C2351 0.958 . S
H2366 C2351 0.961 . S
H2367 C2351 0.960 . S
C2368 C2369 1.391 . S
C2368 C2370 1.394 . S
C2368 H2384 0.931 . S
C2369 C2368 1.391 . S
C2369 C2373 1.376 . S
C2370 C2368 1.394 . S
C2370 C2371 1.369 . S
C2370 C2374 1.531 . S
C2371 C2370 1.369 . S
C2371 C2372 1.410 . S
C2371 C2379 1.503 . S
C2372 C2371 1.410 . S
C2372 C2373 1.392 . S
C2372 C2375 1.511 . S
C2373 C2369 1.376 . S
C2373 C2372 1.392 . S
C2373 H2385 0.929 . S
C2374 C2370 1.531 . S
C2374 H2386 0.960 . S
C2374 H2387 0.962 . S
C2374 H2388 0.960 . S
C2375 C2372 1.511 . S
C2375 H2389 0.961 . S
C2375 H2390 0.961 . S
C2375 H2391 0.961 . S
C2376 C2377 1.370 . S
C2376 C2378 1.363 . S
C2376 H2392 0.931 . S
C2377 C2376 1.370 . S
C2377 C2381 1.408 . S
C2378 C2376 1.363 . S
C2378 C2379 1.370 . S
C2378 C2382 1.524 . S
C2379 C2371 1.503 . S
C2379 C2378 1.370 . S
C2379 C2380 1.403 . S
C2380 C2379 1.403 . S
C2380 C2381 1.404 . S
C2380 C2383 1.539 . S
C2381 C2377 1.408 . S
C2381 C2380 1.404 . S
C2381 H2393 0.930 . S
C2382 C2378 1.524 . S
C2382 H2394 0.956 . S
C2382 H2395 0.961 . S
C2382 H2396 0.961 . S
C2383 C2380 1.539 . S
C2383 H2397 0.958 . S
C2383 H2398 0.961 . S
C2383 H2399 0.960 . S
H2384 C2368 0.931 . S
H2385 C2373 0.929 . S
H2386 C2374 0.960 . S
H2387 C2374 0.962 . S
H2388 C2374 0.960 . S
H2389 C2375 0.961 . S
H2390 C2375 0.961 . S
H2391 C2375 0.961 . S
H2392 C2376 0.931 . S
H2393 C2381 0.930 . S
H2394 C2382 0.956 . S
H2395 C2382 0.961 . S
H2396 C2382 0.961 . S
H2397 C2383 0.958 . S
H2398 C2383 0.961 . S
H2399 C2383 0.960 . S
C2400 C2401 1.391 . S
C2400 C2402 1.394 . S
C2400 H2416 0.931 . S
C2401 C2400 1.391 . S
C2401 C2405 1.376 . S
C2402 C2400 1.394 . S
C2402 C2403 1.369 . S
C2402 C2406 1.531 . S
C2403 C2402 1.369 . S
C2403 C2404 1.410 . S
C2403 C2411 1.503 . S
C2404 C2403 1.410 . S
C2404 C2405 1.392 . S
C2404 C2407 1.511 . S
C2405 C2401 1.376 . S
C2405 C2404 1.392 . S
C2405 H2417 0.929 . S
C2406 C2402 1.531 . S
C2406 H2418 0.960 . S
C2406 H2419 0.962 . S
C2406 H2420 0.960 . S
C2407 C2404 1.511 . S
C2407 H2421 0.961 . S
C2407 H2422 0.961 . S
C2407 H2423 0.961 . S
C2408 C2409 1.370 . S
C2408 C2410 1.363 . S
C2408 H2424 0.931 . S
C2409 C2408 1.370 . S
C2409 C2413 1.408 . S
C2410 C2408 1.363 . S
C2410 C2411 1.370 . S
C2410 C2414 1.524 . S
C2411 C2403 1.503 . S
C2411 C2410 1.370 . S
C2411 C2412 1.403 . S
C2412 C2411 1.403 . S
C2412 C2413 1.404 . S
C2412 C2415 1.539 . S
C2413 C2409 1.408 . S
C2413 C2412 1.404 . S
C2413 H2425 0.930 . S
C2414 C2410 1.524 . S
C2414 H2426 0.956 . S
C2414 H2427 0.961 . S
C2414 H2428 0.961 . S
C2415 C2412 1.539 . S
C2415 H2429 0.958 . S
C2415 H2430 0.961 . S
C2415 H2431 0.960 . S
H2416 C2400 0.931 . S
H2417 C2405 0.929 . S
H2418 C2406 0.960 . S
H2419 C2406 0.962 . S
H2420 C2406 0.960 . S
H2421 C2407 0.961 . S
H2422 C2407 0.961 . S
H2423 C2407 0.961 . S
H2424 C2408 0.931 . S
H2425 C2413 0.930 . S
H2426 C2414 0.956 . S
H2427 C2414 0.961 . S
H2428 C2414 0.961 . S
H2429 C2415 0.958 . S
H2430 C2415 0.961 . S
H2431 C2415 0.960 . S
C2432 C2433 1.391 . S
C2432 C2434 1.394 . S
C2432 H2448 0.931 . S
C2433 C2432 1.391 . S
C2433 C2437 1.376 . S
C2434 C2432 1.394 . S
C2434 C2435 1.369 . S
C2434 C2438 1.531 . S
C2435 C2434 1.369 . S
C2435 C2436 1.410 . S
C2435 C2443 1.503 . S
C2436 C2435 1.410 . S
C2436 C2437 1.392 . S
C2436 C2439 1.511 . S
C2437 C2433 1.376 . S
C2437 C2436 1.392 . S
C2437 H2449 0.929 . S
C2438 C2434 1.531 . S
C2438 H2450 0.960 . S
C2438 H2451 0.962 . S
C2438 H2452 0.960 . S
C2439 C2436 1.511 . S
C2439 H2453 0.961 . S
C2439 H2454 0.961 . S
C2439 H2455 0.961 . S
C2440 C2441 1.370 . S
C2440 C2442 1.363 . S
C2440 H2456 0.931 . S
C2441 C2440 1.370 . S
C2441 C2445 1.408 . S
C2442 C2440 1.363 . S
C2442 C2443 1.370 . S
C2442 C2446 1.524 . S
C2443 C2435 1.503 . S
C2443 C2442 1.370 . S
C2443 C2444 1.403 . S
C2444 C2443 1.403 . S
C2444 C2445 1.404 . S
C2444 C2447 1.539 . S
C2445 C2441 1.408 . S
C2445 C2444 1.404 . S
C2445 H2457 0.930 . S
C2446 C2442 1.524 . S
C2446 H2458 0.956 . S
C2446 H2459 0.961 . S
C2446 H2460 0.961 . S
C2447 C2444 1.539 . S
C2447 H2461 0.958 . S
C2447 H2462 0.961 . S
C2447 H2463 0.960 . S
H2448 C2432 0.931 . S
H2449 C2437 0.929 . S
H2450 C2438 0.960 . S
H2451 C2438 0.962 . S
H2452 C2438 0.960 . S
H2453 C2439 0.961 . S
H2454 C2439 0.961 . S
H2455 C2439 0.961 . S
H2456 C2440 0.931 . S
H2457 C2445 0.930 . S
H2458 C2446 0.956 . S
H2459 C2446 0.961 . S
H2460 C2446 0.961 . S
H2461 C2447 0.958 . S
H2462 C2447 0.961 . S
H2463 C2447 0.960 . S
C417 C0 1.311 . S
C425 C52 1.295 . S
C449 C13 1.280 . S
C457 C65 1.295 . S
C481 C78 1.277 . S
C489 C26 1.300 . S
C513 C91 1.306 . S
C521 C39 1.301 . S
C545 C104 1.287 . S
C553 C156 1.304 . S
C577 C117 1.279 . S
C585 C169 1.298 . S
C609 C182 1.289 . S
C617 C130 1.304 . S
C641 C143 1.311 . S
C649 C195 1.292 . S
C673 C260 1.277 . S
C681 C208 1.301 . S
C705 C273 1.277 . S
C713 C221 1.301 . S
C737 C234 1.277 . S
C745 C286 1.300 . S
C769 C299 1.297 . S
C777 C247 1.304 . S
C801 C312 1.285 . S
C809 C364 1.304 . S
C833 C377 1.308 . S
C841 C325 1.297 . S
C865 C390 1.282 . S
C873 C338 1.304 . S
C897 C351 1.281 . S
C905 C403 1.297 . S
C929 C5 1.353 . S
C937 C359 1.437 . S
C961 C112 1.436 . S
C969 C18 1.378 . S
C993 C31 1.397 . S
C1001 C333 1.453 . S
C1025 C44 1.406 . S
C1033 C138 1.454 . S
C1057 C385 1.459 . S
C1065 C57 1.408 . S
C1089 C190 1.429 . S
C1097 C70 1.400 . S
C1121 C83 1.359 . S
C1129 C411 1.446 . S
C1153 C96 1.352 . S
C1161 C164 1.442 . S
C1185 C255 1.435 . S
C1193 C109 1.400 . S
C1217 C122 1.363 . S
C1225 C8 1.444 . S
C1249 C229 1.437 . S
C1257 C135 1.401 . S
C1281 C148 1.427 . S
C1289 C34 1.453 . S
C1313 C281 1.437 . S
C1321 C161 1.401 . S
C1345 C174 1.409 . S
C1353 C86 1.453 . S
C1377 C307 1.455 . S
C1385 C187 1.394 . S
C1409 C200 1.393 . S
C1417 C60 1.451 . S
C1441 C151 1.428 . S
C1449 C213 1.377 . S
C1473 C320 1.435 . S
C1481 C226 1.378 . S
C1505 C125 1.428 . S
C1513 C239 1.399 . S
C1537 C252 1.358 . S
C1545 C346 1.436 . S
C1569 C177 1.461 . S
C1577 C265 1.395 . S
C1601 C398 1.456 . S
C1609 C278 1.389 . S
C1633 C203 1.429 . S
C1641 C291 1.377 . S
C1665 C304 1.392 . S
C1673 C372 1.437 . S
C1697 C317 1.423 . S
C1705 C47 1.454 . S
C1729 C330 1.395 . S
C1737 C216 1.440 . S
C1761 C343 1.353 . S
C1769 C21 1.439 . S
C1793 C356 1.407 . S
C1801 C242 1.453 . S
C1825 C369 1.351 . S
C1833 C73 1.436 . S
C1857 C294 1.425 . S
C1865 C382 1.377 . S
C1889 C99 1.463 . S
C1897 C395 1.404 . S
C1921 C408 1.408 . S
C1929 C268 1.443 . S
C1953 C10 1.135 . S
C1961 C101 1.167 . S
C1985 C23 1.130 . S
C1993 C62 1.164 1_556 S
C2017 C36 1.127 1_554 S
C2025 C75 1.154 . S
C2049 C88 1.197 . S
C2057 C49 1.179 . S
C2081 C205 1.134 . S
C2089 C114 1.150 . S
C2113 C166 1.127 1_554 S
C2121 C127 1.156 . S
C2145 C179 1.127 . S
C2153 C140 1.152 1_556 S
C2177 C192 1.133 . S
C2185 C153 1.162 . S
C2209 C218 1.194 1_554 S
C2217 C309 1.180 . S
C2241 C270 1.132 . S
C2249 C231 1.152 . S
C2273 C283 1.186 . S
C2281 C244 1.161 . S
C2305 C296 1.136 1_556 S
C2313 C257 1.151 . S
C2337 C413 1.171 . S
C2345 C322 1.177 1_556 S
C2369 C335 1.200 . S
C2377 C374 1.178 . S
C2401 C348 1.135 . S
C2409 C387 1.162 . S
C2433 C361 1.197 . S
C2441 C400 1.174 1_554 S
