# Generated by pormake.
# Topology sxg, (6)-cn, num edge types: 1
# Building blocks:
#     Node 0, Type 0, BuildingBlock: KUMBUR_clean_sbu_0, # of connection points: 6
#     Node 1, Type 0, BuildingBlock: KUMBUR_clean_sbu_0, # of connection points: 6
#     Node 2, Type 0, BuildingBlock: KUMBUR_clean_sbu_0, # of connection points: 6
#     Node 3, Type 0, BuildingBlock: KUMBUR_clean_sbu_0, # of connection points: 6
#     Node 4, Type 0, BuildingBlock: KUMBUR_clean_sbu_0, # of connection points: 6
#     Node 5, Type 0, BuildingBlock: KUMBUR_clean_sbu_0, # of connection points: 6
#     Node 6, Type 0, BuildingBlock: KUMBUR_clean_sbu_0, # of connection points: 6
#     Node 7, Type 0, BuildingBlock: KUMBUR_clean_sbu_0, # of connection points: 6
#     Node 8, Type 0, BuildingBlock: KUMBUR_clean_sbu_0, # of connection points: 6
#     Node 9, Type 0, BuildingBlock: KUMBUR_clean_sbu_0, # of connection points: 6
#     Node 10, Type 0, BuildingBlock: KUMBUR_clean_sbu_0, # of connection points: 6
#     Node 11, Type 0, BuildingBlock: KUMBUR_clean_sbu_0, # of connection points: 6
#     Node 12, Type 0, BuildingBlock: KUMBUR_clean_sbu_0, # of connection points: 6
#     Node 13, Type 0, BuildingBlock: KUMBUR_clean_sbu_0, # of connection points: 6
#     Node 14, Type 0, BuildingBlock: KUMBUR_clean_sbu_0, # of connection points: 6
#     Node 15, Type 0, BuildingBlock: KUMBUR_clean_sbu_0, # of connection points: 6
#     Node 16, Type 0, BuildingBlock: KUMBUR_clean_sbu_0, # of connection points: 6
#     Node 17, Type 0, BuildingBlock: KUMBUR_clean_sbu_0, # of connection points: 6
#     Node 18, Type 0, BuildingBlock: KUMBUR_clean_sbu_0, # of connection points: 6
#     Node 19, Type 0, BuildingBlock: KUMBUR_clean_sbu_0, # of connection points: 6
#     Node 20, Type 0, BuildingBlock: KUMBUR_clean_sbu_0, # of connection points: 6
#     Node 21, Type 0, BuildingBlock: KUMBUR_clean_sbu_0, # of connection points: 6
#     Node 22, Type 0, BuildingBlock: KUMBUR_clean_sbu_0, # of connection points: 6
#     Node 23, Type 0, BuildingBlock: KUMBUR_clean_sbu_0, # of connection points: 6
#     Edge 24, Type (0, 0), None
#     Edge 25, Type (0, 0), None
#     Edge 26, Type (0, 0), None
#     Edge 27, Type (0, 0), None
#     Edge 28, Type (0, 0), None
#     Edge 29, Type (0, 0), None
#     Edge 30, Type (0, 0), None
#     Edge 31, Type (0, 0), None
#     Edge 32, Type (0, 0), None
#     Edge 33, Type (0, 0), None
#     Edge 34, Type (0, 0), None
#     Edge 35, Type (0, 0), None
#     Edge 36, Type (0, 0), None
#     Edge 37, Type (0, 0), None
#     Edge 38, Type (0, 0), None
#     Edge 39, Type (0, 0), None
#     Edge 40, Type (0, 0), None
#     Edge 41, Type (0, 0), None
#     Edge 42, Type (0, 0), None
#     Edge 43, Type (0, 0), None
#     Edge 44, Type (0, 0), None
#     Edge 45, Type (0, 0), None
#     Edge 46, Type (0, 0), None
#     Edge 47, Type (0, 0), None
#     Edge 48, Type (0, 0), None
#     Edge 49, Type (0, 0), None
#     Edge 50, Type (0, 0), None
#     Edge 51, Type (0, 0), None
#     Edge 52, Type (0, 0), None
#     Edge 53, Type (0, 0), None
#     Edge 54, Type (0, 0), None
#     Edge 55, Type (0, 0), None
#     Edge 56, Type (0, 0), None
#     Edge 57, Type (0, 0), None
#     Edge 58, Type (0, 0), None
#     Edge 59, Type (0, 0), None
#     Edge 60, Type (0, 0), None
#     Edge 61, Type (0, 0), None
#     Edge 62, Type (0, 0), None
#     Edge 63, Type (0, 0), None
#     Edge 64, Type (0, 0), None
#     Edge 65, Type (0, 0), None
#     Edge 66, Type (0, 0), None
#     Edge 67, Type (0, 0), None
#     Edge 68, Type (0, 0), None
#     Edge 69, Type (0, 0), None
#     Edge 70, Type (0, 0), None
#     Edge 71, Type (0, 0), None
#     Edge 72, Type (0, 0), None
#     Edge 73, Type (0, 0), None
#     Edge 74, Type (0, 0), None
#     Edge 75, Type (0, 0), None
#     Edge 76, Type (0, 0), None
#     Edge 77, Type (0, 0), None
#     Edge 78, Type (0, 0), None
#     Edge 79, Type (0, 0), None
#     Edge 80, Type (0, 0), None
#     Edge 81, Type (0, 0), None
#     Edge 82, Type (0, 0), None
#     Edge 83, Type (0, 0), None
#     Edge 84, Type (0, 0), None
#     Edge 85, Type (0, 0), None
#     Edge 86, Type (0, 0), None
#     Edge 87, Type (0, 0), None
#     Edge 88, Type (0, 0), None
#     Edge 89, Type (0, 0), None
#     Edge 90, Type (0, 0), None
#     Edge 91, Type (0, 0), None
#     Edge 92, Type (0, 0), None
#     Edge 93, Type (0, 0), None
#     Edge 94, Type (0, 0), None
#     Edge 95, Type (0, 0), None
# Relax obj value: 0.152
# Max RMSD: 0.244
# Mean RMSD: 0.244
data_MOF--net-sxg--node1-KUMBUR_clean_sbu_0--edge1-none
_symmetry_space_group_name_H-M    P1
_symmetry_Int_Tables_number       1
_symmetry_cell_setting            triclinic
loop_
_symmetry_equiv_pos_as_xyz
'x, y, z'
_cell_length_a     28.127107
_cell_length_b     28.127029
_cell_length_c     28.12715
_cell_angle_alpha  90.000004
_cell_angle_beta   89.999992
_cell_angle_gamma 90.000019
loop_
_atom_site_label
_atom_site_type_symbol
_atom_site_fract_x
_atom_site_fract_y
_atom_site_fract_z
_atom_type_partial_charge
Tb0 Tb 0.03317 0.43988 0.30465 0.0
C1 C 0.07599 0.27791 0.41689 0.0
C2 C 0.09806 0.31223 0.53756 0.0
C3 C 0.08313 0.21734 0.53138 0.0
C4 C 0.08701 0.3197 0.44841 0.0
C5 C 0.07082 0.22534 0.44005 0.0
C6 C 0.09444 0.26313 0.56262 0.0
C7 C 0.0544 0.20763 0.3543 0.0
N8 N 0.07171 0.28844 0.37071 0.0
C9 C 0.05678 0.25428 0.34043 0.0
C10 C 0.06027 0.19295 0.40105 0.0
Tb11 Tb 0.11244 0.35719 0.35051 0.0
N12 N 0.09243 0.37227 0.42969 0.0
C13 C 0.10029 0.41964 0.46243 0.0
C14 C 0.10828 0.36919 0.56259 0.0
C15 C 0.10887 0.4202 0.52544 0.0
H16 H 0.05198 0.2599 0.30346 0.0
H17 H 0.11393 0.45435 0.54192 0.0
H18 H 0.09781 0.26107 0.60017 0.0
H19 H 0.05133 0.1817 0.32649 0.0
H20 H 0.09893 0.45412 0.44629 0.0
H21 H 1.02348 0.43518 0.10887 0.0
H22 H 0.11497 0.37333 0.60001 0.0
H23 H 0.04291 0.53102 0.39665 0.0
H24 H 1.02435 0.40022 0.18592 0.0
H25 H 0.06558 0.67106 0.37995 0.0
H26 H 0.08144 0.18629 0.55506 0.0
H27 H 0.04364 0.51838 0.09322 0.0
H28 H 0.07943 0.60545 0.11935 0.0
H29 H 0.05684 0.15496 0.40421 0.0
H30 H 0.08206 0.67666 0.1864 0.0
N31 N 0.04559 0.46163 0.22519 0.0
C32 C 0.03553 0.4366 0.18425 0.0
C33 C 0.04578 0.50486 0.12917 0.0
C34 C 0.0605 0.53418 0.16557 0.0
C35 C 0.03407 0.45733 0.13851 0.0
C36 C 0.05435 0.50804 0.22121 0.0
H37 H 0.07181 0.70212 0.29508 0.0
N38 N 0.04751 0.52066 0.31956 0.0
C39 C 0.05987 0.64365 0.35351 0.0
C40 C 0.05402 0.54079 0.27228 0.0
C41 C 0.04769 0.55197 0.36403 0.0
C42 C 0.06629 0.66452 0.30099 0.0
C43 C 0.06666 0.62846 0.25835 0.0
O44 O 0.96154 0.45013 0.32702 0.0
O45 O 0.03612 0.37581 0.35137 0.0
O46 O 0.08498 0.32954 0.28193 0.0
O47 O 1.01804 0.37318 0.2637 0.0
O48 O 1.0053 0.43527 0.37763 0.0
O49 O 0.97784 0.45668 0.25487 0.0
O50 O 0.15704 0.30599 0.31795 0.0
O51 O 0.1005 0.40044 0.28868 0.0
O52 O 0.0969 0.48183 0.33477 0.0
O53 O 0.14195 0.42656 0.37723 0.0
O54 O 0.16757 0.39986 0.31659 0.0
O55 O 0.16895 0.32305 0.38916 0.0
C56 C 1.01135 0.3908 0.38714 0.0
C57 C 0.90791 0.49909 0.28104 0.0
C58 C 0.8349 0.53834 0.2478 0.0
C59 C 0.86943 0.50041 0.24701 0.0
C60 C 0.84016 0.57324 0.28338 0.0
C61 C 0.91006 0.53526 0.31494 0.0
C62 C 0.87628 0.57121 0.31659 0.0
C63 C 0.04571 0.33583 0.25606 0.0
C64 C 0.94389 0.4591 0.28531 0.0
C65 C 0.07456 0.64099 0.19759 0.0
C66 C 0.07075 0.59579 0.15445 0.0
C67 C 0.14427 0.41216 0.27907 0.0
C68 C 0.19059 0.24188 0.36431 0.0
C69 C 0.22928 0.22119 0.3913 0.0
C70 C 0.23397 0.16981 0.39652 0.0
C71 C 0.19756 0.14202 0.37812 0.0
C72 C 0.16144 0.20982 0.34014 0.0
C73 C 0.1624 0.16169 0.35025 0.0
C74 C 0.13308 0.47178 0.36468 0.0
C75 C 0.18206 0.29503 0.3551 0.0
H76 H 0.86635 0.4724 0.22082 0.0
H77 H 0.81595 0.60301 0.2863 0.0
H78 H 0.93742 0.53451 0.34174 0.0
H79 H 0.87792 0.59827 0.34374 0.0
H80 H 0.25618 0.24434 0.40618 0.0
H81 H 0.1982 0.10427 0.38144 0.0
H82 H 0.13731 0.22175 0.31291 0.0
H83 H 0.13628 0.13899 0.33532 0.0
Tb84 Tb 0.51617 0.60946 0.80465 0.0
C85 C 0.47336 0.77144 0.91689 0.0
C86 C 0.45129 0.73711 0.03756 0.0
C87 C 0.46622 0.832 0.03138 0.0
C88 C 0.46234 0.72964 0.94841 0.0
C89 C 0.47852 0.82401 0.94005 0.0
C90 C 0.4549 0.78622 0.06262 0.0
C91 C 0.49495 0.84172 0.8543 0.0
N92 N 0.47763 0.7609 0.87071 0.0
C93 C 0.49256 0.79507 0.84043 0.0
C94 C 0.48907 0.8564 0.90105 0.0
Tb95 Tb 0.4369 0.69215 0.85051 0.0
N96 N 0.45692 0.67708 0.92969 0.0
C97 C 0.44905 0.62971 0.96243 0.0
C98 C 0.44106 0.68015 0.06259 0.0
C99 C 0.44048 0.62915 0.02544 0.0
H100 H 0.49736 0.78945 0.80346 0.0
H101 H 0.43541 0.595 0.04192 0.0
H102 H 0.45153 0.78827 0.10017 0.0
H103 H 0.49801 0.86765 0.82649 0.0
H104 H 0.45041 0.59523 0.94629 0.0
H105 H 0.52587 0.61417 0.60887 0.0
H106 H 0.43437 0.67601 0.10001 0.0
H107 H 0.50643 0.51833 0.89665 0.0
H108 H 0.52499 0.64912 0.68592 0.0
H109 H 0.48377 0.37828 0.87995 0.0
H110 H 0.4679 0.86306 0.05506 0.0
H111 H 0.5057 0.53096 0.59322 0.0
H112 H 0.46992 0.4439 0.61935 0.0
H113 H 0.4925 0.89438 0.90421 0.0
H114 H 0.46729 0.37269 0.6864 0.0
N115 N 0.50375 0.58772 0.72519 0.0
C116 C 0.51382 0.61275 0.68425 0.0
C117 C 0.50356 0.54449 0.62917 0.0
C118 C 0.48885 0.51517 0.66557 0.0
C119 C 0.51528 0.59201 0.63851 0.0
C120 C 0.49499 0.54131 0.72121 0.0
H121 H 0.47754 0.34722 0.79508 0.0
N122 N 0.50184 0.52869 0.81956 0.0
C123 C 0.48947 0.4057 0.85351 0.0
C124 C 0.49533 0.50855 0.77228 0.0
C125 C 0.50166 0.49738 0.86403 0.0
C126 C 0.48305 0.38483 0.80099 0.0
C127 C 0.48269 0.42089 0.75835 0.0
O128 O 0.5878 0.59921 0.82702 0.0
O129 O 0.51323 0.67354 0.85137 0.0
O130 O 0.46436 0.7198 0.78193 0.0
O131 O 0.53131 0.67616 0.7637 0.0
O132 O 0.54404 0.61408 0.87763 0.0
O133 O 0.5715 0.59266 0.75487 0.0
O134 O 0.3923 0.74336 0.81795 0.0
O135 O 0.44884 0.6489 0.78868 0.0
O136 O 0.45244 0.56752 0.83477 0.0
O137 O 0.4074 0.62279 0.87723 0.0
O138 O 0.38177 0.64949 0.81659 0.0
O139 O 0.38039 0.7263 0.88916 0.0
C140 C 0.53799 0.65855 0.88714 0.0
C141 C 0.64143 0.55026 0.78104 0.0
C142 C 0.71444 0.51101 0.7478 0.0
C143 C 0.67991 0.54893 0.74701 0.0
C144 C 0.70919 0.4761 0.78338 0.0
C145 C 0.63929 0.51409 0.81494 0.0
C146 C 0.67306 0.47814 0.81659 0.0
C147 C 0.50363 0.71352 0.75606 0.0
C148 C 0.60546 0.59025 0.78531 0.0
C149 C 0.47478 0.40836 0.69759 0.0
C150 C 0.4786 0.45356 0.65445 0.0
C151 C 0.40507 0.63718 0.77907 0.0
C152 C 0.35875 0.80746 0.86431 0.0
C153 C 0.32006 0.82815 0.8913 0.0
C154 C 0.31537 0.87954 0.89652 0.0
C155 C 0.35178 0.90733 0.87812 0.0
C156 C 0.3879 0.83953 0.84014 0.0
C157 C 0.38694 0.88766 0.85025 0.0
C158 C 0.41626 0.57756 0.86468 0.0
C159 C 0.36729 0.75431 0.8551 0.0
H160 H 0.68299 0.57695 0.72082 0.0
H161 H 0.7334 0.44634 0.7863 0.0
H162 H 0.61192 0.51484 0.84174 0.0
H163 H 0.67142 0.45107 0.84374 0.0
H164 H 0.29316 0.80501 0.90618 0.0
H165 H 0.35114 0.94508 0.88144 0.0
H166 H 0.41204 0.8276 0.81291 0.0
H167 H 0.41306 0.91036 0.83532 0.0
Tb168 Tb 0.53317 0.10946 0.74469 0.0
C169 C 0.57599 0.27144 0.63245 0.0
C170 C 0.59806 0.23711 0.51179 0.0
C171 C 0.58313 0.332 0.51796 0.0
C172 C 0.58701 0.22964 0.60093 0.0
C173 C 0.57082 0.32401 0.60929 0.0
C174 C 0.59444 0.28622 0.48673 0.0
C175 C 0.5544 0.34172 0.69504 0.0
N176 N 0.57171 0.2609 0.67864 0.0
C177 C 0.55678 0.29507 0.70891 0.0
C178 C 0.56027 0.3564 0.6483 0.0
Tb179 Tb 0.61244 0.19215 0.69883 0.0
N180 N 0.59243 0.17708 0.61966 0.0
C181 C 0.60029 0.12971 0.58691 0.0
C182 C 0.60828 0.18015 0.48675 0.0
C183 C 0.60887 0.12915 0.5239 0.0
H184 H 0.55198 0.28945 0.74588 0.0
H185 H 0.61393 0.095 0.50743 0.0
H186 H 0.59781 0.28827 0.44918 0.0
H187 H 0.55133 0.36765 0.72285 0.0
H188 H 0.59893 0.09523 0.60305 0.0
H189 H 0.52348 0.11417 0.94047 0.0
H190 H 0.61497 0.17601 0.44933 0.0
H191 H 0.54291 1.01833 0.65269 0.0
H192 H 0.52435 0.14912 0.86343 0.0
H193 H 0.56558 0.87828 0.66939 0.0
H194 H 0.58144 0.36306 0.49428 0.0
H195 H 0.54364 0.03096 0.95612 0.0
H196 H 0.57943 0.9439 0.93 0.0
H197 H 0.55684 0.39438 0.64513 0.0
H198 H 0.58206 0.87269 0.86294 0.0
N199 N 0.54559 0.08772 0.82415 0.0
C200 C 0.53553 0.11275 0.8651 0.0
C201 C 0.54578 0.04449 0.92018 0.0
C202 C 0.5605 1.01517 0.88377 0.0
C203 C 0.53407 0.09201 0.91083 0.0
C204 C 0.55435 0.04131 0.82813 0.0
H205 H 0.57181 0.84722 0.75426 0.0
N206 N 0.54751 0.02869 0.72978 0.0
C207 C 0.55987 0.9057 0.69583 0.0
C208 C 0.55402 1.00855 0.77707 0.0
C209 C 0.54769 0.99738 0.68532 0.0
C210 C 0.56629 0.88483 0.74835 0.0
C211 C 0.56666 0.92089 0.79099 0.0
O212 O 0.46154 0.09921 0.72233 0.0
O213 O 0.53612 0.17354 0.69797 0.0
O214 O 0.58498 0.2198 0.76741 0.0
O215 O 0.51804 0.17616 0.78564 0.0
O216 O 0.5053 0.11408 0.67171 0.0
O217 O 0.47784 0.09266 0.79447 0.0
O218 O 0.65704 0.24336 0.7314 0.0
O219 O 0.6005 0.1489 0.76067 0.0
O220 O 0.5969 0.06752 0.71457 0.0
O221 O 0.64195 0.12279 0.67211 0.0
O222 O 0.66757 0.14949 0.73275 0.0
O223 O 0.66895 0.2263 0.66018 0.0
C224 C 0.51135 0.15855 0.6622 0.0
C225 C 0.40791 0.05026 0.7683 0.0
C226 C 0.3349 1.01101 0.80154 0.0
C227 C 0.36943 0.04893 0.80233 0.0
C228 C 0.34016 0.9761 0.76596 0.0
C229 C 0.41006 1.01409 0.7344 0.0
C230 C 0.37628 0.97814 0.73275 0.0
C231 C 0.54571 0.21352 0.79328 0.0
C232 C 0.44389 0.09025 0.76403 0.0
C233 C 0.57456 0.90836 0.85175 0.0
C234 C 0.57075 0.95356 0.89489 0.0
C235 C 0.64427 0.13718 0.77027 0.0
C236 C 0.69059 0.30746 0.68503 0.0
C237 C 0.72928 0.32815 0.65805 0.0
C238 C 0.73397 0.37954 0.65282 0.0
C239 C 0.69756 0.40733 0.67122 0.0
C240 C 0.66144 0.33953 0.7092 0.0
C241 C 0.6624 0.38766 0.69909 0.0
C242 C 0.63308 0.07756 0.68466 0.0
C243 C 0.68206 0.25431 0.69424 0.0
H244 H 0.36635 0.07695 0.82852 0.0
H245 H 0.31595 0.94634 0.76304 0.0
H246 H 0.43742 1.01484 0.7076 0.0
H247 H 0.37792 0.95107 0.7056 0.0
H248 H 0.75618 0.30501 0.64316 0.0
H249 H 0.6982 0.44508 0.66791 0.0
H250 H 0.63731 0.3276 0.73643 0.0
H251 H 0.63628 0.41036 0.71402 0.0
Tb252 Tb 1.01617 0.93988 0.24469 0.0
C253 C 0.97336 0.77791 0.13245 0.0
C254 C 0.95129 0.81223 1.01179 0.0
C255 C 0.96622 0.71734 1.01796 0.0
C256 C 0.96234 0.8197 0.10093 0.0
C257 C 0.97852 0.72534 0.10929 0.0
C258 C 0.9549 0.76313 0.98673 0.0
C259 C 0.99495 0.70763 0.19504 0.0
N260 N 0.97763 0.78844 0.17864 0.0
C261 C 0.99256 0.75428 0.20891 0.0
C262 C 0.98907 0.69295 0.1483 0.0
Tb263 Tb 0.9369 0.85719 0.19883 0.0
N264 N 0.95692 0.87227 0.11966 0.0
C265 C 0.94905 0.91964 0.08691 0.0
C266 C 0.94106 0.86919 0.98675 0.0
C267 C 0.94048 0.9202 1.0239 0.0
H268 H 0.99736 0.7599 0.24588 0.0
H269 H 0.93541 0.95435 1.00743 0.0
H270 H 0.95153 0.76107 0.94918 0.0
H271 H 0.99801 0.6817 0.22285 0.0
H272 H 0.95041 0.95412 0.10305 0.0
H273 H 0.02587 0.93518 0.44047 0.0
H274 H 0.93437 0.87333 0.94933 0.0
H275 H 1.00643 0.03102 0.15269 0.0
H276 H 0.02499 0.90022 0.36343 0.0
H277 H 0.98377 0.17106 0.1694 0.0
H278 H 0.9679 0.68629 0.99428 0.0
H279 H 1.0057 1.01838 0.45612 0.0
H280 H 0.96992 0.10545 0.43 0.0
H281 H 0.9925 0.65496 0.14513 0.0
H282 H 0.96729 0.17666 0.36294 0.0
N283 N 1.00375 0.96163 0.32415 0.0
C284 C 1.01382 0.9366 0.3651 0.0
C285 C 1.00356 1.00486 0.42018 0.0
C286 C 0.98885 0.03418 0.38377 0.0
C287 C 1.01528 0.95733 0.41083 0.0
C288 C 0.99499 1.00804 0.32813 0.0
H289 H 0.97754 0.20212 0.25426 0.0
N290 N 1.00184 1.02066 0.22978 0.0
C291 C 0.98947 0.14365 0.19583 0.0
C292 C 0.99533 0.04079 0.27707 0.0
C293 C 1.00166 0.05197 0.18532 0.0
C294 C 0.98305 0.16452 0.24835 0.0
C295 C 0.98269 0.12846 0.29099 0.0
O296 O 0.0878 0.95013 0.22233 0.0
O297 O 1.01323 0.87581 0.19797 0.0
O298 O 0.96436 0.82954 0.26741 0.0
O299 O 0.03131 0.87318 0.28564 0.0
O300 O 0.04404 0.93527 0.17171 0.0
O301 O 0.0715 0.95668 0.29447 0.0
O302 O 0.8923 0.80599 0.2314 0.0
O303 O 0.94884 0.90044 0.26067 0.0
O304 O 0.95244 0.98183 0.21457 0.0
O305 O 0.9074 0.92656 0.17211 0.0
O306 O 0.88177 0.89986 0.23275 0.0
O307 O 0.88039 0.82305 0.16018 0.0
C308 C 0.03799 0.8908 0.1622 0.0
C309 C 0.14143 0.99909 0.2683 0.0
C310 C 0.21444 0.03834 0.30154 0.0
C311 C 0.17991 1.00042 0.30233 0.0
C312 C 0.20919 0.07324 0.26596 0.0
C313 C 0.13929 0.03526 0.2344 0.0
C314 C 0.17306 0.07121 0.23275 0.0
C315 C 1.00363 0.83583 0.29328 0.0
C316 C 0.10546 0.9591 0.26403 0.0
C317 C 0.97478 0.14099 0.35175 0.0
C318 C 0.9786 0.09579 0.39489 0.0
C319 C 0.90507 0.91216 0.27027 0.0
C320 C 0.85875 0.74188 0.18503 0.0
C321 C 0.82006 0.72119 0.15805 0.0
C322 C 0.81537 0.66981 0.15282 0.0
C323 C 0.85178 0.64202 0.17122 0.0
C324 C 0.8879 0.70982 0.2092 0.0
C325 C 0.88694 0.66169 0.19909 0.0
C326 C 0.91626 0.97178 0.18466 0.0
C327 C 0.86729 0.79503 0.19424 0.0
H328 H 0.18299 0.9724 0.32852 0.0
H329 H 0.2334 0.10301 0.26304 0.0
H330 H 0.11192 0.03451 0.2076 0.0
H331 H 0.17142 0.09827 0.2056 0.0
H332 H 0.79316 0.74434 0.14316 0.0
H333 H 0.85114 0.60427 0.16791 0.0
H334 H 0.91204 0.72175 0.23643 0.0
H335 H 0.91306 0.63899 0.21402 0.0
Tb336 Tb 0.30464 0.03318 0.43988 0.0
C337 C 0.4169 0.07599 0.2779 0.0
C338 C 0.53756 0.09806 0.31223 0.0
C339 C 0.53139 0.08314 0.21734 0.0
C340 C 0.44842 0.08701 0.3197 0.0
C341 C 0.44006 0.07082 0.22534 0.0
C342 C 0.56262 0.09445 0.26312 0.0
C343 C 0.35431 0.0544 0.20763 0.0
N344 N 0.37071 0.07172 0.28844 0.0
C345 C 0.34044 0.05679 0.25428 0.0
C346 C 0.40105 0.06027 0.19294 0.0
Tb347 Tb 0.35051 0.11245 0.35719 0.0
N348 N 0.42969 0.09243 0.37226 0.0
C349 C 0.46244 0.1003 0.41963 0.0
C350 C 0.5626 0.10829 0.36919 0.0
C351 C 0.52544 0.10887 0.4202 0.0
H352 H 0.30347 0.052 0.25989 0.0
H353 H 0.54192 0.11394 0.45434 0.0
H354 H 0.60017 0.09785 0.26107 0.0
H355 H 0.3265 0.05134 0.18169 0.0
H356 H 0.44629 0.09893 0.45412 0.0
H357 H 0.10886 1.02348 0.43518 0.0
H358 H 0.60001 0.11498 0.37333 0.0
H359 H 0.39665 0.04291 0.53101 0.0
H360 H 0.18591 1.02435 0.40022 0.0
H361 H 0.37994 0.06557 0.67106 0.0
H362 H 0.55506 0.08145 0.18629 0.0
H363 H 0.09322 0.04365 0.51838 0.0
H364 H 0.11934 0.07943 0.60545 0.0
H365 H 0.40422 0.05684 0.15496 0.0
H366 H 0.18639 0.08205 0.67666 0.0
N367 N 0.22519 0.0456 0.46162 0.0
C368 C 0.18424 0.03553 0.43659 0.0
C369 C 0.12916 0.04579 0.50485 0.0
C370 C 0.16556 0.0605 0.53418 0.0
C371 C 0.13851 0.03407 0.45733 0.0
C372 C 0.22121 0.05436 0.50804 0.0
H373 H 0.29508 0.0718 0.70212 0.0
N374 N 0.31956 0.04751 0.52065 0.0
C375 C 0.35351 0.05987 0.64364 0.0
C376 C 0.27227 0.05402 0.54079 0.0
C377 C 0.36402 0.04769 0.55196 0.0
C378 C 0.30099 0.06629 0.66452 0.0
C379 C 0.25835 0.06666 0.62846 0.0
O380 O 0.32701 0.96155 0.45012 0.0
O381 O 0.35137 0.03612 0.37581 0.0
O382 O 0.28193 0.08498 0.32954 0.0
O383 O 0.2637 1.01803 0.37318 0.0
O384 O 0.37762 1.0053 0.43527 0.0
O385 O 0.25487 0.97785 0.45668 0.0
O386 O 0.31795 0.15704 0.30598 0.0
O387 O 0.28865 0.1005 0.40042 0.0
O388 O 0.33476 0.09691 0.48182 0.0
O389 O 0.37724 0.14194 0.42656 0.0
O390 O 0.31665 0.16763 0.39985 0.0
O391 O 0.38916 0.16894 0.32303 0.0
C392 C 0.38714 1.01135 0.3908 0.0
C393 C 0.28104 0.90791 0.49908 0.0
C394 C 0.2478 0.8349 0.53833 0.0
C395 C 0.24701 0.86944 0.5004 0.0
C396 C 0.28338 0.84016 0.57324 0.0
C397 C 0.31493 0.91006 0.53525 0.0
C398 C 0.31659 0.87628 0.5712 0.0
C399 C 0.25606 0.04571 0.33582 0.0
C400 C 0.28531 0.94389 0.45909 0.0
C401 C 0.19759 0.07456 0.64098 0.0
C402 C 0.15444 0.07075 0.59578 0.0
C403 C 0.27914 0.1443 0.41209 0.0
C404 C 0.36431 0.19059 0.24187 0.0
C405 C 0.39129 0.22928 0.22118 0.0
C406 C 0.39652 0.23397 0.1698 0.0
C407 C 0.37812 0.19756 0.14201 0.0
C408 C 0.34014 0.16144 0.20981 0.0
C409 C 0.35025 0.1624 0.16167 0.0
C410 C 0.36468 0.13308 0.47178 0.0
C411 C 0.3551 0.18205 0.29502 0.0
H412 H 0.22081 0.86635 0.47239 0.0
H413 H 0.2863 0.81595 0.603 0.0
H414 H 0.34173 0.93743 0.5345 0.0
H415 H 0.34374 0.87793 0.59826 0.0
H416 H 0.40619 0.25618 0.24433 0.0
H417 H 0.38143 0.1982 0.10426 0.0
H418 H 0.3129 0.13731 0.22174 0.0
H419 H 0.33532 0.13628 0.13898 0.0
Tb420 Tb 0.2447 1.01617 0.93988 0.0
C421 C 0.13245 0.97336 0.7779 0.0
C422 C 1.01178 0.95128 0.81223 0.0
C423 C 1.01795 0.96621 0.71734 0.0
C424 C 0.10092 0.96234 0.8197 0.0
C425 C 0.10929 0.97852 0.72534 0.0
C426 C 0.98672 0.95489 0.76312 0.0
C427 C 0.19504 0.99495 0.70763 0.0
N428 N 0.17863 0.97763 0.78844 0.0
C429 C 0.2089 0.99256 0.75428 0.0
C430 C 0.14829 0.98907 0.69294 0.0
Tb431 Tb 0.19883 0.9369 0.85719 0.0
N432 N 0.11965 0.95692 0.87226 0.0
C433 C 0.08691 0.94905 0.91963 0.0
C434 C 0.98675 0.94106 0.86919 0.0
C435 C 1.0239 0.94047 0.9202 0.0
H436 H 0.24588 0.99735 0.75989 0.0
H437 H 1.00743 0.93541 0.95434 0.0
H438 H 0.94917 0.9515 0.76107 0.0
H439 H 0.22284 0.99801 0.68169 0.0
H440 H 0.10305 0.95042 0.95412 0.0
H441 H 0.44048 0.02587 0.93518 0.0
H442 H 0.94933 0.93437 0.87333 0.0
H443 H 0.1527 1.00643 0.03101 0.0
H444 H 0.36343 0.02499 0.90022 0.0
H445 H 0.1694 0.98377 0.17106 0.0
H446 H 0.99428 0.96789 0.68629 0.0
H447 H 0.45612 1.0057 1.01838 0.0
H448 H 0.43 0.96992 0.10545 0.0
H449 H 0.14512 0.99251 0.65496 0.0
H450 H 0.36295 0.96729 0.17666 0.0
N451 N 0.32416 1.00375 0.96162 0.0
C452 C 0.3651 1.01382 0.93659 0.0
C453 C 0.42018 1.00356 1.00485 0.0
C454 C 0.38378 0.98884 0.03418 0.0
C455 C 0.41084 1.01528 0.95733 0.0
C456 C 0.32814 0.99498 1.00804 0.0
H457 H 0.25427 0.97754 0.20212 0.0
N458 N 0.22978 1.00183 1.02065 0.0
C459 C 0.19583 0.98948 0.14364 0.0
C460 C 0.27707 0.99532 0.04079 0.0
C461 C 0.18532 1.00165 0.05196 0.0
C462 C 0.24835 0.98306 0.16452 0.0
C463 C 0.291 0.98269 0.12846 0.0
O464 O 0.22234 0.0878 0.95012 0.0
O465 O 0.19797 1.01322 0.87581 0.0
O466 O 0.26741 0.96437 0.82954 0.0
O467 O 0.28565 0.03131 0.87318 0.0
O468 O 0.17172 0.04404 0.93527 0.0
O469 O 0.29448 0.07149 0.95668 0.0
O470 O 0.2314 0.89231 0.80598 0.0
O471 O 0.26069 0.94885 0.90042 0.0
O472 O 0.21458 0.95243 0.98182 0.0
O473 O 0.17211 0.90741 0.92656 0.0
O474 O 0.23269 0.88171 0.89985 0.0
O475 O 0.16018 0.8804 0.82303 0.0
C476 C 0.1622 0.03799 0.8908 0.0
C477 C 0.26831 0.14143 0.99908 0.0
C478 C 0.30154 0.21445 0.03833 0.0
C479 C 0.30233 0.17991 1.0004 0.0
C480 C 0.26597 0.20918 0.07324 0.0
C481 C 0.23441 0.13929 0.03525 0.0
C482 C 0.23275 0.17306 0.0712 0.0
C483 C 0.29328 1.00364 0.83582 0.0
C484 C 0.26404 0.10545 0.95909 0.0
C485 C 0.35175 0.97478 0.14098 0.0
C486 C 0.3949 0.9786 0.09578 0.0
C487 C 0.2702 0.90505 0.91209 0.0
C488 C 0.18504 0.85876 0.74187 0.0
C489 C 0.15805 0.82007 0.72118 0.0
C490 C 0.15283 0.81538 0.6698 0.0
C491 C 0.17123 0.85179 0.64201 0.0
C492 C 0.20921 0.88791 0.70981 0.0
C493 C 0.1991 0.88694 0.66167 0.0
C494 C 0.18466 0.91626 0.97178 0.0
C495 C 0.19424 0.86729 0.79502 0.0
H496 H 0.32853 0.18299 0.97239 0.0
H497 H 0.26304 0.2334 0.103 0.0
H498 H 0.20761 0.11192 0.0345 0.0
H499 H 0.2056 0.17142 0.09826 0.0
H500 H 0.14316 0.79317 0.74433 0.0
H501 H 0.16791 0.85114 0.60426 0.0
H502 H 0.23644 0.91204 0.72174 0.0
H503 H 0.21403 0.91306 0.63898 0.0
Tb504 Tb 0.80464 0.51617 0.60946 0.0
C505 C 0.9169 0.47336 0.77144 0.0
C506 C 0.03756 0.45128 0.73711 0.0
C507 C 0.03139 0.46621 0.832 0.0
C508 C 0.94842 0.46234 0.72964 0.0
C509 C 0.94006 0.47852 0.824 0.0
C510 C 0.06262 0.45489 0.78622 0.0
C511 C 0.85431 0.49495 0.84172 0.0
N512 N 0.87071 0.47763 0.7609 0.0
C513 C 0.84044 0.49256 0.79506 0.0
C514 C 0.90105 0.48907 0.8564 0.0
Tb515 Tb 0.85051 0.4369 0.69215 0.0
N516 N 0.92969 0.45692 0.67708 0.0
C517 C 0.96244 0.44905 0.62971 0.0
C518 C 0.0626 0.44106 0.68015 0.0
C519 C 0.02544 0.44047 0.62915 0.0
H520 H 0.80347 0.49735 0.78945 0.0
H521 H 0.04192 0.43541 0.595 0.0
H522 H 0.10017 0.4515 0.78827 0.0
H523 H 0.8265 0.49801 0.86765 0.0
H524 H 0.94629 0.45042 0.59523 0.0
H525 H 0.60886 0.52587 0.61416 0.0
H526 H 0.10001 0.43437 0.67601 0.0
H527 H 0.89665 0.50643 0.51833 0.0
H528 H 0.68591 0.52499 0.64912 0.0
H529 H 0.87994 0.48377 0.37829 0.0
H530 H 0.05506 0.46789 0.86305 0.0
H531 H 0.59322 0.5057 0.53096 0.0
H532 H 0.61934 0.46992 0.4439 0.0
H533 H 0.90422 0.49251 0.89438 0.0
H534 H 0.68639 0.46729 0.37269 0.0
N535 N 0.72519 0.50375 0.58772 0.0
C536 C 0.68424 0.51382 0.61275 0.0
C537 C 0.62916 0.50356 0.54449 0.0
C538 C 0.66556 0.48884 0.51517 0.0
C539 C 0.63851 0.51528 0.59201 0.0
C540 C 0.72121 0.49498 0.54131 0.0
H541 H 0.79508 0.47754 0.34722 0.0
N542 N 0.81956 0.50183 0.52869 0.0
C543 C 0.85351 0.48948 0.4057 0.0
C544 C 0.77227 0.49532 0.50855 0.0
C545 C 0.86402 0.50165 0.49738 0.0
C546 C 0.80099 0.48306 0.38483 0.0
C547 C 0.75835 0.48269 0.42089 0.0
O548 O 0.82701 0.5878 0.59922 0.0
O549 O 0.85137 0.51322 0.67353 0.0
O550 O 0.78193 0.46437 0.7198 0.0
O551 O 0.7637 0.53131 0.67617 0.0
O552 O 0.87762 0.54404 0.61407 0.0
O553 O 0.75487 0.57149 0.59266 0.0
O554 O 0.81795 0.39231 0.74336 0.0
O555 O 0.78865 0.44885 0.64893 0.0
O556 O 0.83476 0.45243 0.56752 0.0
O557 O 0.87724 0.40741 0.62278 0.0
O558 O 0.81665 0.38171 0.64949 0.0
O559 O 0.88916 0.3804 0.72631 0.0
C560 C 0.88714 0.53799 0.65855 0.0
C561 C 0.78104 0.64143 0.55026 0.0
C562 C 0.7478 0.71445 0.51101 0.0
C563 C 0.74701 0.67991 0.54894 0.0
C564 C 0.78338 0.70918 0.47611 0.0
C565 C 0.81493 0.63929 0.51409 0.0
C566 C 0.81659 0.67306 0.47814 0.0
C567 C 0.75606 0.50364 0.71352 0.0
C568 C 0.78531 0.60545 0.59025 0.0
C569 C 0.69759 0.47478 0.40836 0.0
C570 C 0.65444 0.4786 0.45356 0.0
C571 C 0.77914 0.40505 0.63725 0.0
C572 C 0.86431 0.35876 0.80747 0.0
C573 C 0.89129 0.32007 0.82816 0.0
C574 C 0.89652 0.31538 0.87955 0.0
C575 C 0.87812 0.35179 0.90734 0.0
C576 C 0.84014 0.38791 0.83953 0.0
C577 C 0.85025 0.38694 0.88767 0.0
C578 C 0.86468 0.41626 0.57756 0.0
C579 C 0.8551 0.36729 0.75432 0.0
H580 H 0.72081 0.68299 0.57695 0.0
H581 H 0.7863 0.7334 0.44634 0.0
H582 H 0.84173 0.61192 0.51484 0.0
H583 H 0.84374 0.67142 0.45108 0.0
H584 H 0.90619 0.29317 0.80502 0.0
H585 H 0.88143 0.35114 0.94508 0.0
H586 H 0.8129 0.41204 0.8276 0.0
H587 H 0.83532 0.41306 0.91037 0.0
Tb588 Tb 0.7447 0.53318 0.10946 0.0
C589 C 0.63245 0.57599 0.27144 0.0
C590 C 0.51178 0.59806 0.23711 0.0
C591 C 0.51795 0.58314 0.332 0.0
C592 C 0.60092 0.58701 0.22964 0.0
C593 C 0.60929 0.57082 0.324 0.0
C594 C 0.48672 0.59445 0.28622 0.0
C595 C 0.69504 0.5544 0.34172 0.0
N596 N 0.67863 0.57172 0.2609 0.0
C597 C 0.7089 0.55679 0.29506 0.0
C598 C 0.64829 0.56027 0.3564 0.0
Tb599 Tb 0.69884 0.61245 0.19215 0.0
N600 N 0.61965 0.59243 0.17708 0.0
C601 C 0.58691 0.6003 0.12971 0.0
C602 C 0.48675 0.60829 0.18015 0.0
C603 C 0.5239 0.60887 0.12915 0.0
H604 H 0.74588 0.552 0.28945 0.0
H605 H 0.50743 0.61394 0.095 0.0
H606 H 0.44917 0.59785 0.28827 0.0
H607 H 0.72284 0.55134 0.36765 0.0
H608 H 0.60305 0.59893 0.09523 0.0
H609 H 0.94048 0.52348 0.11416 0.0
H610 H 0.44933 0.61498 0.17601 0.0
H611 H 0.6527 0.54291 1.01833 0.0
H612 H 0.86343 0.52435 0.14912 0.0
H613 H 0.6694 0.56557 0.87829 0.0
H614 H 0.49428 0.58145 0.36305 0.0
H615 H 0.95612 0.54365 0.03096 0.0
H616 H 0.93 0.57943 0.9439 0.0
H617 H 0.64512 0.55684 0.39438 0.0
H618 H 0.86295 0.58205 0.87269 0.0
N619 N 0.82416 0.5456 0.08772 0.0
C620 C 0.8651 0.53553 0.11275 0.0
C621 C 0.92018 0.54579 0.04449 0.0
C622 C 0.88378 0.5605 1.01517 0.0
C623 C 0.91084 0.53407 0.09201 0.0
C624 C 0.82814 0.55436 0.04131 0.0
H625 H 0.75427 0.5718 0.84722 0.0
N626 N 0.72978 0.54751 0.02869 0.0
C627 C 0.69583 0.55987 0.9057 0.0
C628 C 0.77707 0.55402 1.00855 0.0
C629 C 0.68532 0.54769 0.99738 0.0
C630 C 0.74835 0.56629 0.88483 0.0
C631 C 0.791 0.56666 0.92089 0.0
O632 O 0.72234 0.46155 0.09922 0.0
O633 O 0.69797 0.53612 0.17353 0.0
O634 O 0.76741 0.58498 0.2198 0.0
O635 O 0.78565 0.51803 0.17617 0.0
O636 O 0.67172 0.5053 0.11407 0.0
O637 O 0.79448 0.47785 0.09266 0.0
O638 O 0.7314 0.65704 0.24336 0.0
O639 O 0.76069 0.6005 0.14893 0.0
O640 O 0.71458 0.59691 0.06752 0.0
O641 O 0.67211 0.64194 0.12278 0.0
O642 O 0.73269 0.66763 0.14949 0.0
O643 O 0.66018 0.66894 0.22631 0.0
C644 C 0.6622 0.51135 0.15855 0.0
C645 C 0.76831 0.40791 0.05026 0.0
C646 C 0.80154 0.3349 1.01101 0.0
C647 C 0.80233 0.36944 0.04894 0.0
C648 C 0.76597 0.34016 0.97611 0.0
C649 C 0.73441 0.41006 1.01409 0.0
C650 C 0.73275 0.37628 0.97814 0.0
C651 C 0.79328 0.54571 0.21352 0.0
C652 C 0.76404 0.44389 0.09025 0.0
C653 C 0.85175 0.57456 0.90836 0.0
C654 C 0.8949 0.57075 0.95356 0.0
C655 C 0.7702 0.6443 0.13725 0.0
C656 C 0.68504 0.69059 0.30747 0.0
C657 C 0.65805 0.72928 0.32816 0.0
C658 C 0.65283 0.73397 0.37955 0.0
C659 C 0.67123 0.69756 0.40734 0.0
C660 C 0.70921 0.66144 0.33953 0.0
C661 C 0.6991 0.6624 0.38767 0.0
C662 C 0.68466 0.63308 0.07756 0.0
C663 C 0.69424 0.68205 0.25432 0.0
H664 H 0.82853 0.36635 0.07695 0.0
H665 H 0.76304 0.31595 0.94634 0.0
H666 H 0.70761 0.43743 1.01484 0.0
H667 H 0.7056 0.37793 0.95108 0.0
H668 H 0.64316 0.75618 0.30502 0.0
H669 H 0.66791 0.6982 0.44508 0.0
H670 H 0.73644 0.63731 0.3276 0.0
H671 H 0.71403 0.63628 0.41037 0.0
Tb672 Tb 0.43988 0.30465 0.03317 0.0
C673 C 0.2779 0.41689 0.07599 0.0
C674 C 0.31223 0.53756 0.09806 0.0
C675 C 0.21734 0.53139 0.08313 0.0
C676 C 0.3197 0.44842 0.08701 0.0
C677 C 0.22533 0.44006 0.07082 0.0
C678 C 0.26312 0.56262 0.09444 0.0
C679 C 0.20762 0.3543 0.05441 0.0
N680 N 0.28843 0.37071 0.07172 0.0
C681 C 0.25427 0.34044 0.0568 0.0
C682 C 0.19294 0.40105 0.06028 0.0
Tb683 Tb 0.35719 0.35051 0.11244 0.0
N684 N 0.37226 0.42969 0.09242 0.0
C685 C 0.41963 0.46244 0.10029 0.0
C686 C 0.36919 0.5626 0.10828 0.0
C687 C 0.42019 0.52545 0.10887 0.0
H688 H 0.25988 0.30346 0.05201 0.0
H689 H 0.45434 0.54192 0.11393 0.0
H690 H 0.26107 0.60017 0.09783 0.0
H691 H 0.18168 0.3265 0.05134 0.0
H692 H 0.45411 0.44629 0.09893 0.0
H693 H 0.43518 0.10887 1.02347 0.0
H694 H 0.37333 0.60001 0.11497 0.0
H695 H 0.53102 0.39665 0.04291 0.0
H696 H 0.40022 0.18591 1.02435 0.0
H697 H 0.67106 0.37995 0.06557 0.0
H698 H 0.18628 0.55506 0.08145 0.0
H699 H 0.51838 0.09322 0.04365 0.0
H700 H 0.60545 0.11935 0.07943 0.0
H701 H 0.15496 0.40422 0.05684 0.0
H702 H 0.67666 0.1864 0.08205 0.0
N703 N 0.46162 0.22519 0.0456 0.0
C704 C 0.43659 0.18424 0.03552 0.0
C705 C 0.50485 0.12917 0.04579 0.0
C706 C 0.53418 0.16557 0.06051 0.0
C707 C 0.45733 0.13851 0.03407 0.0
C708 C 0.50804 0.22121 0.05436 0.0
H709 H 0.70212 0.29508 0.0718 0.0
N710 N 0.52065 0.31956 0.04751 0.0
C711 C 0.64365 0.35352 0.05987 0.0
C712 C 0.54079 0.27228 0.05402 0.0
C713 C 0.55196 0.36403 0.04769 0.0
C714 C 0.66452 0.301 0.06629 0.0
C715 C 0.62846 0.25835 0.06666 0.0
O716 O 0.45012 0.32701 0.96154 0.0
O717 O 0.37581 0.35137 0.03612 0.0
O718 O 0.32954 0.28194 0.08497 0.0
O719 O 0.37318 0.2637 1.01802 0.0
O720 O 0.43527 0.37763 1.0053 0.0
O721 O 0.45669 0.25487 0.97785 0.0
O722 O 0.306 0.31794 0.15705 0.0
O723 O 0.40042 0.28865 0.10049 0.0
O724 O 0.48182 0.33476 0.09691 0.0
O725 O 0.42656 0.37724 0.14194 0.0
O726 O 0.39985 0.31665 0.16763 0.0
O727 O 0.32303 0.38917 0.16893 0.0
C728 C 0.3908 0.38714 1.01135 0.0
C729 C 0.49908 0.28104 0.90791 0.0
C730 C 0.53834 0.2478 0.8349 0.0
C731 C 0.50042 0.24701 0.86943 0.0
C732 C 0.57324 0.28338 0.84016 0.0
C733 C 0.53525 0.31494 0.91005 0.0
C734 C 0.5712 0.3166 0.87628 0.0
C735 C 0.33582 0.25607 0.0457 0.0
C736 C 0.45909 0.28531 0.94389 0.0
C737 C 0.64099 0.1976 0.07456 0.0
C738 C 0.59579 0.15445 0.07075 0.0
C739 C 0.41209 0.27914 0.14429 0.0
C740 C 0.24188 0.36429 0.19059 0.0
C741 C 0.22118 0.3913 0.22926 0.0
C742 C 0.1698 0.39651 0.23394 0.0
C743 C 0.14201 0.37808 0.19754 0.0
C744 C 0.20982 0.3401 0.16145 0.0
C745 C 0.16169 0.35019 0.16241 0.0
C746 C 0.47178 0.36468 0.13308 0.0
C747 C 0.29503 0.3551 0.18205 0.0
H748 H 0.4724 0.22081 0.86635 0.0
H749 H 0.60301 0.28631 0.81594 0.0
H750 H 0.5345 0.34174 0.93742 0.0
H751 H 0.59827 0.34375 0.87792 0.0
H752 H 0.24432 0.40623 0.25615 0.0
H753 H 0.10426 0.38141 0.19817 0.0
H754 H 0.22176 0.31286 0.13732 0.0
H755 H 0.139 0.33524 0.1363 0.0
Tb756 Tb 0.93988 0.2447 1.01617 0.0
C757 C 0.7779 0.13245 0.97336 0.0
C758 C 0.81223 1.01179 0.95129 0.0
C759 C 0.71734 1.01796 0.96621 0.0
C760 C 0.8197 0.10093 0.96234 0.0
C761 C 0.72533 0.10929 0.97852 0.0
C762 C 0.76312 0.98672 0.9549 0.0
C763 C 0.70762 0.19504 0.99493 0.0
N764 N 0.78843 0.17864 0.97762 0.0
C765 C 0.75427 0.20891 0.99254 0.0
C766 C 0.69294 0.1483 0.98907 0.0
Tb767 Tb 0.85719 0.19884 0.9369 0.0
N768 N 0.87226 0.11966 0.95692 0.0
C769 C 0.91963 0.08691 0.94905 0.0
C770 C 0.86919 0.98675 0.94106 0.0
C771 C 0.92019 1.0239 0.94048 0.0
H772 H 0.75988 0.24589 0.99733 0.0
H773 H 0.95434 1.00743 0.93541 0.0
H774 H 0.76107 0.94917 0.95151 0.0
H775 H 0.68168 0.22285 0.998 0.0
H776 H 0.95411 0.10305 0.95042 0.0
H777 H 0.93518 0.44048 0.02587 0.0
H778 H 0.87333 0.94933 0.93437 0.0
H779 H 0.03102 0.15269 1.00643 0.0
H780 H 0.90022 0.36343 0.025 0.0
H781 H 0.17106 0.1694 0.98377 0.0
H782 H 0.68628 0.99428 0.9679 0.0
H783 H 1.01838 0.45612 1.00569 0.0
H784 H 0.10545 0.43 0.96991 0.0
H785 H 0.65496 0.14513 0.9925 0.0
H786 H 0.17666 0.36295 0.96729 0.0
N787 N 0.96162 0.32416 1.00375 0.0
C788 C 0.93659 0.3651 1.01382 0.0
C789 C 1.00485 0.42018 1.00355 0.0
C790 C 0.03418 0.38378 0.98884 0.0
C791 C 0.95733 0.41084 1.01527 0.0
C792 C 1.00804 0.32813 0.99498 0.0
H793 H 0.20212 0.25427 0.97754 0.0
N794 N 1.02065 0.22978 1.00183 0.0
C795 C 0.14365 0.19583 0.98947 0.0
C796 C 0.04079 0.27707 0.99532 0.0
C797 C 0.05196 0.18532 1.00165 0.0
C798 C 0.16452 0.24835 0.98305 0.0
C799 C 0.12846 0.291 0.98268 0.0
O800 O 0.95012 0.22234 0.0878 0.0
O801 O 0.87581 0.19797 1.01322 0.0
O802 O 0.82954 0.26741 0.96437 0.0
O803 O 0.87318 0.28565 0.03132 0.0
O804 O 0.93527 0.17172 0.04404 0.0
O805 O 0.95669 0.29448 0.07149 0.0
O806 O 0.806 0.23141 0.89229 0.0
O807 O 0.90042 0.2607 0.94885 0.0
O808 O 0.98182 0.21458 0.95243 0.0
O809 O 0.92656 0.17211 0.90741 0.0
O810 O 0.89985 0.2327 0.88172 0.0
O811 O 0.82303 0.16018 0.88041 0.0
C812 C 0.8908 0.1622 0.03799 0.0
C813 C 0.99908 0.26831 0.14143 0.0
C814 C 0.03834 0.30155 0.21444 0.0
C815 C 1.00041 0.30234 0.17991 0.0
C816 C 0.07324 0.26597 0.20919 0.0
C817 C 0.03525 0.23441 0.13929 0.0
C818 C 0.0712 0.23275 0.17307 0.0
C819 C 0.83582 0.29328 1.00364 0.0
C820 C 0.95909 0.26404 0.10545 0.0
C821 C 0.14099 0.35175 0.97478 0.0
C822 C 0.09579 0.3949 0.97859 0.0
C823 C 0.91209 0.27021 0.90505 0.0
C824 C 0.74188 0.18505 0.85876 0.0
C825 C 0.72118 0.15804 0.82008 0.0
C826 C 0.6698 0.15284 0.8154 0.0
C827 C 0.64201 0.17126 0.8518 0.0
C828 C 0.70982 0.20925 0.88789 0.0
C829 C 0.66169 0.19915 0.88693 0.0
C830 C 0.97178 0.18466 0.91626 0.0
C831 C 0.79503 0.19424 0.86729 0.0
H832 H 0.9724 0.32854 0.18299 0.0
H833 H 0.10301 0.26304 0.2334 0.0
H834 H 0.0345 0.20761 0.11192 0.0
H835 H 0.09827 0.2056 0.17142 0.0
H836 H 0.74432 0.14312 0.7932 0.0
H837 H 0.60426 0.16794 0.85117 0.0
H838 H 0.72176 0.23648 0.91202 0.0
H839 H 0.639 0.2141 0.91305 0.0
Tb840 Tb 0.60946 0.80465 0.51617 0.0
C841 C 0.77144 0.91689 0.47336 0.0
C842 C 0.73712 0.03756 0.45129 0.0
C843 C 0.83201 0.03139 0.46621 0.0
C844 C 0.72965 0.94842 0.46234 0.0
C845 C 0.82401 0.94006 0.47852 0.0
C846 C 0.78622 0.06262 0.4549 0.0
C847 C 0.84172 0.8543 0.49493 0.0
N848 N 0.76091 0.87071 0.47762 0.0
C849 C 0.79507 0.84044 0.49254 0.0
C850 C 0.8564 0.90105 0.48907 0.0
Tb851 Tb 0.69215 0.85051 0.4369 0.0
N852 N 0.67708 0.92969 0.45692 0.0
C853 C 0.62971 0.96244 0.44905 0.0
C854 C 0.68016 0.0626 0.44106 0.0
C855 C 0.62915 0.02545 0.44048 0.0
H856 H 0.78946 0.80346 0.49733 0.0
H857 H 0.595 0.04192 0.43541 0.0
H858 H 0.78828 0.10017 0.45151 0.0
H859 H 0.86766 0.8265 0.498 0.0
H860 H 0.59523 0.94629 0.45042 0.0
H861 H 0.61416 0.60887 0.52587 0.0
H862 H 0.67601 0.10001 0.43437 0.0
H863 H 0.51833 0.89665 0.50643 0.0
H864 H 0.64912 0.68591 0.525 0.0
H865 H 0.37829 0.87995 0.48377 0.0
H866 H 0.86306 0.05506 0.4679 0.0
H867 H 0.53096 0.59322 0.50569 0.0
H868 H 0.4439 0.61935 0.46991 0.0
H869 H 0.89439 0.90422 0.4925 0.0
H870 H 0.37269 0.6864 0.46729 0.0
N871 N 0.58772 0.72519 0.50375 0.0
C872 C 0.61275 0.68424 0.51382 0.0
C873 C 0.54449 0.62917 0.50355 0.0
C874 C 0.51517 0.66557 0.48884 0.0
C875 C 0.59201 0.63851 0.51527 0.0
C876 C 0.54131 0.72121 0.49498 0.0
H877 H 0.34723 0.79508 0.47754 0.0
N878 N 0.52869 0.81956 0.50183 0.0
C879 C 0.4057 0.85352 0.48947 0.0
C880 C 0.50856 0.77228 0.49532 0.0
C881 C 0.49738 0.86403 0.50165 0.0
C882 C 0.38483 0.801 0.48305 0.0
C883 C 0.42089 0.75835 0.48268 0.0
O884 O 0.59922 0.82701 0.5878 0.0
O885 O 0.67354 0.85137 0.51322 0.0
O886 O 0.7198 0.78194 0.46437 0.0
O887 O 0.67617 0.7637 0.53132 0.0
O888 O 0.61407 0.87763 0.54404 0.0
O889 O 0.59265 0.75487 0.57149 0.0
O890 O 0.74334 0.81794 0.39229 0.0
O891 O 0.64893 0.78865 0.44885 0.0
O892 O 0.56752 0.83476 0.45243 0.0
O893 O 0.62278 0.87724 0.40741 0.0
O894 O 0.64949 0.81665 0.38172 0.0
O895 O 0.72631 0.88917 0.38041 0.0
C896 C 0.65855 0.88714 0.53799 0.0
C897 C 0.55026 0.78104 0.64143 0.0
C898 C 0.511 0.7478 0.71444 0.0
C899 C 0.54893 0.74701 0.67991 0.0
C900 C 0.4761 0.78338 0.70919 0.0
C901 C 0.51409 0.81494 0.63929 0.0
C902 C 0.47814 0.8166 0.67307 0.0
C903 C 0.71352 0.75607 0.50364 0.0
C904 C 0.59025 0.78531 0.60545 0.0
C905 C 0.40836 0.6976 0.47478 0.0
C906 C 0.45356 0.65445 0.47859 0.0
C907 C 0.63725 0.77914 0.40505 0.0
C908 C 0.80746 0.86429 0.35876 0.0
C909 C 0.82816 0.8913 0.32008 0.0
C910 C 0.87955 0.89651 0.3154 0.0
C911 C 0.90733 0.87808 0.3518 0.0
C912 C 0.83952 0.8401 0.38789 0.0
C913 C 0.88766 0.85019 0.38693 0.0
C914 C 0.57756 0.86468 0.41626 0.0
C915 C 0.75431 0.8551 0.36729 0.0
H916 H 0.57694 0.72081 0.68299 0.0
H917 H 0.44634 0.78631 0.7334 0.0
H918 H 0.51484 0.84174 0.61192 0.0
H919 H 0.45108 0.84375 0.67142 0.0
H920 H 0.80502 0.90623 0.2932 0.0
H921 H 0.94508 0.88141 0.35117 0.0
H922 H 0.82758 0.81286 0.41202 0.0
H923 H 0.91035 0.83524 0.41304 0.0
Tb924 Tb 0.10946 0.7447 0.53317 0.0
C925 C 0.27144 0.63245 0.57599 0.0
C926 C 0.23712 0.51179 0.59806 0.0
C927 C 0.33201 0.51796 0.58313 0.0
C928 C 0.22965 0.60093 0.58701 0.0
C929 C 0.32401 0.60929 0.57082 0.0
C930 C 0.28622 0.48672 0.59444 0.0
C931 C 0.34172 0.69504 0.55441 0.0
N932 N 0.26091 0.67864 0.57172 0.0
C933 C 0.29507 0.70891 0.5568 0.0
C934 C 0.3564 0.6483 0.56028 0.0
Tb935 Tb 0.19215 0.69884 0.61244 0.0
N936 N 0.17708 0.61966 0.59242 0.0
C937 C 0.12971 0.58691 0.60029 0.0
C938 C 0.18016 0.48675 0.60828 0.0
C939 C 0.12915 0.5239 0.60887 0.0
H940 H 0.28946 0.74589 0.55201 0.0
H941 H 0.095 0.50743 0.61393 0.0
H942 H 0.28828 0.44917 0.59783 0.0
H943 H 0.36766 0.72285 0.55134 0.0
H944 H 0.09523 0.60305 0.59893 0.0
H945 H 0.11416 0.94048 0.52347 0.0
H946 H 0.17601 0.44933 0.61497 0.0
H947 H 1.01833 0.65269 0.54291 0.0
H948 H 0.14912 0.86343 0.52435 0.0
H949 H 0.87829 0.6694 0.56557 0.0
H950 H 0.36306 0.49428 0.58145 0.0
H951 H 0.03096 0.95612 0.54365 0.0
H952 H 0.9439 0.93 0.57943 0.0
H953 H 0.39439 0.64513 0.55684 0.0
H954 H 0.87269 0.86295 0.58205 0.0
N955 N 0.08772 0.82416 0.5456 0.0
C956 C 0.11275 0.8651 0.53552 0.0
C957 C 0.04449 0.92018 0.54579 0.0
C958 C 1.01517 0.88378 0.56051 0.0
C959 C 0.09201 0.91084 0.53407 0.0
C960 C 0.04131 0.82813 0.55436 0.0
H961 H 0.84723 0.75427 0.5718 0.0
N962 N 0.02869 0.72978 0.54751 0.0
C963 C 0.9057 0.69583 0.55987 0.0
C964 C 1.00856 0.77707 0.55402 0.0
C965 C 0.99738 0.68532 0.54769 0.0
C966 C 0.88483 0.74835 0.56629 0.0
C967 C 0.92089 0.791 0.56666 0.0
O968 O 0.09922 0.72234 0.46154 0.0
O969 O 0.17354 0.69797 0.53612 0.0
O970 O 0.2198 0.76741 0.58497 0.0
O971 O 0.17617 0.78565 0.51802 0.0
O972 O 0.11407 0.67172 0.5053 0.0
O973 O 0.09265 0.79448 0.47785 0.0
O974 O 0.24334 0.73141 0.65705 0.0
O975 O 0.14893 0.7607 0.60049 0.0
O976 O 0.06752 0.71458 0.59691 0.0
O977 O 0.12278 0.67211 0.64194 0.0
O978 O 0.14949 0.7327 0.66763 0.0
O979 O 0.22631 0.66018 0.66893 0.0
C980 C 0.15855 0.6622 0.51135 0.0
C981 C 0.05026 0.76831 0.40791 0.0
C982 C 1.011 0.80155 0.3349 0.0
C983 C 0.04893 0.80234 0.36943 0.0
C984 C 0.9761 0.76597 0.34016 0.0
C985 C 1.01409 0.73441 0.41005 0.0
C986 C 0.97814 0.73275 0.37628 0.0
C987 C 0.21352 0.79328 0.5457 0.0
C988 C 0.09025 0.76404 0.44389 0.0
C989 C 0.90836 0.85175 0.57456 0.0
C990 C 0.95356 0.8949 0.57075 0.0
C991 C 0.13725 0.77021 0.64429 0.0
C992 C 0.30746 0.68505 0.69059 0.0
C993 C 0.32816 0.65804 0.72926 0.0
C994 C 0.37955 0.65284 0.73394 0.0
C995 C 0.40733 0.67126 0.69754 0.0
C996 C 0.33952 0.70925 0.66145 0.0
C997 C 0.38766 0.69915 0.66241 0.0
C998 C 0.07756 0.68466 0.63308 0.0
C999 C 0.25431 0.69424 0.68205 0.0
H1000 H 0.07694 0.82854 0.36635 0.0
H1001 H 0.94634 0.76304 0.31594 0.0
H1002 H 1.01484 0.70761 0.43742 0.0
H1003 H 0.95108 0.7056 0.37792 0.0
H1004 H 0.30502 0.64312 0.75615 0.0
H1005 H 0.44508 0.66794 0.69817 0.0
H1006 H 0.32758 0.73649 0.63732 0.0
H1007 H 0.41035 0.7141 0.6363 0.0
Tb1008 Tb 0.93694 0.69213 0.69884 0.0
C1009 C 0.99532 0.50855 0.77707 0.0
C1010 C 0.98885 0.51517 0.88378 0.0
C1011 C 0.97478 0.40836 0.85176 0.0
C1012 C 0.99499 0.54131 0.82813 0.0
C1013 C 0.98268 0.42088 0.791 0.0
C1014 C 0.97859 0.45356 0.8949 0.0
C1015 C 0.98947 0.40569 0.69584 0.0
N1016 N 1.00184 0.52868 0.72978 0.0
C1017 C 1.00166 0.49736 0.68532 0.0
C1018 C 0.98305 0.38482 0.74836 0.0
Tb1019 Tb 1.01618 0.60945 0.74469 0.0
N1020 N 1.00369 0.58773 0.82415 0.0
C1021 C 1.01381 0.61275 0.86509 0.0
C1022 C 1.00353 0.54451 0.92018 0.0
C1023 C 1.01525 0.59202 0.91083 0.0
H1024 H 1.00644 0.51831 0.6527 0.0
H1025 H 0.02584 0.61418 0.94047 0.0
H1026 H 0.96997 0.44389 0.93001 0.0
H1027 H 0.98375 0.37827 0.66941 0.0
H1028 H 0.02497 0.64912 0.86342 0.0
H1029 H 0.93545 0.59499 0.50744 0.0
H1030 H 1.00565 0.53099 0.95613 0.0
H1031 H 0.9974 0.78943 0.74587 0.0
H1032 H 0.95045 0.59522 0.60307 0.0
H1033 H 0.99802 0.86764 0.72285 0.0
H1034 H 0.9673 0.37269 0.86296 0.0
H1035 H 0.93439 0.67599 0.44933 0.0
H1036 H 0.95154 0.78827 0.44918 0.0
H1037 H 0.97753 0.34722 0.75428 0.0
H1038 H 0.9679 0.86305 0.49428 0.0
N1039 N 0.95692 0.67709 0.61965 0.0
C1040 C 0.94907 0.6297 0.58692 0.0
C1041 C 0.94108 0.68014 0.48675 0.0
C1042 C 0.9513 0.73711 0.51178 0.0
C1043 C 0.94049 0.62914 0.52391 0.0
C1044 C 0.96234 0.72964 0.60092 0.0
H1045 H 0.99249 0.89438 0.64513 0.0
N1046 N 0.97765 0.7609 0.67863 0.0
C1047 C 0.99497 0.84171 0.69504 0.0
C1048 C 0.97336 0.77144 0.63245 0.0
C1049 C 0.99258 0.79506 0.7089 0.0
C1050 C 0.98907 0.85639 0.6483 0.0
C1051 C 0.97852 0.824 0.60929 0.0
O1052 O 0.89235 0.74334 0.73141 0.0
O1053 O 0.94886 0.6489 0.76079 0.0
O1054 O 0.95244 0.56752 0.71458 0.0
O1055 O 0.90742 0.6228 0.6721 0.0
O1056 O 0.88178 0.64953 0.7327 0.0
O1057 O 0.88044 0.72628 0.6602 0.0
O1058 O 0.08782 0.59923 0.72234 0.0
O1059 O 1.01325 0.67348 0.69803 0.0
O1060 O 0.9644 0.71979 0.76741 0.0
O1061 O 0.03135 0.67616 0.78563 0.0
O1062 O 0.04396 0.61404 0.67163 0.0
O1063 O 0.07149 0.59262 0.79447 0.0
C1064 C 0.90503 0.63726 0.77025 0.0
C1065 C 0.85877 0.80743 0.68506 0.0
C1066 C 0.81536 0.87949 0.65286 0.0
C1067 C 0.82005 0.82811 0.6581 0.0
C1068 C 0.85178 0.90729 0.67123 0.0
C1069 C 0.88792 0.8395 0.70921 0.0
C1070 C 0.88695 0.88763 0.69909 0.0
C1071 C 0.91627 0.57757 0.68466 0.0
C1072 C 0.86732 0.75429 0.69426 0.0
C1073 C 0.96622 0.832 0.51796 0.0
C1074 C 0.95491 0.78621 0.48672 0.0
C1075 C 0.03798 0.65855 0.66222 0.0
C1076 C 0.14144 0.55027 0.7683 0.0
C1077 C 0.17992 0.54895 0.80233 0.0
C1078 C 0.21445 0.51104 0.80154 0.0
C1079 C 0.2092 0.47612 0.76597 0.0
C1080 C 0.13929 0.51409 0.73441 0.0
C1081 C 0.17307 0.47815 0.73276 0.0
C1082 C 1.00367 0.71352 0.79327 0.0
C1083 C 0.10546 0.59025 0.76404 0.0
H1084 H 0.79314 0.80496 0.64323 0.0
H1085 H 0.85114 0.94503 0.6679 0.0
H1086 H 0.91206 0.82758 0.73644 0.0
H1087 H 0.91308 0.91034 0.71399 0.0
H1088 H 0.18299 0.57697 0.82852 0.0
H1089 H 0.23342 0.44636 0.76305 0.0
H1090 H 0.11192 0.51483 0.70762 0.0
H1091 H 0.17143 0.45107 0.70562 0.0
Tb1092 Tb 0.6124 0.35721 0.19884 0.0
C1093 C 0.55402 0.5408 0.27707 0.0
C1094 C 0.56049 0.53418 0.38378 0.0
C1095 C 0.57456 0.64099 0.35176 0.0
C1096 C 0.55436 0.50804 0.32813 0.0
C1097 C 0.56666 0.62846 0.291 0.0
C1098 C 0.57075 0.59579 0.3949 0.0
C1099 C 0.55987 0.64366 0.19584 0.0
N1100 N 0.54751 0.52067 0.22978 0.0
C1101 C 0.54769 0.55198 0.18532 0.0
C1102 C 0.56629 0.66453 0.24836 0.0
Tb1103 Tb 0.53317 0.4399 0.24469 0.0
N1104 N 0.54565 0.46162 0.32415 0.0
C1105 C 0.53553 0.4366 0.36509 0.0
C1106 C 0.54582 0.50484 0.42018 0.0
C1107 C 0.53409 0.45733 0.41083 0.0
H1108 H 0.54291 0.53104 0.1527 0.0
H1109 H 0.52351 0.43517 0.44047 0.0
H1110 H 0.57937 0.60546 0.43001 0.0
H1111 H 0.56559 0.67108 0.16941 0.0
H1112 H 0.52437 0.40022 0.36342 0.0
H1113 H 0.6139 0.45436 1.00744 0.0
H1114 H 0.54369 0.51836 0.45613 0.0
H1115 H 0.55194 0.25992 0.24587 0.0
H1116 H 0.59889 0.45412 0.10307 0.0
H1117 H 0.55133 0.18171 0.22285 0.0
H1118 H 0.58204 0.67666 0.36296 0.0
H1119 H 0.61495 0.37335 0.94933 0.0
H1120 H 0.5978 0.26108 0.94918 0.0
H1121 H 0.57181 0.70213 0.25428 0.0
H1122 H 0.58144 0.18629 0.99428 0.0
N1123 N 0.59242 0.37226 0.11965 0.0
C1124 C 0.60027 0.41964 0.08692 0.0
C1125 C 0.60827 0.36921 0.98675 0.0
C1126 C 0.59805 0.31224 1.01178 0.0
C1127 C 0.60885 0.42021 1.02391 0.0
C1128 C 0.587 0.3197 0.10092 0.0
H1129 H 0.55686 0.15497 0.14513 0.0
N1130 N 0.5717 0.28845 0.17863 0.0
C1131 C 0.55438 0.20764 0.19504 0.0
C1132 C 0.57598 0.27791 0.13245 0.0
C1133 C 0.55677 0.25429 0.2089 0.0
C1134 C 0.56027 0.19295 0.1483 0.0
C1135 C 0.57082 0.22535 0.10929 0.0
O1136 O 0.65699 0.30601 0.23141 0.0
O1137 O 0.60048 0.40045 0.26079 0.0
O1138 O 0.59691 0.48182 0.21458 0.0
O1139 O 0.64192 0.42655 0.1721 0.0
O1140 O 0.66757 0.39981 0.2327 0.0
O1141 O 0.66891 0.32307 0.1602 0.0
O1142 O 0.46153 0.45011 0.22234 0.0
O1143 O 0.5361 0.37587 0.19803 0.0
O1144 O 0.58494 0.32955 0.26741 0.0
O1145 O 0.51799 0.37319 0.28563 0.0
O1146 O 0.50539 0.43531 0.17163 0.0
O1147 O 0.47785 0.45673 0.29447 0.0
C1148 C 0.64431 0.41209 0.27025 0.0
C1149 C 0.69058 0.24192 0.18506 0.0
C1150 C 0.73399 0.16986 0.15286 0.0
C1151 C 0.7293 0.22124 0.1581 0.0
C1152 C 0.69756 0.14206 0.17123 0.0
C1153 C 0.66142 0.20984 0.20921 0.0
C1154 C 0.66239 0.16172 0.19909 0.0
C1155 C 0.63307 0.47177 0.18466 0.0
C1156 C 0.68202 0.29506 0.19426 0.0
C1157 C 0.58313 0.21735 1.01796 0.0
C1158 C 0.59443 0.26313 0.98672 0.0
C1159 C 0.51136 0.3908 0.16222 0.0
C1160 C 0.4079 0.49908 0.2683 0.0
C1161 C 0.36943 0.50039 0.30233 0.0
C1162 C 0.33489 0.53831 0.30154 0.0
C1163 C 0.34014 0.57322 0.26597 0.0
C1164 C 0.41005 0.53526 0.23441 0.0
C1165 C 0.37627 0.5712 0.23276 0.0
C1166 C 0.54567 0.33583 0.29327 0.0
C1167 C 0.44388 0.4591 0.26404 0.0
H1168 H 0.75621 0.24439 0.14323 0.0
H1169 H 0.6982 0.10431 0.1679 0.0
H1170 H 0.63728 0.22176 0.23644 0.0
H1171 H 0.63626 0.13901 0.21399 0.0
H1172 H 0.36635 0.47237 0.32852 0.0
H1173 H 0.31593 0.60299 0.26305 0.0
H1174 H 0.43742 0.53451 0.20762 0.0
H1175 H 0.37791 0.59827 0.20562 0.0
Tb1176 Tb 0.43694 0.85721 0.3505 0.0
C1177 C 0.49532 0.0408 0.27227 0.0
C1178 C 0.48885 0.03418 0.16556 0.0
C1179 C 0.47478 0.14099 0.19759 0.0
C1180 C 0.49499 1.00804 0.22121 0.0
C1181 C 0.48268 0.12846 0.25834 0.0
C1182 C 0.47859 0.09579 0.15444 0.0
C1183 C 0.48947 0.14366 0.3535 0.0
N1184 N 0.50184 1.02067 0.31956 0.0
C1185 C 0.50166 0.05198 0.36402 0.0
C1186 C 0.48305 0.16453 0.30098 0.0
Tb1187 Tb 0.51618 0.9399 0.30465 0.0
N1188 N 0.50369 0.96162 0.22519 0.0
C1189 C 0.51381 0.9366 0.18425 0.0
C1190 C 0.50353 1.00484 0.12916 0.0
C1191 C 0.51525 0.95733 0.13851 0.0
H1192 H 0.50644 0.03104 0.39665 0.0
H1193 H 0.52584 0.93517 0.10887 0.0
H1194 H 0.46997 0.10546 0.11933 0.0
H1195 H 0.48375 0.17108 0.37993 0.0
H1196 H 0.52497 0.90022 0.18593 0.0
H1197 H 0.43545 0.95436 0.5419 0.0
H1198 H 0.50565 1.01836 0.09321 0.0
H1199 H 0.4974 0.75992 0.30347 0.0
H1200 H 0.45045 0.95412 0.44627 0.0
H1201 H 0.49802 0.68171 0.32649 0.0
H1202 H 0.4673 0.17666 0.18639 0.0
H1203 H 0.43439 0.87335 0.60001 0.0
H1204 H 0.45154 0.76108 0.60017 0.0
H1205 H 0.47753 0.20213 0.29506 0.0
H1206 H 0.4679 0.68629 0.55506 0.0
N1207 N 0.45692 0.87226 0.42969 0.0
C1208 C 0.44907 0.91964 0.46242 0.0
C1209 C 0.44108 0.86921 0.56259 0.0
C1210 C 0.4513 0.81224 0.53756 0.0
C1211 C 0.44049 0.92021 0.52543 0.0
C1212 C 0.46234 0.8197 0.44842 0.0
H1213 H 0.49249 0.65497 0.40421 0.0
N1214 N 0.47765 0.78845 0.37071 0.0
C1215 C 0.49497 0.70764 0.3543 0.0
C1216 C 0.47336 0.77791 0.41689 0.0
C1217 C 0.49258 0.75429 0.34044 0.0
C1218 C 0.48907 0.69295 0.40105 0.0
C1219 C 0.47852 0.72535 0.44005 0.0
O1220 O 0.39235 0.80601 0.31793 0.0
O1221 O 0.44886 0.90045 0.28855 0.0
O1222 O 0.45244 0.98182 0.33476 0.0
O1223 O 0.40742 0.92655 0.37724 0.0
O1224 O 0.38178 0.89981 0.31664 0.0
O1225 O 0.38044 0.82307 0.38915 0.0
O1226 O 0.58782 0.95011 0.327 0.0
O1227 O 0.51325 0.87587 0.35131 0.0
O1228 O 0.4644 0.82955 0.28193 0.0
O1229 O 0.53135 0.87319 0.26371 0.0
O1230 O 0.54396 0.93531 0.37771 0.0
O1231 O 0.57149 0.95673 0.25487 0.0
C1232 C 0.40503 0.91209 0.27909 0.0
C1233 C 0.35877 0.74192 0.36428 0.0
C1234 C 0.31536 0.66986 0.39648 0.0
C1235 C 0.32005 0.72124 0.39125 0.0
C1236 C 0.35178 0.64206 0.37811 0.0
C1237 C 0.38792 0.70984 0.34014 0.0
C1238 C 0.38695 0.66172 0.35026 0.0
C1239 C 0.41627 0.97177 0.36469 0.0
C1240 C 0.36732 0.79506 0.35508 0.0
C1241 C 0.46622 0.71735 0.53139 0.0
C1242 C 0.45491 0.76313 0.56262 0.0
C1243 C 0.53798 0.8908 0.38712 0.0
C1244 C 0.64144 0.99908 0.28104 0.0
C1245 C 0.67992 1.00039 0.24701 0.0
C1246 C 0.71445 0.03831 0.2478 0.0
C1247 C 0.7092 0.07322 0.28337 0.0
C1248 C 0.63929 0.03526 0.31493 0.0
C1249 C 0.67307 0.0712 0.31658 0.0
C1250 C 0.50367 0.83583 0.25607 0.0
C1251 C 0.60546 0.9591 0.2853 0.0
H1252 H 0.29314 0.74439 0.40611 0.0
H1253 H 0.35114 0.60431 0.38144 0.0
H1254 H 0.41206 0.72176 0.31291 0.0
H1255 H 0.41308 0.63901 0.33535 0.0
H1256 H 0.683 0.97237 0.22082 0.0
H1257 H 0.73342 0.10299 0.28629 0.0
H1258 H 0.61192 0.03451 0.34172 0.0
H1259 H 0.67143 0.09827 0.34372 0.0
Tb1260 Tb 0.1124 0.19213 0.8505 0.0
C1261 C 0.05402 1.00855 0.77227 0.0
C1262 C 0.06049 1.01517 0.66556 0.0
C1263 C 0.07456 0.90836 0.69759 0.0
C1264 C 0.05436 0.04131 0.72121 0.0
C1265 C 0.06666 0.92088 0.75834 0.0
C1266 C 0.07075 0.95356 0.65444 0.0
C1267 C 0.05987 0.90569 0.8535 0.0
N1268 N 0.04751 0.02868 0.81956 0.0
C1269 C 0.04769 0.99736 0.86402 0.0
C1270 C 0.06629 0.88482 0.80098 0.0
Tb1271 Tb 0.03317 0.10945 0.80465 0.0
N1272 N 0.04565 0.08773 0.72519 0.0
C1273 C 0.03553 0.11275 0.68425 0.0
C1274 C 0.04582 0.04451 0.62916 0.0
C1275 C 0.03409 0.09202 0.63851 0.0
H1276 H 0.04291 1.01831 0.89665 0.0
H1277 H 1.02351 0.11418 0.60887 0.0
H1278 H 0.07937 0.94389 0.61933 0.0
H1279 H 0.06559 0.87827 0.87993 0.0
H1280 H 1.02437 0.14912 0.68593 0.0
H1281 H 0.1139 0.09499 0.0419 0.0
H1282 H 0.04369 0.03099 0.59321 0.0
H1283 H 0.05194 0.28943 0.80347 0.0
H1284 H 0.09889 0.09522 0.94627 0.0
H1285 H 0.05133 0.36764 0.82649 0.0
H1286 H 0.08204 0.87269 0.68639 0.0
H1287 H 0.11495 0.17599 0.10001 0.0
H1288 H 0.0978 0.28827 0.10017 0.0
H1289 H 0.07181 0.84722 0.79506 0.0
H1290 H 0.08144 0.36305 0.05506 0.0
N1291 N 0.09242 0.17709 0.92969 0.0
C1292 C 0.10027 0.1297 0.96242 0.0
C1293 C 0.10827 0.18014 0.06259 0.0
C1294 C 0.09805 0.23711 0.03756 0.0
C1295 C 0.10885 0.12914 0.02543 0.0
C1296 C 0.087 0.22964 0.94842 0.0
H1297 H 0.05686 0.39438 0.90421 0.0
N1298 N 0.0717 0.2609 0.87071 0.0
C1299 C 0.05438 0.34171 0.8543 0.0
C1300 C 0.07598 0.27144 0.91689 0.0
C1301 C 0.05677 0.29506 0.84044 0.0
C1302 C 0.06027 0.35639 0.90105 0.0
C1303 C 0.07082 0.324 0.94005 0.0
O1304 O 0.15699 0.24334 0.81793 0.0
O1305 O 0.10048 0.1489 0.78855 0.0
O1306 O 0.09691 0.06752 0.83476 0.0
O1307 O 0.14192 0.1228 0.87724 0.0
O1308 O 0.16757 0.14953 0.81664 0.0
O1309 O 0.16891 0.22628 0.88915 0.0
O1310 O 0.96153 0.09923 0.827 0.0
O1311 O 0.0361 0.17348 0.85131 0.0
O1312 O 0.08494 0.21979 0.78193 0.0
O1313 O 1.01799 0.17616 0.76371 0.0
O1314 O 1.00539 0.11404 0.87771 0.0
O1315 O 0.97785 0.09262 0.75487 0.0
C1316 C 0.14431 0.13726 0.77909 0.0
C1317 C 0.19058 0.30743 0.86428 0.0
C1318 C 0.23399 0.37949 0.89648 0.0
C1319 C 0.22929 0.32811 0.89125 0.0
C1320 C 0.19756 0.40729 0.87811 0.0
C1321 C 0.16142 0.3395 0.84014 0.0
C1322 C 0.16239 0.38763 0.85026 0.0
C1323 C 0.13307 0.07757 0.86469 0.0
C1324 C 0.18202 0.25429 0.85508 0.0
C1325 C 0.08313 0.332 0.03139 0.0
C1326 C 0.09443 0.28621 0.06262 0.0
C1327 C 1.01136 0.15855 0.88712 0.0
C1328 C 0.9079 0.05027 0.78104 0.0
C1329 C 0.86943 0.04895 0.74701 0.0
C1330 C 0.83489 1.01104 0.7478 0.0
C1331 C 0.84014 0.97612 0.78337 0.0
C1332 C 0.91005 1.01409 0.81493 0.0
C1333 C 0.87627 0.97815 0.81658 0.0
C1334 C 0.04567 0.21352 0.75607 0.0
C1335 C 0.94388 0.09025 0.7853 0.0
H1336 H 0.2562 0.30496 0.90611 0.0
H1337 H 0.1982 0.44503 0.88144 0.0
H1338 H 0.13728 0.32758 0.81291 0.0
H1339 H 0.13626 0.41034 0.83535 0.0
H1340 H 0.86635 0.07697 0.72082 0.0
H1341 H 0.81593 0.94636 0.78629 0.0
H1342 H 0.93742 1.01483 0.84172 0.0
H1343 H 0.87791 0.95107 0.84372 0.0
Tb1344 Tb 0.69884 0.93694 0.69213 0.0
C1345 C 0.77707 0.99532 0.50855 0.0
C1346 C 0.88378 0.98885 0.51517 0.0
C1347 C 0.85176 0.97478 0.40836 0.0
C1348 C 0.82814 0.99498 0.54131 0.0
C1349 C 0.791 0.98268 0.42088 0.0
C1350 C 0.8949 0.97859 0.45356 0.0
C1351 C 0.69584 0.98947 0.40569 0.0
N1352 N 0.72979 1.00183 0.52868 0.0
C1353 C 0.68533 1.00165 0.49737 0.0
C1354 C 0.74836 0.98305 0.38482 0.0
Tb1355 Tb 0.7447 1.01617 0.60945 0.0
N1356 N 0.82415 1.00369 0.58773 0.0
C1357 C 0.8651 1.01381 0.61275 0.0
C1358 C 0.92019 1.00352 0.5445 0.0
C1359 C 0.91084 1.01525 0.59202 0.0
H1360 H 0.6527 1.00643 0.51831 0.0
H1361 H 0.94048 0.02584 0.61417 0.0
H1362 H 0.93002 0.96998 0.44389 0.0
H1363 H 0.66941 0.98376 0.37827 0.0
H1364 H 0.86342 0.02498 0.64912 0.0
H1365 H 0.50744 0.93544 0.59498 0.0
H1366 H 0.95613 1.00565 0.53098 0.0
H1367 H 0.74587 0.99739 0.78943 0.0
H1368 H 0.60307 0.95046 0.59522 0.0
H1369 H 0.72284 0.99802 0.86764 0.0
H1370 H 0.86296 0.9673 0.37269 0.0
H1371 H 0.44933 0.93438 0.67599 0.0
H1372 H 0.44917 0.95151 0.78826 0.0
H1373 H 0.75428 0.97754 0.34722 0.0
H1374 H 0.49428 0.96789 0.86305 0.0
N1375 N 0.61965 0.95692 0.67708 0.0
C1376 C 0.58692 0.94907 0.6297 0.0
C1377 C 0.48675 0.94107 0.68014 0.0
C1378 C 0.51178 0.95129 0.7371 0.0
C1379 C 0.52391 0.94049 0.62913 0.0
C1380 C 0.60092 0.96235 0.72964 0.0
H1381 H 0.64513 0.99249 0.89438 0.0
N1382 N 0.67862 0.97765 0.7609 0.0
C1383 C 0.69503 0.99497 0.84171 0.0
C1384 C 0.63244 0.97337 0.77143 0.0
C1385 C 0.7089 0.99258 0.79506 0.0
C1386 C 0.64829 0.98907 0.85639 0.0
C1387 C 0.60928 0.97852 0.824 0.0
O1388 O 0.73141 0.89236 0.74334 0.0
O1389 O 0.76081 0.94887 0.64892 0.0
O1390 O 0.71459 0.95243 0.56752 0.0
O1391 O 0.6721 0.90743 0.62279 0.0
O1392 O 0.73264 0.88172 0.64954 0.0
O1393 O 0.6602 0.88045 0.72629 0.0
O1394 O 0.72235 0.08782 0.59924 0.0
O1395 O 0.69803 1.01324 0.67347 0.0
O1396 O 0.76741 0.96441 0.71979 0.0
O1397 O 0.78563 0.03136 0.67616 0.0
O1398 O 0.67164 0.04396 0.61404 0.0
O1399 O 0.79448 0.07149 0.59261 0.0
C1400 C 0.77018 0.90501 0.63732 0.0
C1401 C 0.68507 0.85877 0.80744 0.0
C1402 C 0.65287 0.81536 0.87949 0.0
C1403 C 0.6581 0.82005 0.82811 0.0
C1404 C 0.67123 0.85178 0.90729 0.0
C1405 C 0.70921 0.88793 0.83951 0.0
C1406 C 0.69909 0.88696 0.88764 0.0
C1407 C 0.68466 0.91628 0.57757 0.0
C1408 C 0.69426 0.86733 0.75429 0.0
C1409 C 0.51795 0.96621 0.832 0.0
C1410 C 0.48672 0.9549 0.78621 0.0
C1411 C 0.66222 0.03798 0.65854 0.0
C1412 C 0.76831 0.14144 0.55027 0.0
C1413 C 0.80233 0.17992 0.54896 0.0
C1414 C 0.80154 0.21446 0.51104 0.0
C1415 C 0.76598 0.2092 0.47613 0.0
C1416 C 0.73442 0.13929 0.5141 0.0
C1417 C 0.73277 0.17307 0.47815 0.0
C1418 C 0.79327 1.00368 0.71352 0.0
C1419 C 0.76405 0.10546 0.59025 0.0
H1420 H 0.64323 0.79315 0.80496 0.0
H1421 H 0.66791 0.85114 0.94504 0.0
H1422 H 0.73644 0.91207 0.82759 0.0
H1423 H 0.714 0.91308 0.91034 0.0
H1424 H 0.82853 0.183 0.57698 0.0
H1425 H 0.76305 0.23341 0.44636 0.0
H1426 H 0.70762 0.11192 0.51484 0.0
H1427 H 0.70562 0.17143 0.45108 0.0
Tb1428 Tb 0.8505 0.1124 0.19213 0.0
C1429 C 0.77227 0.05403 1.00855 0.0
C1430 C 0.66556 0.0605 1.01517 0.0
C1431 C 0.69758 0.07456 0.90836 0.0
C1432 C 0.72121 0.05437 0.04131 0.0
C1433 C 0.75834 0.06666 0.92088 0.0
C1434 C 0.65444 0.07075 0.95356 0.0
C1435 C 0.8535 0.05987 0.90569 0.0
N1436 N 0.81956 0.04752 0.02868 0.0
C1437 C 0.86402 0.04769 0.99737 0.0
C1438 C 0.80098 0.06629 0.88482 0.0
Tb1439 Tb 0.80465 0.03317 0.10945 0.0
N1440 N 0.72519 0.04566 0.08773 0.0
C1441 C 0.68425 0.03554 0.11275 0.0
C1442 C 0.62916 0.04582 0.0445 0.0
C1443 C 0.63851 0.0341 0.09202 0.0
H1444 H 0.89664 0.04291 1.01831 0.0
H1445 H 0.60887 1.02351 0.11417 0.0
H1446 H 0.61933 0.07937 0.94389 0.0
H1447 H 0.87993 0.06559 0.87827 0.0
H1448 H 0.68592 1.02437 0.14912 0.0
H1449 H 0.0419 0.1139 0.09498 0.0
H1450 H 0.59321 0.0437 0.03098 0.0
H1451 H 0.80348 0.05195 0.28943 0.0
H1452 H 0.94628 0.09889 0.09522 0.0
H1453 H 0.8265 0.05133 0.36764 0.0
H1454 H 0.68638 0.08204 0.87269 0.0
H1455 H 0.10001 0.11497 0.17599 0.0
H1456 H 0.10017 0.09784 0.28826 0.0
H1457 H 0.79506 0.07181 0.84722 0.0
H1458 H 0.05507 0.08145 0.36305 0.0
N1459 N 0.92969 0.09242 0.17708 0.0
C1460 C 0.96243 0.10028 0.1297 0.0
C1461 C 0.0626 0.10828 0.18014 0.0
C1462 C 0.03756 0.09805 0.2371 0.0
C1463 C 0.02543 0.10886 0.12913 0.0
C1464 C 0.94842 0.087 0.22964 0.0
H1465 H 0.90422 0.05685 0.39438 0.0
N1466 N 0.87072 0.0717 0.2609 0.0
C1467 C 0.85431 0.05438 0.34171 0.0
C1468 C 0.9169 0.07598 0.27143 0.0
C1469 C 0.84045 0.05677 0.29506 0.0
C1470 C 0.90105 0.06027 0.35639 0.0
C1471 C 0.94006 0.07082 0.324 0.0
O1472 O 0.81793 0.15699 0.24334 0.0
O1473 O 0.78853 0.10048 0.14892 0.0
O1474 O 0.83475 0.09691 0.06752 0.0
O1475 O 0.87724 0.14191 0.12279 0.0
O1476 O 0.8167 0.16763 0.14954 0.0
O1477 O 0.88915 0.1689 0.22629 0.0
O1478 O 0.82699 0.96153 0.09924 0.0
O1479 O 0.85131 0.0361 0.17347 0.0
O1480 O 0.78193 0.08494 0.21979 0.0
O1481 O 0.76371 1.01799 0.17616 0.0
O1482 O 0.8777 1.00539 0.11404 0.0
O1483 O 0.75487 0.97786 0.09261 0.0
C1484 C 0.77916 0.14433 0.13732 0.0
C1485 C 0.86428 0.19058 0.30744 0.0
C1486 C 0.89648 0.23399 0.37949 0.0
C1487 C 0.89124 0.22929 0.32811 0.0
C1488 C 0.87811 0.19756 0.40729 0.0
C1489 C 0.84013 0.16142 0.33951 0.0
C1490 C 0.85025 0.16239 0.38764 0.0
C1491 C 0.86469 0.13307 0.07757 0.0
C1492 C 0.85508 0.18202 0.25429 0.0
C1493 C 0.03139 0.08314 0.332 0.0
C1494 C 0.06263 0.09445 0.28621 0.0
C1495 C 0.88712 1.01137 0.15854 0.0
C1496 C 0.78103 0.9079 0.05027 0.0
C1497 C 0.74701 0.86943 0.04896 0.0
C1498 C 0.7478 0.83489 1.01104 0.0
C1499 C 0.78337 0.84015 0.97613 0.0
C1500 C 0.81493 0.91005 1.0141 0.0
C1501 C 0.81658 0.87627 0.97815 0.0
C1502 C 0.75607 0.04566 0.21352 0.0
C1503 C 0.78529 0.94389 0.09025 0.0
H1504 H 0.90611 0.2562 0.30496 0.0
H1505 H 0.88144 0.1982 0.44504 0.0
H1506 H 0.8129 0.13728 0.32759 0.0
H1507 H 0.83535 0.13626 0.41034 0.0
H1508 H 0.72082 0.86635 0.07698 0.0
H1509 H 0.78629 0.81593 0.94636 0.0
H1510 H 0.84172 0.93743 1.01484 0.0
H1511 H 0.84372 0.87792 0.95108 0.0
Tb1512 Tb 0.19884 0.6124 0.35721 0.0
C1513 C 0.27707 0.55403 0.54079 0.0
C1514 C 0.38378 0.5605 0.53417 0.0
C1515 C 0.35176 0.57456 0.64098 0.0
C1516 C 0.32814 0.55437 0.50804 0.0
C1517 C 0.291 0.56666 0.62846 0.0
C1518 C 0.3949 0.57075 0.59578 0.0
C1519 C 0.19584 0.55987 0.64365 0.0
N1520 N 0.22979 0.54752 0.52066 0.0
C1521 C 0.18533 0.54769 0.55198 0.0
C1522 C 0.24836 0.56629 0.66452 0.0
Tb1523 Tb 0.2447 0.53317 0.43989 0.0
N1524 N 0.32415 0.54566 0.46161 0.0
C1525 C 0.3651 0.53554 0.43659 0.0
C1526 C 0.42019 0.54582 0.50484 0.0
C1527 C 0.41084 0.5341 0.45732 0.0
H1528 H 0.1527 0.54291 0.53103 0.0
H1529 H 0.44048 0.52351 0.43517 0.0
H1530 H 0.43002 0.57937 0.60545 0.0
H1531 H 0.16941 0.56559 0.67107 0.0
H1532 H 0.36342 0.52437 0.40022 0.0
H1533 H 1.00744 0.6139 0.45436 0.0
H1534 H 0.45613 0.5437 0.51836 0.0
H1535 H 0.24587 0.55195 0.25991 0.0
H1536 H 0.10307 0.59889 0.45412 0.0
H1537 H 0.22284 0.55133 0.1817 0.0
H1538 H 0.36296 0.58204 0.67665 0.0
H1539 H 0.94933 0.61497 0.37335 0.0
H1540 H 0.94917 0.59784 0.26108 0.0
H1541 H 0.25428 0.57181 0.70212 0.0
H1542 H 0.99428 0.58145 0.18629 0.0
N1543 N 0.11965 0.59242 0.37226 0.0
C1544 C 0.08692 0.60028 0.41964 0.0
C1545 C 0.98675 0.60828 0.36921 0.0
C1546 C 1.01178 0.59805 0.31224 0.0
C1547 C 1.02391 0.60886 0.42021 0.0
C1548 C 0.10092 0.587 0.3197 0.0
H1549 H 0.14513 0.55685 0.15497 0.0
N1550 N 0.17862 0.5717 0.28844 0.0
C1551 C 0.19503 0.55438 0.20764 0.0
C1552 C 0.13244 0.57598 0.27791 0.0
C1553 C 0.2089 0.55677 0.25429 0.0
C1554 C 0.14829 0.56027 0.19295 0.0
C1555 C 0.10928 0.57082 0.22534 0.0
O1556 O 0.23141 0.65699 0.306 0.0
O1557 O 0.26081 0.60048 0.40042 0.0
O1558 O 0.21459 0.59691 0.48182 0.0
O1559 O 0.1721 0.64191 0.42655 0.0
O1560 O 0.23264 0.66763 0.3998 0.0
O1561 O 0.1602 0.6689 0.32305 0.0
O1562 O 0.22235 0.46153 0.4501 0.0
O1563 O 0.19803 0.5361 0.37587 0.0
O1564 O 0.26741 0.58494 0.32955 0.0
O1565 O 0.28563 0.51799 0.37318 0.0
O1566 O 0.17164 0.50539 0.43531 0.0
O1567 O 0.29448 0.47786 0.45673 0.0
C1568 C 0.27018 0.64433 0.41202 0.0
C1569 C 0.18507 0.69058 0.2419 0.0
C1570 C 0.15287 0.73399 0.16985 0.0
C1571 C 0.1581 0.72929 0.22123 0.0
C1572 C 0.17123 0.69756 0.14205 0.0
C1573 C 0.20921 0.66142 0.20983 0.0
C1574 C 0.19909 0.66239 0.1617 0.0
C1575 C 0.18466 0.63307 0.47177 0.0
C1576 C 0.19426 0.68202 0.29505 0.0
C1577 C 1.01795 0.58314 0.21735 0.0
C1578 C 0.98672 0.59445 0.26313 0.0
C1579 C 0.16222 0.51137 0.3908 0.0
C1580 C 0.26831 0.4079 0.49907 0.0
C1581 C 0.30233 0.36943 0.50038 0.0
C1582 C 0.30154 0.33489 0.5383 0.0
C1583 C 0.26598 0.34015 0.57321 0.0
C1584 C 0.23442 0.41005 0.53524 0.0
C1585 C 0.23277 0.37627 0.57119 0.0
C1586 C 0.29327 0.54566 0.33582 0.0
C1587 C 0.26405 0.44389 0.45909 0.0
H1588 H 0.14323 0.7562 0.24438 0.0
H1589 H 0.16791 0.6982 0.1043 0.0
H1590 H 0.23644 0.63728 0.22175 0.0
H1591 H 0.214 0.63626 0.139 0.0
H1592 H 0.32853 0.36635 0.47236 0.0
H1593 H 0.26305 0.31593 0.60298 0.0
H1594 H 0.20762 0.43743 0.5345 0.0
H1595 H 0.20562 0.37792 0.59826 0.0
Tb1596 Tb 0.3505 0.43694 0.85721 0.0
C1597 C 0.27227 0.49532 0.04079 0.0
C1598 C 0.16556 0.48885 0.03417 0.0
C1599 C 0.19758 0.47478 0.14098 0.0
C1600 C 0.22121 0.49498 1.00804 0.0
C1601 C 0.25834 0.48268 0.12846 0.0
C1602 C 0.15444 0.47859 0.09578 0.0
C1603 C 0.3535 0.48947 0.14365 0.0
N1604 N 0.31956 0.50183 1.02066 0.0
C1605 C 0.36402 0.50165 0.05198 0.0
C1606 C 0.30098 0.48305 0.16452 0.0
Tb1607 Tb 0.30465 0.51617 0.93989 0.0
N1608 N 0.22519 0.50369 0.96161 0.0
C1609 C 0.18425 0.51381 0.93659 0.0
C1610 C 0.12916 0.50352 1.00484 0.0
C1611 C 0.13851 0.51525 0.95732 0.0
H1612 H 0.39664 0.50643 0.03103 0.0
H1613 H 0.10887 0.52584 0.93517 0.0
H1614 H 0.11933 0.46998 0.10545 0.0
H1615 H 0.37993 0.48376 0.17107 0.0
H1616 H 0.18592 0.52498 0.90022 0.0
H1617 H 0.5419 0.43544 0.95436 0.0
H1618 H 0.09321 0.50565 1.01836 0.0
H1619 H 0.30348 0.49739 0.75991 0.0
H1620 H 0.44628 0.45046 0.95412 0.0
H1621 H 0.3265 0.49802 0.6817 0.0
H1622 H 0.18638 0.4673 0.17666 0.0
H1623 H 0.60001 0.43438 0.87335 0.0
H1624 H 0.60017 0.45151 0.76108 0.0
H1625 H 0.29506 0.47754 0.20212 0.0
H1626 H 0.55507 0.46789 0.68629 0.0
N1627 N 0.42969 0.45692 0.87226 0.0
C1628 C 0.46243 0.44907 0.91964 0.0
C1629 C 0.5626 0.44107 0.86921 0.0
C1630 C 0.53756 0.45129 0.81224 0.0
C1631 C 0.52543 0.44049 0.92021 0.0
C1632 C 0.44842 0.46235 0.8197 0.0
H1633 H 0.40422 0.49249 0.65497 0.0
N1634 N 0.37072 0.47765 0.78844 0.0
C1635 C 0.35431 0.49497 0.70764 0.0
C1636 C 0.4169 0.47337 0.77791 0.0
C1637 C 0.34044 0.49258 0.75429 0.0
C1638 C 0.40105 0.48907 0.69295 0.0
C1639 C 0.44006 0.47852 0.72534 0.0
O1640 O 0.31793 0.39236 0.806 0.0
O1641 O 0.28853 0.44887 0.90042 0.0
O1642 O 0.33475 0.45243 0.98182 0.0
O1643 O 0.37724 0.40743 0.92655 0.0
O1644 O 0.3167 0.38172 0.8998 0.0
O1645 O 0.38915 0.38045 0.82305 0.0
O1646 O 0.32699 0.58782 0.9501 0.0
O1647 O 0.35131 0.51324 0.87587 0.0
O1648 O 0.28193 0.46441 0.82955 0.0
O1649 O 0.26371 0.53136 0.87318 0.0
O1650 O 0.3777 0.54396 0.93531 0.0
O1651 O 0.25487 0.57149 0.95673 0.0
C1652 C 0.27916 0.40501 0.91202 0.0
C1653 C 0.36428 0.35877 0.7419 0.0
C1654 C 0.39648 0.31536 0.66985 0.0
C1655 C 0.39124 0.32005 0.72123 0.0
C1656 C 0.37811 0.35178 0.64205 0.0
C1657 C 0.34013 0.38793 0.70983 0.0
C1658 C 0.35025 0.38696 0.6617 0.0
C1659 C 0.36469 0.41628 0.97177 0.0
C1660 C 0.35508 0.36733 0.79505 0.0
C1661 C 0.53139 0.46621 0.71735 0.0
C1662 C 0.56263 0.4549 0.76313 0.0
C1663 C 0.38712 0.53798 0.8908 0.0
C1664 C 0.28103 0.64144 0.99907 0.0
C1665 C 0.24701 0.67992 1.00038 0.0
C1666 C 0.2478 0.71446 0.0383 0.0
C1667 C 0.28337 0.7092 0.07321 0.0
C1668 C 0.31493 0.63929 0.03525 0.0
C1669 C 0.31658 0.67307 0.07119 0.0
C1670 C 0.25607 0.50368 0.83582 0.0
C1671 C 0.28529 0.60546 0.95909 0.0
H1672 H 0.40611 0.29315 0.74438 0.0
H1673 H 0.38144 0.35114 0.6043 0.0
H1674 H 0.3129 0.41207 0.72175 0.0
H1675 H 0.33535 0.41308 0.639 0.0
H1676 H 0.22082 0.683 0.97236 0.0
H1677 H 0.28629 0.73341 0.10298 0.0
H1678 H 0.34172 0.61192 0.0345 0.0
H1679 H 0.34372 0.67143 0.09826 0.0
Tb1680 Tb 0.69213 0.69885 0.93694 0.0
C1681 C 0.50855 0.77707 0.99531 0.0
C1682 C 0.51517 0.88378 0.98884 0.0
C1683 C 0.40836 0.85176 0.97478 0.0
C1684 C 0.54131 0.82813 0.99497 0.0
C1685 C 0.42088 0.791 0.98268 0.0
C1686 C 0.45356 0.8949 0.97859 0.0
C1687 C 0.40569 0.69584 0.98947 0.0
N1688 N 0.52868 0.72978 1.00183 0.0
C1689 C 0.49737 0.68532 1.00165 0.0
C1690 C 0.38482 0.74836 0.98305 0.0
Tb1691 Tb 0.60945 0.7447 1.01618 0.0
N1692 N 0.58773 0.82415 1.00368 0.0
C1693 C 0.61275 0.8651 1.01381 0.0
C1694 C 0.5445 0.92019 1.00352 0.0
C1695 C 0.59202 0.91083 1.01525 0.0
H1696 H 0.51831 0.6527 1.00643 0.0
H1697 H 0.61417 0.94047 0.02584 0.0
H1698 H 0.44389 0.93002 0.96997 0.0
H1699 H 0.37827 0.66941 0.98376 0.0
H1700 H 0.64912 0.86342 0.02498 0.0
H1701 H 0.59499 0.50744 0.93545 0.0
H1702 H 0.53098 0.95613 1.00565 0.0
H1703 H 0.78944 0.74587 0.99737 0.0
H1704 H 0.59523 0.60307 0.95046 0.0
H1705 H 0.86765 0.72285 0.998 0.0
H1706 H 0.37269 0.86296 0.9673 0.0
H1707 H 0.67599 0.44933 0.93439 0.0
H1708 H 0.78827 0.44917 0.95152 0.0
H1709 H 0.34722 0.75428 0.97753 0.0
H1710 H 0.86306 0.49428 0.9679 0.0
N1711 N 0.67709 0.61965 0.95692 0.0
C1712 C 0.62971 0.58692 0.94907 0.0
C1713 C 0.68014 0.48675 0.94108 0.0
C1714 C 0.73711 0.51178 0.9513 0.0
C1715 C 0.62914 0.52391 0.94049 0.0
C1716 C 0.72965 0.60093 0.96234 0.0
H1717 H 0.89438 0.64513 0.99249 0.0
N1718 N 0.76091 0.67863 0.97764 0.0
C1719 C 0.84172 0.69504 0.99495 0.0
C1720 C 0.77144 0.63245 0.97336 0.0
C1721 C 0.79507 0.70891 0.99256 0.0
C1722 C 0.8564 0.6483 0.98907 0.0
C1723 C 0.824 0.60929 0.97852 0.0
O1724 O 0.74333 0.73142 0.89235 0.0
O1725 O 0.64892 0.76082 0.94887 0.0
O1726 O 0.56752 0.71459 0.95243 0.0
O1727 O 0.62279 0.6721 0.90743 0.0
O1728 O 0.64954 0.73265 0.88172 0.0
O1729 O 0.7263 0.6602 0.88045 0.0
O1730 O 0.59924 0.72235 0.08782 0.0
O1731 O 0.67348 0.69803 1.01324 0.0
O1732 O 0.71979 0.76741 0.96441 0.0
O1733 O 0.67616 0.78563 0.03136 0.0
O1734 O 0.61404 0.67164 0.04395 0.0
O1735 O 0.5926 0.79448 0.07148 0.0
C1736 C 0.63732 0.77019 0.90502 0.0
C1737 C 0.80743 0.68508 0.85877 0.0
C1738 C 0.8795 0.65288 0.81539 0.0
C1739 C 0.82811 0.65809 0.82007 0.0
C1740 C 0.90729 0.67127 0.8518 0.0
C1741 C 0.8395 0.70925 0.88791 0.0
C1742 C 0.88763 0.69915 0.88695 0.0
C1743 C 0.57757 0.68466 0.91628 0.0
C1744 C 0.75429 0.69427 0.86733 0.0
C1745 C 0.832 0.51795 0.96621 0.0
C1746 C 0.78622 0.48672 0.9549 0.0
C1747 C 0.65854 0.66222 0.03798 0.0
C1748 C 0.55027 0.76831 0.14144 0.0
C1749 C 0.54895 0.80234 0.17992 0.0
C1750 C 0.51103 0.80155 0.21445 0.0
C1751 C 0.47612 0.76598 0.2092 0.0
C1752 C 0.51409 0.73442 0.1393 0.0
C1753 C 0.47815 0.73276 0.17308 0.0
C1754 C 0.71352 0.79327 1.00369 0.0
C1755 C 0.59025 0.76405 0.10546 0.0
H1756 H 0.80497 0.6432 0.79317 0.0
H1757 H 0.94504 0.66793 0.85117 0.0
H1758 H 0.82757 0.73649 0.91205 0.0
H1759 H 0.91032 0.71407 0.91307 0.0
H1760 H 0.57697 0.82853 0.18299 0.0
H1761 H 0.44636 0.76305 0.23342 0.0
H1762 H 0.51484 0.70762 0.11192 0.0
H1763 H 0.45108 0.70562 0.17143 0.0
Tb1764 Tb 0.19213 0.8505 0.1124 0.0
C1765 C 1.00855 0.77228 0.05403 0.0
C1766 C 1.01517 0.66556 0.0605 0.0
C1767 C 0.90836 0.69759 0.07456 0.0
C1768 C 0.04131 0.72121 0.05437 0.0
C1769 C 0.92088 0.75834 0.06666 0.0
C1770 C 0.95356 0.65445 0.07076 0.0
C1771 C 0.90569 0.85351 0.05987 0.0
N1772 N 0.02868 0.81956 0.04752 0.0
C1773 C 0.99737 0.86402 0.04769 0.0
C1774 C 0.88482 0.80098 0.06629 0.0
Tb1775 Tb 0.10945 0.80465 0.03317 0.0
N1776 N 0.08773 0.72519 0.04566 0.0
C1777 C 0.11275 0.68425 0.03553 0.0
C1778 C 0.0445 0.62916 0.04582 0.0
C1779 C 0.09202 0.63851 0.03409 0.0
H1780 H 1.01831 0.89665 0.04291 0.0
H1781 H 0.11417 0.60887 1.0235 0.0
H1782 H 0.94389 0.61933 0.07937 0.0
H1783 H 0.87827 0.87993 0.06558 0.0
H1784 H 0.14912 0.68592 1.02436 0.0
H1785 H 0.09499 0.04191 0.11389 0.0
H1786 H 0.03098 0.59321 0.0437 0.0
H1787 H 0.28944 0.80347 0.05197 0.0
H1788 H 0.09523 0.94628 0.09888 0.0
H1789 H 0.36765 0.8265 0.05134 0.0
H1790 H 0.87269 0.68639 0.08204 0.0
H1791 H 0.17599 0.10001 0.11495 0.0
H1792 H 0.28827 0.10017 0.09782 0.0
H1793 H 0.84722 0.79506 0.07181 0.0
H1794 H 0.36306 0.05506 0.08145 0.0
N1795 N 0.17709 0.92969 0.09242 0.0
C1796 C 0.12971 0.96243 0.10027 0.0
C1797 C 0.18014 0.0626 0.10827 0.0
C1798 C 0.23711 0.03756 0.09805 0.0
C1799 C 0.12914 0.02544 0.10885 0.0
C1800 C 0.22965 0.94842 0.087 0.0
H1801 H 0.39438 0.90422 0.05686 0.0
N1802 N 0.26091 0.87072 0.0717 0.0
C1803 C 0.34172 0.85431 0.05439 0.0
C1804 C 0.27144 0.9169 0.07598 0.0
C1805 C 0.29507 0.84044 0.05678 0.0
C1806 C 0.3564 0.90105 0.06028 0.0
C1807 C 0.324 0.94006 0.07082 0.0
O1808 O 0.24333 0.81793 0.157 0.0
O1809 O 0.14892 0.78853 0.10047 0.0
O1810 O 0.06752 0.83475 0.09691 0.0
O1811 O 0.12279 0.87724 0.14191 0.0
O1812 O 0.14954 0.8167 0.16762 0.0
O1813 O 0.2263 0.88915 0.16889 0.0
O1814 O 0.09924 0.82699 0.96152 0.0
O1815 O 0.17348 0.85132 0.0361 0.0
O1816 O 0.21979 0.78194 0.08493 0.0
O1817 O 0.17616 0.76371 1.01798 0.0
O1818 O 0.11404 0.87771 1.00539 0.0
O1819 O 0.0926 0.75487 0.97786 0.0
C1820 C 0.13732 0.77916 0.14433 0.0
C1821 C 0.30743 0.86427 0.19057 0.0
C1822 C 0.3795 0.89647 0.23396 0.0
C1823 C 0.32811 0.89125 0.22927 0.0
C1824 C 0.40729 0.87808 0.19754 0.0
C1825 C 0.3395 0.84009 0.16143 0.0
C1826 C 0.38763 0.8502 0.16239 0.0
C1827 C 0.07757 0.86469 0.13307 0.0
C1828 C 0.25429 0.85508 0.18202 0.0
C1829 C 0.332 0.03139 0.08313 0.0
C1830 C 0.28622 0.06262 0.09444 0.0
C1831 C 0.15854 0.88713 1.01136 0.0
C1832 C 0.05027 0.78104 0.9079 0.0
C1833 C 0.04895 0.74701 0.86942 0.0
C1834 C 1.01103 0.7478 0.83489 0.0
C1835 C 0.97612 0.78337 0.84014 0.0
C1836 C 1.01409 0.81493 0.91005 0.0
C1837 C 0.97815 0.81658 0.87627 0.0
C1838 C 0.21352 0.75608 0.04566 0.0
C1839 C 0.09025 0.78529 0.94388 0.0
H1840 H 0.30497 0.90615 0.25617 0.0
H1841 H 0.44504 0.88141 0.19818 0.0
H1842 H 0.32757 0.81286 0.13729 0.0
H1843 H 0.41032 0.83527 0.13627 0.0
H1844 H 0.07697 0.72081 0.86635 0.0
H1845 H 0.94636 0.78629 0.81593 0.0
H1846 H 1.01484 0.84173 0.93742 0.0
H1847 H 0.95108 0.84373 0.87791 0.0
Tb1848 Tb 0.35721 0.19885 0.6124 0.0
C1849 C 0.54079 0.27707 0.55403 0.0
C1850 C 0.53417 0.38378 0.5605 0.0
C1851 C 0.64098 0.35176 0.57456 0.0
C1852 C 0.50804 0.32813 0.55437 0.0
C1853 C 0.62846 0.291 0.56666 0.0
C1854 C 0.59578 0.3949 0.57076 0.0
C1855 C 0.64366 0.19584 0.55987 0.0
N1856 N 0.52066 0.22978 0.54752 0.0
C1857 C 0.55198 0.18532 0.54769 0.0
C1858 C 0.66452 0.24836 0.56629 0.0
Tb1859 Tb 0.43989 0.2447 0.53317 0.0
N1860 N 0.46161 0.32415 0.54566 0.0
C1861 C 0.4366 0.3651 0.53553 0.0
C1862 C 0.50484 0.42019 0.54582 0.0
C1863 C 0.45733 0.41083 0.53409 0.0
H1864 H 0.53103 0.1527 0.54291 0.0
H1865 H 0.43517 0.44047 0.5235 0.0
H1866 H 0.60546 0.43002 0.57937 0.0
H1867 H 0.67107 0.16941 0.56558 0.0
H1868 H 0.40022 0.36342 0.52436 0.0
H1869 H 0.45436 1.00744 0.61389 0.0
H1870 H 0.51836 0.45613 0.5437 0.0
H1871 H 0.25991 0.24587 0.55197 0.0
H1872 H 0.45412 0.10307 0.59888 0.0
H1873 H 0.18169 0.22285 0.55134 0.0
H1874 H 0.67666 0.36296 0.58204 0.0
H1875 H 0.37335 0.94933 0.61495 0.0
H1876 H 0.26107 0.94917 0.59782 0.0
H1877 H 0.70212 0.25428 0.57181 0.0
H1878 H 0.18629 0.99428 0.58145 0.0
N1879 N 0.37226 0.11965 0.59242 0.0
C1880 C 0.41964 0.08692 0.60027 0.0
C1881 C 0.3692 0.98675 0.60827 0.0
C1882 C 0.31223 1.01178 0.59805 0.0
C1883 C 0.4202 1.02391 0.60885 0.0
C1884 C 0.3197 0.10093 0.587 0.0
H1885 H 0.15496 0.14513 0.55686 0.0
N1886 N 0.28844 0.17863 0.5717 0.0
C1887 C 0.20763 0.19504 0.55439 0.0
C1888 C 0.27791 0.13245 0.57598 0.0
C1889 C 0.25428 0.20891 0.55678 0.0
C1890 C 0.19294 0.1483 0.56028 0.0
C1891 C 0.22534 0.10929 0.57082 0.0
O1892 O 0.30602 0.23142 0.657 0.0
O1893 O 0.40042 0.26082 0.60047 0.0
O1894 O 0.48182 0.21459 0.59691 0.0
O1895 O 0.42655 0.1721 0.64191 0.0
O1896 O 0.39981 0.23265 0.66762 0.0
O1897 O 0.32305 0.1602 0.66889 0.0
O1898 O 0.4501 0.22235 0.46152 0.0
O1899 O 0.37587 0.19803 0.5361 0.0
O1900 O 0.32955 0.26741 0.58493 0.0
O1901 O 0.37318 0.28563 0.51798 0.0
O1902 O 0.43531 0.17164 0.50539 0.0
O1903 O 0.45674 0.29448 0.47786 0.0
C1904 C 0.41202 0.27019 0.64433 0.0
C1905 C 0.24191 0.18508 0.69057 0.0
C1906 C 0.16985 0.15288 0.73396 0.0
C1907 C 0.22123 0.15809 0.72927 0.0
C1908 C 0.14205 0.17127 0.69754 0.0
C1909 C 0.20985 0.20925 0.66143 0.0
C1910 C 0.16172 0.19915 0.66239 0.0
C1911 C 0.47177 0.18466 0.63307 0.0
C1912 C 0.29506 0.19427 0.68202 0.0
C1913 C 0.21734 1.01795 0.58313 0.0
C1914 C 0.26313 0.98672 0.59444 0.0
C1915 C 0.3908 0.16222 0.51136 0.0
C1916 C 0.49908 0.26831 0.4079 0.0
C1917 C 0.50039 0.30234 0.36943 0.0
C1918 C 0.53831 0.30155 0.33489 0.0
C1919 C 0.57322 0.26598 0.34014 0.0
C1920 C 0.53525 0.23442 0.41005 0.0
C1921 C 0.5712 0.23276 0.37627 0.0
C1922 C 0.33582 0.29327 0.54566 0.0
C1923 C 0.4591 0.26405 0.44388 0.0
H1924 H 0.24437 0.1432 0.75617 0.0
H1925 H 0.10431 0.16793 0.69818 0.0
H1926 H 0.22178 0.23649 0.63729 0.0
H1927 H 0.13902 0.21407 0.63627 0.0
H1928 H 0.47238 0.32853 0.36635 0.0
H1929 H 0.60298 0.26305 0.31593 0.0
H1930 H 0.53451 0.20762 0.43742 0.0
H1931 H 0.59826 0.20562 0.37791 0.0
Tb1932 Tb 0.85721 0.3505 0.43694 0.0
C1933 C 0.04079 0.27228 0.49531 0.0
C1934 C 0.03417 0.16556 0.48884 0.0
C1935 C 0.14098 0.19759 0.47478 0.0
C1936 C 1.00804 0.22121 0.49497 0.0
C1937 C 0.12846 0.25834 0.48268 0.0
C1938 C 0.09578 0.15445 0.47859 0.0
C1939 C 0.14366 0.35351 0.48947 0.0
N1940 N 1.02066 0.31956 0.50183 0.0
C1941 C 0.05198 0.36402 0.50165 0.0
C1942 C 0.16452 0.30098 0.48305 0.0
Tb1943 Tb 0.93989 0.30465 0.51618 0.0
N1944 N 0.96161 0.22519 0.50368 0.0
C1945 C 0.9366 0.18425 0.51381 0.0
C1946 C 1.00484 0.12916 0.50352 0.0
C1947 C 0.95733 0.13851 0.51525 0.0
H1948 H 0.03103 0.39665 0.50643 0.0
H1949 H 0.93517 0.10887 0.52584 0.0
H1950 H 0.10546 0.11933 0.46997 0.0
H1951 H 0.17107 0.37993 0.48376 0.0
H1952 H 0.90022 0.18592 0.52498 0.0
H1953 H 0.95436 0.54191 0.43545 0.0
H1954 H 1.01836 0.09321 0.50565 0.0
H1955 H 0.75991 0.30347 0.49737 0.0
H1956 H 0.95412 0.44628 0.45046 0.0
H1957 H 0.68169 0.3265 0.498 0.0
H1958 H 0.17666 0.18639 0.4673 0.0
H1959 H 0.87335 0.60001 0.43439 0.0
H1960 H 0.76107 0.60017 0.45152 0.0
H1961 H 0.20212 0.29506 0.47753 0.0
H1962 H 0.68629 0.55506 0.4679 0.0
N1963 N 0.87226 0.42969 0.45692 0.0
C1964 C 0.91964 0.46243 0.44907 0.0
C1965 C 0.8692 0.5626 0.44108 0.0
C1966 C 0.81223 0.53756 0.4513 0.0
C1967 C 0.9202 0.52544 0.44049 0.0
C1968 C 0.8197 0.44842 0.46234 0.0
H1969 H 0.65496 0.40422 0.49249 0.0
N1970 N 0.78844 0.37072 0.47764 0.0
C1971 C 0.70763 0.35431 0.49495 0.0
C1972 C 0.77791 0.4169 0.47336 0.0
C1973 C 0.75428 0.34044 0.49256 0.0
C1974 C 0.69294 0.40105 0.48907 0.0
C1975 C 0.72534 0.44006 0.47852 0.0
O1976 O 0.80602 0.31793 0.39235 0.0
O1977 O 0.90042 0.28853 0.44887 0.0
O1978 O 0.98182 0.33475 0.45243 0.0
O1979 O 0.92655 0.37724 0.40743 0.0
O1980 O 0.89981 0.3167 0.38172 0.0
O1981 O 0.82305 0.38915 0.38045 0.0
O1982 O 0.9501 0.32699 0.58782 0.0
O1983 O 0.87587 0.35132 0.51324 0.0
O1984 O 0.82955 0.28194 0.46441 0.0
O1985 O 0.87318 0.26371 0.53136 0.0
O1986 O 0.93531 0.37771 0.54395 0.0
O1987 O 0.95674 0.25487 0.57148 0.0
C1988 C 0.91202 0.27916 0.40502 0.0
C1989 C 0.74191 0.36427 0.35877 0.0
C1990 C 0.66985 0.39647 0.31539 0.0
C1991 C 0.72123 0.39125 0.32007 0.0
C1992 C 0.64205 0.37808 0.3518 0.0
C1993 C 0.70985 0.34009 0.38791 0.0
C1994 C 0.66172 0.3502 0.38695 0.0
C1995 C 0.97177 0.36469 0.41628 0.0
C1996 C 0.79506 0.35508 0.36733 0.0
C1997 C 0.71734 0.53139 0.46621 0.0
C1998 C 0.76313 0.56262 0.4549 0.0
C1999 C 0.8908 0.38713 0.53798 0.0
C2000 C 0.99908 0.28104 0.64144 0.0
C2001 C 1.00039 0.24701 0.67992 0.0
C2002 C 0.03831 0.2478 0.71445 0.0
C2003 C 0.07322 0.28337 0.7092 0.0
C2004 C 0.03525 0.31493 0.6393 0.0
C2005 C 0.0712 0.31658 0.67308 0.0
C2006 C 0.83582 0.25608 0.50369 0.0
C2007 C 0.9591 0.28529 0.60546 0.0
H2008 H 0.74437 0.40615 0.29317 0.0
H2009 H 0.60431 0.38141 0.35117 0.0
H2010 H 0.72178 0.31286 0.41205 0.0
H2011 H 0.63902 0.33527 0.41307 0.0
H2012 H 0.97238 0.22081 0.68299 0.0
H2013 H 0.10298 0.28629 0.73342 0.0
H2014 H 0.03451 0.34173 0.61192 0.0
H2015 H 0.09826 0.34373 0.67143 0.0
loop_
_geom_bond_atom_site_label_1
_geom_bond_atom_site_label_2
_geom_bond_distance
_geom_bond_site_symmetry_2
_ccdc_geom_bond_type
Tb0 N31 2.660 . S
Tb0 N38 2.600 . S
Tb0 O44 2.546 1_455 S
Tb0 O45 2.612 . S
Tb0 O47 2.320 1_455 S
Tb0 O48 2.552 1_455 S
Tb0 O49 2.413 1_455 S
Tb0 O51 2.362 . S
Tb0 O52 2.421 . S
Tb0 C64 2.833 1_455 S
C1 C4 1.432 1_655 S
C1 C5 1.414 . S
C1 N8 1.359 1_655 S
C2 C4 1.417 1_655 S
C2 C6 1.432 . S
C2 C14 1.410 1_655 S
C3 C5 1.444 . S
C3 C6 1.317 . S
C3 H26 0.929 . S
C4 C1 1.432 1_455 S
C4 C2 1.417 1_455 S
C4 N12 1.360 . S
C5 C1 1.414 . S
C5 C3 1.444 . S
C5 C10 1.385 . S
C6 C2 1.432 . S
C6 C3 1.317 . S
C6 H18 0.930 . S
C7 C9 1.402 . S
C7 C10 1.370 . S
C7 H19 0.931 . S
N8 C1 1.359 1_455 S
N8 C9 1.323 1_455 S
N8 Tb11 2.600 . S
C9 C7 1.402 . S
C9 N8 1.323 1_655 S
C9 H16 0.925 1_655 S
C10 C5 1.385 . S
C10 C7 1.370 . S
C10 H29 0.930 . S
Tb11 N8 2.600 . S
Tb11 N12 2.660 . S
Tb11 O45 2.370 . S
Tb11 O46 2.421 . S
Tb11 O50 2.546 . S
Tb11 O51 2.610 . S
Tb11 O53 2.320 . S
Tb11 O54 2.552 . S
Tb11 O55 2.413 . S
Tb11 C75 2.833 . S
N12 C4 1.360 . S
N12 Tb11 2.660 . S
N12 C13 1.305 . S
C13 N12 1.305 . S
C13 C15 1.407 . S
C13 H20 0.930 . S
C14 C2 1.410 1_455 S
C14 C15 1.345 . S
C14 H22 0.930 1_455 S
C15 C13 1.407 . S
C15 C14 1.345 . S
C15 H17 0.930 . S
H16 C9 0.925 1_455 S
H17 C15 0.930 . S
H18 C6 0.930 . S
H19 C7 0.931 . S
H20 C13 0.930 . S
H21 C35 0.930 . S
H22 C14 0.930 1_655 S
H23 C41 0.930 . S
H24 C32 0.930 . S
H25 C39 0.931 . S
H26 C3 0.929 . S
H27 C33 0.930 . S
H28 C66 0.930 . S
H29 C10 0.930 . S
H30 C65 0.929 . S
N31 Tb0 2.660 . S
N31 C32 1.305 . S
N31 C36 1.360 . S
C32 H24 0.930 . S
C32 N31 1.305 . S
C32 C35 1.407 . S
C33 H27 0.930 . S
C33 C34 1.410 . S
C33 C35 1.345 . S
C34 C33 1.410 . S
C34 C36 1.417 . S
C34 C66 1.432 . S
C35 H21 0.930 . S
C35 C32 1.407 . S
C35 C33 1.345 . S
C36 N31 1.360 . S
C36 C34 1.417 . S
C36 C40 1.432 . S
H37 C42 0.930 . S
N38 Tb0 2.600 . S
N38 C40 1.359 . S
N38 C41 1.327 . S
C39 H25 0.931 . S
C39 C41 1.392 . S
C39 C42 1.370 . S
C40 C36 1.432 . S
C40 N38 1.359 . S
C40 C43 1.414 . S
C41 H23 0.930 . S
C41 N38 1.327 . S
C41 C39 1.392 . S
C42 H37 0.930 . S
C42 C39 1.370 . S
C42 C43 1.385 . S
C43 C40 1.414 . S
C43 C42 1.385 . S
C43 C65 1.444 . S
O44 Tb0 2.546 1_655 S
O44 C64 1.251 . S
O45 Tb0 2.612 . S
O45 Tb11 2.370 . S
O45 C56 1.274 1_455 S
O46 Tb11 2.421 . S
O46 C63 1.262 1_455 S
O47 Tb0 2.320 1_655 S
O47 C63 1.260 . S
O48 Tb0 2.552 1_655 S
O48 C56 1.243 . S
O49 Tb0 2.413 1_655 S
O49 C64 1.256 . S
O50 Tb11 2.546 . S
O50 C75 1.251 . S
O51 Tb0 2.362 . S
O51 Tb11 2.610 . S
O51 C67 1.283 . S
O52 Tb0 2.421 . S
O52 C74 1.262 . S
O53 Tb11 2.320 . S
O53 C74 1.260 . S
O54 Tb11 2.552 . S
O54 C67 1.243 . S
O55 Tb11 2.413 . S
O55 C75 1.256 . S
C56 O45 1.274 1_655 S
C56 O48 1.243 . S
C57 C59 1.382 . S
C57 C61 1.393 . S
C57 C64 1.500 . S
C58 C59 1.400 . S
C58 C60 1.384 . S
C59 C57 1.382 . S
C59 C58 1.400 . S
C59 H76 0.930 . S
C60 C58 1.384 . S
C60 C62 1.392 . S
C60 H77 0.931 . S
C61 C57 1.393 . S
C61 C62 1.401 . S
C61 H78 0.930 . S
C62 C60 1.392 . S
C62 C61 1.401 . S
C62 H79 0.930 . S
C63 O46 1.262 1_655 S
C63 O47 1.260 . S
C64 Tb0 2.833 1_655 S
C64 O44 1.251 . S
C64 O49 1.256 . S
C64 C57 1.500 . S
C65 H30 0.929 . S
C65 C43 1.444 . S
C65 C66 1.317 . S
C66 H28 0.930 . S
C66 C34 1.432 . S
C66 C65 1.317 . S
C67 O51 1.283 . S
C67 O54 1.243 . S
C68 C69 1.382 . S
C68 C72 1.393 . S
C68 C75 1.500 . S
C69 C68 1.382 . S
C69 C70 1.400 . S
C69 H80 0.930 . S
C70 C69 1.400 . S
C70 C71 1.384 . S
C71 C70 1.384 . S
C71 C73 1.392 . S
C71 H81 0.931 . S
C72 C68 1.393 . S
C72 C73 1.401 . S
C72 H82 0.930 . S
C73 C71 1.392 . S
C73 C72 1.401 . S
C73 H83 0.930 . S
C74 O52 1.262 . S
C74 O53 1.260 . S
C75 Tb11 2.833 . S
C75 O50 1.251 . S
C75 O55 1.256 . S
C75 C68 1.500 . S
H76 C59 0.930 . S
H77 C60 0.931 . S
H78 C61 0.930 . S
H79 C62 0.930 . S
H80 C69 0.930 . S
H81 C71 0.931 . S
H82 C72 0.930 . S
H83 C73 0.930 . S
Tb84 N115 2.660 . S
Tb84 N122 2.600 . S
Tb84 O128 2.546 . S
Tb84 O129 2.610 . S
Tb84 O131 2.320 . S
Tb84 O132 2.552 . S
Tb84 O133 2.413 . S
Tb84 O135 2.362 . S
Tb84 O136 2.421 . S
Tb84 C148 2.833 . S
C85 C88 1.432 . S
C85 C89 1.414 . S
C85 N92 1.359 . S
C86 C88 1.417 . S
C86 C90 1.432 . S
C86 C98 1.410 . S
C87 C89 1.444 . S
C87 C90 1.317 . S
C87 H110 0.929 . S
C88 C85 1.432 . S
C88 C86 1.417 . S
C88 N96 1.360 . S
C89 C85 1.414 . S
C89 C87 1.444 . S
C89 C94 1.385 . S
C90 C86 1.432 . S
C90 C87 1.317 . S
C90 H102 0.930 . S
C91 C93 1.392 . S
C91 C94 1.370 . S
C91 H103 0.931 . S
N92 C85 1.359 . S
N92 C93 1.327 . S
N92 Tb95 2.600 . S
C93 C91 1.392 . S
C93 N92 1.327 . S
C93 H100 0.930 . S
C94 C89 1.385 . S
C94 C91 1.370 . S
C94 H113 0.930 . S
Tb95 N92 2.600 . S
Tb95 N96 2.660 . S
Tb95 O129 2.362 . S
Tb95 O130 2.421 . S
Tb95 O134 2.546 . S
Tb95 O135 2.610 . S
Tb95 O137 2.320 . S
Tb95 O138 2.552 . S
Tb95 O139 2.413 . S
Tb95 C159 2.833 . S
N96 C88 1.360 . S
N96 Tb95 2.660 . S
N96 C97 1.305 . S
C97 N96 1.305 . S
C97 C99 1.407 . S
C97 H104 0.930 . S
C98 C86 1.410 . S
C98 C99 1.345 . S
C98 H106 0.930 1_556 S
C99 C97 1.407 . S
C99 C98 1.345 . S
C99 H101 0.930 . S
H100 C93 0.930 . S
H101 C99 0.930 . S
H102 C90 0.930 . S
H103 C91 0.931 . S
H104 C97 0.930 . S
H105 C119 0.930 . S
H106 C98 0.930 1_554 S
H107 C125 0.930 . S
H108 C116 0.930 . S
H109 C123 0.931 . S
H110 C87 0.929 . S
H111 C117 0.930 . S
H112 C150 0.930 . S
H113 C94 0.930 . S
H114 C149 0.929 . S
N115 Tb84 2.660 . S
N115 C116 1.305 . S
N115 C120 1.360 . S
C116 H108 0.930 . S
C116 N115 1.305 . S
C116 C119 1.407 . S
C117 H111 0.930 . S
C117 C118 1.410 . S
C117 C119 1.345 . S
C118 C117 1.410 . S
C118 C120 1.417 . S
C118 C150 1.432 . S
C119 H105 0.930 . S
C119 C116 1.407 . S
C119 C117 1.345 . S
C120 N115 1.360 . S
C120 C118 1.417 . S
C120 C124 1.432 . S
H121 C126 0.930 . S
N122 Tb84 2.600 . S
N122 C124 1.359 . S
N122 C125 1.327 . S
C123 H109 0.931 . S
C123 C125 1.392 . S
C123 C126 1.370 . S
C124 C120 1.432 . S
C124 N122 1.359 . S
C124 C127 1.414 . S
C125 H107 0.930 . S
C125 N122 1.327 . S
C125 C123 1.392 . S
C126 H121 0.930 . S
C126 C123 1.370 . S
C126 C127 1.385 . S
C127 C124 1.414 . S
C127 C126 1.385 . S
C127 C149 1.444 . S
O128 Tb84 2.546 . S
O128 C148 1.251 . S
O129 Tb84 2.610 . S
O129 Tb95 2.362 . S
O129 C140 1.283 . S
O130 Tb95 2.421 . S
O130 C147 1.262 . S
O131 Tb84 2.320 . S
O131 C147 1.260 . S
O132 Tb84 2.552 . S
O132 C140 1.243 . S
O133 Tb84 2.413 . S
O133 C148 1.256 . S
O134 Tb95 2.546 . S
O134 C159 1.251 . S
O135 Tb84 2.362 . S
O135 Tb95 2.610 . S
O135 C151 1.283 . S
O136 Tb84 2.421 . S
O136 C158 1.262 . S
O137 Tb95 2.320 . S
O137 C158 1.260 . S
O138 Tb95 2.552 . S
O138 C151 1.243 . S
O139 Tb95 2.413 . S
O139 C159 1.256 . S
C140 O129 1.283 . S
C140 O132 1.243 . S
C141 C143 1.382 . S
C141 C145 1.393 . S
C141 C148 1.500 . S
C142 C143 1.400 . S
C142 C144 1.384 . S
C143 C141 1.382 . S
C143 C142 1.400 . S
C143 H160 0.930 . S
C144 C142 1.384 . S
C144 C146 1.392 . S
C144 H161 0.931 . S
C145 C141 1.393 . S
C145 C146 1.401 . S
C145 H162 0.930 . S
C146 C144 1.392 . S
C146 C145 1.401 . S
C146 H163 0.930 . S
C147 O130 1.262 . S
C147 O131 1.260 . S
C148 Tb84 2.833 . S
C148 O128 1.251 . S
C148 O133 1.256 . S
C148 C141 1.500 . S
C149 H114 0.929 . S
C149 C127 1.444 . S
C149 C150 1.317 . S
C150 H112 0.930 . S
C150 C118 1.432 . S
C150 C149 1.317 . S
C151 O135 1.283 . S
C151 O138 1.243 . S
C152 C153 1.382 . S
C152 C156 1.393 . S
C152 C159 1.500 . S
C153 C152 1.382 . S
C153 C154 1.400 . S
C153 H164 0.930 . S
C154 C153 1.400 . S
C154 C155 1.384 . S
C155 C154 1.384 . S
C155 C157 1.392 . S
C155 H165 0.931 . S
C156 C152 1.393 . S
C156 C157 1.401 . S
C156 H166 0.930 . S
C157 C155 1.392 . S
C157 C156 1.401 . S
C157 H167 0.930 . S
C158 O136 1.262 . S
C158 O137 1.260 . S
C159 Tb95 2.833 . S
C159 O134 1.251 . S
C159 O139 1.256 . S
C159 C152 1.500 . S
H160 C143 0.930 . S
H161 C144 0.931 . S
H162 C145 0.930 . S
H163 C146 0.930 . S
H164 C153 0.930 . S
H165 C155 0.931 . S
H166 C156 0.930 . S
H167 C157 0.930 . S
Tb168 N199 2.660 . S
Tb168 N206 2.600 . S
Tb168 O212 2.546 . S
Tb168 O213 2.610 . S
Tb168 O215 2.320 . S
Tb168 O216 2.552 . S
Tb168 O217 2.413 . S
Tb168 O219 2.362 . S
Tb168 O220 2.421 . S
Tb168 C232 2.833 . S
C169 C172 1.432 . S
C169 C173 1.414 . S
C169 N176 1.359 . S
C170 C172 1.417 . S
C170 C174 1.432 . S
C170 C182 1.410 . S
C171 C173 1.444 . S
C171 C174 1.317 . S
C171 H194 0.929 . S
C172 C169 1.432 . S
C172 C170 1.417 . S
C172 N180 1.360 . S
C173 C169 1.414 . S
C173 C171 1.444 . S
C173 C178 1.385 . S
C174 C170 1.432 . S
C174 C171 1.317 . S
C174 H186 0.930 . S
C175 C177 1.392 . S
C175 C178 1.370 . S
C175 H187 0.931 . S
N176 C169 1.359 . S
N176 C177 1.327 . S
N176 Tb179 2.600 . S
C177 C175 1.392 . S
C177 N176 1.327 . S
C177 H184 0.930 . S
C178 C173 1.385 . S
C178 C175 1.370 . S
C178 H197 0.930 . S
Tb179 N176 2.600 . S
Tb179 N180 2.660 . S
Tb179 O213 2.362 . S
Tb179 O214 2.421 . S
Tb179 O218 2.546 . S
Tb179 O219 2.610 . S
Tb179 O221 2.320 . S
Tb179 O222 2.552 . S
Tb179 O223 2.413 . S
Tb179 C243 2.833 . S
N180 C172 1.360 . S
N180 Tb179 2.660 . S
N180 C181 1.305 . S
C181 N180 1.305 . S
C181 C183 1.407 . S
C181 H188 0.930 . S
C182 C170 1.410 . S
C182 C183 1.345 . S
C182 H190 0.930 . S
C183 C181 1.407 . S
C183 C182 1.345 . S
C183 H185 0.930 . S
H184 C177 0.930 . S
H185 C183 0.930 . S
H186 C174 0.930 . S
H187 C175 0.931 . S
H188 C181 0.930 . S
H189 C203 0.930 . S
H190 C182 0.930 . S
H191 C209 0.930 . S
H192 C200 0.930 . S
H193 C207 0.931 . S
H194 C171 0.929 . S
H195 C201 0.930 . S
H196 C234 0.930 . S
H197 C178 0.930 . S
H198 C233 0.929 . S
N199 Tb168 2.660 . S
N199 C200 1.305 . S
N199 C204 1.360 . S
C200 H192 0.930 . S
C200 N199 1.305 . S
C200 C203 1.407 . S
C201 H195 0.930 . S
C201 C202 1.410 . S
C201 C203 1.345 . S
C202 C201 1.410 . S
C202 C204 1.417 . S
C202 C234 1.432 . S
C203 H189 0.930 . S
C203 C200 1.407 . S
C203 C201 1.345 . S
C204 N199 1.360 . S
C204 C202 1.417 . S
C204 C208 1.432 . S
H205 C210 0.930 . S
N206 Tb168 2.600 . S
N206 C208 1.359 . S
N206 C209 1.327 . S
C207 H193 0.931 . S
C207 C209 1.392 1_565 S
C207 C210 1.370 . S
C208 C204 1.432 . S
C208 N206 1.359 . S
C208 C211 1.414 1_545 S
C209 H191 0.930 . S
C209 N206 1.327 . S
C209 C207 1.392 1_545 S
C210 H205 0.930 . S
C210 C207 1.370 . S
C210 C211 1.385 . S
C211 C208 1.414 1_565 S
C211 C210 1.385 . S
C211 C233 1.444 . S
O212 Tb168 2.546 . S
O212 C232 1.251 . S
O213 Tb168 2.610 . S
O213 Tb179 2.362 . S
O213 C224 1.283 . S
O214 Tb179 2.421 . S
O214 C231 1.262 . S
O215 Tb168 2.320 . S
O215 C231 1.260 . S
O216 Tb168 2.552 . S
O216 C224 1.243 . S
O217 Tb168 2.413 . S
O217 C232 1.256 . S
O218 Tb179 2.546 . S
O218 C243 1.251 . S
O219 Tb168 2.362 . S
O219 Tb179 2.610 . S
O219 C235 1.283 . S
O220 Tb168 2.421 . S
O220 C242 1.262 . S
O221 Tb179 2.320 . S
O221 C242 1.260 . S
O222 Tb179 2.552 . S
O222 C235 1.243 . S
O223 Tb179 2.413 . S
O223 C243 1.256 . S
C224 O213 1.283 . S
C224 O216 1.243 . S
C225 C227 1.382 . S
C225 C229 1.393 1_545 S
C225 C232 1.500 . S
C226 C227 1.400 1_565 S
C226 C228 1.384 . S
C227 C225 1.382 . S
C227 C226 1.400 1_545 S
C227 H244 0.930 . S
C228 C226 1.384 . S
C228 C230 1.392 . S
C228 H245 0.931 . S
C229 C225 1.393 1_565 S
C229 C230 1.401 . S
C229 H246 0.930 . S
C230 C228 1.392 . S
C230 C229 1.401 . S
C230 H247 0.930 . S
C231 O214 1.262 . S
C231 O215 1.260 . S
C232 Tb168 2.833 . S
C232 O212 1.251 . S
C232 O217 1.256 . S
C232 C225 1.500 . S
C233 H198 0.929 . S
C233 C211 1.444 . S
C233 C234 1.317 1_565 S
C234 H196 0.930 . S
C234 C202 1.432 . S
C234 C233 1.317 1_545 S
C235 O219 1.283 . S
C235 O222 1.243 . S
C236 C237 1.382 . S
C236 C240 1.393 . S
C236 C243 1.500 . S
C237 C236 1.382 . S
C237 C238 1.400 . S
C237 H248 0.930 . S
C238 C237 1.400 . S
C238 C239 1.384 . S
C239 C238 1.384 . S
C239 C241 1.392 . S
C239 H249 0.931 . S
C240 C236 1.393 . S
C240 C241 1.401 . S
C240 H250 0.930 . S
C241 C239 1.392 . S
C241 C240 1.401 . S
C241 H251 0.930 . S
C242 O220 1.262 . S
C242 O221 1.260 . S
C243 Tb179 2.833 . S
C243 O218 1.251 . S
C243 O223 1.256 . S
C243 C236 1.500 . S
H244 C227 0.930 . S
H245 C228 0.931 . S
H246 C229 0.930 . S
H247 C230 0.930 . S
H248 C237 0.930 . S
H249 C239 0.931 . S
H250 C240 0.930 . S
H251 C241 0.930 . S
Tb252 N283 2.660 . S
Tb252 N290 2.600 . S
Tb252 O296 2.546 1_655 S
Tb252 O297 2.612 . S
Tb252 O299 2.320 1_655 S
Tb252 O300 2.552 1_655 S
Tb252 O301 2.413 1_655 S
Tb252 O303 2.362 . S
Tb252 O304 2.421 . S
Tb252 C316 2.833 1_655 S
C253 C256 1.432 1_455 S
C253 C257 1.414 . S
C253 N260 1.359 1_455 S
C254 C256 1.417 1_455 S
C254 C258 1.432 . S
C254 C266 1.410 1_455 S
C255 C257 1.444 . S
C255 C258 1.317 . S
C255 H278 0.929 . S
C256 C253 1.432 1_655 S
C256 C254 1.417 1_655 S
C256 N264 1.360 . S
C257 C253 1.414 . S
C257 C255 1.444 . S
C257 C262 1.385 . S
C258 C254 1.432 . S
C258 C255 1.317 . S
C258 H270 0.930 . S
C259 C261 1.402 . S
C259 C262 1.370 . S
C259 H271 0.931 . S
N260 C253 1.359 1_655 S
N260 C261 1.323 1_655 S
N260 Tb263 2.600 . S
C261 C259 1.402 . S
C261 N260 1.323 1_455 S
C261 H268 0.925 1_455 S
C262 C257 1.385 . S
C262 C259 1.370 . S
C262 H281 0.930 . S
Tb263 N260 2.600 . S
Tb263 N264 2.660 . S
Tb263 O297 2.370 . S
Tb263 O298 2.421 . S
Tb263 O302 2.546 . S
Tb263 O303 2.610 . S
Tb263 O305 2.320 . S
Tb263 O306 2.552 . S
Tb263 O307 2.413 . S
Tb263 C327 2.833 . S
N264 C256 1.360 . S
N264 Tb263 2.660 . S
N264 C265 1.305 . S
C265 N264 1.305 . S
C265 C267 1.407 . S
C265 H272 0.930 . S
C266 C254 1.410 1_655 S
C266 C267 1.345 . S
C266 H274 0.930 1_654 S
C267 C265 1.407 . S
C267 C266 1.345 . S
C267 H269 0.930 . S
H268 C261 0.925 1_655 S
H269 C267 0.930 . S
H270 C258 0.930 . S
H271 C259 0.931 . S
H272 C265 0.930 . S
H273 C287 0.930 . S
H274 C266 0.930 1_456 S
H275 C293 0.930 . S
H276 C284 0.930 . S
H277 C291 0.931 . S
H278 C255 0.929 . S
H279 C285 0.930 . S
H280 C318 0.930 . S
H281 C262 0.930 . S
H282 C317 0.929 . S
N283 Tb252 2.660 . S
N283 C284 1.305 . S
N283 C288 1.360 . S
C284 H276 0.930 . S
C284 N283 1.305 . S
C284 C287 1.407 . S
C285 H279 0.930 . S
C285 C286 1.410 . S
C285 C287 1.345 . S
C286 C285 1.410 . S
C286 C288 1.417 . S
C286 C318 1.432 . S
C287 H273 0.930 . S
C287 C284 1.407 . S
C287 C285 1.345 . S
C288 N283 1.360 . S
C288 C286 1.417 . S
C288 C292 1.432 . S
H289 C294 0.930 . S
N290 Tb252 2.600 . S
N290 C292 1.359 . S
N290 C293 1.327 . S
C291 H277 0.931 . S
C291 C293 1.392 1_545 S
C291 C294 1.370 . S
C292 C288 1.432 . S
C292 N290 1.359 . S
C292 C295 1.414 1_565 S
C293 H275 0.930 . S
C293 N290 1.327 . S
C293 C291 1.392 1_565 S
C294 H289 0.930 . S
C294 C291 1.370 . S
C294 C295 1.385 . S
C295 C292 1.414 1_545 S
C295 C294 1.385 . S
C295 C317 1.444 . S
O296 Tb252 2.546 1_455 S
O296 C316 1.251 . S
O297 Tb252 2.612 . S
O297 Tb263 2.370 . S
O297 C308 1.274 1_655 S
O298 Tb263 2.421 . S
O298 C315 1.262 1_655 S
O299 Tb252 2.320 1_455 S
O299 C315 1.260 . S
O300 Tb252 2.552 1_455 S
O300 C308 1.243 . S
O301 Tb252 2.413 1_455 S
O301 C316 1.256 . S
O302 Tb263 2.546 . S
O302 C327 1.251 . S
O303 Tb252 2.362 . S
O303 Tb263 2.610 . S
O303 C319 1.283 . S
O304 Tb252 2.421 . S
O304 C326 1.262 . S
O305 Tb263 2.320 . S
O305 C326 1.260 . S
O306 Tb263 2.552 . S
O306 C319 1.243 . S
O307 Tb263 2.413 . S
O307 C327 1.256 . S
C308 O297 1.274 1_455 S
C308 O300 1.243 . S
C309 C311 1.382 . S
C309 C313 1.393 1_565 S
C309 C316 1.500 . S
C310 C311 1.400 1_545 S
C310 C312 1.384 . S
C311 C309 1.382 . S
C311 C310 1.400 1_565 S
C311 H328 0.930 . S
C312 C310 1.384 . S
C312 C314 1.392 . S
C312 H329 0.931 . S
C313 C309 1.393 1_545 S
C313 C314 1.401 . S
C313 H330 0.930 . S
C314 C312 1.392 . S
C314 C313 1.401 . S
C314 H331 0.930 . S
C315 O298 1.262 1_455 S
C315 O299 1.260 . S
C316 Tb252 2.833 1_455 S
C316 O296 1.251 . S
C316 O301 1.256 . S
C316 C309 1.500 . S
C317 H282 0.929 . S
C317 C295 1.444 . S
C317 C318 1.317 1_545 S
C318 H280 0.930 . S
C318 C286 1.432 . S
C318 C317 1.317 1_565 S
C319 O303 1.283 . S
C319 O306 1.243 . S
C320 C321 1.382 . S
C320 C324 1.393 . S
C320 C327 1.500 . S
C321 C320 1.382 . S
C321 C322 1.400 . S
C321 H332 0.930 . S
C322 C321 1.400 . S
C322 C323 1.384 . S
C323 C322 1.384 . S
C323 C325 1.392 . S
C323 H333 0.931 . S
C324 C320 1.393 . S
C324 C325 1.401 . S
C324 H334 0.930 . S
C325 C323 1.392 . S
C325 C324 1.401 . S
C325 H335 0.930 . S
C326 O304 1.262 . S
C326 O305 1.260 . S
C327 Tb263 2.833 . S
C327 O302 1.251 . S
C327 O307 1.256 . S
C327 C320 1.500 . S
H328 C311 0.930 . S
H329 C312 0.931 . S
H330 C313 0.930 . S
H331 C314 0.930 . S
H332 C321 0.930 . S
H333 C323 0.931 . S
H334 C324 0.930 . S
H335 C325 0.930 . S
Tb336 N367 2.660 . S
Tb336 N374 2.600 . S
Tb336 O380 2.546 1_545 S
Tb336 O381 2.612 . S
Tb336 O383 2.320 1_545 S
Tb336 O384 2.552 1_545 S
Tb336 O385 2.413 1_545 S
Tb336 O387 2.362 . S
Tb336 O388 2.421 . S
Tb336 C400 2.833 1_545 S
C337 C340 1.432 1_565 S
C337 C341 1.414 . S
C337 N344 1.359 1_565 S
C338 C340 1.417 1_565 S
C338 C342 1.432 . S
C338 C350 1.410 1_565 S
C339 C341 1.444 . S
C339 C342 1.317 . S
C339 H362 0.929 . S
C340 C337 1.432 1_545 S
C340 C338 1.417 1_545 S
C340 N348 1.360 . S
C341 C337 1.414 . S
C341 C339 1.444 . S
C341 C346 1.385 . S
C342 C338 1.432 . S
C342 C339 1.317 . S
C342 H354 0.930 . S
C343 C345 1.402 . S
C343 C346 1.370 . S
C343 H355 0.931 . S
N344 C337 1.359 1_545 S
N344 C345 1.323 1_545 S
N344 Tb347 2.600 . S
C345 C343 1.402 . S
C345 N344 1.323 1_565 S
C345 H352 0.925 1_565 S
C346 C341 1.385 . S
C346 C343 1.370 . S
C346 H365 0.930 . S
Tb347 N344 2.600 . S
Tb347 N348 2.660 . S
Tb347 O381 2.370 . S
Tb347 O382 2.421 . S
Tb347 O386 2.546 . S
Tb347 O387 2.610 . S
Tb347 O389 2.320 . S
Tb347 O390 2.552 . S
Tb347 O391 2.413 . S
Tb347 C411 2.833 . S
N348 C340 1.360 . S
N348 Tb347 2.660 . S
N348 C349 1.305 . S
C349 N348 1.305 . S
C349 C351 1.407 . S
C349 H356 0.930 . S
C350 C338 1.410 1_545 S
C350 C351 1.345 . S
C350 H358 0.930 1_545 S
C351 C349 1.407 . S
C351 C350 1.345 . S
C351 H353 0.930 . S
H352 C345 0.925 1_545 S
H353 C351 0.930 . S
H354 C342 0.930 . S
H355 C343 0.931 . S
H356 C349 0.930 . S
H357 C371 0.930 . S
H358 C350 0.930 1_565 S
H359 C377 0.930 . S
H360 C368 0.930 . S
H361 C375 0.931 . S
H362 C339 0.929 . S
H363 C369 0.930 . S
H364 C402 0.930 . S
H365 C346 0.930 . S
H366 C401 0.929 . S
N367 Tb336 2.660 . S
N367 C368 1.305 . S
N367 C372 1.360 . S
C368 H360 0.930 . S
C368 N367 1.305 . S
C368 C371 1.407 . S
C369 H363 0.930 . S
C369 C370 1.410 . S
C369 C371 1.345 . S
C370 C369 1.410 . S
C370 C372 1.417 . S
C370 C402 1.432 . S
C371 H357 0.930 . S
C371 C368 1.407 . S
C371 C369 1.345 . S
C372 N367 1.360 . S
C372 C370 1.417 . S
C372 C376 1.432 . S
H373 C378 0.930 . S
N374 Tb336 2.600 . S
N374 C376 1.359 . S
N374 C377 1.327 . S
C375 H361 0.931 . S
C375 C377 1.392 . S
C375 C378 1.370 . S
C376 C372 1.432 . S
C376 N374 1.359 . S
C376 C379 1.414 . S
C377 H359 0.930 . S
C377 N374 1.327 . S
C377 C375 1.392 . S
C378 H373 0.930 . S
C378 C375 1.370 . S
C378 C379 1.385 . S
C379 C376 1.414 . S
C379 C378 1.385 . S
C379 C401 1.444 . S
O380 Tb336 2.546 1_565 S
O380 C400 1.251 . S
O381 Tb336 2.612 . S
O381 Tb347 2.370 . S
O381 C392 1.274 1_545 S
O382 Tb347 2.421 . S
O382 C399 1.262 1_545 S
O383 Tb336 2.320 1_565 S
O383 C399 1.260 . S
O384 Tb336 2.552 1_565 S
O384 C392 1.243 . S
O385 Tb336 2.413 1_565 S
O385 C400 1.256 . S
O386 Tb347 2.546 . S
O386 C411 1.251 . S
O387 Tb336 2.362 . S
O387 Tb347 2.610 . S
O387 C403 1.283 . S
O388 Tb336 2.421 . S
O388 C410 1.262 . S
O389 Tb347 2.320 . S
O389 C410 1.260 . S
O390 Tb347 2.552 . S
O390 C403 1.243 . S
O391 Tb347 2.413 . S
O391 C411 1.256 . S
C392 O381 1.274 1_565 S
C392 O384 1.243 . S
C393 C395 1.382 . S
C393 C397 1.393 . S
C393 C400 1.500 . S
C394 C395 1.400 . S
C394 C396 1.384 . S
C395 C393 1.382 . S
C395 C394 1.400 . S
C395 H412 0.930 . S
C396 C394 1.384 . S
C396 C398 1.392 . S
C396 H413 0.931 . S
C397 C393 1.393 . S
C397 C398 1.401 . S
C397 H414 0.930 . S
C398 C396 1.392 . S
C398 C397 1.401 . S
C398 H415 0.930 . S
C399 O382 1.262 1_565 S
C399 O383 1.260 . S
C400 Tb336 2.833 1_565 S
C400 O380 1.251 . S
C400 O385 1.256 . S
C400 C393 1.500 . S
C401 H366 0.929 . S
C401 C379 1.444 . S
C401 C402 1.317 . S
C402 H364 0.930 . S
C402 C370 1.432 . S
C402 C401 1.317 . S
C403 O387 1.283 . S
C403 O390 1.243 . S
C404 C405 1.382 . S
C404 C408 1.393 . S
C404 C411 1.500 . S
C405 C404 1.382 . S
C405 C406 1.400 . S
C405 H416 0.930 . S
C406 C405 1.400 . S
C406 C407 1.384 . S
C407 C406 1.384 . S
C407 C409 1.392 . S
C407 H417 0.931 . S
C408 C404 1.393 . S
C408 C409 1.401 . S
C408 H418 0.930 . S
C409 C407 1.392 . S
C409 C408 1.401 . S
C409 H419 0.930 . S
C410 O388 1.262 . S
C410 O389 1.260 . S
C411 Tb347 2.833 . S
C411 O386 1.251 . S
C411 O391 1.256 . S
C411 C404 1.500 . S
H412 C395 0.930 . S
H413 C396 0.931 . S
H414 C397 0.930 . S
H415 C398 0.930 . S
H416 C405 0.930 . S
H417 C407 0.931 . S
H418 C408 0.930 . S
H419 C409 0.930 . S
Tb420 N451 2.660 . S
Tb420 N458 2.600 . S
Tb420 O464 2.546 1_565 S
Tb420 O465 2.612 . S
Tb420 O467 2.320 1_565 S
Tb420 O468 2.552 1_565 S
Tb420 O469 2.413 1_565 S
Tb420 O471 2.362 . S
Tb420 O472 2.421 . S
Tb420 C484 2.833 1_565 S
C421 C424 1.432 1_545 S
C421 C425 1.414 . S
C421 N428 1.359 1_545 S
C422 C424 1.417 1_545 S
C422 C426 1.432 . S
C422 C434 1.410 1_545 S
C423 C425 1.444 . S
C423 C426 1.317 . S
C423 H446 0.929 . S
C424 C421 1.432 1_565 S
C424 C422 1.417 1_565 S
C424 N432 1.360 . S
C425 C421 1.414 . S
C425 C423 1.444 . S
C425 C430 1.385 . S
C426 C422 1.432 . S
C426 C423 1.317 . S
C426 H438 0.930 . S
C427 C429 1.402 . S
C427 C430 1.370 . S
C427 H439 0.931 . S
N428 C421 1.359 1_565 S
N428 C429 1.323 1_565 S
N428 Tb431 2.600 . S
C429 C427 1.402 . S
C429 N428 1.323 1_545 S
C429 H436 0.925 1_545 S
C430 C425 1.385 . S
C430 C427 1.370 . S
C430 H449 0.930 . S
Tb431 N428 2.600 . S
Tb431 N432 2.660 . S
Tb431 O465 2.370 . S
Tb431 O466 2.421 . S
Tb431 O470 2.546 . S
Tb431 O471 2.610 . S
Tb431 O473 2.320 . S
Tb431 O474 2.552 . S
Tb431 O475 2.413 . S
Tb431 C495 2.833 . S
N432 C424 1.360 . S
N432 Tb431 2.660 . S
N432 C433 1.305 . S
C433 N432 1.305 . S
C433 C435 1.407 . S
C433 H440 0.930 . S
C434 C422 1.410 1_565 S
C434 C435 1.345 . S
C434 H442 0.930 1_465 S
C435 C433 1.407 . S
C435 C434 1.345 . S
C435 H437 0.930 . S
H436 C429 0.925 1_565 S
H437 C435 0.930 . S
H438 C426 0.930 . S
H439 C427 0.931 . S
H440 C433 0.930 . S
H441 C455 0.930 . S
H442 C434 0.930 1_645 S
H443 C461 0.930 . S
H444 C452 0.930 . S
H445 C459 0.931 . S
H446 C423 0.929 . S
H447 C453 0.930 . S
H448 C486 0.930 . S
H449 C430 0.930 . S
H450 C485 0.929 . S
N451 Tb420 2.660 . S
N451 C452 1.305 . S
N451 C456 1.360 . S
C452 H444 0.930 . S
C452 N451 1.305 . S
C452 C455 1.407 . S
C453 H447 0.930 . S
C453 C454 1.410 . S
C453 C455 1.345 . S
C454 C453 1.410 . S
C454 C456 1.417 . S
C454 C486 1.432 . S
C455 H441 0.930 . S
C455 C452 1.407 . S
C455 C453 1.345 . S
C456 N451 1.360 . S
C456 C454 1.417 . S
C456 C460 1.432 . S
H457 C462 0.930 . S
N458 Tb420 2.600 . S
N458 C460 1.359 . S
N458 C461 1.327 . S
C459 H445 0.931 . S
C459 C461 1.392 1_554 S
C459 C462 1.370 . S
C460 C456 1.432 . S
C460 N458 1.359 . S
C460 C463 1.414 1_556 S
C461 H443 0.930 . S
C461 N458 1.327 . S
C461 C459 1.392 1_556 S
C462 H457 0.930 . S
C462 C459 1.370 . S
C462 C463 1.385 . S
C463 C460 1.414 1_554 S
C463 C462 1.385 . S
C463 C485 1.444 . S
O464 Tb420 2.546 1_545 S
O464 C484 1.251 . S
O465 Tb420 2.612 . S
O465 Tb431 2.370 . S
O465 C476 1.274 1_565 S
O466 Tb431 2.421 . S
O466 C483 1.262 1_565 S
O467 Tb420 2.320 1_545 S
O467 C483 1.260 . S
O468 Tb420 2.552 1_545 S
O468 C476 1.243 . S
O469 Tb420 2.413 1_545 S
O469 C484 1.256 . S
O470 Tb431 2.546 . S
O470 C495 1.251 . S
O471 Tb420 2.362 . S
O471 Tb431 2.610 . S
O471 C487 1.283 . S
O472 Tb420 2.421 . S
O472 C494 1.262 . S
O473 Tb431 2.320 . S
O473 C494 1.260 . S
O474 Tb431 2.552 . S
O474 C487 1.243 . S
O475 Tb431 2.413 . S
O475 C495 1.256 . S
C476 O465 1.274 1_545 S
C476 O468 1.243 . S
C477 C479 1.382 . S
C477 C481 1.393 1_556 S
C477 C484 1.500 . S
C478 C479 1.400 1_554 S
C478 C480 1.384 . S
C479 C477 1.382 . S
C479 C478 1.400 1_556 S
C479 H496 0.930 . S
C480 C478 1.384 . S
C480 C482 1.392 . S
C480 H497 0.931 . S
C481 C477 1.393 1_554 S
C481 C482 1.401 . S
C481 H498 0.930 . S
C482 C480 1.392 . S
C482 C481 1.401 . S
C482 H499 0.930 . S
C483 O466 1.262 1_545 S
C483 O467 1.260 . S
C484 Tb420 2.833 1_545 S
C484 O464 1.251 . S
C484 O469 1.256 . S
C484 C477 1.500 . S
C485 H450 0.929 . S
C485 C463 1.444 . S
C485 C486 1.317 1_554 S
C486 H448 0.930 . S
C486 C454 1.432 . S
C486 C485 1.317 1_556 S
C487 O471 1.283 . S
C487 O474 1.243 . S
C488 C489 1.382 . S
C488 C492 1.393 . S
C488 C495 1.500 . S
C489 C488 1.382 . S
C489 C490 1.400 . S
C489 H500 0.930 . S
C490 C489 1.400 . S
C490 C491 1.384 . S
C491 C490 1.384 . S
C491 C493 1.392 . S
C491 H501 0.931 . S
C492 C488 1.393 . S
C492 C493 1.401 . S
C492 H502 0.930 . S
C493 C491 1.392 . S
C493 C492 1.401 . S
C493 H503 0.930 . S
C494 O472 1.262 . S
C494 O473 1.260 . S
C495 Tb431 2.833 . S
C495 O470 1.251 . S
C495 O475 1.256 . S
C495 C488 1.500 . S
H496 C479 0.930 . S
H497 C480 0.931 . S
H498 C481 0.930 . S
H499 C482 0.930 . S
H500 C489 0.930 . S
H501 C491 0.931 . S
H502 C492 0.930 . S
H503 C493 0.930 . S
Tb504 N535 2.660 . S
Tb504 N542 2.600 . S
Tb504 O548 2.546 . S
Tb504 O549 2.610 . S
Tb504 O551 2.320 . S
Tb504 O552 2.552 . S
Tb504 O553 2.413 . S
Tb504 O555 2.362 . S
Tb504 O556 2.421 . S
Tb504 C568 2.833 . S
C505 C508 1.432 . S
C505 C509 1.414 . S
C505 N512 1.359 . S
C506 C508 1.417 . S
C506 C510 1.432 . S
C506 C518 1.410 . S
C507 C509 1.444 . S
C507 C510 1.317 . S
C507 H530 0.929 . S
C508 C505 1.432 . S
C508 C506 1.417 . S
C508 N516 1.360 . S
C509 C505 1.414 . S
C509 C507 1.444 . S
C509 C514 1.385 . S
C510 C506 1.432 . S
C510 C507 1.317 . S
C510 H522 0.930 . S
C511 C513 1.392 . S
C511 C514 1.370 . S
C511 H523 0.931 . S
N512 C505 1.359 . S
N512 C513 1.327 . S
N512 Tb515 2.600 . S
C513 C511 1.392 . S
C513 N512 1.327 . S
C513 H520 0.930 . S
C514 C509 1.385 . S
C514 C511 1.370 . S
C514 H533 0.930 . S
Tb515 N512 2.600 . S
Tb515 N516 2.660 . S
Tb515 O549 2.362 . S
Tb515 O550 2.421 . S
Tb515 O554 2.546 . S
Tb515 O555 2.610 . S
Tb515 O557 2.320 . S
Tb515 O558 2.552 . S
Tb515 O559 2.413 . S
Tb515 C579 2.833 . S
N516 C508 1.360 . S
N516 Tb515 2.660 . S
N516 C517 1.305 . S
C517 N516 1.305 . S
C517 C519 1.407 . S
C517 H524 0.930 . S
C518 C506 1.410 . S
C518 C519 1.345 . S
C518 H526 0.930 1_655 S
C519 C517 1.407 . S
C519 C518 1.345 . S
C519 H521 0.930 . S
H520 C513 0.930 . S
H521 C519 0.930 . S
H522 C510 0.930 . S
H523 C511 0.931 . S
H524 C517 0.930 . S
H525 C539 0.930 . S
H526 C518 0.930 1_455 S
H527 C545 0.930 . S
H528 C536 0.930 . S
H529 C543 0.931 . S
H530 C507 0.929 . S
H531 C537 0.930 . S
H532 C570 0.930 . S
H533 C514 0.930 . S
H534 C569 0.929 . S
N535 Tb504 2.660 . S
N535 C536 1.305 . S
N535 C540 1.360 . S
C536 H528 0.930 . S
C536 N535 1.305 . S
C536 C539 1.407 . S
C537 H531 0.930 . S
C537 C538 1.410 . S
C537 C539 1.345 . S
C538 C537 1.410 . S
C538 C540 1.417 . S
C538 C570 1.432 . S
C539 H525 0.930 . S
C539 C536 1.407 . S
C539 C537 1.345 . S
C540 N535 1.360 . S
C540 C538 1.417 . S
C540 C544 1.432 . S
H541 C546 0.930 . S
N542 Tb504 2.600 . S
N542 C544 1.359 . S
N542 C545 1.327 . S
C543 H529 0.931 . S
C543 C545 1.392 . S
C543 C546 1.370 . S
C544 C540 1.432 . S
C544 N542 1.359 . S
C544 C547 1.414 . S
C545 H527 0.930 . S
C545 N542 1.327 . S
C545 C543 1.392 . S
C546 H541 0.930 . S
C546 C543 1.370 . S
C546 C547 1.385 . S
C547 C544 1.414 . S
C547 C546 1.385 . S
C547 C569 1.444 . S
O548 Tb504 2.546 . S
O548 C568 1.251 . S
O549 Tb504 2.610 . S
O549 Tb515 2.362 . S
O549 C560 1.283 . S
O550 Tb515 2.421 . S
O550 C567 1.262 . S
O551 Tb504 2.320 . S
O551 C567 1.260 . S
O552 Tb504 2.552 . S
O552 C560 1.243 . S
O553 Tb504 2.413 . S
O553 C568 1.256 . S
O554 Tb515 2.546 . S
O554 C579 1.251 . S
O555 Tb504 2.362 . S
O555 Tb515 2.610 . S
O555 C571 1.283 . S
O556 Tb504 2.421 . S
O556 C578 1.262 . S
O557 Tb515 2.320 . S
O557 C578 1.260 . S
O558 Tb515 2.552 . S
O558 C571 1.243 . S
O559 Tb515 2.413 . S
O559 C579 1.256 . S
C560 O549 1.283 . S
C560 O552 1.243 . S
C561 C563 1.382 . S
C561 C565 1.393 . S
C561 C568 1.500 . S
C562 C563 1.400 . S
C562 C564 1.384 . S
C563 C561 1.382 . S
C563 C562 1.400 . S
C563 H580 0.930 . S
C564 C562 1.384 . S
C564 C566 1.392 . S
C564 H581 0.931 . S
C565 C561 1.393 . S
C565 C566 1.401 . S
C565 H582 0.930 . S
C566 C564 1.392 . S
C566 C565 1.401 . S
C566 H583 0.930 . S
C567 O550 1.262 . S
C567 O551 1.260 . S
C568 Tb504 2.833 . S
C568 O548 1.251 . S
C568 O553 1.256 . S
C568 C561 1.500 . S
C569 H534 0.929 . S
C569 C547 1.444 . S
C569 C570 1.317 . S
C570 H532 0.930 . S
C570 C538 1.432 . S
C570 C569 1.317 . S
C571 O555 1.283 . S
C571 O558 1.243 . S
C572 C573 1.382 . S
C572 C576 1.393 . S
C572 C579 1.500 . S
C573 C572 1.382 . S
C573 C574 1.400 . S
C573 H584 0.930 . S
C574 C573 1.400 . S
C574 C575 1.384 . S
C575 C574 1.384 . S
C575 C577 1.392 . S
C575 H585 0.931 . S
C576 C572 1.393 . S
C576 C577 1.401 . S
C576 H586 0.930 . S
C577 C575 1.392 . S
C577 C576 1.401 . S
C577 H587 0.930 . S
C578 O556 1.262 . S
C578 O557 1.260 . S
C579 Tb515 2.833 . S
C579 O554 1.251 . S
C579 O559 1.256 . S
C579 C572 1.500 . S
H580 C563 0.930 . S
H581 C564 0.931 . S
H582 C565 0.930 . S
H583 C566 0.930 . S
H584 C573 0.930 . S
H585 C575 0.931 . S
H586 C576 0.930 . S
H587 C577 0.930 . S
Tb588 N619 2.660 . S
Tb588 N626 2.600 . S
Tb588 O632 2.546 . S
Tb588 O633 2.610 . S
Tb588 O635 2.320 . S
Tb588 O636 2.552 . S
Tb588 O637 2.413 . S
Tb588 O639 2.362 . S
Tb588 O640 2.421 . S
Tb588 C652 2.833 . S
C589 C592 1.432 . S
C589 C593 1.414 . S
C589 N596 1.359 . S
C590 C592 1.417 . S
C590 C594 1.432 . S
C590 C602 1.410 . S
C591 C593 1.444 . S
C591 C594 1.317 . S
C591 H614 0.929 . S
C592 C589 1.432 . S
C592 C590 1.417 . S
C592 N600 1.360 . S
C593 C589 1.414 . S
C593 C591 1.444 . S
C593 C598 1.385 . S
C594 C590 1.432 . S
C594 C591 1.317 . S
C594 H606 0.930 . S
C595 C597 1.392 . S
C595 C598 1.370 . S
C595 H607 0.931 . S
N596 C589 1.359 . S
N596 C597 1.327 . S
N596 Tb599 2.600 . S
C597 C595 1.392 . S
C597 N596 1.327 . S
C597 H604 0.930 . S
C598 C593 1.385 . S
C598 C595 1.370 . S
C598 H617 0.930 . S
Tb599 N596 2.600 . S
Tb599 N600 2.660 . S
Tb599 O633 2.362 . S
Tb599 O634 2.421 . S
Tb599 O638 2.546 . S
Tb599 O639 2.610 . S
Tb599 O641 2.320 . S
Tb599 O642 2.552 . S
Tb599 O643 2.413 . S
Tb599 C663 2.833 . S
N600 C592 1.360 . S
N600 Tb599 2.660 . S
N600 C601 1.305 . S
C601 N600 1.305 . S
C601 C603 1.407 . S
C601 H608 0.930 . S
C602 C590 1.410 . S
C602 C603 1.345 . S
C602 H610 0.930 . S
C603 C601 1.407 . S
C603 C602 1.345 . S
C603 H605 0.930 . S
H604 C597 0.930 . S
H605 C603 0.930 . S
H606 C594 0.930 . S
H607 C595 0.931 . S
H608 C601 0.930 . S
H609 C623 0.930 . S
H610 C602 0.930 . S
H611 C629 0.930 . S
H612 C620 0.930 . S
H613 C627 0.931 . S
H614 C591 0.929 . S
H615 C621 0.930 . S
H616 C654 0.930 . S
H617 C598 0.930 . S
H618 C653 0.929 . S
N619 Tb588 2.660 . S
N619 C620 1.305 . S
N619 C624 1.360 . S
C620 H612 0.930 . S
C620 N619 1.305 . S
C620 C623 1.407 . S
C621 H615 0.930 . S
C621 C622 1.410 . S
C621 C623 1.345 . S
C622 C621 1.410 . S
C622 C624 1.417 . S
C622 C654 1.432 . S
C623 H609 0.930 . S
C623 C620 1.407 . S
C623 C621 1.345 . S
C624 N619 1.360 . S
C624 C622 1.417 . S
C624 C628 1.432 . S
H625 C630 0.930 . S
N626 Tb588 2.600 . S
N626 C628 1.359 . S
N626 C629 1.327 . S
C627 H613 0.931 . S
C627 C629 1.392 1_556 S
C627 C630 1.370 . S
C628 C624 1.432 . S
C628 N626 1.359 . S
C628 C631 1.414 1_554 S
C629 H611 0.930 . S
C629 N626 1.327 . S
C629 C627 1.392 1_554 S
C630 H625 0.930 . S
C630 C627 1.370 . S
C630 C631 1.385 . S
C631 C628 1.414 1_556 S
C631 C630 1.385 . S
C631 C653 1.444 . S
O632 Tb588 2.546 . S
O632 C652 1.251 . S
O633 Tb588 2.610 . S
O633 Tb599 2.362 . S
O633 C644 1.283 . S
O634 Tb599 2.421 . S
O634 C651 1.262 . S
O635 Tb588 2.320 . S
O635 C651 1.260 . S
O636 Tb588 2.552 . S
O636 C644 1.243 . S
O637 Tb588 2.413 . S
O637 C652 1.256 . S
O638 Tb599 2.546 . S
O638 C663 1.251 . S
O639 Tb588 2.362 . S
O639 Tb599 2.610 . S
O639 C655 1.283 . S
O640 Tb588 2.421 . S
O640 C662 1.262 . S
O641 Tb599 2.320 . S
O641 C662 1.260 . S
O642 Tb599 2.552 . S
O642 C655 1.243 . S
O643 Tb599 2.413 . S
O643 C663 1.256 . S
C644 O633 1.283 . S
C644 O636 1.243 . S
C645 C647 1.382 . S
C645 C649 1.393 1_554 S
C645 C652 1.500 . S
C646 C647 1.400 1_556 S
C646 C648 1.384 . S
C647 C645 1.382 . S
C647 C646 1.400 1_554 S
C647 H664 0.930 . S
C648 C646 1.384 . S
C648 C650 1.392 . S
C648 H665 0.931 . S
C649 C645 1.393 1_556 S
C649 C650 1.401 . S
C649 H666 0.930 . S
C650 C648 1.392 . S
C650 C649 1.401 . S
C650 H667 0.930 . S
C651 O634 1.262 . S
C651 O635 1.260 . S
C652 Tb588 2.833 . S
C652 O632 1.251 . S
C652 O637 1.256 . S
C652 C645 1.500 . S
C653 H618 0.929 . S
C653 C631 1.444 . S
C653 C654 1.317 1_556 S
C654 H616 0.930 . S
C654 C622 1.432 . S
C654 C653 1.317 1_554 S
C655 O639 1.283 . S
C655 O642 1.243 . S
C656 C657 1.382 . S
C656 C660 1.393 . S
C656 C663 1.500 . S
C657 C656 1.382 . S
C657 C658 1.400 . S
C657 H668 0.930 . S
C658 C657 1.400 . S
C658 C659 1.384 . S
C659 C658 1.384 . S
C659 C661 1.392 . S
C659 H669 0.931 . S
C660 C656 1.393 . S
C660 C661 1.401 . S
C660 H670 0.930 . S
C661 C659 1.392 . S
C661 C660 1.401 . S
C661 H671 0.930 . S
C662 O640 1.262 . S
C662 O641 1.260 . S
C663 Tb599 2.833 . S
C663 O638 1.251 . S
C663 O643 1.256 . S
C663 C656 1.500 . S
H664 C647 0.930 . S
H665 C648 0.931 . S
H666 C649 0.930 . S
H667 C650 0.930 . S
H668 C657 0.930 . S
H669 C659 0.931 . S
H670 C660 0.930 . S
H671 C661 0.930 . S
Tb672 N703 2.660 . S
Tb672 N710 2.600 . S
Tb672 O716 2.546 1_554 S
Tb672 O717 2.612 . S
Tb672 O719 2.320 1_554 S
Tb672 O720 2.552 1_554 S
Tb672 O721 2.413 1_554 S
Tb672 O723 2.362 . S
Tb672 O724 2.421 . S
Tb672 C736 2.833 1_554 S
C673 C676 1.432 1_556 S
C673 C677 1.414 . S
C673 N680 1.359 1_556 S
C674 C676 1.417 1_556 S
C674 C678 1.432 . S
C674 C686 1.410 1_556 S
C675 C677 1.444 . S
C675 C678 1.317 . S
C675 H698 0.929 . S
C676 C673 1.432 1_554 S
C676 C674 1.417 1_554 S
C676 N684 1.360 . S
C677 C673 1.414 . S
C677 C675 1.444 . S
C677 C682 1.385 . S
C678 C674 1.432 . S
C678 C675 1.317 . S
C678 H690 0.930 . S
C679 C681 1.402 . S
C679 C682 1.370 . S
C679 H691 0.931 . S
N680 C673 1.359 1_554 S
N680 C681 1.323 1_554 S
N680 Tb683 2.600 . S
C681 C679 1.402 . S
C681 N680 1.323 1_556 S
C681 H688 0.925 1_556 S
C682 C677 1.385 . S
C682 C679 1.370 . S
C682 H701 0.930 . S
Tb683 N680 2.600 . S
Tb683 N684 2.660 . S
Tb683 O717 2.370 . S
Tb683 O718 2.421 . S
Tb683 O722 2.546 . S
Tb683 O723 2.610 . S
Tb683 O725 2.320 . S
Tb683 O726 2.552 . S
Tb683 O727 2.413 . S
Tb683 C747 2.833 . S
N684 C676 1.360 . S
N684 Tb683 2.660 . S
N684 C685 1.305 . S
C685 N684 1.305 . S
C685 C687 1.407 . S
C685 H692 0.930 . S
C686 C674 1.410 1_554 S
C686 C687 1.345 . S
C686 H694 0.930 1_554 S
C687 C685 1.407 . S
C687 C686 1.345 . S
C687 H689 0.930 . S
H688 C681 0.925 1_554 S
H689 C687 0.930 . S
H690 C678 0.930 . S
H691 C679 0.931 . S
H692 C685 0.930 . S
H693 C707 0.930 . S
H694 C686 0.930 1_556 S
H695 C713 0.930 . S
H696 C704 0.930 . S
H697 C711 0.931 . S
H698 C675 0.929 . S
H699 C705 0.930 . S
H700 C738 0.930 . S
H701 C682 0.930 . S
H702 C737 0.929 . S
N703 Tb672 2.660 . S
N703 C704 1.305 . S
N703 C708 1.360 . S
C704 H696 0.930 . S
C704 N703 1.305 . S
C704 C707 1.407 . S
C705 H699 0.930 . S
C705 C706 1.410 . S
C705 C707 1.345 . S
C706 C705 1.410 . S
C706 C708 1.417 . S
C706 C738 1.432 . S
C707 H693 0.930 . S
C707 C704 1.407 . S
C707 C705 1.345 . S
C708 N703 1.360 . S
C708 C706 1.417 . S
C708 C712 1.432 . S
H709 C714 0.930 . S
N710 Tb672 2.600 . S
N710 C712 1.359 . S
N710 C713 1.327 . S
C711 H697 0.931 . S
C711 C713 1.392 . S
C711 C714 1.370 . S
C712 C708 1.432 . S
C712 N710 1.359 . S
C712 C715 1.414 . S
C713 H695 0.930 . S
C713 N710 1.327 . S
C713 C711 1.392 . S
C714 H709 0.930 . S
C714 C711 1.370 . S
C714 C715 1.385 . S
C715 C712 1.414 . S
C715 C714 1.385 . S
C715 C737 1.444 . S
O716 Tb672 2.546 1_556 S
O716 C736 1.251 . S
O717 Tb672 2.612 . S
O717 Tb683 2.370 . S
O717 C728 1.274 1_554 S
O718 Tb683 2.421 . S
O718 C735 1.262 1_554 S
O719 Tb672 2.320 1_556 S
O719 C735 1.260 . S
O720 Tb672 2.552 1_556 S
O720 C728 1.243 . S
O721 Tb672 2.413 1_556 S
O721 C736 1.256 . S
O722 Tb683 2.546 . S
O722 C747 1.251 . S
O723 Tb672 2.362 . S
O723 Tb683 2.610 . S
O723 C739 1.283 . S
O724 Tb672 2.421 . S
O724 C746 1.262 . S
O725 Tb683 2.320 . S
O725 C746 1.260 . S
O726 Tb683 2.552 . S
O726 C739 1.243 . S
O727 Tb683 2.413 . S
O727 C747 1.256 . S
C728 O717 1.274 1_556 S
C728 O720 1.243 . S
C729 C731 1.382 . S
C729 C733 1.393 . S
C729 C736 1.500 . S
C730 C731 1.400 . S
C730 C732 1.384 . S
C731 C729 1.382 . S
C731 C730 1.400 . S
C731 H748 0.930 . S
C732 C730 1.384 . S
C732 C734 1.392 . S
C732 H749 0.931 . S
C733 C729 1.393 . S
C733 C734 1.401 . S
C733 H750 0.930 . S
C734 C732 1.392 . S
C734 C733 1.401 . S
C734 H751 0.930 . S
C735 O718 1.262 1_556 S
C735 O719 1.260 . S
C736 Tb672 2.833 1_556 S
C736 O716 1.251 . S
C736 O721 1.256 . S
C736 C729 1.500 . S
C737 H702 0.929 . S
C737 C715 1.444 . S
C737 C738 1.317 . S
C738 H700 0.930 . S
C738 C706 1.432 . S
C738 C737 1.317 . S
C739 O723 1.283 . S
C739 O726 1.243 . S
C740 C741 1.382 . S
C740 C744 1.393 . S
C740 C747 1.500 . S
C741 C740 1.382 . S
C741 C742 1.400 . S
C741 H752 0.930 . S
C742 C741 1.400 . S
C742 C743 1.384 . S
C743 C742 1.384 . S
C743 C745 1.392 . S
C743 H753 0.931 . S
C744 C740 1.393 . S
C744 C745 1.401 . S
C744 H754 0.930 . S
C745 C743 1.392 . S
C745 C744 1.401 . S
C745 H755 0.930 . S
C746 O724 1.262 . S
C746 O725 1.260 . S
C747 Tb683 2.833 . S
C747 O722 1.251 . S
C747 O727 1.256 . S
C747 C740 1.500 . S
H748 C731 0.930 . S
H749 C732 0.931 . S
H750 C733 0.930 . S
H751 C734 0.930 . S
H752 C741 0.930 . S
H753 C743 0.931 . S
H754 C744 0.930 . S
H755 C745 0.930 . S
Tb756 N787 2.660 . S
Tb756 N794 2.600 . S
Tb756 O800 2.546 1_556 S
Tb756 O801 2.612 . S
Tb756 O803 2.320 1_556 S
Tb756 O804 2.552 1_556 S
Tb756 O805 2.413 1_556 S
Tb756 O807 2.362 . S
Tb756 O808 2.421 . S
Tb756 C820 2.833 1_556 S
C757 C760 1.432 1_554 S
C757 C761 1.414 . S
C757 N764 1.359 1_554 S
C758 C760 1.417 1_554 S
C758 C762 1.432 . S
C758 C770 1.410 1_554 S
C759 C761 1.444 . S
C759 C762 1.317 . S
C759 H782 0.929 . S
C760 C757 1.432 1_556 S
C760 C758 1.417 1_556 S
C760 N768 1.360 . S
C761 C757 1.414 . S
C761 C759 1.444 . S
C761 C766 1.385 . S
C762 C758 1.432 . S
C762 C759 1.317 . S
C762 H774 0.930 . S
C763 C765 1.402 . S
C763 C766 1.370 . S
C763 H775 0.931 . S
N764 C757 1.359 1_556 S
N764 C765 1.323 1_556 S
N764 Tb767 2.600 . S
C765 C763 1.402 . S
C765 N764 1.323 1_554 S
C765 H772 0.925 1_554 S
C766 C761 1.385 . S
C766 C763 1.370 . S
C766 H785 0.930 . S
Tb767 N764 2.600 . S
Tb767 N768 2.660 . S
Tb767 O801 2.370 . S
Tb767 O802 2.421 . S
Tb767 O806 2.546 . S
Tb767 O807 2.610 . S
Tb767 O809 2.320 . S
Tb767 O810 2.552 . S
Tb767 O811 2.413 . S
Tb767 C831 2.833 . S
N768 C760 1.360 . S
N768 Tb767 2.660 . S
N768 C769 1.305 . S
C769 N768 1.305 . S
C769 C771 1.407 . S
C769 H776 0.930 . S
C770 C758 1.410 1_556 S
C770 C771 1.345 . S
C770 H778 0.930 1_546 S
C771 C769 1.407 . S
C771 C770 1.345 . S
C771 H773 0.930 . S
H772 C765 0.925 1_556 S
H773 C771 0.930 . S
H774 C762 0.930 . S
H775 C763 0.931 . S
H776 C769 0.930 . S
H777 C791 0.930 . S
H778 C770 0.930 1_564 S
H779 C797 0.930 . S
H780 C788 0.930 . S
H781 C795 0.931 . S
H782 C759 0.929 . S
H783 C789 0.930 . S
H784 C822 0.930 . S
H785 C766 0.930 . S
H786 C821 0.929 . S
N787 Tb756 2.660 . S
N787 C788 1.305 . S
N787 C792 1.360 . S
C788 H780 0.930 . S
C788 N787 1.305 . S
C788 C791 1.407 . S
C789 H783 0.930 . S
C789 C790 1.410 . S
C789 C791 1.345 . S
C790 C789 1.410 . S
C790 C792 1.417 . S
C790 C822 1.432 . S
C791 H777 0.930 . S
C791 C788 1.407 . S
C791 C789 1.345 . S
C792 N787 1.360 . S
C792 C790 1.417 . S
C792 C796 1.432 . S
H793 C798 0.930 . S
N794 Tb756 2.600 . S
N794 C796 1.359 . S
N794 C797 1.327 . S
C795 H781 0.931 . S
C795 C797 1.392 1_455 S
C795 C798 1.370 . S
C796 C792 1.432 . S
C796 N794 1.359 . S
C796 C799 1.414 1_655 S
C797 H779 0.930 . S
C797 N794 1.327 . S
C797 C795 1.392 1_655 S
C798 H793 0.930 . S
C798 C795 1.370 . S
C798 C799 1.385 . S
C799 C796 1.414 1_455 S
C799 C798 1.385 . S
C799 C821 1.444 . S
O800 Tb756 2.546 1_554 S
O800 C820 1.251 . S
O801 Tb756 2.612 . S
O801 Tb767 2.370 . S
O801 C812 1.274 1_556 S
O802 Tb767 2.421 . S
O802 C819 1.262 1_556 S
O803 Tb756 2.320 1_554 S
O803 C819 1.260 . S
O804 Tb756 2.552 1_554 S
O804 C812 1.243 . S
O805 Tb756 2.413 1_554 S
O805 C820 1.256 . S
O806 Tb767 2.546 . S
O806 C831 1.251 . S
O807 Tb756 2.362 . S
O807 Tb767 2.610 . S
O807 C823 1.283 . S
O808 Tb756 2.421 . S
O808 C830 1.262 . S
O809 Tb767 2.320 . S
O809 C830 1.260 . S
O810 Tb767 2.552 . S
O810 C823 1.243 . S
O811 Tb767 2.413 . S
O811 C831 1.256 . S
C812 O801 1.274 1_554 S
C812 O804 1.243 . S
C813 C815 1.382 . S
C813 C817 1.393 1_655 S
C813 C820 1.500 . S
C814 C815 1.400 1_455 S
C814 C816 1.384 . S
C815 C813 1.382 . S
C815 C814 1.400 1_655 S
C815 H832 0.930 . S
C816 C814 1.384 . S
C816 C818 1.392 . S
C816 H833 0.931 . S
C817 C813 1.393 1_455 S
C817 C818 1.401 . S
C817 H834 0.930 . S
C818 C816 1.392 . S
C818 C817 1.401 . S
C818 H835 0.930 . S
C819 O802 1.262 1_554 S
C819 O803 1.260 . S
C820 Tb756 2.833 1_554 S
C820 O800 1.251 . S
C820 O805 1.256 . S
C820 C813 1.500 . S
C821 H786 0.929 . S
C821 C799 1.444 . S
C821 C822 1.317 1_455 S
C822 H784 0.930 . S
C822 C790 1.432 . S
C822 C821 1.317 1_655 S
C823 O807 1.283 . S
C823 O810 1.243 . S
C824 C825 1.382 . S
C824 C828 1.393 . S
C824 C831 1.500 . S
C825 C824 1.382 . S
C825 C826 1.400 . S
C825 H836 0.930 . S
C826 C825 1.400 . S
C826 C827 1.384 . S
C827 C826 1.384 . S
C827 C829 1.392 . S
C827 H837 0.931 . S
C828 C824 1.393 . S
C828 C829 1.401 . S
C828 H838 0.930 . S
C829 C827 1.392 . S
C829 C828 1.401 . S
C829 H839 0.930 . S
C830 O808 1.262 . S
C830 O809 1.260 . S
C831 Tb767 2.833 . S
C831 O806 1.251 . S
C831 O811 1.256 . S
C831 C824 1.500 . S
H832 C815 0.930 . S
H833 C816 0.931 . S
H834 C817 0.930 . S
H835 C818 0.930 . S
H836 C825 0.930 . S
H837 C827 0.931 . S
H838 C828 0.930 . S
H839 C829 0.930 . S
Tb840 N871 2.660 . S
Tb840 N878 2.600 . S
Tb840 O884 2.546 . S
Tb840 O885 2.610 . S
Tb840 O887 2.320 . S
Tb840 O888 2.552 . S
Tb840 O889 2.413 . S
Tb840 O891 2.362 . S
Tb840 O892 2.421 . S
Tb840 C904 2.833 . S
C841 C844 1.432 . S
C841 C845 1.414 . S
C841 N848 1.359 . S
C842 C844 1.417 . S
C842 C846 1.432 . S
C842 C854 1.410 . S
C843 C845 1.444 . S
C843 C846 1.317 . S
C843 H866 0.929 . S
C844 C841 1.432 . S
C844 C842 1.417 . S
C844 N852 1.360 . S
C845 C841 1.414 . S
C845 C843 1.444 . S
C845 C850 1.385 . S
C846 C842 1.432 . S
C846 C843 1.317 . S
C846 H858 0.930 . S
C847 C849 1.392 . S
C847 C850 1.370 . S
C847 H859 0.931 . S
N848 C841 1.359 . S
N848 C849 1.327 . S
N848 Tb851 2.600 . S
C849 C847 1.392 . S
C849 N848 1.327 . S
C849 H856 0.930 . S
C850 C845 1.385 . S
C850 C847 1.370 . S
C850 H869 0.930 . S
Tb851 N848 2.600 . S
Tb851 N852 2.660 . S
Tb851 O885 2.362 . S
Tb851 O886 2.421 . S
Tb851 O890 2.546 . S
Tb851 O891 2.610 . S
Tb851 O893 2.320 . S
Tb851 O894 2.552 . S
Tb851 O895 2.413 . S
Tb851 C915 2.833 . S
N852 C844 1.360 . S
N852 Tb851 2.660 . S
N852 C853 1.305 . S
C853 N852 1.305 . S
C853 C855 1.407 . S
C853 H860 0.930 . S
C854 C842 1.410 . S
C854 C855 1.345 . S
C854 H862 0.930 1_565 S
C855 C853 1.407 . S
C855 C854 1.345 . S
C855 H857 0.930 . S
H856 C849 0.930 . S
H857 C855 0.930 . S
H858 C846 0.930 . S
H859 C847 0.931 . S
H860 C853 0.930 . S
H861 C875 0.930 . S
H862 C854 0.930 1_545 S
H863 C881 0.930 . S
H864 C872 0.930 . S
H865 C879 0.931 . S
H866 C843 0.929 . S
H867 C873 0.930 . S
H868 C906 0.930 . S
H869 C850 0.930 . S
H870 C905 0.929 . S
N871 Tb840 2.660 . S
N871 C872 1.305 . S
N871 C876 1.360 . S
C872 H864 0.930 . S
C872 N871 1.305 . S
C872 C875 1.407 . S
C873 H867 0.930 . S
C873 C874 1.410 . S
C873 C875 1.345 . S
C874 C873 1.410 . S
C874 C876 1.417 . S
C874 C906 1.432 . S
C875 H861 0.930 . S
C875 C872 1.407 . S
C875 C873 1.345 . S
C876 N871 1.360 . S
C876 C874 1.417 . S
C876 C880 1.432 . S
H877 C882 0.930 . S
N878 Tb840 2.600 . S
N878 C880 1.359 . S
N878 C881 1.327 . S
C879 H865 0.931 . S
C879 C881 1.392 . S
C879 C882 1.370 . S
C880 C876 1.432 . S
C880 N878 1.359 . S
C880 C883 1.414 . S
C881 H863 0.930 . S
C881 N878 1.327 . S
C881 C879 1.392 . S
C882 H877 0.930 . S
C882 C879 1.370 . S
C882 C883 1.385 . S
C883 C880 1.414 . S
C883 C882 1.385 . S
C883 C905 1.444 . S
O884 Tb840 2.546 . S
O884 C904 1.251 . S
O885 Tb840 2.610 . S
O885 Tb851 2.362 . S
O885 C896 1.283 . S
O886 Tb851 2.421 . S
O886 C903 1.262 . S
O887 Tb840 2.320 . S
O887 C903 1.260 . S
O888 Tb840 2.552 . S
O888 C896 1.243 . S
O889 Tb840 2.413 . S
O889 C904 1.256 . S
O890 Tb851 2.546 . S
O890 C915 1.251 . S
O891 Tb840 2.362 . S
O891 Tb851 2.610 . S
O891 C907 1.283 . S
O892 Tb840 2.421 . S
O892 C914 1.262 . S
O893 Tb851 2.320 . S
O893 C914 1.260 . S
O894 Tb851 2.552 . S
O894 C907 1.243 . S
O895 Tb851 2.413 . S
O895 C915 1.256 . S
C896 O885 1.283 . S
C896 O888 1.243 . S
C897 C899 1.382 . S
C897 C901 1.393 . S
C897 C904 1.500 . S
C898 C899 1.400 . S
C898 C900 1.384 . S
C899 C897 1.382 . S
C899 C898 1.400 . S
C899 H916 0.930 . S
C900 C898 1.384 . S
C900 C902 1.392 . S
C900 H917 0.931 . S
C901 C897 1.393 . S
C901 C902 1.401 . S
C901 H918 0.930 . S
C902 C900 1.392 . S
C902 C901 1.401 . S
C902 H919 0.930 . S
C903 O886 1.262 . S
C903 O887 1.260 . S
C904 Tb840 2.833 . S
C904 O884 1.251 . S
C904 O889 1.256 . S
C904 C897 1.500 . S
C905 H870 0.929 . S
C905 C883 1.444 . S
C905 C906 1.317 . S
C906 H868 0.930 . S
C906 C874 1.432 . S
C906 C905 1.317 . S
C907 O891 1.283 . S
C907 O894 1.243 . S
C908 C909 1.382 . S
C908 C912 1.393 . S
C908 C915 1.500 . S
C909 C908 1.382 . S
C909 C910 1.400 . S
C909 H920 0.930 . S
C910 C909 1.400 . S
C910 C911 1.384 . S
C911 C910 1.384 . S
C911 C913 1.392 . S
C911 H921 0.931 . S
C912 C908 1.393 . S
C912 C913 1.401 . S
C912 H922 0.930 . S
C913 C911 1.392 . S
C913 C912 1.401 . S
C913 H923 0.930 . S
C914 O892 1.262 . S
C914 O893 1.260 . S
C915 Tb851 2.833 . S
C915 O890 1.251 . S
C915 O895 1.256 . S
C915 C908 1.500 . S
H916 C899 0.930 . S
H917 C900 0.931 . S
H918 C901 0.930 . S
H919 C902 0.930 . S
H920 C909 0.930 . S
H921 C911 0.931 . S
H922 C912 0.930 . S
H923 C913 0.930 . S
Tb924 N955 2.660 . S
Tb924 N962 2.600 . S
Tb924 O968 2.546 . S
Tb924 O969 2.610 . S
Tb924 O971 2.320 . S
Tb924 O972 2.552 . S
Tb924 O973 2.413 . S
Tb924 O975 2.362 . S
Tb924 O976 2.421 . S
Tb924 C988 2.833 . S
C925 C928 1.432 . S
C925 C929 1.414 . S
C925 N932 1.359 . S
C926 C928 1.417 . S
C926 C930 1.432 . S
C926 C938 1.410 . S
C927 C929 1.444 . S
C927 C930 1.317 . S
C927 H950 0.929 . S
C928 C925 1.432 . S
C928 C926 1.417 . S
C928 N936 1.360 . S
C929 C925 1.414 . S
C929 C927 1.444 . S
C929 C934 1.385 . S
C930 C926 1.432 . S
C930 C927 1.317 . S
C930 H942 0.930 . S
C931 C933 1.392 . S
C931 C934 1.370 . S
C931 H943 0.931 . S
N932 C925 1.359 . S
N932 C933 1.327 . S
N932 Tb935 2.600 . S
C933 C931 1.392 . S
C933 N932 1.327 . S
C933 H940 0.930 . S
C934 C929 1.385 . S
C934 C931 1.370 . S
C934 H953 0.930 . S
Tb935 N932 2.600 . S
Tb935 N936 2.660 . S
Tb935 O969 2.362 . S
Tb935 O970 2.421 . S
Tb935 O974 2.546 . S
Tb935 O975 2.610 . S
Tb935 O977 2.320 . S
Tb935 O978 2.552 . S
Tb935 O979 2.413 . S
Tb935 C999 2.833 . S
N936 C928 1.360 . S
N936 Tb935 2.660 . S
N936 C937 1.305 . S
C937 N936 1.305 . S
C937 C939 1.407 . S
C937 H944 0.930 . S
C938 C926 1.410 . S
C938 C939 1.345 . S
C938 H946 0.930 . S
C939 C937 1.407 . S
C939 C938 1.345 . S
C939 H941 0.930 . S
H940 C933 0.930 . S
H941 C939 0.930 . S
H942 C930 0.930 . S
H943 C931 0.931 . S
H944 C937 0.930 . S
H945 C959 0.930 . S
H946 C938 0.930 . S
H947 C965 0.930 . S
H948 C956 0.930 . S
H949 C963 0.931 . S
H950 C927 0.929 . S
H951 C957 0.930 . S
H952 C990 0.930 . S
H953 C934 0.930 . S
H954 C989 0.929 . S
N955 Tb924 2.660 . S
N955 C956 1.305 . S
N955 C960 1.360 . S
C956 H948 0.930 . S
C956 N955 1.305 . S
C956 C959 1.407 . S
C957 H951 0.930 . S
C957 C958 1.410 . S
C957 C959 1.345 . S
C958 C957 1.410 . S
C958 C960 1.417 . S
C958 C990 1.432 . S
C959 H945 0.930 . S
C959 C956 1.407 . S
C959 C957 1.345 . S
C960 N955 1.360 . S
C960 C958 1.417 . S
C960 C964 1.432 . S
H961 C966 0.930 . S
N962 Tb924 2.600 . S
N962 C964 1.359 . S
N962 C965 1.327 . S
C963 H949 0.931 . S
C963 C965 1.392 1_655 S
C963 C966 1.370 . S
C964 C960 1.432 . S
C964 N962 1.359 . S
C964 C967 1.414 1_455 S
C965 H947 0.930 . S
C965 N962 1.327 . S
C965 C963 1.392 1_455 S
C966 H961 0.930 . S
C966 C963 1.370 . S
C966 C967 1.385 . S
C967 C964 1.414 1_655 S
C967 C966 1.385 . S
C967 C989 1.444 . S
O968 Tb924 2.546 . S
O968 C988 1.251 . S
O969 Tb924 2.610 . S
O969 Tb935 2.362 . S
O969 C980 1.283 . S
O970 Tb935 2.421 . S
O970 C987 1.262 . S
O971 Tb924 2.320 . S
O971 C987 1.260 . S
O972 Tb924 2.552 . S
O972 C980 1.243 . S
O973 Tb924 2.413 . S
O973 C988 1.256 . S
O974 Tb935 2.546 . S
O974 C999 1.251 . S
O975 Tb924 2.362 . S
O975 Tb935 2.610 . S
O975 C991 1.283 . S
O976 Tb924 2.421 . S
O976 C998 1.262 . S
O977 Tb935 2.320 . S
O977 C998 1.260 . S
O978 Tb935 2.552 . S
O978 C991 1.243 . S
O979 Tb935 2.413 . S
O979 C999 1.256 . S
C980 O969 1.283 . S
C980 O972 1.243 . S
C981 C983 1.382 . S
C981 C985 1.393 1_455 S
C981 C988 1.500 . S
C982 C983 1.400 1_655 S
C982 C984 1.384 . S
C983 C981 1.382 . S
C983 C982 1.400 1_455 S
C983 H1000 0.930 . S
C984 C982 1.384 . S
C984 C986 1.392 . S
C984 H1001 0.931 . S
C985 C981 1.393 1_655 S
C985 C986 1.401 . S
C985 H1002 0.930 . S
C986 C984 1.392 . S
C986 C985 1.401 . S
C986 H1003 0.930 . S
C987 O970 1.262 . S
C987 O971 1.260 . S
C988 Tb924 2.833 . S
C988 O968 1.251 . S
C988 O973 1.256 . S
C988 C981 1.500 . S
C989 H954 0.929 . S
C989 C967 1.444 . S
C989 C990 1.317 1_655 S
C990 H952 0.930 . S
C990 C958 1.432 . S
C990 C989 1.317 1_455 S
C991 O975 1.283 . S
C991 O978 1.243 . S
C992 C993 1.382 . S
C992 C996 1.393 . S
C992 C999 1.500 . S
C993 C992 1.382 . S
C993 C994 1.400 . S
C993 H1004 0.930 . S
C994 C993 1.400 . S
C994 C995 1.384 . S
C995 C994 1.384 . S
C995 C997 1.392 . S
C995 H1005 0.931 . S
C996 C992 1.393 . S
C996 C997 1.401 . S
C996 H1006 0.930 . S
C997 C995 1.392 . S
C997 C996 1.401 . S
C997 H1007 0.930 . S
C998 O976 1.262 . S
C998 O977 1.260 . S
C999 Tb935 2.833 . S
C999 O974 1.251 . S
C999 O979 1.256 . S
C999 C992 1.500 . S
H1000 C983 0.930 . S
H1001 C984 0.931 . S
H1002 C985 0.930 . S
H1003 C986 0.930 . S
H1004 C993 0.930 . S
H1005 C995 0.931 . S
H1006 C996 0.930 . S
H1007 C997 0.930 . S
Tb1008 N1039 2.660 . S
Tb1008 N1046 2.600 . S
Tb1008 O1052 2.546 . S
Tb1008 O1053 2.610 . S
Tb1008 O1055 2.320 . S
Tb1008 O1056 2.552 . S
Tb1008 O1057 2.413 . S
Tb1008 O1059 2.370 . S
Tb1008 O1060 2.421 . S
Tb1008 C1072 2.833 . S
C1009 C1012 1.432 . S
C1009 C1013 1.414 . S
C1009 N1016 1.359 . S
C1010 C1012 1.417 . S
C1010 C1014 1.432 . S
C1010 C1022 1.410 . S
C1011 C1013 1.444 . S
C1011 C1014 1.317 . S
C1011 H1034 0.929 . S
C1012 C1009 1.432 . S
C1012 C1010 1.417 . S
C1012 N1020 1.360 . S
C1013 C1009 1.414 . S
C1013 C1011 1.444 . S
C1013 C1018 1.385 . S
C1014 C1010 1.432 . S
C1014 C1011 1.317 . S
C1014 H1026 0.930 . S
C1015 C1017 1.392 . S
C1015 C1018 1.370 . S
C1015 H1027 0.931 . S
N1016 C1009 1.359 . S
N1016 C1017 1.327 . S
N1016 Tb1019 2.600 . S
C1017 C1015 1.392 . S
C1017 N1016 1.327 . S
C1017 H1024 0.930 . S
C1018 C1013 1.385 . S
C1018 C1015 1.370 . S
C1018 H1037 0.930 . S
Tb1019 N1016 2.600 . S
Tb1019 N1020 2.660 . S
Tb1019 O1053 2.362 . S
Tb1019 O1054 2.421 . S
Tb1019 O1058 2.546 1_655 S
Tb1019 O1059 2.612 . S
Tb1019 O1061 2.320 1_655 S
Tb1019 O1062 2.552 1_655 S
Tb1019 O1063 2.413 1_655 S
Tb1019 C1083 2.833 1_655 S
N1020 C1012 1.360 . S
N1020 Tb1019 2.660 . S
N1020 C1021 1.305 . S
C1021 N1020 1.305 . S
C1021 C1023 1.407 . S
C1021 H1028 0.930 . S
C1022 C1010 1.410 . S
C1022 C1023 1.345 . S
C1022 H1030 0.930 . S
C1023 C1021 1.407 . S
C1023 C1022 1.345 . S
C1023 H1025 0.930 . S
H1024 C1017 0.930 . S
H1025 C1023 0.930 . S
H1026 C1014 0.930 . S
H1027 C1015 0.931 . S
H1028 C1021 0.930 . S
H1029 C1043 0.930 . S
H1030 C1022 0.930 . S
H1031 C1049 0.925 1_655 S
H1032 C1040 0.930 . S
H1033 C1047 0.931 . S
H1034 C1011 0.929 . S
H1035 C1041 0.930 1_455 S
H1036 C1074 0.930 . S
H1037 C1018 0.930 . S
H1038 C1073 0.929 . S
N1039 Tb1008 2.660 . S
N1039 C1040 1.305 . S
N1039 C1044 1.360 . S
C1040 H1032 0.930 . S
C1040 N1039 1.305 . S
C1040 C1043 1.407 . S
C1041 H1035 0.930 1_655 S
C1041 C1042 1.410 1_655 S
C1041 C1043 1.345 . S
C1042 C1041 1.410 1_455 S
C1042 C1044 1.417 1_455 S
C1042 C1074 1.432 . S
C1043 H1029 0.930 . S
C1043 C1040 1.407 . S
C1043 C1041 1.345 . S
C1044 N1039 1.360 . S
C1044 C1042 1.417 1_655 S
C1044 C1048 1.432 1_655 S
H1045 C1050 0.930 . S
N1046 Tb1008 2.600 . S
N1046 C1048 1.359 1_655 S
N1046 C1049 1.323 1_655 S
C1047 H1033 0.931 . S
C1047 C1049 1.402 . S
C1047 C1050 1.370 . S
C1048 C1044 1.432 1_455 S
C1048 N1046 1.359 1_455 S
C1048 C1051 1.414 . S
C1049 H1031 0.925 1_455 S
C1049 N1046 1.323 1_455 S
C1049 C1047 1.402 . S
C1050 H1045 0.930 . S
C1050 C1047 1.370 . S
C1050 C1051 1.385 . S
C1051 C1048 1.414 . S
C1051 C1050 1.385 . S
C1051 C1073 1.444 . S
O1052 Tb1008 2.546 . S
O1052 C1072 1.251 . S
O1053 Tb1008 2.610 . S
O1053 Tb1019 2.362 . S
O1053 C1064 1.283 . S
O1054 Tb1019 2.421 . S
O1054 C1071 1.262 . S
O1055 Tb1008 2.320 . S
O1055 C1071 1.260 . S
O1056 Tb1008 2.552 . S
O1056 C1064 1.243 . S
O1057 Tb1008 2.413 . S
O1057 C1072 1.256 . S
O1058 Tb1019 2.546 1_455 S
O1058 C1083 1.251 . S
O1059 Tb1008 2.370 . S
O1059 Tb1019 2.612 . S
O1059 C1075 1.274 1_655 S
O1060 Tb1008 2.421 . S
O1060 C1082 1.262 1_655 S
O1061 Tb1019 2.320 1_455 S
O1061 C1082 1.260 . S
O1062 Tb1019 2.552 1_455 S
O1062 C1075 1.243 . S
O1063 Tb1019 2.413 1_455 S
O1063 C1083 1.256 . S
C1064 O1053 1.283 . S
C1064 O1056 1.243 . S
C1065 C1067 1.382 . S
C1065 C1069 1.393 . S
C1065 C1072 1.500 . S
C1066 C1067 1.400 . S
C1066 C1068 1.384 . S
C1067 C1065 1.382 . S
C1067 C1066 1.400 . S
C1067 H1084 0.930 . S
C1068 C1066 1.384 . S
C1068 C1070 1.392 . S
C1068 H1085 0.931 . S
C1069 C1065 1.393 . S
C1069 C1070 1.401 . S
C1069 H1086 0.930 . S
C1070 C1068 1.392 . S
C1070 C1069 1.401 . S
C1070 H1087 0.930 . S
C1071 O1054 1.262 . S
C1071 O1055 1.260 . S
C1072 Tb1008 2.833 . S
C1072 O1052 1.251 . S
C1072 O1057 1.256 . S
C1072 C1065 1.500 . S
C1073 H1038 0.929 . S
C1073 C1051 1.444 . S
C1073 C1074 1.317 . S
C1074 H1036 0.930 . S
C1074 C1042 1.432 . S
C1074 C1073 1.317 . S
C1075 O1059 1.274 1_455 S
C1075 O1062 1.243 . S
C1076 C1077 1.382 . S
C1076 C1080 1.393 . S
C1076 C1083 1.500 . S
C1077 C1076 1.382 . S
C1077 C1078 1.400 . S
C1077 H1088 0.930 . S
C1078 C1077 1.400 . S
C1078 C1079 1.384 . S
C1079 C1078 1.384 . S
C1079 C1081 1.392 . S
C1079 H1089 0.931 . S
C1080 C1076 1.393 . S
C1080 C1081 1.401 . S
C1080 H1090 0.930 . S
C1081 C1079 1.392 . S
C1081 C1080 1.401 . S
C1081 H1091 0.930 . S
C1082 O1060 1.262 1_455 S
C1082 O1061 1.260 . S
C1083 Tb1019 2.833 1_455 S
C1083 O1058 1.251 . S
C1083 O1063 1.256 . S
C1083 C1076 1.500 . S
H1084 C1067 0.930 . S
H1085 C1068 0.931 . S
H1086 C1069 0.930 . S
H1087 C1070 0.930 . S
H1088 C1077 0.930 . S
H1089 C1079 0.931 . S
H1090 C1080 0.930 . S
H1091 C1081 0.930 . S
Tb1092 N1123 2.660 . S
Tb1092 N1130 2.600 . S
Tb1092 O1136 2.546 . S
Tb1092 O1137 2.610 . S
Tb1092 O1139 2.320 . S
Tb1092 O1140 2.552 . S
Tb1092 O1141 2.413 . S
Tb1092 O1143 2.362 . S
Tb1092 O1144 2.421 . S
Tb1092 C1156 2.833 . S
C1093 C1096 1.432 . S
C1093 C1097 1.414 . S
C1093 N1100 1.359 . S
C1094 C1096 1.417 . S
C1094 C1098 1.432 . S
C1094 C1106 1.410 . S
C1095 C1097 1.444 . S
C1095 C1098 1.317 . S
C1095 H1118 0.929 . S
C1096 C1093 1.432 . S
C1096 C1094 1.417 . S
C1096 N1104 1.360 . S
C1097 C1093 1.414 . S
C1097 C1095 1.444 . S
C1097 C1102 1.385 . S
C1098 C1094 1.432 . S
C1098 C1095 1.317 . S
C1098 H1110 0.930 . S
C1099 C1101 1.392 . S
C1099 C1102 1.370 . S
C1099 H1111 0.931 . S
N1100 C1093 1.359 . S
N1100 C1101 1.327 . S
N1100 Tb1103 2.600 . S
C1101 C1099 1.392 . S
C1101 N1100 1.327 . S
C1101 H1108 0.930 . S
C1102 C1097 1.385 . S
C1102 C1099 1.370 . S
C1102 H1121 0.930 . S
Tb1103 N1100 2.600 . S
Tb1103 N1104 2.660 . S
Tb1103 O1137 2.362 . S
Tb1103 O1138 2.421 . S
Tb1103 O1142 2.546 . S
Tb1103 O1143 2.610 . S
Tb1103 O1145 2.320 . S
Tb1103 O1146 2.552 . S
Tb1103 O1147 2.413 . S
Tb1103 C1167 2.833 . S
N1104 C1096 1.360 . S
N1104 Tb1103 2.660 . S
N1104 C1105 1.305 . S
C1105 N1104 1.305 . S
C1105 C1107 1.407 . S
C1105 H1112 0.930 . S
C1106 C1094 1.410 . S
C1106 C1107 1.345 . S
C1106 H1114 0.930 . S
C1107 C1105 1.407 . S
C1107 C1106 1.345 . S
C1107 H1109 0.930 . S
H1108 C1101 0.930 . S
H1109 C1107 0.930 . S
H1110 C1098 0.930 . S
H1111 C1099 0.931 . S
H1112 C1105 0.930 . S
H1113 C1127 0.930 . S
H1114 C1106 0.930 . S
H1115 C1133 0.930 . S
H1116 C1124 0.930 . S
H1117 C1131 0.931 . S
H1118 C1095 0.929 . S
H1119 C1125 0.930 1_556 S
H1120 C1158 0.930 . S
H1121 C1102 0.930 . S
H1122 C1157 0.929 . S
N1123 Tb1092 2.660 . S
N1123 C1124 1.305 . S
N1123 C1128 1.360 . S
C1124 H1116 0.930 . S
C1124 N1123 1.305 . S
C1124 C1127 1.407 . S
C1125 H1119 0.930 1_554 S
C1125 C1126 1.410 . S
C1125 C1127 1.345 . S
C1126 C1125 1.410 . S
C1126 C1128 1.417 . S
C1126 C1158 1.432 . S
C1127 H1113 0.930 . S
C1127 C1124 1.407 . S
C1127 C1125 1.345 . S
C1128 N1123 1.360 . S
C1128 C1126 1.417 . S
C1128 C1132 1.432 . S
H1129 C1134 0.930 . S
N1130 Tb1092 2.600 . S
N1130 C1132 1.359 . S
N1130 C1133 1.327 . S
C1131 H1117 0.931 . S
C1131 C1133 1.392 . S
C1131 C1134 1.370 . S
C1132 C1128 1.432 . S
C1132 N1130 1.359 . S
C1132 C1135 1.414 . S
C1133 H1115 0.930 . S
C1133 N1130 1.327 . S
C1133 C1131 1.392 . S
C1134 H1129 0.930 . S
C1134 C1131 1.370 . S
C1134 C1135 1.385 . S
C1135 C1132 1.414 . S
C1135 C1134 1.385 . S
C1135 C1157 1.444 . S
O1136 Tb1092 2.546 . S
O1136 C1156 1.251 . S
O1137 Tb1092 2.610 . S
O1137 Tb1103 2.362 . S
O1137 C1148 1.283 . S
O1138 Tb1103 2.421 . S
O1138 C1155 1.262 . S
O1139 Tb1092 2.320 . S
O1139 C1155 1.260 . S
O1140 Tb1092 2.552 . S
O1140 C1148 1.243 . S
O1141 Tb1092 2.413 . S
O1141 C1156 1.256 . S
O1142 Tb1103 2.546 . S
O1142 C1167 1.251 . S
O1143 Tb1092 2.362 . S
O1143 Tb1103 2.610 . S
O1143 C1159 1.283 . S
O1144 Tb1092 2.421 . S
O1144 C1166 1.262 . S
O1145 Tb1103 2.320 . S
O1145 C1166 1.260 . S
O1146 Tb1103 2.552 . S
O1146 C1159 1.243 . S
O1147 Tb1103 2.413 . S
O1147 C1167 1.256 . S
C1148 O1137 1.283 . S
C1148 O1140 1.243 . S
C1149 C1151 1.382 . S
C1149 C1153 1.393 . S
C1149 C1156 1.500 . S
C1150 C1151 1.400 . S
C1150 C1152 1.384 . S
C1151 C1149 1.382 . S
C1151 C1150 1.400 . S
C1151 H1168 0.930 . S
C1152 C1150 1.384 . S
C1152 C1154 1.392 . S
C1152 H1169 0.931 . S
C1153 C1149 1.393 . S
C1153 C1154 1.401 . S
C1153 H1170 0.930 . S
C1154 C1152 1.392 . S
C1154 C1153 1.401 . S
C1154 H1171 0.930 . S
C1155 O1138 1.262 . S
C1155 O1139 1.260 . S
C1156 Tb1092 2.833 . S
C1156 O1136 1.251 . S
C1156 O1141 1.256 . S
C1156 C1149 1.500 . S
C1157 H1122 0.929 . S
C1157 C1135 1.444 . S
C1157 C1158 1.317 . S
C1158 H1120 0.930 . S
C1158 C1126 1.432 . S
C1158 C1157 1.317 . S
C1159 O1143 1.283 . S
C1159 O1146 1.243 . S
C1160 C1161 1.382 . S
C1160 C1164 1.393 . S
C1160 C1167 1.500 . S
C1161 C1160 1.382 . S
C1161 C1162 1.400 . S
C1161 H1172 0.930 . S
C1162 C1161 1.400 . S
C1162 C1163 1.384 . S
C1163 C1162 1.384 . S
C1163 C1165 1.392 . S
C1163 H1173 0.931 . S
C1164 C1160 1.393 . S
C1164 C1165 1.401 . S
C1164 H1174 0.930 . S
C1165 C1163 1.392 . S
C1165 C1164 1.401 . S
C1165 H1175 0.930 . S
C1166 O1144 1.262 . S
C1166 O1145 1.260 . S
C1167 Tb1103 2.833 . S
C1167 O1142 1.251 . S
C1167 O1147 1.256 . S
C1167 C1160 1.500 . S
H1168 C1151 0.930 . S
H1169 C1152 0.931 . S
H1170 C1153 0.930 . S
H1171 C1154 0.930 . S
H1172 C1161 0.930 . S
H1173 C1163 0.931 . S
H1174 C1164 0.930 . S
H1175 C1165 0.930 . S
Tb1176 N1207 2.660 . S
Tb1176 N1214 2.600 . S
Tb1176 O1220 2.546 . S
Tb1176 O1221 2.610 . S
Tb1176 O1223 2.320 . S
Tb1176 O1224 2.552 . S
Tb1176 O1225 2.413 . S
Tb1176 O1227 2.362 . S
Tb1176 O1228 2.421 . S
Tb1176 C1240 2.833 . S
C1177 C1180 1.432 . S
C1177 C1181 1.414 1_565 S
C1177 N1184 1.359 . S
C1178 C1180 1.417 . S
C1178 C1182 1.432 . S
C1178 C1190 1.410 . S
C1179 C1181 1.444 . S
C1179 C1182 1.317 1_545 S
C1179 H1202 0.929 . S
C1180 C1177 1.432 . S
C1180 C1178 1.417 . S
C1180 N1188 1.360 . S
C1181 C1177 1.414 1_545 S
C1181 C1179 1.444 . S
C1181 C1186 1.385 . S
C1182 C1178 1.432 . S
C1182 C1179 1.317 1_565 S
C1182 H1194 0.930 . S
C1183 C1185 1.392 1_545 S
C1183 C1186 1.370 . S
C1183 H1195 0.931 . S
N1184 C1177 1.359 . S
N1184 C1185 1.327 . S
N1184 Tb1187 2.600 . S
C1185 C1183 1.392 1_565 S
C1185 N1184 1.327 . S
C1185 H1192 0.930 . S
C1186 C1181 1.385 . S
C1186 C1183 1.370 . S
C1186 H1205 0.930 . S
Tb1187 N1184 2.600 . S
Tb1187 N1188 2.660 . S
Tb1187 O1221 2.362 . S
Tb1187 O1222 2.421 . S
Tb1187 O1226 2.546 . S
Tb1187 O1227 2.610 . S
Tb1187 O1229 2.320 . S
Tb1187 O1230 2.552 . S
Tb1187 O1231 2.413 . S
Tb1187 C1251 2.833 . S
N1188 C1180 1.360 . S
N1188 Tb1187 2.660 . S
N1188 C1189 1.305 . S
C1189 N1188 1.305 . S
C1189 C1191 1.407 . S
C1189 H1196 0.930 . S
C1190 C1178 1.410 . S
C1190 C1191 1.345 . S
C1190 H1198 0.930 . S
C1191 C1189 1.407 . S
C1191 C1190 1.345 . S
C1191 H1193 0.930 . S
H1192 C1185 0.930 . S
H1193 C1191 0.930 . S
H1194 C1182 0.930 . S
H1195 C1183 0.931 . S
H1196 C1189 0.930 . S
H1197 C1211 0.930 . S
H1198 C1190 0.930 . S
H1199 C1217 0.930 . S
H1200 C1208 0.930 . S
H1201 C1215 0.931 . S
H1202 C1179 0.929 . S
H1203 C1209 0.930 . S
H1204 C1242 0.930 . S
H1205 C1186 0.930 . S
H1206 C1241 0.929 . S
N1207 Tb1176 2.660 . S
N1207 C1208 1.305 . S
N1207 C1212 1.360 . S
C1208 H1200 0.930 . S
C1208 N1207 1.305 . S
C1208 C1211 1.407 . S
C1209 H1203 0.930 . S
C1209 C1210 1.410 . S
C1209 C1211 1.345 . S
C1210 C1209 1.410 . S
C1210 C1212 1.417 . S
C1210 C1242 1.432 . S
C1211 H1197 0.930 . S
C1211 C1208 1.407 . S
C1211 C1209 1.345 . S
C1212 N1207 1.360 . S
C1212 C1210 1.417 . S
C1212 C1216 1.432 . S
H1213 C1218 0.930 . S
N1214 Tb1176 2.600 . S
N1214 C1216 1.359 . S
N1214 C1217 1.327 . S
C1215 H1201 0.931 . S
C1215 C1217 1.392 . S
C1215 C1218 1.370 . S
C1216 C1212 1.432 . S
C1216 N1214 1.359 . S
C1216 C1219 1.414 . S
C1217 H1199 0.930 . S
C1217 N1214 1.327 . S
C1217 C1215 1.392 . S
C1218 H1213 0.930 . S
C1218 C1215 1.370 . S
C1218 C1219 1.385 . S
C1219 C1216 1.414 . S
C1219 C1218 1.385 . S
C1219 C1241 1.444 . S
O1220 Tb1176 2.546 . S
O1220 C1240 1.251 . S
O1221 Tb1176 2.610 . S
O1221 Tb1187 2.362 . S
O1221 C1232 1.283 . S
O1222 Tb1187 2.421 . S
O1222 C1239 1.262 . S
O1223 Tb1176 2.320 . S
O1223 C1239 1.260 . S
O1224 Tb1176 2.552 . S
O1224 C1232 1.243 . S
O1225 Tb1176 2.413 . S
O1225 C1240 1.256 . S
O1226 Tb1187 2.546 . S
O1226 C1251 1.251 . S
O1227 Tb1176 2.362 . S
O1227 Tb1187 2.610 . S
O1227 C1243 1.283 . S
O1228 Tb1176 2.421 . S
O1228 C1250 1.262 . S
O1229 Tb1187 2.320 . S
O1229 C1250 1.260 . S
O1230 Tb1187 2.552 . S
O1230 C1243 1.243 . S
O1231 Tb1187 2.413 . S
O1231 C1251 1.256 . S
C1232 O1221 1.283 . S
C1232 O1224 1.243 . S
C1233 C1235 1.382 . S
C1233 C1237 1.393 . S
C1233 C1240 1.500 . S
C1234 C1235 1.400 . S
C1234 C1236 1.384 . S
C1235 C1233 1.382 . S
C1235 C1234 1.400 . S
C1235 H1252 0.930 . S
C1236 C1234 1.384 . S
C1236 C1238 1.392 . S
C1236 H1253 0.931 . S
C1237 C1233 1.393 . S
C1237 C1238 1.401 . S
C1237 H1254 0.930 . S
C1238 C1236 1.392 . S
C1238 C1237 1.401 . S
C1238 H1255 0.930 . S
C1239 O1222 1.262 . S
C1239 O1223 1.260 . S
C1240 Tb1176 2.833 . S
C1240 O1220 1.251 . S
C1240 O1225 1.256 . S
C1240 C1233 1.500 . S
C1241 H1206 0.929 . S
C1241 C1219 1.444 . S
C1241 C1242 1.317 . S
C1242 H1204 0.930 . S
C1242 C1210 1.432 . S
C1242 C1241 1.317 . S
C1243 O1227 1.283 . S
C1243 O1230 1.243 . S
C1244 C1245 1.382 . S
C1244 C1248 1.393 1_565 S
C1244 C1251 1.500 . S
C1245 C1244 1.382 . S
C1245 C1246 1.400 1_565 S
C1245 H1256 0.930 . S
C1246 C1245 1.400 1_545 S
C1246 C1247 1.384 . S
C1247 C1246 1.384 . S
C1247 C1249 1.392 . S
C1247 H1257 0.931 . S
C1248 C1244 1.393 1_545 S
C1248 C1249 1.401 . S
C1248 H1258 0.930 . S
C1249 C1247 1.392 . S
C1249 C1248 1.401 . S
C1249 H1259 0.930 . S
C1250 O1228 1.262 . S
C1250 O1229 1.260 . S
C1251 Tb1187 2.833 . S
C1251 O1226 1.251 . S
C1251 O1231 1.256 . S
C1251 C1244 1.500 . S
H1252 C1235 0.930 . S
H1253 C1236 0.931 . S
H1254 C1237 0.930 . S
H1255 C1238 0.930 . S
H1256 C1245 0.930 . S
H1257 C1247 0.931 . S
H1258 C1248 0.930 . S
H1259 C1249 0.930 . S
Tb1260 N1291 2.660 . S
Tb1260 N1298 2.600 . S
Tb1260 O1304 2.546 . S
Tb1260 O1305 2.610 . S
Tb1260 O1307 2.320 . S
Tb1260 O1308 2.552 . S
Tb1260 O1309 2.413 . S
Tb1260 O1311 2.370 . S
Tb1260 O1312 2.421 . S
Tb1260 C1324 2.833 . S
C1261 C1264 1.432 . S
C1261 C1265 1.414 1_545 S
C1261 N1268 1.359 . S
C1262 C1264 1.417 . S
C1262 C1266 1.432 . S
C1262 C1274 1.410 . S
C1263 C1265 1.444 . S
C1263 C1266 1.317 1_565 S
C1263 H1286 0.929 . S
C1264 C1261 1.432 . S
C1264 C1262 1.417 . S
C1264 N1272 1.360 . S
C1265 C1261 1.414 1_565 S
C1265 C1263 1.444 . S
C1265 C1270 1.385 . S
C1266 C1262 1.432 . S
C1266 C1263 1.317 1_545 S
C1266 H1278 0.930 . S
C1267 C1269 1.392 1_565 S
C1267 C1270 1.370 . S
C1267 H1279 0.931 . S
N1268 C1261 1.359 . S
N1268 C1269 1.327 . S
N1268 Tb1271 2.600 . S
C1269 C1267 1.392 1_545 S
C1269 N1268 1.327 . S
C1269 H1276 0.930 . S
C1270 C1265 1.385 . S
C1270 C1267 1.370 . S
C1270 H1289 0.930 . S
Tb1271 N1268 2.600 . S
Tb1271 N1272 2.660 . S
Tb1271 O1305 2.362 . S
Tb1271 O1306 2.421 . S
Tb1271 O1310 2.546 1_455 S
Tb1271 O1311 2.612 . S
Tb1271 O1313 2.320 1_455 S
Tb1271 O1314 2.552 1_455 S
Tb1271 O1315 2.413 1_455 S
Tb1271 C1335 2.833 1_455 S
N1272 C1264 1.360 . S
N1272 Tb1271 2.660 . S
N1272 C1273 1.305 . S
C1273 N1272 1.305 . S
C1273 C1275 1.407 . S
C1273 H1280 0.930 . S
C1274 C1262 1.410 . S
C1274 C1275 1.345 . S
C1274 H1282 0.930 . S
C1275 C1273 1.407 . S
C1275 C1274 1.345 . S
C1275 H1277 0.930 . S
H1276 C1269 0.930 . S
H1277 C1275 0.930 . S
H1278 C1266 0.930 . S
H1279 C1267 0.931 . S
H1280 C1273 0.930 . S
H1281 C1295 0.930 . S
H1282 C1274 0.930 . S
H1283 C1301 0.925 1_455 S
H1284 C1292 0.930 . S
H1285 C1299 0.931 . S
H1286 C1263 0.929 . S
H1287 C1293 0.930 1_654 S
H1288 C1326 0.930 . S
H1289 C1270 0.930 . S
H1290 C1325 0.929 . S
N1291 Tb1260 2.660 . S
N1291 C1292 1.305 . S
N1291 C1296 1.360 . S
C1292 H1284 0.930 . S
C1292 N1291 1.305 . S
C1292 C1295 1.407 . S
C1293 H1287 0.930 1_456 S
C1293 C1294 1.410 1_455 S
C1293 C1295 1.345 . S
C1294 C1293 1.410 1_655 S
C1294 C1296 1.417 1_655 S
C1294 C1326 1.432 . S
C1295 H1281 0.930 . S
C1295 C1292 1.407 . S
C1295 C1293 1.345 . S
C1296 N1291 1.360 . S
C1296 C1294 1.417 1_455 S
C1296 C1300 1.432 1_455 S
H1297 C1302 0.930 . S
N1298 Tb1260 2.600 . S
N1298 C1300 1.359 1_455 S
N1298 C1301 1.323 1_455 S
C1299 H1285 0.931 . S
C1299 C1301 1.402 . S
C1299 C1302 1.370 . S
C1300 C1296 1.432 1_655 S
C1300 N1298 1.359 1_655 S
C1300 C1303 1.414 . S
C1301 H1283 0.925 1_655 S
C1301 N1298 1.323 1_655 S
C1301 C1299 1.402 . S
C1302 H1297 0.930 . S
C1302 C1299 1.370 . S
C1302 C1303 1.385 . S
C1303 C1300 1.414 . S
C1303 C1302 1.385 . S
C1303 C1325 1.444 . S
O1304 Tb1260 2.546 . S
O1304 C1324 1.251 . S
O1305 Tb1260 2.610 . S
O1305 Tb1271 2.362 . S
O1305 C1316 1.283 . S
O1306 Tb1271 2.421 . S
O1306 C1323 1.262 . S
O1307 Tb1260 2.320 . S
O1307 C1323 1.260 . S
O1308 Tb1260 2.552 . S
O1308 C1316 1.243 . S
O1309 Tb1260 2.413 . S
O1309 C1324 1.256 . S
O1310 Tb1271 2.546 1_655 S
O1310 C1335 1.251 . S
O1311 Tb1260 2.370 . S
O1311 Tb1271 2.612 . S
O1311 C1327 1.274 1_455 S
O1312 Tb1260 2.421 . S
O1312 C1334 1.262 1_455 S
O1313 Tb1271 2.320 1_655 S
O1313 C1334 1.260 . S
O1314 Tb1271 2.552 1_655 S
O1314 C1327 1.243 . S
O1315 Tb1271 2.413 1_655 S
O1315 C1335 1.256 . S
C1316 O1305 1.283 . S
C1316 O1308 1.243 . S
C1317 C1319 1.382 . S
C1317 C1321 1.393 . S
C1317 C1324 1.500 . S
C1318 C1319 1.400 . S
C1318 C1320 1.384 . S
C1319 C1317 1.382 . S
C1319 C1318 1.400 . S
C1319 H1336 0.930 . S
C1320 C1318 1.384 . S
C1320 C1322 1.392 . S
C1320 H1337 0.931 . S
C1321 C1317 1.393 . S
C1321 C1322 1.401 . S
C1321 H1338 0.930 . S
C1322 C1320 1.392 . S
C1322 C1321 1.401 . S
C1322 H1339 0.930 . S
C1323 O1306 1.262 . S
C1323 O1307 1.260 . S
C1324 Tb1260 2.833 . S
C1324 O1304 1.251 . S
C1324 O1309 1.256 . S
C1324 C1317 1.500 . S
C1325 H1290 0.929 . S
C1325 C1303 1.444 . S
C1325 C1326 1.317 . S
C1326 H1288 0.930 . S
C1326 C1294 1.432 . S
C1326 C1325 1.317 . S
C1327 O1311 1.274 1_655 S
C1327 O1314 1.243 . S
C1328 C1329 1.382 . S
C1328 C1332 1.393 1_545 S
C1328 C1335 1.500 . S
C1329 C1328 1.382 . S
C1329 C1330 1.400 1_545 S
C1329 H1340 0.930 . S
C1330 C1329 1.400 1_565 S
C1330 C1331 1.384 . S
C1331 C1330 1.384 . S
C1331 C1333 1.392 . S
C1331 H1341 0.931 . S
C1332 C1328 1.393 1_565 S
C1332 C1333 1.401 . S
C1332 H1342 0.930 . S
C1333 C1331 1.392 . S
C1333 C1332 1.401 . S
C1333 H1343 0.930 . S
C1334 O1312 1.262 1_655 S
C1334 O1313 1.260 . S
C1335 Tb1271 2.833 1_655 S
C1335 O1310 1.251 . S
C1335 O1315 1.256 . S
C1335 C1328 1.500 . S
H1336 C1319 0.930 . S
H1337 C1320 0.931 . S
H1338 C1321 0.930 . S
H1339 C1322 0.930 . S
H1340 C1329 0.930 . S
H1341 C1331 0.931 . S
H1342 C1332 0.930 . S
H1343 C1333 0.930 . S
Tb1344 N1375 2.660 . S
Tb1344 N1382 2.600 . S
Tb1344 O1388 2.546 . S
Tb1344 O1389 2.610 . S
Tb1344 O1391 2.320 . S
Tb1344 O1392 2.552 . S
Tb1344 O1393 2.413 . S
Tb1344 O1395 2.370 . S
Tb1344 O1396 2.421 . S
Tb1344 C1408 2.833 . S
C1345 C1348 1.432 . S
C1345 C1349 1.414 . S
C1345 N1352 1.359 . S
C1346 C1348 1.417 . S
C1346 C1350 1.432 . S
C1346 C1358 1.410 . S
C1347 C1349 1.444 . S
C1347 C1350 1.317 . S
C1347 H1370 0.929 . S
C1348 C1345 1.432 . S
C1348 C1346 1.417 . S
C1348 N1356 1.360 . S
C1349 C1345 1.414 . S
C1349 C1347 1.444 . S
C1349 C1354 1.385 . S
C1350 C1346 1.432 . S
C1350 C1347 1.317 . S
C1350 H1362 0.930 . S
C1351 C1353 1.392 . S
C1351 C1354 1.370 . S
C1351 H1363 0.931 . S
N1352 C1345 1.359 . S
N1352 C1353 1.327 . S
N1352 Tb1355 2.600 . S
C1353 C1351 1.392 . S
C1353 N1352 1.327 . S
C1353 H1360 0.930 . S
C1354 C1349 1.385 . S
C1354 C1351 1.370 . S
C1354 H1373 0.930 . S
Tb1355 N1352 2.600 . S
Tb1355 N1356 2.660 . S
Tb1355 O1389 2.362 . S
Tb1355 O1390 2.421 . S
Tb1355 O1394 2.546 1_565 S
Tb1355 O1395 2.612 . S
Tb1355 O1397 2.320 1_565 S
Tb1355 O1398 2.552 1_565 S
Tb1355 O1399 2.413 1_565 S
Tb1355 C1419 2.833 1_565 S
N1356 C1348 1.360 . S
N1356 Tb1355 2.660 . S
N1356 C1357 1.305 . S
C1357 N1356 1.305 . S
C1357 C1359 1.407 . S
C1357 H1364 0.930 . S
C1358 C1346 1.410 . S
C1358 C1359 1.345 . S
C1358 H1366 0.930 . S
C1359 C1357 1.407 . S
C1359 C1358 1.345 . S
C1359 H1361 0.930 . S
H1360 C1353 0.930 . S
H1361 C1359 0.930 . S
H1362 C1350 0.930 . S
H1363 C1351 0.931 . S
H1364 C1357 0.930 . S
H1365 C1379 0.930 . S
H1366 C1358 0.930 . S
H1367 C1385 0.925 1_565 S
H1368 C1376 0.930 . S
H1369 C1383 0.931 . S
H1370 C1347 0.929 . S
H1371 C1377 0.930 1_545 S
H1372 C1410 0.930 . S
H1373 C1354 0.930 . S
H1374 C1409 0.929 . S
N1375 Tb1344 2.660 . S
N1375 C1376 1.305 . S
N1375 C1380 1.360 . S
C1376 H1368 0.930 . S
C1376 N1375 1.305 . S
C1376 C1379 1.407 . S
C1377 H1371 0.930 1_565 S
C1377 C1378 1.410 1_565 S
C1377 C1379 1.345 . S
C1378 C1377 1.410 1_545 S
C1378 C1380 1.417 1_545 S
C1378 C1410 1.432 . S
C1379 H1365 0.930 . S
C1379 C1376 1.407 . S
C1379 C1377 1.345 . S
C1380 N1375 1.360 . S
C1380 C1378 1.417 1_565 S
C1380 C1384 1.432 1_565 S
H1381 C1386 0.930 . S
N1382 Tb1344 2.600 . S
N1382 C1384 1.359 1_565 S
N1382 C1385 1.323 1_565 S
C1383 H1369 0.931 . S
C1383 C1385 1.402 . S
C1383 C1386 1.370 . S
C1384 C1380 1.432 1_545 S
C1384 N1382 1.359 1_545 S
C1384 C1387 1.414 . S
C1385 H1367 0.925 1_545 S
C1385 N1382 1.323 1_545 S
C1385 C1383 1.402 . S
C1386 H1381 0.930 . S
C1386 C1383 1.370 . S
C1386 C1387 1.385 . S
C1387 C1384 1.414 . S
C1387 C1386 1.385 . S
C1387 C1409 1.444 . S
O1388 Tb1344 2.546 . S
O1388 C1408 1.251 . S
O1389 Tb1344 2.610 . S
O1389 Tb1355 2.362 . S
O1389 C1400 1.283 . S
O1390 Tb1355 2.421 . S
O1390 C1407 1.262 . S
O1391 Tb1344 2.320 . S
O1391 C1407 1.260 . S
O1392 Tb1344 2.552 . S
O1392 C1400 1.243 . S
O1393 Tb1344 2.413 . S
O1393 C1408 1.256 . S
O1394 Tb1355 2.546 1_545 S
O1394 C1419 1.251 . S
O1395 Tb1344 2.370 . S
O1395 Tb1355 2.612 . S
O1395 C1411 1.274 1_565 S
O1396 Tb1344 2.421 . S
O1396 C1418 1.262 1_565 S
O1397 Tb1355 2.320 1_545 S
O1397 C1418 1.260 . S
O1398 Tb1355 2.552 1_545 S
O1398 C1411 1.243 . S
O1399 Tb1355 2.413 1_545 S
O1399 C1419 1.256 . S
C1400 O1389 1.283 . S
C1400 O1392 1.243 . S
C1401 C1403 1.382 . S
C1401 C1405 1.393 . S
C1401 C1408 1.500 . S
C1402 C1403 1.400 . S
C1402 C1404 1.384 . S
C1403 C1401 1.382 . S
C1403 C1402 1.400 . S
C1403 H1420 0.930 . S
C1404 C1402 1.384 . S
C1404 C1406 1.392 . S
C1404 H1421 0.931 . S
C1405 C1401 1.393 . S
C1405 C1406 1.401 . S
C1405 H1422 0.930 . S
C1406 C1404 1.392 . S
C1406 C1405 1.401 . S
C1406 H1423 0.930 . S
C1407 O1390 1.262 . S
C1407 O1391 1.260 . S
C1408 Tb1344 2.833 . S
C1408 O1388 1.251 . S
C1408 O1393 1.256 . S
C1408 C1401 1.500 . S
C1409 H1374 0.929 . S
C1409 C1387 1.444 . S
C1409 C1410 1.317 . S
C1410 H1372 0.930 . S
C1410 C1378 1.432 . S
C1410 C1409 1.317 . S
C1411 O1395 1.274 1_545 S
C1411 O1398 1.243 . S
C1412 C1413 1.382 . S
C1412 C1416 1.393 . S
C1412 C1419 1.500 . S
C1413 C1412 1.382 . S
C1413 C1414 1.400 . S
C1413 H1424 0.930 . S
C1414 C1413 1.400 . S
C1414 C1415 1.384 . S
C1415 C1414 1.384 . S
C1415 C1417 1.392 . S
C1415 H1425 0.931 . S
C1416 C1412 1.393 . S
C1416 C1417 1.401 . S
C1416 H1426 0.930 . S
C1417 C1415 1.392 . S
C1417 C1416 1.401 . S
C1417 H1427 0.930 . S
C1418 O1396 1.262 1_545 S
C1418 O1397 1.260 . S
C1419 Tb1355 2.833 1_545 S
C1419 O1394 1.251 . S
C1419 O1399 1.256 . S
C1419 C1412 1.500 . S
H1420 C1403 0.930 . S
H1421 C1404 0.931 . S
H1422 C1405 0.930 . S
H1423 C1406 0.930 . S
H1424 C1413 0.930 . S
H1425 C1415 0.931 . S
H1426 C1416 0.930 . S
H1427 C1417 0.930 . S
Tb1428 N1459 2.660 . S
Tb1428 N1466 2.600 . S
Tb1428 O1472 2.546 . S
Tb1428 O1473 2.610 . S
Tb1428 O1475 2.320 . S
Tb1428 O1476 2.552 . S
Tb1428 O1477 2.413 . S
Tb1428 O1479 2.370 . S
Tb1428 O1480 2.421 . S
Tb1428 C1492 2.833 . S
C1429 C1432 1.432 . S
C1429 C1433 1.414 1_554 S
C1429 N1436 1.359 . S
C1430 C1432 1.417 . S
C1430 C1434 1.432 . S
C1430 C1442 1.410 . S
C1431 C1433 1.444 . S
C1431 C1434 1.317 1_556 S
C1431 H1454 0.929 . S
C1432 C1429 1.432 . S
C1432 C1430 1.417 . S
C1432 N1440 1.360 . S
C1433 C1429 1.414 1_556 S
C1433 C1431 1.444 . S
C1433 C1438 1.385 . S
C1434 C1430 1.432 . S
C1434 C1431 1.317 1_554 S
C1434 H1446 0.930 . S
C1435 C1437 1.392 1_556 S
C1435 C1438 1.370 . S
C1435 H1447 0.931 . S
N1436 C1429 1.359 . S
N1436 C1437 1.327 . S
N1436 Tb1439 2.600 . S
C1437 C1435 1.392 1_554 S
C1437 N1436 1.327 . S
C1437 H1444 0.930 . S
C1438 C1433 1.385 . S
C1438 C1435 1.370 . S
C1438 H1457 0.930 . S
Tb1439 N1436 2.600 . S
Tb1439 N1440 2.660 . S
Tb1439 O1473 2.362 . S
Tb1439 O1474 2.421 . S
Tb1439 O1478 2.546 1_545 S
Tb1439 O1479 2.612 . S
Tb1439 O1481 2.320 1_545 S
Tb1439 O1482 2.552 1_545 S
Tb1439 O1483 2.413 1_545 S
Tb1439 C1503 2.833 1_545 S
N1440 C1432 1.360 . S
N1440 Tb1439 2.660 . S
N1440 C1441 1.305 . S
C1441 N1440 1.305 . S
C1441 C1443 1.407 . S
C1441 H1448 0.930 . S
C1442 C1430 1.410 . S
C1442 C1443 1.345 . S
C1442 H1450 0.930 . S
C1443 C1441 1.407 . S
C1443 C1442 1.345 . S
C1443 H1445 0.930 . S
H1444 C1437 0.930 . S
H1445 C1443 0.930 . S
H1446 C1434 0.930 . S
H1447 C1435 0.931 . S
H1448 C1441 0.930 . S
H1449 C1463 0.930 . S
H1450 C1442 0.930 . S
H1451 C1469 0.925 1_545 S
H1452 C1460 0.930 . S
H1453 C1467 0.931 . S
H1454 C1431 0.929 . S
H1455 C1461 0.930 1_465 S
H1456 C1494 0.930 . S
H1457 C1438 0.930 . S
H1458 C1493 0.929 . S
N1459 Tb1428 2.660 . S
N1459 C1460 1.305 . S
N1459 C1464 1.360 . S
C1460 H1452 0.930 . S
C1460 N1459 1.305 . S
C1460 C1463 1.407 . S
C1461 H1455 0.930 1_645 S
C1461 C1462 1.410 1_545 S
C1461 C1463 1.345 . S
C1462 C1461 1.410 1_565 S
C1462 C1464 1.417 1_565 S
C1462 C1494 1.432 . S
C1463 H1449 0.930 . S
C1463 C1460 1.407 . S
C1463 C1461 1.345 . S
C1464 N1459 1.360 . S
C1464 C1462 1.417 1_545 S
C1464 C1468 1.432 1_545 S
H1465 C1470 0.930 . S
N1466 Tb1428 2.600 . S
N1466 C1468 1.359 1_545 S
N1466 C1469 1.323 1_545 S
C1467 H1453 0.931 . S
C1467 C1469 1.402 . S
C1467 C1470 1.370 . S
C1468 C1464 1.432 1_565 S
C1468 N1466 1.359 1_565 S
C1468 C1471 1.414 . S
C1469 H1451 0.925 1_565 S
C1469 N1466 1.323 1_565 S
C1469 C1467 1.402 . S
C1470 H1465 0.930 . S
C1470 C1467 1.370 . S
C1470 C1471 1.385 . S
C1471 C1468 1.414 . S
C1471 C1470 1.385 . S
C1471 C1493 1.444 . S
O1472 Tb1428 2.546 . S
O1472 C1492 1.251 . S
O1473 Tb1428 2.610 . S
O1473 Tb1439 2.362 . S
O1473 C1484 1.283 . S
O1474 Tb1439 2.421 . S
O1474 C1491 1.262 . S
O1475 Tb1428 2.320 . S
O1475 C1491 1.260 . S
O1476 Tb1428 2.552 . S
O1476 C1484 1.243 . S
O1477 Tb1428 2.413 . S
O1477 C1492 1.256 . S
O1478 Tb1439 2.546 1_565 S
O1478 C1503 1.251 . S
O1479 Tb1428 2.370 . S
O1479 Tb1439 2.612 . S
O1479 C1495 1.274 1_545 S
O1480 Tb1428 2.421 . S
O1480 C1502 1.262 1_545 S
O1481 Tb1439 2.320 1_565 S
O1481 C1502 1.260 . S
O1482 Tb1439 2.552 1_565 S
O1482 C1495 1.243 . S
O1483 Tb1439 2.413 1_565 S
O1483 C1503 1.256 . S
C1484 O1473 1.283 . S
C1484 O1476 1.243 . S
C1485 C1487 1.382 . S
C1485 C1489 1.393 . S
C1485 C1492 1.500 . S
C1486 C1487 1.400 . S
C1486 C1488 1.384 . S
C1487 C1485 1.382 . S
C1487 C1486 1.400 . S
C1487 H1504 0.930 . S
C1488 C1486 1.384 . S
C1488 C1490 1.392 . S
C1488 H1505 0.931 . S
C1489 C1485 1.393 . S
C1489 C1490 1.401 . S
C1489 H1506 0.930 . S
C1490 C1488 1.392 . S
C1490 C1489 1.401 . S
C1490 H1507 0.930 . S
C1491 O1474 1.262 . S
C1491 O1475 1.260 . S
C1492 Tb1428 2.833 . S
C1492 O1472 1.251 . S
C1492 O1477 1.256 . S
C1492 C1485 1.500 . S
C1493 H1458 0.929 . S
C1493 C1471 1.444 . S
C1493 C1494 1.317 . S
C1494 H1456 0.930 . S
C1494 C1462 1.432 . S
C1494 C1493 1.317 . S
C1495 O1479 1.274 1_565 S
C1495 O1482 1.243 . S
C1496 C1497 1.382 . S
C1496 C1500 1.393 1_554 S
C1496 C1503 1.500 . S
C1497 C1496 1.382 . S
C1497 C1498 1.400 1_554 S
C1497 H1508 0.930 . S
C1498 C1497 1.400 1_556 S
C1498 C1499 1.384 . S
C1499 C1498 1.384 . S
C1499 C1501 1.392 . S
C1499 H1509 0.931 . S
C1500 C1496 1.393 1_556 S
C1500 C1501 1.401 . S
C1500 H1510 0.930 . S
C1501 C1499 1.392 . S
C1501 C1500 1.401 . S
C1501 H1511 0.930 . S
C1502 O1480 1.262 1_565 S
C1502 O1481 1.260 . S
C1503 Tb1439 2.833 1_565 S
C1503 O1478 1.251 . S
C1503 O1483 1.256 . S
C1503 C1496 1.500 . S
H1504 C1487 0.930 . S
H1505 C1488 0.931 . S
H1506 C1489 0.930 . S
H1507 C1490 0.930 . S
H1508 C1497 0.930 . S
H1509 C1499 0.931 . S
H1510 C1500 0.930 . S
H1511 C1501 0.930 . S
Tb1512 N1543 2.660 . S
Tb1512 N1550 2.600 . S
Tb1512 O1556 2.546 . S
Tb1512 O1557 2.610 . S
Tb1512 O1559 2.320 . S
Tb1512 O1560 2.552 . S
Tb1512 O1561 2.413 . S
Tb1512 O1563 2.362 . S
Tb1512 O1564 2.421 . S
Tb1512 C1576 2.833 . S
C1513 C1516 1.432 . S
C1513 C1517 1.414 . S
C1513 N1520 1.359 . S
C1514 C1516 1.417 . S
C1514 C1518 1.432 . S
C1514 C1526 1.410 . S
C1515 C1517 1.444 . S
C1515 C1518 1.317 . S
C1515 H1538 0.929 . S
C1516 C1513 1.432 . S
C1516 C1514 1.417 . S
C1516 N1524 1.360 . S
C1517 C1513 1.414 . S
C1517 C1515 1.444 . S
C1517 C1522 1.385 . S
C1518 C1514 1.432 . S
C1518 C1515 1.317 . S
C1518 H1530 0.930 . S
C1519 C1521 1.392 . S
C1519 C1522 1.370 . S
C1519 H1531 0.931 . S
N1520 C1513 1.359 . S
N1520 C1521 1.327 . S
N1520 Tb1523 2.600 . S
C1521 C1519 1.392 . S
C1521 N1520 1.327 . S
C1521 H1528 0.930 . S
C1522 C1517 1.385 . S
C1522 C1519 1.370 . S
C1522 H1541 0.930 . S
Tb1523 N1520 2.600 . S
Tb1523 N1524 2.660 . S
Tb1523 O1557 2.362 . S
Tb1523 O1558 2.421 . S
Tb1523 O1562 2.546 . S
Tb1523 O1563 2.610 . S
Tb1523 O1565 2.320 . S
Tb1523 O1566 2.552 . S
Tb1523 O1567 2.413 . S
Tb1523 C1587 2.833 . S
N1524 C1516 1.360 . S
N1524 Tb1523 2.660 . S
N1524 C1525 1.305 . S
C1525 N1524 1.305 . S
C1525 C1527 1.407 . S
C1525 H1532 0.930 . S
C1526 C1514 1.410 . S
C1526 C1527 1.345 . S
C1526 H1534 0.930 . S
C1527 C1525 1.407 . S
C1527 C1526 1.345 . S
C1527 H1529 0.930 . S
H1528 C1521 0.930 . S
H1529 C1527 0.930 . S
H1530 C1518 0.930 . S
H1531 C1519 0.931 . S
H1532 C1525 0.930 . S
H1533 C1547 0.930 . S
H1534 C1526 0.930 . S
H1535 C1553 0.930 . S
H1536 C1544 0.930 . S
H1537 C1551 0.931 . S
H1538 C1515 0.929 . S
H1539 C1545 0.930 1_655 S
H1540 C1578 0.930 . S
H1541 C1522 0.930 . S
H1542 C1577 0.929 . S
N1543 Tb1512 2.660 . S
N1543 C1544 1.305 . S
N1543 C1548 1.360 . S
C1544 H1536 0.930 . S
C1544 N1543 1.305 . S
C1544 C1547 1.407 . S
C1545 H1539 0.930 1_455 S
C1545 C1546 1.410 . S
C1545 C1547 1.345 . S
C1546 C1545 1.410 . S
C1546 C1548 1.417 . S
C1546 C1578 1.432 . S
C1547 H1533 0.930 . S
C1547 C1544 1.407 . S
C1547 C1545 1.345 . S
C1548 N1543 1.360 . S
C1548 C1546 1.417 . S
C1548 C1552 1.432 . S
H1549 C1554 0.930 . S
N1550 Tb1512 2.600 . S
N1550 C1552 1.359 . S
N1550 C1553 1.327 . S
C1551 H1537 0.931 . S
C1551 C1553 1.392 . S
C1551 C1554 1.370 . S
C1552 C1548 1.432 . S
C1552 N1550 1.359 . S
C1552 C1555 1.414 . S
C1553 H1535 0.930 . S
C1553 N1550 1.327 . S
C1553 C1551 1.392 . S
C1554 H1549 0.930 . S
C1554 C1551 1.370 . S
C1554 C1555 1.385 . S
C1555 C1552 1.414 . S
C1555 C1554 1.385 . S
C1555 C1577 1.444 . S
O1556 Tb1512 2.546 . S
O1556 C1576 1.251 . S
O1557 Tb1512 2.610 . S
O1557 Tb1523 2.362 . S
O1557 C1568 1.283 . S
O1558 Tb1523 2.421 . S
O1558 C1575 1.262 . S
O1559 Tb1512 2.320 . S
O1559 C1575 1.260 . S
O1560 Tb1512 2.552 . S
O1560 C1568 1.243 . S
O1561 Tb1512 2.413 . S
O1561 C1576 1.256 . S
O1562 Tb1523 2.546 . S
O1562 C1587 1.251 . S
O1563 Tb1512 2.362 . S
O1563 Tb1523 2.610 . S
O1563 C1579 1.283 . S
O1564 Tb1512 2.421 . S
O1564 C1586 1.262 . S
O1565 Tb1523 2.320 . S
O1565 C1586 1.260 . S
O1566 Tb1523 2.552 . S
O1566 C1579 1.243 . S
O1567 Tb1523 2.413 . S
O1567 C1587 1.256 . S
C1568 O1557 1.283 . S
C1568 O1560 1.243 . S
C1569 C1571 1.382 . S
C1569 C1573 1.393 . S
C1569 C1576 1.500 . S
C1570 C1571 1.400 . S
C1570 C1572 1.384 . S
C1571 C1569 1.382 . S
C1571 C1570 1.400 . S
C1571 H1588 0.930 . S
C1572 C1570 1.384 . S
C1572 C1574 1.392 . S
C1572 H1589 0.931 . S
C1573 C1569 1.393 . S
C1573 C1574 1.401 . S
C1573 H1590 0.930 . S
C1574 C1572 1.392 . S
C1574 C1573 1.401 . S
C1574 H1591 0.930 . S
C1575 O1558 1.262 . S
C1575 O1559 1.260 . S
C1576 Tb1512 2.833 . S
C1576 O1556 1.251 . S
C1576 O1561 1.256 . S
C1576 C1569 1.500 . S
C1577 H1542 0.929 . S
C1577 C1555 1.444 . S
C1577 C1578 1.317 . S
C1578 H1540 0.930 . S
C1578 C1546 1.432 . S
C1578 C1577 1.317 . S
C1579 O1563 1.283 . S
C1579 O1566 1.243 . S
C1580 C1581 1.382 . S
C1580 C1584 1.393 . S
C1580 C1587 1.500 . S
C1581 C1580 1.382 . S
C1581 C1582 1.400 . S
C1581 H1592 0.930 . S
C1582 C1581 1.400 . S
C1582 C1583 1.384 . S
C1583 C1582 1.384 . S
C1583 C1585 1.392 . S
C1583 H1593 0.931 . S
C1584 C1580 1.393 . S
C1584 C1585 1.401 . S
C1584 H1594 0.930 . S
C1585 C1583 1.392 . S
C1585 C1584 1.401 . S
C1585 H1595 0.930 . S
C1586 O1564 1.262 . S
C1586 O1565 1.260 . S
C1587 Tb1523 2.833 . S
C1587 O1562 1.251 . S
C1587 O1567 1.256 . S
C1587 C1580 1.500 . S
H1588 C1571 0.930 . S
H1589 C1572 0.931 . S
H1590 C1573 0.930 . S
H1591 C1574 0.930 . S
H1592 C1581 0.930 . S
H1593 C1583 0.931 . S
H1594 C1584 0.930 . S
H1595 C1585 0.930 . S
Tb1596 N1627 2.660 . S
Tb1596 N1634 2.600 . S
Tb1596 O1640 2.546 . S
Tb1596 O1641 2.610 . S
Tb1596 O1643 2.320 . S
Tb1596 O1644 2.552 . S
Tb1596 O1645 2.413 . S
Tb1596 O1647 2.362 . S
Tb1596 O1648 2.421 . S
Tb1596 C1660 2.833 . S
C1597 C1600 1.432 . S
C1597 C1601 1.414 1_556 S
C1597 N1604 1.359 . S
C1598 C1600 1.417 . S
C1598 C1602 1.432 . S
C1598 C1610 1.410 . S
C1599 C1601 1.444 . S
C1599 C1602 1.317 1_554 S
C1599 H1622 0.929 . S
C1600 C1597 1.432 . S
C1600 C1598 1.417 . S
C1600 N1608 1.360 . S
C1601 C1597 1.414 1_554 S
C1601 C1599 1.444 . S
C1601 C1606 1.385 . S
C1602 C1598 1.432 . S
C1602 C1599 1.317 1_556 S
C1602 H1614 0.930 . S
C1603 C1605 1.392 1_554 S
C1603 C1606 1.370 . S
C1603 H1615 0.931 . S
N1604 C1597 1.359 . S
N1604 C1605 1.327 . S
N1604 Tb1607 2.600 . S
C1605 C1603 1.392 1_556 S
C1605 N1604 1.327 . S
C1605 H1612 0.930 . S
C1606 C1601 1.385 . S
C1606 C1603 1.370 . S
C1606 H1625 0.930 . S
Tb1607 N1604 2.600 . S
Tb1607 N1608 2.660 . S
Tb1607 O1641 2.362 . S
Tb1607 O1642 2.421 . S
Tb1607 O1646 2.546 . S
Tb1607 O1647 2.610 . S
Tb1607 O1649 2.320 . S
Tb1607 O1650 2.552 . S
Tb1607 O1651 2.413 . S
Tb1607 C1671 2.833 . S
N1608 C1600 1.360 . S
N1608 Tb1607 2.660 . S
N1608 C1609 1.305 . S
C1609 N1608 1.305 . S
C1609 C1611 1.407 . S
C1609 H1616 0.930 . S
C1610 C1598 1.410 . S
C1610 C1611 1.345 . S
C1610 H1618 0.930 . S
C1611 C1609 1.407 . S
C1611 C1610 1.345 . S
C1611 H1613 0.930 . S
H1612 C1605 0.930 . S
H1613 C1611 0.930 . S
H1614 C1602 0.930 . S
H1615 C1603 0.931 . S
H1616 C1609 0.930 . S
H1617 C1631 0.930 . S
H1618 C1610 0.930 . S
H1619 C1637 0.930 . S
H1620 C1628 0.930 . S
H1621 C1635 0.931 . S
H1622 C1599 0.929 . S
H1623 C1629 0.930 . S
H1624 C1662 0.930 . S
H1625 C1606 0.930 . S
H1626 C1661 0.929 . S
N1627 Tb1596 2.660 . S
N1627 C1628 1.305 . S
N1627 C1632 1.360 . S
C1628 H1620 0.930 . S
C1628 N1627 1.305 . S
C1628 C1631 1.407 . S
C1629 H1623 0.930 . S
C1629 C1630 1.410 . S
C1629 C1631 1.345 . S
C1630 C1629 1.410 . S
C1630 C1632 1.417 . S
C1630 C1662 1.432 . S
C1631 H1617 0.930 . S
C1631 C1628 1.407 . S
C1631 C1629 1.345 . S
C1632 N1627 1.360 . S
C1632 C1630 1.417 . S
C1632 C1636 1.432 . S
H1633 C1638 0.930 . S
N1634 Tb1596 2.600 . S
N1634 C1636 1.359 . S
N1634 C1637 1.327 . S
C1635 H1621 0.931 . S
C1635 C1637 1.392 . S
C1635 C1638 1.370 . S
C1636 C1632 1.432 . S
C1636 N1634 1.359 . S
C1636 C1639 1.414 . S
C1637 H1619 0.930 . S
C1637 N1634 1.327 . S
C1637 C1635 1.392 . S
C1638 H1633 0.930 . S
C1638 C1635 1.370 . S
C1638 C1639 1.385 . S
C1639 C1636 1.414 . S
C1639 C1638 1.385 . S
C1639 C1661 1.444 . S
O1640 Tb1596 2.546 . S
O1640 C1660 1.251 . S
O1641 Tb1596 2.610 . S
O1641 Tb1607 2.362 . S
O1641 C1652 1.283 . S
O1642 Tb1607 2.421 . S
O1642 C1659 1.262 . S
O1643 Tb1596 2.320 . S
O1643 C1659 1.260 . S
O1644 Tb1596 2.552 . S
O1644 C1652 1.243 . S
O1645 Tb1596 2.413 . S
O1645 C1660 1.256 . S
O1646 Tb1607 2.546 . S
O1646 C1671 1.251 . S
O1647 Tb1596 2.362 . S
O1647 Tb1607 2.610 . S
O1647 C1663 1.283 . S
O1648 Tb1596 2.421 . S
O1648 C1670 1.262 . S
O1649 Tb1607 2.320 . S
O1649 C1670 1.260 . S
O1650 Tb1607 2.552 . S
O1650 C1663 1.243 . S
O1651 Tb1607 2.413 . S
O1651 C1671 1.256 . S
C1652 O1641 1.283 . S
C1652 O1644 1.243 . S
C1653 C1655 1.382 . S
C1653 C1657 1.393 . S
C1653 C1660 1.500 . S
C1654 C1655 1.400 . S
C1654 C1656 1.384 . S
C1655 C1653 1.382 . S
C1655 C1654 1.400 . S
C1655 H1672 0.930 . S
C1656 C1654 1.384 . S
C1656 C1658 1.392 . S
C1656 H1673 0.931 . S
C1657 C1653 1.393 . S
C1657 C1658 1.401 . S
C1657 H1674 0.930 . S
C1658 C1656 1.392 . S
C1658 C1657 1.401 . S
C1658 H1675 0.930 . S
C1659 O1642 1.262 . S
C1659 O1643 1.260 . S
C1660 Tb1596 2.833 . S
C1660 O1640 1.251 . S
C1660 O1645 1.256 . S
C1660 C1653 1.500 . S
C1661 H1626 0.929 . S
C1661 C1639 1.444 . S
C1661 C1662 1.317 . S
C1662 H1624 0.930 . S
C1662 C1630 1.432 . S
C1662 C1661 1.317 . S
C1663 O1647 1.283 . S
C1663 O1650 1.243 . S
C1664 C1665 1.382 . S
C1664 C1668 1.393 1_556 S
C1664 C1671 1.500 . S
C1665 C1664 1.382 . S
C1665 C1666 1.400 1_556 S
C1665 H1676 0.930 . S
C1666 C1665 1.400 1_554 S
C1666 C1667 1.384 . S
C1667 C1666 1.384 . S
C1667 C1669 1.392 . S
C1667 H1677 0.931 . S
C1668 C1664 1.393 1_554 S
C1668 C1669 1.401 . S
C1668 H1678 0.930 . S
C1669 C1667 1.392 . S
C1669 C1668 1.401 . S
C1669 H1679 0.930 . S
C1670 O1648 1.262 . S
C1670 O1649 1.260 . S
C1671 Tb1607 2.833 . S
C1671 O1646 1.251 . S
C1671 O1651 1.256 . S
C1671 C1664 1.500 . S
H1672 C1655 0.930 . S
H1673 C1656 0.931 . S
H1674 C1657 0.930 . S
H1675 C1658 0.930 . S
H1676 C1665 0.930 . S
H1677 C1667 0.931 . S
H1678 C1668 0.930 . S
H1679 C1669 0.930 . S
Tb1680 N1711 2.660 . S
Tb1680 N1718 2.600 . S
Tb1680 O1724 2.546 . S
Tb1680 O1725 2.610 . S
Tb1680 O1727 2.320 . S
Tb1680 O1728 2.552 . S
Tb1680 O1729 2.413 . S
Tb1680 O1731 2.370 . S
Tb1680 O1732 2.421 . S
Tb1680 C1744 2.833 . S
C1681 C1684 1.432 . S
C1681 C1685 1.414 . S
C1681 N1688 1.359 . S
C1682 C1684 1.417 . S
C1682 C1686 1.432 . S
C1682 C1694 1.410 . S
C1683 C1685 1.444 . S
C1683 C1686 1.317 . S
C1683 H1706 0.929 . S
C1684 C1681 1.432 . S
C1684 C1682 1.417 . S
C1684 N1692 1.360 . S
C1685 C1681 1.414 . S
C1685 C1683 1.444 . S
C1685 C1690 1.385 . S
C1686 C1682 1.432 . S
C1686 C1683 1.317 . S
C1686 H1698 0.930 . S
C1687 C1689 1.392 . S
C1687 C1690 1.370 . S
C1687 H1699 0.931 . S
N1688 C1681 1.359 . S
N1688 C1689 1.327 . S
N1688 Tb1691 2.600 . S
C1689 C1687 1.392 . S
C1689 N1688 1.327 . S
C1689 H1696 0.930 . S
C1690 C1685 1.385 . S
C1690 C1687 1.370 . S
C1690 H1709 0.930 . S
Tb1691 N1688 2.600 . S
Tb1691 N1692 2.660 . S
Tb1691 O1725 2.362 . S
Tb1691 O1726 2.421 . S
Tb1691 O1730 2.546 1_556 S
Tb1691 O1731 2.612 . S
Tb1691 O1733 2.320 1_556 S
Tb1691 O1734 2.552 1_556 S
Tb1691 O1735 2.413 1_556 S
Tb1691 C1755 2.833 1_556 S
N1692 C1684 1.360 . S
N1692 Tb1691 2.660 . S
N1692 C1693 1.305 . S
C1693 N1692 1.305 . S
C1693 C1695 1.407 . S
C1693 H1700 0.930 . S
C1694 C1682 1.410 . S
C1694 C1695 1.345 . S
C1694 H1702 0.930 . S
C1695 C1693 1.407 . S
C1695 C1694 1.345 . S
C1695 H1697 0.930 . S
H1696 C1689 0.930 . S
H1697 C1695 0.930 . S
H1698 C1686 0.930 . S
H1699 C1687 0.931 . S
H1700 C1693 0.930 . S
H1701 C1715 0.930 . S
H1702 C1694 0.930 . S
H1703 C1721 0.925 1_556 S
H1704 C1712 0.930 . S
H1705 C1719 0.931 . S
H1706 C1683 0.929 . S
H1707 C1713 0.930 1_554 S
H1708 C1746 0.930 . S
H1709 C1690 0.930 . S
H1710 C1745 0.929 . S
N1711 Tb1680 2.660 . S
N1711 C1712 1.305 . S
N1711 C1716 1.360 . S
C1712 H1704 0.930 . S
C1712 N1711 1.305 . S
C1712 C1715 1.407 . S
C1713 H1707 0.930 1_556 S
C1713 C1714 1.410 1_556 S
C1713 C1715 1.345 . S
C1714 C1713 1.410 1_554 S
C1714 C1716 1.417 1_554 S
C1714 C1746 1.432 . S
C1715 H1701 0.930 . S
C1715 C1712 1.407 . S
C1715 C1713 1.345 . S
C1716 N1711 1.360 . S
C1716 C1714 1.417 1_556 S
C1716 C1720 1.432 1_556 S
H1717 C1722 0.930 . S
N1718 Tb1680 2.600 . S
N1718 C1720 1.359 1_556 S
N1718 C1721 1.323 1_556 S
C1719 H1705 0.931 . S
C1719 C1721 1.402 . S
C1719 C1722 1.370 . S
C1720 C1716 1.432 1_554 S
C1720 N1718 1.359 1_554 S
C1720 C1723 1.414 . S
C1721 H1703 0.925 1_554 S
C1721 N1718 1.323 1_554 S
C1721 C1719 1.402 . S
C1722 H1717 0.930 . S
C1722 C1719 1.370 . S
C1722 C1723 1.385 . S
C1723 C1720 1.414 . S
C1723 C1722 1.385 . S
C1723 C1745 1.444 . S
O1724 Tb1680 2.546 . S
O1724 C1744 1.251 . S
O1725 Tb1680 2.610 . S
O1725 Tb1691 2.362 . S
O1725 C1736 1.283 . S
O1726 Tb1691 2.421 . S
O1726 C1743 1.262 . S
O1727 Tb1680 2.320 . S
O1727 C1743 1.260 . S
O1728 Tb1680 2.552 . S
O1728 C1736 1.243 . S
O1729 Tb1680 2.413 . S
O1729 C1744 1.256 . S
O1730 Tb1691 2.546 1_554 S
O1730 C1755 1.251 . S
O1731 Tb1680 2.370 . S
O1731 Tb1691 2.612 . S
O1731 C1747 1.274 1_556 S
O1732 Tb1680 2.421 . S
O1732 C1754 1.262 1_556 S
O1733 Tb1691 2.320 1_554 S
O1733 C1754 1.260 . S
O1734 Tb1691 2.552 1_554 S
O1734 C1747 1.243 . S
O1735 Tb1691 2.413 1_554 S
O1735 C1755 1.256 . S
C1736 O1725 1.283 . S
C1736 O1728 1.243 . S
C1737 C1739 1.382 . S
C1737 C1741 1.393 . S
C1737 C1744 1.500 . S
C1738 C1739 1.400 . S
C1738 C1740 1.384 . S
C1739 C1737 1.382 . S
C1739 C1738 1.400 . S
C1739 H1756 0.930 . S
C1740 C1738 1.384 . S
C1740 C1742 1.392 . S
C1740 H1757 0.931 . S
C1741 C1737 1.393 . S
C1741 C1742 1.401 . S
C1741 H1758 0.930 . S
C1742 C1740 1.392 . S
C1742 C1741 1.401 . S
C1742 H1759 0.930 . S
C1743 O1726 1.262 . S
C1743 O1727 1.260 . S
C1744 Tb1680 2.833 . S
C1744 O1724 1.251 . S
C1744 O1729 1.256 . S
C1744 C1737 1.500 . S
C1745 H1710 0.929 . S
C1745 C1723 1.444 . S
C1745 C1746 1.317 . S
C1746 H1708 0.930 . S
C1746 C1714 1.432 . S
C1746 C1745 1.317 . S
C1747 O1731 1.274 1_554 S
C1747 O1734 1.243 . S
C1748 C1749 1.382 . S
C1748 C1752 1.393 . S
C1748 C1755 1.500 . S
C1749 C1748 1.382 . S
C1749 C1750 1.400 . S
C1749 H1760 0.930 . S
C1750 C1749 1.400 . S
C1750 C1751 1.384 . S
C1751 C1750 1.384 . S
C1751 C1753 1.392 . S
C1751 H1761 0.931 . S
C1752 C1748 1.393 . S
C1752 C1753 1.401 . S
C1752 H1762 0.930 . S
C1753 C1751 1.392 . S
C1753 C1752 1.401 . S
C1753 H1763 0.930 . S
C1754 O1732 1.262 1_554 S
C1754 O1733 1.260 . S
C1755 Tb1691 2.833 1_554 S
C1755 O1730 1.251 . S
C1755 O1735 1.256 . S
C1755 C1748 1.500 . S
H1756 C1739 0.930 . S
H1757 C1740 0.931 . S
H1758 C1741 0.930 . S
H1759 C1742 0.930 . S
H1760 C1749 0.930 . S
H1761 C1751 0.931 . S
H1762 C1752 0.930 . S
H1763 C1753 0.930 . S
Tb1764 N1795 2.660 . S
Tb1764 N1802 2.600 . S
Tb1764 O1808 2.546 . S
Tb1764 O1809 2.610 . S
Tb1764 O1811 2.320 . S
Tb1764 O1812 2.552 . S
Tb1764 O1813 2.413 . S
Tb1764 O1815 2.370 . S
Tb1764 O1816 2.421 . S
Tb1764 C1828 2.833 . S
C1765 C1768 1.432 . S
C1765 C1769 1.414 1_455 S
C1765 N1772 1.359 . S
C1766 C1768 1.417 . S
C1766 C1770 1.432 . S
C1766 C1778 1.410 . S
C1767 C1769 1.444 . S
C1767 C1770 1.317 1_655 S
C1767 H1790 0.929 . S
C1768 C1765 1.432 . S
C1768 C1766 1.417 . S
C1768 N1776 1.360 . S
C1769 C1765 1.414 1_655 S
C1769 C1767 1.444 . S
C1769 C1774 1.385 . S
C1770 C1766 1.432 . S
C1770 C1767 1.317 1_455 S
C1770 H1782 0.930 . S
C1771 C1773 1.392 1_655 S
C1771 C1774 1.370 . S
C1771 H1783 0.931 . S
N1772 C1765 1.359 . S
N1772 C1773 1.327 . S
N1772 Tb1775 2.600 . S
C1773 C1771 1.392 1_455 S
C1773 N1772 1.327 . S
C1773 H1780 0.930 . S
C1774 C1769 1.385 . S
C1774 C1771 1.370 . S
C1774 H1793 0.930 . S
Tb1775 N1772 2.600 . S
Tb1775 N1776 2.660 . S
Tb1775 O1809 2.362 . S
Tb1775 O1810 2.421 . S
Tb1775 O1814 2.546 1_554 S
Tb1775 O1815 2.612 . S
Tb1775 O1817 2.320 1_554 S
Tb1775 O1818 2.552 1_554 S
Tb1775 O1819 2.413 1_554 S
Tb1775 C1839 2.833 1_554 S
N1776 C1768 1.360 . S
N1776 Tb1775 2.660 . S
N1776 C1777 1.305 . S
C1777 N1776 1.305 . S
C1777 C1779 1.407 . S
C1777 H1784 0.930 . S
C1778 C1766 1.410 . S
C1778 C1779 1.345 . S
C1778 H1786 0.930 . S
C1779 C1777 1.407 . S
C1779 C1778 1.345 . S
C1779 H1781 0.930 . S
H1780 C1773 0.930 . S
H1781 C1779 0.930 . S
H1782 C1770 0.930 . S
H1783 C1771 0.931 . S
H1784 C1777 0.930 . S
H1785 C1799 0.930 . S
H1786 C1778 0.930 . S
H1787 C1805 0.925 1_554 S
H1788 C1796 0.930 . S
H1789 C1803 0.931 . S
H1790 C1767 0.929 . S
H1791 C1797 0.930 1_546 S
H1792 C1830 0.930 . S
H1793 C1774 0.930 . S
H1794 C1829 0.929 . S
N1795 Tb1764 2.660 . S
N1795 C1796 1.305 . S
N1795 C1800 1.360 . S
C1796 H1788 0.930 . S
C1796 N1795 1.305 . S
C1796 C1799 1.407 . S
C1797 H1791 0.930 1_564 S
C1797 C1798 1.410 1_554 S
C1797 C1799 1.345 . S
C1798 C1797 1.410 1_556 S
C1798 C1800 1.417 1_556 S
C1798 C1830 1.432 . S
C1799 H1785 0.930 . S
C1799 C1796 1.407 . S
C1799 C1797 1.345 . S
C1800 N1795 1.360 . S
C1800 C1798 1.417 1_554 S
C1800 C1804 1.432 1_554 S
H1801 C1806 0.930 . S
N1802 Tb1764 2.600 . S
N1802 C1804 1.359 1_554 S
N1802 C1805 1.323 1_554 S
C1803 H1789 0.931 . S
C1803 C1805 1.402 . S
C1803 C1806 1.370 . S
C1804 C1800 1.432 1_556 S
C1804 N1802 1.359 1_556 S
C1804 C1807 1.414 . S
C1805 H1787 0.925 1_556 S
C1805 N1802 1.323 1_556 S
C1805 C1803 1.402 . S
C1806 H1801 0.930 . S
C1806 C1803 1.370 . S
C1806 C1807 1.385 . S
C1807 C1804 1.414 . S
C1807 C1806 1.385 . S
C1807 C1829 1.444 . S
O1808 Tb1764 2.546 . S
O1808 C1828 1.251 . S
O1809 Tb1764 2.610 . S
O1809 Tb1775 2.362 . S
O1809 C1820 1.283 . S
O1810 Tb1775 2.421 . S
O1810 C1827 1.262 . S
O1811 Tb1764 2.320 . S
O1811 C1827 1.260 . S
O1812 Tb1764 2.552 . S
O1812 C1820 1.243 . S
O1813 Tb1764 2.413 . S
O1813 C1828 1.256 . S
O1814 Tb1775 2.546 1_556 S
O1814 C1839 1.251 . S
O1815 Tb1764 2.370 . S
O1815 Tb1775 2.612 . S
O1815 C1831 1.274 1_554 S
O1816 Tb1764 2.421 . S
O1816 C1838 1.262 1_554 S
O1817 Tb1775 2.320 1_556 S
O1817 C1838 1.260 . S
O1818 Tb1775 2.552 1_556 S
O1818 C1831 1.243 . S
O1819 Tb1775 2.413 1_556 S
O1819 C1839 1.256 . S
C1820 O1809 1.283 . S
C1820 O1812 1.243 . S
C1821 C1823 1.382 . S
C1821 C1825 1.393 . S
C1821 C1828 1.500 . S
C1822 C1823 1.400 . S
C1822 C1824 1.384 . S
C1823 C1821 1.382 . S
C1823 C1822 1.400 . S
C1823 H1840 0.930 . S
C1824 C1822 1.384 . S
C1824 C1826 1.392 . S
C1824 H1841 0.931 . S
C1825 C1821 1.393 . S
C1825 C1826 1.401 . S
C1825 H1842 0.930 . S
C1826 C1824 1.392 . S
C1826 C1825 1.401 . S
C1826 H1843 0.930 . S
C1827 O1810 1.262 . S
C1827 O1811 1.260 . S
C1828 Tb1764 2.833 . S
C1828 O1808 1.251 . S
C1828 O1813 1.256 . S
C1828 C1821 1.500 . S
C1829 H1794 0.929 . S
C1829 C1807 1.444 . S
C1829 C1830 1.317 . S
C1830 H1792 0.930 . S
C1830 C1798 1.432 . S
C1830 C1829 1.317 . S
C1831 O1815 1.274 1_556 S
C1831 O1818 1.243 . S
C1832 C1833 1.382 . S
C1832 C1836 1.393 1_455 S
C1832 C1839 1.500 . S
C1833 C1832 1.382 . S
C1833 C1834 1.400 1_455 S
C1833 H1844 0.930 . S
C1834 C1833 1.400 1_655 S
C1834 C1835 1.384 . S
C1835 C1834 1.384 . S
C1835 C1837 1.392 . S
C1835 H1845 0.931 . S
C1836 C1832 1.393 1_655 S
C1836 C1837 1.401 . S
C1836 H1846 0.930 . S
C1837 C1835 1.392 . S
C1837 C1836 1.401 . S
C1837 H1847 0.930 . S
C1838 O1816 1.262 1_556 S
C1838 O1817 1.260 . S
C1839 Tb1775 2.833 1_556 S
C1839 O1814 1.251 . S
C1839 O1819 1.256 . S
C1839 C1832 1.500 . S
H1840 C1823 0.930 . S
H1841 C1824 0.931 . S
H1842 C1825 0.930 . S
H1843 C1826 0.930 . S
H1844 C1833 0.930 . S
H1845 C1835 0.931 . S
H1846 C1836 0.930 . S
H1847 C1837 0.930 . S
Tb1848 N1879 2.660 . S
Tb1848 N1886 2.600 . S
Tb1848 O1892 2.546 . S
Tb1848 O1893 2.610 . S
Tb1848 O1895 2.320 . S
Tb1848 O1896 2.552 . S
Tb1848 O1897 2.413 . S
Tb1848 O1899 2.362 . S
Tb1848 O1900 2.421 . S
Tb1848 C1912 2.833 . S
C1849 C1852 1.432 . S
C1849 C1853 1.414 . S
C1849 N1856 1.359 . S
C1850 C1852 1.417 . S
C1850 C1854 1.432 . S
C1850 C1862 1.410 . S
C1851 C1853 1.444 . S
C1851 C1854 1.317 . S
C1851 H1874 0.929 . S
C1852 C1849 1.432 . S
C1852 C1850 1.417 . S
C1852 N1860 1.360 . S
C1853 C1849 1.414 . S
C1853 C1851 1.444 . S
C1853 C1858 1.385 . S
C1854 C1850 1.432 . S
C1854 C1851 1.317 . S
C1854 H1866 0.930 . S
C1855 C1857 1.392 . S
C1855 C1858 1.370 . S
C1855 H1867 0.931 . S
N1856 C1849 1.359 . S
N1856 C1857 1.327 . S
N1856 Tb1859 2.600 . S
C1857 C1855 1.392 . S
C1857 N1856 1.327 . S
C1857 H1864 0.930 . S
C1858 C1853 1.385 . S
C1858 C1855 1.370 . S
C1858 H1877 0.930 . S
Tb1859 N1856 2.600 . S
Tb1859 N1860 2.660 . S
Tb1859 O1893 2.362 . S
Tb1859 O1894 2.421 . S
Tb1859 O1898 2.546 . S
Tb1859 O1899 2.610 . S
Tb1859 O1901 2.320 . S
Tb1859 O1902 2.552 . S
Tb1859 O1903 2.413 . S
Tb1859 C1923 2.833 . S
N1860 C1852 1.360 . S
N1860 Tb1859 2.660 . S
N1860 C1861 1.305 . S
C1861 N1860 1.305 . S
C1861 C1863 1.407 . S
C1861 H1868 0.930 . S
C1862 C1850 1.410 . S
C1862 C1863 1.345 . S
C1862 H1870 0.930 . S
C1863 C1861 1.407 . S
C1863 C1862 1.345 . S
C1863 H1865 0.930 . S
H1864 C1857 0.930 . S
H1865 C1863 0.930 . S
H1866 C1854 0.930 . S
H1867 C1855 0.931 . S
H1868 C1861 0.930 . S
H1869 C1883 0.930 . S
H1870 C1862 0.930 . S
H1871 C1889 0.930 . S
H1872 C1880 0.930 . S
H1873 C1887 0.931 . S
H1874 C1851 0.929 . S
H1875 C1881 0.930 1_565 S
H1876 C1914 0.930 . S
H1877 C1858 0.930 . S
H1878 C1913 0.929 . S
N1879 Tb1848 2.660 . S
N1879 C1880 1.305 . S
N1879 C1884 1.360 . S
C1880 H1872 0.930 . S
C1880 N1879 1.305 . S
C1880 C1883 1.407 . S
C1881 H1875 0.930 1_545 S
C1881 C1882 1.410 . S
C1881 C1883 1.345 . S
C1882 C1881 1.410 . S
C1882 C1884 1.417 . S
C1882 C1914 1.432 . S
C1883 H1869 0.930 . S
C1883 C1880 1.407 . S
C1883 C1881 1.345 . S
C1884 N1879 1.360 . S
C1884 C1882 1.417 . S
C1884 C1888 1.432 . S
H1885 C1890 0.930 . S
N1886 Tb1848 2.600 . S
N1886 C1888 1.359 . S
N1886 C1889 1.327 . S
C1887 H1873 0.931 . S
C1887 C1889 1.392 . S
C1887 C1890 1.370 . S
C1888 C1884 1.432 . S
C1888 N1886 1.359 . S
C1888 C1891 1.414 . S
C1889 H1871 0.930 . S
C1889 N1886 1.327 . S
C1889 C1887 1.392 . S
C1890 H1885 0.930 . S
C1890 C1887 1.370 . S
C1890 C1891 1.385 . S
C1891 C1888 1.414 . S
C1891 C1890 1.385 . S
C1891 C1913 1.444 . S
O1892 Tb1848 2.546 . S
O1892 C1912 1.251 . S
O1893 Tb1848 2.610 . S
O1893 Tb1859 2.362 . S
O1893 C1904 1.283 . S
O1894 Tb1859 2.421 . S
O1894 C1911 1.262 . S
O1895 Tb1848 2.320 . S
O1895 C1911 1.260 . S
O1896 Tb1848 2.552 . S
O1896 C1904 1.243 . S
O1897 Tb1848 2.413 . S
O1897 C1912 1.256 . S
O1898 Tb1859 2.546 . S
O1898 C1923 1.251 . S
O1899 Tb1848 2.362 . S
O1899 Tb1859 2.610 . S
O1899 C1915 1.283 . S
O1900 Tb1848 2.421 . S
O1900 C1922 1.262 . S
O1901 Tb1859 2.320 . S
O1901 C1922 1.260 . S
O1902 Tb1859 2.552 . S
O1902 C1915 1.243 . S
O1903 Tb1859 2.413 . S
O1903 C1923 1.256 . S
C1904 O1893 1.283 . S
C1904 O1896 1.243 . S
C1905 C1907 1.382 . S
C1905 C1909 1.393 . S
C1905 C1912 1.500 . S
C1906 C1907 1.400 . S
C1906 C1908 1.384 . S
C1907 C1905 1.382 . S
C1907 C1906 1.400 . S
C1907 H1924 0.930 . S
C1908 C1906 1.384 . S
C1908 C1910 1.392 . S
C1908 H1925 0.931 . S
C1909 C1905 1.393 . S
C1909 C1910 1.401 . S
C1909 H1926 0.930 . S
C1910 C1908 1.392 . S
C1910 C1909 1.401 . S
C1910 H1927 0.930 . S
C1911 O1894 1.262 . S
C1911 O1895 1.260 . S
C1912 Tb1848 2.833 . S
C1912 O1892 1.251 . S
C1912 O1897 1.256 . S
C1912 C1905 1.500 . S
C1913 H1878 0.929 . S
C1913 C1891 1.444 . S
C1913 C1914 1.317 . S
C1914 H1876 0.930 . S
C1914 C1882 1.432 . S
C1914 C1913 1.317 . S
C1915 O1899 1.283 . S
C1915 O1902 1.243 . S
C1916 C1917 1.382 . S
C1916 C1920 1.393 . S
C1916 C1923 1.500 . S
C1917 C1916 1.382 . S
C1917 C1918 1.400 . S
C1917 H1928 0.930 . S
C1918 C1917 1.400 . S
C1918 C1919 1.384 . S
C1919 C1918 1.384 . S
C1919 C1921 1.392 . S
C1919 H1929 0.931 . S
C1920 C1916 1.393 . S
C1920 C1921 1.401 . S
C1920 H1930 0.930 . S
C1921 C1919 1.392 . S
C1921 C1920 1.401 . S
C1921 H1931 0.930 . S
C1922 O1900 1.262 . S
C1922 O1901 1.260 . S
C1923 Tb1859 2.833 . S
C1923 O1898 1.251 . S
C1923 O1903 1.256 . S
C1923 C1916 1.500 . S
H1924 C1907 0.930 . S
H1925 C1908 0.931 . S
H1926 C1909 0.930 . S
H1927 C1910 0.930 . S
H1928 C1917 0.930 . S
H1929 C1919 0.931 . S
H1930 C1920 0.930 . S
H1931 C1921 0.930 . S
Tb1932 N1963 2.660 . S
Tb1932 N1970 2.600 . S
Tb1932 O1976 2.546 . S
Tb1932 O1977 2.610 . S
Tb1932 O1979 2.320 . S
Tb1932 O1980 2.552 . S
Tb1932 O1981 2.413 . S
Tb1932 O1983 2.362 . S
Tb1932 O1984 2.421 . S
Tb1932 C1996 2.833 . S
C1933 C1936 1.432 . S
C1933 C1937 1.414 1_655 S
C1933 N1940 1.359 . S
C1934 C1936 1.417 . S
C1934 C1938 1.432 . S
C1934 C1946 1.410 . S
C1935 C1937 1.444 . S
C1935 C1938 1.317 1_455 S
C1935 H1958 0.929 . S
C1936 C1933 1.432 . S
C1936 C1934 1.417 . S
C1936 N1944 1.360 . S
C1937 C1933 1.414 1_455 S
C1937 C1935 1.444 . S
C1937 C1942 1.385 . S
C1938 C1934 1.432 . S
C1938 C1935 1.317 1_655 S
C1938 H1950 0.930 . S
C1939 C1941 1.392 1_455 S
C1939 C1942 1.370 . S
C1939 H1951 0.931 . S
N1940 C1933 1.359 . S
N1940 C1941 1.327 . S
N1940 Tb1943 2.600 . S
C1941 C1939 1.392 1_655 S
C1941 N1940 1.327 . S
C1941 H1948 0.930 . S
C1942 C1937 1.385 . S
C1942 C1939 1.370 . S
C1942 H1961 0.930 . S
Tb1943 N1940 2.600 . S
Tb1943 N1944 2.660 . S
Tb1943 O1977 2.362 . S
Tb1943 O1978 2.421 . S
Tb1943 O1982 2.546 . S
Tb1943 O1983 2.610 . S
Tb1943 O1985 2.320 . S
Tb1943 O1986 2.552 . S
Tb1943 O1987 2.413 . S
Tb1943 C2007 2.833 . S
N1944 C1936 1.360 . S
N1944 Tb1943 2.660 . S
N1944 C1945 1.305 . S
C1945 N1944 1.305 . S
C1945 C1947 1.407 . S
C1945 H1952 0.930 . S
C1946 C1934 1.410 . S
C1946 C1947 1.345 . S
C1946 H1954 0.930 . S
C1947 C1945 1.407 . S
C1947 C1946 1.345 . S
C1947 H1949 0.930 . S
H1948 C1941 0.930 . S
H1949 C1947 0.930 . S
H1950 C1938 0.930 . S
H1951 C1939 0.931 . S
H1952 C1945 0.930 . S
H1953 C1967 0.930 . S
H1954 C1946 0.930 . S
H1955 C1973 0.930 . S
H1956 C1964 0.930 . S
H1957 C1971 0.931 . S
H1958 C1935 0.929 . S
H1959 C1965 0.930 . S
H1960 C1998 0.930 . S
H1961 C1942 0.930 . S
H1962 C1997 0.929 . S
N1963 Tb1932 2.660 . S
N1963 C1964 1.305 . S
N1963 C1968 1.360 . S
C1964 H1956 0.930 . S
C1964 N1963 1.305 . S
C1964 C1967 1.407 . S
C1965 H1959 0.930 . S
C1965 C1966 1.410 . S
C1965 C1967 1.345 . S
C1966 C1965 1.410 . S
C1966 C1968 1.417 . S
C1966 C1998 1.432 . S
C1967 H1953 0.930 . S
C1967 C1964 1.407 . S
C1967 C1965 1.345 . S
C1968 N1963 1.360 . S
C1968 C1966 1.417 . S
C1968 C1972 1.432 . S
H1969 C1974 0.930 . S
N1970 Tb1932 2.600 . S
N1970 C1972 1.359 . S
N1970 C1973 1.327 . S
C1971 H1957 0.931 . S
C1971 C1973 1.392 . S
C1971 C1974 1.370 . S
C1972 C1968 1.432 . S
C1972 N1970 1.359 . S
C1972 C1975 1.414 . S
C1973 H1955 0.930 . S
C1973 N1970 1.327 . S
C1973 C1971 1.392 . S
C1974 H1969 0.930 . S
C1974 C1971 1.370 . S
C1974 C1975 1.385 . S
C1975 C1972 1.414 . S
C1975 C1974 1.385 . S
C1975 C1997 1.444 . S
O1976 Tb1932 2.546 . S
O1976 C1996 1.251 . S
O1977 Tb1932 2.610 . S
O1977 Tb1943 2.362 . S
O1977 C1988 1.283 . S
O1978 Tb1943 2.421 . S
O1978 C1995 1.262 . S
O1979 Tb1932 2.320 . S
O1979 C1995 1.260 . S
O1980 Tb1932 2.552 . S
O1980 C1988 1.243 . S
O1981 Tb1932 2.413 . S
O1981 C1996 1.256 . S
O1982 Tb1943 2.546 . S
O1982 C2007 1.251 . S
O1983 Tb1932 2.362 . S
O1983 Tb1943 2.610 . S
O1983 C1999 1.283 . S
O1984 Tb1932 2.421 . S
O1984 C2006 1.262 . S
O1985 Tb1943 2.320 . S
O1985 C2006 1.260 . S
O1986 Tb1943 2.552 . S
O1986 C1999 1.243 . S
O1987 Tb1943 2.413 . S
O1987 C2007 1.256 . S
C1988 O1977 1.283 . S
C1988 O1980 1.243 . S
C1989 C1991 1.382 . S
C1989 C1993 1.393 . S
C1989 C1996 1.500 . S
C1990 C1991 1.400 . S
C1990 C1992 1.384 . S
C1991 C1989 1.382 . S
C1991 C1990 1.400 . S
C1991 H2008 0.930 . S
C1992 C1990 1.384 . S
C1992 C1994 1.392 . S
C1992 H2009 0.931 . S
C1993 C1989 1.393 . S
C1993 C1994 1.401 . S
C1993 H2010 0.930 . S
C1994 C1992 1.392 . S
C1994 C1993 1.401 . S
C1994 H2011 0.930 . S
C1995 O1978 1.262 . S
C1995 O1979 1.260 . S
C1996 Tb1932 2.833 . S
C1996 O1976 1.251 . S
C1996 O1981 1.256 . S
C1996 C1989 1.500 . S
C1997 H1962 0.929 . S
C1997 C1975 1.444 . S
C1997 C1998 1.317 . S
C1998 H1960 0.930 . S
C1998 C1966 1.432 . S
C1998 C1997 1.317 . S
C1999 O1983 1.283 . S
C1999 O1986 1.243 . S
C2000 C2001 1.382 . S
C2000 C2004 1.393 1_655 S
C2000 C2007 1.500 . S
C2001 C2000 1.382 . S
C2001 C2002 1.400 1_655 S
C2001 H2012 0.930 . S
C2002 C2001 1.400 1_455 S
C2002 C2003 1.384 . S
C2003 C2002 1.384 . S
C2003 C2005 1.392 . S
C2003 H2013 0.931 . S
C2004 C2000 1.393 1_455 S
C2004 C2005 1.401 . S
C2004 H2014 0.930 . S
C2005 C2003 1.392 . S
C2005 C2004 1.401 . S
C2005 H2015 0.930 . S
C2006 O1984 1.262 . S
C2006 O1985 1.260 . S
C2007 Tb1943 2.833 . S
C2007 O1982 1.251 . S
C2007 O1987 1.256 . S
C2007 C2000 1.500 . S
H2008 C1991 0.930 . S
H2009 C1992 0.931 . S
H2010 C1993 0.930 . S
H2011 C1994 0.930 . S
H2012 C2001 0.930 . S
H2013 C2003 0.931 . S
H2014 C2004 0.930 . S
H2015 C2005 0.930 . S
C74 C1579 3.349 . S
C1663 C158 3.349 . S
C242 C1411 3.349 . S
C326 C1495 3.349 . S
C1915 C410 3.349 . S
C494 C1831 3.349 . S
C1999 C578 3.349 . S
C662 C1747 3.349 . S
C746 C1159 3.349 . S
C830 C1327 3.349 . S
C1243 C914 3.349 . S
C998 C1075 3.349 . S
C1071 C560 3.349 . S
C1155 C644 3.349 . S
C1239 C392 3.349 . S
C476 C1323 3.349 . S
C1407 C896 3.349 . S
C812 C1491 3.349 . S
C980 C1575 3.349 . S
C728 C1659 3.349 . S
C140 C1743 3.349 . S
C308 C1827 3.349 . S
C224 C1911 3.349 . S
C1995 C56 3.349 . S
C403 C70 1.553 . S
C487 C154 1.553 . S
C571 C238 1.553 . S
C655 C322 1.553 . S
C406 C739 1.553 . S
C490 C991 1.553 . S
C574 C823 1.553 . S
C658 C907 1.553 . S
C742 C67 1.553 . S
C826 C235 1.553 . S
C910 C319 1.553 . S
C151 C994 1.553 . S
C1400 C1066 1.553 . S
C1484 C1150 1.553 . S
C1234 C1568 1.553 . S
C1318 C1652 1.553 . S
C1736 C1402 1.553 . S
C1486 C1988 1.553 . S
C1820 C1570 1.553 . S
C1654 C1904 1.553 . S
C1064 C1738 1.553 . S
C1822 C1232 1.553 . S
C1906 C1316 1.553 . S
C1148 C1990 1.553 . S
C63 C814 2.071 1_655 S
C898 C147 2.071 . S
C730 C231 2.071 . S
C982 C315 2.071 1_655 S
C399 C310 2.071 1_565 S
C226 C483 2.071 1_565 S
C567 C142 2.071 . S
C58 C651 2.071 . S
C735 C478 2.071 1_556 S
C819 C646 2.071 1_554 S
C903 C562 2.071 . S
C987 C394 2.071 . S
C1082 C1834 2.071 1_455 S
C1166 C1918 2.071 . S
C1750 C1250 2.071 . S
C2002 C1334 2.071 1_455 S
C1418 C1330 2.071 1_545 S
C1502 C1246 2.071 1_565 S
C1162 C1586 2.071 . S
C1670 C1078 2.071 . S
C1754 C1498 2.071 1_554 S
C1666 C1838 2.071 1_554 S
C1922 C1582 2.071 . S
C2006 C1414 2.071 . S
