# Generated by pormake.
# Topology cbo, (4)-cn, num edge types: 1
# Building blocks:
#     Node 0, Type 0, BuildingBlock: ESEHIV_clean_sbu_0, # of connection points: 4
#     Node 1, Type 0, BuildingBlock: ESEHIV_clean_sbu_0, # of connection points: 4
#     Node 2, Type 0, BuildingBlock: ESEHIV_clean_sbu_0, # of connection points: 4
#     Node 3, Type 0, BuildingBlock: ESEHIV_clean_sbu_0, # of connection points: 4
#     Node 4, Type 0, BuildingBlock: ESEHIV_clean_sbu_0, # of connection points: 4
#     Node 5, Type 0, BuildingBlock: ESEHIV_clean_sbu_0, # of connection points: 4
#     Node 6, Type 0, BuildingBlock: ESEHIV_clean_sbu_0, # of connection points: 4
#     Node 7, Type 0, BuildingBlock: ESEHIV_clean_sbu_0, # of connection points: 4
#     Node 8, Type 0, BuildingBlock: ESEHIV_clean_sbu_0, # of connection points: 4
#     Node 9, Type 0, BuildingBlock: ESEHIV_clean_sbu_0, # of connection points: 4
#     Node 10, Type 0, BuildingBlock: ESEHIV_clean_sbu_0, # of connection points: 4
#     Node 11, Type 0, BuildingBlock: ESEHIV_clean_sbu_0, # of connection points: 4
#     Node 12, Type 0, BuildingBlock: ESEHIV_clean_sbu_0, # of connection points: 4
#     Node 13, Type 0, BuildingBlock: ESEHIV_clean_sbu_0, # of connection points: 4
#     Node 14, Type 0, BuildingBlock: ESEHIV_clean_sbu_0, # of connection points: 4
#     Node 15, Type 0, BuildingBlock: ESEHIV_clean_sbu_0, # of connection points: 4
#     Node 16, Type 0, BuildingBlock: ESEHIV_clean_sbu_0, # of connection points: 4
#     Node 17, Type 0, BuildingBlock: ESEHIV_clean_sbu_0, # of connection points: 4
#     Node 18, Type 0, BuildingBlock: ESEHIV_clean_sbu_0, # of connection points: 4
#     Node 19, Type 0, BuildingBlock: ESEHIV_clean_sbu_0, # of connection points: 4
#     Node 20, Type 0, BuildingBlock: ESEHIV_clean_sbu_0, # of connection points: 4
#     Node 21, Type 0, BuildingBlock: ESEHIV_clean_sbu_0, # of connection points: 4
#     Node 22, Type 0, BuildingBlock: ESEHIV_clean_sbu_0, # of connection points: 4
#     Node 23, Type 0, BuildingBlock: ESEHIV_clean_sbu_0, # of connection points: 4
#     Edge 24, Type (0, 0), BuildingBlock: AJUNOK_clean_linker_0, # of connection points: 2
#     Edge 25, Type (0, 0), BuildingBlock: AJUNOK_clean_linker_0, # of connection points: 2
#     Edge 26, Type (0, 0), BuildingBlock: AJUNOK_clean_linker_0, # of connection points: 2
#     Edge 27, Type (0, 0), BuildingBlock: AJUNOK_clean_linker_0, # of connection points: 2
#     Edge 28, Type (0, 0), BuildingBlock: AJUNOK_clean_linker_0, # of connection points: 2
#     Edge 29, Type (0, 0), BuildingBlock: AJUNOK_clean_linker_0, # of connection points: 2
#     Edge 30, Type (0, 0), BuildingBlock: AJUNOK_clean_linker_0, # of connection points: 2
#     Edge 31, Type (0, 0), BuildingBlock: AJUNOK_clean_linker_0, # of connection points: 2
#     Edge 32, Type (0, 0), BuildingBlock: AJUNOK_clean_linker_0, # of connection points: 2
#     Edge 33, Type (0, 0), BuildingBlock: AJUNOK_clean_linker_0, # of connection points: 2
#     Edge 34, Type (0, 0), BuildingBlock: AJUNOK_clean_linker_0, # of connection points: 2
#     Edge 35, Type (0, 0), BuildingBlock: AJUNOK_clean_linker_0, # of connection points: 2
#     Edge 36, Type (0, 0), BuildingBlock: AJUNOK_clean_linker_0, # of connection points: 2
#     Edge 37, Type (0, 0), BuildingBlock: AJUNOK_clean_linker_0, # of connection points: 2
#     Edge 38, Type (0, 0), BuildingBlock: AJUNOK_clean_linker_0, # of connection points: 2
#     Edge 39, Type (0, 0), BuildingBlock: AJUNOK_clean_linker_0, # of connection points: 2
#     Edge 40, Type (0, 0), BuildingBlock: AJUNOK_clean_linker_0, # of connection points: 2
#     Edge 41, Type (0, 0), BuildingBlock: AJUNOK_clean_linker_0, # of connection points: 2
#     Edge 42, Type (0, 0), BuildingBlock: AJUNOK_clean_linker_0, # of connection points: 2
#     Edge 43, Type (0, 0), BuildingBlock: AJUNOK_clean_linker_0, # of connection points: 2
#     Edge 44, Type (0, 0), BuildingBlock: AJUNOK_clean_linker_0, # of connection points: 2
#     Edge 45, Type (0, 0), BuildingBlock: AJUNOK_clean_linker_0, # of connection points: 2
#     Edge 46, Type (0, 0), BuildingBlock: AJUNOK_clean_linker_0, # of connection points: 2
#     Edge 47, Type (0, 0), BuildingBlock: AJUNOK_clean_linker_0, # of connection points: 2
#     Edge 48, Type (0, 0), BuildingBlock: AJUNOK_clean_linker_0, # of connection points: 2
#     Edge 49, Type (0, 0), BuildingBlock: AJUNOK_clean_linker_0, # of connection points: 2
#     Edge 50, Type (0, 0), BuildingBlock: AJUNOK_clean_linker_0, # of connection points: 2
#     Edge 51, Type (0, 0), BuildingBlock: AJUNOK_clean_linker_0, # of connection points: 2
#     Edge 52, Type (0, 0), BuildingBlock: AJUNOK_clean_linker_0, # of connection points: 2
#     Edge 53, Type (0, 0), BuildingBlock: AJUNOK_clean_linker_0, # of connection points: 2
#     Edge 54, Type (0, 0), BuildingBlock: AJUNOK_clean_linker_0, # of connection points: 2
#     Edge 55, Type (0, 0), BuildingBlock: AJUNOK_clean_linker_0, # of connection points: 2
#     Edge 56, Type (0, 0), BuildingBlock: AJUNOK_clean_linker_0, # of connection points: 2
#     Edge 57, Type (0, 0), BuildingBlock: AJUNOK_clean_linker_0, # of connection points: 2
#     Edge 58, Type (0, 0), BuildingBlock: AJUNOK_clean_linker_0, # of connection points: 2
#     Edge 59, Type (0, 0), BuildingBlock: AJUNOK_clean_linker_0, # of connection points: 2
#     Edge 60, Type (0, 0), BuildingBlock: AJUNOK_clean_linker_0, # of connection points: 2
#     Edge 61, Type (0, 0), BuildingBlock: AJUNOK_clean_linker_0, # of connection points: 2
#     Edge 62, Type (0, 0), BuildingBlock: AJUNOK_clean_linker_0, # of connection points: 2
#     Edge 63, Type (0, 0), BuildingBlock: AJUNOK_clean_linker_0, # of connection points: 2
#     Edge 64, Type (0, 0), BuildingBlock: AJUNOK_clean_linker_0, # of connection points: 2
#     Edge 65, Type (0, 0), BuildingBlock: AJUNOK_clean_linker_0, # of connection points: 2
#     Edge 66, Type (0, 0), BuildingBlock: AJUNOK_clean_linker_0, # of connection points: 2
#     Edge 67, Type (0, 0), BuildingBlock: AJUNOK_clean_linker_0, # of connection points: 2
#     Edge 68, Type (0, 0), BuildingBlock: AJUNOK_clean_linker_0, # of connection points: 2
#     Edge 69, Type (0, 0), BuildingBlock: AJUNOK_clean_linker_0, # of connection points: 2
#     Edge 70, Type (0, 0), BuildingBlock: AJUNOK_clean_linker_0, # of connection points: 2
#     Edge 71, Type (0, 0), BuildingBlock: AJUNOK_clean_linker_0, # of connection points: 2
# Relax obj value: 0.120
# Max RMSD: 0.295
# Mean RMSD: 0.270
data_MOF--net-cbo--node1-ESEHIV_clean_sbu_0--edge1-AJUNOK_clean_linker_0
_symmetry_space_group_name_H-M    P1
_symmetry_Int_Tables_number       1
_symmetry_cell_setting            triclinic
loop_
_symmetry_equiv_pos_as_xyz
'x, y, z'
_cell_length_a     40.571048
_cell_length_b     45.687908
_cell_length_c     42.233013
_cell_angle_alpha  90.272499
_cell_angle_beta   89.973512
_cell_angle_gamma 89.831663
loop_
_atom_site_label
_atom_site_type_symbol
_atom_site_fract_x
_atom_site_fract_y
_atom_site_fract_z
_atom_type_partial_charge
Cu0 Cu 0.14473 0.1953 0.32727 0.0
N1 N 0.16496 0.19655 0.367 0.0
N2 N 0.17627 0.20072 0.41858 0.0
C3 C 0.15228 0.19774 0.39657 0.0
C4 C 0.20487 0.201 0.40233 0.0
C5 C 0.19781 0.1985 0.37065 0.0
O6 O 0.10386 0.1731 0.327 0.0
C7 C 0.18903 0.15336 0.29892 0.0
O8 O 0.17814 0.1346 0.31992 0.0
H9 H 0.12618 0.19728 0.40183 0.0
H10 H 0.21541 0.19855 0.3514 0.0
N11 N 0.13719 0.23345 0.31336 0.0
N12 N 0.13995 0.27284 0.28232 0.0
C13 C 0.14392 0.24357 0.28417 0.0
C14 C 0.12846 0.25711 0.33057 0.0
C15 C 0.13005 0.28148 0.31142 0.0
C16 C 0.07785 0.18314 0.34005 0.0
O17 O 0.07942 0.20828 0.35515 0.0
H18 H 0.15331 0.22995 0.26513 0.0
H19 H 0.1226 0.2568 0.35555 0.0
O20 O 0.17668 0.17896 0.29794 0.0
H21 H 0.22917 0.20294 0.4127 0.0
H22 H 0.12504 0.30384 0.31855 0.0
Cu23 Cu 0.39823 0.83803 0.82588 0.0
N24 N 0.37692 0.83504 0.86501 0.0
N25 N 0.36393 0.83123 0.91632 0.0
C26 C 0.38832 0.83615 0.89506 0.0
C27 C 0.33649 0.82692 0.89893 0.0
C28 C 0.34456 0.82928 0.86748 0.0
O29 O 0.43842 0.86131 0.82695 0.0
C30 C 0.34882 0.87658 0.79988 0.0
O31 O 0.35381 0.89346 0.82467 0.0
H32 H 0.41391 0.83963 0.90114 0.0
H33 H 0.32803 0.82661 0.8476 0.0
N34 N 0.4075 0.80053 0.81065 0.0
N35 N 0.40655 0.7621 0.77774 0.0
C36 C 0.40194 0.79123 0.78083 0.0
C37 C 0.41585 0.77647 0.82709 0.0
C38 C 0.41519 0.75267 0.80682 0.0
C39 C 0.46473 0.85224 0.84017 0.0
O40 O 0.4641 0.82725 0.85541 0.0
H41 H 0.39254 0.80527 0.76231 0.0
H42 H 0.42049 0.77607 0.8523 0.0
O43 O 0.36654 0.85383 0.79599 0.0
H44 H 0.31222 0.8224 0.90834 0.0
H45 H 0.41956 0.73006 0.81319 0.0
Cu46 Cu 0.63403 0.32755 0.71404 0.0
N47 N 0.64346 0.31435 0.67288 0.0
N48 N 0.65451 0.31164 0.62104 0.0
C49 C 0.64992 0.3296 0.64626 0.0
C50 C 0.65136 0.28425 0.63233 0.0
C51 C 0.64456 0.28599 0.66415 0.0
O52 O 0.59468 0.35213 0.71461 0.0
C53 C 0.70043 0.33943 0.73022 0.0
O54 O 0.70588 0.31482 0.71482 0.0
H55 H 0.65099 0.35325 0.64532 0.0
H56 H 0.64096 0.26773 0.67993 0.0
N57 N 0.62581 0.29473 0.73928 0.0
N58 N 0.63197 0.25861 0.77423 0.0
C59 C 0.64391 0.2843 0.76356 0.0
C60 C 0.60148 0.27511 0.73493 0.0
C61 C 0.60529 0.25277 0.75636 0.0
C62 C 0.56843 0.34479 0.70011 0.0
O63 O 0.56866 0.3212 0.68224 0.0
H64 H 0.66596 0.29474 0.77251 0.0
H65 H 0.58283 0.27643 0.71675 0.0
O66 O 0.67103 0.34911 0.73196 0.0
H67 H 0.65457 0.26432 0.61869 0.0
H68 H 0.58987 0.23358 0.75851 0.0
Cu69 Cu 0.90016 0.68384 0.21068 0.0
N70 N 0.88893 0.67679 0.16818 0.0
N71 N 0.87988 0.67923 0.11591 0.0
C72 C 0.88809 0.69432 0.14246 0.0
C73 C 0.87485 0.65149 0.12547 0.0
C74 C 0.88059 0.65006 0.15746 0.0
O75 O 0.94102 0.66348 0.22077 0.0
C76 C 0.85556 0.6455 0.24545 0.0
O77 O 0.87326 0.62295 0.23606 0.0
H78 H 0.89373 0.71743 0.14303 0.0
H79 H 0.87885 0.63075 0.17205 0.0
N80 N 0.90542 0.72326 0.22136 0.0
N81 N 0.90492 0.76262 0.25308 0.0
C82 C 0.89796 0.73389 0.25028 0.0
C83 C 0.9176 0.74608 0.20511 0.0
C84 C 0.91696 0.77054 0.22458 0.0
C85 C 0.96458 0.66339 0.20081 0.0
O86 O 0.9605 0.67677 0.17363 0.0
H87 H 0.88719 0.72075 0.26883 0.0
H88 H 0.9266 0.745 0.18103 0.0
O89 O 0.8637 0.67114 0.23696 0.0
H90 H 0.86689 0.63354 0.11053 0.0
H91 H 0.92511 0.79233 0.21844 0.0
Cu92 Cu 0.3467 0.10545 0.17538 0.0
N93 N 0.34048 0.0718 0.15076 0.0
N94 N 0.33195 0.02534 0.13591 0.0
C95 C 0.33475 0.04422 0.16057 0.0
C96 C 0.3363 0.04172 0.10975 0.0
C97 C 0.34147 0.07028 0.11895 0.0
O98 O 0.3907 0.10358 0.19414 0.0
C99 C 0.30678 0.13158 0.22307 0.0
O100 O 0.32764 0.1533 0.22026 0.0
H101 H 0.33329 0.03813 0.18525 0.0
H102 H 0.34565 0.08871 0.10351 0.0
N103 N 0.34579 0.13808 0.1487 0.0
N104 N 0.33449 0.18232 0.12918 0.0
C105 C 0.32408 0.16049 0.1481 0.0
C106 C 0.37024 0.14579 0.12889 0.0
C107 C 0.36337 0.17307 0.11683 0.0
C108 C 0.40593 0.1267 0.20258 0.0
O109 O 0.3906 0.15198 0.20108 0.0
H110 H 0.30201 0.16154 0.16246 0.0
H111 H 0.39226 0.13294 0.12465 0.0
O112 O 0.31131 0.10843 0.20671 0.0
H113 H 0.33533 0.03366 0.08562 0.0
H114 H 0.37878 0.18549 0.10088 0.0
Cu115 Cu 0.19586 0.92407 0.67259 0.0
N116 N 0.20095 0.95902 0.65011 0.0
N117 N 0.20383 1.00614 0.63628 0.0
C118 C 0.19946 0.98705 0.66033 0.0
C119 C 0.20877 0.98952 0.61025 0.0
C120 C 0.20696 0.96062 0.61882 0.0
O121 O 0.15082 0.92175 0.68939 0.0
C122 C 0.23317 0.89752 0.72112 0.0
O123 O 0.21142 0.87653 0.71771 0.0
H124 H 0.19523 0.99333 0.68475 0.0
H125 H 0.21032 0.94202 0.60325 0.0
N126 N 0.20103 0.89343 0.64333 0.0
N127 N 0.21552 0.85098 0.62082 0.0
C128 C 0.22202 0.87051 0.64406 0.0
C129 C 0.1811 0.88845 0.61843 0.0
C130 C 0.19006 0.86239 0.6044 0.0
C131 C 0.13627 0.89706 0.69042 0.0
O132 O 0.15283 0.87315 0.68355 0.0
H133 H 0.24083 0.86755 0.66191 0.0
H134 H 0.16083 0.90247 0.61155 0.0
O135 O 0.22991 0.92089 0.70512 0.0
H136 H 0.21435 0.99769 0.58684 0.0
H137 H 0.17853 0.8525 0.58389 0.0
Cu138 Cu 0.83744 0.42007 0.85588 0.0
N139 N 0.82477 0.45553 0.87473 0.0
N140 N 0.81555 0.50245 0.88738 0.0
C141 C 0.83166 0.48371 0.86774 0.0
C142 C 0.79811 0.48544 0.90723 0.0
C143 C 0.80385 0.45671 0.89943 0.0
O144 O 0.88346 0.42035 0.84123 0.0
C145 C 0.80946 0.38924 0.80308 0.0
O146 O 0.83771 0.37517 0.80253 0.0
H147 H 0.84714 0.49031 0.84817 0.0
H148 H 0.79303 0.43782 0.91068 0.0
N149 N 0.8344 0.39222 0.88791 0.0
N150 N 0.82376 0.3511 0.91414 0.0
C151 C 0.81792 0.36668 0.88765 0.0
C152 C 0.85075 0.39298 0.91561 0.0
C153 C 0.84421 0.36762 0.93189 0.0
C154 C 0.89978 0.39644 0.84256 0.0
O155 O 0.88455 0.37244 0.85111 0.0
H156 H 0.8029 0.35922 0.86804 0.0
H157 H 0.86678 0.41057 0.9231 0.0
O158 O 0.80542 0.4099 0.82307 0.0
H159 H 0.78203 0.49331 0.92591 0.0
H160 H 0.85371 0.36178 0.95497 0.0
Cu161 Cu 0.69427 0.60549 0.36574 0.0
N162 N 0.69825 0.57131 0.38951 0.0
N163 N 0.70393 0.52437 0.40322 0.0
C164 C 0.70051 0.54346 0.37904 0.0
C165 C 0.70356 0.54087 0.42978 0.0
C166 C 0.70017 0.56974 0.42126 0.0
O167 O 0.64995 0.60743 0.34775 0.0
C168 C 0.73394 0.62906 0.31701 0.0
O169 O 0.7121 0.65027 0.31794 0.0
H170 H 0.69943 0.53742 0.35426 0.0
H171 H 0.69963 0.58833 0.43717 0.0
N172 N 0.69922 0.63725 0.3933 0.0
N173 N 0.71671 0.67922 0.41468 0.0
C174 C 0.72206 0.65855 0.39229 0.0
C175 C 0.67876 0.64465 0.41711 0.0
C176 C 0.68947 0.67051 0.43034 0.0
C177 C 0.63639 0.632 0.34183 0.0
O178 O 0.65316 0.65616 0.34647 0.0
H179 H 0.74136 0.65945 0.3747 0.0
H180 H 0.65713 0.63236 0.42385 0.0
O181 O 0.72965 0.60663 0.33428 0.0
H182 H 0.70641 0.5327 0.45364 0.0
H183 H 0.67789 0.68217 0.44977 0.0
Cu184 Cu 0.1948 0.34822 0.10909 0.0
N185 N 0.20006 0.38895 0.1092 0.0
N186 N 0.20054 0.4363 0.12312 0.0
C187 C 0.19434 0.40857 0.13255 0.0
C188 C 0.21003 0.43394 0.09258 0.0
C189 C 0.20985 0.4048 0.08417 0.0
O190 O 0.17315 0.33655 0.07003 0.0
C191 C 0.18433 0.33765 0.17339 0.0
O192 O 0.21265 0.3514 0.17554 0.0
H193 H 0.18575 0.4027 0.15592 0.0
H194 H 0.21583 0.39573 0.06116 0.0
N195 N 0.23597 0.33007 0.10863 0.0
N196 N 0.27445 0.29513 0.11228 0.0
C197 C 0.24292 0.30278 0.11857 0.0
C198 C 0.26389 0.34004 0.09543 0.0
C199 C 0.28766 0.31853 0.09757 0.0
C200 C 0.15068 0.35148 0.05656 0.0
O201 O 0.13926 0.37503 0.07081 0.0
H202 H 0.22497 0.28865 0.12967 0.0
H203 H 0.26642 0.36105 0.084 0.0
O204 O 0.17121 0.33446 0.14622 0.0
H205 H 0.21568 0.45198 0.07701 0.0
H206 H 0.31221 0.31961 0.08765 0.0
Cu207 Cu 0.70341 0.17512 0.9376 0.0
N208 N 0.72087 0.13841 0.92704 0.0
N209 N 0.72674 0.09121 0.91381 0.0
C210 C 0.70521 0.11298 0.92093 0.0
C211 C 0.75688 0.1035 0.9157 0.0
C212 C 0.75318 0.13251 0.92376 0.0
O213 O 0.6749 0.17325 0.97443 0.0
C214 C 0.68597 0.1866 0.87353 0.0
O215 O 0.70716 0.16573 0.86669 0.0
H216 H 0.67873 0.11049 0.92207 0.0
H217 H 0.77271 0.14833 0.9268 0.0
N218 N 0.73785 0.2002 0.94778 0.0
N219 N 0.77129 0.23887 0.94667 0.0
C220 C 0.74648 0.22455 0.93208 0.0
C221 C 0.7577 0.19905 0.97323 0.0
C222 C 0.77834 0.22294 0.97266 0.0
C223 C 0.68205 0.1578 0.99848 0.0
O224 O 0.70827 0.14088 0.99745 0.0
H225 H 0.7345 0.23181 0.91059 0.0
H226 H 0.75666 0.18244 0.99134 0.0
O227 O 0.6801 0.19292 0.90237 0.0
H228 H 0.78 0.09241 0.91098 0.0
H229 H 0.79615 0.22871 0.99069 0.0
Cu230 Cu 0.85664 0.84724 0.42564 0.0
N231 N 0.84201 0.88496 0.41612 0.0
N232 N 0.84063 0.93217 0.40279 0.0
C233 C 0.85981 0.90824 0.40677 0.0
C234 C 0.80967 0.9235 0.40949 0.0
C235 C 0.81062 0.89444 0.41775 0.0
O236 O 0.88303 0.84874 0.46397 0.0
C237 C 0.86889 0.83364 0.36151 0.0
O238 O 0.84486 0.85248 0.35697 0.0
H239 H 0.88621 0.90769 0.40308 0.0
H240 H 0.78977 0.88105 0.4242 0.0
N241 N 0.82027 0.82441 0.43555 0.0
N242 N 0.78468 0.78735 0.43679 0.0
C243 C 0.81051 0.79941 0.42151 0.0
C244 C 0.80005 0.82834 0.46045 0.0
C245 C 0.77789 0.80561 0.46115 0.0
C246 C 0.89076 0.82523 0.47822 0.0
O247 O 0.88483 0.80006 0.46418 0.0
H248 H 0.82225 0.79024 0.40068 0.0
H249 H 0.80185 0.84618 0.47729 0.0
O250 O 0.87899 0.82907 0.38964 0.0
H251 H 0.78778 0.937 0.40772 0.0
H252 H 0.75891 0.80226 0.47878 0.0
Cu253 Cu 0.35179 0.68068 0.60538 0.0
N254 N 0.33591 0.64333 0.61506 0.0
N255 N 0.33175 0.59737 0.63249 0.0
C256 C 0.35198 0.62047 0.6281 0.0
C257 C 0.30209 0.60591 0.62139 0.0
C258 C 0.3047 0.63422 0.61085 0.0
O259 O 0.38011 0.67965 0.56819 0.0
C260 C 0.36287 0.69487 0.66945 0.0
O261 O 0.33685 0.67829 0.67369 0.0
H262 H 0.37773 0.62096 0.63478 0.0
H263 H 0.2851 0.64728 0.60083 0.0
N264 N 0.31622 0.70478 0.59517 0.0
N265 N 0.27997 0.74161 0.59535 0.0
C266 C 0.30615 0.7294 0.61002 0.0
C267 C 0.29606 0.70161 0.5701 0.0
C268 C 0.27366 0.72426 0.57016 0.0
C269 C 0.3727 0.66375 0.54439 0.0
O270 O 0.34768 0.64573 0.54675 0.0
H271 H 0.3178 0.73822 0.63104 0.0
H272 H 0.29779 0.68421 0.55274 0.0
O273 O 0.37421 0.69801 0.64156 0.0
H274 H 0.28014 0.59252 0.62056 0.0
H275 H 0.25483 0.72814 0.55252 0.0
Cu276 Cu 0.93619 0.84861 0.70154 0.0
N277 N 0.92514 0.82896 0.66409 0.0
N278 N 0.91639 0.81932 0.61278 0.0
C279 C 0.92652 0.83939 0.6343 0.0
C280 C 0.90875 0.79532 0.62979 0.0
C281 C 0.91414 0.80134 0.66137 0.0
O282 O 0.97789 0.86796 0.69368 0.0
C283 C 0.87195 0.87388 0.70311 0.0
O284 O 0.86661 0.85667 0.67869 0.0
H285 H 0.93508 0.86115 0.62863 0.0
H286 H 0.91006 0.7867 0.68103 0.0
N287 N 0.94217 0.82117 0.73354 0.0
N288 N 0.93095 0.7917 0.77414 0.0
C289 C 0.9187 0.81103 0.75309 0.0
C290 C 0.97024 0.80772 0.74231 0.0
C291 C 0.96338 0.78944 0.76739 0.0
C292 C 0.99636 0.88007 0.71424 0.0
O293 O 0.98566 0.88329 0.74341 0.0
H294 H 0.89315 0.81789 0.75203 0.0
H295 H 0.99395 0.81091 0.73114 0.0
O296 O 0.90064 0.87474 0.7154 0.0
H297 H 0.89927 0.77503 0.62014 0.0
H298 H 0.98073 0.77513 0.77917 0.0
Cu299 Cu 0.6014 0.17823 0.21168 0.0
N300 N 0.60024 0.1822 0.16773 0.0
N301 N 0.61218 0.17816 0.11621 0.0
C302 C 0.62271 0.17343 0.14615 0.0
C303 C 0.58209 0.19053 0.11923 0.0
C304 C 0.57475 0.19283 0.15098 0.0
O305 O 0.55933 0.16201 0.22437 0.0
C306 C 0.66742 0.16506 0.22143 0.0
O307 O 0.67041 0.19154 0.2098 0.0
H308 H 0.6463 0.16398 0.15235 0.0
H309 H 0.55216 0.20124 0.16122 0.0
N310 N 0.60609 0.21491 0.23082 0.0
N311 N 0.62179 0.24953 0.26514 0.0
C312 C 0.61973 0.22051 0.25929 0.0
C313 C 0.5992 0.24123 0.21827 0.0
C314 C 0.60902 0.26265 0.23934 0.0
C315 C 0.54779 0.13897 0.21152 0.0
O316 O 0.56651 0.12411 0.19176 0.0
H317 H 0.62947 0.20366 0.27464 0.0
H318 H 0.58868 0.24461 0.19505 0.0
O319 O 0.63871 0.1541 0.22398 0.0
H320 H 0.56623 0.19693 0.09984 0.0
H321 H 0.60751 0.28606 0.23573 0.0
Cu322 Cu 0.44054 0.68983 0.32754 0.0
N323 N 0.43705 0.69931 0.37062 0.0
N324 N 0.42622 0.69572 0.42244 0.0
C325 C 0.42891 0.68125 0.39453 0.0
C326 C 0.43351 0.72383 0.41579 0.0
C327 C 0.44008 0.72598 0.38391 0.0
O328 O 0.4841 0.67386 0.31982 0.0
C329 C 0.37673 0.66687 0.32728 0.0
O330 O 0.37167 0.68869 0.34706 0.0
H331 H 0.42465 0.65807 0.39129 0.0
H332 H 0.44571 0.74581 0.37121 0.0
N333 N 0.43683 0.72374 0.30324 0.0
N334 N 0.42003 0.75632 0.26744 0.0
C335 C 0.41485 0.72967 0.28018 0.0
C336 C 0.45681 0.74717 0.30465 0.0
C337 C 0.44636 0.76742 0.28274 0.0
C338 C 0.4953 0.65035 0.33174 0.0
O339 O 0.4757 0.63405 0.349 0.0
H340 H 0.39537 0.71491 0.27303 0.0
H341 H 0.4777 0.74925 0.32039 0.0
O342 O 0.40539 0.6631 0.31558 0.0
H343 H 0.43283 0.74181 0.43257 0.0
H344 H 0.45755 0.78843 0.27801 0.0
Cu345 Cu 0.0982 0.34472 0.83534 0.0
N346 N 0.10772 0.32807 0.87465 0.0
N347 N 0.11784 0.32334 0.92641 0.0
C348 C 0.11173 0.34215 0.90248 0.0
C349 C 0.1179 0.29647 0.91298 0.0
C350 C 0.11149 0.29945 0.88111 0.0
O351 O 0.05591 0.36416 0.84037 0.0
C352 C 0.16367 0.36134 0.8281 0.0
O353 O 0.168 0.33636 0.84282 0.0
H354 H 0.11088 0.36572 0.9049 0.0
H355 H 0.10979 0.28198 0.86383 0.0
N356 N 0.09343 0.31471 0.80561 0.0
N357 N 0.10412 0.28256 0.76701 0.0
C358 C 0.11436 0.30693 0.78223 0.0
C359 C 0.06906 0.2948 0.80488 0.0
C360 C 0.07565 0.27485 0.78112 0.0
C361 C 0.04069 0.3808 0.82117 0.0
O362 O 0.05503 0.38869 0.79468 0.0
H363 H 0.1372 0.3182 0.77724 0.0
H364 H 0.04841 0.29446 0.82108 0.0
O365 O 0.13438 0.37003 0.82244 0.0
H366 H 0.12209 0.27611 0.92537 0.0
H367 H 0.06091 0.25596 0.7749 0.0
Cu368 Cu 0.68765 0.92563 0.83279 0.0
N369 N 0.64525 0.91692 0.8178 0.0
N370 N 0.592 0.90439 0.81525 0.0
C371 C 0.61865 0.90769 0.83418 0.0
C372 C 0.60237 0.91148 0.78593 0.0
C373 C 0.63508 0.91923 0.7876 0.0
O374 O 0.68607 0.96265 0.85546 0.0
C375 C 0.69765 0.86776 0.85461 0.0
O376 O 0.67678 0.86101 0.83197 0.0
H377 H 0.6188 0.90356 0.8594 0.0
H378 H 0.65046 0.92587 0.76802 0.0
N379 N 0.71634 0.93058 0.79859 0.0
N380 N 0.75808 0.925 0.76455 0.0
C381 C 0.74323 0.91464 0.79085 0.0
C382 C 0.71451 0.95191 0.7768 0.0
C383 C 0.74013 0.94845 0.75568 0.0
C384 C 0.71089 0.97159 0.87107 0.0
O385 O 0.73678 0.95437 0.87339 0.0
H386 H 0.75153 0.8957 0.80397 0.0
H387 H 0.69582 0.96883 0.77641 0.0
O388 O 0.7049 0.89449 0.85944 0.0
H389 H 0.5876 0.91038 0.76462 0.0
H390 H 0.74541 0.96231 0.7356 0.0
Cu391 Cu 0.85802 0.10369 0.33306 0.0
N392 N 0.90075 0.11061 0.31832 0.0
N393 N 0.95298 0.12591 0.31603 0.0
C394 C 0.92593 0.12281 0.3344 0.0
C395 C 0.94456 0.11484 0.28749 0.0
C396 C 0.91231 0.10554 0.28894 0.0
O397 O 0.85639 0.06776 0.35723 0.0
C398 C 0.85034 0.1624 0.35337 0.0
O399 O 0.86943 0.16817 0.32909 0.0
H400 H 0.92429 0.12937 0.359 0.0
H401 H 0.89809 0.09615 0.26979 0.0
N402 N 0.82861 0.10004 0.29937 0.0
N403 N 0.78443 0.10776 0.269 0.0
C404 C 0.80345 0.11825 0.29265 0.0
C405 C 0.82554 0.07736 0.27915 0.0
C406 C 0.7983 0.08209 0.26028 0.0
C407 C 0.87149 0.04462 0.34858 0.0
O408 O 0.89024 0.04541 0.32323 0.0
H409 H 0.79845 0.13829 0.3056 0.0
H410 H 0.84155 0.0584 0.27864 0.0
O411 O 0.84288 0.13598 0.3594 0.0
H412 H 0.9603 0.1143 0.26679 0.0
H413 H 0.78938 0.06779 0.24169 0.0
Cu414 Cu 0.1899 0.6002 0.2184 0.0
N415 N 0.14624 0.60389 0.23246 0.0
N416 N 0.09244 0.61512 0.23316 0.0
C417 C 0.12123 0.61712 0.21709 0.0
C418 C 0.0999 0.60034 0.25983 0.0
C419 C 0.13297 0.59346 0.25932 0.0
O420 O 0.19456 0.56646 0.19039 0.0
C421 C 0.20135 0.64212 0.1687 0.0
O422 O 0.18887 0.62264 0.14915 0.0
H423 H 0.12439 0.62838 0.19482 0.0
H424 H 0.14624 0.58142 0.2772 0.0
N425 N 0.21901 0.59575 0.25223 0.0
N426 N 0.26267 0.60409 0.28304 0.0
C427 C 0.24634 0.61189 0.25663 0.0
C428 C 0.21833 0.57672 0.27648 0.0
C429 C 0.24519 0.58201 0.29576 0.0
C430 C 0.18161 0.54201 0.19759 0.0
O431 O 0.16401 0.54019 0.22361 0.0
H432 H 0.25391 0.62934 0.241 0.0
H433 H 0.1998 0.56007 0.27985 0.0
O434 O 0.20297 0.63632 0.19804 0.0
H435 H 0.08257 0.59451 0.27822 0.0
H436 H 0.25158 0.5704 0.31719 0.0
Cu437 Cu 0.35171 0.43073 0.71795 0.0
N438 N 0.39653 0.42659 0.72751 0.0
N439 N 0.44867 0.41027 0.72647 0.0
C440 C 0.41796 0.40754 0.71427 0.0
C441 C 0.44634 0.43224 0.74788 0.0
C442 C 0.41428 0.44228 0.74838 0.0
O443 O 0.34314 0.46855 0.69889 0.0
C444 C 0.33698 0.37336 0.70093 0.0
O445 O 0.34565 0.36892 0.7305 0.0
H446 H 0.41117 0.39258 0.69547 0.0
H447 H 0.40466 0.45997 0.76278 0.0
N448 N 0.32574 0.42822 0.75447 0.0
N449 N 0.28292 0.41792 0.78583 0.0
C450 C 0.29455 0.41817 0.75587 0.0
C451 C 0.33404 0.43468 0.78454 0.0
C452 C 0.30775 0.42817 0.80395 0.0
C453 C 0.36364 0.48272 0.68213 0.0
O454 O 0.39255 0.47102 0.67588 0.0
H455 H 0.28125 0.40999 0.73547 0.0
H456 H 0.35772 0.44292 0.792 0.0
O457 O 0.3384 0.39921 0.6899 0.0
H458 H 0.46632 0.44037 0.76239 0.0
H459 H 0.3071 0.43034 0.82948 0.0
Cu460 Cu 0.82974 0.70921 0.9248 0.0
N461 N 0.81357 0.67458 0.90675 0.0
N462 N 0.8066 0.62786 0.89216 0.0
C463 C 0.82614 0.64719 0.90762 0.0
C464 C 0.7809 0.64372 0.88136 0.0
C465 C 0.78528 0.6724 0.89032 0.0
O466 O 0.84915 0.70051 0.96598 0.0
C467 C 0.85249 0.7305 0.86716 0.0
O468 O 0.82289 0.72205 0.85856 0.0
H469 H 0.84845 0.64144 0.92021 0.0
H470 H 0.76878 0.69046 0.88547 0.0
N471 N 0.79418 0.73497 0.9298 0.0
N472 N 0.75891 0.77169 0.92105 0.0
C473 C 0.78921 0.7607 0.91503 0.0
C474 C 0.76618 0.72965 0.94585 0.0
C475 C 0.74429 0.75219 0.94033 0.0
C476 C 0.84931 0.71859 0.98908 0.0
O477 O 0.83717 0.74497 0.98488 0.0
H478 H 0.80665 0.77032 0.89876 0.0
H479 H 0.76155 0.71007 0.95942 0.0
O480 O 0.86131 0.72667 0.89579 0.0
H481 H 0.7602 0.63509 0.86815 0.0
H482 H 0.71922 0.7537 0.94898 0.0
Cu483 Cu 0.3156 0.81734 0.10816 0.0
N484 N 0.30098 0.85524 0.11843 0.0
N485 N 0.29963 0.90312 0.12995 0.0
C486 C 0.31869 0.88009 0.12127 0.0
C487 C 0.26881 0.89236 0.13239 0.0
C488 C 0.26976 0.86291 0.12545 0.0
O489 O 0.33217 0.81608 0.0649 0.0
C490 C 0.34354 0.81019 0.16822 0.0
O491 O 0.31875 0.82714 0.17644 0.0
H492 H 0.34501 0.88126 0.11746 0.0
H493 H 0.24904 0.8481 0.12548 0.0
N494 N 0.27981 0.79175 0.10923 0.0
N495 N 0.24841 0.75285 0.11981 0.0
C496 C 0.27686 0.76704 0.12628 0.0
C497 C 0.25254 0.79313 0.09119 0.0
C498 C 0.23313 0.76919 0.09766 0.0
C499 C 0.35533 0.83128 0.05305 0.0
O500 O 0.37191 0.84927 0.07134 0.0
H501 H 0.29576 0.75914 0.14219 0.0
H502 H 0.24743 0.81017 0.07418 0.0
O503 O 0.34753 0.80358 0.13914 0.0
H504 H 0.24695 0.905 0.13798 0.0
H505 H 0.20963 0.76413 0.08685 0.0
Cu506 Cu 0.21344 0.21533 0.61326 0.0
N507 N 0.22693 0.17751 0.62427 0.0
N508 N 0.22752 0.12952 0.63444 0.0
C509 C 0.20929 0.15254 0.62448 0.0
C510 C 0.25757 0.14053 0.64099 0.0
C511 C 0.25714 0.17005 0.63465 0.0
O512 O 0.19949 0.2167 0.56927 0.0
C513 C 0.17927 0.2218 0.67103 0.0
O514 O 0.19977 0.2013 0.68036 0.0
H515 H 0.18352 0.1514 0.61808 0.0
H516 H 0.27747 0.18511 0.63744 0.0
N517 N 0.2498 0.24002 0.61548 0.0
N518 N 0.2833 0.27648 0.62942 0.0
C519 C 0.25605 0.26112 0.63699 0.0
C520 C 0.27398 0.24194 0.59379 0.0
C521 C 0.29478 0.26441 0.60237 0.0
C522 C 0.17705 0.20222 0.55524 0.0
O523 O 0.1589 0.18384 0.57144 0.0
H524 H 0.24044 0.26572 0.65722 0.0
H525 H 0.27596 0.22825 0.57291 0.0
O526 O 0.18031 0.23051 0.64245 0.0
H527 H 0.27855 0.12799 0.64919 0.0
H528 H 0.31664 0.27128 0.58976 0.0
Cu529 Cu 0.71475 0.31642 0.43 0.0
N530 N 0.72926 0.3537 0.41863 0.0
N531 N 0.73103 0.40127 0.40678 0.0
C532 C 0.71214 0.379 0.41729 0.0
C533 C 0.76116 0.38957 0.40176 0.0
C534 C 0.75993 0.36028 0.40892 0.0
O535 O 0.69217 0.3171 0.47069 0.0
C536 C 0.69305 0.30435 0.36805 0.0
O537 O 0.71926 0.31966 0.36059 0.0
H538 H 0.68637 0.38098 0.42365 0.0
H539 H 0.78006 0.34479 0.40715 0.0
N540 N 0.75147 0.29197 0.43311 0.0
N541 N 0.78869 0.25753 0.42152 0.0
C542 C 0.75854 0.26845 0.41498 0.0
C543 C 0.77786 0.2958 0.45198 0.0
C544 C 0.80097 0.27459 0.44479 0.0
C545 C 0.70194 0.33252 0.49407 0.0
O546 O 0.72749 0.34976 0.49031 0.0
H547 H 0.74251 0.26018 0.39653 0.0
H548 H 0.78049 0.31334 0.46906 0.0
O549 O 0.68605 0.30075 0.39717 0.0
H550 H 0.7828 0.40146 0.39421 0.0
H551 H 0.82502 0.27206 0.45555 0.0
C552 C 0.15044 0.2981 0.19828 0.0
C553 C 0.17016 0.32323 0.20171 0.0
C554 C 0.14008 0.2821 0.22477 0.0
C555 C 0.14845 0.29094 0.25568 0.0
H556 H 0.14401 0.29006 0.17492 0.0
H557 H 0.12574 0.26242 0.22111 0.0
S558 S 0.19811 0.35594 0.27769 0.0
N559 N 0.19655 0.3568 0.23864 0.0
N560 N 0.17684 0.32682 0.28826 0.0
C561 C 0.16713 0.31657 0.25951 0.0
C562 C 0.17805 0.33266 0.23257 0.0
C563 C 0.38086 0.71819 0.75416 0.0
C564 C 0.39848 0.74441 0.75047 0.0
C565 C 0.37011 0.70205 0.72781 0.0
C566 C 0.37699 0.71123 0.69671 0.0
H567 H 0.3743 0.71067 0.7776 0.0
H568 H 0.35591 0.68238 0.7319 0.0
S569 S 0.42437 0.77745 0.67445 0.0
N570 N 0.42375 0.77815 0.71355 0.0
N571 N 0.40386 0.74779 0.66392 0.0
C572 C 0.39562 0.73691 0.69274 0.0
C573 C 0.40622 0.75352 0.71963 0.0
C574 C 0.65252 0.25218 0.82869 0.0
C575 C 0.64556 0.24041 0.79866 0.0
C576 C 0.66482 0.23443 0.85306 0.0
C577 C 0.67134 0.20447 0.84794 0.0
H578 H 0.64795 0.27516 0.83339 0.0
H579 H 0.66987 0.24439 0.87588 0.0
S580 S 0.65807 0.16351 0.77301 0.0
N581 N 0.64619 0.19727 0.76494 0.0
N582 N 0.67014 0.164 0.81036 0.0
C583 C 0.66483 0.19259 0.81783 0.0
C584 C 0.65169 0.21054 0.79329 0.0
C585 C 0.88562 0.80919 0.27674 0.0
C586 C 0.899 0.78101 0.28042 0.0
C587 C 0.87679 0.82632 0.30313 0.0
C588 C 0.88151 0.81614 0.33427 0.0
H589 H 0.88081 0.81762 0.25327 0.0
H590 H 0.8657 0.84756 0.29905 0.0
S591 S 0.91812 0.74461 0.35663 0.0
N592 N 0.91837 0.74431 0.31753 0.0
N593 N 0.90192 0.77641 0.3671 0.0
C594 C 0.89608 0.78841 0.33825 0.0
C595 C 0.90473 0.77086 0.31135 0.0
C596 C 0.26593 0.16441 0.24944 0.0
C597 C 0.27655 0.13577 0.24241 0.0
C598 C 0.23734 0.16966 0.26711 0.0
C599 C 0.21827 0.1465 0.27902 0.0
H600 H 0.27963 0.18313 0.24097 0.0
H601 H 0.23049 0.19219 0.27188 0.0
S602 S 0.23512 0.06729 0.26721 0.0
N603 N 0.26547 0.0838 0.24836 0.0
N604 N 0.2119 0.09367 0.28228 0.0
C605 C 0.22853 0.11767 0.27225 0.0
C606 C 0.25755 0.11231 0.25374 0.0
C607 C 0.30534 0.90987 0.77723 0.0
C608 C 0.32041 0.88205 0.7784 0.0
C609 C 0.27746 0.91501 0.7582 0.0
C610 C 0.26315 0.89232 0.74034 0.0
H611 H 0.31512 0.92783 0.79113 0.0
H612 H 0.26661 0.9367 0.75804 0.0
S613 S 0.29365 0.81585 0.73388 0.0
N614 N 0.31936 0.83182 0.75877 0.0
N615 N 0.26681 0.84139 0.72385 0.0
C616 C 0.27813 0.86454 0.74099 0.0
C617 C 0.30679 0.85944 0.75977 0.0
C618 C 0.78626 0.3546 0.76266 0.0
C619 C 0.78165 0.37892 0.78282 0.0
C620 C 0.76009 0.34258 0.74529 0.0
C621 C 0.728 0.35429 0.7472 0.0
H622 H 0.81022 0.34424 0.76066 0.0
H623 H 0.76509 0.32354 0.73067 0.0
S624 S 0.70287 0.41915 0.79496 0.0
N625 N 0.74255 0.41521 0.80249 0.0
N626 N 0.69343 0.39267 0.76987 0.0
C627 C 0.72315 0.37921 0.76649 0.0
C628 C 0.74989 0.39149 0.78425 0.0
C629 C 0.81179 0.61328 0.26926 0.0
C630 C 0.82528 0.64139 0.2649 0.0
C631 C 0.78238 0.60927 0.28637 0.0
C632 C 0.7652 0.63325 0.29942 0.0
H633 H 0.82376 0.59423 0.25906 0.0
H634 H 0.77272 0.58733 0.28889 0.0
S635 S 0.79191 0.7109 0.2983 0.0
N636 N 0.82032 0.6933 0.27767 0.0
N637 N 0.76523 0.68572 0.30925 0.0
C638 C 0.77887 0.66131 0.29605 0.0
C639 C 0.80884 0.66539 0.27896 0.0
C640 C 0.28567 0.2135 0.1201 0.0
C641 C 0.31967 0.21077 0.12563 0.0
C642 C 0.27101 0.24111 0.11599 0.0
C643 C 0.28979 0.26699 0.11762 0.0
H644 H 0.2705 0.19411 0.11832 0.0
H645 H 0.24489 0.24211 0.11088 0.0
S646 S 0.37909 0.27152 0.13603 0.0
N647 N 0.37125 0.23609 0.13517 0.0
N648 N 0.34374 0.28795 0.12819 0.0
C649 C 0.32366 0.26447 0.12427 0.0
C650 C 0.33858 0.23638 0.12811 0.0
C651 C 0.77815 0.31564 0.91557 0.0
C652 C 0.81129 0.32253 0.92159 0.0
C653 C 0.76532 0.2882 0.92358 0.0
C654 C 0.78524 0.2666 0.9377 0.0
H655 H 0.76191 0.33185 0.90525 0.0
H656 H 0.73943 0.2841 0.9193 0.0
S657 S 0.87473 0.27266 0.95442 0.0
N658 N 0.86442 0.30495 0.94002 0.0
N659 N 0.84049 0.25321 0.95469 0.0
C660 C 0.81871 0.27296 0.94286 0.0
C661 C 0.83168 0.30096 0.93489 0.0
C662 C 0.73398 0.75795 0.43461 0.0
C663 C 0.76814 0.76024 0.42975 0.0
C664 C 0.71743 0.73153 0.42943 0.0
C665 C 0.7344 0.70626 0.4193 0.0
H666 H 0.71989 0.77683 0.44236 0.0
H667 H 0.69105 0.73098 0.43315 0.0
S668 S 0.8244 0.70034 0.40457 0.0
N669 N 0.81864 0.73485 0.41501 0.0
N670 N 0.7876 0.68504 0.40546 0.0
C671 C 0.76862 0.70824 0.41427 0.0
C672 C 0.78548 0.73525 0.41945 0.0
C673 C 0.26545 0.81987 0.61983 0.0
C674 C 0.2312 0.82301 0.61578 0.0
C675 C 0.28124 0.79302 0.61381 0.0
C676 C 0.26327 0.76844 0.60357 0.0
H677 H 0.28021 0.83849 0.62691 0.0
H678 H 0.30776 0.79168 0.6163 0.0
S679 S 0.17256 0.764 0.59437 0.0
N680 N 0.17947 0.7984 0.60442 0.0
N681 N 0.20914 0.74811 0.59297 0.0
C682 C 0.2289 0.771 0.60077 0.0
C683 C 0.21285 0.79824 0.60692 0.0
C684 C 0.8617 0.75125 0.81326 0.0
C685 C 0.87397 0.74558 0.84385 0.0
C686 C 0.8805 0.76617 0.79076 0.0
C687 C 0.9125 0.7759 0.79769 0.0
H688 H 0.83717 0.74432 0.80653 0.0
H689 H 0.86996 0.76993 0.76758 0.0
S690 S 0.95632 0.76724 0.87416 0.0
N691 N 0.9204 0.75118 0.87986 0.0
N692 N 0.95566 0.77934 0.83738 0.0
C693 C 0.92532 0.77031 0.82802 0.0
C694 C 0.90607 0.75517 0.85112 0.0
C695 C 0.65856 0.2878 0.28631 0.0
C696 C 0.63798 0.2636 0.29149 0.0
C697 C 0.67589 0.30094 0.31129 0.0
C698 C 0.67297 0.2907 0.34257 0.0
H699 H 0.66197 0.29616 0.2626 0.0
H700 H 0.69184 0.31924 0.30594 0.0
S701 S 0.62069 0.2288 0.36884 0.0
N702 N 0.61461 0.23049 0.33022 0.0
N703 N 0.64694 0.25526 0.37736 0.0
C704 C 0.65179 0.26691 0.34819 0.0
C705 C 0.63443 0.25331 0.32261 0.0
C706 C 0.39425 0.75491 0.21448 0.0
C707 C 0.40147 0.77016 0.24262 0.0
C708 C 0.3765 0.76834 0.18991 0.0
C709 C 0.3647 0.79723 0.19306 0.0
H710 H 0.40266 0.73256 0.21142 0.0
H711 H 0.37121 0.75578 0.1687 0.0
S712 S 0.37685 0.84623 0.26234 0.0
N713 N 0.39573 0.81553 0.2722 0.0
N714 N 0.36169 0.84059 0.22654 0.0
C715 C 0.37174 0.8126 0.22116 0.0
C716 C 0.39033 0.79912 0.24581 0.0
C717 C 0.15107 0.26672 0.69205 0.0
C718 C 0.15776 0.23656 0.69455 0.0
C719 C 0.13352 0.28168 0.71585 0.0
C720 C 0.12137 0.26684 0.74247 0.0
H721 H 0.16038 0.27904 0.67212 0.0
H722 H 0.12935 0.30499 0.71349 0.0
S723 S 0.13136 0.18791 0.75986 0.0
N724 N 0.15046 0.19241 0.72569 0.0
N725 N 0.11686 0.22047 0.76988 0.0
C726 C 0.1272 0.23664 0.74488 0.0
C727 C 0.14558 0.22152 0.72105 0.0
C728 C 0.81488 0.90527 0.76631 0.0
C729 C 0.7868 0.91329 0.74884 0.0
C730 C 0.84301 0.89374 0.75123 0.0
C731 C 0.84371 0.88923 0.71821 0.0
H732 H 0.81508 0.90805 0.79179 0.0
H733 H 0.86391 0.88744 0.76565 0.0
S734 S 0.77625 0.90656 0.66193 0.0
N735 N 0.76143 0.91613 0.69691 0.0
N736 N 0.81384 0.89408 0.66858 0.0
C737 C 0.81577 0.89733 0.70054 0.0
C738 C 0.78744 0.90947 0.71583 0.0
C739 C 0.72605 0.16529 0.23938 0.0
C740 C 0.6971 0.14936 0.233 0.0
C741 C 0.75438 0.15152 0.25111 0.0
C742 C 0.75514 0.12122 0.2564 0.0
H743 H 0.72678 0.18874 0.23577 0.0
H744 H 0.77602 0.16464 0.25587 0.0
S745 S 0.68616 0.0694 0.24368 0.0
N746 N 0.67103 0.10147 0.23302 0.0
N747 N 0.72454 0.07561 0.25481 0.0
C748 C 0.72657 0.10491 0.24992 0.0
C749 C 0.69748 0.11898 0.23834 0.0
C750 C 0.34703 0.63768 0.28597 0.0
C751 C 0.34867 0.64846 0.31719 0.0
C752 C 0.31898 0.6228 0.27506 0.0
C753 C 0.29208 0.61751 0.29522 0.0
H754 H 0.36698 0.64173 0.26952 0.0
H755 H 0.31813 0.61555 0.25062 0.0
S756 S 0.28474 0.63991 0.37931 0.0
N757 N 0.32126 0.65212 0.3683 0.0
N758 N 0.26906 0.62344 0.34787 0.0
C759 C 0.29387 0.62725 0.3267 0.0
C760 C 0.32205 0.64294 0.33765 0.0
C761 C 0.25187 0.38818 0.82408 0.0
C762 C 0.25228 0.40562 0.79677 0.0
C763 C 0.2229 0.37451 0.83423 0.0
C764 C 0.19298 0.37812 0.81781 0.0
H765 H 0.27438 0.38435 0.83719 0.0
H766 H 0.22406 0.36079 0.85506 0.0
S767 S 0.1805 0.42291 0.74576 0.0
N768 N 0.22006 0.42669 0.75404 0.0
N769 N 0.16535 0.40122 0.77334 0.0
C770 C 0.19278 0.39621 0.79096 0.0
C771 C 0.2225 0.40983 0.78034 0.0
C772 C 0.71154 0.79408 0.89363 0.0
C773 C 0.74357 0.79649 0.90605 0.0
C774 C 0.69683 0.81735 0.87729 0.0
C775 C 0.71332 0.84415 0.87335 0.0
H776 H 0.69814 0.77373 0.8958 0.0
H777 H 0.67234 0.81428 0.86763 0.0
S778 S 0.79722 0.86189 0.90256 0.0
N779 N 0.79109 0.8278 0.91397 0.0
N780 N 0.76331 0.87187 0.8838 0.0
C781 C 0.74509 0.84708 0.88634 0.0
C782 C 0.76028 0.82315 0.90249 0.0
C783 C 0.20878 0.67854 0.12492 0.0
C784 C 0.2138 0.67067 0.15675 0.0
C785 C 0.2201 0.70536 0.1131 0.0
C786 C 0.23716 0.72534 0.13252 0.0
H787 H 0.19589 0.66395 0.10892 0.0
H788 H 0.21581 0.71035 0.08841 0.0
S789 S 0.25637 0.71583 0.21772 0.0
N790 N 0.23697 0.68549 0.20761 0.0
N791 N 0.25788 0.73579 0.18529 0.0
C792 C 0.24239 0.71784 0.16435 0.0
C793 C 0.23077 0.69059 0.17649 0.0
C794 C 0.31248 0.32335 0.69698 0.0
C795 C 0.32381 0.34878 0.68173 0.0
C796 C 0.29906 0.29997 0.67976 0.0
C797 C 0.29698 0.30086 0.6466 0.0
H798 H 0.31354 0.32158 0.72253 0.0
H799 H 0.29057 0.28085 0.69242 0.0
S800 S 0.32271 0.36223 0.59513 0.0
N801 N 0.33168 0.37342 0.63134 0.0
N802 N 0.30669 0.32925 0.59905 0.0
C803 C 0.30828 0.326 0.63096 0.0
C804 C 0.32159 0.35002 0.64851 0.0
C805 C 0.78841 0.20708 0.40069 0.0
C806 C 0.80495 0.2337 0.40554 0.0
C807 C 0.80366 0.18376 0.3846 0.0
C808 C 0.83565 0.18659 0.37207 0.0
H809 H 0.76357 0.20432 0.40957 0.0
H810 H 0.78997 0.16366 0.38122 0.0
S811 S 0.88916 0.25206 0.3782 0.0
N812 N 0.85493 0.2616 0.39682 0.0
N813 N 0.88338 0.2181 0.36584 0.0
C814 C 0.85239 0.21316 0.37674 0.0
C815 C 0.8371 0.23664 0.3937 0.0
C816 C 0.15445 0.18397 0.50316 0.0
C817 C 0.17375 0.20433 0.52017 0.0
C818 C 0.154 0.18371 0.46982 0.0
C819 C 0.17297 0.20365 0.4524 0.0
H820 H 0.14047 0.16746 0.51559 0.0
H821 H 0.13995 0.16702 0.45759 0.0
S822 S 0.22385 0.26393 0.4849 0.0
N823 N 0.20955 0.24696 0.51645 0.0
N824 N 0.20867 0.24607 0.45416 0.0
C825 C 0.19088 0.22501 0.46896 0.0
C826 C 0.19127 0.22546 0.50273 0.0
C827 C 0.34417 0.80931 0.99974 0.0
C828 C 0.36129 0.83003 1.01821 0.0
C829 C 0.34629 0.80922 0.96665 0.0
C830 C 0.36569 0.82973 0.95042 0.0
H831 H 0.32827 0.79334 1.01081 0.0
H832 H 0.3321 0.79319 0.95356 0.0
S833 S 0.41685 0.88774 0.98718 0.0
N834 N 0.39969 0.87093 1.01753 0.0
N835 N 0.40338 0.87067 0.95517 0.0
C836 C 0.38405 0.84983 0.96843 0.0
C837 C 0.38189 0.85002 1.00232 0.0
C838 C 0.69937 0.3449 0.55213 0.0
C839 C 0.68672 0.32917 0.526 0.0
C840 C 0.68769 0.34012 0.58302 0.0
C841 C 0.6631 0.31929 0.589 0.0
H842 H 0.71913 0.3605 0.54893 0.0
H843 H 0.69896 0.35186 0.60252 0.0
S844 S 0.61868 0.27495 0.529 0.0
N845 N 0.64582 0.29374 0.5083 0.0
N846 N 0.62418 0.2849 0.56625 0.0
C847 C 0.64911 0.30447 0.56308 0.0
C848 C 0.66079 0.30939 0.53164 0.0
C849 C 0.86064 0.71741 0.07875 0.0
C850 C 0.8757 0.69013 0.08408 0.0
C851 C 0.85309 0.72679 0.04793 0.0
C852 C 0.86034 0.70927 0.02118 0.0
H853 H 0.8535 0.73109 0.09862 0.0
H854 H 0.84055 0.74758 0.04519 0.0
S855 S 0.90419 0.63781 0.02229 0.0
N856 N 0.9009 0.64716 0.05996 0.0
N857 N 0.88642 0.66446 1.00224 0.0
C858 C 0.87688 0.68256 0.0262 0.0
C859 C 0.88461 0.67308 0.05755 0.0
C860 C 0.45619 0.15089 0.22431 0.0
C861 C 0.44182 0.12634 0.20961 0.0
C862 C 0.49046 0.15385 0.22662 0.0
C863 C 0.51194 0.13252 0.21399 0.0
H864 H 0.44086 0.16859 0.23314 0.0
H865 H 0.50008 0.17379 0.23699 0.0
S866 S 0.48687 0.06227 0.17661 0.0
N867 N 0.45171 0.07888 0.18498 0.0
N868 N 0.51619 0.0845 0.18908 0.0
C869 C 0.49791 0.10695 0.20102 0.0
C870 C 0.46287 0.10383 0.19891 0.0
C871 C 0.05018 0.90562 0.72533 0.0
C872 C 0.03131 0.88658 0.70623 0.0
C873 C 0.084 0.91005 0.71949 0.0
C874 C 0.10019 0.89499 0.69488 0.0
H875 H 0.03885 0.91693 0.74515 0.0
H876 H 0.09777 0.92446 0.735 0.0
S877 S 0.06213 0.84398 0.637 0.0
N878 N 0.03153 0.85375 0.66058 0.0
N879 N 0.09479 0.86159 0.65031 0.0
C880 C 0.08154 0.87651 0.67521 0.0
C881 C 0.04718 0.87243 0.68069 0.0
C882 C 0.98779 0.36962 0.84849 0.0
C883 C 1.00528 0.38739 0.82721 0.0
C884 C 0.95397 0.37324 0.85334 0.0
C885 C 0.93596 0.39511 0.83756 0.0
H886 H 1.00008 0.35207 0.86103 0.0
H887 H 0.9418 0.35854 0.86963 0.0
S888 S 0.97002 0.44881 0.78081 0.0
N889 N 1.00212 0.42856 0.79095 0.0
N890 N 0.93827 0.43574 0.80073 0.0
C891 C 0.95312 0.4138 0.81701 0.0
C892 C 0.98778 0.4098 0.81161 0.0
C893 C 0.54417 0.61864 0.34482 0.0
C894 C 0.53119 0.64358 0.32967 0.0
C895 C 0.57835 0.61392 0.34694 0.0
C896 C 0.60082 0.63412 0.33428 0.0
H897 H 0.52791 0.60314 0.35619 0.0
H898 H 0.58719 0.59516 0.36008 0.0
S899 S 0.57998 0.70067 0.28838 0.0
N900 N 0.54396 0.687 0.29869 0.0
N901 N 0.60789 0.67824 0.30321 0.0
C902 C 0.58825 0.65815 0.31746 0.0
C903 C 0.55354 0.66284 0.31499 0.0
C904 C 0.17118 0.46513 0.16412 0.0
C905 C 0.19642 0.46291 0.14139 0.0
C906 C 0.16649 0.49083 0.18189 0.0
C907 C 0.18678 0.51548 0.17762 0.0
H908 H 0.15461 0.44696 0.16795 0.0
H909 H 0.14661 0.49137 0.19901 0.0
S910 S 0.25794 0.52034 0.12263 0.0
N911 N 0.24316 0.48712 0.11683 0.0
N912 N 0.23393 0.53558 0.14967 0.0
C913 C 0.21226 0.51353 0.15508 0.0
C914 C 0.21718 0.48725 0.13713 0.0
C915 C 0.73822 1.00998 0.90425 0.0
C916 C 0.7121 1.00188 0.88416 0.0
C917 C 0.74208 0.03894 0.91462 0.0
C918 C 0.72004 0.06114 0.90538 0.0
H919 H 0.75631 0.99393 0.91166 0.0
H920 H 0.76284 0.0441 0.92973 0.0
S921 S 0.64708 0.05168 0.85345 0.0
N922 N 0.66315 0.01853 0.85605 0.0
N923 N 0.67082 0.07303 0.87526 0.0
C924 C 0.69323 0.05331 0.88605 0.0
C925 C 0.68918 0.0237 0.8755 0.0
C926 C 0.88035 0.99046 0.35342 0.0
C927 C 0.86558 0.01638 0.36499 0.0
C928 C 0.873 0.96311 0.3666 0.0
C929 C 0.85045 0.96059 0.39167 0.0
H930 H 0.89715 0.99112 0.3335 0.0
H931 H 0.88408 0.94368 0.35633 0.0
S932 S 0.8079 0.02158 0.43319 0.0
N933 N 0.8293 0.03768 0.40498 0.0
N934 N 0.81568 0.98625 0.42952 0.0
C935 C 0.83657 0.98629 0.40436 0.0
C936 C 0.84412 0.01417 0.39111 0.0
C937 C 0.37735 0.52752 0.65043 0.0
C938 C 0.35514 0.5124 0.67012 0.0
C939 C 0.36988 0.55548 0.63869 0.0
C940 C 0.33983 0.56933 0.646 0.0
H941 H 0.40067 0.51766 0.6438 0.0
H942 H 0.3874 0.56609 0.62322 0.0
S943 S 0.27425 0.54061 0.69851 0.0
N944 N 0.30235 0.51443 0.69764 0.0
N945 N 0.28868 0.56687 0.67572 0.0
C946 C 0.31771 0.55484 0.66615 0.0
C947 C 0.32527 0.52644 0.67816 0.0
C948 C 0.91292 0.79983 0.52616 0.0
C949 C 0.90123 0.8257 0.51202 0.0
C950 C 0.91879 0.79827 0.55883 0.0
C951 C 0.91319 0.82247 0.57887 0.0
H952 H 0.91687 0.7803 0.512 0.0
H953 H 0.92733 0.77774 0.5686 0.0
S954 S 0.88297 0.89558 0.55395 0.0
N955 N 0.88503 0.87647 0.52074 0.0
N956 N 0.89555 0.87328 0.58214 0.0
C957 C 0.90244 0.84878 0.56501 0.0
C958 C 0.89659 0.85045 0.53163 0.0
C959 C 0.64181 0.18557 0.0322 0.0
C960 C 0.66313 0.16142 0.0284 0.0
C961 C 0.62528 0.19075 0.06084 0.0
C962 C 0.62927 0.17201 0.08691 0.0
H963 H 0.63833 0.20104 1.01314 0.0
H964 H 0.60975 0.20998 0.06278 0.0
S965 S 0.67965 0.1041 0.08845 0.0
N966 N 0.68578 0.11757 0.05274 0.0
N967 N 0.65421 0.12711 0.10632 0.0
C968 C 0.64978 0.14734 0.08323 0.0
C969 C 0.66677 0.14209 0.05406 0.0
C970 C 0.42733 0.69709 0.48091 0.0
C971 C 0.41513 0.68477 0.45266 0.0
C972 C 0.4145 0.68923 0.51052 0.0
C973 C 0.38884 0.66869 0.51317 0.0
H974 H 0.44662 0.7134 0.48008 0.0
H975 H 0.42423 0.7 0.53141 0.0
S976 S 0.34904 0.62902 0.44637 0.0
N977 N 0.37642 0.6504 0.42927 0.0
N978 N 0.35277 0.63509 0.48474 0.0
C979 C 0.3773 0.6553 0.48513 0.0
C980 C 0.39032 0.66344 0.45495 0.0
C981 C 0.15582 0.32056 1.00758 0.0
C982 C 0.14017 0.34381 0.02377 0.0
C983 C 0.14815 0.3139 0.97601 0.0
C984 C 0.1246 0.33022 0.95916 0.0
H985 H 0.17463 0.3076 1.01916 0.0
H986 H 0.16134 0.29621 0.96445 0.0
S987 S 0.07439 0.39164 0.991 0.0
N988 N 0.09852 0.3822 0.02075 0.0
N989 N 0.08405 0.36939 0.9615 0.0
C990 C 0.10813 0.35304 0.97514 0.0
C991 C 0.11588 0.35985 1.00739 0.0
C992 C 0.55648 0.8698 0.84438 0.0
C993 C 0.55977 0.89364 0.82372 0.0
C994 C 0.52556 0.85715 0.85025 0.0
C995 C 0.4966 0.86798 0.8359 0.0
H996 H 0.57815 0.86016 0.85511 0.0
H997 H 0.52455 0.83826 0.86561 0.0
S998 S 0.49174 0.93251 0.78284 0.0
N999 N 0.53135 0.92928 0.79109 0.0
N1000 N 0.4733 0.90572 0.80198 0.0
C1001 C 0.49948 0.89276 0.81635 0.0
C1002 C 0.53101 0.90549 0.81027 0.0
C1003 C 1.01362 0.12837 0.31162 0.0
C1004 C 0.98396 0.13949 0.32413 0.0
C1005 C 0.04387 0.14214 0.31759 0.0
C1006 C 0.04572 0.1678 0.33614 0.0
H1007 H 1.01339 0.10886 0.29696 0.0
H1008 H 0.06589 0.13281 0.30706 0.0
S1009 S 0.97485 0.20593 0.37426 0.0
N1010 N 0.95817 0.17773 0.35577 0.0
N1011 N 1.01482 0.20354 0.36736 0.0
C1012 C 1.01618 0.17891 0.34922 0.0
C1013 C 0.98539 0.16479 0.34315 0.0
C1014 C 0.03804 0.63574 0.24805 0.0
C1015 C 0.06043 0.62658 0.22444 0.0
C1016 C 1.00686 0.64702 0.24029 0.0
C1017 C 0.99689 0.64986 0.20856 0.0
H1018 H 0.04486 0.63468 0.27279 0.0
H1019 H 0.99078 0.65419 0.2593 0.0
S1020 S 0.0447 0.62645 0.13783 0.0
N1021 N 0.06911 0.61899 0.16801 0.0
N1022 N 1.01106 0.64097 0.1534 0.0
C1023 C 1.01872 0.64032 0.18472 0.0
C1024 C 0.05033 0.62853 0.19263 0.0
C1025 C 0.50942 0.40671 0.72151 0.0
C1026 C 0.47808 0.39374 0.71848 0.0
C1027 C 0.53842 0.39088 0.7152 0.0
C1028 C 0.53735 0.3615 0.70519 0.0
H1029 H 0.51164 0.42935 0.7288 0.0
H1030 H 0.56189 0.40182 0.71815 0.0
S1031 S 0.46186 0.31669 0.69485 0.0
N1032 N 0.44804 0.34913 0.70603 0.0
N1033 N 0.50234 0.31978 0.69315 0.0
C1034 C 0.50623 0.34828 0.70174 0.0
C1035 C 0.47669 0.36428 0.7086 0.0
C1036 C 0.78167 0.5788 0.89312 0.0
C1037 C 0.80984 0.59643 0.89019 0.0
C1038 C 0.7838 0.54826 0.89152 0.0
C1039 C 0.81413 0.53399 0.88658 0.0
H1040 H 0.75777 0.58869 0.8973 0.0
H1041 H 0.76144 0.53564 0.89424 0.0
S1042 S 0.89518 0.56995 0.87635 0.0
N1043 N 0.86903 0.59741 0.8813 0.0
N1044 N 0.87299 0.53973 0.87831 0.0
C1045 C 0.8425 0.55126 0.88302 0.0
C1046 C 0.84038 0.58252 0.88497 0.0
C1047 C 0.33234 0.94565 0.11255 0.0
C1048 C 0.30946 0.93329 0.13359 0.0
C1049 C 0.34001 0.97558 0.1139 0.0
C1050 C 0.32541 0.99427 0.13657 0.0
H1051 H 0.34358 0.93229 0.09424 0.0
H1052 H 0.35734 0.98423 0.09687 0.0
S1053 S 0.26559 0.97225 0.19846 0.0
N1054 N 0.27374 0.94165 0.17897 0.0
N1055 N 0.28774 0.99791 0.18119 0.0
C1056 C 0.3033 0.98197 0.15841 0.0
C1057 C 0.29538 0.95152 0.15694 0.0
C1058 C 0.22426 0.05129 0.66185 0.0
C1059 C 0.2059 0.03759 0.63781 0.0
C1060 C 0.23042 0.08151 0.66108 0.0
C1061 C 0.21805 0.09917 0.6365 0.0
H1062 H 0.23515 0.03834 0.68055 0.0
H1063 H 0.24547 0.09109 0.67955 0.0
S1064 S 0.16621 0.07408 0.56939 0.0
N1065 N 0.1735 0.04413 0.59001 0.0
N1066 N 0.18528 0.10078 0.58837 0.0
C1067 C 0.1984 0.08589 0.61313 0.0
C1068 C 0.19233 0.05513 0.61381 0.0
C1069 C 0.70158 0.44504 0.4265 0.0
C1070 C 0.7219 0.43163 0.40368 0.0
C1071 C 0.69515 0.4752 0.42567 0.0
C1072 C 0.70849 0.49306 0.40181 0.0
H1073 H 0.69159 0.43231 0.4458 0.0
H1074 H 0.67993 0.48473 0.44411 0.0
S1075 S 0.76122 0.46808 0.33509 0.0
N1076 N 0.75349 0.43803 0.35531 0.0
N1077 N 0.74198 0.49478 0.3541 0.0
C1078 C 0.72786 0.4797 0.37817 0.0
C1079 C 0.73447 0.449 0.37906 0.0
loop_
_geom_bond_atom_site_label_1
_geom_bond_atom_site_label_2
_geom_bond_distance
_geom_bond_site_symmetry_2
_ccdc_geom_bond_type
Cu0 N1 1.999 . S
Cu0 O6 1.974 . S
Cu0 N11 1.985 . S
Cu0 O20 1.959 . S
N1 Cu0 1.999 . S
N1 C3 1.263 . S
N1 C5 1.389 . S
N2 C3 1.358 . S
N2 C4 1.400 . S
C3 N1 1.263 . S
C3 N2 1.358 . S
C3 H9 0.930 . S
C4 N2 1.400 . S
C4 C5 1.351 . S
C4 H21 0.930 . S
C5 N1 1.389 . S
C5 C4 1.351 . S
C5 H10 0.930 . S
O6 Cu0 1.974 . S
O6 C16 1.282 . S
C7 O8 1.261 . S
C7 O20 1.251 . S
O8 C7 1.261 . S
H9 C3 0.930 . S
H10 C5 0.930 . S
N11 Cu0 1.985 . S
N11 C13 1.335 . S
N11 C14 1.390 . S
N12 C13 1.345 . S
N12 C15 1.336 . S
C13 N11 1.335 . S
C13 N12 1.345 . S
C13 H18 0.930 . S
C14 N11 1.390 . S
C14 C15 1.346 . S
C14 H19 0.930 . S
C15 N12 1.336 . S
C15 C14 1.346 . S
C15 H22 0.929 . S
C16 O6 1.282 . S
C16 O17 1.216 . S
O17 C16 1.216 . S
H18 C13 0.930 . S
H19 C14 0.930 . S
O20 Cu0 1.959 . S
O20 C7 1.251 . S
H21 C4 0.930 . S
H22 C15 0.929 . S
Cu23 N24 1.999 . S
Cu23 O29 1.974 . S
Cu23 N34 1.985 . S
Cu23 O43 1.959 . S
N24 Cu23 1.999 . S
N24 C26 1.263 . S
N24 C28 1.389 . S
N25 C26 1.358 . S
N25 C27 1.400 . S
C26 N24 1.263 . S
C26 N25 1.358 . S
C26 H32 0.930 . S
C27 N25 1.400 . S
C27 C28 1.351 . S
C27 H44 0.930 . S
C28 N24 1.389 . S
C28 C27 1.351 . S
C28 H33 0.930 . S
O29 Cu23 1.974 . S
O29 C39 1.282 . S
C30 O31 1.261 . S
C30 O43 1.251 . S
O31 C30 1.261 . S
H32 C26 0.930 . S
H33 C28 0.930 . S
N34 Cu23 1.985 . S
N34 C36 1.335 . S
N34 C37 1.390 . S
N35 C36 1.345 . S
N35 C38 1.336 . S
C36 N34 1.335 . S
C36 N35 1.345 . S
C36 H41 0.930 . S
C37 N34 1.390 . S
C37 C38 1.346 . S
C37 H42 0.930 . S
C38 N35 1.336 . S
C38 C37 1.346 . S
C38 H45 0.929 . S
C39 O29 1.282 . S
C39 O40 1.216 . S
O40 C39 1.216 . S
H41 C36 0.930 . S
H42 C37 0.930 . S
O43 Cu23 1.959 . S
O43 C30 1.251 . S
H44 C27 0.930 . S
H45 C38 0.929 . S
Cu46 N47 1.999 . S
Cu46 O52 1.974 . S
Cu46 N57 1.985 . S
Cu46 O66 1.959 . S
N47 Cu46 1.999 . S
N47 C49 1.263 . S
N47 C51 1.389 . S
N48 C49 1.358 . S
N48 C50 1.400 . S
C49 N47 1.263 . S
C49 N48 1.358 . S
C49 H55 0.930 . S
C50 N48 1.400 . S
C50 C51 1.351 . S
C50 H67 0.930 . S
C51 N47 1.389 . S
C51 C50 1.351 . S
C51 H56 0.930 . S
O52 Cu46 1.974 . S
O52 C62 1.282 . S
C53 O54 1.261 . S
C53 O66 1.251 . S
O54 C53 1.261 . S
H55 C49 0.930 . S
H56 C51 0.930 . S
N57 Cu46 1.985 . S
N57 C59 1.335 . S
N57 C60 1.390 . S
N58 C59 1.345 . S
N58 C61 1.336 . S
C59 N57 1.335 . S
C59 N58 1.345 . S
C59 H64 0.930 . S
C60 N57 1.390 . S
C60 C61 1.346 . S
C60 H65 0.930 . S
C61 N58 1.336 . S
C61 C60 1.346 . S
C61 H68 0.929 . S
C62 O52 1.282 . S
C62 O63 1.216 . S
O63 C62 1.216 . S
H64 C59 0.930 . S
H65 C60 0.930 . S
O66 Cu46 1.959 . S
O66 C53 1.251 . S
H67 C50 0.930 . S
H68 C61 0.929 . S
Cu69 N70 1.999 . S
Cu69 O75 1.974 . S
Cu69 N80 1.985 . S
Cu69 O89 1.959 . S
N70 Cu69 1.999 . S
N70 C72 1.263 . S
N70 C74 1.389 . S
N71 C72 1.358 . S
N71 C73 1.400 . S
C72 N70 1.263 . S
C72 N71 1.358 . S
C72 H78 0.930 . S
C73 N71 1.400 . S
C73 C74 1.351 . S
C73 H90 0.930 . S
C74 N70 1.389 . S
C74 C73 1.351 . S
C74 H79 0.930 . S
O75 Cu69 1.974 . S
O75 C85 1.282 . S
C76 O77 1.261 . S
C76 O89 1.251 . S
O77 C76 1.261 . S
H78 C72 0.930 . S
H79 C74 0.930 . S
N80 Cu69 1.985 . S
N80 C82 1.335 . S
N80 C83 1.390 . S
N81 C82 1.345 . S
N81 C84 1.336 . S
C82 N80 1.335 . S
C82 N81 1.345 . S
C82 H87 0.930 . S
C83 N80 1.390 . S
C83 C84 1.346 . S
C83 H88 0.930 . S
C84 N81 1.336 . S
C84 C83 1.346 . S
C84 H91 0.929 . S
C85 O75 1.282 . S
C85 O86 1.216 . S
O86 C85 1.216 . S
H87 C82 0.930 . S
H88 C83 0.930 . S
O89 Cu69 1.959 . S
O89 C76 1.251 . S
H90 C73 0.930 . S
H91 C84 0.929 . S
Cu92 N93 1.999 . S
Cu92 O98 1.974 . S
Cu92 N103 1.985 . S
Cu92 O112 1.959 . S
N93 Cu92 1.999 . S
N93 C95 1.263 . S
N93 C97 1.389 . S
N94 C95 1.358 . S
N94 C96 1.400 . S
C95 N93 1.263 . S
C95 N94 1.358 . S
C95 H101 0.930 . S
C96 N94 1.400 . S
C96 C97 1.351 . S
C96 H113 0.930 1_545 S
C97 N93 1.389 . S
C97 C96 1.351 . S
C97 H102 0.930 . S
O98 Cu92 1.974 . S
O98 C108 1.282 . S
C99 O100 1.261 . S
C99 O112 1.251 . S
O100 C99 1.261 . S
H101 C95 0.930 . S
H102 C97 0.930 . S
N103 Cu92 1.985 . S
N103 C105 1.335 . S
N103 C106 1.390 . S
N104 C105 1.345 . S
N104 C107 1.336 . S
C105 N103 1.335 . S
C105 N104 1.345 . S
C105 H110 0.930 . S
C106 N103 1.390 . S
C106 C107 1.346 . S
C106 H111 0.930 . S
C107 N104 1.336 . S
C107 C106 1.346 . S
C107 H114 0.929 . S
C108 O98 1.282 . S
C108 O109 1.216 . S
O109 C108 1.216 . S
H110 C105 0.930 . S
H111 C106 0.930 . S
O112 Cu92 1.959 . S
O112 C99 1.251 . S
H113 C96 0.930 1_565 S
H114 C107 0.929 . S
Cu115 N116 1.999 . S
Cu115 O121 1.974 . S
Cu115 N126 1.985 . S
Cu115 O135 1.959 . S
N116 Cu115 1.999 . S
N116 C118 1.263 . S
N116 C120 1.389 . S
N117 C118 1.358 . S
N117 C119 1.400 . S
C118 N116 1.263 . S
C118 N117 1.358 . S
C118 H124 0.930 . S
C119 N117 1.400 . S
C119 C120 1.351 . S
C119 H136 0.930 1_565 S
C120 N116 1.389 . S
C120 C119 1.351 . S
C120 H125 0.930 . S
O121 Cu115 1.974 . S
O121 C131 1.282 . S
C122 O123 1.261 . S
C122 O135 1.251 . S
O123 C122 1.261 . S
H124 C118 0.930 . S
H125 C120 0.930 . S
N126 Cu115 1.985 . S
N126 C128 1.335 . S
N126 C129 1.390 . S
N127 C128 1.345 . S
N127 C130 1.336 . S
C128 N126 1.335 . S
C128 N127 1.345 . S
C128 H133 0.930 . S
C129 N126 1.390 . S
C129 C130 1.346 . S
C129 H134 0.930 . S
C130 N127 1.336 . S
C130 C129 1.346 . S
C130 H137 0.929 . S
C131 O121 1.282 . S
C131 O132 1.216 . S
O132 C131 1.216 . S
H133 C128 0.930 . S
H134 C129 0.930 . S
O135 Cu115 1.959 . S
O135 C122 1.251 . S
H136 C119 0.930 1_545 S
H137 C130 0.929 . S
Cu138 N139 1.999 . S
Cu138 O144 1.974 . S
Cu138 N149 1.985 . S
Cu138 O158 1.959 . S
N139 Cu138 1.999 . S
N139 C141 1.263 . S
N139 C143 1.389 . S
N140 C141 1.358 . S
N140 C142 1.400 . S
C141 N139 1.263 . S
C141 N140 1.358 . S
C141 H147 0.930 . S
C142 N140 1.400 . S
C142 C143 1.351 . S
C142 H159 0.930 . S
C143 N139 1.389 . S
C143 C142 1.351 . S
C143 H148 0.930 . S
O144 Cu138 1.974 . S
O144 C154 1.282 . S
C145 O146 1.261 . S
C145 O158 1.251 . S
O146 C145 1.261 . S
H147 C141 0.930 . S
H148 C143 0.930 . S
N149 Cu138 1.985 . S
N149 C151 1.335 . S
N149 C152 1.390 . S
N150 C151 1.345 . S
N150 C153 1.336 . S
C151 N149 1.335 . S
C151 N150 1.345 . S
C151 H156 0.930 . S
C152 N149 1.390 . S
C152 C153 1.346 . S
C152 H157 0.930 . S
C153 N150 1.336 . S
C153 C152 1.346 . S
C153 H160 0.929 . S
C154 O144 1.282 . S
C154 O155 1.216 . S
O155 C154 1.216 . S
H156 C151 0.930 . S
H157 C152 0.930 . S
O158 Cu138 1.959 . S
O158 C145 1.251 . S
H159 C142 0.930 . S
H160 C153 0.929 . S
Cu161 N162 1.999 . S
Cu161 O167 1.974 . S
Cu161 N172 1.985 . S
Cu161 O181 1.959 . S
N162 Cu161 1.999 . S
N162 C164 1.263 . S
N162 C166 1.389 . S
N163 C164 1.358 . S
N163 C165 1.400 . S
C164 N162 1.263 . S
C164 N163 1.358 . S
C164 H170 0.930 . S
C165 N163 1.400 . S
C165 C166 1.351 . S
C165 H182 0.930 . S
C166 N162 1.389 . S
C166 C165 1.351 . S
C166 H171 0.930 . S
O167 Cu161 1.974 . S
O167 C177 1.282 . S
C168 O169 1.261 . S
C168 O181 1.251 . S
O169 C168 1.261 . S
H170 C164 0.930 . S
H171 C166 0.930 . S
N172 Cu161 1.985 . S
N172 C174 1.335 . S
N172 C175 1.390 . S
N173 C174 1.345 . S
N173 C176 1.336 . S
C174 N172 1.335 . S
C174 N173 1.345 . S
C174 H179 0.930 . S
C175 N172 1.390 . S
C175 C176 1.346 . S
C175 H180 0.930 . S
C176 N173 1.336 . S
C176 C175 1.346 . S
C176 H183 0.929 . S
C177 O167 1.282 . S
C177 O178 1.216 . S
O178 C177 1.216 . S
H179 C174 0.930 . S
H180 C175 0.930 . S
O181 Cu161 1.959 . S
O181 C168 1.251 . S
H182 C165 0.930 . S
H183 C176 0.929 . S
Cu184 N185 1.999 . S
Cu184 O190 1.974 . S
Cu184 N195 1.985 . S
Cu184 O204 1.959 . S
N185 Cu184 1.999 . S
N185 C187 1.263 . S
N185 C189 1.389 . S
N186 C187 1.358 . S
N186 C188 1.400 . S
C187 N185 1.263 . S
C187 N186 1.358 . S
C187 H193 0.930 . S
C188 N186 1.400 . S
C188 C189 1.351 . S
C188 H205 0.930 . S
C189 N185 1.389 . S
C189 C188 1.351 . S
C189 H194 0.930 . S
O190 Cu184 1.974 . S
O190 C200 1.282 . S
C191 O192 1.261 . S
C191 O204 1.251 . S
O192 C191 1.261 . S
H193 C187 0.930 . S
H194 C189 0.930 . S
N195 Cu184 1.985 . S
N195 C197 1.335 . S
N195 C198 1.390 . S
N196 C197 1.345 . S
N196 C199 1.336 . S
C197 N195 1.335 . S
C197 N196 1.345 . S
C197 H202 0.930 . S
C198 N195 1.390 . S
C198 C199 1.346 . S
C198 H203 0.930 . S
C199 N196 1.336 . S
C199 C198 1.346 . S
C199 H206 0.929 . S
C200 O190 1.282 . S
C200 O201 1.216 . S
O201 C200 1.216 . S
H202 C197 0.930 . S
H203 C198 0.930 . S
O204 Cu184 1.959 . S
O204 C191 1.251 . S
H205 C188 0.930 . S
H206 C199 0.929 . S
Cu207 N208 1.999 . S
Cu207 O213 1.974 . S
Cu207 N218 1.985 . S
Cu207 O227 1.959 . S
N208 Cu207 1.999 . S
N208 C210 1.263 . S
N208 C212 1.389 . S
N209 C210 1.358 . S
N209 C211 1.400 . S
C210 N208 1.263 . S
C210 N209 1.358 . S
C210 H216 0.930 . S
C211 N209 1.400 . S
C211 C212 1.351 . S
C211 H228 0.930 . S
C212 N208 1.389 . S
C212 C211 1.351 . S
C212 H217 0.930 . S
O213 Cu207 1.974 . S
O213 C223 1.282 . S
C214 O215 1.261 . S
C214 O227 1.251 . S
O215 C214 1.261 . S
H216 C210 0.930 . S
H217 C212 0.930 . S
N218 Cu207 1.985 . S
N218 C220 1.335 . S
N218 C221 1.390 . S
N219 C220 1.345 . S
N219 C222 1.336 . S
C220 N218 1.335 . S
C220 N219 1.345 . S
C220 H225 0.930 . S
C221 N218 1.390 . S
C221 C222 1.346 . S
C221 H226 0.930 . S
C222 N219 1.336 . S
C222 C221 1.346 . S
C222 H229 0.929 . S
C223 O213 1.282 . S
C223 O224 1.216 . S
O224 C223 1.216 . S
H225 C220 0.930 . S
H226 C221 0.930 . S
O227 Cu207 1.959 . S
O227 C214 1.251 . S
H228 C211 0.930 . S
H229 C222 0.929 . S
Cu230 N231 1.999 . S
Cu230 O236 1.974 . S
Cu230 N241 1.985 . S
Cu230 O250 1.959 . S
N231 Cu230 1.999 . S
N231 C233 1.263 . S
N231 C235 1.389 . S
N232 C233 1.358 . S
N232 C234 1.400 . S
C233 N231 1.263 . S
C233 N232 1.358 . S
C233 H239 0.930 . S
C234 N232 1.400 . S
C234 C235 1.351 . S
C234 H251 0.930 . S
C235 N231 1.389 . S
C235 C234 1.351 . S
C235 H240 0.930 . S
O236 Cu230 1.974 . S
O236 C246 1.282 . S
C237 O238 1.261 . S
C237 O250 1.251 . S
O238 C237 1.261 . S
H239 C233 0.930 . S
H240 C235 0.930 . S
N241 Cu230 1.985 . S
N241 C243 1.335 . S
N241 C244 1.390 . S
N242 C243 1.345 . S
N242 C245 1.336 . S
C243 N241 1.335 . S
C243 N242 1.345 . S
C243 H248 0.930 . S
C244 N241 1.390 . S
C244 C245 1.346 . S
C244 H249 0.930 . S
C245 N242 1.336 . S
C245 C244 1.346 . S
C245 H252 0.929 . S
C246 O236 1.282 . S
C246 O247 1.216 . S
O247 C246 1.216 . S
H248 C243 0.930 . S
H249 C244 0.930 . S
O250 Cu230 1.959 . S
O250 C237 1.251 . S
H251 C234 0.930 . S
H252 C245 0.929 . S
Cu253 N254 1.999 . S
Cu253 O259 1.974 . S
Cu253 N264 1.985 . S
Cu253 O273 1.959 . S
N254 Cu253 1.999 . S
N254 C256 1.263 . S
N254 C258 1.389 . S
N255 C256 1.358 . S
N255 C257 1.400 . S
C256 N254 1.263 . S
C256 N255 1.358 . S
C256 H262 0.930 . S
C257 N255 1.400 . S
C257 C258 1.351 . S
C257 H274 0.930 . S
C258 N254 1.389 . S
C258 C257 1.351 . S
C258 H263 0.930 . S
O259 Cu253 1.974 . S
O259 C269 1.282 . S
C260 O261 1.261 . S
C260 O273 1.251 . S
O261 C260 1.261 . S
H262 C256 0.930 . S
H263 C258 0.930 . S
N264 Cu253 1.985 . S
N264 C266 1.335 . S
N264 C267 1.390 . S
N265 C266 1.345 . S
N265 C268 1.336 . S
C266 N264 1.335 . S
C266 N265 1.345 . S
C266 H271 0.930 . S
C267 N264 1.390 . S
C267 C268 1.346 . S
C267 H272 0.930 . S
C268 N265 1.336 . S
C268 C267 1.346 . S
C268 H275 0.929 . S
C269 O259 1.282 . S
C269 O270 1.216 . S
O270 C269 1.216 . S
H271 C266 0.930 . S
H272 C267 0.930 . S
O273 Cu253 1.959 . S
O273 C260 1.251 . S
H274 C257 0.930 . S
H275 C268 0.929 . S
Cu276 N277 1.999 . S
Cu276 O282 1.974 . S
Cu276 N287 1.985 . S
Cu276 O296 1.959 . S
N277 Cu276 1.999 . S
N277 C279 1.263 . S
N277 C281 1.389 . S
N278 C279 1.358 . S
N278 C280 1.400 . S
C279 N277 1.263 . S
C279 N278 1.358 . S
C279 H285 0.930 . S
C280 N278 1.400 . S
C280 C281 1.351 . S
C280 H297 0.930 . S
C281 N277 1.389 . S
C281 C280 1.351 . S
C281 H286 0.930 . S
O282 Cu276 1.974 . S
O282 C292 1.282 . S
C283 O284 1.261 . S
C283 O296 1.251 . S
O284 C283 1.261 . S
H285 C279 0.930 . S
H286 C281 0.930 . S
N287 Cu276 1.985 . S
N287 C289 1.335 . S
N287 C290 1.390 . S
N288 C289 1.345 . S
N288 C291 1.336 . S
C289 N287 1.335 . S
C289 N288 1.345 . S
C289 H294 0.930 . S
C290 N287 1.390 . S
C290 C291 1.346 . S
C290 H295 0.930 . S
C291 N288 1.336 . S
C291 C290 1.346 . S
C291 H298 0.929 . S
C292 O282 1.282 . S
C292 O293 1.216 . S
O293 C292 1.216 . S
H294 C289 0.930 . S
H295 C290 0.930 . S
O296 Cu276 1.959 . S
O296 C283 1.251 . S
H297 C280 0.930 . S
H298 C291 0.929 . S
Cu299 N300 1.999 . S
Cu299 O305 1.974 . S
Cu299 N310 1.985 . S
Cu299 O319 1.959 . S
N300 Cu299 1.999 . S
N300 C302 1.263 . S
N300 C304 1.389 . S
N301 C302 1.358 . S
N301 C303 1.400 . S
C302 N300 1.263 . S
C302 N301 1.358 . S
C302 H308 0.930 . S
C303 N301 1.400 . S
C303 C304 1.351 . S
C303 H320 0.930 . S
C304 N300 1.389 . S
C304 C303 1.351 . S
C304 H309 0.930 . S
O305 Cu299 1.974 . S
O305 C315 1.282 . S
C306 O307 1.261 . S
C306 O319 1.251 . S
O307 C306 1.261 . S
H308 C302 0.930 . S
H309 C304 0.930 . S
N310 Cu299 1.985 . S
N310 C312 1.335 . S
N310 C313 1.390 . S
N311 C312 1.345 . S
N311 C314 1.336 . S
C312 N310 1.335 . S
C312 N311 1.345 . S
C312 H317 0.930 . S
C313 N310 1.390 . S
C313 C314 1.346 . S
C313 H318 0.930 . S
C314 N311 1.336 . S
C314 C313 1.346 . S
C314 H321 0.929 . S
C315 O305 1.282 . S
C315 O316 1.216 . S
O316 C315 1.216 . S
H317 C312 0.930 . S
H318 C313 0.930 . S
O319 Cu299 1.959 . S
O319 C306 1.251 . S
H320 C303 0.930 . S
H321 C314 0.929 . S
Cu322 N323 1.999 . S
Cu322 O328 1.974 . S
Cu322 N333 1.985 . S
Cu322 O342 1.959 . S
N323 Cu322 1.999 . S
N323 C325 1.263 . S
N323 C327 1.389 . S
N324 C325 1.358 . S
N324 C326 1.400 . S
C325 N323 1.263 . S
C325 N324 1.358 . S
C325 H331 0.930 . S
C326 N324 1.400 . S
C326 C327 1.351 . S
C326 H343 0.930 . S
C327 N323 1.389 . S
C327 C326 1.351 . S
C327 H332 0.930 . S
O328 Cu322 1.974 . S
O328 C338 1.282 . S
C329 O330 1.261 . S
C329 O342 1.251 . S
O330 C329 1.261 . S
H331 C325 0.930 . S
H332 C327 0.930 . S
N333 Cu322 1.985 . S
N333 C335 1.335 . S
N333 C336 1.390 . S
N334 C335 1.345 . S
N334 C337 1.336 . S
C335 N333 1.335 . S
C335 N334 1.345 . S
C335 H340 0.930 . S
C336 N333 1.390 . S
C336 C337 1.346 . S
C336 H341 0.930 . S
C337 N334 1.336 . S
C337 C336 1.346 . S
C337 H344 0.929 . S
C338 O328 1.282 . S
C338 O339 1.216 . S
O339 C338 1.216 . S
H340 C335 0.930 . S
H341 C336 0.930 . S
O342 Cu322 1.959 . S
O342 C329 1.251 . S
H343 C326 0.930 . S
H344 C337 0.929 . S
Cu345 N346 1.999 . S
Cu345 O351 1.974 . S
Cu345 N356 1.985 . S
Cu345 O365 1.959 . S
N346 Cu345 1.999 . S
N346 C348 1.263 . S
N346 C350 1.389 . S
N347 C348 1.358 . S
N347 C349 1.400 . S
C348 N346 1.263 . S
C348 N347 1.358 . S
C348 H354 0.930 . S
C349 N347 1.400 . S
C349 C350 1.351 . S
C349 H366 0.930 . S
C350 N346 1.389 . S
C350 C349 1.351 . S
C350 H355 0.930 . S
O351 Cu345 1.974 . S
O351 C361 1.282 . S
C352 O353 1.261 . S
C352 O365 1.251 . S
O353 C352 1.261 . S
H354 C348 0.930 . S
H355 C350 0.930 . S
N356 Cu345 1.985 . S
N356 C358 1.335 . S
N356 C359 1.390 . S
N357 C358 1.345 . S
N357 C360 1.336 . S
C358 N356 1.335 . S
C358 N357 1.345 . S
C358 H363 0.930 . S
C359 N356 1.390 . S
C359 C360 1.346 . S
C359 H364 0.930 . S
C360 N357 1.336 . S
C360 C359 1.346 . S
C360 H367 0.929 . S
C361 O351 1.282 . S
C361 O362 1.216 . S
O362 C361 1.216 . S
H363 C358 0.930 . S
H364 C359 0.930 . S
O365 Cu345 1.959 . S
O365 C352 1.251 . S
H366 C349 0.930 . S
H367 C360 0.929 . S
Cu368 N369 1.999 . S
Cu368 O374 1.974 . S
Cu368 N379 1.985 . S
Cu368 O388 1.959 . S
N369 Cu368 1.999 . S
N369 C371 1.263 . S
N369 C373 1.389 . S
N370 C371 1.358 . S
N370 C372 1.400 . S
C371 N369 1.263 . S
C371 N370 1.358 . S
C371 H377 0.930 . S
C372 N370 1.400 . S
C372 C373 1.351 . S
C372 H389 0.930 . S
C373 N369 1.389 . S
C373 C372 1.351 . S
C373 H378 0.930 . S
O374 Cu368 1.974 . S
O374 C384 1.282 . S
C375 O376 1.261 . S
C375 O388 1.251 . S
O376 C375 1.261 . S
H377 C371 0.930 . S
H378 C373 0.930 . S
N379 Cu368 1.985 . S
N379 C381 1.335 . S
N379 C382 1.390 . S
N380 C381 1.345 . S
N380 C383 1.336 . S
C381 N379 1.335 . S
C381 N380 1.345 . S
C381 H386 0.930 . S
C382 N379 1.390 . S
C382 C383 1.346 . S
C382 H387 0.930 . S
C383 N380 1.336 . S
C383 C382 1.346 . S
C383 H390 0.929 . S
C384 O374 1.282 . S
C384 O385 1.216 . S
O385 C384 1.216 . S
H386 C381 0.930 . S
H387 C382 0.930 . S
O388 Cu368 1.959 . S
O388 C375 1.251 . S
H389 C372 0.930 . S
H390 C383 0.929 . S
Cu391 N392 1.999 . S
Cu391 O397 1.974 . S
Cu391 N402 1.985 . S
Cu391 O411 1.959 . S
N392 Cu391 1.999 . S
N392 C394 1.263 . S
N392 C396 1.389 . S
N393 C394 1.358 . S
N393 C395 1.400 . S
C394 N392 1.263 . S
C394 N393 1.358 . S
C394 H400 0.930 . S
C395 N393 1.400 . S
C395 C396 1.351 . S
C395 H412 0.930 . S
C396 N392 1.389 . S
C396 C395 1.351 . S
C396 H401 0.930 . S
O397 Cu391 1.974 . S
O397 C407 1.282 . S
C398 O399 1.261 . S
C398 O411 1.251 . S
O399 C398 1.261 . S
H400 C394 0.930 . S
H401 C396 0.930 . S
N402 Cu391 1.985 . S
N402 C404 1.335 . S
N402 C405 1.390 . S
N403 C404 1.345 . S
N403 C406 1.336 . S
C404 N402 1.335 . S
C404 N403 1.345 . S
C404 H409 0.930 . S
C405 N402 1.390 . S
C405 C406 1.346 . S
C405 H410 0.930 . S
C406 N403 1.336 . S
C406 C405 1.346 . S
C406 H413 0.929 . S
C407 O397 1.282 . S
C407 O408 1.216 . S
O408 C407 1.216 . S
H409 C404 0.930 . S
H410 C405 0.930 . S
O411 Cu391 1.959 . S
O411 C398 1.251 . S
H412 C395 0.930 . S
H413 C406 0.929 . S
Cu414 N415 1.999 . S
Cu414 O420 1.974 . S
Cu414 N425 1.985 . S
Cu414 O434 1.959 . S
N415 Cu414 1.999 . S
N415 C417 1.263 . S
N415 C419 1.389 . S
N416 C417 1.358 . S
N416 C418 1.400 . S
C417 N415 1.263 . S
C417 N416 1.358 . S
C417 H423 0.930 . S
C418 N416 1.400 . S
C418 C419 1.351 . S
C418 H435 0.930 . S
C419 N415 1.389 . S
C419 C418 1.351 . S
C419 H424 0.930 . S
O420 Cu414 1.974 . S
O420 C430 1.282 . S
C421 O422 1.261 . S
C421 O434 1.251 . S
O422 C421 1.261 . S
H423 C417 0.930 . S
H424 C419 0.930 . S
N425 Cu414 1.985 . S
N425 C427 1.335 . S
N425 C428 1.390 . S
N426 C427 1.345 . S
N426 C429 1.336 . S
C427 N425 1.335 . S
C427 N426 1.345 . S
C427 H432 0.930 . S
C428 N425 1.390 . S
C428 C429 1.346 . S
C428 H433 0.930 . S
C429 N426 1.336 . S
C429 C428 1.346 . S
C429 H436 0.929 . S
C430 O420 1.282 . S
C430 O431 1.216 . S
O431 C430 1.216 . S
H432 C427 0.930 . S
H433 C428 0.930 . S
O434 Cu414 1.959 . S
O434 C421 1.251 . S
H435 C418 0.930 . S
H436 C429 0.929 . S
Cu437 N438 1.999 . S
Cu437 O443 1.974 . S
Cu437 N448 1.985 . S
Cu437 O457 1.959 . S
N438 Cu437 1.999 . S
N438 C440 1.263 . S
N438 C442 1.389 . S
N439 C440 1.358 . S
N439 C441 1.400 . S
C440 N438 1.263 . S
C440 N439 1.358 . S
C440 H446 0.930 . S
C441 N439 1.400 . S
C441 C442 1.351 . S
C441 H458 0.930 . S
C442 N438 1.389 . S
C442 C441 1.351 . S
C442 H447 0.930 . S
O443 Cu437 1.974 . S
O443 C453 1.282 . S
C444 O445 1.261 . S
C444 O457 1.251 . S
O445 C444 1.261 . S
H446 C440 0.930 . S
H447 C442 0.930 . S
N448 Cu437 1.985 . S
N448 C450 1.335 . S
N448 C451 1.390 . S
N449 C450 1.345 . S
N449 C452 1.336 . S
C450 N448 1.335 . S
C450 N449 1.345 . S
C450 H455 0.930 . S
C451 N448 1.390 . S
C451 C452 1.346 . S
C451 H456 0.930 . S
C452 N449 1.336 . S
C452 C451 1.346 . S
C452 H459 0.929 . S
C453 O443 1.282 . S
C453 O454 1.216 . S
O454 C453 1.216 . S
H455 C450 0.930 . S
H456 C451 0.930 . S
O457 Cu437 1.959 . S
O457 C444 1.251 . S
H458 C441 0.930 . S
H459 C452 0.929 . S
Cu460 N461 1.999 . S
Cu460 O466 1.974 . S
Cu460 N471 1.985 . S
Cu460 O480 1.959 . S
N461 Cu460 1.999 . S
N461 C463 1.263 . S
N461 C465 1.389 . S
N462 C463 1.358 . S
N462 C464 1.400 . S
C463 N461 1.263 . S
C463 N462 1.358 . S
C463 H469 0.930 . S
C464 N462 1.400 . S
C464 C465 1.351 . S
C464 H481 0.930 . S
C465 N461 1.389 . S
C465 C464 1.351 . S
C465 H470 0.930 . S
O466 Cu460 1.974 . S
O466 C476 1.282 . S
C467 O468 1.261 . S
C467 O480 1.251 . S
O468 C467 1.261 . S
H469 C463 0.930 . S
H470 C465 0.930 . S
N471 Cu460 1.985 . S
N471 C473 1.335 . S
N471 C474 1.390 . S
N472 C473 1.345 . S
N472 C475 1.336 . S
C473 N471 1.335 . S
C473 N472 1.345 . S
C473 H478 0.930 . S
C474 N471 1.390 . S
C474 C475 1.346 . S
C474 H479 0.930 . S
C475 N472 1.336 . S
C475 C474 1.346 . S
C475 H482 0.929 . S
C476 O466 1.282 . S
C476 O477 1.216 . S
O477 C476 1.216 . S
H478 C473 0.930 . S
H479 C474 0.930 . S
O480 Cu460 1.959 . S
O480 C467 1.251 . S
H481 C464 0.930 . S
H482 C475 0.929 . S
Cu483 N484 1.999 . S
Cu483 O489 1.974 . S
Cu483 N494 1.985 . S
Cu483 O503 1.959 . S
N484 Cu483 1.999 . S
N484 C486 1.263 . S
N484 C488 1.389 . S
N485 C486 1.358 . S
N485 C487 1.400 . S
C486 N484 1.263 . S
C486 N485 1.358 . S
C486 H492 0.930 . S
C487 N485 1.400 . S
C487 C488 1.351 . S
C487 H504 0.930 . S
C488 N484 1.389 . S
C488 C487 1.351 . S
C488 H493 0.930 . S
O489 Cu483 1.974 . S
O489 C499 1.282 . S
C490 O491 1.261 . S
C490 O503 1.251 . S
O491 C490 1.261 . S
H492 C486 0.930 . S
H493 C488 0.930 . S
N494 Cu483 1.985 . S
N494 C496 1.335 . S
N494 C497 1.390 . S
N495 C496 1.345 . S
N495 C498 1.336 . S
C496 N494 1.335 . S
C496 N495 1.345 . S
C496 H501 0.930 . S
C497 N494 1.390 . S
C497 C498 1.346 . S
C497 H502 0.930 . S
C498 N495 1.336 . S
C498 C497 1.346 . S
C498 H505 0.929 . S
C499 O489 1.282 . S
C499 O500 1.216 . S
O500 C499 1.216 . S
H501 C496 0.930 . S
H502 C497 0.930 . S
O503 Cu483 1.959 . S
O503 C490 1.251 . S
H504 C487 0.930 . S
H505 C498 0.929 . S
Cu506 N507 1.999 . S
Cu506 O512 1.974 . S
Cu506 N517 1.985 . S
Cu506 O526 1.959 . S
N507 Cu506 1.999 . S
N507 C509 1.263 . S
N507 C511 1.389 . S
N508 C509 1.358 . S
N508 C510 1.400 . S
C509 N507 1.263 . S
C509 N508 1.358 . S
C509 H515 0.930 . S
C510 N508 1.400 . S
C510 C511 1.351 . S
C510 H527 0.930 . S
C511 N507 1.389 . S
C511 C510 1.351 . S
C511 H516 0.930 . S
O512 Cu506 1.974 . S
O512 C522 1.282 . S
C513 O514 1.261 . S
C513 O526 1.251 . S
O514 C513 1.261 . S
H515 C509 0.930 . S
H516 C511 0.930 . S
N517 Cu506 1.985 . S
N517 C519 1.335 . S
N517 C520 1.390 . S
N518 C519 1.345 . S
N518 C521 1.336 . S
C519 N517 1.335 . S
C519 N518 1.345 . S
C519 H524 0.930 . S
C520 N517 1.390 . S
C520 C521 1.346 . S
C520 H525 0.930 . S
C521 N518 1.336 . S
C521 C520 1.346 . S
C521 H528 0.929 . S
C522 O512 1.282 . S
C522 O523 1.216 . S
O523 C522 1.216 . S
H524 C519 0.930 . S
H525 C520 0.930 . S
O526 Cu506 1.959 . S
O526 C513 1.251 . S
H527 C510 0.930 . S
H528 C521 0.929 . S
Cu529 N530 1.999 . S
Cu529 O535 1.974 . S
Cu529 N540 1.985 . S
Cu529 O549 1.959 . S
N530 Cu529 1.999 . S
N530 C532 1.263 . S
N530 C534 1.389 . S
N531 C532 1.358 . S
N531 C533 1.400 . S
C532 N530 1.263 . S
C532 N531 1.358 . S
C532 H538 0.930 . S
C533 N531 1.400 . S
C533 C534 1.351 . S
C533 H550 0.930 . S
C534 N530 1.389 . S
C534 C533 1.351 . S
C534 H539 0.930 . S
O535 Cu529 1.974 . S
O535 C545 1.282 . S
C536 O537 1.261 . S
C536 O549 1.251 . S
O537 C536 1.261 . S
H538 C532 0.930 . S
H539 C534 0.930 . S
N540 Cu529 1.985 . S
N540 C542 1.335 . S
N540 C543 1.390 . S
N541 C542 1.345 . S
N541 C544 1.336 . S
C542 N540 1.335 . S
C542 N541 1.345 . S
C542 H547 0.930 . S
C543 N540 1.390 . S
C543 C544 1.346 . S
C543 H548 0.930 . S
C544 N541 1.336 . S
C544 C543 1.346 . S
C544 H551 0.929 . S
C545 O535 1.282 . S
C545 O546 1.216 . S
O546 C545 1.216 . S
H547 C542 0.930 . S
H548 C543 0.930 . S
O549 Cu529 1.959 . S
O549 C536 1.251 . S
H550 C533 0.930 . S
H551 C544 0.929 . S
C552 C553 1.369 . S
C552 C554 1.419 . S
C552 H556 0.930 . S
C553 C552 1.369 . S
C553 C562 1.429 . S
C554 C552 1.419 . S
C554 C555 1.363 . S
C554 H557 0.929 . S
C555 C554 1.363 . S
C555 C561 1.428 . S
H556 C552 0.930 . S
H557 C554 0.929 . S
S558 N559 1.613 . S
S558 N560 1.610 . S
N559 S558 1.613 . S
N559 C562 1.350 . S
N560 S558 1.610 . S
N560 C561 1.351 . S
C561 C555 1.428 . S
C561 N560 1.351 . S
C561 C562 1.434 . S
C562 C553 1.429 . S
C562 N559 1.350 . S
C562 C561 1.434 . S
C563 C564 1.369 . S
C563 C565 1.419 . S
C563 H567 0.930 . S
C564 C563 1.369 . S
C564 C573 1.429 . S
C565 C563 1.419 . S
C565 C566 1.363 . S
C565 H568 0.929 . S
C566 C565 1.363 . S
C566 C572 1.428 . S
H567 C563 0.930 . S
H568 C565 0.929 . S
S569 N570 1.613 . S
S569 N571 1.610 . S
N570 S569 1.613 . S
N570 C573 1.350 . S
N571 S569 1.610 . S
N571 C572 1.351 . S
C572 C566 1.428 . S
C572 N571 1.351 . S
C572 C573 1.434 . S
C573 C564 1.429 . S
C573 N570 1.350 . S
C573 C572 1.434 . S
C574 C575 1.369 . S
C574 C576 1.419 . S
C574 H578 0.930 . S
C575 C574 1.369 . S
C575 C584 1.429 . S
C576 C574 1.419 . S
C576 C577 1.363 . S
C576 H579 0.929 . S
C577 C576 1.363 . S
C577 C583 1.428 . S
H578 C574 0.930 . S
H579 C576 0.929 . S
S580 N581 1.613 . S
S580 N582 1.610 . S
N581 S580 1.613 . S
N581 C584 1.350 . S
N582 S580 1.610 . S
N582 C583 1.351 . S
C583 C577 1.428 . S
C583 N582 1.351 . S
C583 C584 1.434 . S
C584 C575 1.429 . S
C584 N581 1.350 . S
C584 C583 1.434 . S
C585 C586 1.369 . S
C585 C587 1.419 . S
C585 H589 0.930 . S
C586 C585 1.369 . S
C586 C595 1.429 . S
C587 C585 1.419 . S
C587 C588 1.363 . S
C587 H590 0.929 . S
C588 C587 1.363 . S
C588 C594 1.428 . S
H589 C585 0.930 . S
H590 C587 0.929 . S
S591 N592 1.613 . S
S591 N593 1.610 . S
N592 S591 1.613 . S
N592 C595 1.350 . S
N593 S591 1.610 . S
N593 C594 1.351 . S
C594 C588 1.428 . S
C594 N593 1.351 . S
C594 C595 1.434 . S
C595 C586 1.429 . S
C595 N592 1.350 . S
C595 C594 1.434 . S
C596 C597 1.369 . S
C596 C598 1.419 . S
C596 H600 0.930 . S
C597 C596 1.369 . S
C597 C606 1.429 . S
C598 C596 1.419 . S
C598 C599 1.363 . S
C598 H601 0.929 . S
C599 C598 1.363 . S
C599 C605 1.428 . S
H600 C596 0.930 . S
H601 C598 0.929 . S
S602 N603 1.613 . S
S602 N604 1.610 . S
N603 S602 1.613 . S
N603 C606 1.350 . S
N604 S602 1.610 . S
N604 C605 1.351 . S
C605 C599 1.428 . S
C605 N604 1.351 . S
C605 C606 1.434 . S
C606 C597 1.429 . S
C606 N603 1.350 . S
C606 C605 1.434 . S
C607 C608 1.369 . S
C607 C609 1.419 . S
C607 H611 0.930 . S
C608 C607 1.369 . S
C608 C617 1.429 . S
C609 C607 1.419 . S
C609 C610 1.363 . S
C609 H612 0.929 . S
C610 C609 1.363 . S
C610 C616 1.428 . S
H611 C607 0.930 . S
H612 C609 0.929 . S
S613 N614 1.613 . S
S613 N615 1.610 . S
N614 S613 1.613 . S
N614 C617 1.350 . S
N615 S613 1.610 . S
N615 C616 1.351 . S
C616 C610 1.428 . S
C616 N615 1.351 . S
C616 C617 1.434 . S
C617 C608 1.429 . S
C617 N614 1.350 . S
C617 C616 1.434 . S
C618 C619 1.369 . S
C618 C620 1.419 . S
C618 H622 0.930 . S
C619 C618 1.369 . S
C619 C628 1.429 . S
C620 C618 1.419 . S
C620 C621 1.363 . S
C620 H623 0.929 . S
C621 C620 1.363 . S
C621 C627 1.428 . S
H622 C618 0.930 . S
H623 C620 0.929 . S
S624 N625 1.613 . S
S624 N626 1.610 . S
N625 S624 1.613 . S
N625 C628 1.350 . S
N626 S624 1.610 . S
N626 C627 1.351 . S
C627 C621 1.428 . S
C627 N626 1.351 . S
C627 C628 1.434 . S
C628 C619 1.429 . S
C628 N625 1.350 . S
C628 C627 1.434 . S
C629 C630 1.369 . S
C629 C631 1.419 . S
C629 H633 0.930 . S
C630 C629 1.369 . S
C630 C639 1.429 . S
C631 C629 1.419 . S
C631 C632 1.363 . S
C631 H634 0.929 . S
C632 C631 1.363 . S
C632 C638 1.428 . S
H633 C629 0.930 . S
H634 C631 0.929 . S
S635 N636 1.613 . S
S635 N637 1.610 . S
N636 S635 1.613 . S
N636 C639 1.350 . S
N637 S635 1.610 . S
N637 C638 1.351 . S
C638 C632 1.428 . S
C638 N637 1.351 . S
C638 C639 1.434 . S
C639 C630 1.429 . S
C639 N636 1.350 . S
C639 C638 1.434 . S
C640 C641 1.369 . S
C640 C642 1.419 . S
C640 H644 0.930 . S
C641 C640 1.369 . S
C641 C650 1.429 . S
C642 C640 1.419 . S
C642 C643 1.363 . S
C642 H645 0.929 . S
C643 C642 1.363 . S
C643 C649 1.428 . S
H644 C640 0.930 . S
H645 C642 0.929 . S
S646 N647 1.613 . S
S646 N648 1.610 . S
N647 S646 1.613 . S
N647 C650 1.350 . S
N648 S646 1.610 . S
N648 C649 1.351 . S
C649 C643 1.428 . S
C649 N648 1.351 . S
C649 C650 1.434 . S
C650 C641 1.429 . S
C650 N647 1.350 . S
C650 C649 1.434 . S
C651 C652 1.369 . S
C651 C653 1.419 . S
C651 H655 0.930 . S
C652 C651 1.369 . S
C652 C661 1.429 . S
C653 C651 1.419 . S
C653 C654 1.363 . S
C653 H656 0.929 . S
C654 C653 1.363 . S
C654 C660 1.428 . S
H655 C651 0.930 . S
H656 C653 0.929 . S
S657 N658 1.613 . S
S657 N659 1.610 . S
N658 S657 1.613 . S
N658 C661 1.350 . S
N659 S657 1.610 . S
N659 C660 1.351 . S
C660 C654 1.428 . S
C660 N659 1.351 . S
C660 C661 1.434 . S
C661 C652 1.429 . S
C661 N658 1.350 . S
C661 C660 1.434 . S
C662 C663 1.369 . S
C662 C664 1.419 . S
C662 H666 0.930 . S
C663 C662 1.369 . S
C663 C672 1.429 . S
C664 C662 1.419 . S
C664 C665 1.363 . S
C664 H667 0.929 . S
C665 C664 1.363 . S
C665 C671 1.428 . S
H666 C662 0.930 . S
H667 C664 0.929 . S
S668 N669 1.613 . S
S668 N670 1.610 . S
N669 S668 1.613 . S
N669 C672 1.350 . S
N670 S668 1.610 . S
N670 C671 1.351 . S
C671 C665 1.428 . S
C671 N670 1.351 . S
C671 C672 1.434 . S
C672 C663 1.429 . S
C672 N669 1.350 . S
C672 C671 1.434 . S
C673 C674 1.369 . S
C673 C675 1.419 . S
C673 H677 0.930 . S
C674 C673 1.369 . S
C674 C683 1.429 . S
C675 C673 1.419 . S
C675 C676 1.363 . S
C675 H678 0.929 . S
C676 C675 1.363 . S
C676 C682 1.428 . S
H677 C673 0.930 . S
H678 C675 0.929 . S
S679 N680 1.613 . S
S679 N681 1.610 . S
N680 S679 1.613 . S
N680 C683 1.350 . S
N681 S679 1.610 . S
N681 C682 1.351 . S
C682 C676 1.428 . S
C682 N681 1.351 . S
C682 C683 1.434 . S
C683 C674 1.429 . S
C683 N680 1.350 . S
C683 C682 1.434 . S
C684 C685 1.369 . S
C684 C686 1.419 . S
C684 H688 0.930 . S
C685 C684 1.369 . S
C685 C694 1.429 . S
C686 C684 1.419 . S
C686 C687 1.363 . S
C686 H689 0.929 . S
C687 C686 1.363 . S
C687 C693 1.428 . S
H688 C684 0.930 . S
H689 C686 0.929 . S
S690 N691 1.613 . S
S690 N692 1.610 . S
N691 S690 1.613 . S
N691 C694 1.350 . S
N692 S690 1.610 . S
N692 C693 1.351 . S
C693 C687 1.428 . S
C693 N692 1.351 . S
C693 C694 1.434 . S
C694 C685 1.429 . S
C694 N691 1.350 . S
C694 C693 1.434 . S
C695 C696 1.369 . S
C695 C697 1.419 . S
C695 H699 0.930 . S
C696 C695 1.369 . S
C696 C705 1.429 . S
C697 C695 1.419 . S
C697 C698 1.363 . S
C697 H700 0.929 . S
C698 C697 1.363 . S
C698 C704 1.428 . S
H699 C695 0.930 . S
H700 C697 0.929 . S
S701 N702 1.613 . S
S701 N703 1.610 . S
N702 S701 1.613 . S
N702 C705 1.350 . S
N703 S701 1.610 . S
N703 C704 1.351 . S
C704 C698 1.428 . S
C704 N703 1.351 . S
C704 C705 1.434 . S
C705 C696 1.429 . S
C705 N702 1.350 . S
C705 C704 1.434 . S
C706 C707 1.369 . S
C706 C708 1.419 . S
C706 H710 0.930 . S
C707 C706 1.369 . S
C707 C716 1.429 . S
C708 C706 1.419 . S
C708 C709 1.363 . S
C708 H711 0.929 . S
C709 C708 1.363 . S
C709 C715 1.428 . S
H710 C706 0.930 . S
H711 C708 0.929 . S
S712 N713 1.613 . S
S712 N714 1.610 . S
N713 S712 1.613 . S
N713 C716 1.350 . S
N714 S712 1.610 . S
N714 C715 1.351 . S
C715 C709 1.428 . S
C715 N714 1.351 . S
C715 C716 1.434 . S
C716 C707 1.429 . S
C716 N713 1.350 . S
C716 C715 1.434 . S
C717 C718 1.369 . S
C717 C719 1.419 . S
C717 H721 0.930 . S
C718 C717 1.369 . S
C718 C727 1.429 . S
C719 C717 1.419 . S
C719 C720 1.363 . S
C719 H722 0.929 . S
C720 C719 1.363 . S
C720 C726 1.428 . S
H721 C717 0.930 . S
H722 C719 0.929 . S
S723 N724 1.613 . S
S723 N725 1.610 . S
N724 S723 1.613 . S
N724 C727 1.350 . S
N725 S723 1.610 . S
N725 C726 1.351 . S
C726 C720 1.428 . S
C726 N725 1.351 . S
C726 C727 1.434 . S
C727 C718 1.429 . S
C727 N724 1.350 . S
C727 C726 1.434 . S
C728 C729 1.369 . S
C728 C730 1.419 . S
C728 H732 0.930 . S
C729 C728 1.369 . S
C729 C738 1.429 . S
C730 C728 1.419 . S
C730 C731 1.363 . S
C730 H733 0.929 . S
C731 C730 1.363 . S
C731 C737 1.428 . S
H732 C728 0.930 . S
H733 C730 0.929 . S
S734 N735 1.613 . S
S734 N736 1.610 . S
N735 S734 1.613 . S
N735 C738 1.350 . S
N736 S734 1.610 . S
N736 C737 1.351 . S
C737 C731 1.428 . S
C737 N736 1.351 . S
C737 C738 1.434 . S
C738 C729 1.429 . S
C738 N735 1.350 . S
C738 C737 1.434 . S
C739 C740 1.369 . S
C739 C741 1.419 . S
C739 H743 0.930 . S
C740 C739 1.369 . S
C740 C749 1.429 . S
C741 C739 1.419 . S
C741 C742 1.363 . S
C741 H744 0.929 . S
C742 C741 1.363 . S
C742 C748 1.428 . S
H743 C739 0.930 . S
H744 C741 0.929 . S
S745 N746 1.613 . S
S745 N747 1.610 . S
N746 S745 1.613 . S
N746 C749 1.350 . S
N747 S745 1.610 . S
N747 C748 1.351 . S
C748 C742 1.428 . S
C748 N747 1.351 . S
C748 C749 1.434 . S
C749 C740 1.429 . S
C749 N746 1.350 . S
C749 C748 1.434 . S
C750 C751 1.369 . S
C750 C752 1.419 . S
C750 H754 0.930 . S
C751 C750 1.369 . S
C751 C760 1.429 . S
C752 C750 1.419 . S
C752 C753 1.363 . S
C752 H755 0.929 . S
C753 C752 1.363 . S
C753 C759 1.428 . S
H754 C750 0.930 . S
H755 C752 0.929 . S
S756 N757 1.613 . S
S756 N758 1.610 . S
N757 S756 1.613 . S
N757 C760 1.350 . S
N758 S756 1.610 . S
N758 C759 1.351 . S
C759 C753 1.428 . S
C759 N758 1.351 . S
C759 C760 1.434 . S
C760 C751 1.429 . S
C760 N757 1.350 . S
C760 C759 1.434 . S
C761 C762 1.369 . S
C761 C763 1.419 . S
C761 H765 0.930 . S
C762 C761 1.369 . S
C762 C771 1.429 . S
C763 C761 1.419 . S
C763 C764 1.363 . S
C763 H766 0.929 . S
C764 C763 1.363 . S
C764 C770 1.428 . S
H765 C761 0.930 . S
H766 C763 0.929 . S
S767 N768 1.613 . S
S767 N769 1.610 . S
N768 S767 1.613 . S
N768 C771 1.350 . S
N769 S767 1.610 . S
N769 C770 1.351 . S
C770 C764 1.428 . S
C770 N769 1.351 . S
C770 C771 1.434 . S
C771 C762 1.429 . S
C771 N768 1.350 . S
C771 C770 1.434 . S
C772 C773 1.369 . S
C772 C774 1.419 . S
C772 H776 0.930 . S
C773 C772 1.369 . S
C773 C782 1.429 . S
C774 C772 1.419 . S
C774 C775 1.363 . S
C774 H777 0.929 . S
C775 C774 1.363 . S
C775 C781 1.428 . S
H776 C772 0.930 . S
H777 C774 0.929 . S
S778 N779 1.613 . S
S778 N780 1.610 . S
N779 S778 1.613 . S
N779 C782 1.350 . S
N780 S778 1.610 . S
N780 C781 1.351 . S
C781 C775 1.428 . S
C781 N780 1.351 . S
C781 C782 1.434 . S
C782 C773 1.429 . S
C782 N779 1.350 . S
C782 C781 1.434 . S
C783 C784 1.369 . S
C783 C785 1.419 . S
C783 H787 0.930 . S
C784 C783 1.369 . S
C784 C793 1.429 . S
C785 C783 1.419 . S
C785 C786 1.363 . S
C785 H788 0.929 . S
C786 C785 1.363 . S
C786 C792 1.428 . S
H787 C783 0.930 . S
H788 C785 0.929 . S
S789 N790 1.613 . S
S789 N791 1.610 . S
N790 S789 1.613 . S
N790 C793 1.350 . S
N791 S789 1.610 . S
N791 C792 1.351 . S
C792 C786 1.428 . S
C792 N791 1.351 . S
C792 C793 1.434 . S
C793 C784 1.429 . S
C793 N790 1.350 . S
C793 C792 1.434 . S
C794 C795 1.369 . S
C794 C796 1.419 . S
C794 H798 0.930 . S
C795 C794 1.369 . S
C795 C804 1.429 . S
C796 C794 1.419 . S
C796 C797 1.363 . S
C796 H799 0.929 . S
C797 C796 1.363 . S
C797 C803 1.428 . S
H798 C794 0.930 . S
H799 C796 0.929 . S
S800 N801 1.613 . S
S800 N802 1.610 . S
N801 S800 1.613 . S
N801 C804 1.350 . S
N802 S800 1.610 . S
N802 C803 1.351 . S
C803 C797 1.428 . S
C803 N802 1.351 . S
C803 C804 1.434 . S
C804 C795 1.429 . S
C804 N801 1.350 . S
C804 C803 1.434 . S
C805 C806 1.369 . S
C805 C807 1.419 . S
C805 H809 0.930 . S
C806 C805 1.369 . S
C806 C815 1.429 . S
C807 C805 1.419 . S
C807 C808 1.363 . S
C807 H810 0.929 . S
C808 C807 1.363 . S
C808 C814 1.428 . S
H809 C805 0.930 . S
H810 C807 0.929 . S
S811 N812 1.613 . S
S811 N813 1.610 . S
N812 S811 1.613 . S
N812 C815 1.350 . S
N813 S811 1.610 . S
N813 C814 1.351 . S
C814 C808 1.428 . S
C814 N813 1.351 . S
C814 C815 1.434 . S
C815 C806 1.429 . S
C815 N812 1.350 . S
C815 C814 1.434 . S
C816 C817 1.369 . S
C816 C818 1.419 . S
C816 H820 0.930 . S
C817 C816 1.369 . S
C817 C826 1.429 . S
C818 C816 1.419 . S
C818 C819 1.363 . S
C818 H821 0.929 . S
C819 C818 1.363 . S
C819 C825 1.428 . S
H820 C816 0.930 . S
H821 C818 0.929 . S
S822 N823 1.613 . S
S822 N824 1.610 . S
N823 S822 1.613 . S
N823 C826 1.350 . S
N824 S822 1.610 . S
N824 C825 1.351 . S
C825 C819 1.428 . S
C825 N824 1.351 . S
C825 C826 1.434 . S
C826 C817 1.429 . S
C826 N823 1.350 . S
C826 C825 1.434 . S
C827 C828 1.369 1_556 S
C827 C829 1.419 . S
C827 H831 0.930 . S
C828 C827 1.369 1_554 S
C828 C837 1.429 1_554 S
C829 C827 1.419 . S
C829 C830 1.363 . S
C829 H832 0.929 . S
C830 C829 1.363 . S
C830 C836 1.428 . S
H831 C827 0.930 . S
H832 C829 0.929 . S
S833 N834 1.613 . S
S833 N835 1.610 1_554 S
N834 S833 1.613 . S
N834 C837 1.352 1_554 S
N835 S833 1.610 1_556 S
N835 C836 1.351 . S
C836 C830 1.428 . S
C836 N835 1.351 . S
C836 C837 1.432 . S
C837 C828 1.429 1_556 S
C837 N834 1.352 1_556 S
C837 C836 1.432 . S
C838 C839 1.369 . S
C838 C840 1.419 . S
C838 H842 0.930 . S
C839 C838 1.369 . S
C839 C848 1.429 . S
C840 C838 1.419 . S
C840 C841 1.363 . S
C840 H843 0.929 . S
C841 C840 1.363 . S
C841 C847 1.428 . S
H842 C838 0.930 . S
H843 C840 0.929 . S
S844 N845 1.613 . S
S844 N846 1.610 . S
N845 S844 1.613 . S
N845 C848 1.350 . S
N846 S844 1.610 . S
N846 C847 1.351 . S
C847 C841 1.428 . S
C847 N846 1.351 . S
C847 C848 1.434 . S
C848 C839 1.429 . S
C848 N845 1.350 . S
C848 C847 1.434 . S
C849 C850 1.369 . S
C849 C851 1.419 . S
C849 H853 0.930 . S
C850 C849 1.369 . S
C850 C859 1.429 . S
C851 C849 1.419 . S
C851 C852 1.363 1_554 S
C851 H854 0.929 . S
C852 C851 1.363 1_556 S
C852 C858 1.428 1_556 S
H853 C849 0.930 . S
H854 C851 0.929 . S
S855 N856 1.613 . S
S855 N857 1.610 1_554 S
N856 S855 1.613 . S
N856 C859 1.350 . S
N857 S855 1.610 1_556 S
N857 C858 1.351 1_556 S
C858 C852 1.428 1_554 S
C858 N857 1.351 1_554 S
C858 C859 1.434 . S
C859 C850 1.429 . S
C859 N856 1.350 . S
C859 C858 1.434 . S
C860 C861 1.369 . S
C860 C862 1.419 . S
C860 H864 0.930 . S
C861 C860 1.369 . S
C861 C870 1.429 . S
C862 C860 1.419 . S
C862 C863 1.363 . S
C862 H865 0.929 . S
C863 C862 1.363 . S
C863 C869 1.428 . S
H864 C860 0.930 . S
H865 C862 0.929 . S
S866 N867 1.613 . S
S866 N868 1.610 . S
N867 S866 1.613 . S
N867 C870 1.350 . S
N868 S866 1.610 . S
N868 C869 1.351 . S
C869 C863 1.428 . S
C869 N868 1.351 . S
C869 C870 1.434 . S
C870 C861 1.429 . S
C870 N867 1.350 . S
C870 C869 1.434 . S
C871 C872 1.369 . S
C871 C873 1.419 . S
C871 H875 0.930 . S
C872 C871 1.369 . S
C872 C881 1.429 . S
C873 C871 1.419 . S
C873 C874 1.363 . S
C873 H876 0.929 . S
C874 C873 1.363 . S
C874 C880 1.428 . S
H875 C871 0.930 . S
H876 C873 0.929 . S
S877 N878 1.613 . S
S877 N879 1.610 . S
N878 S877 1.613 . S
N878 C881 1.350 . S
N879 S877 1.610 . S
N879 C880 1.351 . S
C880 C874 1.428 . S
C880 N879 1.351 . S
C880 C881 1.434 . S
C881 C872 1.429 . S
C881 N878 1.350 . S
C881 C880 1.434 . S
C882 C883 1.369 . S
C882 C884 1.419 . S
C882 H886 0.930 . S
C883 C882 1.369 . S
C883 C892 1.429 . S
C884 C882 1.419 . S
C884 C885 1.363 . S
C884 H887 0.929 . S
C885 C884 1.363 . S
C885 C891 1.428 . S
H886 C882 0.930 . S
H887 C884 0.929 . S
S888 N889 1.613 . S
S888 N890 1.610 . S
N889 S888 1.613 . S
N889 C892 1.350 . S
N890 S888 1.610 . S
N890 C891 1.351 . S
C891 C885 1.428 . S
C891 N890 1.351 . S
C891 C892 1.434 . S
C892 C883 1.429 . S
C892 N889 1.350 . S
C892 C891 1.434 . S
C893 C894 1.369 . S
C893 C895 1.419 . S
C893 H897 0.930 . S
C894 C893 1.369 . S
C894 C903 1.429 . S
C895 C893 1.419 . S
C895 C896 1.363 . S
C895 H898 0.929 . S
C896 C895 1.363 . S
C896 C902 1.428 . S
H897 C893 0.930 . S
H898 C895 0.929 . S
S899 N900 1.613 . S
S899 N901 1.610 . S
N900 S899 1.613 . S
N900 C903 1.350 . S
N901 S899 1.610 . S
N901 C902 1.351 . S
C902 C896 1.428 . S
C902 N901 1.351 . S
C902 C903 1.434 . S
C903 C894 1.429 . S
C903 N900 1.350 . S
C903 C902 1.434 . S
C904 C905 1.369 . S
C904 C906 1.419 . S
C904 H908 0.930 . S
C905 C904 1.369 . S
C905 C914 1.429 . S
C906 C904 1.419 . S
C906 C907 1.363 . S
C906 H909 0.929 . S
C907 C906 1.363 . S
C907 C913 1.428 . S
H908 C904 0.930 . S
H909 C906 0.929 . S
S910 N911 1.613 . S
S910 N912 1.610 . S
N911 S910 1.613 . S
N911 C914 1.350 . S
N912 S910 1.610 . S
N912 C913 1.351 . S
C913 C907 1.428 . S
C913 N912 1.351 . S
C913 C914 1.434 . S
C914 C905 1.429 . S
C914 N911 1.350 . S
C914 C913 1.434 . S
C915 C916 1.369 1_545 S
C915 C917 1.419 . S
C915 H919 0.930 . S
C916 C915 1.369 1_565 S
C916 C925 1.429 1_565 S
C917 C915 1.419 . S
C917 C918 1.363 . S
C917 H920 0.929 . S
C918 C917 1.363 . S
C918 C924 1.428 . S
H919 C915 0.930 . S
H920 C917 0.929 . S
S921 N922 1.613 1_545 S
S921 N923 1.610 . S
N922 S921 1.613 1_565 S
N922 C925 1.350 1_565 S
N923 S921 1.610 . S
N923 C924 1.351 . S
C924 C918 1.428 . S
C924 N923 1.351 . S
C924 C925 1.434 . S
C925 C916 1.429 1_545 S
C925 N922 1.350 1_545 S
C925 C924 1.434 . S
C926 C927 1.369 . S
C926 C928 1.419 1_545 S
C926 H930 0.930 . S
C927 C926 1.369 . S
C927 C936 1.429 1_545 S
C928 C926 1.419 1_565 S
C928 C929 1.363 . S
C928 H931 0.929 . S
C929 C928 1.363 . S
C929 C935 1.428 . S
H930 C926 0.930 . S
H931 C928 0.929 . S
S932 N933 1.613 . S
S932 N934 1.610 . S
N933 S932 1.613 . S
N933 C936 1.350 . S
N934 S932 1.610 . S
N934 C935 1.351 . S
C935 C929 1.428 . S
C935 N934 1.351 . S
C935 C936 1.434 . S
C936 C927 1.429 1_565 S
C936 N933 1.350 . S
C936 C935 1.434 . S
C937 C938 1.369 . S
C937 C939 1.419 . S
C937 H941 0.930 . S
C938 C937 1.369 . S
C938 C947 1.429 . S
C939 C937 1.419 . S
C939 C940 1.363 . S
C939 H942 0.929 . S
C940 C939 1.363 . S
C940 C946 1.428 . S
H941 C937 0.930 . S
H942 C939 0.929 . S
S943 N944 1.613 . S
S943 N945 1.610 . S
N944 S943 1.613 . S
N944 C947 1.350 . S
N945 S943 1.610 . S
N945 C946 1.351 . S
C946 C940 1.428 . S
C946 N945 1.351 . S
C946 C947 1.434 . S
C947 C938 1.429 . S
C947 N944 1.350 . S
C947 C946 1.434 . S
C948 C949 1.369 . S
C948 C950 1.419 . S
C948 H952 0.930 . S
C949 C948 1.369 . S
C949 C958 1.429 . S
C950 C948 1.419 . S
C950 C951 1.363 . S
C950 H953 0.929 . S
C951 C950 1.363 . S
C951 C957 1.428 . S
H952 C948 0.930 . S
H953 C950 0.929 . S
S954 N955 1.613 . S
S954 N956 1.610 . S
N955 S954 1.613 . S
N955 C958 1.350 . S
N956 S954 1.610 . S
N956 C957 1.351 . S
C957 C951 1.428 . S
C957 N956 1.351 . S
C957 C958 1.434 . S
C958 C949 1.429 . S
C958 N955 1.350 . S
C958 C957 1.434 . S
C959 C960 1.369 1_554 S
C959 C961 1.419 . S
C959 H963 0.930 1_554 S
C960 C959 1.369 1_556 S
C960 C969 1.429 1_556 S
C961 C959 1.419 . S
C961 C962 1.363 . S
C961 H964 0.929 . S
C962 C961 1.363 . S
C962 C968 1.428 . S
H963 C959 0.930 1_556 S
H964 C961 0.929 . S
S965 N966 1.613 . S
S965 N967 1.610 . S
N966 S965 1.613 . S
N966 C969 1.350 . S
N967 S965 1.610 . S
N967 C968 1.351 . S
C968 C962 1.428 . S
C968 N967 1.351 . S
C968 C969 1.434 . S
C969 C960 1.429 1_554 S
C969 N966 1.350 . S
C969 C968 1.434 . S
C970 C971 1.369 . S
C970 C972 1.419 . S
C970 H974 0.930 . S
C971 C970 1.369 . S
C971 C980 1.429 . S
C972 C970 1.419 . S
C972 C973 1.363 . S
C972 H975 0.929 . S
C973 C972 1.363 . S
C973 C979 1.428 . S
H974 C970 0.930 . S
H975 C972 0.929 . S
S976 N977 1.613 . S
S976 N978 1.610 . S
N977 S976 1.613 . S
N977 C980 1.350 . S
N978 S976 1.610 . S
N978 C979 1.351 . S
C979 C973 1.428 . S
C979 N978 1.351 . S
C979 C980 1.434 . S
C980 C971 1.429 . S
C980 N977 1.350 . S
C980 C979 1.434 . S
C981 C982 1.369 1_556 S
C981 C983 1.419 . S
C981 H985 0.930 1_556 S
C982 C981 1.369 1_554 S
C982 C991 1.429 1_554 S
C983 C981 1.419 . S
C983 C984 1.363 . S
C983 H986 0.929 . S
C984 C983 1.363 . S
C984 C990 1.428 . S
H985 C981 0.930 1_554 S
H986 C983 0.929 . S
S987 N988 1.613 . S
S987 N989 1.610 . S
N988 S987 1.613 . S
N988 C991 1.350 . S
N989 S987 1.610 . S
N989 C990 1.351 . S
C990 C984 1.428 . S
C990 N989 1.351 . S
C990 C991 1.434 . S
C991 C982 1.429 1_556 S
C991 N988 1.350 . S
C991 C990 1.434 . S
C992 C993 1.369 . S
C992 C994 1.419 . S
C992 H996 0.930 . S
C993 C992 1.369 . S
C993 C1002 1.429 . S
C994 C992 1.419 . S
C994 C995 1.363 . S
C994 H997 0.929 . S
C995 C994 1.363 . S
C995 C1001 1.428 . S
H996 C992 0.930 . S
H997 C994 0.929 . S
S998 N999 1.613 . S
S998 N1000 1.610 . S
N999 S998 1.613 . S
N999 C1002 1.350 . S
N1000 S998 1.610 . S
N1000 C1001 1.351 . S
C1001 C995 1.428 . S
C1001 N1000 1.351 . S
C1001 C1002 1.434 . S
C1002 C993 1.429 . S
C1002 N999 1.350 . S
C1002 C1001 1.434 . S
C1003 C1004 1.369 . S
C1003 C1005 1.419 . S
C1003 H1007 0.930 . S
C1004 C1003 1.369 . S
C1004 C1013 1.429 . S
C1005 C1003 1.419 . S
C1005 C1006 1.363 1_655 S
C1005 H1008 0.929 . S
C1006 C1005 1.363 1_455 S
C1006 C1012 1.428 . S
H1007 C1003 0.930 . S
H1008 C1005 0.929 . S
S1009 N1010 1.613 1_455 S
S1009 N1011 1.610 . S
N1010 S1009 1.613 1_655 S
N1010 C1013 1.350 . S
N1011 S1009 1.610 . S
N1011 C1012 1.351 . S
C1012 C1006 1.428 . S
C1012 N1011 1.351 . S
C1012 C1013 1.434 1_455 S
C1013 C1004 1.429 . S
C1013 N1010 1.350 . S
C1013 C1012 1.434 1_655 S
C1014 C1015 1.369 . S
C1014 C1016 1.437 . S
C1014 H1018 0.930 . S
C1015 C1014 1.369 . S
C1015 C1024 1.429 . S
C1016 C1014 1.437 . S
C1016 C1017 1.353 1_455 S
C1016 H1019 0.921 1_455 S
C1017 C1016 1.353 1_655 S
C1017 C1023 1.428 . S
H1018 C1014 0.930 . S
H1019 C1016 0.921 1_655 S
S1020 N1021 1.613 . S
S1020 N1022 1.610 1_455 S
N1021 S1020 1.613 . S
N1021 C1024 1.350 . S
N1022 S1020 1.610 1_655 S
N1022 C1023 1.351 . S
C1023 C1017 1.428 . S
C1023 N1022 1.351 . S
C1023 C1024 1.434 1_655 S
C1024 C1015 1.429 . S
C1024 N1021 1.350 . S
C1024 C1023 1.434 1_455 S
C1025 C1026 1.369 . S
C1025 C1027 1.419 . S
C1025 H1029 0.930 . S
C1026 C1025 1.369 . S
C1026 C1035 1.429 . S
C1027 C1025 1.419 . S
C1027 C1028 1.363 . S
C1027 H1030 0.929 . S
C1028 C1027 1.363 . S
C1028 C1034 1.428 . S
H1029 C1025 0.930 . S
H1030 C1027 0.929 . S
S1031 N1032 1.613 . S
S1031 N1033 1.610 . S
N1032 S1031 1.613 . S
N1032 C1035 1.350 . S
N1033 S1031 1.610 . S
N1033 C1034 1.351 . S
C1034 C1028 1.428 . S
C1034 N1033 1.351 . S
C1034 C1035 1.434 . S
C1035 C1026 1.429 . S
C1035 N1032 1.350 . S
C1035 C1034 1.434 . S
C1036 C1037 1.369 . S
C1036 C1038 1.419 . S
C1036 H1040 0.930 . S
C1037 C1036 1.369 . S
C1037 C1046 1.429 . S
C1038 C1036 1.419 . S
C1038 C1039 1.363 . S
C1038 H1041 0.929 . S
C1039 C1038 1.363 . S
C1039 C1045 1.428 . S
H1040 C1036 0.930 . S
H1041 C1038 0.929 . S
S1042 N1043 1.613 . S
S1042 N1044 1.610 . S
N1043 S1042 1.613 . S
N1043 C1046 1.350 . S
N1044 S1042 1.610 . S
N1044 C1045 1.351 . S
C1045 C1039 1.428 . S
C1045 N1044 1.351 . S
C1045 C1046 1.434 . S
C1046 C1037 1.429 . S
C1046 N1043 1.350 . S
C1046 C1045 1.434 . S
C1047 C1048 1.369 . S
C1047 C1049 1.419 . S
C1047 H1051 0.930 . S
C1048 C1047 1.369 . S
C1048 C1057 1.429 . S
C1049 C1047 1.419 . S
C1049 C1050 1.363 . S
C1049 H1052 0.929 . S
C1050 C1049 1.363 . S
C1050 C1056 1.428 . S
H1051 C1047 0.930 . S
H1052 C1049 0.929 . S
S1053 N1054 1.613 . S
S1053 N1055 1.610 . S
N1054 S1053 1.613 . S
N1054 C1057 1.350 . S
N1055 S1053 1.610 . S
N1055 C1056 1.351 . S
C1056 C1050 1.428 . S
C1056 N1055 1.351 . S
C1056 C1057 1.434 . S
C1057 C1048 1.429 . S
C1057 N1054 1.350 . S
C1057 C1056 1.434 . S
C1058 C1059 1.369 . S
C1058 C1060 1.419 . S
C1058 H1062 0.930 . S
C1059 C1058 1.369 . S
C1059 C1068 1.429 . S
C1060 C1058 1.419 . S
C1060 C1061 1.363 . S
C1060 H1063 0.929 . S
C1061 C1060 1.363 . S
C1061 C1067 1.428 . S
H1062 C1058 0.930 . S
H1063 C1060 0.929 . S
S1064 N1065 1.613 . S
S1064 N1066 1.610 . S
N1065 S1064 1.613 . S
N1065 C1068 1.350 . S
N1066 S1064 1.610 . S
N1066 C1067 1.351 . S
C1067 C1061 1.428 . S
C1067 N1066 1.351 . S
C1067 C1068 1.434 . S
C1068 C1059 1.429 . S
C1068 N1065 1.350 . S
C1068 C1067 1.434 . S
C1069 C1070 1.369 . S
C1069 C1071 1.419 . S
C1069 H1073 0.930 . S
C1070 C1069 1.369 . S
C1070 C1079 1.429 . S
C1071 C1069 1.419 . S
C1071 C1072 1.363 . S
C1071 H1074 0.929 . S
C1072 C1071 1.363 . S
C1072 C1078 1.428 . S
H1073 C1069 0.930 . S
H1074 C1071 0.929 . S
S1075 N1076 1.613 . S
S1075 N1077 1.610 . S
N1076 S1075 1.613 . S
N1076 C1079 1.350 . S
N1077 S1075 1.610 . S
N1077 C1078 1.351 . S
C1078 C1072 1.428 . S
C1078 N1077 1.351 . S
C1078 C1079 1.434 . S
C1079 C1070 1.429 . S
C1079 N1076 1.350 . S
C1079 C1078 1.434 . S
C553 C191 1.929 . S
C555 N12 1.909 . S
C564 N35 1.916 . S
C566 C260 1.920 . S
C575 N58 1.910 . S
C577 C214 1.924 . S
C586 N81 1.917 . S
C588 C237 1.920 . S
C597 C99 1.877 . S
C599 C7 1.899 . S
C608 C30 1.902 . S
C610 C122 1.876 . S
C619 C145 1.881 . S
C621 C53 1.897 . S
C630 C76 1.902 . S
C632 C168 1.876 . S
C641 N104 1.791 . S
C643 N196 1.724 . S
C652 N150 1.791 . S
C654 N219 1.724 . S
C663 N242 1.731 . S
C665 N173 1.788 . S
C674 N127 1.790 . S
C676 N265 1.724 . S
C685 C467 1.837 . S
C687 N288 1.859 . S
C696 N311 1.860 . S
C698 C536 1.840 . S
C707 N334 1.852 . S
C709 C490 1.845 . S
C718 C513 1.843 . S
C720 N357 1.854 . S
C729 N380 1.787 . S
C731 C283 1.777 . S
C740 C306 1.773 . S
C742 N403 1.791 . S
C751 C329 1.780 . S
C753 N426 1.786 . S
C762 N449 1.794 . S
C764 C352 1.774 . S
C773 N472 1.753 . S
C775 C375 1.745 . S
C784 C421 1.749 . S
C786 N495 1.748 . S
C795 C444 1.740 . S
C797 N518 1.753 . S
C806 N541 1.745 . S
C808 C398 1.748 . S
C817 C522 1.942 . S
C819 N2 1.693 . S
C828 C499 1.944 . S
C830 N25 1.703 . S
C839 C545 1.943 . S
C841 N48 1.692 . S
C850 N71 1.700 . S
C852 C476 1.945 . S
C861 C108 1.675 . S
C863 C315 1.773 . S
C872 C292 1.778 1_455 S
C874 C131 1.676 . S
C883 C361 1.772 1_655 S
C885 C154 1.677 . S
C894 C338 1.772 . S
C896 C177 1.672 . S
C905 N186 1.656 . S
C907 C430 1.890 . S
C916 C384 1.891 . S
C918 N209 1.656 . S
C927 C407 1.887 . S
C929 N232 1.651 . S
C938 C453 1.890 . S
C940 N255 1.653 . S
C949 C246 1.911 . S
C951 N278 1.681 . S
C960 C223 1.908 . S
C962 N301 1.673 . S
C971 N324 1.683 . S
C973 C269 1.909 . S
C982 C200 1.909 . S
C984 N347 1.672 . S
C993 N370 1.667 . S
C995 C39 1.892 . S
C1004 N393 1.678 . S
C1006 C16 1.893 . S
C1015 N416 1.675 . S
C1017 C85 1.890 . S
C1026 N439 1.680 . S
C1028 C62 1.892 . S
C1037 N462 1.694 . S
C1039 N140 1.822 . S
C1048 N485 1.685 . S
C1050 N94 1.823 1_565 S
C1059 N117 1.818 1_545 S
C1061 N508 1.692 . S
C1070 N531 1.685 . S
C1072 N163 1.823 . S
