# Generated by pormake.
# Topology wio, (6)-cn, num edge types: 1
# Building blocks:
#     Node 0, Type 0, BuildingBlock: BETDEL_clean_sbu_0, # of connection points: 6
#     Node 1, Type 0, BuildingBlock: BETDEL_clean_sbu_0, # of connection points: 6
#     Node 2, Type 0, BuildingBlock: BETDEL_clean_sbu_0, # of connection points: 6
#     Node 3, Type 0, BuildingBlock: BETDEL_clean_sbu_0, # of connection points: 6
#     Node 4, Type 0, BuildingBlock: BETDEL_clean_sbu_0, # of connection points: 6
#     Node 5, Type 0, BuildingBlock: BETDEL_clean_sbu_0, # of connection points: 6
#     Node 6, Type 0, BuildingBlock: BETDEL_clean_sbu_0, # of connection points: 6
#     Node 7, Type 0, BuildingBlock: BETDEL_clean_sbu_0, # of connection points: 6
#     Node 8, Type 0, BuildingBlock: BETDEL_clean_sbu_0, # of connection points: 6
#     Node 9, Type 0, BuildingBlock: BETDEL_clean_sbu_0, # of connection points: 6
#     Node 10, Type 0, BuildingBlock: BETDEL_clean_sbu_0, # of connection points: 6
#     Node 11, Type 0, BuildingBlock: BETDEL_clean_sbu_0, # of connection points: 6
#     Node 12, Type 0, BuildingBlock: BETDEL_clean_sbu_0, # of connection points: 6
#     Node 13, Type 0, BuildingBlock: BETDEL_clean_sbu_0, # of connection points: 6
#     Node 14, Type 0, BuildingBlock: BETDEL_clean_sbu_0, # of connection points: 6
#     Node 15, Type 0, BuildingBlock: BETDEL_clean_sbu_0, # of connection points: 6
#     Node 16, Type 0, BuildingBlock: BETDEL_clean_sbu_0, # of connection points: 6
#     Node 17, Type 0, BuildingBlock: BETDEL_clean_sbu_0, # of connection points: 6
#     Node 18, Type 0, BuildingBlock: BETDEL_clean_sbu_0, # of connection points: 6
#     Node 19, Type 0, BuildingBlock: BETDEL_clean_sbu_0, # of connection points: 6
#     Node 20, Type 0, BuildingBlock: BETDEL_clean_sbu_0, # of connection points: 6
#     Node 21, Type 0, BuildingBlock: BETDEL_clean_sbu_0, # of connection points: 6
#     Node 22, Type 0, BuildingBlock: BETDEL_clean_sbu_0, # of connection points: 6
#     Node 23, Type 0, BuildingBlock: BETDEL_clean_sbu_0, # of connection points: 6
#     Node 24, Type 0, BuildingBlock: BETDEL_clean_sbu_0, # of connection points: 6
#     Node 25, Type 0, BuildingBlock: BETDEL_clean_sbu_0, # of connection points: 6
#     Node 26, Type 0, BuildingBlock: BETDEL_clean_sbu_0, # of connection points: 6
#     Node 27, Type 0, BuildingBlock: BETDEL_clean_sbu_0, # of connection points: 6
#     Node 28, Type 0, BuildingBlock: BETDEL_clean_sbu_0, # of connection points: 6
#     Node 29, Type 0, BuildingBlock: BETDEL_clean_sbu_0, # of connection points: 6
#     Node 30, Type 0, BuildingBlock: BETDEL_clean_sbu_0, # of connection points: 6
#     Node 31, Type 0, BuildingBlock: BETDEL_clean_sbu_0, # of connection points: 6
#     Edge 32, Type (0, 0), BuildingBlock: XIVTED_clean_linker_0, # of connection points: 2
#     Edge 33, Type (0, 0), BuildingBlock: XIVTED_clean_linker_0, # of connection points: 2
#     Edge 34, Type (0, 0), BuildingBlock: XIVTED_clean_linker_0, # of connection points: 2
#     Edge 35, Type (0, 0), BuildingBlock: XIVTED_clean_linker_0, # of connection points: 2
#     Edge 36, Type (0, 0), BuildingBlock: XIVTED_clean_linker_0, # of connection points: 2
#     Edge 37, Type (0, 0), BuildingBlock: XIVTED_clean_linker_0, # of connection points: 2
#     Edge 38, Type (0, 0), BuildingBlock: XIVTED_clean_linker_0, # of connection points: 2
#     Edge 39, Type (0, 0), BuildingBlock: XIVTED_clean_linker_0, # of connection points: 2
#     Edge 40, Type (0, 0), BuildingBlock: XIVTED_clean_linker_0, # of connection points: 2
#     Edge 41, Type (0, 0), BuildingBlock: XIVTED_clean_linker_0, # of connection points: 2
#     Edge 42, Type (0, 0), BuildingBlock: XIVTED_clean_linker_0, # of connection points: 2
#     Edge 43, Type (0, 0), BuildingBlock: XIVTED_clean_linker_0, # of connection points: 2
#     Edge 44, Type (0, 0), BuildingBlock: XIVTED_clean_linker_0, # of connection points: 2
#     Edge 45, Type (0, 0), BuildingBlock: XIVTED_clean_linker_0, # of connection points: 2
#     Edge 46, Type (0, 0), BuildingBlock: XIVTED_clean_linker_0, # of connection points: 2
#     Edge 47, Type (0, 0), BuildingBlock: XIVTED_clean_linker_0, # of connection points: 2
#     Edge 48, Type (0, 0), BuildingBlock: XIVTED_clean_linker_0, # of connection points: 2
#     Edge 49, Type (0, 0), BuildingBlock: XIVTED_clean_linker_0, # of connection points: 2
#     Edge 50, Type (0, 0), BuildingBlock: XIVTED_clean_linker_0, # of connection points: 2
#     Edge 51, Type (0, 0), BuildingBlock: XIVTED_clean_linker_0, # of connection points: 2
#     Edge 52, Type (0, 0), BuildingBlock: XIVTED_clean_linker_0, # of connection points: 2
#     Edge 53, Type (0, 0), BuildingBlock: XIVTED_clean_linker_0, # of connection points: 2
#     Edge 54, Type (0, 0), BuildingBlock: XIVTED_clean_linker_0, # of connection points: 2
#     Edge 55, Type (0, 0), BuildingBlock: XIVTED_clean_linker_0, # of connection points: 2
#     Edge 56, Type (0, 0), BuildingBlock: XIVTED_clean_linker_0, # of connection points: 2
#     Edge 57, Type (0, 0), BuildingBlock: XIVTED_clean_linker_0, # of connection points: 2
#     Edge 58, Type (0, 0), BuildingBlock: XIVTED_clean_linker_0, # of connection points: 2
#     Edge 59, Type (0, 0), BuildingBlock: XIVTED_clean_linker_0, # of connection points: 2
#     Edge 60, Type (0, 0), BuildingBlock: XIVTED_clean_linker_0, # of connection points: 2
#     Edge 61, Type (0, 0), BuildingBlock: XIVTED_clean_linker_0, # of connection points: 2
#     Edge 62, Type (0, 0), BuildingBlock: XIVTED_clean_linker_0, # of connection points: 2
#     Edge 63, Type (0, 0), BuildingBlock: XIVTED_clean_linker_0, # of connection points: 2
#     Edge 64, Type (0, 0), BuildingBlock: XIVTED_clean_linker_0, # of connection points: 2
#     Edge 65, Type (0, 0), BuildingBlock: XIVTED_clean_linker_0, # of connection points: 2
#     Edge 66, Type (0, 0), BuildingBlock: XIVTED_clean_linker_0, # of connection points: 2
#     Edge 67, Type (0, 0), BuildingBlock: XIVTED_clean_linker_0, # of connection points: 2
#     Edge 68, Type (0, 0), BuildingBlock: XIVTED_clean_linker_0, # of connection points: 2
#     Edge 69, Type (0, 0), BuildingBlock: XIVTED_clean_linker_0, # of connection points: 2
#     Edge 70, Type (0, 0), BuildingBlock: XIVTED_clean_linker_0, # of connection points: 2
#     Edge 71, Type (0, 0), BuildingBlock: XIVTED_clean_linker_0, # of connection points: 2
#     Edge 72, Type (0, 0), BuildingBlock: XIVTED_clean_linker_0, # of connection points: 2
#     Edge 73, Type (0, 0), BuildingBlock: XIVTED_clean_linker_0, # of connection points: 2
#     Edge 74, Type (0, 0), BuildingBlock: XIVTED_clean_linker_0, # of connection points: 2
#     Edge 75, Type (0, 0), BuildingBlock: XIVTED_clean_linker_0, # of connection points: 2
#     Edge 76, Type (0, 0), BuildingBlock: XIVTED_clean_linker_0, # of connection points: 2
#     Edge 77, Type (0, 0), BuildingBlock: XIVTED_clean_linker_0, # of connection points: 2
#     Edge 78, Type (0, 0), BuildingBlock: XIVTED_clean_linker_0, # of connection points: 2
#     Edge 79, Type (0, 0), BuildingBlock: XIVTED_clean_linker_0, # of connection points: 2
#     Edge 80, Type (0, 0), BuildingBlock: XIVTED_clean_linker_0, # of connection points: 2
#     Edge 81, Type (0, 0), BuildingBlock: XIVTED_clean_linker_0, # of connection points: 2
#     Edge 82, Type (0, 0), BuildingBlock: XIVTED_clean_linker_0, # of connection points: 2
#     Edge 83, Type (0, 0), BuildingBlock: XIVTED_clean_linker_0, # of connection points: 2
#     Edge 84, Type (0, 0), BuildingBlock: XIVTED_clean_linker_0, # of connection points: 2
#     Edge 85, Type (0, 0), BuildingBlock: XIVTED_clean_linker_0, # of connection points: 2
#     Edge 86, Type (0, 0), BuildingBlock: XIVTED_clean_linker_0, # of connection points: 2
#     Edge 87, Type (0, 0), BuildingBlock: XIVTED_clean_linker_0, # of connection points: 2
#     Edge 88, Type (0, 0), BuildingBlock: XIVTED_clean_linker_0, # of connection points: 2
#     Edge 89, Type (0, 0), BuildingBlock: XIVTED_clean_linker_0, # of connection points: 2
#     Edge 90, Type (0, 0), BuildingBlock: XIVTED_clean_linker_0, # of connection points: 2
#     Edge 91, Type (0, 0), BuildingBlock: XIVTED_clean_linker_0, # of connection points: 2
#     Edge 92, Type (0, 0), BuildingBlock: XIVTED_clean_linker_0, # of connection points: 2
#     Edge 93, Type (0, 0), BuildingBlock: XIVTED_clean_linker_0, # of connection points: 2
#     Edge 94, Type (0, 0), BuildingBlock: XIVTED_clean_linker_0, # of connection points: 2
#     Edge 95, Type (0, 0), BuildingBlock: XIVTED_clean_linker_0, # of connection points: 2
#     Edge 96, Type (0, 0), BuildingBlock: XIVTED_clean_linker_0, # of connection points: 2
#     Edge 97, Type (0, 0), BuildingBlock: XIVTED_clean_linker_0, # of connection points: 2
#     Edge 98, Type (0, 0), BuildingBlock: XIVTED_clean_linker_0, # of connection points: 2
#     Edge 99, Type (0, 0), BuildingBlock: XIVTED_clean_linker_0, # of connection points: 2
#     Edge 100, Type (0, 0), BuildingBlock: XIVTED_clean_linker_0, # of connection points: 2
#     Edge 101, Type (0, 0), BuildingBlock: XIVTED_clean_linker_0, # of connection points: 2
#     Edge 102, Type (0, 0), BuildingBlock: XIVTED_clean_linker_0, # of connection points: 2
#     Edge 103, Type (0, 0), BuildingBlock: XIVTED_clean_linker_0, # of connection points: 2
#     Edge 104, Type (0, 0), BuildingBlock: XIVTED_clean_linker_0, # of connection points: 2
#     Edge 105, Type (0, 0), BuildingBlock: XIVTED_clean_linker_0, # of connection points: 2
#     Edge 106, Type (0, 0), BuildingBlock: XIVTED_clean_linker_0, # of connection points: 2
#     Edge 107, Type (0, 0), BuildingBlock: XIVTED_clean_linker_0, # of connection points: 2
#     Edge 108, Type (0, 0), BuildingBlock: XIVTED_clean_linker_0, # of connection points: 2
#     Edge 109, Type (0, 0), BuildingBlock: XIVTED_clean_linker_0, # of connection points: 2
#     Edge 110, Type (0, 0), BuildingBlock: XIVTED_clean_linker_0, # of connection points: 2
#     Edge 111, Type (0, 0), BuildingBlock: XIVTED_clean_linker_0, # of connection points: 2
#     Edge 112, Type (0, 0), BuildingBlock: XIVTED_clean_linker_0, # of connection points: 2
#     Edge 113, Type (0, 0), BuildingBlock: XIVTED_clean_linker_0, # of connection points: 2
#     Edge 114, Type (0, 0), BuildingBlock: XIVTED_clean_linker_0, # of connection points: 2
#     Edge 115, Type (0, 0), BuildingBlock: XIVTED_clean_linker_0, # of connection points: 2
#     Edge 116, Type (0, 0), BuildingBlock: XIVTED_clean_linker_0, # of connection points: 2
#     Edge 117, Type (0, 0), BuildingBlock: XIVTED_clean_linker_0, # of connection points: 2
#     Edge 118, Type (0, 0), BuildingBlock: XIVTED_clean_linker_0, # of connection points: 2
#     Edge 119, Type (0, 0), BuildingBlock: XIVTED_clean_linker_0, # of connection points: 2
#     Edge 120, Type (0, 0), BuildingBlock: XIVTED_clean_linker_0, # of connection points: 2
#     Edge 121, Type (0, 0), BuildingBlock: XIVTED_clean_linker_0, # of connection points: 2
#     Edge 122, Type (0, 0), BuildingBlock: XIVTED_clean_linker_0, # of connection points: 2
#     Edge 123, Type (0, 0), BuildingBlock: XIVTED_clean_linker_0, # of connection points: 2
#     Edge 124, Type (0, 0), BuildingBlock: XIVTED_clean_linker_0, # of connection points: 2
#     Edge 125, Type (0, 0), BuildingBlock: XIVTED_clean_linker_0, # of connection points: 2
#     Edge 126, Type (0, 0), BuildingBlock: XIVTED_clean_linker_0, # of connection points: 2
#     Edge 127, Type (0, 0), BuildingBlock: XIVTED_clean_linker_0, # of connection points: 2
# Relax obj value: 0.207
# Max RMSD: 0.217
# Mean RMSD: 0.217
data_MOF--net-wio--node1-BETDEL_clean_sbu_0--edge1-XIVTED_clean_linker_0
_symmetry_space_group_name_H-M    P1
_symmetry_Int_Tables_number       1
_symmetry_cell_setting            triclinic
loop_
_symmetry_equiv_pos_as_xyz
'x, y, z'
_cell_length_a     52.920228
_cell_length_b     52.772675
_cell_length_c     44.943436
_cell_angle_alpha  89.940578
_cell_angle_beta   90.013267
_cell_angle_gamma 89.968382
loop_
_atom_site_label
_atom_site_type_symbol
_atom_site_fract_x
_atom_site_fract_y
_atom_site_fract_z
_atom_type_partial_charge
Dy0 Dy 0.16917 0.12078 0.30626 0.0
C1 C 0.06409 0.13633 0.34318 0.0
C2 C 0.21305 0.11131 0.27506 0.0
Dy3 Dy 0.11206 0.12508 0.32591 0.0
O4 O 0.20425 0.13361 0.28179 0.0
O5 O 0.19831 0.09408 0.2864 0.0
O6 O 0.17787 0.15216 0.33875 0.0
O7 O 0.14268 0.1513 0.31714 0.0
C8 C 0.15565 0.16259 0.33645 0.0
C9 C 0.12895 0.07841 0.31677 0.0
O10 O 0.10761 0.13504 0.27786 0.0
O11 O 0.14958 0.12957 0.26277 0.0
O12 O 0.07019 0.12106 0.32169 0.0
O13 O 0.08438 0.14634 0.3547 0.0
O14 O 0.11068 0.08349 0.33504 0.0
O15 O 0.13527 0.09789 0.30246 0.0
O16 O 0.16923 0.09911 0.34974 0.0
O17 O 0.1329 0.11798 0.3689 0.0
C18 C 0.12539 0.1345 0.25705 0.0
C19 C 0.15297 0.10296 0.37199 0.0
Dy20 Dy 0.12267 0.92253 0.55647 0.0
C21 C 0.10929 0.81649 0.59013 0.0
C22 C 0.13491 0.96727 0.5279 0.0
Dy23 Dy 0.11638 0.86415 0.5675 0.0
O24 O 0.11404 0.96308 0.54246 0.0
O25 O 0.14923 0.94738 0.52998 0.0
O26 O 0.09323 0.92961 0.59145 0.0
O27 O 0.09122 0.89655 0.5652 0.0
C28 C 0.08174 0.90808 0.58708 0.0
C29 C 0.15703 0.87818 0.53703 0.0
O30 O 0.09576 0.8664 0.52411 0.0
O31 O 0.11174 0.90617 0.51199 0.0
O32 O 0.12217 0.82213 0.56652 0.0
O33 O 0.09922 0.837 0.60107 0.0
O34 O 0.14637 0.85624 0.5338 0.0
O35 O 0.14719 0.88981 0.55843 0.0
O36 O 0.14701 0.91937 0.59761 0.0
O37 O 0.13502 0.87809 0.61001 0.0
C38 C 0.10067 0.88451 0.50439 0.0
C39 C 0.14727 0.89958 0.61613 0.0
Dy40 Dy 0.32502 0.87679 0.80681 0.0
C41 C 0.43019 0.86777 0.84635 0.0
C42 C 0.28092 0.8836 0.77516 0.0
Dy43 Dy 0.38164 0.87566 0.8284 0.0
O44 O 0.29151 0.86192 0.78103 0.0
O45 O 0.29407 0.90164 0.78744 0.0
O46 O 0.31724 0.84485 0.83871 0.0
O47 O 0.3529 0.84767 0.81835 0.0
C48 C 0.34001 0.83561 0.83711 0.0
C49 C 0.36211 0.92139 0.82004 0.0
O50 O 0.38776 0.8668 0.78027 0.0
O51 O 0.34593 0.86989 0.76384 0.0
O52 O 0.42316 0.88287 0.82507 0.0
O53 O 0.41059 0.85604 0.85731 0.0
O54 O 0.38011 0.91688 0.83888 0.0
O55 O 0.35741 0.90203 0.80465 0.0
O56 O 0.32265 0.89755 0.85063 0.0
O57 O 0.35948 0.88055 0.87088 0.0
C58 C 0.37048 0.86653 0.75888 0.0
C59 C 0.33842 0.8942 0.87346 0.0
Dy60 Dy 0.37125 0.07424 0.05354 0.0
C61 C 0.37621 0.17935 0.09492 0.0
C62 C 0.35558 0.03033 0.02653 0.0
Dy63 Dy 0.37529 0.13252 0.06974 0.0
O64 O 0.36916 0.03124 0.05084 0.0
O65 O 0.35032 0.05321 1.01786 0.0
O66 O 0.41371 0.07069 0.05763 0.0
O67 O 0.39445 0.09792 0.0825 0.0
C68 C 0.41597 0.09017 0.07514 0.0
C69 C 0.33923 0.1193 0.03141 0.0
O70 O 0.39932 0.13152 0.0288 0.0
O71 O 0.38319 0.09337 1.01087 0.0
O72 O 0.35644 0.16803 0.08434 0.0
O73 O 0.39615 0.16501 0.09187 0.0
O74 O 0.35033 0.14121 0.03084 0.0
O75 O 0.34655 0.10687 0.05362 0.0
O76 O 0.34728 0.07482 0.09566 0.0
O77 O 0.35581 0.11663 0.10997 0.0
C78 C 0.39537 0.11512 1.00687 0.0
C79 C 0.34498 0.09423 0.11464 0.0
Dy80 Dy 0.17778 0.87613 0.23819 0.0
C81 C 0.07129 0.86713 0.20523 0.0
C82 C 0.22252 0.88683 0.26727 0.0
Dy83 Dy 0.11915 0.87261 0.22696 0.0
O84 O 0.21663 0.86506 0.25552 0.0
O85 O 0.20445 0.90283 0.2619 0.0
O86 O 0.18363 0.84587 0.20375 0.0
O87 O 0.15036 0.84591 0.22967 0.0
C88 C 0.16151 0.83557 0.20806 0.0
C89 C 0.13571 0.91248 0.2571 0.0
O90 O 0.12053 0.85143 0.26991 0.0
O91 O 0.16 0.86735 0.28288 0.0
O92 O 0.07798 0.88212 0.22665 0.0
O93 O 0.09081 0.85434 0.19591 0.0
O94 O 0.11333 0.90307 0.26121 0.0
O95 O 0.14641 0.90194 0.23561 0.0
O96 O 0.17545 0.90007 0.1964 0.0
O97 O 0.13399 0.88918 0.18379 0.0
C98 C 0.13806 0.85665 0.29011 0.0
C99 C 0.15584 0.90063 0.17765 0.0
Dy100 Dy 0.37502 0.92555 0.49127 0.0
C101 C 0.38968 0.82045 0.45541 0.0
C102 C 0.36067 0.96866 0.52169 0.0
Dy103 Dy 0.38176 0.86782 0.47801 0.0
O104 O 0.37907 0.96744 0.50244 0.0
O105 O 0.34989 0.94664 0.52343 0.0
O106 O 0.40685 0.9338 0.45943 0.0
O107 O 0.40679 0.89984 0.48401 0.0
C108 C 0.41781 0.91197 0.46372 0.0
C109 C 0.33909 0.88105 0.50543 0.0
O110 O 0.40142 0.86864 0.52181 0.0
O111 O 0.38623 0.90839 0.53556 0.0
O112 O 0.37603 0.82587 0.47846 0.0
O113 O 0.39995 0.84105 0.44495 0.0
O114 O 0.34986 0.85918 0.5089 0.0
O115 O 0.35036 0.89331 0.48558 0.0
O116 O 0.35182 0.92291 0.44887 0.0
O117 O 0.36654 0.88313 0.43438 0.0
C118 C 0.39694 0.88627 0.54213 0.0
C119 C 0.35349 0.90424 0.42887 0.0
Dy120 Dy 0.32382 0.12594 0.74205 0.0
C121 C 0.42917 0.13133 0.70399 0.0
C122 C 0.27949 0.11507 0.77185 0.0
Dy123 Dy 0.38183 0.12766 0.72777 0.0
O124 O 0.2837 0.13554 0.75638 0.0
O125 O 0.29918 0.10048 0.77019 0.0
O126 O 0.31733 0.15669 0.70853 0.0
O127 O 0.35173 0.15556 0.73238 0.0
C128 C 0.33986 0.16636 0.71153 0.0
C129 C 0.36478 0.08786 0.75785 0.0
O130 O 0.38328 0.14767 0.77122 0.0
O131 O 0.34273 0.13579 0.78605 0.0
O132 O 0.42204 0.11512 0.72396 0.0
O133 O 0.41041 0.14627 0.69722 0.0
O134 O 0.38743 0.09667 0.76159 0.0
O135 O 0.35391 0.09905 0.73695 0.0
O136 O 0.32436 0.10206 0.69998 0.0
O137 O 0.36496 0.11342 0.68471 0.0
C138 C 0.36578 0.1446 0.79203 0.0
C139 C 0.3429 0.10205 0.67976 0.0
Dy140 Dy 0.12093 0.07776 0.98918 0.0
C141 C 0.10838 0.18316 0.95262 0.0
C142 C 0.13432 0.03422 1.01952 0.0
Dy143 Dy 0.11532 0.13546 0.97503 0.0
O144 O 0.11593 0.03597 1.00032 0.0
O145 O 0.14562 0.05598 1.02131 0.0
O146 O 0.08916 0.06963 0.95747 0.0
O147 O 0.08949 0.10398 0.98135 0.0
C148 C 0.07846 0.09165 0.96117 0.0
C149 C 0.15841 0.12151 1.00154 0.0
O150 O 0.09617 0.1354 1.0192 0.0
O151 O 0.11038 0.09535 0.03329 0.0
O152 O 0.12162 0.17733 0.97587 0.0
O153 O 0.09796 0.16279 0.94177 0.0
O154 O 0.14813 0.14362 1.00491 0.0
O155 O 0.14618 0.10935 0.98248 0.0
O156 O 0.14426 0.07977 0.94686 0.0
O157 O 0.13004 0.11952 0.93146 0.0
C158 C 0.10027 0.11775 0.03966 0.0
C159 C 0.14286 0.09818 0.92644 0.0
Dy160 Dy 0.88529 0.86506 0.73189 0.0
C161 C 0.78436 0.8856 0.77682 0.0
C162 C 0.93184 0.85692 0.70728 0.0
Dy163 Dy 0.82768 0.87241 0.74615 0.0
O164 O 0.92726 0.86993 0.73111 0.0
O165 O 0.91084 0.84731 0.69719 0.0
O166 O 0.89504 0.89549 0.76437 0.0
O167 O 0.86048 0.8965 0.74177 0.0
C168 C 0.8732 0.90647 0.7622 0.0
C169 C 0.84053 0.8305 0.71616 0.0
O170 O 0.83002 0.89692 0.70492 0.0
O171 O 0.86987 0.88307 0.68964 0.0
O172 O 0.78652 0.86627 0.759 0.0
O173 O 0.80557 0.89793 0.77705 0.0
O174 O 0.81899 0.84208 0.71249 0.0
O175 O 0.85281 0.8405 0.73702 0.0
O176 O 0.88439 0.84429 0.77523 0.0
O177 O 0.84552 0.86086 0.78971 0.0
C178 C 0.84868 0.89621 0.68493 0.0
C179 C 0.86728 0.84941 0.79599 0.0
Dy180 Dy 0.88114 0.13288 0.48275 0.0
C181 C 0.86441 0.03044 0.52616 0.0
C182 C 0.88711 0.18016 0.45877 0.0
Dy183 Dy 0.87493 0.07493 0.49618 0.0
O184 O 0.87455 0.17475 0.48267 0.0
O185 O 0.89749 0.15964 0.44824 0.0
O186 O 0.85237 0.14172 0.51745 0.0
O187 O 0.85033 0.10764 0.49396 0.0
C188 C 0.84115 0.11997 0.51524 0.0
C189 C 0.91479 0.08857 0.46332 0.0
O190 O 0.84928 0.07743 0.4561 0.0
O191 O 0.8621 0.1178 0.44108 0.0
O192 O 0.88474 0.03486 0.51071 0.0
O193 O 0.84957 0.04998 0.52427 0.0
O194 O 0.90309 0.06704 0.45988 0.0
O195 O 0.90604 0.10042 0.48531 0.0
O196 O 0.90365 0.13152 0.5247 0.0
O197 O 0.88717 0.09263 0.53951 0.0
C198 C 0.84918 0.09646 0.43651 0.0
C199 C 0.89904 0.11425 0.54549 0.0
Dy200 Dy 0.61669 0.12847 0.22197 0.0
C201 C 0.71428 0.11492 0.27955 0.0
C202 C 0.57433 0.1278 0.18743 0.0
Dy203 Dy 0.67242 0.12556 0.24504 0.0
O204 O 0.58865 0.10858 0.19346 0.0
O205 O 0.58284 0.14806 0.20079 0.0
O206 O 0.60541 0.09934 0.25523 0.0
O207 O 0.64207 0.09903 0.2373 0.0
C208 C 0.62784 0.08944 0.25663 0.0
C209 C 0.66043 0.16613 0.21199 0.0
O210 O 0.67403 0.09944 0.20516 0.0
O211 O 0.64012 0.11853 0.18164 0.0
O212 O 0.71331 0.13194 0.25857 0.0
O213 O 0.69256 0.1036 0.28122 0.0
O214 O 0.68296 0.15618 0.21229 0.0
O215 O 0.64657 0.15546 0.23089 0.0
O216 O 0.60962 0.14576 0.26649 0.0
O217 O 0.65014 0.13805 0.28556 0.0
C218 C 0.65944 0.10248 0.18124 0.0
C219 C 0.62608 0.14503 0.28885 0.0
Dy220 Dy 0.6184 0.86639 0.97746 0.0
C221 C 0.63872 0.96588 0.0268 0.0
C222 C 0.61095 0.81989 0.95231 0.0
Dy223 Dy 0.62516 0.9234 0.9946 0.0
O224 O 0.62383 0.82444 0.97621 0.0
O225 O 0.60113 0.8409 0.94233 0.0
O226 O 0.64976 0.85603 1.00838 0.0
O227 O 0.64979 0.89132 0.98757 0.0
C228 C 0.66065 0.87797 1.00676 0.0
C229 C 0.58286 0.91133 0.96497 0.0
O230 O 0.64986 0.92182 0.95324 0.0
O231 O 0.63431 0.88349 0.93518 0.0
O232 O 0.62223 0.96548 1.00525 0.0
O233 O 0.648 0.94329 0.0301 0.0
O234 O 0.59389 0.93329 0.96254 0.0
O235 O 0.59344 0.89829 0.9848 0.0
O236 O 0.59793 0.86543 1.02066 0.0
O237 O 0.61324 0.90424 0.03755 0.0
C238 C 0.64814 0.90438 0.93175 0.0
C239 C 0.60237 0.88187 0.04232 0.0
Dy240 Dy 0.87875 0.13235 0.82141 0.0
C241 C 0.77867 0.11108 0.77444 0.0
C242 C 0.9253 0.14119 0.84571 0.0
Dy243 Dy 0.82152 0.12416 0.80624 0.0
O244 O 0.92084 0.12869 0.82148 0.0
O245 O 0.90414 0.1499 0.85645 0.0
O246 O 0.8892 0.10116 0.79032 0.0
O247 O 0.85443 0.1003 0.81212 0.0
C248 C 0.86762 0.08972 0.79257 0.0
C249 C 0.83367 0.1667 0.8355 0.0
O250 O 0.82379 0.10009 0.84795 0.0
O251 O 0.86295 0.11525 0.86395 0.0
O252 O 0.78056 0.13034 0.79243 0.0
O253 O 0.79984 0.09866 0.77482 0.0
O254 O 0.81223 0.15497 0.83923 0.0
O255 O 0.84616 0.15644 0.81501 0.0
O256 O 0.87796 0.15291 0.778 0.0
O257 O 0.84016 0.13467 0.76276 0.0
C258 C 0.84207 0.10159 0.86842 0.0
C259 C 0.86164 0.14672 0.75682 0.0
Dy260 Dy 0.6156 0.13326 0.56865 0.0
C261 C 0.63568 0.03324 0.52001 0.0
C262 C 0.60803 0.1797 0.59413 0.0
Dy263 Dy 0.62259 0.07617 0.55166 0.0
O264 O 0.62092 0.17526 0.5702 0.0
O265 O 0.59826 0.15862 0.60393 0.0
O266 O 0.64689 0.14362 0.53754 0.0
O267 O 0.64694 0.10839 0.55844 0.0
C268 C 0.65774 0.12165 0.53913 0.0
C269 C 0.58071 0.08787 0.58212 0.0
O270 O 0.64725 0.07769 0.59313 0.0
O271 O 0.63207 0.11634 0.61081 0.0
O272 O 0.61799 0.03445 0.54011 0.0
O273 O 0.64645 0.05526 0.5179 0.0
O274 O 0.5921 0.06607 0.58432 0.0
O275 O 0.59071 0.10111 0.562 0.0
O276 O 0.59521 0.13405 0.52528 0.0
O277 O 0.61057 0.09515 0.50865 0.0
C278 C 0.64573 0.09532 0.61443 0.0
C279 C 0.59962 0.11747 0.50372 0.0
Dy280 Dy 0.61471 0.86565 0.3205 0.0
C281 C 0.71482 0.88462 0.27247 0.0
C282 C 0.56795 0.85894 0.3451 0.0
Dy283 Dy 0.67176 0.87196 0.30386 0.0
O284 O 0.57287 0.8712 0.32081 0.0
O285 O 0.58874 0.84927 0.35578 0.0
O286 O 0.60483 0.89686 0.28909 0.0
O287 O 0.63982 0.89684 0.31034 0.0
C288 C 0.62675 0.90767 0.29087 0.0
C289 C 0.65917 0.83 0.33391 0.0
O290 O 0.67053 0.89649 0.3453 0.0
O291 O 0.63155 0.88213 0.36269 0.0
O292 O 0.71289 0.8658 0.2911 0.0
O293 O 0.69348 0.89674 0.27173 0.0
O294 O 0.68097 0.8412 0.33683 0.0
O295 O 0.64642 0.84037 0.31369 0.0
O296 O 0.61403 0.84509 0.27729 0.0
O297 O 0.65273 0.86073 0.2607 0.0
C298 C 0.65274 0.89542 0.36638 0.0
C299 C 0.6305 0.84976 0.25575 0.0
Dy300 Dy 0.88353 0.86617 0.07134 0.0
C301 C 0.86362 0.96761 0.02652 0.0
C302 C 0.89045 0.81906 0.09546 0.0
Dy303 Dy 0.87601 0.92384 0.0571 0.0
O304 O 0.87795 0.82418 0.07141 0.0
O305 O 0.90029 0.83982 0.10606 0.0
O306 O 0.85445 0.85642 0.03729 0.0
O307 O 0.85214 0.89075 0.06034 0.0
C308 C 0.84302 0.87806 0.03933 0.0
C309 C 0.91691 0.9114 0.08903 0.0
O310 O 0.85082 0.92117 0.09763 0.0
O311 O 0.86484 0.88134 0.11316 0.0
O312 O 0.88369 0.9645 0.0429 0.0
O313 O 0.8501 0.94713 0.02774 0.0
O314 O 0.90491 0.9328 0.09224 0.0
O315 O 0.90789 0.89901 0.0676 0.0
O316 O 0.90567 0.86761 0.02909 0.0
O317 O 0.88817 0.90591 1.01381 0.0
C318 C 0.85141 0.9024 0.11757 0.0
C319 C 0.90035 0.88441 1.008 0.0
Dy320 Dy 0.67251 0.62595 0.80402 0.0
C321 C 0.56903 0.6419 0.8444 0.0
C322 C 0.7155 0.61235 0.77292 0.0
Dy323 Dy 0.61564 0.63345 0.82031 0.0
O324 O 0.71398 0.63089 0.79195 0.0
O325 O 0.69378 0.60099 0.77164 0.0
O326 O 0.68215 0.65726 0.83606 0.0
O327 O 0.64764 0.65821 0.81287 0.0
C328 C 0.66056 0.66879 0.83276 0.0
C329 C 0.62707 0.59082 0.79155 0.0
O330 O 0.61546 0.6537 0.77694 0.0
O331 O 0.65359 0.63671 0.76051 0.0
O332 O 0.57368 0.62907 0.82047 0.0
O333 O 0.59003 0.65107 0.85503 0.0
O334 O 0.60531 0.60195 0.78953 0.0
O335 O 0.64022 0.6016 0.81096 0.0
O336 O 0.6707 0.60212 0.84615 0.0
O337 O 0.63206 0.61773 0.86303 0.0
C338 C 0.6316 0.64814 0.75538 0.0
C339 C 0.65292 0.60404 0.86719 0.0
Dy340 Dy 0.62266 0.42704 0.05756 0.0
C341 C 0.61964 0.32073 0.09381 0.0
C342 C 0.6344 0.4705 0.02614 0.0
Dy343 Dy 0.6215 0.36884 0.07179 0.0
O344 O 0.61492 0.46789 0.04367 0.0
O345 O 0.6475 0.44975 0.02668 0.0
O346 O 0.5914 0.43326 0.09055 0.0
O347 O 0.59346 0.39876 0.06694 0.0
C348 C 0.58224 0.41045 0.08754 0.0
C349 C 0.66062 0.38649 0.04119 0.0
O350 O 0.60035 0.36735 0.02925 0.0
O351 O 0.61192 0.40794 1.01389 0.0
O352 O 0.63584 0.32915 0.07461 0.0
O353 O 0.60378 0.33863 0.10094 0.0
O354 O 0.65173 0.36387 0.03713 0.0
O355 O 0.64976 0.39712 0.06247 0.0
O356 O 0.64671 0.42628 0.09953 0.0
O357 O 0.6349 0.38578 0.11508 0.0
C358 C 0.60305 0.38479 1.00826 0.0
C359 C 0.64652 0.40776 0.11989 0.0
Dy360 Dy 0.82306 0.37245 0.30782 0.0
C361 C 0.92785 0.35889 0.34518 0.0
C362 C 0.78033 0.38683 0.27677 0.0
Dy363 Dy 0.88064 0.36588 0.32195 0.0
O364 O 0.78139 0.36834 0.29601 0.0
O365 O 0.80232 0.39759 0.27528 0.0
O366 O 0.81453 0.34167 0.34115 0.0
O367 O 0.84856 0.34078 0.31696 0.0
C368 C 0.83631 0.33049 0.33767 0.0
C369 C 0.86768 0.40725 0.29162 0.0
O370 O 0.87994 0.3449 0.27899 0.0
O371 O 0.8404 0.35987 0.26423 0.0
O372 O 0.92236 0.37232 0.32193 0.0
O373 O 0.90742 0.3483 0.35554 0.0
O374 O 0.88948 0.39628 0.28899 0.0
O375 O 0.8554 0.39707 0.31227 0.0
O376 O 0.82562 0.3971 0.34899 0.0
O377 O 0.86522 0.38287 0.36458 0.0
C378 C 0.8625 0.34897 0.25831 0.0
C379 C 0.84415 0.39614 0.36918 0.0
Dy380 Dy 0.87616 0.57503 0.55651 0.0
C381 C 0.88987 0.67871 0.59806 0.0
C382 C 0.86311 0.53219 0.52473 0.0
Dy383 Dy 0.8824 0.63205 0.57333 0.0
O384 O 0.88126 0.53349 0.54427 0.0
O385 O 0.85191 0.55403 0.52328 0.0
O386 O 0.90717 0.56544 0.58887 0.0
O387 O 0.90783 0.60041 0.56631 0.0
C388 C 0.9183 0.58735 0.58628 0.0
C389 C 0.8403 0.61997 0.54395 0.0
O390 O 0.90254 0.6331 0.52988 0.0
O391 O 0.88735 0.59416 0.51332 0.0
O392 O 0.87682 0.67399 0.57433 0.0
O393 O 0.89976 0.65778 0.60815 0.0
O394 O 0.851 0.642 0.5422 0.0
O395 O 0.85127 0.6069 0.56333 0.0
O396 O 0.85166 0.57622 0.59802 0.0
O397 O 0.86622 0.61512 0.6156 0.0
C398 C 0.89801 0.61658 0.50834 0.0
C399 C 0.85286 0.59394 0.61924 0.0
Dy400 Dy 0.67063 0.37202 0.74509 0.0
C401 C 0.56613 0.36098 0.70597 0.0
C402 C 0.71417 0.38486 0.77539 0.0
Dy403 Dy 0.61326 0.36688 0.72985 0.0
O404 O 0.7121 0.36612 0.75669 0.0
O405 O 0.69271 0.39666 0.77689 0.0
O406 O 0.67898 0.34148 0.71167 0.0
O407 O 0.64462 0.34082 0.73529 0.0
C408 C 0.65706 0.33055 0.71469 0.0
C409 C 0.62666 0.40771 0.76067 0.0
O410 O 0.61278 0.34631 0.77311 0.0
O411 O 0.65239 0.36048 0.78861 0.0
O412 O 0.5718 0.3748 0.7288 0.0
O413 O 0.58632 0.34944 0.69636 0.0
O414 O 0.60459 0.39726 0.76283 0.0
O415 O 0.639 0.39747 0.74012 0.0
O416 O 0.66917 0.39685 0.70394 0.0
O417 O 0.6295 0.38367 0.68754 0.0
C418 C 0.62988 0.35031 0.79417 0.0
C419 C 0.65094 0.39643 0.68339 0.0
Dy420 Dy 0.86932 0.42295 0.99402 0.0
C421 C 0.88137 0.31742 0.95522 0.0
C422 C 0.86173 0.46712 0.02565 0.0
Dy423 Dy 0.87225 0.36584 0.97317 0.0
O424 O 0.88356 0.45713 1.0193 0.0
O425 O 0.84396 0.45335 1.01382 0.0
O426 O 0.90016 0.43167 0.96105 0.0
O427 O 0.89911 0.39599 0.98181 0.0
C428 C 0.91019 0.40918 0.96247 0.0
C429 C 0.82613 0.38363 0.98308 0.0
O430 O 0.88267 0.36052 1.0209 0.0
O431 O 0.87746 0.40232 0.03709 0.0
O432 O 0.86691 0.32398 0.97726 0.0
O433 O 0.89185 0.33746 0.94354 0.0
O434 O 0.83076 0.36544 0.96451 0.0
O435 O 0.84575 0.38941 0.99736 0.0
O436 O 0.8473 0.4239 0.95086 0.0
O437 O 0.86545 0.38752 0.9307 0.0
C438 C 0.88217 0.37791 0.04218 0.0
C439 C 0.85073 0.40789 0.92823 0.0
Dy440 Dy 0.82726 0.62618 0.24574 0.0
C441 C 0.93126 0.63938 0.20572 0.0
C442 C 0.78406 0.61376 0.27712 0.0
Dy443 Dy 0.88456 0.63187 0.23006 0.0
O444 O 0.78588 0.63207 0.25775 0.0
O445 O 0.80557 0.60202 0.27857 0.0
O446 O 0.81877 0.65734 0.21286 0.0
O447 O 0.85311 0.65755 0.2364 0.0
C448 C 0.84068 0.66824 0.21611 0.0
C449 C 0.8718 0.59035 0.26015 0.0
O450 O 0.88504 0.65233 0.27331 0.0
O451 O 0.84586 0.63742 0.28922 0.0
O452 O 0.92641 0.62625 0.2294 0.0
O453 O 0.91045 0.64929 0.19545 0.0
O454 O 0.89388 0.60083 0.26201 0.0
O455 O 0.8591 0.60098 0.24015 0.0
O456 O 0.82855 0.60158 0.20427 0.0
O457 O 0.86819 0.61498 0.18791 0.0
C458 C 0.86823 0.64797 0.29458 0.0
C459 C 0.84681 0.6021 0.1837 0.0
Dy460 Dy 0.62356 0.57514 0.49473 0.0
C461 C 0.61047 0.67905 0.45376 0.0
C462 C 0.63502 0.53153 0.526 0.0
Dy463 Dy 0.61759 0.63235 0.47848 0.0
O464 O 0.61612 0.53418 0.5077 0.0
O465 O 0.6479 0.55244 0.52645 0.0
O466 O 0.59383 0.56623 0.46041 0.0
O467 O 0.59221 0.60058 0.48406 0.0
C468 C 0.58242 0.58797 0.46334 0.0
C469 C 0.65795 0.62024 0.51072 0.0
O470 O 0.59576 0.63265 0.52069 0.0
O471 O 0.61158 0.59409 0.53777 0.0
O472 O 0.62387 0.67415 0.47718 0.0
O473 O 0.6001 0.65829 0.44395 0.0
O474 O 0.647 0.64218 0.5121 0.0
O475 O 0.64849 0.60732 0.49012 0.0
O476 O 0.64897 0.57657 0.45407 0.0
O477 O 0.63535 0.61599 0.43687 0.0
C478 C 0.60032 0.61629 0.54243 0.0
C479 C 0.64857 0.59472 0.43329 0.0
Dy480 Dy 0.38226 0.36956 0.22674 0.0
C481 C 0.27999 0.38715 0.27022 0.0
C482 C 0.42925 0.36089 0.20326 0.0
Dy483 Dy 0.32481 0.37702 0.24099 0.0
O484 O 0.4244 0.37293 0.2277 0.0
O485 O 0.40822 0.35247 0.19187 0.0
O486 O 0.39213 0.4022 0.25618 0.0
O487 O 0.35729 0.40123 0.23482 0.0
C488 C 0.37019 0.41292 0.25369 0.0
C489 C 0.33731 0.33508 0.21119 0.0
O490 O 0.32665 0.40031 0.19876 0.0
O491 O 0.36665 0.38647 0.18384 0.0
O492 O 0.28593 0.36579 0.25764 0.0
O493 O 0.29819 0.40324 0.26586 0.0
O494 O 0.31599 0.34702 0.20758 0.0
O495 O 0.34991 0.34474 0.23214 0.0
O496 O 0.38141 0.35113 0.27167 0.0
O497 O 0.3435 0.37007 0.28514 0.0
C498 C 0.3453 0.3993 0.17873 0.0
C499 C 0.36498 0.35855 0.29221 0.0
Dy500 Dy 0.38257 0.63669 0.97784 0.0
C501 C 0.36456 0.53515 1.02291 0.0
C502 C 0.39028 0.6838 0.95438 0.0
Dy503 Dy 0.37659 0.57929 0.993 0.0
O504 O 0.37676 0.67859 0.97759 0.0
O505 O 0.4005 0.66311 0.9441 0.0
O506 O 0.35108 0.64597 1.00889 0.0
O507 O 0.35143 0.61115 0.98685 0.0
C508 C 0.34047 0.62394 1.0065 0.0
C509 C 0.41883 0.59291 0.96428 0.0
O510 O 0.35298 0.58081 0.95077 0.0
O511 O 0.36673 0.6206 0.93496 0.0
O512 O 0.38393 0.53816 1.00539 0.0
O513 O 0.35154 0.556 1.02329 0.0
O514 O 0.40779 0.57112 0.96032 0.0
O515 O 0.40803 0.60513 0.98463 0.0
O516 O 0.40225 0.6369 1.02156 0.0
O517 O 0.38656 0.59781 0.03701 0.0
C518 C 0.35398 0.59919 0.93027 0.0
C519 C 0.39724 0.62011 0.0427 0.0
Dy520 Dy 0.11968 0.62736 0.72727 0.0
C521 C 0.2232 0.61472 0.76771 0.0
C522 C 0.07163 0.63103 0.70536 0.0
Dy523 Dy 0.17845 0.62476 0.73813 0.0
O524 O 0.07902 0.61584 0.72631 0.0
O525 O 0.0905 0.64506 0.69668 0.0
O526 O 0.11473 0.59737 0.76227 0.0
O527 O 0.14752 0.59845 0.73605 0.0
C528 C 0.13713 0.58811 0.7579 0.0
C529 C 0.16137 0.66486 0.70762 0.0
O530 O 0.17623 0.60035 0.69676 0.0
O531 O 0.1348 0.61132 0.68405 0.0
O532 O 0.21791 0.63568 0.75365 0.0
O533 O 0.2045 0.59907 0.76437 0.0
O534 O 0.18367 0.65492 0.70335 0.0
O535 O 0.15054 0.65448 0.72945 0.0
O536 O 0.1206 0.6488 0.77 0.0
O537 O 0.16085 0.63459 0.7826 0.0
C538 C 0.15665 0.59985 0.67796 0.0
C539 C 0.13862 0.64465 0.78996 0.0
Dy540 Dy 0.11647 0.36461 0.47584 0.0
C541 C 0.13623 0.46542 0.5211 0.0
C542 C 0.11005 0.31711 0.45272 0.0
Dy543 Dy 0.1226 0.42226 0.49033 0.0
O544 O 0.12323 0.32281 0.47604 0.0
O545 O 0.09935 0.3375 0.4422 0.0
O546 O 0.14715 0.35566 0.50817 0.0
O547 O 0.14752 0.39007 0.48526 0.0
C548 C 0.15809 0.3775 0.50544 0.0
C549 C 0.08086 0.40889 0.4605 0.0
O550 O 0.14669 0.42043 0.44875 0.0
O551 O 0.1332 0.38048 0.43321 0.0
O552 O 0.11725 0.46374 0.5027 0.0
O553 O 0.14792 0.44382 0.52187 0.0
O554 O 0.0919 0.43079 0.4571 0.0
O555 O 0.09118 0.39657 0.48117 0.0
O556 O 0.09586 0.36495 0.51913 0.0
O557 O 0.11047 0.40467 0.53392 0.0
C558 C 0.14599 0.40191 0.42853 0.0
C559 C 0.09974 0.38245 0.53981 0.0
Dy560 Dy 0.38437 0.63338 0.3201 0.0
C561 C 0.28255 0.61818 0.27448 0.0
C562 C 0.43145 0.63863 0.34424 0.0
Dy563 Dy 0.32671 0.62837 0.30513 0.0
O564 O 0.42567 0.62478 0.32148 0.0
O565 O 0.41141 0.65057 0.35364 0.0
O566 O 0.39329 0.60479 0.28523 0.0
O567 O 0.35876 0.60312 0.30803 0.0
C568 C 0.37125 0.59418 0.28674 0.0
C569 C 0.34064 0.66852 0.33764 0.0
O570 O 0.32823 0.60273 0.34571 0.0
O571 O 0.36835 0.61514 0.36163 0.0
O572 O 0.287 0.63857 0.28991 0.0
O573 O 0.30189 0.60315 0.27672 0.0
O574 O 0.31886 0.6573 0.34076 0.0
O575 O 0.35267 0.65913 0.31619 0.0
O576 O 0.38431 0.65558 0.27801 0.0
O577 O 0.3453 0.64036 0.26185 0.0
C578 C 0.34687 0.60247 0.3658 0.0
C579 C 0.36746 0.65145 0.2567 0.0
Dy580 Dy 0.11742 0.63621 0.06784 0.0
C581 C 0.13568 0.53326 0.02735 0.0
C582 C 0.11025 0.68379 0.09057 0.0
Dy583 Dy 0.12378 0.57793 0.05624 0.0
O584 O 0.12312 0.67823 0.06693 0.0
O585 O 0.10022 0.66323 0.10148 0.0
O586 O 0.14767 0.64443 0.03465 0.0
O587 O 0.14833 0.61054 0.05883 0.0
C588 C 0.15832 0.62244 0.03771 0.0
C589 C 0.08249 0.59237 0.08621 0.0
O590 O 0.14839 0.58105 0.09723 0.0
O591 O 0.13568 0.62189 0.11051 0.0
O592 O 0.11574 0.53692 0.04379 0.0
O593 O 0.14933 0.55367 0.02766 0.0
O594 O 0.09386 0.57079 0.09074 0.0
O595 O 0.09233 0.60389 0.06459 0.0
O596 O 0.09694 0.63433 1.02434 0.0
O597 O 0.11302 0.5947 1.01184 0.0
C598 C 0.14831 0.60052 0.11621 0.0
C599 C 0.10202 0.61647 1.0044 0.0
Dy600 Dy 0.11145 0.37654 0.82591 0.0
C601 C 0.21297 0.38584 0.77422 0.0
C602 C 0.06306 0.36739 0.84368 0.0
Dy603 Dy 0.16872 0.37866 0.80573 0.0
O604 O 0.0697 0.38227 0.82199 0.0
O605 O 0.08299 0.35657 0.85512 0.0
O606 O 0.1114 0.41819 0.83418 0.0
O607 O 0.13556 0.40269 0.80181 0.0
C608 C 0.12982 0.4225 0.81584 0.0
C609 C 0.15393 0.33779 0.83694 0.0
O610 O 0.16957 0.4008 0.84885 0.0
O611 O 0.13273 0.3834 0.86861 0.0
O612 O 0.2028 0.36406 0.78057 0.0
O613 O 0.19938 0.40377 0.78607 0.0
O614 O 0.17653 0.34741 0.83876 0.0
O615 O 0.14127 0.34927 0.81747 0.0
O616 O 0.10649 0.36614 0.77806 0.0
O617 O 0.14848 0.37042 0.76252 0.0
C618 C 0.1533 0.39777 0.87128 0.0
C619 C 0.12413 0.36606 0.75708 0.0
Dy620 Dy 0.38081 0.36639 0.56984 0.0
C621 C 0.36119 0.46781 0.52479 0.0
C622 C 0.38849 0.31949 0.59432 0.0
Dy623 Dy 0.37362 0.42451 0.55642 0.0
O624 O 0.37553 0.32432 0.5705 0.0
O625 O 0.39826 0.34043 0.60451 0.0
O626 O 0.35155 0.35714 0.53577 0.0
O627 O 0.34976 0.39139 0.55908 0.0
C628 C 0.34045 0.37899 0.53796 0.0
C629 C 0.41458 0.41128 0.58785 0.0
O630 O 0.34809 0.42157 0.5968 0.0
O631 O 0.36133 0.3812 0.61144 0.0
O632 O 0.37993 0.46579 0.54347 0.0
O633 O 0.34894 0.44652 0.52438 0.0
O634 O 0.40301 0.4329 0.59132 0.0
O635 O 0.40517 0.39922 0.56642 0.0
O636 O 0.40264 0.3678 0.52729 0.0
O637 O 0.38698 0.4073 0.51319 0.0
C638 C 0.34812 0.40237 0.61624 0.0
C639 C 0.39853 0.38555 0.50688 0.0
H640 H 0.24871 0.1451 0.25662 0.0
H641 H 0.30897 0.05771 0.12945 0.0
H642 H 0.22621 0.06716 0.24602 0.0
H643 H 0.34197 0.12748 0.16099 0.0
H644 H 0.27814 0.05984 0.17059 0.0
H645 H 0.28221 0.13859 0.22002 0.0
C646 C 0.25096 0.12652 0.24674 0.0
C647 C 0.23468 0.10665 0.25455 0.0
C648 C 0.29235 0.0745 0.16857 0.0
C649 C 0.27298 0.09903 0.21191 0.0
C650 C 0.31004 0.07323 0.14514 0.0
C651 C 0.32814 0.09251 0.1414 0.0
C652 C 0.29262 0.09529 0.18824 0.0
C653 C 0.32835 0.11224 0.1625 0.0
C654 C 0.27013 0.12277 0.22577 0.0
C655 C 0.23847 0.08297 0.24081 0.0
N656 N 0.31086 0.11319 0.1846 0.0
N657 N 0.25705 0.07987 0.21997 0.0
H658 H 0.12241 0.10439 0.42141 0.0
H659 H 0.17553 0.97466 0.49126 0.0
H660 H 0.18541 0.0632 0.38431 0.0
H661 H 0.10631 0.01032 0.51954 0.0
H662 H 0.18248 0.00947 0.45602 0.0
H663 H 0.11968 0.07317 0.4614 0.0
C664 C 0.136 0.08904 0.42185 0.0
C665 C 0.15422 0.0866 0.39921 0.0
C666 C 0.16586 0.00982 0.47006 0.0
C667 C 0.1509 0.05029 0.44523 0.0
C668 C 0.16191 0.98997 0.4903 0.0
C669 C 0.14028 0.98953 0.50844 0.0
C670 C 0.14812 0.02958 0.4679 0.0
C671 C 0.12325 0.00986 0.50605 0.0
C672 C 0.13429 0.07107 0.44472 0.0
C673 C 0.17115 0.06609 0.40123 0.0
N674 N 0.12749 0.02896 0.48616 0.0
N675 N 0.16897 0.04871 0.42362 0.0
H676 H 0.24929 0.84726 0.75336 0.0
H677 H 0.17892 0.93772 0.63638 0.0
H678 H 0.26288 0.92772 0.75002 0.0
H679 H 0.15524 0.86134 0.65648 0.0
H680 H 0.20986 0.93507 0.67709 0.0
H681 H 0.21519 0.8524 0.7171 0.0
C682 C 0.24496 0.86607 0.74515 0.0
C683 C 0.25894 0.88708 0.75484 0.0
C684 C 0.1977 0.919 0.67271 0.0
C685 C 0.21995 0.89316 0.71273 0.0
C686 C 0.17996 0.92051 0.64947 0.0
C687 C 0.16433 0.89973 0.64273 0.0
C688 C 0.20009 0.89645 0.68924 0.0
C689 C 0.16678 0.87791 0.66057 0.0
C690 C 0.22545 0.86902 0.72439 0.0
C691 C 0.2525 0.91101 0.74328 0.0
N692 N 0.18435 0.87681 0.68267 0.0
N693 N 0.23364 0.91338 0.72268 0.0
H694 H 0.30553 0.9338 0.88269 0.0
H695 H 0.37424 0.98164 0.03211 0.0
H696 H 0.36556 0.89226 0.92575 0.0
H697 H 0.323 0.02704 0.97989 0.0
H698 H 0.36673 0.94584 0.99811 0.0
H699 H 0.30678 0.96485 0.92296 0.0
C700 C 0.3186 0.93082 0.90091 0.0
C701 C 0.33549 0.91026 0.90062 0.0
C702 C 0.35693 0.96357 0.9943 0.0
C703 C 0.33729 0.94623 0.94689 0.0
C704 C 0.36114 0.98396 1.01379 0.0
C705 C 0.3493 0.00739 1.00878 0.0
C706 C 0.34064 0.9666 0.96975 0.0
C707 C 0.33262 0.00936 0.98455 0.0
C708 C 0.31946 0.94876 0.92385 0.0
C709 C 0.35219 0.90777 0.92486 0.0
N710 N 0.32888 0.98936 0.96597 0.0
N711 N 0.3528 0.92559 0.94682 0.0
H712 H 0.35289 0.86988 0.3831 0.0
H713 H 0.23219 0.92948 0.30007 0.0
H714 H 0.31656 0.93878 0.41214 0.0
H715 H 0.26196 0.85511 0.28161 0.0
H716 H 0.26571 0.9358 0.33709 0.0
H717 H 0.32298 0.86709 0.34199 0.0
C718 C 0.33882 0.88466 0.38073 0.0
C719 C 0.33736 0.9046 0.40145 0.0
C720 C 0.26505 0.91817 0.32481 0.0
C721 C 0.30258 0.9013 0.35394 0.0
C722 C 0.24597 0.91458 0.30354 0.0
C723 C 0.24425 0.89171 0.28762 0.0
C724 C 0.28275 0.89882 0.33022 0.0
C725 C 0.26255 0.87304 0.29327 0.0
C726 C 0.3216 0.88294 0.35717 0.0
C727 C 0.31857 0.92309 0.39684 0.0
N728 N 0.28094 0.87698 0.31406 0.0
N729 N 0.30189 0.92092 0.37375 0.0
H730 H 0.32339 0.97188 0.56365 0.0
H731 H 0.37234 0.10417 0.62975 0.0
H732 H 0.38462 0.01488 0.52562 0.0
H733 H 0.31039 0.0622 0.66796 0.0
H734 H 0.37444 0.07361 0.58914 0.0
H735 H 0.31601 0.0061 0.59944 0.0
C736 C 0.33515 0.98866 0.56262 0.0
C737 C 0.3547 0.99047 0.54156 0.0
C738 C 0.36018 0.07115 0.60618 0.0
C739 C 0.34643 0.02983 0.58281 0.0
C740 C 0.35889 0.0887 0.62945 0.0
C741 C 0.34118 0.08584 0.65255 0.0
C742 C 0.34377 0.05025 0.60583 0.0
C743 C 0.32428 0.06534 0.65067 0.0
C744 C 0.33093 0.00821 0.58314 0.0
C745 C 0.36933 0.01265 0.5414 0.0
N746 N 0.32616 0.04824 0.62795 0.0
N747 N 0.365 0.03134 0.56176 0.0
H748 H 0.14393 0.13128 0.87927 0.0
H749 H 0.27124 0.07446 0.80843 0.0
H750 H 0.18088 0.06413 0.91273 0.0
H751 H 0.23726 0.14473 0.78022 0.0
H752 H 0.23626 0.06807 0.84339 0.0
H753 H 0.17537 0.13388 0.83965 0.0
C754 C 0.15844 0.11682 0.87814 0.0
C755 C 0.15963 0.09744 0.89964 0.0
C756 C 0.23631 0.08481 0.82944 0.0
C757 C 0.19617 0.10056 0.85404 0.0
C758 C 0.25628 0.08845 0.80938 0.0
C759 C 0.25723 0.1102 0.79133 0.0
C760 C 0.21699 0.10303 0.83156 0.0
C761 C 0.23733 0.1277 0.79366 0.0
C762 C 0.17652 0.11842 0.85546 0.0
C763 C 0.17902 0.07935 0.89673 0.0
N764 N 0.21813 0.12378 0.81342 0.0
N765 N 0.19656 0.08146 0.87457 0.0
H766 H 0.19002 0.93837 0.16334 0.0
H767 H 0.10878 0.98895 1.02374 0.0
H768 H 0.12255 0.90182 0.13082 0.0
H769 H 0.17219 0.02936 0.06064 0.0
H770 H 0.11626 0.95454 0.05951 0.0
H771 H 0.18676 0.96925 0.12261 0.0
C772 C 0.17477 0.93653 0.14742 0.0
C773 C 0.15652 0.91738 0.15074 0.0
C774 C 0.12868 0.97084 0.05968 0.0
C775 C 0.15249 0.953 0.10404 0.0
C776 C 0.12444 0.99047 0.03915 0.0
C777 C 0.13984 0.01211 0.03918 0.0
C778 C 0.14852 0.97277 0.08047 0.0
C779 C 0.15981 0.01305 0.05981 0.0
C780 C 0.17281 0.95432 0.12423 0.0
C781 C 0.13704 0.91624 0.12941 0.0
N782 N 0.1635 0.99379 0.07962 0.0
N783 N 0.1355 0.93378 0.10721 0.0
H784 H 0.7798 0.92386 0.81755 0.0
H785 H 0.647 0.87457 0.88181 0.0
H786 H 0.73925 0.85997 0.78179 0.0
H787 H 0.68909 0.93586 0.92146 0.0
H788 H 0.67851 0.87185 0.84233 0.0
H789 H 0.74522 0.93108 0.85285 0.0
C790 C 0.76349 0.91147 0.81693 0.0
C791 C 0.76247 0.89124 0.79663 0.0
C792 C 0.6808 0.88607 0.85947 0.0
C793 C 0.72268 0.89937 0.83726 0.0
C794 C 0.66269 0.88773 0.88209 0.0
C795 C 0.66527 0.90547 0.90527 0.0
C796 C 0.70192 0.90219 0.85978 0.0
C797 C 0.68614 0.92196 0.90412 0.0
C798 C 0.74375 0.91558 0.83717 0.0
C799 C 0.74087 0.87579 0.79698 0.0
N800 N 0.7037 0.91978 0.88197 0.0
N801 N 0.72195 0.88011 0.81699 0.0
H802 H 0.895 0.98901 0.53468 0.0
H803 H 0.81326 0.93279 0.67045 0.0
H804 H 0.82456 0.02164 0.56378 0.0
H805 H 0.88271 0.8994 0.63888 0.0
H806 H 0.81546 0.9638 0.62983 0.0
H807 H 0.88942 0.95464 0.57086 0.0
C808 C 0.87823 0.98881 0.54848 0.0
C809 C 0.86023 0.00826 0.54614 0.0
C810 C 0.8301 0.94954 0.63165 0.0
C811 C 0.85375 0.96897 0.58802 0.0
C812 C 0.82879 0.9317 0.65482 0.0
C813 C 0.84784 0.91333 0.65834 0.0
C814 C 0.85064 0.94917 0.61173 0.0
C815 C 0.86757 0.91314 0.63731 0.0
C816 C 0.87505 0.96919 0.56923 0.0
C817 C 0.83891 0.00704 0.56476 0.0
N818 N 0.86851 0.93079 0.61517 0.0
N819 N 0.83634 0.98788 0.58496 0.0
H820 H 0.7596 0.14017 0.28231 0.0
H821 H 0.81023 0.063 0.42506 0.0
H822 H 0.71819 0.07931 0.3237 0.0
H823 H 0.84739 0.12889 0.38872 0.0
H824 H 0.77863 0.0658 0.38523 0.0
H825 H 0.79392 0.1337 0.31827 0.0
C826 C 0.75781 0.12532 0.29883 0.0
C827 C 0.73595 0.11031 0.30001 0.0
C828 C 0.79383 0.07953 0.38585 0.0
C829 C 0.77522 0.10275 0.34143 0.0
C830 C 0.81202 0.07784 0.40852 0.0
C831 C 0.8316 0.09575 0.41045 0.0
C832 C 0.79518 0.09923 0.36476 0.0
C833 C 0.83266 0.11467 0.38837 0.0
C834 C 0.7774 0.12165 0.31943 0.0
C835 C 0.73467 0.09137 0.32198 0.0
N836 N 0.81474 0.11595 0.36664 0.0
N837 N 0.75394 0.08818 0.34181 0.0
H838 H 0.61846 0.01393 0.02564 0.0
H839 H 0.68824 0.05899 0.17579 0.0
H840 H 0.6719 0.96763 0.0735 0.0
H841 H 0.63407 0.10465 0.12799 0.0
H842 H 0.68542 0.02689 0.13646 0.0
H843 H 0.62639 0.0486 0.06084 0.0
C844 C 0.63201 0.01112 0.04341 0.0
C845 C 0.64449 0.9878 0.0466 0.0
C846 C 0.67437 0.04407 0.13441 0.0
C847 C 0.65365 0.02745 0.08725 0.0
C848 C 0.67612 0.06255 0.15681 0.0
C849 C 0.6614 0.08471 0.15539 0.0
C850 C 0.65773 0.04764 0.11029 0.0
C851 C 0.64581 0.08795 0.13025 0.0
C852 C 0.63653 0.03092 0.06357 0.0
C853 C 0.66182 0.98527 0.07016 0.0
N854 N 0.64428 0.06965 0.10895 0.0
N855 N 0.66579 0.00472 0.08958 0.0
H856 H 0.77491 0.07344 0.7327 0.0
H857 H 0.64434 0.12518 0.66433 0.0
H858 H 0.73388 0.13714 0.76822 0.0
H859 H 0.68631 0.06338 0.62554 0.0
H860 H 0.67504 0.12722 0.70474 0.0
H861 H 0.74128 0.06715 0.69583 0.0
C862 C 0.75869 0.08597 0.73295 0.0
C863 C 0.75726 0.10587 0.75368 0.0
C864 C 0.6775 0.11305 0.68758 0.0
C865 C 0.71857 0.09882 0.71121 0.0
C866 C 0.65985 0.11178 0.6644 0.0
C867 C 0.66259 0.09407 0.64121 0.0
C868 C 0.69835 0.09656 0.68785 0.0
C869 C 0.68322 0.07728 0.64286 0.0
C870 C 0.7395 0.08239 0.7118 0.0
C871 C 0.73581 0.12154 0.75276 0.0
N872 N 0.70034 0.07906 0.66557 0.0
N873 N 0.71744 0.11775 0.73189 0.0
H874 H 0.6717 0.02959 0.47651 0.0
H875 H 0.6231 0.89493 0.41649 0.0
H876 H 0.61185 0.98692 0.51794 0.0
H877 H 0.68447 0.93624 0.37601 0.0
H878 H 0.62087 0.92687 0.45567 0.0
H879 H 0.67852 0.99461 0.44156 0.0
C880 C 0.66011 0.01275 0.47842 0.0
C881 C 0.64113 0.01124 0.50022 0.0
C882 C 0.63501 0.92888 0.43842 0.0
C883 C 0.64876 0.97098 0.45998 0.0
C884 C 0.63638 0.91053 0.41598 0.0
C885 C 0.65401 0.91276 0.39268 0.0
C886 C 0.65127 0.94992 0.43772 0.0
C887 C 0.67065 0.93354 0.39347 0.0
C888 C 0.66401 0.99276 0.4584 0.0
C889 C 0.62669 0.98894 0.50154 0.0
N890 N 0.66872 0.95136 0.41539 0.0
N891 N 0.63071 0.96981 0.48166 0.0
H892 H 0.85067 0.87015 0.16551 0.0
H893 H 0.71965 0.92255 0.23126 0.0
H894 H 0.8118 0.93515 0.12936 0.0
H895 H 0.75964 0.85849 0.26773 0.0
H896 H 0.75428 0.92918 0.19586 0.0
H897 H 0.81907 0.86753 0.20494 0.0
C898 C 0.83565 0.88409 0.16597 0.0
C899 C 0.83402 0.9029 0.14383 0.0
C900 C 0.75562 0.91377 0.21171 0.0
C901 C 0.79728 0.89976 0.18921 0.0
C902 C 0.73584 0.90999 0.232 0.0
C903 C 0.7367 0.8899 0.25253 0.0
C904 C 0.77652 0.8973 0.21177 0.0
C905 C 0.75815 0.87422 0.25235 0.0
C906 C 0.81751 0.88252 0.18857 0.0
C907 C 0.814 0.92038 0.14588 0.0
N908 N 0.77708 0.87817 0.23225 0.0
N909 N 0.79637 0.91826 0.16795 0.0
H910 H 0.80878 0.06275 0.88164 0.0
H911 H 0.89143 0.01116 1.01932 0.0
H912 H 0.87487 0.10073 0.91581 0.0
H913 H 0.82416 0.97392 0.98767 0.0
H914 H 0.88412 0.04544 0.9834 0.0
H915 H 0.81225 0.03167 0.92209 0.0
C916 C 0.82378 0.06485 0.89784 0.0
C917 C 0.84156 0.08452 0.89508 0.0
C918 C 0.87082 0.02988 0.98441 0.0
C919 C 0.84587 0.04859 0.94145 0.0
C920 C 0.87499 0.01031 1.005 0.0
C921 C 0.8584 0.98961 1.00656 0.0
C922 C 0.84994 0.02879 0.965 0.0
C923 C 0.83744 0.98951 0.9873 0.0
C924 C 0.82585 0.04695 0.92089 0.0
C925 C 0.86072 0.08595 0.91678 0.0
N926 N 0.8339 0.00865 0.96729 0.0
N927 N 0.86243 0.06823 0.93878 0.0
H928 H 0.71936 0.57535 0.73046 0.0
H929 H 0.85364 0.62352 0.6694 0.0
H930 H 0.76145 0.63662 0.76986 0.0
H931 H 0.81184 0.56245 0.62888 0.0
H932 H 0.82179 0.62606 0.70856 0.0
H933 H 0.75419 0.56816 0.69547 0.0
C934 C 0.73604 0.58717 0.73193 0.0
C935 C 0.73743 0.60665 0.75317 0.0
C936 C 0.81964 0.61192 0.69131 0.0
C937 C 0.77752 0.59858 0.7129 0.0
C938 C 0.83794 0.61036 0.66888 0.0
C939 C 0.83556 0.59273 0.64557 0.0
C940 C 0.79849 0.59584 0.69062 0.0
C941 C 0.81466 0.57626 0.64636 0.0
C942 C 0.75594 0.58306 0.71188 0.0
C943 C 0.75952 0.62138 0.75392 0.0
N944 N 0.7969 0.57836 0.66829 0.0
N945 N 0.77857 0.61712 0.73405 0.0
H946 H 0.62209 0.60563 0.91622 0.0
H947 H 0.67329 0.47543 0.9866 0.0
H948 H 0.68488 0.56379 0.87966 0.0
H949 H 0.60735 0.51479 1.01872 0.0
H950 H 0.68024 0.50941 0.95034 0.0
H951 H 0.61921 0.5749 0.95666 0.0
C952 C 0.63554 0.59016 0.91681 0.0
C953 C 0.65376 0.58742 0.89421 0.0
C954 C 0.66434 0.51076 0.96541 0.0
C955 C 0.6503 0.55167 0.94083 0.0
C956 C 0.66037 0.49136 0.98622 0.0
C957 C 0.63966 0.49222 1.00579 0.0
C958 C 0.64751 0.53134 0.96401 0.0
C959 C 0.62355 0.51333 1.00413 0.0
C960 C 0.63378 0.57249 0.93998 0.0
C961 C 0.67059 0.56686 0.8965 0.0
N962 N 0.62776 0.53195 0.98359 0.0
N963 N 0.66833 0.54974 0.91919 0.0
H964 H 0.64389 0.37862 0.17019 0.0
H965 H 0.77757 0.42435 0.23489 0.0
H966 H 0.68718 0.43938 0.13116 0.0
H967 H 0.73386 0.3635 0.27286 0.0
H968 H 0.74334 0.43259 0.19943 0.0
H969 H 0.67468 0.37571 0.21045 0.0
C970 C 0.65969 0.39166 0.17025 0.0
C971 C 0.66285 0.40926 0.14701 0.0
C972 C 0.74109 0.41756 0.21563 0.0
C973 C 0.69872 0.4057 0.19331 0.0
C974 C 0.76065 0.41284 0.23596 0.0
C975 C 0.75863 0.39315 0.25692 0.0
C976 C 0.71923 0.40244 0.21608 0.0
C977 C 0.73626 0.37887 0.25715 0.0
C978 C 0.67738 0.38989 0.19331 0.0
C979 C 0.68379 0.42561 0.14857 0.0
N980 N 0.71755 0.38371 0.23699 0.0
N981 N 0.70101 0.42326 0.17109 0.0
H982 H 0.826 0.52846 0.48258 0.0
H983 H 0.87558 0.39577 0.41777 0.0
H984 H 0.88784 0.48638 0.5208 0.0
H985 H 0.81209 0.43635 0.38082 0.0
H986 H 0.87842 0.42723 0.45742 0.0
H987 H 0.81895 0.49392 0.44713 0.0
C988 C 0.83799 0.51184 0.48369 0.0
C989 C 0.85758 0.51036 0.50473 0.0
C990 C 0.8637 0.42919 0.44084 0.0
C991 C 0.84968 0.47061 0.4639 0.0
C992 C 0.86199 0.41112 0.41812 0.0
C993 C 0.84355 0.41329 0.39568 0.0
C994 C 0.84698 0.44987 0.44129 0.0
C995 C 0.82654 0.43372 0.39759 0.0
C996 C 0.83395 0.4921 0.46337 0.0
C997 C 0.87251 0.48835 0.50502 0.0
N998 N 0.8288 0.45127 0.41976 0.0
N999 N 0.86835 0.46947 0.48486 0.0
H1000 H 0.76005 0.36032 0.77763 0.0
H1001 H 0.81008 0.43963 0.91845 0.0
H1002 H 0.71902 0.42247 0.81681 0.0
H1003 H 0.85205 0.37881 0.87753 0.0
H1004 H 0.7783 0.43607 0.87905 0.0
H1005 H 0.79528 0.36874 0.81179 0.0
C1006 C 0.75854 0.37587 0.79325 0.0
C1007 C 0.73652 0.39066 0.79437 0.0
C1008 C 0.79464 0.42372 0.87845 0.0
C1009 C 0.77678 0.40041 0.83378 0.0
C1010 C 0.81298 0.4259 0.90088 0.0
C1011 C 0.83392 0.40951 0.90152 0.0
C1012 C 0.79714 0.40498 0.85637 0.0
C1013 C 0.83629 0.39187 0.87818 0.0
C1014 C 0.77866 0.38068 0.8128 0.0
C1015 C 0.73561 0.41054 0.81516 0.0
N1016 N 0.81809 0.38996 0.85682 0.0
N1017 N 0.75532 0.41473 0.83407 0.0
H1018 H 0.80975 0.56731 0.16781 0.0
H1019 H 0.89714 0.50083 0.04514 0.0
H1020 H 0.88186 0.59676 0.13924 0.0
H1021 H 0.81793 0.48321 0.05312 0.0
H1022 H 0.89175 0.53514 0.08115 0.0
H1023 H 0.81181 0.53588 0.12742 0.0
C1024 C 0.82583 0.56747 0.15292 0.0
C1025 C 0.84566 0.58485 0.15721 0.0
C1026 C 0.87544 0.52395 0.07493 0.0
C1027 C 0.84834 0.5485 0.11115 0.0
C1028 C 0.87854 0.50431 0.05432 0.0
C1029 C 0.85796 0.48915 0.04595 0.0
C1030 C 0.85162 0.52839 0.08786 0.0
C1031 C 0.83429 0.49453 0.05878 0.0
C1032 C 0.82702 0.54942 0.12988 0.0
C1033 C 0.86608 0.58385 0.13713 0.0
N1034 N 0.83181 0.51352 0.07926 0.0
N1035 N 0.86696 0.56595 0.11535 0.0
H1036 H 0.73863 0.63901 0.28003 0.0
H1037 H 0.68853 0.56195 0.42317 0.0
H1038 H 0.77955 0.57709 0.32001 0.0
H1039 H 0.64928 0.62542 0.38398 0.0
H1040 H 0.72017 0.56463 0.38332 0.0
H1041 H 0.70414 0.63206 0.31563 0.0
C1042 C 0.74027 0.6238 0.29613 0.0
C1043 C 0.76206 0.60864 0.297 0.0
C1044 C 0.70449 0.57782 0.3833 0.0
C1045 C 0.7226 0.60059 0.33815 0.0
C1046 C 0.68628 0.57618 0.406 0.0
C1047 C 0.66609 0.59349 0.40716 0.0
C1048 C 0.7026 0.5969 0.36146 0.0
C1049 C 0.66447 0.61168 0.38427 0.0
C1050 C 0.72058 0.61985 0.31654 0.0
C1051 C 0.76312 0.58926 0.31848 0.0
N1052 N 0.68245 0.61297 0.36261 0.0
N1053 N 0.74381 0.58587 0.33821 0.0
H1054 H 0.68516 0.43475 0.6717 0.0
H1055 H 0.60768 0.48746 0.53044 0.0
H1056 H 0.61931 0.39809 0.63499 0.0
H1057 H 0.67252 0.52545 0.56747 0.0
H1058 H 0.61373 0.45286 0.56625 0.0
H1059 H 0.68319 0.46613 0.63143 0.0
C1060 C 0.67053 0.433 0.65498 0.0
C1061 C 0.65236 0.41364 0.65696 0.0
C1062 C 0.62677 0.46866 0.56646 0.0
C1063 C 0.64979 0.44987 0.61079 0.0
C1064 C 0.62334 0.48841 0.54593 0.0
C1065 C 0.63959 0.50941 0.54593 0.0
C1066 C 0.64661 0.46985 0.58732 0.0
C1067 C 0.65952 0.50963 0.56664 0.0
C1068 C 0.66931 0.45107 0.63204 0.0
C1069 C 0.63371 0.41264 0.63463 0.0
N1070 N 0.66239 0.49028 0.58653 0.0
N1071 N 0.63285 0.43049 0.61272 0.0
H1072 H 0.18155 0.43821 0.41355 0.0
H1073 H 0.24064 0.35481 0.28126 0.0
H1074 H 0.14971 0.36768 0.38274 0.0
H1075 H 0.26903 0.42861 0.3049 0.0
H1076 H 0.20626 0.36023 0.31716 0.0
H1077 H 0.21247 0.43634 0.37289 0.0
C1078 C 0.18077 0.42251 0.39808 0.0
C1079 C 0.16288 0.40306 0.40183 0.0
C1080 C 0.21985 0.37538 0.3144 0.0
C1081 C 0.19862 0.40063 0.35525 0.0
C1082 C 0.2395 0.37228 0.29381 0.0
C1083 C 0.25776 0.39128 0.29 0.0
C1084 C 0.21844 0.39759 0.33165 0.0
C1085 C 0.25534 0.41349 0.30704 0.0
C1086 C 0.19855 0.42141 0.37488 0.0
C1087 C 0.16307 0.38313 0.38101 0.0
N1088 N 0.2362 0.41596 0.32721 0.0
N1089 N 0.18067 0.38237 0.35891 0.0
H1090 H 0.31084 0.4369 0.16507 0.0
H1091 H 0.39231 0.49132 0.02802 0.0
H1092 H 0.37863 0.40134 0.13185 0.0
H1093 H 0.32581 0.52821 0.06249 0.0
H1094 H 0.38557 0.45635 0.06318 0.0
H1095 H 0.31373 0.46829 0.12499 0.0
C1096 C 0.32611 0.43538 0.14913 0.0
C1097 C 0.34453 0.41632 0.15208 0.0
C1098 C 0.37232 0.47198 0.06295 0.0
C1099 C 0.34815 0.45263 0.10608 0.0
C1100 C 0.37615 0.49195 0.04279 0.0
C1101 C 0.35963 0.51276 0.04229 0.0
C1102 C 0.35182 0.47277 0.0829 0.0
C1103 C 0.33904 0.51256 0.06207 0.0
C1104 C 0.32784 0.45347 0.12629 0.0
C1105 C 0.36399 0.41563 0.13071 0.0
N1106 N 0.3358 0.49301 0.08159 0.0
N1107 N 0.36535 0.43352 0.10886 0.0
H1108 H 0.26345 0.64629 0.77871 0.0
H1109 H 0.31749 0.56372 0.91528 0.0
H1110 H 0.23233 0.57401 0.80415 0.0
H1111 H 0.35207 0.63265 0.88348 0.0
H1112 H 0.28735 0.56588 0.87376 0.0
H1113 H 0.29698 0.64063 0.81585 0.0
C1114 C 0.26382 0.6291 0.79189 0.0
C1115 C 0.24504 0.6106 0.7882 0.0
C1116 C 0.3017 0.5804 0.87573 0.0
C1117 C 0.28334 0.60404 0.83127 0.0
C1118 C 0.31905 0.5791 0.89942 0.0
C1119 C 0.33749 0.59803 0.90315 0.0
C1120 C 0.30262 0.60083 0.85555 0.0
C1121 C 0.33826 0.6176 0.88181 0.0
C1122 C 0.28296 0.62588 0.8132 0.0
C1123 C 0.24644 0.58875 0.80612 0.0
N1124 N 0.32108 0.61856 0.85923 0.0
N1125 N 0.26508 0.58616 0.82693 0.0
H1126 H 0.12422 0.60025 0.63044 0.0
H1127 H 0.17489 0.46973 0.56119 0.0
H1128 H 0.18973 0.5609 0.66416 0.0
H1129 H 0.11075 0.51069 0.52675 0.0
H1130 H 0.18248 0.50411 0.59671 0.0
H1131 H 0.12115 0.56939 0.59024 0.0
C1132 C 0.13821 0.58529 0.62925 0.0
C1133 C 0.15726 0.58327 0.65098 0.0
C1134 C 0.16686 0.50572 0.58126 0.0
C1135 C 0.15357 0.54734 0.60471 0.0
C1136 C 0.16252 0.48609 0.5609 0.0
C1137 C 0.14211 0.48728 0.54092 0.0
C1138 C 0.15063 0.52682 0.58186 0.0
C1139 C 0.12671 0.50894 0.54168 0.0
C1140 C 0.13636 0.56757 0.6062 0.0
C1141 C 0.17479 0.56339 0.64796 0.0
N1142 N 0.13119 0.52772 0.56187 0.0
N1143 N 0.17238 0.54611 0.6255 0.0
H1144 H 0.18418 0.5648 0.13208 0.0
H1145 H 0.24171 0.6493 0.26486 0.0
H1146 H 0.15244 0.63609 0.16061 0.0
H1147 H 0.2734 0.57772 0.23776 0.0
H1148 H 0.20744 0.64346 0.22873 0.0
H1149 H 0.21528 0.56766 0.17245 0.0
C1150 C 0.18347 0.58089 0.14699 0.0
C1151 C 0.16553 0.60023 0.1427 0.0
C1152 C 0.22177 0.62891 0.23078 0.0
C1153 C 0.20147 0.60378 0.18902 0.0
C1154 C 0.24134 0.63224 0.2515 0.0
C1155 C 0.26049 0.61398 0.2544 0.0
C1156 C 0.22129 0.60718 0.21261 0.0
C1157 C 0.25904 0.59228 0.23634 0.0
C1158 C 0.20137 0.58258 0.17002 0.0
C1159 C 0.16584 0.62069 0.1628 0.0
N1160 N 0.23992 0.58955 0.21619 0.0
N1161 N 0.18351 0.62197 0.18483 0.0
H1162 H 0.18647 0.43713 0.88209 0.0
H1163 H 0.10779 0.4895 1.02212 0.0
H1164 H 0.12344 0.39748 0.92137 0.0
H1165 H 0.17447 0.52619 0.98787 0.0
H1166 H 0.11453 0.45456 0.98696 0.0
H1167 H 0.18408 0.46849 0.92219 0.0
C1168 C 0.17246 0.43465 0.89941 0.0
C1169 C 0.15517 0.41443 0.89815 0.0
C1170 C 0.12783 0.47014 0.98726 0.0
C1171 C 0.15201 0.45079 0.9441 0.0
C1172 C 0.12399 0.49009 1.0074 0.0
C1173 C 0.14058 0.51083 1.008 0.0
C1174 C 0.14835 0.47092 0.96731 0.0
C1175 C 0.1612 0.51059 0.98826 0.0
C1176 C 0.17098 0.45274 0.92225 0.0
C1177 C 0.13722 0.41263 0.9212 0.0
N1178 N 0.1644 0.49111 0.96867 0.0
N1179 N 0.13599 0.43059 0.94294 0.0
H1180 H 0.31449 0.43982 0.63427 0.0
H1181 H 0.24561 0.34991 0.75326 0.0
H1182 H 0.34062 0.36493 0.65773 0.0
H1183 H 0.22994 0.42991 0.74784 0.0
H1184 H 0.27969 0.35526 0.71699 0.0
H1185 H 0.28296 0.43708 0.67441 0.0
C1186 C 0.31386 0.42294 0.64795 0.0
C1187 C 0.33042 0.4026 0.64235 0.0
C1188 C 0.26897 0.37174 0.72382 0.0
C1189 C 0.29395 0.39919 0.6882 0.0
C1190 C 0.24947 0.36867 0.74459 0.0
C1191 C 0.23492 0.38948 0.75377 0.0
C1192 C 0.27391 0.3958 0.71157 0.0
C1193 C 0.24077 0.41335 0.74156 0.0
C1194 C 0.29577 0.42137 0.67087 0.0
C1195 C 0.32841 0.38117 0.66092 0.0
N1196 N 0.25964 0.41583 0.72096 0.0
N1197 N 0.31051 0.37999 0.68266 0.0
H1198 H 0.32387 0.47225 0.48283 0.0
H1199 H 0.37779 0.60223 0.41474 0.0
H1200 H 0.38762 0.51253 0.51911 0.0
H1201 H 0.31386 0.56279 0.37739 0.0
H1202 H 0.37954 0.57115 0.45487 0.0
H1203 H 0.31802 0.50626 0.4462 0.0
C1204 C 0.33652 0.48838 0.48329 0.0
C1205 C 0.35629 0.48949 0.50417 0.0
C1206 C 0.36497 0.56932 0.43809 0.0
C1207 C 0.34976 0.52862 0.46194 0.0
C1208 C 0.36389 0.58717 0.41505 0.0
C1209 C 0.34565 0.58526 0.39235 0.0
C1210 C 0.34778 0.54905 0.4387 0.0
C1211 C 0.32819 0.56522 0.39433 0.0
C1212 C 0.33318 0.5078 0.46228 0.0
C1213 C 0.37211 0.51084 0.50353 0.0
N1214 N 0.32981 0.54785 0.41688 0.0
N1215 N 0.36857 0.52942 0.48276 0.0
H1216 H 0.13474 0.27549 0.47265 0.0
H1217 H 0.11335 0.19131 0.32718 0.0
H1218 H 0.09025 0.30233 0.3986 0.0
H1219 H 0.17709 0.18298 0.38618 0.0
H1220 H 0.09892 0.22773 0.35669 0.0
H1221 H 0.14385 0.23671 0.44528 0.0
C1222 C 0.12655 0.27306 0.45074 0.0
C1223 C 0.11183 0.29223 0.43778 0.0
C1224 C 0.11602 0.21789 0.36315 0.0
C1225 C 0.1224 0.24781 0.40619 0.0
C1226 C 0.12425 0.19713 0.3464 0.0
C1227 C 0.14653 0.18427 0.35423 0.0
C1228 C 0.12998 0.22552 0.38814 0.0
C1229 C 0.15992 0.19248 0.3793 0.0
C1230 C 0.13193 0.25095 0.43506 0.0
C1231 C 0.1017 0.288 0.40936 0.0
N1232 N 0.15139 0.21253 0.39541 0.0
N1233 N 0.10728 0.26623 0.39438 0.0
H1234 H 0.06566 0.92611 0.64051 0.0
H1235 H 0.9436 0.83867 0.65153 0.0
H1236 H 0.05092 0.8674 0.57615 0.0
H1237 H 0.97498 0.87943 0.726 0.0
H1238 H 0.98186 0.84861 0.62263 0.0
H1239 H 0.03108 0.90992 0.67111 0.0
C1240 C 0.0551 0.90979 0.63284 0.0
C1241 C 0.06103 0.89814 0.60575 0.0
C1242 C 0.98047 0.85502 0.64545 0.0
C1243 C 0.02132 0.87949 0.64057 0.0
C1244 C 0.95872 0.84926 0.66195 0.0
C1245 C 0.95611 0.85836 0.69111 0.0
C1246 C -0.00057 0.87023 0.65818 0.0
C1247 C 0.97616 0.87214 0.70353 0.0
C1248 C 0.03545 0.90045 0.65037 0.0
C1249 C 0.04685 0.87694 0.59691 0.0
N1250 N 0.99678 0.87792 0.68691 0.0
N1251 N 0.02747 0.8684 0.61416 0.0
H1252 H 0.31885 0.81578 0.88709 0.0
H1253 H 0.41015 0.6973 0.89993 0.0
H1254 H 0.38338 0.80819 0.82919 0.0
H1255 H 0.36661 0.72613 0.97364 0.0
H1256 H 0.40046 0.73629 0.87198 0.0
H1257 H 0.33488 0.78075 0.91732 0.0
C1258 C 0.3364 0.80669 0.88077 0.0
C1259 C 0.34978 0.81473 0.85563 0.0
C1260 C 0.39341 0.73416 0.89446 0.0
C1261 C 0.36819 0.77459 0.88992 0.0
C1262 C 0.399 0.71201 0.9104 0.0
C1263 C 0.38901 0.70848 0.939 0.0
C1264 C 0.37744 0.75251 0.90718 0.0
C1265 C 0.37456 0.72802 0.95155 0.0
C1266 C 0.34564 0.78682 0.8981 0.0
C1267 C 0.37252 0.80244 0.84846 0.0
N1268 N 0.36892 0.749 0.93543 0.0
N1269 N 0.38093 0.78275 0.86537 0.0
H1270 H 0.42226 0.12718 0.11704 0.0
H1271 H 0.56584 0.09133 0.14684 0.0
H1272 H 0.46376 0.07283 0.06471 0.0
H1273 H 0.53251 0.15916 0.18316 0.0
H1274 H 0.52824 0.08468 0.11679 0.0
H1275 H 0.4617 0.13972 0.14156 0.0
C1276 C 0.43974 0.11812 0.11045 0.0
C1277 C 0.43979 0.09894 0.08881 0.0
C1278 C 0.52909 0.10117 0.13108 0.0
C1279 C 0.48484 0.11289 0.11707 0.0
C1280 C 0.55056 0.10496 0.14834 0.0
C1281 C 0.55218 0.12576 0.16763 0.0
C1282 C 0.50873 0.11807 0.13337 0.0
C1283 C 0.53194 0.14289 0.16852 0.0
C1284 C 0.46222 0.12526 0.12449 0.0
C1285 C 0.46287 0.08762 0.08135 0.0
N1286 N 0.51082 0.1385 0.15186 0.0
N1287 N 0.48441 0.09462 0.09563 0.0
H1288 H 0.11987 0.80638 0.22001 0.0
H1289 H 0.13315 0.72617 0.06981 0.0
H1290 H 0.17908 0.81722 0.15534 0.0
H1291 H 0.09249 0.69764 0.14594 0.0
H1292 H 0.14309 0.76462 0.09748 0.0
H1293 H 0.10351 0.77093 0.19018 0.0
C1294 C 0.12935 0.80134 0.19949 0.0
C1295 C 0.15097 0.81459 0.19017 0.0
C1296 C 0.13178 0.75009 0.1081 0.0
C1297 C 0.1322 0.77447 0.15591 0.0
C1298 C 0.12594 0.72819 0.09224 0.0
C1299 C 0.11211 0.70861 0.10568 0.0
C1300 C 0.12368 0.7526 0.13767 0.0
C1301 C 0.10323 0.71229 0.13479 0.0
C1302 C 0.12003 0.78114 0.18255 0.0
C1303 C 0.16249 0.80739 0.16342 0.0
N1304 N 0.10932 0.73383 0.14995 0.0
N1305 N 0.15294 0.78788 0.14722 0.0
H1306 H 0.52539 0.88143 0.32464 0.0
H1307 H 0.44686 0.87037 0.47573 0.0
H1308 H 0.55528 0.84258 0.40147 0.0
H1309 H 0.43696 0.93049 0.41172 0.0
H1310 H 0.48214 0.85383 0.44597 0.0
H1311 H 0.48769 0.89237 0.35303 0.0
C1312 C 0.52383 0.87482 0.3474 0.0
C1313 C 0.54356 0.86122 0.36082 0.0
C1314 C 0.47222 0.87062 0.4385 0.0
C1315 C 0.50045 0.87391 0.39354 0.0
C1316 C 0.45213 0.88006 0.4554 0.0
C1317 C 0.43915 0.90192 0.44619 0.0
C1318 C 0.479 0.8829 0.41197 0.0
C1319 C 0.4466 0.91371 0.41968 0.0
C1320 C 0.50237 0.88125 0.36364 0.0
C1321 C 0.54048 0.85311 0.39034 0.0
N1322 N 0.46597 0.90399 0.40344 0.0
N1323 N 0.51933 0.85972 0.40585 0.0
H1324 H 0.40754 0.30677 0.64955 0.0
H1325 H 0.32057 0.18438 0.65972 0.0
H1326 H 0.36568 0.27654 0.5753 0.0
H1327 H 0.38163 0.19614 0.72172 0.0
H1328 H 0.33603 0.21982 0.62995 0.0
H1329 H 0.39843 0.2677 0.67767 0.0
C1330 C 0.39686 0.29176 0.63901 0.0
C1331 C 0.38723 0.29492 0.61013 0.0
C1332 C 0.3462 0.21462 0.64996 0.0
C1333 C 0.37635 0.25067 0.64218 0.0
C1334 C 0.33728 0.19445 0.66704 0.0
C1335 C 0.34978 0.18742 0.69324 0.0
C1336 C 0.36759 0.22822 0.65934 0.0
C1337 C 0.37145 0.20104 0.70162 0.0
C1338 C 0.39159 0.26955 0.65506 0.0
C1339 C 0.37337 0.27497 0.59755 0.0
N1340 N 0.37956 0.22101 0.68487 0.0
N1341 N 0.3681 0.25391 0.61374 0.0
H1342 H 0.05973 0.07206 0.90979 0.0
H1343 H 0.93746 0.15887 0.90165 0.0
H1344 H 0.04858 0.13306 0.97221 0.0
H1345 H 0.9686 0.11986 0.82574 0.0
H1346 H 0.97639 0.14926 0.92959 0.0
H1347 H 0.02411 0.08783 0.88053 0.0
C1348 C 0.04973 0.08878 0.91733 0.0
C1349 C 0.05699 0.10123 0.94345 0.0
C1350 C 0.97476 0.14318 0.90666 0.0
C1351 C 0.01611 0.11937 0.91019 0.0
C1352 C 0.95265 0.14874 0.89072 0.0
C1353 C 0.94979 0.14002 0.86143 0.0
C1354 C 0.99381 0.12851 0.89325 0.0
C1355 C 0.96994 0.12683 0.84833 0.0
C1356 C 0.02949 0.09788 0.90055 0.0
C1357 C 0.04347 0.12291 0.95217 0.0
N1358 N 0.9909 0.12119 0.86443 0.0
N1359 N 0.02348 0.1312 0.9357 0.0
H1360 H 0.82095 0.81311 0.66401 0.0
H1361 H 0.90852 0.69101 0.65344 0.0
H1362 H 0.8814 0.80003 0.72657 0.0
H1363 H 0.86708 0.72165 0.57896 0.0
H1364 H 0.8988 0.72969 0.68182 0.0
H1365 H 0.83656 0.77789 0.63385 0.0
C1366 C 0.83751 0.80277 0.67137 0.0
C1367 C 0.84985 0.80935 0.6978 0.0
C1368 C 0.89219 0.72803 0.65911 0.0
C1369 C 0.86781 0.769 0.66355 0.0
C1370 C 0.89782 0.70605 0.64292 0.0
C1371 C 0.88846 0.70313 0.61393 0.0
C1372 C 0.87685 0.74687 0.64623 0.0
C1373 C 0.87455 0.72307 0.60133 0.0
C1374 C 0.84652 0.78278 0.6541 0.0
C1375 C 0.87133 0.79546 0.7063 0.0
N1376 N 0.86891 0.74391 0.61766 0.0
N1377 N 0.87954 0.77575 0.68934 0.0
H1378 H 0.04937 0.15953 0.39495 0.0
H1379 H 0.92973 0.06958 0.40979 0.0
H1380 H 0.02191 0.11231 0.32366 0.0
H1381 H 0.94448 0.13027 0.47159 0.0
H1382 H 0.9632 0.08586 0.37752 0.0
H1383 H 0.01033 0.15106 0.42266 0.0
C1384 C 0.03487 0.14787 0.38486 0.0
C1385 C 0.0389 0.13639 0.35715 0.0
C1386 C 0.95903 0.09576 0.39803 0.0
C1387 C 0.99465 0.12618 0.38883 0.0
C1388 C 0.94004 0.08636 0.41651 0.0
C1389 C 0.93456 0.0985 0.44342 0.0
C1390 C 0.97286 0.11725 0.40674 0.0
C1391 C 0.94828 0.1203 0.45103 0.0
C1392 C 0.01267 0.14293 0.40072 0.0
C1393 C 0.01961 0.12138 0.34509 0.0
N1394 N 0.967 0.12887 0.43291 0.0
N1395 N 0.99849 0.11639 0.36118 0.0
H1396 H 0.65241 0.28345 0.07916 0.0
H1397 H 0.61606 0.1924 0.21478 0.0
H1398 H 0.59261 0.30123 0.14093 0.0
H1399 H 0.68622 0.18809 0.16622 0.0
H1400 H 0.60328 0.22849 0.1838 0.0
H1401 H 0.66057 0.24427 0.10614 0.0
C1402 C 0.64078 0.27894 0.09827 0.0
C1403 C 0.62192 0.29565 0.108 0.0
C1404 C 0.62143 0.2196 0.17991 0.0
C1405 C 0.63133 0.25084 0.1392 0.0
C1406 C 0.62872 0.19903 0.19751 0.0
C1407 C 0.6523 0.18743 0.19308 0.0
C1408 C 0.63775 0.2284 0.15758 0.0
C1409 C 0.66796 0.19663 0.17044 0.0
C1410 C 0.64554 0.2566 0.11375 0.0
C1411 C 0.60736 0.28882 0.13279 0.0
N1412 N 0.66041 0.21659 0.15352 0.0
N1413 N 0.61248 0.26693 0.14773 0.0
H1414 H 0.47077 0.89463 0.82719 0.0
H1415 H 0.55478 0.86831 0.972 0.0
H1416 H 0.44685 0.84413 0.89724 0.0
H1417 H 0.56339 0.93367 0.91524 0.0
H1418 H 0.51956 0.8539 0.94076 0.0
H1419 H 0.50974 0.90295 0.85451 0.0
C1420 C 0.47393 0.88493 0.84812 0.0
C1421 C 0.45549 0.86882 0.86012 0.0
C1422 C 0.52921 0.87135 0.93514 0.0
C1423 C 0.49997 0.8785 0.89169 0.0
C1424 C 0.54926 0.87959 0.95292 0.0
C1425 C 0.5618 0.90232 0.94626 0.0
C1426 C 0.52192 0.88582 0.91034 0.0
C1427 C 0.55405 0.91615 0.92125 0.0
C1428 C 0.49611 0.88984 0.8638 0.0
C1429 C 0.4606 0.85673 0.88728 0.0
N1430 N 0.53462 0.90767 0.90419 0.0
N1431 N 0.48232 0.86198 0.90233 0.0
H1432 H 0.85638 0.27595 0.97548 0.0
H1433 H 0.87583 0.19542 0.82656 0.0
H1434 H 0.90294 0.3018 0.90278 0.0
H1435 H 0.81366 0.18478 0.88732 0.0
H1436 H 0.89159 0.22991 0.85803 0.0
H1437 H 0.84714 0.23728 0.94777 0.0
C1438 C 0.86507 0.27325 0.95388 0.0
C1439 C 0.88029 0.29216 0.94126 0.0
C1440 C 0.87455 0.21998 0.86448 0.0
C1441 C 0.86951 0.24809 0.90928 0.0
C1442 C 0.86553 0.20036 0.84656 0.0
C1443 C 0.8433 0.18744 0.85429 0.0
C1444 C 0.86137 0.22651 0.89047 0.0
C1445 C 0.83075 0.19443 0.88046 0.0
C1446 C 0.85962 0.25126 0.93799 0.0
C1447 C 0.89107 0.28768 0.91325 0.0
N1448 N 0.83997 0.21349 0.89764 0.0
N1449 N 0.88529 0.26615 0.89802 0.0
H1450 H 0.4453 0.15759 0.65449 0.0
H1451 H 0.56223 0.06401 0.63105 0.0
H1452 H 0.46834 0.10051 0.71768 0.0
H1453 H 0.55157 0.13065 0.57684 0.0
H1454 H 0.52719 0.07744 0.66255 0.0
H1455 H 0.48388 0.1491 0.62555 0.0
C1456 C 0.45866 0.14359 0.66248 0.0
C1457 C 0.45362 0.12961 0.68837 0.0
C1458 C 0.53251 0.08925 0.64387 0.0
C1459 C 0.49732 0.11956 0.65538 0.0
C1460 C 0.55246 0.0815 0.6258 0.0
C1461 C 0.55967 0.09618 0.60128 0.0
C1462 C 0.51944 0.11175 0.63722 0.0
C1463 C 0.54648 0.11876 0.59556 0.0
C1464 C 0.48058 0.13868 0.64595 0.0
C1465 C 0.47142 0.11162 0.69774 0.0
N1466 N 0.52684 0.12581 0.6133 0.0
N1467 N 0.49231 0.10696 0.68114 0.0
H1468 H 0.68008 0.81191 0.38503 0.0
H1469 H 0.59066 0.69168 0.39905 0.0
H1470 H 0.61738 0.80054 0.3252 0.0
H1471 H 0.63433 0.72157 0.47207 0.0
H1472 H 0.60026 0.73022 0.3703 0.0
H1473 H 0.66467 0.77693 0.41577 0.0
C1474 C 0.66308 0.80199 0.37839 0.0
C1475 C 0.65003 0.80896 0.35257 0.0
C1476 C 0.60739 0.72843 0.39279 0.0
C1477 C 0.63229 0.76893 0.38747 0.0
C1478 C 0.60184 0.70654 0.40919 0.0
C1479 C 0.61186 0.70344 0.43784 0.0
C1480 C 0.62332 0.74698 0.40512 0.0
C1481 C 0.62635 0.72314 0.44996 0.0
C1482 C 0.65419 0.78215 0.396 0.0
C1483 C 0.62799 0.79563 0.34498 0.0
N1484 N 0.63191 0.74389 0.43342 0.0
N1485 N 0.6199 0.77606 0.36224 0.0
H1486 H 0.93452 0.93305 0.13992 0.0
H1487 H 0.05536 0.8433 0.15412 0.0
H1488 H 0.94731 0.87005 0.08076 0.0
H1489 H 0.03088 0.89491 0.22267 0.0
H1490 H 0.01595 0.85179 0.12684 0.0
H1491 H 0.97023 0.91908 0.17027 0.0
C1492 C 0.94487 0.91625 0.13337 0.0
C1493 C 0.93812 0.90277 0.10777 0.0
C1494 C 0.01911 0.86098 0.14805 0.0
C1495 C 0.97906 0.88662 0.14229 0.0
C1496 C 0.04151 0.85606 0.16363 0.0
C1497 C 0.04638 0.86854 0.19056 0.0
C1498 C 0.00171 0.87866 0.15944 0.0
C1499 C 0.02793 0.88498 0.20189 0.0
C1500 C 0.9652 0.90819 0.15075 0.0
C1501 C 0.95204 0.88102 0.10033 0.0
N1502 N 0.00657 0.88976 0.18616 0.0
N1503 N 0.97201 0.87371 0.11739 0.0
H1504 H 0.68135 0.68709 0.88386 0.0
H1505 H 0.5922 0.80784 0.89688 0.0
H1506 H 0.61918 0.69876 0.82331 0.0
H1507 H 0.63444 0.7771 0.97068 0.0
H1508 H 0.60227 0.76953 0.86795 0.0
H1509 H 0.66591 0.72228 0.91424 0.0
C1510 C 0.66447 0.69713 0.87696 0.0
C1511 C 0.65156 0.69014 0.85106 0.0
C1512 C 0.60899 0.7711 0.89064 0.0
C1513 C 0.63379 0.73043 0.88556 0.0
C1514 C 0.60316 0.79285 0.90714 0.0
C1515 C 0.61261 0.79563 0.93611 0.0
C1516 C 0.62465 0.75235 0.90316 0.0
C1517 C 0.62687 0.77577 0.94835 0.0
C1518 C 0.65556 0.7171 0.89436 0.0
C1519 C 0.62969 0.70366 0.84315 0.0
N1520 N 0.63272 0.75516 0.93171 0.0
N1521 N 0.62156 0.72334 0.86022 0.0
H1522 H 0.55363 0.3683 0.07579 0.0
H1523 H 0.47232 0.38166 0.22475 0.0
H1524 H 0.5627 0.4289 0.13918 0.0
H1525 H 0.44238 0.34423 0.14711 0.0
H1526 H 0.51094 0.39114 0.19733 0.0
H1527 H 0.51761 0.3523 0.10494 0.0
C1528 C 0.54809 0.37815 0.0959 0.0
C1529 C 0.56099 0.40006 0.10505 0.0
C1530 C 0.49605 0.38063 0.18634 0.0
C1531 C 0.52031 0.38167 0.13856 0.0
C1532 C 0.47404 0.37504 0.20203 0.0
C1533 C 0.45403 0.36229 0.1881 0.0
C1534 C 0.49825 0.37329 0.15647 0.0
C1535 C 0.45737 0.35414 0.15863 0.0
C1536 C 0.52757 0.36904 0.11243 0.0
C1537 C 0.55315 0.41207 0.13125 0.0
N1538 N 0.47905 0.35991 0.14366 0.0
N1539 N 0.5334 0.40267 0.14712 0.0
H1540 H 0.87809 0.3013 0.32757 0.0
H1541 H 0.86233 0.22199 0.47802 0.0
H1542 H 0.81667 0.31177 0.38941 0.0
H1543 H 0.90539 0.19378 0.4036 0.0
H1544 H 0.8518 0.2598 0.44932 0.0
H1545 H 0.8938 0.26612 0.35822 0.0
C1546 C 0.86793 0.29619 0.34763 0.0
C1547 C 0.84595 0.30931 0.35593 0.0
C1548 C 0.86373 0.24547 0.43932 0.0
C1549 C 0.864 0.26946 0.39118 0.0
C1550 C 0.86992 0.22395 0.45575 0.0
C1551 C 0.88465 0.20466 0.44308 0.0
C1552 C 0.87243 0.2479 0.40998 0.0
C1553 C 0.89397 0.20823 0.41416 0.0
C1554 C 0.87691 0.27614 0.36505 0.0
C1555 C 0.83358 0.30203 0.38213 0.0
N1556 N 0.88759 0.22941 0.39845 0.0
N1557 N 0.84282 0.28264 0.39887 0.0
H1558 H 0.94656 0.63042 0.57946 0.0
H1559 H 0.03254 0.60109 0.72198 0.0
H1560 H 0.93869 0.56411 0.63485 0.0
H1561 H 0.05448 0.65522 0.65484 0.0
H1562 H 0.99397 0.59232 0.6942 0.0
H1563 H 0.98249 0.64408 0.61012 0.0
C1564 C 0.95239 0.61877 0.5981 0.0
C1565 C 0.93979 0.59602 0.60458 0.0
C1566 C 0.00708 0.60626 0.68558 0.0
C1567 C 0.98055 0.61163 0.6398 0.0
C1568 C 0.02906 0.6114 0.70152 0.0
C1569 C 0.04679 0.62881 0.69059 0.0
C1570 C 0.00267 0.61864 0.65842 0.0
C1571 C 0.04127 0.64164 0.664 0.0
C1572 C 0.97287 0.62657 0.61555 0.0
C1573 C 0.94799 0.58169 0.629 0.0
N1574 N 0.01971 0.63619 0.64867 0.0
N1575 N 0.96782 0.58975 0.64572 0.0
H1576 H 0.67729 0.31291 0.66305 0.0
H1577 H 0.58916 0.19151 0.64963 0.0
H1578 H 0.61561 0.30048 0.72401 0.0
H1579 H 0.6313 0.22271 0.57608 0.0
H1580 H 0.59883 0.22985 0.6787 0.0
H1581 H 0.66192 0.27788 0.63246 0.0
C1582 C 0.66051 0.30276 0.66998 0.0
C1583 C 0.64775 0.30948 0.69609 0.0
C1584 C 0.60562 0.22838 0.65604 0.0
C1585 C 0.63006 0.26928 0.66132 0.0
C1586 C 0.60002 0.2066 0.63945 0.0
C1587 C 0.60955 0.20392 0.61049 0.0
C1588 C 0.62111 0.24729 0.64362 0.0
C1589 C 0.62367 0.22393 0.59838 0.0
C1590 C 0.65164 0.28285 0.65246 0.0
C1591 C 0.626 0.2958 0.70401 0.0
N1592 N 0.62928 0.24457 0.61509 0.0
N1593 N 0.61793 0.27616 0.68681 0.0
H1594 H 0.93779 0.36564 0.96856 0.0
H1595 H 0.02188 0.39323 0.82418 0.0
H1596 H 0.92948 0.4317 0.91284 0.0
H1597 H 0.0468 0.34358 0.89463 0.0
H1598 H 0.98265 0.40079 0.85132 0.0
H1599 H 0.97304 0.35145 0.93712 0.0
C1600 C 0.94334 0.37708 0.94963 0.0
C1601 C 0.93092 0.39998 0.94336 0.0
C1602 C 0.99656 0.38802 0.86072 0.0
C1603 C 0.97081 0.38374 0.90725 0.0
C1604 C 0.01889 0.38355 0.84515 0.0
C1605 C 0.03768 0.36792 0.85732 0.0
C1606 C 0.99289 0.37671 0.88866 0.0
C1607 C 0.03278 0.35583 0.88454 0.0
C1608 C 0.96341 0.36898 0.93176 0.0
C1609 C 0.93872 0.41405 0.91857 0.0
N1610 N 0.01089 0.36064 0.89947 0.0
N1611 N 0.95815 0.4057 0.90141 0.0
H1612 H 0.86657 0.77683 0.07601 0.0
H1613 H 0.88258 0.69726 0.22614 0.0
H1614 H 0.9085 0.80581 0.15092 0.0
H1615 H 0.82073 0.68738 0.16477 0.0
H1616 H 0.8981 0.73268 0.1957 0.0
H1617 H 0.85632 0.73895 0.10469 0.0
C1618 C 0.87399 0.77503 0.09838 0.0
C1619 C 0.88829 0.79455 0.11119 0.0
C1620 C 0.88116 0.72272 0.18894 0.0
C1621 C 0.87642 0.75122 0.14426 0.0
C1622 C 0.8723 0.70255 0.20624 0.0
C1623 C 0.85025 0.68953 0.19799 0.0
C1624 C 0.86808 0.7296 0.16298 0.0
C1625 C 0.8377 0.69703 0.17199 0.0
C1626 C 0.86796 0.75346 0.1148 0.0
C1627 C 0.89741 0.79117 0.14025 0.0
N1628 N 0.84684 0.71651 0.15536 0.0
N1629 N 0.8912 0.76993 0.15593 0.0
H1630 H 0.56417 0.56694 0.41227 0.0
H1631 H 0.44561 0.65941 0.39795 0.0
H1632 H 0.55301 0.62987 0.47199 0.0
H1633 H 0.4724 0.61188 0.32658 0.0
H1634 H 0.48399 0.649 0.42643 0.0
H1635 H 0.52911 0.58238 0.38171 0.0
C1636 C 0.55429 0.58401 0.41892 0.0
C1637 C 0.56137 0.5971 0.44467 0.0
C1638 C 0.48155 0.64115 0.40436 0.0
C1639 C 0.52122 0.6149 0.40997 0.0
C1640 C 0.45975 0.64717 0.38811 0.0
C1641 C 0.45583 0.63639 0.35998 0.0
C1642 C 0.49924 0.62401 0.39244 0.0
C1643 C 0.47463 0.62052 0.34826 0.0
C1644 C 0.53438 0.59291 0.40143 0.0
C1645 C 0.54806 0.61921 0.45227 0.0
N1646 N 0.49533 0.61459 0.36465 0.0
N1647 N 0.52847 0.62734 0.4351 0.0
H1648 H 0.40978 0.20194 0.13395 0.0
H1649 H 0.3136 0.31679 0.16251 0.0
H1650 H 0.33902 0.21352 0.08828 0.0
H1651 H 0.38001 0.30553 0.21661 0.0
H1652 H 0.32609 0.28118 0.13168 0.0
H1653 H 0.40282 0.24203 0.16109 0.0
C1654 C 0.39304 0.2131 0.12936 0.0
C1655 C 0.37484 0.20444 0.10909 0.0
C1656 C 0.33807 0.2864 0.15023 0.0
C1657 C 0.36676 0.2498 0.13974 0.0
C1658 C 0.33088 0.30675 0.16789 0.0
C1659 C 0.34565 0.31389 0.19228 0.0
C1660 C 0.36019 0.27283 0.15703 0.0
C1661 C 0.36802 0.30041 0.19805 0.0
C1662 C 0.38901 0.23582 0.14489 0.0
C1663 C 0.35342 0.2194 0.10394 0.0
N1664 N 0.37457 0.28032 0.18062 0.0
N1665 N 0.34996 0.24121 0.1192 0.0
H1666 H 0.52575 0.6209 0.824 0.0
H1667 H 0.4482 0.6344 0.97548 0.0
H1668 H 0.55683 0.65926 0.9004 0.0
H1669 H 0.43707 0.57412 0.91209 0.0
H1670 H 0.48336 0.65041 0.94509 0.0
H1671 H 0.48772 0.6114 0.85249 0.0
C1672 C 0.52438 0.62772 0.84667 0.0
C1673 C 0.54453 0.6407 0.85998 0.0
C1674 C 0.47317 0.63371 0.93789 0.0
C1675 C 0.50109 0.62966 0.8928 0.0
C1676 C 0.45316 0.62458 0.95514 0.0
C1677 C 0.43991 0.60281 0.94629 0.0
C1678 C 0.47958 0.62121 0.91141 0.0
C1679 C 0.44695 0.59084 0.91977 0.0
C1680 C 0.50273 0.62212 0.86296 0.0
C1681 C 0.5417 0.64916 0.88938 0.0
N1682 N 0.46626 0.60025 0.90321 0.0
N1683 N 0.52038 0.64332 0.90497 0.0
H1684 H 0.13211 0.77411 0.56927 0.0
H1685 H 0.11951 0.69378 0.71967 0.0
H1686 H 0.09161 0.80254 0.64552 0.0
H1687 H 0.1785 0.68313 0.65469 0.0
H1688 H 0.10284 0.72915 0.68981 0.0
H1689 H 0.1421 0.7356 0.5969 0.0
C1690 C 0.12495 0.77206 0.59172 0.0
C1691 C 0.11115 0.79163 0.60521 0.0
C1692 C 0.11937 0.71898 0.68211 0.0
C1693 C 0.12278 0.74757 0.63716 0.0
C1694 C 0.12887 0.69883 0.69907 0.0
C1695 C 0.15052 0.68568 0.68968 0.0
C1696 C 0.13141 0.72569 0.65538 0.0
C1697 C 0.16188 0.69289 0.66283 0.0
C1698 C 0.13081 0.75012 0.60755 0.0
C1699 C 0.10233 0.7879 0.63434 0.0
N1700 N 0.15218 0.71236 0.64662 0.0
N1701 N 0.10845 0.76633 0.64949 0.0
H1702 H 0.94174 0.33928 0.39966 0.0
H1703 H 0.06206 0.42921 0.40935 0.0
H1704 H 0.96969 0.38325 0.32572 0.0
H1705 H 0.05138 0.3672 0.47064 0.0
H1706 H 0.02653 0.41361 0.3798 0.0
H1707 H 0.98067 0.34925 0.42728 0.0
C1708 C 0.95625 0.35061 0.38908 0.0
C1709 C 0.95249 0.36057 0.36047 0.0
C1710 C 0.03201 0.40331 0.39964 0.0
C1711 C 0.99652 0.37247 0.39195 0.0
C1712 C 0.05219 0.41231 0.41657 0.0
C1713 C 0.05953 0.39953 0.44247 0.0
C1714 C 0.01882 0.38156 0.4089 0.0
C1715 C 0.04621 0.37762 0.45078 0.0
C1716 C 0.97837 0.35638 0.40484 0.0
C1717 C 0.97177 0.37528 0.3478 0.0
N1718 N 0.02632 0.36942 0.43418 0.0
N1719 N 0.99276 0.38104 0.36373 0.0
H1720 H 0.40976 0.80684 0.40122 0.0
H1721 H 0.32098 0.68563 0.38996 0.0
H1722 H 0.36576 0.77815 0.47466 0.0
H1723 H 0.38195 0.69848 0.32811 0.0
H1724 H 0.33661 0.72063 0.42048 0.0
H1725 H 0.40026 0.76789 0.37335 0.0
C1726 C 0.39854 0.79215 0.41166 0.0
C1727 C 0.3884 0.79572 0.44017 0.0
C1728 C 0.34669 0.71573 0.40032 0.0
C1729 C 0.37704 0.75163 0.40839 0.0
C1730 C 0.33768 0.69584 0.38285 0.0
C1731 C 0.35013 0.68931 0.35648 0.0
C1732 C 0.36811 0.72942 0.39112 0.0
C1733 C 0.37178 0.70304 0.34831 0.0
C1734 C 0.39303 0.77002 0.39574 0.0
C1735 C 0.37384 0.77621 0.45266 0.0
N1736 N 0.37998 0.72262 0.36544 0.0
N1737 N 0.36834 0.75519 0.43657 0.0
H1738 H 0.05212 0.63321 0.07448 0.0
H1739 H 0.97443 0.61795 0.22597 0.0
H1740 H 0.06529 0.57425 0.13918 0.0
H1741 H 0.94375 0.6575 0.15007 0.0
H1742 H 0.01277 0.60921 0.19776 0.0
H1743 H 0.01669 0.64873 0.10483 0.0
C1744 C 0.04758 0.6236 0.09511 0.0
C1745 C 0.06146 0.60231 0.10431 0.0
C1746 C 0.99778 0.62001 0.18731 0.0
C1747 C 0.02143 0.62013 0.13913 0.0
C1748 C 0.97594 0.62516 0.20346 0.0
C1749 C 0.95582 0.63829 0.19022 0.0
C1750 C -0.00035 0.62809 0.15766 0.0
C1751 C 0.95884 0.64726 0.16103 0.0
C1752 C 0.02741 0.63245 0.11234 0.0
C1753 C 0.05494 0.5906 0.1312 0.0
N1754 N 0.98033 0.64182 0.14556 0.0
N1755 N 0.03543 0.59969 0.14768 0.0
H1756 H 0.11102 0.3099 0.8281 0.0
H1757 H 0.13254 0.22484 0.97308 0.0
H1758 H 0.17512 0.31726 0.8867 0.0
H1759 H 0.08833 0.19827 0.89875 0.0
H1760 H 0.14128 0.26395 0.94607 0.0
H1761 H 0.0963 0.27358 0.8577 0.0
C1762 C 0.12191 0.30392 0.84727 0.0
C1763 C 0.14441 0.31642 0.85493 0.0
C1764 C 0.12948 0.24969 0.93573 0.0
C1765 C 0.12754 0.27534 0.88893 0.0
C1766 C 0.12433 0.22741 0.9512 0.0
C1767 C 0.10983 0.20822 0.93802 0.0
C1768 C 0.11996 0.25298 0.90687 0.0
C1769 C 0.09963 0.21262 0.90965 0.0
C1770 C 0.11353 0.28322 0.86406 0.0
C1771 C 0.15779 0.30802 0.87995 0.0
N1772 N 0.10501 0.23455 0.89487 0.0
N1773 N 0.14912 0.28805 0.8961 0.0
H1774 H 0.55221 0.34063 0.65195 0.0
H1775 H 0.43203 0.43119 0.63987 0.0
H1776 H 0.52468 0.38662 0.72431 0.0
H1777 H 0.44466 0.36997 0.57814 0.0
H1778 H 0.46714 0.41562 0.67021 0.0
H1779 H 0.51359 0.35072 0.62378 0.0
C1780 C 0.53786 0.35244 0.66207 0.0
C1781 C 0.54165 0.36292 0.69039 0.0
C1782 C 0.46218 0.40548 0.65011 0.0
C1783 C 0.49793 0.37492 0.65829 0.0
C1784 C 0.44223 0.41446 0.63274 0.0
C1785 C 0.43557 0.40191 0.60647 0.0
C1786 C 0.4758 0.38396 0.64094 0.0
C1787 C 0.44929 0.38022 0.59827 0.0
C1788 C 0.51591 0.35829 0.64599 0.0
C1789 C 0.52257 0.37824 0.70247 0.0
N1790 N 0.46892 0.37202 0.61533 0.0
N1791 N 0.50172 0.384 0.68625 0.0
H1792 H 0.12769 0.04183 0.35889 0.0
H1793 H 0.17426 0.94332 0.24049 0.0
H1794 H 0.16053 0.06046 0.27381 0.0
H1795 H 0.12201 0.92846 0.31206 0.0
H1796 H 0.18634 0.98301 0.26467 0.0
H1797 H 0.1432 0.99851 0.35371 0.0
C1798 C 0.13853 0.03681 0.3393 0.0
C1799 C 0.14214 0.05418 0.31615 0.0
C1800 C 0.17275 0.97071 0.27547 0.0
C1801 C 0.15962 0.00505 0.31005 0.0
C1802 C 0.1658 0.94819 0.26169 0.0
C1803 C 0.14652 0.93336 0.27397 0.0
C1804 C 0.16008 0.97826 0.3014 0.0
C1805 C 0.13635 0.94004 0.30152 0.0
C1806 C 0.14755 0.01223 0.3365 0.0
C1807 C 0.15697 0.04726 0.29177 0.0
N1808 N 0.14294 0.96235 0.31413 0.0
N1809 N 0.1647 0.02289 0.28895 0.0
H1810 H 0.1844 0.85003 0.49848 0.0
H1811 H 0.31145 0.92396 0.49616 0.0
H1812 H 0.18664 0.91885 0.55037 0.0
H1813 H 0.30629 0.84693 0.52826 0.0
H1814 H 0.26519 0.92754 0.49974 0.0
H1815 H 0.22968 0.85445 0.48898 0.0
C1816 C 0.19428 0.8664 0.50717 0.0
C1817 C 0.18211 0.8839 0.5256 0.0
C1818 C 0.27446 0.91006 0.50616 0.0
C1819 C 0.2331 0.88908 0.51458 0.0
C1820 C 0.30064 0.90804 0.50446 0.0
C1821 C 0.31248 0.88514 0.51206 0.0
C1822 C 0.26048 0.88876 0.51453 0.0
C1823 C 0.2978 0.86489 0.52223 0.0
C1824 C 0.21994 0.86884 0.5018 0.0
C1825 C 0.19555 0.90496 0.53613 0.0
N1826 N 0.27237 0.86704 0.5227 0.0
N1827 N 0.22067 0.90688 0.53074 0.0
H1828 H 0.33197 0.93881 0.77509 0.0
H1829 H 0.37769 0.07169 0.81306 0.0
H1830 H 0.36232 0.95867 0.86102 0.0
H1831 H 0.32614 0.05754 0.74063 0.0
H1832 H 0.36336 0.03281 0.83707 0.0
H1833 H 0.31954 0.983 0.7677 0.0
C1834 C 0.3354 0.95242 0.79266 0.0
C1835 C 0.34911 0.94567 0.81803 0.0
C1836 C 0.35471 0.03841 0.81623 0.0
C1837 C 0.33542 0.9958 0.80982 0.0
C1838 C 0.36311 0.06043 0.80247 0.0
C1839 C 0.35362 0.06706 0.77456 0.0
C1840 C 0.33743 0.02264 0.8013 0.0
C1841 C 0.33428 0.05251 0.76195 0.0
C1842 C 0.32826 0.9776 0.78856 0.0
C1843 C 0.3527 0.9636 0.84054 0.0
N1844 N 0.32724 0.0305 0.77507 0.0
N1845 N 0.34644 0.98808 0.83562 0.0
H1846 H 0.18456 0.07758 0.99414 0.0
H1847 H 0.31513 0.14989 0.9921 0.0
H1848 H 0.19357 0.15689 1.01527 0.0
H1849 H 0.30913 0.07781 0.03716 0.0
H1850 H 0.27028 0.14726 0.97941 0.0
H1851 H 0.23078 0.0731 0.99291 0.0
C1852 C 0.19627 0.09388 0.99895 0.0
C1853 C 0.18546 0.11755 1.00524 0.0
C1854 C 0.2791 0.13175 0.99134 0.0
C1855 C 0.23743 0.11286 1.00199 0.0
C1856 C 0.30456 0.13316 0.99848 0.0
C1857 C 0.3154 0.11435 1.01632 0.0
C1858 C 0.26485 0.11126 1.00187 0.0
C1859 C 0.30118 0.09284 1.02369 0.0
C1860 C 0.22241 0.09137 0.99778 0.0
C1861 C 0.20123 0.13828 1.01066 0.0
N1862 N 0.27627 0.09204 1.01684 0.0
N1863 N 0.22656 0.1355 1.00861 0.0
H1864 H 0.8256 0.06059 0.79974 0.0
H1865 H 0.90434 0.93522 0.79593 0.0
H1866 H 0.90336 0.05822 0.7706 0.0
H1867 H 0.83152 0.93555 0.75245 0.0
H1868 H 0.9002 0.9808 0.80434 0.0
H1869 H 0.82384 0.01417 0.79613 0.0
C1870 C 0.84207 0.05034 0.79205 0.0
C1871 C 0.86465 0.06302 0.78539 0.0
C1872 C 0.88499 0.97063 0.79348 0.0
C1873 C 0.86304 0.01079 0.78281 0.0
C1874 C 0.88725 0.94479 0.78883 0.0
C1875 C 0.86839 0.93195 0.77312 0.0
C1876 C 0.86362 0.98332 0.78274 0.0
C1877 C 0.84647 0.94498 0.76456 0.0
C1878 C 0.84109 0.02406 0.79033 0.0
C1879 C 0.88562 0.04906 0.77593 0.0
N1880 N 0.84471 0.97026 0.76927 0.0
N1881 N 0.88444 0.02351 0.77539 0.0
H1882 H 0.68491 0.07816 0.54422 0.0
H1883 H 0.81275 0.15241 0.54778 0.0
H1884 H 0.69076 0.15699 0.51917 0.0
H1885 H 0.81112 0.07902 0.50531 0.0
H1886 H 0.76688 0.15044 0.55343 0.0
H1887 H 0.73108 0.07468 0.54187 0.0
C1888 C 0.69588 0.09452 0.53759 0.0
C1889 C 0.68424 0.1179 0.53184 0.0
C1890 C 0.77678 0.13464 0.54336 0.0
C1891 C 0.73626 0.1143 0.53068 0.0
C1892 C 0.8028 0.13562 0.54037 0.0
C1893 C 0.81542 0.11603 0.52561 0.0
C1894 C 0.76366 0.11376 0.53198 0.0
C1895 C 0.80186 0.09455 0.51663 0.0
C1896 C 0.72204 0.09256 0.53659 0.0
C1897 C 0.69912 0.13867 0.52377 0.0
N1898 N 0.77641 0.09403 0.51971 0.0
N1899 N 0.72456 0.1365 0.52394 0.0
H1900 H 0.67085 0.06119 0.25323 0.0
H1901 H 0.59219 0.93957 0.26716 0.0
H1902 H 0.5955 0.06202 0.29015 0.0
H1903 H 0.66913 0.93597 0.29911 0.0
H1904 H 0.59547 0.9856 0.26514 0.0
H1905 H 0.67365 0.01575 0.26417 0.0
C1906 C 0.65522 0.05194 0.26436 0.0
C1907 C 0.63263 0.0649 0.27014 0.0
C1908 C 0.61162 0.97461 0.27246 0.0
C1909 C 0.63554 0.01375 0.28174 0.0
C1910 C 0.6099 0.94847 0.27321 0.0
C1911 C 0.63037 0.93423 0.28355 0.0
C1912 C 0.63407 0.9863 0.28156 0.0
C1913 C 0.65297 0.94652 0.29106 0.0
C1914 C 0.65684 0.02617 0.27047 0.0
C1915 C 0.61297 0.05238 0.28476 0.0
N1916 N 0.6543 0.97214 0.28992 0.0
N1917 N 0.61461 0.02715 0.2894 0.0
H1918 H 0.68797 0.92149 1.00286 0.0
H1919 H 0.81632 0.84697 1.00328 0.0
H1920 H 0.69362 0.84206 0.02525 0.0
H1921 H 0.81249 0.9187 0.04929 0.0
H1922 H 0.77094 0.84969 0.99369 0.0
H1923 H 0.73419 0.92487 1.00626 0.0
C1924 C 0.69891 0.90495 1.00899 0.0
C1925 C 0.68721 0.88148 1.01389 0.0
C1926 C 0.78029 0.86501 1.00536 0.0
C1927 C 0.73922 0.88499 1.01622 0.0
C1928 C 0.80603 0.86356 1.01069 0.0
C1929 C 0.81781 0.88243 0.02752 0.0
C1930 C 0.76663 0.8856 1.01661 0.0
C1931 C 0.80387 0.90372 0.03639 0.0
C1932 C 0.72507 0.90686 1.01059 0.0
C1933 C 0.70201 0.86047 1.02138 0.0
N1934 N 0.7787 0.90466 0.03108 0.0
N1935 N 0.72744 0.86264 1.02188 0.0
H1936 H 0.59261 0.55961 0.76655 0.0
H1937 H 0.6687 0.43631 0.75049 0.0
H1938 H 0.66929 0.562 0.79951 0.0
H1939 H 0.59592 0.4371 0.794 0.0
H1940 H 0.67217 0.48214 0.75884 0.0
H1941 H 0.59581 0.5136 0.76286 0.0
C1942 C 0.61027 0.55048 0.77245 0.0
C1943 C 0.63065 0.56435 0.78364 0.0
C1944 C 0.65578 0.47199 0.76702 0.0
C1945 C 0.63429 0.51233 0.77949 0.0
C1946 C 0.65381 0.44601 0.76244 0.0
C1947 C 0.63181 0.43324 0.77124 0.0
C1948 C 0.63536 0.48486 0.7797 0.0
C1949 C 0.61298 0.44647 0.78653 0.0
C1950 C 0.61195 0.52436 0.77063 0.0
C1951 C 0.65318 0.55175 0.79087 0.0
N1952 N 0.6149 0.47184 0.78968 0.0
N1953 N 0.65447 0.52616 0.78871 0.0
H1954 H 0.80902 0.4159 0.02606 0.0
H1955 H 0.67565 0.37453 0.98532 0.0
H1956 H 0.7893 0.38259 0.94161 0.0
H1957 H 0.69145 0.42467 0.05868 0.0
H1958 H 0.71464 0.38822 0.96138 0.0
H1959 H 0.76553 0.43085 0.03132 0.0
C1960 C 0.79561 0.4123 1.00835 0.0
C1961 C 0.80215 0.39717 0.98405 0.0
C1962 C 0.70941 0.39672 0.98242 0.0
C1963 C 0.75276 0.41369 0.98987 0.0
C1964 C 0.6873 0.38868 0.99612 0.0
C1965 C 0.68117 0.39782 1.02433 0.0
C1966 C 0.72579 0.41315 0.99777 0.0
C1967 C 0.69615 0.41672 0.03717 0.0
C1968 C 0.77085 0.42088 1.01122 0.0
C1969 C 0.7845 0.39334 0.96133 0.0
N1970 N 0.71827 0.4233 1.02415 0.0
N1971 N 0.76037 0.40108 0.96508 0.0
H1972 H 0.90435 0.55937 0.28896 0.0
H1973 H 0.82617 0.43653 0.30222 0.0
H1974 H 0.82913 0.56236 0.25169 0.0
H1975 H 0.89971 0.43706 0.26049 0.0
H1976 H 0.82369 0.48265 0.29542 0.0
H1977 H 0.89998 0.51355 0.29452 0.0
C1978 C 0.88673 0.55044 0.28258 0.0
C1979 C 0.86718 0.56436 0.26949 0.0
C1980 C 0.84006 0.4724 0.28737 0.0
C1981 C 0.86219 0.51263 0.27584 0.0
C1982 C 0.84146 0.44626 0.29102 0.0
C1983 C 0.8633 0.43325 0.28212 0.0
C1984 C 0.8609 0.48517 0.27557 0.0
C1985 C 0.8827 0.44655 0.26791 0.0
C1986 C 0.88437 0.52444 0.28552 0.0
C1987 C 0.84463 0.55206 0.26175 0.0
N1988 N 0.8813 0.47203 0.26565 0.0
N1989 N 0.84271 0.52658 0.26491 0.0
H1990 H 0.68532 0.65183 0.54535 0.0
H1991 H 0.81272 0.57673 0.55035 0.0
H1992 H 0.68783 0.57881 0.50209 0.0
H1993 H 0.80776 0.65482 0.52199 0.0
H1994 H 0.76654 0.57332 0.54617 0.0
H1995 H 0.73071 0.6488 0.55455 0.0
C1996 C 0.69534 0.63492 0.53843 0.0
C1997 C 0.6832 0.61577 0.52242 0.0
C1998 C 0.77581 0.59101 0.54066 0.0
C1999 C 0.73442 0.61226 0.53292 0.0
C2000 C 0.80196 0.59294 0.54273 0.0
C2001 C 0.81383 0.6161 0.53647 0.0
C2002 C 0.76185 0.61259 0.53319 0.0
C2003 C 0.79924 0.63668 0.52704 0.0
C2004 C 0.72109 0.6333 0.54353 0.0
C2005 C 0.69679 0.59405 0.51424 0.0
N2006 N 0.77381 0.63456 0.52615 0.0
N2007 N 0.72201 0.59294 0.51932 0.0
H2008 H 0.39995 0.56925 0.24655 0.0
H2009 H 0.32673 0.43984 0.24729 0.0
H2010 H 0.33018 0.56415 0.29607 0.0
H2011 H 0.40571 0.44706 0.26997 0.0
H2012 H 0.32276 0.4862 0.24848 0.0
H2013 H 0.3962 0.52431 0.23419 0.0
C2014 C 0.38351 0.55883 0.25408 0.0
C2015 C 0.36566 0.56995 0.27292 0.0
C2016 C 0.34082 0.47739 0.25324 0.0
C2017 C 0.36129 0.5194 0.25878 0.0
C2018 C 0.34304 0.45116 0.25302 0.0
C2019 C 0.36649 0.43983 0.25891 0.0
C2020 C 0.3624 0.49197 0.2584 0.0
C2021 C 0.38728 0.45515 0.26554 0.0
C2022 C 0.38145 0.53336 0.24709 0.0
C2023 C 0.34445 0.55597 0.28177 0.0
N2024 N 0.38481 0.48061 0.26475 0.0
N2025 N 0.34299 0.53102 0.27497 0.0
H2026 H 0.30872 0.65746 0.03237 0.0
H2027 H 0.1873 0.58099 0.04986 0.0
H2028 H 0.31258 0.58121 0.99769 0.0
H2029 H 0.18698 0.65212 1.00217 0.0
H2030 H 0.23293 0.57754 0.0411 0.0
H2031 H 0.26289 0.65337 0.0359 0.0
C2032 C 0.29996 0.6397 0.0261 0.0
C2033 C 0.31418 0.6197 1.01446 0.0
C2034 C 0.22257 0.5935 0.03206 0.0
C2035 C 0.26241 0.61506 1.01845 0.0
C2036 C 0.1967 0.59547 0.03686 0.0
C2037 C 0.18368 0.61705 0.027 0.0
C2038 C 0.23508 0.61357 1.01811 0.0
C2039 C 0.19655 0.6354 1.01046 0.0
C2040 C 0.27396 0.63751 0.02783 0.0
C2041 C 0.30205 0.59701 1.00672 0.0
N2042 N 0.22185 0.63357 1.00715 0.0
N2043 N 0.27657 0.59523 1.00882 0.0
H2044 H 0.16285 0.43884 0.77335 0.0
H2045 H 0.12585 0.57407 0.81436 0.0
H2046 H 0.12898 0.45962 0.85712 0.0
H2047 H 0.17436 0.55616 0.74024 0.0
H2048 H 0.13847 0.53462 0.83838 0.0
H2049 H 0.17918 0.48194 0.76838 0.0
C2050 C 0.15938 0.45239 0.79098 0.0
C2051 C 0.14378 0.44629 0.815 0.0
C2052 C 0.14686 0.53947 0.81715 0.0
C2053 C 0.16185 0.49529 0.80946 0.0
C2054 C 0.13945 0.56187 0.80342 0.0
C2055 C 0.14834 0.56752 0.77494 0.0
C2056 C 0.16239 0.52237 0.80159 0.0
C2057 C 0.16658 0.55185 0.76195 0.0
C2058 C 0.16875 0.47694 0.78826 0.0
C2059 C 0.14011 0.46411 0.8376 0.0
N2060 N 0.1725 0.52948 0.77501 0.0
N2061 N 0.14862 0.48806 0.83398 0.0
H2062 H 0.18946 0.34344 0.5312 0.0
H2063 H 0.31111 0.42062 0.54725 0.0
H2064 H 0.18665 0.41968 0.49615 0.0
H2065 H 0.31213 0.34749 0.50416 0.0
H2066 H 0.26561 0.42351 0.53773 0.0
H2067 H 0.23537 0.34683 0.53451 0.0
C2068 C 0.19846 0.36106 0.5248 0.0
C2069 C 0.18449 0.38128 0.51323 0.0
C2070 C 0.27607 0.40719 0.52985 0.0
C2071 C 0.23637 0.38511 0.51692 0.0
C2072 C 0.3019 0.40556 0.53505 0.0
C2073 C 0.31512 0.38367 0.52666 0.0
C2074 C 0.26374 0.38649 0.51705 0.0
C2075 C 0.30243 0.36452 0.51124 0.0
C2076 C 0.22452 0.36283 0.52637 0.0
C2077 C 0.19695 0.40374 0.50525 0.0
N2078 N 0.27713 0.36608 0.50755 0.0
N2079 N 0.22246 0.40513 0.50726 0.0
H2080 H 0.11122 0.16254 0.06674 0.0
H2081 H 0.08136 0.11825 0.232 0.0
H2082 H 0.08374 0.0872 0.08486 0.0
H2083 H 0.15175 0.15507 0.21035 0.0
H2084 H 0.07085 0.1169 0.17877 0.0
H2085 H 0.11456 0.17011 0.12059 0.0
C2086 C 0.10513 0.1479 0.08205 0.0
C2087 C 0.09707 0.12424 0.07142 0.0
C2088 C 0.08837 0.12563 0.18584 0.0
C2089 C 0.1007 0.13286 0.13267 0.0
C2090 C 0.09434 0.12656 0.21612 0.0
C2091 C 0.1175 0.13678 0.22555 0.0
C2092 C 0.10533 0.13564 0.16497 0.0
C2093 C 0.13376 0.14697 0.20397 0.0
C2094 C 0.1073 0.15215 0.11266 0.0
C2095 C 0.08995 0.10571 0.0922 0.0
N2096 N 0.12733 0.14624 0.17464 0.0
N2097 N 0.09187 0.11042 0.12189 0.0
H2098 H 0.10582 0.91825 0.45887 0.0
H2099 H 0.09892 0.83075 0.31794 0.0
H2100 H 0.09123 0.83897 0.47554 0.0
H2101 H 0.16106 0.88161 0.3355 0.0
H2102 H 0.08524 0.83575 0.37024 0.0
H2103 H 0.11309 0.90853 0.40667 0.0
C2104 C 0.10357 0.89883 0.45155 0.0
C2105 C 0.09827 0.87934 0.47194 0.0
C2106 C 0.10201 0.84546 0.36247 0.0
C2107 C 0.10655 0.86823 0.41176 0.0
C2108 C 0.10989 0.8426 0.33277 0.0
C2109 C 0.13129 0.85566 0.32223 0.0
C2110 C 0.11518 0.86212 0.38123 0.0
C2111 C 0.14461 0.87095 0.34244 0.0
C2112 C 0.10788 0.89334 0.4217 0.0
C2113 C 0.09536 0.85459 0.4607 0.0
N2114 N 0.13611 0.87406 0.37068 0.0
N2115 N 0.09978 0.84965 0.4313 0.0
H2116 H 0.41349 0.88642 0.73494 0.0
H2117 H 0.38901 0.84069 0.56898 0.0
H2118 H 0.34671 0.84405 0.71161 0.0
H2119 H 0.41091 0.91775 0.58769 0.0
H2120 H 0.38584 0.83264 0.62272 0.0
H2121 H 0.42468 0.88889 0.68192 0.0
C2122 C 0.4015 0.87715 0.71873 0.0
C2123 C 0.37911 0.86502 0.72761 0.0
C2124 C 0.39186 0.85111 0.61495 0.0
C2125 C 0.39206 0.86745 0.66731 0.0
C2126 C 0.39393 0.85567 0.58439 0.0
C2127 C 0.40033 0.87991 0.57393 0.0
C2128 C 0.39689 0.87073 0.63511 0.0
C2129 C 0.40597 0.8988 0.59488 0.0
C2130 C 0.40783 0.87872 0.68858 0.0
C2131 C 0.36407 0.85363 0.70565 0.0
N2132 N 0.40416 0.89381 0.62453 0.0
N2133 N 0.37087 0.85503 0.67648 0.0
H2134 H 0.33742 0.15999 0.84002 0.0
H2135 H 0.41349 0.08805 0.95951 0.0
H2136 H 0.4113 0.13215 0.81621 0.0
H2137 H 0.38232 0.16076 0.98312 0.0
H2138 H 0.40956 0.09951 0.90659 0.0
H2139 H 0.34919 0.15664 0.89293 0.0
C2140 C 0.35623 0.15364 0.84591 0.0
C2141 C 0.37352 0.14668 0.82369 0.0
C2142 C 0.4041 0.11311 0.92344 0.0
C2143 C 0.38664 0.14183 0.88391 0.0
C2144 C 0.40646 0.10666 0.95354 0.0
C2145 C 0.39867 0.12366 0.9757 0.0
C2146 C 0.39286 0.13627 0.91547 0.0
C2147 C 0.38904 0.14731 0.96675 0.0
C2148 C 0.36291 0.15172 0.87601 0.0
C2149 C 0.39755 0.13814 0.83259 0.0
N2150 N 0.38585 0.1527 0.93732 0.0
N2151 N 0.40322 0.13544 0.86199 0.0
H2152 H 0.83645 0.85672 0.84381 0.0
H2153 H 0.91731 0.83918 0.98368 0.0
H2154 H 0.91335 0.83681 0.82149 0.0
H2155 H 0.8891 0.91321 0.95935 0.0
H2156 H 0.91201 0.82565 0.93148 0.0
H2157 H 0.84938 0.86293 0.89531 0.0
C2158 C 0.85595 0.85302 0.84974 0.0
C2159 C 0.8739 0.84656 0.82799 0.0
C2160 C 0.90755 0.84495 0.93774 0.0
C2161 C 0.88859 0.85347 0.88725 0.0
C2162 C 0.91063 0.85277 0.9674 0.0
C2163 C 0.90341 0.87735 0.97615 0.0
C2164 C 0.89678 0.86172 0.9171 0.0
C2165 C 0.8947 0.89402 0.95397 0.0
C2166 C 0.86325 0.85668 0.87917 0.0
C2167 C 0.89888 0.84188 0.83742 0.0
N2168 N 0.8911 0.88574 0.92573 0.0
N2169 N 0.90562 0.84571 0.86642 0.0
H2170 H 0.9056 0.16666 0.73258 0.0
H2171 H 0.89516 0.08251 0.59312 0.0
H2172 H 0.83518 0.13078 0.7083 0.0
H2173 H 0.90942 0.16088 0.57097 0.0
H2174 H 0.88862 0.09479 0.64481 0.0
H2175 H 0.92024 0.16132 0.68077 0.0
C2176 C 0.89303 0.15819 0.7164 0.0
C2177 C 0.86914 0.14899 0.72503 0.0
C2178 C 0.89377 0.10916 0.62866 0.0
C2179 C 0.88609 0.1423 0.66652 0.0
C2180 C 0.8976 0.10222 0.59915 0.0
C2181 C 0.90245 0.12074 0.57741 0.0
C2182 C 0.89516 0.1347 0.6368 0.0
C2183 C 0.9056 0.14598 0.58691 0.0
C2184 C 0.90147 0.15511 0.68698 0.0
C2185 C 0.85377 0.13804 0.70301 0.0
N2186 N 0.90155 0.15236 0.61597 0.0
N2187 N 0.86271 0.13454 0.67504 0.0
H2188 H 0.60748 0.16439 0.48013 0.0
H2189 H 0.58166 0.12742 0.3113 0.0
H2190 H 0.58539 0.08854 0.45586 0.0
H2191 H 0.6496 0.16687 0.3368 0.0
H2192 H 0.57031 0.12331 0.36413 0.0
H2193 H 0.61024 0.17539 0.42706 0.0
C2194 C 0.60243 0.15028 0.46367 0.0
C2195 C 0.59607 0.12552 0.47239 0.0
C2196 C 0.58738 0.13338 0.35801 0.0
C2197 C 0.59898 0.13811 0.4119 0.0
C2198 C 0.59375 0.13598 0.32794 0.0
C2199 C 0.61653 0.14767 0.31968 0.0
C2200 C 0.60355 0.14316 0.37989 0.0
C2201 C 0.63182 0.15784 0.34224 0.0
C2202 C 0.60425 0.15653 0.43348 0.0
C2203 C 0.59028 0.10784 0.45008 0.0
N2204 N 0.62503 0.15541 0.37135 0.0
N2205 N 0.59181 0.11449 0.42082 0.0
H2206 H 0.58702 0.90986 0.09041 0.0
H2207 H 0.65813 0.83337 0.20796 0.0
H2208 H 0.6124 0.83526 0.06519 0.0
H2209 H 0.58477 0.86213 0.23246 0.0
H2210 H 0.6463 0.83738 0.15517 0.0
H2211 H 0.58975 0.89717 0.14306 0.0
C2212 C 0.59262 0.89068 0.09596 0.0
C2213 C 0.59918 0.87347 0.07349 0.0
C2214 C 0.63267 0.84228 0.1722 0.0
C2215 C 0.6034 0.85933 0.13328 0.0
C2216 C 0.63936 0.83995 0.2022 0.0
C2217 C 0.62225 0.84708 0.2245 0.0
C2218 C 0.60917 0.85281 0.16458 0.0
C2219 C 0.59832 0.856 0.2159 0.0
C2220 C 0.59421 0.88349 0.12588 0.0
C2221 C 0.60677 0.84895 0.08185 0.0
N2222 N 0.59267 0.8592 0.18658 0.0
N2223 N 0.60926 0.84278 0.11112 0.0
H2224 H 0.58453 0.63874 0.73397 0.0
H2225 H 0.60976 0.66345 0.56385 0.0
H2226 H 0.65937 0.66052 0.70589 0.0
H2227 H 0.58698 0.58866 0.59178 0.0
H2228 H 0.61479 0.67554 0.6163 0.0
H2229 H 0.57239 0.63354 0.68153 0.0
C2230 C 0.59815 0.64324 0.71676 0.0
C2231 C 0.62296 0.65027 0.7242 0.0
C2232 C 0.6081 0.65672 0.61081 0.0
C2233 C 0.60904 0.64462 0.66458 0.0
C2234 C 0.60496 0.64984 0.58102 0.0
C2235 C 0.59774 0.62504 0.57352 0.0
C2236 C 0.60323 0.63891 0.63319 0.0
C2237 C 0.59243 0.60798 0.59666 0.0
C2238 C 0.59125 0.64002 0.68699 0.0
C2239 C 0.64004 0.65522 0.70104 0.0
N2240 N 0.59521 0.61525 0.62555 0.0
N2241 N 0.63273 0.65239 0.67217 0.0
H2242 H 0.65773 0.33379 0.84183 0.0
H2243 H 0.58818 0.41301 0.95981 0.0
H2244 H 0.58496 0.36455 0.81812 0.0
H2245 H 0.61414 0.33855 0.98513 0.0
H2246 H 0.59103 0.40031 0.90715 0.0
H2247 H 0.6469 0.33917 0.89474 0.0
C2248 C 0.63928 0.3411 0.8478 0.0
C2249 C 0.62204 0.34834 0.82566 0.0
C2250 C 0.59565 0.3867 0.92437 0.0
C2251 C 0.61016 0.35569 0.8857 0.0
C2252 C 0.59402 0.3939 0.95431 0.0
C2253 C 0.60061 0.37671 0.97684 0.0
C2254 C 0.60488 0.36254 0.91703 0.0
C2255 C 0.60846 0.35226 0.96848 0.0
C2256 C 0.63317 0.34425 0.87787 0.0
C2257 C 0.59857 0.35826 0.83455 0.0
N2258 N 0.6109 0.34607 0.93924 0.0
N2259 N 0.59351 0.36219 0.86388 0.0
H2260 H 0.86521 0.3334 0.06555 0.0
H2261 H 0.90782 0.35879 0.23223 0.0
H2262 H 0.90241 0.40303 0.09005 0.0
H2263 H 0.83222 0.33351 0.21235 0.0
H2264 H 0.91607 0.36292 0.17864 0.0
H2265 H 0.86307 0.32161 0.11838 0.0
C2266 C 0.87344 0.34593 0.08198 0.0
C2267 C 0.88401 0.36925 0.07345 0.0
C2268 C 0.89791 0.35592 0.18612 0.0
C2269 C 0.88197 0.35562 0.13359 0.0
C2270 C 0.89326 0.35327 0.21658 0.0
C2271 C 0.86933 0.34563 0.22667 0.0
C2272 C 0.87873 0.35023 0.16567 0.0
C2273 C 0.85093 0.33934 0.20544 0.0
C2274 C 0.87205 0.33924 0.11203 0.0
C2275 C 0.89406 0.38493 0.09571 0.0
N2276 N 0.85602 0.34173 0.17588 0.0
N2277 N 0.8929 0.37778 0.12481 0.0
H2278 H 0.84001 0.66323 0.34251 0.0
H2279 H 0.91384 0.58892 0.46021 0.0
H2280 H 0.91415 0.6365 0.31808 0.0
H2281 H 0.8862 0.66272 0.48533 0.0
H2282 H 0.91027 0.6013 0.40752 0.0
H2283 H 0.85187 0.65937 0.39532 0.0
C2284 C 0.85892 0.6571 0.34828 0.0
C2285 C 0.87625 0.65051 0.32597 0.0
C2286 C 0.90549 0.61489 0.42468 0.0
C2287 C 0.88942 0.64498 0.38593 0.0
C2288 C 0.90756 0.60788 0.45462 0.0
C2289 C 0.90065 0.62496 0.47708 0.0
C2290 C 0.89545 0.6387 0.41724 0.0
C2291 C 0.89214 0.64917 0.46867 0.0
C2292 C 0.86564 0.65486 0.37829 0.0
C2293 C 0.9004 0.6422 0.33461 0.0
N2294 N 0.88921 0.65514 0.43939 0.0
N2295 N 0.9061 0.63909 0.36393 0.0
H2296 H 0.34319 0.38607 0.33618 0.0
H2297 H 0.40772 0.3393 0.47973 0.0
H2298 H 0.40355 0.33233 0.32154 0.0
H2299 H 0.39811 0.41892 0.46059 0.0
H2300 H 0.40316 0.33021 0.42615 0.0
H2301 H 0.35721 0.39133 0.38706 0.0
C2302 C 0.35919 0.37496 0.34368 0.0
C2303 C 0.37217 0.35865 0.32426 0.0
C2304 C 0.40273 0.34965 0.43381 0.0
C2305 C 0.38831 0.36482 0.38323 0.0
C2306 C 0.40542 0.35492 0.46432 0.0
C2307 C 0.4029 0.37992 0.47485 0.0
C2308 C 0.39711 0.36949 0.41406 0.0
C2309 C 0.39975 0.39932 0.45375 0.0
C2310 C 0.36731 0.37825 0.37279 0.0
C2311 C 0.39298 0.3451 0.33568 0.0
N2312 N 0.39638 0.39364 0.42459 0.0
N2313 N 0.40039 0.34835 0.36462 0.0
H2314 H 0.33952 0.66755 0.20887 0.0
H2315 H 0.41145 0.5916 0.09098 0.0
H2316 H 0.41309 0.63913 0.23314 0.0
H2317 H 0.38611 0.6663 0.06597 0.0
H2318 H 0.40781 0.6038 0.14371 0.0
H2319 H 0.35114 0.66336 0.15602 0.0
C2320 C 0.35828 0.66101 0.20306 0.0
C2321 C 0.37552 0.65408 0.22534 0.0
C2322 C 0.40352 0.61759 0.12657 0.0
C2323 C 0.38836 0.64809 0.16534 0.0
C2324 C 0.40561 0.61068 0.0966 0.0
C2325 C 0.39942 0.62809 0.07416 0.0
C2326 C 0.39418 0.64167 0.13402 0.0
C2327 C 0.3915 0.65247 0.08262 0.0
C2328 C 0.36485 0.65856 0.17302 0.0
C2329 C 0.39944 0.64516 0.21663 0.0
N2330 N 0.38855 0.65839 0.11189 0.0
N2331 N 0.40496 0.64186 0.18731 0.0
H2332 H 0.1668 0.62717 0.8364 0.0
H2333 H 0.08832 0.66142 0.9764 0.0
H2334 H 0.09608 0.66485 0.81742 0.0
H2335 H 0.11232 0.58473 0.95815 0.0
H2336 H 0.09519 0.67188 0.92342 0.0
H2337 H 0.15361 0.62198 0.88784 0.0
C2338 C 0.1487 0.63491 0.84304 0.0
C2339 C 0.13248 0.64637 0.82224 0.0
C2340 C 0.09844 0.65271 0.93118 0.0
C2341 C 0.1174 0.64041 0.88162 0.0
C2342 C 0.09443 0.64666 0.96131 0.0
C2343 C 0.09999 0.62218 0.97201 0.0
C2344 C 0.10856 0.63431 0.91205 0.0
C2345 C 0.10803 0.60392 0.95129 0.0
C2346 C 0.14115 0.63171 0.87246 0.0
C2347 C 0.10918 0.65584 0.83261 0.0
N2348 N 0.11258 0.6105 0.9226 0.0
N2349 N 0.10225 0.65261 0.86167 0.0
H2350 H 0.08031 0.38306 0.73204 0.0
H2351 H 0.10984 0.33747 0.56704 0.0
H2352 H 0.14981 0.34447 0.71053 0.0
H2353 H 0.08264 0.41301 0.58466 0.0
H2354 H 0.11271 0.3299 0.62094 0.0
H2355 H 0.06961 0.38418 0.67885 0.0
C2356 C 0.09304 0.37432 0.71621 0.0
C2357 C 0.11602 0.36368 0.72566 0.0
C2358 C 0.10558 0.34789 0.61288 0.0
C2359 C 0.10363 0.36455 0.66511 0.0
C2360 C 0.10366 0.35214 0.58223 0.0
C2361 C 0.09585 0.37586 0.57145 0.0
C2362 C 0.099 0.36726 0.63278 0.0
C2363 C 0.08865 0.39444 0.59211 0.0
C2364 C 0.08697 0.37512 0.68594 0.0
C2365 C 0.13197 0.35292 0.70414 0.0
N2366 N 0.09036 0.38974 0.62184 0.0
N2367 N 0.12544 0.35355 0.67483 0.0
loop_
_geom_bond_atom_site_label_1
_geom_bond_atom_site_label_2
_geom_bond_distance
_geom_bond_site_symmetry_2
_ccdc_geom_bond_type
Dy0 O4 2.398 . S
Dy0 O5 2.491 . S
Dy0 O6 2.403 . S
Dy0 O7 2.664 . S
Dy0 O11 2.326 . S
Dy0 O15 2.310 . S
Dy0 O16 2.351 . S
C1 O12 1.185 . S
C1 O13 1.355 . S
C2 O4 1.185 . S
C2 O5 1.355 . S
Dy3 O7 2.310 . S
Dy3 O10 2.351 . S
Dy3 O12 2.398 . S
Dy3 O13 2.491 . S
Dy3 O14 2.403 . S
Dy3 O15 2.664 . S
Dy3 O17 2.326 . S
O4 Dy0 2.398 . S
O4 C2 1.185 . S
O5 Dy0 2.491 . S
O5 C2 1.355 . S
O6 Dy0 2.403 . S
O6 C8 1.254 . S
O7 Dy0 2.664 . S
O7 Dy3 2.310 . S
O7 C8 1.268 . S
C8 O6 1.254 . S
C8 O7 1.268 . S
C9 O14 1.254 . S
C9 O15 1.268 . S
O10 Dy3 2.351 . S
O10 C18 1.249 . S
O11 Dy0 2.326 . S
O11 C18 1.267 . S
O12 C1 1.185 . S
O12 Dy3 2.398 . S
O13 C1 1.355 . S
O13 Dy3 2.491 . S
O14 Dy3 2.403 . S
O14 C9 1.254 . S
O15 Dy0 2.310 . S
O15 Dy3 2.664 . S
O15 C9 1.268 . S
O16 Dy0 2.351 . S
O16 C19 1.249 . S
O17 Dy3 2.326 . S
O17 C19 1.267 . S
C18 O10 1.249 . S
C18 O11 1.267 . S
C19 O16 1.249 . S
C19 O17 1.267 . S
Dy20 O24 2.398 . S
Dy20 O25 2.491 . S
Dy20 O26 2.403 . S
Dy20 O27 2.664 . S
Dy20 O31 2.326 . S
Dy20 O35 2.310 . S
Dy20 O36 2.351 . S
C21 O32 1.185 . S
C21 O33 1.355 . S
C22 O24 1.185 . S
C22 O25 1.355 . S
Dy23 O27 2.310 . S
Dy23 O30 2.351 . S
Dy23 O32 2.398 . S
Dy23 O33 2.491 . S
Dy23 O34 2.403 . S
Dy23 O35 2.664 . S
Dy23 O37 2.326 . S
O24 Dy20 2.398 . S
O24 C22 1.185 . S
O25 Dy20 2.491 . S
O25 C22 1.355 . S
O26 Dy20 2.403 . S
O26 C28 1.254 . S
O27 Dy20 2.664 . S
O27 Dy23 2.310 . S
O27 C28 1.268 . S
C28 O26 1.254 . S
C28 O27 1.268 . S
C29 O34 1.254 . S
C29 O35 1.268 . S
O30 Dy23 2.351 . S
O30 C38 1.249 . S
O31 Dy20 2.326 . S
O31 C38 1.267 . S
O32 C21 1.185 . S
O32 Dy23 2.398 . S
O33 C21 1.355 . S
O33 Dy23 2.491 . S
O34 Dy23 2.403 . S
O34 C29 1.254 . S
O35 Dy20 2.310 . S
O35 Dy23 2.664 . S
O35 C29 1.268 . S
O36 Dy20 2.351 . S
O36 C39 1.249 . S
O37 Dy23 2.326 . S
O37 C39 1.267 . S
C38 O30 1.249 . S
C38 O31 1.267 . S
C39 O36 1.249 . S
C39 O37 1.267 . S
Dy40 O44 2.398 . S
Dy40 O45 2.491 . S
Dy40 O46 2.403 . S
Dy40 O47 2.664 . S
Dy40 O51 2.326 . S
Dy40 O55 2.310 . S
Dy40 O56 2.351 . S
C41 O52 1.185 . S
C41 O53 1.355 . S
C42 O44 1.185 . S
C42 O45 1.355 . S
Dy43 O47 2.310 . S
Dy43 O50 2.351 . S
Dy43 O52 2.398 . S
Dy43 O53 2.491 . S
Dy43 O54 2.403 . S
Dy43 O55 2.664 . S
Dy43 O57 2.326 . S
O44 Dy40 2.398 . S
O44 C42 1.185 . S
O45 Dy40 2.491 . S
O45 C42 1.355 . S
O46 Dy40 2.403 . S
O46 C48 1.254 . S
O47 Dy40 2.664 . S
O47 Dy43 2.310 . S
O47 C48 1.268 . S
C48 O46 1.254 . S
C48 O47 1.268 . S
C49 O54 1.254 . S
C49 O55 1.268 . S
O50 Dy43 2.351 . S
O50 C58 1.249 . S
O51 Dy40 2.326 . S
O51 C58 1.267 . S
O52 C41 1.185 . S
O52 Dy43 2.398 . S
O53 C41 1.355 . S
O53 Dy43 2.491 . S
O54 Dy43 2.403 . S
O54 C49 1.254 . S
O55 Dy40 2.310 . S
O55 Dy43 2.664 . S
O55 C49 1.268 . S
O56 Dy40 2.351 . S
O56 C59 1.249 . S
O57 Dy43 2.326 . S
O57 C59 1.267 . S
C58 O50 1.249 . S
C58 O51 1.267 . S
C59 O56 1.249 . S
C59 O57 1.267 . S
Dy60 O64 2.398 . S
Dy60 O65 2.491 1_554 S
Dy60 O66 2.403 . S
Dy60 O67 2.664 . S
Dy60 O71 2.326 . S
Dy60 O75 2.310 . S
Dy60 O76 2.351 . S
C61 O72 1.185 . S
C61 O73 1.355 . S
C62 O64 1.185 1_556 S
C62 O65 1.355 . S
Dy63 O67 2.310 . S
Dy63 O70 2.370 . S
Dy63 O72 2.398 . S
Dy63 O73 2.491 . S
Dy63 O74 2.403 . S
Dy63 O75 2.664 . S
Dy63 O77 2.326 . S
O64 Dy60 2.398 . S
O64 C62 1.185 1_554 S
O65 Dy60 2.491 1_556 S
O65 C62 1.355 . S
O66 Dy60 2.403 . S
O66 C68 1.254 . S
O67 Dy60 2.664 . S
O67 Dy63 2.310 . S
O67 C68 1.268 . S
C68 O66 1.254 . S
C68 O67 1.268 . S
C69 O74 1.254 . S
C69 O75 1.268 . S
O70 Dy63 2.370 . S
O70 C78 1.241 1_554 S
O71 Dy60 2.326 . S
O71 C78 1.267 1_554 S
O72 C61 1.185 . S
O72 Dy63 2.398 . S
O73 C61 1.355 . S
O73 Dy63 2.491 . S
O74 Dy63 2.403 . S
O74 C69 1.254 . S
O75 Dy60 2.310 . S
O75 Dy63 2.664 . S
O75 C69 1.268 . S
O76 Dy60 2.351 . S
O76 C79 1.249 . S
O77 Dy63 2.326 . S
O77 C79 1.267 . S
C78 O70 1.241 1_556 S
C78 O71 1.267 1_556 S
C79 O76 1.249 . S
C79 O77 1.267 . S
Dy80 O84 2.398 . S
Dy80 O85 2.491 . S
Dy80 O86 2.403 . S
Dy80 O87 2.664 . S
Dy80 O91 2.326 . S
Dy80 O95 2.310 . S
Dy80 O96 2.351 . S
C81 O92 1.185 . S
C81 O93 1.355 . S
C82 O84 1.185 . S
C82 O85 1.355 . S
Dy83 O87 2.310 . S
Dy83 O90 2.351 . S
Dy83 O92 2.398 . S
Dy83 O93 2.491 . S
Dy83 O94 2.403 . S
Dy83 O95 2.664 . S
Dy83 O97 2.326 . S
O84 Dy80 2.398 . S
O84 C82 1.185 . S
O85 Dy80 2.491 . S
O85 C82 1.355 . S
O86 Dy80 2.403 . S
O86 C88 1.254 . S
O87 Dy80 2.664 . S
O87 Dy83 2.310 . S
O87 C88 1.268 . S
C88 O86 1.254 . S
C88 O87 1.268 . S
C89 O94 1.254 . S
C89 O95 1.268 . S
O90 Dy83 2.351 . S
O90 C98 1.249 . S
O91 Dy80 2.326 . S
O91 C98 1.267 . S
O92 C81 1.185 . S
O92 Dy83 2.398 . S
O93 C81 1.355 . S
O93 Dy83 2.491 . S
O94 Dy83 2.403 . S
O94 C89 1.254 . S
O95 Dy80 2.310 . S
O95 Dy83 2.664 . S
O95 C89 1.268 . S
O96 Dy80 2.351 . S
O96 C99 1.249 . S
O97 Dy83 2.326 . S
O97 C99 1.267 . S
C98 O90 1.249 . S
C98 O91 1.267 . S
C99 O96 1.249 . S
C99 O97 1.267 . S
Dy100 O104 2.398 . S
Dy100 O105 2.491 . S
Dy100 O106 2.403 . S
Dy100 O107 2.664 . S
Dy100 O111 2.326 . S
Dy100 O115 2.310 . S
Dy100 O116 2.351 . S
C101 O112 1.185 . S
C101 O113 1.355 . S
C102 O104 1.185 . S
C102 O105 1.355 . S
Dy103 O107 2.310 . S
Dy103 O110 2.351 . S
Dy103 O112 2.398 . S
Dy103 O113 2.491 . S
Dy103 O114 2.403 . S
Dy103 O115 2.664 . S
Dy103 O117 2.326 . S
O104 Dy100 2.398 . S
O104 C102 1.185 . S
O105 Dy100 2.491 . S
O105 C102 1.355 . S
O106 Dy100 2.403 . S
O106 C108 1.254 . S
O107 Dy100 2.664 . S
O107 Dy103 2.310 . S
O107 C108 1.268 . S
C108 O106 1.254 . S
C108 O107 1.268 . S
C109 O114 1.254 . S
C109 O115 1.268 . S
O110 Dy103 2.351 . S
O110 C118 1.249 . S
O111 Dy100 2.326 . S
O111 C118 1.267 . S
O112 C101 1.185 . S
O112 Dy103 2.398 . S
O113 C101 1.355 . S
O113 Dy103 2.491 . S
O114 Dy103 2.403 . S
O114 C109 1.254 . S
O115 Dy100 2.310 . S
O115 Dy103 2.664 . S
O115 C109 1.268 . S
O116 Dy100 2.351 . S
O116 C119 1.249 . S
O117 Dy103 2.326 . S
O117 C119 1.267 . S
C118 O110 1.249 . S
C118 O111 1.267 . S
C119 O116 1.249 . S
C119 O117 1.267 . S
Dy120 O124 2.398 . S
Dy120 O125 2.491 . S
Dy120 O126 2.403 . S
Dy120 O127 2.664 . S
Dy120 O131 2.326 . S
Dy120 O135 2.310 . S
Dy120 O136 2.351 . S
C121 O132 1.185 . S
C121 O133 1.355 . S
C122 O124 1.185 . S
C122 O125 1.355 . S
Dy123 O127 2.310 . S
Dy123 O130 2.351 . S
Dy123 O132 2.398 . S
Dy123 O133 2.491 . S
Dy123 O134 2.403 . S
Dy123 O135 2.664 . S
Dy123 O137 2.326 . S
O124 Dy120 2.398 . S
O124 C122 1.185 . S
O125 Dy120 2.491 . S
O125 C122 1.355 . S
O126 Dy120 2.403 . S
O126 C128 1.254 . S
O127 Dy120 2.664 . S
O127 Dy123 2.310 . S
O127 C128 1.268 . S
C128 O126 1.254 . S
C128 O127 1.268 . S
C129 O134 1.254 . S
C129 O135 1.268 . S
O130 Dy123 2.351 . S
O130 C138 1.249 . S
O131 Dy120 2.326 . S
O131 C138 1.267 . S
O132 C121 1.185 . S
O132 Dy123 2.398 . S
O133 C121 1.355 . S
O133 Dy123 2.491 . S
O134 Dy123 2.403 . S
O134 C129 1.254 . S
O135 Dy120 2.310 . S
O135 Dy123 2.664 . S
O135 C129 1.268 . S
O136 Dy120 2.351 . S
O136 C139 1.249 . S
O137 Dy123 2.326 . S
O137 C139 1.267 . S
C138 O130 1.249 . S
C138 O131 1.267 . S
C139 O136 1.249 . S
C139 O137 1.267 . S
Dy140 O144 2.398 . S
Dy140 O145 2.491 1_556 S
Dy140 O146 2.403 . S
Dy140 O147 2.664 . S
Dy140 O151 2.326 . S
Dy140 O155 2.310 . S
Dy140 O156 2.351 . S
C141 O152 1.185 . S
C141 O153 1.355 . S
C142 O144 1.185 1_554 S
C142 O145 1.355 . S
Dy143 O147 2.310 . S
Dy143 O150 2.370 . S
Dy143 O152 2.398 . S
Dy143 O153 2.491 . S
Dy143 O154 2.403 . S
Dy143 O155 2.664 . S
Dy143 O157 2.326 . S
O144 Dy140 2.398 . S
O144 C142 1.185 1_556 S
O145 Dy140 2.491 1_554 S
O145 C142 1.355 . S
O146 Dy140 2.403 . S
O146 C148 1.254 . S
O147 Dy140 2.664 . S
O147 Dy143 2.310 . S
O147 C148 1.268 . S
C148 O146 1.254 . S
C148 O147 1.268 . S
C149 O154 1.254 . S
C149 O155 1.268 . S
O150 Dy143 2.370 . S
O150 C158 1.241 1_556 S
O151 Dy140 2.326 . S
O151 C158 1.267 1_556 S
O152 C141 1.185 . S
O152 Dy143 2.398 . S
O153 C141 1.355 . S
O153 Dy143 2.491 . S
O154 Dy143 2.403 . S
O154 C149 1.254 . S
O155 Dy140 2.310 . S
O155 Dy143 2.664 . S
O155 C149 1.268 . S
O156 Dy140 2.351 . S
O156 C159 1.249 . S
O157 Dy143 2.326 . S
O157 C159 1.267 . S
C158 O150 1.241 1_554 S
C158 O151 1.267 1_554 S
C159 O156 1.249 . S
C159 O157 1.267 . S
Dy160 O164 2.398 . S
Dy160 O165 2.491 . S
Dy160 O166 2.403 . S
Dy160 O167 2.664 . S
Dy160 O171 2.326 . S
Dy160 O175 2.310 . S
Dy160 O176 2.351 . S
C161 O172 1.185 . S
C161 O173 1.355 . S
C162 O164 1.185 . S
C162 O165 1.355 . S
Dy163 O167 2.310 . S
Dy163 O170 2.351 . S
Dy163 O172 2.398 . S
Dy163 O173 2.491 . S
Dy163 O174 2.403 . S
Dy163 O175 2.664 . S
Dy163 O177 2.326 . S
O164 Dy160 2.398 . S
O164 C162 1.185 . S
O165 Dy160 2.491 . S
O165 C162 1.355 . S
O166 Dy160 2.403 . S
O166 C168 1.254 . S
O167 Dy160 2.664 . S
O167 Dy163 2.310 . S
O167 C168 1.268 . S
C168 O166 1.254 . S
C168 O167 1.268 . S
C169 O174 1.254 . S
C169 O175 1.268 . S
O170 Dy163 2.351 . S
O170 C178 1.249 . S
O171 Dy160 2.326 . S
O171 C178 1.267 . S
O172 C161 1.185 . S
O172 Dy163 2.398 . S
O173 C161 1.355 . S
O173 Dy163 2.491 . S
O174 Dy163 2.403 . S
O174 C169 1.254 . S
O175 Dy160 2.310 . S
O175 Dy163 2.664 . S
O175 C169 1.268 . S
O176 Dy160 2.351 . S
O176 C179 1.249 . S
O177 Dy163 2.326 . S
O177 C179 1.267 . S
C178 O170 1.249 . S
C178 O171 1.267 . S
C179 O176 1.249 . S
C179 O177 1.267 . S
Dy180 O184 2.398 . S
Dy180 O185 2.491 . S
Dy180 O186 2.403 . S
Dy180 O187 2.664 . S
Dy180 O191 2.326 . S
Dy180 O195 2.310 . S
Dy180 O196 2.351 . S
C181 O192 1.185 . S
C181 O193 1.355 . S
C182 O184 1.185 . S
C182 O185 1.355 . S
Dy183 O187 2.310 . S
Dy183 O190 2.351 . S
Dy183 O192 2.398 . S
Dy183 O193 2.491 . S
Dy183 O194 2.403 . S
Dy183 O195 2.664 . S
Dy183 O197 2.326 . S
O184 Dy180 2.398 . S
O184 C182 1.185 . S
O185 Dy180 2.491 . S
O185 C182 1.355 . S
O186 Dy180 2.403 . S
O186 C188 1.254 . S
O187 Dy180 2.664 . S
O187 Dy183 2.310 . S
O187 C188 1.268 . S
C188 O186 1.254 . S
C188 O187 1.268 . S
C189 O194 1.254 . S
C189 O195 1.268 . S
O190 Dy183 2.351 . S
O190 C198 1.249 . S
O191 Dy180 2.326 . S
O191 C198 1.267 . S
O192 C181 1.185 . S
O192 Dy183 2.398 . S
O193 C181 1.355 . S
O193 Dy183 2.491 . S
O194 Dy183 2.403 . S
O194 C189 1.254 . S
O195 Dy180 2.310 . S
O195 Dy183 2.664 . S
O195 C189 1.268 . S
O196 Dy180 2.351 . S
O196 C199 1.249 . S
O197 Dy183 2.326 . S
O197 C199 1.267 . S
C198 O190 1.249 . S
C198 O191 1.267 . S
C199 O196 1.249 . S
C199 O197 1.267 . S
Dy200 O204 2.398 . S
Dy200 O205 2.491 . S
Dy200 O206 2.403 . S
Dy200 O207 2.664 . S
Dy200 O211 2.326 . S
Dy200 O215 2.310 . S
Dy200 O216 2.351 . S
C201 O212 1.185 . S
C201 O213 1.355 . S
C202 O204 1.185 . S
C202 O205 1.355 . S
Dy203 O207 2.310 . S
Dy203 O210 2.351 . S
Dy203 O212 2.398 . S
Dy203 O213 2.491 . S
Dy203 O214 2.403 . S
Dy203 O215 2.664 . S
Dy203 O217 2.326 . S
O204 Dy200 2.398 . S
O204 C202 1.185 . S
O205 Dy200 2.491 . S
O205 C202 1.355 . S
O206 Dy200 2.403 . S
O206 C208 1.254 . S
O207 Dy200 2.664 . S
O207 Dy203 2.310 . S
O207 C208 1.268 . S
C208 O206 1.254 . S
C208 O207 1.268 . S
C209 O214 1.254 . S
C209 O215 1.268 . S
O210 Dy203 2.351 . S
O210 C218 1.249 . S
O211 Dy200 2.326 . S
O211 C218 1.267 . S
O212 C201 1.185 . S
O212 Dy203 2.398 . S
O213 C201 1.355 . S
O213 Dy203 2.491 . S
O214 Dy203 2.403 . S
O214 C209 1.254 . S
O215 Dy200 2.310 . S
O215 Dy203 2.664 . S
O215 C209 1.268 . S
O216 Dy200 2.351 . S
O216 C219 1.249 . S
O217 Dy203 2.326 . S
O217 C219 1.267 . S
C218 O210 1.249 . S
C218 O211 1.267 . S
C219 O216 1.249 . S
C219 O217 1.267 . S
Dy220 O224 2.398 . S
Dy220 O225 2.491 . S
Dy220 O226 2.403 . S
Dy220 O227 2.664 . S
Dy220 O231 2.326 . S
Dy220 O235 2.310 . S
Dy220 O236 2.370 . S
C221 O232 1.185 1_554 S
C221 O233 1.355 . S
C222 O224 1.185 . S
C222 O225 1.355 . S
Dy223 O227 2.310 . S
Dy223 O230 2.351 . S
Dy223 O232 2.398 . S
Dy223 O233 2.491 1_556 S
Dy223 O234 2.403 . S
Dy223 O235 2.664 . S
Dy223 O237 2.326 . S
O224 Dy220 2.398 . S
O224 C222 1.185 . S
O225 Dy220 2.491 . S
O225 C222 1.355 . S
O226 Dy220 2.403 . S
O226 C228 1.254 . S
O227 Dy220 2.664 . S
O227 Dy223 2.310 . S
O227 C228 1.268 . S
C228 O226 1.254 . S
C228 O227 1.268 . S
C229 O234 1.254 . S
C229 O235 1.268 . S
O230 Dy223 2.351 . S
O230 C238 1.249 . S
O231 Dy220 2.326 . S
O231 C238 1.267 . S
O232 C221 1.185 1_556 S
O232 Dy223 2.398 . S
O233 C221 1.355 . S
O233 Dy223 2.491 1_554 S
O234 Dy223 2.403 . S
O234 C229 1.254 . S
O235 Dy220 2.310 . S
O235 Dy223 2.664 . S
O235 C229 1.268 . S
O236 Dy220 2.370 . S
O236 C239 1.241 1_556 S
O237 Dy223 2.326 . S
O237 C239 1.267 1_556 S
C238 O230 1.249 . S
C238 O231 1.267 . S
C239 O236 1.241 1_554 S
C239 O237 1.267 1_554 S
Dy240 O244 2.398 . S
Dy240 O245 2.491 . S
Dy240 O246 2.403 . S
Dy240 O247 2.664 . S
Dy240 O251 2.326 . S
Dy240 O255 2.310 . S
Dy240 O256 2.351 . S
C241 O252 1.185 . S
C241 O253 1.355 . S
C242 O244 1.185 . S
C242 O245 1.355 . S
Dy243 O247 2.310 . S
Dy243 O250 2.351 . S
Dy243 O252 2.398 . S
Dy243 O253 2.491 . S
Dy243 O254 2.403 . S
Dy243 O255 2.664 . S
Dy243 O257 2.326 . S
O244 Dy240 2.398 . S
O244 C242 1.185 . S
O245 Dy240 2.491 . S
O245 C242 1.355 . S
O246 Dy240 2.403 . S
O246 C248 1.254 . S
O247 Dy240 2.664 . S
O247 Dy243 2.310 . S
O247 C248 1.268 . S
C248 O246 1.254 . S
C248 O247 1.268 . S
C249 O254 1.254 . S
C249 O255 1.268 . S
O250 Dy243 2.351 . S
O250 C258 1.249 . S
O251 Dy240 2.326 . S
O251 C258 1.267 . S
O252 C241 1.185 . S
O252 Dy243 2.398 . S
O253 C241 1.355 . S
O253 Dy243 2.491 . S
O254 Dy243 2.403 . S
O254 C249 1.254 . S
O255 Dy240 2.310 . S
O255 Dy243 2.664 . S
O255 C249 1.268 . S
O256 Dy240 2.351 . S
O256 C259 1.249 . S
O257 Dy243 2.326 . S
O257 C259 1.267 . S
C258 O250 1.249 . S
C258 O251 1.267 . S
C259 O256 1.249 . S
C259 O257 1.267 . S
Dy260 O264 2.398 . S
Dy260 O265 2.491 . S
Dy260 O266 2.403 . S
Dy260 O267 2.664 . S
Dy260 O271 2.326 . S
Dy260 O275 2.310 . S
Dy260 O276 2.351 . S
C261 O272 1.185 . S
C261 O273 1.355 . S
C262 O264 1.185 . S
C262 O265 1.355 . S
Dy263 O267 2.310 . S
Dy263 O270 2.351 . S
Dy263 O272 2.398 . S
Dy263 O273 2.491 . S
Dy263 O274 2.403 . S
Dy263 O275 2.664 . S
Dy263 O277 2.326 . S
O264 Dy260 2.398 . S
O264 C262 1.185 . S
O265 Dy260 2.491 . S
O265 C262 1.355 . S
O266 Dy260 2.403 . S
O266 C268 1.254 . S
O267 Dy260 2.664 . S
O267 Dy263 2.310 . S
O267 C268 1.268 . S
C268 O266 1.254 . S
C268 O267 1.268 . S
C269 O274 1.254 . S
C269 O275 1.268 . S
O270 Dy263 2.351 . S
O270 C278 1.249 . S
O271 Dy260 2.326 . S
O271 C278 1.267 . S
O272 C261 1.185 . S
O272 Dy263 2.398 . S
O273 C261 1.355 . S
O273 Dy263 2.491 . S
O274 Dy263 2.403 . S
O274 C269 1.254 . S
O275 Dy260 2.310 . S
O275 Dy263 2.664 . S
O275 C269 1.268 . S
O276 Dy260 2.351 . S
O276 C279 1.249 . S
O277 Dy263 2.326 . S
O277 C279 1.267 . S
C278 O270 1.249 . S
C278 O271 1.267 . S
C279 O276 1.249 . S
C279 O277 1.267 . S
Dy280 O284 2.398 . S
Dy280 O285 2.491 . S
Dy280 O286 2.403 . S
Dy280 O287 2.664 . S
Dy280 O291 2.326 . S
Dy280 O295 2.310 . S
Dy280 O296 2.351 . S
C281 O292 1.185 . S
C281 O293 1.355 . S
C282 O284 1.185 . S
C282 O285 1.355 . S
Dy283 O287 2.310 . S
Dy283 O290 2.351 . S
Dy283 O292 2.398 . S
Dy283 O293 2.491 . S
Dy283 O294 2.403 . S
Dy283 O295 2.664 . S
Dy283 O297 2.326 . S
O284 Dy280 2.398 . S
O284 C282 1.185 . S
O285 Dy280 2.491 . S
O285 C282 1.355 . S
O286 Dy280 2.403 . S
O286 C288 1.254 . S
O287 Dy280 2.664 . S
O287 Dy283 2.310 . S
O287 C288 1.268 . S
C288 O286 1.254 . S
C288 O287 1.268 . S
C289 O294 1.254 . S
C289 O295 1.268 . S
O290 Dy283 2.351 . S
O290 C298 1.249 . S
O291 Dy280 2.326 . S
O291 C298 1.267 . S
O292 C281 1.185 . S
O292 Dy283 2.398 . S
O293 C281 1.355 . S
O293 Dy283 2.491 . S
O294 Dy283 2.403 . S
O294 C289 1.254 . S
O295 Dy280 2.310 . S
O295 Dy283 2.664 . S
O295 C289 1.268 . S
O296 Dy280 2.351 . S
O296 C299 1.249 . S
O297 Dy283 2.326 . S
O297 C299 1.267 . S
C298 O290 1.249 . S
C298 O291 1.267 . S
C299 O296 1.249 . S
C299 O297 1.267 . S
Dy300 O304 2.398 . S
Dy300 O305 2.491 . S
Dy300 O306 2.403 . S
Dy300 O307 2.664 . S
Dy300 O311 2.326 . S
Dy300 O315 2.310 . S
Dy300 O316 2.370 . S
C301 O312 1.185 1_556 S
C301 O313 1.355 . S
C302 O304 1.185 . S
C302 O305 1.355 . S
Dy303 O307 2.310 . S
Dy303 O310 2.351 . S
Dy303 O312 2.398 . S
Dy303 O313 2.491 1_554 S
Dy303 O314 2.403 . S
Dy303 O315 2.664 . S
Dy303 O317 2.326 . S
O304 Dy300 2.398 . S
O304 C302 1.185 . S
O305 Dy300 2.491 . S
O305 C302 1.355 . S
O306 Dy300 2.403 . S
O306 C308 1.254 . S
O307 Dy300 2.664 . S
O307 Dy303 2.310 . S
O307 C308 1.268 . S
C308 O306 1.254 . S
C308 O307 1.268 . S
C309 O314 1.254 . S
C309 O315 1.268 . S
O310 Dy303 2.351 . S
O310 C318 1.249 . S
O311 Dy300 2.326 . S
O311 C318 1.267 . S
O312 C301 1.185 1_554 S
O312 Dy303 2.398 . S
O313 C301 1.355 . S
O313 Dy303 2.491 1_556 S
O314 Dy303 2.403 . S
O314 C309 1.254 . S
O315 Dy300 2.310 . S
O315 Dy303 2.664 . S
O315 C309 1.268 . S
O316 Dy300 2.370 . S
O316 C319 1.241 1_554 S
O317 Dy303 2.326 . S
O317 C319 1.267 1_554 S
C318 O310 1.249 . S
C318 O311 1.267 . S
C319 O316 1.241 1_556 S
C319 O317 1.267 1_556 S
Dy320 O324 2.398 . S
Dy320 O325 2.491 . S
Dy320 O326 2.403 . S
Dy320 O327 2.664 . S
Dy320 O331 2.326 . S
Dy320 O335 2.310 . S
Dy320 O336 2.351 . S
C321 O332 1.185 . S
C321 O333 1.355 . S
C322 O324 1.185 . S
C322 O325 1.355 . S
Dy323 O327 2.310 . S
Dy323 O330 2.351 . S
Dy323 O332 2.398 . S
Dy323 O333 2.491 . S
Dy323 O334 2.403 . S
Dy323 O335 2.664 . S
Dy323 O337 2.326 . S
O324 Dy320 2.398 . S
O324 C322 1.185 . S
O325 Dy320 2.491 . S
O325 C322 1.355 . S
O326 Dy320 2.403 . S
O326 C328 1.254 . S
O327 Dy320 2.664 . S
O327 Dy323 2.310 . S
O327 C328 1.268 . S
C328 O326 1.254 . S
C328 O327 1.268 . S
C329 O334 1.254 . S
C329 O335 1.268 . S
O330 Dy323 2.351 . S
O330 C338 1.249 . S
O331 Dy320 2.326 . S
O331 C338 1.267 . S
O332 C321 1.185 . S
O332 Dy323 2.398 . S
O333 C321 1.355 . S
O333 Dy323 2.491 . S
O334 Dy323 2.403 . S
O334 C329 1.254 . S
O335 Dy320 2.310 . S
O335 Dy323 2.664 . S
O335 C329 1.268 . S
O336 Dy320 2.351 . S
O336 C339 1.249 . S
O337 Dy323 2.326 . S
O337 C339 1.267 . S
C338 O330 1.249 . S
C338 O331 1.267 . S
C339 O336 1.249 . S
C339 O337 1.267 . S
Dy340 O344 2.398 . S
Dy340 O345 2.491 1_554 S
Dy340 O346 2.403 . S
Dy340 O347 2.664 . S
Dy340 O351 2.326 . S
Dy340 O355 2.310 . S
Dy340 O356 2.351 . S
C341 O352 1.185 . S
C341 O353 1.355 . S
C342 O344 1.185 1_556 S
C342 O345 1.355 . S
Dy343 O347 2.310 . S
Dy343 O350 2.370 . S
Dy343 O352 2.398 . S
Dy343 O353 2.491 . S
Dy343 O354 2.403 . S
Dy343 O355 2.664 . S
Dy343 O357 2.326 . S
O344 Dy340 2.398 . S
O344 C342 1.185 1_554 S
O345 Dy340 2.491 1_556 S
O345 C342 1.355 . S
O346 Dy340 2.403 . S
O346 C348 1.254 . S
O347 Dy340 2.664 . S
O347 Dy343 2.310 . S
O347 C348 1.268 . S
C348 O346 1.254 . S
C348 O347 1.268 . S
C349 O354 1.254 . S
C349 O355 1.268 . S
O350 Dy343 2.370 . S
O350 C358 1.241 1_554 S
O351 Dy340 2.326 . S
O351 C358 1.267 1_554 S
O352 C341 1.185 . S
O352 Dy343 2.398 . S
O353 C341 1.355 . S
O353 Dy343 2.491 . S
O354 Dy343 2.403 . S
O354 C349 1.254 . S
O355 Dy340 2.310 . S
O355 Dy343 2.664 . S
O355 C349 1.268 . S
O356 Dy340 2.351 . S
O356 C359 1.249 . S
O357 Dy343 2.326 . S
O357 C359 1.267 . S
C358 O350 1.241 1_556 S
C358 O351 1.267 1_556 S
C359 O356 1.249 . S
C359 O357 1.267 . S
Dy360 O364 2.398 . S
Dy360 O365 2.491 . S
Dy360 O366 2.403 . S
Dy360 O367 2.664 . S
Dy360 O371 2.326 . S
Dy360 O375 2.310 . S
Dy360 O376 2.351 . S
C361 O372 1.185 . S
C361 O373 1.355 . S
C362 O364 1.185 . S
C362 O365 1.355 . S
Dy363 O367 2.310 . S
Dy363 O370 2.351 . S
Dy363 O372 2.398 . S
Dy363 O373 2.491 . S
Dy363 O374 2.403 . S
Dy363 O375 2.664 . S
Dy363 O377 2.326 . S
O364 Dy360 2.398 . S
O364 C362 1.185 . S
O365 Dy360 2.491 . S
O365 C362 1.355 . S
O366 Dy360 2.403 . S
O366 C368 1.254 . S
O367 Dy360 2.664 . S
O367 Dy363 2.310 . S
O367 C368 1.268 . S
C368 O366 1.254 . S
C368 O367 1.268 . S
C369 O374 1.254 . S
C369 O375 1.268 . S
O370 Dy363 2.351 . S
O370 C378 1.249 . S
O371 Dy360 2.326 . S
O371 C378 1.267 . S
O372 C361 1.185 . S
O372 Dy363 2.398 . S
O373 C361 1.355 . S
O373 Dy363 2.491 . S
O374 Dy363 2.403 . S
O374 C369 1.254 . S
O375 Dy360 2.310 . S
O375 Dy363 2.664 . S
O375 C369 1.268 . S
O376 Dy360 2.351 . S
O376 C379 1.249 . S
O377 Dy363 2.326 . S
O377 C379 1.267 . S
C378 O370 1.249 . S
C378 O371 1.267 . S
C379 O376 1.249 . S
C379 O377 1.267 . S
Dy380 O384 2.398 . S
Dy380 O385 2.491 . S
Dy380 O386 2.403 . S
Dy380 O387 2.664 . S
Dy380 O391 2.326 . S
Dy380 O395 2.310 . S
Dy380 O396 2.351 . S
C381 O392 1.185 . S
C381 O393 1.355 . S
C382 O384 1.185 . S
C382 O385 1.355 . S
Dy383 O387 2.310 . S
Dy383 O390 2.351 . S
Dy383 O392 2.398 . S
Dy383 O393 2.491 . S
Dy383 O394 2.403 . S
Dy383 O395 2.664 . S
Dy383 O397 2.326 . S
O384 Dy380 2.398 . S
O384 C382 1.185 . S
O385 Dy380 2.491 . S
O385 C382 1.355 . S
O386 Dy380 2.403 . S
O386 C388 1.254 . S
O387 Dy380 2.664 . S
O387 Dy383 2.310 . S
O387 C388 1.268 . S
C388 O386 1.254 . S
C388 O387 1.268 . S
C389 O394 1.254 . S
C389 O395 1.268 . S
O390 Dy383 2.351 . S
O390 C398 1.249 . S
O391 Dy380 2.326 . S
O391 C398 1.267 . S
O392 C381 1.185 . S
O392 Dy383 2.398 . S
O393 C381 1.355 . S
O393 Dy383 2.491 . S
O394 Dy383 2.403 . S
O394 C389 1.254 . S
O395 Dy380 2.310 . S
O395 Dy383 2.664 . S
O395 C389 1.268 . S
O396 Dy380 2.351 . S
O396 C399 1.249 . S
O397 Dy383 2.326 . S
O397 C399 1.267 . S
C398 O390 1.249 . S
C398 O391 1.267 . S
C399 O396 1.249 . S
C399 O397 1.267 . S
Dy400 O404 2.398 . S
Dy400 O405 2.491 . S
Dy400 O406 2.403 . S
Dy400 O407 2.664 . S
Dy400 O411 2.326 . S
Dy400 O415 2.310 . S
Dy400 O416 2.351 . S
C401 O412 1.185 . S
C401 O413 1.355 . S
C402 O404 1.185 . S
C402 O405 1.355 . S
Dy403 O407 2.310 . S
Dy403 O410 2.351 . S
Dy403 O412 2.398 . S
Dy403 O413 2.491 . S
Dy403 O414 2.403 . S
Dy403 O415 2.664 . S
Dy403 O417 2.326 . S
O404 Dy400 2.398 . S
O404 C402 1.185 . S
O405 Dy400 2.491 . S
O405 C402 1.355 . S
O406 Dy400 2.403 . S
O406 C408 1.254 . S
O407 Dy400 2.664 . S
O407 Dy403 2.310 . S
O407 C408 1.268 . S
C408 O406 1.254 . S
C408 O407 1.268 . S
C409 O414 1.254 . S
C409 O415 1.268 . S
O410 Dy403 2.351 . S
O410 C418 1.249 . S
O411 Dy400 2.326 . S
O411 C418 1.267 . S
O412 C401 1.185 . S
O412 Dy403 2.398 . S
O413 C401 1.355 . S
O413 Dy403 2.491 . S
O414 Dy403 2.403 . S
O414 C409 1.254 . S
O415 Dy400 2.310 . S
O415 Dy403 2.664 . S
O415 C409 1.268 . S
O416 Dy400 2.351 . S
O416 C419 1.249 . S
O417 Dy403 2.326 . S
O417 C419 1.267 . S
C418 O410 1.249 . S
C418 O411 1.267 . S
C419 O416 1.249 . S
C419 O417 1.267 . S
Dy420 O424 2.398 . S
Dy420 O425 2.491 1_556 S
Dy420 O426 2.403 . S
Dy420 O427 2.664 . S
Dy420 O431 2.326 . S
Dy420 O435 2.310 . S
Dy420 O436 2.351 . S
C421 O432 1.185 . S
C421 O433 1.355 . S
C422 O424 1.185 1_554 S
C422 O425 1.355 . S
Dy423 O427 2.310 . S
Dy423 O430 2.370 . S
Dy423 O432 2.398 . S
Dy423 O433 2.491 . S
Dy423 O434 2.403 . S
Dy423 O435 2.664 . S
Dy423 O437 2.326 . S
O424 Dy420 2.398 . S
O424 C422 1.185 1_556 S
O425 Dy420 2.491 1_554 S
O425 C422 1.355 . S
O426 Dy420 2.403 . S
O426 C428 1.254 . S
O427 Dy420 2.664 . S
O427 Dy423 2.310 . S
O427 C428 1.268 . S
C428 O426 1.254 . S
C428 O427 1.268 . S
C429 O434 1.254 . S
C429 O435 1.268 . S
O430 Dy423 2.370 . S
O430 C438 1.241 1_556 S
O431 Dy420 2.326 . S
O431 C438 1.267 1_556 S
O432 C421 1.185 . S
O432 Dy423 2.398 . S
O433 C421 1.355 . S
O433 Dy423 2.491 . S
O434 Dy423 2.403 . S
O434 C429 1.254 . S
O435 Dy420 2.310 . S
O435 Dy423 2.664 . S
O435 C429 1.268 . S
O436 Dy420 2.351 . S
O436 C439 1.249 . S
O437 Dy423 2.326 . S
O437 C439 1.267 . S
C438 O430 1.241 1_554 S
C438 O431 1.267 1_554 S
C439 O436 1.249 . S
C439 O437 1.267 . S
Dy440 O444 2.398 . S
Dy440 O445 2.491 . S
Dy440 O446 2.403 . S
Dy440 O447 2.664 . S
Dy440 O451 2.326 . S
Dy440 O455 2.310 . S
Dy440 O456 2.351 . S
C441 O452 1.185 . S
C441 O453 1.355 . S
C442 O444 1.185 . S
C442 O445 1.355 . S
Dy443 O447 2.310 . S
Dy443 O450 2.351 . S
Dy443 O452 2.398 . S
Dy443 O453 2.491 . S
Dy443 O454 2.403 . S
Dy443 O455 2.664 . S
Dy443 O457 2.326 . S
O444 Dy440 2.398 . S
O444 C442 1.185 . S
O445 Dy440 2.491 . S
O445 C442 1.355 . S
O446 Dy440 2.403 . S
O446 C448 1.254 . S
O447 Dy440 2.664 . S
O447 Dy443 2.310 . S
O447 C448 1.268 . S
C448 O446 1.254 . S
C448 O447 1.268 . S
C449 O454 1.254 . S
C449 O455 1.268 . S
O450 Dy443 2.351 . S
O450 C458 1.249 . S
O451 Dy440 2.326 . S
O451 C458 1.267 . S
O452 C441 1.185 . S
O452 Dy443 2.398 . S
O453 C441 1.355 . S
O453 Dy443 2.491 . S
O454 Dy443 2.403 . S
O454 C449 1.254 . S
O455 Dy440 2.310 . S
O455 Dy443 2.664 . S
O455 C449 1.268 . S
O456 Dy440 2.351 . S
O456 C459 1.249 . S
O457 Dy443 2.326 . S
O457 C459 1.267 . S
C458 O450 1.249 . S
C458 O451 1.267 . S
C459 O456 1.249 . S
C459 O457 1.267 . S
Dy460 O464 2.398 . S
Dy460 O465 2.491 . S
Dy460 O466 2.403 . S
Dy460 O467 2.664 . S
Dy460 O471 2.326 . S
Dy460 O475 2.310 . S
Dy460 O476 2.351 . S
C461 O472 1.185 . S
C461 O473 1.355 . S
C462 O464 1.185 . S
C462 O465 1.355 . S
Dy463 O467 2.310 . S
Dy463 O470 2.351 . S
Dy463 O472 2.398 . S
Dy463 O473 2.491 . S
Dy463 O474 2.403 . S
Dy463 O475 2.664 . S
Dy463 O477 2.326 . S
O464 Dy460 2.398 . S
O464 C462 1.185 . S
O465 Dy460 2.491 . S
O465 C462 1.355 . S
O466 Dy460 2.403 . S
O466 C468 1.254 . S
O467 Dy460 2.664 . S
O467 Dy463 2.310 . S
O467 C468 1.268 . S
C468 O466 1.254 . S
C468 O467 1.268 . S
C469 O474 1.254 . S
C469 O475 1.268 . S
O470 Dy463 2.351 . S
O470 C478 1.249 . S
O471 Dy460 2.326 . S
O471 C478 1.267 . S
O472 C461 1.185 . S
O472 Dy463 2.398 . S
O473 C461 1.355 . S
O473 Dy463 2.491 . S
O474 Dy463 2.403 . S
O474 C469 1.254 . S
O475 Dy460 2.310 . S
O475 Dy463 2.664 . S
O475 C469 1.268 . S
O476 Dy460 2.351 . S
O476 C479 1.249 . S
O477 Dy463 2.326 . S
O477 C479 1.267 . S
C478 O470 1.249 . S
C478 O471 1.267 . S
C479 O476 1.249 . S
C479 O477 1.267 . S
Dy480 O484 2.398 . S
Dy480 O485 2.491 . S
Dy480 O486 2.403 . S
Dy480 O487 2.664 . S
Dy480 O491 2.326 . S
Dy480 O495 2.310 . S
Dy480 O496 2.351 . S
C481 O492 1.185 . S
C481 O493 1.355 . S
C482 O484 1.185 . S
C482 O485 1.355 . S
Dy483 O487 2.310 . S
Dy483 O490 2.351 . S
Dy483 O492 2.398 . S
Dy483 O493 2.491 . S
Dy483 O494 2.403 . S
Dy483 O495 2.664 . S
Dy483 O497 2.326 . S
O484 Dy480 2.398 . S
O484 C482 1.185 . S
O485 Dy480 2.491 . S
O485 C482 1.355 . S
O486 Dy480 2.403 . S
O486 C488 1.254 . S
O487 Dy480 2.664 . S
O487 Dy483 2.310 . S
O487 C488 1.268 . S
C488 O486 1.254 . S
C488 O487 1.268 . S
C489 O494 1.254 . S
C489 O495 1.268 . S
O490 Dy483 2.351 . S
O490 C498 1.249 . S
O491 Dy480 2.326 . S
O491 C498 1.267 . S
O492 C481 1.185 . S
O492 Dy483 2.398 . S
O493 C481 1.355 . S
O493 Dy483 2.491 . S
O494 Dy483 2.403 . S
O494 C489 1.254 . S
O495 Dy480 2.310 . S
O495 Dy483 2.664 . S
O495 C489 1.268 . S
O496 Dy480 2.351 . S
O496 C499 1.249 . S
O497 Dy483 2.326 . S
O497 C499 1.267 . S
C498 O490 1.249 . S
C498 O491 1.267 . S
C499 O496 1.249 . S
C499 O497 1.267 . S
Dy500 O504 2.398 . S
Dy500 O505 2.491 . S
Dy500 O506 2.403 . S
Dy500 O507 2.664 . S
Dy500 O511 2.326 . S
Dy500 O515 2.310 . S
Dy500 O516 2.370 . S
C501 O512 1.185 1_554 S
C501 O513 1.355 . S
C502 O504 1.185 . S
C502 O505 1.355 . S
Dy503 O507 2.310 . S
Dy503 O510 2.351 . S
Dy503 O512 2.398 . S
Dy503 O513 2.491 1_556 S
Dy503 O514 2.403 . S
Dy503 O515 2.664 . S
Dy503 O517 2.326 . S
O504 Dy500 2.398 . S
O504 C502 1.185 . S
O505 Dy500 2.491 . S
O505 C502 1.355 . S
O506 Dy500 2.403 . S
O506 C508 1.254 . S
O507 Dy500 2.664 . S
O507 Dy503 2.310 . S
O507 C508 1.268 . S
C508 O506 1.254 . S
C508 O507 1.268 . S
C509 O514 1.254 . S
C509 O515 1.268 . S
O510 Dy503 2.351 . S
O510 C518 1.249 . S
O511 Dy500 2.326 . S
O511 C518 1.267 . S
O512 C501 1.185 1_556 S
O512 Dy503 2.398 . S
O513 C501 1.355 . S
O513 Dy503 2.491 1_554 S
O514 Dy503 2.403 . S
O514 C509 1.254 . S
O515 Dy500 2.310 . S
O515 Dy503 2.664 . S
O515 C509 1.268 . S
O516 Dy500 2.370 . S
O516 C519 1.241 1_556 S
O517 Dy503 2.326 . S
O517 C519 1.267 1_556 S
C518 O510 1.249 . S
C518 O511 1.267 . S
C519 O516 1.241 1_554 S
C519 O517 1.267 1_554 S
Dy520 O524 2.398 . S
Dy520 O525 2.491 . S
Dy520 O526 2.403 . S
Dy520 O527 2.664 . S
Dy520 O531 2.326 . S
Dy520 O535 2.310 . S
Dy520 O536 2.351 . S
C521 O532 1.185 . S
C521 O533 1.355 . S
C522 O524 1.185 . S
C522 O525 1.355 . S
Dy523 O527 2.310 . S
Dy523 O530 2.351 . S
Dy523 O532 2.398 . S
Dy523 O533 2.491 . S
Dy523 O534 2.403 . S
Dy523 O535 2.664 . S
Dy523 O537 2.326 . S
O524 Dy520 2.398 . S
O524 C522 1.185 . S
O525 Dy520 2.491 . S
O525 C522 1.355 . S
O526 Dy520 2.403 . S
O526 C528 1.254 . S
O527 Dy520 2.664 . S
O527 Dy523 2.310 . S
O527 C528 1.268 . S
C528 O526 1.254 . S
C528 O527 1.268 . S
C529 O534 1.254 . S
C529 O535 1.268 . S
O530 Dy523 2.351 . S
O530 C538 1.249 . S
O531 Dy520 2.326 . S
O531 C538 1.267 . S
O532 C521 1.185 . S
O532 Dy523 2.398 . S
O533 C521 1.355 . S
O533 Dy523 2.491 . S
O534 Dy523 2.403 . S
O534 C529 1.254 . S
O535 Dy520 2.310 . S
O535 Dy523 2.664 . S
O535 C529 1.268 . S
O536 Dy520 2.351 . S
O536 C539 1.249 . S
O537 Dy523 2.326 . S
O537 C539 1.267 . S
C538 O530 1.249 . S
C538 O531 1.267 . S
C539 O536 1.249 . S
C539 O537 1.267 . S
Dy540 O544 2.398 . S
Dy540 O545 2.491 . S
Dy540 O546 2.403 . S
Dy540 O547 2.664 . S
Dy540 O551 2.326 . S
Dy540 O555 2.310 . S
Dy540 O556 2.351 . S
C541 O552 1.185 . S
C541 O553 1.355 . S
C542 O544 1.185 . S
C542 O545 1.355 . S
Dy543 O547 2.310 . S
Dy543 O550 2.351 . S
Dy543 O552 2.398 . S
Dy543 O553 2.491 . S
Dy543 O554 2.403 . S
Dy543 O555 2.664 . S
Dy543 O557 2.326 . S
O544 Dy540 2.398 . S
O544 C542 1.185 . S
O545 Dy540 2.491 . S
O545 C542 1.355 . S
O546 Dy540 2.403 . S
O546 C548 1.254 . S
O547 Dy540 2.664 . S
O547 Dy543 2.310 . S
O547 C548 1.268 . S
C548 O546 1.254 . S
C548 O547 1.268 . S
C549 O554 1.254 . S
C549 O555 1.268 . S
O550 Dy543 2.351 . S
O550 C558 1.249 . S
O551 Dy540 2.326 . S
O551 C558 1.267 . S
O552 C541 1.185 . S
O552 Dy543 2.398 . S
O553 C541 1.355 . S
O553 Dy543 2.491 . S
O554 Dy543 2.403 . S
O554 C549 1.254 . S
O555 Dy540 2.310 . S
O555 Dy543 2.664 . S
O555 C549 1.268 . S
O556 Dy540 2.351 . S
O556 C559 1.249 . S
O557 Dy543 2.326 . S
O557 C559 1.267 . S
C558 O550 1.249 . S
C558 O551 1.267 . S
C559 O556 1.249 . S
C559 O557 1.267 . S
Dy560 O564 2.398 . S
Dy560 O565 2.491 . S
Dy560 O566 2.403 . S
Dy560 O567 2.664 . S
Dy560 O571 2.326 . S
Dy560 O575 2.310 . S
Dy560 O576 2.351 . S
C561 O572 1.185 . S
C561 O573 1.355 . S
C562 O564 1.185 . S
C562 O565 1.355 . S
Dy563 O567 2.310 . S
Dy563 O570 2.351 . S
Dy563 O572 2.398 . S
Dy563 O573 2.491 . S
Dy563 O574 2.403 . S
Dy563 O575 2.664 . S
Dy563 O577 2.326 . S
O564 Dy560 2.398 . S
O564 C562 1.185 . S
O565 Dy560 2.491 . S
O565 C562 1.355 . S
O566 Dy560 2.403 . S
O566 C568 1.254 . S
O567 Dy560 2.664 . S
O567 Dy563 2.310 . S
O567 C568 1.268 . S
C568 O566 1.254 . S
C568 O567 1.268 . S
C569 O574 1.254 . S
C569 O575 1.268 . S
O570 Dy563 2.351 . S
O570 C578 1.249 . S
O571 Dy560 2.326 . S
O571 C578 1.267 . S
O572 C561 1.185 . S
O572 Dy563 2.398 . S
O573 C561 1.355 . S
O573 Dy563 2.491 . S
O574 Dy563 2.403 . S
O574 C569 1.254 . S
O575 Dy560 2.310 . S
O575 Dy563 2.664 . S
O575 C569 1.268 . S
O576 Dy560 2.351 . S
O576 C579 1.249 . S
O577 Dy563 2.326 . S
O577 C579 1.267 . S
C578 O570 1.249 . S
C578 O571 1.267 . S
C579 O576 1.249 . S
C579 O577 1.267 . S
Dy580 O584 2.398 . S
Dy580 O585 2.491 . S
Dy580 O586 2.403 . S
Dy580 O587 2.664 . S
Dy580 O591 2.326 . S
Dy580 O595 2.310 . S
Dy580 O596 2.370 . S
C581 O592 1.185 1_556 S
C581 O593 1.355 . S
C582 O584 1.185 . S
C582 O585 1.355 . S
Dy583 O587 2.310 . S
Dy583 O590 2.351 . S
Dy583 O592 2.398 . S
Dy583 O593 2.491 1_554 S
Dy583 O594 2.403 . S
Dy583 O595 2.664 . S
Dy583 O597 2.326 . S
O584 Dy580 2.398 . S
O584 C582 1.185 . S
O585 Dy580 2.491 . S
O585 C582 1.355 . S
O586 Dy580 2.403 . S
O586 C588 1.254 . S
O587 Dy580 2.664 . S
O587 Dy583 2.310 . S
O587 C588 1.268 . S
C588 O586 1.254 . S
C588 O587 1.268 . S
C589 O594 1.254 . S
C589 O595 1.268 . S
O590 Dy583 2.351 . S
O590 C598 1.249 . S
O591 Dy580 2.326 . S
O591 C598 1.267 . S
O592 C581 1.185 1_554 S
O592 Dy583 2.398 . S
O593 C581 1.355 . S
O593 Dy583 2.491 1_556 S
O594 Dy583 2.403 . S
O594 C589 1.254 . S
O595 Dy580 2.310 . S
O595 Dy583 2.664 . S
O595 C589 1.268 . S
O596 Dy580 2.370 . S
O596 C599 1.241 1_554 S
O597 Dy583 2.326 . S
O597 C599 1.267 1_554 S
C598 O590 1.249 . S
C598 O591 1.267 . S
C599 O596 1.241 1_556 S
C599 O597 1.267 1_556 S
Dy600 O604 2.398 . S
Dy600 O605 2.491 . S
Dy600 O606 2.403 . S
Dy600 O607 2.664 . S
Dy600 O611 2.326 . S
Dy600 O615 2.310 . S
Dy600 O616 2.351 . S
C601 O612 1.185 . S
C601 O613 1.355 . S
C602 O604 1.185 . S
C602 O605 1.355 . S
Dy603 O607 2.310 . S
Dy603 O610 2.351 . S
Dy603 O612 2.398 . S
Dy603 O613 2.491 . S
Dy603 O614 2.403 . S
Dy603 O615 2.664 . S
Dy603 O617 2.326 . S
O604 Dy600 2.398 . S
O604 C602 1.185 . S
O605 Dy600 2.491 . S
O605 C602 1.355 . S
O606 Dy600 2.403 . S
O606 C608 1.254 . S
O607 Dy600 2.664 . S
O607 Dy603 2.310 . S
O607 C608 1.268 . S
C608 O606 1.254 . S
C608 O607 1.268 . S
C609 O614 1.254 . S
C609 O615 1.268 . S
O610 Dy603 2.351 . S
O610 C618 1.249 . S
O611 Dy600 2.326 . S
O611 C618 1.267 . S
O612 C601 1.185 . S
O612 Dy603 2.398 . S
O613 C601 1.355 . S
O613 Dy603 2.491 . S
O614 Dy603 2.403 . S
O614 C609 1.254 . S
O615 Dy600 2.310 . S
O615 Dy603 2.664 . S
O615 C609 1.268 . S
O616 Dy600 2.351 . S
O616 C619 1.249 . S
O617 Dy603 2.326 . S
O617 C619 1.267 . S
C618 O610 1.249 . S
C618 O611 1.267 . S
C619 O616 1.249 . S
C619 O617 1.267 . S
Dy620 O624 2.398 . S
Dy620 O625 2.491 . S
Dy620 O626 2.403 . S
Dy620 O627 2.664 . S
Dy620 O631 2.326 . S
Dy620 O635 2.310 . S
Dy620 O636 2.351 . S
C621 O632 1.185 . S
C621 O633 1.355 . S
C622 O624 1.185 . S
C622 O625 1.355 . S
Dy623 O627 2.310 . S
Dy623 O630 2.351 . S
Dy623 O632 2.398 . S
Dy623 O633 2.491 . S
Dy623 O634 2.403 . S
Dy623 O635 2.664 . S
Dy623 O637 2.326 . S
O624 Dy620 2.398 . S
O624 C622 1.185 . S
O625 Dy620 2.491 . S
O625 C622 1.355 . S
O626 Dy620 2.403 . S
O626 C628 1.254 . S
O627 Dy620 2.664 . S
O627 Dy623 2.310 . S
O627 C628 1.268 . S
C628 O626 1.254 . S
C628 O627 1.268 . S
C629 O634 1.254 . S
C629 O635 1.268 . S
O630 Dy623 2.351 . S
O630 C638 1.249 . S
O631 Dy620 2.326 . S
O631 C638 1.267 . S
O632 C621 1.185 . S
O632 Dy623 2.398 . S
O633 C621 1.355 . S
O633 Dy623 2.491 . S
O634 Dy623 2.403 . S
O634 C629 1.254 . S
O635 Dy620 2.310 . S
O635 Dy623 2.664 . S
O635 C629 1.268 . S
O636 Dy620 2.351 . S
O636 C639 1.249 . S
O637 Dy623 2.326 . S
O637 C639 1.267 . S
C638 O630 1.249 . S
C638 O631 1.267 . S
C639 O636 1.249 . S
C639 O637 1.267 . S
H640 C646 0.930 . S
H641 C650 0.930 . S
H642 C655 0.929 . S
H643 C653 0.929 . S
H644 C648 0.929 . S
H645 C654 0.929 . S
C646 H640 0.930 . S
C646 C647 1.367 . S
C646 C654 1.378 . S
C647 C646 1.367 . S
C647 C655 1.433 . S
C648 H644 0.929 . S
C648 C650 1.378 . S
C648 C652 1.350 . S
C649 C652 1.463 . S
C649 C654 1.350 . S
C649 N657 1.427 . S
C650 H641 0.930 . S
C650 C648 1.378 . S
C650 C651 1.367 . S
C651 C650 1.367 . S
C651 C653 1.433 . S
C652 C648 1.350 . S
C652 C649 1.463 . S
C652 N656 1.427 . S
C653 H643 0.929 . S
C653 C651 1.433 . S
C653 N656 1.384 . S
C654 H645 0.929 . S
C654 C646 1.378 . S
C654 C649 1.350 . S
C655 H642 0.929 . S
C655 C647 1.433 . S
C655 N657 1.384 . S
N656 C652 1.427 . S
N656 C653 1.384 . S
N657 C649 1.427 . S
N657 C655 1.384 . S
H658 C664 0.930 . S
H659 C668 0.930 . S
H660 C673 0.929 . S
H661 C671 0.929 1_545 S
H662 C666 0.929 . S
H663 C672 0.929 . S
C664 H658 0.930 . S
C664 C665 1.367 . S
C664 C672 1.378 . S
C665 C664 1.367 . S
C665 C673 1.433 . S
C666 H662 0.929 . S
C666 C668 1.378 . S
C666 C670 1.350 1_565 S
C667 C670 1.463 . S
C667 C672 1.350 . S
C667 N675 1.427 . S
C668 H659 0.930 . S
C668 C666 1.378 . S
C668 C669 1.367 . S
C669 C668 1.367 . S
C669 C671 1.433 . S
C670 C666 1.350 1_545 S
C670 C667 1.463 . S
C670 N674 1.427 . S
C671 H661 0.929 1_565 S
C671 C669 1.433 . S
C671 N674 1.384 1_565 S
C672 H663 0.929 . S
C672 C664 1.378 . S
C672 C667 1.350 . S
C673 H660 0.929 . S
C673 C665 1.433 . S
C673 N675 1.384 . S
N674 C670 1.427 . S
N674 C671 1.384 1_545 S
N675 C667 1.427 . S
N675 C673 1.384 . S
H676 C682 0.930 . S
H677 C686 0.930 . S
H678 C691 0.929 . S
H679 C689 0.929 . S
H680 C684 0.929 . S
H681 C690 0.929 . S
C682 H676 0.930 . S
C682 C683 1.367 . S
C682 C690 1.378 . S
C683 C682 1.367 . S
C683 C691 1.433 . S
C684 H680 0.929 . S
C684 C686 1.378 . S
C684 C688 1.350 . S
C685 C688 1.463 . S
C685 C690 1.350 . S
C685 N693 1.427 . S
C686 H677 0.930 . S
C686 C684 1.378 . S
C686 C687 1.367 . S
C687 C686 1.367 . S
C687 C689 1.433 . S
C688 C684 1.350 . S
C688 C685 1.463 . S
C688 N692 1.427 . S
C689 H679 0.929 . S
C689 C687 1.433 . S
C689 N692 1.384 . S
C690 H681 0.929 . S
C690 C682 1.378 . S
C690 C685 1.350 . S
C691 H678 0.929 . S
C691 C683 1.433 . S
C691 N693 1.384 . S
N692 C688 1.427 . S
N692 C689 1.384 . S
N693 C685 1.427 . S
N693 C691 1.384 . S
H694 C700 0.930 . S
H695 C704 0.925 1_565 S
H696 C709 0.929 . S
H697 C707 0.929 . S
H698 C702 0.929 . S
H699 C708 0.929 . S
C700 H694 0.930 . S
C700 C701 1.367 . S
C700 C708 1.378 . S
C701 C700 1.367 . S
C701 C709 1.433 . S
C702 H698 0.929 . S
C702 C704 1.346 1_565 S
C702 C706 1.350 . S
C703 C706 1.463 . S
C703 C708 1.350 . S
C703 N711 1.427 . S
C704 H695 0.925 1_545 S
C704 C702 1.346 1_545 S
C704 C705 1.406 . S
C705 C704 1.406 . S
C705 C707 1.433 . S
C706 C702 1.350 . S
C706 C703 1.463 . S
C706 N710 1.427 1_565 S
C707 H697 0.929 . S
C707 C705 1.433 . S
C707 N710 1.384 . S
C708 H699 0.929 . S
C708 C700 1.378 . S
C708 C703 1.350 . S
C709 H696 0.929 . S
C709 C701 1.433 . S
C709 N711 1.384 . S
N710 C706 1.427 1_545 S
N710 C707 1.384 . S
N711 C703 1.427 . S
N711 C709 1.384 . S
H712 C718 0.930 . S
H713 C722 0.930 . S
H714 C727 0.929 . S
H715 C725 0.929 . S
H716 C720 0.929 . S
H717 C726 0.929 . S
C718 H712 0.930 . S
C718 C719 1.367 . S
C718 C726 1.378 . S
C719 C718 1.367 . S
C719 C727 1.433 . S
C720 H716 0.929 . S
C720 C722 1.378 . S
C720 C724 1.350 . S
C721 C724 1.463 . S
C721 C726 1.350 . S
C721 N729 1.427 . S
C722 H713 0.930 . S
C722 C720 1.378 . S
C722 C723 1.367 . S
C723 C722 1.367 . S
C723 C725 1.433 . S
C724 C720 1.350 . S
C724 C721 1.463 . S
C724 N728 1.427 . S
C725 H715 0.929 . S
C725 C723 1.433 . S
C725 N728 1.384 . S
C726 H717 0.929 . S
C726 C718 1.378 . S
C726 C721 1.350 . S
C727 H714 0.929 . S
C727 C719 1.433 . S
C727 N729 1.384 . S
N728 C724 1.427 . S
N728 C725 1.384 . S
N729 C721 1.427 . S
N729 C727 1.384 . S
H730 C736 0.930 . S
H731 C740 0.930 . S
H732 C745 0.929 . S
H733 C743 0.929 . S
H734 C738 0.929 . S
H735 C744 0.929 . S
C736 H730 0.930 . S
C736 C737 1.367 . S
C736 C744 1.378 1_565 S
C737 C736 1.367 . S
C737 C745 1.433 . S
C738 H734 0.929 . S
C738 C740 1.378 . S
C738 C742 1.350 . S
C739 C742 1.463 . S
C739 C744 1.350 . S
C739 N747 1.427 . S
C740 H731 0.930 . S
C740 C738 1.378 . S
C740 C741 1.367 . S
C741 C740 1.367 . S
C741 C743 1.433 . S
C742 C738 1.350 . S
C742 C739 1.463 . S
C742 N746 1.427 . S
C743 H733 0.929 . S
C743 C741 1.433 . S
C743 N746 1.384 . S
C744 H735 0.929 . S
C744 C736 1.378 1_545 S
C744 C739 1.350 . S
C745 H732 0.929 . S
C745 C737 1.433 . S
C745 N747 1.384 1_565 S
N746 C742 1.427 . S
N746 C743 1.384 . S
N747 C739 1.427 . S
N747 C745 1.384 1_545 S
H748 C754 0.930 . S
H749 C758 0.930 . S
H750 C763 0.929 . S
H751 C761 0.929 . S
H752 C756 0.929 . S
H753 C762 0.929 . S
C754 H748 0.930 . S
C754 C755 1.367 . S
C754 C762 1.378 . S
C755 C754 1.367 . S
C755 C763 1.433 . S
C756 H752 0.929 . S
C756 C758 1.378 . S
C756 C760 1.350 . S
C757 C760 1.463 . S
C757 C762 1.350 . S
C757 N765 1.427 . S
C758 H749 0.930 . S
C758 C756 1.378 . S
C758 C759 1.367 . S
C759 C758 1.367 . S
C759 C761 1.433 . S
C760 C756 1.350 . S
C760 C757 1.463 . S
C760 N764 1.427 . S
C761 H751 0.929 . S
C761 C759 1.433 . S
C761 N764 1.384 . S
C762 H753 0.929 . S
C762 C754 1.378 . S
C762 C757 1.350 . S
C763 H750 0.929 . S
C763 C755 1.433 . S
C763 N765 1.384 . S
N764 C760 1.427 . S
N764 C761 1.384 . S
N765 C757 1.427 . S
N765 C763 1.384 . S
H766 C772 0.930 . S
H767 C776 0.926 1_565 S
H768 C781 0.929 . S
H769 C779 0.929 . S
H770 C774 0.929 . S
H771 C780 0.929 . S
C772 H766 0.930 . S
C772 C773 1.367 . S
C772 C780 1.378 . S
C773 C772 1.367 . S
C773 C781 1.433 . S
C774 H770 0.929 . S
C774 C776 1.355 1_565 S
C774 C778 1.350 . S
C775 C778 1.463 . S
C775 C780 1.350 . S
C775 N783 1.427 . S
C776 H767 0.926 1_545 S
C776 C774 1.355 1_545 S
C776 C777 1.395 . S
C777 C776 1.395 . S
C777 C779 1.433 . S
C778 C774 1.350 . S
C778 C775 1.463 . S
C778 N782 1.427 1_565 S
C779 H769 0.929 . S
C779 C777 1.433 . S
C779 N782 1.384 . S
C780 H771 0.929 . S
C780 C772 1.378 . S
C780 C775 1.350 . S
C781 H768 0.929 . S
C781 C773 1.433 . S
C781 N783 1.384 . S
N782 C778 1.427 1_545 S
N782 C779 1.384 . S
N783 C775 1.427 . S
N783 C781 1.384 . S
H784 C790 0.930 . S
H785 C794 0.930 . S
H786 C799 0.929 . S
H787 C797 0.929 . S
H788 C792 0.929 . S
H789 C798 0.929 . S
C790 H784 0.930 . S
C790 C791 1.367 . S
C790 C798 1.378 . S
C791 C790 1.367 . S
C791 C799 1.433 . S
C792 H788 0.929 . S
C792 C794 1.378 . S
C792 C796 1.350 . S
C793 C796 1.463 . S
C793 C798 1.350 . S
C793 N801 1.427 . S
C794 H785 0.930 . S
C794 C792 1.378 . S
C794 C795 1.367 . S
C795 C794 1.367 . S
C795 C797 1.433 . S
C796 C792 1.350 . S
C796 C793 1.463 . S
C796 N800 1.427 . S
C797 H787 0.929 . S
C797 C795 1.433 . S
C797 N800 1.384 . S
C798 H789 0.929 . S
C798 C790 1.378 . S
C798 C793 1.350 . S
C799 H786 0.929 . S
C799 C791 1.433 . S
C799 N801 1.384 . S
N800 C796 1.427 . S
N800 C797 1.384 . S
N801 C793 1.427 . S
N801 C799 1.384 . S
H802 C808 0.933 . S
H803 C812 0.930 . S
H804 C817 0.929 . S
H805 C815 0.929 . S
H806 C810 0.929 . S
H807 C816 0.929 . S
C808 H802 0.933 . S
C808 C809 1.367 . S
C808 C816 1.378 1_545 S
C809 C808 1.367 . S
C809 C817 1.433 . S
C810 H806 0.929 . S
C810 C812 1.378 . S
C810 C814 1.350 . S
C811 C814 1.463 . S
C811 C816 1.350 . S
C811 N819 1.427 1_565 S
C812 H803 0.930 . S
C812 C810 1.378 . S
C812 C813 1.367 . S
C813 C812 1.367 . S
C813 C815 1.433 . S
C814 C810 1.350 . S
C814 C811 1.463 . S
C814 N818 1.427 . S
C815 H805 0.929 . S
C815 C813 1.433 . S
C815 N818 1.384 . S
C816 H807 0.929 . S
C816 C808 1.378 1_565 S
C816 C811 1.350 . S
C817 H804 0.929 . S
C817 C809 1.433 . S
C817 N819 1.384 . S
N818 C814 1.427 . S
N818 C815 1.384 . S
N819 C811 1.427 1_545 S
N819 C817 1.384 . S
H820 C826 0.930 . S
H821 C830 0.930 . S
H822 C835 0.929 . S
H823 C833 0.929 . S
H824 C828 0.929 . S
H825 C834 0.929 . S
C826 H820 0.930 . S
C826 C827 1.367 . S
C826 C834 1.378 . S
C827 C826 1.367 . S
C827 C835 1.433 . S
C828 H824 0.929 . S
C828 C830 1.378 . S
C828 C832 1.350 . S
C829 C832 1.463 . S
C829 C834 1.350 . S
C829 N837 1.427 . S
C830 H821 0.930 . S
C830 C828 1.378 . S
C830 C831 1.367 . S
C831 C830 1.367 . S
C831 C833 1.433 . S
C832 C828 1.350 . S
C832 C829 1.463 . S
C832 N836 1.427 . S
C833 H823 0.929 . S
C833 C831 1.433 . S
C833 N836 1.384 . S
C834 H825 0.929 . S
C834 C826 1.378 . S
C834 C829 1.350 . S
C835 H822 0.929 . S
C835 C827 1.433 . S
C835 N837 1.384 . S
N836 C832 1.427 . S
N836 C833 1.384 . S
N837 C829 1.427 . S
N837 C835 1.384 . S
H838 C844 0.930 . S
H839 C848 0.930 . S
H840 C853 0.929 . S
H841 C851 0.929 . S
H842 C846 0.929 . S
H843 C852 0.929 . S
C844 H838 0.930 . S
C844 C845 1.367 . S
C844 C852 1.378 1_565 S
C845 C844 1.367 . S
C845 C853 1.433 . S
C846 H842 0.929 . S
C846 C848 1.378 . S
C846 C850 1.350 . S
C847 C850 1.463 . S
C847 C852 1.350 . S
C847 N855 1.427 1_545 S
C848 H839 0.930 . S
C848 C846 1.378 . S
C848 C849 1.367 . S
C849 C848 1.367 . S
C849 C851 1.433 . S
C850 C846 1.350 . S
C850 C847 1.463 . S
C850 N854 1.427 . S
C851 H841 0.929 . S
C851 C849 1.433 . S
C851 N854 1.384 . S
C852 H843 0.929 . S
C852 C844 1.378 1_545 S
C852 C847 1.350 . S
C853 H840 0.929 . S
C853 C845 1.433 . S
C853 N855 1.384 . S
N854 C850 1.427 . S
N854 C851 1.384 . S
N855 C847 1.427 1_565 S
N855 C853 1.384 . S
H856 C862 0.930 . S
H857 C866 0.930 . S
H858 C871 0.929 . S
H859 C869 0.929 . S
H860 C864 0.929 . S
H861 C870 0.929 . S
C862 H856 0.930 . S
C862 C863 1.367 . S
C862 C870 1.378 . S
C863 C862 1.367 . S
C863 C871 1.433 . S
C864 H860 0.929 . S
C864 C866 1.378 . S
C864 C868 1.350 . S
C865 C868 1.463 . S
C865 C870 1.350 . S
C865 N873 1.427 . S
C866 H857 0.930 . S
C866 C864 1.378 . S
C866 C867 1.367 . S
C867 C866 1.367 . S
C867 C869 1.433 . S
C868 C864 1.350 . S
C868 C865 1.463 . S
C868 N872 1.427 . S
C869 H859 0.929 . S
C869 C867 1.433 . S
C869 N872 1.384 . S
C870 H861 0.929 . S
C870 C862 1.378 . S
C870 C865 1.350 . S
C871 H858 0.929 . S
C871 C863 1.433 . S
C871 N873 1.384 . S
N872 C868 1.427 . S
N872 C869 1.384 . S
N873 C865 1.427 . S
N873 C871 1.384 . S
H874 C880 0.930 . S
H875 C884 0.930 . S
H876 C889 0.929 . S
H877 C887 0.929 . S
H878 C882 0.929 . S
H879 C888 0.929 . S
C880 H874 0.930 . S
C880 C881 1.367 . S
C880 C888 1.378 . S
C881 C880 1.367 . S
C881 C889 1.433 1_545 S
C882 H878 0.929 . S
C882 C884 1.378 . S
C882 C886 1.350 . S
C883 C886 1.463 . S
C883 C888 1.350 1_565 S
C883 N891 1.427 . S
C884 H875 0.930 . S
C884 C882 1.378 . S
C884 C885 1.367 . S
C885 C884 1.367 . S
C885 C887 1.433 . S
C886 C882 1.350 . S
C886 C883 1.463 . S
C886 N890 1.427 . S
C887 H877 0.929 . S
C887 C885 1.433 . S
C887 N890 1.384 . S
C888 H879 0.929 . S
C888 C880 1.378 . S
C888 C883 1.350 1_545 S
C889 H876 0.929 . S
C889 C881 1.433 1_565 S
C889 N891 1.384 . S
N890 C886 1.427 . S
N890 C887 1.384 . S
N891 C883 1.427 . S
N891 C889 1.384 . S
H892 C898 0.930 . S
H893 C902 0.930 . S
H894 C907 0.929 . S
H895 C905 0.929 . S
H896 C900 0.929 . S
H897 C906 0.929 . S
C898 H892 0.930 . S
C898 C899 1.367 . S
C898 C906 1.378 . S
C899 C898 1.367 . S
C899 C907 1.433 . S
C900 H896 0.929 . S
C900 C902 1.378 . S
C900 C904 1.350 . S
C901 C904 1.463 . S
C901 C906 1.350 . S
C901 N909 1.427 . S
C902 H893 0.930 . S
C902 C900 1.378 . S
C902 C903 1.367 . S
C903 C902 1.367 . S
C903 C905 1.433 . S
C904 C900 1.350 . S
C904 C901 1.463 . S
C904 N908 1.427 . S
C905 H895 0.929 . S
C905 C903 1.433 . S
C905 N908 1.384 . S
C906 H897 0.929 . S
C906 C898 1.378 . S
C906 C901 1.350 . S
C907 H894 0.929 . S
C907 C899 1.433 . S
C907 N909 1.384 . S
N908 C904 1.427 . S
N908 C905 1.384 . S
N909 C901 1.427 . S
N909 C907 1.384 . S
H910 C916 0.930 . S
H911 C920 0.953 . S
H912 C925 0.929 . S
H913 C923 0.929 . S
H914 C918 0.929 . S
H915 C924 0.929 . S
C916 H910 0.930 . S
C916 C917 1.367 . S
C916 C924 1.378 . S
C917 C916 1.367 . S
C917 C925 1.433 . S
C918 H914 0.929 . S
C918 C920 1.378 . S
C918 C922 1.350 . S
C919 C922 1.463 . S
C919 C924 1.350 . S
C919 N927 1.427 . S
C920 H911 0.953 . S
C920 C918 1.378 . S
C920 C921 1.367 1_545 S
C921 C920 1.367 1_565 S
C921 C923 1.433 . S
C922 C918 1.350 . S
C922 C919 1.463 . S
C922 N926 1.427 1_545 S
C923 H913 0.929 . S
C923 C921 1.433 . S
C923 N926 1.384 . S
C924 H915 0.929 . S
C924 C916 1.378 . S
C924 C919 1.350 . S
C925 H912 0.929 . S
C925 C917 1.433 . S
C925 N927 1.384 . S
N926 C922 1.427 1_565 S
N926 C923 1.384 . S
N927 C919 1.427 . S
N927 C925 1.384 . S
H928 C934 0.930 . S
H929 C938 0.930 . S
H930 C943 0.929 . S
H931 C941 0.929 . S
H932 C936 0.929 . S
H933 C942 0.929 . S
C934 H928 0.930 . S
C934 C935 1.367 . S
C934 C942 1.378 . S
C935 C934 1.367 . S
C935 C943 1.433 . S
C936 H932 0.929 . S
C936 C938 1.378 . S
C936 C940 1.350 . S
C937 C940 1.463 . S
C937 C942 1.350 . S
C937 N945 1.427 . S
C938 H929 0.930 . S
C938 C936 1.378 . S
C938 C939 1.367 . S
C939 C938 1.367 . S
C939 C941 1.433 . S
C940 C936 1.350 . S
C940 C937 1.463 . S
C940 N944 1.427 . S
C941 H931 0.929 . S
C941 C939 1.433 . S
C941 N944 1.384 . S
C942 H933 0.929 . S
C942 C934 1.378 . S
C942 C937 1.350 . S
C943 H930 0.929 . S
C943 C935 1.433 . S
C943 N945 1.384 . S
N944 C940 1.427 . S
N944 C941 1.384 . S
N945 C937 1.427 . S
N945 C943 1.384 . S
H946 C952 0.930 . S
H947 C956 0.930 . S
H948 C961 0.929 . S
H949 C959 0.928 . S
H950 C954 0.929 . S
H951 C960 0.929 . S
C952 H946 0.930 . S
C952 C953 1.367 . S
C952 C960 1.378 . S
C953 C952 1.367 . S
C953 C961 1.433 . S
C954 H950 0.929 . S
C954 C956 1.378 . S
C954 C958 1.350 . S
C955 C958 1.463 . S
C955 C960 1.350 . S
C955 N963 1.427 . S
C956 H947 0.930 . S
C956 C954 1.378 . S
C956 C957 1.367 . S
C957 C956 1.367 . S
C957 C959 1.433 . S
C958 C954 1.350 . S
C958 C955 1.463 . S
C958 N962 1.427 . S
C959 H949 0.928 . S
C959 C957 1.433 . S
C959 N962 1.384 . S
C960 H951 0.929 . S
C960 C952 1.378 . S
C960 C955 1.350 . S
C961 H948 0.929 . S
C961 C953 1.433 . S
C961 N963 1.384 . S
N962 C958 1.427 . S
N962 C959 1.384 . S
N963 C955 1.427 . S
N963 C961 1.384 . S
H964 C970 0.930 . S
H965 C974 0.930 . S
H966 C979 0.929 . S
H967 C977 0.929 . S
H968 C972 0.929 . S
H969 C978 0.929 . S
C970 H964 0.930 . S
C970 C971 1.367 . S
C970 C978 1.378 . S
C971 C970 1.367 . S
C971 C979 1.433 . S
C972 H968 0.929 . S
C972 C974 1.378 . S
C972 C976 1.350 . S
C973 C976 1.463 . S
C973 C978 1.350 . S
C973 N981 1.427 . S
C974 H965 0.930 . S
C974 C972 1.378 . S
C974 C975 1.367 . S
C975 C974 1.367 . S
C975 C977 1.433 . S
C976 C972 1.350 . S
C976 C973 1.463 . S
C976 N980 1.427 . S
C977 H967 0.929 . S
C977 C975 1.433 . S
C977 N980 1.384 . S
C978 H969 0.929 . S
C978 C970 1.378 . S
C978 C973 1.350 . S
C979 H966 0.929 . S
C979 C971 1.433 . S
C979 N981 1.384 . S
N980 C976 1.427 . S
N980 C977 1.384 . S
N981 C973 1.427 . S
N981 C979 1.384 . S
H982 C988 0.930 . S
H983 C992 0.930 . S
H984 C997 0.929 . S
H985 C995 0.929 . S
H986 C990 0.929 . S
H987 C996 0.929 . S
C988 H982 0.930 . S
C988 C989 1.367 . S
C988 C996 1.378 . S
C989 C988 1.367 . S
C989 C997 1.433 . S
C990 H986 0.929 . S
C990 C992 1.378 . S
C990 C994 1.350 . S
C991 C994 1.463 . S
C991 C996 1.350 . S
C991 N999 1.427 . S
C992 H983 0.930 . S
C992 C990 1.378 . S
C992 C993 1.367 . S
C993 C992 1.367 . S
C993 C995 1.433 . S
C994 C990 1.350 . S
C994 C991 1.463 . S
C994 N998 1.427 . S
C995 H985 0.929 . S
C995 C993 1.433 . S
C995 N998 1.384 . S
C996 H987 0.929 . S
C996 C988 1.378 . S
C996 C991 1.350 . S
C997 H984 0.929 . S
C997 C989 1.433 . S
C997 N999 1.384 . S
N998 C994 1.427 . S
N998 C995 1.384 . S
N999 C991 1.427 . S
N999 C997 1.384 . S
H1000 C1006 0.930 . S
H1001 C1010 0.930 . S
H1002 C1015 0.929 . S
H1003 C1013 0.929 . S
H1004 C1008 0.929 . S
H1005 C1014 0.929 . S
C1006 H1000 0.930 . S
C1006 C1007 1.367 . S
C1006 C1014 1.378 . S
C1007 C1006 1.367 . S
C1007 C1015 1.433 . S
C1008 H1004 0.929 . S
C1008 C1010 1.378 . S
C1008 C1012 1.350 . S
C1009 C1012 1.463 . S
C1009 C1014 1.350 . S
C1009 N1017 1.427 . S
C1010 H1001 0.930 . S
C1010 C1008 1.378 . S
C1010 C1011 1.367 . S
C1011 C1010 1.367 . S
C1011 C1013 1.433 . S
C1012 C1008 1.350 . S
C1012 C1009 1.463 . S
C1012 N1016 1.427 . S
C1013 H1003 0.929 . S
C1013 C1011 1.433 . S
C1013 N1016 1.384 . S
C1014 H1005 0.929 . S
C1014 C1006 1.378 . S
C1014 C1009 1.350 . S
C1015 H1002 0.929 . S
C1015 C1007 1.433 . S
C1015 N1017 1.384 . S
N1016 C1012 1.427 . S
N1016 C1013 1.384 . S
N1017 C1009 1.427 . S
N1017 C1015 1.384 . S
H1018 C1024 0.930 . S
H1019 C1028 0.930 . S
H1020 C1033 0.929 . S
H1021 C1031 0.929 . S
H1022 C1026 0.929 . S
H1023 C1032 0.929 . S
C1024 H1018 0.930 . S
C1024 C1025 1.367 . S
C1024 C1032 1.378 . S
C1025 C1024 1.367 . S
C1025 C1033 1.433 . S
C1026 H1022 0.929 . S
C1026 C1028 1.378 . S
C1026 C1030 1.350 . S
C1027 C1030 1.463 . S
C1027 C1032 1.350 . S
C1027 N1035 1.427 . S
C1028 H1019 0.930 . S
C1028 C1026 1.378 . S
C1028 C1029 1.367 . S
C1029 C1028 1.367 . S
C1029 C1031 1.433 . S
C1030 C1026 1.350 . S
C1030 C1027 1.463 . S
C1030 N1034 1.427 . S
C1031 H1021 0.929 . S
C1031 C1029 1.433 . S
C1031 N1034 1.384 . S
C1032 H1023 0.929 . S
C1032 C1024 1.378 . S
C1032 C1027 1.350 . S
C1033 H1020 0.929 . S
C1033 C1025 1.433 . S
C1033 N1035 1.384 . S
N1034 C1030 1.427 . S
N1034 C1031 1.384 . S
N1035 C1027 1.427 . S
N1035 C1033 1.384 . S
H1036 C1042 0.930 . S
H1037 C1046 0.930 . S
H1038 C1051 0.929 . S
H1039 C1049 0.929 . S
H1040 C1044 0.929 . S
H1041 C1050 0.929 . S
C1042 H1036 0.930 . S
C1042 C1043 1.367 . S
C1042 C1050 1.378 . S
C1043 C1042 1.367 . S
C1043 C1051 1.433 . S
C1044 H1040 0.929 . S
C1044 C1046 1.378 . S
C1044 C1048 1.350 . S
C1045 C1048 1.463 . S
C1045 C1050 1.350 . S
C1045 N1053 1.427 . S
C1046 H1037 0.930 . S
C1046 C1044 1.378 . S
C1046 C1047 1.367 . S
C1047 C1046 1.367 . S
C1047 C1049 1.433 . S
C1048 C1044 1.350 . S
C1048 C1045 1.463 . S
C1048 N1052 1.427 . S
C1049 H1039 0.929 . S
C1049 C1047 1.433 . S
C1049 N1052 1.384 . S
C1050 H1041 0.929 . S
C1050 C1042 1.378 . S
C1050 C1045 1.350 . S
C1051 H1038 0.929 . S
C1051 C1043 1.433 . S
C1051 N1053 1.384 . S
N1052 C1048 1.427 . S
N1052 C1049 1.384 . S
N1053 C1045 1.427 . S
N1053 C1051 1.384 . S
H1054 C1060 0.930 . S
H1055 C1064 0.930 . S
H1056 C1069 0.929 . S
H1057 C1067 0.929 . S
H1058 C1062 0.929 . S
H1059 C1068 0.929 . S
C1060 H1054 0.930 . S
C1060 C1061 1.367 . S
C1060 C1068 1.378 . S
C1061 C1060 1.367 . S
C1061 C1069 1.433 . S
C1062 H1058 0.929 . S
C1062 C1064 1.378 . S
C1062 C1066 1.350 . S
C1063 C1066 1.463 . S
C1063 C1068 1.350 . S
C1063 N1071 1.427 . S
C1064 H1055 0.930 . S
C1064 C1062 1.378 . S
C1064 C1065 1.367 . S
C1065 C1064 1.367 . S
C1065 C1067 1.433 . S
C1066 C1062 1.350 . S
C1066 C1063 1.463 . S
C1066 N1070 1.427 . S
C1067 H1057 0.929 . S
C1067 C1065 1.433 . S
C1067 N1070 1.384 . S
C1068 H1059 0.929 . S
C1068 C1060 1.378 . S
C1068 C1063 1.350 . S
C1069 H1056 0.929 . S
C1069 C1061 1.433 . S
C1069 N1071 1.384 . S
N1070 C1066 1.427 . S
N1070 C1067 1.384 . S
N1071 C1063 1.427 . S
N1071 C1069 1.384 . S
H1072 C1078 0.930 . S
H1073 C1082 0.930 . S
H1074 C1087 0.929 . S
H1075 C1085 0.929 . S
H1076 C1080 0.929 . S
H1077 C1086 0.929 . S
C1078 H1072 0.930 . S
C1078 C1079 1.367 . S
C1078 C1086 1.378 . S
C1079 C1078 1.367 . S
C1079 C1087 1.433 . S
C1080 H1076 0.929 . S
C1080 C1082 1.378 . S
C1080 C1084 1.350 . S
C1081 C1084 1.463 . S
C1081 C1086 1.350 . S
C1081 N1089 1.427 . S
C1082 H1073 0.930 . S
C1082 C1080 1.378 . S
C1082 C1083 1.367 . S
C1083 C1082 1.367 . S
C1083 C1085 1.433 . S
C1084 C1080 1.350 . S
C1084 C1081 1.463 . S
C1084 N1088 1.427 . S
C1085 H1075 0.929 . S
C1085 C1083 1.433 . S
C1085 N1088 1.384 . S
C1086 H1077 0.929 . S
C1086 C1078 1.378 . S
C1086 C1081 1.350 . S
C1087 H1074 0.929 . S
C1087 C1079 1.433 . S
C1087 N1089 1.384 . S
N1088 C1084 1.427 . S
N1088 C1085 1.384 . S
N1089 C1081 1.427 . S
N1089 C1087 1.384 . S
H1090 C1096 0.930 . S
H1091 C1100 0.930 . S
H1092 C1105 0.929 . S
H1093 C1103 0.929 . S
H1094 C1098 0.929 . S
H1095 C1104 0.929 . S
C1096 H1090 0.930 . S
C1096 C1097 1.367 . S
C1096 C1104 1.378 . S
C1097 C1096 1.367 . S
C1097 C1105 1.433 . S
C1098 H1094 0.929 . S
C1098 C1100 1.378 . S
C1098 C1102 1.350 . S
C1099 C1102 1.463 . S
C1099 C1104 1.350 . S
C1099 N1107 1.427 . S
C1100 H1091 0.930 . S
C1100 C1098 1.378 . S
C1100 C1101 1.367 . S
C1101 C1100 1.367 . S
C1101 C1103 1.433 . S
C1102 C1098 1.350 . S
C1102 C1099 1.463 . S
C1102 N1106 1.427 . S
C1103 H1093 0.929 . S
C1103 C1101 1.433 . S
C1103 N1106 1.384 . S
C1104 H1095 0.929 . S
C1104 C1096 1.378 . S
C1104 C1099 1.350 . S
C1105 H1092 0.929 . S
C1105 C1097 1.433 . S
C1105 N1107 1.384 . S
N1106 C1102 1.427 . S
N1106 C1103 1.384 . S
N1107 C1099 1.427 . S
N1107 C1105 1.384 . S
H1108 C1114 0.930 . S
H1109 C1118 0.930 . S
H1110 C1123 0.929 . S
H1111 C1121 0.929 . S
H1112 C1116 0.929 . S
H1113 C1122 0.929 . S
C1114 H1108 0.930 . S
C1114 C1115 1.367 . S
C1114 C1122 1.378 . S
C1115 C1114 1.367 . S
C1115 C1123 1.433 . S
C1116 H1112 0.929 . S
C1116 C1118 1.378 . S
C1116 C1120 1.350 . S
C1117 C1120 1.463 . S
C1117 C1122 1.350 . S
C1117 N1125 1.427 . S
C1118 H1109 0.930 . S
C1118 C1116 1.378 . S
C1118 C1119 1.367 . S
C1119 C1118 1.367 . S
C1119 C1121 1.433 . S
C1120 C1116 1.350 . S
C1120 C1117 1.463 . S
C1120 N1124 1.427 . S
C1121 H1111 0.929 . S
C1121 C1119 1.433 . S
C1121 N1124 1.384 . S
C1122 H1113 0.929 . S
C1122 C1114 1.378 . S
C1122 C1117 1.350 . S
C1123 H1110 0.929 . S
C1123 C1115 1.433 . S
C1123 N1125 1.384 . S
N1124 C1120 1.427 . S
N1124 C1121 1.384 . S
N1125 C1117 1.427 . S
N1125 C1123 1.384 . S
H1126 C1132 0.930 . S
H1127 C1136 0.930 . S
H1128 C1141 0.929 . S
H1129 C1139 0.929 . S
H1130 C1134 0.929 . S
H1131 C1140 0.929 . S
C1132 H1126 0.930 . S
C1132 C1133 1.367 . S
C1132 C1140 1.378 . S
C1133 C1132 1.367 . S
C1133 C1141 1.433 . S
C1134 H1130 0.929 . S
C1134 C1136 1.378 . S
C1134 C1138 1.350 . S
C1135 C1138 1.463 . S
C1135 C1140 1.350 . S
C1135 N1143 1.427 . S
C1136 H1127 0.930 . S
C1136 C1134 1.378 . S
C1136 C1137 1.367 . S
C1137 C1136 1.367 . S
C1137 C1139 1.433 . S
C1138 C1134 1.350 . S
C1138 C1135 1.463 . S
C1138 N1142 1.427 . S
C1139 H1129 0.929 . S
C1139 C1137 1.433 . S
C1139 N1142 1.384 . S
C1140 H1131 0.929 . S
C1140 C1132 1.378 . S
C1140 C1135 1.350 . S
C1141 H1128 0.929 . S
C1141 C1133 1.433 . S
C1141 N1143 1.384 . S
N1142 C1138 1.427 . S
N1142 C1139 1.384 . S
N1143 C1135 1.427 . S
N1143 C1141 1.384 . S
H1144 C1150 0.930 . S
H1145 C1154 0.930 . S
H1146 C1159 0.929 . S
H1147 C1157 0.929 . S
H1148 C1152 0.929 . S
H1149 C1158 0.929 . S
C1150 H1144 0.930 . S
C1150 C1151 1.367 . S
C1150 C1158 1.378 . S
C1151 C1150 1.367 . S
C1151 C1159 1.433 . S
C1152 H1148 0.929 . S
C1152 C1154 1.378 . S
C1152 C1156 1.350 . S
C1153 C1156 1.463 . S
C1153 C1158 1.350 . S
C1153 N1161 1.427 . S
C1154 H1145 0.930 . S
C1154 C1152 1.378 . S
C1154 C1155 1.367 . S
C1155 C1154 1.367 . S
C1155 C1157 1.433 . S
C1156 C1152 1.350 . S
C1156 C1153 1.463 . S
C1156 N1160 1.427 . S
C1157 H1147 0.929 . S
C1157 C1155 1.433 . S
C1157 N1160 1.384 . S
C1158 H1149 0.929 . S
C1158 C1150 1.378 . S
C1158 C1153 1.350 . S
C1159 H1146 0.929 . S
C1159 C1151 1.433 . S
C1159 N1161 1.384 . S
N1160 C1156 1.427 . S
N1160 C1157 1.384 . S
N1161 C1153 1.427 . S
N1161 C1159 1.384 . S
H1162 C1168 0.930 . S
H1163 C1172 0.930 . S
H1164 C1177 0.929 . S
H1165 C1175 0.929 . S
H1166 C1170 0.929 . S
H1167 C1176 0.929 . S
C1168 H1162 0.930 . S
C1168 C1169 1.367 . S
C1168 C1176 1.378 . S
C1169 C1168 1.367 . S
C1169 C1177 1.433 . S
C1170 H1166 0.929 . S
C1170 C1172 1.378 . S
C1170 C1174 1.350 . S
C1171 C1174 1.463 . S
C1171 C1176 1.350 . S
C1171 N1179 1.427 . S
C1172 H1163 0.930 . S
C1172 C1170 1.378 . S
C1172 C1173 1.367 . S
C1173 C1172 1.367 . S
C1173 C1175 1.433 . S
C1174 C1170 1.350 . S
C1174 C1171 1.463 . S
C1174 N1178 1.427 . S
C1175 H1165 0.929 . S
C1175 C1173 1.433 . S
C1175 N1178 1.384 . S
C1176 H1167 0.929 . S
C1176 C1168 1.378 . S
C1176 C1171 1.350 . S
C1177 H1164 0.929 . S
C1177 C1169 1.433 . S
C1177 N1179 1.384 . S
N1178 C1174 1.427 . S
N1178 C1175 1.384 . S
N1179 C1171 1.427 . S
N1179 C1177 1.384 . S
H1180 C1186 0.930 . S
H1181 C1190 0.930 . S
H1182 C1195 0.929 . S
H1183 C1193 0.929 . S
H1184 C1188 0.929 . S
H1185 C1194 0.929 . S
C1186 H1180 0.930 . S
C1186 C1187 1.367 . S
C1186 C1194 1.378 . S
C1187 C1186 1.367 . S
C1187 C1195 1.433 . S
C1188 H1184 0.929 . S
C1188 C1190 1.378 . S
C1188 C1192 1.350 . S
C1189 C1192 1.463 . S
C1189 C1194 1.350 . S
C1189 N1197 1.427 . S
C1190 H1181 0.930 . S
C1190 C1188 1.378 . S
C1190 C1191 1.367 . S
C1191 C1190 1.367 . S
C1191 C1193 1.433 . S
C1192 C1188 1.350 . S
C1192 C1189 1.463 . S
C1192 N1196 1.427 . S
C1193 H1183 0.929 . S
C1193 C1191 1.433 . S
C1193 N1196 1.384 . S
C1194 H1185 0.929 . S
C1194 C1186 1.378 . S
C1194 C1189 1.350 . S
C1195 H1182 0.929 . S
C1195 C1187 1.433 . S
C1195 N1197 1.384 . S
N1196 C1192 1.427 . S
N1196 C1193 1.384 . S
N1197 C1189 1.427 . S
N1197 C1195 1.384 . S
H1198 C1204 0.930 . S
H1199 C1208 0.930 . S
H1200 C1213 0.929 . S
H1201 C1211 0.929 . S
H1202 C1206 0.929 . S
H1203 C1212 0.929 . S
C1204 H1198 0.930 . S
C1204 C1205 1.367 . S
C1204 C1212 1.378 . S
C1205 C1204 1.367 . S
C1205 C1213 1.433 . S
C1206 H1202 0.929 . S
C1206 C1208 1.378 . S
C1206 C1210 1.350 . S
C1207 C1210 1.463 . S
C1207 C1212 1.350 . S
C1207 N1215 1.427 . S
C1208 H1199 0.930 . S
C1208 C1206 1.378 . S
C1208 C1209 1.367 . S
C1209 C1208 1.367 . S
C1209 C1211 1.433 . S
C1210 C1206 1.350 . S
C1210 C1207 1.463 . S
C1210 N1214 1.427 . S
C1211 H1201 0.929 . S
C1211 C1209 1.433 . S
C1211 N1214 1.384 . S
C1212 H1203 0.929 . S
C1212 C1204 1.378 . S
C1212 C1207 1.350 . S
C1213 H1200 0.929 . S
C1213 C1205 1.433 . S
C1213 N1215 1.384 . S
N1214 C1210 1.427 . S
N1214 C1211 1.384 . S
N1215 C1207 1.427 . S
N1215 C1213 1.384 . S
H1216 C1222 0.930 . S
H1217 C1226 0.930 . S
H1218 C1231 0.929 . S
H1219 C1229 0.929 . S
H1220 C1224 0.929 . S
H1221 C1230 0.929 . S
C1222 H1216 0.930 . S
C1222 C1223 1.367 . S
C1222 C1230 1.378 . S
C1223 C1222 1.367 . S
C1223 C1231 1.433 . S
C1224 H1220 0.929 . S
C1224 C1226 1.378 . S
C1224 C1228 1.350 . S
C1225 C1228 1.463 . S
C1225 C1230 1.350 . S
C1225 N1233 1.427 . S
C1226 H1217 0.930 . S
C1226 C1224 1.378 . S
C1226 C1227 1.367 . S
C1227 C1226 1.367 . S
C1227 C1229 1.433 . S
C1228 C1224 1.350 . S
C1228 C1225 1.463 . S
C1228 N1232 1.427 . S
C1229 H1219 0.929 . S
C1229 C1227 1.433 . S
C1229 N1232 1.384 . S
C1230 H1221 0.929 . S
C1230 C1222 1.378 . S
C1230 C1225 1.350 . S
C1231 H1218 0.929 . S
C1231 C1223 1.433 . S
C1231 N1233 1.384 . S
N1232 C1228 1.427 . S
N1232 C1229 1.384 . S
N1233 C1225 1.427 . S
N1233 C1231 1.384 . S
H1234 C1240 0.930 . S
H1235 C1244 0.930 . S
H1236 C1249 0.929 . S
H1237 C1247 0.929 . S
H1238 C1242 0.929 . S
H1239 C1248 0.929 . S
C1240 H1234 0.930 . S
C1240 C1241 1.367 . S
C1240 C1248 1.378 . S
C1241 C1240 1.367 . S
C1241 C1249 1.433 . S
C1242 H1238 0.929 . S
C1242 C1244 1.378 1_455 S
C1242 C1246 1.350 . S
C1243 C1246 1.463 . S
C1243 C1248 1.350 . S
C1243 N1251 1.427 . S
C1244 H1235 0.930 . S
C1244 C1242 1.378 1_655 S
C1244 C1245 1.367 . S
C1245 C1244 1.367 . S
C1245 C1247 1.433 . S
C1246 C1242 1.350 . S
C1246 C1243 1.463 . S
C1246 N1250 1.427 1_455 S
C1247 H1237 0.929 . S
C1247 C1245 1.433 . S
C1247 N1250 1.384 . S
C1248 H1239 0.929 . S
C1248 C1240 1.378 . S
C1248 C1243 1.350 . S
C1249 H1236 0.929 . S
C1249 C1241 1.433 . S
C1249 N1251 1.384 . S
N1250 C1246 1.427 1_655 S
N1250 C1247 1.384 . S
N1251 C1243 1.427 . S
N1251 C1249 1.384 . S
H1252 C1258 0.930 . S
H1253 C1262 0.930 . S
H1254 C1267 0.929 . S
H1255 C1265 0.929 . S
H1256 C1260 0.929 . S
H1257 C1266 0.929 . S
C1258 H1252 0.930 . S
C1258 C1259 1.367 . S
C1258 C1266 1.378 . S
C1259 C1258 1.367 . S
C1259 C1267 1.433 . S
C1260 H1256 0.929 . S
C1260 C1262 1.378 . S
C1260 C1264 1.350 . S
C1261 C1264 1.463 . S
C1261 C1266 1.350 . S
C1261 N1269 1.427 . S
C1262 H1253 0.930 . S
C1262 C1260 1.378 . S
C1262 C1263 1.367 . S
C1263 C1262 1.367 . S
C1263 C1265 1.433 . S
C1264 C1260 1.350 . S
C1264 C1261 1.463 . S
C1264 N1268 1.427 . S
C1265 H1255 0.929 . S
C1265 C1263 1.433 . S
C1265 N1268 1.384 . S
C1266 H1257 0.929 . S
C1266 C1258 1.378 . S
C1266 C1261 1.350 . S
C1267 H1254 0.929 . S
C1267 C1259 1.433 . S
C1267 N1269 1.384 . S
N1268 C1264 1.427 . S
N1268 C1265 1.384 . S
N1269 C1261 1.427 . S
N1269 C1267 1.384 . S
H1270 C1276 0.930 . S
H1271 C1280 0.930 . S
H1272 C1285 0.929 . S
H1273 C1283 0.929 . S
H1274 C1278 0.929 . S
H1275 C1284 0.929 . S
C1276 H1270 0.930 . S
C1276 C1277 1.367 . S
C1276 C1284 1.378 . S
C1277 C1276 1.367 . S
C1277 C1285 1.433 . S
C1278 H1274 0.929 . S
C1278 C1280 1.378 . S
C1278 C1282 1.350 . S
C1279 C1282 1.463 . S
C1279 C1284 1.350 . S
C1279 N1287 1.427 . S
C1280 H1271 0.930 . S
C1280 C1278 1.378 . S
C1280 C1281 1.367 . S
C1281 C1280 1.367 . S
C1281 C1283 1.433 . S
C1282 C1278 1.350 . S
C1282 C1279 1.463 . S
C1282 N1286 1.427 . S
C1283 H1273 0.929 . S
C1283 C1281 1.433 . S
C1283 N1286 1.384 . S
C1284 H1275 0.929 . S
C1284 C1276 1.378 . S
C1284 C1279 1.350 . S
C1285 H1272 0.929 . S
C1285 C1277 1.433 . S
C1285 N1287 1.384 . S
N1286 C1282 1.427 . S
N1286 C1283 1.384 . S
N1287 C1279 1.427 . S
N1287 C1285 1.384 . S
H1288 C1294 0.930 . S
H1289 C1298 0.930 . S
H1290 C1303 0.929 . S
H1291 C1301 0.929 . S
H1292 C1296 0.929 . S
H1293 C1302 0.929 . S
C1294 H1288 0.930 . S
C1294 C1295 1.367 . S
C1294 C1302 1.378 . S
C1295 C1294 1.367 . S
C1295 C1303 1.433 . S
C1296 H1292 0.929 . S
C1296 C1298 1.378 . S
C1296 C1300 1.350 . S
C1297 C1300 1.463 . S
C1297 C1302 1.350 . S
C1297 N1305 1.427 . S
C1298 H1289 0.930 . S
C1298 C1296 1.378 . S
C1298 C1299 1.367 . S
C1299 C1298 1.367 . S
C1299 C1301 1.433 . S
C1300 C1296 1.350 . S
C1300 C1297 1.463 . S
C1300 N1304 1.427 . S
C1301 H1291 0.929 . S
C1301 C1299 1.433 . S
C1301 N1304 1.384 . S
C1302 H1293 0.929 . S
C1302 C1294 1.378 . S
C1302 C1297 1.350 . S
C1303 H1290 0.929 . S
C1303 C1295 1.433 . S
C1303 N1305 1.384 . S
N1304 C1300 1.427 . S
N1304 C1301 1.384 . S
N1305 C1297 1.427 . S
N1305 C1303 1.384 . S
H1306 C1312 0.930 . S
H1307 C1316 0.930 . S
H1308 C1321 0.929 . S
H1309 C1319 0.929 . S
H1310 C1314 0.929 . S
H1311 C1320 0.929 . S
C1312 H1306 0.930 . S
C1312 C1313 1.367 . S
C1312 C1320 1.378 . S
C1313 C1312 1.367 . S
C1313 C1321 1.433 . S
C1314 H1310 0.929 . S
C1314 C1316 1.378 . S
C1314 C1318 1.350 . S
C1315 C1318 1.463 . S
C1315 C1320 1.350 . S
C1315 N1323 1.427 . S
C1316 H1307 0.930 . S
C1316 C1314 1.378 . S
C1316 C1317 1.367 . S
C1317 C1316 1.367 . S
C1317 C1319 1.433 . S
C1318 C1314 1.350 . S
C1318 C1315 1.463 . S
C1318 N1322 1.427 . S
C1319 H1309 0.929 . S
C1319 C1317 1.433 . S
C1319 N1322 1.384 . S
C1320 H1311 0.929 . S
C1320 C1312 1.378 . S
C1320 C1315 1.350 . S
C1321 H1308 0.929 . S
C1321 C1313 1.433 . S
C1321 N1323 1.384 . S
N1322 C1318 1.427 . S
N1322 C1319 1.384 . S
N1323 C1315 1.427 . S
N1323 C1321 1.384 . S
H1324 C1330 0.930 . S
H1325 C1334 0.930 . S
H1326 C1339 0.929 . S
H1327 C1337 0.929 . S
H1328 C1332 0.929 . S
H1329 C1338 0.929 . S
C1330 H1324 0.930 . S
C1330 C1331 1.367 . S
C1330 C1338 1.378 . S
C1331 C1330 1.367 . S
C1331 C1339 1.433 . S
C1332 H1328 0.929 . S
C1332 C1334 1.378 . S
C1332 C1336 1.350 . S
C1333 C1336 1.463 . S
C1333 C1338 1.350 . S
C1333 N1341 1.427 . S
C1334 H1325 0.930 . S
C1334 C1332 1.378 . S
C1334 C1335 1.367 . S
C1335 C1334 1.367 . S
C1335 C1337 1.433 . S
C1336 C1332 1.350 . S
C1336 C1333 1.463 . S
C1336 N1340 1.427 . S
C1337 H1327 0.929 . S
C1337 C1335 1.433 . S
C1337 N1340 1.384 . S
C1338 H1329 0.929 . S
C1338 C1330 1.378 . S
C1338 C1333 1.350 . S
C1339 H1326 0.929 . S
C1339 C1331 1.433 . S
C1339 N1341 1.384 . S
N1340 C1336 1.427 . S
N1340 C1337 1.384 . S
N1341 C1333 1.427 . S
N1341 C1339 1.384 . S
H1342 C1348 0.930 . S
H1343 C1352 0.930 . S
H1344 C1357 0.929 . S
H1345 C1355 0.929 . S
H1346 C1350 0.929 . S
H1347 C1356 0.929 . S
C1348 H1342 0.930 . S
C1348 C1349 1.367 . S
C1348 C1356 1.378 . S
C1349 C1348 1.367 . S
C1349 C1357 1.433 . S
C1350 H1346 0.929 . S
C1350 C1352 1.378 1_455 S
C1350 C1354 1.350 . S
C1351 C1354 1.463 . S
C1351 C1356 1.350 . S
C1351 N1359 1.427 . S
C1352 H1343 0.930 . S
C1352 C1350 1.378 1_655 S
C1352 C1353 1.367 . S
C1353 C1352 1.367 . S
C1353 C1355 1.433 . S
C1354 C1350 1.350 . S
C1354 C1351 1.463 . S
C1354 N1358 1.427 1_455 S
C1355 H1345 0.929 . S
C1355 C1353 1.433 . S
C1355 N1358 1.384 . S
C1356 H1347 0.929 . S
C1356 C1348 1.378 . S
C1356 C1351 1.350 . S
C1357 H1344 0.929 . S
C1357 C1349 1.433 . S
C1357 N1359 1.384 . S
N1358 C1354 1.427 1_655 S
N1358 C1355 1.384 . S
N1359 C1351 1.427 . S
N1359 C1357 1.384 . S
H1360 C1366 0.930 . S
H1361 C1370 0.930 . S
H1362 C1375 0.929 . S
H1363 C1373 0.929 . S
H1364 C1368 0.929 . S
H1365 C1374 0.929 . S
C1366 H1360 0.930 . S
C1366 C1367 1.367 . S
C1366 C1374 1.378 . S
C1367 C1366 1.367 . S
C1367 C1375 1.433 . S
C1368 H1364 0.929 . S
C1368 C1370 1.378 . S
C1368 C1372 1.350 . S
C1369 C1372 1.463 . S
C1369 C1374 1.350 . S
C1369 N1377 1.427 . S
C1370 H1361 0.930 . S
C1370 C1368 1.378 . S
C1370 C1371 1.367 . S
C1371 C1370 1.367 . S
C1371 C1373 1.433 . S
C1372 C1368 1.350 . S
C1372 C1369 1.463 . S
C1372 N1376 1.427 . S
C1373 H1363 0.929 . S
C1373 C1371 1.433 . S
C1373 N1376 1.384 . S
C1374 H1365 0.929 . S
C1374 C1366 1.378 . S
C1374 C1369 1.350 . S
C1375 H1362 0.929 . S
C1375 C1367 1.433 . S
C1375 N1377 1.384 . S
N1376 C1372 1.427 . S
N1376 C1373 1.384 . S
N1377 C1369 1.427 . S
N1377 C1375 1.384 . S
H1378 C1384 0.930 . S
H1379 C1388 0.930 . S
H1380 C1393 0.929 . S
H1381 C1391 0.929 . S
H1382 C1386 0.929 . S
H1383 C1392 0.929 . S
C1384 H1378 0.930 . S
C1384 C1385 1.367 . S
C1384 C1392 1.378 . S
C1385 C1384 1.367 . S
C1385 C1393 1.433 . S
C1386 H1382 0.929 . S
C1386 C1388 1.378 . S
C1386 C1390 1.350 . S
C1387 C1390 1.463 . S
C1387 C1392 1.350 1_655 S
C1387 N1395 1.427 . S
C1388 H1379 0.930 . S
C1388 C1386 1.378 . S
C1388 C1389 1.367 . S
C1389 C1388 1.367 . S
C1389 C1391 1.433 . S
C1390 C1386 1.350 . S
C1390 C1387 1.463 . S
C1390 N1394 1.427 . S
C1391 H1381 0.929 . S
C1391 C1389 1.433 . S
C1391 N1394 1.384 . S
C1392 H1383 0.929 . S
C1392 C1384 1.378 . S
C1392 C1387 1.350 1_455 S
C1393 H1380 0.929 . S
C1393 C1385 1.433 . S
C1393 N1395 1.384 1_455 S
N1394 C1390 1.427 . S
N1394 C1391 1.384 . S
N1395 C1387 1.427 . S
N1395 C1393 1.384 1_655 S
H1396 C1402 0.930 . S
H1397 C1406 0.930 . S
H1398 C1411 0.929 . S
H1399 C1409 0.929 . S
H1400 C1404 0.929 . S
H1401 C1410 0.929 . S
C1402 H1396 0.930 . S
C1402 C1403 1.367 . S
C1402 C1410 1.378 . S
C1403 C1402 1.367 . S
C1403 C1411 1.433 . S
C1404 H1400 0.929 . S
C1404 C1406 1.378 . S
C1404 C1408 1.350 . S
C1405 C1408 1.463 . S
C1405 C1410 1.350 . S
C1405 N1413 1.427 . S
C1406 H1397 0.930 . S
C1406 C1404 1.378 . S
C1406 C1407 1.367 . S
C1407 C1406 1.367 . S
C1407 C1409 1.433 . S
C1408 C1404 1.350 . S
C1408 C1405 1.463 . S
C1408 N1412 1.427 . S
C1409 H1399 0.929 . S
C1409 C1407 1.433 . S
C1409 N1412 1.384 . S
C1410 H1401 0.929 . S
C1410 C1402 1.378 . S
C1410 C1405 1.350 . S
C1411 H1398 0.929 . S
C1411 C1403 1.433 . S
C1411 N1413 1.384 . S
N1412 C1408 1.427 . S
N1412 C1409 1.384 . S
N1413 C1405 1.427 . S
N1413 C1411 1.384 . S
H1414 C1420 0.930 . S
H1415 C1424 0.930 . S
H1416 C1429 0.929 . S
H1417 C1427 0.929 . S
H1418 C1422 0.929 . S
H1419 C1428 0.929 . S
C1420 H1414 0.930 . S
C1420 C1421 1.367 . S
C1420 C1428 1.378 . S
C1421 C1420 1.367 . S
C1421 C1429 1.433 . S
C1422 H1418 0.929 . S
C1422 C1424 1.378 . S
C1422 C1426 1.350 . S
C1423 C1426 1.463 . S
C1423 C1428 1.350 . S
C1423 N1431 1.427 . S
C1424 H1415 0.930 . S
C1424 C1422 1.378 . S
C1424 C1425 1.367 . S
C1425 C1424 1.367 . S
C1425 C1427 1.433 . S
C1426 C1422 1.350 . S
C1426 C1423 1.463 . S
C1426 N1430 1.427 . S
C1427 H1417 0.929 . S
C1427 C1425 1.433 . S
C1427 N1430 1.384 . S
C1428 H1419 0.929 . S
C1428 C1420 1.378 . S
C1428 C1423 1.350 . S
C1429 H1416 0.929 . S
C1429 C1421 1.433 . S
C1429 N1431 1.384 . S
N1430 C1426 1.427 . S
N1430 C1427 1.384 . S
N1431 C1423 1.427 . S
N1431 C1429 1.384 . S
H1432 C1438 0.930 . S
H1433 C1442 0.930 . S
H1434 C1447 0.929 . S
H1435 C1445 0.929 . S
H1436 C1440 0.929 . S
H1437 C1446 0.929 . S
C1438 H1432 0.930 . S
C1438 C1439 1.367 . S
C1438 C1446 1.378 . S
C1439 C1438 1.367 . S
C1439 C1447 1.433 . S
C1440 H1436 0.929 . S
C1440 C1442 1.378 . S
C1440 C1444 1.350 . S
C1441 C1444 1.463 . S
C1441 C1446 1.350 . S
C1441 N1449 1.427 . S
C1442 H1433 0.930 . S
C1442 C1440 1.378 . S
C1442 C1443 1.367 . S
C1443 C1442 1.367 . S
C1443 C1445 1.433 . S
C1444 C1440 1.350 . S
C1444 C1441 1.463 . S
C1444 N1448 1.427 . S
C1445 H1435 0.929 . S
C1445 C1443 1.433 . S
C1445 N1448 1.384 . S
C1446 H1437 0.929 . S
C1446 C1438 1.378 . S
C1446 C1441 1.350 . S
C1447 H1434 0.929 . S
C1447 C1439 1.433 . S
C1447 N1449 1.384 . S
N1448 C1444 1.427 . S
N1448 C1445 1.384 . S
N1449 C1441 1.427 . S
N1449 C1447 1.384 . S
H1450 C1456 0.930 . S
H1451 C1460 0.930 . S
H1452 C1465 0.929 . S
H1453 C1463 0.929 . S
H1454 C1458 0.929 . S
H1455 C1464 0.929 . S
C1456 H1450 0.930 . S
C1456 C1457 1.367 . S
C1456 C1464 1.378 . S
C1457 C1456 1.367 . S
C1457 C1465 1.433 . S
C1458 H1454 0.929 . S
C1458 C1460 1.378 . S
C1458 C1462 1.350 . S
C1459 C1462 1.463 . S
C1459 C1464 1.350 . S
C1459 N1467 1.427 . S
C1460 H1451 0.930 . S
C1460 C1458 1.378 . S
C1460 C1461 1.367 . S
C1461 C1460 1.367 . S
C1461 C1463 1.433 . S
C1462 C1458 1.350 . S
C1462 C1459 1.463 . S
C1462 N1466 1.427 . S
C1463 H1453 0.929 . S
C1463 C1461 1.433 . S
C1463 N1466 1.384 . S
C1464 H1455 0.929 . S
C1464 C1456 1.378 . S
C1464 C1459 1.350 . S
C1465 H1452 0.929 . S
C1465 C1457 1.433 . S
C1465 N1467 1.384 . S
N1466 C1462 1.427 . S
N1466 C1463 1.384 . S
N1467 C1459 1.427 . S
N1467 C1465 1.384 . S
H1468 C1474 0.930 . S
H1469 C1478 0.930 . S
H1470 C1483 0.929 . S
H1471 C1481 0.929 . S
H1472 C1476 0.929 . S
H1473 C1482 0.929 . S
C1474 H1468 0.930 . S
C1474 C1475 1.367 . S
C1474 C1482 1.378 . S
C1475 C1474 1.367 . S
C1475 C1483 1.433 . S
C1476 H1472 0.929 . S
C1476 C1478 1.378 . S
C1476 C1480 1.350 . S
C1477 C1480 1.463 . S
C1477 C1482 1.350 . S
C1477 N1485 1.427 . S
C1478 H1469 0.930 . S
C1478 C1476 1.378 . S
C1478 C1479 1.367 . S
C1479 C1478 1.367 . S
C1479 C1481 1.433 . S
C1480 C1476 1.350 . S
C1480 C1477 1.463 . S
C1480 N1484 1.427 . S
C1481 H1471 0.929 . S
C1481 C1479 1.433 . S
C1481 N1484 1.384 . S
C1482 H1473 0.929 . S
C1482 C1474 1.378 . S
C1482 C1477 1.350 . S
C1483 H1470 0.929 . S
C1483 C1475 1.433 . S
C1483 N1485 1.384 . S
N1484 C1480 1.427 . S
N1484 C1481 1.384 . S
N1485 C1477 1.427 . S
N1485 C1483 1.384 . S
H1486 C1492 0.930 . S
H1487 C1496 0.930 . S
H1488 C1501 0.929 . S
H1489 C1499 0.929 . S
H1490 C1494 0.929 . S
H1491 C1500 0.929 . S
C1492 H1486 0.930 . S
C1492 C1493 1.367 . S
C1492 C1500 1.378 . S
C1493 C1492 1.367 . S
C1493 C1501 1.433 . S
C1494 H1490 0.929 . S
C1494 C1496 1.378 . S
C1494 C1498 1.350 1_455 S
C1495 C1498 1.463 . S
C1495 C1500 1.350 . S
C1495 N1503 1.427 . S
C1496 H1487 0.930 . S
C1496 C1494 1.378 . S
C1496 C1497 1.367 . S
C1497 C1496 1.367 . S
C1497 C1499 1.433 . S
C1498 C1494 1.350 1_655 S
C1498 C1495 1.463 . S
C1498 N1502 1.427 . S
C1499 H1489 0.929 . S
C1499 C1497 1.433 . S
C1499 N1502 1.384 1_455 S
C1500 H1491 0.929 . S
C1500 C1492 1.378 . S
C1500 C1495 1.350 . S
C1501 H1488 0.929 . S
C1501 C1493 1.433 . S
C1501 N1503 1.384 . S
N1502 C1498 1.427 . S
N1502 C1499 1.384 1_655 S
N1503 C1495 1.427 . S
N1503 C1501 1.384 . S
H1504 C1510 0.930 . S
H1505 C1514 0.930 . S
H1506 C1519 0.929 . S
H1507 C1517 0.929 . S
H1508 C1512 0.929 . S
H1509 C1518 0.929 . S
C1510 H1504 0.930 . S
C1510 C1511 1.367 . S
C1510 C1518 1.378 . S
C1511 C1510 1.367 . S
C1511 C1519 1.433 . S
C1512 H1508 0.929 . S
C1512 C1514 1.378 . S
C1512 C1516 1.350 . S
C1513 C1516 1.463 . S
C1513 C1518 1.350 . S
C1513 N1521 1.427 . S
C1514 H1505 0.930 . S
C1514 C1512 1.378 . S
C1514 C1515 1.367 . S
C1515 C1514 1.367 . S
C1515 C1517 1.433 . S
C1516 C1512 1.350 . S
C1516 C1513 1.463 . S
C1516 N1520 1.427 . S
C1517 H1507 0.929 . S
C1517 C1515 1.433 . S
C1517 N1520 1.384 . S
C1518 H1509 0.929 . S
C1518 C1510 1.378 . S
C1518 C1513 1.350 . S
C1519 H1506 0.929 . S
C1519 C1511 1.433 . S
C1519 N1521 1.384 . S
N1520 C1516 1.427 . S
N1520 C1517 1.384 . S
N1521 C1513 1.427 . S
N1521 C1519 1.384 . S
H1522 C1528 0.930 . S
H1523 C1532 0.930 . S
H1524 C1537 0.929 . S
H1525 C1535 0.929 . S
H1526 C1530 0.929 . S
H1527 C1536 0.929 . S
C1528 H1522 0.930 . S
C1528 C1529 1.367 . S
C1528 C1536 1.378 . S
C1529 C1528 1.367 . S
C1529 C1537 1.433 . S
C1530 H1526 0.929 . S
C1530 C1532 1.378 . S
C1530 C1534 1.350 . S
C1531 C1534 1.463 . S
C1531 C1536 1.350 . S
C1531 N1539 1.427 . S
C1532 H1523 0.930 . S
C1532 C1530 1.378 . S
C1532 C1533 1.367 . S
C1533 C1532 1.367 . S
C1533 C1535 1.433 . S
C1534 C1530 1.350 . S
C1534 C1531 1.463 . S
C1534 N1538 1.427 . S
C1535 H1525 0.929 . S
C1535 C1533 1.433 . S
C1535 N1538 1.384 . S
C1536 H1527 0.929 . S
C1536 C1528 1.378 . S
C1536 C1531 1.350 . S
C1537 H1524 0.929 . S
C1537 C1529 1.433 . S
C1537 N1539 1.384 . S
N1538 C1534 1.427 . S
N1538 C1535 1.384 . S
N1539 C1531 1.427 . S
N1539 C1537 1.384 . S
H1540 C1546 0.930 . S
H1541 C1550 0.930 . S
H1542 C1555 0.929 . S
H1543 C1553 0.929 . S
H1544 C1548 0.929 . S
H1545 C1554 0.929 . S
C1546 H1540 0.930 . S
C1546 C1547 1.367 . S
C1546 C1554 1.378 . S
C1547 C1546 1.367 . S
C1547 C1555 1.433 . S
C1548 H1544 0.929 . S
C1548 C1550 1.378 . S
C1548 C1552 1.350 . S
C1549 C1552 1.463 . S
C1549 C1554 1.350 . S
C1549 N1557 1.427 . S
C1550 H1541 0.930 . S
C1550 C1548 1.378 . S
C1550 C1551 1.367 . S
C1551 C1550 1.367 . S
C1551 C1553 1.433 . S
C1552 C1548 1.350 . S
C1552 C1549 1.463 . S
C1552 N1556 1.427 . S
C1553 H1543 0.929 . S
C1553 C1551 1.433 . S
C1553 N1556 1.384 . S
C1554 H1545 0.929 . S
C1554 C1546 1.378 . S
C1554 C1549 1.350 . S
C1555 H1542 0.929 . S
C1555 C1547 1.433 . S
C1555 N1557 1.384 . S
N1556 C1552 1.427 . S
N1556 C1553 1.384 . S
N1557 C1549 1.427 . S
N1557 C1555 1.384 . S
H1558 C1564 0.930 . S
H1559 C1568 0.930 . S
H1560 C1573 0.929 . S
H1561 C1571 0.929 . S
H1562 C1566 0.929 1_655 S
H1563 C1572 0.929 . S
C1564 H1558 0.930 . S
C1564 C1565 1.367 . S
C1564 C1572 1.378 . S
C1565 C1564 1.367 . S
C1565 C1573 1.433 . S
C1566 H1562 0.929 1_455 S
C1566 C1568 1.378 . S
C1566 C1570 1.350 1_455 S
C1567 C1570 1.463 . S
C1567 C1572 1.350 . S
C1567 N1575 1.427 . S
C1568 H1559 0.930 . S
C1568 C1566 1.378 . S
C1568 C1569 1.367 . S
C1569 C1568 1.367 . S
C1569 C1571 1.433 . S
C1570 C1566 1.350 1_655 S
C1570 C1567 1.463 . S
C1570 N1574 1.427 1_655 S
C1571 H1561 0.929 . S
C1571 C1569 1.433 . S
C1571 N1574 1.384 . S
C1572 H1563 0.929 . S
C1572 C1564 1.378 . S
C1572 C1567 1.350 . S
C1573 H1560 0.929 . S
C1573 C1565 1.433 . S
C1573 N1575 1.384 . S
N1574 C1570 1.427 1_455 S
N1574 C1571 1.384 . S
N1575 C1567 1.427 . S
N1575 C1573 1.384 . S
H1576 C1582 0.930 . S
H1577 C1586 0.930 . S
H1578 C1591 0.929 . S
H1579 C1589 0.929 . S
H1580 C1584 0.929 . S
H1581 C1590 0.929 . S
C1582 H1576 0.930 . S
C1582 C1583 1.367 . S
C1582 C1590 1.378 . S
C1583 C1582 1.367 . S
C1583 C1591 1.433 . S
C1584 H1580 0.929 . S
C1584 C1586 1.378 . S
C1584 C1588 1.350 . S
C1585 C1588 1.463 . S
C1585 C1590 1.350 . S
C1585 N1593 1.427 . S
C1586 H1577 0.930 . S
C1586 C1584 1.378 . S
C1586 C1587 1.367 . S
C1587 C1586 1.367 . S
C1587 C1589 1.433 . S
C1588 C1584 1.350 . S
C1588 C1585 1.463 . S
C1588 N1592 1.427 . S
C1589 H1579 0.929 . S
C1589 C1587 1.433 . S
C1589 N1592 1.384 . S
C1590 H1581 0.929 . S
C1590 C1582 1.378 . S
C1590 C1585 1.350 . S
C1591 H1578 0.929 . S
C1591 C1583 1.433 . S
C1591 N1593 1.384 . S
N1592 C1588 1.427 . S
N1592 C1589 1.384 . S
N1593 C1585 1.427 . S
N1593 C1591 1.384 . S
H1594 C1600 0.930 . S
H1595 C1604 0.930 . S
H1596 C1609 0.929 . S
H1597 C1607 0.929 . S
H1598 C1602 0.928 . S
H1599 C1608 0.929 . S
C1600 H1594 0.930 . S
C1600 C1601 1.367 . S
C1600 C1608 1.378 . S
C1601 C1600 1.367 . S
C1601 C1609 1.433 . S
C1602 H1598 0.928 . S
C1602 C1604 1.379 1_655 S
C1602 C1606 1.350 . S
C1603 C1606 1.463 . S
C1603 C1608 1.350 . S
C1603 N1611 1.427 . S
C1604 H1595 0.930 . S
C1604 C1602 1.379 1_455 S
C1604 C1605 1.367 . S
C1605 C1604 1.367 . S
C1605 C1607 1.433 . S
C1606 C1602 1.350 . S
C1606 C1603 1.463 . S
C1606 N1610 1.427 1_655 S
C1607 H1597 0.929 . S
C1607 C1605 1.433 . S
C1607 N1610 1.384 . S
C1608 H1599 0.929 . S
C1608 C1600 1.378 . S
C1608 C1603 1.350 . S
C1609 H1596 0.929 . S
C1609 C1601 1.433 . S
C1609 N1611 1.384 . S
N1610 C1606 1.427 1_455 S
N1610 C1607 1.384 . S
N1611 C1603 1.427 . S
N1611 C1609 1.384 . S
H1612 C1618 0.930 . S
H1613 C1622 0.930 . S
H1614 C1627 0.929 . S
H1615 C1625 0.929 . S
H1616 C1620 0.929 . S
H1617 C1626 0.929 . S
C1618 H1612 0.930 . S
C1618 C1619 1.367 . S
C1618 C1626 1.378 . S
C1619 C1618 1.367 . S
C1619 C1627 1.433 . S
C1620 H1616 0.929 . S
C1620 C1622 1.378 . S
C1620 C1624 1.350 . S
C1621 C1624 1.463 . S
C1621 C1626 1.350 . S
C1621 N1629 1.427 . S
C1622 H1613 0.930 . S
C1622 C1620 1.378 . S
C1622 C1623 1.367 . S
C1623 C1622 1.367 . S
C1623 C1625 1.433 . S
C1624 C1620 1.350 . S
C1624 C1621 1.463 . S
C1624 N1628 1.427 . S
C1625 H1615 0.929 . S
C1625 C1623 1.433 . S
C1625 N1628 1.384 . S
C1626 H1617 0.929 . S
C1626 C1618 1.378 . S
C1626 C1621 1.350 . S
C1627 H1614 0.929 . S
C1627 C1619 1.433 . S
C1627 N1629 1.384 . S
N1628 C1624 1.427 . S
N1628 C1625 1.384 . S
N1629 C1621 1.427 . S
N1629 C1627 1.384 . S
H1630 C1636 0.930 . S
H1631 C1640 0.930 . S
H1632 C1645 0.929 . S
H1633 C1643 0.929 . S
H1634 C1638 0.929 . S
H1635 C1644 0.929 . S
C1636 H1630 0.930 . S
C1636 C1637 1.367 . S
C1636 C1644 1.378 . S
C1637 C1636 1.367 . S
C1637 C1645 1.433 . S
C1638 H1634 0.929 . S
C1638 C1640 1.378 . S
C1638 C1642 1.350 . S
C1639 C1642 1.463 . S
C1639 C1644 1.350 . S
C1639 N1647 1.427 . S
C1640 H1631 0.930 . S
C1640 C1638 1.378 . S
C1640 C1641 1.367 . S
C1641 C1640 1.367 . S
C1641 C1643 1.433 . S
C1642 C1638 1.350 . S
C1642 C1639 1.463 . S
C1642 N1646 1.427 . S
C1643 H1633 0.929 . S
C1643 C1641 1.433 . S
C1643 N1646 1.384 . S
C1644 H1635 0.929 . S
C1644 C1636 1.378 . S
C1644 C1639 1.350 . S
C1645 H1632 0.929 . S
C1645 C1637 1.433 . S
C1645 N1647 1.384 . S
N1646 C1642 1.427 . S
N1646 C1643 1.384 . S
N1647 C1639 1.427 . S
N1647 C1645 1.384 . S
H1648 C1654 0.930 . S
H1649 C1658 0.930 . S
H1650 C1663 0.929 . S
H1651 C1661 0.929 . S
H1652 C1656 0.929 . S
H1653 C1662 0.929 . S
C1654 H1648 0.930 . S
C1654 C1655 1.367 . S
C1654 C1662 1.378 . S
C1655 C1654 1.367 . S
C1655 C1663 1.433 . S
C1656 H1652 0.929 . S
C1656 C1658 1.378 . S
C1656 C1660 1.350 . S
C1657 C1660 1.463 . S
C1657 C1662 1.350 . S
C1657 N1665 1.427 . S
C1658 H1649 0.930 . S
C1658 C1656 1.378 . S
C1658 C1659 1.367 . S
C1659 C1658 1.367 . S
C1659 C1661 1.433 . S
C1660 C1656 1.350 . S
C1660 C1657 1.463 . S
C1660 N1664 1.427 . S
C1661 H1651 0.929 . S
C1661 C1659 1.433 . S
C1661 N1664 1.384 . S
C1662 H1653 0.929 . S
C1662 C1654 1.378 . S
C1662 C1657 1.350 . S
C1663 H1650 0.929 . S
C1663 C1655 1.433 . S
C1663 N1665 1.384 . S
N1664 C1660 1.427 . S
N1664 C1661 1.384 . S
N1665 C1657 1.427 . S
N1665 C1663 1.384 . S
H1666 C1672 0.930 . S
H1667 C1676 0.930 . S
H1668 C1681 0.929 . S
H1669 C1679 0.929 . S
H1670 C1674 0.929 . S
H1671 C1680 0.929 . S
C1672 H1666 0.930 . S
C1672 C1673 1.367 . S
C1672 C1680 1.378 . S
C1673 C1672 1.367 . S
C1673 C1681 1.433 . S
C1674 H1670 0.929 . S
C1674 C1676 1.378 . S
C1674 C1678 1.350 . S
C1675 C1678 1.463 . S
C1675 C1680 1.350 . S
C1675 N1683 1.427 . S
C1676 H1667 0.930 . S
C1676 C1674 1.378 . S
C1676 C1677 1.367 . S
C1677 C1676 1.367 . S
C1677 C1679 1.433 . S
C1678 C1674 1.350 . S
C1678 C1675 1.463 . S
C1678 N1682 1.427 . S
C1679 H1669 0.929 . S
C1679 C1677 1.433 . S
C1679 N1682 1.384 . S
C1680 H1671 0.929 . S
C1680 C1672 1.378 . S
C1680 C1675 1.350 . S
C1681 H1668 0.929 . S
C1681 C1673 1.433 . S
C1681 N1683 1.384 . S
N1682 C1678 1.427 . S
N1682 C1679 1.384 . S
N1683 C1675 1.427 . S
N1683 C1681 1.384 . S
H1684 C1690 0.930 . S
H1685 C1694 0.930 . S
H1686 C1699 0.929 . S
H1687 C1697 0.929 . S
H1688 C1692 0.929 . S
H1689 C1698 0.929 . S
C1690 H1684 0.930 . S
C1690 C1691 1.367 . S
C1690 C1698 1.378 . S
C1691 C1690 1.367 . S
C1691 C1699 1.433 . S
C1692 H1688 0.929 . S
C1692 C1694 1.378 . S
C1692 C1696 1.350 . S
C1693 C1696 1.463 . S
C1693 C1698 1.350 . S
C1693 N1701 1.427 . S
C1694 H1685 0.930 . S
C1694 C1692 1.378 . S
C1694 C1695 1.367 . S
C1695 C1694 1.367 . S
C1695 C1697 1.433 . S
C1696 C1692 1.350 . S
C1696 C1693 1.463 . S
C1696 N1700 1.427 . S
C1697 H1687 0.929 . S
C1697 C1695 1.433 . S
C1697 N1700 1.384 . S
C1698 H1689 0.929 . S
C1698 C1690 1.378 . S
C1698 C1693 1.350 . S
C1699 H1686 0.929 . S
C1699 C1691 1.433 . S
C1699 N1701 1.384 . S
N1700 C1696 1.427 . S
N1700 C1697 1.384 . S
N1701 C1693 1.427 . S
N1701 C1699 1.384 . S
H1702 C1708 0.930 . S
H1703 C1712 0.930 . S
H1704 C1717 0.929 . S
H1705 C1715 0.929 . S
H1706 C1710 0.929 . S
H1707 C1716 0.929 . S
C1708 H1702 0.930 . S
C1708 C1709 1.367 . S
C1708 C1716 1.378 . S
C1709 C1708 1.367 . S
C1709 C1717 1.433 . S
C1710 H1706 0.929 . S
C1710 C1712 1.378 . S
C1710 C1714 1.350 . S
C1711 C1714 1.463 . S
C1711 C1716 1.350 1_455 S
C1711 N1719 1.427 . S
C1712 H1703 0.930 . S
C1712 C1710 1.378 . S
C1712 C1713 1.367 . S
C1713 C1712 1.367 . S
C1713 C1715 1.433 . S
C1714 C1710 1.350 . S
C1714 C1711 1.463 . S
C1714 N1718 1.427 . S
C1715 H1705 0.929 . S
C1715 C1713 1.433 . S
C1715 N1718 1.384 . S
C1716 H1707 0.929 . S
C1716 C1708 1.378 . S
C1716 C1711 1.350 1_655 S
C1717 H1704 0.929 . S
C1717 C1709 1.433 . S
C1717 N1719 1.384 1_655 S
N1718 C1714 1.427 . S
N1718 C1715 1.384 . S
N1719 C1711 1.427 . S
N1719 C1717 1.384 1_455 S
H1720 C1726 0.930 . S
H1721 C1730 0.930 . S
H1722 C1735 0.929 . S
H1723 C1733 0.929 . S
H1724 C1728 0.929 . S
H1725 C1734 0.929 . S
C1726 H1720 0.930 . S
C1726 C1727 1.367 . S
C1726 C1734 1.378 . S
C1727 C1726 1.367 . S
C1727 C1735 1.433 . S
C1728 H1724 0.929 . S
C1728 C1730 1.378 . S
C1728 C1732 1.350 . S
C1729 C1732 1.463 . S
C1729 C1734 1.350 . S
C1729 N1737 1.427 . S
C1730 H1721 0.930 . S
C1730 C1728 1.378 . S
C1730 C1731 1.367 . S
C1731 C1730 1.367 . S
C1731 C1733 1.433 . S
C1732 C1728 1.350 . S
C1732 C1729 1.463 . S
C1732 N1736 1.427 . S
C1733 H1723 0.929 . S
C1733 C1731 1.433 . S
C1733 N1736 1.384 . S
C1734 H1725 0.929 . S
C1734 C1726 1.378 . S
C1734 C1729 1.350 . S
C1735 H1722 0.929 . S
C1735 C1727 1.433 . S
C1735 N1737 1.384 . S
N1736 C1732 1.427 . S
N1736 C1733 1.384 . S
N1737 C1729 1.427 . S
N1737 C1735 1.384 . S
H1738 C1744 0.930 . S
H1739 C1748 0.930 . S
H1740 C1753 0.929 . S
H1741 C1751 0.929 . S
H1742 C1746 0.929 . S
H1743 C1752 0.929 . S
C1744 H1738 0.930 . S
C1744 C1745 1.367 . S
C1744 C1752 1.378 . S
C1745 C1744 1.367 . S
C1745 C1753 1.433 . S
C1746 H1742 0.929 . S
C1746 C1748 1.378 1_455 S
C1746 C1750 1.350 . S
C1747 C1750 1.463 . S
C1747 C1752 1.350 . S
C1747 N1755 1.427 . S
C1748 H1739 0.930 . S
C1748 C1746 1.378 1_655 S
C1748 C1749 1.367 . S
C1749 C1748 1.367 . S
C1749 C1751 1.433 . S
C1750 C1746 1.350 . S
C1750 C1747 1.463 . S
C1750 N1754 1.427 1_455 S
C1751 H1741 0.929 . S
C1751 C1749 1.433 . S
C1751 N1754 1.384 . S
C1752 H1743 0.929 . S
C1752 C1744 1.378 . S
C1752 C1747 1.350 . S
C1753 H1740 0.929 . S
C1753 C1745 1.433 . S
C1753 N1755 1.384 . S
N1754 C1750 1.427 1_655 S
N1754 C1751 1.384 . S
N1755 C1747 1.427 . S
N1755 C1753 1.384 . S
H1756 C1762 0.930 . S
H1757 C1766 0.930 . S
H1758 C1771 0.929 . S
H1759 C1769 0.929 . S
H1760 C1764 0.929 . S
H1761 C1770 0.929 . S
C1762 H1756 0.930 . S
C1762 C1763 1.367 . S
C1762 C1770 1.378 . S
C1763 C1762 1.367 . S
C1763 C1771 1.433 . S
C1764 H1760 0.929 . S
C1764 C1766 1.378 . S
C1764 C1768 1.350 . S
C1765 C1768 1.463 . S
C1765 C1770 1.350 . S
C1765 N1773 1.427 . S
C1766 H1757 0.930 . S
C1766 C1764 1.378 . S
C1766 C1767 1.367 . S
C1767 C1766 1.367 . S
C1767 C1769 1.433 . S
C1768 C1764 1.350 . S
C1768 C1765 1.463 . S
C1768 N1772 1.427 . S
C1769 H1759 0.929 . S
C1769 C1767 1.433 . S
C1769 N1772 1.384 . S
C1770 H1761 0.929 . S
C1770 C1762 1.378 . S
C1770 C1765 1.350 . S
C1771 H1758 0.929 . S
C1771 C1763 1.433 . S
C1771 N1773 1.384 . S
N1772 C1768 1.427 . S
N1772 C1769 1.384 . S
N1773 C1765 1.427 . S
N1773 C1771 1.384 . S
H1774 C1780 0.930 . S
H1775 C1784 0.930 . S
H1776 C1789 0.929 . S
H1777 C1787 0.929 . S
H1778 C1782 0.929 . S
H1779 C1788 0.929 . S
C1780 H1774 0.930 . S
C1780 C1781 1.367 . S
C1780 C1788 1.378 . S
C1781 C1780 1.367 . S
C1781 C1789 1.433 . S
C1782 H1778 0.929 . S
C1782 C1784 1.378 . S
C1782 C1786 1.350 . S
C1783 C1786 1.463 . S
C1783 C1788 1.350 . S
C1783 N1791 1.427 . S
C1784 H1775 0.930 . S
C1784 C1782 1.378 . S
C1784 C1785 1.367 . S
C1785 C1784 1.367 . S
C1785 C1787 1.433 . S
C1786 C1782 1.350 . S
C1786 C1783 1.463 . S
C1786 N1790 1.427 . S
C1787 H1777 0.929 . S
C1787 C1785 1.433 . S
C1787 N1790 1.384 . S
C1788 H1779 0.929 . S
C1788 C1780 1.378 . S
C1788 C1783 1.350 . S
C1789 H1776 0.929 . S
C1789 C1781 1.433 . S
C1789 N1791 1.384 . S
N1790 C1786 1.427 . S
N1790 C1787 1.384 . S
N1791 C1783 1.427 . S
N1791 C1789 1.384 . S
H1792 C1798 0.930 . S
H1793 C1802 0.930 . S
H1794 C1807 0.929 . S
H1795 C1805 0.929 . S
H1796 C1800 0.929 . S
H1797 C1806 0.929 . S
C1798 H1792 0.930 . S
C1798 C1799 1.367 . S
C1798 C1806 1.378 . S
C1799 C1798 1.367 . S
C1799 C1807 1.433 . S
C1800 H1796 0.929 . S
C1800 C1802 1.378 . S
C1800 C1804 1.350 . S
C1801 C1804 1.463 1_545 S
C1801 C1806 1.350 . S
C1801 N1809 1.427 . S
C1802 H1793 0.930 . S
C1802 C1800 1.378 . S
C1802 C1803 1.367 . S
C1803 C1802 1.367 . S
C1803 C1805 1.433 . S
C1804 C1800 1.350 . S
C1804 C1801 1.463 1_565 S
C1804 N1808 1.427 . S
C1805 H1795 0.929 . S
C1805 C1803 1.433 . S
C1805 N1808 1.384 . S
C1806 H1797 0.929 . S
C1806 C1798 1.378 . S
C1806 C1801 1.350 . S
C1807 H1794 0.929 . S
C1807 C1799 1.433 . S
C1807 N1809 1.384 . S
N1808 C1804 1.427 . S
N1808 C1805 1.384 . S
N1809 C1801 1.427 . S
N1809 C1807 1.384 . S
H1810 C1816 0.930 . S
H1811 C1820 0.930 . S
H1812 C1825 0.929 . S
H1813 C1823 0.929 . S
H1814 C1818 0.929 . S
H1815 C1824 0.929 . S
C1816 H1810 0.930 . S
C1816 C1817 1.367 . S
C1816 C1824 1.378 . S
C1817 C1816 1.367 . S
C1817 C1825 1.433 . S
C1818 H1814 0.929 . S
C1818 C1820 1.378 . S
C1818 C1822 1.350 . S
C1819 C1822 1.463 . S
C1819 C1824 1.350 . S
C1819 N1827 1.427 . S
C1820 H1811 0.930 . S
C1820 C1818 1.378 . S
C1820 C1821 1.367 . S
C1821 C1820 1.367 . S
C1821 C1823 1.433 . S
C1822 C1818 1.350 . S
C1822 C1819 1.463 . S
C1822 N1826 1.427 . S
C1823 H1813 0.929 . S
C1823 C1821 1.433 . S
C1823 N1826 1.384 . S
C1824 H1815 0.929 . S
C1824 C1816 1.378 . S
C1824 C1819 1.350 . S
C1825 H1812 0.929 . S
C1825 C1817 1.433 . S
C1825 N1827 1.384 . S
N1826 C1822 1.427 . S
N1826 C1823 1.384 . S
N1827 C1819 1.427 . S
N1827 C1825 1.384 . S
H1828 C1834 0.930 . S
H1829 C1838 0.930 . S
H1830 C1843 0.929 . S
H1831 C1841 0.929 . S
H1832 C1836 0.929 . S
H1833 C1842 0.929 . S
C1834 H1828 0.930 . S
C1834 C1835 1.367 . S
C1834 C1842 1.378 . S
C1835 C1834 1.367 . S
C1835 C1843 1.433 . S
C1836 H1832 0.929 . S
C1836 C1838 1.378 . S
C1836 C1840 1.350 . S
C1837 C1840 1.463 1_565 S
C1837 C1842 1.350 . S
C1837 N1845 1.427 . S
C1838 H1829 0.930 . S
C1838 C1836 1.378 . S
C1838 C1839 1.367 . S
C1839 C1838 1.367 . S
C1839 C1841 1.433 . S
C1840 C1836 1.350 . S
C1840 C1837 1.463 1_545 S
C1840 N1844 1.427 . S
C1841 H1831 0.929 . S
C1841 C1839 1.433 . S
C1841 N1844 1.384 . S
C1842 H1833 0.929 . S
C1842 C1834 1.378 . S
C1842 C1837 1.350 . S
C1843 H1830 0.929 . S
C1843 C1835 1.433 . S
C1843 N1845 1.384 . S
N1844 C1840 1.427 . S
N1844 C1841 1.384 . S
N1845 C1837 1.427 . S
N1845 C1843 1.384 . S
H1846 C1852 0.930 . S
H1847 C1856 0.930 . S
H1848 C1861 0.929 . S
H1849 C1859 0.929 . S
H1850 C1854 0.929 . S
H1851 C1860 0.929 . S
C1852 H1846 0.930 . S
C1852 C1853 1.367 . S
C1852 C1860 1.378 . S
C1853 C1852 1.367 . S
C1853 C1861 1.433 . S
C1854 H1850 0.929 . S
C1854 C1856 1.378 . S
C1854 C1858 1.350 . S
C1855 C1858 1.463 1_556 S
C1855 C1860 1.350 . S
C1855 N1863 1.427 . S
C1856 H1847 0.930 . S
C1856 C1854 1.378 . S
C1856 C1857 1.367 . S
C1857 C1856 1.367 . S
C1857 C1859 1.433 . S
C1858 C1854 1.350 . S
C1858 C1855 1.463 1_554 S
C1858 N1862 1.427 . S
C1859 H1849 0.929 . S
C1859 C1857 1.433 . S
C1859 N1862 1.384 . S
C1860 H1851 0.929 . S
C1860 C1852 1.378 . S
C1860 C1855 1.350 . S
C1861 H1848 0.929 . S
C1861 C1853 1.433 . S
C1861 N1863 1.384 . S
N1862 C1858 1.427 . S
N1862 C1859 1.384 . S
N1863 C1855 1.427 . S
N1863 C1861 1.384 . S
H1864 C1870 0.930 . S
H1865 C1874 0.930 . S
H1866 C1879 0.929 . S
H1867 C1877 0.929 . S
H1868 C1872 0.929 . S
H1869 C1878 0.929 . S
C1870 H1864 0.930 . S
C1870 C1871 1.367 . S
C1870 C1878 1.378 . S
C1871 C1870 1.367 . S
C1871 C1879 1.433 . S
C1872 H1868 0.929 . S
C1872 C1874 1.378 . S
C1872 C1876 1.350 . S
C1873 C1876 1.463 1_545 S
C1873 C1878 1.350 . S
C1873 N1881 1.427 . S
C1874 H1865 0.930 . S
C1874 C1872 1.378 . S
C1874 C1875 1.367 . S
C1875 C1874 1.367 . S
C1875 C1877 1.433 . S
C1876 C1872 1.350 . S
C1876 C1873 1.463 1_565 S
C1876 N1880 1.427 . S
C1877 H1867 0.929 . S
C1877 C1875 1.433 . S
C1877 N1880 1.384 . S
C1878 H1869 0.929 . S
C1878 C1870 1.378 . S
C1878 C1873 1.350 . S
C1879 H1866 0.929 . S
C1879 C1871 1.433 . S
C1879 N1881 1.384 . S
N1880 C1876 1.427 . S
N1880 C1877 1.384 . S
N1881 C1873 1.427 . S
N1881 C1879 1.384 . S
H1882 C1888 0.930 . S
H1883 C1892 0.930 . S
H1884 C1897 0.929 . S
H1885 C1895 0.929 . S
H1886 C1890 0.929 . S
H1887 C1896 0.929 . S
C1888 H1882 0.930 . S
C1888 C1889 1.367 . S
C1888 C1896 1.378 . S
C1889 C1888 1.367 . S
C1889 C1897 1.433 . S
C1890 H1886 0.929 . S
C1890 C1892 1.378 . S
C1890 C1894 1.350 . S
C1891 C1894 1.463 . S
C1891 C1896 1.350 . S
C1891 N1899 1.427 . S
C1892 H1883 0.930 . S
C1892 C1890 1.378 . S
C1892 C1893 1.367 . S
C1893 C1892 1.367 . S
C1893 C1895 1.433 . S
C1894 C1890 1.350 . S
C1894 C1891 1.463 . S
C1894 N1898 1.427 . S
C1895 H1885 0.929 . S
C1895 C1893 1.433 . S
C1895 N1898 1.384 . S
C1896 H1887 0.929 . S
C1896 C1888 1.378 . S
C1896 C1891 1.350 . S
C1897 H1884 0.929 . S
C1897 C1889 1.433 . S
C1897 N1899 1.384 . S
N1898 C1894 1.427 . S
N1898 C1895 1.384 . S
N1899 C1891 1.427 . S
N1899 C1897 1.384 . S
H1900 C1906 0.930 . S
H1901 C1910 0.930 . S
H1902 C1915 0.929 . S
H1903 C1913 0.929 . S
H1904 C1908 0.929 . S
H1905 C1914 0.929 . S
C1906 H1900 0.930 . S
C1906 C1907 1.367 . S
C1906 C1914 1.378 . S
C1907 C1906 1.367 . S
C1907 C1915 1.433 . S
C1908 H1904 0.929 . S
C1908 C1910 1.378 . S
C1908 C1912 1.350 . S
C1909 C1912 1.463 1_545 S
C1909 C1914 1.350 . S
C1909 N1917 1.427 . S
C1910 H1901 0.930 . S
C1910 C1908 1.378 . S
C1910 C1911 1.367 . S
C1911 C1910 1.367 . S
C1911 C1913 1.433 . S
C1912 C1908 1.350 . S
C1912 C1909 1.463 1_565 S
C1912 N1916 1.427 . S
C1913 H1903 0.929 . S
C1913 C1911 1.433 . S
C1913 N1916 1.384 . S
C1914 H1905 0.929 . S
C1914 C1906 1.378 . S
C1914 C1909 1.350 . S
C1915 H1902 0.929 . S
C1915 C1907 1.433 . S
C1915 N1917 1.384 . S
N1916 C1912 1.427 . S
N1916 C1913 1.384 . S
N1917 C1909 1.427 . S
N1917 C1915 1.384 . S
H1918 C1924 0.930 . S
H1919 C1928 0.930 . S
H1920 C1933 0.929 . S
H1921 C1931 0.929 . S
H1922 C1926 0.929 . S
H1923 C1932 0.929 . S
C1924 H1918 0.930 . S
C1924 C1925 1.367 1_554 S
C1924 C1932 1.378 . S
C1925 C1924 1.367 1_556 S
C1925 C1933 1.433 . S
C1926 H1922 0.929 . S
C1926 C1928 1.378 . S
C1926 C1930 1.350 1_556 S
C1927 C1930 1.463 1_556 S
C1927 C1932 1.350 1_556 S
C1927 N1935 1.427 . S
C1928 H1919 0.930 . S
C1928 C1926 1.378 . S
C1928 C1929 1.367 1_556 S
C1929 C1928 1.367 1_554 S
C1929 C1931 1.433 . S
C1930 C1926 1.350 1_554 S
C1930 C1927 1.463 1_554 S
C1930 N1934 1.427 . S
C1931 H1921 0.929 . S
C1931 C1929 1.433 . S
C1931 N1934 1.384 . S
C1932 H1923 0.929 . S
C1932 C1924 1.378 . S
C1932 C1927 1.350 1_554 S
C1933 H1920 0.929 . S
C1933 C1925 1.433 . S
C1933 N1935 1.384 . S
N1934 C1930 1.427 . S
N1934 C1931 1.384 . S
N1935 C1927 1.427 . S
N1935 C1933 1.384 . S
H1936 C1942 0.930 . S
H1937 C1946 0.930 . S
H1938 C1951 0.929 . S
H1939 C1949 0.929 . S
H1940 C1944 0.929 . S
H1941 C1950 0.929 . S
C1942 H1936 0.930 . S
C1942 C1943 1.367 . S
C1942 C1950 1.378 . S
C1943 C1942 1.367 . S
C1943 C1951 1.433 . S
C1944 H1940 0.929 . S
C1944 C1946 1.378 . S
C1944 C1948 1.350 . S
C1945 C1948 1.463 . S
C1945 C1950 1.350 . S
C1945 N1953 1.427 . S
C1946 H1937 0.930 . S
C1946 C1944 1.378 . S
C1946 C1947 1.367 . S
C1947 C1946 1.367 . S
C1947 C1949 1.433 . S
C1948 C1944 1.350 . S
C1948 C1945 1.463 . S
C1948 N1952 1.427 . S
C1949 H1939 0.929 . S
C1949 C1947 1.433 . S
C1949 N1952 1.384 . S
C1950 H1941 0.929 . S
C1950 C1942 1.378 . S
C1950 C1945 1.350 . S
C1951 H1938 0.929 . S
C1951 C1943 1.433 . S
C1951 N1953 1.384 . S
N1952 C1948 1.427 . S
N1952 C1949 1.384 . S
N1953 C1945 1.427 . S
N1953 C1951 1.384 . S
H1954 C1960 0.930 . S
H1955 C1964 0.930 . S
H1956 C1969 0.929 . S
H1957 C1967 0.929 . S
H1958 C1962 0.929 . S
H1959 C1968 0.929 . S
C1960 H1954 0.930 . S
C1960 C1961 1.367 1_554 S
C1960 C1968 1.378 . S
C1961 C1960 1.367 1_556 S
C1961 C1969 1.433 . S
C1962 H1958 0.929 . S
C1962 C1964 1.378 . S
C1962 C1966 1.350 1_556 S
C1963 C1966 1.463 1_556 S
C1963 C1968 1.350 1_556 S
C1963 N1971 1.427 . S
C1964 H1955 0.930 . S
C1964 C1962 1.378 . S
C1964 C1965 1.367 1_556 S
C1965 C1964 1.367 1_554 S
C1965 C1967 1.433 . S
C1966 C1962 1.350 1_554 S
C1966 C1963 1.463 1_554 S
C1966 N1970 1.427 . S
C1967 H1957 0.929 . S
C1967 C1965 1.433 . S
C1967 N1970 1.384 . S
C1968 H1959 0.929 . S
C1968 C1960 1.378 . S
C1968 C1963 1.350 1_554 S
C1969 H1956 0.929 . S
C1969 C1961 1.433 . S
C1969 N1971 1.384 . S
N1970 C1966 1.427 . S
N1970 C1967 1.384 . S
N1971 C1963 1.427 . S
N1971 C1969 1.384 . S
H1972 C1978 0.930 . S
H1973 C1982 0.930 . S
H1974 C1987 0.929 . S
H1975 C1985 0.929 . S
H1976 C1980 0.929 . S
H1977 C1986 0.929 . S
C1978 H1972 0.930 . S
C1978 C1979 1.367 . S
C1978 C1986 1.378 . S
C1979 C1978 1.367 . S
C1979 C1987 1.433 . S
C1980 H1976 0.929 . S
C1980 C1982 1.378 . S
C1980 C1984 1.350 . S
C1981 C1984 1.463 . S
C1981 C1986 1.350 . S
C1981 N1989 1.427 . S
C1982 H1973 0.930 . S
C1982 C1980 1.378 . S
C1982 C1983 1.367 . S
C1983 C1982 1.367 . S
C1983 C1985 1.433 . S
C1984 C1980 1.350 . S
C1984 C1981 1.463 . S
C1984 N1988 1.427 . S
C1985 H1975 0.929 . S
C1985 C1983 1.433 . S
C1985 N1988 1.384 . S
C1986 H1977 0.929 . S
C1986 C1978 1.378 . S
C1986 C1981 1.350 . S
C1987 H1974 0.929 . S
C1987 C1979 1.433 . S
C1987 N1989 1.384 . S
N1988 C1984 1.427 . S
N1988 C1985 1.384 . S
N1989 C1981 1.427 . S
N1989 C1987 1.384 . S
H1990 C1996 0.930 . S
H1991 C2000 0.930 . S
H1992 C2005 0.929 . S
H1993 C2003 0.929 . S
H1994 C1998 0.929 . S
H1995 C2004 0.929 . S
C1996 H1990 0.930 . S
C1996 C1997 1.367 . S
C1996 C2004 1.378 . S
C1997 C1996 1.367 . S
C1997 C2005 1.433 . S
C1998 H1994 0.929 . S
C1998 C2000 1.378 . S
C1998 C2002 1.350 . S
C1999 C2002 1.463 . S
C1999 C2004 1.350 . S
C1999 N2007 1.427 . S
C2000 H1991 0.930 . S
C2000 C1998 1.378 . S
C2000 C2001 1.367 . S
C2001 C2000 1.367 . S
C2001 C2003 1.433 . S
C2002 C1998 1.350 . S
C2002 C1999 1.463 . S
C2002 N2006 1.427 . S
C2003 H1993 0.929 . S
C2003 C2001 1.433 . S
C2003 N2006 1.384 . S
C2004 H1995 0.929 . S
C2004 C1996 1.378 . S
C2004 C1999 1.350 . S
C2005 H1992 0.929 . S
C2005 C1997 1.433 . S
C2005 N2007 1.384 . S
N2006 C2002 1.427 . S
N2006 C2003 1.384 . S
N2007 C1999 1.427 . S
N2007 C2005 1.384 . S
H2008 C2014 0.930 . S
H2009 C2018 0.930 . S
H2010 C2023 0.929 . S
H2011 C2021 0.929 . S
H2012 C2016 0.929 . S
H2013 C2022 0.929 . S
C2014 H2008 0.930 . S
C2014 C2015 1.367 . S
C2014 C2022 1.378 . S
C2015 C2014 1.367 . S
C2015 C2023 1.433 . S
C2016 H2012 0.929 . S
C2016 C2018 1.378 . S
C2016 C2020 1.350 . S
C2017 C2020 1.463 . S
C2017 C2022 1.350 . S
C2017 N2025 1.427 . S
C2018 H2009 0.930 . S
C2018 C2016 1.378 . S
C2018 C2019 1.367 . S
C2019 C2018 1.367 . S
C2019 C2021 1.433 . S
C2020 C2016 1.350 . S
C2020 C2017 1.463 . S
C2020 N2024 1.427 . S
C2021 H2011 0.929 . S
C2021 C2019 1.433 . S
C2021 N2024 1.384 . S
C2022 H2013 0.929 . S
C2022 C2014 1.378 . S
C2022 C2017 1.350 . S
C2023 H2010 0.929 . S
C2023 C2015 1.433 . S
C2023 N2025 1.384 . S
N2024 C2020 1.427 . S
N2024 C2021 1.384 . S
N2025 C2017 1.427 . S
N2025 C2023 1.384 . S
H2026 C2032 0.930 . S
H2027 C2036 0.930 . S
H2028 C2041 0.924 1_554 S
H2029 C2039 0.924 1_556 S
H2030 C2034 0.929 . S
H2031 C2040 0.929 . S
C2032 H2026 0.930 . S
C2032 C2033 1.367 . S
C2032 C2040 1.378 . S
C2033 C2032 1.367 . S
C2033 C2041 1.433 . S
C2034 H2030 0.929 . S
C2034 C2036 1.378 . S
C2034 C2038 1.350 . S
C2035 C2038 1.463 1_556 S
C2035 C2040 1.350 . S
C2035 N2043 1.427 1_556 S
C2036 H2027 0.930 . S
C2036 C2034 1.378 . S
C2036 C2037 1.367 . S
C2037 C2036 1.367 . S
C2037 C2039 1.433 . S
C2038 C2034 1.350 . S
C2038 C2035 1.463 1_554 S
C2038 N2042 1.427 1_554 S
C2039 H2029 0.924 1_554 S
C2039 C2037 1.433 . S
C2039 N2042 1.384 1_554 S
C2040 H2031 0.929 . S
C2040 C2032 1.378 . S
C2040 C2035 1.350 . S
C2041 H2028 0.924 1_556 S
C2041 C2033 1.433 . S
C2041 N2043 1.384 1_556 S
N2042 C2038 1.427 1_556 S
N2042 C2039 1.384 1_556 S
N2043 C2035 1.427 1_554 S
N2043 C2041 1.384 1_554 S
H2044 C2050 0.930 . S
H2045 C2054 0.930 . S
H2046 C2059 0.929 . S
H2047 C2057 0.929 . S
H2048 C2052 0.929 . S
H2049 C2058 0.929 . S
C2050 H2044 0.930 . S
C2050 C2051 1.367 . S
C2050 C2058 1.378 . S
C2051 C2050 1.367 . S
C2051 C2059 1.433 . S
C2052 H2048 0.929 . S
C2052 C2054 1.378 . S
C2052 C2056 1.350 . S
C2053 C2056 1.463 . S
C2053 C2058 1.350 . S
C2053 N2061 1.427 . S
C2054 H2045 0.930 . S
C2054 C2052 1.378 . S
C2054 C2055 1.367 . S
C2055 C2054 1.367 . S
C2055 C2057 1.433 . S
C2056 C2052 1.350 . S
C2056 C2053 1.463 . S
C2056 N2060 1.427 . S
C2057 H2047 0.929 . S
C2057 C2055 1.433 . S
C2057 N2060 1.384 . S
C2058 H2049 0.929 . S
C2058 C2050 1.378 . S
C2058 C2053 1.350 . S
C2059 H2046 0.929 . S
C2059 C2051 1.433 . S
C2059 N2061 1.384 . S
N2060 C2056 1.427 . S
N2060 C2057 1.384 . S
N2061 C2053 1.427 . S
N2061 C2059 1.384 . S
H2062 C2068 0.930 . S
H2063 C2072 0.930 . S
H2064 C2077 0.929 . S
H2065 C2075 0.929 . S
H2066 C2070 0.929 . S
H2067 C2076 0.929 . S
C2068 H2062 0.930 . S
C2068 C2069 1.367 . S
C2068 C2076 1.378 . S
C2069 C2068 1.367 . S
C2069 C2077 1.433 . S
C2070 H2066 0.929 . S
C2070 C2072 1.378 . S
C2070 C2074 1.350 . S
C2071 C2074 1.463 . S
C2071 C2076 1.350 . S
C2071 N2079 1.427 . S
C2072 H2063 0.930 . S
C2072 C2070 1.378 . S
C2072 C2073 1.367 . S
C2073 C2072 1.367 . S
C2073 C2075 1.433 . S
C2074 C2070 1.350 . S
C2074 C2071 1.463 . S
C2074 N2078 1.427 . S
C2075 H2065 0.929 . S
C2075 C2073 1.433 . S
C2075 N2078 1.384 . S
C2076 H2067 0.929 . S
C2076 C2068 1.378 . S
C2076 C2071 1.350 . S
C2077 H2064 0.929 . S
C2077 C2069 1.433 . S
C2077 N2079 1.384 . S
N2078 C2074 1.427 . S
N2078 C2075 1.384 . S
N2079 C2071 1.427 . S
N2079 C2077 1.384 . S
H2080 C2086 0.930 . S
H2081 C2090 0.930 . S
H2082 C2095 0.929 . S
H2083 C2093 0.929 . S
H2084 C2088 0.929 . S
H2085 C2094 0.929 . S
C2086 H2080 0.930 . S
C2086 C2087 1.367 . S
C2086 C2094 1.378 . S
C2087 C2086 1.367 . S
C2087 C2095 1.433 . S
C2088 H2084 0.929 . S
C2088 C2090 1.378 . S
C2088 C2092 1.350 . S
C2089 C2092 1.463 . S
C2089 C2094 1.350 . S
C2089 N2097 1.427 . S
C2090 H2081 0.930 . S
C2090 C2088 1.378 . S
C2090 C2091 1.367 . S
C2091 C2090 1.367 . S
C2091 C2093 1.433 . S
C2092 C2088 1.350 . S
C2092 C2089 1.463 . S
C2092 N2096 1.427 . S
C2093 H2083 0.929 . S
C2093 C2091 1.433 . S
C2093 N2096 1.384 . S
C2094 H2085 0.929 . S
C2094 C2086 1.378 . S
C2094 C2089 1.350 . S
C2095 H2082 0.929 . S
C2095 C2087 1.433 . S
C2095 N2097 1.384 . S
N2096 C2092 1.427 . S
N2096 C2093 1.384 . S
N2097 C2089 1.427 . S
N2097 C2095 1.384 . S
H2098 C2104 0.930 . S
H2099 C2108 0.930 . S
H2100 C2113 0.929 . S
H2101 C2111 0.929 . S
H2102 C2106 0.929 . S
H2103 C2112 0.929 . S
C2104 H2098 0.930 . S
C2104 C2105 1.367 . S
C2104 C2112 1.378 . S
C2105 C2104 1.367 . S
C2105 C2113 1.433 . S
C2106 H2102 0.929 . S
C2106 C2108 1.378 . S
C2106 C2110 1.350 . S
C2107 C2110 1.463 . S
C2107 C2112 1.350 . S
C2107 N2115 1.427 . S
C2108 H2099 0.930 . S
C2108 C2106 1.378 . S
C2108 C2109 1.367 . S
C2109 C2108 1.367 . S
C2109 C2111 1.433 . S
C2110 C2106 1.350 . S
C2110 C2107 1.463 . S
C2110 N2114 1.427 . S
C2111 H2101 0.929 . S
C2111 C2109 1.433 . S
C2111 N2114 1.384 . S
C2112 H2103 0.929 . S
C2112 C2104 1.378 . S
C2112 C2107 1.350 . S
C2113 H2100 0.929 . S
C2113 C2105 1.433 . S
C2113 N2115 1.384 . S
N2114 C2110 1.427 . S
N2114 C2111 1.384 . S
N2115 C2107 1.427 . S
N2115 C2113 1.384 . S
H2116 C2122 0.930 . S
H2117 C2126 0.930 . S
H2118 C2131 0.929 . S
H2119 C2129 0.929 . S
H2120 C2124 0.929 . S
H2121 C2130 0.929 . S
C2122 H2116 0.930 . S
C2122 C2123 1.367 . S
C2122 C2130 1.378 . S
C2123 C2122 1.367 . S
C2123 C2131 1.433 . S
C2124 H2120 0.929 . S
C2124 C2126 1.378 . S
C2124 C2128 1.350 . S
C2125 C2128 1.463 . S
C2125 C2130 1.350 . S
C2125 N2133 1.427 . S
C2126 H2117 0.930 . S
C2126 C2124 1.378 . S
C2126 C2127 1.367 . S
C2127 C2126 1.367 . S
C2127 C2129 1.433 . S
C2128 C2124 1.350 . S
C2128 C2125 1.463 . S
C2128 N2132 1.427 . S
C2129 H2119 0.929 . S
C2129 C2127 1.433 . S
C2129 N2132 1.384 . S
C2130 H2121 0.929 . S
C2130 C2122 1.378 . S
C2130 C2125 1.350 . S
C2131 H2118 0.929 . S
C2131 C2123 1.433 . S
C2131 N2133 1.384 . S
N2132 C2128 1.427 . S
N2132 C2129 1.384 . S
N2133 C2125 1.427 . S
N2133 C2131 1.384 . S
H2134 C2140 0.930 . S
H2135 C2144 0.930 . S
H2136 C2149 0.929 . S
H2137 C2147 0.929 . S
H2138 C2142 0.929 . S
H2139 C2148 0.929 . S
C2140 H2134 0.930 . S
C2140 C2141 1.367 . S
C2140 C2148 1.378 . S
C2141 C2140 1.367 . S
C2141 C2149 1.433 . S
C2142 H2138 0.929 . S
C2142 C2144 1.378 . S
C2142 C2146 1.350 . S
C2143 C2146 1.463 . S
C2143 C2148 1.350 . S
C2143 N2151 1.427 . S
C2144 H2135 0.930 . S
C2144 C2142 1.378 . S
C2144 C2145 1.367 . S
C2145 C2144 1.367 . S
C2145 C2147 1.433 . S
C2146 C2142 1.350 . S
C2146 C2143 1.463 . S
C2146 N2150 1.427 . S
C2147 H2137 0.929 . S
C2147 C2145 1.433 . S
C2147 N2150 1.384 . S
C2148 H2139 0.929 . S
C2148 C2140 1.378 . S
C2148 C2143 1.350 . S
C2149 H2136 0.929 . S
C2149 C2141 1.433 . S
C2149 N2151 1.384 . S
N2150 C2146 1.427 . S
N2150 C2147 1.384 . S
N2151 C2143 1.427 . S
N2151 C2149 1.384 . S
H2152 C2158 0.930 . S
H2153 C2162 0.930 . S
H2154 C2167 0.929 . S
H2155 C2165 0.929 . S
H2156 C2160 0.929 . S
H2157 C2166 0.929 . S
C2158 H2152 0.930 . S
C2158 C2159 1.367 . S
C2158 C2166 1.378 . S
C2159 C2158 1.367 . S
C2159 C2167 1.433 . S
C2160 H2156 0.929 . S
C2160 C2162 1.378 . S
C2160 C2164 1.350 . S
C2161 C2164 1.463 . S
C2161 C2166 1.350 . S
C2161 N2169 1.427 . S
C2162 H2153 0.930 . S
C2162 C2160 1.378 . S
C2162 C2163 1.367 . S
C2163 C2162 1.367 . S
C2163 C2165 1.433 . S
C2164 C2160 1.350 . S
C2164 C2161 1.463 . S
C2164 N2168 1.427 . S
C2165 H2155 0.929 . S
C2165 C2163 1.433 . S
C2165 N2168 1.384 . S
C2166 H2157 0.929 . S
C2166 C2158 1.378 . S
C2166 C2161 1.350 . S
C2167 H2154 0.929 . S
C2167 C2159 1.433 . S
C2167 N2169 1.384 . S
N2168 C2164 1.427 . S
N2168 C2165 1.384 . S
N2169 C2161 1.427 . S
N2169 C2167 1.384 . S
H2170 C2176 0.930 . S
H2171 C2180 0.930 . S
H2172 C2185 0.929 . S
H2173 C2183 0.929 . S
H2174 C2178 0.929 . S
H2175 C2184 0.929 . S
C2176 H2170 0.930 . S
C2176 C2177 1.367 . S
C2176 C2184 1.378 . S
C2177 C2176 1.367 . S
C2177 C2185 1.433 . S
C2178 H2174 0.929 . S
C2178 C2180 1.378 . S
C2178 C2182 1.350 . S
C2179 C2182 1.463 . S
C2179 C2184 1.350 . S
C2179 N2187 1.427 . S
C2180 H2171 0.930 . S
C2180 C2178 1.378 . S
C2180 C2181 1.367 . S
C2181 C2180 1.367 . S
C2181 C2183 1.433 . S
C2182 C2178 1.350 . S
C2182 C2179 1.463 . S
C2182 N2186 1.427 . S
C2183 H2173 0.929 . S
C2183 C2181 1.433 . S
C2183 N2186 1.384 . S
C2184 H2175 0.929 . S
C2184 C2176 1.378 . S
C2184 C2179 1.350 . S
C2185 H2172 0.929 . S
C2185 C2177 1.433 . S
C2185 N2187 1.384 . S
N2186 C2182 1.427 . S
N2186 C2183 1.384 . S
N2187 C2179 1.427 . S
N2187 C2185 1.384 . S
H2188 C2194 0.930 . S
H2189 C2198 0.930 . S
H2190 C2203 0.929 . S
H2191 C2201 0.929 . S
H2192 C2196 0.929 . S
H2193 C2202 0.929 . S
C2194 H2188 0.930 . S
C2194 C2195 1.367 . S
C2194 C2202 1.378 . S
C2195 C2194 1.367 . S
C2195 C2203 1.433 . S
C2196 H2192 0.929 . S
C2196 C2198 1.378 . S
C2196 C2200 1.350 . S
C2197 C2200 1.463 . S
C2197 C2202 1.350 . S
C2197 N2205 1.427 . S
C2198 H2189 0.930 . S
C2198 C2196 1.378 . S
C2198 C2199 1.367 . S
C2199 C2198 1.367 . S
C2199 C2201 1.433 . S
C2200 C2196 1.350 . S
C2200 C2197 1.463 . S
C2200 N2204 1.427 . S
C2201 H2191 0.929 . S
C2201 C2199 1.433 . S
C2201 N2204 1.384 . S
C2202 H2193 0.929 . S
C2202 C2194 1.378 . S
C2202 C2197 1.350 . S
C2203 H2190 0.929 . S
C2203 C2195 1.433 . S
C2203 N2205 1.384 . S
N2204 C2200 1.427 . S
N2204 C2201 1.384 . S
N2205 C2197 1.427 . S
N2205 C2203 1.384 . S
H2206 C2212 0.930 . S
H2207 C2216 0.930 . S
H2208 C2221 0.929 . S
H2209 C2219 0.929 . S
H2210 C2214 0.929 . S
H2211 C2220 0.929 . S
C2212 H2206 0.930 . S
C2212 C2213 1.367 . S
C2212 C2220 1.378 . S
C2213 C2212 1.367 . S
C2213 C2221 1.433 . S
C2214 H2210 0.929 . S
C2214 C2216 1.378 . S
C2214 C2218 1.350 . S
C2215 C2218 1.463 . S
C2215 C2220 1.350 . S
C2215 N2223 1.427 . S
C2216 H2207 0.930 . S
C2216 C2214 1.378 . S
C2216 C2217 1.367 . S
C2217 C2216 1.367 . S
C2217 C2219 1.433 . S
C2218 C2214 1.350 . S
C2218 C2215 1.463 . S
C2218 N2222 1.427 . S
C2219 H2209 0.929 . S
C2219 C2217 1.433 . S
C2219 N2222 1.384 . S
C2220 H2211 0.929 . S
C2220 C2212 1.378 . S
C2220 C2215 1.350 . S
C2221 H2208 0.929 . S
C2221 C2213 1.433 . S
C2221 N2223 1.384 . S
N2222 C2218 1.427 . S
N2222 C2219 1.384 . S
N2223 C2215 1.427 . S
N2223 C2221 1.384 . S
H2224 C2230 0.930 . S
H2225 C2234 0.930 . S
H2226 C2239 0.929 . S
H2227 C2237 0.929 . S
H2228 C2232 0.929 . S
H2229 C2238 0.929 . S
C2230 H2224 0.930 . S
C2230 C2231 1.367 . S
C2230 C2238 1.378 . S
C2231 C2230 1.367 . S
C2231 C2239 1.433 . S
C2232 H2228 0.929 . S
C2232 C2234 1.378 . S
C2232 C2236 1.350 . S
C2233 C2236 1.463 . S
C2233 C2238 1.350 . S
C2233 N2241 1.427 . S
C2234 H2225 0.930 . S
C2234 C2232 1.378 . S
C2234 C2235 1.367 . S
C2235 C2234 1.367 . S
C2235 C2237 1.433 . S
C2236 C2232 1.350 . S
C2236 C2233 1.463 . S
C2236 N2240 1.427 . S
C2237 H2227 0.929 . S
C2237 C2235 1.433 . S
C2237 N2240 1.384 . S
C2238 H2229 0.929 . S
C2238 C2230 1.378 . S
C2238 C2233 1.350 . S
C2239 H2226 0.929 . S
C2239 C2231 1.433 . S
C2239 N2241 1.384 . S
N2240 C2236 1.427 . S
N2240 C2237 1.384 . S
N2241 C2233 1.427 . S
N2241 C2239 1.384 . S
H2242 C2248 0.930 . S
H2243 C2252 0.930 . S
H2244 C2257 0.929 . S
H2245 C2255 0.929 . S
H2246 C2250 0.929 . S
H2247 C2256 0.929 . S
C2248 H2242 0.930 . S
C2248 C2249 1.367 . S
C2248 C2256 1.378 . S
C2249 C2248 1.367 . S
C2249 C2257 1.433 . S
C2250 H2246 0.929 . S
C2250 C2252 1.378 . S
C2250 C2254 1.350 . S
C2251 C2254 1.463 . S
C2251 C2256 1.350 . S
C2251 N2259 1.427 . S
C2252 H2243 0.930 . S
C2252 C2250 1.378 . S
C2252 C2253 1.367 . S
C2253 C2252 1.367 . S
C2253 C2255 1.433 . S
C2254 C2250 1.350 . S
C2254 C2251 1.463 . S
C2254 N2258 1.427 . S
C2255 H2245 0.929 . S
C2255 C2253 1.433 . S
C2255 N2258 1.384 . S
C2256 H2247 0.929 . S
C2256 C2248 1.378 . S
C2256 C2251 1.350 . S
C2257 H2244 0.929 . S
C2257 C2249 1.433 . S
C2257 N2259 1.384 . S
N2258 C2254 1.427 . S
N2258 C2255 1.384 . S
N2259 C2251 1.427 . S
N2259 C2257 1.384 . S
H2260 C2266 0.930 . S
H2261 C2270 0.930 . S
H2262 C2275 0.929 . S
H2263 C2273 0.929 . S
H2264 C2268 0.929 . S
H2265 C2274 0.929 . S
C2266 H2260 0.930 . S
C2266 C2267 1.367 . S
C2266 C2274 1.378 . S
C2267 C2266 1.367 . S
C2267 C2275 1.433 . S
C2268 H2264 0.929 . S
C2268 C2270 1.378 . S
C2268 C2272 1.350 . S
C2269 C2272 1.463 . S
C2269 C2274 1.350 . S
C2269 N2277 1.427 . S
C2270 H2261 0.930 . S
C2270 C2268 1.378 . S
C2270 C2271 1.367 . S
C2271 C2270 1.367 . S
C2271 C2273 1.433 . S
C2272 C2268 1.350 . S
C2272 C2269 1.463 . S
C2272 N2276 1.427 . S
C2273 H2263 0.929 . S
C2273 C2271 1.433 . S
C2273 N2276 1.384 . S
C2274 H2265 0.929 . S
C2274 C2266 1.378 . S
C2274 C2269 1.350 . S
C2275 H2262 0.929 . S
C2275 C2267 1.433 . S
C2275 N2277 1.384 . S
N2276 C2272 1.427 . S
N2276 C2273 1.384 . S
N2277 C2269 1.427 . S
N2277 C2275 1.384 . S
H2278 C2284 0.930 . S
H2279 C2288 0.930 . S
H2280 C2293 0.929 . S
H2281 C2291 0.929 . S
H2282 C2286 0.929 . S
H2283 C2292 0.929 . S
C2284 H2278 0.930 . S
C2284 C2285 1.367 . S
C2284 C2292 1.378 . S
C2285 C2284 1.367 . S
C2285 C2293 1.433 . S
C2286 H2282 0.929 . S
C2286 C2288 1.378 . S
C2286 C2290 1.350 . S
C2287 C2290 1.463 . S
C2287 C2292 1.350 . S
C2287 N2295 1.427 . S
C2288 H2279 0.930 . S
C2288 C2286 1.378 . S
C2288 C2289 1.367 . S
C2289 C2288 1.367 . S
C2289 C2291 1.433 . S
C2290 C2286 1.350 . S
C2290 C2287 1.463 . S
C2290 N2294 1.427 . S
C2291 H2281 0.929 . S
C2291 C2289 1.433 . S
C2291 N2294 1.384 . S
C2292 H2283 0.929 . S
C2292 C2284 1.378 . S
C2292 C2287 1.350 . S
C2293 H2280 0.929 . S
C2293 C2285 1.433 . S
C2293 N2295 1.384 . S
N2294 C2290 1.427 . S
N2294 C2291 1.384 . S
N2295 C2287 1.427 . S
N2295 C2293 1.384 . S
H2296 C2302 0.930 . S
H2297 C2306 0.930 . S
H2298 C2311 0.929 . S
H2299 C2309 0.929 . S
H2300 C2304 0.929 . S
H2301 C2310 0.929 . S
C2302 H2296 0.930 . S
C2302 C2303 1.367 . S
C2302 C2310 1.378 . S
C2303 C2302 1.367 . S
C2303 C2311 1.433 . S
C2304 H2300 0.929 . S
C2304 C2306 1.378 . S
C2304 C2308 1.350 . S
C2305 C2308 1.463 . S
C2305 C2310 1.350 . S
C2305 N2313 1.427 . S
C2306 H2297 0.930 . S
C2306 C2304 1.378 . S
C2306 C2307 1.367 . S
C2307 C2306 1.367 . S
C2307 C2309 1.433 . S
C2308 C2304 1.350 . S
C2308 C2305 1.463 . S
C2308 N2312 1.427 . S
C2309 H2299 0.929 . S
C2309 C2307 1.433 . S
C2309 N2312 1.384 . S
C2310 H2301 0.929 . S
C2310 C2302 1.378 . S
C2310 C2305 1.350 . S
C2311 H2298 0.929 . S
C2311 C2303 1.433 . S
C2311 N2313 1.384 . S
N2312 C2308 1.427 . S
N2312 C2309 1.384 . S
N2313 C2305 1.427 . S
N2313 C2311 1.384 . S
H2314 C2320 0.930 . S
H2315 C2324 0.930 . S
H2316 C2329 0.929 . S
H2317 C2327 0.929 . S
H2318 C2322 0.929 . S
H2319 C2328 0.929 . S
C2320 H2314 0.930 . S
C2320 C2321 1.367 . S
C2320 C2328 1.378 . S
C2321 C2320 1.367 . S
C2321 C2329 1.433 . S
C2322 H2318 0.929 . S
C2322 C2324 1.378 . S
C2322 C2326 1.350 . S
C2323 C2326 1.463 . S
C2323 C2328 1.350 . S
C2323 N2331 1.427 . S
C2324 H2315 0.930 . S
C2324 C2322 1.378 . S
C2324 C2325 1.367 . S
C2325 C2324 1.367 . S
C2325 C2327 1.433 . S
C2326 C2322 1.350 . S
C2326 C2323 1.463 . S
C2326 N2330 1.427 . S
C2327 H2317 0.929 . S
C2327 C2325 1.433 . S
C2327 N2330 1.384 . S
C2328 H2319 0.929 . S
C2328 C2320 1.378 . S
C2328 C2323 1.350 . S
C2329 H2316 0.929 . S
C2329 C2321 1.433 . S
C2329 N2331 1.384 . S
N2330 C2326 1.427 . S
N2330 C2327 1.384 . S
N2331 C2323 1.427 . S
N2331 C2329 1.384 . S
H2332 C2338 0.930 . S
H2333 C2342 0.930 . S
H2334 C2347 0.929 . S
H2335 C2345 0.929 . S
H2336 C2340 0.929 . S
H2337 C2346 0.929 . S
C2338 H2332 0.930 . S
C2338 C2339 1.367 . S
C2338 C2346 1.378 . S
C2339 C2338 1.367 . S
C2339 C2347 1.433 . S
C2340 H2336 0.929 . S
C2340 C2342 1.378 . S
C2340 C2344 1.350 . S
C2341 C2344 1.463 . S
C2341 C2346 1.350 . S
C2341 N2349 1.427 . S
C2342 H2333 0.930 . S
C2342 C2340 1.378 . S
C2342 C2343 1.367 . S
C2343 C2342 1.367 . S
C2343 C2345 1.433 . S
C2344 C2340 1.350 . S
C2344 C2341 1.463 . S
C2344 N2348 1.427 . S
C2345 H2335 0.929 . S
C2345 C2343 1.433 . S
C2345 N2348 1.384 . S
C2346 H2337 0.929 . S
C2346 C2338 1.378 . S
C2346 C2341 1.350 . S
C2347 H2334 0.929 . S
C2347 C2339 1.433 . S
C2347 N2349 1.384 . S
N2348 C2344 1.427 . S
N2348 C2345 1.384 . S
N2349 C2341 1.427 . S
N2349 C2347 1.384 . S
H2350 C2356 0.930 . S
H2351 C2360 0.930 . S
H2352 C2365 0.929 . S
H2353 C2363 0.929 . S
H2354 C2358 0.929 . S
H2355 C2364 0.929 . S
C2356 H2350 0.930 . S
C2356 C2357 1.367 . S
C2356 C2364 1.378 . S
C2357 C2356 1.367 . S
C2357 C2365 1.433 . S
C2358 H2354 0.929 . S
C2358 C2360 1.378 . S
C2358 C2362 1.350 . S
C2359 C2362 1.463 . S
C2359 C2364 1.350 . S
C2359 N2367 1.427 . S
C2360 H2351 0.930 . S
C2360 C2358 1.378 . S
C2360 C2361 1.367 . S
C2361 C2360 1.367 . S
C2361 C2363 1.433 . S
C2362 C2358 1.350 . S
C2362 C2359 1.463 . S
C2362 N2366 1.427 . S
C2363 H2353 0.929 . S
C2363 C2361 1.433 . S
C2363 N2366 1.384 . S
C2364 H2355 0.929 . S
C2364 C2356 1.378 . S
C2364 C2359 1.350 . S
C2365 H2352 0.929 . S
C2365 C2357 1.433 . S
C2365 N2367 1.384 . S
N2366 C2362 1.427 . S
N2366 C2363 1.384 . S
N2367 C2359 1.427 . S
N2367 C2365 1.384 . S
C647 C2 1.518 . S
C651 C79 1.442 . S
C665 C19 1.445 . S
C669 C22 1.517 . S
C683 C42 1.516 . S
C687 C39 1.430 . S
C701 C59 1.429 . S
C705 C62 1.515 . S
C719 C119 1.430 . S
C723 C82 1.514 . S
C737 C102 1.515 . S
C741 C139 1.437 . S
C755 C159 1.430 . S
C759 C122 1.514 . S
C773 C99 1.429 . S
C777 C142 1.515 . S
C791 C161 1.514 . S
C795 C238 1.432 . S
C809 C181 1.515 . S
C813 C178 1.429 . S
C827 C201 1.518 . S
C831 C198 1.444 . S
C845 C221 1.516 . S
C849 C218 1.433 . S
C863 C241 1.518 . S
C867 C278 1.446 . S
C881 C261 1.518 . S
C885 C298 1.446 . S
C899 C318 1.445 . S
C903 C281 1.517 . S
C917 C258 1.428 . S
C921 C301 1.514 . S
C935 C322 1.517 . S
C939 C399 1.443 . S
C953 C339 1.446 . S
C957 C342 1.518 . S
C971 C359 1.439 . S
C975 C362 1.516 . S
C989 C382 1.514 . S
C993 C379 1.431 . S
C1007 C402 1.515 . S
C1011 C439 1.429 . S
C1025 C459 1.428 . S
C1029 C422 1.515 . S
C1043 C442 1.518 . S
C1047 C479 1.443 . S
C1061 C419 1.428 . S
C1065 C462 1.515 . S
C1079 C558 1.439 . S
C1083 C481 1.518 . S
C1097 C498 1.437 . S
C1101 C501 1.517 . S
C1115 C521 1.518 . S
C1119 C518 1.439 . S
C1133 C538 1.431 . S
C1137 C541 1.514 . S
C1151 C598 1.443 . S
C1155 C561 1.518 . S
C1169 C618 1.436 . S
C1173 C581 1.517 . S
C1187 C638 1.437 . S
C1191 C601 1.517 . S
C1205 C621 1.518 . S
C1209 C578 1.446 . S
C1223 C542 1.443 . S
C1227 C8 1.446 . S
C1241 C28 1.443 . S
C1245 C162 1.444 . S
C1259 C48 1.447 . S
C1263 C502 1.456 . S
C1277 C68 1.453 . S
C1281 C202 1.450 . S
C1295 C88 1.449 . S
C1299 C582 1.445 . S
C1313 C282 1.455 . S
C1317 C108 1.452 . S
C1331 C622 1.443 . S
C1335 C128 1.443 . S
C1349 C148 1.444 . S
C1353 C242 1.443 . S
C1367 C169 1.441 . S
C1371 C381 1.444 . S
C1385 C1 1.455 . S
C1389 C189 1.445 . S
C1403 C341 1.444 . S
C1407 C209 1.448 . S
C1421 C41 1.446 . S
C1425 C229 1.451 . S
C1439 C421 1.443 . S
C1443 C249 1.447 . S
C1457 C121 1.447 . S
C1461 C269 1.440 . S
C1475 C289 1.442 . S
C1479 C461 1.443 . S
C1493 C309 1.441 . S
C1497 C81 1.452 . S
C1511 C328 1.445 . S
C1515 C222 1.455 . S
C1529 C348 1.449 . S
C1533 C482 1.444 . S
C1547 C368 1.447 . S
C1551 C182 1.443 . S
C1565 C388 1.453 . S
C1569 C522 1.454 . S
C1583 C408 1.439 . S
C1587 C262 1.447 . S
C1601 C428 1.453 . S
C1605 C602 1.451 . S
C1619 C302 1.443 . S
C1623 C448 1.444 . S
C1637 C468 1.440 . S
C1641 C562 1.449 . S
C1655 C61 1.456 . S
C1659 C489 1.447 . S
C1673 C321 1.455 . S
C1677 C509 1.452 . S
C1691 C21 1.446 . S
C1695 C529 1.451 . S
C1709 C361 1.456 . S
C1713 C549 1.446 . S
C1727 C101 1.455 . S
C1731 C569 1.446 . S
C1745 C589 1.449 . S
C1749 C441 1.445 . S
C1763 C609 1.446 . S
C1767 C141 1.443 . S
C1781 C401 1.444 . S
C1785 C629 1.443 . S
C1799 C9 0.287 . S
C1803 C89 0.311 . S
C1817 C29 0.287 . S
C1821 C109 0.331 . S
C1835 C49 0.324 . S
C1839 C129 0.302 . S
C1853 C149 0.329 . S
C1857 C69 0.278 . S
C1871 C248 0.319 . S
C1875 C168 0.309 . S
C1889 C268 0.331 . S
C1893 C188 0.279 . S
C1907 C208 0.311 . S
C1911 C288 0.287 . S
C1925 C228 0.327 . S
C1929 C308 0.297 . S
C1943 C329 0.279 . S
C1947 C409 0.323 . S
C1961 C429 0.318 . S
C1965 C349 0.310 . S
C1979 C449 0.283 . S
C1983 C369 0.316 . S
C1997 C469 0.289 . S
C2001 C389 0.331 . S
C2015 C568 0.295 . S
C2019 C488 0.328 . S
C2033 C508 0.278 . S
C2037 C588 0.325 . S
C2051 C608 0.317 . S
C2055 C528 0.311 . S
C2069 C548 0.279 . S
C2073 C628 0.322 . S
C2087 C158 2.008 . S
C2091 C18 2.007 . S
C2105 C38 2.009 . S
C2109 C98 2.010 . S
C2123 C58 2.007 . S
C2127 C118 2.007 . S
C2141 C138 2.010 . S
C2145 C78 2.011 . S
C2159 C179 2.007 . S
C2163 C319 2.009 . S
C2177 C259 2.010 . S
C2181 C199 2.008 . S
C2195 C279 2.007 . S
C2199 C219 2.007 . S
C2213 C239 2.011 . S
C2217 C299 2.010 . S
C2231 C338 2.007 . S
C2235 C478 2.007 . S
C2249 C418 2.011 . S
C2253 C358 2.010 . S
C2267 C438 2.007 . S
C2271 C378 2.008 . S
C2285 C458 2.011 . S
C2289 C398 2.010 . S
C2303 C499 2.007 . S
C2307 C639 2.009 . S
C2321 C579 2.011 . S
C2325 C519 2.010 . S
C2339 C539 2.007 . S
C2343 C599 2.009 . S
C2357 C619 2.007 . S
C2361 C559 2.007 . S
