# Generated by pormake.
# Topology vmg, (6)-cn, num edge types: 1
# Building blocks:
#     Node 0, Type 0, BuildingBlock: OJICUG_clean_sbu_0, # of connection points: 6
#     Node 1, Type 0, BuildingBlock: OJICUG_clean_sbu_0, # of connection points: 6
#     Node 2, Type 0, BuildingBlock: OJICUG_clean_sbu_0, # of connection points: 6
#     Node 3, Type 0, BuildingBlock: OJICUG_clean_sbu_0, # of connection points: 6
#     Node 4, Type 0, BuildingBlock: OJICUG_clean_sbu_0, # of connection points: 6
#     Node 5, Type 0, BuildingBlock: OJICUG_clean_sbu_0, # of connection points: 6
#     Node 6, Type 0, BuildingBlock: OJICUG_clean_sbu_0, # of connection points: 6
#     Node 7, Type 0, BuildingBlock: OJICUG_clean_sbu_0, # of connection points: 6
#     Edge 8, Type (0, 0), BuildingBlock: XUDNAN_clean_linker_2, # of connection points: 2
#     Edge 9, Type (0, 0), BuildingBlock: XUDNAN_clean_linker_2, # of connection points: 2
#     Edge 10, Type (0, 0), BuildingBlock: XUDNAN_clean_linker_2, # of connection points: 2
#     Edge 11, Type (0, 0), BuildingBlock: XUDNAN_clean_linker_2, # of connection points: 2
#     Edge 12, Type (0, 0), BuildingBlock: XUDNAN_clean_linker_2, # of connection points: 2
#     Edge 13, Type (0, 0), BuildingBlock: XUDNAN_clean_linker_2, # of connection points: 2
#     Edge 14, Type (0, 0), BuildingBlock: XUDNAN_clean_linker_2, # of connection points: 2
#     Edge 15, Type (0, 0), BuildingBlock: XUDNAN_clean_linker_2, # of connection points: 2
#     Edge 16, Type (0, 0), BuildingBlock: XUDNAN_clean_linker_2, # of connection points: 2
#     Edge 17, Type (0, 0), BuildingBlock: XUDNAN_clean_linker_2, # of connection points: 2
#     Edge 18, Type (0, 0), BuildingBlock: XUDNAN_clean_linker_2, # of connection points: 2
#     Edge 19, Type (0, 0), BuildingBlock: XUDNAN_clean_linker_2, # of connection points: 2
#     Edge 20, Type (0, 0), BuildingBlock: XUDNAN_clean_linker_2, # of connection points: 2
#     Edge 21, Type (0, 0), BuildingBlock: XUDNAN_clean_linker_2, # of connection points: 2
#     Edge 22, Type (0, 0), BuildingBlock: XUDNAN_clean_linker_2, # of connection points: 2
#     Edge 23, Type (0, 0), BuildingBlock: XUDNAN_clean_linker_2, # of connection points: 2
#     Edge 24, Type (0, 0), BuildingBlock: XUDNAN_clean_linker_2, # of connection points: 2
#     Edge 25, Type (0, 0), BuildingBlock: XUDNAN_clean_linker_2, # of connection points: 2
#     Edge 26, Type (0, 0), BuildingBlock: XUDNAN_clean_linker_2, # of connection points: 2
#     Edge 27, Type (0, 0), BuildingBlock: XUDNAN_clean_linker_2, # of connection points: 2
#     Edge 28, Type (0, 0), BuildingBlock: XUDNAN_clean_linker_2, # of connection points: 2
#     Edge 29, Type (0, 0), BuildingBlock: XUDNAN_clean_linker_2, # of connection points: 2
#     Edge 30, Type (0, 0), BuildingBlock: XUDNAN_clean_linker_2, # of connection points: 2
#     Edge 31, Type (0, 0), BuildingBlock: XUDNAN_clean_linker_2, # of connection points: 2
# Relax obj value: 0.217
# Max RMSD: 0.229
# Mean RMSD: 0.229
data_MOF--net-vmg--node1-OJICUG_clean_sbu_0--edge1-XUDNAN_clean_linker_2
_symmetry_space_group_name_H-M    P1
_symmetry_Int_Tables_number       1
_symmetry_cell_setting            triclinic
loop_
_symmetry_equiv_pos_as_xyz
'x, y, z'
_cell_length_a     30.136855
_cell_length_b     44.017573
_cell_length_c     27.307648
_cell_angle_alpha  90.032751
_cell_angle_beta   108.0175
_cell_angle_gamma 90.000636
loop_
_atom_site_label
_atom_site_type_symbol
_atom_site_fract_x
_atom_site_fract_y
_atom_site_fract_z
_atom_type_partial_charge
Sc0 Sc 0.15508 0.39197 0.09701 0.0
Sc1 Sc 0.24083 0.44482 0.15244 0.0
Sc2 Sc 0.23926 0.37514 0.21178 0.0
O3 O 0.2124 0.40376 0.15368 0.0
C4 C 0.13376 0.36326 0.19428 0.0
C5 C 0.13057 0.45738 0.10673 0.0
C6 C 0.2454 0.43985 0.26756 0.0
C7 C 0.21156 0.43315 0.03803 0.0
C8 C 0.21298 0.33284 0.10981 0.0
C9 C 0.33047 0.40227 0.19809 0.0
O10 O 0.12541 0.3646 0.14566 0.0
O11 O 0.17298 0.46545 0.11516 0.0
O12 O 0.25463 0.41147 0.26908 0.0
O13 O 0.175 0.41934 0.0404 0.0
O14 O 0.22699 0.33621 0.15889 0.0
O15 O 0.31245 0.42862 0.18697 0.0
O16 O 0.19015 0.35323 0.0793 0.0
O17 O 0.2471 0.43631 0.07754 0.0
O18 O 0.30669 0.37917 0.20238 0.0
O19 O 0.11984 0.43041 0.11492 0.0
O20 O 0.17323 0.37012 0.22556 0.0
O21 O 0.23398 0.45529 0.22625 0.0
Sc22 Sc 0.7698 0.37082 0.31714 0.0
Sc23 Sc 0.75946 0.44765 0.34197 0.0
Sc24 Sc 0.84868 0.40621 0.42116 0.0
O25 O 0.79132 0.40729 0.36096 0.0
C26 C 0.79749 0.34604 0.43458 0.0
C27 C 0.67387 0.40163 0.30153 0.0
C28 C 0.77402 0.44801 0.45585 0.0
C29 C 0.77187 0.42566 0.23949 0.0
C30 C 0.87912 0.36258 0.34375 0.0
C31 C 0.86443 0.46791 0.39078 0.0
O32 O 0.77843 0.34245 0.38586 0.0
O33 O 0.69107 0.42813 0.30231 0.0
O34 O 0.81577 0.43798 0.46349 0.0
O35 O 0.76126 0.39816 0.24717 0.0
O36 O 0.88834 0.37637 0.38669 0.0
O37 O 0.82167 0.47468 0.38192 0.0
O38 O 0.83784 0.35979 0.31369 0.0
O39 O 0.77771 0.44668 0.27295 0.0
O40 O 0.87499 0.44103 0.3842 0.0
O41 O 0.69934 0.3783 0.3151 0.0
O42 O 0.82253 0.36901 0.454 0.0
O43 O 0.74319 0.44706 0.41192 0.0
Sc44 Sc 0.76039 0.63401 0.8106 0.0
Sc45 Sc 0.75273 0.55695 0.83369 0.0
Sc46 Sc 0.8436 0.59915 0.91062 0.0
O47 O 0.78461 0.597 0.85209 0.0
C48 C 0.86643 0.64223 0.82927 0.0
C49 C 0.74709 0.58147 0.72586 0.0
C50 C 0.86035 0.53997 0.8626 0.0
C51 C 0.66787 0.60425 0.8124 0.0
C52 C 0.79375 0.65697 0.92958 0.0
C53 C 0.78245 0.54952 0.94865 0.0
O54 O 0.82578 0.64089 0.79756 0.0
O55 O 0.75776 0.56006 0.75835 0.0
O56 O 0.87294 0.56735 0.87152 0.0
O57 O 0.69367 0.62765 0.8198 0.0
O58 O 0.81411 0.63228 0.94778 0.0
O59 O 0.74752 0.55266 0.90881 0.0
O60 O 0.7782 0.66236 0.88097 0.0
O61 O 0.6833 0.57748 0.80968 0.0
O62 O 0.82139 0.5627 0.95335 0.0
O63 O 0.74 0.60883 0.73741 0.0
O64 O 0.87546 0.63431 0.87616 0.0
O65 O 0.81859 0.5314 0.85693 0.0
Sc66 Sc 0.15309 0.60371 0.59492 0.0
Sc67 Sc 0.24249 0.56029 0.67946 0.0
Sc68 Sc 0.22748 0.63763 0.70654 0.0
O69 O 0.20802 0.60058 0.6601 0.0
C70 C 0.20314 0.66798 0.59536 0.0
C71 C 0.22481 0.56277 0.5583 0.0
C72 C 0.32608 0.60761 0.71521 0.0
C73 C 0.13763 0.538 0.63387 0.0
C74 C 0.11671 0.64244 0.6736 0.0
C75 C 0.23382 0.58296 0.78632 0.0
O76 O 0.17515 0.64662 0.57539 0.0
O77 O 0.24597 0.55367 0.60359 0.0
O78 O 0.30032 0.62944 0.72023 0.0
O79 O 0.12474 0.56182 0.60761 0.0
O80 O 0.15755 0.65033 0.69995 0.0
O81 O 0.24206 0.56289 0.75705 0.0
O82 O 0.10884 0.62461 0.63512 0.0
O83 O 0.17916 0.53329 0.66239 0.0
O84 O 0.22619 0.61084 0.77359 0.0
O85 O 0.19074 0.58147 0.54808 0.0
O86 O 0.22795 0.66793 0.64274 0.0
O87 O 0.31012 0.58149 0.69923 0.0
Sc88 Sc 0.65634 0.88528 0.08894 0.0
Sc89 Sc 0.72975 0.94209 0.15038 0.0
Sc90 Sc 0.72709 0.87562 0.21646 0.0
O91 O 0.70446 0.90052 0.15224 0.0
C92 C 0.61934 0.86005 0.17983 0.0
C93 C 0.62544 0.95008 0.07678 0.0
C94 C 0.70992 0.94306 0.25422 0.0
C95 C 0.73004 0.92154 0.04548 0.0
C96 C 0.72054 0.8282 0.12383 0.0
C97 C 0.81915 0.90876 0.22333 0.0
O98 O 0.61613 0.8622 0.1322 0.0
O99 O 0.66765 0.95881 0.09282 0.0
O100 O 0.7253 0.91582 0.26494 0.0
O101 O 0.69036 0.90853 0.03795 0.0
O102 O 0.73063 0.83428 0.17203 0.0
O103 O 0.79642 0.93277 0.20615 0.0
O104 O 0.69679 0.84594 0.08885 0.0
O105 O 0.7562 0.92806 0.09044 0.0
O106 O 0.79939 0.88324 0.22246 0.0
O107 O 0.61356 0.92389 0.08697 0.0
O108 O 0.6567 0.86626 0.21563 0.0
O109 O 0.70285 0.95499 0.21007 0.0
Sc110 Sc 0.24234 0.87306 0.27865 0.0
Sc111 Sc 0.25355 0.95035 0.31334 0.0
Sc112 Sc 0.3238 0.89582 0.39647 0.0
O113 O 0.27306 0.90637 0.32971 0.0
C114 C 0.25584 0.83936 0.38685 0.0
C115 C 0.15632 0.91454 0.2809 0.0
C116 C 0.26674 0.94761 0.43368 0.0
C117 C 0.24947 0.92669 0.2027 0.0
C118 C 0.35083 0.8564 0.31039 0.0
C119 C 0.36271 0.95664 0.36178 0.0
O120 O 0.23724 0.84249 0.3385 0.0
O121 O 0.1814 0.93823 0.29347 0.0
O122 O 0.29315 0.9242 0.44401 0.0
O123 O 0.24481 0.89879 0.21186 0.0
O124 O 0.36106 0.8688 0.35479 0.0
O125 O 0.3242 0.96701 0.3329 0.0
O126 O 0.3093 0.85536 0.27974 0.0
O127 O 0.25325 0.94747 0.23566 0.0
O128 O 0.36648 0.9323 0.38734 0.0
O129 O 0.17272 0.88885 0.27344 0.0
O130 O 0.28734 0.85709 0.41348 0.0
O131 O 0.25128 0.95879 0.38893 0.0
Sc132 Sc 0.2535 0.13818 0.78819 0.0
Sc133 Sc 0.25815 0.06135 0.82246 0.0
Sc134 Sc 0.34261 0.1107 0.89173 0.0
O135 O 0.28402 0.10364 0.83387 0.0
C136 C 0.35802 0.15555 0.8081 0.0
C137 C 0.25001 0.08223 0.71051 0.0
C138 C 0.36794 0.05205 0.84773 0.0
C139 C 0.16628 0.10204 0.79664 0.0
C140 C 0.28017 0.16435 0.90489 0.0
C141 C 0.29205 0.05955 0.93879 0.0
O142 O 0.31766 0.15176 0.77643 0.0
O143 O 0.25953 0.06227 0.74562 0.0
O144 O 0.37751 0.07992 0.85675 0.0
O145 O 0.18733 0.12687 0.79579 0.0
O146 O 0.30682 0.1422 0.92475 0.0
O147 O 0.25613 0.05864 0.89964 0.0
O148 O 0.26317 0.16827 0.85594 0.0
O149 O 0.18595 0.0762 0.80015 0.0
O150 O 0.32852 0.07423 0.93901 0.0
O151 O 0.24141 0.1101 0.71804 0.0
O152 O 0.36851 0.14683 0.85457 0.0
O153 O 0.32774 0.04106 0.8438 0.0
Sc154 Sc 0.65946 0.1161 0.59683 0.0
Sc155 Sc 0.73828 0.05992 0.65689 0.0
Sc156 Sc 0.73254 0.12831 0.72046 0.0
O157 O 0.71066 0.10153 0.65819 0.0
C158 C 0.7211 0.17392 0.62461 0.0
C159 C 0.72327 0.07697 0.54444 0.0
C160 C 0.82705 0.09961 0.71925 0.0
C161 C 0.62967 0.05016 0.59615 0.0
C162 C 0.62666 0.14397 0.68775 0.0
C163 C 0.7309 0.06159 0.76857 0.0
O164 O 0.69921 0.15498 0.59059 0.0
O165 O 0.75326 0.06869 0.58625 0.0
O166 O 0.80315 0.12267 0.72318 0.0
O167 O 0.61846 0.07747 0.60153 0.0
O168 O 0.66296 0.13586 0.72329 0.0
O169 O 0.72376 0.04746 0.72626 0.0
O170 O 0.62335 0.14172 0.64038 0.0
O171 O 0.67187 0.04103 0.61123 0.0
O172 O 0.73887 0.09014 0.77341 0.0
O173 O 0.68697 0.09203 0.54361 0.0
O174 O 0.73053 0.1689 0.67299 0.0
O175 O 0.80866 0.07441 0.70027 0.0
H176 H 0.60331 0.44475 0.28384 0.0
H177 H 0.62809 0.34784 0.27573 0.0
H178 H 0.54375 0.33875 0.24444 0.0
H179 H 0.50435 0.43739 0.32946 0.0
H180 H 0.47263 0.46887 0.29272 0.0
H181 H 0.53545 0.46855 0.31233 0.0
H182 H 0.53316 0.47516 0.21734 0.0
H183 H 0.47028 0.47542 0.19741 0.0
H184 H 0.50061 0.4485 0.16952 0.0
H185 H 0.45835 0.33906 0.21671 0.0
H186 H 0.37438 0.34861 0.19601 0.0
H187 H 0.40146 0.44526 0.22162 0.0
C188 C 0.59093 0.42168 0.27513 0.0
C189 C 0.62259 0.39704 0.28232 0.0
C190 C 0.60484 0.36714 0.27086 0.0
C191 C 0.55687 0.36169 0.25278 0.0
C192 C 0.52675 0.38631 0.24632 0.0
C193 C 0.54277 0.41571 0.25719 0.0
C194 C 0.50219 0.43774 0.24844 0.0
C195 C 0.50376 0.45409 0.29874 0.0
C196 C 0.50153 0.46055 0.20562 0.0
C197 C 0.46113 0.41596 0.23147 0.0
C198 C 0.47644 0.38647 0.23032 0.0
C199 C 0.4458 0.36205 0.2173 0.0
C200 C 0.39808 0.36776 0.20573 0.0
C201 C 0.38115 0.39769 0.20727 0.0
C202 C 0.41323 0.42218 0.2197 0.0
H203 H 0.5952 0.56389 0.77421 0.0
H204 H 0.62683 0.65601 0.83206 0.0
H205 H 0.5432 0.66643 0.81288 0.0
H206 H 0.49443 0.58239 0.66985 0.0
H207 H 0.4618 0.54907 0.67602 0.0
H208 H 0.52461 0.54786 0.69616 0.0
H209 H 0.52606 0.53029 0.78722 0.0
H210 H 0.46323 0.53116 0.7672 0.0
H211 H 0.49628 0.55257 0.82282 0.0
H212 H 0.4574 0.66815 0.78461 0.0
H213 H 0.37265 0.66004 0.75319 0.0
H214 H 0.39505 0.56672 0.71389 0.0
C215 C 0.58454 0.58611 0.78341 0.0
C216 C 0.61765 0.60913 0.80444 0.0
C217 C 0.60221 0.63801 0.81561 0.0
C218 C 0.55475 0.64421 0.80491 0.0
C219 C 0.52307 0.62131 0.78321 0.0
C220 C 0.53709 0.59276 0.77292 0.0
C221 C 0.4954 0.57247 0.74889 0.0
C222 C 0.49399 0.56236 0.6945 0.0
C223 C 0.49524 0.545 0.78361 0.0
C224 C 0.45597 0.59423 0.7471 0.0
C225 C 0.47289 0.62225 0.76703 0.0
C226 C 0.44357 0.64626 0.76914 0.0
C227 C 0.39543 0.6414 0.75102 0.0
C228 C 0.37703 0.6127 0.73113 0.0
C229 C 0.4079 0.58891 0.72886 0.0
H230 H 0.08446 0.87271 0.24473 0.0
H231 H 0.11568 0.96264 0.31289 0.0
H232 H 0.03479 0.96797 0.31254 0.0
H233 H 0.9714 0.89149 0.16019 0.0
H234 H 0.94511 0.8556 0.16702 0.0
H235 H 0.00664 0.85761 0.17516 0.0
H236 H 0.02442 0.83341 0.26567 0.0
H237 H 0.96287 0.83158 0.25793 0.0
H238 H 0.00177 0.85089 0.31272 0.0
H239 H 0.9514 0.96562 0.3019 0.0
H240 H 0.86678 0.95644 0.27662 0.0
H241 H 0.88634 0.86806 0.21577 0.0
C242 C 0.07427 0.89344 0.25974 0.0
C243 C 0.10669 0.91724 0.2787 0.0
C244 C 0.09175 0.94408 0.29778 0.0
C245 C 0.04582 0.94732 0.29817 0.0
C246 C 0.01491 0.92356 0.27941 0.0
C247 C 0.02813 0.89719 0.26024 0.0
C248 C 0.98674 0.87595 0.24002 0.0
C249 C 0.97689 0.86981 0.18216 0.0
C250 C 0.99442 0.8462 0.27094 0.0
C251 C 0.9483 0.89488 0.25007 0.0
C252 C 0.96575 0.92211 0.27333 0.0
C253 C 0.93724 0.94428 0.28412 0.0
C254 C 0.88928 0.93888 0.26957 0.0
C255 C 0.87024 0.91151 0.24463 0.0
C256 C 0.90022 0.88891 0.23576 0.0
H257 H 0.09507 0.06148 0.75388 0.0
H258 H 0.12701 0.14737 0.83564 0.0
H259 H 0.04444 0.15357 0.82952 0.0
H260 H 0.98934 0.0856 0.66464 0.0
H261 H 0.95865 0.05023 0.66243 0.0
H262 H 0.0212 0.05031 0.6778 0.0
H263 H 0.0289 0.02183 0.76303 0.0
H264 H 0.96627 0.02152 0.74781 0.0
H265 H 0.00194 0.03746 0.80792 0.0
H266 H 0.96009 0.15292 0.81021 0.0
H267 H 0.8755 0.14583 0.77794 0.0
H268 H 0.89478 0.0606 0.70631 0.0
C269 C 0.08461 0.08124 0.77125 0.0
C270 C 0.11722 0.10395 0.79527 0.0
C271 C 0.10242 0.12982 0.81681 0.0
C272 C 0.0557 0.13347 0.81381 0.0
C273 C 0.02422 0.11109 0.78903 0.0
C274 C 0.03772 0.08546 0.76807 0.0
C275 C 0.99576 0.0661 0.74043 0.0
C276 C 0.99097 0.06289 0.68292 0.0
C277 C -0.00162 0.03488 0.76636 0.0
C278 C 0.95673 0.08528 0.7484 0.0
C279 C 0.97432 0.11091 0.77702 0.0
C280 C 0.94574 0.13283 0.78809 0.0
C281 C 0.89761 0.1286 0.76924 0.0
C282 C 0.87832 0.10265 0.73937 0.0
C283 C 0.90843 0.08056 0.72924 0.0
H284 H 0.2014 0.32017 0.00762 0.0
H285 H 0.24925 0.28038 0.16065 0.0
H286 H 0.26819 0.23292 0.12348 0.0
H287 H 0.14991 0.25154 0.93909 0.0
H288 H 0.16853 0.25968 0.88379 0.0
H289 H 0.15687 0.29036 0.92178 0.0
H290 H 0.23991 0.3117 0.93539 0.0
H291 H 0.25183 0.28112 0.89744 0.0
H292 H 0.28978 0.28747 0.96204 0.0
H293 H 0.28327 0.19057 0.07123 0.0
H294 H 0.29624 0.15548 0.0075 0.0
H295 H 0.23984 0.22202 0.88658 0.0
C296 C 0.21551 0.30142 0.03337 0.0
C297 C 0.22363 0.30406 0.08723 0.0
C298 C 0.24266 0.27902 0.11941 0.0
C299 C 0.25343 0.25191 0.09862 0.0
C300 C 0.24511 0.25015 0.04557 0.0
C301 C 0.22672 0.27418 0.01328 0.0
C302 C 0.22267 0.26648 0.95776 0.0
C303 C 0.17144 0.26705 0.92359 0.0
C304 C 0.25286 0.28797 0.93695 0.0
C305 C 0.24202 0.23438 0.96402 0.0
C306 C 0.25443 0.22553 0.01507 0.0
C307 C 0.27371 0.19722 0.03117 0.0
C308 C 0.28105 0.17746 0.99439 0.0
C309 C 0.26937 0.18591 0.94169 0.0
C310 C 0.24906 0.21477 0.92634 0.0
H311 H 0.74837 0.29185 0.41314 0.0
H312 H 0.83056 0.34803 0.5398 0.0
H313 H 0.81915 0.31083 0.60173 0.0
H314 H 0.66448 0.26705 0.47448 0.0
H315 H 0.66018 0.22907 0.44871 0.0
H316 H 0.67452 0.26024 0.41365 0.0
H317 H 0.74977 0.2323 0.41204 0.0
H318 H 0.73559 0.20103 0.447 0.0
H319 H 0.7911 0.21995 0.47176 0.0
H320 H 0.79924 0.26751 0.65084 0.0
H321 H 0.77278 0.22044 0.6827 0.0
H322 H 0.70392 0.19259 0.52465 0.0
C323 C 0.76398 0.29636 0.45384 0.0
C324 C 0.79039 0.32299 0.47124 0.0
C325 C 0.81019 0.32787 0.52508 0.0
C326 C 0.8039 0.30686 0.56083 0.0
C327 C 0.77772 0.28095 0.54244 0.0
C328 C 0.75812 0.27555 0.49027 0.0
C329 C 0.73183 0.24571 0.48089 0.0
C330 C 0.67966 0.25084 0.45278 0.0
C331 C 0.75337 0.22344 0.45118 0.0
C332 C 0.73986 0.23528 0.53586 0.0
C333 C 0.76632 0.25593 0.57082 0.0
C334 C 0.77842 0.25112 0.62383 0.0
C335 C 0.76319 0.22434 0.64159 0.0
C336 C 0.73622 0.20272 0.60638 0.0
C337 C 0.72444 0.20854 0.55283 0.0
H338 H 0.70252 0.80916 0.02434 0.0
H339 H 0.77533 0.78238 0.18193 0.0
H340 H 0.80244 0.73563 0.14915 0.0
H341 H 0.66412 0.73508 0.97563 0.0
H342 H 0.67202 0.74226 0.91388 0.0
H343 H 0.65847 0.77315 0.9501 0.0
H344 H 0.73225 0.80193 0.94597 0.0
H345 H 0.74615 0.77111 0.90986 0.0
H346 H 0.78838 0.7836 0.96888 0.0
H347 H 0.82138 0.69199 0.09815 0.0
H348 H 0.83061 0.65489 0.03465 0.0
H349 H 0.74526 0.71126 0.9105 0.0
C350 C 0.72411 0.79359 0.05239 0.0
C351 C 0.73674 0.79957 0.10599 0.0
C352 C 0.76509 0.77835 0.14082 0.0
C353 C 0.78067 0.75178 0.1225 0.0
C354 C 0.76757 0.74685 0.06935 0.0
C355 C 0.73987 0.76721 0.03491 0.0
C356 C 0.73062 0.75692 0.97969 0.0
C357 C 0.6782 0.75153 0.95329 0.0
C358 C 0.75056 0.77975 0.94933 0.0
C359 C 0.75753 0.72741 0.98816 0.0
C360 C 0.77856 0.72199 0.04013 0.0
C361 C 0.80506 0.69605 0.05745 0.0
C362 C 0.81003 0.67508 0.02085 0.0
C363 C 0.78866 0.68006 0.96725 0.0
C364 C 0.7622 0.70674 0.95097 0.0
H365 H 0.26698 0.71618 0.609 0.0
H366 H 0.1406 0.67851 0.50155 0.0
H367 H 0.14021 0.71858 0.44 0.0
H368 H 0.23536 0.7962 0.57741 0.0
H369 H 0.29391 0.80772 0.58205 0.0
H370 H 0.28452 0.77645 0.6203 0.0
H371 H 0.33507 0.74173 0.58234 0.0
H372 H 0.34456 0.77286 0.54397 0.0
H373 H 0.32038 0.73766 0.51345 0.0
H374 H 0.15307 0.76039 0.38767 0.0
H375 H 0.17912 0.8037 0.34699 0.0
H376 H 0.29683 0.81684 0.48542 0.0
C377 C 0.23913 0.71656 0.57272 0.0
C378 C 0.20409 0.69382 0.56046 0.0
C379 C 0.1683 0.69523 0.51224 0.0
C380 C 0.16747 0.71808 0.47671 0.0
C381 C 0.20251 0.73977 0.48949 0.0
C382 C 0.23766 0.7395 0.53617 0.0
C383 C 0.27134 0.76564 0.53874 0.0
C384 C 0.27127 0.78782 0.58222 0.0
C385 C 0.32076 0.75375 0.54499 0.0
C386 C 0.24968 0.78007 0.48605 0.0
C387 C 0.2099 0.76467 0.45863 0.0
C388 C 0.18406 0.77284 0.40873 0.0
C389 C 0.19928 0.79748 0.38588 0.0
C390 C 0.24002 0.81381 0.41283 0.0
C391 C 0.26536 0.805 0.46384 0.0
H392 H 0.87282 0.49243 0.92863 0.0
H393 H 0.93645 0.54192 0.83058 0.0
H394 H 0.01433 0.52626 0.8856 0.0
H395 H 0.94587 0.51273 0.04027 0.0
H396 H 0.95167 0.47743 0.07505 0.0
H397 H 0.89967 0.48495 0.02246 0.0
H398 H 0.91051 0.43614 0.97473 0.0
H399 H 0.96075 0.42707 0.02876 0.0
H400 H 0.96594 0.42872 0.96479 0.0
H401 H 0.0825 0.51898 0.96307 0.0
H402 H 0.14218 0.5016 0.04172 0.0
H403 H 0.03571 0.45331 0.08769 0.0
C404 C 0.90292 0.49801 0.91667 0.0
C405 C 0.89896 0.51824 0.87549 0.0
C406 C 0.9391 0.52612 0.8618 0.0
C407 C 0.98344 0.51778 0.89331 0.0
C408 C 0.98658 0.50081 0.93719 0.0
C409 C 0.94756 0.48954 0.94753 0.0
C410 C 0.96097 0.47322 -0.00108 0.0
C411 C 0.93816 0.48799 0.03632 0.0
C412 C 0.94885 0.43927 0.99134 0.0
C413 C 0.01323 0.47829 0.01654 0.0
C414 C 0.02699 0.49479 0.98078 0.0
C415 C 0.07266 0.50483 0.99041 0.0
C416 C 0.10614 0.49534 0.03579 0.0
C417 C 0.09378 0.47551 0.07032 0.0
C418 C 0.04632 0.46806 0.0616 0.0
H419 H 0.12415 0.49276 0.56554 0.0
H420 H 0.06778 0.53578 0.67577 0.0
H421 H 0.98823 0.52195 0.62272 0.0
H422 H 0.05057 0.5211 0.46302 0.0
H423 H 0.04184 0.48913 0.41977 0.0
H424 H 0.09503 0.49234 0.47235 0.0
H425 H 0.08234 0.43976 0.50821 0.0
H426 H 0.03065 0.4353 0.45369 0.0
H427 H 0.02722 0.43125 0.51811 0.0
H428 H 0.91687 0.51635 0.54825 0.0
H429 H 0.85437 0.50583 0.46627 0.0
H430 H 0.95751 0.46665 0.40388 0.0
C431 C 0.09531 0.49684 0.5805 0.0
C432 C 0.10178 0.51467 0.62503 0.0
C433 C 0.06332 0.52128 0.64249 0.0
C434 C 0.01796 0.51407 0.61197 0.0
C435 C 0.01223 0.49977 0.56488 0.0
C436 C 0.04985 0.48998 0.55011 0.0
C437 C 0.03425 0.47834 0.49515 0.0
C438 C 0.05677 0.49632 0.4606 0.0
C439 C 0.04417 0.44413 0.49372 0.0
C440 C 0.98247 0.4846 0.4807 0.0
C441 C 0.97053 0.49695 0.52132 0.0
C442 C 0.92512 0.50611 0.51623 0.0
C443 C 0.89019 0.50043 0.46948 0.0
C444 C 0.90106 0.485 0.42921 0.0
C445 C 0.94818 0.47844 0.43415 0.0
H446 H 0.53157 0.94038 0.03631 0.0
H447 H 0.64391 0.99858 0.02345 0.0
H448 H 0.58969 0.02309 0.94723 0.0
H449 H 0.47138 0.9319 0.89652 0.0
H450 H 0.41436 0.93354 0.90479 0.0
H451 H 0.46283 0.91778 0.95491 0.0
H452 H 0.44893 0.95586 0.02138 0.0
H453 H 0.39959 0.9705 0.97177 0.0
H454 H 0.44549 0.99589 0.00677 0.0
H455 H 0.52485 0.04198 0.87493 0.0
H456 H 0.44909 0.06485 0.82854 0.0
H457 H 0.37835 0.99522 0.8887 0.0
C458 C 0.54492 0.95811 0.01721 0.0
C459 C 0.59199 0.96742 0.03561 0.0
C460 C 0.60794 0.99106 0.01012 0.0
C461 C 0.57774 0.00464 0.9661 0.0
C462 C 0.53211 0.99398 0.94767 0.0
C463 C 0.51542 0.9718 0.97313 0.0
C464 C 0.46343 0.9674 0.9496 0.0
C465 C 0.45237 0.93577 0.92499 0.0
C466 C 0.43789 0.97278 0.98976 0.0
C467 C 0.45301 0.99197 0.9089 0.0
C468 C 0.49353 0.00598 0.90687 0.0
C469 C 0.4929 0.03109 0.87576 0.0
C470 C 0.44971 0.04383 0.84939 0.0
C471 C 0.40817 0.03181 0.85557 0.0
C472 C 0.40956 0.00441 0.88262 0.0
H473 H 0.37786 0.01077 0.40935 0.0
H474 H 0.44288 0.94003 0.3453 0.0
H475 H 0.52077 0.95829 0.39701 0.0
H476 H 0.47532 0.07024 0.42964 0.0
H477 H 0.46652 0.08194 0.48923 0.0
H478 H 0.41781 0.06876 0.43665 0.0
H479 H 0.39985 0.02917 0.49807 0.0
H480 H 0.44972 0.041 0.55012 0.0
H481 H 0.44389 1.00184 0.52984 0.0
H482 H 0.5886 0.97646 0.46832 0.0
H483 H 0.64512 1.00044 0.54352 0.0
H484 H 0.53508 0.05811 0.56388 0.0
C485 C 0.40868 1.00064 0.4037 0.0
C486 C 0.40506 0.9747 0.37267 0.0
C487 C 0.44564 0.96054 0.36802 0.0
C488 C 0.48981 0.97053 0.39764 0.0
C489 C 0.4923 0.99463 0.43143 0.0
C490 C 0.45295 0.01011 0.43363 0.0
C491 C 0.46465 0.03267 0.47758 0.0
C492 C 0.45556 0.06534 0.45704 0.0
C493 C 0.43795 0.02573 0.51614 0.0
C494 C 0.51621 0.02653 0.50089 0.0
C495 C 0.53151 0.00464 0.47364 0.0
C496 C 0.5773 0.9941 0.48942 0.0
C497 C 0.60894 0.00748 0.53276 0.0
C498 C 0.59447 0.03116 0.5596 0.0
C499 C 0.5472 0.04012 0.54411 0.0
H500 H 0.11924 0.3834 0.28305 0.0
H501 H 0.06115 0.32462 0.15119 0.0
H502 H 0.99464 0.31274 0.18286 0.0
H503 H 0.07977 0.33987 0.37811 0.0
H504 H 0.06584 0.37375 0.4075 0.0
H505 H 0.11215 0.37438 0.37863 0.0
H506 H 0.07223 0.41951 0.32089 0.0
H507 H 0.02606 0.41902 0.34972 0.0
H508 H 0.01243 0.41585 0.28082 0.0
H509 H 0.93208 0.3102 0.22458 0.0
H510 H 0.8739 0.32043 0.26896 0.0
H511 H 0.97041 0.38254 0.3727 0.0
C512 C 0.09308 0.36743 0.26158 0.0
C513 C 0.09565 0.3545 0.21506 0.0
C514 C 0.05998 0.33456 0.18706 0.0
C515 C 0.02225 0.32757 0.20492 0.0
C516 C 0.02046 0.34094 0.25061 0.0
C517 C 0.0547 0.36066 0.27841 0.0
C518 C 0.04185 0.37443 0.32324 0.0
C519 C 0.077 0.36503 0.37494 0.0
C520 C 0.03789 0.40925 0.31834 0.0
C521 C 0.9946 0.3598 0.31568 0.0
C522 C 0.98342 0.34017 0.27407 0.0
C523 C 0.94062 0.32527 0.25752 0.0
C524 C 0.90777 0.33125 0.28305 0.0
C525 C 0.91759 0.35214 0.32458 0.0
C526 C 0.96216 0.36596 0.34186 0.0
H527 H 0.02769 0.61857 0.65066 0.0
H528 H 0.11937 0.68752 0.74291 0.0
H529 H 0.06276 0.69731 0.78919 0.0
H530 H 0.91595 0.65852 0.64382 0.0
H531 H 0.88675 0.62337 0.64828 0.0
H532 H 0.93194 0.62403 0.61781 0.0
H533 H 0.97637 0.58187 0.67973 0.0
H534 H 0.93158 0.58125 0.71057 0.0
H535 H 0.99149 0.58767 0.74831 0.0
H536 H 0.00346 0.69378 0.83544 0.0
H537 H 0.93828 0.68202 0.86995 0.0
H538 H 0.88185 0.6187 0.74446 0.0
C539 C 0.03514 0.63641 0.67937 0.0
C540 C 0.07815 0.65217 0.69312 0.0
C541 C 0.08684 0.67499 0.7317 0.0
C542 C 0.05488 0.68078 0.75834 0.0
C543 C 0.01387 0.66395 0.74554 0.0
C544 C 0.00328 0.64272 0.70621 0.0
C545 C 0.95758 0.62684 0.70197 0.0
C546 C 0.92088 0.63362 0.64987 0.0
C547 C 0.96473 0.59238 0.71069 0.0
C548 C 0.94511 0.64191 0.74592 0.0
C549 C 0.97818 0.66312 0.77078 0.0
C550 C 0.97656 0.67786 0.81551 0.0
C551 C 0.93976 0.67099 0.83502 0.0
C552 C 0.9049 0.65006 0.80914 0.0
C553 C 0.90755 0.63548 0.76401 0.0
H554 H 0.44499 0.86982 0.34828 0.0
H555 H 0.34301 0.82244 0.22398 0.0
H556 H 0.40242 0.81478 0.18029 0.0
H557 H 0.49712 0.90982 0.27271 0.0
H558 H 0.55637 0.90713 0.31469 0.0
H559 H 0.50875 0.90531 0.34117 0.0
H560 H 0.53744 0.85369 0.38372 0.0
H561 H 0.5863 0.85539 0.3589 0.0
H562 H 0.54799 0.82291 0.34518 0.0
H563 H 0.46956 0.81827 0.14408 0.0
H564 H 0.54141 0.82932 0.12171 0.0
H565 H 0.60099 0.87285 0.27025 0.0
C566 C 0.43551 0.8569 0.31278 0.0
C567 C 0.38913 0.84656 0.28994 0.0
C568 C 0.37816 0.83049 0.24261 0.0
C569 C 0.41174 0.82603 0.21734 0.0
C570 C 0.45652 0.83748 0.23991 0.0
C571 C 0.46874 0.85216 0.28699 0.0
C572 C 0.51857 0.86382 0.30132 0.0
C573 C 0.52025 0.89858 0.3078 0.0
C574 C 0.5494 0.848 0.35018 0.0
C575 C 0.53186 0.85421 0.25428 0.0
C576 C 0.49563 0.83895 0.21939 0.0
C577 C 0.4985 0.82968 0.17156 0.0
C578 C 0.53941 0.83616 0.15907 0.0
C579 C 0.5772 0.85159 0.19436 0.0
C580 C 0.57323 0.86043 0.24278 0.0
H581 H 0.6086 0.13744 0.77963 0.0
H582 H 0.55173 0.17536 0.62619 0.0
H583 H 0.48029 0.19013 0.64612 0.0
H584 H 0.50641 0.10384 0.78366 0.0
H585 H 0.51538 0.11086 0.85106 0.0
H586 H 0.5647 0.10776 0.82759 0.0
H587 H 0.59343 0.16086 0.86575 0.0
H588 H 0.54377 0.16413 0.88899 0.0
H589 H 0.55498 0.19312 0.84773 0.0
H590 H 0.41143 0.19444 0.67794 0.0
H591 H 0.34965 0.1865 0.71855 0.0
H592 H 0.45155 0.14648 0.85161 0.0
C593 C 0.58168 0.14959 0.7507 0.0
C594 C 0.58589 0.15541 0.70147 0.0
C595 C 0.54932 0.17068 0.66422 0.0
C596 C 0.50871 0.17935 0.67527 0.0
C597 C 0.50524 0.17271 0.72381 0.0
C598 C 0.54078 0.15822 0.76099 0.0
C599 C 0.52638 0.15078 0.80804 0.0
C600 C 0.52831 0.11628 0.81812 0.0
C601 C 0.55643 0.16828 0.85543 0.0
C602 C 0.47667 0.1624 0.79075 0.0
C603 C 0.46534 0.17537 0.74237 0.0
C604 C 0.4201 0.18494 0.71629 0.0
C605 C 0.38523 0.18033 0.73963 0.0
C606 C 0.39585 0.16623 0.7885 0.0
C607 C 0.4425 0.15808 0.81487 0.0
H608 H 0.28175 0.46288 0.01171 0.0
H609 H 0.13148 0.45 0.96349 0.0
H610 H 0.12182 0.4926 0.90282 0.0
H611 H 0.28421 0.54314 0.00444 0.0
H612 H 0.33114 0.54502 0.97662 0.0
H613 H 0.32741 0.51339 0.01703 0.0
H614 H 0.32714 0.47535 0.94441 0.0
H615 H 0.33273 0.50681 0.90465 0.0
H616 H 0.2854 0.48019 0.88138 0.0
H617 H 0.12749 0.54005 0.85421 0.0
H618 H 0.14915 0.57812 0.79907 0.0
H619 H 0.29522 0.55705 0.87111 0.0
C620 C 0.24686 0.46869 0.98782 0.0
C621 C 0.20737 0.45332 0.99323 0.0
C622 C 0.16238 0.46141 0.96052 0.0
C623 C 0.1564 0.48593 0.92639 0.0
C624 C 0.19576 0.50177 0.92441 0.0
C625 C 0.24023 0.49268 0.95248 0.0
C626 C 0.27678 0.51202 0.93964 0.0
C627 C 0.30664 0.52942 0.98729 0.0
C628 C 0.3073 0.49243 0.9161 0.0
C629 C 0.24582 0.53349 0.90025 0.0
C630 C 0.19919 0.52778 0.89333 0.0
C631 C 0.16388 0.54466 0.85908 0.0
C632 C 0.17649 0.56662 0.82861 0.0
C633 C 0.22381 0.57094 0.83189 0.0
C634 C 0.25892 0.55479 0.86915 0.0
H635 H 0.83238 0.48262 0.53391 0.0
H636 H 0.68785 0.45558 0.46611 0.0
H637 H 0.66396 0.49312 0.52009 0.0
H638 H 0.83249 0.49627 0.66058 0.0
H639 H 0.86799 0.53006 0.66999 0.0
H640 H 0.87343 0.50151 0.62507 0.0
H641 H 0.85397 0.54243 0.55033 0.0
H642 H 0.85218 0.57006 0.59834 0.0
H643 H 0.80325 0.56566 0.54075 0.0
H644 H 0.65527 0.53379 0.58049 0.0
H645 H 0.66477 0.56826 0.6547 0.0
H646 H 0.81402 0.57003 0.68163 0.0
C647 C 0.79581 0.48451 0.53063 0.0
C648 C 0.76199 0.46626 0.49554 0.0
C649 C 0.7144 0.46934 0.49268 0.0
C650 C 0.70038 0.49085 0.5227 0.0
C651 C 0.73423 0.50955 0.5549 0.0
C652 C 0.781 0.50652 0.5594 0.0
C653 C 0.81024 0.52929 0.5976 0.0
C654 C 0.84825 0.51332 0.64089 0.0
C655 C 0.83121 0.55325 0.57021 0.0
C656 C 0.77311 0.54371 0.61678 0.0
C657 C 0.72921 0.53298 0.59002 0.0
C658 C 0.68939 0.54265 0.60131 0.0
C659 C 0.69493 0.5626 0.64287 0.0
C660 C 0.73988 0.57234 0.67251 0.0
C661 C 0.77919 0.5636 0.65827 0.0
H662 H 0.82805 0.46945 0.22102 0.0
H663 H 0.72254 0.4034 0.1444 0.0
H664 H 0.71902 0.42582 0.0601 0.0
H665 H 0.78046 0.53112 0.1482 0.0
H666 H 0.83432 0.5478 0.14563 0.0
H667 H 0.83414 0.5239 0.19894 0.0
H668 H 0.8966 0.48926 0.18103 0.0
H669 H 0.89743 0.51287 0.12738 0.0
H670 H 0.88607 0.47272 0.11809 0.0
H671 H 0.7174 0.46044 0.9876 0.0
H672 H 0.72385 0.50108 0.92867 0.0
H673 H 0.83352 0.54386 0.05158 0.0
C674 C 0.80503 0.45923 0.18634 0.0
C675 C 0.77539 0.43478 0.18893 0.0
C676 C 0.74574 0.42195 0.14302 0.0
C677 C 0.74345 0.43461 0.09513 0.0
C678 C 0.7718 0.45955 0.09414 0.0
C679 C 0.80282 0.4713 0.13843 0.0
C680 C 0.82752 0.49921 0.12719 0.0
C681 C 0.81854 0.52714 0.15674 0.0
C682 C 0.88003 0.49316 0.13912 0.0
C683 C 0.80375 0.50234 0.06989 0.0
C684 C 0.77194 0.4791 0.0517 0.0
C685 C 0.74284 0.47837 0.00113 0.0
C686 C 0.74648 0.50183 0.96814 0.0
C687 C 0.77914 0.52577 0.98562 0.0
C688 C 0.80853 0.52578 0.0371 0.0
H689 H 0.18472 0.48078 0.28665 0.0
H690 H 0.3172 0.43579 0.35672 0.0
H691 H 0.32898 0.46652 0.43569 0.0
H692 H 0.21537 0.55507 0.34095 0.0
H693 H 0.1605 0.56174 0.35266 0.0
H694 H 0.16289 0.53725 0.30063 0.0
H695 H 0.12531 0.49344 0.33761 0.0
H696 H 0.12199 0.51804 0.38906 0.0
H697 H 0.15141 0.48198 0.40366 0.0
H698 H 0.32769 0.50284 0.50468 0.0
H699 H 0.30819 0.53612 0.56721 0.0
H700 H 0.17322 0.55543 0.45569 0.0
C701 C 0.21614 0.47749 0.31879 0.0
C702 C 0.25036 0.45621 0.31589 0.0
C703 C 0.29069 0.45197 0.35859 0.0
C704 C 0.29778 0.46948 0.40324 0.0
C705 C 0.26374 0.49063 0.40467 0.0
C706 C 0.22317 0.4942 0.36417 0.0
C707 C 0.19071 0.51696 0.37729 0.0
C708 C 0.18186 0.54438 0.34069 0.0
C709 C 0.14465 0.50169 0.37689 0.0
C710 C 0.21966 0.52585 0.43138 0.0
C711 C 0.26192 0.51068 0.44586 0.0
C712 C 0.29462 0.5147 0.49398 0.0
C713 C 0.28315 0.53375 0.52918 0.0
C714 C 0.23903 0.54832 0.5165 0.0
C715 C 0.20738 0.54494 0.46635 0.0
H716 H 0.67231 0.93307 0.94644 0.0
H717 H 0.81404 0.94538 0.0478 0.0
H718 H 0.82865 0.98258 0.98766 0.0
H719 H 0.70416 0.94139 0.82361 0.0
H720 H 0.6502 0.96066 0.7916 0.0
H721 H 0.65215 0.9325 0.84012 0.0
H722 H 0.61908 0.97211 0.89018 0.0
H723 H 0.61772 1.00033 0.84203 0.0
H724 H 0.64944 0.0077 0.90856 0.0
H725 H 0.82373 0.02498 0.92623 0.0
H726 H 0.80603 0.06154 0.85399 0.0
H727 H 0.67124 0.01886 0.78631 0.0
C728 C 0.70697 0.94265 0.955 0.0
C729 C 0.74184 0.93638 0.00225 0.0
C730 C 0.78655 0.94987 0.01216 0.0
C731 C 0.79524 0.9712 0.97832 0.0
C732 C 0.75933 0.97831 0.93385 0.0
C733 C 0.71667 0.96368 0.92092 0.0
C734 C 0.68417 0.976 0.87063 0.0
C735 C 0.67196 0.95116 0.82901 0.0
C736 C 0.63995 0.98983 0.87833 0.0
C737 C 0.71479 1.00042 0.85854 0.0
C738 C 0.75773 1.00163 0.89607 0.0
C739 C 0.79066 0.02384 0.8959 0.0
C740 C 0.7801 0.04475 0.85523 0.0
C741 C 0.73739 0.04293 0.81497 0.0
C742 C 0.70423 0.02058 0.81674 0.0
H743 H 0.31607 0.04924 0.68684 0.0
H744 H 0.17743 0.0867 0.62095 0.0
H745 H 0.16583 0.05394 0.54399 0.0
H746 H 0.34306 0.04048 0.56255 0.0
H747 H 0.37505 0.00589 0.58441 0.0
H748 H 0.37348 0.0351 0.63006 0.0
H749 H 0.34281 0.99529 0.68166 0.0
H750 H 0.34245 0.96633 0.63496 0.0
H751 H 0.28974 0.97488 0.65025 0.0
H752 H 0.16621 0.01275 0.48036 0.0
H753 H 0.18321 0.97318 0.42486 0.0
H754 H 0.32275 0.96269 0.53165 0.0
C755 C 0.28398 0.05137 0.65518 0.0
C756 C 0.2478 0.07079 0.65913 0.0
C757 C 0.20584 0.07255 0.61787 0.0
C758 C 0.19883 0.05369 0.57451 0.0
C759 C 0.23437 0.0336 0.57312 0.0
C760 C 0.27667 0.03298 0.61166 0.0
C761 C 0.3088 0.00885 0.60152 0.0
C762 C 0.35268 0.02346 0.59418 0.0
C763 C 0.32169 0.98493 0.64468 0.0
C764 C 0.27761 0.99544 0.55165 0.0
C765 C 0.23474 0.00996 0.53626 0.0
C766 C 0.1998 1.00151 0.49176 0.0
C767 C 0.20967 0.97879 0.46078 0.0
C768 C 0.25419 0.96472 0.47415 0.0
C769 C 0.28816 0.97257 0.521 0.0
H770 H 0.1952 0.96499 0.13174 0.0
H771 H 0.32203 0.9117 0.16897 0.0
H772 H 0.34712 0.94016 0.10385 0.0
H773 H 0.18004 0.97186 0.9895 0.0
H774 H 0.1572 0.00983 0.98776 0.0
H775 H 0.14721 0.98231 0.03204 0.0
H776 H 0.18327 0.01968 0.10716 0.0
H777 H 0.19494 0.04687 0.06354 0.0
H778 H 0.24185 0.03345 0.11781 0.0
H779 H 0.36439 0.98089 0.04771 0.0
H780 H 0.36481 0.02307 0.98781 0.0
H781 H 0.22374 0.04693 0.98198 0.0
C782 C 0.22713 0.95843 0.12423 0.0
C783 C 0.25641 0.93592 0.15419 0.0
C784 C 0.29875 0.92839 0.1451 0.0
C785 C 0.31345 0.94467 0.10875 0.0
C786 C 0.28479 0.96785 0.08145 0.0
C787 C 0.24172 0.97397 0.08735 0.0
C788 C 0.21823 1.00063 0.05451 0.0
C789 C 0.173 0.99054 0.0135 0.0
C790 C 0.20906 0.02668 0.08777 0.0
C791 C 0.25544 0.0092 0.03052 0.0
C792 C 0.29384 0.99031 0.04709 0.0
C793 C 0.33408 0.99533 0.03336 0.0
C794 C 0.33429 0.01954 7e-05 0.0
C795 C 0.29429 0.03801 0.98051 0.0
C796 C 0.25461 0.03293 0.99631 0.0
H797 H 0.76912 0.02526 0.5292 0.0
H798 H 0.6775 0.09761 0.44829 0.0
H799 H 0.66214 0.06928 0.36716 0.0
H800 H 0.8173 0.00661 0.42261 0.0
H801 H 0.81939 0.96649 0.43641 0.0
H802 H 0.82637 0.99367 0.48762 0.0
H803 H 0.75835 0.96795 0.51107 0.0
H804 H 0.75011 0.94128 0.45896 0.0
H805 H 0.70211 0.9646 0.46278 0.0
H806 H 0.64891 0.03168 0.29813 0.0
H807 H 0.65076 0.99073 0.23796 0.0
H808 H 0.7536 0.94236 0.36018 0.0
C809 C 0.74715 0.03562 0.49411 0.0
C810 C 0.72451 0.06372 0.49513 0.0
C811 C 0.69521 0.07617 0.4485 0.0
C812 C 0.68599 0.06015 0.40225 0.0
C813 C 0.7067 0.03184 0.4031 0.0
C814 C 0.73765 0.01993 0.44726 0.0
C815 C 0.75453 0.98873 0.43695 0.0
C816 C 0.80755 0.98889 0.44645 0.0
C817 C 0.74043 0.9642 0.46938 0.0
C818 C 0.72791 0.98504 0.38014 0.0
C819 C 0.70009 0.01012 0.362 0.0
C820 C 0.67117 0.01215 0.31151 0.0
C821 C 0.67239 0.98864 0.27772 0.0
C822 C 0.70279 0.96349 0.29416 0.0
C823 C 0.72993 0.96121 0.34655 0.0
loop_
_geom_bond_atom_site_label_1
_geom_bond_atom_site_label_2
_geom_bond_distance
_geom_bond_site_symmetry_2
_ccdc_geom_bond_type
Sc0 O3 2.025 . S
Sc0 O10 2.105 . S
Sc0 O13 2.105 . S
Sc0 O16 2.105 . S
Sc0 O19 2.105 . S
Sc1 O3 2.025 . S
Sc1 O11 2.105 . S
Sc1 O15 2.105 . S
Sc1 O17 2.105 . S
Sc1 O21 2.105 . S
Sc2 O3 2.025 . S
Sc2 O12 2.105 . S
Sc2 O14 2.105 . S
Sc2 O18 2.105 . S
Sc2 O20 2.105 . S
O3 Sc0 2.025 . S
O3 Sc1 2.025 . S
O3 Sc2 2.025 . S
C4 O10 1.268 . S
C4 O20 1.268 . S
C5 O11 1.268 . S
C5 O19 1.268 . S
C6 O12 1.268 . S
C6 O21 1.268 . S
C7 O13 1.268 . S
C7 O17 1.268 . S
C8 O14 1.268 . S
C8 O16 1.268 . S
C9 O15 1.268 . S
C9 O18 1.268 . S
O10 Sc0 2.105 . S
O10 C4 1.268 . S
O11 Sc1 2.105 . S
O11 C5 1.268 . S
O12 Sc2 2.105 . S
O12 C6 1.268 . S
O13 Sc0 2.105 . S
O13 C7 1.268 . S
O14 Sc2 2.105 . S
O14 C8 1.268 . S
O15 Sc1 2.105 . S
O15 C9 1.268 . S
O16 Sc0 2.105 . S
O16 C8 1.268 . S
O17 Sc1 2.105 . S
O17 C7 1.268 . S
O18 Sc2 2.105 . S
O18 C9 1.268 . S
O19 Sc0 2.105 . S
O19 C5 1.268 . S
O20 Sc2 2.105 . S
O20 C4 1.268 . S
O21 Sc1 2.105 . S
O21 C6 1.268 . S
Sc22 O25 2.025 . S
Sc22 O32 2.105 . S
Sc22 O35 2.105 . S
Sc22 O38 2.105 . S
Sc22 O41 2.105 . S
Sc23 O25 2.025 . S
Sc23 O33 2.105 . S
Sc23 O37 2.105 . S
Sc23 O39 2.105 . S
Sc23 O43 2.105 . S
Sc24 O25 2.025 . S
Sc24 O34 2.105 . S
Sc24 O36 2.105 . S
Sc24 O40 2.105 . S
Sc24 O42 2.105 . S
O25 Sc22 2.025 . S
O25 Sc23 2.025 . S
O25 Sc24 2.025 . S
C26 O32 1.268 . S
C26 O42 1.268 . S
C27 O33 1.268 . S
C27 O41 1.268 . S
C28 O34 1.268 . S
C28 O43 1.268 . S
C29 O35 1.268 . S
C29 O39 1.268 . S
C30 O36 1.268 . S
C30 O38 1.268 . S
C31 O37 1.268 . S
C31 O40 1.268 . S
O32 Sc22 2.105 . S
O32 C26 1.268 . S
O33 Sc23 2.105 . S
O33 C27 1.268 . S
O34 Sc24 2.105 . S
O34 C28 1.268 . S
O35 Sc22 2.105 . S
O35 C29 1.268 . S
O36 Sc24 2.105 . S
O36 C30 1.268 . S
O37 Sc23 2.105 . S
O37 C31 1.268 . S
O38 Sc22 2.105 . S
O38 C30 1.268 . S
O39 Sc23 2.105 . S
O39 C29 1.268 . S
O40 Sc24 2.105 . S
O40 C31 1.268 . S
O41 Sc22 2.105 . S
O41 C27 1.268 . S
O42 Sc24 2.105 . S
O42 C26 1.268 . S
O43 Sc23 2.105 . S
O43 C28 1.268 . S
Sc44 O47 2.025 . S
Sc44 O54 2.105 . S
Sc44 O57 2.105 . S
Sc44 O60 2.105 . S
Sc44 O63 2.105 . S
Sc45 O47 2.025 . S
Sc45 O55 2.105 . S
Sc45 O59 2.105 . S
Sc45 O61 2.105 . S
Sc45 O65 2.105 . S
Sc46 O47 2.025 . S
Sc46 O56 2.105 . S
Sc46 O58 2.105 . S
Sc46 O62 2.105 . S
Sc46 O64 2.105 . S
O47 Sc44 2.025 . S
O47 Sc45 2.025 . S
O47 Sc46 2.025 . S
C48 O54 1.268 . S
C48 O64 1.268 . S
C49 O55 1.268 . S
C49 O63 1.268 . S
C50 O56 1.268 . S
C50 O65 1.268 . S
C51 O57 1.268 . S
C51 O61 1.268 . S
C52 O58 1.268 . S
C52 O60 1.268 . S
C53 O59 1.268 . S
C53 O62 1.268 . S
O54 Sc44 2.105 . S
O54 C48 1.268 . S
O55 Sc45 2.105 . S
O55 C49 1.268 . S
O56 Sc46 2.105 . S
O56 C50 1.268 . S
O57 Sc44 2.105 . S
O57 C51 1.268 . S
O58 Sc46 2.105 . S
O58 C52 1.268 . S
O59 Sc45 2.105 . S
O59 C53 1.268 . S
O60 Sc44 2.105 . S
O60 C52 1.268 . S
O61 Sc45 2.105 . S
O61 C51 1.268 . S
O62 Sc46 2.105 . S
O62 C53 1.268 . S
O63 Sc44 2.105 . S
O63 C49 1.268 . S
O64 Sc46 2.105 . S
O64 C48 1.268 . S
O65 Sc45 2.105 . S
O65 C50 1.268 . S
Sc66 O69 2.025 . S
Sc66 O76 2.105 . S
Sc66 O79 2.105 . S
Sc66 O82 2.105 . S
Sc66 O85 2.105 . S
Sc67 O69 2.025 . S
Sc67 O77 2.105 . S
Sc67 O81 2.105 . S
Sc67 O83 2.105 . S
Sc67 O87 2.105 . S
Sc68 O69 2.025 . S
Sc68 O78 2.105 . S
Sc68 O80 2.105 . S
Sc68 O84 2.105 . S
Sc68 O86 2.105 . S
O69 Sc66 2.025 . S
O69 Sc67 2.025 . S
O69 Sc68 2.025 . S
C70 O76 1.268 . S
C70 O86 1.268 . S
C71 O77 1.268 . S
C71 O85 1.268 . S
C72 O78 1.268 . S
C72 O87 1.268 . S
C73 O79 1.268 . S
C73 O83 1.268 . S
C74 O80 1.268 . S
C74 O82 1.268 . S
C75 O81 1.268 . S
C75 O84 1.268 . S
O76 Sc66 2.105 . S
O76 C70 1.268 . S
O77 Sc67 2.105 . S
O77 C71 1.268 . S
O78 Sc68 2.105 . S
O78 C72 1.268 . S
O79 Sc66 2.105 . S
O79 C73 1.268 . S
O80 Sc68 2.105 . S
O80 C74 1.268 . S
O81 Sc67 2.105 . S
O81 C75 1.268 . S
O82 Sc66 2.105 . S
O82 C74 1.268 . S
O83 Sc67 2.105 . S
O83 C73 1.268 . S
O84 Sc68 2.105 . S
O84 C75 1.268 . S
O85 Sc66 2.105 . S
O85 C71 1.268 . S
O86 Sc68 2.105 . S
O86 C70 1.268 . S
O87 Sc67 2.105 . S
O87 C72 1.268 . S
Sc88 O91 2.025 . S
Sc88 O98 2.105 . S
Sc88 O101 2.105 . S
Sc88 O104 2.105 . S
Sc88 O107 2.105 . S
Sc89 O91 2.025 . S
Sc89 O99 2.105 . S
Sc89 O103 2.105 . S
Sc89 O105 2.105 . S
Sc89 O109 2.105 . S
Sc90 O91 2.025 . S
Sc90 O100 2.105 . S
Sc90 O102 2.105 . S
Sc90 O106 2.105 . S
Sc90 O108 2.105 . S
O91 Sc88 2.025 . S
O91 Sc89 2.025 . S
O91 Sc90 2.025 . S
C92 O98 1.268 . S
C92 O108 1.268 . S
C93 O99 1.268 . S
C93 O107 1.268 . S
C94 O100 1.268 . S
C94 O109 1.268 . S
C95 O101 1.268 . S
C95 O105 1.268 . S
C96 O102 1.268 . S
C96 O104 1.268 . S
C97 O103 1.268 . S
C97 O106 1.268 . S
O98 Sc88 2.105 . S
O98 C92 1.268 . S
O99 Sc89 2.105 . S
O99 C93 1.268 . S
O100 Sc90 2.105 . S
O100 C94 1.268 . S
O101 Sc88 2.105 . S
O101 C95 1.268 . S
O102 Sc90 2.105 . S
O102 C96 1.268 . S
O103 Sc89 2.105 . S
O103 C97 1.268 . S
O104 Sc88 2.105 . S
O104 C96 1.268 . S
O105 Sc89 2.105 . S
O105 C95 1.268 . S
O106 Sc90 2.105 . S
O106 C97 1.268 . S
O107 Sc88 2.105 . S
O107 C93 1.268 . S
O108 Sc90 2.105 . S
O108 C92 1.268 . S
O109 Sc89 2.105 . S
O109 C94 1.268 . S
Sc110 O113 2.025 . S
Sc110 O120 2.105 . S
Sc110 O123 2.105 . S
Sc110 O126 2.105 . S
Sc110 O129 2.105 . S
Sc111 O113 2.025 . S
Sc111 O121 2.105 . S
Sc111 O125 2.105 . S
Sc111 O127 2.105 . S
Sc111 O131 2.105 . S
Sc112 O113 2.025 . S
Sc112 O122 2.105 . S
Sc112 O124 2.105 . S
Sc112 O128 2.105 . S
Sc112 O130 2.105 . S
O113 Sc110 2.025 . S
O113 Sc111 2.025 . S
O113 Sc112 2.025 . S
C114 O120 1.268 . S
C114 O130 1.268 . S
C115 O121 1.268 . S
C115 O129 1.268 . S
C116 O122 1.268 . S
C116 O131 1.268 . S
C117 O123 1.268 . S
C117 O127 1.268 . S
C118 O124 1.268 . S
C118 O126 1.268 . S
C119 O125 1.268 . S
C119 O128 1.268 . S
O120 Sc110 2.105 . S
O120 C114 1.268 . S
O121 Sc111 2.105 . S
O121 C115 1.268 . S
O122 Sc112 2.105 . S
O122 C116 1.268 . S
O123 Sc110 2.105 . S
O123 C117 1.268 . S
O124 Sc112 2.105 . S
O124 C118 1.268 . S
O125 Sc111 2.105 . S
O125 C119 1.268 . S
O126 Sc110 2.105 . S
O126 C118 1.268 . S
O127 Sc111 2.105 . S
O127 C117 1.268 . S
O128 Sc112 2.105 . S
O128 C119 1.268 . S
O129 Sc110 2.105 . S
O129 C115 1.268 . S
O130 Sc112 2.105 . S
O130 C114 1.268 . S
O131 Sc111 2.105 . S
O131 C116 1.268 . S
Sc132 O135 2.025 . S
Sc132 O142 2.105 . S
Sc132 O145 2.105 . S
Sc132 O148 2.105 . S
Sc132 O151 2.105 . S
Sc133 O135 2.025 . S
Sc133 O143 2.105 . S
Sc133 O147 2.105 . S
Sc133 O149 2.105 . S
Sc133 O153 2.105 . S
Sc134 O135 2.025 . S
Sc134 O144 2.105 . S
Sc134 O146 2.105 . S
Sc134 O150 2.105 . S
Sc134 O152 2.105 . S
O135 Sc132 2.025 . S
O135 Sc133 2.025 . S
O135 Sc134 2.025 . S
C136 O142 1.268 . S
C136 O152 1.268 . S
C137 O143 1.268 . S
C137 O151 1.268 . S
C138 O144 1.268 . S
C138 O153 1.268 . S
C139 O145 1.268 . S
C139 O149 1.268 . S
C140 O146 1.268 . S
C140 O148 1.268 . S
C141 O147 1.268 . S
C141 O150 1.268 . S
O142 Sc132 2.105 . S
O142 C136 1.268 . S
O143 Sc133 2.105 . S
O143 C137 1.268 . S
O144 Sc134 2.105 . S
O144 C138 1.268 . S
O145 Sc132 2.105 . S
O145 C139 1.268 . S
O146 Sc134 2.105 . S
O146 C140 1.268 . S
O147 Sc133 2.105 . S
O147 C141 1.268 . S
O148 Sc132 2.105 . S
O148 C140 1.268 . S
O149 Sc133 2.105 . S
O149 C139 1.268 . S
O150 Sc134 2.105 . S
O150 C141 1.268 . S
O151 Sc132 2.105 . S
O151 C137 1.268 . S
O152 Sc134 2.105 . S
O152 C136 1.268 . S
O153 Sc133 2.105 . S
O153 C138 1.268 . S
Sc154 O157 2.025 . S
Sc154 O164 2.105 . S
Sc154 O167 2.105 . S
Sc154 O170 2.105 . S
Sc154 O173 2.105 . S
Sc155 O157 2.025 . S
Sc155 O165 2.105 . S
Sc155 O169 2.105 . S
Sc155 O171 2.105 . S
Sc155 O175 2.105 . S
Sc156 O157 2.025 . S
Sc156 O166 2.105 . S
Sc156 O168 2.105 . S
Sc156 O172 2.105 . S
Sc156 O174 2.105 . S
O157 Sc154 2.025 . S
O157 Sc155 2.025 . S
O157 Sc156 2.025 . S
C158 O164 1.268 . S
C158 O174 1.268 . S
C159 O165 1.268 . S
C159 O173 1.268 . S
C160 O166 1.268 . S
C160 O175 1.268 . S
C161 O167 1.268 . S
C161 O171 1.268 . S
C162 O168 1.268 . S
C162 O170 1.268 . S
C163 O169 1.268 . S
C163 O172 1.268 . S
O164 Sc154 2.105 . S
O164 C158 1.268 . S
O165 Sc155 2.105 . S
O165 C159 1.268 . S
O166 Sc156 2.105 . S
O166 C160 1.268 . S
O167 Sc154 2.105 . S
O167 C161 1.268 . S
O168 Sc156 2.105 . S
O168 C162 1.268 . S
O169 Sc155 2.105 . S
O169 C163 1.268 . S
O170 Sc154 2.105 . S
O170 C162 1.268 . S
O171 Sc155 2.105 . S
O171 C161 1.268 . S
O172 Sc156 2.105 . S
O172 C163 1.268 . S
O173 Sc154 2.105 . S
O173 C159 1.268 . S
O174 Sc156 2.105 . S
O174 C158 1.268 . S
O175 Sc155 2.105 . S
O175 C160 1.268 . S
H176 C188 0.930 . S
H177 C190 0.930 . S
H178 C191 0.930 . S
H179 C195 0.959 . S
H180 C195 0.959 . S
H181 C195 0.961 . S
H182 C196 0.960 . S
H183 C196 0.961 . S
H184 C196 0.959 . S
H185 C199 0.929 . S
H186 C200 0.931 . S
H187 C202 0.930 . S
C188 H176 0.930 . S
C188 C189 1.399 . S
C188 C193 1.399 . S
C189 C188 1.399 . S
C189 C190 1.376 . S
C190 H177 0.930 . S
C190 C189 1.376 . S
C190 C191 1.388 . S
C191 H178 0.930 . S
C191 C190 1.388 . S
C191 C192 1.390 . S
C192 C191 1.390 . S
C192 C193 1.394 . S
C192 C198 1.465 . S
C193 C188 1.399 . S
C193 C192 1.394 . S
C193 C194 1.516 . S
C194 C193 1.516 . S
C194 C195 1.502 . S
C194 C196 1.561 . S
C194 C197 1.526 . S
C195 H179 0.959 . S
C195 H180 0.959 . S
C195 H181 0.961 . S
C195 C194 1.502 . S
C196 H182 0.960 . S
C196 H183 0.961 . S
C196 H184 0.959 . S
C196 C194 1.561 . S
C197 C194 1.526 . S
C197 C198 1.396 . S
C197 C202 1.390 . S
C198 C192 1.465 . S
C198 C197 1.396 . S
C198 C199 1.399 . S
C199 H185 0.929 . S
C199 C198 1.399 . S
C199 C200 1.385 . S
C200 H186 0.931 . S
C200 C199 1.385 . S
C200 C201 1.389 . S
C201 C200 1.389 . S
C201 C202 1.387 . S
C202 H187 0.930 . S
C202 C197 1.390 . S
C202 C201 1.387 . S
H203 C215 0.930 . S
H204 C217 0.930 . S
H205 C218 0.930 . S
H206 C222 0.959 . S
H207 C222 0.959 . S
H208 C222 0.961 . S
H209 C223 0.960 . S
H210 C223 0.961 . S
H211 C223 0.959 . S
H212 C226 0.929 . S
H213 C227 0.931 . S
H214 C229 0.930 . S
C215 H203 0.930 . S
C215 C216 1.399 . S
C215 C220 1.399 . S
C216 C215 1.399 . S
C216 C217 1.376 . S
C217 H204 0.930 . S
C217 C216 1.376 . S
C217 C218 1.388 . S
C218 H205 0.930 . S
C218 C217 1.388 . S
C218 C219 1.390 . S
C219 C218 1.390 . S
C219 C220 1.394 . S
C219 C225 1.465 . S
C220 C215 1.399 . S
C220 C219 1.394 . S
C220 C221 1.516 . S
C221 C220 1.516 . S
C221 C222 1.502 . S
C221 C223 1.561 . S
C221 C224 1.526 . S
C222 H206 0.959 . S
C222 H207 0.959 . S
C222 H208 0.961 . S
C222 C221 1.502 . S
C223 H209 0.960 . S
C223 H210 0.961 . S
C223 H211 0.959 . S
C223 C221 1.561 . S
C224 C221 1.526 . S
C224 C225 1.396 . S
C224 C229 1.390 . S
C225 C219 1.465 . S
C225 C224 1.396 . S
C225 C226 1.399 . S
C226 H212 0.929 . S
C226 C225 1.399 . S
C226 C227 1.385 . S
C227 H213 0.931 . S
C227 C226 1.385 . S
C227 C228 1.389 . S
C228 C227 1.389 . S
C228 C229 1.387 . S
C229 H214 0.930 . S
C229 C224 1.390 . S
C229 C228 1.387 . S
H230 C242 0.930 . S
H231 C244 0.930 . S
H232 C245 0.930 . S
H233 C249 0.959 . S
H234 C249 0.959 1_655 S
H235 C249 0.961 . S
H236 C250 0.960 1_455 S
H237 C250 0.961 . S
H238 C250 0.959 . S
H239 C253 0.929 . S
H240 C254 0.931 . S
H241 C256 0.930 . S
C242 H230 0.930 . S
C242 C243 1.399 . S
C242 C247 1.399 . S
C243 C242 1.399 . S
C243 C244 1.376 . S
C244 H231 0.930 . S
C244 C243 1.376 . S
C244 C245 1.388 . S
C245 H232 0.930 . S
C245 C244 1.388 . S
C245 C246 1.390 . S
C246 C245 1.390 . S
C246 C247 1.394 . S
C246 C252 1.465 1_455 S
C247 C242 1.399 . S
C247 C246 1.394 . S
C247 C248 1.502 1_455 S
C248 C247 1.502 1_655 S
C248 C249 1.496 1_655 S
C248 C250 1.569 . S
C248 C251 1.539 . S
C249 H233 0.959 . S
C249 H234 0.959 1_455 S
C249 H235 0.961 . S
C249 C248 1.496 1_455 S
C250 H236 0.960 1_655 S
C250 H237 0.961 . S
C250 H238 0.959 . S
C250 C248 1.569 . S
C251 C248 1.539 . S
C251 C252 1.396 . S
C251 C256 1.390 . S
C252 C246 1.465 1_655 S
C252 C251 1.396 . S
C252 C253 1.399 . S
C253 H239 0.929 . S
C253 C252 1.399 . S
C253 C254 1.385 . S
C254 H240 0.931 . S
C254 C253 1.385 . S
C254 C255 1.389 . S
C255 C254 1.389 . S
C255 C256 1.387 . S
C256 H241 0.930 . S
C256 C251 1.390 . S
C256 C255 1.387 . S
H257 C269 0.930 . S
H258 C271 0.930 . S
H259 C272 0.930 . S
H260 C276 0.959 . S
H261 C276 0.959 1_655 S
H262 C276 0.961 . S
H263 C277 0.960 1_455 S
H264 C277 0.961 . S
H265 C277 0.959 . S
H266 C280 0.929 . S
H267 C281 0.931 . S
H268 C283 0.930 . S
C269 H257 0.930 . S
C269 C270 1.399 . S
C269 C274 1.399 . S
C270 C269 1.399 . S
C270 C271 1.376 . S
C271 H258 0.930 . S
C271 C270 1.376 . S
C271 C272 1.388 . S
C272 H259 0.930 . S
C272 C271 1.388 . S
C272 C273 1.390 . S
C273 C272 1.390 . S
C273 C274 1.394 . S
C273 C279 1.465 1_455 S
C274 C269 1.399 . S
C274 C273 1.394 . S
C274 C275 1.528 . S
C275 C274 1.528 . S
C275 C276 1.508 . S
C275 C277 1.555 1_455 S
C275 C278 1.513 1_455 S
C276 H260 0.959 . S
C276 H261 0.959 1_455 S
C276 H262 0.961 . S
C276 C275 1.508 . S
C277 H263 0.960 1_655 S
C277 H264 0.961 . S
C277 H265 0.959 . S
C277 C275 1.555 1_655 S
C278 C275 1.513 1_655 S
C278 C279 1.396 . S
C278 C283 1.390 . S
C279 C273 1.465 1_655 S
C279 C278 1.396 . S
C279 C280 1.399 . S
C280 H266 0.929 . S
C280 C279 1.399 . S
C280 C281 1.385 . S
C281 H267 0.931 . S
C281 C280 1.385 . S
C281 C282 1.389 . S
C282 C281 1.389 . S
C282 C283 1.387 . S
C283 H268 0.930 . S
C283 C278 1.390 . S
C283 C282 1.387 . S
H284 C296 0.930 . S
H285 C298 0.930 . S
H286 C299 0.930 . S
H287 C303 0.959 . S
H288 C303 0.959 . S
H289 C303 0.961 . S
H290 C304 0.960 . S
H291 C304 0.961 . S
H292 C304 0.959 1_554 S
H293 C307 0.929 . S
H294 C308 0.931 . S
H295 C310 0.930 . S
C296 H284 0.930 . S
C296 C297 1.399 . S
C296 C301 1.399 . S
C297 C296 1.399 . S
C297 C298 1.376 . S
C298 H285 0.930 . S
C298 C297 1.376 . S
C298 C299 1.388 . S
C299 H286 0.930 . S
C299 C298 1.388 . S
C299 C300 1.390 . S
C300 C299 1.390 . S
C300 C301 1.394 . S
C300 C306 1.465 . S
C301 C296 1.399 . S
C301 C300 1.394 . S
C301 C302 1.516 1_554 S
C302 C301 1.516 1_556 S
C302 C303 1.502 . S
C302 C304 1.561 . S
C302 C305 1.526 . S
C303 H287 0.959 . S
C303 H288 0.959 . S
C303 H289 0.961 . S
C303 C302 1.502 . S
C304 H290 0.960 . S
C304 H291 0.961 . S
C304 H292 0.959 1_556 S
C304 C302 1.561 . S
C305 C302 1.526 . S
C305 C306 1.396 1_556 S
C305 C310 1.390 . S
C306 C300 1.465 . S
C306 C305 1.396 1_554 S
C306 C307 1.399 . S
C307 H293 0.929 . S
C307 C306 1.399 . S
C307 C308 1.385 1_554 S
C308 H294 0.931 . S
C308 C307 1.385 1_556 S
C308 C309 1.389 . S
C309 C308 1.389 . S
C309 C310 1.387 . S
C310 H295 0.930 . S
C310 C305 1.390 . S
C310 C309 1.387 . S
H311 C323 0.930 . S
H312 C325 0.930 . S
H313 C326 0.930 . S
H314 C330 0.959 . S
H315 C330 0.959 . S
H316 C330 0.961 . S
H317 C331 0.960 . S
H318 C331 0.961 . S
H319 C331 0.959 . S
H320 C334 0.929 . S
H321 C335 0.931 . S
H322 C337 0.930 . S
C323 H311 0.930 . S
C323 C324 1.399 . S
C323 C328 1.399 . S
C324 C323 1.399 . S
C324 C325 1.376 . S
C325 H312 0.930 . S
C325 C324 1.376 . S
C325 C326 1.388 . S
C326 H313 0.930 . S
C326 C325 1.388 . S
C326 C327 1.390 . S
C327 C326 1.390 . S
C327 C328 1.394 . S
C327 C333 1.465 . S
C328 C323 1.399 . S
C328 C327 1.394 . S
C328 C329 1.516 . S
C329 C328 1.516 . S
C329 C330 1.502 . S
C329 C331 1.561 . S
C329 C332 1.526 . S
C330 H314 0.959 . S
C330 H315 0.959 . S
C330 H316 0.961 . S
C330 C329 1.502 . S
C331 H317 0.960 . S
C331 H318 0.961 . S
C331 H319 0.959 . S
C331 C329 1.561 . S
C332 C329 1.526 . S
C332 C333 1.396 . S
C332 C337 1.390 . S
C333 C327 1.465 . S
C333 C332 1.396 . S
C333 C334 1.399 . S
C334 H320 0.929 . S
C334 C333 1.399 . S
C334 C335 1.385 . S
C335 H321 0.931 . S
C335 C334 1.385 . S
C335 C336 1.389 . S
C336 C335 1.389 . S
C336 C337 1.387 . S
C337 H322 0.930 . S
C337 C332 1.390 . S
C337 C336 1.387 . S
H338 C350 0.930 . S
H339 C352 0.930 . S
H340 C353 0.930 . S
H341 C357 0.959 . S
H342 C357 0.959 . S
H343 C357 0.961 . S
H344 C358 0.960 . S
H345 C358 0.961 . S
H346 C358 0.959 . S
H347 C361 0.929 . S
H348 C362 0.931 . S
H349 C364 0.930 . S
C350 H338 0.930 . S
C350 C351 1.399 . S
C350 C355 1.399 . S
C351 C350 1.399 . S
C351 C352 1.376 . S
C352 H339 0.930 . S
C352 C351 1.376 . S
C352 C353 1.388 . S
C353 H340 0.930 . S
C353 C352 1.388 . S
C353 C354 1.390 . S
C354 C353 1.390 . S
C354 C355 1.394 . S
C354 C360 1.465 . S
C355 C350 1.399 . S
C355 C354 1.394 . S
C355 C356 1.516 1_554 S
C356 C355 1.516 1_556 S
C356 C357 1.502 . S
C356 C358 1.561 . S
C356 C359 1.526 . S
C357 H341 0.959 . S
C357 H342 0.959 . S
C357 H343 0.961 . S
C357 C356 1.502 . S
C358 H344 0.960 . S
C358 H345 0.961 . S
C358 H346 0.959 . S
C358 C356 1.561 . S
C359 C356 1.526 . S
C359 C360 1.396 1_556 S
C359 C364 1.390 . S
C360 C354 1.465 . S
C360 C359 1.396 1_554 S
C360 C361 1.399 . S
C361 H347 0.929 . S
C361 C360 1.399 . S
C361 C362 1.385 1_554 S
C362 H348 0.931 . S
C362 C361 1.385 1_556 S
C362 C363 1.389 . S
C363 C362 1.389 . S
C363 C364 1.387 . S
C364 H349 0.930 . S
C364 C359 1.390 . S
C364 C363 1.387 . S
H365 C377 0.930 . S
H366 C379 0.930 . S
H367 C380 0.930 . S
H368 C384 0.959 . S
H369 C384 0.959 . S
H370 C384 0.961 . S
H371 C385 0.960 . S
H372 C385 0.961 . S
H373 C385 0.959 . S
H374 C388 0.929 . S
H375 C389 0.931 . S
H376 C391 0.930 . S
C377 H365 0.930 . S
C377 C378 1.399 . S
C377 C382 1.399 . S
C378 C377 1.399 . S
C378 C379 1.376 . S
C379 H366 0.930 . S
C379 C378 1.376 . S
C379 C380 1.388 . S
C380 H367 0.930 . S
C380 C379 1.388 . S
C380 C381 1.390 . S
C381 C380 1.390 . S
C381 C382 1.394 . S
C381 C387 1.465 . S
C382 C377 1.399 . S
C382 C381 1.394 . S
C382 C383 1.516 . S
C383 C382 1.516 . S
C383 C384 1.502 . S
C383 C385 1.561 . S
C383 C386 1.526 . S
C384 H368 0.959 . S
C384 H369 0.959 . S
C384 H370 0.961 . S
C384 C383 1.502 . S
C385 H371 0.960 . S
C385 H372 0.961 . S
C385 H373 0.959 . S
C385 C383 1.561 . S
C386 C383 1.526 . S
C386 C387 1.396 . S
C386 C391 1.390 . S
C387 C381 1.465 . S
C387 C386 1.396 . S
C387 C388 1.399 . S
C388 H374 0.929 . S
C388 C387 1.399 . S
C388 C389 1.385 . S
C389 H375 0.931 . S
C389 C388 1.385 . S
C389 C390 1.389 . S
C390 C389 1.389 . S
C390 C391 1.387 . S
C391 H376 0.930 . S
C391 C386 1.390 . S
C391 C390 1.387 . S
H392 C404 0.930 . S
H393 C406 0.930 . S
H394 C407 0.930 . S
H395 C411 0.959 . S
H396 C411 0.959 . S
H397 C411 0.961 . S
H398 C412 0.960 . S
H399 C412 0.961 . S
H400 C412 0.959 . S
H401 C415 0.929 . S
H402 C416 0.931 . S
H403 C418 0.930 . S
C404 H392 0.930 . S
C404 C405 1.399 . S
C404 C409 1.399 . S
C405 C404 1.399 . S
C405 C406 1.376 . S
C406 H393 0.930 . S
C406 C405 1.376 . S
C406 C407 1.388 . S
C407 H394 0.930 . S
C407 C406 1.388 . S
C407 C408 1.390 . S
C408 C407 1.390 . S
C408 C409 1.394 . S
C408 C414 1.465 1_656 S
C409 C404 1.399 . S
C409 C408 1.394 . S
C409 C410 1.516 1_556 S
C410 C409 1.516 1_554 S
C410 C411 1.502 . S
C410 C412 1.561 1_554 S
C410 C413 1.526 1_655 S
C411 H395 0.959 . S
C411 H396 0.959 . S
C411 H397 0.961 . S
C411 C410 1.502 . S
C412 H398 0.960 . S
C412 H399 0.961 . S
C412 H400 0.959 . S
C412 C410 1.561 1_556 S
C413 C410 1.526 1_455 S
C413 C414 1.396 . S
C413 C418 1.390 . S
C414 C408 1.465 1_454 S
C414 C413 1.396 . S
C414 C415 1.399 . S
C415 H401 0.929 . S
C415 C414 1.399 . S
C415 C416 1.385 . S
C416 H402 0.931 . S
C416 C415 1.385 . S
C416 C417 1.389 . S
C417 C416 1.389 . S
C417 C418 1.387 . S
C418 H403 0.930 . S
C418 C413 1.390 . S
C418 C417 1.387 . S
H419 C431 0.930 . S
H420 C433 0.930 . S
H421 C434 0.930 . S
H422 C438 0.959 . S
H423 C438 0.959 . S
H424 C438 0.961 . S
H425 C439 0.960 . S
H426 C439 0.961 1_655 S
H427 C439 0.959 1_655 S
H428 C442 0.929 . S
H429 C443 0.931 . S
H430 C445 0.930 . S
C431 H419 0.930 . S
C431 C432 1.399 . S
C431 C436 1.399 . S
C432 C431 1.399 . S
C432 C433 1.376 . S
C433 H420 0.930 . S
C433 C432 1.376 . S
C433 C434 1.388 . S
C434 H421 0.930 . S
C434 C433 1.388 . S
C434 C435 1.390 . S
C435 C434 1.390 . S
C435 C436 1.394 . S
C435 C441 1.465 1_455 S
C436 C431 1.399 . S
C436 C435 1.394 . S
C436 C437 1.516 . S
C437 C436 1.516 . S
C437 C438 1.502 . S
C437 C439 1.561 . S
C437 C440 1.526 1_455 S
C438 H422 0.959 . S
C438 H423 0.959 . S
C438 H424 0.961 . S
C438 C437 1.502 . S
C439 H425 0.960 . S
C439 H426 0.961 1_455 S
C439 H427 0.959 1_455 S
C439 C437 1.561 . S
C440 C437 1.526 1_655 S
C440 C441 1.396 . S
C440 C445 1.390 . S
C441 C435 1.465 1_655 S
C441 C440 1.396 . S
C441 C442 1.399 . S
C442 H428 0.929 . S
C442 C441 1.399 . S
C442 C443 1.385 . S
C443 H429 0.931 . S
C443 C442 1.385 . S
C443 C444 1.389 . S
C444 C443 1.389 . S
C444 C445 1.387 . S
C445 H430 0.930 . S
C445 C440 1.390 . S
C445 C444 1.387 . S
H446 C458 0.930 . S
H447 C460 0.930 . S
H448 C461 0.930 . S
H449 C465 0.959 . S
H450 C465 0.959 . S
H451 C465 0.961 . S
H452 C466 0.960 1_554 S
H453 C466 0.960 . S
H454 C466 0.960 1_554 S
H455 C469 0.929 1_554 S
H456 C470 0.931 . S
H457 C472 0.959 . S
C458 H446 0.930 . S
C458 C459 1.399 . S
C458 C463 1.399 . S
C459 C458 1.399 . S
C459 C460 1.376 1_565 S
C460 H447 0.930 . S
C460 C459 1.376 1_545 S
C460 C461 1.388 . S
C461 H448 0.930 . S
C461 C460 1.388 . S
C461 C462 1.390 . S
C462 C461 1.390 . S
C462 C463 1.394 1_545 S
C462 C468 1.465 1_554 S
C463 C458 1.399 . S
C463 C462 1.394 1_565 S
C463 C464 1.516 1_554 S
C464 C463 1.516 1_556 S
C464 C465 1.502 . S
C464 C466 1.561 . S
C464 C467 1.526 . S
C465 H449 0.959 . S
C465 H450 0.959 . S
C465 H451 0.961 . S
C465 C464 1.502 . S
C466 H452 0.960 1_556 S
C466 H453 0.960 . S
C466 H454 0.960 1_556 S
C466 C464 1.561 . S
C467 C464 1.526 . S
C467 C468 1.396 1_565 S
C467 C472 1.395 . S
C468 C462 1.465 1_556 S
C468 C467 1.396 1_545 S
C468 C469 1.399 . S
C469 H455 0.929 1_556 S
C469 C468 1.399 . S
C469 C470 1.385 . S
C470 H456 0.931 . S
C470 C469 1.385 . S
C470 C471 1.389 . S
C471 C470 1.389 . S
C471 C472 1.353 1_545 S
C472 H457 0.959 . S
C472 C467 1.395 . S
C472 C471 1.353 1_565 S
H473 C485 0.930 . S
H474 C487 0.930 . S
H475 C488 0.930 . S
H476 C492 0.959 . S
H477 C492 0.959 . S
H478 C492 0.961 . S
H479 C493 0.960 . S
H480 C493 0.961 . S
H481 C493 0.959 . S
H482 C496 0.929 . S
H483 C497 0.931 . S
H484 C499 0.930 . S
C485 H473 0.930 . S
C485 C486 1.399 . S
C485 C490 1.399 . S
C486 C485 1.399 . S
C486 C487 1.376 . S
C487 H474 0.930 . S
C487 C486 1.376 . S
C487 C488 1.388 . S
C488 H475 0.930 . S
C488 C487 1.388 . S
C488 C489 1.390 . S
C489 C488 1.390 . S
C489 C490 1.394 . S
C489 C495 1.465 . S
C490 C485 1.399 . S
C490 C489 1.394 . S
C490 C491 1.516 1_565 S
C491 C490 1.516 1_545 S
C491 C492 1.502 . S
C491 C493 1.561 1_545 S
C491 C494 1.526 . S
C492 H476 0.959 . S
C492 H477 0.959 . S
C492 H478 0.961 . S
C492 C491 1.502 . S
C493 H479 0.960 . S
C493 H480 0.961 . S
C493 H481 0.959 . S
C493 C491 1.561 1_565 S
C494 C491 1.526 . S
C494 C495 1.396 1_545 S
C494 C499 1.390 . S
C495 C489 1.465 . S
C495 C494 1.396 1_565 S
C495 C496 1.399 . S
C496 H482 0.929 . S
C496 C495 1.399 . S
C496 C497 1.385 1_565 S
C497 H483 0.931 . S
C497 C496 1.385 1_545 S
C497 C498 1.389 . S
C498 C497 1.389 . S
C498 C499 1.387 . S
C499 H484 0.930 . S
C499 C494 1.390 . S
C499 C498 1.387 . S
H500 C512 0.930 . S
H501 C514 0.930 . S
H502 C515 0.930 . S
H503 C519 0.959 . S
H504 C519 0.959 . S
H505 C519 0.961 . S
H506 C520 0.960 . S
H507 C520 0.961 . S
H508 C520 0.959 . S
H509 C523 0.929 . S
H510 C524 0.931 . S
H511 C526 0.930 . S
C512 H500 0.930 . S
C512 C513 1.399 . S
C512 C517 1.399 . S
C513 C512 1.399 . S
C513 C514 1.376 . S
C514 H501 0.930 . S
C514 C513 1.376 . S
C514 C515 1.388 . S
C515 H502 0.930 . S
C515 C514 1.388 . S
C515 C516 1.390 . S
C516 C515 1.390 . S
C516 C517 1.394 . S
C516 C522 1.465 1_455 S
C517 C512 1.399 . S
C517 C516 1.394 . S
C517 C518 1.516 . S
C518 C517 1.516 . S
C518 C519 1.502 . S
C518 C520 1.561 1_455 S
C518 C521 1.526 1_455 S
C519 H503 0.959 . S
C519 H504 0.959 . S
C519 H505 0.961 . S
C519 C518 1.502 . S
C520 H506 0.960 . S
C520 H507 0.961 . S
C520 H508 0.959 . S
C520 C518 1.561 1_655 S
C521 C518 1.526 1_655 S
C521 C522 1.396 . S
C521 C526 1.390 . S
C522 C516 1.465 1_655 S
C522 C521 1.396 . S
C522 C523 1.399 . S
C523 H509 0.929 . S
C523 C522 1.399 . S
C523 C524 1.385 . S
C524 H510 0.931 . S
C524 C523 1.385 . S
C524 C525 1.389 . S
C525 C524 1.389 . S
C525 C526 1.387 . S
C526 H511 0.930 . S
C526 C521 1.390 . S
C526 C525 1.387 . S
H527 C539 0.930 . S
H528 C541 0.930 . S
H529 C542 0.930 . S
H530 C546 0.959 . S
H531 C546 0.959 . S
H532 C546 0.961 . S
H533 C547 0.960 . S
H534 C547 0.961 1_655 S
H535 C547 0.959 . S
H536 C550 0.929 . S
H537 C551 0.931 . S
H538 C553 0.930 . S
C539 H527 0.930 . S
C539 C540 1.399 . S
C539 C544 1.399 . S
C540 C539 1.399 . S
C540 C541 1.376 . S
C541 H528 0.930 . S
C541 C540 1.376 . S
C541 C542 1.388 . S
C542 H529 0.930 . S
C542 C541 1.388 . S
C542 C543 1.390 . S
C543 C542 1.390 . S
C543 C544 1.394 . S
C543 C549 1.465 1_455 S
C544 C539 1.399 . S
C544 C543 1.394 . S
C544 C545 1.516 1_455 S
C545 C544 1.516 1_655 S
C545 C546 1.502 . S
C545 C547 1.561 1_655 S
C545 C548 1.526 . S
C546 H530 0.959 . S
C546 H531 0.959 . S
C546 H532 0.961 . S
C546 C545 1.502 . S
C547 H533 0.960 . S
C547 H534 0.961 1_455 S
C547 H535 0.959 . S
C547 C545 1.561 1_455 S
C548 C545 1.526 . S
C548 C549 1.396 . S
C548 C553 1.390 . S
C549 C543 1.465 1_655 S
C549 C548 1.396 . S
C549 C550 1.399 . S
C550 H536 0.929 . S
C550 C549 1.399 . S
C550 C551 1.385 . S
C551 H537 0.931 . S
C551 C550 1.385 . S
C551 C552 1.389 . S
C552 C551 1.389 . S
C552 C553 1.387 . S
C553 H538 0.930 . S
C553 C548 1.390 . S
C553 C552 1.387 . S
H554 C566 0.930 . S
H555 C568 0.930 . S
H556 C569 0.930 . S
H557 C573 0.959 . S
H558 C573 0.959 . S
H559 C573 0.961 . S
H560 C574 0.960 . S
H561 C574 0.961 . S
H562 C574 0.959 . S
H563 C577 0.929 . S
H564 C578 0.931 . S
H565 C580 0.930 . S
C566 H554 0.930 . S
C566 C567 1.399 . S
C566 C571 1.399 . S
C567 C566 1.399 . S
C567 C568 1.376 . S
C568 H555 0.930 . S
C568 C567 1.376 . S
C568 C569 1.388 . S
C569 H556 0.930 . S
C569 C568 1.388 . S
C569 C570 1.390 . S
C570 C569 1.390 . S
C570 C571 1.394 . S
C570 C576 1.465 . S
C571 C566 1.399 . S
C571 C570 1.394 . S
C571 C572 1.516 . S
C572 C571 1.516 . S
C572 C573 1.502 . S
C572 C574 1.561 . S
C572 C575 1.526 . S
C573 H557 0.959 . S
C573 H558 0.959 . S
C573 H559 0.961 . S
C573 C572 1.502 . S
C574 H560 0.960 . S
C574 H561 0.961 . S
C574 H562 0.959 . S
C574 C572 1.561 . S
C575 C572 1.526 . S
C575 C576 1.396 . S
C575 C580 1.390 . S
C576 C570 1.465 . S
C576 C575 1.396 . S
C576 C577 1.399 . S
C577 H563 0.929 . S
C577 C576 1.399 . S
C577 C578 1.385 . S
C578 H564 0.931 . S
C578 C577 1.385 . S
C578 C579 1.389 . S
C579 C578 1.389 . S
C579 C580 1.387 . S
C580 H565 0.930 . S
C580 C575 1.390 . S
C580 C579 1.387 . S
H581 C593 0.930 . S
H582 C595 0.930 . S
H583 C596 0.930 . S
H584 C600 0.959 . S
H585 C600 0.959 . S
H586 C600 0.961 . S
H587 C601 0.960 . S
H588 C601 0.961 . S
H589 C601 0.959 . S
H590 C604 0.929 . S
H591 C605 0.931 . S
H592 C607 0.930 . S
C593 H581 0.930 . S
C593 C594 1.399 . S
C593 C598 1.399 . S
C594 C593 1.399 . S
C594 C595 1.376 . S
C595 H582 0.930 . S
C595 C594 1.376 . S
C595 C596 1.388 . S
C596 H583 0.930 . S
C596 C595 1.388 . S
C596 C597 1.390 . S
C597 C596 1.390 . S
C597 C598 1.394 . S
C597 C603 1.465 . S
C598 C593 1.399 . S
C598 C597 1.394 . S
C598 C599 1.516 . S
C599 C598 1.516 . S
C599 C600 1.502 . S
C599 C601 1.561 . S
C599 C602 1.526 . S
C600 H584 0.959 . S
C600 H585 0.959 . S
C600 H586 0.961 . S
C600 C599 1.502 . S
C601 H587 0.960 . S
C601 H588 0.961 . S
C601 H589 0.959 . S
C601 C599 1.561 . S
C602 C599 1.526 . S
C602 C603 1.396 . S
C602 C607 1.390 . S
C603 C597 1.465 . S
C603 C602 1.396 . S
C603 C604 1.399 . S
C604 H590 0.929 . S
C604 C603 1.399 . S
C604 C605 1.385 . S
C605 H591 0.931 . S
C605 C604 1.385 . S
C605 C606 1.389 . S
C606 C605 1.389 . S
C606 C607 1.387 . S
C607 H592 0.930 . S
C607 C602 1.390 . S
C607 C606 1.387 . S
H608 C620 0.930 . S
H609 C622 0.930 1_554 S
H610 C623 0.930 . S
H611 C627 0.959 . S
H612 C627 0.959 . S
H613 C627 0.961 . S
H614 C628 0.960 . S
H615 C628 0.961 . S
H616 C628 0.959 . S
H617 C631 0.929 . S
H618 C632 0.931 . S
H619 C634 0.930 . S
C620 H608 0.930 . S
C620 C621 1.399 . S
C620 C625 1.399 . S
C621 C620 1.399 . S
C621 C622 1.376 . S
C622 H609 0.930 1_556 S
C622 C621 1.376 . S
C622 C623 1.388 . S
C623 H610 0.930 . S
C623 C622 1.388 . S
C623 C624 1.390 . S
C624 C623 1.390 . S
C624 C625 1.394 . S
C624 C630 1.465 . S
C625 C620 1.399 . S
C625 C624 1.394 . S
C625 C626 1.516 . S
C626 C625 1.516 . S
C626 C627 1.502 . S
C626 C628 1.561 . S
C626 C629 1.526 . S
C627 H611 0.959 . S
C627 H612 0.959 . S
C627 H613 0.961 . S
C627 C626 1.502 . S
C628 H614 0.960 . S
C628 H615 0.961 . S
C628 H616 0.959 . S
C628 C626 1.561 . S
C629 C626 1.526 . S
C629 C630 1.396 . S
C629 C634 1.390 . S
C630 C624 1.465 . S
C630 C629 1.396 . S
C630 C631 1.399 . S
C631 H617 0.929 . S
C631 C630 1.399 . S
C631 C632 1.385 . S
C632 H618 0.931 . S
C632 C631 1.385 . S
C632 C633 1.389 . S
C633 C632 1.389 . S
C633 C634 1.387 . S
C634 H619 0.930 . S
C634 C629 1.390 . S
C634 C633 1.387 . S
H635 C647 0.930 . S
H636 C649 0.930 . S
H637 C650 0.930 . S
H638 C654 0.959 . S
H639 C654 0.959 . S
H640 C654 0.961 . S
H641 C655 0.960 . S
H642 C655 0.961 . S
H643 C655 0.959 . S
H644 C658 0.929 . S
H645 C659 0.931 . S
H646 C661 0.930 . S
C647 H635 0.930 . S
C647 C648 1.399 . S
C647 C652 1.399 . S
C648 C647 1.399 . S
C648 C649 1.376 . S
C649 H636 0.930 . S
C649 C648 1.376 . S
C649 C650 1.388 . S
C650 H637 0.930 . S
C650 C649 1.388 . S
C650 C651 1.390 . S
C651 C650 1.390 . S
C651 C652 1.394 . S
C651 C657 1.465 . S
C652 C647 1.399 . S
C652 C651 1.394 . S
C652 C653 1.516 . S
C653 C652 1.516 . S
C653 C654 1.502 . S
C653 C655 1.561 . S
C653 C656 1.526 . S
C654 H638 0.959 . S
C654 H639 0.959 . S
C654 H640 0.961 . S
C654 C653 1.502 . S
C655 H641 0.960 . S
C655 H642 0.961 . S
C655 H643 0.959 . S
C655 C653 1.561 . S
C656 C653 1.526 . S
C656 C657 1.396 . S
C656 C661 1.390 . S
C657 C651 1.465 . S
C657 C656 1.396 . S
C657 C658 1.399 . S
C658 H644 0.929 . S
C658 C657 1.399 . S
C658 C659 1.385 . S
C659 H645 0.931 . S
C659 C658 1.385 . S
C659 C660 1.389 . S
C660 C659 1.389 . S
C660 C661 1.387 . S
C661 H646 0.930 . S
C661 C656 1.390 . S
C661 C660 1.387 . S
H662 C674 0.930 . S
H663 C676 0.930 . S
H664 C677 0.930 . S
H665 C681 0.959 . S
H666 C681 0.959 . S
H667 C681 0.961 . S
H668 C682 0.960 . S
H669 C682 0.961 . S
H670 C682 0.959 . S
H671 C685 0.929 . S
H672 C686 0.931 1_556 S
H673 C688 0.930 . S
C674 H662 0.930 . S
C674 C675 1.399 . S
C674 C679 1.399 . S
C675 C674 1.399 . S
C675 C676 1.376 . S
C676 H663 0.930 . S
C676 C675 1.376 . S
C676 C677 1.388 . S
C677 H664 0.930 . S
C677 C676 1.388 . S
C677 C678 1.390 . S
C678 C677 1.390 . S
C678 C679 1.394 . S
C678 C684 1.465 . S
C679 C674 1.399 . S
C679 C678 1.394 . S
C679 C680 1.516 . S
C680 C679 1.516 . S
C680 C681 1.502 . S
C680 C682 1.561 . S
C680 C683 1.526 . S
C681 H665 0.959 . S
C681 H666 0.959 . S
C681 H667 0.961 . S
C681 C680 1.502 . S
C682 H668 0.960 . S
C682 H669 0.961 . S
C682 H670 0.959 . S
C682 C680 1.561 . S
C683 C680 1.526 . S
C683 C684 1.396 . S
C683 C688 1.390 . S
C684 C678 1.465 . S
C684 C683 1.396 . S
C684 C685 1.399 . S
C685 H671 0.929 . S
C685 C684 1.399 . S
C685 C686 1.385 . S
C686 H672 0.931 1_554 S
C686 C685 1.385 . S
C686 C687 1.389 . S
C687 C686 1.389 . S
C687 C688 1.387 . S
C688 H673 0.930 . S
C688 C683 1.390 . S
C688 C687 1.387 . S
H689 C701 0.930 . S
H690 C703 0.930 . S
H691 C704 0.930 . S
H692 C708 0.959 . S
H693 C708 0.959 . S
H694 C708 0.961 . S
H695 C709 0.960 . S
H696 C709 0.961 . S
H697 C709 0.959 . S
H698 C712 0.929 . S
H699 C713 0.931 . S
H700 C715 0.930 . S
C701 H689 0.930 . S
C701 C702 1.399 . S
C701 C706 1.399 . S
C702 C701 1.399 . S
C702 C703 1.376 . S
C703 H690 0.930 . S
C703 C702 1.376 . S
C703 C704 1.388 . S
C704 H691 0.930 . S
C704 C703 1.388 . S
C704 C705 1.390 . S
C705 C704 1.390 . S
C705 C706 1.394 . S
C705 C711 1.465 . S
C706 C701 1.399 . S
C706 C705 1.394 . S
C706 C707 1.516 . S
C707 C706 1.516 . S
C707 C708 1.502 . S
C707 C709 1.561 . S
C707 C710 1.526 . S
C708 H692 0.959 . S
C708 H693 0.959 . S
C708 H694 0.961 . S
C708 C707 1.502 . S
C709 H695 0.960 . S
C709 H696 0.961 . S
C709 H697 0.959 . S
C709 C707 1.561 . S
C710 C707 1.526 . S
C710 C711 1.396 . S
C710 C715 1.390 . S
C711 C705 1.465 . S
C711 C710 1.396 . S
C711 C712 1.399 . S
C712 H698 0.929 . S
C712 C711 1.399 . S
C712 C713 1.385 . S
C713 H699 0.931 . S
C713 C712 1.385 . S
C713 C714 1.389 . S
C714 C713 1.389 . S
C714 C715 1.387 . S
C715 H700 0.930 . S
C715 C710 1.390 . S
C715 C714 1.387 . S
H716 C728 0.930 . S
H717 C730 0.930 . S
H718 C731 0.930 1_545 S
H719 C735 0.959 . S
H720 C735 0.959 . S
H721 C735 0.961 . S
H722 C736 0.960 . S
H723 C736 0.961 . S
H724 C736 0.959 . S
H725 C739 0.929 . S
H726 C740 0.931 . S
H727 C742 0.930 1_565 S
C728 H716 0.930 . S
C728 C729 1.399 . S
C728 C733 1.399 . S
C729 C728 1.399 . S
C729 C730 1.376 1_556 S
C730 H717 0.930 . S
C730 C729 1.376 1_554 S
C730 C731 1.388 1_554 S
C731 H718 0.930 1_565 S
C731 C730 1.388 1_556 S
C731 C732 1.390 . S
C732 C731 1.390 . S
C732 C733 1.394 . S
C732 C738 1.465 1_565 S
C733 C728 1.399 . S
C733 C732 1.394 . S
C733 C734 1.516 . S
C734 C733 1.516 . S
C734 C735 1.502 . S
C734 C736 1.561 . S
C734 C737 1.526 . S
C735 H719 0.959 . S
C735 H720 0.959 . S
C735 H721 0.961 . S
C735 C734 1.502 . S
C736 H722 0.960 . S
C736 H723 0.961 . S
C736 H724 0.959 . S
C736 C734 1.561 . S
C737 C734 1.526 . S
C737 C738 1.396 1_565 S
C737 C742 1.390 1_565 S
C738 C732 1.465 1_545 S
C738 C737 1.396 1_545 S
C738 C739 1.399 . S
C739 H725 0.929 . S
C739 C738 1.399 . S
C739 C740 1.385 . S
C740 H726 0.931 . S
C740 C739 1.385 . S
C740 C741 1.389 . S
C741 C740 1.389 . S
C741 C742 1.387 . S
C742 H727 0.930 1_545 S
C742 C737 1.390 1_545 S
C742 C741 1.387 . S
H743 C755 0.930 . S
H744 C757 0.930 . S
H745 C758 0.930 1_565 S
H746 C762 0.959 . S
H747 C762 0.959 1_565 S
H748 C762 0.961 . S
H749 C763 0.960 . S
H750 C763 0.961 . S
H751 C763 0.959 . S
H752 C766 0.929 . S
H753 C767 0.931 . S
H754 C769 0.930 . S
C755 H743 0.930 . S
C755 C756 1.399 . S
C755 C760 1.399 . S
C756 C755 1.399 . S
C756 C757 1.376 . S
C757 H744 0.930 . S
C757 C756 1.376 . S
C757 C758 1.388 . S
C758 H745 0.930 1_545 S
C758 C757 1.388 . S
C758 C759 1.390 1_545 S
C759 C758 1.390 1_565 S
C759 C760 1.394 1_565 S
C759 C765 1.465 . S
C760 C755 1.399 . S
C760 C759 1.394 1_545 S
C760 C761 1.516 1_545 S
C761 C760 1.516 1_565 S
C761 C762 1.502 1_565 S
C761 C763 1.561 . S
C761 C764 1.526 . S
C762 H746 0.959 . S
C762 H747 0.959 1_545 S
C762 H748 0.961 . S
C762 C761 1.502 1_545 S
C763 H749 0.960 . S
C763 H750 0.961 . S
C763 H751 0.959 . S
C763 C761 1.561 . S
C764 C761 1.526 . S
C764 C765 1.396 . S
C764 C769 1.390 . S
C765 C759 1.465 . S
C765 C764 1.396 . S
C765 C766 1.399 . S
C766 H752 0.929 . S
C766 C765 1.399 . S
C766 C767 1.385 . S
C767 H753 0.931 . S
C767 C766 1.385 . S
C767 C768 1.389 . S
C768 C767 1.389 . S
C768 C769 1.387 . S
C769 H754 0.930 . S
C769 C764 1.390 . S
C769 C768 1.387 . S
H770 C782 0.930 1_545 S
H771 C784 0.930 . S
H772 C785 0.930 . S
H773 C789 0.959 . S
H774 C789 0.959 . S
H775 C789 0.961 . S
H776 C790 0.960 . S
H777 C790 0.961 . S
H778 C790 0.959 . S
H779 C793 0.929 1_565 S
H780 C794 0.931 1_556 S
H781 C796 0.930 . S
C782 H770 0.930 1_565 S
C782 C783 1.399 . S
C782 C787 1.399 1_565 S
C783 C782 1.399 . S
C783 C784 1.376 . S
C784 H771 0.930 . S
C784 C783 1.376 . S
C784 C785 1.388 . S
C785 H772 0.930 . S
C785 C784 1.388 . S
C785 C786 1.390 . S
C786 C785 1.390 . S
C786 C787 1.394 1_565 S
C786 C792 1.465 1_565 S
C787 C782 1.399 1_545 S
C787 C786 1.394 1_545 S
C787 C788 1.516 . S
C788 C787 1.516 . S
C788 C789 1.502 . S
C788 C790 1.561 . S
C788 C791 1.526 . S
C789 H773 0.959 . S
C789 H774 0.959 . S
C789 H775 0.961 . S
C789 C788 1.502 . S
C790 H776 0.960 . S
C790 H777 0.961 . S
C790 H778 0.959 . S
C790 C788 1.561 . S
C791 C788 1.526 . S
C791 C792 1.396 . S
C791 C796 1.390 . S
C792 C786 1.465 1_545 S
C792 C791 1.396 . S
C792 C793 1.399 . S
C793 H779 0.929 1_545 S
C793 C792 1.399 . S
C793 C794 1.385 . S
C794 H780 0.931 1_554 S
C794 C793 1.385 . S
C794 C795 1.389 . S
C795 C794 1.389 . S
C795 C796 1.387 . S
C796 H781 0.930 . S
C796 C791 1.390 . S
C796 C795 1.387 . S
H797 C809 0.930 . S
H798 C811 0.930 . S
H799 C812 0.930 . S
H800 C816 0.959 . S
H801 C816 0.959 . S
H802 C816 0.961 . S
H803 C817 0.960 . S
H804 C817 0.961 . S
H805 C817 0.959 . S
H806 C820 0.929 . S
H807 C821 0.931 . S
H808 C823 0.930 . S
C809 H797 0.930 . S
C809 C810 1.399 . S
C809 C814 1.399 . S
C810 C809 1.399 . S
C810 C811 1.376 . S
C811 H798 0.930 . S
C811 C810 1.376 . S
C811 C812 1.388 . S
C812 H799 0.930 . S
C812 C811 1.388 . S
C812 C813 1.390 . S
C813 C812 1.390 . S
C813 C814 1.394 . S
C813 C819 1.465 . S
C814 C809 1.399 . S
C814 C813 1.394 . S
C814 C815 1.516 . S
C815 C814 1.516 . S
C815 C816 1.502 . S
C815 C817 1.561 1_545 S
C815 C818 1.526 1_545 S
C816 H800 0.959 . S
C816 H801 0.959 . S
C816 H802 0.961 . S
C816 C815 1.502 . S
C817 H803 0.960 . S
C817 H804 0.961 . S
C817 H805 0.959 . S
C817 C815 1.561 1_565 S
C818 C815 1.526 1_565 S
C818 C819 1.396 1_565 S
C818 C823 1.390 . S
C819 C813 1.465 . S
C819 C818 1.396 1_545 S
C819 C820 1.399 1_545 S
C820 H806 0.929 . S
C820 C819 1.399 1_565 S
C820 C821 1.385 . S
C821 H807 0.931 . S
C821 C820 1.385 . S
C821 C822 1.389 . S
C822 C821 1.389 . S
C822 C823 1.387 . S
C823 H808 0.930 . S
C823 C818 1.390 . S
C823 C822 1.387 . S
C189 C27 1.384 . S
C201 C9 1.429 . S
C216 C51 1.417 . S
C228 C72 1.420 . S
C243 C115 1.405 . S
C255 C97 1.385 . S
C270 C139 1.431 . S
C282 C160 1.403 . S
C297 C8 1.601 . S
C309 C140 1.595 . S
C324 C26 1.593 . S
C336 C158 1.590 . S
C351 C96 1.615 . S
C363 C52 1.575 . S
C378 C70 1.578 . S
C390 C114 1.614 . S
C405 C50 0.829 . S
C417 C5 0.811 . S
C432 C73 0.797 . S
C444 C31 0.841 . S
C459 C93 0.885 . S
C471 C138 0.730 . S
C486 C119 0.820 . S
C498 C161 0.771 . S
C513 C4 1.822 . S
C525 C30 1.817 . S
C540 C74 1.813 . S
C552 C48 1.822 . S
C567 C118 1.822 . S
C579 C92 1.819 . S
C594 C162 1.811 . S
C606 C136 1.801 . S
C621 C7 1.164 1_556 S
C633 C75 1.330 . S
C648 C28 1.286 . S
C660 C49 1.291 . S
C675 C29 1.330 . S
C687 C53 1.164 1_554 S
C702 C6 1.331 . S
C714 C71 1.161 . S
C729 C95 1.165 1_556 S
C741 C163 1.320 . S
C756 C137 1.286 . S
C768 C116 1.270 . S
C783 C117 1.329 . S
C795 C141 1.168 1_554 S
C810 C159 1.174 . S
C822 C94 1.326 . S
