# Generated by pormake.
# Topology lcy, (6)-cn, num edge types: 1
# Building blocks:
#     Node 0, Type 0, BuildingBlock: VOLQOD_clean_sbu_1, # of connection points: 6
#     Node 1, Type 0, BuildingBlock: VOLQOD_clean_sbu_1, # of connection points: 6
#     Node 2, Type 0, BuildingBlock: VOLQOD_clean_sbu_1, # of connection points: 6
#     Node 3, Type 0, BuildingBlock: VOLQOD_clean_sbu_1, # of connection points: 6
#     Edge 4, Type (0, 0), BuildingBlock: FUNLAD_clean_linker_1, # of connection points: 2
#     Edge 5, Type (0, 0), BuildingBlock: FUNLAD_clean_linker_1, # of connection points: 2
#     Edge 6, Type (0, 0), BuildingBlock: FUNLAD_clean_linker_1, # of connection points: 2
#     Edge 7, Type (0, 0), BuildingBlock: FUNLAD_clean_linker_1, # of connection points: 2
#     Edge 8, Type (0, 0), BuildingBlock: FUNLAD_clean_linker_1, # of connection points: 2
#     Edge 9, Type (0, 0), BuildingBlock: FUNLAD_clean_linker_1, # of connection points: 2
#     Edge 10, Type (0, 0), BuildingBlock: FUNLAD_clean_linker_1, # of connection points: 2
#     Edge 11, Type (0, 0), BuildingBlock: FUNLAD_clean_linker_1, # of connection points: 2
#     Edge 12, Type (0, 0), BuildingBlock: FUNLAD_clean_linker_1, # of connection points: 2
#     Edge 13, Type (0, 0), BuildingBlock: FUNLAD_clean_linker_1, # of connection points: 2
#     Edge 14, Type (0, 0), BuildingBlock: FUNLAD_clean_linker_1, # of connection points: 2
#     Edge 15, Type (0, 0), BuildingBlock: FUNLAD_clean_linker_1, # of connection points: 2
# Relax obj value: 0.278
# Max RMSD: 0.253
# Mean RMSD: 0.248
data_MOF--net-lcy--node1-VOLQOD_clean_sbu_1--edge1-FUNLAD_clean_linker_1
_symmetry_space_group_name_H-M    P1
_symmetry_Int_Tables_number       1
_symmetry_cell_setting            triclinic
loop_
_symmetry_equiv_pos_as_xyz
'x, y, z'
_cell_length_a     27.781641
_cell_length_b     28.035418
_cell_length_c     27.933948
_cell_angle_alpha  90.809408
_cell_angle_beta   88.767106
_cell_angle_gamma 92.535769
loop_
_atom_site_label
_atom_site_type_symbol
_atom_site_fract_x
_atom_site_fract_y
_atom_site_fract_z
_atom_type_partial_charge
O0 O 0.41656 0.30604 0.45063 0.0
Zn1 Zn 0.36632 0.31469 0.39885 0.0
O2 O 0.37548 0.37692 0.36887 0.0
Zn3 Zn 0.31429 0.40638 0.36099 0.0
Zn4 Zn 0.41486 0.41675 0.40997 0.0
Zn5 Zn 0.40884 0.37148 0.30768 0.0
O6 O 0.30334 0.4227 0.2912 0.0
O7 O 0.36513 0.38847 0.25449 0.0
O8 O 0.29612 0.30292 0.42109 0.0
O9 O 0.26132 0.36033 0.38166 0.0
O10 O 0.30675 0.46182 0.40794 0.0
O11 O 0.37419 0.45893 0.44902 0.0
O12 O 0.46222 0.45652 0.37264 0.0
O13 O 0.38228 0.2641 0.35057 0.0
O14 O 0.46598 0.41844 0.30253 0.0
O15 O 0.42922 0.30412 0.29766 0.0
C16 C 0.44978 0.33492 0.46599 0.0
C17 C 0.32598 0.41033 0.25302 0.0
C18 C 0.33285 0.47536 0.44303 0.0
C19 C 0.25854 0.32331 0.40752 0.0
C20 C 0.4809 0.45136 0.33108 0.0
C21 C 0.41214 0.26511 0.31539 0.0
O22 O 0.45298 0.37813 0.453 0.0
O23 O 0.9291 0.04013 0.67606 0.0
Zn24 Zn 0.88125 0.09307 0.67662 0.0
O25 O 0.85446 0.1023 0.61418 0.0
Zn26 Zn 0.85678 0.16941 0.59633 0.0
Zn27 Zn 0.89264 0.06726 0.56924 0.0
Zn28 Zn 0.78875 0.07675 0.61222 0.0
O29 O 0.78967 0.19143 0.57746 0.0
O30 O 0.74441 0.12946 0.60405 0.0
O31 O 0.91007 0.15559 0.70202 0.0
O32 O 0.88009 0.20831 0.65288 0.0
O33 O 0.91044 0.18249 0.5463 0.0
O34 O 0.94111 0.11078 0.53728 0.0
O35 O 0.85139 0.03789 0.51955 0.0
O36 O 0.82843 0.06979 0.72137 0.0
O37 O 0.778 0.03559 0.55296 0.0
O38 O 0.76826 0.04521 0.67422 0.0
C39 C 0.94042 0.01064 0.64296 0.0
C40 C 0.74842 0.17122 0.58705 0.0
C41 C 0.94273 0.15536 0.52955 0.0
C42 C 0.90353 0.1985 0.69 0.0
C43 C 0.80679 0.02599 0.5184 0.0
C44 C 0.78708 0.04948 0.71538 0.0
O45 O 0.92671 0.01534 0.60031 0.0
O46 O 0.07538 0.68173 0.77589 0.0
Zn47 Zn 0.07093 0.62769 0.8234 0.0
O48 O 0.12949 0.62145 0.85852 0.0
Zn49 Zn 0.15245 0.55742 0.85244 0.0
Zn50 Zn 0.17598 0.6664 0.8312 0.0
Zn51 Zn 0.12039 0.63579 0.9259 0.0
O52 O 0.17226 0.53224 0.91764 0.0
O53 O 0.12672 0.57722 0.96491 0.0
O54 O 0.04885 0.56445 0.79438 0.0
O55 O 0.09904 0.51432 0.82627 0.0
O56 O 0.20551 0.55645 0.8015 0.0
O57 O 0.21844 0.63343 0.78445 0.0
O58 O 0.21639 0.69587 0.88163 0.0
O59 O 0.01958 0.64851 0.86871 0.0
O60 O 0.17448 0.68078 0.94893 0.0
O61 O 0.05457 0.66115 0.93908 0.0
C62 C 0.10494 0.71783 0.7748 0.0
C63 C 0.1536 0.54202 0.95868 0.0
C64 C 0.2266 0.58968 0.77707 0.0
C65 C 0.06207 0.52226 0.80176 0.0
C66 C 0.21095 0.69966 0.9267 0.0
C67 C 0.01801 0.66193 0.9123 0.0
O68 O 0.14405 0.71848 0.79757 0.0
O69 O 0.60612 0.93225 0.2254 0.0
Zn70 Zn 0.64107 0.87565 0.19884 0.0
O71 O 0.63021 0.86866 0.13138 0.0
Zn72 Zn 0.6166 0.8028 0.11425 0.0
Zn73 Zn 0.57663 0.90422 0.11365 0.0
Zn74 Zn 0.68669 0.89457 0.09876 0.0
O75 O 0.67067 0.77726 0.07373 0.0
O76 O 0.72247 0.84027 0.07097 0.0
O77 O 0.62297 0.81565 0.2347 0.0
O78 O 0.61362 0.76443 0.17379 0.0
O79 O 0.55013 0.79298 0.08591 0.0
O80 O 0.51846 0.86104 0.11014 0.0
O81 O 0.58848 0.93419 0.04892 0.0
O82 O 0.71065 0.89091 0.20922 0.0
O83 O 0.66837 0.93388 0.04371 0.0
O84 O 0.73049 0.93213 0.14383 0.0
C85 C 0.57778 0.96026 0.20584 0.0
C86 C 0.71144 0.79656 0.06171 0.0
C87 C 0.51387 0.81856 0.09406 0.0
C88 C 0.61526 0.77343 0.21852 0.0
C89 C 0.62806 0.94477 0.02701 0.0
C90 C 0.73878 0.91991 0.18646 0.0
O91 O 0.56458 0.95424 0.16276 0.0
H92 H 0.1411 0.51857 0.03273 0.0
C93 C 0.16547 0.51568 0.00191 0.0
H94 H 0.23427 0.49464 0.9784 0.0
H95 H 0.26635 0.53126 0.21028 0.0
H96 H 0.25984 0.61474 0.19127 0.0
H97 H 0.23675 0.63879 0.11066 0.0
H98 H 0.22055 0.57963 0.04856 0.0
C99 C 0.20843 0.49677 0.00802 0.0
C100 C 0.22322 0.48231 0.05667 0.0
C101 C 0.23253 0.51752 0.09284 0.0
C102 C 0.24584 0.50368 0.13941 0.0
C103 C 0.25566 0.53965 0.17446 0.0
C104 C 0.25217 0.58778 0.16403 0.0
C105 C 0.23913 0.6013 0.11869 0.0
C106 C 0.22963 0.56682 0.08337 0.0
H107 H 0.33068 0.41416 0.17428 0.0
C108 C 0.30786 0.4218 0.20533 0.0
H109 H 0.24223 0.44994 0.22926 0.0
H110 H 0.20896 0.40628 -0.0043 0.0
H111 H 0.21408 0.32251 0.01506 0.0
H112 H 0.23411 0.29826 0.09656 0.0
H113 H 0.2496 0.35749 0.15905 0.0
C114 C 0.26505 0.44093 0.19867 0.0
C115 C 0.24997 0.45472 0.14992 0.0
C116 C 0.2402 0.41951 0.11393 0.0
C117 C 0.22756 0.43342 0.06712 0.0
C118 C 0.21849 0.39761 0.03182 0.0
C119 C 0.22123 0.34943 0.04247 0.0
C120 C 0.23259 0.33578 0.08834 0.0
C121 C 0.24178 0.37021 0.12382 0.0
H122 H 0.80382 0.92582 0.22838 0.0
C123 C 0.77475 0.94625 0.21489 0.0
H124 H 0.72781 0.00155 0.22971 0.0
H125 H 0.74353 0.92732 0.44275 0.0
H126 H 0.66702 0.89003 0.41945 0.0
H127 H 0.63651 0.9003 0.33805 0.0
H128 H 0.68327 0.9465 0.2794 0.0
C129 C 0.76 0.984 0.24033 0.0
C130 C 0.77332 0.98854 0.2913 0.0
C131 C 0.74343 0.96517 0.32637 0.0
C132 C 0.75918 0.96229 0.37414 0.0
C133 C 0.73158 0.93356 0.40688 0.0
C134 C 0.68786 0.91143 0.3938 0.0
C135 C 0.67082 0.91698 0.34796 0.0
C136 C 0.6982 0.94334 0.31449 0.0
H137 H 0.75006 0.01468 0.46536 0.0
C138 C 0.78729 0.00774 0.47301 0.0
H139 H 0.85355 0.98313 0.44712 0.0
H140 H 0.83746 0.03706 0.23263 0.0
H141 H 0.91143 0.07952 0.2566 0.0
H142 H 0.93531 0.08197 0.34118 0.0
H143 H 0.88631 0.04146 0.40197 0.0
C144 C 0.81641 0.98978 0.43885 0.0
C145 C 0.80228 0.9873 0.38787 0.0
C146 C 0.83127 0.01238 0.35301 0.0
C147 C 0.81712 0.01208 0.30443 0.0
C148 C 0.84683 0.03635 0.27002 0.0
C149 C 0.88918 0.06098 0.28332 0.0
C150 C 0.90263 0.06231 0.33093 0.0
C151 C 0.87414 0.03857 0.36552 0.0
H152 H 0.28302 0.60513 0.72239 0.0
C153 C 0.25683 0.57802 0.73522 0.0
H154 H 0.2191 0.51288 0.719 0.0
H155 H 0.29551 0.59666 0.50763 0.0
H156 H 0.2396 0.65952 0.52282 0.0
H157 H 0.19458 0.66426 0.59972 0.0
H158 H 0.20599 0.60699 0.66214 0.0
C159 C 0.24625 0.53969 0.70757 0.0
C160 C 0.26921 0.53417 0.65944 0.0
C161 C 0.26014 0.56675 0.62248 0.0
C162 C 0.28405 0.56256 0.57723 0.0
C163 C 0.27676 0.59714 0.54195 0.0
C164 C 0.24498 0.63354 0.5503 0.0
C165 C 0.21978 0.63633 0.59365 0.0
C166 C 0.22703 0.60339 0.62939 0.0
H167 H 0.27245 0.50565 0.48389 0.0
C168 C 0.31142 0.50341 0.48236 0.0
H169 H 0.37663 0.51429 0.51903 0.0
H170 H 0.29312 0.46537 0.72214 0.0
H171 H 0.34506 0.39961 0.70532 0.0
H172 H 0.38293 0.3894 0.62537 0.0
H173 H 0.36957 0.44495 0.56204 0.0
C174 C 0.33775 0.51733 0.52034 0.0
C175 C 0.31471 0.52429 0.5682 0.0
C176 C 0.32259 0.49088 0.60471 0.0
C177 C 0.30003 0.49608 0.65047 0.0
C178 C 0.30898 0.46274 0.68653 0.0
C179 C 0.33873 0.42482 0.67739 0.0
C180 C 0.36009 0.41912 0.63241 0.0
C181 C 0.35222 0.45153 0.59637 0.0
H182 H 0.59283 0.96601 0.96074 0.0
C183 C 0.62712 0.96494 0.97864 0.0
H184 H 0.70271 0.97405 0.97223 0.0
H185 H 0.73577 0.92854 0.75867 0.0
H186 H 0.75881 0.85441 0.79422 0.0
H187 H 0.74046 0.83792 0.87941 0.0
H188 H 0.69924 0.89534 0.92949 0.0
C189 C 0.66833 0.97657 0.95478 0.0
C190 C 0.67035 0.98311 0.90225 0.0
C191 C 0.69336 0.94851 0.87336 0.0
C192 C 0.70391 0.95787 0.82443 0.0
C193 C 0.72758 0.92323 0.79633 0.0
C194 C 0.7407 0.88051 0.8162 0.0
C195 C 0.73038 0.87123 0.86414 0.0
C196 C 0.70689 0.90462 0.89254 0.0
H197 H 0.78151 0.02944 0.79086 0.0
C198 C 0.76134 0.03069 0.75795 0.0
H199 H 0.69243 0.0203 0.72724 0.0
H200 H 0.62198 0.05512 0.94679 0.0
H201 H 0.59603 0.12722 0.90984 0.0
H202 H 0.61271 0.14226 0.82411 0.0
H203 H 0.65578 0.08521 0.77484 0.0
C204 C 0.71437 0.01732 0.7587 0.0
C205 C 0.69162 0.0018 0.8047 0.0
C206 C 0.66448 0.03426 0.83224 0.0
C207 C 0.65424 0.0252 0.88144 0.0
C208 C 0.62982 0.05969 0.90902 0.0
C209 C 0.6149 0.10133 0.88828 0.0
C210 C 0.62435 0.10983 0.84002 0.0
C211 C 0.6491 0.07692 0.81218 0.0
H212 H 0.00939 0.14984 0.4868 0.0
C213 C 0.98591 0.1752 0.50415 0.0
H214 H 0.97978 0.24652 0.52775 0.0
H215 H 0.20485 0.285 0.54051 0.0
H216 H 0.17829 0.29324 0.62336 0.0
H217 H 0.09382 0.27393 0.6475 0.0
H218 H 0.03522 0.24723 0.5889 0.0
C219 C 0.00111 0.2212 0.50767 0.0
C220 C 0.05131 0.23574 0.49224 0.0
C221 C 0.08538 0.25053 0.52721 0.0
C222 C 0.13441 0.26048 0.51351 0.0
C223 C 0.16735 0.27628 0.549 0.0
C224 C 0.1526 0.28116 0.59673 0.0
C225 C 0.10505 0.2703 0.61031 0.0
C226 C 0.07172 0.25507 0.57619 0.0
H227 H 0.17968 0.32512 0.40912 0.0
C228 C 0.20972 0.30565 0.42209 0.0
H229 H 0.22951 0.24901 0.46558 0.0
H230 H 0.99446 0.21428 0.41533 0.0
H231 H 0.0216 0.20219 0.3331 0.0
H232 H 0.10785 0.21163 0.31071 0.0
H233 H 0.16725 0.23422 0.37017 0.0
C234 C 0.20032 0.26806 0.45047 0.0
C235 C 0.14953 0.2548 0.46504 0.0
C236 C 0.11559 0.23919 0.43021 0.0
C237 C 0.06623 0.23115 0.44357 0.0
C238 C 0.03268 0.21871 0.40752 0.0
C239 C 0.04772 0.21201 0.36011 0.0
C240 C 0.09625 0.21752 0.34748 0.0
C241 C 0.12993 0.23089 0.38194 0.0
H242 H 0.11625 0.79341 0.75599 0.0
C243 C 0.09163 0.7624 0.75215 0.0
H244 H 0.02268 0.73739 0.73058 0.0
H245 H 0.92026 0.93044 0.76136 0.0
H246 H 0.87858 0.87871 0.81884 0.0
H247 H 0.90707 0.79841 0.83435 0.0
H248 H 0.97671 0.76902 0.79174 0.0
C249 C 0.04837 0.76767 0.73281 0.0
C250 C 0.03141 0.81614 0.72262 0.0
C251 C 0.99119 0.83325 0.74883 0.0
C252 C 0.97567 0.88014 0.74101 0.0
C253 C 0.93436 0.89559 0.76649 0.0
C254 C 0.90996 0.86621 0.79963 0.0
C255 C 0.92593 0.82097 0.80827 0.0
C256 C 0.96599 0.80451 0.78335 0.0
H257 H 0.97097 0.94156 0.62505 0.0
C258 C 0.96669 0.96772 0.65379 0.0
H259 H 0.97701 0.98312 0.72707 0.0
H260 H 0.10561 0.7927 0.66166 0.0
H261 H 0.15069 0.8462 0.60799 0.0
H262 H 0.12984 0.93049 0.60168 0.0
H263 H 0.06291 0.96131 0.64795 0.0
C264 C 0.98241 0.95811 0.69757 0.0
C265 C 0.00109 0.91034 0.70788 0.0
C266 C 0.04229 0.89378 0.68288 0.0
C267 C 0.05632 0.84608 0.68889 0.0
C268 C 0.09503 0.82932 0.66044 0.0
C269 C 0.12098 0.85954 0.62918 0.0
C270 C 0.10909 0.90692 0.62545 0.0
C271 C 0.07029 0.92404 0.65192 0.0
H272 H 0.27841 0.74221 0.93153 0.0
C273 C 0.25076 0.72302 0.9528 0.0
H274 H 0.23289 0.69379 0.02051 0.0
H275 H 0.45355 0.67785 0.06776 0.0
H276 H 0.42329 0.59541 0.07102 0.0
H277 H 0.33994 0.57311 0.04802 0.0
H278 H 0.28621 0.63333 0.02278 0.0
C279 C 0.25833 0.71567 -0.00071 0.0
C280 C 0.30626 0.72973 0.01889 0.0
C281 C 0.33776 0.69385 0.03188 0.0
C282 C 0.38636 0.70641 0.0431 0.0
C283 C 0.41658 0.67016 0.0578 0.0
C284 C 0.39968 0.62268 0.05984 0.0
C285 C 0.35275 0.61013 0.04699 0.0
C286 C 0.32213 0.64511 0.03287 0.0
H287 H 0.43551 0.8169 0.104 0.0
C288 C 0.46487 0.79992 0.08494 0.0
H289 H 0.48358 0.75014 0.03111 0.0
H290 H 0.25307 0.80791 0.00473 0.0
H291 H 0.28428 0.88958 0.9946 0.0
H292 H 0.37143 0.90951 7e-05 0.0
H293 H 0.42729 0.84859 0.01764 0.0
C294 C 0.45478 0.76737 0.05072 0.0
C295 C 0.40389 0.75444 0.03898 0.0
C296 C 0.37252 0.79018 0.02481 0.0
C297 C 0.32308 0.77813 0.01758 0.0
C298 C 0.29149 0.81496 0.00798 0.0
C299 C 0.30886 0.86194 0.00235 0.0
C300 C 0.35785 0.87319 0.0057 0.0
C301 C 0.38949 0.83787 0.01651 0.0
H302 H 0.40722 0.18731 0.30445 0.0
C303 C 0.42942 0.2195 0.29746 0.0
H304 H 0.49659 0.24776 0.27132 0.0
H305 H 0.51013 0.01282 0.3112 0.0
H306 H 0.50084 0.034 0.39517 0.0
H307 H 0.49007 0.11766 0.42043 0.0
H308 H 0.48681 0.18013 0.36155 0.0
C309 C 0.47361 0.21603 0.27784 0.0
C310 C 0.49168 0.16873 0.26397 0.0
C311 C 0.49645 0.13322 0.29907 0.0
C312 C 0.50598 0.08572 0.28472 0.0
C313 C 0.50593 0.05004 0.32016 0.0
C314 C 0.50016 0.06164 0.36855 0.0
C315 C 0.49384 0.10865 0.38276 0.0
C316 C 0.49173 0.14412 0.34858 0.0
H317 H 0.5858 0.01776 0.2602 0.0
C318 C 0.56284 0.00299 0.23214 0.0
H319 H 0.50119 0.01045 0.19087 0.0
H320 H 0.48947 0.22989 0.18846 0.0
H321 H 0.50732 0.21102 0.10519 0.0
H322 H 0.53026 0.13012 0.08064 0.0
H323 H 0.53479 0.06757 0.139 0.0
C324 C 0.5237 0.02559 0.21913 0.0
C325 C 0.51441 0.0749 0.23558 0.0
C326 C 0.51341 0.11143 0.20094 0.0
C327 C 0.50147 0.15831 0.21514 0.0
C328 C 0.49899 0.19376 0.17971 0.0
C329 C 0.50917 0.18344 0.13174 0.0
C330 C 0.522 0.13789 0.11792 0.0
C331 C 0.52421 0.1022 0.15189 0.0
H332 H 0.67018 0.17693 0.59291 0.0
C333 C 0.70276 0.19405 0.57754 0.0
H334 H 0.72958 0.24636 0.52913 0.0
H335 H 0.5336 0.23845 0.41541 0.0
H336 H 0.5889 0.20497 0.35731 0.0
H337 H 0.672 0.18842 0.37916 0.0
H338 H 0.70045 0.20588 0.45919 0.0
C339 C 0.69816 0.23054 0.54769 0.0
C340 C 0.64883 0.24398 0.53389 0.0
C341 C 0.63254 0.23334 0.48699 0.0
C342 C 0.58417 0.24187 0.47472 0.0
C343 C 0.56945 0.23178 0.42721 0.0
C344 C 0.60092 0.21266 0.39333 0.0
C345 C 0.64772 0.20341 0.40561 0.0
C346 C 0.66358 0.21363 0.45175 0.0
H347 H 0.51457 0.34561 0.509 0.0
C348 C 0.48981 0.31826 0.49441 0.0
H349 H 0.47953 0.24509 0.47781 0.0
H350 H 0.66933 0.27304 0.62539 0.0
H351 H 0.6128 0.30233 0.68515 0.0
H352 H 0.52736 0.31075 0.66592 0.0
H353 H 0.49813 0.29079 0.58659 0.0
C354 C 0.50221 0.27251 0.49509 0.0
C355 C 0.55179 0.26053 0.50954 0.0
C356 C 0.56788 0.27039 0.55671 0.0
C357 C 0.61667 0.2633 0.5685 0.0
C358 C 0.63227 0.27594 0.61509 0.0
C359 C 0.60027 0.29308 0.64964 0.0
C360 C 0.55221 0.298 0.63876 0.0
C361 C 0.53599 0.28678 0.59295 0.0
H362 H 0.0038 0.48962 0.75812 0.0
C363 C 0.03361 0.48185 0.78096 0.0
H364 H 0.0717 0.42752 0.81341 0.0
H365 H 0.88824 0.28368 0.79354 0.0
H366 H 0.8824 0.30359 0.87813 0.0
H367 H 0.93666 0.36583 0.9137 0.0
H368 H 0.99681 0.40883 0.86468 0.0
C369 C 0.04319 0.43624 0.78942 0.0
C370 C 0.01319 0.39646 0.76846 0.0
C371 C 0.97927 0.37072 0.79787 0.0
C372 C 0.94876 0.33411 0.77757 0.0
C373 C 0.91349 0.31066 0.80732 0.0
C374 C 0.90947 0.32201 0.85591 0.0
C375 C 0.93995 0.35711 0.87592 0.0
C376 C 0.97437 0.38146 0.84739 0.0
H377 H 0.95112 0.22875 0.74612 0.0
C378 C 0.92713 0.23775 0.71768 0.0
H379 H 0.89974 0.29299 0.677 0.0
H380 H 0.07716 0.43666 0.70308 0.0
H381 H 0.08342 0.41678 0.61846 0.0
H382 H 0.03018 0.35375 0.58289 0.0
H383 H 0.97114 0.30951 0.63181 0.0
C384 C 0.92248 0.28373 0.70634 0.0
C385 C 0.95327 0.32254 0.72811 0.0
C386 C 0.98748 0.34817 0.69876 0.0
C387 C 0.01772 0.38497 0.71905 0.0
C388 C 0.05252 0.4091 0.68929 0.0
C389 C 0.05669 0.39789 0.64069 0.0
C390 C 0.02675 0.36237 0.62068 0.0
C391 C 0.9928 0.33739 0.64922 0.0
H392 H 0.94859 0.69442 0.90412 0.0
C393 C 0.97292 0.68117 0.93037 0.0
H394 H 0.98422 0.6688 0.00351 0.0
H395 H 0.84751 0.83078 0.07497 0.0
H396 H 0.92345 0.85484 0.11075 0.0
H397 H 0.99685 0.81115 0.09227 0.0
H398 H 0.99441 0.74258 0.0386 0.0
C399 C 0.96027 0.68194 0.97691 0.0
C400 C 0.915 0.70436 0.99265 0.0
C401 C 0.91737 0.74478 0.02362 0.0
C402 C 0.87541 0.77082 0.03305 0.0
C403 C 0.87843 0.81032 0.06532 0.0
C404 C 0.92184 0.82448 0.08636 0.0
C405 C 0.96313 0.79985 0.07603 0.0
C406 C 0.96117 0.76047 0.04507 0.0
H407 H 0.74487 0.72807 0.04659 0.0
C408 C 0.74864 0.76638 0.04112 0.0
H409 H 0.79228 0.82399 0.01487 0.0
H410 H 0.89508 0.62146 0.94224 0.0
H411 H 0.82031 0.59935 0.9025 0.0
H412 H 0.75096 0.65134 0.9085 0.0
H413 H 0.75539 0.72451 0.95577 0.0
C414 C 0.78857 0.7856 0.01987 0.0
C415 C 0.83161 0.75716 0.01027 0.0
C416 C 0.82918 0.7164 0.97963 0.0
C417 C 0.8703 0.68859 0.97289 0.0
C418 C 0.86577 0.64549 0.94596 0.0
C419 C 0.82296 0.63217 0.92334 0.0
C420 C 0.78386 0.66129 0.92695 0.0
C421 C 0.78674 0.703 0.95463 0.0
H422 H 0.60612 0.74203 0.29051 0.0
C423 C 0.60642 0.73413 0.25229 0.0
H424 H 0.59786 0.68088 0.19839 0.0
H425 H 0.61982 0.49855 0.31861 0.0
H426 H 0.6966 0.50184 0.27503 0.0
H427 H 0.72265 0.57322 0.22891 0.0
H428 H 0.67217 0.64164 0.22603 0.0
C429 C 0.5963 0.68946 0.23645 0.0
C430 C 0.58338 0.64974 0.26927 0.0
C431 C 0.61365 0.61042 0.27089 0.0
C432 C 0.5987 0.56931 0.29729 0.0
C433 C 0.62936 0.53037 0.29841 0.0
C434 C 0.67355 0.53192 0.27379 0.0
C435 C 0.68822 0.57211 0.24784 0.0
C436 C 0.65882 0.61105 0.24634 0.0
H437 H 0.5242 0.48906 0.2753 0.0
C438 C 0.51646 0.4877 0.31361 0.0
H439 H 0.52537 0.52224 0.3808 0.0
H440 H 0.51517 0.71832 0.27205 0.0
H441 H 0.44032 0.71561 0.31773 0.0
H442 H 0.41651 0.64572 0.36686 0.0
H443 H 0.46736 0.57797 0.36994 0.0
C444 C 0.53373 0.52272 0.34262 0.0
C445 C 0.55365 0.56782 0.32187 0.0
C446 C 0.52463 0.60816 0.32264 0.0
C447 C 0.539 0.64893 0.29545 0.0
C448 C 0.50734 0.68716 0.29361 0.0
C449 C 0.46385 0.68593 0.31938 0.0
C450 C 0.4504 0.64657 0.34695 0.0
C451 C 0.48007 0.60792 0.34843 0.0
loop_
_geom_bond_atom_site_label_1
_geom_bond_atom_site_label_2
_geom_bond_distance
_geom_bond_site_symmetry_2
_ccdc_geom_bond_type
O0 Zn1 1.953 . S
O0 C16 1.225 . S
Zn1 O0 1.953 . S
Zn1 O2 1.949 . S
Zn1 O8 1.919 . S
Zn1 O13 1.924 . S
O2 Zn1 1.949 . S
O2 Zn3 1.923 . S
O2 Zn4 1.950 . S
O2 Zn5 1.945 . S
Zn3 O2 1.923 . S
Zn3 O6 1.933 . S
Zn3 O9 1.941 . S
Zn3 O10 1.965 . S
Zn4 O2 1.950 . S
Zn4 O11 1.938 . S
Zn4 O12 1.906 . S
Zn4 O22 1.953 . S
Zn5 O2 1.945 . S
Zn5 O7 1.932 . S
Zn5 O14 1.977 . S
Zn5 O15 1.910 . S
O6 Zn3 1.933 . S
O6 C17 1.226 . S
O7 Zn5 1.932 . S
O7 C17 1.307 . S
O8 Zn1 1.919 . S
O8 C19 1.253 . S
O9 Zn3 1.941 . S
O9 C19 1.283 . S
O10 Zn3 1.965 . S
O10 C18 1.303 . S
O11 Zn4 1.938 . S
O11 C18 1.247 . S
O12 Zn4 1.906 . S
O12 C20 1.304 . S
O13 Zn1 1.924 . S
O13 C21 1.311 . S
O14 Zn5 1.977 . S
O14 C20 1.272 . S
O15 Zn5 1.910 . S
O15 C21 1.231 . S
C16 O0 1.225 . S
C16 O22 1.298 . S
C17 O6 1.226 . S
C17 O7 1.307 . S
C18 O10 1.303 . S
C18 O11 1.247 . S
C19 O8 1.253 . S
C19 O9 1.283 . S
C20 O12 1.304 . S
C20 O14 1.272 . S
C21 O13 1.311 . S
C21 O15 1.231 . S
O22 Zn4 1.953 . S
O22 C16 1.298 . S
O23 Zn24 1.953 . S
O23 C39 1.225 . S
Zn24 O23 1.953 . S
Zn24 O25 1.949 . S
Zn24 O31 1.919 . S
Zn24 O36 1.924 . S
O25 Zn24 1.949 . S
O25 Zn26 1.923 . S
O25 Zn27 1.950 . S
O25 Zn28 1.945 . S
Zn26 O25 1.923 . S
Zn26 O29 1.933 . S
Zn26 O32 1.941 . S
Zn26 O33 1.965 . S
Zn27 O25 1.950 . S
Zn27 O34 1.938 . S
Zn27 O35 1.906 . S
Zn27 O45 1.953 . S
Zn28 O25 1.945 . S
Zn28 O30 1.932 . S
Zn28 O37 1.977 . S
Zn28 O38 1.910 . S
O29 Zn26 1.933 . S
O29 C40 1.226 . S
O30 Zn28 1.932 . S
O30 C40 1.307 . S
O31 Zn24 1.919 . S
O31 C42 1.253 . S
O32 Zn26 1.941 . S
O32 C42 1.283 . S
O33 Zn26 1.965 . S
O33 C41 1.303 . S
O34 Zn27 1.938 . S
O34 C41 1.247 . S
O35 Zn27 1.906 . S
O35 C43 1.304 . S
O36 Zn24 1.924 . S
O36 C44 1.311 . S
O37 Zn28 1.977 . S
O37 C43 1.272 . S
O38 Zn28 1.910 . S
O38 C44 1.231 . S
C39 O23 1.225 . S
C39 O45 1.298 . S
C40 O29 1.226 . S
C40 O30 1.307 . S
C41 O33 1.303 . S
C41 O34 1.247 . S
C42 O31 1.253 . S
C42 O32 1.283 . S
C43 O35 1.304 . S
C43 O37 1.272 . S
C44 O36 1.311 . S
C44 O38 1.231 . S
O45 Zn27 1.953 . S
O45 C39 1.298 . S
O46 Zn47 1.953 . S
O46 C62 1.225 . S
Zn47 O46 1.953 . S
Zn47 O48 1.949 . S
Zn47 O54 1.919 . S
Zn47 O59 1.924 . S
O48 Zn47 1.949 . S
O48 Zn49 1.923 . S
O48 Zn50 1.950 . S
O48 Zn51 1.945 . S
Zn49 O48 1.923 . S
Zn49 O52 1.933 . S
Zn49 O55 1.941 . S
Zn49 O56 1.965 . S
Zn50 O48 1.950 . S
Zn50 O57 1.938 . S
Zn50 O58 1.906 . S
Zn50 O68 1.953 . S
Zn51 O48 1.945 . S
Zn51 O53 1.932 . S
Zn51 O60 1.977 . S
Zn51 O61 1.910 . S
O52 Zn49 1.933 . S
O52 C63 1.226 . S
O53 Zn51 1.932 . S
O53 C63 1.307 . S
O54 Zn47 1.919 . S
O54 C65 1.253 . S
O55 Zn49 1.941 . S
O55 C65 1.283 . S
O56 Zn49 1.965 . S
O56 C64 1.303 . S
O57 Zn50 1.938 . S
O57 C64 1.247 . S
O58 Zn50 1.906 . S
O58 C66 1.304 . S
O59 Zn47 1.924 . S
O59 C67 1.311 . S
O60 Zn51 1.977 . S
O60 C66 1.272 . S
O61 Zn51 1.910 . S
O61 C67 1.231 . S
C62 O46 1.225 . S
C62 O68 1.298 . S
C63 O52 1.226 . S
C63 O53 1.307 . S
C64 O56 1.303 . S
C64 O57 1.247 . S
C65 O54 1.253 . S
C65 O55 1.283 . S
C66 O58 1.304 . S
C66 O60 1.272 . S
C67 O59 1.311 . S
C67 O61 1.231 . S
O68 Zn50 1.953 . S
O68 C62 1.298 . S
O69 Zn70 1.953 . S
O69 C85 1.225 . S
Zn70 O69 1.953 . S
Zn70 O71 1.949 . S
Zn70 O77 1.919 . S
Zn70 O82 1.924 . S
O71 Zn70 1.949 . S
O71 Zn72 1.923 . S
O71 Zn73 1.950 . S
O71 Zn74 1.945 . S
Zn72 O71 1.923 . S
Zn72 O75 1.933 . S
Zn72 O78 1.941 . S
Zn72 O79 1.965 . S
Zn73 O71 1.950 . S
Zn73 O80 1.938 . S
Zn73 O81 1.906 . S
Zn73 O91 1.953 . S
Zn74 O71 1.945 . S
Zn74 O76 1.932 . S
Zn74 O83 1.977 . S
Zn74 O84 1.910 . S
O75 Zn72 1.933 . S
O75 C86 1.226 . S
O76 Zn74 1.932 . S
O76 C86 1.307 . S
O77 Zn70 1.919 . S
O77 C88 1.253 . S
O78 Zn72 1.941 . S
O78 C88 1.283 . S
O79 Zn72 1.965 . S
O79 C87 1.303 . S
O80 Zn73 1.938 . S
O80 C87 1.247 . S
O81 Zn73 1.906 . S
O81 C89 1.304 . S
O82 Zn70 1.924 . S
O82 C90 1.311 . S
O83 Zn74 1.977 . S
O83 C89 1.272 . S
O84 Zn74 1.910 . S
O84 C90 1.231 . S
C85 O69 1.225 . S
C85 O91 1.298 . S
C86 O75 1.226 . S
C86 O76 1.307 . S
C87 O79 1.303 . S
C87 O80 1.247 . S
C88 O77 1.253 . S
C88 O78 1.283 . S
C89 O81 1.304 . S
C89 O83 1.272 . S
C90 O82 1.311 . S
C90 O84 1.231 . S
O91 Zn73 1.953 . S
O91 C85 1.298 . S
H92 C93 0.951 . S
C93 H92 0.951 . S
C93 C99 1.265 . S
H94 C99 0.950 . S
H95 C103 0.949 . S
H96 C104 0.950 . S
H97 C105 0.951 . S
H98 C106 0.951 . S
C99 C93 1.265 . S
C99 H94 0.950 . S
C99 C100 1.478 . S
C100 C99 1.478 . S
C100 C101 1.397 . S
C100 C117 1.394 . S
C101 C100 1.397 . S
C101 C102 1.438 . S
C101 C106 1.429 . S
C102 C101 1.438 . S
C102 C103 1.428 . S
C102 C115 1.394 . S
C103 H95 0.949 . S
C103 C102 1.428 . S
C103 C104 1.345 . S
C104 H96 0.950 . S
C104 C103 1.345 . S
C104 C105 1.424 . S
C105 H97 0.951 . S
C105 C104 1.424 . S
C105 C106 1.347 . S
C106 H98 0.951 . S
C106 C101 1.429 . S
C106 C105 1.347 . S
H107 C108 0.951 . S
C108 H107 0.951 . S
C108 C114 1.265 . S
H109 C114 0.950 . S
H110 C118 0.949 . S
H111 C119 0.950 . S
H112 C120 0.951 . S
H113 C121 0.951 . S
C114 C108 1.265 . S
C114 H109 0.950 . S
C114 C115 1.478 . S
C115 C102 1.394 . S
C115 C114 1.478 . S
C115 C116 1.397 . S
C116 C115 1.397 . S
C116 C117 1.438 . S
C116 C121 1.429 . S
C117 C100 1.394 . S
C117 C116 1.438 . S
C117 C118 1.428 . S
C118 H110 0.949 . S
C118 C117 1.428 . S
C118 C119 1.345 . S
C119 H111 0.950 . S
C119 C118 1.345 . S
C119 C120 1.424 . S
C120 H112 0.951 . S
C120 C119 1.424 . S
C120 C121 1.347 . S
C121 H113 0.951 . S
C121 C116 1.429 . S
C121 C120 1.347 . S
H122 C123 0.951 . S
C123 H122 0.951 . S
C123 C129 1.265 . S
H124 C129 0.950 . S
H125 C133 0.949 . S
H126 C134 0.950 . S
H127 C135 0.951 . S
H128 C136 0.951 . S
C129 C123 1.265 . S
C129 H124 0.950 . S
C129 C130 1.478 . S
C130 C129 1.478 . S
C130 C131 1.397 . S
C130 C147 1.394 . S
C131 C130 1.397 . S
C131 C132 1.438 . S
C131 C136 1.429 . S
C132 C131 1.438 . S
C132 C133 1.428 . S
C132 C145 1.394 . S
C133 H125 0.949 . S
C133 C132 1.428 . S
C133 C134 1.345 . S
C134 H126 0.950 . S
C134 C133 1.345 . S
C134 C135 1.424 . S
C135 H127 0.951 . S
C135 C134 1.424 . S
C135 C136 1.347 . S
C136 H128 0.951 . S
C136 C131 1.429 . S
C136 C135 1.347 . S
H137 C138 0.951 . S
C138 H137 0.951 . S
C138 C144 1.265 . S
H139 C144 0.950 1_565 S
H140 C148 0.949 . S
H141 C149 0.950 . S
H142 C150 0.951 . S
H143 C151 0.951 . S
C144 C138 1.265 . S
C144 H139 0.950 1_545 S
C144 C145 1.478 1_545 S
C145 C132 1.394 . S
C145 C144 1.478 1_565 S
C145 C146 1.397 1_565 S
C146 C145 1.397 1_545 S
C146 C147 1.438 1_545 S
C146 C151 1.429 . S
C147 C130 1.394 . S
C147 C146 1.438 1_565 S
C147 C148 1.428 1_565 S
C148 H140 0.949 . S
C148 C147 1.428 1_545 S
C148 C149 1.345 . S
C149 H141 0.950 . S
C149 C148 1.345 . S
C149 C150 1.424 . S
C150 H142 0.951 . S
C150 C149 1.424 . S
C150 C151 1.347 . S
C151 H143 0.951 . S
C151 C146 1.429 . S
C151 C150 1.347 . S
H152 C153 0.951 . S
C153 H152 0.951 . S
C153 C159 1.265 . S
H154 C159 0.950 . S
H155 C163 0.949 . S
H156 C164 0.950 . S
H157 C165 0.951 . S
H158 C166 0.951 . S
C159 C153 1.265 . S
C159 H154 0.950 . S
C159 C160 1.478 . S
C160 C159 1.478 . S
C160 C161 1.397 . S
C160 C177 1.394 . S
C161 C160 1.397 . S
C161 C162 1.438 . S
C161 C166 1.429 . S
C162 C161 1.438 . S
C162 C163 1.428 . S
C162 C175 1.394 . S
C163 H155 0.949 . S
C163 C162 1.428 . S
C163 C164 1.345 . S
C164 H156 0.950 . S
C164 C163 1.345 . S
C164 C165 1.424 . S
C165 H157 0.951 . S
C165 C164 1.424 . S
C165 C166 1.347 . S
C166 H158 0.951 . S
C166 C161 1.429 . S
C166 C165 1.347 . S
H167 C168 0.951 . S
C168 H167 0.951 . S
C168 C174 1.265 . S
H169 C174 0.950 . S
H170 C178 0.949 . S
H171 C179 0.950 . S
H172 C180 0.951 . S
H173 C181 0.951 . S
C174 C168 1.265 . S
C174 H169 0.950 . S
C174 C175 1.478 . S
C175 C162 1.394 . S
C175 C174 1.478 . S
C175 C176 1.397 . S
C176 C175 1.397 . S
C176 C177 1.438 . S
C176 C181 1.429 . S
C177 C160 1.394 . S
C177 C176 1.438 . S
C177 C178 1.428 . S
C178 H170 0.949 . S
C178 C177 1.428 . S
C178 C179 1.345 . S
C179 H171 0.950 . S
C179 C178 1.345 . S
C179 C180 1.424 . S
C180 H172 0.951 . S
C180 C179 1.424 . S
C180 C181 1.347 . S
C181 H173 0.951 . S
C181 C176 1.429 . S
C181 C180 1.347 . S
H182 C183 0.951 . S
C183 H182 0.951 . S
C183 C189 1.265 . S
H184 C189 0.950 . S
H185 C193 0.949 . S
H186 C194 0.950 . S
H187 C195 0.951 . S
H188 C196 0.951 . S
C189 C183 1.265 . S
C189 H184 0.950 . S
C189 C190 1.478 . S
C190 C189 1.478 . S
C190 C191 1.397 . S
C190 C207 1.394 1_565 S
C191 C190 1.397 . S
C191 C192 1.438 . S
C191 C196 1.429 . S
C192 C191 1.438 . S
C192 C193 1.428 . S
C192 C205 1.394 1_565 S
C193 H185 0.949 . S
C193 C192 1.428 . S
C193 C194 1.345 . S
C194 H186 0.950 . S
C194 C193 1.345 . S
C194 C195 1.424 . S
C195 H187 0.951 . S
C195 C194 1.424 . S
C195 C196 1.347 . S
C196 H188 0.951 . S
C196 C191 1.429 . S
C196 C195 1.347 . S
H197 C198 0.951 . S
C198 H197 0.951 . S
C198 C204 1.265 . S
H199 C204 0.950 . S
H200 C208 0.949 . S
H201 C209 0.950 . S
H202 C210 0.951 . S
H203 C211 0.951 . S
C204 C198 1.265 . S
C204 H199 0.950 . S
C204 C205 1.478 . S
C205 C192 1.394 1_545 S
C205 C204 1.478 . S
C205 C206 1.397 . S
C206 C205 1.397 . S
C206 C207 1.438 . S
C206 C211 1.429 . S
C207 C190 1.394 1_545 S
C207 C206 1.438 . S
C207 C208 1.428 . S
C208 H200 0.949 . S
C208 C207 1.428 . S
C208 C209 1.345 . S
C209 H201 0.950 . S
C209 C208 1.345 . S
C209 C210 1.424 . S
C210 H202 0.951 . S
C210 C209 1.424 . S
C210 C211 1.347 . S
C211 H203 0.951 . S
C211 C206 1.429 . S
C211 C210 1.347 . S
H212 C213 0.951 . S
C213 H212 0.951 . S
C213 C219 1.265 . S
H214 C219 0.950 . S
H215 C223 0.949 . S
H216 C224 0.950 . S
H217 C225 0.951 . S
H218 C226 0.951 . S
C219 C213 1.265 . S
C219 H214 0.950 . S
C219 C220 1.478 . S
C220 C219 1.478 . S
C220 C221 1.397 . S
C220 C237 1.394 . S
C221 C220 1.397 . S
C221 C222 1.438 . S
C221 C226 1.429 . S
C222 C221 1.438 . S
C222 C223 1.428 . S
C222 C235 1.394 . S
C223 H215 0.949 . S
C223 C222 1.428 . S
C223 C224 1.345 . S
C224 H216 0.950 . S
C224 C223 1.345 . S
C224 C225 1.424 . S
C225 H217 0.951 . S
C225 C224 1.424 . S
C225 C226 1.347 . S
C226 H218 0.951 . S
C226 C221 1.429 . S
C226 C225 1.347 . S
H227 C228 0.951 . S
C228 H227 0.951 . S
C228 C234 1.265 . S
H229 C234 0.950 . S
H230 C238 0.949 . S
H231 C239 0.950 . S
H232 C240 0.951 . S
H233 C241 0.951 . S
C234 C228 1.265 . S
C234 H229 0.950 . S
C234 C235 1.478 . S
C235 C222 1.394 . S
C235 C234 1.478 . S
C235 C236 1.397 . S
C236 C235 1.397 . S
C236 C237 1.438 . S
C236 C241 1.429 . S
C237 C220 1.394 . S
C237 C236 1.438 . S
C237 C238 1.428 . S
C238 H230 0.949 . S
C238 C237 1.428 . S
C238 C239 1.345 . S
C239 H231 0.950 . S
C239 C238 1.345 . S
C239 C240 1.424 . S
C240 H232 0.951 . S
C240 C239 1.424 . S
C240 C241 1.347 . S
C241 H233 0.951 . S
C241 C236 1.429 . S
C241 C240 1.347 . S
H242 C243 0.951 . S
C243 H242 0.951 . S
C243 C249 1.265 . S
H244 C249 0.964 . S
H245 C253 0.949 . S
H246 C254 0.950 . S
H247 C255 0.951 . S
H248 C256 0.951 . S
C249 C243 1.265 . S
C249 H244 0.964 . S
C249 C250 1.478 . S
C250 C249 1.478 . S
C250 C251 1.406 . S
C250 C267 1.394 . S
C251 C250 1.406 . S
C251 C252 1.435 1_455 S
C251 C256 1.423 1_455 S
C252 C251 1.435 1_655 S
C252 C253 1.428 . S
C252 C265 1.394 1_655 S
C253 H245 0.949 . S
C253 C252 1.428 . S
C253 C254 1.345 . S
C254 H246 0.950 . S
C254 C253 1.345 . S
C254 C255 1.424 . S
C255 H247 0.951 . S
C255 C254 1.424 . S
C255 C256 1.347 . S
C256 H248 0.951 . S
C256 C251 1.423 1_655 S
C256 C255 1.347 . S
H257 C258 0.951 . S
C258 H257 0.951 . S
C258 C264 1.265 1_655 S
H259 C264 0.950 . S
H260 C268 0.949 . S
H261 C269 0.950 . S
H262 C270 0.951 . S
H263 C271 0.951 . S
C264 C258 1.265 1_455 S
C264 H259 0.950 . S
C264 C265 1.478 . S
C265 C252 1.394 1_455 S
C265 C264 1.478 . S
C265 C266 1.397 . S
C266 C265 1.397 . S
C266 C267 1.438 . S
C266 C271 1.429 . S
C267 C250 1.394 . S
C267 C266 1.438 . S
C267 C268 1.428 . S
C268 H260 0.949 . S
C268 C267 1.428 . S
C268 C269 1.345 . S
C269 H261 0.950 . S
C269 C268 1.345 . S
C269 C270 1.424 . S
C270 H262 0.951 . S
C270 C269 1.424 . S
C270 C271 1.347 . S
C271 H263 0.951 . S
C271 C266 1.429 . S
C271 C270 1.347 . S
H272 C273 0.951 . S
C273 H272 0.951 . S
C273 C279 1.265 . S
H274 C279 0.950 1_554 S
H275 C283 0.949 . S
H276 C284 0.950 . S
H277 C285 0.951 . S
H278 C286 0.951 . S
C279 C273 1.265 . S
C279 H274 0.950 1_556 S
C279 C280 1.478 . S
C280 C279 1.478 . S
C280 C281 1.397 1_556 S
C280 C297 1.394 . S
C281 C280 1.397 1_554 S
C281 C282 1.438 . S
C281 C286 1.429 . S
C282 C281 1.438 . S
C282 C283 1.428 . S
C282 C295 1.394 1_554 S
C283 H275 0.949 . S
C283 C282 1.428 . S
C283 C284 1.345 . S
C284 H276 0.950 . S
C284 C283 1.345 . S
C284 C285 1.424 . S
C285 H277 0.951 . S
C285 C284 1.424 . S
C285 C286 1.347 . S
C286 H278 0.951 . S
C286 C281 1.429 . S
C286 C285 1.347 . S
H287 C288 0.951 . S
C288 H287 0.951 . S
C288 C294 1.265 . S
H289 C294 0.950 1_556 S
H290 C298 0.949 . S
H291 C299 0.950 . S
H292 C300 0.951 . S
H293 C301 0.951 . S
C294 C288 1.265 . S
C294 H289 0.950 1_554 S
C294 C295 1.478 1_554 S
C295 C282 1.394 1_556 S
C295 C294 1.478 1_556 S
C295 C296 1.397 . S
C296 C295 1.397 . S
C296 C297 1.438 . S
C296 C301 1.429 . S
C297 C280 1.394 . S
C297 C296 1.438 . S
C297 C298 1.428 . S
C298 H290 0.949 . S
C298 C297 1.428 . S
C298 C299 1.345 . S
C299 H291 0.950 . S
C299 C298 1.345 . S
C299 C300 1.424 . S
C300 H292 0.951 . S
C300 C299 1.424 . S
C300 C301 1.347 . S
C301 H293 0.951 . S
C301 C296 1.429 . S
C301 C300 1.347 . S
H302 C303 0.951 . S
C303 H302 0.951 . S
C303 C309 1.265 . S
H304 C309 0.950 . S
H305 C313 0.949 . S
H306 C314 0.950 . S
H307 C315 0.951 . S
H308 C316 0.951 . S
C309 C303 1.265 . S
C309 H304 0.950 . S
C309 C310 1.478 . S
C310 C309 1.478 . S
C310 C311 1.397 . S
C310 C327 1.394 . S
C311 C310 1.397 . S
C311 C312 1.438 . S
C311 C316 1.429 . S
C312 C311 1.438 . S
C312 C313 1.428 . S
C312 C325 1.394 . S
C313 H305 0.949 . S
C313 C312 1.428 . S
C313 C314 1.345 . S
C314 H306 0.950 . S
C314 C313 1.345 . S
C314 C315 1.424 . S
C315 H307 0.951 . S
C315 C314 1.424 . S
C315 C316 1.347 . S
C316 H308 0.951 . S
C316 C311 1.429 . S
C316 C315 1.347 . S
H317 C318 0.951 1_545 S
C318 H317 0.951 1_565 S
C318 C324 1.265 1_565 S
H319 C324 0.950 . S
H320 C328 0.949 . S
H321 C329 0.950 . S
H322 C330 0.951 . S
H323 C331 0.951 . S
C324 C318 1.265 1_545 S
C324 H319 0.950 . S
C324 C325 1.478 . S
C325 C312 1.394 . S
C325 C324 1.478 . S
C325 C326 1.397 . S
C326 C325 1.397 . S
C326 C327 1.438 . S
C326 C331 1.429 . S
C327 C310 1.394 . S
C327 C326 1.438 . S
C327 C328 1.428 . S
C328 H320 0.949 . S
C328 C327 1.428 . S
C328 C329 1.345 . S
C329 H321 0.950 . S
C329 C328 1.345 . S
C329 C330 1.424 . S
C330 H322 0.951 . S
C330 C329 1.424 . S
C330 C331 1.347 . S
C331 H323 0.951 . S
C331 C326 1.429 . S
C331 C330 1.347 . S
H332 C333 0.951 . S
C333 H332 0.951 . S
C333 C339 1.265 . S
H334 C339 0.950 . S
H335 C343 0.949 . S
H336 C344 0.950 . S
H337 C345 0.951 . S
H338 C346 0.951 . S
C339 C333 1.265 . S
C339 H334 0.950 . S
C339 C340 1.478 . S
C340 C339 1.478 . S
C340 C341 1.397 . S
C340 C357 1.394 . S
C341 C340 1.397 . S
C341 C342 1.438 . S
C341 C346 1.429 . S
C342 C341 1.438 . S
C342 C343 1.428 . S
C342 C355 1.394 . S
C343 H335 0.949 . S
C343 C342 1.428 . S
C343 C344 1.345 . S
C344 H336 0.950 . S
C344 C343 1.345 . S
C344 C345 1.424 . S
C345 H337 0.951 . S
C345 C344 1.424 . S
C345 C346 1.347 . S
C346 H338 0.951 . S
C346 C341 1.429 . S
C346 C345 1.347 . S
H347 C348 0.951 . S
C348 H347 0.951 . S
C348 C354 1.265 . S
H349 C354 0.950 . S
H350 C358 0.949 . S
H351 C359 0.950 . S
H352 C360 0.951 . S
H353 C361 0.951 . S
C354 C348 1.265 . S
C354 H349 0.950 . S
C354 C355 1.478 . S
C355 C342 1.394 . S
C355 C354 1.478 . S
C355 C356 1.397 . S
C356 C355 1.397 . S
C356 C357 1.438 . S
C356 C361 1.429 . S
C357 C340 1.394 . S
C357 C356 1.438 . S
C357 C358 1.428 . S
C358 H350 0.949 . S
C358 C357 1.428 . S
C358 C359 1.345 . S
C359 H351 0.950 . S
C359 C358 1.345 . S
C359 C360 1.424 . S
C360 H352 0.951 . S
C360 C359 1.424 . S
C360 C361 1.347 . S
C361 H353 0.951 . S
C361 C356 1.429 . S
C361 C360 1.347 . S
H362 C363 0.951 1_655 S
C363 H362 0.951 1_455 S
C363 C369 1.265 . S
H364 C369 0.950 . S
H365 C373 0.949 . S
H366 C374 0.950 . S
H367 C375 0.951 1_455 S
H368 C376 0.951 . S
C369 C363 1.265 . S
C369 H364 0.950 . S
C369 C370 1.478 . S
C370 C369 1.478 . S
C370 C371 1.397 1_455 S
C370 C387 1.394 1_455 S
C371 C370 1.397 1_655 S
C371 C372 1.438 . S
C371 C376 1.429 1_655 S
C372 C371 1.438 . S
C372 C373 1.428 . S
C372 C385 1.394 . S
C373 H365 0.949 . S
C373 C372 1.428 . S
C373 C374 1.345 . S
C374 H366 0.950 . S
C374 C373 1.345 . S
C374 C375 1.424 . S
C375 H367 0.951 1_655 S
C375 C374 1.424 . S
C375 C376 1.347 1_655 S
C376 H368 0.951 . S
C376 C371 1.429 1_455 S
C376 C375 1.347 1_455 S
H377 C378 0.951 . S
C378 H377 0.951 . S
C378 C384 1.265 . S
H379 C384 0.950 . S
H380 C388 0.949 1_455 S
H381 C389 0.950 . S
H382 C390 0.951 . S
H383 C391 0.951 . S
C384 C378 1.265 . S
C384 H379 0.950 . S
C384 C385 1.478 . S
C385 C372 1.394 . S
C385 C384 1.478 . S
C385 C386 1.397 . S
C386 C385 1.397 . S
C386 C387 1.438 . S
C386 C391 1.429 . S
C387 C370 1.394 1_655 S
C387 C386 1.438 . S
C387 C388 1.428 . S
C388 H380 0.949 1_655 S
C388 C387 1.428 . S
C388 C389 1.345 . S
C389 H381 0.950 . S
C389 C388 1.345 . S
C389 C390 1.424 . S
C390 H382 0.951 . S
C390 C389 1.424 . S
C390 C391 1.347 . S
C391 H383 0.951 . S
C391 C386 1.429 . S
C391 C390 1.347 . S
H392 C393 0.951 . S
C393 H392 0.951 . S
C393 C399 1.265 1_556 S
H394 C399 0.950 . S
H395 C403 0.949 . S
H396 C404 0.950 . S
H397 C405 0.951 . S
H398 C406 0.951 . S
C399 C393 1.265 1_554 S
C399 H394 0.950 . S
C399 C400 1.478 . S
C400 C399 1.478 . S
C400 C401 1.397 . S
C400 C417 1.394 . S
C401 C400 1.397 . S
C401 C402 1.438 . S
C401 C406 1.429 . S
C402 C401 1.438 . S
C402 C403 1.428 . S
C402 C415 1.394 . S
C403 H395 0.949 . S
C403 C402 1.428 . S
C403 C404 1.345 . S
C404 H396 0.950 . S
C404 C403 1.345 . S
C404 C405 1.424 . S
C405 H397 0.951 . S
C405 C404 1.424 . S
C405 C406 1.347 . S
C406 H398 0.951 . S
C406 C401 1.429 . S
C406 C405 1.347 . S
H407 C408 0.951 . S
C408 H407 0.951 . S
C408 C414 1.265 . S
H409 C414 0.950 . S
H410 C418 0.949 1_556 S
H411 C419 0.949 1_556 S
H412 C420 0.951 . S
H413 C421 0.951 . S
C414 C408 1.265 . S
C414 H409 0.950 . S
C414 C415 1.478 . S
C415 C402 1.394 . S
C415 C414 1.478 . S
C415 C416 1.397 . S
C416 C415 1.397 . S
C416 C417 1.438 . S
C416 C421 1.429 . S
C417 C400 1.394 . S
C417 C416 1.438 . S
C417 C418 1.428 . S
C418 H410 0.949 1_554 S
C418 C417 1.428 . S
C418 C419 1.345 . S
C419 H411 0.949 1_554 S
C419 C418 1.345 . S
C419 C420 1.424 . S
C420 H412 0.951 . S
C420 C419 1.424 . S
C420 C421 1.347 . S
C421 H413 0.951 . S
C421 C416 1.429 . S
C421 C420 1.347 . S
H422 C423 0.951 . S
C423 H422 0.951 . S
C423 C429 1.265 . S
H424 C429 0.950 . S
H425 C433 0.949 . S
H426 C434 0.950 . S
H427 C435 0.951 . S
H428 C436 0.951 . S
C429 C423 1.265 . S
C429 H424 0.950 . S
C429 C430 1.478 . S
C430 C429 1.478 . S
C430 C431 1.397 . S
C430 C447 1.394 . S
C431 C430 1.397 . S
C431 C432 1.438 . S
C431 C436 1.429 . S
C432 C431 1.438 . S
C432 C433 1.428 . S
C432 C445 1.394 . S
C433 H425 0.949 . S
C433 C432 1.428 . S
C433 C434 1.345 . S
C434 H426 0.950 . S
C434 C433 1.345 . S
C434 C435 1.424 . S
C435 H427 0.951 . S
C435 C434 1.424 . S
C435 C436 1.347 . S
C436 H428 0.951 . S
C436 C431 1.429 . S
C436 C435 1.347 . S
H437 C438 0.951 . S
C438 H437 0.951 . S
C438 C444 1.265 . S
H439 C444 0.950 . S
H440 C448 0.949 . S
H441 C449 0.950 . S
H442 C450 0.951 . S
H443 C451 0.951 . S
C444 C438 1.265 . S
C444 H439 0.950 . S
C444 C445 1.478 . S
C445 C432 1.394 . S
C445 C444 1.478 . S
C445 C446 1.397 . S
C446 C445 1.397 . S
C446 C447 1.438 . S
C446 C451 1.429 . S
C447 C430 1.394 . S
C447 C446 1.438 . S
C447 C448 1.428 . S
C448 H440 0.949 . S
C448 C447 1.428 . S
C448 C449 1.345 . S
C449 H441 0.950 . S
C449 C448 1.345 . S
C449 C450 1.424 . S
C450 H442 0.951 . S
C450 C449 1.424 . S
C450 C451 1.347 . S
C451 H443 0.951 . S
C451 C446 1.429 . S
C451 C450 1.347 . S
C93 C63 1.524 1_554 S
C108 C17 1.504 . S
C123 C90 1.192 . S
C138 C43 1.250 . S
C153 C64 1.376 . S
C168 C18 1.378 . S
C183 C89 1.231 1_556 S
C198 C44 1.207 . S
C213 C41 1.263 1_455 S
C228 C19 1.223 . S
C243 C62 1.604 . S
C258 C39 1.580 1_565 S
C273 C66 1.222 . S
C288 C87 1.240 . S
C303 C21 1.310 . S
C318 C85 1.311 . S
C333 C40 1.587 . S
C348 C16 1.570 . S
C363 C65 1.221 . S
C378 C42 1.169 . S
C393 C67 1.308 1_655 S
C408 C86 1.322 . S
C423 C88 1.253 . S
C438 C20 1.243 . S
