# Generated by pormake.
# Topology wfa, (4)-cn, num edge types: 1
# Building blocks:
#     Node 0, Type 0, BuildingBlock: QUQFOY_clean_sbu_3, # of connection points: 4
#     Node 1, Type 0, BuildingBlock: QUQFOY_clean_sbu_3, # of connection points: 4
#     Node 2, Type 0, BuildingBlock: QUQFOY_clean_sbu_3, # of connection points: 4
#     Node 3, Type 0, BuildingBlock: QUQFOY_clean_sbu_3, # of connection points: 4
#     Node 4, Type 0, BuildingBlock: QUQFOY_clean_sbu_3, # of connection points: 4
#     Node 5, Type 0, BuildingBlock: QUQFOY_clean_sbu_3, # of connection points: 4
#     Node 6, Type 0, BuildingBlock: QUQFOY_clean_sbu_3, # of connection points: 4
#     Node 7, Type 0, BuildingBlock: QUQFOY_clean_sbu_3, # of connection points: 4
#     Node 8, Type 0, BuildingBlock: QUQFOY_clean_sbu_3, # of connection points: 4
#     Node 9, Type 0, BuildingBlock: QUQFOY_clean_sbu_3, # of connection points: 4
#     Node 10, Type 0, BuildingBlock: QUQFOY_clean_sbu_3, # of connection points: 4
#     Node 11, Type 0, BuildingBlock: QUQFOY_clean_sbu_3, # of connection points: 4
#     Node 12, Type 0, BuildingBlock: QUQFOY_clean_sbu_3, # of connection points: 4
#     Node 13, Type 0, BuildingBlock: QUQFOY_clean_sbu_3, # of connection points: 4
#     Node 14, Type 0, BuildingBlock: QUQFOY_clean_sbu_3, # of connection points: 4
#     Node 15, Type 0, BuildingBlock: QUQFOY_clean_sbu_3, # of connection points: 4
#     Edge 16, Type (0, 0), BuildingBlock: AJUNOK_clean_linker_0, # of connection points: 2
#     Edge 17, Type (0, 0), BuildingBlock: AJUNOK_clean_linker_0, # of connection points: 2
#     Edge 18, Type (0, 0), BuildingBlock: AJUNOK_clean_linker_0, # of connection points: 2
#     Edge 19, Type (0, 0), BuildingBlock: AJUNOK_clean_linker_0, # of connection points: 2
#     Edge 20, Type (0, 0), BuildingBlock: AJUNOK_clean_linker_0, # of connection points: 2
#     Edge 21, Type (0, 0), BuildingBlock: AJUNOK_clean_linker_0, # of connection points: 2
#     Edge 22, Type (0, 0), BuildingBlock: AJUNOK_clean_linker_0, # of connection points: 2
#     Edge 23, Type (0, 0), BuildingBlock: AJUNOK_clean_linker_0, # of connection points: 2
#     Edge 24, Type (0, 0), BuildingBlock: AJUNOK_clean_linker_0, # of connection points: 2
#     Edge 25, Type (0, 0), BuildingBlock: AJUNOK_clean_linker_0, # of connection points: 2
#     Edge 26, Type (0, 0), BuildingBlock: AJUNOK_clean_linker_0, # of connection points: 2
#     Edge 27, Type (0, 0), BuildingBlock: AJUNOK_clean_linker_0, # of connection points: 2
#     Edge 28, Type (0, 0), BuildingBlock: AJUNOK_clean_linker_0, # of connection points: 2
#     Edge 29, Type (0, 0), BuildingBlock: AJUNOK_clean_linker_0, # of connection points: 2
#     Edge 30, Type (0, 0), BuildingBlock: AJUNOK_clean_linker_0, # of connection points: 2
#     Edge 31, Type (0, 0), BuildingBlock: AJUNOK_clean_linker_0, # of connection points: 2
#     Edge 32, Type (0, 0), BuildingBlock: AJUNOK_clean_linker_0, # of connection points: 2
#     Edge 33, Type (0, 0), BuildingBlock: AJUNOK_clean_linker_0, # of connection points: 2
#     Edge 34, Type (0, 0), BuildingBlock: AJUNOK_clean_linker_0, # of connection points: 2
#     Edge 35, Type (0, 0), BuildingBlock: AJUNOK_clean_linker_0, # of connection points: 2
#     Edge 36, Type (0, 0), BuildingBlock: AJUNOK_clean_linker_0, # of connection points: 2
#     Edge 37, Type (0, 0), BuildingBlock: AJUNOK_clean_linker_0, # of connection points: 2
#     Edge 38, Type (0, 0), BuildingBlock: AJUNOK_clean_linker_0, # of connection points: 2
#     Edge 39, Type (0, 0), BuildingBlock: AJUNOK_clean_linker_0, # of connection points: 2
#     Edge 40, Type (0, 0), BuildingBlock: AJUNOK_clean_linker_0, # of connection points: 2
#     Edge 41, Type (0, 0), BuildingBlock: AJUNOK_clean_linker_0, # of connection points: 2
#     Edge 42, Type (0, 0), BuildingBlock: AJUNOK_clean_linker_0, # of connection points: 2
#     Edge 43, Type (0, 0), BuildingBlock: AJUNOK_clean_linker_0, # of connection points: 2
#     Edge 44, Type (0, 0), BuildingBlock: AJUNOK_clean_linker_0, # of connection points: 2
#     Edge 45, Type (0, 0), BuildingBlock: AJUNOK_clean_linker_0, # of connection points: 2
#     Edge 46, Type (0, 0), BuildingBlock: AJUNOK_clean_linker_0, # of connection points: 2
#     Edge 47, Type (0, 0), BuildingBlock: AJUNOK_clean_linker_0, # of connection points: 2
# Relax obj value: 0.196
# Max RMSD: 0.267
# Mean RMSD: 0.265
data_MOF--net-wfa--node1-QUQFOY_clean_sbu_3--edge1-AJUNOK_clean_linker_0
_symmetry_space_group_name_H-M    P1
_symmetry_Int_Tables_number       1
_symmetry_cell_setting            triclinic
loop_
_symmetry_equiv_pos_as_xyz
'x, y, z'
_cell_length_a     35.119589
_cell_length_b     35.213072
_cell_length_c     18.963151
_cell_angle_alpha  89.786348
_cell_angle_beta   89.839048
_cell_angle_gamma 89.731368
loop_
_atom_site_label
_atom_site_type_symbol
_atom_site_fract_x
_atom_site_fract_y
_atom_site_fract_z
_atom_type_partial_charge
C0 C 0.55858 0.96592 0.03316 0.0
O1 O 0.55768 0.94922 0.09269 0.0
Cd2 Cd 0.61289 0.9464 0.17024 0.0
O3 O 0.59022 0.97615 0.00688 0.0
Cd4 Cd 0.65841 0.97454 0.03217 0.0
C5 C 0.63376 0.04154 0.14819 0.0
O6 O 0.6719 0.92617 0.12118 0.0
O7 O 0.71213 0.97226 0.10687 0.0
O8 O 0.67652 0.93985 0.92668 0.0
C9 C 0.70289 0.94219 0.13938 0.0
O10 O 0.62321 0.01364 0.18634 0.0
C11 C 0.69511 0.96756 0.90099 0.0
O12 O 0.64503 0.03677 0.08482 0.0
O13 O 0.69569 -0.00183 0.93634 0.0
C14 C 0.51342 0.55972 0.04826 0.0
O15 O 0.5366 0.56052 0.09962 0.0
Cd16 Cd 0.5433 0.61733 0.17311 0.0
O17 O 0.49932 0.5902 0.0235 0.0
Cd18 Cd 0.5044 0.659 0.03702 0.0
C19 C 0.44659 0.63717 0.17381 0.0
O20 O 0.55663 0.67507 0.11362 0.0
O21 O 0.51075 0.71618 0.10057 0.0
O22 O 0.53778 0.67062 0.92725 0.0
C23 C 0.54156 0.70682 0.13089 0.0
O24 O 0.4772 0.62696 0.20469 0.0
C25 C 0.50986 0.68797 0.89907 0.0
O26 O 0.44691 0.64844 0.10959 0.0
O27 O 0.47917 0.6907 0.9348 0.0
C28 C 0.92162 0.51901 0.02374 0.0
O29 O 0.92087 0.5388 0.07973 0.0
Cd30 Cd 0.86519 0.54535 0.15781 0.0
O31 O 0.891 0.5056 -0.00086 0.0
Cd32 Cd 0.82359 0.50845 0.02836 0.0
C33 C 0.84676 0.45028 0.16368 0.0
O34 O 0.80404 0.55837 0.10951 0.0
O35 O 0.7696 0.50726 0.09817 0.0
O36 O 0.80362 0.54408 0.92622 0.0
C37 C 0.77456 0.53923 0.12717 0.0
O38 O 0.85604 0.48081 0.19489 0.0
C39 C 0.78587 0.51637 0.89923 0.0
O40 O 0.83701 0.45048 0.0987 0.0
O41 O 0.78773 0.48443 0.93099 0.0
C42 C 0.96768 0.91823 0.02945 0.0
O43 O 0.94542 0.91705 0.08238 0.0
Cd44 Cd 0.94563 0.86222 0.16219 0.0
O45 O 0.98359 0.88815 0.00713 0.0
Cd46 Cd 0.98055 0.8196 0.02853 0.0
C47 C 0.04256 0.84642 0.15322 0.0
O48 O 0.93398 0.80077 0.11659 0.0
O49 O 0.9836 0.76442 0.09934 0.0
O50 O 0.93895 0.80589 0.93093 0.0
C51 C 0.95352 0.77148 0.1343 0.0
O52 O 0.01266 0.85595 0.18719 0.0
C53 C 0.96458 0.78929 0.89493 0.0
O54 O 0.04076 0.83441 0.0897 0.0
O55 O -0.00186 0.78749 0.92027 0.0
C56 C 0.06401 0.01068 0.42203 0.0
O57 O 0.06387 0.02842 0.36339 0.0
Cd58 Cd 0.11903 0.0361 0.2847 0.0
O59 O 0.09523 -0.00048 0.4486 0.0
Cd60 Cd 0.16307 0.0019 0.42335 0.0
C61 C 0.1395 0.94068 0.29304 0.0
O62 O 0.17825 0.05036 0.33727 0.0
O63 O 0.21903 0.00469 0.35592 0.0
O64 O 0.17461 0.03965 0.52669 0.0
C65 C 0.20955 0.03389 0.32071 0.0
O66 O 0.13 0.97042 0.2588 0.0
C67 C 0.19671 0.0153 0.55487 0.0
O68 O 0.14945 0.9423 0.35792 0.0
O69 O 0.20116 0.98366 0.52324 0.0
C70 C 0.46375 0.05959 0.41546 0.0
O71 O 0.44076 0.06104 0.36382 0.0
Cd72 Cd 0.43716 0.11762 0.28655 0.0
O73 O 0.47915 0.08964 0.43766 0.0
Cd74 Cd 0.47414 0.15698 0.4151 0.0
C75 C 0.53311 0.13294 0.28291 0.0
O76 O 0.42854 0.18092 0.32899 0.0
O77 O 0.48203 0.21079 0.34722 0.0
O78 O 0.43518 0.1758 0.51362 0.0
C79 C 0.45137 0.20792 0.31229 0.0
O80 O 0.50255 0.12394 0.2511 0.0
C81 C 0.46303 0.1888 0.54856 0.0
O82 O 0.53257 0.14336 0.34745 0.0
O83 O 0.49627 0.18616 0.52177 0.0
C84 C 0.42541 0.46816 0.41575 0.0
O85 O 0.42605 0.45378 0.35429 0.0
Cd86 Cd 0.36986 0.44732 0.27832 0.0
O87 O 0.39376 0.47543 0.44531 0.0
Cd88 Cd 0.32586 0.47182 0.41979 0.0
C89 C 0.34728 0.54069 0.3014 0.0
O90 O 0.31229 0.42488 0.32971 0.0
O91 O 0.2713 0.4703 0.3481 0.0
O92 O 0.30828 0.43545 0.52425 0.0
C93 C 0.28057 0.44072 0.3142 0.0
O94 O 0.35594 0.5137 0.25968 0.0
C95 C 0.28924 0.46276 0.55063 0.0
O96 O 0.33867 0.53432 0.36586 0.0
O97 O 0.2885 0.49391 0.51643 0.0
C98 C 0.0179 0.42199 0.41312 0.0
O99 O 0.03413 0.42249 0.35309 0.0
Cd100 Cd 0.0359 0.36702 0.27581 0.0
O101 O 0.00701 0.39073 0.43955 0.0
Cd102 Cd 0.00627 0.32259 0.4175 0.0
C103 C 0.9398 0.35043 0.30027 0.0
O104 O 0.0511 0.30641 0.32458 0.0
O105 O 0.00468 0.26725 0.34642 0.0
O106 O 0.04697 0.30545 0.51593 0.0
C107 C 0.03315 0.27612 0.30853 0.0
O108 O 0.96818 0.36023 0.26257 0.0
C109 C 0.01979 0.29246 0.55302 0.0
O110 O 0.94407 0.33808 0.36329 0.0
O111 O 0.98647 0.29312 0.52664 0.0
C112 C 0.41438 0.01429 0.90767 0.0
O113 O 0.41291 0.03698 0.85512 0.0
Cd114 Cd 0.35751 0.04139 0.77909 0.0
O115 O 0.38426 -0.00165 0.93087 0.0
Cd116 Cd 0.31407 -0.00853 0.92359 0.0
C117 C 0.34544 0.94033 0.80594 0.0
O118 O 0.30058 0.04439 0.84378 0.0
O119 O 0.25819 0.00054 0.85383 0.0
O120 O 0.31181 0.02565 0.03352 0.0
C121 C 0.26952 0.03014 0.82212 0.0
O122 O 0.34959 0.97556 0.79677 0.0
C123 C 0.28487 0.00613 0.05945 0.0
O124 O 0.32923 0.92939 0.86272 0.0
O125 O 0.27337 0.97766 0.02435 0.0
C126 C 0.45842 0.41606 0.93878 0.0
O127 O 0.42724 0.41276 0.90567 0.0
Cd128 Cd 0.4298 0.36133 0.81808 0.0
O129 O 0.48079 0.38791 0.9425 0.0
Cd130 Cd 0.47519 0.32103 0.91521 0.0
C131 C 0.52569 0.36448 0.79444 0.0
O132 O 0.43041 0.29332 0.83126 0.0
O133 O 0.48963 0.27323 0.83708 0.0
O134 O 0.43572 0.30123 0.01207 0.0
C135 C 0.4569 0.27114 0.80888 0.0
O136 O 0.49231 0.37164 0.772 0.0
C137 C 0.46301 0.28611 0.04613 0.0
O138 O 0.53094 0.34615 0.8518 0.0
O139 O 0.49648 0.28809 0.01991 0.0
C140 C 0.06614 0.46591 0.90698 0.0
O141 O 0.06735 0.44856 0.84822 0.0
Cd142 Cd 0.12559 0.44303 0.77606 0.0
O143 O 0.09666 0.4753 0.93787 0.0
Cd144 Cd 0.16518 0.47247 0.92569 0.0
C145 C 0.14025 0.53829 0.80029 0.0
O146 O 0.18374 0.42894 0.83377 0.0
O147 O 0.22333 0.47278 0.86552 0.0
O148 O 0.17355 0.43492 0.03195 0.0
C149 C 0.21418 0.4476 0.8212 0.0
O150 O 0.13407 0.51015 0.75986 0.0
C151 C 0.1965 0.45847 0.05938 0.0
O152 O 0.1489 0.53362 0.86545 0.0
O153 O 0.20239 0.48964 0.02684 0.0
C154 C 0.01681 0.06487 0.92067 0.0
O155 O 0.04623 0.0682 0.88203 0.0
Cd156 Cd 0.05074 0.12508 0.80622 0.0
O157 O -0.00294 0.09399 0.93518 0.0
Cd158 Cd 0.00508 0.1615 0.91578 0.0
C159 C 0.95611 0.13089 0.77558 0.0
O160 O 0.05269 0.19114 0.83822 0.0
O161 O -0.0055 0.21355 0.84594 0.0
O162 O 0.03935 0.17189 0.02426 0.0
C163 C 0.02756 0.21576 0.81901 0.0
O164 O 0.98942 0.12425 0.75192 0.0
C165 C 0.01412 0.19385 0.05016 0.0
O166 O 0.95132 0.14258 0.83889 0.0
O167 O 0.98329 0.19853 0.01562 0.0
C168 C 0.91934 0.96114 0.54334 0.0
O169 O 0.91614 0.94993 0.60697 0.0
Cd170 Cd 0.85732 0.94971 0.67737 0.0
O171 O 0.88986 0.96935 0.50776 0.0
Cd172 Cd 0.82156 0.97313 0.52283 0.0
C173 C 0.84909 0.04309 0.63602 0.0
O174 O 0.80011 0.93382 0.61967 0.0
O175 O 0.76536 0.98196 0.58711 0.0
O176 O 0.80901 0.93304 0.42202 0.0
C177 C 0.77136 0.95536 0.63093 0.0
O178 O 0.84998 0.01766 0.684 0.0
C179 C 0.7879 0.9578 0.39241 0.0
O180 O 0.84337 0.0347 0.57126 0.0
O181 O 0.78507 0.99037 0.42104 0.0
C182 C 0.5193 0.91475 0.5241 0.0
O183 O 0.54428 0.91288 0.57243 0.0
Cd184 Cd 0.54513 0.8558 0.64907 0.0
O185 O 0.50368 0.88471 0.50238 0.0
Cd186 Cd 0.51051 0.81754 0.52233 0.0
C187 C 0.44918 0.85322 0.64119 0.0
O188 O 0.54849 0.78978 0.61687 0.0
O189 O 0.49281 0.76653 0.58968 0.0
O190 O 0.55174 0.80663 0.42205 0.0
C191 C 0.52139 0.76638 0.63047 0.0
O192 O 0.47886 0.85799 0.67842 0.0
C193 C 0.52784 0.78543 0.39104 0.0
O194 O 0.45128 0.84184 0.5773 0.0
O195 O 0.49531 0.78071 0.41976 0.0
C196 C 0.5685 0.52159 0.53707 0.0
O197 O 0.56976 0.54253 0.59195 0.0
Cd198 Cd 0.6253 0.54366 0.67096 0.0
O199 O 0.59873 0.5063 0.51264 0.0
Cd200 Cd 0.66856 0.49741 0.51802 0.0
C201 C 0.63498 0.44638 0.62513 0.0
O202 O 0.68415 0.54495 0.60865 0.0
O203 O 0.72415 0.4994 0.58682 0.0
O204 O 0.67338 0.5386 0.41721 0.0
C205 C 0.71387 0.52637 0.62681 0.0
O206 O 0.63663 0.48179 0.63147 0.0
C207 C 0.69691 0.51735 0.38507 0.0
O208 O 0.65111 0.43259 0.5707 0.0
O209 O 0.70555 0.48546 0.41278 0.0
C210 C 0.96551 0.56381 0.53966 0.0
O211 O 0.9464 0.56579 0.59665 0.0
Cd212 Cd 0.94116 0.62359 0.669 0.0
O213 O 0.97886 0.59373 0.51191 0.0
Cd214 Cd 0.97944 0.66147 0.53282 0.0
C215 C 0.03747 0.63426 0.66833 0.0
O216 O 0.93149 0.68443 0.61554 0.0
O217 O 0.98336 0.71698 0.59796 0.0
O218 O 0.94286 0.67241 0.42715 0.0
C219 C 0.95201 0.71329 0.63062 0.0
O220 O 0.00669 0.62863 0.70242 0.0
C221 C 0.96825 0.69259 0.3976 0.0
O222 O 0.0369 0.64344 0.60282 0.0
O223 O -0.00017 0.69692 0.42952 0.0
C224 C 0.56883 0.12207 0.1717 0.0
C225 C 0.56925 0.12489 0.24587 0.0
C226 C 0.59566 0.09967 0.13619 0.0
C227 C 0.62329 0.07934 0.17417 0.0
H228 H 0.54518 0.1336 0.14175 0.0
H229 H 0.5912 0.09395 0.08069 0.0
S230 S 0.64415 0.08747 0.3647 0.0
N231 N 0.60548 0.11361 0.35308 0.0
N232 N 0.65576 0.07111 0.28595 0.0
C233 C 0.62808 0.08748 0.24601 0.0
C234 C 0.60092 0.11043 0.28223 0.0
C235 C 0.3852 0.5985 0.31747 0.0
C236 C 0.35789 0.57902 0.27785 0.0
C237 C 0.41123 0.62264 0.2841 0.0
C238 C 0.41048 0.62807 0.21038 0.0
H239 H 0.38999 0.59109 0.37227 0.0
H240 H 0.4347 0.63348 0.31496 0.0
S241 S 0.33543 0.59418 0.0892 0.0
N242 N 0.32501 0.57437 0.16591 0.0
N243 N 0.37366 0.62028 0.10291 0.0
C244 C 0.37897 0.6143 0.17303 0.0
C245 C 0.35266 0.58949 0.20701 0.0
C246 C 0.87265 0.38459 0.16428 0.0
C247 C 0.85502 0.41439 0.20116 0.0
C248 C 0.8961 0.35858 0.19979 0.0
C249 C 0.90225 0.36159 0.27294 0.0
H250 H 0.87247 0.38422 0.10716 0.0
H251 H 0.91322 0.33915 0.16868 0.0
S252 S 0.85343 0.4276 0.39514 0.0
N253 N 0.83792 0.43992 0.31611 0.0
N254 N 0.88234 0.3911 0.38255 0.0
C255 C 0.87967 0.38706 0.31148 0.0
C256 C 0.85592 0.41363 0.27543 0.0
C257 C 0.08189 0.85492 0.26018 0.0
C258 C 0.07919 0.85627 0.18605 0.0
C259 C 0.10718 0.87849 0.29637 0.0
C260 C 0.13009 0.90432 0.25925 0.0
H261 H 0.06139 0.83877 0.29066 0.0
H262 H 0.10493 0.88007 0.35329 0.0
S263 S 0.14068 0.91165 0.0651 0.0
N264 N 0.10696 0.87968 0.0769 0.0
N265 N 0.15455 0.92404 0.14488 0.0
C266 C 0.1319 0.90148 0.18526 0.0
C267 C 0.10629 0.87738 0.14845 0.0
C268 C 0.38777 0.932 0.70255 0.0
C269 C 0.36499 0.91484 0.7552 0.0
C270 C 0.41223 0.91072 0.66046 0.0
C271 C 0.41456 0.8713 0.66791 0.0
H272 H 0.38875 0.96257 0.69621 0.0
H273 H 0.43167 0.92563 0.62569 0.0
S274 S 0.35731 0.81133 0.78825 0.0
N275 N 0.34326 0.85517 0.80605 0.0
N276 N 0.39 0.81494 0.72571 0.0
C277 C 0.39026 0.85315 0.71609 0.0
C278 C 0.36513 0.87498 0.75982 0.0
C279 C 0.61352 0.38563 0.68418 0.0
C280 C 0.60893 0.42485 0.67172 0.0
C281 C 0.58783 0.36579 0.72802 0.0
C282 C 0.55684 0.38475 0.75941 0.0
H283 H 0.6368 0.37027 0.65968 0.0
H284 H 0.5913 0.33543 0.73506 0.0
S285 S 0.53216 0.48685 0.74442 0.0
N286 N 0.57087 0.48154 0.69606 0.0
N287 N 0.52334 0.44434 0.77701 0.0
C288 C 0.55254 0.42385 0.74857 0.0
C289 C 0.57839 0.44391 0.70497 0.0
C290 C 0.07303 0.61866 0.7783 0.0
C291 C 0.0733 0.62308 0.70423 0.0
C292 C 0.09966 0.59528 0.81239 0.0
C293 C 0.12726 0.57544 0.77339 0.0
H294 H 0.04985 0.63024 0.80948 0.0
H295 H 0.09546 0.58904 0.86788 0.0
S296 S 0.14679 0.58563 0.58203 0.0
N297 N 0.10874 0.61236 0.59575 0.0
N298 N 0.15842 0.56789 0.65981 0.0
C299 C 0.13132 0.58413 0.70127 0.0
C300 C 0.10438 0.60816 0.66657 0.0
C301 C 0.93102 0.10588 0.66206 0.0
C302 C 0.92353 0.12017 0.73024 0.0
C303 C 0.90345 0.08572 0.62485 0.0
C304 C 0.86754 0.07895 0.65464 0.0
H305 H 0.95934 0.10734 0.63943 0.0
H306 H 0.91198 0.07142 0.57674 0.0
S307 S 0.82979 0.11976 0.82052 0.0
N308 N 0.87462 0.13371 0.81788 0.0
N309 N 0.82308 0.09471 0.74817 0.0
C310 C 0.85798 0.09747 0.71773 0.0
C311 C 0.88595 0.11839 0.75558 0.0
C312 C 0.72418 0.92868 0.80415 0.0
C313 C 0.7152 0.96451 0.83285 0.0
C314 C 0.74332 0.92553 0.73928 0.0
C315 C 0.75325 0.95812 0.70077 0.0
H316 H 0.71654 0.90292 0.83207 0.0
H317 H 0.7496 0.89758 0.71848 0.0
S318 S 0.73728 0.05844 0.75396 0.0
N319 N 0.71876 0.03306 0.81859 0.0
N320 N 0.75423 0.02729 0.69712 0.0
C321 C 0.74491 -0.00595 0.7295 0.0
C322 C 0.72598 -0.00278 0.79547 0.0
C323 C 0.55133 0.73872 0.73966 0.0
C324 C 0.51923 0.7439 0.69654 0.0
C325 C 0.54844 0.71938 0.80439 0.0
C326 C 0.51321 0.70536 0.82858 0.0
H327 H 0.57871 0.74996 0.72372 0.0
H328 H 0.57369 0.71645 0.83668 0.0
S329 S 0.42079 0.71041 0.73532 0.0
N330 N 0.4511 0.73214 0.68248 0.0
N331 N 0.44609 0.69672 0.80404 0.0
C332 C 0.48113 0.70985 0.78572 0.0
C333 C 0.48404 0.72887 0.71969 0.0
C334 C 0.75622 0.48785 0.79409 0.0
C335 C 0.76473 0.52056 0.83269 0.0
C336 C 0.7386 0.49046 0.72867 0.0
C337 C 0.72841 0.52584 0.69935 0.0
H338 H 0.76418 0.45995 0.81346 0.0
H339 H 0.7334 0.46433 0.70032 0.0
S340 S 0.73949 0.61974 0.78346 0.0
N341 N 0.75837 0.58943 0.84037 0.0
N342 N 0.72455 0.59402 0.71635 0.0
C343 C 0.73452 0.55872 0.73894 0.0
C344 C 0.75302 0.55616 0.80581 0.0
C345 C 0.93587 0.73859 0.82128 0.0
C346 C 0.95576 0.77303 0.826 0.0
C347 C 0.93118 0.72051 0.75597 0.0
C348 C 0.94609 0.73671 0.69395 0.0
H349 H 0.92565 0.72465 0.86867 0.0
H350 H 0.91829 0.69263 0.75485 0.0
S351 S -0.00522 0.82978 0.67835 0.0
N352 N 0.98659 0.82467 0.76366 0.0
N353 N 0.97707 0.79154 0.64064 0.0
C354 C 0.96322 0.77274 0.69792 0.0
C355 C 0.96839 0.79068 0.76419 0.0
C356 C 0.25034 0.00241 0.63656 0.0
C357 C 0.21765 0.02379 0.62019 0.0
C358 C 0.26962 0.00783 0.69991 0.0
C359 C 0.25686 0.03466 0.74928 0.0
H360 H 0.26058 0.98055 0.6011 0.0
H361 H 0.29323 0.98913 0.71223 0.0
S362 S 0.17478 0.09996 0.7301 0.0
N363 N 0.17506 0.07504 0.65641 0.0
N364 N 0.21119 0.0842 0.777 0.0
C365 C 0.22551 0.05756 0.73247 0.0
C366 C 0.20595 0.05242 0.66738 0.0
C367 C 0.48186 0.19788 0.67269 0.0
C368 C 0.45711 0.20674 0.61728 0.0
C369 C 0.47928 0.21701 0.7368 0.0
C370 C 0.45236 0.24625 0.74724 0.0
H371 H 0.50388 0.17651 0.66597 0.0
H372 H 0.49974 0.2099 0.77749 0.0
S373 S 0.38091 0.27989 0.6174 0.0
N374 N 0.4041 0.24548 0.57638 0.0
N375 N 0.39992 0.28258 0.69681 0.0
C376 C 0.42646 0.25446 0.69288 0.0
C377 C 0.42876 0.23446 0.62769 0.0
C378 C 0.259 0.42267 0.64495 0.0
C379 C 0.26887 0.45879 0.61834 0.0
C380 C 0.23978 0.4188 0.70973 0.0
C381 C 0.23065 0.45092 0.75002 0.0
H382 H 0.26615 0.39727 0.61561 0.0
H383 H 0.23312 0.39065 0.72929 0.0
S384 S 0.24902 0.55175 0.70256 0.0
N385 N 0.26693 0.52709 0.63651 0.0
N386 N 0.23122 0.52 0.7574 0.0
C387 C 0.23965 0.48714 0.72305 0.0
C388 C 0.25872 0.49104 0.65741 0.0
C389 C 0.05469 0.25001 0.63686 0.0
C390 C 0.02638 0.27759 0.62436 0.0
C391 C 0.05759 0.23194 0.70286 0.0
C392 C 0.03262 0.24155 0.75817 0.0
H393 H 0.07311 0.24075 0.59427 0.0
H394 H 0.07765 0.2087 0.70897 0.0
S395 S 0.959 0.31774 0.75492 0.0
N396 N 0.97651 0.31717 0.67406 0.0
N397 N 0.98279 0.28476 0.79878 0.0
C398 C 0.00672 0.27176 0.74766 0.0
C399 C 0.00326 0.28933 0.68039 0.0
C400 C 0.20706 0.02832 0.19127 0.0
C401 C 0.22774 0.03826 0.25168 0.0
C402 C 0.2259 0.0179 0.129 0.0
C403 C 0.26588 0.01796 0.12496 0.0
H404 H 0.17637 0.02572 0.19371 0.0
H405 H 0.2091 0.00908 0.08414 0.0
S406 S 0.33266 0.04431 0.26727 0.0
N407 N 0.28996 0.04884 0.30318 0.0
N408 N 0.3254 0.03116 0.18485 0.0
C409 C 0.28673 0.03018 0.18356 0.0
C410 C 0.2676 0.03989 0.24733 0.0
C411 C 0.4732 0.26152 0.23796 0.0
C412 C 0.44795 0.23081 0.24712 0.0
C413 C 0.47764 0.27933 0.17269 0.0
C414 C 0.45623 0.26793 0.11458 0.0
H415 H 0.49103 0.27097 0.28093 0.0
H416 H 0.49826 0.30199 0.16751 0.0
S417 S 0.38478 0.19089 0.10995 0.0
N418 N 0.40039 0.19062 0.1921 0.0
N419 N 0.40767 0.22563 0.06943 0.0
C420 C 0.42939 0.23879 0.12316 0.0
C421 C 0.42539 0.21992 0.1896 0.0
C422 C 0.27894 0.44888 0.18544 0.0
C423 C 0.2615 0.43475 0.24676 0.0
C424 C 0.25753 0.45612 0.12469 0.0
C425 C 0.21824 0.44873 0.12305 0.0
H426 H 0.30867 0.45699 0.18604 0.0
H427 H 0.27167 0.46832 0.07912 0.0
S428 S 0.15983 0.40985 0.26902 0.0
N429 N 0.20317 0.41292 0.3022 0.0
N430 N 0.16315 0.42461 0.18639 0.0
C431 C 0.20092 0.43258 0.18269 0.0
C432 C 0.22255 0.42612 0.24513 0.0
C433 C 0.03785 0.19793 0.1741 0.0
C434 C 0.02197 0.2157 0.11448 0.0
C435 C 0.04425 0.21849 0.23625 0.0
C436 C 0.03671 0.2577 0.23939 0.0
H437 H 0.04377 0.16771 0.17366 0.0
H438 H 0.05387 0.20342 0.28287 0.0
S439 S -0.00106 0.31798 0.09473 0.0
N440 N 0.00091 0.27488 0.06085 0.0
N441 N 0.01507 0.31378 0.17611 0.0
C442 C 0.02309 0.27607 0.17864 0.0
C443 C 0.01519 0.25498 0.11645 0.0
C444 C 0.75962 0.92542 0.21013 0.0
C445 C 0.72085 0.93551 0.20789 0.0
C446 C 0.78113 0.93093 0.27148 0.0
C447 C 0.76471 0.94823 0.3309 0.0
H448 H 0.77381 0.91514 0.16307 0.0
H449 H 0.81116 0.92377 0.271 0.0
S450 S 0.66388 0.97722 0.35325 0.0
N451 N 0.66644 0.9606 0.27206 0.0
N452 N 0.70718 0.97272 0.38604 0.0
C453 C 0.72572 0.95693 0.33025 0.0
C454 C 0.70365 0.95012 0.26891 0.0
C455 C 0.53433 0.72564 0.32361 0.0
C456 C 0.53802 0.7653 0.32611 0.0
C457 C 0.54049 0.70584 0.26068 0.0
C458 C 0.54955 0.72533 0.19816 0.0
H459 H 0.52551 0.70997 0.37012 0.0
H460 H 0.53508 0.67559 0.25979 0.0
S461 S 0.56395 0.82895 0.17801 0.0
N462 N 0.55375 0.82313 0.2625 0.0
N463 N 0.56324 0.78607 0.14288 0.0
C464 C 0.5548 0.76479 0.20072 0.0
C465 C 0.54956 0.78481 0.26521 0.0
C466 C 0.75313 0.54081 0.31924 0.0
C467 C 0.71468 0.52999 0.31952 0.0
C468 C 0.77183 0.54932 0.25578 0.0
C469 C 0.75254 0.54654 0.19126 0.0
H470 H 0.76917 0.54114 0.36797 0.0
H471 H 0.8022 0.55461 0.25676 0.0
S472 S 0.65091 0.52229 0.16561 0.0
N473 N 0.65718 0.51998 0.25185 0.0
N474 N 0.69246 0.53488 0.13199 0.0
C475 C 0.71345 0.53813 0.19177 0.0
C476 C 0.69443 0.52997 0.25625 0.0
C477 C 0.95351 0.71176 0.20364 0.0
C478 C 0.9483 0.75141 0.20172 0.0
C479 C 0.95875 0.69247 0.26771 0.0
C480 C 0.96012 0.71252 0.33137 0.0
H481 H 0.95509 0.69577 0.15498 0.0
H482 H 0.96337 0.66203 0.26719 0.0
S483 S 0.94663 0.81598 0.35566 0.0
N484 N 0.94291 0.80958 0.2697 0.0
N485 N 0.9541 0.7734 0.38993 0.0
C486 C 0.95374 0.75184 0.33064 0.0
C487 C 0.94741 0.77133 0.2657 0.0
C488 C 0.45307 0.97451 -0.00886 0.0
C489 C 0.45166 0.00339 0.93938 0.0
C490 C 0.48768 0.96198 0.01985 0.0
C491 C 0.52253 0.97757 -0.0021 0.0
H492 H 0.42719 0.96114 0.0097 0.0
H493 H 0.48702 0.93992 0.05979 0.0
S494 S 0.53489 0.05464 0.86506 0.0
N495 N 0.48849 0.04764 0.86815 0.0
N496 N 0.55347 0.02418 0.9218 0.0
C497 C 0.52167 0.00648 0.94605 0.0
C498 C 0.48633 0.01937 0.91702 0.0
C499 C 0.51069 0.46027 0.97244 0.0
C500 C 0.47126 0.45289 0.96781 0.0
C501 C 0.52438 0.49471 -0.00085 0.0
C502 C 0.49912 0.52316 0.0215 0.0
H503 H 0.53128 0.43941 0.95445 0.0
H504 H 0.55483 0.49934 0.00118 0.0
S505 S 0.39373 0.51699 0.02681 0.0
N506 N 0.40744 0.4762 -0.0079 0.0
N507 N 0.43309 0.54117 0.04159 0.0
C508 C 0.45973 0.5161 0.01805 0.0
C509 C 0.4458 0.48094 -0.00874 0.0
C510 C 0.96033 0.47474 0.9485 0.0
C511 C 0.95844 0.50759 -0.00904 0.0
C512 C -0.00489 0.46124 0.92143 0.0
C513 C 0.0294 0.47993 0.93612 0.0
H514 H 0.93482 0.45871 0.93723 0.0
H515 H -0.00483 0.4357 0.88976 0.0
S516 S 0.03949 0.5699 0.03644 0.0
N517 N -0.00639 0.56019 0.04093 0.0
N518 N 0.05883 0.53513 -0.00971 0.0
C519 C 0.02774 0.51354 -0.02354 0.0
C520 C -0.00764 0.52727 0.00381 0.0
C521 C 0.02968 -0.00285 0.95607 0.0
C522 C 0.00372 0.02717 0.94607 0.0
C523 C 0.01749 0.96174 -0.01832 0.0
C524 C 0.97893 0.95511 -0.00163 0.0
H525 H 0.0597 0.00123 0.94534 0.0
H526 H 0.03859 0.93966 -0.00978 0.0
S527 S 0.89881 0.02228 0.97161 0.0
N528 N 0.93695 0.04643 0.94776 0.0
N529 N 0.9145 0.98011 -0.00305 0.0
C530 C 0.95254 0.98436 -0.01356 0.0
C531 C 0.96482 0.0203 0.95994 0.0
C532 C -0.00668 0.00198 0.41803 0.0
C533 C 0.02757 -0.00116 0.45579 0.0
C534 C 0.95904 0.9882 0.44573 0.0
C535 C 0.95722 0.97083 0.51284 0.0
H536 H -0.00709 0.01479 0.36601 0.0
H537 H 0.93359 -0.00816 0.41424 0.0
S538 S 0.03881 0.95561 0.63397 0.0
N539 N 0.05756 0.97691 0.56449 0.0
N540 N -0.00696 0.95119 0.61643 0.0
C541 C 0.99128 0.96733 0.55129 0.0
C542 C 0.02635 0.98135 0.52295 0.0
C543 C 0.52843 0.9837 0.49397 0.0
C544 C 0.50476 0.95175 0.49759 0.0
C545 C 0.51458 0.01855 0.4682 0.0
C546 C 0.47653 0.02278 0.44545 0.0
H547 H 0.55796 0.98162 0.50993 0.0
H548 H 0.53412 0.04222 0.46473 0.0
S549 S 0.40157 0.94934 0.45408 0.0
N550 N 0.44038 0.92755 0.48235 0.0
N551 N 0.41467 -0.00688 0.4346 0.0
C552 C 0.45228 -0.00854 0.45105 0.0
C553 C 0.46632 0.95597 0.47702 0.0
C554 C 0.53095 0.48431 0.44896 0.0
C555 C 0.53136 0.51026 0.50557 0.0
C556 C 0.4968 0.47018 0.42155 0.0
C557 C 0.46135 0.48117 0.44956 0.0
H558 H 0.55733 0.47434 0.42563 0.0
H559 H 0.4983 0.45049 0.37786 0.0
S560 S 0.44619 0.54919 0.59697 0.0
N561 N 0.49288 0.54682 0.58793 0.0
N562 N 0.42873 0.5204 0.53682 0.0
C563 C 0.46122 0.50721 0.50615 0.0
C564 C 0.4961 0.52176 0.53386 0.0
C565 C 0.99003 0.52547 0.4383 0.0
C566 C 0.97647 0.52667 0.50831 0.0
C567 C 0.00463 0.49193 0.40892 0.0
C568 C 0.00637 0.45802 0.44821 0.0
H569 H 0.98952 0.55079 0.40568 0.0
H570 H 0.01397 0.49254 0.35444 0.0
S571 S 0.97634 0.44617 0.63523 0.0
N572 N 0.96683 0.49109 0.61698 0.0
N573 N -0.00574 0.42804 0.56207 0.0
C574 C -0.00686 0.45881 0.51859 0.0
C575 C 0.97812 0.49303 0.54844 0.0
loop_
_geom_bond_atom_site_label_1
_geom_bond_atom_site_label_2
_geom_bond_distance
_geom_bond_site_symmetry_2
_ccdc_geom_bond_type
C0 O1 1.306 . S
C0 O3 1.160 . S
O1 C0 1.306 . S
O1 Cd2 2.228 . S
Cd2 O1 2.228 . S
Cd2 O6 2.273 . S
Cd2 O10 2.277 1_565 S
O3 C0 1.160 . S
O3 Cd4 2.203 1_565 S
Cd4 O3 2.203 1_545 S
Cd4 O6 2.411 1_545 S
Cd4 O7 2.333 . S
Cd4 O8 2.352 1_544 S
Cd4 O12 2.277 . S
Cd4 O13 2.356 1_554 S
C5 O10 1.209 . S
C5 O12 1.226 . S
O6 Cd2 2.273 . S
O6 Cd4 2.411 1_565 S
O6 C9 1.320 . S
O7 Cd4 2.333 . S
O7 C9 1.214 1_545 S
O8 Cd4 2.352 1_566 S
O8 C11 1.258 1_565 S
C9 O6 1.320 . S
C9 O7 1.214 1_565 S
O10 Cd2 2.277 1_545 S
O10 C5 1.209 . S
C11 O8 1.258 1_545 S
C11 O13 1.282 . S
O12 Cd4 2.277 . S
O12 C5 1.226 . S
O13 Cd4 2.356 1_556 S
O13 C11 1.282 . S
C14 O15 1.306 . S
C14 O17 1.160 . S
O15 C14 1.306 . S
O15 Cd16 2.228 . S
Cd16 O15 2.228 . S
Cd16 O20 2.273 . S
Cd16 O24 2.277 . S
O17 C14 1.160 . S
O17 Cd18 2.203 . S
Cd18 O17 2.203 . S
Cd18 O20 2.411 . S
Cd18 O21 2.333 . S
Cd18 O22 2.352 1_554 S
Cd18 O26 2.277 . S
Cd18 O27 2.356 1_554 S
C19 O24 1.209 . S
C19 O26 1.226 . S
O20 Cd16 2.273 . S
O20 Cd18 2.411 . S
O20 C23 1.320 . S
O21 Cd18 2.333 . S
O21 C23 1.214 . S
O22 Cd18 2.352 1_556 S
O22 C25 1.258 . S
C23 O20 1.320 . S
C23 O21 1.214 . S
O24 Cd16 2.277 . S
O24 C19 1.209 . S
C25 O22 1.258 . S
C25 O27 1.282 . S
O26 Cd18 2.277 . S
O26 C19 1.226 . S
O27 Cd18 2.356 1_556 S
O27 C25 1.282 . S
C28 O29 1.306 . S
C28 O31 1.160 . S
O29 C28 1.306 . S
O29 Cd30 2.228 . S
Cd30 O29 2.228 . S
Cd30 O34 2.273 . S
Cd30 O38 2.277 . S
O31 C28 1.160 . S
O31 Cd32 2.203 . S
Cd32 O31 2.203 . S
Cd32 O34 2.411 . S
Cd32 O35 2.333 . S
Cd32 O36 2.352 1_554 S
Cd32 O40 2.277 . S
Cd32 O41 2.356 1_554 S
C33 O38 1.209 . S
C33 O40 1.226 . S
O34 Cd30 2.273 . S
O34 Cd32 2.411 . S
O34 C37 1.320 . S
O35 Cd32 2.333 . S
O35 C37 1.214 . S
O36 Cd32 2.352 1_556 S
O36 C39 1.258 . S
C37 O34 1.320 . S
C37 O35 1.214 . S
O38 Cd30 2.277 . S
O38 C33 1.209 . S
C39 O36 1.258 . S
C39 O41 1.282 . S
O40 Cd32 2.277 . S
O40 C33 1.226 . S
O41 Cd32 2.356 1_556 S
O41 C39 1.282 . S
C42 O43 1.306 . S
C42 O45 1.160 . S
O43 C42 1.306 . S
O43 Cd44 2.228 . S
Cd44 O43 2.228 . S
Cd44 O48 2.273 . S
Cd44 O52 2.277 1_655 S
O45 C42 1.160 . S
O45 Cd46 2.203 1_655 S
Cd46 O45 2.203 1_455 S
Cd46 O48 2.411 1_455 S
Cd46 O49 2.333 . S
Cd46 O50 2.352 1_454 S
Cd46 O54 2.277 . S
Cd46 O55 2.356 1_554 S
C47 O52 1.209 . S
C47 O54 1.226 . S
O48 Cd44 2.273 . S
O48 Cd46 2.411 1_655 S
O48 C51 1.320 . S
O49 Cd46 2.333 . S
O49 C51 1.214 1_455 S
O50 Cd46 2.352 1_656 S
O50 C53 1.258 1_655 S
C51 O48 1.320 . S
C51 O49 1.214 1_655 S
O52 Cd44 2.277 1_455 S
O52 C47 1.209 . S
C53 O50 1.258 1_455 S
C53 O55 1.282 . S
O54 Cd46 2.277 . S
O54 C47 1.226 . S
O55 Cd46 2.356 1_556 S
O55 C53 1.282 . S
C56 O57 1.306 . S
C56 O59 1.160 . S
O57 C56 1.306 . S
O57 Cd58 2.228 . S
Cd58 O57 2.228 . S
Cd58 O62 2.273 . S
Cd58 O66 2.277 1_545 S
O59 C56 1.160 . S
O59 Cd60 2.203 1_545 S
Cd60 O59 2.203 1_565 S
Cd60 O62 2.411 1_565 S
Cd60 O63 2.333 . S
Cd60 O64 2.352 1_565 S
Cd60 O68 2.277 . S
Cd60 O69 2.356 . S
C61 O66 1.209 . S
C61 O68 1.226 . S
O62 Cd58 2.273 . S
O62 Cd60 2.411 1_545 S
O62 C65 1.320 . S
O63 Cd60 2.333 . S
O63 C65 1.214 1_565 S
O64 Cd60 2.352 1_545 S
O64 C67 1.258 1_545 S
C65 O62 1.320 . S
C65 O63 1.214 1_545 S
O66 Cd58 2.277 1_565 S
O66 C61 1.209 . S
C67 O64 1.258 1_565 S
C67 O69 1.282 . S
O68 Cd60 2.277 . S
O68 C61 1.226 . S
O69 Cd60 2.356 . S
O69 C67 1.282 . S
C70 O71 1.306 . S
C70 O73 1.160 . S
O71 C70 1.306 . S
O71 Cd72 2.228 . S
Cd72 O71 2.228 . S
Cd72 O76 2.273 . S
Cd72 O80 2.277 . S
O73 C70 1.160 . S
O73 Cd74 2.203 . S
Cd74 O73 2.203 . S
Cd74 O76 2.411 . S
Cd74 O77 2.333 . S
Cd74 O78 2.352 . S
Cd74 O82 2.277 . S
Cd74 O83 2.356 . S
C75 O80 1.209 . S
C75 O82 1.226 . S
O76 Cd72 2.273 . S
O76 Cd74 2.411 . S
O76 C79 1.320 . S
O77 Cd74 2.333 . S
O77 C79 1.214 . S
O78 Cd74 2.352 . S
O78 C81 1.258 . S
C79 O76 1.320 . S
C79 O77 1.214 . S
O80 Cd72 2.277 . S
O80 C75 1.209 . S
C81 O78 1.258 . S
C81 O83 1.282 . S
O82 Cd74 2.277 . S
O82 C75 1.226 . S
O83 Cd74 2.356 . S
O83 C81 1.282 . S
C84 O85 1.306 . S
C84 O87 1.160 . S
O85 C84 1.306 . S
O85 Cd86 2.228 . S
Cd86 O85 2.228 . S
Cd86 O90 2.273 . S
Cd86 O94 2.277 . S
O87 C84 1.160 . S
O87 Cd88 2.203 . S
Cd88 O87 2.203 . S
Cd88 O90 2.411 . S
Cd88 O91 2.333 . S
Cd88 O92 2.352 . S
Cd88 O96 2.277 . S
Cd88 O97 2.356 . S
C89 O94 1.209 . S
C89 O96 1.226 . S
O90 Cd86 2.273 . S
O90 Cd88 2.411 . S
O90 C93 1.320 . S
O91 Cd88 2.333 . S
O91 C93 1.214 . S
O92 Cd88 2.352 . S
O92 C95 1.258 . S
C93 O90 1.320 . S
C93 O91 1.214 . S
O94 Cd86 2.277 . S
O94 C89 1.209 . S
C95 O92 1.258 . S
C95 O97 1.282 . S
O96 Cd88 2.277 . S
O96 C89 1.226 . S
O97 Cd88 2.356 . S
O97 C95 1.282 . S
C98 O99 1.306 . S
C98 O101 1.160 . S
O99 C98 1.306 . S
O99 Cd100 2.228 . S
Cd100 O99 2.228 . S
Cd100 O104 2.273 . S
Cd100 O108 2.277 1_455 S
O101 C98 1.160 . S
O101 Cd102 2.203 1_455 S
Cd102 O101 2.203 1_655 S
Cd102 O104 2.411 1_655 S
Cd102 O105 2.333 . S
Cd102 O106 2.352 1_655 S
Cd102 O110 2.277 . S
Cd102 O111 2.356 . S
C103 O108 1.209 . S
C103 O110 1.226 . S
O104 Cd100 2.273 . S
O104 Cd102 2.411 1_455 S
O104 C107 1.320 . S
O105 Cd102 2.333 . S
O105 C107 1.214 1_655 S
O106 Cd102 2.352 1_455 S
O106 C109 1.258 1_455 S
C107 O104 1.320 . S
C107 O105 1.214 1_455 S
O108 Cd100 2.277 1_655 S
O108 C103 1.209 . S
C109 O106 1.258 1_655 S
C109 O111 1.282 . S
O110 Cd102 2.277 . S
O110 C103 1.226 . S
O111 Cd102 2.356 . S
O111 C109 1.282 . S
C112 O113 1.306 . S
C112 O115 1.160 . S
O113 C112 1.306 . S
O113 Cd114 2.228 . S
Cd114 O113 2.228 . S
Cd114 O118 2.273 . S
Cd114 O122 2.277 1_545 S
O115 C112 1.160 . S
O115 Cd116 2.203 1_545 S
Cd116 O115 2.203 1_565 S
Cd116 O118 2.411 1_565 S
Cd116 O119 2.333 . S
Cd116 O120 2.352 1_566 S
Cd116 O124 2.277 . S
Cd116 O125 2.356 1_556 S
C117 O122 1.209 . S
C117 O124 1.226 . S
O118 Cd114 2.273 . S
O118 Cd116 2.411 1_545 S
O118 C121 1.320 . S
O119 Cd116 2.333 . S
O119 C121 1.214 1_565 S
O120 Cd116 2.352 1_544 S
O120 C123 1.258 1_545 S
C121 O118 1.320 . S
C121 O119 1.214 1_545 S
O122 Cd114 2.277 1_565 S
O122 C117 1.209 . S
C123 O120 1.258 1_565 S
C123 O125 1.282 . S
O124 Cd116 2.277 . S
O124 C117 1.226 . S
O125 Cd116 2.356 1_554 S
O125 C123 1.282 . S
C126 O127 1.306 . S
C126 O129 1.160 . S
O127 C126 1.306 . S
O127 Cd128 2.228 . S
Cd128 O127 2.228 . S
Cd128 O132 2.273 . S
Cd128 O136 2.277 . S
O129 C126 1.160 . S
O129 Cd130 2.203 . S
Cd130 O129 2.203 . S
Cd130 O132 2.411 . S
Cd130 O133 2.333 . S
Cd130 O134 2.352 1_556 S
Cd130 O138 2.277 . S
Cd130 O139 2.356 1_556 S
C131 O136 1.209 . S
C131 O138 1.226 . S
O132 Cd128 2.273 . S
O132 Cd130 2.411 . S
O132 C135 1.320 . S
O133 Cd130 2.333 . S
O133 C135 1.214 . S
O134 Cd130 2.352 1_554 S
O134 C137 1.258 . S
C135 O132 1.320 . S
C135 O133 1.214 . S
O136 Cd128 2.277 . S
O136 C131 1.209 . S
C137 O134 1.258 . S
C137 O139 1.282 . S
O138 Cd130 2.277 . S
O138 C131 1.226 . S
O139 Cd130 2.356 1_554 S
O139 C137 1.282 . S
C140 O141 1.306 . S
C140 O143 1.160 . S
O141 C140 1.306 . S
O141 Cd142 2.228 . S
Cd142 O141 2.228 . S
Cd142 O146 2.273 . S
Cd142 O150 2.277 . S
O143 C140 1.160 . S
O143 Cd144 2.203 . S
Cd144 O143 2.203 . S
Cd144 O146 2.411 . S
Cd144 O147 2.333 . S
Cd144 O148 2.352 1_556 S
Cd144 O152 2.277 . S
Cd144 O153 2.356 1_556 S
C145 O150 1.209 . S
C145 O152 1.226 . S
O146 Cd142 2.273 . S
O146 Cd144 2.411 . S
O146 C149 1.320 . S
O147 Cd144 2.333 . S
O147 C149 1.214 . S
O148 Cd144 2.352 1_554 S
O148 C151 1.258 . S
C149 O146 1.320 . S
C149 O147 1.214 . S
O150 Cd142 2.277 . S
O150 C145 1.209 . S
C151 O148 1.258 . S
C151 O153 1.282 . S
O152 Cd144 2.277 . S
O152 C145 1.226 . S
O153 Cd144 2.356 1_554 S
O153 C151 1.282 . S
C154 O155 1.306 . S
C154 O157 1.160 . S
O155 C154 1.306 . S
O155 Cd156 2.228 . S
Cd156 O155 2.228 . S
Cd156 O160 2.273 . S
Cd156 O164 2.277 1_455 S
O157 C154 1.160 . S
O157 Cd158 2.203 1_455 S
Cd158 O157 2.203 1_655 S
Cd158 O160 2.411 1_655 S
Cd158 O161 2.333 . S
Cd158 O162 2.352 1_656 S
Cd158 O166 2.277 . S
Cd158 O167 2.356 1_556 S
C159 O164 1.209 . S
C159 O166 1.226 . S
O160 Cd156 2.273 . S
O160 Cd158 2.411 1_455 S
O160 C163 1.320 . S
O161 Cd158 2.333 . S
O161 C163 1.214 1_655 S
O162 Cd158 2.352 1_454 S
O162 C165 1.258 1_455 S
C163 O160 1.320 . S
C163 O161 1.214 1_455 S
O164 Cd156 2.277 1_655 S
O164 C159 1.209 . S
C165 O162 1.258 1_655 S
C165 O167 1.282 . S
O166 Cd158 2.277 . S
O166 C159 1.226 . S
O167 Cd158 2.356 1_554 S
O167 C165 1.282 . S
C168 O169 1.306 . S
C168 O171 1.160 . S
O169 C168 1.306 . S
O169 Cd170 2.228 . S
Cd170 O169 2.228 . S
Cd170 O174 2.273 . S
Cd170 O178 2.277 1_565 S
O171 C168 1.160 . S
O171 Cd172 2.203 1_565 S
Cd172 O171 2.203 1_545 S
Cd172 O174 2.411 1_545 S
Cd172 O175 2.333 . S
Cd172 O176 2.352 1_545 S
Cd172 O180 2.277 . S
Cd172 O181 2.356 . S
C173 O178 1.209 . S
C173 O180 1.226 . S
O174 Cd170 2.273 . S
O174 Cd172 2.411 1_565 S
O174 C177 1.320 . S
O175 Cd172 2.333 . S
O175 C177 1.214 1_545 S
O176 Cd172 2.352 1_565 S
O176 C179 1.258 1_565 S
C177 O174 1.320 . S
C177 O175 1.214 1_565 S
O178 Cd170 2.277 1_545 S
O178 C173 1.209 . S
C179 O176 1.258 1_545 S
C179 O181 1.282 . S
O180 Cd172 2.277 . S
O180 C173 1.226 . S
O181 Cd172 2.356 . S
O181 C179 1.282 . S
C182 O183 1.306 . S
C182 O185 1.160 . S
O183 C182 1.306 . S
O183 Cd184 2.228 . S
Cd184 O183 2.228 . S
Cd184 O188 2.273 . S
Cd184 O192 2.277 . S
O185 C182 1.160 . S
O185 Cd186 2.203 . S
Cd186 O185 2.203 . S
Cd186 O188 2.411 . S
Cd186 O189 2.333 . S
Cd186 O190 2.352 . S
Cd186 O194 2.277 . S
Cd186 O195 2.356 . S
C187 O192 1.209 . S
C187 O194 1.226 . S
O188 Cd184 2.273 . S
O188 Cd186 2.411 . S
O188 C191 1.320 . S
O189 Cd186 2.333 . S
O189 C191 1.214 . S
O190 Cd186 2.352 . S
O190 C193 1.258 . S
C191 O188 1.320 . S
C191 O189 1.214 . S
O192 Cd184 2.277 . S
O192 C187 1.209 . S
C193 O190 1.258 . S
C193 O195 1.282 . S
O194 Cd186 2.277 . S
O194 C187 1.226 . S
O195 Cd186 2.356 . S
O195 C193 1.282 . S
C196 O197 1.306 . S
C196 O199 1.160 . S
O197 C196 1.306 . S
O197 Cd198 2.228 . S
Cd198 O197 2.228 . S
Cd198 O202 2.273 . S
Cd198 O206 2.277 . S
O199 C196 1.160 . S
O199 Cd200 2.203 . S
Cd200 O199 2.203 . S
Cd200 O202 2.411 . S
Cd200 O203 2.333 . S
Cd200 O204 2.352 . S
Cd200 O208 2.277 . S
Cd200 O209 2.356 . S
C201 O206 1.209 . S
C201 O208 1.226 . S
O202 Cd198 2.273 . S
O202 Cd200 2.411 . S
O202 C205 1.320 . S
O203 Cd200 2.333 . S
O203 C205 1.214 . S
O204 Cd200 2.352 . S
O204 C207 1.258 . S
C205 O202 1.320 . S
C205 O203 1.214 . S
O206 Cd198 2.277 . S
O206 C201 1.209 . S
C207 O204 1.258 . S
C207 O209 1.282 . S
O208 Cd200 2.277 . S
O208 C201 1.226 . S
O209 Cd200 2.356 . S
O209 C207 1.282 . S
C210 O211 1.306 . S
C210 O213 1.160 . S
O211 C210 1.306 . S
O211 Cd212 2.228 . S
Cd212 O211 2.228 . S
Cd212 O216 2.273 . S
Cd212 O220 2.277 1_655 S
O213 C210 1.160 . S
O213 Cd214 2.203 1_655 S
Cd214 O213 2.203 1_455 S
Cd214 O216 2.411 1_455 S
Cd214 O217 2.333 . S
Cd214 O218 2.352 1_455 S
Cd214 O222 2.277 . S
Cd214 O223 2.356 . S
C215 O220 1.209 . S
C215 O222 1.226 . S
O216 Cd212 2.273 . S
O216 Cd214 2.411 1_655 S
O216 C219 1.320 . S
O217 Cd214 2.333 . S
O217 C219 1.214 1_455 S
O218 Cd214 2.352 1_655 S
O218 C221 1.258 1_655 S
C219 O216 1.320 . S
C219 O217 1.214 1_655 S
O220 Cd212 2.277 1_455 S
O220 C215 1.209 . S
C221 O218 1.258 1_455 S
C221 O223 1.282 . S
O222 Cd214 2.277 . S
O222 C215 1.226 . S
O223 Cd214 2.356 . S
O223 C221 1.282 . S
C224 C225 1.369 . S
C224 C226 1.419 . S
C224 H228 0.930 . S
C225 C224 1.369 . S
C225 C234 1.429 . S
C226 C224 1.419 . S
C226 C227 1.363 . S
C226 H229 0.929 . S
C227 C226 1.363 . S
C227 C233 1.428 . S
H228 C224 0.930 . S
H229 C226 0.929 . S
S230 N231 1.613 . S
S230 N232 1.610 . S
N231 S230 1.613 . S
N231 C234 1.350 . S
N232 S230 1.610 . S
N232 C233 1.351 . S
C233 C227 1.428 . S
C233 N232 1.351 . S
C233 C234 1.434 . S
C234 C225 1.429 . S
C234 N231 1.350 . S
C234 C233 1.434 . S
C235 C236 1.369 . S
C235 C237 1.419 . S
C235 H239 0.930 . S
C236 C235 1.369 . S
C236 C245 1.429 . S
C237 C235 1.419 . S
C237 C238 1.363 . S
C237 H240 0.929 . S
C238 C237 1.363 . S
C238 C244 1.428 . S
H239 C235 0.930 . S
H240 C237 0.929 . S
S241 N242 1.613 . S
S241 N243 1.610 . S
N242 S241 1.613 . S
N242 C245 1.350 . S
N243 S241 1.610 . S
N243 C244 1.351 . S
C244 C238 1.428 . S
C244 N243 1.351 . S
C244 C245 1.434 . S
C245 C236 1.429 . S
C245 N242 1.350 . S
C245 C244 1.434 . S
C246 C247 1.369 . S
C246 C248 1.419 . S
C246 H250 0.930 . S
C247 C246 1.369 . S
C247 C256 1.429 . S
C248 C246 1.419 . S
C248 C249 1.363 . S
C248 H251 0.929 . S
C249 C248 1.363 . S
C249 C255 1.428 . S
H250 C246 0.930 . S
H251 C248 0.929 . S
S252 N253 1.613 . S
S252 N254 1.610 . S
N253 S252 1.613 . S
N253 C256 1.350 . S
N254 S252 1.610 . S
N254 C255 1.351 . S
C255 C249 1.428 . S
C255 N254 1.351 . S
C255 C256 1.434 . S
C256 C247 1.429 . S
C256 N253 1.350 . S
C256 C255 1.434 . S
C257 C258 1.369 . S
C257 C259 1.419 . S
C257 H261 0.930 . S
C258 C257 1.369 . S
C258 C267 1.429 . S
C259 C257 1.419 . S
C259 C260 1.363 . S
C259 H262 0.929 . S
C260 C259 1.363 . S
C260 C266 1.428 . S
H261 C257 0.930 . S
H262 C259 0.929 . S
S263 N264 1.613 . S
S263 N265 1.610 . S
N264 S263 1.613 . S
N264 C267 1.350 . S
N265 S263 1.610 . S
N265 C266 1.351 . S
C266 C260 1.428 . S
C266 N265 1.351 . S
C266 C267 1.434 . S
C267 C258 1.429 . S
C267 N264 1.350 . S
C267 C266 1.434 . S
C268 C269 1.369 . S
C268 C270 1.419 . S
C268 H272 0.930 . S
C269 C268 1.369 . S
C269 C278 1.429 . S
C270 C268 1.419 . S
C270 C271 1.363 . S
C270 H273 0.929 . S
C271 C270 1.363 . S
C271 C277 1.428 . S
H272 C268 0.930 . S
H273 C270 0.929 . S
S274 N275 1.613 . S
S274 N276 1.610 . S
N275 S274 1.613 . S
N275 C278 1.350 . S
N276 S274 1.610 . S
N276 C277 1.351 . S
C277 C271 1.428 . S
C277 N276 1.351 . S
C277 C278 1.434 . S
C278 C269 1.429 . S
C278 N275 1.350 . S
C278 C277 1.434 . S
C279 C280 1.369 . S
C279 C281 1.419 . S
C279 H283 0.930 . S
C280 C279 1.369 . S
C280 C289 1.429 . S
C281 C279 1.419 . S
C281 C282 1.363 . S
C281 H284 0.929 . S
C282 C281 1.363 . S
C282 C288 1.428 . S
H283 C279 0.930 . S
H284 C281 0.929 . S
S285 N286 1.613 . S
S285 N287 1.610 . S
N286 S285 1.613 . S
N286 C289 1.350 . S
N287 S285 1.610 . S
N287 C288 1.351 . S
C288 C282 1.428 . S
C288 N287 1.351 . S
C288 C289 1.434 . S
C289 C280 1.429 . S
C289 N286 1.350 . S
C289 C288 1.434 . S
C290 C291 1.369 . S
C290 C292 1.419 . S
C290 H294 0.930 . S
C291 C290 1.369 . S
C291 C300 1.429 . S
C292 C290 1.419 . S
C292 C293 1.363 . S
C292 H295 0.929 . S
C293 C292 1.363 . S
C293 C299 1.428 . S
H294 C290 0.930 . S
H295 C292 0.929 . S
S296 N297 1.613 . S
S296 N298 1.610 . S
N297 S296 1.613 . S
N297 C300 1.350 . S
N298 S296 1.610 . S
N298 C299 1.351 . S
C299 C293 1.428 . S
C299 N298 1.351 . S
C299 C300 1.434 . S
C300 C291 1.429 . S
C300 N297 1.350 . S
C300 C299 1.434 . S
C301 C302 1.369 . S
C301 C303 1.419 . S
C301 H305 0.930 . S
C302 C301 1.369 . S
C302 C311 1.429 . S
C303 C301 1.419 . S
C303 C304 1.363 . S
C303 H306 0.929 . S
C304 C303 1.363 . S
C304 C310 1.428 . S
H305 C301 0.930 . S
H306 C303 0.929 . S
S307 N308 1.613 . S
S307 N309 1.610 . S
N308 S307 1.613 . S
N308 C311 1.350 . S
N309 S307 1.610 . S
N309 C310 1.351 . S
C310 C304 1.428 . S
C310 N309 1.351 . S
C310 C311 1.434 . S
C311 C302 1.429 . S
C311 N308 1.350 . S
C311 C310 1.434 . S
C312 C313 1.369 . S
C312 C314 1.419 . S
C312 H316 0.930 . S
C313 C312 1.369 . S
C313 C322 1.429 1_565 S
C314 C312 1.419 . S
C314 C315 1.363 . S
C314 H317 0.929 . S
C315 C314 1.363 . S
C315 C321 1.428 1_565 S
H316 C312 0.930 . S
H317 C314 0.929 . S
S318 N319 1.613 . S
S318 N320 1.610 . S
N319 S318 1.613 . S
N319 C322 1.350 . S
N320 S318 1.610 . S
N320 C321 1.351 . S
C321 C315 1.428 1_545 S
C321 N320 1.351 . S
C321 C322 1.434 . S
C322 C313 1.429 1_545 S
C322 N319 1.350 . S
C322 C321 1.434 . S
C323 C324 1.369 . S
C323 C325 1.419 . S
C323 H327 0.930 . S
C324 C323 1.369 . S
C324 C333 1.429 . S
C325 C323 1.419 . S
C325 C326 1.363 . S
C325 H328 0.929 . S
C326 C325 1.363 . S
C326 C332 1.428 . S
H327 C323 0.930 . S
H328 C325 0.929 . S
S329 N330 1.613 . S
S329 N331 1.610 . S
N330 S329 1.613 . S
N330 C333 1.350 . S
N331 S329 1.610 . S
N331 C332 1.351 . S
C332 C326 1.428 . S
C332 N331 1.351 . S
C332 C333 1.434 . S
C333 C324 1.429 . S
C333 N330 1.350 . S
C333 C332 1.434 . S
C334 C335 1.369 . S
C334 C336 1.419 . S
C334 H338 0.930 . S
C335 C334 1.369 . S
C335 C344 1.429 . S
C336 C334 1.419 . S
C336 C337 1.363 . S
C336 H339 0.929 . S
C337 C336 1.363 . S
C337 C343 1.428 . S
H338 C334 0.930 . S
H339 C336 0.929 . S
S340 N341 1.613 . S
S340 N342 1.610 . S
N341 S340 1.613 . S
N341 C344 1.350 . S
N342 S340 1.610 . S
N342 C343 1.351 . S
C343 C337 1.428 . S
C343 N342 1.351 . S
C343 C344 1.434 . S
C344 C335 1.429 . S
C344 N341 1.350 . S
C344 C343 1.434 . S
C345 C346 1.369 . S
C345 C347 1.419 . S
C345 H349 0.930 . S
C346 C345 1.369 . S
C346 C355 1.429 . S
C347 C345 1.419 . S
C347 C348 1.363 . S
C347 H350 0.929 . S
C348 C347 1.363 . S
C348 C354 1.428 . S
H349 C345 0.930 . S
H350 C347 0.929 . S
S351 N352 1.613 . S
S351 N353 1.610 1_455 S
N352 S351 1.613 . S
N352 C355 1.350 1_455 S
N353 S351 1.610 1_655 S
N353 C354 1.351 . S
C354 C348 1.428 . S
C354 N353 1.351 . S
C354 C355 1.434 . S
C355 C346 1.429 . S
C355 N352 1.350 1_655 S
C355 C354 1.434 . S
C356 C357 1.369 1_565 S
C356 C358 1.419 . S
C356 H360 0.930 . S
C357 C356 1.369 1_545 S
C357 C366 1.429 . S
C358 C356 1.419 . S
C358 C359 1.363 1_565 S
C358 H361 0.929 . S
C359 C358 1.363 1_545 S
C359 C365 1.428 . S
H360 C356 0.930 . S
H361 C358 0.929 . S
S362 N363 1.613 . S
S362 N364 1.610 . S
N363 S362 1.613 . S
N363 C366 1.350 . S
N364 S362 1.610 . S
N364 C365 1.351 . S
C365 C359 1.428 . S
C365 N364 1.351 . S
C365 C366 1.434 . S
C366 C357 1.429 . S
C366 N363 1.350 . S
C366 C365 1.434 . S
C367 C368 1.369 . S
C367 C369 1.419 . S
C367 H371 0.930 . S
C368 C367 1.369 . S
C368 C377 1.429 . S
C369 C367 1.419 . S
C369 C370 1.363 . S
C369 H372 0.929 . S
C370 C369 1.363 . S
C370 C376 1.428 . S
H371 C367 0.930 . S
H372 C369 0.929 . S
S373 N374 1.613 . S
S373 N375 1.610 . S
N374 S373 1.613 . S
N374 C377 1.350 . S
N375 S373 1.610 . S
N375 C376 1.351 . S
C376 C370 1.428 . S
C376 N375 1.351 . S
C376 C377 1.434 . S
C377 C368 1.429 . S
C377 N374 1.350 . S
C377 C376 1.434 . S
C378 C379 1.369 . S
C378 C380 1.419 . S
C378 H382 0.930 . S
C379 C378 1.369 . S
C379 C388 1.429 . S
C380 C378 1.419 . S
C380 C381 1.363 . S
C380 H383 0.929 . S
C381 C380 1.363 . S
C381 C387 1.428 . S
H382 C378 0.930 . S
H383 C380 0.929 . S
S384 N385 1.613 . S
S384 N386 1.610 . S
N385 S384 1.613 . S
N385 C388 1.350 . S
N386 S384 1.610 . S
N386 C387 1.351 . S
C387 C381 1.428 . S
C387 N386 1.351 . S
C387 C388 1.434 . S
C388 C379 1.429 . S
C388 N385 1.350 . S
C388 C387 1.434 . S
C389 C390 1.369 . S
C389 C391 1.419 . S
C389 H393 0.930 . S
C390 C389 1.369 . S
C390 C399 1.429 1_455 S
C391 C389 1.419 . S
C391 C392 1.363 . S
C391 H394 0.929 . S
C392 C391 1.363 . S
C392 C398 1.428 . S
H393 C389 0.930 . S
H394 C391 0.929 . S
S395 N396 1.613 . S
S395 N397 1.610 . S
N396 S395 1.613 . S
N396 C399 1.350 . S
N397 S395 1.610 . S
N397 C398 1.351 1_655 S
C398 C392 1.428 . S
C398 N397 1.351 1_455 S
C398 C399 1.434 1_455 S
C399 C390 1.429 1_655 S
C399 N396 1.350 . S
C399 C398 1.434 1_655 S
C400 C401 1.369 . S
C400 C402 1.419 . S
C400 H404 0.930 . S
C401 C400 1.369 . S
C401 C410 1.429 . S
C402 C400 1.419 . S
C402 C403 1.363 . S
C402 H405 0.929 1_545 S
C403 C402 1.363 . S
C403 C409 1.428 . S
H404 C400 0.930 . S
H405 C402 0.929 1_565 S
S406 N407 1.613 . S
S406 N408 1.610 . S
N407 S406 1.613 . S
N407 C410 1.350 . S
N408 S406 1.610 . S
N408 C409 1.351 . S
C409 C403 1.428 . S
C409 N408 1.351 . S
C409 C410 1.434 . S
C410 C401 1.429 . S
C410 N407 1.350 . S
C410 C409 1.434 . S
C411 C412 1.369 . S
C411 C413 1.419 . S
C411 H415 0.930 . S
C412 C411 1.369 . S
C412 C421 1.429 . S
C413 C411 1.419 . S
C413 C414 1.363 . S
C413 H416 0.929 . S
C414 C413 1.363 . S
C414 C420 1.428 . S
H415 C411 0.930 . S
H416 C413 0.929 . S
S417 N418 1.613 . S
S417 N419 1.610 . S
N418 S417 1.613 . S
N418 C421 1.350 . S
N419 S417 1.610 . S
N419 C420 1.351 . S
C420 C414 1.428 . S
C420 N419 1.351 . S
C420 C421 1.434 . S
C421 C412 1.429 . S
C421 N418 1.350 . S
C421 C420 1.434 . S
C422 C423 1.369 . S
C422 C424 1.419 . S
C422 H426 0.930 . S
C423 C422 1.369 . S
C423 C432 1.429 . S
C424 C422 1.419 . S
C424 C425 1.363 . S
C424 H427 0.929 . S
C425 C424 1.363 . S
C425 C431 1.428 . S
H426 C422 0.930 . S
H427 C424 0.929 . S
S428 N429 1.613 . S
S428 N430 1.610 . S
N429 S428 1.613 . S
N429 C432 1.350 . S
N430 S428 1.610 . S
N430 C431 1.351 . S
C431 C425 1.428 . S
C431 N430 1.351 . S
C431 C432 1.434 . S
C432 C423 1.429 . S
C432 N429 1.350 . S
C432 C431 1.434 . S
C433 C434 1.369 . S
C433 C435 1.419 . S
C433 H437 0.930 . S
C434 C433 1.369 . S
C434 C443 1.429 1_455 S
C435 C433 1.419 . S
C435 C436 1.363 . S
C435 H438 0.929 . S
C436 C435 1.363 . S
C436 C442 1.428 . S
H437 C433 0.930 . S
H438 C435 0.929 . S
S439 N440 1.613 . S
S439 N441 1.610 . S
N440 S439 1.613 . S
N440 C443 1.350 . S
N441 S439 1.610 . S
N441 C442 1.351 1_655 S
C442 C436 1.428 . S
C442 N441 1.351 1_455 S
C442 C443 1.434 1_455 S
C443 C434 1.429 1_655 S
C443 N440 1.350 . S
C443 C442 1.434 1_655 S
C444 C445 1.369 . S
C444 C446 1.419 . S
C444 H448 0.930 . S
C445 C444 1.369 . S
C445 C454 1.410 1_565 S
C446 C444 1.419 . S
C446 C447 1.363 . S
C446 H449 0.929 . S
C447 C446 1.363 . S
C447 C453 1.428 1_565 S
H448 C444 0.930 . S
H449 C446 0.929 . S
S450 N451 1.613 . S
S450 N452 1.610 . S
N451 S450 1.613 . S
N451 C454 1.363 . S
N452 S450 1.610 . S
N452 C453 1.351 . S
C453 C447 1.428 1_545 S
C453 N452 1.351 . S
C453 C454 1.442 . S
C454 C445 1.410 1_545 S
C454 N451 1.363 . S
C454 C453 1.442 . S
C455 C456 1.369 . S
C455 C457 1.419 . S
C455 H459 0.930 . S
C456 C455 1.369 . S
C456 C465 1.429 . S
C457 C455 1.419 . S
C457 C458 1.363 . S
C457 H460 0.929 . S
C458 C457 1.363 . S
C458 C464 1.428 . S
H459 C455 0.930 . S
H460 C457 0.929 . S
S461 N462 1.613 . S
S461 N463 1.610 . S
N462 S461 1.613 . S
N462 C465 1.350 . S
N463 S461 1.610 . S
N463 C464 1.351 . S
C464 C458 1.428 . S
C464 N463 1.351 . S
C464 C465 1.434 . S
C465 C456 1.429 . S
C465 N462 1.350 . S
C465 C464 1.434 . S
C466 C467 1.369 . S
C466 C468 1.419 . S
C466 H470 0.930 . S
C467 C466 1.369 . S
C467 C476 1.429 . S
C468 C466 1.419 . S
C468 C469 1.363 . S
C468 H471 0.929 . S
C469 C468 1.363 . S
C469 C475 1.428 . S
H470 C466 0.930 . S
H471 C468 0.929 . S
S472 N473 1.613 . S
S472 N474 1.610 . S
N473 S472 1.613 . S
N473 C476 1.350 . S
N474 S472 1.610 . S
N474 C475 1.351 . S
C475 C469 1.428 . S
C475 N474 1.351 . S
C475 C476 1.434 . S
C476 C467 1.429 . S
C476 N473 1.350 . S
C476 C475 1.434 . S
C477 C478 1.369 . S
C477 C479 1.427 . S
C477 H481 0.930 . S
C478 C477 1.369 . S
C478 C487 1.429 . S
C479 C477 1.427 . S
C479 C480 1.365 . S
C479 H482 0.920 1_655 S
C480 C479 1.365 . S
C480 C486 1.428 . S
H481 C477 0.930 . S
H482 C479 0.920 1_455 S
S483 N484 1.613 . S
S483 N485 1.610 . S
N484 S483 1.613 . S
N484 C487 1.350 . S
N485 S483 1.610 . S
N485 C486 1.351 . S
C486 C480 1.428 . S
C486 N485 1.351 . S
C486 C487 1.434 . S
C487 C478 1.429 . S
C487 N484 1.350 . S
C487 C486 1.434 . S
C488 C489 1.369 1_564 S
C488 C490 1.419 . S
C488 H492 0.930 . S
C489 C488 1.369 1_546 S
C489 C498 1.429 . S
C490 C488 1.419 . S
C490 C491 1.363 . S
C490 H493 0.929 . S
C491 C490 1.363 . S
C491 C497 1.428 1_564 S
H492 C488 0.930 . S
H493 C490 0.929 . S
S494 N495 1.613 . S
S494 N496 1.610 . S
N495 S494 1.613 . S
N495 C498 1.350 . S
N496 S494 1.610 . S
N496 C497 1.351 . S
C497 C491 1.428 1_546 S
C497 N496 1.351 . S
C497 C498 1.434 . S
C498 C489 1.429 . S
C498 N495 1.350 . S
C498 C497 1.434 . S
C499 C500 1.369 . S
C499 C501 1.419 . S
C499 H503 0.930 . S
C500 C499 1.369 . S
C500 C509 1.429 1_556 S
C501 C499 1.419 . S
C501 C502 1.363 1_556 S
C501 H504 0.929 . S
C502 C501 1.363 1_554 S
C502 C508 1.428 . S
H503 C499 0.930 . S
H504 C501 0.929 . S
S505 N506 1.613 . S
S505 N507 1.610 . S
N506 S505 1.613 . S
N506 C509 1.350 . S
N507 S505 1.610 . S
N507 C508 1.351 . S
C508 C502 1.428 . S
C508 N507 1.351 . S
C508 C509 1.434 . S
C509 C500 1.429 1_554 S
C509 N506 1.350 . S
C509 C508 1.434 . S
C510 C511 1.369 . S
C510 C512 1.419 1_554 S
C510 H514 0.930 . S
C511 C510 1.369 . S
C511 C520 1.429 1_655 S
C512 C510 1.419 1_556 S
C512 C513 1.363 1_655 S
C512 H515 0.929 . S
C513 C512 1.363 1_455 S
C513 C519 1.428 . S
H514 C510 0.930 . S
H515 C512 0.929 . S
S516 N517 1.613 . S
S516 N518 1.610 . S
N517 S516 1.613 . S
N517 C520 1.350 1_556 S
N518 S516 1.610 . S
N518 C519 1.351 . S
C519 C513 1.428 . S
C519 N518 1.351 . S
C519 C520 1.433 1_556 S
C520 C511 1.429 1_455 S
C520 N517 1.350 1_554 S
C520 C519 1.433 1_554 S
C521 C522 1.369 1_554 S
C521 C523 1.419 1_545 S
C521 H525 0.930 . S
C522 C521 1.369 1_556 S
C522 C531 1.429 1_455 S
C523 C521 1.419 1_565 S
C523 C524 1.363 1_455 S
C523 H526 0.929 . S
C524 C523 1.363 1_655 S
C524 C530 1.444 1_554 S
H525 C521 0.930 . S
H526 C523 0.929 . S
S527 N528 1.613 . S
S527 N529 1.610 . S
N528 S527 1.613 . S
N528 C531 1.350 . S
N529 S527 1.610 . S
N529 C530 1.349 1_545 S
C530 C524 1.444 1_556 S
C530 N529 1.349 1_565 S
C530 C531 1.418 1_565 S
C531 C522 1.429 1_655 S
C531 N528 1.350 . S
C531 C530 1.418 1_545 S
C532 C533 1.369 . S
C532 C534 1.419 1_455 S
C532 H536 0.930 . S
C533 C532 1.369 . S
C533 C542 1.429 1_545 S
C534 C532 1.419 1_655 S
C534 C535 1.363 1_545 S
C534 H537 0.929 . S
C535 C534 1.363 1_565 S
C535 C541 1.428 . S
H536 C532 0.930 . S
H537 C534 0.929 . S
S538 N539 1.613 . S
S538 N540 1.610 1_455 S
N539 S538 1.613 . S
N539 C542 1.350 . S
N540 S538 1.610 1_655 S
N540 C541 1.351 . S
C541 C535 1.428 . S
C541 N540 1.351 . S
C541 C542 1.434 1_655 S
C542 C533 1.429 1_565 S
C542 N539 1.350 . S
C542 C541 1.434 1_455 S
C543 C544 1.370 1_545 S
C543 C545 1.417 . S
C543 H547 0.930 . S
C544 C543 1.370 1_565 S
C544 C553 1.429 . S
C545 C543 1.417 . S
C545 C546 1.363 . S
C545 H548 0.929 . S
C546 C545 1.363 . S
C546 C552 1.428 1_545 S
H547 C543 0.930 . S
H548 C545 0.929 . S
S549 N550 1.613 . S
S549 N551 1.610 . S
N550 S549 1.613 . S
N550 C553 1.350 . S
N551 S549 1.610 . S
N551 C552 1.351 . S
C552 C546 1.428 1_565 S
C552 N551 1.351 . S
C552 C553 1.434 . S
C553 C544 1.429 . S
C553 N550 1.350 . S
C553 C552 1.434 . S
C554 C555 1.369 . S
C554 C556 1.419 . S
C554 H558 0.930 . S
C555 C554 1.369 . S
C555 C564 1.429 . S
C556 C554 1.419 . S
C556 C557 1.363 . S
C556 H559 0.929 . S
C557 C556 1.363 . S
C557 C563 1.428 . S
H558 C554 0.930 . S
H559 C556 0.929 . S
S560 N561 1.613 . S
S560 N562 1.610 . S
N561 S560 1.613 . S
N561 C564 1.350 . S
N562 S560 1.610 . S
N562 C563 1.351 . S
C563 C557 1.428 . S
C563 N562 1.351 . S
C563 C564 1.434 . S
C564 C555 1.429 . S
C564 N561 1.350 . S
C564 C563 1.434 . S
C565 C566 1.369 . S
C565 C567 1.419 1_655 S
C565 H569 0.930 . S
C566 C565 1.369 . S
C566 C575 1.429 . S
C567 C565 1.419 1_455 S
C567 C568 1.363 . S
C567 H570 0.929 . S
C568 C567 1.363 . S
C568 C574 1.428 . S
H569 C565 0.930 . S
H570 C567 0.929 . S
S571 N572 1.613 . S
S571 N573 1.610 1_655 S
N572 S571 1.613 . S
N572 C575 1.350 . S
N573 S571 1.610 1_455 S
N573 C574 1.351 . S
C574 C568 1.428 . S
C574 N573 1.351 . S
C574 C575 1.434 1_455 S
C575 C566 1.429 . S
C575 N572 1.350 . S
C575 C574 1.434 1_655 S
C225 C75 0.627 . S
C227 C5 0.617 . S
C236 C89 0.622 . S
C238 C19 0.633 . S
C247 C33 0.612 . S
C249 C103 0.623 . S
C258 C47 0.624 . S
C260 C61 0.608 . S
C269 C117 0.629 . S
C271 C187 0.619 . S
C280 C201 0.619 . S
C282 C131 0.625 . S
C291 C215 0.630 . S
C293 C145 0.615 . S
C302 C159 0.624 . S
C304 C173 0.612 . S
C313 C11 1.665 1_565 S
C315 C177 1.560 . S
C324 C191 1.568 . S
C326 C25 1.682 . S
C335 C39 1.668 . S
C337 C205 1.576 . S
C346 C53 1.665 1_655 S
C348 C219 1.567 . S
C357 C67 1.663 1_545 S
C359 C121 1.571 . S
C368 C81 1.669 . S
C370 C135 1.574 . S
C379 C95 1.682 . S
C381 C149 1.569 . S
C390 C109 1.664 1_455 S
C392 C163 1.563 . S
C401 C65 1.567 . S
C403 C123 1.663 1_545 S
C412 C79 1.576 . S
C414 C137 1.679 . S
C423 C93 1.575 . S
C425 C151 1.669 . S
C434 C165 1.665 1_455 S
C436 C107 1.567 . S
C445 C9 1.562 . S
C447 C179 1.666 1_565 S
C456 C193 1.670 . S
C458 C23 1.571 . S
C467 C207 1.681 . S
C469 C37 1.571 . S
C478 C51 1.564 . S
C480 C221 1.664 1_655 S
C489 C112 1.761 . S
C491 C0 1.759 . S
C500 C126 1.778 . S
C502 C14 1.767 . S
C511 C28 1.816 . S
C513 C140 1.805 . S
C522 C154 1.768 . S
C524 C42 1.776 . S
C533 C56 1.771 . S
C535 C168 1.774 . S
C544 C182 1.804 . S
C546 C70 1.813 . S
C555 C196 1.772 . S
C557 C84 1.772 . S
C566 C210 1.756 . S
C568 C98 1.762 . S
