# Generated by pormake.
# Topology ske, (6)-cn, num edge types: 1
# Building blocks:
#     Node 0, Type 0, BuildingBlock: UKALOJ_clean_sbu_0, # of connection points: 6
#     Node 1, Type 0, BuildingBlock: UKALOJ_clean_sbu_0, # of connection points: 6
#     Node 2, Type 0, BuildingBlock: UKALOJ_clean_sbu_0, # of connection points: 6
#     Node 3, Type 0, BuildingBlock: UKALOJ_clean_sbu_0, # of connection points: 6
#     Node 4, Type 0, BuildingBlock: UKALOJ_clean_sbu_0, # of connection points: 6
#     Node 5, Type 0, BuildingBlock: UKALOJ_clean_sbu_0, # of connection points: 6
#     Node 6, Type 0, BuildingBlock: UKALOJ_clean_sbu_0, # of connection points: 6
#     Node 7, Type 0, BuildingBlock: UKALOJ_clean_sbu_0, # of connection points: 6
#     Edge 8, Type (0, 0), BuildingBlock: XUDNAN_clean_linker_2, # of connection points: 2
#     Edge 9, Type (0, 0), BuildingBlock: XUDNAN_clean_linker_2, # of connection points: 2
#     Edge 10, Type (0, 0), BuildingBlock: XUDNAN_clean_linker_2, # of connection points: 2
#     Edge 11, Type (0, 0), BuildingBlock: XUDNAN_clean_linker_2, # of connection points: 2
#     Edge 12, Type (0, 0), BuildingBlock: XUDNAN_clean_linker_2, # of connection points: 2
#     Edge 13, Type (0, 0), BuildingBlock: XUDNAN_clean_linker_2, # of connection points: 2
#     Edge 14, Type (0, 0), BuildingBlock: XUDNAN_clean_linker_2, # of connection points: 2
#     Edge 15, Type (0, 0), BuildingBlock: XUDNAN_clean_linker_2, # of connection points: 2
#     Edge 16, Type (0, 0), BuildingBlock: XUDNAN_clean_linker_2, # of connection points: 2
#     Edge 17, Type (0, 0), BuildingBlock: XUDNAN_clean_linker_2, # of connection points: 2
#     Edge 18, Type (0, 0), BuildingBlock: XUDNAN_clean_linker_2, # of connection points: 2
#     Edge 19, Type (0, 0), BuildingBlock: XUDNAN_clean_linker_2, # of connection points: 2
#     Edge 20, Type (0, 0), BuildingBlock: XUDNAN_clean_linker_2, # of connection points: 2
#     Edge 21, Type (0, 0), BuildingBlock: XUDNAN_clean_linker_2, # of connection points: 2
#     Edge 22, Type (0, 0), BuildingBlock: XUDNAN_clean_linker_2, # of connection points: 2
#     Edge 23, Type (0, 0), BuildingBlock: XUDNAN_clean_linker_2, # of connection points: 2
#     Edge 24, Type (0, 0), BuildingBlock: XUDNAN_clean_linker_2, # of connection points: 2
#     Edge 25, Type (0, 0), BuildingBlock: XUDNAN_clean_linker_2, # of connection points: 2
#     Edge 26, Type (0, 0), BuildingBlock: XUDNAN_clean_linker_2, # of connection points: 2
#     Edge 27, Type (0, 0), BuildingBlock: XUDNAN_clean_linker_2, # of connection points: 2
#     Edge 28, Type (0, 0), BuildingBlock: XUDNAN_clean_linker_2, # of connection points: 2
#     Edge 29, Type (0, 0), BuildingBlock: XUDNAN_clean_linker_2, # of connection points: 2
#     Edge 30, Type (0, 0), BuildingBlock: XUDNAN_clean_linker_2, # of connection points: 2
#     Edge 31, Type (0, 0), BuildingBlock: XUDNAN_clean_linker_2, # of connection points: 2
# Relax obj value: 0.072
# Max RMSD: 0.118
# Mean RMSD: 0.118
data_MOF--net-ske--node1-UKALOJ_clean_sbu_0--edge1-XUDNAN_clean_linker_2
_symmetry_space_group_name_H-M    P1
_symmetry_Int_Tables_number       1
_symmetry_cell_setting            triclinic
loop_
_symmetry_equiv_pos_as_xyz
'x, y, z'
_cell_length_a     57.987949
_cell_length_b     40.556714
_cell_length_c     15.043525
_cell_angle_alpha  90.054564
_cell_angle_beta   90.009576
_cell_angle_gamma 90.287687
loop_
_atom_site_label
_atom_site_type_symbol
_atom_site_fract_x
_atom_site_fract_y
_atom_site_fract_z
_atom_type_partial_charge
Zn0 Zn 0.13913 0.27822 0.52968 0.0
O1 O 0.13161 0.27262 0.66233 0.0
C2 C 0.1852 0.2491 0.56959 0.0
Zn3 Zn 0.1391 0.22358 0.52171 0.0
C4 C 0.12996 0.24543 0.70327 0.0
O5 O 0.13278 0.21846 0.66144 0.0
C6 C 0.1467 0.25797 0.34666 0.0
O7 O 0.10359 0.22428 0.49572 0.0
O8 O 0.10288 0.27844 0.50189 0.0
N9 N 0.14037 0.17401 0.50152 0.0
C10 C 0.13041 0.14744 0.53958 0.0
C11 C 0.15138 0.13012 0.43304 0.0
N12 N 0.15339 0.16311 0.43556 0.0
N13 N 0.13708 0.11961 0.49759 0.0
C14 C 0.13407 0.35403 0.49778 0.0
C15 C 0.15118 0.37301 0.61241 0.0
N16 N 0.14037 0.32805 0.54791 0.0
N17 N 0.15094 0.33995 0.61913 0.0
N18 N 0.1409 0.38259 0.53644 0.0
H19 H 0.13255 0.35231 0.35643 0.0
H20 H 0.10822 0.37211 0.40766 0.0
H21 H 0.11088 0.32775 0.41022 0.0
C22 C 0.12049 0.35132 0.41347 0.0
C23 C 0.11334 0.14909 0.61405 0.0
H24 H 0.12278 0.14943 0.67821 0.0
H25 H 0.10165 0.12734 0.61309 0.0
H26 H 0.10305 0.17199 0.60932 0.0
O27 O 0.14514 0.22977 0.38276 0.0
O28 O 0.14605 0.28362 0.39488 0.0
C29 C 0.09239 0.25108 0.49052 0.0
O30 O 0.1752 0.27678 0.56227 0.0
O31 O 0.17421 0.22302 0.54971 0.0
Zn32 Zn 0.88032 0.30355 0.51469 0.0
O33 O 0.91635 0.29903 0.4918 0.0
C34 C 0.86909 0.27189 0.33906 0.0
Zn35 Zn 0.87429 0.24911 0.51982 0.0
C36 C 0.92394 0.2697 0.48629 0.0
O37 O 0.91007 0.24555 0.49546 0.0
C38 C 0.83092 0.28309 0.553 0.0
O39 O 0.88026 0.25506 0.65913 0.0
O40 O 0.88576 0.30862 0.64876 0.0
N41 N 0.87315 0.19895 0.53733 0.0
C42 C 0.86376 0.1738 0.49067 0.0
C43 C 0.88288 0.15276 0.59723 0.0
N44 N 0.88494 0.18573 0.60362 0.0
N45 N 0.86976 0.14452 0.52664 0.0
C46 C 0.88979 0.3803 0.53447 0.0
C47 C 0.87216 0.3972 0.41891 0.0
N48 N 0.88115 0.35348 0.49261 0.0
N49 N 0.87024 0.36422 0.42102 0.0
N50 N 0.88433 0.40806 0.48931 0.0
H51 H 0.89312 0.3778 0.67556 0.0
H52 H 0.91565 0.40112 0.62138 0.0
H53 H 0.91529 0.35648 0.61517 0.0
C54 C 0.90445 0.37894 0.61622 0.0
C55 C 0.84766 0.17811 0.41377 0.0
H56 H 0.83725 0.20075 0.42273 0.0
H57 H 0.83595 0.15653 0.40714 0.0
H58 H 0.85784 0.18059 0.35167 0.0
O59 O 0.83847 0.25377 0.5462 0.0
O60 O 0.84456 0.30722 0.53961 0.0
C61 C 0.88394 0.28284 0.69601 0.0
O62 O 0.87407 0.29797 0.38104 0.0
O63 O 0.86813 0.24461 0.3802 0.0
Zn64 Zn 0.13629 0.77894 0.44948 0.0
O65 O 0.09983 0.7836 0.473 0.0
C66 C 0.14436 0.75464 0.6306 0.0
Zn67 Zn 0.13399 0.72435 0.45591 0.0
C68 C 0.0887 0.75704 0.4872 0.0
O69 O 0.09916 0.72978 0.48305 0.0
C70 C 0.1814 0.74429 0.41511 0.0
O71 O 0.12728 0.72069 0.32185 0.0
O72 O 0.13025 0.77459 0.31015 0.0
N73 N 0.12932 0.67507 0.47394 0.0
C74 C 0.13609 0.64706 0.43333 0.0
C75 C 0.11573 0.63332 0.54544 0.0
N76 N 0.11661 0.66635 0.54314 0.0
N77 N 0.12776 0.62039 0.47734 0.0
C78 C 0.13332 0.85418 0.48919 0.0
C79 C 0.14905 0.87464 0.37355 0.0
N80 N 0.13971 0.82882 0.43666 0.0
N81 N 0.1495 0.84161 0.36501 0.0
N82 N 0.13908 0.88325 0.45105 0.0
H83 H 0.11102 0.82681 0.57828 0.0
H84 H 0.10826 0.87101 0.58485 0.0
H85 H 0.13312 0.85074 0.63094 0.0
C86 C 0.12055 0.85042 0.57534 0.0
C87 C 0.15135 0.6461 0.35298 0.0
H88 H 0.14064 0.64093 0.29346 0.0
H89 H 0.16435 0.62628 0.3597 0.0
H90 H 0.16013 0.66998 0.34201 0.0
O91 O 0.16884 0.71914 0.42938 0.0
O92 O 0.17265 0.77296 0.42221 0.0
C93 C 0.1277 0.74643 0.27395 0.0
O94 O 0.14294 0.78198 0.58981 0.0
O95 O 0.14131 0.72799 0.58846 0.0
Zn96 Zn 0.87711 0.80357 0.45456 0.0
O97 O 0.88349 0.80559 0.31444 0.0
C98 C 0.82872 0.78362 0.41056 0.0
Zn99 Zn 0.87202 0.74907 0.45325 0.0
C100 C 0.8842 0.77753 0.27647 0.0
O101 O 0.88067 0.7516 0.32154 0.0
C102 C 0.86556 0.77271 0.63216 0.0
O103 O 0.90728 0.74452 0.48571 0.0
O104 O 0.91281 0.79799 0.4782 0.0
N105 N 0.86882 0.69868 0.44207 0.0
C106 C 0.87576 0.6733 0.4936 0.0
C107 C 0.86006 0.65265 0.37806 0.0
N108 N 0.85902 0.68569 0.37056 0.0
N109 N 0.8704 0.64416 0.45487 0.0
C110 C 0.87357 0.88045 0.42565 0.0
C111 C 0.89061 0.89709 0.54309 0.0
N112 N 0.88094 0.85348 0.46976 0.0
N113 N 0.89163 0.86401 0.54222 0.0
N114 N 0.87936 0.9082 0.47082 0.0
H115 H 0.85311 0.85437 0.32783 0.0
H116 H 0.87135 0.88625 0.28487 0.0
H117 H 0.84558 0.89734 0.34399 0.0
C118 C 0.85994 0.87939 0.34112 0.0
C119 C 0.88908 0.67689 0.57854 0.0
H120 H 0.89517 0.70239 0.58942 0.0
H121 H 0.904 0.65986 0.57839 0.0
H122 H 0.87785 0.6701 0.63518 0.0
O123 O 0.86347 0.74701 0.58492 0.0
O124 O 0.87089 0.79994 0.59534 0.0
C125 C 0.92074 0.76926 0.49081 0.0
O126 O 0.84148 0.80835 0.42869 0.0
O127 O 0.83692 0.75472 0.41754 0.0
Zn128 Zn 0.63882 0.80559 0.02737 0.0
O129 O 0.63394 0.81286 0.16248 0.0
C130 C 0.68528 0.77872 0.06599 0.0
Zn131 Zn 0.63835 0.75044 0.03626 0.0
C132 C 0.63266 0.78717 0.21055 0.0
O133 O 0.63313 0.7588 0.1745 0.0
C134 C 0.64634 0.77035 0.85381 0.0
O135 O 0.60164 0.7522 0.01467 0.0
O136 O 0.60355 0.80632 0.00462 0.0
N137 N 0.63784 0.70043 0.06101 0.0
C138 C 0.62852 0.67324 0.02275 0.0
C139 C 0.64578 0.65771 0.14037 0.0
N140 N 0.6486 0.6905 0.13371 0.0
N141 N 0.63325 0.646 0.0717 0.0
C142 C 0.63049 0.88307 0.02039 0.0
C143 C 0.65931 0.89653 0.94027 0.0
N144 N 0.64212 0.85513 0.00134 0.0
N145 N 0.65993 0.86373 0.95145 0.0
N146 N 0.64101 0.90958 0.98253 0.0
H147 H 0.59392 0.88454 0.03589 0.0
H148 H 0.60976 0.90647 0.12075 0.0
H149 H 0.6085 0.8618 0.12091 0.0
C150 C 0.60954 0.88405 0.07844 0.0
C151 C 0.61412 0.67382 0.94019 0.0
H152 H 0.6074 0.69888 0.92734 0.0
H153 H 0.5996 0.65601 0.94574 0.0
H154 H 0.62496 0.66655 0.88273 0.0
O155 O 0.64404 0.74336 0.89617 0.0
O156 O 0.64452 0.79752 0.89458 0.0
C157 C 0.5917 0.77988 0.00295 0.0
O158 O 0.67383 0.8046 0.05106 0.0
O159 O 0.67516 0.75082 0.06179 0.0
Zn160 Zn 0.38042 0.72989 0.07157 0.0
O161 O 0.38734 0.7331 0.20419 0.0
C162 C 0.33107 0.74691 0.1093 0.0
Zn163 Zn 0.37358 0.78433 0.06878 0.0
C164 C 0.38557 0.7597 0.24785 0.0
O165 O 0.37947 0.78606 0.20878 0.0
C166 C 0.37031 0.75289 0.89158 0.0
O167 O 0.40931 0.79094 0.04656 0.0
O168 O 0.4158 0.73765 0.04354 0.0
N169 N 0.36847 0.8348 0.06678 0.0
C170 C 0.37495 0.8587 0.0092 0.0
C171 C 0.35709 0.88206 0.11553 0.0
N172 N 0.35737 0.84946 0.13261 0.0
N173 N 0.36795 0.88875 0.03826 0.0
C174 C 0.37626 0.65418 0.02959 0.0
C175 C 0.40086 0.63374 0.11879 0.0
N176 N 0.38572 0.67954 0.07552 0.0
N177 N 0.40098 0.66668 0.13088 0.0
N178 N 0.38558 0.62519 0.05522 0.0
H179 H 0.34602 0.63517 0.96314 0.0
H180 H 0.3644 0.66109 0.89648 0.0
H181 H 0.34621 0.67931 0.97965 0.0
C182 C 0.35701 0.65765 0.96385 0.0
C183 C 0.38896 0.85252 0.92704 0.0
H184 H 0.39846 0.82908 0.93105 0.0
H185 H 0.40143 0.87293 0.9158 0.0
H186 H 0.37723 0.85073 0.86893 0.0
O187 O 0.36825 0.78101 0.9283 0.0
O188 O 0.37406 0.72769 0.93889 0.0
C189 C 0.42323 0.76708 0.037 0.0
O190 O 0.34522 0.7232 0.10196 0.0
O191 O 0.33795 0.77624 0.09447 0.0
Zn192 Zn 0.63341 0.30803 0.91002 0.0
O193 O 0.5979 0.29949 0.93863 0.0
C194 C 0.64539 0.28725 0.08886 0.0
Zn195 Zn 0.6405 0.25371 0.91183 0.0
C196 C 0.59102 0.26984 0.94829 0.0
O197 O 0.60534 0.24639 0.9402 0.0
C198 C 0.68273 0.29081 0.86765 0.0
O199 O 0.63398 0.25015 0.77103 0.0
O200 O 0.6264 0.30314 0.7787 0.0
N201 N 0.64676 0.20411 0.92505 0.0
C202 C 0.63439 0.17648 0.90814 0.0
C203 C 0.66519 0.16183 0.97395 0.0
N204 N 0.66588 0.19483 0.96577 0.0
N205 N 0.64554 0.14947 0.93903 0.0
C206 C 0.61993 0.38214 0.95239 0.0
C207 C 0.63746 0.40698 0.84753 0.0
N208 N 0.62939 0.35874 0.89983 0.0
N209 N 0.64011 0.37438 0.83455 0.0
N210 N 0.62503 0.41287 0.92158 0.0
H211 H 0.59675 0.34991 0.02422 0.0
H212 H 0.59107 0.39325 0.03741 0.0
H213 H 0.61539 0.3744 0.09188 0.0
C214 C 0.60482 0.37449 0.03062 0.0
C215 C 0.61213 0.17622 0.8577 0.0
H216 H 0.59756 0.17669 0.90536 0.0
H217 H 0.61067 0.15362 0.81641 0.0
H218 H 0.6108 0.19826 0.81459 0.0
O219 O 0.67561 0.26165 0.88195 0.0
O220 O 0.66889 0.31476 0.87782 0.0
C221 C 0.6281 0.27697 0.73321 0.0
O222 O 0.64052 0.31234 0.04247 0.0
O223 O 0.64686 0.25914 0.05168 0.0
Zn224 Zn 0.37543 0.22772 0.93379 0.0
O225 O 0.41094 0.22268 0.94899 0.0
C226 C 0.36835 0.24985 0.11269 0.0
Zn227 Zn 0.37628 0.28302 0.93564 0.0
C228 C 0.42271 0.24892 0.95905 0.0
O229 O 0.41265 0.27677 0.95712 0.0
C230 C 0.32906 0.26039 0.90789 0.0
O231 O 0.38189 0.28883 0.8027 0.0
O232 O 0.37946 0.23469 0.79359 0.0
N233 N 0.3804 0.33274 0.96077 0.0
C234 C 0.37339 0.36142 0.92397 0.0
C235 C 0.39274 0.37355 0.03996 0.0
N236 N 0.39247 0.34055 0.03249 0.0
N237 N 0.38091 0.38753 0.97287 0.0
C238 C 0.38031 0.14979 0.94112 0.0
C239 C 0.35428 0.13638 0.84755 0.0
N240 N 0.37054 0.17798 0.91196 0.0
N241 N 0.35436 0.16942 0.8542 0.0
N242 N 0.37035 0.12328 0.90139 0.0
H243 H 0.41662 0.15294 0.96044 0.0
H244 H 0.4026 0.12484 0.0351 0.0
H245 H 0.3999 0.16898 0.051 0.0
C246 C 0.40091 0.14888 0.00108 0.0
C247 C 0.35851 0.36346 0.8428 0.0
H248 H 0.34934 0.3399 0.83062 0.0
H249 H 0.36957 0.36856 0.7842 0.0
H250 H 0.34586 0.38374 0.84959 0.0
O251 O 0.33996 0.28767 0.91179 0.0
O252 O 0.33994 0.23362 0.91847 0.0
C253 C 0.38136 0.26274 0.75612 0.0
O254 O 0.37088 0.22236 0.07326 0.0
O255 O 0.3699 0.2765 0.0692 0.0
H256 H 0.2197 0.29603 0.59737 0.0
H257 H 0.19924 0.19545 0.66039 0.0
H258 H 0.2312 0.19131 0.76595 0.0
H259 H 0.28166 0.27852 0.60399 0.0
H260 H 0.28923 0.31811 0.65042 0.0
H261 H 0.26405 0.31404 0.58104 0.0
H262 H 0.23918 0.33901 0.70712 0.0
H263 H 0.26423 0.34244 0.77756 0.0
H264 H 0.2392 0.31995 0.81533 0.0
H265 H 0.26316 0.19782 0.86924 0.0
H266 H 0.29999 0.20993 0.94274 0.0
H267 H 0.30344 0.30459 0.80828 0.0
C268 C 0.2222 0.27306 0.63265 0.0
C269 C 0.20691 0.24609 0.62046 0.0
C270 C 0.21077 0.21639 0.66767 0.0
C271 C 0.22873 0.21387 0.72887 0.0
C272 C 0.24307 0.24101 0.74121 0.0
C273 C 0.24062 0.2697 0.6928 0.0
C274 C 0.25981 0.29403 0.71533 0.0
C275 C 0.27456 0.30161 0.63279 0.0
C276 C 0.25001 0.32574 0.75627 0.0
C277 C 0.27326 0.27434 0.78378 0.0
C278 C 0.26279 0.24418 0.79873 0.0
C279 C 0.27169 0.22123 0.8578 0.0
C280 C 0.29259 0.22844 0.89951 0.0
C281 C 0.30462 0.25813 0.88104 0.0
C282 C 0.29446 0.28192 0.82461 0.0
H283 H 0.7152 0.24448 0.82275 0.0
H284 H 0.70193 0.3498 0.81849 0.0
H285 H 0.73756 0.35859 0.73211 0.0
H286 H 0.77791 0.25097 0.84341 0.0
H287 H 0.78293 0.21573 0.77306 0.0
H288 H 0.75692 0.21807 0.83814 0.0
H289 H 0.73273 0.21009 0.6948 0.0
H290 H 0.75865 0.20842 0.62901 0.0
H291 H 0.73665 0.23816 0.60311 0.0
H292 H 0.77329 0.35584 0.64006 0.0
H293 H 0.80938 0.34263 0.56192 0.0
H294 H 0.79985 0.23901 0.62577 0.0
C295 C 0.71997 0.26947 0.80503 0.0
C296 C 0.70575 0.29647 0.82768 0.0
C297 C 0.71256 0.32873 0.8024 0.0
C298 C 0.73271 0.33397 0.75281 0.0
C299 C 0.74591 0.30673 0.72927 0.0
C300 C 0.74005 0.27517 0.75557 0.0
C301 C 0.75728 0.2502 0.72113 0.0
C302 C 0.76949 0.23272 0.79855 0.0
C303 C 0.74562 0.22525 0.65828 0.0
C304 C 0.77369 0.27268 0.67105 0.0
C305 C 0.76669 0.30515 0.67626 0.0
C306 C 0.77902 0.33054 0.63583 0.0
C307 C 0.79946 0.32271 0.5912 0.0
C308 C 0.80747 0.28976 0.58747 0.0
C309 C 0.7941 0.26437 0.62659 0.0
H310 H 0.29791 0.79209 0.15816 0.0
H311 H 0.3119 0.687 0.14675 0.0
H312 H 0.27599 0.67581 0.22855 0.0
H313 H 0.27489 0.79337 0.37607 0.0
H314 H 0.25263 0.82302 0.35296 0.0
H315 H 0.27891 0.82342 0.28914 0.0
H316 H 0.25558 0.81785 0.14294 0.0
H317 H 0.2292 0.8181 0.20616 0.0
H318 H 0.23509 0.78456 0.13098 0.0
H319 H 0.24045 0.67573 0.31933 0.0
H320 H 0.20409 0.68604 0.39803 0.0
H321 H 0.21176 0.79114 0.34909 0.0
C322 C 0.2932 0.7667 0.1714 0.0
C323 C 0.30779 0.74043 0.14601 0.0
C324 C 0.30107 0.70756 0.16536 0.0
C325 C 0.28073 0.70092 0.21223 0.0
C326 C 0.26718 0.72737 0.23884 0.0
C327 C 0.27283 0.75956 0.21794 0.0
C328 C 0.25505 0.7833 0.25478 0.0
C329 C 0.26603 0.80718 0.32224 0.0
C330 C 0.24301 0.80205 0.17921 0.0
C331 C 0.23867 0.75935 0.30009 0.0
C332 C 0.24619 0.72727 0.29047 0.0
C333 C 0.23425 0.70071 0.32677 0.0
C334 C 0.21363 0.7069 0.37181 0.0
C335 C 0.20498 0.73942 0.3798 0.0
C336 C 0.21796 0.76604 0.34469 0.0
H337 H 0.71279 0.73276 0.15185 0.0
H338 H 0.7112 0.83444 0.06096 0.0
H339 H 0.7464 0.84642 0.14536 0.0
H340 H 0.73223 0.74825 0.36884 0.0
H341 H 0.75172 0.71387 0.37595 0.0
H342 H 0.72694 0.71159 0.30394 0.0
H343 H 0.75316 0.69881 0.16893 0.0
H344 H 0.77798 0.70019 0.24096 0.0
H345 H 0.77694 0.72603 0.14364 0.0
H346 H 0.77826 0.84993 0.25244 0.0
H347 H 0.81135 0.8419 0.35165 0.0
H348 H 0.7955 0.73718 0.36669 0.0
C349 C 0.72024 0.75725 0.14777 0.0
C350 C 0.70906 0.78269 0.10028 0.0
C351 C 0.71927 0.81454 0.09728 0.0
C352 C 0.73925 0.82172 0.14542 0.0
C353 C 0.74915 0.79669 0.19512 0.0
C354 C 0.74055 0.76484 0.1947 0.0
C355 C 0.75506 0.74269 0.25361 0.0
C356 C 0.74062 0.72825 0.33011 0.0
C357 C 0.76646 0.71531 0.19849 0.0
C358 C 0.77279 0.76733 0.28787 0.0
C359 C 0.7687 0.79838 0.25413 0.0
C360 C 0.78198 0.82562 0.27815 0.0
C361 C 0.80067 0.8208 0.33522 0.0
C362 C 0.80624 0.78886 0.3664 0.0
C363 C 0.79175 0.76189 0.34381 0.0
H364 H 0.12743 0.9347 0.34815 0.0
H365 H 0.14381 0.9077 0.61929 0.0
H366 H 0.13905 0.96567 0.66603 0.0
H367 H 0.1601 1.00662 0.34759 0.0
H368 H 0.14073 0.02961 0.27766 0.0
H369 H 0.14171 0.98543 0.26931 0.0
H370 H 0.09771 0.98231 0.29918 0.0
H371 H 0.09663 0.0266 0.30808 0.0
H372 H 0.08604 1.00126 0.39773 0.0
H373 H 0.13619 0.02779 0.67983 0.0
H374 H 0.13841 0.08829 0.65664 0.0
H375 H 0.12545 0.07426 0.37592 0.0
C376 C 0.12954 0.94095 0.41767 0.0
C377 C 0.13515 0.91653 0.4806 0.0
C378 C 0.13844 0.92568 0.57064 0.0
C379 C 0.13594 0.95863 0.59765 0.0
C380 C 0.13032 0.98212 0.53367 0.0
C381 C 0.12729 0.97363 0.44537 0.0
C382 C 0.12375 1.0037 0.38782 0.0
C383 C 0.14271 1.0065 0.31645 0.0
C384 C 0.09959 1.00344 0.34574 0.0
C385 C 0.12597 0.03058 0.45696 0.0
C386 C 0.1293 0.01774 0.54107 0.0
C387 C 0.13319 0.03809 0.61454 0.0
C388 C 0.13425 0.07236 0.60109 0.0
C389 C 0.13167 0.08567 0.51484 0.0
C390 C 0.12707 0.06451 0.4426 0.0
H391 H 0.89572 0.45557 0.37327 0.0
H392 H 0.87885 0.4381 0.64948 0.0
H393 H 0.87742 0.49836 0.67576 0.0
H394 H 0.93016 0.53304 0.40665 0.0
H395 H 0.9188 0.55092 0.3062 0.0
H396 H 0.92244 0.50691 0.31419 0.0
H397 H 0.87936 0.49856 0.27386 0.0
H398 H 0.87547 0.54243 0.26706 0.0
H399 H 0.85755 0.51828 0.34042 0.0
H400 H 0.87166 0.56012 0.66467 0.0
H401 H 0.86447 0.61773 0.61994 0.0
H402 H 0.88582 0.59479 0.35124 0.0
C403 C 0.89253 0.46456 0.43992 0.0
C404 C 0.88795 0.44233 0.50987 0.0
C405 C 0.88318 0.45475 0.5958 0.0
C406 C 0.88213 0.48893 0.61098 0.0
C407 C 0.88603 0.51022 0.53957 0.0
C408 C 0.89146 0.49844 0.45593 0.0
C409 C 0.89292 0.52603 0.38847 0.0
C410 C 0.91755 0.52943 0.35174 0.0
C411 C 0.87527 0.52101 0.31307 0.0
C412 C 0.88667 0.55514 0.44635 0.0
C413 C 0.88296 0.54566 0.53347 0.0
C414 C 0.87526 0.56798 0.59735 0.0
C415 C 0.87144 0.60079 0.57159 0.0
C416 C 0.87544 0.61101 0.4829 0.0
C417 C 0.88309 0.58774 0.41985 0.0
H418 H 0.8667 0.95226 0.59466 0.0
H419 H 0.88078 0.94179 0.3134 0.0
H420 H 0.87461 1.00164 0.29282 0.0
H421 H 0.8234 0.01877 0.57849 0.0
H422 H 0.83416 0.03892 0.67709 0.0
H423 H 0.83619 0.99476 0.66625 0.0
H424 H 0.88029 0.99827 0.69318 0.0
H425 H 0.87841 0.04232 0.70397 0.0
H426 H 0.89768 0.02455 0.62325 0.0
H427 H 0.87138 0.06397 0.30752 0.0
H428 H 0.87227 0.12225 0.35622 0.0
H429 H 0.8608 0.09145 0.62813 0.0
C430 C 0.86798 0.96249 0.52839 0.0
C431 C 0.87362 0.94224 0.45525 0.0
C432 C 0.87562 0.95654 0.36978 0.0
C433 C 0.87232 0.9906 0.3577 0.0
C434 C 0.86703 1.00992 0.43178 0.0
C435 C 0.86482 0.99624 0.51547 0.0
C436 C 0.86111 0.02238 0.58575 0.0
C437 C 0.83729 0.01847 0.62945 0.0
C438 C 0.88053 0.02184 0.65559 0.0
C439 C 0.86227 0.05311 0.52917 0.0
C440 C 0.86535 0.04553 0.44032 0.0
C441 C 0.86843 0.07013 0.37658 0.0
C442 C 0.8687 0.10321 0.40466 0.0
C443 C 0.86595 0.11134 0.49563 0.0
C444 C 0.86246 0.08587 0.55803 0.0
H445 H 0.1304 0.57491 0.60642 0.0
H446 H 0.13153 0.58637 0.31986 0.0
H447 H 0.13627 0.52626 0.30285 0.0
H448 H 0.17059 0.50811 0.6246 0.0
H449 H 0.15449 0.48781 0.71137 0.0
H450 H 0.15316 0.53195 0.69999 0.0
H451 H 0.10859 0.5285 0.68875 0.0
H452 H 0.10977 0.48434 0.69955 0.0
H453 H 0.09557 0.50254 0.60512 0.0
H454 H 0.14143 0.46422 0.31919 0.0
H455 H 0.14436 0.40622 0.36626 0.0
H456 H 0.13487 0.43572 0.6408 0.0
C457 C 0.13184 0.56486 0.53996 0.0
C458 C 0.13143 0.5856 0.46467 0.0
C459 C 0.13294 0.57138 0.37881 0.0
C460 C 0.1353 0.53712 0.36847 0.0
C461 C 0.13565 0.51749 0.44455 0.0
C462 C 0.13375 0.53092 0.52856 0.0
C463 C 0.13337 0.50465 0.59968 0.0
C464 C 0.15414 0.50836 0.66259 0.0
C465 C 0.11046 0.50504 0.65128 0.0
C466 C 0.13537 0.47417 0.54264 0.0
C467 C 0.13687 0.48199 0.45344 0.0
C468 C 0.13973 0.45779 0.38869 0.0
C469 C 0.14097 0.42476 0.41599 0.0
C470 C 0.13878 0.41621 0.507 0.0
C471 C 0.13614 0.44144 0.57069 0.0
H472 H 0.63092 0.60898 0.91842 0.0
H473 H 0.62139 0.60502 0.20408 0.0
H474 H 0.61501 0.54502 0.19515 0.0
H475 H 0.58694 0.54357 0.86466 0.0
H476 H 0.60405 0.52736 0.77481 0.0
H477 H 0.60559 0.57062 0.8021 0.0
H478 H 0.64986 0.56601 0.82038 0.0
H479 H 0.64845 0.52276 0.79405 0.0
H480 H 0.66149 0.53616 0.89677 0.0
H481 H 0.6158 0.48532 0.15938 0.0
H482 H 0.62002 0.42997 0.09784 0.0
H483 H 0.62438 0.47106 0.83202 0.0
C484 C 0.62658 0.59574 0.97849 0.0
C485 C 0.62633 0.6119 0.06199 0.0
C486 C 0.62159 0.59321 0.1395 0.0
C487 C 0.61789 0.55912 0.13509 0.0
C488 C 0.61871 0.54384 0.05236 0.0
C489 C 0.62257 0.56149 0.97514 0.0
C490 C 0.6237 0.53848 0.8955 0.0
C491 C 0.60389 0.54542 0.83041 0.0
C492 C 0.64728 0.54101 0.84898 0.0
C493 C 0.62059 0.50523 0.94065 0.0
C494 C 0.61775 0.50899 0.0311 0.0
C495 C 0.61697 0.48199 0.08814 0.0
C496 C 0.61898 0.45025 0.05194 0.0
C497 C 0.62111 0.4454 0.95889 0.0
C498 C 0.62196 0.4736 0.90303 0.0
H499 H 0.37206 0.94634 0.12917 0.0
H500 H 0.36856 0.90621 0.86213 0.0
H501 H 0.37405 0.96172 0.80048 0.0
H502 H 0.33773 0.01624 0.07883 0.0
H503 H 0.35296 0.04378 0.1527 0.0
H504 H 0.35192 1.00031 0.17629 0.0
H505 H 0.39657 0.99896 0.18156 0.0
H506 H 0.39772 0.04244 0.15707 0.0
H507 H 0.4129 1.01359 0.08742 0.0
H508 H 0.37818 0.02174 0.76673 0.0
H509 H 0.37639 0.08259 0.7631 0.0
H510 H 0.37322 0.08512 0.05061 0.0
C511 C 0.3728 0.94917 0.05769 0.0
C512 C 0.37116 0.92135 0.00083 0.0
C513 C 0.37134 0.92642 0.90761 0.0
C514 C 0.37413 0.95811 0.87175 0.0
C515 C 0.37616 0.98478 0.92973 0.0
C516 C 0.37512 0.98076 0.02074 0.0
C517 C 0.37542 1.01388 0.06802 0.0
C518 C 0.35318 0.01884 0.12212 0.0
C519 C 0.39694 0.01741 0.12701 0.0
C520 C 0.37654 0.03717 -0.01079 0.0
C521 C 0.37736 0.01975 0.9102 0.0
C522 C 0.37773 0.03561 0.82818 0.0
C523 C 0.37675 0.07012 0.82671 0.0
C524 C 0.3753 0.08855 0.90647 0.0
C525 C 0.37534 0.07178 -0.01116 0.0
H526 H 0.37648 0.43135 0.10634 0.0
H527 H 0.37952 0.42397 0.81919 0.0
H528 H 0.37736 0.48467 0.80801 0.0
H529 H 0.33859 0.50338 0.12117 0.0
H530 H 0.3542 0.52035 0.21436 0.0
H531 H 0.3529 0.47634 0.19834 0.0
H532 H 0.39755 0.47387 0.20002 0.0
H533 H 0.399 0.51781 0.21561 0.0
H534 H 0.41377 0.49902 0.12328 0.0
H535 H 0.37797 0.54727 0.83015 0.0
H536 H 0.38228 0.60484 0.88338 0.0
H537 H 0.38059 0.5706 0.15573 0.0
C538 C 0.37625 0.44245 0.04092 0.0
C539 C 0.37745 0.42265 0.96359 0.0
C540 C 0.37761 0.43826 0.87933 0.0
C541 C 0.37665 0.47287 0.87244 0.0
C542 C 0.37571 0.49157 0.95038 0.0
C543 C 0.37553 0.47677 0.03305 0.0
C544 C 0.37623 0.50211 0.10704 0.0
C545 C 0.35416 0.50044 0.16354 0.0
C546 C 0.39793 0.49795 0.16484 0.0
C547 C 0.37728 0.5336 0.05337 0.0
C548 C 0.37667 0.52715 0.9631 0.0
C549 C 0.37813 0.55253 0.90069 0.0
C550 C 0.3804 0.58517 0.93141 0.0
C551 C 0.38129 0.59214 0.02363 0.0
C552 C 0.3797 0.56592 0.08494 0.0
H553 H 0.67458 0.09792 0.93316 0.0
H554 H 0.60218 0.12241 0.95746 0.0
H555 H 0.59252 0.06326 0.97004 0.0
H556 H 0.66828 0.02211 0.81059 0.0
H557 H 0.69121 1.00195 0.87008 0.0
H558 H 0.6918 0.04602 0.85593 0.0
H559 H 0.69506 0.05343 0.02672 0.0
H560 H 0.69425 1.00939 0.04143 0.0
H561 H 0.67359 0.035 0.09795 0.0
H562 H 0.5912 0.99974 0.97935 0.0
H563 H 0.59855 0.93983 -0.01264 0.0
H564 H 0.67211 0.95891 0.97415 0.0
C565 C 0.65664 0.09088 0.94007 0.0
C566 C 0.63912 0.11496 0.94078 0.0
C567 C 0.61589 0.10462 0.95199 0.0
C568 C 0.61025 0.07096 0.96072 0.0
C569 C 0.62806 0.04795 0.95989 0.0
C570 C 0.65081 0.05764 0.95032 0.0
C571 C 0.66696 0.02857 0.95535 0.0
C572 C 0.68034 0.02442 0.86777 0.0
C573 C 0.68343 0.03181 0.03512 0.0
C574 C 0.6498 1.00086 0.96891 0.0
C575 C 0.62742 1.01228 0.97093 0.0
C576 C 0.60872 0.99066 0.97946 0.0
C577 C 0.61308 0.95656 -0.01461 0.0
C578 C 0.63598 0.94448 -0.01567 0.0
C579 C 0.65441 0.96725 0.97631 0.0
H580 H 0.15939 0.21402 0.21479 0.0
H581 H 0.12636 0.30833 0.2607 0.0
H582 H 0.11533 0.31122 0.1041 0.0
H583 H 0.18245 0.23673 -0.0037 0.0
H584 H 0.17841 0.19611 0.95002 0.0
H585 H 0.18362 0.201 0.06734 0.0
H586 H 0.14605 0.16835 0.10045 0.0
H587 H 0.14047 0.16407 0.98312 0.0
H588 H 0.11912 0.18242 0.05455 0.0
H589 H 0.10589 0.30353 0.94875 0.0
H590 H 0.10549 0.2916 0.78891 0.0
H591 H 0.14627 0.20363 0.83377 0.0
C592 C 0.15015 0.23544 0.19118 0.0
C593 C 0.14391 0.26117 0.24986 0.0
C594 C 0.13177 0.28875 0.21695 0.0
C595 C 0.12506 0.29036 0.12821 0.0
C596 C 0.13088 0.26435 0.07271 0.0
C597 C 0.1437 0.23783 0.10156 0.0
C598 C 0.14874 0.21442 0.02518 0.0
C599 C 0.17485 0.21193 0.00873 0.0
C600 C 0.13794 0.18029 0.04186 0.0
C601 C 0.13667 0.2321 0.94951 0.0
C602 C 0.12611 0.26046 0.97973 0.0
C603 C 0.11417 0.28154 0.92379 0.0
C604 C 0.11398 0.27447 0.83327 0.0
C605 C 0.1259 0.24679 0.79944 0.0
C606 C 0.13675 0.22464 0.8584 0.0
H607 H 0.87813 0.22675 0.20562 0.0
H608 H 0.85124 0.32468 0.25746 0.0
H609 H 0.8519 0.33697 0.0981 0.0
H610 H 0.91669 0.24875 0.04114 0.0
H611 H 0.9121 0.21391 0.96866 0.0
H612 H 0.90687 0.20995 0.08615 0.0
H613 H 0.86495 0.19061 0.05616 0.0
H614 H 0.87022 0.19363 0.93834 0.0
H615 H 0.8464 0.21544 -0.01251 0.0
H616 H 0.86139 0.34278 0.94229 0.0
H617 H 0.87155 0.33795 0.78464 0.0
H618 H 0.89009 0.23531 0.82474 0.0
C619 C 0.87164 0.25025 0.18266 0.0
C620 C 0.86483 0.2749 0.24339 0.0
C621 C 0.85676 0.30562 0.21174 0.0
C622 C 0.85706 0.31288 0.12145 0.0
C623 C 0.86513 0.28896 0.06354 0.0
C624 C 0.87165 0.25792 0.09174 0.0
C625 C 0.88032 0.23748 0.01419 0.0
C626 C 0.90549 0.22691 0.02844 0.0
C627 C 0.86452 0.20752 -0.00192 0.0
C628 C 0.87836 0.26243 0.93949 0.0
C629 C 0.86973 0.29196 0.97029 0.0
C630 C 0.8677 0.31961 0.91646 0.0
C631 C 0.87383 0.31671 0.82729 0.0
C632 C 0.88158 0.28626 0.79267 0.0
C633 C 0.88411 0.25883 0.84968 0.0
H634 H 0.12048 0.79301 0.1428 0.0
H635 H 0.1413 0.69151 0.1873 0.0
H636 H 0.15197 0.68636 0.03058 0.0
H637 H 0.09469 0.77655 0.92631 0.0
H638 H 0.10345 0.81558 0.87972 0.0
H639 H 0.09816 0.81207 -0.00271 0.0
H640 H 0.13922 0.83486 0.02836 0.0
H641 H 0.1448 0.83769 0.91072 0.0
H642 H 0.16383 0.81429 0.98105 0.0
H643 H 0.16221 0.6919 0.87558 0.0
H644 H 0.1634 0.70335 0.71585 0.0
H645 H 0.13344 0.79988 0.7617 0.0
C646 C 0.12704 0.76966 0.11898 0.0
C647 C 0.13013 0.7427 0.17725 0.0
C648 C 0.13863 0.71244 0.14394 0.0
C649 C 0.14505 0.70935 0.05519 0.0
C650 C 0.1425 0.73655 0.0002 0.0
C651 C 0.13307 0.76581 0.02941 0.0
C652 C 0.13068 0.79013 0.95331 0.0
C653 C 0.10523 0.7991 0.93826 0.0
C654 C 0.14552 0.82108 0.96936 0.0
C655 C 0.14013 0.76968 0.87716 0.0
C656 C 0.14737 0.73922 0.90709 0.0
C657 C 0.15646 0.71551 0.85082 0.0
C658 C 0.15709 0.72232 0.76028 0.0
C659 C 0.14831 0.75236 0.72671 0.0
C660 C 0.14046 0.77689 0.78599 0.0
H661 H 0.86632 0.82153 0.76183 0.0
H662 H 0.86594 0.71527 0.72308 0.0
H663 H 0.87498 0.70715 0.87988 0.0
H664 H 0.9108 0.82692 0.92392 0.0
H665 H 0.89677 0.85679 -0.006 0.0
H666 H 0.89065 0.85571 0.87656 0.0
H667 H 0.84699 0.84875 0.90868 0.0
H668 H 0.85294 0.85066 0.02613 0.0
H669 H 0.8374 0.81593 0.9807 0.0
H670 H 0.88812 0.70961 0.03167 0.0
H671 H 0.8932 0.72082 0.18991 0.0
H672 H 0.88001 0.82497 0.14424 0.0
C673 C 0.86783 0.79661 0.78689 0.0
C674 C 0.86604 0.76904 0.72948 0.0
C675 C 0.8677 0.7368 0.76493 0.0
C676 C 0.87298 0.73186 0.85402 0.0
C677 C 0.87578 0.75939 0.9077 0.0
C678 C 0.87232 0.79107 0.87726 0.0
C679 C 0.87453 0.8158 0.9528 0.0
C680 C 0.89437 0.84025 0.93575 0.0
C681 C 0.8516 0.83384 0.96798 0.0
C682 C 0.88009 0.79282 0.02948 0.0
C683 C 0.88131 0.76058 0.00033 0.0
C684 C 0.88674 0.73461 0.0562 0.0
C685 C 0.88967 0.74136 0.14603 0.0
C686 C 0.88655 0.7737 0.17969 0.0
C687 C 0.88248 0.80005 0.12028 0.0
H688 H 0.61954 0.74245 0.33884 0.0
H689 H 0.65242 0.83785 0.29999 0.0
H690 H 0.66316 0.83933 0.45797 0.0
H691 H 0.59557 0.76274 0.55591 0.0
H692 H 0.59942 0.72177 0.59962 0.0
H693 H 0.59486 0.72764 0.48232 0.0
H694 H 0.63264 0.69594 0.45006 0.0
H695 H 0.6376 0.6907 0.56748 0.0
H696 H 0.6593 0.71005 0.49909 0.0
H697 H 0.67227 0.82993 0.61371 0.0
H698 H 0.67173 0.81672 0.77262 0.0
H699 H 0.63059 0.72911 0.71938 0.0
C700 C 0.62874 0.76378 0.36416 0.0
C701 C 0.6352 0.79004 0.30742 0.0
C702 C 0.64713 0.81764 0.3425 0.0
C703 C 0.65359 0.8185 0.43181 0.0
C704 C 0.64765 0.79184 0.4853 0.0
C705 C 0.6349 0.76544 0.45405 0.0
C706 C 0.62947 0.74127 0.52832 0.0
C707 C 0.60328 0.73819 0.54239 0.0
C708 C 0.64041 0.70749 0.51011 0.0
C709 C 0.64111 0.75845 0.60609 0.0
C710 C 0.65195 0.78712 0.57842 0.0
C711 C 0.66371 0.80773 0.63659 0.0
C712 C 0.66334 0.79992 0.72662 0.0
C713 C 0.65098 0.77204 0.75796 0.0
C714 C 0.64039 0.7503 0.69679 0.0
H715 H 0.35856 0.79708 0.75848 0.0
H716 H 0.38943 0.70115 0.80697 0.0
H717 H 0.40011 0.69699 0.65083 0.0
H718 H 0.33418 0.77367 0.54442 0.0
H719 H 0.33893 0.81352 0.49458 0.0
H720 H 0.33434 0.81025 0.61263 0.0
H721 H 0.3729 0.84124 0.64018 0.0
H722 H 0.3778 0.84401 0.52206 0.0
H723 H 0.39915 0.82535 0.59279 0.0
H724 H 0.4092 0.70279 0.49621 0.0
H725 H 0.40902 0.71275 0.33586 0.0
H726 H 0.37008 0.80287 0.37653 0.0
C727 C 0.36735 0.77516 0.73567 0.0
C728 C 0.37319 0.74955 0.79507 0.0
C729 C 0.3846 0.72107 0.76297 0.0
C730 C 0.39106 0.71856 0.67441 0.0
C731 C 0.3857 0.74445 0.61823 0.0
C732 C 0.37355 0.77178 0.64611 0.0
C733 C 0.36859 0.79457 0.56855 0.0
C734 C 0.34246 0.7982 0.55419 0.0
C735 C 0.38031 0.82829 0.58172 0.0
C736 C 0.37976 0.7754 0.49343 0.0
C737 C 0.38999 0.74704 0.52497 0.0
C738 C 0.40115 0.72475 0.47005 0.0
C739 C 0.40093 0.73067 0.37913 0.0
C740 C 0.38931 0.75837 0.34406 0.0
C741 C 0.37921 0.78165 0.40196 0.0
H742 H 0.65151 0.23889 0.21741 0.0
H743 H 0.64015 0.34396 0.18125 0.0
H744 H 0.63117 0.34967 0.33891 0.0
H745 H 0.60913 0.22313 0.37945 0.0
H746 H 0.62631 0.19676 0.44921 0.0
H747 H 0.63231 0.19945 0.3319 0.0
H748 H 0.67462 0.21637 0.36455 0.0
H749 H 0.66891 0.2128 0.4819 0.0
H750 H 0.68036 0.25075 0.43746 0.0
H751 H 0.6177 0.3435 0.48909 0.0
H752 H 0.61285 0.33067 0.64605 0.0
H753 H 0.6387 0.23147 0.60036 0.0
C754 C 0.64757 0.26315 0.24322 0.0
C755 C 0.64569 0.29078 0.18624 0.0
C756 C 0.64093 0.32223 0.22268 0.0
C757 C 0.63576 0.32579 0.3123 0.0
C758 C 0.6363 0.2979 0.36541 0.0
C759 C 0.64312 0.26749 0.33411 0.0
C760 C 0.64369 0.24239 0.40909 0.0
C761 C 0.62685 0.21374 0.3913 0.0
C762 C 0.66837 0.22985 0.42415 0.0
C763 C 0.63558 0.26357 0.48624 0.0
C764 C 0.63086 0.29518 0.45774 0.0
C765 C 0.62198 0.31917 0.51336 0.0
C766 C 0.61919 0.31145 0.60254 0.0
C767 C 0.62598 0.28029 0.63613 0.0
C768 C 0.63355 0.25554 0.57669 0.0
H769 H 0.38114 0.20686 0.2462 0.0
H770 H 0.3464 0.29957 0.19449 0.0
H771 H 0.34551 0.31151 0.35404 0.0
H772 H 0.34998 0.18959 0.46185 0.0
H773 H 0.37533 0.17203 0.51201 0.0
H774 H 0.37079 0.1684 0.39384 0.0
H775 H 0.41084 0.19509 0.36651 0.0
H776 H 0.41529 0.19955 0.48436 0.0
H777 H 0.4171 0.23514 0.41301 0.0
H778 H 0.35367 0.31834 0.51066 0.0
H779 H 0.36396 0.31506 0.6685 0.0
H780 H 0.39137 0.21667 0.62722 0.0
C781 C 0.3727 0.22906 0.26912 0.0
C782 C 0.36402 0.25243 0.20842 0.0
C783 C 0.35337 0.28151 0.24012 0.0
C784 C 0.35275 0.28856 0.33054 0.0
C785 C 0.36253 0.26603 0.38847 0.0
C786 C 0.37176 0.23647 0.36007 0.0
C787 C 0.38186 0.21749 0.4376 0.0
C788 C 0.3687 0.18495 0.45219 0.0
C789 C 0.40781 0.21148 0.42454 0.0
C790 C 0.3775 0.24166 0.51264 0.0
C791 C 0.36646 0.26951 0.48202 0.0
C792 C 0.36189 0.29642 0.53628 0.0
C793 C 0.36809 0.29447 0.62553 0.0
C794 C 0.37845 0.26561 0.65971 0.0
C795 C 0.38337 0.23893 0.6025 0.0
H796 H 0.06029 0.3006 0.5117 0.0
H797 H 0.06771 0.19832 0.43109 0.0
H798 H 0.02575 0.19394 0.41053 0.0
H799 H 0.00973 0.28888 0.63794 0.0
H800 H 0.9964 0.32725 0.60705 0.0
H801 H 0.02734 0.32383 0.60731 0.0
H802 H 0.02868 0.34246 0.44274 0.0
H803 H 0.9977 0.34604 0.44203 0.0
H804 H 0.01188 0.32044 0.36092 0.0
H805 H 0.98343 0.19862 0.40968 0.0
H806 H 0.94244 0.21221 0.42824 0.0
H807 H 0.96122 0.31163 0.5091 0.0
C808 C 0.05308 0.27749 0.48826 0.0
C809 C 0.06731 0.24982 0.4728 0.0
C810 C 0.0572 0.21984 0.44349 0.0
C811 C 0.03337 0.21712 0.43126 0.0
C812 C 0.0198 0.24458 0.44845 0.0
C813 C 0.02918 0.27425 0.47608 0.0
C814 C 0.01039 0.29925 0.49487 0.0
C815 C 0.01101 0.31045 0.5926 0.0
C816 C 0.01228 0.3288 0.43133 0.0
C817 C 0.98904 0.27869 0.47526 0.0
C818 C 0.99499 0.24732 0.44793 0.0
C819 C 0.97851 0.22319 0.43009 0.0
C820 C 0.95526 0.23114 0.44121 0.0
C821 C 0.94862 0.263 0.46989 0.0
C822 C 0.96577 0.28721 0.48602 0.0
H823 H 0.95683 0.8114 0.45552 0.0
H824 H 0.94026 0.71559 0.56793 0.0
H825 H 0.98157 0.70536 0.59321 0.0
H826 H 0.00529 0.78534 0.3363 0.0
H827 H 0.02211 0.82228 0.35374 0.0
H828 H 0.99112 0.82424 0.35449 0.0
H829 H 0.99215 0.85071 0.51126 0.0
H830 H 0.02321 0.84885 0.51098 0.0
H831 H 0.0071 0.83004 0.60013 0.0
H832 H 0.02381 0.70315 0.59535 0.0
H833 H 0.06548 0.70786 0.56974 0.0
H834 H 0.05593 0.80483 0.45342 0.0
C835 C 0.96192 0.78858 0.48708 0.0
C836 C 0.94538 0.76434 0.51032 0.0
C837 C 0.95266 0.73447 0.54967 0.0
C838 C 0.97606 0.72852 0.56477 0.0
C839 C 0.99195 0.75265 0.53998 0.0
C840 C 0.9853 0.78207 0.50183 0.0
C841 C 0.00613 0.80252 0.47461 0.0
C842 C 0.00616 0.80896 0.37381 0.0
C843 C 0.00721 0.83495 0.52742 0.0
C844 C 0.02547 0.77954 0.50133 0.0
C845 C 0.01677 0.75117 0.54003 0.0
C846 C 0.03089 0.72535 0.566 0.0
C847 C 0.05454 0.72824 0.55069 0.0
C848 C 0.06393 0.75671 0.50942 0.0
C849 C 0.04924 0.78299 0.486 0.0
H850 H 0.55871 0.73137 0.02776 0.0
H851 H 0.56761 0.83398 0.95171 0.0
H852 H 0.52557 0.84038 0.94314 0.0
H853 H 0.50716 0.7153 0.88841 0.0
H854 H 0.4938 0.68938 0.97116 0.0
H855 H 0.52479 0.69167 0.96347 0.0
H856 H 0.527 0.70841 0.12951 0.0
H857 H 0.49605 0.70638 0.13758 0.0
H858 H 0.51108 0.74376 0.16778 0.0
H859 H 0.48316 0.8377 0.95541 0.0
H860 H 0.44218 0.82532 0.98306 0.0
H861 H 0.45981 0.72431 0.04932 0.0
C862 C 0.55179 0.75498 0.00771 0.0
C863 C 0.56648 0.78215 -0.00961 0.0
C864 C 0.55675 0.81279 0.96549 0.0
C865 C 0.53286 0.8167 0.96016 0.0
C866 C 0.51886 0.78973 0.9795 0.0
C867 C 0.52786 0.75938 0.00216 0.0
C868 C 0.50877 0.735 0.02411 0.0
C869 C 0.50862 0.70613 0.95781 0.0
C870 C 0.51086 0.72268 0.12047 0.0
C871 C 0.48777 0.7567 0.01215 0.0
C872 C 0.49405 0.78811 -0.01406 0.0
C873 C 0.47795 0.81309 0.97487 0.0
C874 C 0.45472 0.80584 -0.00885 0.0
C875 C 0.44779 0.77383 0.01803 0.0
C876 C 0.46457 0.7489 0.0279 0.0
H877 H 0.45485 0.29854 0.94102 0.0
H878 H 0.44755 0.19464 0.00519 0.0
H879 H 0.48972 0.19018 0.02044 0.0
H880 H 0.50444 0.29006 0.80747 0.0
H881 H 0.51791 0.32798 0.84316 0.0
H882 H 0.48699 0.32398 0.84513 0.0
H883 H 0.48669 0.33917 0.01247 0.0
H884 H 0.51765 0.34323 0.01101 0.0
H885 H 0.50397 0.31574 0.08917 0.0
H886 H 0.53231 0.19586 0.02081 0.0
H887 H 0.57317 0.2109 0.00204 0.0
H888 H 0.5535 0.31103 0.93499 0.0
C889 C 0.46212 0.27498 0.95954 0.0
C890 C 0.44792 0.24693 0.97207 0.0
C891 C 0.45809 0.21642 -0.00504 0.0
C892 C 0.48202 0.21367 0.00425 0.0
C893 C 0.49555 0.24164 -0.00959 0.0
C894 C 0.48604 0.27173 0.96848 0.0
C895 C 0.50466 0.29741 0.95197 0.0
C896 C 0.50342 0.31062 0.85624 0.0
C897 C 0.50315 0.32555 0.02024 0.0
C898 C 0.52608 0.27685 0.96639 0.0
C899 C 0.52036 0.24486 -0.01055 0.0
C900 C 0.53704 0.22086 0.00319 0.0
C901 C 0.56021 0.22963 -0.00812 0.0
C902 C 0.56654 0.26208 0.96647 0.0
C903 C 0.54921 0.28609 0.95496 0.0
loop_
_geom_bond_atom_site_label_1
_geom_bond_atom_site_label_2
_geom_bond_distance
_geom_bond_site_symmetry_2
_ccdc_geom_bond_type
Zn0 O1 2.055 . S
Zn0 O8 2.046 . S
Zn0 N16 2.036 . S
Zn0 O28 2.053 . S
Zn0 O30 2.066 . S
O1 Zn0 2.055 . S
O1 C4 1.259 . S
C2 O30 1.256 . S
C2 O31 1.244 . S
Zn3 O5 2.046 . S
Zn3 O7 2.055 . S
Zn3 N9 2.036 . S
Zn3 O27 2.066 . S
Zn3 O31 2.053 . S
C4 O1 1.259 . S
C4 O5 1.254 . S
O5 Zn3 2.046 . S
O5 C4 1.254 . S
C6 O27 1.256 . S
C6 O28 1.244 . S
O7 Zn3 2.055 . S
O7 C29 1.259 . S
O8 Zn0 2.046 . S
O8 C29 1.254 . S
N9 Zn3 2.036 . S
N9 C10 1.298 . S
N9 N12 1.398 . S
C10 N9 1.298 . S
C10 N13 1.367 . S
C10 C23 1.481 . S
C11 N12 1.299 . S
C11 N13 1.379 . S
N12 N9 1.398 . S
N12 C11 1.299 . S
N13 C10 1.367 . S
N13 C11 1.379 . S
C14 N16 1.298 . S
C14 N18 1.367 . S
C14 C22 1.481 . S
C15 N17 1.299 . S
C15 N18 1.379 . S
N16 Zn0 2.036 . S
N16 C14 1.298 . S
N16 N17 1.398 . S
N17 C15 1.299 . S
N17 N16 1.398 . S
N18 C14 1.367 . S
N18 C15 1.379 . S
H19 C22 0.980 . S
H20 C22 0.981 . S
H21 C22 0.981 . S
C22 C14 1.481 . S
C22 H19 0.980 . S
C22 H20 0.981 . S
C22 H21 0.981 . S
C23 C10 1.481 . S
C23 H24 0.980 . S
C23 H25 0.981 . S
C23 H26 0.981 . S
H24 C23 0.980 . S
H25 C23 0.981 . S
H26 C23 0.981 . S
O27 Zn3 2.066 . S
O27 C6 1.256 . S
O28 Zn0 2.053 . S
O28 C6 1.244 . S
C29 O7 1.259 . S
C29 O8 1.254 . S
O30 Zn0 2.066 . S
O30 C2 1.256 . S
O31 C2 1.244 . S
O31 Zn3 2.053 . S
Zn32 O33 2.055 . S
Zn32 O40 2.046 . S
Zn32 N48 2.036 . S
Zn32 O60 2.053 . S
Zn32 O62 2.066 . S
O33 Zn32 2.055 . S
O33 C36 1.259 . S
C34 O62 1.256 . S
C34 O63 1.244 . S
Zn35 O37 2.046 . S
Zn35 O39 2.055 . S
Zn35 N41 2.036 . S
Zn35 O59 2.066 . S
Zn35 O63 2.053 . S
C36 O33 1.259 . S
C36 O37 1.254 . S
O37 Zn35 2.046 . S
O37 C36 1.254 . S
C38 O59 1.256 . S
C38 O60 1.244 . S
O39 Zn35 2.055 . S
O39 C61 1.259 . S
O40 Zn32 2.046 . S
O40 C61 1.254 . S
N41 Zn35 2.036 . S
N41 C42 1.298 . S
N41 N44 1.398 . S
C42 N41 1.298 . S
C42 N45 1.367 . S
C42 C55 1.481 . S
C43 N44 1.299 . S
C43 N45 1.379 . S
N44 N41 1.398 . S
N44 C43 1.299 . S
N45 C42 1.367 . S
N45 C43 1.379 . S
C46 N48 1.298 . S
C46 N50 1.367 . S
C46 C54 1.481 . S
C47 N49 1.299 . S
C47 N50 1.379 . S
N48 Zn32 2.036 . S
N48 C46 1.298 . S
N48 N49 1.398 . S
N49 C47 1.299 . S
N49 N48 1.398 . S
N50 C46 1.367 . S
N50 C47 1.379 . S
H51 C54 0.980 . S
H52 C54 0.981 . S
H53 C54 0.981 . S
C54 C46 1.481 . S
C54 H51 0.980 . S
C54 H52 0.981 . S
C54 H53 0.981 . S
C55 C42 1.481 . S
C55 H56 0.980 . S
C55 H57 0.981 . S
C55 H58 0.981 . S
H56 C55 0.980 . S
H57 C55 0.981 . S
H58 C55 0.981 . S
O59 Zn35 2.066 . S
O59 C38 1.256 . S
O60 Zn32 2.053 . S
O60 C38 1.244 . S
C61 O39 1.259 . S
C61 O40 1.254 . S
O62 Zn32 2.066 . S
O62 C34 1.256 . S
O63 C34 1.244 . S
O63 Zn35 2.053 . S
Zn64 O65 2.055 . S
Zn64 O72 2.046 . S
Zn64 N80 2.036 . S
Zn64 O92 2.053 . S
Zn64 O94 2.066 . S
O65 Zn64 2.055 . S
O65 C68 1.259 . S
C66 O94 1.256 . S
C66 O95 1.244 . S
Zn67 O69 2.046 . S
Zn67 O71 2.055 . S
Zn67 N73 2.036 . S
Zn67 O91 2.066 . S
Zn67 O95 2.053 . S
C68 O65 1.259 . S
C68 O69 1.254 . S
O69 Zn67 2.046 . S
O69 C68 1.254 . S
C70 O91 1.256 . S
C70 O92 1.244 . S
O71 Zn67 2.055 . S
O71 C93 1.259 . S
O72 Zn64 2.046 . S
O72 C93 1.254 . S
N73 Zn67 2.036 . S
N73 C74 1.298 . S
N73 N76 1.398 . S
C74 N73 1.298 . S
C74 N77 1.367 . S
C74 C87 1.481 . S
C75 N76 1.299 . S
C75 N77 1.379 . S
N76 N73 1.398 . S
N76 C75 1.299 . S
N77 C74 1.367 . S
N77 C75 1.379 . S
C78 N80 1.298 . S
C78 N82 1.367 . S
C78 C86 1.481 . S
C79 N81 1.299 . S
C79 N82 1.379 . S
N80 Zn64 2.036 . S
N80 C78 1.298 . S
N80 N81 1.398 . S
N81 C79 1.299 . S
N81 N80 1.398 . S
N82 C78 1.367 . S
N82 C79 1.379 . S
H83 C86 0.980 . S
H84 C86 0.981 . S
H85 C86 0.981 . S
C86 C78 1.481 . S
C86 H83 0.980 . S
C86 H84 0.981 . S
C86 H85 0.981 . S
C87 C74 1.481 . S
C87 H88 0.980 . S
C87 H89 0.981 . S
C87 H90 0.981 . S
H88 C87 0.980 . S
H89 C87 0.981 . S
H90 C87 0.981 . S
O91 Zn67 2.066 . S
O91 C70 1.256 . S
O92 Zn64 2.053 . S
O92 C70 1.244 . S
C93 O71 1.259 . S
C93 O72 1.254 . S
O94 Zn64 2.066 . S
O94 C66 1.256 . S
O95 C66 1.244 . S
O95 Zn67 2.053 . S
Zn96 O97 2.055 . S
Zn96 O104 2.046 . S
Zn96 N112 2.036 . S
Zn96 O124 2.053 . S
Zn96 O126 2.066 . S
O97 Zn96 2.055 . S
O97 C100 1.259 . S
C98 O126 1.256 . S
C98 O127 1.244 . S
Zn99 O101 2.046 . S
Zn99 O103 2.055 . S
Zn99 N105 2.036 . S
Zn99 O123 2.066 . S
Zn99 O127 2.053 . S
C100 O97 1.259 . S
C100 O101 1.254 . S
O101 Zn99 2.046 . S
O101 C100 1.254 . S
C102 O123 1.256 . S
C102 O124 1.244 . S
O103 Zn99 2.055 . S
O103 C125 1.259 . S
O104 Zn96 2.046 . S
O104 C125 1.254 . S
N105 Zn99 2.036 . S
N105 C106 1.298 . S
N105 N108 1.398 . S
C106 N105 1.298 . S
C106 N109 1.367 . S
C106 C119 1.481 . S
C107 N108 1.299 . S
C107 N109 1.379 . S
N108 N105 1.398 . S
N108 C107 1.299 . S
N109 C106 1.367 . S
N109 C107 1.379 . S
C110 N112 1.298 . S
C110 N114 1.367 . S
C110 C118 1.481 . S
C111 N113 1.299 . S
C111 N114 1.379 . S
N112 Zn96 2.036 . S
N112 C110 1.298 . S
N112 N113 1.398 . S
N113 C111 1.299 . S
N113 N112 1.398 . S
N114 C110 1.367 . S
N114 C111 1.379 . S
H115 C118 0.980 . S
H116 C118 0.981 . S
H117 C118 0.981 . S
C118 C110 1.481 . S
C118 H115 0.980 . S
C118 H116 0.981 . S
C118 H117 0.981 . S
C119 C106 1.481 . S
C119 H120 0.980 . S
C119 H121 0.981 . S
C119 H122 0.981 . S
H120 C119 0.980 . S
H121 C119 0.981 . S
H122 C119 0.981 . S
O123 Zn99 2.066 . S
O123 C102 1.256 . S
O124 Zn96 2.053 . S
O124 C102 1.244 . S
C125 O103 1.259 . S
C125 O104 1.254 . S
O126 Zn96 2.066 . S
O126 C98 1.256 . S
O127 C98 1.244 . S
O127 Zn99 2.053 . S
Zn128 O129 2.055 . S
Zn128 O136 2.046 . S
Zn128 N144 2.036 . S
Zn128 O156 2.053 1_554 S
Zn128 O158 2.066 . S
O129 Zn128 2.055 . S
O129 C132 1.259 . S
C130 O158 1.256 . S
C130 O159 1.244 . S
Zn131 O133 2.046 . S
Zn131 O135 2.055 . S
Zn131 N137 2.036 . S
Zn131 O155 2.066 1_554 S
Zn131 O159 2.053 . S
C132 O129 1.259 . S
C132 O133 1.254 . S
O133 Zn131 2.046 . S
O133 C132 1.254 . S
C134 O155 1.256 . S
C134 O156 1.244 . S
O135 Zn131 2.055 . S
O135 C157 1.259 . S
O136 Zn128 2.046 . S
O136 C157 1.254 . S
N137 Zn131 2.036 . S
N137 C138 1.298 . S
N137 N140 1.398 . S
C138 N137 1.298 . S
C138 N141 1.367 . S
C138 C151 1.481 1_554 S
C139 N140 1.299 . S
C139 N141 1.379 . S
N140 N137 1.398 . S
N140 C139 1.299 . S
N141 C138 1.367 . S
N141 C139 1.379 . S
C142 N144 1.298 . S
C142 N146 1.367 . S
C142 C150 1.481 . S
C143 N145 1.299 . S
C143 N146 1.379 1_556 S
N144 Zn128 2.036 . S
N144 C142 1.298 . S
N144 N145 1.398 1_554 S
N145 C143 1.299 . S
N145 N144 1.398 1_556 S
N146 C142 1.367 . S
N146 C143 1.379 1_554 S
H147 C150 0.980 . S
H148 C150 0.981 . S
H149 C150 0.981 . S
C150 C142 1.481 . S
C150 H147 0.980 . S
C150 H148 0.981 . S
C150 H149 0.981 . S
C151 C138 1.481 1_556 S
C151 H152 0.980 1_556 S
C151 H153 0.981 1_556 S
C151 H154 0.981 . S
H152 C151 0.980 1_554 S
H153 C151 0.981 1_554 S
H154 C151 0.981 . S
O155 Zn131 2.066 1_556 S
O155 C134 1.256 . S
O156 Zn128 2.053 1_556 S
O156 C134 1.244 . S
C157 O135 1.259 . S
C157 O136 1.254 . S
O158 Zn128 2.066 . S
O158 C130 1.256 . S
O159 C130 1.244 . S
O159 Zn131 2.053 . S
Zn160 O161 2.055 . S
Zn160 O168 2.046 . S
Zn160 N176 2.036 . S
Zn160 O188 2.053 1_554 S
Zn160 O190 2.066 . S
O161 Zn160 2.055 . S
O161 C164 1.259 . S
C162 O190 1.256 . S
C162 O191 1.244 . S
Zn163 O165 2.046 . S
Zn163 O167 2.055 . S
Zn163 N169 2.036 . S
Zn163 O187 2.066 1_554 S
Zn163 O191 2.053 . S
C164 O161 1.259 . S
C164 O165 1.254 . S
O165 Zn163 2.046 . S
O165 C164 1.254 . S
C166 O187 1.256 . S
C166 O188 1.244 . S
O167 Zn163 2.055 . S
O167 C189 1.259 . S
O168 Zn160 2.046 . S
O168 C189 1.254 . S
N169 Zn163 2.036 . S
N169 C170 1.298 . S
N169 N172 1.398 . S
C170 N169 1.298 . S
C170 N173 1.367 . S
C170 C183 1.481 1_554 S
C171 N172 1.299 . S
C171 N173 1.379 . S
N172 N169 1.398 . S
N172 C171 1.299 . S
N173 C170 1.367 . S
N173 C171 1.379 . S
C174 N176 1.298 . S
C174 N178 1.367 . S
C174 C182 1.481 . S
C175 N177 1.299 . S
C175 N178 1.379 1_556 S
N176 Zn160 2.036 . S
N176 C174 1.298 . S
N176 N177 1.398 1_554 S
N177 C175 1.299 . S
N177 N176 1.398 1_556 S
N178 C174 1.367 . S
N178 C175 1.379 1_554 S
H179 C182 0.980 . S
H180 C182 0.981 . S
H181 C182 0.981 . S
C182 C174 1.481 . S
C182 H179 0.980 . S
C182 H180 0.981 . S
C182 H181 0.981 . S
C183 C170 1.481 1_556 S
C183 H184 0.980 1_556 S
C183 H185 0.981 1_556 S
C183 H186 0.981 . S
H184 C183 0.980 1_554 S
H185 C183 0.981 1_554 S
H186 C183 0.981 . S
O187 Zn163 2.066 1_556 S
O187 C166 1.256 . S
O188 Zn160 2.053 1_556 S
O188 C166 1.244 . S
C189 O167 1.259 . S
C189 O168 1.254 . S
O190 Zn160 2.066 . S
O190 C162 1.256 . S
O191 C162 1.244 . S
O191 Zn163 2.053 . S
Zn192 O193 2.055 . S
Zn192 O200 2.046 . S
Zn192 N208 2.036 . S
Zn192 O220 2.053 . S
Zn192 O222 2.066 1_556 S
O193 Zn192 2.055 . S
O193 C196 1.259 . S
C194 O222 1.256 . S
C194 O223 1.244 . S
Zn195 O197 2.046 . S
Zn195 O199 2.055 . S
Zn195 N201 2.036 . S
Zn195 O219 2.066 . S
Zn195 O223 2.053 1_556 S
C196 O193 1.259 . S
C196 O197 1.254 . S
O197 Zn195 2.046 . S
O197 C196 1.254 . S
C198 O219 1.256 . S
C198 O220 1.244 . S
O199 Zn195 2.055 . S
O199 C221 1.259 . S
O200 Zn192 2.046 . S
O200 C221 1.254 . S
N201 Zn195 2.036 . S
N201 C202 1.298 . S
N201 N204 1.398 1_556 S
C202 N201 1.298 . S
C202 N205 1.367 . S
C202 C215 1.481 . S
C203 N204 1.299 . S
C203 N205 1.379 1_554 S
N204 N201 1.398 1_554 S
N204 C203 1.299 . S
N205 C202 1.367 . S
N205 C203 1.379 1_556 S
C206 N208 1.298 . S
C206 N210 1.367 . S
C206 C214 1.481 1_556 S
C207 N209 1.299 . S
C207 N210 1.379 . S
N208 Zn192 2.036 . S
N208 C206 1.298 . S
N208 N209 1.398 . S
N209 C207 1.299 . S
N209 N208 1.398 . S
N210 C206 1.367 . S
N210 C207 1.379 . S
H211 C214 0.980 1_556 S
H212 C214 0.981 1_556 S
H213 C214 0.981 . S
C214 C206 1.481 1_554 S
C214 H211 0.980 1_554 S
C214 H212 0.981 1_554 S
C214 H213 0.981 . S
C215 C202 1.481 . S
C215 H216 0.980 . S
C215 H217 0.981 . S
C215 H218 0.981 . S
H216 C215 0.980 . S
H217 C215 0.981 . S
H218 C215 0.981 . S
O219 Zn195 2.066 . S
O219 C198 1.256 . S
O220 Zn192 2.053 . S
O220 C198 1.244 . S
C221 O199 1.259 . S
C221 O200 1.254 . S
O222 Zn192 2.066 1_554 S
O222 C194 1.256 . S
O223 C194 1.244 . S
O223 Zn195 2.053 1_554 S
Zn224 O225 2.055 . S
Zn224 O232 2.046 . S
Zn224 N240 2.036 . S
Zn224 O252 2.053 . S
Zn224 O254 2.066 1_556 S
O225 Zn224 2.055 . S
O225 C228 1.259 . S
C226 O254 1.256 . S
C226 O255 1.244 . S
Zn227 O229 2.046 . S
Zn227 O231 2.055 . S
Zn227 N233 2.036 . S
Zn227 O251 2.066 . S
Zn227 O255 2.053 1_556 S
C228 O225 1.259 . S
C228 O229 1.254 . S
O229 Zn227 2.046 . S
O229 C228 1.254 . S
C230 O251 1.256 . S
C230 O252 1.244 . S
O231 Zn227 2.055 . S
O231 C253 1.259 . S
O232 Zn224 2.046 . S
O232 C253 1.254 . S
N233 Zn227 2.036 . S
N233 C234 1.298 . S
N233 N236 1.398 1_556 S
C234 N233 1.298 . S
C234 N237 1.367 . S
C234 C247 1.481 . S
C235 N236 1.299 . S
C235 N237 1.379 1_554 S
N236 N233 1.398 1_554 S
N236 C235 1.299 . S
N237 C234 1.367 . S
N237 C235 1.379 1_556 S
C238 N240 1.298 . S
C238 N242 1.367 . S
C238 C246 1.481 1_556 S
C239 N241 1.299 . S
C239 N242 1.379 . S
N240 Zn224 2.036 . S
N240 C238 1.298 . S
N240 N241 1.398 . S
N241 C239 1.299 . S
N241 N240 1.398 . S
N242 C238 1.367 . S
N242 C239 1.379 . S
H243 C246 0.980 1_556 S
H244 C246 0.981 1_556 S
H245 C246 0.981 . S
C246 C238 1.481 1_554 S
C246 H243 0.980 1_554 S
C246 H244 0.981 1_554 S
C246 H245 0.981 . S
C247 C234 1.481 . S
C247 H248 0.980 . S
C247 H249 0.981 . S
C247 H250 0.981 . S
H248 C247 0.980 . S
H249 C247 0.981 . S
H250 C247 0.981 . S
O251 Zn227 2.066 . S
O251 C230 1.256 . S
O252 Zn224 2.053 . S
O252 C230 1.244 . S
C253 O231 1.259 . S
C253 O232 1.254 . S
O254 Zn224 2.066 1_554 S
O254 C226 1.256 . S
O255 C226 1.244 . S
O255 Zn227 2.053 1_554 S
H256 C268 0.930 . S
H257 C270 0.930 . S
H258 C271 0.930 . S
H259 C275 0.959 . S
H260 C275 0.959 . S
H261 C275 0.961 . S
H262 C276 0.960 . S
H263 C276 0.961 . S
H264 C276 0.959 . S
H265 C279 0.929 . S
H266 C280 0.931 . S
H267 C282 0.930 . S
C268 H256 0.930 . S
C268 C269 1.399 . S
C268 C273 1.399 . S
C269 C268 1.399 . S
C269 C270 1.376 . S
C270 H257 0.930 . S
C270 C269 1.376 . S
C270 C271 1.388 . S
C271 H258 0.930 . S
C271 C270 1.388 . S
C271 C272 1.390 . S
C272 C271 1.390 . S
C272 C273 1.394 . S
C272 C278 1.465 . S
C273 C268 1.399 . S
C273 C272 1.394 . S
C273 C274 1.516 . S
C274 C273 1.516 . S
C274 C275 1.502 . S
C274 C276 1.561 . S
C274 C277 1.526 . S
C275 H259 0.959 . S
C275 H260 0.959 . S
C275 H261 0.961 . S
C275 C274 1.502 . S
C276 H262 0.960 . S
C276 H263 0.961 . S
C276 H264 0.959 . S
C276 C274 1.561 . S
C277 C274 1.526 . S
C277 C278 1.396 . S
C277 C282 1.390 . S
C278 C272 1.465 . S
C278 C277 1.396 . S
C278 C279 1.399 . S
C279 H265 0.929 . S
C279 C278 1.399 . S
C279 C280 1.385 . S
C280 H266 0.931 . S
C280 C279 1.385 . S
C280 C281 1.389 . S
C281 C280 1.389 . S
C281 C282 1.387 . S
C282 H267 0.930 . S
C282 C277 1.390 . S
C282 C281 1.387 . S
H283 C295 0.930 . S
H284 C297 0.930 . S
H285 C298 0.930 . S
H286 C302 0.959 . S
H287 C302 0.959 . S
H288 C302 0.961 . S
H289 C303 0.960 . S
H290 C303 0.961 . S
H291 C303 0.959 . S
H292 C306 0.929 . S
H293 C307 0.931 . S
H294 C309 0.930 . S
C295 H283 0.930 . S
C295 C296 1.399 . S
C295 C300 1.399 . S
C296 C295 1.399 . S
C296 C297 1.376 . S
C297 H284 0.930 . S
C297 C296 1.376 . S
C297 C298 1.388 . S
C298 H285 0.930 . S
C298 C297 1.388 . S
C298 C299 1.390 . S
C299 C298 1.390 . S
C299 C300 1.394 . S
C299 C305 1.465 . S
C300 C295 1.399 . S
C300 C299 1.394 . S
C300 C301 1.516 . S
C301 C300 1.516 . S
C301 C302 1.502 . S
C301 C303 1.561 . S
C301 C304 1.526 . S
C302 H286 0.959 . S
C302 H287 0.959 . S
C302 H288 0.961 . S
C302 C301 1.502 . S
C303 H289 0.960 . S
C303 H290 0.961 . S
C303 H291 0.959 . S
C303 C301 1.561 . S
C304 C301 1.526 . S
C304 C305 1.396 . S
C304 C309 1.390 . S
C305 C299 1.465 . S
C305 C304 1.396 . S
C305 C306 1.399 . S
C306 H292 0.929 . S
C306 C305 1.399 . S
C306 C307 1.385 . S
C307 H293 0.931 . S
C307 C306 1.385 . S
C307 C308 1.389 . S
C308 C307 1.389 . S
C308 C309 1.387 . S
C309 H294 0.930 . S
C309 C304 1.390 . S
C309 C308 1.387 . S
H310 C322 0.930 . S
H311 C324 0.930 . S
H312 C325 0.930 . S
H313 C329 0.959 . S
H314 C329 0.959 . S
H315 C329 0.961 . S
H316 C330 0.960 . S
H317 C330 0.961 . S
H318 C330 0.959 . S
H319 C333 0.929 . S
H320 C334 0.931 . S
H321 C336 0.930 . S
C322 H310 0.930 . S
C322 C323 1.399 . S
C322 C327 1.399 . S
C323 C322 1.399 . S
C323 C324 1.376 . S
C324 H311 0.930 . S
C324 C323 1.376 . S
C324 C325 1.388 . S
C325 H312 0.930 . S
C325 C324 1.388 . S
C325 C326 1.390 . S
C326 C325 1.390 . S
C326 C327 1.394 . S
C326 C332 1.465 . S
C327 C322 1.399 . S
C327 C326 1.394 . S
C327 C328 1.516 . S
C328 C327 1.516 . S
C328 C329 1.502 . S
C328 C330 1.561 . S
C328 C331 1.526 . S
C329 H313 0.959 . S
C329 H314 0.959 . S
C329 H315 0.961 . S
C329 C328 1.502 . S
C330 H316 0.960 . S
C330 H317 0.961 . S
C330 H318 0.959 . S
C330 C328 1.561 . S
C331 C328 1.526 . S
C331 C332 1.396 . S
C331 C336 1.390 . S
C332 C326 1.465 . S
C332 C331 1.396 . S
C332 C333 1.399 . S
C333 H319 0.929 . S
C333 C332 1.399 . S
C333 C334 1.385 . S
C334 H320 0.931 . S
C334 C333 1.385 . S
C334 C335 1.389 . S
C335 C334 1.389 . S
C335 C336 1.387 . S
C336 H321 0.930 . S
C336 C331 1.390 . S
C336 C335 1.387 . S
H337 C349 0.930 . S
H338 C351 0.930 . S
H339 C352 0.930 . S
H340 C356 0.959 . S
H341 C356 0.959 . S
H342 C356 0.961 . S
H343 C357 0.960 . S
H344 C357 0.961 . S
H345 C357 0.959 . S
H346 C360 0.929 . S
H347 C361 0.931 . S
H348 C363 0.930 . S
C349 H337 0.930 . S
C349 C350 1.399 . S
C349 C354 1.399 . S
C350 C349 1.399 . S
C350 C351 1.376 . S
C351 H338 0.930 . S
C351 C350 1.376 . S
C351 C352 1.388 . S
C352 H339 0.930 . S
C352 C351 1.388 . S
C352 C353 1.390 . S
C353 C352 1.390 . S
C353 C354 1.394 . S
C353 C359 1.465 . S
C354 C349 1.399 . S
C354 C353 1.394 . S
C354 C355 1.516 . S
C355 C354 1.516 . S
C355 C356 1.502 . S
C355 C357 1.561 . S
C355 C358 1.526 . S
C356 H340 0.959 . S
C356 H341 0.959 . S
C356 H342 0.961 . S
C356 C355 1.502 . S
C357 H343 0.960 . S
C357 H344 0.961 . S
C357 H345 0.959 . S
C357 C355 1.561 . S
C358 C355 1.526 . S
C358 C359 1.396 . S
C358 C363 1.390 . S
C359 C353 1.465 . S
C359 C358 1.396 . S
C359 C360 1.399 . S
C360 H346 0.929 . S
C360 C359 1.399 . S
C360 C361 1.385 . S
C361 H347 0.931 . S
C361 C360 1.385 . S
C361 C362 1.389 . S
C362 C361 1.389 . S
C362 C363 1.387 . S
C363 H348 0.930 . S
C363 C358 1.390 . S
C363 C362 1.387 . S
H364 C376 0.930 . S
H365 C378 0.930 . S
H366 C379 0.930 . S
H367 C383 0.959 . S
H368 C383 0.959 . S
H369 C383 0.961 1_565 S
H370 C384 0.960 1_565 S
H371 C384 0.961 . S
H372 C384 0.959 . S
H373 C387 0.929 . S
H374 C388 0.931 . S
H375 C390 0.930 . S
C376 H364 0.930 . S
C376 C377 1.399 . S
C376 C381 1.399 . S
C377 C376 1.399 . S
C377 C378 1.376 . S
C378 H365 0.930 . S
C378 C377 1.376 . S
C378 C379 1.388 . S
C379 H366 0.930 . S
C379 C378 1.388 . S
C379 C380 1.390 . S
C380 C379 1.390 . S
C380 C381 1.394 . S
C380 C386 1.465 1_565 S
C381 C376 1.399 . S
C381 C380 1.394 . S
C381 C382 1.516 1_565 S
C382 C381 1.516 1_545 S
C382 C383 1.502 . S
C382 C384 1.561 . S
C382 C385 1.526 . S
C383 H367 0.959 . S
C383 H368 0.959 . S
C383 H369 0.961 1_545 S
C383 C382 1.502 . S
C384 H370 0.960 1_545 S
C384 H371 0.961 . S
C384 H372 0.959 . S
C384 C382 1.561 . S
C385 C382 1.526 . S
C385 C386 1.396 . S
C385 C390 1.390 . S
C386 C380 1.465 1_545 S
C386 C385 1.396 . S
C386 C387 1.399 . S
C387 H373 0.929 . S
C387 C386 1.399 . S
C387 C388 1.385 . S
C388 H374 0.931 . S
C388 C387 1.385 . S
C388 C389 1.389 . S
C389 C388 1.389 . S
C389 C390 1.387 . S
C390 H375 0.930 . S
C390 C385 1.390 . S
C390 C389 1.387 . S
H391 C403 0.930 . S
H392 C405 0.930 . S
H393 C406 0.930 . S
H394 C410 0.959 . S
H395 C410 0.959 . S
H396 C410 0.961 . S
H397 C411 0.960 . S
H398 C411 0.961 . S
H399 C411 0.959 . S
H400 C414 0.929 . S
H401 C415 0.931 . S
H402 C417 0.930 . S
C403 H391 0.930 . S
C403 C404 1.399 . S
C403 C408 1.399 . S
C404 C403 1.399 . S
C404 C405 1.376 . S
C405 H392 0.930 . S
C405 C404 1.376 . S
C405 C406 1.388 . S
C406 H393 0.930 . S
C406 C405 1.388 . S
C406 C407 1.390 . S
C407 C406 1.390 . S
C407 C408 1.394 . S
C407 C413 1.465 . S
C408 C403 1.399 . S
C408 C407 1.394 . S
C408 C409 1.516 . S
C409 C408 1.516 . S
C409 C410 1.502 . S
C409 C411 1.561 . S
C409 C412 1.526 . S
C410 H394 0.959 . S
C410 H395 0.959 . S
C410 H396 0.961 . S
C410 C409 1.502 . S
C411 H397 0.960 . S
C411 H398 0.961 . S
C411 H399 0.959 . S
C411 C409 1.561 . S
C412 C409 1.526 . S
C412 C413 1.396 . S
C412 C417 1.390 . S
C413 C407 1.465 . S
C413 C412 1.396 . S
C413 C414 1.399 . S
C414 H400 0.929 . S
C414 C413 1.399 . S
C414 C415 1.385 . S
C415 H401 0.931 . S
C415 C414 1.385 . S
C415 C416 1.389 . S
C416 C415 1.389 . S
C416 C417 1.387 . S
C417 H402 0.930 . S
C417 C412 1.390 . S
C417 C416 1.387 . S
H418 C430 0.930 . S
H419 C432 0.930 . S
H420 C433 0.930 . S
H421 C437 0.959 . S
H422 C437 0.959 . S
H423 C437 0.961 . S
H424 C438 0.960 . S
H425 C438 0.961 . S
H426 C438 0.959 . S
H427 C441 0.929 . S
H428 C442 0.931 . S
H429 C444 0.930 . S
C430 H418 0.930 . S
C430 C431 1.399 . S
C430 C435 1.399 . S
C431 C430 1.399 . S
C431 C432 1.376 . S
C432 H419 0.930 . S
C432 C431 1.376 . S
C432 C433 1.388 . S
C433 H420 0.930 . S
C433 C432 1.388 . S
C433 C434 1.390 . S
C434 C433 1.390 . S
C434 C435 1.394 . S
C434 C440 1.465 1_565 S
C435 C430 1.399 . S
C435 C434 1.394 . S
C435 C436 1.516 . S
C436 C435 1.516 . S
C436 C437 1.502 . S
C436 C438 1.561 . S
C436 C439 1.526 1_565 S
C437 H421 0.959 . S
C437 H422 0.959 . S
C437 H423 0.961 . S
C437 C436 1.502 . S
C438 H424 0.960 . S
C438 H425 0.961 . S
C438 H426 0.959 . S
C438 C436 1.561 . S
C439 C436 1.526 1_545 S
C439 C440 1.396 . S
C439 C444 1.390 . S
C440 C434 1.465 1_545 S
C440 C439 1.396 . S
C440 C441 1.399 . S
C441 H427 0.929 . S
C441 C440 1.399 . S
C441 C442 1.385 . S
C442 H428 0.931 . S
C442 C441 1.385 . S
C442 C443 1.389 . S
C443 C442 1.389 . S
C443 C444 1.387 . S
C444 H429 0.930 . S
C444 C439 1.390 . S
C444 C443 1.387 . S
H445 C457 0.930 . S
H446 C459 0.930 . S
H447 C460 0.930 . S
H448 C464 0.959 . S
H449 C464 0.959 . S
H450 C464 0.961 . S
H451 C465 0.960 . S
H452 C465 0.961 . S
H453 C465 0.959 . S
H454 C468 0.929 . S
H455 C469 0.931 . S
H456 C471 0.930 . S
C457 H445 0.930 . S
C457 C458 1.399 . S
C457 C462 1.399 . S
C458 C457 1.399 . S
C458 C459 1.376 . S
C459 H446 0.930 . S
C459 C458 1.376 . S
C459 C460 1.388 . S
C460 H447 0.930 . S
C460 C459 1.388 . S
C460 C461 1.390 . S
C461 C460 1.390 . S
C461 C462 1.394 . S
C461 C467 1.465 . S
C462 C457 1.399 . S
C462 C461 1.394 . S
C462 C463 1.516 . S
C463 C462 1.516 . S
C463 C464 1.502 . S
C463 C465 1.561 . S
C463 C466 1.526 . S
C464 H448 0.959 . S
C464 H449 0.959 . S
C464 H450 0.961 . S
C464 C463 1.502 . S
C465 H451 0.960 . S
C465 H452 0.961 . S
C465 H453 0.959 . S
C465 C463 1.561 . S
C466 C463 1.526 . S
C466 C467 1.396 . S
C466 C471 1.390 . S
C467 C461 1.465 . S
C467 C466 1.396 . S
C467 C468 1.399 . S
C468 H454 0.929 . S
C468 C467 1.399 . S
C468 C469 1.385 . S
C469 H455 0.931 . S
C469 C468 1.385 . S
C469 C470 1.389 . S
C470 C469 1.389 . S
C470 C471 1.387 . S
C471 H456 0.930 . S
C471 C466 1.390 . S
C471 C470 1.387 . S
H472 C484 0.930 . S
H473 C486 0.930 . S
H474 C487 0.930 . S
H475 C491 0.959 . S
H476 C491 0.959 . S
H477 C491 0.961 . S
H478 C492 0.960 . S
H479 C492 0.961 . S
H480 C492 0.959 . S
H481 C495 0.929 . S
H482 C496 0.931 . S
H483 C498 0.930 . S
C484 H472 0.930 . S
C484 C485 1.399 1_556 S
C484 C489 1.399 . S
C485 C484 1.399 1_554 S
C485 C486 1.376 . S
C486 H473 0.930 . S
C486 C485 1.376 . S
C486 C487 1.388 . S
C487 H474 0.930 . S
C487 C486 1.388 . S
C487 C488 1.390 . S
C488 C487 1.390 . S
C488 C489 1.394 1_554 S
C488 C494 1.465 . S
C489 C484 1.399 . S
C489 C488 1.394 1_556 S
C489 C490 1.516 . S
C490 C489 1.516 . S
C490 C491 1.502 . S
C490 C492 1.561 . S
C490 C493 1.526 . S
C491 H475 0.959 . S
C491 H476 0.959 . S
C491 H477 0.961 . S
C491 C490 1.502 . S
C492 H478 0.960 . S
C492 H479 0.961 . S
C492 H480 0.959 . S
C492 C490 1.561 . S
C493 C490 1.526 . S
C493 C494 1.396 1_556 S
C493 C498 1.390 . S
C494 C488 1.465 . S
C494 C493 1.396 1_554 S
C494 C495 1.399 . S
C495 H481 0.929 . S
C495 C494 1.399 . S
C495 C496 1.385 . S
C496 H482 0.931 . S
C496 C495 1.385 . S
C496 C497 1.389 1_554 S
C497 C496 1.389 1_556 S
C497 C498 1.387 . S
C498 H483 0.930 . S
C498 C493 1.390 . S
C498 C497 1.387 . S
H499 C511 0.930 . S
H500 C513 0.930 . S
H501 C514 0.930 . S
H502 C518 0.959 . S
H503 C518 0.959 . S
H504 C518 0.961 1_565 S
H505 C519 0.960 1_565 S
H506 C519 0.961 . S
H507 C519 0.959 . S
H508 C522 0.929 . S
H509 C523 0.931 . S
H510 C525 0.930 . S
C511 H499 0.930 . S
C511 C512 1.399 . S
C511 C516 1.399 . S
C512 C511 1.399 . S
C512 C513 1.376 1_554 S
C513 H500 0.930 . S
C513 C512 1.376 1_556 S
C513 C514 1.388 . S
C514 H501 0.930 . S
C514 C513 1.388 . S
C514 C515 1.390 . S
C515 C514 1.390 . S
C515 C516 1.394 1_556 S
C515 C521 1.465 1_565 S
C516 C511 1.399 . S
C516 C515 1.394 1_554 S
C516 C517 1.516 1_565 S
C517 C516 1.516 1_545 S
C517 C518 1.502 . S
C517 C519 1.561 . S
C517 C520 1.526 . S
C518 H502 0.959 . S
C518 H503 0.959 . S
C518 H504 0.961 1_545 S
C518 C517 1.502 . S
C519 H505 0.960 1_545 S
C519 H506 0.961 . S
C519 H507 0.959 . S
C519 C517 1.561 . S
C520 C517 1.526 . S
C520 C521 1.396 1_554 S
C520 C525 1.390 . S
C521 C515 1.465 1_545 S
C521 C520 1.396 1_556 S
C521 C522 1.399 . S
C522 H508 0.929 . S
C522 C521 1.399 . S
C522 C523 1.385 . S
C523 H509 0.931 . S
C523 C522 1.385 . S
C523 C524 1.389 . S
C524 C523 1.389 . S
C524 C525 1.387 1_556 S
C525 H510 0.930 . S
C525 C520 1.390 . S
C525 C524 1.387 1_554 S
H526 C538 0.930 . S
H527 C540 0.930 . S
H528 C541 0.930 . S
H529 C545 0.959 . S
H530 C545 0.959 . S
H531 C545 0.961 . S
H532 C546 0.960 . S
H533 C546 0.961 . S
H534 C546 0.959 . S
H535 C549 0.929 . S
H536 C550 0.931 . S
H537 C552 0.930 . S
C538 H526 0.930 . S
C538 C539 1.399 1_554 S
C538 C543 1.399 . S
C539 C538 1.399 1_556 S
C539 C540 1.376 . S
C540 H527 0.930 . S
C540 C539 1.376 . S
C540 C541 1.388 . S
C541 H528 0.930 . S
C541 C540 1.388 . S
C541 C542 1.390 . S
C542 C541 1.390 . S
C542 C543 1.394 1_556 S
C542 C548 1.465 . S
C543 C538 1.399 . S
C543 C542 1.394 1_554 S
C543 C544 1.516 . S
C544 C543 1.516 . S
C544 C545 1.502 . S
C544 C546 1.561 . S
C544 C547 1.526 . S
C545 H529 0.959 . S
C545 H530 0.959 . S
C545 H531 0.961 . S
C545 C544 1.502 . S
C546 H532 0.960 . S
C546 H533 0.961 . S
C546 H534 0.959 . S
C546 C544 1.561 . S
C547 C544 1.526 . S
C547 C548 1.396 1_554 S
C547 C552 1.390 . S
C548 C542 1.465 . S
C548 C547 1.396 1_556 S
C548 C549 1.399 . S
C549 H535 0.929 . S
C549 C548 1.399 . S
C549 C550 1.385 . S
C550 H536 0.931 . S
C550 C549 1.385 . S
C550 C551 1.389 1_556 S
C551 C550 1.389 1_554 S
C551 C552 1.387 . S
C552 H537 0.930 . S
C552 C547 1.390 . S
C552 C551 1.387 . S
H553 C565 0.930 1_554 S
H554 C567 0.930 . S
H555 C568 0.930 . S
H556 C572 0.959 1_565 S
H557 C572 0.959 1_565 S
H558 C572 0.961 . S
H559 C573 0.960 . S
H560 C573 0.961 . S
H561 C573 0.959 . S
H562 C576 0.929 . S
H563 C577 0.931 . S
H564 C579 0.930 . S
C565 H553 0.930 1_556 S
C565 C566 1.399 . S
C565 C570 1.399 1_556 S
C566 C565 1.399 . S
C566 C567 1.376 . S
C567 H554 0.930 . S
C567 C566 1.376 . S
C567 C568 1.388 . S
C568 H555 0.930 . S
C568 C567 1.388 . S
C568 C569 1.390 . S
C569 C568 1.390 . S
C569 C570 1.394 1_556 S
C569 C575 1.465 1_545 S
C570 C565 1.399 1_554 S
C570 C569 1.394 1_554 S
C570 C571 1.516 . S
C571 C570 1.516 . S
C571 C572 1.502 . S
C571 C573 1.561 . S
C571 C574 1.526 1_545 S
C572 H556 0.959 1_545 S
C572 H557 0.959 1_545 S
C572 H558 0.961 . S
C572 C571 1.502 . S
C573 H559 0.960 . S
C573 H560 0.961 . S
C573 H561 0.959 . S
C573 C571 1.561 . S
C574 C571 1.526 1_565 S
C574 C575 1.396 1_554 S
C574 C579 1.390 . S
C575 C569 1.465 1_565 S
C575 C574 1.396 1_556 S
C575 C576 1.399 . S
C576 H562 0.929 . S
C576 C575 1.399 . S
C576 C577 1.385 . S
C577 H563 0.931 . S
C577 C576 1.385 . S
C577 C578 1.389 1_556 S
C578 C577 1.389 1_554 S
C578 C579 1.387 . S
C579 H564 0.930 . S
C579 C574 1.390 . S
C579 C578 1.387 . S
H580 C592 0.930 . S
H581 C594 0.930 . S
H582 C595 0.930 . S
H583 C599 0.959 . S
H584 C599 0.959 . S
H585 C599 0.961 . S
H586 C600 0.960 . S
H587 C600 0.961 . S
H588 C600 0.959 . S
H589 C603 0.929 . S
H590 C604 0.931 . S
H591 C606 0.930 . S
C592 H580 0.930 . S
C592 C593 1.399 . S
C592 C597 1.399 . S
C593 C592 1.399 . S
C593 C594 1.376 . S
C594 H581 0.930 . S
C594 C593 1.376 . S
C594 C595 1.388 . S
C595 H582 0.930 . S
C595 C594 1.388 . S
C595 C596 1.390 . S
C596 C595 1.390 . S
C596 C597 1.394 . S
C596 C602 1.465 . S
C597 C592 1.399 . S
C597 C596 1.394 . S
C597 C598 1.516 . S
C598 C597 1.516 . S
C598 C599 1.502 . S
C598 C600 1.561 . S
C598 C601 1.526 1_554 S
C599 H583 0.959 . S
C599 H584 0.959 . S
C599 H585 0.961 . S
C599 C598 1.502 . S
C600 H586 0.960 . S
C600 H587 0.961 . S
C600 H588 0.959 . S
C600 C598 1.561 . S
C601 C598 1.526 1_556 S
C601 C602 1.396 1_556 S
C601 C606 1.390 . S
C602 C596 1.465 . S
C602 C601 1.396 1_554 S
C602 C603 1.399 1_554 S
C603 H589 0.929 . S
C603 C602 1.399 1_556 S
C603 C604 1.385 . S
C604 H590 0.931 . S
C604 C603 1.385 . S
C604 C605 1.389 . S
C605 C604 1.389 . S
C605 C606 1.387 . S
C606 H591 0.930 . S
C606 C601 1.390 . S
C606 C605 1.387 . S
H607 C619 0.930 . S
H608 C621 0.930 . S
H609 C622 0.930 . S
H610 C626 0.959 . S
H611 C626 0.959 . S
H612 C626 0.961 . S
H613 C627 0.960 . S
H614 C627 0.961 . S
H615 C627 0.959 . S
H616 C630 0.929 . S
H617 C631 0.931 . S
H618 C633 0.930 . S
C619 H607 0.930 . S
C619 C620 1.399 . S
C619 C624 1.399 . S
C620 C619 1.399 . S
C620 C621 1.376 . S
C621 H608 0.930 . S
C621 C620 1.376 . S
C621 C622 1.388 . S
C622 H609 0.930 . S
C622 C621 1.388 . S
C622 C623 1.390 . S
C623 C622 1.390 . S
C623 C624 1.394 . S
C623 C629 1.465 . S
C624 C619 1.399 . S
C624 C623 1.394 . S
C624 C625 1.516 . S
C625 C624 1.516 . S
C625 C626 1.502 . S
C625 C627 1.561 . S
C625 C628 1.524 1_554 S
C626 H610 0.959 . S
C626 H611 0.959 . S
C626 H612 0.961 . S
C626 C625 1.502 . S
C627 H613 0.960 . S
C627 H614 0.961 . S
C627 H615 0.959 . S
C627 C625 1.561 . S
C628 C625 1.524 1_556 S
C628 C629 1.396 1_556 S
C628 C633 1.391 . S
C629 C623 1.465 . S
C629 C628 1.396 1_554 S
C629 C630 1.399 1_554 S
C630 H616 0.929 . S
C630 C629 1.399 1_556 S
C630 C631 1.385 . S
C631 H617 0.931 . S
C631 C630 1.385 . S
C631 C632 1.389 . S
C632 C631 1.389 . S
C632 C633 1.387 . S
C633 H618 0.930 . S
C633 C628 1.391 . S
C633 C632 1.387 . S
H634 C646 0.930 . S
H635 C648 0.930 . S
H636 C649 0.930 . S
H637 C653 0.959 . S
H638 C653 0.959 . S
H639 C653 0.961 . S
H640 C654 0.960 . S
H641 C654 0.961 . S
H642 C654 0.959 . S
H643 C657 0.929 . S
H644 C658 0.931 . S
H645 C660 0.930 . S
C646 H634 0.930 . S
C646 C647 1.399 . S
C646 C651 1.399 . S
C647 C646 1.399 . S
C647 C648 1.376 . S
C648 H635 0.930 . S
C648 C647 1.376 . S
C648 C649 1.388 . S
C649 H636 0.930 . S
C649 C648 1.388 . S
C649 C650 1.390 1_554 S
C650 C649 1.390 1_556 S
C650 C651 1.394 1_556 S
C650 C656 1.465 . S
C651 C646 1.399 . S
C651 C650 1.394 1_554 S
C651 C652 1.516 1_554 S
C652 C651 1.516 1_556 S
C652 C653 1.502 . S
C652 C654 1.561 . S
C652 C655 1.526 . S
C653 H637 0.959 . S
C653 H638 0.959 . S
C653 H639 0.961 . S
C653 C652 1.502 . S
C654 H640 0.960 . S
C654 H641 0.961 . S
C654 H642 0.959 . S
C654 C652 1.561 . S
C655 C652 1.526 . S
C655 C656 1.396 . S
C655 C660 1.390 . S
C656 C650 1.465 . S
C656 C655 1.396 . S
C656 C657 1.399 . S
C657 H643 0.929 . S
C657 C656 1.399 . S
C657 C658 1.385 . S
C658 H644 0.931 . S
C658 C657 1.385 . S
C658 C659 1.389 . S
C659 C658 1.389 . S
C659 C660 1.387 . S
C660 H645 0.930 . S
C660 C655 1.390 . S
C660 C659 1.387 . S
H661 C673 0.930 . S
H662 C675 0.930 . S
H663 C676 0.930 . S
H664 C680 0.959 . S
H665 C680 0.959 . S
H666 C680 0.961 . S
H667 C681 0.960 . S
H668 C681 0.961 . S
H669 C681 0.959 . S
H670 C684 0.929 . S
H671 C685 0.931 . S
H672 C687 0.930 . S
C673 H661 0.930 . S
C673 C674 1.399 . S
C673 C678 1.399 . S
C674 C673 1.399 . S
C674 C675 1.376 . S
C675 H662 0.930 . S
C675 C674 1.376 . S
C675 C676 1.388 . S
C676 H663 0.930 . S
C676 C675 1.388 . S
C676 C677 1.390 . S
C677 C676 1.390 . S
C677 C678 1.394 . S
C677 C683 1.465 . S
C678 C673 1.399 . S
C678 C677 1.394 . S
C678 C679 1.516 . S
C679 C678 1.516 . S
C679 C680 1.502 . S
C679 C681 1.561 . S
C679 C682 1.524 1_556 S
C680 H664 0.959 . S
C680 H665 0.959 . S
C680 H666 0.961 . S
C680 C679 1.502 . S
C681 H667 0.960 . S
C681 H668 0.961 . S
C681 H669 0.959 . S
C681 C679 1.561 . S
C682 C679 1.524 1_554 S
C682 C683 1.396 1_554 S
C682 C687 1.391 . S
C683 C677 1.465 . S
C683 C682 1.396 1_556 S
C683 C684 1.399 1_556 S
C684 H670 0.929 . S
C684 C683 1.399 1_554 S
C684 C685 1.385 . S
C685 H671 0.931 . S
C685 C684 1.385 . S
C685 C686 1.389 . S
C686 C685 1.389 . S
C686 C687 1.387 . S
C687 H672 0.930 . S
C687 C682 1.391 . S
C687 C686 1.387 . S
H688 C700 0.930 . S
H689 C702 0.930 . S
H690 C703 0.930 . S
H691 C707 0.959 . S
H692 C707 0.959 . S
H693 C707 0.961 . S
H694 C708 0.960 . S
H695 C708 0.961 . S
H696 C708 0.959 . S
H697 C711 0.929 . S
H698 C712 0.931 . S
H699 C714 0.930 . S
C700 H688 0.930 . S
C700 C701 1.399 . S
C700 C705 1.399 . S
C701 C700 1.399 . S
C701 C702 1.376 . S
C702 H689 0.930 . S
C702 C701 1.376 . S
C702 C703 1.388 . S
C703 H690 0.930 . S
C703 C702 1.388 . S
C703 C704 1.390 . S
C704 C703 1.390 . S
C704 C705 1.394 . S
C704 C710 1.465 . S
C705 C700 1.399 . S
C705 C704 1.394 . S
C705 C706 1.516 . S
C706 C705 1.516 . S
C706 C707 1.502 . S
C706 C708 1.561 . S
C706 C709 1.526 . S
C707 H691 0.959 . S
C707 H692 0.959 . S
C707 H693 0.961 . S
C707 C706 1.502 . S
C708 H694 0.960 . S
C708 H695 0.961 . S
C708 H696 0.959 . S
C708 C706 1.561 . S
C709 C706 1.526 . S
C709 C710 1.396 . S
C709 C714 1.390 . S
C710 C704 1.465 . S
C710 C709 1.396 . S
C710 C711 1.399 . S
C711 H697 0.929 . S
C711 C710 1.399 . S
C711 C712 1.385 . S
C712 H698 0.931 . S
C712 C711 1.385 . S
C712 C713 1.389 . S
C713 C712 1.389 . S
C713 C714 1.387 . S
C714 H699 0.930 . S
C714 C709 1.390 . S
C714 C713 1.387 . S
H715 C727 0.930 . S
H716 C729 0.930 . S
H717 C730 0.930 . S
H718 C734 0.959 . S
H719 C734 0.959 . S
H720 C734 0.961 . S
H721 C735 0.960 . S
H722 C735 0.961 . S
H723 C735 0.959 . S
H724 C738 0.929 . S
H725 C739 0.931 . S
H726 C741 0.930 . S
C727 H715 0.930 . S
C727 C728 1.399 . S
C727 C732 1.399 . S
C728 C727 1.399 . S
C728 C729 1.376 . S
C729 H716 0.930 . S
C729 C728 1.376 . S
C729 C730 1.388 . S
C730 H717 0.930 . S
C730 C729 1.388 . S
C730 C731 1.390 . S
C731 C730 1.390 . S
C731 C732 1.394 . S
C731 C737 1.465 . S
C732 C727 1.399 . S
C732 C731 1.394 . S
C732 C733 1.516 . S
C733 C732 1.516 . S
C733 C734 1.502 . S
C733 C735 1.561 . S
C733 C736 1.526 . S
C734 H718 0.959 . S
C734 H719 0.959 . S
C734 H720 0.961 . S
C734 C733 1.502 . S
C735 H721 0.960 . S
C735 H722 0.961 . S
C735 H723 0.959 . S
C735 C733 1.561 . S
C736 C733 1.526 . S
C736 C737 1.396 . S
C736 C741 1.390 . S
C737 C731 1.465 . S
C737 C736 1.396 . S
C737 C738 1.399 . S
C738 H724 0.929 . S
C738 C737 1.399 . S
C738 C739 1.385 . S
C739 H725 0.931 . S
C739 C738 1.385 . S
C739 C740 1.389 . S
C740 C739 1.389 . S
C740 C741 1.387 . S
C741 H726 0.930 . S
C741 C736 1.390 . S
C741 C740 1.387 . S
H742 C754 0.930 . S
H743 C756 0.930 . S
H744 C757 0.930 . S
H745 C761 0.959 . S
H746 C761 0.959 . S
H747 C761 0.961 . S
H748 C762 0.960 . S
H749 C762 0.961 . S
H750 C762 0.959 . S
H751 C765 0.929 . S
H752 C766 0.931 . S
H753 C768 0.930 . S
C754 H742 0.930 . S
C754 C755 1.399 . S
C754 C759 1.399 . S
C755 C754 1.399 . S
C755 C756 1.376 . S
C756 H743 0.930 . S
C756 C755 1.376 . S
C756 C757 1.388 . S
C757 H744 0.930 . S
C757 C756 1.388 . S
C757 C758 1.390 . S
C758 C757 1.390 . S
C758 C759 1.394 . S
C758 C764 1.465 . S
C759 C754 1.399 . S
C759 C758 1.394 . S
C759 C760 1.516 . S
C760 C759 1.516 . S
C760 C761 1.502 . S
C760 C762 1.561 . S
C760 C763 1.526 . S
C761 H745 0.959 . S
C761 H746 0.959 . S
C761 H747 0.961 . S
C761 C760 1.502 . S
C762 H748 0.960 . S
C762 H749 0.961 . S
C762 H750 0.959 . S
C762 C760 1.561 . S
C763 C760 1.526 . S
C763 C764 1.396 . S
C763 C768 1.390 . S
C764 C758 1.465 . S
C764 C763 1.396 . S
C764 C765 1.399 . S
C765 H751 0.929 . S
C765 C764 1.399 . S
C765 C766 1.385 . S
C766 H752 0.931 . S
C766 C765 1.385 . S
C766 C767 1.389 . S
C767 C766 1.389 . S
C767 C768 1.387 . S
C768 H753 0.930 . S
C768 C763 1.390 . S
C768 C767 1.387 . S
H769 C781 0.930 . S
H770 C783 0.930 . S
H771 C784 0.930 . S
H772 C788 0.959 . S
H773 C788 0.959 . S
H774 C788 0.961 . S
H775 C789 0.960 . S
H776 C789 0.961 . S
H777 C789 0.959 . S
H778 C792 0.929 . S
H779 C793 0.931 . S
H780 C795 0.930 . S
C781 H769 0.930 . S
C781 C782 1.399 . S
C781 C786 1.399 . S
C782 C781 1.399 . S
C782 C783 1.376 . S
C783 H770 0.930 . S
C783 C782 1.376 . S
C783 C784 1.388 . S
C784 H771 0.930 . S
C784 C783 1.388 . S
C784 C785 1.390 . S
C785 C784 1.390 . S
C785 C786 1.394 . S
C785 C791 1.465 . S
C786 C781 1.399 . S
C786 C785 1.394 . S
C786 C787 1.516 . S
C787 C786 1.516 . S
C787 C788 1.502 . S
C787 C789 1.561 . S
C787 C790 1.526 . S
C788 H772 0.959 . S
C788 H773 0.959 . S
C788 H774 0.961 . S
C788 C787 1.502 . S
C789 H775 0.960 . S
C789 H776 0.961 . S
C789 H777 0.959 . S
C789 C787 1.561 . S
C790 C787 1.526 . S
C790 C791 1.396 . S
C790 C795 1.390 . S
C791 C785 1.465 . S
C791 C790 1.396 . S
C791 C792 1.399 . S
C792 H778 0.929 . S
C792 C791 1.399 . S
C792 C793 1.385 . S
C793 H779 0.931 . S
C793 C792 1.385 . S
C793 C794 1.389 . S
C794 C793 1.389 . S
C794 C795 1.387 . S
C795 H780 0.930 . S
C795 C790 1.390 . S
C795 C794 1.387 . S
H796 C808 0.930 . S
H797 C810 0.930 . S
H798 C811 0.930 . S
H799 C815 0.964 . S
H800 C815 0.989 . S
H801 C815 0.929 1_455 S
H802 C816 0.962 1_455 S
H803 C816 0.959 . S
H804 C816 0.959 . S
H805 C819 0.929 . S
H806 C820 0.931 . S
H807 C822 0.930 . S
C808 H796 0.930 . S
C808 C809 1.399 . S
C808 C813 1.399 . S
C809 C808 1.399 . S
C809 C810 1.376 . S
C810 H797 0.930 . S
C810 C809 1.376 . S
C810 C811 1.388 . S
C811 H798 0.930 . S
C811 C810 1.388 . S
C811 C812 1.390 . S
C812 C811 1.390 . S
C812 C813 1.394 . S
C812 C818 1.465 1_455 S
C813 C808 1.399 . S
C813 C812 1.394 . S
C813 C814 1.515 1_455 S
C814 C813 1.515 1_655 S
C814 C815 1.501 . S
C814 C816 1.561 . S
C814 C817 1.527 . S
C815 H799 0.964 . S
C815 H800 0.989 . S
C815 H801 0.929 1_655 S
C815 C814 1.501 . S
C816 H802 0.962 1_655 S
C816 H803 0.959 . S
C816 H804 0.959 . S
C816 C814 1.561 . S
C817 C814 1.527 . S
C817 C818 1.396 . S
C817 C822 1.390 . S
C818 C812 1.465 1_655 S
C818 C817 1.396 . S
C818 C819 1.399 . S
C819 H805 0.929 . S
C819 C818 1.399 . S
C819 C820 1.385 . S
C820 H806 0.931 . S
C820 C819 1.385 . S
C820 C821 1.389 . S
C821 C820 1.389 . S
C821 C822 1.387 . S
C822 H807 0.930 . S
C822 C817 1.390 . S
C822 C821 1.387 . S
H823 C835 0.930 . S
H824 C837 0.930 . S
H825 C838 0.930 . S
H826 C842 0.964 . S
H827 C842 0.990 . S
H828 C842 0.928 1_655 S
H829 C843 0.960 1_655 S
H830 C843 0.961 . S
H831 C843 0.959 . S
H832 C846 0.929 . S
H833 C847 0.931 . S
H834 C849 0.930 . S
C835 H823 0.930 . S
C835 C836 1.399 . S
C835 C840 1.399 . S
C836 C835 1.399 . S
C836 C837 1.376 . S
C837 H824 0.930 . S
C837 C836 1.376 . S
C837 C838 1.388 . S
C838 H825 0.930 . S
C838 C837 1.388 . S
C838 C839 1.390 . S
C839 C838 1.390 . S
C839 C840 1.394 . S
C839 C845 1.465 1_655 S
C840 C835 1.399 . S
C840 C839 1.394 . S
C840 C841 1.514 1_655 S
C841 C840 1.514 1_455 S
C841 C842 1.501 . S
C841 C843 1.561 . S
C841 C844 1.528 . S
C842 H826 0.964 . S
C842 H827 0.990 . S
C842 H828 0.928 1_455 S
C842 C841 1.501 . S
C843 H829 0.960 1_455 S
C843 H830 0.961 . S
C843 H831 0.959 . S
C843 C841 1.561 . S
C844 C841 1.528 . S
C844 C845 1.396 . S
C844 C849 1.390 . S
C845 C839 1.465 1_455 S
C845 C844 1.396 . S
C845 C846 1.399 . S
C846 H832 0.929 . S
C846 C845 1.399 . S
C846 C847 1.385 . S
C847 H833 0.931 . S
C847 C846 1.385 . S
C847 C848 1.389 . S
C848 C847 1.389 . S
C848 C849 1.387 . S
C849 H834 0.930 . S
C849 C844 1.390 . S
C849 C848 1.387 . S
H850 C862 0.930 . S
H851 C864 0.930 . S
H852 C865 0.930 . S
H853 C869 0.959 . S
H854 C869 0.959 . S
H855 C869 0.961 . S
H856 C870 0.960 . S
H857 C870 0.961 . S
H858 C870 0.959 . S
H859 C873 0.929 . S
H860 C874 0.931 . S
H861 C876 0.930 . S
C862 H850 0.930 . S
C862 C863 1.399 . S
C862 C867 1.399 . S
C863 C862 1.399 . S
C863 C864 1.376 1_554 S
C864 H851 0.930 . S
C864 C863 1.376 1_556 S
C864 C865 1.388 . S
C865 H852 0.930 . S
C865 C864 1.388 . S
C865 C866 1.390 . S
C866 C865 1.390 . S
C866 C867 1.394 1_556 S
C866 C872 1.465 . S
C867 C862 1.399 . S
C867 C866 1.394 1_554 S
C867 C868 1.516 . S
C868 C867 1.516 . S
C868 C869 1.502 . S
C868 C870 1.561 . S
C868 C871 1.526 . S
C869 H853 0.959 . S
C869 H854 0.959 . S
C869 H855 0.961 . S
C869 C868 1.502 . S
C870 H856 0.960 . S
C870 H857 0.961 . S
C870 H858 0.959 . S
C870 C868 1.561 . S
C871 C868 1.526 . S
C871 C872 1.396 1_554 S
C871 C876 1.390 . S
C872 C866 1.465 . S
C872 C871 1.396 1_556 S
C872 C873 1.399 . S
C873 H859 0.929 . S
C873 C872 1.399 . S
C873 C874 1.385 . S
C874 H860 0.931 . S
C874 C873 1.385 . S
C874 C875 1.389 1_556 S
C875 C874 1.389 1_554 S
C875 C876 1.387 . S
C876 H861 0.930 . S
C876 C871 1.390 . S
C876 C875 1.387 . S
H877 C889 0.930 . S
H878 C891 0.930 1_554 S
H879 C892 0.930 . S
H880 C896 0.959 . S
H881 C896 0.959 . S
H882 C896 0.961 . S
H883 C897 0.960 . S
H884 C897 0.961 . S
H885 C897 0.959 . S
H886 C900 0.929 1_554 S
H887 C901 0.932 . S
H888 C903 0.930 . S
C889 H877 0.930 . S
C889 C890 1.399 . S
C889 C894 1.399 . S
C890 C889 1.399 . S
C890 C891 1.376 . S
C891 H878 0.930 1_556 S
C891 C890 1.376 . S
C891 C892 1.388 1_556 S
C892 H879 0.930 . S
C892 C891 1.388 1_554 S
C892 C893 1.390 1_554 S
C893 C892 1.390 1_556 S
C893 C894 1.394 . S
C893 C899 1.465 . S
C894 C889 1.399 . S
C894 C893 1.394 . S
C894 C895 1.516 . S
C895 C894 1.516 . S
C895 C896 1.502 . S
C895 C897 1.561 1_556 S
C895 C898 1.526 . S
C896 H880 0.959 . S
C896 H881 0.959 . S
C896 H882 0.961 . S
C896 C895 1.502 . S
C897 H883 0.960 . S
C897 H884 0.961 . S
C897 H885 0.959 . S
C897 C895 1.561 1_554 S
C898 C895 1.526 . S
C898 C899 1.396 . S
C898 C903 1.390 . S
C899 C893 1.465 . S
C899 C898 1.396 . S
C899 C900 1.399 . S
C900 H886 0.929 1_556 S
C900 C899 1.399 . S
C900 C901 1.385 . S
C901 H887 0.932 . S
C901 C900 1.385 . S
C901 C902 1.389 . S
C902 C901 1.389 . S
C902 C903 1.387 . S
C903 H888 0.930 . S
C903 C898 1.390 . S
C903 C902 1.387 . S
C269 C2 1.642 . S
C281 C230 1.661 . S
C296 C198 1.641 . S
C308 C38 1.663 . S
C323 C162 1.667 . S
C335 C70 1.652 . S
C350 C130 1.670 . S
C362 C98 1.647 . S
C377 N82 1.628 . S
C389 N13 1.579 . S
C404 N50 1.571 . S
C416 N109 1.599 . S
C431 N114 1.444 . S
C443 N45 1.372 . S
C458 N77 1.413 . S
C470 N18 1.367 . S
C485 N141 1.565 . S
C497 N210 1.613 . S
C512 N173 1.628 . S
C524 N242 1.572 . S
C539 N237 1.432 . S
C551 N178 1.368 . S
C566 N205 1.402 . S
C578 N146 1.369 . S
C593 C6 1.293 . S
C605 C4 1.290 . S
C620 C34 1.295 . S
C632 C61 1.289 . S
C647 C93 1.304 . S
C659 C66 1.288 . S
C674 C102 1.296 . S
C686 C100 1.288 . S
C701 C132 1.304 . S
C713 C134 1.288 . S
C728 C166 1.292 . S
C740 C164 1.293 . S
C755 C194 1.295 . S
C767 C221 1.290 . S
C782 C226 1.292 . S
C794 C253 1.292 . S
C809 C29 1.559 . S
C821 C36 1.552 . S
C836 C125 1.561 . S
C848 C68 1.553 . S
C863 C157 1.585 . S
C875 C189 1.593 . S
C890 C228 1.589 . S
C902 C196 1.576 . S
