# Generated by pormake.
# Topology whr, (6)-cn, num edge types: 1
# Building blocks:
#     Node 0, Type 0, BuildingBlock: VOLQOD_clean_sbu_1, # of connection points: 6
#     Node 1, Type 0, BuildingBlock: VOLQOD_clean_sbu_1, # of connection points: 6
#     Node 2, Type 0, BuildingBlock: VOLQOD_clean_sbu_1, # of connection points: 6
#     Node 3, Type 0, BuildingBlock: VOLQOD_clean_sbu_1, # of connection points: 6
#     Node 4, Type 0, BuildingBlock: VOLQOD_clean_sbu_1, # of connection points: 6
#     Node 5, Type 0, BuildingBlock: VOLQOD_clean_sbu_1, # of connection points: 6
#     Node 6, Type 0, BuildingBlock: VOLQOD_clean_sbu_1, # of connection points: 6
#     Node 7, Type 0, BuildingBlock: VOLQOD_clean_sbu_1, # of connection points: 6
#     Node 8, Type 0, BuildingBlock: VOLQOD_clean_sbu_1, # of connection points: 6
#     Node 9, Type 0, BuildingBlock: VOLQOD_clean_sbu_1, # of connection points: 6
#     Node 10, Type 0, BuildingBlock: VOLQOD_clean_sbu_1, # of connection points: 6
#     Node 11, Type 0, BuildingBlock: VOLQOD_clean_sbu_1, # of connection points: 6
#     Node 12, Type 0, BuildingBlock: VOLQOD_clean_sbu_1, # of connection points: 6
#     Node 13, Type 0, BuildingBlock: VOLQOD_clean_sbu_1, # of connection points: 6
#     Node 14, Type 0, BuildingBlock: VOLQOD_clean_sbu_1, # of connection points: 6
#     Node 15, Type 0, BuildingBlock: VOLQOD_clean_sbu_1, # of connection points: 6
#     Edge 16, Type (0, 0), BuildingBlock: CIFDUS_clean_linker_0, # of connection points: 2
#     Edge 17, Type (0, 0), BuildingBlock: CIFDUS_clean_linker_0, # of connection points: 2
#     Edge 18, Type (0, 0), BuildingBlock: CIFDUS_clean_linker_0, # of connection points: 2
#     Edge 19, Type (0, 0), BuildingBlock: CIFDUS_clean_linker_0, # of connection points: 2
#     Edge 20, Type (0, 0), BuildingBlock: CIFDUS_clean_linker_0, # of connection points: 2
#     Edge 21, Type (0, 0), BuildingBlock: CIFDUS_clean_linker_0, # of connection points: 2
#     Edge 22, Type (0, 0), BuildingBlock: CIFDUS_clean_linker_0, # of connection points: 2
#     Edge 23, Type (0, 0), BuildingBlock: CIFDUS_clean_linker_0, # of connection points: 2
#     Edge 24, Type (0, 0), BuildingBlock: CIFDUS_clean_linker_0, # of connection points: 2
#     Edge 25, Type (0, 0), BuildingBlock: CIFDUS_clean_linker_0, # of connection points: 2
#     Edge 26, Type (0, 0), BuildingBlock: CIFDUS_clean_linker_0, # of connection points: 2
#     Edge 27, Type (0, 0), BuildingBlock: CIFDUS_clean_linker_0, # of connection points: 2
#     Edge 28, Type (0, 0), BuildingBlock: CIFDUS_clean_linker_0, # of connection points: 2
#     Edge 29, Type (0, 0), BuildingBlock: CIFDUS_clean_linker_0, # of connection points: 2
#     Edge 30, Type (0, 0), BuildingBlock: CIFDUS_clean_linker_0, # of connection points: 2
#     Edge 31, Type (0, 0), BuildingBlock: CIFDUS_clean_linker_0, # of connection points: 2
#     Edge 32, Type (0, 0), BuildingBlock: CIFDUS_clean_linker_0, # of connection points: 2
#     Edge 33, Type (0, 0), BuildingBlock: CIFDUS_clean_linker_0, # of connection points: 2
#     Edge 34, Type (0, 0), BuildingBlock: CIFDUS_clean_linker_0, # of connection points: 2
#     Edge 35, Type (0, 0), BuildingBlock: CIFDUS_clean_linker_0, # of connection points: 2
#     Edge 36, Type (0, 0), BuildingBlock: CIFDUS_clean_linker_0, # of connection points: 2
#     Edge 37, Type (0, 0), BuildingBlock: CIFDUS_clean_linker_0, # of connection points: 2
#     Edge 38, Type (0, 0), BuildingBlock: CIFDUS_clean_linker_0, # of connection points: 2
#     Edge 39, Type (0, 0), BuildingBlock: CIFDUS_clean_linker_0, # of connection points: 2
#     Edge 40, Type (0, 0), BuildingBlock: CIFDUS_clean_linker_0, # of connection points: 2
#     Edge 41, Type (0, 0), BuildingBlock: CIFDUS_clean_linker_0, # of connection points: 2
#     Edge 42, Type (0, 0), BuildingBlock: CIFDUS_clean_linker_0, # of connection points: 2
#     Edge 43, Type (0, 0), BuildingBlock: CIFDUS_clean_linker_0, # of connection points: 2
#     Edge 44, Type (0, 0), BuildingBlock: CIFDUS_clean_linker_0, # of connection points: 2
#     Edge 45, Type (0, 0), BuildingBlock: CIFDUS_clean_linker_0, # of connection points: 2
#     Edge 46, Type (0, 0), BuildingBlock: CIFDUS_clean_linker_0, # of connection points: 2
#     Edge 47, Type (0, 0), BuildingBlock: CIFDUS_clean_linker_0, # of connection points: 2
#     Edge 48, Type (0, 0), BuildingBlock: CIFDUS_clean_linker_0, # of connection points: 2
#     Edge 49, Type (0, 0), BuildingBlock: CIFDUS_clean_linker_0, # of connection points: 2
#     Edge 50, Type (0, 0), BuildingBlock: CIFDUS_clean_linker_0, # of connection points: 2
#     Edge 51, Type (0, 0), BuildingBlock: CIFDUS_clean_linker_0, # of connection points: 2
#     Edge 52, Type (0, 0), BuildingBlock: CIFDUS_clean_linker_0, # of connection points: 2
#     Edge 53, Type (0, 0), BuildingBlock: CIFDUS_clean_linker_0, # of connection points: 2
#     Edge 54, Type (0, 0), BuildingBlock: CIFDUS_clean_linker_0, # of connection points: 2
#     Edge 55, Type (0, 0), BuildingBlock: CIFDUS_clean_linker_0, # of connection points: 2
#     Edge 56, Type (0, 0), BuildingBlock: CIFDUS_clean_linker_0, # of connection points: 2
#     Edge 57, Type (0, 0), BuildingBlock: CIFDUS_clean_linker_0, # of connection points: 2
#     Edge 58, Type (0, 0), BuildingBlock: CIFDUS_clean_linker_0, # of connection points: 2
#     Edge 59, Type (0, 0), BuildingBlock: CIFDUS_clean_linker_0, # of connection points: 2
#     Edge 60, Type (0, 0), BuildingBlock: CIFDUS_clean_linker_0, # of connection points: 2
#     Edge 61, Type (0, 0), BuildingBlock: CIFDUS_clean_linker_0, # of connection points: 2
#     Edge 62, Type (0, 0), BuildingBlock: CIFDUS_clean_linker_0, # of connection points: 2
#     Edge 63, Type (0, 0), BuildingBlock: CIFDUS_clean_linker_0, # of connection points: 2
# Relax obj value: 0.383
# Max RMSD: 0.249
# Mean RMSD: 0.247
data_MOF--net-whr--node1-VOLQOD_clean_sbu_1--edge1-CIFDUS_clean_linker_0
_symmetry_space_group_name_H-M    P1
_symmetry_Int_Tables_number       1
_symmetry_cell_setting            triclinic
loop_
_symmetry_equiv_pos_as_xyz
'x, y, z'
_cell_length_a     46.025922
_cell_length_b     45.937564
_cell_length_c     25.90905
_cell_angle_alpha  89.895662
_cell_angle_beta   89.485573
_cell_angle_gamma 90.240617
loop_
_atom_site_label
_atom_site_type_symbol
_atom_site_fract_x
_atom_site_fract_y
_atom_site_fract_z
_atom_type_partial_charge
O0 O 0.16293 0.05399 0.11487 0.0
Zn1 Zn 0.17335 0.0397 0.04418 0.0
O2 O 0.21381 0.04709 0.02814 0.0
Zn3 Zn 0.23401 0.01004 0.01902 0.0
Zn4 Zn 0.23 0.07017 0.08356 0.0
Zn5 Zn 0.21645 0.07071 0.96711 0.0
O6 O 0.25391 0.00901 0.94656 0.0
O7 O 0.2321 0.04693 0.90967 0.0
O8 O 0.16269 -0.0025 0.03832 0.0
O9 O 0.20481 0.97657 0.01949 0.0
O10 O 0.25861 0.00258 0.08398 0.0
O11 O 0.25132 0.04301 0.1296 0.0
O12 O 0.25717 0.10238 0.05807 0.0
O13 O 0.14795 0.06328 0.99806 0.0
O14 O 0.2454 0.10241 0.97541 0.0
O15 O 0.17823 0.0893 0.9492 0.0
C16 C 0.17303 0.07583 0.13907 0.0
C17 C 0.24834 0.0246 0.90668 0.0
C18 C 0.26137 0.01731 0.12568 0.0
C19 C 0.17754 0.97487 0.02829 0.0
C20 C 0.26015 0.11255 0.01251 0.0
C21 C 0.1526 0.08304 0.96446 0.0
O22 O 0.19756 0.08707 0.12697 0.0
O23 O 0.05542 0.81645 0.84849 0.0
Zn24 Zn 0.03477 0.81021 0.91668 0.0
O25 O 0.04072 0.77112 0.94148 0.0
Zn26 Zn 0.00372 0.75173 0.95509 0.0
Zn27 Zn 0.06121 0.75006 0.88938 0.0
Zn28 Zn 0.06606 0.7716 1.00013 0.0
O29 O 0.00418 0.73429 0.02916 0.0
O30 O 0.04309 0.75723 0.06062 0.0
O31 O 0.99216 0.81981 0.9131 0.0
O32 O 0.97159 0.78153 0.95166 0.0
O33 O -0.0065 0.72485 0.89377 0.0
O34 O 0.03308 0.73021 0.84496 0.0
O35 O 0.08762 0.72061 0.91929 0.0
O36 O 0.05396 0.83892 0.96371 0.0
O37 O 0.09784 0.74167 0.99384 0.0
O38 O 0.08293 0.81206 0.0127 0.0
C39 C 0.07655 0.80253 0.82823 0.0
C40 C 0.02084 0.74089 0.06695 0.0
C41 C 0.00728 0.72089 0.85119 0.0
C42 C 0.96977 0.80669 0.93103 0.0
C43 C 0.10177 0.72138 0.96113 0.0
C44 C 0.07408 0.83678 0.99688 0.0
O45 O 0.08349 0.77729 0.8441 0.0
O46 O 0.82261 0.91442 0.11728 0.0
Zn47 Zn 0.81521 0.94035 0.05741 0.0
O48 O 0.7747 0.93993 0.03954 0.0
Zn49 Zn 0.76055 0.97998 0.03884 0.0
Zn50 Zn 0.75329 0.91739 0.09061 0.0
Zn51 Zn 0.77043 0.92094 0.97322 0.0
O52 O 0.74139 0.98855 0.9702 0.0
O53 O 0.75334 0.94942 0.92388 0.0
O54 O 0.82998 0.98004 0.07223 0.0
O55 O 0.7937 0.00874 0.04909 0.0
O56 O 0.73431 0.98719 0.10056 0.0
O57 O 0.73279 0.94402 0.13911 0.0
O58 O 0.72517 0.89004 0.05807 0.0
O59 O 0.83978 0.92445 1.00076 0.0
O60 O 0.74119 0.8887 0.97707 0.0
O61 O 0.80866 0.90447 0.94604 0.0
C62 C 0.80714 0.89594 0.14181 0.0
C63 C 0.74144 0.97433 0.92786 0.0
C64 C 0.72669 0.971 0.13842 0.0
C65 C 0.81957 0.00527 0.06506 0.0
C66 C 0.72407 0.8798 0.01256 0.0
C67 C 0.83455 0.90953 0.96069 0.0
O68 O 0.78004 0.89346 0.13375 0.0
O69 O 0.91763 0.15737 0.88496 0.0
Zn70 Zn 0.93749 0.16928 0.94887 0.0
O71 O 0.93545 0.21053 0.95918 0.0
Zn72 Zn 0.97486 0.22725 0.95482 0.0
Zn73 Zn 0.90989 0.22672 0.90717 0.0
Zn74 Zn 0.91757 0.21679 0.02596 0.0
O75 O 0.98293 0.25011 0.02236 0.0
O76 O 0.94657 0.23432 0.07288 0.0
O77 O 0.97767 0.15522 0.9463 0.0
O78 O 0.00532 0.19473 0.95138 0.0
O79 O 0.97902 0.24976 0.88564 0.0
O80 O 0.93409 0.24746 0.85482 0.0
O81 O 0.88068 0.25465 0.93771 0.0
O82 O 0.91707 0.14737 0.00422 0.0
O83 O 0.88669 0.24626 0.02117 0.0
O84 O 0.89866 0.1807 0.05662 0.0
C85 C 0.8973 0.16885 0.85923 0.0
C86 C 0.97016 0.24854 0.06657 0.0
C87 C 0.96064 0.25487 0.84986 0.0
C88 C 0.00254 0.16715 0.94788 0.0
C89 C 0.87417 0.25961 0.98476 0.0
C90 C 0.90175 0.15427 0.04322 0.0
O91 O 0.8895 0.19508 0.86699 0.0
O92 O 0.72862 0.0106 0.46771 0.0
Zn93 Zn 0.73639 0.03375 0.53263 0.0
O94 O 0.77722 0.04524 0.5349 0.0
Zn95 Zn 0.79337 0.03273 0.59875 0.0
Zn96 Zn 0.799 0.02802 0.47938 0.0
Zn97 Zn 0.78138 0.08698 0.53018 0.0
O98 O 0.81545 0.06482 0.63264 0.0
O99 O 0.79443 0.10349 0.59781 0.0
O100 O 0.72263 0.01363 0.59888 0.0
O101 O 0.76138 0.023 0.6469 0.0
O102 O 0.81735 -0.00357 0.59042 0.0
O103 O 0.82023 0.99254 0.50493 0.0
O104 O 0.82939 0.05598 0.45126 0.0
O105 O 0.7121 0.0698 0.52575 0.0
O106 O 0.81345 0.09821 0.4812 0.0
O107 O 0.74388 0.10563 0.51097 0.0
C108 C 0.74395 0.00873 0.4266 0.0
C109 C 0.81063 0.0921 0.63184 0.0
C110 C 0.82586 0.98312 0.55004 0.0
C111 C 0.73524 0.01454 0.64246 0.0
C112 C 0.8317 0.08355 0.4549 0.0
C113 C 0.71789 0.0962 0.51445 0.0
O114 O 0.77056 0.01661 0.42464 0.0
O115 O 0.06256 0.16238 0.3564 0.0
Zn116 Zn 0.03998 0.17217 0.42195 0.0
O117 O 0.04787 0.21171 0.44458 0.0
Zn118 Zn 0.01193 0.23314 0.45615 0.0
Zn119 Zn 0.0705 0.2307 0.39207 0.0
Zn120 Zn 0.07172 0.21118 0.50505 0.0
O121 O 0.01109 0.25039 0.53071 0.0
O122 O 0.04894 0.22692 0.56379 0.0
O123 O -0.0032 0.16466 0.41591 0.0
O124 O 0.97856 0.20471 0.45156 0.0
O125 O 0.00459 0.26037 0.3937 0.0
O126 O 0.04447 0.25271 0.34678 0.0
O127 O 0.10075 0.25695 0.42039 0.0
O128 O 0.05573 0.14398 0.47351 0.0
O129 O 0.10566 0.23842 0.49887 0.0
O130 O 0.08561 0.1707 0.52124 0.0
C131 C 0.08385 0.17581 0.33515 0.0
C132 C 0.02699 0.24344 0.5693 0.0
C133 C 0.01924 0.26351 0.3517 0.0
C134 C 0.97519 0.17936 0.4324 0.0
C135 C 0.11348 0.25617 0.46365 0.0
C136 C 0.07536 0.14611 0.50761 0.0
O137 O 0.09044 0.20165 0.34812 0.0
O138 O 0.15232 0.92338 0.59919 0.0
Zn139 Zn 0.16725 0.94269 0.53488 0.0
O140 O 0.2082 0.93541 0.52407 0.0
Zn141 Zn 0.23023 0.97195 0.52679 0.0
Zn142 Zn 0.22074 0.90865 0.57676 0.0
Zn143 Zn 0.21327 0.91614 0.45848 0.0
O144 O 0.25179 0.97833 0.4572 0.0
O145 O 0.23191 0.94368 0.40838 0.0
O146 O 0.15892 0.98496 0.53918 0.0
O147 O 0.20236 0.0059 0.53339 0.0
O148 O 0.25428 0.97336 0.59388 0.0
O149 O 0.24329 0.93043 0.62898 0.0
O150 O 0.24594 0.87704 0.54843 0.0
O151 O 0.14342 0.92493 0.47893 0.0
O152 O 0.24055 0.88292 0.4642 0.0
O153 O 0.17534 0.89975 0.4324 0.0
C154 C 0.16154 0.90114 0.6232 0.0
C155 C 0.24802 0.96615 0.4132 0.0
C156 C 0.25555 0.95524 0.63147 0.0
C157 C 0.17484 0.00763 0.53832 0.0
C158 C 0.25164 0.86962 0.50219 0.0
C159 C 0.1493 0.90678 0.44339 0.0
O160 O 0.18682 0.89099 0.61457 0.0
O161 O 0.93248 0.81641 0.34956 0.0
Zn162 Zn 0.95076 0.80969 0.41771 0.0
O163 O 0.9408 0.77268 0.4466 0.0
Zn164 Zn 0.97605 0.74942 0.44843 0.0
Zn165 Zn 0.91268 0.7563 0.40056 0.0
Zn166 Zn 0.92199 0.77682 0.51341 0.0
O167 O 0.97785 0.72938 0.51957 0.0
O168 O 0.94701 0.75691 0.56542 0.0
O169 O -0.00688 0.81601 0.41152 0.0
O170 O 0.01217 0.77531 0.44185 0.0
O171 O 0.97723 0.72409 0.38278 0.0
O172 O 0.93314 0.73081 0.35042 0.0
O173 O 0.88167 0.73455 0.43852 0.0
O174 O 0.93529 0.84066 0.46273 0.0
O175 O 0.88464 0.75357 0.51697 0.0
O176 O 0.9136 0.81972 0.53016 0.0
C177 C 0.90743 0.80827 0.33511 0.0
C178 C 0.96616 0.73691 0.56269 0.0
C179 C 0.95859 0.72026 0.34695 0.0
C180 C 0.0151 0.80108 0.42408 0.0
C181 C 0.87231 0.73679 0.4847 0.0
C182 C 0.92098 0.84249 0.50474 0.0
O183 O 0.89424 0.78725 0.35731 0.0
O184 O 0.65603 0.56242 0.62831 0.0
Zn185 Zn 0.66907 0.54055 0.5666 0.0
O186 O 0.70967 0.54717 0.5522 0.0
Zn187 Zn 0.72958 0.5093 0.55331 0.0
Zn188 Zn 0.7251 0.57408 0.60353 0.0
Zn189 Zn 0.7131 0.56579 0.48547 0.0
O190 O 0.75 0.50219 0.48403 0.0
O191 O 0.73353 0.53912 0.43676 0.0
O192 O 0.66012 0.49933 0.58009 0.0
O193 O 0.70111 0.47546 0.56623 0.0
O194 O 0.75646 0.50814 0.61506 0.0
O195 O 0.7498 0.55135 0.65186 0.0
O196 O 0.7489 0.60663 0.57144 0.0
O197 O 0.64386 0.55439 0.50965 0.0
O198 O 0.73807 0.60114 0.48887 0.0
O199 O 0.67419 0.57837 0.45766 0.0
C200 C 0.66692 0.58289 0.6548 0.0
C201 C 0.74822 0.51581 0.44108 0.0
C202 C 0.76079 0.52595 0.65206 0.0
C203 C 0.6742 0.47567 0.57838 0.0
C204 C 0.75115 0.61473 0.52452 0.0
C205 C 0.64857 0.57059 0.47068 0.0
O206 O 0.69295 0.59155 0.64731 0.0
O207 O 0.56573 0.33811 0.40144 0.0
Zn208 Zn 0.54927 0.32207 0.46749 0.0
O209 O 0.54999 0.28 0.46849 0.0
Zn210 Zn 0.50998 0.26546 0.47185 0.0
Zn211 Zn 0.56997 0.26646 0.40703 0.0
Zn212 Zn 0.57226 0.26695 0.52725 0.0
O213 O 0.50431 0.24126 0.53707 0.0
O214 O 0.54532 0.24954 0.57987 0.0
O215 O 0.50949 0.33809 0.4771 0.0
O216 O 0.48113 0.29893 0.47619 0.0
O217 O 0.50006 0.24376 0.40605 0.0
O218 O 0.54128 0.24757 0.36107 0.0
O219 O 0.60121 0.23744 0.42175 0.0
O220 O 0.57491 0.33797 0.52189 0.0
O221 O 0.5994 0.23507 0.50727 0.0
O222 O 0.59673 0.29977 0.55701 0.0
C223 C 0.58226 0.32674 0.36751 0.0
C224 C 0.51983 0.23868 0.5775 0.0
C225 C 0.51486 0.23951 0.36487 0.0
C226 C 0.48439 0.32647 0.47864 0.0
C227 C 0.6095 0.22648 0.46416 0.0
C228 C 0.59364 0.32718 0.55211 0.0
O229 O 0.58752 0.29958 0.36733 0.0
O230 O 0.31905 0.42836 0.65835 0.0
Zn231 Zn 0.30995 0.44787 0.5914 0.0
O232 O 0.26972 0.44213 0.57308 0.0
Zn233 Zn 0.25099 0.47967 0.56103 0.0
Zn234 Zn 0.25015 0.42164 0.62867 0.0
Zn235 Zn 0.26825 0.41722 0.51365 0.0
O236 O 0.23043 0.47923 0.48989 0.0
O237 O 0.2499 0.43894 0.45659 0.0
O238 O 0.32088 0.49003 0.59192 0.0
O239 O 0.28168 0.51167 0.56048 0.0
O240 O 0.22592 0.48998 0.62458 0.0
O241 O 0.22914 0.44996 0.67264 0.0
O242 O 0.22301 0.39068 0.60385 0.0
O243 O 0.3366 0.42733 0.54233 0.0
O244 O 0.24142 0.38378 0.52552 0.0
O245 O 0.3075 0.40105 0.49301 0.0
C246 C 0.30559 0.40832 0.68285 0.0
C247 C 0.23412 0.46151 0.45217 0.0
C248 C 0.22088 0.47612 0.66668 0.0
C249 C 0.30783 0.51277 0.57644 0.0
C250 C 0.22385 0.37671 0.56156 0.0
C251 C 0.33289 0.40817 0.50762 0.0
O252 O 0.2793 0.402 0.67307 0.0
O253 O 0.42653 0.65874 0.38384 0.0
Zn254 Zn 0.44909 0.66875 0.44748 0.0
O255 O 0.44361 0.70919 0.46691 0.0
Zn256 Zn 0.4811 0.72918 0.46959 0.0
Zn257 Zn 0.4199 0.72817 0.41636 0.0
Zn258 Zn 0.42279 0.7109 0.53219 0.0
O259 O 0.48551 0.74905 0.53936 0.0
O260 O 0.44826 0.73008 0.58395 0.0
O261 O 0.49112 0.65937 0.43726 0.0
O262 O 0.51358 0.70004 0.46098 0.0
O263 O 0.4866 0.75627 0.40773 0.0
O264 O 0.44386 0.75253 0.36964 0.0
O265 O 0.38859 0.75201 0.44769 0.0
O266 O 0.43273 0.64191 0.50132 0.0
O267 O 0.38784 0.73658 0.52872 0.0
O268 O 0.4089 0.67101 0.55532 0.0
C269 C 0.40699 0.67285 0.36014 0.0
C270 C 0.47109 0.74586 0.58143 0.0
C271 C 0.46979 0.76202 0.37017 0.0
C272 C 0.51433 0.67368 0.44572 0.0
C273 C 0.37753 0.75217 0.49277 0.0
C274 C 0.41586 0.64565 0.53984 0.0
O275 O 0.40124 0.69912 0.37123 0.0
O276 O 0.21704 0.51667 0.99769 0.0
Zn277 Zn 0.22525 0.5387 0.06481 0.0
O278 O 0.26697 0.54529 0.07109 0.0
Zn279 Zn 0.28205 0.52364 0.12833 0.0
Zn280 Zn 0.28801 0.53374 0.00983 0.0
Zn281 Zn 0.27381 0.58585 0.08472 0.0
O282 O 0.31022 0.54751 0.16933 0.0
O283 O 0.2932 0.5915 0.15189 0.0
O284 O 0.20857 0.52156 0.13281 0.0
O285 O 0.24967 0.51412 0.17565 0.0
O286 O 0.30147 0.48696 0.106 0.0
O287 O 0.31002 0.49612 0.02297 0.0
O288 O 0.31684 0.56505 0.98659 0.0
O289 O 0.20529 0.57735 0.05565 0.0
O290 O 0.30207 0.60243 0.03399 0.0
O291 O 0.23802 0.60978 0.08119 0.0
C292 C 0.23191 0.51787 0.95571 0.0
C293 C 0.3096 0.57479 0.17764 0.0
C294 C 0.31243 0.47983 0.06267 0.0
C295 C 0.22213 0.514 0.17353 0.0
C296 C 0.31852 0.59184 0.9992 0.0
C297 C 0.21264 0.60344 0.06595 0.0
O298 O 0.25836 0.5264 0.95467 0.0
O299 O 0.55971 0.66327 0.8817 0.0
Zn300 Zn 0.53544 0.67071 0.94533 0.0
O301 O 0.53806 0.711 0.96673 0.0
Zn302 Zn 0.49913 0.72749 0.97048 0.0
Zn303 Zn 0.56119 0.73206 0.91661 0.0
Zn304 Zn 0.55785 0.7139 0.03219 0.0
O305 O 0.49319 0.74823 0.03939 0.0
O306 O 0.53126 0.73218 0.08364 0.0
O307 O 0.49425 0.65752 0.93582 0.0
O308 O 0.46902 0.69527 0.96497 0.0
O309 O 0.49212 0.75322 0.90779 0.0
O310 O 0.53545 0.7538 0.8695 0.0
O311 O 0.58946 0.7591 0.9491 0.0
O312 O 0.5524 0.64504 0.99933 0.0
O313 O 0.59156 0.74146 0.02865 0.0
O314 O 0.57235 0.6748 0.05673 0.0
C315 C 0.57961 0.6784 0.85996 0.0
C316 C 0.50767 0.74652 0.08118 0.0
C317 C 0.5087 0.76059 0.87016 0.0
C318 C 0.47014 0.66921 0.9481 0.0
C319 C 0.60047 0.75899 0.9939 0.0
C320 C 0.56718 0.64929 0.03986 0.0
O321 O 0.58397 0.70481 0.87233 0.0
O322 O 0.66577 0.43073 0.13814 0.0
Zn323 Zn 0.67391 0.45391 0.07381 0.0
O324 O 0.71418 0.45058 0.05238 0.0
Zn325 Zn 0.73254 0.48891 0.05271 0.0
Zn326 Zn 0.73372 0.42532 0.10024 0.0
Zn327 Zn 0.71648 0.43281 0.98484 0.0
O328 O 0.75259 0.49681 0.98361 0.0
O329 O 0.73403 0.46125 0.93522 0.0
O330 O 0.66212 0.49538 0.08352 0.0
O331 O 0.7021 0.52005 0.06253 0.0
O332 O 0.75852 0.49311 0.11535 0.0
O333 O 0.75598 0.4491 0.15066 0.0
O334 O 0.75974 0.39695 0.06435 0.0
O335 O 0.64782 0.4363 0.02094 0.0
O336 O 0.74407 0.39951 0.98382 0.0
O337 O 0.67742 0.41736 0.96171 0.0
C338 C 0.67928 0.40913 0.15709 0.0
C339 C 0.74932 0.48428 0.94 0.0
C340 C 0.76428 0.47554 0.15209 0.0
C341 C 0.67546 0.51938 0.0763 0.0
C342 C 0.7604 0.38834 0.01771 0.0
C343 C 0.65202 0.42158 0.98007 0.0
O344 O 0.70486 0.40271 0.14222 0.0
O345 O 0.44099 0.32 0.85464 0.0
Zn346 Zn 0.45615 0.31593 0.92608 0.0
O347 O 0.44802 0.27844 0.95535 0.0
Zn348 Zn 0.48468 0.25834 0.96228 0.0
Zn349 Zn 0.42332 0.25951 0.90681 0.0
Zn350 Zn 0.42639 0.28135 0.01955 0.0
O351 O 0.48603 0.24035 0.03369 0.0
O352 O 0.45185 0.26583 0.07555 0.0
O353 O 0.49797 0.32666 0.92754 0.0
O354 O 0.51883 0.28668 0.95715 0.0
O355 O 0.48994 0.23054 0.90184 0.0
O356 O 0.448 0.23526 0.86073 0.0
O357 O 0.393 0.23503 0.94177 0.0
O358 O 0.43459 0.34551 0.96585 0.0
O359 O 0.39193 0.25377 0.02058 0.0
O360 O 0.41224 0.32321 0.03126 0.0
C361 C 0.41603 0.3112 0.84081 0.0
C362 C 0.47283 0.24769 0.07533 0.0
C363 C 0.4737 0.22522 0.86319 0.0
C364 C 0.52049 0.31299 0.94159 0.0
C365 C 0.38223 0.236 0.98715 0.0
C366 C 0.41788 0.34622 0.00511 0.0
O367 O 0.40381 0.28952 0.86283 0.0
H368 H 0.17738 0.13087 0.17547 0.0
H369 H 0.12705 0.05184 0.19156 0.0
H370 H 0.0946 0.07581 0.25321 0.0
H371 H 0.08009 0.11956 0.30149 0.0
H372 H 0.13005 0.19879 0.28254 0.0
H373 H 0.1628 0.17439 0.2228 0.0
C374 C 0.15949 0.11878 0.19285 0.0
C375 C 0.15473 0.08962 0.17916 0.0
C376 C 0.14062 0.13281 0.22738 0.0
C377 C 0.1312 0.07437 0.20149 0.0
C378 C 0.11259 0.08806 0.23664 0.0
C379 C 0.09804 0.13153 0.2841 0.0
C380 C 0.1025 0.16098 0.29661 0.0
C381 C 0.11694 0.11737 0.24955 0.0
C382 C 0.12598 0.17611 0.27373 0.0
C383 C 0.14485 0.16217 0.23959 0.0
H384 H 0.06831 0.85553 0.78378 0.0
H385 H 0.12509 0.78086 0.78106 0.0
H386 H 0.15635 0.80492 0.71768 0.0
H387 H 0.16828 0.84743 0.66466 0.0
H388 H 0.11134 0.9219 0.66613 0.0
H389 H 0.07948 0.89756 0.72859 0.0
C390 C 0.08744 0.84444 0.76918 0.0
C391 C 0.09436 0.81649 0.78737 0.0
C392 C 0.1054 0.85839 0.73276 0.0
C393 C 0.1192 0.8024 0.76783 0.0
C394 C 0.13718 0.81616 0.73165 0.0
C395 C 0.14895 0.8584 0.67874 0.0
C396 C 0.1423 0.88649 0.66104 0.0
C397 C 0.13063 0.84423 0.71423 0.0
C398 C 0.11698 0.90026 0.67919 0.0
C399 C 0.09874 0.88637 0.7149 0.0
H400 H 0.85021 0.80726 0.31021 0.0
H401 H 0.93251 0.84661 0.26805 0.0
H402 H 0.90855 0.87685 0.20417 0.0
H403 H 0.86446 0.89326 0.16265 0.0
H404 H 0.78168 0.85497 0.20484 0.0
H405 H 0.80576 0.82312 0.26667 0.0
C406 C 0.86292 0.82225 0.28669 0.0
C407 C 0.89304 0.82476 0.29394 0.0
C408 C 0.84897 0.8399 0.25046 0.0
C409 C 0.90924 0.84439 0.26341 0.0
C410 C 0.89558 0.86171 0.22691 0.0
C411 C 0.85158 0.878 0.18533 0.0
C412 C 0.82131 0.87662 0.17934 0.0
C413 C 0.86546 0.85988 0.22062 0.0
C414 C 0.80504 0.85655 0.20885 0.0
C415 C 0.81877 0.83831 0.24413 0.0
H416 H 0.84762 0.07539 0.70665 0.0
H417 H 0.8039 0.15086 0.64574 0.0
H418 H 0.82646 0.1814 0.71143 0.0
H419 H 0.859 0.18658 0.78586 0.0
H420 H 0.90272 0.11055 0.84487 0.0
H421 H 0.87961 0.08039 0.78009 0.0
C422 C 0.84294 0.09851 0.70762 0.0
C423 C 0.82411 0.11079 0.67133 0.0
C424 C 0.85598 0.11589 0.74517 0.0
C425 C 0.81837 0.14082 0.67323 0.0
C426 C 0.83123 0.15831 0.71078 0.0
C427 C 0.86337 0.16341 0.78461 0.0
C428 C 0.8826 0.15091 0.82011 0.0
C429 C 0.85011 0.14606 0.74694 0.0
C430 C 0.88813 0.12084 0.81788 0.0
C431 C 0.87491 0.10349 0.78087 0.0
H432 H 0.57376 0.6249 0.81703 0.0
H433 H 0.62867 0.70138 0.81528 0.0
H434 H 0.66117 0.67826 0.75293 0.0
H435 H 0.67401 0.63624 0.69871 0.0
H436 H 0.61807 0.56053 0.69937 0.0
H437 H 0.58615 0.58343 0.76258 0.0
C438 C 0.59281 0.63656 0.80304 0.0
C439 C 0.59874 0.66479 0.82088 0.0
C440 C 0.61134 0.62324 0.7671 0.0
C441 C 0.6235 0.67962 0.8021 0.0
C442 C 0.64218 0.6664 0.76654 0.0
C443 C 0.65493 0.62473 0.71297 0.0
C444 C 0.64846 0.59676 0.69445 0.0
C445 C 0.63635 0.63818 0.74886 0.0
C446 C 0.6235 0.58217 0.71286 0.0
C447 C 0.6052 0.59522 0.74903 0.0
H448 H 0.63051 0.31464 0.3115 0.0
H449 H 0.56621 0.38131 0.33737 0.0
H450 H 0.59061 0.4128 0.27423 0.0
H451 H 0.63029 0.4213 0.21206 0.0
H452 H 0.6955 0.3551 0.18911 0.0
H453 H 0.67064 0.32353 0.25112 0.0
C454 C 0.62172 0.33599 0.3031 0.0
C455 C 0.59652 0.34558 0.32873 0.0
C456 C 0.63608 0.35409 0.26756 0.0
C457 C 0.58562 0.37346 0.31806 0.0
C458 C 0.59953 0.39145 0.28201 0.0
C459 C 0.63905 0.39996 0.22062 0.0
C460 C 0.66464 0.39055 0.19592 0.0
C461 C 0.62481 0.38199 0.25662 0.0
C462 C 0.67588 0.36294 0.20772 0.0
C463 C 0.66164 0.34481 0.24304 0.0
H464 H 0.35762 0.31386 0.83136 0.0
H465 H 0.4377 0.34975 0.77028 0.0
H466 H 0.41037 0.38418 0.71799 0.0
H467 H 0.364 0.40461 0.69125 0.0
H468 H 0.28379 0.36908 0.75262 0.0
H469 H 0.31108 0.33424 0.80421 0.0
C470 C 0.36907 0.32892 0.806 0.0
C471 C 0.39958 0.3292 0.80439 0.0
C472 C 0.35328 0.34904 0.77701 0.0
C473 C 0.41418 0.34912 0.77202 0.0
C474 C 0.3986 0.3689 0.7424 0.0
C475 C 0.35245 0.38951 0.71639 0.0
C476 C 0.32193 0.38955 0.71837 0.0
C477 C 0.36819 0.36929 0.74516 0.0
C478 C 0.3073 0.36955 0.75058 0.0
C479 C 0.32286 0.34952 0.77982 0.0
H480 H 0.31971 0.632 0.19107 0.0
H481 H 0.34464 0.5473 0.24769 0.0
H482 H 0.37848 0.57024 0.30779 0.0
H483 H 0.40011 0.61462 0.34499 0.0
H484 H 0.37418 0.69877 0.28698 0.0
H485 H 0.34168 0.67553 0.22598 0.0
C486 C 0.33239 0.61843 0.21665 0.0
C487 C 0.32951 0.58801 0.21521 0.0
C488 C 0.35175 0.63164 0.25051 0.0
C489 C 0.34639 0.57082 0.24825 0.0
C490 C 0.36577 0.5839 0.28247 0.0
C491 C 0.38756 0.62781 0.31859 0.0
C492 C 0.38945 0.65833 0.32057 0.0
C493 C 0.36859 0.61432 0.28392 0.0
C494 C 0.37296 0.67522 0.28643 0.0
C495 C 0.35434 0.66198 0.25158 0.0
H496 H 0.1194 0.96435 0.03077 0.0
H497 H 0.20216 0.92063 0.02277 0.0
H498 H 0.17734 0.87354 0.01862 0.0
H499 H 0.13192 0.84492 0.01203 0.0
H500 H 0.04965 0.88946 0.01422 0.0
H501 H 0.07444 0.936 0.02688 0.0
C502 C 0.1321 0.94456 0.02842 0.0
C503 C 0.16264 0.94613 0.02685 0.0
C504 C 0.11771 0.91762 0.02533 0.0
C505 C 0.17863 0.92015 0.02366 0.0
C506 C 0.16445 0.89317 0.02146 0.0
C507 C 0.11948 0.86477 0.01642 0.0
C508 C 0.08902 0.86381 0.01267 0.0
C509 C 0.13398 0.89164 0.02172 0.0
C510 C 0.07312 0.88972 0.01721 0.0
C511 C 0.08728 0.91632 0.02417 0.0
H512 H 0.84085 0.85172 0.94977 0.0
H513 H 0.88424 0.93372 0.92357 0.0
H514 H 0.93006 0.90847 0.90656 0.0
H515 H 0.95879 0.86372 0.91079 0.0
H516 H 0.91618 0.78205 0.94579 0.0
H517 H 0.86914 0.80639 0.94799 0.0
C518 C 0.86017 0.86386 0.93852 0.0
C519 C 0.85928 0.89438 0.93689 0.0
C520 C 0.88671 0.84928 0.93178 0.0
C521 C 0.88452 0.91014 0.9241 0.0
C522 C 0.91072 0.89573 0.91501 0.0
C523 C 0.9392 0.85116 0.9183 0.0
C524 C 0.94109 0.82115 0.92867 0.0
C525 C 0.91228 0.8654 0.92065 0.0
C526 C 0.91543 0.80524 0.93835 0.0
C527 C 0.88848 0.81912 0.93942 0.0
H528 H 0.91835 0.09942 0.06188 0.0
H529 H 0.8451 0.15712 0.07459 0.0
H530 H 0.81242 0.11535 0.0867 0.0
H531 H 0.8043 0.06216 0.07977 0.0
H532 H 0.87848 0.00523 0.06708 0.0
H533 H 0.91113 0.04692 0.0689 0.0
C534 C 0.89532 0.10282 0.06889 0.0
C535 C 0.88401 0.13109 0.06696 0.0
C536 C 0.87677 0.07882 0.0746 0.0
C537 C 0.85425 0.13545 0.07631 0.0
C538 C 0.83554 0.11157 0.08245 0.0
C539 C 0.82761 0.05894 0.07795 0.0
C540 C 0.83888 0.03069 0.07221 0.0
C541 C 0.84645 0.0831 0.07931 0.0
C542 C 0.86917 0.02675 0.07102 0.0
C543 C 0.88793 0.05057 0.07205 0.0
H544 H 0.05957 0.18086 0.92619 0.0
H545 H 0.00281 0.10951 0.96938 0.0
H546 H 0.04386 0.07675 0.97267 0.0
H547 H 0.09587 0.0686 0.96893 0.0
H548 H 0.15385 0.1387 0.92582 0.0
H549 H 0.11237 0.17138 0.91559 0.0
C550 C 0.05627 0.15814 0.93619 0.0
C551 C 0.02815 0.14781 0.94793 0.0
C552 C 0.08013 0.13907 0.93769 0.0
C553 C 0.02416 0.11817 0.96017 0.0
C554 C 0.04765 0.09931 0.9621 0.0
C555 C 0.09945 0.09094 0.95664 0.0
C556 C 0.12785 0.10126 0.9486 0.0
C557 C 0.0757 0.10957 0.95159 0.0
C558 C 0.13213 0.13017 0.93209 0.0
C559 C 0.10844 0.14895 0.92673 0.0
H560 H 0.87624 0.97083 0.50242 0.0
H561 H 0.81328 0.93564 0.60965 0.0
H562 H 0.83903 0.88889 0.61024 0.0
H563 H 0.877 0.85681 0.57264 0.0
H564 H 0.94104 0.89431 0.46893 0.0
H565 H 0.9178 0.94143 0.47564 0.0
C566 C 0.86841 0.95296 0.52628 0.0
C567 C 0.84282 0.95624 0.55521 0.0
C568 C 0.88355 0.92658 0.52712 0.0
C569 C 0.83297 0.93332 0.58684 0.0
C570 C 0.84764 0.90666 0.58709 0.0
C571 C 0.88623 0.87544 0.55254 0.0
C572 C 0.91036 0.87176 0.51945 0.0
C573 C 0.87266 0.90282 0.55643 0.0
C574 C 0.92216 0.89627 0.49394 0.0
C575 C 0.90886 0.92332 0.49756 0.0
H576 H 0.84462 0.14116 0.46085 0.0
H577 H 0.87922 0.05935 0.40682 0.0
H578 H 0.92643 0.08244 0.39126 0.0
H579 H 0.95918 0.12457 0.40212 0.0
H580 H 0.92423 0.20559 0.45943 0.0
H581 H 0.87598 0.18394 0.46465 0.0
C582 C 0.86229 0.12838 0.44487 0.0
C583 C 0.85835 0.09844 0.4356 0.0
C584 C 0.88954 0.14156 0.43734 0.0
C585 C 0.88157 0.0824 0.41453 0.0
C586 C 0.90868 0.09555 0.40594 0.0
C587 C 0.94097 0.13759 0.41529 0.0
C588 C 0.94553 0.16659 0.43102 0.0
C589 C 0.91314 0.12491 0.41874 0.0
C590 C 0.92156 0.18314 0.44761 0.0
C591 C 0.89386 0.1708 0.45056 0.0
H592 H 0.13207 0.13776 0.52984 0.0
H593 H 0.04912 0.09389 0.5238 0.0
H594 H 0.07279 0.04709 0.53782 0.0
H595 H 0.11709 0.0185 0.54207 0.0
H596 H 0.2007 0.06157 0.5416 0.0
H597 H 0.1767 0.10894 0.53989 0.0
C598 C 0.11917 0.118 0.5329 0.0
C599 C 0.08895 0.11913 0.52593 0.0
C600 C 0.13306 0.09107 0.53883 0.0
C601 C 0.07244 0.09342 0.52904 0.0
C602 C 0.08597 0.0667 0.53678 0.0
C603 C 0.13017 0.0382 0.54205 0.0
C604 C 0.16068 0.03644 0.54136 0.0
C605 C 0.1163 0.06521 0.54006 0.0
C606 C 0.17718 0.06227 0.54164 0.0
C607 C 0.16347 0.08937 0.54073 0.0
H608 H 0.14354 0.84846 0.44165 0.0
H609 H 0.10006 0.92817 0.40172 0.0
H610 H 0.05502 0.90123 0.38624 0.0
H611 H 0.02692 0.85656 0.39525 0.0
H612 H 0.06862 0.77721 0.44406 0.0
H613 H 0.1156 0.80242 0.44493 0.0
C614 C 0.12438 0.85966 0.42793 0.0
C615 C 0.12499 0.89009 0.42199 0.0
C616 C 0.09822 0.84422 0.42194 0.0
C617 C 0.09999 0.90469 0.40581 0.0
C618 C 0.07426 0.88933 0.39748 0.0
C619 C 0.04626 0.84455 0.4056 0.0
C620 C 0.04414 0.81505 0.42017 0.0
C621 C 0.0729 0.85931 0.40727 0.0
C622 C 0.06956 0.79997 0.43315 0.0
C623 C 0.09643 0.81437 0.4336 0.0
H624 H 0.69244 0.41895 0.56688 0.0
H625 H 0.61917 0.471 0.61573 0.0
H626 H 0.58903 0.42783 0.62221 0.0
H627 H 0.58105 0.37693 0.60051 0.0
H628 H 0.65278 0.32384 0.55057 0.0
H629 H 0.68605 0.36537 0.55958 0.0
C630 C 0.67004 0.42074 0.57972 0.0
C631 C 0.65797 0.44836 0.58925 0.0
C632 C 0.65246 0.39559 0.58329 0.0
C633 C 0.62897 0.45019 0.60677 0.0
C634 C 0.61161 0.42546 0.61078 0.0
C635 C 0.60417 0.37426 0.59344 0.0
C636 C 0.61454 0.34764 0.57479 0.0
C637 C 0.6228 0.39828 0.59723 0.0
C638 C 0.64444 0.3442 0.56554 0.0
C639 C 0.66335 0.36806 0.5699 0.0
H640 H 0.3896 0.42215 0.52022 0.0
H641 H 0.33371 0.35591 0.45651 0.0
H642 H 0.37577 0.32457 0.44146 0.0
H643 H 0.42816 0.31469 0.45231 0.0
H644 H 0.48336 0.38172 0.51553 0.0
H645 H 0.44175 0.41383 0.52535 0.0
C646 C 0.38658 0.401 0.50245 0.0
C647 C 0.35849 0.39135 0.4899 0.0
C648 C 0.41072 0.383 0.49456 0.0
C649 C 0.35509 0.36396 0.46645 0.0
C650 C 0.37912 0.3459 0.45825 0.0
C651 C 0.43102 0.33631 0.46826 0.0
C652 C 0.45878 0.34566 0.48365 0.0
C653 C 0.40696 0.35494 0.47328 0.0
C654 C 0.46224 0.37393 0.50348 0.0
C655 C 0.43846 0.39235 0.50909 0.0
H656 H 0.36609 0.52099 0.58298 0.0
H657 H 0.2853 0.56769 0.56939 0.0
H658 H 0.31193 0.61381 0.5654 0.0
H659 H 0.35837 0.64041 0.55827 0.0
H660 H 0.43889 0.593 0.56318 0.0
H661 H 0.41223 0.54763 0.57944 0.0
C662 C 0.35424 0.54126 0.57964 0.0
C663 C 0.32374 0.54086 0.5762 0.0
C664 C 0.3697 0.56759 0.57621 0.0
C665 C 0.30879 0.56735 0.57161 0.0
C666 C 0.324 0.59374 0.56953 0.0
C667 C 0.37001 0.62023 0.5644 0.0
C668 C 0.40048 0.61994 0.56038 0.0
C669 C 0.35447 0.59408 0.57097 0.0
C670 C 0.41542 0.59363 0.56675 0.0
C671 C 0.40019 0.56773 0.57557 0.0
H672 H 0.52376 0.61595 0.43155 0.0
H673 H 0.56862 0.69826 0.44582 0.0
H674 H 0.61531 0.6732 0.44384 0.0
H675 H 0.64283 0.6276 0.44958 0.0
H676 H 0.59737 0.54548 0.44446 0.0
H677 H 0.55149 0.57072 0.42967 0.0
C678 C 0.54373 0.6285 0.43355 0.0
C679 C 0.54266 0.65891 0.43956 0.0
C680 C 0.57041 0.61393 0.4337 0.0
C681 C 0.56879 0.67479 0.44192 0.0
C682 C 0.59552 0.66049 0.44062 0.0
C683 C 0.62299 0.61529 0.44339 0.0
C684 C 0.62331 0.58482 0.44757 0.0
C685 C 0.59654 0.63002 0.43797 0.0
C686 C 0.59749 0.56898 0.44091 0.0
C687 C 0.57128 0.58342 0.43302 0.0
H688 H 0.37323 0.35681 0.07371 0.0
H689 H 0.42849 0.39856 0.95961 0.0
H690 H 0.40025 0.4428 0.96614 0.0
H691 H 0.35873 0.46942 1.00093 0.0
H692 H 0.30453 0.42982 0.11824 0.0
H693 H 0.33327 0.38512 0.11351 0.0
C694 C 0.37932 0.37571 0.05087 0.0
C695 C 0.40283 0.37407 0.01591 0.0
C696 C 0.36292 0.40146 0.05475 0.0
C697 C 0.4104 0.39891 0.98663 0.0
C698 C 0.39419 0.42434 0.9901 0.0
C699 C 0.35314 0.45093 0.02523 0.0
C700 C 0.32938 0.45269 0.05927 0.0
C701 C 0.37013 0.4257 0.02327 0.0
C702 C 0.32271 0.42885 0.09145 0.0
C703 C 0.33915 0.40333 0.08885 0.0
H704 H 0.37009 0.57505 0.95613 0.0
H705 H 0.32023 0.65099 0.99768 0.0
H706 H 0.36231 0.68208 0.98115 0.0
H707 H 0.41453 0.68714 0.96485 0.0
H708 H 0.46505 0.61121 0.92558 0.0
H709 H 0.4215 0.58089 0.9309 0.0
C710 C 0.36826 0.59846 0.96036 0.0
C711 C 0.34214 0.61061 0.97862 0.0
C712 C 0.39282 0.61625 0.952 0.0
C713 C 0.34017 0.64101 0.98414 0.0
C714 C 0.36427 0.65884 0.9749 0.0
C715 C 0.41602 0.66401 0.95695 0.0
C716 C 0.44316 0.65149 0.94563 0.0
C717 C 0.39094 0.64659 0.96053 0.0
C718 C 0.44452 0.62149 0.93485 0.0
C719 C 0.4196 0.60406 0.93791 0.0
H720 H 0.62341 0.64577 0.06727 0.0
H721 H 0.544 0.59604 0.05903 0.0
H722 H 0.57065 0.55119 0.07647 0.0
H723 H 0.617 0.52578 0.08183 0.0
H724 H 0.6972 0.57489 0.08102 0.0
H725 H 0.66985 0.62036 0.0794 0.0
C726 C 0.61194 0.62518 0.07094 0.0
C727 C 0.58188 0.62403 0.06238 0.0
C728 C 0.62763 0.59938 0.07819 0.0
C729 C 0.56717 0.59727 0.06586 0.0
C730 C 0.58241 0.57168 0.07539 0.0
C731 C 0.62855 0.54641 0.08208 0.0
C732 C 0.6591 0.54692 0.08099 0.0
C733 C 0.61275 0.57237 0.07965 0.0
C734 C 0.67368 0.57388 0.08126 0.0
C735 C 0.65806 0.59989 0.08042 0.0
H736 H 0.52911 0.37111 0.93199 0.0
H737 H 0.57524 0.29027 0.9517 0.0
H738 H 0.62121 0.31705 0.95693 0.0
H739 H 0.64756 0.36383 0.96386 0.0
H740 H 0.60016 0.44424 0.95298 0.0
H741 H 0.5554 0.41728 0.93503 0.0
C742 C 0.54922 0.35923 0.93687 0.0
C743 C 0.54869 0.3287 0.94171 0.0
C744 C 0.57535 0.37477 0.94109 0.0
C745 C 0.57499 0.31377 0.94828 0.0
C746 C 0.60129 0.32907 0.95113 0.0
C747 C 0.62753 0.37533 0.95606 0.0
C748 C 0.62701 0.40588 0.95876 0.0
C749 C 0.60165 0.35961 0.94851 0.0
C750 C 0.60093 0.42072 0.95032 0.0
C751 C 0.57538 0.40531 0.94054 0.0
H752 H 0.26321 0.01047 0.66784 0.0
H753 H 0.27097 0.92025 0.71183 0.0
H754 H 0.27371 0.934 0.80247 0.0
H755 H 0.2649 0.97094 0.87008 0.0
H756 H 0.25603 0.06094 0.82511 0.0
H757 H 0.26309 0.04804 0.73494 0.0
C758 C 0.26649 -0.00611 0.69703 0.0
C759 C 0.26635 0.96437 0.68291 0.0
C760 C 0.26724 0.00186 0.74947 0.0
C761 C 0.27061 0.94318 0.72153 0.0
C762 C 0.272 0.95099 0.77359 0.0
C763 C 0.26529 0.98777 0.84068 0.0
C764 C 0.25927 0.01674 0.8544 0.0
C765 C 0.2689 0.98016 0.78825 0.0
C766 C 0.25998 0.03832 0.81566 0.0
C767 C 0.26404 0.03101 0.76389 0.0
H768 H 0.01328 0.72113 0.30654 0.0
H769 H 0.92474 0.69941 0.26897 0.0
H770 H 0.9368 0.70075 0.17704 0.0
H771 H 0.97053 0.71674 0.10737 0.0
H772 H 0.05852 0.74016 0.14696 0.0
H773 H 0.04861 0.72951 0.23714 0.0
C774 C -0.00315 0.71559 0.27841 0.0
C775 C 0.96809 0.71052 0.29482 0.0
C776 C 0.00364 0.71757 0.22545 0.0
C777 C 0.94707 0.70358 0.25751 0.0
C778 C 0.95387 0.70466 0.20477 0.0
C779 C 0.98763 0.71902 0.1356 0.0
C780 C 0.01499 0.72998 0.12023 0.0
C781 C 0.98175 0.71311 0.1882 0.0
C782 C 0.03699 0.73247 0.15751 0.0
C783 C 0.03144 0.72624 0.20935 0.0
H784 H 0.72065 0.94629 0.84404 0.0
H785 H 0.7358 0.03215 0.90587 0.0
H786 H 0.72745 0.05351 0.82089 0.0
H787 H 0.72668 0.04639 0.72707 0.0
H788 H 0.71399 0.96057 0.66446 0.0
H789 H 0.7096 0.94046 0.75191 0.0
C790 C 0.7215 0.96974 0.83908 0.0
C791 C 0.72962 0.98761 0.88066 0.0
C792 C 0.71715 0.98176 0.79002 0.0
C793 C 0.72992 0.01796 0.87425 0.0
C794 C 0.72527 0.03015 0.82564 0.0
C795 C 0.72165 0.0235 0.73281 0.0
C796 C 0.72073 0.00484 0.68999 0.0
C797 C 0.72036 0.01211 0.78292 0.0
C798 C 0.71444 0.97524 0.69715 0.0
C799 C 0.71243 0.96374 0.74709 0.0
H800 H 0.94253 0.26235 0.156 0.0
H801 H 0.02711 0.26407 0.08273 0.0
H802 H 0.04941 0.27586 0.16562 0.0
H803 H 0.04547 0.27686 0.26017 0.0
H804 H 0.96106 0.27135 0.33374 0.0
H805 H 0.93801 0.27093 0.24918 0.0
C806 C 0.96584 0.26575 0.1579 0.0
C807 C 0.98324 0.26167 0.11335 0.0
C808 C 0.9785 0.27181 0.20582 0.0
C809 C 0.01326 0.26683 0.11636 0.0
C810 C 0.026 0.27344 0.16386 0.0
C811 C 0.02195 0.27633 0.25788 0.0
C812 C 0.00507 0.27351 0.30348 0.0
C813 C 0.00894 0.27472 0.20911 0.0
C814 C 0.97464 0.27339 0.29956 0.0
C815 C 0.96146 0.27277 0.25108 0.0
H816 H 0.70809 0.94383 0.22623 0.0
H817 H 0.72577 0.02901 0.16205 0.0
H818 H 0.72907 0.04922 0.24862 0.0
H819 H 0.7373 0.04046 0.34098 0.0
H820 H 0.72064 0.95555 0.4057 0.0
H821 H 0.70678 0.93726 0.32035 0.0
C822 C 0.7118 0.96699 0.23109 0.0
C823 C 0.71759 0.98467 0.18765 0.0
C824 C 0.71466 0.97831 0.28104 0.0
C825 C 0.72165 0.01476 0.19469 0.0
C826 C 0.72389 0.02632 0.24427 0.0
C827 C 0.72999 0.01813 0.33631 0.0
C828 C 0.73037 -0.00091 0.37865 0.0
C829 C 0.72217 0.00794 0.28744 0.0
C830 C 0.72059 0.97036 0.3731 0.0
C831 C 0.71277 0.95998 0.32444 0.0
H832 H 0.97527 0.26403 0.60955 0.0
H833 H 0.06394 0.24491 0.65024 0.0
H834 H 0.05245 0.25157 0.74103 0.0
H835 H 0.01588 0.25542 0.81 0.0
H836 H 0.92705 0.2743 0.77056 0.0
H837 H 0.94012 0.27585 0.67926 0.0
C838 C 0.99218 0.26196 0.63818 0.0
C839 C 0.02024 0.25328 0.62283 0.0
C840 C 0.98541 0.26557 0.6911 0.0
C841 C 0.04193 0.25092 0.66072 0.0
C842 C 0.03545 0.25478 0.71293 0.0
C843 C -0.00047 0.26076 0.78166 0.0
C844 C 0.97045 0.26422 0.7974 0.0
C845 C 0.00703 0.26102 0.7288 0.0
C846 C 0.94961 0.27115 0.75976 0.0
C847 C 0.957 0.27188 0.70727 0.0
H848 H 0.25913 0.93892 0.32227 0.0
H849 H 0.26422 0.0229 0.396 0.0
H850 H 0.27464 0.04583 0.31248 0.0
H851 H 0.27422 0.04278 0.21772 0.0
H852 H 0.26736 0.95882 0.14406 0.0
H853 H 0.26664 0.93509 0.22845 0.0
C854 C 0.26302 0.9622 0.32024 0.0
C855 C 0.26034 0.97926 0.36526 0.0
C856 C 0.2686 0.97525 0.27202 0.0
C857 C 0.266 0.00928 0.36205 0.0
C858 C 0.2718 0.02242 0.31419 0.0
C859 C 0.27332 0.01922 0.21995 0.0
C860 C 0.27029 0.00269 0.17435 0.0
C861 C 0.272 0.00574 0.26873 0.0
C862 C 0.26959 0.97217 0.17823 0.0
C863 C 0.26884 0.95856 0.22663 0.0
H864 H 0.03117 0.69941 0.7632 0.0
H865 H 0.94898 0.72389 0.83144 0.0
H866 H 0.9276 0.7272 0.74564 0.0
H867 H 0.93519 0.73273 0.65201 0.0
H868 H 0.01809 0.71064 0.58386 0.0
H869 H 0.03629 0.69681 0.66889 0.0
C870 C 0.0083 0.70458 0.75943 0.0
C871 C 0.99185 0.71192 0.80372 0.0
C872 C -0.00346 0.70767 0.7099 0.0
C873 C 0.96218 0.71816 0.79818 0.0
C874 C 0.95006 0.7205 0.74898 0.0
C875 C 0.95713 0.72447 0.65562 0.0
C876 C 0.97552 0.72337 0.61182 0.0
C877 C 0.96751 0.71691 0.70466 0.0
C878 C 0.0036 0.71196 0.61695 0.0
C879 C 0.01403 0.70413 0.66561 0.0
H880 H 0.76521 0.54567 0.35597 0.0
H881 H 0.76098 0.45889 0.41958 0.0
H882 H 0.7725 0.43851 0.33465 0.0
H883 H 0.77442 0.44533 0.24071 0.0
H884 H 0.77591 0.53233 0.17708 0.0
H885 H 0.77586 0.55263 0.26392 0.0
C886 C 0.76734 0.5223 0.35144 0.0
C887 C 0.76155 0.50374 0.39364 0.0
C888 C 0.77338 0.51079 0.30246 0.0
C889 C 0.76507 0.47359 0.38758 0.0
C890 C 0.77151 0.46195 0.33896 0.0
C891 C 0.77553 0.46875 0.24567 0.0
C892 C 0.77433 0.48726 0.20223 0.0
C893 C 0.77436 0.48032 0.29576 0.0
C894 C 0.77639 0.51752 0.20963 0.0
C895 C 0.77609 0.52918 0.25938 0.0
H896 H 0.54833 0.22275 0.66441 0.0
H897 H 0.46291 0.22446 0.59686 0.0
H898 H 0.44112 0.21254 0.6805 0.0
H899 H 0.44586 0.21157 0.77438 0.0
H900 H 0.53111 0.21373 0.84266 0.0
H901 H 0.55341 0.21295 0.75695 0.0
C902 C 0.52497 0.22003 0.66772 0.0
C903 C 0.50721 0.22533 0.62474 0.0
C904 C 0.51253 0.21389 0.71616 0.0
C905 C 0.47707 0.22095 0.62944 0.0
C906 C 0.46457 0.2142 0.67733 0.0
C907 C 0.46935 0.21106 0.77069 0.0
C908 C 0.48675 0.21366 0.81494 0.0
C909 C 0.48201 0.21207 0.72131 0.0
C910 C 0.51713 0.21219 0.80936 0.0
C911 C 0.52993 0.21209 0.76025 0.0
H912 H 0.21092 0.46178 0.21591 0.0
H913 H 0.20354 0.5538 0.24258 0.0
H914 H 0.20244 0.54561 0.33597 0.0
H915 H 0.21486 0.51287 0.40892 0.0
H916 H 0.2231 0.42074 0.37972 0.0
H917 H 0.21218 0.42824 0.2893 0.0
C918 C 0.20741 0.47981 0.24222 0.0
C919 C 0.20699 0.50824 0.22265 0.0
C920 C 0.20797 0.47497 0.29575 0.0
C921 C 0.20327 0.53163 0.25695 0.0
C922 C 0.20325 0.52698 0.31041 0.0
C923 C 0.21347 0.49441 0.38303 0.0
C924 C 0.22077 0.46645 0.4009 0.0
C925 C 0.20735 0.49885 0.33026 0.0
C926 C 0.21848 0.44268 0.36683 0.0
C927 C 0.21211 0.44687 0.31494 0.0
H928 H 0.43937 0.75733 0.66735 0.0
H929 H 0.52612 0.76463 0.60382 0.0
H930 H 0.54469 0.77739 0.689 0.0
H931 H 0.53744 0.77705 0.78272 0.0
H932 H 0.45103 0.76618 0.84651 0.0
H933 H 0.43102 0.76546 0.7597 0.0
C934 C 0.4623 0.76214 0.67196 0.0
C935 C 0.4815 0.75924 0.62971 0.0
C936 C 0.47285 0.76883 0.72109 0.0
C937 C 0.51097 0.76634 0.6359 0.0
C938 C 0.52159 0.77356 0.68462 0.0
C939 C 0.51412 0.7753 0.77782 0.0
C940 C 0.49587 0.77076 0.82112 0.0
C941 C 0.50292 0.77351 0.72779 0.0
C942 C 0.46566 0.76927 0.81397 0.0
C943 C 0.45421 0.76853 0.76424 0.0
H944 H 0.2332 0.54819 0.86678 0.0
H945 H 0.20185 0.46807 0.93411 0.0
H946 H 0.18962 0.4497 0.84806 0.0
H947 H 0.19605 0.4536 0.75371 0.0
H948 H 0.22742 0.53407 0.68698 0.0
H949 H 0.23026 0.55567 0.77277 0.0
C950 C 0.22307 0.52697 0.86254 0.0
C951 C 0.21884 0.50921 0.90626 0.0
C952 C 0.21608 0.51671 0.81314 0.0
C953 C 0.20535 0.48198 0.9008 0.0
C954 C 0.1985 0.47148 0.85164 0.0
C955 C 0.20258 0.47619 0.75781 0.0
C956 C 0.21202 0.49201 0.714 0.0
C957 C 0.20488 0.48823 0.80745 0.0
C958 C 0.22006 0.52136 0.71988 0.0
C959 C 0.2221 0.53361 0.7691 0.0
H960 H 0.53887 0.76117 0.1653 0.0
H961 H 0.45178 0.76237 0.10491 0.0
H962 H 0.43274 0.77526 0.19026 0.0
H963 H 0.44014 0.77654 0.28371 0.0
H964 H 0.52704 0.77141 0.34455 0.0
H965 H 0.54695 0.77102 0.25699 0.0
C966 C 0.51574 0.76469 0.1706 0.0
C967 C 0.49664 0.76001 0.12923 0.0
C968 C 0.50495 0.77143 0.21987 0.0
C969 C 0.46687 0.76545 0.13629 0.0
C970 C 0.45599 0.77275 0.18512 0.0
C971 C 0.46351 0.77616 0.27796 0.0
C972 C 0.48201 0.77309 0.32074 0.0
C973 C 0.47471 0.77441 0.22756 0.0
C974 C 0.51224 0.77338 0.31248 0.0
C975 C 0.52363 0.77278 0.26232 0.0
H976 H 0.76737 0.45564 0.85488 0.0
H977 H 0.7594 0.54184 0.919 0.0
H978 H 0.7695 0.56315 0.83399 0.0
H979 H 0.77082 0.55669 0.73999 0.0
H980 H 0.77641 0.47008 0.67603 0.0
H981 H 0.77821 0.44959 0.76272 0.0
C982 C 0.76843 0.47912 0.85039 0.0
C983 C 0.76194 0.4972 0.89265 0.0
C984 C 0.77375 0.49111 0.80144 0.0
C985 C 0.76406 0.52752 0.88683 0.0
C986 C 0.76969 0.53968 0.8382 0.0
C987 C 0.77326 0.53338 0.74485 0.0
C988 C 0.77251 0.51491 0.70146 0.0
C989 C 0.77316 0.52162 0.79488 0.0
C990 C 0.77643 0.48483 0.7086 0.0
C991 C 0.77717 0.47303 0.75827 0.0
H992 H 0.54022 0.21941 0.27728 0.0
H993 H 0.45665 0.2401 0.34438 0.0
H994 H 0.43505 0.24049 0.25867 0.0
H995 H 0.44216 0.24419 0.16487 0.0
H996 H 0.52623 0.22553 0.09788 0.0
H997 H 0.54539 0.21503 0.1835 0.0
C998 C 0.51711 0.22329 0.2733 0.0
C999 C 0.50021 0.23042 0.31698 0.0
C1000 C 0.50509 0.22448 0.22388 0.0
C1001 C 0.47021 0.23476 0.31137 0.0
C1002 C 0.4579 0.23532 0.26228 0.0
C1003 C 0.46458 0.23743 0.16895 0.0
C1004 C 0.48298 0.23636 0.12534 0.0
C1005 C 0.4755 0.23177 0.21825 0.0
C1006 C 0.51174 0.22684 0.13095 0.0
C1007 C 0.52272 0.2209 0.1799 0.0
H1008 H 0.34995 0.20338 0.92238 0.0
H1009 H 0.36172 0.22209 0.08402 0.0
H1010 H 0.32482 0.1856 0.10676 0.0
H1011 H 0.29006 0.1472 0.08031 0.0
H1012 H 0.27875 0.13006 0.91773 0.0
H1013 H 0.31462 0.16702 0.89612 0.0
C1014 C 0.34446 0.19958 0.96265 0.0
C1015 C 0.3587 0.21533 0.00138 0.0
C1016 C 0.32331 0.17871 0.97539 0.0
C1017 C 0.35105 0.21028 0.05334 0.0
C1018 C 0.33002 0.18934 0.06641 0.0
C1019 C 0.29545 0.1516 0.04022 0.0
C1020 C 0.2817 0.13574 1.00085 0.0
C1021 C 0.31616 0.17321 0.02772 0.0
C1022 C 0.28884 0.14189 0.94899 0.0
C1023 C 0.30944 0.16305 0.93643 0.0
H1024 H 0.17197 0.60536 0.99183 0.0
H1025 H 0.20876 0.65526 0.11622 0.0
H1026 H 0.17762 0.6965 0.09466 0.0
H1027 H 0.1408 0.71856 0.03914 0.0
H1028 H 0.10627 0.6693 0.91157 0.0
H1029 H 0.13601 0.62773 0.9353 0.0
C1030 C 0.17285 0.62515 0.01458 0.0
C1031 C 0.19228 0.62729 0.05579 0.0
C1032 C 0.15564 0.64898 1.00096 0.0
C1033 C 0.19379 0.65319 0.08438 0.0
C1034 C 0.17611 0.67675 0.07198 0.0
C1035 C 0.13985 0.69877 0.01643 0.0
C1036 C 0.12135 0.69707 0.97368 0.0
C1037 C 0.15716 0.67497 0.03003 0.0
C1038 C 0.12046 0.67129 0.94451 0.0
C1039 C 0.13732 0.64741 0.95819 0.0
H1040 H 0.69316 0.84682 0.08043 0.0
H1041 H 0.70618 0.8624 0.91738 0.0
H1042 H 0.66918 0.82607 0.89734 0.0
H1043 H 0.63269 0.79065 0.9261 0.0
H1044 H 0.62035 0.77426 0.08905 0.0
H1045 H 0.65774 0.81021 0.10912 0.0
C1046 C 0.68788 0.84229 0.04051 0.0
C1047 C 0.70225 0.85736 1.00048 0.0
C1048 C 0.66679 0.82129 0.02924 0.0
C1049 C 0.69544 0.85104 0.94892 0.0
C1050 C 0.67426 0.83034 0.9374 0.0
C1051 C 0.63816 0.79494 0.96602 0.0
C1052 C 0.6237 0.77996 0.00601 0.0
C1053 C 0.65973 0.81546 0.97727 0.0
C1054 C 0.63123 0.7855 0.05753 0.0
C1055 C 0.65254 0.80609 0.06907 0.0
H1056 H 0.79021 0.35273 0.0811 0.0
H1057 H 0.77523 0.3711 0.92003 0.0
H1058 H 0.80868 0.33234 0.89526 0.0
H1059 H 0.84283 0.29377 0.91959 0.0
H1060 H 0.8569 0.27567 0.08123 0.0
H1061 H 0.82303 0.31376 0.10526 0.0
C1062 C 0.79428 0.34833 0.04055 0.0
C1063 C 0.78039 0.36483 0.00254 0.0
C1064 C 0.81333 0.32602 0.02659 0.0
C1065 C 0.78567 0.35866 0.95013 0.0
C1066 C 0.80481 0.33653 0.93589 0.0
C1067 C 0.8384 0.29809 0.96003 0.0
C1068 C 0.85249 0.28193 0.99841 0.0
C1069 C 0.81883 0.32012 0.97383 0.0
C1070 C 0.84643 0.28777 0.05072 0.0
C1071 C 0.82707 0.3096 0.06466 0.0
H1072 H 0.716 0.14168 0.44829 0.0
H1073 H 0.66622 0.09644 0.56554 0.0
H1074 H 0.62787 0.13293 0.55987 0.0
H1075 H 0.60975 0.17888 0.52447 0.0
H1076 H 0.65746 0.22227 0.40259 0.0
H1077 H 0.69551 0.18519 0.4068 0.0
C1078 C 0.69664 0.13983 0.47232 0.0
C1079 C 0.69391 0.11675 0.50763 0.0
C1080 C 0.67451 0.1605 0.46809 0.0
C1081 C 0.66865 0.11411 0.53806 0.0
C1082 C 0.64684 0.13498 0.535 0.0
C1083 C 0.62847 0.18007 0.49878 0.0
C1084 C 0.63122 0.20325 0.46379 0.0
C1085 C 0.64974 0.15844 0.50066 0.0
C1086 C 0.65512 0.20449 0.42987 0.0
C1087 C 0.67683 0.18341 0.43239 0.0
H1088 H 0.13089 0.27582 0.55684 0.0
H1089 H 0.14789 0.284 0.39328 0.0
H1090 H 0.18464 0.3212 0.40983 0.0
H1091 H 0.21023 0.35258 0.47006 0.0
H1092 H 0.19166 0.34667 0.63342 0.0
H1093 H 0.15702 0.30722 0.61758 0.0
C1094 C 0.14289 0.28555 0.52491 0.0
C1095 C 0.13682 0.27723 0.47397 0.0
C1096 C 0.16345 0.30736 0.53461 0.0
C1097 C 0.15218 0.29019 0.43283 0.0
C1098 C 0.17315 0.31142 0.44223 0.0
C1099 C 0.19879 0.34255 0.50232 0.0
C1100 C 0.20349 0.35246 0.55283 0.0
C1101 C 0.17869 0.32036 0.49288 0.0
C1102 C 0.18829 0.33945 0.59414 0.0
C1103 C 0.16856 0.31689 0.58513 0.0
H1104 H 0.34476 0.78047 0.42296 0.0
H1105 H 0.35437 0.76665 0.58684 0.0
H1106 H 0.31494 0.80079 0.6042 0.0
H1107 H 0.27968 0.83638 0.57279 0.0
H1108 H 0.27066 0.85004 0.40861 0.0
H1109 H 0.30797 0.81387 0.39155 0.0
C1110 C 0.33822 0.78484 0.46252 0.0
C1111 C 0.35264 0.77131 0.50354 0.0
C1112 C 0.31572 0.80445 0.47219 0.0
C1113 C 0.34365 0.77689 0.55454 0.0
C1114 C 0.32116 0.79643 0.56452 0.0
C1115 C 0.28573 0.83132 0.53327 0.0
C1116 C 0.27258 0.84609 0.49211 0.0
C1117 C 0.30733 0.81061 0.52363 0.0
C1118 C 0.28053 0.83912 0.44109 0.0
C1119 C 0.3019 0.81847 0.43122 0.0
H1120 H 0.83465 0.70779 0.42389 0.0
H1121 H 0.85518 0.72362 0.58364 0.0
H1122 H 0.81819 0.68821 0.61065 0.0
H1123 H 0.78252 0.65015 0.58824 0.0
H1124 H 0.76277 0.63496 0.4277 0.0
H1125 H 0.79694 0.67279 0.40191 0.0
C1126 C 0.83093 0.70368 0.46467 0.0
C1127 C 0.84784 0.71807 0.50163 0.0
C1128 C 0.80989 0.68325 0.47985 0.0
C1129 C 0.84246 0.71278 0.55435 0.0
C1130 C 0.82142 0.69244 0.56983 0.0
C1131 C 0.78554 0.65526 0.54766 0.0
C1132 C 0.77029 0.63944 0.51006 0.0
C1133 C 0.80539 0.67712 0.53283 0.0
C1134 C 0.77431 0.64657 0.45761 0.0
C1135 C 0.79389 0.66823 0.44268 0.0
loop_
_geom_bond_atom_site_label_1
_geom_bond_atom_site_label_2
_geom_bond_distance
_geom_bond_site_symmetry_2
_ccdc_geom_bond_type
O0 Zn1 1.953 . S
O0 C16 1.225 . S
Zn1 O0 1.953 . S
Zn1 O2 1.949 . S
Zn1 O8 1.919 . S
Zn1 O13 1.924 . S
O2 Zn1 1.949 . S
O2 Zn3 1.923 . S
O2 Zn4 1.950 . S
O2 Zn5 1.945 1_554 S
Zn3 O2 1.923 . S
Zn3 O6 1.933 1_554 S
Zn3 O9 1.941 1_545 S
Zn3 O10 1.965 . S
Zn4 O2 1.950 . S
Zn4 O11 1.938 . S
Zn4 O12 1.906 . S
Zn4 O22 1.953 . S
Zn5 O2 1.945 1_556 S
Zn5 O7 1.932 . S
Zn5 O14 1.977 1_556 S
Zn5 O15 1.910 . S
O6 Zn3 1.933 1_556 S
O6 C17 1.226 . S
O7 Zn5 1.932 . S
O7 C17 1.307 . S
O8 Zn1 1.919 . S
O8 C19 1.253 1_545 S
O9 Zn3 1.941 1_565 S
O9 C19 1.283 . S
O10 Zn3 1.965 . S
O10 C18 1.303 . S
O11 Zn4 1.938 . S
O11 C18 1.247 . S
O12 Zn4 1.906 . S
O12 C20 1.304 . S
O13 Zn1 1.924 . S
O13 C21 1.311 1_554 S
O14 Zn5 1.977 1_554 S
O14 C20 1.272 . S
O15 Zn5 1.910 . S
O15 C21 1.231 . S
C16 O0 1.225 . S
C16 O22 1.298 . S
C17 O6 1.226 . S
C17 O7 1.307 . S
C18 O10 1.303 . S
C18 O11 1.247 . S
C19 O8 1.253 1_565 S
C19 O9 1.283 . S
C20 O12 1.304 . S
C20 O14 1.272 . S
C21 O13 1.311 1_556 S
C21 O15 1.231 . S
O22 Zn4 1.953 . S
O22 C16 1.298 . S
O23 Zn24 1.953 . S
O23 C39 1.225 . S
Zn24 O23 1.953 . S
Zn24 O25 1.949 . S
Zn24 O31 1.919 . S
Zn24 O36 1.924 . S
O25 Zn24 1.949 . S
O25 Zn26 1.923 . S
O25 Zn27 1.950 . S
O25 Zn28 1.945 1_556 S
Zn26 O25 1.923 . S
Zn26 O29 1.933 1_556 S
Zn26 O32 1.941 1_455 S
Zn26 O33 1.965 . S
Zn27 O25 1.950 . S
Zn27 O34 1.938 . S
Zn27 O35 1.906 . S
Zn27 O45 1.953 . S
Zn28 O25 1.945 1_554 S
Zn28 O30 1.932 . S
Zn28 O37 1.977 1_554 S
Zn28 O38 1.910 . S
O29 Zn26 1.933 1_554 S
O29 C40 1.226 . S
O30 Zn28 1.932 . S
O30 C40 1.307 . S
O31 Zn24 1.919 . S
O31 C42 1.253 1_455 S
O32 Zn26 1.941 1_655 S
O32 C42 1.283 . S
O33 Zn26 1.965 . S
O33 C41 1.303 . S
O34 Zn27 1.938 . S
O34 C41 1.247 . S
O35 Zn27 1.906 . S
O35 C43 1.304 . S
O36 Zn24 1.924 . S
O36 C44 1.311 1_556 S
O37 Zn28 1.977 1_556 S
O37 C43 1.272 . S
O38 Zn28 1.910 . S
O38 C44 1.231 . S
C39 O23 1.225 . S
C39 O45 1.298 . S
C40 O29 1.226 . S
C40 O30 1.307 . S
C41 O33 1.303 . S
C41 O34 1.247 . S
C42 O31 1.253 1_655 S
C42 O32 1.283 . S
C43 O35 1.304 . S
C43 O37 1.272 . S
C44 O36 1.311 1_554 S
C44 O38 1.231 . S
O45 Zn27 1.953 . S
O45 C39 1.298 . S
O46 Zn47 1.953 . S
O46 C62 1.225 . S
Zn47 O46 1.953 . S
Zn47 O48 1.949 . S
Zn47 O54 1.919 . S
Zn47 O59 1.924 . S
O48 Zn47 1.949 . S
O48 Zn49 1.923 . S
O48 Zn50 1.950 . S
O48 Zn51 1.945 1_554 S
Zn49 O48 1.923 . S
Zn49 O52 1.933 1_554 S
Zn49 O55 1.941 1_565 S
Zn49 O56 1.965 . S
Zn50 O48 1.950 . S
Zn50 O57 1.938 . S
Zn50 O58 1.906 . S
Zn50 O68 1.953 . S
Zn51 O48 1.945 1_556 S
Zn51 O53 1.932 . S
Zn51 O60 1.977 1_556 S
Zn51 O61 1.910 . S
O52 Zn49 1.933 1_556 S
O52 C63 1.226 . S
O53 Zn51 1.932 . S
O53 C63 1.307 . S
O54 Zn47 1.919 . S
O54 C65 1.253 1_565 S
O55 Zn49 1.941 1_545 S
O55 C65 1.283 . S
O56 Zn49 1.965 . S
O56 C64 1.303 . S
O57 Zn50 1.938 . S
O57 C64 1.247 . S
O58 Zn50 1.906 . S
O58 C66 1.304 . S
O59 Zn47 1.924 . S
O59 C67 1.311 1_554 S
O60 Zn51 1.977 1_554 S
O60 C66 1.272 . S
O61 Zn51 1.910 . S
O61 C67 1.231 . S
C62 O46 1.225 . S
C62 O68 1.298 . S
C63 O52 1.226 . S
C63 O53 1.307 . S
C64 O56 1.303 . S
C64 O57 1.247 . S
C65 O54 1.253 1_545 S
C65 O55 1.283 . S
C66 O58 1.304 . S
C66 O60 1.272 . S
C67 O59 1.311 1_556 S
C67 O61 1.231 . S
O68 Zn50 1.953 . S
O68 C62 1.298 . S
O69 Zn70 1.953 . S
O69 C85 1.225 . S
Zn70 O69 1.953 . S
Zn70 O71 1.949 . S
Zn70 O77 1.919 . S
Zn70 O82 1.924 . S
O71 Zn70 1.949 . S
O71 Zn72 1.923 . S
O71 Zn73 1.950 . S
O71 Zn74 1.945 1_556 S
Zn72 O71 1.923 . S
Zn72 O75 1.933 1_556 S
Zn72 O78 1.941 1_655 S
Zn72 O79 1.965 . S
Zn73 O71 1.950 . S
Zn73 O80 1.938 . S
Zn73 O81 1.906 . S
Zn73 O91 1.953 . S
Zn74 O71 1.945 1_554 S
Zn74 O76 1.932 . S
Zn74 O83 1.977 1_554 S
Zn74 O84 1.910 . S
O75 Zn72 1.933 1_554 S
O75 C86 1.226 . S
O76 Zn74 1.932 . S
O76 C86 1.307 . S
O77 Zn70 1.919 . S
O77 C88 1.253 1_655 S
O78 Zn72 1.941 1_455 S
O78 C88 1.283 . S
O79 Zn72 1.965 . S
O79 C87 1.303 . S
O80 Zn73 1.938 . S
O80 C87 1.247 . S
O81 Zn73 1.906 . S
O81 C89 1.304 . S
O82 Zn70 1.924 . S
O82 C90 1.311 1_556 S
O83 Zn74 1.977 1_556 S
O83 C89 1.272 . S
O84 Zn74 1.910 . S
O84 C90 1.231 . S
C85 O69 1.225 . S
C85 O91 1.298 . S
C86 O75 1.226 . S
C86 O76 1.307 . S
C87 O79 1.303 . S
C87 O80 1.247 . S
C88 O77 1.253 1_455 S
C88 O78 1.283 . S
C89 O81 1.304 . S
C89 O83 1.272 . S
C90 O82 1.311 1_554 S
C90 O84 1.231 . S
O91 Zn73 1.953 . S
O91 C85 1.298 . S
O92 Zn93 1.953 . S
O92 C108 1.225 . S
Zn93 O92 1.953 . S
Zn93 O94 1.949 . S
Zn93 O100 1.919 . S
Zn93 O105 1.924 . S
O94 Zn93 1.949 . S
O94 Zn95 1.923 . S
O94 Zn96 1.950 . S
O94 Zn97 1.945 . S
Zn95 O94 1.923 . S
Zn95 O98 1.933 . S
Zn95 O101 1.941 . S
Zn95 O102 1.965 . S
Zn96 O94 1.950 . S
Zn96 O103 1.938 . S
Zn96 O104 1.906 . S
Zn96 O114 1.953 . S
Zn97 O94 1.945 . S
Zn97 O99 1.932 . S
Zn97 O106 1.977 . S
Zn97 O107 1.910 . S
O98 Zn95 1.933 . S
O98 C109 1.226 . S
O99 Zn97 1.932 . S
O99 C109 1.307 . S
O100 Zn93 1.919 . S
O100 C111 1.253 . S
O101 Zn95 1.941 . S
O101 C111 1.283 . S
O102 Zn95 1.965 . S
O102 C110 1.298 1_545 S
O103 Zn96 1.938 . S
O103 C110 1.238 1_545 S
O104 Zn96 1.906 . S
O104 C112 1.304 . S
O105 Zn93 1.924 . S
O105 C113 1.311 . S
O106 Zn97 1.977 . S
O106 C112 1.272 . S
O107 Zn97 1.910 . S
O107 C113 1.231 . S
C108 O92 1.225 . S
C108 O114 1.298 . S
C109 O98 1.226 . S
C109 O99 1.307 . S
C110 O102 1.298 1_565 S
C110 O103 1.238 1_565 S
C111 O100 1.253 . S
C111 O101 1.283 . S
C112 O104 1.304 . S
C112 O106 1.272 . S
C113 O105 1.311 . S
C113 O107 1.231 . S
O114 Zn96 1.953 . S
O114 C108 1.298 . S
O115 Zn116 1.953 . S
O115 C131 1.225 . S
Zn116 O115 1.953 . S
Zn116 O117 1.949 . S
Zn116 O123 1.919 . S
Zn116 O128 1.924 . S
O117 Zn116 1.949 . S
O117 Zn118 1.923 . S
O117 Zn119 1.950 . S
O117 Zn120 1.945 . S
Zn118 O117 1.923 . S
Zn118 O121 1.933 . S
Zn118 O124 1.941 1_455 S
Zn118 O125 1.965 . S
Zn119 O117 1.950 . S
Zn119 O126 1.938 . S
Zn119 O127 1.906 . S
Zn119 O137 1.953 . S
Zn120 O117 1.945 . S
Zn120 O122 1.932 . S
Zn120 O129 1.977 . S
Zn120 O130 1.910 . S
O121 Zn118 1.933 . S
O121 C132 1.226 . S
O122 Zn120 1.932 . S
O122 C132 1.307 . S
O123 Zn116 1.919 . S
O123 C134 1.253 1_455 S
O124 Zn118 1.941 1_655 S
O124 C134 1.283 . S
O125 Zn118 1.965 . S
O125 C133 1.303 . S
O126 Zn119 1.938 . S
O126 C133 1.247 . S
O127 Zn119 1.906 . S
O127 C135 1.304 . S
O128 Zn116 1.924 . S
O128 C136 1.311 . S
O129 Zn120 1.977 . S
O129 C135 1.272 . S
O130 Zn120 1.910 . S
O130 C136 1.231 . S
C131 O115 1.225 . S
C131 O137 1.298 . S
C132 O121 1.226 . S
C132 O122 1.307 . S
C133 O125 1.303 . S
C133 O126 1.247 . S
C134 O123 1.253 1_655 S
C134 O124 1.283 . S
C135 O127 1.304 . S
C135 O129 1.272 . S
C136 O128 1.311 . S
C136 O130 1.231 . S
O137 Zn119 1.953 . S
O137 C131 1.298 . S
O138 Zn139 1.953 . S
O138 C154 1.225 . S
Zn139 O138 1.953 . S
Zn139 O140 1.949 . S
Zn139 O146 1.919 . S
Zn139 O151 1.924 . S
O140 Zn139 1.949 . S
O140 Zn141 1.923 . S
O140 Zn142 1.950 . S
O140 Zn143 1.945 . S
Zn141 O140 1.923 . S
Zn141 O144 1.933 . S
Zn141 O147 1.941 1_565 S
Zn141 O148 1.965 . S
Zn142 O140 1.950 . S
Zn142 O149 1.938 . S
Zn142 O150 1.906 . S
Zn142 O160 1.953 . S
Zn143 O140 1.945 . S
Zn143 O145 1.932 . S
Zn143 O152 1.977 . S
Zn143 O153 1.910 . S
O144 Zn141 1.933 . S
O144 C155 1.226 . S
O145 Zn143 1.932 . S
O145 C155 1.307 . S
O146 Zn139 1.919 . S
O146 C157 1.253 1_565 S
O147 Zn141 1.941 1_545 S
O147 C157 1.283 . S
O148 Zn141 1.965 . S
O148 C156 1.303 . S
O149 Zn142 1.938 . S
O149 C156 1.247 . S
O150 Zn142 1.906 . S
O150 C158 1.304 . S
O151 Zn139 1.924 . S
O151 C159 1.311 . S
O152 Zn143 1.977 . S
O152 C158 1.272 . S
O153 Zn143 1.910 . S
O153 C159 1.231 . S
C154 O138 1.225 . S
C154 O160 1.298 . S
C155 O144 1.226 . S
C155 O145 1.307 . S
C156 O148 1.303 . S
C156 O149 1.247 . S
C157 O146 1.253 1_545 S
C157 O147 1.283 . S
C158 O150 1.304 . S
C158 O152 1.272 . S
C159 O151 1.311 . S
C159 O153 1.231 . S
O160 Zn142 1.953 . S
O160 C154 1.298 . S
O161 Zn162 1.953 . S
O161 C177 1.225 . S
Zn162 O161 1.953 . S
Zn162 O163 1.949 . S
Zn162 O169 1.919 . S
Zn162 O174 1.924 . S
O163 Zn162 1.949 . S
O163 Zn164 1.923 . S
O163 Zn165 1.950 . S
O163 Zn166 1.945 . S
Zn164 O163 1.923 . S
Zn164 O167 1.933 . S
Zn164 O170 1.941 1_655 S
Zn164 O171 1.965 . S
Zn165 O163 1.950 . S
Zn165 O172 1.938 . S
Zn165 O173 1.906 . S
Zn165 O183 1.953 . S
Zn166 O163 1.945 . S
Zn166 O168 1.932 . S
Zn166 O175 1.977 . S
Zn166 O176 1.910 . S
O167 Zn164 1.933 . S
O167 C178 1.226 . S
O168 Zn166 1.932 . S
O168 C178 1.307 . S
O169 Zn162 1.919 . S
O169 C180 1.253 1_655 S
O170 Zn164 1.941 1_455 S
O170 C180 1.283 . S
O171 Zn164 1.965 . S
O171 C179 1.303 . S
O172 Zn165 1.938 . S
O172 C179 1.247 . S
O173 Zn165 1.906 . S
O173 C181 1.304 . S
O174 Zn162 1.924 . S
O174 C182 1.311 . S
O175 Zn166 1.977 . S
O175 C181 1.272 . S
O176 Zn166 1.910 . S
O176 C182 1.231 . S
C177 O161 1.225 . S
C177 O183 1.298 . S
C178 O167 1.226 . S
C178 O168 1.307 . S
C179 O171 1.303 . S
C179 O172 1.247 . S
C180 O169 1.253 1_455 S
C180 O170 1.283 . S
C181 O173 1.304 . S
C181 O175 1.272 . S
C182 O174 1.311 . S
C182 O176 1.231 . S
O183 Zn165 1.953 . S
O183 C177 1.298 . S
O184 Zn185 1.953 . S
O184 C200 1.225 . S
Zn185 O184 1.953 . S
Zn185 O186 1.949 . S
Zn185 O192 1.919 . S
Zn185 O197 1.924 . S
O186 Zn185 1.949 . S
O186 Zn187 1.923 . S
O186 Zn188 1.950 . S
O186 Zn189 1.945 . S
Zn187 O186 1.923 . S
Zn187 O190 1.933 . S
Zn187 O193 1.941 . S
Zn187 O194 1.965 . S
Zn188 O186 1.950 . S
Zn188 O195 1.938 . S
Zn188 O196 1.906 . S
Zn188 O206 1.953 . S
Zn189 O186 1.945 . S
Zn189 O191 1.932 . S
Zn189 O198 1.977 . S
Zn189 O199 1.910 . S
O190 Zn187 1.933 . S
O190 C201 1.226 . S
O191 Zn189 1.932 . S
O191 C201 1.307 . S
O192 Zn185 1.919 . S
O192 C203 1.253 . S
O193 Zn187 1.941 . S
O193 C203 1.283 . S
O194 Zn187 1.965 . S
O194 C202 1.303 . S
O195 Zn188 1.938 . S
O195 C202 1.247 . S
O196 Zn188 1.906 . S
O196 C204 1.304 . S
O197 Zn185 1.924 . S
O197 C205 1.311 . S
O198 Zn189 1.977 . S
O198 C204 1.272 . S
O199 Zn189 1.910 . S
O199 C205 1.231 . S
C200 O184 1.225 . S
C200 O206 1.298 . S
C201 O190 1.226 . S
C201 O191 1.307 . S
C202 O194 1.303 . S
C202 O195 1.247 . S
C203 O192 1.253 . S
C203 O193 1.283 . S
C204 O196 1.304 . S
C204 O198 1.272 . S
C205 O197 1.311 . S
C205 O199 1.231 . S
O206 Zn188 1.953 . S
O206 C200 1.298 . S
O207 Zn208 1.953 . S
O207 C223 1.225 . S
Zn208 O207 1.953 . S
Zn208 O209 1.949 . S
Zn208 O215 1.919 . S
Zn208 O220 1.924 . S
O209 Zn208 1.949 . S
O209 Zn210 1.923 . S
O209 Zn211 1.950 . S
O209 Zn212 1.945 . S
Zn210 O209 1.923 . S
Zn210 O213 1.933 . S
Zn210 O216 1.941 . S
Zn210 O217 1.965 . S
Zn211 O209 1.950 . S
Zn211 O218 1.938 . S
Zn211 O219 1.906 . S
Zn211 O229 1.953 . S
Zn212 O209 1.945 . S
Zn212 O214 1.932 . S
Zn212 O221 1.977 . S
Zn212 O222 1.910 . S
O213 Zn210 1.933 . S
O213 C224 1.226 . S
O214 Zn212 1.932 . S
O214 C224 1.307 . S
O215 Zn208 1.919 . S
O215 C226 1.253 . S
O216 Zn210 1.941 . S
O216 C226 1.283 . S
O217 Zn210 1.965 . S
O217 C225 1.303 . S
O218 Zn211 1.938 . S
O218 C225 1.247 . S
O219 Zn211 1.906 . S
O219 C227 1.304 . S
O220 Zn208 1.924 . S
O220 C228 1.311 . S
O221 Zn212 1.977 . S
O221 C227 1.272 . S
O222 Zn212 1.910 . S
O222 C228 1.231 . S
C223 O207 1.225 . S
C223 O229 1.298 . S
C224 O213 1.226 . S
C224 O214 1.307 . S
C225 O217 1.303 . S
C225 O218 1.247 . S
C226 O215 1.253 . S
C226 O216 1.283 . S
C227 O219 1.304 . S
C227 O221 1.272 . S
C228 O220 1.311 . S
C228 O222 1.231 . S
O229 Zn211 1.953 . S
O229 C223 1.298 . S
O230 Zn231 1.953 . S
O230 C246 1.225 . S
Zn231 O230 1.953 . S
Zn231 O232 1.949 . S
Zn231 O238 1.919 . S
Zn231 O243 1.924 . S
O232 Zn231 1.949 . S
O232 Zn233 1.923 . S
O232 Zn234 1.950 . S
O232 Zn235 1.945 . S
Zn233 O232 1.923 . S
Zn233 O236 1.933 . S
Zn233 O239 1.941 . S
Zn233 O240 1.965 . S
Zn234 O232 1.950 . S
Zn234 O241 1.938 . S
Zn234 O242 1.906 . S
Zn234 O252 1.953 . S
Zn235 O232 1.945 . S
Zn235 O237 1.932 . S
Zn235 O244 1.977 . S
Zn235 O245 1.910 . S
O236 Zn233 1.933 . S
O236 C247 1.226 . S
O237 Zn235 1.932 . S
O237 C247 1.307 . S
O238 Zn231 1.919 . S
O238 C249 1.253 . S
O239 Zn233 1.941 . S
O239 C249 1.283 . S
O240 Zn233 1.965 . S
O240 C248 1.303 . S
O241 Zn234 1.938 . S
O241 C248 1.247 . S
O242 Zn234 1.906 . S
O242 C250 1.304 . S
O243 Zn231 1.924 . S
O243 C251 1.311 . S
O244 Zn235 1.977 . S
O244 C250 1.272 . S
O245 Zn235 1.910 . S
O245 C251 1.231 . S
C246 O230 1.225 . S
C246 O252 1.298 . S
C247 O236 1.226 . S
C247 O237 1.307 . S
C248 O240 1.303 . S
C248 O241 1.247 . S
C249 O238 1.253 . S
C249 O239 1.283 . S
C250 O242 1.304 . S
C250 O244 1.272 . S
C251 O243 1.311 . S
C251 O245 1.231 . S
O252 Zn234 1.953 . S
O252 C246 1.298 . S
O253 Zn254 1.953 . S
O253 C269 1.225 . S
Zn254 O253 1.953 . S
Zn254 O255 1.949 . S
Zn254 O261 1.919 . S
Zn254 O266 1.924 . S
O255 Zn254 1.949 . S
O255 Zn256 1.923 . S
O255 Zn257 1.950 . S
O255 Zn258 1.945 . S
Zn256 O255 1.923 . S
Zn256 O259 1.933 . S
Zn256 O262 1.941 . S
Zn256 O263 1.965 . S
Zn257 O255 1.950 . S
Zn257 O264 1.938 . S
Zn257 O265 1.906 . S
Zn257 O275 1.953 . S
Zn258 O255 1.945 . S
Zn258 O260 1.932 . S
Zn258 O267 1.977 . S
Zn258 O268 1.910 . S
O259 Zn256 1.933 . S
O259 C270 1.226 . S
O260 Zn258 1.932 . S
O260 C270 1.307 . S
O261 Zn254 1.919 . S
O261 C272 1.253 . S
O262 Zn256 1.941 . S
O262 C272 1.283 . S
O263 Zn256 1.965 . S
O263 C271 1.303 . S
O264 Zn257 1.938 . S
O264 C271 1.247 . S
O265 Zn257 1.906 . S
O265 C273 1.304 . S
O266 Zn254 1.924 . S
O266 C274 1.311 . S
O267 Zn258 1.977 . S
O267 C273 1.272 . S
O268 Zn258 1.910 . S
O268 C274 1.231 . S
C269 O253 1.225 . S
C269 O275 1.298 . S
C270 O259 1.226 . S
C270 O260 1.307 . S
C271 O263 1.303 . S
C271 O264 1.247 . S
C272 O261 1.253 . S
C272 O262 1.283 . S
C273 O265 1.304 . S
C273 O267 1.272 . S
C274 O266 1.311 . S
C274 O268 1.231 . S
O275 Zn257 1.953 . S
O275 C269 1.298 . S
O276 Zn277 1.953 1_556 S
O276 C292 1.225 . S
Zn277 O276 1.953 1_554 S
Zn277 O278 1.949 . S
Zn277 O284 1.919 . S
Zn277 O289 1.924 . S
O278 Zn277 1.949 . S
O278 Zn279 1.923 . S
O278 Zn280 1.950 1_554 S
O278 Zn281 1.945 . S
Zn279 O278 1.923 . S
Zn279 O282 1.933 . S
Zn279 O285 1.941 . S
Zn279 O286 1.965 . S
Zn280 O278 1.950 1_556 S
Zn280 O287 1.938 1_556 S
Zn280 O288 1.906 . S
Zn280 O298 1.953 . S
Zn281 O278 1.945 . S
Zn281 O283 1.932 . S
Zn281 O290 1.977 . S
Zn281 O291 1.910 . S
O282 Zn279 1.933 . S
O282 C293 1.226 . S
O283 Zn281 1.932 . S
O283 C293 1.307 . S
O284 Zn277 1.919 . S
O284 C295 1.253 . S
O285 Zn279 1.941 . S
O285 C295 1.283 . S
O286 Zn279 1.965 . S
O286 C294 1.303 . S
O287 Zn280 1.938 1_554 S
O287 C294 1.247 . S
O288 Zn280 1.906 . S
O288 C296 1.304 . S
O289 Zn277 1.924 . S
O289 C297 1.311 . S
O290 Zn281 1.977 . S
O290 C296 1.272 1_554 S
O291 Zn281 1.910 . S
O291 C297 1.231 . S
C292 O276 1.225 . S
C292 O298 1.298 . S
C293 O282 1.226 . S
C293 O283 1.307 . S
C294 O286 1.303 . S
C294 O287 1.247 . S
C295 O284 1.253 . S
C295 O285 1.283 . S
C296 O288 1.304 . S
C296 O290 1.272 1_556 S
C297 O289 1.311 . S
C297 O291 1.231 . S
O298 Zn280 1.953 . S
O298 C292 1.298 . S
O299 Zn300 1.953 . S
O299 C315 1.225 . S
Zn300 O299 1.953 . S
Zn300 O301 1.949 . S
Zn300 O307 1.919 . S
Zn300 O312 1.924 . S
O301 Zn300 1.949 . S
O301 Zn302 1.923 . S
O301 Zn303 1.950 . S
O301 Zn304 1.945 1_556 S
Zn302 O301 1.923 . S
Zn302 O305 1.933 1_556 S
Zn302 O308 1.941 . S
Zn302 O309 1.965 . S
Zn303 O301 1.950 . S
Zn303 O310 1.938 . S
Zn303 O311 1.906 . S
Zn303 O321 1.953 . S
Zn304 O301 1.945 1_554 S
Zn304 O306 1.932 . S
Zn304 O313 1.977 1_554 S
Zn304 O314 1.910 . S
O305 Zn302 1.933 1_554 S
O305 C316 1.226 . S
O306 Zn304 1.932 . S
O306 C316 1.307 . S
O307 Zn300 1.919 . S
O307 C318 1.253 . S
O308 Zn302 1.941 . S
O308 C318 1.283 . S
O309 Zn302 1.965 . S
O309 C317 1.303 . S
O310 Zn303 1.938 . S
O310 C317 1.247 . S
O311 Zn303 1.906 . S
O311 C319 1.304 . S
O312 Zn300 1.924 . S
O312 C320 1.311 1_556 S
O313 Zn304 1.977 1_556 S
O313 C319 1.272 . S
O314 Zn304 1.910 . S
O314 C320 1.231 . S
C315 O299 1.225 . S
C315 O321 1.298 . S
C316 O305 1.226 . S
C316 O306 1.307 . S
C317 O309 1.303 . S
C317 O310 1.247 . S
C318 O307 1.253 . S
C318 O308 1.283 . S
C319 O311 1.304 . S
C319 O313 1.272 . S
C320 O312 1.311 1_554 S
C320 O314 1.231 . S
O321 Zn303 1.953 . S
O321 C315 1.298 . S
O322 Zn323 1.953 . S
O322 C338 1.225 . S
Zn323 O322 1.953 . S
Zn323 O324 1.949 . S
Zn323 O330 1.919 . S
Zn323 O335 1.924 . S
O324 Zn323 1.949 . S
O324 Zn325 1.923 . S
O324 Zn326 1.950 . S
O324 Zn327 1.945 1_554 S
Zn325 O324 1.923 . S
Zn325 O328 1.933 1_554 S
Zn325 O331 1.941 . S
Zn325 O332 1.965 . S
Zn326 O324 1.950 . S
Zn326 O333 1.938 . S
Zn326 O334 1.906 . S
Zn326 O344 1.953 . S
Zn327 O324 1.945 1_556 S
Zn327 O329 1.932 . S
Zn327 O336 1.977 1_556 S
Zn327 O337 1.910 . S
O328 Zn325 1.933 1_556 S
O328 C339 1.226 . S
O329 Zn327 1.932 . S
O329 C339 1.307 . S
O330 Zn323 1.919 . S
O330 C341 1.253 . S
O331 Zn325 1.941 . S
O331 C341 1.283 . S
O332 Zn325 1.965 . S
O332 C340 1.303 . S
O333 Zn326 1.938 . S
O333 C340 1.247 . S
O334 Zn326 1.906 . S
O334 C342 1.304 . S
O335 Zn323 1.924 . S
O335 C343 1.311 1_554 S
O336 Zn327 1.977 1_554 S
O336 C342 1.272 . S
O337 Zn327 1.910 . S
O337 C343 1.231 . S
C338 O322 1.225 . S
C338 O344 1.298 . S
C339 O328 1.226 . S
C339 O329 1.307 . S
C340 O332 1.303 . S
C340 O333 1.247 . S
C341 O330 1.253 . S
C341 O331 1.283 . S
C342 O334 1.304 . S
C342 O336 1.272 . S
C343 O335 1.311 1_556 S
C343 O337 1.231 . S
O344 Zn326 1.953 . S
O344 C338 1.298 . S
O345 Zn346 1.953 . S
O345 C361 1.225 . S
Zn346 O345 1.953 . S
Zn346 O347 1.949 . S
Zn346 O353 1.919 . S
Zn346 O358 1.924 . S
O347 Zn346 1.949 . S
O347 Zn348 1.923 . S
O347 Zn349 1.950 . S
O347 Zn350 1.945 1_556 S
Zn348 O347 1.923 . S
Zn348 O351 1.933 1_556 S
Zn348 O354 1.941 . S
Zn348 O355 1.965 . S
Zn349 O347 1.950 . S
Zn349 O356 1.938 . S
Zn349 O357 1.906 . S
Zn349 O367 1.953 . S
Zn350 O347 1.945 1_554 S
Zn350 O352 1.932 . S
Zn350 O359 1.977 1_554 S
Zn350 O360 1.910 . S
O351 Zn348 1.933 1_554 S
O351 C362 1.226 . S
O352 Zn350 1.932 . S
O352 C362 1.307 . S
O353 Zn346 1.919 . S
O353 C364 1.253 . S
O354 Zn348 1.941 . S
O354 C364 1.283 . S
O355 Zn348 1.965 . S
O355 C363 1.303 . S
O356 Zn349 1.938 . S
O356 C363 1.247 . S
O357 Zn349 1.906 . S
O357 C365 1.304 . S
O358 Zn346 1.924 . S
O358 C366 1.311 1_556 S
O359 Zn350 1.977 1_556 S
O359 C365 1.272 . S
O360 Zn350 1.910 . S
O360 C366 1.231 . S
C361 O345 1.225 . S
C361 O367 1.298 . S
C362 O351 1.226 . S
C362 O352 1.307 . S
C363 O355 1.303 . S
C363 O356 1.247 . S
C364 O353 1.253 . S
C364 O354 1.283 . S
C365 O357 1.304 . S
C365 O359 1.272 . S
C366 O358 1.311 1_554 S
C366 O360 1.231 . S
O367 Zn349 1.953 . S
O367 C361 1.298 . S
H368 C374 0.930 . S
H369 C377 0.930 . S
H370 C378 0.930 . S
H371 C379 0.930 . S
H372 C382 0.930 . S
H373 C383 0.930 . S
C374 H368 0.930 . S
C374 C375 1.355 . S
C374 C376 1.415 . S
C375 C374 1.355 . S
C375 C377 1.419 . S
C376 C374 1.415 . S
C376 C381 1.425 . S
C376 C383 1.409 . S
C377 H369 0.930 . S
C377 C375 1.419 . S
C377 C378 1.362 . S
C378 H370 0.930 . S
C378 C377 1.362 . S
C378 C381 1.409 . S
C379 H371 0.930 . S
C379 C380 1.355 . S
C379 C381 1.415 . S
C380 C379 1.355 . S
C380 C382 1.419 . S
C381 C376 1.425 . S
C381 C378 1.409 . S
C381 C379 1.415 . S
C382 H372 0.930 . S
C382 C380 1.419 . S
C382 C383 1.362 . S
C383 H373 0.930 . S
C383 C376 1.409 . S
C383 C382 1.362 . S
H384 C390 0.930 . S
H385 C393 0.930 . S
H386 C394 0.930 . S
H387 C395 0.930 . S
H388 C398 0.930 . S
H389 C399 0.930 . S
C390 H384 0.930 . S
C390 C391 1.355 . S
C390 C392 1.415 . S
C391 C390 1.355 . S
C391 C393 1.419 . S
C392 C390 1.415 . S
C392 C397 1.425 . S
C392 C399 1.409 . S
C393 H385 0.930 . S
C393 C391 1.419 . S
C393 C394 1.362 . S
C394 H386 0.930 . S
C394 C393 1.362 . S
C394 C397 1.409 . S
C395 H387 0.930 . S
C395 C396 1.355 . S
C395 C397 1.415 . S
C396 C395 1.355 . S
C396 C398 1.419 . S
C397 C392 1.425 . S
C397 C394 1.409 . S
C397 C395 1.415 . S
C398 H388 0.930 . S
C398 C396 1.419 . S
C398 C399 1.362 . S
C399 H389 0.930 . S
C399 C392 1.409 . S
C399 C398 1.362 . S
H400 C406 0.930 . S
H401 C409 0.930 . S
H402 C410 0.930 . S
H403 C411 0.930 . S
H404 C414 0.930 . S
H405 C415 0.930 . S
C406 H400 0.930 . S
C406 C407 1.355 . S
C406 C408 1.415 . S
C407 C406 1.355 . S
C407 C409 1.419 . S
C408 C406 1.415 . S
C408 C413 1.425 . S
C408 C415 1.409 . S
C409 H401 0.930 . S
C409 C407 1.419 . S
C409 C410 1.362 . S
C410 H402 0.930 . S
C410 C409 1.362 . S
C410 C413 1.409 . S
C411 H403 0.930 . S
C411 C412 1.355 . S
C411 C413 1.415 . S
C412 C411 1.355 . S
C412 C414 1.419 . S
C413 C408 1.425 . S
C413 C410 1.409 . S
C413 C411 1.415 . S
C414 H404 0.930 . S
C414 C412 1.419 . S
C414 C415 1.362 . S
C415 H405 0.930 . S
C415 C408 1.409 . S
C415 C414 1.362 . S
H416 C422 0.930 . S
H417 C425 0.930 . S
H418 C426 0.930 . S
H419 C427 0.930 . S
H420 C430 0.930 . S
H421 C431 0.930 . S
C422 H416 0.930 . S
C422 C423 1.355 . S
C422 C424 1.415 . S
C423 C422 1.355 . S
C423 C425 1.419 . S
C424 C422 1.415 . S
C424 C429 1.425 . S
C424 C431 1.409 . S
C425 H417 0.930 . S
C425 C423 1.419 . S
C425 C426 1.362 . S
C426 H418 0.930 . S
C426 C425 1.362 . S
C426 C429 1.409 . S
C427 H419 0.930 . S
C427 C428 1.355 . S
C427 C429 1.415 . S
C428 C427 1.355 . S
C428 C430 1.419 . S
C429 C424 1.425 . S
C429 C426 1.409 . S
C429 C427 1.415 . S
C430 H420 0.930 . S
C430 C428 1.419 . S
C430 C431 1.362 . S
C431 H421 0.930 . S
C431 C424 1.409 . S
C431 C430 1.362 . S
H432 C438 0.930 . S
H433 C441 0.930 . S
H434 C442 0.930 . S
H435 C443 0.930 . S
H436 C446 0.930 . S
H437 C447 0.930 . S
C438 H432 0.930 . S
C438 C439 1.355 . S
C438 C440 1.415 . S
C439 C438 1.355 . S
C439 C441 1.419 . S
C440 C438 1.415 . S
C440 C445 1.425 . S
C440 C447 1.409 . S
C441 H433 0.930 . S
C441 C439 1.419 . S
C441 C442 1.362 . S
C442 H434 0.930 . S
C442 C441 1.362 . S
C442 C445 1.409 . S
C443 H435 0.930 . S
C443 C444 1.355 . S
C443 C445 1.415 . S
C444 C443 1.355 . S
C444 C446 1.419 . S
C445 C440 1.425 . S
C445 C442 1.409 . S
C445 C443 1.415 . S
C446 H436 0.930 . S
C446 C444 1.419 . S
C446 C447 1.362 . S
C447 H437 0.930 . S
C447 C440 1.409 . S
C447 C446 1.362 . S
H448 C454 0.930 . S
H449 C457 0.930 . S
H450 C458 0.930 . S
H451 C459 0.930 . S
H452 C462 0.930 . S
H453 C463 0.930 . S
C454 H448 0.930 . S
C454 C455 1.355 . S
C454 C456 1.415 . S
C455 C454 1.355 . S
C455 C457 1.419 . S
C456 C454 1.415 . S
C456 C461 1.425 . S
C456 C463 1.409 . S
C457 H449 0.930 . S
C457 C455 1.419 . S
C457 C458 1.362 . S
C458 H450 0.930 . S
C458 C457 1.362 . S
C458 C461 1.409 . S
C459 H451 0.930 . S
C459 C460 1.355 . S
C459 C461 1.415 . S
C460 C459 1.355 . S
C460 C462 1.419 . S
C461 C456 1.425 . S
C461 C458 1.409 . S
C461 C459 1.415 . S
C462 H452 0.930 . S
C462 C460 1.419 . S
C462 C463 1.362 . S
C463 H453 0.930 . S
C463 C456 1.409 . S
C463 C462 1.362 . S
H464 C470 0.930 . S
H465 C473 0.930 . S
H466 C474 0.930 . S
H467 C475 0.930 . S
H468 C478 0.930 . S
H469 C479 0.930 . S
C470 H464 0.930 . S
C470 C471 1.355 . S
C470 C472 1.415 . S
C471 C470 1.355 . S
C471 C473 1.419 . S
C472 C470 1.415 . S
C472 C477 1.425 . S
C472 C479 1.409 . S
C473 H465 0.930 . S
C473 C471 1.419 . S
C473 C474 1.362 . S
C474 H466 0.930 . S
C474 C473 1.362 . S
C474 C477 1.409 . S
C475 H467 0.930 . S
C475 C476 1.355 . S
C475 C477 1.415 . S
C476 C475 1.355 . S
C476 C478 1.419 . S
C477 C472 1.425 . S
C477 C474 1.409 . S
C477 C475 1.415 . S
C478 H468 0.930 . S
C478 C476 1.419 . S
C478 C479 1.362 . S
C479 H469 0.930 . S
C479 C472 1.409 . S
C479 C478 1.362 . S
H480 C486 0.930 . S
H481 C489 0.930 . S
H482 C490 0.930 . S
H483 C491 0.930 . S
H484 C494 0.930 . S
H485 C495 0.930 . S
C486 H480 0.930 . S
C486 C487 1.355 . S
C486 C488 1.415 . S
C487 C486 1.355 . S
C487 C489 1.419 . S
C488 C486 1.415 . S
C488 C493 1.425 . S
C488 C495 1.409 . S
C489 H481 0.930 . S
C489 C487 1.419 . S
C489 C490 1.362 . S
C490 H482 0.930 . S
C490 C489 1.362 . S
C490 C493 1.409 . S
C491 H483 0.930 . S
C491 C492 1.355 . S
C491 C493 1.415 . S
C492 C491 1.355 . S
C492 C494 1.419 . S
C493 C488 1.425 . S
C493 C490 1.409 . S
C493 C491 1.415 . S
C494 H484 0.930 . S
C494 C492 1.419 . S
C494 C495 1.362 . S
C495 H485 0.930 . S
C495 C488 1.409 . S
C495 C494 1.362 . S
H496 C502 0.930 . S
H497 C505 0.930 . S
H498 C506 0.930 . S
H499 C507 0.930 1_556 S
H500 C510 0.930 . S
H501 C511 0.930 . S
C502 H496 0.930 . S
C502 C503 1.355 . S
C502 C504 1.415 . S
C503 C502 1.355 . S
C503 C505 1.419 . S
C504 C502 1.415 . S
C504 C509 1.425 . S
C504 C511 1.409 . S
C505 H497 0.930 . S
C505 C503 1.419 . S
C505 C506 1.362 . S
C506 H498 0.930 . S
C506 C505 1.362 . S
C506 C509 1.409 . S
C507 H499 0.930 1_554 S
C507 C508 1.355 . S
C507 C509 1.415 . S
C508 C507 1.355 . S
C508 C510 1.419 . S
C509 C504 1.425 . S
C509 C506 1.409 . S
C509 C507 1.415 . S
C510 H500 0.930 . S
C510 C508 1.419 . S
C510 C511 1.362 . S
C511 H501 0.930 . S
C511 C504 1.409 . S
C511 C510 1.362 . S
H512 C518 0.930 . S
H513 C521 0.930 . S
H514 C522 0.930 . S
H515 C523 0.930 . S
H516 C526 0.930 . S
H517 C527 0.930 . S
C518 H512 0.930 . S
C518 C519 1.355 1_554 S
C518 C520 1.415 1_554 S
C519 C518 1.355 1_556 S
C519 C521 1.419 . S
C520 C518 1.415 1_556 S
C520 C525 1.425 . S
C520 C527 1.409 1_556 S
C521 H513 0.930 . S
C521 C519 1.419 . S
C521 C522 1.362 . S
C522 H514 0.930 . S
C522 C521 1.362 . S
C522 C525 1.409 . S
C523 H515 0.930 . S
C523 C524 1.355 . S
C523 C525 1.415 . S
C524 C523 1.355 . S
C524 C526 1.419 1_556 S
C525 C520 1.425 . S
C525 C522 1.409 . S
C525 C523 1.415 . S
C526 H516 0.930 . S
C526 C524 1.419 1_554 S
C526 C527 1.362 . S
C527 H517 0.930 . S
C527 C520 1.409 1_554 S
C527 C526 1.362 . S
H528 C534 0.930 . S
H529 C537 0.930 . S
H530 C538 0.930 . S
H531 C539 0.930 1_556 S
H532 C542 0.930 . S
H533 C543 0.930 . S
C534 H528 0.930 . S
C534 C535 1.355 . S
C534 C536 1.415 . S
C535 C534 1.355 . S
C535 C537 1.419 1_554 S
C536 C534 1.415 . S
C536 C541 1.425 . S
C536 C543 1.409 . S
C537 H529 0.930 . S
C537 C535 1.419 1_556 S
C537 C538 1.362 . S
C538 H530 0.930 . S
C538 C537 1.362 . S
C538 C541 1.409 1_556 S
C539 H531 0.930 1_554 S
C539 C540 1.355 . S
C539 C541 1.415 . S
C540 C539 1.355 . S
C540 C542 1.419 . S
C541 C536 1.425 . S
C541 C538 1.409 1_554 S
C541 C539 1.415 . S
C542 H532 0.930 . S
C542 C540 1.419 . S
C542 C543 1.362 . S
C543 H533 0.930 . S
C543 C536 1.409 . S
C543 C542 1.362 . S
H544 C550 0.930 . S
H545 C553 0.930 . S
H546 C554 0.930 1_554 S
H547 C555 0.930 1_554 S
H548 C558 0.930 . S
H549 C559 0.930 . S
C550 H544 0.930 . S
C550 C551 1.355 . S
C550 C552 1.415 . S
C551 C550 1.355 . S
C551 C553 1.419 . S
C552 C550 1.415 . S
C552 C557 1.425 . S
C552 C559 1.409 . S
C553 H545 0.930 . S
C553 C551 1.419 . S
C553 C554 1.362 . S
C554 H546 0.930 1_556 S
C554 C553 1.362 . S
C554 C557 1.409 . S
C555 H547 0.930 1_556 S
C555 C556 1.355 . S
C555 C557 1.415 . S
C556 C555 1.355 . S
C556 C558 1.419 . S
C557 C552 1.425 . S
C557 C554 1.409 . S
C557 C555 1.415 . S
C558 H548 0.930 . S
C558 C556 1.419 . S
C558 C559 1.362 . S
C559 H549 0.930 . S
C559 C552 1.409 . S
C559 C558 1.362 . S
H560 C566 0.930 . S
H561 C569 0.930 . S
H562 C570 0.930 . S
H563 C571 0.930 . S
H564 C574 0.930 . S
H565 C575 0.930 . S
C566 H560 0.930 . S
C566 C567 1.355 . S
C566 C568 1.415 . S
C567 C566 1.355 . S
C567 C569 1.419 . S
C568 C566 1.415 . S
C568 C573 1.425 . S
C568 C575 1.409 . S
C569 H561 0.930 . S
C569 C567 1.419 . S
C569 C570 1.362 . S
C570 H562 0.930 . S
C570 C569 1.362 . S
C570 C573 1.409 . S
C571 H563 0.930 . S
C571 C572 1.355 . S
C571 C573 1.415 . S
C572 C571 1.355 . S
C572 C574 1.419 . S
C573 C568 1.425 . S
C573 C570 1.409 . S
C573 C571 1.415 . S
C574 H564 0.930 . S
C574 C572 1.419 . S
C574 C575 1.362 . S
C575 H565 0.930 . S
C575 C568 1.409 . S
C575 C574 1.362 . S
H576 C582 0.930 . S
H577 C585 0.930 . S
H578 C586 0.930 . S
H579 C587 0.930 . S
H580 C590 0.930 . S
H581 C591 0.930 . S
C582 H576 0.930 . S
C582 C583 1.355 . S
C582 C584 1.415 . S
C583 C582 1.355 . S
C583 C585 1.419 . S
C584 C582 1.415 . S
C584 C589 1.425 . S
C584 C591 1.409 . S
C585 H577 0.930 . S
C585 C583 1.419 . S
C585 C586 1.362 . S
C586 H578 0.930 . S
C586 C585 1.362 . S
C586 C589 1.409 . S
C587 H579 0.930 . S
C587 C588 1.355 . S
C587 C589 1.415 . S
C588 C587 1.355 . S
C588 C590 1.419 . S
C589 C584 1.425 . S
C589 C586 1.409 . S
C589 C587 1.415 . S
C590 H580 0.930 . S
C590 C588 1.419 . S
C590 C591 1.362 . S
C591 H581 0.930 . S
C591 C584 1.409 . S
C591 C590 1.362 . S
H592 C598 0.930 . S
H593 C601 0.930 . S
H594 C602 0.930 . S
H595 C603 0.930 . S
H596 C606 0.930 . S
H597 C607 0.930 . S
C598 H592 0.930 . S
C598 C599 1.355 . S
C598 C600 1.415 . S
C599 C598 1.355 . S
C599 C601 1.419 . S
C600 C598 1.415 . S
C600 C605 1.425 . S
C600 C607 1.409 . S
C601 H593 0.930 . S
C601 C599 1.419 . S
C601 C602 1.362 . S
C602 H594 0.930 . S
C602 C601 1.362 . S
C602 C605 1.409 . S
C603 H595 0.930 . S
C603 C604 1.355 . S
C603 C605 1.415 . S
C604 C603 1.355 . S
C604 C606 1.419 . S
C605 C600 1.425 . S
C605 C602 1.409 . S
C605 C603 1.415 . S
C606 H596 0.930 . S
C606 C604 1.419 . S
C606 C607 1.362 . S
C607 H597 0.930 . S
C607 C600 1.409 . S
C607 C606 1.362 . S
H608 C614 0.930 . S
H609 C617 0.930 . S
H610 C618 0.930 . S
H611 C619 0.930 . S
H612 C622 0.930 . S
H613 C623 0.930 . S
C614 H608 0.930 . S
C614 C615 1.355 . S
C614 C616 1.415 . S
C615 C614 1.355 . S
C615 C617 1.419 . S
C616 C614 1.415 . S
C616 C621 1.425 . S
C616 C623 1.409 . S
C617 H609 0.930 . S
C617 C615 1.419 . S
C617 C618 1.362 . S
C618 H610 0.930 . S
C618 C617 1.362 . S
C618 C621 1.409 . S
C619 H611 0.930 . S
C619 C620 1.355 . S
C619 C621 1.415 . S
C620 C619 1.355 . S
C620 C622 1.419 . S
C621 C616 1.425 . S
C621 C618 1.409 . S
C621 C619 1.415 . S
C622 H612 0.930 . S
C622 C620 1.419 . S
C622 C623 1.362 . S
C623 H613 0.930 . S
C623 C616 1.409 . S
C623 C622 1.362 . S
H624 C630 0.930 . S
H625 C633 0.930 . S
H626 C634 0.930 . S
H627 C635 0.930 . S
H628 C638 0.930 . S
H629 C639 0.930 . S
C630 H624 0.930 . S
C630 C631 1.355 . S
C630 C632 1.415 . S
C631 C630 1.355 . S
C631 C633 1.419 . S
C632 C630 1.415 . S
C632 C637 1.425 . S
C632 C639 1.409 . S
C633 H625 0.930 . S
C633 C631 1.419 . S
C633 C634 1.362 . S
C634 H626 0.930 . S
C634 C633 1.362 . S
C634 C637 1.409 . S
C635 H627 0.930 . S
C635 C636 1.355 . S
C635 C637 1.415 . S
C636 C635 1.355 . S
C636 C638 1.419 . S
C637 C632 1.425 . S
C637 C634 1.409 . S
C637 C635 1.415 . S
C638 H628 0.930 . S
C638 C636 1.419 . S
C638 C639 1.362 . S
C639 H629 0.930 . S
C639 C632 1.409 . S
C639 C638 1.362 . S
H640 C646 0.930 . S
H641 C649 0.930 . S
H642 C650 0.930 . S
H643 C651 0.930 . S
H644 C654 0.930 . S
H645 C655 0.930 . S
C646 H640 0.930 . S
C646 C647 1.355 . S
C646 C648 1.415 . S
C647 C646 1.355 . S
C647 C649 1.419 . S
C648 C646 1.415 . S
C648 C653 1.425 . S
C648 C655 1.409 . S
C649 H641 0.930 . S
C649 C647 1.419 . S
C649 C650 1.362 . S
C650 H642 0.930 . S
C650 C649 1.362 . S
C650 C653 1.409 . S
C651 H643 0.930 . S
C651 C652 1.355 . S
C651 C653 1.415 . S
C652 C651 1.355 . S
C652 C654 1.419 . S
C653 C648 1.425 . S
C653 C650 1.409 . S
C653 C651 1.415 . S
C654 H644 0.930 . S
C654 C652 1.419 . S
C654 C655 1.362 . S
C655 H645 0.930 . S
C655 C648 1.409 . S
C655 C654 1.362 . S
H656 C662 0.930 . S
H657 C665 0.930 . S
H658 C666 0.930 . S
H659 C667 0.930 . S
H660 C670 0.930 . S
H661 C671 0.930 . S
C662 H656 0.930 . S
C662 C663 1.355 . S
C662 C664 1.415 . S
C663 C662 1.355 . S
C663 C665 1.419 . S
C664 C662 1.415 . S
C664 C669 1.425 . S
C664 C671 1.409 . S
C665 H657 0.930 . S
C665 C663 1.419 . S
C665 C666 1.362 . S
C666 H658 0.930 . S
C666 C665 1.362 . S
C666 C669 1.409 . S
C667 H659 0.930 . S
C667 C668 1.355 . S
C667 C669 1.415 . S
C668 C667 1.355 . S
C668 C670 1.419 . S
C669 C664 1.425 . S
C669 C666 1.409 . S
C669 C667 1.415 . S
C670 H660 0.930 . S
C670 C668 1.419 . S
C670 C671 1.362 . S
C671 H661 0.930 . S
C671 C664 1.409 . S
C671 C670 1.362 . S
H672 C678 0.930 . S
H673 C681 0.930 . S
H674 C682 0.930 . S
H675 C683 0.930 . S
H676 C686 0.930 . S
H677 C687 0.930 . S
C678 H672 0.930 . S
C678 C679 1.355 . S
C678 C680 1.415 . S
C679 C678 1.355 . S
C679 C681 1.419 . S
C680 C678 1.415 . S
C680 C685 1.425 . S
C680 C687 1.409 . S
C681 H673 0.930 . S
C681 C679 1.419 . S
C681 C682 1.362 . S
C682 H674 0.930 . S
C682 C681 1.362 . S
C682 C685 1.409 . S
C683 H675 0.930 . S
C683 C684 1.355 . S
C683 C685 1.415 . S
C684 C683 1.355 . S
C684 C686 1.419 . S
C685 C680 1.425 . S
C685 C682 1.409 . S
C685 C683 1.415 . S
C686 H676 0.930 . S
C686 C684 1.419 . S
C686 C687 1.362 . S
C687 H677 0.930 . S
C687 C680 1.409 . S
C687 C686 1.362 . S
H688 C694 0.930 . S
H689 C697 0.930 . S
H690 C698 0.930 . S
H691 C699 0.928 . S
H692 C702 0.930 . S
H693 C703 0.930 . S
C694 H688 0.930 . S
C694 C695 1.355 . S
C694 C696 1.415 . S
C695 C694 1.355 . S
C695 C697 1.419 1_554 S
C696 C694 1.415 . S
C696 C701 1.425 . S
C696 C703 1.409 . S
C697 H689 0.930 . S
C697 C695 1.419 1_556 S
C697 C698 1.362 . S
C698 H690 0.930 . S
C698 C697 1.362 . S
C698 C701 1.409 1_556 S
C699 H691 0.928 . S
C699 C700 1.355 . S
C699 C701 1.415 . S
C700 C699 1.355 . S
C700 C702 1.419 . S
C701 C696 1.425 . S
C701 C698 1.409 1_554 S
C701 C699 1.415 . S
C702 H692 0.930 . S
C702 C700 1.419 . S
C702 C703 1.362 . S
C703 H693 0.930 . S
C703 C696 1.409 . S
C703 C702 1.362 . S
H704 C710 0.930 . S
H705 C713 0.930 . S
H706 C714 0.930 . S
H707 C715 0.930 . S
H708 C718 0.930 . S
H709 C719 0.930 . S
C710 H704 0.930 . S
C710 C711 1.355 1_554 S
C710 C712 1.415 1_554 S
C711 C710 1.355 1_556 S
C711 C713 1.419 . S
C712 C710 1.415 1_556 S
C712 C717 1.425 . S
C712 C719 1.409 1_556 S
C713 H705 0.930 . S
C713 C711 1.419 . S
C713 C714 1.362 . S
C714 H706 0.930 . S
C714 C713 1.362 . S
C714 C717 1.409 . S
C715 H707 0.930 . S
C715 C716 1.355 . S
C715 C717 1.415 . S
C716 C715 1.355 . S
C716 C718 1.419 1_556 S
C717 C712 1.425 . S
C717 C714 1.409 . S
C717 C715 1.415 . S
C718 H708 0.930 . S
C718 C716 1.419 1_554 S
C718 C719 1.362 . S
C719 H709 0.930 . S
C719 C712 1.409 1_554 S
C719 C718 1.362 . S
H720 C726 0.930 1_556 S
H721 C729 0.930 . S
H722 C730 0.930 . S
H723 C731 0.930 . S
H724 C734 0.930 1_556 S
H725 C735 0.930 . S
C726 H720 0.930 1_554 S
C726 C727 1.355 . S
C726 C728 1.415 . S
C727 C726 1.355 . S
C727 C729 1.419 . S
C728 C726 1.415 . S
C728 C733 1.425 . S
C728 C735 1.409 1_554 S
C729 H721 0.930 . S
C729 C727 1.419 . S
C729 C730 1.362 . S
C730 H722 0.930 . S
C730 C729 1.362 . S
C730 C733 1.409 . S
C731 H723 0.930 . S
C731 C732 1.355 . S
C731 C733 1.415 . S
C732 C731 1.355 . S
C732 C734 1.419 . S
C733 C728 1.425 . S
C733 C730 1.409 . S
C733 C731 1.415 . S
C734 H724 0.930 1_554 S
C734 C732 1.419 . S
C734 C735 1.362 1_554 S
C735 H725 0.930 . S
C735 C728 1.409 1_556 S
C735 C734 1.362 1_556 S
H736 C742 0.930 . S
H737 C745 0.930 . S
H738 C746 0.930 . S
H739 C747 0.930 . S
H740 C750 0.930 . S
H741 C751 0.930 . S
C742 H736 0.930 . S
C742 C743 1.355 . S
C742 C744 1.415 . S
C743 C742 1.355 . S
C743 C745 1.419 1_556 S
C744 C742 1.415 . S
C744 C749 1.425 . S
C744 C751 1.409 . S
C745 H737 0.930 . S
C745 C743 1.419 1_554 S
C745 C746 1.362 . S
C746 H738 0.930 . S
C746 C745 1.362 . S
C746 C749 1.409 1_554 S
C747 H739 0.930 . S
C747 C748 1.355 1_554 S
C747 C749 1.415 1_554 S
C748 C747 1.355 1_556 S
C748 C750 1.419 . S
C749 C744 1.425 . S
C749 C746 1.409 1_556 S
C749 C747 1.415 1_556 S
C750 H740 0.930 . S
C750 C748 1.419 . S
C750 C751 1.362 . S
C751 H741 0.930 . S
C751 C744 1.409 . S
C751 C750 1.362 . S
H752 C758 0.930 . S
H753 C761 0.930 . S
H754 C762 0.930 . S
H755 C763 0.930 . S
H756 C766 0.930 . S
H757 C767 0.930 . S
C758 H752 0.930 . S
C758 C759 1.355 1_545 S
C758 C760 1.415 . S
C759 C758 1.355 1_565 S
C759 C761 1.419 . S
C760 C758 1.415 . S
C760 C765 1.425 1_545 S
C760 C767 1.409 . S
C761 H753 0.930 . S
C761 C759 1.419 . S
C761 C762 1.362 . S
C762 H754 0.930 . S
C762 C761 1.362 . S
C762 C765 1.409 . S
C763 H755 0.930 . S
C763 C764 1.355 1_565 S
C763 C765 1.415 . S
C764 C763 1.355 1_545 S
C764 C766 1.419 . S
C765 C760 1.425 1_565 S
C765 C762 1.409 . S
C765 C763 1.415 . S
C766 H756 0.930 . S
C766 C764 1.419 . S
C766 C767 1.362 . S
C767 H757 0.930 . S
C767 C760 1.409 . S
C767 C766 1.362 . S
H768 C774 0.937 . S
H769 C777 0.930 . S
H770 C778 0.930 . S
H771 C779 0.930 1_655 S
H772 C782 0.930 . S
H773 C783 0.930 . S
C774 H768 0.937 . S
C774 C775 1.343 1_455 S
C774 C776 1.419 . S
C775 C774 1.343 1_655 S
C775 C777 1.419 . S
C776 C774 1.419 . S
C776 C781 1.425 1_455 S
C776 C783 1.409 . S
C777 H769 0.930 . S
C777 C775 1.419 . S
C777 C778 1.362 . S
C778 H770 0.930 . S
C778 C777 1.362 . S
C778 C781 1.409 . S
C779 H771 0.930 1_455 S
C779 C780 1.355 . S
C779 C781 1.415 1_455 S
C780 C779 1.355 . S
C780 C782 1.419 . S
C781 C776 1.425 1_655 S
C781 C778 1.409 . S
C781 C779 1.415 1_655 S
C782 H772 0.930 . S
C782 C780 1.419 . S
C782 C783 1.362 . S
C783 H773 0.930 . S
C783 C776 1.409 . S
C783 C782 1.362 . S
H784 C790 0.930 . S
H785 C793 0.930 . S
H786 C794 0.930 1_545 S
H787 C795 0.930 . S
H788 C798 0.930 . S
H789 C799 0.930 . S
C790 H784 0.930 . S
C790 C791 1.355 . S
C790 C792 1.415 . S
C791 C790 1.355 . S
C791 C793 1.419 . S
C792 C790 1.415 . S
C792 C797 1.425 1_565 S
C792 C799 1.409 . S
C793 H785 0.930 . S
C793 C791 1.419 . S
C793 C794 1.362 . S
C794 H786 0.930 1_565 S
C794 C793 1.362 . S
C794 C797 1.409 1_565 S
C795 H787 0.930 . S
C795 C796 1.355 . S
C795 C797 1.415 . S
C796 C795 1.355 . S
C796 C798 1.419 . S
C797 C792 1.425 1_545 S
C797 C794 1.409 1_545 S
C797 C795 1.415 . S
C798 H788 0.930 . S
C798 C796 1.419 . S
C798 C799 1.362 1_545 S
C799 H789 0.930 . S
C799 C792 1.409 . S
C799 C798 1.362 1_565 S
H800 C806 0.930 . S
H801 C809 0.930 . S
H802 C810 0.930 . S
H803 C811 0.930 . S
H804 C814 0.933 . S
H805 C815 0.930 . S
C806 H800 0.930 . S
C806 C807 1.355 . S
C806 C808 1.415 . S
C807 C806 1.355 . S
C807 C809 1.419 . S
C808 C806 1.415 . S
C808 C813 1.425 1_655 S
C808 C815 1.409 . S
C809 H801 0.930 . S
C809 C807 1.419 . S
C809 C810 1.362 1_655 S
C810 H802 0.930 . S
C810 C809 1.362 1_455 S
C810 C813 1.409 . S
C811 H803 0.930 . S
C811 C812 1.355 . S
C811 C813 1.415 . S
C812 C811 1.355 . S
C812 C814 1.408 1_455 S
C813 C808 1.425 1_455 S
C813 C810 1.409 . S
C813 C811 1.415 . S
C814 H804 0.933 . S
C814 C812 1.408 1_655 S
C814 C815 1.372 . S
C815 H805 0.930 . S
C815 C808 1.409 . S
C815 C814 1.372 . S
H816 C822 0.926 1_545 S
H817 C825 0.930 . S
H818 C826 0.930 . S
H819 C827 0.935 . S
H820 C830 0.930 . S
H821 C831 0.930 . S
C822 H816 0.926 1_565 S
C822 C823 1.355 . S
C822 C824 1.415 1_565 S
C823 C822 1.355 . S
C823 C825 1.419 . S
C824 C822 1.415 1_545 S
C824 C829 1.425 1_545 S
C824 C831 1.409 . S
C825 H817 0.930 . S
C825 C823 1.419 . S
C825 C826 1.362 . S
C826 H818 0.930 . S
C826 C825 1.362 . S
C826 C829 1.409 . S
C827 H819 0.935 . S
C827 C828 1.355 . S
C827 C829 1.415 1_545 S
C828 C827 1.355 . S
C828 C830 1.419 . S
C829 C824 1.425 1_565 S
C829 C826 1.409 . S
C829 C827 1.415 1_565 S
C830 H820 0.930 . S
C830 C828 1.419 . S
C830 C831 1.362 . S
C831 H821 0.930 . S
C831 C824 1.409 . S
C831 C830 1.362 . S
H832 C838 0.929 . S
H833 C841 0.930 . S
H834 C842 0.930 . S
H835 C843 0.930 . S
H836 C846 0.930 . S
H837 C847 0.930 . S
C838 H832 0.929 . S
C838 C839 1.356 1_655 S
C838 C840 1.414 . S
C839 C838 1.356 1_455 S
C839 C841 1.419 . S
C840 C838 1.414 . S
C840 C845 1.425 1_655 S
C840 C847 1.409 . S
C841 H833 0.930 . S
C841 C839 1.419 . S
C841 C842 1.362 . S
C842 H834 0.930 . S
C842 C841 1.362 . S
C842 C845 1.409 . S
C843 H835 0.930 . S
C843 C844 1.355 1_455 S
C843 C845 1.415 . S
C844 C843 1.355 1_655 S
C844 C846 1.419 . S
C845 C840 1.425 1_455 S
C845 C842 1.409 . S
C845 C843 1.415 . S
C846 H836 0.930 . S
C846 C844 1.419 . S
C846 C847 1.362 . S
C847 H837 0.930 . S
C847 C840 1.409 . S
C847 C846 1.362 . S
H848 C854 0.930 . S
H849 C857 0.930 . S
H850 C858 0.930 . S
H851 C859 0.930 . S
H852 C862 0.930 . S
H853 C863 0.930 . S
C854 H848 0.930 . S
C854 C855 1.355 . S
C854 C856 1.415 . S
C855 C854 1.355 . S
C855 C857 1.419 1_565 S
C856 C854 1.415 . S
C856 C861 1.425 1_565 S
C856 C863 1.409 . S
C857 H849 0.930 . S
C857 C855 1.419 1_545 S
C857 C858 1.362 . S
C858 H850 0.930 . S
C858 C857 1.362 . S
C858 C861 1.409 . S
C859 H851 0.930 . S
C859 C860 1.355 . S
C859 C861 1.415 . S
C860 C859 1.355 . S
C860 C862 1.419 1_545 S
C861 C856 1.425 1_545 S
C861 C858 1.409 . S
C861 C859 1.415 . S
C862 H852 0.930 . S
C862 C860 1.419 1_565 S
C862 C863 1.362 . S
C863 H853 0.930 . S
C863 C856 1.409 . S
C863 C862 1.362 . S
H864 C870 0.930 . S
H865 C873 0.930 . S
H866 C874 0.930 . S
H867 C875 0.930 . S
H868 C878 0.930 . S
H869 C879 0.930 . S
C870 H864 0.930 . S
C870 C871 1.355 . S
C870 C872 1.415 . S
C871 C870 1.355 . S
C871 C873 1.419 1_455 S
C872 C870 1.415 . S
C872 C877 1.425 1_455 S
C872 C879 1.409 . S
C873 H865 0.930 . S
C873 C871 1.419 1_655 S
C873 C874 1.362 . S
C874 H866 0.930 . S
C874 C873 1.362 . S
C874 C877 1.409 . S
C875 H867 0.930 . S
C875 C876 1.355 . S
C875 C877 1.415 . S
C876 C875 1.355 . S
C876 C878 1.419 1_655 S
C877 C872 1.425 1_655 S
C877 C874 1.409 . S
C877 C875 1.415 . S
C878 H868 0.930 . S
C878 C876 1.419 1_455 S
C878 C879 1.362 . S
C879 H869 0.930 . S
C879 C872 1.409 . S
C879 C878 1.362 . S
H880 C886 0.930 . S
H881 C889 0.930 . S
H882 C890 0.930 . S
H883 C891 0.930 . S
H884 C894 0.930 . S
H885 C895 0.930 . S
C886 H880 0.930 . S
C886 C887 1.355 . S
C886 C888 1.415 . S
C887 C886 1.355 . S
C887 C889 1.419 . S
C888 C886 1.415 . S
C888 C893 1.425 . S
C888 C895 1.409 . S
C889 H881 0.930 . S
C889 C887 1.419 . S
C889 C890 1.362 . S
C890 H882 0.930 . S
C890 C889 1.362 . S
C890 C893 1.409 . S
C891 H883 0.930 . S
C891 C892 1.355 . S
C891 C893 1.415 . S
C892 C891 1.355 . S
C892 C894 1.419 . S
C893 C888 1.425 . S
C893 C890 1.409 . S
C893 C891 1.415 . S
C894 H884 0.930 . S
C894 C892 1.419 . S
C894 C895 1.362 . S
C895 H885 0.930 . S
C895 C888 1.409 . S
C895 C894 1.362 . S
H896 C902 0.930 . S
H897 C905 0.930 . S
H898 C906 0.930 . S
H899 C907 0.930 . S
H900 C910 0.930 . S
H901 C911 0.930 . S
C902 H896 0.930 . S
C902 C903 1.355 . S
C902 C904 1.415 . S
C903 C902 1.355 . S
C903 C905 1.419 . S
C904 C902 1.415 . S
C904 C909 1.425 . S
C904 C911 1.409 . S
C905 H897 0.930 . S
C905 C903 1.419 . S
C905 C906 1.362 . S
C906 H898 0.930 . S
C906 C905 1.362 . S
C906 C909 1.409 . S
C907 H899 0.930 . S
C907 C908 1.355 . S
C907 C909 1.415 . S
C908 C907 1.355 . S
C908 C910 1.419 . S
C909 C904 1.425 . S
C909 C906 1.409 . S
C909 C907 1.415 . S
C910 H900 0.930 . S
C910 C908 1.419 . S
C910 C911 1.362 . S
C911 H901 0.930 . S
C911 C904 1.409 . S
C911 C910 1.362 . S
H912 C918 0.930 . S
H913 C921 0.930 . S
H914 C922 0.930 . S
H915 C923 0.930 . S
H916 C926 0.930 . S
H917 C927 0.930 . S
C918 H912 0.930 . S
C918 C919 1.355 . S
C918 C920 1.415 . S
C919 C918 1.355 . S
C919 C921 1.419 . S
C920 C918 1.415 . S
C920 C925 1.425 . S
C920 C927 1.409 . S
C921 H913 0.930 . S
C921 C919 1.419 . S
C921 C922 1.362 . S
C922 H914 0.930 . S
C922 C921 1.362 . S
C922 C925 1.409 . S
C923 H915 0.930 . S
C923 C924 1.355 . S
C923 C925 1.415 . S
C924 C923 1.355 . S
C924 C926 1.419 . S
C925 C920 1.425 . S
C925 C922 1.409 . S
C925 C923 1.415 . S
C926 H916 0.930 . S
C926 C924 1.419 . S
C926 C927 1.362 . S
C927 H917 0.930 . S
C927 C920 1.409 . S
C927 C926 1.362 . S
H928 C934 0.930 . S
H929 C937 0.930 . S
H930 C938 0.930 . S
H931 C939 0.930 . S
H932 C942 0.930 . S
H933 C943 0.930 . S
C934 H928 0.930 . S
C934 C935 1.355 . S
C934 C936 1.415 . S
C935 C934 1.355 . S
C935 C937 1.419 . S
C936 C934 1.415 . S
C936 C941 1.425 . S
C936 C943 1.409 . S
C937 H929 0.930 . S
C937 C935 1.419 . S
C937 C938 1.362 . S
C938 H930 0.930 . S
C938 C937 1.362 . S
C938 C941 1.409 . S
C939 H931 0.930 . S
C939 C940 1.355 . S
C939 C941 1.415 . S
C940 C939 1.355 . S
C940 C942 1.419 . S
C941 C936 1.425 . S
C941 C938 1.409 . S
C941 C939 1.415 . S
C942 H932 0.930 . S
C942 C940 1.419 . S
C942 C943 1.362 . S
C943 H933 0.930 . S
C943 C936 1.409 . S
C943 C942 1.362 . S
H944 C950 0.930 . S
H945 C953 0.930 . S
H946 C954 0.930 . S
H947 C955 0.930 . S
H948 C958 0.930 . S
H949 C959 0.930 . S
C950 H944 0.930 . S
C950 C951 1.355 . S
C950 C952 1.415 . S
C951 C950 1.355 . S
C951 C953 1.419 . S
C952 C950 1.415 . S
C952 C957 1.425 . S
C952 C959 1.409 . S
C953 H945 0.930 . S
C953 C951 1.419 . S
C953 C954 1.362 . S
C954 H946 0.930 . S
C954 C953 1.362 . S
C954 C957 1.409 . S
C955 H947 0.930 . S
C955 C956 1.355 . S
C955 C957 1.415 . S
C956 C955 1.355 . S
C956 C958 1.419 . S
C957 C952 1.425 . S
C957 C954 1.409 . S
C957 C955 1.415 . S
C958 H948 0.930 . S
C958 C956 1.419 . S
C958 C959 1.362 . S
C959 H949 0.930 . S
C959 C952 1.409 . S
C959 C958 1.362 . S
H960 C966 0.930 . S
H961 C969 0.930 . S
H962 C970 0.930 . S
H963 C971 0.930 . S
H964 C974 0.930 . S
H965 C975 0.930 . S
C966 H960 0.930 . S
C966 C967 1.355 . S
C966 C968 1.415 . S
C967 C966 1.355 . S
C967 C969 1.419 . S
C968 C966 1.415 . S
C968 C973 1.425 . S
C968 C975 1.409 . S
C969 H961 0.930 . S
C969 C967 1.419 . S
C969 C970 1.362 . S
C970 H962 0.930 . S
C970 C969 1.362 . S
C970 C973 1.409 . S
C971 H963 0.930 . S
C971 C972 1.355 . S
C971 C973 1.415 . S
C972 C971 1.355 . S
C972 C974 1.419 . S
C973 C968 1.425 . S
C973 C970 1.409 . S
C973 C971 1.415 . S
C974 H964 0.930 . S
C974 C972 1.419 . S
C974 C975 1.362 . S
C975 H965 0.930 . S
C975 C968 1.409 . S
C975 C974 1.362 . S
H976 C982 0.930 . S
H977 C985 0.930 . S
H978 C986 0.930 . S
H979 C987 0.930 . S
H980 C990 0.930 . S
H981 C991 0.930 . S
C982 H976 0.930 . S
C982 C983 1.355 . S
C982 C984 1.415 . S
C983 C982 1.355 . S
C983 C985 1.419 . S
C984 C982 1.415 . S
C984 C989 1.425 . S
C984 C991 1.409 . S
C985 H977 0.930 . S
C985 C983 1.419 . S
C985 C986 1.362 . S
C986 H978 0.930 . S
C986 C985 1.362 . S
C986 C989 1.409 . S
C987 H979 0.930 . S
C987 C988 1.355 . S
C987 C989 1.415 . S
C988 C987 1.355 . S
C988 C990 1.419 . S
C989 C984 1.425 . S
C989 C986 1.409 . S
C989 C987 1.415 . S
C990 H980 0.930 . S
C990 C988 1.419 . S
C990 C991 1.362 . S
C991 H981 0.930 . S
C991 C984 1.409 . S
C991 C990 1.362 . S
H992 C998 0.930 . S
H993 C1001 0.930 . S
H994 C1002 0.930 . S
H995 C1003 0.930 . S
H996 C1006 0.930 . S
H997 C1007 0.930 . S
C998 H992 0.930 . S
C998 C999 1.355 . S
C998 C1000 1.415 . S
C999 C998 1.355 . S
C999 C1001 1.419 . S
C1000 C998 1.415 . S
C1000 C1005 1.425 . S
C1000 C1007 1.409 . S
C1001 H993 0.930 . S
C1001 C999 1.419 . S
C1001 C1002 1.362 . S
C1002 H994 0.930 . S
C1002 C1001 1.362 . S
C1002 C1005 1.409 . S
C1003 H995 0.930 . S
C1003 C1004 1.355 . S
C1003 C1005 1.415 . S
C1004 C1003 1.355 . S
C1004 C1006 1.419 . S
C1005 C1000 1.425 . S
C1005 C1002 1.409 . S
C1005 C1003 1.415 . S
C1006 H996 0.930 . S
C1006 C1004 1.419 . S
C1006 C1007 1.362 . S
C1007 H997 0.930 . S
C1007 C1000 1.409 . S
C1007 C1006 1.362 . S
H1008 C1014 0.930 . S
H1009 C1017 0.930 . S
H1010 C1018 0.930 . S
H1011 C1019 0.930 . S
H1012 C1022 0.930 . S
H1013 C1023 0.930 . S
C1014 H1008 0.930 . S
C1014 C1015 1.355 . S
C1014 C1016 1.415 . S
C1015 C1014 1.355 . S
C1015 C1017 1.419 1_556 S
C1016 C1014 1.415 . S
C1016 C1021 1.425 1_556 S
C1016 C1023 1.409 . S
C1017 H1009 0.930 . S
C1017 C1015 1.419 1_554 S
C1017 C1018 1.362 . S
C1018 H1010 0.930 . S
C1018 C1017 1.362 . S
C1018 C1021 1.409 . S
C1019 H1011 0.930 . S
C1019 C1020 1.355 . S
C1019 C1021 1.415 . S
C1020 C1019 1.355 . S
C1020 C1022 1.419 1_554 S
C1021 C1016 1.425 1_554 S
C1021 C1018 1.409 . S
C1021 C1019 1.415 . S
C1022 H1012 0.930 . S
C1022 C1020 1.419 1_556 S
C1022 C1023 1.362 . S
C1023 H1013 0.930 . S
C1023 C1016 1.409 . S
C1023 C1022 1.362 . S
H1024 C1030 0.930 . S
H1025 C1033 0.930 . S
H1026 C1034 0.930 . S
H1027 C1035 0.930 . S
H1028 C1038 0.930 . S
H1029 C1039 0.930 . S
C1030 H1024 0.930 . S
C1030 C1031 1.355 1_556 S
C1030 C1032 1.415 . S
C1031 C1030 1.355 1_554 S
C1031 C1033 1.419 . S
C1032 C1030 1.415 . S
C1032 C1037 1.425 1_556 S
C1032 C1039 1.409 . S
C1033 H1025 0.930 . S
C1033 C1031 1.419 . S
C1033 C1034 1.362 . S
C1034 H1026 0.930 . S
C1034 C1033 1.362 . S
C1034 C1037 1.409 . S
C1035 H1027 0.930 . S
C1035 C1036 1.355 1_554 S
C1035 C1037 1.415 . S
C1036 C1035 1.355 1_556 S
C1036 C1038 1.419 . S
C1037 C1032 1.425 1_554 S
C1037 C1034 1.409 . S
C1037 C1035 1.415 . S
C1038 H1028 0.930 . S
C1038 C1036 1.419 . S
C1038 C1039 1.362 . S
C1039 H1029 0.930 . S
C1039 C1032 1.409 . S
C1039 C1038 1.362 . S
H1040 C1046 0.930 . S
H1041 C1049 0.930 . S
H1042 C1050 0.930 1_556 S
H1043 C1051 0.930 . S
H1044 C1054 0.930 . S
H1045 C1055 0.930 1_554 S
C1046 H1040 0.930 . S
C1046 C1047 1.355 . S
C1046 C1048 1.415 . S
C1047 C1046 1.355 . S
C1047 C1049 1.419 . S
C1048 C1046 1.415 . S
C1048 C1053 1.425 1_554 S
C1048 C1055 1.409 1_554 S
C1049 H1041 0.930 . S
C1049 C1047 1.419 . S
C1049 C1050 1.362 . S
C1050 H1042 0.930 1_554 S
C1050 C1049 1.362 . S
C1050 C1053 1.409 1_554 S
C1051 H1043 0.930 . S
C1051 C1052 1.355 . S
C1051 C1053 1.415 . S
C1052 C1051 1.355 . S
C1052 C1054 1.419 . S
C1053 C1048 1.425 1_556 S
C1053 C1050 1.409 1_556 S
C1053 C1051 1.415 . S
C1054 H1044 0.930 . S
C1054 C1052 1.419 . S
C1054 C1055 1.362 . S
C1055 H1045 0.930 1_556 S
C1055 C1048 1.409 1_556 S
C1055 C1054 1.362 . S
H1056 C1062 0.930 . S
H1057 C1065 0.930 . S
H1058 C1066 0.930 . S
H1059 C1067 0.930 . S
H1060 C1070 0.930 . S
H1061 C1071 0.930 . S
C1062 H1056 0.930 . S
C1062 C1063 1.355 . S
C1062 C1064 1.415 . S
C1063 C1062 1.355 . S
C1063 C1065 1.419 1_554 S
C1064 C1062 1.415 . S
C1064 C1069 1.425 1_554 S
C1064 C1071 1.409 . S
C1065 H1057 0.930 . S
C1065 C1063 1.419 1_556 S
C1065 C1066 1.362 . S
C1066 H1058 0.930 . S
C1066 C1065 1.362 . S
C1066 C1069 1.409 . S
C1067 H1059 0.930 . S
C1067 C1068 1.355 . S
C1067 C1069 1.415 . S
C1068 C1067 1.355 . S
C1068 C1070 1.419 1_556 S
C1069 C1064 1.425 1_556 S
C1069 C1066 1.409 . S
C1069 C1067 1.415 . S
C1070 H1060 0.930 . S
C1070 C1068 1.419 1_554 S
C1070 C1071 1.362 . S
C1071 H1061 0.930 . S
C1071 C1064 1.409 . S
C1071 C1070 1.362 . S
H1072 C1078 0.930 . S
H1073 C1081 0.930 . S
H1074 C1082 0.930 . S
H1075 C1083 0.930 . S
H1076 C1086 0.930 . S
H1077 C1087 0.930 . S
C1078 H1072 0.930 . S
C1078 C1079 1.355 . S
C1078 C1080 1.415 . S
C1079 C1078 1.355 . S
C1079 C1081 1.419 . S
C1080 C1078 1.415 . S
C1080 C1085 1.425 . S
C1080 C1087 1.409 . S
C1081 H1073 0.930 . S
C1081 C1079 1.419 . S
C1081 C1082 1.362 . S
C1082 H1074 0.930 . S
C1082 C1081 1.362 . S
C1082 C1085 1.409 . S
C1083 H1075 0.930 . S
C1083 C1084 1.355 . S
C1083 C1085 1.415 . S
C1084 C1083 1.355 . S
C1084 C1086 1.419 . S
C1085 C1080 1.425 . S
C1085 C1082 1.409 . S
C1085 C1083 1.415 . S
C1086 H1076 0.930 . S
C1086 C1084 1.419 . S
C1086 C1087 1.362 . S
C1087 H1077 0.930 . S
C1087 C1080 1.409 . S
C1087 C1086 1.362 . S
H1088 C1094 0.930 . S
H1089 C1097 0.930 . S
H1090 C1098 0.930 . S
H1091 C1099 0.930 . S
H1092 C1102 0.930 . S
H1093 C1103 0.930 . S
C1094 H1088 0.930 . S
C1094 C1095 1.355 . S
C1094 C1096 1.415 . S
C1095 C1094 1.355 . S
C1095 C1097 1.419 . S
C1096 C1094 1.415 . S
C1096 C1101 1.425 . S
C1096 C1103 1.409 . S
C1097 H1089 0.930 . S
C1097 C1095 1.419 . S
C1097 C1098 1.362 . S
C1098 H1090 0.930 . S
C1098 C1097 1.362 . S
C1098 C1101 1.409 . S
C1099 H1091 0.930 . S
C1099 C1100 1.355 . S
C1099 C1101 1.415 . S
C1100 C1099 1.355 . S
C1100 C1102 1.419 . S
C1101 C1096 1.425 . S
C1101 C1098 1.409 . S
C1101 C1099 1.415 . S
C1102 H1092 0.930 . S
C1102 C1100 1.419 . S
C1102 C1103 1.362 . S
C1103 H1093 0.930 . S
C1103 C1096 1.409 . S
C1103 C1102 1.362 . S
H1104 C1110 0.930 . S
H1105 C1113 0.930 . S
H1106 C1114 0.930 . S
H1107 C1115 0.930 . S
H1108 C1118 0.930 . S
H1109 C1119 0.930 . S
C1110 H1104 0.930 . S
C1110 C1111 1.355 . S
C1110 C1112 1.415 . S
C1111 C1110 1.355 . S
C1111 C1113 1.419 . S
C1112 C1110 1.415 . S
C1112 C1117 1.425 . S
C1112 C1119 1.409 . S
C1113 H1105 0.930 . S
C1113 C1111 1.419 . S
C1113 C1114 1.362 . S
C1114 H1106 0.930 . S
C1114 C1113 1.362 . S
C1114 C1117 1.409 . S
C1115 H1107 0.930 . S
C1115 C1116 1.355 . S
C1115 C1117 1.415 . S
C1116 C1115 1.355 . S
C1116 C1118 1.419 . S
C1117 C1112 1.425 . S
C1117 C1114 1.409 . S
C1117 C1115 1.415 . S
C1118 H1108 0.930 . S
C1118 C1116 1.419 . S
C1118 C1119 1.362 . S
C1119 H1109 0.930 . S
C1119 C1112 1.409 . S
C1119 C1118 1.362 . S
H1120 C1126 0.930 . S
H1121 C1129 0.930 . S
H1122 C1130 0.930 . S
H1123 C1131 0.930 . S
H1124 C1134 0.930 . S
H1125 C1135 0.930 . S
C1126 H1120 0.930 . S
C1126 C1127 1.355 . S
C1126 C1128 1.415 . S
C1127 C1126 1.355 . S
C1127 C1129 1.419 . S
C1128 C1126 1.415 . S
C1128 C1133 1.425 . S
C1128 C1135 1.409 . S
C1129 H1121 0.930 . S
C1129 C1127 1.419 . S
C1129 C1130 1.362 . S
C1130 H1122 0.930 . S
C1130 C1129 1.362 . S
C1130 C1133 1.409 . S
C1131 H1123 0.930 . S
C1131 C1132 1.355 . S
C1131 C1133 1.415 . S
C1132 C1131 1.355 . S
C1132 C1134 1.419 . S
C1133 C1128 1.425 . S
C1133 C1130 1.409 . S
C1133 C1131 1.415 . S
C1134 H1124 0.930 . S
C1134 C1132 1.419 . S
C1134 C1135 1.362 . S
C1135 H1125 0.930 . S
C1135 C1128 1.409 . S
C1135 C1134 1.362 . S
C375 C16 1.125 . S
C380 C131 1.130 . S
C391 C39 1.173 . S
C396 C154 1.167 . S
C407 C177 1.120 . S
C412 C62 1.125 . S
C423 C109 1.107 . S
C428 C85 1.109 . S
C439 C315 1.123 . S
C444 C200 1.120 . S
C455 C223 1.136 . S
C460 C338 1.143 . S
C471 C361 1.158 . S
C476 C246 1.165 . S
C487 C293 1.140 . S
C492 C269 1.153 . S
C503 C19 1.563 . S
C508 C44 1.515 . S
C519 C67 1.549 . S
C524 C42 1.593 . S
C535 C90 1.557 . S
C540 C65 1.572 . S
C551 C88 1.591 . S
C556 C21 1.580 . S
C567 C110 1.614 . S
C572 C182 1.512 . S
C583 C112 1.550 . S
C588 C134 1.527 . S
C599 C136 1.544 . S
C604 C157 1.555 . S
C615 C159 1.515 . S
C620 C180 1.554 . S
C631 C203 1.595 . S
C636 C228 1.579 . S
C647 C251 1.578 . S
C652 C226 1.598 . S
C663 C249 1.592 . S
C668 C274 1.541 . S
C679 C272 1.561 . S
C684 C205 1.515 . S
C695 C366 1.517 . S
C700 C294 1.598 . S
C711 C296 1.577 . S
C716 C318 1.570 . S
C727 C320 1.509 . S
C732 C341 1.560 . S
C743 C364 1.593 . S
C748 C343 1.553 . S
C759 C156 1.503 . S
C764 C17 1.506 . S
C775 C179 1.508 . S
C780 C40 1.498 . S
C791 C63 1.519 . S
C796 C111 1.545 . S
C807 C86 1.516 . S
C812 C133 1.541 . S
C823 C64 1.551 . S
C828 C108 1.588 . S
C839 C132 1.509 . S
C844 C87 1.515 . S
C855 C155 1.542 . S
C860 C18 1.531 . S
C871 C41 1.531 . S
C876 C178 1.550 . S
C887 C201 1.543 . S
C892 C340 1.532 . S
C903 C224 1.525 . S
C908 C363 1.487 . S
C919 C295 1.523 . S
C924 C247 1.523 . S
C935 C270 1.515 . S
C940 C317 1.541 . S
C951 C292 1.586 . S
C956 C248 1.549 . S
C967 C316 1.551 . S
C972 C271 1.510 . S
C983 C339 1.508 . S
C988 C202 1.537 . S
C999 C225 1.531 . S
C1004 C362 1.550 . S
C1015 C365 1.262 . S
C1020 C20 1.310 . S
C1031 C297 1.286 . S
C1036 C43 1.311 . S
C1047 C66 1.299 . S
C1052 C319 1.254 . S
C1063 C342 1.245 . S
C1068 C89 1.279 . S
C1079 C113 1.302 . S
C1084 C227 1.275 . S
C1095 C135 1.301 . S
C1100 C250 1.253 . S
C1111 C273 1.245 . S
C1116 C158 1.279 . S
C1127 C181 1.299 . S
C1132 C204 1.271 . S
