# Generated by pormake.
# Topology ume, (4)-cn, num edge types: 1
# Building blocks:
#     Node 0, Type 0, BuildingBlock: ICAMEG_clean_sbu_1, # of connection points: 4
#     Node 1, Type 0, BuildingBlock: ICAMEG_clean_sbu_1, # of connection points: 4
#     Node 2, Type 0, BuildingBlock: ICAMEG_clean_sbu_1, # of connection points: 4
#     Node 3, Type 0, BuildingBlock: ICAMEG_clean_sbu_1, # of connection points: 4
#     Node 4, Type 0, BuildingBlock: ICAMEG_clean_sbu_1, # of connection points: 4
#     Node 5, Type 0, BuildingBlock: ICAMEG_clean_sbu_1, # of connection points: 4
#     Node 6, Type 0, BuildingBlock: ICAMEG_clean_sbu_1, # of connection points: 4
#     Node 7, Type 0, BuildingBlock: ICAMEG_clean_sbu_1, # of connection points: 4
#     Node 8, Type 0, BuildingBlock: ICAMEG_clean_sbu_1, # of connection points: 4
#     Node 9, Type 0, BuildingBlock: ICAMEG_clean_sbu_1, # of connection points: 4
#     Node 10, Type 0, BuildingBlock: ICAMEG_clean_sbu_1, # of connection points: 4
#     Node 11, Type 0, BuildingBlock: ICAMEG_clean_sbu_1, # of connection points: 4
#     Node 12, Type 0, BuildingBlock: ICAMEG_clean_sbu_1, # of connection points: 4
#     Node 13, Type 0, BuildingBlock: ICAMEG_clean_sbu_1, # of connection points: 4
#     Node 14, Type 0, BuildingBlock: ICAMEG_clean_sbu_1, # of connection points: 4
#     Node 15, Type 0, BuildingBlock: ICAMEG_clean_sbu_1, # of connection points: 4
#     Edge 16, Type (0, 0), BuildingBlock: EZIPEK_clean_linker_0, # of connection points: 2
#     Edge 17, Type (0, 0), BuildingBlock: EZIPEK_clean_linker_0, # of connection points: 2
#     Edge 18, Type (0, 0), BuildingBlock: EZIPEK_clean_linker_0, # of connection points: 2
#     Edge 19, Type (0, 0), BuildingBlock: EZIPEK_clean_linker_0, # of connection points: 2
#     Edge 20, Type (0, 0), BuildingBlock: EZIPEK_clean_linker_0, # of connection points: 2
#     Edge 21, Type (0, 0), BuildingBlock: EZIPEK_clean_linker_0, # of connection points: 2
#     Edge 22, Type (0, 0), BuildingBlock: EZIPEK_clean_linker_0, # of connection points: 2
#     Edge 23, Type (0, 0), BuildingBlock: EZIPEK_clean_linker_0, # of connection points: 2
#     Edge 24, Type (0, 0), BuildingBlock: EZIPEK_clean_linker_0, # of connection points: 2
#     Edge 25, Type (0, 0), BuildingBlock: EZIPEK_clean_linker_0, # of connection points: 2
#     Edge 26, Type (0, 0), BuildingBlock: EZIPEK_clean_linker_0, # of connection points: 2
#     Edge 27, Type (0, 0), BuildingBlock: EZIPEK_clean_linker_0, # of connection points: 2
#     Edge 28, Type (0, 0), BuildingBlock: EZIPEK_clean_linker_0, # of connection points: 2
#     Edge 29, Type (0, 0), BuildingBlock: EZIPEK_clean_linker_0, # of connection points: 2
#     Edge 30, Type (0, 0), BuildingBlock: EZIPEK_clean_linker_0, # of connection points: 2
#     Edge 31, Type (0, 0), BuildingBlock: EZIPEK_clean_linker_0, # of connection points: 2
#     Edge 32, Type (0, 0), BuildingBlock: EZIPEK_clean_linker_0, # of connection points: 2
#     Edge 33, Type (0, 0), BuildingBlock: EZIPEK_clean_linker_0, # of connection points: 2
#     Edge 34, Type (0, 0), BuildingBlock: EZIPEK_clean_linker_0, # of connection points: 2
#     Edge 35, Type (0, 0), BuildingBlock: EZIPEK_clean_linker_0, # of connection points: 2
#     Edge 36, Type (0, 0), BuildingBlock: EZIPEK_clean_linker_0, # of connection points: 2
#     Edge 37, Type (0, 0), BuildingBlock: EZIPEK_clean_linker_0, # of connection points: 2
#     Edge 38, Type (0, 0), BuildingBlock: EZIPEK_clean_linker_0, # of connection points: 2
#     Edge 39, Type (0, 0), BuildingBlock: EZIPEK_clean_linker_0, # of connection points: 2
#     Edge 40, Type (0, 0), BuildingBlock: EZIPEK_clean_linker_0, # of connection points: 2
#     Edge 41, Type (0, 0), BuildingBlock: EZIPEK_clean_linker_0, # of connection points: 2
#     Edge 42, Type (0, 0), BuildingBlock: EZIPEK_clean_linker_0, # of connection points: 2
#     Edge 43, Type (0, 0), BuildingBlock: EZIPEK_clean_linker_0, # of connection points: 2
#     Edge 44, Type (0, 0), BuildingBlock: EZIPEK_clean_linker_0, # of connection points: 2
#     Edge 45, Type (0, 0), BuildingBlock: EZIPEK_clean_linker_0, # of connection points: 2
#     Edge 46, Type (0, 0), BuildingBlock: EZIPEK_clean_linker_0, # of connection points: 2
#     Edge 47, Type (0, 0), BuildingBlock: EZIPEK_clean_linker_0, # of connection points: 2
# Relax obj value: 0.076
# Max RMSD: 0.094
# Mean RMSD: 0.094
data_MOF--net-ume--node1-ICAMEG_clean_sbu_1--edge1-EZIPEK_clean_linker_0
_symmetry_space_group_name_H-M    P1
_symmetry_Int_Tables_number       1
_symmetry_cell_setting            triclinic
loop_
_symmetry_equiv_pos_as_xyz
'x, y, z'
_cell_length_a     22.021953
_cell_length_b     22.036245
_cell_length_c     89.057834
_cell_angle_alpha  89.976124
_cell_angle_beta   90.055326
_cell_angle_gamma 89.955797
loop_
_atom_site_label
_atom_site_type_symbol
_atom_site_fract_x
_atom_site_fract_y
_atom_site_fract_z
_atom_type_partial_charge
Co0 Co 0.28695 0.15228 0.31793 0.0
Co1 Co 0.26106 0.01167 0.30156 0.0
O2 O 0.24103 0.07667 0.31561 0.0
C3 C 0.2762 0.09942 0.34849 0.0
O4 O 0.28623 0.04586 0.34262 0.0
C5 C 0.13089 0.03926 0.2948 0.0
O6 O 0.1436 0.09741 0.29445 0.0
O7 O 0.26902 0.07118 0.28468 0.0
O8 O 0.29803 0.15869 0.29563 0.0
H9 H 0.37434 0.91483 0.25881 0.0
H10 H 0.16552 0.1408 0.33205 0.0
O11 O 0.27599 0.14678 0.3403 0.0
H12 H 0.14901 0.31489 0.29752 0.0
H13 H 0.33443 0.35025 0.3437 0.0
H14 H 0.38567 0.21769 0.3011 0.0
H15 H 0.24568 0.25944 0.30018 0.0
H16 H 0.27884 0.2551 0.3397 0.0
O17 O 0.17232 1.00015 0.29713 0.0
H18 H 0.35761 0.99004 0.27882 0.0
H19 H 0.20336 0.893 0.2941 0.0
H20 H 0.44223 0.31228 0.30472 0.0
H21 H 0.068 0.19503 0.32981 0.0
H22 H 0.41708 0.37952 0.3262 0.0
H23 H 0.05924 0.28273 0.3124 0.0
O24 O 0.36595 0.10639 0.3196 0.0
H25 H 0.16142 0.91601 0.3465 0.0
H26 H 0.33802 0.90962 0.31254 0.0
H27 H 0.33158 0.83672 0.33348 0.0
H28 H 0.24274 0.83958 0.35064 0.0
H29 H 0.17025 0.98843 0.32552 0.0
H30 H 0.21818 0.81658 0.27426 0.0
H31 H 0.30254 0.82868 0.25608 0.0
O32 O 0.34977 0.0208 0.30622 0.0
C33 C 0.28739 0.12617 0.28407 0.0
C34 C 0.33677 0.90963 0.26654 0.0
C35 C 0.24911 0.85453 0.2752 0.0
N36 N 0.27904 0.94686 0.28746 0.0
C37 C 0.32715 0.95221 0.2779 0.0
C38 C 0.24092 0.89808 0.2864 0.0
C39 C 0.29682 0.86102 0.26508 0.0
C40 C 0.16219 0.17909 0.32454 0.0
N41 N 0.21124 0.19682 0.31626 0.0
C42 C 0.1068 0.20958 0.32328 0.0
C43 C 0.1019 0.25872 0.3135 0.0
C44 C 0.15224 0.27677 0.30515 0.0
C45 C 0.20687 0.24513 0.30669 0.0
C46 C 0.34665 0.32078 0.33446 0.0
C47 C 0.37527 0.24522 0.31072 0.0
C48 C 0.31578 0.26617 0.33222 0.0
N49 N 0.33095 0.22837 0.32062 0.0
C50 C 0.40711 0.29948 0.31261 0.0
C51 C 0.39288 0.33726 0.32463 0.0
C52 C 0.38414 0.05644 0.31373 0.0
C53 C 0.20029 0.91417 0.33908 0.0
C54 C 0.29931 0.9113 0.31998 0.0
C55 C 0.29583 0.86977 0.3318 0.0
C56 C 0.24597 0.87138 0.34142 0.0
N57 N 0.25452 0.95339 0.31782 0.0
C58 C 0.20533 0.95494 0.32714 0.0
Co59 Co 0.85802 0.788 0.56733 0.0
Co60 Co 0.98322 0.74452 0.54651 0.0
O61 O 0.92409 0.73134 0.56252 0.0
C62 C 0.91847 0.75904 0.59669 0.0
O63 O 0.9693 0.75255 0.58923 0.0
C64 C 0.93919 0.61761 0.54042 0.0
O65 O 0.88263 0.63599 0.54133 0.0
O66 O 0.91585 0.76008 0.53176 0.0
O67 O 0.84463 0.80733 0.54555 0.0
H68 H 0.05431 0.82935 0.4972 0.0
H69 H 0.85697 0.66114 0.57817 0.0
O70 O 0.86959 0.77211 0.58963 0.0
H71 H 0.66743 0.68498 0.54931 0.0
H72 H 0.67279 0.85581 0.59585 0.0
H73 H 0.8222 0.91139 0.55705 0.0
H74 H 0.73821 0.77086 0.55227 0.0
H75 H 0.7549 0.78498 0.58893 0.0
O76 O 0.98279 0.65507 0.54182 0.0
H77 H 0.98997 0.82498 0.51962 0.0
H78 H 0.09746 0.68184 0.5374 0.0
H79 H 0.7407 0.98339 0.56353 0.0
H80 H 0.78741 0.57396 0.57564 0.0
H81 H 0.66517 0.95574 0.58307 0.0
H82 H 0.69174 0.58568 0.5611 0.0
O83 O 0.91616 0.85653 0.56849 0.0
H84 H 0.09318 0.63001 0.58724 0.0
H85 H 0.09693 0.81076 0.55461 0.0
H86 H 0.17947 0.79469 0.57287 0.0
H87 H 0.17817 0.7036 0.5893 0.0
H88 H 0.01076 0.64891 0.56911 0.0
H89 H 0.16421 0.68594 0.51529 0.0
H90 H 0.14189 0.75896 0.49478 0.0
O91 O 0.98792 0.83386 0.55156 0.0
C92 C 0.86781 0.79231 0.53296 0.0
C93 C 0.06512 0.79792 0.50616 0.0
C94 C 0.1266 0.71732 0.51629 0.0
N95 N 0.04107 0.75499 0.53022 0.0
C96 C 0.02908 0.7957 0.51902 0.0
C97 C 0.089 0.71579 0.5289 0.0
C98 C 0.11414 0.75836 0.5048 0.0
C99 C 0.81503 0.66665 0.57205 0.0
N100 N 0.80105 0.72123 0.56569 0.0
C101 C 0.77597 0.61712 0.57057 0.0
C102 C 0.7224 0.6237 0.56238 0.0
C103 C 0.70872 0.6794 0.55577 0.0
C104 C 0.74894 0.72789 0.5575 0.0
C105 C 0.7053 0.8683 0.58729 0.0
C106 C 0.78931 0.89878 0.56546 0.0
C107 C 0.75193 0.82842 0.58333 0.0
N108 N 0.79294 0.84371 0.57245 0.0
C109 C 0.74334 0.93986 0.56913 0.0
C110 C 0.70104 0.92435 0.58011 0.0
C111 C 0.96356 0.87049 0.56103 0.0
C112 C 0.09436 0.66983 0.58012 0.0
C113 C 0.09545 0.77143 0.56185 0.0
C114 C 0.14262 0.76236 0.5721 0.0
C115 C 0.14194 0.71119 0.5813 0.0
N116 N 0.04874 0.73075 0.56079 0.0
C117 C 0.04796 0.68044 0.56975 0.0
Co118 Co 0.2114 0.36856 0.81739 0.0
Co119 Co 0.24446 0.49226 0.79527 0.0
O120 O 0.26121 0.4394 0.81247 0.0
C121 C 0.22733 0.43474 0.84641 0.0
O122 O 0.22272 0.48645 0.83921 0.0
C123 C 0.37431 0.4603 0.79239 0.0
O124 O 0.36007 0.40348 0.795 0.0
O125 O 0.2419 0.42091 0.78163 0.0
O126 O 0.19879 0.34854 0.79547 0.0
H127 H 0.14699 0.54571 0.74602 0.0
H128 H 0.33258 0.37963 0.83155 0.0
O129 O 0.22315 0.38457 0.83941 0.0
H130 H 0.34034 0.18874 0.80279 0.0
H131 H 0.1581 0.18116 0.84696 0.0
H132 H 0.09152 0.32276 0.80733 0.0
H133 H 0.24691 0.25014 0.80334 0.0
H134 H 0.22265 0.26752 0.83956 0.0
O135 O 0.33364 0.50111 0.79182 0.0
H136 H 0.15928 0.48772 0.76951 0.0
H137 H 0.30028 0.60616 0.78354 0.0
H138 H 0.02545 0.23708 0.8144 0.0
H139 H 0.42684 0.31931 0.83146 0.0
H140 H 0.05881 0.16535 0.8343 0.0
H141 H 0.43125 0.22316 0.81694 0.0
O142 O 0.13713 0.42028 0.8174 0.0
H143 H 0.33182 0.6225 0.83627 0.0
H144 H 0.16387 0.59941 0.80005 0.0
H145 H 0.16454 0.68704 0.81726 0.0
H146 H 0.24902 0.69909 0.83551 0.0
H147 H 0.32883 0.5352 0.819 0.0
H148 H 0.28999 0.6651 0.76011 0.0
H149 H 0.21396 0.63393 0.741 0.0
O150 O 0.1549 0.48622 0.79861 0.0
C151 C 0.21824 0.36831 0.78289 0.0
C152 C 0.18053 0.55946 0.75423 0.0
C153 C 0.26085 0.62643 0.76213 0.0
N154 N 0.23 0.5438 0.77796 0.0
C155 C 0.18723 0.52719 0.76763 0.0
C156 C 0.26624 0.59307 0.77541 0.0
C157 C 0.21814 0.60895 0.75142 0.0
C158 C 0.33395 0.33769 0.82529 0.0
N159 N 0.28426 0.31875 0.81738 0.0
C160 C 0.38754 0.30378 0.82525 0.0
C161 C 0.39001 0.24991 0.81708 0.0
C162 C 0.33906 0.23063 0.80912 0.0
C163 C 0.28629 0.26581 0.8094 0.0
C164 C 0.14328 0.21181 0.83819 0.0
C165 C 0.10641 0.29164 0.81597 0.0
C166 C 0.17973 0.26069 0.83391 0.0
N167 N 0.16149 0.29936 0.82277 0.0
C168 C 0.0688 0.24323 0.81993 0.0
C169 C 0.08753 0.20302 0.8311 0.0
C170 C 0.12015 0.46218 0.80842 0.0
C171 C 0.29485 0.61788 0.82833 0.0
C172 C 0.20064 0.60413 0.80802 0.0
C173 C 0.20087 0.65398 0.8177 0.0
C174 C 0.24832 0.66075 0.82792 0.0
N175 N 0.24635 0.56216 0.80851 0.0
C176 C 0.29311 0.56866 0.81847 0.0
Co177 Co 0.63526 0.7096 0.06779 0.0
Co178 Co 0.51493 0.7439 0.04443 0.0
O179 O 0.56667 0.76133 0.0618 0.0
C180 C 0.57686 0.75217 0.09686 0.0
O181 O 0.52949 0.77277 0.08956 0.0
C182 C 0.54704 0.87418 0.04041 0.0
O183 O 0.60454 0.86085 0.04241 0.0
O184 O 0.58833 0.73802 0.03128 0.0
O185 O 0.65417 0.6891 0.04627 0.0
H186 H 0.46555 0.64776 0.99467 0.0
H187 H 0.62909 0.83767 0.07793 0.0
O188 O 0.62065 0.72688 0.08987 0.0
H189 H 0.82157 0.82135 0.05011 0.0
H190 H 0.82526 0.66265 0.09714 0.0
H191 H 0.6715 0.5801 0.06266 0.0
H192 H 0.75567 0.73199 0.05338 0.0
H193 H 0.73997 0.72618 0.08861 0.0
O194 O 0.50688 0.83291 0.0404 0.0
H195 H 0.52284 0.6607 0.01817 0.0
H196 H 0.40062 0.79803 0.03239 0.0
H197 H 0.75641 0.51541 0.07063 0.0
H198 H 0.69365 0.92825 0.07507 0.0
H199 H 0.83443 0.55659 0.088 0.0
H200 H 0.79086 0.92038 0.06106 0.0
O201 O 0.57913 0.63838 0.06872 0.0
H202 H 0.37868 0.83822 0.08334 0.0
H203 H 0.40727 0.66412 0.04932 0.0
H204 H 0.31756 0.66741 0.06579 0.0
H205 H 0.30267 0.75499 0.08295 0.0
H206 H 0.46825 0.83242 0.06687 0.0
H207 H 0.34223 0.78714 0.00893 0.0
H208 H 0.37544 0.71254 0.98972 0.0
O209 O 0.51927 0.65471 0.04855 0.0
C210 C 0.63608 0.70597 0.03328 0.0
C211 C 0.45064 0.68046 1.00296 0.0
C212 C 0.38151 0.75873 0.01095 0.0
N213 N 0.4645 0.72893 0.02688 0.0
C214 C 0.48249 0.68732 0.01642 0.0
C215 C 0.41454 0.76434 0.02428 0.0
C216 C 0.40017 0.71691 1.00017 0.0
C217 C 0.67145 0.83383 0.07197 0.0
N218 N 0.68885 0.77939 0.06609 0.0
C219 C 0.70782 0.88529 0.07033 0.0
C220 C 0.76226 0.88087 0.06245 0.0
C221 C 0.77951 0.82533 0.05631 0.0
C222 C 0.74193 0.77487 0.0582 0.0
C223 C 0.79229 0.64453 0.08932 0.0
C224 C 0.70616 0.59933 0.06968 0.0
C225 C 0.74401 0.68046 0.08434 0.0
N226 N 0.70251 0.65833 0.07429 0.0
C227 C 0.75378 0.56201 0.07441 0.0
C228 C 0.79736 0.58503 0.08421 0.0
C229 C 0.53977 0.62064 0.05904 0.0
C230 C 0.38465 0.79976 0.07593 0.0
C231 C 0.40164 0.70208 0.05687 0.0
C232 C 0.35047 0.70384 0.06612 0.0
C233 C 0.34208 0.75303 0.07572 0.0
N234 N 0.44349 0.7479 0.05721 0.0
C235 C 0.43526 0.79641 0.06652 0.0
Co236 Co 0.28392 0.36156 0.94084 0.0
Co237 Co 0.26784 0.49038 0.9626 0.0
O238 O 0.24458 0.43938 0.94557 0.0
C239 C 0.26288 0.42603 0.91114 0.0
O240 O 0.25246 0.47684 0.91831 0.0
C241 C 0.1353 0.47434 0.96664 0.0
O242 O 0.14346 0.41562 0.96531 0.0
O243 O 0.26164 0.41985 0.97638 0.0
O244 O 0.29321 0.34091 0.96287 0.0
H245 H 0.37093 0.53186 0.01185 0.0
H246 H 0.1631 0.39385 0.92848 0.0
O247 O 0.27665 0.37784 0.9184 0.0
H248 H 0.13195 0.19981 0.9548 0.0
H249 H 0.31194 0.16645 0.91215 0.0
H250 H 0.39407 0.29859 0.95194 0.0
H251 H 0.23336 0.24635 0.95365 0.0
H252 H 0.26044 0.26217 0.91875 0.0
O253 O 0.18009 0.51063 0.96605 0.0
H254 H 0.3508 0.47501 0.98856 0.0
H255 H 0.22752 0.61113 0.97407 0.0
H256 H 0.44693 0.20315 0.94575 0.0
H257 H 0.06072 0.34915 0.92931 0.0
H258 H 0.40574 0.13622 0.92575 0.0
H259 H 0.04456 0.25123 0.94255 0.0
O260 O 0.36477 0.4018 0.94095 0.0
H261 H 0.19641 0.63528 0.92255 0.0
H262 H 0.36299 0.58415 0.95735 0.0
H263 H 0.37382 0.67176 0.94039 0.0
H264 H 0.29011 0.69796 0.92283 0.0
H265 H 0.18808 0.5474 0.93951 0.0
H266 H 0.24562 0.66912 0.99733 0.0
H267 H 0.31692 0.62884 0.01654 0.0
O268 O 0.35588 0.4725 0.95906 0.0
C269 C 0.27812 0.3645 0.97542 0.0
C270 C 0.33976 0.5498 1.00356 0.0
C271 C 0.26927 0.62675 0.99543 0.0
N272 N 0.28887 0.5401 0.97983 0.0
C273 C 0.32876 0.51815 0.99026 0.0
C274 C 0.25951 0.59389 0.98224 0.0
C275 C 0.30929 0.60415 0.00621 0.0
C276 C 0.15653 0.35139 0.93426 0.0
N277 N 0.20448 0.32288 0.94097 0.0
C278 C 0.09839 0.32618 0.93468 0.0
C279 C 0.08936 0.27131 0.94211 0.0
C280 C 0.13836 0.24247 0.94899 0.0
C281 C 0.19581 0.26916 0.94834 0.0
C282 C 0.33017 0.19508 0.92094 0.0
C283 C 0.37576 0.26962 0.94326 0.0
C284 C 0.3012 0.24936 0.92472 0.0
N285 N 0.32365 0.28549 0.9359 0.0
C286 C 0.40593 0.21566 0.93979 0.0
C287 C 0.38282 0.17816 0.92856 0.0
C288 C 0.38719 0.44271 0.94945 0.0
C289 C 0.23327 0.62428 0.93013 0.0
C290 C 0.32662 0.59462 0.94962 0.0
C291 C 0.33289 0.64462 0.9401 0.0
C292 C 0.28587 0.65937 0.93028 0.0
N293 N 0.27509 0.56001 0.94931 0.0
C294 C 0.22864 0.57463 0.93981 0.0
Co295 Co 0.64401 0.78777 0.19115 0.0
Co296 Co 0.51802 0.73576 0.21039 0.0
O297 O 0.57878 0.72938 0.19459 0.0
C298 C 0.5804 0.77674 0.16189 0.0
O299 O 0.52893 0.77984 0.16927 0.0
C300 C 0.53776 0.61433 0.22476 0.0
O301 O 0.5599 0.64008 0.23687 0.0
O302 O 0.58345 0.75086 0.22562 0.0
O303 O 0.65938 0.79693 0.21317 0.0
H304 H 0.43496 0.80173 0.2605 0.0
H305 H 0.6454 0.66748 0.17623 0.0
O306 O 0.63081 0.77954 0.1689 0.0
H307 H 0.83658 0.67782 0.20499 0.0
H308 H 0.82498 0.87075 0.16343 0.0
H309 H 0.68044 0.90486 0.20484 0.0
H310 H 0.76493 0.76389 0.20508 0.0
H311 H 0.7446 0.79598 0.16884 0.0
O312 O 0.52393 0.64602 0.2133 0.0
H313 H 0.5042 0.80594 0.23895 0.0
H314 H 0.40626 0.66497 0.21734 0.0
H315 H 0.76042 0.98056 0.1999 0.0
H316 H 0.71585 0.58044 0.17579 0.0
H317 H 0.83338 0.96373 0.17905 0.0
H318 H 0.81224 0.58528 0.19026 0.0
O319 O 0.58527 0.85675 0.192 0.0
H320 H 0.41827 0.62546 0.16748 0.0
H321 H 0.40187 0.79814 0.20244 0.0
H322 H 0.32192 0.78193 0.18349 0.0
H323 H 0.32956 0.69479 0.16591 0.0
H324 H 0.49842 0.64454 0.18622 0.0
H325 H 0.33598 0.65908 0.2387 0.0
H326 H 0.35064 0.72692 0.26063 0.0
O327 O 0.50903 0.82567 0.20686 0.0
C328 C 0.63455 0.77827 0.22523 0.0
C329 C 0.42759 0.77241 0.25092 0.0
C330 C 0.37206 0.6924 0.2387 0.0
N331 N 0.45787 0.73814 0.22643 0.0
C332 C 0.46622 0.77536 0.23852 0.0
C333 C 0.41167 0.6966 0.22651 0.0
C334 C 0.38038 0.73039 0.251 0.0
C335 C 0.68745 0.67009 0.18247 0.0
N336 N 0.70122 0.72085 0.19059 0.0
C337 C 0.72709 0.6206 0.18221 0.0
C338 C 0.78112 0.62332 0.19034 0.0
C339 C 0.79481 0.67522 0.19861 0.0
C340 C 0.75405 0.7238 0.19862 0.0
C341 C 0.79358 0.87851 0.17257 0.0
C342 C 0.71234 0.89697 0.19583 0.0
C343 C 0.74794 0.83637 0.17568 0.0
N344 N 0.70827 0.84577 0.18724 0.0
C345 C 0.75739 0.9401 0.19305 0.0
C346 C 0.79826 0.93066 0.18134 0.0
C347 C 0.53538 0.8665 0.19894 0.0
C348 C 0.41441 0.66356 0.17509 0.0
C349 C 0.40618 0.76071 0.19467 0.0
C350 C 0.36046 0.75149 0.18403 0.0
C351 C 0.36471 0.70253 0.1742 0.0
N352 N 0.45493 0.72234 0.19547 0.0
C353 C 0.45951 0.67441 0.1858 0.0
Co354 Co 0.21454 0.15804 0.44332 0.0
Co355 Co 0.25392 0.0185 0.4586 0.0
O356 O 0.2672 0.08726 0.44528 0.0
C357 C 0.23166 0.11065 0.41243 0.0
O358 O 0.22677 0.05636 0.41829 0.0
C359 C 0.37952 0.05702 0.46793 0.0
O360 O 0.35951 0.11079 0.47188 0.0
O361 O 0.23913 0.07449 0.4761 0.0
O362 O 0.20151 0.16031 0.46569 0.0
H363 H 0.14851 0.88977 0.49761 0.0
H364 H 0.3408 0.15456 0.43182 0.0
O365 O 0.22682 0.15722 0.42082 0.0
H366 H 0.33155 0.33449 0.46459 0.0
H367 H 0.15266 0.35742 0.42024 0.0
H368 H 0.10115 0.20264 0.45798 0.0
H369 H 0.24102 0.27059 0.46074 0.0
H370 H 0.218 0.26781 0.42377 0.0
O371 O 0.34369 0.0171 0.46263 0.0
H372 H 0.15319 0.96711 0.47804 0.0
H373 H 0.3313 0.91163 0.46639 0.0
H374 H 0.03461 0.29148 0.45491 0.0
H375 H 0.43259 0.21694 0.43538 0.0
H376 H 0.06018 0.36982 0.43588 0.0
H377 H 0.42828 0.3078 0.45185 0.0
O378 O 0.14145 0.10467 0.44099 0.0
H379 H 0.36131 0.93997 0.41264 0.0
H380 H 0.1877 0.91103 0.4468 0.0
H381 H 0.20113 0.84171 0.42535 0.0
H382 H 0.28857 0.85582 0.4081 0.0
H383 H 0.34518 0.00881 0.43405 0.0
H384 H 0.32703 0.8305 0.4852 0.0
H385 H 0.23607 0.82008 0.5014 0.0
O386 O 0.16443 0.01955 0.45406 0.0
C387 C 0.21486 0.12739 0.47708 0.0
C388 C 0.18903 0.89448 0.49089 0.0
C389 C 0.28921 0.86151 0.48397 0.0
N390 N 0.24447 0.9486 0.47192 0.0
C391 C 0.19259 0.93997 0.48002 0.0
C392 C 0.2915 0.90828 0.4734 0.0
C393 C 0.23804 0.85544 0.49298 0.0
C394 C 0.33847 0.19426 0.4389 0.0
N395 N 0.28534 0.20947 0.44583 0.0
C396 C 0.39063 0.22934 0.44091 0.0
C397 C 0.38819 0.28025 0.45016 0.0
C398 C 0.33393 0.2953 0.45729 0.0
C399 C 0.28273 0.25907 0.45501 0.0
C400 C 0.14076 0.32339 0.42849 0.0
C401 C 0.1123 0.23589 0.44962 0.0
C402 C 0.17738 0.27222 0.43048 0.0
N403 N 0.16285 0.22906 0.44092 0.0
C404 C 0.07457 0.28643 0.44795 0.0
C405 C 0.08895 0.33037 0.43728 0.0
C406 C 0.12766 0.05289 0.44655 0.0
C407 C 0.32321 0.9331 0.42011 0.0
C408 C 0.22586 0.91756 0.43935 0.0
C409 C 0.23326 0.87808 0.42722 0.0
C410 C 0.28232 0.886 0.41756 0.0
N411 N 0.26608 0.96378 0.44177 0.0
C412 C 0.31428 0.97171 0.43235 0.0
Co413 Co 0.86634 0.71355 0.69115 0.0
Co414 Co 0.99537 0.74806 0.71153 0.0
O415 O 0.9375 0.76389 0.69532 0.0
C416 C 0.92816 0.72678 0.66164 0.0
O417 O 0.98038 0.72013 0.66855 0.0
C418 C 0.95991 0.8767 0.71538 0.0
O419 O 0.90309 0.86113 0.71324 0.0
O420 O 0.92802 0.74111 0.72635 0.0
O421 O 0.85108 0.70019 0.7132 0.0
H422 H 0.06646 0.65324 0.7598 0.0
H423 H 0.87291 0.83466 0.67672 0.0
O424 O 0.87862 0.72547 0.669 0.0
H425 H 0.69037 0.84141 0.70868 0.0
H426 H 0.6712 0.66518 0.66418 0.0
H427 H 0.82388 0.59028 0.70009 0.0
H428 H 0.75225 0.74836 0.70715 0.0
H429 H 0.76024 0.72756 0.67063 0.0
O430 O 0.00191 0.83719 0.71531 0.0
H431 H 1.00054 0.66397 0.73761 0.0
H432 H 0.11144 0.8062 0.72096 0.0
H433 H 0.73517 0.52679 0.69422 0.0
H434 H 0.8119 0.92839 0.67777 0.0
H435 H 0.65783 0.56419 0.67612 0.0
H436 H 0.72 0.93226 0.69389 0.0
O437 O 0.9184 0.63938 0.69068 0.0
H438 H 0.11053 0.84314 0.66885 0.0
H439 H 0.10333 0.6716 0.70439 0.0
H440 H 0.18571 0.67663 0.68569 0.0
H441 H 0.18976 0.76296 0.66778 0.0
H442 H 0.02857 0.83576 0.68758 0.0
H443 H 0.1785 0.7974 0.74303 0.0
H444 H 0.1553 0.72153 0.76283 0.0
O445 O 0.99118 0.6588 0.70785 0.0
C446 C 0.87596 0.71575 0.72561 0.0
C447 C 0.07697 0.68659 0.75126 0.0
C448 C 0.1398 0.76753 0.74186 0.0
N449 N 0.05255 0.7348 0.72783 0.0
C450 C 0.04016 0.6923 0.73857 0.0
C451 C 0.10185 0.77201 0.72933 0.0
C452 C 0.12677 0.72494 0.75296 0.0
C453 C 0.83269 0.83577 0.68365 0.0
N454 N 0.81631 0.78609 0.69188 0.0
C455 C 0.79844 0.88907 0.68424 0.0
C456 C 0.74696 0.89125 0.69332 0.0
C457 C 0.73037 0.84032 0.70163 0.0
C458 C 0.76579 0.78783 0.70078 0.0
C459 C 0.70404 0.64876 0.67227 0.0
C460 C 0.78969 0.60775 0.69263 0.0
C461 C 0.75447 0.68404 0.67604 0.0
N462 N 0.79593 0.66394 0.68636 0.0
C463 C 0.73985 0.57119 0.68915 0.0
C464 C 0.6966 0.59209 0.67896 0.0
C465 C 0.96334 0.62317 0.69887 0.0
C466 C 0.10941 0.80541 0.67663 0.0
C467 C 0.10457 0.70915 0.69658 0.0
C468 C 0.15147 0.71186 0.68605 0.0
C469 C 0.15376 0.76034 0.67601 0.0
N470 N 0.06118 0.75351 0.6971 0.0
C471 C 0.06324 0.8012 0.68732 0.0
Co472 Co 0.77928 0.64757 0.81731 0.0
Co473 Co 0.75077 0.51878 0.79651 0.0
O474 O 0.73249 0.5739 0.8131 0.0
C475 C 0.76716 0.58412 0.84678 0.0
O476 O 0.77351 0.53177 0.83996 0.0
C477 C 0.6209 0.54765 0.79209 0.0
O478 O 0.63448 0.60549 0.79306 0.0
O479 O 0.75243 0.58772 0.78215 0.0
O480 O 0.79019 0.66514 0.79522 0.0
H481 H 0.85318 0.45763 0.74846 0.0
H482 H 0.65962 0.63024 0.83165 0.0
O483 O 0.76972 0.63367 0.83946 0.0
H484 H 0.63926 0.81954 0.80265 0.0
H485 H 0.82574 0.84063 0.84529 0.0
H486 H 0.89438 0.69941 0.80585 0.0
H487 H 0.73614 0.7641 0.80323 0.0
H488 H 0.76548 0.74978 0.83903 0.0
O489 O 0.66188 0.50725 0.79303 0.0
H490 H 0.83651 0.52099 0.77087 0.0
H491 H 0.69836 0.40141 0.78594 0.0
H492 H 0.95598 0.78979 0.81172 0.0
H493 H 0.56182 0.68442 0.83158 0.0
H494 H 0.92162 0.86126 0.83154 0.0
H495 H 0.55099 0.77978 0.81693 0.0
O496 O 0.85636 0.59976 0.81739 0.0
H497 H 0.66537 0.39272 0.83856 0.0
H498 H 0.83428 0.41506 0.80267 0.0
H499 H 0.83537 0.33025 0.82073 0.0
H500 H 0.75039 0.31856 0.83882 0.0
H501 H 0.66664 0.47726 0.82045 0.0
H502 H 0.71311 0.33689 0.76361 0.0
H503 H 0.79018 0.36553 0.74454 0.0
O504 O 0.83977 0.52791 0.79989 0.0
C505 C 0.77386 0.64144 0.78279 0.0
C506 C 0.81934 0.44474 0.75667 0.0
C507 C 0.74066 0.37704 0.76516 0.0
N508 N 0.76706 0.46462 0.77981 0.0
C509 C 0.81009 0.48019 0.76946 0.0
C510 C 0.73266 0.41365 0.77781 0.0
C511 C 0.78397 0.3931 0.75448 0.0
C512 C 0.65545 0.67168 0.82528 0.0
N513 N 0.70367 0.69335 0.81727 0.0
C514 C 0.59985 0.7022 0.82527 0.0
C515 C 0.59379 0.75561 0.81704 0.0
C516 C 0.64324 0.77785 0.809 0.0
C517 C 0.69808 0.74596 0.80926 0.0
C518 C 0.84101 0.81003 0.83657 0.0
C519 C 0.87901 0.73044 0.81445 0.0
C520 C 0.80704 0.75855 0.83296 0.0
N521 N 0.82585 0.71991 0.8219 0.0
C522 C 0.91413 0.78149 0.81773 0.0
C523 C 0.89483 0.82155 0.82886 0.0
C524 C 0.87429 0.5563 0.809 0.0
C525 C 0.70257 0.39718 0.8307 0.0
C526 C 0.7973 0.41053 0.81056 0.0
C527 C 0.79806 0.36226 0.82073 0.0
C528 C 0.75034 0.35568 0.83086 0.0
N529 N 0.75032 0.45114 0.81049 0.0
C530 C 0.70333 0.44484 0.82036 0.0
Co531 Co 0.35611 0.28039 0.06772 0.0
Co532 Co 0.4857 0.247 0.04758 0.0
O533 O 0.42702 0.23 0.06343 0.0
C534 C 0.41727 0.26355 0.09719 0.0
O535 O 0.4696 0.27158 0.09048 0.0
C536 C 0.45189 0.11791 0.04262 0.0
O537 O 0.39448 0.13188 0.04449 0.0
O538 O 0.41896 0.25543 0.03253 0.0
O539 O 0.34161 0.29582 0.04563 0.0
H540 H 0.55718 0.33927 0.99917 0.0
H541 H 0.36241 0.15752 0.08121 0.0
O542 O 0.36776 0.26618 0.08982 0.0
H543 H 0.18045 0.15505 0.04894 0.0
H544 H 0.15917 0.3257 0.09415 0.0
H545 H 0.31574 0.40631 0.0602 0.0
H546 H 0.2423 0.24777 0.05127 0.0
H547 H 0.24833 0.26384 0.0875 0.0
O548 O 0.49289 0.15822 0.0434 0.0
H549 H 0.49312 0.33273 0.02178 0.0
H550 H 0.60196 0.18893 0.03866 0.0
H551 H 0.22699 0.4693 0.06627 0.0
H552 H 0.30144 0.06408 0.07936 0.0
H553 H 0.14762 0.42905 0.08338 0.0
H554 H 0.2098 0.06237 0.06308 0.0
O555 O 0.40848 0.35431 0.06881 0.0
H556 H 0.59814 0.1484 0.09029 0.0
H557 H 0.59312 0.32275 0.05557 0.0
H558 H 0.67429 0.31614 0.0746 0.0
H559 H 0.67724 0.2284 0.09211 0.0
H560 H 0.51739 0.15735 0.07124 0.0
H561 H 0.66728 0.19397 0.01629 0.0
H562 H 0.64335 0.26721 0.99604 0.0
O563 O 0.48122 0.33601 0.05159 0.0
C564 C 0.36697 0.28124 0.03318 0.0
C565 C 0.56778 0.30667 0.00789 0.0
C566 C 0.62955 0.22509 0.01748 0.0
N567 N 0.54389 0.26092 0.03161 0.0
C568 C 0.53195 0.30322 0.02079 0.0
C569 C 0.59259 0.2228 0.03018 0.0
C570 C 0.61628 0.26656 0.00616 0.0
C571 C 0.32229 0.15736 0.07424 0.0
N572 N 0.30598 0.20811 0.06638 0.0
C573 C 0.28806 0.10421 0.07318 0.0
C574 C 0.23674 0.10325 0.06401 0.0
C575 C 0.2203 0.15521 0.05606 0.0
C576 C 0.25569 0.20751 0.05737 0.0
C577 C 0.1928 0.34333 0.08645 0.0
C578 C 0.2806 0.38747 0.06714 0.0
C579 C 0.24327 0.30832 0.08254 0.0
N580 N 0.28571 0.32989 0.07268 0.0
C581 C 0.23076 0.42382 0.07078 0.0
C582 C 0.1864 0.40133 0.08042 0.0
C583 C 0.45322 0.37111 0.06067 0.0
C584 C 0.5975 0.18674 0.08269 0.0
C585 C 0.5939 0.28459 0.0632 0.0
C586 C 0.6401 0.28098 0.07392 0.0
C587 C 0.64178 0.23171 0.08372 0.0
N588 N 0.55058 0.24034 0.06227 0.0
C589 C 0.55204 0.19184 0.07182 0.0
Co590 Co 0.71247 0.84798 0.31708 0.0
Co591 Co 0.75441 0.97812 0.29869 0.0
O592 O 0.76566 0.91796 0.31446 0.0
C593 C 0.72203 0.9024 0.34745 0.0
O594 O 0.71012 0.95524 0.34132 0.0
C595 C 0.88529 0.94603 0.29385 0.0
O596 O 0.87047 0.88915 0.29149 0.0
O597 O 0.75217 0.91263 0.28309 0.0
O598 O 0.70039 0.83902 0.29484 0.0
H599 H 0.68668 0.05159 0.24796 0.0
H600 H 0.83493 0.84977 0.33089 0.0
O601 O 0.7239 0.85461 0.33944 0.0
H602 H 0.83253 0.66878 0.29836 0.0
H603 H 0.64606 0.65513 0.34257 0.0
H604 H 0.60113 0.8004 0.30194 0.0
H605 H 0.74188 0.7339 0.30052 0.0
H606 H 0.71163 0.74409 0.33854 0.0
O607 O 0.84501 0.98564 0.29682 0.0
H608 H 0.68416 0.9852 0.27013 0.0
H609 H 0.81294 0.09698 0.29226 0.0
H610 H 0.53541 0.71122 0.30536 0.0
H611 H 0.92657 0.78584 0.3291 0.0
H612 H 0.55732 0.63801 0.32588 0.0
H613 H 0.92576 0.6946 0.31272 0.0
O614 O 0.64017 0.90321 0.31801 0.0
H615 H 0.83487 0.08635 0.34426 0.0
H616 H 0.67564 0.08504 0.3053 0.0
H617 H 0.67396 0.16401 0.32489 0.0
H618 H 0.75407 0.16509 0.34455 0.0
H619 H 0.83414 0.00787 0.32455 0.0
H620 H 0.81647 0.16513 0.27037 0.0
H621 H 0.75472 0.14142 0.2478 0.0
O622 O 0.66307 0.97373 0.30084 0.0
C623 C 0.72185 0.86327 0.28299 0.0
C624 C 0.71373 0.06251 0.25775 0.0
C625 C 0.78662 0.12614 0.27032 0.0
N626 N 0.74692 0.03778 0.28271 0.0
C627 C 0.71185 0.02536 0.27044 0.0
C628 C 0.78382 0.0877 0.28276 0.0
C629 C 0.75194 0.11283 0.25766 0.0
C630 C 0.83407 0.80991 0.32383 0.0
N631 N 0.78298 0.79541 0.3159 0.0
C632 C 0.88616 0.77397 0.32283 0.0
C633 C 0.88569 0.72283 0.31363 0.0
C634 C 0.8334 0.7083 0.30557 0.0
C635 C 0.78219 0.74536 0.30684 0.0
C636 C 0.63583 0.68689 0.33364 0.0
C637 C 0.61161 0.76853 0.31079 0.0
C638 C 0.67252 0.73774 0.33138 0.0
N639 N 0.65998 0.77811 0.32013 0.0
C640 C 0.57389 0.71821 0.31273 0.0
C641 C 0.58614 0.67722 0.32425 0.0
C642 C 0.62445 0.94717 0.30943 0.0
C643 C 0.79975 0.08645 0.33575 0.0
C644 C 0.71038 0.08487 0.31388 0.0
C645 C 0.70936 0.1299 0.32491 0.0
C646 C 0.75436 0.13053 0.33592 0.0
N647 N 0.75495 0.04162 0.31382 0.0
C648 C 0.79931 0.04218 0.32453 0.0
Co649 Co 0.13984 0.22377 0.56766 0.0
Co650 Co 0.9983 0.23893 0.55079 0.0
O651 O 0.06241 0.26509 0.56444 0.0
C652 C 0.08062 0.22892 0.59738 0.0
O653 O 0.03116 0.21109 0.59056 0.0
C654 C 0.02186 0.36761 0.54167 0.0
O655 O 0.07996 0.35489 0.54079 0.0
O656 O 0.05861 0.22895 0.53402 0.0
O657 O 0.1488 0.21098 0.54541 0.0
H658 H 0.89115 0.09912 0.51464 0.0
H659 H 0.12144 0.34587 0.58095 0.0
O660 O 0.12967 0.23651 0.59 0.0
H661 H 0.29701 0.36726 0.54719 0.0
H662 H 0.33624 0.19029 0.5955 0.0
H663 H 0.2139 0.12818 0.5519 0.0
H664 H 0.2461 0.26846 0.55021 0.0
H665 H 0.23835 0.23952 0.59032 0.0
O666 O 0.98364 0.3266 0.5452 0.0
H667 H 0.9763 0.13351 0.53028 0.0
H668 H 0.87835 0.29172 0.54255 0.0
H669 H 0.3112 0.07775 0.5567 0.0
H670 H 0.17091 0.44564 0.57841 0.0
H671 H 0.37338 0.10848 0.57868 0.0
H672 H 0.25942 0.45684 0.56135 0.0
O673 O 0.09908 0.14225 0.56943 0.0
H674 H 0.90111 0.34343 0.5949 0.0
H675 H 0.89908 0.16099 0.56288 0.0
H676 H 0.82665 0.16905 0.58386 0.0
H677 H 0.82733 0.26079 0.60006 0.0
H678 H 0.97285 0.33305 0.57387 0.0
H679 H 0.79214 0.25932 0.5269 0.0
H680 H 0.79732 0.16138 0.51323 0.0
O681 O 0.01119 0.15162 0.55658 0.0
C682 C 0.11542 0.21571 0.5337 0.0
C683 C 0.88823 0.14175 0.52062 0.0
C684 C 0.83272 0.23169 0.52748 0.0
N685 N 0.93314 0.21489 0.53725 0.0
C686 C 0.93671 0.16167 0.52945 0.0
C687 C 0.88209 0.2501 0.53621 0.0
C688 C 0.83572 0.17683 0.51976 0.0
C689 C 0.15997 0.35037 0.57364 0.0
N690 N 0.18056 0.30146 0.56576 0.0
C691 C 0.18783 0.40698 0.57219 0.0
C692 C 0.23741 0.41324 0.56261 0.0
C693 C 0.25849 0.36302 0.55466 0.0
C694 C 0.22938 0.30717 0.5564 0.0
C695 C 0.30903 0.17563 0.58605 0.0
C696 C 0.23911 0.14076 0.56174 0.0
C697 C 0.25293 0.20285 0.58314 0.0
N698 N 0.21799 0.18459 0.57126 0.0
C699 C 0.29497 0.11249 0.56429 0.0
C700 C 0.32992 0.12986 0.57659 0.0
C701 C 0.04986 0.12032 0.56401 0.0
C702 C 0.90013 0.30333 0.58789 0.0
C703 C 0.89962 0.20116 0.56984 0.0
C704 C 0.85844 0.20546 0.58171 0.0
C705 C 0.85884 0.25692 0.5908 0.0
N706 N 0.94012 0.24682 0.56708 0.0
C707 C 0.94054 0.29745 0.57591 0.0
Co708 Co 0.78938 0.86075 0.44309 0.0
Co709 Co 0.75505 0.00595 0.4557 0.0
O710 O 0.73888 0.93359 0.4438 0.0
C711 C 0.7762 0.90348 0.41143 0.0
O712 O 0.77767 0.95851 0.41695 0.0
C713 C 0.62953 0.97733 0.4671 0.0
O714 O 0.64862 0.92605 0.47292 0.0
O715 O 0.76771 0.95483 0.47429 0.0
O716 O 0.79728 0.86275 0.46573 0.0
H717 H 0.87824 0.15676 0.48591 0.0
H718 H 0.66522 0.86884 0.43015 0.0
O719 O 0.78205 0.85825 0.42032 0.0
H720 H 0.66197 0.6889 0.46304 0.0
H721 H 0.85119 0.65467 0.42392 0.0
H722 H 0.8999 0.82004 0.45921 0.0
H723 H 0.75534 0.74947 0.46027 0.0
H724 H 0.78687 0.74623 0.42514 0.0
O725 O 0.66548 0.01208 0.45992 0.0
H726 H 0.85992 0.06108 0.47288 0.0
H727 H 0.68102 0.11708 0.46187 0.0
H728 H 0.96493 0.72891 0.4585 0.0
H729 H 0.57068 0.81012 0.43275 0.0
H730 H 0.94073 0.64545 0.44075 0.0
H731 H 0.56864 0.71922 0.44925 0.0
O732 O 0.86538 0.90881 0.44117 0.0
H733 H 0.64534 0.07571 0.40914 0.0
H734 H 0.82691 0.10357 0.44082 0.0
H735 H 0.81443 0.16564 0.41802 0.0
H736 H 0.72304 0.15208 0.40201 0.0
H737 H 0.66049 0.0137 0.43184 0.0
H738 H 0.69683 0.21278 0.47519 0.0
H739 H 0.79621 0.23389 0.48727 0.0
O740 O 0.84435 0.99977 0.45128 0.0
C741 C 0.78725 0.90044 0.47647 0.0
C742 C 0.83425 0.14771 0.48096 0.0
C743 C 0.73257 0.17905 0.47496 0.0
N744 N 0.76833 0.0805 0.46724 0.0
C745 C 0.82336 0.09274 0.47365 0.0
C746 C 0.72355 0.12373 0.46765 0.0
C747 C 0.78836 0.19101 0.48167 0.0
C748 C 0.66473 0.82955 0.43741 0.0
N749 N 0.71595 0.81255 0.445 0.0
C750 C 0.61104 0.79635 0.4388 0.0
C751 C 0.60994 0.74536 0.44805 0.0
C752 C 0.66229 0.72827 0.45577 0.0
C753 C 0.71512 0.76265 0.45412 0.0
C754 C 0.86214 0.6907 0.43171 0.0
C755 C 0.88876 0.78368 0.45155 0.0
C756 C 0.82604 0.74277 0.43241 0.0
N757 N 0.83934 0.78822 0.44233 0.0
C758 C 0.9259 0.7323 0.45115 0.0
C759 C 0.91235 0.68553 0.44117 0.0
C760 C 0.88112 0.96167 0.44537 0.0
C761 C 0.68523 0.08229 0.41606 0.0
C762 C 0.78709 0.09708 0.43391 0.0
C763 C 0.78022 0.13256 0.42101 0.0
C764 C 0.7289 0.125 0.41205 0.0
N765 N 0.74413 0.05513 0.43777 0.0
C766 C 0.69365 0.04765 0.42904 0.0
Co767 Co 0.14371 0.2827 0.69055 0.0
Co768 Co 0.01812 0.25315 0.71223 0.0
O769 O 0.0722 0.2337 0.69546 0.0
C770 C 0.07857 0.26611 0.66165 0.0
O771 O 0.02745 0.27399 0.66891 0.0
C772 C 0.04684 0.12312 0.71603 0.0
O773 O 0.10432 0.13631 0.71397 0.0
O774 O 0.08837 0.25502 0.7262 0.0
O775 O 0.16132 0.29832 0.71252 0.0
H776 H 0.96025 0.36014 0.75991 0.0
H777 H 0.13435 0.15958 0.67754 0.0
O778 O 0.12925 0.26817 0.66852 0.0
H779 H 0.32233 0.15662 0.70753 0.0
H780 H 0.3343 0.33178 0.66181 0.0
H781 H 0.18903 0.40348 0.7 0.0
H782 H 0.26079 0.24966 0.70567 0.0
H783 H 0.24673 0.26858 0.66909 0.0
O784 O 0.00663 0.16447 0.716 0.0
H785 H 0.0221 0.34132 0.73733 0.0
H786 H 0.90186 0.2012 0.7237 0.0
H787 H 0.27583 0.46823 0.69302 0.0
H788 H 0.19467 0.06551 0.6789 0.0
H789 H 0.34941 0.4323 0.67385 0.0
H790 H 0.28944 0.06357 0.69406 0.0
O791 O 0.09229 0.35688 0.68955 0.0
H792 H 0.88817 0.16644 0.67104 0.0
H793 H 0.91403 0.33665 0.70639 0.0
H794 H 0.82778 0.33732 0.68874 0.0
H795 H 0.81429 0.25169 0.67091 0.0
H796 H 0.97431 0.16821 0.68871 0.0
H797 H 0.83896 0.21806 0.74623 0.0
H798 H 0.86877 0.29721 0.76466 0.0
O799 O 0.02708 0.34205 0.70861 0.0
C800 C 0.14069 0.27952 0.7251 0.0
C801 C 0.94696 0.32532 0.75199 0.0
C802 C 0.87894 0.24552 0.74432 0.0
N803 N 0.96539 0.27056 0.72914 0.0
C804 C 0.98156 0.31477 0.73913 0.0
C805 C 0.91465 0.23627 0.73157 0.0
C806 C 0.89562 0.29002 0.75465 0.0
C807 C 0.17557 0.15917 0.68405 0.0
N808 N 0.19362 0.21003 0.69157 0.0
C809 C 0.20955 0.10573 0.68483 0.0
C810 C 0.26263 0.10465 0.69335 0.0
C811 C 0.28105 0.15681 0.70092 0.0
C812 C 0.24578 0.20937 0.6999 0.0
C813 C 0.30281 0.34774 0.67026 0.0
C814 C 0.22093 0.38747 0.69167 0.0
C815 C 0.25324 0.31208 0.67446 0.0
N816 N 0.21355 0.33175 0.6852 0.0
C817 C 0.26998 0.42435 0.68776 0.0
C818 C 0.31122 0.40418 0.677 0.0
C819 C 0.05147 0.37544 0.6986 0.0
C820 C 0.89343 0.20394 0.67877 0.0
C821 C 0.90876 0.29938 0.69861 0.0
C822 C 0.85966 0.29992 0.68867 0.0
C823 C 0.85208 0.25183 0.67869 0.0
N824 N 0.94926 0.25232 0.6986 0.0
C825 C 0.94198 0.20497 0.68887 0.0
Co826 Co 0.71011 0.64372 0.94178 0.0
Co827 Co 0.76562 0.5095 0.95683 0.0
O828 O 0.77034 0.57897 0.94333 0.0
C829 C 0.72464 0.59517 0.91092 0.0
O830 O 0.72354 0.54117 0.91707 0.0
C831 C 0.88779 0.55758 0.96583 0.0
O832 O 0.86376 0.60857 0.97059 0.0
O833 O 0.74969 0.56462 0.97434 0.0
O834 O 0.70276 0.64684 0.96442 0.0
H835 H 0.67359 0.36989 0.99546 0.0
H836 H 0.83653 0.64924 0.93012 0.0
O837 O 0.71794 0.64216 0.91912 0.0
H838 H 0.80777 0.83993 0.9581 0.0
H839 H 0.61663 0.83185 0.91927 0.0
H840 H 0.59471 0.67125 0.95744 0.0
H841 H 0.72512 0.76507 0.95643 0.0
H842 H 0.69472 0.75228 0.92195 0.0
O843 O 0.85537 0.51619 0.95996 0.0
H844 H 0.67029 0.44609 0.97584 0.0
H845 H 0.85498 0.41192 0.96508 0.0
H846 H 0.51595 0.75035 0.95527 0.0
H847 H 0.92071 0.72228 0.93175 0.0
H848 H 0.52664 0.83141 0.93606 0.0
H849 H 0.90661 0.81873 0.94575 0.0
O850 O 0.64251 0.58354 0.94063 0.0
H851 H 0.87312 0.44092 0.91001 0.0
H852 H 0.70648 0.39718 0.94533 0.0
H853 H 0.72273 0.32992 0.9236 0.0
H854 H 0.80664 0.35152 0.90577 0.0
H855 H 0.85456 0.50752 0.93175 0.0
H856 H 0.85827 0.33036 0.98375 0.0
H857 H 0.76755 0.30926 0.99948 0.0
O858 O 0.67591 0.50233 0.95357 0.0
C859 C 0.72176 0.61556 0.97566 0.0
C860 C 0.71376 0.37866 0.98889 0.0
C861 C 0.81738 0.35711 0.98241 0.0
N862 N 0.76417 0.43912 0.97025 0.0
C863 C 0.71285 0.42411 0.97802 0.0
C864 C 0.81532 0.40427 0.97192 0.0
C865 C 0.76649 0.34507 0.99116 0.0
C866 C 0.82983 0.69096 0.93625 0.0
N867 N 0.77537 0.70305 0.94295 0.0
C868 C 0.87777 0.73226 0.93711 0.0
C869 C 0.86983 0.78634 0.94496 0.0
C870 C 0.81436 0.79832 0.95185 0.0
C871 C 0.7675 0.75586 0.95076 0.0
C872 C 0.61152 0.79683 0.9277 0.0
C873 C 0.59998 0.70665 0.94915 0.0
C874 C 0.65546 0.75149 0.92923 0.0
N875 N 0.64957 0.70743 0.93994 0.0
C876 C 0.55509 0.75119 0.94793 0.0
C877 C 0.56107 0.79659 0.93713 0.0
C878 C 0.63448 0.53174 0.9467 0.0
C879 C 0.83657 0.43085 0.91774 0.0
C880 C 0.74307 0.40698 0.93763 0.0
C881 C 0.75209 0.36865 0.92534 0.0
C882 C 0.79919 0.38078 0.91535 0.0
N883 N 0.77985 0.45608 0.93989 0.0
C884 C 0.82616 0.46819 0.93014 0.0
Co885 Co 0.35276 0.21452 0.19222 0.0
Co886 Co 0.49261 0.23738 0.20937 0.0
O887 O 0.42941 0.25743 0.19496 0.0
C888 C 0.40858 0.2248 0.1617 0.0
O889 O 0.46148 0.21568 0.16807 0.0
C890 C 0.46107 0.36438 0.21815 0.0
O891 O 0.40466 0.3473 0.22028 0.0
O892 O 0.43169 0.22794 0.22587 0.0
O893 O 0.34334 0.2035 0.21456 0.0
H894 H 0.59148 0.12292 0.25189 0.0
H895 H 0.37755 0.33945 0.18115 0.0
O896 O 0.36053 0.22466 0.16969 0.0
H897 H 0.18744 0.35507 0.21005 0.0
H898 H 0.15515 0.17532 0.16536 0.0
H899 H 0.2845 0.11462 0.20784 0.0
H900 H 0.23936 0.25665 0.2073 0.0
H901 H 0.25144 0.22805 0.17019 0.0
O902 O 0.50112 0.3266 0.21375 0.0
H903 H 0.52403 0.13375 0.23012 0.0
H904 H 0.60475 0.3024 0.21909 0.0
H905 H 0.18885 0.06067 0.20341 0.0
H906 H 0.32743 0.43883 0.18372 0.0
H907 H 0.12314 0.09075 0.18199 0.0
H908 H 0.23146 0.44714 0.19821 0.0
O909 O 0.39695 0.13489 0.1911 0.0
H910 H 0.59318 0.33467 0.16466 0.0
H911 H 0.59735 0.16189 0.19982 0.0
H912 H 0.67421 0.16822 0.17978 0.0
H913 H 0.6726 0.25525 0.16204 0.0
H914 H 0.51666 0.32542 0.18469 0.0
H915 H 0.67468 0.29274 0.24046 0.0
H916 H 0.66584 0.20458 0.25762 0.0
O917 O 0.48348 0.14873 0.20457 0.0
C918 C 0.37605 0.21128 0.22627 0.0
C919 C 0.59439 0.16273 0.2448 0.0
C920 C 0.64101 0.25797 0.2384 0.0
N921 N 0.55666 0.22072 0.22394 0.0
C922 C 0.55532 0.16949 0.23256 0.0
C923 C 0.60082 0.26332 0.22634 0.0
C924 C 0.63648 0.20813 0.24793 0.0
C925 C 0.33552 0.34244 0.18735 0.0
N926 N 0.31066 0.29182 0.19371 0.0
C927 C 0.30743 0.39896 0.18881 0.0
C928 C 0.25366 0.40361 0.19695 0.0
C929 C 0.22887 0.35196 0.20357 0.0
C930 C 0.25831 0.29621 0.20188 0.0
C931 C 0.18386 0.16105 0.17458 0.0
C932 C 0.25762 0.12707 0.19828 0.0
C933 C 0.23904 0.1903 0.17729 0.0
N934 N 0.27578 0.17269 0.18892 0.0
C935 C 0.20276 0.09675 0.19592 0.0
C936 C 0.16585 0.11373 0.18393 0.0
C937 C 0.44635 0.11554 0.19711 0.0
C938 C 0.59472 0.29678 0.17239 0.0
C939 C 0.59641 0.2 0.19218 0.0
C940 C 0.64007 0.20331 0.18085 0.0
C941 C 0.63915 0.25214 0.1709 0.0
N942 N 0.55299 0.24401 0.19359 0.0
C943 C 0.55181 0.29184 0.18386 0.0
C944 C 0.98125 0.97445 0.28015 0.0
C945 C 0.94989 0.96521 0.29388 0.0
C946 C 0.03346 0.01296 0.3077 0.0
C947 C 0.067 0.01799 0.29417 0.0
N948 N 0.07709 0.99636 0.26777 0.0
N949 N 0.95178 0.96218 0.32089 0.0
C950 C 0.04215 0.99651 0.28045 0.0
C951 C 0.97763 0.98069 0.30772 0.0
N952 N 0.95215 0.96403 0.26684 0.0
N953 N 0.05442 0.03998 0.3205 0.0
H954 H 0.91241 0.9359 0.32121 0.0
H955 H 0.97255 0.96717 0.33133 0.0
H956 H 0.09499 0.06423 0.32087 0.0
H957 H 0.02909 0.04309 0.33034 0.0
H958 H 0.96991 0.97629 0.25644 0.0
H959 H 0.90821 0.94651 0.26623 0.0
H960 H 0.06423 0.97514 0.25782 0.0
H961 H 0.12091 0.01433 0.26748 0.0
C962 C 0.96534 0.52071 0.52666 0.0
C963 C 0.95405 0.55169 0.54036 0.0
C964 C 0.99473 0.4652 0.55445 0.0
C965 C 0.00107 0.43185 0.54093 0.0
N966 N 0.98585 0.4245 0.51422 0.0
N967 N 0.94428 0.54758 0.56728 0.0
C968 C 0.98434 0.45863 0.52702 0.0
C969 C 0.96448 0.52204 0.55424 0.0
N970 N 0.95914 0.55102 0.51336 0.0
N971 N 0.02007 0.44389 0.56742 0.0
H972 H 0.92122 0.58882 0.5675 0.0
H973 H 0.94516 0.52522 0.57759 0.0
H974 H 0.04463 0.40355 0.56784 0.0
H975 H 0.02225 0.46911 0.5773 0.0
H976 H 0.97294 0.53341 0.50307 0.0
H977 H 0.94318 0.59557 0.51274 0.0
H978 H 0.96841 0.43915 0.50397 0.0
H979 H 0.00119 0.37967 0.51409 0.0
C980 C 0.52666 0.51846 0.80581 0.0
C981 C 0.5569 0.52781 0.79195 0.0
C982 C 0.46671 0.49351 0.77823 0.0
C983 C 0.43844 0.47957 0.79211 0.0
N984 N 0.44353 0.47063 0.81908 0.0
N985 N 0.56024 0.51694 0.76504 0.0
C986 C 0.46911 0.48954 0.8059 0.0
C987 C 0.52821 0.51325 0.77815 0.0
N988 N 0.55243 0.53854 0.81886 0.0
N989 N 0.43437 0.48894 0.76516 0.0
H990 H 0.60484 0.53272 0.76456 0.0
H991 H 0.54424 0.50063 0.75481 0.0
H992 H 0.38992 0.4727 0.76476 0.0
H993 H 0.45002 0.50485 0.75486 0.0
H994 H 0.52997 0.53939 0.82914 0.0
H995 H 0.59498 0.55902 0.81923 0.0
H996 H 0.4664 0.47022 0.82931 0.0
H997 H 0.40066 0.45089 0.81965 0.0
C998 C 0.48052 0.02102 0.05518 0.0
C999 C 0.47155 0.05392 0.04169 0.0
C1000 C 0.51244 0.96864 0.02712 0.0
C1001 C 0.52606 0.938 0.04072 0.0
N1002 N 0.53246 0.93862 0.06775 0.0
N1003 N 0.48478 0.06345 0.01495 0.0
C1004 C 0.51282 0.96531 0.05477 0.0
C1005 C 0.48919 0.02898 0.02767 0.0
N1006 N 0.45727 0.0426 0.06838 0.0
N1007 N 0.52072 0.9396 0.01371 0.0
H1008 H 0.46558 0.10677 0.01487 0.0
H1009 H 0.50315 0.05072 0.00465 0.0
H1010 H 0.53995 0.89641 0.01292 0.0
H1011 H 0.50542 0.95662 1.00348 0.0
H1012 H 0.45645 0.01767 0.07831 0.0
H1013 H 0.43397 0.08364 0.06915 0.0
H1014 H 0.53054 0.95946 0.07822 0.0
H1015 H 0.55529 0.8973 0.06788 0.0
C1016 C 0.04388 0.51268 0.9529 0.0
C1017 C 0.07309 0.49972 0.96674 0.0
C1018 C 0.98211 0.53207 0.98047 0.0
C1019 C 0.95403 0.54703 0.9666 0.0
N1020 N 0.9631 0.56675 0.94015 0.0
N1021 N 0.07548 0.50751 0.99372 0.0
C1022 C 0.98657 0.542 0.95297 0.0
C1023 C 0.04394 0.51289 0.98056 0.0
N1024 N 0.07 0.49533 0.93968 0.0
N1025 N 0.94893 0.53347 0.99343 0.0
H1026 H 0.12036 0.4924 0.99417 0.0
H1027 H 0.05885 0.52224 1.00403 0.0
H1028 H 0.90408 0.54864 0.9938 0.0
H1029 H 0.96453 0.51628 1.00362 0.0
H1030 H 0.04774 0.49714 0.92936 0.0
H1031 H 0.11236 0.47452 0.93916 0.0
H1032 H 0.98701 0.56971 0.93009 0.0
H1033 H 0.92187 0.59003 0.94001 0.0
C1034 C 0.50343 0.46126 0.20803 0.0
C1035 C 0.47878 0.4288 0.22028 0.0
C1036 C 0.49007 0.51945 0.23599 0.0
C1037 C 0.52332 0.54835 0.22426 0.0
N1038 N 0.5748 0.53821 0.20041 0.0
N1039 N 0.45796 0.42375 0.24684 0.0
C1040 C 0.53435 0.51641 0.2107 0.0
C1041 C 0.47501 0.45681 0.23458 0.0
N1042 N 0.49356 0.44176 0.19371 0.0
N1043 N 0.46906 0.55199 0.24797 0.0
H1044 H 0.44625 0.37796 0.24623 0.0
H1045 H 0.46054 0.44058 0.25776 0.0
H1046 H 0.47544 0.5985 0.24919 0.0
H1047 H 0.43953 0.53384 0.25592 0.0
H1048 H 0.50706 0.46636 0.18428 0.0
H1049 H 0.4642 0.40589 0.19139 0.0
H1050 H 0.58722 0.51389 0.19085 0.0
H1051 H 0.60092 0.57697 0.2023 0.0
C1052 C 0.47552 0.03052 0.48206 0.0
C1053 C 0.44536 0.04265 0.46828 0.0
C1054 C 0.53134 0.00068 0.45442 0.0
C1055 C 0.56448 0.99459 0.46795 0.0
N1056 N 0.5716 0.01143 0.49466 0.0
N1057 N 0.45219 0.05554 0.4415 0.0
C1058 C 0.53756 0.01159 0.48183 0.0
C1059 C 0.4756 0.03256 0.4545 0.0
N1060 N 0.44454 0.03538 0.49528 0.0
N1061 N 0.55169 0.97352 0.44161 0.0
H1062 H 0.41328 0.08248 0.44138 0.0
H1063 H 0.47507 0.05375 0.43126 0.0
H1064 H 0.5903 0.94609 0.44146 0.0
H1065 H 0.52651 0.97238 0.43169 0.0
H1066 H 0.46195 0.02076 0.50554 0.0
H1067 H 0.39969 0.05051 0.49584 0.0
H1068 H 0.55645 0.02944 0.50479 0.0
H1069 H 0.61676 0.99712 0.49491 0.0
C1070 C 0.01627 0.02962 0.70221 0.0
C1071 C 0.02654 0.05933 0.7161 0.0
C1072 C 0.99201 0.96904 0.72972 0.0
C1073 C 0.97755 0.94125 0.71581 0.0
N1074 N 0.96576 0.9481 0.68894 0.0
N1075 N 0.01731 0.06183 0.74305 0.0
C1076 C 0.98656 0.97253 0.70208 0.0
C1077 C 0.01232 0.03036 0.72988 0.0
N1078 N 0.03615 0.05539 0.68914 0.0
N1079 N 0.98742 0.93638 0.74273 0.0
H1080 H 0.03406 0.10606 0.74359 0.0
H1081 H 0.00142 0.04571 0.7533 0.0
H1082 H 0.9704 0.89222 0.74306 0.0
H1083 H 0.00369 0.95154 0.75305 0.0
H1084 H 0.03622 0.03305 0.67884 0.0
H1085 H 0.05734 0.09758 0.68876 0.0
H1086 H 0.96495 0.97153 0.67879 0.0
H1087 H 0.94442 0.90601 0.68839 0.0
C1088 C 0.54358 0.02461 0.30148 0.0
C1089 C 0.55974 0.9724 0.31017 0.0
C1090 C 0.46193 0.9837 0.3237 0.0
C1091 C 0.4488 0.0367 0.31538 0.0
N1092 N 0.48765 0.11854 0.30053 0.0
N1093 N 0.51899 0.89078 0.32555 0.0
C1094 C 0.49318 0.06068 0.30569 0.0
C1095 C 0.51512 0.949 0.3204 0.0
N1096 N 0.57064 0.03566 0.28799 0.0
N1097 N 0.42398 0.96766 0.33514 0.0
H1098 H 0.54916 0.85938 0.32125 0.0
H1099 H 0.48593 0.86992 0.3321 0.0
H1100 H 0.38568 0.99319 0.33782 0.0
H1101 H 0.43365 0.93382 0.34295 0.0
H1102 H 0.55784 0.07102 0.28088 0.0
H1103 H 0.59667 0.00322 0.28257 0.0
H1104 H 0.52173 0.14064 0.29452 0.0
H1105 H 0.452 0.14614 0.30386 0.0
C1106 C 0.9756 0.97041 0.57581 0.0
C1107 C 0.99004 0.93354 0.56302 0.0
C1108 C 0.06272 0.01234 0.55561 0.0
C1109 C 0.03673 0.05412 0.56575 0.0
N1110 N 0.96224 0.07279 0.58502 0.0
N1111 N 0.03552 0.93519 0.53809 0.0
C1112 C 0.99093 0.03325 0.57564 0.0
C1113 C 0.031 0.95835 0.55222 0.0
N1114 N 0.95088 0.94602 0.58851 0.0
N1115 N 0.11672 0.02436 0.54887 0.0
H1116 H 0.00311 0.90621 0.53367 0.0
H1117 H 0.064 0.95363 0.52993 0.0
H1118 H 0.14066 0.06379 0.55114 0.0
H1119 H 0.13928 0.99264 0.5422 0.0
H1120 H 0.94425 0.97113 0.59829 0.0
H1121 H 0.94524 0.8998 0.59022 0.0
H1122 H 0.92381 0.061 0.5912 0.0
H1123 H 0.97457 0.11817 0.58581 0.0
C1124 C 0.02384 0.49314 0.79552 0.0
C1125 C 0.05644 0.48455 0.8091 0.0
C1126 C 0.96765 0.52071 0.82314 0.0
C1127 C 0.93891 0.53698 0.80943 0.0
N1128 N 0.94926 0.55475 0.78279 0.0
N1129 N 0.0631 0.50395 0.83583 0.0
C1130 C 0.96998 0.52812 0.79566 0.0
C1131 C 0.02949 0.50219 0.82295 0.0
N1132 N 0.0425 0.46556 0.78258 0.0
N1133 N 0.93575 0.52025 0.83628 0.0
H1134 H 0.10895 0.49299 0.83619 0.0
H1135 H 0.04689 0.52242 0.84582 0.0
H1136 H 0.89013 0.53206 0.83697 0.0
H1137 H 0.95317 0.50245 0.84624 0.0
H1138 H 0.01733 0.46701 0.77267 0.0
H1139 H 0.07882 0.43515 0.7823 0.0
H1140 H 0.97319 0.55318 0.7727 0.0
H1141 H 0.91222 0.58434 0.78269 0.0
C1142 C 0.50027 0.52996 0.07368 0.0
C1143 C 0.5164 0.5569 0.05971 0.0
C1144 C 0.47762 0.46662 0.04677 0.0
C1145 C 0.47155 0.43605 0.06069 0.0
N1146 N 0.48729 0.43642 0.08755 0.0
N1147 N 0.53074 0.54311 0.0329 0.0
C1148 C 0.48562 0.46706 0.07423 0.0
C1149 C 0.5078 0.52314 0.04623 0.0
N1150 N 0.49554 0.56475 0.08631 0.0
N1151 N 0.45299 0.4427 0.03399 0.0
H1152 H 0.55509 0.58298 0.03183 0.0
H1153 H 0.53157 0.51667 0.02319 0.0
H1154 H 0.42931 0.40193 0.03382 0.0
H1155 H 0.4506 0.46635 0.02387 0.0
H1156 H 0.47858 0.54824 0.09644 0.0
H1157 H 0.50143 0.61159 0.08621 0.0
H1158 H 0.50332 0.45577 0.09747 0.0
H1159 H 0.47835 0.39018 0.08842 0.0
C1160 C 0.48481 0.47361 0.96167 0.0
C1161 C 0.45322 0.45769 0.94835 0.0
C1162 C 0.54642 0.4789 0.93414 0.0
C1163 C 0.57217 0.5064 0.94702 0.0
N1164 N 0.55702 0.54361 0.9722 0.0
N1165 N 0.45326 0.4566 0.92102 0.0
C1166 C 0.53885 0.50775 0.96057 0.0
C1167 C 0.48379 0.46297 0.93428 0.0
N1168 N 0.46479 0.45411 0.97534 0.0
N1169 N 0.58171 0.46682 0.92193 0.0
H1170 H 0.40691 0.44838 0.9203 0.0
H1171 H 0.47311 0.46596 0.91065 0.0
H1172 H 0.62809 0.47614 0.92176 0.0
H1173 H 0.56619 0.44198 0.91274 0.0
H1174 H 0.48879 0.46198 0.98525 0.0
H1175 H 0.42908 0.42329 0.97638 0.0
H1176 H 0.53131 0.54901 0.98194 0.0
H1177 H 0.59371 0.57322 0.97126 0.0
C1178 C 0.51944 0.96646 0.18486 0.0
C1179 C 0.50677 0.92882 0.1976 0.0
C1180 C 0.43717 0.00853 0.20638 0.0
C1181 C 0.46149 0.04997 0.1959 0.0
N1182 N 0.53171 0.06923 0.17573 0.0
N1183 N 0.46065 0.92528 0.22253 0.0
C1184 C 0.50483 0.02932 0.18537 0.0
C1185 C 0.46697 0.95249 0.20887 0.0
N1186 N 0.54104 0.94211 0.17183 0.0
N1187 N 0.38605 0.02265 0.21423 0.0
H1188 H 0.48634 0.88874 0.22597 0.0
H1189 H 0.4362 0.94466 0.23133 0.0
H1190 H 0.36451 0.06424 0.21308 0.0
H1191 H 0.36292 0.99126 0.22087 0.0
H1192 H 0.54692 0.96746 0.16205 0.0
H1193 H 0.54402 0.89565 0.17002 0.0
H1194 H 0.56831 0.05729 0.16892 0.0
H1195 H 0.52012 0.11506 0.17534 0.0
C1196 C 0.97135 0.005 0.45817 0.0
C1197 C 0.94691 0.97813 0.44516 0.0
C1198 C 0.04626 0.99254 0.43303 0.0
C1199 C 0.06419 0.03092 0.44507 0.0
N1200 N 0.03303 0.08648 0.4671 0.0
N1201 N 0.96277 0.9458 0.4195 0.0
C1202 C 0.02341 0.04127 0.457 0.0
C1203 C 0.98486 0.97141 0.43232 0.0
N1204 N 0.94812 0.99149 0.47193 0.0
N1205 N 0.08791 0.97499 0.42256 0.0
H1206 H 0.9198 0.92655 0.41882 0.0
H1207 H 0.98615 0.94639 0.40933 0.0
H1208 H 0.13278 0.98982 0.42282 0.0
H1209 H 0.07918 0.94231 0.41439 0.0
H1210 H 0.96774 0.00714 0.48188 0.0
H1211 H 0.91406 0.95903 0.4732 0.0
H1212 H 0.00122 0.09763 0.47534 0.0
H1213 H 0.0701 0.11545 0.46634 0.0
C1214 C 0.01036 0.46637 0.68459 0.0
C1215 C 0.0322 0.4398 0.69808 0.0
C1216 C 0.99795 0.52854 0.71205 0.0
C1217 C 0.98433 0.55901 0.69838 0.0
N1218 N 0.99127 0.55967 0.67122 0.0
N1219 N 0.06175 0.45369 0.72398 0.0
C1220 C 0.99437 0.5288 0.68449 0.0
C1221 C 0.03066 0.4734 0.71161 0.0
N1222 N 0.00208 0.43182 0.67204 0.0
N1223 N 0.97698 0.55028 0.72542 0.0
H1224 H 0.08944 0.41525 0.72383 0.0
H1225 H 0.06546 0.47932 0.73377 0.0
H1226 H 0.94849 0.58784 0.72613 0.0
H1227 H 0.98162 0.52665 0.7355 0.0
H1228 H 0.98048 0.44794 0.66241 0.0
H1229 H 0.01093 0.38552 0.6718 0.0
H1230 H 0.00418 0.54065 0.66099 0.0
H1231 H 0.98216 0.60585 0.67056 0.0
C1232 C 0.2077 0.08194 0.37058 0.0
C1233 C 0.26294 0.10511 0.36473 0.0
C1234 C 0.28932 0.14651 0.38945 0.0
C1235 C 0.23821 0.1165 0.39579 0.0
N1236 N 0.14542 0.06016 0.39241 0.0
N1237 N 0.35982 0.15327 0.36861 0.0
C1238 C 0.19646 0.08545 0.38631 0.0
C1239 C 0.30447 0.13612 0.37414 0.0
N1240 N 0.16501 0.05882 0.36098 0.0
N1241 N 0.32284 0.18599 0.39786 0.0
H1242 H 0.37268 0.14657 0.35746 0.0
H1243 H 0.39514 0.16923 0.3753 0.0
H1244 H 0.31274 0.19653 0.40892 0.0
H1245 H 0.3566 0.21375 0.39343 0.0
H1246 H 0.12128 0.04658 0.36416 0.0
H1247 H 0.17181 0.05527 0.34944 0.0
H1248 H 0.11752 0.0295 0.38681 0.0
H1249 H 0.13115 0.06954 0.40332 0.0
C1250 C 0.96 0.78795 0.6223 0.0
C1251 C 0.91893 0.75267 0.61347 0.0
C1252 C 0.88995 0.69603 0.6362 0.0
C1253 C 0.9261 0.73522 0.64509 0.0
N1254 N 0.98486 0.82709 0.647 0.0
N1255 N 0.8353 0.681 0.61305 0.0
C1256 C 0.95839 0.78345 0.63826 0.0
C1257 C 0.88075 0.70943 0.62074 0.0
N1258 N 1.00066 0.82611 0.61559 0.0
N1259 N 0.86667 0.64407 0.64233 0.0
H1260 H 0.82682 0.68784 0.60174 0.0
H1261 H 0.80208 0.65481 0.61827 0.0
H1262 H 0.8739 0.63139 0.65347 0.0
H1263 H 0.84572 0.61031 0.63599 0.0
H1264 H 0.03649 0.84634 0.62136 0.0
H1265 H 0.00161 0.83481 0.60413 0.0
H1266 H 0.00316 0.86703 0.64269 0.0
H1267 H 0.98312 0.8266 0.6587 0.0
C1268 C 0.19705 0.3988 0.87203 0.0
C1269 C 0.23666 0.43368 0.86295 0.0
C1270 C 0.29309 0.46482 0.88548 0.0
C1271 C 0.25696 0.42514 0.8944 0.0
N1272 N 0.18289 0.34386 0.89516 0.0
N1273 N 0.33019 0.4898 0.86059 0.0
C1274 C 0.21176 0.38868 0.88737 0.0
C1275 C 0.28676 0.46419 0.86954 0.0
N1276 N 0.14357 0.37766 0.86621 0.0
N1277 N 0.33381 0.50304 0.89216 0.0
H1278 H 0.32825 0.48891 0.84889 0.0
H1279 H 0.37109 0.50681 0.86468 0.0
H1280 H 0.34334 0.5023 0.90361 0.0
H1281 H 0.35556 0.53809 0.88645 0.0
H1282 H 0.10983 0.35764 0.87273 0.0
H1283 H 0.12978 0.386 0.85519 0.0
H1284 H 0.15467 0.31194 0.89009 0.0
H1285 H 0.1917 0.33419 0.90633 0.0
C1286 C 0.62127 0.79702 0.1206 0.0
C1287 C 0.57901 0.75739 0.11355 0.0
C1288 C 0.54452 0.72402 0.1384 0.0
C1289 C 0.58011 0.76997 0.14527 0.0
N1290 N 0.64287 0.85909 0.14235 0.0
N1291 N 0.49351 0.68932 0.11594 0.0
C1292 C 0.616 0.80894 0.13623 0.0
C1293 C 0.53817 0.72313 0.12251 0.0
N1294 N 0.66706 0.82288 0.11253 0.0
N1295 N 0.51998 0.67879 0.14695 0.0
H1296 H 0.48824 0.68581 0.10435 0.0
H1297 H 0.45876 0.66876 0.12202 0.0
H1298 H 0.52784 0.67522 0.15845 0.0
H1299 H 0.49826 0.64103 0.1424 0.0
H1300 H 0.70252 0.84704 0.11745 0.0
H1301 H 0.67331 0.81486 0.10116 0.0
H1302 H 0.66429 0.89229 0.13593 0.0
H1303 H 0.63825 0.87115 0.15361 0.0
C1304 C 0.79759 0.61712 0.87256 0.0
C1305 C 0.75552 0.58672 0.86316 0.0
C1306 C 0.68925 0.5681 0.88487 0.0
C1307 C 0.73084 0.59991 0.89423 0.0
N1308 N 0.81546 0.66932 0.89598 0.0
N1309 N 0.65688 0.54151 0.85961 0.0
C1310 C 0.78218 0.62898 0.88778 0.0
C1311 C 0.70016 0.56413 0.86911 0.0
N1312 N 0.85351 0.6326 0.86708 0.0
N1313 N 0.63858 0.54269 0.89109 0.0
H1314 H 0.66333 0.53745 0.84805 0.0
H1315 H 0.61301 0.53027 0.8629 0.0
H1316 H 0.62473 0.55229 0.90202 0.0
H1317 H 0.6108 0.51167 0.88557 0.0
H1318 H 0.88882 0.6484 0.87381 0.0
H1319 H 0.8668 0.62418 0.85604 0.0
H1320 H 0.84976 0.69616 0.89144 0.0
H1321 H 0.80411 0.68172 0.90684 0.0
C1322 C 0.43343 0.18782 0.13559 0.0
C1323 C 0.40529 0.232 0.14499 0.0
C1324 C 0.38873 0.29774 0.123 0.0
C1325 C 0.41496 0.25298 0.11363 0.0
N1326 N 0.45478 0.15215 0.11027 0.0
N1327 N 0.34309 0.3225 0.14683 0.0
C1328 C 0.43561 0.19718 0.11973 0.0
C1329 C 0.37883 0.28487 0.13846 0.0
N1330 N 0.45707 0.13622 0.14182 0.0
N1331 N 0.37559 0.35385 0.11724 0.0
H1332 H 0.33403 0.31555 0.1581 0.0
H1333 H 0.31707 0.35739 0.14226 0.0
H1334 H 0.38207 0.36515 0.10598 0.0
H1335 H 0.36361 0.39099 0.12383 0.0
H1336 H 0.48577 0.1065 0.13616 0.0
H1337 H 0.44884 0.12338 0.1529 0.0
H1338 H 0.46438 0.10803 0.11368 0.0
H1339 H 0.45751 0.15765 0.09865 0.0
C1340 C 0.79129 0.92809 0.36889 0.0
C1341 C 0.73832 0.89866 0.36363 0.0
C1342 C 0.72014 0.85812 0.38895 0.0
C1343 C 0.76758 0.89561 0.39477 0.0
N1344 N 0.84721 0.96905 0.38985 0.0
N1345 N 0.64792 0.84103 0.36876 0.0
C1346 C 0.80269 0.93145 0.3846 0.0
C1347 C 0.7018 0.86475 0.37366 0.0
N1348 N 0.8325 0.95034 0.35882 0.0
N1349 N 0.69254 0.8157 0.39779 0.0
H1350 H 0.63295 0.84471 0.35768 0.0
H1351 H 0.61549 0.82247 0.37592 0.0
H1352 H 0.70346 0.80824 0.40895 0.0
H1353 H 0.66282 0.78305 0.39362 0.0
H1354 H 0.87529 0.96635 0.36183 0.0
H1355 H 0.82658 0.94702 0.34724 0.0
H1356 H 0.86746 0.00263 0.38331 0.0
H1357 H 0.86229 0.96899 0.40089 0.0
C1358 C 0.08051 0.30717 0.63543 0.0
C1359 C 0.07762 0.25651 0.64521 0.0
C1360 C 0.08061 0.18756 0.62361 0.0
C1361 C 0.07927 0.23837 0.61383 0.0
N1362 N 0.0603 0.3452 0.61041 0.0
N1363 N 0.06174 0.14923 0.64873 0.0
C1364 C 0.07432 0.29794 0.61971 0.0
C1365 C 0.0738 0.19679 0.63934 0.0
N1366 N 0.08976 0.36402 0.64111 0.0
N1367 N 0.08935 0.13065 0.6179 0.0
H1368 H 0.05488 0.15474 0.66023 0.0
H1369 H 0.05278 0.1054 0.64497 0.0
H1370 H 0.09333 0.1221 0.60641 0.0
H1371 H 0.0972 0.0926 0.62456 0.0
H1372 H 0.09842 0.40174 0.63439 0.0
H1373 H 0.0938 0.37264 0.65258 0.0
H1374 H 0.05082 0.38883 0.61425 0.0
H1375 H 0.05104 0.33913 0.59903 0.0
C1376 C 0.36368 0.12774 0.26341 0.0
C1377 C 0.30839 0.14986 0.26933 0.0
C1378 C 0.30003 0.21935 0.24776 0.0
C1379 C 0.35118 0.19087 0.24104 0.0
N1380 N 0.41935 0.10521 0.241 0.0
N1381 N 0.21961 0.21261 0.26645 0.0
C1382 C 0.37952 0.14152 0.24847 0.0
C1383 C 0.27512 0.19462 0.2613 0.0
N1384 N 0.40269 0.09533 0.27221 0.0
N1385 N 0.27681 0.27103 0.24156 0.0
H1386 H 0.20066 0.19519 0.27628 0.0
H1387 H 0.1906 0.24095 0.26043 0.0
H1388 H 0.29548 0.29089 0.23199 0.0
H1389 H 0.24295 0.29696 0.2466 0.0
H1390 H 0.44635 0.08335 0.26878 0.0
H1391 H 0.39366 0.08602 0.28342 0.0
H1392 H 0.43677 0.06506 0.24548 0.0
H1393 H 0.42899 0.11162 0.22971 0.0
C1394 C 0.83525 0.91136 0.5027 0.0
C1395 C 0.79901 0.87803 0.4923 0.0
C1396 C 0.80625 0.78834 0.50889 0.0
C1397 C 0.84241 0.8216 0.51915 0.0
N1398 N 0.87852 0.91927 0.52757 0.0
N1399 N 0.73107 0.79379 0.48905 0.0
C1400 C 0.85266 0.88447 0.5166 0.0
C1401 C 0.7792 0.81887 0.49641 0.0
N1402 N 0.85548 0.96805 0.49925 0.0
N1403 N 0.79731 0.72767 0.51107 0.0
H1404 H 0.70641 0.81818 0.48107 0.0
H1405 H 0.71102 0.75289 0.49217 0.0
H1406 H 0.81411 0.70457 0.52043 0.0
H1407 H 0.77679 0.69975 0.50311 0.0
H1408 H 0.89052 0.98976 0.50498 0.0
H1409 H 0.83954 0.9926 0.49021 0.0
H1410 H 0.87928 0.96653 0.52735 0.0
H1411 H 0.89522 0.90143 0.53753 0.0
C1412 C 0.15791 0.25712 0.75257 0.0
C1413 C 0.17607 0.28945 0.73953 0.0
C1414 C 0.24527 0.34762 0.7558 0.0
C1415 C 0.21113 0.33082 0.76869 0.0
N1416 N 0.13968 0.25745 0.77909 0.0
N1417 N 0.24953 0.36049 0.72908 0.0
C1418 C 0.16893 0.28194 0.76707 0.0
C1419 C 0.22345 0.3332 0.74118 0.0
N1420 N 0.13485 0.19984 0.75118 0.0
N1421 N 0.30168 0.37246 0.75753 0.0
H1422 H 0.25037 0.34128 0.71849 0.0
H1423 H 0.2742 0.40073 0.72997 0.0
H1424 H 0.32273 0.3754 0.76799 0.0
H1425 H 0.33087 0.38137 0.7486 0.0
H1426 H 0.12521 0.17194 0.76033 0.0
H1427 H 0.13406 0.17706 0.74093 0.0
H1428 H 0.10032 0.23152 0.77796 0.0
H1429 H 0.15632 0.25919 0.78994 0.0
C1430 C 0.68189 0.59896 1.00207 0.0
C1431 C 0.70751 0.63832 0.9912 0.0
C1432 C 0.69194 0.7236 0.00868 0.0
C1433 C 0.66895 0.68294 0.01969 0.0
N1434 N 0.66708 0.57809 0.02814 0.0
N1435 N 0.75732 0.73381 0.98692 0.0
C1436 C 0.67271 0.61956 0.01689 0.0
C1437 C 0.71826 0.69974 0.99525 0.0
N1438 N 0.66114 0.54312 0.99809 0.0
N1439 N 0.69025 0.78468 0.01116 0.0
H1440 H 0.7829 0.71458 0.97831 0.0
H1441 H 0.77039 0.77769 0.98983 0.0
H1442 H 0.67639 0.80339 0.02135 0.0
H1443 H 0.70025 0.81645 1.00285 0.0
H1444 H 0.63666 0.51501 0.0053 0.0
H1445 H 0.66077 0.52921 0.98704 0.0
H1446 H 0.67693 0.53215 0.02667 0.0
H1447 H 0.65614 0.58942 0.03905 0.0
C1448 C 0.29913 0.34902 0.01687 0.0
C1449 C 0.33498 0.29565 0.01861 0.0
C1450 C 0.3216 0.27565 0.99153 0.0
C1451 C 0.28616 0.3298 0.99005 0.0
N1452 N 0.21418 0.39194 1.00355 0.0
N1453 N 0.35761 0.19681 0.0083 0.0
C1454 C 0.26589 0.3578 1.00346 0.0
C1455 C 0.33979 0.25557 0.00613 0.0
N1456 N 0.2996 0.39405 0.02733 0.0
N1457 N 0.33703 0.24192 0.9793 0.0
H1458 H 0.36522 0.17863 0.01892 0.0
H1459 H 0.35702 0.16408 0.99986 0.0
H1460 H 0.31334 0.24357 0.96927 0.0
H1461 H 0.37204 0.21003 0.97949 0.0
H1462 H 0.27712 0.43526 0.02573 0.0
H1463 H 0.32905 0.39407 0.03639 0.0
H1464 H 0.19629 0.41051 0.01337 0.0
H1465 H 0.18521 0.39388 0.99428 0.0
C1466 C 0.64639 0.86127 0.26204 0.0
C1467 C 0.70105 0.83873 0.26829 0.0
C1468 C 0.71124 0.77048 0.24654 0.0
C1469 C 0.66075 0.79958 0.23968 0.0
N1470 N 0.59629 0.88791 0.239 0.0
N1471 N 0.78965 0.77537 0.26586 0.0
C1472 C 0.63311 0.84956 0.24685 0.0
C1473 C 0.73501 0.79432 0.26032 0.0
N1474 N 0.60548 0.89168 0.27069 0.0
N1475 N 0.73548 0.71982 0.24008 0.0
H1476 H 0.80718 0.79135 0.276 0.0
H1477 H 0.81913 0.74716 0.25996 0.0
H1478 H 0.71894 0.70201 0.23003 0.0
H1479 H 0.76881 0.69332 0.24517 0.0
H1480 H 0.56281 0.90473 0.26673 0.0
H1481 H 0.61136 0.89706 0.28219 0.0
H1482 H 0.57889 0.92784 0.24359 0.0
H1483 H 0.58973 0.88347 0.22747 0.0
C1484 C 0.14505 0.11733 0.49936 0.0
C1485 C 0.19297 0.14884 0.49211 0.0
C1486 C 0.18717 0.22821 0.51159 0.0
C1487 C 0.142 0.19417 0.51924 0.0
N1488 N 0.08845 0.09967 0.52207 0.0
N1489 N 0.26764 0.22838 0.49287 0.0
C1490 C 0.12418 0.13678 0.5136 0.0
C1491 C 0.21629 0.20283 0.49866 0.0
N1492 N 0.11714 0.07023 0.49229 0.0
N1493 N 0.20104 0.2853 0.51645 0.0
H1494 H 0.29099 0.20918 0.48387 0.0
H1495 H 0.29023 0.26475 0.4978 0.0
H1496 H 0.1803 0.30485 0.5258 0.0
H1497 H 0.22922 0.31492 0.5106 0.0
H1498 H 0.07792 0.04904 0.49617 0.0
H1499 H 0.129 0.05744 0.48151 0.0
H1500 H 0.07883 0.05482 0.51931 0.0
H1501 H 0.07335 0.11175 0.5327 0.0
C1502 C 0.84516 0.74471 0.75215 0.0
C1503 C 0.84296 0.70294 0.74001 0.0
C1504 C 0.77042 0.64322 0.75453 0.0
C1505 C 0.78696 0.67334 0.76801 0.0
N1506 N 0.83916 0.76096 0.77876 0.0
N1507 N 0.81274 0.60229 0.73197 0.0
C1508 C 0.82411 0.72652 0.76663 0.0
C1509 C 0.80778 0.64947 0.74176 0.0
N1510 N 0.86352 0.80313 0.74977 0.0
N1511 N 0.71845 0.60977 0.75368 0.0
H1512 H 0.84622 0.60086 0.72379 0.0
H1513 H 0.78989 0.56131 0.73356 0.0
H1514 H 0.68591 0.61061 0.76219 0.0
H1515 H 0.70418 0.58922 0.74373 0.0
H1516 H 0.86081 0.83691 0.75793 0.0
H1517 H 0.87387 0.81988 0.73915 0.0
H1518 H 0.87495 0.79193 0.7786 0.0
H1519 H 0.81528 0.76057 0.78874 0.0
loop_
_geom_bond_atom_site_label_1
_geom_bond_atom_site_label_2
_geom_bond_distance
_geom_bond_site_symmetry_2
_ccdc_geom_bond_type
Co0 O2 2.143 . S
Co0 O8 2.074 . S
Co0 O11 2.093 . S
Co0 O24 2.097 . S
Co0 N41 2.151 . S
Co0 N49 2.214 . S
Co1 O2 2.160 . S
Co1 O7 2.058 . S
Co1 O17 2.057 . S
Co1 O32 2.037 . S
Co1 N36 2.145 1_545 S
Co1 N57 2.257 1_545 S
O2 Co0 2.143 . S
O2 Co1 2.160 . S
C3 O4 1.278 . S
C3 O11 1.224 . S
O4 C3 1.278 . S
C5 O6 1.245 . S
C5 O17 1.232 . S
O6 C5 1.245 . S
O7 Co1 2.058 . S
O7 C33 1.269 . S
O8 Co0 2.074 . S
O8 C33 1.257 . S
H9 C34 0.930 . S
H10 C40 0.930 . S
O11 Co0 2.093 . S
O11 C3 1.224 . S
H12 C44 0.929 . S
H13 C46 0.930 . S
H14 C47 0.930 . S
H15 C45 0.929 . S
H16 C48 0.928 . S
O17 Co1 2.057 . S
O17 C5 1.232 . S
H18 C37 0.929 . S
H19 C38 0.929 . S
H20 C50 0.931 . S
H21 C42 0.929 . S
H22 C51 0.930 . S
H23 C43 0.931 . S
O24 Co0 2.097 . S
O24 C52 1.214 . S
H25 C53 0.929 . S
H26 C54 0.929 . S
H27 C55 0.930 . S
H28 C56 0.929 . S
H29 C58 0.930 . S
H30 C35 0.930 . S
H31 C39 0.930 . S
O32 Co1 2.037 . S
O32 C52 1.234 . S
C33 O7 1.269 . S
C33 O8 1.257 . S
C34 H9 0.930 . S
C34 C37 1.388 . S
C34 C39 1.418 . S
C35 H30 0.930 . S
C35 C38 1.404 . S
C35 C39 1.353 . S
N36 Co1 2.145 1_565 S
N36 C37 1.397 . S
N36 C38 1.334 . S
C37 H18 0.929 . S
C37 C34 1.388 . S
C37 N36 1.397 . S
C38 H19 0.929 . S
C38 C35 1.404 . S
C38 N36 1.334 . S
C39 H31 0.930 . S
C39 C34 1.418 . S
C39 C35 1.353 . S
C40 H10 0.930 . S
C40 N41 1.330 . S
C40 C42 1.446 . S
N41 Co0 2.151 . S
N41 C40 1.330 . S
N41 C45 1.418 . S
C42 H21 0.929 . S
C42 C40 1.446 . S
C42 C43 1.332 . S
C43 H23 0.931 . S
C43 C42 1.332 . S
C43 C44 1.267 . S
C44 H12 0.929 . S
C44 C43 1.267 . S
C44 C45 1.251 . S
C45 H15 0.929 . S
C45 N41 1.418 . S
C45 C44 1.251 . S
C46 H13 0.930 . S
C46 C48 1.406 . S
C46 C51 1.261 . S
C47 H14 0.930 . S
C47 N49 1.325 . S
C47 C50 1.357 . S
C48 H16 0.928 . S
C48 C46 1.406 . S
C48 N49 1.261 . S
N49 Co0 2.214 . S
N49 C47 1.325 . S
N49 C48 1.261 . S
C50 H20 0.931 . S
C50 C47 1.357 . S
C50 C51 1.312 . S
C51 H22 0.930 . S
C51 C46 1.261 . S
C51 C50 1.312 . S
C52 O24 1.214 . S
C52 O32 1.234 . S
C53 H25 0.929 . S
C53 C56 1.391 . S
C53 C58 1.391 . S
C54 H26 0.929 . S
C54 C55 1.390 . S
C54 N57 1.391 . S
C55 H27 0.930 . S
C55 C54 1.390 . S
C55 C56 1.392 . S
C56 H28 0.929 . S
C56 C53 1.391 . S
C56 C55 1.392 . S
N57 Co1 2.257 1_565 S
N57 C54 1.391 . S
N57 C58 1.388 . S
C58 H29 0.930 . S
C58 C53 1.391 . S
C58 N57 1.388 . S
Co59 O61 2.143 . S
Co59 O67 2.074 . S
Co59 O70 2.093 . S
Co59 O83 2.097 . S
Co59 N100 2.151 . S
Co59 N108 2.214 . S
Co60 O61 2.160 . S
Co60 O66 2.058 . S
Co60 O76 2.057 . S
Co60 O91 2.037 . S
Co60 N95 2.145 1_655 S
Co60 N116 2.257 1_655 S
O61 Co59 2.143 . S
O61 Co60 2.160 . S
C62 O63 1.278 . S
C62 O70 1.224 . S
O63 C62 1.278 . S
C64 O65 1.245 . S
C64 O76 1.232 . S
O65 C64 1.245 . S
O66 Co60 2.058 . S
O66 C92 1.269 . S
O67 Co59 2.074 . S
O67 C92 1.257 . S
H68 C93 0.930 . S
H69 C99 0.930 . S
O70 Co59 2.093 . S
O70 C62 1.224 . S
H71 C103 0.929 . S
H72 C105 0.930 . S
H73 C106 0.930 . S
H74 C104 0.929 . S
H75 C107 0.928 . S
O76 Co60 2.057 . S
O76 C64 1.232 . S
H77 C96 0.929 . S
H78 C97 0.929 . S
H79 C109 0.931 1_545 S
H80 C101 0.929 . S
H81 C110 0.930 1_545 S
H82 C102 0.931 . S
O83 Co59 2.097 . S
O83 C111 1.214 . S
H84 C112 0.929 . S
H85 C113 0.929 . S
H86 C114 0.930 . S
H87 C115 0.929 . S
H88 C117 0.930 . S
H89 C94 0.930 . S
H90 C98 0.930 . S
O91 Co60 2.037 . S
O91 C111 1.234 . S
C92 O66 1.269 . S
C92 O67 1.257 . S
C93 H68 0.930 . S
C93 C96 1.388 . S
C93 C98 1.418 . S
C94 H89 0.930 . S
C94 C97 1.404 . S
C94 C98 1.353 . S
N95 Co60 2.145 1_455 S
N95 C96 1.397 . S
N95 C97 1.334 . S
C96 H77 0.929 . S
C96 C93 1.388 . S
C96 N95 1.397 . S
C97 H78 0.929 . S
C97 C94 1.404 . S
C97 N95 1.334 . S
C98 H90 0.930 . S
C98 C93 1.418 . S
C98 C94 1.353 . S
C99 H69 0.930 . S
C99 N100 1.330 . S
C99 C101 1.446 . S
N100 Co59 2.151 . S
N100 C99 1.330 . S
N100 C104 1.418 . S
C101 H80 0.929 . S
C101 C99 1.446 . S
C101 C102 1.332 . S
C102 H82 0.931 . S
C102 C101 1.332 . S
C102 C103 1.267 . S
C103 H71 0.929 . S
C103 C102 1.267 . S
C103 C104 1.251 . S
C104 H74 0.929 . S
C104 N100 1.418 . S
C104 C103 1.251 . S
C105 H72 0.930 . S
C105 C107 1.406 . S
C105 C110 1.261 . S
C106 H73 0.930 . S
C106 N108 1.325 . S
C106 C109 1.357 . S
C107 H75 0.928 . S
C107 C105 1.406 . S
C107 N108 1.261 . S
N108 Co59 2.214 . S
N108 C106 1.325 . S
N108 C107 1.261 . S
C109 H79 0.931 1_565 S
C109 C106 1.357 . S
C109 C110 1.312 . S
C110 H81 0.930 1_565 S
C110 C105 1.261 . S
C110 C109 1.312 . S
C111 O83 1.214 . S
C111 O91 1.234 . S
C112 H84 0.929 . S
C112 C115 1.391 . S
C112 C117 1.391 . S
C113 H85 0.929 . S
C113 C114 1.390 . S
C113 N116 1.391 . S
C114 H86 0.930 . S
C114 C113 1.390 . S
C114 C115 1.392 . S
C115 H87 0.929 . S
C115 C112 1.391 . S
C115 C114 1.392 . S
N116 Co60 2.257 1_455 S
N116 C113 1.391 . S
N116 C117 1.388 . S
C117 H88 0.930 . S
C117 C112 1.391 . S
C117 N116 1.388 . S
Co118 O120 2.143 . S
Co118 O126 2.074 . S
Co118 O129 2.093 . S
Co118 O142 2.097 . S
Co118 N159 2.151 . S
Co118 N167 2.214 . S
Co119 O120 2.160 . S
Co119 O125 2.058 . S
Co119 O135 2.057 . S
Co119 O150 2.037 . S
Co119 N154 2.145 . S
Co119 N175 2.257 . S
O120 Co118 2.143 . S
O120 Co119 2.160 . S
C121 O122 1.278 . S
C121 O129 1.224 . S
O122 C121 1.278 . S
C123 O124 1.245 . S
C123 O135 1.232 . S
O124 C123 1.245 . S
O125 Co119 2.058 . S
O125 C151 1.269 . S
O126 Co118 2.074 . S
O126 C151 1.257 . S
H127 C152 0.930 . S
H128 C158 0.930 . S
O129 Co118 2.093 . S
O129 C121 1.224 . S
H130 C162 0.929 . S
H131 C164 0.930 . S
H132 C165 0.930 . S
H133 C163 0.929 . S
H134 C166 0.928 . S
O135 Co119 2.057 . S
O135 C123 1.232 . S
H136 C155 0.929 . S
H137 C156 0.929 . S
H138 C168 0.931 1_655 S
H139 C160 0.929 . S
H140 C169 0.930 1_655 S
H141 C161 0.931 . S
O142 Co118 2.097 . S
O142 C170 1.214 . S
H143 C171 0.929 . S
H144 C172 0.929 . S
H145 C173 0.930 . S
H146 C174 0.929 . S
H147 C176 0.930 . S
H148 C153 0.930 . S
H149 C157 0.930 . S
O150 Co119 2.037 . S
O150 C170 1.234 . S
C151 O125 1.269 . S
C151 O126 1.257 . S
C152 H127 0.930 . S
C152 C155 1.388 . S
C152 C157 1.418 . S
C153 H148 0.930 . S
C153 C156 1.404 . S
C153 C157 1.353 . S
N154 Co119 2.145 . S
N154 C155 1.397 . S
N154 C156 1.334 . S
C155 H136 0.929 . S
C155 C152 1.388 . S
C155 N154 1.397 . S
C156 H137 0.929 . S
C156 C153 1.404 . S
C156 N154 1.334 . S
C157 H149 0.930 . S
C157 C152 1.418 . S
C157 C153 1.353 . S
C158 H128 0.930 . S
C158 N159 1.330 . S
C158 C160 1.446 . S
N159 Co118 2.151 . S
N159 C158 1.330 . S
N159 C163 1.418 . S
C160 H139 0.929 . S
C160 C158 1.446 . S
C160 C161 1.332 . S
C161 H141 0.931 . S
C161 C160 1.332 . S
C161 C162 1.267 . S
C162 H130 0.929 . S
C162 C161 1.267 . S
C162 C163 1.251 . S
C163 H133 0.929 . S
C163 N159 1.418 . S
C163 C162 1.251 . S
C164 H131 0.930 . S
C164 C166 1.406 . S
C164 C169 1.261 . S
C165 H132 0.930 . S
C165 N167 1.325 . S
C165 C168 1.357 . S
C166 H134 0.928 . S
C166 C164 1.406 . S
C166 N167 1.261 . S
N167 Co118 2.214 . S
N167 C165 1.325 . S
N167 C166 1.261 . S
C168 H138 0.931 1_455 S
C168 C165 1.357 . S
C168 C169 1.312 . S
C169 H140 0.930 1_455 S
C169 C164 1.261 . S
C169 C168 1.312 . S
C170 O142 1.214 . S
C170 O150 1.234 . S
C171 H143 0.929 . S
C171 C174 1.391 . S
C171 C176 1.391 . S
C172 H144 0.929 . S
C172 C173 1.390 . S
C172 N175 1.391 . S
C173 H145 0.930 . S
C173 C172 1.390 . S
C173 C174 1.392 . S
C174 H146 0.929 . S
C174 C171 1.391 . S
C174 C173 1.392 . S
N175 Co119 2.257 . S
N175 C172 1.391 . S
N175 C176 1.388 . S
C176 H147 0.930 . S
C176 C171 1.391 . S
C176 N175 1.388 . S
Co177 O179 2.143 . S
Co177 O185 2.074 . S
Co177 O188 2.093 . S
Co177 O201 2.097 . S
Co177 N218 2.151 . S
Co177 N226 2.214 . S
Co178 O179 2.160 . S
Co178 O184 2.058 . S
Co178 O194 2.057 . S
Co178 O209 2.037 . S
Co178 N213 2.145 . S
Co178 N234 2.257 . S
O179 Co177 2.143 . S
O179 Co178 2.160 . S
C180 O181 1.278 . S
C180 O188 1.224 . S
O181 C180 1.278 . S
C182 O183 1.245 . S
C182 O194 1.232 . S
O183 C182 1.245 . S
O184 Co178 2.058 . S
O184 C210 1.269 . S
O185 Co177 2.074 . S
O185 C210 1.257 . S
H186 C211 0.930 . S
H187 C217 0.930 . S
O188 Co177 2.093 . S
O188 C180 1.224 . S
H189 C221 0.929 . S
H190 C223 0.930 . S
H191 C224 0.930 . S
H192 C222 0.929 . S
H193 C225 0.928 . S
O194 Co178 2.057 . S
O194 C182 1.232 . S
H195 C214 0.929 . S
H196 C215 0.929 . S
H197 C227 0.931 . S
H198 C219 0.929 . S
H199 C228 0.930 . S
H200 C220 0.931 . S
O201 Co177 2.097 . S
O201 C229 1.214 . S
H202 C230 0.929 . S
H203 C231 0.929 . S
H204 C232 0.930 . S
H205 C233 0.929 . S
H206 C235 0.930 . S
H207 C212 0.930 . S
H208 C216 0.972 . S
O209 Co178 2.037 . S
O209 C229 1.234 . S
C210 O184 1.269 . S
C210 O185 1.257 . S
C211 H186 0.930 . S
C211 C214 1.388 . S
C211 C216 1.418 . S
C212 H207 0.930 . S
C212 C215 1.404 . S
C212 C216 1.353 . S
N213 Co178 2.145 . S
N213 C214 1.397 . S
N213 C215 1.334 . S
C214 H195 0.929 . S
C214 C211 1.388 . S
C214 N213 1.397 . S
C215 H196 0.929 . S
C215 C212 1.404 . S
C215 N213 1.334 . S
C216 H208 0.972 . S
C216 C211 1.418 . S
C216 C212 1.353 . S
C217 H187 0.930 . S
C217 N218 1.330 . S
C217 C219 1.446 . S
N218 Co177 2.151 . S
N218 C217 1.330 . S
N218 C222 1.418 . S
C219 H198 0.929 . S
C219 C217 1.446 . S
C219 C220 1.332 . S
C220 H200 0.931 . S
C220 C219 1.332 . S
C220 C221 1.267 . S
C221 H189 0.929 . S
C221 C220 1.267 . S
C221 C222 1.251 . S
C222 H192 0.929 . S
C222 N218 1.418 . S
C222 C221 1.251 . S
C223 H190 0.930 . S
C223 C225 1.406 . S
C223 C228 1.261 . S
C224 H191 0.930 . S
C224 N226 1.325 . S
C224 C227 1.357 . S
C225 H193 0.928 . S
C225 C223 1.406 . S
C225 N226 1.261 . S
N226 Co177 2.214 . S
N226 C224 1.325 . S
N226 C225 1.261 . S
C227 H197 0.931 . S
C227 C224 1.357 . S
C227 C228 1.312 . S
C228 H199 0.930 . S
C228 C223 1.261 . S
C228 C227 1.312 . S
C229 O201 1.214 . S
C229 O209 1.234 . S
C230 H202 0.929 . S
C230 C233 1.391 . S
C230 C235 1.391 . S
C231 H203 0.929 . S
C231 C232 1.390 . S
C231 N234 1.391 . S
C232 H204 0.930 . S
C232 C231 1.390 . S
C232 C233 1.392 . S
C233 H205 0.929 . S
C233 C230 1.391 . S
C233 C232 1.392 . S
N234 Co178 2.257 . S
N234 C231 1.391 . S
N234 C235 1.388 . S
C235 H206 0.930 . S
C235 C230 1.391 . S
C235 N234 1.388 . S
Co236 O238 2.143 . S
Co236 O244 2.074 . S
Co236 O247 2.093 . S
Co236 O260 2.097 . S
Co236 N277 2.151 . S
Co236 N285 2.214 . S
Co237 O238 2.160 . S
Co237 O243 2.058 . S
Co237 O253 2.057 . S
Co237 O268 2.037 . S
Co237 N272 2.145 . S
Co237 N293 2.257 . S
O238 Co236 2.143 . S
O238 Co237 2.160 . S
C239 O240 1.278 . S
C239 O247 1.224 . S
O240 C239 1.278 . S
C241 O242 1.245 . S
C241 O253 1.232 . S
O242 C241 1.245 . S
O243 Co237 2.058 . S
O243 C269 1.269 . S
O244 Co236 2.074 . S
O244 C269 1.257 . S
H245 C270 0.930 . S
H246 C276 0.930 . S
O247 Co236 2.093 . S
O247 C239 1.224 . S
H248 C280 0.929 . S
H249 C282 0.930 . S
H250 C283 0.930 . S
H251 C281 0.929 . S
H252 C284 0.928 . S
O253 Co237 2.057 . S
O253 C241 1.232 . S
H254 C273 0.929 . S
H255 C274 0.929 . S
H256 C286 0.931 . S
H257 C278 0.929 . S
H258 C287 0.930 . S
H259 C279 0.931 . S
O260 Co236 2.097 . S
O260 C288 1.214 . S
H261 C289 0.929 . S
H262 C290 0.929 . S
H263 C291 0.930 . S
H264 C292 0.929 . S
H265 C294 0.930 . S
H266 C271 0.930 . S
H267 C275 0.972 . S
O268 Co237 2.037 . S
O268 C288 1.234 . S
C269 O243 1.269 . S
C269 O244 1.257 . S
C270 H245 0.930 . S
C270 C273 1.388 . S
C270 C275 1.418 . S
C271 H266 0.930 . S
C271 C274 1.404 . S
C271 C275 1.353 . S
N272 Co237 2.145 . S
N272 C273 1.397 . S
N272 C274 1.334 . S
C273 H254 0.929 . S
C273 C270 1.388 . S
C273 N272 1.397 . S
C274 H255 0.929 . S
C274 C271 1.404 . S
C274 N272 1.334 . S
C275 H267 0.972 . S
C275 C270 1.418 . S
C275 C271 1.353 . S
C276 H246 0.930 . S
C276 N277 1.330 . S
C276 C278 1.446 . S
N277 Co236 2.151 . S
N277 C276 1.330 . S
N277 C281 1.418 . S
C278 H257 0.929 . S
C278 C276 1.446 . S
C278 C279 1.332 . S
C279 H259 0.931 . S
C279 C278 1.332 . S
C279 C280 1.267 . S
C280 H248 0.929 . S
C280 C279 1.267 . S
C280 C281 1.251 . S
C281 H251 0.929 . S
C281 N277 1.418 . S
C281 C280 1.251 . S
C282 H249 0.930 . S
C282 C284 1.406 . S
C282 C287 1.261 . S
C283 H250 0.930 . S
C283 N285 1.325 . S
C283 C286 1.357 . S
C284 H252 0.928 . S
C284 C282 1.406 . S
C284 N285 1.261 . S
N285 Co236 2.214 . S
N285 C283 1.325 . S
N285 C284 1.261 . S
C286 H256 0.931 . S
C286 C283 1.357 . S
C286 C287 1.312 . S
C287 H258 0.930 . S
C287 C282 1.261 . S
C287 C286 1.312 . S
C288 O260 1.214 . S
C288 O268 1.234 . S
C289 H261 0.929 . S
C289 C292 1.391 . S
C289 C294 1.391 . S
C290 H262 0.929 . S
C290 C291 1.390 . S
C290 N293 1.391 . S
C291 H263 0.930 . S
C291 C290 1.390 . S
C291 C292 1.392 . S
C292 H264 0.929 . S
C292 C289 1.391 . S
C292 C291 1.392 . S
N293 Co237 2.257 . S
N293 C290 1.391 . S
N293 C294 1.388 . S
C294 H265 0.930 . S
C294 C289 1.391 . S
C294 N293 1.388 . S
Co295 O297 2.143 . S
Co295 O303 2.074 . S
Co295 O306 2.093 . S
Co295 O319 2.097 . S
Co295 N336 2.151 . S
Co295 N344 2.214 . S
Co296 O297 2.160 . S
Co296 O302 2.058 . S
Co296 O312 2.057 . S
Co296 O327 2.037 . S
Co296 N331 2.145 . S
Co296 N352 2.257 . S
O297 Co295 2.143 . S
O297 Co296 2.160 . S
C298 O299 1.278 . S
C298 O306 1.224 . S
O299 C298 1.278 . S
C300 O301 1.245 . S
C300 O312 1.232 . S
O301 C300 1.245 . S
O302 Co296 2.058 . S
O302 C328 1.269 . S
O303 Co295 2.074 . S
O303 C328 1.257 . S
H304 C329 0.930 . S
H305 C335 0.930 . S
O306 Co295 2.093 . S
O306 C298 1.224 . S
H307 C339 0.929 . S
H308 C341 0.930 . S
H309 C342 0.930 . S
H310 C340 0.929 . S
H311 C343 0.928 . S
O312 Co296 2.057 . S
O312 C300 1.232 . S
H313 C332 0.929 . S
H314 C333 0.929 . S
H315 C345 0.931 1_545 S
H316 C337 0.929 . S
H317 C346 0.930 1_545 S
H318 C338 0.931 . S
O319 Co295 2.097 . S
O319 C347 1.214 . S
H320 C348 0.929 . S
H321 C349 0.929 . S
H322 C350 0.930 . S
H323 C351 0.929 . S
H324 C353 0.930 . S
H325 C330 0.930 . S
H326 C334 0.930 . S
O327 Co296 2.037 . S
O327 C347 1.234 . S
C328 O302 1.269 . S
C328 O303 1.257 . S
C329 H304 0.930 . S
C329 C332 1.388 . S
C329 C334 1.418 . S
C330 H325 0.930 . S
C330 C333 1.404 . S
C330 C334 1.353 . S
N331 Co296 2.145 . S
N331 C332 1.397 . S
N331 C333 1.334 . S
C332 H313 0.929 . S
C332 C329 1.388 . S
C332 N331 1.397 . S
C333 H314 0.929 . S
C333 C330 1.404 . S
C333 N331 1.334 . S
C334 H326 0.930 . S
C334 C329 1.418 . S
C334 C330 1.353 . S
C335 H305 0.930 . S
C335 N336 1.330 . S
C335 C337 1.446 . S
N336 Co295 2.151 . S
N336 C335 1.330 . S
N336 C340 1.418 . S
C337 H316 0.929 . S
C337 C335 1.446 . S
C337 C338 1.332 . S
C338 H318 0.931 . S
C338 C337 1.332 . S
C338 C339 1.267 . S
C339 H307 0.929 . S
C339 C338 1.267 . S
C339 C340 1.251 . S
C340 H310 0.929 . S
C340 N336 1.418 . S
C340 C339 1.251 . S
C341 H308 0.930 . S
C341 C343 1.406 . S
C341 C346 1.261 . S
C342 H309 0.930 . S
C342 N344 1.325 . S
C342 C345 1.357 . S
C343 H311 0.928 . S
C343 C341 1.406 . S
C343 N344 1.261 . S
N344 Co295 2.214 . S
N344 C342 1.325 . S
N344 C343 1.261 . S
C345 H315 0.931 1_565 S
C345 C342 1.357 . S
C345 C346 1.312 . S
C346 H317 0.930 1_565 S
C346 C341 1.261 . S
C346 C345 1.312 . S
C347 O319 1.214 . S
C347 O327 1.234 . S
C348 H320 0.929 . S
C348 C351 1.391 . S
C348 C353 1.391 . S
C349 H321 0.929 . S
C349 C350 1.390 . S
C349 N352 1.391 . S
C350 H322 0.930 . S
C350 C349 1.390 . S
C350 C351 1.392 . S
C351 H323 0.929 . S
C351 C348 1.391 . S
C351 C350 1.392 . S
N352 Co296 2.257 . S
N352 C349 1.391 . S
N352 C353 1.388 . S
C353 H324 0.930 . S
C353 C348 1.391 . S
C353 N352 1.388 . S
Co354 O356 2.143 . S
Co354 O362 2.074 . S
Co354 O365 2.093 . S
Co354 O378 2.097 . S
Co354 N395 2.151 . S
Co354 N403 2.214 . S
Co355 O356 2.160 . S
Co355 O361 2.058 . S
Co355 O371 2.057 . S
Co355 O386 2.037 . S
Co355 N390 2.145 1_545 S
Co355 N411 2.257 1_545 S
O356 Co354 2.143 . S
O356 Co355 2.160 . S
C357 O358 1.278 . S
C357 O365 1.224 . S
O358 C357 1.278 . S
C359 O360 1.245 . S
C359 O371 1.232 . S
O360 C359 1.245 . S
O361 Co355 2.058 . S
O361 C387 1.269 . S
O362 Co354 2.074 . S
O362 C387 1.257 . S
H363 C388 0.930 . S
H364 C394 0.930 . S
O365 Co354 2.093 . S
O365 C357 1.224 . S
H366 C398 0.929 . S
H367 C400 0.930 . S
H368 C401 0.930 . S
H369 C399 0.929 . S
H370 C402 0.928 . S
O371 Co355 2.057 . S
O371 C359 1.232 . S
H372 C391 0.929 . S
H373 C392 0.929 . S
H374 C404 0.931 1_655 S
H375 C396 0.929 . S
H376 C405 0.930 1_655 S
H377 C397 0.931 . S
O378 Co354 2.097 . S
O378 C406 1.214 . S
H379 C407 0.929 . S
H380 C408 0.929 . S
H381 C409 0.930 . S
H382 C410 0.929 . S
H383 C412 0.930 . S
H384 C389 0.930 . S
H385 C393 0.930 . S
O386 Co355 2.037 . S
O386 C406 1.234 . S
C387 O361 1.269 . S
C387 O362 1.257 . S
C388 H363 0.930 . S
C388 C391 1.388 . S
C388 C393 1.418 . S
C389 H384 0.930 . S
C389 C392 1.404 . S
C389 C393 1.353 . S
N390 Co355 2.145 1_565 S
N390 C391 1.397 . S
N390 C392 1.334 . S
C391 H372 0.929 . S
C391 C388 1.388 . S
C391 N390 1.397 . S
C392 H373 0.929 . S
C392 C389 1.404 . S
C392 N390 1.334 . S
C393 H385 0.930 . S
C393 C388 1.418 . S
C393 C389 1.353 . S
C394 H364 0.930 . S
C394 N395 1.330 . S
C394 C396 1.446 . S
N395 Co354 2.151 . S
N395 C394 1.330 . S
N395 C399 1.418 . S
C396 H375 0.929 . S
C396 C394 1.446 . S
C396 C397 1.332 . S
C397 H377 0.931 . S
C397 C396 1.332 . S
C397 C398 1.267 . S
C398 H366 0.929 . S
C398 C397 1.267 . S
C398 C399 1.251 . S
C399 H369 0.929 . S
C399 N395 1.418 . S
C399 C398 1.251 . S
C400 H367 0.930 . S
C400 C402 1.406 . S
C400 C405 1.261 . S
C401 H368 0.930 . S
C401 N403 1.325 . S
C401 C404 1.357 . S
C402 H370 0.928 . S
C402 C400 1.406 . S
C402 N403 1.261 . S
N403 Co354 2.214 . S
N403 C401 1.325 . S
N403 C402 1.261 . S
C404 H374 0.931 1_455 S
C404 C401 1.357 . S
C404 C405 1.312 . S
C405 H376 0.930 1_455 S
C405 C400 1.261 . S
C405 C404 1.312 . S
C406 O378 1.214 . S
C406 O386 1.234 . S
C407 H379 0.929 . S
C407 C410 1.391 . S
C407 C412 1.391 . S
C408 H380 0.929 . S
C408 C409 1.390 . S
C408 N411 1.391 . S
C409 H381 0.930 . S
C409 C408 1.390 . S
C409 C410 1.392 . S
C410 H382 0.929 . S
C410 C407 1.391 . S
C410 C409 1.392 . S
N411 Co355 2.257 1_565 S
N411 C408 1.391 . S
N411 C412 1.388 . S
C412 H383 0.930 . S
C412 C407 1.391 . S
C412 N411 1.388 . S
Co413 O415 2.143 . S
Co413 O421 2.074 . S
Co413 O424 2.093 . S
Co413 O437 2.097 . S
Co413 N454 2.151 . S
Co413 N462 2.214 . S
Co414 O415 2.160 . S
Co414 O420 2.058 . S
Co414 O430 2.057 . S
Co414 O445 2.037 . S
Co414 N449 2.145 1_655 S
Co414 N470 2.257 1_655 S
O415 Co413 2.143 . S
O415 Co414 2.160 . S
C416 O417 1.278 . S
C416 O424 1.224 . S
O417 C416 1.278 . S
C418 O419 1.245 . S
C418 O430 1.232 . S
O419 C418 1.245 . S
O420 Co414 2.058 . S
O420 C446 1.269 . S
O421 Co413 2.074 . S
O421 C446 1.257 . S
H422 C447 0.930 . S
H423 C453 0.930 . S
O424 Co413 2.093 . S
O424 C416 1.224 . S
H425 C457 0.929 . S
H426 C459 0.930 . S
H427 C460 0.930 . S
H428 C458 0.929 . S
H429 C461 0.928 . S
O430 Co414 2.057 . S
O430 C418 1.232 . S
H431 C450 0.929 . S
H432 C451 0.929 . S
H433 C463 0.931 . S
H434 C455 0.929 . S
H435 C464 0.930 . S
H436 C456 0.931 . S
O437 Co413 2.097 . S
O437 C465 1.214 . S
H438 C466 0.929 . S
H439 C467 0.929 . S
H440 C468 0.930 . S
H441 C469 0.929 . S
H442 C471 0.930 . S
H443 C448 0.930 . S
H444 C452 0.930 . S
O445 Co414 2.037 . S
O445 C465 1.234 . S
C446 O420 1.269 . S
C446 O421 1.257 . S
C447 H422 0.930 . S
C447 C450 1.388 . S
C447 C452 1.418 . S
C448 H443 0.930 . S
C448 C451 1.404 . S
C448 C452 1.353 . S
N449 Co414 2.145 1_455 S
N449 C450 1.397 . S
N449 C451 1.334 . S
C450 H431 0.929 . S
C450 C447 1.388 . S
C450 N449 1.397 . S
C451 H432 0.929 . S
C451 C448 1.404 . S
C451 N449 1.334 . S
C452 H444 0.930 . S
C452 C447 1.418 . S
C452 C448 1.353 . S
C453 H423 0.930 . S
C453 N454 1.330 . S
C453 C455 1.446 . S
N454 Co413 2.151 . S
N454 C453 1.330 . S
N454 C458 1.418 . S
C455 H434 0.929 . S
C455 C453 1.446 . S
C455 C456 1.332 . S
C456 H436 0.931 . S
C456 C455 1.332 . S
C456 C457 1.267 . S
C457 H425 0.929 . S
C457 C456 1.267 . S
C457 C458 1.251 . S
C458 H428 0.929 . S
C458 N454 1.418 . S
C458 C457 1.251 . S
C459 H426 0.930 . S
C459 C461 1.406 . S
C459 C464 1.261 . S
C460 H427 0.930 . S
C460 N462 1.325 . S
C460 C463 1.357 . S
C461 H429 0.928 . S
C461 C459 1.406 . S
C461 N462 1.261 . S
N462 Co413 2.214 . S
N462 C460 1.325 . S
N462 C461 1.261 . S
C463 H433 0.931 . S
C463 C460 1.357 . S
C463 C464 1.312 . S
C464 H435 0.930 . S
C464 C459 1.261 . S
C464 C463 1.312 . S
C465 O437 1.214 . S
C465 O445 1.234 . S
C466 H438 0.929 . S
C466 C469 1.391 . S
C466 C471 1.391 . S
C467 H439 0.929 . S
C467 C468 1.390 . S
C467 N470 1.391 . S
C468 H440 0.930 . S
C468 C467 1.390 . S
C468 C469 1.392 . S
C469 H441 0.929 . S
C469 C466 1.391 . S
C469 C468 1.392 . S
N470 Co414 2.257 1_455 S
N470 C467 1.391 . S
N470 C471 1.388 . S
C471 H442 0.930 . S
C471 C466 1.391 . S
C471 N470 1.388 . S
Co472 O474 2.143 . S
Co472 O480 2.074 . S
Co472 O483 2.093 . S
Co472 O496 2.097 . S
Co472 N513 2.151 . S
Co472 N521 2.214 . S
Co473 O474 2.160 . S
Co473 O479 2.058 . S
Co473 O489 2.057 . S
Co473 O504 2.037 . S
Co473 N508 2.145 . S
Co473 N529 2.257 . S
O474 Co472 2.143 . S
O474 Co473 2.160 . S
C475 O476 1.278 . S
C475 O483 1.224 . S
O476 C475 1.278 . S
C477 O478 1.245 . S
C477 O489 1.232 . S
O478 C477 1.245 . S
O479 Co473 2.058 . S
O479 C505 1.269 . S
O480 Co472 2.074 . S
O480 C505 1.257 . S
H481 C506 0.930 . S
H482 C512 0.930 . S
O483 Co472 2.093 . S
O483 C475 1.224 . S
H484 C516 0.929 . S
H485 C518 0.930 . S
H486 C519 0.930 . S
H487 C517 0.929 . S
H488 C520 0.928 . S
O489 Co473 2.057 . S
O489 C477 1.232 . S
H490 C509 0.929 . S
H491 C510 0.929 . S
H492 C522 0.931 1_455 S
H493 C514 0.929 . S
H494 C523 0.930 1_455 S
H495 C515 0.931 . S
O496 Co472 2.097 . S
O496 C524 1.214 . S
H497 C525 0.929 . S
H498 C526 0.929 . S
H499 C527 0.930 . S
H500 C528 0.929 . S
H501 C530 0.930 . S
H502 C507 0.930 . S
H503 C511 0.930 . S
O504 Co473 2.037 . S
O504 C524 1.234 . S
C505 O479 1.269 . S
C505 O480 1.257 . S
C506 H481 0.930 . S
C506 C509 1.388 . S
C506 C511 1.418 . S
C507 H502 0.930 . S
C507 C510 1.404 . S
C507 C511 1.353 . S
N508 Co473 2.145 . S
N508 C509 1.397 . S
N508 C510 1.334 . S
C509 H490 0.929 . S
C509 C506 1.388 . S
C509 N508 1.397 . S
C510 H491 0.929 . S
C510 C507 1.404 . S
C510 N508 1.334 . S
C511 H503 0.930 . S
C511 C506 1.418 . S
C511 C507 1.353 . S
C512 H482 0.930 . S
C512 N513 1.330 . S
C512 C514 1.446 . S
N513 Co472 2.151 . S
N513 C512 1.330 . S
N513 C517 1.418 . S
C514 H493 0.929 . S
C514 C512 1.446 . S
C514 C515 1.332 . S
C515 H495 0.931 . S
C515 C514 1.332 . S
C515 C516 1.267 . S
C516 H484 0.929 . S
C516 C515 1.267 . S
C516 C517 1.251 . S
C517 H487 0.929 . S
C517 N513 1.418 . S
C517 C516 1.251 . S
C518 H485 0.930 . S
C518 C520 1.406 . S
C518 C523 1.261 . S
C519 H486 0.930 . S
C519 N521 1.325 . S
C519 C522 1.357 . S
C520 H488 0.928 . S
C520 C518 1.406 . S
C520 N521 1.261 . S
N521 Co472 2.214 . S
N521 C519 1.325 . S
N521 C520 1.261 . S
C522 H492 0.931 1_655 S
C522 C519 1.357 . S
C522 C523 1.312 . S
C523 H494 0.930 1_655 S
C523 C518 1.261 . S
C523 C522 1.312 . S
C524 O496 1.214 . S
C524 O504 1.234 . S
C525 H497 0.929 . S
C525 C528 1.391 . S
C525 C530 1.391 . S
C526 H498 0.929 . S
C526 C527 1.390 . S
C526 N529 1.391 . S
C527 H499 0.930 . S
C527 C526 1.390 . S
C527 C528 1.392 . S
C528 H500 0.929 . S
C528 C525 1.391 . S
C528 C527 1.392 . S
N529 Co473 2.257 . S
N529 C526 1.391 . S
N529 C530 1.388 . S
C530 H501 0.930 . S
C530 C525 1.391 . S
C530 N529 1.388 . S
Co531 O533 2.143 . S
Co531 O539 2.074 . S
Co531 O542 2.093 . S
Co531 O555 2.097 . S
Co531 N572 2.151 . S
Co531 N580 2.214 . S
Co532 O533 2.160 . S
Co532 O538 2.058 . S
Co532 O548 2.057 . S
Co532 O563 2.037 . S
Co532 N567 2.145 . S
Co532 N588 2.257 . S
O533 Co531 2.143 . S
O533 Co532 2.160 . S
C534 O535 1.278 . S
C534 O542 1.224 . S
O535 C534 1.278 . S
C536 O537 1.245 . S
C536 O548 1.232 . S
O537 C536 1.245 . S
O538 Co532 2.058 . S
O538 C564 1.269 . S
O539 Co531 2.074 . S
O539 C564 1.257 . S
H540 C565 0.930 . S
H541 C571 0.930 . S
O542 Co531 2.093 . S
O542 C534 1.224 . S
H543 C575 0.929 . S
H544 C577 0.930 . S
H545 C578 0.930 . S
H546 C576 0.929 . S
H547 C579 0.928 . S
O548 Co532 2.057 . S
O548 C536 1.232 . S
H549 C568 0.929 . S
H550 C569 0.929 . S
H551 C581 0.931 . S
H552 C573 0.929 . S
H553 C582 0.930 . S
H554 C574 0.931 . S
O555 Co531 2.097 . S
O555 C583 1.214 . S
H556 C584 0.929 . S
H557 C585 0.929 . S
H558 C586 0.930 . S
H559 C587 0.929 . S
H560 C589 0.930 . S
H561 C566 0.930 . S
H562 C570 0.972 . S
O563 Co532 2.037 . S
O563 C583 1.234 . S
C564 O538 1.269 . S
C564 O539 1.257 . S
C565 H540 0.930 . S
C565 C568 1.388 . S
C565 C570 1.418 . S
C566 H561 0.930 . S
C566 C569 1.404 . S
C566 C570 1.353 . S
N567 Co532 2.145 . S
N567 C568 1.397 . S
N567 C569 1.334 . S
C568 H549 0.929 . S
C568 C565 1.388 . S
C568 N567 1.397 . S
C569 H550 0.929 . S
C569 C566 1.404 . S
C569 N567 1.334 . S
C570 H562 0.972 . S
C570 C565 1.418 . S
C570 C566 1.353 . S
C571 H541 0.930 . S
C571 N572 1.330 . S
C571 C573 1.446 . S
N572 Co531 2.151 . S
N572 C571 1.330 . S
N572 C576 1.418 . S
C573 H552 0.929 . S
C573 C571 1.446 . S
C573 C574 1.332 . S
C574 H554 0.931 . S
C574 C573 1.332 . S
C574 C575 1.267 . S
C575 H543 0.929 . S
C575 C574 1.267 . S
C575 C576 1.251 . S
C576 H546 0.929 . S
C576 N572 1.418 . S
C576 C575 1.251 . S
C577 H544 0.930 . S
C577 C579 1.406 . S
C577 C582 1.261 . S
C578 H545 0.930 . S
C578 N580 1.325 . S
C578 C581 1.357 . S
C579 H547 0.928 . S
C579 C577 1.406 . S
C579 N580 1.261 . S
N580 Co531 2.214 . S
N580 C578 1.325 . S
N580 C579 1.261 . S
C581 H551 0.931 . S
C581 C578 1.357 . S
C581 C582 1.312 . S
C582 H553 0.930 . S
C582 C577 1.261 . S
C582 C581 1.312 . S
C583 O555 1.214 . S
C583 O563 1.234 . S
C584 H556 0.929 . S
C584 C587 1.391 . S
C584 C589 1.391 . S
C585 H557 0.929 . S
C585 C586 1.390 . S
C585 N588 1.391 . S
C586 H558 0.930 . S
C586 C585 1.390 . S
C586 C587 1.392 . S
C587 H559 0.929 . S
C587 C584 1.391 . S
C587 C586 1.392 . S
N588 Co532 2.257 . S
N588 C585 1.391 . S
N588 C589 1.388 . S
C589 H560 0.930 . S
C589 C584 1.391 . S
C589 N588 1.388 . S
Co590 O592 2.143 . S
Co590 O598 2.074 . S
Co590 O601 2.093 . S
Co590 O614 2.097 . S
Co590 N631 2.151 . S
Co590 N639 2.214 . S
Co591 O592 2.160 . S
Co591 O597 2.058 . S
Co591 O607 2.057 . S
Co591 O622 2.037 . S
Co591 N626 2.145 1_565 S
Co591 N647 2.257 1_565 S
O592 Co590 2.143 . S
O592 Co591 2.160 . S
C593 O594 1.278 . S
C593 O601 1.224 . S
O594 C593 1.278 . S
C595 O596 1.245 . S
C595 O607 1.232 . S
O596 C595 1.245 . S
O597 Co591 2.058 . S
O597 C623 1.269 . S
O598 Co590 2.074 . S
O598 C623 1.257 . S
H599 C624 0.930 . S
H600 C630 0.930 . S
O601 Co590 2.093 . S
O601 C593 1.224 . S
H602 C634 0.929 . S
H603 C636 0.930 . S
H604 C637 0.930 . S
H605 C635 0.929 . S
H606 C638 0.928 . S
O607 Co591 2.057 . S
O607 C595 1.232 . S
H608 C627 0.929 . S
H609 C628 0.929 . S
H610 C640 0.931 . S
H611 C632 0.929 . S
H612 C641 0.930 . S
H613 C633 0.931 . S
O614 Co590 2.097 . S
O614 C642 1.214 . S
H615 C643 0.929 . S
H616 C644 0.929 . S
H617 C645 0.930 . S
H618 C646 0.929 . S
H619 C648 0.930 . S
H620 C625 0.930 . S
H621 C629 0.930 . S
O622 Co591 2.037 . S
O622 C642 1.234 . S
C623 O597 1.269 . S
C623 O598 1.257 . S
C624 H599 0.930 . S
C624 C627 1.388 . S
C624 C629 1.418 . S
C625 H620 0.930 . S
C625 C628 1.404 . S
C625 C629 1.353 . S
N626 Co591 2.145 1_545 S
N626 C627 1.397 . S
N626 C628 1.334 . S
C627 H608 0.929 . S
C627 C624 1.388 . S
C627 N626 1.397 . S
C628 H609 0.929 . S
C628 C625 1.404 . S
C628 N626 1.334 . S
C629 H621 0.930 . S
C629 C624 1.418 . S
C629 C625 1.353 . S
C630 H600 0.930 . S
C630 N631 1.330 . S
C630 C632 1.446 . S
N631 Co590 2.151 . S
N631 C630 1.330 . S
N631 C635 1.418 . S
C632 H611 0.929 . S
C632 C630 1.446 . S
C632 C633 1.332 . S
C633 H613 0.931 . S
C633 C632 1.332 . S
C633 C634 1.267 . S
C634 H602 0.929 . S
C634 C633 1.267 . S
C634 C635 1.251 . S
C635 H605 0.929 . S
C635 N631 1.418 . S
C635 C634 1.251 . S
C636 H603 0.930 . S
C636 C638 1.406 . S
C636 C641 1.261 . S
C637 H604 0.930 . S
C637 N639 1.325 . S
C637 C640 1.357 . S
C638 H606 0.928 . S
C638 C636 1.406 . S
C638 N639 1.261 . S
N639 Co590 2.214 . S
N639 C637 1.325 . S
N639 C638 1.261 . S
C640 H610 0.931 . S
C640 C637 1.357 . S
C640 C641 1.312 . S
C641 H612 0.930 . S
C641 C636 1.261 . S
C641 C640 1.312 . S
C642 O614 1.214 . S
C642 O622 1.234 . S
C643 H615 0.929 . S
C643 C646 1.391 . S
C643 C648 1.391 . S
C644 H616 0.929 . S
C644 C645 1.390 . S
C644 N647 1.391 . S
C645 H617 0.930 . S
C645 C644 1.390 . S
C645 C646 1.392 . S
C646 H618 0.929 . S
C646 C643 1.391 . S
C646 C645 1.392 . S
N647 Co591 2.257 1_545 S
N647 C644 1.391 . S
N647 C648 1.388 . S
C648 H619 0.930 . S
C648 C643 1.391 . S
C648 N647 1.388 . S
Co649 O651 2.143 . S
Co649 O657 2.074 . S
Co649 O660 2.093 . S
Co649 O673 2.097 . S
Co649 N690 2.151 . S
Co649 N698 2.214 . S
Co650 O651 2.160 . S
Co650 O656 2.058 . S
Co650 O666 2.057 . S
Co650 O681 2.037 . S
Co650 N685 2.145 1_455 S
Co650 N706 2.257 1_455 S
O651 Co649 2.143 . S
O651 Co650 2.160 . S
C652 O653 1.278 . S
C652 O660 1.224 . S
O653 C652 1.278 . S
C654 O655 1.245 . S
C654 O666 1.232 . S
O655 C654 1.245 . S
O656 Co650 2.058 . S
O656 C682 1.269 . S
O657 Co649 2.074 . S
O657 C682 1.257 . S
H658 C683 0.930 . S
H659 C689 0.930 . S
O660 Co649 2.093 . S
O660 C652 1.224 . S
H661 C693 0.929 . S
H662 C695 0.930 . S
H663 C696 0.930 . S
H664 C694 0.929 . S
H665 C697 0.928 . S
O666 Co650 2.057 . S
O666 C654 1.232 . S
H667 C686 0.929 . S
H668 C687 0.929 . S
H669 C699 0.931 1_565 S
H670 C691 0.929 . S
H671 C700 0.930 1_565 S
H672 C692 0.931 . S
O673 Co649 2.097 . S
O673 C701 1.214 . S
H674 C702 0.929 . S
H675 C703 0.929 . S
H676 C704 0.930 . S
H677 C705 0.929 . S
H678 C707 0.930 . S
H679 C684 0.930 . S
H680 C688 0.930 . S
O681 Co650 2.037 . S
O681 C701 1.234 . S
C682 O656 1.269 . S
C682 O657 1.257 . S
C683 H658 0.930 . S
C683 C686 1.388 . S
C683 C688 1.418 . S
C684 H679 0.930 . S
C684 C687 1.404 . S
C684 C688 1.353 . S
N685 Co650 2.145 1_655 S
N685 C686 1.397 . S
N685 C687 1.334 . S
C686 H667 0.929 . S
C686 C683 1.388 . S
C686 N685 1.397 . S
C687 H668 0.929 . S
C687 C684 1.404 . S
C687 N685 1.334 . S
C688 H680 0.930 . S
C688 C683 1.418 . S
C688 C684 1.353 . S
C689 H659 0.930 . S
C689 N690 1.330 . S
C689 C691 1.446 . S
N690 Co649 2.151 . S
N690 C689 1.330 . S
N690 C694 1.418 . S
C691 H670 0.929 . S
C691 C689 1.446 . S
C691 C692 1.332 . S
C692 H672 0.931 . S
C692 C691 1.332 . S
C692 C693 1.267 . S
C693 H661 0.929 . S
C693 C692 1.267 . S
C693 C694 1.251 . S
C694 H664 0.929 . S
C694 N690 1.418 . S
C694 C693 1.251 . S
C695 H662 0.930 . S
C695 C697 1.406 . S
C695 C700 1.261 . S
C696 H663 0.930 . S
C696 N698 1.325 . S
C696 C699 1.357 . S
C697 H665 0.928 . S
C697 C695 1.406 . S
C697 N698 1.261 . S
N698 Co649 2.214 . S
N698 C696 1.325 . S
N698 C697 1.261 . S
C699 H669 0.931 1_545 S
C699 C696 1.357 . S
C699 C700 1.312 . S
C700 H671 0.930 1_545 S
C700 C695 1.261 . S
C700 C699 1.312 . S
C701 O673 1.214 . S
C701 O681 1.234 . S
C702 H674 0.929 . S
C702 C705 1.391 . S
C702 C707 1.391 . S
C703 H675 0.929 . S
C703 C704 1.390 . S
C703 N706 1.391 . S
C704 H676 0.930 . S
C704 C703 1.390 . S
C704 C705 1.392 . S
C705 H677 0.929 . S
C705 C702 1.391 . S
C705 C704 1.392 . S
N706 Co650 2.257 1_655 S
N706 C703 1.391 . S
N706 C707 1.388 . S
C707 H678 0.930 . S
C707 C702 1.391 . S
C707 N706 1.388 . S
Co708 O710 2.143 . S
Co708 O716 2.074 . S
Co708 O719 2.093 . S
Co708 O732 2.097 . S
Co708 N749 2.151 . S
Co708 N757 2.214 . S
Co709 O710 2.160 . S
Co709 O715 2.058 . S
Co709 O725 2.057 . S
Co709 O740 2.037 . S
Co709 N744 2.145 1_565 S
Co709 N765 2.257 1_565 S
O710 Co708 2.143 . S
O710 Co709 2.160 . S
C711 O712 1.278 . S
C711 O719 1.224 . S
O712 C711 1.278 . S
C713 O714 1.245 . S
C713 O725 1.232 . S
O714 C713 1.245 . S
O715 Co709 2.058 . S
O715 C741 1.269 . S
O716 Co708 2.074 . S
O716 C741 1.257 . S
H717 C742 0.930 . S
H718 C748 0.930 . S
O719 Co708 2.093 . S
O719 C711 1.224 . S
H720 C752 0.929 . S
H721 C754 0.930 . S
H722 C755 0.930 . S
H723 C753 0.929 . S
H724 C756 0.928 . S
O725 Co709 2.057 . S
O725 C713 1.232 . S
H726 C745 0.929 . S
H727 C746 0.929 . S
H728 C758 0.931 1_455 S
H729 C750 0.929 . S
H730 C759 0.930 1_455 S
H731 C751 0.931 . S
O732 Co708 2.097 . S
O732 C760 1.214 . S
H733 C761 0.929 . S
H734 C762 0.929 . S
H735 C763 0.930 . S
H736 C764 0.929 . S
H737 C766 0.930 . S
H738 C743 0.930 . S
H739 C747 0.930 . S
O740 Co709 2.037 . S
O740 C760 1.234 . S
C741 O715 1.269 . S
C741 O716 1.257 . S
C742 H717 0.930 . S
C742 C745 1.388 . S
C742 C747 1.418 . S
C743 H738 0.930 . S
C743 C746 1.404 . S
C743 C747 1.353 . S
N744 Co709 2.145 1_545 S
N744 C745 1.397 . S
N744 C746 1.334 . S
C745 H726 0.929 . S
C745 C742 1.388 . S
C745 N744 1.397 . S
C746 H727 0.929 . S
C746 C743 1.404 . S
C746 N744 1.334 . S
C747 H739 0.930 . S
C747 C742 1.418 . S
C747 C743 1.353 . S
C748 H718 0.930 . S
C748 N749 1.330 . S
C748 C750 1.446 . S
N749 Co708 2.151 . S
N749 C748 1.330 . S
N749 C753 1.418 . S
C750 H729 0.929 . S
C750 C748 1.446 . S
C750 C751 1.332 . S
C751 H731 0.931 . S
C751 C750 1.332 . S
C751 C752 1.267 . S
C752 H720 0.929 . S
C752 C751 1.267 . S
C752 C753 1.251 . S
C753 H723 0.929 . S
C753 N749 1.418 . S
C753 C752 1.251 . S
C754 H721 0.930 . S
C754 C756 1.406 . S
C754 C759 1.261 . S
C755 H722 0.930 . S
C755 N757 1.325 . S
C755 C758 1.357 . S
C756 H724 0.928 . S
C756 C754 1.406 . S
C756 N757 1.261 . S
N757 Co708 2.214 . S
N757 C755 1.325 . S
N757 C756 1.261 . S
C758 H728 0.931 1_655 S
C758 C755 1.357 . S
C758 C759 1.312 . S
C759 H730 0.930 1_655 S
C759 C754 1.261 . S
C759 C758 1.312 . S
C760 O732 1.214 . S
C760 O740 1.234 . S
C761 H733 0.929 . S
C761 C764 1.391 . S
C761 C766 1.391 . S
C762 H734 0.929 . S
C762 C763 1.390 . S
C762 N765 1.391 . S
C763 H735 0.930 . S
C763 C762 1.390 . S
C763 C764 1.392 . S
C764 H736 0.929 . S
C764 C761 1.391 . S
C764 C763 1.392 . S
N765 Co709 2.257 1_545 S
N765 C762 1.391 . S
N765 C766 1.388 . S
C766 H737 0.930 . S
C766 C761 1.391 . S
C766 N765 1.388 . S
Co767 O769 2.143 . S
Co767 O775 2.074 . S
Co767 O778 2.093 . S
Co767 O791 2.097 . S
Co767 N808 2.151 . S
Co767 N816 2.214 . S
Co768 O769 2.160 . S
Co768 O774 2.058 . S
Co768 O784 2.057 . S
Co768 O799 2.037 . S
Co768 N803 2.145 1_455 S
Co768 N824 2.257 1_455 S
O769 Co767 2.143 . S
O769 Co768 2.160 . S
C770 O771 1.278 . S
C770 O778 1.224 . S
O771 C770 1.278 . S
C772 O773 1.245 . S
C772 O784 1.232 . S
O773 C772 1.245 . S
O774 Co768 2.058 . S
O774 C800 1.269 . S
O775 Co767 2.074 . S
O775 C800 1.257 . S
H776 C801 0.930 . S
H777 C807 0.930 . S
O778 Co767 2.093 . S
O778 C770 1.224 . S
H779 C811 0.929 . S
H780 C813 0.930 . S
H781 C814 0.930 . S
H782 C812 0.929 . S
H783 C815 0.928 . S
O784 Co768 2.057 . S
O784 C772 1.232 . S
H785 C804 0.929 . S
H786 C805 0.929 . S
H787 C817 0.931 . S
H788 C809 0.929 . S
H789 C818 0.930 . S
H790 C810 0.931 . S
O791 Co767 2.097 . S
O791 C819 1.214 . S
H792 C820 0.929 . S
H793 C821 0.929 . S
H794 C822 0.930 . S
H795 C823 0.929 . S
H796 C825 0.930 . S
H797 C802 0.930 . S
H798 C806 0.930 . S
O799 Co768 2.037 . S
O799 C819 1.234 . S
C800 O774 1.269 . S
C800 O775 1.257 . S
C801 H776 0.930 . S
C801 C804 1.388 . S
C801 C806 1.418 . S
C802 H797 0.930 . S
C802 C805 1.404 . S
C802 C806 1.353 . S
N803 Co768 2.145 1_655 S
N803 C804 1.397 . S
N803 C805 1.334 . S
C804 H785 0.929 . S
C804 C801 1.388 . S
C804 N803 1.397 . S
C805 H786 0.929 . S
C805 C802 1.404 . S
C805 N803 1.334 . S
C806 H798 0.930 . S
C806 C801 1.418 . S
C806 C802 1.353 . S
C807 H777 0.930 . S
C807 N808 1.330 . S
C807 C809 1.446 . S
N808 Co767 2.151 . S
N808 C807 1.330 . S
N808 C812 1.418 . S
C809 H788 0.929 . S
C809 C807 1.446 . S
C809 C810 1.332 . S
C810 H790 0.931 . S
C810 C809 1.332 . S
C810 C811 1.267 . S
C811 H779 0.929 . S
C811 C810 1.267 . S
C811 C812 1.251 . S
C812 H782 0.929 . S
C812 N808 1.418 . S
C812 C811 1.251 . S
C813 H780 0.930 . S
C813 C815 1.406 . S
C813 C818 1.261 . S
C814 H781 0.930 . S
C814 N816 1.325 . S
C814 C817 1.357 . S
C815 H783 0.928 . S
C815 C813 1.406 . S
C815 N816 1.261 . S
N816 Co767 2.214 . S
N816 C814 1.325 . S
N816 C815 1.261 . S
C817 H787 0.931 . S
C817 C814 1.357 . S
C817 C818 1.312 . S
C818 H789 0.930 . S
C818 C813 1.261 . S
C818 C817 1.312 . S
C819 O791 1.214 . S
C819 O799 1.234 . S
C820 H792 0.929 . S
C820 C823 1.391 . S
C820 C825 1.391 . S
C821 H793 0.929 . S
C821 C822 1.390 . S
C821 N824 1.391 . S
C822 H794 0.930 . S
C822 C821 1.390 . S
C822 C823 1.392 . S
C823 H795 0.929 . S
C823 C820 1.391 . S
C823 C822 1.392 . S
N824 Co768 2.257 1_655 S
N824 C821 1.391 . S
N824 C825 1.388 . S
C825 H796 0.930 . S
C825 C820 1.391 . S
C825 N824 1.388 . S
Co826 O828 2.143 . S
Co826 O834 2.074 . S
Co826 O837 2.093 . S
Co826 O850 2.097 . S
Co826 N867 2.151 . S
Co826 N875 2.214 . S
Co827 O828 2.160 . S
Co827 O833 2.058 . S
Co827 O843 2.057 . S
Co827 O858 2.037 . S
Co827 N862 2.145 . S
Co827 N883 2.257 . S
O828 Co826 2.143 . S
O828 Co827 2.160 . S
C829 O830 1.278 . S
C829 O837 1.224 . S
O830 C829 1.278 . S
C831 O832 1.245 . S
C831 O843 1.232 . S
O832 C831 1.245 . S
O833 Co827 2.058 . S
O833 C859 1.269 . S
O834 Co826 2.074 . S
O834 C859 1.257 . S
H835 C860 0.930 . S
H836 C866 0.930 . S
O837 Co826 2.093 . S
O837 C829 1.224 . S
H838 C870 0.929 . S
H839 C872 0.930 . S
H840 C873 0.930 . S
H841 C871 0.929 . S
H842 C874 0.928 . S
O843 Co827 2.057 . S
O843 C831 1.232 . S
H844 C863 0.929 . S
H845 C864 0.929 . S
H846 C876 0.931 . S
H847 C868 0.929 . S
H848 C877 0.930 . S
H849 C869 0.931 . S
O850 Co826 2.097 . S
O850 C878 1.214 . S
H851 C879 0.929 . S
H852 C880 0.929 . S
H853 C881 0.930 . S
H854 C882 0.929 . S
H855 C884 0.930 . S
H856 C861 0.930 . S
H857 C865 0.972 . S
O858 Co827 2.037 . S
O858 C878 1.234 . S
C859 O833 1.269 . S
C859 O834 1.257 . S
C860 H835 0.930 . S
C860 C863 1.388 . S
C860 C865 1.418 . S
C861 H856 0.930 . S
C861 C864 1.404 . S
C861 C865 1.353 . S
N862 Co827 2.145 . S
N862 C863 1.397 . S
N862 C864 1.334 . S
C863 H844 0.929 . S
C863 C860 1.388 . S
C863 N862 1.397 . S
C864 H845 0.929 . S
C864 C861 1.404 . S
C864 N862 1.334 . S
C865 H857 0.972 . S
C865 C860 1.418 . S
C865 C861 1.353 . S
C866 H836 0.930 . S
C866 N867 1.330 . S
C866 C868 1.446 . S
N867 Co826 2.151 . S
N867 C866 1.330 . S
N867 C871 1.418 . S
C868 H847 0.929 . S
C868 C866 1.446 . S
C868 C869 1.332 . S
C869 H849 0.931 . S
C869 C868 1.332 . S
C869 C870 1.267 . S
C870 H838 0.929 . S
C870 C869 1.267 . S
C870 C871 1.251 . S
C871 H841 0.929 . S
C871 N867 1.418 . S
C871 C870 1.251 . S
C872 H839 0.930 . S
C872 C874 1.406 . S
C872 C877 1.261 . S
C873 H840 0.930 . S
C873 N875 1.325 . S
C873 C876 1.357 . S
C874 H842 0.928 . S
C874 C872 1.406 . S
C874 N875 1.261 . S
N875 Co826 2.214 . S
N875 C873 1.325 . S
N875 C874 1.261 . S
C876 H846 0.931 . S
C876 C873 1.357 . S
C876 C877 1.312 . S
C877 H848 0.930 . S
C877 C872 1.261 . S
C877 C876 1.312 . S
C878 O850 1.214 . S
C878 O858 1.234 . S
C879 H851 0.929 . S
C879 C882 1.391 . S
C879 C884 1.391 . S
C880 H852 0.929 . S
C880 C881 1.390 . S
C880 N883 1.391 . S
C881 H853 0.930 . S
C881 C880 1.390 . S
C881 C882 1.392 . S
C882 H854 0.929 . S
C882 C879 1.391 . S
C882 C881 1.392 . S
N883 Co827 2.257 . S
N883 C880 1.391 . S
N883 C884 1.388 . S
C884 H855 0.930 . S
C884 C879 1.391 . S
C884 N883 1.388 . S
Co885 O887 2.143 . S
Co885 O893 2.074 . S
Co885 O896 2.093 . S
Co885 O909 2.097 . S
Co885 N926 2.151 . S
Co885 N934 2.214 . S
Co886 O887 2.160 . S
Co886 O892 2.058 . S
Co886 O902 2.057 . S
Co886 O917 2.037 . S
Co886 N921 2.145 . S
Co886 N942 2.257 . S
O887 Co885 2.143 . S
O887 Co886 2.160 . S
C888 O889 1.278 . S
C888 O896 1.224 . S
O889 C888 1.278 . S
C890 O891 1.245 . S
C890 O902 1.232 . S
O891 C890 1.245 . S
O892 Co886 2.058 . S
O892 C918 1.269 . S
O893 Co885 2.074 . S
O893 C918 1.257 . S
H894 C919 0.930 . S
H895 C925 0.930 . S
O896 Co885 2.093 . S
O896 C888 1.224 . S
H897 C929 0.929 . S
H898 C931 0.930 . S
H899 C932 0.930 . S
H900 C930 0.929 . S
H901 C933 0.928 . S
O902 Co886 2.057 . S
O902 C890 1.232 . S
H903 C922 0.929 . S
H904 C923 0.929 . S
H905 C935 0.931 1_565 S
H906 C927 0.929 . S
H907 C936 0.930 1_565 S
H908 C928 0.931 . S
O909 Co885 2.097 . S
O909 C937 1.214 . S
H910 C938 0.929 . S
H911 C939 0.929 . S
H912 C940 0.930 . S
H913 C941 0.929 . S
H914 C943 0.930 . S
H915 C920 0.930 . S
H916 C924 0.930 . S
O917 Co886 2.037 . S
O917 C937 1.234 . S
C918 O892 1.269 . S
C918 O893 1.257 . S
C919 H894 0.930 . S
C919 C922 1.388 . S
C919 C924 1.418 . S
C920 H915 0.930 . S
C920 C923 1.404 . S
C920 C924 1.353 . S
N921 Co886 2.145 . S
N921 C922 1.397 . S
N921 C923 1.334 . S
C922 H903 0.929 . S
C922 C919 1.388 . S
C922 N921 1.397 . S
C923 H904 0.929 . S
C923 C920 1.404 . S
C923 N921 1.334 . S
C924 H916 0.930 . S
C924 C919 1.418 . S
C924 C920 1.353 . S
C925 H895 0.930 . S
C925 N926 1.330 . S
C925 C927 1.446 . S
N926 Co885 2.151 . S
N926 C925 1.330 . S
N926 C930 1.418 . S
C927 H906 0.929 . S
C927 C925 1.446 . S
C927 C928 1.332 . S
C928 H908 0.931 . S
C928 C927 1.332 . S
C928 C929 1.267 . S
C929 H897 0.929 . S
C929 C928 1.267 . S
C929 C930 1.251 . S
C930 H900 0.929 . S
C930 N926 1.418 . S
C930 C929 1.251 . S
C931 H898 0.930 . S
C931 C933 1.406 . S
C931 C936 1.261 . S
C932 H899 0.930 . S
C932 N934 1.325 . S
C932 C935 1.357 . S
C933 H901 0.928 . S
C933 C931 1.406 . S
C933 N934 1.261 . S
N934 Co885 2.214 . S
N934 C932 1.325 . S
N934 C933 1.261 . S
C935 H905 0.931 1_545 S
C935 C932 1.357 . S
C935 C936 1.312 . S
C936 H907 0.930 1_545 S
C936 C931 1.261 . S
C936 C935 1.312 . S
C937 O909 1.214 . S
C937 O917 1.234 . S
C938 H910 0.929 . S
C938 C941 1.391 . S
C938 C943 1.391 . S
C939 H911 0.929 . S
C939 C940 1.390 . S
C939 N942 1.391 . S
C940 H912 0.930 . S
C940 C939 1.390 . S
C940 C941 1.392 . S
C941 H913 0.929 . S
C941 C938 1.391 . S
C941 C940 1.392 . S
N942 Co886 2.257 . S
N942 C939 1.391 . S
N942 C943 1.388 . S
C943 H914 0.930 . S
C943 C938 1.391 . S
C943 N942 1.388 . S
C944 C945 1.363 . S
C944 C950 1.379 1_655 S
C944 N952 1.356 . S
C945 C944 1.363 . S
C945 C951 1.363 1_565 S
C946 C947 1.363 . S
C946 C951 1.379 1_455 S
C946 N953 1.356 . S
C947 C946 1.363 . S
C947 C950 1.363 1_545 S
N948 C950 1.356 . S
N948 H960 0.984 . S
N948 H961 0.985 1_565 S
N949 C951 1.356 . S
N949 H954 0.984 1_545 S
N949 H955 0.985 . S
C950 C944 1.379 1_455 S
C950 C947 1.363 1_565 S
C950 N948 1.356 . S
C951 C945 1.363 1_545 S
C951 C946 1.379 1_655 S
C951 N949 1.356 . S
N952 C944 1.356 . S
N952 H958 0.984 . S
N952 H959 0.984 . S
N953 C946 1.356 . S
N953 H956 0.984 . S
N953 H957 0.985 . S
H954 N949 0.984 1_565 S
H955 N949 0.985 . S
H956 N953 0.984 . S
H957 N953 0.985 . S
H958 N952 0.984 . S
H959 N952 0.984 . S
H960 N948 0.984 . S
H961 N948 0.985 1_545 S
C962 C963 1.363 . S
C962 C968 1.379 . S
C962 N970 1.356 . S
C963 C962 1.363 . S
C963 C969 1.363 1_655 S
C964 C965 1.363 . S
C964 C969 1.379 . S
C964 N971 1.356 . S
C965 C964 1.363 . S
C965 C968 1.363 1_455 S
N966 C968 1.356 . S
N966 H978 0.984 . S
N966 H979 0.985 1_655 S
N967 C969 1.356 . S
N967 H972 0.984 1_455 S
N967 H973 0.985 . S
C968 C962 1.379 . S
C968 C965 1.363 1_655 S
C968 N966 1.356 . S
C969 C963 1.363 1_455 S
C969 C964 1.379 . S
C969 N967 1.356 . S
N970 C962 1.356 . S
N970 H976 0.984 . S
N970 H977 0.984 . S
N971 C964 1.356 . S
N971 H974 0.984 . S
N971 H975 0.985 . S
H972 N967 0.984 1_655 S
H973 N967 0.985 . S
H974 N971 0.984 . S
H975 N971 0.985 . S
H976 N970 0.984 . S
H977 N970 0.984 . S
H978 N966 0.984 . S
H979 N966 0.985 1_455 S
C980 C981 1.363 . S
C980 C986 1.379 . S
C980 N988 1.356 . S
C981 C980 1.363 . S
C981 C987 1.363 . S
C982 C983 1.363 . S
C982 C987 1.379 . S
C982 N989 1.356 . S
C983 C982 1.363 . S
C983 C986 1.363 . S
N984 C986 1.356 . S
N984 H996 0.984 . S
N984 H997 0.985 . S
N985 C987 1.356 . S
N985 H990 0.984 . S
N985 H991 0.985 . S
C986 C980 1.379 . S
C986 C983 1.363 . S
C986 N984 1.356 . S
C987 C981 1.363 . S
C987 C982 1.379 . S
C987 N985 1.356 . S
N988 C980 1.356 . S
N988 H994 0.984 . S
N988 H995 0.984 . S
N989 C982 1.356 . S
N989 H992 0.984 . S
N989 H993 0.985 . S
H990 N985 0.984 . S
H991 N985 0.985 . S
H992 N989 0.984 . S
H993 N989 0.985 . S
H994 N988 0.984 . S
H995 N988 0.984 . S
H996 N984 0.984 . S
H997 N984 0.985 . S
C998 C999 1.363 . S
C998 C1004 1.379 1_545 S
C998 N1006 1.356 . S
C999 C998 1.363 . S
C999 C1005 1.363 . S
C1000 C1001 1.363 . S
C1000 C1005 1.379 1_565 S
C1000 N1007 1.356 . S
C1001 C1000 1.363 . S
C1001 C1004 1.363 . S
N1002 C1004 1.356 . S
N1002 H1014 0.984 . S
N1002 H1015 0.985 . S
N1003 C1005 1.356 . S
N1003 H1008 0.984 . S
N1003 H1009 0.985 . S
C1004 C998 1.379 1_565 S
C1004 C1001 1.363 . S
C1004 N1002 1.356 . S
C1005 C999 1.363 . S
C1005 C1000 1.379 1_545 S
C1005 N1003 1.356 . S
N1006 C998 1.356 . S
N1006 H1012 0.984 . S
N1006 H1013 0.984 . S
N1007 C1000 1.356 . S
N1007 H1010 0.984 . S
N1007 H1011 0.985 . S
H1008 N1003 0.984 . S
H1009 N1003 0.985 . S
H1010 N1007 0.984 . S
H1011 N1007 0.985 . S
H1012 N1006 0.984 . S
H1013 N1006 0.984 . S
H1014 N1002 0.984 . S
H1015 N1002 0.985 . S
C1016 C1017 1.363 . S
C1016 C1022 1.379 1_455 S
C1016 N1024 1.356 . S
C1017 C1016 1.363 . S
C1017 C1023 1.363 . S
C1018 C1019 1.363 . S
C1018 C1023 1.379 1_655 S
C1018 N1025 1.356 . S
C1019 C1018 1.363 . S
C1019 C1022 1.363 . S
N1020 C1022 1.356 . S
N1020 H1032 0.984 . S
N1020 H1033 0.985 . S
N1021 C1023 1.356 . S
N1021 H1026 0.984 . S
N1021 H1027 0.985 . S
C1022 C1016 1.379 1_655 S
C1022 C1019 1.363 . S
C1022 N1020 1.356 . S
C1023 C1017 1.363 . S
C1023 C1018 1.379 1_455 S
C1023 N1021 1.356 . S
N1024 C1016 1.356 . S
N1024 H1030 0.984 . S
N1024 H1031 0.984 . S
N1025 C1018 1.356 . S
N1025 H1028 0.984 . S
N1025 H1029 0.985 . S
H1026 N1021 0.984 . S
H1027 N1021 0.985 . S
H1028 N1025 0.984 . S
H1029 N1025 0.985 . S
H1030 N1024 0.984 . S
H1031 N1024 0.984 . S
H1032 N1020 0.984 . S
H1033 N1020 0.985 . S
C1034 C1035 1.363 . S
C1034 C1040 1.379 . S
C1034 N1042 1.356 . S
C1035 C1034 1.363 . S
C1035 C1041 1.363 . S
C1036 C1037 1.363 . S
C1036 C1041 1.379 . S
C1036 N1043 1.356 . S
C1037 C1036 1.363 . S
C1037 C1040 1.363 . S
N1038 C1040 1.356 . S
N1038 H1050 0.984 . S
N1038 H1051 0.985 . S
N1039 C1041 1.356 . S
N1039 H1044 0.984 . S
N1039 H1045 0.985 . S
C1040 C1034 1.379 . S
C1040 C1037 1.363 . S
C1040 N1038 1.356 . S
C1041 C1035 1.363 . S
C1041 C1036 1.379 . S
C1041 N1039 1.356 . S
N1042 C1034 1.356 . S
N1042 H1048 0.984 . S
N1042 H1049 0.984 . S
N1043 C1036 1.356 . S
N1043 H1046 0.984 . S
N1043 H1047 0.985 . S
H1044 N1039 0.984 . S
H1045 N1039 0.985 . S
H1046 N1043 0.984 . S
H1047 N1043 0.985 . S
H1048 N1042 0.984 . S
H1049 N1042 0.984 . S
H1050 N1038 0.984 . S
H1051 N1038 0.985 . S
C1052 C1053 1.363 . S
C1052 C1058 1.379 . S
C1052 N1060 1.356 . S
C1053 C1052 1.363 . S
C1053 C1059 1.363 1_545 S
C1054 C1055 1.363 . S
C1054 C1059 1.379 . S
C1054 N1061 1.356 . S
C1055 C1054 1.363 . S
C1055 C1058 1.363 1_565 S
N1056 C1058 1.356 . S
N1056 H1068 0.984 . S
N1056 H1069 0.985 1_545 S
N1057 C1059 1.356 . S
N1057 H1062 0.984 1_565 S
N1057 H1063 0.985 . S
C1058 C1052 1.379 . S
C1058 C1055 1.363 1_545 S
C1058 N1056 1.356 . S
C1059 C1053 1.363 1_565 S
C1059 C1054 1.379 . S
C1059 N1057 1.356 . S
N1060 C1052 1.356 . S
N1060 H1066 0.984 . S
N1060 H1067 0.984 . S
N1061 C1054 1.356 . S
N1061 H1064 0.984 . S
N1061 H1065 0.985 . S
H1062 N1057 0.984 1_545 S
H1063 N1057 0.985 . S
H1064 N1061 0.984 . S
H1065 N1061 0.985 . S
H1066 N1060 0.984 . S
H1067 N1060 0.984 . S
H1068 N1056 0.984 . S
H1069 N1056 0.985 1_565 S
C1070 C1071 1.363 1_655 S
C1070 C1076 1.379 1_545 S
C1070 N1078 1.356 . S
C1071 C1070 1.363 1_455 S
C1071 C1077 1.363 . S
C1072 C1073 1.363 1_455 S
C1072 C1077 1.379 1_565 S
C1072 N1079 1.356 . S
C1073 C1072 1.363 1_655 S
C1073 C1076 1.363 . S
N1074 C1076 1.356 . S
N1074 H1086 0.984 . S
N1074 H1087 0.985 . S
N1075 C1077 1.356 . S
N1075 H1080 0.984 . S
N1075 H1081 0.985 . S
C1076 C1070 1.379 1_565 S
C1076 C1073 1.363 . S
C1076 N1074 1.356 . S
C1077 C1071 1.363 . S
C1077 C1072 1.379 1_545 S
C1077 N1075 1.356 . S
N1078 C1070 1.356 . S
N1078 H1084 0.984 . S
N1078 H1085 0.984 1_655 S
N1079 C1072 1.356 . S
N1079 H1082 0.984 1_455 S
N1079 H1083 0.985 . S
H1080 N1075 0.984 . S
H1081 N1075 0.985 . S
H1082 N1079 0.984 1_655 S
H1083 N1079 0.985 . S
H1084 N1078 0.984 . S
H1085 N1078 0.984 1_455 S
H1086 N1074 0.984 . S
H1087 N1074 0.985 . S
C1088 C1089 1.363 1_545 S
C1088 C1094 1.379 . S
C1088 N1096 1.356 . S
C1089 C1088 1.363 1_565 S
C1089 C1095 1.363 . S
C1090 C1091 1.363 1_565 S
C1090 C1095 1.379 . S
C1090 N1097 1.356 . S
C1091 C1090 1.363 1_545 S
C1091 C1094 1.363 . S
N1092 C1094 1.356 . S
N1092 H1104 0.984 . S
N1092 H1105 0.985 . S
N1093 C1095 1.356 . S
N1093 H1098 0.984 . S
N1093 H1099 0.985 . S
C1094 C1088 1.379 . S
C1094 C1091 1.363 . S
C1094 N1092 1.356 . S
C1095 C1089 1.363 . S
C1095 C1090 1.379 . S
C1095 N1093 1.356 . S
N1096 C1088 1.356 . S
N1096 H1102 0.984 . S
N1096 H1103 0.984 1_545 S
N1097 C1090 1.356 . S
N1097 H1100 0.984 1_565 S
N1097 H1101 0.985 . S
H1098 N1093 0.984 . S
H1099 N1093 0.985 . S
H1100 N1097 0.984 1_545 S
H1101 N1097 0.985 . S
H1102 N1096 0.984 . S
H1103 N1096 0.984 1_565 S
H1104 N1092 0.984 . S
H1105 N1092 0.985 . S
C1106 C1107 1.363 . S
C1106 C1112 1.379 1_565 S
C1106 N1114 1.356 . S
C1107 C1106 1.363 . S
C1107 C1113 1.363 1_655 S
C1108 C1109 1.363 . S
C1108 C1113 1.379 1_545 S
C1108 N1115 1.356 . S
C1109 C1108 1.363 . S
C1109 C1112 1.363 1_455 S
N1110 C1112 1.356 . S
N1110 H1122 0.984 . S
N1110 H1123 0.985 1_655 S
N1111 C1113 1.356 . S
N1111 H1116 0.984 1_455 S
N1111 H1117 0.985 . S
C1112 C1106 1.379 1_545 S
C1112 C1109 1.363 1_655 S
C1112 N1110 1.356 . S
C1113 C1107 1.363 1_455 S
C1113 C1108 1.379 1_565 S
C1113 N1111 1.356 . S
N1114 C1106 1.356 . S
N1114 H1120 0.984 . S
N1114 H1121 0.984 . S
N1115 C1108 1.356 . S
N1115 H1118 0.984 . S
N1115 H1119 0.985 . S
H1116 N1111 0.984 1_655 S
H1117 N1111 0.985 . S
H1118 N1115 0.984 . S
H1119 N1115 0.985 . S
H1120 N1114 0.984 . S
H1121 N1114 0.984 . S
H1122 N1110 0.984 . S
H1123 N1110 0.985 1_455 S
C1124 C1125 1.363 . S
C1124 C1130 1.379 1_455 S
C1124 N1132 1.356 . S
C1125 C1124 1.363 . S
C1125 C1131 1.363 . S
C1126 C1127 1.363 . S
C1126 C1131 1.379 1_655 S
C1126 N1133 1.356 . S
C1127 C1126 1.363 . S
C1127 C1130 1.363 . S
N1128 C1130 1.356 . S
N1128 H1140 0.984 . S
N1128 H1141 0.985 . S
N1129 C1131 1.356 . S
N1129 H1134 0.984 . S
N1129 H1135 0.985 . S
C1130 C1124 1.379 1_655 S
C1130 C1127 1.363 . S
C1130 N1128 1.356 . S
C1131 C1125 1.363 . S
C1131 C1126 1.379 1_455 S
C1131 N1129 1.356 . S
N1132 C1124 1.356 . S
N1132 H1138 0.984 . S
N1132 H1139 0.984 . S
N1133 C1126 1.356 . S
N1133 H1136 0.984 . S
N1133 H1137 0.985 . S
H1134 N1129 0.984 . S
H1135 N1129 0.985 . S
H1136 N1133 0.984 . S
H1137 N1133 0.985 . S
H1138 N1132 0.984 . S
H1139 N1132 0.984 . S
H1140 N1128 0.984 . S
H1141 N1128 0.985 . S
C1142 C1143 1.363 . S
C1142 C1148 1.379 . S
C1142 N1150 1.356 . S
C1143 C1142 1.363 . S
C1143 C1149 1.363 . S
C1144 C1145 1.363 . S
C1144 C1149 1.379 . S
C1144 N1151 1.356 . S
C1145 C1144 1.363 . S
C1145 C1148 1.363 . S
N1146 C1148 1.356 . S
N1146 H1158 0.984 . S
N1146 H1159 0.985 . S
N1147 C1149 1.356 . S
N1147 H1152 0.984 . S
N1147 H1153 0.985 . S
C1148 C1142 1.379 . S
C1148 C1145 1.363 . S
C1148 N1146 1.356 . S
C1149 C1143 1.363 . S
C1149 C1144 1.379 . S
C1149 N1147 1.356 . S
N1150 C1142 1.356 . S
N1150 H1156 0.984 . S
N1150 H1157 0.984 . S
N1151 C1144 1.356 . S
N1151 H1154 0.984 . S
N1151 H1155 0.985 . S
H1152 N1147 0.984 . S
H1153 N1147 0.985 . S
H1154 N1151 0.984 . S
H1155 N1151 0.985 . S
H1156 N1150 0.984 . S
H1157 N1150 0.984 . S
H1158 N1146 0.984 . S
H1159 N1146 0.985 . S
C1160 C1161 1.363 . S
C1160 C1166 1.379 . S
C1160 N1168 1.356 . S
C1161 C1160 1.363 . S
C1161 C1167 1.363 . S
C1162 C1163 1.363 . S
C1162 C1167 1.379 . S
C1162 N1169 1.356 . S
C1163 C1162 1.363 . S
C1163 C1166 1.363 . S
N1164 C1166 1.356 . S
N1164 H1176 0.984 . S
N1164 H1177 0.985 . S
N1165 C1167 1.356 . S
N1165 H1170 0.984 . S
N1165 H1171 0.985 . S
C1166 C1160 1.379 . S
C1166 C1163 1.363 . S
C1166 N1164 1.356 . S
C1167 C1161 1.363 . S
C1167 C1162 1.379 . S
C1167 N1165 1.356 . S
N1168 C1160 1.356 . S
N1168 H1174 0.984 . S
N1168 H1175 0.984 . S
N1169 C1162 1.356 . S
N1169 H1172 0.984 . S
N1169 H1173 0.985 . S
H1170 N1165 0.984 . S
H1171 N1165 0.985 . S
H1172 N1169 0.984 . S
H1173 N1169 0.985 . S
H1174 N1168 0.984 . S
H1175 N1168 0.984 . S
H1176 N1164 0.984 . S
H1177 N1164 0.985 . S
C1178 C1179 1.363 . S
C1178 C1184 1.379 1_565 S
C1178 N1186 1.356 . S
C1179 C1178 1.363 . S
C1179 C1185 1.363 . S
C1180 C1181 1.363 . S
C1180 C1185 1.379 1_545 S
C1180 N1187 1.356 . S
C1181 C1180 1.363 . S
C1181 C1184 1.363 . S
N1182 C1184 1.356 . S
N1182 H1194 0.984 . S
N1182 H1195 0.985 . S
N1183 C1185 1.356 . S
N1183 H1188 0.984 . S
N1183 H1189 0.985 . S
C1184 C1178 1.379 1_545 S
C1184 C1181 1.363 . S
C1184 N1182 1.356 . S
C1185 C1179 1.363 . S
C1185 C1180 1.379 1_565 S
C1185 N1183 1.356 . S
N1186 C1178 1.356 . S
N1186 H1192 0.984 . S
N1186 H1193 0.984 . S
N1187 C1180 1.356 . S
N1187 H1190 0.984 . S
N1187 H1191 0.985 . S
H1188 N1183 0.984 . S
H1189 N1183 0.985 . S
H1190 N1187 0.984 . S
H1191 N1187 0.985 . S
H1192 N1186 0.984 . S
H1193 N1186 0.984 . S
H1194 N1182 0.984 . S
H1195 N1182 0.985 . S
C1196 C1197 1.363 1_545 S
C1196 C1202 1.379 1_655 S
C1196 N1204 1.356 . S
C1197 C1196 1.363 1_565 S
C1197 C1203 1.363 . S
C1198 C1199 1.363 1_565 S
C1198 C1203 1.379 1_455 S
C1198 N1205 1.356 . S
C1199 C1198 1.363 1_545 S
C1199 C1202 1.363 . S
N1200 C1202 1.356 . S
N1200 H1212 0.984 . S
N1200 H1213 0.985 . S
N1201 C1203 1.356 . S
N1201 H1206 0.984 . S
N1201 H1207 0.985 . S
C1202 C1196 1.379 1_455 S
C1202 C1199 1.363 . S
C1202 N1200 1.356 . S
C1203 C1197 1.363 . S
C1203 C1198 1.379 1_655 S
C1203 N1201 1.356 . S
N1204 C1196 1.356 . S
N1204 H1210 0.984 . S
N1204 H1211 0.984 1_545 S
N1205 C1198 1.356 . S
N1205 H1208 0.984 1_565 S
N1205 H1209 0.985 . S
H1206 N1201 0.984 . S
H1207 N1201 0.985 . S
H1208 N1205 0.984 1_545 S
H1209 N1205 0.985 . S
H1210 N1204 0.984 . S
H1211 N1204 0.984 1_565 S
H1212 N1200 0.984 . S
H1213 N1200 0.985 . S
C1214 C1215 1.363 . S
C1214 C1220 1.379 . S
C1214 N1222 1.356 . S
C1215 C1214 1.363 . S
C1215 C1221 1.363 1_455 S
C1216 C1217 1.363 . S
C1216 C1221 1.379 . S
C1216 N1223 1.356 . S
C1217 C1216 1.363 . S
C1217 C1220 1.363 1_655 S
N1218 C1220 1.356 . S
N1218 H1230 0.984 . S
N1218 H1231 0.985 1_455 S
N1219 C1221 1.356 . S
N1219 H1224 0.984 1_655 S
N1219 H1225 0.985 . S
C1220 C1214 1.379 . S
C1220 C1217 1.363 1_455 S
C1220 N1218 1.356 . S
C1221 C1215 1.363 1_655 S
C1221 C1216 1.379 . S
C1221 N1219 1.356 . S
N1222 C1214 1.356 . S
N1222 H1228 0.984 . S
N1222 H1229 0.984 . S
N1223 C1216 1.356 . S
N1223 H1226 0.984 . S
N1223 H1227 0.985 . S
H1224 N1219 0.984 1_455 S
H1225 N1219 0.985 . S
H1226 N1223 0.984 . S
H1227 N1223 0.985 . S
H1228 N1222 0.984 . S
H1229 N1222 0.984 . S
H1230 N1218 0.984 . S
H1231 N1218 0.985 1_655 S
C1232 C1233 1.363 . S
C1232 C1238 1.379 . S
C1232 N1240 1.356 . S
C1233 C1232 1.363 . S
C1233 C1239 1.363 . S
C1234 C1235 1.363 . S
C1234 C1239 1.379 . S
C1234 N1241 1.356 . S
C1235 C1234 1.363 . S
C1235 C1238 1.363 . S
N1236 C1238 1.356 . S
N1236 H1248 0.984 . S
N1236 H1249 0.985 . S
N1237 C1239 1.356 . S
N1237 H1242 0.984 . S
N1237 H1243 0.985 . S
C1238 C1232 1.379 . S
C1238 C1235 1.363 . S
C1238 N1236 1.356 . S
C1239 C1233 1.363 . S
C1239 C1234 1.379 . S
C1239 N1237 1.356 . S
N1240 C1232 1.356 . S
N1240 H1246 0.984 . S
N1240 H1247 0.984 . S
N1241 C1234 1.356 . S
N1241 H1244 0.984 . S
N1241 H1245 0.985 . S
H1242 N1237 0.984 . S
H1243 N1237 0.985 . S
H1244 N1241 0.984 . S
H1245 N1241 0.985 . S
H1246 N1240 0.984 . S
H1247 N1240 0.984 . S
H1248 N1236 0.984 . S
H1249 N1236 0.985 . S
C1250 C1251 1.363 . S
C1250 C1256 1.379 . S
C1250 N1258 1.356 . S
C1251 C1250 1.363 . S
C1251 C1257 1.363 . S
C1252 C1253 1.363 . S
C1252 C1257 1.379 . S
C1252 N1259 1.356 . S
C1253 C1252 1.363 . S
C1253 C1256 1.363 . S
N1254 C1256 1.356 . S
N1254 H1266 0.984 . S
N1254 H1267 0.985 . S
N1255 C1257 1.356 . S
N1255 H1260 0.984 . S
N1255 H1261 0.985 . S
C1256 C1250 1.379 . S
C1256 C1253 1.363 . S
C1256 N1254 1.356 . S
C1257 C1251 1.363 . S
C1257 C1252 1.379 . S
C1257 N1255 1.356 . S
N1258 C1250 1.356 . S
N1258 H1264 0.984 . S
N1258 H1265 0.984 . S
N1259 C1252 1.356 . S
N1259 H1262 0.984 . S
N1259 H1263 0.985 . S
H1260 N1255 0.984 . S
H1261 N1255 0.985 . S
H1262 N1259 0.984 . S
H1263 N1259 0.985 . S
H1264 N1258 0.984 . S
H1265 N1258 0.984 . S
H1266 N1254 0.984 . S
H1267 N1254 0.985 . S
C1268 C1269 1.363 . S
C1268 C1274 1.379 . S
C1268 N1276 1.356 . S
C1269 C1268 1.363 . S
C1269 C1275 1.363 . S
C1270 C1271 1.363 . S
C1270 C1275 1.379 . S
C1270 N1277 1.356 . S
C1271 C1270 1.363 . S
C1271 C1274 1.363 . S
N1272 C1274 1.356 . S
N1272 H1284 0.984 . S
N1272 H1285 0.985 . S
N1273 C1275 1.356 . S
N1273 H1278 0.984 . S
N1273 H1279 0.985 . S
C1274 C1268 1.379 . S
C1274 C1271 1.363 . S
C1274 N1272 1.356 . S
C1275 C1269 1.363 . S
C1275 C1270 1.379 . S
C1275 N1273 1.356 . S
N1276 C1268 1.356 . S
N1276 H1282 0.984 . S
N1276 H1283 0.984 . S
N1277 C1270 1.356 . S
N1277 H1280 0.984 . S
N1277 H1281 0.985 . S
H1278 N1273 0.984 . S
H1279 N1273 0.985 . S
H1280 N1277 0.984 . S
H1281 N1277 0.985 . S
H1282 N1276 0.984 . S
H1283 N1276 0.984 . S
H1284 N1272 0.984 . S
H1285 N1272 0.985 . S
C1286 C1287 1.363 . S
C1286 C1292 1.379 . S
C1286 N1294 1.356 . S
C1287 C1286 1.363 . S
C1287 C1293 1.363 . S
C1288 C1289 1.363 . S
C1288 C1293 1.379 . S
C1288 N1295 1.356 . S
C1289 C1288 1.363 . S
C1289 C1292 1.363 . S
N1290 C1292 1.356 . S
N1290 H1302 0.984 . S
N1290 H1303 0.985 . S
N1291 C1293 1.356 . S
N1291 H1296 0.984 . S
N1291 H1297 0.985 . S
C1292 C1286 1.379 . S
C1292 C1289 1.363 . S
C1292 N1290 1.356 . S
C1293 C1287 1.363 . S
C1293 C1288 1.379 . S
C1293 N1291 1.356 . S
N1294 C1286 1.356 . S
N1294 H1300 0.984 . S
N1294 H1301 0.984 . S
N1295 C1288 1.356 . S
N1295 H1298 0.984 . S
N1295 H1299 0.985 . S
H1296 N1291 0.984 . S
H1297 N1291 0.985 . S
H1298 N1295 0.984 . S
H1299 N1295 0.985 . S
H1300 N1294 0.984 . S
H1301 N1294 0.984 . S
H1302 N1290 0.984 . S
H1303 N1290 0.985 . S
C1304 C1305 1.363 . S
C1304 C1310 1.379 . S
C1304 N1312 1.356 . S
C1305 C1304 1.363 . S
C1305 C1311 1.363 . S
C1306 C1307 1.363 . S
C1306 C1311 1.379 . S
C1306 N1313 1.356 . S
C1307 C1306 1.363 . S
C1307 C1310 1.363 . S
N1308 C1310 1.356 . S
N1308 H1320 0.984 . S
N1308 H1321 0.985 . S
N1309 C1311 1.356 . S
N1309 H1314 0.984 . S
N1309 H1315 0.985 . S
C1310 C1304 1.379 . S
C1310 C1307 1.363 . S
C1310 N1308 1.356 . S
C1311 C1305 1.363 . S
C1311 C1306 1.379 . S
C1311 N1309 1.356 . S
N1312 C1304 1.356 . S
N1312 H1318 0.984 . S
N1312 H1319 0.984 . S
N1313 C1306 1.356 . S
N1313 H1316 0.984 . S
N1313 H1317 0.985 . S
H1314 N1309 0.984 . S
H1315 N1309 0.985 . S
H1316 N1313 0.984 . S
H1317 N1313 0.985 . S
H1318 N1312 0.984 . S
H1319 N1312 0.984 . S
H1320 N1308 0.984 . S
H1321 N1308 0.985 . S
C1322 C1323 1.363 . S
C1322 C1328 1.379 . S
C1322 N1330 1.356 . S
C1323 C1322 1.363 . S
C1323 C1329 1.363 . S
C1324 C1325 1.363 . S
C1324 C1329 1.379 . S
C1324 N1331 1.356 . S
C1325 C1324 1.363 . S
C1325 C1328 1.363 . S
N1326 C1328 1.356 . S
N1326 H1338 0.984 . S
N1326 H1339 0.985 . S
N1327 C1329 1.356 . S
N1327 H1332 0.984 . S
N1327 H1333 0.985 . S
C1328 C1322 1.379 . S
C1328 C1325 1.363 . S
C1328 N1326 1.356 . S
C1329 C1323 1.363 . S
C1329 C1324 1.379 . S
C1329 N1327 1.356 . S
N1330 C1322 1.356 . S
N1330 H1336 0.984 . S
N1330 H1337 0.984 . S
N1331 C1324 1.356 . S
N1331 H1334 0.984 . S
N1331 H1335 0.985 . S
H1332 N1327 0.984 . S
H1333 N1327 0.985 . S
H1334 N1331 0.984 . S
H1335 N1331 0.985 . S
H1336 N1330 0.984 . S
H1337 N1330 0.984 . S
H1338 N1326 0.984 . S
H1339 N1326 0.985 . S
C1340 C1341 1.363 . S
C1340 C1346 1.379 . S
C1340 N1348 1.356 . S
C1341 C1340 1.363 . S
C1341 C1347 1.363 . S
C1342 C1343 1.363 . S
C1342 C1347 1.379 . S
C1342 N1349 1.356 . S
C1343 C1342 1.363 . S
C1343 C1346 1.363 . S
N1344 C1346 1.356 . S
N1344 H1356 0.984 . S
N1344 H1357 0.985 . S
N1345 C1347 1.356 . S
N1345 H1350 0.984 . S
N1345 H1351 0.985 . S
C1346 C1340 1.379 . S
C1346 C1343 1.363 . S
C1346 N1344 1.356 . S
C1347 C1341 1.363 . S
C1347 C1342 1.379 . S
C1347 N1345 1.356 . S
N1348 C1340 1.356 . S
N1348 H1354 0.984 . S
N1348 H1355 0.984 . S
N1349 C1342 1.356 . S
N1349 H1352 0.984 . S
N1349 H1353 0.985 . S
H1350 N1345 0.984 . S
H1351 N1345 0.985 . S
H1352 N1349 0.984 . S
H1353 N1349 0.985 . S
H1354 N1348 0.984 . S
H1355 N1348 0.984 . S
H1356 N1344 0.984 . S
H1357 N1344 0.985 . S
C1358 C1359 1.363 . S
C1358 C1364 1.379 . S
C1358 N1366 1.356 . S
C1359 C1358 1.363 . S
C1359 C1365 1.363 . S
C1360 C1361 1.363 . S
C1360 C1365 1.379 . S
C1360 N1367 1.356 . S
C1361 C1360 1.363 . S
C1361 C1364 1.363 . S
N1362 C1364 1.356 . S
N1362 H1374 0.984 . S
N1362 H1375 0.985 . S
N1363 C1365 1.356 . S
N1363 H1368 0.984 . S
N1363 H1369 0.985 . S
C1364 C1358 1.379 . S
C1364 C1361 1.363 . S
C1364 N1362 1.356 . S
C1365 C1359 1.363 . S
C1365 C1360 1.379 . S
C1365 N1363 1.356 . S
N1366 C1358 1.356 . S
N1366 H1372 0.984 . S
N1366 H1373 0.984 . S
N1367 C1360 1.356 . S
N1367 H1370 0.984 . S
N1367 H1371 0.985 . S
H1368 N1363 0.984 . S
H1369 N1363 0.985 . S
H1370 N1367 0.984 . S
H1371 N1367 0.985 . S
H1372 N1366 0.984 . S
H1373 N1366 0.984 . S
H1374 N1362 0.984 . S
H1375 N1362 0.985 . S
C1376 C1377 1.363 . S
C1376 C1382 1.379 . S
C1376 N1384 1.356 . S
C1377 C1376 1.363 . S
C1377 C1383 1.363 . S
C1378 C1379 1.363 . S
C1378 C1383 1.379 . S
C1378 N1385 1.356 . S
C1379 C1378 1.363 . S
C1379 C1382 1.363 . S
N1380 C1382 1.356 . S
N1380 H1392 0.984 . S
N1380 H1393 0.985 . S
N1381 C1383 1.356 . S
N1381 H1386 0.984 . S
N1381 H1387 0.985 . S
C1382 C1376 1.379 . S
C1382 C1379 1.363 . S
C1382 N1380 1.356 . S
C1383 C1377 1.363 . S
C1383 C1378 1.379 . S
C1383 N1381 1.356 . S
N1384 C1376 1.356 . S
N1384 H1390 0.984 . S
N1384 H1391 0.984 . S
N1385 C1378 1.356 . S
N1385 H1388 0.984 . S
N1385 H1389 0.985 . S
H1386 N1381 0.984 . S
H1387 N1381 0.985 . S
H1388 N1385 0.984 . S
H1389 N1385 0.985 . S
H1390 N1384 0.984 . S
H1391 N1384 0.984 . S
H1392 N1380 0.984 . S
H1393 N1380 0.985 . S
C1394 C1395 1.363 . S
C1394 C1400 1.379 . S
C1394 N1402 1.356 . S
C1395 C1394 1.363 . S
C1395 C1401 1.363 . S
C1396 C1397 1.363 . S
C1396 C1401 1.379 . S
C1396 N1403 1.356 . S
C1397 C1396 1.363 . S
C1397 C1400 1.363 . S
N1398 C1400 1.356 . S
N1398 H1410 0.984 . S
N1398 H1411 0.985 . S
N1399 C1401 1.356 . S
N1399 H1404 0.984 . S
N1399 H1405 0.985 . S
C1400 C1394 1.379 . S
C1400 C1397 1.363 . S
C1400 N1398 1.356 . S
C1401 C1395 1.363 . S
C1401 C1396 1.379 . S
C1401 N1399 1.356 . S
N1402 C1394 1.356 . S
N1402 H1408 0.984 . S
N1402 H1409 0.984 . S
N1403 C1396 1.356 . S
N1403 H1406 0.984 . S
N1403 H1407 0.985 . S
H1404 N1399 0.984 . S
H1405 N1399 0.985 . S
H1406 N1403 0.984 . S
H1407 N1403 0.985 . S
H1408 N1402 0.984 . S
H1409 N1402 0.984 . S
H1410 N1398 0.984 . S
H1411 N1398 0.985 . S
C1412 C1413 1.363 . S
C1412 C1418 1.379 . S
C1412 N1420 1.356 . S
C1413 C1412 1.363 . S
C1413 C1419 1.363 . S
C1414 C1415 1.363 . S
C1414 C1419 1.379 . S
C1414 N1421 1.356 . S
C1415 C1414 1.363 . S
C1415 C1418 1.363 . S
N1416 C1418 1.356 . S
N1416 H1428 0.984 . S
N1416 H1429 0.985 . S
N1417 C1419 1.356 . S
N1417 H1422 0.984 . S
N1417 H1423 0.985 . S
C1418 C1412 1.379 . S
C1418 C1415 1.363 . S
C1418 N1416 1.356 . S
C1419 C1413 1.363 . S
C1419 C1414 1.379 . S
C1419 N1417 1.356 . S
N1420 C1412 1.356 . S
N1420 H1426 0.984 . S
N1420 H1427 0.984 . S
N1421 C1414 1.356 . S
N1421 H1424 0.984 . S
N1421 H1425 0.985 . S
H1422 N1417 0.984 . S
H1423 N1417 0.985 . S
H1424 N1421 0.984 . S
H1425 N1421 0.985 . S
H1426 N1420 0.984 . S
H1427 N1420 0.984 . S
H1428 N1416 0.984 . S
H1429 N1416 0.985 . S
C1430 C1431 1.363 . S
C1430 C1436 1.379 1_556 S
C1430 N1438 1.356 . S
C1431 C1430 1.363 . S
C1431 C1437 1.363 . S
C1432 C1433 1.363 . S
C1432 C1437 1.379 1_554 S
C1432 N1439 1.356 . S
C1433 C1432 1.363 . S
C1433 C1436 1.363 . S
N1434 C1436 1.356 . S
N1434 H1446 0.984 . S
N1434 H1447 0.985 . S
N1435 C1437 1.356 . S
N1435 H1440 0.984 . S
N1435 H1441 0.985 . S
C1436 C1430 1.379 1_554 S
C1436 C1433 1.363 . S
C1436 N1434 1.356 . S
C1437 C1431 1.363 . S
C1437 C1432 1.379 1_556 S
C1437 N1435 1.356 . S
N1438 C1430 1.356 . S
N1438 H1444 0.984 . S
N1438 H1445 0.984 . S
N1439 C1432 1.356 . S
N1439 H1442 0.984 . S
N1439 H1443 0.985 . S
H1440 N1435 0.984 . S
H1441 N1435 0.985 . S
H1442 N1439 0.984 . S
H1443 N1439 0.985 . S
H1444 N1438 0.984 . S
H1445 N1438 0.984 . S
H1446 N1434 0.984 . S
H1447 N1434 0.985 . S
C1448 C1449 1.363 . S
C1448 C1454 1.379 1_554 S
C1448 N1456 1.356 . S
C1449 C1448 1.363 . S
C1449 C1455 1.363 . S
C1450 C1451 1.363 . S
C1450 C1455 1.379 1_556 S
C1450 N1457 1.356 . S
C1451 C1450 1.363 . S
C1451 C1454 1.363 . S
N1452 C1454 1.356 . S
N1452 H1464 0.984 . S
N1452 H1465 0.985 . S
N1453 C1455 1.356 . S
N1453 H1458 0.984 . S
N1453 H1459 0.985 . S
C1454 C1448 1.379 1_556 S
C1454 C1451 1.363 . S
C1454 N1452 1.356 . S
C1455 C1449 1.363 . S
C1455 C1450 1.379 1_554 S
C1455 N1453 1.356 . S
N1456 C1448 1.356 . S
N1456 H1462 0.984 . S
N1456 H1463 0.984 . S
N1457 C1450 1.356 . S
N1457 H1460 0.984 . S
N1457 H1461 0.985 . S
H1458 N1453 0.984 . S
H1459 N1453 0.985 . S
H1460 N1457 0.984 . S
H1461 N1457 0.985 . S
H1462 N1456 0.984 . S
H1463 N1456 0.984 . S
H1464 N1452 0.984 . S
H1465 N1452 0.985 . S
C1466 C1467 1.363 . S
C1466 C1472 1.379 . S
C1466 N1474 1.356 . S
C1467 C1466 1.363 . S
C1467 C1473 1.363 . S
C1468 C1469 1.363 . S
C1468 C1473 1.379 . S
C1468 N1475 1.356 . S
C1469 C1468 1.363 . S
C1469 C1472 1.363 . S
N1470 C1472 1.356 . S
N1470 H1482 0.984 . S
N1470 H1483 0.985 . S
N1471 C1473 1.356 . S
N1471 H1476 0.984 . S
N1471 H1477 0.985 . S
C1472 C1466 1.379 . S
C1472 C1469 1.363 . S
C1472 N1470 1.356 . S
C1473 C1467 1.363 . S
C1473 C1468 1.379 . S
C1473 N1471 1.356 . S
N1474 C1466 1.356 . S
N1474 H1480 0.984 . S
N1474 H1481 0.984 . S
N1475 C1468 1.356 . S
N1475 H1478 0.984 . S
N1475 H1479 0.985 . S
H1476 N1471 0.984 . S
H1477 N1471 0.985 . S
H1478 N1475 0.984 . S
H1479 N1475 0.985 . S
H1480 N1474 0.984 . S
H1481 N1474 0.984 . S
H1482 N1470 0.984 . S
H1483 N1470 0.985 . S
C1484 C1485 1.363 . S
C1484 C1490 1.379 . S
C1484 N1492 1.356 . S
C1485 C1484 1.363 . S
C1485 C1491 1.363 . S
C1486 C1487 1.363 . S
C1486 C1491 1.379 . S
C1486 N1493 1.356 . S
C1487 C1486 1.363 . S
C1487 C1490 1.363 . S
N1488 C1490 1.356 . S
N1488 H1500 0.984 . S
N1488 H1501 0.985 . S
N1489 C1491 1.356 . S
N1489 H1494 0.984 . S
N1489 H1495 0.985 . S
C1490 C1484 1.379 . S
C1490 C1487 1.363 . S
C1490 N1488 1.356 . S
C1491 C1485 1.363 . S
C1491 C1486 1.379 . S
C1491 N1489 1.356 . S
N1492 C1484 1.356 . S
N1492 H1498 0.984 . S
N1492 H1499 0.984 . S
N1493 C1486 1.356 . S
N1493 H1496 0.984 . S
N1493 H1497 0.985 . S
H1494 N1489 0.984 . S
H1495 N1489 0.985 . S
H1496 N1493 0.984 . S
H1497 N1493 0.985 . S
H1498 N1492 0.984 . S
H1499 N1492 0.984 . S
H1500 N1488 0.984 . S
H1501 N1488 0.985 . S
C1502 C1503 1.363 . S
C1502 C1508 1.379 . S
C1502 N1510 1.356 . S
C1503 C1502 1.363 . S
C1503 C1509 1.363 . S
C1504 C1505 1.363 . S
C1504 C1509 1.379 . S
C1504 N1511 1.356 . S
C1505 C1504 1.363 . S
C1505 C1508 1.363 . S
N1506 C1508 1.356 . S
N1506 H1518 0.984 . S
N1506 H1519 0.985 . S
N1507 C1509 1.356 . S
N1507 H1512 0.984 . S
N1507 H1513 0.985 . S
C1508 C1502 1.379 . S
C1508 C1505 1.363 . S
C1508 N1506 1.356 . S
C1509 C1503 1.363 . S
C1509 C1504 1.379 . S
C1509 N1507 1.356 . S
N1510 C1502 1.356 . S
N1510 H1516 0.984 . S
N1510 H1517 0.984 . S
N1511 C1504 1.356 . S
N1511 H1514 0.984 . S
N1511 H1515 0.985 . S
H1512 N1507 0.984 . S
H1513 N1507 0.985 . S
H1514 N1511 0.984 . S
H1515 N1511 0.985 . S
H1516 N1510 0.984 . S
H1517 N1510 0.984 . S
H1518 N1506 0.984 . S
H1519 N1506 0.985 . S
C945 C595 1.472 . S
C947 C5 1.472 . S
C963 C64 1.472 . S
C965 C654 1.472 . S
C981 C477 1.472 . S
C983 C123 1.472 . S
C999 C536 1.472 . S
C1001 C182 1.472 . S
C1017 C241 1.472 . S
C1019 C831 1.472 . S
C1035 C890 1.472 . S
C1037 C300 1.472 . S
C1053 C359 1.472 . S
C1055 C713 1.472 . S
C1071 C772 1.472 . S
C1073 C418 1.472 . S
C1089 C642 1.667 . S
C1091 C52 1.667 . S
C1107 C111 1.667 . S
C1109 C701 1.667 . S
C1125 C170 1.667 . S
C1127 C524 1.667 . S
C1143 C229 1.667 . S
C1145 C583 1.667 . S
C1161 C288 1.667 . S
C1163 C878 1.667 . S
C1179 C347 1.667 . S
C1181 C937 1.667 . S
C1197 C760 1.667 . S
C1199 C406 1.667 . S
C1215 C819 1.667 . S
C1217 C465 1.667 . S
C1233 C3 1.466 . S
C1235 C357 1.466 . S
C1251 C62 1.466 . S
C1253 C416 1.466 . S
C1269 C121 1.466 . S
C1271 C239 1.466 . S
C1287 C180 1.466 . S
C1289 C298 1.466 . S
C1305 C475 1.466 . S
C1307 C829 1.466 . S
C1323 C888 1.466 . S
C1325 C534 1.466 . S
C1341 C593 1.466 . S
C1343 C711 1.466 . S
C1359 C770 1.466 . S
C1361 C652 1.466 . S
C1377 C33 1.337 . S
C1379 C918 1.338 . S
C1395 C741 1.337 . S
C1397 C92 1.337 . S
C1413 C800 1.337 . S
C1415 C151 1.337 . S
C1431 C859 1.337 . S
C1433 C210 1.337 . S
C1449 C564 1.338 . S
C1451 C269 1.338 . S
C1467 C623 1.337 . S
C1469 C328 1.337 . S
C1485 C387 1.338 . S
C1487 C682 1.338 . S
C1503 C446 1.337 . S
C1505 C505 1.338 . S
