# Generated by pormake.
# Topology upb, (4)-cn, num edge types: 1
# Building blocks:
#     Node 0, Type 0, BuildingBlock: CEKHIL_clean_sbu_0, # of connection points: 4
#     Node 1, Type 0, BuildingBlock: CEKHIL_clean_sbu_0, # of connection points: 4
#     Node 2, Type 0, BuildingBlock: CEKHIL_clean_sbu_0, # of connection points: 4
#     Node 3, Type 0, BuildingBlock: CEKHIL_clean_sbu_0, # of connection points: 4
#     Node 4, Type 0, BuildingBlock: CEKHIL_clean_sbu_0, # of connection points: 4
#     Node 5, Type 0, BuildingBlock: CEKHIL_clean_sbu_0, # of connection points: 4
#     Node 6, Type 0, BuildingBlock: CEKHIL_clean_sbu_0, # of connection points: 4
#     Node 7, Type 0, BuildingBlock: CEKHIL_clean_sbu_0, # of connection points: 4
#     Node 8, Type 0, BuildingBlock: CEKHIL_clean_sbu_0, # of connection points: 4
#     Node 9, Type 0, BuildingBlock: CEKHIL_clean_sbu_0, # of connection points: 4
#     Node 10, Type 0, BuildingBlock: CEKHIL_clean_sbu_0, # of connection points: 4
#     Node 11, Type 0, BuildingBlock: CEKHIL_clean_sbu_0, # of connection points: 4
#     Node 12, Type 0, BuildingBlock: CEKHIL_clean_sbu_0, # of connection points: 4
#     Node 13, Type 0, BuildingBlock: CEKHIL_clean_sbu_0, # of connection points: 4
#     Node 14, Type 0, BuildingBlock: CEKHIL_clean_sbu_0, # of connection points: 4
#     Node 15, Type 0, BuildingBlock: CEKHIL_clean_sbu_0, # of connection points: 4
#     Edge 16, Type (0, 0), BuildingBlock: TEMPAE_clean_linker_10, # of connection points: 2
#     Edge 17, Type (0, 0), BuildingBlock: TEMPAE_clean_linker_10, # of connection points: 2
#     Edge 18, Type (0, 0), BuildingBlock: TEMPAE_clean_linker_10, # of connection points: 2
#     Edge 19, Type (0, 0), BuildingBlock: TEMPAE_clean_linker_10, # of connection points: 2
#     Edge 20, Type (0, 0), BuildingBlock: TEMPAE_clean_linker_10, # of connection points: 2
#     Edge 21, Type (0, 0), BuildingBlock: TEMPAE_clean_linker_10, # of connection points: 2
#     Edge 22, Type (0, 0), BuildingBlock: TEMPAE_clean_linker_10, # of connection points: 2
#     Edge 23, Type (0, 0), BuildingBlock: TEMPAE_clean_linker_10, # of connection points: 2
#     Edge 24, Type (0, 0), BuildingBlock: TEMPAE_clean_linker_10, # of connection points: 2
#     Edge 25, Type (0, 0), BuildingBlock: TEMPAE_clean_linker_10, # of connection points: 2
#     Edge 26, Type (0, 0), BuildingBlock: TEMPAE_clean_linker_10, # of connection points: 2
#     Edge 27, Type (0, 0), BuildingBlock: TEMPAE_clean_linker_10, # of connection points: 2
#     Edge 28, Type (0, 0), BuildingBlock: TEMPAE_clean_linker_10, # of connection points: 2
#     Edge 29, Type (0, 0), BuildingBlock: TEMPAE_clean_linker_10, # of connection points: 2
#     Edge 30, Type (0, 0), BuildingBlock: TEMPAE_clean_linker_10, # of connection points: 2
#     Edge 31, Type (0, 0), BuildingBlock: TEMPAE_clean_linker_10, # of connection points: 2
#     Edge 32, Type (0, 0), BuildingBlock: TEMPAE_clean_linker_10, # of connection points: 2
#     Edge 33, Type (0, 0), BuildingBlock: TEMPAE_clean_linker_10, # of connection points: 2
#     Edge 34, Type (0, 0), BuildingBlock: TEMPAE_clean_linker_10, # of connection points: 2
#     Edge 35, Type (0, 0), BuildingBlock: TEMPAE_clean_linker_10, # of connection points: 2
#     Edge 36, Type (0, 0), BuildingBlock: TEMPAE_clean_linker_10, # of connection points: 2
#     Edge 37, Type (0, 0), BuildingBlock: TEMPAE_clean_linker_10, # of connection points: 2
#     Edge 38, Type (0, 0), BuildingBlock: TEMPAE_clean_linker_10, # of connection points: 2
#     Edge 39, Type (0, 0), BuildingBlock: TEMPAE_clean_linker_10, # of connection points: 2
#     Edge 40, Type (0, 0), BuildingBlock: TEMPAE_clean_linker_10, # of connection points: 2
#     Edge 41, Type (0, 0), BuildingBlock: TEMPAE_clean_linker_10, # of connection points: 2
#     Edge 42, Type (0, 0), BuildingBlock: TEMPAE_clean_linker_10, # of connection points: 2
#     Edge 43, Type (0, 0), BuildingBlock: TEMPAE_clean_linker_10, # of connection points: 2
#     Edge 44, Type (0, 0), BuildingBlock: TEMPAE_clean_linker_10, # of connection points: 2
#     Edge 45, Type (0, 0), BuildingBlock: TEMPAE_clean_linker_10, # of connection points: 2
#     Edge 46, Type (0, 0), BuildingBlock: TEMPAE_clean_linker_10, # of connection points: 2
#     Edge 47, Type (0, 0), BuildingBlock: TEMPAE_clean_linker_10, # of connection points: 2
# Relax obj value: 0.216
# Max RMSD: 0.061
# Mean RMSD: 0.061
data_MOF--net-upb--node1-CEKHIL_clean_sbu_0--edge1-TEMPAE_clean_linker_10
_symmetry_space_group_name_H-M    P1
_symmetry_Int_Tables_number       1
_symmetry_cell_setting            triclinic
loop_
_symmetry_equiv_pos_as_xyz
'x, y, z'
_cell_length_a     44.812896
_cell_length_b     44.797328
_cell_length_c     32.521853
_cell_angle_alpha  90.009149
_cell_angle_beta   90.040434
_cell_angle_gamma 90.001069
loop_
_atom_site_label
_atom_site_type_symbol
_atom_site_fract_x
_atom_site_fract_y
_atom_site_fract_z
_atom_type_partial_charge
Co0 Co 0.0433 0.23766 0.28845 0.0
O1 O 0.07933 0.25149 0.31277 0.0
O2 O 0.06191 0.26655 0.25238 0.0
C3 C 0.01817 0.24336 0.3475 0.0
O4 O 0.00578 0.2285 0.255 0.0
Co5 Co 0.01114 0.18216 0.32227 0.0
O6 O 0.97651 0.20339 0.29855 0.0
C7 C 0.06428 0.17516 0.26846 0.0
C8 C 0.08193 0.26892 0.28132 0.0
C9 C 0.98002 0.21882 0.26609 0.0
O10 O 0.06557 0.2035 0.26213 0.0
O11 O 0.04515 0.16294 0.29242 0.0
O12 O 0.02081 0.26571 0.3224 0.0
O13 O 0.03094 0.21881 0.33662 0.0
Co14 Co 0.78627 0.05482 0.29826 0.0
O15 O 0.76815 0.093 0.3029 0.0
O16 O 0.75957 0.06096 0.25214 0.0
C17 C 0.77789 0.04294 0.36424 0.0
O18 O 0.80118 0.01284 0.28504 0.0
Co19 Co 0.84181 0.04024 0.35149 0.0
O20 O 0.83006 -0.0012 0.33815 0.0
C21 C 0.84722 0.07956 0.27831 0.0
C22 C 0.75417 0.08673 0.26919 0.0
C23 C 0.81532 0.9928 0.30569 0.0
O24 O 0.82034 0.07348 0.26736 0.0
O25 O 0.85885 0.07 0.31184 0.0
O26 O 0.75738 0.03813 0.33682 0.0
O27 O 0.8018 0.05593 0.3514 0.0
Co28 Co 0.95991 0.76096 0.28272 0.0
O29 O 0.9227 0.74945 0.30621 0.0
O30 O 0.93732 0.73806 0.24299 0.0
C31 C 0.98636 0.74761 0.33838 0.0
O32 O 0.99762 0.76901 0.24915 0.0
Co33 Co 0.99758 0.8106 0.32384 0.0
O34 O 0.02968 0.78961 0.29375 0.0
C35 C 0.94397 0.82648 0.27512 0.0
C36 C 0.91721 0.73604 0.27179 0.0
C37 C 0.02418 0.77691 0.25956 0.0
O38 O 0.94122 0.79926 0.26312 0.0
O39 O 0.96397 0.83504 0.30073 0.0
O40 O 0.97938 0.72775 0.31094 0.0
O41 O 0.97586 0.77406 0.33249 0.0
Co42 Co 0.21074 0.94625 0.28595 0.0
O43 O 0.22654 0.90715 0.2922 0.0
O44 O 0.23813 0.93807 0.24131 0.0
C45 C 0.21825 0.95857 0.35199 0.0
O46 O 0.19882 0.98897 0.27138 0.0
Co47 Co 0.1547 0.96423 0.33574 0.0
O48 O 0.16951 0.00477 0.32302 0.0
C49 C 0.14926 0.92362 0.26411 0.0
C50 C 0.24176 0.91228 0.25917 0.0
C51 C 0.18566 0.0099 0.29157 0.0
O52 O 0.1764 0.92907 0.2538 0.0
O53 O 0.13735 0.934 0.29697 0.0
O54 O 0.23963 0.96172 0.32543 0.0
O55 O 0.19394 0.9467 0.33839 0.0
Co56 Co 0.04447 0.76607 0.69715 0.0
O57 O 0.08413 0.75309 0.68643 0.0
O58 O 0.05874 0.74282 0.74329 0.0
C59 C 0.02718 0.75297 0.63502 0.0
O60 O 0.00235 0.77565 0.71732 0.0
Co61 Co 0.01843 0.81737 0.64446 0.0
O62 O 0.98043 0.80186 0.66672 0.0
C63 C 0.06397 0.83027 0.70776 0.0
C64 C 0.08315 0.73998 0.72185 0.0
C65 C 0.9791 0.78711 0.70018 0.0
O66 O 0.06099 0.80371 0.72208 0.0
O67 O 0.0505 0.83933 0.67531 0.0
O68 O 0.0289 0.73324 0.66412 0.0
O69 O 0.03792 0.779 0.64334 0.0
Co70 Co 0.22385 0.04541 0.70854 0.0
O71 O 0.24042 0.08234 0.69079 0.0
O72 O 0.25462 0.05795 0.74678 0.0
C73 C 0.22612 0.02508 0.64554 0.0
O74 O 0.21166 0.00575 0.73485 0.0
Co75 Co 0.16436 0.02286 0.67078 0.0
O76 O 0.18049 0.98421 0.68956 0.0
C77 C 0.164 0.07011 0.73482 0.0
C78 C 0.25791 0.0808 0.72236 0.0
C79 C 0.19775 0.98283 0.72059 0.0
O80 O 0.19235 0.06788 0.74009 0.0
O81 O 0.14939 0.05513 0.70795 0.0
O82 O 0.24922 0.02401 0.66963 0.0
O83 O 0.20323 0.03923 0.65952 0.0
Co84 Co 0.94376 0.22356 0.70556 0.0
O85 O 0.90596 0.24294 0.70635 0.0
O86 O 0.94115 0.24789 0.75423 0.0
C87 C 0.9529 0.23501 0.63953 0.0
O88 O 0.98585 0.20772 0.71426 0.0
Co89 Co 0.9564 0.17089 0.64623 0.0
O90 O -0.00149 0.17967 0.65987 0.0
C91 C 0.91922 0.16191 0.72101 0.0
C92 C 0.91504 0.25537 0.74011 0.0
C93 C 0.00529 0.19346 0.69284 0.0
O94 O 0.92566 0.18813 0.73448 0.0
O95 O 0.92773 0.15216 0.68586 0.0
O96 O 0.95913 0.25406 0.66837 0.0
O97 O 0.94028 0.21058 0.65127 0.0
Co98 Co 0.77463 0.94734 0.71526 0.0
O99 O 0.76018 0.91172 0.69017 0.0
O100 O 0.74303 0.93051 0.74861 0.0
C101 C 0.77345 0.97286 0.6558 0.0
O102 O 0.78377 0.98497 0.74866 0.0
Co103 Co 0.83428 0.97494 0.68581 0.0
O104 O 0.81617 0.01101 0.71003 0.0
C105 C 0.83454 0.92185 0.74044 0.0
C106 C 0.74114 0.91024 0.71994 0.0
C107 C 0.79735 0.00932 0.73922 0.0
O108 O 0.80607 0.92345 0.74532 0.0
O109 O 0.84914 0.93925 0.71651 0.0
O110 O 0.74965 0.97095 0.67837 0.0
O111 O 0.7965 0.95852 0.66899 0.0
Co112 Co 0.56105 0.72844 0.79986 0.0
O113 O 0.59938 0.74624 0.79621 0.0
O114 O 0.5672 0.7429 0.74433 0.0
C115 C 0.54938 0.75198 0.85854 0.0
O116 O 0.51907 0.71156 0.79363 0.0
Co117 Co 0.54601 0.68882 0.87547 0.0
O118 O 0.50464 0.693 0.8547 0.0
C119 C 0.58636 0.66664 0.80987 0.0
C120 C 0.59301 0.75177 0.75817 0.0
C121 C 0.49909 0.70052 0.81766 0.0
O122 O 0.57925 0.68857 0.7863 0.0
O123 O 0.57742 0.66439 0.84718 0.0
O124 O 0.54454 0.76512 0.8236 0.0
O125 O 0.56209 0.72625 0.85686 0.0
Co126 Co 0.26967 0.54934 0.79307 0.0
O127 O 0.25611 0.58812 0.80834 0.0
O128 O 0.24653 0.56613 0.74862 0.0
C129 C 0.2564 0.52877 0.8533 0.0
O130 O 0.27936 0.50874 0.76771 0.0
Co131 Co 0.31936 0.51752 0.84277 0.0
O132 O 0.3004 0.48186 0.81813 0.0
C133 C 0.33467 0.56652 0.78499 0.0
C134 C 0.24283 0.58892 0.77299 0.0
C135 C 0.28745 0.48363 0.78335 0.0
O136 O 0.30772 0.56745 0.77134 0.0
O137 O 0.34306 0.54932 0.8143 0.0
O138 O 0.23683 0.53142 0.82404 0.0
O139 O 0.2825 0.53954 0.84571 0.0
Co140 Co 0.44705 0.27284 0.78186 0.0
O141 O 0.40962 0.25554 0.79604 0.0
O142 O 0.43368 0.24733 0.7375 0.0
C143 C 0.46832 0.26252 0.84289 0.0
O144 O 0.48705 0.28646 0.7582 0.0
Co145 Co 0.46907 0.32735 0.83337 0.0
O146 O 0.50555 0.32186 0.80053 0.0
C147 C 0.42048 0.33461 0.77267 0.0
C148 C 0.41088 0.24174 0.76112 0.0
C149 C 0.50763 0.30487 0.76923 0.0
O150 O 0.42544 0.30842 0.75787 0.0
O151 O 0.4337 0.34472 0.80469 0.0
O152 O 0.46767 0.24239 0.8142 0.0
O153 O 0.45441 0.287 0.8348 0.0
Co154 Co 0.72492 0.43474 0.81536 0.0
O155 O 0.75362 0.40802 0.83746 0.0
O156 O 0.75657 0.42888 0.7757 0.0
C157 C 0.72163 0.46246 0.87278 0.0
O158 O 0.69947 0.46487 0.78436 0.0
Co159 Co 0.66266 0.43651 0.85714 0.0
O160 O 0.65568 0.46953 0.81791 0.0
C161 C 0.68057 0.3846 0.80803 0.0
C162 C 0.76835 0.41164 0.80364 0.0
C163 C 0.67362 0.47688 0.78921 0.0
O164 O 0.70179 0.39991 0.79182 0.0
O165 O 0.66514 0.39404 0.83847 0.0
O166 O 0.74266 0.46763 0.84627 0.0
O167 O 0.70515 0.43953 0.86521 0.0
Co168 Co 0.55443 0.26404 0.19266 0.0
O169 O 0.59185 0.24855 0.17504 0.0
O170 O 0.57144 0.23982 0.23598 0.0
C171 C 0.53145 0.25177 0.13386 0.0
O172 O 0.51528 0.27585 0.22027 0.0
Co173 Co 0.5244 0.31539 0.14455 0.0
O174 O 0.48839 0.29941 0.17191 0.0
C175 C 0.57485 0.3282 0.20107 0.0
C176 C 0.59309 0.23494 0.21008 0.0
C177 C 0.49045 0.28607 0.20634 0.0
O178 O 0.57491 0.30103 0.21395 0.0
O179 O 0.55767 0.3375 0.17227 0.0
O180 O 0.53399 0.23213 0.16294 0.0
O181 O 0.54395 0.27726 0.14021 0.0
Co182 Co 0.71001 0.5651 0.22072 0.0
O183 O 0.72467 0.60464 0.21282 0.0
O184 O 0.73814 0.57466 0.26386 0.0
C185 C 0.71645 0.55198 0.1547 0.0
O186 O 0.70005 0.52218 0.23712 0.0
Co187 Co 0.65415 0.54286 0.17337 0.0
O188 O 0.67241 0.50366 0.18542 0.0
C189 C 0.64772 0.58404 0.24458 0.0
C190 C 0.74113 0.60012 0.24496 0.0
C191 C 0.68886 0.50012 0.21697 0.0
O192 O 0.67559 0.5816 0.25348 0.0
O193 O 0.63579 0.57167 0.21305 0.0
O194 O 0.73853 0.55006 0.18042 0.0
O195 O 0.69201 0.56301 0.16906 0.0
Co196 Co 0.44483 0.73656 0.19539 0.0
O197 O 0.40688 0.74986 0.17632 0.0
O198 O 0.42592 0.76013 0.23771 0.0
C199 C 0.46802 0.74931 0.13677 0.0
O200 O 0.48408 0.72723 0.22466 0.0
Co201 Co 0.47904 0.6865 0.14967 0.0
O202 O 0.51338 0.70544 0.17759 0.0
C203 C 0.42813 0.67142 0.20428 0.0
C204 C 0.40439 0.76359 0.21118 0.0
C205 C 0.50986 0.71857 0.21198 0.0
O206 O 0.42594 0.69869 0.21641 0.0
O207 O 0.44675 0.66271 0.1769 0.0
O208 O 0.464 0.76914 0.16537 0.0
O209 O 0.45708 0.72321 0.14396 0.0
Co210 Co 0.27181 0.43955 0.19603 0.0
O211 O 0.25261 0.40202 0.20142 0.0
O212 O 0.2546 0.43665 0.25042 0.0
C213 C 0.25171 0.44924 0.1343 0.0
O214 O 0.28956 0.48131 0.20019 0.0
Co215 Co 0.31583 0.45019 0.12394 0.0
O216 O 0.31056 0.49259 0.13943 0.0
C217 C 0.33364 0.41294 0.19535 0.0
C218 C 0.24562 0.41045 0.23823 0.0
C219 C 0.30155 0.50004 0.17515 0.0
O220 O 0.31011 0.42074 0.21522 0.0
O221 O 0.33868 0.42068 0.15805 0.0
O222 O 0.23705 0.45591 0.16748 0.0
O223 O 0.27689 0.43585 0.13947 0.0
C224 C 0.11585 0.16624 0.24054 0.0
C225 C 0.08741 0.1554 0.25078 0.0
C226 C 0.13982 0.14644 0.23441 0.0
C227 C 0.13514 0.11538 0.23947 0.0
C228 C 0.10571 0.10441 0.2448 0.0
C229 C 0.08225 0.12457 0.24996 0.0
C230 C 0.17037 0.15911 0.22599 0.0
C231 C 0.09929 0.07145 0.2498 0.0
C232 C 0.18148 0.04608 0.23327 0.0
C233 C 0.18488 0.04065 0.27547 0.0
C234 C 0.16948 0.07335 0.21953 0.0
C235 C 0.1603 0.09485 0.24883 0.0
C236 C 0.16854 0.09123 0.29058 0.0
C237 C 0.18086 0.06411 0.30335 0.0
C238 C 0.1634 0.07757 0.17433 0.0
C239 C 0.16034 0.11404 0.32287 0.0
H240 H 0.11994 0.1901 0.24021 0.0
H241 H 0.06009 0.11607 0.25647 0.0
H242 H 0.18035 0.16713 0.2552 0.0
H243 H 0.18558 0.14235 0.21212 0.0
H244 H 0.16871 0.17863 0.20504 0.0
H245 H 0.075 0.06666 0.25164 0.0
H246 H 0.10864 0.05868 0.22363 0.0
H247 H 0.11 0.06308 0.27834 0.0
H248 H 0.18525 0.02819 0.21143 0.0
H249 H 0.18447 0.06017 0.33589 0.0
H250 H 0.16409 0.10156 0.16577 0.0
H251 H 0.14088 0.06885 0.16684 0.0
H252 H 0.17987 0.06513 0.15542 0.0
H253 H 0.16708 0.1367 0.31288 0.0
H254 H 0.17107 0.10926 0.35297 0.0
H255 H 0.13578 0.11413 0.32731 0.0
C256 C 0.9584 0.20095 0.20099 0.0
C257 C 0.95494 0.21779 0.23701 0.0
C258 C 0.93528 0.18196 0.18787 0.0
C259 C 0.90923 0.17974 0.21219 0.0
C260 C 0.90318 0.20231 0.24154 0.0
C261 C 0.92633 0.22145 0.25346 0.0
C262 C 0.94096 0.16044 0.15317 0.0
C263 C 0.8748 0.20229 0.26648 0.0
C264 C 0.85182 0.11793 0.22195 0.0
C265 C 0.86491 0.10082 0.25337 0.0
C266 C 0.86711 0.14237 0.20464 0.0
C267 C 0.89584 0.14982 0.21958 0.0
C268 C 0.91013 0.13064 0.24826 0.0
C269 C 0.8946 0.10632 0.26433 0.0
C270 C 0.8523 0.16039 0.17116 0.0
C271 C 0.94084 0.13715 0.2654 0.0
H272 H 0.98034 0.19879 0.18724 0.0
H273 H 0.92347 0.23534 0.2805 0.0
H274 H 0.95108 0.13969 0.16554 0.0
H275 H 0.91978 0.15439 0.13751 0.0
H276 H 0.95668 0.17012 0.13039 0.0
H277 H 0.87129 0.22399 0.2823 0.0
H278 H 0.85517 0.19759 0.24676 0.0
H279 H 0.87611 0.18451 0.29021 0.0
H280 H 0.82915 0.11321 0.21227 0.0
H281 H 0.90525 0.09265 0.28759 0.0
H282 H 0.86252 0.15433 0.14122 0.0
H283 H 0.85575 0.18469 0.17558 0.0
H284 H 0.82796 0.15585 0.16929 0.0
H285 H 0.95724 0.14005 0.24026 0.0
H286 H 0.94912 0.11909 0.28586 0.0
H287 H 0.94009 0.15808 0.28354 0.0
C288 C 0.82345 0.93879 0.31581 0.0
C289 C 0.81952 0.96266 0.28859 0.0
C290 C 0.83817 0.91281 0.30331 0.0
C291 C 0.84928 0.91088 0.26264 0.0
C292 C 0.84136 0.93301 0.23351 0.0
C293 C 0.8265 0.95889 0.24691 0.0
C294 C 0.8453 0.88936 0.33519 0.0
C295 C 0.85157 0.93106 0.18944 0.0
C296 C 0.92679 0.87908 0.26839 0.0
C297 C 0.92139 0.84864 0.26199 0.0
C298 C 0.9038 0.90005 0.26489 0.0
C299 C 0.87464 0.89034 0.25457 0.0
C300 C 0.86972 0.86013 0.24382 0.0
C301 C 0.89321 0.83952 0.24779 0.0
C302 C 0.91028 0.93219 0.27595 0.0
C303 C 0.83927 0.84899 0.23135 0.0
H304 H 0.81748 0.94155 0.34791 0.0
H305 H 0.82321 0.97726 0.22567 0.0
H306 H 0.84154 0.86666 0.32264 0.0
H307 H 0.86919 0.89108 0.34395 0.0
H308 H 0.8316 0.89206 0.36341 0.0
H309 H 0.8372 0.94474 0.16892 0.0
H310 H 0.87474 0.93962 0.18708 0.0
H311 H 0.85151 0.90761 0.17842 0.0
H312 H 0.94868 0.8864 0.2784 0.0
H313 H 0.88888 0.81605 0.24228 0.0
H314 H 0.89892 0.93788 0.30524 0.0
H315 H 0.90156 0.94739 0.25189 0.0
H316 H 0.93455 0.93649 0.27974 0.0
H317 H 0.82661 0.84254 0.25926 0.0
H318 H 0.84105 0.82895 0.21136 0.0
H319 H 0.82634 0.86642 0.21492 0.0
C320 C 0.07742 0.77751 0.24256 0.0
C321 C 0.04794 0.77975 0.22856 0.0
C322 C 0.09889 0.7981 0.22937 0.0
C323 C 0.09037 0.8205 0.20098 0.0
C324 C 0.06355 0.8169 0.17857 0.0
C325 C 0.04207 0.7966 0.19313 0.0
C326 C 0.12839 0.79939 0.25167 0.0
C327 C 0.05547 0.83799 0.14427 0.0
C328 C 0.10264 0.89494 0.25186 0.0
C329 C 0.13181 0.90173 0.23974 0.0
C330 C 0.08794 0.86972 0.23676 0.0
C331 C 0.10245 0.8511 0.20756 0.0
C332 C 0.1304 0.85994 0.19131 0.0
C333 C 0.14499 0.885 0.208 0.0
C334 C 0.05806 0.86173 0.2554 0.0
C335 C 0.14597 0.84238 0.1581 0.0
H336 H 0.08225 0.76345 0.2689 0.0
H337 H 0.01955 0.7976 0.18099 0.0
H338 H 0.14683 0.80298 0.22954 0.0
H339 H 0.12832 0.8184 0.27358 0.0
H340 H 0.1329 0.77857 0.26918 0.0
H341 H 0.0401 0.82709 0.12205 0.0
H342 H 0.04395 0.85782 0.15711 0.0
H343 H 0.07576 0.84574 0.12782 0.0
H344 H 0.09189 0.90819 0.27549 0.0
H345 H 0.1673 0.89046 0.19755 0.0
H346 H 0.05989 0.84027 0.27218 0.0
H347 H 0.04096 0.8591 0.23106 0.0
H348 H 0.04993 0.8789 0.27736 0.0
H349 H 0.16554 0.83069 0.17144 0.0
H350 H 0.15463 0.85784 0.13423 0.0
H351 H 0.13117 0.82575 0.14312 0.0
C352 C 0.08801 0.88023 0.71412 0.0
C353 C 0.0858 0.85061 0.72756 0.0
C354 C 0.11151 0.89854 0.72695 0.0
C355 C 0.13336 0.88712 0.75436 0.0
C356 C 0.12996 0.85806 0.77074 0.0
C357 C 0.10627 0.84004 0.75693 0.0
C358 C 0.11385 0.92959 0.7089 0.0
C359 C 0.15202 0.84514 0.80092 0.0
C360 C 0.201 0.92838 0.72251 0.0
C361 C 0.19601 0.95496 0.74402 0.0
C362 C 0.18372 0.90303 0.73075 0.0
C363 C 0.16105 0.90479 0.76094 0.0
C364 C 0.16057 0.92938 0.78828 0.0
C365 C 0.17815 0.95452 0.77933 0.0
C366 C 0.18612 0.87658 0.70224 0.0
C367 C 0.13811 0.93115 0.82264 0.0
H368 H 0.07205 0.88881 0.69204 0.0
H369 H 0.10466 0.81723 0.76788 0.0
H370 H 0.11545 0.94643 0.73378 0.0
H371 H 0.13435 0.93135 0.68992 0.0
H372 H 0.09441 0.93533 0.68923 0.0
H373 H 0.14075 0.82956 0.82247 0.0
H374 H 0.1691 0.83217 0.78387 0.0
H375 H 0.16355 0.86271 0.81899 0.0
H376 H 0.21515 0.92873 0.69545 0.0
H377 H 0.1745 0.97506 0.79627 0.0
H378 H 0.16804 0.87775 0.67893 0.0
H379 H 0.18348 0.8554 0.71947 0.0
H380 H 0.20788 0.8762 0.68588 0.0
H381 H 0.11658 0.93953 0.8103 0.0
H382 H 0.14566 0.94672 0.84712 0.0
H383 H 0.13409 0.9088 0.8363 0.0
C384 C 0.15883 0.12267 0.75858 0.0
C385 C 0.14732 0.09361 0.75645 0.0
C386 C 0.13943 0.14719 0.76211 0.0
C387 C 0.10827 0.14209 0.76276 0.0
C388 C 0.09738 0.1127 0.7685 0.0
C389 C 0.11716 0.08871 0.76517 0.0
C390 C 0.15201 0.17833 0.75961 0.0
C391 C 0.06438 0.10619 0.77148 0.0
C392 C 0.04162 0.19275 0.75169 0.0
C393 C 0.03562 0.18881 0.70963 0.0
C394 C 0.06765 0.18085 0.76941 0.0
C395 C 0.0876 0.16435 0.74451 0.0
C396 C 0.08342 0.16378 0.70127 0.0
C397 C 0.05758 0.17623 0.68441 0.0
C398 C 0.0722 0.18387 0.81516 0.0
C399 C 0.10441 0.14707 0.67306 0.0
H400 H 0.18235 0.1265 0.75276 0.0
H401 H 0.10849 0.0661 0.76479 0.0
H402 H 0.15381 0.18512 0.7269 0.0
H403 H 0.1374 0.19462 0.77559 0.0
H404 H 0.17473 0.17927 0.77327 0.0
H405 H 0.05996 0.08271 0.78068 0.0
H406 H 0.05367 0.12121 0.79414 0.0
H407 H 0.05369 0.11016 0.74116 0.0
H408 H 0.0251 0.20317 0.77136 0.0
H409 H 0.05357 0.17407 0.65167 0.0
H410 H 0.09579 0.1802 0.82426 0.0
H411 H 0.05803 0.16731 0.83135 0.0
H412 H 0.06512 0.20637 0.82568 0.0
H413 H 0.12772 0.15449 0.67806 0.0
H414 H 0.09884 0.15038 0.64008 0.0
H415 H 0.10336 0.12281 0.67982 0.0
C416 C 0.89824 0.11187 0.73554 0.0
C417 C 0.89942 0.14224 0.74536 0.0
C418 C 0.8757 0.09353 0.75092 0.0
C419 C 0.85386 0.1057 0.77774 0.0
C420 C 0.85678 0.13562 0.79134 0.0
C421 C 0.87948 0.15371 0.77468 0.0
C422 C 0.87402 0.06176 0.73528 0.0
C423 C 0.83523 0.14932 0.82149 0.0
C424 C 0.7882 0.06278 0.7452 0.0
C425 C 0.79521 0.03601 0.76515 0.0
C426 C 0.80366 0.08902 0.7549 0.0
C427 C 0.82629 0.08797 0.78526 0.0
C428 C 0.82765 0.06312 0.81204 0.0
C429 C 0.81224 0.03691 0.80127 0.0
C430 C 0.79989 0.11583 0.72733 0.0
C431 C 0.84939 0.06236 0.84736 0.0
H432 H 0.9141 0.10266 0.7138 0.0
H433 H 0.8805 0.17713 0.78297 0.0
H434 H 0.87311 0.04582 0.76128 0.0
H435 H 0.8535 0.05887 0.71663 0.0
H436 H 0.89343 0.0557 0.71576 0.0
H437 H 0.84739 0.16385 0.84354 0.0
H438 H 0.81922 0.16373 0.80463 0.0
H439 H 0.82253 0.13229 0.83902 0.0
H440 H 0.77445 0.06212 0.71774 0.0
H441 H 0.81724 0.01628 0.81732 0.0
H442 H 0.81852 0.11659 0.70486 0.0
H443 H 0.8005 0.13671 0.74559 0.0
H444 H 0.77853 0.11497 0.70999 0.0
H445 H 0.87144 0.05458 0.83616 0.0
H446 H 0.84176 0.04669 0.87165 0.0
H447 H 0.85231 0.08495 0.86085 0.0
C448 C 0.88269 0.89799 0.75856 0.0
C449 C 0.85146 0.89695 0.75929 0.0
C450 C 0.8997 0.87209 0.76318 0.0
C451 C 0.88508 0.84446 0.77023 0.0
C452 C 0.85397 0.84423 0.77802 0.0
C453 C 0.83732 0.8705 0.7718 0.0
C454 C 0.93294 0.87402 0.75545 0.0
C455 C 0.83769 0.81604 0.7897 0.0
C456 C 0.92437 0.79336 0.69923 0.0
C457 C 0.95033 0.78836 0.72224 0.0
C458 C 0.89982 0.8078 0.71671 0.0
C459 C 0.9012 0.81669 0.75849 0.0
C460 C 0.9245 0.80562 0.78368 0.0
C461 C 0.94935 0.79197 0.76507 0.0
C462 C 0.87466 0.81754 0.68881 0.0
C463 C 0.92494 0.81129 0.82933 0.0
H464 H 0.89386 0.91869 0.7507 0.0
H465 H 0.81318 0.86965 0.77384 0.0
H466 H 0.9454 0.86488 0.78202 0.0
H467 H 0.93896 0.86066 0.72793 0.0
H468 H 0.94059 0.89732 0.75035 0.0
H469 H 0.82214 0.8207 0.81549 0.0
H470 H 0.8239 0.80835 0.7634 0.0
H471 H 0.85309 0.79784 0.79902 0.0
H472 H 0.92463 0.78927 0.66635 0.0
H473 H 0.96897 0.78712 0.78342 0.0
H474 H 0.87488 0.84221 0.68548 0.0
H475 H 0.8529 0.81106 0.70224 0.0
H476 H 0.87635 0.80748 0.65767 0.0
H477 H 0.93961 0.8306 0.83619 0.0
H478 H 0.93431 0.79166 0.84573 0.0
H479 H 0.90226 0.81603 0.84142 0.0
C480 C 0.6175 0.62149 0.82087 0.0
C481 C 0.60498 0.6421 0.79345 0.0
C482 C 0.63234 0.59611 0.80671 0.0
C483 C 0.63497 0.59114 0.76382 0.0
C484 C 0.62429 0.61287 0.73583 0.0
C485 C 0.60925 0.63814 0.75102 0.0
C486 C 0.64373 0.5738 0.83796 0.0
C487 C 0.62726 0.60897 0.68996 0.0
C488 C 0.68618 0.52584 0.75751 0.0
C489 C 0.66528 0.50314 0.76454 0.0
C490 C 0.67657 0.55518 0.74993 0.0
C491 C 0.64561 0.56145 0.74982 0.0
C492 C 0.62489 0.53763 0.74926 0.0
C493 C 0.63502 0.50863 0.75695 0.0
C494 C 0.69936 0.57989 0.74811 0.0
C495 C 0.59171 0.54319 0.74727 0.0
H496 H 0.61497 0.62469 0.85372 0.0
H497 H 0.59993 0.65416 0.72957 0.0
H498 H 0.63163 0.55233 0.83451 0.0
H499 H 0.66778 0.56934 0.8329 0.0
H500 H 0.6408 0.58167 0.87011 0.0
H501 H 0.62913 0.63095 0.67435 0.0
H502 H 0.6469 0.59515 0.68169 0.0
H503 H 0.60696 0.59777 0.67794 0.0
H504 H 0.7097 0.52153 0.76265 0.0
H505 H 0.61893 0.49081 0.76126 0.0
H506 H 0.70232 0.58952 0.7793 0.0
H507 H 0.69186 0.59806 0.72732 0.0
H508 H 0.72134 0.57144 0.73748 0.0
H509 H 0.58386 0.55149 0.77756 0.0
H510 H 0.57916 0.52251 0.73972 0.0
H511 H 0.58645 0.56045 0.72394 0.0
C512 C 0.46636 0.6851 0.7588 0.0
C513 C 0.46968 0.69186 0.80071 0.0
C514 C 0.44134 0.66912 0.74471 0.0
C515 C 0.41949 0.6597 0.77331 0.0
C516 C 0.42106 0.6697 0.81457 0.0
C517 C 0.44613 0.6857 0.82773 0.0
C518 C 0.43986 0.65995 0.70014 0.0
C519 C 0.39794 0.66074 0.84603 0.0
C520 C 0.34779 0.61683 0.75663 0.0
C521 C 0.35676 0.58838 0.76978 0.0
C522 C 0.36866 0.64016 0.75318 0.0
C523 C 0.3989 0.6347 0.76334 0.0
C524 C 0.40841 0.60519 0.77187 0.0
C525 C 0.38721 0.58241 0.77493 0.0
C526 C 0.35777 0.67104 0.74241 0.0
C527 C 0.44054 0.59814 0.78214 0.0
H528 H 0.48429 0.69014 0.73755 0.0
H529 H 0.44822 0.69156 0.85996 0.0
H530 H 0.44943 0.63725 0.69667 0.0
H531 H 0.41646 0.65926 0.689 0.0
H532 H 0.4529 0.67541 0.68038 0.0
H533 H 0.40056 0.67315 0.8754 0.0
H534 H 0.37513 0.66473 0.83404 0.0
H535 H 0.40003 0.63651 0.85261 0.0
H536 H 0.32427 0.62154 0.75219 0.0
H537 H 0.3943 0.56025 0.78416 0.0
H538 H 0.37494 0.68377 0.72521 0.0
H539 H 0.35275 0.68344 0.77111 0.0
H540 H 0.337 0.67007 0.72378 0.0
H541 H 0.45573 0.60793 0.75888 0.0
H542 H 0.44475 0.57372 0.78375 0.0
H543 H 0.44632 0.60809 0.81238 0.0
C544 C 0.28452 0.42892 0.77797 0.0
C545 C 0.28824 0.45638 0.75809 0.0
C546 C 0.29994 0.40363 0.76433 0.0
C547 C 0.31936 0.40633 0.73019 0.0
C548 C 0.31731 0.43189 0.70476 0.0
C549 C 0.3019 0.45711 0.71935 0.0
C550 C 0.30001 0.37619 0.79125 0.0
C551 C 0.33549 0.43439 0.66599 0.0
C552 C 0.39602 0.38396 0.76562 0.0
C553 C 0.39737 0.35393 0.75386 0.0
C554 C 0.37161 0.40179 0.75538 0.0
C555 C 0.34793 0.38949 0.73186 0.0
C556 C 0.35046 0.36004 0.71632 0.0
C557 C 0.37524 0.34246 0.72765 0.0
C558 C 0.37042 0.43318 0.77261 0.0
C559 C 0.32693 0.34697 0.68843 0.0
H560 H 0.27308 0.42822 0.80734 0.0
H561 H 0.30415 0.47819 0.70326 0.0
H562 H 0.30093 0.35557 0.77246 0.0
H563 H 0.32005 0.37661 0.81134 0.0
H564 H 0.27991 0.37528 0.8112 0.0
H565 H 0.32532 0.45063 0.64428 0.0
H566 H 0.35827 0.44235 0.6737 0.0
H567 H 0.33756 0.41236 0.65063 0.0
H568 H 0.41349 0.39331 0.78477 0.0
H569 H 0.37654 0.31945 0.71753 0.0
H570 H 0.35112 0.43546 0.79372 0.0
H571 H 0.36759 0.4496 0.74742 0.0
H572 H 0.39093 0.4392 0.78993 0.0
H573 H 0.30412 0.35244 0.69928 0.0
H574 H 0.32905 0.32234 0.68571 0.0
H575 H 0.32944 0.35682 0.65732 0.0
C576 C 0.66994 0.35398 0.74509 0.0
C577 C 0.66978 0.35704 0.78802 0.0
C578 C 0.64939 0.3348 0.72569 0.0
C579 C 0.62788 0.31974 0.74993 0.0
C580 C 0.63194 0.31837 0.79316 0.0
C581 C 0.65315 0.3369 0.8116 0.0
C582 C 0.64863 0.33352 0.67942 0.0
C583 C 0.61097 0.30109 0.82069 0.0
C584 C 0.54715 0.33612 0.74011 0.0
C585 C 0.53551 0.30747 0.74568 0.0
C586 C 0.57772 0.34053 0.73476 0.0
C587 C 0.59699 0.31537 0.7341 0.0
C588 C 0.58445 0.28637 0.73124 0.0
C589 C 0.55361 0.28261 0.73795 0.0
C590 C 0.58943 0.37218 0.73614 0.0
C591 C 0.60362 0.25909 0.72526 0.0
H592 H 0.68374 0.36859 0.72653 0.0
H593 H 0.6542 0.33817 0.84488 0.0
H594 H 0.63395 0.31537 0.66792 0.0
H595 H 0.64077 0.35518 0.66694 0.0
H596 H 0.67156 0.32994 0.66744 0.0
H597 H 0.61805 0.30161 0.85343 0.0
H598 H 0.58814 0.31059 0.81864 0.0
H599 H 0.60992 0.27747 0.81077 0.0
H600 H 0.53272 0.3553 0.7447 0.0
H601 H 0.54443 0.26033 0.74105 0.0
H602 H 0.60398 0.3765 0.7093 0.0
H603 H 0.60287 0.37563 0.76444 0.0
H604 H 0.57123 0.38902 0.73586 0.0
H605 H 0.627 0.26479 0.71717 0.0
H606 H 0.59403 0.24507 0.70037 0.0
H607 H 0.60345 0.24535 0.75364 0.0
C608 C 0.67657 0.46325 0.27101 0.0
C609 C 0.69025 0.46964 0.23335 0.0
C610 C 0.66415 0.4349 0.27809 0.0
C611 C 0.66546 0.41313 0.24655 0.0
C612 C 0.68427 0.41795 0.21222 0.0
C613 C 0.6963 0.4464 0.20585 0.0
C614 C 0.64563 0.43002 0.31616 0.0
C615 C 0.68729 0.39503 0.17846 0.0
C616 C 0.62128 0.34059 0.24149 0.0
C617 C 0.59631 0.34989 0.21869 0.0
C618 C 0.64354 0.36112 0.25317 0.0
C619 C 0.64052 0.3915 0.24186 0.0
C620 C 0.6144 0.40116 0.22114 0.0
C621 C 0.5927 0.38031 0.21003 0.0
C622 C 0.67043 0.35025 0.27676 0.0
C623 C 0.60995 0.43337 0.20847 0.0
H624 H 0.67212 0.48125 0.29246 0.0
H625 H 0.7073 0.4514 0.17694 0.0
H626 H 0.62195 0.43532 0.30927 0.0
H627 H 0.64678 0.40642 0.32634 0.0
H628 H 0.65309 0.44473 0.34169 0.0
H629 H 0.70723 0.39936 0.15906 0.0
H630 H 0.6889 0.37216 0.19131 0.0
H631 H 0.66722 0.39594 0.15846 0.0
H632 H 0.62401 0.31715 0.24886 0.0
H633 H 0.57321 0.38784 0.19324 0.0
H634 H 0.6695 0.35909 0.30859 0.0
H635 H 0.69138 0.35859 0.26271 0.0
H636 H 0.67138 0.32549 0.2783 0.0
H637 H 0.61168 0.44824 0.23562 0.0
H638 H 0.58791 0.43722 0.19374 0.0
H639 H 0.62757 0.44006 0.18636 0.0
C640 C 0.56414 0.71609 0.2235 0.0
C641 C 0.53546 0.71722 0.24045 0.0
C642 C 0.58683 0.70008 0.24311 0.0
C643 C 0.58046 0.68546 0.28075 0.0
C644 C 0.55413 0.69307 0.30234 0.0
C645 C 0.53134 0.7085 0.28149 0.0
C646 C 0.61557 0.69466 0.22008 0.0
C647 C 0.54834 0.68144 0.34505 0.0
C648 C 0.59809 0.60536 0.26072 0.0
C649 C 0.62888 0.60522 0.26799 0.0
C650 C 0.58087 0.63053 0.26953 0.0
C651 C 0.59466 0.65586 0.28769 0.0
C652 C 0.62446 0.65362 0.30195 0.0
C653 C 0.64151 0.62839 0.2913 0.0
C654 C 0.54894 0.63108 0.25433 0.0
C655 C 0.63932 0.67856 0.32537 0.0
H656 H 0.56767 0.72417 0.19243 0.0
H657 H 0.50949 0.71039 0.29553 0.0
H658 H 0.63494 0.69885 0.24046 0.0
H659 H 0.61663 0.67105 0.20978 0.0
H660 H 0.61768 0.70925 0.19261 0.0
H661 H 0.53615 0.6984 0.36344 0.0
H662 H 0.53405 0.66127 0.34344 0.0
H663 H 0.56944 0.67557 0.36105 0.0
H664 H 0.58791 0.58688 0.24437 0.0
H665 H 0.66514 0.62804 0.29847 0.0
H666 H 0.5463 0.64839 0.2302 0.0
H667 H 0.53357 0.63659 0.27987 0.0
H668 H 0.54182 0.60934 0.24114 0.0
H669 H 0.6568 0.68898 0.30594 0.0
H670 H 0.65076 0.66932 0.35287 0.0
H671 H 0.6233 0.69597 0.33548 0.0
C672 C 0.37696 0.65733 0.22821 0.0
C673 C 0.40644 0.64912 0.21917 0.0
C674 C 0.35447 0.63555 0.23134 0.0
C675 C 0.36188 0.60514 0.22521 0.0
C676 C 0.39218 0.5967 0.22098 0.0
C677 C 0.41407 0.61882 0.21796 0.0
C678 C 0.32258 0.64537 0.23729 0.0
C679 C 0.40124 0.56448 0.21519 0.0
C680 C 0.31349 0.53623 0.23164 0.0
C681 C 0.30922 0.53038 0.18964 0.0
C682 C 0.32802 0.56242 0.24458 0.0
C683 C 0.3385 0.58289 0.21475 0.0
C684 C 0.33114 0.5786 0.1728 0.0
C685 C 0.31654 0.55242 0.1608 0.0
C686 C 0.33451 0.56668 0.28971 0.0
C687 C 0.34141 0.6001 0.13992 0.0
H688 H 0.37099 0.68076 0.22955 0.0
H689 H 0.43699 0.61241 0.2119 0.0
H690 H 0.31153 0.64723 0.20686 0.0
H691 H 0.30989 0.62891 0.25583 0.0
H692 H 0.32138 0.66753 0.25255 0.0
H693 H 0.4258 0.56141 0.21714 0.0
H694 H 0.39053 0.55012 0.2387 0.0
H695 H 0.39366 0.55661 0.18454 0.0
H696 H 0.30754 0.51946 0.25421 0.0
H697 H 0.3126 0.54835 0.12837 0.0
H698 H 0.33404 0.59065 0.29829 0.0
H699 H 0.35713 0.55797 0.29668 0.0
H700 H 0.31824 0.55436 0.3091 0.0
H701 H 0.33607 0.6234 0.14871 0.0
H702 H 0.33098 0.59534 0.10961 0.0
H703 H 0.366 0.59847 0.13645 0.0
C704 C 0.34766 0.37531 0.2495 0.0
C705 C 0.35543 0.39275 0.21523 0.0
C706 C 0.36701 0.35296 0.26421 0.0
C707 C 0.39471 0.34831 0.2443 0.0
C708 C 0.40334 0.3673 0.21146 0.0
C709 C 0.38365 0.3892 0.1975 0.0
C710 C 0.35757 0.33418 0.30045 0.0
C711 C 0.43279 0.36356 0.18925 0.0
C712 C 0.46573 0.30934 0.2657 0.0
C713 C 0.46439 0.28882 0.23326 0.0
C714 C 0.44038 0.32612 0.27624 0.0
C715 C 0.41377 0.322 0.25349 0.0
C716 C 0.41096 0.29675 0.22758 0.0
C717 C 0.4366 0.28053 0.21733 0.0
C718 C 0.44363 0.35163 0.3061 0.0
C719 C 0.38246 0.29042 0.20445 0.0
H720 H 0.326 0.37824 0.26375 0.0
H721 H 0.39007 0.403 0.17159 0.0
H722 H 0.36315 0.3103 0.29568 0.0
H723 H 0.36979 0.34181 0.32821 0.0
H724 H 0.33327 0.33614 0.30662 0.0
H725 H 0.43639 0.38095 0.16543 0.0
H726 H 0.45158 0.36466 0.21138 0.0
H727 H 0.43355 0.34142 0.17397 0.0
H728 H 0.48725 0.31549 0.27841 0.0
H729 H 0.43561 0.26426 0.19265 0.0
H730 H 0.42251 0.35547 0.32308 0.0
H731 H 0.44906 0.37234 0.2889 0.0
H732 H 0.46189 0.34738 0.32846 0.0
H733 H 0.36265 0.29482 0.22395 0.0
H734 H 0.38165 0.26692 0.19355 0.0
H735 H 0.38119 0.30529 0.1772 0.0
C736 C 0.11188 0.30811 0.24552 0.0
C737 C 0.10558 0.29164 0.28095 0.0
C738 C 0.13481 0.3294 0.24564 0.0
C739 C 0.15141 0.33433 0.28217 0.0
C740 C 0.14437 0.31852 0.31837 0.0
C741 C 0.12164 0.29721 0.31725 0.0
C742 C 0.14192 0.34592 0.20637 0.0
C743 C 0.16142 0.32344 0.35789 0.0
C744 C 0.22915 0.36068 0.25937 0.0
C745 C 0.22562 0.39161 0.26223 0.0
C746 C 0.20562 0.34151 0.26886 0.0
C747 C 0.17797 0.35381 0.28113 0.0
C748 C 0.17526 0.38491 0.28804 0.0
C749 C 0.19939 0.40362 0.27858 0.0
C750 C 0.20954 0.30839 0.26187 0.0
C751 C 0.14615 0.39865 0.30165 0.0
H752 H 0.09931 0.30398 0.2176 0.0
H753 H 0.11653 0.28484 0.34501 0.0
H754 H 0.14185 0.37035 0.21194 0.0
H755 H 0.16463 0.33976 0.19573 0.0
H756 H 0.12578 0.3408 0.1814 0.0
H757 H 0.15112 0.3116 0.38432 0.0
H758 H 0.18466 0.31531 0.35426 0.0
H759 H 0.16264 0.3476 0.36519 0.0
H760 H 0.24963 0.35162 0.24669 0.0
H761 H 0.19672 0.42765 0.28025 0.0
H762 H 0.19657 0.30151 0.23437 0.0
H763 H 0.2009 0.29552 0.28844 0.0
H764 H 0.23329 0.30224 0.25691 0.0
H765 H 0.13032 0.39884 0.2754 0.0
H766 H 0.14918 0.42198 0.31249 0.0
H767 H 0.13582 0.38535 0.32663 0.0
C768 C 0.73458 0.13801 0.26487 0.0
C769 C 0.73214 0.10799 0.25327 0.0
C770 C 0.71184 0.15832 0.25619 0.0
C771 C 0.686 0.14826 0.23552 0.0
C772 C 0.68389 0.11823 0.22212 0.0
C773 C 0.70722 0.09833 0.23104 0.0
C774 C 0.71509 0.1903 0.27034 0.0
C775 C 0.65659 0.10695 0.19978 0.0
C776 C 0.61704 0.1954 0.25316 0.0
C777 C 0.61702 0.21317 0.21778 0.0
C778 C 0.63899 0.17346 0.25886 0.0
C779 C 0.66124 0.16941 0.22843 0.0
C780 C 0.6612 0.18721 0.19263 0.0
C781 C 0.63913 0.20893 0.1878 0.0
C782 C 0.6386 0.15485 0.29756 0.0
C783 C 0.68471 0.18362 0.1597 0.0
H784 H 0.75406 0.14552 0.28176 0.0
H785 H 0.70533 0.07504 0.22238 0.0
H786 H 0.71223 0.20576 0.24398 0.0
H787 H 0.69742 0.19565 0.29305 0.0
H788 H 0.73716 0.19467 0.28472 0.0
H789 H 0.65915 0.08344 0.1895 0.0
H790 H 0.63689 0.10841 0.22033 0.0
H791 H 0.65188 0.12112 0.17256 0.0
H792 H 0.59984 0.19848 0.27619 0.0
H793 H 0.63918 0.22254 0.16024 0.0
H794 H 0.65915 0.15912 0.31568 0.0
H795 H 0.63841 0.13077 0.28962 0.0
H796 H 0.61894 0.15978 0.31722 0.0
H797 H 0.707 0.18912 0.17249 0.0
H798 H 0.68053 0.19821 0.13268 0.0
H799 H 0.68556 0.16009 0.14911 0.0
C800 C 0.7894 0.61326 0.27863 0.0
C801 C 0.7644 0.6219 0.25573 0.0
C802 C 0.81403 0.6324 0.28245 0.0
C803 C 0.8133 0.66074 0.26314 0.0
C804 C 0.78747 0.67009 0.24181 0.0
C805 C 0.76332 0.65051 0.23833 0.0
C806 C 0.84126 0.62187 0.30565 0.0
C807 C 0.78576 0.70032 0.22132 0.0
C808 C 0.86785 0.71982 0.29797 0.0
C809 C 0.8899 0.71806 0.26745 0.0
C810 C 0.84277 0.7013 0.29689 0.0
C811 C 0.83972 0.6805 0.26454 0.0
C812 C 0.8616 0.67894 0.23317 0.0
C813 C 0.8865 0.69789 0.23494 0.0
C814 C 0.81971 0.70378 0.3306 0.0
C815 C 0.85889 0.657 0.19812 0.0
H816 H 0.79032 0.59107 0.29186 0.0
H817 H 0.74388 0.65731 0.2208 0.0
H818 H 0.86044 0.62001 0.28424 0.0
H819 H 0.84748 0.63837 0.32962 0.0
H820 H 0.83769 0.59985 0.32056 0.0
H821 H 0.76342 0.70474 0.2078 0.0
H822 H 0.79091 0.71821 0.24381 0.0
H823 H 0.80266 0.70171 0.19649 0.0
H824 H 0.87032 0.73551 0.32312 0.0
H825 H 0.90359 0.69642 0.21145 0.0
H826 H 0.81769 0.68216 0.34699 0.0
H827 H 0.79752 0.70888 0.31716 0.0
H828 H 0.82532 0.7214 0.35336 0.0
H829 H 0.85798 0.6339 0.21036 0.0
H830 H 0.87783 0.65863 0.17621 0.0
H831 H 0.8378 0.66095 0.18107 0.0
C832 C 0.28853 0.89826 0.22227 0.0
C833 C 0.26349 0.88997 0.24524 0.0
C834 C 0.31157 0.87769 0.21508 0.0
C835 C 0.3091 0.84836 0.23105 0.0
C836 C 0.28316 0.8396 0.25251 0.0
C837 C 0.26066 0.86054 0.25935 0.0
C838 C 0.33898 0.88758 0.19183 0.0
C839 C 0.27959 0.8084 0.26953 0.0
C840 C 0.3568 0.78636 0.18818 0.0
C841 C 0.3793 0.78414 0.21804 0.0
C842 C 0.33404 0.80751 0.19174 0.0
C843 C 0.33375 0.82678 0.22608 0.0
C844 C 0.35616 0.82446 0.25666 0.0
C845 C 0.37876 0.80306 0.25228 0.0
C846 C 0.31033 0.80923 0.15875 0.0
C847 C 0.35627 0.84463 0.29387 0.0
H848 H 0.29074 0.92107 0.2116 0.0
H849 H 0.24111 0.85405 0.27684 0.0
H850 H 0.3587 0.88677 0.21245 0.0
H851 H 0.34343 0.87217 0.16584 0.0
H852 H 0.33672 0.91062 0.17959 0.0
H853 H 0.25741 0.80488 0.28396 0.0
H854 H 0.28255 0.79166 0.24474 0.0
H855 H 0.29708 0.8041 0.29297 0.0
H856 H 0.35712 0.77177 0.16159 0.0
H857 H 0.39623 0.80149 0.27525 0.0
H858 H 0.30971 0.83202 0.14542 0.0
H859 H 0.28806 0.80485 0.17232 0.0
H860 H 0.31419 0.79296 0.13353 0.0
H861 H 0.35684 0.86833 0.28402 0.0
H862 H 0.37564 0.84035 0.31438 0.0
H863 H 0.33546 0.84138 0.31178 0.0
C864 C 0.22167 0.63867 0.78915 0.0
C865 C 0.22222 0.6135 0.76351 0.0
C866 C 0.19982 0.66066 0.78446 0.0
C867 C 0.17804 0.65732 0.75341 0.0
C868 C 0.17897 0.63242 0.72657 0.0
C869 C 0.20122 0.61076 0.73188 0.0
C870 C 0.19967 0.68714 0.81326 0.0
C871 C 0.15607 0.62835 0.69295 0.0
C872 C 0.10416 0.69788 0.76286 0.0
C873 C 0.10827 0.72117 0.73478 0.0
C874 C 0.12701 0.6771 0.76994 0.0
C875 C 0.15443 0.68009 0.74865 0.0
C876 C 0.15911 0.70446 0.7219 0.0
C877 C 0.13591 0.72469 0.71523 0.0
C878 C 0.12144 0.65133 0.79884 0.0
C879 C 0.18822 0.70857 0.69914 0.0
H880 H 0.23799 0.64092 0.81358 0.0
H881 H 0.20152 0.59123 0.7122 0.0
H882 H 0.20062 0.70822 0.79543 0.0
H883 H 0.1786 0.68746 0.83114 0.0
H884 H 0.21871 0.68674 0.83514 0.0
H885 H 0.16015 0.60791 0.67443 0.0
H886 H 0.13343 0.6269 0.7066 0.0
H887 H 0.15623 0.64794 0.67209 0.0
H888 H 0.08272 0.69511 0.7778 0.0
H889 H 0.13919 0.74291 0.69375 0.0
H890 H 0.13926 0.65026 0.82249 0.0
H891 H 0.12209 0.63003 0.78144 0.0
H892 H 0.0995 0.65309 0.81455 0.0
H893 H 0.2072 0.70847 0.72104 0.0
H894 H 0.18881 0.72973 0.68135 0.0
H895 H 0.19164 0.6897 0.67755 0.0
C896 C 0.39444 0.19597 0.72354 0.0
C897 C 0.38831 0.21903 0.75131 0.0
C898 C 0.37429 0.17225 0.71849 0.0
C899 C 0.34744 0.17202 0.74147 0.0
C900 C 0.34088 0.1957 0.76871 0.0
C901 C 0.36145 0.21888 0.77336 0.0
C902 C 0.38186 0.14726 0.68916 0.0
C903 C 0.31223 0.19647 0.79319 0.0
C904 C 0.28085 0.129 0.70261 0.0
C905 C 0.2809 0.10388 0.72838 0.0
C906 C 0.3028 0.15098 0.70601 0.0
C907 C 0.32541 0.14777 0.73594 0.0
C908 C 0.32577 0.12243 0.76202 0.0
C909 C 0.30335 0.10071 0.758 0.0
C910 C 0.3015 0.17786 0.67798 0.0
C911 C 0.34967 0.11844 0.79429 0.0
H912 H 0.41537 0.19594 0.70683 0.0
H913 H 0.35662 0.23679 0.79478 0.0
H914 H 0.38249 0.12572 0.70598 0.0
H915 H 0.36433 0.14533 0.66522 0.0
H916 H 0.40373 0.15072 0.67381 0.0
H917 H 0.31063 0.21655 0.81313 0.0
H918 H 0.29277 0.19624 0.77208 0.0
H919 H 0.3106 0.17631 0.81286 0.0
H920 H 0.26352 0.13163 0.67962 0.0
H921 H 0.30353 0.08122 0.77775 0.0
H922 H 0.32282 0.18026 0.66099 0.0
H923 H 0.29844 0.19844 0.69651 0.0
H924 H 0.28299 0.17639 0.65532 0.0
H925 H 0.37207 0.11961 0.77987 0.0
H926 H 0.34758 0.09684 0.81079 0.0
H927 H 0.34834 0.13682 0.81708 0.0
C928 C 0.91127 0.30556 0.77171 0.0
C929 C 0.89738 0.27933 0.75827 0.0
C930 C 0.89425 0.33095 0.78088 0.0
C931 C 0.86282 0.32948 0.77724 0.0
C932 C 0.84876 0.30244 0.76575 0.0
C933 C 0.86631 0.27774 0.75592 0.0
C934 C 0.90988 0.35961 0.7924 0.0
C935 C 0.81519 0.29978 0.76266 0.0
C936 C 0.80879 0.37982 0.83102 0.0
C937 C 0.7965 0.39544 0.79767 0.0
C938 C 0.83239 0.35995 0.82541 0.0
C939 C 0.84408 0.35587 0.78554 0.0
C940 C 0.83377 0.37371 0.75247 0.0
C941 C 0.80984 0.39333 0.7589 0.0
C942 C 0.84276 0.3413 0.86141 0.0
C943 C 0.84637 0.37033 0.7097 0.0
H944 H 0.93543 0.30675 0.77264 0.0
H945 H 0.85578 0.25732 0.74536 0.0
H946 H 0.90714 0.37607 0.76718 0.0
H947 H 0.89978 0.3695 0.82038 0.0
H948 H 0.93411 0.35621 0.79789 0.0
H949 H 0.8079 0.27671 0.75518 0.0
H950 H 0.80468 0.30654 0.7921 0.0
H951 H 0.80672 0.31501 0.73842 0.0
H952 H 0.79895 0.3819 0.86133 0.0
H953 H 0.80064 0.40574 0.73324 0.0
H954 H 0.86746 0.34003 0.86238 0.0
H955 H 0.8342 0.31819 0.85789 0.0
H956 H 0.83466 0.35028 0.89123 0.0
H957 H 0.87108 0.36893 0.7107 0.0
H958 H 0.83981 0.38917 0.6894 0.0
H959 H 0.83798 0.34929 0.69587 0.0
C960 C 0.71372 0.87012 0.68328 0.0
C961 C 0.7176 0.88733 0.719 0.0
C962 C 0.69184 0.84794 0.68118 0.0
C963 C 0.67366 0.84264 0.7158 0.0
C964 C 0.67684 0.86048 0.75158 0.0
C965 C 0.69878 0.88279 0.75269 0.0
C966 C 0.68887 0.82953 0.64246 0.0
C967 C 0.65776 0.8553 0.78917 0.0
C968 C 0.60321 0.79612 0.71502 0.0
C969 C 0.61359 0.77032 0.73454 0.0
C970 C 0.623 0.81949 0.70589 0.0
C971 C 0.65352 0.81649 0.71648 0.0
C972 C 0.66439 0.78911 0.7321 0.0
C973 C 0.64417 0.76633 0.74104 0.0
C974 C 0.61077 0.84826 0.68863 0.0
C975 C 0.69686 0.78485 0.74318 0.0
H976 H 0.72794 0.87384 0.65682 0.0
H977 H 0.70158 0.89623 0.78014 0.0
H978 H 0.69624 0.80631 0.6486 0.0
H979 H 0.6652 0.82849 0.63254 0.0
H980 H 0.70246 0.83863 0.6168 0.0
H981 H 0.66171 0.87232 0.81342 0.0
H982 H 0.63378 0.85566 0.78068 0.0
H983 H 0.66265 0.83293 0.80217 0.0
H984 H 0.57943 0.7992 0.71052 0.0
H985 H 0.652 0.74622 0.7562 0.0
H986 H 0.62581 0.85742 0.66467 0.0
H987 H 0.60924 0.86507 0.7136 0.0
H988 H 0.58817 0.84519 0.67521 0.0
H989 H 0.71147 0.79215 0.71758 0.0
H990 H 0.70213 0.76122 0.75063 0.0
H991 H 0.70237 0.7988 0.77036 0.0
C992 C 0.02363 0.23418 0.42154 0.0
C993 C 0.0072 0.24697 0.38951 0.0
C994 C 0.01388 0.23627 0.46215 0.0
C995 C 0.98653 0.25074 0.47065 0.0
C996 C 0.97005 0.26425 0.43842 0.0
C997 C 0.98091 0.26259 0.39797 0.0
C998 C 0.03244 0.22216 0.49577 0.0
C999 C 0.9405 0.27929 0.44645 0.0
C1000 C 0.95113 0.21947 0.56635 0.0
C1001 C 0.95973 0.2405 0.59596 0.0
C1002 C 0.95818 0.22353 0.52488 0.0
C1003 C 0.97437 0.24917 0.51284 0.0
C1004 C 0.98212 0.27109 0.54231 0.0
C1005 C 0.97466 0.26649 0.58371 0.0
C1006 C 0.94953 0.19964 0.49428 0.0
C1007 C -0.00049 0.29863 0.53045 0.0
H1008 H 0.04428 0.22255 0.41478 0.0
H1009 H 0.96838 0.27245 0.37288 0.0
H1010 H 0.03644 0.23841 0.52092 0.0
H1011 H 0.02023 0.20294 0.50916 0.0
H1012 H 0.05435 0.21409 0.48432 0.0
H1013 H 0.93178 0.29091 0.41875 0.0
H1014 H 0.92389 0.26235 0.45625 0.0
H1015 H 0.94264 0.29568 0.47184 0.0
H1016 H 0.93928 0.19948 0.57564 0.0
H1017 H 0.98109 0.28291 0.60654 0.0
H1018 H 0.96987 0.18798 0.48331 0.0
H1019 H 0.93857 0.20977 0.46706 0.0
H1020 H 0.93423 0.18279 0.50779 0.0
H1021 H 0.02259 0.29217 0.52188 0.0
H1022 H 0.00068 0.31511 0.55593 0.0
H1023 H 0.98931 0.30951 0.50323 0.0
C1024 C 0.79493 0.97811 0.5861 0.0
C1025 C 0.77317 0.98651 0.61474 0.0
C1026 C 0.79374 0.98833 0.54556 0.0
C1027 C 0.77065 0.00807 0.53372 0.0
C1028 C 0.74909 0.01739 0.56281 0.0
C1029 C 0.75039 0.00615 0.60305 0.0
C1030 C 0.81689 0.97754 0.5152 0.0
C1031 C 0.72466 0.03905 0.55135 0.0
C1032 C 0.78951 0.05132 0.43773 0.0
C1033 C 0.77412 0.03507 0.40768 0.0
C1034 C 0.78709 0.04385 0.47933 0.0
C1035 C 0.76957 0.01897 0.49082 0.0
C1036 C 0.75344 0.00285 0.46063 0.0
C1037 C 0.75561 0.01139 0.41926 0.0
C1038 C 0.80405 0.06197 0.5108 0.0
C1039 C 0.73508 0.97577 0.47177 0.0
H1040 H 0.81244 0.9627 0.59501 0.0
H1041 H 0.73361 0.01267 0.6253 0.0
H1042 H 0.80577 0.96652 0.48874 0.0
H1043 H 0.82969 0.99675 0.50291 0.0
H1044 H 0.83284 0.96149 0.52918 0.0
H1045 H 0.71035 0.04495 0.57802 0.0
H1046 H 0.73454 0.05982 0.53869 0.0
H1047 H 0.71038 0.02927 0.52695 0.0
H1048 H 0.80349 0.06996 0.42868 0.0
H1049 H 0.74374 -0.00112 0.39585 0.0
H1050 H 0.82242 0.04835 0.52387 0.0
H1051 H 0.78915 0.06834 0.5366 0.0
H1052 H 0.8138 0.08257 0.49736 0.0
H1053 H 0.74998 0.95791 0.48351 0.0
H1054 H 0.72239 0.96689 0.44507 0.0
H1055 H 0.71913 0.98128 0.49669 0.0
C1056 C 0.99799 0.7605 0.57134 0.0
C1057 C 0.0199 0.74474 0.59275 0.0
C1058 C 0.9936 0.7556 0.52925 0.0
C1059 C 0.01259 0.7355 0.50805 0.0
C1060 C 0.03432 0.719 0.52996 0.0
C1061 C 0.03739 0.7235 0.57242 0.0
C1062 C 0.9695 0.7729 0.50718 0.0
C1063 C 0.05562 0.6982 0.50823 0.0
C1064 C 0.98683 0.71592 0.40061 0.0
C1065 C -0.00094 0.73968 0.37835 0.0
C1066 C 0.99233 0.71311 0.44289 0.0
C1067 C 0.01121 0.73405 0.46258 0.0
C1068 C 0.02591 0.75624 0.43913 0.0
C1069 C 0.01912 0.75919 0.39732 0.0
C1070 C 0.97571 0.68961 0.46699 0.0
C1071 C 0.04707 0.7783 0.45873 0.0
H1072 H 0.98464 0.77697 0.58741 0.0
H1073 H 0.05468 0.71177 0.58927 0.0
H1074 H 0.97985 0.78979 0.48672 0.0
H1075 H 0.956 0.75775 0.4876 0.0
H1076 H 0.95437 0.78461 0.5289 0.0
H1077 H 0.06891 0.68461 0.53017 0.0
H1078 H 0.04339 0.68298 0.48726 0.0
H1079 H 0.07122 0.71151 0.48909 0.0
H1080 H 0.97092 0.70116 0.38582 0.0
H1081 H 0.02847 0.77757 0.37987 0.0
H1082 H 0.95758 0.70044 0.48481 0.0
H1083 H 0.99067 0.67837 0.48931 0.0
H1084 H 0.9656 0.67245 0.44661 0.0
H1085 H 0.0342 0.79466 0.4772 0.0
H1086 H 0.06022 0.79075 0.4354 0.0
H1087 H 0.06272 0.76672 0.47983 0.0
C1088 C 0.2063 0.02493 0.5746 0.0
C1089 C 0.22642 0.01333 0.60342 0.0
C1090 C 0.20678 0.01541 0.53371 0.0
C1091 C 0.2274 0.99318 0.52168 0.0
C1092 C 0.2475 0.98098 0.55079 0.0
C1093 C 0.24703 0.99154 0.59143 0.0
C1094 C 0.18535 0.02932 0.50334 0.0
C1095 C 0.26924 0.95669 0.53908 0.0
C1096 C 0.20413 0.95254 0.42517 0.0
C1097 C 0.22174 0.96668 0.39544 0.0
C1098 C 0.20692 0.95987 0.4668 0.0
C1099 C 0.22722 0.98247 0.47865 0.0
C1100 C 0.24535 0.99659 0.44876 0.0
C1101 C 0.24264 0.98821 0.40739 0.0
C1102 C 0.18767 0.94394 0.49797 0.0
C1103 C 0.2667 0.02129 0.46027 0.0
H1104 H 0.19052 0.04202 0.5838 0.0
H1105 H 0.26251 0.98254 0.61387 0.0
H1106 H 0.19786 0.0389 0.47702 0.0
H1107 H 0.17015 0.01201 0.49082 0.0
H1108 H 0.17161 0.04725 0.51741 0.0
H1109 H 0.28309 0.94932 0.56555 0.0
H1110 H 0.25693 0.93712 0.52684 0.0
H1111 H 0.28424 0.96468 0.5143 0.0
H1112 H 0.18824 0.93557 0.4159 0.0
H1113 H 0.25622 -0.00089 0.38426 0.0
H1114 H 0.17126 0.95979 0.51122 0.0
H1115 H 0.20157 0.93547 0.52368 0.0
H1116 H 0.17528 0.92491 0.48423 0.0
H1117 H 0.25398 0.04065 0.47235 0.0
H1118 H 0.2803 0.02887 0.43369 0.0
H1119 H 0.28194 0.01377 0.48507 0.0
C1120 C 0.55924 0.76036 0.93198 0.0
C1121 C 0.54037 0.76442 0.89819 0.0
C1122 C 0.54905 0.76551 0.97191 0.0
C1123 C 0.51901 0.77409 0.97793 0.0
C1124 C 0.50075 0.78102 0.94361 0.0
C1125 C 0.51182 0.77628 0.90377 0.0
C1126 C 0.56942 0.75838 0.0076 0.0
C1127 C 0.46856 0.79012 0.94886 0.0
C1128 C 0.48322 0.73388 0.06686 0.0
C1129 C 0.48192 0.75621 0.09693 0.0
C1130 C 0.4946 0.73982 0.0278 0.0
C1131 C 0.50527 0.7688 0.01863 0.0
C1132 C 0.5042 0.79151 0.04884 0.0
C1133 C 0.4924 0.78495 0.08783 0.0
C1134 C 0.49538 0.71488 0.99643 0.0
C1135 C 0.51562 0.82254 0.04001 0.0
H1136 H 0.58153 0.75152 0.92729 0.0
H1137 H 0.49734 0.77936 0.87738 0.0
H1138 H 0.56671 0.7749 0.03272 0.0
H1139 H 0.56357 0.73609 0.02014 0.0
H1140 H 0.59323 0.75793 0.99812 0.0
H1141 H 0.4595 0.8006 0.92053 0.0
H1142 H 0.45499 0.77002 0.95586 0.0
H1143 H 0.46598 0.8059 0.97489 0.0
H1144 H 0.47506 0.71165 0.07367 0.0
H1145 H 0.49127 0.80228 0.11104 0.0
H1146 H 0.51882 0.70992 0.98784 0.0
H1147 H 0.48348 0.72175 0.96804 0.0
H1148 H 0.485 0.69401 0.00807 0.0
H1149 H 0.53965 0.82162 0.03192 0.0
H1150 H 0.51275 0.8378 0.06665 0.0
H1151 H 0.5037 0.83208 0.01314 0.0
C1152 C 0.22195 0.50197 0.90146 0.0
C1153 C 0.24951 0.51562 0.89362 0.0
C1154 C 0.21566 0.48993 0.94041 0.0
C1155 C 0.23741 0.49194 0.97187 0.0
C1156 C 0.26504 0.50614 0.96411 0.0
C1157 C 0.27078 0.51762 0.92505 0.0
C1158 C 0.18611 0.47469 0.94773 0.0
C1159 C 0.28886 0.50884 0.9969 0.0
C1160 C 0.2266 0.48446 0.0862 0.0
C1161 C 0.24156 0.45752 0.09304 0.0
C1162 C 0.22229 0.49498 0.04599 0.0
C1163 C 0.23278 0.47775 0.01243 0.0
C1164 C 0.24491 0.44905 0.01938 0.0
C1165 C 0.24955 0.43945 0.05974 0.0
C1166 C 0.20939 0.52576 0.03976 0.0
C1167 C 0.25583 0.42972 0.98442 0.0
H1168 H 0.20544 0.5005 0.87716 0.0
H1169 H 0.29204 0.52836 0.91924 0.0
H1170 H 0.18985 0.45067 0.95425 0.0
H1171 H 0.17493 0.48439 0.97506 0.0
H1172 H 0.17091 0.47664 0.92086 0.0
H1173 H 0.30845 0.52196 0.98634 0.0
H1174 H 0.27958 0.51973 0.02473 0.0
H1175 H 0.2967 0.48631 0.00603 0.0
H1176 H 0.22034 0.4983 0.11216 0.0
H1177 H 0.26064 0.4183 0.06527 0.0
H1178 H 0.1942 0.52623 0.01283 0.0
H1179 H 0.2278 0.54173 0.03364 0.0
H1180 H 0.19701 0.53357 0.06732 0.0
H1181 H 0.23982 0.43006 0.9584 0.0
H1182 H 0.25928 0.40622 0.99424 0.0
H1183 H 0.27742 0.43856 0.97299 0.0
C1184 C 0.54316 0.23934 0.06231 0.0
C1185 C 0.52156 0.24385 0.09263 0.0
C1186 C 0.53512 0.23784 0.02083 0.0
C1187 C 0.50478 0.24126 0.00979 0.0
C1188 C 0.48266 0.24393 0.04074 0.0
C1189 C 0.49141 0.24531 0.08213 0.0
C1190 C 0.55934 0.23502 0.98878 0.0
C1191 C 0.45008 0.24749 0.03003 0.0
C1192 C 0.48798 0.28053 0.90962 0.0
C1193 C 0.48037 0.2566 0.88406 0.0
C1194 C 0.49651 0.27567 0.95044 0.0
C1195 C 0.49681 0.2462 0.96615 0.0
C1196 C 0.48963 0.22186 0.94026 0.0
C1197 C 0.48175 0.22735 0.89919 0.0
C1198 C 0.50473 0.30216 0.97692 0.0
C1199 C 0.4894 0.19023 0.95625 0.0
H1200 H 0.56654 0.23849 0.07097 0.0
H1201 H 0.47493 0.24916 0.10596 0.0
H1202 H 0.55317 0.21816 0.96529 0.0
H1203 H 0.56209 0.25669 0.97272 0.0
H1204 H 0.58113 0.22865 0.00253 0.0
H1205 H 0.43549 0.2452 0.05745 0.0
H1206 H 0.44636 0.26989 0.0164 0.0
H1207 H 0.44329 0.23069 0.00677 0.0
H1208 H 0.487 0.30313 0.89777 0.0
H1209 H 0.47552 0.20888 0.87944 0.0
H1210 H 0.5274 0.29906 0.99001 0.0
H1211 H 0.48896 0.30399 0.00307 0.0
H1212 H 0.50433 0.32348 0.95949 0.0
H1213 H 0.51129 0.18465 0.97019 0.0
H1214 H 0.4844 0.17371 0.93171 0.0
H1215 H 0.47234 0.18804 0.98079 0.0
C1216 C 0.73652 0.5045 0.91868 0.0
C1217 C 0.71942 0.47879 0.91187 0.0
C1218 C 0.73658 0.5185 0.95725 0.0
C1219 C 0.71946 0.50615 0.98959 0.0
C1220 C 0.70169 0.48056 0.98256 0.0
C1221 C 0.70169 0.46733 0.94361 0.0
C1222 C 0.75532 0.54613 0.9636 0.0
C1223 C 0.68332 0.46664 0.01648 0.0
C1224 C 0.74063 0.52105 0.10045 0.0
C1225 C 0.71842 0.5413 0.11209 0.0
C1226 C 0.74165 0.50983 0.06024 0.0
C1227 C 0.72026 0.51961 0.03112 0.0
C1228 C 0.69843 0.54084 0.04245 0.0
C1229 C 0.69758 0.55122 0.08301 0.0
C1230 C 0.76495 0.48682 0.04927 0.0
C1231 C 0.6756 0.55212 0.01198 0.0
H1232 H 0.75016 0.51343 0.89407 0.0
H1233 H 0.6885 0.44739 0.93845 0.0
H1234 H 0.74136 0.5645 0.97597 0.0
H1235 H 0.77303 0.54155 0.9866 0.0
H1236 H 0.76603 0.55382 0.93468 0.0
H1237 H 0.6706 0.44682 0.00578 0.0
H1238 H 0.69812 0.45972 0.04214 0.0
H1239 H 0.66733 0.48321 0.02898 0.0
H1240 H 0.75669 0.51337 0.12303 0.0
H1241 H 0.68057 0.56714 0.09196 0.0
H1242 H 0.77794 0.49429 0.02214 0.0
H1243 H 0.75388 0.46552 0.04081 0.0
H1244 H 0.78065 0.48246 0.07503 0.0
H1245 H 0.68685 0.56048 0.98387 0.0
H1246 H 0.66162 0.57032 0.02491 0.0
H1247 H 0.66073 0.53355 0.00249 0.0
loop_
_geom_bond_atom_site_label_1
_geom_bond_atom_site_label_2
_geom_bond_distance
_geom_bond_site_symmetry_2
_ccdc_geom_bond_type
Co0 O1 2.216 . S
Co0 O2 2.091 . S
Co0 O4 2.004 1_455 S
Co0 O10 2.021 . S
Co0 O12 2.137 . S
Co0 O13 2.244 . S
O1 Co0 2.216 . S
O1 C8 1.247 . S
O2 Co0 2.091 . S
O2 C8 1.261 . S
C3 O12 1.247 . S
C3 O13 1.272 . S
O4 Co0 2.004 1_655 S
O4 C9 1.259 . S
Co5 O6 2.061 1_455 S
Co5 O11 2.052 . S
Co5 O13 2.135 . S
O6 Co5 2.061 1_655 S
O6 C9 1.235 . S
C7 O10 1.238 . S
C7 O11 1.241 . S
C8 O1 1.247 . S
C8 O2 1.261 . S
C9 O4 1.259 . S
C9 O6 1.235 . S
O10 Co0 2.021 . S
O10 C7 1.238 . S
O11 Co5 2.052 . S
O11 C7 1.241 . S
O12 Co0 2.137 . S
O12 C3 1.247 . S
O13 Co0 2.244 . S
O13 C3 1.272 . S
O13 Co5 2.135 . S
Co14 O15 2.216 . S
Co14 O16 2.091 . S
Co14 O18 2.004 1_545 S
Co14 O24 2.021 . S
Co14 O26 2.137 . S
Co14 O27 2.244 . S
O15 Co14 2.216 . S
O15 C22 1.247 . S
O16 Co14 2.091 . S
O16 C22 1.261 . S
C17 O26 1.247 . S
C17 O27 1.272 . S
O18 Co14 2.004 1_565 S
O18 C23 1.259 . S
Co19 O20 2.061 1_545 S
Co19 O25 2.052 . S
Co19 O27 2.135 . S
O20 Co19 2.061 1_565 S
O20 C23 1.235 . S
C21 O24 1.238 . S
C21 O25 1.241 . S
C22 O15 1.247 . S
C22 O16 1.261 . S
C23 O18 1.259 . S
C23 O20 1.235 . S
O24 Co14 2.021 . S
O24 C21 1.238 . S
O25 Co19 2.052 . S
O25 C21 1.241 . S
O26 Co14 2.137 . S
O26 C17 1.247 . S
O27 Co14 2.244 . S
O27 C17 1.272 . S
O27 Co19 2.135 . S
Co28 O29 2.216 . S
Co28 O30 2.091 . S
Co28 O32 2.004 1_655 S
Co28 O38 2.021 . S
Co28 O40 2.137 . S
Co28 O41 2.244 . S
O29 Co28 2.216 . S
O29 C36 1.247 . S
O30 Co28 2.091 . S
O30 C36 1.261 . S
C31 O40 1.247 . S
C31 O41 1.272 . S
O32 Co28 2.004 1_455 S
O32 C37 1.259 . S
Co33 O34 2.061 1_655 S
Co33 O39 2.052 . S
Co33 O41 2.135 . S
O34 Co33 2.061 1_455 S
O34 C37 1.235 . S
C35 O38 1.238 . S
C35 O39 1.241 . S
C36 O29 1.247 . S
C36 O30 1.261 . S
C37 O32 1.259 . S
C37 O34 1.235 . S
O38 Co28 2.021 . S
O38 C35 1.238 . S
O39 Co33 2.052 . S
O39 C35 1.241 . S
O40 Co28 2.137 . S
O40 C31 1.247 . S
O41 Co28 2.244 . S
O41 C31 1.272 . S
O41 Co33 2.135 . S
Co42 O43 2.216 . S
Co42 O44 2.091 . S
Co42 O46 2.004 1_565 S
Co42 O52 2.021 . S
Co42 O54 2.137 . S
Co42 O55 2.244 . S
O43 Co42 2.216 . S
O43 C50 1.247 . S
O44 Co42 2.091 . S
O44 C50 1.261 . S
C45 O54 1.247 . S
C45 O55 1.272 . S
O46 Co42 2.004 1_545 S
O46 C51 1.259 . S
Co47 O48 2.061 1_565 S
Co47 O53 2.052 . S
Co47 O55 2.135 . S
O48 Co47 2.061 1_545 S
O48 C51 1.235 . S
C49 O52 1.238 . S
C49 O53 1.241 . S
C50 O43 1.247 . S
C50 O44 1.261 . S
C51 O46 1.259 . S
C51 O48 1.235 . S
O52 Co42 2.021 . S
O52 C49 1.238 . S
O53 Co47 2.052 . S
O53 C49 1.241 . S
O54 Co42 2.137 . S
O54 C45 1.247 . S
O55 Co42 2.244 . S
O55 C45 1.272 . S
O55 Co47 2.135 . S
Co56 O57 2.216 . S
Co56 O58 2.091 . S
Co56 O60 2.004 1_455 S
Co56 O66 2.021 . S
Co56 O68 2.137 . S
Co56 O69 2.244 . S
O57 Co56 2.216 . S
O57 C64 1.247 . S
O58 Co56 2.091 . S
O58 C64 1.261 . S
C59 O68 1.247 . S
C59 O69 1.272 . S
O60 Co56 2.004 1_655 S
O60 C65 1.259 . S
Co61 O62 2.061 1_455 S
Co61 O67 2.052 . S
Co61 O69 2.135 . S
O62 Co61 2.061 1_655 S
O62 C65 1.235 . S
C63 O66 1.238 . S
C63 O67 1.241 . S
C64 O57 1.247 . S
C64 O58 1.261 . S
C65 O60 1.259 . S
C65 O62 1.235 . S
O66 Co56 2.021 . S
O66 C63 1.238 . S
O67 Co61 2.052 . S
O67 C63 1.241 . S
O68 Co56 2.137 . S
O68 C59 1.247 . S
O69 Co56 2.244 . S
O69 C59 1.272 . S
O69 Co61 2.135 . S
Co70 O71 2.216 . S
Co70 O72 2.091 . S
Co70 O74 2.004 1_545 S
Co70 O80 2.021 . S
Co70 O82 2.137 . S
Co70 O83 2.244 . S
O71 Co70 2.216 . S
O71 C78 1.247 . S
O72 Co70 2.091 . S
O72 C78 1.261 . S
C73 O82 1.247 . S
C73 O83 1.272 . S
O74 Co70 2.004 1_565 S
O74 C79 1.259 . S
Co75 O76 2.061 1_545 S
Co75 O81 2.052 . S
Co75 O83 2.135 . S
O76 Co75 2.061 1_565 S
O76 C79 1.235 . S
C77 O80 1.238 . S
C77 O81 1.241 . S
C78 O71 1.247 . S
C78 O72 1.261 . S
C79 O74 1.259 . S
C79 O76 1.235 . S
O80 Co70 2.021 . S
O80 C77 1.238 . S
O81 Co75 2.052 . S
O81 C77 1.241 . S
O82 Co70 2.137 . S
O82 C73 1.247 . S
O83 Co70 2.244 . S
O83 C73 1.272 . S
O83 Co75 2.135 . S
Co84 O85 2.216 . S
Co84 O86 2.091 . S
Co84 O88 2.004 1_655 S
Co84 O94 2.021 . S
Co84 O96 2.137 . S
Co84 O97 2.244 . S
O85 Co84 2.216 . S
O85 C92 1.247 . S
O86 Co84 2.091 . S
O86 C92 1.261 . S
C87 O96 1.247 . S
C87 O97 1.272 . S
O88 Co84 2.004 1_455 S
O88 C93 1.259 . S
Co89 O90 2.061 1_655 S
Co89 O95 2.052 . S
Co89 O97 2.135 . S
O90 Co89 2.061 1_455 S
O90 C93 1.235 . S
C91 O94 1.238 . S
C91 O95 1.241 . S
C92 O85 1.247 . S
C92 O86 1.261 . S
C93 O88 1.259 . S
C93 O90 1.235 . S
O94 Co84 2.021 . S
O94 C91 1.238 . S
O95 Co89 2.052 . S
O95 C91 1.241 . S
O96 Co84 2.137 . S
O96 C87 1.247 . S
O97 Co84 2.244 . S
O97 C87 1.272 . S
O97 Co89 2.135 . S
Co98 O99 2.216 . S
Co98 O100 2.091 . S
Co98 O102 2.004 1_565 S
Co98 O108 2.021 . S
Co98 O110 2.137 . S
Co98 O111 2.244 . S
O99 Co98 2.216 . S
O99 C106 1.247 . S
O100 Co98 2.091 . S
O100 C106 1.261 . S
C101 O110 1.247 . S
C101 O111 1.272 . S
O102 Co98 2.004 1_545 S
O102 C107 1.259 . S
Co103 O104 2.061 1_565 S
Co103 O109 2.052 . S
Co103 O111 2.135 . S
O104 Co103 2.061 1_545 S
O104 C107 1.235 . S
C105 O108 1.238 . S
C105 O109 1.241 . S
C106 O99 1.247 . S
C106 O100 1.261 . S
C107 O102 1.259 . S
C107 O104 1.235 . S
O108 Co98 2.021 . S
O108 C105 1.238 . S
O109 Co103 2.052 . S
O109 C105 1.241 . S
O110 Co98 2.137 . S
O110 C101 1.247 . S
O111 Co98 2.244 . S
O111 C101 1.272 . S
O111 Co103 2.135 . S
Co112 O113 2.216 . S
Co112 O114 2.091 . S
Co112 O116 2.004 . S
Co112 O122 2.021 . S
Co112 O124 2.137 . S
Co112 O125 2.244 . S
O113 Co112 2.216 . S
O113 C120 1.247 . S
O114 Co112 2.091 . S
O114 C120 1.261 . S
C115 O124 1.247 . S
C115 O125 1.272 . S
O116 Co112 2.004 . S
O116 C121 1.259 . S
Co117 O118 2.061 . S
Co117 O123 2.052 . S
Co117 O125 2.135 . S
O118 Co117 2.061 . S
O118 C121 1.235 . S
C119 O122 1.238 . S
C119 O123 1.241 . S
C120 O113 1.247 . S
C120 O114 1.261 . S
C121 O116 1.259 . S
C121 O118 1.235 . S
O122 Co112 2.021 . S
O122 C119 1.238 . S
O123 Co117 2.052 . S
O123 C119 1.241 . S
O124 Co112 2.137 . S
O124 C115 1.247 . S
O125 Co112 2.244 . S
O125 C115 1.272 . S
O125 Co117 2.135 . S
Co126 O127 2.216 . S
Co126 O128 2.091 . S
Co126 O130 2.004 . S
Co126 O136 2.021 . S
Co126 O138 2.137 . S
Co126 O139 2.244 . S
O127 Co126 2.216 . S
O127 C134 1.247 . S
O128 Co126 2.091 . S
O128 C134 1.261 . S
C129 O138 1.247 . S
C129 O139 1.272 . S
O130 Co126 2.004 . S
O130 C135 1.259 . S
Co131 O132 2.061 . S
Co131 O137 2.052 . S
Co131 O139 2.135 . S
O132 Co131 2.061 . S
O132 C135 1.235 . S
C133 O136 1.238 . S
C133 O137 1.241 . S
C134 O127 1.247 . S
C134 O128 1.261 . S
C135 O130 1.259 . S
C135 O132 1.235 . S
O136 Co126 2.021 . S
O136 C133 1.238 . S
O137 Co131 2.052 . S
O137 C133 1.241 . S
O138 Co126 2.137 . S
O138 C129 1.247 . S
O139 Co126 2.244 . S
O139 C129 1.272 . S
O139 Co131 2.135 . S
Co140 O141 2.216 . S
Co140 O142 2.091 . S
Co140 O144 2.004 . S
Co140 O150 2.021 . S
Co140 O152 2.137 . S
Co140 O153 2.244 . S
O141 Co140 2.216 . S
O141 C148 1.247 . S
O142 Co140 2.091 . S
O142 C148 1.261 . S
C143 O152 1.247 . S
C143 O153 1.272 . S
O144 Co140 2.004 . S
O144 C149 1.259 . S
Co145 O146 2.061 . S
Co145 O151 2.052 . S
Co145 O153 2.135 . S
O146 Co145 2.061 . S
O146 C149 1.235 . S
C147 O150 1.238 . S
C147 O151 1.241 . S
C148 O141 1.247 . S
C148 O142 1.261 . S
C149 O144 1.259 . S
C149 O146 1.235 . S
O150 Co140 2.021 . S
O150 C147 1.238 . S
O151 Co145 2.052 . S
O151 C147 1.241 . S
O152 Co140 2.137 . S
O152 C143 1.247 . S
O153 Co140 2.244 . S
O153 C143 1.272 . S
O153 Co145 2.135 . S
Co154 O155 2.216 . S
Co154 O156 2.091 . S
Co154 O158 2.004 . S
Co154 O164 2.021 . S
Co154 O166 2.137 . S
Co154 O167 2.244 . S
O155 Co154 2.216 . S
O155 C162 1.247 . S
O156 Co154 2.091 . S
O156 C162 1.261 . S
C157 O166 1.247 . S
C157 O167 1.272 . S
O158 Co154 2.004 . S
O158 C163 1.259 . S
Co159 O160 2.061 . S
Co159 O165 2.052 . S
Co159 O167 2.135 . S
O160 Co159 2.061 . S
O160 C163 1.235 . S
C161 O164 1.238 . S
C161 O165 1.241 . S
C162 O155 1.247 . S
C162 O156 1.261 . S
C163 O158 1.259 . S
C163 O160 1.235 . S
O164 Co154 2.021 . S
O164 C161 1.238 . S
O165 Co159 2.052 . S
O165 C161 1.241 . S
O166 Co154 2.137 . S
O166 C157 1.247 . S
O167 Co154 2.244 . S
O167 C157 1.272 . S
O167 Co159 2.135 . S
Co168 O169 2.216 . S
Co168 O170 2.091 . S
Co168 O172 2.004 . S
Co168 O178 2.021 . S
Co168 O180 2.137 . S
Co168 O181 2.244 . S
O169 Co168 2.216 . S
O169 C176 1.247 . S
O170 Co168 2.091 . S
O170 C176 1.261 . S
C171 O180 1.247 . S
C171 O181 1.272 . S
O172 Co168 2.004 . S
O172 C177 1.259 . S
Co173 O174 2.061 . S
Co173 O179 2.052 . S
Co173 O181 2.135 . S
O174 Co173 2.061 . S
O174 C177 1.235 . S
C175 O178 1.238 . S
C175 O179 1.241 . S
C176 O169 1.247 . S
C176 O170 1.261 . S
C177 O172 1.259 . S
C177 O174 1.235 . S
O178 Co168 2.021 . S
O178 C175 1.238 . S
O179 Co173 2.052 . S
O179 C175 1.241 . S
O180 Co168 2.137 . S
O180 C171 1.247 . S
O181 Co168 2.244 . S
O181 C171 1.272 . S
O181 Co173 2.135 . S
Co182 O183 2.216 . S
Co182 O184 2.091 . S
Co182 O186 2.004 . S
Co182 O192 2.021 . S
Co182 O194 2.137 . S
Co182 O195 2.244 . S
O183 Co182 2.216 . S
O183 C190 1.247 . S
O184 Co182 2.091 . S
O184 C190 1.261 . S
C185 O194 1.247 . S
C185 O195 1.272 . S
O186 Co182 2.004 . S
O186 C191 1.259 . S
Co187 O188 2.061 . S
Co187 O193 2.052 . S
Co187 O195 2.135 . S
O188 Co187 2.061 . S
O188 C191 1.235 . S
C189 O192 1.238 . S
C189 O193 1.241 . S
C190 O183 1.247 . S
C190 O184 1.261 . S
C191 O186 1.259 . S
C191 O188 1.235 . S
O192 Co182 2.021 . S
O192 C189 1.238 . S
O193 Co187 2.052 . S
O193 C189 1.241 . S
O194 Co182 2.137 . S
O194 C185 1.247 . S
O195 Co182 2.244 . S
O195 C185 1.272 . S
O195 Co187 2.135 . S
Co196 O197 2.216 . S
Co196 O198 2.091 . S
Co196 O200 2.004 . S
Co196 O206 2.021 . S
Co196 O208 2.137 . S
Co196 O209 2.244 . S
O197 Co196 2.216 . S
O197 C204 1.247 . S
O198 Co196 2.091 . S
O198 C204 1.261 . S
C199 O208 1.247 . S
C199 O209 1.272 . S
O200 Co196 2.004 . S
O200 C205 1.259 . S
Co201 O202 2.061 . S
Co201 O207 2.052 . S
Co201 O209 2.135 . S
O202 Co201 2.061 . S
O202 C205 1.235 . S
C203 O206 1.238 . S
C203 O207 1.241 . S
C204 O197 1.247 . S
C204 O198 1.261 . S
C205 O200 1.259 . S
C205 O202 1.235 . S
O206 Co196 2.021 . S
O206 C203 1.238 . S
O207 Co201 2.052 . S
O207 C203 1.241 . S
O208 Co196 2.137 . S
O208 C199 1.247 . S
O209 Co196 2.244 . S
O209 C199 1.272 . S
O209 Co201 2.135 . S
Co210 O211 2.216 . S
Co210 O212 2.091 . S
Co210 O214 2.004 . S
Co210 O220 2.021 . S
Co210 O222 2.137 . S
Co210 O223 2.244 . S
O211 Co210 2.216 . S
O211 C218 1.247 . S
O212 Co210 2.091 . S
O212 C218 1.261 . S
C213 O222 1.247 . S
C213 O223 1.272 . S
O214 Co210 2.004 . S
O214 C219 1.259 . S
Co215 O216 2.061 . S
Co215 O221 2.052 . S
Co215 O223 2.135 . S
O216 Co215 2.061 . S
O216 C219 1.235 . S
C217 O220 1.238 . S
C217 O221 1.241 . S
C218 O211 1.247 . S
C218 O212 1.261 . S
C219 O214 1.259 . S
C219 O216 1.235 . S
O220 Co210 2.021 . S
O220 C217 1.238 . S
O221 Co215 2.052 . S
O221 C217 1.241 . S
O222 Co210 2.137 . S
O222 C213 1.247 . S
O223 Co210 2.244 . S
O223 C213 1.272 . S
O223 Co215 2.135 . S
C224 C225 1.391 . S
C224 C226 1.394 . S
C224 H240 0.931 . S
C225 C224 1.391 . S
C225 C229 1.376 . S
C226 C224 1.394 . S
C226 C227 1.369 . S
C226 C230 1.531 . S
C227 C226 1.369 . S
C227 C228 1.410 . S
C227 C235 1.503 . S
C228 C227 1.410 . S
C228 C229 1.392 . S
C228 C231 1.511 . S
C229 C225 1.376 . S
C229 C228 1.392 . S
C229 H241 0.929 . S
C230 C226 1.531 . S
C230 H242 0.960 . S
C230 H243 0.962 . S
C230 H244 0.960 . S
C231 C228 1.511 . S
C231 H245 0.961 . S
C231 H246 0.961 . S
C231 H247 0.961 . S
C232 C233 1.370 . S
C232 C234 1.363 . S
C232 H248 0.931 . S
C233 C232 1.370 . S
C233 C237 1.408 . S
C234 C232 1.363 . S
C234 C235 1.370 . S
C234 C238 1.524 . S
C235 C227 1.503 . S
C235 C234 1.370 . S
C235 C236 1.403 . S
C236 C235 1.403 . S
C236 C237 1.404 . S
C236 C239 1.539 . S
C237 C233 1.408 . S
C237 C236 1.404 . S
C237 H249 0.930 . S
C238 C234 1.524 . S
C238 H250 0.956 . S
C238 H251 0.961 . S
C238 H252 0.961 . S
C239 C236 1.539 . S
C239 H253 0.958 . S
C239 H254 0.961 . S
C239 H255 0.960 . S
H240 C224 0.931 . S
H241 C229 0.929 . S
H242 C230 0.960 . S
H243 C230 0.962 . S
H244 C230 0.960 . S
H245 C231 0.961 . S
H246 C231 0.961 . S
H247 C231 0.961 . S
H248 C232 0.931 . S
H249 C237 0.930 . S
H250 C238 0.956 . S
H251 C238 0.961 . S
H252 C238 0.961 . S
H253 C239 0.958 . S
H254 C239 0.961 . S
H255 C239 0.960 . S
C256 C257 1.391 . S
C256 C258 1.394 . S
C256 H272 0.931 . S
C257 C256 1.391 . S
C257 C261 1.376 . S
C258 C256 1.394 . S
C258 C259 1.369 . S
C258 C262 1.531 . S
C259 C258 1.369 . S
C259 C260 1.410 . S
C259 C267 1.503 . S
C260 C259 1.410 . S
C260 C261 1.392 . S
C260 C263 1.511 . S
C261 C257 1.376 . S
C261 C260 1.392 . S
C261 H273 0.929 . S
C262 C258 1.531 . S
C262 H274 0.960 . S
C262 H275 0.962 . S
C262 H276 0.960 . S
C263 C260 1.511 . S
C263 H277 0.961 . S
C263 H278 0.961 . S
C263 H279 0.961 . S
C264 C265 1.370 . S
C264 C266 1.363 . S
C264 H280 0.931 . S
C265 C264 1.370 . S
C265 C269 1.408 . S
C266 C264 1.363 . S
C266 C267 1.370 . S
C266 C270 1.524 . S
C267 C259 1.503 . S
C267 C266 1.370 . S
C267 C268 1.403 . S
C268 C267 1.403 . S
C268 C269 1.404 . S
C268 C271 1.539 . S
C269 C265 1.408 . S
C269 C268 1.404 . S
C269 H281 0.930 . S
C270 C266 1.524 . S
C270 H282 0.956 . S
C270 H283 0.961 . S
C270 H284 0.961 . S
C271 C268 1.539 . S
C271 H285 0.958 . S
C271 H286 0.961 . S
C271 H287 0.960 . S
H272 C256 0.931 . S
H273 C261 0.929 . S
H274 C262 0.960 . S
H275 C262 0.962 . S
H276 C262 0.960 . S
H277 C263 0.961 . S
H278 C263 0.961 . S
H279 C263 0.961 . S
H280 C264 0.931 . S
H281 C269 0.930 . S
H282 C270 0.956 . S
H283 C270 0.961 . S
H284 C270 0.961 . S
H285 C271 0.958 . S
H286 C271 0.961 . S
H287 C271 0.960 . S
C288 C289 1.391 . S
C288 C290 1.394 . S
C288 H304 0.931 . S
C289 C288 1.391 . S
C289 C293 1.376 . S
C290 C288 1.394 . S
C290 C291 1.369 . S
C290 C294 1.531 . S
C291 C290 1.369 . S
C291 C292 1.410 . S
C291 C299 1.503 . S
C292 C291 1.410 . S
C292 C293 1.392 . S
C292 C295 1.511 . S
C293 C289 1.376 . S
C293 C292 1.392 . S
C293 H305 0.929 . S
C294 C290 1.531 . S
C294 H306 0.960 . S
C294 H307 0.962 . S
C294 H308 0.960 . S
C295 C292 1.511 . S
C295 H309 0.961 . S
C295 H310 0.961 . S
C295 H311 0.961 . S
C296 C297 1.370 . S
C296 C298 1.363 . S
C296 H312 0.931 . S
C297 C296 1.370 . S
C297 C301 1.408 . S
C298 C296 1.363 . S
C298 C299 1.370 . S
C298 C302 1.524 . S
C299 C291 1.503 . S
C299 C298 1.370 . S
C299 C300 1.403 . S
C300 C299 1.403 . S
C300 C301 1.404 . S
C300 C303 1.539 . S
C301 C297 1.408 . S
C301 C300 1.404 . S
C301 H313 0.930 . S
C302 C298 1.524 . S
C302 H314 0.956 . S
C302 H315 0.961 . S
C302 H316 0.961 . S
C303 C300 1.539 . S
C303 H317 0.958 . S
C303 H318 0.961 . S
C303 H319 0.960 . S
H304 C288 0.931 . S
H305 C293 0.929 . S
H306 C294 0.960 . S
H307 C294 0.962 . S
H308 C294 0.960 . S
H309 C295 0.961 . S
H310 C295 0.961 . S
H311 C295 0.961 . S
H312 C296 0.931 . S
H313 C301 0.930 . S
H314 C302 0.956 . S
H315 C302 0.961 . S
H316 C302 0.961 . S
H317 C303 0.958 . S
H318 C303 0.961 . S
H319 C303 0.960 . S
C320 C321 1.391 . S
C320 C322 1.394 . S
C320 H336 0.931 . S
C321 C320 1.391 . S
C321 C325 1.376 . S
C322 C320 1.394 . S
C322 C323 1.369 . S
C322 C326 1.531 . S
C323 C322 1.369 . S
C323 C324 1.410 . S
C323 C331 1.503 . S
C324 C323 1.410 . S
C324 C325 1.392 . S
C324 C327 1.511 . S
C325 C321 1.376 . S
C325 C324 1.392 . S
C325 H337 0.929 . S
C326 C322 1.531 . S
C326 H338 0.960 . S
C326 H339 0.962 . S
C326 H340 0.960 . S
C327 C324 1.511 . S
C327 H341 0.961 . S
C327 H342 0.961 . S
C327 H343 0.961 . S
C328 C329 1.370 . S
C328 C330 1.363 . S
C328 H344 0.931 . S
C329 C328 1.370 . S
C329 C333 1.408 . S
C330 C328 1.363 . S
C330 C331 1.370 . S
C330 C334 1.524 . S
C331 C323 1.503 . S
C331 C330 1.370 . S
C331 C332 1.403 . S
C332 C331 1.403 . S
C332 C333 1.404 . S
C332 C335 1.539 . S
C333 C329 1.408 . S
C333 C332 1.404 . S
C333 H345 0.930 . S
C334 C330 1.524 . S
C334 H346 0.956 . S
C334 H347 0.961 . S
C334 H348 0.961 . S
C335 C332 1.539 . S
C335 H349 0.958 . S
C335 H350 0.961 . S
C335 H351 0.960 . S
H336 C320 0.931 . S
H337 C325 0.929 . S
H338 C326 0.960 . S
H339 C326 0.962 . S
H340 C326 0.960 . S
H341 C327 0.961 . S
H342 C327 0.961 . S
H343 C327 0.961 . S
H344 C328 0.931 . S
H345 C333 0.930 . S
H346 C334 0.956 . S
H347 C334 0.961 . S
H348 C334 0.961 . S
H349 C335 0.958 . S
H350 C335 0.961 . S
H351 C335 0.960 . S
C352 C353 1.391 . S
C352 C354 1.394 . S
C352 H368 0.931 . S
C353 C352 1.391 . S
C353 C357 1.376 . S
C354 C352 1.394 . S
C354 C355 1.369 . S
C354 C358 1.531 . S
C355 C354 1.369 . S
C355 C356 1.410 . S
C355 C363 1.503 . S
C356 C355 1.410 . S
C356 C357 1.392 . S
C356 C359 1.511 . S
C357 C353 1.376 . S
C357 C356 1.392 . S
C357 H369 0.929 . S
C358 C354 1.531 . S
C358 H370 0.960 . S
C358 H371 0.962 . S
C358 H372 0.960 . S
C359 C356 1.511 . S
C359 H373 0.961 . S
C359 H374 0.961 . S
C359 H375 0.961 . S
C360 C361 1.370 . S
C360 C362 1.363 . S
C360 H376 0.931 . S
C361 C360 1.370 . S
C361 C365 1.408 . S
C362 C360 1.363 . S
C362 C363 1.370 . S
C362 C366 1.524 . S
C363 C355 1.503 . S
C363 C362 1.370 . S
C363 C364 1.403 . S
C364 C363 1.403 . S
C364 C365 1.404 . S
C364 C367 1.539 . S
C365 C361 1.408 . S
C365 C364 1.404 . S
C365 H377 0.930 . S
C366 C362 1.524 . S
C366 H378 0.956 . S
C366 H379 0.961 . S
C366 H380 0.961 . S
C367 C364 1.539 . S
C367 H381 0.958 . S
C367 H382 0.961 . S
C367 H383 0.960 . S
H368 C352 0.931 . S
H369 C357 0.929 . S
H370 C358 0.960 . S
H371 C358 0.962 . S
H372 C358 0.960 . S
H373 C359 0.961 . S
H374 C359 0.961 . S
H375 C359 0.961 . S
H376 C360 0.931 . S
H377 C365 0.930 . S
H378 C366 0.956 . S
H379 C366 0.961 . S
H380 C366 0.961 . S
H381 C367 0.958 . S
H382 C367 0.961 . S
H383 C367 0.960 . S
C384 C385 1.391 . S
C384 C386 1.394 . S
C384 H400 0.931 . S
C385 C384 1.391 . S
C385 C389 1.376 . S
C386 C384 1.394 . S
C386 C387 1.369 . S
C386 C390 1.531 . S
C387 C386 1.369 . S
C387 C388 1.410 . S
C387 C395 1.503 . S
C388 C387 1.410 . S
C388 C389 1.392 . S
C388 C391 1.511 . S
C389 C385 1.376 . S
C389 C388 1.392 . S
C389 H401 0.929 . S
C390 C386 1.531 . S
C390 H402 0.960 . S
C390 H403 0.962 . S
C390 H404 0.960 . S
C391 C388 1.511 . S
C391 H405 0.961 . S
C391 H406 0.961 . S
C391 H407 0.961 . S
C392 C393 1.370 . S
C392 C394 1.363 . S
C392 H408 0.931 . S
C393 C392 1.370 . S
C393 C397 1.408 . S
C394 C392 1.363 . S
C394 C395 1.370 . S
C394 C398 1.524 . S
C395 C387 1.503 . S
C395 C394 1.370 . S
C395 C396 1.403 . S
C396 C395 1.403 . S
C396 C397 1.404 . S
C396 C399 1.539 . S
C397 C393 1.408 . S
C397 C396 1.404 . S
C397 H409 0.930 . S
C398 C394 1.524 . S
C398 H410 0.956 . S
C398 H411 0.961 . S
C398 H412 0.961 . S
C399 C396 1.539 . S
C399 H413 0.958 . S
C399 H414 0.961 . S
C399 H415 0.960 . S
H400 C384 0.931 . S
H401 C389 0.929 . S
H402 C390 0.960 . S
H403 C390 0.962 . S
H404 C390 0.960 . S
H405 C391 0.961 . S
H406 C391 0.961 . S
H407 C391 0.961 . S
H408 C392 0.931 . S
H409 C397 0.930 . S
H410 C398 0.956 . S
H411 C398 0.961 . S
H412 C398 0.961 . S
H413 C399 0.958 . S
H414 C399 0.961 . S
H415 C399 0.960 . S
C416 C417 1.391 . S
C416 C418 1.394 . S
C416 H432 0.931 . S
C417 C416 1.391 . S
C417 C421 1.376 . S
C418 C416 1.394 . S
C418 C419 1.369 . S
C418 C422 1.531 . S
C419 C418 1.369 . S
C419 C420 1.410 . S
C419 C427 1.503 . S
C420 C419 1.410 . S
C420 C421 1.392 . S
C420 C423 1.511 . S
C421 C417 1.376 . S
C421 C420 1.392 . S
C421 H433 0.929 . S
C422 C418 1.531 . S
C422 H434 0.960 . S
C422 H435 0.962 . S
C422 H436 0.960 . S
C423 C420 1.511 . S
C423 H437 0.961 . S
C423 H438 0.961 . S
C423 H439 0.961 . S
C424 C425 1.370 . S
C424 C426 1.363 . S
C424 H440 0.931 . S
C425 C424 1.370 . S
C425 C429 1.408 . S
C426 C424 1.363 . S
C426 C427 1.370 . S
C426 C430 1.524 . S
C427 C419 1.503 . S
C427 C426 1.370 . S
C427 C428 1.403 . S
C428 C427 1.403 . S
C428 C429 1.404 . S
C428 C431 1.539 . S
C429 C425 1.408 . S
C429 C428 1.404 . S
C429 H441 0.930 . S
C430 C426 1.524 . S
C430 H442 0.956 . S
C430 H443 0.961 . S
C430 H444 0.961 . S
C431 C428 1.539 . S
C431 H445 0.958 . S
C431 H446 0.961 . S
C431 H447 0.960 . S
H432 C416 0.931 . S
H433 C421 0.929 . S
H434 C422 0.960 . S
H435 C422 0.962 . S
H436 C422 0.960 . S
H437 C423 0.961 . S
H438 C423 0.961 . S
H439 C423 0.961 . S
H440 C424 0.931 . S
H441 C429 0.930 . S
H442 C430 0.956 . S
H443 C430 0.961 . S
H444 C430 0.961 . S
H445 C431 0.958 . S
H446 C431 0.961 . S
H447 C431 0.960 . S
C448 C449 1.391 . S
C448 C450 1.394 . S
C448 H464 0.931 . S
C449 C448 1.391 . S
C449 C453 1.376 . S
C450 C448 1.394 . S
C450 C451 1.369 . S
C450 C454 1.531 . S
C451 C450 1.369 . S
C451 C452 1.410 . S
C451 C459 1.503 . S
C452 C451 1.410 . S
C452 C453 1.392 . S
C452 C455 1.511 . S
C453 C449 1.376 . S
C453 C452 1.392 . S
C453 H465 0.929 . S
C454 C450 1.531 . S
C454 H466 0.960 . S
C454 H467 0.962 . S
C454 H468 0.960 . S
C455 C452 1.511 . S
C455 H469 0.961 . S
C455 H470 0.961 . S
C455 H471 0.961 . S
C456 C457 1.370 . S
C456 C458 1.363 . S
C456 H472 0.931 . S
C457 C456 1.370 . S
C457 C461 1.408 . S
C458 C456 1.363 . S
C458 C459 1.370 . S
C458 C462 1.524 . S
C459 C451 1.503 . S
C459 C458 1.370 . S
C459 C460 1.403 . S
C460 C459 1.403 . S
C460 C461 1.404 . S
C460 C463 1.539 . S
C461 C457 1.408 . S
C461 C460 1.404 . S
C461 H473 0.930 . S
C462 C458 1.524 . S
C462 H474 0.956 . S
C462 H475 0.961 . S
C462 H476 0.961 . S
C463 C460 1.539 . S
C463 H477 0.958 . S
C463 H478 0.961 . S
C463 H479 0.960 . S
H464 C448 0.931 . S
H465 C453 0.929 . S
H466 C454 0.960 . S
H467 C454 0.962 . S
H468 C454 0.960 . S
H469 C455 0.961 . S
H470 C455 0.961 . S
H471 C455 0.961 . S
H472 C456 0.931 . S
H473 C461 0.930 . S
H474 C462 0.956 . S
H475 C462 0.961 . S
H476 C462 0.961 . S
H477 C463 0.958 . S
H478 C463 0.961 . S
H479 C463 0.960 . S
C480 C481 1.391 . S
C480 C482 1.394 . S
C480 H496 0.931 . S
C481 C480 1.391 . S
C481 C485 1.376 . S
C482 C480 1.394 . S
C482 C483 1.369 . S
C482 C486 1.531 . S
C483 C482 1.369 . S
C483 C484 1.410 . S
C483 C491 1.503 . S
C484 C483 1.410 . S
C484 C485 1.392 . S
C484 C487 1.511 . S
C485 C481 1.376 . S
C485 C484 1.392 . S
C485 H497 0.929 . S
C486 C482 1.531 . S
C486 H498 0.960 . S
C486 H499 0.962 . S
C486 H500 0.960 . S
C487 C484 1.511 . S
C487 H501 0.961 . S
C487 H502 0.961 . S
C487 H503 0.961 . S
C488 C489 1.370 . S
C488 C490 1.363 . S
C488 H504 0.931 . S
C489 C488 1.370 . S
C489 C493 1.408 . S
C490 C488 1.363 . S
C490 C491 1.370 . S
C490 C494 1.524 . S
C491 C483 1.503 . S
C491 C490 1.370 . S
C491 C492 1.403 . S
C492 C491 1.403 . S
C492 C493 1.404 . S
C492 C495 1.539 . S
C493 C489 1.408 . S
C493 C492 1.404 . S
C493 H505 0.930 . S
C494 C490 1.524 . S
C494 H506 0.956 . S
C494 H507 0.961 . S
C494 H508 0.961 . S
C495 C492 1.539 . S
C495 H509 0.958 . S
C495 H510 0.961 . S
C495 H511 0.960 . S
H496 C480 0.931 . S
H497 C485 0.929 . S
H498 C486 0.960 . S
H499 C486 0.962 . S
H500 C486 0.960 . S
H501 C487 0.961 . S
H502 C487 0.961 . S
H503 C487 0.961 . S
H504 C488 0.931 . S
H505 C493 0.930 . S
H506 C494 0.956 . S
H507 C494 0.961 . S
H508 C494 0.961 . S
H509 C495 0.958 . S
H510 C495 0.961 . S
H511 C495 0.960 . S
C512 C513 1.391 . S
C512 C514 1.394 . S
C512 H528 0.931 . S
C513 C512 1.391 . S
C513 C517 1.376 . S
C514 C512 1.394 . S
C514 C515 1.369 . S
C514 C518 1.531 . S
C515 C514 1.369 . S
C515 C516 1.410 . S
C515 C523 1.503 . S
C516 C515 1.410 . S
C516 C517 1.392 . S
C516 C519 1.511 . S
C517 C513 1.376 . S
C517 C516 1.392 . S
C517 H529 0.929 . S
C518 C514 1.531 . S
C518 H530 0.960 . S
C518 H531 0.962 . S
C518 H532 0.960 . S
C519 C516 1.511 . S
C519 H533 0.961 . S
C519 H534 0.961 . S
C519 H535 0.961 . S
C520 C521 1.370 . S
C520 C522 1.363 . S
C520 H536 0.931 . S
C521 C520 1.370 . S
C521 C525 1.408 . S
C522 C520 1.363 . S
C522 C523 1.370 . S
C522 C526 1.524 . S
C523 C515 1.503 . S
C523 C522 1.370 . S
C523 C524 1.403 . S
C524 C523 1.403 . S
C524 C525 1.404 . S
C524 C527 1.539 . S
C525 C521 1.408 . S
C525 C524 1.404 . S
C525 H537 0.930 . S
C526 C522 1.524 . S
C526 H538 0.956 . S
C526 H539 0.961 . S
C526 H540 0.961 . S
C527 C524 1.539 . S
C527 H541 0.958 . S
C527 H542 0.961 . S
C527 H543 0.960 . S
H528 C512 0.931 . S
H529 C517 0.929 . S
H530 C518 0.960 . S
H531 C518 0.962 . S
H532 C518 0.960 . S
H533 C519 0.961 . S
H534 C519 0.961 . S
H535 C519 0.961 . S
H536 C520 0.931 . S
H537 C525 0.930 . S
H538 C526 0.956 . S
H539 C526 0.961 . S
H540 C526 0.961 . S
H541 C527 0.958 . S
H542 C527 0.961 . S
H543 C527 0.960 . S
C544 C545 1.391 . S
C544 C546 1.394 . S
C544 H560 0.931 . S
C545 C544 1.391 . S
C545 C549 1.376 . S
C546 C544 1.394 . S
C546 C547 1.369 . S
C546 C550 1.531 . S
C547 C546 1.369 . S
C547 C548 1.410 . S
C547 C555 1.503 . S
C548 C547 1.410 . S
C548 C549 1.392 . S
C548 C551 1.511 . S
C549 C545 1.376 . S
C549 C548 1.392 . S
C549 H561 0.929 . S
C550 C546 1.531 . S
C550 H562 0.960 . S
C550 H563 0.962 . S
C550 H564 0.960 . S
C551 C548 1.511 . S
C551 H565 0.961 . S
C551 H566 0.961 . S
C551 H567 0.961 . S
C552 C553 1.370 . S
C552 C554 1.363 . S
C552 H568 0.931 . S
C553 C552 1.370 . S
C553 C557 1.408 . S
C554 C552 1.363 . S
C554 C555 1.370 . S
C554 C558 1.524 . S
C555 C547 1.503 . S
C555 C554 1.370 . S
C555 C556 1.403 . S
C556 C555 1.403 . S
C556 C557 1.404 . S
C556 C559 1.539 . S
C557 C553 1.408 . S
C557 C556 1.404 . S
C557 H569 0.930 . S
C558 C554 1.524 . S
C558 H570 0.956 . S
C558 H571 0.961 . S
C558 H572 0.961 . S
C559 C556 1.539 . S
C559 H573 0.958 . S
C559 H574 0.961 . S
C559 H575 0.960 . S
H560 C544 0.931 . S
H561 C549 0.929 . S
H562 C550 0.960 . S
H563 C550 0.962 . S
H564 C550 0.960 . S
H565 C551 0.961 . S
H566 C551 0.961 . S
H567 C551 0.961 . S
H568 C552 0.931 . S
H569 C557 0.930 . S
H570 C558 0.956 . S
H571 C558 0.961 . S
H572 C558 0.961 . S
H573 C559 0.958 . S
H574 C559 0.961 . S
H575 C559 0.960 . S
C576 C577 1.391 . S
C576 C578 1.394 . S
C576 H592 0.931 . S
C577 C576 1.391 . S
C577 C581 1.376 . S
C578 C576 1.394 . S
C578 C579 1.369 . S
C578 C582 1.531 . S
C579 C578 1.369 . S
C579 C580 1.410 . S
C579 C587 1.503 . S
C580 C579 1.410 . S
C580 C581 1.392 . S
C580 C583 1.511 . S
C581 C577 1.376 . S
C581 C580 1.392 . S
C581 H593 0.929 . S
C582 C578 1.531 . S
C582 H594 0.960 . S
C582 H595 0.962 . S
C582 H596 0.960 . S
C583 C580 1.511 . S
C583 H597 0.961 . S
C583 H598 0.961 . S
C583 H599 0.961 . S
C584 C585 1.370 . S
C584 C586 1.363 . S
C584 H600 0.931 . S
C585 C584 1.370 . S
C585 C589 1.408 . S
C586 C584 1.363 . S
C586 C587 1.370 . S
C586 C590 1.524 . S
C587 C579 1.503 . S
C587 C586 1.370 . S
C587 C588 1.403 . S
C588 C587 1.403 . S
C588 C589 1.404 . S
C588 C591 1.539 . S
C589 C585 1.408 . S
C589 C588 1.404 . S
C589 H601 0.930 . S
C590 C586 1.524 . S
C590 H602 0.956 . S
C590 H603 0.961 . S
C590 H604 0.961 . S
C591 C588 1.539 . S
C591 H605 0.958 . S
C591 H606 0.961 . S
C591 H607 0.960 . S
H592 C576 0.931 . S
H593 C581 0.929 . S
H594 C582 0.960 . S
H595 C582 0.962 . S
H596 C582 0.960 . S
H597 C583 0.961 . S
H598 C583 0.961 . S
H599 C583 0.961 . S
H600 C584 0.931 . S
H601 C589 0.930 . S
H602 C590 0.956 . S
H603 C590 0.961 . S
H604 C590 0.961 . S
H605 C591 0.958 . S
H606 C591 0.961 . S
H607 C591 0.960 . S
C608 C609 1.391 . S
C608 C610 1.394 . S
C608 H624 0.931 . S
C609 C608 1.391 . S
C609 C613 1.376 . S
C610 C608 1.394 . S
C610 C611 1.369 . S
C610 C614 1.531 . S
C611 C610 1.369 . S
C611 C612 1.410 . S
C611 C619 1.503 . S
C612 C611 1.410 . S
C612 C613 1.392 . S
C612 C615 1.511 . S
C613 C609 1.376 . S
C613 C612 1.392 . S
C613 H625 0.929 . S
C614 C610 1.531 . S
C614 H626 0.960 . S
C614 H627 0.962 . S
C614 H628 0.960 . S
C615 C612 1.511 . S
C615 H629 0.961 . S
C615 H630 0.961 . S
C615 H631 0.961 . S
C616 C617 1.370 . S
C616 C618 1.363 . S
C616 H632 0.931 . S
C617 C616 1.370 . S
C617 C621 1.408 . S
C618 C616 1.363 . S
C618 C619 1.370 . S
C618 C622 1.524 . S
C619 C611 1.503 . S
C619 C618 1.370 . S
C619 C620 1.403 . S
C620 C619 1.403 . S
C620 C621 1.404 . S
C620 C623 1.539 . S
C621 C617 1.408 . S
C621 C620 1.404 . S
C621 H633 0.930 . S
C622 C618 1.524 . S
C622 H634 0.956 . S
C622 H635 0.961 . S
C622 H636 0.961 . S
C623 C620 1.539 . S
C623 H637 0.958 . S
C623 H638 0.961 . S
C623 H639 0.960 . S
H624 C608 0.931 . S
H625 C613 0.929 . S
H626 C614 0.960 . S
H627 C614 0.962 . S
H628 C614 0.960 . S
H629 C615 0.961 . S
H630 C615 0.961 . S
H631 C615 0.961 . S
H632 C616 0.931 . S
H633 C621 0.930 . S
H634 C622 0.956 . S
H635 C622 0.961 . S
H636 C622 0.961 . S
H637 C623 0.958 . S
H638 C623 0.961 . S
H639 C623 0.960 . S
C640 C641 1.391 . S
C640 C642 1.394 . S
C640 H656 0.931 . S
C641 C640 1.391 . S
C641 C645 1.376 . S
C642 C640 1.394 . S
C642 C643 1.369 . S
C642 C646 1.531 . S
C643 C642 1.369 . S
C643 C644 1.410 . S
C643 C651 1.503 . S
C644 C643 1.410 . S
C644 C645 1.392 . S
C644 C647 1.511 . S
C645 C641 1.376 . S
C645 C644 1.392 . S
C645 H657 0.929 . S
C646 C642 1.531 . S
C646 H658 0.960 . S
C646 H659 0.962 . S
C646 H660 0.960 . S
C647 C644 1.511 . S
C647 H661 0.961 . S
C647 H662 0.961 . S
C647 H663 0.961 . S
C648 C649 1.370 . S
C648 C650 1.363 . S
C648 H664 0.931 . S
C649 C648 1.370 . S
C649 C653 1.408 . S
C650 C648 1.363 . S
C650 C651 1.370 . S
C650 C654 1.524 . S
C651 C643 1.503 . S
C651 C650 1.370 . S
C651 C652 1.403 . S
C652 C651 1.403 . S
C652 C653 1.404 . S
C652 C655 1.539 . S
C653 C649 1.408 . S
C653 C652 1.404 . S
C653 H665 0.930 . S
C654 C650 1.524 . S
C654 H666 0.956 . S
C654 H667 0.961 . S
C654 H668 0.961 . S
C655 C652 1.539 . S
C655 H669 0.958 . S
C655 H670 0.961 . S
C655 H671 0.960 . S
H656 C640 0.931 . S
H657 C645 0.929 . S
H658 C646 0.960 . S
H659 C646 0.962 . S
H660 C646 0.960 . S
H661 C647 0.961 . S
H662 C647 0.961 . S
H663 C647 0.961 . S
H664 C648 0.931 . S
H665 C653 0.930 . S
H666 C654 0.956 . S
H667 C654 0.961 . S
H668 C654 0.961 . S
H669 C655 0.958 . S
H670 C655 0.961 . S
H671 C655 0.960 . S
C672 C673 1.391 . S
C672 C674 1.394 . S
C672 H688 0.931 . S
C673 C672 1.391 . S
C673 C677 1.376 . S
C674 C672 1.394 . S
C674 C675 1.369 . S
C674 C678 1.531 . S
C675 C674 1.369 . S
C675 C676 1.410 . S
C675 C683 1.503 . S
C676 C675 1.410 . S
C676 C677 1.392 . S
C676 C679 1.511 . S
C677 C673 1.376 . S
C677 C676 1.392 . S
C677 H689 0.929 . S
C678 C674 1.531 . S
C678 H690 0.960 . S
C678 H691 0.962 . S
C678 H692 0.960 . S
C679 C676 1.511 . S
C679 H693 0.961 . S
C679 H694 0.961 . S
C679 H695 0.961 . S
C680 C681 1.370 . S
C680 C682 1.363 . S
C680 H696 0.931 . S
C681 C680 1.370 . S
C681 C685 1.408 . S
C682 C680 1.363 . S
C682 C683 1.370 . S
C682 C686 1.524 . S
C683 C675 1.503 . S
C683 C682 1.370 . S
C683 C684 1.403 . S
C684 C683 1.403 . S
C684 C685 1.404 . S
C684 C687 1.539 . S
C685 C681 1.408 . S
C685 C684 1.404 . S
C685 H697 0.930 . S
C686 C682 1.524 . S
C686 H698 0.956 . S
C686 H699 0.961 . S
C686 H700 0.961 . S
C687 C684 1.539 . S
C687 H701 0.958 . S
C687 H702 0.961 . S
C687 H703 0.960 . S
H688 C672 0.931 . S
H689 C677 0.929 . S
H690 C678 0.960 . S
H691 C678 0.962 . S
H692 C678 0.960 . S
H693 C679 0.961 . S
H694 C679 0.961 . S
H695 C679 0.961 . S
H696 C680 0.931 . S
H697 C685 0.930 . S
H698 C686 0.956 . S
H699 C686 0.961 . S
H700 C686 0.961 . S
H701 C687 0.958 . S
H702 C687 0.961 . S
H703 C687 0.960 . S
C704 C705 1.391 . S
C704 C706 1.394 . S
C704 H720 0.931 . S
C705 C704 1.391 . S
C705 C709 1.376 . S
C706 C704 1.394 . S
C706 C707 1.369 . S
C706 C710 1.531 . S
C707 C706 1.369 . S
C707 C708 1.410 . S
C707 C715 1.503 . S
C708 C707 1.410 . S
C708 C709 1.392 . S
C708 C711 1.511 . S
C709 C705 1.376 . S
C709 C708 1.392 . S
C709 H721 0.929 . S
C710 C706 1.531 . S
C710 H722 0.960 . S
C710 H723 0.962 . S
C710 H724 0.960 . S
C711 C708 1.511 . S
C711 H725 0.961 . S
C711 H726 0.961 . S
C711 H727 0.961 . S
C712 C713 1.370 . S
C712 C714 1.363 . S
C712 H728 0.931 . S
C713 C712 1.370 . S
C713 C717 1.408 . S
C714 C712 1.363 . S
C714 C715 1.370 . S
C714 C718 1.524 . S
C715 C707 1.503 . S
C715 C714 1.370 . S
C715 C716 1.403 . S
C716 C715 1.403 . S
C716 C717 1.404 . S
C716 C719 1.539 . S
C717 C713 1.408 . S
C717 C716 1.404 . S
C717 H729 0.930 . S
C718 C714 1.524 . S
C718 H730 0.956 . S
C718 H731 0.961 . S
C718 H732 0.961 . S
C719 C716 1.539 . S
C719 H733 0.958 . S
C719 H734 0.961 . S
C719 H735 0.960 . S
H720 C704 0.931 . S
H721 C709 0.929 . S
H722 C710 0.960 . S
H723 C710 0.962 . S
H724 C710 0.960 . S
H725 C711 0.961 . S
H726 C711 0.961 . S
H727 C711 0.961 . S
H728 C712 0.931 . S
H729 C717 0.930 . S
H730 C718 0.956 . S
H731 C718 0.961 . S
H732 C718 0.961 . S
H733 C719 0.958 . S
H734 C719 0.961 . S
H735 C719 0.960 . S
C736 C737 1.391 . S
C736 C738 1.394 . S
C736 H752 0.931 . S
C737 C736 1.391 . S
C737 C741 1.376 . S
C738 C736 1.394 . S
C738 C739 1.369 . S
C738 C742 1.531 . S
C739 C738 1.369 . S
C739 C740 1.410 . S
C739 C747 1.503 . S
C740 C739 1.410 . S
C740 C741 1.392 . S
C740 C743 1.511 . S
C741 C737 1.376 . S
C741 C740 1.392 . S
C741 H753 0.929 . S
C742 C738 1.531 . S
C742 H754 0.960 . S
C742 H755 0.962 . S
C742 H756 0.960 . S
C743 C740 1.511 . S
C743 H757 0.961 . S
C743 H758 0.961 . S
C743 H759 0.961 . S
C744 C745 1.370 . S
C744 C746 1.363 . S
C744 H760 0.931 . S
C745 C744 1.370 . S
C745 C749 1.408 . S
C746 C744 1.363 . S
C746 C747 1.370 . S
C746 C750 1.524 . S
C747 C739 1.503 . S
C747 C746 1.370 . S
C747 C748 1.403 . S
C748 C747 1.403 . S
C748 C749 1.404 . S
C748 C751 1.539 . S
C749 C745 1.408 . S
C749 C748 1.404 . S
C749 H761 0.930 . S
C750 C746 1.524 . S
C750 H762 0.956 . S
C750 H763 0.961 . S
C750 H764 0.961 . S
C751 C748 1.539 . S
C751 H765 0.958 . S
C751 H766 0.961 . S
C751 H767 0.960 . S
H752 C736 0.931 . S
H753 C741 0.929 . S
H754 C742 0.960 . S
H755 C742 0.962 . S
H756 C742 0.960 . S
H757 C743 0.961 . S
H758 C743 0.961 . S
H759 C743 0.961 . S
H760 C744 0.931 . S
H761 C749 0.930 . S
H762 C750 0.956 . S
H763 C750 0.961 . S
H764 C750 0.961 . S
H765 C751 0.958 . S
H766 C751 0.961 . S
H767 C751 0.960 . S
C768 C769 1.391 . S
C768 C770 1.394 . S
C768 H784 0.931 . S
C769 C768 1.391 . S
C769 C773 1.376 . S
C770 C768 1.394 . S
C770 C771 1.369 . S
C770 C774 1.531 . S
C771 C770 1.369 . S
C771 C772 1.410 . S
C771 C779 1.503 . S
C772 C771 1.410 . S
C772 C773 1.392 . S
C772 C775 1.511 . S
C773 C769 1.376 . S
C773 C772 1.392 . S
C773 H785 0.929 . S
C774 C770 1.531 . S
C774 H786 0.960 . S
C774 H787 0.962 . S
C774 H788 0.960 . S
C775 C772 1.511 . S
C775 H789 0.961 . S
C775 H790 0.961 . S
C775 H791 0.961 . S
C776 C777 1.370 . S
C776 C778 1.363 . S
C776 H792 0.931 . S
C777 C776 1.370 . S
C777 C781 1.408 . S
C778 C776 1.363 . S
C778 C779 1.370 . S
C778 C782 1.524 . S
C779 C771 1.503 . S
C779 C778 1.370 . S
C779 C780 1.403 . S
C780 C779 1.403 . S
C780 C781 1.404 . S
C780 C783 1.539 . S
C781 C777 1.408 . S
C781 C780 1.404 . S
C781 H793 0.930 . S
C782 C778 1.524 . S
C782 H794 0.956 . S
C782 H795 0.961 . S
C782 H796 0.961 . S
C783 C780 1.539 . S
C783 H797 0.958 . S
C783 H798 0.961 . S
C783 H799 0.960 . S
H784 C768 0.931 . S
H785 C773 0.929 . S
H786 C774 0.960 . S
H787 C774 0.962 . S
H788 C774 0.960 . S
H789 C775 0.961 . S
H790 C775 0.961 . S
H791 C775 0.961 . S
H792 C776 0.931 . S
H793 C781 0.930 . S
H794 C782 0.956 . S
H795 C782 0.961 . S
H796 C782 0.961 . S
H797 C783 0.958 . S
H798 C783 0.961 . S
H799 C783 0.960 . S
C800 C801 1.391 . S
C800 C802 1.394 . S
C800 H816 0.931 . S
C801 C800 1.391 . S
C801 C805 1.376 . S
C802 C800 1.394 . S
C802 C803 1.369 . S
C802 C806 1.531 . S
C803 C802 1.369 . S
C803 C804 1.410 . S
C803 C811 1.503 . S
C804 C803 1.410 . S
C804 C805 1.392 . S
C804 C807 1.511 . S
C805 C801 1.376 . S
C805 C804 1.392 . S
C805 H817 0.929 . S
C806 C802 1.531 . S
C806 H818 0.960 . S
C806 H819 0.962 . S
C806 H820 0.960 . S
C807 C804 1.511 . S
C807 H821 0.961 . S
C807 H822 0.961 . S
C807 H823 0.961 . S
C808 C809 1.370 . S
C808 C810 1.363 . S
C808 H824 0.931 . S
C809 C808 1.370 . S
C809 C813 1.408 . S
C810 C808 1.363 . S
C810 C811 1.370 . S
C810 C814 1.524 . S
C811 C803 1.503 . S
C811 C810 1.370 . S
C811 C812 1.403 . S
C812 C811 1.403 . S
C812 C813 1.404 . S
C812 C815 1.539 . S
C813 C809 1.408 . S
C813 C812 1.404 . S
C813 H825 0.930 . S
C814 C810 1.524 . S
C814 H826 0.956 . S
C814 H827 0.961 . S
C814 H828 0.961 . S
C815 C812 1.539 . S
C815 H829 0.958 . S
C815 H830 0.961 . S
C815 H831 0.960 . S
H816 C800 0.931 . S
H817 C805 0.929 . S
H818 C806 0.960 . S
H819 C806 0.962 . S
H820 C806 0.960 . S
H821 C807 0.961 . S
H822 C807 0.961 . S
H823 C807 0.961 . S
H824 C808 0.931 . S
H825 C813 0.930 . S
H826 C814 0.956 . S
H827 C814 0.961 . S
H828 C814 0.961 . S
H829 C815 0.958 . S
H830 C815 0.961 . S
H831 C815 0.960 . S
C832 C833 1.391 . S
C832 C834 1.394 . S
C832 H848 0.931 . S
C833 C832 1.391 . S
C833 C837 1.376 . S
C834 C832 1.394 . S
C834 C835 1.369 . S
C834 C838 1.531 . S
C835 C834 1.369 . S
C835 C836 1.410 . S
C835 C843 1.503 . S
C836 C835 1.410 . S
C836 C837 1.392 . S
C836 C839 1.511 . S
C837 C833 1.376 . S
C837 C836 1.392 . S
C837 H849 0.929 . S
C838 C834 1.531 . S
C838 H850 0.960 . S
C838 H851 0.962 . S
C838 H852 0.960 . S
C839 C836 1.511 . S
C839 H853 0.961 . S
C839 H854 0.961 . S
C839 H855 0.961 . S
C840 C841 1.370 . S
C840 C842 1.363 . S
C840 H856 0.931 . S
C841 C840 1.370 . S
C841 C845 1.408 . S
C842 C840 1.363 . S
C842 C843 1.370 . S
C842 C846 1.524 . S
C843 C835 1.503 . S
C843 C842 1.370 . S
C843 C844 1.403 . S
C844 C843 1.403 . S
C844 C845 1.404 . S
C844 C847 1.539 . S
C845 C841 1.408 . S
C845 C844 1.404 . S
C845 H857 0.930 . S
C846 C842 1.524 . S
C846 H858 0.956 . S
C846 H859 0.961 . S
C846 H860 0.961 . S
C847 C844 1.539 . S
C847 H861 0.958 . S
C847 H862 0.961 . S
C847 H863 0.960 . S
H848 C832 0.931 . S
H849 C837 0.929 . S
H850 C838 0.960 . S
H851 C838 0.962 . S
H852 C838 0.960 . S
H853 C839 0.961 . S
H854 C839 0.961 . S
H855 C839 0.961 . S
H856 C840 0.931 . S
H857 C845 0.930 . S
H858 C846 0.956 . S
H859 C846 0.961 . S
H860 C846 0.961 . S
H861 C847 0.958 . S
H862 C847 0.961 . S
H863 C847 0.960 . S
C864 C865 1.391 . S
C864 C866 1.394 . S
C864 H880 0.931 . S
C865 C864 1.391 . S
C865 C869 1.376 . S
C866 C864 1.394 . S
C866 C867 1.369 . S
C866 C870 1.531 . S
C867 C866 1.369 . S
C867 C868 1.410 . S
C867 C875 1.503 . S
C868 C867 1.410 . S
C868 C869 1.392 . S
C868 C871 1.511 . S
C869 C865 1.376 . S
C869 C868 1.392 . S
C869 H881 0.929 . S
C870 C866 1.531 . S
C870 H882 0.960 . S
C870 H883 0.962 . S
C870 H884 0.960 . S
C871 C868 1.511 . S
C871 H885 0.961 . S
C871 H886 0.961 . S
C871 H887 0.961 . S
C872 C873 1.370 . S
C872 C874 1.363 . S
C872 H888 0.931 . S
C873 C872 1.370 . S
C873 C877 1.408 . S
C874 C872 1.363 . S
C874 C875 1.370 . S
C874 C878 1.524 . S
C875 C867 1.503 . S
C875 C874 1.370 . S
C875 C876 1.403 . S
C876 C875 1.403 . S
C876 C877 1.404 . S
C876 C879 1.539 . S
C877 C873 1.408 . S
C877 C876 1.404 . S
C877 H889 0.930 . S
C878 C874 1.524 . S
C878 H890 0.956 . S
C878 H891 0.961 . S
C878 H892 0.961 . S
C879 C876 1.539 . S
C879 H893 0.958 . S
C879 H894 0.961 . S
C879 H895 0.960 . S
H880 C864 0.931 . S
H881 C869 0.929 . S
H882 C870 0.960 . S
H883 C870 0.962 . S
H884 C870 0.960 . S
H885 C871 0.961 . S
H886 C871 0.961 . S
H887 C871 0.961 . S
H888 C872 0.931 . S
H889 C877 0.930 . S
H890 C878 0.956 . S
H891 C878 0.961 . S
H892 C878 0.961 . S
H893 C879 0.958 . S
H894 C879 0.961 . S
H895 C879 0.960 . S
C896 C897 1.391 . S
C896 C898 1.394 . S
C896 H912 0.931 . S
C897 C896 1.391 . S
C897 C901 1.376 . S
C898 C896 1.394 . S
C898 C899 1.369 . S
C898 C902 1.531 . S
C899 C898 1.369 . S
C899 C900 1.410 . S
C899 C907 1.503 . S
C900 C899 1.410 . S
C900 C901 1.392 . S
C900 C903 1.511 . S
C901 C897 1.376 . S
C901 C900 1.392 . S
C901 H913 0.929 . S
C902 C898 1.531 . S
C902 H914 0.960 . S
C902 H915 0.962 . S
C902 H916 0.960 . S
C903 C900 1.511 . S
C903 H917 0.961 . S
C903 H918 0.961 . S
C903 H919 0.961 . S
C904 C905 1.370 . S
C904 C906 1.363 . S
C904 H920 0.931 . S
C905 C904 1.370 . S
C905 C909 1.408 . S
C906 C904 1.363 . S
C906 C907 1.370 . S
C906 C910 1.524 . S
C907 C899 1.503 . S
C907 C906 1.370 . S
C907 C908 1.403 . S
C908 C907 1.403 . S
C908 C909 1.404 . S
C908 C911 1.539 . S
C909 C905 1.408 . S
C909 C908 1.404 . S
C909 H921 0.930 . S
C910 C906 1.524 . S
C910 H922 0.956 . S
C910 H923 0.961 . S
C910 H924 0.961 . S
C911 C908 1.539 . S
C911 H925 0.958 . S
C911 H926 0.961 . S
C911 H927 0.960 . S
H912 C896 0.931 . S
H913 C901 0.929 . S
H914 C902 0.960 . S
H915 C902 0.962 . S
H916 C902 0.960 . S
H917 C903 0.961 . S
H918 C903 0.961 . S
H919 C903 0.961 . S
H920 C904 0.931 . S
H921 C909 0.930 . S
H922 C910 0.956 . S
H923 C910 0.961 . S
H924 C910 0.961 . S
H925 C911 0.958 . S
H926 C911 0.961 . S
H927 C911 0.960 . S
C928 C929 1.391 . S
C928 C930 1.394 . S
C928 H944 0.931 . S
C929 C928 1.391 . S
C929 C933 1.376 . S
C930 C928 1.394 . S
C930 C931 1.369 . S
C930 C934 1.531 . S
C931 C930 1.369 . S
C931 C932 1.410 . S
C931 C939 1.503 . S
C932 C931 1.410 . S
C932 C933 1.392 . S
C932 C935 1.511 . S
C933 C929 1.376 . S
C933 C932 1.392 . S
C933 H945 0.929 . S
C934 C930 1.531 . S
C934 H946 0.960 . S
C934 H947 0.962 . S
C934 H948 0.960 . S
C935 C932 1.511 . S
C935 H949 0.961 . S
C935 H950 0.961 . S
C935 H951 0.961 . S
C936 C937 1.370 . S
C936 C938 1.363 . S
C936 H952 0.931 . S
C937 C936 1.370 . S
C937 C941 1.408 . S
C938 C936 1.363 . S
C938 C939 1.370 . S
C938 C942 1.524 . S
C939 C931 1.503 . S
C939 C938 1.370 . S
C939 C940 1.403 . S
C940 C939 1.403 . S
C940 C941 1.404 . S
C940 C943 1.539 . S
C941 C937 1.408 . S
C941 C940 1.404 . S
C941 H953 0.930 . S
C942 C938 1.524 . S
C942 H954 0.956 . S
C942 H955 0.961 . S
C942 H956 0.961 . S
C943 C940 1.539 . S
C943 H957 0.958 . S
C943 H958 0.961 . S
C943 H959 0.960 . S
H944 C928 0.931 . S
H945 C933 0.929 . S
H946 C934 0.960 . S
H947 C934 0.962 . S
H948 C934 0.960 . S
H949 C935 0.961 . S
H950 C935 0.961 . S
H951 C935 0.961 . S
H952 C936 0.931 . S
H953 C941 0.930 . S
H954 C942 0.956 . S
H955 C942 0.961 . S
H956 C942 0.961 . S
H957 C943 0.958 . S
H958 C943 0.961 . S
H959 C943 0.960 . S
C960 C961 1.391 . S
C960 C962 1.394 . S
C960 H976 0.931 . S
C961 C960 1.391 . S
C961 C965 1.376 . S
C962 C960 1.394 . S
C962 C963 1.369 . S
C962 C966 1.531 . S
C963 C962 1.369 . S
C963 C964 1.410 . S
C963 C971 1.503 . S
C964 C963 1.410 . S
C964 C965 1.392 . S
C964 C967 1.511 . S
C965 C961 1.376 . S
C965 C964 1.392 . S
C965 H977 0.929 . S
C966 C962 1.531 . S
C966 H978 0.960 . S
C966 H979 0.962 . S
C966 H980 0.960 . S
C967 C964 1.511 . S
C967 H981 0.961 . S
C967 H982 0.961 . S
C967 H983 0.961 . S
C968 C969 1.370 . S
C968 C970 1.363 . S
C968 H984 0.931 . S
C969 C968 1.370 . S
C969 C973 1.408 . S
C970 C968 1.363 . S
C970 C971 1.370 . S
C970 C974 1.524 . S
C971 C963 1.503 . S
C971 C970 1.370 . S
C971 C972 1.403 . S
C972 C971 1.403 . S
C972 C973 1.404 . S
C972 C975 1.539 . S
C973 C969 1.408 . S
C973 C972 1.404 . S
C973 H985 0.930 . S
C974 C970 1.524 . S
C974 H986 0.956 . S
C974 H987 0.961 . S
C974 H988 0.961 . S
C975 C972 1.539 . S
C975 H989 0.958 . S
C975 H990 0.961 . S
C975 H991 0.960 . S
H976 C960 0.931 . S
H977 C965 0.929 . S
H978 C966 0.960 . S
H979 C966 0.962 . S
H980 C966 0.960 . S
H981 C967 0.961 . S
H982 C967 0.961 . S
H983 C967 0.961 . S
H984 C968 0.931 . S
H985 C973 0.930 . S
H986 C974 0.956 . S
H987 C974 0.961 . S
H988 C974 0.961 . S
H989 C975 0.958 . S
H990 C975 0.961 . S
H991 C975 0.960 . S
C992 C993 1.391 . S
C992 C994 1.394 . S
C992 H1008 0.931 . S
C993 C992 1.391 . S
C993 C997 1.376 1_455 S
C994 C992 1.394 . S
C994 C995 1.369 1_455 S
C994 C998 1.531 . S
C995 C994 1.369 1_655 S
C995 C996 1.410 . S
C995 C1003 1.503 . S
C996 C995 1.410 . S
C996 C997 1.392 . S
C996 C999 1.511 . S
C997 C993 1.376 1_655 S
C997 C996 1.392 . S
C997 H1009 0.929 . S
C998 C994 1.531 . S
C998 H1010 0.960 . S
C998 H1011 0.962 . S
C998 H1012 0.960 . S
C999 C996 1.511 . S
C999 H1013 0.961 . S
C999 H1014 0.961 . S
C999 H1015 0.961 . S
C1000 C1001 1.370 1_455 S
C1000 C1002 1.363 . S
C1000 H1016 0.931 . S
C1001 C1000 1.370 1_655 S
C1001 C1005 1.408 . S
C1002 C1000 1.363 . S
C1002 C1003 1.370 1_455 S
C1002 C1006 1.524 . S
C1003 C995 1.503 . S
C1003 C1002 1.370 1_655 S
C1003 C1004 1.403 . S
C1004 C1003 1.403 . S
C1004 C1005 1.404 . S
C1004 C1007 1.539 . S
C1005 C1001 1.408 . S
C1005 C1004 1.404 . S
C1005 H1017 0.930 . S
C1006 C1002 1.524 . S
C1006 H1018 0.956 . S
C1006 H1019 0.961 . S
C1006 H1020 0.961 . S
C1007 C1004 1.539 . S
C1007 H1021 0.958 . S
C1007 H1022 0.961 . S
C1007 H1023 0.960 . S
H1008 C992 0.931 . S
H1009 C997 0.929 . S
H1010 C998 0.960 . S
H1011 C998 0.962 . S
H1012 C998 0.960 . S
H1013 C999 0.961 . S
H1014 C999 0.961 . S
H1015 C999 0.961 . S
H1016 C1000 0.931 . S
H1017 C1005 0.930 . S
H1018 C1006 0.956 . S
H1019 C1006 0.961 . S
H1020 C1006 0.961 . S
H1021 C1007 0.958 . S
H1022 C1007 0.961 . S
H1023 C1007 0.960 . S
C1024 C1025 1.391 . S
C1024 C1026 1.394 . S
C1024 H1040 0.931 . S
C1025 C1024 1.391 . S
C1025 C1029 1.376 . S
C1026 C1024 1.394 . S
C1026 C1027 1.369 . S
C1026 C1030 1.531 . S
C1027 C1026 1.369 . S
C1027 C1028 1.410 . S
C1027 C1035 1.503 . S
C1028 C1027 1.410 . S
C1028 C1029 1.392 . S
C1028 C1031 1.511 . S
C1029 C1025 1.376 . S
C1029 C1028 1.392 . S
C1029 H1041 0.929 . S
C1030 C1026 1.531 . S
C1030 H1042 0.960 . S
C1030 H1043 0.962 1_565 S
C1030 H1044 0.960 . S
C1031 C1028 1.511 . S
C1031 H1045 0.961 1_565 S
C1031 H1046 0.961 1_565 S
C1031 H1047 0.961 . S
C1032 C1033 1.370 . S
C1032 C1034 1.363 . S
C1032 H1048 0.931 . S
C1033 C1032 1.370 . S
C1033 C1037 1.408 1_545 S
C1034 C1032 1.363 . S
C1034 C1035 1.370 1_545 S
C1034 C1038 1.524 . S
C1035 C1027 1.503 . S
C1035 C1034 1.370 1_565 S
C1035 C1036 1.403 . S
C1036 C1035 1.403 . S
C1036 C1037 1.404 . S
C1036 C1039 1.539 . S
C1037 C1033 1.408 1_565 S
C1037 C1036 1.404 . S
C1037 H1049 0.930 . S
C1038 C1034 1.524 . S
C1038 H1050 0.956 . S
C1038 H1051 0.961 . S
C1038 H1052 0.961 . S
C1039 C1036 1.539 . S
C1039 H1053 0.958 . S
C1039 H1054 0.961 . S
C1039 H1055 0.960 . S
H1040 C1024 0.931 . S
H1041 C1029 0.929 . S
H1042 C1030 0.960 . S
H1043 C1030 0.962 1_545 S
H1044 C1030 0.960 . S
H1045 C1031 0.961 1_545 S
H1046 C1031 0.961 1_545 S
H1047 C1031 0.961 . S
H1048 C1032 0.931 . S
H1049 C1037 0.930 . S
H1050 C1038 0.956 . S
H1051 C1038 0.961 . S
H1052 C1038 0.961 . S
H1053 C1039 0.958 . S
H1054 C1039 0.961 . S
H1055 C1039 0.960 . S
C1056 C1057 1.391 1_655 S
C1056 C1058 1.394 . S
C1056 H1072 0.931 . S
C1057 C1056 1.391 1_455 S
C1057 C1061 1.376 . S
C1058 C1056 1.394 . S
C1058 C1059 1.369 1_655 S
C1058 C1062 1.531 . S
C1059 C1058 1.369 1_455 S
C1059 C1060 1.410 . S
C1059 C1067 1.510 . S
C1060 C1059 1.410 . S
C1060 C1061 1.392 . S
C1060 C1063 1.511 . S
C1061 C1057 1.376 . S
C1061 C1060 1.392 . S
C1061 H1073 0.929 . S
C1062 C1058 1.531 . S
C1062 H1074 0.960 . S
C1062 H1075 0.962 . S
C1062 H1076 0.960 . S
C1063 C1060 1.511 . S
C1063 H1077 0.961 . S
C1063 H1078 0.961 . S
C1063 H1079 0.961 . S
C1064 C1065 1.370 . S
C1064 C1066 1.363 . S
C1064 H1080 0.931 . S
C1065 C1064 1.370 . S
C1065 C1069 1.408 1_655 S
C1066 C1064 1.363 . S
C1066 C1067 1.348 1_655 S
C1066 C1070 1.524 . S
C1067 C1059 1.510 . S
C1067 C1066 1.348 1_455 S
C1067 C1068 1.419 . S
C1068 C1067 1.419 . S
C1068 C1069 1.404 . S
C1068 C1071 1.539 . S
C1069 C1065 1.408 1_455 S
C1069 C1068 1.404 . S
C1069 H1081 0.930 . S
C1070 C1066 1.524 . S
C1070 H1082 0.956 . S
C1070 H1083 0.961 . S
C1070 H1084 0.961 . S
C1071 C1068 1.539 . S
C1071 H1085 0.958 . S
C1071 H1086 0.961 . S
C1071 H1087 0.960 . S
H1072 C1056 0.931 . S
H1073 C1061 0.929 . S
H1074 C1062 0.960 . S
H1075 C1062 0.962 . S
H1076 C1062 0.960 . S
H1077 C1063 0.961 . S
H1078 C1063 0.961 . S
H1079 C1063 0.961 . S
H1080 C1064 0.931 . S
H1081 C1069 0.930 . S
H1082 C1070 0.956 . S
H1083 C1070 0.961 . S
H1084 C1070 0.961 . S
H1085 C1071 0.958 . S
H1086 C1071 0.961 . S
H1087 C1071 0.960 . S
C1088 C1089 1.391 . S
C1088 C1090 1.394 . S
C1088 H1104 0.931 . S
C1089 C1088 1.391 . S
C1089 C1093 1.376 1_545 S
C1090 C1088 1.394 . S
C1090 C1091 1.369 . S
C1090 C1094 1.531 . S
C1091 C1090 1.369 . S
C1091 C1092 1.410 1_545 S
C1091 C1099 1.504 . S
C1092 C1091 1.410 1_565 S
C1092 C1093 1.392 . S
C1092 C1095 1.511 . S
C1093 C1089 1.376 1_565 S
C1093 C1092 1.392 . S
C1093 H1105 0.929 . S
C1094 C1090 1.531 . S
C1094 H1106 0.960 . S
C1094 H1107 0.962 . S
C1094 H1108 0.960 . S
C1095 C1092 1.511 . S
C1095 H1109 0.961 . S
C1095 H1110 0.961 . S
C1095 H1111 0.961 . S
C1096 C1097 1.370 . S
C1096 C1098 1.363 . S
C1096 H1112 0.931 . S
C1097 C1096 1.370 . S
C1097 C1101 1.408 1_565 S
C1098 C1096 1.363 . S
C1098 C1099 1.369 1_565 S
C1098 C1102 1.524 . S
C1099 C1091 1.504 . S
C1099 C1098 1.369 1_545 S
C1099 C1100 1.404 . S
C1100 C1099 1.404 . S
C1100 C1101 1.404 . S
C1100 C1103 1.539 . S
C1101 C1097 1.408 1_545 S
C1101 C1100 1.404 . S
C1101 H1113 0.930 . S
C1102 C1098 1.524 . S
C1102 H1114 0.956 . S
C1102 H1115 0.961 . S
C1102 H1116 0.961 . S
C1103 C1100 1.539 . S
C1103 H1117 0.958 . S
C1103 H1118 0.961 . S
C1103 H1119 0.960 . S
H1104 C1088 0.931 . S
H1105 C1093 0.929 . S
H1106 C1094 0.960 . S
H1107 C1094 0.962 . S
H1108 C1094 0.960 . S
H1109 C1095 0.961 . S
H1110 C1095 0.961 . S
H1111 C1095 0.961 . S
H1112 C1096 0.931 . S
H1113 C1101 0.930 . S
H1114 C1102 0.956 . S
H1115 C1102 0.961 . S
H1116 C1102 0.961 . S
H1117 C1103 0.958 . S
H1118 C1103 0.961 . S
H1119 C1103 0.960 . S
C1120 C1121 1.391 . S
C1120 C1122 1.394 . S
C1120 H1136 0.931 . S
C1121 C1120 1.391 . S
C1121 C1125 1.376 . S
C1122 C1120 1.394 . S
C1122 C1123 1.369 . S
C1122 C1126 1.531 . S
C1123 C1122 1.369 . S
C1123 C1124 1.410 . S
C1123 C1131 1.503 1_556 S
C1124 C1123 1.410 . S
C1124 C1125 1.392 . S
C1124 C1127 1.511 . S
C1125 C1121 1.376 . S
C1125 C1124 1.392 . S
C1125 H1137 0.929 . S
C1126 C1122 1.531 . S
C1126 H1138 0.960 1_556 S
C1126 H1139 0.962 . S
C1126 H1140 0.960 . S
C1127 C1124 1.511 . S
C1127 H1141 0.961 . S
C1127 H1142 0.961 . S
C1127 H1143 0.961 . S
C1128 C1129 1.370 . S
C1128 C1130 1.363 . S
C1128 H1144 0.931 . S
C1129 C1128 1.370 . S
C1129 C1133 1.408 . S
C1130 C1128 1.363 . S
C1130 C1131 1.370 . S
C1130 C1134 1.524 . S
C1131 C1123 1.503 1_554 S
C1131 C1130 1.370 . S
C1131 C1132 1.403 . S
C1132 C1131 1.403 . S
C1132 C1133 1.404 . S
C1132 C1135 1.539 . S
C1133 C1129 1.408 . S
C1133 C1132 1.404 . S
C1133 H1145 0.930 . S
C1134 C1130 1.524 . S
C1134 H1146 0.956 . S
C1134 H1147 0.967 . S
C1134 H1148 0.961 . S
C1135 C1132 1.539 . S
C1135 H1149 0.958 . S
C1135 H1150 0.961 . S
C1135 H1151 0.960 1_554 S
H1136 C1120 0.931 . S
H1137 C1125 0.929 . S
H1138 C1126 0.960 1_554 S
H1139 C1126 0.962 . S
H1140 C1126 0.960 . S
H1141 C1127 0.961 . S
H1142 C1127 0.961 . S
H1143 C1127 0.961 . S
H1144 C1128 0.931 . S
H1145 C1133 0.930 . S
H1146 C1134 0.956 . S
H1147 C1134 0.967 . S
H1148 C1134 0.961 . S
H1149 C1135 0.958 . S
H1150 C1135 0.961 . S
H1151 C1135 0.960 1_556 S
C1152 C1153 1.391 . S
C1152 C1154 1.394 . S
C1152 H1168 0.931 . S
C1153 C1152 1.391 . S
C1153 C1157 1.376 . S
C1154 C1152 1.394 . S
C1154 C1155 1.369 . S
C1154 C1158 1.531 . S
C1155 C1154 1.369 . S
C1155 C1156 1.410 . S
C1155 C1163 1.503 1_556 S
C1156 C1155 1.410 . S
C1156 C1157 1.392 . S
C1156 C1159 1.511 . S
C1157 C1153 1.376 . S
C1157 C1156 1.392 . S
C1157 H1169 0.929 . S
C1158 C1154 1.531 . S
C1158 H1170 0.960 1_556 S
C1158 H1171 0.962 . S
C1158 H1172 0.960 . S
C1159 C1156 1.511 . S
C1159 H1173 0.961 . S
C1159 H1174 0.949 1_556 S
C1159 H1175 0.961 . S
C1160 C1161 1.370 . S
C1160 C1162 1.363 . S
C1160 H1176 0.931 . S
C1161 C1160 1.370 . S
C1161 C1165 1.408 . S
C1162 C1160 1.363 . S
C1162 C1163 1.370 . S
C1162 C1166 1.524 . S
C1163 C1155 1.503 1_554 S
C1163 C1162 1.370 . S
C1163 C1164 1.403 . S
C1164 C1163 1.403 . S
C1164 C1165 1.404 . S
C1164 C1167 1.539 . S
C1165 C1161 1.408 . S
C1165 C1164 1.404 . S
C1165 H1177 0.930 . S
C1166 C1162 1.524 . S
C1166 H1178 0.956 . S
C1166 H1179 0.961 . S
C1166 H1180 0.961 . S
C1167 C1164 1.539 . S
C1167 H1181 0.958 . S
C1167 H1182 0.961 . S
C1167 H1183 0.960 1_554 S
H1168 C1152 0.931 . S
H1169 C1157 0.929 . S
H1170 C1158 0.960 1_554 S
H1171 C1158 0.962 . S
H1172 C1158 0.960 . S
H1173 C1159 0.961 . S
H1174 C1159 0.949 1_554 S
H1175 C1159 0.961 . S
H1176 C1160 0.931 . S
H1177 C1165 0.930 . S
H1178 C1166 0.956 . S
H1179 C1166 0.961 . S
H1180 C1166 0.961 . S
H1181 C1167 0.958 . S
H1182 C1167 0.961 . S
H1183 C1167 0.960 1_556 S
C1184 C1185 1.391 . S
C1184 C1186 1.394 . S
C1184 H1200 0.931 . S
C1185 C1184 1.391 . S
C1185 C1189 1.376 . S
C1186 C1184 1.394 . S
C1186 C1187 1.369 . S
C1186 C1190 1.531 . S
C1187 C1186 1.369 . S
C1187 C1188 1.410 . S
C1187 C1195 1.503 1_554 S
C1188 C1187 1.410 . S
C1188 C1189 1.392 . S
C1188 C1191 1.511 . S
C1189 C1185 1.376 . S
C1189 C1188 1.392 . S
C1189 H1201 0.929 . S
C1190 C1186 1.531 . S
C1190 H1202 0.960 1_554 S
C1190 H1203 0.962 . S
C1190 H1204 0.960 . S
C1191 C1188 1.511 . S
C1191 H1205 0.961 . S
C1191 H1206 0.961 . S
C1191 H1207 0.961 . S
C1192 C1193 1.370 . S
C1192 C1194 1.363 . S
C1192 H1208 0.931 . S
C1193 C1192 1.370 . S
C1193 C1197 1.408 . S
C1194 C1192 1.363 . S
C1194 C1195 1.370 . S
C1194 C1198 1.524 . S
C1195 C1187 1.503 1_556 S
C1195 C1194 1.370 . S
C1195 C1196 1.403 . S
C1196 C1195 1.403 . S
C1196 C1197 1.404 . S
C1196 C1199 1.539 . S
C1197 C1193 1.408 . S
C1197 C1196 1.404 . S
C1197 H1209 0.930 . S
C1198 C1194 1.524 . S
C1198 H1210 0.956 . S
C1198 H1211 0.950 1_556 S
C1198 H1212 0.961 . S
C1199 C1196 1.539 . S
C1199 H1213 0.958 . S
C1199 H1214 0.961 . S
C1199 H1215 0.960 1_556 S
H1200 C1184 0.931 . S
H1201 C1189 0.929 . S
H1202 C1190 0.960 1_556 S
H1203 C1190 0.962 . S
H1204 C1190 0.960 . S
H1205 C1191 0.961 . S
H1206 C1191 0.961 . S
H1207 C1191 0.961 . S
H1208 C1192 0.931 . S
H1209 C1197 0.930 . S
H1210 C1198 0.956 . S
H1211 C1198 0.950 1_554 S
H1212 C1198 0.961 . S
H1213 C1199 0.958 . S
H1214 C1199 0.961 . S
H1215 C1199 0.960 1_554 S
C1216 C1217 1.391 . S
C1216 C1218 1.394 . S
C1216 H1232 0.931 . S
C1217 C1216 1.391 . S
C1217 C1221 1.376 . S
C1218 C1216 1.394 . S
C1218 C1219 1.369 . S
C1218 C1222 1.531 . S
C1219 C1218 1.369 . S
C1219 C1220 1.410 . S
C1219 C1227 1.503 1_556 S
C1220 C1219 1.410 . S
C1220 C1221 1.392 . S
C1220 C1223 1.511 . S
C1221 C1217 1.376 . S
C1221 C1220 1.392 . S
C1221 H1233 0.929 . S
C1222 C1218 1.531 . S
C1222 H1234 0.960 . S
C1222 H1235 0.962 . S
C1222 H1236 0.960 . S
C1223 C1220 1.511 . S
C1223 H1237 0.961 . S
C1223 H1238 0.961 1_556 S
C1223 H1239 0.961 . S
C1224 C1225 1.370 . S
C1224 C1226 1.363 . S
C1224 H1240 0.931 . S
C1225 C1224 1.370 . S
C1225 C1229 1.408 . S
C1226 C1224 1.363 . S
C1226 C1227 1.370 . S
C1226 C1230 1.524 . S
C1227 C1219 1.503 1_554 S
C1227 C1226 1.370 . S
C1227 C1228 1.403 . S
C1228 C1227 1.403 . S
C1228 C1229 1.404 . S
C1228 C1231 1.539 . S
C1229 C1225 1.408 . S
C1229 C1228 1.404 . S
C1229 H1241 0.930 . S
C1230 C1226 1.524 . S
C1230 H1242 0.956 . S
C1230 H1243 0.961 . S
C1230 H1244 0.961 . S
C1231 C1228 1.539 . S
C1231 H1245 0.958 . S
C1231 H1246 0.961 . S
C1231 H1247 0.960 1_554 S
H1232 C1216 0.931 . S
H1233 C1221 0.929 . S
H1234 C1222 0.960 . S
H1235 C1222 0.962 . S
H1236 C1222 0.960 . S
H1237 C1223 0.961 . S
H1238 C1223 0.961 1_554 S
H1239 C1223 0.961 . S
H1240 C1224 0.931 . S
H1241 C1229 0.930 . S
H1242 C1230 0.956 . S
H1243 C1230 0.961 . S
H1244 C1230 0.961 . S
H1245 C1231 0.958 . S
H1246 C1231 0.961 . S
H1247 C1231 0.960 1_556 S
C225 C7 1.396 . S
C233 C51 1.392 . S
C257 C9 1.368 . S
C265 C21 1.422 . S
C289 C23 1.442 . S
C297 C35 1.448 . S
C321 C37 1.446 . S
C329 C49 1.449 . S
C353 C63 1.440 . S
C361 C79 1.416 . S
C385 C77 1.398 . S
C393 C93 1.394 . S
C417 C91 1.442 . S
C425 C107 1.417 . S
C449 C105 1.465 . S
C457 C65 1.426 . S
C481 C119 1.398 . S
C489 C163 1.394 . S
C513 C121 1.365 . S
C521 C133 1.420 . S
C545 C135 1.427 . S
C553 C147 1.440 . S
C577 C161 1.440 . S
C585 C149 1.411 . S
C609 C191 1.374 . S
C617 C175 1.425 . S
C641 C205 1.445 . S
C649 C189 1.449 . S
C673 C203 1.396 . S
C681 C219 1.393 . S
C705 C217 1.454 . S
C713 C177 1.418 . S
C737 C8 1.264 . S
C745 C218 1.238 . S
C769 C22 1.264 . S
C777 C176 1.231 . S
C801 C190 1.217 . S
C809 C36 1.254 . S
C833 C50 1.216 . S
C841 C204 1.254 . S
C865 C134 1.263 . S
C873 C64 1.231 . S
C897 C148 1.212 . S
C905 C78 1.252 . S
C929 C92 1.213 . S
C937 C162 1.249 . S
C961 C106 1.221 . S
C969 C120 1.243 . S
C993 C3 1.632 . S
C1001 C87 1.627 . S
C1025 C101 1.618 . S
C1033 C17 1.629 . S
C1057 C59 1.611 . S
C1065 C31 1.625 . S
C1089 C73 1.627 . S
C1097 C45 1.630 . S
C1121 C115 1.632 . S
C1129 C199 1.627 . S
C1153 C129 1.630 . S
C1161 C213 1.625 . S
C1185 C171 1.632 . S
C1193 C143 1.628 . S
C1217 C157 1.624 . S
C1225 C185 1.622 . S
