# Generated by pormake.
# Topology umf, (4)-cn, num edge types: 1
# Building blocks:
#     Node 0, Type 0, BuildingBlock: CEKHIL_clean_sbu_0, # of connection points: 4
#     Node 1, Type 0, BuildingBlock: CEKHIL_clean_sbu_0, # of connection points: 4
#     Node 2, Type 0, BuildingBlock: CEKHIL_clean_sbu_0, # of connection points: 4
#     Node 3, Type 0, BuildingBlock: CEKHIL_clean_sbu_0, # of connection points: 4
#     Node 4, Type 0, BuildingBlock: CEKHIL_clean_sbu_0, # of connection points: 4
#     Node 5, Type 0, BuildingBlock: CEKHIL_clean_sbu_0, # of connection points: 4
#     Node 6, Type 0, BuildingBlock: CEKHIL_clean_sbu_0, # of connection points: 4
#     Node 7, Type 0, BuildingBlock: CEKHIL_clean_sbu_0, # of connection points: 4
#     Edge 8, Type (0, 0), BuildingBlock: EZIPEK_clean_linker_0, # of connection points: 2
#     Edge 9, Type (0, 0), BuildingBlock: EZIPEK_clean_linker_0, # of connection points: 2
#     Edge 10, Type (0, 0), BuildingBlock: EZIPEK_clean_linker_0, # of connection points: 2
#     Edge 11, Type (0, 0), BuildingBlock: EZIPEK_clean_linker_0, # of connection points: 2
#     Edge 12, Type (0, 0), BuildingBlock: EZIPEK_clean_linker_0, # of connection points: 2
#     Edge 13, Type (0, 0), BuildingBlock: EZIPEK_clean_linker_0, # of connection points: 2
#     Edge 14, Type (0, 0), BuildingBlock: EZIPEK_clean_linker_0, # of connection points: 2
#     Edge 15, Type (0, 0), BuildingBlock: EZIPEK_clean_linker_0, # of connection points: 2
#     Edge 16, Type (0, 0), BuildingBlock: EZIPEK_clean_linker_0, # of connection points: 2
#     Edge 17, Type (0, 0), BuildingBlock: EZIPEK_clean_linker_0, # of connection points: 2
#     Edge 18, Type (0, 0), BuildingBlock: EZIPEK_clean_linker_0, # of connection points: 2
#     Edge 19, Type (0, 0), BuildingBlock: EZIPEK_clean_linker_0, # of connection points: 2
#     Edge 20, Type (0, 0), BuildingBlock: EZIPEK_clean_linker_0, # of connection points: 2
#     Edge 21, Type (0, 0), BuildingBlock: EZIPEK_clean_linker_0, # of connection points: 2
#     Edge 22, Type (0, 0), BuildingBlock: EZIPEK_clean_linker_0, # of connection points: 2
#     Edge 23, Type (0, 0), BuildingBlock: EZIPEK_clean_linker_0, # of connection points: 2
# Relax obj value: 0.165
# Max RMSD: 0.291
# Mean RMSD: 0.282
data_MOF--net-umf--node1-CEKHIL_clean_sbu_0--edge1-EZIPEK_clean_linker_0
_symmetry_space_group_name_H-M    P1
_symmetry_Int_Tables_number       1
_symmetry_cell_setting            triclinic
loop_
_symmetry_equiv_pos_as_xyz
'x, y, z'
_cell_length_a     20.74348
_cell_length_b     19.256131
_cell_length_c     38.374129
_cell_angle_alpha  89.935279
_cell_angle_beta   89.962471
_cell_angle_gamma 90.025983
loop_
_atom_site_label
_atom_site_type_symbol
_atom_site_fract_x
_atom_site_fract_y
_atom_site_fract_z
_atom_type_partial_charge
Co0 Co 0.07848 0.29684 0.15524 0.0
O1 O 0.10516 0.29115 0.20291 0.0
O2 O 0.14782 0.22851 0.16063 0.0
C3 C 0.07776 0.41326 0.1537 0.0
O4 O 0.05783 0.29415 0.10225 0.0
Co5 Co 0.94231 0.35689 0.14634 0.0
O6 O 0.96103 0.347 0.09605 0.0
C7 C 0.9546 0.21344 0.16795 0.0
C8 C 0.14517 0.24348 0.19384 0.0
C9 C 0.01026 0.31669 0.08327 0.0
O10 O 0.01527 0.22049 0.16358 0.0
O11 O 0.91463 0.26357 0.16495 0.0
O12 O 0.13073 0.37919 0.14835 0.0
O13 O 0.02881 0.37616 0.16364 0.0
Co14 Co 0.7179 0.03037 0.65556 0.0
O15 O 0.63435 0.07201 0.657 0.0
O16 O 0.65221 0.95842 0.65573 0.0
C17 C 0.75874 0.09551 0.69979 0.0
O18 O 0.80083 0.97155 0.6545 0.0
Co19 Co 0.82518 0.12142 0.63086 0.0
O20 O 0.88193 0.04822 0.64858 0.0
C21 C 0.75678 0.03852 0.57876 0.0
C22 C 0.61134 0.00985 0.65664 0.0
C23 C 0.86145 0.9868 0.65334 0.0
O24 O 0.7148 0.02771 0.6027 0.0
O25 O 0.80617 0.07683 0.58416 0.0
O26 O 0.72669 0.03917 0.70546 0.0
O27 O 0.75964 0.11664 0.66741 0.0
Co28 Co 0.93616 0.77276 0.15671 0.0
O29 O 0.91794 0.76474 0.20565 0.0
O30 O 0.84298 0.76687 0.1653 0.0
C31 C 0.01171 0.6894 0.15657 0.0
O32 O 0.94139 0.77783 0.10273 0.0
Co33 Co 0.07081 0.82426 0.13675 0.0
O34 O 0.04537 0.79869 0.08879 0.0
C35 C 0.97654 0.92459 0.16245 0.0
C36 C 0.85738 0.7617 0.19831 0.0
C37 C 0.98774 0.78416 0.08018 0.0
O38 O 0.93331 0.87707 0.16076 0.0
O39 O 0.03628 0.91346 0.15648 0.0
O40 O 0.95112 0.67455 0.15362 0.0
O41 O 0.0252 0.75374 0.16322 0.0
Co42 Co 0.25459 0.89426 0.64895 0.0
O43 O 0.34575 0.89205 0.65212 0.0
O44 O 0.28747 0.98879 0.65258 0.0
C45 C 0.23892 0.81339 0.69091 0.0
O46 O 0.15683 0.91043 0.6474 0.0
Co47 Co 0.19394 0.77248 0.61795 0.0
O48 O 0.11456 0.80405 0.64071 0.0
C49 C 0.23566 0.87854 0.56961 0.0
C50 C 0.34384 0.95877 0.65371 0.0
C51 C 0.10867 0.86787 0.64793 0.0
O52 O 0.26143 0.9056 0.59662 0.0
O53 O 0.20501 0.82112 0.57148 0.0
O54 O 0.24622 0.87845 0.69763 0.0
O55 O 0.2487 0.79516 0.65841 0.0
Co56 Co 0.0508 0.76793 0.85601 0.0
O57 O 0.07254 0.75385 0.80798 0.0
O58 O 0.14468 0.76009 0.84959 0.0
C59 C 0.97462 0.68535 0.85723 0.0
O60 O 0.03953 0.7799 0.90946 0.0
Co61 Co 0.91525 0.82479 0.8685 0.0
O62 O 0.93433 0.80529 0.9179 0.0
C63 C 0.01566 0.92099 0.84627 0.0
C64 C 0.13247 0.75119 0.8165 0.0
C65 C 0.99 0.79023 0.92957 0.0
O66 O 0.05644 0.87135 0.84897 0.0
O67 O 0.955 0.91275 0.85033 0.0
O68 O 0.03474 0.67059 0.86208 0.0
O69 O 0.96238 0.74849 0.84746 0.0
Co70 Co 0.27062 0.03662 0.36224 0.0
O71 O 0.35393 0.07911 0.36117 0.0
O72 O 0.33697 0.96538 0.36077 0.0
C73 C 0.22832 0.10342 0.31891 0.0
O74 O 0.18806 0.97727 0.36275 0.0
Co75 Co 0.16421 0.12676 0.38875 0.0
O76 O 0.10708 0.05247 0.37284 0.0
C77 C 0.23251 0.04003 0.43927 0.0
C78 C 0.37748 0.01723 0.36056 0.0
C79 C 0.12758 0.99189 0.36597 0.0
O80 O 0.27427 0.03069 0.41507 0.0
O81 O 0.1833 0.07892 0.43461 0.0
O82 O 0.26097 0.04791 0.31247 0.0
O83 O 0.22834 0.12331 0.35146 0.0
Co84 Co 0.91532 0.29102 0.86106 0.0
O85 O 0.88653 0.28415 0.81383 0.0
O86 O 0.84589 0.22241 0.85706 0.0
C87 C 0.9154 0.40734 0.86194 0.0
O88 O 0.93849 0.28986 0.91378 0.0
Co89 Co 0.05154 0.35138 0.86743 0.0
O90 O 0.03568 0.34266 0.91807 0.0
C91 C 0.03833 0.20846 0.84564 0.0
C92 C 0.8471 0.23649 0.82371 0.0
C93 C 0.98693 0.31315 0.93188 0.0
O94 O 0.97826 0.21478 0.85213 0.0
O95 O 0.07801 0.25914 0.84715 0.0
O96 O 0.86296 0.37291 0.86822 0.0
O97 O 0.96413 0.3706 0.85139 0.0
Co98 Co 0.73431 0.90099 0.36749 0.0
O99 O 0.64316 0.89887 0.36381 0.0
O100 O 0.70142 0.99559 0.36397 0.0
C101 C 0.75057 0.82128 0.32511 0.0
O102 O 0.83207 0.91694 0.36951 0.0
Co103 Co 0.79427 0.77797 0.39791 0.0
O104 O 0.87383 0.81015 0.3755 0.0
C105 C 0.75246 0.88301 0.44675 0.0
C106 C 0.64506 0.96559 0.36225 0.0
C107 C 0.88003 0.87417 0.36874 0.0
O108 O 0.72684 0.91103 0.41989 0.0
O109 O 0.78287 0.82553 0.44454 0.0
O110 O 0.74342 0.88651 0.31877 0.0
O111 O 0.74017 0.80211 0.35743 0.0
C112 C 0.10084 0.53368 0.13085 0.0
C113 C 0.07932 0.48943 0.15822 0.0
C114 C 0.04567 0.58994 0.1924 0.0
C115 C 0.05685 0.63195 0.16284 0.0
N116 N 0.11907 0.65275 0.11161 0.0
N117 N 0.05776 0.47714 0.21976 0.0
C118 C 0.09284 0.60658 0.13453 0.0
C119 C 0.06014 0.51814 0.19067 0.0
N120 N 0.12605 0.50623 0.101 0.0
N121 N 0.01875 0.61896 0.2214 0.0
H122 H 0.07153 0.42508 0.21958 0.0
H123 H 0.04834 0.49578 0.24469 0.0
H124 H 0.01224 0.67254 0.22359 0.0
H125 H 0.00207 0.59064 0.24269 0.0
H126 H 0.13601 0.53534 0.07877 0.0
H127 H 0.13425 0.45331 0.09763 0.0
H128 H 0.14927 0.63901 0.09109 0.0
H129 H 0.11526 0.7061 0.11575 0.0
C130 C 0.43804 -0.00208 0.68769 0.0
C131 C 0.40561 0.99563 0.65529 0.0
C132 C 0.50816 -0.00087 0.62397 0.0
C133 C 0.54095 0.00047 0.65641 0.0
N134 N 0.53844 0.01566 0.71882 0.0
N135 N 0.40615 0.01088 0.59331 0.0
C136 C 0.50623 0.00474 0.68823 0.0
C137 C 0.43978 0.00237 0.62363 0.0
N138 N 0.40356 0.98987 0.71779 0.0
N139 N 0.54239 0.99261 0.59368 0.0
H140 H 0.35589 0.01398 0.59295 0.0
H141 H 0.42751 0.02119 0.56931 0.0
H142 H 0.59256 0.98971 0.59306 0.0
H143 H 0.5213 0.98485 0.5694 0.0
H144 H 0.42446 0.98192 0.74212 0.0
H145 H 0.35323 0.98858 0.718 0.0
H146 H 0.51553 0.02674 0.7423 0.0
H147 H 0.58862 0.01764 0.72039 0.0
C148 C 0.89287 0.52696 0.88547 0.0
C149 C 0.91286 0.48349 0.85751 0.0
C150 C 0.94037 0.5851 0.82235 0.0
C151 C 0.9301 0.62698 0.85202 0.0
N152 N 0.87517 0.64528 0.90581 0.0
N153 N 0.92949 0.47185 0.7955 0.0
C154 C 0.89863 0.6001 0.88161 0.0
C155 C 0.92834 0.51279 0.82458 0.0
N156 N 0.87096 0.49848 0.91589 0.0
N157 N 0.96504 0.61454 0.79282 0.0
H158 H 0.91786 0.41918 0.79608 0.0
H159 H 0.93562 0.49097 0.77034 0.0
H160 H 0.97022 0.66824 0.79027 0.0
H161 H 0.98169 0.58634 0.77151 0.0
H162 H 0.86145 0.52692 0.93833 0.0
H163 H 0.8649 0.44527 0.91951 0.0
H164 H 0.84914 0.63083 0.92783 0.0
H165 H 0.87661 0.69866 0.90144 0.0
C166 C 0.48033 0.00046 0.32781 0.0
C167 C 0.44801 0.00854 0.36013 0.0
C168 C 0.55168 0.021 0.39018 0.0
C169 C 0.58336 0.00231 0.35901 0.0
N170 N 0.58096 0.97587 0.29788 0.0
N171 N 0.45108 0.02516 0.42241 0.0
C172 C 0.54852 0.99371 0.32757 0.0
C173 C 0.48321 0.01935 0.39141 0.0
N174 N 0.44586 0.00033 0.29743 0.0
N175 N 0.58762 0.03899 0.41862 0.0
H176 H 0.40097 0.02351 0.42427 0.0
H177 H 0.47367 0.02665 0.44659 0.0
H178 H 0.63791 0.04042 0.41788 0.0
H179 H 0.56827 0.05817 0.4417 0.0
H180 H 0.46689 0.00195 0.27282 0.0
H181 H 0.39564 0.0028 0.29677 0.0
H182 H 0.55858 0.95975 0.275 0.0
H183 H 0.63126 0.97506 0.2967 0.0
C184 C 0.99237 0.37538 0.98916 0.0
C185 C 0.98733 0.31127 0.97096 0.0
C186 C 0.00216 0.24848 0.02664 0.0
C187 C 0.01138 0.31272 0.04426 0.0
N188 N 0.02365 0.43701 0.04149 0.0
N189 N -0.00267 0.18663 0.97138 0.0
C190 C 0.00884 0.37596 0.02516 0.0
C191 C 0.99471 0.24766 0.98946 0.0
N192 N 0.97977 0.43621 0.97204 0.0
N193 N -0.00201 0.18849 0.04555 0.0
H194 H 0.99101 0.18398 0.94445 0.0
H195 H 0.00999 0.13934 0.98265 0.0
H196 H 0.005 0.18695 0.07246 0.0
H197 H 0.98366 0.14114 0.03501 0.0
H198 H 0.97414 0.48389 0.98442 0.0
H199 H 0.96988 0.43849 0.94548 0.0
H200 H 0.03092 0.48386 0.02851 0.0
H201 H 0.0338 0.43994 0.068 0.0
C202 C 0.73874 0.92623 0.54443 0.0
C203 C 0.75073 -0.00053 0.54473 0.0
C204 C 0.7694 0.99433 0.48136 0.0
C205 C 0.75077 0.9229 0.48058 0.0
N206 N 0.70281 0.82647 0.51108 0.0
N207 N 0.76163 0.10482 0.51133 0.0
C208 C 0.73096 0.89059 0.51204 0.0
C209 C 0.76132 0.03392 0.51253 0.0
N210 N 0.73862 0.88916 0.57483 0.0
N211 N 0.79818 0.02405 0.45297 0.0
H212 H 0.7536 0.13557 0.53327 0.0
H213 H 0.76259 0.13277 0.48807 0.0
H214 H 0.80803 0.99718 0.43005 0.0
H215 H 0.81874 0.07341 0.45351 0.0
H216 H 0.73718 0.83509 0.57553 0.0
H217 H 0.74726 0.91097 0.59915 0.0
H218 H 0.68112 0.80361 0.53275 0.0
H219 H 0.69505 0.79936 0.48795 0.0
C220 C 0.95509 0.83721 0.02349 0.0
C221 C 0.97622 0.77787 0.04187 0.0
C222 C 0.00749 0.72371 0.98602 0.0
C223 C 0.99475 0.78733 0.96845 0.0
N224 N 0.96698 0.9088 0.97201 0.0
N225 N 0.02412 0.66418 0.04125 0.0
C226 C 0.97161 0.84527 0.98774 0.0
C227 C 0.00299 0.72094 0.02323 0.0
N228 N 0.91767 0.88517 0.04006 0.0
N229 N 0.02076 0.66524 0.96719 0.0
H230 H 0.01566 0.6581 0.06789 0.0
H231 H 0.05148 0.62465 0.03012 0.0
H232 H 0.02485 0.66533 0.94012 0.0
H233 H 0.02336 0.61581 0.97813 0.0
H234 H 0.89644 0.92724 0.02742 0.0
H235 H 0.90141 0.87766 0.0655 0.0
H236 H 0.95642 0.95428 0.98554 0.0
H237 H 0.98023 0.91719 0.94612 0.0
C238 C 0.25026 0.92594 0.47233 0.0
C239 C 0.23879 -0.00073 0.47281 0.0
C240 C 0.21972 0.99138 0.53606 0.0
C241 C 0.23752 0.9197 0.53612 0.0
N242 N 0.2847 0.82416 0.50471 0.0
N243 N 0.22909 0.10313 0.50733 0.0
C244 C 0.25726 0.88863 0.50436 0.0
C245 C 0.22847 0.0323 0.50536 0.0
N246 N 0.25069 0.89042 0.44152 0.0
N247 N 0.19116 0.02019 0.56472 0.0
H248 H 0.23773 0.13479 0.48575 0.0
H249 H 0.22836 0.12998 0.53089 0.0
H250 H 0.18095 0.9925 0.58737 0.0
H251 H 0.17112 0.0698 0.56464 0.0
H252 H 0.25162 0.83638 0.44019 0.0
H253 H 0.24293 0.91354 0.41739 0.0
H254 H 0.30639 0.80206 0.48288 0.0
H255 H 0.29185 0.79584 0.52756 0.0
C256 C 0.2193 0.23851 0.24553 0.0
C257 C 0.1774 0.20347 0.22202 0.0
C258 C 0.15865 0.11374 0.26604 0.0
C259 C 0.2043 0.14512 0.28866 0.0
N260 N 0.28643 0.232 0.29732 0.0
N261 N 0.11751 0.10032 0.2074 0.0
C262 C 0.23697 0.20623 0.27772 0.0
C263 C 0.15095 0.13838 0.23139 0.0
N264 N 0.24144 0.30328 0.23721 0.0
N265 N 0.11972 0.06246 0.27848 0.0
H266 H 0.10999 0.11696 0.18189 0.0
H267 H 0.10277 0.04932 0.21172 0.0
H268 H 0.12116 0.04757 0.30443 0.0
H269 H 0.08134 0.04133 0.26462 0.0
H270 H 0.26539 0.33534 0.2548 0.0
H271 H 0.23312 0.32613 0.21294 0.0
H272 H 0.31694 0.27152 0.28883 0.0
H273 H 0.29966 0.21086 0.32129 0.0
C274 C 0.83412 0.1285 0.78851 0.0
C275 C 0.81279 0.19658 0.79619 0.0
C276 C 0.75466 0.20017 0.74001 0.0
C277 C 0.78283 0.13567 0.73056 0.0
N278 N 0.85757 0.0441 0.74378 0.0
N279 N 0.75567 0.29982 0.77878 0.0
C280 C 0.82444 0.10133 0.75446 0.0
C281 C 0.77376 0.23306 0.77175 0.0
N282 N 0.86471 0.09004 0.81349 0.0
N283 N 0.70754 0.22853 0.7196 0.0
H284 H 0.76426 0.32338 0.80282 0.0
H285 H 0.73471 0.33263 0.76041 0.0
H286 H 0.69264 0.20653 0.69615 0.0
H287 H 0.67993 0.27114 0.72706 0.0
H288 H 0.87545 0.03753 0.81069 0.0
H289 H 0.87418 0.10845 0.83845 0.0
H290 H 0.89271 0.01925 0.75851 0.0
H291 H 0.85455 0.0261 0.71841 0.0
C292 C 0.80712 0.72716 0.29064 0.0
C293 C 0.75582 0.77472 0.29409 0.0
C294 C 0.75284 0.79175 0.23061 0.0
C295 C 0.81018 0.75195 0.2276 0.0
N296 N 0.87112 0.65656 0.25125 0.0
N297 N 0.66161 0.82303 0.26721 0.0
C298 C 0.83034 0.71108 0.25661 0.0
C299 C 0.72217 0.79622 0.26375 0.0
N300 N 0.83537 0.7 0.31965 0.0
N301 N 0.72996 0.82915 0.20304 0.0
H302 H 0.63895 0.8259 0.29149 0.0
H303 H 0.63214 0.83532 0.24611 0.0
H304 H 0.74868 0.82563 0.17799 0.0
H305 H 0.69352 0.86605 0.20541 0.0
H306 H 0.87852 0.67237 0.31912 0.0
H307 H 0.81543 0.70636 0.34437 0.0
H308 H 0.88458 0.62187 0.27077 0.0
H309 H 0.88543 0.64192 0.22622 0.0
C310 C 0.26838 0.78604 0.75203 0.0
C311 C 0.23421 0.76577 0.72162 0.0
C312 C 0.16061 0.69986 0.75875 0.0
C313 C 0.18104 0.73959 0.78804 0.0
N314 N 0.26326 0.81237 0.81371 0.0
N315 N 0.15488 0.69133 0.69564 0.0
C316 C 0.23877 0.77876 0.78538 0.0
C317 C 0.18338 0.71745 0.7248 0.0
N318 N 0.32858 0.81387 0.74849 0.0
N319 N 0.11936 0.64551 0.76375 0.0
H320 H 0.17436 0.69897 0.67089 0.0
H321 H 0.11197 0.66324 0.69604 0.0
H322 H 0.1047 0.63043 0.78868 0.0
H323 H 0.10552 0.61157 0.74401 0.0
H324 H 0.35851 0.82549 0.76946 0.0
H325 H 0.35057 0.81854 0.72409 0.0
H326 H 0.29967 0.84948 0.81205 0.0
H327 H 0.24668 0.80408 0.83893 0.0
C328 C 0.94889 0.10311 0.20162 0.0
C329 C 0.93226 0.14099 0.17124 0.0
C330 C 0.93613 0.03524 0.13639 0.0
C331 C 0.9551 0.99737 0.16643 0.0
N332 N 0.96427 0.99018 0.22887 0.0
N333 N 0.88989 0.14111 0.11299 0.0
C334 C 0.95596 0.02964 0.19961 0.0
C335 C 0.91811 0.10589 0.13986 0.0
N336 N 0.96123 0.1383 0.23176 0.0
N337 N 0.93977 0.00511 0.10423 0.0
H338 H 0.87683 0.19325 0.11498 0.0
H339 H 0.87375 0.11723 0.09028 0.0
H340 H 0.95495 0.95408 0.10065 0.0
H341 H 0.93336 0.03219 0.08099 0.0
H342 H 0.98074 0.11543 0.25396 0.0
H343 H 0.95351 0.19172 0.23391 0.0
H344 H 0.96014 0.00962 0.25408 0.0
H345 H 0.97061 0.93646 0.22785 0.0
C346 C 0.00582 0.8851 0.68115 0.0
C347 C 0.042 0.89361 0.64992 0.0
C348 C 0.94471 0.92903 0.61883 0.0
C349 C 0.91168 0.93269 0.65095 0.0
N350 N 0.90237 0.89937 0.71074 0.0
N351 N 0.04664 0.92057 0.58845 0.0
C352 C 0.93966 0.90551 0.68161 0.0
C353 C 0.01147 0.91413 0.61847 0.0
N354 N 0.03496 0.85753 0.70999 0.0
N355 N 0.91108 0.93942 0.58869 0.0
H356 H 0.09519 0.9072 0.5867 0.0
H357 H 0.029 0.94284 0.56566 0.0
H358 H 0.86153 0.94805 0.58896 0.0
H359 H 0.93007 0.93258 0.56383 0.0
H360 H 0.01129 0.84616 0.73318 0.0
H361 H 0.08377 0.84446 0.71055 0.0
H362 H 0.91932 0.88483 0.73516 0.0
H363 H 0.85266 0.90769 0.70979 0.0
C364 C 0.03625 0.10163 0.80948 0.0
C365 C 0.06031 0.1367 0.83922 0.0
C366 C 0.06981 0.02672 0.87066 0.0
C367 C 0.04061 0.99245 0.84192 0.0
N368 N 0.01569 0.99142 0.78076 0.0
N369 N 0.11846 0.13231 0.89327 0.0
C370 C 0.0305 0.02809 0.81013 0.0
C371 C 0.08415 0.09873 0.86802 0.0
N372 N 0.01537 0.13943 0.78155 0.0
N373 N 0.07982 0.9916 0.90118 0.0
H374 H 0.12895 0.1852 0.89181 0.0
H375 H 0.14159 0.1071 0.91375 0.0
H376 H 0.0713 0.93854 0.90399 0.0
H377 H 0.09321 0.01548 0.92439 0.0
H378 H 0.98981 0.11828 0.76076 0.0
H379 H 0.022 0.19312 0.78002 0.0
H380 H 0.01364 0.01348 0.756 0.0
H381 H 0.01094 0.93747 0.78087 0.0
C382 C 0.9827 0.89412 0.3357 0.0
C383 C 0.94681 0.89965 0.36718 0.0
C384 C 0.04469 0.93032 0.39894 0.0
C385 C 0.07747 0.93754 0.36688 0.0
N386 N 0.08497 0.91412 0.30581 0.0
N387 N 0.94271 0.92109 0.42917 0.0
C388 C 0.04878 0.91481 0.33551 0.0
C389 C 0.97773 0.91658 0.39902 0.0
N390 N 0.95342 0.869 0.30638 0.0
N391 N 0.07859 0.93697 0.42924 0.0
H392 H 0.89376 0.90927 0.43059 0.0
H393 H 0.96091 0.9407 0.45243 0.0
H394 H 0.12814 0.94573 0.42914 0.0
H395 H 0.05968 0.92709 0.45388 0.0
H396 H 0.97729 0.85882 0.28311 0.0
H397 H 0.90459 0.85601 0.30561 0.0
H398 H 0.0669 0.90415 0.28105 0.0
H399 H 0.13449 0.92381 0.3064 0.0
loop_
_geom_bond_atom_site_label_1
_geom_bond_atom_site_label_2
_geom_bond_distance
_geom_bond_site_symmetry_2
_ccdc_geom_bond_type
Co0 O1 2.216 . S
Co0 O2 2.091 . S
Co0 O4 2.004 . S
Co0 O10 2.021 . S
Co0 O12 2.137 . S
Co0 O13 2.244 . S
O1 Co0 2.216 . S
O1 C8 1.247 . S
O2 Co0 2.091 . S
O2 C8 1.261 . S
C3 O12 1.247 . S
C3 O13 1.272 . S
O4 Co0 2.004 . S
O4 C9 1.259 . S
Co5 O6 2.061 1_655 S
Co5 O11 2.052 . S
Co5 O13 2.135 1_655 S
O6 Co5 2.061 1_455 S
O6 C9 1.235 . S
C7 O10 1.238 . S
C7 O11 1.241 1_455 S
C8 O1 1.247 . S
C8 O2 1.261 . S
C9 O4 1.259 . S
C9 O6 1.235 . S
O10 Co0 2.021 . S
O10 C7 1.238 . S
O11 Co5 2.052 . S
O11 C7 1.241 1_655 S
O12 Co0 2.137 . S
O12 C3 1.247 . S
O13 Co0 2.244 . S
O13 C3 1.272 . S
O13 Co5 2.135 1_455 S
Co14 O15 2.216 . S
Co14 O16 2.091 1_545 S
Co14 O18 2.004 . S
Co14 O24 2.021 . S
Co14 O26 2.137 . S
Co14 O27 2.244 . S
O15 Co14 2.216 . S
O15 C22 1.247 . S
O16 Co14 2.091 1_565 S
O16 C22 1.261 1_565 S
C17 O26 1.247 . S
C17 O27 1.272 . S
O18 Co14 2.004 . S
O18 C23 1.259 . S
Co19 O20 2.061 . S
Co19 O25 2.052 . S
Co19 O27 2.135 . S
O20 Co19 2.061 . S
O20 C23 1.235 . S
C21 O24 1.238 . S
C21 O25 1.241 . S
C22 O15 1.247 . S
C22 O16 1.261 1_545 S
C23 O18 1.259 . S
C23 O20 1.235 . S
O24 Co14 2.021 . S
O24 C21 1.238 . S
O25 Co19 2.052 . S
O25 C21 1.241 . S
O26 Co14 2.137 . S
O26 C17 1.247 . S
O27 Co14 2.244 . S
O27 C17 1.272 . S
O27 Co19 2.135 . S
Co28 O29 2.216 . S
Co28 O30 2.091 . S
Co28 O32 2.004 . S
Co28 O38 2.021 . S
Co28 O40 2.137 . S
Co28 O41 2.244 . S
O29 Co28 2.216 . S
O29 C36 1.247 . S
O30 Co28 2.091 . S
O30 C36 1.261 . S
C31 O40 1.247 . S
C31 O41 1.272 . S
O32 Co28 2.004 . S
O32 C37 1.259 . S
Co33 O34 2.061 1_455 S
Co33 O39 2.052 . S
Co33 O41 2.135 1_455 S
O34 Co33 2.061 1_655 S
O34 C37 1.235 . S
C35 O38 1.238 . S
C35 O39 1.241 1_655 S
C36 O29 1.247 . S
C36 O30 1.261 . S
C37 O32 1.259 . S
C37 O34 1.235 . S
O38 Co28 2.021 . S
O38 C35 1.238 . S
O39 Co33 2.052 . S
O39 C35 1.241 1_455 S
O40 Co28 2.137 . S
O40 C31 1.247 . S
O41 Co28 2.244 . S
O41 C31 1.272 . S
O41 Co33 2.135 1_655 S
Co42 O43 2.216 . S
Co42 O44 2.091 1_565 S
Co42 O46 2.004 . S
Co42 O52 2.021 . S
Co42 O54 2.137 . S
Co42 O55 2.244 . S
O43 Co42 2.216 . S
O43 C50 1.247 . S
O44 Co42 2.091 1_545 S
O44 C50 1.261 1_545 S
C45 O54 1.247 . S
C45 O55 1.272 . S
O46 Co42 2.004 . S
O46 C51 1.259 . S
Co47 O48 2.061 . S
Co47 O53 2.052 . S
Co47 O55 2.135 . S
O48 Co47 2.061 . S
O48 C51 1.235 . S
C49 O52 1.238 . S
C49 O53 1.241 . S
C50 O43 1.247 . S
C50 O44 1.261 1_565 S
C51 O46 1.259 . S
C51 O48 1.235 . S
O52 Co42 2.021 . S
O52 C49 1.238 . S
O53 Co47 2.052 . S
O53 C49 1.241 . S
O54 Co42 2.137 . S
O54 C45 1.247 . S
O55 Co42 2.244 . S
O55 C45 1.272 . S
O55 Co47 2.135 . S
Co56 O57 2.216 . S
Co56 O58 2.091 . S
Co56 O60 2.004 . S
Co56 O66 2.021 . S
Co56 O68 2.137 . S
Co56 O69 2.244 . S
O57 Co56 2.216 . S
O57 C64 1.247 . S
O58 Co56 2.091 . S
O58 C64 1.261 . S
C59 O68 1.247 . S
C59 O69 1.272 . S
O60 Co56 2.004 . S
O60 C65 1.259 . S
Co61 O62 2.061 1_655 S
Co61 O67 2.052 . S
Co61 O69 2.135 1_655 S
O62 Co61 2.061 1_455 S
O62 C65 1.235 . S
C63 O66 1.238 . S
C63 O67 1.241 1_455 S
C64 O57 1.247 . S
C64 O58 1.261 . S
C65 O60 1.259 . S
C65 O62 1.235 . S
O66 Co56 2.021 . S
O66 C63 1.238 . S
O67 Co61 2.052 . S
O67 C63 1.241 1_655 S
O68 Co56 2.137 . S
O68 C59 1.247 . S
O69 Co56 2.244 . S
O69 C59 1.272 . S
O69 Co61 2.135 1_455 S
Co70 O71 2.216 . S
Co70 O72 2.091 1_545 S
Co70 O74 2.004 . S
Co70 O80 2.021 . S
Co70 O82 2.137 . S
Co70 O83 2.244 . S
O71 Co70 2.216 . S
O71 C78 1.247 . S
O72 Co70 2.091 1_565 S
O72 C78 1.261 1_565 S
C73 O82 1.247 . S
C73 O83 1.272 . S
O74 Co70 2.004 . S
O74 C79 1.259 . S
Co75 O76 2.061 . S
Co75 O81 2.052 . S
Co75 O83 2.135 . S
O76 Co75 2.061 . S
O76 C79 1.235 . S
C77 O80 1.238 . S
C77 O81 1.241 . S
C78 O71 1.247 . S
C78 O72 1.261 1_545 S
C79 O74 1.259 . S
C79 O76 1.235 . S
O80 Co70 2.021 . S
O80 C77 1.238 . S
O81 Co75 2.052 . S
O81 C77 1.241 . S
O82 Co70 2.137 . S
O82 C73 1.247 . S
O83 Co70 2.244 . S
O83 C73 1.272 . S
O83 Co75 2.135 . S
Co84 O85 2.216 . S
Co84 O86 2.091 . S
Co84 O88 2.004 . S
Co84 O94 2.021 . S
Co84 O96 2.137 . S
Co84 O97 2.244 . S
O85 Co84 2.216 . S
O85 C92 1.247 . S
O86 Co84 2.091 . S
O86 C92 1.261 . S
C87 O96 1.247 . S
C87 O97 1.272 . S
O88 Co84 2.004 . S
O88 C93 1.259 . S
Co89 O90 2.061 1_455 S
Co89 O95 2.052 . S
Co89 O97 2.135 1_455 S
O90 Co89 2.061 1_655 S
O90 C93 1.235 . S
C91 O94 1.238 . S
C91 O95 1.241 1_655 S
C92 O85 1.247 . S
C92 O86 1.261 . S
C93 O88 1.259 . S
C93 O90 1.235 . S
O94 Co84 2.021 . S
O94 C91 1.238 . S
O95 Co89 2.052 . S
O95 C91 1.241 1_455 S
O96 Co84 2.137 . S
O96 C87 1.247 . S
O97 Co84 2.244 . S
O97 C87 1.272 . S
O97 Co89 2.135 1_655 S
Co98 O99 2.216 . S
Co98 O100 2.091 1_565 S
Co98 O102 2.004 . S
Co98 O108 2.021 . S
Co98 O110 2.137 . S
Co98 O111 2.244 . S
O99 Co98 2.216 . S
O99 C106 1.247 . S
O100 Co98 2.091 1_545 S
O100 C106 1.261 1_545 S
C101 O110 1.247 . S
C101 O111 1.272 . S
O102 Co98 2.004 . S
O102 C107 1.259 . S
Co103 O104 2.061 . S
Co103 O109 2.052 . S
Co103 O111 2.135 . S
O104 Co103 2.061 . S
O104 C107 1.235 . S
C105 O108 1.238 . S
C105 O109 1.241 . S
C106 O99 1.247 . S
C106 O100 1.261 1_565 S
C107 O102 1.259 . S
C107 O104 1.235 . S
O108 Co98 2.021 . S
O108 C105 1.238 . S
O109 Co103 2.052 . S
O109 C105 1.241 . S
O110 Co98 2.137 . S
O110 C101 1.247 . S
O111 Co98 2.244 . S
O111 C101 1.272 . S
O111 Co103 2.135 . S
C112 C113 1.363 . S
C112 C118 1.379 . S
C112 N120 1.356 . S
C113 C112 1.363 . S
C113 C119 1.363 1_455 S
C114 C115 1.363 . S
C114 C119 1.379 . S
C114 N121 1.356 . S
C115 C114 1.363 . S
C115 C118 1.363 1_655 S
N116 C118 1.356 . S
N116 H128 0.984 . S
N116 H129 0.985 . S
N117 C119 1.356 . S
N117 H122 0.984 . S
N117 H123 0.985 . S
C118 C112 1.379 . S
C118 C115 1.363 1_455 S
C118 N116 1.356 . S
C119 C113 1.363 1_655 S
C119 C114 1.379 . S
C119 N117 1.356 . S
N120 C112 1.356 . S
N120 H126 0.984 . S
N120 H127 0.984 . S
N121 C114 1.356 . S
N121 H124 0.984 . S
N121 H125 0.985 . S
H122 N117 0.984 . S
H123 N117 0.985 . S
H124 N121 0.984 . S
H125 N121 0.985 . S
H126 N120 0.984 . S
H127 N120 0.984 . S
H128 N116 0.984 . S
H129 N116 0.985 . S
C130 C131 1.363 1_545 S
C130 C136 1.379 . S
C130 N138 1.356 . S
C131 C130 1.363 1_565 S
C131 C137 1.363 . S
C132 C133 1.363 1_565 S
C132 C137 1.379 . S
C132 N139 1.356 . S
C133 C132 1.363 1_545 S
C133 C136 1.363 . S
N134 C136 1.356 . S
N134 H146 0.984 . S
N134 H147 0.985 . S
N135 C137 1.356 . S
N135 H140 0.984 . S
N135 H141 0.985 . S
C136 C130 1.379 . S
C136 C133 1.363 . S
C136 N134 1.356 . S
C137 C131 1.363 . S
C137 C132 1.379 . S
C137 N135 1.356 . S
N138 C130 1.356 . S
N138 H144 0.984 . S
N138 H145 0.984 . S
N139 C132 1.356 . S
N139 H142 0.984 . S
N139 H143 0.985 . S
H140 N135 0.984 . S
H141 N135 0.985 . S
H142 N139 0.984 . S
H143 N139 0.985 . S
H144 N138 0.984 . S
H145 N138 0.984 . S
H146 N134 0.984 . S
H147 N134 0.985 . S
C148 C149 1.363 . S
C148 C154 1.379 . S
C148 N156 1.356 . S
C149 C148 1.363 . S
C149 C155 1.363 1_655 S
C150 C151 1.363 . S
C150 C155 1.379 . S
C150 N157 1.356 . S
C151 C150 1.363 . S
C151 C154 1.363 1_455 S
N152 C154 1.356 . S
N152 H164 0.984 . S
N152 H165 0.985 . S
N153 C155 1.356 . S
N153 H158 0.984 . S
N153 H159 0.985 . S
C154 C148 1.379 . S
C154 C151 1.363 1_655 S
C154 N152 1.356 . S
C155 C149 1.363 1_455 S
C155 C150 1.379 . S
C155 N153 1.356 . S
N156 C148 1.356 . S
N156 H162 0.984 . S
N156 H163 0.984 . S
N157 C150 1.356 . S
N157 H160 0.984 . S
N157 H161 0.985 . S
H158 N153 0.984 . S
H159 N153 0.985 . S
H160 N157 0.984 . S
H161 N157 0.985 . S
H162 N156 0.984 . S
H163 N156 0.984 . S
H164 N152 0.984 . S
H165 N152 0.985 . S
C166 C167 1.363 1_565 S
C166 C172 1.379 . S
C166 N174 1.356 . S
C167 C166 1.363 1_545 S
C167 C173 1.363 . S
C168 C169 1.363 1_545 S
C168 C173 1.379 . S
C168 N175 1.356 . S
C169 C168 1.363 1_565 S
C169 C172 1.363 . S
N170 C172 1.356 . S
N170 H182 0.984 . S
N170 H183 0.985 . S
N171 C173 1.356 . S
N171 H176 0.984 . S
N171 H177 0.985 . S
C172 C166 1.379 . S
C172 C169 1.363 . S
C172 N170 1.356 . S
C173 C167 1.363 . S
C173 C168 1.379 . S
C173 N171 1.356 . S
N174 C166 1.356 . S
N174 H180 0.984 . S
N174 H181 0.984 . S
N175 C168 1.356 . S
N175 H178 0.984 . S
N175 H179 0.985 . S
H176 N171 0.984 . S
H177 N171 0.985 . S
H178 N175 0.984 . S
H179 N175 0.985 . S
H180 N174 0.984 . S
H181 N174 0.984 . S
H182 N170 0.984 . S
H183 N170 0.985 . S
C184 C185 1.363 . S
C184 C190 1.379 1_655 S
C184 N192 1.356 . S
C185 C184 1.363 . S
C185 C191 1.363 1_556 S
C186 C187 1.363 . S
C186 C191 1.379 1_455 S
C186 N193 1.356 . S
C187 C186 1.363 . S
C187 C190 1.363 1_554 S
N188 C190 1.356 1_554 S
N188 H200 0.984 1_554 S
N188 H201 0.985 . S
N189 C191 1.356 1_556 S
N189 H194 0.984 . S
N189 H195 0.985 1_556 S
C190 C184 1.379 1_455 S
C190 C187 1.363 1_556 S
C190 N188 1.356 1_556 S
C191 C185 1.363 1_554 S
C191 C186 1.379 1_655 S
C191 N189 1.356 1_554 S
N192 C184 1.356 . S
N192 H198 0.984 . S
N192 H199 0.984 . S
N193 C186 1.356 . S
N193 H196 0.984 . S
N193 H197 0.985 . S
H194 N189 0.984 . S
H195 N189 0.985 1_554 S
H196 N193 0.984 . S
H197 N193 0.985 . S
H198 N192 0.984 . S
H199 N192 0.984 . S
H200 N188 0.984 1_556 S
H201 N188 0.985 . S
C202 C203 1.353 1_565 S
C202 C208 1.388 . S
C202 N210 1.353 1_565 S
C203 C202 1.353 1_545 S
C203 C209 1.363 . S
C204 C205 1.353 1_545 S
C204 C209 1.389 . S
C204 N211 1.353 1_545 S
C205 C204 1.353 1_565 S
C205 C208 1.363 . S
N206 C208 1.356 . S
N206 H218 0.984 . S
N206 H219 0.985 . S
N207 C209 1.356 . S
N207 H212 0.984 . S
N207 H213 0.985 . S
C208 C202 1.388 . S
C208 C205 1.363 . S
C208 N206 1.356 . S
C209 C203 1.363 . S
C209 C204 1.389 . S
C209 N207 1.356 . S
N210 C202 1.353 1_545 S
N210 H216 0.984 1_545 S
N210 H217 0.984 . S
N211 C204 1.353 1_565 S
N211 H214 0.984 . S
N211 H215 0.985 1_565 S
H212 N207 0.984 . S
H213 N207 0.985 . S
H214 N211 0.984 . S
H215 N211 0.985 1_545 S
H216 N210 0.984 1_565 S
H217 N210 0.984 . S
H218 N206 0.984 . S
H219 N206 0.985 . S
C220 C221 1.363 1_556 S
C220 C226 1.379 1_655 S
C220 N228 1.356 1_556 S
C221 C220 1.363 1_554 S
C221 C227 1.363 . S
C222 C223 1.363 1_554 S
C222 C227 1.379 1_455 S
C222 N229 1.356 1_554 S
C223 C222 1.363 1_556 S
C223 C226 1.363 . S
N224 C226 1.356 . S
N224 H236 0.984 . S
N224 H237 0.985 . S
N225 C227 1.356 . S
N225 H230 0.984 . S
N225 H231 0.985 . S
C226 C220 1.379 1_455 S
C226 C223 1.363 . S
C226 N224 1.356 . S
C227 C221 1.363 . S
C227 C222 1.379 1_655 S
C227 N225 1.356 . S
N228 C220 1.356 1_554 S
N228 H234 0.984 1_554 S
N228 H235 0.984 . S
N229 C222 1.356 1_556 S
N229 H232 0.984 . S
N229 H233 0.985 1_556 S
H230 N225 0.984 . S
H231 N225 0.985 . S
H232 N229 0.984 . S
H233 N229 0.985 1_554 S
H234 N228 0.984 1_556 S
H235 N228 0.984 . S
H236 N224 0.984 . S
H237 N224 0.985 . S
C238 C239 1.363 . S
C238 C244 1.379 1_545 S
C238 N246 1.356 . S
C239 C238 1.363 . S
C239 C245 1.363 . S
C240 C241 1.363 . S
C240 C245 1.379 1_565 S
C240 N247 1.356 . S
C241 C240 1.363 . S
C241 C244 1.363 . S
N242 C244 1.356 . S
N242 H254 0.984 . S
N242 H255 0.985 . S
N243 C245 1.356 . S
N243 H248 0.984 . S
N243 H249 0.985 . S
C244 C238 1.379 1_565 S
C244 C241 1.363 . S
C244 N242 1.356 . S
C245 C239 1.363 . S
C245 C240 1.379 1_545 S
C245 N243 1.356 . S
N246 C238 1.356 . S
N246 H252 0.984 1_545 S
N246 H253 0.984 . S
N247 C240 1.356 . S
N247 H250 0.984 . S
N247 H251 0.985 1_565 S
H248 N243 0.984 . S
H249 N243 0.985 . S
H250 N247 0.984 . S
H251 N247 0.985 1_545 S
H252 N246 0.984 1_565 S
H253 N246 0.984 . S
H254 N242 0.984 . S
H255 N242 0.985 . S
C256 C257 1.363 . S
C256 C262 1.379 . S
C256 N264 1.356 . S
C257 C256 1.363 . S
C257 C263 1.363 . S
C258 C259 1.363 . S
C258 C263 1.379 . S
C258 N265 1.356 . S
C259 C258 1.363 . S
C259 C262 1.363 . S
N260 C262 1.356 . S
N260 H272 0.984 . S
N260 H273 0.985 . S
N261 C263 1.356 . S
N261 H266 0.984 . S
N261 H267 0.985 . S
C262 C256 1.379 . S
C262 C259 1.363 . S
C262 N260 1.356 . S
C263 C257 1.363 . S
C263 C258 1.379 . S
C263 N261 1.356 . S
N264 C256 1.356 . S
N264 H270 0.984 . S
N264 H271 0.984 . S
N265 C258 1.356 . S
N265 H268 0.984 . S
N265 H269 0.985 . S
H266 N261 0.984 . S
H267 N261 0.985 . S
H268 N265 0.984 . S
H269 N265 0.985 . S
H270 N264 0.984 . S
H271 N264 0.984 . S
H272 N260 0.984 . S
H273 N260 0.985 . S
C274 C275 1.363 . S
C274 C280 1.379 . S
C274 N282 1.356 . S
C275 C274 1.363 . S
C275 C281 1.363 . S
C276 C277 1.363 . S
C276 C281 1.379 . S
C276 N283 1.356 . S
C277 C276 1.363 . S
C277 C280 1.363 . S
N278 C280 1.356 . S
N278 H290 0.984 . S
N278 H291 0.985 . S
N279 C281 1.356 . S
N279 H284 0.984 . S
N279 H285 0.985 . S
C280 C274 1.379 . S
C280 C277 1.363 . S
C280 N278 1.356 . S
C281 C275 1.363 . S
C281 C276 1.379 . S
C281 N279 1.356 . S
N282 C274 1.356 . S
N282 H288 0.984 . S
N282 H289 0.984 . S
N283 C276 1.356 . S
N283 H286 0.984 . S
N283 H287 0.985 . S
H284 N279 0.984 . S
H285 N279 0.985 . S
H286 N283 0.984 . S
H287 N283 0.985 . S
H288 N282 0.984 . S
H289 N282 0.984 . S
H290 N278 0.984 . S
H291 N278 0.985 . S
C292 C293 1.363 . S
C292 C298 1.379 . S
C292 N300 1.356 . S
C293 C292 1.363 . S
C293 C299 1.363 . S
C294 C295 1.363 . S
C294 C299 1.379 . S
C294 N301 1.356 . S
C295 C294 1.363 . S
C295 C298 1.363 . S
N296 C298 1.356 . S
N296 H308 0.984 . S
N296 H309 0.985 . S
N297 C299 1.356 . S
N297 H302 0.984 . S
N297 H303 0.985 . S
C298 C292 1.379 . S
C298 C295 1.363 . S
C298 N296 1.356 . S
C299 C293 1.363 . S
C299 C294 1.379 . S
C299 N297 1.356 . S
N300 C292 1.356 . S
N300 H306 0.984 . S
N300 H307 0.984 . S
N301 C294 1.356 . S
N301 H304 0.984 . S
N301 H305 0.985 . S
H302 N297 0.984 . S
H303 N297 0.985 . S
H304 N301 0.984 . S
H305 N301 0.985 . S
H306 N300 0.984 . S
H307 N300 0.984 . S
H308 N296 0.984 . S
H309 N296 0.985 . S
C310 C311 1.363 . S
C310 C316 1.379 . S
C310 N318 1.356 . S
C311 C310 1.363 . S
C311 C317 1.363 . S
C312 C313 1.363 . S
C312 C317 1.379 . S
C312 N319 1.356 . S
C313 C312 1.363 . S
C313 C316 1.363 . S
N314 C316 1.356 . S
N314 H326 0.984 . S
N314 H327 0.985 . S
N315 C317 1.356 . S
N315 H320 0.984 . S
N315 H321 0.985 . S
C316 C310 1.379 . S
C316 C313 1.363 . S
C316 N314 1.356 . S
C317 C311 1.363 . S
C317 C312 1.379 . S
C317 N315 1.356 . S
N318 C310 1.356 . S
N318 H324 0.984 . S
N318 H325 0.984 . S
N319 C312 1.356 . S
N319 H322 0.984 . S
N319 H323 0.985 . S
H320 N315 0.984 . S
H321 N315 0.985 . S
H322 N319 0.984 . S
H323 N319 0.985 . S
H324 N318 0.984 . S
H325 N318 0.984 . S
H326 N314 0.984 . S
H327 N314 0.985 . S
C328 C329 1.363 . S
C328 C334 1.379 1_545 S
C328 N336 1.356 . S
C329 C328 1.363 . S
C329 C335 1.363 1_455 S
C330 C331 1.363 . S
C330 C335 1.379 1_565 S
C330 N337 1.356 . S
C331 C330 1.363 . S
C331 C334 1.363 1_655 S
N332 C334 1.356 . S
N332 H344 0.984 . S
N332 H345 0.985 . S
N333 C335 1.356 . S
N333 H338 0.984 . S
N333 H339 0.985 . S
C334 C328 1.379 1_565 S
C334 C331 1.363 1_455 S
C334 N332 1.356 . S
C335 C329 1.363 1_655 S
C335 C330 1.379 1_545 S
C335 N333 1.356 . S
N336 C328 1.356 . S
N336 H342 0.984 . S
N336 H343 0.984 . S
N337 C330 1.356 . S
N337 H340 0.984 . S
N337 H341 0.985 . S
H338 N333 0.984 . S
H339 N333 0.985 . S
H340 N337 0.984 . S
H341 N337 0.985 . S
H342 N336 0.984 . S
H343 N336 0.984 . S
H344 N332 0.984 . S
H345 N332 0.985 . S
C346 C347 1.363 . S
C346 C352 1.379 1_455 S
C346 N354 1.356 . S
C347 C346 1.363 . S
C347 C353 1.363 1_565 S
C348 C349 1.363 . S
C348 C353 1.379 1_655 S
C348 N355 1.356 . S
C349 C348 1.363 . S
C349 C352 1.363 1_545 S
N350 C352 1.356 . S
N350 H362 0.984 . S
N350 H363 0.985 . S
N351 C353 1.356 . S
N351 H356 0.984 . S
N351 H357 0.985 . S
C352 C346 1.379 1_655 S
C352 C349 1.363 1_565 S
C352 N350 1.356 . S
C353 C347 1.363 1_545 S
C353 C348 1.379 1_455 S
C353 N351 1.356 . S
N354 C346 1.356 . S
N354 H360 0.984 . S
N354 H361 0.984 . S
N355 C348 1.356 . S
N355 H358 0.984 . S
N355 H359 0.985 . S
H356 N351 0.984 . S
H357 N351 0.985 . S
H358 N355 0.984 . S
H359 N355 0.985 . S
H360 N354 0.984 . S
H361 N354 0.984 . S
H362 N350 0.984 . S
H363 N350 0.985 . S
C364 C365 1.363 . S
C364 C370 1.379 1_545 S
C364 N372 1.356 . S
C365 C364 1.363 . S
C365 C371 1.363 1_655 S
C366 C367 1.363 . S
C366 C371 1.379 1_565 S
C366 N373 1.356 . S
C367 C366 1.363 . S
C367 C370 1.363 1_455 S
N368 C370 1.356 . S
N368 H380 0.984 . S
N368 H381 0.985 . S
N369 C371 1.356 . S
N369 H374 0.984 . S
N369 H375 0.985 . S
C370 C364 1.379 1_565 S
C370 C367 1.363 1_655 S
C370 N368 1.356 . S
C371 C365 1.363 1_455 S
C371 C366 1.379 1_545 S
C371 N369 1.356 . S
N372 C364 1.356 . S
N372 H378 0.984 . S
N372 H379 0.984 . S
N373 C366 1.356 . S
N373 H376 0.984 . S
N373 H377 0.985 . S
H374 N369 0.984 . S
H375 N369 0.985 . S
H376 N373 0.984 . S
H377 N373 0.985 . S
H378 N372 0.984 . S
H379 N372 0.984 . S
H380 N368 0.984 . S
H381 N368 0.985 . S
C382 C383 1.363 . S
C382 C388 1.379 1_655 S
C382 N390 1.356 . S
C383 C382 1.363 . S
C383 C389 1.363 1_565 S
C384 C385 1.363 . S
C384 C389 1.379 1_455 S
C384 N391 1.356 . S
C385 C384 1.363 . S
C385 C388 1.363 1_545 S
N386 C388 1.356 . S
N386 H398 0.984 . S
N386 H399 0.985 . S
N387 C389 1.356 . S
N387 H392 0.984 . S
N387 H393 0.985 . S
C388 C382 1.379 1_455 S
C388 C385 1.363 1_565 S
C388 N386 1.356 . S
C389 C383 1.363 1_545 S
C389 C384 1.379 1_655 S
C389 N387 1.356 . S
N390 C382 1.356 . S
N390 H396 0.984 . S
N390 H397 0.984 . S
N391 C384 1.356 . S
N391 H394 0.984 . S
N391 H395 0.985 . S
H392 N387 0.984 . S
H393 N387 0.985 . S
H394 N391 0.984 . S
H395 N391 0.985 . S
H396 N390 0.984 . S
H397 N390 0.984 . S
H398 N386 0.984 . S
H399 N386 0.985 . S
C113 C3 1.421 . S
C115 C31 1.421 . S
C131 C50 1.442 . S
C133 C22 1.442 . S
C149 C87 1.421 . S
C151 C59 1.421 . S
C167 C78 1.442 . S
C169 C106 1.442 . S
C185 C93 1.654 . S
C187 C9 1.654 . S
C203 C21 1.839 . S
C205 C105 1.839 . S
C221 C37 1.654 . S
C223 C65 1.654 . S
C239 C77 1.839 . S
C241 C49 1.839 . S
C257 C8 1.593 . S
C259 C73 1.542 . S
C275 C92 1.593 . S
C277 C17 1.542 . S
C293 C101 1.542 . S
C295 C36 1.593 . S
C311 C45 1.542 . S
C313 C64 1.593 . S
C329 C7 1.131 . S
C331 C35 1.131 . S
C347 C51 1.095 . S
C349 C23 1.095 . S
C365 C91 1.131 . S
C367 C63 1.131 . S
C383 C107 1.095 . S
C385 C79 1.095 . S
