# Generated by pormake.
# Topology neb, (4)-cn, num edge types: 1
# Building blocks:
#     Node 0, Type 0, BuildingBlock: CEKHIL_clean_sbu_0, # of connection points: 4
#     Node 1, Type 0, BuildingBlock: CEKHIL_clean_sbu_0, # of connection points: 4
#     Node 2, Type 0, BuildingBlock: CEKHIL_clean_sbu_0, # of connection points: 4
#     Node 3, Type 0, BuildingBlock: CEKHIL_clean_sbu_0, # of connection points: 4
#     Node 4, Type 0, BuildingBlock: CEKHIL_clean_sbu_0, # of connection points: 4
#     Node 5, Type 0, BuildingBlock: CEKHIL_clean_sbu_0, # of connection points: 4
#     Node 6, Type 0, BuildingBlock: CEKHIL_clean_sbu_0, # of connection points: 4
#     Node 7, Type 0, BuildingBlock: CEKHIL_clean_sbu_0, # of connection points: 4
#     Node 8, Type 0, BuildingBlock: CEKHIL_clean_sbu_0, # of connection points: 4
#     Node 9, Type 0, BuildingBlock: CEKHIL_clean_sbu_0, # of connection points: 4
#     Node 10, Type 0, BuildingBlock: CEKHIL_clean_sbu_0, # of connection points: 4
#     Node 11, Type 0, BuildingBlock: CEKHIL_clean_sbu_0, # of connection points: 4
#     Node 12, Type 0, BuildingBlock: CEKHIL_clean_sbu_0, # of connection points: 4
#     Node 13, Type 0, BuildingBlock: CEKHIL_clean_sbu_0, # of connection points: 4
#     Node 14, Type 0, BuildingBlock: CEKHIL_clean_sbu_0, # of connection points: 4
#     Node 15, Type 0, BuildingBlock: CEKHIL_clean_sbu_0, # of connection points: 4
#     Edge 16, Type (0, 0), BuildingBlock: XIVTED_clean_linker_0, # of connection points: 2
#     Edge 17, Type (0, 0), BuildingBlock: XIVTED_clean_linker_0, # of connection points: 2
#     Edge 18, Type (0, 0), BuildingBlock: XIVTED_clean_linker_0, # of connection points: 2
#     Edge 19, Type (0, 0), BuildingBlock: XIVTED_clean_linker_0, # of connection points: 2
#     Edge 20, Type (0, 0), BuildingBlock: XIVTED_clean_linker_0, # of connection points: 2
#     Edge 21, Type (0, 0), BuildingBlock: XIVTED_clean_linker_0, # of connection points: 2
#     Edge 22, Type (0, 0), BuildingBlock: XIVTED_clean_linker_0, # of connection points: 2
#     Edge 23, Type (0, 0), BuildingBlock: XIVTED_clean_linker_0, # of connection points: 2
#     Edge 24, Type (0, 0), BuildingBlock: XIVTED_clean_linker_0, # of connection points: 2
#     Edge 25, Type (0, 0), BuildingBlock: XIVTED_clean_linker_0, # of connection points: 2
#     Edge 26, Type (0, 0), BuildingBlock: XIVTED_clean_linker_0, # of connection points: 2
#     Edge 27, Type (0, 0), BuildingBlock: XIVTED_clean_linker_0, # of connection points: 2
#     Edge 28, Type (0, 0), BuildingBlock: XIVTED_clean_linker_0, # of connection points: 2
#     Edge 29, Type (0, 0), BuildingBlock: XIVTED_clean_linker_0, # of connection points: 2
#     Edge 30, Type (0, 0), BuildingBlock: XIVTED_clean_linker_0, # of connection points: 2
#     Edge 31, Type (0, 0), BuildingBlock: XIVTED_clean_linker_0, # of connection points: 2
#     Edge 32, Type (0, 0), BuildingBlock: XIVTED_clean_linker_0, # of connection points: 2
#     Edge 33, Type (0, 0), BuildingBlock: XIVTED_clean_linker_0, # of connection points: 2
#     Edge 34, Type (0, 0), BuildingBlock: XIVTED_clean_linker_0, # of connection points: 2
#     Edge 35, Type (0, 0), BuildingBlock: XIVTED_clean_linker_0, # of connection points: 2
#     Edge 36, Type (0, 0), BuildingBlock: XIVTED_clean_linker_0, # of connection points: 2
#     Edge 37, Type (0, 0), BuildingBlock: XIVTED_clean_linker_0, # of connection points: 2
#     Edge 38, Type (0, 0), BuildingBlock: XIVTED_clean_linker_0, # of connection points: 2
#     Edge 39, Type (0, 0), BuildingBlock: XIVTED_clean_linker_0, # of connection points: 2
#     Edge 40, Type (0, 0), BuildingBlock: XIVTED_clean_linker_0, # of connection points: 2
#     Edge 41, Type (0, 0), BuildingBlock: XIVTED_clean_linker_0, # of connection points: 2
#     Edge 42, Type (0, 0), BuildingBlock: XIVTED_clean_linker_0, # of connection points: 2
#     Edge 43, Type (0, 0), BuildingBlock: XIVTED_clean_linker_0, # of connection points: 2
#     Edge 44, Type (0, 0), BuildingBlock: XIVTED_clean_linker_0, # of connection points: 2
#     Edge 45, Type (0, 0), BuildingBlock: XIVTED_clean_linker_0, # of connection points: 2
#     Edge 46, Type (0, 0), BuildingBlock: XIVTED_clean_linker_0, # of connection points: 2
#     Edge 47, Type (0, 0), BuildingBlock: XIVTED_clean_linker_0, # of connection points: 2
# Relax obj value: 0.002
# Max RMSD: 0.027
# Mean RMSD: 0.027
data_MOF--net-neb--node1-CEKHIL_clean_sbu_0--edge1-XIVTED_clean_linker_0
_symmetry_space_group_name_H-M    P1
_symmetry_Int_Tables_number       1
_symmetry_cell_setting            triclinic
loop_
_symmetry_equiv_pos_as_xyz
'x, y, z'
_cell_length_a     41.493425
_cell_length_b     22.762216
_cell_length_c     75.885804
_cell_angle_alpha  90.000196
_cell_angle_beta   92.759684
_cell_angle_gamma 89.998589
loop_
_atom_site_label
_atom_site_type_symbol
_atom_site_fract_x
_atom_site_fract_y
_atom_site_fract_z
_atom_type_partial_charge
Co0 Co 0.13047 0.09255 0.45325 0.0
O1 O 0.11848 0.04025 0.47178 0.0
O2 O 0.08385 0.08848 0.45407 0.0
C3 C 0.16801 0.14186 0.46992 0.0
O4 O 0.13379 0.15239 0.4333 0.0
Co5 Co 0.19955 0.09144 0.43973 0.0
O6 O 0.18587 0.16446 0.42727 0.0
C7 C 0.15359 0.99895 0.42785 0.0
C8 C 0.08873 0.05355 0.46752 0.0
C9 C 0.15625 0.1788 0.42519 0.0
O10 O 0.13101 0.02514 0.4359 0.0
O11 O 0.18301 0.01617 0.42882 0.0
O12 O 0.13768 0.15534 0.47039 0.0
O13 O 0.17449 0.09627 0.46055 0.0
Co14 Co 0.12145 0.09352 0.81197 0.0
O15 O 0.13334 0.04107 0.79348 0.0
O16 O 0.16806 0.0885 0.81133 0.0
C17 C 0.08448 0.14378 0.79519 0.0
O18 O 0.11821 0.15334 0.83192 0.0
Co19 Co 0.0522 0.09361 0.82521 0.0
O20 O 0.06609 0.16641 0.83772 0.0
C21 C 0.09747 0.00028 0.83725 0.0
C22 C 0.16312 0.05375 0.79784 0.0
C23 C 0.09577 0.18021 0.83992 0.0
O24 O 0.12029 0.02607 0.82929 0.0
O25 O 0.06815 0.01803 0.83618 0.0
O26 O 0.11492 0.15656 0.79487 0.0
O27 O 0.07754 0.09823 0.80448 0.0
Co28 Co 0.8708 0.90669 0.56217 0.0
O29 O 0.88271 0.95921 0.54368 0.0
O30 O 0.9174 0.91103 0.56136 0.0
C31 C 0.83332 0.85733 0.54546 0.0
O32 O 0.86758 0.84667 0.58208 0.0
Co33 Co 0.80164 0.90703 0.57567 0.0
O34 O 0.81553 0.83408 0.5881 0.0
C35 C 0.84733 5e-05 0.58752 0.0
C36 C 0.91247 0.94603 0.54794 0.0
C37 C 0.84519 0.81999 0.59017 0.0
O38 O 0.87008 0.97397 0.57957 0.0
O39 O 0.81795 0.98261 0.58646 0.0
O40 O 0.86367 0.84398 0.54497 0.0
O41 O 0.8268 0.90276 0.55489 0.0
Co42 Co 0.88069 0.90482 0.20332 0.0
O43 O 0.86888 0.95728 0.22183 0.0
O44 O 0.8341 0.90977 0.20403 0.0
C45 C 0.91778 0.85462 0.22004 0.0
O46 O 0.8838 0.845 0.18337 0.0
Co47 Co 0.9498 0.90471 0.18991 0.0
O48 O 0.93583 0.83201 0.17737 0.0
C49 C 0.90439 0.99788 0.1779 0.0
C50 C 0.83909 0.94456 0.21751 0.0
C51 C 0.90614 0.81821 0.17527 0.0
O52 O 0.8817 0.97222 0.18599 0.0
O53 O 0.93371 0.98011 0.17887 0.0
O54 O 0.88735 0.84183 0.22042 0.0
O55 O 0.92466 0.90016 0.21073 0.0
Co56 Co 0.13166 0.59374 0.95235 0.0
O57 O 0.11946 0.54136 0.97081 0.0
O58 O 0.08505 0.58957 0.95297 0.0
C59 C 0.16901 0.64306 0.96915 0.0
O60 O 0.13509 0.65368 0.93244 0.0
Co61 Co 0.2009 0.5934 0.939 0.0
O62 O 0.18716 0.66629 0.92649 0.0
C63 C 0.1553 0.50037 0.92704 0.0
C64 C 0.08975 0.55466 0.96644 0.0
C65 C 0.1575 0.68034 0.92437 0.0
O66 O 0.13251 0.5264 0.93497 0.0
O67 O 0.18467 0.51786 0.92814 0.0
O68 O 0.13866 0.65648 0.96954 0.0
O69 O 0.17562 0.5976 0.95976 0.0
Co70 Co 0.12179 0.59119 0.31237 0.0
O71 O 0.13343 0.53847 0.29388 0.0
O72 O 0.16835 0.58568 0.31168 0.0
C73 C 0.08489 0.64171 0.29561 0.0
O74 O 0.11892 0.65121 0.33229 0.0
Co75 Co 0.05265 0.59257 0.32577 0.0
O76 O 0.06697 0.66507 0.3383 0.0
C77 C 0.09755 0.49857 0.33777 0.0
C78 C 0.16326 0.55095 0.2982 0.0
C79 C 0.09673 0.67841 0.34039 0.0
O80 O 0.12045 0.52389 0.32975 0.0
O81 O 0.06832 0.5168 0.33673 0.0
O82 O 0.11537 0.65416 0.29523 0.0
O83 O 0.07785 0.59637 0.30497 0.0
Co84 Co 0.87386 0.40456 0.06205 0.0
O85 O 0.88595 0.45694 0.04354 0.0
O86 O 0.92044 0.40839 0.06125 0.0
C87 C 0.83616 0.35565 0.04537 0.0
O88 O 0.87062 0.34457 0.08194 0.0
Co89 Co 0.80485 0.40506 0.07572 0.0
O90 O 0.81869 0.33221 0.08822 0.0
C91 C 0.85076 0.49781 0.08754 0.0
C92 C 0.91567 0.44339 0.04781 0.0
C93 C 0.84836 0.31804 0.09016 0.0
O94 O 0.87339 0.47181 0.07947 0.0
O95 O 0.82138 0.4804 0.08656 0.0
O96 O 0.86646 0.34197 0.04484 0.0
O97 O 0.82981 0.40107 0.05484 0.0
Co98 Co 0.88068 0.40659 0.70255 0.0
O99 O 0.86841 0.45871 0.72105 0.0
O100 O 0.83406 0.41119 0.703 0.0
C101 C 0.91758 0.35646 0.71941 0.0
O102 O 0.88426 0.347 0.68257 0.0
Co103 Co 0.95008 0.40685 0.68952 0.0
O104 O 0.93644 0.33409 0.6769 0.0
C105 C 0.9048 0.5001 0.67739 0.0
C106 C 0.83871 0.44574 0.71655 0.0
C107 C 0.90678 0.32025 0.67461 0.0
O108 O 0.88193 0.47422 0.68529 0.0
O109 O 0.93413 0.48241 0.67854 0.0
O110 O 0.88716 0.34344 0.71961 0.0
O111 O 0.92454 0.40212 0.71018 0.0
Co112 Co 0.63075 0.09546 0.95307 0.0
O113 O 0.61822 0.04348 0.97156 0.0
O114 O 0.58411 0.0924 0.95373 0.0
C115 C 0.66851 0.14393 0.96983 0.0
O116 O 0.63456 0.15518 0.93314 0.0
Co117 Co 0.69995 0.09339 0.93966 0.0
O118 O 0.68671 0.16655 0.92715 0.0
C119 C 0.65361 0.00147 0.92775 0.0
C120 C 0.5886 0.05741 0.9672 0.0
C121 C 0.65714 0.18127 0.92505 0.0
O122 O 0.63104 0.02803 0.93571 0.0
O123 O 0.68309 0.01828 0.9288 0.0
O124 O 0.63827 0.15811 0.97024 0.0
O125 O 0.67474 0.09827 0.96043 0.0
Co126 Co 0.62162 0.09278 0.31223 0.0
O127 O 0.63337 0.04023 0.29372 0.0
O128 O 0.66819 0.08834 0.31135 0.0
C129 C 0.58412 0.14227 0.29559 0.0
O130 O 0.61858 0.15277 0.33214 0.0
Co131 Co 0.55266 0.09255 0.32591 0.0
O132 O 0.56664 0.16541 0.33836 0.0
C133 C 0.59843 -0.0003 0.33777 0.0
C134 C 0.66317 0.05334 0.29793 0.0
C135 C 0.59632 0.17944 0.34033 0.0
O136 O 0.62102 0.02554 0.32963 0.0
O137 O 0.56907 0.01724 0.33685 0.0
O138 O 0.61448 0.15549 0.29506 0.0
O139 O 0.57757 0.09683 0.30501 0.0
Co140 Co 0.37183 0.90719 0.06215 0.0
O141 O 0.38399 0.95986 0.04372 0.0
O142 O 0.41842 0.91164 0.06155 0.0
C143 C 0.33457 0.85783 0.04529 0.0
O144 O 0.36857 0.84702 0.08198 0.0
Co145 Co 0.30266 0.90656 0.07555 0.0
O146 O 0.31662 0.83381 0.08808 0.0
C147 C 0.348 -8e-05 0.08759 0.0
C148 C 0.41371 0.94665 0.04812 0.0
C149 C 0.34634 0.82008 0.09011 0.0
O150 O 0.37085 0.9743 0.0796 0.0
O151 O 0.31869 0.9821 0.08649 0.0
O152 O 0.36495 0.84462 0.04489 0.0
O153 O 0.32788 0.9031 0.05475 0.0
Co154 Co 0.38093 0.90576 0.70335 0.0
O155 O 0.36903 0.95826 0.72183 0.0
O156 O 0.33432 0.91055 0.70403 0.0
C157 C 0.41805 0.85581 0.72012 0.0
O158 O 0.38419 0.84584 0.68342 0.0
Co159 Co 0.45017 0.90582 0.69004 0.0
O160 O 0.4363 0.83292 0.67759 0.0
C161 C 0.40474 0.99899 0.67803 0.0
C162 C 0.33926 0.9454 0.7175 0.0
C163 C 0.40663 0.81901 0.67541 0.0
O164 O 0.38195 0.97312 0.686 0.0
O165 O 0.43409 0.98136 0.67911 0.0
O166 O 0.38764 0.84285 0.72049 0.0
O167 O 0.42487 0.90132 0.71079 0.0
Co168 Co 0.62917 0.59297 0.45348 0.0
O169 O 0.61702 0.54071 0.472 0.0
O170 O 0.58258 0.5891 0.45421 0.0
C171 C 0.66674 0.64212 0.47016 0.0
O172 O 0.63248 0.65282 0.43356 0.0
Co173 Co 0.6982 0.5924 0.43988 0.0
O174 O 0.68443 0.66524 0.42735 0.0
C175 C 0.65234 0.49968 0.42801 0.0
C176 C 0.58731 0.55421 0.46767 0.0
C177 C 0.65477 0.67937 0.42537 0.0
O178 O 0.62972 0.52563 0.4361 0.0
O179 O 0.68172 0.51711 0.42897 0.0
O180 O 0.63642 0.65569 0.47064 0.0
O181 O 0.6732 0.59661 0.46075 0.0
Co182 Co 0.62293 0.59403 0.81228 0.0
O183 O 0.63502 0.54167 0.79379 0.0
O184 O 0.66952 0.58926 0.81173 0.0
C185 C 0.58594 0.64407 0.79546 0.0
O186 O 0.61963 0.65383 0.83221 0.0
Co187 Co 0.55365 0.59456 0.82551 0.0
O188 O 0.56759 0.66718 0.83811 0.0
C189 C 0.59883 0.50097 0.83755 0.0
C190 C 0.66475 0.55461 0.79821 0.0
C191 C 0.5973 0.68078 0.84027 0.0
O192 O 0.62173 0.52659 0.8296 0.0
O193 O 0.56955 0.5189 0.83645 0.0
O194 O 0.61636 0.65701 0.79516 0.0
O195 O 0.57903 0.59859 0.80478 0.0
Co196 Co 0.37088 0.40549 0.563 0.0
O197 O 0.38322 0.45783 0.54455 0.0
O198 O 0.4175 0.40955 0.56245 0.0
C199 C 0.3336 0.35623 0.54613 0.0
O200 O 0.36731 0.34557 0.58288 0.0
Co201 Co 0.30158 0.40594 0.57623 0.0
O202 O 0.3152 0.33301 0.58876 0.0
C203 C 0.34717 0.49886 0.58828 0.0
C204 C 0.41289 0.44445 0.54898 0.0
C205 C 0.34484 0.31892 0.59091 0.0
O206 O 0.36998 0.47282 0.58037 0.0
O207 O 0.31779 0.48141 0.58714 0.0
O208 O 0.36395 0.34276 0.5458 0.0
O209 O 0.32696 0.40171 0.55551 0.0
Co210 Co 0.38065 0.40601 0.20299 0.0
O211 O 0.36864 0.45824 0.22152 0.0
O212 O 0.33403 0.40985 0.20384 0.0
C213 C 0.41825 0.35685 0.21965 0.0
O214 O 0.38405 0.34619 0.18305 0.0
Co215 Co 0.44971 0.40748 0.18945 0.0
O216 O 0.43616 0.33429 0.17705 0.0
C217 C 0.40357 0.49967 0.17755 0.0
C218 C 0.3389 0.44478 0.21729 0.0
C219 C 0.40656 0.31982 0.17497 0.0
O220 O 0.38105 0.47341 0.18563 0.0
O221 O 0.43301 0.48259 0.17851 0.0
O222 O 0.38794 0.34325 0.22012 0.0
O223 O 0.42468 0.40248 0.21028 0.0
H224 H 0.26853 0.37692 0.54348 0.0
H225 H 0.23311 0.12101 0.47249 0.0
H226 H 0.34203 0.26211 0.52451 0.0
H227 H 0.15979 0.23624 0.49143 0.0
H228 H 0.27352 0.17257 0.49128 0.0
H229 H 0.22823 0.32543 0.52463 0.0
C230 C 0.27616 0.34071 0.53541 0.0
C231 C 0.30866 0.3238 0.53554 0.0
C232 C 0.2486 0.18666 0.4913 0.0
C233 C 0.26276 0.26487 0.51386 0.0
C234 C 0.22555 0.15733 0.48054 0.0
C235 C 0.19306 0.17433 0.48043 0.0
C236 C 0.23906 0.2333 0.50202 0.0
C237 C 0.18458 0.22165 0.49112 0.0
C238 C 0.25316 0.31141 0.52461 0.0
C239 C 0.31721 0.27661 0.52481 0.0
N240 N 0.20742 0.24937 0.50151 0.0
N241 N 0.29442 0.24888 0.51438 0.0
H242 H 0.90815 0.01966 0.5195 0.0
H243 H 0.09301 0.97996 0.49596 0.0
H244 H 0.97672 0.91619 0.55076 0.0
H245 H 0.02451 0.08364 0.46471 0.0
H246 H 0.05064 0.95527 0.51592 0.0
H247 H 0.95052 0.04447 0.49955 0.0
C248 C 0.93221 0.00252 0.52227 0.0
C249 C 0.93888 0.96574 0.53686 0.0
C250 C 0.04479 0.98322 0.50467 0.0
C251 C 0.98755 0.99357 0.51387 0.0
C252 C 0.06896 0.99718 0.4932 0.0
C253 C 0.06232 0.03397 0.47861 0.0
C254 C 0.01363 0.00627 0.50161 0.0
C255 C 0.03071 0.05501 0.47575 0.0
C256 C 0.95639 0.01654 0.5108 0.0
C257 C 0.9705 0.94479 0.53972 0.0
N258 N 0.00758 0.04104 0.48718 0.0
N259 N 0.99362 0.95882 0.5283 0.0
H260 H 0.34364 0.01897 0.74594 0.0
H261 H 0.15872 0.9802 0.7694 0.0
H262 H 0.27496 0.91588 0.71462 0.0
H263 H 0.22743 0.08311 0.80075 0.0
H264 H 0.20106 0.95527 0.74946 0.0
H265 H 0.30131 0.04385 0.76589 0.0
C266 C 0.31956 0.00193 0.74315 0.0
C267 C 0.31286 0.96524 0.72855 0.0
C268 C 0.20697 0.9831 0.76073 0.0
C269 C 0.26422 0.99314 0.75155 0.0
C270 C 0.18281 0.99719 0.7722 0.0
C271 C 0.18952 0.03385 0.7868 0.0
C272 C 0.23817 0.00589 0.76382 0.0
C273 C 0.22118 0.05459 0.7897 0.0
C274 C 0.29541 0.01599 0.75463 0.0
C275 C 0.28121 0.94443 0.72567 0.0
N276 N 0.24429 0.0405 0.77827 0.0
N277 N 0.2581 0.95849 0.7371 0.0
H278 H 0.0937 0.23921 0.77426 0.0
H279 H 0.90833 0.26105 0.74035 0.0
H280 H 0.01935 0.12355 0.79184 0.0
H281 H 0.98268 0.37688 0.72287 0.0
H282 H 0.94867 0.20975 0.75911 0.0
H283 H 0.05333 0.29059 0.75555 0.0
C284 C 0.06882 0.22477 0.77424 0.0
C285 C 0.05985 0.17696 0.7846 0.0
C286 C 0.95622 0.24629 0.75116 0.0
C287 C 0.0135 0.23544 0.76311 0.0
C288 C 0.9332 0.27554 0.7404 0.0
C289 C 0.94218 0.32337 0.73005 0.0
C290 C 0.98849 0.26499 0.75159 0.0
C291 C 0.97472 0.34023 0.73064 0.0
C292 C 0.04579 0.25407 0.76351 0.0
C293 C 0.02729 0.16019 0.78405 0.0
N294 N 0.9967 0.31114 0.74127 0.0
N295 N 0.0053 0.18932 0.77344 0.0
H296 H 0.76821 0.87768 0.54321 0.0
H297 H 0.73184 0.62146 0.47246 0.0
H298 H 0.84144 0.76315 0.52383 0.0
H299 H 0.65871 0.73636 0.49177 0.0
H300 H 0.77247 0.67316 0.49106 0.0
H301 H 0.72762 0.8259 0.52463 0.0
C302 C 0.77572 0.84147 0.5351 0.0
C303 C 0.80823 0.82473 0.53504 0.0
C304 C 0.74754 0.68715 0.49121 0.0
C305 C 0.76199 0.76547 0.51367 0.0
C306 C 0.72437 0.65773 0.48056 0.0
C307 C 0.69187 0.67461 0.4806 0.0
C308 C 0.73813 0.73376 0.50198 0.0
C309 C 0.68351 0.72187 0.49134 0.0
C310 C 0.75256 0.81201 0.52446 0.0
C311 C 0.81663 0.77754 0.52427 0.0
N312 N 0.70647 0.7497 0.50162 0.0
N313 N 0.79367 0.74965 0.514 0.0
H314 H 0.65863 0.97988 0.26946 0.0
H315 H 0.84356 0.01814 0.24594 0.0
H316 H 0.72745 0.08282 0.30073 0.0
H317 H 0.77476 0.91532 0.21462 0.0
H318 H 0.80124 0.04325 0.26588 0.0
H319 H 0.70091 0.95491 0.24948 0.0
C320 C 0.68273 0.99687 0.27223 0.0
C321 C 0.68949 0.03354 0.28682 0.0
C322 C 0.79531 0.0154 0.25461 0.0
C323 C 0.73806 0.00553 0.2638 0.0
C324 C 0.81946 0.00121 0.24315 0.0
C325 C 0.81271 0.96452 0.22855 0.0
C326 C 0.7641 0.99268 0.25153 0.0
C327 C 0.78104 0.94385 0.22567 0.0
C328 C 0.70685 0.98276 0.26074 0.0
C329 C 0.72116 0.0543 0.28968 0.0
N330 N 0.75794 0.95803 0.23709 0.0
N331 N 0.74423 0.04018 0.27824 0.0
H332 H 0.90864 0.75943 0.24106 0.0
H333 H 0.09423 0.73664 0.27448 0.0
H334 H 0.98295 0.87472 0.22325 0.0
H335 H 0.01971 0.62212 0.29245 0.0
H336 H 0.05384 0.78809 0.25578 0.0
H337 H 0.94906 0.70811 0.25974 0.0
C338 C 0.93352 0.7738 0.24102 0.0
C339 C 0.94246 0.82149 0.23061 0.0
C340 C 0.04627 0.7518 0.26383 0.0
C341 C 0.98889 0.76307 0.25206 0.0
C342 C 0.06931 0.72248 0.27455 0.0
C343 C 0.0603 0.67497 0.28502 0.0
C344 C 0.01394 0.7335 0.26355 0.0
C345 C 0.0277 0.65852 0.28458 0.0
C346 C 0.95659 0.74454 0.25173 0.0
C347 C 0.97503 0.83818 0.23108 0.0
N348 N 0.0057 0.68766 0.27399 0.0
N349 N 0.99706 0.80907 0.24167 0.0
H350 H 0.26944 0.87799 0.04283 0.0
H351 H 0.23413 0.62262 0.97166 0.0
H352 H 0.34303 0.76402 0.02356 0.0
H353 H 0.16065 0.73708 0.99081 0.0
H354 H 0.2745 0.67422 0.99045 0.0
H355 H 0.22911 0.82636 0.02403 0.0
C356 C 0.27708 0.84194 0.0347 0.0
C357 C 0.30962 0.8253 0.03473 0.0
C358 C 0.24955 0.68814 0.99052 0.0
C359 C 0.26368 0.76622 0.01312 0.0
C360 C 0.22652 0.65877 0.97976 0.0
C361 C 0.194 0.67556 0.9797 0.0
C362 C 0.23998 0.7346 1.0013 0.0
C363 C 0.18547 0.72267 0.99045 0.0
C364 C 0.25407 0.81256 0.02394 0.0
C365 C 0.31819 0.77831 0.02393 0.0
N366 N 0.20829 0.75045 1.00084 0.0
N367 N 0.29538 0.75051 0.01354 0.0
H368 H 0.02538 0.58295 0.96281 0.0
H369 H 0.98001 0.41504 0.05136 0.0
H370 H 0.0937 0.48326 0.9954 0.0
H371 H 0.9116 0.51457 0.01879 0.0
H372 H 0.02218 0.44052 0.03119 0.0
H373 H 0.98314 0.55736 0.98294 0.0
C374 C 0.03144 0.55524 0.97409 0.0
C375 C 0.06313 0.53523 0.97741 0.0
C376 C 0.99796 0.45699 0.02849 0.0
C377 C 0.01501 0.50632 1.00064 0.0
C378 C 0.97391 0.44269 0.04006 0.0
C379 C 0.94222 0.4627 0.03677 0.0
C380 C 0.99027 0.4915 0.01349 0.0
C381 C 0.9357 0.49815 0.02187 0.0
C382 C 0.00735 0.54088 0.98564 0.0
C383 C 0.06961 0.49969 0.9923 0.0
N384 N 0.95945 0.51124 0.01077 0.0
N385 N 0.04583 0.48656 1.00337 0.0
H386 H 0.34323 0.51824 0.24574 0.0
H387 H 0.15867 0.47762 0.26969 0.0
H388 H 0.27474 0.41416 0.21462 0.0
H389 H 0.22757 0.58013 0.30103 0.0
H390 H 0.20088 0.45302 0.24962 0.0
H391 H 0.30103 0.54235 0.26585 0.0
C392 C 0.31921 0.50082 0.24304 0.0
C393 C 0.31253 0.46408 0.22844 0.0
C394 C 0.20686 0.48067 0.26092 0.0
C395 C 0.26403 0.49111 0.25161 0.0
C396 C 0.18277 0.49457 0.27246 0.0
C397 C 0.18958 0.53104 0.2871 0.0
C398 C 0.23806 0.5035 0.26396 0.0
C399 C 0.22125 0.55176 0.28996 0.0
C400 C 0.29513 0.51443 0.25459 0.0
C401 C 0.28096 0.44276 0.22566 0.0
N402 N 0.24427 0.53789 0.27846 0.0
N403 N 0.25792 0.45642 0.23718 0.0
H404 H 0.73348 0.12204 0.97216 0.0
H405 H 0.77114 0.37692 0.04317 0.0
H406 H 0.66097 0.23819 0.9915 0.0
H407 H 0.84383 0.26158 0.02362 0.0
H408 H 0.73029 0.32598 0.02454 0.0
H409 H 0.77437 0.17284 0.99082 0.0
C410 C 0.7262 0.15839 0.98028 0.0
C411 C 0.6938 0.1759 0.9803 0.0
C412 C 0.75517 0.31172 0.02435 0.0
C413 C 0.74036 0.23401 1.00176 0.0
C414 C 0.77848 0.34071 0.03502 0.0
C415 C 0.81092 0.32349 0.03492 0.0
C416 C 0.76438 0.2652 0.01349 0.0
C417 C 0.81908 0.27632 0.02409 0.0
C418 C 0.74952 0.1873 0.99096 0.0
C419 C 0.68568 0.22324 0.99108 0.0
N420 N 0.79599 0.2489 0.01379 0.0
N421 N 0.70878 0.25055 1.00139 0.0
H422 H 0.72912 0.58263 0.80188 0.0
H423 H 0.77436 0.41738 0.71287 0.0
H424 H 0.66068 0.4839 0.7691 0.0
H425 H 0.84263 0.51662 0.74561 0.0
H426 H 0.73215 0.44221 0.7331 0.0
H427 H 0.77127 0.55775 0.78163 0.0
C428 C 0.72302 0.55525 0.79053 0.0
C429 C 0.69132 0.53533 0.7872 0.0
C430 C 0.75634 0.45877 0.73581 0.0
C431 C 0.73933 0.50725 0.76382 0.0
C432 C 0.7804 0.44486 0.7242 0.0
C433 C 0.81208 0.46494 0.72754 0.0
C434 C 0.76402 0.49295 0.75089 0.0
C435 C 0.81855 0.50015 0.7425 0.0
C436 C 0.74705 0.54131 0.77891 0.0
C437 C 0.68479 0.50024 0.77221 0.0
N438 N 0.7948 0.51283 0.75363 0.0
N439 N 0.70851 0.48751 0.76107 0.0
H440 H 0.52435 0.08662 0.96352 0.0
H441 H 0.47807 0.91877 0.05191 0.0
H442 H 0.59218 0.98608 0.99617 0.0
H443 H 0.40987 0.01792 0.0191 0.0
H444 H 0.52044 0.94441 0.0319 0.0
H445 H 0.48191 0.06143 0.98357 0.0
C446 C 0.53026 0.05883 0.97481 0.0
C447 C 0.56187 0.03843 0.97815 0.0
C448 C 0.49623 0.96077 0.02911 0.0
C449 C 0.51353 0.00997 1.00129 0.0
C450 C 0.47206 0.94638 0.0406 0.0
C451 C 0.44036 0.96622 0.03719 0.0
C452 C 0.48866 0.9952 0.01408 0.0
C453 C 0.43396 0.00164 0.02226 0.0
C454 C 0.50606 0.04469 0.98631 0.0
C455 C 0.56815 0.0028 0.99304 0.0
N456 N 0.45783 0.01482 0.01125 0.0
N457 N 0.54427 0.98989 1.00407 0.0
H458 H 0.48334 0.37782 0.2222 0.0
H459 H 0.519 0.12182 0.29314 0.0
H460 H 0.41009 0.26248 0.24117 0.0
H461 H 0.59242 0.23646 0.27401 0.0
H462 H 0.4786 0.17347 0.27439 0.0
H463 H 0.52379 0.3263 0.24098 0.0
C464 C 0.4758 0.3415 0.23026 0.0
C465 C 0.44332 0.32444 0.23015 0.0
C466 C 0.50354 0.18741 0.27431 0.0
C467 C 0.48937 0.26551 0.25173 0.0
C468 C 0.52658 0.15803 0.28505 0.0
C469 C 0.55909 0.17484 0.28511 0.0
C470 C 0.51309 0.23392 0.26354 0.0
C471 C 0.5676 0.22202 0.27436 0.0
C472 C 0.49887 0.31218 0.24101 0.0
C473 C 0.43488 0.27711 0.24085 0.0
N474 N 0.54476 0.24982 0.26399 0.0
N475 N 0.45773 0.2494 0.25123 0.0
H476 H 0.40915 0.76062 0.74119 0.0
H477 H 0.59494 0.73915 0.77433 0.0
H478 H 0.48317 0.87622 0.72322 0.0
H479 H 0.52083 0.62378 0.79233 0.0
H480 H 0.55435 0.79027 0.75568 0.0
H481 H 0.44978 0.70951 0.7598 0.0
C482 C 0.43401 0.7751 0.7411 0.0
C483 C 0.44281 0.82281 0.73066 0.0
C484 C 0.54691 0.75387 0.76373 0.0
C485 C 0.48946 0.76465 0.75203 0.0
C486 C 0.57007 0.72473 0.77442 0.0
C487 C 0.56123 0.67708 0.78488 0.0
C488 C 0.51463 0.73524 0.76347 0.0
C489 C 0.52868 0.66029 0.78446 0.0
C490 C 0.45719 0.74596 0.75177 0.0
C491 C 0.47535 0.83966 0.73107 0.0
N492 N 0.50657 0.68927 0.7739 0.0
N493 N 0.4975 0.81068 0.74162 0.0
H494 H 0.47721 0.41588 0.55268 0.0
H495 H 0.52301 0.58267 0.46404 0.0
H496 H 0.40914 0.51575 0.52 0.0
H497 H 0.59125 0.4833 0.49676 0.0
H498 H 0.48076 0.55759 0.48419 0.0
H499 H 0.51954 0.44107 0.53257 0.0
C500 C 0.47123 0.44355 0.54138 0.0
C501 C 0.43957 0.46372 0.53803 0.0
C502 C 0.50495 0.54106 0.48693 0.0
C503 C 0.4878 0.49217 0.51482 0.0
C504 C 0.52904 0.55513 0.47536 0.0
C505 C 0.56072 0.53506 0.4787 0.0
C506 C 0.51258 0.50672 0.50197 0.0
C507 C 0.56717 0.49975 0.49364 0.0
C508 C 0.49537 0.45768 0.52984 0.0
C509 C 0.43319 0.4992 0.52312 0.0
N510 N 0.54338 0.48689 0.50473 0.0
N511 N 0.45702 0.5121 0.51206 0.0
H512 H 0.15745 0.72027 0.34983 0.0
H513 H 0.09366 0.95125 0.42003 0.0
H514 H 0.05694 0.74405 0.36045 0.0
H515 H 0.19404 0.93185 0.40849 0.0
H516 H 0.08006 0.87285 0.39898 0.0
H517 H 0.17157 0.79612 0.37171 0.0
C518 C 0.13832 0.74143 0.3567 0.0
C519 C 0.10593 0.72556 0.35322 0.0
C520 C 0.10508 0.88563 0.4011 0.0
C521 C 0.12198 0.81237 0.3784 0.0
C522 C 0.11289 0.93035 0.41319 0.0
C523 C 0.14507 0.94854 0.41606 0.0
C524 C 0.12956 0.85871 0.39179 0.0
C525 C 0.16889 0.91961 0.40673 0.0
C526 C 0.14642 0.7847 0.36923 0.0
C527 C 0.08225 0.75463 0.36262 0.0
N528 N 0.16064 0.87637 0.395 0.0
N529 N 0.09075 0.79645 0.37474 0.0
H530 H 0.19687 0.24397 0.40552 0.0
H531 H 0.05615 0.43192 0.35667 0.0
H532 H 0.09591 0.22169 0.41529 0.0
H533 H 0.15708 0.45019 0.34624 0.0
H534 H 0.07001 0.35394 0.37774 0.0
H535 H 0.1825 0.31922 0.38374 0.0
C536 C 0.17163 0.2549 0.40315 0.0
C537 C 0.14757 0.22617 0.41233 0.0
C538 C 0.08911 0.37483 0.3708 0.0
C539 C 0.13093 0.31276 0.38719 0.0
C540 C 0.08124 0.41941 0.3587 0.0
C541 C 0.10548 0.44806 0.34962 0.0
C542 C 0.12151 0.35861 0.37395 0.0
C543 C 0.13753 0.42958 0.35288 0.0
C544 C 0.16346 0.29794 0.39063 0.0
C545 C 0.11531 0.24254 0.40859 0.0
N546 N 0.14459 0.38627 0.3648 0.0
N547 N 0.10795 0.28469 0.39631 0.0
H548 H 0.05522 0.24631 0.85938 0.0
H549 H 0.19648 0.43225 0.90847 0.0
H550 H 0.15622 0.22208 0.85002 0.0
H551 H 0.09549 0.45339 0.91837 0.0
H552 H 0.18238 0.35412 0.88751 0.0
H553 H 0.06973 0.32169 0.8811 0.0
C554 C 0.0805 0.25682 0.86184 0.0
C555 C 0.10453 0.22753 0.85278 0.0
C556 C 0.16331 0.37568 0.89431 0.0
C557 C 0.12131 0.31425 0.87785 0.0
C558 C 0.17133 0.42035 0.90635 0.0
C559 C 0.14714 0.44984 0.91524 0.0
C560 C 0.13083 0.36019 0.89104 0.0
C561 C 0.115 0.43211 0.91187 0.0
C562 C 0.08875 0.29994 0.87431 0.0
C563 C 0.13684 0.24337 0.85662 0.0
N564 N 0.1078 0.38867 0.90001 0.0
N565 N 0.14426 0.2856 0.86886 0.0
H566 H 0.1979 0.74594 0.90466 0.0
H567 H 0.05638 0.93296 0.85615 0.0
H568 H 0.09704 0.72276 0.91456 0.0
H569 H 0.15721 0.9526 0.84564 0.0
H570 H 0.0706 0.85491 0.87714 0.0
H571 H 0.18323 0.82129 0.88295 0.0
C572 C 0.17262 0.75668 0.90233 0.0
C573 C 0.14868 0.72769 0.91154 0.0
C574 C 0.0896 0.87613 0.87019 0.0
C575 C 0.1317 0.81436 0.88648 0.0
C576 C 0.08152 0.92074 0.85814 0.0
C577 C 0.10563 0.94979 0.84907 0.0
C578 C 0.12207 0.86026 0.87329 0.0
C579 C 0.13775 0.93168 0.85228 0.0
C580 C 0.16427 0.79978 0.88986 0.0
C581 C 0.11637 0.74381 0.90785 0.0
N582 N 0.14501 0.88832 0.86415 0.0
N583 N 0.10884 0.78601 0.89561 0.0
H584 H 0.94745 0.25435 0.65514 0.0
H585 H 0.8062 0.06844 0.60602 0.0
H586 H 0.84641 0.27832 0.66446 0.0
H587 H 0.9072 0.04685 0.59619 0.0
H588 H 0.82034 0.1466 0.62695 0.0
H589 H 0.93301 0.17895 0.63339 0.0
C590 C 0.92218 0.24378 0.65267 0.0
C591 C 0.89812 0.27299 0.66173 0.0
C592 C 0.83941 0.12494 0.62017 0.0
C593 C 0.88141 0.18629 0.63664 0.0
C594 C 0.83137 0.08024 0.60816 0.0
C595 C 0.85554 0.05061 0.5993 0.0
C596 C 0.8719 0.14033 0.62346 0.0
C597 C 0.8877 0.06824 0.60267 0.0
C598 C 0.91397 0.20066 0.64018 0.0
C599 C 0.86582 0.2571 0.65787 0.0
N600 N 0.89492 0.11172 0.61452 0.0
N601 N 0.85844 0.21488 0.64563 0.0
H602 H 0.94604 0.56755 0.65862 0.0
H603 H 0.80474 0.75414 0.60976 0.0
H604 H 0.8451 0.54767 0.66885 0.0
H605 H 0.90566 0.77772 0.60008 0.0
H606 H 0.81933 0.67885 0.63149 0.0
H607 H 0.93195 0.64557 0.6376 0.0
C608 C 0.9209 0.57971 0.65656 0.0
C609 C 0.89672 0.55061 0.66556 0.0
C610 C 0.83832 0.70042 0.62463 0.0
C611 C 0.88044 0.64009 0.64129 0.0
C612 C 0.83002 0.7435 0.61214 0.0
C613 C 0.854 0.7726 0.603 0.0
C614 C 0.87089 0.68595 0.62808 0.0
C615 C 0.88631 0.75657 0.60675 0.0
C616 C 0.9129 0.62431 0.64449 0.0
C617 C 0.86461 0.56864 0.66227 0.0
N618 N 0.89379 0.71439 0.619 0.0
N619 N 0.85743 0.61197 0.65037 0.0
H620 H 0.91062 0.5456 0.09558 0.0
H621 H 0.84562 0.77579 0.16566 0.0
H622 H 0.81004 0.5648 0.10673 0.0
H623 H 0.94632 0.75304 0.1553 0.0
H624 H 0.83191 0.69999 0.14371 0.0
H625 H 0.9239 0.62397 0.1167 0.0
C626 C 0.89127 0.56645 0.10235 0.0
C627 C 0.85914 0.54821 0.09934 0.0
C628 C 0.85701 0.71162 0.14626 0.0
C629 C 0.87427 0.63797 0.12371 0.0
C630 C 0.86487 0.75486 0.15884 0.0
C631 C 0.8972 0.77102 0.1624 0.0
C632 C 0.88162 0.68426 0.13714 0.0
C633 C 0.92105 0.74223 0.15306 0.0
C634 C 0.89891 0.61114 0.11448 0.0
C635 C 0.83517 0.57707 0.10859 0.0
N636 N 0.91278 0.70042 0.14089 0.0
N637 N 0.84324 0.62026 0.12036 0.0
H638 H 0.84471 0.0468 0.17026 0.0
H639 H 0.90888 0.27479 0.09933 0.0
H640 H 0.945 0.06364 0.15824 0.0
H641 H 0.80844 0.25357 0.11049 0.0
H642 H 0.92284 0.19902 0.12126 0.0
H643 H 0.83132 0.12499 0.14912 0.0
C644 C 0.86398 0.06709 0.16329 0.0
C645 C 0.89606 0.04825 0.16606 0.0
C646 C 0.89775 0.21097 0.11888 0.0
C647 C 0.88078 0.13785 0.14167 0.0
C648 C 0.88974 0.2542 0.10632 0.0
C649 C 0.85741 0.27079 0.10299 0.0
C650 C 0.87329 0.18406 0.12823 0.0
C651 C 0.8337 0.24242 0.11254 0.0
C652 C 0.85628 0.1117 0.15115 0.0
C653 C 0.91992 0.07643 0.15656 0.0
N654 N 0.84212 0.20063 0.12469 0.0
N655 N 0.91178 0.11957 0.14478 0.0
H656 H 0.65788 0.72274 0.84987 0.0
H657 H 0.59355 0.95458 0.91966 0.0
H658 H 0.55723 0.74641 0.86019 0.0
H659 H 0.69409 0.93362 0.90867 0.0
H660 H 0.57999 0.87612 0.8986 0.0
H661 H 0.67176 0.79861 0.87176 0.0
C662 C 0.63867 0.74388 0.85668 0.0
C663 C 0.60631 0.72797 0.85312 0.0
C664 C 0.60503 0.88859 0.90085 0.0
C665 C 0.6221 0.81486 0.87831 0.0
C666 C 0.61282 0.93333 0.91293 0.0
C667 C 0.64503 0.95109 0.91597 0.0
C668 C 0.62959 0.86124 0.89169 0.0
C669 C 0.66891 0.92173 0.90679 0.0
C670 C 0.64664 0.78718 0.86922 0.0
C671 C 0.58252 0.75704 0.86243 0.0
N672 N 0.66069 0.8785 0.89506 0.0
N673 N 0.59089 0.79892 0.87457 0.0
H674 H 0.69799 0.24622 0.90542 0.0
H675 H 0.55742 0.43381 0.85627 0.0
H676 H 0.59694 0.22443 0.91507 0.0
H677 H 0.65845 0.45315 0.8462 0.0
H678 H 0.57127 0.35589 0.87734 0.0
H679 H 0.68378 0.32151 0.8836 0.0
C680 C 0.67277 0.25726 0.90301 0.0
C681 C 0.64863 0.22867 0.91217 0.0
C682 C 0.5904 0.377 0.87048 0.0
C683 C 0.63218 0.31525 0.887 0.0
C684 C 0.58253 0.42155 0.85838 0.0
C685 C 0.60681 0.45048 0.8494 0.0
C686 C 0.62282 0.36108 0.87374 0.0
C687 C 0.63888 0.43231 0.85276 0.0
C688 C 0.66468 0.30033 0.89048 0.0
C689 C 0.6164 0.24517 0.90839 0.0
N690 N 0.64593 0.389 0.86469 0.0
N691 N 0.60914 0.2873 0.8961 0.0
H692 H 0.65688 0.22218 0.34968 0.0
H693 H 0.59249 0.45165 0.42014 0.0
H694 H 0.55633 0.24446 0.36045 0.0
H695 H 0.69293 0.43304 0.40862 0.0
H696 H 0.57907 0.37341 0.39901 0.0
H697 H 0.67077 0.29798 0.37161 0.0
C698 C 0.6377 0.24301 0.35659 0.0
C699 C 0.60536 0.22671 0.35315 0.0
C700 C 0.60407 0.38633 0.40115 0.0
C701 C 0.62116 0.31347 0.37838 0.0
C702 C 0.61178 0.43096 0.41328 0.0
C703 C 0.64391 0.44932 0.41619 0.0
C704 C 0.62862 0.3597 0.39181 0.0
C705 C 0.6678 0.42066 0.40684 0.0
C706 C 0.64567 0.28625 0.36915 0.0
C707 C 0.5816 0.25537 0.36259 0.0
N708 N 0.65966 0.37752 0.39506 0.0
N709 N 0.58998 0.29718 0.37474 0.0
H710 H 0.59425 0.72244 0.41616 0.0
H711 H 0.65827 0.95141 0.34546 0.0
H712 H 0.69472 0.74402 0.4051 0.0
H713 H 0.55796 0.93336 0.35732 0.0
H714 H 0.6718 0.87313 0.36657 0.0
H715 H 0.58029 0.79825 0.39426 0.0
C716 C 0.6134 0.74312 0.40919 0.0
C717 C 0.64574 0.72662 0.41254 0.0
C718 C 0.64681 0.88619 0.36451 0.0
C719 C 0.62985 0.81343 0.38734 0.0
C720 C 0.63903 0.93084 0.35239 0.0
C721 C 0.6069 0.94936 0.34958 0.0
C722 C 0.62233 0.85969 0.37393 0.0
C723 C 0.58308 0.92084 0.35902 0.0
C724 C 0.60539 0.78638 0.39664 0.0
C725 C 0.66945 0.7551 0.40302 0.0
N726 N 0.59129 0.87768 0.37078 0.0
N727 N 0.66104 0.79694 0.39089 0.0
H728 H 0.44732 0.25431 0.15546 0.0
H729 H 0.30663 0.06723 0.10628 0.0
H730 H 0.34626 0.27704 0.16496 0.0
H731 H 0.40767 0.04745 0.09629 0.0
H732 H 0.32051 0.14515 0.12735 0.0
H733 H 0.43305 0.17892 0.13371 0.0
C734 C 0.42208 0.24346 0.15303 0.0
C735 C 0.39796 0.27235 0.16213 0.0
C736 C 0.33964 0.12394 0.12051 0.0
C737 C 0.38145 0.18563 0.13702 0.0
C738 C 0.33175 0.07939 0.10841 0.0
C739 C 0.35602 0.05034 0.09946 0.0
C740 C 0.37206 0.13976 0.12378 0.0
C741 C 0.3881 0.06839 0.10283 0.0
C742 C 0.41396 0.20033 0.14053 0.0
C743 C 0.36571 0.25607 0.15832 0.0
N744 N 0.39517 0.1117 0.11476 0.0
N745 N 0.35841 0.21386 0.14606 0.0
H746 H 0.34355 0.5471 0.16977 0.0
H747 H 0.40698 0.77776 0.09939 0.0
H748 H 0.44386 0.56682 0.15812 0.0
H749 H 0.30653 0.75464 0.11025 0.0
H750 H 0.42114 0.70191 0.12124 0.0
H751 H 0.32978 0.62538 0.1487 0.0
C752 C 0.36273 0.56804 0.1629 0.0
C753 C 0.39493 0.54999 0.16576 0.0
C754 C 0.396 0.71346 0.11883 0.0
C755 C 0.37924 0.63966 0.14145 0.0
C756 C 0.38787 0.75673 0.10631 0.0
C757 C 0.35549 0.77281 0.10291 0.0
C758 C 0.37159 0.68596 0.12806 0.0
C759 C 0.33183 0.74389 0.11236 0.0
C760 C 0.35482 0.61269 0.1508 0.0
C761 C 0.41868 0.57896 0.15638 0.0
N762 N 0.34036 0.70204 0.12448 0.0
N763 N 0.41035 0.62212 0.14464 0.0
H764 H 0.44719 0.75285 0.65598 0.0
H765 H 0.30596 0.5669 0.60686 0.0
H766 H 0.34619 0.77705 0.66534 0.0
H767 H 0.40697 0.54582 0.59698 0.0
H768 H 0.32004 0.64498 0.62784 0.0
H769 H 0.4327 0.67744 0.63427 0.0
C770 C 0.42192 0.74233 0.65353 0.0
C771 C 0.39788 0.77163 0.66258 0.0
C772 C 0.33912 0.62344 0.62104 0.0
C773 C 0.38111 0.68487 0.63752 0.0
C774 C 0.33112 0.5788 0.60899 0.0
C775 C 0.35531 0.54935 0.6001 0.0
C776 C 0.3716 0.63893 0.62432 0.0
C777 C 0.38745 0.56707 0.60348 0.0
C778 C 0.41367 0.69918 0.64105 0.0
C779 C 0.36558 0.75576 0.65874 0.0
N780 N 0.39463 0.61048 0.61536 0.0
N781 N 0.35815 0.71351 0.64651 0.0
H782 H 0.30435 0.25323 0.61055 0.0
H783 H 0.44582 0.06661 0.65924 0.0
H784 H 0.40526 0.27658 0.6008 0.0
H785 H 0.34495 0.04633 0.66956 0.0
H786 H 0.4316 0.14464 0.63826 0.0
H787 H 0.31896 0.17785 0.63227 0.0
C788 C 0.32962 0.24252 0.61291 0.0
C789 C 0.3536 0.27156 0.60375 0.0
C790 C 0.41258 0.12329 0.64516 0.0
C791 C 0.3705 0.18488 0.62881 0.0
C792 C 0.42067 0.07868 0.6572 0.0
C793 C 0.39655 0.04947 0.66622 0.0
C794 C 0.3801 0.13899 0.642 0.0
C795 C 0.36441 0.0674 0.66296 0.0
C796 C 0.33793 0.19941 0.62539 0.0
C797 C 0.38591 0.25548 0.60748 0.0
N798 N 0.35715 0.11076 0.65109 0.0
N799 N 0.39339 0.21329 0.61972 0.0
loop_
_geom_bond_atom_site_label_1
_geom_bond_atom_site_label_2
_geom_bond_distance
_geom_bond_site_symmetry_2
_ccdc_geom_bond_type
Co0 O1 2.216 . S
Co0 O2 2.091 . S
Co0 O4 2.004 . S
Co0 O10 2.021 . S
Co0 O12 2.137 . S
Co0 O13 2.244 . S
O1 Co0 2.216 . S
O1 C8 1.247 . S
O2 Co0 2.091 . S
O2 C8 1.261 . S
C3 O12 1.247 . S
C3 O13 1.272 . S
O4 Co0 2.004 . S
O4 C9 1.259 . S
Co5 O6 2.061 . S
Co5 O11 2.052 . S
Co5 O13 2.135 . S
O6 Co5 2.061 . S
O6 C9 1.235 . S
C7 O10 1.238 . S
C7 O11 1.241 . S
C8 O1 1.247 . S
C8 O2 1.261 . S
C9 O4 1.259 . S
C9 O6 1.235 . S
O10 Co0 2.021 . S
O10 C7 1.238 . S
O11 Co5 2.052 . S
O11 C7 1.241 . S
O12 Co0 2.137 . S
O12 C3 1.247 . S
O13 Co0 2.244 . S
O13 C3 1.272 . S
O13 Co5 2.135 . S
Co14 O15 2.216 . S
Co14 O16 2.091 . S
Co14 O18 2.004 . S
Co14 O24 2.021 . S
Co14 O26 2.137 . S
Co14 O27 2.244 . S
O15 Co14 2.216 . S
O15 C22 1.247 . S
O16 Co14 2.091 . S
O16 C22 1.261 . S
C17 O26 1.247 . S
C17 O27 1.272 . S
O18 Co14 2.004 . S
O18 C23 1.259 . S
Co19 O20 2.061 . S
Co19 O25 2.052 . S
Co19 O27 2.135 . S
O20 Co19 2.061 . S
O20 C23 1.235 . S
C21 O24 1.238 . S
C21 O25 1.241 . S
C22 O15 1.247 . S
C22 O16 1.261 . S
C23 O18 1.259 . S
C23 O20 1.235 . S
O24 Co14 2.021 . S
O24 C21 1.238 . S
O25 Co19 2.052 . S
O25 C21 1.241 . S
O26 Co14 2.137 . S
O26 C17 1.247 . S
O27 Co14 2.244 . S
O27 C17 1.272 . S
O27 Co19 2.135 . S
Co28 O29 2.216 . S
Co28 O30 2.091 . S
Co28 O32 2.004 . S
Co28 O38 2.021 . S
Co28 O40 2.137 . S
Co28 O41 2.244 . S
O29 Co28 2.216 . S
O29 C36 1.247 . S
O30 Co28 2.091 . S
O30 C36 1.261 . S
C31 O40 1.247 . S
C31 O41 1.272 . S
O32 Co28 2.004 . S
O32 C37 1.259 . S
Co33 O34 2.061 . S
Co33 O39 2.052 . S
Co33 O41 2.135 . S
O34 Co33 2.061 . S
O34 C37 1.235 . S
C35 O38 1.238 . S
C35 O39 1.241 . S
C36 O29 1.247 . S
C36 O30 1.261 . S
C37 O32 1.259 . S
C37 O34 1.235 . S
O38 Co28 2.021 . S
O38 C35 1.238 . S
O39 Co33 2.052 . S
O39 C35 1.241 . S
O40 Co28 2.137 . S
O40 C31 1.247 . S
O41 Co28 2.244 . S
O41 C31 1.272 . S
O41 Co33 2.135 . S
Co42 O43 2.216 . S
Co42 O44 2.091 . S
Co42 O46 2.004 . S
Co42 O52 2.021 . S
Co42 O54 2.137 . S
Co42 O55 2.244 . S
O43 Co42 2.216 . S
O43 C50 1.247 . S
O44 Co42 2.091 . S
O44 C50 1.261 . S
C45 O54 1.247 . S
C45 O55 1.272 . S
O46 Co42 2.004 . S
O46 C51 1.259 . S
Co47 O48 2.061 . S
Co47 O53 2.052 . S
Co47 O55 2.135 . S
O48 Co47 2.061 . S
O48 C51 1.235 . S
C49 O52 1.238 . S
C49 O53 1.241 . S
C50 O43 1.247 . S
C50 O44 1.261 . S
C51 O46 1.259 . S
C51 O48 1.235 . S
O52 Co42 2.021 . S
O52 C49 1.238 . S
O53 Co47 2.052 . S
O53 C49 1.241 . S
O54 Co42 2.137 . S
O54 C45 1.247 . S
O55 Co42 2.244 . S
O55 C45 1.272 . S
O55 Co47 2.135 . S
Co56 O57 2.216 . S
Co56 O58 2.091 . S
Co56 O60 2.004 . S
Co56 O66 2.021 . S
Co56 O68 2.137 . S
Co56 O69 2.244 . S
O57 Co56 2.216 . S
O57 C64 1.247 . S
O58 Co56 2.091 . S
O58 C64 1.261 . S
C59 O68 1.247 . S
C59 O69 1.272 . S
O60 Co56 2.004 . S
O60 C65 1.259 . S
Co61 O62 2.061 . S
Co61 O67 2.052 . S
Co61 O69 2.135 . S
O62 Co61 2.061 . S
O62 C65 1.235 . S
C63 O66 1.238 . S
C63 O67 1.241 . S
C64 O57 1.247 . S
C64 O58 1.261 . S
C65 O60 1.259 . S
C65 O62 1.235 . S
O66 Co56 2.021 . S
O66 C63 1.238 . S
O67 Co61 2.052 . S
O67 C63 1.241 . S
O68 Co56 2.137 . S
O68 C59 1.247 . S
O69 Co56 2.244 . S
O69 C59 1.272 . S
O69 Co61 2.135 . S
Co70 O71 2.216 . S
Co70 O72 2.091 . S
Co70 O74 2.004 . S
Co70 O80 2.021 . S
Co70 O82 2.137 . S
Co70 O83 2.244 . S
O71 Co70 2.216 . S
O71 C78 1.247 . S
O72 Co70 2.091 . S
O72 C78 1.261 . S
C73 O82 1.247 . S
C73 O83 1.272 . S
O74 Co70 2.004 . S
O74 C79 1.259 . S
Co75 O76 2.061 . S
Co75 O81 2.052 . S
Co75 O83 2.135 . S
O76 Co75 2.061 . S
O76 C79 1.235 . S
C77 O80 1.238 . S
C77 O81 1.241 . S
C78 O71 1.247 . S
C78 O72 1.261 . S
C79 O74 1.259 . S
C79 O76 1.235 . S
O80 Co70 2.021 . S
O80 C77 1.238 . S
O81 Co75 2.052 . S
O81 C77 1.241 . S
O82 Co70 2.137 . S
O82 C73 1.247 . S
O83 Co70 2.244 . S
O83 C73 1.272 . S
O83 Co75 2.135 . S
Co84 O85 2.216 . S
Co84 O86 2.091 . S
Co84 O88 2.004 . S
Co84 O94 2.021 . S
Co84 O96 2.137 . S
Co84 O97 2.244 . S
O85 Co84 2.216 . S
O85 C92 1.247 . S
O86 Co84 2.091 . S
O86 C92 1.261 . S
C87 O96 1.247 . S
C87 O97 1.272 . S
O88 Co84 2.004 . S
O88 C93 1.259 . S
Co89 O90 2.061 . S
Co89 O95 2.052 . S
Co89 O97 2.135 . S
O90 Co89 2.061 . S
O90 C93 1.235 . S
C91 O94 1.238 . S
C91 O95 1.241 . S
C92 O85 1.247 . S
C92 O86 1.261 . S
C93 O88 1.259 . S
C93 O90 1.235 . S
O94 Co84 2.021 . S
O94 C91 1.238 . S
O95 Co89 2.052 . S
O95 C91 1.241 . S
O96 Co84 2.137 . S
O96 C87 1.247 . S
O97 Co84 2.244 . S
O97 C87 1.272 . S
O97 Co89 2.135 . S
Co98 O99 2.216 . S
Co98 O100 2.091 . S
Co98 O102 2.004 . S
Co98 O108 2.021 . S
Co98 O110 2.137 . S
Co98 O111 2.244 . S
O99 Co98 2.216 . S
O99 C106 1.247 . S
O100 Co98 2.091 . S
O100 C106 1.261 . S
C101 O110 1.247 . S
C101 O111 1.272 . S
O102 Co98 2.004 . S
O102 C107 1.259 . S
Co103 O104 2.061 . S
Co103 O109 2.052 . S
Co103 O111 2.135 . S
O104 Co103 2.061 . S
O104 C107 1.235 . S
C105 O108 1.238 . S
C105 O109 1.241 . S
C106 O99 1.247 . S
C106 O100 1.261 . S
C107 O102 1.259 . S
C107 O104 1.235 . S
O108 Co98 2.021 . S
O108 C105 1.238 . S
O109 Co103 2.052 . S
O109 C105 1.241 . S
O110 Co98 2.137 . S
O110 C101 1.247 . S
O111 Co98 2.244 . S
O111 C101 1.272 . S
O111 Co103 2.135 . S
Co112 O113 2.216 . S
Co112 O114 2.091 . S
Co112 O116 2.004 . S
Co112 O122 2.021 . S
Co112 O124 2.137 . S
Co112 O125 2.244 . S
O113 Co112 2.216 . S
O113 C120 1.247 . S
O114 Co112 2.091 . S
O114 C120 1.261 . S
C115 O124 1.247 . S
C115 O125 1.272 . S
O116 Co112 2.004 . S
O116 C121 1.259 . S
Co117 O118 2.061 . S
Co117 O123 2.052 . S
Co117 O125 2.135 . S
O118 Co117 2.061 . S
O118 C121 1.235 . S
C119 O122 1.238 . S
C119 O123 1.241 . S
C120 O113 1.247 . S
C120 O114 1.261 . S
C121 O116 1.259 . S
C121 O118 1.235 . S
O122 Co112 2.021 . S
O122 C119 1.238 . S
O123 Co117 2.052 . S
O123 C119 1.241 . S
O124 Co112 2.137 . S
O124 C115 1.247 . S
O125 Co112 2.244 . S
O125 C115 1.272 . S
O125 Co117 2.135 . S
Co126 O127 2.216 . S
Co126 O128 2.091 . S
Co126 O130 2.004 . S
Co126 O136 2.021 . S
Co126 O138 2.137 . S
Co126 O139 2.244 . S
O127 Co126 2.216 . S
O127 C134 1.247 . S
O128 Co126 2.091 . S
O128 C134 1.261 . S
C129 O138 1.247 . S
C129 O139 1.272 . S
O130 Co126 2.004 . S
O130 C135 1.259 . S
Co131 O132 2.061 . S
Co131 O137 2.052 . S
Co131 O139 2.135 . S
O132 Co131 2.061 . S
O132 C135 1.235 . S
C133 O136 1.238 . S
C133 O137 1.241 . S
C134 O127 1.247 . S
C134 O128 1.261 . S
C135 O130 1.259 . S
C135 O132 1.235 . S
O136 Co126 2.021 . S
O136 C133 1.238 . S
O137 Co131 2.052 . S
O137 C133 1.241 . S
O138 Co126 2.137 . S
O138 C129 1.247 . S
O139 Co126 2.244 . S
O139 C129 1.272 . S
O139 Co131 2.135 . S
Co140 O141 2.216 . S
Co140 O142 2.091 . S
Co140 O144 2.004 . S
Co140 O150 2.021 . S
Co140 O152 2.137 . S
Co140 O153 2.244 . S
O141 Co140 2.216 . S
O141 C148 1.247 . S
O142 Co140 2.091 . S
O142 C148 1.261 . S
C143 O152 1.247 . S
C143 O153 1.272 . S
O144 Co140 2.004 . S
O144 C149 1.259 . S
Co145 O146 2.061 . S
Co145 O151 2.052 . S
Co145 O153 2.135 . S
O146 Co145 2.061 . S
O146 C149 1.235 . S
C147 O150 1.238 . S
C147 O151 1.241 . S
C148 O141 1.247 . S
C148 O142 1.261 . S
C149 O144 1.259 . S
C149 O146 1.235 . S
O150 Co140 2.021 . S
O150 C147 1.238 . S
O151 Co145 2.052 . S
O151 C147 1.241 . S
O152 Co140 2.137 . S
O152 C143 1.247 . S
O153 Co140 2.244 . S
O153 C143 1.272 . S
O153 Co145 2.135 . S
Co154 O155 2.216 . S
Co154 O156 2.091 . S
Co154 O158 2.004 . S
Co154 O164 2.021 . S
Co154 O166 2.137 . S
Co154 O167 2.244 . S
O155 Co154 2.216 . S
O155 C162 1.247 . S
O156 Co154 2.091 . S
O156 C162 1.261 . S
C157 O166 1.247 . S
C157 O167 1.272 . S
O158 Co154 2.004 . S
O158 C163 1.259 . S
Co159 O160 2.061 . S
Co159 O165 2.052 . S
Co159 O167 2.135 . S
O160 Co159 2.061 . S
O160 C163 1.235 . S
C161 O164 1.238 . S
C161 O165 1.241 . S
C162 O155 1.247 . S
C162 O156 1.261 . S
C163 O158 1.259 . S
C163 O160 1.235 . S
O164 Co154 2.021 . S
O164 C161 1.238 . S
O165 Co159 2.052 . S
O165 C161 1.241 . S
O166 Co154 2.137 . S
O166 C157 1.247 . S
O167 Co154 2.244 . S
O167 C157 1.272 . S
O167 Co159 2.135 . S
Co168 O169 2.216 . S
Co168 O170 2.091 . S
Co168 O172 2.004 . S
Co168 O178 2.021 . S
Co168 O180 2.137 . S
Co168 O181 2.244 . S
O169 Co168 2.216 . S
O169 C176 1.247 . S
O170 Co168 2.091 . S
O170 C176 1.261 . S
C171 O180 1.247 . S
C171 O181 1.272 . S
O172 Co168 2.004 . S
O172 C177 1.259 . S
Co173 O174 2.061 . S
Co173 O179 2.052 . S
Co173 O181 2.135 . S
O174 Co173 2.061 . S
O174 C177 1.235 . S
C175 O178 1.238 . S
C175 O179 1.241 . S
C176 O169 1.247 . S
C176 O170 1.261 . S
C177 O172 1.259 . S
C177 O174 1.235 . S
O178 Co168 2.021 . S
O178 C175 1.238 . S
O179 Co173 2.052 . S
O179 C175 1.241 . S
O180 Co168 2.137 . S
O180 C171 1.247 . S
O181 Co168 2.244 . S
O181 C171 1.272 . S
O181 Co173 2.135 . S
Co182 O183 2.216 . S
Co182 O184 2.091 . S
Co182 O186 2.004 . S
Co182 O192 2.021 . S
Co182 O194 2.137 . S
Co182 O195 2.244 . S
O183 Co182 2.216 . S
O183 C190 1.247 . S
O184 Co182 2.091 . S
O184 C190 1.261 . S
C185 O194 1.247 . S
C185 O195 1.272 . S
O186 Co182 2.004 . S
O186 C191 1.259 . S
Co187 O188 2.061 . S
Co187 O193 2.052 . S
Co187 O195 2.135 . S
O188 Co187 2.061 . S
O188 C191 1.235 . S
C189 O192 1.238 . S
C189 O193 1.241 . S
C190 O183 1.247 . S
C190 O184 1.261 . S
C191 O186 1.259 . S
C191 O188 1.235 . S
O192 Co182 2.021 . S
O192 C189 1.238 . S
O193 Co187 2.052 . S
O193 C189 1.241 . S
O194 Co182 2.137 . S
O194 C185 1.247 . S
O195 Co182 2.244 . S
O195 C185 1.272 . S
O195 Co187 2.135 . S
Co196 O197 2.216 . S
Co196 O198 2.091 . S
Co196 O200 2.004 . S
Co196 O206 2.021 . S
Co196 O208 2.137 . S
Co196 O209 2.244 . S
O197 Co196 2.216 . S
O197 C204 1.247 . S
O198 Co196 2.091 . S
O198 C204 1.261 . S
C199 O208 1.247 . S
C199 O209 1.272 . S
O200 Co196 2.004 . S
O200 C205 1.259 . S
Co201 O202 2.061 . S
Co201 O207 2.052 . S
Co201 O209 2.135 . S
O202 Co201 2.061 . S
O202 C205 1.235 . S
C203 O206 1.238 . S
C203 O207 1.241 . S
C204 O197 1.247 . S
C204 O198 1.261 . S
C205 O200 1.259 . S
C205 O202 1.235 . S
O206 Co196 2.021 . S
O206 C203 1.238 . S
O207 Co201 2.052 . S
O207 C203 1.241 . S
O208 Co196 2.137 . S
O208 C199 1.247 . S
O209 Co196 2.244 . S
O209 C199 1.272 . S
O209 Co201 2.135 . S
Co210 O211 2.216 . S
Co210 O212 2.091 . S
Co210 O214 2.004 . S
Co210 O220 2.021 . S
Co210 O222 2.137 . S
Co210 O223 2.244 . S
O211 Co210 2.216 . S
O211 C218 1.247 . S
O212 Co210 2.091 . S
O212 C218 1.261 . S
C213 O222 1.247 . S
C213 O223 1.272 . S
O214 Co210 2.004 . S
O214 C219 1.259 . S
Co215 O216 2.061 . S
Co215 O221 2.052 . S
Co215 O223 2.135 . S
O216 Co215 2.061 . S
O216 C219 1.235 . S
C217 O220 1.238 . S
C217 O221 1.241 . S
C218 O211 1.247 . S
C218 O212 1.261 . S
C219 O214 1.259 . S
C219 O216 1.235 . S
O220 Co210 2.021 . S
O220 C217 1.238 . S
O221 Co215 2.052 . S
O221 C217 1.241 . S
O222 Co210 2.137 . S
O222 C213 1.247 . S
O223 Co210 2.244 . S
O223 C213 1.272 . S
O223 Co215 2.135 . S
H224 C230 0.930 . S
H225 C234 0.930 . S
H226 C239 0.929 . S
H227 C237 0.929 . S
H228 C232 0.929 . S
H229 C238 0.929 . S
C230 H224 0.930 . S
C230 C231 1.367 . S
C230 C238 1.378 . S
C231 C230 1.367 . S
C231 C239 1.433 . S
C232 H228 0.929 . S
C232 C234 1.378 . S
C232 C236 1.350 . S
C233 C236 1.463 . S
C233 C238 1.350 . S
C233 N241 1.427 . S
C234 H225 0.930 . S
C234 C232 1.378 . S
C234 C235 1.367 . S
C235 C234 1.367 . S
C235 C237 1.433 . S
C236 C232 1.350 . S
C236 C233 1.463 . S
C236 N240 1.427 . S
C237 H227 0.929 . S
C237 C235 1.433 . S
C237 N240 1.384 . S
C238 H229 0.929 . S
C238 C230 1.378 . S
C238 C233 1.350 . S
C239 H226 0.929 . S
C239 C231 1.433 . S
C239 N241 1.384 . S
N240 C236 1.427 . S
N240 C237 1.384 . S
N241 C233 1.427 . S
N241 C239 1.384 . S
H242 C248 0.929 . S
H243 C252 0.929 . S
H244 C257 0.929 . S
H245 C255 0.929 . S
H246 C250 0.929 . S
H247 C256 0.929 . S
C248 H242 0.929 . S
C248 C249 1.369 1_545 S
C248 C256 1.377 . S
C249 C248 1.369 1_565 S
C249 C257 1.433 . S
C250 H246 0.929 . S
C250 C252 1.377 . S
C250 C254 1.350 1_565 S
C251 C254 1.463 1_665 S
C251 C256 1.350 1_565 S
C251 N259 1.427 . S
C252 H243 0.929 . S
C252 C250 1.377 . S
C252 C253 1.369 1_565 S
C253 C252 1.369 1_545 S
C253 C255 1.433 . S
C254 C250 1.350 1_545 S
C254 C251 1.463 1_445 S
C254 N258 1.427 . S
C255 H245 0.929 . S
C255 C253 1.433 . S
C255 N258 1.384 . S
C256 H247 0.929 . S
C256 C248 1.377 . S
C256 C251 1.350 1_545 S
C257 H244 0.929 . S
C257 C249 1.433 . S
C257 N259 1.384 . S
N258 C254 1.427 . S
N258 C255 1.384 . S
N259 C251 1.427 . S
N259 C257 1.384 . S
H260 C266 0.930 1_545 S
H261 C270 0.929 1_565 S
H262 C275 0.929 . S
H263 C273 0.929 . S
H264 C268 0.929 . S
H265 C274 0.929 . S
C266 H260 0.930 1_565 S
C266 C267 1.368 . S
C266 C274 1.377 1_565 S
C267 C266 1.368 . S
C267 C275 1.433 . S
C268 H264 0.929 . S
C268 C270 1.377 1_565 S
C268 C272 1.350 1_565 S
C269 C272 1.463 1_565 S
C269 C274 1.350 1_565 S
C269 N277 1.427 . S
C270 H261 0.929 1_545 S
C270 C268 1.377 1_545 S
C270 C271 1.369 . S
C271 C270 1.369 . S
C271 C273 1.433 . S
C272 C268 1.350 1_545 S
C272 C269 1.463 1_545 S
C272 N276 1.427 . S
C273 H263 0.929 . S
C273 C271 1.433 . S
C273 N276 1.384 . S
C274 H265 0.929 . S
C274 C266 1.377 1_545 S
C274 C269 1.350 1_545 S
C275 H262 0.929 . S
C275 C267 1.433 . S
C275 N277 1.384 . S
N276 C272 1.427 . S
N276 C273 1.384 . S
N277 C269 1.427 . S
N277 C275 1.384 . S
H278 C284 0.930 . S
H279 C288 0.930 . S
H280 C293 0.929 . S
H281 C291 0.929 . S
H282 C286 0.929 . S
H283 C292 0.929 . S
C284 H278 0.930 . S
C284 C285 1.367 . S
C284 C292 1.378 . S
C285 C284 1.367 . S
C285 C293 1.433 . S
C286 H282 0.929 . S
C286 C288 1.378 . S
C286 C290 1.350 . S
C287 C290 1.463 1_455 S
C287 C292 1.350 . S
C287 N295 1.427 . S
C288 H279 0.930 . S
C288 C286 1.378 . S
C288 C289 1.367 . S
C289 C288 1.367 . S
C289 C291 1.433 . S
C290 C286 1.350 . S
C290 C287 1.463 1_655 S
C290 N294 1.427 . S
C291 H281 0.929 . S
C291 C289 1.433 . S
C291 N294 1.384 . S
C292 H283 0.929 . S
C292 C284 1.378 . S
C292 C287 1.350 . S
C293 H280 0.929 . S
C293 C285 1.433 . S
C293 N295 1.384 . S
N294 C290 1.427 . S
N294 C291 1.384 . S
N295 C287 1.427 . S
N295 C293 1.384 . S
H296 C302 0.930 . S
H297 C306 0.930 . S
H298 C311 0.929 . S
H299 C309 0.929 . S
H300 C304 0.929 . S
H301 C310 0.929 . S
C302 H296 0.930 . S
C302 C303 1.367 . S
C302 C310 1.378 . S
C303 C302 1.367 . S
C303 C311 1.433 . S
C304 H300 0.929 . S
C304 C306 1.378 . S
C304 C308 1.350 . S
C305 C308 1.463 . S
C305 C310 1.350 . S
C305 N313 1.427 . S
C306 H297 0.930 . S
C306 C304 1.378 . S
C306 C307 1.367 . S
C307 C306 1.367 . S
C307 C309 1.433 . S
C308 C304 1.350 . S
C308 C305 1.463 . S
C308 N312 1.427 . S
C309 H299 0.929 . S
C309 C307 1.433 . S
C309 N312 1.384 . S
C310 H301 0.929 . S
C310 C302 1.378 . S
C310 C305 1.350 . S
C311 H298 0.929 . S
C311 C303 1.433 . S
C311 N313 1.384 . S
N312 C308 1.427 . S
N312 C309 1.384 . S
N313 C305 1.427 . S
N313 C311 1.384 . S
H314 C320 0.930 . S
H315 C324 0.930 . S
H316 C329 0.929 . S
H317 C327 0.929 . S
H318 C322 0.929 . S
H319 C328 0.929 . S
C320 H314 0.930 . S
C320 C321 1.367 . S
C320 C328 1.378 . S
C321 C320 1.367 . S
C321 C329 1.433 . S
C322 H318 0.929 . S
C322 C324 1.378 . S
C322 C326 1.350 . S
C323 C326 1.463 1_545 S
C323 C328 1.350 . S
C323 N331 1.425 1_545 S
C324 H315 0.930 . S
C324 C322 1.378 . S
C324 C325 1.367 . S
C325 C324 1.367 . S
C325 C327 1.433 . S
C326 C322 1.350 . S
C326 C323 1.463 1_565 S
C326 N330 1.425 1_565 S
C327 H317 0.929 . S
C327 C325 1.433 . S
C327 N330 1.379 1_565 S
C328 H319 0.929 . S
C328 C320 1.378 . S
C328 C323 1.350 . S
C329 H316 0.929 . S
C329 C321 1.433 . S
C329 N331 1.379 1_545 S
N330 C326 1.425 1_545 S
N330 C327 1.379 1_545 S
N331 C323 1.425 1_565 S
N331 C329 1.379 1_565 S
H332 C338 0.930 . S
H333 C342 0.930 . S
H334 C347 0.929 . S
H335 C345 0.929 . S
H336 C340 0.929 . S
H337 C346 0.929 . S
C338 H332 0.930 . S
C338 C339 1.367 . S
C338 C346 1.378 . S
C339 C338 1.367 . S
C339 C347 1.433 . S
C340 H336 0.929 . S
C340 C342 1.378 . S
C340 C344 1.350 . S
C341 C344 1.463 1_655 S
C341 C346 1.350 . S
C341 N349 1.427 . S
C342 H333 0.930 . S
C342 C340 1.378 . S
C342 C343 1.367 . S
C343 C342 1.367 . S
C343 C345 1.433 . S
C344 C340 1.350 . S
C344 C341 1.463 1_455 S
C344 N348 1.427 . S
C345 H335 0.929 . S
C345 C343 1.433 . S
C345 N348 1.384 . S
C346 H337 0.929 . S
C346 C338 1.378 . S
C346 C341 1.350 . S
C347 H334 0.929 . S
C347 C339 1.433 . S
C347 N349 1.384 . S
N348 C344 1.427 . S
N348 C345 1.384 . S
N349 C341 1.427 . S
N349 C347 1.384 . S
H350 C356 0.930 . S
H351 C360 0.930 . S
H352 C365 0.929 . S
H353 C363 0.929 . S
H354 C358 0.929 . S
H355 C364 0.929 . S
C356 H350 0.930 . S
C356 C357 1.367 . S
C356 C364 1.378 . S
C357 C356 1.367 . S
C357 C365 1.433 . S
C358 H354 0.929 . S
C358 C360 1.378 . S
C358 C362 1.350 . S
C359 C362 1.463 1_554 S
C359 C364 1.350 . S
C359 N367 1.443 . S
C360 H351 0.930 . S
C360 C358 1.378 . S
C360 C361 1.367 . S
C361 C360 1.367 . S
C361 C363 1.433 . S
C362 C358 1.350 . S
C362 C359 1.463 1_556 S
C362 N366 1.442 . S
C363 H353 0.929 . S
C363 C361 1.433 . S
C363 N366 1.410 . S
C364 H355 0.929 . S
C364 C356 1.378 . S
C364 C359 1.350 . S
C365 H352 0.929 . S
C365 C357 1.433 . S
C365 N367 1.410 . S
N366 C362 1.442 . S
N366 C363 1.410 . S
N367 C359 1.443 . S
N367 C365 1.410 . S
H368 C374 0.930 . S
H369 C378 0.930 . S
H370 C383 0.929 . S
H371 C381 0.929 . S
H372 C376 0.929 1_455 S
H373 C382 0.929 1_655 S
C374 H368 0.930 . S
C374 C375 1.367 . S
C374 C382 1.378 . S
C375 C374 1.367 . S
C375 C383 1.433 . S
C376 H372 0.929 1_655 S
C376 C378 1.378 . S
C376 C380 1.350 . S
C377 C380 1.463 1_456 S
C377 C382 1.350 . S
C377 N385 1.427 . S
C378 H369 0.930 . S
C378 C376 1.378 . S
C378 C379 1.367 . S
C379 C378 1.367 . S
C379 C381 1.433 . S
C380 C376 1.350 . S
C380 C377 1.463 1_654 S
C380 N384 1.427 . S
C381 H371 0.929 . S
C381 C379 1.433 . S
C381 N384 1.384 . S
C382 H373 0.929 1_455 S
C382 C374 1.378 . S
C382 C377 1.350 . S
C383 H370 0.929 . S
C383 C375 1.433 . S
C383 N385 1.384 . S
N384 C380 1.427 . S
N384 C381 1.384 . S
N385 C377 1.427 . S
N385 C383 1.384 . S
H386 C392 0.930 . S
H387 C396 0.930 . S
H388 C401 0.929 . S
H389 C399 0.929 . S
H390 C394 0.929 . S
H391 C400 0.929 . S
C392 H386 0.930 . S
C392 C393 1.367 . S
C392 C400 1.378 . S
C393 C392 1.367 . S
C393 C401 1.433 . S
C394 H390 0.929 . S
C394 C396 1.378 . S
C394 C398 1.350 . S
C395 C398 1.463 . S
C395 C400 1.350 . S
C395 N403 1.427 . S
C396 H387 0.930 . S
C396 C394 1.378 . S
C396 C397 1.367 . S
C397 C396 1.367 . S
C397 C399 1.433 . S
C398 C394 1.350 . S
C398 C395 1.463 . S
C398 N402 1.427 . S
C399 H389 0.929 . S
C399 C397 1.433 . S
C399 N402 1.384 . S
C400 H391 0.929 . S
C400 C392 1.378 . S
C400 C395 1.350 . S
C401 H388 0.929 . S
C401 C393 1.433 . S
C401 N403 1.384 . S
N402 C398 1.427 . S
N402 C399 1.384 . S
N403 C395 1.427 . S
N403 C401 1.384 . S
H404 C410 0.930 . S
H405 C414 0.930 . S
H406 C419 0.929 . S
H407 C417 0.929 . S
H408 C412 0.929 . S
H409 C418 0.929 . S
C410 H404 0.930 . S
C410 C411 1.367 . S
C410 C418 1.378 . S
C411 C410 1.367 . S
C411 C419 1.433 . S
C412 H408 0.929 . S
C412 C414 1.378 . S
C412 C416 1.350 . S
C413 C416 1.463 1_556 S
C413 C418 1.350 . S
C413 N421 1.427 . S
C414 H405 0.930 . S
C414 C412 1.378 . S
C414 C415 1.367 . S
C415 C414 1.367 . S
C415 C417 1.433 . S
C416 C412 1.350 . S
C416 C413 1.463 1_554 S
C416 N420 1.427 . S
C417 H407 0.929 . S
C417 C415 1.433 . S
C417 N420 1.384 . S
C418 H409 0.929 . S
C418 C410 1.378 . S
C418 C413 1.350 . S
C419 H406 0.929 . S
C419 C411 1.433 . S
C419 N421 1.384 . S
N420 C416 1.427 . S
N420 C417 1.384 . S
N421 C413 1.427 . S
N421 C419 1.384 . S
H422 C428 0.930 . S
H423 C432 0.930 . S
H424 C437 0.929 . S
H425 C435 0.929 . S
H426 C430 0.929 . S
H427 C436 0.929 . S
C428 H422 0.930 . S
C428 C429 1.367 . S
C428 C436 1.378 . S
C429 C428 1.367 . S
C429 C437 1.433 . S
C430 H426 0.929 . S
C430 C432 1.378 . S
C430 C434 1.350 . S
C431 C434 1.463 . S
C431 C436 1.350 . S
C431 N439 1.427 . S
C432 H423 0.930 . S
C432 C430 1.378 . S
C432 C433 1.367 . S
C433 C432 1.367 . S
C433 C435 1.433 . S
C434 C430 1.350 . S
C434 C431 1.463 . S
C434 N438 1.427 . S
C435 H425 0.929 . S
C435 C433 1.433 . S
C435 N438 1.384 . S
C436 H427 0.929 . S
C436 C428 1.378 . S
C436 C431 1.350 . S
C437 H424 0.929 . S
C437 C429 1.433 . S
C437 N439 1.384 . S
N438 C434 1.427 . S
N438 C435 1.384 . S
N439 C431 1.427 . S
N439 C437 1.384 . S
H440 C446 0.930 . S
H441 C450 0.930 . S
H442 C455 0.929 1_565 S
H443 C453 0.929 1_545 S
H444 C448 0.929 1_556 S
H445 C454 0.929 1_554 S
C446 H440 0.930 . S
C446 C447 1.367 . S
C446 C454 1.378 . S
C447 C446 1.367 . S
C447 C455 1.433 . S
C448 H444 0.929 1_554 S
C448 C450 1.378 . S
C448 C452 1.350 . S
C449 C452 1.463 1_546 S
C449 C454 1.350 . S
C449 N457 1.427 1_545 S
C450 H441 0.930 . S
C450 C448 1.378 . S
C450 C451 1.367 . S
C451 C450 1.367 . S
C451 C453 1.433 . S
C452 C448 1.350 . S
C452 C449 1.463 1_564 S
C452 N456 1.427 1_565 S
C453 H443 0.929 1_565 S
C453 C451 1.433 . S
C453 N456 1.384 1_565 S
C454 H445 0.929 1_556 S
C454 C446 1.378 . S
C454 C449 1.350 . S
C455 H442 0.929 1_545 S
C455 C447 1.433 . S
C455 N457 1.384 1_545 S
N456 C452 1.427 1_545 S
N456 C453 1.384 1_545 S
N457 C449 1.427 1_565 S
N457 C455 1.384 1_565 S
H458 C464 0.930 . S
H459 C468 0.930 . S
H460 C473 0.929 . S
H461 C471 0.929 . S
H462 C466 0.929 . S
H463 C472 0.929 . S
C464 H458 0.930 . S
C464 C465 1.367 . S
C464 C472 1.378 . S
C465 C464 1.367 . S
C465 C473 1.433 . S
C466 H462 0.929 . S
C466 C468 1.378 . S
C466 C470 1.350 . S
C467 C470 1.463 . S
C467 C472 1.350 . S
C467 N475 1.427 . S
C468 H459 0.930 . S
C468 C466 1.378 . S
C468 C469 1.367 . S
C469 C468 1.367 . S
C469 C471 1.433 . S
C470 C466 1.350 . S
C470 C467 1.463 . S
C470 N474 1.427 . S
C471 H461 0.929 . S
C471 C469 1.433 . S
C471 N474 1.384 . S
C472 H463 0.929 . S
C472 C464 1.378 . S
C472 C467 1.350 . S
C473 H460 0.929 . S
C473 C465 1.433 . S
C473 N475 1.384 . S
N474 C470 1.427 . S
N474 C471 1.384 . S
N475 C467 1.427 . S
N475 C473 1.384 . S
H476 C482 0.930 . S
H477 C486 0.930 . S
H478 C491 0.929 . S
H479 C489 0.929 . S
H480 C484 0.929 . S
H481 C490 0.929 . S
C482 H476 0.930 . S
C482 C483 1.367 . S
C482 C490 1.378 . S
C483 C482 1.367 . S
C483 C491 1.433 . S
C484 H480 0.929 . S
C484 C486 1.378 . S
C484 C488 1.350 . S
C485 C488 1.463 . S
C485 C490 1.350 . S
C485 N493 1.427 . S
C486 H477 0.930 . S
C486 C484 1.378 . S
C486 C487 1.367 . S
C487 C486 1.367 . S
C487 C489 1.433 . S
C488 C484 1.350 . S
C488 C485 1.463 . S
C488 N492 1.427 . S
C489 H479 0.929 . S
C489 C487 1.433 . S
C489 N492 1.384 . S
C490 H481 0.929 . S
C490 C482 1.378 . S
C490 C485 1.350 . S
C491 H478 0.929 . S
C491 C483 1.433 . S
C491 N493 1.384 . S
N492 C488 1.427 . S
N492 C489 1.384 . S
N493 C485 1.427 . S
N493 C491 1.384 . S
H494 C500 0.930 . S
H495 C504 0.930 . S
H496 C509 0.929 . S
H497 C507 0.929 . S
H498 C502 0.929 . S
H499 C508 0.929 . S
C500 H494 0.930 . S
C500 C501 1.367 . S
C500 C508 1.378 . S
C501 C500 1.367 . S
C501 C509 1.433 . S
C502 H498 0.929 . S
C502 C504 1.378 . S
C502 C506 1.350 . S
C503 C506 1.463 . S
C503 C508 1.350 . S
C503 N511 1.427 . S
C504 H495 0.930 . S
C504 C502 1.378 . S
C504 C505 1.367 . S
C505 C504 1.367 . S
C505 C507 1.433 . S
C506 C502 1.350 . S
C506 C503 1.463 . S
C506 N510 1.427 . S
C507 H497 0.929 . S
C507 C505 1.433 . S
C507 N510 1.384 . S
C508 H499 0.929 . S
C508 C500 1.378 . S
C508 C503 1.350 . S
C509 H496 0.929 . S
C509 C501 1.433 . S
C509 N511 1.384 . S
N510 C506 1.427 . S
N510 C507 1.384 . S
N511 C503 1.427 . S
N511 C509 1.384 . S
H512 C518 0.930 . S
H513 C522 0.930 1_545 S
H514 C527 0.929 . S
H515 C525 0.929 . S
H516 C520 0.929 . S
H517 C526 0.929 . S
C518 H512 0.930 . S
C518 C519 1.367 . S
C518 C526 1.378 . S
C519 C518 1.367 . S
C519 C527 1.433 . S
C520 H516 0.929 . S
C520 C522 1.378 . S
C520 C524 1.350 . S
C521 C524 1.463 . S
C521 C526 1.350 . S
C521 N529 1.427 . S
C522 H513 0.930 1_565 S
C522 C520 1.378 . S
C522 C523 1.368 . S
C523 C522 1.368 . S
C523 C525 1.436 . S
C524 C520 1.350 . S
C524 C521 1.463 . S
C524 N528 1.427 . S
C525 H515 0.929 . S
C525 C523 1.436 . S
C525 N528 1.384 . S
C526 H517 0.929 . S
C526 C518 1.378 . S
C526 C521 1.350 . S
C527 H514 0.929 . S
C527 C519 1.433 . S
C527 N529 1.384 . S
N528 C524 1.427 . S
N528 C525 1.384 . S
N529 C521 1.427 . S
N529 C527 1.384 . S
H530 C536 0.930 . S
H531 C540 0.930 . S
H532 C545 0.929 . S
H533 C543 0.929 . S
H534 C538 0.929 . S
H535 C544 0.929 . S
C536 H530 0.930 . S
C536 C537 1.367 . S
C536 C544 1.378 . S
C537 C536 1.367 . S
C537 C545 1.433 . S
C538 H534 0.929 . S
C538 C540 1.378 . S
C538 C542 1.350 . S
C539 C542 1.463 . S
C539 C544 1.350 . S
C539 N547 1.427 . S
C540 H531 0.930 . S
C540 C538 1.378 . S
C540 C541 1.367 . S
C541 C540 1.367 . S
C541 C543 1.433 . S
C542 C538 1.350 . S
C542 C539 1.463 . S
C542 N546 1.427 . S
C543 H533 0.929 . S
C543 C541 1.433 . S
C543 N546 1.384 . S
C544 H535 0.929 . S
C544 C536 1.378 . S
C544 C539 1.350 . S
C545 H532 0.929 . S
C545 C537 1.433 . S
C545 N547 1.384 . S
N546 C542 1.427 . S
N546 C543 1.384 . S
N547 C539 1.427 . S
N547 C545 1.384 . S
H548 C554 0.930 . S
H549 C558 0.930 . S
H550 C563 0.929 . S
H551 C561 0.929 . S
H552 C556 0.929 . S
H553 C562 0.929 . S
C554 H548 0.930 . S
C554 C555 1.367 . S
C554 C562 1.378 . S
C555 C554 1.367 . S
C555 C563 1.433 . S
C556 H552 0.929 . S
C556 C558 1.378 . S
C556 C560 1.350 . S
C557 C560 1.463 . S
C557 C562 1.350 . S
C557 N565 1.427 . S
C558 H549 0.930 . S
C558 C556 1.378 . S
C558 C559 1.367 . S
C559 C558 1.367 . S
C559 C561 1.433 . S
C560 C556 1.350 . S
C560 C557 1.463 . S
C560 N564 1.427 . S
C561 H551 0.929 . S
C561 C559 1.433 . S
C561 N564 1.384 . S
C562 H553 0.929 . S
C562 C554 1.378 . S
C562 C557 1.350 . S
C563 H550 0.929 . S
C563 C555 1.433 . S
C563 N565 1.384 . S
N564 C560 1.427 . S
N564 C561 1.384 . S
N565 C557 1.427 . S
N565 C563 1.384 . S
H566 C572 0.930 . S
H567 C576 0.930 . S
H568 C581 0.929 . S
H569 C579 0.929 . S
H570 C574 0.929 . S
H571 C580 0.929 . S
C572 H566 0.930 . S
C572 C573 1.367 . S
C572 C580 1.378 . S
C573 C572 1.367 . S
C573 C581 1.433 . S
C574 H570 0.929 . S
C574 C576 1.378 1_565 S
C574 C578 1.350 . S
C575 C578 1.463 . S
C575 C580 1.350 . S
C575 N583 1.427 . S
C576 H567 0.930 . S
C576 C574 1.378 1_545 S
C576 C577 1.367 . S
C577 C576 1.367 . S
C577 C579 1.433 1_545 S
C578 C574 1.350 . S
C578 C575 1.463 . S
C578 N582 1.427 . S
C579 H569 0.929 . S
C579 C577 1.433 1_565 S
C579 N582 1.384 . S
C580 H571 0.929 . S
C580 C572 1.378 . S
C580 C575 1.350 . S
C581 H568 0.929 . S
C581 C573 1.433 . S
C581 N583 1.384 . S
N582 C578 1.427 . S
N582 C579 1.384 . S
N583 C575 1.427 . S
N583 C581 1.384 . S
H584 C590 0.930 . S
H585 C594 0.930 . S
H586 C599 0.929 . S
H587 C597 0.929 . S
H588 C592 0.929 . S
H589 C598 0.929 . S
C590 H584 0.930 . S
C590 C591 1.367 . S
C590 C598 1.378 . S
C591 C590 1.367 . S
C591 C599 1.433 . S
C592 H588 0.929 . S
C592 C594 1.378 . S
C592 C596 1.350 . S
C593 C596 1.463 . S
C593 C598 1.350 . S
C593 N601 1.427 . S
C594 H585 0.930 . S
C594 C592 1.378 . S
C594 C595 1.370 . S
C595 C594 1.370 . S
C595 C597 1.436 . S
C596 C592 1.350 . S
C596 C593 1.463 . S
C596 N600 1.427 . S
C597 H587 0.929 . S
C597 C595 1.436 . S
C597 N600 1.384 . S
C598 H589 0.929 . S
C598 C590 1.378 . S
C598 C593 1.350 . S
C599 H586 0.929 . S
C599 C591 1.433 . S
C599 N601 1.384 . S
N600 C596 1.427 . S
N600 C597 1.384 . S
N601 C593 1.427 . S
N601 C599 1.384 . S
H602 C608 0.930 . S
H603 C612 0.930 . S
H604 C617 0.929 . S
H605 C615 0.929 . S
H606 C610 0.929 . S
H607 C616 0.929 . S
C608 H602 0.930 . S
C608 C609 1.367 . S
C608 C616 1.378 . S
C609 C608 1.367 . S
C609 C617 1.433 . S
C610 H606 0.929 . S
C610 C612 1.378 . S
C610 C614 1.350 . S
C611 C614 1.463 . S
C611 C616 1.350 . S
C611 N619 1.427 . S
C612 H603 0.930 . S
C612 C610 1.378 . S
C612 C613 1.367 . S
C613 C612 1.367 . S
C613 C615 1.433 . S
C614 C610 1.350 . S
C614 C611 1.463 . S
C614 N618 1.427 . S
C615 H605 0.929 . S
C615 C613 1.433 . S
C615 N618 1.384 . S
C616 H607 0.929 . S
C616 C608 1.378 . S
C616 C611 1.350 . S
C617 H604 0.929 . S
C617 C609 1.433 . S
C617 N619 1.384 . S
N618 C614 1.427 . S
N618 C615 1.384 . S
N619 C611 1.427 . S
N619 C617 1.384 . S
H620 C626 0.930 . S
H621 C630 0.930 . S
H622 C635 0.929 . S
H623 C633 0.929 . S
H624 C628 0.929 . S
H625 C634 0.929 . S
C626 H620 0.930 . S
C626 C627 1.367 . S
C626 C634 1.378 . S
C627 C626 1.367 . S
C627 C635 1.433 . S
C628 H624 0.929 . S
C628 C630 1.378 . S
C628 C632 1.350 . S
C629 C632 1.463 . S
C629 C634 1.350 . S
C629 N637 1.427 . S
C630 H621 0.930 . S
C630 C628 1.378 . S
C630 C631 1.367 . S
C631 C630 1.367 . S
C631 C633 1.433 . S
C632 C628 1.350 . S
C632 C629 1.463 . S
C632 N636 1.427 . S
C633 H623 0.929 . S
C633 C631 1.433 . S
C633 N636 1.384 . S
C634 H625 0.929 . S
C634 C626 1.378 . S
C634 C629 1.350 . S
C635 H622 0.929 . S
C635 C627 1.433 . S
C635 N637 1.384 . S
N636 C632 1.427 . S
N636 C633 1.384 . S
N637 C629 1.427 . S
N637 C635 1.384 . S
H638 C644 0.930 . S
H639 C648 0.930 . S
H640 C653 0.929 . S
H641 C651 0.929 . S
H642 C646 0.929 . S
H643 C652 0.929 . S
C644 H638 0.930 . S
C644 C645 1.368 . S
C644 C652 1.378 1_565 S
C645 C644 1.368 . S
C645 C653 1.428 1_565 S
C646 H642 0.929 . S
C646 C648 1.378 . S
C646 C650 1.350 . S
C647 C650 1.463 . S
C647 C652 1.350 . S
C647 N655 1.427 . S
C648 H639 0.930 . S
C648 C646 1.378 . S
C648 C649 1.367 . S
C649 C648 1.367 . S
C649 C651 1.433 . S
C650 C646 1.350 . S
C650 C647 1.463 . S
C650 N654 1.427 . S
C651 H641 0.929 . S
C651 C649 1.433 . S
C651 N654 1.384 . S
C652 H643 0.929 . S
C652 C644 1.378 1_545 S
C652 C647 1.350 . S
C653 H640 0.929 . S
C653 C645 1.428 1_545 S
C653 N655 1.384 . S
N654 C650 1.427 . S
N654 C651 1.384 . S
N655 C647 1.427 . S
N655 C653 1.384 . S
H656 C662 0.930 . S
H657 C666 0.930 1_545 S
H658 C671 0.929 . S
H659 C669 0.929 . S
H660 C664 0.929 . S
H661 C670 0.929 . S
C662 H656 0.930 . S
C662 C663 1.367 . S
C662 C670 1.378 . S
C663 C662 1.367 . S
C663 C671 1.433 . S
C664 H660 0.929 . S
C664 C666 1.378 . S
C664 C668 1.350 . S
C665 C668 1.463 . S
C665 C670 1.350 . S
C665 N673 1.427 . S
C666 H657 0.930 1_565 S
C666 C664 1.378 . S
C666 C667 1.367 1_565 S
C667 C666 1.367 1_545 S
C667 C669 1.434 1_545 S
C668 C664 1.350 . S
C668 C665 1.463 . S
C668 N672 1.427 . S
C669 H659 0.929 . S
C669 C667 1.434 1_565 S
C669 N672 1.384 . S
C670 H661 0.929 . S
C670 C662 1.378 . S
C670 C665 1.350 . S
C671 H658 0.929 . S
C671 C663 1.433 . S
C671 N673 1.384 . S
N672 C668 1.427 . S
N672 C669 1.384 . S
N673 C665 1.427 . S
N673 C671 1.384 . S
H674 C680 0.930 . S
H675 C684 0.930 . S
H676 C689 0.929 . S
H677 C687 0.929 . S
H678 C682 0.929 . S
H679 C688 0.929 . S
C680 H674 0.930 . S
C680 C681 1.367 . S
C680 C688 1.378 . S
C681 C680 1.367 . S
C681 C689 1.433 . S
C682 H678 0.929 . S
C682 C684 1.378 . S
C682 C686 1.350 . S
C683 C686 1.463 . S
C683 C688 1.350 . S
C683 N691 1.427 . S
C684 H675 0.930 . S
C684 C682 1.378 . S
C684 C685 1.367 . S
C685 C684 1.367 . S
C685 C687 1.433 . S
C686 C682 1.350 . S
C686 C683 1.463 . S
C686 N690 1.427 . S
C687 H677 0.929 . S
C687 C685 1.433 . S
C687 N690 1.384 . S
C688 H679 0.929 . S
C688 C680 1.378 . S
C688 C683 1.350 . S
C689 H676 0.929 . S
C689 C681 1.433 . S
C689 N691 1.384 . S
N690 C686 1.427 . S
N690 C687 1.384 . S
N691 C683 1.427 . S
N691 C689 1.384 . S
H692 C698 0.930 . S
H693 C702 0.930 . S
H694 C707 0.929 . S
H695 C705 0.929 . S
H696 C700 0.929 . S
H697 C706 0.929 . S
C698 H692 0.930 . S
C698 C699 1.367 . S
C698 C706 1.378 . S
C699 C698 1.367 . S
C699 C707 1.433 . S
C700 H696 0.929 . S
C700 C702 1.378 . S
C700 C704 1.350 . S
C701 C704 1.463 . S
C701 C706 1.350 . S
C701 N709 1.427 . S
C702 H693 0.930 . S
C702 C700 1.378 . S
C702 C703 1.367 . S
C703 C702 1.367 . S
C703 C705 1.433 . S
C704 C700 1.350 . S
C704 C701 1.463 . S
C704 N708 1.427 . S
C705 H695 0.929 . S
C705 C703 1.433 . S
C705 N708 1.384 . S
C706 H697 0.929 . S
C706 C698 1.378 . S
C706 C701 1.350 . S
C707 H694 0.929 . S
C707 C699 1.433 . S
C707 N709 1.384 . S
N708 C704 1.427 . S
N708 C705 1.384 . S
N709 C701 1.427 . S
N709 C707 1.384 . S
H710 C716 0.930 . S
H711 C720 0.930 . S
H712 C725 0.929 . S
H713 C723 0.929 . S
H714 C718 0.929 . S
H715 C724 0.929 . S
C716 H710 0.930 . S
C716 C717 1.367 . S
C716 C724 1.378 . S
C717 C716 1.367 . S
C717 C725 1.433 . S
C718 H714 0.929 . S
C718 C720 1.378 . S
C718 C722 1.350 . S
C719 C722 1.463 . S
C719 C724 1.350 . S
C719 N727 1.427 . S
C720 H711 0.930 . S
C720 C718 1.378 . S
C720 C721 1.367 . S
C721 C720 1.367 . S
C721 C723 1.433 1_565 S
C722 C718 1.350 . S
C722 C719 1.463 . S
C722 N726 1.427 . S
C723 H713 0.929 . S
C723 C721 1.433 1_545 S
C723 N726 1.384 1_545 S
C724 H715 0.929 . S
C724 C716 1.378 . S
C724 C719 1.350 . S
C725 H712 0.929 . S
C725 C717 1.433 . S
C725 N727 1.384 . S
N726 C722 1.427 . S
N726 C723 1.384 1_565 S
N727 C719 1.427 . S
N727 C725 1.384 . S
H728 C734 0.930 . S
H729 C738 0.930 . S
H730 C743 0.929 . S
H731 C741 0.929 1_565 S
H732 C736 0.929 . S
H733 C742 0.929 . S
C734 H728 0.930 . S
C734 C735 1.367 . S
C734 C742 1.378 . S
C735 C734 1.367 . S
C735 C743 1.433 . S
C736 H732 0.929 . S
C736 C738 1.378 . S
C736 C740 1.350 . S
C737 C740 1.463 . S
C737 C742 1.350 . S
C737 N745 1.427 . S
C738 H729 0.930 . S
C738 C736 1.378 . S
C738 C739 1.373 . S
C739 C738 1.373 . S
C739 C741 1.436 . S
C740 C736 1.350 . S
C740 C737 1.463 . S
C740 N744 1.427 . S
C741 H731 0.929 1_545 S
C741 C739 1.436 . S
C741 N744 1.384 . S
C742 H733 0.929 . S
C742 C734 1.378 . S
C742 C737 1.350 . S
C743 H730 0.929 . S
C743 C735 1.433 . S
C743 N745 1.384 . S
N744 C740 1.427 . S
N744 C741 1.384 . S
N745 C737 1.427 . S
N745 C743 1.384 . S
H746 C752 0.930 . S
H747 C756 0.930 . S
H748 C761 0.929 . S
H749 C759 0.929 . S
H750 C754 0.929 . S
H751 C760 0.929 . S
C752 H746 0.930 . S
C752 C753 1.367 . S
C752 C760 1.378 . S
C753 C752 1.367 . S
C753 C761 1.433 . S
C754 H750 0.929 . S
C754 C756 1.378 . S
C754 C758 1.350 . S
C755 C758 1.463 . S
C755 C760 1.350 . S
C755 N763 1.427 . S
C756 H747 0.930 . S
C756 C754 1.378 . S
C756 C757 1.367 . S
C757 C756 1.367 . S
C757 C759 1.433 . S
C758 C754 1.350 . S
C758 C755 1.463 . S
C758 N762 1.427 . S
C759 H749 0.929 . S
C759 C757 1.433 . S
C759 N762 1.384 . S
C760 H751 0.929 . S
C760 C752 1.378 . S
C760 C755 1.350 . S
C761 H748 0.929 . S
C761 C753 1.433 . S
C761 N763 1.384 . S
N762 C758 1.427 . S
N762 C759 1.384 . S
N763 C755 1.427 . S
N763 C761 1.384 . S
H764 C770 0.930 . S
H765 C774 0.930 . S
H766 C779 0.929 . S
H767 C777 0.929 . S
H768 C772 0.929 . S
H769 C778 0.929 . S
C770 H764 0.930 . S
C770 C771 1.367 . S
C770 C778 1.378 . S
C771 C770 1.367 . S
C771 C779 1.433 . S
C772 H768 0.929 . S
C772 C774 1.378 . S
C772 C776 1.350 . S
C773 C776 1.463 . S
C773 C778 1.350 . S
C773 N781 1.427 . S
C774 H765 0.930 . S
C774 C772 1.378 . S
C774 C775 1.367 . S
C775 C774 1.367 . S
C775 C777 1.433 . S
C776 C772 1.350 . S
C776 C773 1.463 . S
C776 N780 1.427 . S
C777 H767 0.929 . S
C777 C775 1.433 . S
C777 N780 1.384 . S
C778 H769 0.929 . S
C778 C770 1.378 . S
C778 C773 1.350 . S
C779 H766 0.929 . S
C779 C771 1.433 . S
C779 N781 1.384 . S
N780 C776 1.427 . S
N780 C777 1.384 . S
N781 C773 1.427 . S
N781 C779 1.384 . S
H782 C788 0.930 . S
H783 C792 0.930 . S
H784 C797 0.929 . S
H785 C795 0.929 . S
H786 C790 0.929 . S
H787 C796 0.929 . S
C788 H782 0.930 . S
C788 C789 1.367 . S
C788 C796 1.378 . S
C789 C788 1.367 . S
C789 C797 1.433 . S
C790 H786 0.929 . S
C790 C792 1.378 . S
C790 C794 1.350 . S
C791 C794 1.463 . S
C791 C796 1.350 . S
C791 N799 1.427 . S
C792 H783 0.930 . S
C792 C790 1.378 . S
C792 C793 1.367 . S
C793 C792 1.367 . S
C793 C795 1.433 1_545 S
C794 C790 1.350 . S
C794 C791 1.463 . S
C794 N798 1.427 . S
C795 H785 0.929 . S
C795 C793 1.433 1_565 S
C795 N798 1.384 1_565 S
C796 H787 0.929 . S
C796 C788 1.378 . S
C796 C791 1.350 . S
C797 H784 0.929 . S
C797 C789 1.433 . S
C797 N799 1.384 . S
N798 C794 1.427 . S
N798 C795 1.384 1_545 S
N799 C791 1.427 . S
N799 C797 1.384 . S
C231 C199 1.494 . S
C235 C3 1.494 . S
C249 C36 1.498 . S
C253 C8 1.498 . S
C267 C162 1.498 . S
C271 C22 1.498 . S
C285 C17 1.492 . S
C289 C101 1.492 . S
C303 C31 1.495 . S
C307 C171 1.495 . S
C321 C134 1.497 . S
C325 C50 1.497 . S
C339 C45 1.493 . S
C343 C73 1.493 . S
C357 C143 1.493 . S
C361 C59 1.493 . S
C375 C64 1.497 . S
C379 C92 1.497 . S
C393 C218 1.498 . S
C397 C78 1.498 . S
C411 C115 1.495 . S
C415 C87 1.495 . S
C429 C190 1.497 . S
C433 C106 1.497 . S
C447 C120 1.497 . S
C451 C148 1.497 . S
C465 C213 1.494 . S
C469 C129 1.494 . S
C483 C157 1.493 . S
C487 C185 1.493 . S
C501 C204 1.497 . S
C505 C176 1.497 . S
C519 C79 1.431 . S
C523 C7 1.419 1_565 S
C537 C9 1.423 . S
C541 C77 1.416 . S
C555 C23 1.422 . S
C559 C63 1.415 . S
C573 C65 1.423 . S
C577 C21 1.415 . S
C591 C107 1.422 . S
C595 C35 1.408 1_545 S
C609 C105 1.418 . S
C613 C37 1.424 . S
C627 C91 1.422 . S
C631 C51 1.430 . S
C645 C49 1.422 . S
C649 C93 1.427 . S
C663 C191 1.430 . S
C667 C119 1.420 . S
C681 C121 1.425 . S
C685 C189 1.419 . S
C699 C135 1.426 . S
C703 C175 1.417 . S
C717 C177 1.428 . S
C721 C133 1.423 1_565 S
C735 C219 1.423 . S
C739 C147 1.406 1_545 S
C753 C217 1.418 . S
C757 C149 1.428 . S
C771 C163 1.425 . S
C775 C203 1.416 . S
C789 C205 1.426 . S
C793 C161 1.421 1_545 S
