# Generated by pormake.
# Topology uoi, (4)-cn, num edge types: 1
# Building blocks:
#     Node 0, Type 0, BuildingBlock: UXUYUI_clean_sbu_0, # of connection points: 4
#     Node 1, Type 0, BuildingBlock: UXUYUI_clean_sbu_0, # of connection points: 4
#     Node 2, Type 0, BuildingBlock: UXUYUI_clean_sbu_0, # of connection points: 4
#     Node 3, Type 0, BuildingBlock: UXUYUI_clean_sbu_0, # of connection points: 4
#     Node 4, Type 0, BuildingBlock: UXUYUI_clean_sbu_0, # of connection points: 4
#     Node 5, Type 0, BuildingBlock: UXUYUI_clean_sbu_0, # of connection points: 4
#     Node 6, Type 0, BuildingBlock: UXUYUI_clean_sbu_0, # of connection points: 4
#     Node 7, Type 0, BuildingBlock: UXUYUI_clean_sbu_0, # of connection points: 4
#     Node 8, Type 0, BuildingBlock: UXUYUI_clean_sbu_0, # of connection points: 4
#     Node 9, Type 0, BuildingBlock: UXUYUI_clean_sbu_0, # of connection points: 4
#     Node 10, Type 0, BuildingBlock: UXUYUI_clean_sbu_0, # of connection points: 4
#     Node 11, Type 0, BuildingBlock: UXUYUI_clean_sbu_0, # of connection points: 4
#     Node 12, Type 0, BuildingBlock: UXUYUI_clean_sbu_0, # of connection points: 4
#     Node 13, Type 0, BuildingBlock: UXUYUI_clean_sbu_0, # of connection points: 4
#     Node 14, Type 0, BuildingBlock: UXUYUI_clean_sbu_0, # of connection points: 4
#     Node 15, Type 0, BuildingBlock: UXUYUI_clean_sbu_0, # of connection points: 4
#     Node 16, Type 0, BuildingBlock: UXUYUI_clean_sbu_0, # of connection points: 4
#     Node 17, Type 0, BuildingBlock: UXUYUI_clean_sbu_0, # of connection points: 4
#     Node 18, Type 0, BuildingBlock: UXUYUI_clean_sbu_0, # of connection points: 4
#     Node 19, Type 0, BuildingBlock: UXUYUI_clean_sbu_0, # of connection points: 4
#     Node 20, Type 0, BuildingBlock: UXUYUI_clean_sbu_0, # of connection points: 4
#     Node 21, Type 0, BuildingBlock: UXUYUI_clean_sbu_0, # of connection points: 4
#     Node 22, Type 0, BuildingBlock: UXUYUI_clean_sbu_0, # of connection points: 4
#     Node 23, Type 0, BuildingBlock: UXUYUI_clean_sbu_0, # of connection points: 4
#     Node 24, Type 0, BuildingBlock: UXUYUI_clean_sbu_0, # of connection points: 4
#     Node 25, Type 0, BuildingBlock: UXUYUI_clean_sbu_0, # of connection points: 4
#     Node 26, Type 0, BuildingBlock: UXUYUI_clean_sbu_0, # of connection points: 4
#     Node 27, Type 0, BuildingBlock: UXUYUI_clean_sbu_0, # of connection points: 4
#     Node 28, Type 0, BuildingBlock: UXUYUI_clean_sbu_0, # of connection points: 4
#     Node 29, Type 0, BuildingBlock: UXUYUI_clean_sbu_0, # of connection points: 4
#     Node 30, Type 0, BuildingBlock: UXUYUI_clean_sbu_0, # of connection points: 4
#     Node 31, Type 0, BuildingBlock: UXUYUI_clean_sbu_0, # of connection points: 4
#     Edge 32, Type (0, 0), BuildingBlock: OJICUG_clean_linker_0, # of connection points: 2
#     Edge 33, Type (0, 0), BuildingBlock: OJICUG_clean_linker_0, # of connection points: 2
#     Edge 34, Type (0, 0), BuildingBlock: OJICUG_clean_linker_0, # of connection points: 2
#     Edge 35, Type (0, 0), BuildingBlock: OJICUG_clean_linker_0, # of connection points: 2
#     Edge 36, Type (0, 0), BuildingBlock: OJICUG_clean_linker_0, # of connection points: 2
#     Edge 37, Type (0, 0), BuildingBlock: OJICUG_clean_linker_0, # of connection points: 2
#     Edge 38, Type (0, 0), BuildingBlock: OJICUG_clean_linker_0, # of connection points: 2
#     Edge 39, Type (0, 0), BuildingBlock: OJICUG_clean_linker_0, # of connection points: 2
#     Edge 40, Type (0, 0), BuildingBlock: OJICUG_clean_linker_0, # of connection points: 2
#     Edge 41, Type (0, 0), BuildingBlock: OJICUG_clean_linker_0, # of connection points: 2
#     Edge 42, Type (0, 0), BuildingBlock: OJICUG_clean_linker_0, # of connection points: 2
#     Edge 43, Type (0, 0), BuildingBlock: OJICUG_clean_linker_0, # of connection points: 2
#     Edge 44, Type (0, 0), BuildingBlock: OJICUG_clean_linker_0, # of connection points: 2
#     Edge 45, Type (0, 0), BuildingBlock: OJICUG_clean_linker_0, # of connection points: 2
#     Edge 46, Type (0, 0), BuildingBlock: OJICUG_clean_linker_0, # of connection points: 2
#     Edge 47, Type (0, 0), BuildingBlock: OJICUG_clean_linker_0, # of connection points: 2
#     Edge 48, Type (0, 0), BuildingBlock: OJICUG_clean_linker_0, # of connection points: 2
#     Edge 49, Type (0, 0), BuildingBlock: OJICUG_clean_linker_0, # of connection points: 2
#     Edge 50, Type (0, 0), BuildingBlock: OJICUG_clean_linker_0, # of connection points: 2
#     Edge 51, Type (0, 0), BuildingBlock: OJICUG_clean_linker_0, # of connection points: 2
#     Edge 52, Type (0, 0), BuildingBlock: OJICUG_clean_linker_0, # of connection points: 2
#     Edge 53, Type (0, 0), BuildingBlock: OJICUG_clean_linker_0, # of connection points: 2
#     Edge 54, Type (0, 0), BuildingBlock: OJICUG_clean_linker_0, # of connection points: 2
#     Edge 55, Type (0, 0), BuildingBlock: OJICUG_clean_linker_0, # of connection points: 2
#     Edge 56, Type (0, 0), BuildingBlock: OJICUG_clean_linker_0, # of connection points: 2
#     Edge 57, Type (0, 0), BuildingBlock: OJICUG_clean_linker_0, # of connection points: 2
#     Edge 58, Type (0, 0), BuildingBlock: OJICUG_clean_linker_0, # of connection points: 2
#     Edge 59, Type (0, 0), BuildingBlock: OJICUG_clean_linker_0, # of connection points: 2
#     Edge 60, Type (0, 0), BuildingBlock: OJICUG_clean_linker_0, # of connection points: 2
#     Edge 61, Type (0, 0), BuildingBlock: OJICUG_clean_linker_0, # of connection points: 2
#     Edge 62, Type (0, 0), BuildingBlock: OJICUG_clean_linker_0, # of connection points: 2
#     Edge 63, Type (0, 0), BuildingBlock: OJICUG_clean_linker_0, # of connection points: 2
#     Edge 64, Type (0, 0), BuildingBlock: OJICUG_clean_linker_0, # of connection points: 2
#     Edge 65, Type (0, 0), BuildingBlock: OJICUG_clean_linker_0, # of connection points: 2
#     Edge 66, Type (0, 0), BuildingBlock: OJICUG_clean_linker_0, # of connection points: 2
#     Edge 67, Type (0, 0), BuildingBlock: OJICUG_clean_linker_0, # of connection points: 2
#     Edge 68, Type (0, 0), BuildingBlock: OJICUG_clean_linker_0, # of connection points: 2
#     Edge 69, Type (0, 0), BuildingBlock: OJICUG_clean_linker_0, # of connection points: 2
#     Edge 70, Type (0, 0), BuildingBlock: OJICUG_clean_linker_0, # of connection points: 2
#     Edge 71, Type (0, 0), BuildingBlock: OJICUG_clean_linker_0, # of connection points: 2
#     Edge 72, Type (0, 0), BuildingBlock: OJICUG_clean_linker_0, # of connection points: 2
#     Edge 73, Type (0, 0), BuildingBlock: OJICUG_clean_linker_0, # of connection points: 2
#     Edge 74, Type (0, 0), BuildingBlock: OJICUG_clean_linker_0, # of connection points: 2
#     Edge 75, Type (0, 0), BuildingBlock: OJICUG_clean_linker_0, # of connection points: 2
#     Edge 76, Type (0, 0), BuildingBlock: OJICUG_clean_linker_0, # of connection points: 2
#     Edge 77, Type (0, 0), BuildingBlock: OJICUG_clean_linker_0, # of connection points: 2
#     Edge 78, Type (0, 0), BuildingBlock: OJICUG_clean_linker_0, # of connection points: 2
#     Edge 79, Type (0, 0), BuildingBlock: OJICUG_clean_linker_0, # of connection points: 2
#     Edge 80, Type (0, 0), BuildingBlock: OJICUG_clean_linker_0, # of connection points: 2
#     Edge 81, Type (0, 0), BuildingBlock: OJICUG_clean_linker_0, # of connection points: 2
#     Edge 82, Type (0, 0), BuildingBlock: OJICUG_clean_linker_0, # of connection points: 2
#     Edge 83, Type (0, 0), BuildingBlock: OJICUG_clean_linker_0, # of connection points: 2
#     Edge 84, Type (0, 0), BuildingBlock: OJICUG_clean_linker_0, # of connection points: 2
#     Edge 85, Type (0, 0), BuildingBlock: OJICUG_clean_linker_0, # of connection points: 2
#     Edge 86, Type (0, 0), BuildingBlock: OJICUG_clean_linker_0, # of connection points: 2
#     Edge 87, Type (0, 0), BuildingBlock: OJICUG_clean_linker_0, # of connection points: 2
#     Edge 88, Type (0, 0), BuildingBlock: OJICUG_clean_linker_0, # of connection points: 2
#     Edge 89, Type (0, 0), BuildingBlock: OJICUG_clean_linker_0, # of connection points: 2
#     Edge 90, Type (0, 0), BuildingBlock: OJICUG_clean_linker_0, # of connection points: 2
#     Edge 91, Type (0, 0), BuildingBlock: OJICUG_clean_linker_0, # of connection points: 2
#     Edge 92, Type (0, 0), BuildingBlock: OJICUG_clean_linker_0, # of connection points: 2
#     Edge 93, Type (0, 0), BuildingBlock: OJICUG_clean_linker_0, # of connection points: 2
#     Edge 94, Type (0, 0), BuildingBlock: OJICUG_clean_linker_0, # of connection points: 2
#     Edge 95, Type (0, 0), BuildingBlock: OJICUG_clean_linker_0, # of connection points: 2
# Relax obj value: 0.451
# Max RMSD: 0.238
# Mean RMSD: 0.236
data_MOF--net-uoi--node1-UXUYUI_clean_sbu_0--edge1-OJICUG_clean_linker_0
_symmetry_space_group_name_H-M    P1
_symmetry_Int_Tables_number       1
_symmetry_cell_setting            triclinic
loop_
_symmetry_equiv_pos_as_xyz
'x, y, z'
_cell_length_a     97.065889
_cell_length_b     96.265877
_cell_length_c     22.084287
_cell_angle_alpha  90.007329
_cell_angle_beta   90.008152
_cell_angle_gamma 89.998539
loop_
_atom_site_label
_atom_site_type_symbol
_atom_site_fract_x
_atom_site_fract_y
_atom_site_fract_z
_atom_type_partial_charge
Li0 Li 0.15167 0.18871 0.46801 0.0
Li1 Li 0.15604 0.20209 0.38006 0.0
Li2 Li 0.15212 0.17747 0.37087 0.0
Li3 Li 0.17394 0.18675 0.42074 0.0
C4 C 0.1257 0.18827 0.40872 0.0
N5 N 0.09848 0.1812 0.42894 0.0
C6 C 0.11553 0.19856 0.41002 0.0
C7 C 0.12198 0.17437 0.41696 0.0
C8 C 0.10184 0.19478 0.42055 0.0
C9 C 0.10818 0.17101 0.4273 0.0
C10 C 0.16211 0.21554 0.48601 0.0
C11 C 0.16783 0.23531 0.54845 0.0
N12 N 0.15452 0.23966 0.54546 0.0
C13 C 0.14849 0.22027 0.48347 0.0
C14 C 0.17188 0.22319 0.51852 0.0
C15 C 0.14487 0.23246 0.51374 0.0
C16 C 0.15536 0.19251 0.58897 0.0
N17 N 0.14489 0.19092 0.5487 0.0
C18 C 0.12954 0.20331 0.61351 0.0
C19 C 0.13192 0.19534 0.56166 0.0
C20 C 0.14065 0.20672 0.65164 0.0
C21 C 0.15345 0.20038 0.64118 0.0
H22 H 0.16566 0.1893 0.57668 0.0
H23 H 0.12376 0.1941 0.52905 0.0
C24 C 0.1403 0.22073 0.3119 0.0
N25 N 0.15258 0.21931 0.34072 0.0
C26 C 0.13686 0.23326 0.28407 0.0
C27 C 0.15887 0.24258 0.31535 0.0
C28 C 0.16183 0.22989 0.34317 0.0
C29 C 0.14623 0.2444 0.28522 0.0
H30 H 0.13317 0.21212 0.31064 0.0
H31 H 0.17151 0.22845 0.36657 0.0
C32 C 0.16176 0.16422 0.50158 0.0
N33 N 0.16203 0.1507 0.61214 0.0
C34 C 0.1742 0.16199 0.53205 0.0
C35 C 0.14949 0.15933 0.52704 0.0
C36 C 0.17412 0.1552 0.58795 0.0
C37 C 0.14983 0.1526 0.58306 0.0
C38 C 0.17203 0.19677 0.28916 0.0
C39 C 0.16395 0.19826 0.23716 0.0
C40 C 0.18428 0.20429 0.2947 0.0
C41 C 0.16824 0.20735 0.19162 0.0
C42 C 0.18822 0.21326 0.24809 0.0
N43 N 0.18018 0.21461 0.19799 0.0
C44 C 0.13593 0.1698 0.27388 0.0
C45 C 0.14868 0.15086 0.31353 0.0
C46 C 0.13047 0.16143 0.2284 0.0
N47 N 0.14487 0.16444 0.315 0.0
C48 C 0.14342 0.14206 0.26865 0.0
C49 C 0.13426 0.14737 0.22498 0.0
H50 H 0.13312 0.18066 0.2763 0.0
H51 H 0.1559 0.14693 0.34667 0.0
C52 C 0.19749 0.19136 0.48742 0.0
N53 N 0.193 0.18473 0.43685 0.0
C54 C 0.21135 0.19096 0.50346 0.0
C55 C 0.21571 0.17631 0.41652 0.0
C56 C 0.20171 0.17718 0.40155 0.0
C57 C 0.22065 0.18344 0.46764 0.0
H58 H 0.19024 0.19689 0.51554 0.0
H59 H 0.1978 0.17194 0.36177 0.0
O60 O 0.13912 0.19184 0.39798 0.0
O61 O 0.16589 0.20349 0.45727 0.0
O62 O 0.16168 0.17094 0.44685 0.0
O63 O 0.1678 0.18827 0.3351 0.0
H64 H 0.1182 0.20937 0.40349 0.0
H65 H 0.12962 0.16624 0.41477 0.0
H66 H 0.09389 0.20265 0.42205 0.0
H67 H 0.10518 0.1603 0.43381 0.0
H68 H 0.17528 0.24127 0.57397 0.0
H69 H 0.14076 0.21458 0.45862 0.0
H70 H 0.18249 0.21983 0.52069 0.0
H71 H 0.13436 0.23618 0.5122 0.0
H72 H 0.11945 0.20783 0.62053 0.0
H73 H 0.16235 0.20283 0.66878 0.0
H74 H 0.12693 0.2342 0.2621 0.0
H75 H 0.16652 0.25075 0.31652 0.0
H76 H 0.18384 0.16539 0.51276 0.0
H77 H 0.13976 0.16086 0.50446 0.0
H78 H 0.18367 0.15348 0.61204 0.0
H79 H 0.14039 0.1489 0.60345 0.0
H80 H 0.15441 0.19257 0.23234 0.0
H81 H 0.19059 0.20334 0.33489 0.0
H82 H 0.16205 0.20868 0.15129 0.0
H83 H 0.19764 0.2192 0.25188 0.0
H84 H 0.12325 0.16591 0.19653 0.0
H85 H 0.14667 0.1313 0.26745 0.0
H86 H 0.21477 0.19641 0.54365 0.0
H87 H 0.22264 0.17044 0.38783 0.0
Li88 Li 0.07654 0.90031 0.6059 0.0
Li89 Li 0.06994 0.92226 0.64573 0.0
Li90 Li 0.06243 0.90221 0.7 0.0
Li91 Li 0.05298 0.90776 0.59958 0.0
C92 C 0.09073 0.89965 0.71632 0.0
N93 N 0.10868 0.88186 0.77484 0.0
C94 C 0.10332 0.90458 0.73827 0.0
C95 C 0.08725 0.88567 0.72428 0.0
C96 C 0.11226 0.89542 0.76767 0.0
C97 C 0.09647 0.87685 0.75396 0.0
C98 C 0.0794 0.92252 0.5279 0.0
C99 C 0.08793 0.93303 0.43615 0.0
N100 N 0.1005 0.93458 0.46246 0.0
C101 C 0.09242 0.92421 0.55404 0.0
C102 C 0.07713 0.92695 0.46849 0.0
C103 C 0.10294 0.93033 0.5202 0.0
C104 C 0.08478 0.88876 0.49993 0.0
N105 N 0.08953 0.89057 0.55725 0.0
C106 C 0.11122 0.88053 0.53029 0.0
C107 C 0.10249 0.88662 0.57327 0.0
C108 C 0.10659 0.87876 0.47042 0.0
C109 C 0.09315 0.88289 0.45566 0.0
H110 H 0.07447 0.8921 0.48844 0.0
H111 H 0.10616 0.8884 0.61878 0.0
C112 C 0.07857 0.94383 0.72001 0.0
N113 N 0.07504 0.94097 0.66183 0.0
C114 C 0.08032 0.95755 0.73879 0.0
C115 C 0.07534 0.96508 0.63665 0.0
C116 C 0.07363 0.9512 0.6199 0.0
C117 C 0.07843 0.96843 0.69715 0.0
H118 H 0.07937 0.93546 0.75251 0.0
H119 H 0.07056 0.94866 0.57417 0.0
C120 C 0.05069 0.88006 0.61004 0.0
N121 N 0.03122 0.86154 0.56743 0.0
C122 C 0.03732 0.88017 0.6336 0.0
C123 C 0.05419 0.87043 0.56525 0.0
C124 C 0.02761 0.87076 0.61131 0.0
C125 C 0.04419 0.86117 0.54423 0.0
C126 C 0.04551 0.93113 0.6796 0.0
C127 C 0.04369 0.93728 0.73637 0.0
C128 C 0.04214 0.93858 0.62731 0.0
C129 C 0.03859 0.95083 0.73984 0.0
C130 C 0.03705 0.95209 0.63269 0.0
N131 N 0.03541 0.9579 0.68837 0.0
C132 C 0.05669 0.90569 0.82166 0.0
C133 C 0.04921 0.8841 0.7818 0.0
C134 C 0.0474 0.9046 0.86966 0.0
N135 N 0.05675 0.89594 0.77723 0.0
C136 C 0.03966 0.88265 0.82862 0.0
C137 C 0.03812 0.89342 0.87101 0.0
H138 H 0.06275 0.91504 0.81631 0.0
H139 H 0.04957 0.87647 0.74603 0.0
C140 C 0.03778 0.89879 0.49906 0.0
N141 N 0.03678 0.90582 0.55217 0.0
C142 C 0.02592 0.89489 0.46769 0.0
C143 C 0.01225 0.90631 0.54446 0.0
C144 C 0.02436 0.90966 0.57512 0.0
C145 C 0.01287 0.89857 0.49044 0.0
H146 H 0.0478 0.8956 0.48268 0.0
H147 H 0.02383 0.91494 0.61825 0.0
O148 O 0.08198 0.90859 0.68726 0.0
O149 O 0.06891 0.91639 0.55955 0.0
O150 O 0.06027 0.88943 0.63016 0.0
O151 O 0.05097 0.91805 0.67498 0.0
H152 H 0.10615 0.91537 0.73245 0.0
H153 H 0.07759 0.8816 0.70783 0.0
H154 H 0.12205 0.8991 0.78478 0.0
H155 H 0.09393 0.86601 0.76038 0.0
H156 H 0.08631 0.9365 0.3901 0.0
H157 H 0.09442 0.92081 0.59982 0.0
H158 H 0.06712 0.92566 0.44757 0.0
H159 H 0.11307 0.93169 0.53984 0.0
H160 H 0.12156 0.87752 0.5433 0.0
H161 H 0.08909 0.88152 0.41036 0.0
H162 H 0.08249 0.95963 0.78603 0.0
H163 H 0.07393 0.97312 0.6029 0.0
H164 H 0.03438 0.88766 0.66779 0.0
H165 H 0.06451 0.87011 0.54686 0.0
H166 H 0.01719 0.87084 0.62866 0.0
H167 H 0.04675 0.8537 0.50942 0.0
H168 H 0.04625 0.93172 0.77733 0.0
H169 H 0.04369 0.93406 0.58294 0.0
H170 H 0.0372 0.95574 0.78346 0.0
H171 H 0.03449 0.958 0.59258 0.0
H172 H 0.04648 0.91313 0.90141 0.0
H173 H 0.03277 0.8738 0.82876 0.0
H174 H 0.02702 0.88871 0.42706 0.0
H175 H 0.00252 0.90968 0.56336 0.0
Li176 Li 0.32739 0.81406 0.92814 0.0
Li177 Li 0.34949 0.82304 0.87929 0.0
Li178 Li 0.34545 0.79845 0.89151 0.0
Li179 Li 0.34941 0.81245 0.97786 0.0
C180 C 0.33038 0.80344 0.79689 0.0
N181 N 0.32341 0.78549 0.70428 0.0
C182 C 0.33926 0.80166 0.74766 0.0
C183 C 0.31793 0.79618 0.79889 0.0
C184 C 0.33556 0.7925 0.70135 0.0
C185 C 0.31459 0.78714 0.75161 0.0
C186 C 0.33915 0.83711 0.00734 0.0
C187 C 0.35064 0.84954 0.08779 0.0
N188 N 0.33834 0.85126 0.11632 0.0
C189 C 0.32662 0.83915 0.03724 0.0
C190 C 0.35125 0.84249 0.03257 0.0
C191 C 0.32643 0.84628 0.09234 0.0
C192 C 0.30315 0.80943 0.99007 0.0
N193 N 0.30823 0.81627 0.94114 0.0
C194 C 0.28594 0.82543 0.91827 0.0
C195 C 0.30002 0.82426 0.90541 0.0
C196 C 0.2804 0.81814 0.96768 0.0
C197 C 0.28918 0.81011 0.0039 0.0
H198 H 0.31001 0.80356 0.01869 0.0
H199 H 0.3044 0.82968 0.86705 0.0
C200 C 0.36688 0.83077 0.78563 0.0
N201 N 0.35685 0.83579 0.82245 0.0
C202 C 0.37238 0.83903 0.73983 0.0
C203 C 0.35705 0.85755 0.77032 0.0
C204 C 0.35188 0.84891 0.81594 0.0
C205 C 0.36739 0.85259 0.73119 0.0
H206 H 0.37054 0.82024 0.7916 0.0
H207 H 0.34375 0.85255 0.84548 0.0
C208 C 0.33899 0.78574 0.99841 0.0
N209 N 0.34658 0.76213 0.06167 0.0
C210 C 0.35268 0.78119 0.99799 0.0
C211 C 0.32914 0.77814 0.03068 0.0
C212 C 0.35631 0.76926 0.03021 0.0
C213 C 0.33319 0.76628 0.06254 0.0
C214 C 0.3757 0.81244 0.92149 0.0
C215 C 0.38583 0.80216 0.92564 0.0
C216 C 0.37938 0.82639 0.92832 0.0
C217 C 0.39944 0.806 0.93753 0.0
C218 C 0.39311 0.82981 0.94011 0.0
N219 N 0.40277 0.81963 0.9445 0.0
C220 C 0.3613 0.77886 0.82832 0.0
C221 C 0.33915 0.77075 0.85638 0.0
C222 C 0.36441 0.76611 0.80159 0.0
N223 N 0.34885 0.78092 0.85483 0.0
C224 C 0.34176 0.75788 0.82954 0.0
C225 C 0.35453 0.75543 0.8014 0.0
H226 H 0.3688 0.78716 0.82773 0.0
H227 H 0.32933 0.7727 0.87796 0.0
C228 C 0.34515 0.80942 0.09885 0.0
N229 N 0.35581 0.81092 0.05949 0.0
C230 C 0.34692 0.80203 0.15245 0.0
C231 C 0.37104 0.79943 0.12789 0.0
C232 C 0.36879 0.80691 0.07458 0.0
C233 C 0.35979 0.79608 0.16528 0.0
H234 H 0.33485 0.8123 0.08495 0.0
H235 H 0.37712 0.8081 0.04278 0.0
O236 O 0.33401 0.812 0.84359 0.0
O237 O 0.33951 0.83004 0.95345 0.0
O238 O 0.33522 0.79757 0.96793 0.0
O239 O 0.36234 0.80881 0.90946 0.0
H240 H 0.34897 0.80715 0.74566 0.0
H241 H 0.31099 0.79739 0.8369 0.0
H242 H 0.34237 0.79093 0.66318 0.0
H243 H 0.30502 0.78139 0.75268 0.0
H244 H 0.35994 0.85363 0.108 0.0
H245 H 0.3171 0.83533 0.01819 0.0
H246 H 0.36105 0.84111 0.0104 0.0
H247 H 0.31679 0.84786 0.11599 0.0
H248 H 0.27941 0.83171 0.88938 0.0
H249 H 0.28528 0.80451 0.04285 0.0
H250 H 0.38051 0.83483 0.7117 0.0
H251 H 0.3528 0.86788 0.76501 0.0
H252 H 0.36048 0.78683 0.97337 0.0
H253 H 0.31847 0.78132 0.03126 0.0
H254 H 0.36688 0.76571 0.03036 0.0
H255 H 0.32568 0.76036 0.08791 0.0
H256 H 0.38319 0.7913 0.92025 0.0
H257 H 0.37177 0.8345 0.9239 0.0
H258 H 0.40736 0.79814 0.94123 0.0
H259 H 0.39608 0.84056 0.94554 0.0
H260 H 0.37446 0.76468 0.78122 0.0
H261 H 0.33372 0.75009 0.82961 0.0
H262 H 0.33792 0.79961 0.17941 0.0
H263 H 0.38118 0.79519 0.13672 0.0
Li264 Li 0.44642 0.0901 0.09682 0.0
Li265 Li 0.43404 0.09893 0.18635 0.0
Li266 Li 0.42915 0.07572 0.14871 0.0
Li267 Li 0.42251 0.09638 0.09262 0.0
C268 C 0.45667 0.07344 0.18902 0.0
N269 N 0.47743 0.05428 0.20732 0.0
C270 C 0.46545 0.07472 0.23881 0.0
C271 C 0.45844 0.06245 0.14841 0.0
C272 C 0.4759 0.06493 0.2473 0.0
C273 C 0.46899 0.05286 0.15851 0.0
C274 C 0.43649 0.11937 0.07135 0.0
C275 C 0.4266 0.14166 0.04704 0.0
N276 N 0.43178 0.14064 0.98999 0.0
C277 C 0.44182 0.11859 0.01265 0.0
C278 C 0.42891 0.13104 0.08892 0.0
C279 C 0.43929 0.12944 0.97213 0.0
C280 C 0.46803 0.08149 0.01749 0.0
N281 N 0.464 0.0907 0.06057 0.0
C282 C 0.48537 0.10287 0.05357 0.0
C283 C 0.47239 0.10113 0.07948 0.0
C284 C 0.48977 0.09369 0.00814 0.0
C285 C 0.481 0.08277 0.99063 0.0
H286 H 0.4611 0.07329 0.00348 0.0
H287 H 0.46887 0.10823 0.11415 0.0
C288 C 0.4383 0.10056 0.31073 0.0
N289 N 0.43921 0.10797 0.25845 0.0
C290 C 0.44836 0.10214 0.35543 0.0
C291 C 0.45927 0.11971 0.29357 0.0
C292 C 0.4489 0.11799 0.25057 0.0
C293 C 0.45949 0.1111 0.34477 0.0
H294 H 0.431 0.09212 0.31421 0.0
H295 H 0.44974 0.12321 0.20738 0.0
C296 C 0.42223 0.07123 0.02763 0.0
N297 N 0.40352 0.05545 0.96311 0.0
C298 C 0.40858 0.07016 0.04735 0.0
C299 C 0.42635 0.06432 0.97501 0.0
C300 C 0.39929 0.06212 0.01411 0.0
C301 C 0.41674 0.05638 0.94306 0.0
C302 C 0.4088 0.0954 0.2224 0.0
C303 C 0.40323 0.08642 0.26568 0.0
C304 C 0.4074 0.10974 0.22973 0.0
C305 C 0.39658 0.09197 0.31629 0.0
C306 C 0.40068 0.1149 0.28096 0.0
N307 N 0.39547 0.10598 0.32286 0.0
C308 C 0.42639 0.05618 0.2392 0.0
C309 C 0.42452 0.04607 0.14168 0.0
C310 C 0.42556 0.04315 0.26649 0.0
N311 N 0.42587 0.05741 0.17794 0.0
C312 C 0.42361 0.03282 0.16711 0.0
C313 C 0.42431 0.03122 0.23031 0.0
H314 H 0.42784 0.06535 0.26679 0.0
H315 H 0.42463 0.04719 0.09308 0.0
C316 C 0.41255 0.10318 0.97796 0.0
N317 N 0.40951 0.10426 0.03783 0.0
C318 C 0.40426 0.10963 0.93479 0.0
C319 C 0.38958 0.1179 0.01551 0.0
C320 C 0.39819 0.11127 0.05727 0.0
C321 C 0.39268 0.11727 0.95332 0.0
H322 H 0.4217 0.09766 0.96382 0.0
H323 H 0.39601 0.11196 0.10516 0.0
O324 O 0.44646 0.08299 0.18002 0.0
O325 O 0.43854 0.10869 0.11117 0.0
O326 O 0.43155 0.07914 0.05883 0.0
O327 O 0.41539 0.09016 0.17266 0.0
H328 H 0.46422 0.0832 0.27051 0.0
H329 H 0.45176 0.06136 0.10946 0.0
H330 H 0.48278 0.06579 0.28564 0.0
H331 H 0.47049 0.04429 0.1275 0.0
H332 H 0.42068 0.15071 0.05988 0.0
H333 H 0.44763 0.1096 0.99817 0.0
H334 H 0.42483 0.13187 0.13433 0.0
H335 H 0.44325 0.12892 0.9264 0.0
H336 H 0.49187 0.11134 0.06862 0.0
H337 H 0.48395 0.07558 0.95521 0.0
H338 H 0.44841 0.09514 0.39385 0.0
H339 H 0.46782 0.12659 0.28379 0.0
H340 H 0.40516 0.07544 0.08778 0.0
H341 H 0.43686 0.0651 0.95903 0.0
H342 H 0.3887 0.06118 0.02886 0.0
H343 H 0.41979 0.05096 0.90229 0.0
H344 H 0.40398 0.07528 0.26015 0.0
H345 H 0.41157 0.11682 0.19646 0.0
H346 H 0.39227 0.08515 0.35028 0.0
H347 H 0.39962 0.12598 0.28742 0.0
H348 H 0.42609 0.04241 0.31537 0.0
H349 H 0.42294 0.02388 0.13749 0.0
H350 H 0.40722 0.10906 0.88759 0.0
H351 H 0.38067 0.12356 0.03176 0.0
Li352 Li 0.17565 0.81488 0.07024 0.0
Li353 Li 0.15394 0.82352 0.12295 0.0
Li354 Li 0.15765 0.79906 0.10642 0.0
Li355 Li 0.15341 0.81383 0.02268 0.0
C356 C 0.17423 0.80275 0.19745 0.0
N357 N 0.18333 0.78344 0.28092 0.0
C358 C 0.16664 0.80026 0.25013 0.0
C359 C 0.18648 0.79548 0.18735 0.0
C360 C 0.1714 0.79043 0.29171 0.0
C361 C 0.1909 0.78576 0.23011 0.0
C362 C 0.16357 0.83866 0.99622 0.0
C363 C 0.15163 0.85168 0.9189 0.0
N364 N 0.16376 0.85368 0.88941 0.0
C365 C 0.17594 0.841 0.9654 0.0
C366 C 0.15133 0.8442 0.97307 0.0
C367 C 0.17582 0.84856 0.9114 0.0
C368 C 0.19937 0.81078 0.0038 0.0
N369 N 0.19473 0.81707 0.05494 0.0
C370 C 0.21734 0.82547 0.07731 0.0
C371 C 0.20332 0.82444 0.0915 0.0
C372 C 0.22244 0.81868 0.02565 0.0
C373 C 0.21327 0.81134 0.9885 0.0
H374 H 0.19222 0.80538 0.97472 0.0
H375 H 0.19929 0.82942 0.13169 0.0
C376 C 0.13877 0.82906 0.22499 0.0
N377 N 0.14675 0.83553 0.18309 0.0
C378 C 0.13328 0.83648 0.2734 0.0
C379 C 0.14404 0.85726 0.23402 0.0
C380 C 0.14947 0.84936 0.1864 0.0
C381 C 0.13592 0.85077 0.27855 0.0
H382 H 0.13671 0.81806 0.22068 0.0
H383 H 0.15588 0.85421 0.15237 0.0
C384 C 0.16354 0.78715 0.9972 0.0
N385 N 0.15558 0.76401 0.93161 0.0
C386 C 0.14984 0.78265 0.9983 0.0
C387 C 0.17321 0.77977 0.96301 0.0
C388 C 0.14603 0.77095 0.96492 0.0
C389 C 0.16897 0.76814 0.92999 0.0
C390 C 0.12744 0.81363 0.08193 0.0
C391 C 0.11718 0.80349 0.07685 0.0
C392 C 0.12385 0.82766 0.07859 0.0
C393 C 0.10354 0.80758 0.06752 0.0
C394 C 0.11009 0.83133 0.06928 0.0
N395 N 0.1003 0.8213 0.06391 0.0
C396 C 0.14158 0.77982 0.16893 0.0
C397 C 0.1632 0.77082 0.13823 0.0
C398 C 0.13803 0.76717 0.19529 0.0
N399 N 0.15397 0.78141 0.14131 0.0
C400 C 0.16018 0.75803 0.16499 0.0
C401 C 0.14746 0.75608 0.19441 0.0
H402 H 0.13446 0.78845 0.17083 0.0
H403 H 0.17297 0.77239 0.11573 0.0
C404 C 0.15707 0.81166 0.90105 0.0
N405 N 0.14661 0.81298 0.94151 0.0
C406 C 0.15502 0.80454 0.84693 0.0
C407 C 0.131 0.80195 0.87329 0.0
C408 C 0.13353 0.80913 0.92716 0.0
C409 C 0.14207 0.7987 0.83467 0.0
H410 H 0.16744 0.81441 0.91434 0.0
H411 H 0.12537 0.81019 0.95984 0.0
O412 O 0.16954 0.81201 0.15525 0.0
O413 O 0.16353 0.83117 0.04903 0.0
O414 O 0.1675 0.79874 0.02898 0.0
O415 O 0.14083 0.80974 0.0916 0.0
H416 H 0.15712 0.80575 0.25856 0.0
H417 H 0.19241 0.79718 0.14657 0.0
H418 H 0.16559 0.78833 0.33249 0.0
H419 H 0.20033 0.78 0.22274 0.0
H420 H 0.1422 0.8559 0.90028 0.0
H421 H 0.18557 0.83707 0.98291 0.0
H422 H 0.14165 0.8426 0.99599 0.0
H423 H 0.18532 0.85037 0.88704 0.0
H424 H 0.22417 0.83119 0.10702 0.0
H425 H 0.21682 0.80614 0.94788 0.0
H426 H 0.12685 0.83113 0.30598 0.0
H427 H 0.14631 0.86826 0.23646 0.0
H428 H 0.14218 0.78814 0.02437 0.0
H429 H 0.18388 0.78294 0.96187 0.0
H430 H 0.13545 0.76741 0.96532 0.0
H431 H 0.17634 0.76239 0.90315 0.0
H432 H 0.11974 0.79257 0.07955 0.0
H433 H 0.13156 0.83565 0.08365 0.0
H434 H 0.09552 0.79984 0.06313 0.0
H435 H 0.10719 0.84216 0.06651 0.0
H436 H 0.12802 0.76616 0.21644 0.0
H437 H 0.16789 0.7499 0.16397 0.0
H438 H 0.1639 0.80221 0.81903 0.0
H439 H 0.1208 0.79782 0.86494 0.0
Li440 Li 0.43722 0.90615 0.31682 0.0
Li441 Li 0.44943 0.91093 0.41469 0.0
Li442 Li 0.42497 0.90776 0.41331 0.0
Li443 Li 0.43439 0.92846 0.37423 0.0
C444 C 0.43487 0.88213 0.41227 0.0
N445 N 0.42452 0.85825 0.46449 0.0
C446 C 0.43795 0.87897 0.47252 0.0
C447 C 0.42664 0.87311 0.37836 0.0
C448 C 0.43257 0.86686 0.49817 0.0
C449 C 0.42149 0.86109 0.40562 0.0
C450 C 0.46527 0.92183 0.33205 0.0
C451 C 0.48697 0.93103 0.36766 0.0
N452 N 0.49373 0.92309 0.3263 0.0
C453 C 0.47248 0.91376 0.29 0.0
C454 C 0.47261 0.93055 0.37119 0.0
C455 C 0.48684 0.91456 0.2877 0.0
C456 C 0.44154 0.90894 0.19485 0.0
N457 N 0.44078 0.89913 0.23888 0.0
C458 C 0.45491 0.88369 0.18184 0.0
C459 C 0.44664 0.88642 0.23222 0.0
C460 C 0.45739 0.8943 0.13931 0.0
C461 C 0.44984 0.90672 0.14423 0.0
H462 H 0.43711 0.9191 0.20262 0.0
H463 H 0.44619 0.87899 0.26891 0.0
C464 C 0.46993 0.91303 0.50636 0.0
N465 N 0.46607 0.90633 0.45502 0.0
C466 C 0.48259 0.91005 0.53323 0.0
C467 C 0.48682 0.89297 0.45505 0.0
C468 C 0.47408 0.89632 0.42961 0.0
C469 C 0.49128 0.9 0.50716 0.0
H470 H 0.46324 0.92078 0.52607 0.0
H471 H 0.47067 0.89112 0.38884 0.0
C472 C 0.40694 0.91209 0.32316 0.0
N473 N 0.38049 0.90296 0.29962 0.0
C474 C 0.39574 0.91806 0.35328 0.0
C475 C 0.40468 0.90153 0.28086 0.0
C476 C 0.38244 0.91328 0.34082 0.0
C477 C 0.39123 0.89705 0.26963 0.0
C478 C 0.43193 0.93423 0.48471 0.0
C479 C 0.41804 0.93742 0.49408 0.0
C480 C 0.44202 0.94404 0.49917 0.0
C481 C 0.41448 0.95039 0.51775 0.0
C482 C 0.43805 0.9569 0.52267 0.0
N483 N 0.42447 0.95978 0.53138 0.0
C484 C 0.4128 0.90155 0.52383 0.0
C485 C 0.40099 0.89068 0.44288 0.0
C486 C 0.40444 0.89488 0.56604 0.0
N487 N 0.41099 0.89939 0.46351 0.0
C488 C 0.39233 0.8838 0.48366 0.0
C489 C 0.3941 0.88575 0.54631 0.0
H490 H 0.42112 0.90807 0.53951 0.0
H491 H 0.40003 0.88862 0.39505 0.0
C492 C 0.44299 0.95601 0.34994 0.0
N493 N 0.43178 0.94785 0.35929 0.0
C494 C 0.44142 0.96994 0.3341 0.0
C495 C 0.41672 0.96689 0.33778 0.0
C496 C 0.41879 0.95301 0.35389 0.0
C497 C 0.42814 0.97551 0.3271 0.0
H498 H 0.45318 0.95166 0.35318 0.0
H499 H 0.41005 0.94629 0.361 0.0
O500 O 0.43968 0.89413 0.387 0.0
O501 O 0.45119 0.92099 0.33582 0.0
O502 O 0.42002 0.91673 0.3341 0.0
O503 O 0.43557 0.92174 0.45977 0.0
H504 H 0.44427 0.88589 0.49936 0.0
H505 H 0.42409 0.87549 0.33178 0.0
H506 H 0.43477 0.86432 0.54491 0.0
H507 H 0.41502 0.85406 0.3801 0.0
H508 H 0.49274 0.93763 0.3981 0.0
H509 H 0.46713 0.90685 0.25971 0.0
H510 H 0.46731 0.93662 0.40514 0.0
H511 H 0.49251 0.90834 0.25537 0.0
H512 H 0.46029 0.87385 0.17924 0.0
H513 H 0.45148 0.91527 0.11319 0.0
H514 H 0.48552 0.9155 0.57415 0.0
H515 H 0.49323 0.88521 0.43345 0.0
H516 H 0.39727 0.92618 0.38641 0.0
H517 H 0.41321 0.8968 0.25706 0.0
H518 H 0.37369 0.91774 0.36403 0.0
H519 H 0.38934 0.88886 0.23713 0.0
H520 H 0.41007 0.93003 0.48254 0.0
H521 H 0.4528 0.94184 0.49161 0.0
H522 H 0.40377 0.95301 0.52499 0.0
H523 H 0.44575 0.96462 0.53373 0.0
H524 H 0.40647 0.89644 0.61377 0.0
H525 H 0.3845 0.87684 0.4663 0.0
H526 H 0.45051 0.97614 0.32527 0.0
H527 H 0.40631 0.9708 0.33324 0.0
Li528 Li 0.34729 0.19131 0.52697 0.0
Li529 Li 0.34281 0.20481 0.61443 0.0
Li530 Li 0.34713 0.18023 0.62437 0.0
Li531 Li 0.3251 0.18912 0.57479 0.0
C532 C 0.37336 0.19147 0.58562 0.0
N533 N 0.40068 0.18495 0.5647 0.0
C534 C 0.3833 0.20198 0.58351 0.0
C535 C 0.37736 0.17764 0.57783 0.0
C536 C 0.39705 0.19847 0.57264 0.0
C537 C 0.39121 0.17456 0.56712 0.0
C538 C 0.33652 0.21796 0.50811 0.0
C539 C 0.33062 0.23755 0.445 0.0
N540 N 0.34391 0.24198 0.44744 0.0
C541 C 0.35011 0.22277 0.51014 0.0
C542 C 0.32667 0.22548 0.47553 0.0
C543 C 0.35364 0.23491 0.47922 0.0
C544 C 0.34346 0.19478 0.40599 0.0
N545 N 0.35399 0.19336 0.44609 0.0
C546 C 0.36923 0.20554 0.38006 0.0
C547 C 0.36694 0.19776 0.43251 0.0
C548 C 0.35806 0.20878 0.342 0.0
C549 C 0.34529 0.20246 0.3532 0.0
H550 H 0.33319 0.1916 0.41876 0.0
H551 H 0.37514 0.19663 0.46495 0.0
C552 C 0.35822 0.22406 0.68137 0.0
N553 N 0.34594 0.22219 0.65313 0.0
C554 C 0.36128 0.23671 0.7091 0.0
C555 C 0.33888 0.24522 0.67881 0.0
C556 C 0.33632 0.23244 0.65104 0.0
C557 C 0.35151 0.2475 0.70848 0.0
H558 H 0.36565 0.2157 0.68238 0.0
H559 H 0.32664 0.23064 0.62812 0.0
C560 C 0.33756 0.16661 0.49445 0.0
N561 N 0.33747 0.15286 0.38443 0.0
C562 C 0.32518 0.16439 0.46352 0.0
C563 C 0.34987 0.16161 0.46973 0.0
C564 C 0.32535 0.15747 0.4079 0.0
C565 C 0.34961 0.15476 0.41397 0.0
C566 C 0.32719 0.19927 0.70651 0.0
C567 C 0.33554 0.20098 0.75754 0.0
C568 C 0.31472 0.20647 0.70236 0.0
C569 C 0.3313 0.20999 0.80352 0.0
C570 C 0.31084 0.21536 0.74937 0.0
N571 N 0.31915 0.21693 0.79851 0.0
C572 C 0.36382 0.17261 0.72005 0.0
C573 C 0.35056 0.15379 0.68262 0.0
C574 C 0.36943 0.16424 0.7652 0.0
N575 N 0.35458 0.1673 0.68014 0.0
C576 C 0.35592 0.145 0.72731 0.0
C577 C 0.36542 0.15026 0.7697 0.0
H578 H 0.36678 0.18342 0.71694 0.0
H579 H 0.34309 0.14991 0.65047 0.0
C580 C 0.30117 0.19348 0.51024 0.0
N581 N 0.30605 0.18669 0.55969 0.0
C582 C 0.28728 0.19265 0.49486 0.0
C583 C 0.28373 0.17728 0.58009 0.0
C584 C 0.29772 0.1786 0.59447 0.0
C585 C 0.27838 0.18453 0.53011 0.0
H586 H 0.30812 0.19945 0.48241 0.0
H587 H 0.30194 0.17322 0.63328 0.0
O588 O 0.35988 0.19477 0.59667 0.0
O589 O 0.33286 0.20592 0.53729 0.0
O590 O 0.33755 0.17346 0.54889 0.0
O591 O 0.33135 0.19086 0.66014 0.0
H592 H 0.38042 0.21274 0.58969 0.0
H593 H 0.3699 0.16936 0.58064 0.0
H594 H 0.40483 0.20651 0.57053 0.0
H595 H 0.39443 0.16389 0.56094 0.0
H596 H 0.3231 0.24342 0.41941 0.0
H597 H 0.35791 0.21719 0.53501 0.0
H598 H 0.31607 0.22207 0.47372 0.0
H599 H 0.36413 0.23869 0.48033 0.0
H600 H 0.3793 0.21007 0.37249 0.0
H601 H 0.33635 0.20478 0.32568 0.0
H602 H 0.37122 0.238 0.73066 0.0
H603 H 0.33093 0.2531 0.67806 0.0
H604 H 0.31552 0.1679 0.48217 0.0
H605 H 0.35955 0.16313 0.4927 0.0
H606 H 0.31585 0.15575 0.38345 0.0
H607 H 0.35908 0.15096 0.39415 0.0
H608 H 0.34525 0.19554 0.76125 0.0
H609 H 0.3082 0.20532 0.66294 0.0
H610 H 0.3377 0.21149 0.8431 0.0
H611 H 0.30125 0.22105 0.74667 0.0
H612 H 0.37691 0.16868 0.79603 0.0
H613 H 0.35248 0.13432 0.72937 0.0
H614 H 0.28355 0.19822 0.45551 0.0
H615 H 0.27711 0.17094 0.60829 0.0
Li616 Li 0.078 0.09243 0.90173 0.0
Li617 Li 0.07157 0.07078 0.85219 0.0
Li618 Li 0.06702 0.093 0.80626 0.0
Li619 Li 0.05412 0.08614 0.89693 0.0
C620 C 0.09217 0.08909 0.77398 0.0
N621 N 0.10533 0.09808 0.67021 0.0
C622 C 0.09712 0.07946 0.73193 0.0
C623 C 0.0941 0.10328 0.76372 0.0
C624 C 0.1037 0.08422 0.67961 0.0
C625 C 0.10072 0.10762 0.71086 0.0
C626 C 0.07787 0.06847 0.97476 0.0
C627 C 0.08277 0.05461 0.06316 0.0
N628 N 0.0962 0.05375 0.04589 0.0
C629 C 0.09173 0.06747 0.95793 0.0
C630 C 0.07336 0.06202 0.02785 0.0
C631 C 0.10082 0.05998 0.9945 0.0
C632 C 0.08692 0.10096 0.01539 0.0
N633 N 0.0906 0.10117 0.95602 0.0
C634 C 0.11076 0.11439 0.97921 0.0
C635 C 0.10232 0.10759 0.93726 0.0
C636 C 0.10709 0.1145 0.04086 0.0
C637 C 0.09503 0.10758 0.05868 0.0
H638 H 0.07748 0.09589 0.02898 0.0
H639 H 0.10502 0.10756 0.8898 0.0
C640 C 0.07416 0.04972 0.76904 0.0
N641 N 0.07511 0.052 0.82962 0.0
C642 C 0.07544 0.03634 0.74565 0.0
C643 C 0.07871 0.02777 0.8475 0.0
C644 C 0.07729 0.04135 0.86901 0.0
C645 C 0.07765 0.02513 0.78508 0.0
H646 H 0.07212 0.05834 0.73893 0.0
H647 H 0.07756 0.04326 0.91712 0.0
C648 C 0.06397 0.11577 0.91261 0.0
N649 N 0.06819 0.13854 0.98649 0.0
C650 C 0.05819 0.11616 0.97056 0.0
C651 C 0.07175 0.12703 0.89195 0.0
C652 C 0.06048 0.12776 0.00728 0.0
C653 C 0.07381 0.13842 0.93008 0.0
C654 C 0.04464 0.06703 0.81299 0.0
C655 C 0.03657 0.06573 0.76091 0.0
C656 C 0.04283 0.05774 0.86098 0.0
C657 C 0.02679 0.05511 0.75766 0.0
C658 C 0.03294 0.04726 0.85596 0.0
N659 N 0.02519 0.04617 0.80484 0.0
C660 C 0.06263 0.09147 0.68304 0.0
C661 C 0.05554 0.11266 0.72813 0.0
C662 C 0.05379 0.09362 0.63415 0.0
N663 N 0.06281 0.10062 0.72986 0.0
C664 C 0.04657 0.11524 0.68001 0.0
C665 C 0.04497 0.1052 0.63426 0.0
H666 H 0.06804 0.0817 0.68706 0.0
H667 H 0.05551 0.11947 0.76708 0.0
C668 C 0.03322 0.08103 0.98444 0.0
N669 N 0.03647 0.08757 0.9319 0.0
C670 C 0.02022 0.08289 0.01021 0.0
C671 C 0.0142 0.09808 0.92702 0.0
C672 C 0.0273 0.09589 0.90281 0.0
C673 C 0.01054 0.09157 0.98158 0.0
H674 H 0.04078 0.07454 0.00662 0.0
H675 H 0.03026 0.10095 0.86104 0.0
O676 O 0.08559 0.08465 0.82522 0.0
O677 O 0.06873 0.07587 0.94029 0.0
O678 O 0.06214 0.10436 0.87656 0.0
O679 O 0.05431 0.07732 0.81655 0.0
H680 H 0.09596 0.06843 0.73967 0.0
H681 H 0.0904 0.11084 0.79598 0.0
H682 H 0.10753 0.07688 0.64655 0.0
H683 H 0.10218 0.11858 0.70214 0.0
H684 H 0.07941 0.04955 0.10432 0.0
H685 H 0.09547 0.0724 0.91721 0.0
H686 H 0.06268 0.06272 0.04164 0.0
H687 H 0.11156 0.05912 0.98201 0.0
H688 H 0.12003 0.11952 0.96359 0.0
H689 H 0.09164 0.10761 0.1054 0.0
H690 H 0.07463 0.03478 0.69721 0.0
H691 H 0.08015 0.01937 0.87951 0.0
H692 H 0.05221 0.10752 0.98745 0.0
H693 H 0.07617 0.12697 0.84702 0.0
H694 H 0.05617 0.12815 0.05242 0.0
H695 H 0.07988 0.14717 0.91481 0.0
H696 H 0.03786 0.07285 0.7234 0.0
H697 H 0.049 0.05857 0.90159 0.0
H698 H 0.02047 0.05397 0.71762 0.0
H699 H 0.03143 0.03998 0.89269 0.0
H700 H 0.05278 0.08552 0.6004 0.0
H701 H 0.04005 0.12437 0.68142 0.0
H702 H 0.01788 0.07784 0.05282 0.0
H703 H 0.00702 0.10474 0.90325 0.0
Li704 Li 0.82639 0.81397 0.58848 0.0
Li705 Li 0.84336 0.79648 0.62573 0.0
Li706 Li 0.84705 0.82109 0.63529 0.0
Li707 Li 0.84779 0.81043 0.53479 0.0
C708 C 0.83255 0.8138 0.73176 0.0
N709 N 0.83449 0.82234 0.85092 0.0
C710 C 0.83971 0.80572 0.77392 0.0
C711 C 0.82619 0.8261 0.75042 0.0
C712 C 0.84061 0.81024 0.83391 0.0
C713 C 0.82735 0.83028 0.81079 0.0
C714 C 0.83453 0.78515 0.51461 0.0
C715 C 0.84856 0.76618 0.47869 0.0
N716 N 0.83799 0.76189 0.44286 0.0
C717 C 0.8238 0.78055 0.47752 0.0
C718 C 0.84704 0.77795 0.51509 0.0
C719 C 0.82576 0.76878 0.44148 0.0
C720 C 0.80346 0.81695 0.51391 0.0
N721 N 0.80738 0.81695 0.57298 0.0
C722 C 0.78409 0.82015 0.60496 0.0
C723 C 0.79807 0.81854 0.61842 0.0
C724 C 0.77973 0.82016 0.54423 0.0
C725 C 0.78964 0.81866 0.4984 0.0
H726 H 0.81109 0.81547 0.47884 0.0
H727 H 0.80149 0.81839 0.66502 0.0
C728 C 0.85904 0.77563 0.68038 0.0
N729 N 0.84618 0.77868 0.66017 0.0
C730 C 0.86192 0.76257 0.70443 0.0
C731 C 0.8382 0.75604 0.68693 0.0
C732 C 0.83581 0.76923 0.66267 0.0
C733 C 0.85141 0.75257 0.70845 0.0
H734 H 0.86704 0.78339 0.67796 0.0
H735 H 0.82568 0.77197 0.646 0.0
C736 C 0.83052 0.83825 0.53683 0.0
N737 N 0.81183 0.85749 0.49352 0.0
C738 C 0.82954 0.84081 0.47469 0.0
C739 C 0.82219 0.84568 0.57702 0.0
C740 C 0.81998 0.85053 0.45366 0.0
C741 C 0.81274 0.8553 0.55423 0.0
C742 C 0.87302 0.81249 0.59397 0.0
C743 C 0.87406 0.82601 0.57114 0.0
C744 C 0.88503 0.80489 0.60538 0.0
C745 C 0.88707 0.83169 0.56026 0.0
C746 C 0.89785 0.81094 0.59383 0.0
N747 N 0.89859 0.8241 0.57172 0.0
C748 C 0.86429 0.8275 0.73045 0.0
C749 C 0.85303 0.84752 0.69238 0.0
C750 C 0.87046 0.83524 0.77619 0.0
N751 N 0.85563 0.83365 0.69028 0.0
C752 C 0.85914 0.85575 0.73727 0.0
C753 C 0.86794 0.84959 0.78027 0.0
H754 H 0.86611 0.81643 0.72778 0.0
H755 H 0.84614 0.85216 0.65969 0.0
C756 C 0.84459 0.80681 0.41236 0.0
N757 N 0.85466 0.80768 0.45492 0.0
C758 C 0.84654 0.79873 0.36069 0.0
C759 C 0.86979 0.79404 0.39394 0.0
C760 C 0.86736 0.80213 0.44531 0.0
C761 C 0.85898 0.79148 0.35308 0.0
H762 H 0.83442 0.81079 0.42233 0.0
H763 H 0.87511 0.80256 0.48021 0.0
O764 O 0.83184 0.8097 0.67251 0.0
O765 O 0.83288 0.79686 0.54898 0.0
O766 O 0.83965 0.8286 0.5582 0.0
O767 O 0.8604 0.80666 0.60542 0.0
H768 H 0.84467 0.79616 0.76037 0.0
H769 H 0.82051 0.83241 0.71859 0.0
H770 H 0.84622 0.80416 0.8669 0.0
H771 H 0.82258 0.83984 0.82572 0.0
H772 H 0.85818 0.76051 0.47865 0.0
H773 H 0.81409 0.78608 0.4763 0.0
H774 H 0.85555 0.78149 0.5427 0.0
H775 H 0.81756 0.76513 0.41238 0.0
H776 H 0.77676 0.82134 0.64159 0.0
H777 H 0.78669 0.8184 0.45111 0.0
H778 H 0.87229 0.76035 0.71972 0.0
H779 H 0.82971 0.74878 0.69003 0.0
H780 H 0.8361 0.83537 0.44304 0.0
H781 H 0.82288 0.8439 0.62521 0.0
H782 H 0.81905 0.85255 0.40565 0.0
H783 H 0.80613 0.86101 0.5848 0.0
H784 H 0.86498 0.83213 0.562 0.0
H785 H 0.88449 0.7944 0.62258 0.0
H786 H 0.888 0.84213 0.54271 0.0
H787 H 0.9072 0.80516 0.60238 0.0
H788 H 0.87691 0.82993 0.80879 0.0
H789 H 0.85703 0.86679 0.73809 0.0
H790 H 0.83784 0.79692 0.33101 0.0
H791 H 0.8796 0.78879 0.38932 0.0
Li792 Li 0.93001 0.09702 0.39807 0.0
Li793 Li 0.95373 0.09111 0.38995 0.0
Li794 Li 0.94114 0.09608 0.29918 0.0
Li795 Li 0.93714 0.0741 0.35011 0.0
C796 C 0.94005 0.12225 0.36099 0.0
N797 N 0.92934 0.14877 0.35006 0.0
C798 C 0.94409 0.13273 0.40114 0.0
C799 C 0.9306 0.12532 0.31521 0.0
C800 C 0.93855 0.14605 0.39493 0.0
C801 C 0.9253 0.13876 0.31039 0.0
C802 C 0.94752 0.0746 0.47841 0.0
C803 C 0.96359 0.05681 0.50885 0.0
N804 N 0.96505 0.06318 0.56347 0.0
C805 C 0.94913 0.08093 0.53493 0.0
C806 C 0.95477 0.06242 0.46524 0.0
C807 C 0.95806 0.07501 0.57728 0.0
C808 C 0.90389 0.1057 0.44992 0.0
N809 N 0.91788 0.10587 0.45297 0.0
C810 C 0.91725 0.11853 0.54581 0.0
C811 C 0.92458 0.11211 0.49949 0.0
C812 C 0.90277 0.11875 0.54407 0.0
C813 C 0.89608 0.11222 0.49509 0.0
H814 H 0.8988 0.10046 0.41285 0.0
H815 H 0.93572 0.11195 0.50084 0.0
C816 C 0.98155 0.0845 0.42499 0.0
N817 N 0.97081 0.09344 0.43158 0.0
C818 C 0.99399 0.08701 0.45497 0.0
C819 C 0.98397 0.10775 0.4982 0.0
C820 C 0.97176 0.1048 0.46768 0.0
C821 C 0.99533 0.09881 0.49212 0.0
H822 H 0.98046 0.07542 0.3965 0.0
H823 H 0.96297 0.11156 0.47285 0.0
C824 C 0.91306 0.08888 0.27953 0.0
N825 N 0.89258 0.09072 0.19284 0.0
C826 C 0.9111 0.07809 0.23805 0.0
C827 C 0.90435 0.10044 0.27785 0.0
C828 C 0.90077 0.07926 0.19429 0.0
C829 C 0.89413 0.10123 0.23343 0.0
C830 C 0.96662 0.08291 0.28348 0.0
C831 C 0.9733 0.09574 0.28801 0.0
C832 C 0.97246 0.07241 0.24805 0.0
C833 C 0.98559 0.09791 0.25649 0.0
C834 C 0.98478 0.07497 0.21728 0.0
N835 N 0.99102 0.08757 0.22199 0.0
C836 C 0.95262 0.11295 0.20688 0.0
C837 C 0.94219 0.09187 0.17582 0.0
C838 C 0.9609 0.11305 0.1551 0.0
N839 N 0.94415 0.10199 0.21781 0.0
C840 C 0.95005 0.0917 0.12305 0.0
C841 C 0.96033 0.10177 0.11464 0.0
H842 H 0.95449 0.12054 0.24201 0.0
H843 H 0.93597 0.08293 0.18669 0.0
C844 C 0.92528 0.04704 0.37053 0.0
N845 N 0.93301 0.05526 0.3337 0.0
C846 C 0.92299 0.03311 0.35515 0.0
C847 C 0.93659 0.03656 0.26461 0.0
C848 C 0.93843 0.05038 0.28117 0.0
C849 C 0.9289 0.02773 0.30202 0.0
H850 H 0.92104 0.05126 0.41192 0.0
H851 H 0.94415 0.05729 0.25204 0.0
O852 O 0.94514 0.10903 0.36738 0.0
O853 O 0.93921 0.08047 0.43546 0.0
O854 O 0.92298 0.08778 0.32342 0.0
O855 O 0.95447 0.08058 0.31356 0.0
H856 H 0.95136 0.13063 0.43702 0.0
H857 H 0.92743 0.11745 0.28344 0.0
H858 H 0.94156 0.15422 0.42584 0.0
H859 H 0.91798 0.14124 0.27509 0.0
H860 H 0.96933 0.04744 0.49914 0.0
H861 H 0.94362 0.09036 0.54589 0.0
H862 H 0.95377 0.05748 0.42147 0.0
H863 H 0.95946 0.07983 0.6211 0.0
H864 H 0.92292 0.12308 0.58306 0.0
H865 H 0.88496 0.11221 0.4914 0.0
H866 H 0.00237 0.07968 0.44991 0.0
H867 H 0.98453 0.117 0.52598 0.0
H868 H 0.91752 0.06892 0.2394 0.0
H869 H 0.9054 0.10871 0.31066 0.0
H870 H 0.89924 0.07104 0.16159 0.0
H871 H 0.88739 0.11017 0.23141 0.0
H872 H 0.96901 0.10402 0.3152 0.0
H873 H 0.96759 0.06235 0.24435 0.0
H874 H 0.99078 0.10783 0.25934 0.0
H875 H 0.98936 0.06695 0.18951 0.0
H876 H 0.96875 0.12098 0.15097 0.0
H877 H 0.94907 0.08296 0.09248 0.0
H878 H 0.91703 0.02653 0.38508 0.0
H879 H 0.94114 0.03279 0.22291 0.0
Li880 Li 0.65793 0.19634 0.12299 0.0
Li881 Li 0.67523 0.17947 0.08333 0.0
Li882 Li 0.65381 0.18293 0.03008 0.0
Li883 Li 0.65479 0.17165 0.12962 0.0
C884 C 0.66643 0.2087 0.01382 0.0
N885 N 0.66245 0.23262 0.94695 0.0
C886 C 0.67707 0.21397 0.978 0.0
C887 C 0.65373 0.21556 0.01544 0.0
C888 C 0.67485 0.22606 0.94439 0.0
C889 C 0.65196 0.22767 0.98158 0.0
C890 C 0.6693 0.17867 0.22678 0.0
C891 C 0.67496 0.16183 0.30378 0.0
N892 N 0.66767 0.16935 0.34493 0.0
C893 C 0.662 0.18631 0.27 0.0
C894 C 0.67597 0.16641 0.24391 0.0
C895 C 0.66126 0.1814 0.32945 0.0
C896 C 0.64157 0.21576 0.18213 0.0
N897 N 0.65442 0.21377 0.15951 0.0
C898 C 0.6608 0.23701 0.18482 0.0
C899 C 0.66403 0.22403 0.16028 0.0
C900 C 0.64754 0.23941 0.20847 0.0
C901 C 0.63786 0.22856 0.20662 0.0
H902 H 0.63419 0.20738 0.18104 0.0
H903 H 0.67416 0.22213 0.14159 0.0
C904 C 0.69765 0.17863 0.00659 0.0
N905 N 0.69421 0.17701 0.06577 0.0
C906 C 0.71131 0.17741 0.98814 0.0
C907 C 0.71772 0.17275 0.09201 0.0
C908 C 0.70386 0.17407 0.1085 0.0
C909 C 0.7216 0.17457 0.03112 0.0
H910 H 0.68972 0.18093 0.9737 0.0
H911 H 0.70082 0.17291 0.15533 0.0
C912 C 0.62862 0.18004 0.08867 0.0
N913 N 0.60322 0.1683 0.06416 0.0
C914 C 0.62776 0.16653 0.06553 0.0
C915 C 0.61653 0.18756 0.09923 0.0
C916 C 0.61483 0.16079 0.05351 0.0
C917 C 0.6038 0.18145 0.08654 0.0
C918 C 0.67166 0.15547 0.02916 0.0
C919 C 0.67277 0.15333 0.96676 0.0
C920 C 0.68014 0.14801 0.06862 0.0
C921 C 0.68261 0.14401 0.94479 0.0
C922 C 0.68987 0.13881 0.04491 0.0
N923 N 0.69091 0.13703 0.98399 0.0
C924 C 0.65714 0.18727 0.90813 0.0
C925 C 0.63437 0.19185 0.94121 0.0
C926 C 0.65528 0.19568 0.85738 0.0
N927 N 0.64701 0.18615 0.95034 0.0
C928 C 0.63204 0.20031 0.89088 0.0
C929 C 0.6429 0.20304 0.85043 0.0
H930 H 0.66729 0.18321 0.9178 0.0
H931 H 0.6266 0.19123 0.97598 0.0
C932 C 0.63787 0.16454 0.22499 0.0
N933 N 0.6466 0.1587 0.18418 0.0
C934 C 0.63246 0.15666 0.27217 0.0
C935 C 0.6445 0.13661 0.23282 0.0
C936 C 0.64985 0.14497 0.18657 0.0
C937 C 0.63589 0.14256 0.277 0.0
H938 H 0.63547 0.17549 0.22191 0.0
H939 H 0.65683 0.14059 0.15357 0.0
O940 O 0.66838 0.19673 0.04618 0.0
O941 O 0.66984 0.18313 0.16798 0.0
O942 O 0.64116 0.18593 0.10112 0.0
O943 O 0.66226 0.16474 0.05148 0.0
H944 H 0.68693 0.20873 0.97598 0.0
H945 H 0.64529 0.21151 0.04212 0.0
H946 H 0.68299 0.23024 0.9163 0.0
H947 H 0.64221 0.2331 0.98258 0.0
H948 H 0.67995 0.15229 0.3175 0.0
H949 H 0.65682 0.19583 0.25768 0.0
H950 H 0.68175 0.16042 0.21129 0.0
H951 H 0.65554 0.18714 0.36322 0.0
H952 H 0.66867 0.24497 0.18619 0.0
H953 H 0.62749 0.22995 0.22364 0.0
H954 H 0.71379 0.17867 0.94065 0.0
H955 H 0.72534 0.17069 0.12668 0.0
H956 H 0.63692 0.16047 0.05709 0.0
H957 H 0.61696 0.19805 0.1166 0.0
H958 H 0.61403 0.15035 0.03572 0.0
H959 H 0.59438 0.18717 0.09441 0.0
H960 H 0.66608 0.15876 0.93561 0.0
H961 H 0.67936 0.14948 0.11698 0.0
H962 H 0.68364 0.14232 0.89658 0.0
H963 H 0.69661 0.1331 0.07494 0.0
H964 H 0.66401 0.19762 0.828 0.0
H965 H 0.62228 0.20568 0.88677 0.0
H966 H 0.62567 0.16158 0.30469 0.0
H967 H 0.64735 0.12575 0.23505 0.0
Li968 Li 0.55015 0.90591 0.90538 0.0
Li969 Li 0.57363 0.90216 0.90856 0.0
Li970 Li 0.56536 0.92309 0.85734 0.0
Li971 Li 0.5623 0.89828 0.81279 0.0
C972 C 0.55623 0.92292 0.99137 0.0
N973 N 0.53977 0.93172 0.08593 0.0
C974 C 0.55421 0.91437 0.04173 0.0
C975 C 0.54997 0.93598 0.98923 0.0
C976 C 0.54581 0.91899 0.08901 0.0
C977 C 0.54168 0.94024 0.03751 0.0
C978 C 0.56449 0.87584 0.90897 0.0
C979 C 0.57536 0.85371 0.89056 0.0
N980 N 0.5752 0.85106 0.95106 0.0
C981 C 0.56434 0.87285 0.97094 0.0
C982 C 0.56998 0.86617 0.86836 0.0
C983 C 0.56985 0.86029 0.99133 0.0
C984 C 0.52346 0.91426 0.94928 0.0
N985 N 0.53259 0.90361 0.94389 0.0
C986 C 0.51676 0.88797 0.99106 0.0
C987 C 0.52941 0.89061 0.96348 0.0
C988 C 0.5072 0.89878 0.99789 0.0
C989 C 0.51061 0.91206 0.97616 0.0
H990 H 0.52613 0.92447 0.93271 0.0
H991 H 0.53667 0.88224 0.95746 0.0
C992 C 0.59057 0.90312 0.01205 0.0
N993 N 0.58836 0.89585 0.96017 0.0
C994 C 0.5999 0.8983 0.0553 0.0
C995 C 0.605 0.87886 0.98996 0.0
C996 C 0.59577 0.88422 0.9475 0.0
C997 C 0.60697 0.88574 0.04557 0.0
H998 H 0.58484 0.91254 0.0206 0.0
H999 H 0.59413 0.87876 0.90545 0.0
C1000 C 0.53558 0.91628 0.80887 0.0
N1001 N 0.50832 0.92087 0.77875 0.0
C1002 C 0.52675 0.90506 0.7985 0.0
C1003 C 0.53052 0.92983 0.80445 0.0
C1004 C 0.51301 0.90759 0.78315 0.0
C1005 C 0.51671 0.93194 0.78907 0.0
C1006 C 0.59311 0.90726 0.82852 0.0
C1007 C 0.60149 0.91663 0.85987 0.0
C1008 C 0.59896 0.89567 0.8005 0.0
C1009 C 0.61564 0.91411 0.86332 0.0
C1010 C 0.61317 0.89354 0.80491 0.0
N1011 N 0.62114 0.90272 0.83603 0.0
C1012 C 0.57311 0.95171 0.86783 0.0
C1013 C 0.56465 0.94419 0.77262 0.0
C1014 C 0.57458 0.96527 0.84599 0.0
N1015 N 0.56806 0.94159 0.83116 0.0
C1016 C 0.56591 0.95756 0.74898 0.0
C1017 C 0.57087 0.96835 0.78584 0.0
H1018 H 0.57593 0.94927 0.91402 0.0
H1019 H 0.56073 0.93587 0.74451 0.0
C1020 C 0.54892 0.88005 0.73437 0.0
N1021 N 0.55859 0.89023 0.7371 0.0
C1022 C 0.54027 0.87912 0.68402 0.0
C1023 C 0.55304 0.89787 0.6375 0.0
C1024 C 0.56135 0.89852 0.68892 0.0
C1025 C 0.54168 0.88881 0.63679 0.0
H1026 H 0.5466 0.87401 0.77441 0.0
H1027 H 0.56881 0.90682 0.6934 0.0
O1028 O 0.56424 0.91848 0.94427 0.0
O1029 O 0.55907 0.88803 0.88798 0.0
O1030 O 0.54909 0.91403 0.82351 0.0
O1031 O 0.57923 0.9094 0.82556 0.0
H1032 H 0.55898 0.90423 0.04403 0.0
H1033 H 0.55132 0.94268 0.95036 0.0
H1034 H 0.54409 0.91245 0.1281 0.0
H1035 H 0.5367 0.95029 0.03634 0.0
H1036 H 0.57971 0.84617 0.8597 0.0
H1037 H 0.56014 0.88022 0.00299 0.0
H1038 H 0.57022 0.86833 0.8203 0.0
H1039 H 0.5699 0.85789 0.03918 0.0
H1040 H 0.51446 0.87756 0.00663 0.0
H1041 H 0.50356 0.9207 0.9811 0.0
H1042 H 0.60135 0.90425 0.09639 0.0
H1043 H 0.61005 0.8691 0.98006 0.0
H1044 H 0.53037 0.89452 0.8034 0.0
H1045 H 0.53714 0.93864 0.81317 0.0
H1046 H 0.50607 0.899 0.77506 0.0
H1047 H 0.51266 0.94237 0.78545 0.0
H1048 H 0.59707 0.92565 0.88179 0.0
H1049 H 0.59257 0.88834 0.77614 0.0
H1050 H 0.62226 0.92121 0.88777 0.0
H1051 H 0.61785 0.88457 0.78377 0.0
H1052 H 0.57863 0.97323 0.87574 0.0
H1053 H 0.56274 0.95945 0.7027 0.0
H1054 H 0.53159 0.87207 0.68571 0.0
H1055 H 0.5546 0.90537 0.60159 0.0
Li1056 Li 0.84717 0.18601 0.96863 0.0
Li1057 Li 0.84775 0.1736 0.87538 0.0
Li1058 Li 0.84212 0.19783 0.8729 0.0
Li1059 Li 0.8256 0.17942 0.91587 0.0
C1060 C 0.87271 0.18504 0.91365 0.0
N1061 N 0.89895 0.17592 0.9419 0.0
C1062 C 0.87458 0.17263 0.94539 0.0
C1063 C 0.88422 0.19283 0.89633 0.0
C1064 C 0.88791 0.16818 0.95922 0.0
C1065 C 0.89739 0.18804 0.91104 0.0
C1066 C 0.83743 0.15311 0.95556 0.0
C1067 C 0.82476 0.13282 0.9238 0.0
N1068 N 0.83305 0.12475 0.95881 0.0
C1069 C 0.84574 0.14462 0.9917 0.0
C1070 C 0.82678 0.14718 0.9217 0.0
C1071 C 0.8434 0.1303 0.99252 0.0
C1072 C 0.84384 0.19002 0.09237 0.0
N1073 N 0.85328 0.19115 0.04716 0.0
C1074 C 0.86542 0.20872 0.10138 0.0
C1075 C 0.86433 0.19974 0.05213 0.0
C1076 C 0.85484 0.20911 0.14476 0.0
C1077 C 0.84442 0.199 0.14205 0.0
H1078 H 0.83492 0.18344 0.08614 0.0
H1079 H 0.87145 0.20083 0.01494 0.0
C1080 C 0.86572 0.16821 0.78385 0.0
N1081 N 0.8579 0.16111 0.8244 0.0
C1082 C 0.87301 0.16123 0.73904 0.0
C1083 C 0.86461 0.13952 0.77949 0.0
C1084 C 0.85727 0.14699 0.82335 0.0
C1085 C 0.87257 0.14667 0.73623 0.0
H1086 H 0.86595 0.17944 0.78521 0.0
H1087 H 0.851 0.14149 0.85571 0.0
C1088 C 0.82944 0.20878 0.98556 0.0
N1089 N 0.82582 0.23119 0.06205 0.0
C1090 C 0.81822 0.20916 0.02514 0.0
C1091 C 0.83887 0.21976 0.9851 0.0
C1092 C 0.81661 0.22055 0.06372 0.0
C1093 C 0.83678 0.23105 0.0237 0.0
C1094 C 0.83315 0.17766 0.77344 0.0
C1095 C 0.83956 0.1857 0.7289 0.0
C1096 C 0.8281 0.16449 0.75862 0.0
C1097 C 0.8411 0.18029 0.67057 0.0
C1098 C 0.82986 0.15944 0.69981 0.0
N1099 N 0.83628 0.16737 0.65739 0.0
C1100 C 0.85636 0.21856 0.81136 0.0
C1101 C 0.83314 0.22436 0.83294 0.0
C1102 C 0.8587 0.23169 0.7869 0.0
N1103 N 0.84379 0.21521 0.83401 0.0
C1104 C 0.83499 0.23762 0.80857 0.0
C1105 C 0.84795 0.24146 0.78536 0.0
H1106 H 0.86461 0.21104 0.81285 0.0
H1107 H 0.82328 0.2214 0.85176 0.0
C1108 C 0.80317 0.17237 0.98858 0.0
N1109 N 0.8068 0.17574 0.93104 0.0
C1110 C 0.7893 0.17104 0.00419 0.0
C1111 C 0.78323 0.17627 0.90043 0.0
C1112 C 0.79723 0.17752 0.88687 0.0
C1113 C 0.77909 0.17324 0.96007 0.0
H1114 H 0.81106 0.17117 0.02278 0.0
H1115 H 0.80047 0.18026 0.84154 0.0
O1116 O 0.85973 0.18956 0.89913 0.0
O1117 O 0.83955 0.16716 0.95472 0.0
O1118 O 0.83112 0.19777 0.94713 0.0
O1119 O 0.83184 0.18268 0.83114 0.0
H1120 H 0.86587 0.16645 0.95911 0.0
H1121 H 0.88301 0.20249 0.872 0.0
H1122 H 0.88948 0.15858 0.98369 0.0
H1123 H 0.90637 0.19398 0.89794 0.0
H1124 H 0.81659 0.1281 0.89759 0.0
H1125 H 0.85391 0.14905 0.01897 0.0
H1126 H 0.82017 0.15356 0.89402 0.0
H1127 H 0.84979 0.12361 0.02009 0.0
H1128 H 0.87374 0.21622 0.10229 0.0
H1129 H 0.83597 0.19902 0.17409 0.0
H1130 H 0.87868 0.16728 0.7061 0.0
H1131 H 0.86408 0.12829 0.77964 0.0
H1132 H 0.81084 0.20073 0.02615 0.0
H1133 H 0.84772 0.21955 0.95535 0.0
H1134 H 0.808 0.22096 0.09478 0.0
H1135 H 0.8439 0.23969 0.02327 0.0
H1136 H 0.84347 0.19593 0.7394 0.0
H1137 H 0.82298 0.15817 0.79215 0.0
H1138 H 0.84615 0.18635 0.63583 0.0
H1139 H 0.82613 0.14921 0.6879 0.0
H1140 H 0.86888 0.23421 0.77005 0.0
H1141 H 0.82634 0.24471 0.80734 0.0
H1142 H 0.78661 0.16888 0.05083 0.0
H1143 H 0.77572 0.17786 0.86484 0.0
Li1144 Li 0.56532 0.07021 0.62623 0.0
Li1145 Li 0.55949 0.09151 0.67784 0.0
Li1146 Li 0.55069 0.08659 0.57518 0.0
Li1147 Li 0.57477 0.09211 0.58787 0.0
C1148 C 0.5411 0.06506 0.67475 0.0
N1149 N 0.53009 0.04092 0.72222 0.0
C1150 C 0.54404 0.06117 0.73434 0.0
C1151 C 0.53243 0.05674 0.63953 0.0
C1152 C 0.53842 0.04891 0.75744 0.0
C1153 C 0.52699 0.04457 0.6643 0.0
C1154 C 0.58762 0.09107 0.69987 0.0
C1155 C 0.59545 0.1132 0.7379 0.0
N1156 N 0.60687 0.10693 0.76088 0.0
C1157 C 0.59942 0.08485 0.72389 0.0
C1158 C 0.58559 0.10536 0.70695 0.0
C1159 C 0.60903 0.09305 0.75459 0.0
C1160 C 0.56491 0.04051 0.61031 0.0
N1161 N 0.56899 0.05129 0.6458 0.0
C1162 C 0.57622 0.03568 0.72368 0.0
C1163 C 0.57479 0.04912 0.70102 0.0
C1164 C 0.57168 0.02434 0.68905 0.0
C1165 C 0.5662 0.02685 0.63113 0.0
H1166 H 0.56026 0.04249 0.56679 0.0
H1167 H 0.57781 0.0579 0.72854 0.0
C1168 C 0.54149 0.10596 0.74917 0.0
N1169 N 0.5533 0.09845 0.75284 0.0
C1170 C 0.53322 0.1077 0.80007 0.0
C1171 C 0.54973 0.09443 0.85832 0.0
C1172 C 0.55785 0.09316 0.80629 0.0
C1173 C 0.53698 0.10131 0.85477 0.0
H1174 H 0.53785 0.10943 0.70551 0.0
H1175 H 0.56705 0.08682 0.80727 0.0
C1176 C 0.56222 0.07297 0.48422 0.0
N1177 N 0.5525 0.06633 0.37013 0.0
C1178 C 0.56819 0.07894 0.43279 0.0
C1179 C 0.55138 0.06355 0.47747 0.0
C1180 C 0.56312 0.07547 0.37555 0.0
C1181 C 0.54658 0.06036 0.41948 0.0
C1182 C 0.55601 0.11526 0.56995 0.0
C1183 C 0.56031 0.11517 0.50959 0.0
C1184 C 0.54893 0.1268 0.59254 0.0
C1185 C 0.55735 0.12655 0.4726 0.0
C1186 C 0.54615 0.13798 0.55412 0.0
N1187 N 0.55038 0.13763 0.49543 0.0
C1188 C 0.52221 0.0886 0.55744 0.0
C1189 C 0.53502 0.09481 0.47039 0.0
C1190 C 0.50989 0.09212 0.5286 0.0
N1191 N 0.53445 0.08994 0.5281 0.0
C1192 C 0.52301 0.09875 0.44032 0.0
C1193 C 0.51016 0.09744 0.46932 0.0
H1194 H 0.52201 0.08501 0.6038 0.0
H1195 H 0.54481 0.09599 0.44794 0.0
C1196 C 0.59829 0.09247 0.51437 0.0
N1197 N 0.59023 0.10064 0.54991 0.0
C1198 C 0.60786 0.09846 0.47503 0.0
C1199 C 0.60135 0.12107 0.513 0.0
C1200 C 0.59199 0.11463 0.55194 0.0
C1201 C 0.6091 0.113 0.47222 0.0
H1202 H 0.59672 0.08135 0.51407 0.0
H1203 H 0.58551 0.12088 0.58098 0.0
O1204 O 0.54684 0.07684 0.65077 0.0
O1205 O 0.57818 0.08312 0.66952 0.0
O1206 O 0.56701 0.07627 0.54076 0.0
O1207 O 0.55883 0.10423 0.60707 0.0
H1208 H 0.55083 0.06736 0.76207 0.0
H1209 H 0.52992 0.05963 0.59354 0.0
H1210 H 0.54073 0.0457 0.80328 0.0
H1211 H 0.52031 0.03801 0.63745 0.0
H1212 H 0.59402 0.12426 0.74366 0.0
H1213 H 0.60114 0.0738 0.71877 0.0
H1214 H 0.57653 0.1104 0.6889 0.0
H1215 H 0.61822 0.08837 0.77339 0.0
H1216 H 0.58064 0.03419 0.76824 0.0
H1217 H 0.56246 0.01841 0.6032 0.0
H1218 H 0.52335 0.11283 0.79508 0.0
H1219 H 0.55292 0.08933 0.89971 0.0
H1220 H 0.57657 0.08627 0.43685 0.0
H1221 H 0.54658 0.05891 0.51661 0.0
H1222 H 0.56761 0.08006 0.33543 0.0
H1223 H 0.53813 0.05316 0.41372 0.0
H1224 H 0.56582 0.10637 0.49137 0.0
H1225 H 0.54566 0.12716 0.63932 0.0
H1226 H 0.56059 0.12657 0.42574 0.0
H1227 H 0.54066 0.14696 0.57102 0.0
H1228 H 0.5003 0.09066 0.55274 0.0
H1229 H 0.52389 0.10306 0.39525 0.0
H1230 H 0.61384 0.09179 0.44556 0.0
H1231 H 0.60185 0.13231 0.51241 0.0
Li1232 Li 0.65567 0.82496 0.37077 0.0
Li1233 Li 0.65385 0.81289 0.46788 0.0
Li1234 Li 0.67584 0.81699 0.41959 0.0
Li1235 Li 0.659 0.80015 0.37413 0.0
C1236 C 0.67113 0.84089 0.4754 0.0
N1237 N 0.68907 0.86013 0.52452 0.0
C1238 C 0.67155 0.84298 0.538 0.0
C1239 C 0.67964 0.84878 0.43773 0.0
C1240 C 0.68074 0.8527 0.56198 0.0
C1241 C 0.6887 0.8584 0.46342 0.0
C1242 C 0.62924 0.81604 0.40441 0.0
C1243 C 0.60445 0.81476 0.3977 0.0
N1244 N 0.60349 0.82748 0.42413 0.0
C1245 C 0.62799 0.8291 0.43167 0.0
C1246 C 0.61736 0.8088 0.38735 0.0
C1247 C 0.61489 0.8347 0.44116 0.0
C1248 C 0.64041 0.83286 0.27127 0.0
N1249 N 0.64768 0.83838 0.31807 0.0
C1250 C 0.64329 0.86139 0.28217 0.0
C1251 C 0.64913 0.85235 0.32475 0.0
C1252 C 0.6362 0.85587 0.23226 0.0
C1253 C 0.63474 0.84145 0.22713 0.0
H1254 H 0.6392 0.82172 0.26791 0.0
H1255 H 0.65482 0.85646 0.36282 0.0
C1256 C 0.65566 0.80824 0.59041 0.0
N1257 N 0.64617 0.80905 0.54531 0.0
C1258 C 0.65333 0.79967 0.64025 0.0
C1259 C 0.63086 0.79418 0.59966 0.0
C1260 C 0.63365 0.8028 0.55034 0.0
C1261 C 0.64115 0.79182 0.64328 0.0
H1262 H 0.66576 0.81271 0.58388 0.0
H1263 H 0.62644 0.80316 0.51322 0.0
C1264 C 0.67143 0.81871 0.27515 0.0
N1265 N 0.67159 0.8286 0.15766 0.0
C1266 C 0.66513 0.8111 0.22889 0.0
C1267 C 0.67805 0.83121 0.26141 0.0
C1268 C 0.66527 0.8163 0.16984 0.0
C1269 C 0.67794 0.83608 0.20182 0.0
C1270 C 0.66717 0.78757 0.48605 0.0
C1271 C 0.67755 0.7834 0.52597 0.0
C1272 C 0.65507 0.77976 0.48164 0.0
C1273 C 0.67565 0.77144 0.56083 0.0
C1274 C 0.65362 0.76781 0.5169 0.0
N1275 N 0.66383 0.76395 0.55553 0.0
C1276 C 0.69786 0.81921 0.49966 0.0
C1277 C 0.70458 0.82091 0.39675 0.0
C1278 C 0.71152 0.82028 0.51853 0.0
N1279 N 0.69468 0.81952 0.43978 0.0
C1280 C 0.71844 0.8219 0.41359 0.0
C1281 C 0.72209 0.82145 0.47528 0.0
H1282 H 0.68975 0.81798 0.53278 0.0
H1283 H 0.70175 0.82097 0.34939 0.0
C1284 C 0.64354 0.78126 0.30786 0.0
N1285 N 0.65599 0.78293 0.33483 0.0
C1286 C 0.64003 0.76861 0.28139 0.0
C1287 C 0.66237 0.75965 0.31003 0.0
C1288 C 0.66541 0.77249 0.33646 0.0
C1289 C 0.64951 0.75757 0.28199 0.0
H1290 H 0.6363 0.78978 0.30713 0.0
H1291 H 0.67521 0.77412 0.35863 0.0
O1292 O 0.66237 0.83125 0.45114 0.0
O1293 O 0.64195 0.8103 0.39421 0.0
O1294 O 0.67116 0.8139 0.33346 0.0
O1295 O 0.66877 0.79941 0.45248 0.0
H1296 H 0.66482 0.83719 0.56776 0.0
H1297 H 0.67932 0.84742 0.38923 0.0
H1298 H 0.68122 0.85437 0.61038 0.0
H1299 H 0.69543 0.86448 0.43478 0.0
H1300 H 0.59519 0.80926 0.38477 0.0
H1301 H 0.63697 0.83491 0.44529 0.0
H1302 H 0.61807 0.79865 0.36668 0.0
H1303 H 0.61379 0.8448 0.46209 0.0
H1304 H 0.64447 0.87251 0.28752 0.0
H1305 H 0.62914 0.83688 0.18964 0.0
H1306 H 0.66165 0.79802 0.67212 0.0
H1307 H 0.62127 0.78844 0.60065 0.0
H1308 H 0.66004 0.80136 0.23854 0.0
H1309 H 0.68318 0.83712 0.29634 0.0
H1310 H 0.66032 0.81059 0.13372 0.0
H1311 H 0.68292 0.8458 0.19067 0.0
H1312 H 0.68694 0.7894 0.53021 0.0
H1313 H 0.64682 0.78297 0.45182 0.0
H1314 H 0.68357 0.76812 0.59208 0.0
H1315 H 0.64432 0.76165 0.51382 0.0
H1316 H 0.71377 0.82012 0.56654 0.0
H1317 H 0.72621 0.82257 0.37857 0.0
H1318 H 0.62994 0.76748 0.26103 0.0
H1319 H 0.67008 0.75153 0.31077 0.0
Li1320 Li 0.9369 0.90165 0.20067 0.0
Li1321 Li 0.93024 0.92477 0.16271 0.0
Li1322 Li 0.92258 0.90234 0.1114 0.0
Li1323 Li 0.94631 0.90952 0.10729 0.0
C1324 C 0.91205 0.90456 0.24527 0.0
N1325 N 0.901 0.89408 0.35099 0.0
C1326 C 0.90898 0.91347 0.29332 0.0
C1327 C 0.90942 0.89034 0.25067 0.0
C1328 C 0.90341 0.90797 0.34649 0.0
C1329 C 0.90385 0.88524 0.3046 0.0
C1330 C 0.96159 0.9225 0.19405 0.0
C1331 C 0.97904 0.94011 0.18121 0.0
N1332 N 0.98851 0.93146 0.20645 0.0
C1333 C 0.97148 0.91385 0.22041 0.0
C1334 C 0.96538 0.93579 0.17477 0.0
C1335 C 0.98504 0.91854 0.22606 0.0
C1336 C 0.95088 0.8817 0.26799 0.0
N1337 N 0.94281 0.89318 0.27302 0.0
C1338 C 0.95273 0.89883 0.36867 0.0
C1339 C 0.94311 0.90137 0.32313 0.0
C1340 C 0.96229 0.88805 0.36115 0.0
C1341 C 0.96083 0.87893 0.31197 0.0
H1342 H 0.95082 0.87577 0.22646 0.0
H1343 H 0.93713 0.91083 0.32431 0.0
C1344 C 0.91816 0.95224 0.16096 0.0
N1345 N 0.92649 0.94303 0.18998 0.0
C1346 C 0.9172 0.96595 0.18178 0.0
C1347 C 0.93304 0.96017 0.2625 0.0
C1348 C 0.93356 0.94662 0.24071 0.0
C1349 C 0.925 0.97008 0.23228 0.0
H1350 H 0.91264 0.94906 0.1207 0.0
H1351 H 0.93996 0.93902 0.26326 0.0
C1352 C 0.94097 0.88185 0.07843 0.0
N1353 N 0.94418 0.86397 0.98149 0.0
C1354 C 0.9403 0.88688 0.01918 0.0
C1355 C 0.94329 0.8677 0.08837 0.0
C1356 C 0.94194 0.8777 0.97078 0.0
C1357 C 0.94488 0.85883 0.03877 0.0
C1358 C 0.93291 0.92848 0.0271 0.0
C1359 C 0.92969 0.92448 0.96786 0.0
C1360 C 0.93886 0.94148 0.03748 0.0
C1361 C 0.93271 0.93347 0.91999 0.0
C1362 C 0.94171 0.95018 0.98842 0.0
N1363 N 0.93861 0.94602 0.93117 0.0
C1364 C 0.90162 0.90119 0.02276 0.0
C1365 C 0.90725 0.8796 0.06818 0.0
C1366 C 0.89359 0.8945 0.97904 0.0
N1367 N 0.90858 0.89363 0.06485 0.0
C1368 C 0.89949 0.87249 0.02501 0.0
C1369 C 0.8929 0.87994 0.97865 0.0
H1370 H 0.9029 0.91234 0.02118 0.0
H1371 H 0.91286 0.87386 0.10229 0.0
C1372 C 0.9722 0.8988 0.08695 0.0
N1373 N 0.96327 0.90823 0.0632 0.0
C1374 C 0.98481 0.89618 0.05898 0.0
C1375 C 0.9787 0.91273 0.98123 0.0
C1376 C 0.9663 0.91525 0.01145 0.0
C1377 C 0.98808 0.90307 0.00506 0.0
H1378 H 0.96941 0.89313 0.12739 0.0
H1379 H 0.9591 0.9226 0.99281 0.0
O1380 O 0.91764 0.90971 0.19315 0.0
O1381 O 0.94824 0.91808 0.18802 0.0
O1382 O 0.93918 0.89061 0.12667 0.0
O1383 O 0.92993 0.91986 0.07466 0.0
H1384 H 0.91097 0.92451 0.28968 0.0
H1385 H 0.91177 0.88332 0.21379 0.0
H1386 H 0.90103 0.91472 0.38421 0.0
H1387 H 0.90182 0.87425 0.30961 0.0
H1388 H 0.98211 0.95036 0.16629 0.0
H1389 H 0.96879 0.90356 0.23577 0.0
H1390 H 0.95787 0.94275 0.15535 0.0
H1391 H 0.99281 0.9119 0.24597 0.0
H1392 H 0.95376 0.90622 0.40538 0.0
H1393 H 0.96817 0.87062 0.3046 0.0
H1394 H 0.91094 0.97337 0.15724 0.0
H1395 H 0.93909 0.96296 0.30191 0.0
H1396 H 0.93854 0.89776 0.01065 0.0
H1397 H 0.94375 0.86359 0.13391 0.0
H1398 H 0.94143 0.88148 0.92471 0.0
H1399 H 0.94665 0.84785 0.04583 0.0
H1400 H 0.92493 0.91454 0.95875 0.0
H1401 H 0.94124 0.94485 0.08285 0.0
H1402 H 0.93033 0.93047 0.87395 0.0
H1403 H 0.94636 0.96025 0.99589 0.0
H1404 H 0.88867 0.90058 0.94388 0.0
H1405 H 0.89905 0.86125 0.02654 0.0
H1406 H 0.99175 0.88854 0.07821 0.0
H1407 H 0.98093 0.91825 0.93961 0.0
Li1408 Li 0.65714 0.69921 0.87763 0.0
Li1409 Li 0.65226 0.68648 0.96884 0.0
Li1410 Li 0.67425 0.68332 0.91973 0.0
Li1411 Li 0.65353 0.67447 0.87394 0.0
C1412 C 0.6644 0.71252 0.98572 0.0
N1413 N 0.65937 0.73684 0.04836 0.0
C1414 C 0.65163 0.71914 0.98068 0.0
C1415 C 0.67458 0.71823 0.02286 0.0
C1416 C 0.64932 0.73146 0.01241 0.0
C1417 C 0.67183 0.73052 0.05431 0.0
C1418 C 0.62753 0.68297 0.90912 0.0
C1419 C 0.61394 0.66415 0.94957 0.0
N1420 N 0.60227 0.67072 0.93104 0.0
C1421 C 0.6154 0.68952 0.89047 0.0
C1422 C 0.62681 0.67018 0.93896 0.0
C1423 C 0.60273 0.68316 0.90199 0.0
C1424 C 0.64188 0.71745 0.80578 0.0
N1425 N 0.65388 0.7163 0.837 0.0
C1426 C 0.6597 0.73985 0.81437 0.0
C1427 C 0.66275 0.72717 0.84197 0.0
C1428 C 0.64733 0.7414 0.78186 0.0
C1429 C 0.63834 0.72997 0.77799 0.0
H1430 H 0.63498 0.70866 0.80303 0.0
H1431 H 0.67213 0.72606 0.86787 0.0
C1432 C 0.65487 0.68998 0.09097 0.0
N1433 N 0.645 0.6897 0.04737 0.0
C1434 C 0.65329 0.69856 0.1414 0.0
C1435 C 0.63059 0.70471 0.10535 0.0
C1436 C 0.63269 0.69619 0.05504 0.0
C1437 C 0.6414 0.7068 0.14682 0.0
H1438 H 0.66469 0.68505 0.08264 0.0
H1439 H 0.62516 0.69618 0.01907 0.0
C1440 C 0.67809 0.69178 0.79884 0.0
N1441 N 0.69753 0.70512 0.72836 0.0
C1442 C 0.67928 0.6886 0.73735 0.0
C1443 C 0.68677 0.70176 0.82451 0.0
C1444 C 0.68918 0.69545 0.70246 0.0
C1445 C 0.69653 0.70838 0.78813 0.0
C1446 C 0.66823 0.65599 0.94629 0.0
C1447 C 0.67627 0.65329 0.89509 0.0
C1448 C 0.66681 0.64579 0.99085 0.0
C1449 C 0.68275 0.6404 0.88934 0.0
C1450 C 0.67344 0.63302 0.98339 0.0
N1451 N 0.68121 0.63061 0.93323 0.0
C1452 C 0.69604 0.68312 0.99874 0.0
C1453 C 0.70314 0.67691 0.89967 0.0
C1454 C 0.70953 0.68214 0.01992 0.0
N1455 N 0.69314 0.68069 0.93955 0.0
C1456 C 0.71683 0.67586 0.9189 0.0
C1457 C 0.72019 0.67867 0.97968 0.0
H1458 H 0.68784 0.68594 0.02946 0.0
H1459 H 0.70053 0.6749 0.85287 0.0
C1460 C 0.63949 0.66736 0.77192 0.0
N1461 N 0.6455 0.66121 0.82052 0.0
C1462 C 0.63334 0.65936 0.72684 0.0
C1463 C 0.63976 0.63871 0.78221 0.0
C1464 C 0.64557 0.64716 0.82702 0.0
C1465 C 0.63356 0.64478 0.73093 0.0
H1466 H 0.63948 0.67857 0.76836 0.0
H1467 H 0.65017 0.64246 0.86651 0.0
O1468 O 0.66695 0.70045 0.95492 0.0
O1469 O 0.63999 0.6891 0.89772 0.0
O1470 O 0.66836 0.68517 0.83318 0.0
O1471 O 0.66188 0.66857 0.95364 0.0
H1472 H 0.64356 0.71479 0.95273 0.0
H1473 H 0.68451 0.71321 0.02741 0.0
H1474 H 0.6395 0.73671 0.00874 0.0
H1475 H 0.6796 0.73504 0.08336 0.0
H1476 H 0.61323 0.65426 0.97256 0.0
H1477 H 0.61577 0.69944 0.86746 0.0
H1478 H 0.63603 0.66491 0.95378 0.0
H1479 H 0.59327 0.68813 0.88784 0.0
H1480 H 0.66705 0.74826 0.81783 0.0
H1481 H 0.62862 0.7307 0.75418 0.0
H1482 H 0.66197 0.69988 0.17168 0.0
H1483 H 0.62114 0.71065 0.10841 0.0
H1484 H 0.67261 0.68091 0.71681 0.0
H1485 H 0.68603 0.70436 0.872 0.0
H1486 H 0.69022 0.69309 0.65479 0.0
H1487 H 0.70332 0.71612 0.80742 0.0
H1488 H 0.67745 0.66099 0.8599 0.0
H1489 H 0.66064 0.64773 0.03081 0.0
H1490 H 0.68898 0.63817 0.84992 0.0
H1491 H 0.67241 0.62503 0.01752 0.0
H1492 H 0.71157 0.68412 0.06734 0.0
H1493 H 0.72473 0.67324 0.88621 0.0
H1494 H 0.62836 0.66463 0.68949 0.0
H1495 H 0.6403 0.62755 0.7875 0.0
Li1496 Li 0.56933 0.40122 0.09861 0.0
Li1497 Li 0.56594 0.42236 0.15759 0.0
Li1498 Li 0.55953 0.39881 0.19503 0.0
Li1499 Li 0.54642 0.40878 0.10984 0.0
C1500 C 0.58514 0.40199 0.22706 0.0
N1501 N 0.59823 0.393 0.33102 0.0
C1502 C 0.58956 0.41159 0.27036 0.0
C1503 C 0.58757 0.38784 0.23614 0.0
C1504 C 0.59611 0.40684 0.32275 0.0
C1505 C 0.59415 0.38349 0.28913 0.0
C1506 C 0.56895 0.42273 0.02103 0.0
C1507 C 0.57112 0.42647 0.9135 0.0
N1508 N 0.58491 0.42843 0.92049 0.0
C1509 C 0.58313 0.42485 0.02723 0.0
C1510 C 0.56287 0.4236 0.9638 0.0
C1511 C 0.59102 0.42769 0.97582 0.0
C1512 C 0.57512 0.39078 0.98315 0.0
N1513 N 0.58072 0.39248 0.03906 0.0
C1514 C 0.60139 0.38107 0.0075 0.0
C1515 C 0.59364 0.3879 0.05194 0.0
C1516 C 0.59568 0.37892 0.94972 0.0
C1517 C 0.58243 0.38402 0.93771 0.0
H1518 H 0.56485 0.39455 0.974 0.0
H1519 H 0.59785 0.38938 0.09685 0.0
C1520 C 0.56751 0.44298 0.24397 0.0
N1521 N 0.57083 0.44031 0.18534 0.0
C1522 C 0.56906 0.4563 0.26762 0.0
C1523 C 0.57787 0.46386 0.17062 0.0
C1524 C 0.57605 0.45036 0.14865 0.0
C1525 C 0.57407 0.467 0.23047 0.0
H1526 H 0.56326 0.43479 0.27187 0.0
H1527 H 0.57834 0.44805 0.10188 0.0
C1528 C 0.55396 0.37829 0.08586 0.0
N1529 N 0.55598 0.355 0.01322 0.0
C1530 C 0.54613 0.37729 0.03288 0.0
C1531 C 0.56263 0.36734 0.10242 0.0
C1532 C 0.54734 0.36546 0.99665 0.0
C1533 C 0.56357 0.35569 0.06492 0.0
C1534 C 0.53647 0.42248 0.20564 0.0
C1535 C 0.52615 0.41555 0.23773 0.0
C1536 C 0.53411 0.43593 0.1843 0.0
C1537 C 0.51361 0.42224 0.24829 0.0
C1538 C 0.52142 0.44227 0.19577 0.0
N1539 N 0.51153 0.43535 0.22727 0.0
C1540 C 0.55557 0.39728 0.31922 0.0
C1541 C 0.54606 0.37881 0.26158 0.0
C1542 C 0.54586 0.39517 0.36494 0.0
N1543 N 0.55497 0.3896 0.26763 0.0
C1544 C 0.53606 0.37647 0.30579 0.0
C1545 C 0.53538 0.38534 0.35615 0.0
H1546 H 0.56224 0.40626 0.32134 0.0
H1547 H 0.54543 0.3733 0.21902 0.0
C1548 C 0.52396 0.41877 0.03777 0.0
N1549 N 0.52823 0.4094 0.0797 0.0
C1550 C 0.51075 0.41771 0.01299 0.0
C1551 C 0.50652 0.39777 0.07698 0.0
C1552 C 0.51975 0.39924 0.10055 0.0
C1553 C 0.50197 0.40688 0.03161 0.0
H1554 H 0.53093 0.42678 0.02234 0.0
H1555 H 0.52347 0.392 0.13428 0.0
O1556 O 0.57862 0.40642 0.17566 0.0
O1557 O 0.5611 0.41969 0.07067 0.0
O1558 O 0.55302 0.38986 0.1216 0.0
O1559 O 0.54871 0.41599 0.19395 0.0
H1560 H 0.58798 0.4226 0.2636 0.0
H1561 H 0.5844 0.3803 0.20269 0.0
H1562 H 0.59952 0.41415 0.3568 0.0
H1563 H 0.59602 0.37256 0.29691 0.0
H1564 H 0.56657 0.4271 0.86887 0.0
H1565 H 0.588 0.42413 0.07123 0.0
H1566 H 0.55192 0.42192 0.95822 0.0
H1567 H 0.60202 0.42927 0.97988 0.0
H1568 H 0.61156 0.37721 0.01864 0.0
H1569 H 0.57772 0.38278 0.89358 0.0
H1570 H 0.5661 0.45829 0.31411 0.0
H1571 H 0.58158 0.47188 0.14035 0.0
H1572 H 0.53937 0.38566 0.0193 0.0
H1573 H 0.56859 0.36785 0.14366 0.0
H1574 H 0.54145 0.36461 0.95523 0.0
H1575 H 0.57032 0.34719 0.07696 0.0
H1576 H 0.52779 0.40507 0.25378 0.0
H1577 H 0.54193 0.44137 0.15871 0.0
H1578 H 0.50552 0.41699 0.27302 0.0
H1579 H 0.51944 0.45268 0.17949 0.0
H1580 H 0.54547 0.40236 0.40267 0.0
H1581 H 0.52804 0.36888 0.29745 0.0
H1582 H 0.50769 0.42488 0.97766 0.0
H1583 H 0.50003 0.38939 0.09302 0.0
Li1584 Li 0.81946 0.32008 0.42375 0.0
Li1585 Li 0.84236 0.32364 0.38138 0.0
Li1586 Li 0.83397 0.30037 0.3859 0.0
Li1587 Li 0.8395 0.31301 0.4765 0.0
C1588 C 0.82537 0.32349 0.28826 0.0
N1589 N 0.82593 0.33964 0.18492 0.0
C1590 C 0.81966 0.33682 0.2888 0.0
C1591 C 0.83125 0.31832 0.23509 0.0
C1592 C 0.82006 0.34483 0.23608 0.0
C1593 C 0.83147 0.32667 0.18335 0.0
C1594 C 0.84206 0.33873 0.49817 0.0
C1595 C 0.8642 0.34541 0.53829 0.0
N1596 N 0.8579 0.35035 0.58892 0.0
C1597 C 0.8358 0.3439 0.5505 0.0
C1598 C 0.85636 0.3395 0.49187 0.0
C1599 C 0.84399 0.34973 0.5959 0.0
C1600 C 0.79793 0.32885 0.4957 0.0
N1601 N 0.80114 0.32602 0.43717 0.0
C1602 C 0.77744 0.32718 0.40874 0.0
C1603 C 0.7913 0.32545 0.39346 0.0
C1604 C 0.77373 0.32958 0.46949 0.0
C1605 C 0.78426 0.33085 0.51283 0.0
H1606 H 0.80595 0.32887 0.52962 0.0
H1607 H 0.79414 0.32283 0.34748 0.0
C1608 C 0.86207 0.32716 0.29324 0.0
N1609 N 0.85329 0.33457 0.32855 0.0
C1610 C 0.8694 0.33367 0.24711 0.0
C1611 C 0.85883 0.35546 0.27553 0.0
C1612 C 0.85163 0.34848 0.32124 0.0
C1613 C 0.86777 0.34799 0.23733 0.0
H1614 H 0.86299 0.31607 0.29959 0.0
H1615 H 0.84443 0.35406 0.34967 0.0
C1616 C 0.8115 0.29352 0.4599 0.0
N1617 N 0.78801 0.27729 0.45736 0.0
C1618 C 0.80775 0.28569 0.51058 0.0
C1619 C 0.80331 0.29306 0.40783 0.0
C1620 C 0.79585 0.27755 0.5084 0.0
C1621 C 0.79147 0.28481 0.40749 0.0
C1622 C 0.86014 0.29628 0.43032 0.0
C1623 C 0.85416 0.28519 0.46181 0.0
C1624 C 0.87424 0.29606 0.41775 0.0
C1625 C 0.86244 0.27414 0.48059 0.0
C1626 C 0.88217 0.2848 0.43724 0.0
N1627 N 0.87616 0.27417 0.46803 0.0
C1628 C 0.84628 0.28315 0.30438 0.0
C1629 C 0.82874 0.2711 0.3572 0.0
C1630 C 0.85018 0.27106 0.27446 0.0
N1631 N 0.83576 0.28301 0.34484 0.0
C1632 C 0.83207 0.25878 0.32695 0.0
C1633 C 0.84297 0.25861 0.28491 0.0
H1634 H 0.85194 0.29266 0.29674 0.0
H1635 H 0.82074 0.27101 0.39108 0.0
C1636 C 0.83487 0.30688 0.59532 0.0
N1637 N 0.84544 0.30974 0.55713 0.0
C1638 C 0.83711 0.29875 0.64647 0.0
C1639 C 0.86139 0.29827 0.62212 0.0
C1640 C 0.85868 0.30655 0.57158 0.0
C1641 C 0.85036 0.29351 0.6578 0.0
H1642 H 0.82446 0.3096 0.58247 0.0
H1643 H 0.86693 0.30908 0.54056 0.0
O1644 O 0.82547 0.31568 0.33994 0.0
O1645 O 0.8343 0.33264 0.45378 0.0
O1646 O 0.82296 0.30179 0.46219 0.0
O1647 O 0.85232 0.3073 0.41129 0.0
H1648 H 0.81517 0.34101 0.32979 0.0
H1649 H 0.83573 0.30803 0.23398 0.0
H1650 H 0.81577 0.3552 0.23592 0.0
H1651 H 0.83609 0.32285 0.14198 0.0
H1652 H 0.87529 0.34601 0.53415 0.0
H1653 H 0.82474 0.3434 0.55614 0.0
H1654 H 0.86139 0.33544 0.45188 0.0
H1655 H 0.83929 0.35375 0.63672 0.0
H1656 H 0.7697 0.32588 0.37388 0.0
H1657 H 0.78195 0.3329 0.55995 0.0
H1658 H 0.87596 0.32743 0.21824 0.0
H1659 H 0.85736 0.36654 0.26999 0.0
H1660 H 0.81397 0.2859 0.55124 0.0
H1661 H 0.80606 0.29892 0.36794 0.0
H1662 H 0.79283 0.27145 0.54733 0.0
H1663 H 0.78503 0.28438 0.36753 0.0
H1664 H 0.84328 0.28512 0.4721 0.0
H1665 H 0.87901 0.30453 0.39327 0.0
H1666 H 0.85796 0.26554 0.50525 0.0
H1667 H 0.8931 0.28451 0.4279 0.0
H1668 H 0.85893 0.27149 0.24417 0.0
H1669 H 0.8261 0.24953 0.33638 0.0
H1670 H 0.82829 0.29532 0.67259 0.0
H1671 H 0.87179 0.29461 0.63 0.0
Li1672 Li 0.94646 0.58383 0.59269 0.0
Li1673 Li 0.93559 0.59155 0.68963 0.0
Li1674 Li 0.93099 0.56802 0.64309 0.0
Li1675 Li 0.92206 0.58821 0.59691 0.0
C1676 C 0.96242 0.57312 0.67484 0.0
N1677 N 0.99057 0.56865 0.67191 0.0
C1678 C 0.9712 0.58099 0.71146 0.0
C1679 C 0.968 0.56293 0.63694 0.0
C1680 C 0.98539 0.57858 0.70935 0.0
C1681 C 0.98224 0.56085 0.63598 0.0
C1682 C 0.93315 0.61335 0.5859 0.0
C1683 C 0.92096 0.63515 0.58872 0.0
N1684 N 0.92346 0.63689 0.52859 0.0
C1685 C 0.93571 0.61539 0.52429 0.0
C1686 C 0.92579 0.62332 0.61857 0.0
C1687 C 0.93068 0.62735 0.49607 0.0
C1688 C 0.96779 0.57913 0.50426 0.0
N1689 N 0.96308 0.58724 0.55017 0.0
C1690 C 0.983 0.60175 0.54443 0.0
C1691 C 0.97036 0.59837 0.57044 0.0
C1692 C 0.98822 0.59352 0.49736 0.0
C1693 C 0.98048 0.58206 0.47726 0.0
H1694 H 0.96176 0.57036 0.48903 0.0
H1695 H 0.96636 0.60455 0.60738 0.0
C1696 C 0.94109 0.59359 0.81316 0.0
N1697 N 0.94096 0.60092 0.76059 0.0
C1698 C 0.95074 0.59678 0.85799 0.0
C1699 C 0.95887 0.61579 0.79589 0.0
C1700 C 0.94901 0.61231 0.75251 0.0
C1701 C 0.96038 0.60738 0.84738 0.0
H1702 H 0.93494 0.58426 0.81706 0.0
H1703 H 0.94906 0.61758 0.70927 0.0
C1704 C 0.92698 0.56038 0.53312 0.0
N1705 N 0.91744 0.53503 0.49196 0.0
C1706 C 0.91284 0.5581 0.5262 0.0
C1707 C 0.93626 0.54978 0.5188 0.0
C1708 C 0.90822 0.54522 0.50531 0.0
C1709 C 0.93123 0.53702 0.49821 0.0
C1710 C 0.90493 0.58664 0.69268 0.0
C1711 C 0.89327 0.58035 0.66766 0.0
C1712 C 0.90341 0.59817 0.73061 0.0
C1713 C 0.88025 0.58579 0.68057 0.0
C1714 C 0.89022 0.60329 0.74249 0.0
N1715 N 0.87901 0.59705 0.7174 0.0
C1716 C 0.93878 0.54147 0.68457 0.0
C1717 C 0.91491 0.54354 0.66423 0.0
C1718 C 0.93712 0.52764 0.70141 0.0
N1719 N 0.92781 0.54907 0.6655 0.0
C1720 C 0.91275 0.52971 0.68116 0.0
C1721 C 0.924 0.52156 0.69955 0.0
H1722 H 0.94882 0.54616 0.6875 0.0
H1723 H 0.9063 0.54984 0.64997 0.0
C1724 C 0.90935 0.5934 0.48634 0.0
N1725 N 0.90804 0.59637 0.54626 0.0
C1726 C 0.90122 0.60016 0.44346 0.0
C1727 C 0.89032 0.61292 0.52446 0.0
C1728 C 0.89871 0.60591 0.56588 0.0
C1729 C 0.89168 0.61024 0.46213 0.0
H1730 H 0.91719 0.58621 0.47136 0.0
H1731 H 0.89818 0.60861 0.61322 0.0
O1732 O 0.94849 0.57553 0.67516 0.0
O1733 O 0.93758 0.6015 0.61381 0.0
O1734 O 0.93168 0.57284 0.55472 0.0
O1735 O 0.91775 0.58139 0.68127 0.0
H1736 H 0.96713 0.58889 0.74108 0.0
H1737 H 0.96143 0.55684 0.6077 0.0
H1738 H 0.9923 0.58459 0.73739 0.0
H1739 H 0.98667 0.55307 0.60646 0.0
H1740 H 0.91515 0.64292 0.61329 0.0
H1741 H 0.94136 0.60772 0.49842 0.0
H1742 H 0.92366 0.62183 0.66625 0.0
H1743 H 0.93247 0.62902 0.44828 0.0
H1744 H 0.98869 0.61061 0.56137 0.0
H1745 H 0.9841 0.57558 0.44046 0.0
H1746 H 0.95176 0.58996 0.89676 0.0
H1747 H 0.9662 0.62398 0.78618 0.0
H1748 H 0.90549 0.56612 0.53762 0.0
H1749 H 0.94723 0.55133 0.5238 0.0
H1750 H 0.89731 0.5433 0.50007 0.0
H1751 H 0.9383 0.52871 0.48725 0.0
H1752 H 0.89425 0.57144 0.63817 0.0
H1753 H 0.91233 0.60313 0.75051 0.0
H1754 H 0.87114 0.58108 0.66126 0.0
H1755 H 0.88889 0.61223 0.7716 0.0
H1756 H 0.94602 0.52181 0.71668 0.0
H1757 H 0.90246 0.52539 0.67914 0.0
H1758 H 0.90292 0.59799 0.39594 0.0
H1759 H 0.88309 0.6206 0.541 0.0
Li1760 Li 0.67038 0.31385 0.57483 0.0
Li1761 Li 0.64716 0.32031 0.6226 0.0
Li1762 Li 0.65426 0.29612 0.61236 0.0
Li1763 Li 0.64887 0.30926 0.52424 0.0
C1764 C 0.66851 0.30321 0.70635 0.0
N1765 N 0.67758 0.28615 0.79864 0.0
C1766 C 0.6606 0.3016 0.75872 0.0
C1767 C 0.68105 0.29618 0.70091 0.0
C1768 C 0.66536 0.29291 0.80487 0.0
C1769 C 0.68546 0.2876 0.74811 0.0
C1770 C 0.65299 0.33622 0.50017 0.0
C1771 C 0.63735 0.35195 0.45015 0.0
N1772 N 0.64624 0.35292 0.40277 0.0
C1773 C 0.66209 0.33759 0.4515 0.0
C1774 C 0.64062 0.34363 0.49996 0.0
C1775 C 0.65845 0.34599 0.40248 0.0
C1776 C 0.69376 0.31639 0.50441 0.0
N1777 N 0.68895 0.31874 0.56124 0.0
C1778 C 0.71094 0.32718 0.59291 0.0
C1779 C 0.69714 0.3241 0.60534 0.0
C1780 C 0.71618 0.32485 0.53444 0.0
C1781 C 0.70739 0.31947 0.48981 0.0
H1782 H 0.68701 0.312 0.47051 0.0
H1783 H 0.693 0.32583 0.65019 0.0
C1784 C 0.62896 0.32588 0.71514 0.0
N1785 N 0.63789 0.33223 0.67676 0.0
C1786 C 0.62205 0.33355 0.75914 0.0
C1787 C 0.63374 0.3542 0.72369 0.0
C1788 C 0.64041 0.3461 0.68 0.0
C1789 C 0.62441 0.3479 0.76394 0.0
H1790 H 0.62734 0.31479 0.71192 0.0
H1791 H 0.64768 0.35082 0.64908 0.0
C1792 C 0.66366 0.28444 0.50389 0.0
N1793 N 0.66118 0.26061 0.4349 0.0
C1794 C 0.65127 0.27705 0.50316 0.0
C1795 C 0.6748 0.27969 0.4696 0.0
C1796 C 0.65022 0.26502 0.46812 0.0
C1797 C 0.67334 0.26764 0.43492 0.0
C1798 C 0.62266 0.30417 0.58137 0.0
C1799 C 0.61571 0.29147 0.57679 0.0
C1800 C 0.61528 0.31656 0.57553 0.0
C1801 C 0.60155 0.29141 0.56551 0.0
C1802 C 0.60112 0.31606 0.56434 0.0
N1803 N 0.59461 0.30361 0.55952 0.0
C1804 C 0.64049 0.27668 0.68281 0.0
C1805 C 0.66206 0.26848 0.64752 0.0
C1806 C 0.63788 0.26406 0.71142 0.0
N1807 N 0.65236 0.27862 0.65142 0.0
C1808 C 0.65996 0.25571 0.67628 0.0
C1809 C 0.64771 0.25336 0.70884 0.0
H1810 H 0.63301 0.28498 0.68551 0.0
H1811 H 0.67145 0.27034 0.62241 0.0
C1812 C 0.65324 0.30548 0.40328 0.0
N1813 N 0.64259 0.30664 0.44292 0.0
C1814 C 0.65189 0.29737 0.35143 0.0
C1815 C 0.62806 0.29339 0.37767 0.0
C1816 C 0.62988 0.30162 0.42918 0.0
C1817 C 0.63945 0.29038 0.34058 0.0
H1818 H 0.66334 0.30918 0.41605 0.0
H1819 H 0.62151 0.30268 0.46076 0.0
O1820 O 0.66383 0.31129 0.65981 0.0
O1821 O 0.65635 0.32797 0.54847 0.0
O1822 O 0.66481 0.29648 0.53654 0.0
O1823 O 0.63652 0.30441 0.59287 0.0
H1824 H 0.65083 0.3069 0.76341 0.0
H1825 H 0.68722 0.29719 0.66031 0.0
H1826 H 0.65931 0.29151 0.84555 0.0
H1827 H 0.69511 0.28204 0.74442 0.0
H1828 H 0.62777 0.35769 0.44931 0.0
H1829 H 0.67185 0.33219 0.4514 0.0
H1830 H 0.63369 0.34313 0.53811 0.0
H1831 H 0.66535 0.34703 0.36427 0.0
H1832 H 0.71742 0.33134 0.62847 0.0
H1833 H 0.7111 0.31731 0.44452 0.0
H1834 H 0.61512 0.32824 0.78982 0.0
H1835 H 0.63577 0.36525 0.72568 0.0
H1836 H 0.64252 0.28064 0.52893 0.0
H1837 H 0.68446 0.28532 0.46944 0.0
H1838 H 0.64068 0.25922 0.46711 0.0
H1839 H 0.68186 0.26388 0.40794 0.0
H1840 H 0.62118 0.28175 0.58171 0.0
H1841 H 0.62038 0.32645 0.58007 0.0
H1842 H 0.59608 0.28167 0.56158 0.0
H1843 H 0.59531 0.32559 0.55965 0.0
H1844 H 0.62821 0.26273 0.7351 0.0
H1845 H 0.66796 0.24789 0.67391 0.0
H1846 H 0.661 0.29526 0.3246 0.0
H1847 H 0.61821 0.28841 0.37014 0.0
Li1848 Li 0.92674 0.41897 0.84205 0.0
Li1849 Li 0.92346 0.39702 0.89205 0.0
Li1850 Li 0.9462 0.40573 0.89355 0.0
Li1851 Li 0.93455 0.39734 0.7972 0.0
C1852 C 0.92093 0.41733 0.97474 0.0
N1853 N 0.90219 0.4211 0.06736 0.0
C1854 C 0.90708 0.41991 0.9615 0.0
C1855 C 0.92528 0.41682 0.03501 0.0
C1856 C 0.89776 0.42175 0.00899 0.0
C1857 C 0.91564 0.41872 0.08122 0.0
C1858 C 0.90836 0.40168 0.7602 0.0
C1859 C 0.90157 0.38755 0.67496 0.0
N1860 N 0.89461 0.39854 0.65134 0.0
C1861 C 0.90087 0.41273 0.73568 0.0
C1862 C 0.90847 0.38889 0.73019 0.0
C1863 C 0.89409 0.41099 0.68039 0.0
C1864 C 0.92286 0.43984 0.75806 0.0
N1865 N 0.92168 0.43723 0.8183 0.0
C1866 C 0.91778 0.46129 0.83864 0.0
C1867 C 0.91904 0.44756 0.85865 0.0
C1868 C 0.91947 0.46433 0.77681 0.0
C1869 C 0.92172 0.45335 0.7362 0.0
H1870 H 0.92526 0.43145 0.72726 0.0
H1871 H 0.91856 0.44525 0.90651 0.0
C1872 C 0.91846 0.38395 0.00109 0.0
N1873 N 0.91212 0.3872 0.94814 0.0
C1874 C 0.91121 0.37752 0.04752 0.0
C1875 C 0.8909 0.37769 0.98411 0.0
C1876 C 0.8986 0.38422 0.93866 0.0
C1877 C 0.89723 0.37427 0.03952 0.0
H1878 H 0.92917 0.38663 0.0076 0.0
H1879 H 0.8938 0.38702 0.89617 0.0
C1880 C 0.95242 0.42638 0.80051 0.0
N1881 N 0.96568 0.45116 0.77646 0.0
C1882 C 0.95716 0.42926 0.74211 0.0
C1883 C 0.95445 0.43609 0.84676 0.0
C1884 C 0.96385 0.44185 0.73086 0.0
C1885 C 0.96117 0.44856 0.83366 0.0
C1886 C 0.93849 0.37369 0.89077 0.0
C1887 C 0.94742 0.36818 0.93424 0.0
C1888 C 0.92751 0.36566 0.86956 0.0
C1889 C 0.94503 0.35483 0.9567 0.0
C1890 C 0.92545 0.35237 0.8932 0.0
N1891 N 0.93417 0.34727 0.93596 0.0
C1892 C 0.96261 0.4005 0.99286 0.0
C1893 C 0.97507 0.41047 0.91155 0.0
C1894 C 0.97469 0.39874 0.02603 0.0
N1895 N 0.96303 0.40614 0.93664 0.0
C1896 C 0.98741 0.40924 0.94384 0.0
C1897 C 0.98737 0.40316 0.00182 0.0
H1898 H 0.95292 0.39685 0.01098 0.0
H1899 H 0.97518 0.41465 0.86614 0.0
C1900 C 0.93826 0.39903 0.67248 0.0
N1901 N 0.9405 0.3907 0.72117 0.0
C1902 C 0.94753 0.39899 0.62425 0.0
C1903 C 0.96049 0.38097 0.67496 0.0
C1904 C 0.9509 0.38126 0.72203 0.0
C1905 C 0.95934 0.39057 0.62729 0.0
H1906 H 0.93032 0.40689 0.67424 0.0
H1907 H 0.95274 0.3752 0.76246 0.0
O1908 O 0.93012 0.41513 0.92884 0.0
O1909 O 0.91483 0.40321 0.81493 0.0
O1910 O 0.94543 0.41432 0.81202 0.0
O1911 O 0.94058 0.38683 0.86883 0.0
H1912 H 0.90356 0.42031 0.91501 0.0
H1913 H 0.93598 0.41489 0.04597 0.0
H1914 H 0.88699 0.42364 -0.00056 0.0
H1915 H 0.91883 0.41827 0.1281 0.0
H1916 H 0.90175 0.37776 0.6509 0.0
H1917 H 0.9001 0.42251 0.75954 0.0
H1918 H 0.91399 0.38013 0.74865 0.0
H1919 H 0.88834 0.4195 0.66079 0.0
H1920 H 0.91623 0.4695 0.87148 0.0
H1921 H 0.923 0.45524 0.68817 0.0
H1922 H 0.91646 0.37537 0.08974 0.0
H1923 H 0.88017 0.37527 0.97586 0.0
H1924 H 0.95566 0.42189 0.70579 0.0
H1925 H 0.95077 0.43405 0.89215 0.0
H1926 H 0.96755 0.44422 0.68583 0.0
H1927 H 0.96276 0.4562 0.86892 0.0
H1928 H 0.95613 0.3741 0.95037 0.0
H1929 H 0.92048 0.36976 0.83624 0.0
H1930 H 0.95183 0.35046 0.99055 0.0
H1931 H 0.91689 0.34611 0.87768 0.0
H1932 H 0.97405 0.39363 0.06959 0.0
H1933 H 0.99683 0.413 0.92339 0.0
H1934 H 0.94622 0.40646 0.58804 0.0
H1935 H 0.9695 0.37441 0.67944 0.0
Li1936 Li 0.84314 0.69877 0.1211 0.0
Li1937 Li 0.84596 0.68486 0.03298 0.0
Li1938 Li 0.82458 0.68332 0.08936 0.0
Li1939 Li 0.84732 0.67412 0.13221 0.0
C1940 C 0.83488 0.71118 0.01363 0.0
N1941 N 0.84088 0.734 0.94238 0.0
C1942 C 0.84822 0.71666 0.01267 0.0
C1943 C 0.8246 0.7173 0.97818 0.0
C1944 C 0.85103 0.72822 0.97653 0.0
C1945 C 0.82785 0.72882 0.94243 0.0
C1946 C 0.87287 0.68458 0.08389 0.0
C1947 C 0.88945 0.667 0.05679 0.0
N1948 N 0.89947 0.67687 0.0548 0.0
C1949 C 0.88333 0.69455 0.08174 0.0
C1950 C 0.87594 0.67071 0.07141 0.0
C1951 C 0.89672 0.69044 0.06686 0.0
C1952 C 0.85954 0.71811 0.18288 0.0
N1953 N 0.84697 0.71626 0.15714 0.0
C1954 C 0.84031 0.73939 0.18301 0.0
C1955 C 0.83741 0.72657 0.15632 0.0
C1956 C 0.85321 0.74161 0.21042 0.0
C1957 C 0.86293 0.73078 0.20963 0.0
H1958 H 0.8669 0.70969 0.18303 0.0
H1959 H 0.82748 0.72476 0.13553 0.0
C1960 C 0.84083 0.68873 0.91197 0.0
N1961 N 0.85163 0.68651 0.94999 0.0
C1962 C 0.84262 0.69634 0.85894 0.0
C1963 C 0.86693 0.6978 0.88108 0.0
C1964 C 0.86468 0.69011 0.9338 0.0
C1965 C 0.85564 0.70181 0.84524 0.0
H1966 H 0.83049 0.68642 0.92682 0.0
H1967 H 0.87314 0.68841 0.96437 0.0
C1968 C 0.83018 0.69356 0.22119 0.0
N1969 N 0.82605 0.71116 0.31829 0.0
C1970 C 0.84017 0.69466 0.26653 0.0
C1971 C 0.81805 0.70131 0.22541 0.0
C1972 C 0.8379 0.70365 0.3152 0.0
C1973 C 0.81616 0.71017 0.27485 0.0
C1974 C 0.83541 0.65905 0.0109 0.0
C1975 C 0.82448 0.66063 0.97028 0.0
C1976 C 0.84511 0.64854 0.00132 0.0
C1977 C 0.82365 0.65193 0.91978 0.0
C1978 C 0.84392 0.64004 0.9503 0.0
N1979 N 0.83332 0.64191 0.91087 0.0
C1980 C 0.79808 0.69312 0.0712 0.0
C1981 C 0.79907 0.66863 0.08152 0.0
C1982 C 0.78404 0.69253 0.05832 0.0
N1983 N 0.80529 0.68128 0.08172 0.0
C1984 C 0.785 0.66754 0.06867 0.0
C1985 C 0.77733 0.67961 0.0562 0.0
H1986 H 0.80334 0.70302 0.07145 0.0
H1987 H 0.80512 0.65937 0.08963 0.0
C1988 C 0.86634 0.66548 0.21876 0.0
N1989 N 0.85537 0.66104 0.18586 0.0
C1990 C 0.87203 0.65702 0.26346 0.0
C1991 C 0.85507 0.63947 0.23946 0.0
C1992 C 0.84973 0.64829 0.19486 0.0
C1993 C 0.86627 0.64389 0.27505 0.0
H1994 H 0.87051 0.67575 0.21109 0.0
H1995 H 0.84087 0.64512 0.1685 0.0
O1996 O 0.83193 0.6996 0.04733 0.0
O1997 O 0.85973 0.68847 0.09846 0.0
O1998 O 0.83241 0.68519 0.17216 0.0
O1999 O 0.83636 0.66746 0.06075 0.0
H2000 H 0.85637 0.71199 0.03901 0.0
H2001 H 0.81427 0.71309 0.97772 0.0
H2002 H 0.86131 0.73255 0.97534 0.0
H2003 H 0.82001 0.73361 0.91456 0.0
H2004 H 0.89197 0.65629 0.04707 0.0
H2005 H 0.88112 0.70536 0.09095 0.0
H2006 H 0.868 0.66289 0.0733 0.0
H2007 H 0.9049 0.69805 0.06482 0.0
H2008 H 0.83241 0.74732 0.18349 0.0
H2009 H 0.87304 0.73205 0.22959 0.0
H2010 H 0.83358 0.69932 0.83332 0.0
H2011 H 0.87719 0.70166 0.87156 0.0
H2012 H 0.84964 0.68879 0.26372 0.0
H2013 H 0.81025 0.70061 0.19057 0.0
H2014 H 0.84558 0.70469 0.35039 0.0
H2015 H 0.80686 0.7163 0.27856 0.0
H2016 H 0.81679 0.6686 0.97722 0.0
H2017 H 0.85338 0.64683 0.03317 0.0
H2018 H 0.81531 0.65314 0.8877 0.0
H2019 H 0.85139 0.63191 0.94222 0.0
H2020 H 0.77861 0.70208 0.0482 0.0
H2021 H 0.7802 0.65739 0.06808 0.0
H2022 H 0.88081 0.66078 0.28886 0.0
H2023 H 0.85022 0.62949 0.24714 0.0
Li2024 Li 0.56715 0.57142 0.35652 0.0
Li2025 Li 0.57588 0.59197 0.40244 0.0
Li2026 Li 0.5515 0.58794 0.40273 0.0
Li2027 Li 0.56337 0.59499 0.30732 0.0
C2028 C 0.57048 0.565 0.47084 0.0
N2029 N 0.5801 0.54093 0.52442 0.0
C2030 C 0.58443 0.56368 0.4857 0.0
C2031 C 0.56143 0.55407 0.48338 0.0
C2032 C 0.58908 0.55144 0.51283 0.0
C2033 C 0.5665 0.54198 0.51035 0.0
C2034 C 0.59419 0.58817 0.30955 0.0
C2035 C 0.61093 0.60288 0.26063 0.0
N2036 N 0.62123 0.59535 0.28648 0.0
C2037 C 0.60492 0.58052 0.33534 0.0
C2038 C 0.59718 0.5994 0.27164 0.0
C2039 C 0.61853 0.58434 0.32324 0.0
C2040 C 0.55974 0.54602 0.30405 0.0
N2041 N 0.56995 0.55231 0.336 0.0
C2042 C 0.5832 0.53133 0.33567 0.0
C2043 C 0.58168 0.54535 0.35096 0.0
C2044 C 0.57253 0.5245 0.30479 0.0
C2045 C 0.56075 0.53204 0.2885 0.0
H2046 H 0.55082 0.55185 0.29007 0.0
H2047 H 0.58984 0.55064 0.37484 0.0
C2048 C 0.58546 0.59958 0.51476 0.0
N2049 N 0.58939 0.60006 0.45572 0.0
C2050 C 0.59332 0.60603 0.55943 0.0
C2051 C 0.60943 0.61319 0.48228 0.0
C2052 C 0.60108 0.6068 0.43878 0.0
C2053 C 0.60552 0.613 0.54369 0.0
H2054 H 0.57591 0.59454 0.52697 0.0
H2055 H 0.6038 0.60762 0.39163 0.0
C2056 C 0.53627 0.57659 0.32029 0.0
N2057 N 0.5082 0.57172 0.32181 0.0
C2058 C 0.52738 0.58504 0.2868 0.0
C2059 C 0.53086 0.56563 0.35441 0.0
C2060 C 0.51322 0.58241 0.28817 0.0
C2061 C 0.51665 0.56335 0.35463 0.0
C2062 C 0.56565 0.61746 0.40639 0.0
C2063 C 0.56166 0.62139 0.46471 0.0
C2064 C 0.57491 0.6257 0.37396 0.0
C2065 C 0.56718 0.63346 0.49006 0.0
C2066 C 0.5802 0.63771 0.40089 0.0
N2067 N 0.57627 0.64129 0.45792 0.0
C2068 C 0.52936 0.58271 0.48538 0.0
C2069 C 0.52747 0.60266 0.42291 0.0
C2070 C 0.51644 0.5854 0.51067 0.0
N2071 N 0.53452 0.5913 0.4422 0.0
C2072 C 0.51459 0.60581 0.44727 0.0
C2073 C 0.50892 0.5971 0.49163 0.0
H2074 H 0.5352 0.57375 0.49978 0.0
H2075 H 0.53183 0.60922 0.38806 0.0
C2076 C 0.55865 0.59587 0.18345 0.0
N2077 N 0.55877 0.60384 0.23423 0.0
C2078 C 0.54918 0.59867 0.13743 0.0
C2079 C 0.54123 0.61856 0.19456 0.0
C2080 C 0.55093 0.61547 0.23918 0.0
C2081 C 0.53971 0.60955 0.14505 0.0
H2082 H 0.5646 0.58637 0.18217 0.0
H2083 H 0.55085 0.62125 0.28118 0.0
O2084 O 0.56572 0.57686 0.44382 0.0
O2085 O 0.58081 0.58447 0.31982 0.0
O2086 O 0.55015 0.57923 0.32106 0.0
O2087 O 0.56072 0.60544 0.38161 0.0
H2088 H 0.59164 0.57192 0.47563 0.0
H2089 H 0.55063 0.55487 0.47208 0.0
H2090 H 0.59985 0.55027 0.52432 0.0
H2091 H 0.55962 0.53343 0.52005 0.0
H2092 H 0.61341 0.61157 0.23154 0.0
H2093 H 0.60277 0.57181 0.36474 0.0
H2094 H 0.58897 0.60535 0.25095 0.0
H2095 H 0.62695 0.57856 0.34314 0.0
H2096 H 0.59248 0.52584 0.34866 0.0
H2097 H 0.55245 0.52722 0.26331 0.0
H2098 H 0.58955 0.6059 0.60555 0.0
H2099 H 0.61876 0.61835 0.46763 0.0
H2100 H 0.53135 0.59359 0.26047 0.0
H2101 H 0.53755 0.55907 0.38111 0.0
H2102 H 0.50621 0.58889 0.26269 0.0
H2103 H 0.51234 0.55496 0.38114 0.0
H2104 H 0.55451 0.61507 0.49037 0.0
H2105 H 0.5781 0.62276 0.32879 0.0
H2106 H 0.56428 0.63658 0.53536 0.0
H2107 H 0.58746 0.64414 0.37655 0.0
H2108 H 0.5125 0.57855 0.54549 0.0
H2109 H 0.50908 0.61487 0.43124 0.0
H2110 H 0.54813 0.59139 0.10031 0.0
H2111 H 0.53399 0.62696 0.202 0.0
Li2112 Li 0.32308 0.31921 0.08472 0.0
Li2113 Li 0.34082 0.3026 0.12327 0.0
Li2114 Li 0.34331 0.32735 0.13239 0.0
Li2115 Li 0.34475 0.31657 0.03204 0.0
C2116 C 0.32881 0.3194 0.22838 0.0
N2117 N 0.3299 0.32803 0.34765 0.0
C2118 C 0.33622 0.3117 0.27107 0.0
C2119 C 0.32176 0.33135 0.24659 0.0
C2120 C 0.33668 0.31627 0.3311 0.0
C2121 C 0.3225 0.33559 0.30702 0.0
C2122 C 0.33247 0.29073 0.01187 0.0
C2123 C 0.34697 0.27202 0.97702 0.0
N2124 N 0.33657 0.26747 0.94081 0.0
C2125 C 0.32192 0.28587 0.9744 0.0
C2126 C 0.34513 0.28381 0.01301 0.0
C2127 C 0.32421 0.2741 0.93869 0.0
C2128 C 0.30029 0.32112 0.00873 0.0
N2129 N 0.30401 0.32128 0.06805 0.0
C2130 C 0.2805 0.3235 0.0985 0.0
C2131 C 0.29449 0.32247 0.11287 0.0
C2132 C 0.27635 0.32335 0.03748 0.0
C2133 C 0.28646 0.32224 0.99231 0.0
H2134 H 0.3081 0.31999 0.97416 0.0
H2135 H 0.29776 0.32248 0.15969 0.0
C2136 C 0.35746 0.28291 0.17974 0.0
N2137 N 0.34454 0.28505 0.15813 0.0
C2138 C 0.36114 0.27004 0.2037 0.0
C2139 C 0.33806 0.26183 0.18325 0.0
C2140 C 0.33486 0.27486 0.15919 0.0
C2141 C 0.35136 0.2593 0.2061 0.0
H2142 H 0.3649 0.29124 0.17842 0.0
H2143 H 0.32467 0.27688 0.14135 0.0
C2144 C 0.32626 0.34365 0.03285 0.0
N2145 N 0.30688 0.36207 0.9886 0.0
C2146 C 0.32544 0.34629 0.97073 0.0
C2147 C 0.31741 0.35059 0.07256 0.0
C2148 C 0.31553 0.35558 0.94922 0.0
C2149 C 0.30763 0.35979 0.04929 0.0
C2150 C 0.36974 0.31993 0.09182 0.0
C2151 C 0.3702 0.33353 0.06962 0.0
C2152 C 0.38206 0.3128 0.10253 0.0
C2153 C 0.38296 0.33976 0.05864 0.0
C2154 C 0.3946 0.31938 0.0909 0.0
N2155 N 0.39479 0.33262 0.0694 0.0
C2156 C 0.35962 0.33465 0.22977 0.0
C2157 C 0.34737 0.35399 0.1907 0.0
C2158 C 0.36457 0.34258 0.27778 0.0
N2159 N 0.35096 0.34034 0.18827 0.0
C2160 C 0.35229 0.36241 0.23768 0.0
C2161 C 0.36078 0.3566 0.28259 0.0
H2162 H 0.36231 0.32377 0.22657 0.0
H2163 H 0.34046 0.35825 0.1571 0.0
C2164 C 0.34179 0.31285 0.90953 0.0
N2165 N 0.35179 0.3139 0.95239 0.0
C2166 C 0.34391 0.30469 0.8582 0.0
C2167 C 0.36713 0.30025 0.89248 0.0
C2168 C 0.36454 0.30843 0.94346 0.0
C2169 C 0.35642 0.29753 0.85125 0.0
H2170 H 0.33157 0.31672 0.91905 0.0
H2171 H 0.3722 0.30898 0.97873 0.0
O2172 O 0.32853 0.31528 0.16907 0.0
O2173 O 0.33045 0.30237 0.04631 0.0
O2174 O 0.33574 0.3344 0.05467 0.0
O2175 O 0.35739 0.31355 0.10324 0.0
H2176 H 0.34171 0.30241 0.25789 0.0
H2177 H 0.31588 0.33737 0.21438 0.0
H2178 H 0.34248 0.31048 0.36447 0.0
H2179 H 0.31721 0.34489 0.32159 0.0
H2180 H 0.3567 0.26655 0.97761 0.0
H2181 H 0.31209 0.29117 0.9727 0.0
H2182 H 0.3535 0.28757 0.04092 0.0
H2183 H 0.31616 0.27025 0.9093 0.0
H2184 H 0.27302 0.32441 0.13465 0.0
H2185 H 0.2837 0.32187 0.94482 0.0
H2186 H 0.37155 0.26855 0.22012 0.0
H2187 H 0.33011 0.25395 0.1851 0.0
H2188 H 0.3324 0.34125 0.93947 0.0
H2189 H 0.31797 0.34874 0.12073 0.0
H2190 H 0.31472 0.35766 0.90121 0.0
H2191 H 0.30061 0.36511 0.07948 0.0
H2192 H 0.36087 0.3393 0.06108 0.0
H2193 H 0.38195 0.30224 0.11922 0.0
H2194 H 0.38345 0.35028 0.04156 0.0
H2195 H 0.4042 0.31396 0.09889 0.0
H2196 H 0.37129 0.33779 0.31094 0.0
H2197 H 0.3492 0.3732 0.23989 0.0
H2198 H 0.33528 0.30276 0.82827 0.0
H2199 H 0.37699 0.29506 0.88842 0.0
Li2200 Li 0.42311 0.59782 0.90124 0.0
Li2201 Li 0.44708 0.59172 0.91322 0.0
Li2202 Li 0.43839 0.59764 0.811 0.0
Li2203 Li 0.43216 0.57599 0.85992 0.0
C2204 C 0.44231 0.62096 0.91893 0.0
N2205 N 0.44806 0.64395 0.98964 0.0
C2206 C 0.43803 0.62143 0.97929 0.0
C2207 C 0.44938 0.63228 0.89434 0.0
C2208 C 0.44106 0.63311 0.01436 0.0
C2209 C 0.45224 0.64377 0.93087 0.0
C2210 C 0.43546 0.57799 0.00258 0.0
C2211 C 0.45024 0.5641 0.06623 0.0
N2212 N 0.44551 0.571 0.11574 0.0
C2213 C 0.43065 0.58487 0.05422 0.0
C2214 C 0.44524 0.56744 0.00873 0.0
C2215 C 0.43588 0.58121 0.11096 0.0
C2216 C 0.40029 0.59922 0.97977 0.0
N2217 N 0.40803 0.60676 0.94038 0.0
C2218 C 0.39822 0.62791 0.97663 0.0
C2219 C 0.40664 0.62077 0.93599 0.0
C2220 C 0.39103 0.62049 0.02136 0.0
C2221 C 0.39162 0.60593 0.02095 0.0
H2222 H 0.40162 0.58807 0.98221 0.0
H2223 H 0.41286 0.62652 0.90403 0.0
C2224 C 0.47565 0.5913 0.93317 0.0
N2225 N 0.46346 0.59426 0.9606 0.0
C2226 C 0.48811 0.59415 0.96219 0.0
C2227 C 0.47531 0.60357 0.04636 0.0
C2228 C 0.46311 0.6001 0.01658 0.0
C2229 C 0.48813 0.6006 0.01938 0.0
H2230 H 0.47574 0.58695 0.88811 0.0
H2231 H 0.45339 0.60242 0.0378 0.0
C2232 C 0.41018 0.59767 0.78893 0.0
N2233 N 0.3911 0.61406 0.72962 0.0
C2234 C 0.39823 0.59173 0.76496 0.0
C2235 C 0.41246 0.61194 0.7826 0.0
C2236 C 0.3887 0.6002 0.73515 0.0
C2237 C 0.40268 0.62005 0.75252 0.0
C2238 C 0.45659 0.57102 0.80977 0.0
C2239 C 0.45552 0.5689 0.74732 0.0
C2240 C 0.46364 0.56131 0.8452 0.0
C2241 C 0.46129 0.557 0.72154 0.0
C2242 C 0.46927 0.54953 0.81777 0.0
N2243 N 0.46797 0.54762 0.75702 0.0
C2244 C 0.45708 0.61161 0.74302 0.0
C2245 C 0.43974 0.60107 0.68278 0.0
C2246 C 0.46547 0.61343 0.6926 0.0
N2247 N 0.44473 0.60514 0.7375 0.0
C2248 C 0.44796 0.60243 0.63107 0.0
C2249 C 0.46123 0.60813 0.63641 0.0
H2250 H 0.46104 0.61404 0.78751 0.0
H2251 H 0.4301 0.59547 0.68027 0.0
C2252 C 0.42902 0.54639 0.87622 0.0
N2253 N 0.4283 0.55732 0.83735 0.0
C2254 C 0.4276 0.53282 0.85443 0.0
C2255 C 0.42446 0.54209 0.75362 0.0
C2256 C 0.42571 0.55544 0.77742 0.0
C2257 C 0.42559 0.53058 0.79216 0.0
H2258 H 0.43101 0.54817 0.92372 0.0
H2259 H 0.42512 0.56435 0.7477 0.0
O2260 O 0.43925 0.60969 0.88346 0.0
O2261 O 0.43056 0.58148 0.94643 0.0
O2262 O 0.41955 0.58946 0.81829 0.0
O2263 O 0.45074 0.58249 0.83607 0.0
H2264 H 0.43241 0.61286 0.99891 0.0
H2265 H 0.45254 0.63227 0.84742 0.0
H2266 H 0.43782 0.63356 0.06119 0.0
H2267 H 0.45773 0.65259 0.91241 0.0
H2268 H 0.45788 0.556 0.07148 0.0
H2269 H 0.42305 0.59302 0.05073 0.0
H2270 H 0.44896 0.5619 0.96954 0.0
H2271 H 0.43231 0.58652 0.1512 0.0
H2272 H 0.39788 0.63915 0.97511 0.0
H2273 H 0.38624 0.59987 0.05486 0.0
H2274 H 0.49758 0.59129 0.93959 0.0
H2275 H 0.47456 0.60881 0.08955 0.0
H2276 H 0.39634 0.5807 0.76941 0.0
H2277 H 0.42165 0.61674 0.80057 0.0
H2278 H 0.3794 0.59574 0.71641 0.0
H2279 H 0.4043 0.6311 0.74736 0.0
H2280 H 0.45009 0.57622 0.71908 0.0
H2281 H 0.46483 0.56287 0.89334 0.0
H2282 H 0.46041 0.55519 0.67335 0.0
H2283 H 0.47469 0.54191 0.84477 0.0
H2284 H 0.47574 0.61759 0.69892 0.0
H2285 H 0.44442 0.59813 0.58848 0.0
H2286 H 0.42855 0.52416 0.88549 0.0
H2287 H 0.42276 0.54078 0.70548 0.0
Li2288 Li 0.15723 0.70504 0.61323 0.0
Li2289 Li 0.17466 0.68769 0.57877 0.0
Li2290 Li 0.15311 0.68999 0.52528 0.0
Li2291 Li 0.15432 0.68052 0.62808 0.0
C2292 C 0.1655 0.71552 0.49997 0.0
N2293 N 0.16125 0.73813 0.42526 0.0
C2294 C 0.17601 0.72011 0.46165 0.0
C2295 C 0.1528 0.72237 0.50007 0.0
C2296 C 0.17364 0.73155 0.42409 0.0
C2297 C 0.15089 0.73384 0.46225 0.0
C2298 C 0.16895 0.68925 0.72212 0.0
C2299 C 0.17508 0.67386 0.80401 0.0
N2300 N 0.16779 0.68195 0.84303 0.0
C2301 C 0.16165 0.6975 0.76316 0.0
C2302 C 0.17585 0.67742 0.74277 0.0
C2303 C 0.16114 0.69361 0.82407 0.0
C2304 C 0.1408 0.72548 0.6654 0.0
N2305 N 0.15376 0.72297 0.64503 0.0
C2306 C 0.16075 0.74601 0.67065 0.0
C2307 C 0.16369 0.7329 0.64669 0.0
C2308 C 0.14744 0.74889 0.69272 0.0
C2309 C 0.13737 0.73844 0.68907 0.0
H2310 H 0.13317 0.71734 0.66382 0.0
H2311 H 0.17391 0.73058 0.63 0.0
C2312 C 0.19716 0.68486 0.50259 0.0
N2313 N 0.19367 0.68511 0.56214 0.0
C2314 C 0.21089 0.68345 0.48528 0.0
C2315 C 0.21726 0.68267 0.59108 0.0
C2316 C 0.20334 0.68401 0.60637 0.0
C2317 C 0.2212 0.68249 0.52973 0.0
H2318 H 0.18922 0.68583 0.46849 0.0
H2319 H 0.20026 0.68438 0.6534 0.0
C2320 C 0.12804 0.68784 0.58511 0.0
N2321 N 0.10281 0.67529 0.56517 0.0
C2322 C 0.12738 0.67396 0.56652 0.0
C2323 C 0.11583 0.69532 0.59344 0.0
C2324 C 0.11453 0.66781 0.55675 0.0
C2325 C 0.10319 0.6888 0.58312 0.0
C2326 C 0.17113 0.66268 0.53299 0.0
C2327 C 0.17213 0.65942 0.47148 0.0
C2328 C 0.17968 0.65595 0.57461 0.0
C2329 C 0.18191 0.64971 0.45246 0.0
C2330 C 0.18935 0.64632 0.55381 0.0
N2331 N 0.19027 0.64344 0.49366 0.0
C2332 C 0.15621 0.69226 0.40232 0.0
C2333 C 0.13334 0.6968 0.43427 0.0
C2334 C 0.15412 0.69979 0.3492 0.0
N2335 N 0.14614 0.69162 0.44501 0.0
C2336 C 0.13077 0.70433 0.38146 0.0
C2337 C 0.14156 0.70674 0.34032 0.0
H2338 H 0.16645 0.6886 0.41307 0.0
H2339 H 0.12559 0.69655 0.46921 0.0
C2340 C 0.1374 0.67508 0.72498 0.0
N2341 N 0.14617 0.66853 0.68655 0.0
C2342 C 0.13142 0.66792 0.77295 0.0
C2343 C 0.14325 0.64715 0.74004 0.0
C2344 C 0.14914 0.6548 0.69276 0.0
C2345 C 0.13428 0.65374 0.78114 0.0
H2346 H 0.1353 0.68603 0.71909 0.0
H2347 H 0.15614 0.64984 0.66145 0.0
O2348 O 0.16759 0.70419 0.53626 0.0
O2349 O 0.1693 0.69273 0.66205 0.0
O2350 O 0.14049 0.69414 0.59536 0.0
O2351 O 0.16178 0.67234 0.55236 0.0
H2352 H 0.18586 0.71484 0.46073 0.0
H2353 H 0.14446 0.71882 0.52863 0.0
H2354 H 0.18166 0.73519 0.39404 0.0
H2355 H 0.14113 0.73927 0.46205 0.0
H2356 H 0.18027 0.66467 0.8205 0.0
H2357 H 0.15628 0.70671 0.74809 0.0
H2358 H 0.18167 0.671 0.71185 0.0
H2359 H 0.15543 0.69983 0.85621 0.0
H2360 H 0.16891 0.75365 0.67342 0.0
H2361 H 0.12695 0.74019 0.70479 0.0
H2362 H 0.21338 0.68314 0.43751 0.0
H2363 H 0.22486 0.68215 0.62689 0.0
H2364 H 0.13662 0.66792 0.55987 0.0
H2365 H 0.11609 0.70609 0.60725 0.0
H2366 H 0.11389 0.65708 0.54249 0.0
H2367 H 0.09368 0.69449 0.58931 0.0
H2368 H 0.1654 0.6643 0.43879 0.0
H2369 H 0.17897 0.65827 0.62235 0.0
H2370 H 0.18285 0.64715 0.40494 0.0
H2371 H 0.19612 0.64115 0.58549 0.0
H2372 H 0.1628 0.7015 0.31933 0.0
H2373 H 0.12087 0.70937 0.37589 0.0
H2374 H 0.12483 0.67355 0.80394 0.0
H2375 H 0.14561 0.63619 0.74407 0.0
Li2376 Li 0.05219 0.41412 0.40956 0.0
Li2377 Li 0.0761 0.409 0.40003 0.0
Li2378 Li 0.06686 0.43146 0.36156 0.0
Li2379 Li 0.06123 0.40894 0.31047 0.0
C2380 C 0.0647 0.43116 0.49915 0.0
N2381 N 0.05849 0.44448 0.60668 0.0
C2382 C 0.06765 0.42479 0.5546 0.0
C2383 C 0.05886 0.44443 0.49854 0.0
C2384 C 0.06436 0.43166 0.60842 0.0
C2385 C 0.05573 0.45096 0.55333 0.0
C2386 C 0.05974 0.38575 0.42101 0.0
C2387 C 0.05921 0.36115 0.44182 0.0
N2388 N 0.0591 0.36392 0.50222 0.0
C2389 C 0.05959 0.38833 0.48324 0.0
C2390 C 0.05953 0.37205 0.40004 0.0
C2391 C 0.05927 0.37717 0.52359 0.0
C2392 C 0.02776 0.40024 0.42837 0.0
N2393 N 0.03563 0.41033 0.45415 0.0
C2394 C 0.01874 0.41385 0.53128 0.0
C2395 C 0.03142 0.41709 0.50492 0.0
C2396 C 0.01037 0.40353 0.50523 0.0
C2397 C 0.01507 0.39663 0.45332 0.0
H2398 H 0.03127 0.39514 0.38753 0.0
H2399 H 0.03769 0.42515 0.52451 0.0
C2400 C 0.09736 0.40757 0.48656 0.0
N2401 N 0.09096 0.4003 0.44189 0.0
C2402 C 0.10573 0.40072 0.52852 0.0
C2403 C 0.10141 0.37921 0.47531 0.0
C2404 C 0.0933 0.38649 0.43399 0.0
C2405 C 0.10734 0.38626 0.52447 0.0
H2406 H 0.09528 0.41854 0.49188 0.0
H2407 H 0.08816 0.38095 0.39795 0.0
C2408 C 0.03502 0.42687 0.33506 0.0
N2409 N 0.00686 0.43106 0.34176 0.0
C2410 C 0.02618 0.42011 0.29472 0.0
C2411 C 0.0295 0.43589 0.37843 0.0
C2412 C 0.01198 0.42235 0.29887 0.0
C2413 C 0.01525 0.43782 0.38127 0.0
C2414 C 0.08964 0.41042 0.28958 0.0
C2415 C 0.10153 0.41695 0.26796 0.0
C2416 C 0.08791 0.39614 0.2809 0.0
C2417 C 0.11152 0.40905 0.23811 0.0
C2418 C 0.09815 0.38861 0.25088 0.0
N2419 N 0.10964 0.39517 0.23028 0.0
C2420 C 0.08343 0.45473 0.33022 0.0
C2421 C 0.05947 0.45919 0.33735 0.0
C2422 C 0.08582 0.46828 0.30981 0.0
N2423 N 0.0704 0.45046 0.34317 0.0
C2424 C 0.0614 0.47284 0.31827 0.0
C2425 C 0.07468 0.47748 0.30356 0.0
H2426 H 0.09191 0.4475 0.33433 0.0
H2427 H 0.04919 0.45549 0.34621 0.0
C2428 C 0.04722 0.39022 0.23819 0.0
N2429 N 0.05566 0.40145 0.23567 0.0
C2430 C 0.03789 0.38775 0.19146 0.0
C2431 C 0.04727 0.4075 0.13765 0.0
C2432 C 0.05638 0.40967 0.18574 0.0
C2433 C 0.03734 0.39697 0.14231 0.0
H2434 H 0.04653 0.38423 0.27947 0.0
H2435 H 0.06287 0.4188 0.18622 0.0
O2436 O 0.06798 0.42466 0.4459 0.0
O2437 O 0.06036 0.39651 0.38061 0.0
O2438 O 0.04896 0.42457 0.33255 0.0
O2439 O 0.07982 0.41803 0.31914 0.0
H2440 H 0.07248 0.41468 0.55628 0.0
H2441 H 0.05676 0.44965 0.45633 0.0
H2442 H 0.06651 0.42681 0.65158 0.0
H2443 H 0.05112 0.46119 0.55342 0.0
H2444 H 0.0591 0.3505 0.42622 0.0
H2445 H 0.0597 0.39883 0.50011 0.0
H2446 H 0.05976 0.36985 0.35199 0.0
H2447 H 0.05918 0.37904 0.57189 0.0
H2448 H 0.01555 0.41933 0.57174 0.0
H2449 H 0.00887 0.38873 0.43142 0.0
H2450 H 0.11011 0.40649 0.56597 0.0
H2451 H 0.10256 0.36807 0.47044 0.0
H2452 H 0.03018 0.41322 0.26049 0.0
H2453 H 0.0361 0.44106 0.41071 0.0
H2454 H 0.00503 0.41714 0.26802 0.0
H2455 H 0.01087 0.44463 0.41512 0.0
H2456 H 0.10302 0.42799 0.27423 0.0
H2457 H 0.07881 0.39088 0.29722 0.0
H2458 H 0.12077 0.41397 0.22119 0.0
H2459 H 0.09695 0.37755 0.24398 0.0
H2460 H 0.0962 0.47152 0.29881 0.0
H2461 H 0.05253 0.47956 0.31307 0.0
H2462 H 0.03026 0.37962 0.19658 0.0
H2463 H 0.04696 0.41491 0.10077 0.0
Li2464 Li 0.34736 0.68773 0.47483 0.0
Li2465 Li 0.34628 0.67769 0.37294 0.0
Li2466 Li 0.34357 0.70235 0.38533 0.0
Li2467 Li 0.32593 0.68537 0.42055 0.0
C2468 C 0.37253 0.685 0.41587 0.0
N2469 N 0.39762 0.67231 0.43743 0.0
C2470 C 0.37304 0.67125 0.43623 0.0
C2471 C 0.38482 0.69228 0.40658 0.0
C2472 C 0.38581 0.66502 0.4468 0.0
C2473 C 0.39739 0.68569 0.41775 0.0
C2474 C 0.32893 0.66068 0.4691 0.0
C2475 C 0.31054 0.64448 0.44888 0.0
N2476 N 0.30922 0.64214 0.50933 0.0
C2477 C 0.32752 0.65798 0.53095 0.0
C2478 C 0.3205 0.65375 0.42764 0.0
C2479 C 0.31745 0.64862 0.55042 0.0
C2480 C 0.34416 0.69094 0.59746 0.0
N2481 N 0.35426 0.6898 0.55512 0.0
C2482 C 0.36981 0.70265 0.61735 0.0
C2483 C 0.36715 0.6948 0.56548 0.0
C2484 C 0.35903 0.70553 0.65799 0.0
C2485 C 0.34634 0.69879 0.64964 0.0
H2486 H 0.33386 0.68742 0.58694 0.0
H2487 H 0.37493 0.69416 0.5308 0.0
C2488 C 0.36319 0.67163 0.27682 0.0
N2489 N 0.35442 0.6653 0.31593 0.0
C2490 C 0.3691 0.66421 0.22941 0.0
C2491 C 0.35726 0.64364 0.26442 0.0
C2492 C 0.35141 0.65155 0.31106 0.0
C2493 C 0.3662 0.65 0.22253 0.0
H2494 H 0.36532 0.6826 0.28164 0.0
H2495 H 0.34441 0.64677 0.34288 0.0
C2496 C 0.33519 0.71351 0.49701 0.0
N2497 N 0.33959 0.73645 0.56968 0.0
C2498 C 0.32463 0.71851 0.53407 0.0
C2499 C 0.34801 0.72014 0.49707 0.0
C2500 C 0.32707 0.73011 0.5706 0.0
C2501 C 0.35 0.73176 0.53388 0.0
C2502 C 0.33201 0.6862 0.27728 0.0
C2503 C 0.33933 0.69434 0.23589 0.0
C2504 C 0.32523 0.67424 0.25724 0.0
C2505 C 0.33996 0.69023 0.17528 0.0
C2506 C 0.32613 0.67046 0.19629 0.0
N2507 N 0.33343 0.67846 0.15693 0.0
C2508 C 0.3602 0.72253 0.33213 0.0
C2509 C 0.33735 0.73011 0.35047 0.0
C2510 C 0.36373 0.73545 0.30839 0.0
N2511 N 0.34722 0.72012 0.35242 0.0
C2512 C 0.34039 0.74319 0.32651 0.0
C2513 C 0.35374 0.74598 0.3047 0.0
H2514 H 0.36779 0.71434 0.334 0.0
H2515 H 0.32711 0.72787 0.36715 0.0
C2516 C 0.30284 0.68336 0.49464 0.0
N2517 N 0.30681 0.68312 0.43565 0.0
C2518 C 0.28895 0.68231 0.50992 0.0
C2519 C 0.28344 0.68091 0.40328 0.0
C2520 C 0.29749 0.68188 0.39007 0.0
C2521 C 0.27902 0.6812 0.46393 0.0
H2522 H 0.31051 0.68453 0.52983 0.0
H2523 H 0.30095 0.68183 0.34354 0.0
O2524 O 0.36015 0.69137 0.40477 0.0
O2525 O 0.33856 0.67 0.44923 0.0
O2526 O 0.33303 0.70199 0.46191 0.0
O2527 O 0.33154 0.6899 0.33709 0.0
H2528 H 0.36373 0.66536 0.44364 0.0
H2529 H 0.38469 0.70295 0.39136 0.0
H2530 H 0.38634 0.65439 0.46244 0.0
H2531 H 0.40696 0.69122 0.41084 0.0
H2532 H 0.30385 0.63916 0.4173 0.0
H2533 H 0.33414 0.66302 0.56359 0.0
H2534 H 0.32153 0.65564 0.37965 0.0
H2535 H 0.31619 0.64649 0.5982 0.0
H2536 H 0.3798 0.7075 0.62254 0.0
H2537 H 0.33767 0.70086 0.67914 0.0
H2538 H 0.37566 0.66969 0.19777 0.0
H2539 H 0.35486 0.63268 0.26144 0.0
H2540 H 0.31469 0.71343 0.53485 0.0
H2541 H 0.35638 0.71628 0.46946 0.0
H2542 H 0.31901 0.73407 0.59969 0.0
H2543 H 0.35985 0.73701 0.53425 0.0
H2544 H 0.3446 0.70365 0.25046 0.0
H2545 H 0.31943 0.66788 0.28844 0.0
H2546 H 0.34568 0.69637 0.14288 0.0
H2547 H 0.32104 0.66116 0.18029 0.0
H2548 H 0.37418 0.73714 0.29284 0.0
H2549 H 0.33229 0.75089 0.32368 0.0
H2550 H 0.28598 0.68279 0.55715 0.0
H2551 H 0.27611 0.67998 0.36652 0.0
Li2552 Li 0.06114 0.59822 0.18383 0.0
Li2553 Li 0.0691 0.57746 0.13308 0.0
Li2554 Li 0.07677 0.60005 0.09547 0.0
Li2555 Li 0.05334 0.59248 0.08036 0.0
C2556 C 0.08907 0.60022 0.20895 0.0
N2557 N 0.10654 0.61766 0.27208 0.0
C2558 C 0.10127 0.59505 0.2339 0.0
C2559 C 0.08574 0.61425 0.21621 0.0
C2560 C 0.10997 0.60403 0.26565 0.0
C2561 C 0.09471 0.6229 0.24823 0.0
C2562 C 0.04514 0.57025 0.17989 0.0
C2563 C 0.03326 0.54837 0.16879 0.0
N2564 N 0.03596 0.54537 0.22778 0.0
C2565 C 0.04767 0.56699 0.24056 0.0
C2566 C 0.03778 0.5609 0.14381 0.0
C2567 C 0.043 0.55435 0.26387 0.0
C2568 C 0.04142 0.61111 0.25092 0.0
N2569 N 0.05381 0.60477 0.25738 0.0
C2570 C 0.0495 0.60057 0.36213 0.0
C2571 C 0.05828 0.60005 0.31197 0.0
C2572 C 0.0362 0.60614 0.3555 0.0
C2573 C 0.03247 0.61211 0.29992 0.0
H2574 H 0.03791 0.61411 0.20637 0.0
H2575 H 0.06801 0.59461 0.3151 0.0
C2576 C 0.07203 0.54781 0.11776 0.0
N2577 N 0.07427 0.559 0.15403 0.0
C2578 C 0.0739 0.53437 0.14046 0.0
C2579 C 0.08081 0.54432 0.23631 0.0
C2580 C 0.07896 0.55751 0.21165 0.0
C2581 C 0.07796 0.53255 0.20103 0.0
H2582 H 0.06827 0.54926 0.0722 0.0
H2583 H 0.08055 0.5666 0.23959 0.0
C2584 C 0.05655 0.6218 0.07655 0.0
N2585 N 0.05036 0.64439 0.00413 0.0
C2586 C 0.06104 0.62223 0.0165 0.0
C2587 C 0.04902 0.63296 0.09996 0.0
C2588 C 0.0578 0.6337 0.98055 0.0
C2589 C 0.04595 0.64425 0.06258 0.0
C2590 C 0.06614 0.57998 0.99086 0.0
C2591 C 0.07127 0.58679 0.93966 0.0
C2592 C 0.05642 0.56939 0.98377 0.0
C2593 C 0.06645 0.583 0.88237 0.0
C2594 C 0.05184 0.56592 0.92575 0.0
N2595 N 0.0569 0.57275 0.87666 0.0
C2596 C 0.10003 0.60275 0.02137 0.0
C2597 C 0.09218 0.62404 0.06293 0.0
C2598 C 0.10877 0.6098 0.98169 0.0
N2599 N 0.09153 0.60997 0.05887 0.0
C2600 C 0.10067 0.63151 0.02373 0.0
C2601 C 0.10869 0.62438 0.98081 0.0
H2602 H 0.09928 0.59155 0.01924 0.0
H2603 H 0.08539 0.62952 0.09353 0.0
C2604 C 0.02489 0.59129 0.05995 0.0
N2605 N 0.037 0.59439 0.0322 0.0
C2606 C 0.01236 0.59372 0.03076 0.0
C2607 C 0.02494 0.60303 0.94569 0.0
C2608 C 0.03722 0.6 0.97575 0.0
C2609 C 0.0122 0.5999 0.97302 0.0
H2610 H 0.02491 0.58715 0.1054 0.0
H2611 H 0.04689 0.6025 0.95441 0.0
O2612 O 0.08052 0.59149 0.17765 0.0
O2613 O 0.05 0.58242 0.15579 0.0
O2614 O 0.05979 0.61074 0.11286 0.0
O2615 O 0.07065 0.58358 0.04749 0.0
H2616 H 0.10398 0.58421 0.22871 0.0
H2617 H 0.07635 0.61847 0.19747 0.0
H2618 H 0.11945 0.60018 0.28517 0.0
H2619 H 0.09227 0.63378 0.25412 0.0
H2620 H 0.02761 0.54103 0.14126 0.0
H2621 H 0.05346 0.57398 0.26906 0.0
H2622 H 0.03554 0.56327 0.097 0.0
H2623 H 0.04504 0.55165 0.31056 0.0
H2624 H 0.05267 0.59579 0.4043 0.0
H2625 H 0.02221 0.61622 0.29263 0.0
H2626 H 0.07151 0.52553 0.11202 0.0
H2627 H 0.08405 0.54333 0.28306 0.0
H2628 H 0.067 0.61378 0.99782 0.0
H2629 H 0.04565 0.63296 0.14662 0.0
H2630 H 0.0612 0.63412 0.93395 0.0
H2631 H 0.04011 0.65293 0.08011 0.0
H2632 H 0.07881 0.59499 0.94392 0.0
H2633 H 0.05236 0.56401 0.02269 0.0
H2634 H 0.07028 0.58825 0.84245 0.0
H2635 H 0.04425 0.55782 0.91977 0.0
H2636 H 0.11477 0.60394 0.9492 0.0
H2637 H 0.10049 0.64276 0.02499 0.0
H2638 H 0.00295 0.59078 0.05364 0.0
H2639 H 0.02554 0.60807 0.90201 0.0
Li2640 Li 0.15206 0.3256 0.86522 0.0
Li2641 Li 0.1508 0.3144 0.96465 0.0
Li2642 Li 0.17248 0.31809 0.91332 0.0
Li2643 Li 0.15547 0.30093 0.87246 0.0
C2644 C 0.16814 0.34232 0.96606 0.0
N2645 N 0.18655 0.36161 0.01123 0.0
C2646 C 0.16879 0.34489 0.02828 0.0
C2647 C 0.17667 0.34976 0.92674 0.0
C2648 C 0.17821 0.35463 0.05026 0.0
C2649 C 0.18596 0.3594 0.95046 0.0
C2650 C 0.12583 0.31694 0.90398 0.0
C2651 C 0.10101 0.31539 0.90291 0.0
N2652 N 0.10022 0.32847 0.9259 0.0
C2653 C 0.12475 0.33037 0.92773 0.0
C2654 C 0.11386 0.30938 0.89151 0.0
C2655 C 0.11172 0.33601 0.93841 0.0
C2656 C 0.13546 0.33242 0.76862 0.0
N2657 N 0.14381 0.33844 0.8104 0.0
C2658 C 0.14039 0.36073 0.76505 0.0
C2659 C 0.14631 0.35234 0.80987 0.0
C2660 C 0.13192 0.35472 0.72037 0.0
C2661 C 0.12953 0.34033 0.72278 0.0
H2662 H 0.1337 0.32133 0.77012 0.0
H2663 H 0.15294 0.35688 0.84383 0.0
C2664 C 0.15358 0.31054 0.08713 0.0
N2665 N 0.14368 0.3112 0.04372 0.0
C2666 C 0.1517 0.30218 0.13803 0.0
C2667 C 0.12881 0.29671 0.10221 0.0
C2668 C 0.13117 0.3051 0.05167 0.0
C2669 C 0.13951 0.29443 0.14397 0.0
H2670 H 0.16364 0.31492 0.07837 0.0
H2671 H 0.1236 0.30535 0.01595 0.0
C2672 C 0.16717 0.31868 0.7694 0.0
N2673 N 0.16625 0.32779 0.6508 0.0
C2674 C 0.16013 0.31096 0.72559 0.0
C2675 C 0.17394 0.3309 0.75266 0.0
C2676 C 0.15974 0.31577 0.66592 0.0
C2677 C 0.17329 0.33537 0.69255 0.0
C2678 C 0.16406 0.28905 0.98398 0.0
C2679 C 0.17468 0.28467 0.02217 0.0
C2680 C 0.15175 0.28151 0.98176 0.0
C2681 C 0.17283 0.27278 0.05751 0.0
C2682 C 0.15034 0.26962 0.01742 0.0
N2683 N 0.16081 0.26555 0.05434 0.0
C2684 C 0.19464 0.32055 0.99176 0.0
C2685 C 0.20123 0.32214 0.88865 0.0
C2686 C 0.2083 0.32179 0.01032 0.0
N2687 N 0.19138 0.32074 0.93195 0.0
C2688 C 0.21509 0.3233 0.9052 0.0
C2689 C 0.2188 0.323 0.96684 0.0
H2690 H 0.18657 0.31932 0.0251 0.0
H2691 H 0.19834 0.3221 0.84136 0.0
C2692 C 0.1397 0.28103 0.81291 0.0
N2693 N 0.15244 0.28339 0.83611 0.0
C2694 C 0.13641 0.26813 0.78822 0.0
C2695 C 0.15953 0.26035 0.81099 0.0
C2696 C 0.16233 0.2734 0.83578 0.0
C2697 C 0.1464 0.25757 0.78668 0.0
H2698 H 0.13209 0.2892 0.81366 0.0
H2699 H 0.17236 0.27559 0.85489 0.0
O2700 O 0.15915 0.33264 0.94378 0.0
O2701 O 0.13848 0.31114 0.89276 0.0
O2702 O 0.1674 0.31429 0.82831 0.0
O2703 O 0.16563 0.30082 0.94991 0.0
H2704 H 0.16206 0.33945 0.05927 0.0
H2705 H 0.17622 0.34798 0.8785 0.0
H2706 H 0.17887 0.35667 0.09835 0.0
H2707 H 0.19272 0.36513 0.92055 0.0
H2708 H 0.09168 0.30964 0.89354 0.0
H2709 H 0.13381 0.33645 0.93768 0.0
H2710 H 0.11444 0.29895 0.87363 0.0
H2711 H 0.11074 0.34639 0.95665 0.0
H2712 H 0.14238 0.3718 0.76565 0.0
H2713 H 0.12336 0.3351 0.6889 0.0
H2714 H 0.16032 0.30061 0.16839 0.0
H2715 H 0.11919 0.29106 0.1055 0.0
H2716 H 0.15487 0.30145 0.73762 0.0
H2717 H 0.17958 0.33691 0.78572 0.0
H2718 H 0.15423 0.30997 0.63168 0.0
H2719 H 0.17839 0.34488 0.67909 0.0
H2720 H 0.18423 0.29045 0.0247 0.0
H2721 H 0.14332 0.28489 0.9533 0.0
H2722 H 0.18094 0.26929 0.08744 0.0
H2723 H 0.14089 0.26368 0.01602 0.0
H2724 H 0.2106 0.32174 0.0583 0.0
H2725 H 0.22283 0.32403 0.87005 0.0
H2726 H 0.12613 0.26646 0.7707 0.0
H2727 H 0.16763 0.25262 0.80988 0.0
Li2728 Li 0.43543 0.40674 0.69073 0.0
Li2729 Li 0.4306 0.42813 0.63727 0.0
Li2730 Li 0.42029 0.40645 0.59953 0.0
Li2731 Li 0.44459 0.41095 0.58779 0.0
C2732 C 0.40719 0.40864 0.71087 0.0
N2733 N 0.38698 0.39415 0.77229 0.0
C2734 C 0.39579 0.41564 0.73452 0.0
C2735 C 0.40833 0.39427 0.71856 0.0
C2736 C 0.38567 0.40813 0.76542 0.0
C2737 C 0.398 0.38713 0.7497 0.0
C2738 C 0.45541 0.43216 0.68556 0.0
C2739 C 0.46944 0.45256 0.67058 0.0
N2740 N 0.46858 0.45543 0.73077 0.0
C2741 C 0.45479 0.43523 0.74737 0.0
C2742 C 0.46291 0.44082 0.64694 0.0
C2743 C 0.46147 0.44706 0.76931 0.0
C2744 C 0.45297 0.39303 0.76669 0.0
N2745 N 0.44092 0.40016 0.7673 0.0
C2746 C 0.44313 0.40456 0.87325 0.0
C2747 C 0.43561 0.40547 0.81936 0.0
C2748 C 0.45607 0.39801 0.87296 0.0
C2749 C 0.46066 0.39163 0.81951 0.0
H2750 H 0.45728 0.38964 0.72409 0.0
H2751 H 0.42627 0.4116 0.81788 0.0
C2752 C 0.42863 0.45771 0.61575 0.0
N2753 N 0.4277 0.44716 0.65643 0.0
C2754 C 0.42745 0.4715 0.63515 0.0
C2755 C 0.42417 0.46321 0.73745 0.0
C2756 C 0.42523 0.44964 0.71599 0.0
C2757 C 0.42539 0.47442 0.69702 0.0
H2758 H 0.43045 0.45545 0.5685 0.0
H2759 H 0.42452 0.44102 0.74725 0.0
C2760 C 0.43894 0.38225 0.58728 0.0
N2761 N 0.44547 0.35891 0.5201 0.0
C2762 C 0.43454 0.38107 0.52728 0.0
C2763 C 0.44656 0.37147 0.6133 0.0
C2764 C 0.43796 0.36923 0.494 0.0
C2765 C 0.44979 0.35978 0.57856 0.0
C2766 C 0.43353 0.4245 0.4949 0.0
C2767 C 0.42816 0.41726 0.44531 0.0
C2768 C 0.44364 0.43459 0.48553 0.0
C2769 C 0.43319 0.42008 0.38733 0.0
C2770 C 0.44843 0.4371 0.42689 0.0
N2771 N 0.44315 0.42984 0.3794 0.0
C2772 C 0.39707 0.40661 0.52394 0.0
C2773 C 0.40248 0.38444 0.56386 0.0
C2774 C 0.38761 0.40074 0.48373 0.0
N2775 N 0.40466 0.39836 0.56104 0.0
C2776 C 0.39325 0.3781 0.524 0.0
C2777 C 0.38602 0.38623 0.48153 0.0
H2778 H 0.39898 0.41768 0.52294 0.0
H2779 H 0.40861 0.37812 0.59406 0.0
C2780 C 0.47313 0.40903 0.56809 0.0
N2781 N 0.46074 0.40698 0.54088 0.0
C2782 C 0.48532 0.40514 0.5391 0.0
C2783 C 0.47177 0.39658 0.4554 0.0
C2784 C 0.4599 0.40103 0.4852 0.0
C2785 C 0.48479 0.39861 0.48213 0.0
H2786 H 0.47358 0.41351 0.61291 0.0
H2787 H 0.45001 0.39936 0.46431 0.0
O2788 O 0.41712 0.41591 0.68043 0.0
O2789 O 0.44872 0.42074 0.66301 0.0
O2790 O 0.43563 0.39376 0.62081 0.0
O2791 O 0.42879 0.42185 0.55215 0.0
H2792 H 0.39477 0.42677 0.729 0.0
H2793 H 0.41709 0.38865 0.70091 0.0
H2794 H 0.37679 0.41342 0.78394 0.0
H2795 H 0.39875 0.37601 0.75595 0.0
H2796 H 0.47522 0.45938 0.6411 0.0
H2797 H 0.44907 0.42869 0.77804 0.0
H2798 H 0.46375 0.43848 0.59925 0.0
H2799 H 0.46097 0.44961 0.81697 0.0
H2800 H 0.43934 0.4097 0.91357 0.0
H2801 H 0.47072 0.38678 0.81705 0.0
H2802 H 0.42818 0.47975 0.60202 0.0
H2803 H 0.42283 0.46485 0.78558 0.0
H2804 H 0.42864 0.38928 0.50634 0.0
H2805 H 0.44987 0.37203 0.65993 0.0
H2806 H 0.43466 0.36825 0.4474 0.0
H2807 H 0.4557 0.35138 0.59814 0.0
H2808 H 0.42029 0.40945 0.45137 0.0
H2809 H 0.44778 0.44042 0.52311 0.0
H2810 H 0.42919 0.41449 0.34865 0.0
H2811 H 0.45632 0.44483 0.41912 0.0
H2812 H 0.38203 0.40747 0.45302 0.0
H2813 H 0.3925 0.36689 0.52402 0.0
H2814 H 0.49501 0.40727 0.56143 0.0
H2815 H 0.47062 0.39133 0.41238 0.0
C2816 C 0.25676 0.1713 0.50651 0.0
C2817 C 0.26355 0.18404 0.51515 0.0
H2818 H 0.23776 0.16113 0.48328 0.0
C2819 C 0.25619 0.19647 0.50774 0.0
H2820 H 0.26228 0.16159 0.51163 0.0
C2821 C 0.24226 0.19621 0.49233 0.0
C2822 C 0.23547 0.18351 0.48303 0.0
H2823 H 0.2612 0.20641 0.51432 0.0
H2824 H 0.2368 0.20595 0.4871 0.0
C2825 C 0.24283 0.17104 0.48989 0.0
C2826 C 0.08834 0.98759 0.7614 0.0
C2827 C 0.07876 0.98313 0.71771 0.0
H2828 H 0.09558 0.00439 0.81662 0.0
C2829 C 0.06901 0.99268 0.69572 0.0
H2830 H 0.09608 0.98054 0.7788 0.0
C2831 C 0.06878 0.00632 0.71715 0.0
C2832 C 0.07824 0.01073 0.7613 0.0
H2833 H 0.06128 0.98953 0.66312 0.0
H2834 H 0.06094 0.01332 0.70023 0.0
C2835 C 0.08806 0.00123 0.78308 0.0
C2836 C 0.24418 0.80613 0.00126 0.0
C2837 C 0.2373 0.81875 0.0111 0.0
H2838 H 0.26328 0.79611 0.98005 0.0
C2839 C 0.24462 0.83128 0.00575 0.0
H2840 H 0.23875 0.79633 0.00534 0.0
C2841 C 0.2586 0.83116 0.99018 0.0
C2842 C 0.26549 0.8185 0.98113 0.0
H2843 H 0.23947 0.84114 0.0128 0.0
H2844 H 0.2641 0.84091 0.98629 0.0
C2845 C 0.25817 0.806 0.98695 0.0
C2846 C 0.41584 0.0066 0.23654 0.0
C2847 C 0.42454 0.01718 0.25802 0.0
H2848 H 0.41012 0.98515 0.24165 0.0
C2849 C 0.43391 0.0141 0.3047 0.0
H2850 H 0.40843 0.00868 0.201 0.0
C2851 C 0.43481 0.00067 0.32825 0.0
C2852 C 0.42635 0.99002 0.30577 0.0
H2853 H 0.44086 0.02198 0.32184 0.0
H2854 H 0.44225 0.9986 0.36364 0.0
C2855 C 0.4167 0.99316 0.26029 0.0
C2856 C 0.74128 0.81334 0.54307 0.0
C2857 C 0.7368 0.82164 0.49442 0.0
H2858 H 0.7583 0.80638 0.59677 0.0
C2859 C 0.74654 0.82983 0.4636 0.0
H2860 H 0.73416 0.80669 0.56715 0.0
C2861 C 0.76044 0.82954 0.48034 0.0
C2862 C 0.76489 0.82112 0.52854 0.0
H2863 H 0.74344 0.83652 0.42661 0.0
H2864 H 0.7677 0.83592 0.45563 0.0
C2865 C 0.75514 0.81314 0.56007 0.0
C2866 C 0.93958 0.00511 0.2744 0.0
C2867 C 0.92764 0.01287 0.28622 0.0
H2868 H 0.94802 0.98548 0.24833 0.0
C2869 C 0.91469 0.00647 0.28076 0.0
H2870 H 0.94968 0.00982 0.27847 0.0
C2871 C 0.91372 0.99255 0.26255 0.0
C2872 C 0.92571 0.98481 0.25099 0.0
H2873 H 0.90535 0.01231 0.28933 0.0
H2874 H 0.90366 0.9878 0.25805 0.0
C2875 C 0.93863 0.9912 0.2574 0.0
C2876 C 0.75905 0.16343 0.01857 0.0
C2877 C 0.76427 0.17317 0.97697 0.0
H2878 H 0.74146 0.15612 0.06786 0.0
C2879 C 0.75531 0.18326 0.95321 0.0
H2880 H 0.76565 0.15544 0.03727 0.0
C2881 C 0.7415 0.18365 0.97071 0.0
C2882 C 0.73629 0.17396 0.01246 0.0
H2883 H 0.75904 0.19111 0.92212 0.0
H2884 H 0.73497 0.19175 0.95242 0.0
C2885 C 0.74521 0.16383 0.03618 0.0
C2886 C 0.57598 0.98525 0.70187 0.0
C2887 C 0.57177 0.98277 0.76189 0.0
H2888 H 0.5794 0.00031 0.63201 0.0
C2889 C 0.56793 0.99413 0.79812 0.0
H2890 H 0.57922 0.97677 0.673 0.0
C2891 C 0.56809 0.00761 0.77467 0.0
C2892 C 0.57208 0.01005 0.7144 0.0
H2893 H 0.56441 0.99259 0.84416 0.0
H2894 H 0.56471 0.01609 0.80332 0.0
C2895 C 0.5761 0.99873 0.67836 0.0
C2896 C 0.73947 0.68868 0.0414 0.0
C2897 C 0.73473 0.67848 0.00084 0.0
H2898 H 0.75647 0.69685 0.0916 0.0
C2899 C 0.74403 0.66832 0.98028 0.0
H2900 H 0.73265 0.69677 0.05763 0.0
C2901 C 0.75778 0.66847 -0.00074 0.0
C2902 C 0.76254 0.67882 0.03911 0.0
H2903 H 0.74068 0.66023 0.94952 0.0
H2904 H 0.76476 0.66069 0.98154 0.0
C2905 C 0.75318 0.68882 0.06039 0.0
C2906 C 0.5623 0.50074 0.30107 0.0
C2907 C 0.57349 0.50957 0.28929 0.0
H2908 H 0.55375 0.4804 0.29169 0.0
C2909 C 0.58522 0.50419 0.26028 0.0
H2910 H 0.55318 0.50462 0.32374 0.0
C2911 C 0.58553 0.49029 0.24164 0.0
C2912 C 0.57422 0.48153 0.25264 0.0
H2913 H 0.59395 0.51082 0.25042 0.0
H2914 H 0.59458 0.48641 0.21844 0.0
C2915 C 0.56268 0.48686 0.28316 0.0
C2916 C 0.75505 0.32327 0.54327 0.0
C2917 C 0.759 0.32956 0.48839 0.0
H2918 H 0.73846 0.31692 0.60079 0.0
C2919 C 0.74871 0.33508 0.45056 0.0
H2920 H 0.76262 0.31863 0.57304 0.0
C2921 C 0.7348 0.3339 0.46627 0.0
C2922 C 0.73091 0.3273 0.52038 0.0
H2923 H 0.75137 0.34019 0.4085 0.0
H2924 H 0.72708 0.33803 0.4358 0.0
C2925 C 0.74117 0.32223 0.55922 0.0
C2926 C 0.91055 0.48888 0.77555 0.0
C2927 C 0.92005 0.4789 0.75519 0.0
H2928 H 0.90426 0.51025 0.77339 0.0
C2929 C 0.93052 0.48299 0.71499 0.0
H2930 H 0.90235 0.486 0.80634 0.0
C2931 C 0.93159 0.49677 0.69622 0.0
C2932 C 0.92222 0.5068 0.71704 0.0
H2933 H 0.93811 0.47559 0.69911 0.0
H2934 H 0.93984 0.4996 0.66554 0.0
C2935 C 0.91157 0.50271 0.75632 0.0
C2936 C 0.23815 0.31531 0.03465 0.0
C2937 C 0.23351 0.32347 0.98584 0.0
H2938 H 0.25525 0.30887 0.08901 0.0
C2939 C 0.24307 0.33188 0.95508 0.0
H2940 H 0.23115 0.30849 0.05867 0.0
C2941 C 0.25694 0.33199 0.97229 0.0
C2942 C 0.26154 0.32376 0.02085 0.0
H2943 H 0.23984 0.33845 0.91793 0.0
H2944 H 0.26407 0.33857 0.94777 0.0
C2945 C 0.25197 0.3155 0.05208 0.0
C2946 C 0.41653 0.49264 0.76936 0.0
C2947 C 0.42495 0.489 0.71985 0.0
H2948 H 0.4102 0.5086 0.83121 0.0
C2949 C 0.43335 0.49931 0.69383 0.0
H2950 H 0.40972 0.48509 0.78993 0.0
C2951 C 0.4334 0.51283 0.71688 0.0
C2952 C 0.42518 0.51632 0.76697 0.0
H2953 H 0.44019 0.49689 0.65655 0.0
H2954 H 0.44012 0.52049 0.69644 0.0
C2955 C 0.41674 0.50611 0.79297 0.0
C2956 C 0.25478 0.6892 0.44651 0.0
C2957 C 0.26413 0.68099 0.47928 0.0
H2958 H 0.23406 0.69638 0.43753 0.0
C2959 C 0.25924 0.67305 0.5282 0.0
H2960 H 0.25828 0.69562 0.40926 0.0
C2961 C 0.24531 0.67341 0.54429 0.0
C2962 C 0.23597 0.68177 0.51197 0.0
H2963 H 0.26619 0.66651 0.55391 0.0
H2964 H 0.24185 0.66707 0.58182 0.0
C2965 C 0.24089 0.68962 0.46276 0.0
C2966 C 0.08381 0.49397 0.22532 0.0
C2967 C 0.07663 0.49172 0.27971 0.0
H2968 H 0.08977 0.50872 0.15725 0.0
C2969 C 0.07048 0.50306 0.30916 0.0
H2970 H 0.08853 0.48536 0.20148 0.0
C2971 C 0.07126 0.51635 0.28422 0.0
C2972 C 0.07808 0.51856 0.22893 0.0
H2973 H 0.06491 0.5016 0.35119 0.0
H2974 H 0.06615 0.52484 0.30728 0.0
C2975 C 0.08442 0.50727 0.19983 0.0
C2976 C 0.12039 0.13563 0.07269 0.0
C2977 C 0.11532 0.12232 0.08626 0.0
H2978 H 0.13052 0.15387 0.10552 0.0
C2979 C 0.11739 0.11693 0.14479 0.0
H2980 H 0.11889 0.14013 0.02824 0.0
C2981 C 0.12392 0.12488 0.18937 0.0
C2982 C 0.12849 0.1384 0.17642 0.0
H2983 H 0.11377 0.10663 0.15647 0.0
H2984 H 0.12494 0.12061 0.23451 0.0
C2985 C 0.1269 0.14357 0.11724 0.0
C2986 C 0.12311 0.87146 0.31826 0.0
C2987 C 0.12979 0.85877 0.32926 0.0
H2988 H 0.11061 0.88778 0.35458 0.0
C2989 C 0.12977 0.85331 0.38837 0.0
H2990 H 0.12291 0.87588 0.27318 0.0
C2991 C 0.12273 0.86012 0.43498 0.0
C2992 C 0.11548 0.87244 0.42324 0.0
H2993 H 0.13497 0.84363 0.39831 0.0
H2994 H 0.12249 0.85543 0.47956 0.0
C2995 C 0.11598 0.8782 0.36473 0.0
C2996 C 0.3819 0.88367 0.64647 0.0
C2997 C 0.38597 0.87765 0.59121 0.0
H2998 H 0.37302 0.88052 0.73409 0.0
C2999 C 0.38304 0.86355 0.58098 0.0
H3000 H 0.38381 0.89456 0.65553 0.0
C3001 C 0.37664 0.85556 0.62565 0.0
C3002 C 0.37309 0.86143 0.68189 0.0
H3003 H 0.38613 0.85852 0.53928 0.0
H3004 H 0.37464 0.8447 0.61633 0.0
C3005 C 0.37556 0.87565 0.69131 0.0
C3006 C 0.37342 0.14667 0.87668 0.0
C3007 C 0.37127 0.14131 0.81818 0.0
H3008 H 0.38192 0.14338 0.96483 0.0
C3009 C 0.3753 0.12758 0.80586 0.0
H3010 H 0.37022 0.15713 0.88803 0.0
C3011 C 0.38182 0.11959 0.85033 0.0
C3012 C 0.38446 0.12516 0.9081 0.0
H3013 H 0.37385 0.12314 0.76125 0.0
H3014 H 0.38499 0.10912 0.83912 0.0
C3015 C 0.37996 0.13871 0.92105 0.0
C3016 C 0.8732 0.87601 0.90665 0.0
C3017 C 0.88641 0.87246 0.92746 0.0
H3018 H 0.85684 0.87139 0.8447 0.0
C3019 C 0.89368 0.8618 0.89817 0.0
H3020 H 0.8674 0.88421 0.92849 0.0
C3021 C 0.88781 0.85467 0.84962 0.0
C3022 C 0.87442 0.85788 0.82959 0.0
H3023 H 0.90402 0.85907 0.91238 0.0
H3024 H 0.89384 0.84666 0.82763 0.0
C3025 C 0.86722 0.86873 0.85841 0.0
C3026 C 0.89311 0.14431 0.6679 0.0
C3027 C 0.88034 0.13918 0.68803 0.0
H3028 H 0.90978 0.14238 0.60579 0.0
C3029 C 0.87497 0.12717 0.66038 0.0
H3030 H 0.89773 0.15338 0.6886 0.0
C3031 C 0.88217 0.12053 0.61364 0.0
C3032 C 0.89487 0.1258 0.59314 0.0
H3033 H 0.86509 0.123 0.67413 0.0
H3034 H 0.87783 0.1112 0.59406 0.0
C3035 C 0.90017 0.13783 0.62079 0.0
C3036 C 0.61761 0.11421 0.36468 0.0
C3037 C 0.61741 0.11976 0.42373 0.0
H3038 H 0.62363 0.11705 0.27208 0.0
C3039 C 0.62431 0.13236 0.43463 0.0
H3040 H 0.61222 0.10466 0.35421 0.0
C3041 C 0.63067 0.13954 0.38725 0.0
C3042 C 0.63038 0.13423 0.32798 0.0
H3043 H 0.62463 0.13682 0.47963 0.0
H3044 H 0.63566 0.14936 0.3968 0.0
C3045 C 0.62409 0.12133 0.31741 0.0
C3046 C 0.627 0.87099 0.07988 0.0
C3047 C 0.61558 0.87939 0.09429 0.0
H3048 H 0.64243 0.85689 0.11261 0.0
C3049 C 0.6119 0.8809 0.15574 0.0
H3050 H 0.63041 0.8698 0.0335 0.0
C3051 C 0.61911 0.87384 0.20106 0.0
C3052 C 0.62998 0.86493 0.18586 0.0
H3053 H 0.60306 0.88705 0.16891 0.0
H3054 H 0.61576 0.87479 0.24768 0.0
C3055 C 0.63401 0.8637 0.12513 0.0
C3056 C 0.62041 0.63307 0.57674 0.0
C3057 C 0.61362 0.62057 0.59077 0.0
H3058 H 0.63239 0.65014 0.60868 0.0
C3059 C 0.61411 0.61573 0.65091 0.0
H3060 H 0.62019 0.63729 0.53132 0.0
C3061 C 0.62068 0.62345 0.69612 0.0
C3062 C 0.62719 0.63611 0.68233 0.0
H3063 H 0.6093 0.60601 0.66348 0.0
H3064 H 0.62031 0.61961 0.74214 0.0
C3065 C 0.62721 0.64064 0.62169 0.0
C3066 C 0.59621 0.36111 0.86736 0.0
C3067 C 0.6032 0.37105 0.9024 0.0
H3068 H 0.59735 0.34621 0.79581 0.0
C3069 C 0.61726 0.37345 0.89127 0.0
H3070 H 0.58541 0.35891 0.87528 0.0
C3071 C 0.62414 0.3661 0.84571 0.0
C3072 C 0.61712 0.35612 0.81088 0.0
H3073 H 0.62288 0.38112 0.91731 0.0
H3074 H 0.635 0.36806 0.83839 0.0
C3075 C 0.60308 0.35374 0.82218 0.0
C3076 C 0.86881 0.36514 0.15125 0.0
C3077 C 0.87526 0.35492 0.18696 0.0
H3078 H 0.87068 0.3793 0.0768 0.0
C3079 C 0.88885 0.35104 0.17312 0.0
H3080 H 0.85828 0.36824 0.16016 0.0
C3081 C 0.89582 0.35714 0.12476 0.0
C3082 C 0.88945 0.36741 0.08922 0.0
H3083 H 0.89419 0.34332 0.19998 0.0
H3084 H 0.90623 0.35373 0.11509 0.0
C3085 C 0.87584 0.37132 0.10288 0.0
C3086 C 0.87629 0.64108 0.37924 0.0
C3087 C 0.87188 0.63504 0.32453 0.0
H3088 H 0.88606 0.63808 0.46496 0.0
C3089 C 0.87322 0.6206 0.31712 0.0
H3090 H 0.87518 0.65213 0.38703 0.0
C3091 C 0.87922 0.61247 0.36252 0.0
C3092 C 0.88405 0.61859 0.41638 0.0
H3093 H 0.86998 0.61561 0.27553 0.0
H3094 H 0.88023 0.6014 0.35509 0.0
C3095 C 0.88233 0.63297 0.42447 0.0
C3096 C 0.37096 0.36694 0.44185 0.0
C3097 C 0.37802 0.3795 0.4319 0.0
H3098 H 0.35992 0.34991 0.40238 0.0
C3099 C 0.37834 0.38498 0.37273 0.0
H3100 H 0.37023 0.36253 0.48683 0.0
C3101 C 0.37223 0.37784 0.32456 0.0
C3102 C 0.36583 0.36498 0.33431 0.0
H3103 H 0.38387 0.39449 0.3629 0.0
H3104 H 0.37308 0.38207 0.27925 0.0
C3105 C 0.36501 0.35973 0.39355 0.0
C3106 C 0.37108 0.62455 0.09201 0.0
C3107 C 0.3844 0.62797 0.07222 0.0
H3108 H 0.35471 0.62901 0.15415 0.0
C3109 C 0.3918 0.63829 0.10314 0.0
H3110 H 0.36519 0.61658 0.069 0.0
C3111 C 0.38599 0.64516 0.15247 0.0
C3112 C 0.37252 0.64205 0.17174 0.0
H3113 H 0.40223 0.64088 0.08985 0.0
H3114 H 0.39215 0.65285 0.17584 0.0
C3115 C 0.36514 0.63159 0.14106 0.0
C3116 C 0.13517 0.63574 0.8642 0.0
C3117 C 0.12784 0.64602 0.83226 0.0
H3118 H 0.13492 0.62089 0.93679 0.0
C3119 C 0.11428 0.6491 0.85023 0.0
H3120 H 0.14569 0.63321 0.85213 0.0
C3121 C 0.10827 0.64227 0.89922 0.0
C3122 C 0.11559 0.63205 0.93115 0.0
H3123 H 0.10818 0.65669 0.82592 0.0
H3124 H 0.09773 0.64477 0.91119 0.0
C3125 C 0.12907 0.62876 0.91296 0.0
C3126 C 0.13267 0.37452 0.64523 0.0
C3127 C 0.12559 0.36322 0.67124 0.0
H3128 H 0.13245 0.39071 0.57817 0.0
C3129 C 0.11244 0.35982 0.64875 0.0
H3130 H 0.14286 0.37737 0.66079 0.0
C3131 C 0.1067 0.36721 0.60069 0.0
C3132 C 0.11383 0.37837 0.57445 0.0
H3133 H 0.10648 0.35147 0.66852 0.0
H3134 H 0.09654 0.36434 0.58464 0.0
C3135 C 0.12678 0.3821 0.59761 0.0
C3136 C 0.13622 0.25727 0.19681 0.0
C3137 C 0.14308 0.25758 0.25284 0.0
H3138 H 0.12952 0.2686 0.1194 0.0
C3139 C 0.14741 0.27049 0.276 0.0
H3140 H 0.13292 0.24753 0.17697 0.0
C3141 C 0.14553 0.28267 0.24244 0.0
C3142 C 0.1392 0.28223 0.18521 0.0
H3143 H 0.15246 0.27116 0.31961 0.0
H3144 H 0.14935 0.29239 0.26058 0.0
C3145 C 0.13423 0.26943 0.16367 0.0
C3146 C 0.97544 0.88914 0.45872 0.0
C3147 C 0.97535 0.88855 0.39533 0.0
H3148 H 0.98743 0.89211 0.53878 0.0
C3149 C 0.98771 0.89048 0.36354 0.0
H3150 H 0.96598 0.88776 0.48405 0.0
C3151 C -0.00013 0.89355 0.39434 0.0
C3152 C 3e-05 0.89448 0.45793 0.0
H3153 H 0.98783 0.89038 0.31448 0.0
H3154 H 0.00899 0.89574 0.36785 0.0
C3155 C 0.9877 0.89187 0.48981 0.0
C3156 C 0.35327 0.71728 0.75675 0.0
C3157 C 0.35997 0.7175 0.70033 0.0
H3158 H 0.34657 0.72899 0.83376 0.0
C3159 C 0.36591 0.73 0.68035 0.0
H3160 H 0.34869 0.70779 0.77367 0.0
C3161 C 0.36449 0.74216 0.71404 0.0
C3162 C 0.35723 0.74214 0.76908 0.0
H3163 H 0.37095 0.73065 0.63671 0.0
H3164 H 0.36851 0.75172 0.69518 0.0
C3165 C 0.35196 0.72946 0.79089 0.0
C3166 C 0.5183 0.11127 0.91993 0.0
C3167 C 0.52655 0.09991 0.90337 0.0
H3168 H 0.50018 0.11819 0.96615 0.0
C3169 C 0.52339 0.08669 0.92658 0.0
H3170 H 0.5205 0.12156 0.9026 0.0
C3171 C 0.51172 0.08473 0.96259 0.0
C3172 C 0.50306 0.09597 0.97651 0.0
H3173 H 0.52946 0.0777 0.91391 0.0
H3174 H 0.50924 0.07435 0.97807 0.0
C3175 C 0.5067 0.10934 0.9564 0.0
C3176 C 0.14755 0.71799 0.24069 0.0
C3177 C 0.14089 0.71856 0.29715 0.0
H3178 H 0.15456 0.72929 0.16303 0.0
C3179 C 0.13534 0.73129 0.31656 0.0
H3180 H 0.15184 0.70832 0.22424 0.0
C3181 C 0.13716 0.74331 0.28241 0.0
C3182 C 0.14438 0.74293 0.22726 0.0
H3183 H 0.13035 0.73221 0.3602 0.0
H3184 H 0.13348 0.75303 0.30107 0.0
C3185 C 0.14922 0.73004 0.20594 0.0
C3186 C 0.50958 0.88325 0.54156 0.0
C3187 C 0.50493 0.89699 0.53434 0.0
H3188 H 0.52505 0.86981 0.57882 0.0
C3189 C 0.51321 0.90793 0.55537 0.0
H3190 H 0.5034 0.8746 0.52589 0.0
C3191 C 0.52552 0.90521 0.58552 0.0
C3192 C 0.52992 0.89146 0.5953 0.0
H3193 H 0.51001 0.91863 0.54963 0.0
H3194 H 0.53122 0.91391 0.60386 0.0
C3195 C 0.52194 0.8805 0.57199 0.0
C3196 C 0.34928 0.27351 0.71864 0.0
C3197 C 0.35421 0.26076 0.7411 0.0
H3198 H 0.3464 0.29527 0.73502 0.0
C3199 C 0.36123 0.26066 0.79676 0.0
H3200 H 0.34408 0.27403 0.67531 0.0
C3201 C 0.36277 0.27283 0.83027 0.0
C3202 C 0.35718 0.28544 0.80949 0.0
H3203 H 0.365 0.25105 0.8161 0.0
H3204 H 0.36764 0.27214 0.87427 0.0
C3205 C 0.3507 0.2857 0.75258 0.0
C3206 C 0.99117 0.1075 0.01171 0.0
C3207 C 0.99685 0.09406 0.00947 0.0
H3208 H 0.97498 0.12051 0.04558 0.0
C3209 C 0.98964 0.08307 0.03658 0.0
H3210 H 0.99651 0.11621 0.99141 0.0
C3211 C 0.97739 0.08553 0.06766 0.0
C3212 C 0.97199 0.09906 0.07251 0.0
H3213 H 0.99363 0.07257 0.0349 0.0
H3214 H 0.97256 0.07685 0.09049 0.0
C3215 C 0.97888 0.10998 0.04304 0.0
C3216 C 0.84753 0.72675 0.71745 0.0
C3217 C 0.85402 0.73894 0.73809 0.0
H3218 H 0.84326 0.70524 0.73419 0.0
C3219 C 0.86247 0.73818 0.78968 0.0
H3220 H 0.84118 0.72689 0.67713 0.0
C3221 C 0.86384 0.72577 0.82158 0.0
C3222 C 0.85669 0.7138 0.80316 0.0
H3223 H 0.86748 0.74736 0.80753 0.0
H3224 H 0.86978 0.72584 0.86309 0.0
C3225 C 0.84882 0.71432 0.74976 0.0
C3226 C 0.01966 0.10834 0.61971 0.0
C3227 C 0.03262 0.1053 0.59458 0.0
H3228 H 0.99784 0.10837 0.60793 0.0
C3229 C 0.03329 0.10071 0.5342 0.0
H3230 H 0.01869 0.11152 0.66657 0.0
C3231 C 0.02124 0.09887 0.50033 0.0
C3232 C 0.00825 0.10152 0.52626 0.0
H3233 H 0.04313 0.0983 0.51355 0.0
H3234 H 0.02208 0.09526 0.45403 0.0
C3235 C 0.00765 0.10646 0.58607 0.0
C3236 C 0.63366 0.26553 0.32126 0.0
C3237 C 0.63939 0.27804 0.30025 0.0
H3238 H 0.63206 0.2436 0.3101 0.0
C3239 C 0.64686 0.27796 0.24573 0.0
H3240 H 0.62809 0.26514 0.36372 0.0
C3241 C 0.64913 0.2655 0.21461 0.0
C3242 C 0.64402 0.25288 0.23756 0.0
H3243 H 0.65134 0.28745 0.22821 0.0
H3244 H 0.65511 0.26573 0.17324 0.0
C3245 C 0.63599 0.25312 0.29051 0.0
C3246 C 0.4694 0.90029 0.04139 0.0
C3247 C 0.4695 0.8936 0.09806 0.0
H3248 H 0.48127 0.9072 0.96515 0.0
C3249 C 0.48194 0.8878 0.11898 0.0
H3250 H 0.46 0.90476 0.02358 0.0
C3251 C 0.49403 0.88911 0.08535 0.0
C3252 C 0.49404 0.89635 0.03023 0.0
H3253 H 0.48258 0.88291 0.16302 0.0
H3254 H 0.50351 0.885 0.10398 0.0
C3255 C 0.48157 0.90173 0.00798 0.0
C3256 C 0.85894 0.26943 0.67486 0.0
C3257 C 0.85192 0.28114 0.69715 0.0
H3258 H 0.86291 0.24774 0.68419 0.0
C3259 C 0.8446 0.28001 0.75181 0.0
H3260 H 0.86441 0.26986 0.63215 0.0
C3261 C 0.84372 0.26725 0.78183 0.0
C3262 C 0.85009 0.25535 0.75758 0.0
H3263 H 0.83913 0.28887 0.77014 0.0
H3264 H 0.83779 0.26664 0.82328 0.0
C3265 C 0.85801 0.25669 0.70462 0.0
C3266 C 0.48393 0.10376 0.34475 0.0
C3267 C 0.47257 0.10881 0.37725 0.0
H3268 H 0.50431 0.09564 0.34802 0.0
C3269 C 0.47354 0.11028 0.44021 0.0
H3270 H 0.48328 0.10221 0.29621 0.0
C3271 C 0.48581 0.10688 0.47015 0.0
C3272 C 0.49718 0.10155 0.43777 0.0
H3273 H 0.46482 0.11404 0.46609 0.0
H3274 H 0.48633 0.10844 0.51862 0.0
C3275 C 0.49602 0.10004 0.37461 0.0
C3276 C 0.65059 0.73143 0.27508 0.0
C3277 C 0.64618 0.74424 0.25122 0.0
H3278 H 0.65216 0.70943 0.26193 0.0
C3279 C 0.63891 0.7443 0.19621 0.0
H3280 H 0.65597 0.73097 0.318 0.0
C3281 C 0.63657 0.73199 0.1647 0.0
C3282 C 0.64156 0.71925 0.18684 0.0
H3283 H 0.63554 0.75395 0.17586 0.0
H3284 H 0.63152 0.73265 0.12111 0.0
C3285 C 0.64832 0.71907 0.24318 0.0
C3286 C 0.02598 0.89809 0.96955 0.0
C3287 C 0.02545 0.89441 0.90804 0.0
H3288 H 0.01441 0.90357 0.04899 0.0
C3289 C 0.01256 0.89316 0.87952 0.0
H3290 H 0.03579 0.89922 0.99235 0.0
C3291 C 0.00045 0.89592 0.91128 0.0
C3292 C 0.00097 0.89979 0.97243 0.0
H3293 H 0.01186 0.89058 0.83185 0.0
H3294 H 0.99067 0.89513 0.88792 0.0
C3295 C 0.0138 0.9006 0.00175 0.0
C3296 C 0.64616 0.77982 0.74216 0.0
C3297 C 0.64051 0.77948 0.68359 0.0
H3298 H 0.65245 0.76813 0.81985 0.0
C3299 C 0.63599 0.76669 0.66013 0.0
H3300 H 0.64961 0.78953 0.76176 0.0
C3301 C 0.63784 0.75443 0.69276 0.0
C3302 C 0.64412 0.75464 0.75011 0.0
H3303 H 0.63178 0.76597 0.61485 0.0
H3304 H 0.63496 0.74472 0.67152 0.0
C3305 C 0.64789 0.76754 0.77518 0.0
C3306 C 0.46872 0.41314 0.946 0.0
C3307 C 0.46587 0.39977 0.92374 0.0
H3308 H 0.48242 0.42591 0.99796 0.0
C3309 C 0.47402 0.38857 0.943 0.0
H3310 H 0.46271 0.422 0.93123 0.0
C3311 C 0.48532 0.39081 0.98086 0.0
C3312 C 0.48875 0.40433 -0.00018 0.0
H3313 H 0.47205 0.37817 0.92637 0.0
H3314 H 0.49184 0.38207 0.99227 0.0
C3315 C 0.4801 0.41541 0.9835 0.0
C3316 C 0.85178 0.24668 0.19161 0.0
C3317 C 0.84671 0.24573 0.25112 0.0
H3318 H 0.8587 0.23603 0.11292 0.0
C3319 C 0.84516 0.23244 0.27709 0.0
H3320 H 0.85281 0.2566 0.16907 0.0
C3321 C 0.84821 0.22046 0.24364 0.0
C3322 C 0.85316 0.22152 0.18403 0.0
H3323 H 0.84155 0.23126 0.32317 0.0
H3324 H 0.84663 0.21037 0.26422 0.0
C3325 C 0.85513 0.23478 0.15901 0.0
C3326 C 0.01121 0.58678 0.45511 0.0
C3327 C 0.00145 0.59714 0.46798 0.0
H3328 H 0.03009 0.58165 0.41038 0.0
C3329 C 0.00412 0.61088 0.45 0.0
H3330 H 0.00947 0.57614 0.46911 0.0
C3331 C 0.01593 0.61405 0.41662 0.0
C3332 C 0.02537 0.60357 0.40129 0.0
H3333 H 0.99675 0.61906 0.4592 0.0
H3334 H 0.01743 0.62459 0.40071 0.0
C3335 C 0.0231 0.58998 0.42233 0.0
C3336 C 0.6387 0.24016 0.79844 0.0
C3337 C 0.64539 0.24009 0.74199 0.0
H3338 H 0.63242 0.22857 0.87585 0.0
C3339 C 0.65015 0.22734 0.71878 0.0
H3340 H 0.63512 0.24976 0.81852 0.0
C3341 C 0.64874 0.21508 0.7524 0.0
C3342 C 0.6424 0.2153 0.80963 0.0
H3343 H 0.65512 0.22683 0.67494 0.0
H3344 H 0.65284 0.20549 0.73416 0.0
C3345 C 0.63713 0.22793 0.8315 0.0
C3346 C 0.00012 0.40201 0.10067 0.0
C3347 C 0.00037 0.40135 0.03703 0.0
H3348 H 0.01157 0.40075 0.18309 0.0
C3349 C 0.01308 0.39887 0.00795 0.0
H3350 H 0.99071 0.4043 0.12499 0.0
C3351 C 0.0252 0.39726 0.04176 0.0
C3352 C 0.02473 0.3977 0.10515 0.0
H3353 H 0.01371 0.39807 0.95915 0.0
H3354 H 0.03489 0.39559 0.01855 0.0
C3355 C 0.0121 0.40004 0.13419 0.0
C3356 C 0.86336 0.75462 0.29797 0.0
C3357 C 0.8562 0.75483 0.24269 0.0
H3358 H 0.86999 0.76598 0.37544 0.0
C3359 C 0.85132 0.76763 0.22055 0.0
H3360 H 0.86708 0.74495 0.31698 0.0
C3361 C 0.85294 0.77979 0.25451 0.0
C3362 C 0.85955 0.77942 0.31114 0.0
H3363 H 0.84599 0.7682 0.17754 0.0
H3364 H 0.84869 0.78941 0.23726 0.0
C3365 C 0.86507 0.76675 0.33158 0.0
C3366 C 0.4928 0.61405 0.5403 0.0
C3367 C 0.49551 0.60049 0.52 0.0
H3368 H 0.47954 0.62722 0.59257 0.0
C3369 C 0.48574 0.59001 0.53073 0.0
H3370 H 0.50017 0.62232 0.53278 0.0
C3371 C 0.4739 0.59285 0.5644 0.0
C3372 C 0.47168 0.60619 0.58837 0.0
H3373 H 0.4875 0.57951 0.51486 0.0
H3374 H 0.46698 0.58437 0.57513 0.0
C3375 C 0.48102 0.61686 0.57445 0.0
C3376 C 0.3513 0.22088 0.24549 0.0
C3377 C 0.35872 0.22083 0.30017 0.0
H3378 H 0.34335 0.23302 0.17212 0.0
C3379 C 0.36486 0.23324 0.32001 0.0
H3380 H 0.34654 0.21145 0.2288 0.0
C3381 C 0.36286 0.24559 0.28826 0.0
C3382 C 0.35478 0.24583 0.23547 0.0
H3383 H 0.37044 0.23367 0.36244 0.0
H3384 H 0.36704 0.25508 0.30716 0.0
C3385 C 0.34938 0.23325 0.21338 0.0
C3386 C 0.51429 0.60725 0.14435 0.0
C3387 C 0.52653 0.60915 0.11164 0.0
H3388 H 0.493 0.60227 0.14212 0.0
C3389 C 0.5261 0.60885 0.04825 0.0
H3390 H 0.5144 0.60723 0.19338 0.0
C3391 C 0.5136 0.6066 0.01813 0.0
C3392 C 0.50135 0.60404 0.05091 0.0
H3393 H 0.53545 0.61024 0.02214 0.0
H3394 H 0.51364 0.60675 0.96916 0.0
C3395 C 0.50194 0.6045 0.11459 0.0
C3396 C 0.14866 0.78704 0.73678 0.0
C3397 C 0.14107 0.787 0.79104 0.0
H3398 H 0.15643 0.7751 0.66238 0.0
C3399 C 0.13441 0.77469 0.80879 0.0
H3400 H 0.15381 0.79639 0.72161 0.0
C3401 C 0.13608 0.7625 0.77558 0.0
C3402 C 0.14434 0.7623 0.7233 0.0
H3403 H 0.12869 0.77416 0.8508 0.0
H3404 H 0.13152 0.75305 0.79306 0.0
C3405 C 0.15026 0.77482 0.70319 0.0
C3406 C 0.99254 0.3862 0.53855 0.0
C3407 C 0.99676 0.4001 0.53183 0.0
H3408 H 0.97724 0.37223 0.57323 0.0
C3409 C 0.988 0.41074 0.55188 0.0
H3410 H 0.99911 0.37777 0.52367 0.0
C3411 C 0.97553 0.40759 0.58001 0.0
C3412 C 0.9715 0.39369 0.58883 0.0
H3413 H 0.99087 0.42155 0.54654 0.0
H3414 H 0.96934 0.41607 0.59728 0.0
C3415 C 0.98005 0.38302 0.56702 0.0
C3416 C 0.36527 0.75964 0.22251 0.0
C3417 C 0.35697 0.75941 0.27465 0.0
H3418 H 0.37286 0.77143 0.14797 0.0
C3419 C 0.35115 0.77194 0.29521 0.0
H3420 H 0.36976 0.75019 0.20472 0.0
C3421 C 0.3529 0.78422 0.26222 0.0
C3422 C 0.36056 0.78423 0.20818 0.0
H3423 H 0.34494 0.77219 0.33592 0.0
H3424 H 0.34783 0.79359 0.2777 0.0
C3425 C 0.3671 0.7719 0.18991 0.0
C3426 C 0.97411 0.60747 0.94389 0.0
C3427 C 0.97361 0.60726 0.8805 0.0
H3428 H 0.9867 0.60609 0.02295 0.0
C3429 C 0.98582 0.60522 0.84778 0.0
H3430 H 0.96479 0.60899 0.97003 0.0
C3431 C 0.99824 0.60285 0.87764 0.0
C3432 C 0.9989 0.60291 0.94132 0.0
H3433 H 0.98566 0.60479 0.79878 0.0
H3434 H 0.0072 0.60052 0.85031 0.0
C3435 C 0.98667 0.60557 0.97402 0.0
C3436 C 0.14889 0.23155 0.77966 0.0
C3437 C 0.14337 0.24403 0.75706 0.0
H3438 H 0.15202 0.20976 0.76499 0.0
C3439 C 0.13544 0.24361 0.70382 0.0
H3440 H 0.1548 0.23145 0.82126 0.0
C3441 C 0.13366 0.23119 0.67235 0.0
C3442 C 0.13988 0.21888 0.69285 0.0
H3443 H 0.13118 0.25302 0.6845 0.0
H3444 H 0.12816 0.23149 0.62971 0.0
C3445 C 0.14719 0.21911 0.74779 0.0
C3446 C 0.5096 0.39034 0.48312 0.0
C3447 C 0.49766 0.39412 0.45046 0.0
H3448 H 0.53101 0.38465 0.47892 0.0
C3449 C 0.49822 0.39387 0.38677 0.0
H3450 H 0.50959 0.39005 0.53209 0.0
C3451 C 0.51028 0.3901 0.35681 0.0
C3452 C 0.52227 0.3869 0.38946 0.0
H3453 H 0.48951 0.39702 0.35948 0.0
H3454 H 0.51041 0.39037 0.30777 0.0
C3455 C 0.52185 0.38701 0.45288 0.0
loop_
_geom_bond_atom_site_label_1
_geom_bond_atom_site_label_2
_geom_bond_distance
_geom_bond_site_symmetry_2
_ccdc_geom_bond_type
Li0 N17 1.990 . S
Li0 O60 1.956 . S
Li0 O61 1.970 . S
Li0 O62 1.961 . S
Li1 N25 1.990 . S
Li1 O60 1.970 . S
Li1 O61 1.956 . S
Li1 O63 1.961 . S
Li2 N47 1.990 . S
Li2 O60 1.961 . S
Li2 O62 1.956 . S
Li2 O63 1.970 . S
Li3 N53 1.990 . S
Li3 O61 1.961 . S
Li3 O62 1.970 . S
Li3 O63 1.956 . S
C4 C6 1.348 . S
C4 C7 1.356 . S
C4 O60 1.325 . S
N5 C8 1.314 . S
N5 C9 1.279 . S
C6 C4 1.348 . S
C6 C8 1.353 . S
C6 H64 0.929 . S
C7 C4 1.356 . S
C7 C9 1.358 . S
C7 H65 0.930 . S
C8 N5 1.314 . S
C8 C6 1.353 . S
C8 H66 0.930 . S
C9 N5 1.279 . S
C9 C7 1.358 . S
C9 H67 0.930 . S
C10 C13 1.348 . S
C10 C14 1.356 . S
C10 O61 1.325 . S
C11 N12 1.279 . S
C11 C14 1.358 . S
C11 H68 0.930 . S
N12 C11 1.279 . S
N12 C15 1.314 . S
C13 C10 1.348 . S
C13 C15 1.353 . S
C13 H69 0.929 . S
C14 C10 1.356 . S
C14 C11 1.358 . S
C14 H70 0.930 . S
C15 N12 1.314 . S
C15 C13 1.353 . S
C15 H71 0.930 . S
C16 N17 1.314 . S
C16 C21 1.353 . S
C16 H22 0.930 . S
N17 Li0 1.990 . S
N17 C16 1.314 . S
N17 C19 1.279 . S
C18 C19 1.358 . S
C18 C20 1.356 . S
C18 H72 0.930 . S
C19 N17 1.279 . S
C19 C18 1.358 . S
C19 H23 0.930 . S
C20 C18 1.356 . S
C20 C21 1.348 . S
C21 C16 1.353 . S
C21 C20 1.348 . S
C21 H73 0.929 . S
H22 C16 0.930 . S
H23 C19 0.930 . S
C24 N25 1.314 . S
C24 C26 1.353 . S
C24 H30 0.930 . S
N25 Li1 1.990 . S
N25 C24 1.314 . S
N25 C28 1.279 . S
C26 C24 1.353 . S
C26 C29 1.348 . S
C26 H74 0.929 . S
C27 C28 1.358 . S
C27 C29 1.356 . S
C27 H75 0.930 . S
C28 N25 1.279 . S
C28 C27 1.358 . S
C28 H31 0.930 . S
C29 C26 1.348 . S
C29 C27 1.356 . S
H30 C24 0.930 . S
H31 C28 0.930 . S
C32 C34 1.348 . S
C32 C35 1.356 . S
C32 O62 1.325 . S
N33 C36 1.314 . S
N33 C37 1.279 . S
C34 C32 1.348 . S
C34 C36 1.353 . S
C34 H76 0.929 . S
C35 C32 1.356 . S
C35 C37 1.358 . S
C35 H77 0.930 . S
C36 N33 1.314 . S
C36 C34 1.353 . S
C36 H78 0.930 . S
C37 N33 1.279 . S
C37 C35 1.358 . S
C37 H79 0.930 . S
C38 C39 1.348 . S
C38 C40 1.356 . S
C38 O63 1.325 . S
C39 C38 1.348 . S
C39 C41 1.353 . S
C39 H80 0.929 . S
C40 C38 1.356 . S
C40 C42 1.358 . S
C40 H81 0.930 . S
C41 C39 1.353 . S
C41 N43 1.314 . S
C41 H82 0.930 . S
C42 C40 1.358 . S
C42 N43 1.279 . S
C42 H83 0.930 . S
N43 C41 1.314 . S
N43 C42 1.279 . S
C44 C46 1.353 . S
C44 N47 1.314 . S
C44 H50 0.930 . S
C45 N47 1.279 . S
C45 C48 1.358 . S
C45 H51 0.930 . S
C46 C44 1.353 . S
C46 C49 1.348 . S
C46 H84 0.929 . S
N47 Li2 1.990 . S
N47 C44 1.314 . S
N47 C45 1.279 . S
C48 C45 1.358 . S
C48 C49 1.356 . S
C48 H85 0.930 . S
C49 C46 1.348 . S
C49 C48 1.356 . S
H50 C44 0.930 . S
H51 C45 0.930 . S
C52 N53 1.314 . S
C52 C54 1.353 . S
C52 H58 0.930 . S
N53 Li3 1.990 . S
N53 C52 1.314 . S
N53 C56 1.279 . S
C54 C52 1.353 . S
C54 C57 1.348 . S
C54 H86 0.929 . S
C55 C56 1.358 . S
C55 C57 1.356 . S
C55 H87 0.930 . S
C56 N53 1.279 . S
C56 C55 1.358 . S
C56 H59 0.930 . S
C57 C54 1.348 . S
C57 C55 1.356 . S
H58 C52 0.930 . S
H59 C56 0.930 . S
O60 Li0 1.956 . S
O60 Li1 1.970 . S
O60 Li2 1.961 . S
O60 C4 1.325 . S
O61 Li0 1.970 . S
O61 Li1 1.956 . S
O61 Li3 1.961 . S
O61 C10 1.325 . S
O62 Li0 1.961 . S
O62 Li2 1.956 . S
O62 Li3 1.970 . S
O62 C32 1.325 . S
O63 Li1 1.961 . S
O63 Li2 1.970 . S
O63 Li3 1.956 . S
O63 C38 1.325 . S
H64 C6 0.929 . S
H65 C7 0.930 . S
H66 C8 0.930 . S
H67 C9 0.930 . S
H68 C11 0.930 . S
H69 C13 0.929 . S
H70 C14 0.930 . S
H71 C15 0.930 . S
H72 C18 0.930 . S
H73 C21 0.929 . S
H74 C26 0.929 . S
H75 C27 0.930 . S
H76 C34 0.929 . S
H77 C35 0.930 . S
H78 C36 0.930 . S
H79 C37 0.930 . S
H80 C39 0.929 . S
H81 C40 0.930 . S
H82 C41 0.930 . S
H83 C42 0.930 . S
H84 C46 0.929 . S
H85 C48 0.930 . S
H86 C54 0.929 . S
H87 C55 0.930 . S
Li88 N105 1.990 . S
Li88 O148 1.956 . S
Li88 O149 1.970 . S
Li88 O150 1.961 . S
Li89 N113 1.990 . S
Li89 O148 1.970 . S
Li89 O149 1.956 . S
Li89 O151 1.961 . S
Li90 N135 1.990 . S
Li90 O148 1.961 . S
Li90 O150 1.956 . S
Li90 O151 1.970 . S
Li91 N141 1.990 . S
Li91 O149 1.961 . S
Li91 O150 1.970 . S
Li91 O151 1.956 . S
C92 C94 1.348 . S
C92 C95 1.356 . S
C92 O148 1.325 . S
N93 C96 1.314 . S
N93 C97 1.279 . S
C94 C92 1.348 . S
C94 C96 1.353 . S
C94 H152 0.929 . S
C95 C92 1.356 . S
C95 C97 1.358 . S
C95 H153 0.930 . S
C96 N93 1.314 . S
C96 C94 1.353 . S
C96 H154 0.930 . S
C97 N93 1.279 . S
C97 C95 1.358 . S
C97 H155 0.930 . S
C98 C101 1.348 . S
C98 C102 1.356 . S
C98 O149 1.325 . S
C99 N100 1.279 . S
C99 C102 1.358 . S
C99 H156 0.930 . S
N100 C99 1.279 . S
N100 C103 1.314 . S
C101 C98 1.348 . S
C101 C103 1.353 . S
C101 H157 0.929 . S
C102 C98 1.356 . S
C102 C99 1.358 . S
C102 H158 0.930 . S
C103 N100 1.314 . S
C103 C101 1.353 . S
C103 H159 0.930 . S
C104 N105 1.314 . S
C104 C109 1.353 . S
C104 H110 0.930 . S
N105 Li88 1.990 . S
N105 C104 1.314 . S
N105 C107 1.279 . S
C106 C107 1.358 . S
C106 C108 1.356 . S
C106 H160 0.930 . S
C107 N105 1.279 . S
C107 C106 1.358 . S
C107 H111 0.930 . S
C108 C106 1.356 . S
C108 C109 1.348 . S
C109 C104 1.353 . S
C109 C108 1.348 . S
C109 H161 0.929 . S
H110 C104 0.930 . S
H111 C107 0.930 . S
C112 N113 1.314 . S
C112 C114 1.353 . S
C112 H118 0.930 . S
N113 Li89 1.990 . S
N113 C112 1.314 . S
N113 C116 1.279 . S
C114 C112 1.353 . S
C114 C117 1.348 . S
C114 H162 0.929 . S
C115 C116 1.358 . S
C115 C117 1.356 . S
C115 H163 0.930 . S
C116 N113 1.279 . S
C116 C115 1.358 . S
C116 H119 0.930 . S
C117 C114 1.348 . S
C117 C115 1.356 . S
H118 C112 0.930 . S
H119 C116 0.930 . S
C120 C122 1.348 . S
C120 C123 1.356 . S
C120 O150 1.325 . S
N121 C124 1.314 . S
N121 C125 1.279 . S
C122 C120 1.348 . S
C122 C124 1.353 . S
C122 H164 0.929 . S
C123 C120 1.356 . S
C123 C125 1.358 . S
C123 H165 0.930 . S
C124 N121 1.314 . S
C124 C122 1.353 . S
C124 H166 0.930 . S
C125 N121 1.279 . S
C125 C123 1.358 . S
C125 H167 0.930 . S
C126 C127 1.348 . S
C126 C128 1.356 . S
C126 O151 1.325 . S
C127 C126 1.348 . S
C127 C129 1.353 . S
C127 H168 0.929 . S
C128 C126 1.356 . S
C128 C130 1.358 . S
C128 H169 0.930 . S
C129 C127 1.353 . S
C129 N131 1.314 . S
C129 H170 0.930 . S
C130 C128 1.358 . S
C130 N131 1.279 . S
C130 H171 0.930 . S
N131 C129 1.314 . S
N131 C130 1.279 . S
C132 C134 1.353 . S
C132 N135 1.314 . S
C132 H138 0.930 . S
C133 N135 1.279 . S
C133 C136 1.358 . S
C133 H139 0.930 . S
C134 C132 1.353 . S
C134 C137 1.348 . S
C134 H172 0.929 . S
N135 Li90 1.990 . S
N135 C132 1.314 . S
N135 C133 1.279 . S
C136 C133 1.358 . S
C136 C137 1.356 . S
C136 H173 0.930 . S
C137 C134 1.348 . S
C137 C136 1.356 . S
H138 C132 0.930 . S
H139 C133 0.930 . S
C140 N141 1.314 . S
C140 C142 1.353 . S
C140 H146 0.930 . S
N141 Li91 1.990 . S
N141 C140 1.314 . S
N141 C144 1.279 . S
C142 C140 1.353 . S
C142 C145 1.348 . S
C142 H174 0.929 . S
C143 C144 1.358 . S
C143 C145 1.356 . S
C143 H175 0.930 . S
C144 N141 1.279 . S
C144 C143 1.358 . S
C144 H147 0.930 . S
C145 C142 1.348 . S
C145 C143 1.356 . S
H146 C140 0.930 . S
H147 C144 0.930 . S
O148 Li88 1.956 . S
O148 Li89 1.970 . S
O148 Li90 1.961 . S
O148 C92 1.325 . S
O149 Li88 1.970 . S
O149 Li89 1.956 . S
O149 Li91 1.961 . S
O149 C98 1.325 . S
O150 Li88 1.961 . S
O150 Li90 1.956 . S
O150 Li91 1.970 . S
O150 C120 1.325 . S
O151 Li89 1.961 . S
O151 Li90 1.970 . S
O151 Li91 1.956 . S
O151 C126 1.325 . S
H152 C94 0.929 . S
H153 C95 0.930 . S
H154 C96 0.930 . S
H155 C97 0.930 . S
H156 C99 0.930 . S
H157 C101 0.929 . S
H158 C102 0.930 . S
H159 C103 0.930 . S
H160 C106 0.930 . S
H161 C109 0.929 . S
H162 C114 0.929 . S
H163 C115 0.930 . S
H164 C122 0.929 . S
H165 C123 0.930 . S
H166 C124 0.930 . S
H167 C125 0.930 . S
H168 C127 0.929 . S
H169 C128 0.930 . S
H170 C129 0.930 . S
H171 C130 0.930 . S
H172 C134 0.929 . S
H173 C136 0.930 . S
H174 C142 0.929 . S
H175 C143 0.930 . S
Li176 N193 1.990 . S
Li176 O236 1.956 . S
Li176 O237 1.970 . S
Li176 O238 1.961 . S
Li177 N201 1.990 . S
Li177 O236 1.970 . S
Li177 O237 1.956 . S
Li177 O239 1.961 . S
Li178 N223 1.990 . S
Li178 O236 1.961 . S
Li178 O238 1.956 . S
Li178 O239 1.970 . S
Li179 N229 1.990 1_556 S
Li179 O237 1.961 . S
Li179 O238 1.970 . S
Li179 O239 1.956 . S
C180 C182 1.348 . S
C180 C183 1.356 . S
C180 O236 1.325 . S
N181 C184 1.314 . S
N181 C185 1.279 . S
C182 C180 1.348 . S
C182 C184 1.353 . S
C182 H240 0.929 . S
C183 C180 1.356 . S
C183 C185 1.358 . S
C183 H241 0.930 . S
C184 N181 1.314 . S
C184 C182 1.353 . S
C184 H242 0.930 . S
C185 N181 1.279 . S
C185 C183 1.358 . S
C185 H243 0.930 . S
C186 C189 1.348 . S
C186 C190 1.356 1_556 S
C186 O237 1.325 . S
C187 N188 1.279 . S
C187 C190 1.358 . S
C187 H244 0.930 . S
N188 C187 1.279 . S
N188 C191 1.314 . S
C189 C186 1.348 . S
C189 C191 1.353 1_556 S
C189 H245 0.929 . S
C190 C186 1.356 1_554 S
C190 C187 1.358 . S
C190 H246 0.930 . S
C191 N188 1.314 . S
C191 C189 1.353 1_554 S
C191 H247 0.930 . S
C192 N193 1.314 . S
C192 C197 1.353 . S
C192 H198 0.930 . S
N193 Li176 1.990 . S
N193 C192 1.314 . S
N193 C195 1.279 . S
C194 C195 1.358 . S
C194 C196 1.356 . S
C194 H248 0.930 . S
C195 N193 1.279 . S
C195 C194 1.358 . S
C195 H199 0.930 . S
C196 C194 1.356 . S
C196 C197 1.348 . S
C197 C192 1.353 . S
C197 C196 1.348 . S
C197 H249 0.929 . S
H198 C192 0.930 . S
H199 C195 0.930 . S
C200 N201 1.314 . S
C200 C202 1.353 . S
C200 H206 0.930 . S
N201 Li177 1.990 . S
N201 C200 1.314 . S
N201 C204 1.279 . S
C202 C200 1.353 . S
C202 C205 1.348 . S
C202 H250 0.929 . S
C203 C204 1.358 . S
C203 C205 1.356 . S
C203 H251 0.930 . S
C204 N201 1.279 . S
C204 C203 1.358 . S
C204 H207 0.930 . S
C205 C202 1.348 . S
C205 C203 1.356 . S
H206 C200 0.930 . S
H207 C204 0.930 . S
C208 C210 1.348 . S
C208 C211 1.356 . S
C208 O238 1.325 . S
N209 C212 1.314 . S
N209 C213 1.279 . S
C210 C208 1.348 . S
C210 C212 1.353 . S
C210 H252 0.929 . S
C211 C208 1.356 . S
C211 C213 1.358 . S
C211 H253 0.930 . S
C212 N209 1.314 . S
C212 C210 1.353 . S
C212 H254 0.930 . S
C213 N209 1.279 . S
C213 C211 1.358 . S
C213 H255 0.930 . S
C214 C215 1.348 . S
C214 C216 1.356 . S
C214 O239 1.325 . S
C215 C214 1.348 . S
C215 C217 1.353 . S
C215 H256 0.929 . S
C216 C214 1.356 . S
C216 C218 1.358 . S
C216 H257 0.930 . S
C217 C215 1.353 . S
C217 N219 1.314 . S
C217 H258 0.930 . S
C218 C216 1.358 . S
C218 N219 1.279 . S
C218 H259 0.930 . S
N219 C217 1.314 . S
N219 C218 1.279 . S
C220 C222 1.353 . S
C220 N223 1.314 . S
C220 H226 0.930 . S
C221 N223 1.279 . S
C221 C224 1.358 . S
C221 H227 0.930 . S
C222 C220 1.353 . S
C222 C225 1.348 . S
C222 H260 0.929 . S
N223 Li178 1.990 . S
N223 C220 1.314 . S
N223 C221 1.279 . S
C224 C221 1.358 . S
C224 C225 1.356 . S
C224 H261 0.930 . S
C225 C222 1.348 . S
C225 C224 1.356 . S
H226 C220 0.930 . S
H227 C221 0.930 . S
C228 N229 1.314 . S
C228 C230 1.353 . S
C228 H234 0.930 . S
N229 Li179 1.990 1_554 S
N229 C228 1.314 . S
N229 C232 1.279 . S
C230 C228 1.353 . S
C230 C233 1.348 . S
C230 H262 0.929 . S
C231 C232 1.358 . S
C231 C233 1.356 . S
C231 H263 0.930 . S
C232 N229 1.279 . S
C232 C231 1.358 . S
C232 H235 0.930 1_554 S
C233 C230 1.348 . S
C233 C231 1.356 . S
H234 C228 0.930 . S
H235 C232 0.930 1_556 S
O236 Li176 1.956 . S
O236 Li177 1.970 . S
O236 Li178 1.961 . S
O236 C180 1.325 . S
O237 Li176 1.970 . S
O237 Li177 1.956 . S
O237 Li179 1.961 . S
O237 C186 1.325 . S
O238 Li176 1.961 . S
O238 Li178 1.956 . S
O238 Li179 1.970 . S
O238 C208 1.325 . S
O239 Li177 1.961 . S
O239 Li178 1.970 . S
O239 Li179 1.956 . S
O239 C214 1.325 . S
H240 C182 0.929 . S
H241 C183 0.930 . S
H242 C184 0.930 . S
H243 C185 0.930 . S
H244 C187 0.930 . S
H245 C189 0.929 . S
H246 C190 0.930 . S
H247 C191 0.930 . S
H248 C194 0.930 . S
H249 C197 0.929 . S
H250 C202 0.929 . S
H251 C203 0.930 . S
H252 C210 0.929 . S
H253 C211 0.930 . S
H254 C212 0.930 . S
H255 C213 0.930 . S
H256 C215 0.929 . S
H257 C216 0.930 . S
H258 C217 0.930 . S
H259 C218 0.930 . S
H260 C222 0.929 . S
H261 C224 0.930 . S
H262 C230 0.929 . S
H263 C231 0.930 . S
Li264 N281 1.978 1_554 S
Li264 O324 1.956 . S
Li264 O325 1.970 . S
Li264 O326 1.961 . S
Li265 N289 1.990 . S
Li265 O324 1.970 . S
Li265 O325 1.956 . S
Li265 O327 1.961 . S
Li266 N311 1.990 . S
Li266 O324 1.961 . S
Li266 O326 1.956 . S
Li266 O327 1.970 . S
Li267 N317 1.990 . S
Li267 O325 1.961 . S
Li267 O326 1.970 . S
Li267 O327 1.956 . S
C268 C270 1.348 . S
C268 C271 1.356 . S
C268 O324 1.325 . S
N269 C272 1.314 . S
N269 C273 1.279 . S
C270 C268 1.348 . S
C270 C272 1.353 . S
C270 H328 0.929 . S
C271 C268 1.356 . S
C271 C273 1.358 . S
C271 H329 0.930 . S
C272 N269 1.314 . S
C272 C270 1.353 . S
C272 H330 0.930 . S
C273 N269 1.279 . S
C273 C271 1.358 . S
C273 H331 0.930 . S
C274 C277 1.348 . S
C274 C278 1.356 . S
C274 O325 1.325 . S
C275 N276 1.279 . S
C275 C278 1.358 . S
C275 H332 0.930 . S
N276 C275 1.279 . S
N276 C279 1.314 . S
C277 C274 1.348 . S
C277 C279 1.353 . S
C277 H333 0.929 . S
C278 C274 1.356 . S
C278 C275 1.358 . S
C278 H334 0.930 . S
C279 N276 1.314 . S
C279 C277 1.353 . S
C279 H335 0.930 . S
C280 N281 1.330 . S
C280 C285 1.353 . S
C280 H286 0.930 . S
N281 Li264 1.978 1_556 S
N281 C280 1.330 . S
N281 C283 1.278 1_556 S
C282 C283 1.358 1_556 S
C282 C284 1.356 . S
C282 H336 0.930 . S
C283 N281 1.278 1_554 S
C283 C282 1.358 1_554 S
C283 H287 0.930 . S
C284 C282 1.356 . S
C284 C285 1.348 . S
C285 C280 1.353 . S
C285 C284 1.348 . S
C285 H337 0.929 . S
H286 C280 0.930 . S
H287 C283 0.930 . S
C288 N289 1.314 . S
C288 C290 1.353 . S
C288 H294 0.930 . S
N289 Li265 1.990 . S
N289 C288 1.314 . S
N289 C292 1.279 . S
C290 C288 1.353 . S
C290 C293 1.348 . S
C290 H338 0.929 . S
C291 C292 1.358 . S
C291 C293 1.356 . S
C291 H339 0.930 . S
C292 N289 1.279 . S
C292 C291 1.358 . S
C292 H295 0.930 . S
C293 C290 1.348 . S
C293 C291 1.356 . S
H294 C288 0.930 . S
H295 C292 0.930 . S
C296 C298 1.348 1_554 S
C296 C299 1.356 1_554 S
C296 O326 1.325 . S
N297 C300 1.314 . S
N297 C301 1.279 . S
C298 C296 1.348 1_556 S
C298 C300 1.353 . S
C298 H340 0.929 1_556 S
C299 C296 1.356 1_556 S
C299 C301 1.358 . S
C299 H341 0.930 . S
C300 N297 1.314 . S
C300 C298 1.353 . S
C300 H342 0.930 . S
C301 N297 1.279 . S
C301 C299 1.358 . S
C301 H343 0.930 . S
C302 C303 1.348 . S
C302 C304 1.356 . S
C302 O327 1.325 . S
C303 C302 1.348 . S
C303 C305 1.353 . S
C303 H344 0.929 . S
C304 C302 1.356 . S
C304 C306 1.358 . S
C304 H345 0.930 . S
C305 C303 1.353 . S
C305 N307 1.314 . S
C305 H346 0.930 . S
C306 C304 1.358 . S
C306 N307 1.279 . S
C306 H347 0.930 . S
N307 C305 1.314 . S
N307 C306 1.279 . S
C308 C310 1.353 . S
C308 N311 1.314 . S
C308 H314 0.930 . S
C309 N311 1.279 . S
C309 C312 1.358 . S
C309 H315 0.930 . S
C310 C308 1.353 . S
C310 C313 1.348 . S
C310 H348 0.929 . S
N311 Li266 1.990 . S
N311 C308 1.314 . S
N311 C309 1.279 . S
C312 C309 1.358 . S
C312 C313 1.356 . S
C312 H349 0.930 . S
C313 C310 1.348 . S
C313 C312 1.356 . S
H314 C308 0.930 . S
H315 C309 0.930 . S
C316 N317 1.314 . S
C316 C318 1.353 . S
C316 H322 0.930 . S
N317 Li267 1.990 . S
N317 C316 1.314 . S
N317 C320 1.279 . S
C318 C316 1.353 . S
C318 C321 1.348 . S
C318 H350 0.929 1_554 S
C319 C320 1.358 . S
C319 C321 1.356 . S
C319 H351 0.930 . S
C320 N317 1.279 . S
C320 C319 1.358 . S
C320 H323 0.930 . S
C321 C318 1.348 . S
C321 C319 1.356 . S
H322 C316 0.930 . S
H323 C320 0.930 . S
O324 Li264 1.956 . S
O324 Li265 1.970 . S
O324 Li266 1.961 . S
O324 C268 1.325 . S
O325 Li264 1.970 . S
O325 Li265 1.956 . S
O325 Li267 1.961 . S
O325 C274 1.325 . S
O326 Li264 1.961 . S
O326 Li266 1.956 . S
O326 Li267 1.970 . S
O326 C296 1.325 . S
O327 Li265 1.961 . S
O327 Li266 1.970 . S
O327 Li267 1.956 . S
O327 C302 1.325 . S
H328 C270 0.929 . S
H329 C271 0.930 . S
H330 C272 0.930 . S
H331 C273 0.930 . S
H332 C275 0.930 . S
H333 C277 0.929 . S
H334 C278 0.930 . S
H335 C279 0.930 . S
H336 C282 0.930 . S
H337 C285 0.929 . S
H338 C290 0.929 . S
H339 C291 0.930 . S
H340 C298 0.929 1_554 S
H341 C299 0.930 . S
H342 C300 0.930 . S
H343 C301 0.930 . S
H344 C303 0.929 . S
H345 C304 0.930 . S
H346 C305 0.930 . S
H347 C306 0.930 . S
H348 C310 0.929 . S
H349 C312 0.930 . S
H350 C318 0.929 1_556 S
H351 C319 0.930 . S
Li352 N369 1.990 . S
Li352 O412 1.956 . S
Li352 O413 1.970 . S
Li352 O414 1.961 . S
Li353 N377 1.990 . S
Li353 O412 1.970 . S
Li353 O413 1.956 . S
Li353 O415 1.961 . S
Li354 N399 1.990 . S
Li354 O412 1.961 . S
Li354 O414 1.956 . S
Li354 O415 1.970 . S
Li355 N405 1.990 1_554 S
Li355 O413 1.961 . S
Li355 O414 1.970 . S
Li355 O415 1.956 . S
C356 C358 1.348 . S
C356 C359 1.356 . S
C356 O412 1.325 . S
N357 C360 1.314 . S
N357 C361 1.279 . S
C358 C356 1.348 . S
C358 C360 1.353 . S
C358 H416 0.929 . S
C359 C356 1.356 . S
C359 C361 1.358 . S
C359 H417 0.930 . S
C360 N357 1.314 . S
C360 C358 1.353 . S
C360 H418 0.930 . S
C361 N357 1.279 . S
C361 C359 1.358 . S
C361 H419 0.930 . S
C362 C365 1.348 . S
C362 C366 1.356 1_554 S
C362 O413 1.325 . S
C363 N364 1.279 . S
C363 C366 1.358 . S
C363 H420 0.930 . S
N364 C363 1.279 . S
N364 C367 1.314 . S
C365 C362 1.348 . S
C365 C367 1.353 1_554 S
C365 H421 0.929 . S
C366 C362 1.356 1_556 S
C366 C363 1.358 . S
C366 H422 0.930 . S
C367 N364 1.314 . S
C367 C365 1.353 1_556 S
C367 H423 0.930 . S
C368 N369 1.314 . S
C368 C373 1.353 . S
C368 H374 0.930 . S
N369 Li352 1.990 . S
N369 C368 1.314 . S
N369 C371 1.279 . S
C370 C371 1.358 . S
C370 C372 1.356 . S
C370 H424 0.930 . S
C371 N369 1.279 . S
C371 C370 1.358 . S
C371 H375 0.930 . S
C372 C370 1.356 . S
C372 C373 1.348 . S
C373 C368 1.353 . S
C373 C372 1.348 . S
C373 H425 0.929 . S
H374 C368 0.930 . S
H375 C371 0.930 . S
C376 N377 1.314 . S
C376 C378 1.353 . S
C376 H382 0.930 . S
N377 Li353 1.990 . S
N377 C376 1.314 . S
N377 C380 1.279 . S
C378 C376 1.353 . S
C378 C381 1.348 . S
C378 H426 0.929 . S
C379 C380 1.358 . S
C379 C381 1.356 . S
C379 H427 0.930 . S
C380 N377 1.279 . S
C380 C379 1.358 . S
C380 H383 0.930 . S
C381 C378 1.348 . S
C381 C379 1.356 . S
H382 C376 0.930 . S
H383 C380 0.930 . S
C384 C386 1.348 . S
C384 C387 1.356 . S
C384 O414 1.325 . S
N385 C388 1.314 . S
N385 C389 1.279 . S
C386 C384 1.348 . S
C386 C388 1.353 . S
C386 H428 0.929 . S
C387 C384 1.356 . S
C387 C389 1.358 . S
C387 H429 0.930 . S
C388 N385 1.314 . S
C388 C386 1.353 . S
C388 H430 0.930 . S
C389 N385 1.279 . S
C389 C387 1.358 . S
C389 H431 0.930 . S
C390 C391 1.348 . S
C390 C392 1.356 . S
C390 O415 1.325 . S
C391 C390 1.348 . S
C391 C393 1.353 . S
C391 H432 0.929 . S
C392 C390 1.356 . S
C392 C394 1.358 . S
C392 H433 0.930 . S
C393 C391 1.353 . S
C393 N395 1.314 . S
C393 H434 0.930 . S
C394 C392 1.358 . S
C394 N395 1.279 . S
C394 H435 0.930 . S
N395 C393 1.314 . S
N395 C394 1.279 . S
C396 C398 1.353 . S
C396 N399 1.314 . S
C396 H402 0.930 . S
C397 N399 1.279 . S
C397 C400 1.358 . S
C397 H403 0.930 . S
C398 C396 1.353 . S
C398 C401 1.348 . S
C398 H436 0.929 . S
N399 Li354 1.990 . S
N399 C396 1.314 . S
N399 C397 1.279 . S
C400 C397 1.358 . S
C400 C401 1.356 . S
C400 H437 0.930 . S
C401 C398 1.348 . S
C401 C400 1.356 . S
H402 C396 0.930 . S
H403 C397 0.930 . S
C404 N405 1.314 . S
C404 C406 1.353 . S
C404 H410 0.930 . S
N405 Li355 1.990 1_556 S
N405 C404 1.314 . S
N405 C408 1.279 . S
C406 C404 1.353 . S
C406 C409 1.348 . S
C406 H438 0.929 . S
C407 C408 1.358 . S
C407 C409 1.356 . S
C407 H439 0.930 . S
C408 N405 1.279 . S
C408 C407 1.358 . S
C408 H411 0.930 1_556 S
C409 C406 1.348 . S
C409 C407 1.356 . S
H410 C404 0.930 . S
H411 C408 0.930 1_554 S
O412 Li352 1.956 . S
O412 Li353 1.970 . S
O412 Li354 1.961 . S
O412 C356 1.325 . S
O413 Li352 1.970 . S
O413 Li353 1.956 . S
O413 Li355 1.961 . S
O413 C362 1.325 . S
O414 Li352 1.961 . S
O414 Li354 1.956 . S
O414 Li355 1.970 . S
O414 C384 1.325 . S
O415 Li353 1.961 . S
O415 Li354 1.970 . S
O415 Li355 1.956 . S
O415 C390 1.325 . S
H416 C358 0.929 . S
H417 C359 0.930 . S
H418 C360 0.930 . S
H419 C361 0.930 . S
H420 C363 0.930 . S
H421 C365 0.929 . S
H422 C366 0.930 . S
H423 C367 0.930 . S
H424 C370 0.930 . S
H425 C373 0.929 . S
H426 C378 0.929 . S
H427 C379 0.930 . S
H428 C386 0.929 . S
H429 C387 0.930 . S
H430 C388 0.930 . S
H431 C389 0.930 . S
H432 C391 0.929 . S
H433 C392 0.930 . S
H434 C393 0.930 . S
H435 C394 0.930 . S
H436 C398 0.929 . S
H437 C400 0.930 . S
H438 C406 0.929 . S
H439 C407 0.930 . S
Li440 N457 1.990 . S
Li440 O500 1.956 . S
Li440 O501 1.970 . S
Li440 O502 1.961 . S
Li441 N465 1.990 . S
Li441 O500 1.970 . S
Li441 O501 1.956 . S
Li441 O503 1.961 . S
Li442 N487 1.990 . S
Li442 O500 1.961 . S
Li442 O502 1.956 . S
Li442 O503 1.970 . S
Li443 N493 1.990 . S
Li443 O501 1.961 . S
Li443 O502 1.970 . S
Li443 O503 1.956 . S
C444 C446 1.348 . S
C444 C447 1.356 . S
C444 O500 1.325 . S
N445 C448 1.314 . S
N445 C449 1.279 . S
C446 C444 1.348 . S
C446 C448 1.353 . S
C446 H504 0.929 . S
C447 C444 1.356 . S
C447 C449 1.358 . S
C447 H505 0.930 . S
C448 N445 1.314 . S
C448 C446 1.353 . S
C448 H506 0.930 . S
C449 N445 1.279 . S
C449 C447 1.358 . S
C449 H507 0.930 . S
C450 C453 1.348 . S
C450 C454 1.356 . S
C450 O501 1.325 . S
C451 N452 1.279 . S
C451 C454 1.358 . S
C451 H508 0.930 . S
N452 C451 1.279 . S
N452 C455 1.314 . S
C453 C450 1.348 . S
C453 C455 1.353 . S
C453 H509 0.929 . S
C454 C450 1.356 . S
C454 C451 1.358 . S
C454 H510 0.930 . S
C455 N452 1.314 . S
C455 C453 1.353 . S
C455 H511 0.930 . S
C456 N457 1.314 . S
C456 C461 1.353 . S
C456 H462 0.930 . S
N457 Li440 1.990 . S
N457 C456 1.314 . S
N457 C459 1.279 . S
C458 C459 1.358 . S
C458 C460 1.356 . S
C458 H512 0.930 . S
C459 N457 1.279 . S
C459 C458 1.358 . S
C459 H463 0.930 . S
C460 C458 1.356 . S
C460 C461 1.348 . S
C461 C456 1.353 . S
C461 C460 1.348 . S
C461 H513 0.929 . S
H462 C456 0.930 . S
H463 C459 0.930 . S
C464 N465 1.314 . S
C464 C466 1.353 . S
C464 H470 0.930 . S
N465 Li441 1.990 . S
N465 C464 1.314 . S
N465 C468 1.279 . S
C466 C464 1.353 . S
C466 C469 1.348 . S
C466 H514 0.929 . S
C467 C468 1.358 . S
C467 C469 1.356 . S
C467 H515 0.930 . S
C468 N465 1.279 . S
C468 C467 1.358 . S
C468 H471 0.930 . S
C469 C466 1.348 . S
C469 C467 1.356 . S
H470 C464 0.930 . S
H471 C468 0.930 . S
C472 C474 1.348 . S
C472 C475 1.356 . S
C472 O502 1.325 . S
N473 C476 1.314 . S
N473 C477 1.279 . S
C474 C472 1.348 . S
C474 C476 1.353 . S
C474 H516 0.929 . S
C475 C472 1.356 . S
C475 C477 1.358 . S
C475 H517 0.930 . S
C476 N473 1.314 . S
C476 C474 1.353 . S
C476 H518 0.930 . S
C477 N473 1.279 . S
C477 C475 1.358 . S
C477 H519 0.930 . S
C478 C479 1.348 . S
C478 C480 1.356 . S
C478 O503 1.325 . S
C479 C478 1.348 . S
C479 C481 1.353 . S
C479 H520 0.929 . S
C480 C478 1.356 . S
C480 C482 1.358 . S
C480 H521 0.930 . S
C481 C479 1.353 . S
C481 N483 1.314 . S
C481 H522 0.930 . S
C482 C480 1.358 . S
C482 N483 1.279 . S
C482 H523 0.930 . S
N483 C481 1.314 . S
N483 C482 1.279 . S
C484 C486 1.353 . S
C484 N487 1.314 . S
C484 H490 0.930 . S
C485 N487 1.279 . S
C485 C488 1.358 . S
C485 H491 0.930 . S
C486 C484 1.353 . S
C486 C489 1.348 . S
C486 H524 0.929 . S
N487 Li442 1.990 . S
N487 C484 1.314 . S
N487 C485 1.279 . S
C488 C485 1.358 . S
C488 C489 1.356 . S
C488 H525 0.930 . S
C489 C486 1.348 . S
C489 C488 1.356 . S
H490 C484 0.930 . S
H491 C485 0.930 . S
C492 N493 1.314 . S
C492 C494 1.353 . S
C492 H498 0.930 . S
N493 Li443 1.990 . S
N493 C492 1.314 . S
N493 C496 1.279 . S
C494 C492 1.353 . S
C494 C497 1.348 . S
C494 H526 0.929 . S
C495 C496 1.358 . S
C495 C497 1.356 . S
C495 H527 0.930 . S
C496 N493 1.279 . S
C496 C495 1.358 . S
C496 H499 0.930 . S
C497 C494 1.348 . S
C497 C495 1.356 . S
H498 C492 0.930 . S
H499 C496 0.930 . S
O500 Li440 1.956 . S
O500 Li441 1.970 . S
O500 Li442 1.961 . S
O500 C444 1.325 . S
O501 Li440 1.970 . S
O501 Li441 1.956 . S
O501 Li443 1.961 . S
O501 C450 1.325 . S
O502 Li440 1.961 . S
O502 Li442 1.956 . S
O502 Li443 1.970 . S
O502 C472 1.325 . S
O503 Li441 1.961 . S
O503 Li442 1.970 . S
O503 Li443 1.956 . S
O503 C478 1.325 . S
H504 C446 0.929 . S
H505 C447 0.930 . S
H506 C448 0.930 . S
H507 C449 0.930 . S
H508 C451 0.930 . S
H509 C453 0.929 . S
H510 C454 0.930 . S
H511 C455 0.930 . S
H512 C458 0.930 . S
H513 C461 0.929 . S
H514 C466 0.929 . S
H515 C467 0.930 . S
H516 C474 0.929 . S
H517 C475 0.930 . S
H518 C476 0.930 . S
H519 C477 0.930 . S
H520 C479 0.929 . S
H521 C480 0.930 . S
H522 C481 0.930 . S
H523 C482 0.930 . S
H524 C486 0.929 . S
H525 C488 0.930 . S
H526 C494 0.929 . S
H527 C495 0.930 . S
Li528 N545 1.990 . S
Li528 O588 1.956 . S
Li528 O589 1.970 . S
Li528 O590 1.961 . S
Li529 N553 1.990 . S
Li529 O588 1.970 . S
Li529 O589 1.956 . S
Li529 O591 1.961 . S
Li530 N575 1.990 . S
Li530 O588 1.961 . S
Li530 O590 1.956 . S
Li530 O591 1.970 . S
Li531 N581 1.990 . S
Li531 O589 1.961 . S
Li531 O590 1.970 . S
Li531 O591 1.956 . S
C532 C534 1.348 . S
C532 C535 1.356 . S
C532 O588 1.325 . S
N533 C536 1.314 . S
N533 C537 1.279 . S
C534 C532 1.348 . S
C534 C536 1.353 . S
C534 H592 0.929 . S
C535 C532 1.356 . S
C535 C537 1.358 . S
C535 H593 0.930 . S
C536 N533 1.314 . S
C536 C534 1.353 . S
C536 H594 0.930 . S
C537 N533 1.279 . S
C537 C535 1.358 . S
C537 H595 0.930 . S
C538 C541 1.348 . S
C538 C542 1.356 . S
C538 O589 1.325 . S
C539 N540 1.279 . S
C539 C542 1.358 . S
C539 H596 0.930 . S
N540 C539 1.279 . S
N540 C543 1.314 . S
C541 C538 1.348 . S
C541 C543 1.353 . S
C541 H597 0.929 . S
C542 C538 1.356 . S
C542 C539 1.358 . S
C542 H598 0.930 . S
C543 N540 1.314 . S
C543 C541 1.353 . S
C543 H599 0.930 . S
C544 N545 1.314 . S
C544 C549 1.353 . S
C544 H550 0.930 . S
N545 Li528 1.990 . S
N545 C544 1.314 . S
N545 C547 1.279 . S
C546 C547 1.358 . S
C546 C548 1.356 . S
C546 H600 0.930 . S
C547 N545 1.279 . S
C547 C546 1.358 . S
C547 H551 0.930 . S
C548 C546 1.356 . S
C548 C549 1.348 . S
C549 C544 1.353 . S
C549 C548 1.348 . S
C549 H601 0.929 . S
H550 C544 0.930 . S
H551 C547 0.930 . S
C552 N553 1.314 . S
C552 C554 1.353 . S
C552 H558 0.930 . S
N553 Li529 1.990 . S
N553 C552 1.314 . S
N553 C556 1.279 . S
C554 C552 1.353 . S
C554 C557 1.348 . S
C554 H602 0.929 . S
C555 C556 1.358 . S
C555 C557 1.356 . S
C555 H603 0.930 . S
C556 N553 1.279 . S
C556 C555 1.358 . S
C556 H559 0.930 . S
C557 C554 1.348 . S
C557 C555 1.356 . S
H558 C552 0.930 . S
H559 C556 0.930 . S
C560 C562 1.348 . S
C560 C563 1.356 . S
C560 O590 1.325 . S
N561 C564 1.314 . S
N561 C565 1.279 . S
C562 C560 1.348 . S
C562 C564 1.353 . S
C562 H604 0.929 . S
C563 C560 1.356 . S
C563 C565 1.358 . S
C563 H605 0.930 . S
C564 N561 1.314 . S
C564 C562 1.353 . S
C564 H606 0.930 . S
C565 N561 1.279 . S
C565 C563 1.358 . S
C565 H607 0.930 . S
C566 C567 1.348 . S
C566 C568 1.356 . S
C566 O591 1.325 . S
C567 C566 1.348 . S
C567 C569 1.353 . S
C567 H608 0.929 . S
C568 C566 1.356 . S
C568 C570 1.358 . S
C568 H609 0.930 . S
C569 C567 1.353 . S
C569 N571 1.314 . S
C569 H610 0.930 . S
C570 C568 1.358 . S
C570 N571 1.279 . S
C570 H611 0.930 . S
N571 C569 1.314 . S
N571 C570 1.279 . S
C572 C574 1.353 . S
C572 N575 1.314 . S
C572 H578 0.930 . S
C573 N575 1.279 . S
C573 C576 1.358 . S
C573 H579 0.930 . S
C574 C572 1.353 . S
C574 C577 1.348 . S
C574 H612 0.929 . S
N575 Li530 1.990 . S
N575 C572 1.314 . S
N575 C573 1.279 . S
C576 C573 1.358 . S
C576 C577 1.356 . S
C576 H613 0.930 . S
C577 C574 1.348 . S
C577 C576 1.356 . S
H578 C572 0.930 . S
H579 C573 0.930 . S
C580 N581 1.314 . S
C580 C582 1.353 . S
C580 H586 0.930 . S
N581 Li531 1.990 . S
N581 C580 1.314 . S
N581 C584 1.279 . S
C582 C580 1.353 . S
C582 C585 1.348 . S
C582 H614 0.929 . S
C583 C584 1.358 . S
C583 C585 1.356 . S
C583 H615 0.930 . S
C584 N581 1.279 . S
C584 C583 1.358 . S
C584 H587 0.930 . S
C585 C582 1.348 . S
C585 C583 1.356 . S
H586 C580 0.930 . S
H587 C584 0.930 . S
O588 Li528 1.956 . S
O588 Li529 1.970 . S
O588 Li530 1.961 . S
O588 C532 1.325 . S
O589 Li528 1.970 . S
O589 Li529 1.956 . S
O589 Li531 1.961 . S
O589 C538 1.325 . S
O590 Li528 1.961 . S
O590 Li530 1.956 . S
O590 Li531 1.970 . S
O590 C560 1.325 . S
O591 Li529 1.961 . S
O591 Li530 1.970 . S
O591 Li531 1.956 . S
O591 C566 1.325 . S
H592 C534 0.929 . S
H593 C535 0.930 . S
H594 C536 0.930 . S
H595 C537 0.930 . S
H596 C539 0.930 . S
H597 C541 0.929 . S
H598 C542 0.930 . S
H599 C543 0.930 . S
H600 C546 0.930 . S
H601 C549 0.929 . S
H602 C554 0.929 . S
H603 C555 0.930 . S
H604 C562 0.929 . S
H605 C563 0.930 . S
H606 C564 0.930 . S
H607 C565 0.930 . S
H608 C567 0.929 . S
H609 C568 0.930 . S
H610 C569 0.930 . S
H611 C570 0.930 . S
H612 C574 0.929 . S
H613 C576 0.930 . S
H614 C582 0.929 . S
H615 C583 0.930 . S
Li616 N633 1.990 . S
Li616 O676 1.956 . S
Li616 O677 1.970 . S
Li616 O678 1.961 . S
Li617 N641 1.990 . S
Li617 O676 1.970 . S
Li617 O677 1.956 . S
Li617 O679 1.961 . S
Li618 N663 1.990 . S
Li618 O676 1.961 . S
Li618 O678 1.956 . S
Li618 O679 1.970 . S
Li619 N669 1.978 1_556 S
Li619 O677 1.961 . S
Li619 O678 1.970 . S
Li619 O679 1.956 . S
C620 C622 1.348 . S
C620 C623 1.356 . S
C620 O676 1.325 . S
N621 C624 1.314 . S
N621 C625 1.279 . S
C622 C620 1.348 . S
C622 C624 1.353 . S
C622 H680 0.929 . S
C623 C620 1.356 . S
C623 C625 1.358 . S
C623 H681 0.930 . S
C624 N621 1.314 . S
C624 C622 1.353 . S
C624 H682 0.930 . S
C625 N621 1.279 . S
C625 C623 1.358 . S
C625 H683 0.930 . S
C626 C629 1.348 1_556 S
C626 C630 1.356 1_556 S
C626 O677 1.325 . S
C627 N628 1.279 . S
C627 C630 1.358 . S
C627 H684 0.930 . S
N628 C627 1.279 . S
N628 C631 1.314 . S
C629 C626 1.348 1_554 S
C629 C631 1.353 . S
C629 H685 0.929 1_554 S
C630 C626 1.356 1_554 S
C630 C627 1.358 . S
C630 H686 0.930 . S
C631 N628 1.314 . S
C631 C629 1.353 . S
C631 H687 0.930 . S
C632 N633 1.314 . S
C632 C637 1.353 . S
C632 H638 0.930 . S
N633 Li616 1.990 . S
N633 C632 1.314 . S
N633 C635 1.279 . S
C634 C635 1.358 . S
C634 C636 1.356 . S
C634 H688 0.930 . S
C635 N633 1.279 . S
C635 C634 1.358 . S
C635 H639 0.930 . S
C636 C634 1.356 . S
C636 C637 1.348 . S
C637 C632 1.353 . S
C637 C636 1.348 . S
C637 H689 0.929 1_556 S
H638 C632 0.930 . S
H639 C635 0.930 . S
C640 N641 1.314 . S
C640 C642 1.353 . S
C640 H646 0.930 . S
N641 Li617 1.990 . S
N641 C640 1.314 . S
N641 C644 1.279 . S
C642 C640 1.353 . S
C642 C645 1.348 . S
C642 H690 0.929 . S
C643 C644 1.358 . S
C643 C645 1.356 . S
C643 H691 0.930 . S
C644 N641 1.279 . S
C644 C643 1.358 . S
C644 H647 0.930 . S
C645 C642 1.348 . S
C645 C643 1.356 . S
H646 C640 0.930 . S
H647 C644 0.930 . S
C648 C650 1.348 . S
C648 C651 1.356 . S
C648 O678 1.325 . S
N649 C652 1.314 . S
N649 C653 1.279 . S
C650 C648 1.348 . S
C650 C652 1.353 . S
C650 H692 0.929 . S
C651 C648 1.356 . S
C651 C653 1.358 . S
C651 H693 0.930 . S
C652 N649 1.314 . S
C652 C650 1.353 . S
C652 H694 0.930 . S
C653 N649 1.279 . S
C653 C651 1.358 . S
C653 H695 0.930 . S
C654 C655 1.348 . S
C654 C656 1.356 . S
C654 O679 1.325 . S
C655 C654 1.348 . S
C655 C657 1.353 . S
C655 H696 0.929 . S
C656 C654 1.356 . S
C656 C658 1.358 . S
C656 H697 0.930 . S
C657 C655 1.353 . S
C657 N659 1.314 . S
C657 H698 0.930 . S
C658 C656 1.358 . S
C658 N659 1.279 . S
C658 H699 0.930 . S
N659 C657 1.314 . S
N659 C658 1.279 . S
C660 C662 1.353 . S
C660 N663 1.314 . S
C660 H666 0.930 . S
C661 N663 1.279 . S
C661 C664 1.358 . S
C661 H667 0.930 . S
C662 C660 1.353 . S
C662 C665 1.348 . S
C662 H700 0.929 . S
N663 Li618 1.990 . S
N663 C660 1.314 . S
N663 C661 1.279 . S
C664 C661 1.358 . S
C664 C665 1.356 . S
C664 H701 0.930 . S
C665 C662 1.348 . S
C665 C664 1.356 . S
H666 C660 0.930 . S
H667 C661 0.930 . S
C668 N669 1.330 . S
C668 C670 1.353 . S
C668 H674 0.930 . S
N669 Li619 1.978 1_554 S
N669 C668 1.330 . S
N669 C672 1.278 1_554 S
C670 C668 1.353 . S
C670 C673 1.348 . S
C670 H702 0.929 . S
C671 C672 1.358 1_554 S
C671 C673 1.356 . S
C671 H703 0.930 . S
C672 N669 1.278 1_556 S
C672 C671 1.358 1_556 S
C672 H675 0.930 . S
C673 C670 1.348 . S
C673 C671 1.356 . S
H674 C668 0.930 . S
H675 C672 0.930 . S
O676 Li616 1.956 . S
O676 Li617 1.970 . S
O676 Li618 1.961 . S
O676 C620 1.325 . S
O677 Li616 1.970 . S
O677 Li617 1.956 . S
O677 Li619 1.961 . S
O677 C626 1.325 . S
O678 Li616 1.961 . S
O678 Li618 1.956 . S
O678 Li619 1.970 . S
O678 C648 1.325 . S
O679 Li617 1.961 . S
O679 Li618 1.970 . S
O679 Li619 1.956 . S
O679 C654 1.325 . S
H680 C622 0.929 . S
H681 C623 0.930 . S
H682 C624 0.930 . S
H683 C625 0.930 . S
H684 C627 0.930 . S
H685 C629 0.929 1_556 S
H686 C630 0.930 . S
H687 C631 0.930 . S
H688 C634 0.930 . S
H689 C637 0.929 1_554 S
H690 C642 0.929 . S
H691 C643 0.930 . S
H692 C650 0.929 . S
H693 C651 0.930 . S
H694 C652 0.930 . S
H695 C653 0.930 . S
H696 C655 0.929 . S
H697 C656 0.930 . S
H698 C657 0.930 . S
H699 C658 0.930 . S
H700 C662 0.929 . S
H701 C664 0.930 . S
H702 C670 0.929 . S
H703 C671 0.930 . S
Li704 N721 1.990 . S
Li704 O764 1.956 . S
Li704 O765 1.970 . S
Li704 O766 1.961 . S
Li705 N729 1.990 . S
Li705 O764 1.970 . S
Li705 O765 1.956 . S
Li705 O767 1.961 . S
Li706 N751 1.990 . S
Li706 O764 1.961 . S
Li706 O766 1.956 . S
Li706 O767 1.970 . S
Li707 N757 1.990 . S
Li707 O765 1.961 . S
Li707 O766 1.970 . S
Li707 O767 1.956 . S
C708 C710 1.348 . S
C708 C711 1.356 . S
C708 O764 1.325 . S
N709 C712 1.314 . S
N709 C713 1.279 . S
C710 C708 1.348 . S
C710 C712 1.353 . S
C710 H768 0.929 . S
C711 C708 1.356 . S
C711 C713 1.358 . S
C711 H769 0.930 . S
C712 N709 1.314 . S
C712 C710 1.353 . S
C712 H770 0.930 . S
C713 N709 1.279 . S
C713 C711 1.358 . S
C713 H771 0.930 . S
C714 C717 1.348 . S
C714 C718 1.356 . S
C714 O765 1.325 . S
C715 N716 1.279 . S
C715 C718 1.358 . S
C715 H772 0.930 . S
N716 C715 1.279 . S
N716 C719 1.314 . S
C717 C714 1.348 . S
C717 C719 1.353 . S
C717 H773 0.929 . S
C718 C714 1.356 . S
C718 C715 1.358 . S
C718 H774 0.930 . S
C719 N716 1.314 . S
C719 C717 1.353 . S
C719 H775 0.930 . S
C720 N721 1.314 . S
C720 C725 1.353 . S
C720 H726 0.930 . S
N721 Li704 1.990 . S
N721 C720 1.314 . S
N721 C723 1.279 . S
C722 C723 1.358 . S
C722 C724 1.356 . S
C722 H776 0.930 . S
C723 N721 1.279 . S
C723 C722 1.358 . S
C723 H727 0.930 . S
C724 C722 1.356 . S
C724 C725 1.348 . S
C725 C720 1.353 . S
C725 C724 1.348 . S
C725 H777 0.929 . S
H726 C720 0.930 . S
H727 C723 0.930 . S
C728 N729 1.314 . S
C728 C730 1.353 . S
C728 H734 0.930 . S
N729 Li705 1.990 . S
N729 C728 1.314 . S
N729 C732 1.279 . S
C730 C728 1.353 . S
C730 C733 1.348 . S
C730 H778 0.929 . S
C731 C732 1.358 . S
C731 C733 1.356 . S
C731 H779 0.930 . S
C732 N729 1.279 . S
C732 C731 1.358 . S
C732 H735 0.930 . S
C733 C730 1.348 . S
C733 C731 1.356 . S
H734 C728 0.930 . S
H735 C732 0.930 . S
C736 C738 1.348 . S
C736 C739 1.356 . S
C736 O766 1.325 . S
N737 C740 1.314 . S
N737 C741 1.279 . S
C738 C736 1.348 . S
C738 C740 1.353 . S
C738 H780 0.929 . S
C739 C736 1.356 . S
C739 C741 1.358 . S
C739 H781 0.930 . S
C740 N737 1.314 . S
C740 C738 1.353 . S
C740 H782 0.930 . S
C741 N737 1.279 . S
C741 C739 1.358 . S
C741 H783 0.930 . S
C742 C743 1.348 . S
C742 C744 1.356 . S
C742 O767 1.325 . S
C743 C742 1.348 . S
C743 C745 1.353 . S
C743 H784 0.929 . S
C744 C742 1.356 . S
C744 C746 1.358 . S
C744 H785 0.930 . S
C745 C743 1.353 . S
C745 N747 1.314 . S
C745 H786 0.930 . S
C746 C744 1.358 . S
C746 N747 1.279 . S
C746 H787 0.930 . S
N747 C745 1.314 . S
N747 C746 1.279 . S
C748 C750 1.353 . S
C748 N751 1.314 . S
C748 H754 0.930 . S
C749 N751 1.279 . S
C749 C752 1.358 . S
C749 H755 0.930 . S
C750 C748 1.353 . S
C750 C753 1.348 . S
C750 H788 0.929 . S
N751 Li706 1.990 . S
N751 C748 1.314 . S
N751 C749 1.279 . S
C752 C749 1.358 . S
C752 C753 1.356 . S
C752 H789 0.930 . S
C753 C750 1.348 . S
C753 C752 1.356 . S
H754 C748 0.930 . S
H755 C749 0.930 . S
C756 N757 1.314 . S
C756 C758 1.353 . S
C756 H762 0.930 . S
N757 Li707 1.990 . S
N757 C756 1.314 . S
N757 C760 1.279 . S
C758 C756 1.353 . S
C758 C761 1.348 . S
C758 H790 0.929 . S
C759 C760 1.358 . S
C759 C761 1.356 . S
C759 H791 0.930 . S
C760 N757 1.279 . S
C760 C759 1.358 . S
C760 H763 0.930 . S
C761 C758 1.348 . S
C761 C759 1.356 . S
H762 C756 0.930 . S
H763 C760 0.930 . S
O764 Li704 1.956 . S
O764 Li705 1.970 . S
O764 Li706 1.961 . S
O764 C708 1.325 . S
O765 Li704 1.970 . S
O765 Li705 1.956 . S
O765 Li707 1.961 . S
O765 C714 1.325 . S
O766 Li704 1.961 . S
O766 Li706 1.956 . S
O766 Li707 1.970 . S
O766 C736 1.325 . S
O767 Li705 1.961 . S
O767 Li706 1.970 . S
O767 Li707 1.956 . S
O767 C742 1.325 . S
H768 C710 0.929 . S
H769 C711 0.930 . S
H770 C712 0.930 . S
H771 C713 0.930 . S
H772 C715 0.930 . S
H773 C717 0.929 . S
H774 C718 0.930 . S
H775 C719 0.930 . S
H776 C722 0.930 . S
H777 C725 0.929 . S
H778 C730 0.929 . S
H779 C731 0.930 . S
H780 C738 0.929 . S
H781 C739 0.930 . S
H782 C740 0.930 . S
H783 C741 0.930 . S
H784 C743 0.929 . S
H785 C744 0.930 . S
H786 C745 0.930 . S
H787 C746 0.930 . S
H788 C750 0.929 . S
H789 C752 0.930 . S
H790 C758 0.929 . S
H791 C759 0.930 . S
Li792 N809 1.990 . S
Li792 O852 1.956 . S
Li792 O853 1.970 . S
Li792 O854 1.961 . S
Li793 N817 1.990 . S
Li793 O852 1.970 . S
Li793 O853 1.956 . S
Li793 O855 1.961 . S
Li794 N839 1.990 . S
Li794 O852 1.961 . S
Li794 O854 1.956 . S
Li794 O855 1.970 . S
Li795 N845 1.990 . S
Li795 O853 1.961 . S
Li795 O854 1.970 . S
Li795 O855 1.956 . S
C796 C798 1.348 . S
C796 C799 1.356 . S
C796 O852 1.325 . S
N797 C800 1.314 . S
N797 C801 1.279 . S
C798 C796 1.348 . S
C798 C800 1.353 . S
C798 H856 0.929 . S
C799 C796 1.356 . S
C799 C801 1.358 . S
C799 H857 0.930 . S
C800 N797 1.314 . S
C800 C798 1.353 . S
C800 H858 0.930 . S
C801 N797 1.279 . S
C801 C799 1.358 . S
C801 H859 0.930 . S
C802 C805 1.348 . S
C802 C806 1.356 . S
C802 O853 1.325 . S
C803 N804 1.279 . S
C803 C806 1.358 . S
C803 H860 0.930 . S
N804 C803 1.279 . S
N804 C807 1.314 . S
C805 C802 1.348 . S
C805 C807 1.353 . S
C805 H861 0.929 . S
C806 C802 1.356 . S
C806 C803 1.358 . S
C806 H862 0.930 . S
C807 N804 1.314 . S
C807 C805 1.353 . S
C807 H863 0.930 . S
C808 N809 1.314 . S
C808 C813 1.353 . S
C808 H814 0.930 . S
N809 Li792 1.990 . S
N809 C808 1.314 . S
N809 C811 1.279 . S
C810 C811 1.358 . S
C810 C812 1.356 . S
C810 H864 0.930 . S
C811 N809 1.279 . S
C811 C810 1.358 . S
C811 H815 0.930 . S
C812 C810 1.356 . S
C812 C813 1.348 . S
C813 C808 1.353 . S
C813 C812 1.348 . S
C813 H865 0.929 . S
H814 C808 0.930 . S
H815 C811 0.930 . S
C816 N817 1.314 . S
C816 C818 1.353 . S
C816 H822 0.930 . S
N817 Li793 1.990 . S
N817 C816 1.314 . S
N817 C820 1.279 . S
C818 C816 1.353 . S
C818 C821 1.348 . S
C818 H866 0.929 . S
C819 C820 1.358 . S
C819 C821 1.356 . S
C819 H867 0.930 . S
C820 N817 1.279 . S
C820 C819 1.358 . S
C820 H823 0.930 . S
C821 C818 1.348 . S
C821 C819 1.356 . S
H822 C816 0.930 . S
H823 C820 0.930 . S
C824 C826 1.348 . S
C824 C827 1.356 . S
C824 O854 1.325 . S
N825 C828 1.314 . S
N825 C829 1.279 . S
C826 C824 1.348 . S
C826 C828 1.353 . S
C826 H868 0.929 . S
C827 C824 1.356 . S
C827 C829 1.358 . S
C827 H869 0.930 . S
C828 N825 1.314 . S
C828 C826 1.353 . S
C828 H870 0.930 . S
C829 N825 1.279 . S
C829 C827 1.358 . S
C829 H871 0.930 . S
C830 C831 1.348 . S
C830 C832 1.356 . S
C830 O855 1.325 . S
C831 C830 1.348 . S
C831 C833 1.353 . S
C831 H872 0.929 . S
C832 C830 1.356 . S
C832 C834 1.358 . S
C832 H873 0.930 . S
C833 C831 1.353 . S
C833 N835 1.314 . S
C833 H874 0.930 . S
C834 C832 1.358 . S
C834 N835 1.279 . S
C834 H875 0.930 . S
N835 C833 1.314 . S
N835 C834 1.279 . S
C836 C838 1.353 . S
C836 N839 1.314 . S
C836 H842 0.930 . S
C837 N839 1.279 . S
C837 C840 1.358 . S
C837 H843 0.930 . S
C838 C836 1.353 . S
C838 C841 1.348 . S
C838 H876 0.929 . S
N839 Li794 1.990 . S
N839 C836 1.314 . S
N839 C837 1.279 . S
C840 C837 1.358 . S
C840 C841 1.356 . S
C840 H877 0.930 . S
C841 C838 1.348 . S
C841 C840 1.356 . S
H842 C836 0.930 . S
H843 C837 0.930 . S
C844 N845 1.314 . S
C844 C846 1.353 . S
C844 H850 0.930 . S
N845 Li795 1.990 . S
N845 C844 1.314 . S
N845 C848 1.279 . S
C846 C844 1.353 . S
C846 C849 1.348 . S
C846 H878 0.929 . S
C847 C848 1.358 . S
C847 C849 1.356 . S
C847 H879 0.930 . S
C848 N845 1.279 . S
C848 C847 1.358 . S
C848 H851 0.930 . S
C849 C846 1.348 . S
C849 C847 1.356 . S
H850 C844 0.930 . S
H851 C848 0.930 . S
O852 Li792 1.956 . S
O852 Li793 1.970 . S
O852 Li794 1.961 . S
O852 C796 1.325 . S
O853 Li792 1.970 . S
O853 Li793 1.956 . S
O853 Li795 1.961 . S
O853 C802 1.325 . S
O854 Li792 1.961 . S
O854 Li794 1.956 . S
O854 Li795 1.970 . S
O854 C824 1.325 . S
O855 Li793 1.961 . S
O855 Li794 1.970 . S
O855 Li795 1.956 . S
O855 C830 1.325 . S
H856 C798 0.929 . S
H857 C799 0.930 . S
H858 C800 0.930 . S
H859 C801 0.930 . S
H860 C803 0.930 . S
H861 C805 0.929 . S
H862 C806 0.930 . S
H863 C807 0.930 . S
H864 C810 0.930 . S
H865 C813 0.929 . S
H866 C818 0.929 . S
H867 C819 0.930 . S
H868 C826 0.929 . S
H869 C827 0.930 . S
H870 C828 0.930 . S
H871 C829 0.930 . S
H872 C831 0.929 . S
H873 C832 0.930 . S
H874 C833 0.930 . S
H875 C834 0.930 . S
H876 C838 0.929 . S
H877 C840 0.930 . S
H878 C846 0.929 . S
H879 C847 0.930 . S
Li880 N897 1.990 . S
Li880 O940 1.956 . S
Li880 O941 1.970 . S
Li880 O942 1.961 . S
Li881 N905 1.990 . S
Li881 O940 1.970 . S
Li881 O941 1.956 . S
Li881 O943 1.961 . S
Li882 N927 1.990 1_554 S
Li882 O940 1.961 . S
Li882 O942 1.956 . S
Li882 O943 1.970 . S
Li883 N933 1.990 . S
Li883 O941 1.961 . S
Li883 O942 1.970 . S
Li883 O943 1.956 . S
C884 C886 1.348 . S
C884 C887 1.356 . S
C884 O940 1.325 . S
N885 C888 1.314 . S
N885 C889 1.279 . S
C886 C884 1.348 . S
C886 C888 1.353 . S
C886 H944 0.929 . S
C887 C884 1.356 . S
C887 C889 1.358 . S
C887 H945 0.930 . S
C888 N885 1.314 . S
C888 C886 1.353 . S
C888 H946 0.930 . S
C889 N885 1.279 . S
C889 C887 1.358 . S
C889 H947 0.930 . S
C890 C893 1.348 . S
C890 C894 1.356 . S
C890 O941 1.325 . S
C891 N892 1.279 . S
C891 C894 1.358 . S
C891 H948 0.930 . S
N892 C891 1.279 . S
N892 C895 1.314 . S
C893 C890 1.348 . S
C893 C895 1.353 . S
C893 H949 0.929 . S
C894 C890 1.356 . S
C894 C891 1.358 . S
C894 H950 0.930 . S
C895 N892 1.314 . S
C895 C893 1.353 . S
C895 H951 0.930 . S
C896 N897 1.314 . S
C896 C901 1.353 . S
C896 H902 0.930 . S
N897 Li880 1.990 . S
N897 C896 1.314 . S
N897 C899 1.279 . S
C898 C899 1.358 . S
C898 C900 1.356 . S
C898 H952 0.930 . S
C899 N897 1.279 . S
C899 C898 1.358 . S
C899 H903 0.930 . S
C900 C898 1.356 . S
C900 C901 1.348 . S
C901 C896 1.353 . S
C901 C900 1.348 . S
C901 H953 0.929 . S
H902 C896 0.930 . S
H903 C899 0.930 . S
C904 N905 1.314 . S
C904 C906 1.353 . S
C904 H910 0.930 . S
N905 Li881 1.990 . S
N905 C904 1.314 . S
N905 C908 1.279 . S
C906 C904 1.353 . S
C906 C909 1.348 . S
C906 H954 0.929 1_554 S
C907 C908 1.358 . S
C907 C909 1.356 . S
C907 H955 0.930 . S
C908 N905 1.279 . S
C908 C907 1.358 . S
C908 H911 0.930 . S
C909 C906 1.348 . S
C909 C907 1.356 . S
H910 C904 0.930 . S
H911 C908 0.930 . S
C912 C914 1.348 . S
C912 C915 1.356 . S
C912 O942 1.325 . S
N913 C916 1.314 . S
N913 C917 1.279 . S
C914 C912 1.348 . S
C914 C916 1.353 . S
C914 H956 0.929 . S
C915 C912 1.356 . S
C915 C917 1.358 . S
C915 H957 0.930 . S
C916 N913 1.314 . S
C916 C914 1.353 . S
C916 H958 0.930 . S
C917 N913 1.279 . S
C917 C915 1.358 . S
C917 H959 0.930 . S
C918 C919 1.348 1_554 S
C918 C920 1.356 . S
C918 O943 1.325 . S
C919 C918 1.348 1_556 S
C919 C921 1.353 . S
C919 H960 0.929 . S
C920 C918 1.356 . S
C920 C922 1.358 1_554 S
C920 H961 0.930 . S
C921 C919 1.353 . S
C921 N923 1.314 . S
C921 H962 0.930 . S
C922 C920 1.358 1_556 S
C922 N923 1.279 . S
C922 H963 0.930 . S
N923 C921 1.314 . S
N923 C922 1.279 . S
C924 C926 1.353 . S
C924 N927 1.314 . S
C924 H930 0.930 . S
C925 N927 1.279 . S
C925 C928 1.358 . S
C925 H931 0.930 1_556 S
C926 C924 1.353 . S
C926 C929 1.348 . S
C926 H964 0.929 . S
N927 Li882 1.990 1_556 S
N927 C924 1.314 . S
N927 C925 1.279 . S
C928 C925 1.358 . S
C928 C929 1.356 . S
C928 H965 0.930 . S
C929 C926 1.348 . S
C929 C928 1.356 . S
H930 C924 0.930 . S
H931 C925 0.930 1_554 S
C932 N933 1.314 . S
C932 C934 1.353 . S
C932 H938 0.930 . S
N933 Li883 1.990 . S
N933 C932 1.314 . S
N933 C936 1.279 . S
C934 C932 1.353 . S
C934 C937 1.348 . S
C934 H966 0.929 . S
C935 C936 1.358 . S
C935 C937 1.356 . S
C935 H967 0.930 . S
C936 N933 1.279 . S
C936 C935 1.358 . S
C936 H939 0.930 . S
C937 C934 1.348 . S
C937 C935 1.356 . S
H938 C932 0.930 . S
H939 C936 0.930 . S
O940 Li880 1.956 . S
O940 Li881 1.970 . S
O940 Li882 1.961 . S
O940 C884 1.325 . S
O941 Li880 1.970 . S
O941 Li881 1.956 . S
O941 Li883 1.961 . S
O941 C890 1.325 . S
O942 Li880 1.961 . S
O942 Li882 1.956 . S
O942 Li883 1.970 . S
O942 C912 1.325 . S
O943 Li881 1.961 . S
O943 Li882 1.970 . S
O943 Li883 1.956 . S
O943 C918 1.325 . S
H944 C886 0.929 . S
H945 C887 0.930 . S
H946 C888 0.930 . S
H947 C889 0.930 . S
H948 C891 0.930 . S
H949 C893 0.929 . S
H950 C894 0.930 . S
H951 C895 0.930 . S
H952 C898 0.930 . S
H953 C901 0.929 . S
H954 C906 0.929 1_556 S
H955 C907 0.930 . S
H956 C914 0.929 . S
H957 C915 0.930 . S
H958 C916 0.930 . S
H959 C917 0.930 . S
H960 C919 0.929 . S
H961 C920 0.930 . S
H962 C921 0.930 . S
H963 C922 0.930 . S
H964 C926 0.929 . S
H965 C928 0.930 . S
H966 C934 0.929 . S
H967 C935 0.930 . S
Li968 N985 1.990 1_556 S
Li968 O1028 1.956 . S
Li968 O1029 1.970 . S
Li968 O1030 1.961 . S
Li969 N993 1.990 . S
Li969 O1028 1.970 . S
Li969 O1029 1.956 . S
Li969 O1031 1.961 . S
Li970 N1015 1.990 . S
Li970 O1028 1.961 . S
Li970 O1030 1.956 . S
Li970 O1031 1.970 . S
Li971 N1021 1.990 . S
Li971 O1029 1.961 . S
Li971 O1030 1.970 . S
Li971 O1031 1.956 . S
C972 C974 1.348 1_556 S
C972 C975 1.356 1_556 S
C972 O1028 1.325 . S
N973 C976 1.314 . S
N973 C977 1.279 . S
C974 C972 1.348 1_554 S
C974 C976 1.353 . S
C974 H1032 0.929 . S
C975 C972 1.356 1_554 S
C975 C977 1.358 . S
C975 H1033 0.930 1_554 S
C976 N973 1.314 . S
C976 C974 1.353 . S
C976 H1034 0.930 . S
C977 N973 1.279 . S
C977 C975 1.358 . S
C977 H1035 0.930 . S
C978 C981 1.348 . S
C978 C982 1.356 . S
C978 O1029 1.325 . S
C979 N980 1.279 . S
C979 C982 1.358 . S
C979 H1036 0.930 . S
N980 C979 1.279 . S
N980 C983 1.314 . S
C981 C978 1.348 . S
C981 C983 1.353 . S
C981 H1037 0.929 . S
C982 C978 1.356 . S
C982 C979 1.358 . S
C982 H1038 0.930 . S
C983 N980 1.314 . S
C983 C981 1.353 . S
C983 H1039 0.930 1_556 S
C984 N985 1.314 1_556 S
C984 C989 1.353 1_556 S
C984 H990 0.930 . S
N985 Li968 1.990 1_554 S
N985 C984 1.314 1_554 S
N985 C987 1.279 . S
C986 C987 1.358 . S
C986 C988 1.356 . S
C986 H1040 0.930 . S
C987 N985 1.279 . S
C987 C986 1.358 . S
C987 H991 0.930 . S
C988 C986 1.356 . S
C988 C989 1.348 . S
C989 C984 1.353 1_554 S
C989 C988 1.348 . S
C989 H1041 0.929 . S
H990 C984 0.930 . S
H991 C987 0.930 . S
C992 N993 1.314 . S
C992 C994 1.353 . S
C992 H998 0.930 . S
N993 Li969 1.990 . S
N993 C992 1.314 . S
N993 C996 1.279 . S
C994 C992 1.353 . S
C994 C997 1.348 . S
C994 H1042 0.929 . S
C995 C996 1.358 . S
C995 C997 1.356 . S
C995 H1043 0.930 . S
C996 N993 1.279 . S
C996 C995 1.358 . S
C996 H999 0.930 . S
C997 C994 1.348 . S
C997 C995 1.356 . S
H998 C992 0.930 . S
H999 C996 0.930 . S
C1000 C1002 1.348 . S
C1000 C1003 1.356 . S
C1000 O1030 1.325 . S
N1001 C1004 1.314 . S
N1001 C1005 1.279 . S
C1002 C1000 1.348 . S
C1002 C1004 1.353 . S
C1002 H1044 0.929 . S
C1003 C1000 1.356 . S
C1003 C1005 1.358 . S
C1003 H1045 0.930 . S
C1004 N1001 1.314 . S
C1004 C1002 1.353 . S
C1004 H1046 0.930 . S
C1005 N1001 1.279 . S
C1005 C1003 1.358 . S
C1005 H1047 0.930 . S
C1006 C1007 1.348 . S
C1006 C1008 1.356 . S
C1006 O1031 1.325 . S
C1007 C1006 1.348 . S
C1007 C1009 1.353 . S
C1007 H1048 0.929 . S
C1008 C1006 1.356 . S
C1008 C1010 1.358 . S
C1008 H1049 0.930 . S
C1009 C1007 1.353 . S
C1009 N1011 1.314 . S
C1009 H1050 0.930 . S
C1010 C1008 1.358 . S
C1010 N1011 1.279 . S
C1010 H1051 0.930 . S
N1011 C1009 1.314 . S
N1011 C1010 1.279 . S
C1012 C1014 1.353 . S
C1012 N1015 1.314 . S
C1012 H1018 0.930 . S
C1013 N1015 1.279 . S
C1013 C1016 1.358 . S
C1013 H1019 0.930 . S
C1014 C1012 1.353 . S
C1014 C1017 1.348 . S
C1014 H1052 0.929 . S
N1015 Li970 1.990 . S
N1015 C1012 1.314 . S
N1015 C1013 1.279 . S
C1016 C1013 1.358 . S
C1016 C1017 1.356 . S
C1016 H1053 0.930 . S
C1017 C1014 1.348 . S
C1017 C1016 1.356 . S
H1018 C1012 0.930 . S
H1019 C1013 0.930 . S
C1020 N1021 1.314 . S
C1020 C1022 1.353 . S
C1020 H1026 0.930 . S
N1021 Li971 1.990 . S
N1021 C1020 1.314 . S
N1021 C1024 1.279 . S
C1022 C1020 1.353 . S
C1022 C1025 1.348 . S
C1022 H1054 0.929 . S
C1023 C1024 1.358 . S
C1023 C1025 1.356 . S
C1023 H1055 0.930 . S
C1024 N1021 1.279 . S
C1024 C1023 1.358 . S
C1024 H1027 0.930 . S
C1025 C1022 1.348 . S
C1025 C1023 1.356 . S
H1026 C1020 0.930 . S
H1027 C1024 0.930 . S
O1028 Li968 1.956 . S
O1028 Li969 1.970 . S
O1028 Li970 1.961 . S
O1028 C972 1.325 . S
O1029 Li968 1.970 . S
O1029 Li969 1.956 . S
O1029 Li971 1.961 . S
O1029 C978 1.325 . S
O1030 Li968 1.961 . S
O1030 Li970 1.956 . S
O1030 Li971 1.970 . S
O1030 C1000 1.325 . S
O1031 Li969 1.961 . S
O1031 Li970 1.970 . S
O1031 Li971 1.956 . S
O1031 C1006 1.325 . S
H1032 C974 0.929 . S
H1033 C975 0.930 1_556 S
H1034 C976 0.930 . S
H1035 C977 0.930 . S
H1036 C979 0.930 . S
H1037 C981 0.929 . S
H1038 C982 0.930 . S
H1039 C983 0.930 1_554 S
H1040 C986 0.930 . S
H1041 C989 0.929 . S
H1042 C994 0.929 . S
H1043 C995 0.930 . S
H1044 C1002 0.929 . S
H1045 C1003 0.930 . S
H1046 C1004 0.930 . S
H1047 C1005 0.930 . S
H1048 C1007 0.929 . S
H1049 C1008 0.930 . S
H1050 C1009 0.930 . S
H1051 C1010 0.930 . S
H1052 C1014 0.929 . S
H1053 C1016 0.930 . S
H1054 C1022 0.929 . S
H1055 C1023 0.930 . S
Li1056 N1073 1.990 1_556 S
Li1056 O1116 1.956 . S
Li1056 O1117 1.970 . S
Li1056 O1118 1.961 . S
Li1057 N1081 1.990 . S
Li1057 O1116 1.970 . S
Li1057 O1117 1.956 . S
Li1057 O1119 1.961 . S
Li1058 N1103 1.990 . S
Li1058 O1116 1.961 . S
Li1058 O1118 1.956 . S
Li1058 O1119 1.970 . S
Li1059 N1109 1.990 . S
Li1059 O1117 1.961 . S
Li1059 O1118 1.970 . S
Li1059 O1119 1.956 . S
C1060 C1062 1.348 . S
C1060 C1063 1.356 . S
C1060 O1116 1.325 . S
N1061 C1064 1.314 . S
N1061 C1065 1.279 . S
C1062 C1060 1.348 . S
C1062 C1064 1.353 . S
C1062 H1120 0.929 . S
C1063 C1060 1.356 . S
C1063 C1065 1.358 . S
C1063 H1121 0.930 . S
C1064 N1061 1.314 . S
C1064 C1062 1.353 . S
C1064 H1122 0.930 . S
C1065 N1061 1.279 . S
C1065 C1063 1.358 . S
C1065 H1123 0.930 . S
C1066 C1069 1.348 1_556 S
C1066 C1070 1.356 . S
C1066 O1117 1.325 . S
C1067 N1068 1.279 . S
C1067 C1070 1.358 1_554 S
C1067 H1124 0.930 . S
N1068 C1067 1.279 . S
N1068 C1071 1.314 . S
C1069 C1066 1.348 1_554 S
C1069 C1071 1.353 . S
C1069 H1125 0.929 . S
C1070 C1066 1.356 . S
C1070 C1067 1.358 1_556 S
C1070 H1126 0.930 . S
C1071 N1068 1.314 . S
C1071 C1069 1.353 . S
C1071 H1127 0.930 . S
C1072 N1073 1.314 . S
C1072 C1077 1.353 . S
C1072 H1078 0.930 . S
N1073 Li1056 1.990 1_554 S
N1073 C1072 1.314 . S
N1073 C1075 1.279 . S
C1074 C1075 1.358 . S
C1074 C1076 1.356 . S
C1074 H1128 0.930 . S
C1075 N1073 1.279 . S
C1075 C1074 1.358 . S
C1075 H1079 0.930 1_554 S
C1076 C1074 1.356 . S
C1076 C1077 1.348 . S
C1077 C1072 1.353 . S
C1077 C1076 1.348 . S
C1077 H1129 0.929 . S
H1078 C1072 0.930 . S
H1079 C1075 0.930 1_556 S
C1080 N1081 1.314 . S
C1080 C1082 1.353 . S
C1080 H1086 0.930 . S
N1081 Li1057 1.990 . S
N1081 C1080 1.314 . S
N1081 C1084 1.279 . S
C1082 C1080 1.353 . S
C1082 C1085 1.348 . S
C1082 H1130 0.929 . S
C1083 C1084 1.358 . S
C1083 C1085 1.356 . S
C1083 H1131 0.930 . S
C1084 N1081 1.279 . S
C1084 C1083 1.358 . S
C1084 H1087 0.930 . S
C1085 C1082 1.348 . S
C1085 C1083 1.356 . S
H1086 C1080 0.930 . S
H1087 C1084 0.930 . S
C1088 C1090 1.348 . S
C1088 C1091 1.356 . S
C1088 O1118 1.325 . S
N1089 C1092 1.314 . S
N1089 C1093 1.279 . S
C1090 C1088 1.348 . S
C1090 C1092 1.353 . S
C1090 H1132 0.929 . S
C1091 C1088 1.356 . S
C1091 C1093 1.358 . S
C1091 H1133 0.930 . S
C1092 N1089 1.314 . S
C1092 C1090 1.353 . S
C1092 H1134 0.930 . S
C1093 N1089 1.279 . S
C1093 C1091 1.358 . S
C1093 H1135 0.930 . S
C1094 C1095 1.348 . S
C1094 C1096 1.356 . S
C1094 O1119 1.325 . S
C1095 C1094 1.348 . S
C1095 C1097 1.353 . S
C1095 H1136 0.929 . S
C1096 C1094 1.356 . S
C1096 C1098 1.358 . S
C1096 H1137 0.930 . S
C1097 C1095 1.353 . S
C1097 N1099 1.314 . S
C1097 H1138 0.930 . S
C1098 C1096 1.358 . S
C1098 N1099 1.279 . S
C1098 H1139 0.930 . S
N1099 C1097 1.314 . S
N1099 C1098 1.279 . S
C1100 C1102 1.353 . S
C1100 N1103 1.314 . S
C1100 H1106 0.930 . S
C1101 N1103 1.279 . S
C1101 C1104 1.358 . S
C1101 H1107 0.930 . S
C1102 C1100 1.353 . S
C1102 C1105 1.348 . S
C1102 H1140 0.929 . S
N1103 Li1058 1.990 . S
N1103 C1100 1.314 . S
N1103 C1101 1.279 . S
C1104 C1101 1.358 . S
C1104 C1105 1.356 . S
C1104 H1141 0.930 . S
C1105 C1102 1.348 . S
C1105 C1104 1.356 . S
H1106 C1100 0.930 . S
H1107 C1101 0.930 . S
C1108 N1109 1.314 . S
C1108 C1110 1.353 . S
C1108 H1114 0.930 . S
N1109 Li1059 1.990 . S
N1109 C1108 1.314 . S
N1109 C1112 1.279 . S
C1110 C1108 1.353 . S
C1110 C1113 1.348 . S
C1110 H1142 0.929 1_556 S
C1111 C1112 1.358 . S
C1111 C1113 1.356 . S
C1111 H1143 0.930 . S
C1112 N1109 1.279 . S
C1112 C1111 1.358 . S
C1112 H1115 0.930 . S
C1113 C1110 1.348 . S
C1113 C1111 1.356 . S
H1114 C1108 0.930 . S
H1115 C1112 0.930 . S
O1116 Li1056 1.956 . S
O1116 Li1057 1.970 . S
O1116 Li1058 1.961 . S
O1116 C1060 1.325 . S
O1117 Li1056 1.970 . S
O1117 Li1057 1.956 . S
O1117 Li1059 1.961 . S
O1117 C1066 1.325 . S
O1118 Li1056 1.961 . S
O1118 Li1058 1.956 . S
O1118 Li1059 1.970 . S
O1118 C1088 1.325 . S
O1119 Li1057 1.961 . S
O1119 Li1058 1.970 . S
O1119 Li1059 1.956 . S
O1119 C1094 1.325 . S
H1120 C1062 0.929 . S
H1121 C1063 0.930 . S
H1122 C1064 0.930 . S
H1123 C1065 0.930 . S
H1124 C1067 0.930 . S
H1125 C1069 0.929 . S
H1126 C1070 0.930 . S
H1127 C1071 0.930 . S
H1128 C1074 0.930 . S
H1129 C1077 0.929 . S
H1130 C1082 0.929 . S
H1131 C1083 0.930 . S
H1132 C1090 0.929 . S
H1133 C1091 0.930 . S
H1134 C1092 0.930 . S
H1135 C1093 0.930 . S
H1136 C1095 0.929 . S
H1137 C1096 0.930 . S
H1138 C1097 0.930 . S
H1139 C1098 0.930 . S
H1140 C1102 0.929 . S
H1141 C1104 0.930 . S
H1142 C1110 0.929 1_554 S
H1143 C1111 0.930 . S
Li1144 N1161 1.990 . S
Li1144 O1204 1.956 . S
Li1144 O1205 1.970 . S
Li1144 O1206 1.961 . S
Li1145 N1169 1.990 . S
Li1145 O1204 1.970 . S
Li1145 O1205 1.956 . S
Li1145 O1207 1.961 . S
Li1146 N1191 1.990 . S
Li1146 O1204 1.961 . S
Li1146 O1206 1.956 . S
Li1146 O1207 1.970 . S
Li1147 N1197 1.990 . S
Li1147 O1205 1.961 . S
Li1147 O1206 1.970 . S
Li1147 O1207 1.956 . S
C1148 C1150 1.348 . S
C1148 C1151 1.356 . S
C1148 O1204 1.325 . S
N1149 C1152 1.314 . S
N1149 C1153 1.279 . S
C1150 C1148 1.348 . S
C1150 C1152 1.353 . S
C1150 H1208 0.929 . S
C1151 C1148 1.356 . S
C1151 C1153 1.358 . S
C1151 H1209 0.930 . S
C1152 N1149 1.314 . S
C1152 C1150 1.353 . S
C1152 H1210 0.930 . S
C1153 N1149 1.279 . S
C1153 C1151 1.358 . S
C1153 H1211 0.930 . S
C1154 C1157 1.348 . S
C1154 C1158 1.356 . S
C1154 O1205 1.325 . S
C1155 N1156 1.279 . S
C1155 C1158 1.358 . S
C1155 H1212 0.930 . S
N1156 C1155 1.279 . S
N1156 C1159 1.314 . S
C1157 C1154 1.348 . S
C1157 C1159 1.353 . S
C1157 H1213 0.929 . S
C1158 C1154 1.356 . S
C1158 C1155 1.358 . S
C1158 H1214 0.930 . S
C1159 N1156 1.314 . S
C1159 C1157 1.353 . S
C1159 H1215 0.930 . S
C1160 N1161 1.314 . S
C1160 C1165 1.353 . S
C1160 H1166 0.930 . S
N1161 Li1144 1.990 . S
N1161 C1160 1.314 . S
N1161 C1163 1.279 . S
C1162 C1163 1.358 . S
C1162 C1164 1.356 . S
C1162 H1216 0.930 . S
C1163 N1161 1.279 . S
C1163 C1162 1.358 . S
C1163 H1167 0.930 . S
C1164 C1162 1.356 . S
C1164 C1165 1.348 . S
C1165 C1160 1.353 . S
C1165 C1164 1.348 . S
C1165 H1217 0.929 . S
H1166 C1160 0.930 . S
H1167 C1163 0.930 . S
C1168 N1169 1.314 . S
C1168 C1170 1.353 . S
C1168 H1174 0.930 . S
N1169 Li1145 1.990 . S
N1169 C1168 1.314 . S
N1169 C1172 1.279 . S
C1170 C1168 1.353 . S
C1170 C1173 1.348 . S
C1170 H1218 0.929 . S
C1171 C1172 1.358 . S
C1171 C1173 1.356 . S
C1171 H1219 0.930 . S
C1172 N1169 1.279 . S
C1172 C1171 1.358 . S
C1172 H1175 0.930 . S
C1173 C1170 1.348 . S
C1173 C1171 1.356 . S
H1174 C1168 0.930 . S
H1175 C1172 0.930 . S
C1176 C1178 1.348 . S
C1176 C1179 1.356 . S
C1176 O1206 1.325 . S
N1177 C1180 1.314 . S
N1177 C1181 1.279 . S
C1178 C1176 1.348 . S
C1178 C1180 1.353 . S
C1178 H1220 0.929 . S
C1179 C1176 1.356 . S
C1179 C1181 1.358 . S
C1179 H1221 0.930 . S
C1180 N1177 1.314 . S
C1180 C1178 1.353 . S
C1180 H1222 0.930 . S
C1181 N1177 1.279 . S
C1181 C1179 1.358 . S
C1181 H1223 0.930 . S
C1182 C1183 1.348 . S
C1182 C1184 1.356 . S
C1182 O1207 1.325 . S
C1183 C1182 1.348 . S
C1183 C1185 1.353 . S
C1183 H1224 0.929 . S
C1184 C1182 1.356 . S
C1184 C1186 1.358 . S
C1184 H1225 0.930 . S
C1185 C1183 1.353 . S
C1185 N1187 1.314 . S
C1185 H1226 0.930 . S
C1186 C1184 1.358 . S
C1186 N1187 1.279 . S
C1186 H1227 0.930 . S
N1187 C1185 1.314 . S
N1187 C1186 1.279 . S
C1188 C1190 1.353 . S
C1188 N1191 1.314 . S
C1188 H1194 0.930 . S
C1189 N1191 1.279 . S
C1189 C1192 1.358 . S
C1189 H1195 0.930 . S
C1190 C1188 1.353 . S
C1190 C1193 1.348 . S
C1190 H1228 0.929 . S
N1191 Li1146 1.990 . S
N1191 C1188 1.314 . S
N1191 C1189 1.279 . S
C1192 C1189 1.358 . S
C1192 C1193 1.356 . S
C1192 H1229 0.930 . S
C1193 C1190 1.348 . S
C1193 C1192 1.356 . S
H1194 C1188 0.930 . S
H1195 C1189 0.930 . S
C1196 N1197 1.314 . S
C1196 C1198 1.353 . S
C1196 H1202 0.930 . S
N1197 Li1147 1.990 . S
N1197 C1196 1.314 . S
N1197 C1200 1.279 . S
C1198 C1196 1.353 . S
C1198 C1201 1.348 . S
C1198 H1230 0.929 . S
C1199 C1200 1.358 . S
C1199 C1201 1.356 . S
C1199 H1231 0.930 . S
C1200 N1197 1.279 . S
C1200 C1199 1.358 . S
C1200 H1203 0.930 . S
C1201 C1198 1.348 . S
C1201 C1199 1.356 . S
H1202 C1196 0.930 . S
H1203 C1200 0.930 . S
O1204 Li1144 1.956 . S
O1204 Li1145 1.970 . S
O1204 Li1146 1.961 . S
O1204 C1148 1.325 . S
O1205 Li1144 1.970 . S
O1205 Li1145 1.956 . S
O1205 Li1147 1.961 . S
O1205 C1154 1.325 . S
O1206 Li1144 1.961 . S
O1206 Li1146 1.956 . S
O1206 Li1147 1.970 . S
O1206 C1176 1.325 . S
O1207 Li1145 1.961 . S
O1207 Li1146 1.970 . S
O1207 Li1147 1.956 . S
O1207 C1182 1.325 . S
H1208 C1150 0.929 . S
H1209 C1151 0.930 . S
H1210 C1152 0.930 . S
H1211 C1153 0.930 . S
H1212 C1155 0.930 . S
H1213 C1157 0.929 . S
H1214 C1158 0.930 . S
H1215 C1159 0.930 . S
H1216 C1162 0.930 . S
H1217 C1165 0.929 . S
H1218 C1170 0.929 . S
H1219 C1171 0.930 . S
H1220 C1178 0.929 . S
H1221 C1179 0.930 . S
H1222 C1180 0.930 . S
H1223 C1181 0.930 . S
H1224 C1183 0.929 . S
H1225 C1184 0.930 . S
H1226 C1185 0.930 . S
H1227 C1186 0.930 . S
H1228 C1190 0.929 . S
H1229 C1192 0.930 . S
H1230 C1198 0.929 . S
H1231 C1199 0.930 . S
Li1232 N1249 1.990 . S
Li1232 O1292 1.956 . S
Li1232 O1293 1.970 . S
Li1232 O1294 1.961 . S
Li1233 N1257 1.990 . S
Li1233 O1292 1.970 . S
Li1233 O1293 1.956 . S
Li1233 O1295 1.961 . S
Li1234 N1279 1.990 . S
Li1234 O1292 1.961 . S
Li1234 O1294 1.956 . S
Li1234 O1295 1.970 . S
Li1235 N1285 1.990 . S
Li1235 O1293 1.961 . S
Li1235 O1294 1.970 . S
Li1235 O1295 1.956 . S
C1236 C1238 1.348 . S
C1236 C1239 1.356 . S
C1236 O1292 1.325 . S
N1237 C1240 1.314 . S
N1237 C1241 1.279 . S
C1238 C1236 1.348 . S
C1238 C1240 1.353 . S
C1238 H1296 0.929 . S
C1239 C1236 1.356 . S
C1239 C1241 1.358 . S
C1239 H1297 0.930 . S
C1240 N1237 1.314 . S
C1240 C1238 1.353 . S
C1240 H1298 0.930 . S
C1241 N1237 1.279 . S
C1241 C1239 1.358 . S
C1241 H1299 0.930 . S
C1242 C1245 1.348 . S
C1242 C1246 1.356 . S
C1242 O1293 1.325 . S
C1243 N1244 1.279 . S
C1243 C1246 1.358 . S
C1243 H1300 0.930 . S
N1244 C1243 1.279 . S
N1244 C1247 1.314 . S
C1245 C1242 1.348 . S
C1245 C1247 1.353 . S
C1245 H1301 0.929 . S
C1246 C1242 1.356 . S
C1246 C1243 1.358 . S
C1246 H1302 0.930 . S
C1247 N1244 1.314 . S
C1247 C1245 1.353 . S
C1247 H1303 0.930 . S
C1248 N1249 1.314 . S
C1248 C1253 1.353 . S
C1248 H1254 0.930 . S
N1249 Li1232 1.990 . S
N1249 C1248 1.314 . S
N1249 C1251 1.279 . S
C1250 C1251 1.358 . S
C1250 C1252 1.356 . S
C1250 H1304 0.930 . S
C1251 N1249 1.279 . S
C1251 C1250 1.358 . S
C1251 H1255 0.930 . S
C1252 C1250 1.356 . S
C1252 C1253 1.348 . S
C1253 C1248 1.353 . S
C1253 C1252 1.348 . S
C1253 H1305 0.929 . S
H1254 C1248 0.930 . S
H1255 C1251 0.930 . S
C1256 N1257 1.314 . S
C1256 C1258 1.353 . S
C1256 H1262 0.930 . S
N1257 Li1233 1.990 . S
N1257 C1256 1.314 . S
N1257 C1260 1.279 . S
C1258 C1256 1.353 . S
C1258 C1261 1.348 . S
C1258 H1306 0.929 . S
C1259 C1260 1.358 . S
C1259 C1261 1.356 . S
C1259 H1307 0.930 . S
C1260 N1257 1.279 . S
C1260 C1259 1.358 . S
C1260 H1263 0.930 . S
C1261 C1258 1.348 . S
C1261 C1259 1.356 . S
H1262 C1256 0.930 . S
H1263 C1260 0.930 . S
C1264 C1266 1.348 . S
C1264 C1267 1.356 . S
C1264 O1294 1.325 . S
N1265 C1268 1.314 . S
N1265 C1269 1.279 . S
C1266 C1264 1.348 . S
C1266 C1268 1.353 . S
C1266 H1308 0.929 . S
C1267 C1264 1.356 . S
C1267 C1269 1.358 . S
C1267 H1309 0.930 . S
C1268 N1265 1.314 . S
C1268 C1266 1.353 . S
C1268 H1310 0.930 . S
C1269 N1265 1.279 . S
C1269 C1267 1.358 . S
C1269 H1311 0.930 . S
C1270 C1271 1.348 . S
C1270 C1272 1.356 . S
C1270 O1295 1.325 . S
C1271 C1270 1.348 . S
C1271 C1273 1.353 . S
C1271 H1312 0.929 . S
C1272 C1270 1.356 . S
C1272 C1274 1.358 . S
C1272 H1313 0.930 . S
C1273 C1271 1.353 . S
C1273 N1275 1.314 . S
C1273 H1314 0.930 . S
C1274 C1272 1.358 . S
C1274 N1275 1.279 . S
C1274 H1315 0.930 . S
N1275 C1273 1.314 . S
N1275 C1274 1.279 . S
C1276 C1278 1.353 . S
C1276 N1279 1.314 . S
C1276 H1282 0.930 . S
C1277 N1279 1.279 . S
C1277 C1280 1.358 . S
C1277 H1283 0.930 . S
C1278 C1276 1.353 . S
C1278 C1281 1.348 . S
C1278 H1316 0.929 . S
N1279 Li1234 1.990 . S
N1279 C1276 1.314 . S
N1279 C1277 1.279 . S
C1280 C1277 1.358 . S
C1280 C1281 1.356 . S
C1280 H1317 0.930 . S
C1281 C1278 1.348 . S
C1281 C1280 1.356 . S
H1282 C1276 0.930 . S
H1283 C1277 0.930 . S
C1284 N1285 1.314 . S
C1284 C1286 1.353 . S
C1284 H1290 0.930 . S
N1285 Li1235 1.990 . S
N1285 C1284 1.314 . S
N1285 C1288 1.279 . S
C1286 C1284 1.353 . S
C1286 C1289 1.348 . S
C1286 H1318 0.929 . S
C1287 C1288 1.358 . S
C1287 C1289 1.356 . S
C1287 H1319 0.930 . S
C1288 N1285 1.279 . S
C1288 C1287 1.358 . S
C1288 H1291 0.930 . S
C1289 C1286 1.348 . S
C1289 C1287 1.356 . S
H1290 C1284 0.930 . S
H1291 C1288 0.930 . S
O1292 Li1232 1.956 . S
O1292 Li1233 1.970 . S
O1292 Li1234 1.961 . S
O1292 C1236 1.325 . S
O1293 Li1232 1.970 . S
O1293 Li1233 1.956 . S
O1293 Li1235 1.961 . S
O1293 C1242 1.325 . S
O1294 Li1232 1.961 . S
O1294 Li1234 1.956 . S
O1294 Li1235 1.970 . S
O1294 C1264 1.325 . S
O1295 Li1233 1.961 . S
O1295 Li1234 1.970 . S
O1295 Li1235 1.956 . S
O1295 C1270 1.325 . S
H1296 C1238 0.929 . S
H1297 C1239 0.930 . S
H1298 C1240 0.930 . S
H1299 C1241 0.930 . S
H1300 C1243 0.930 . S
H1301 C1245 0.929 . S
H1302 C1246 0.930 . S
H1303 C1247 0.930 . S
H1304 C1250 0.930 . S
H1305 C1253 0.929 . S
H1306 C1258 0.929 . S
H1307 C1259 0.930 . S
H1308 C1266 0.929 . S
H1309 C1267 0.930 . S
H1310 C1268 0.930 . S
H1311 C1269 0.930 . S
H1312 C1271 0.929 . S
H1313 C1272 0.930 . S
H1314 C1273 0.930 . S
H1315 C1274 0.930 . S
H1316 C1278 0.929 . S
H1317 C1280 0.930 . S
H1318 C1286 0.929 . S
H1319 C1287 0.930 . S
Li1320 N1337 1.990 . S
Li1320 O1380 1.956 . S
Li1320 O1381 1.970 . S
Li1320 O1382 1.961 . S
Li1321 N1345 1.990 . S
Li1321 O1380 1.970 . S
Li1321 O1381 1.956 . S
Li1321 O1383 1.961 . S
Li1322 N1367 1.990 . S
Li1322 O1380 1.961 . S
Li1322 O1382 1.956 . S
Li1322 O1383 1.970 . S
Li1323 N1373 1.990 1_554 S
Li1323 O1381 1.961 . S
Li1323 O1382 1.970 . S
Li1323 O1383 1.956 . S
C1324 C1326 1.348 . S
C1324 C1327 1.356 . S
C1324 O1380 1.325 . S
N1325 C1328 1.314 . S
N1325 C1329 1.279 . S
C1326 C1324 1.348 . S
C1326 C1328 1.353 . S
C1326 H1384 0.929 . S
C1327 C1324 1.356 . S
C1327 C1329 1.358 . S
C1327 H1385 0.930 . S
C1328 N1325 1.314 . S
C1328 C1326 1.353 . S
C1328 H1386 0.930 . S
C1329 N1325 1.279 . S
C1329 C1327 1.358 . S
C1329 H1387 0.930 . S
C1330 C1333 1.348 . S
C1330 C1334 1.356 . S
C1330 O1381 1.325 . S
C1331 N1332 1.279 . S
C1331 C1334 1.358 . S
C1331 H1388 0.930 . S
N1332 C1331 1.279 . S
N1332 C1335 1.314 . S
C1333 C1330 1.348 . S
C1333 C1335 1.353 . S
C1333 H1389 0.929 . S
C1334 C1330 1.356 . S
C1334 C1331 1.358 . S
C1334 H1390 0.930 . S
C1335 N1332 1.314 . S
C1335 C1333 1.353 . S
C1335 H1391 0.930 . S
C1336 N1337 1.314 . S
C1336 C1341 1.353 . S
C1336 H1342 0.930 . S
N1337 Li1320 1.990 . S
N1337 C1336 1.314 . S
N1337 C1339 1.279 . S
C1338 C1339 1.358 . S
C1338 C1340 1.356 . S
C1338 H1392 0.930 . S
C1339 N1337 1.279 . S
C1339 C1338 1.358 . S
C1339 H1343 0.930 . S
C1340 C1338 1.356 . S
C1340 C1341 1.348 . S
C1341 C1336 1.353 . S
C1341 C1340 1.348 . S
C1341 H1393 0.929 . S
H1342 C1336 0.930 . S
H1343 C1339 0.930 . S
C1344 N1345 1.314 . S
C1344 C1346 1.353 . S
C1344 H1350 0.930 . S
N1345 Li1321 1.990 . S
N1345 C1344 1.314 . S
N1345 C1348 1.279 . S
C1346 C1344 1.353 . S
C1346 C1349 1.348 . S
C1346 H1394 0.929 . S
C1347 C1348 1.358 . S
C1347 C1349 1.356 . S
C1347 H1395 0.930 . S
C1348 N1345 1.279 . S
C1348 C1347 1.358 . S
C1348 H1351 0.930 . S
C1349 C1346 1.348 . S
C1349 C1347 1.356 . S
H1350 C1344 0.930 . S
H1351 C1348 0.930 . S
C1352 C1354 1.348 . S
C1352 C1355 1.356 . S
C1352 O1382 1.325 . S
N1353 C1356 1.314 . S
N1353 C1357 1.279 . S
C1354 C1352 1.348 . S
C1354 C1356 1.353 . S
C1354 H1396 0.929 . S
C1355 C1352 1.356 . S
C1355 C1357 1.358 . S
C1355 H1397 0.930 . S
C1356 N1353 1.314 . S
C1356 C1354 1.353 . S
C1356 H1398 0.930 1_554 S
C1357 N1353 1.279 . S
C1357 C1355 1.358 . S
C1357 H1399 0.930 . S
C1358 C1359 1.348 1_554 S
C1358 C1360 1.356 1_554 S
C1358 O1383 1.325 . S
C1359 C1358 1.348 1_556 S
C1359 C1361 1.353 . S
C1359 H1400 0.929 . S
C1360 C1358 1.356 1_556 S
C1360 C1362 1.358 . S
C1360 H1401 0.930 1_556 S
C1361 C1359 1.353 . S
C1361 N1363 1.314 . S
C1361 H1402 0.930 . S
C1362 C1360 1.358 . S
C1362 N1363 1.279 . S
C1362 H1403 0.930 . S
N1363 C1361 1.314 . S
N1363 C1362 1.279 . S
C1364 C1366 1.353 . S
C1364 N1367 1.314 . S
C1364 H1370 0.930 . S
C1365 N1367 1.279 . S
C1365 C1368 1.358 . S
C1365 H1371 0.930 . S
C1366 C1364 1.353 . S
C1366 C1369 1.348 . S
C1366 H1404 0.929 . S
N1367 Li1322 1.990 . S
N1367 C1364 1.314 . S
N1367 C1365 1.279 . S
C1368 C1365 1.358 . S
C1368 C1369 1.356 . S
C1368 H1405 0.930 . S
C1369 C1366 1.348 . S
C1369 C1368 1.356 . S
H1370 C1364 0.930 . S
H1371 C1365 0.930 . S
C1372 N1373 1.314 1_554 S
C1372 C1374 1.353 1_554 S
C1372 H1378 0.930 . S
N1373 Li1323 1.990 1_556 S
N1373 C1372 1.314 1_556 S
N1373 C1376 1.279 . S
C1374 C1372 1.353 1_556 S
C1374 C1377 1.348 . S
C1374 H1406 0.929 . S
C1375 C1376 1.358 . S
C1375 C1377 1.356 . S
C1375 H1407 0.930 . S
C1376 N1373 1.279 . S
C1376 C1375 1.358 . S
C1376 H1379 0.930 . S
C1377 C1374 1.348 . S
C1377 C1375 1.356 . S
H1378 C1372 0.930 . S
H1379 C1376 0.930 . S
O1380 Li1320 1.956 . S
O1380 Li1321 1.970 . S
O1380 Li1322 1.961 . S
O1380 C1324 1.325 . S
O1381 Li1320 1.970 . S
O1381 Li1321 1.956 . S
O1381 Li1323 1.961 . S
O1381 C1330 1.325 . S
O1382 Li1320 1.961 . S
O1382 Li1322 1.956 . S
O1382 Li1323 1.970 . S
O1382 C1352 1.325 . S
O1383 Li1321 1.961 . S
O1383 Li1322 1.970 . S
O1383 Li1323 1.956 . S
O1383 C1358 1.325 . S
H1384 C1326 0.929 . S
H1385 C1327 0.930 . S
H1386 C1328 0.930 . S
H1387 C1329 0.930 . S
H1388 C1331 0.930 . S
H1389 C1333 0.929 . S
H1390 C1334 0.930 . S
H1391 C1335 0.930 . S
H1392 C1338 0.930 . S
H1393 C1341 0.929 . S
H1394 C1346 0.929 . S
H1395 C1347 0.930 . S
H1396 C1354 0.929 . S
H1397 C1355 0.930 . S
H1398 C1356 0.930 1_556 S
H1399 C1357 0.930 . S
H1400 C1359 0.929 . S
H1401 C1360 0.930 1_554 S
H1402 C1361 0.930 . S
H1403 C1362 0.930 . S
H1404 C1366 0.929 . S
H1405 C1368 0.930 . S
H1406 C1374 0.929 . S
H1407 C1375 0.930 . S
Li1408 N1425 1.990 . S
Li1408 O1468 1.956 . S
Li1408 O1469 1.970 . S
Li1408 O1470 1.961 . S
Li1409 N1433 1.990 1_556 S
Li1409 O1468 1.970 . S
Li1409 O1469 1.956 . S
Li1409 O1471 1.961 . S
Li1410 N1455 1.990 . S
Li1410 O1468 1.961 . S
Li1410 O1470 1.956 . S
Li1410 O1471 1.970 . S
Li1411 N1461 1.990 . S
Li1411 O1469 1.961 . S
Li1411 O1470 1.970 . S
Li1411 O1471 1.956 . S
C1412 C1414 1.348 . S
C1412 C1415 1.356 . S
C1412 O1468 1.325 . S
N1413 C1416 1.314 . S
N1413 C1417 1.279 . S
C1414 C1412 1.348 . S
C1414 C1416 1.353 . S
C1414 H1472 0.929 . S
C1415 C1412 1.356 . S
C1415 C1417 1.358 . S
C1415 H1473 0.930 . S
C1416 N1413 1.314 . S
C1416 C1414 1.353 . S
C1416 H1474 0.930 . S
C1417 N1413 1.279 . S
C1417 C1415 1.358 . S
C1417 H1475 0.930 . S
C1418 C1421 1.348 . S
C1418 C1422 1.356 . S
C1418 O1469 1.325 . S
C1419 N1420 1.279 . S
C1419 C1422 1.358 . S
C1419 H1476 0.930 . S
N1420 C1419 1.279 . S
N1420 C1423 1.314 . S
C1421 C1418 1.348 . S
C1421 C1423 1.353 . S
C1421 H1477 0.929 . S
C1422 C1418 1.356 . S
C1422 C1419 1.358 . S
C1422 H1478 0.930 . S
C1423 N1420 1.314 . S
C1423 C1421 1.353 . S
C1423 H1479 0.930 . S
C1424 N1425 1.314 . S
C1424 C1429 1.353 . S
C1424 H1430 0.930 . S
N1425 Li1408 1.990 . S
N1425 C1424 1.314 . S
N1425 C1427 1.279 . S
C1426 C1427 1.358 . S
C1426 C1428 1.356 . S
C1426 H1480 0.930 . S
C1427 N1425 1.279 . S
C1427 C1426 1.358 . S
C1427 H1431 0.930 . S
C1428 C1426 1.356 . S
C1428 C1429 1.348 . S
C1429 C1424 1.353 . S
C1429 C1428 1.348 . S
C1429 H1481 0.929 . S
H1430 C1424 0.930 . S
H1431 C1427 0.930 . S
C1432 N1433 1.314 . S
C1432 C1434 1.353 . S
C1432 H1438 0.930 . S
N1433 Li1409 1.990 1_554 S
N1433 C1432 1.314 . S
N1433 C1436 1.279 . S
C1434 C1432 1.353 . S
C1434 C1437 1.348 . S
C1434 H1482 0.929 . S
C1435 C1436 1.358 . S
C1435 C1437 1.356 . S
C1435 H1483 0.930 . S
C1436 N1433 1.279 . S
C1436 C1435 1.358 . S
C1436 H1439 0.930 1_554 S
C1437 C1434 1.348 . S
C1437 C1435 1.356 . S
H1438 C1432 0.930 . S
H1439 C1436 0.930 1_556 S
C1440 C1442 1.348 . S
C1440 C1443 1.356 . S
C1440 O1470 1.325 . S
N1441 C1444 1.314 . S
N1441 C1445 1.279 . S
C1442 C1440 1.348 . S
C1442 C1444 1.353 . S
C1442 H1484 0.929 . S
C1443 C1440 1.356 . S
C1443 C1445 1.358 . S
C1443 H1485 0.930 . S
C1444 N1441 1.314 . S
C1444 C1442 1.353 . S
C1444 H1486 0.930 . S
C1445 N1441 1.279 . S
C1445 C1443 1.358 . S
C1445 H1487 0.930 . S
C1446 C1447 1.348 . S
C1446 C1448 1.356 1_556 S
C1446 O1471 1.325 . S
C1447 C1446 1.348 . S
C1447 C1449 1.353 1_556 S
C1447 H1488 0.929 . S
C1448 C1446 1.356 1_554 S
C1448 C1450 1.358 . S
C1448 H1489 0.930 . S
C1449 C1447 1.353 1_554 S
C1449 N1451 1.314 . S
C1449 H1490 0.930 . S
C1450 C1448 1.358 . S
C1450 N1451 1.279 . S
C1450 H1491 0.930 . S
N1451 C1449 1.314 . S
N1451 C1450 1.279 . S
C1452 C1454 1.353 . S
C1452 N1455 1.314 . S
C1452 H1458 0.930 . S
C1453 N1455 1.279 . S
C1453 C1456 1.358 . S
C1453 H1459 0.930 . S
C1454 C1452 1.353 . S
C1454 C1457 1.348 . S
C1454 H1492 0.929 . S
N1455 Li1410 1.990 . S
N1455 C1452 1.314 . S
N1455 C1453 1.279 . S
C1456 C1453 1.358 . S
C1456 C1457 1.356 . S
C1456 H1493 0.930 . S
C1457 C1454 1.348 . S
C1457 C1456 1.356 . S
H1458 C1452 0.930 . S
H1459 C1453 0.930 . S
C1460 N1461 1.314 . S
C1460 C1462 1.353 . S
C1460 H1466 0.930 . S
N1461 Li1411 1.990 . S
N1461 C1460 1.314 . S
N1461 C1464 1.279 . S
C1462 C1460 1.353 . S
C1462 C1465 1.348 . S
C1462 H1494 0.929 . S
C1463 C1464 1.358 . S
C1463 C1465 1.356 . S
C1463 H1495 0.930 . S
C1464 N1461 1.279 . S
C1464 C1463 1.358 . S
C1464 H1467 0.930 . S
C1465 C1462 1.348 . S
C1465 C1463 1.356 . S
H1466 C1460 0.930 . S
H1467 C1464 0.930 . S
O1468 Li1408 1.956 . S
O1468 Li1409 1.970 . S
O1468 Li1410 1.961 . S
O1468 C1412 1.325 . S
O1469 Li1408 1.970 . S
O1469 Li1409 1.956 . S
O1469 Li1411 1.961 . S
O1469 C1418 1.325 . S
O1470 Li1408 1.961 . S
O1470 Li1410 1.956 . S
O1470 Li1411 1.970 . S
O1470 C1440 1.325 . S
O1471 Li1409 1.961 . S
O1471 Li1410 1.970 . S
O1471 Li1411 1.956 . S
O1471 C1446 1.325 . S
H1472 C1414 0.929 . S
H1473 C1415 0.930 . S
H1474 C1416 0.930 . S
H1475 C1417 0.930 . S
H1476 C1419 0.930 . S
H1477 C1421 0.929 . S
H1478 C1422 0.930 . S
H1479 C1423 0.930 . S
H1480 C1426 0.930 . S
H1481 C1429 0.929 . S
H1482 C1434 0.929 . S
H1483 C1435 0.930 . S
H1484 C1442 0.929 . S
H1485 C1443 0.930 . S
H1486 C1444 0.930 . S
H1487 C1445 0.930 . S
H1488 C1447 0.929 . S
H1489 C1448 0.930 . S
H1490 C1449 0.930 . S
H1491 C1450 0.930 . S
H1492 C1454 0.929 . S
H1493 C1456 0.930 . S
H1494 C1462 0.929 . S
H1495 C1463 0.930 . S
Li1496 N1513 1.990 . S
Li1496 O1556 1.956 . S
Li1496 O1557 1.970 . S
Li1496 O1558 1.961 . S
Li1497 N1521 1.990 . S
Li1497 O1556 1.970 . S
Li1497 O1557 1.956 . S
Li1497 O1559 1.961 . S
Li1498 N1543 1.990 . S
Li1498 O1556 1.961 . S
Li1498 O1558 1.956 . S
Li1498 O1559 1.970 . S
Li1499 N1549 1.978 1_554 S
Li1499 O1557 1.961 . S
Li1499 O1558 1.970 . S
Li1499 O1559 1.956 . S
C1500 C1502 1.348 . S
C1500 C1503 1.356 . S
C1500 O1556 1.325 . S
N1501 C1504 1.314 . S
N1501 C1505 1.279 . S
C1502 C1500 1.348 . S
C1502 C1504 1.353 . S
C1502 H1560 0.929 . S
C1503 C1500 1.356 . S
C1503 C1505 1.358 . S
C1503 H1561 0.930 . S
C1504 N1501 1.314 . S
C1504 C1502 1.353 . S
C1504 H1562 0.930 . S
C1505 N1501 1.279 . S
C1505 C1503 1.358 . S
C1505 H1563 0.930 . S
C1506 C1509 1.348 1_554 S
C1506 C1510 1.356 1_554 S
C1506 O1557 1.325 . S
C1507 N1508 1.279 . S
C1507 C1510 1.358 . S
C1507 H1564 0.930 . S
N1508 C1507 1.279 . S
N1508 C1511 1.314 . S
C1509 C1506 1.348 1_556 S
C1509 C1511 1.353 . S
C1509 H1565 0.929 1_556 S
C1510 C1506 1.356 1_556 S
C1510 C1507 1.358 . S
C1510 H1566 0.930 . S
C1511 N1508 1.314 . S
C1511 C1509 1.353 . S
C1511 H1567 0.930 . S
C1512 N1513 1.314 . S
C1512 C1517 1.353 . S
C1512 H1518 0.930 . S
N1513 Li1496 1.990 . S
N1513 C1512 1.314 . S
N1513 C1515 1.279 . S
C1514 C1515 1.358 . S
C1514 C1516 1.356 . S
C1514 H1568 0.930 . S
C1515 N1513 1.279 . S
C1515 C1514 1.358 . S
C1515 H1519 0.930 . S
C1516 C1514 1.356 . S
C1516 C1517 1.348 . S
C1517 C1512 1.353 . S
C1517 C1516 1.348 . S
C1517 H1569 0.929 1_554 S
H1518 C1512 0.930 . S
H1519 C1515 0.930 . S
C1520 N1521 1.314 . S
C1520 C1522 1.353 . S
C1520 H1526 0.930 . S
N1521 Li1497 1.990 . S
N1521 C1520 1.314 . S
N1521 C1524 1.279 . S
C1522 C1520 1.353 . S
C1522 C1525 1.348 . S
C1522 H1570 0.929 . S
C1523 C1524 1.358 . S
C1523 C1525 1.356 . S
C1523 H1571 0.930 . S
C1524 N1521 1.279 . S
C1524 C1523 1.358 . S
C1524 H1527 0.930 . S
C1525 C1522 1.348 . S
C1525 C1523 1.356 . S
H1526 C1520 0.930 . S
H1527 C1524 0.930 . S
C1528 C1530 1.348 . S
C1528 C1531 1.356 . S
C1528 O1558 1.325 . S
N1529 C1532 1.314 . S
N1529 C1533 1.279 . S
C1530 C1528 1.348 . S
C1530 C1532 1.353 . S
C1530 H1572 0.929 . S
C1531 C1528 1.356 . S
C1531 C1533 1.358 . S
C1531 H1573 0.930 . S
C1532 N1529 1.314 . S
C1532 C1530 1.353 . S
C1532 H1574 0.930 . S
C1533 N1529 1.279 . S
C1533 C1531 1.358 . S
C1533 H1575 0.930 . S
C1534 C1535 1.348 . S
C1534 C1536 1.356 . S
C1534 O1559 1.325 . S
C1535 C1534 1.348 . S
C1535 C1537 1.353 . S
C1535 H1576 0.929 . S
C1536 C1534 1.356 . S
C1536 C1538 1.358 . S
C1536 H1577 0.930 . S
C1537 C1535 1.353 . S
C1537 N1539 1.314 . S
C1537 H1578 0.930 . S
C1538 C1536 1.358 . S
C1538 N1539 1.279 . S
C1538 H1579 0.930 . S
N1539 C1537 1.314 . S
N1539 C1538 1.279 . S
C1540 C1542 1.353 . S
C1540 N1543 1.314 . S
C1540 H1546 0.930 . S
C1541 N1543 1.279 . S
C1541 C1544 1.358 . S
C1541 H1547 0.930 . S
C1542 C1540 1.353 . S
C1542 C1545 1.348 . S
C1542 H1580 0.929 . S
N1543 Li1498 1.990 . S
N1543 C1540 1.314 . S
N1543 C1541 1.279 . S
C1544 C1541 1.358 . S
C1544 C1545 1.356 . S
C1544 H1581 0.930 . S
C1545 C1542 1.348 . S
C1545 C1544 1.356 . S
H1546 C1540 0.930 . S
H1547 C1541 0.930 . S
C1548 N1549 1.330 . S
C1548 C1550 1.353 . S
C1548 H1554 0.930 . S
N1549 Li1499 1.978 1_556 S
N1549 C1548 1.330 . S
N1549 C1552 1.278 1_556 S
C1550 C1548 1.353 . S
C1550 C1553 1.348 . S
C1550 H1582 0.929 . S
C1551 C1552 1.358 1_556 S
C1551 C1553 1.356 . S
C1551 H1583 0.930 . S
C1552 N1549 1.278 1_554 S
C1552 C1551 1.358 1_554 S
C1552 H1555 0.930 . S
C1553 C1550 1.348 . S
C1553 C1551 1.356 . S
H1554 C1548 0.930 . S
H1555 C1552 0.930 . S
O1556 Li1496 1.956 . S
O1556 Li1497 1.970 . S
O1556 Li1498 1.961 . S
O1556 C1500 1.325 . S
O1557 Li1496 1.970 . S
O1557 Li1497 1.956 . S
O1557 Li1499 1.961 . S
O1557 C1506 1.325 . S
O1558 Li1496 1.961 . S
O1558 Li1498 1.956 . S
O1558 Li1499 1.970 . S
O1558 C1528 1.325 . S
O1559 Li1497 1.961 . S
O1559 Li1498 1.970 . S
O1559 Li1499 1.956 . S
O1559 C1534 1.325 . S
H1560 C1502 0.929 . S
H1561 C1503 0.930 . S
H1562 C1504 0.930 . S
H1563 C1505 0.930 . S
H1564 C1507 0.930 . S
H1565 C1509 0.929 1_554 S
H1566 C1510 0.930 . S
H1567 C1511 0.930 . S
H1568 C1514 0.930 . S
H1569 C1517 0.929 1_556 S
H1570 C1522 0.929 . S
H1571 C1523 0.930 . S
H1572 C1530 0.929 . S
H1573 C1531 0.930 . S
H1574 C1532 0.930 . S
H1575 C1533 0.930 . S
H1576 C1535 0.929 . S
H1577 C1536 0.930 . S
H1578 C1537 0.930 . S
H1579 C1538 0.930 . S
H1580 C1542 0.929 . S
H1581 C1544 0.930 . S
H1582 C1550 0.929 . S
H1583 C1551 0.930 . S
Li1584 N1601 1.990 . S
Li1584 O1644 1.956 . S
Li1584 O1645 1.970 . S
Li1584 O1646 1.961 . S
Li1585 N1609 1.990 . S
Li1585 O1644 1.970 . S
Li1585 O1645 1.956 . S
Li1585 O1647 1.961 . S
Li1586 N1631 1.990 . S
Li1586 O1644 1.961 . S
Li1586 O1646 1.956 . S
Li1586 O1647 1.970 . S
Li1587 N1637 1.990 . S
Li1587 O1645 1.961 . S
Li1587 O1646 1.970 . S
Li1587 O1647 1.956 . S
C1588 C1590 1.348 . S
C1588 C1591 1.356 . S
C1588 O1644 1.325 . S
N1589 C1592 1.314 . S
N1589 C1593 1.279 . S
C1590 C1588 1.348 . S
C1590 C1592 1.353 . S
C1590 H1648 0.929 . S
C1591 C1588 1.356 . S
C1591 C1593 1.358 . S
C1591 H1649 0.930 . S
C1592 N1589 1.314 . S
C1592 C1590 1.353 . S
C1592 H1650 0.930 . S
C1593 N1589 1.279 . S
C1593 C1591 1.358 . S
C1593 H1651 0.930 . S
C1594 C1597 1.348 . S
C1594 C1598 1.356 . S
C1594 O1645 1.325 . S
C1595 N1596 1.279 . S
C1595 C1598 1.358 . S
C1595 H1652 0.930 . S
N1596 C1595 1.279 . S
N1596 C1599 1.314 . S
C1597 C1594 1.348 . S
C1597 C1599 1.353 . S
C1597 H1653 0.929 . S
C1598 C1594 1.356 . S
C1598 C1595 1.358 . S
C1598 H1654 0.930 . S
C1599 N1596 1.314 . S
C1599 C1597 1.353 . S
C1599 H1655 0.930 . S
C1600 N1601 1.314 . S
C1600 C1605 1.353 . S
C1600 H1606 0.930 . S
N1601 Li1584 1.990 . S
N1601 C1600 1.314 . S
N1601 C1603 1.279 . S
C1602 C1603 1.358 . S
C1602 C1604 1.356 . S
C1602 H1656 0.930 . S
C1603 N1601 1.279 . S
C1603 C1602 1.358 . S
C1603 H1607 0.930 . S
C1604 C1602 1.356 . S
C1604 C1605 1.348 . S
C1605 C1600 1.353 . S
C1605 C1604 1.348 . S
C1605 H1657 0.929 . S
H1606 C1600 0.930 . S
H1607 C1603 0.930 . S
C1608 N1609 1.314 . S
C1608 C1610 1.353 . S
C1608 H1614 0.930 . S
N1609 Li1585 1.990 . S
N1609 C1608 1.314 . S
N1609 C1612 1.279 . S
C1610 C1608 1.353 . S
C1610 C1613 1.348 . S
C1610 H1658 0.929 . S
C1611 C1612 1.358 . S
C1611 C1613 1.356 . S
C1611 H1659 0.930 . S
C1612 N1609 1.279 . S
C1612 C1611 1.358 . S
C1612 H1615 0.930 . S
C1613 C1610 1.348 . S
C1613 C1611 1.356 . S
H1614 C1608 0.930 . S
H1615 C1612 0.930 . S
C1616 C1618 1.348 . S
C1616 C1619 1.356 . S
C1616 O1646 1.325 . S
N1617 C1620 1.314 . S
N1617 C1621 1.279 . S
C1618 C1616 1.348 . S
C1618 C1620 1.353 . S
C1618 H1660 0.929 . S
C1619 C1616 1.356 . S
C1619 C1621 1.358 . S
C1619 H1661 0.930 . S
C1620 N1617 1.314 . S
C1620 C1618 1.353 . S
C1620 H1662 0.930 . S
C1621 N1617 1.279 . S
C1621 C1619 1.358 . S
C1621 H1663 0.930 . S
C1622 C1623 1.348 . S
C1622 C1624 1.356 . S
C1622 O1647 1.325 . S
C1623 C1622 1.348 . S
C1623 C1625 1.353 . S
C1623 H1664 0.929 . S
C1624 C1622 1.356 . S
C1624 C1626 1.358 . S
C1624 H1665 0.930 . S
C1625 C1623 1.353 . S
C1625 N1627 1.314 . S
C1625 H1666 0.930 . S
C1626 C1624 1.358 . S
C1626 N1627 1.279 . S
C1626 H1667 0.930 . S
N1627 C1625 1.314 . S
N1627 C1626 1.279 . S
C1628 C1630 1.353 . S
C1628 N1631 1.314 . S
C1628 H1634 0.930 . S
C1629 N1631 1.279 . S
C1629 C1632 1.358 . S
C1629 H1635 0.930 . S
C1630 C1628 1.353 . S
C1630 C1633 1.348 . S
C1630 H1668 0.929 . S
N1631 Li1586 1.990 . S
N1631 C1628 1.314 . S
N1631 C1629 1.279 . S
C1632 C1629 1.358 . S
C1632 C1633 1.356 . S
C1632 H1669 0.930 . S
C1633 C1630 1.348 . S
C1633 C1632 1.356 . S
H1634 C1628 0.930 . S
H1635 C1629 0.930 . S
C1636 N1637 1.314 . S
C1636 C1638 1.353 . S
C1636 H1642 0.930 . S
N1637 Li1587 1.990 . S
N1637 C1636 1.314 . S
N1637 C1640 1.279 . S
C1638 C1636 1.353 . S
C1638 C1641 1.348 . S
C1638 H1670 0.929 . S
C1639 C1640 1.358 . S
C1639 C1641 1.356 . S
C1639 H1671 0.930 . S
C1640 N1637 1.279 . S
C1640 C1639 1.358 . S
C1640 H1643 0.930 . S
C1641 C1638 1.348 . S
C1641 C1639 1.356 . S
H1642 C1636 0.930 . S
H1643 C1640 0.930 . S
O1644 Li1584 1.956 . S
O1644 Li1585 1.970 . S
O1644 Li1586 1.961 . S
O1644 C1588 1.325 . S
O1645 Li1584 1.970 . S
O1645 Li1585 1.956 . S
O1645 Li1587 1.961 . S
O1645 C1594 1.325 . S
O1646 Li1584 1.961 . S
O1646 Li1586 1.956 . S
O1646 Li1587 1.970 . S
O1646 C1616 1.325 . S
O1647 Li1585 1.961 . S
O1647 Li1586 1.970 . S
O1647 Li1587 1.956 . S
O1647 C1622 1.325 . S
H1648 C1590 0.929 . S
H1649 C1591 0.930 . S
H1650 C1592 0.930 . S
H1651 C1593 0.930 . S
H1652 C1595 0.930 . S
H1653 C1597 0.929 . S
H1654 C1598 0.930 . S
H1655 C1599 0.930 . S
H1656 C1602 0.930 . S
H1657 C1605 0.929 . S
H1658 C1610 0.929 . S
H1659 C1611 0.930 . S
H1660 C1618 0.929 . S
H1661 C1619 0.930 . S
H1662 C1620 0.930 . S
H1663 C1621 0.930 . S
H1664 C1623 0.929 . S
H1665 C1624 0.930 . S
H1666 C1625 0.930 . S
H1667 C1626 0.930 . S
H1668 C1630 0.929 . S
H1669 C1632 0.930 . S
H1670 C1638 0.929 . S
H1671 C1639 0.930 . S
Li1672 N1689 1.990 . S
Li1672 O1732 1.956 . S
Li1672 O1733 1.970 . S
Li1672 O1734 1.961 . S
Li1673 N1697 1.990 . S
Li1673 O1732 1.970 . S
Li1673 O1733 1.956 . S
Li1673 O1735 1.961 . S
Li1674 N1719 1.990 . S
Li1674 O1732 1.961 . S
Li1674 O1734 1.956 . S
Li1674 O1735 1.970 . S
Li1675 N1725 1.990 . S
Li1675 O1733 1.961 . S
Li1675 O1734 1.970 . S
Li1675 O1735 1.956 . S
C1676 C1678 1.348 . S
C1676 C1679 1.356 . S
C1676 O1732 1.325 . S
N1677 C1680 1.314 . S
N1677 C1681 1.279 . S
C1678 C1676 1.348 . S
C1678 C1680 1.353 . S
C1678 H1736 0.929 . S
C1679 C1676 1.356 . S
C1679 C1681 1.358 . S
C1679 H1737 0.930 . S
C1680 N1677 1.314 . S
C1680 C1678 1.353 . S
C1680 H1738 0.930 . S
C1681 N1677 1.279 . S
C1681 C1679 1.358 . S
C1681 H1739 0.930 . S
C1682 C1685 1.348 . S
C1682 C1686 1.356 . S
C1682 O1733 1.325 . S
C1683 N1684 1.279 . S
C1683 C1686 1.358 . S
C1683 H1740 0.930 . S
N1684 C1683 1.279 . S
N1684 C1687 1.314 . S
C1685 C1682 1.348 . S
C1685 C1687 1.353 . S
C1685 H1741 0.929 . S
C1686 C1682 1.356 . S
C1686 C1683 1.358 . S
C1686 H1742 0.930 . S
C1687 N1684 1.314 . S
C1687 C1685 1.353 . S
C1687 H1743 0.930 . S
C1688 N1689 1.314 . S
C1688 C1693 1.353 . S
C1688 H1694 0.930 . S
N1689 Li1672 1.990 . S
N1689 C1688 1.314 . S
N1689 C1691 1.279 . S
C1690 C1691 1.358 . S
C1690 C1692 1.356 . S
C1690 H1744 0.930 . S
C1691 N1689 1.279 . S
C1691 C1690 1.358 . S
C1691 H1695 0.930 . S
C1692 C1690 1.356 . S
C1692 C1693 1.348 . S
C1693 C1688 1.353 . S
C1693 C1692 1.348 . S
C1693 H1745 0.929 . S
H1694 C1688 0.930 . S
H1695 C1691 0.930 . S
C1696 N1697 1.314 . S
C1696 C1698 1.353 . S
C1696 H1702 0.930 . S
N1697 Li1673 1.990 . S
N1697 C1696 1.314 . S
N1697 C1700 1.279 . S
C1698 C1696 1.353 . S
C1698 C1701 1.348 . S
C1698 H1746 0.929 . S
C1699 C1700 1.358 . S
C1699 C1701 1.356 . S
C1699 H1747 0.930 . S
C1700 N1697 1.279 . S
C1700 C1699 1.358 . S
C1700 H1703 0.930 . S
C1701 C1698 1.348 . S
C1701 C1699 1.356 . S
H1702 C1696 0.930 . S
H1703 C1700 0.930 . S
C1704 C1706 1.348 . S
C1704 C1707 1.356 . S
C1704 O1734 1.325 . S
N1705 C1708 1.314 . S
N1705 C1709 1.279 . S
C1706 C1704 1.348 . S
C1706 C1708 1.353 . S
C1706 H1748 0.929 . S
C1707 C1704 1.356 . S
C1707 C1709 1.358 . S
C1707 H1749 0.930 . S
C1708 N1705 1.314 . S
C1708 C1706 1.353 . S
C1708 H1750 0.930 . S
C1709 N1705 1.279 . S
C1709 C1707 1.358 . S
C1709 H1751 0.930 . S
C1710 C1711 1.348 . S
C1710 C1712 1.356 . S
C1710 O1735 1.325 . S
C1711 C1710 1.348 . S
C1711 C1713 1.353 . S
C1711 H1752 0.929 . S
C1712 C1710 1.356 . S
C1712 C1714 1.358 . S
C1712 H1753 0.930 . S
C1713 C1711 1.353 . S
C1713 N1715 1.314 . S
C1713 H1754 0.930 . S
C1714 C1712 1.358 . S
C1714 N1715 1.279 . S
C1714 H1755 0.930 . S
N1715 C1713 1.314 . S
N1715 C1714 1.279 . S
C1716 C1718 1.353 . S
C1716 N1719 1.314 . S
C1716 H1722 0.930 . S
C1717 N1719 1.279 . S
C1717 C1720 1.358 . S
C1717 H1723 0.930 . S
C1718 C1716 1.353 . S
C1718 C1721 1.348 . S
C1718 H1756 0.929 . S
N1719 Li1674 1.990 . S
N1719 C1716 1.314 . S
N1719 C1717 1.279 . S
C1720 C1717 1.358 . S
C1720 C1721 1.356 . S
C1720 H1757 0.930 . S
C1721 C1718 1.348 . S
C1721 C1720 1.356 . S
H1722 C1716 0.930 . S
H1723 C1717 0.930 . S
C1724 N1725 1.314 . S
C1724 C1726 1.353 . S
C1724 H1730 0.930 . S
N1725 Li1675 1.990 . S
N1725 C1724 1.314 . S
N1725 C1728 1.279 . S
C1726 C1724 1.353 . S
C1726 C1729 1.348 . S
C1726 H1758 0.929 . S
C1727 C1728 1.358 . S
C1727 C1729 1.356 . S
C1727 H1759 0.930 . S
C1728 N1725 1.279 . S
C1728 C1727 1.358 . S
C1728 H1731 0.930 . S
C1729 C1726 1.348 . S
C1729 C1727 1.356 . S
H1730 C1724 0.930 . S
H1731 C1728 0.930 . S
O1732 Li1672 1.956 . S
O1732 Li1673 1.970 . S
O1732 Li1674 1.961 . S
O1732 C1676 1.325 . S
O1733 Li1672 1.970 . S
O1733 Li1673 1.956 . S
O1733 Li1675 1.961 . S
O1733 C1682 1.325 . S
O1734 Li1672 1.961 . S
O1734 Li1674 1.956 . S
O1734 Li1675 1.970 . S
O1734 C1704 1.325 . S
O1735 Li1673 1.961 . S
O1735 Li1674 1.970 . S
O1735 Li1675 1.956 . S
O1735 C1710 1.325 . S
H1736 C1678 0.929 . S
H1737 C1679 0.930 . S
H1738 C1680 0.930 . S
H1739 C1681 0.930 . S
H1740 C1683 0.930 . S
H1741 C1685 0.929 . S
H1742 C1686 0.930 . S
H1743 C1687 0.930 . S
H1744 C1690 0.930 . S
H1745 C1693 0.929 . S
H1746 C1698 0.929 . S
H1747 C1699 0.930 . S
H1748 C1706 0.929 . S
H1749 C1707 0.930 . S
H1750 C1708 0.930 . S
H1751 C1709 0.930 . S
H1752 C1711 0.929 . S
H1753 C1712 0.930 . S
H1754 C1713 0.930 . S
H1755 C1714 0.930 . S
H1756 C1718 0.929 . S
H1757 C1720 0.930 . S
H1758 C1726 0.929 . S
H1759 C1727 0.930 . S
Li1760 N1777 1.990 . S
Li1760 O1820 1.956 . S
Li1760 O1821 1.970 . S
Li1760 O1822 1.961 . S
Li1761 N1785 1.990 . S
Li1761 O1820 1.970 . S
Li1761 O1821 1.956 . S
Li1761 O1823 1.961 . S
Li1762 N1807 1.990 . S
Li1762 O1820 1.961 . S
Li1762 O1822 1.956 . S
Li1762 O1823 1.970 . S
Li1763 N1813 1.990 . S
Li1763 O1821 1.961 . S
Li1763 O1822 1.970 . S
Li1763 O1823 1.956 . S
C1764 C1766 1.348 . S
C1764 C1767 1.356 . S
C1764 O1820 1.325 . S
N1765 C1768 1.314 . S
N1765 C1769 1.279 . S
C1766 C1764 1.348 . S
C1766 C1768 1.353 . S
C1766 H1824 0.929 . S
C1767 C1764 1.356 . S
C1767 C1769 1.358 . S
C1767 H1825 0.930 . S
C1768 N1765 1.314 . S
C1768 C1766 1.353 . S
C1768 H1826 0.930 . S
C1769 N1765 1.279 . S
C1769 C1767 1.358 . S
C1769 H1827 0.930 . S
C1770 C1773 1.348 . S
C1770 C1774 1.356 . S
C1770 O1821 1.325 . S
C1771 N1772 1.279 . S
C1771 C1774 1.358 . S
C1771 H1828 0.930 . S
N1772 C1771 1.279 . S
N1772 C1775 1.314 . S
C1773 C1770 1.348 . S
C1773 C1775 1.353 . S
C1773 H1829 0.929 . S
C1774 C1770 1.356 . S
C1774 C1771 1.358 . S
C1774 H1830 0.930 . S
C1775 N1772 1.314 . S
C1775 C1773 1.353 . S
C1775 H1831 0.930 . S
C1776 N1777 1.314 . S
C1776 C1781 1.353 . S
C1776 H1782 0.930 . S
N1777 Li1760 1.990 . S
N1777 C1776 1.314 . S
N1777 C1779 1.279 . S
C1778 C1779 1.358 . S
C1778 C1780 1.356 . S
C1778 H1832 0.930 . S
C1779 N1777 1.279 . S
C1779 C1778 1.358 . S
C1779 H1783 0.930 . S
C1780 C1778 1.356 . S
C1780 C1781 1.348 . S
C1781 C1776 1.353 . S
C1781 C1780 1.348 . S
C1781 H1833 0.929 . S
H1782 C1776 0.930 . S
H1783 C1779 0.930 . S
C1784 N1785 1.314 . S
C1784 C1786 1.353 . S
C1784 H1790 0.930 . S
N1785 Li1761 1.990 . S
N1785 C1784 1.314 . S
N1785 C1788 1.279 . S
C1786 C1784 1.353 . S
C1786 C1789 1.348 . S
C1786 H1834 0.929 . S
C1787 C1788 1.358 . S
C1787 C1789 1.356 . S
C1787 H1835 0.930 . S
C1788 N1785 1.279 . S
C1788 C1787 1.358 . S
C1788 H1791 0.930 . S
C1789 C1786 1.348 . S
C1789 C1787 1.356 . S
H1790 C1784 0.930 . S
H1791 C1788 0.930 . S
C1792 C1794 1.348 . S
C1792 C1795 1.356 . S
C1792 O1822 1.325 . S
N1793 C1796 1.314 . S
N1793 C1797 1.279 . S
C1794 C1792 1.348 . S
C1794 C1796 1.353 . S
C1794 H1836 0.929 . S
C1795 C1792 1.356 . S
C1795 C1797 1.358 . S
C1795 H1837 0.930 . S
C1796 N1793 1.314 . S
C1796 C1794 1.353 . S
C1796 H1838 0.930 . S
C1797 N1793 1.279 . S
C1797 C1795 1.358 . S
C1797 H1839 0.930 . S
C1798 C1799 1.348 . S
C1798 C1800 1.356 . S
C1798 O1823 1.325 . S
C1799 C1798 1.348 . S
C1799 C1801 1.353 . S
C1799 H1840 0.929 . S
C1800 C1798 1.356 . S
C1800 C1802 1.358 . S
C1800 H1841 0.930 . S
C1801 C1799 1.353 . S
C1801 N1803 1.314 . S
C1801 H1842 0.930 . S
C1802 C1800 1.358 . S
C1802 N1803 1.279 . S
C1802 H1843 0.930 . S
N1803 C1801 1.314 . S
N1803 C1802 1.279 . S
C1804 C1806 1.353 . S
C1804 N1807 1.314 . S
C1804 H1810 0.930 . S
C1805 N1807 1.279 . S
C1805 C1808 1.358 . S
C1805 H1811 0.930 . S
C1806 C1804 1.353 . S
C1806 C1809 1.348 . S
C1806 H1844 0.929 . S
N1807 Li1762 1.990 . S
N1807 C1804 1.314 . S
N1807 C1805 1.279 . S
C1808 C1805 1.358 . S
C1808 C1809 1.356 . S
C1808 H1845 0.930 . S
C1809 C1806 1.348 . S
C1809 C1808 1.356 . S
H1810 C1804 0.930 . S
H1811 C1805 0.930 . S
C1812 N1813 1.314 . S
C1812 C1814 1.353 . S
C1812 H1818 0.930 . S
N1813 Li1763 1.990 . S
N1813 C1812 1.314 . S
N1813 C1816 1.279 . S
C1814 C1812 1.353 . S
C1814 C1817 1.348 . S
C1814 H1846 0.929 . S
C1815 C1816 1.358 . S
C1815 C1817 1.356 . S
C1815 H1847 0.930 . S
C1816 N1813 1.279 . S
C1816 C1815 1.358 . S
C1816 H1819 0.930 . S
C1817 C1814 1.348 . S
C1817 C1815 1.356 . S
H1818 C1812 0.930 . S
H1819 C1816 0.930 . S
O1820 Li1760 1.956 . S
O1820 Li1761 1.970 . S
O1820 Li1762 1.961 . S
O1820 C1764 1.325 . S
O1821 Li1760 1.970 . S
O1821 Li1761 1.956 . S
O1821 Li1763 1.961 . S
O1821 C1770 1.325 . S
O1822 Li1760 1.961 . S
O1822 Li1762 1.956 . S
O1822 Li1763 1.970 . S
O1822 C1792 1.325 . S
O1823 Li1761 1.961 . S
O1823 Li1762 1.970 . S
O1823 Li1763 1.956 . S
O1823 C1798 1.325 . S
H1824 C1766 0.929 . S
H1825 C1767 0.930 . S
H1826 C1768 0.930 . S
H1827 C1769 0.930 . S
H1828 C1771 0.930 . S
H1829 C1773 0.929 . S
H1830 C1774 0.930 . S
H1831 C1775 0.930 . S
H1832 C1778 0.930 . S
H1833 C1781 0.929 . S
H1834 C1786 0.929 . S
H1835 C1787 0.930 . S
H1836 C1794 0.929 . S
H1837 C1795 0.930 . S
H1838 C1796 0.930 . S
H1839 C1797 0.930 . S
H1840 C1799 0.929 . S
H1841 C1800 0.930 . S
H1842 C1801 0.930 . S
H1843 C1802 0.930 . S
H1844 C1806 0.929 . S
H1845 C1808 0.930 . S
H1846 C1814 0.929 . S
H1847 C1815 0.930 . S
Li1848 N1865 1.990 . S
Li1848 O1908 1.956 . S
Li1848 O1909 1.970 . S
Li1848 O1910 1.961 . S
Li1849 N1873 1.990 . S
Li1849 O1908 1.970 . S
Li1849 O1909 1.956 . S
Li1849 O1911 1.961 . S
Li1850 N1895 1.978 1_556 S
Li1850 O1908 1.961 . S
Li1850 O1910 1.956 . S
Li1850 O1911 1.970 . S
Li1851 N1901 1.990 . S
Li1851 O1909 1.961 . S
Li1851 O1910 1.970 . S
Li1851 O1911 1.956 . S
C1852 C1854 1.348 1_556 S
C1852 C1855 1.356 1_556 S
C1852 O1908 1.325 . S
N1853 C1856 1.314 . S
N1853 C1857 1.279 . S
C1854 C1852 1.348 1_554 S
C1854 C1856 1.353 . S
C1854 H1912 0.929 1_554 S
C1855 C1852 1.356 1_554 S
C1855 C1857 1.358 . S
C1855 H1913 0.930 . S
C1856 N1853 1.314 . S
C1856 C1854 1.353 . S
C1856 H1914 0.930 . S
C1857 N1853 1.279 . S
C1857 C1855 1.358 . S
C1857 H1915 0.930 . S
C1858 C1861 1.348 . S
C1858 C1862 1.356 . S
C1858 O1909 1.325 . S
C1859 N1860 1.279 . S
C1859 C1862 1.358 . S
C1859 H1916 0.930 . S
N1860 C1859 1.279 . S
N1860 C1863 1.314 . S
C1861 C1858 1.348 . S
C1861 C1863 1.353 . S
C1861 H1917 0.929 . S
C1862 C1858 1.356 . S
C1862 C1859 1.358 . S
C1862 H1918 0.930 . S
C1863 N1860 1.314 . S
C1863 C1861 1.353 . S
C1863 H1919 0.930 . S
C1864 N1865 1.314 . S
C1864 C1869 1.353 . S
C1864 H1870 0.930 . S
N1865 Li1848 1.990 . S
N1865 C1864 1.314 . S
N1865 C1867 1.279 . S
C1866 C1867 1.358 . S
C1866 C1868 1.356 . S
C1866 H1920 0.930 . S
C1867 N1865 1.279 . S
C1867 C1866 1.358 . S
C1867 H1871 0.930 . S
C1868 C1866 1.356 . S
C1868 C1869 1.348 . S
C1869 C1864 1.353 . S
C1869 C1868 1.348 . S
C1869 H1921 0.929 . S
H1870 C1864 0.930 . S
H1871 C1867 0.930 . S
C1872 N1873 1.314 . S
C1872 C1874 1.353 . S
C1872 H1878 0.930 . S
N1873 Li1849 1.990 . S
N1873 C1872 1.314 . S
N1873 C1876 1.279 . S
C1874 C1872 1.353 . S
C1874 C1877 1.348 . S
C1874 H1922 0.929 1_556 S
C1875 C1876 1.358 . S
C1875 C1877 1.356 . S
C1875 H1923 0.930 . S
C1876 N1873 1.279 . S
C1876 C1875 1.358 . S
C1876 H1879 0.930 . S
C1877 C1874 1.348 . S
C1877 C1875 1.356 . S
H1878 C1872 0.930 . S
H1879 C1876 0.930 . S
C1880 C1882 1.348 . S
C1880 C1883 1.356 . S
C1880 O1910 1.325 . S
N1881 C1884 1.314 . S
N1881 C1885 1.279 . S
C1882 C1880 1.348 . S
C1882 C1884 1.353 . S
C1882 H1924 0.929 . S
C1883 C1880 1.356 . S
C1883 C1885 1.358 . S
C1883 H1925 0.930 . S
C1884 N1881 1.314 . S
C1884 C1882 1.353 . S
C1884 H1926 0.930 . S
C1885 N1881 1.279 . S
C1885 C1883 1.358 . S
C1885 H1927 0.930 . S
C1886 C1887 1.348 . S
C1886 C1888 1.356 . S
C1886 O1911 1.325 . S
C1887 C1886 1.348 . S
C1887 C1889 1.353 . S
C1887 H1928 0.929 . S
C1888 C1886 1.356 . S
C1888 C1890 1.358 . S
C1888 H1929 0.930 . S
C1889 C1887 1.353 . S
C1889 N1891 1.314 . S
C1889 H1930 0.930 . S
C1890 C1888 1.358 . S
C1890 N1891 1.279 . S
C1890 H1931 0.930 . S
N1891 C1889 1.314 . S
N1891 C1890 1.279 . S
C1892 C1894 1.353 . S
C1892 N1895 1.330 . S
C1892 H1898 0.930 . S
C1893 N1895 1.278 1_556 S
C1893 C1896 1.358 1_556 S
C1893 H1899 0.930 . S
C1894 C1892 1.353 . S
C1894 C1897 1.348 . S
C1894 H1932 0.929 . S
N1895 Li1850 1.978 1_554 S
N1895 C1892 1.330 . S
N1895 C1893 1.278 1_554 S
C1896 C1893 1.358 1_554 S
C1896 C1897 1.356 . S
C1896 H1933 0.930 . S
C1897 C1894 1.348 . S
C1897 C1896 1.356 . S
H1898 C1892 0.930 . S
H1899 C1893 0.930 . S
C1900 N1901 1.314 . S
C1900 C1902 1.353 . S
C1900 H1906 0.930 . S
N1901 Li1851 1.990 . S
N1901 C1900 1.314 . S
N1901 C1904 1.279 . S
C1902 C1900 1.353 . S
C1902 C1905 1.348 . S
C1902 H1934 0.929 . S
C1903 C1904 1.358 . S
C1903 C1905 1.356 . S
C1903 H1935 0.930 . S
C1904 N1901 1.279 . S
C1904 C1903 1.358 . S
C1904 H1907 0.930 . S
C1905 C1902 1.348 . S
C1905 C1903 1.356 . S
H1906 C1900 0.930 . S
H1907 C1904 0.930 . S
O1908 Li1848 1.956 . S
O1908 Li1849 1.970 . S
O1908 Li1850 1.961 . S
O1908 C1852 1.325 . S
O1909 Li1848 1.970 . S
O1909 Li1849 1.956 . S
O1909 Li1851 1.961 . S
O1909 C1858 1.325 . S
O1910 Li1848 1.961 . S
O1910 Li1850 1.956 . S
O1910 Li1851 1.970 . S
O1910 C1880 1.325 . S
O1911 Li1849 1.961 . S
O1911 Li1850 1.970 . S
O1911 Li1851 1.956 . S
O1911 C1886 1.325 . S
H1912 C1854 0.929 1_556 S
H1913 C1855 0.930 . S
H1914 C1856 0.930 . S
H1915 C1857 0.930 . S
H1916 C1859 0.930 . S
H1917 C1861 0.929 . S
H1918 C1862 0.930 . S
H1919 C1863 0.930 . S
H1920 C1866 0.930 . S
H1921 C1869 0.929 . S
H1922 C1874 0.929 1_554 S
H1923 C1875 0.930 . S
H1924 C1882 0.929 . S
H1925 C1883 0.930 . S
H1926 C1884 0.930 . S
H1927 C1885 0.930 . S
H1928 C1887 0.929 . S
H1929 C1888 0.930 . S
H1930 C1889 0.930 . S
H1931 C1890 0.930 . S
H1932 C1894 0.929 . S
H1933 C1896 0.930 . S
H1934 C1902 0.929 . S
H1935 C1903 0.930 . S
Li1936 N1953 1.990 . S
Li1936 O1996 1.956 . S
Li1936 O1997 1.970 . S
Li1936 O1998 1.961 . S
Li1937 N1961 1.990 1_554 S
Li1937 O1996 1.970 . S
Li1937 O1997 1.956 . S
Li1937 O1999 1.961 . S
Li1938 N1983 1.990 . S
Li1938 O1996 1.961 . S
Li1938 O1998 1.956 . S
Li1938 O1999 1.970 . S
Li1939 N1989 1.990 . S
Li1939 O1997 1.961 . S
Li1939 O1998 1.970 . S
Li1939 O1999 1.956 . S
C1940 C1942 1.348 . S
C1940 C1943 1.356 . S
C1940 O1996 1.325 . S
N1941 C1944 1.314 . S
N1941 C1945 1.279 . S
C1942 C1940 1.348 . S
C1942 C1944 1.353 . S
C1942 H2000 0.929 . S
C1943 C1940 1.356 . S
C1943 C1945 1.358 . S
C1943 H2001 0.930 . S
C1944 N1941 1.314 . S
C1944 C1942 1.353 . S
C1944 H2002 0.930 . S
C1945 N1941 1.279 . S
C1945 C1943 1.358 . S
C1945 H2003 0.930 . S
C1946 C1949 1.348 . S
C1946 C1950 1.356 . S
C1946 O1997 1.325 . S
C1947 N1948 1.279 . S
C1947 C1950 1.358 . S
C1947 H2004 0.930 . S
N1948 C1947 1.279 . S
N1948 C1951 1.314 . S
C1949 C1946 1.348 . S
C1949 C1951 1.353 . S
C1949 H2005 0.929 . S
C1950 C1946 1.356 . S
C1950 C1947 1.358 . S
C1950 H2006 0.930 . S
C1951 N1948 1.314 . S
C1951 C1949 1.353 . S
C1951 H2007 0.930 . S
C1952 N1953 1.314 . S
C1952 C1957 1.353 . S
C1952 H1958 0.930 . S
N1953 Li1936 1.990 . S
N1953 C1952 1.314 . S
N1953 C1955 1.279 . S
C1954 C1955 1.358 . S
C1954 C1956 1.356 . S
C1954 H2008 0.930 . S
C1955 N1953 1.279 . S
C1955 C1954 1.358 . S
C1955 H1959 0.930 . S
C1956 C1954 1.356 . S
C1956 C1957 1.348 . S
C1957 C1952 1.353 . S
C1957 C1956 1.348 . S
C1957 H2009 0.929 . S
H1958 C1952 0.930 . S
H1959 C1955 0.930 . S
C1960 N1961 1.314 . S
C1960 C1962 1.353 . S
C1960 H1966 0.930 . S
N1961 Li1937 1.990 1_556 S
N1961 C1960 1.314 . S
N1961 C1964 1.279 . S
C1962 C1960 1.353 . S
C1962 C1965 1.348 . S
C1962 H2010 0.929 . S
C1963 C1964 1.358 . S
C1963 C1965 1.356 . S
C1963 H2011 0.930 . S
C1964 N1961 1.279 . S
C1964 C1963 1.358 . S
C1964 H1967 0.930 1_556 S
C1965 C1962 1.348 . S
C1965 C1963 1.356 . S
H1966 C1960 0.930 . S
H1967 C1964 0.930 1_554 S
C1968 C1970 1.348 . S
C1968 C1971 1.356 . S
C1968 O1998 1.325 . S
N1969 C1972 1.314 . S
N1969 C1973 1.279 . S
C1970 C1968 1.348 . S
C1970 C1972 1.353 . S
C1970 H2012 0.929 . S
C1971 C1968 1.356 . S
C1971 C1973 1.358 . S
C1971 H2013 0.930 . S
C1972 N1969 1.314 . S
C1972 C1970 1.353 . S
C1972 H2014 0.930 . S
C1973 N1969 1.279 . S
C1973 C1971 1.358 . S
C1973 H2015 0.930 . S
C1974 C1975 1.348 . S
C1974 C1976 1.356 1_554 S
C1974 O1999 1.325 . S
C1975 C1974 1.348 . S
C1975 C1977 1.353 1_554 S
C1975 H2016 0.929 . S
C1976 C1974 1.356 1_556 S
C1976 C1978 1.358 . S
C1976 H2017 0.930 . S
C1977 C1975 1.353 1_556 S
C1977 N1979 1.314 . S
C1977 H2018 0.930 . S
C1978 C1976 1.358 . S
C1978 N1979 1.279 . S
C1978 H2019 0.930 . S
N1979 C1977 1.314 . S
N1979 C1978 1.279 . S
C1980 C1982 1.353 . S
C1980 N1983 1.314 . S
C1980 H1986 0.930 . S
C1981 N1983 1.279 . S
C1981 C1984 1.358 . S
C1981 H1987 0.930 . S
C1982 C1980 1.353 . S
C1982 C1985 1.348 . S
C1982 H2020 0.929 . S
N1983 Li1938 1.990 . S
N1983 C1980 1.314 . S
N1983 C1981 1.279 . S
C1984 C1981 1.358 . S
C1984 C1985 1.356 . S
C1984 H2021 0.930 . S
C1985 C1982 1.348 . S
C1985 C1984 1.356 . S
H1986 C1980 0.930 . S
H1987 C1981 0.930 . S
C1988 N1989 1.314 . S
C1988 C1990 1.353 . S
C1988 H1994 0.930 . S
N1989 Li1939 1.990 . S
N1989 C1988 1.314 . S
N1989 C1992 1.279 . S
C1990 C1988 1.353 . S
C1990 C1993 1.348 . S
C1990 H2022 0.929 . S
C1991 C1992 1.358 . S
C1991 C1993 1.356 . S
C1991 H2023 0.930 . S
C1992 N1989 1.279 . S
C1992 C1991 1.358 . S
C1992 H1995 0.930 . S
C1993 C1990 1.348 . S
C1993 C1991 1.356 . S
H1994 C1988 0.930 . S
H1995 C1992 0.930 . S
O1996 Li1936 1.956 . S
O1996 Li1937 1.970 . S
O1996 Li1938 1.961 . S
O1996 C1940 1.325 . S
O1997 Li1936 1.970 . S
O1997 Li1937 1.956 . S
O1997 Li1939 1.961 . S
O1997 C1946 1.325 . S
O1998 Li1936 1.961 . S
O1998 Li1938 1.956 . S
O1998 Li1939 1.970 . S
O1998 C1968 1.325 . S
O1999 Li1937 1.961 . S
O1999 Li1938 1.970 . S
O1999 Li1939 1.956 . S
O1999 C1974 1.325 . S
H2000 C1942 0.929 . S
H2001 C1943 0.930 . S
H2002 C1944 0.930 . S
H2003 C1945 0.930 . S
H2004 C1947 0.930 . S
H2005 C1949 0.929 . S
H2006 C1950 0.930 . S
H2007 C1951 0.930 . S
H2008 C1954 0.930 . S
H2009 C1957 0.929 . S
H2010 C1962 0.929 . S
H2011 C1963 0.930 . S
H2012 C1970 0.929 . S
H2013 C1971 0.930 . S
H2014 C1972 0.930 . S
H2015 C1973 0.930 . S
H2016 C1975 0.929 . S
H2017 C1976 0.930 . S
H2018 C1977 0.930 . S
H2019 C1978 0.930 . S
H2020 C1982 0.929 . S
H2021 C1984 0.930 . S
H2022 C1990 0.929 . S
H2023 C1991 0.930 . S
Li2024 N2041 1.990 . S
Li2024 O2084 1.956 . S
Li2024 O2085 1.970 . S
Li2024 O2086 1.961 . S
Li2025 N2049 1.990 . S
Li2025 O2084 1.970 . S
Li2025 O2085 1.956 . S
Li2025 O2087 1.961 . S
Li2026 N2071 1.990 . S
Li2026 O2084 1.961 . S
Li2026 O2086 1.956 . S
Li2026 O2087 1.970 . S
Li2027 N2077 1.990 . S
Li2027 O2085 1.961 . S
Li2027 O2086 1.970 . S
Li2027 O2087 1.956 . S
C2028 C2030 1.348 . S
C2028 C2031 1.356 . S
C2028 O2084 1.325 . S
N2029 C2032 1.314 . S
N2029 C2033 1.279 . S
C2030 C2028 1.348 . S
C2030 C2032 1.353 . S
C2030 H2088 0.929 . S
C2031 C2028 1.356 . S
C2031 C2033 1.358 . S
C2031 H2089 0.930 . S
C2032 N2029 1.314 . S
C2032 C2030 1.353 . S
C2032 H2090 0.930 . S
C2033 N2029 1.279 . S
C2033 C2031 1.358 . S
C2033 H2091 0.930 . S
C2034 C2037 1.348 . S
C2034 C2038 1.356 . S
C2034 O2085 1.325 . S
C2035 N2036 1.279 . S
C2035 C2038 1.358 . S
C2035 H2092 0.930 . S
N2036 C2035 1.279 . S
N2036 C2039 1.314 . S
C2037 C2034 1.348 . S
C2037 C2039 1.353 . S
C2037 H2093 0.929 . S
C2038 C2034 1.356 . S
C2038 C2035 1.358 . S
C2038 H2094 0.930 . S
C2039 N2036 1.314 . S
C2039 C2037 1.353 . S
C2039 H2095 0.930 . S
C2040 N2041 1.314 . S
C2040 C2045 1.353 . S
C2040 H2046 0.930 . S
N2041 Li2024 1.990 . S
N2041 C2040 1.314 . S
N2041 C2043 1.279 . S
C2042 C2043 1.358 . S
C2042 C2044 1.356 . S
C2042 H2096 0.930 . S
C2043 N2041 1.279 . S
C2043 C2042 1.358 . S
C2043 H2047 0.930 . S
C2044 C2042 1.356 . S
C2044 C2045 1.348 . S
C2045 C2040 1.353 . S
C2045 C2044 1.348 . S
C2045 H2097 0.929 . S
H2046 C2040 0.930 . S
H2047 C2043 0.930 . S
C2048 N2049 1.314 . S
C2048 C2050 1.353 . S
C2048 H2054 0.930 . S
N2049 Li2025 1.990 . S
N2049 C2048 1.314 . S
N2049 C2052 1.279 . S
C2050 C2048 1.353 . S
C2050 C2053 1.348 . S
C2050 H2098 0.929 . S
C2051 C2052 1.358 . S
C2051 C2053 1.356 . S
C2051 H2099 0.930 . S
C2052 N2049 1.279 . S
C2052 C2051 1.358 . S
C2052 H2055 0.930 . S
C2053 C2050 1.348 . S
C2053 C2051 1.356 . S
H2054 C2048 0.930 . S
H2055 C2052 0.930 . S
C2056 C2058 1.348 . S
C2056 C2059 1.356 . S
C2056 O2086 1.325 . S
N2057 C2060 1.314 . S
N2057 C2061 1.279 . S
C2058 C2056 1.348 . S
C2058 C2060 1.353 . S
C2058 H2100 0.929 . S
C2059 C2056 1.356 . S
C2059 C2061 1.358 . S
C2059 H2101 0.930 . S
C2060 N2057 1.314 . S
C2060 C2058 1.353 . S
C2060 H2102 0.930 . S
C2061 N2057 1.279 . S
C2061 C2059 1.358 . S
C2061 H2103 0.930 . S
C2062 C2063 1.348 . S
C2062 C2064 1.356 . S
C2062 O2087 1.325 . S
C2063 C2062 1.348 . S
C2063 C2065 1.353 . S
C2063 H2104 0.929 . S
C2064 C2062 1.356 . S
C2064 C2066 1.358 . S
C2064 H2105 0.930 . S
C2065 C2063 1.353 . S
C2065 N2067 1.314 . S
C2065 H2106 0.930 . S
C2066 C2064 1.358 . S
C2066 N2067 1.279 . S
C2066 H2107 0.930 . S
N2067 C2065 1.314 . S
N2067 C2066 1.279 . S
C2068 C2070 1.353 . S
C2068 N2071 1.314 . S
C2068 H2074 0.930 . S
C2069 N2071 1.279 . S
C2069 C2072 1.358 . S
C2069 H2075 0.930 . S
C2070 C2068 1.353 . S
C2070 C2073 1.348 . S
C2070 H2108 0.929 . S
N2071 Li2026 1.990 . S
N2071 C2068 1.314 . S
N2071 C2069 1.279 . S
C2072 C2069 1.358 . S
C2072 C2073 1.356 . S
C2072 H2109 0.930 . S
C2073 C2070 1.348 . S
C2073 C2072 1.356 . S
H2074 C2068 0.930 . S
H2075 C2069 0.930 . S
C2076 N2077 1.314 . S
C2076 C2078 1.353 . S
C2076 H2082 0.930 . S
N2077 Li2027 1.990 . S
N2077 C2076 1.314 . S
N2077 C2080 1.279 . S
C2078 C2076 1.353 . S
C2078 C2081 1.348 . S
C2078 H2110 0.929 . S
C2079 C2080 1.358 . S
C2079 C2081 1.356 . S
C2079 H2111 0.930 . S
C2080 N2077 1.279 . S
C2080 C2079 1.358 . S
C2080 H2083 0.930 . S
C2081 C2078 1.348 . S
C2081 C2079 1.356 . S
H2082 C2076 0.930 . S
H2083 C2080 0.930 . S
O2084 Li2024 1.956 . S
O2084 Li2025 1.970 . S
O2084 Li2026 1.961 . S
O2084 C2028 1.325 . S
O2085 Li2024 1.970 . S
O2085 Li2025 1.956 . S
O2085 Li2027 1.961 . S
O2085 C2034 1.325 . S
O2086 Li2024 1.961 . S
O2086 Li2026 1.956 . S
O2086 Li2027 1.970 . S
O2086 C2056 1.325 . S
O2087 Li2025 1.961 . S
O2087 Li2026 1.970 . S
O2087 Li2027 1.956 . S
O2087 C2062 1.325 . S
H2088 C2030 0.929 . S
H2089 C2031 0.930 . S
H2090 C2032 0.930 . S
H2091 C2033 0.930 . S
H2092 C2035 0.930 . S
H2093 C2037 0.929 . S
H2094 C2038 0.930 . S
H2095 C2039 0.930 . S
H2096 C2042 0.930 . S
H2097 C2045 0.929 . S
H2098 C2050 0.929 . S
H2099 C2051 0.930 . S
H2100 C2058 0.929 . S
H2101 C2059 0.930 . S
H2102 C2060 0.930 . S
H2103 C2061 0.930 . S
H2104 C2063 0.929 . S
H2105 C2064 0.930 . S
H2106 C2065 0.930 . S
H2107 C2066 0.930 . S
H2108 C2070 0.929 . S
H2109 C2072 0.930 . S
H2110 C2078 0.929 . S
H2111 C2079 0.930 . S
Li2112 N2129 1.990 . S
Li2112 O2172 1.956 . S
Li2112 O2173 1.970 . S
Li2112 O2174 1.961 . S
Li2113 N2137 1.990 . S
Li2113 O2172 1.970 . S
Li2113 O2173 1.956 . S
Li2113 O2175 1.961 . S
Li2114 N2159 1.990 . S
Li2114 O2172 1.961 . S
Li2114 O2174 1.956 . S
Li2114 O2175 1.970 . S
Li2115 N2165 1.990 1_554 S
Li2115 O2173 1.961 . S
Li2115 O2174 1.970 . S
Li2115 O2175 1.956 . S
C2116 C2118 1.348 . S
C2116 C2119 1.356 . S
C2116 O2172 1.325 . S
N2117 C2120 1.314 . S
N2117 C2121 1.279 . S
C2118 C2116 1.348 . S
C2118 C2120 1.353 . S
C2118 H2176 0.929 . S
C2119 C2116 1.356 . S
C2119 C2121 1.358 . S
C2119 H2177 0.930 . S
C2120 N2117 1.314 . S
C2120 C2118 1.353 . S
C2120 H2178 0.930 . S
C2121 N2117 1.279 . S
C2121 C2119 1.358 . S
C2121 H2179 0.930 . S
C2122 C2125 1.348 . S
C2122 C2126 1.356 . S
C2122 O2173 1.325 . S
C2123 N2124 1.279 . S
C2123 C2126 1.358 . S
C2123 H2180 0.930 . S
N2124 C2123 1.279 . S
N2124 C2127 1.314 . S
C2125 C2122 1.348 . S
C2125 C2127 1.353 . S
C2125 H2181 0.929 . S
C2126 C2122 1.356 . S
C2126 C2123 1.358 . S
C2126 H2182 0.930 . S
C2127 N2124 1.314 . S
C2127 C2125 1.353 . S
C2127 H2183 0.930 . S
C2128 N2129 1.314 . S
C2128 C2133 1.353 . S
C2128 H2134 0.930 . S
N2129 Li2112 1.990 . S
N2129 C2128 1.314 . S
N2129 C2131 1.279 . S
C2130 C2131 1.358 . S
C2130 C2132 1.356 . S
C2130 H2184 0.930 . S
C2131 N2129 1.279 . S
C2131 C2130 1.358 . S
C2131 H2135 0.930 . S
C2132 C2130 1.356 . S
C2132 C2133 1.348 . S
C2133 C2128 1.353 . S
C2133 C2132 1.348 . S
C2133 H2185 0.929 1_554 S
H2134 C2128 0.930 . S
H2135 C2131 0.930 . S
C2136 N2137 1.314 . S
C2136 C2138 1.353 . S
C2136 H2142 0.930 . S
N2137 Li2113 1.990 . S
N2137 C2136 1.314 . S
N2137 C2140 1.279 . S
C2138 C2136 1.353 . S
C2138 C2141 1.348 . S
C2138 H2186 0.929 . S
C2139 C2140 1.358 . S
C2139 C2141 1.356 . S
C2139 H2187 0.930 . S
C2140 N2137 1.279 . S
C2140 C2139 1.358 . S
C2140 H2143 0.930 . S
C2141 C2138 1.348 . S
C2141 C2139 1.356 . S
H2142 C2136 0.930 . S
H2143 C2140 0.930 . S
C2144 C2146 1.348 1_554 S
C2144 C2147 1.356 . S
C2144 O2174 1.325 . S
N2145 C2148 1.314 . S
N2145 C2149 1.279 . S
C2146 C2144 1.348 1_556 S
C2146 C2148 1.353 . S
C2146 H2188 0.929 . S
C2147 C2144 1.356 . S
C2147 C2149 1.358 1_554 S
C2147 H2189 0.930 . S
C2148 N2145 1.314 . S
C2148 C2146 1.353 . S
C2148 H2190 0.930 . S
C2149 N2145 1.279 . S
C2149 C2147 1.358 1_556 S
C2149 H2191 0.930 . S
C2150 C2151 1.348 . S
C2150 C2152 1.356 . S
C2150 O2175 1.325 . S
C2151 C2150 1.348 . S
C2151 C2153 1.353 . S
C2151 H2192 0.929 . S
C2152 C2150 1.356 . S
C2152 C2154 1.358 . S
C2152 H2193 0.930 . S
C2153 C2151 1.353 . S
C2153 N2155 1.314 . S
C2153 H2194 0.930 . S
C2154 C2152 1.358 . S
C2154 N2155 1.279 . S
C2154 H2195 0.930 . S
N2155 C2153 1.314 . S
N2155 C2154 1.279 . S
C2156 C2158 1.353 . S
C2156 N2159 1.314 . S
C2156 H2162 0.930 . S
C2157 N2159 1.279 . S
C2157 C2160 1.358 . S
C2157 H2163 0.930 . S
C2158 C2156 1.353 . S
C2158 C2161 1.348 . S
C2158 H2196 0.929 . S
N2159 Li2114 1.990 . S
N2159 C2156 1.314 . S
N2159 C2157 1.279 . S
C2160 C2157 1.358 . S
C2160 C2161 1.356 . S
C2160 H2197 0.930 . S
C2161 C2158 1.348 . S
C2161 C2160 1.356 . S
H2162 C2156 0.930 . S
H2163 C2157 0.930 . S
C2164 N2165 1.314 . S
C2164 C2166 1.353 . S
C2164 H2170 0.930 . S
N2165 Li2115 1.990 1_556 S
N2165 C2164 1.314 . S
N2165 C2168 1.279 . S
C2166 C2164 1.353 . S
C2166 C2169 1.348 . S
C2166 H2198 0.929 . S
C2167 C2168 1.358 . S
C2167 C2169 1.356 . S
C2167 H2199 0.930 . S
C2168 N2165 1.279 . S
C2168 C2167 1.358 . S
C2168 H2171 0.930 1_556 S
C2169 C2166 1.348 . S
C2169 C2167 1.356 . S
H2170 C2164 0.930 . S
H2171 C2168 0.930 1_554 S
O2172 Li2112 1.956 . S
O2172 Li2113 1.970 . S
O2172 Li2114 1.961 . S
O2172 C2116 1.325 . S
O2173 Li2112 1.970 . S
O2173 Li2113 1.956 . S
O2173 Li2115 1.961 . S
O2173 C2122 1.325 . S
O2174 Li2112 1.961 . S
O2174 Li2114 1.956 . S
O2174 Li2115 1.970 . S
O2174 C2144 1.325 . S
O2175 Li2113 1.961 . S
O2175 Li2114 1.970 . S
O2175 Li2115 1.956 . S
O2175 C2150 1.325 . S
H2176 C2118 0.929 . S
H2177 C2119 0.930 . S
H2178 C2120 0.930 . S
H2179 C2121 0.930 . S
H2180 C2123 0.930 . S
H2181 C2125 0.929 . S
H2182 C2126 0.930 . S
H2183 C2127 0.930 . S
H2184 C2130 0.930 . S
H2185 C2133 0.929 1_556 S
H2186 C2138 0.929 . S
H2187 C2139 0.930 . S
H2188 C2146 0.929 . S
H2189 C2147 0.930 . S
H2190 C2148 0.930 . S
H2191 C2149 0.930 . S
H2192 C2151 0.929 . S
H2193 C2152 0.930 . S
H2194 C2153 0.930 . S
H2195 C2154 0.930 . S
H2196 C2158 0.929 . S
H2197 C2160 0.930 . S
H2198 C2166 0.929 . S
H2199 C2167 0.930 . S
Li2200 N2217 1.990 . S
Li2200 O2260 1.956 . S
Li2200 O2261 1.970 . S
Li2200 O2262 1.961 . S
Li2201 N2225 1.990 1_556 S
Li2201 O2260 1.970 . S
Li2201 O2261 1.956 . S
Li2201 O2263 1.961 . S
Li2202 N2247 1.990 . S
Li2202 O2260 1.961 . S
Li2202 O2262 1.956 . S
Li2202 O2263 1.970 . S
Li2203 N2253 1.990 . S
Li2203 O2261 1.961 . S
Li2203 O2262 1.970 . S
Li2203 O2263 1.956 . S
C2204 C2206 1.348 . S
C2204 C2207 1.356 . S
C2204 O2260 1.325 . S
N2205 C2208 1.314 . S
N2205 C2209 1.279 . S
C2206 C2204 1.348 . S
C2206 C2208 1.353 . S
C2206 H2264 0.929 . S
C2207 C2204 1.356 . S
C2207 C2209 1.358 . S
C2207 H2265 0.930 . S
C2208 N2205 1.314 . S
C2208 C2206 1.353 . S
C2208 H2266 0.930 1_556 S
C2209 N2205 1.279 . S
C2209 C2207 1.358 . S
C2209 H2267 0.930 . S
C2210 C2213 1.348 1_556 S
C2210 C2214 1.356 1_556 S
C2210 O2261 1.325 . S
C2211 N2212 1.279 . S
C2211 C2214 1.358 . S
C2211 H2268 0.930 . S
N2212 C2211 1.279 . S
N2212 C2215 1.314 . S
C2213 C2210 1.348 1_554 S
C2213 C2215 1.353 . S
C2213 H2269 0.929 . S
C2214 C2210 1.356 1_554 S
C2214 C2211 1.358 . S
C2214 H2270 0.930 1_554 S
C2215 N2212 1.314 . S
C2215 C2213 1.353 . S
C2215 H2271 0.930 . S
C2216 N2217 1.314 . S
C2216 C2221 1.353 . S
C2216 H2222 0.930 . S
N2217 Li2200 1.990 . S
N2217 C2216 1.314 . S
N2217 C2219 1.279 . S
C2218 C2219 1.358 . S
C2218 C2220 1.356 . S
C2218 H2272 0.930 . S
C2219 N2217 1.279 . S
C2219 C2218 1.358 . S
C2219 H2223 0.930 . S
C2220 C2218 1.356 . S
C2220 C2221 1.348 . S
C2221 C2216 1.353 . S
C2221 C2220 1.348 . S
C2221 H2273 0.929 . S
H2222 C2216 0.930 . S
H2223 C2219 0.930 . S
C2224 N2225 1.314 1_556 S
C2224 C2226 1.353 1_556 S
C2224 H2230 0.930 . S
N2225 Li2201 1.990 1_554 S
N2225 C2224 1.314 1_554 S
N2225 C2228 1.279 . S
C2226 C2224 1.353 1_554 S
C2226 C2229 1.348 . S
C2226 H2274 0.929 . S
C2227 C2228 1.358 . S
C2227 C2229 1.356 . S
C2227 H2275 0.930 . S
C2228 N2225 1.279 . S
C2228 C2227 1.358 . S
C2228 H2231 0.930 . S
C2229 C2226 1.348 . S
C2229 C2227 1.356 . S
H2230 C2224 0.930 . S
H2231 C2228 0.930 . S
C2232 C2234 1.348 . S
C2232 C2235 1.356 . S
C2232 O2262 1.325 . S
N2233 C2236 1.314 . S
N2233 C2237 1.279 . S
C2234 C2232 1.348 . S
C2234 C2236 1.353 . S
C2234 H2276 0.929 . S
C2235 C2232 1.356 . S
C2235 C2237 1.358 . S
C2235 H2277 0.930 . S
C2236 N2233 1.314 . S
C2236 C2234 1.353 . S
C2236 H2278 0.930 . S
C2237 N2233 1.279 . S
C2237 C2235 1.358 . S
C2237 H2279 0.930 . S
C2238 C2239 1.348 . S
C2238 C2240 1.356 . S
C2238 O2263 1.325 . S
C2239 C2238 1.348 . S
C2239 C2241 1.353 . S
C2239 H2280 0.929 . S
C2240 C2238 1.356 . S
C2240 C2242 1.358 . S
C2240 H2281 0.930 . S
C2241 C2239 1.353 . S
C2241 N2243 1.314 . S
C2241 H2282 0.930 . S
C2242 C2240 1.358 . S
C2242 N2243 1.279 . S
C2242 H2283 0.930 . S
N2243 C2241 1.314 . S
N2243 C2242 1.279 . S
C2244 C2246 1.353 . S
C2244 N2247 1.314 . S
C2244 H2250 0.930 . S
C2245 N2247 1.279 . S
C2245 C2248 1.358 . S
C2245 H2251 0.930 . S
C2246 C2244 1.353 . S
C2246 C2249 1.348 . S
C2246 H2284 0.929 . S
N2247 Li2202 1.990 . S
N2247 C2244 1.314 . S
N2247 C2245 1.279 . S
C2248 C2245 1.358 . S
C2248 C2249 1.356 . S
C2248 H2285 0.930 . S
C2249 C2246 1.348 . S
C2249 C2248 1.356 . S
H2250 C2244 0.930 . S
H2251 C2245 0.930 . S
C2252 N2253 1.314 . S
C2252 C2254 1.353 . S
C2252 H2258 0.930 . S
N2253 Li2203 1.990 . S
N2253 C2252 1.314 . S
N2253 C2256 1.279 . S
C2254 C2252 1.353 . S
C2254 C2257 1.348 . S
C2254 H2286 0.929 . S
C2255 C2256 1.358 . S
C2255 C2257 1.356 . S
C2255 H2287 0.930 . S
C2256 N2253 1.279 . S
C2256 C2255 1.358 . S
C2256 H2259 0.930 . S
C2257 C2254 1.348 . S
C2257 C2255 1.356 . S
H2258 C2252 0.930 . S
H2259 C2256 0.930 . S
O2260 Li2200 1.956 . S
O2260 Li2201 1.970 . S
O2260 Li2202 1.961 . S
O2260 C2204 1.325 . S
O2261 Li2200 1.970 . S
O2261 Li2201 1.956 . S
O2261 Li2203 1.961 . S
O2261 C2210 1.325 . S
O2262 Li2200 1.961 . S
O2262 Li2202 1.956 . S
O2262 Li2203 1.970 . S
O2262 C2232 1.325 . S
O2263 Li2201 1.961 . S
O2263 Li2202 1.970 . S
O2263 Li2203 1.956 . S
O2263 C2238 1.325 . S
H2264 C2206 0.929 . S
H2265 C2207 0.930 . S
H2266 C2208 0.930 1_554 S
H2267 C2209 0.930 . S
H2268 C2211 0.930 . S
H2269 C2213 0.929 . S
H2270 C2214 0.930 1_556 S
H2271 C2215 0.930 . S
H2272 C2218 0.930 . S
H2273 C2221 0.929 . S
H2274 C2226 0.929 . S
H2275 C2227 0.930 . S
H2276 C2234 0.929 . S
H2277 C2235 0.930 . S
H2278 C2236 0.930 . S
H2279 C2237 0.930 . S
H2280 C2239 0.929 . S
H2281 C2240 0.930 . S
H2282 C2241 0.930 . S
H2283 C2242 0.930 . S
H2284 C2246 0.929 . S
H2285 C2248 0.930 . S
H2286 C2254 0.929 . S
H2287 C2255 0.930 . S
Li2288 N2305 1.990 . S
Li2288 O2348 1.956 . S
Li2288 O2349 1.970 . S
Li2288 O2350 1.961 . S
Li2289 N2313 1.990 . S
Li2289 O2348 1.970 . S
Li2289 O2349 1.956 . S
Li2289 O2351 1.961 . S
Li2290 N2335 1.990 . S
Li2290 O2348 1.961 . S
Li2290 O2350 1.956 . S
Li2290 O2351 1.970 . S
Li2291 N2341 1.990 . S
Li2291 O2349 1.961 . S
Li2291 O2350 1.970 . S
Li2291 O2351 1.956 . S
C2292 C2294 1.348 . S
C2292 C2295 1.356 . S
C2292 O2348 1.325 . S
N2293 C2296 1.314 . S
N2293 C2297 1.279 . S
C2294 C2292 1.348 . S
C2294 C2296 1.353 . S
C2294 H2352 0.929 . S
C2295 C2292 1.356 . S
C2295 C2297 1.358 . S
C2295 H2353 0.930 . S
C2296 N2293 1.314 . S
C2296 C2294 1.353 . S
C2296 H2354 0.930 . S
C2297 N2293 1.279 . S
C2297 C2295 1.358 . S
C2297 H2355 0.930 . S
C2298 C2301 1.348 . S
C2298 C2302 1.356 . S
C2298 O2349 1.325 . S
C2299 N2300 1.279 . S
C2299 C2302 1.358 . S
C2299 H2356 0.930 . S
N2300 C2299 1.279 . S
N2300 C2303 1.314 . S
C2301 C2298 1.348 . S
C2301 C2303 1.353 . S
C2301 H2357 0.929 . S
C2302 C2298 1.356 . S
C2302 C2299 1.358 . S
C2302 H2358 0.930 . S
C2303 N2300 1.314 . S
C2303 C2301 1.353 . S
C2303 H2359 0.930 . S
C2304 N2305 1.314 . S
C2304 C2309 1.353 . S
C2304 H2310 0.930 . S
N2305 Li2288 1.990 . S
N2305 C2304 1.314 . S
N2305 C2307 1.279 . S
C2306 C2307 1.358 . S
C2306 C2308 1.356 . S
C2306 H2360 0.930 . S
C2307 N2305 1.279 . S
C2307 C2306 1.358 . S
C2307 H2311 0.930 . S
C2308 C2306 1.356 . S
C2308 C2309 1.348 . S
C2309 C2304 1.353 . S
C2309 C2308 1.348 . S
C2309 H2361 0.929 . S
H2310 C2304 0.930 . S
H2311 C2307 0.930 . S
C2312 N2313 1.314 . S
C2312 C2314 1.353 . S
C2312 H2318 0.930 . S
N2313 Li2289 1.990 . S
N2313 C2312 1.314 . S
N2313 C2316 1.279 . S
C2314 C2312 1.353 . S
C2314 C2317 1.348 . S
C2314 H2362 0.929 . S
C2315 C2316 1.358 . S
C2315 C2317 1.356 . S
C2315 H2363 0.930 . S
C2316 N2313 1.279 . S
C2316 C2315 1.358 . S
C2316 H2319 0.930 . S
C2317 C2314 1.348 . S
C2317 C2315 1.356 . S
H2318 C2312 0.930 . S
H2319 C2316 0.930 . S
C2320 C2322 1.348 . S
C2320 C2323 1.356 . S
C2320 O2350 1.325 . S
N2321 C2324 1.314 . S
N2321 C2325 1.279 . S
C2322 C2320 1.348 . S
C2322 C2324 1.353 . S
C2322 H2364 0.929 . S
C2323 C2320 1.356 . S
C2323 C2325 1.358 . S
C2323 H2365 0.930 . S
C2324 N2321 1.314 . S
C2324 C2322 1.353 . S
C2324 H2366 0.930 . S
C2325 N2321 1.279 . S
C2325 C2323 1.358 . S
C2325 H2367 0.930 . S
C2326 C2327 1.348 . S
C2326 C2328 1.356 . S
C2326 O2351 1.325 . S
C2327 C2326 1.348 . S
C2327 C2329 1.353 . S
C2327 H2368 0.929 . S
C2328 C2326 1.356 . S
C2328 C2330 1.358 . S
C2328 H2369 0.930 . S
C2329 C2327 1.353 . S
C2329 N2331 1.314 . S
C2329 H2370 0.930 . S
C2330 C2328 1.358 . S
C2330 N2331 1.279 . S
C2330 H2371 0.930 . S
N2331 C2329 1.314 . S
N2331 C2330 1.279 . S
C2332 C2334 1.353 . S
C2332 N2335 1.314 . S
C2332 H2338 0.930 . S
C2333 N2335 1.279 . S
C2333 C2336 1.358 . S
C2333 H2339 0.930 . S
C2334 C2332 1.353 . S
C2334 C2337 1.348 . S
C2334 H2372 0.929 . S
N2335 Li2290 1.990 . S
N2335 C2332 1.314 . S
N2335 C2333 1.279 . S
C2336 C2333 1.358 . S
C2336 C2337 1.356 . S
C2336 H2373 0.930 . S
C2337 C2334 1.348 . S
C2337 C2336 1.356 . S
H2338 C2332 0.930 . S
H2339 C2333 0.930 . S
C2340 N2341 1.314 . S
C2340 C2342 1.353 . S
C2340 H2346 0.930 . S
N2341 Li2291 1.990 . S
N2341 C2340 1.314 . S
N2341 C2344 1.279 . S
C2342 C2340 1.353 . S
C2342 C2345 1.348 . S
C2342 H2374 0.929 . S
C2343 C2344 1.358 . S
C2343 C2345 1.356 . S
C2343 H2375 0.930 . S
C2344 N2341 1.279 . S
C2344 C2343 1.358 . S
C2344 H2347 0.930 . S
C2345 C2342 1.348 . S
C2345 C2343 1.356 . S
H2346 C2340 0.930 . S
H2347 C2344 0.930 . S
O2348 Li2288 1.956 . S
O2348 Li2289 1.970 . S
O2348 Li2290 1.961 . S
O2348 C2292 1.325 . S
O2349 Li2288 1.970 . S
O2349 Li2289 1.956 . S
O2349 Li2291 1.961 . S
O2349 C2298 1.325 . S
O2350 Li2288 1.961 . S
O2350 Li2290 1.956 . S
O2350 Li2291 1.970 . S
O2350 C2320 1.325 . S
O2351 Li2289 1.961 . S
O2351 Li2290 1.970 . S
O2351 Li2291 1.956 . S
O2351 C2326 1.325 . S
H2352 C2294 0.929 . S
H2353 C2295 0.930 . S
H2354 C2296 0.930 . S
H2355 C2297 0.930 . S
H2356 C2299 0.930 . S
H2357 C2301 0.929 . S
H2358 C2302 0.930 . S
H2359 C2303 0.930 . S
H2360 C2306 0.930 . S
H2361 C2309 0.929 . S
H2362 C2314 0.929 . S
H2363 C2315 0.930 . S
H2364 C2322 0.929 . S
H2365 C2323 0.930 . S
H2366 C2324 0.930 . S
H2367 C2325 0.930 . S
H2368 C2327 0.929 . S
H2369 C2328 0.930 . S
H2370 C2329 0.930 . S
H2371 C2330 0.930 . S
H2372 C2334 0.929 . S
H2373 C2336 0.930 . S
H2374 C2342 0.929 . S
H2375 C2343 0.930 . S
Li2376 N2393 1.990 . S
Li2376 O2436 1.956 . S
Li2376 O2437 1.970 . S
Li2376 O2438 1.961 . S
Li2377 N2401 1.990 . S
Li2377 O2436 1.970 . S
Li2377 O2437 1.956 . S
Li2377 O2439 1.961 . S
Li2378 N2423 1.990 . S
Li2378 O2436 1.961 . S
Li2378 O2438 1.956 . S
Li2378 O2439 1.970 . S
Li2379 N2429 1.990 . S
Li2379 O2437 1.961 . S
Li2379 O2438 1.970 . S
Li2379 O2439 1.956 . S
C2380 C2382 1.348 . S
C2380 C2383 1.356 . S
C2380 O2436 1.325 . S
N2381 C2384 1.314 . S
N2381 C2385 1.279 . S
C2382 C2380 1.348 . S
C2382 C2384 1.353 . S
C2382 H2440 0.929 . S
C2383 C2380 1.356 . S
C2383 C2385 1.358 . S
C2383 H2441 0.930 . S
C2384 N2381 1.314 . S
C2384 C2382 1.353 . S
C2384 H2442 0.930 . S
C2385 N2381 1.279 . S
C2385 C2383 1.358 . S
C2385 H2443 0.930 . S
C2386 C2389 1.348 . S
C2386 C2390 1.356 . S
C2386 O2437 1.325 . S
C2387 N2388 1.279 . S
C2387 C2390 1.358 . S
C2387 H2444 0.930 . S
N2388 C2387 1.279 . S
N2388 C2391 1.314 . S
C2389 C2386 1.348 . S
C2389 C2391 1.353 . S
C2389 H2445 0.929 . S
C2390 C2386 1.356 . S
C2390 C2387 1.358 . S
C2390 H2446 0.930 . S
C2391 N2388 1.314 . S
C2391 C2389 1.353 . S
C2391 H2447 0.930 . S
C2392 N2393 1.314 . S
C2392 C2397 1.353 . S
C2392 H2398 0.930 . S
N2393 Li2376 1.990 . S
N2393 C2392 1.314 . S
N2393 C2395 1.279 . S
C2394 C2395 1.358 . S
C2394 C2396 1.356 . S
C2394 H2448 0.930 . S
C2395 N2393 1.279 . S
C2395 C2394 1.358 . S
C2395 H2399 0.930 . S
C2396 C2394 1.356 . S
C2396 C2397 1.348 . S
C2397 C2392 1.353 . S
C2397 C2396 1.348 . S
C2397 H2449 0.929 . S
H2398 C2392 0.930 . S
H2399 C2395 0.930 . S
C2400 N2401 1.314 . S
C2400 C2402 1.353 . S
C2400 H2406 0.930 . S
N2401 Li2377 1.990 . S
N2401 C2400 1.314 . S
N2401 C2404 1.279 . S
C2402 C2400 1.353 . S
C2402 C2405 1.348 . S
C2402 H2450 0.929 . S
C2403 C2404 1.358 . S
C2403 C2405 1.356 . S
C2403 H2451 0.930 . S
C2404 N2401 1.279 . S
C2404 C2403 1.358 . S
C2404 H2407 0.930 . S
C2405 C2402 1.348 . S
C2405 C2403 1.356 . S
H2406 C2400 0.930 . S
H2407 C2404 0.930 . S
C2408 C2410 1.348 . S
C2408 C2411 1.356 . S
C2408 O2438 1.325 . S
N2409 C2412 1.314 . S
N2409 C2413 1.279 . S
C2410 C2408 1.348 . S
C2410 C2412 1.353 . S
C2410 H2452 0.929 . S
C2411 C2408 1.356 . S
C2411 C2413 1.358 . S
C2411 H2453 0.930 . S
C2412 N2409 1.314 . S
C2412 C2410 1.353 . S
C2412 H2454 0.930 . S
C2413 N2409 1.279 . S
C2413 C2411 1.358 . S
C2413 H2455 0.930 . S
C2414 C2415 1.348 . S
C2414 C2416 1.356 . S
C2414 O2439 1.325 . S
C2415 C2414 1.348 . S
C2415 C2417 1.353 . S
C2415 H2456 0.929 . S
C2416 C2414 1.356 . S
C2416 C2418 1.358 . S
C2416 H2457 0.930 . S
C2417 C2415 1.353 . S
C2417 N2419 1.314 . S
C2417 H2458 0.930 . S
C2418 C2416 1.358 . S
C2418 N2419 1.279 . S
C2418 H2459 0.930 . S
N2419 C2417 1.314 . S
N2419 C2418 1.279 . S
C2420 C2422 1.353 . S
C2420 N2423 1.314 . S
C2420 H2426 0.930 . S
C2421 N2423 1.279 . S
C2421 C2424 1.358 . S
C2421 H2427 0.930 . S
C2422 C2420 1.353 . S
C2422 C2425 1.348 . S
C2422 H2460 0.929 . S
N2423 Li2378 1.990 . S
N2423 C2420 1.314 . S
N2423 C2421 1.279 . S
C2424 C2421 1.358 . S
C2424 C2425 1.356 . S
C2424 H2461 0.930 . S
C2425 C2422 1.348 . S
C2425 C2424 1.356 . S
H2426 C2420 0.930 . S
H2427 C2421 0.930 . S
C2428 N2429 1.314 . S
C2428 C2430 1.353 . S
C2428 H2434 0.930 . S
N2429 Li2379 1.990 . S
N2429 C2428 1.314 . S
N2429 C2432 1.279 . S
C2430 C2428 1.353 . S
C2430 C2433 1.348 . S
C2430 H2462 0.929 . S
C2431 C2432 1.358 . S
C2431 C2433 1.356 . S
C2431 H2463 0.930 . S
C2432 N2429 1.279 . S
C2432 C2431 1.358 . S
C2432 H2435 0.930 . S
C2433 C2430 1.348 . S
C2433 C2431 1.356 . S
H2434 C2428 0.930 . S
H2435 C2432 0.930 . S
O2436 Li2376 1.956 . S
O2436 Li2377 1.970 . S
O2436 Li2378 1.961 . S
O2436 C2380 1.325 . S
O2437 Li2376 1.970 . S
O2437 Li2377 1.956 . S
O2437 Li2379 1.961 . S
O2437 C2386 1.325 . S
O2438 Li2376 1.961 . S
O2438 Li2378 1.956 . S
O2438 Li2379 1.970 . S
O2438 C2408 1.325 . S
O2439 Li2377 1.961 . S
O2439 Li2378 1.970 . S
O2439 Li2379 1.956 . S
O2439 C2414 1.325 . S
H2440 C2382 0.929 . S
H2441 C2383 0.930 . S
H2442 C2384 0.930 . S
H2443 C2385 0.930 . S
H2444 C2387 0.930 . S
H2445 C2389 0.929 . S
H2446 C2390 0.930 . S
H2447 C2391 0.930 . S
H2448 C2394 0.930 . S
H2449 C2397 0.929 . S
H2450 C2402 0.929 . S
H2451 C2403 0.930 . S
H2452 C2410 0.929 . S
H2453 C2411 0.930 . S
H2454 C2412 0.930 . S
H2455 C2413 0.930 . S
H2456 C2415 0.929 . S
H2457 C2416 0.930 . S
H2458 C2417 0.930 . S
H2459 C2418 0.930 . S
H2460 C2422 0.929 . S
H2461 C2424 0.930 . S
H2462 C2430 0.929 . S
H2463 C2431 0.930 . S
Li2464 N2481 1.990 . S
Li2464 O2524 1.956 . S
Li2464 O2525 1.970 . S
Li2464 O2526 1.961 . S
Li2465 N2489 1.990 . S
Li2465 O2524 1.970 . S
Li2465 O2525 1.956 . S
Li2465 O2527 1.961 . S
Li2466 N2511 1.990 . S
Li2466 O2524 1.961 . S
Li2466 O2526 1.956 . S
Li2466 O2527 1.970 . S
Li2467 N2517 1.990 . S
Li2467 O2525 1.961 . S
Li2467 O2526 1.970 . S
Li2467 O2527 1.956 . S
C2468 C2470 1.348 . S
C2468 C2471 1.356 . S
C2468 O2524 1.325 . S
N2469 C2472 1.314 . S
N2469 C2473 1.279 . S
C2470 C2468 1.348 . S
C2470 C2472 1.353 . S
C2470 H2528 0.929 . S
C2471 C2468 1.356 . S
C2471 C2473 1.358 . S
C2471 H2529 0.930 . S
C2472 N2469 1.314 . S
C2472 C2470 1.353 . S
C2472 H2530 0.930 . S
C2473 N2469 1.279 . S
C2473 C2471 1.358 . S
C2473 H2531 0.930 . S
C2474 C2477 1.348 . S
C2474 C2478 1.356 . S
C2474 O2525 1.325 . S
C2475 N2476 1.279 . S
C2475 C2478 1.358 . S
C2475 H2532 0.930 . S
N2476 C2475 1.279 . S
N2476 C2479 1.314 . S
C2477 C2474 1.348 . S
C2477 C2479 1.353 . S
C2477 H2533 0.929 . S
C2478 C2474 1.356 . S
C2478 C2475 1.358 . S
C2478 H2534 0.930 . S
C2479 N2476 1.314 . S
C2479 C2477 1.353 . S
C2479 H2535 0.930 . S
C2480 N2481 1.314 . S
C2480 C2485 1.353 . S
C2480 H2486 0.930 . S
N2481 Li2464 1.990 . S
N2481 C2480 1.314 . S
N2481 C2483 1.279 . S
C2482 C2483 1.358 . S
C2482 C2484 1.356 . S
C2482 H2536 0.930 . S
C2483 N2481 1.279 . S
C2483 C2482 1.358 . S
C2483 H2487 0.930 . S
C2484 C2482 1.356 . S
C2484 C2485 1.348 . S
C2485 C2480 1.353 . S
C2485 C2484 1.348 . S
C2485 H2537 0.929 . S
H2486 C2480 0.930 . S
H2487 C2483 0.930 . S
C2488 N2489 1.314 . S
C2488 C2490 1.353 . S
C2488 H2494 0.930 . S
N2489 Li2465 1.990 . S
N2489 C2488 1.314 . S
N2489 C2492 1.279 . S
C2490 C2488 1.353 . S
C2490 C2493 1.348 . S
C2490 H2538 0.929 . S
C2491 C2492 1.358 . S
C2491 C2493 1.356 . S
C2491 H2539 0.930 . S
C2492 N2489 1.279 . S
C2492 C2491 1.358 . S
C2492 H2495 0.930 . S
C2493 C2490 1.348 . S
C2493 C2491 1.356 . S
H2494 C2488 0.930 . S
H2495 C2492 0.930 . S
C2496 C2498 1.348 . S
C2496 C2499 1.356 . S
C2496 O2526 1.325 . S
N2497 C2500 1.314 . S
N2497 C2501 1.279 . S
C2498 C2496 1.348 . S
C2498 C2500 1.353 . S
C2498 H2540 0.929 . S
C2499 C2496 1.356 . S
C2499 C2501 1.358 . S
C2499 H2541 0.930 . S
C2500 N2497 1.314 . S
C2500 C2498 1.353 . S
C2500 H2542 0.930 . S
C2501 N2497 1.279 . S
C2501 C2499 1.358 . S
C2501 H2543 0.930 . S
C2502 C2503 1.348 . S
C2502 C2504 1.356 . S
C2502 O2527 1.325 . S
C2503 C2502 1.348 . S
C2503 C2505 1.353 . S
C2503 H2544 0.929 . S
C2504 C2502 1.356 . S
C2504 C2506 1.358 . S
C2504 H2545 0.930 . S
C2505 C2503 1.353 . S
C2505 N2507 1.314 . S
C2505 H2546 0.930 . S
C2506 C2504 1.358 . S
C2506 N2507 1.279 . S
C2506 H2547 0.930 . S
N2507 C2505 1.314 . S
N2507 C2506 1.279 . S
C2508 C2510 1.353 . S
C2508 N2511 1.314 . S
C2508 H2514 0.930 . S
C2509 N2511 1.279 . S
C2509 C2512 1.358 . S
C2509 H2515 0.930 . S
C2510 C2508 1.353 . S
C2510 C2513 1.348 . S
C2510 H2548 0.929 . S
N2511 Li2466 1.990 . S
N2511 C2508 1.314 . S
N2511 C2509 1.279 . S
C2512 C2509 1.358 . S
C2512 C2513 1.356 . S
C2512 H2549 0.930 . S
C2513 C2510 1.348 . S
C2513 C2512 1.356 . S
H2514 C2508 0.930 . S
H2515 C2509 0.930 . S
C2516 N2517 1.314 . S
C2516 C2518 1.353 . S
C2516 H2522 0.930 . S
N2517 Li2467 1.990 . S
N2517 C2516 1.314 . S
N2517 C2520 1.279 . S
C2518 C2516 1.353 . S
C2518 C2521 1.348 . S
C2518 H2550 0.929 . S
C2519 C2520 1.358 . S
C2519 C2521 1.356 . S
C2519 H2551 0.930 . S
C2520 N2517 1.279 . S
C2520 C2519 1.358 . S
C2520 H2523 0.930 . S
C2521 C2518 1.348 . S
C2521 C2519 1.356 . S
H2522 C2516 0.930 . S
H2523 C2520 0.930 . S
O2524 Li2464 1.956 . S
O2524 Li2465 1.970 . S
O2524 Li2466 1.961 . S
O2524 C2468 1.325 . S
O2525 Li2464 1.970 . S
O2525 Li2465 1.956 . S
O2525 Li2467 1.961 . S
O2525 C2474 1.325 . S
O2526 Li2464 1.961 . S
O2526 Li2466 1.956 . S
O2526 Li2467 1.970 . S
O2526 C2496 1.325 . S
O2527 Li2465 1.961 . S
O2527 Li2466 1.970 . S
O2527 Li2467 1.956 . S
O2527 C2502 1.325 . S
H2528 C2470 0.929 . S
H2529 C2471 0.930 . S
H2530 C2472 0.930 . S
H2531 C2473 0.930 . S
H2532 C2475 0.930 . S
H2533 C2477 0.929 . S
H2534 C2478 0.930 . S
H2535 C2479 0.930 . S
H2536 C2482 0.930 . S
H2537 C2485 0.929 . S
H2538 C2490 0.929 . S
H2539 C2491 0.930 . S
H2540 C2498 0.929 . S
H2541 C2499 0.930 . S
H2542 C2500 0.930 . S
H2543 C2501 0.930 . S
H2544 C2503 0.929 . S
H2545 C2504 0.930 . S
H2546 C2505 0.930 . S
H2547 C2506 0.930 . S
H2548 C2510 0.929 . S
H2549 C2512 0.930 . S
H2550 C2518 0.929 . S
H2551 C2519 0.930 . S
Li2552 N2569 1.990 . S
Li2552 O2612 1.956 . S
Li2552 O2613 1.970 . S
Li2552 O2614 1.961 . S
Li2553 N2577 1.990 . S
Li2553 O2612 1.970 . S
Li2553 O2613 1.956 . S
Li2553 O2615 1.961 . S
Li2554 N2599 1.990 . S
Li2554 O2612 1.961 . S
Li2554 O2614 1.956 . S
Li2554 O2615 1.970 . S
Li2555 N2605 1.990 1_554 S
Li2555 O2613 1.961 . S
Li2555 O2614 1.970 . S
Li2555 O2615 1.956 . S
C2556 C2558 1.348 . S
C2556 C2559 1.356 . S
C2556 O2612 1.325 . S
N2557 C2560 1.314 . S
N2557 C2561 1.279 . S
C2558 C2556 1.348 . S
C2558 C2560 1.353 . S
C2558 H2616 0.929 . S
C2559 C2556 1.356 . S
C2559 C2561 1.358 . S
C2559 H2617 0.930 . S
C2560 N2557 1.314 . S
C2560 C2558 1.353 . S
C2560 H2618 0.930 . S
C2561 N2557 1.279 . S
C2561 C2559 1.358 . S
C2561 H2619 0.930 . S
C2562 C2565 1.348 . S
C2562 C2566 1.356 . S
C2562 O2613 1.325 . S
C2563 N2564 1.279 . S
C2563 C2566 1.358 . S
C2563 H2620 0.930 . S
N2564 C2563 1.279 . S
N2564 C2567 1.314 . S
C2565 C2562 1.348 . S
C2565 C2567 1.353 . S
C2565 H2621 0.929 . S
C2566 C2562 1.356 . S
C2566 C2563 1.358 . S
C2566 H2622 0.930 . S
C2567 N2564 1.314 . S
C2567 C2565 1.353 . S
C2567 H2623 0.930 . S
C2568 N2569 1.314 . S
C2568 C2573 1.353 . S
C2568 H2574 0.930 . S
N2569 Li2552 1.990 . S
N2569 C2568 1.314 . S
N2569 C2571 1.279 . S
C2570 C2571 1.358 . S
C2570 C2572 1.356 . S
C2570 H2624 0.930 . S
C2571 N2569 1.279 . S
C2571 C2570 1.358 . S
C2571 H2575 0.930 . S
C2572 C2570 1.356 . S
C2572 C2573 1.348 . S
C2573 C2568 1.353 . S
C2573 C2572 1.348 . S
C2573 H2625 0.929 . S
H2574 C2568 0.930 . S
H2575 C2571 0.930 . S
C2576 N2577 1.314 . S
C2576 C2578 1.353 . S
C2576 H2582 0.930 . S
N2577 Li2553 1.990 . S
N2577 C2576 1.314 . S
N2577 C2580 1.279 . S
C2578 C2576 1.353 . S
C2578 C2581 1.348 . S
C2578 H2626 0.929 . S
C2579 C2580 1.358 . S
C2579 C2581 1.356 . S
C2579 H2627 0.930 . S
C2580 N2577 1.279 . S
C2580 C2579 1.358 . S
C2580 H2583 0.930 . S
C2581 C2578 1.348 . S
C2581 C2579 1.356 . S
H2582 C2576 0.930 . S
H2583 C2580 0.930 . S
C2584 C2586 1.348 . S
C2584 C2587 1.356 . S
C2584 O2614 1.325 . S
N2585 C2588 1.314 . S
N2585 C2589 1.279 . S
C2586 C2584 1.348 . S
C2586 C2588 1.353 . S
C2586 H2628 0.929 . S
C2587 C2584 1.356 . S
C2587 C2589 1.358 . S
C2587 H2629 0.930 . S
C2588 N2585 1.314 . S
C2588 C2586 1.353 . S
C2588 H2630 0.930 1_554 S
C2589 N2585 1.279 . S
C2589 C2587 1.358 . S
C2589 H2631 0.930 . S
C2590 C2591 1.348 1_554 S
C2590 C2592 1.356 1_554 S
C2590 O2615 1.325 . S
C2591 C2590 1.348 1_556 S
C2591 C2593 1.353 . S
C2591 H2632 0.929 . S
C2592 C2590 1.356 1_556 S
C2592 C2594 1.358 . S
C2592 H2633 0.930 1_556 S
C2593 C2591 1.353 . S
C2593 N2595 1.314 . S
C2593 H2634 0.930 . S
C2594 C2592 1.358 . S
C2594 N2595 1.279 . S
C2594 H2635 0.930 . S
N2595 C2593 1.314 . S
N2595 C2594 1.279 . S
C2596 C2598 1.353 . S
C2596 N2599 1.314 . S
C2596 H2602 0.930 . S
C2597 N2599 1.279 . S
C2597 C2600 1.358 . S
C2597 H2603 0.930 . S
C2598 C2596 1.353 . S
C2598 C2601 1.348 . S
C2598 H2636 0.929 . S
N2599 Li2554 1.990 . S
N2599 C2596 1.314 . S
N2599 C2597 1.279 . S
C2600 C2597 1.358 . S
C2600 C2601 1.356 . S
C2600 H2637 0.930 . S
C2601 C2598 1.348 . S
C2601 C2600 1.356 . S
H2602 C2596 0.930 . S
H2603 C2597 0.930 . S
C2604 N2605 1.314 1_554 S
C2604 C2606 1.353 1_554 S
C2604 H2610 0.930 . S
N2605 Li2555 1.990 1_556 S
N2605 C2604 1.314 1_556 S
N2605 C2608 1.279 . S
C2606 C2604 1.353 1_556 S
C2606 C2609 1.348 . S
C2606 H2638 0.929 . S
C2607 C2608 1.358 . S
C2607 C2609 1.356 . S
C2607 H2639 0.930 . S
C2608 N2605 1.279 . S
C2608 C2607 1.358 . S
C2608 H2611 0.930 . S
C2609 C2606 1.348 . S
C2609 C2607 1.356 . S
H2610 C2604 0.930 . S
H2611 C2608 0.930 . S
O2612 Li2552 1.956 . S
O2612 Li2553 1.970 . S
O2612 Li2554 1.961 . S
O2612 C2556 1.325 . S
O2613 Li2552 1.970 . S
O2613 Li2553 1.956 . S
O2613 Li2555 1.961 . S
O2613 C2562 1.325 . S
O2614 Li2552 1.961 . S
O2614 Li2554 1.956 . S
O2614 Li2555 1.970 . S
O2614 C2584 1.325 . S
O2615 Li2553 1.961 . S
O2615 Li2554 1.970 . S
O2615 Li2555 1.956 . S
O2615 C2590 1.325 . S
H2616 C2558 0.929 . S
H2617 C2559 0.930 . S
H2618 C2560 0.930 . S
H2619 C2561 0.930 . S
H2620 C2563 0.930 . S
H2621 C2565 0.929 . S
H2622 C2566 0.930 . S
H2623 C2567 0.930 . S
H2624 C2570 0.930 . S
H2625 C2573 0.929 . S
H2626 C2578 0.929 . S
H2627 C2579 0.930 . S
H2628 C2586 0.929 . S
H2629 C2587 0.930 . S
H2630 C2588 0.930 1_556 S
H2631 C2589 0.930 . S
H2632 C2591 0.929 . S
H2633 C2592 0.930 1_554 S
H2634 C2593 0.930 . S
H2635 C2594 0.930 . S
H2636 C2598 0.929 . S
H2637 C2600 0.930 . S
H2638 C2606 0.929 . S
H2639 C2607 0.930 . S
Li2640 N2657 1.990 . S
Li2640 O2700 1.956 . S
Li2640 O2701 1.970 . S
Li2640 O2702 1.961 . S
Li2641 N2665 1.990 1_556 S
Li2641 O2700 1.970 . S
Li2641 O2701 1.956 . S
Li2641 O2703 1.961 . S
Li2642 N2687 1.990 . S
Li2642 O2700 1.961 . S
Li2642 O2702 1.956 . S
Li2642 O2703 1.970 . S
Li2643 N2693 1.990 . S
Li2643 O2701 1.961 . S
Li2643 O2702 1.970 . S
Li2643 O2703 1.956 . S
C2644 C2646 1.348 1_556 S
C2644 C2647 1.356 . S
C2644 O2700 1.325 . S
N2645 C2648 1.314 . S
N2645 C2649 1.279 . S
C2646 C2644 1.348 1_554 S
C2646 C2648 1.353 . S
C2646 H2704 0.929 . S
C2647 C2644 1.356 . S
C2647 C2649 1.358 1_556 S
C2647 H2705 0.930 . S
C2648 N2645 1.314 . S
C2648 C2646 1.353 . S
C2648 H2706 0.930 . S
C2649 N2645 1.279 . S
C2649 C2647 1.358 1_554 S
C2649 H2707 0.930 . S
C2650 C2653 1.348 . S
C2650 C2654 1.356 . S
C2650 O2701 1.325 . S
C2651 N2652 1.279 . S
C2651 C2654 1.358 . S
C2651 H2708 0.930 . S
N2652 C2651 1.279 . S
N2652 C2655 1.314 . S
C2653 C2650 1.348 . S
C2653 C2655 1.353 . S
C2653 H2709 0.929 . S
C2654 C2650 1.356 . S
C2654 C2651 1.358 . S
C2654 H2710 0.930 . S
C2655 N2652 1.314 . S
C2655 C2653 1.353 . S
C2655 H2711 0.930 . S
C2656 N2657 1.314 . S
C2656 C2661 1.353 . S
C2656 H2662 0.930 . S
N2657 Li2640 1.990 . S
N2657 C2656 1.314 . S
N2657 C2659 1.279 . S
C2658 C2659 1.358 . S
C2658 C2660 1.356 . S
C2658 H2712 0.930 . S
C2659 N2657 1.279 . S
C2659 C2658 1.358 . S
C2659 H2663 0.930 . S
C2660 C2658 1.356 . S
C2660 C2661 1.348 . S
C2661 C2656 1.353 . S
C2661 C2660 1.348 . S
C2661 H2713 0.929 . S
H2662 C2656 0.930 . S
H2663 C2659 0.930 . S
C2664 N2665 1.314 . S
C2664 C2666 1.353 . S
C2664 H2670 0.930 . S
N2665 Li2641 1.990 1_554 S
N2665 C2664 1.314 . S
N2665 C2668 1.279 . S
C2666 C2664 1.353 . S
C2666 C2669 1.348 . S
C2666 H2714 0.929 . S
C2667 C2668 1.358 . S
C2667 C2669 1.356 . S
C2667 H2715 0.930 . S
C2668 N2665 1.279 . S
C2668 C2667 1.358 . S
C2668 H2671 0.930 1_554 S
C2669 C2666 1.348 . S
C2669 C2667 1.356 . S
H2670 C2664 0.930 . S
H2671 C2668 0.930 1_556 S
C2672 C2674 1.348 . S
C2672 C2675 1.356 . S
C2672 O2702 1.325 . S
N2673 C2676 1.314 . S
N2673 C2677 1.279 . S
C2674 C2672 1.348 . S
C2674 C2676 1.353 . S
C2674 H2716 0.929 . S
C2675 C2672 1.356 . S
C2675 C2677 1.358 . S
C2675 H2717 0.930 . S
C2676 N2673 1.314 . S
C2676 C2674 1.353 . S
C2676 H2718 0.930 . S
C2677 N2673 1.279 . S
C2677 C2675 1.358 . S
C2677 H2719 0.930 . S
C2678 C2679 1.348 . S
C2678 C2680 1.356 . S
C2678 O2703 1.325 . S
C2679 C2678 1.348 . S
C2679 C2681 1.353 . S
C2679 H2720 0.929 . S
C2680 C2678 1.356 . S
C2680 C2682 1.358 . S
C2680 H2721 0.930 . S
C2681 C2679 1.353 . S
C2681 N2683 1.314 . S
C2681 H2722 0.930 . S
C2682 C2680 1.358 . S
C2682 N2683 1.279 . S
C2682 H2723 0.930 . S
N2683 C2681 1.314 . S
N2683 C2682 1.279 . S
C2684 C2686 1.353 . S
C2684 N2687 1.314 . S
C2684 H2690 0.930 . S
C2685 N2687 1.279 . S
C2685 C2688 1.358 . S
C2685 H2691 0.930 . S
C2686 C2684 1.353 . S
C2686 C2689 1.348 . S
C2686 H2724 0.929 1_556 S
N2687 Li2642 1.990 . S
N2687 C2684 1.314 . S
N2687 C2685 1.279 . S
C2688 C2685 1.358 . S
C2688 C2689 1.356 . S
C2688 H2725 0.930 . S
C2689 C2686 1.348 . S
C2689 C2688 1.356 . S
H2690 C2684 0.930 . S
H2691 C2685 0.930 . S
C2692 N2693 1.314 . S
C2692 C2694 1.353 . S
C2692 H2698 0.930 . S
N2693 Li2643 1.990 . S
N2693 C2692 1.314 . S
N2693 C2696 1.279 . S
C2694 C2692 1.353 . S
C2694 C2697 1.348 . S
C2694 H2726 0.929 . S
C2695 C2696 1.358 . S
C2695 C2697 1.356 . S
C2695 H2727 0.930 . S
C2696 N2693 1.279 . S
C2696 C2695 1.358 . S
C2696 H2699 0.930 . S
C2697 C2694 1.348 . S
C2697 C2695 1.356 . S
H2698 C2692 0.930 . S
H2699 C2696 0.930 . S
O2700 Li2640 1.956 . S
O2700 Li2641 1.970 . S
O2700 Li2642 1.961 . S
O2700 C2644 1.325 . S
O2701 Li2640 1.970 . S
O2701 Li2641 1.956 . S
O2701 Li2643 1.961 . S
O2701 C2650 1.325 . S
O2702 Li2640 1.961 . S
O2702 Li2642 1.956 . S
O2702 Li2643 1.970 . S
O2702 C2672 1.325 . S
O2703 Li2641 1.961 . S
O2703 Li2642 1.970 . S
O2703 Li2643 1.956 . S
O2703 C2678 1.325 . S
H2704 C2646 0.929 . S
H2705 C2647 0.930 . S
H2706 C2648 0.930 . S
H2707 C2649 0.930 . S
H2708 C2651 0.930 . S
H2709 C2653 0.929 . S
H2710 C2654 0.930 . S
H2711 C2655 0.930 . S
H2712 C2658 0.930 . S
H2713 C2661 0.929 . S
H2714 C2666 0.929 . S
H2715 C2667 0.930 . S
H2716 C2674 0.929 . S
H2717 C2675 0.930 . S
H2718 C2676 0.930 . S
H2719 C2677 0.930 . S
H2720 C2679 0.929 . S
H2721 C2680 0.930 . S
H2722 C2681 0.930 . S
H2723 C2682 0.930 . S
H2724 C2686 0.929 1_554 S
H2725 C2688 0.930 . S
H2726 C2694 0.929 . S
H2727 C2695 0.930 . S
Li2728 N2745 1.990 . S
Li2728 O2788 1.956 . S
Li2728 O2789 1.970 . S
Li2728 O2790 1.961 . S
Li2729 N2753 1.990 . S
Li2729 O2788 1.970 . S
Li2729 O2789 1.956 . S
Li2729 O2791 1.961 . S
Li2730 N2775 1.990 . S
Li2730 O2788 1.961 . S
Li2730 O2790 1.956 . S
Li2730 O2791 1.970 . S
Li2731 N2781 1.990 . S
Li2731 O2789 1.961 . S
Li2731 O2790 1.970 . S
Li2731 O2791 1.956 . S
C2732 C2734 1.348 . S
C2732 C2735 1.356 . S
C2732 O2788 1.325 . S
N2733 C2736 1.314 . S
N2733 C2737 1.279 . S
C2734 C2732 1.348 . S
C2734 C2736 1.353 . S
C2734 H2792 0.929 . S
C2735 C2732 1.356 . S
C2735 C2737 1.358 . S
C2735 H2793 0.930 . S
C2736 N2733 1.314 . S
C2736 C2734 1.353 . S
C2736 H2794 0.930 . S
C2737 N2733 1.279 . S
C2737 C2735 1.358 . S
C2737 H2795 0.930 . S
C2738 C2741 1.348 . S
C2738 C2742 1.356 . S
C2738 O2789 1.325 . S
C2739 N2740 1.279 . S
C2739 C2742 1.358 . S
C2739 H2796 0.930 . S
N2740 C2739 1.279 . S
N2740 C2743 1.314 . S
C2741 C2738 1.348 . S
C2741 C2743 1.353 . S
C2741 H2797 0.929 . S
C2742 C2738 1.356 . S
C2742 C2739 1.358 . S
C2742 H2798 0.930 . S
C2743 N2740 1.314 . S
C2743 C2741 1.353 . S
C2743 H2799 0.930 . S
C2744 N2745 1.314 . S
C2744 C2749 1.353 . S
C2744 H2750 0.930 . S
N2745 Li2728 1.990 . S
N2745 C2744 1.314 . S
N2745 C2747 1.279 . S
C2746 C2747 1.358 . S
C2746 C2748 1.356 . S
C2746 H2800 0.930 . S
C2747 N2745 1.279 . S
C2747 C2746 1.358 . S
C2747 H2751 0.930 . S
C2748 C2746 1.356 . S
C2748 C2749 1.348 . S
C2749 C2744 1.353 . S
C2749 C2748 1.348 . S
C2749 H2801 0.929 . S
H2750 C2744 0.930 . S
H2751 C2747 0.930 . S
C2752 N2753 1.314 . S
C2752 C2754 1.353 . S
C2752 H2758 0.930 . S
N2753 Li2729 1.990 . S
N2753 C2752 1.314 . S
N2753 C2756 1.279 . S
C2754 C2752 1.353 . S
C2754 C2757 1.348 . S
C2754 H2802 0.929 . S
C2755 C2756 1.358 . S
C2755 C2757 1.356 . S
C2755 H2803 0.930 . S
C2756 N2753 1.279 . S
C2756 C2755 1.358 . S
C2756 H2759 0.930 . S
C2757 C2754 1.348 . S
C2757 C2755 1.356 . S
H2758 C2752 0.930 . S
H2759 C2756 0.930 . S
C2760 C2762 1.348 . S
C2760 C2763 1.356 . S
C2760 O2790 1.325 . S
N2761 C2764 1.314 . S
N2761 C2765 1.279 . S
C2762 C2760 1.348 . S
C2762 C2764 1.353 . S
C2762 H2804 0.929 . S
C2763 C2760 1.356 . S
C2763 C2765 1.358 . S
C2763 H2805 0.930 . S
C2764 N2761 1.314 . S
C2764 C2762 1.353 . S
C2764 H2806 0.930 . S
C2765 N2761 1.279 . S
C2765 C2763 1.358 . S
C2765 H2807 0.930 . S
C2766 C2767 1.348 . S
C2766 C2768 1.356 . S
C2766 O2791 1.325 . S
C2767 C2766 1.348 . S
C2767 C2769 1.353 . S
C2767 H2808 0.929 . S
C2768 C2766 1.356 . S
C2768 C2770 1.358 . S
C2768 H2809 0.930 . S
C2769 C2767 1.353 . S
C2769 N2771 1.314 . S
C2769 H2810 0.930 . S
C2770 C2768 1.358 . S
C2770 N2771 1.279 . S
C2770 H2811 0.930 . S
N2771 C2769 1.314 . S
N2771 C2770 1.279 . S
C2772 C2774 1.353 . S
C2772 N2775 1.314 . S
C2772 H2778 0.930 . S
C2773 N2775 1.279 . S
C2773 C2776 1.358 . S
C2773 H2779 0.930 . S
C2774 C2772 1.353 . S
C2774 C2777 1.348 . S
C2774 H2812 0.929 . S
N2775 Li2730 1.990 . S
N2775 C2772 1.314 . S
N2775 C2773 1.279 . S
C2776 C2773 1.358 . S
C2776 C2777 1.356 . S
C2776 H2813 0.930 . S
C2777 C2774 1.348 . S
C2777 C2776 1.356 . S
H2778 C2772 0.930 . S
H2779 C2773 0.930 . S
C2780 N2781 1.314 . S
C2780 C2782 1.353 . S
C2780 H2786 0.930 . S
N2781 Li2731 1.990 . S
N2781 C2780 1.314 . S
N2781 C2784 1.279 . S
C2782 C2780 1.353 . S
C2782 C2785 1.348 . S
C2782 H2814 0.929 . S
C2783 C2784 1.358 . S
C2783 C2785 1.356 . S
C2783 H2815 0.930 . S
C2784 N2781 1.279 . S
C2784 C2783 1.358 . S
C2784 H2787 0.930 . S
C2785 C2782 1.348 . S
C2785 C2783 1.356 . S
H2786 C2780 0.930 . S
H2787 C2784 0.930 . S
O2788 Li2728 1.956 . S
O2788 Li2729 1.970 . S
O2788 Li2730 1.961 . S
O2788 C2732 1.325 . S
O2789 Li2728 1.970 . S
O2789 Li2729 1.956 . S
O2789 Li2731 1.961 . S
O2789 C2738 1.325 . S
O2790 Li2728 1.961 . S
O2790 Li2730 1.956 . S
O2790 Li2731 1.970 . S
O2790 C2760 1.325 . S
O2791 Li2729 1.961 . S
O2791 Li2730 1.970 . S
O2791 Li2731 1.956 . S
O2791 C2766 1.325 . S
H2792 C2734 0.929 . S
H2793 C2735 0.930 . S
H2794 C2736 0.930 . S
H2795 C2737 0.930 . S
H2796 C2739 0.930 . S
H2797 C2741 0.929 . S
H2798 C2742 0.930 . S
H2799 C2743 0.930 . S
H2800 C2746 0.930 . S
H2801 C2749 0.929 . S
H2802 C2754 0.929 . S
H2803 C2755 0.930 . S
H2804 C2762 0.929 . S
H2805 C2763 0.930 . S
H2806 C2764 0.930 . S
H2807 C2765 0.930 . S
H2808 C2767 0.929 . S
H2809 C2768 0.930 . S
H2810 C2769 0.930 . S
H2811 C2770 0.930 . S
H2812 C2774 0.929 . S
H2813 C2776 0.930 . S
H2814 C2782 0.929 . S
H2815 C2783 0.930 . S
C2816 C2817 1.387 . S
C2816 H2820 0.950 . S
C2816 C2825 1.390 . S
C2817 C2816 1.387 . S
C2817 C2819 1.387 . S
H2818 C2825 0.950 . S
C2819 C2817 1.387 . S
C2819 C2821 1.390 . S
C2819 H2823 0.950 . S
H2820 C2816 0.950 . S
C2821 C2819 1.390 . S
C2821 C2822 1.387 . S
C2821 H2824 0.950 . S
C2822 C2821 1.387 . S
C2822 C2825 1.387 . S
H2823 C2819 0.950 . S
H2824 C2821 0.950 . S
C2825 C2816 1.390 . S
C2825 H2818 0.950 . S
C2825 C2822 1.387 . S
C2826 C2827 1.387 . S
C2826 H2830 0.950 . S
C2826 C2835 1.390 1_565 S
C2827 C2826 1.387 . S
C2827 C2829 1.387 . S
H2828 C2835 0.950 . S
C2829 C2827 1.387 . S
C2829 C2831 1.390 1_565 S
C2829 H2833 0.950 . S
H2830 C2826 0.950 . S
C2831 C2829 1.390 1_545 S
C2831 C2832 1.387 . S
C2831 H2834 0.950 . S
C2832 C2831 1.387 . S
C2832 C2835 1.387 . S
H2833 C2829 0.950 . S
H2834 C2831 0.950 . S
C2835 C2826 1.390 1_545 S
C2835 H2828 0.950 . S
C2835 C2832 1.387 . S
C2836 C2837 1.387 . S
C2836 H2840 0.950 . S
C2836 C2845 1.390 1_554 S
C2837 C2836 1.387 . S
C2837 C2839 1.387 . S
H2838 C2845 0.950 . S
C2839 C2837 1.387 . S
C2839 C2841 1.390 1_554 S
C2839 H2843 0.950 . S
H2840 C2836 0.950 . S
C2841 C2839 1.390 1_556 S
C2841 C2842 1.387 . S
C2841 H2844 0.950 . S
C2842 C2841 1.387 . S
C2842 C2845 1.387 . S
H2843 C2839 0.950 . S
H2844 C2841 0.950 . S
C2845 C2836 1.390 1_556 S
C2845 H2838 0.950 . S
C2845 C2842 1.387 . S
C2846 C2847 1.387 . S
C2846 H2850 0.950 . S
C2846 C2855 1.390 1_545 S
C2847 C2846 1.387 . S
C2847 C2849 1.387 . S
H2848 C2855 0.950 . S
C2849 C2847 1.387 . S
C2849 C2851 1.390 1_545 S
C2849 H2853 0.950 . S
H2850 C2846 0.950 . S
C2851 C2849 1.390 1_565 S
C2851 C2852 1.387 . S
C2851 H2854 0.950 . S
C2852 C2851 1.387 . S
C2852 C2855 1.387 . S
H2853 C2849 0.950 . S
H2854 C2851 0.950 . S
C2855 C2846 1.390 1_565 S
C2855 H2848 0.950 . S
C2855 C2852 1.387 . S
C2856 C2857 1.387 . S
C2856 H2860 0.950 . S
C2856 C2865 1.390 . S
C2857 C2856 1.387 . S
C2857 C2859 1.387 . S
H2858 C2865 0.950 . S
C2859 C2857 1.387 . S
C2859 C2861 1.390 . S
C2859 H2863 0.950 . S
H2860 C2856 0.950 . S
C2861 C2859 1.390 . S
C2861 C2862 1.387 . S
C2861 H2864 0.950 . S
C2862 C2861 1.387 . S
C2862 C2865 1.387 . S
H2863 C2859 0.950 . S
H2864 C2861 0.950 . S
C2865 C2856 1.390 . S
C2865 H2858 0.950 . S
C2865 C2862 1.387 . S
C2866 C2867 1.387 . S
C2866 H2870 0.950 . S
C2866 C2875 1.390 1_545 S
C2867 C2866 1.387 . S
C2867 C2869 1.387 . S
H2868 C2875 0.950 . S
C2869 C2867 1.387 . S
C2869 C2871 1.390 1_545 S
C2869 H2873 0.950 . S
H2870 C2866 0.950 . S
C2871 C2869 1.390 1_565 S
C2871 C2872 1.387 . S
C2871 H2874 0.950 . S
C2872 C2871 1.387 . S
C2872 C2875 1.387 . S
H2873 C2869 0.950 . S
H2874 C2871 0.950 . S
C2875 C2866 1.390 1_565 S
C2875 H2868 0.950 . S
C2875 C2872 1.387 . S
C2876 C2877 1.387 . S
C2876 H2880 0.950 . S
C2876 C2885 1.390 1_556 S
C2877 C2876 1.387 . S
C2877 C2879 1.387 . S
H2878 C2885 0.950 . S
C2879 C2877 1.387 . S
C2879 C2881 1.390 1_556 S
C2879 H2883 0.950 . S
H2880 C2876 0.950 . S
C2881 C2879 1.390 1_554 S
C2881 C2882 1.387 . S
C2881 H2884 0.950 . S
C2882 C2881 1.387 . S
C2882 C2885 1.387 . S
H2883 C2879 0.950 . S
H2884 C2881 0.950 . S
C2885 C2876 1.390 1_554 S
C2885 H2878 0.950 . S
C2885 C2882 1.387 . S
C2886 C2887 1.387 . S
C2886 H2890 0.950 . S
C2886 C2895 1.390 1_565 S
C2887 C2886 1.387 . S
C2887 C2889 1.387 . S
H2888 C2895 0.950 . S
C2889 C2887 1.387 . S
C2889 C2891 1.390 1_565 S
C2889 H2893 0.950 . S
H2890 C2886 0.950 . S
C2891 C2889 1.390 1_545 S
C2891 C2892 1.387 . S
C2891 H2894 0.950 . S
C2892 C2891 1.387 . S
C2892 C2895 1.387 . S
H2893 C2889 0.950 . S
H2894 C2891 0.950 . S
C2895 C2886 1.390 1_545 S
C2895 H2888 0.950 . S
C2895 C2892 1.387 . S
C2896 C2897 1.387 . S
C2896 H2900 0.950 . S
C2896 C2905 1.390 1_556 S
C2897 C2896 1.387 . S
C2897 C2899 1.387 . S
H2898 C2905 0.950 . S
C2899 C2897 1.387 . S
C2899 C2901 1.390 1_556 S
C2899 H2903 0.950 . S
H2900 C2896 0.950 . S
C2901 C2899 1.390 1_554 S
C2901 C2902 1.387 . S
C2901 H2904 0.950 . S
C2902 C2901 1.387 . S
C2902 C2905 1.387 . S
H2903 C2899 0.950 . S
H2904 C2901 0.950 . S
C2905 C2896 1.390 1_554 S
C2905 H2898 0.950 . S
C2905 C2902 1.387 . S
C2906 C2907 1.387 . S
C2906 H2910 0.950 . S
C2906 C2915 1.390 . S
C2907 C2906 1.387 . S
C2907 C2909 1.387 . S
H2908 C2915 0.950 . S
C2909 C2907 1.387 . S
C2909 C2911 1.390 . S
C2909 H2913 0.950 . S
H2910 C2906 0.950 . S
C2911 C2909 1.390 . S
C2911 C2912 1.387 . S
C2911 H2914 0.950 . S
C2912 C2911 1.387 . S
C2912 C2915 1.387 . S
H2913 C2909 0.950 . S
H2914 C2911 0.950 . S
C2915 C2906 1.390 . S
C2915 H2908 0.950 . S
C2915 C2912 1.387 . S
C2916 C2917 1.387 . S
C2916 H2920 0.950 . S
C2916 C2925 1.390 . S
C2917 C2916 1.387 . S
C2917 C2919 1.387 . S
H2918 C2925 0.950 . S
C2919 C2917 1.387 . S
C2919 C2921 1.390 . S
C2919 H2923 0.950 . S
H2920 C2916 0.950 . S
C2921 C2919 1.390 . S
C2921 C2922 1.387 . S
C2921 H2924 0.950 . S
C2922 C2921 1.387 . S
C2922 C2925 1.387 . S
H2923 C2919 0.950 . S
H2924 C2921 0.950 . S
C2925 C2916 1.390 . S
C2925 H2918 0.950 . S
C2925 C2922 1.387 . S
C2926 C2927 1.387 . S
C2926 H2930 0.950 . S
C2926 C2935 1.390 . S
C2927 C2926 1.387 . S
C2927 C2929 1.387 . S
H2928 C2935 0.950 . S
C2929 C2927 1.387 . S
C2929 C2931 1.390 . S
C2929 H2933 0.950 . S
H2930 C2926 0.950 . S
C2931 C2929 1.390 . S
C2931 C2932 1.387 . S
C2931 H2934 0.950 . S
C2932 C2931 1.387 . S
C2932 C2935 1.387 . S
H2933 C2929 0.950 . S
H2934 C2931 0.950 . S
C2935 C2926 1.390 . S
C2935 H2928 0.950 . S
C2935 C2932 1.387 . S
C2936 C2937 1.387 . S
C2936 H2940 0.950 . S
C2936 C2945 1.390 1_556 S
C2937 C2936 1.387 . S
C2937 C2939 1.387 . S
H2938 C2945 0.950 . S
C2939 C2937 1.387 . S
C2939 C2941 1.390 1_556 S
C2939 H2943 0.950 . S
H2940 C2936 0.950 . S
C2941 C2939 1.390 1_554 S
C2941 C2942 1.387 . S
C2941 H2944 0.950 . S
C2942 C2941 1.387 . S
C2942 C2945 1.387 . S
H2943 C2939 0.950 . S
H2944 C2941 0.950 . S
C2945 C2936 1.390 1_554 S
C2945 H2938 0.950 . S
C2945 C2942 1.387 . S
C2946 C2947 1.387 . S
C2946 H2950 0.950 . S
C2946 C2955 1.390 . S
C2947 C2946 1.387 . S
C2947 C2949 1.387 . S
H2948 C2955 0.950 . S
C2949 C2947 1.387 . S
C2949 C2951 1.390 . S
C2949 H2953 0.950 . S
H2950 C2946 0.950 . S
C2951 C2949 1.390 . S
C2951 C2952 1.387 . S
C2951 H2954 0.950 . S
C2952 C2951 1.387 . S
C2952 C2955 1.387 . S
H2953 C2949 0.950 . S
H2954 C2951 0.950 . S
C2955 C2946 1.390 . S
C2955 H2948 0.950 . S
C2955 C2952 1.387 . S
C2956 C2957 1.387 . S
C2956 H2960 0.950 . S
C2956 C2965 1.390 . S
C2957 C2956 1.387 . S
C2957 C2959 1.387 . S
H2958 C2965 0.950 . S
C2959 C2957 1.387 . S
C2959 C2961 1.390 . S
C2959 H2963 0.950 . S
H2960 C2956 0.950 . S
C2961 C2959 1.390 . S
C2961 C2962 1.387 . S
C2961 H2964 0.950 . S
C2962 C2961 1.387 . S
C2962 C2965 1.387 . S
H2963 C2959 0.950 . S
H2964 C2961 0.950 . S
C2965 C2956 1.390 . S
C2965 H2958 0.950 . S
C2965 C2962 1.387 . S
C2966 C2967 1.387 . S
C2966 H2970 0.950 . S
C2966 C2975 1.390 . S
C2967 C2966 1.387 . S
C2967 C2969 1.387 . S
H2968 C2975 0.950 . S
C2969 C2967 1.387 . S
C2969 C2971 1.390 . S
C2969 H2973 0.950 . S
H2970 C2966 0.950 . S
C2971 C2969 1.390 . S
C2971 C2972 1.387 . S
C2971 H2974 0.950 . S
C2972 C2971 1.387 . S
C2972 C2975 1.387 . S
H2973 C2969 0.950 . S
H2974 C2971 0.950 . S
C2975 C2966 1.390 . S
C2975 H2968 0.950 . S
C2975 C2972 1.387 . S
C2976 C2977 1.387 . S
C2976 H2980 0.950 . S
C2976 C2985 1.390 . S
C2977 C2976 1.387 . S
C2977 C2979 1.387 . S
H2978 C2985 0.950 . S
C2979 C2977 1.387 . S
C2979 C2981 1.390 . S
C2979 H2983 0.950 . S
H2980 C2976 0.950 . S
C2981 C2979 1.390 . S
C2981 C2982 1.387 . S
C2981 H2984 0.950 . S
C2982 C2981 1.387 . S
C2982 C2985 1.387 . S
H2983 C2979 0.950 . S
H2984 C2981 0.950 . S
C2985 C2976 1.390 . S
C2985 H2978 0.950 . S
C2985 C2982 1.387 . S
C2986 C2987 1.387 . S
C2986 H2990 0.950 . S
C2986 C2995 1.390 . S
C2987 C2986 1.387 . S
C2987 C2989 1.387 . S
H2988 C2995 0.950 . S
C2989 C2987 1.387 . S
C2989 C2991 1.390 . S
C2989 H2993 0.950 . S
H2990 C2986 0.950 . S
C2991 C2989 1.390 . S
C2991 C2992 1.387 . S
C2991 H2994 0.950 . S
C2992 C2991 1.387 . S
C2992 C2995 1.387 . S
H2993 C2989 0.950 . S
H2994 C2991 0.950 . S
C2995 C2986 1.390 . S
C2995 H2988 0.950 . S
C2995 C2992 1.387 . S
C2996 C2997 1.387 . S
C2996 H3000 0.950 . S
C2996 C3005 1.390 . S
C2997 C2996 1.387 . S
C2997 C2999 1.387 . S
H2998 C3005 0.950 . S
C2999 C2997 1.387 . S
C2999 C3001 1.390 . S
C2999 H3003 0.950 . S
H3000 C2996 0.950 . S
C3001 C2999 1.390 . S
C3001 C3002 1.387 . S
C3001 H3004 0.950 . S
C3002 C3001 1.387 . S
C3002 C3005 1.387 . S
H3003 C2999 0.950 . S
H3004 C3001 0.950 . S
C3005 C2996 1.390 . S
C3005 H2998 0.950 . S
C3005 C3002 1.387 . S
C3006 C3007 1.387 . S
C3006 H3010 0.950 . S
C3006 C3015 1.390 . S
C3007 C3006 1.387 . S
C3007 C3009 1.387 . S
H3008 C3015 0.950 . S
C3009 C3007 1.387 . S
C3009 C3011 1.390 . S
C3009 H3013 0.950 . S
H3010 C3006 0.950 . S
C3011 C3009 1.390 . S
C3011 C3012 1.387 . S
C3011 H3014 0.950 . S
C3012 C3011 1.387 . S
C3012 C3015 1.387 . S
H3013 C3009 0.950 . S
H3014 C3011 0.950 . S
C3015 C3006 1.390 . S
C3015 H3008 0.950 . S
C3015 C3012 1.387 . S
C3016 C3017 1.387 . S
C3016 H3020 0.950 . S
C3016 C3025 1.390 . S
C3017 C3016 1.387 . S
C3017 C3019 1.387 . S
H3018 C3025 0.950 . S
C3019 C3017 1.387 . S
C3019 C3021 1.390 . S
C3019 H3023 0.950 . S
H3020 C3016 0.950 . S
C3021 C3019 1.390 . S
C3021 C3022 1.387 . S
C3021 H3024 0.950 . S
C3022 C3021 1.387 . S
C3022 C3025 1.387 . S
H3023 C3019 0.950 . S
H3024 C3021 0.950 . S
C3025 C3016 1.390 . S
C3025 H3018 0.950 . S
C3025 C3022 1.387 . S
C3026 C3027 1.387 . S
C3026 H3030 0.950 . S
C3026 C3035 1.390 . S
C3027 C3026 1.387 . S
C3027 C3029 1.387 . S
H3028 C3035 0.950 . S
C3029 C3027 1.387 . S
C3029 C3031 1.390 . S
C3029 H3033 0.950 . S
H3030 C3026 0.950 . S
C3031 C3029 1.390 . S
C3031 C3032 1.387 . S
C3031 H3034 0.950 . S
C3032 C3031 1.387 . S
C3032 C3035 1.387 . S
H3033 C3029 0.950 . S
H3034 C3031 0.950 . S
C3035 C3026 1.390 . S
C3035 H3028 0.950 . S
C3035 C3032 1.387 . S
C3036 C3037 1.387 . S
C3036 H3040 0.950 . S
C3036 C3045 1.390 . S
C3037 C3036 1.387 . S
C3037 C3039 1.387 . S
H3038 C3045 0.950 . S
C3039 C3037 1.387 . S
C3039 C3041 1.390 . S
C3039 H3043 0.950 . S
H3040 C3036 0.950 . S
C3041 C3039 1.390 . S
C3041 C3042 1.387 . S
C3041 H3044 0.950 . S
C3042 C3041 1.387 . S
C3042 C3045 1.387 . S
H3043 C3039 0.950 . S
H3044 C3041 0.950 . S
C3045 C3036 1.390 . S
C3045 H3038 0.950 . S
C3045 C3042 1.387 . S
C3046 C3047 1.387 . S
C3046 H3050 0.950 . S
C3046 C3055 1.390 . S
C3047 C3046 1.387 . S
C3047 C3049 1.387 . S
H3048 C3055 0.950 . S
C3049 C3047 1.387 . S
C3049 C3051 1.390 . S
C3049 H3053 0.950 . S
H3050 C3046 0.950 . S
C3051 C3049 1.390 . S
C3051 C3052 1.387 . S
C3051 H3054 0.950 . S
C3052 C3051 1.387 . S
C3052 C3055 1.387 . S
H3053 C3049 0.950 . S
H3054 C3051 0.950 . S
C3055 C3046 1.390 . S
C3055 H3048 0.950 . S
C3055 C3052 1.387 . S
C3056 C3057 1.387 . S
C3056 H3060 0.950 . S
C3056 C3065 1.390 . S
C3057 C3056 1.387 . S
C3057 C3059 1.387 . S
H3058 C3065 0.950 . S
C3059 C3057 1.387 . S
C3059 C3061 1.390 . S
C3059 H3063 0.950 . S
H3060 C3056 0.950 . S
C3061 C3059 1.390 . S
C3061 C3062 1.387 . S
C3061 H3064 0.950 . S
C3062 C3061 1.387 . S
C3062 C3065 1.387 . S
H3063 C3059 0.950 . S
H3064 C3061 0.950 . S
C3065 C3056 1.390 . S
C3065 H3058 0.950 . S
C3065 C3062 1.387 . S
C3066 C3067 1.387 . S
C3066 H3070 0.950 . S
C3066 C3075 1.390 . S
C3067 C3066 1.387 . S
C3067 C3069 1.387 . S
H3068 C3075 0.950 . S
C3069 C3067 1.387 . S
C3069 C3071 1.390 . S
C3069 H3073 0.950 . S
H3070 C3066 0.950 . S
C3071 C3069 1.390 . S
C3071 C3072 1.387 . S
C3071 H3074 0.950 . S
C3072 C3071 1.387 . S
C3072 C3075 1.387 . S
H3073 C3069 0.950 . S
H3074 C3071 0.950 . S
C3075 C3066 1.390 . S
C3075 H3068 0.950 . S
C3075 C3072 1.387 . S
C3076 C3077 1.387 . S
C3076 H3080 0.950 . S
C3076 C3085 1.390 . S
C3077 C3076 1.387 . S
C3077 C3079 1.387 . S
H3078 C3085 0.950 . S
C3079 C3077 1.387 . S
C3079 C3081 1.390 . S
C3079 H3083 0.950 . S
H3080 C3076 0.950 . S
C3081 C3079 1.390 . S
C3081 C3082 1.387 . S
C3081 H3084 0.950 . S
C3082 C3081 1.387 . S
C3082 C3085 1.387 . S
H3083 C3079 0.950 . S
H3084 C3081 0.950 . S
C3085 C3076 1.390 . S
C3085 H3078 0.950 . S
C3085 C3082 1.387 . S
C3086 C3087 1.387 . S
C3086 H3090 0.950 . S
C3086 C3095 1.390 . S
C3087 C3086 1.387 . S
C3087 C3089 1.387 . S
H3088 C3095 0.950 . S
C3089 C3087 1.387 . S
C3089 C3091 1.390 . S
C3089 H3093 0.950 . S
H3090 C3086 0.950 . S
C3091 C3089 1.390 . S
C3091 C3092 1.387 . S
C3091 H3094 0.950 . S
C3092 C3091 1.387 . S
C3092 C3095 1.387 . S
H3093 C3089 0.950 . S
H3094 C3091 0.950 . S
C3095 C3086 1.390 . S
C3095 H3088 0.950 . S
C3095 C3092 1.387 . S
C3096 C3097 1.387 . S
C3096 H3100 0.950 . S
C3096 C3105 1.390 . S
C3097 C3096 1.387 . S
C3097 C3099 1.387 . S
H3098 C3105 0.950 . S
C3099 C3097 1.387 . S
C3099 C3101 1.390 . S
C3099 H3103 0.950 . S
H3100 C3096 0.950 . S
C3101 C3099 1.390 . S
C3101 C3102 1.387 . S
C3101 H3104 0.950 . S
C3102 C3101 1.387 . S
C3102 C3105 1.387 . S
H3103 C3099 0.950 . S
H3104 C3101 0.950 . S
C3105 C3096 1.390 . S
C3105 H3098 0.950 . S
C3105 C3102 1.387 . S
C3106 C3107 1.387 . S
C3106 H3110 0.950 . S
C3106 C3115 1.390 . S
C3107 C3106 1.387 . S
C3107 C3109 1.387 . S
H3108 C3115 0.950 . S
C3109 C3107 1.387 . S
C3109 C3111 1.390 . S
C3109 H3113 0.950 . S
H3110 C3106 0.950 . S
C3111 C3109 1.390 . S
C3111 C3112 1.387 . S
C3111 H3114 0.950 . S
C3112 C3111 1.387 . S
C3112 C3115 1.387 . S
H3113 C3109 0.950 . S
H3114 C3111 0.950 . S
C3115 C3106 1.390 . S
C3115 H3108 0.950 . S
C3115 C3112 1.387 . S
C3116 C3117 1.387 . S
C3116 H3120 0.950 . S
C3116 C3125 1.390 . S
C3117 C3116 1.387 . S
C3117 C3119 1.387 . S
H3118 C3125 0.950 . S
C3119 C3117 1.387 . S
C3119 C3121 1.390 . S
C3119 H3123 0.950 . S
H3120 C3116 0.950 . S
C3121 C3119 1.390 . S
C3121 C3122 1.387 . S
C3121 H3124 0.950 . S
C3122 C3121 1.387 . S
C3122 C3125 1.387 . S
H3123 C3119 0.950 . S
H3124 C3121 0.950 . S
C3125 C3116 1.390 . S
C3125 H3118 0.950 . S
C3125 C3122 1.387 . S
C3126 C3127 1.387 . S
C3126 H3130 0.950 . S
C3126 C3135 1.390 . S
C3127 C3126 1.387 . S
C3127 C3129 1.387 . S
H3128 C3135 0.950 . S
C3129 C3127 1.387 . S
C3129 C3131 1.390 . S
C3129 H3133 0.950 . S
H3130 C3126 0.950 . S
C3131 C3129 1.390 . S
C3131 C3132 1.387 . S
C3131 H3134 0.950 . S
C3132 C3131 1.387 . S
C3132 C3135 1.387 . S
H3133 C3129 0.950 . S
H3134 C3131 0.950 . S
C3135 C3126 1.390 . S
C3135 H3128 0.950 . S
C3135 C3132 1.387 . S
C3136 C3137 1.387 . S
C3136 H3140 0.950 . S
C3136 C3145 1.390 . S
C3137 C3136 1.387 . S
C3137 C3139 1.387 . S
H3138 C3145 0.950 . S
C3139 C3137 1.387 . S
C3139 C3141 1.390 . S
C3139 H3143 0.950 . S
H3140 C3136 0.950 . S
C3141 C3139 1.390 . S
C3141 C3142 1.387 . S
C3141 H3144 0.950 . S
C3142 C3141 1.387 . S
C3142 C3145 1.387 . S
H3143 C3139 0.950 . S
H3144 C3141 0.950 . S
C3145 C3136 1.390 . S
C3145 H3138 0.950 . S
C3145 C3142 1.387 . S
C3146 C3147 1.387 . S
C3146 H3150 0.950 . S
C3146 C3155 1.452 . S
C3147 C3146 1.387 . S
C3147 C3149 1.387 . S
H3148 C3155 0.920 1_455 S
C3149 C3147 1.387 . S
C3149 C3151 1.390 . S
C3149 H3153 0.950 . S
H3150 C3146 0.950 . S
C3151 C3149 1.390 . S
C3151 C3152 1.387 1_655 S
C3151 H3154 0.950 1_655 S
C3152 C3151 1.387 1_455 S
C3152 C3155 1.360 1_455 S
H3153 C3149 0.950 . S
H3154 C3151 0.950 1_455 S
C3155 C3146 1.452 . S
C3155 H3148 0.920 1_655 S
C3155 C3152 1.360 1_655 S
C3156 C3157 1.387 . S
C3156 H3160 0.950 . S
C3156 C3165 1.390 . S
C3157 C3156 1.387 . S
C3157 C3159 1.387 . S
H3158 C3165 0.950 . S
C3159 C3157 1.387 . S
C3159 C3161 1.390 . S
C3159 H3163 0.950 . S
H3160 C3156 0.950 . S
C3161 C3159 1.390 . S
C3161 C3162 1.387 . S
C3161 H3164 0.950 . S
C3162 C3161 1.387 . S
C3162 C3165 1.387 . S
H3163 C3159 0.950 . S
H3164 C3161 0.950 . S
C3165 C3156 1.390 . S
C3165 H3158 0.950 . S
C3165 C3162 1.387 . S
C3166 C3167 1.387 . S
C3166 H3170 0.950 . S
C3166 C3175 1.390 . S
C3167 C3166 1.387 . S
C3167 C3169 1.387 . S
H3168 C3175 0.950 . S
C3169 C3167 1.387 . S
C3169 C3171 1.390 . S
C3169 H3173 0.950 . S
H3170 C3166 0.950 . S
C3171 C3169 1.390 . S
C3171 C3172 1.387 . S
C3171 H3174 0.950 . S
C3172 C3171 1.387 . S
C3172 C3175 1.387 . S
H3173 C3169 0.950 . S
H3174 C3171 0.950 . S
C3175 C3166 1.390 . S
C3175 H3168 0.950 . S
C3175 C3172 1.387 . S
C3176 C3177 1.387 . S
C3176 H3180 0.950 . S
C3176 C3185 1.390 . S
C3177 C3176 1.387 . S
C3177 C3179 1.387 . S
H3178 C3185 0.950 . S
C3179 C3177 1.387 . S
C3179 C3181 1.390 . S
C3179 H3183 0.950 . S
H3180 C3176 0.950 . S
C3181 C3179 1.390 . S
C3181 C3182 1.387 . S
C3181 H3184 0.950 . S
C3182 C3181 1.387 . S
C3182 C3185 1.387 . S
H3183 C3179 0.950 . S
H3184 C3181 0.950 . S
C3185 C3176 1.390 . S
C3185 H3178 0.950 . S
C3185 C3182 1.387 . S
C3186 C3187 1.387 . S
C3186 H3190 0.950 . S
C3186 C3195 1.390 . S
C3187 C3186 1.387 . S
C3187 C3189 1.387 . S
H3188 C3195 0.950 . S
C3189 C3187 1.387 . S
C3189 C3191 1.390 . S
C3189 H3193 0.950 . S
H3190 C3186 0.950 . S
C3191 C3189 1.390 . S
C3191 C3192 1.387 . S
C3191 H3194 0.950 . S
C3192 C3191 1.387 . S
C3192 C3195 1.387 . S
H3193 C3189 0.950 . S
H3194 C3191 0.950 . S
C3195 C3186 1.390 . S
C3195 H3188 0.950 . S
C3195 C3192 1.387 . S
C3196 C3197 1.387 . S
C3196 H3200 0.950 . S
C3196 C3205 1.390 . S
C3197 C3196 1.387 . S
C3197 C3199 1.387 . S
H3198 C3205 0.950 . S
C3199 C3197 1.387 . S
C3199 C3201 1.390 . S
C3199 H3203 0.950 . S
H3200 C3196 0.950 . S
C3201 C3199 1.390 . S
C3201 C3202 1.387 . S
C3201 H3204 0.950 . S
C3202 C3201 1.387 . S
C3202 C3205 1.387 . S
H3203 C3199 0.950 . S
H3204 C3201 0.950 . S
C3205 C3196 1.390 . S
C3205 H3198 0.950 . S
C3205 C3202 1.387 . S
C3206 C3207 1.382 1_655 S
C3206 H3210 0.942 1_655 S
C3206 C3215 1.403 . S
C3207 C3206 1.382 1_455 S
C3207 C3209 1.387 1_455 S
H3208 C3215 0.950 . S
C3209 C3207 1.387 1_655 S
C3209 C3211 1.390 . S
C3209 H3213 0.950 1_655 S
H3210 C3206 0.942 1_455 S
C3211 C3209 1.390 . S
C3211 C3212 1.387 . S
C3211 H3214 0.950 . S
C3212 C3211 1.387 . S
C3212 C3215 1.387 . S
H3213 C3209 0.950 1_455 S
H3214 C3211 0.950 . S
C3215 C3206 1.403 . S
C3215 H3208 0.950 . S
C3215 C3212 1.387 . S
C3216 C3217 1.387 . S
C3216 H3220 0.950 . S
C3216 C3225 1.390 . S
C3217 C3216 1.387 . S
C3217 C3219 1.387 . S
H3218 C3225 0.950 . S
C3219 C3217 1.387 . S
C3219 C3221 1.390 . S
C3219 H3223 0.950 . S
H3220 C3216 0.950 . S
C3221 C3219 1.390 . S
C3221 C3222 1.387 . S
C3221 H3224 0.950 . S
C3222 C3221 1.387 . S
C3222 C3225 1.387 . S
H3223 C3219 0.950 . S
H3224 C3221 0.950 . S
C3225 C3216 1.390 . S
C3225 H3218 0.950 . S
C3225 C3222 1.387 . S
C3226 C3227 1.387 . S
C3226 H3230 0.950 . S
C3226 C3235 1.390 . S
C3227 C3226 1.387 . S
C3227 C3229 1.387 . S
H3228 C3235 0.950 1_655 S
C3229 C3227 1.387 . S
C3229 C3231 1.390 . S
C3229 H3233 0.950 . S
H3230 C3226 0.950 . S
C3231 C3229 1.390 . S
C3231 C3232 1.387 1_455 S
C3231 H3234 0.950 1_455 S
C3232 C3231 1.387 1_655 S
C3232 C3235 1.387 1_655 S
H3233 C3229 0.950 . S
H3234 C3231 0.950 1_655 S
C3235 C3226 1.390 . S
C3235 H3228 0.950 1_455 S
C3235 C3232 1.387 1_455 S
C3236 C3237 1.387 . S
C3236 H3240 0.950 . S
C3236 C3245 1.390 . S
C3237 C3236 1.387 . S
C3237 C3239 1.387 . S
H3238 C3245 0.950 . S
C3239 C3237 1.387 . S
C3239 C3241 1.390 . S
C3239 H3243 0.950 . S
H3240 C3236 0.950 . S
C3241 C3239 1.390 . S
C3241 C3242 1.387 . S
C3241 H3244 0.950 . S
C3242 C3241 1.387 . S
C3242 C3245 1.387 . S
H3243 C3239 0.950 . S
H3244 C3241 0.950 . S
C3245 C3236 1.390 . S
C3245 H3238 0.950 . S
C3245 C3242 1.387 . S
C3246 C3247 1.387 . S
C3246 H3250 0.950 . S
C3246 C3255 1.390 . S
C3247 C3246 1.387 . S
C3247 C3249 1.387 . S
H3248 C3255 0.950 . S
C3249 C3247 1.387 . S
C3249 C3251 1.390 . S
C3249 H3253 0.950 . S
H3250 C3246 0.950 . S
C3251 C3249 1.390 . S
C3251 C3252 1.387 . S
C3251 H3254 0.950 . S
C3252 C3251 1.387 . S
C3252 C3255 1.387 . S
H3253 C3249 0.950 . S
H3254 C3251 0.950 . S
C3255 C3246 1.390 . S
C3255 H3248 0.950 . S
C3255 C3252 1.387 . S
C3256 C3257 1.387 . S
C3256 H3260 0.950 . S
C3256 C3265 1.390 . S
C3257 C3256 1.387 . S
C3257 C3259 1.387 . S
H3258 C3265 0.950 . S
C3259 C3257 1.387 . S
C3259 C3261 1.390 . S
C3259 H3263 0.950 . S
H3260 C3256 0.950 . S
C3261 C3259 1.390 . S
C3261 C3262 1.387 . S
C3261 H3264 0.950 . S
C3262 C3261 1.387 . S
C3262 C3265 1.387 . S
H3263 C3259 0.950 . S
H3264 C3261 0.950 . S
C3265 C3256 1.390 . S
C3265 H3258 0.950 . S
C3265 C3262 1.387 . S
C3266 C3267 1.387 . S
C3266 H3270 0.950 . S
C3266 C3275 1.390 . S
C3267 C3266 1.387 . S
C3267 C3269 1.387 . S
H3268 C3275 0.950 . S
C3269 C3267 1.387 . S
C3269 C3271 1.390 . S
C3269 H3273 0.950 . S
H3270 C3266 0.950 . S
C3271 C3269 1.390 . S
C3271 C3272 1.387 . S
C3271 H3274 0.950 . S
C3272 C3271 1.387 . S
C3272 C3275 1.387 . S
H3273 C3269 0.950 . S
H3274 C3271 0.950 . S
C3275 C3266 1.390 . S
C3275 H3268 0.950 . S
C3275 C3272 1.387 . S
C3276 C3277 1.387 . S
C3276 H3280 0.950 . S
C3276 C3285 1.390 . S
C3277 C3276 1.387 . S
C3277 C3279 1.387 . S
H3278 C3285 0.950 . S
C3279 C3277 1.387 . S
C3279 C3281 1.390 . S
C3279 H3283 0.950 . S
H3280 C3276 0.950 . S
C3281 C3279 1.390 . S
C3281 C3282 1.387 . S
C3281 H3284 0.950 . S
C3282 C3281 1.387 . S
C3282 C3285 1.387 . S
H3283 C3279 0.950 . S
H3284 C3281 0.950 . S
C3285 C3276 1.390 . S
C3285 H3278 0.950 . S
C3285 C3282 1.387 . S
C3286 C3287 1.387 . S
C3286 H3290 0.950 . S
C3286 C3295 1.390 . S
C3287 C3286 1.387 . S
C3287 C3289 1.387 . S
H3288 C3295 0.950 . S
C3289 C3287 1.387 . S
C3289 C3291 1.390 . S
C3289 H3293 0.950 . S
H3290 C3286 0.950 . S
C3291 C3289 1.390 . S
C3291 C3292 1.387 1_455 S
C3291 H3294 0.950 1_455 S
C3292 C3291 1.387 1_655 S
C3292 C3295 1.387 1_655 S
H3293 C3289 0.950 . S
H3294 C3291 0.950 1_655 S
C3295 C3286 1.390 . S
C3295 H3288 0.950 . S
C3295 C3292 1.387 1_455 S
C3296 C3297 1.387 . S
C3296 H3300 0.950 . S
C3296 C3305 1.390 . S
C3297 C3296 1.387 . S
C3297 C3299 1.387 . S
H3298 C3305 0.950 . S
C3299 C3297 1.387 . S
C3299 C3301 1.390 . S
C3299 H3303 0.950 . S
H3300 C3296 0.950 . S
C3301 C3299 1.390 . S
C3301 C3302 1.387 . S
C3301 H3304 0.950 . S
C3302 C3301 1.387 . S
C3302 C3305 1.387 . S
H3303 C3299 0.950 . S
H3304 C3301 0.950 . S
C3305 C3296 1.390 . S
C3305 H3298 0.950 . S
C3305 C3302 1.387 . S
C3306 C3307 1.387 . S
C3306 H3310 0.950 . S
C3306 C3315 1.390 . S
C3307 C3306 1.387 . S
C3307 C3309 1.387 . S
H3308 C3315 0.950 . S
C3309 C3307 1.387 . S
C3309 C3311 1.390 . S
C3309 H3313 0.950 . S
H3310 C3306 0.950 . S
C3311 C3309 1.390 . S
C3311 C3312 1.387 . S
C3311 H3314 0.950 . S
C3312 C3311 1.387 . S
C3312 C3315 1.387 . S
H3313 C3309 0.950 . S
H3314 C3311 0.950 . S
C3315 C3306 1.390 . S
C3315 H3308 0.950 . S
C3315 C3312 1.387 . S
C3316 C3317 1.387 . S
C3316 H3320 0.950 . S
C3316 C3325 1.390 . S
C3317 C3316 1.387 . S
C3317 C3319 1.387 . S
H3318 C3325 0.950 . S
C3319 C3317 1.387 . S
C3319 C3321 1.390 . S
C3319 H3323 0.950 . S
H3320 C3316 0.950 . S
C3321 C3319 1.390 . S
C3321 C3322 1.387 . S
C3321 H3324 0.950 . S
C3322 C3321 1.387 . S
C3322 C3325 1.387 . S
H3323 C3319 0.950 . S
H3324 C3321 0.950 . S
C3325 C3316 1.390 . S
C3325 H3318 0.950 . S
C3325 C3322 1.387 . S
C3326 C3327 1.367 1_455 S
C3326 H3330 0.927 1_455 S
C3326 C3335 1.436 . S
C3327 C3326 1.367 1_655 S
C3327 C3329 1.387 1_655 S
H3328 C3335 0.950 . S
C3329 C3327 1.387 1_455 S
C3329 C3331 1.390 . S
C3329 H3333 0.950 1_455 S
H3330 C3326 0.927 1_655 S
C3331 C3329 1.390 . S
C3331 C3332 1.387 . S
C3331 H3334 0.950 . S
C3332 C3331 1.387 . S
C3332 C3335 1.387 . S
H3333 C3329 0.950 1_655 S
H3334 C3331 0.950 . S
C3335 C3326 1.436 . S
C3335 H3328 0.950 . S
C3335 C3332 1.387 . S
C3336 C3337 1.387 . S
C3336 H3340 0.950 . S
C3336 C3345 1.390 . S
C3337 C3336 1.387 . S
C3337 C3339 1.387 . S
H3338 C3345 0.950 . S
C3339 C3337 1.387 . S
C3339 C3341 1.390 . S
C3339 H3343 0.950 . S
H3340 C3336 0.950 . S
C3341 C3339 1.390 . S
C3341 C3342 1.387 . S
C3341 H3344 0.950 . S
C3342 C3341 1.387 . S
C3342 C3345 1.387 . S
H3343 C3339 0.950 . S
H3344 C3341 0.950 . S
C3345 C3336 1.390 . S
C3345 H3338 0.950 . S
C3345 C3342 1.387 . S
C3346 C3347 1.387 1_455 S
C3346 H3350 0.950 1_455 S
C3346 C3355 1.390 . S
C3347 C3346 1.387 1_655 S
C3347 C3349 1.387 1_655 S
H3348 C3355 0.950 . S
C3349 C3347 1.387 1_455 S
C3349 C3351 1.390 . S
C3349 H3353 0.950 1_455 S
H3350 C3346 0.950 1_655 S
C3351 C3349 1.390 . S
C3351 C3352 1.387 . S
C3351 H3354 0.950 . S
C3352 C3351 1.387 . S
C3352 C3355 1.387 . S
H3353 C3349 0.950 1_655 S
H3354 C3351 0.950 . S
C3355 C3346 1.390 . S
C3355 H3348 0.950 . S
C3355 C3352 1.387 . S
C3356 C3357 1.387 . S
C3356 H3360 0.950 . S
C3356 C3365 1.390 . S
C3357 C3356 1.387 . S
C3357 C3359 1.387 . S
H3358 C3365 0.950 . S
C3359 C3357 1.387 . S
C3359 C3361 1.390 . S
C3359 H3363 0.950 . S
H3360 C3356 0.950 . S
C3361 C3359 1.390 . S
C3361 C3362 1.387 . S
C3361 H3364 0.950 . S
C3362 C3361 1.387 . S
C3362 C3365 1.387 . S
H3363 C3359 0.950 . S
H3364 C3361 0.950 . S
C3365 C3356 1.390 . S
C3365 H3358 0.950 . S
C3365 C3362 1.387 . S
C3366 C3367 1.387 . S
C3366 H3370 0.950 . S
C3366 C3375 1.390 . S
C3367 C3366 1.387 . S
C3367 C3369 1.387 . S
H3368 C3375 0.950 . S
C3369 C3367 1.387 . S
C3369 C3371 1.390 . S
C3369 H3373 0.950 . S
H3370 C3366 0.950 . S
C3371 C3369 1.390 . S
C3371 C3372 1.387 . S
C3371 H3374 0.950 . S
C3372 C3371 1.387 . S
C3372 C3375 1.387 . S
H3373 C3369 0.950 . S
H3374 C3371 0.950 . S
C3375 C3366 1.390 . S
C3375 H3368 0.950 . S
C3375 C3372 1.387 . S
C3376 C3377 1.387 . S
C3376 H3380 0.950 . S
C3376 C3385 1.390 . S
C3377 C3376 1.387 . S
C3377 C3379 1.387 . S
H3378 C3385 0.950 . S
C3379 C3377 1.387 . S
C3379 C3381 1.390 . S
C3379 H3383 0.950 . S
H3380 C3376 0.950 . S
C3381 C3379 1.390 . S
C3381 C3382 1.387 . S
C3381 H3384 0.950 . S
C3382 C3381 1.387 . S
C3382 C3385 1.387 . S
H3383 C3379 0.950 . S
H3384 C3381 0.950 . S
C3385 C3376 1.390 . S
C3385 H3378 0.950 . S
C3385 C3382 1.387 . S
C3386 C3387 1.387 . S
C3386 H3390 0.950 . S
C3386 C3395 1.390 . S
C3387 C3386 1.387 . S
C3387 C3389 1.387 . S
H3388 C3395 0.950 . S
C3389 C3387 1.387 . S
C3389 C3391 1.390 . S
C3389 H3393 0.950 . S
H3390 C3386 0.950 . S
C3391 C3389 1.390 . S
C3391 C3392 1.387 . S
C3391 H3394 0.950 . S
C3392 C3391 1.387 . S
C3392 C3395 1.387 . S
H3393 C3389 0.950 . S
H3394 C3391 0.950 . S
C3395 C3386 1.390 . S
C3395 H3388 0.950 . S
C3395 C3392 1.387 . S
C3396 C3397 1.387 . S
C3396 H3400 0.950 . S
C3396 C3405 1.390 . S
C3397 C3396 1.387 . S
C3397 C3399 1.387 . S
H3398 C3405 0.950 . S
C3399 C3397 1.387 . S
C3399 C3401 1.390 . S
C3399 H3403 0.950 . S
H3400 C3396 0.950 . S
C3401 C3399 1.390 . S
C3401 C3402 1.387 . S
C3401 H3404 0.950 . S
C3402 C3401 1.387 . S
C3402 C3405 1.387 . S
H3403 C3399 0.950 . S
H3404 C3401 0.950 . S
C3405 C3396 1.390 . S
C3405 H3398 0.950 . S
C3405 C3402 1.387 . S
C3406 C3407 1.387 1_655 S
C3406 H3410 0.950 1_655 S
C3406 C3415 1.390 . S
C3407 C3406 1.387 1_455 S
C3407 C3409 1.387 1_455 S
H3408 C3415 0.950 . S
C3409 C3407 1.387 1_655 S
C3409 C3411 1.390 . S
C3409 H3413 0.950 . S
H3410 C3406 0.950 1_455 S
C3411 C3409 1.390 . S
C3411 C3412 1.387 . S
C3411 H3414 0.950 . S
C3412 C3411 1.387 . S
C3412 C3415 1.387 . S
H3413 C3409 0.950 . S
H3414 C3411 0.950 . S
C3415 C3406 1.390 . S
C3415 H3408 0.950 . S
C3415 C3412 1.387 . S
C3416 C3417 1.387 . S
C3416 H3420 0.950 . S
C3416 C3425 1.390 . S
C3417 C3416 1.387 . S
C3417 C3419 1.387 . S
H3418 C3425 0.950 . S
C3419 C3417 1.387 . S
C3419 C3421 1.390 . S
C3419 H3423 0.950 . S
H3420 C3416 0.950 . S
C3421 C3419 1.390 . S
C3421 C3422 1.387 . S
C3421 H3424 0.950 . S
C3422 C3421 1.387 . S
C3422 C3425 1.387 . S
H3423 C3419 0.950 . S
H3424 C3421 0.950 . S
C3425 C3416 1.390 . S
C3425 H3418 0.950 . S
C3425 C3422 1.387 . S
C3426 C3427 1.387 . S
C3426 H3430 0.950 . S
C3426 C3435 1.390 . S
C3427 C3426 1.387 . S
C3427 C3429 1.387 . S
H3428 C3435 0.929 1_455 S
C3429 C3427 1.387 . S
C3429 C3431 1.390 . S
C3429 H3433 0.950 . S
H3430 C3426 0.950 . S
C3431 C3429 1.390 . S
C3431 C3432 1.387 1_655 S
C3431 H3434 0.950 1_655 S
C3432 C3431 1.387 1_455 S
C3432 C3435 1.387 1_455 S
H3433 C3429 0.950 . S
H3434 C3431 0.950 1_455 S
C3435 C3426 1.390 . S
C3435 H3428 0.929 1_655 S
C3435 C3432 1.387 1_655 S
C3436 C3437 1.387 . S
C3436 H3440 0.950 . S
C3436 C3445 1.390 . S
C3437 C3436 1.387 . S
C3437 C3439 1.387 . S
H3438 C3445 0.950 . S
C3439 C3437 1.387 . S
C3439 C3441 1.390 . S
C3439 H3443 0.950 . S
H3440 C3436 0.950 . S
C3441 C3439 1.390 . S
C3441 C3442 1.387 . S
C3441 H3444 0.950 . S
C3442 C3441 1.387 . S
C3442 C3445 1.387 . S
H3443 C3439 0.950 . S
H3444 C3441 0.950 . S
C3445 C3436 1.390 . S
C3445 H3438 0.950 . S
C3445 C3442 1.387 . S
C3446 C3447 1.387 . S
C3446 H3450 0.950 . S
C3446 C3455 1.390 . S
C3447 C3446 1.387 . S
C3447 C3449 1.387 . S
H3448 C3455 0.950 . S
C3449 C3447 1.387 . S
C3449 C3451 1.390 . S
C3449 H3453 0.950 . S
H3450 C3446 0.950 . S
C3451 C3449 1.390 . S
C3451 C3452 1.387 . S
C3451 H3454 0.950 . S
C3452 C3451 1.387 . S
C3452 C3455 1.387 . S
H3453 C3449 0.950 . S
H3454 C3451 0.950 . S
C3455 C3446 1.390 . S
C3455 H3448 0.950 . S
C3455 C3452 1.387 . S
C2817 C585 1.602 . S
C2822 C57 1.602 . S
C2827 C117 1.620 . S
C2832 C645 1.620 . S
C2837 C372 1.604 . S
C2842 C196 1.604 . S
C2847 C313 1.620 . S
C2852 C497 1.620 . S
C2857 C1281 1.619 . S
C2862 C724 1.619 . S
C2867 C849 1.605 . S
C2872 C1349 1.605 . S
C2877 C1113 1.621 . S
C2882 C909 1.621 . S
C2887 C1017 1.607 . S
C2892 C1164 1.607 . S
C2897 C1457 1.604 . S
C2902 C1985 1.604 . S
C2907 C2044 1.622 . S
C2912 C1525 1.622 . S
C2917 C1604 1.604 . S
C2922 C1780 1.604 . S
C2927 C1868 1.620 . S
C2932 C1721 1.620 . S
C2937 C2689 1.619 . S
C2942 C2132 1.619 . S
C2947 C2757 1.607 . S
C2952 C2257 1.607 . S
C2957 C2521 1.619 . S
C2962 C2317 1.619 . S
C2967 C2425 1.607 . S
C2972 C2581 1.607 . S
C2977 C636 2.458 1_554 S
C2982 C49 2.457 . S
C2987 C381 2.456 . S
C2992 C108 2.456 . S
C2997 C489 2.456 . S
C3002 C205 2.456 . S
C3007 C577 2.457 . S
C3012 C321 2.457 1_556 S
C3017 C1369 2.464 1_556 S
C3022 C753 2.458 . S
C3027 C1085 2.454 . S
C3032 C812 2.460 . S
C3037 C1201 2.461 . S
C3042 C937 2.455 . S
C3047 C997 2.462 1_554 S
C3052 C1252 2.457 . S
C3057 C2053 2.459 . S
C3062 C1465 2.458 . S
C3067 C1516 2.459 1_556 S
C3072 C1789 2.459 . S
C3077 C1613 2.455 . S
C3082 C1877 2.456 1_554 S
C3087 C1993 2.458 . S
C3092 C1729 2.459 . S
C3097 C2777 2.462 . S
C3102 C2161 2.456 . S
C3107 C2220 2.464 1_554 S
C3112 C2493 2.458 . S
C3117 C2345 2.457 . S
C3122 C2601 2.463 1_556 S
C3127 C2660 2.457 . S
C3132 C2405 2.464 . S
C3137 C29 1.764 . S
C3142 C2669 1.536 . S
C3147 C1340 1.570 . S
C3152 C145 1.769 . S
C3157 C2484 1.533 . S
C3162 C225 1.763 . S
C3167 C1173 1.570 . S
C3172 C284 1.770 . S
C3177 C2337 1.533 . S
C3182 C401 1.763 . S
C3187 C469 1.769 . S
C3192 C1025 1.570 . S
C3197 C557 1.763 . S
C3202 C2169 1.534 . S
C3207 C673 1.770 . S
C3212 C841 1.570 . S
C3217 C733 1.747 . S
C3222 C1965 1.570 . S
C3227 C665 1.553 . S
C3232 C821 1.762 . S
C3237 C1817 1.567 . S
C3242 C900 1.745 . S
C3247 C460 1.556 . S
C3252 C988 1.764 . S
C3257 C1641 1.567 . S
C3262 C1105 1.745 . S
C3267 C293 1.553 . S
C3272 C1193 1.762 . S
C3277 C1289 1.747 . S
C3282 C1437 1.570 . S
C3287 C137 1.557 . S
C3292 C1377 1.764 . S
C3297 C1261 1.534 . S
C3302 C1428 1.763 . S
C3307 C2748 1.574 . S
C3312 C1553 1.772 . S
C3317 C1633 1.764 . S
C3322 C1076 1.536 . S
C3327 C1692 1.771 . S
C3332 C2572 1.574 . S
C3337 C1809 1.764 . S
C3342 C929 1.536 . S
C3347 C1897 1.771 . S
C3352 C2433 1.573 . S
C3357 C1956 1.764 . S
C3362 C761 1.536 . S
C3367 C2073 1.769 . S
C3372 C2249 1.570 . S
C3377 C548 1.570 . S
C3382 C2141 1.747 . S
C3387 C2081 1.553 . S
C3392 C2229 1.762 . S
C3397 C409 1.570 . S
C3402 C2308 1.747 . S
C3407 C2396 1.763 . S
C3412 C1905 1.556 . S
C3417 C2513 1.745 . S
C3422 C233 1.567 . S
C3427 C1701 1.556 . S
C3432 C2609 1.764 . S
C3437 C2697 1.747 . S
C3442 C20 1.570 . S
C3447 C2785 1.764 . S
C3452 C1545 1.557 . S
