# Generated by pormake.
# Topology lcy-e, (6)-cn, num edge types: 1
# Building blocks:
#     Node 0, Type 0, BuildingBlock: MIFKUJ_clean_sbu_0, # of connection points: 6
#     Node 1, Type 0, BuildingBlock: MIFKUJ_clean_sbu_0, # of connection points: 6
#     Node 2, Type 0, BuildingBlock: MIFKUJ_clean_sbu_0, # of connection points: 6
#     Node 3, Type 0, BuildingBlock: MIFKUJ_clean_sbu_0, # of connection points: 6
#     Node 4, Type 0, BuildingBlock: MIFKUJ_clean_sbu_0, # of connection points: 6
#     Node 5, Type 0, BuildingBlock: MIFKUJ_clean_sbu_0, # of connection points: 6
#     Node 6, Type 0, BuildingBlock: MIFKUJ_clean_sbu_0, # of connection points: 6
#     Node 7, Type 0, BuildingBlock: MIFKUJ_clean_sbu_0, # of connection points: 6
#     Node 8, Type 0, BuildingBlock: MIFKUJ_clean_sbu_0, # of connection points: 6
#     Node 9, Type 0, BuildingBlock: MIFKUJ_clean_sbu_0, # of connection points: 6
#     Node 10, Type 0, BuildingBlock: MIFKUJ_clean_sbu_0, # of connection points: 6
#     Node 11, Type 0, BuildingBlock: MIFKUJ_clean_sbu_0, # of connection points: 6
#     Edge 12, Type (0, 0), BuildingBlock: KIFKEQ_clean_linker_1, # of connection points: 2
#     Edge 13, Type (0, 0), BuildingBlock: KIFKEQ_clean_linker_1, # of connection points: 2
#     Edge 14, Type (0, 0), BuildingBlock: KIFKEQ_clean_linker_1, # of connection points: 2
#     Edge 15, Type (0, 0), BuildingBlock: KIFKEQ_clean_linker_1, # of connection points: 2
#     Edge 16, Type (0, 0), BuildingBlock: KIFKEQ_clean_linker_1, # of connection points: 2
#     Edge 17, Type (0, 0), BuildingBlock: KIFKEQ_clean_linker_1, # of connection points: 2
#     Edge 18, Type (0, 0), BuildingBlock: KIFKEQ_clean_linker_1, # of connection points: 2
#     Edge 19, Type (0, 0), BuildingBlock: KIFKEQ_clean_linker_1, # of connection points: 2
#     Edge 20, Type (0, 0), BuildingBlock: KIFKEQ_clean_linker_1, # of connection points: 2
#     Edge 21, Type (0, 0), BuildingBlock: KIFKEQ_clean_linker_1, # of connection points: 2
#     Edge 22, Type (0, 0), BuildingBlock: KIFKEQ_clean_linker_1, # of connection points: 2
#     Edge 23, Type (0, 0), BuildingBlock: KIFKEQ_clean_linker_1, # of connection points: 2
#     Edge 24, Type (0, 0), BuildingBlock: KIFKEQ_clean_linker_1, # of connection points: 2
#     Edge 25, Type (0, 0), BuildingBlock: KIFKEQ_clean_linker_1, # of connection points: 2
#     Edge 26, Type (0, 0), BuildingBlock: KIFKEQ_clean_linker_1, # of connection points: 2
#     Edge 27, Type (0, 0), BuildingBlock: KIFKEQ_clean_linker_1, # of connection points: 2
#     Edge 28, Type (0, 0), BuildingBlock: KIFKEQ_clean_linker_1, # of connection points: 2
#     Edge 29, Type (0, 0), BuildingBlock: KIFKEQ_clean_linker_1, # of connection points: 2
#     Edge 30, Type (0, 0), BuildingBlock: KIFKEQ_clean_linker_1, # of connection points: 2
#     Edge 31, Type (0, 0), BuildingBlock: KIFKEQ_clean_linker_1, # of connection points: 2
#     Edge 32, Type (0, 0), BuildingBlock: KIFKEQ_clean_linker_1, # of connection points: 2
#     Edge 33, Type (0, 0), BuildingBlock: KIFKEQ_clean_linker_1, # of connection points: 2
#     Edge 34, Type (0, 0), BuildingBlock: KIFKEQ_clean_linker_1, # of connection points: 2
#     Edge 35, Type (0, 0), BuildingBlock: KIFKEQ_clean_linker_1, # of connection points: 2
#     Edge 36, Type (0, 0), BuildingBlock: KIFKEQ_clean_linker_1, # of connection points: 2
#     Edge 37, Type (0, 0), BuildingBlock: KIFKEQ_clean_linker_1, # of connection points: 2
#     Edge 38, Type (0, 0), BuildingBlock: KIFKEQ_clean_linker_1, # of connection points: 2
#     Edge 39, Type (0, 0), BuildingBlock: KIFKEQ_clean_linker_1, # of connection points: 2
#     Edge 40, Type (0, 0), BuildingBlock: KIFKEQ_clean_linker_1, # of connection points: 2
#     Edge 41, Type (0, 0), BuildingBlock: KIFKEQ_clean_linker_1, # of connection points: 2
#     Edge 42, Type (0, 0), BuildingBlock: KIFKEQ_clean_linker_1, # of connection points: 2
#     Edge 43, Type (0, 0), BuildingBlock: KIFKEQ_clean_linker_1, # of connection points: 2
#     Edge 44, Type (0, 0), BuildingBlock: KIFKEQ_clean_linker_1, # of connection points: 2
#     Edge 45, Type (0, 0), BuildingBlock: KIFKEQ_clean_linker_1, # of connection points: 2
#     Edge 46, Type (0, 0), BuildingBlock: KIFKEQ_clean_linker_1, # of connection points: 2
#     Edge 47, Type (0, 0), BuildingBlock: KIFKEQ_clean_linker_1, # of connection points: 2
# Relax obj value: 0.176
# Max RMSD: 0.281
# Mean RMSD: 0.239
data_MOF--net-lcy-e--node1-MIFKUJ_clean_sbu_0--edge1-KIFKEQ_clean_linker_1
_symmetry_space_group_name_H-M    P1
_symmetry_Int_Tables_number       1
_symmetry_cell_setting            triclinic
loop_
_symmetry_equiv_pos_as_xyz
'x, y, z'
_cell_length_a     37.49476
_cell_length_b     40.537947
_cell_length_c     40.564282
_cell_angle_alpha  87.295615
_cell_angle_beta   88.691453
_cell_angle_gamma 88.433104
loop_
_atom_site_label
_atom_site_type_symbol
_atom_site_fract_x
_atom_site_fract_y
_atom_site_fract_z
_atom_type_partial_charge
Zn0 Zn 0.11182 0.25146 0.43772 0.0
Zn1 Zn 0.09649 0.16471 0.46567 0.0
C2 C 0.12461 0.31244 0.46773 0.0
O3 O 0.09562 0.3218 0.45186 0.0
C4 C 0.06022 0.14177 0.41217 0.0
O5 O 0.09094 0.12549 0.41024 0.0
O6 O 0.10047 0.27629 0.39494 0.0
O7 O 0.14835 0.21596 0.42556 0.0
O8 O 0.14373 0.16352 0.4424 0.0
C9 C 0.1293 0.28519 0.38046 0.0
O10 O 0.15968 0.27869 0.39523 0.0
O11 O 0.13677 0.28306 0.46538 0.0
C12 C 0.11638 0.11456 0.51431 0.0
O13 O 0.14229 0.13478 0.51939 0.0
O14 O 0.0938 0.12227 0.49222 0.0
O15 O 0.09045 0.19984 0.49857 0.0
O16 O 0.06823 0.23829 0.46455 0.0
O17 O 0.05627 0.16351 0.43366 0.0
C18 C 0.16038 0.1863 0.4267 0.0
C19 C 0.07482 0.22773 0.49382 0.0
Zn20 Zn 0.99095 0.88097 0.67664 0.0
Zn21 Zn 0.0475 0.88801 0.72792 0.0
C22 C 0.92997 0.90754 0.70378 0.0
O23 O 0.92088 0.87822 0.69489 0.0
C24 C 0.09298 0.84522 0.69001 0.0
O25 O 0.11623 0.86838 0.69364 0.0
O26 O 0.96228 0.87196 0.63625 0.0
O27 O 0.0373 0.89989 0.65782 0.0
O28 O 0.05139 0.92904 0.69973 0.0
C29 C 0.95773 0.89846 0.61852 0.0
O30 O 0.97288 0.92538 0.6275 0.0
O31 O 0.96173 0.91672 0.69785 0.0
C32 C 0.08387 0.86185 0.78346 0.0
O33 O 0.06122 0.83843 0.77882 0.0
O34 O 0.08296 0.88773 0.76448 0.0
O35 O -1e-05 0.87991 0.7484 0.0
O36 O 0.98925 0.84314 0.71198 0.0
O37 O 0.0616 0.84888 0.70184 0.0
C38 C 0.0519 0.92493 0.66894 0.0
C39 C 0.98651 0.85276 0.74148 0.0
Zn40 Zn 0.34818 0.74873 0.93754 0.0
Zn41 Zn 0.35394 0.8329 0.96968 0.0
C42 C 0.34639 0.68451 0.96801 0.0
O43 O 0.37711 0.68268 0.95187 0.0
C44 C 0.39874 0.86695 0.92316 0.0
O45 O 0.37159 0.8881 0.92429 0.0
O46 O 0.36114 0.72837 0.89371 0.0
O47 O 0.3083 0.78215 0.92715 0.0
O48 O 0.30853 0.83306 0.9449 0.0
C49 C 0.33478 0.71291 0.8833 0.0
O50 O 0.30494 0.71287 0.90093 0.0
O51 O 0.32806 0.71139 0.9661 0.0
C52 C 0.37771 0.87461 0.01871 0.0
O53 O 0.40247 0.85105 0.02034 0.0
O54 O 0.35256 0.87242 0.99846 0.0
O55 O 0.36197 0.79323 0.00014 0.0
O56 O 0.39015 0.763 0.96361 0.0
O57 O 0.3965 0.83941 0.93929 0.0
C58 C 0.29398 0.81085 0.92915 0.0
C59 C 0.38249 0.76888 0.99355 0.0
Zn60 Zn 0.43071 0.11523 0.24452 0.0
Zn61 Zn 0.47546 0.11455 0.17737 0.0
C62 C 0.47426 0.17515 0.26067 0.0
O63 O 0.46139 0.19334 0.23585 0.0
C64 C 0.43022 0.07939 0.13687 0.0
O65 O 0.43492 0.10622 0.11797 0.0
O66 O 0.39115 0.11081 0.27891 0.0
O67 O 0.40484 0.13683 0.20508 0.0
O68 O 0.44948 0.15805 0.17603 0.0
C69 C 0.37887 0.13916 0.28633 0.0
O70 O 0.39233 0.1655 0.27118 0.0
O71 O 0.46461 0.1455 0.26561 0.0
C72 C 0.53015 0.08934 0.13791 0.0
O73 O 0.52204 0.06341 0.15698 0.0
O74 O 0.51282 0.11632 0.14157 0.0
O75 O 0.50251 0.10148 0.21778 0.0
O76 O 0.45998 0.07254 0.24245 0.0
O77 O 0.44344 0.07776 0.16552 0.0
C78 C 0.41688 0.15895 0.18488 0.0
C79 C 0.49301 0.0773 0.23665 0.0
Zn80 Zn 0.61361 0.31067 0.50092 0.0
Zn81 Zn 0.61967 0.27748 0.58606 0.0
C82 C 0.60685 0.27887 0.44058 0.0
O83 O 0.63833 0.29192 0.43557 0.0
C84 C 0.66767 0.32696 0.60756 0.0
O85 O 0.63832 0.34024 0.62006 0.0
O86 O 0.62915 0.35192 0.47497 0.0
O87 O 0.5751 0.32684 0.53282 0.0
O88 O 0.57765 0.30833 0.58502 0.0
C89 C 0.60351 0.36438 0.45806 0.0
O90 O 0.57259 0.34983 0.45995 0.0
O91 O 0.59042 0.28285 0.46794 0.0
C92 C 0.63249 0.22257 0.63105 0.0
O93 O 0.65553 0.21463 0.60766 0.0
O94 O 0.61357 0.24887 0.62725 0.0
O95 O 0.62366 0.24684 0.5487 0.0
O96 O 0.65487 0.28212 0.51813 0.0
O97 O 0.66565 0.30126 0.59094 0.0
C98 C 0.56285 0.32604 0.56237 0.0
C99 C 0.64537 0.25267 0.52484 0.0
Zn100 Zn 0.95916 0.36729 0.74974 0.0
Zn101 Zn 0.98662 0.37735 0.83548 0.0
C102 C 0.00223 0.35931 0.69071 0.0
O103 O 0.99566 0.39127 0.68714 0.0
C104 C 0.93479 0.41995 0.86412 0.0
O105 O 0.93237 0.39366 0.8842 0.0
O106 O 0.91416 0.38193 0.72509 0.0
O107 O 0.94257 0.33246 0.78403 0.0
O108 O 0.95868 0.33649 0.83589 0.0
C109 C 0.90495 0.36308 0.70267 0.0
O110 O 0.92449 0.33653 0.69693 0.0
O111 O 0.9908 0.34377 0.71665 0.0
C112 C 0.03642 0.39775 0.88117 0.0
O113 O 0.04143 0.4201 0.85709 0.0
O114 O 0.01388 0.37543 0.87758 0.0
O115 O 0.02371 0.38193 0.79934 0.0
O116 O 0.988 0.40636 0.76287 0.0
O117 O 0.95513 0.41842 0.83864 0.0
C118 C 0.94252 0.3217 0.81402 0.0
C119 C 0.01926 0.40053 0.77368 0.0
Zn120 Zn 0.88472 0.69277 0.00259 0.0
Zn121 Zn 0.87612 0.73088 0.08184 0.0
C122 C 0.88889 0.72023 0.93753 0.0
O123 O 0.85744 0.70672 0.9373 0.0
C124 C 0.83442 0.68007 0.11262 0.0
O125 O 0.86 0.68051 0.13419 0.0
O126 O 0.87253 0.64883 0.98386 0.0
O127 O 0.92382 0.68294 0.03578 0.0
O128 O 0.9231 0.70739 0.08357 0.0
C129 C 0.90014 0.63617 0.96995 0.0
O130 O 0.93044 0.65154 0.97131 0.0
O131 O 0.90674 0.71794 0.96386 0.0
C132 C 0.84401 0.7782 0.12467 0.0
O133 O 0.81889 0.77789 0.10263 0.0
O134 O 0.87185 0.76 0.12096 0.0
O135 O 0.86969 0.75989 0.04138 0.0
O136 O 0.84228 0.72235 0.01458 0.0
O137 O 0.83639 0.69883 0.0867 0.0
C138 C 0.93779 0.68806 0.06332 0.0
C139 C 0.8499 0.75241 0.01802 0.0
Zn140 Zn 0.53455 0.63251 0.24572 0.0
Zn141 Zn 0.50073 0.62286 0.32788 0.0
C142 C 0.49677 0.64019 0.18473 0.0
O143 O 0.50938 0.60993 0.18155 0.0
C144 C 0.55893 0.58549 0.35532 0.0
O145 O 0.55685 0.60957 0.37592 0.0
O146 O 0.58036 0.61999 0.22191 0.0
O147 O 0.54841 0.66781 0.27648 0.0
O148 O 0.5222 0.66694 0.32598 0.0
C149 C 0.59224 0.64342 0.20317 0.0
O150 O 0.57423 0.67169 0.20144 0.0
O151 O 0.50321 0.65493 0.21088 0.0
C152 C 0.45397 0.59425 0.37696 0.0
O153 O 0.45147 0.57217 0.35449 0.0
O154 O 0.47359 0.61896 0.371 0.0
O155 O 0.46623 0.61411 0.29262 0.0
O156 O 0.50842 0.59151 0.26182 0.0
O157 O 0.53856 0.58676 0.33065 0.0
C158 C 0.54276 0.68029 0.30435 0.0
C159 C 0.47582 0.59386 0.27101 0.0
Zn160 Zn 0.24098 0.42929 0.13452 0.0
Zn161 Zn 0.18383 0.48207 0.1397 0.0
C162 C 0.30166 0.44861 0.16669 0.0
O163 O 0.31567 0.43341 0.14141 0.0
C164 C 0.13955 0.4462 0.09872 0.0
O165 O 0.11671 0.45164 0.12304 0.0
O166 O 0.26831 0.38669 0.12545 0.0
O167 O 0.19325 0.41255 0.15265 0.0
O168 O 0.17801 0.45522 0.18151 0.0
C169 C 0.26929 0.36755 0.15125 0.0
O170 O 0.25357 0.37751 0.17844 0.0
O171 O 0.26791 0.44979 0.17065 0.0
C172 C 0.15154 0.54843 0.13113 0.0
O173 O 0.18417 0.55837 0.12501 0.0
O174 O 0.14636 0.51827 0.13927 0.0
O175 O 0.23131 0.50165 0.13151 0.0
O176 O 0.24561 0.46378 0.09616 0.0
O177 O 0.17132 0.45591 0.10077 0.0
C178 C 0.17753 0.42443 0.17769 0.0
C179 C 0.24769 0.49335 0.10533 0.0
Zn180 Zn 0.69586 0.00613 0.88562 0.0
Zn181 Zn 0.73452 0.0832 0.88422 0.0
C182 C 0.73436 0.94311 0.88855 0.0
O183 O 0.72174 0.94062 0.85885 0.0
C184 C 0.6778 0.11687 0.85068 0.0
O185 O 0.68165 0.13712 0.87463 0.0
O186 O 0.64982 0.98495 0.87434 0.0
O187 O 0.68436 0.03455 0.92402 0.0
O188 O 0.7127 0.08109 0.9292 0.0
C189 C 0.63794 0.9657 0.89748 0.0
O190 O 0.65585 0.96217 0.92495 0.0
O191 O 0.72754 0.96919 0.904 0.0
C192 C 0.79764 0.12321 0.88437 0.0
O193 O 0.81302 0.09593 0.89655 0.0
O194 O 0.76448 0.12356 0.87852 0.0
O195 O 0.76574 0.04477 0.87188 0.0
O196 O 0.7217 0.02451 0.84506 0.0
O197 O 0.69642 0.09025 0.85073 0.0
C198 C 0.69061 0.05986 0.94006 0.0
C199 C 0.75491 0.02857 0.84821 0.0
Zn200 Zn 0.77245 0.99871 0.38356 0.0
Zn201 Zn 0.73635 0.91677 0.38084 0.0
C202 C 0.7318 0.05788 0.39736 0.0
O203 O 0.72559 0.05704 0.3657 0.0
C204 C 0.78482 0.88763 0.33692 0.0
O205 O 0.78707 0.86773 0.36336 0.0
O206 O 0.81643 0.01975 0.36306 0.0
O207 O 0.79005 0.96157 0.41508 0.0
O208 O 0.76763 0.91166 0.42007 0.0
C209 C 0.83914 0.02503 0.38489 0.0
O210 O 0.83178 0.01659 0.4159 0.0
O211 O 0.75075 0.03489 0.41117 0.0
C212 C 0.68074 0.87831 0.3595 0.0
O213 O 0.67585 0.90537 0.34091 0.0
O214 O 0.70569 0.87689 0.38026 0.0
O215 O 0.70213 0.95597 0.38008 0.0
O216 O 0.73562 0.98959 0.34929 0.0
O217 O 0.76552 0.91385 0.33848 0.0
C218 C 0.78957 0.93269 0.42876 0.0
C219 C 0.70505 0.97863 0.35759 0.0
Zn220 Zn 0.29546 0.51432 0.63278 0.0
Zn221 Zn 0.24843 0.57682 0.6284 0.0
C222 C 0.25645 0.46496 0.60823 0.0
O223 O 0.26631 0.4533 0.63751 0.0
C224 C 0.29525 0.61471 0.66646 0.0
O225 O 0.29141 0.6357 0.64102 0.0
O226 O 0.3368 0.48142 0.6387 0.0
O227 O 0.32006 0.55537 0.61301 0.0
O228 O 0.27381 0.57363 0.58536 0.0
C229 C 0.35381 0.47916 0.6113 0.0
O230 O 0.34236 0.49668 0.58542 0.0
O231 O 0.26617 0.49368 0.5984 0.0
C232 C 0.19157 0.62099 0.64566 0.0
O233 O 0.18746 0.59885 0.67008 0.0
O234 O 0.2156 0.61617 0.62377 0.0
O235 O 0.21942 0.53796 0.64107 0.0
O236 O 0.26085 0.51481 0.67286 0.0
O237 O 0.28084 0.58668 0.66589 0.0
C238 C 0.30716 0.5688 0.58685 0.0
C239 C 0.2281 0.51851 0.66515 0.0
H240 H 0.10946 0.37835 0.47387 0.0
H241 H 0.18151 0.29932 0.50735 0.0
H242 H 0.14012 0.41667 0.50763 0.0
H243 H 0.21215 0.33759 0.54067 0.0
H244 H 0.23106 0.40415 0.62459 0.0
H245 H 0.19801 0.36858 0.59049 0.0
H246 H 0.20005 0.44307 0.5108 0.0
H247 H 0.23314 0.47918 0.54525 0.0
C248 C 0.13183 0.36917 0.48837 0.0
C249 C 0.14303 0.33579 0.48799 0.0
C250 C 0.14948 0.39115 0.50751 0.0
C251 C 0.17843 0.38008 0.52683 0.0
C252 C 0.18963 0.34674 0.52635 0.0
C253 C 0.17217 0.32485 0.50712 0.0
C254 C 0.22448 0.41309 0.59982 0.0
C255 C 0.23503 0.4444 0.5875 0.0
C256 C 0.20564 0.3926 0.58026 0.0
C257 C 0.1968 0.4029 0.54789 0.0
C258 C 0.20643 0.43456 0.53574 0.0
C259 C 0.22547 0.45514 0.55538 0.0
H260 H 0.82764 0.02666 0.85145 0.0
H261 H 0.74056 0.99738 0.79214 0.0
H262 H 0.87005 -0.00028 0.81433 0.0
H263 H 0.78298 0.97139 0.75455 0.0
H264 H 0.86299 0.89128 0.72394 0.0
H265 H 0.82116 0.92283 0.75715 0.0
H266 H 0.89611 0.00187 0.75865 0.0
H267 H 0.93877 0.96963 0.7259 0.0
C268 C 0.81758 0.01478 0.8303 0.0
C269 C 0.78075 0.01385 0.82487 0.0
C270 C 0.8419 -0.00041 0.8089 0.0
C271 C 0.82984 0.98332 0.78161 0.0
C272 C 0.79305 0.98325 0.77569 0.0
C273 C 0.76876 0.99824 0.79717 0.0
C274 C 0.87057 0.91547 0.73112 0.0
C275 C 0.9042 0.92798 0.72233 0.0
C276 C 0.84644 0.93366 0.75001 0.0
C277 C 0.85526 0.9649 0.7604 0.0
C278 C 0.88873 0.9777 0.75125 0.0
C279 C 0.91304 0.95936 0.73238 0.0
H280 H 0.37507 0.62171 0.971 0.0
H281 H 0.28778 0.6816 0.00911 0.0
H282 H 0.35341 0.57387 0.00371 0.0
H283 H 0.26617 0.6338 0.04155 0.0
H284 H 0.26318 0.55473 0.12364 0.0
H285 H 0.28823 0.59971 0.08992 0.0
H286 H 0.30004 0.53617 0.00767 0.0
H287 H 0.27467 0.49054 0.04171 0.0
C288 C 0.35126 0.62467 0.98631 0.0
C289 C 0.33319 0.65549 0.98759 0.0
C290 C 0.33878 0.59721 0.00484 0.0
C291 C 0.30823 0.60015 0.02524 0.0
C292 C 0.29007 0.63091 0.02633 0.0
C293 C 0.30235 0.65826 0.00765 0.0
C294 C 0.27114 0.55015 0.09839 0.0
C295 C 0.26644 0.51913 0.08519 0.0
C296 C 0.2854 0.57604 0.07905 0.0
C297 C 0.29552 0.57161 0.04604 0.0
C298 C 0.2924 0.54023 0.03309 0.0
C299 C 0.27789 0.51417 0.05253 0.0
H300 H 0.55901 0.06284 0.21263 0.0
H301 H 0.49091 0.04745 0.29889 0.0
H302 H 0.60864 0.0363 0.24148 0.0
H303 H 0.54155 0.02241 0.32893 0.0
H304 H 0.63621 0.95807 0.36615 0.0
H305 H 0.58365 0.97805 0.33634 0.0
H306 H 0.6479 0.04993 0.28193 0.0
H307 H 0.70059 0.02859 0.31011 0.0
C308 C 0.55463 0.05353 0.23782 0.0
C309 C 0.52111 0.05719 0.25352 0.0
C310 C 0.58328 0.03868 0.25457 0.0
C311 C 0.5795 0.02786 0.28787 0.0
C312 C 0.54548 0.0303 0.30327 0.0
C313 C 0.51643 0.04462 0.28613 0.0
C314 C 0.63915 0.97799 0.34762 0.0
C315 C 0.67276 0.99153 0.34034 0.0
C316 C 0.60888 0.98965 0.33071 0.0
C317 C 0.6114 0.01544 0.30643 0.0
C318 C 0.64494 0.02944 0.29979 0.0
C319 C 0.67523 0.01744 0.31626 0.0
H320 H 0.60879 0.19803 0.51154 0.0
H321 H 0.70884 0.246 0.49106 0.0
H322 H 0.62952 0.15131 0.47944 0.0
H323 H 0.72998 0.19854 0.45978 0.0
H324 H 0.75993 0.08253 0.45238 0.0
H325 H 0.73909 0.13145 0.48138 0.0
H326 H 0.65236 0.14582 0.4137 0.0
H327 H 0.67366 0.09756 0.38405 0.0
C328 C 0.6352 0.19855 0.50016 0.0
C329 C 0.65731 0.22552 0.50386 0.0
C330 C 0.64695 0.17192 0.48178 0.0
C331 C 0.68135 0.17139 0.46745 0.0
C332 C 0.70341 0.19843 0.47083 0.0
C333 C 0.69128 0.22553 0.48852 0.0
C334 C 0.73638 0.09609 0.44378 0.0
C335 C 0.71836 0.08625 0.41602 0.0
C336 C 0.72467 0.12414 0.46018 0.0
C337 C 0.6943 0.14231 0.44957 0.0
C338 C 0.67589 0.13216 0.42224 0.0
C339 C 0.68808 0.10461 0.40535 0.0
H340 H 0.08979 0.38758 0.78581 0.0
H341 H 0.01968 0.45074 0.72611 0.0
H342 H 0.14143 0.41417 0.75994 0.0
H343 H 0.0712 0.47824 0.70117 0.0
H344 H 0.16785 0.49885 0.63762 0.0
H345 H 0.11876 0.46916 0.6637 0.0
H346 H 0.17445 0.46374 0.75606 0.0
H347 H 0.22471 0.4926 0.72913 0.0
C348 C 0.08537 0.40731 0.76728 0.0
C349 C 0.05056 0.41695 0.75792 0.0
C350 C 0.11505 0.42273 0.75261 0.0
C351 C 0.11065 0.44834 0.72836 0.0
C352 C 0.07575 0.45816 0.71927 0.0
C353 C 0.0461 0.44253 0.7337 0.0
C354 C 0.1697 0.49128 0.66351 0.0
C355 C 0.19992 0.4984 0.68149 0.0
C356 C 0.14137 0.47441 0.67856 0.0
C357 C 0.14216 0.46457 0.7122 0.0
C358 C 0.17295 0.47081 0.73005 0.0
C359 C 0.20171 0.4874 0.71474 0.0
H360 H 0.7595 0.93933 0.95113 0.0
H361 H 0.75293 0.88309 0.86365 0.0
H362 H 0.78852 0.89244 0.97977 0.0
H363 H 0.78297 0.83608 0.89232 0.0
H364 H 0.79835 0.74888 0.97117 0.0
H365 H 0.77226 0.79471 0.93751 0.0
H366 H 0.84414 0.86177 0.97993 0.0
H367 H 0.86936 0.81657 0.0139 0.0
C368 C 0.76461 0.91706 0.93785 0.0
C369 C 0.75391 0.91499 0.90507 0.0
C370 C 0.78145 0.89017 0.95426 0.0
C371 C 0.78824 0.86052 0.93829 0.0
C372 C 0.77782 0.85847 0.90539 0.0
C373 C 0.76084 0.88546 0.88892 0.0
C374 C 0.80862 0.77341 0.97314 0.0
C375 C 0.83549 0.77916 0.99561 0.0
C376 C 0.79384 0.79962 0.95373 0.0
C377 C 0.80579 0.83199 0.95639 0.0
C378 C 0.8337 0.83732 0.97785 0.0
C379 C 0.84826 0.81131 0.99727 0.0
H380 H 0.40788 0.5826 0.29428 0.0
H381 H 0.48422 0.55463 0.21852 0.0
H382 H 0.36495 0.54517 0.27317 0.0
H383 H 0.44095 0.51855 0.1965 0.0
H384 H 0.3712 0.43471 0.17917 0.0
H385 H 0.41252 0.46814 0.20761 0.0
H386 H 0.32683 0.53835 0.22801 0.0
H387 H 0.28514 0.50381 0.20074 0.0
C388 C 0.41542 0.56862 0.27299 0.0
C389 C 0.4495 0.57153 0.2581 0.0
C390 C 0.39073 0.54728 0.26078 0.0
C391 C 0.39947 0.52864 0.23322 0.0
C392 C 0.4335 0.53187 0.21824 0.0
C393 C 0.45828 0.55284 0.23067 0.0
C394 C 0.36114 0.45705 0.19019 0.0
C395 C 0.32509 0.4668 0.18767 0.0
C396 C 0.38486 0.4764 0.20623 0.0
C397 C 0.37323 0.50633 0.21957 0.0
C398 C 0.33672 0.51536 0.21825 0.0
C399 C 0.31281 0.49563 0.20261 0.0
H400 H 0.49874 0.14533 0.31769 0.0
H401 H 0.5014 0.23749 0.25957 0.0
H402 H 0.53253 0.16961 0.36042 0.0
H403 H 0.53554 0.26175 0.30269 0.0
H404 H 0.62619 0.2803 0.37526 0.0
H405 H 0.59612 0.25478 0.3305 0.0
H406 H 0.51865 0.21432 0.40055 0.0
H407 H 0.54857 0.23987 0.44533 0.0
C408 C 0.5067 0.17073 0.31388 0.0
C409 C 0.49713 0.18957 0.28524 0.0
C410 C 0.52593 0.18464 0.3385 0.0
C411 C 0.53638 0.21759 0.33498 0.0
C412 C 0.52791 0.23621 0.30594 0.0
C413 C 0.50829 0.22236 0.28133 0.0
C414 C 0.60286 0.26579 0.38114 0.0
C415 C 0.58969 0.26209 0.41381 0.0
C416 C 0.58555 0.25141 0.35548 0.0
C417 C 0.55507 0.23266 0.36207 0.0
C418 C 0.54228 0.22847 0.39481 0.0
C419 C 0.5593 0.2432 0.4204 0.0
H420 H 0.03903 0.28783 0.49452 0.0
H421 H 0.09322 0.21482 0.55784 0.0
H422 H 0.02476 0.32059 0.54235 0.0
H423 H 0.0799 0.24781 0.60519 0.0
H424 H 0.00995 0.29244 0.6864 0.0
H425 H 0.02923 0.26208 0.63864 0.0
H426 H 0.04918 0.35402 0.58391 0.0
H427 H 0.02889 0.38454 0.63162 0.0
C428 C 0.04809 0.27888 0.51856 0.0
C429 C 0.06689 0.24851 0.52236 0.0
C430 C 0.04016 0.29777 0.54596 0.0
C431 C 0.05095 0.28674 0.57773 0.0
C432 C 0.07053 0.25677 0.58126 0.0
C433 C 0.07829 0.23789 0.554 0.0
C434 C 0.0188 0.30624 0.66434 0.0
C435 C 0.01777 0.34094 0.66285 0.0
C436 C 0.03001 0.28879 0.63691 0.0
C437 C 0.04068 0.30558 0.60731 0.0
C438 C 0.0406 0.34031 0.60611 0.0
C439 C 0.02924 0.3578 0.63357 0.0
H440 H 0.95641 0.79165 0.73875 0.0
H441 H 0.97964 0.86772 0.8058 0.0
H442 H 0.9326 0.75754 0.78541 0.0
H443 H 0.95599 0.83408 0.85161 0.0
H444 H 0.95204 0.75187 0.93022 0.0
H445 H 0.9751 0.78189 0.88122 0.0
H446 H 0.88142 0.75828 0.82795 0.0
H447 H 0.85833 0.72784 0.87696 0.0
C448 C 0.95627 0.80114 0.76327 0.0
C449 C 0.97012 0.83227 0.76856 0.0
C450 C 0.94261 0.7817 0.7899 0.0
C451 C 0.94292 0.79305 0.82214 0.0
C452 C 0.95607 0.82441 0.82715 0.0
C453 C 0.96942 0.84377 0.80075 0.0
C454 C 0.93638 0.75295 0.90806 0.0
C455 C 0.90325 0.7377 0.90755 0.0
C456 C 0.94955 0.7702 0.88003 0.0
C457 C 0.92991 0.77255 0.85087 0.0
C458 C 0.89719 0.75664 0.85003 0.0
C459 C 0.88391 0.73945 0.87817 0.0
H460 H 0.47531 0.70518 0.17979 0.0
H461 H 0.47571 0.61502 0.12704 0.0
H462 H 0.44724 0.73477 0.13328 0.0
H463 H 0.44665 0.64451 0.08072 0.0
H464 H 0.43206 0.71772 0.99055 0.0
H465 H 0.45839 0.68558 0.03681 0.0
H466 H 0.39215 0.74011 0.10501 0.0
H467 H 0.36674 0.77263 0.05918 0.0
C468 C 0.46903 0.69157 0.15842 0.0
C469 C 0.47777 0.65773 0.15717 0.0
C470 C 0.45276 0.70852 0.13174 0.0
C471 C 0.4446 0.69204 0.10319 0.0
C472 C 0.45299 0.65808 0.1021 0.0
C473 C 0.46942 0.64113 0.12877 0.0
C474 C 0.42312 0.72277 0.01543 0.0
C475 C 0.39756 0.74799 0.02112 0.0
C476 C 0.43804 0.70421 0.04196 0.0
C477 C 0.42763 0.71044 0.07472 0.0
C478 C 0.40139 0.73509 0.08021 0.0
C479 C 0.38665 0.75365 0.05382 0.0
H480 H 0.07638 0.32379 0.35134 0.0
H481 H 0.18347 0.28478 0.33555 0.0
H482 H 0.08076 0.35571 0.29837 0.0
H483 H 0.18765 0.31608 0.28311 0.0
H484 H 0.17894 0.35698 0.18039 0.0
H485 H 0.16017 0.32035 0.22654 0.0
H486 H 0.12081 0.40445 0.27922 0.0
H487 H 0.13956 0.4413 0.23308 0.0
C488 C 0.10053 0.32167 0.33633 0.0
C489 C 0.12969 0.30211 0.34755 0.0
C490 C 0.10307 0.33993 0.3062 0.0
C491 C 0.13449 0.3382 0.28667 0.0
C492 C 0.16296 0.31756 0.29743 0.0
C493 C 0.16067 0.29988 0.32761 0.0
C494 C 0.16574 0.36769 0.20154 0.0
C495 C 0.16132 0.4021 0.20334 0.0
C496 C 0.15501 0.34668 0.22793 0.0
C497 C 0.13934 0.35964 0.25648 0.0
C498 C 0.13263 0.39383 0.25739 0.0
C499 C 0.14364 0.41491 0.23108 0.0
H500 H 0.92146 0.84849 0.591 0.0
H501 H 0.94044 0.95318 0.58069 0.0
H502 H 0.88191 0.8536 0.54354 0.0
H503 H 0.90062 0.95841 0.53469 0.0
H504 H 0.85574 0.95676 0.43473 0.0
H505 H 0.89764 0.94515 0.47875 0.0
H506 H 0.82414 0.87664 0.52622 0.0
H507 H 0.78239 0.88775 0.48116 0.0
C508 C 0.91724 0.8725 0.57865 0.0
C509 C 0.9343 0.90036 0.58953 0.0
C510 C 0.89443 0.87549 0.55162 0.0
C511 C 0.88828 0.90638 0.53505 0.0
C512 C 0.9053 0.93409 0.54623 0.0
C513 C 0.92806 0.93109 0.5729 0.0
C514 C 0.8484 0.93936 0.45463 0.0
C515 C 0.81543 0.92378 0.45491 0.0
C516 C 0.87246 0.93263 0.47991 0.0
C517 C 0.86403 0.91042 0.50646 0.0
C518 C 0.83157 0.89378 0.50612 0.0
C519 C 0.80756 0.90028 0.48045 0.0
H520 H 0.30228 0.57951 0.72536 0.0
H521 H 0.32376 0.67459 0.67744 0.0
H522 H 0.3194 0.60027 0.77802 0.0
H523 H 0.34033 0.69544 0.73024 0.0
H524 H 0.38306 0.71948 0.83113 0.0
H525 H 0.3813 0.69255 0.77815 0.0
H526 H 0.28806 0.63985 0.81277 0.0
H527 H 0.28992 0.66624 0.86503 0.0
C528 C 0.31117 0.60468 0.72592 0.0
C529 C 0.31112 0.62551 0.69723 0.0
C530 C 0.32085 0.61662 0.75615 0.0
C531 C 0.33075 0.64966 0.75842 0.0
C532 C 0.33302 0.66984 0.72935 0.0
C533 C 0.32328 0.6579 0.69909 0.0
C534 C 0.36254 0.7018 0.82744 0.0
C535 C 0.3365 0.69517 0.85217 0.0
C536 C 0.36143 0.68651 0.79712 0.0
C537 C 0.33459 0.66396 0.79127 0.0
C538 C 0.30941 0.65666 0.81653 0.0
C539 C 0.31029 0.67209 0.84647 0.0
H540 H 0.54889 0.13596 0.09015 0.0
H541 H 0.57437 0.03646 0.12692 0.0
H542 H 0.59167 0.12936 0.04453 0.0
H543 H 0.6175 0.03017 0.08177 0.0
H544 H 0.64625 0.01666 0.97252 0.0
H545 H 0.61114 0.025 0.02249 0.0
H546 H 0.65578 0.12147 0.02973 0.0
H547 H 0.69081 0.1134 0.97902 0.0
C548 C 0.56393 0.11286 0.08872 0.0
C549 C 0.55795 0.08657 0.11184 0.0
C550 C 0.58859 0.10917 0.06275 0.0
C551 C 0.6077 0.07916 0.05949 0.0
C552 C 0.6027 0.05339 0.08337 0.0
C553 C 0.57805 0.05703 0.10926 0.0
C554 C 0.64886 0.03961 0.98478 0.0
C555 C 0.67126 0.06443 0.97169 0.0
C556 C 0.62889 0.04427 0.01361 0.0
C557 C 0.6308 0.07385 0.03006 0.0
C558 C 0.65362 0.09852 0.01737 0.0
C559 C 0.67377 0.09382 0.98847 0.0
H560 H 0.67336 0.16833 0.64912 0.0
H561 H 0.58717 0.23156 0.68388 0.0
H562 H 0.67483 0.13918 0.70278 0.0
H563 H 0.58801 0.20171 0.73751 0.0
H564 H 0.64769 0.17777 0.83638 0.0
H565 H 0.62885 0.1997 0.78261 0.0
H566 H 0.64518 0.10319 0.74299 0.0
H567 H 0.66506 0.08139 0.79671 0.0
C568 C 0.65428 0.17564 0.66804 0.0
C569 C 0.63051 0.20255 0.66239 0.0
C570 C 0.65488 0.15869 0.69877 0.0
C571 C 0.63159 0.16818 0.72451 0.0
C572 C 0.60661 0.19409 0.71833 0.0
C573 C 0.6061 0.21113 0.68759 0.0
C574 C 0.6465 0.16102 0.81642 0.0
C575 C 0.65857 0.12802 0.82062 0.0
C576 C 0.6355 0.17358 0.78556 0.0
C577 C 0.63613 0.15331 0.75835 0.0
C578 C 0.64521 0.1196 0.7633 0.0
C579 C 0.65639 0.10708 0.79413 0.0
H580 H 0.07331 0.42424 0.08599 0.0
H581 H 0.17813 0.43757 0.04157 0.0
H582 H 0.05115 0.40824 0.03325 0.0
H583 H 0.15599 0.42107 0.98888 0.0
H584 H 0.08784 0.44085 0.89547 0.0
H585 H 0.11523 0.44757 0.94846 0.0
H586 H 0.0549 0.36634 0.99125 0.0
H587 H 0.027 0.35984 0.93821 0.0
C588 C 0.09177 0.42325 0.06511 0.0
C589 C 0.12738 0.4325 0.06789 0.0
C590 C 0.0791 0.41389 0.03492 0.0
C591 C 0.10177 0.41363 0.00685 0.0
C592 C 0.13777 0.4215 0.00997 0.0
C593 C 0.15048 0.43078 0.0402 0.0
C594 C 0.0806 0.42421 0.91608 0.0
C595 C 0.05506 0.39995 0.91268 0.0
C596 C 0.09653 0.42792 0.9464 0.0
C597 C 0.0872 0.4075 0.97405 0.0
C598 C 0.06235 0.38265 0.97046 0.0
C599 C 0.0465 0.37885 0.94005 0.0
H600 H 0.82744 0.83345 0.32652 0.0
H601 H 0.7755 0.91649 0.27492 0.0
H602 H 0.84474 0.81045 0.27415 0.0
H603 H 0.79365 0.89372 0.22218 0.0
H604 H 0.78628 0.81714 0.14118 0.0
H605 H 0.77637 0.8473 0.1912 0.0
H606 H 0.881 0.8158 0.22465 0.0
H607 H 0.8906 0.78493 0.17488 0.0
C608 C 0.82027 0.84716 0.30397 0.0
C609 C 0.79982 0.8767 0.30496 0.0
C610 C 0.83041 0.83401 0.27385 0.0
C611 C 0.8204 0.85008 0.24387 0.0
C612 C 0.80132 0.88044 0.24482 0.0
C613 C 0.79118 0.89364 0.27504 0.0
C614 C 0.8073 0.8168 0.15907 0.0
C615 C 0.83912 0.79836 0.15411 0.0
C616 C 0.80172 0.83436 0.18769 0.0
C617 C 0.82785 0.83397 0.21205 0.0
C618 C 0.86011 0.81628 0.20662 0.0
C619 C 0.86567 0.79867 0.17801 0.0
H620 H 0.38032 0.56687 0.58203 0.0
H621 H 0.28553 0.5844 0.52434 0.0
H622 H 0.41728 0.57339 0.53162 0.0
H623 H 0.32238 0.59048 0.47435 0.0
H624 H 0.39795 0.55431 0.39151 0.0
H625 H 0.36362 0.54923 0.44329 0.0
H626 H 0.43047 0.62031 0.48585 0.0
H627 H 0.46475 0.62578 0.43386 0.0
C628 C 0.36742 0.57236 0.55871 0.0
C629 C 0.33002 0.5751 0.55717 0.0
C630 C 0.38854 0.57611 0.52995 0.0
C631 C 0.37256 0.58218 0.49919 0.0
C632 C 0.33529 0.58545 0.49775 0.0
C633 C 0.31425 0.58217 0.52643 0.0
C634 C 0.40541 0.5688 0.41191 0.0
C635 C 0.43389 0.59058 0.40859 0.0
C636 C 0.38569 0.56597 0.44146 0.0
C637 C 0.3944 0.58448 0.46841 0.0
C638 C 0.42337 0.6057 0.46542 0.0
C639 C 0.44278 0.60894 0.43565 0.0
H640 H 0.20147 0.12927 0.43178 0.0
H641 H 0.1943 0.22439 0.37926 0.0
H642 H 0.25614 0.116 0.40054 0.0
H643 H 0.24794 0.21096 0.34779 0.0
H644 H 0.36153 0.19436 0.31866 0.0
H645 H 0.3106 0.20413 0.35513 0.0
H646 H 0.27784 0.10375 0.3451 0.0
H647 H 0.33003 0.09361 0.30914 0.0
C648 C 0.21153 0.14734 0.41361 0.0
C649 C 0.19375 0.17809 0.40831 0.0
C650 C 0.24272 0.13965 0.3956 0.0
C651 C 0.25662 0.16252 0.37188 0.0
C652 C 0.23853 0.19307 0.36644 0.0
C653 C 0.20762 0.20078 0.38449 0.0
C654 C 0.34363 0.17425 0.32438 0.0
C655 C 0.3495 0.14333 0.31073 0.0
C656 C 0.31429 0.17992 0.34518 0.0
C657 C 0.28973 0.15494 0.35255 0.0
C658 C 0.29634 0.1235 0.33999 0.0
C659 C 0.32611 0.11769 0.31933 0.0
H660 H 0.1565 0.09239 0.56683 0.0
H661 H 0.06619 0.06791 0.50911 0.0
H662 H 0.14636 0.04371 0.60333 0.0
H663 H 0.05572 0.01996 0.5458 0.0
H664 H 0.05894 0.92275 0.60195 0.0
H665 H 0.08002 0.96609 0.56332 0.0
H666 H 0.10102 0.02718 0.6448 0.0
H667 H 0.08075 0.98355 0.68354 0.0
C668 C 0.13466 0.07655 0.56181 0.0
C669 C 0.11203 0.08409 0.53521 0.0
C670 C 0.12878 0.04879 0.58279 0.0
C671 C 0.10024 0.02804 0.57745 0.0
C672 C 0.07826 0.03516 0.55031 0.0
C673 C 0.0841 0.06284 0.52942 0.0
C674 C 0.06848 0.94526 0.61167 0.0
C675 C 0.06786 0.94986 0.6458 0.0
C676 C 0.08041 0.97013 0.58952 0.0
C677 C 0.09186 0.00015 0.60101 0.0
C678 C 0.09267 0.0042 0.63519 0.0
C679 C 0.08083 0.97928 0.65738 0.0
H680 H 0.09128 0.81003 0.8283 0.0
H681 H 0.13969 0.90167 0.79525 0.0
H682 H 0.13969 0.79876 0.86652 0.0
H683 H 0.18856 0.89004 0.83319 0.0
H684 H 0.25508 0.76963 0.89346 0.0
H685 H 0.20262 0.78346 0.86102 0.0
H686 H 0.20435 0.88402 0.89165 0.0
H687 H 0.25741 0.87037 0.92382 0.0
C688 C 0.11216 0.82788 0.82929 0.0
C689 C 0.11177 0.85664 0.80854 0.0
C690 C 0.14001 0.82131 0.8511 0.0
C691 C 0.16815 0.84333 0.85268 0.0
C692 C 0.16713 0.87269 0.83276 0.0
C693 C 0.13921 0.87929 0.81091 0.0
C694 C 0.24422 0.79466 0.89353 0.0
C695 C 0.2606 0.8189 0.91123 0.0
C696 C 0.21396 0.80255 0.87504 0.0
C697 C 0.19928 0.83485 0.87376 0.0
C698 C 0.21525 0.859 0.89186 0.0
C699 C 0.24554 0.8511 0.91045 0.0
H700 H 0.42514 0.01715 0.16579 0.0
H701 H 0.40119 0.07457 0.07619 0.0
H702 H 0.40742 0.96716 0.13988 0.0
H703 H 0.38415 0.02462 0.05018 0.0
H704 H 0.33495 0.93073 0.01775 0.0
H705 H 0.34186 0.97996 0.04934 0.0
H706 H 0.43377 0.93396 0.09672 0.0
H707 H 0.42658 0.88478 0.06572 0.0
C708 C 0.41566 0.0192 0.14073 0.0
C709 C 0.41487 0.04984 0.12299 0.0
C710 C 0.40575 0.99051 0.1258 0.0
C711 C 0.39472 0.99181 0.09282 0.0
C712 C 0.39224 0.02271 0.07567 0.0
C713 C 0.40221 0.05137 0.09057 0.0
C714 C 0.35642 0.93103 0.03515 0.0
C715 C 0.38031 0.90386 0.03908 0.0
C716 C 0.36046 0.9593 0.05314 0.0
C717 C 0.38838 0.96094 0.07557 0.0
C718 C 0.41167 0.9334 0.08005 0.0
C719 C 0.4077 0.90525 0.06203 0.0
H720 H 0.84039 0.38594 0.72636 0.0
H721 H 0.89393 0.35135 0.63881 0.0
H722 H 0.78286 0.3826 0.69964 0.0
H723 H 0.83707 0.34978 0.6113 0.0
H724 H 0.73284 0.29802 0.59555 0.0
H725 H 0.79005 0.31343 0.6156 0.0
H726 H 0.74053 0.39914 0.65906 0.0
H727 H 0.68257 0.38272 0.63998 0.0
C728 C 0.83987 0.37873 0.701 0.0
C729 C 0.8714 0.36853 0.68473 0.0
C730 C 0.80693 0.37683 0.68559 0.0
C731 C 0.80511 0.3652 0.65346 0.0
C732 C 0.83721 0.35778 0.63639 0.0
C733 C 0.86987 0.359 0.652 0.0
C734 C 0.73412 0.32039 0.60902 0.0
C735 C 0.70305 0.339 0.61631 0.0
C736 C 0.76713 0.32945 0.62038 0.0
C737 C 0.77016 0.35765 0.63901 0.0
C738 C 0.73922 0.37702 0.64523 0.0
C739 C 0.70601 0.36773 0.63409 0.0
H740 H 0.89473 0.4322 0.91963 0.0
H741 H 0.94126 0.4808 0.83247 0.0
H742 H 0.88026 0.48577 0.94207 0.0
H743 H 0.92613 0.53439 0.85471 0.0
H744 H 0.95194 0.61188 0.92951 0.0
H745 H 0.95292 0.56116 0.90035 0.0
H746 H 0.84706 0.53984 0.93832 0.0
H747 H 0.84613 0.59125 0.96817 0.0
C748 C 0.90114 0.4543 0.90488 0.0
C749 C 0.91975 0.45218 0.87448 0.0
C750 C 0.89263 0.48505 0.91772 0.0
C751 C 0.90255 0.51435 0.90044 0.0
C752 C 0.91875 0.51223 0.86893 0.0
C753 C 0.92726 0.48151 0.8561 0.0
C754 C 0.92868 0.59659 0.93164 0.0
C755 C 0.89902 0.60556 0.9514 0.0
C756 C 0.92912 0.56758 0.91454 0.0
C757 C 0.89997 0.54651 0.91673 0.0
C758 C 0.86998 0.55555 0.93619 0.0
C759 C 0.86941 0.58496 0.95321 0.0
H760 H 0.81585 0.64827 0.17117 0.0
H761 H 0.77686 0.67364 0.07352 0.0
H762 H 0.75643 0.63118 0.18892 0.0
H763 H 0.71759 0.65578 0.09112 0.0
H764 H 0.61685 0.68415 0.15341 0.0
H765 H 0.6757 0.68388 0.12752 0.0
H766 H 0.70471 0.59528 0.18526 0.0
H767 H 0.64528 0.59582 0.21177 0.0
C768 C 0.79484 0.64935 0.15323 0.0
C769 C 0.80086 0.66302 0.12116 0.0
C770 C 0.76079 0.63933 0.16337 0.0
C771 C 0.73217 0.64268 0.14158 0.0
C772 C 0.73898 0.65356 0.10867 0.0
C773 C 0.77296 0.6637 0.09857 0.0
C774 C 0.63555 0.66433 0.16035 0.0
C775 C 0.62659 0.64023 0.18492 0.0
C776 C 0.66924 0.66396 0.14521 0.0
C777 C 0.69493 0.63953 0.1543 0.0
C778 C 0.68552 0.61453 0.1779 0.0
C779 C 0.65152 0.61478 0.19297 0.0
H780 H 0.65425 0.41201 0.46058 0.0
H781 H 0.56023 0.38631 0.40887 0.0
H782 H 0.65421 0.46588 0.43023 0.0
H783 H 0.55988 0.43953 0.37924 0.0
H784 H 0.56809 0.53055 0.31907 0.0
H785 H 0.58928 0.47595 0.33889 0.0
H786 H 0.61461 0.51527 0.43243 0.0
H787 H 0.59435 0.56996 0.41238 0.0
C788 C 0.634 0.41764 0.44239 0.0
C789 C 0.60701 0.39515 0.43736 0.0
C790 C 0.63387 0.44846 0.42514 0.0
C791 C 0.60703 0.45703 0.40231 0.0
C792 C 0.58127 0.43368 0.39621 0.0
C793 C 0.58123 0.40321 0.41353 0.0
C794 C 0.57901 0.52772 0.34357 0.0
C795 C 0.57881 0.55445 0.3644 0.0
C796 C 0.59104 0.4964 0.35496 0.0
C797 C 0.60293 0.49112 0.38748 0.0
C798 C 0.60572 0.51846 0.40724 0.0
C799 C 0.59386 0.54983 0.39578 0.0
H800 H 0.31289 0.34134 0.10298 0.0
H801 H 0.26948 0.32065 0.20116 0.0
H802 H 0.34668 0.28866 0.10638 0.0
H803 H 0.3034 0.26899 0.20477 0.0
H804 H 0.34507 0.16636 0.19593 0.0
H805 H 0.30732 0.21479 0.183 0.0
H806 H 0.39756 0.26412 0.13696 0.0
H807 H 0.43526 0.21524 0.14914 0.0
C808 C 0.31041 0.32553 0.12514 0.0
C809 C 0.2886 0.33522 0.15181 0.0
C810 C 0.32987 0.29548 0.12717 0.0
C811 C 0.32764 0.27456 0.15581 0.0
C812 C 0.30531 0.28416 0.18212 0.0
C813 C 0.28605 0.31403 0.18014 0.0
C814 C 0.35682 0.18735 0.18267 0.0
C815 C 0.39329 0.18704 0.17388 0.0
C816 C 0.33519 0.21518 0.17538 0.0
C817 C 0.34952 0.2435 0.15933 0.0
C818 C 0.38562 0.24265 0.14914 0.0
C819 C 0.40727 0.21469 0.15631 0.0
H820 H 0.94304 0.2873 0.87365 0.0
H821 H 0.89632 0.28831 0.77711 0.0
H822 H 0.9083 0.23934 0.89092 0.0
H823 H 0.86174 0.24012 0.79449 0.0
H824 H 0.77568 0.18015 0.85124 0.0
H825 H 0.81145 0.22749 0.834 0.0
H826 H 0.90389 0.17988 0.87892 0.0
H827 H 0.8681 0.13248 0.89639 0.0
C828 C 0.9255 0.27723 0.85604 0.0
C829 C 0.92243 0.29173 0.82399 0.0
C830 C 0.90574 0.24963 0.86593 0.0
C831 C 0.88225 0.23604 0.8441 0.0
C832 C 0.87935 0.25031 0.81197 0.0
C833 C 0.89934 0.27778 0.80197 0.0
C834 C 0.80359 0.1798 0.8576 0.0
C835 C 0.81904 0.15253 0.87523 0.0
C836 C 0.82413 0.20682 0.84748 0.0
C837 C 0.8605 0.20732 0.85496 0.0
C838 C 0.87586 0.18028 0.87299 0.0
C839 C 0.85538 0.15311 0.88291 0.0
H840 H 0.15101 0.61561 0.1195 0.0
H841 H 0.0821 0.53162 0.12646 0.0
H842 H 0.10004 0.65135 0.10306 0.0
H843 H 0.03174 0.56721 0.10974 0.0
H844 H 0.96625 0.6326 0.03643 0.0
H845 H 0.01879 0.60031 0.05426 0.0
H846 H 0.03727 0.67007 0.12879 0.0
H847 H 0.98435 0.7024 0.11129 0.0
C848 C 0.12503 0.60485 0.11781 0.0
C849 C 0.12059 0.57081 0.12422 0.0
C850 C 0.09596 0.62529 0.10845 0.0
C851 C 0.06221 0.61186 0.10486 0.0
C852 C 0.05764 0.57803 0.11197 0.0
C853 C 0.08645 0.55775 0.12176 0.0
C854 C 0.98164 0.64126 0.05643 0.0
C855 C 0.97108 0.66996 0.07256 0.0
C856 C 0.01155 0.62267 0.06672 0.0
C857 C 0.03179 0.63269 0.09299 0.0
C858 C 0.02206 0.66195 0.10843 0.0
C859 C 0.99175 0.6803 0.09849 0.0
H860 H 0.61328 0.8781 0.33647 0.0
H861 H 0.69968 0.81331 0.37024 0.0
H862 H 0.57867 0.83 0.32402 0.0
H863 H 0.66532 0.76528 0.35681 0.0
H864 H 0.60642 0.70145 0.27878 0.0
H865 H 0.63948 0.74936 0.29449 0.0
H866 H 0.55471 0.77485 0.3631 0.0
H867 H 0.52193 0.72641 0.34824 0.0
C868 C 0.62475 0.85358 0.34135 0.0
C869 C 0.65907 0.84932 0.35435 0.0
C870 C 0.60496 0.8262 0.3343 0.0
C871 C 0.61956 0.79421 0.33938 0.0
C872 C 0.65371 0.78985 0.35264 0.0
C873 C 0.67318 0.81722 0.36046 0.0
C874 C 0.59477 0.71735 0.29711 0.0
C875 C 0.56162 0.71026 0.31231 0.0
C876 C 0.61377 0.74453 0.3062 0.0
C877 C 0.59954 0.76545 0.33003 0.0
C878 C 0.56609 0.75891 0.34468 0.0
C879 C 0.54745 0.73128 0.33619 0.0
H880 H 0.51688 0.35862 0.52002 0.0
H881 H 0.53748 0.34101 0.62386 0.0
H882 H 0.46626 0.39452 0.53375 0.0
H883 H 0.48755 0.37798 0.6376 0.0
H884 H 0.37373 0.42402 0.64936 0.0
H885 H 0.4237 0.38552 0.63833 0.0
H886 H 0.45574 0.44773 0.55389 0.0
H887 H 0.40557 0.48506 0.56419 0.0
C888 C 0.5107 0.36252 0.54579 0.0
C889 C 0.53134 0.34705 0.5708 0.0
C890 C 0.48178 0.3833 0.5537 0.0
C891 C 0.47302 0.38951 0.58682 0.0
C892 C 0.49329 0.37355 0.61188 0.0
C893 C 0.52205 0.35247 0.60396 0.0
C894 C 0.3917 0.42942 0.62863 0.0
C895 C 0.38558 0.45727 0.60744 0.0
C896 C 0.42032 0.40745 0.6223 0.0
C897 C 0.44345 0.41322 0.59487 0.0
C898 C 0.43793 0.4419 0.57462 0.0
C899 C 0.40927 0.46348 0.58069 0.0
H900 H 0.20056 0.67495 0.60367 0.0
H901 H 0.13819 0.63943 0.68837 0.0
H902 H 0.17313 0.72982 0.60829 0.0
H903 H 0.11113 0.69434 0.69312 0.0
H904 H 0.05202 0.79159 0.68244 0.0
H905 H 0.07197 0.73702 0.66581 0.0
H906 H 0.17887 0.77244 0.64965 0.0
H907 H 0.15894 0.82716 0.66591 0.0
C908 C 0.18066 0.67872 0.623 0.0
C909 C 0.17176 0.65294 0.64587 0.0
C910 C 0.16511 0.71017 0.62569 0.0
C911 C 0.1402 0.71638 0.65116 0.0
C912 C 0.13002 0.69021 0.67303 0.0
C913 C 0.14569 0.6588 0.67044 0.0
C914 C 0.07969 0.78789 0.67488 0.0
C915 C 0.10405 0.81358 0.67586 0.0
C916 C 0.09108 0.7566 0.66548 0.0
C917 C 0.127 0.75043 0.65673 0.0
C918 C 0.15094 0.77655 0.65602 0.0
C919 C 0.13957 0.80785 0.66552 0.0
H920 H 0.41488 0.92712 0.89417 0.0
H921 H 0.46159 0.83113 0.92063 0.0
H922 H 0.47409 0.94813 0.88148 0.0
H923 H 0.52077 0.85205 0.90727 0.0
H924 H 0.61248 0.91693 0.93891 0.0
H925 H 0.55558 0.89015 0.93737 0.0
H926 H 0.52991 0.94691 0.84782 0.0
H927 H 0.5873 0.9743 0.84956 0.0
C928 C 0.43768 0.91026 0.8965 0.0
C929 C 0.43356 0.87761 0.90901 0.0
C930 C 0.47166 0.9223 0.88903 0.0
C931 C 0.50217 0.9019 0.89388 0.0
C932 C 0.49779 0.86854 0.90391 0.0
C933 C 0.46385 0.85652 0.91142 0.0
C934 C 0.59492 0.92359 0.91868 0.0
C935 C 0.6043 0.94796 0.8945 0.0
C936 C 0.56238 0.90793 0.91762 0.0
C937 C 0.53824 0.91627 0.89239 0.0
C938 C 0.54791 0.94008 0.86766 0.0
C939 C 0.58076 0.95568 0.8686 0.0
H940 H 0.8498 0.08157 0.34687 0.0
H941 H 0.90403 0.00563 0.40633 0.0
H942 H 0.90481 0.1136 0.34334 0.0
H943 H 0.95885 0.03673 0.40193 0.0
H944 H 0.05799 0.08848 0.37378 0.0
H945 H 0.00491 0.06094 0.35682 0.0
H946 H 0.93843 0.13956 0.39484 0.0
H947 H 0.99155 0.16715 0.41242 0.0
C948 C 0.8738 0.07131 0.35817 0.0
C949 C 0.873 0.04121 0.37675 0.0
C950 C 0.90505 0.08963 0.35633 0.0
C951 C 0.93598 0.07749 0.37224 0.0
C952 C 0.93551 0.04644 0.3891 0.0
C953 C 0.9042 0.0287 0.39169 0.0
C954 C 0.03218 0.10043 0.37783 0.0
C955 C 0.02896 0.12971 0.39507 0.0
C956 C 0.00183 0.08462 0.36804 0.0
C957 C 0.96771 0.09803 0.37478 0.0
C958 C 0.96451 0.12884 0.3892 0.0
C959 C 0.99491 0.14451 0.39942 0.0
loop_
_geom_bond_atom_site_label_1
_geom_bond_atom_site_label_2
_geom_bond_distance
_geom_bond_site_symmetry_2
_ccdc_geom_bond_type
Zn0 O6 1.969 . S
Zn0 O7 1.965 . S
Zn0 O11 2.024 . S
Zn0 O16 1.969 . S
Zn1 O8 1.969 . S
Zn1 O14 1.969 . S
Zn1 O15 1.965 . S
Zn1 O17 2.024 . S
C2 O3 1.229 . S
C2 O11 1.058 . S
O3 C2 1.229 . S
C4 O5 1.229 . S
C4 O17 1.058 . S
O5 C4 1.229 . S
O6 Zn0 1.969 . S
O6 C9 1.267 . S
O7 Zn0 1.965 . S
O7 C18 1.260 . S
O8 Zn1 1.969 . S
O8 C18 1.258 . S
C9 O6 1.267 . S
C9 O10 1.228 . S
O10 C9 1.228 . S
O11 Zn0 2.024 . S
O11 C2 1.058 . S
C12 O13 1.228 . S
C12 O14 1.267 . S
O13 C12 1.228 . S
O14 Zn1 1.969 . S
O14 C12 1.267 . S
O15 Zn1 1.965 . S
O15 C19 1.260 . S
O16 Zn0 1.969 . S
O16 C19 1.258 . S
O17 Zn1 2.024 . S
O17 C4 1.058 . S
C18 O7 1.260 . S
C18 O8 1.258 . S
C19 O15 1.260 . S
C19 O16 1.258 . S
Zn20 O26 1.969 . S
Zn20 O27 1.965 1_655 S
Zn20 O31 2.024 . S
Zn20 O36 1.969 . S
Zn21 O28 1.969 . S
Zn21 O34 1.969 . S
Zn21 O35 1.965 . S
Zn21 O37 2.024 . S
C22 O23 1.229 . S
C22 O31 1.058 . S
O23 C22 1.229 . S
C24 O25 1.229 . S
C24 O37 1.058 . S
O25 C24 1.229 . S
O26 Zn20 1.969 . S
O26 C29 1.267 . S
O27 Zn20 1.965 1_455 S
O27 C38 1.260 . S
O28 Zn21 1.969 . S
O28 C38 1.258 . S
C29 O26 1.267 . S
C29 O30 1.228 . S
O30 C29 1.228 . S
O31 Zn20 2.024 . S
O31 C22 1.058 . S
C32 O33 1.228 . S
C32 O34 1.267 . S
O33 C32 1.228 . S
O34 Zn21 1.969 . S
O34 C32 1.267 . S
O35 Zn21 1.965 . S
O35 C39 1.260 . S
O36 Zn20 1.969 . S
O36 C39 1.258 1_655 S
O37 Zn21 2.024 . S
O37 C24 1.058 . S
C38 O27 1.260 . S
C38 O28 1.258 . S
C39 O35 1.260 . S
C39 O36 1.258 1_455 S
Zn40 O46 1.969 . S
Zn40 O47 1.965 . S
Zn40 O51 2.024 . S
Zn40 O56 1.969 . S
Zn41 O48 1.969 . S
Zn41 O54 1.969 . S
Zn41 O55 1.965 . S
Zn41 O57 2.024 . S
C42 O43 1.229 . S
C42 O51 1.058 . S
O43 C42 1.229 . S
C44 O45 1.229 . S
C44 O57 1.058 . S
O45 C44 1.229 . S
O46 Zn40 1.969 . S
O46 C49 1.267 . S
O47 Zn40 1.965 . S
O47 C58 1.260 . S
O48 Zn41 1.969 . S
O48 C58 1.258 . S
C49 O46 1.267 . S
C49 O50 1.228 . S
O50 C49 1.228 . S
O51 Zn40 2.024 . S
O51 C42 1.058 . S
C52 O53 1.228 . S
C52 O54 1.267 1_554 S
O53 C52 1.228 . S
O54 Zn41 1.969 . S
O54 C52 1.267 1_556 S
O55 Zn41 1.965 . S
O55 C59 1.260 . S
O56 Zn40 1.969 . S
O56 C59 1.258 . S
O57 Zn41 2.024 . S
O57 C44 1.058 . S
C58 O47 1.260 . S
C58 O48 1.258 . S
C59 O55 1.260 . S
C59 O56 1.258 . S
Zn60 O66 1.969 . S
Zn60 O67 1.965 . S
Zn60 O71 2.024 . S
Zn60 O76 1.969 . S
Zn61 O68 1.969 . S
Zn61 O74 1.969 . S
Zn61 O75 1.965 . S
Zn61 O77 2.024 . S
C62 O63 1.229 . S
C62 O71 1.058 . S
O63 C62 1.229 . S
C64 O65 1.229 . S
C64 O77 1.058 . S
O65 C64 1.229 . S
O66 Zn60 1.969 . S
O66 C69 1.267 . S
O67 Zn60 1.965 . S
O67 C78 1.260 . S
O68 Zn61 1.969 . S
O68 C78 1.258 . S
C69 O66 1.267 . S
C69 O70 1.228 . S
O70 C69 1.228 . S
O71 Zn60 2.024 . S
O71 C62 1.058 . S
C72 O73 1.228 . S
C72 O74 1.267 . S
O73 C72 1.228 . S
O74 Zn61 1.969 . S
O74 C72 1.267 . S
O75 Zn61 1.965 . S
O75 C79 1.260 . S
O76 Zn60 1.969 . S
O76 C79 1.258 . S
O77 Zn61 2.024 . S
O77 C64 1.058 . S
C78 O67 1.260 . S
C78 O68 1.258 . S
C79 O75 1.260 . S
C79 O76 1.258 . S
Zn80 O86 1.969 . S
Zn80 O87 1.965 . S
Zn80 O91 2.024 . S
Zn80 O96 1.969 . S
Zn81 O88 1.969 . S
Zn81 O94 1.969 . S
Zn81 O95 1.965 . S
Zn81 O97 2.024 . S
C82 O83 1.229 . S
C82 O91 1.058 . S
O83 C82 1.229 . S
C84 O85 1.229 . S
C84 O97 1.058 . S
O85 C84 1.229 . S
O86 Zn80 1.969 . S
O86 C89 1.267 . S
O87 Zn80 1.965 . S
O87 C98 1.260 . S
O88 Zn81 1.969 . S
O88 C98 1.258 . S
C89 O86 1.267 . S
C89 O90 1.228 . S
O90 C89 1.228 . S
O91 Zn80 2.024 . S
O91 C82 1.058 . S
C92 O93 1.228 . S
C92 O94 1.267 . S
O93 C92 1.228 . S
O94 Zn81 1.969 . S
O94 C92 1.267 . S
O95 Zn81 1.965 . S
O95 C99 1.260 . S
O96 Zn80 1.969 . S
O96 C99 1.258 . S
O97 Zn81 2.024 . S
O97 C84 1.058 . S
C98 O87 1.260 . S
C98 O88 1.258 . S
C99 O95 1.260 . S
C99 O96 1.258 . S
Zn100 O106 1.969 . S
Zn100 O107 1.965 . S
Zn100 O111 2.024 . S
Zn100 O116 1.969 . S
Zn101 O108 1.969 . S
Zn101 O114 1.969 1_655 S
Zn101 O115 1.965 1_655 S
Zn101 O117 2.024 . S
C102 O103 1.229 . S
C102 O111 1.058 . S
O103 C102 1.229 . S
C104 O105 1.229 . S
C104 O117 1.058 . S
O105 C104 1.229 . S
O106 Zn100 1.969 . S
O106 C109 1.267 . S
O107 Zn100 1.965 . S
O107 C118 1.260 . S
O108 Zn101 1.969 . S
O108 C118 1.258 . S
C109 O106 1.267 . S
C109 O110 1.228 . S
O110 C109 1.228 . S
O111 Zn100 2.024 . S
O111 C102 1.058 . S
C112 O113 1.228 . S
C112 O114 1.267 . S
O113 C112 1.228 . S
O114 Zn101 1.969 1_455 S
O114 C112 1.267 . S
O115 Zn101 1.965 1_455 S
O115 C119 1.260 . S
O116 Zn100 1.969 . S
O116 C119 1.258 1_655 S
O117 Zn101 2.024 . S
O117 C104 1.058 . S
C118 O107 1.260 . S
C118 O108 1.258 . S
C119 O115 1.260 . S
C119 O116 1.258 1_455 S
Zn120 O126 1.969 . S
Zn120 O127 1.965 1_556 S
Zn120 O131 2.024 . S
Zn120 O136 1.969 . S
Zn121 O128 1.969 . S
Zn121 O134 1.969 . S
Zn121 O135 1.965 . S
Zn121 O137 2.024 . S
C122 O123 1.229 . S
C122 O131 1.058 . S
O123 C122 1.229 . S
C124 O125 1.229 . S
C124 O137 1.058 . S
O125 C124 1.229 . S
O126 Zn120 1.969 . S
O126 C129 1.267 . S
O127 Zn120 1.965 1_554 S
O127 C138 1.260 . S
O128 Zn121 1.969 . S
O128 C138 1.258 . S
C129 O126 1.267 . S
C129 O130 1.228 . S
O130 C129 1.228 . S
O131 Zn120 2.024 . S
O131 C122 1.058 . S
C132 O133 1.228 . S
C132 O134 1.267 . S
O133 C132 1.228 . S
O134 Zn121 1.969 . S
O134 C132 1.267 . S
O135 Zn121 1.965 . S
O135 C139 1.260 . S
O136 Zn120 1.969 . S
O136 C139 1.258 1_556 S
O137 Zn121 2.024 . S
O137 C124 1.058 . S
C138 O127 1.260 . S
C138 O128 1.258 . S
C139 O135 1.260 . S
C139 O136 1.258 1_554 S
Zn140 O146 1.969 . S
Zn140 O147 1.965 . S
Zn140 O151 2.024 . S
Zn140 O156 1.969 . S
Zn141 O148 1.969 . S
Zn141 O154 1.969 . S
Zn141 O155 1.965 . S
Zn141 O157 2.024 . S
C142 O143 1.229 . S
C142 O151 1.058 . S
O143 C142 1.229 . S
C144 O145 1.229 . S
C144 O157 1.058 . S
O145 C144 1.229 . S
O146 Zn140 1.969 . S
O146 C149 1.267 . S
O147 Zn140 1.965 . S
O147 C158 1.260 . S
O148 Zn141 1.969 . S
O148 C158 1.258 . S
C149 O146 1.267 . S
C149 O150 1.228 . S
O150 C149 1.228 . S
O151 Zn140 2.024 . S
O151 C142 1.058 . S
C152 O153 1.228 . S
C152 O154 1.267 . S
O153 C152 1.228 . S
O154 Zn141 1.969 . S
O154 C152 1.267 . S
O155 Zn141 1.965 . S
O155 C159 1.260 . S
O156 Zn140 1.969 . S
O156 C159 1.258 . S
O157 Zn141 2.024 . S
O157 C144 1.058 . S
C158 O147 1.260 . S
C158 O148 1.258 . S
C159 O155 1.260 . S
C159 O156 1.258 . S
Zn160 O166 1.969 . S
Zn160 O167 1.965 . S
Zn160 O171 2.024 . S
Zn160 O176 1.969 . S
Zn161 O168 1.969 . S
Zn161 O174 1.969 . S
Zn161 O175 1.965 . S
Zn161 O177 2.024 . S
C162 O163 1.229 . S
C162 O171 1.058 . S
O163 C162 1.229 . S
C164 O165 1.229 . S
C164 O177 1.058 . S
O165 C164 1.229 . S
O166 Zn160 1.969 . S
O166 C169 1.267 . S
O167 Zn160 1.965 . S
O167 C178 1.260 . S
O168 Zn161 1.969 . S
O168 C178 1.258 . S
C169 O166 1.267 . S
C169 O170 1.228 . S
O170 C169 1.228 . S
O171 Zn160 2.024 . S
O171 C162 1.058 . S
C172 O173 1.228 . S
C172 O174 1.267 . S
O173 C172 1.228 . S
O174 Zn161 1.969 . S
O174 C172 1.267 . S
O175 Zn161 1.965 . S
O175 C179 1.260 . S
O176 Zn160 1.969 . S
O176 C179 1.258 . S
O177 Zn161 2.024 . S
O177 C164 1.058 . S
C178 O167 1.260 . S
C178 O168 1.258 . S
C179 O175 1.260 . S
C179 O176 1.258 . S
Zn180 O186 1.969 1_545 S
Zn180 O187 1.965 . S
Zn180 O191 2.024 . S
Zn180 O196 1.969 . S
Zn181 O188 1.969 . S
Zn181 O194 1.969 . S
Zn181 O195 1.965 . S
Zn181 O197 2.024 . S
C182 O183 1.229 . S
C182 O191 1.059 1_565 S
O183 C182 1.229 . S
C184 O185 1.229 . S
C184 O197 1.058 . S
O185 C184 1.229 . S
O186 Zn180 1.969 1_565 S
O186 C189 1.267 . S
O187 Zn180 1.965 . S
O187 C198 1.260 . S
O188 Zn181 1.969 . S
O188 C198 1.258 . S
C189 O186 1.267 . S
C189 O190 1.228 . S
O190 C189 1.228 . S
O191 Zn180 2.024 . S
O191 C182 1.059 1_545 S
C192 O193 1.228 . S
C192 O194 1.267 . S
O193 C192 1.228 . S
O194 Zn181 1.969 . S
O194 C192 1.267 . S
O195 Zn181 1.965 . S
O195 C199 1.260 . S
O196 Zn180 1.969 . S
O196 C199 1.258 . S
O197 Zn181 2.024 . S
O197 C184 1.058 . S
C198 O187 1.260 . S
C198 O188 1.258 . S
C199 O195 1.260 . S
C199 O196 1.258 . S
Zn200 O206 1.971 . S
Zn200 O207 1.962 1_545 S
Zn200 O211 2.024 . S
Zn200 O216 1.969 . S
Zn201 O208 1.969 . S
Zn201 O214 1.969 . S
Zn201 O215 1.965 . S
Zn201 O217 2.024 . S
C202 O203 1.229 . S
C202 O211 1.058 . S
O203 C202 1.229 . S
C204 O205 1.229 . S
C204 O217 1.058 . S
O205 C204 1.229 . S
O206 Zn200 1.971 . S
O206 C209 1.267 . S
O207 Zn200 1.962 1_565 S
O207 C218 1.260 . S
O208 Zn201 1.969 . S
O208 C218 1.258 . S
C209 O206 1.267 . S
C209 O210 1.228 . S
O210 C209 1.228 . S
O211 Zn200 2.024 . S
O211 C202 1.058 . S
C212 O213 1.228 . S
C212 O214 1.267 . S
O213 C212 1.228 . S
O214 Zn201 1.969 . S
O214 C212 1.267 . S
O215 Zn201 1.965 . S
O215 C219 1.260 . S
O216 Zn200 1.969 . S
O216 C219 1.258 1_545 S
O217 Zn201 2.024 . S
O217 C204 1.058 . S
C218 O207 1.260 . S
C218 O208 1.258 . S
C219 O215 1.260 . S
C219 O216 1.258 1_565 S
Zn220 O226 1.969 . S
Zn220 O227 1.965 . S
Zn220 O231 2.024 . S
Zn220 O236 1.969 . S
Zn221 O228 1.969 . S
Zn221 O234 1.969 . S
Zn221 O235 1.965 . S
Zn221 O237 2.024 . S
C222 O223 1.229 . S
C222 O231 1.058 . S
O223 C222 1.229 . S
C224 O225 1.229 . S
C224 O237 1.058 . S
O225 C224 1.229 . S
O226 Zn220 1.969 . S
O226 C229 1.267 . S
O227 Zn220 1.965 . S
O227 C238 1.260 . S
O228 Zn221 1.969 . S
O228 C238 1.258 . S
C229 O226 1.267 . S
C229 O230 1.228 . S
O230 C229 1.228 . S
O231 Zn220 2.024 . S
O231 C222 1.058 . S
C232 O233 1.228 . S
C232 O234 1.267 . S
O233 C232 1.228 . S
O234 Zn221 1.969 . S
O234 C232 1.267 . S
O235 Zn221 1.965 . S
O235 C239 1.260 . S
O236 Zn220 1.969 . S
O236 C239 1.258 . S
O237 Zn221 2.024 . S
O237 C224 1.058 . S
C238 O227 1.260 . S
C238 O228 1.258 . S
C239 O235 1.260 . S
C239 O236 1.258 . S
H240 C248 0.950 . S
H241 C253 0.950 . S
H242 C250 0.950 . S
H243 C252 0.950 . S
H244 C254 0.950 . S
H245 C256 0.950 . S
H246 C258 0.950 . S
H247 C259 0.950 . S
C248 H240 0.950 . S
C248 C249 1.386 . S
C248 C250 1.391 . S
C249 C248 1.386 . S
C249 C253 1.393 . S
C250 H242 0.950 . S
C250 C248 1.391 . S
C250 C251 1.400 . S
C251 C250 1.400 . S
C251 C252 1.398 . S
C251 C257 1.491 . S
C252 H243 0.950 . S
C252 C251 1.398 . S
C252 C253 1.391 . S
C253 H241 0.950 . S
C253 C249 1.393 . S
C253 C252 1.391 . S
C254 H244 0.950 . S
C254 C255 1.386 . S
C254 C256 1.391 . S
C255 C254 1.386 . S
C255 C259 1.393 . S
C256 H245 0.950 . S
C256 C254 1.391 . S
C256 C257 1.400 . S
C257 C251 1.491 . S
C257 C256 1.400 . S
C257 C258 1.398 . S
C258 H246 0.950 . S
C258 C257 1.398 . S
C258 C259 1.391 . S
C259 H247 0.950 . S
C259 C255 1.393 . S
C259 C258 1.391 . S
H260 C268 0.950 . S
H261 C273 0.950 . S
H262 C270 0.950 . S
H263 C272 0.950 . S
H264 C274 0.950 . S
H265 C276 0.950 . S
H266 C278 0.950 . S
H267 C279 0.950 1_545 S
C268 H260 0.950 . S
C268 C269 1.386 . S
C268 C270 1.391 . S
C269 C268 1.386 . S
C269 C273 1.393 1_545 S
C270 H262 0.950 . S
C270 C268 1.391 . S
C270 C271 1.400 1_545 S
C271 C270 1.400 1_565 S
C271 C272 1.398 . S
C271 C277 1.491 . S
C272 H263 0.950 . S
C272 C271 1.398 . S
C272 C273 1.391 . S
C273 H261 0.950 . S
C273 C269 1.393 1_565 S
C273 C272 1.391 . S
C274 H264 0.950 . S
C274 C275 1.386 . S
C274 C276 1.391 . S
C275 C274 1.386 . S
C275 C279 1.393 . S
C276 H265 0.950 . S
C276 C274 1.391 . S
C276 C277 1.400 . S
C277 C271 1.491 . S
C277 C276 1.400 . S
C277 C278 1.398 1_565 S
C278 H266 0.950 . S
C278 C277 1.398 1_545 S
C278 C279 1.391 1_545 S
C279 H267 0.950 1_565 S
C279 C275 1.393 . S
C279 C278 1.391 1_565 S
H280 C288 0.950 . S
H281 C293 0.950 . S
H282 C290 0.950 . S
H283 C292 0.950 . S
H284 C294 0.950 . S
H285 C296 0.950 . S
H286 C298 0.950 . S
H287 C299 0.950 . S
C288 H280 0.950 . S
C288 C289 1.386 . S
C288 C290 1.391 1_556 S
C289 C288 1.386 . S
C289 C293 1.393 1_556 S
C290 H282 0.950 . S
C290 C288 1.391 1_554 S
C290 C291 1.400 . S
C291 C290 1.400 . S
C291 C292 1.398 . S
C291 C297 1.491 . S
C292 H283 0.950 . S
C292 C291 1.398 . S
C292 C293 1.391 . S
C293 H281 0.950 . S
C293 C289 1.393 1_554 S
C293 C292 1.391 . S
C294 H284 0.950 . S
C294 C295 1.386 . S
C294 C296 1.391 . S
C295 C294 1.386 . S
C295 C299 1.393 . S
C296 H285 0.950 . S
C296 C294 1.391 . S
C296 C297 1.400 . S
C297 C291 1.491 . S
C297 C296 1.400 . S
C297 C298 1.398 . S
C298 H286 0.950 . S
C298 C297 1.398 . S
C298 C299 1.391 . S
C299 H287 0.950 . S
C299 C295 1.393 . S
C299 C298 1.391 . S
H300 C308 0.950 . S
H301 C313 0.950 . S
H302 C310 0.950 . S
H303 C312 0.950 . S
H304 C314 0.950 . S
H305 C316 0.950 1_565 S
H306 C318 0.950 . S
H307 C319 0.950 . S
C308 H300 0.950 . S
C308 C309 1.386 . S
C308 C310 1.391 . S
C309 C308 1.386 . S
C309 C313 1.393 . S
C310 H302 0.950 . S
C310 C308 1.391 . S
C310 C311 1.400 . S
C311 C310 1.400 . S
C311 C312 1.398 . S
C311 C317 1.491 . S
C312 H303 0.950 . S
C312 C311 1.398 . S
C312 C313 1.391 . S
C313 H301 0.950 . S
C313 C309 1.393 . S
C313 C312 1.391 . S
C314 H304 0.950 . S
C314 C315 1.386 . S
C314 C316 1.391 1_565 S
C315 C314 1.386 . S
C315 C319 1.393 1_565 S
C316 H305 0.950 1_545 S
C316 C314 1.391 1_545 S
C316 C317 1.400 . S
C317 C311 1.491 . S
C317 C316 1.400 . S
C317 C318 1.398 . S
C318 H306 0.950 . S
C318 C317 1.398 . S
C318 C319 1.391 . S
C319 H307 0.950 . S
C319 C315 1.393 1_545 S
C319 C318 1.391 . S
H320 C328 0.950 . S
H321 C333 0.950 . S
H322 C330 0.950 . S
H323 C332 0.950 . S
H324 C334 0.950 . S
H325 C336 0.950 . S
H326 C338 0.950 . S
H327 C339 0.950 . S
C328 H320 0.950 . S
C328 C329 1.386 . S
C328 C330 1.391 . S
C329 C328 1.386 . S
C329 C333 1.393 . S
C330 H322 0.950 . S
C330 C328 1.391 . S
C330 C331 1.400 . S
C331 C330 1.400 . S
C331 C332 1.398 . S
C331 C337 1.491 . S
C332 H323 0.950 . S
C332 C331 1.398 . S
C332 C333 1.391 . S
C333 H321 0.950 . S
C333 C329 1.393 . S
C333 C332 1.391 . S
C334 H324 0.950 . S
C334 C335 1.386 . S
C334 C336 1.391 . S
C335 C334 1.386 . S
C335 C339 1.393 . S
C336 H325 0.950 . S
C336 C334 1.391 . S
C336 C337 1.400 . S
C337 C331 1.491 . S
C337 C336 1.400 . S
C337 C338 1.398 . S
C338 H326 0.950 . S
C338 C337 1.398 . S
C338 C339 1.391 . S
C339 H327 0.950 . S
C339 C335 1.393 . S
C339 C338 1.391 . S
H340 C348 0.950 . S
H341 C353 0.950 . S
H342 C350 0.950 . S
H343 C352 0.950 . S
H344 C354 0.950 . S
H345 C356 0.950 . S
H346 C358 0.950 . S
H347 C359 0.950 . S
C348 H340 0.950 . S
C348 C349 1.386 . S
C348 C350 1.391 . S
C349 C348 1.386 . S
C349 C353 1.393 . S
C350 H342 0.950 . S
C350 C348 1.391 . S
C350 C351 1.400 . S
C351 C350 1.400 . S
C351 C352 1.398 . S
C351 C357 1.491 . S
C352 H343 0.950 . S
C352 C351 1.398 . S
C352 C353 1.391 . S
C353 H341 0.950 . S
C353 C349 1.393 . S
C353 C352 1.391 . S
C354 H344 0.950 . S
C354 C355 1.386 . S
C354 C356 1.391 . S
C355 C354 1.386 . S
C355 C359 1.393 . S
C356 H345 0.950 . S
C356 C354 1.391 . S
C356 C357 1.400 . S
C357 C351 1.491 . S
C357 C356 1.400 . S
C357 C358 1.398 . S
C358 H346 0.950 . S
C358 C357 1.398 . S
C358 C359 1.391 . S
C359 H347 0.950 . S
C359 C355 1.393 . S
C359 C358 1.391 . S
H360 C368 0.950 . S
H361 C373 0.950 . S
H362 C370 0.950 . S
H363 C372 0.950 . S
H364 C374 0.950 . S
H365 C376 0.950 1_554 S
H366 C378 0.950 . S
H367 C379 0.950 . S
C368 H360 0.950 . S
C368 C369 1.386 . S
C368 C370 1.391 . S
C369 C368 1.386 . S
C369 C373 1.393 . S
C370 H362 0.950 . S
C370 C368 1.391 . S
C370 C371 1.400 . S
C371 C370 1.400 . S
C371 C372 1.398 . S
C371 C377 1.491 . S
C372 H363 0.950 . S
C372 C371 1.398 . S
C372 C373 1.391 . S
C373 H361 0.950 . S
C373 C369 1.393 . S
C373 C372 1.391 . S
C374 H364 0.950 . S
C374 C375 1.386 1_554 S
C374 C376 1.391 1_554 S
C375 C374 1.386 1_556 S
C375 C379 1.393 . S
C376 H365 0.950 1_556 S
C376 C374 1.391 1_556 S
C376 C377 1.400 . S
C377 C371 1.491 . S
C377 C376 1.400 . S
C377 C378 1.398 . S
C378 H366 0.950 . S
C378 C377 1.398 . S
C378 C379 1.391 . S
C379 H367 0.950 . S
C379 C375 1.393 . S
C379 C378 1.391 . S
H380 C388 0.950 . S
H381 C393 0.950 . S
H382 C390 0.950 . S
H383 C392 0.950 . S
H384 C394 0.950 . S
H385 C396 0.950 . S
H386 C398 0.950 . S
H387 C399 0.950 . S
C388 H380 0.950 . S
C388 C389 1.386 . S
C388 C390 1.391 . S
C389 C388 1.386 . S
C389 C393 1.393 . S
C390 H382 0.950 . S
C390 C388 1.391 . S
C390 C391 1.400 . S
C391 C390 1.400 . S
C391 C392 1.398 . S
C391 C397 1.491 . S
C392 H383 0.950 . S
C392 C391 1.398 . S
C392 C393 1.391 . S
C393 H381 0.950 . S
C393 C389 1.393 . S
C393 C392 1.391 . S
C394 H384 0.950 . S
C394 C395 1.386 . S
C394 C396 1.391 . S
C395 C394 1.386 . S
C395 C399 1.393 . S
C396 H385 0.950 . S
C396 C394 1.391 . S
C396 C397 1.400 . S
C397 C391 1.491 . S
C397 C396 1.400 . S
C397 C398 1.398 . S
C398 H386 0.950 . S
C398 C397 1.398 . S
C398 C399 1.391 . S
C399 H387 0.950 . S
C399 C395 1.393 . S
C399 C398 1.391 . S
H400 C408 0.950 . S
H401 C413 0.950 . S
H402 C410 0.950 . S
H403 C412 0.950 . S
H404 C414 0.950 . S
H405 C416 0.950 . S
H406 C418 0.950 . S
H407 C419 0.950 . S
C408 H400 0.950 . S
C408 C409 1.386 . S
C408 C410 1.391 . S
C409 C408 1.386 . S
C409 C413 1.393 . S
C410 H402 0.950 . S
C410 C408 1.391 . S
C410 C411 1.400 . S
C411 C410 1.400 . S
C411 C412 1.398 . S
C411 C417 1.491 . S
C412 H403 0.950 . S
C412 C411 1.398 . S
C412 C413 1.391 . S
C413 H401 0.950 . S
C413 C409 1.393 . S
C413 C412 1.391 . S
C414 H404 0.950 . S
C414 C415 1.386 . S
C414 C416 1.391 . S
C415 C414 1.386 . S
C415 C419 1.393 . S
C416 H405 0.950 . S
C416 C414 1.391 . S
C416 C417 1.400 . S
C417 C411 1.491 . S
C417 C416 1.400 . S
C417 C418 1.398 . S
C418 H406 0.950 . S
C418 C417 1.398 . S
C418 C419 1.391 . S
C419 H407 0.950 . S
C419 C415 1.393 . S
C419 C418 1.391 . S
H420 C428 0.950 . S
H421 C433 0.950 . S
H422 C430 0.950 . S
H423 C432 0.950 . S
H424 C434 0.950 1_655 S
H425 C436 0.950 . S
H426 C438 0.950 . S
H427 C439 0.950 . S
C428 H420 0.950 . S
C428 C429 1.386 . S
C428 C430 1.391 . S
C429 C428 1.386 . S
C429 C433 1.393 . S
C430 H422 0.950 . S
C430 C428 1.391 . S
C430 C431 1.400 . S
C431 C430 1.400 . S
C431 C432 1.398 . S
C431 C437 1.491 . S
C432 H423 0.950 . S
C432 C431 1.398 . S
C432 C433 1.391 . S
C433 H421 0.950 . S
C433 C429 1.393 . S
C433 C432 1.391 . S
C434 H424 0.950 1_455 S
C434 C435 1.386 . S
C434 C436 1.391 . S
C435 C434 1.386 . S
C435 C439 1.393 . S
C436 H425 0.950 . S
C436 C434 1.391 . S
C436 C437 1.400 . S
C437 C431 1.491 . S
C437 C436 1.400 . S
C437 C438 1.398 . S
C438 H426 0.950 . S
C438 C437 1.398 . S
C438 C439 1.391 . S
C439 H427 0.950 . S
C439 C435 1.393 . S
C439 C438 1.391 . S
H440 C448 0.950 . S
H441 C453 0.950 . S
H442 C450 0.950 . S
H443 C452 0.950 . S
H444 C454 0.950 1_455 S
H445 C456 0.950 1_455 S
H446 C458 0.950 . S
H447 C459 0.950 . S
C448 H440 0.950 . S
C448 C449 1.386 . S
C448 C450 1.391 . S
C449 C448 1.386 . S
C449 C453 1.393 1_655 S
C450 H442 0.950 . S
C450 C448 1.391 . S
C450 C451 1.400 . S
C451 C450 1.400 . S
C451 C452 1.398 1_655 S
C451 C457 1.491 . S
C452 H443 0.950 . S
C452 C451 1.398 1_455 S
C452 C453 1.391 . S
C453 H441 0.950 . S
C453 C449 1.393 1_455 S
C453 C452 1.391 . S
C454 H444 0.950 1_655 S
C454 C455 1.386 . S
C454 C456 1.391 . S
C455 C454 1.386 . S
C455 C459 1.393 . S
C456 H445 0.950 1_655 S
C456 C454 1.391 . S
C456 C457 1.400 . S
C457 C451 1.491 . S
C457 C456 1.400 . S
C457 C458 1.398 . S
C458 H446 0.950 . S
C458 C457 1.398 . S
C458 C459 1.391 . S
C459 H447 0.950 . S
C459 C455 1.393 . S
C459 C458 1.391 . S
H460 C468 0.950 . S
H461 C473 0.950 . S
H462 C470 0.950 . S
H463 C472 0.950 . S
H464 C474 0.950 . S
H465 C476 0.950 . S
H466 C478 0.950 . S
H467 C479 0.950 . S
C468 H460 0.950 . S
C468 C469 1.386 . S
C468 C470 1.391 . S
C469 C468 1.386 . S
C469 C473 1.393 . S
C470 H462 0.950 . S
C470 C468 1.391 . S
C470 C471 1.400 . S
C471 C470 1.400 . S
C471 C472 1.398 . S
C471 C477 1.491 . S
C472 H463 0.950 . S
C472 C471 1.398 . S
C472 C473 1.391 . S
C473 H461 0.950 . S
C473 C469 1.393 . S
C473 C472 1.391 . S
C474 H464 0.950 . S
C474 C475 1.386 . S
C474 C476 1.391 . S
C475 C474 1.386 . S
C475 C479 1.393 . S
C476 H465 0.950 . S
C476 C474 1.391 . S
C476 C477 1.400 . S
C477 C471 1.491 . S
C477 C476 1.400 . S
C477 C478 1.398 . S
C478 H466 0.950 . S
C478 C477 1.398 . S
C478 C479 1.391 . S
C479 H467 0.950 . S
C479 C475 1.393 . S
C479 C478 1.391 . S
H480 C488 0.950 . S
H481 C493 0.950 . S
H482 C490 0.950 . S
H483 C492 0.950 . S
H484 C494 0.950 . S
H485 C496 0.950 . S
H486 C498 0.950 . S
H487 C499 0.950 . S
C488 H480 0.950 . S
C488 C489 1.386 . S
C488 C490 1.391 . S
C489 C488 1.386 . S
C489 C493 1.393 . S
C490 H482 0.950 . S
C490 C488 1.391 . S
C490 C491 1.400 . S
C491 C490 1.400 . S
C491 C492 1.398 . S
C491 C497 1.491 . S
C492 H483 0.950 . S
C492 C491 1.398 . S
C492 C493 1.391 . S
C493 H481 0.950 . S
C493 C489 1.393 . S
C493 C492 1.391 . S
C494 H484 0.950 . S
C494 C495 1.386 . S
C494 C496 1.391 . S
C495 C494 1.386 . S
C495 C499 1.393 . S
C496 H485 0.950 . S
C496 C494 1.391 . S
C496 C497 1.400 . S
C497 C491 1.491 . S
C497 C496 1.400 . S
C497 C498 1.398 . S
C498 H486 0.950 . S
C498 C497 1.398 . S
C498 C499 1.391 . S
C499 H487 0.950 . S
C499 C495 1.393 . S
C499 C498 1.391 . S
H500 C508 0.950 . S
H501 C513 0.950 . S
H502 C510 0.950 . S
H503 C512 0.950 . S
H504 C514 0.950 . S
H505 C516 0.950 . S
H506 C518 0.950 . S
H507 C519 0.950 . S
C508 H500 0.950 . S
C508 C509 1.386 . S
C508 C510 1.391 . S
C509 C508 1.386 . S
C509 C513 1.393 . S
C510 H502 0.950 . S
C510 C508 1.391 . S
C510 C511 1.400 . S
C511 C510 1.400 . S
C511 C512 1.398 . S
C511 C517 1.491 . S
C512 H503 0.950 . S
C512 C511 1.398 . S
C512 C513 1.391 . S
C513 H501 0.950 . S
C513 C509 1.393 . S
C513 C512 1.391 . S
C514 H504 0.950 . S
C514 C515 1.386 . S
C514 C516 1.391 . S
C515 C514 1.386 . S
C515 C519 1.393 . S
C516 H505 0.950 . S
C516 C514 1.391 . S
C516 C517 1.400 . S
C517 C511 1.491 . S
C517 C516 1.400 . S
C517 C518 1.398 . S
C518 H506 0.950 . S
C518 C517 1.398 . S
C518 C519 1.391 . S
C519 H507 0.950 . S
C519 C515 1.393 . S
C519 C518 1.391 . S
H520 C528 0.950 . S
H521 C533 0.950 . S
H522 C530 0.950 . S
H523 C532 0.950 . S
H524 C534 0.950 . S
H525 C536 0.950 . S
H526 C538 0.950 . S
H527 C539 0.950 . S
C528 H520 0.950 . S
C528 C529 1.386 . S
C528 C530 1.391 . S
C529 C528 1.386 . S
C529 C533 1.393 . S
C530 H522 0.950 . S
C530 C528 1.391 . S
C530 C531 1.400 . S
C531 C530 1.400 . S
C531 C532 1.398 . S
C531 C537 1.491 . S
C532 H523 0.950 . S
C532 C531 1.398 . S
C532 C533 1.391 . S
C533 H521 0.950 . S
C533 C529 1.393 . S
C533 C532 1.391 . S
C534 H524 0.950 . S
C534 C535 1.386 . S
C534 C536 1.391 . S
C535 C534 1.386 . S
C535 C539 1.393 . S
C536 H525 0.950 . S
C536 C534 1.391 . S
C536 C537 1.400 . S
C537 C531 1.491 . S
C537 C536 1.400 . S
C537 C538 1.398 . S
C538 H526 0.950 . S
C538 C537 1.398 . S
C538 C539 1.391 . S
C539 H527 0.950 . S
C539 C535 1.393 . S
C539 C538 1.391 . S
H540 C548 0.950 . S
H541 C553 0.950 . S
H542 C550 0.950 . S
H543 C552 0.950 . S
H544 C554 0.950 . S
H545 C556 0.950 . S
H546 C558 0.950 . S
H547 C559 0.950 . S
C548 H540 0.950 . S
C548 C549 1.386 . S
C548 C550 1.391 . S
C549 C548 1.386 . S
C549 C553 1.393 . S
C550 H542 0.950 . S
C550 C548 1.391 . S
C550 C551 1.400 . S
C551 C550 1.400 . S
C551 C552 1.398 . S
C551 C557 1.491 . S
C552 H543 0.950 . S
C552 C551 1.398 . S
C552 C553 1.391 . S
C553 H541 0.950 . S
C553 C549 1.393 . S
C553 C552 1.391 . S
C554 H544 0.950 . S
C554 C555 1.386 . S
C554 C556 1.391 1_556 S
C555 C554 1.386 . S
C555 C559 1.393 . S
C556 H545 0.950 . S
C556 C554 1.391 1_554 S
C556 C557 1.400 . S
C557 C551 1.491 . S
C557 C556 1.400 . S
C557 C558 1.398 1_554 S
C558 H546 0.950 . S
C558 C557 1.398 1_556 S
C558 C559 1.391 . S
C559 H547 0.950 . S
C559 C555 1.393 . S
C559 C558 1.391 . S
H560 C568 0.950 . S
H561 C573 0.950 . S
H562 C570 0.950 . S
H563 C572 0.950 . S
H564 C574 0.950 . S
H565 C576 0.950 . S
H566 C578 0.950 . S
H567 C579 0.950 . S
C568 H560 0.950 . S
C568 C569 1.386 . S
C568 C570 1.391 . S
C569 C568 1.386 . S
C569 C573 1.393 . S
C570 H562 0.950 . S
C570 C568 1.391 . S
C570 C571 1.400 . S
C571 C570 1.400 . S
C571 C572 1.398 . S
C571 C577 1.491 . S
C572 H563 0.950 . S
C572 C571 1.398 . S
C572 C573 1.391 . S
C573 H561 0.950 . S
C573 C569 1.393 . S
C573 C572 1.391 . S
C574 H564 0.950 . S
C574 C575 1.386 . S
C574 C576 1.391 . S
C575 C574 1.386 . S
C575 C579 1.393 . S
C576 H565 0.950 . S
C576 C574 1.391 . S
C576 C577 1.400 . S
C577 C571 1.491 . S
C577 C576 1.400 . S
C577 C578 1.398 . S
C578 H566 0.950 . S
C578 C577 1.398 . S
C578 C579 1.391 . S
C579 H567 0.950 . S
C579 C575 1.393 . S
C579 C578 1.391 . S
H580 C588 0.950 . S
H581 C593 0.950 . S
H582 C590 0.950 . S
H583 C592 0.950 . S
H584 C594 0.950 . S
H585 C596 0.950 . S
H586 C598 0.950 . S
H587 C599 0.950 . S
C588 H580 0.950 . S
C588 C589 1.386 . S
C588 C590 1.391 . S
C589 C588 1.386 . S
C589 C593 1.393 . S
C590 H582 0.950 . S
C590 C588 1.391 . S
C590 C591 1.400 1_554 S
C591 C590 1.400 1_556 S
C591 C592 1.398 . S
C591 C597 1.491 . S
C592 H583 0.950 . S
C592 C591 1.398 . S
C592 C593 1.391 1_556 S
C593 H581 0.950 . S
C593 C589 1.393 . S
C593 C592 1.391 1_554 S
C594 H584 0.950 . S
C594 C595 1.386 . S
C594 C596 1.391 . S
C595 C594 1.386 . S
C595 C599 1.393 . S
C596 H585 0.950 . S
C596 C594 1.391 . S
C596 C597 1.400 . S
C597 C591 1.491 . S
C597 C596 1.400 . S
C597 C598 1.398 . S
C598 H586 0.950 . S
C598 C597 1.398 . S
C598 C599 1.391 . S
C599 H587 0.950 . S
C599 C595 1.393 . S
C599 C598 1.391 . S
H600 C608 0.950 . S
H601 C613 0.950 . S
H602 C610 0.950 . S
H603 C612 0.950 . S
H604 C614 0.950 . S
H605 C616 0.950 . S
H606 C618 0.950 . S
H607 C619 0.950 . S
C608 H600 0.950 . S
C608 C609 1.386 . S
C608 C610 1.391 . S
C609 C608 1.386 . S
C609 C613 1.393 . S
C610 H602 0.950 . S
C610 C608 1.391 . S
C610 C611 1.400 . S
C611 C610 1.400 . S
C611 C612 1.398 . S
C611 C617 1.491 . S
C612 H603 0.950 . S
C612 C611 1.398 . S
C612 C613 1.391 . S
C613 H601 0.950 . S
C613 C609 1.393 . S
C613 C612 1.391 . S
C614 H604 0.950 . S
C614 C615 1.386 . S
C614 C616 1.391 . S
C615 C614 1.386 . S
C615 C619 1.393 . S
C616 H605 0.950 . S
C616 C614 1.391 . S
C616 C617 1.400 . S
C617 C611 1.491 . S
C617 C616 1.400 . S
C617 C618 1.398 . S
C618 H606 0.950 . S
C618 C617 1.398 . S
C618 C619 1.391 . S
C619 H607 0.950 . S
C619 C615 1.393 . S
C619 C618 1.391 . S
H620 C628 0.950 . S
H621 C633 0.950 . S
H622 C630 0.950 . S
H623 C632 0.950 . S
H624 C634 0.950 . S
H625 C636 0.950 . S
H626 C638 0.950 . S
H627 C639 0.950 . S
C628 H620 0.950 . S
C628 C629 1.386 . S
C628 C630 1.391 . S
C629 C628 1.386 . S
C629 C633 1.393 . S
C630 H622 0.950 . S
C630 C628 1.391 . S
C630 C631 1.400 . S
C631 C630 1.400 . S
C631 C632 1.398 . S
C631 C637 1.491 . S
C632 H623 0.950 . S
C632 C631 1.398 . S
C632 C633 1.391 . S
C633 H621 0.950 . S
C633 C629 1.393 . S
C633 C632 1.391 . S
C634 H624 0.950 . S
C634 C635 1.386 . S
C634 C636 1.391 . S
C635 C634 1.386 . S
C635 C639 1.393 . S
C636 H625 0.950 . S
C636 C634 1.391 . S
C636 C637 1.400 . S
C637 C631 1.491 . S
C637 C636 1.400 . S
C637 C638 1.398 . S
C638 H626 0.950 . S
C638 C637 1.398 . S
C638 C639 1.391 . S
C639 H627 0.950 . S
C639 C635 1.393 . S
C639 C638 1.391 . S
H640 C648 0.950 . S
H641 C653 0.950 . S
H642 C650 0.950 . S
H643 C652 0.950 . S
H644 C654 0.950 . S
H645 C656 0.950 . S
H646 C658 0.950 . S
H647 C659 0.950 . S
C648 H640 0.950 . S
C648 C649 1.386 . S
C648 C650 1.391 . S
C649 C648 1.386 . S
C649 C653 1.393 . S
C650 H642 0.950 . S
C650 C648 1.391 . S
C650 C651 1.400 . S
C651 C650 1.400 . S
C651 C652 1.398 . S
C651 C657 1.491 . S
C652 H643 0.950 . S
C652 C651 1.398 . S
C652 C653 1.391 . S
C653 H641 0.950 . S
C653 C649 1.393 . S
C653 C652 1.391 . S
C654 H644 0.950 . S
C654 C655 1.386 . S
C654 C656 1.391 . S
C655 C654 1.386 . S
C655 C659 1.393 . S
C656 H645 0.950 . S
C656 C654 1.391 . S
C656 C657 1.400 . S
C657 C651 1.491 . S
C657 C656 1.400 . S
C657 C658 1.398 . S
C658 H646 0.950 . S
C658 C657 1.398 . S
C658 C659 1.391 . S
C659 H647 0.950 . S
C659 C655 1.393 . S
C659 C658 1.391 . S
H660 C668 0.950 . S
H661 C673 0.950 . S
H662 C670 0.950 . S
H663 C672 0.950 . S
H664 C674 0.950 . S
H665 C676 0.950 . S
H666 C678 0.950 1_545 S
H667 C679 0.950 . S
C668 H660 0.950 . S
C668 C669 1.386 . S
C668 C670 1.391 . S
C669 C668 1.386 . S
C669 C673 1.393 . S
C670 H662 0.950 . S
C670 C668 1.391 . S
C670 C671 1.400 . S
C671 C670 1.400 . S
C671 C672 1.398 . S
C671 C677 1.491 1_545 S
C672 H663 0.950 . S
C672 C671 1.398 . S
C672 C673 1.391 . S
C673 H661 0.950 . S
C673 C669 1.393 . S
C673 C672 1.391 . S
C674 H664 0.950 . S
C674 C675 1.386 . S
C674 C676 1.391 . S
C675 C674 1.386 . S
C675 C679 1.393 . S
C676 H665 0.950 . S
C676 C674 1.391 . S
C676 C677 1.400 . S
C677 C671 1.491 1_565 S
C677 C676 1.400 . S
C677 C678 1.398 . S
C678 H666 0.950 1_565 S
C678 C677 1.398 . S
C678 C679 1.391 . S
C679 H667 0.950 . S
C679 C675 1.393 . S
C679 C678 1.391 . S
H680 C688 0.950 . S
H681 C693 0.950 . S
H682 C690 0.950 . S
H683 C692 0.950 . S
H684 C694 0.950 . S
H685 C696 0.950 . S
H686 C698 0.950 . S
H687 C699 0.950 . S
C688 H680 0.950 . S
C688 C689 1.386 . S
C688 C690 1.391 . S
C689 C688 1.386 . S
C689 C693 1.393 . S
C690 H682 0.950 . S
C690 C688 1.391 . S
C690 C691 1.400 . S
C691 C690 1.400 . S
C691 C692 1.398 . S
C691 C697 1.491 . S
C692 H683 0.950 . S
C692 C691 1.398 . S
C692 C693 1.391 . S
C693 H681 0.950 . S
C693 C689 1.393 . S
C693 C692 1.391 . S
C694 H684 0.950 . S
C694 C695 1.386 . S
C694 C696 1.391 . S
C695 C694 1.386 . S
C695 C699 1.393 . S
C696 H685 0.950 . S
C696 C694 1.391 . S
C696 C697 1.400 . S
C697 C691 1.491 . S
C697 C696 1.400 . S
C697 C698 1.398 . S
C698 H686 0.950 . S
C698 C697 1.398 . S
C698 C699 1.391 . S
C699 H687 0.950 . S
C699 C695 1.393 . S
C699 C698 1.391 . S
H700 C708 0.950 . S
H701 C713 0.950 . S
H702 C710 0.950 . S
H703 C712 0.950 . S
H704 C714 0.950 . S
H705 C716 0.950 . S
H706 C718 0.950 . S
H707 C719 0.950 . S
C708 H700 0.950 . S
C708 C709 1.386 . S
C708 C710 1.391 1_545 S
C709 C708 1.386 . S
C709 C713 1.393 . S
C710 H702 0.950 . S
C710 C708 1.391 1_565 S
C710 C711 1.400 . S
C711 C710 1.400 . S
C711 C712 1.398 1_565 S
C711 C717 1.491 . S
C712 H703 0.950 . S
C712 C711 1.398 1_545 S
C712 C713 1.391 . S
C713 H701 0.950 . S
C713 C709 1.393 . S
C713 C712 1.391 . S
C714 H704 0.950 . S
C714 C715 1.386 . S
C714 C716 1.391 . S
C715 C714 1.386 . S
C715 C719 1.393 . S
C716 H705 0.950 . S
C716 C714 1.391 . S
C716 C717 1.400 . S
C717 C711 1.491 . S
C717 C716 1.400 . S
C717 C718 1.398 . S
C718 H706 0.950 . S
C718 C717 1.398 . S
C718 C719 1.391 . S
C719 H707 0.950 . S
C719 C715 1.393 . S
C719 C718 1.391 . S
H720 C728 0.950 . S
H721 C733 0.950 . S
H722 C730 0.950 . S
H723 C732 0.950 . S
H724 C734 0.950 . S
H725 C736 0.950 . S
H726 C738 0.950 . S
H727 C739 0.950 . S
C728 H720 0.950 . S
C728 C729 1.386 . S
C728 C730 1.391 . S
C729 C728 1.386 . S
C729 C733 1.393 . S
C730 H722 0.950 . S
C730 C728 1.391 . S
C730 C731 1.400 . S
C731 C730 1.400 . S
C731 C732 1.398 . S
C731 C737 1.491 . S
C732 H723 0.950 . S
C732 C731 1.398 . S
C732 C733 1.391 . S
C733 H721 0.950 . S
C733 C729 1.393 . S
C733 C732 1.391 . S
C734 H724 0.950 . S
C734 C735 1.386 . S
C734 C736 1.391 . S
C735 C734 1.386 . S
C735 C739 1.393 . S
C736 H725 0.950 . S
C736 C734 1.391 . S
C736 C737 1.400 . S
C737 C731 1.491 . S
C737 C736 1.400 . S
C737 C738 1.398 . S
C738 H726 0.950 . S
C738 C737 1.398 . S
C738 C739 1.391 . S
C739 H727 0.950 . S
C739 C735 1.393 . S
C739 C738 1.391 . S
H740 C748 0.950 . S
H741 C753 0.950 . S
H742 C750 0.950 . S
H743 C752 0.950 . S
H744 C754 0.950 . S
H745 C756 0.950 . S
H746 C758 0.950 . S
H747 C759 0.950 . S
C748 H740 0.950 . S
C748 C749 1.386 . S
C748 C750 1.391 . S
C749 C748 1.386 . S
C749 C753 1.393 . S
C750 H742 0.950 . S
C750 C748 1.391 . S
C750 C751 1.400 . S
C751 C750 1.400 . S
C751 C752 1.398 . S
C751 C757 1.491 . S
C752 H743 0.950 . S
C752 C751 1.398 . S
C752 C753 1.391 . S
C753 H741 0.950 . S
C753 C749 1.393 . S
C753 C752 1.391 . S
C754 H744 0.950 . S
C754 C755 1.386 . S
C754 C756 1.391 . S
C755 C754 1.386 . S
C755 C759 1.393 . S
C756 H745 0.950 . S
C756 C754 1.391 . S
C756 C757 1.400 . S
C757 C751 1.491 . S
C757 C756 1.400 . S
C757 C758 1.398 . S
C758 H746 0.950 . S
C758 C757 1.398 . S
C758 C759 1.391 . S
C759 H747 0.950 . S
C759 C755 1.393 . S
C759 C758 1.391 . S
H760 C768 0.950 . S
H761 C773 0.950 . S
H762 C770 0.950 . S
H763 C772 0.950 . S
H764 C774 0.950 . S
H765 C776 0.950 . S
H766 C778 0.950 . S
H767 C779 0.950 . S
C768 H760 0.950 . S
C768 C769 1.386 . S
C768 C770 1.391 . S
C769 C768 1.386 . S
C769 C773 1.393 . S
C770 H762 0.950 . S
C770 C768 1.391 . S
C770 C771 1.400 . S
C771 C770 1.400 . S
C771 C772 1.398 . S
C771 C777 1.491 . S
C772 H763 0.950 . S
C772 C771 1.398 . S
C772 C773 1.391 . S
C773 H761 0.950 . S
C773 C769 1.393 . S
C773 C772 1.391 . S
C774 H764 0.950 . S
C774 C775 1.386 . S
C774 C776 1.391 . S
C775 C774 1.386 . S
C775 C779 1.393 . S
C776 H765 0.950 . S
C776 C774 1.391 . S
C776 C777 1.400 . S
C777 C771 1.491 . S
C777 C776 1.400 . S
C777 C778 1.398 . S
C778 H766 0.950 . S
C778 C777 1.398 . S
C778 C779 1.391 . S
C779 H767 0.950 . S
C779 C775 1.393 . S
C779 C778 1.391 . S
H780 C788 0.950 . S
H781 C793 0.950 . S
H782 C790 0.950 . S
H783 C792 0.950 . S
H784 C794 0.950 . S
H785 C796 0.950 . S
H786 C798 0.950 . S
H787 C799 0.950 . S
C788 H780 0.950 . S
C788 C789 1.386 . S
C788 C790 1.391 . S
C789 C788 1.386 . S
C789 C793 1.393 . S
C790 H782 0.950 . S
C790 C788 1.391 . S
C790 C791 1.400 . S
C791 C790 1.400 . S
C791 C792 1.398 . S
C791 C797 1.491 . S
C792 H783 0.950 . S
C792 C791 1.398 . S
C792 C793 1.391 . S
C793 H781 0.950 . S
C793 C789 1.393 . S
C793 C792 1.391 . S
C794 H784 0.950 . S
C794 C795 1.386 . S
C794 C796 1.391 . S
C795 C794 1.386 . S
C795 C799 1.393 . S
C796 H785 0.950 . S
C796 C794 1.391 . S
C796 C797 1.400 . S
C797 C791 1.491 . S
C797 C796 1.400 . S
C797 C798 1.398 . S
C798 H786 0.950 . S
C798 C797 1.398 . S
C798 C799 1.391 . S
C799 H787 0.950 . S
C799 C795 1.393 . S
C799 C798 1.391 . S
H800 C808 0.950 . S
H801 C813 0.950 . S
H802 C810 0.950 . S
H803 C812 0.950 . S
H804 C814 0.950 . S
H805 C816 0.950 . S
H806 C818 0.950 . S
H807 C819 0.950 . S
C808 H800 0.950 . S
C808 C809 1.386 . S
C808 C810 1.391 . S
C809 C808 1.386 . S
C809 C813 1.393 . S
C810 H802 0.950 . S
C810 C808 1.391 . S
C810 C811 1.400 . S
C811 C810 1.400 . S
C811 C812 1.398 . S
C811 C817 1.491 . S
C812 H803 0.950 . S
C812 C811 1.398 . S
C812 C813 1.391 . S
C813 H801 0.950 . S
C813 C809 1.393 . S
C813 C812 1.391 . S
C814 H804 0.950 . S
C814 C815 1.386 . S
C814 C816 1.391 . S
C815 C814 1.386 . S
C815 C819 1.393 . S
C816 H805 0.950 . S
C816 C814 1.391 . S
C816 C817 1.400 . S
C817 C811 1.491 . S
C817 C816 1.400 . S
C817 C818 1.398 . S
C818 H806 0.950 . S
C818 C817 1.398 . S
C818 C819 1.391 . S
C819 H807 0.950 . S
C819 C815 1.393 . S
C819 C818 1.391 . S
H820 C828 0.950 . S
H821 C833 0.950 . S
H822 C830 0.950 . S
H823 C832 0.950 . S
H824 C834 0.950 . S
H825 C836 0.950 . S
H826 C838 0.950 . S
H827 C839 0.950 . S
C828 H820 0.950 . S
C828 C829 1.386 . S
C828 C830 1.391 . S
C829 C828 1.386 . S
C829 C833 1.393 . S
C830 H822 0.950 . S
C830 C828 1.391 . S
C830 C831 1.400 . S
C831 C830 1.400 . S
C831 C832 1.398 . S
C831 C837 1.491 . S
C832 H823 0.950 . S
C832 C831 1.398 . S
C832 C833 1.391 . S
C833 H821 0.950 . S
C833 C829 1.393 . S
C833 C832 1.391 . S
C834 H824 0.950 . S
C834 C835 1.386 . S
C834 C836 1.391 . S
C835 C834 1.386 . S
C835 C839 1.393 . S
C836 H825 0.950 . S
C836 C834 1.391 . S
C836 C837 1.400 . S
C837 C831 1.491 . S
C837 C836 1.400 . S
C837 C838 1.398 . S
C838 H826 0.950 . S
C838 C837 1.398 . S
C838 C839 1.391 . S
C839 H827 0.950 . S
C839 C835 1.393 . S
C839 C838 1.391 . S
H840 C848 0.950 . S
H841 C853 0.950 . S
H842 C850 0.950 . S
H843 C852 0.950 1_655 S
H844 C854 0.950 . S
H845 C856 0.950 . S
H846 C858 0.950 1_455 S
H847 C859 0.950 . S
C848 H840 0.950 . S
C848 C849 1.386 . S
C848 C850 1.391 . S
C849 C848 1.386 . S
C849 C853 1.393 . S
C850 H842 0.950 . S
C850 C848 1.391 . S
C850 C851 1.400 . S
C851 C850 1.400 . S
C851 C852 1.398 . S
C851 C857 1.491 1_455 S
C852 H843 0.950 1_455 S
C852 C851 1.398 . S
C852 C853 1.391 . S
C853 H841 0.950 . S
C853 C849 1.393 . S
C853 C852 1.391 . S
C854 H844 0.950 . S
C854 C855 1.386 . S
C854 C856 1.391 . S
C855 C854 1.386 . S
C855 C859 1.393 . S
C856 H845 0.950 . S
C856 C854 1.391 . S
C856 C857 1.400 . S
C857 C851 1.491 1_655 S
C857 C856 1.400 . S
C857 C858 1.398 . S
C858 H846 0.950 1_655 S
C858 C857 1.398 . S
C858 C859 1.391 . S
C859 H847 0.950 . S
C859 C855 1.393 . S
C859 C858 1.391 . S
H860 C868 0.950 . S
H861 C873 0.950 . S
H862 C870 0.950 . S
H863 C872 0.950 . S
H864 C874 0.950 . S
H865 C876 0.950 . S
H866 C878 0.950 . S
H867 C879 0.950 . S
C868 H860 0.950 . S
C868 C869 1.386 . S
C868 C870 1.391 . S
C869 C868 1.386 . S
C869 C873 1.393 . S
C870 H862 0.950 . S
C870 C868 1.391 . S
C870 C871 1.400 . S
C871 C870 1.400 . S
C871 C872 1.398 . S
C871 C877 1.491 . S
C872 H863 0.950 . S
C872 C871 1.398 . S
C872 C873 1.391 . S
C873 H861 0.950 . S
C873 C869 1.393 . S
C873 C872 1.391 . S
C874 H864 0.950 . S
C874 C875 1.386 . S
C874 C876 1.391 . S
C875 C874 1.386 . S
C875 C879 1.393 . S
C876 H865 0.950 . S
C876 C874 1.391 . S
C876 C877 1.400 . S
C877 C871 1.491 . S
C877 C876 1.400 . S
C877 C878 1.398 . S
C878 H866 0.950 . S
C878 C877 1.398 . S
C878 C879 1.391 . S
C879 H867 0.950 . S
C879 C875 1.393 . S
C879 C878 1.391 . S
H880 C888 0.950 . S
H881 C893 0.950 . S
H882 C890 0.950 . S
H883 C892 0.950 . S
H884 C894 0.950 . S
H885 C896 0.950 . S
H886 C898 0.950 . S
H887 C899 0.950 . S
C888 H880 0.950 . S
C888 C889 1.386 . S
C888 C890 1.391 . S
C889 C888 1.386 . S
C889 C893 1.393 . S
C890 H882 0.950 . S
C890 C888 1.391 . S
C890 C891 1.400 . S
C891 C890 1.400 . S
C891 C892 1.398 . S
C891 C897 1.491 . S
C892 H883 0.950 . S
C892 C891 1.398 . S
C892 C893 1.391 . S
C893 H881 0.950 . S
C893 C889 1.393 . S
C893 C892 1.391 . S
C894 H884 0.950 . S
C894 C895 1.386 . S
C894 C896 1.391 . S
C895 C894 1.386 . S
C895 C899 1.393 . S
C896 H885 0.950 . S
C896 C894 1.391 . S
C896 C897 1.400 . S
C897 C891 1.491 . S
C897 C896 1.400 . S
C897 C898 1.398 . S
C898 H886 0.950 . S
C898 C897 1.398 . S
C898 C899 1.391 . S
C899 H887 0.950 . S
C899 C895 1.393 . S
C899 C898 1.391 . S
H900 C908 0.950 . S
H901 C913 0.950 . S
H902 C910 0.950 . S
H903 C912 0.950 . S
H904 C914 0.950 . S
H905 C916 0.950 . S
H906 C918 0.950 . S
H907 C919 0.950 . S
C908 H900 0.950 . S
C908 C909 1.386 . S
C908 C910 1.391 . S
C909 C908 1.386 . S
C909 C913 1.393 . S
C910 H902 0.950 . S
C910 C908 1.391 . S
C910 C911 1.400 . S
C911 C910 1.400 . S
C911 C912 1.398 . S
C911 C917 1.491 . S
C912 H903 0.950 . S
C912 C911 1.398 . S
C912 C913 1.391 . S
C913 H901 0.950 . S
C913 C909 1.393 . S
C913 C912 1.391 . S
C914 H904 0.950 . S
C914 C915 1.386 . S
C914 C916 1.391 . S
C915 C914 1.386 . S
C915 C919 1.393 . S
C916 H905 0.950 . S
C916 C914 1.391 . S
C916 C917 1.400 . S
C917 C911 1.491 . S
C917 C916 1.400 . S
C917 C918 1.398 . S
C918 H906 0.950 . S
C918 C917 1.398 . S
C918 C919 1.391 . S
C919 H907 0.950 . S
C919 C915 1.393 . S
C919 C918 1.391 . S
H920 C928 0.950 . S
H921 C933 0.950 . S
H922 C930 0.950 . S
H923 C932 0.950 . S
H924 C934 0.950 . S
H925 C936 0.950 . S
H926 C938 0.950 . S
H927 C939 0.950 . S
C928 H920 0.950 . S
C928 C929 1.386 . S
C928 C930 1.391 . S
C929 C928 1.386 . S
C929 C933 1.393 . S
C930 H922 0.950 . S
C930 C928 1.391 . S
C930 C931 1.400 . S
C931 C930 1.400 . S
C931 C932 1.398 . S
C931 C937 1.491 . S
C932 H923 0.950 . S
C932 C931 1.398 . S
C932 C933 1.391 . S
C933 H921 0.950 . S
C933 C929 1.393 . S
C933 C932 1.391 . S
C934 H924 0.950 . S
C934 C935 1.386 . S
C934 C936 1.391 . S
C935 C934 1.386 . S
C935 C939 1.393 . S
C936 H925 0.950 . S
C936 C934 1.391 . S
C936 C937 1.400 . S
C937 C931 1.491 . S
C937 C936 1.400 . S
C937 C938 1.398 . S
C938 H926 0.950 . S
C938 C937 1.398 . S
C938 C939 1.391 . S
C939 H927 0.950 . S
C939 C935 1.393 . S
C939 C938 1.391 . S
H940 C948 0.950 . S
H941 C953 0.950 . S
H942 C950 0.950 . S
H943 C952 0.950 . S
H944 C954 0.950 . S
H945 C956 0.950 . S
H946 C958 0.950 . S
H947 C959 0.950 . S
C948 H940 0.950 . S
C948 C949 1.386 . S
C948 C950 1.391 . S
C949 C948 1.386 . S
C949 C953 1.393 . S
C950 H942 0.950 . S
C950 C948 1.391 . S
C950 C951 1.400 . S
C951 C950 1.400 . S
C951 C952 1.398 . S
C951 C957 1.491 . S
C952 H943 0.950 . S
C952 C951 1.398 . S
C952 C953 1.391 . S
C953 H941 0.950 . S
C953 C949 1.393 . S
C953 C952 1.391 . S
C954 H944 0.950 . S
C954 C955 1.386 . S
C954 C956 1.391 1_455 S
C955 C954 1.386 . S
C955 C959 1.393 1_455 S
C956 H945 0.950 . S
C956 C954 1.391 1_655 S
C956 C957 1.400 . S
C957 C951 1.491 . S
C957 C956 1.400 . S
C957 C958 1.398 . S
C958 H946 0.950 . S
C958 C957 1.398 . S
C958 C959 1.391 . S
C959 H947 0.950 . S
C959 C955 1.393 1_655 S
C959 C958 1.391 . S
C249 C2 0.954 . S
C255 C222 0.964 . S
C269 C199 1.315 . S
C275 C22 1.244 . S
C289 C42 1.452 . S
C295 C179 1.582 . S
C309 C79 1.891 . S
C315 C219 1.931 . S
C329 C99 1.548 . S
C335 C202 1.438 . S
C349 C119 1.825 . S
C355 C239 1.814 . S
C369 C182 1.418 . S
C375 C139 1.546 1_556 S
C389 C159 1.289 . S
C395 C162 1.216 . S
C409 C62 1.030 . S
C415 C82 1.018 . S
C429 C19 1.521 . S
C435 C102 1.427 1_455 S
C449 C39 1.563 1_655 S
C455 C122 1.432 . S
C469 C142 1.382 . S
C475 C59 1.543 1_554 S
C489 C9 1.691 . S
C495 C178 1.749 . S
C509 C29 1.717 . S
C515 C218 1.757 . S
C529 C224 1.304 . S
C535 C49 1.296 . S
C549 C72 1.415 . S
C555 C198 1.476 . S
C569 C92 0.986 . S
C575 C184 1.028 . S
C589 C164 1.322 . S
C595 C112 1.296 . S
C609 C204 1.663 . S
C615 C132 1.617 . S
C629 C238 1.530 . S
C635 C152 1.434 . S
C649 C18 1.566 . S
C655 C69 1.536 . S
C669 C12 1.576 . S
C675 C38 1.665 . S
C689 C32 1.666 . S
C695 C58 1.736 . S
C709 C64 1.626 . S
C715 C52 1.565 . S
C729 C109 1.063 . S
C735 C84 1.082 . S
C749 C104 1.360 . S
C755 C129 1.349 . S
C769 C124 0.867 . S
C775 C149 0.895 . S
C789 C89 1.092 . S
C795 C144 1.094 . S
C809 C169 1.538 . S
C815 C78 1.583 . S
C829 C118 1.636 . S
C835 C192 1.538 . S
C849 C172 1.461 . S
C855 C138 1.543 . S
C869 C212 1.557 . S
C875 C158 1.685 . S
C889 C98 1.148 . S
C895 C229 1.106 . S
C909 C232 1.172 . S
C915 C24 1.142 . S
C929 C44 1.028 . S
C935 C189 1.077 . S
C949 C209 1.400 . S
C955 C4 1.403 . S
