# Generated by pormake.
# Topology pcb, (4)-cn, num edge types: 1
# Building blocks:
#     Node 0, Type 0, BuildingBlock: AZAVOO_clean_sbu_0, # of connection points: 4
#     Node 1, Type 0, BuildingBlock: AZAVOO_clean_sbu_0, # of connection points: 4
#     Node 2, Type 0, BuildingBlock: AZAVOO_clean_sbu_0, # of connection points: 4
#     Node 3, Type 0, BuildingBlock: AZAVOO_clean_sbu_0, # of connection points: 4
#     Node 4, Type 0, BuildingBlock: AZAVOO_clean_sbu_0, # of connection points: 4
#     Node 5, Type 0, BuildingBlock: AZAVOO_clean_sbu_0, # of connection points: 4
#     Node 6, Type 0, BuildingBlock: AZAVOO_clean_sbu_0, # of connection points: 4
#     Node 7, Type 0, BuildingBlock: AZAVOO_clean_sbu_0, # of connection points: 4
#     Node 8, Type 0, BuildingBlock: AZAVOO_clean_sbu_0, # of connection points: 4
#     Node 9, Type 0, BuildingBlock: AZAVOO_clean_sbu_0, # of connection points: 4
#     Node 10, Type 0, BuildingBlock: AZAVOO_clean_sbu_0, # of connection points: 4
#     Node 11, Type 0, BuildingBlock: AZAVOO_clean_sbu_0, # of connection points: 4
#     Node 12, Type 0, BuildingBlock: AZAVOO_clean_sbu_0, # of connection points: 4
#     Node 13, Type 0, BuildingBlock: AZAVOO_clean_sbu_0, # of connection points: 4
#     Node 14, Type 0, BuildingBlock: AZAVOO_clean_sbu_0, # of connection points: 4
#     Node 15, Type 0, BuildingBlock: AZAVOO_clean_sbu_0, # of connection points: 4
#     Edge 16, Type (0, 0), BuildingBlock: EZIPEK_clean_linker_0, # of connection points: 2
#     Edge 17, Type (0, 0), BuildingBlock: EZIPEK_clean_linker_0, # of connection points: 2
#     Edge 18, Type (0, 0), BuildingBlock: EZIPEK_clean_linker_0, # of connection points: 2
#     Edge 19, Type (0, 0), BuildingBlock: EZIPEK_clean_linker_0, # of connection points: 2
#     Edge 20, Type (0, 0), BuildingBlock: EZIPEK_clean_linker_0, # of connection points: 2
#     Edge 21, Type (0, 0), BuildingBlock: EZIPEK_clean_linker_0, # of connection points: 2
#     Edge 22, Type (0, 0), BuildingBlock: EZIPEK_clean_linker_0, # of connection points: 2
#     Edge 23, Type (0, 0), BuildingBlock: EZIPEK_clean_linker_0, # of connection points: 2
#     Edge 24, Type (0, 0), BuildingBlock: EZIPEK_clean_linker_0, # of connection points: 2
#     Edge 25, Type (0, 0), BuildingBlock: EZIPEK_clean_linker_0, # of connection points: 2
#     Edge 26, Type (0, 0), BuildingBlock: EZIPEK_clean_linker_0, # of connection points: 2
#     Edge 27, Type (0, 0), BuildingBlock: EZIPEK_clean_linker_0, # of connection points: 2
#     Edge 28, Type (0, 0), BuildingBlock: EZIPEK_clean_linker_0, # of connection points: 2
#     Edge 29, Type (0, 0), BuildingBlock: EZIPEK_clean_linker_0, # of connection points: 2
#     Edge 30, Type (0, 0), BuildingBlock: EZIPEK_clean_linker_0, # of connection points: 2
#     Edge 31, Type (0, 0), BuildingBlock: EZIPEK_clean_linker_0, # of connection points: 2
#     Edge 32, Type (0, 0), BuildingBlock: EZIPEK_clean_linker_0, # of connection points: 2
#     Edge 33, Type (0, 0), BuildingBlock: EZIPEK_clean_linker_0, # of connection points: 2
#     Edge 34, Type (0, 0), BuildingBlock: EZIPEK_clean_linker_0, # of connection points: 2
#     Edge 35, Type (0, 0), BuildingBlock: EZIPEK_clean_linker_0, # of connection points: 2
#     Edge 36, Type (0, 0), BuildingBlock: EZIPEK_clean_linker_0, # of connection points: 2
#     Edge 37, Type (0, 0), BuildingBlock: EZIPEK_clean_linker_0, # of connection points: 2
#     Edge 38, Type (0, 0), BuildingBlock: EZIPEK_clean_linker_0, # of connection points: 2
#     Edge 39, Type (0, 0), BuildingBlock: EZIPEK_clean_linker_0, # of connection points: 2
#     Edge 40, Type (0, 0), BuildingBlock: EZIPEK_clean_linker_0, # of connection points: 2
#     Edge 41, Type (0, 0), BuildingBlock: EZIPEK_clean_linker_0, # of connection points: 2
#     Edge 42, Type (0, 0), BuildingBlock: EZIPEK_clean_linker_0, # of connection points: 2
#     Edge 43, Type (0, 0), BuildingBlock: EZIPEK_clean_linker_0, # of connection points: 2
#     Edge 44, Type (0, 0), BuildingBlock: EZIPEK_clean_linker_0, # of connection points: 2
#     Edge 45, Type (0, 0), BuildingBlock: EZIPEK_clean_linker_0, # of connection points: 2
#     Edge 46, Type (0, 0), BuildingBlock: EZIPEK_clean_linker_0, # of connection points: 2
#     Edge 47, Type (0, 0), BuildingBlock: EZIPEK_clean_linker_0, # of connection points: 2
# Relax obj value: 0.186
# Max RMSD: 0.084
# Mean RMSD: 0.079
data_MOF--net-pcb--node1-AZAVOO_clean_sbu_0--edge1-EZIPEK_clean_linker_0
_symmetry_space_group_name_H-M    P1
_symmetry_Int_Tables_number       1
_symmetry_cell_setting            triclinic
loop_
_symmetry_equiv_pos_as_xyz
'x, y, z'
_cell_length_a     34.147847
_cell_length_b     33.947858
_cell_length_c     34.799864
_cell_angle_alpha  90.483613
_cell_angle_beta   90.210847
_cell_angle_gamma 89.766434
loop_
_atom_site_label
_atom_site_type_symbol
_atom_site_fract_x
_atom_site_fract_y
_atom_site_fract_z
_atom_type_partial_charge
Mg0 Mg 0.214 0.09814 0.1458 0.0
O1 O 0.15228 0.12132 0.15938 0.0
O2 O 0.11042 0.08229 0.12748 0.0
Mg3 Mg 0.14549 0.03734 0.09146 0.0
C4 C 0.11756 0.11135 0.14988 0.0
C5 C 0.26852 0.15547 0.18257 0.0
O6 O 0.27951 0.15326 0.14651 0.0
O7 O 0.20646 0.04386 0.18388 0.0
O8 O 0.16878 0.00686 0.14532 0.0
O9 O 0.21691 0.139 0.09663 0.0
O10 O 0.19636 0.07751 0.09155 0.0
C11 C 0.18912 0.01154 0.17582 0.0
C12 C 0.20364 0.1107 0.07528 0.0
O13 O 0.24 0.13473 0.19399 0.0
Mg14 Mg 0.8955 0.18185 0.19662 0.0
O15 O 0.88322 0.18333 0.13029 0.0
O16 O 0.91332 0.12983 0.10595 0.0
Mg17 Mg 0.94597 0.09617 0.1529 0.0
C18 C 0.89205 0.16055 0.10197 0.0
C19 C 0.85354 0.24282 0.24564 0.0
O20 O 0.87882 0.22536 0.26846 0.0
O21 O 0.85102 0.13162 0.20372 0.0
O22 O 0.88754 0.08178 0.18038 0.0
O23 O 0.95401 0.21345 0.19108 0.0
O24 O 0.94624 0.14931 0.1876 0.0
C25 C 0.8566 0.095 0.1965 0.0
C26 C 0.96928 0.17881 0.18631 0.0
O27 O 0.85047 0.23055 0.21104 0.0
Mg28 Mg 0.82945 0.85246 0.16928 0.0
O29 O 0.89652 0.86147 0.16935 0.0
O30 O 0.90936 0.90155 0.12011 0.0
Mg31 Mg 0.85218 0.91655 0.08884 0.0
C32 C 0.92052 0.88052 0.1484 0.0
C33 C 0.80145 0.79995 0.22727 0.0
O34 O 0.7799 0.79648 0.19608 0.0
O35 O 0.8192 0.91435 0.19406 0.0
O36 O 0.83146 0.95043 0.1421 0.0
O37 O 0.83572 0.80035 0.12985 0.0
O38 O 0.82742 0.86195 0.11107 0.0
C39 C 0.82113 0.94754 0.17719 0.0
C40 C 0.83279 0.82544 0.10224 0.0
O41 O 0.82986 0.82395 0.22749 0.0
Mg42 Mg 0.16433 0.79804 0.14652 0.0
O43 O 0.1043 0.82885 0.14778 0.0
O44 O 0.10837 0.88929 0.12331 0.0
Mg45 Mg 0.17307 0.89765 0.10768 0.0
C46 C 0.0886 0.86162 0.13839 0.0
C47 C 0.13999 0.7088 0.17445 0.0
O48 O 0.11373 0.68062 0.17481 0.0
O49 O 0.16004 0.78958 0.08061 0.0
O50 O 0.16564 0.85135 0.05955 0.0
O51 O 0.17643 0.82432 0.20491 0.0
O52 O 0.19115 0.85257 0.14978 0.0
C53 C 0.16104 0.81451 0.05324 0.0
C54 C 0.1885 0.85499 0.18658 0.0
O55 O 0.13197 0.7402 0.15628 0.0
Mg56 Mg 0.1134 0.80138 0.80096 0.0
O57 O 0.12375 0.86931 0.80097 0.0
O58 O 0.07547 0.89496 0.83703 0.0
Mg59 Mg 0.0355 0.84646 0.85925 0.0
C60 C 0.10591 0.89878 0.81624 0.0
C61 C 0.17733 0.80121 0.73843 0.0
O62 O 0.15229 0.82786 0.7262 0.0
O63 O 0.13763 0.79762 0.86328 0.0
O64 O 0.08654 0.82281 0.89566 0.0
O65 O 0.07149 0.80502 0.75044 0.0
O66 O 0.05436 0.80962 0.81138 0.0
C67 C 0.12064 0.80716 0.89485 0.0
C68 C 0.04442 0.8103 0.77583 0.0
O69 O 0.17183 0.7871 0.77169 0.0
Mg70 Mg 0.15819 0.15385 0.84704 0.0
O71 O 0.14903 0.08858 0.82944 0.0
O72 O 0.10515 0.06538 0.87129 0.0
Mg73 Mg 0.09025 0.11266 0.91656 0.0
C74 C 0.12751 0.0609 0.84225 0.0
C75 C 0.20971 0.19907 0.79651 0.0
O76 O 0.21205 0.21524 0.83087 0.0
O77 O 0.09798 0.17152 0.82333 0.0
O78 O 0.05992 0.14902 0.8705 0.0
O79 O 0.20774 0.13668 0.88579 0.0
O80 O 0.14598 0.14126 0.90379 0.0
C81 C 0.06459 0.16757 0.83916 0.0
C82 C 0.18183 0.13372 0.91264 0.0
O83 O 0.18804 0.16913 0.79142 0.0
Mg84 Mg 0.82004 0.15135 0.8535 0.0
O85 O 0.83324 0.16302 0.91875 0.0
O86 O 0.87806 0.11742 0.93472 0.0
Mg87 Mg 0.89189 0.07683 0.8837 0.0
C88 C 0.85615 0.14676 0.94331 0.0
C89 C 0.7674 0.20821 0.81369 0.0
O90 O 0.76582 0.17508 0.79396 0.0
O91 O 0.87891 0.17853 0.83679 0.0
O92 O 0.91918 0.12884 0.85267 0.0
O93 O 0.77325 0.10631 0.86678 0.0
O94 O 0.83605 0.09326 0.8588 0.0
C95 C 0.91289 0.16268 0.83809 0.0
C96 C 0.80159 0.08088 0.86599 0.0
O97 O 0.78782 0.2095 0.84435 0.0
Mg98 Mg 0.8184 0.82191 0.86703 0.0
O99 O 0.81066 0.8886 0.87103 0.0
O100 O 0.86506 0.91394 0.89701 0.0
Mg101 Mg 0.90437 0.86195 0.91539 0.0
C102 C 0.83107 0.91788 0.88215 0.0
C103 C 0.73557 0.83566 0.83461 0.0
O104 O 0.73236 0.85566 0.86691 0.0
O105 O 0.86308 0.82789 0.81855 0.0
O106 O 0.91542 0.84728 0.85243 0.0
O107 O 0.78938 0.81496 0.92326 0.0
O108 O 0.85343 0.82158 0.91631 0.0
C109 C 0.89935 0.8365 0.82095 0.0
C110 C 0.82374 0.81756 0.93883 0.0
O111 O 0.76781 0.81929 0.82569 0.0
Mg112 Mg 0.60034 0.71228 0.67276 0.0
O113 O 0.53377 0.71799 0.66854 0.0
O114 O 0.51438 0.66675 0.63236 0.0
Mg115 Mg 0.56788 0.63273 0.60972 0.0
C116 C 0.50707 0.6976 0.65231 0.0
C117 C 0.63617 0.77029 0.72296 0.0
O118 O 0.65984 0.76365 0.69393 0.0
O119 O 0.5971 0.6591 0.71245 0.0
O120 O 0.58448 0.61129 0.66964 0.0
O121 O 0.60737 0.75065 0.62154 0.0
O122 O 0.60363 0.68566 0.6193 0.0
C123 C 0.59339 0.62277 0.70355 0.0
C124 C 0.60752 0.71842 0.60139 0.0
O125 O 0.6028 0.75406 0.72304 0.0
Mg126 Mg 0.28251 0.66753 0.62086 0.0
O127 O 0.30606 0.65365 0.55956 0.0
O128 O 0.3644 0.624 0.56564 0.0
Mg129 Mg 0.378 0.61813 0.62992 0.0
C130 C 0.33653 0.6375 0.54494 0.0
C131 C 0.20026 0.70937 0.60851 0.0
O132 O 0.16737 0.71665 0.59018 0.0
O133 O 0.26629 0.60225 0.62659 0.0
O134 O 0.32628 0.57598 0.63343 0.0
O135 O 0.3164 0.72451 0.62436 0.0
O136 O 0.33823 0.66652 0.64338 0.0
C137 C 0.28907 0.5727 0.63154 0.0
C138 C 0.34466 0.70315 0.63796 0.0
O139 O 0.22339 0.68326 0.59511 0.0
Mg140 Mg 0.33187 0.32315 0.61662 0.0
O141 O 0.39181 0.34693 0.63784 0.0
O142 O 0.41217 0.38787 0.59172 0.0
Mg143 Mg 0.36875 0.38759 0.54155 0.0
C144 C 0.41684 0.37095 0.62406 0.0
C145 C 0.28963 0.27282 0.67084 0.0
O146 O 0.27761 0.26281 0.63623 0.0
O147 O 0.30299 0.38269 0.62984 0.0
O148 O 0.3254 0.41892 0.58129 0.0
O149 O 0.36134 0.27201 0.58713 0.0
O150 O 0.34913 0.32976 0.56066 0.0
C151 C 0.30477 0.41506 0.61152 0.0
C152 C 0.36394 0.29496 0.55776 0.0
O153 O 0.31548 0.29938 0.67468 0.0
Mg154 Mg 0.66511 0.41035 0.6953 0.0
O155 O 0.59879 0.39989 0.68357 0.0
O156 O 0.57896 0.45006 0.64667 0.0
Mg157 Mg 0.62973 0.49248 0.63713 0.0
C158 C 0.57223 0.41795 0.66433 0.0
C159 C 0.69908 0.34784 0.74651 0.0
O160 O 0.71318 0.38124 0.75977 0.0
O161 O 0.6801 0.39187 0.63294 0.0
O162 O 0.65971 0.44462 0.60016 0.0
O163 O 0.65052 0.44584 0.74829 0.0
O164 O 0.65664 0.47028 0.68994 0.0
C165 C 0.67559 0.41049 0.60137 0.0
C166 C 0.64795 0.47568 0.72554 0.0
O167 O 0.6754 0.34834 0.71818 0.0
Mg168 Mg 0.71817 0.36367 0.35301 0.0
O169 O 0.68918 0.42556 0.35289 0.0
O170 O 0.62609 0.41923 0.36904 0.0
Mg171 Mg 0.61523 0.35402 0.38129 0.0
C172 C 0.65528 0.44027 0.35935 0.0
C173 C 0.80731 0.38128 0.32724 0.0
O174 O 0.83877 0.40342 0.3274 0.0
O175 O 0.71988 0.36765 0.4195 0.0
O176 O 0.65617 0.36149 0.43337 0.0
O177 O 0.69783 0.352 0.29216 0.0
O178 O 0.66452 0.3373 0.34445 0.0
C179 C 0.69176 0.36649 0.44377 0.0
C180 C 0.66611 0.33884 0.30766 0.0
O181 O 0.77799 0.3924 0.34716 0.0
Mg182 Mg 0.63631 0.70283 0.36636 0.0
O183 O 0.64177 0.63496 0.36391 0.0
O184 O 0.58944 0.61141 0.39468 0.0
Mg185 Mg 0.55335 0.66314 0.41936 0.0
C186 C 0.62098 0.60628 0.37566 0.0
C187 C 0.71925 0.70649 0.33234 0.0
O188 O 0.72758 0.69288 0.36661 0.0
O189 O 0.58715 0.70203 0.32123 0.0
O190 O 0.53813 0.68188 0.35872 0.0
O191 O 0.6693 0.7059 0.42195 0.0
O192 O 0.60507 0.70096 0.41729 0.0
C193 C 0.55102 0.69433 0.32671 0.0
C194 C 0.63568 0.70396 0.43872 0.0
O195 O 0.68372 0.71047 0.32209 0.0
Mg196 Mg 0.33537 0.59471 0.28986 0.0
O197 O 0.33565 0.60636 0.35611 0.0
O198 O 0.38903 0.57613 0.37952 0.0
Mg199 Mg 0.42206 0.54527 0.33038 0.0
C200 C 0.35828 0.59716 0.38413 0.0
C201 C 0.27519 0.64142 0.24469 0.0
O202 O 0.29093 0.617 0.2196 0.0
O203 O 0.38424 0.6397 0.28123 0.0
O204 O 0.43521 0.60485 0.30352 0.0
O205 O 0.30426 0.53591 0.2964 0.0
O206 O 0.36816 0.5438 0.29698 0.0
C207 C 0.42086 0.63553 0.2877 0.0
C208 C 0.33889 0.52061 0.29966 0.0
O209 O 0.28781 0.64119 0.27914 0.0
Mg210 Mg 0.42931 0.2772 0.33116 0.0
O211 O 0.40201 0.33844 0.32252 0.0
O212 O 0.43482 0.38059 0.3604 0.0
Mg213 Mg 0.47945 0.34523 0.39608 0.0
C214 C 0.40821 0.37306 0.33561 0.0
C215 C 0.36058 0.25785 0.27906 0.0
O216 O 0.34386 0.27863 0.30647 0.0
O217 O 0.48397 0.2946 0.29727 0.0
O218 O 0.51432 0.33161 0.34168 0.0
O219 O 0.38656 0.26425 0.37704 0.0
O220 O 0.44443 0.29103 0.3881 0.0
C221 C 0.51341 0.31457 0.30888 0.0
C222 C 0.41147 0.2786 0.40137 0.0
O223 O 0.39757 0.25374 0.27882 0.0
C224 C 0.33373 0.19136 0.26395 0.0
C225 C 0.3362 0.23195 0.25485 0.0
C226 C 0.28875 0.22309 0.20275 0.0
C227 C 0.2897 0.18186 0.20915 0.0
N228 N 0.31675 0.12568 0.24218 0.0
N229 N 0.31934 0.28656 0.21421 0.0
C230 C 0.313 0.16565 0.2389 0.0
C231 C 0.31449 0.24794 0.22392 0.0
N232 N 0.35017 0.1776 0.29718 0.0
N233 N 0.26233 0.2385 0.17728 0.0
H234 H 0.33755 0.30568 0.2296 0.0
H235 H 0.30765 0.299 0.18943 0.0
H236 H 0.24273 0.22112 0.1616 0.0
H237 H 0.2574 0.26857 0.17406 0.0
H238 H 0.34551 0.14931 0.30749 0.0
H239 H 0.36579 0.19543 0.31633 0.0
H240 H 0.33697 0.11222 0.26034 0.0
H241 H 0.30184 0.10574 0.22455 0.0
C242 C 0.81831 0.34833 0.26376 0.0
C243 C 0.80702 0.34499 0.30278 0.0
C244 C 0.81093 0.27304 0.29641 0.0
C245 C 0.83078 0.27714 0.26088 0.0
N246 N 0.8548 0.31979 0.21092 0.0
N247 N 0.79282 0.30358 0.35702 0.0
C248 C 0.83412 0.31499 0.24409 0.0
C249 C 0.8025 0.30713 0.31916 0.0
N250 N 0.8138 0.38357 0.24557 0.0
N251 N 0.80011 0.23642 0.30827 0.0
H252 H 0.78629 0.3276 0.37469 0.0
H253 H 0.79378 0.27694 0.37163 0.0
H254 H 0.80537 0.21113 0.29177 0.0
H255 H 0.78249 0.23164 0.33213 0.0
H256 H 0.8181 0.38711 0.21618 0.0
H257 H 0.80161 0.40821 0.25921 0.0
H258 H 0.86222 0.3473 0.20017 0.0
H259 H 0.86711 0.29652 0.19543 0.0
C260 C 0.79212 0.73381 0.25599 0.0
C261 C 0.7919 0.77541 0.26068 0.0
C262 C 0.75179 0.77018 0.31835 0.0
C263 C 0.74905 0.72898 0.31154 0.0
N264 N 0.77313 0.66997 0.28112 0.0
N265 N 0.78099 0.83258 0.30083 0.0
C266 C 0.77164 0.7102 0.28275 0.0
C267 C 0.77516 0.79337 0.29365 0.0
N268 N 0.81098 0.71734 0.22516 0.0
N269 N 0.73041 0.78723 0.34729 0.0
H270 H 0.79714 0.85062 0.2828 0.0
H271 H 0.77259 0.84685 0.32607 0.0
H272 H 0.71449 0.77095 0.36711 0.0
H273 H 0.72697 0.81748 0.35102 0.0
H274 H 0.80904 0.68779 0.21727 0.0
H275 H 0.82841 0.73383 0.20675 0.0
H276 H 0.79104 0.65396 0.26255 0.0
H277 H 0.75813 0.65231 0.30052 0.0
C278 C 0.24762 0.68972 0.1977 0.0
C279 C 0.24287 0.66796 0.23206 0.0
C280 C 0.1744 0.68957 0.23464 0.0
C281 C 0.17706 0.70301 0.19628 0.0
N282 N 0.21665 0.71491 0.14019 0.0
N283 N 0.20002 0.64502 0.28239 0.0
C284 C 0.21395 0.70364 0.17768 0.0
C285 C 0.206 0.66792 0.25085 0.0
N286 N 0.28441 0.6973 0.18445 0.0
N287 N 0.14145 0.69753 0.25551 0.0
H288 H 0.22177 0.62781 0.29497 0.0
H289 H 0.17245 0.6405 0.29424 0.0
H290 H 0.1182 0.71404 0.24447 0.0
H291 H 0.13911 0.69159 0.28474 0.0
H292 H 0.28991 0.71596 0.16149 0.0
H293 H 0.30961 0.68832 0.19908 0.0
H294 H 0.24199 0.71137 0.12393 0.0
H295 H 0.19287 0.72527 0.12437 0.0
C296 C 0.2117 0.71539 0.68002 0.0
C297 C 0.2102 0.73316 0.64323 0.0
C298 C 0.20954 0.79866 0.67367 0.0
C299 C 0.20281 0.78046 0.70949 0.0
N300 N 0.22147 0.72529 0.74856 0.0
N301 N 0.21707 0.791 0.60439 0.0
C302 C 0.21166 0.73989 0.7134 0.0
C303 C 0.21278 0.77476 0.63993 0.0
N304 N 0.2104 0.67534 0.68324 0.0
N305 N 0.21341 0.83867 0.67264 0.0
H306 H 0.22179 0.77384 0.57979 0.0
H307 H 0.21622 0.82105 0.59894 0.0
H308 H 0.21379 0.85564 0.69782 0.0
H309 H 0.21905 0.85472 0.64799 0.0
H310 H 0.20659 0.66104 0.70931 0.0
H311 H 0.2108 0.65636 0.65956 0.0
H312 H 0.23079 0.6964 0.75281 0.0
H313 H 0.22574 0.74365 0.77238 0.0
C314 C 0.2204 0.25669 0.75384 0.0
C315 C 0.23019 0.21747 0.76405 0.0
C316 C 0.27914 0.21446 0.71284 0.0
C317 C 0.27128 0.25459 0.70454 0.0
N318 N 0.23854 0.31585 0.71987 0.0
N319 N 0.27254 0.16077 0.75789 0.0
C320 C 0.24332 0.27638 0.72606 0.0
C321 C 0.26048 0.1967 0.74472 0.0
N322 N 0.18788 0.27435 0.76923 0.0
N323 N 0.30425 0.19329 0.69005 0.0
H324 H 0.25958 0.14684 0.78119 0.0
H325 H 0.29729 0.14606 0.74778 0.0
H326 H 0.32035 0.20589 0.66793 0.0
H327 H 0.30754 0.16285 0.69159 0.0
H328 H 0.17669 0.30121 0.75991 0.0
H329 H 0.16972 0.26054 0.78898 0.0
H330 H 0.22206 0.33423 0.73769 0.0
H331 H 0.25333 0.33106 0.69848 0.0
C332 C 0.76286 0.25746 0.76082 0.0
C333 C 0.74978 0.24433 0.79721 0.0
C334 C 0.70278 0.29916 0.80031 0.0
C335 C 0.71386 0.31037 0.76266 0.0
N336 N 0.75032 0.29734 0.70463 0.0
N337 N 0.7038 0.24876 0.84944 0.0
C338 C 0.74246 0.28845 0.74207 0.0
C339 C 0.71885 0.26419 0.8165 0.0
N340 N 0.79621 0.24177 0.74513 0.0
N341 N 0.67716 0.32218 0.8207 0.0
H342 H 0.71498 0.22336 0.86219 0.0
H343 H 0.6785 0.25929 0.86266 0.0
H344 H 0.66303 0.34661 0.80898 0.0
H345 H 0.6715 0.31843 0.84981 0.0
H346 H 0.8097 0.25294 0.72078 0.0
H347 H 0.81279 0.21991 0.7585 0.0
H348 H 0.76739 0.27955 0.68676 0.0
H349 H 0.73741 0.32093 0.69031 0.0
C350 C 0.67939 0.79189 0.82105 0.0
C351 C 0.70068 0.82612 0.8117 0.0
C352 C 0.66579 0.83082 0.75061 0.0
C353 C 0.65097 0.79241 0.75651 0.0
N354 N 0.64472 0.73495 0.79681 0.0
N355 N 0.71373 0.88008 0.76937 0.0
C356 C 0.65708 0.77287 0.79199 0.0
C357 C 0.69327 0.84659 0.77721 0.0
N358 N 0.68137 0.77712 0.85744 0.0
N359 N 0.65348 0.85189 0.7195 0.0
H360 H 0.73269 0.89314 0.78929 0.0
H361 H 0.71317 0.89399 0.74283 0.0
H362 H 0.63289 0.84091 0.69996 0.0
H363 H 0.66079 0.88122 0.71495 0.0
H364 H 0.66356 0.75444 0.86706 0.0
H365 H 0.69821 0.7901 0.87914 0.0
H366 H 0.65295 0.71765 0.82008 0.0
H367 H 0.62847 0.71942 0.77642 0.0
C368 C 0.16801 0.09771 0.97305 0.0
C369 C 0.1925 0.12358 0.95269 0.0
C370 C 0.22986 0.13445 0.01188 0.0
C371 C 0.19979 0.11568 0.03314 0.0
N372 N 0.1338 0.09045 0.03246 0.0
N373 N 0.24383 0.17281 0.95554 0.0
C374 C 0.16704 0.10014 0.01337 0.0
C375 C 0.22289 0.14368 0.97272 0.0
N376 N 0.14669 0.0699 0.9541 0.0
N377 N 0.26547 0.14217 0.02824 0.0
H378 H 0.239 0.18195 0.92745 0.0
H379 H 0.26349 0.19056 0.9707 0.0
H380 H 0.27298 0.13351 0.05597 0.0
H381 H 0.28904 0.15288 0.01255 0.0
H382 H 0.12995 0.04894 0.96832 0.0
H383 H 0.15045 0.06495 0.92483 0.0
H384 H 0.10842 0.08112 0.01835 0.0
H385 H 0.13018 0.0975 0.06133 0.0
C386 C 0.89594 0.17947 0.99461 0.0
C387 C 0.85971 0.16275 0.9832 0.0
C388 C 0.83954 0.15957 0.05095 0.0
C389 C 0.8783 0.16951 0.06226 0.0
N390 N 0.94287 0.19176 0.04595 0.0
N391 N 0.79523 0.1401 -0.00079 0.0
C392 C 0.90614 0.18096 0.03433 0.0
C393 C 0.8306 0.15457 0.01102 0.0
N394 N 0.9204 0.19397 0.96716 0.0
N395 N 0.81169 0.15427 0.07851 0.0
H396 H 0.7872 0.13848 0.97031 0.0
H397 H 0.77415 0.12892 0.01759 0.0
H398 H 0.81771 0.15726 0.10778 0.0
H399 H 0.78216 0.14969 0.07268 0.0
H400 H 0.94601 0.20936 0.97315 0.0
H401 H 0.91316 0.19345 0.93799 0.0
H402 H 0.96627 0.19592 0.02738 0.0
H403 H 0.95027 0.1954 0.07485 0.0
C404 C 0.85453 0.84112 0.00047 0.0
C405 C 0.82853 0.81531 0.98114 0.0
C406 C 0.80815 0.78934 0.04343 0.0
C407 C 0.8365 0.81362 0.06158 0.0
N408 N 0.89757 0.8474 0.05484 0.0
N409 N 0.78939 0.75601 0.98446 0.0
C410 C 0.86346 0.83432 0.03916 0.0
C411 C 0.80794 0.78652 0.00262 0.0
N412 N 0.86754 0.87446 0.98352 0.0
N413 N 0.7806 0.77037 0.06465 0.0
H414 H 0.79046 0.75159 0.9548 0.0
H415 H 0.77677 0.73273 -0.00076 0.0
H416 H 0.78029 0.77114 0.0946 0.0
H417 H 0.75672 0.75594 0.05231 0.0
H418 H 0.88473 0.89529 -0.00214 0.0
H419 H 0.85577 0.88372 0.95765 0.0
H420 H 0.91911 0.86137 0.03877 0.0
H421 H 0.90588 0.83889 0.08236 0.0
C422 C 0.18415 0.81578 0.98494 0.0
C423 C 0.1569 0.80151 0.01226 0.0
C424 C 0.11664 0.77581 0.95919 0.0
C425 C 0.13881 0.79812 0.93282 0.0
N426 N 0.19536 0.83803 0.91985 0.0
N427 N 0.09656 0.76685 0.02506 0.0
C428 C 0.17357 0.81709 0.9453 0.0
C429 C 0.12339 0.78037 -0.00064 0.0
N430 N 0.22041 0.82756 0.99704 0.0
N431 N 0.08912 0.75009 0.94555 0.0
H432 H 0.10059 0.76796 0.05465 0.0
H433 H 0.06908 0.75636 0.01704 0.0
H434 H 0.08415 0.74583 0.91618 0.0
H435 H 0.07439 0.73017 0.96286 0.0
H436 H 0.24289 0.83511 0.97839 0.0
H437 H 0.22923 0.82578 0.02573 0.0
H438 H 0.21787 0.85694 0.9281 0.0
H439 H 0.18984 0.83779 0.89041 0.0
C440 C 0.06836 0.13052 0.19995 0.0
C441 C 0.08414 0.136 0.16282 0.0
C442 C 0.03067 0.18185 0.14677 0.0
C443 C 0.01186 0.17151 0.18144 0.0
N444 N 0.01346 0.1404 0.24335 0.0
N445 N 0.08364 0.16889 0.10177 0.0
C446 C 0.03129 0.14754 0.20897 0.0
C447 C 0.06649 0.16276 0.13667 0.0
N448 N 0.08883 0.10883 0.22627 0.0
N449 N 0.0141 0.2097 0.12362 0.0
H450 H 0.1112 0.15765 0.09475 0.0
H451 H 0.07058 0.18421 0.07934 0.0
H452 H 0.98789 0.22393 0.13036 0.0
H453 H 0.02725 0.22089 0.09915 0.0
H454 H 0.08078 0.10568 0.25485 0.0
H455 H 0.11567 0.09547 0.22008 0.0
H456 H 0.02322 0.11992 0.26329 0.0
H457 H 0.98793 0.15498 0.25193 0.0
C458 C 0.78935 0.01318 0.17764 0.0
C459 C 0.81222 0.98504 0.19773 0.0
C460 C 0.84079 0.03818 0.23615 0.0
C461 C 0.82801 0.06496 0.20791 0.0
N462 N 0.78399 0.08121 0.15673 0.0
N463 N 0.85378 0.96992 0.25203 0.0
C464 C 0.79914 0.05368 0.18101 0.0
C465 C 0.83509 0.99716 0.22983 0.0
N466 N 0.75972 1.00053 0.15427 0.0
N467 N 0.86032 0.05239 0.26756 0.0
H468 H 0.84851 0.93984 0.24967 0.0
H469 H 0.8748 0.97703 0.27265 0.0
H470 H 0.86484 0.0826 0.27142 0.0
H471 H 0.86882 0.03517 0.29077 0.0
H472 H 0.74048 0.01938 0.1401 0.0
H473 H 0.7526 0.9707 0.15195 0.0
H474 H 0.76606 0.07454 0.13334 0.0
H475 H 0.79044 0.11109 0.16004 0.0
C476 C 0.98806 0.90582 0.16301 0.0
C477 C 0.96327 0.87395 0.15277 0.0
C478 C 0.02003 0.83609 0.13037 0.0
C479 C 0.04544 0.8665 0.14334 0.0
N480 N 0.05375 0.92769 0.17847 0.0
N481 N 0.95673 0.80516 0.13533 0.0
C482 C 0.02951 0.90072 0.16149 0.0
C483 C 0.97965 0.83783 0.13964 0.0
N484 N 0.97193 0.94112 0.17378 0.0
N485 N 0.03374 0.807 0.10651 0.0
H486 H 0.92679 0.80497 0.14083 0.0
H487 H 0.9682 0.7772 0.12977 0.0
H488 H 0.06239 0.80618 0.09641 0.0
H489 H 0.01565 0.78649 0.09292 0.0
H490 H 0.98805 0.96694 0.17684 0.0
H491 H 0.94188 0.94502 0.17776 0.0
H492 H 0.04378 0.95089 0.19563 0.0
H493 H 0.08412 0.92516 0.17819 0.0
C494 C 0.16321 0.95761 0.21618 0.0
C495 C 0.196 0.97588 0.19918 0.0
C496 C 0.23085 0.91283 0.19759 0.0
C497 C 0.19503 0.89384 0.20526 0.0
N498 N 0.13166 0.89642 0.23503 0.0
N499 N 0.26401 0.97364 0.1813 0.0
C500 C 0.16277 0.91577 0.2196 0.0
C501 C 0.2313 0.95447 0.19354 0.0
N502 N 0.13209 0.98054 0.2269 0.0
N503 N 0.26387 0.89041 0.19328 0.0
H504 H 0.26542 0.00423 0.17965 0.0
H505 H 0.28967 0.95963 0.17263 0.0
H506 H 0.26334 0.85987 0.19669 0.0
H507 H 0.2918 0.90173 0.18931 0.0
H508 H 0.10608 0.9699 0.23815 0.0
H509 H 0.13302 0.01123 0.22512 0.0
H510 H 0.10701 0.9102 0.2464 0.0
H511 H 0.1315 0.86599 0.2385 0.0
C512 C 0.94991 0.86353 0.77801 0.0
C513 C 0.9258 0.83133 0.78776 0.0
C514 C 0.97677 0.78491 0.76808 0.0
C515 C 0.00296 0.81696 0.76565 0.0
N516 N 0.01299 0.88543 0.75391 0.0
N517 N 0.90969 0.76321 0.77751 0.0
C518 C 0.98871 0.85602 0.76526 0.0
C519 C 0.93689 0.79253 0.7772 0.0
N520 N 0.93612 0.90094 0.78361 0.0
N521 N 0.9909 0.74739 0.76427 0.0
H522 H 0.8803 0.76875 0.78355 0.0
H523 H 0.91524 0.73445 0.76843 0.0
H524 H 0.01979 0.7417 0.7561 0.0
H525 H 0.97464 0.72223 0.76977 0.0
H526 H 0.95291 0.9262 0.78054 0.0
H527 H 0.90714 0.90627 0.79177 0.0
H528 H 0.00477 0.91488 0.75185 0.0
H529 H 0.0409 0.87907 0.74343 0.0
C530 C 0.10634 0.96607 0.78746 0.0
C531 C 0.12267 0.93897 0.81381 0.0
C532 C 0.15538 0.99333 0.84749 0.0
C533 C 0.13191 0.02038 0.82673 0.0
N534 N 0.08626 0.03367 0.77562 0.0
N535 N 0.16434 0.92581 0.86815 0.0
C536 C 0.10816 0.00716 0.79582 0.0
C537 C 0.14835 0.95228 0.84319 0.0
N538 N 0.08963 0.95225 0.7544 0.0
N539 N 0.18423 0.00709 0.8713 0.0
H540 H 0.16089 0.8955 0.86465 0.0
H541 H 0.17939 0.93382 0.89307 0.0
H542 H 0.1904 0.03706 0.87411 0.0
H543 H 0.20438 0.98896 0.88516 0.0
H544 H 0.07907 0.97032 0.73263 0.0
H545 H 0.09072 0.92241 0.74712 0.0
H546 H 0.06501 0.02558 0.75554 0.0
H547 H 0.08828 0.064 0.78032 0.0
C548 C 0.00917 0.16221 0.7931 0.0
C549 C 0.02886 0.18433 0.82174 0.0
C550 C 0.96689 0.211 0.84542 0.0
C551 C 0.94741 0.18279 0.82229 0.0
N552 N 0.94648 0.14366 0.76476 0.0
N553 N 0.02927 0.24013 0.86424 0.0
C554 C 0.96758 0.16308 0.79232 0.0
C555 C 0.00841 0.21293 0.8437 0.0
N556 N 0.03016 0.13802 0.76928 0.0
N557 N 0.94592 0.23319 0.87101 0.0
H558 H 0.05982 0.24103 0.8629 0.0
H559 H 0.01666 0.26312 0.87988 0.0
H560 H 0.91538 0.2327 0.87151 0.0
H561 H 0.95844 0.25151 0.89174 0.0
H562 H 0.01765 0.11777 0.75034 0.0
H563 H 0.06072 0.13816 0.76905 0.0
H564 H 0.95883 0.12985 0.74088 0.0
H565 H 0.91588 0.14429 0.7647 0.0
C566 C 0.80827 0.98107 0.91218 0.0
C567 C 0.81448 0.958 0.87852 0.0
C568 C 0.79422 0.01378 0.83892 0.0
C569 C 0.7959 0.0384 0.8719 0.0
N570 N 0.80418 0.04664 0.9401 0.0
N571 N 0.81429 0.95212 0.80928 0.0
C572 C 0.80229 0.02229 0.90873 0.0
C573 C 0.80692 0.97399 0.84166 0.0
N574 N 0.80709 0.96333 0.94723 0.0
N575 N 0.78104 0.02887 0.80495 0.0
H576 H 0.82397 0.92297 0.80998 0.0
H577 H 0.81354 0.96362 0.78166 0.0
H578 H 0.7717 0.05806 0.80248 0.0
H579 H 0.77582 0.01179 0.78049 0.0
H580 H 0.79965 0.97805 0.97256 0.0
H581 H 0.80942 0.9329 0.95031 0.0
H582 H 0.81367 0.03754 0.96709 0.0
H583 H 0.7978 0.07664 0.93845 0.0
C584 C 0.65036 0.73767 0.50221 0.0
C585 C 0.63178 0.70697 0.48097 0.0
C586 C 0.59113 0.69286 0.53614 0.0
C587 C 0.61379 0.71839 0.55936 0.0
N588 N 0.67194 0.7589 0.5652 0.0
N589 N 0.59461 0.64686 0.48371 0.0
C590 C 0.64548 0.73921 0.54272 0.0
C591 C 0.60513 0.68198 0.49969 0.0
N592 N 0.67111 0.76632 0.48405 0.0
N593 N 0.55535 0.68041 0.54794 0.0
H594 H 0.60777 0.63639 0.45874 0.0
H595 H 0.57701 0.6266 0.49788 0.0
H596 H 0.54262 0.69151 0.57288 0.0
H597 H 0.53685 0.66354 0.53052 0.0
H598 H 0.68184 0.79111 0.49843 0.0
H599 H 0.67415 0.76765 0.45433 0.0
H600 H 0.69743 0.77115 0.55414 0.0
H601 H 0.67079 0.75954 0.59509 0.0
C602 C 0.33327 0.58886 0.49035 0.0
C603 C 0.33737 0.6286 0.50291 0.0
C604 C 0.35195 0.64874 0.43667 0.0
C605 C 0.34775 0.60902 0.42417 0.0
N606 N 0.32731 0.54269 0.43703 0.0
N607 N 0.34333 0.69737 0.48776 0.0
C608 C 0.33632 0.57951 0.45049 0.0
C609 C 0.34423 0.65891 0.47589 0.0
N610 N 0.32693 0.55989 0.51672 0.0
N611 N 0.3652 0.67632 0.41147 0.0
H612 H 0.33864 0.70561 0.51629 0.0
H613 H 0.34425 0.72117 0.46914 0.0
H614 H 0.37057 0.67003 0.38257 0.0
H615 H 0.37327 0.70475 0.41949 0.0
H616 H 0.32875 0.52991 0.51049 0.0
H617 H 0.32142 0.56568 0.54567 0.0
H618 H 0.31473 0.52077 0.45359 0.0
H619 H 0.32956 0.53493 0.40811 0.0
C620 C 0.41283 0.31247 0.46587 0.0
C621 C 0.40246 0.27943 0.44309 0.0
C622 C 0.37011 0.2509 0.49913 0.0
C623 C 0.38375 0.28294 0.52183 0.0
N624 N 0.43331 0.33233 0.52921 0.0
N625 N 0.38174 0.21114 0.44224 0.0
C626 C 0.41037 0.3097 0.50597 0.0
C627 C 0.38432 0.24658 0.46093 0.0
N628 N 0.42093 0.34775 0.44964 0.0
N629 N 0.34262 0.22571 0.513 0.0
H630 H 0.394 0.20595 0.41528 0.0
H631 H 0.37149 0.18577 0.45547 0.0
H632 H 0.33182 0.2275 0.54092 0.0
H633 H 0.32876 0.20466 0.49579 0.0
H634 H 0.42658 0.37309 0.46589 0.0
H635 H 0.41546 0.35256 0.42069 0.0
H636 H 0.45439 0.35147 0.5185 0.0
H637 H 0.43453 0.32714 0.55866 0.0
C638 C 0.71533 0.40799 0.50018 0.0
C639 C 0.699 0.37235 0.48574 0.0
C640 C 0.67394 0.35695 0.55002 0.0
C641 C 0.68929 0.3931 0.56421 0.0
N642 N 0.73552 0.44573 0.55632 0.0
N643 N 0.67481 0.30749 0.49923 0.0
C644 C 0.71369 0.41614 0.54036 0.0
C645 C 0.68241 0.345 0.5116 0.0
N646 N 0.72998 0.43537 0.47559 0.0
N647 N 0.64919 0.33524 0.57207 0.0
H648 H 0.68143 0.2979 0.47141 0.0
H649 H 0.66598 0.28505 0.51746 0.0
H650 H 0.64244 0.34248 0.60039 0.0
H651 H 0.63324 0.31141 0.56143 0.0
H652 H 0.73734 0.46388 0.48416 0.0
H653 H 0.7323 0.43085 0.44607 0.0
H654 H 0.75662 0.46126 0.5412 0.0
H655 H 0.73545 0.4518 0.58578 0.0
C656 C 0.44219 0.70425 0.68521 0.0
C657 C 0.46622 0.7119 0.65315 0.0
C658 C 0.40892 0.72867 0.61404 0.0
C659 C 0.38467 0.71794 0.64516 0.0
N660 N 0.37717 0.70862 0.71308 0.0
N661 N 0.47455 0.74437 0.59258 0.0
C662 C 0.40117 0.71042 0.68183 0.0
C663 C 0.45018 0.72859 0.61936 0.0
N664 N 0.45831 0.68909 0.71793 0.0
N665 N 0.39284 0.73627 0.57888 0.0
H666 H 0.50482 0.74563 0.59661 0.0
H667 H 0.46468 0.75973 0.56863 0.0
H668 H 0.36276 0.73848 0.57441 0.0
H669 H 0.40924 0.73885 0.55387 0.0
H670 H 0.44187 0.67858 0.74076 0.0
H671 H 0.48845 0.68533 0.72148 0.0
H672 H 0.38732 0.70606 0.7412 0.0
H673 H 0.34702 0.71351 0.71092 0.0
C674 C 0.25841 0.51325 0.60087 0.0
C675 C 0.27358 0.5322 0.63411 0.0
C676 C 0.29436 0.46898 0.66063 0.0
C677 C 0.28372 0.45069 0.6253 0.0
N678 N 0.24253 0.45121 0.56925 0.0
N679 N 0.29078 0.52786 0.70076 0.0
C680 C 0.26083 0.47154 0.59813 0.0
C681 C 0.28587 0.50964 0.66596 0.0
N682 N 0.24481 0.53507 0.57082 0.0
N683 N 0.31543 0.44875 0.68751 0.0
H684 H 0.28472 0.55783 0.70459 0.0
H685 H 0.29696 0.51285 0.72605 0.0
H686 H 0.32146 0.41875 0.68527 0.0
H687 H 0.3284 0.46209 0.71138 0.0
H688 H 0.23832 0.52317 0.54388 0.0
H689 H 0.24138 0.56554 0.57241 0.0
H690 H 0.22307 0.46409 0.54993 0.0
H691 H 0.24413 0.42052 0.56721 0.0
C692 C 0.49961 0.42728 0.67162 0.0
C693 C 0.53161 0.40202 0.66224 0.0
C694 C 0.48511 0.35087 0.64157 0.0
C695 C 0.45413 0.37864 0.64463 0.0
N696 N 0.43067 0.44291 0.66304 0.0
N697 N 0.55499 0.34037 0.63541 0.0
C698 C 0.461 0.41662 0.66026 0.0
C699 C 0.52444 0.36359 0.64721 0.0
N700 N 0.50618 0.46127 0.69188 0.0
N701 N 0.47698 0.3125 0.63257 0.0
H702 H 0.5842 0.34844 0.63847 0.0
H703 H 0.55147 0.31433 0.61979 0.0
H704 H 0.44862 0.30242 0.62746 0.0
H705 H 0.49773 0.28998 0.63366 0.0
H706 H 0.48401 0.47906 0.70305 0.0
H707 H 0.53407 0.47005 0.70038 0.0
H708 H 0.43428 0.47271 0.66936 0.0
H709 H 0.40166 0.43512 0.65734 0.0
C710 C 0.58026 0.56097 0.73917 0.0
C711 C 0.60647 0.59178 0.73037 0.0
C712 C 0.66211 0.54685 0.73588 0.0
C713 C 0.63548 0.5152 0.73896 0.0
N714 N 0.5723 0.49338 0.76013 0.0
N715 N 0.67173 0.6177 0.73651 0.0
C716 C 0.59549 0.52273 0.74658 0.0
C717 C 0.64732 0.58598 0.73475 0.0
N718 N 0.54091 0.56798 0.73785 0.0
N719 N 0.70123 0.53914 0.73224 0.0
H720 H 0.66129 0.64658 0.73655 0.0
H721 H 0.70164 0.61556 0.742 0.0
H722 H 0.71279 0.51081 0.73526 0.0
H723 H 0.7219 0.56032 0.7252 0.0
H724 H 0.5199 0.54591 0.73945 0.0
H725 H 0.52961 0.59632 0.73393 0.0
H726 H 0.54357 0.49792 0.76912 0.0
H727 H 0.58301 0.46511 0.76532 0.0
C728 C 0.56435 0.35401 0.27625 0.0
C729 C 0.54978 0.3164 0.28598 0.0
C730 C 0.61625 0.2898 0.2881 0.0
C731 C 0.63059 0.3287 0.28536 0.0
N732 N 0.62124 0.3941 0.26163 0.0
N733 N 0.55982 0.24627 0.28657 0.0
C734 C 0.60549 0.35954 0.27372 0.0
C735 C 0.57517 0.28333 0.28628 0.0
N736 N 0.53871 0.38465 0.27209 0.0
N737 N 0.64204 0.25981 0.29501 0.0
H738 H 0.52976 0.24126 0.28498 0.0
H739 H 0.57658 0.22065 0.285 0.0
H740 H 0.6723 0.26428 0.29476 0.0
H741 H 0.63383 0.23116 0.30151 0.0
H742 H 0.54712 0.41389 0.26914 0.0
H743 H 0.50846 0.38034 0.27244 0.0
H744 H 0.6048 0.41749 0.25099 0.0
H745 H 0.65144 0.39763 0.259 0.0
C746 C 0.64434 0.50665 0.32887 0.0
C747 C 0.65098 0.48375 0.36221 0.0
C748 C 0.64786 0.54355 0.40212 0.0
C749 C 0.63509 0.56525 0.36977 0.0
N750 N 0.61874 0.56763 0.30241 0.0
N751 N 0.65611 0.4796 0.43131 0.0
C752 C 0.63299 0.54696 0.333 0.0
C753 C 0.65199 0.50201 0.39907 0.0
N754 N 0.6493 0.48996 0.29339 0.0
N755 N 0.65746 0.56293 0.4354 0.0
H756 H 0.66059 0.44921 0.43038 0.0
H757 H 0.65243 0.49067 0.45907 0.0
H758 H 0.65657 0.59355 0.43787 0.0
H759 H 0.67042 0.54925 0.45894 0.0
H760 H 0.64828 0.5058 0.26792 0.0
H761 H 0.65804 0.46074 0.28975 0.0
H762 H 0.61232 0.55483 0.27585 0.0
H763 H 0.61087 0.59731 0.30432 0.0
C764 C 0.48743 0.71945 0.30549 0.0
C765 C 0.52165 0.6981 0.29577 0.0
C766 C 0.48264 0.65355 0.25638 0.0
C767 C 0.44921 0.66632 0.27704 0.0
N768 N 0.41692 0.71696 0.31409 0.0
N769 N 0.55381 0.65166 0.25412 0.0
C770 C 0.45037 0.70204 0.29822 0.0
C771 C 0.51994 0.66822 0.26739 0.0
N772 N 0.49119 0.75469 0.32421 0.0
N773 N 0.47831 0.6258 0.22812 0.0
H774 H 0.58116 0.66329 0.2612 0.0
H775 H 0.55489 0.62666 0.23664 0.0
H776 H 0.4507 0.61499 0.22058 0.0
H777 H 0.50102 0.61607 0.21052 0.0
H778 H 0.46772 0.77312 0.33095 0.0
H779 H 0.5188 0.76653 0.33009 0.0
H780 H 0.4164 0.74039 0.33356 0.0
H781 H 0.38939 0.70536 0.30783 0.0
C782 C 0.3527 0.42036 0.34597 0.0
C783 C 0.38333 0.40596 0.32214 0.0
C784 C 0.37143 0.45934 0.27679 0.0
C785 C 0.34642 0.47778 0.30405 0.0
N786 N 0.30935 0.47486 0.36264 0.0
N787 N 0.42139 0.40994 0.2642 0.0
C788 C 0.33525 0.45764 0.3378 0.0
C789 C 0.3921 0.42457 0.28697 0.0
N790 N 0.34037 0.39813 0.37617 0.0
N791 N 0.37476 0.47505 0.2409 0.0
H792 H 0.43589 0.38353 0.26997 0.0
H793 H 0.4327 0.42478 0.24069 0.0
H794 H 0.35904 0.49999 0.2325 0.0
H795 H 0.38981 0.46147 0.21843 0.0
H796 H 0.31626 0.40506 0.39313 0.0
H797 H 0.35263 0.37073 0.38253 0.0
H798 H 0.30312 0.46412 0.38984 0.0
H799 H 0.29472 0.50105 0.35647 0.0
loop_
_geom_bond_atom_site_label_1
_geom_bond_atom_site_label_2
_geom_bond_distance
_geom_bond_site_symmetry_2
_ccdc_geom_bond_type
Mg0 O1 2.028 . S
Mg0 O7 1.986 . S
Mg0 O9 2.114 . S
Mg0 O10 2.251 . S
Mg0 O13 2.010 . S
O1 Mg0 2.028 . S
O1 C4 1.250 . S
O2 Mg3 2.028 . S
O2 C4 1.248 . S
Mg3 O2 2.028 . S
Mg3 O8 2.032 . S
Mg3 O10 2.079 . S
C4 O1 1.250 . S
C4 O2 1.248 . S
C5 O6 1.264 . S
C5 O13 1.249 . S
O6 C5 1.264 . S
O7 Mg0 1.986 . S
O7 C11 1.246 . S
O8 Mg3 2.032 . S
O8 C11 1.259 . S
O9 Mg0 2.114 . S
O9 C12 1.252 . S
O10 Mg0 2.251 . S
O10 Mg3 2.079 . S
O10 C12 1.273 . S
C11 O7 1.246 . S
C11 O8 1.259 . S
C12 O9 1.252 . S
C12 O10 1.273 . S
O13 Mg0 2.010 . S
O13 C5 1.249 . S
Mg14 O15 2.028 . S
Mg14 O21 1.986 . S
Mg14 O23 2.114 . S
Mg14 O24 2.251 . S
Mg14 O27 2.010 . S
O15 Mg14 2.028 . S
O15 C18 1.250 . S
O16 Mg17 2.028 . S
O16 C18 1.248 . S
Mg17 O16 2.028 . S
Mg17 O22 2.032 . S
Mg17 O24 2.079 . S
C18 O15 1.250 . S
C18 O16 1.248 . S
C19 O20 1.264 . S
C19 O27 1.249 . S
O20 C19 1.264 . S
O21 Mg14 1.986 . S
O21 C25 1.246 . S
O22 Mg17 2.032 . S
O22 C25 1.259 . S
O23 Mg14 2.114 . S
O23 C26 1.252 . S
O24 Mg14 2.251 . S
O24 Mg17 2.079 . S
O24 C26 1.273 . S
C25 O21 1.246 . S
C25 O22 1.259 . S
C26 O23 1.252 . S
C26 O24 1.273 . S
O27 Mg14 2.010 . S
O27 C19 1.249 . S
Mg28 O29 2.028 . S
Mg28 O35 1.986 . S
Mg28 O37 2.114 . S
Mg28 O38 2.251 . S
Mg28 O41 2.010 . S
O29 Mg28 2.028 . S
O29 C32 1.250 . S
O30 Mg31 2.028 . S
O30 C32 1.248 . S
Mg31 O30 2.028 . S
Mg31 O36 2.032 . S
Mg31 O38 2.079 . S
C32 O29 1.250 . S
C32 O30 1.248 . S
C33 O34 1.264 . S
C33 O41 1.249 . S
O34 C33 1.264 . S
O35 Mg28 1.986 . S
O35 C39 1.246 . S
O36 Mg31 2.032 . S
O36 C39 1.259 . S
O37 Mg28 2.114 . S
O37 C40 1.252 . S
O38 Mg28 2.251 . S
O38 Mg31 2.079 . S
O38 C40 1.273 . S
C39 O35 1.246 . S
C39 O36 1.259 . S
C40 O37 1.252 . S
C40 O38 1.273 . S
O41 Mg28 2.010 . S
O41 C33 1.249 . S
Mg42 O43 2.028 . S
Mg42 O49 1.986 . S
Mg42 O51 2.114 . S
Mg42 O52 2.251 . S
Mg42 O55 2.010 . S
O43 Mg42 2.028 . S
O43 C46 1.250 . S
O44 Mg45 2.028 . S
O44 C46 1.248 . S
Mg45 O44 2.028 . S
Mg45 O50 2.032 . S
Mg45 O52 2.079 . S
C46 O43 1.250 . S
C46 O44 1.248 . S
C47 O48 1.264 . S
C47 O55 1.249 . S
O48 C47 1.264 . S
O49 Mg42 1.986 . S
O49 C53 1.246 . S
O50 Mg45 2.032 . S
O50 C53 1.259 . S
O51 Mg42 2.114 . S
O51 C54 1.252 . S
O52 Mg42 2.251 . S
O52 Mg45 2.079 . S
O52 C54 1.273 . S
C53 O49 1.246 . S
C53 O50 1.259 . S
C54 O51 1.252 . S
C54 O52 1.273 . S
O55 Mg42 2.010 . S
O55 C47 1.249 . S
Mg56 O57 2.028 . S
Mg56 O63 1.986 . S
Mg56 O65 2.114 . S
Mg56 O66 2.251 . S
Mg56 O69 2.010 . S
O57 Mg56 2.028 . S
O57 C60 1.250 . S
O58 Mg59 2.028 . S
O58 C60 1.248 . S
Mg59 O58 2.028 . S
Mg59 O64 2.032 . S
Mg59 O66 2.079 . S
C60 O57 1.250 . S
C60 O58 1.248 . S
C61 O62 1.264 . S
C61 O69 1.249 . S
O62 C61 1.264 . S
O63 Mg56 1.986 . S
O63 C67 1.246 . S
O64 Mg59 2.032 . S
O64 C67 1.259 . S
O65 Mg56 2.114 . S
O65 C68 1.252 . S
O66 Mg56 2.251 . S
O66 Mg59 2.079 . S
O66 C68 1.273 . S
C67 O63 1.246 . S
C67 O64 1.259 . S
C68 O65 1.252 . S
C68 O66 1.273 . S
O69 Mg56 2.010 . S
O69 C61 1.249 . S
Mg70 O71 2.028 . S
Mg70 O77 1.986 . S
Mg70 O79 2.114 . S
Mg70 O80 2.251 . S
Mg70 O83 2.010 . S
O71 Mg70 2.028 . S
O71 C74 1.250 . S
O72 Mg73 2.028 . S
O72 C74 1.248 . S
Mg73 O72 2.028 . S
Mg73 O78 2.032 . S
Mg73 O80 2.079 . S
C74 O71 1.250 . S
C74 O72 1.248 . S
C75 O76 1.264 . S
C75 O83 1.249 . S
O76 C75 1.264 . S
O77 Mg70 1.986 . S
O77 C81 1.246 . S
O78 Mg73 2.032 . S
O78 C81 1.259 . S
O79 Mg70 2.114 . S
O79 C82 1.252 . S
O80 Mg70 2.251 . S
O80 Mg73 2.079 . S
O80 C82 1.273 . S
C81 O77 1.246 . S
C81 O78 1.259 . S
C82 O79 1.252 . S
C82 O80 1.273 . S
O83 Mg70 2.010 . S
O83 C75 1.249 . S
Mg84 O85 2.028 . S
Mg84 O91 1.986 . S
Mg84 O93 2.114 . S
Mg84 O94 2.251 . S
Mg84 O97 2.010 . S
O85 Mg84 2.028 . S
O85 C88 1.250 . S
O86 Mg87 2.028 . S
O86 C88 1.248 . S
Mg87 O86 2.028 . S
Mg87 O92 2.032 . S
Mg87 O94 2.079 . S
C88 O85 1.250 . S
C88 O86 1.248 . S
C89 O90 1.264 . S
C89 O97 1.249 . S
O90 C89 1.264 . S
O91 Mg84 1.986 . S
O91 C95 1.246 . S
O92 Mg87 2.032 . S
O92 C95 1.259 . S
O93 Mg84 2.114 . S
O93 C96 1.252 . S
O94 Mg84 2.251 . S
O94 Mg87 2.079 . S
O94 C96 1.273 . S
C95 O91 1.246 . S
C95 O92 1.259 . S
C96 O93 1.252 . S
C96 O94 1.273 . S
O97 Mg84 2.010 . S
O97 C89 1.249 . S
Mg98 O99 2.028 . S
Mg98 O105 1.986 . S
Mg98 O107 2.114 . S
Mg98 O108 2.251 . S
Mg98 O111 2.010 . S
O99 Mg98 2.028 . S
O99 C102 1.250 . S
O100 Mg101 2.028 . S
O100 C102 1.248 . S
Mg101 O100 2.028 . S
Mg101 O106 2.032 . S
Mg101 O108 2.079 . S
C102 O99 1.250 . S
C102 O100 1.248 . S
C103 O104 1.264 . S
C103 O111 1.249 . S
O104 C103 1.264 . S
O105 Mg98 1.986 . S
O105 C109 1.246 . S
O106 Mg101 2.032 . S
O106 C109 1.259 . S
O107 Mg98 2.114 . S
O107 C110 1.252 . S
O108 Mg98 2.251 . S
O108 Mg101 2.079 . S
O108 C110 1.273 . S
C109 O105 1.246 . S
C109 O106 1.259 . S
C110 O107 1.252 . S
C110 O108 1.273 . S
O111 Mg98 2.010 . S
O111 C103 1.249 . S
Mg112 O113 2.028 . S
Mg112 O119 1.986 . S
Mg112 O121 2.114 . S
Mg112 O122 2.251 . S
Mg112 O125 2.010 . S
O113 Mg112 2.028 . S
O113 C116 1.250 . S
O114 Mg115 2.028 . S
O114 C116 1.248 . S
Mg115 O114 2.028 . S
Mg115 O120 2.032 . S
Mg115 O122 2.079 . S
C116 O113 1.250 . S
C116 O114 1.248 . S
C117 O118 1.264 . S
C117 O125 1.249 . S
O118 C117 1.264 . S
O119 Mg112 1.986 . S
O119 C123 1.246 . S
O120 Mg115 2.032 . S
O120 C123 1.259 . S
O121 Mg112 2.114 . S
O121 C124 1.252 . S
O122 Mg112 2.251 . S
O122 Mg115 2.079 . S
O122 C124 1.273 . S
C123 O119 1.246 . S
C123 O120 1.259 . S
C124 O121 1.252 . S
C124 O122 1.273 . S
O125 Mg112 2.010 . S
O125 C117 1.249 . S
Mg126 O127 2.028 . S
Mg126 O133 1.986 . S
Mg126 O135 2.114 . S
Mg126 O136 2.251 . S
Mg126 O139 2.010 . S
O127 Mg126 2.028 . S
O127 C130 1.250 . S
O128 Mg129 2.028 . S
O128 C130 1.248 . S
Mg129 O128 2.028 . S
Mg129 O134 2.032 . S
Mg129 O136 2.079 . S
C130 O127 1.250 . S
C130 O128 1.248 . S
C131 O132 1.264 . S
C131 O139 1.249 . S
O132 C131 1.264 . S
O133 Mg126 1.986 . S
O133 C137 1.246 . S
O134 Mg129 2.032 . S
O134 C137 1.259 . S
O135 Mg126 2.114 . S
O135 C138 1.252 . S
O136 Mg126 2.251 . S
O136 Mg129 2.079 . S
O136 C138 1.273 . S
C137 O133 1.246 . S
C137 O134 1.259 . S
C138 O135 1.252 . S
C138 O136 1.273 . S
O139 Mg126 2.010 . S
O139 C131 1.249 . S
Mg140 O141 2.028 . S
Mg140 O147 1.986 . S
Mg140 O149 2.114 . S
Mg140 O150 2.251 . S
Mg140 O153 2.010 . S
O141 Mg140 2.028 . S
O141 C144 1.250 . S
O142 Mg143 2.028 . S
O142 C144 1.248 . S
Mg143 O142 2.028 . S
Mg143 O148 2.032 . S
Mg143 O150 2.079 . S
C144 O141 1.250 . S
C144 O142 1.248 . S
C145 O146 1.264 . S
C145 O153 1.249 . S
O146 C145 1.264 . S
O147 Mg140 1.986 . S
O147 C151 1.246 . S
O148 Mg143 2.032 . S
O148 C151 1.259 . S
O149 Mg140 2.114 . S
O149 C152 1.252 . S
O150 Mg140 2.251 . S
O150 Mg143 2.079 . S
O150 C152 1.273 . S
C151 O147 1.246 . S
C151 O148 1.259 . S
C152 O149 1.252 . S
C152 O150 1.273 . S
O153 Mg140 2.010 . S
O153 C145 1.249 . S
Mg154 O155 2.028 . S
Mg154 O161 1.986 . S
Mg154 O163 2.114 . S
Mg154 O164 2.251 . S
Mg154 O167 2.010 . S
O155 Mg154 2.028 . S
O155 C158 1.250 . S
O156 Mg157 2.028 . S
O156 C158 1.248 . S
Mg157 O156 2.028 . S
Mg157 O162 2.032 . S
Mg157 O164 2.079 . S
C158 O155 1.250 . S
C158 O156 1.248 . S
C159 O160 1.264 . S
C159 O167 1.249 . S
O160 C159 1.264 . S
O161 Mg154 1.986 . S
O161 C165 1.246 . S
O162 Mg157 2.032 . S
O162 C165 1.259 . S
O163 Mg154 2.114 . S
O163 C166 1.252 . S
O164 Mg154 2.251 . S
O164 Mg157 2.079 . S
O164 C166 1.273 . S
C165 O161 1.246 . S
C165 O162 1.259 . S
C166 O163 1.252 . S
C166 O164 1.273 . S
O167 Mg154 2.010 . S
O167 C159 1.249 . S
Mg168 O169 2.028 . S
Mg168 O175 1.986 . S
Mg168 O177 2.114 . S
Mg168 O178 2.251 . S
Mg168 O181 2.010 . S
O169 Mg168 2.028 . S
O169 C172 1.250 . S
O170 Mg171 2.028 . S
O170 C172 1.248 . S
Mg171 O170 2.028 . S
Mg171 O176 2.032 . S
Mg171 O178 2.079 . S
C172 O169 1.250 . S
C172 O170 1.248 . S
C173 O174 1.264 . S
C173 O181 1.249 . S
O174 C173 1.264 . S
O175 Mg168 1.986 . S
O175 C179 1.246 . S
O176 Mg171 2.032 . S
O176 C179 1.259 . S
O177 Mg168 2.114 . S
O177 C180 1.252 . S
O178 Mg168 2.251 . S
O178 Mg171 2.079 . S
O178 C180 1.273 . S
C179 O175 1.246 . S
C179 O176 1.259 . S
C180 O177 1.252 . S
C180 O178 1.273 . S
O181 Mg168 2.010 . S
O181 C173 1.249 . S
Mg182 O183 2.028 . S
Mg182 O189 1.986 . S
Mg182 O191 2.114 . S
Mg182 O192 2.251 . S
Mg182 O195 2.010 . S
O183 Mg182 2.028 . S
O183 C186 1.250 . S
O184 Mg185 2.028 . S
O184 C186 1.248 . S
Mg185 O184 2.028 . S
Mg185 O190 2.032 . S
Mg185 O192 2.079 . S
C186 O183 1.250 . S
C186 O184 1.248 . S
C187 O188 1.264 . S
C187 O195 1.249 . S
O188 C187 1.264 . S
O189 Mg182 1.986 . S
O189 C193 1.246 . S
O190 Mg185 2.032 . S
O190 C193 1.259 . S
O191 Mg182 2.114 . S
O191 C194 1.252 . S
O192 Mg182 2.251 . S
O192 Mg185 2.079 . S
O192 C194 1.273 . S
C193 O189 1.246 . S
C193 O190 1.259 . S
C194 O191 1.252 . S
C194 O192 1.273 . S
O195 Mg182 2.010 . S
O195 C187 1.249 . S
Mg196 O197 2.028 . S
Mg196 O203 1.986 . S
Mg196 O205 2.114 . S
Mg196 O206 2.251 . S
Mg196 O209 2.010 . S
O197 Mg196 2.028 . S
O197 C200 1.250 . S
O198 Mg199 2.028 . S
O198 C200 1.248 . S
Mg199 O198 2.028 . S
Mg199 O204 2.032 . S
Mg199 O206 2.079 . S
C200 O197 1.250 . S
C200 O198 1.248 . S
C201 O202 1.264 . S
C201 O209 1.249 . S
O202 C201 1.264 . S
O203 Mg196 1.986 . S
O203 C207 1.246 . S
O204 Mg199 2.032 . S
O204 C207 1.259 . S
O205 Mg196 2.114 . S
O205 C208 1.252 . S
O206 Mg196 2.251 . S
O206 Mg199 2.079 . S
O206 C208 1.273 . S
C207 O203 1.246 . S
C207 O204 1.259 . S
C208 O205 1.252 . S
C208 O206 1.273 . S
O209 Mg196 2.010 . S
O209 C201 1.249 . S
Mg210 O211 2.028 . S
Mg210 O217 1.986 . S
Mg210 O219 2.114 . S
Mg210 O220 2.251 . S
Mg210 O223 2.010 . S
O211 Mg210 2.028 . S
O211 C214 1.250 . S
O212 Mg213 2.028 . S
O212 C214 1.248 . S
Mg213 O212 2.028 . S
Mg213 O218 2.032 . S
Mg213 O220 2.079 . S
C214 O211 1.250 . S
C214 O212 1.248 . S
C215 O216 1.264 . S
C215 O223 1.249 . S
O216 C215 1.264 . S
O217 Mg210 1.986 . S
O217 C221 1.246 . S
O218 Mg213 2.032 . S
O218 C221 1.259 . S
O219 Mg210 2.114 . S
O219 C222 1.252 . S
O220 Mg210 2.251 . S
O220 Mg213 2.079 . S
O220 C222 1.273 . S
C221 O217 1.246 . S
C221 O218 1.259 . S
C222 O219 1.252 . S
C222 O220 1.273 . S
O223 Mg210 2.010 . S
O223 C215 1.249 . S
C224 C225 1.363 . S
C224 C230 1.379 . S
C224 N232 1.356 . S
C225 C224 1.363 . S
C225 C231 1.363 . S
C226 C227 1.363 . S
C226 C231 1.379 . S
C226 N233 1.356 . S
C227 C226 1.363 . S
C227 C230 1.363 . S
N228 C230 1.356 . S
N228 H240 0.984 . S
N228 H241 0.985 . S
N229 C231 1.356 . S
N229 H234 0.984 . S
N229 H235 0.985 . S
C230 C224 1.379 . S
C230 C227 1.363 . S
C230 N228 1.356 . S
C231 C225 1.363 . S
C231 C226 1.379 . S
C231 N229 1.356 . S
N232 C224 1.356 . S
N232 H238 0.984 . S
N232 H239 0.984 . S
N233 C226 1.356 . S
N233 H236 0.984 . S
N233 H237 0.985 . S
H234 N229 0.984 . S
H235 N229 0.985 . S
H236 N233 0.984 . S
H237 N233 0.985 . S
H238 N232 0.984 . S
H239 N232 0.984 . S
H240 N228 0.984 . S
H241 N228 0.985 . S
C242 C243 1.363 . S
C242 C248 1.379 . S
C242 N250 1.356 . S
C243 C242 1.363 . S
C243 C249 1.363 . S
C244 C245 1.363 . S
C244 C249 1.379 . S
C244 N251 1.356 . S
C245 C244 1.363 . S
C245 C248 1.363 . S
N246 C248 1.356 . S
N246 H258 0.984 . S
N246 H259 0.985 . S
N247 C249 1.356 . S
N247 H252 0.984 . S
N247 H253 0.985 . S
C248 C242 1.379 . S
C248 C245 1.363 . S
C248 N246 1.356 . S
C249 C243 1.363 . S
C249 C244 1.379 . S
C249 N247 1.356 . S
N250 C242 1.356 . S
N250 H256 0.984 . S
N250 H257 0.984 . S
N251 C244 1.356 . S
N251 H254 0.984 . S
N251 H255 0.985 . S
H252 N247 0.984 . S
H253 N247 0.985 . S
H254 N251 0.984 . S
H255 N251 0.985 . S
H256 N250 0.984 . S
H257 N250 0.984 . S
H258 N246 0.984 . S
H259 N246 0.985 . S
C260 C261 1.363 . S
C260 C266 1.379 . S
C260 N268 1.356 . S
C261 C260 1.363 . S
C261 C267 1.363 . S
C262 C263 1.363 . S
C262 C267 1.379 . S
C262 N269 1.356 . S
C263 C262 1.363 . S
C263 C266 1.363 . S
N264 C266 1.356 . S
N264 H276 0.984 . S
N264 H277 0.985 . S
N265 C267 1.356 . S
N265 H270 0.984 . S
N265 H271 0.985 . S
C266 C260 1.379 . S
C266 C263 1.363 . S
C266 N264 1.356 . S
C267 C261 1.363 . S
C267 C262 1.379 . S
C267 N265 1.356 . S
N268 C260 1.356 . S
N268 H274 0.984 . S
N268 H275 0.984 . S
N269 C262 1.356 . S
N269 H272 0.984 . S
N269 H273 0.985 . S
H270 N265 0.984 . S
H271 N265 0.985 . S
H272 N269 0.984 . S
H273 N269 0.985 . S
H274 N268 0.984 . S
H275 N268 0.984 . S
H276 N264 0.984 . S
H277 N264 0.985 . S
C278 C279 1.363 . S
C278 C284 1.379 . S
C278 N286 1.356 . S
C279 C278 1.363 . S
C279 C285 1.363 . S
C280 C281 1.363 . S
C280 C285 1.379 . S
C280 N287 1.356 . S
C281 C280 1.363 . S
C281 C284 1.363 . S
N282 C284 1.356 . S
N282 H294 0.984 . S
N282 H295 0.985 . S
N283 C285 1.356 . S
N283 H288 0.984 . S
N283 H289 0.985 . S
C284 C278 1.379 . S
C284 C281 1.363 . S
C284 N282 1.356 . S
C285 C279 1.363 . S
C285 C280 1.379 . S
C285 N283 1.356 . S
N286 C278 1.356 . S
N286 H292 0.984 . S
N286 H293 0.984 . S
N287 C280 1.356 . S
N287 H290 0.984 . S
N287 H291 0.985 . S
H288 N283 0.984 . S
H289 N283 0.985 . S
H290 N287 0.984 . S
H291 N287 0.985 . S
H292 N286 0.984 . S
H293 N286 0.984 . S
H294 N282 0.984 . S
H295 N282 0.985 . S
C296 C297 1.363 . S
C296 C302 1.379 . S
C296 N304 1.356 . S
C297 C296 1.363 . S
C297 C303 1.363 . S
C298 C299 1.363 . S
C298 C303 1.379 . S
C298 N305 1.356 . S
C299 C298 1.363 . S
C299 C302 1.363 . S
N300 C302 1.356 . S
N300 H312 0.984 . S
N300 H313 0.985 . S
N301 C303 1.356 . S
N301 H306 0.984 . S
N301 H307 0.985 . S
C302 C296 1.379 . S
C302 C299 1.363 . S
C302 N300 1.356 . S
C303 C297 1.363 . S
C303 C298 1.379 . S
C303 N301 1.356 . S
N304 C296 1.356 . S
N304 H310 0.984 . S
N304 H311 0.984 . S
N305 C298 1.356 . S
N305 H308 0.984 . S
N305 H309 0.985 . S
H306 N301 0.984 . S
H307 N301 0.985 . S
H308 N305 0.984 . S
H309 N305 0.985 . S
H310 N304 0.984 . S
H311 N304 0.984 . S
H312 N300 0.984 . S
H313 N300 0.985 . S
C314 C315 1.363 . S
C314 C320 1.379 . S
C314 N322 1.356 . S
C315 C314 1.363 . S
C315 C321 1.363 . S
C316 C317 1.363 . S
C316 C321 1.379 . S
C316 N323 1.356 . S
C317 C316 1.363 . S
C317 C320 1.363 . S
N318 C320 1.356 . S
N318 H330 0.984 . S
N318 H331 0.985 . S
N319 C321 1.356 . S
N319 H324 0.984 . S
N319 H325 0.985 . S
C320 C314 1.379 . S
C320 C317 1.363 . S
C320 N318 1.356 . S
C321 C315 1.363 . S
C321 C316 1.379 . S
C321 N319 1.356 . S
N322 C314 1.356 . S
N322 H328 0.984 . S
N322 H329 0.984 . S
N323 C316 1.356 . S
N323 H326 0.984 . S
N323 H327 0.985 . S
H324 N319 0.984 . S
H325 N319 0.985 . S
H326 N323 0.984 . S
H327 N323 0.985 . S
H328 N322 0.984 . S
H329 N322 0.984 . S
H330 N318 0.984 . S
H331 N318 0.985 . S
C332 C333 1.363 . S
C332 C338 1.379 . S
C332 N340 1.356 . S
C333 C332 1.363 . S
C333 C339 1.363 . S
C334 C335 1.363 . S
C334 C339 1.379 . S
C334 N341 1.356 . S
C335 C334 1.363 . S
C335 C338 1.363 . S
N336 C338 1.356 . S
N336 H348 0.984 . S
N336 H349 0.985 . S
N337 C339 1.356 . S
N337 H342 0.984 . S
N337 H343 0.985 . S
C338 C332 1.379 . S
C338 C335 1.363 . S
C338 N336 1.356 . S
C339 C333 1.363 . S
C339 C334 1.379 . S
C339 N337 1.356 . S
N340 C332 1.356 . S
N340 H346 0.984 . S
N340 H347 0.984 . S
N341 C334 1.356 . S
N341 H344 0.984 . S
N341 H345 0.985 . S
H342 N337 0.984 . S
H343 N337 0.985 . S
H344 N341 0.984 . S
H345 N341 0.985 . S
H346 N340 0.984 . S
H347 N340 0.984 . S
H348 N336 0.984 . S
H349 N336 0.985 . S
C350 C351 1.363 . S
C350 C356 1.379 . S
C350 N358 1.356 . S
C351 C350 1.363 . S
C351 C357 1.363 . S
C352 C353 1.363 . S
C352 C357 1.379 . S
C352 N359 1.356 . S
C353 C352 1.363 . S
C353 C356 1.363 . S
N354 C356 1.356 . S
N354 H366 0.984 . S
N354 H367 0.985 . S
N355 C357 1.356 . S
N355 H360 0.984 . S
N355 H361 0.985 . S
C356 C350 1.379 . S
C356 C353 1.363 . S
C356 N354 1.356 . S
C357 C351 1.363 . S
C357 C352 1.379 . S
C357 N355 1.356 . S
N358 C350 1.356 . S
N358 H364 0.984 . S
N358 H365 0.984 . S
N359 C352 1.356 . S
N359 H362 0.984 . S
N359 H363 0.985 . S
H360 N355 0.984 . S
H361 N355 0.985 . S
H362 N359 0.984 . S
H363 N359 0.985 . S
H364 N358 0.984 . S
H365 N358 0.984 . S
H366 N354 0.984 . S
H367 N354 0.985 . S
C368 C369 1.363 . S
C368 C374 1.379 1_556 S
C368 N376 1.356 . S
C369 C368 1.363 . S
C369 C375 1.363 . S
C370 C371 1.363 . S
C370 C375 1.379 1_554 S
C370 N377 1.356 . S
C371 C370 1.363 . S
C371 C374 1.363 . S
N372 C374 1.356 . S
N372 H384 0.984 . S
N372 H385 0.985 . S
N373 C375 1.356 . S
N373 H378 0.984 . S
N373 H379 0.985 . S
C374 C368 1.379 1_554 S
C374 C371 1.363 . S
C374 N372 1.356 . S
C375 C369 1.363 . S
C375 C370 1.379 1_556 S
C375 N373 1.356 . S
N376 C368 1.356 . S
N376 H382 0.984 . S
N376 H383 0.984 . S
N377 C370 1.356 . S
N377 H380 0.984 . S
N377 H381 0.985 . S
H378 N373 0.984 . S
H379 N373 0.985 . S
H380 N377 0.984 . S
H381 N377 0.985 . S
H382 N376 0.984 . S
H383 N376 0.984 . S
H384 N372 0.984 . S
H385 N372 0.985 . S
C386 C387 1.363 . S
C386 C392 1.379 1_556 S
C386 N394 1.356 . S
C387 C386 1.363 . S
C387 C393 1.363 . S
C388 C389 1.363 . S
C388 C393 1.379 1_554 S
C388 N395 1.356 . S
C389 C388 1.363 . S
C389 C392 1.363 . S
N390 C392 1.356 . S
N390 H402 0.984 . S
N390 H403 0.985 . S
N391 C393 1.356 . S
N391 H396 0.984 . S
N391 H397 0.985 . S
C392 C386 1.379 1_554 S
C392 C389 1.363 . S
C392 N390 1.356 . S
C393 C387 1.363 . S
C393 C388 1.379 1_556 S
C393 N391 1.356 . S
N394 C386 1.356 . S
N394 H400 0.984 . S
N394 H401 0.984 . S
N395 C388 1.356 . S
N395 H398 0.984 . S
N395 H399 0.985 . S
H396 N391 0.984 . S
H397 N391 0.985 . S
H398 N395 0.984 . S
H399 N395 0.985 . S
H400 N394 0.984 . S
H401 N394 0.984 . S
H402 N390 0.984 . S
H403 N390 0.985 . S
C404 C405 1.363 . S
C404 C410 1.379 1_556 S
C404 N412 1.356 . S
C405 C404 1.363 . S
C405 C411 1.363 . S
C406 C407 1.363 . S
C406 C411 1.379 1_554 S
C406 N413 1.356 . S
C407 C406 1.363 . S
C407 C410 1.363 . S
N408 C410 1.356 . S
N408 H420 0.984 . S
N408 H421 0.985 . S
N409 C411 1.356 . S
N409 H414 0.984 . S
N409 H415 0.985 . S
C410 C404 1.379 1_554 S
C410 C407 1.363 . S
C410 N408 1.356 . S
C411 C405 1.363 . S
C411 C406 1.379 1_556 S
C411 N409 1.356 . S
N412 C404 1.356 . S
N412 H418 0.984 . S
N412 H419 0.984 . S
N413 C406 1.356 . S
N413 H416 0.984 . S
N413 H417 0.985 . S
H414 N409 0.984 . S
H415 N409 0.985 . S
H416 N413 0.984 . S
H417 N413 0.985 . S
H418 N412 0.984 . S
H419 N412 0.984 . S
H420 N408 0.984 . S
H421 N408 0.985 . S
C422 C423 1.363 . S
C422 C428 1.379 1_554 S
C422 N430 1.356 . S
C423 C422 1.363 . S
C423 C429 1.363 . S
C424 C425 1.363 . S
C424 C429 1.379 1_556 S
C424 N431 1.356 . S
C425 C424 1.363 . S
C425 C428 1.363 . S
N426 C428 1.356 . S
N426 H438 0.984 . S
N426 H439 0.985 . S
N427 C429 1.356 . S
N427 H432 0.984 . S
N427 H433 0.985 . S
C428 C422 1.379 1_556 S
C428 C425 1.363 . S
C428 N426 1.356 . S
C429 C423 1.363 . S
C429 C424 1.379 1_554 S
C429 N427 1.356 . S
N430 C422 1.356 . S
N430 H436 0.984 . S
N430 H437 0.984 . S
N431 C424 1.356 . S
N431 H434 0.984 . S
N431 H435 0.985 . S
H432 N427 0.984 . S
H433 N427 0.985 . S
H434 N431 0.984 . S
H435 N431 0.985 . S
H436 N430 0.984 . S
H437 N430 0.984 . S
H438 N426 0.984 . S
H439 N426 0.985 . S
C440 C441 1.363 . S
C440 C446 1.379 1_455 S
C440 N448 1.356 . S
C441 C440 1.363 . S
C441 C447 1.363 . S
C442 C443 1.363 . S
C442 C447 1.379 1_655 S
C442 N449 1.356 . S
C443 C442 1.363 . S
C443 C446 1.363 . S
N444 C446 1.356 . S
N444 H456 0.984 . S
N444 H457 0.985 . S
N445 C447 1.356 . S
N445 H450 0.984 . S
N445 H451 0.985 . S
C446 C440 1.379 1_655 S
C446 C443 1.363 . S
C446 N444 1.356 . S
C447 C441 1.363 . S
C447 C442 1.379 1_455 S
C447 N445 1.356 . S
N448 C440 1.356 . S
N448 H454 0.984 . S
N448 H455 0.984 . S
N449 C442 1.356 . S
N449 H452 0.984 . S
N449 H453 0.985 . S
H450 N445 0.984 . S
H451 N445 0.985 . S
H452 N449 0.984 . S
H453 N449 0.985 . S
H454 N448 0.984 . S
H455 N448 0.984 . S
H456 N444 0.984 . S
H457 N444 0.985 . S
C458 C459 1.363 . S
C458 C464 1.379 1_565 S
C458 N466 1.356 . S
C459 C458 1.363 . S
C459 C465 1.363 . S
C460 C461 1.363 . S
C460 C465 1.379 1_545 S
C460 N467 1.356 . S
C461 C460 1.363 . S
C461 C464 1.363 . S
N462 C464 1.356 . S
N462 H474 0.984 . S
N462 H475 0.985 . S
N463 C465 1.356 . S
N463 H468 0.984 . S
N463 H469 0.985 . S
C464 C458 1.379 1_545 S
C464 C461 1.363 . S
C464 N462 1.356 . S
C465 C459 1.363 . S
C465 C460 1.379 1_565 S
C465 N463 1.356 . S
N466 C458 1.356 . S
N466 H472 0.984 . S
N466 H473 0.984 . S
N467 C460 1.356 . S
N467 H470 0.984 . S
N467 H471 0.985 . S
H468 N463 0.984 . S
H469 N463 0.985 . S
H470 N467 0.984 . S
H471 N467 0.985 . S
H472 N466 0.984 . S
H473 N466 0.984 . S
H474 N462 0.984 . S
H475 N462 0.985 . S
C476 C477 1.363 . S
C476 C482 1.379 1_655 S
C476 N484 1.356 . S
C477 C476 1.363 . S
C477 C483 1.363 . S
C478 C479 1.363 . S
C478 C483 1.379 1_455 S
C478 N485 1.356 . S
C479 C478 1.363 . S
C479 C482 1.363 . S
N480 C482 1.356 . S
N480 H492 0.984 . S
N480 H493 0.985 . S
N481 C483 1.356 . S
N481 H486 0.984 . S
N481 H487 0.985 . S
C482 C476 1.379 1_455 S
C482 C479 1.363 . S
C482 N480 1.356 . S
C483 C477 1.363 . S
C483 C478 1.379 1_655 S
C483 N481 1.356 . S
N484 C476 1.356 . S
N484 H490 0.984 . S
N484 H491 0.984 . S
N485 C478 1.356 . S
N485 H488 0.984 . S
N485 H489 0.985 . S
H486 N481 0.984 . S
H487 N481 0.985 . S
H488 N485 0.984 . S
H489 N485 0.985 . S
H490 N484 0.984 . S
H491 N484 0.984 . S
H492 N480 0.984 . S
H493 N480 0.985 . S
C494 C495 1.363 . S
C494 C500 1.379 1_545 S
C494 N502 1.356 . S
C495 C494 1.363 . S
C495 C501 1.363 . S
C496 C497 1.363 . S
C496 C501 1.379 1_565 S
C496 N503 1.356 . S
C497 C496 1.363 . S
C497 C500 1.363 . S
N498 C500 1.356 . S
N498 H510 0.984 . S
N498 H511 0.985 . S
N499 C501 1.356 . S
N499 H504 0.984 . S
N499 H505 0.985 . S
C500 C494 1.379 1_565 S
C500 C497 1.363 . S
C500 N498 1.356 . S
C501 C495 1.363 . S
C501 C496 1.379 1_545 S
C501 N499 1.356 . S
N502 C494 1.356 . S
N502 H508 0.984 . S
N502 H509 0.984 . S
N503 C496 1.356 . S
N503 H506 0.984 . S
N503 H507 0.985 . S
H504 N499 0.984 . S
H505 N499 0.985 . S
H506 N503 0.984 . S
H507 N503 0.985 . S
H508 N502 0.984 . S
H509 N502 0.984 . S
H510 N498 0.984 . S
H511 N498 0.985 . S
C512 C513 1.363 . S
C512 C518 1.379 1_655 S
C512 N520 1.356 . S
C513 C512 1.363 . S
C513 C519 1.363 . S
C514 C515 1.363 . S
C514 C519 1.379 1_455 S
C514 N521 1.356 . S
C515 C514 1.363 . S
C515 C518 1.363 . S
N516 C518 1.356 . S
N516 H528 0.984 . S
N516 H529 0.985 . S
N517 C519 1.356 . S
N517 H522 0.984 . S
N517 H523 0.985 . S
C518 C512 1.379 1_455 S
C518 C515 1.363 . S
C518 N516 1.356 . S
C519 C513 1.363 . S
C519 C514 1.379 1_655 S
C519 N517 1.356 . S
N520 C512 1.356 . S
N520 H526 0.984 . S
N520 H527 0.984 . S
N521 C514 1.356 . S
N521 H524 0.984 . S
N521 H525 0.985 . S
H522 N517 0.984 . S
H523 N517 0.985 . S
H524 N521 0.984 . S
H525 N521 0.985 . S
H526 N520 0.984 . S
H527 N520 0.984 . S
H528 N516 0.984 . S
H529 N516 0.985 . S
C530 C531 1.363 . S
C530 C536 1.379 1_565 S
C530 N538 1.356 . S
C531 C530 1.363 . S
C531 C537 1.363 . S
C532 C533 1.363 . S
C532 C537 1.379 1_545 S
C532 N539 1.356 . S
C533 C532 1.363 . S
C533 C536 1.363 . S
N534 C536 1.356 . S
N534 H546 0.984 . S
N534 H547 0.985 . S
N535 C537 1.356 . S
N535 H540 0.984 . S
N535 H541 0.985 . S
C536 C530 1.379 1_545 S
C536 C533 1.363 . S
C536 N534 1.356 . S
C537 C531 1.363 . S
C537 C532 1.379 1_565 S
C537 N535 1.356 . S
N538 C530 1.356 . S
N538 H544 0.984 . S
N538 H545 0.984 . S
N539 C532 1.356 . S
N539 H542 0.984 . S
N539 H543 0.985 . S
H540 N535 0.984 . S
H541 N535 0.985 . S
H542 N539 0.984 . S
H543 N539 0.985 . S
H544 N538 0.984 . S
H545 N538 0.984 . S
H546 N534 0.984 . S
H547 N534 0.985 . S
C548 C549 1.363 . S
C548 C554 1.379 1_455 S
C548 N556 1.356 . S
C549 C548 1.363 . S
C549 C555 1.363 . S
C550 C551 1.363 . S
C550 C555 1.379 1_655 S
C550 N557 1.356 . S
C551 C550 1.363 . S
C551 C554 1.363 . S
N552 C554 1.356 . S
N552 H564 0.984 . S
N552 H565 0.985 . S
N553 C555 1.356 . S
N553 H558 0.984 . S
N553 H559 0.985 . S
C554 C548 1.379 1_655 S
C554 C551 1.363 . S
C554 N552 1.356 . S
C555 C549 1.363 . S
C555 C550 1.379 1_455 S
C555 N553 1.356 . S
N556 C548 1.356 . S
N556 H562 0.984 . S
N556 H563 0.984 . S
N557 C550 1.356 . S
N557 H560 0.984 . S
N557 H561 0.985 . S
H558 N553 0.984 . S
H559 N553 0.985 . S
H560 N557 0.984 . S
H561 N557 0.985 . S
H562 N556 0.984 . S
H563 N556 0.984 . S
H564 N552 0.984 . S
H565 N552 0.985 . S
C566 C567 1.363 . S
C566 C572 1.379 1_565 S
C566 N574 1.356 . S
C567 C566 1.363 . S
C567 C573 1.363 . S
C568 C569 1.363 . S
C568 C573 1.379 1_545 S
C568 N575 1.356 . S
C569 C568 1.363 . S
C569 C572 1.363 . S
N570 C572 1.356 . S
N570 H582 0.984 . S
N570 H583 0.985 . S
N571 C573 1.356 . S
N571 H576 0.984 . S
N571 H577 0.985 . S
C572 C566 1.379 1_545 S
C572 C569 1.363 . S
C572 N570 1.356 . S
C573 C567 1.363 . S
C573 C568 1.379 1_565 S
C573 N571 1.356 . S
N574 C566 1.356 . S
N574 H580 0.984 . S
N574 H581 0.984 . S
N575 C568 1.356 . S
N575 H578 0.984 . S
N575 H579 0.985 . S
H576 N571 0.984 . S
H577 N571 0.985 . S
H578 N575 0.984 . S
H579 N575 0.985 . S
H580 N574 0.984 . S
H581 N574 0.984 . S
H582 N570 0.984 . S
H583 N570 0.985 . S
C584 C585 1.363 . S
C584 C590 1.379 . S
C584 N592 1.356 . S
C585 C584 1.363 . S
C585 C591 1.363 . S
C586 C587 1.363 . S
C586 C591 1.379 . S
C586 N593 1.356 . S
C587 C586 1.363 . S
C587 C590 1.363 . S
N588 C590 1.356 . S
N588 H600 0.984 . S
N588 H601 0.985 . S
N589 C591 1.356 . S
N589 H594 0.984 . S
N589 H595 0.985 . S
C590 C584 1.379 . S
C590 C587 1.363 . S
C590 N588 1.356 . S
C591 C585 1.363 . S
C591 C586 1.379 . S
C591 N589 1.356 . S
N592 C584 1.356 . S
N592 H598 0.984 . S
N592 H599 0.984 . S
N593 C586 1.356 . S
N593 H596 0.984 . S
N593 H597 0.985 . S
H594 N589 0.984 . S
H595 N589 0.985 . S
H596 N593 0.984 . S
H597 N593 0.985 . S
H598 N592 0.984 . S
H599 N592 0.984 . S
H600 N588 0.984 . S
H601 N588 0.985 . S
C602 C603 1.363 . S
C602 C608 1.379 . S
C602 N610 1.356 . S
C603 C602 1.363 . S
C603 C609 1.363 . S
C604 C605 1.363 . S
C604 C609 1.379 . S
C604 N611 1.356 . S
C605 C604 1.363 . S
C605 C608 1.363 . S
N606 C608 1.356 . S
N606 H618 0.984 . S
N606 H619 0.985 . S
N607 C609 1.356 . S
N607 H612 0.984 . S
N607 H613 0.985 . S
C608 C602 1.379 . S
C608 C605 1.363 . S
C608 N606 1.356 . S
C609 C603 1.363 . S
C609 C604 1.379 . S
C609 N607 1.356 . S
N610 C602 1.356 . S
N610 H616 0.984 . S
N610 H617 0.984 . S
N611 C604 1.356 . S
N611 H614 0.984 . S
N611 H615 0.985 . S
H612 N607 0.984 . S
H613 N607 0.985 . S
H614 N611 0.984 . S
H615 N611 0.985 . S
H616 N610 0.984 . S
H617 N610 0.984 . S
H618 N606 0.984 . S
H619 N606 0.985 . S
C620 C621 1.363 . S
C620 C626 1.379 . S
C620 N628 1.356 . S
C621 C620 1.363 . S
C621 C627 1.363 . S
C622 C623 1.363 . S
C622 C627 1.379 . S
C622 N629 1.356 . S
C623 C622 1.363 . S
C623 C626 1.363 . S
N624 C626 1.356 . S
N624 H636 0.984 . S
N624 H637 0.985 . S
N625 C627 1.356 . S
N625 H630 0.984 . S
N625 H631 0.985 . S
C626 C620 1.379 . S
C626 C623 1.363 . S
C626 N624 1.356 . S
C627 C621 1.363 . S
C627 C622 1.379 . S
C627 N625 1.356 . S
N628 C620 1.356 . S
N628 H634 0.984 . S
N628 H635 0.984 . S
N629 C622 1.356 . S
N629 H632 0.984 . S
N629 H633 0.985 . S
H630 N625 0.984 . S
H631 N625 0.985 . S
H632 N629 0.984 . S
H633 N629 0.985 . S
H634 N628 0.984 . S
H635 N628 0.984 . S
H636 N624 0.984 . S
H637 N624 0.985 . S
C638 C639 1.363 . S
C638 C644 1.379 . S
C638 N646 1.356 . S
C639 C638 1.363 . S
C639 C645 1.363 . S
C640 C641 1.363 . S
C640 C645 1.379 . S
C640 N647 1.356 . S
C641 C640 1.363 . S
C641 C644 1.363 . S
N642 C644 1.356 . S
N642 H654 0.984 . S
N642 H655 0.985 . S
N643 C645 1.356 . S
N643 H648 0.984 . S
N643 H649 0.985 . S
C644 C638 1.379 . S
C644 C641 1.363 . S
C644 N642 1.356 . S
C645 C639 1.363 . S
C645 C640 1.379 . S
C645 N643 1.356 . S
N646 C638 1.356 . S
N646 H652 0.984 . S
N646 H653 0.984 . S
N647 C640 1.356 . S
N647 H650 0.984 . S
N647 H651 0.985 . S
H648 N643 0.984 . S
H649 N643 0.985 . S
H650 N647 0.984 . S
H651 N647 0.985 . S
H652 N646 0.984 . S
H653 N646 0.984 . S
H654 N642 0.984 . S
H655 N642 0.985 . S
C656 C657 1.363 . S
C656 C662 1.379 . S
C656 N664 1.356 . S
C657 C656 1.363 . S
C657 C663 1.363 . S
C658 C659 1.363 . S
C658 C663 1.379 . S
C658 N665 1.356 . S
C659 C658 1.363 . S
C659 C662 1.363 . S
N660 C662 1.356 . S
N660 H672 0.984 . S
N660 H673 0.985 . S
N661 C663 1.356 . S
N661 H666 0.984 . S
N661 H667 0.985 . S
C662 C656 1.379 . S
C662 C659 1.363 . S
C662 N660 1.356 . S
C663 C657 1.363 . S
C663 C658 1.379 . S
C663 N661 1.356 . S
N664 C656 1.356 . S
N664 H670 0.984 . S
N664 H671 0.984 . S
N665 C658 1.356 . S
N665 H668 0.984 . S
N665 H669 0.985 . S
H666 N661 0.984 . S
H667 N661 0.985 . S
H668 N665 0.984 . S
H669 N665 0.985 . S
H670 N664 0.984 . S
H671 N664 0.984 . S
H672 N660 0.984 . S
H673 N660 0.985 . S
C674 C675 1.363 . S
C674 C680 1.379 . S
C674 N682 1.356 . S
C675 C674 1.363 . S
C675 C681 1.363 . S
C676 C677 1.363 . S
C676 C681 1.379 . S
C676 N683 1.356 . S
C677 C676 1.363 . S
C677 C680 1.363 . S
N678 C680 1.356 . S
N678 H690 0.984 . S
N678 H691 0.985 . S
N679 C681 1.356 . S
N679 H684 0.984 . S
N679 H685 0.985 . S
C680 C674 1.379 . S
C680 C677 1.363 . S
C680 N678 1.356 . S
C681 C675 1.363 . S
C681 C676 1.379 . S
C681 N679 1.356 . S
N682 C674 1.356 . S
N682 H688 0.984 . S
N682 H689 0.984 . S
N683 C676 1.356 . S
N683 H686 0.984 . S
N683 H687 0.985 . S
H684 N679 0.984 . S
H685 N679 0.985 . S
H686 N683 0.984 . S
H687 N683 0.985 . S
H688 N682 0.984 . S
H689 N682 0.984 . S
H690 N678 0.984 . S
H691 N678 0.985 . S
C692 C693 1.363 . S
C692 C698 1.379 . S
C692 N700 1.356 . S
C693 C692 1.363 . S
C693 C699 1.363 . S
C694 C695 1.363 . S
C694 C699 1.379 . S
C694 N701 1.356 . S
C695 C694 1.363 . S
C695 C698 1.363 . S
N696 C698 1.356 . S
N696 H708 0.984 . S
N696 H709 0.985 . S
N697 C699 1.356 . S
N697 H702 0.984 . S
N697 H703 0.985 . S
C698 C692 1.379 . S
C698 C695 1.363 . S
C698 N696 1.356 . S
C699 C693 1.363 . S
C699 C694 1.379 . S
C699 N697 1.356 . S
N700 C692 1.356 . S
N700 H706 0.984 . S
N700 H707 0.984 . S
N701 C694 1.356 . S
N701 H704 0.984 . S
N701 H705 0.985 . S
H702 N697 0.984 . S
H703 N697 0.985 . S
H704 N701 0.984 . S
H705 N701 0.985 . S
H706 N700 0.984 . S
H707 N700 0.984 . S
H708 N696 0.984 . S
H709 N696 0.985 . S
C710 C711 1.363 . S
C710 C716 1.379 . S
C710 N718 1.356 . S
C711 C710 1.363 . S
C711 C717 1.363 . S
C712 C713 1.363 . S
C712 C717 1.379 . S
C712 N719 1.356 . S
C713 C712 1.363 . S
C713 C716 1.363 . S
N714 C716 1.356 . S
N714 H726 0.984 . S
N714 H727 0.985 . S
N715 C717 1.356 . S
N715 H720 0.984 . S
N715 H721 0.985 . S
C716 C710 1.379 . S
C716 C713 1.363 . S
C716 N714 1.356 . S
C717 C711 1.363 . S
C717 C712 1.379 . S
C717 N715 1.356 . S
N718 C710 1.356 . S
N718 H724 0.984 . S
N718 H725 0.984 . S
N719 C712 1.356 . S
N719 H722 0.984 . S
N719 H723 0.985 . S
H720 N715 0.984 . S
H721 N715 0.985 . S
H722 N719 0.984 . S
H723 N719 0.985 . S
H724 N718 0.984 . S
H725 N718 0.984 . S
H726 N714 0.984 . S
H727 N714 0.985 . S
C728 C729 1.363 . S
C728 C734 1.379 . S
C728 N736 1.356 . S
C729 C728 1.363 . S
C729 C735 1.363 . S
C730 C731 1.363 . S
C730 C735 1.379 . S
C730 N737 1.356 . S
C731 C730 1.363 . S
C731 C734 1.363 . S
N732 C734 1.356 . S
N732 H744 0.984 . S
N732 H745 0.985 . S
N733 C735 1.356 . S
N733 H738 0.984 . S
N733 H739 0.985 . S
C734 C728 1.379 . S
C734 C731 1.363 . S
C734 N732 1.356 . S
C735 C729 1.363 . S
C735 C730 1.379 . S
C735 N733 1.356 . S
N736 C728 1.356 . S
N736 H742 0.984 . S
N736 H743 0.984 . S
N737 C730 1.356 . S
N737 H740 0.984 . S
N737 H741 0.985 . S
H738 N733 0.984 . S
H739 N733 0.985 . S
H740 N737 0.984 . S
H741 N737 0.985 . S
H742 N736 0.984 . S
H743 N736 0.984 . S
H744 N732 0.984 . S
H745 N732 0.985 . S
C746 C747 1.363 . S
C746 C752 1.379 . S
C746 N754 1.356 . S
C747 C746 1.363 . S
C747 C753 1.363 . S
C748 C749 1.363 . S
C748 C753 1.379 . S
C748 N755 1.356 . S
C749 C748 1.363 . S
C749 C752 1.363 . S
N750 C752 1.356 . S
N750 H762 0.984 . S
N750 H763 0.985 . S
N751 C753 1.356 . S
N751 H756 0.984 . S
N751 H757 0.985 . S
C752 C746 1.379 . S
C752 C749 1.363 . S
C752 N750 1.356 . S
C753 C747 1.363 . S
C753 C748 1.379 . S
C753 N751 1.356 . S
N754 C746 1.356 . S
N754 H760 0.984 . S
N754 H761 0.984 . S
N755 C748 1.356 . S
N755 H758 0.984 . S
N755 H759 0.985 . S
H756 N751 0.984 . S
H757 N751 0.985 . S
H758 N755 0.984 . S
H759 N755 0.985 . S
H760 N754 0.984 . S
H761 N754 0.984 . S
H762 N750 0.984 . S
H763 N750 0.985 . S
C764 C765 1.363 . S
C764 C770 1.379 . S
C764 N772 1.356 . S
C765 C764 1.363 . S
C765 C771 1.363 . S
C766 C767 1.363 . S
C766 C771 1.379 . S
C766 N773 1.356 . S
C767 C766 1.363 . S
C767 C770 1.363 . S
N768 C770 1.356 . S
N768 H780 0.984 . S
N768 H781 0.985 . S
N769 C771 1.356 . S
N769 H774 0.984 . S
N769 H775 0.985 . S
C770 C764 1.379 . S
C770 C767 1.363 . S
C770 N768 1.356 . S
C771 C765 1.363 . S
C771 C766 1.379 . S
C771 N769 1.356 . S
N772 C764 1.356 . S
N772 H778 0.984 . S
N772 H779 0.984 . S
N773 C766 1.356 . S
N773 H776 0.984 . S
N773 H777 0.985 . S
H774 N769 0.984 . S
H775 N769 0.985 . S
H776 N773 0.984 . S
H777 N773 0.985 . S
H778 N772 0.984 . S
H779 N772 0.984 . S
H780 N768 0.984 . S
H781 N768 0.985 . S
C782 C783 1.363 . S
C782 C788 1.379 . S
C782 N790 1.356 . S
C783 C782 1.363 . S
C783 C789 1.363 . S
C784 C785 1.363 . S
C784 C789 1.379 . S
C784 N791 1.356 . S
C785 C784 1.363 . S
C785 C788 1.363 . S
N786 C788 1.356 . S
N786 H798 0.984 . S
N786 H799 0.985 . S
N787 C789 1.356 . S
N787 H792 0.984 . S
N787 H793 0.985 . S
C788 C782 1.379 . S
C788 C785 1.363 . S
C788 N786 1.356 . S
C789 C783 1.363 . S
C789 C784 1.379 . S
C789 N787 1.356 . S
N790 C782 1.356 . S
N790 H796 0.984 . S
N790 H797 0.984 . S
N791 C784 1.356 . S
N791 H794 0.984 . S
N791 H795 0.985 . S
H792 N787 0.984 . S
H793 N787 0.985 . S
H794 N791 0.984 . S
H795 N791 0.985 . S
H796 N790 0.984 . S
H797 N790 0.984 . S
H798 N786 0.984 . S
H799 N786 0.985 . S
C225 C215 0.929 . S
C227 C5 0.929 . S
C243 C173 0.991 . S
C245 C19 0.965 . S
C261 C33 0.959 . S
C263 C187 0.959 . S
C279 C201 0.965 . S
C281 C47 0.991 . S
C297 C131 0.965 . S
C299 C61 0.991 . S
C315 C75 0.959 . S
C317 C145 0.959 . S
C333 C89 0.965 . S
C335 C159 0.991 . S
C351 C103 0.929 . S
C353 C117 0.929 . S
C369 C82 1.374 . S
C371 C12 1.373 . S
C387 C88 1.547 . S
C389 C18 1.547 . S
C405 C110 1.373 . S
C407 C40 1.374 . S
C423 C53 1.372 . S
C425 C67 1.372 . S
C441 C4 1.381 . S
C443 C26 1.463 . S
C459 C39 1.346 . S
C461 C25 1.357 . S
C477 C32 1.486 . S
C479 C46 1.483 . S
C495 C11 1.313 . S
C497 C54 1.356 . S
C513 C109 1.313 . S
C515 C68 1.356 . S
C531 C60 1.483 . S
C533 C74 1.486 . S
C549 C81 1.346 . S
C551 C95 1.357 . S
C567 C102 1.381 . S
C569 C96 1.463 . S
C585 C194 1.374 . S
C587 C124 1.373 . S
C603 C130 1.547 . S
C605 C200 1.547 . S
C621 C222 1.373 . S
C623 C152 1.374 . S
C639 C179 1.372 . S
C641 C165 1.372 . S
C657 C116 1.381 . S
C659 C138 1.463 . S
C675 C137 1.357 . S
C677 C151 1.346 . S
C693 C158 1.483 . S
C695 C144 1.486 . S
C711 C123 1.313 . S
C713 C166 1.356 . S
C729 C221 1.313 . S
C731 C180 1.356 . S
C747 C172 1.483 . S
C749 C186 1.486 . S
C765 C193 1.346 . S
C767 C207 1.357 . S
C783 C214 1.381 . S
C785 C208 1.463 . S
