# Generated by pormake.
# Topology dia-g, (3)-cn, num edge types: 1
# Building blocks:
#     Node 0, Type 0, BuildingBlock: OLANEW_clean_sbu_2, # of connection points: 3
#     Node 1, Type 0, BuildingBlock: OLANEW_clean_sbu_2, # of connection points: 3
#     Node 2, Type 0, BuildingBlock: OLANEW_clean_sbu_2, # of connection points: 3
#     Node 3, Type 0, BuildingBlock: OLANEW_clean_sbu_2, # of connection points: 3
#     Node 4, Type 0, BuildingBlock: OLANEW_clean_sbu_2, # of connection points: 3
#     Node 5, Type 0, BuildingBlock: OLANEW_clean_sbu_2, # of connection points: 3
#     Node 6, Type 0, BuildingBlock: OLANEW_clean_sbu_2, # of connection points: 3
#     Node 7, Type 0, BuildingBlock: OLANEW_clean_sbu_2, # of connection points: 3
#     Node 8, Type 0, BuildingBlock: OLANEW_clean_sbu_2, # of connection points: 3
#     Node 9, Type 0, BuildingBlock: OLANEW_clean_sbu_2, # of connection points: 3
#     Node 10, Type 0, BuildingBlock: OLANEW_clean_sbu_2, # of connection points: 3
#     Node 11, Type 0, BuildingBlock: OLANEW_clean_sbu_2, # of connection points: 3
#     Node 12, Type 0, BuildingBlock: OLANEW_clean_sbu_2, # of connection points: 3
#     Node 13, Type 0, BuildingBlock: OLANEW_clean_sbu_2, # of connection points: 3
#     Node 14, Type 0, BuildingBlock: OLANEW_clean_sbu_2, # of connection points: 3
#     Node 15, Type 0, BuildingBlock: OLANEW_clean_sbu_2, # of connection points: 3
#     Edge 16, Type (0, 0), BuildingBlock: AJUNOK_clean_linker_0, # of connection points: 2
#     Edge 17, Type (0, 0), BuildingBlock: AJUNOK_clean_linker_0, # of connection points: 2
#     Edge 18, Type (0, 0), BuildingBlock: AJUNOK_clean_linker_0, # of connection points: 2
#     Edge 19, Type (0, 0), BuildingBlock: AJUNOK_clean_linker_0, # of connection points: 2
#     Edge 20, Type (0, 0), BuildingBlock: AJUNOK_clean_linker_0, # of connection points: 2
#     Edge 21, Type (0, 0), BuildingBlock: AJUNOK_clean_linker_0, # of connection points: 2
#     Edge 22, Type (0, 0), BuildingBlock: AJUNOK_clean_linker_0, # of connection points: 2
#     Edge 23, Type (0, 0), BuildingBlock: AJUNOK_clean_linker_0, # of connection points: 2
#     Edge 24, Type (0, 0), BuildingBlock: AJUNOK_clean_linker_0, # of connection points: 2
#     Edge 25, Type (0, 0), BuildingBlock: AJUNOK_clean_linker_0, # of connection points: 2
#     Edge 26, Type (0, 0), BuildingBlock: AJUNOK_clean_linker_0, # of connection points: 2
#     Edge 27, Type (0, 0), BuildingBlock: AJUNOK_clean_linker_0, # of connection points: 2
#     Edge 28, Type (0, 0), BuildingBlock: AJUNOK_clean_linker_0, # of connection points: 2
#     Edge 29, Type (0, 0), BuildingBlock: AJUNOK_clean_linker_0, # of connection points: 2
#     Edge 30, Type (0, 0), BuildingBlock: AJUNOK_clean_linker_0, # of connection points: 2
#     Edge 31, Type (0, 0), BuildingBlock: AJUNOK_clean_linker_0, # of connection points: 2
#     Edge 32, Type (0, 0), BuildingBlock: AJUNOK_clean_linker_0, # of connection points: 2
#     Edge 33, Type (0, 0), BuildingBlock: AJUNOK_clean_linker_0, # of connection points: 2
#     Edge 34, Type (0, 0), BuildingBlock: AJUNOK_clean_linker_0, # of connection points: 2
#     Edge 35, Type (0, 0), BuildingBlock: AJUNOK_clean_linker_0, # of connection points: 2
#     Edge 36, Type (0, 0), BuildingBlock: AJUNOK_clean_linker_0, # of connection points: 2
#     Edge 37, Type (0, 0), BuildingBlock: AJUNOK_clean_linker_0, # of connection points: 2
#     Edge 38, Type (0, 0), BuildingBlock: AJUNOK_clean_linker_0, # of connection points: 2
#     Edge 39, Type (0, 0), BuildingBlock: AJUNOK_clean_linker_0, # of connection points: 2
# Relax obj value: 0.010
# Max RMSD: 0.019
# Mean RMSD: 0.019
data_MOF--net-dia-g--node1-OLANEW_clean_sbu_2--edge1-AJUNOK_clean_linker_0
_symmetry_space_group_name_H-M    P1
_symmetry_Int_Tables_number       1
_symmetry_cell_setting            triclinic
loop_
_symmetry_equiv_pos_as_xyz
'x, y, z'
_cell_length_a     45.186497
_cell_length_b     45.200656
_cell_length_c     62.220591
_cell_angle_alpha  90.121877
_cell_angle_beta   90.051507
_cell_angle_gamma 89.928246
loop_
_atom_site_label
_atom_site_type_symbol
_atom_site_fract_x
_atom_site_fract_y
_atom_site_fract_z
_atom_type_partial_charge
O0 O 0.13717 0.15453 0.4445 0.0
Cd1 Cd 0.13355 0.15818 0.4055 0.0
O2 O 0.1172 0.11059 0.44302 0.0
Cd3 Cd 0.10034 0.06783 0.45401 0.0
O4 O 0.07113 0.03129 0.46243 0.0
C5 C 0.0453 0.03708 0.46936 0.0
O6 O 0.03766 0.06487 0.47219 0.0
C7 C 0.1286 0.13134 0.45415 0.0
C8 C 0.19001 0.16611 0.38839 0.0
O9 O 0.17364 0.18831 0.39326 0.0
O10 O 0.17938 0.14015 0.39133 0.0
O11 O 0.82033 0.63718 0.69574 0.0
Cd12 Cd 0.8075 0.63043 0.65801 0.0
O13 O 0.85813 0.60718 0.69209 0.0
Cd14 Cd 0.89623 0.58158 0.70331 0.0
O15 O 0.93838 0.56015 0.71038 0.0
C16 C 0.93981 0.53224 0.71241 0.0
O17 O 0.91536 0.51669 0.71073 0.0
C18 C 0.84308 0.62483 0.7037 0.0
C19 C 0.81234 0.68527 0.63796 0.0
O20 O 0.78761 0.67648 0.64573 0.0
O21 O 0.83452 0.66766 0.63916 0.0
O22 O 0.37359 0.31592 0.9467 0.0
Cd23 Cd 0.3783 0.30216 0.90897 0.0
O24 O 0.38489 0.36129 0.93778 0.0
Cd25 Cd 0.39173 0.40896 0.94136 0.0
O26 O 0.4177 0.44889 0.94701 0.0
C27 C 0.43268 0.45926 0.93151 0.0
O28 O 0.43041 0.44664 0.91254 0.0
C29 C 0.37754 0.34271 0.95218 0.0
C30 C 0.32281 0.30812 0.88981 0.0
O31 O 0.33124 0.28335 0.89773 0.0
O32 O 0.34098 0.32985 0.89055 0.0
O33 O 0.67782 0.87258 0.19616 0.0
Cd34 Cd 0.68996 0.8752 0.15806 0.0
O35 O 0.6325 0.88557 0.18811 0.0
Cd36 Cd 0.58529 0.8946 0.19274 0.0
O37 O 0.54612 0.9221 0.19779 0.0
C38 C 0.5314 0.93035 0.18147 0.0
O39 O 0.53953 0.92078 0.16242 0.0
C40 C 0.6515 0.87798 0.2022 0.0
C41 C 0.68656 0.81825 0.1409 0.0
O42 O 0.71108 0.82856 0.14805 0.0
O43 O 0.6638 0.83518 0.14149 0.0
O44 O 0.14956 0.34626 0.80179 0.0
Cd45 Cd 0.14715 0.33904 0.84058 0.0
O46 O 0.11486 0.38019 0.80337 0.0
Cd47 Cd 0.08847 0.41592 0.78941 0.0
O48 O 0.06278 0.45564 0.78232 0.0
C49 C 0.0367 0.45421 0.77474 0.0
O50 O 0.02548 0.42813 0.77024 0.0
C51 C 0.13312 0.36503 0.7924 0.0
C52 C 0.20357 0.32743 0.85674 0.0
O53 O 0.18635 0.30634 0.85101 0.0
O54 O 0.1939 0.35399 0.855 0.0
O55 O 0.65517 0.63914 0.05816 0.0
Cd56 Cd 0.66477 0.6387 0.09673 0.0
O57 O 0.61887 0.60756 0.06221 0.0
Cd58 Cd 0.58383 0.57755 0.05159 0.0
O59 O 0.54667 0.54709 0.04841 0.0
C60 C 0.5503 0.52067 0.04189 0.0
O61 O 0.57698 0.51197 0.03634 0.0
C62 C 0.63425 0.62404 0.05004 0.0
C63 C 0.67342 0.69642 0.11143 0.0
O64 O 0.6953 0.68034 0.10543 0.0
O65 O 0.64749 0.68498 0.11068 0.0
O66 O 0.367 0.17252 0.30224 0.0
Cd67 Cd 0.36839 0.18191 0.34081 0.0
O68 O 0.39925 0.13666 0.30566 0.0
Cd69 Cd 0.42564 0.09886 0.29496 0.0
O70 O 0.45409 0.06066 0.28924 0.0
C71 C 0.48125 0.06203 0.29443 0.0
O72 O 0.49147 0.08676 0.30271 0.0
C73 C 0.38217 0.1519 0.29377 0.0
C74 C 0.31101 0.1785 0.35711 0.0
O75 O 0.32177 0.20315 0.35068 0.0
O76 O 0.32767 0.15556 0.35614 0.0
O77 O 0.83021 0.85828 0.54781 0.0
Cd78 Cd 0.82301 0.86172 0.58652 0.0
O79 O 0.86831 0.88804 0.55014 0.0
Cd80 Cd 0.9041 0.91582 0.53776 0.0
O81 O 0.94182 0.94478 0.53178 0.0
C82 C 0.9375 0.97227 0.5289 0.0
O83 O 0.91017 0.98222 0.52865 0.0
C84 C 0.85153 0.87168 0.53881 0.0
C85 C 0.82066 0.80479 0.60352 0.0
O86 O 0.79699 0.81842 0.59792 0.0
O87 O 0.84534 0.81842 0.60146 0.0
O88 O 0.63393 0.65892 0.94977 0.0
Cd89 Cd 0.63127 0.66878 0.9113 0.0
O90 O 0.59612 0.62883 0.94739 0.0
Cd91 Cd 0.56486 0.59507 0.95816 0.0
O92 O 0.53082 0.56085 0.9591 0.0
C93 C 0.51903 0.55406 0.94122 0.0
O94 O 0.52793 0.56792 0.92384 0.0
C95 C 0.616 0.6412 0.95873 0.0
C96 C 0.6883 0.67116 0.89429 0.0
O97 O 0.67515 0.69467 0.9008 0.0
O98 O 0.6742 0.64664 0.89554 0.0
O99 O 0.35702 0.15233 0.19109 0.0
Cd100 Cd 0.35506 0.15129 0.15194 0.0
O101 O 0.38835 0.11538 0.19121 0.0
Cd102 Cd 0.41645 0.08072 0.20487 0.0
O103 O 0.44536 0.04194 0.20597 0.0
C104 C 0.44456 0.02517 0.18956 0.0
O105 O 0.42626 0.03192 0.1739 0.0
C106 C 0.37325 0.13444 0.20152 0.0
C107 C 0.34455 0.20811 0.13624 0.0
O108 O 0.32313 0.19034 0.14012 0.0
O109 O 0.37095 0.19877 0.13955 0.0
O110 O 0.84943 0.83594 0.43779 0.0
Cd111 Cd 0.8513 0.82898 0.39896 0.0
O112 O 0.88295 0.87094 0.43591 0.0
Cd113 Cd 0.90839 0.90692 0.45041 0.0
O114 O 0.93567 0.94429 0.46039 0.0
C115 C 0.96155 0.93988 0.4677 0.0
O116 O 0.97107 0.91255 0.46969 0.0
C117 C 0.86546 0.8552 0.44702 0.0
C118 C 0.79401 0.82175 0.38318 0.0
O119 O 0.80976 0.79937 0.38859 0.0
O120 O 0.80561 0.8475 0.38497 0.0
O121 O 0.17023 0.36481 0.69209 0.0
Cd122 Cd 0.17809 0.36546 0.65334 0.0
O123 O 0.13213 0.39446 0.68862 0.0
Cd124 Cd 0.09557 0.42218 0.69995 0.0
O125 O 0.054 0.44526 0.70608 0.0
C126 C 0.05325 0.47112 0.71411 0.0
O127 O 0.07825 0.48397 0.71949 0.0
C128 C 0.14873 0.37873 0.70053 0.0
C129 C 0.17522 0.30761 0.63779 0.0
O130 O 0.19994 0.3191 0.64349 0.0
O131 O 0.15198 0.32379 0.63906 0.0
O132 O 0.62168 0.82313 0.29595 0.0
Cd133 Cd 0.61642 0.81004 0.3337 0.0
O134 O 0.61254 0.86904 0.30474 0.0
Cd135 Cd 0.60718 0.91713 0.30295 0.0
O136 O 0.58321 0.95889 0.29992 0.0
C137 C 0.55599 0.95707 0.2949 0.0
O138 O 0.54426 0.93074 0.29223 0.0
C139 C 0.61918 0.85005 0.29037 0.0
C140 C 0.67268 0.81164 0.35209 0.0
O141 O 0.66213 0.78757 0.34434 0.0
O142 O 0.65621 0.83474 0.35162 0.0
O143 O 0.16857 0.12664 0.55571 0.0
Cd144 Cd 0.1733 0.12623 0.59472 0.0
O145 O 0.1226 0.11242 0.55896 0.0
Cd146 Cd 0.07748 0.10022 0.54957 0.0
O147 O 0.03744 0.07585 0.54109 0.0
C148 C 0.03988 0.05002 0.53316 0.0
O149 O 0.06649 0.03916 0.52986 0.0
C150 C 0.14401 0.12022 0.54693 0.0
C151 C 0.17266 0.18446 0.60963 0.0
O152 O 0.19707 0.17135 0.60516 0.0
O153 O 0.14863 0.16974 0.60744 0.0
O154 O 0.85647 0.67332 0.80135 0.0
Cd155 Cd 0.86266 0.68459 0.83942 0.0
O156 O 0.89102 0.63921 0.80286 0.0
Cd157 Cd 0.915 0.60153 0.78926 0.0
O158 O 0.93903 0.5613 0.7807 0.0
C159 C 0.96673 0.56232 0.77734 0.0
O160 O 0.98022 0.58802 0.77846 0.0
C161 C 0.87158 0.65323 0.79219 0.0
C162 C 0.80762 0.67949 0.85925 0.0
O163 O 0.81668 0.70442 0.85204 0.0
O164 O 0.825 0.65719 0.85755 0.0
O165 O 0.31872 0.37417 0.04482 0.0
Cd166 Cd 0.30608 0.37943 0.08269 0.0
O167 O 0.36471 0.38231 0.05398 0.0
Cd168 Cd 0.41278 0.38632 0.05104 0.0
O169 O 0.45334 0.41169 0.0465 0.0
C170 C 0.45044 0.4396 0.04778 0.0
O171 O 0.4241 0.45056 0.05194 0.0
C172 C 0.34575 0.37634 0.03945 0.0
C173 C 0.31889 0.32576 0.10268 0.0
O174 O 0.29303 0.33111 0.09513 0.0
O175 O 0.33839 0.34622 0.1013 0.0
C176 C 0.11898 0.10655 0.51218 0.0
C177 C 0.14059 0.12293 0.52326 0.0
C178 C 0.11462 0.10996 0.49003 0.0
C179 C 0.13275 0.12869 0.47776 0.0
H180 H 0.10554 0.09052 0.52044 0.0
H181 H 0.09648 0.09818 0.48272 0.0
S182 S 0.19358 0.17583 0.49879 0.0
N183 N 0.1804 0.1589 0.52021 0.0
N184 N 0.17366 0.16366 0.47837 0.0
C185 C 0.15489 0.14485 0.48855 0.0
C186 C 0.1587 0.14209 0.51125 0.0
C187 C 0.82889 0.63448 0.74172 0.0
C188 C 0.8513 0.63101 0.72624 0.0
C189 C 0.83573 0.64161 0.76307 0.0
C190 C 0.86521 0.6453 0.7697 0.0
H191 H 0.80587 0.63166 0.73729 0.0
H192 H 0.81782 0.64405 0.77451 0.0
S193 S 0.93171 0.64269 0.73497 0.0
N194 N 0.90393 0.6351 0.7186 0.0
N195 N 0.91682 0.64728 0.75898 0.0
C196 C 0.88782 0.6424 0.75439 0.0
C197 C 0.88085 0.63555 0.73257 0.0
C198 C 0.3472 0.33827 0.98527 0.0
C199 C 0.37086 0.35192 0.97451 0.0
C200 C 0.3392 0.34675 0.00611 0.0
C201 C 0.35456 0.3692 0.0171 0.0
H202 H 0.33446 0.32104 0.97744 0.0
H203 H 0.32097 0.33533 0.01376 0.0
S204 S 0.41829 0.41196 -0.00388 0.0
N205 N 0.41074 0.38784 0.97693 0.0
N206 N 0.3935 0.40617 0.01513 0.0
C207 C 0.37802 0.38337 0.00645 0.0
C208 C 0.38672 0.37413 0.98539 0.0
C209 C 0.65624 0.84884 0.23583 0.0
C210 C 0.64316 0.87266 0.22486 0.0
C211 C 0.64808 0.84188 0.2569 0.0
C212 C 0.6265 0.85844 0.26795 0.0
H213 H 0.67265 0.83509 0.22796 0.0
H214 H 0.65896 0.82337 0.26464 0.0
S215 S 0.58603 0.92351 0.2465 0.0
N216 N 0.60922 0.91426 0.22714 0.0
N217 N 0.5913 0.89906 0.26582 0.0
C218 C 0.61312 0.88227 0.25713 0.0
C219 C 0.6221 0.8899 0.23581 0.0
C220 C 0.16459 0.37204 0.76006 0.0
C221 C 0.13622 0.36974 0.76911 0.0
C222 C 0.1683 0.37552 0.73786 0.0
C223 C 0.14379 0.37659 0.72394 0.0
H224 H 0.18405 0.37123 0.77022 0.0
H225 H 0.19057 0.37731 0.73154 0.0
S226 S 0.0651 0.36731 0.7395 0.0
N227 N 0.08336 0.36654 0.7625 0.0
N228 N 0.09035 0.37192 0.72064 0.0
C229 C 0.11532 0.37352 0.73276 0.0
C230 C 0.11153 0.37039 0.75542 0.0
C231 C 0.64814 0.63185 0.99043 0.0
C232 C 0.6195 0.63455 0.98181 0.0
C233 C 0.65257 0.62759 0.01248 0.0
C234 C 0.62852 0.62587 0.02672 0.0
H235 H 0.66734 0.63328 0.98007 0.0
H236 H 0.67504 0.62593 0.01846 0.0
S237 S 0.54928 0.63479 0.01256 0.0
N238 N 0.56682 0.63713 0.98935 0.0
N239 N 0.57514 0.62923 0.03089 0.0
C240 C 0.59974 0.62868 0.01836 0.0
C241 C 0.59523 0.633 -0.00415 0.0
C242 C 0.40154 0.13182 0.2361 0.0
C243 C 0.37466 0.13655 0.22521 0.0
C244 C 0.4038 0.1364 0.25836 0.0
C245 C 0.37922 0.14566 0.27051 0.0
H246 H 0.42129 0.12581 0.22727 0.0
H247 H 0.42524 0.13381 0.26589 0.0
S248 S 0.30345 0.15952 0.24978 0.0
N249 N 0.32275 0.15004 0.22832 0.0
N250 N 0.32691 0.15834 0.27011 0.0
C251 C 0.35212 0.14996 0.25984 0.0
C252 C 0.34986 0.14545 0.23722 0.0
C253 C 0.8345 0.86247 0.47962 0.0
C254 C 0.86271 0.85997 0.47034 0.0
C255 C 0.83118 0.86671 0.50179 0.0
C256 C 0.85597 0.8684 0.51543 0.0
H257 H 0.81486 0.86137 0.46964 0.0
H258 H 0.80904 0.86873 0.5083 0.0
S259 S 0.93437 0.85855 0.49928 0.0
N260 N 0.91569 0.85692 0.47648 0.0
N261 N 0.90946 0.86391 0.5183 0.0
C262 C 0.88427 0.865 0.50639 0.0
C263 C 0.88764 0.86102 0.48377 0.0
C264 C 0.01275 0.95989 0.47191 0.0
C265 C 0.98207 0.96507 0.47104 0.0
C266 C 0.03297 0.98335 0.47216 0.0
C267 C 0.02334 0.01295 0.47184 0.0
H268 H 0.02139 0.93753 0.47152 0.0
H269 H 0.05638 0.97816 0.47209 0.0
S270 S 0.94518 0.03849 0.47236 0.0
N271 N 0.94291 0.00205 0.47185 0.0
N272 N 0.98088 0.04616 0.47258 0.0
C273 C 0.99267 0.01849 0.47233 0.0
C274 C 0.97205 0.99455 0.47183 0.0
C275 C 0.99799 0.47165 0.71232 0.0
C276 C 0.02462 0.48713 0.71567 0.0
C277 C 0.97071 0.48634 0.71189 0.0
C278 C 0.96884 0.51717 0.7147 0.0
H279 H 0.99816 0.44796 0.70969 0.0
H280 H 0.95099 0.47338 0.70886 0.0
S281 S 0.03175 0.56786 0.72562 0.0
N282 N 0.04721 0.53494 0.72307 0.0
N283 N 0.99592 0.56256 0.72222 0.0
C284 C 0.99518 0.53286 0.71877 0.0
C285 C 0.02303 0.51784 0.71931 0.0
C286 C 0.48606 0.52162 0.91919 0.0
C287 C 0.49625 0.53048 0.9396 0.0
C288 C 0.46527 0.49891 0.91684 0.0
C289 C 0.45355 0.48418 0.9348 0.0
H290 H 0.49441 0.53205 0.90477 0.0
H291 H 0.45844 0.49282 0.90074 0.0
S292 S 0.47247 0.49902 0.99192 0.0
N293 N 0.49274 0.52279 0.97824 0.0
N294 N 0.4535 0.4802 0.97381 0.0
C295 C 0.46317 0.49303 0.95537 0.0
C296 C 0.48456 0.5161 0.95777 0.0
C297 C 0.50442 0.96885 0.20294 0.0
C298 C 0.50745 0.95268 0.18369 0.0
C299 C 0.48373 0.99187 0.20481 0.0
C300 C 0.46501 -0.00049 0.18758 0.0
H301 H 0.51867 0.96428 0.21656 0.0
H302 H 0.48279 0.00406 0.2198 0.0
S303 S 0.46247 0.96243 0.13422 0.0
N304 N 0.48881 0.94486 0.14743 0.0
N305 N 0.44986 0.98785 0.15095 0.0
C306 C 0.4671 0.9828 0.16849 0.0
C307 C 0.48831 0.95949 0.16655 0.0
C308 C 0.01502 0.5353 0.77703 0.0
C309 C 0.98409 0.53469 0.77452 0.0
C310 C 0.03185 0.50929 0.77638 0.0
C311 C 0.0185 0.48151 0.7731 0.0
H312 H 0.02638 0.55597 0.7801 0.0
H313 H 0.05551 0.511 0.77888 0.0
S314 S 0.93849 0.46807 0.76348 0.0
N315 N 0.94095 0.50417 0.76708 0.0
N316 N 0.97256 0.45525 0.76578 0.0
C317 C 0.98772 0.48068 0.7696 0.0
C318 C 0.97053 0.50723 0.77038 0.0
C319 C 0.4735 0.48949 0.05157 0.0
C320 C 0.47613 0.45969 0.04527 0.0
C321 C 0.49741 0.50901 0.05004 0.0
C322 C 0.52504 0.49964 0.04208 0.0
H323 H 0.45288 0.49785 0.05806 0.0
H324 H 0.49419 0.53158 0.05543 0.0
S325 S 0.54292 0.42434 0.0218 0.0
N326 N 0.50812 0.42206 0.02965 0.0
N327 N 0.55314 0.45875 0.02671 0.0
C328 C 0.52781 0.47006 0.03517 0.0
C329 C 0.50338 0.4501 0.03681 0.0
C330 C 0.529 0.03601 0.30217 0.0
C331 C 0.50063 0.03556 0.29278 0.0
C332 C 0.54703 0.01077 0.30229 0.0
C333 C 0.53741 0.98401 0.2931 0.0
H334 H 0.5372 0.05583 0.30995 0.0
H335 H 0.56838 0.0121 0.31018 0.0
S336 S 0.46644 0.97187 0.26427 0.0
N337 N 0.46478 0.00659 0.27246 0.0
N338 N 0.49865 0.9592 0.27276 0.0
C339 C 0.50959 0.98351 0.28291 0.0
C340 C 0.49122 0.00925 0.28272 0.0
C341 C 0.01668 0.00034 0.52782 0.0
C342 C 0.01338 0.03117 0.52992 0.0
C343 C 0.99203 0.9816 0.52691 0.0
C344 C 0.96302 0.99292 0.52791 0.0
H345 H 0.0385 0.99039 0.52747 0.0
H346 H 0.99585 0.95799 0.52577 0.0
S347 S 0.94229 0.07238 0.53103 0.0
N348 N 0.97881 0.07241 0.53123 0.0
N349 N 0.93247 0.03728 0.52953 0.0
C350 C 0.95939 0.02384 0.52902 0.0
C351 C 0.98454 0.04292 0.53003 0.0
C352 C 0.26834 0.1484 0.37035 0.0
C353 C 0.28012 0.17627 0.36509 0.0
C354 C 0.23919 0.14539 0.37765 0.0
C355 C 0.22055 0.17013 0.38011 0.0
H356 H 0.28169 0.12859 0.36877 0.0
H357 H 0.23133 0.12341 0.38152 0.0
S358 S 0.24043 0.24818 0.36841 0.0
N359 N 0.27068 0.22921 0.36274 0.0
N360 N 0.21595 0.22356 0.37653 0.0
C361 C 0.23198 0.19819 0.37489 0.0
C362 C 0.2617 0.20125 0.36737 0.0
C363 C 0.78984 0.73286 0.62553 0.0
C364 C 0.81523 0.71526 0.62851 0.0
C365 C 0.79185 0.76164 0.61737 0.0
C366 C 0.81936 0.77416 0.612 0.0
H367 H 0.76813 0.72441 0.62957 0.0
H368 H 0.77162 0.77424 0.61545 0.0
S369 S 0.89262 0.73727 0.6164 0.0
N370 N 0.86883 0.71237 0.62512 0.0
N371 N 0.87261 0.76649 0.6099 0.0
C372 C 0.84496 0.75678 0.61477 0.0
C373 C 0.84289 0.72735 0.62296 0.0
C374 C 0.28233 0.34059 0.87582 0.0
C375 C 0.29263 0.31201 0.88079 0.0
C376 C 0.25357 0.34526 0.86812 0.0
C377 C 0.2339 0.32154 0.86491 0.0
H378 H 0.29646 0.35968 0.87812 0.0
H379 H 0.24678 0.36774 0.86465 0.0
S380 S 0.25008 0.24217 0.87499 0.0
N381 N 0.28091 0.25947 0.88164 0.0
N382 N 0.22693 0.26823 0.86706 0.0
C383 C 0.24397 0.29276 0.86958 0.0
C384 C 0.27327 0.28801 0.87754 0.0
C385 C 0.65608 0.77507 0.12899 0.0
C386 C 0.68418 0.78739 0.13287 0.0
C387 C 0.65291 0.7457 0.12216 0.0
C388 C 0.6777 0.72741 0.11875 0.0
H389 H 0.63623 0.78809 0.13148 0.0
H390 H 0.63075 0.73734 0.11949 0.0
S391 S 0.75635 0.74904 0.12617 0.0
N392 N 0.7374 0.77904 0.13253 0.0
N393 N 0.73146 0.72391 0.11957 0.0
C394 C 0.706 0.73949 0.12236 0.0
C395 C 0.70922 0.76942 0.12945 0.0
C396 C 0.76056 0.70204 0.87277 0.0
C397 C 0.77764 0.67656 0.86875 0.0
C398 C 0.73184 0.70003 0.88111 0.0
C399 C 0.71887 0.67245 0.88563 0.0
H400 H 0.76937 0.72382 0.86942 0.0
H401 H 0.71965 0.72034 0.88384 0.0
S402 S 0.75429 0.59891 0.8783 0.0
N403 N 0.77953 0.62277 0.87021 0.0
N404 N 0.72556 0.619 0.88577 0.0
C405 C 0.73573 0.64675 0.88181 0.0
C406 C 0.76509 0.6488 0.87343 0.0
C407 C 0.30362 0.27517 0.11452 0.0
C408 C 0.32609 0.29642 0.11204 0.0
C409 C 0.30982 0.24685 0.12247 0.0
C410 C 0.33878 0.23848 0.12817 0.0
H411 H 0.28097 0.28031 0.11019 0.0
H412 H 0.29169 0.23134 0.12394 0.0
S413 S 0.40565 0.28604 0.12519 0.0
N414 N 0.37854 0.30725 0.1163 0.0
N415 N 0.39019 0.25404 0.13116 0.0
C416 C 0.36148 0.25959 0.12597 0.0
C417 C 0.35514 0.28852 0.11795 0.0
C418 C 0.74515 0.84336 0.37266 0.0
C419 C 0.76314 0.81821 0.37541 0.0
C420 C 0.71587 0.8409 0.36548 0.0
C421 C 0.70335 0.8132 0.36058 0.0
H422 H 0.75366 0.86525 0.37613 0.0
H423 H 0.7031 0.86102 0.36353 0.0
S424 S 0.74092 0.74034 0.36521 0.0
N425 N 0.76616 0.76455 0.37284 0.0
N426 N 0.7112 0.75994 0.35923 0.0
C427 C 0.72102 0.78779 0.36333 0.0
C428 C 0.75086 0.79029 0.37077 0.0
C429 C 0.19994 0.26003 0.62764 0.0
C430 C 0.17369 0.27641 0.63033 0.0
C431 C 0.19932 0.23041 0.62099 0.0
C432 C 0.17241 0.21581 0.61685 0.0
H433 H 0.22127 0.27011 0.63069 0.0
H434 H 0.2202 0.21888 0.61917 0.0
S435 S 0.09727 0.2487 0.62137 0.0
N436 N 0.11988 0.27578 0.62823 0.0
N437 N 0.11872 0.22012 0.6158 0.0
C438 C 0.14593 0.2319 0.61945 0.0
C439 C 0.14657 0.26216 0.62615 0.0
loop_
_geom_bond_atom_site_label_1
_geom_bond_atom_site_label_2
_geom_bond_distance
_geom_bond_site_symmetry_2
_ccdc_geom_bond_type
O0 Cd1 2.300 . S
O0 C7 1.275 . S
Cd1 O0 2.300 . S
Cd1 O9 2.381 . S
Cd1 O10 2.378 . S
O2 Cd3 2.385 . S
O2 C7 1.255 . S
Cd3 O2 2.385 . S
Cd3 O4 2.317 . S
O4 Cd3 2.317 . S
O4 C5 1.232 . S
C5 O4 1.232 . S
C5 O6 1.218 . S
O6 C5 1.218 . S
C7 O0 1.275 . S
C7 O2 1.255 . S
C8 O9 1.258 . S
C8 O10 1.256 . S
O9 Cd1 2.381 . S
O9 C8 1.258 . S
O10 Cd1 2.378 . S
O10 C8 1.256 . S
O11 Cd12 2.300 . S
O11 C18 1.275 . S
Cd12 O11 2.300 . S
Cd12 O20 2.381 . S
Cd12 O21 2.378 . S
O13 Cd14 2.385 . S
O13 C18 1.255 . S
Cd14 O13 2.385 . S
Cd14 O15 2.317 . S
O15 Cd14 2.317 . S
O15 C16 1.232 . S
C16 O15 1.232 . S
C16 O17 1.218 . S
O17 C16 1.218 . S
C18 O11 1.275 . S
C18 O13 1.255 . S
C19 O20 1.258 . S
C19 O21 1.256 . S
O20 Cd12 2.381 . S
O20 C19 1.258 . S
O21 Cd12 2.378 . S
O21 C19 1.256 . S
O22 Cd23 2.300 . S
O22 C29 1.275 . S
Cd23 O22 2.300 . S
Cd23 O31 2.381 . S
Cd23 O32 2.378 . S
O24 Cd25 2.385 . S
O24 C29 1.255 . S
Cd25 O24 2.385 . S
Cd25 O26 2.317 . S
O26 Cd25 2.317 . S
O26 C27 1.232 . S
C27 O26 1.232 . S
C27 O28 1.218 . S
O28 C27 1.218 . S
C29 O22 1.275 . S
C29 O24 1.255 . S
C30 O31 1.258 . S
C30 O32 1.256 . S
O31 Cd23 2.381 . S
O31 C30 1.258 . S
O32 Cd23 2.378 . S
O32 C30 1.256 . S
O33 Cd34 2.300 . S
O33 C40 1.275 . S
Cd34 O33 2.300 . S
Cd34 O42 2.381 . S
Cd34 O43 2.378 . S
O35 Cd36 2.385 . S
O35 C40 1.255 . S
Cd36 O35 2.385 . S
Cd36 O37 2.317 . S
O37 Cd36 2.317 . S
O37 C38 1.232 . S
C38 O37 1.232 . S
C38 O39 1.218 . S
O39 C38 1.218 . S
C40 O33 1.275 . S
C40 O35 1.255 . S
C41 O42 1.258 . S
C41 O43 1.256 . S
O42 Cd34 2.381 . S
O42 C41 1.258 . S
O43 Cd34 2.378 . S
O43 C41 1.256 . S
O44 Cd45 2.300 . S
O44 C51 1.275 . S
Cd45 O44 2.300 . S
Cd45 O53 2.381 . S
Cd45 O54 2.378 . S
O46 Cd47 2.385 . S
O46 C51 1.255 . S
Cd47 O46 2.385 . S
Cd47 O48 2.317 . S
O48 Cd47 2.317 . S
O48 C49 1.232 . S
C49 O48 1.232 . S
C49 O50 1.218 . S
O50 C49 1.218 . S
C51 O44 1.275 . S
C51 O46 1.255 . S
C52 O53 1.258 . S
C52 O54 1.256 . S
O53 Cd45 2.381 . S
O53 C52 1.258 . S
O54 Cd45 2.378 . S
O54 C52 1.256 . S
O55 Cd56 2.300 . S
O55 C62 1.275 . S
Cd56 O55 2.300 . S
Cd56 O64 2.381 . S
Cd56 O65 2.378 . S
O57 Cd58 2.385 . S
O57 C62 1.255 . S
Cd58 O57 2.385 . S
Cd58 O59 2.317 . S
O59 Cd58 2.317 . S
O59 C60 1.232 . S
C60 O59 1.232 . S
C60 O61 1.218 . S
O61 C60 1.218 . S
C62 O55 1.275 . S
C62 O57 1.255 . S
C63 O64 1.258 . S
C63 O65 1.256 . S
O64 Cd56 2.381 . S
O64 C63 1.258 . S
O65 Cd56 2.378 . S
O65 C63 1.256 . S
O66 Cd67 2.300 . S
O66 C73 1.275 . S
Cd67 O66 2.300 . S
Cd67 O75 2.381 . S
Cd67 O76 2.378 . S
O68 Cd69 2.385 . S
O68 C73 1.255 . S
Cd69 O68 2.385 . S
Cd69 O70 2.317 . S
O70 Cd69 2.317 . S
O70 C71 1.232 . S
C71 O70 1.232 . S
C71 O72 1.218 . S
O72 C71 1.218 . S
C73 O66 1.275 . S
C73 O68 1.255 . S
C74 O75 1.258 . S
C74 O76 1.256 . S
O75 Cd67 2.381 . S
O75 C74 1.258 . S
O76 Cd67 2.378 . S
O76 C74 1.256 . S
O77 Cd78 2.300 . S
O77 C84 1.275 . S
Cd78 O77 2.300 . S
Cd78 O86 2.381 . S
Cd78 O87 2.378 . S
O79 Cd80 2.385 . S
O79 C84 1.255 . S
Cd80 O79 2.385 . S
Cd80 O81 2.317 . S
O81 Cd80 2.317 . S
O81 C82 1.232 . S
C82 O81 1.232 . S
C82 O83 1.218 . S
O83 C82 1.218 . S
C84 O77 1.275 . S
C84 O79 1.255 . S
C85 O86 1.258 . S
C85 O87 1.256 . S
O86 Cd78 2.381 . S
O86 C85 1.258 . S
O87 Cd78 2.378 . S
O87 C85 1.256 . S
O88 Cd89 2.300 . S
O88 C95 1.275 . S
Cd89 O88 2.300 . S
Cd89 O97 2.381 . S
Cd89 O98 2.378 . S
O90 Cd91 2.385 . S
O90 C95 1.255 . S
Cd91 O90 2.385 . S
Cd91 O92 2.317 . S
O92 Cd91 2.317 . S
O92 C93 1.232 . S
C93 O92 1.232 . S
C93 O94 1.218 . S
O94 C93 1.218 . S
C95 O88 1.275 . S
C95 O90 1.255 . S
C96 O97 1.258 . S
C96 O98 1.256 . S
O97 Cd89 2.381 . S
O97 C96 1.258 . S
O98 Cd89 2.378 . S
O98 C96 1.256 . S
O99 Cd100 2.300 . S
O99 C106 1.275 . S
Cd100 O99 2.300 . S
Cd100 O108 2.381 . S
Cd100 O109 2.378 . S
O101 Cd102 2.385 . S
O101 C106 1.255 . S
Cd102 O101 2.385 . S
Cd102 O103 2.317 . S
O103 Cd102 2.317 . S
O103 C104 1.232 . S
C104 O103 1.232 . S
C104 O105 1.218 . S
O105 C104 1.218 . S
C106 O99 1.275 . S
C106 O101 1.255 . S
C107 O108 1.258 . S
C107 O109 1.256 . S
O108 Cd100 2.381 . S
O108 C107 1.258 . S
O109 Cd100 2.378 . S
O109 C107 1.256 . S
O110 Cd111 2.300 . S
O110 C117 1.275 . S
Cd111 O110 2.300 . S
Cd111 O119 2.381 . S
Cd111 O120 2.378 . S
O112 Cd113 2.385 . S
O112 C117 1.255 . S
Cd113 O112 2.385 . S
Cd113 O114 2.317 . S
O114 Cd113 2.317 . S
O114 C115 1.232 . S
C115 O114 1.232 . S
C115 O116 1.218 . S
O116 C115 1.218 . S
C117 O110 1.275 . S
C117 O112 1.255 . S
C118 O119 1.258 . S
C118 O120 1.256 . S
O119 Cd111 2.381 . S
O119 C118 1.258 . S
O120 Cd111 2.378 . S
O120 C118 1.256 . S
O121 Cd122 2.300 . S
O121 C128 1.275 . S
Cd122 O121 2.300 . S
Cd122 O130 2.381 . S
Cd122 O131 2.378 . S
O123 Cd124 2.385 . S
O123 C128 1.255 . S
Cd124 O123 2.385 . S
Cd124 O125 2.317 . S
O125 Cd124 2.317 . S
O125 C126 1.232 . S
C126 O125 1.232 . S
C126 O127 1.218 . S
O127 C126 1.218 . S
C128 O121 1.275 . S
C128 O123 1.255 . S
C129 O130 1.258 . S
C129 O131 1.256 . S
O130 Cd122 2.381 . S
O130 C129 1.258 . S
O131 Cd122 2.378 . S
O131 C129 1.256 . S
O132 Cd133 2.300 . S
O132 C139 1.275 . S
Cd133 O132 2.300 . S
Cd133 O141 2.381 . S
Cd133 O142 2.378 . S
O134 Cd135 2.385 . S
O134 C139 1.255 . S
Cd135 O134 2.385 . S
Cd135 O136 2.317 . S
O136 Cd135 2.317 . S
O136 C137 1.232 . S
C137 O136 1.232 . S
C137 O138 1.218 . S
O138 C137 1.218 . S
C139 O132 1.275 . S
C139 O134 1.255 . S
C140 O141 1.258 . S
C140 O142 1.256 . S
O141 Cd133 2.381 . S
O141 C140 1.258 . S
O142 Cd133 2.378 . S
O142 C140 1.256 . S
O143 Cd144 2.300 . S
O143 C150 1.275 . S
Cd144 O143 2.300 . S
Cd144 O152 2.381 . S
Cd144 O153 2.378 . S
O145 Cd146 2.385 . S
O145 C150 1.255 . S
Cd146 O145 2.385 . S
Cd146 O147 2.317 . S
O147 Cd146 2.317 . S
O147 C148 1.232 . S
C148 O147 1.232 . S
C148 O149 1.218 . S
O149 C148 1.218 . S
C150 O143 1.275 . S
C150 O145 1.255 . S
C151 O152 1.258 . S
C151 O153 1.256 . S
O152 Cd144 2.381 . S
O152 C151 1.258 . S
O153 Cd144 2.378 . S
O153 C151 1.256 . S
O154 Cd155 2.300 . S
O154 C161 1.275 . S
Cd155 O154 2.300 . S
Cd155 O163 2.381 . S
Cd155 O164 2.378 . S
O156 Cd157 2.385 . S
O156 C161 1.255 . S
Cd157 O156 2.385 . S
Cd157 O158 2.317 . S
O158 Cd157 2.317 . S
O158 C159 1.232 . S
C159 O158 1.232 . S
C159 O160 1.218 . S
O160 C159 1.218 . S
C161 O154 1.275 . S
C161 O156 1.255 . S
C162 O163 1.258 . S
C162 O164 1.256 . S
O163 Cd155 2.381 . S
O163 C162 1.258 . S
O164 Cd155 2.378 . S
O164 C162 1.256 . S
O165 Cd166 2.300 . S
O165 C172 1.275 . S
Cd166 O165 2.300 . S
Cd166 O174 2.381 . S
Cd166 O175 2.378 . S
O167 Cd168 2.385 . S
O167 C172 1.255 . S
Cd168 O167 2.385 . S
Cd168 O169 2.317 . S
O169 Cd168 2.317 . S
O169 C170 1.232 . S
C170 O169 1.232 . S
C170 O171 1.218 . S
O171 C170 1.218 . S
C172 O165 1.275 . S
C172 O167 1.255 . S
C173 O174 1.258 . S
C173 O175 1.256 . S
O174 Cd166 2.381 . S
O174 C173 1.258 . S
O175 Cd166 2.378 . S
O175 C173 1.256 . S
C176 C177 1.369 . S
C176 C178 1.419 . S
C176 H180 0.930 . S
C177 C176 1.369 . S
C177 C186 1.429 . S
C178 C176 1.419 . S
C178 C179 1.363 . S
C178 H181 0.929 . S
C179 C178 1.363 . S
C179 C185 1.428 . S
H180 C176 0.930 . S
H181 C178 0.929 . S
S182 N183 1.613 . S
S182 N184 1.610 . S
N183 S182 1.613 . S
N183 C186 1.350 . S
N184 S182 1.610 . S
N184 C185 1.351 . S
C185 C179 1.428 . S
C185 N184 1.351 . S
C185 C186 1.434 . S
C186 C177 1.429 . S
C186 N183 1.350 . S
C186 C185 1.434 . S
C187 C188 1.369 . S
C187 C189 1.419 . S
C187 H191 0.930 . S
C188 C187 1.369 . S
C188 C197 1.429 . S
C189 C187 1.419 . S
C189 C190 1.363 . S
C189 H192 0.929 . S
C190 C189 1.363 . S
C190 C196 1.428 . S
H191 C187 0.930 . S
H192 C189 0.929 . S
S193 N194 1.613 . S
S193 N195 1.610 . S
N194 S193 1.613 . S
N194 C197 1.350 . S
N195 S193 1.610 . S
N195 C196 1.351 . S
C196 C190 1.428 . S
C196 N195 1.351 . S
C196 C197 1.434 . S
C197 C188 1.429 . S
C197 N194 1.350 . S
C197 C196 1.434 . S
C198 C199 1.369 . S
C198 C200 1.419 1_556 S
C198 H202 0.930 . S
C199 C198 1.369 . S
C199 C208 1.429 . S
C200 C198 1.419 1_554 S
C200 C201 1.363 . S
C200 H203 0.929 . S
C201 C200 1.363 . S
C201 C207 1.428 . S
H202 C198 0.930 . S
H203 C200 0.929 . S
S204 N205 1.613 . S
S204 N206 1.610 1_556 S
N205 S204 1.613 . S
N205 C208 1.350 . S
N206 S204 1.610 1_554 S
N206 C207 1.351 . S
C207 C201 1.428 . S
C207 N206 1.351 . S
C207 C208 1.434 1_554 S
C208 C199 1.429 . S
C208 N205 1.350 . S
C208 C207 1.434 1_556 S
C209 C210 1.369 . S
C209 C211 1.419 . S
C209 H213 0.930 . S
C210 C209 1.369 . S
C210 C219 1.429 . S
C211 C209 1.419 . S
C211 C212 1.363 . S
C211 H214 0.929 . S
C212 C211 1.363 . S
C212 C218 1.428 . S
H213 C209 0.930 . S
H214 C211 0.929 . S
S215 N216 1.613 . S
S215 N217 1.610 . S
N216 S215 1.613 . S
N216 C219 1.350 . S
N217 S215 1.610 . S
N217 C218 1.351 . S
C218 C212 1.428 . S
C218 N217 1.351 . S
C218 C219 1.434 . S
C219 C210 1.429 . S
C219 N216 1.350 . S
C219 C218 1.434 . S
C220 C221 1.369 . S
C220 C222 1.419 . S
C220 H224 0.930 . S
C221 C220 1.369 . S
C221 C230 1.429 . S
C222 C220 1.419 . S
C222 C223 1.363 . S
C222 H225 0.929 . S
C223 C222 1.363 . S
C223 C229 1.428 . S
H224 C220 0.930 . S
H225 C222 0.929 . S
S226 N227 1.613 . S
S226 N228 1.610 . S
N227 S226 1.613 . S
N227 C230 1.350 . S
N228 S226 1.610 . S
N228 C229 1.351 . S
C229 C223 1.428 . S
C229 N228 1.351 . S
C229 C230 1.434 . S
C230 C221 1.429 . S
C230 N227 1.350 . S
C230 C229 1.434 . S
C231 C232 1.369 . S
C231 C233 1.419 1_556 S
C231 H235 0.930 . S
C232 C231 1.369 . S
C232 C241 1.429 . S
C233 C231 1.419 1_554 S
C233 C234 1.363 . S
C233 H236 0.929 . S
C234 C233 1.363 . S
C234 C240 1.428 . S
H235 C231 0.930 . S
H236 C233 0.929 . S
S237 N238 1.613 1_554 S
S237 N239 1.610 . S
N238 S237 1.613 1_556 S
N238 C241 1.350 . S
N239 S237 1.610 . S
N239 C240 1.351 . S
C240 C234 1.428 . S
C240 N239 1.351 . S
C240 C241 1.434 1_554 S
C241 C232 1.429 . S
C241 N238 1.350 . S
C241 C240 1.434 1_556 S
C242 C243 1.369 . S
C242 C244 1.419 . S
C242 H246 0.930 . S
C243 C242 1.369 . S
C243 C252 1.429 . S
C244 C242 1.419 . S
C244 C245 1.363 . S
C244 H247 0.929 . S
C245 C244 1.363 . S
C245 C251 1.428 . S
H246 C242 0.930 . S
H247 C244 0.929 . S
S248 N249 1.613 . S
S248 N250 1.610 . S
N249 S248 1.613 . S
N249 C252 1.350 . S
N250 S248 1.610 . S
N250 C251 1.351 . S
C251 C245 1.428 . S
C251 N250 1.351 . S
C251 C252 1.434 . S
C252 C243 1.429 . S
C252 N249 1.350 . S
C252 C251 1.434 . S
C253 C254 1.369 . S
C253 C255 1.419 . S
C253 H257 0.930 . S
C254 C253 1.369 . S
C254 C263 1.429 . S
C255 C253 1.419 . S
C255 C256 1.363 . S
C255 H258 0.929 . S
C256 C255 1.363 . S
C256 C262 1.428 . S
H257 C253 0.930 . S
H258 C255 0.929 . S
S259 N260 1.613 . S
S259 N261 1.610 . S
N260 S259 1.613 . S
N260 C263 1.350 . S
N261 S259 1.610 . S
N261 C262 1.351 . S
C262 C256 1.428 . S
C262 N261 1.351 . S
C262 C263 1.434 . S
C263 C254 1.429 . S
C263 N260 1.350 . S
C263 C262 1.434 . S
C264 C265 1.369 1_455 S
C264 C266 1.419 1_565 S
C264 H268 0.930 . S
C265 C264 1.369 1_655 S
C265 C274 1.429 . S
C266 C264 1.419 1_545 S
C266 C267 1.363 . S
C266 H269 0.929 . S
C267 C266 1.363 . S
C267 C273 1.428 1_455 S
H268 C264 0.930 . S
H269 C266 0.929 . S
S270 N271 1.621 . S
S270 N272 1.610 . S
N271 S270 1.621 . S
N271 C274 1.349 1_545 S
N272 S270 1.610 . S
N272 C273 1.351 . S
C273 C267 1.428 1_655 S
C273 N272 1.351 . S
C273 C274 1.434 1_545 S
C274 C265 1.429 . S
C274 N271 1.349 1_565 S
C274 C273 1.434 1_565 S
C275 C276 1.369 . S
C275 C277 1.419 1_455 S
C275 H279 0.931 . S
C276 C275 1.369 . S
C276 C285 1.429 . S
C277 C275 1.419 1_655 S
C277 C278 1.363 . S
C277 H280 0.929 . S
C278 C277 1.363 . S
C278 C284 1.438 . S
H279 C275 0.931 . S
H280 C277 0.929 . S
S281 N282 1.613 . S
S281 N283 1.610 . S
N282 S281 1.613 . S
N282 C285 1.350 . S
N283 S281 1.610 . S
N283 C284 1.350 1_455 S
C284 C278 1.438 . S
C284 N283 1.350 1_655 S
C284 C285 1.424 1_655 S
C285 C276 1.429 . S
C285 N282 1.350 . S
C285 C284 1.424 1_455 S
C286 C287 1.369 . S
C286 C288 1.419 . S
C286 H290 0.930 . S
C287 C286 1.369 . S
C287 C296 1.429 . S
C288 C286 1.419 . S
C288 C289 1.363 . S
C288 H291 0.929 . S
C289 C288 1.363 . S
C289 C295 1.428 . S
H290 C286 0.930 . S
H291 C288 0.929 . S
S292 N293 1.613 . S
S292 N294 1.610 . S
N293 S292 1.613 . S
N293 C296 1.350 . S
N294 S292 1.610 . S
N294 C295 1.351 . S
C295 C289 1.428 . S
C295 N294 1.351 . S
C295 C296 1.434 . S
C296 C287 1.429 . S
C296 N293 1.350 . S
C296 C295 1.434 . S
C297 C298 1.369 . S
C297 C299 1.419 1_565 S
C297 H301 0.930 . S
C298 C297 1.369 . S
C298 C307 1.429 . S
C299 C297 1.419 1_545 S
C299 C300 1.363 . S
C299 H302 0.929 . S
C300 C299 1.363 . S
C300 C306 1.428 . S
H301 C297 0.930 . S
H302 C299 0.929 . S
S303 N304 1.613 . S
S303 N305 1.610 1_565 S
N304 S303 1.613 . S
N304 C307 1.350 . S
N305 S303 1.610 1_545 S
N305 C306 1.351 . S
C306 C300 1.428 . S
C306 N305 1.351 . S
C306 C307 1.434 1_545 S
C307 C298 1.429 . S
C307 N304 1.350 . S
C307 C306 1.434 1_565 S
C308 C309 1.369 1_455 S
C308 C310 1.419 . S
C308 H312 0.930 . S
C309 C308 1.369 1_655 S
C309 C318 1.429 . S
C310 C308 1.419 . S
C310 C311 1.363 . S
C310 H313 0.929 . S
C311 C310 1.363 . S
C311 C317 1.428 1_455 S
H312 C308 0.930 . S
H313 C310 0.929 . S
S314 N315 1.613 . S
S314 N316 1.610 . S
N315 S314 1.613 . S
N315 C318 1.350 . S
N316 S314 1.610 . S
N316 C317 1.351 . S
C317 C311 1.428 1_655 S
C317 N316 1.351 . S
C317 C318 1.434 . S
C318 C309 1.429 . S
C318 N315 1.350 . S
C318 C317 1.434 . S
C319 C320 1.369 . S
C319 C321 1.419 . S
C319 H323 0.930 . S
C320 C319 1.369 . S
C320 C329 1.429 . S
C321 C319 1.419 . S
C321 C322 1.363 . S
C321 H324 0.929 . S
C322 C321 1.363 . S
C322 C328 1.428 . S
H323 C319 0.930 . S
H324 C321 0.929 . S
S325 N326 1.613 . S
S325 N327 1.610 . S
N326 S325 1.613 . S
N326 C329 1.350 . S
N327 S325 1.610 . S
N327 C328 1.351 . S
C328 C322 1.428 . S
C328 N327 1.351 . S
C328 C329 1.434 . S
C329 C320 1.429 . S
C329 N326 1.350 . S
C329 C328 1.434 . S
C330 C331 1.369 . S
C330 C332 1.419 . S
C330 H334 0.930 . S
C331 C330 1.369 . S
C331 C340 1.429 1_545 S
C332 C330 1.419 . S
C332 C333 1.363 1_545 S
C332 H335 0.929 . S
C333 C332 1.363 1_565 S
C333 C339 1.428 . S
H334 C330 0.930 . S
H335 C332 0.929 . S
S336 N337 1.613 . S
S336 N338 1.610 . S
N337 S336 1.613 . S
N337 C340 1.350 . S
N338 S336 1.610 . S
N338 C339 1.351 . S
C339 C333 1.428 . S
C339 N338 1.351 . S
C339 C340 1.434 . S
C340 C331 1.429 1_565 S
C340 N337 1.350 . S
C340 C339 1.434 . S
C341 C342 1.369 1_565 S
C341 C343 1.419 . S
C341 H345 0.930 . S
C342 C341 1.369 1_545 S
C342 C351 1.429 1_455 S
C343 C341 1.419 . S
C343 C344 1.363 1_455 S
C343 H346 0.929 . S
C344 C343 1.363 1_655 S
C344 C350 1.428 1_565 S
H345 C341 0.930 . S
H346 C343 0.929 . S
S347 N348 1.613 . S
S347 N349 1.610 . S
N348 S347 1.613 . S
N348 C351 1.350 . S
N349 S347 1.610 . S
N349 C350 1.351 . S
C350 C344 1.428 1_545 S
C350 N349 1.351 . S
C350 C351 1.434 . S
C351 C342 1.429 1_655 S
C351 N348 1.350 . S
C351 C350 1.434 . S
C352 C353 1.369 . S
C352 C354 1.419 . S
C352 H356 0.930 . S
C353 C352 1.369 . S
C353 C362 1.429 . S
C354 C352 1.419 . S
C354 C355 1.363 . S
C354 H357 0.929 . S
C355 C354 1.363 . S
C355 C361 1.428 . S
H356 C352 0.930 . S
H357 C354 0.929 . S
S358 N359 1.613 . S
S358 N360 1.610 . S
N359 S358 1.613 . S
N359 C362 1.350 . S
N360 S358 1.610 . S
N360 C361 1.351 . S
C361 C355 1.428 . S
C361 N360 1.351 . S
C361 C362 1.434 . S
C362 C353 1.429 . S
C362 N359 1.350 . S
C362 C361 1.434 . S
C363 C364 1.369 . S
C363 C365 1.419 . S
C363 H367 0.930 . S
C364 C363 1.369 . S
C364 C373 1.429 . S
C365 C363 1.419 . S
C365 C366 1.363 . S
C365 H368 0.929 . S
C366 C365 1.363 . S
C366 C372 1.428 . S
H367 C363 0.930 . S
H368 C365 0.929 . S
S369 N370 1.613 . S
S369 N371 1.610 . S
N370 S369 1.613 . S
N370 C373 1.350 . S
N371 S369 1.610 . S
N371 C372 1.351 . S
C372 C366 1.428 . S
C372 N371 1.351 . S
C372 C373 1.434 . S
C373 C364 1.429 . S
C373 N370 1.350 . S
C373 C372 1.434 . S
C374 C375 1.369 . S
C374 C376 1.419 . S
C374 H378 0.930 . S
C375 C374 1.369 . S
C375 C384 1.429 . S
C376 C374 1.419 . S
C376 C377 1.363 . S
C376 H379 0.929 . S
C377 C376 1.363 . S
C377 C383 1.428 . S
H378 C374 0.930 . S
H379 C376 0.929 . S
S380 N381 1.613 . S
S380 N382 1.610 . S
N381 S380 1.613 . S
N381 C384 1.350 . S
N382 S380 1.610 . S
N382 C383 1.351 . S
C383 C377 1.428 . S
C383 N382 1.351 . S
C383 C384 1.434 . S
C384 C375 1.429 . S
C384 N381 1.350 . S
C384 C383 1.434 . S
C385 C386 1.369 . S
C385 C387 1.419 . S
C385 H389 0.930 . S
C386 C385 1.369 . S
C386 C395 1.429 . S
C387 C385 1.419 . S
C387 C388 1.363 . S
C387 H390 0.929 . S
C388 C387 1.363 . S
C388 C394 1.428 . S
H389 C385 0.930 . S
H390 C387 0.929 . S
S391 N392 1.613 . S
S391 N393 1.610 . S
N392 S391 1.613 . S
N392 C395 1.350 . S
N393 S391 1.610 . S
N393 C394 1.351 . S
C394 C388 1.428 . S
C394 N393 1.351 . S
C394 C395 1.434 . S
C395 C386 1.429 . S
C395 N392 1.350 . S
C395 C394 1.434 . S
C396 C397 1.369 . S
C396 C398 1.419 . S
C396 H400 0.930 . S
C397 C396 1.369 . S
C397 C406 1.429 . S
C398 C396 1.419 . S
C398 C399 1.363 . S
C398 H401 0.929 . S
C399 C398 1.363 . S
C399 C405 1.428 . S
H400 C396 0.930 . S
H401 C398 0.929 . S
S402 N403 1.613 . S
S402 N404 1.610 . S
N403 S402 1.613 . S
N403 C406 1.350 . S
N404 S402 1.610 . S
N404 C405 1.351 . S
C405 C399 1.428 . S
C405 N404 1.351 . S
C405 C406 1.434 . S
C406 C397 1.429 . S
C406 N403 1.350 . S
C406 C405 1.434 . S
C407 C408 1.369 . S
C407 C409 1.419 . S
C407 H411 0.930 . S
C408 C407 1.369 . S
C408 C417 1.429 . S
C409 C407 1.419 . S
C409 C410 1.363 . S
C409 H412 0.929 . S
C410 C409 1.363 . S
C410 C416 1.428 . S
H411 C407 0.930 . S
H412 C409 0.929 . S
S413 N414 1.613 . S
S413 N415 1.610 . S
N414 S413 1.613 . S
N414 C417 1.350 . S
N415 S413 1.610 . S
N415 C416 1.351 . S
C416 C410 1.428 . S
C416 N415 1.351 . S
C416 C417 1.434 . S
C417 C408 1.429 . S
C417 N414 1.350 . S
C417 C416 1.434 . S
C418 C419 1.369 . S
C418 C420 1.419 . S
C418 H422 0.930 . S
C419 C418 1.369 . S
C419 C428 1.429 . S
C420 C418 1.419 . S
C420 C421 1.363 . S
C420 H423 0.929 . S
C421 C420 1.363 . S
C421 C427 1.428 . S
H422 C418 0.930 . S
H423 C420 0.929 . S
S424 N425 1.613 . S
S424 N426 1.610 . S
N425 S424 1.613 . S
N425 C428 1.350 . S
N426 S424 1.610 . S
N426 C427 1.351 . S
C427 C421 1.428 . S
C427 N426 1.351 . S
C427 C428 1.434 . S
C428 C419 1.429 . S
C428 N425 1.350 . S
C428 C427 1.434 . S
C429 C430 1.369 . S
C429 C431 1.419 . S
C429 H433 0.930 . S
C430 C429 1.369 . S
C430 C439 1.429 . S
C431 C429 1.419 . S
C431 C432 1.363 . S
C431 H434 0.929 . S
C432 C431 1.363 . S
C432 C438 1.428 . S
H433 C429 0.930 . S
H434 C431 0.929 . S
S435 N436 1.613 . S
S435 N437 1.610 . S
N436 S435 1.613 . S
N436 C439 1.350 . S
N437 S435 1.610 . S
N437 C438 1.351 . S
C438 C432 1.428 . S
C438 N437 1.351 . S
C438 C439 1.434 . S
C439 C430 1.429 . S
C439 N436 1.350 . S
C439 C438 1.434 . S
C177 C150 1.521 . S
C179 C7 1.528 . S
C188 C18 1.520 . S
C190 C161 1.530 . S
C199 C29 1.526 . S
C201 C172 1.527 . S
C210 C40 1.527 . S
C212 C139 1.526 . S
C221 C51 1.530 . S
C223 C128 1.523 . S
C232 C95 1.533 . S
C234 C62 1.521 . S
C243 C106 1.521 . S
C245 C73 1.527 . S
C254 C117 1.533 . S
C256 C84 1.521 . S
C265 C115 1.283 . S
C267 C5 1.295 . S
C276 C126 1.290 . S
C278 C16 1.285 . S
C287 C93 1.284 . S
C289 C27 1.289 . S
C298 C38 1.302 . S
C300 C104 1.297 . S
C309 C159 1.283 . S
C311 C49 1.295 . S
C320 C170 1.287 . S
C322 C60 1.299 . S
C331 C71 1.290 . S
C333 C137 1.300 . S
C342 C148 1.286 . S
C344 C82 1.298 . S
C353 C74 1.602 . S
C355 C8 1.607 . S
C364 C19 1.600 . S
C366 C85 1.604 . S
C375 C30 1.602 . S
C377 C52 1.607 . S
C386 C41 1.602 . S
C388 C63 1.607 . S
C397 C162 1.603 . S
C399 C96 1.601 . S
C408 C173 1.606 . S
C410 C107 1.600 . S
C419 C118 1.607 . S
C421 C140 1.601 . S
C430 C129 1.600 . S
C432 C151 1.605 . S
