# Generated by pormake.
# Topology ukl, (4)-cn, num edge types: 1
# Building blocks:
#     Node 0, Type 0, BuildingBlock: KOZSID_clean_sbu_0, # of connection points: 4
#     Node 1, Type 0, BuildingBlock: KOZSID_clean_sbu_0, # of connection points: 4
#     Node 2, Type 0, BuildingBlock: KOZSID_clean_sbu_0, # of connection points: 4
#     Node 3, Type 0, BuildingBlock: KOZSID_clean_sbu_0, # of connection points: 4
#     Node 4, Type 0, BuildingBlock: KOZSID_clean_sbu_0, # of connection points: 4
#     Node 5, Type 0, BuildingBlock: KOZSID_clean_sbu_0, # of connection points: 4
#     Node 6, Type 0, BuildingBlock: KOZSID_clean_sbu_0, # of connection points: 4
#     Node 7, Type 0, BuildingBlock: KOZSID_clean_sbu_0, # of connection points: 4
#     Node 8, Type 0, BuildingBlock: KOZSID_clean_sbu_0, # of connection points: 4
#     Node 9, Type 0, BuildingBlock: KOZSID_clean_sbu_0, # of connection points: 4
#     Node 10, Type 0, BuildingBlock: KOZSID_clean_sbu_0, # of connection points: 4
#     Node 11, Type 0, BuildingBlock: KOZSID_clean_sbu_0, # of connection points: 4
#     Node 12, Type 0, BuildingBlock: KOZSID_clean_sbu_0, # of connection points: 4
#     Node 13, Type 0, BuildingBlock: KOZSID_clean_sbu_0, # of connection points: 4
#     Node 14, Type 0, BuildingBlock: KOZSID_clean_sbu_0, # of connection points: 4
#     Node 15, Type 0, BuildingBlock: KOZSID_clean_sbu_0, # of connection points: 4
#     Edge 16, Type (0, 0), BuildingBlock: KIFKEQ_clean_linker_1, # of connection points: 2
#     Edge 17, Type (0, 0), BuildingBlock: KIFKEQ_clean_linker_1, # of connection points: 2
#     Edge 18, Type (0, 0), BuildingBlock: KIFKEQ_clean_linker_1, # of connection points: 2
#     Edge 19, Type (0, 0), BuildingBlock: KIFKEQ_clean_linker_1, # of connection points: 2
#     Edge 20, Type (0, 0), BuildingBlock: KIFKEQ_clean_linker_1, # of connection points: 2
#     Edge 21, Type (0, 0), BuildingBlock: KIFKEQ_clean_linker_1, # of connection points: 2
#     Edge 22, Type (0, 0), BuildingBlock: KIFKEQ_clean_linker_1, # of connection points: 2
#     Edge 23, Type (0, 0), BuildingBlock: KIFKEQ_clean_linker_1, # of connection points: 2
#     Edge 24, Type (0, 0), BuildingBlock: KIFKEQ_clean_linker_1, # of connection points: 2
#     Edge 25, Type (0, 0), BuildingBlock: KIFKEQ_clean_linker_1, # of connection points: 2
#     Edge 26, Type (0, 0), BuildingBlock: KIFKEQ_clean_linker_1, # of connection points: 2
#     Edge 27, Type (0, 0), BuildingBlock: KIFKEQ_clean_linker_1, # of connection points: 2
#     Edge 28, Type (0, 0), BuildingBlock: KIFKEQ_clean_linker_1, # of connection points: 2
#     Edge 29, Type (0, 0), BuildingBlock: KIFKEQ_clean_linker_1, # of connection points: 2
#     Edge 30, Type (0, 0), BuildingBlock: KIFKEQ_clean_linker_1, # of connection points: 2
#     Edge 31, Type (0, 0), BuildingBlock: KIFKEQ_clean_linker_1, # of connection points: 2
#     Edge 32, Type (0, 0), BuildingBlock: KIFKEQ_clean_linker_1, # of connection points: 2
#     Edge 33, Type (0, 0), BuildingBlock: KIFKEQ_clean_linker_1, # of connection points: 2
#     Edge 34, Type (0, 0), BuildingBlock: KIFKEQ_clean_linker_1, # of connection points: 2
#     Edge 35, Type (0, 0), BuildingBlock: KIFKEQ_clean_linker_1, # of connection points: 2
#     Edge 36, Type (0, 0), BuildingBlock: KIFKEQ_clean_linker_1, # of connection points: 2
#     Edge 37, Type (0, 0), BuildingBlock: KIFKEQ_clean_linker_1, # of connection points: 2
#     Edge 38, Type (0, 0), BuildingBlock: KIFKEQ_clean_linker_1, # of connection points: 2
#     Edge 39, Type (0, 0), BuildingBlock: KIFKEQ_clean_linker_1, # of connection points: 2
#     Edge 40, Type (0, 0), BuildingBlock: KIFKEQ_clean_linker_1, # of connection points: 2
#     Edge 41, Type (0, 0), BuildingBlock: KIFKEQ_clean_linker_1, # of connection points: 2
#     Edge 42, Type (0, 0), BuildingBlock: KIFKEQ_clean_linker_1, # of connection points: 2
#     Edge 43, Type (0, 0), BuildingBlock: KIFKEQ_clean_linker_1, # of connection points: 2
#     Edge 44, Type (0, 0), BuildingBlock: KIFKEQ_clean_linker_1, # of connection points: 2
#     Edge 45, Type (0, 0), BuildingBlock: KIFKEQ_clean_linker_1, # of connection points: 2
#     Edge 46, Type (0, 0), BuildingBlock: KIFKEQ_clean_linker_1, # of connection points: 2
#     Edge 47, Type (0, 0), BuildingBlock: KIFKEQ_clean_linker_1, # of connection points: 2
# Relax obj value: 0.087
# Max RMSD: 0.112
# Mean RMSD: 0.085
data_MOF--net-ukl--node1-KOZSID_clean_sbu_0--edge1-KIFKEQ_clean_linker_1
_symmetry_space_group_name_H-M    P1
_symmetry_Int_Tables_number       1
_symmetry_cell_setting            triclinic
loop_
_symmetry_equiv_pos_as_xyz
'x, y, z'
_cell_length_a     37.466721
_cell_length_b     38.702677
_cell_length_c     28.9648
_cell_angle_alpha  90.114631
_cell_angle_beta   90.016758
_cell_angle_gamma 94.6123
loop_
_atom_site_label
_atom_site_type_symbol
_atom_site_fract_x
_atom_site_fract_y
_atom_site_fract_z
_atom_type_partial_charge
C0 C 0.39473 0.15568 0.01603 0.0
C1 C 0.40069 0.169 0.97197 0.0
C2 C 0.37448 0.15355 0.94432 0.0
C3 C 0.35409 0.13179 0.97291 0.0
N4 N 0.36566 0.1325 0.01717 0.0
Co5 Co 0.34368 0.10527 0.07008 0.0
N6 N 0.30407 0.08385 0.03005 0.0
C7 C 0.30133 0.08638 0.98369 0.0
C8 C 0.27041 0.06994 0.96623 0.0
C9 C 0.25156 0.05746 0.00387 0.0
C10 C 0.27233 0.06681 0.04221 0.0
N11 N 0.32048 0.07852 0.12305 0.0
C12 C 0.28695 0.06233 0.12643 0.0
C13 C 0.28013 0.04947 0.17049 0.0
C14 C 0.30999 0.05863 0.19622 0.0
C15 C 0.33319 0.07662 0.16656 0.0
N16 N 0.38303 0.12617 0.11059 0.0
C17 C 0.38836 0.11908 0.15568 0.0
C18 C 0.41804 0.13695 0.17418 0.0
C19 C 0.43266 0.15648 0.13872 0.0
C20 C 0.41098 0.14927 0.10043 0.0
N21 N 0.31445 0.14489 0.0844 0.0
C22 C 0.28386 0.20892 0.10015 0.0
C23 C 0.30104 0.19185 0.13561 0.0
C24 C 0.31546 0.15999 0.12728 0.0
C25 C 0.2804 0.19167 0.05744 0.0
C26 C 0.2958 0.16018 0.05034 0.0
N27 N 0.37523 0.06666 0.05495 0.0
C28 C 0.4257 0.0344 0.0779 0.0
C29 C 0.43631 0.02993 0.03191 0.0
C30 C 0.41331 0.04127 0.99787 0.0
C31 C 0.38313 0.05881 0.00999 0.0
C32 C 0.39522 0.05212 0.08844 0.0
H33 H 0.36751 0.06699 0.98203 0.0
H34 H 0.38914 0.05475 0.12407 0.0
H35 H 0.32831 0.14841 0.15567 0.0
H36 H 0.29308 0.14899 0.0166 0.0
C37 C 0.32466 0.1096 0.95906 0.0
C38 C 0.41811 0.16486 0.05521 0.0
C39 C 0.2601 0.06061 0.08961 0.0
C40 C 0.36453 0.09608 0.17988 0.0
H41 H 0.42207 0.18759 0.96087 0.0
H42 H 0.37097 0.15742 0.90765 0.0
H43 H 0.26166 0.06893 0.93062 0.0
H44 H 0.22503 0.04414 0.00341 0.0
H45 H 0.25563 0.03607 0.18317 0.0
H46 H 0.3135 0.05445 0.23284 0.0
H47 H 0.42782 0.13598 0.20929 0.0
H48 H 0.45663 0.174 0.14079 0.0
H49 H 0.30462 0.20335 0.16953 0.0
H50 H 0.26615 0.20242 0.02906 0.0
H51 H 0.44111 0.02473 0.10602 0.0
H52 H 0.41924 0.03813 0.96161 0.0
C53 C 0.74249 0.65703 0.34219 0.0
C54 C 0.76071 0.67363 0.37867 0.0
C55 C 0.74788 0.65751 0.4183 0.0
C56 C 0.72254 0.63203 0.40407 0.0
N57 N 0.71917 0.63096 0.3579 0.0
Co58 Co 0.68277 0.60183 0.32265 0.0
N59 N 0.65079 0.59534 0.377 0.0
C60 C 0.66076 0.60101 0.42122 0.0
C61 C 0.63272 0.59542 0.4515 0.0
C62 C 0.60352 0.58519 0.42463 0.0
C63 C 0.61541 0.58462 0.37918 0.0
N64 N 0.64706 0.57264 0.28664 0.0
C65 C 0.61253 0.56204 0.29663 0.0
C66 C 0.59836 0.53943 0.26273 0.0
C67 C 0.62503 0.5359 0.23087 0.0
C68 C 0.65408 0.55632 0.24692 0.0
N69 N 0.71459 0.61002 0.26872 0.0
C70 C 0.71451 0.5905 0.23036 0.0
C71 C 0.73737 0.6051 0.19722 0.0
C72 C 0.75218 0.63576 0.21604 0.0
C73 C 0.73748 0.63824 0.25965 0.0
N74 N 0.70542 0.55867 0.33903 0.0
C75 C 0.72954 0.4914 0.34949 0.0
C76 C 0.75289 0.5195 0.33411 0.0
C77 C 0.74032 0.55301 0.32932 0.0
C78 C 0.69501 0.49871 0.36233 0.0
C79 C 0.68353 0.53166 0.35626 0.0
N80 N 0.65884 0.64296 0.30608 0.0
C81 C 0.623 0.67134 0.25133 0.0
C82 C 0.61298 0.6941 0.28565 0.0
C83 C 0.62852 0.69248 0.32949 0.0
C84 C 0.65138 0.66665 0.33903 0.0
C85 C 0.6462 0.64617 0.26215 0.0
H86 H 0.66153 0.66477 0.37367 0.0
H87 H 0.65249 0.6282 0.23547 0.0
H88 H 0.75835 0.57391 0.3162 0.0
H89 H 0.65584 0.53423 0.36357 0.0
C90 C 0.69487 0.61683 0.43186 0.0
C91 C 0.74673 0.66654 0.29298 0.0
C92 C 0.59382 0.56993 0.33989 0.0
C93 C 0.68627 0.56486 0.22275 0.0
H94 H 0.78002 0.6959 0.37725 0.0
H95 H 0.75378 0.66574 0.45335 0.0
H96 H 0.63311 0.59941 0.48851 0.0
H97 H 0.57672 0.57849 0.43733 0.0
H98 H 0.57178 0.52629 0.26152 0.0
H99 H 0.62316 0.52084 0.1993 0.0
H100 H 0.74087 0.59594 0.16231 0.0
H101 H 0.77106 0.65441 0.19945 0.0
H102 H 0.78008 0.51544 0.32419 0.0
H103 H 0.67608 0.47864 0.37588 0.0
H104 H 0.61202 0.67222 0.21678 0.0
H105 H 0.62141 0.70966 0.35698 0.0
C106 C 0.13102 0.87033 0.51773 0.0
C107 C 0.12526 0.85575 0.47425 0.0
C108 C 0.14942 0.87276 0.4452 0.0
C109 C 0.16856 0.89658 0.47248 0.0
N110 N 0.158 0.89581 0.51718 0.0
Co111 Co 0.17936 0.92499 0.5689 0.0
N112 N 0.2175 0.94709 0.52753 0.0
C113 C 0.21966 0.94405 0.48117 0.0
C114 C 0.2498 0.96131 0.46283 0.0
C115 C 0.26881 0.97478 0.49992 0.0
C116 C 0.24885 0.96523 0.53878 0.0
N117 N 0.20184 0.95382 0.62056 0.0
C118 C 0.23486 0.97109 0.62294 0.0
C119 C 0.2415 0.98552 0.66626 0.0
C120 C 0.21201 0.97623 0.69259 0.0
C121 C 0.18927 0.95657 0.66403 0.0
N122 N 0.14166 0.90313 0.61079 0.0
C123 C 0.13609 0.91134 0.6555 0.0
C124 C 0.10797 0.89193 0.6753 0.0
C125 C 0.09488 0.86999 0.64122 0.0
C126 C 0.11594 0.87728 0.60244 0.0
N127 N 0.21068 0.88737 0.58405 0.0
C128 C 0.24366 0.82543 0.60259 0.0
C129 C 0.22877 0.84432 0.63813 0.0
C130 C 0.21273 0.87505 0.62824 0.0
C131 C 0.24381 0.83971 0.5581 0.0
C132 C 0.22759 0.87053 0.54976 0.0
N133 N 0.14573 0.96173 0.55319 0.0
C134 C 0.09532 0.99386 0.57678 0.0
C135 C 0.08327 0.99664 0.53116 0.0
C136 C 0.10544 0.9845 0.49668 0.0
C137 C 0.13635 0.96799 0.50829 0.0
C138 C 0.12633 0.9769 0.58678 0.0
H139 H 0.15142 0.95947 0.48001 0.0
H140 H 0.13336 0.97554 0.62215 0.0
H141 H 0.20102 0.88792 0.65653 0.0
H142 H 0.22799 0.87989 0.51502 0.0
C143 C 0.19685 0.9197 0.45744 0.0
C144 C 0.1103 0.85917 0.55845 0.0
C145 C 0.26141 0.9723 0.58587 0.0
C146 C 0.15885 0.93615 0.67854 0.0
H147 H 0.10568 0.83491 0.46456 0.0
H148 H 0.1528 0.86814 0.40866 0.0
H149 H 0.25808 0.96214 0.42705 0.0
H150 H 0.29493 0.9889 0.49875 0.0
H151 H 0.26567 1.00005 0.6781 0.0
H152 H 0.20852 0.98141 0.72897 0.0
H153 H 0.09842 0.89325 0.71047 0.0
H154 H 0.07244 0.85073 0.64456 0.0
H155 H 0.2281 0.83482 0.67329 0.0
H156 H 0.25604 0.82697 0.52954 0.0
H157 H 0.08069 1.0043 0.60512 0.0
H158 H 0.09843 0.98629 0.46058 0.0
C159 C 0.77711 0.37669 0.82208 0.0
C160 C 0.75767 0.36036 0.85757 0.0
C161 C 0.76937 0.3767 0.8977 0.0
C162 C 0.79514 0.40217 0.88457 0.0
N163 N 0.79981 0.40296 0.8386 0.0
Co164 Co 0.83714 0.43164 0.80461 0.0
N165 N 0.86778 0.4383 0.86019 0.0
C166 C 0.85677 0.43277 0.90402 0.0
C167 C 0.88422 0.43798 0.93527 0.0
C168 C 0.9141 0.44781 0.90949 0.0
C169 C 0.9032 0.44863 0.86364 0.0
N170 N 0.87374 0.46039 0.76977 0.0
C171 C 0.908 0.47101 0.78112 0.0
C172 C 0.9229 0.49363 0.74781 0.0
C173 C 0.89699 0.49705 0.7149 0.0
C174 C 0.86761 0.47661 0.72975 0.0
N175 N 0.80657 0.42319 0.74948 0.0
C176 C 0.80753 0.44247 0.71099 0.0
C177 C 0.7854 0.42766 0.67711 0.0
C178 C 0.77017 0.39707 0.6956 0.0
C179 C 0.78388 0.3949 0.73979 0.0
N180 N 0.81449 0.4752 0.8196 0.0
C181 C 0.79125 0.54306 0.82797 0.0
C182 C 0.76785 0.51511 0.81204 0.0
C183 C 0.77998 0.4813 0.80825 0.0
C184 C 0.82526 0.53536 0.84236 0.0
C185 C 0.8363 0.50213 0.83742 0.0
N186 N 0.86128 0.39019 0.7896 0.0
C187 C 0.89904 0.36142 0.73739 0.0
C188 C 0.9078 0.3388 0.7725 0.0
C189 C 0.89068 0.34073 0.8153 0.0
C190 C 0.86757 0.36666 0.82318 0.0
C191 C 0.87545 0.38669 0.74652 0.0
H192 H 0.85627 0.36875 0.85717 0.0
H193 H 0.87007 0.4045 0.71931 0.0
H194 H 0.76202 0.46054 0.79451 0.0
H195 H 0.8637 0.49928 0.84599 0.0
C196 C 0.82227 0.41726 0.91342 0.0
C197 C 0.77431 0.36675 0.77302 0.0
C198 C 0.92571 0.4631 0.82508 0.0
C199 C 0.83596 0.46806 0.70434 0.0
H200 H 0.73828 0.33816 0.85491 0.0
H201 H 0.76244 0.36855 0.93242 0.0
H202 H 0.88302 0.4339 0.97222 0.0
H203 H 0.9407 0.454 0.9232 0.0
H204 H 0.94944 0.5069 0.74766 0.0
H205 H 0.89958 0.51206 0.68349 0.0
H206 H 0.78269 0.43659 0.64199 0.0
H207 H 0.75174 0.37828 0.67842 0.0
H208 H 0.74106 0.51955 0.80075 0.0
H209 H 0.8442 0.5554 0.85612 0.0
H210 H 0.91122 0.36033 0.70356 0.0
H211 H 0.89673 0.32369 0.84337 0.0
C212 C 0.70587 0.93036 0.96598 0.0
C213 C 0.71068 0.94133 0.01132 0.0
C214 C 0.74192 0.92854 0.02659 0.0
C215 C 0.75455 0.91036 0.98996 0.0
N216 N 0.73306 0.91119 0.95292 0.0
Co217 Co 0.73852 0.88525 0.89483 0.0
N218 N 0.76885 0.85202 0.9239 0.0
C219 C 0.78723 0.85744 0.96343 0.0
C220 C 0.80494 0.82907 0.97588 0.0
C221 C 0.79699 0.80458 0.94197 0.0
C222 C 0.77463 0.81925 0.91069 0.0
N223 N 0.74304 0.85925 0.83668 0.0
C224 C 0.75071 0.82589 0.83008 0.0
C225 C 0.7496 0.81788 0.7833 0.0
C226 C 0.74192 0.84752 0.7605 0.0
C227 C 0.73798 0.87187 0.79417 0.0
N228 N 0.70803 0.9183 0.86561 0.0
C229 C 0.70665 0.92527 0.82025 0.0
C230 C 0.68178 0.94852 0.81027 0.0
C231 C 0.66672 0.95631 0.85205 0.0
C232 C 0.68317 0.93724 0.88523 0.0
N233 N 0.7818 0.91516 0.87922 0.0
C234 C 0.84639 0.95555 0.86338 0.0
C235 C 0.84272 0.92041 0.85147 0.0
C236 C 0.81054 0.90067 0.86015 0.0
C237 C 0.8168 0.97033 0.8826 0.0
C238 C 0.78455 0.94982 0.88954 0.0
N239 N 0.69663 0.85532 0.91095 0.0
C240 C 0.64161 0.82363 0.88998 0.0
C241 C 0.63947 0.80863 0.93402 0.0
C242 C 0.66607 0.8179 0.96641 0.0
C243 C 0.6943 0.84138 0.95425 0.0
C244 C 0.67053 0.84698 0.8791 0.0
H245 H 0.71457 0.84779 0.97982 0.0
H246 H 0.67208 0.85807 0.84494 0.0
H247 H 0.80927 0.87336 0.8523 0.0
H248 H 0.76204 0.9618 0.9041 0.0
C249 C 0.78012 0.88552 0.99227 0.0
C250 C 0.67606 0.93861 0.93523 0.0
C251 C 0.76096 0.80252 0.86747 0.0
C252 C 0.72214 0.9034 0.78836 0.0
H253 H 0.6932 0.95622 0.03169 0.0
H254 H 0.75254 0.93021 0.06134 0.0
H255 H 0.82008 0.82575 0.00716 0.0
H256 H 0.80631 0.77884 0.9406 0.0
H257 H 0.75352 0.79339 0.76692 0.0
H258 H 0.73796 0.85041 0.72393 0.0
H259 H 0.67385 0.95709 0.7765 0.0
H260 H 0.64582 0.97364 0.85746 0.0
H261 H 0.86503 0.90795 0.83689 0.0
H262 H 0.81856 0.9975 0.89207 0.0
H263 H 0.62103 0.81756 0.86429 0.0
H264 H 0.66539 0.80674 0.0007 0.0
C265 C 0.35051 0.44143 0.73423 0.0
C266 C 0.33865 0.43978 0.77951 0.0
C267 C 0.35434 0.46887 0.80152 0.0
C268 C 0.37486 0.48674 0.76853 0.0
N269 N 0.37243 0.47067 0.72739 0.0
Co270 Co 0.40027 0.4844 0.67172 0.0
N271 N 0.43814 0.51041 0.70783 0.0
C272 C 0.43417 0.5228 0.7508 0.0
C273 C 0.46526 0.53993 0.76709 0.0
C274 C 0.48992 0.53818 0.73199 0.0
C275 C 0.47258 0.51989 0.69612 0.0
N276 N 0.42807 0.49729 0.61551 0.0
C277 C 0.46337 0.50751 0.61095 0.0
C278 C 0.47201 0.51238 0.56463 0.0
C279 C 0.4408 0.5057 0.53999 0.0
C280 C 0.41486 0.49683 0.57232 0.0
N281 N 0.36224 0.45793 0.63632 0.0
C282 C 0.35547 0.46173 0.59119 0.0
C283 C 0.33014 0.43689 0.57547 0.0
C284 C 0.32065 0.41626 0.613 0.0
C285 C 0.34083 0.42977 0.64991 0.0
N286 N 0.37531 0.52721 0.66581 0.0
C287 C 0.34251 0.59022 0.65737 0.0
C288 C 0.32228 0.55901 0.66828 0.0
C289 C 0.33918 0.52782 0.67239 0.0
C290 C 0.37936 0.58871 0.65048 0.0
C291 C 0.39506 0.5574 0.65496 0.0
N292 N 0.42557 0.44288 0.67753 0.0
C293 C 0.44698 0.39193 0.64383 0.0
C294 C 0.46092 0.38282 0.68657 0.0
C295 C 0.457 0.40449 0.72461 0.0
C296 C 0.43918 0.43436 0.71936 0.0
C297 C 0.42957 0.42218 0.64 0.0
H298 H 0.43628 0.45052 0.74924 0.0
H299 H 0.41903 0.42868 0.60679 0.0
H300 H 0.32316 0.50424 0.68099 0.0
H301 H 0.42351 0.55781 0.64947 0.0
C302 C 0.40358 0.51185 0.77713 0.0
C303 C 0.33977 0.41596 0.69757 0.0
C304 C 0.48829 0.5144 0.65013 0.0
C305 C 0.38038 0.48111 0.56322 0.0
H306 H 0.32118 0.41942 0.79506 0.0
H307 H 0.35307 0.47475 0.838 0.0
H308 H 0.46996 0.55106 0.80107 0.0
H309 H 0.51739 0.54922 0.73261 0.0
H310 H 0.49801 0.51965 0.54985 0.0
H311 H 0.43789 0.50549 0.5028 0.0
H312 H 0.32211 0.4326 0.54001 0.0
H313 H 0.30202 0.39343 0.61272 0.0
H314 H 0.29373 0.55869 0.67421 0.0
H315 H 0.39625 0.61159 0.64093 0.0
H316 H 0.44901 0.37561 0.61369 0.0
H317 H 0.46781 0.39859 0.75811 0.0
C318 C 0.81333 0.09754 0.48014 0.0
C319 C 0.80967 0.08664 0.52559 0.0
C320 C 0.78116 0.1025 0.54369 0.0
C321 C 0.76896 0.12236 0.50857 0.0
N322 N 0.78804 0.11965 0.46969 0.0
Co323 Co 0.78373 0.14783 0.41325 0.0
N324 N 0.75882 0.18378 0.44611 0.0
C325 C 0.74176 0.17927 0.48675 0.0
C326 C 0.72695 0.20877 0.50136 0.0
C327 C 0.73526 0.23314 0.46768 0.0
C328 C 0.75499 0.21725 0.43437 0.0
N329 N 0.78047 0.17608 0.35674 0.0
C330 C 0.77658 0.21055 0.35242 0.0
C331 C 0.78053 0.22055 0.30657 0.0
C332 C 0.78584 0.19119 0.28174 0.0
C333 C 0.78512 0.16479 0.31332 0.0
N334 N 0.80869 0.11187 0.38047 0.0
C335 C 0.80848 0.10627 0.33468 0.0
C336 C 0.82996 0.08054 0.3222 0.0
C337 C 0.84466 0.06973 0.36274 0.0
C338 C 0.83143 0.08962 0.39769 0.0
N339 N 0.73721 0.1228 0.39899 0.0
C340 C 0.6695 0.08756 0.38231 0.0
C341 C 0.6987 0.06967 0.39686 0.0
C342 C 0.73216 0.08768 0.40494 0.0
C343 C 0.67534 0.12356 0.37607 0.0
C344 C 0.70917 0.14056 0.3844 0.0
N345 N 0.82937 0.17231 0.4281 0.0
C346 C 0.89119 0.18492 0.40952 0.0
C347 C 0.89834 0.19368 0.45567 0.0
C348 C 0.87011 0.1943 0.48689 0.0
C349 C 0.83572 0.18356 0.47233 0.0
C350 C 0.8563 0.17458 0.39629 0.0
H351 H 0.81469 0.1825 0.49766 0.0
H352 H 0.8514 0.1667 0.361 0.0
H353 H 0.754 0.07318 0.41625 0.0
H354 H 0.71251 0.16826 0.37955 0.0
C355 C 0.74701 0.14999 0.51387 0.0
C356 C 0.84046 0.08684 0.44694 0.0
C357 C 0.76776 0.23378 0.39078 0.0
C358 C 0.79655 0.13158 0.30501 0.0
H359 H 0.8263 0.06998 0.5444 0.0
H360 H 0.77239 0.10173 0.57928 0.0
H361 H 0.71331 0.21268 0.53366 0.0
H362 H 0.72778 0.25957 0.46774 0.0
H363 H 0.78059 0.24635 0.29234 0.0
H364 H 0.79237 0.18991 0.24559 0.0
H365 H 0.83642 0.07247 0.28758 0.0
H366 H 0.86363 0.05021 0.36613 0.0
H367 H 0.69594 0.04185 0.40158 0.0
H368 H 0.65376 0.13883 0.36561 0.0
H369 H 0.91252 0.18517 0.38424 0.0
H370 H 0.87478 0.20142 0.52271 0.0
C371 C 0.16725 0.58671 0.24035 0.0
C372 C 0.17815 0.58702 0.28615 0.0
C373 C 0.16265 0.55707 0.30595 0.0
C374 C 0.14287 0.54011 0.27152 0.0
N375 N 0.14546 0.55758 0.23146 0.0
Co376 Co 0.118 0.54514 0.17477 0.0
N377 N 0.08058 0.51675 0.20879 0.0
C378 C 0.08458 0.50318 0.25097 0.0
C379 C 0.05369 0.48511 0.26615 0.0
C380 C 0.02906 0.48752 0.23115 0.0
C381 C 0.04629 0.50697 0.19635 0.0
N382 N 0.09062 0.53354 0.11781 0.0
C383 C 0.05546 0.52285 0.11261 0.0
C384 C 0.04714 0.51822 0.06623 0.0
C385 C 0.07833 0.5264 0.04201 0.0
C386 C 0.10402 0.53543 0.07475 0.0
N387 N 0.1553 0.57387 0.14117 0.0
C388 C 0.16253 0.57161 0.09589 0.0
C389 C 0.18824 0.59691 0.0821 0.0
C390 C 0.19724 0.61618 0.12114 0.0
C391 C 0.17637 0.60166 0.15672 0.0
N392 N 0.14463 0.50352 0.16594 0.0
C393 C 0.18088 0.44305 0.15088 0.0
C394 C 0.14371 0.44294 0.1451 0.0
C395 C 0.12628 0.47306 0.15277 0.0
C396 C 0.19944 0.47431 0.16532 0.0
C397 C 0.18089 0.50422 0.17244 0.0
N398 N 0.09132 0.58558 0.18326 0.0
C399 C 0.06863 0.63671 0.15216 0.0
C400 C 0.05441 0.64449 0.1953 0.0
C401 C 0.05883 0.62202 0.23228 0.0
C402 C 0.07738 0.59265 0.2255 0.0
C403 C 0.08681 0.6071 0.14684 0.0
H404 H 0.08066 0.57578 0.25448 0.0
H405 H 0.09763 0.60181 0.11334 0.0
H406 H 0.09769 0.47159 0.14782 0.0
H407 H 0.19585 0.52798 0.1829 0.0
C408 C 0.11467 0.51416 0.27816 0.0
C409 C 0.17779 0.61363 0.20527 0.0
C410 C 0.03042 0.51451 0.15107 0.0
C411 C 0.13823 0.55236 0.0666 0.0
H412 H 0.19457 0.607 0.30401 0.0
H413 H 0.16341 0.55005 0.34207 0.0
H414 H 0.04898 0.47314 0.29958 0.0
H415 H 1.00162 0.47643 0.23138 0.0
H416 H 0.02132 0.50982 0.05154 0.0
H417 H 0.08142 0.52731 0.00492 0.0
H418 H 0.19738 0.60233 0.04726 0.0
H419 H 0.21635 0.63865 0.12306 0.0
H420 H 0.12784 0.4195 0.13506 0.0
H421 H 0.22817 0.47591 0.17022 0.0
H422 H 0.06643 0.65374 0.12285 0.0
H423 H 0.04799 0.62701 0.26608 0.0
C424 C 0.88934 0.6587 0.51993 0.0
C425 C 0.89617 0.67218 0.47614 0.0
C426 C 0.87194 0.65523 0.44704 0.0
C427 C 0.85175 0.6325 0.47459 0.0
N428 N 0.86169 0.63392 0.51953 0.0
Co429 Co 0.83912 0.60608 0.57155 0.0
N430 N 0.80078 0.58426 0.52998 0.0
C431 C 0.79872 0.58718 0.48359 0.0
C432 C 0.76796 0.57104 0.46522 0.0
C433 C 0.74859 0.55823 0.50227 0.0
C434 C 0.76888 0.56713 0.54116 0.0
N435 N 0.81568 0.57842 0.62341 0.0
C436 C 0.78245 0.56159 0.62552 0.0
C437 C 0.77531 0.54765 0.66892 0.0
C438 C 0.80468 0.55686 0.69554 0.0
C439 C 0.82788 0.57596 0.66708 0.0
N440 N 0.87681 0.62793 0.61368 0.0
C441 C 0.88152 0.62063 0.65884 0.0
C442 C 0.90961 0.64006 0.6788 0.0
C443 C 0.92359 0.66107 0.64435 0.0
C444 C 0.9031 0.65318 0.6052 0.0
N445 N 0.80856 0.64465 0.5853 0.0
C446 C 0.77538 0.7068 0.60229 0.0
C447 C 0.78953 0.68806 0.63845 0.0
C448 C 0.80568 0.65723 0.62932 0.0
C449 C 0.77632 0.69242 0.55786 0.0
C450 C 0.79268 0.66156 0.55028 0.0
N451 N 0.87189 0.56828 0.55734 0.0
C452 C 0.9222 0.53641 0.58177 0.0
C453 C 0.93316 0.53141 0.53612 0.0
C454 C 0.91051 0.54234 0.50142 0.0
C455 C 0.88021 0.55999 0.51267 0.0
C456 C 0.89168 0.5542 0.59142 0.0
H457 H 0.86471 0.56764 0.48429 0.0
H458 H 0.88538 0.55704 0.62686 0.0
H459 H 0.81669 0.64443 0.65812 0.0
H460 H 0.79312 0.65215 0.51559 0.0
C461 C 0.82267 0.61028 0.45968 0.0
C462 C 0.90974 0.67023 0.5608 0.0
C463 C 0.75612 0.56047 0.5882 0.0
C464 C 0.85825 0.59636 0.6819 0.0
H465 H 0.91648 0.69228 0.4663 0.0
H466 H 0.86912 0.65926 0.41029 0.0
H467 H 0.75953 0.57063 0.42949 0.0
H468 H 0.722 0.54505 0.50106 0.0
H469 H 0.75088 0.53353 0.68059 0.0
H470 H 0.80785 0.55205 0.73198 0.0
H471 H 0.91859 0.63934 0.71428 0.0
H472 H 0.94624 0.68011 0.64768 0.0
H473 H 0.78943 0.69769 0.67358 0.0
H474 H 0.76477 0.70507 0.52878 0.0
H475 H 0.93736 0.52704 0.61033 0.0
H476 H 0.91677 0.53871 0.46535 0.0
C477 C 0.24606 0.15308 0.82137 0.0
C478 C 0.2655 0.16904 0.85728 0.0
C479 C 0.25453 0.15169 0.89694 0.0
C480 C 0.22909 0.12609 0.88307 0.0
N481 N 0.2241 0.12606 0.83715 0.0
Co482 Co 0.18751 0.09685 0.80256 0.0
N483 N 0.15735 0.0884 0.85816 0.0
C484 C 0.1685 0.09329 0.90206 0.0
C485 C 0.14128 0.08693 0.93337 0.0
C486 C 0.11141 0.07712 0.90749 0.0
C487 C 0.1221 0.0775 0.86151 0.0
N488 N 0.15143 0.06777 0.76722 0.0
C489 C 0.11716 0.05703 0.77819 0.0
C490 C 0.10215 0.03519 0.74401 0.0
C491 C 0.12805 0.03247 0.71086 0.0
C492 C 0.15752 0.05247 0.72651 0.0
N493 N 0.21771 0.10683 0.74744 0.0
C494 C 0.21691 0.08806 0.70838 0.0
C495 C 0.2386 0.10366 0.67475 0.0
C496 C 0.2534 0.13419 0.694 0.0
C497 C 0.24003 0.13555 0.7385 0.0
N498 N 0.21169 0.05395 0.81605 0.0
C499 C 0.23975 0.98861 0.82795 0.0
C500 C 0.26128 0.0173 0.81083 0.0
C501 C 0.24686 0.04994 0.80577 0.0
C502 C 0.20442 0.99364 0.83934 0.0
C503 C 0.19096 0.02583 0.83264 0.0
N504 N 0.16199 0.13769 0.78901 0.0
C505 C 0.12359 0.16631 0.73761 0.0
C506 C 0.11418 0.18814 0.77338 0.0
C507 C 0.13114 0.18587 0.81624 0.0
C508 C 0.15491 0.1604 0.82339 0.0
C509 C 0.14782 0.14152 0.746 0.0
H510 H 0.16619 0.15801 0.85735 0.0
H511 H 0.15376 0.12436 0.71821 0.0
H512 H 0.26383 0.07161 0.79263 0.0
H513 H 0.16299 0.02718 0.83968 0.0
C514 C 0.20259 0.10969 0.91165 0.0
C515 C 0.24896 0.16357 0.77252 0.0
C516 C 0.09943 0.06447 0.82229 0.0
C517 C 0.18887 0.06213 0.7011 0.0
H518 H 0.28465 0.19145 0.85512 0.0
H519 H 0.26193 0.15892 0.93199 0.0
H520 H 0.14256 0.09047 0.97044 0.0
H521 H 0.08493 0.07045 0.92121 0.0
H522 H 0.07547 0.02222 0.74329 0.0
H523 H 0.12524 0.01851 0.67858 0.0
H524 H 0.2412 0.0953 0.63931 0.0
H525 H 0.27119 0.15346 0.67684 0.0
H526 H 0.28889 0.01457 0.80152 0.0
H527 H 0.18668 0.97228 0.8521 0.0
H528 H 0.11154 0.16771 0.70373 0.0
H529 H 0.12459 0.20233 0.84481 0.0
C530 C 0.64916 0.35498 0.00601 0.0
C531 C 0.64502 0.34094 0.96194 0.0
C532 C 0.66132 0.36471 0.93196 0.0
C533 C 0.67465 0.39182 0.9592 0.0
N534 N 0.66823 0.38618 0.0044 0.0
Co535 Co 0.68405 0.41782 0.05544 0.0
N536 N 0.72006 0.44364 0.0158 0.0
C537 C 0.71988 0.44455 0.96939 0.0
C538 C 0.74995 0.46259 0.95183 0.0
C539 C 0.7704 0.47306 0.98951 0.0
C540 C 0.75144 0.46116 0.02827 0.0
N541 N 0.70153 0.4491 0.10605 0.0
C542 C 0.73463 0.46559 0.11161 0.0
C543 C 0.73707 0.48303 0.15347 0.0
C544 C 0.70438 0.47664 0.1749 0.0
C545 C 0.68379 0.45579 0.14491 0.0
N546 N 0.64812 0.39299 0.09566 0.0
C547 C 0.63549 0.40543 0.13542 0.0
C548 C 0.60956 0.38313 0.15515 0.0
C549 C 0.60544 0.35528 0.12564 0.0
C550 C 0.62929 0.36205 0.08936 0.0
N551 N 0.71913 0.38479 0.07307 0.0
C552 C 0.7523 0.3232 0.09194 0.0
C553 C 0.73469 0.34073 0.12678 0.0
C554 C 0.71895 0.37159 0.11686 0.0
C555 C 0.75574 0.33954 0.04858 0.0
C556 C 0.73895 0.37002 0.0399 0.0
N557 N 0.64624 0.44918 0.0377 0.0
C558 C 0.61943 0.5045 0.03346 0.0
C559 C 0.58588 0.48808 0.01981 0.0
C560 C 0.58451 0.45214 0.01356 0.0
C561 C 0.61394 0.4336 0.02337 0.0
C562 C 0.64926 0.48463 0.04204 0.0
H563 H 0.60949 0.40601 0.02042 0.0
H564 H 0.67434 0.49779 0.05321 0.0
H565 H 0.70446 0.38344 0.14403 0.0
H566 H 0.74019 0.38048 0.0055 0.0
C567 C 0.69752 0.42025 0.94467 0.0
C568 C 0.63045 0.34059 0.04733 0.0
C569 C 0.76325 0.46639 0.0766 0.0
C570 C 0.65234 0.43534 0.15624 0.0
H571 H 0.63091 0.31648 0.95232 0.0
H572 H 0.6639 0.3621 0.89492 0.0
H573 H 0.75767 0.4652 0.91591 0.0
H574 H 0.79666 0.48674 0.98809 0.0
H575 H 0.76016 0.49828 0.16719 0.0
H576 H 0.69741 0.48433 0.20949 0.0
H577 H 0.59589 0.38629 0.18761 0.0
H578 H 0.58651 0.33291 0.13002 0.0
H579 H 0.73117 0.32994 0.16104 0.0
H580 H 0.77033 0.32843 0.02075 0.0
H581 H 0.62246 0.53228 0.03868 0.0
H582 H 0.56037 0.43768 0.00147 0.0
C583 C 0.27577 0.87583 0.334 0.0
C584 C 0.25821 0.8596 0.37108 0.0
C585 C 0.27034 0.87738 0.41001 0.0
C586 C 0.29452 0.90351 0.3946 0.0
N587 N 0.29775 0.90338 0.34842 0.0
Co588 Co 0.33252 0.93305 0.31165 0.0
N589 N 0.36437 0.94274 0.3655 0.0
C590 C 0.35449 0.93878 0.41 0.0
C591 C 0.3819 0.94835 0.44006 0.0
C592 C 0.41057 0.95924 0.41265 0.0
C593 C 0.39913 0.95561 0.36712 0.0
N594 N 0.36678 0.96257 0.27405 0.0
C595 C 0.40118 0.97432 0.28303 0.0
C596 C 0.41504 0.9946 0.24668 0.0
C597 C 0.388 0.99617 0.21484 0.0
C598 C 0.3592 0.97663 0.23303 0.0
N599 N 0.30062 0.92195 0.25832 0.0
C600 C 0.2996 0.94023 0.21907 0.0
C601 C 0.27678 0.924 0.187 0.0
C602 C 0.26317 0.89357 0.20744 0.0
C603 C 0.27846 0.89288 0.25092 0.0
N604 N 0.30779 0.97529 0.32633 0.0
C605 C 0.27822 0.03941 0.34114 0.0
C606 C 0.25658 1.00995 0.32647 0.0
C607 C 0.27185 0.97792 0.31979 0.0
C608 C 0.31441 0.03581 0.3486 0.0
C609 C 0.32855 1.00416 0.34062 0.0
N610 N 0.35845 0.89272 0.29709 0.0
C611 C 0.39535 0.86372 0.24411 0.0
C612 C 0.40587 0.84232 0.27964 0.0
C613 C 0.39036 0.84507 0.3233 0.0
C614 C 0.36682 0.87054 0.33137 0.0
C615 C 0.37128 0.8885 0.25344 0.0
H616 H 0.35672 0.87331 0.36589 0.0
H617 H 0.36429 0.90527 0.22579 0.0
H618 H 0.2549 0.95556 0.30855 0.0
H619 H 0.35694 1.0038 0.34492 0.0
C620 C 0.32129 0.92134 0.42159 0.0
C621 C 0.27126 0.86508 0.28535 0.0
C622 C 0.4202 0.96892 0.3269 0.0
C623 C 0.32708 0.96622 0.20968 0.0
H624 H 0.23955 0.83676 0.37013 0.0
H625 H 0.26453 0.87019 0.44545 0.0
H626 H 0.38141 0.94688 0.47738 0.0
H627 H 0.43662 0.96947 0.42486 0.0
H628 H 0.44177 1.00715 0.24345 0.0
H629 H 0.38965 1.00892 0.18165 0.0
H630 H 0.27265 0.93191 0.15171 0.0
H631 H 0.24486 0.87385 0.19187 0.0
H632 H 0.22829 1.01166 0.32022 0.0
H633 H 0.33217 0.05785 0.35939 0.0
H634 H 0.40642 0.86197 0.20971 0.0
H635 H 0.39791 0.829 0.35171 0.0
C636 C 0.2023 0.42872 0.47843 0.0
C637 C 0.20756 0.44049 0.52333 0.0
C638 C 0.23854 0.42737 0.5388 0.0
C639 C 0.25059 0.40826 0.50266 0.0
N640 N 0.22898 0.40883 0.46572 0.0
Co641 Co 0.23308 0.38121 0.4087 0.0
N642 N 0.26324 0.34818 0.43868 0.0
C643 C 0.28212 0.35422 0.47772 0.0
C644 C 0.29945 0.32585 0.4911 0.0
C645 C 0.2907 0.30065 0.45838 0.0
C646 C 0.26826 0.31496 0.42686 0.0
N647 N 0.23604 0.35333 0.35168 0.0
C648 C 0.24188 0.31929 0.34709 0.0
C649 C 0.23625 0.30862 0.30171 0.0
C650 C 0.22742 0.33717 0.27746 0.0
C651 C 0.22818 0.36379 0.30885 0.0
N652 N 0.20283 0.41413 0.37857 0.0
C653 C 0.20031 0.41956 0.33292 0.0
C654 C 0.17594 0.44319 0.32254 0.0
C655 C 0.16224 0.45279 0.36432 0.0
C656 C 0.17897 0.43431 0.39787 0.0
N657 N 0.27664 0.40995 0.39093 0.0
C658 C 0.34311 0.44825 0.37672 0.0
C659 C 0.33802 0.41294 0.36513 0.0
C660 C 0.30498 0.39437 0.37277 0.0
C661 C 0.31325 0.46426 0.3935 0.0
C662 C 0.28029 0.44478 0.39996 0.0
N663 N 0.19098 0.35244 0.42726 0.0
C664 C 0.13599 0.3198 0.40862 0.0
C665 C 0.13516 0.30501 0.45281 0.0
C666 C 0.16198 0.31539 0.48439 0.0
C667 C 0.18946 0.33929 0.47103 0.0
C668 C 0.16424 0.34355 0.3965 0.0
H669 H 0.21005 0.34633 0.49593 0.0
H670 H 0.16493 0.35419 0.36211 0.0
H671 H 0.30278 0.36698 0.36522 0.0
H672 H 0.25806 0.45765 0.41372 0.0
C673 C 0.27559 0.38293 0.50563 0.0
C674 C 0.17245 0.43678 0.44778 0.0
C675 C 0.25324 0.29715 0.38513 0.0
C676 C 0.21321 0.39557 0.30193 0.0
H677 H 0.19048 0.45607 0.5433 0.0
H678 H 0.24928 0.42943 0.57345 0.0
H679 H 0.31476 0.323 0.52237 0.0
H680 H 0.29937 0.27465 0.4581 0.0
H681 H 0.23703 0.28282 0.28762 0.0
H682 H 0.21813 0.3376 0.24223 0.0
H683 H 0.16718 0.45062 0.28861 0.0
H684 H 0.14181 0.47066 0.36949 0.0
H685 H 0.35955 0.39932 0.35067 0.0
H686 H 0.31545 0.49138 0.40312 0.0
H687 H 0.11508 0.31303 0.38361 0.0
H688 H 0.16225 0.30455 0.51883 0.0
C689 C 0.85358 0.94145 0.24126 0.0
C690 C 0.84194 0.94121 0.28665 0.0
C691 C 0.85832 0.97057 0.30724 0.0
C692 C 0.87906 0.98714 0.27338 0.0
N693 N 0.87616 0.97002 0.23301 0.0
Co694 Co 0.90387 0.98198 0.17651 0.0
N695 N 0.94224 1.00856 0.21121 0.0
C696 C 0.93873 0.02189 0.25375 0.0
C697 C 0.97003 0.03916 0.2691 0.0
C698 C 0.99438 0.03653 0.23384 0.0
C699 C 0.97665 0.0176 0.1988 0.0
N700 N 0.93137 0.99334 0.11955 0.0
C701 C 0.96665 1.00348 0.11421 0.0
C702 C 0.97487 1.00723 0.06761 0.0
C703 C 0.94345 0.99995 0.0436 0.0
C704 C 0.91777 0.99183 0.07652 0.0
N705 N 0.86549 0.95478 0.14257 0.0
C706 C 0.85832 0.95738 0.09738 0.0
C707 C 0.83235 0.93246 0.08326 0.0
C708 C 0.82297 0.91309 0.12197 0.0
C709 C 0.84395 0.92723 0.15771 0.0
N710 N 0.87905 0.02473 0.1686 0.0
C711 C 0.84543 0.08633 0.15157 0.0
C712 C 0.88265 0.08536 0.14806 0.0
C713 C 0.89874 0.05468 0.15656 0.0
C714 C 0.82545 0.05567 0.16531 0.0
C715 C 0.84274 0.02517 0.17354 0.0
N716 N 0.92879 0.94033 0.18387 0.0
C717 C 0.94764 0.88777 0.15171 0.0
C718 C 0.9604 0.87827 0.19491 0.0
C719 C 0.95768 0.90081 0.23234 0.0
C720 C 0.94182 0.93181 0.22605 0.0
C721 C 0.93216 0.91895 0.14689 0.0
H722 H 0.93956 0.94863 0.25543 0.0
H723 H 0.92213 0.92538 0.1134 0.0
H724 H 0.92737 0.05526 0.15276 0.0
H725 H 0.82676 1.00183 0.18326 0.0
C726 C 0.90819 1.012 0.28071 0.0
C727 C 0.84276 0.91499 0.20597 0.0
C728 C 0.99201 1.01128 0.1528 0.0
C729 C 0.88314 0.97596 0.06834 0.0
H730 H 0.82425 0.92156 0.30329 0.0
H731 H 0.85736 0.97744 0.34344 0.0
H732 H 0.97506 0.05105 0.30258 0.0
H733 H 0.02188 0.04748 0.23377 0.0
H734 H 1.00074 0.01412 0.05224 0.0
H735 H 0.94022 0.99886 0.00648 0.0
H736 H 0.82354 0.92726 0.04828 0.0
H737 H 0.80372 0.89072 0.12351 0.0
H738 H 0.89957 0.10831 0.13885 0.0
H739 H 0.79662 0.05494 0.1686 0.0
H740 H 0.9487 0.87086 0.12199 0.0
H741 H 0.96762 0.89456 0.26618 0.0
C742 C 0.3192 0.60209 0.97275 0.0
C743 C 0.31614 0.59371 0.01928 0.0
C744 C 0.28618 0.60824 0.03559 0.0
C745 C 0.27265 0.62521 -0.00133 0.0
N746 N 0.2923 0.6219 0.96034 0.0
Co747 Co 0.28622 0.64691 0.90173 0.0
N748 N 0.25987 0.68305 0.93157 0.0
C749 C 0.24267 0.67955 0.97221 0.0
C750 C 0.22686 0.7091 0.98448 0.0
C751 C 0.23466 0.73233 0.94921 0.0
C752 C 0.25507 0.71575 0.91733 0.0
N753 N 0.2812 0.67202 0.84306 0.0
C754 C 0.27505 0.70572 0.8356 0.0
C755 C 0.27447 0.71238 0.78851 0.0
C756 C 0.27948 0.68163 0.76644 0.0
C757 C 0.28357 0.65793 0.80081 0.0
N758 N 0.31255 0.61071 0.87201 0.0
C759 C 0.31133 0.60244 0.82694 0.0
C760 C 0.33387 0.57716 0.81629 0.0
C761 C 0.3502 0.56949 0.85727 0.0
C762 C 0.33691 0.59072 0.89072 0.0
N763 N 0.24057 0.61945 0.88993 0.0
C764 C 0.17469 0.58092 0.87441 0.0
C765 C 0.17934 0.61619 0.86324 0.0
C766 C 0.21219 0.635 0.87174 0.0
C767 C 0.2038 0.5653 0.89348 0.0
C768 C 0.23659 0.58487 0.9004 0.0
N769 N 0.33097 0.67381 0.91387 0.0
C770 C 0.39237 0.6867 0.89356 0.0
C771 C 0.3998 0.69761 0.93887 0.0
C772 C 0.37179 0.69927 0.97028 0.0
C773 C 0.33742 0.68724 0.95701 0.0
C774 C 0.35751 0.67531 0.88153 0.0
H775 H 0.31656 0.68679 0.98259 0.0
H776 H 0.35236 0.66577 0.84696 0.0
H777 H 0.21451 0.6623 0.86379 0.0
H778 H 0.25874 0.57205 0.91441 0.0
C779 C 0.24891 0.65164 0.00154 0.0
C780 C 0.34693 0.59093 0.94015 0.0
C781 C 0.26738 0.73068 0.87257 0.0
C782 C 0.29649 0.62491 0.79529 0.0
H783 H 0.33401 0.57986 0.04024 0.0
H784 H 0.27727 0.60883 0.07111 0.0
H785 H 0.21292 0.71389 0.01629 0.0
H786 H 0.22636 0.75843 0.9472 0.0
H787 H 0.27091 0.73665 0.77147 0.0
H788 H 0.2813 0.67742 0.72974 0.0
H789 H 0.33968 0.56721 0.78238 0.0
H790 H 0.37007 0.55097 0.86187 0.0
H791 H 0.15746 0.62937 0.84888 0.0
H792 H 0.2014 0.53805 0.90241 0.0
H793 H 0.41348 0.68617 0.86807 0.0
H794 H 0.37669 0.70809 0.00541 0.0
C795 C 0.66883 0.08929 0.73447 0.0
C796 C 0.68005 0.09034 0.78013 0.0
C797 C 0.66353 0.06141 0.80134 0.0
C798 C 0.64291 0.0443 0.76779 0.0
N799 N 0.64599 0.06068 0.72698 0.0
Co800 Co 0.61787 0.04796 0.67092 0.0
N801 N 0.57937 0.0224 0.70639 0.0
C802 C 0.58295 1.00961 0.74912 0.0
C803 C 0.55159 0.99284 0.76497 0.0
C804 C 0.52712 0.99521 0.7298 0.0
C805 C 0.54486 1.0135 0.69433 0.0
N806 N 0.58997 0.036 0.61439 0.0
C807 C 0.55455 0.02635 0.60946 0.0
C808 C 0.546 0.02198 0.563 0.0
C809 C 0.57736 0.02833 0.53866 0.0
C810 C 0.60331 0.03654 0.57126 0.0
N811 N 0.65641 0.07397 0.63615 0.0
C812 C 0.66326 0.0704 0.59098 0.0
C813 C 0.68909 0.09496 0.57587 0.0
C814 C 0.69881 0.11512 0.61388 0.0
C815 C 0.67811 0.10178 0.65028 0.0
N816 N 0.64199 1.0047 0.66432 0.0
C817 C 0.67411 0.94142 0.65478 0.0
C818 C 0.63729 0.94331 0.6479 0.0
C819 C 0.62192 0.97479 0.65291 0.0
C820 C 0.69461 0.97235 0.66633 0.0
C821 C 0.67806 1.00366 0.67096 0.0
N822 N 0.59366 0.0901 0.67737 0.0
C823 C 0.57777 0.14376 0.64544 0.0
C824 C 0.56579 0.15378 0.68874 0.0
C825 C 0.56653 0.13089 0.72585 0.0
C826 C 0.58075 0.09912 0.71946 0.0
C827 C 0.59127 0.11159 0.64036 0.0
H828 H 0.58225 0.08226 0.74884 0.0
H829 H 0.60076 0.10451 0.60682 0.0
H830 H 0.59349 0.97477 0.64736 0.0
H831 H 0.69434 0.02702 0.67999 0.0
C832 C 0.61363 0.01975 0.77572 0.0
C833 C 0.67991 0.11506 0.6982 0.0
C834 C 0.52939 0.01942 0.64834 0.0
C835 C 0.63809 0.05167 0.56255 0.0
H836 H 0.69736 0.11021 0.79693 0.0
H837 H 0.6642 0.05528 0.83776 0.0
H838 H 0.54661 0.98148 0.79871 0.0
H839 H 0.49952 0.98453 0.73007 0.0
H840 H 0.51997 0.01524 0.54794 0.0
H841 H 0.58041 0.02876 0.50152 0.0
H842 H 0.69737 0.09938 0.54053 0.0
H843 H 0.71806 0.13752 0.61455 0.0
H844 H 0.62021 0.92063 0.63794 0.0
H845 H 0.72313 0.97238 0.67237 0.0
H846 H 0.57695 0.16079 0.61587 0.0
H847 H 0.55727 0.13795 0.75975 0.0
H848 H 0.66444 0.99828 0.98397 0.0
H849 H 0.60859 0.9078 0.92328 0.0
H850 H 0.60731 0.01913 0.00797 0.0
H851 H 0.55131 0.92807 0.94761 0.0
H852 H 0.452 0.98973 0.95605 0.0
H853 H 0.50896 0.96848 0.93401 0.0
H854 H 0.55744 1.01271 0.05816 0.0
H855 H 0.50087 0.03546 0.07909 0.0
C856 C 0.63994 0.98243 0.97665 0.0
C857 C 0.64124 0.95093 0.9526 0.0
C858 C 0.60695 0.99442 0.99034 0.0
C859 C 0.57405 0.97544 0.98015 0.0
C860 C 0.57562 0.9439 0.95586 0.0
C861 C 0.60859 0.932 0.94216 0.0
C862 C 0.47475 0.99529 0.97867 0.0
C863 C 0.47119 0.01465 0.01955 0.0
C864 C 0.50765 0.98258 0.96619 0.0
C865 C 0.53846 0.98863 0.99406 0.0
C866 C 0.53482 1.00768 0.03518 0.0
C867 C 0.50191 0.0204 0.04766 0.0
H868 H 0.77474 0.89104 0.23345 0.0
H869 H 0.87884 0.85623 0.20605 0.0
H870 H 0.75212 0.8316 0.25302 0.0
H871 H 0.85657 0.79666 0.2249 0.0
H872 H 0.81499 0.69822 0.30475 0.0
H873 H 0.83766 0.75733 0.28439 0.0
H874 H 0.73501 0.7748 0.22477 0.0
H875 H 0.71238 0.71584 0.24648 0.0
C876 C 0.79279 0.87059 0.23159 0.0
C877 C 0.82865 0.87849 0.21838 0.0
C878 C 0.77979 0.83628 0.24249 0.0
C879 C 0.80226 0.80861 0.24076 0.0
C880 C 0.83826 0.81683 0.22746 0.0
C881 C 0.85113 0.85111 0.21632 0.0
C882 C 0.79724 0.71476 0.28746 0.0
C883 C 0.76167 0.70228 0.27783 0.0
C884 C 0.81034 0.74878 0.27529 0.0
C885 C 0.78836 0.77164 0.25293 0.0
C886 C 0.75287 0.75868 0.24259 0.0
C887 C 0.73985 0.7246 0.25465 0.0
H888 H 0.06401 0.03229 0.45289 0.0
H889 H 0.0209 0.99392 0.58298 0.0
H890 H 1.00622 0.05214 0.43282 0.0
H891 H 0.96373 0.01597 0.56423 0.0
H892 H 0.85348 0.02929 0.49978 0.0
H893 H 0.91122 1.00838 0.52043 0.0
H894 H 0.96522 0.0927 0.44361 0.0
H895 H 0.90726 0.11278 0.42258 0.0
C896 C 0.0424 0.02805 0.4775 0.0
C897 C 0.04784 1.01113 0.51975 0.0
C898 C 1.00899 0.04006 0.46615 0.0
C899 C 0.9796 0.03596 0.49671 0.0
C900 C 0.98514 0.01938 0.53918 0.0
C901 C 0.01849 1.00714 0.55039 0.0
C902 C 0.87772 0.04387 0.48838 0.0
C903 C 0.87571 0.07371 0.46111 0.0
C904 C 0.91109 0.03175 0.50001 0.0
C905 C 0.94361 0.0489 0.48441 0.0
C906 C 0.94125 0.07841 0.45636 0.0
C907 C 0.90792 0.09034 0.44467 0.0
H908 H 0.6526 0.17518 0.67042 0.0
H909 H 0.74046 0.13919 0.74751 0.0
H910 H 0.6748 0.23535 0.68593 0.0
H911 H 0.76225 0.19909 0.76466 0.0
H912 H 0.81265 0.31087 0.75585 0.0
H913 H 0.79074 0.25119 0.73681 0.0
H914 H 0.682 0.28068 0.74091 0.0
H915 H 0.70446 0.34049 0.75897 0.0
C916 C 0.67649 0.18014 0.69121 0.0
C917 C 0.69407 0.1521 0.70867 0.0
C918 C 0.68926 0.21482 0.70043 0.0
C919 C 0.72047 0.22288 0.72707 0.0
C920 C 0.73835 0.19459 0.74382 0.0
C921 C 0.72547 0.15992 0.73464 0.0
C922 C 0.78408 0.30458 0.7522 0.0
C923 C 0.76038 0.33059 0.75852 0.0
C924 C 0.77133 0.27012 0.74171 0.0
C925 C 0.73428 0.2603 0.73727 0.0
C926 C 0.71065 0.28672 0.74325 0.0
C927 C 0.72349 0.3212 0.75378 0.0
H928 H 0.21558 0.22301 0.78645 0.0
H929 H 0.31275 0.1877 0.73075 0.0
H930 H 0.23687 0.28309 0.7688 0.0
H931 H 0.33421 0.24774 0.71252 0.0
H932 H 0.37768 0.36308 0.72918 0.0
H933 H 0.35636 0.30281 0.74614 0.0
H934 H 0.2492 0.32485 0.70779 0.0
H935 H 0.27079 0.38508 0.6913 0.0
C936 C 0.24142 0.22809 0.76997 0.0
C937 C 0.2621 0.20031 0.75934 0.0
C938 C 0.25368 0.26267 0.75961 0.0
C939 C 0.28744 0.2709 0.73888 0.0
C940 C 0.30824 0.24293 0.72867 0.0
C941 C 0.29575 0.20827 0.73863 0.0
C942 C 0.34955 0.355 0.72446 0.0
C943 C 0.32605 0.379 0.7086 0.0
C944 C 0.33726 0.32023 0.73387 0.0
C945 C 0.30083 0.30829 0.72838 0.0
C946 C 0.27731 0.33266 0.71298 0.0
C947 C 0.28972 0.36732 0.70315 0.0
H948 H 0.30935 0.80823 0.27408 0.0
H949 H 0.20176 0.83916 0.26776 0.0
H950 H 0.28772 0.74872 0.25415 0.0
H951 H 0.1794 0.77945 0.24938 0.0
H952 H 0.15062 0.67427 0.17909 0.0
H953 H 0.17272 0.73409 0.19648 0.0
H954 H 0.2588 0.69648 0.27657 0.0
H955 H 0.23757 0.63701 0.25675 0.0
C956 C 0.28093 0.8022 0.26849 0.0
C957 C 0.25737 0.82858 0.27224 0.0
C958 C 0.26829 0.7678 0.25741 0.0
C959 C 0.23144 0.75834 0.24999 0.0
C960 C 0.20794 0.78511 0.25387 0.0
C961 C 0.2207 0.81956 0.26473 0.0
C962 C 0.17427 0.67885 0.20047 0.0
C963 C 0.19164 0.65051 0.21742 0.0
C964 C 0.18694 0.71338 0.2109 0.0
C965 C 0.21771 0.72103 0.23857 0.0
C966 C 0.23528 0.69242 0.25496 0.0
C967 C 0.22265 0.65792 0.24431 0.0
H968 H 0.94942 0.48984 0.46199 0.0
H969 H 0.99707 0.53776 0.58443 0.0
H970 H 1.00645 0.46761 0.44231 0.0
H971 H 0.0536 0.51406 0.56594 0.0
H972 H 0.16114 0.4974 0.4943 0.0
H973 H 0.10399 0.51922 0.51632 0.0
H974 H 0.04787 0.42683 0.45967 0.0
H975 H 0.10515 0.40561 0.43724 0.0
C976 C 0.97191 0.49568 0.48494 0.0
C977 C 0.96804 0.51588 0.52497 0.0
C978 C 1.00481 0.48242 0.47387 0.0
C979 C 0.03521 0.48879 0.50237 0.0
C980 C 0.03126 0.50876 0.54258 0.0
C981 C 0.99838 0.52202 0.55363 0.0
C982 C 0.1366 0.48148 0.48747 0.0
C983 C 0.1378 0.44938 0.46494 0.0
C984 C 0.10363 0.49402 0.49998 0.0
C985 C 0.07074 0.47496 0.49006 0.0
C986 C 0.07222 0.44271 0.46754 0.0
C987 C 0.10516 0.43027 0.45501 0.0
H988 H 0.36005 0.53872 0.0025 0.0
H989 H 0.41429 0.61051 0.90788 0.0
H990 H 0.41669 0.51952 0.02726 0.0
H991 H 0.4715 0.58848 0.92821 0.0
H992 H 0.57694 0.55523 0.98747 0.0
H993 H 0.52097 0.5816 0.97163 0.0
H994 H 0.46137 0.48743 0.01694 0.0
H995 H 0.5161 0.46336 0.03693 0.0
C996 C 0.38423 0.55119 0.9877 0.0
C997 C 0.38233 0.5778 0.95504 0.0
C998 C 0.41728 0.53915 0.00075 0.0
C999 C 0.44999 0.55194 0.98006 0.0
C1000 C 0.4478 0.57808 0.94631 0.0
C1001 C 0.41468 0.59072 0.93421 0.0
C1002 C 0.55183 0.54047 0.99491 0.0
C1003 C 0.55184 0.50657 0.01275 0.0
C1004 C 0.51931 0.55546 0.98505 0.0
C1005 C 0.48546 0.53704 0.99229 0.0
C1006 C 0.4859 0.50346 0.01111 0.0
C1007 C 0.51806 0.48897 0.02178 0.0
H1008 H 0.16754 0.39536 0.08127 0.0
H1009 H 0.23671 0.41685 0.19885 0.0
H1010 H 0.19392 0.34047 0.06909 0.0
H1011 H 0.26395 0.36211 0.18546 0.0
H1012 H 0.26024 0.23887 0.18086 0.0
H1013 H 0.23982 0.29634 0.19177 0.0
H1014 H 0.25431 0.31761 0.04679 0.0
H1015 H 0.27679 0.26091 0.03571 0.0
C1016 C 0.18839 0.38848 0.10461 0.0
C1017 C 0.19949 0.41063 0.14154 0.0
C1018 C 0.20379 0.35703 0.09726 0.0
C1019 C 0.23073 0.34652 0.12668 0.0
C1020 C 0.24278 0.36909 0.16266 0.0
C1021 C 0.22739 0.40069 0.17003 0.0
C1022 C 0.2599 0.25576 0.15118 0.0
C1023 C 0.27035 0.24441 0.1072 0.0
C1024 C 0.24796 0.28896 0.1576 0.0
C1025 C 0.24536 0.31181 0.12025 0.0
C1026 C 0.25563 0.30064 0.07633 0.0
C1027 C 0.26825 0.26772 0.06998 0.0
H1028 H 0.3605 0.5174 0.35517 0.0
H1029 H 0.40913 0.42321 0.38936 0.0
H1030 H 0.41976 0.54796 0.34913 0.0
H1031 H 0.46787 0.45279 0.37964 0.0
H1032 H 0.57131 0.51773 0.39925 0.0
H1033 H 0.51097 0.49106 0.41097 0.0
H1034 H 0.47185 0.55686 0.30484 0.0
H1035 H 0.53229 0.58519 0.29595 0.0
C1036 C 0.38368 0.50306 0.36134 0.0
C1037 C 0.37952 0.46753 0.3725 0.0
C1038 C 0.41791 0.52058 0.35717 0.0
C1039 C 0.44915 0.50311 0.36374 0.0
C1040 C 0.44486 0.46762 0.37498 0.0
C1041 C 0.41078 0.45029 0.37969 0.0
C1042 C 0.54962 0.52699 0.37921 0.0
C1043 C 0.55639 0.55414 0.34749 0.0
C1044 C 0.51494 0.51126 0.38528 0.0
C1045 C 0.48599 0.52142 0.35873 0.0
C1046 C 0.49299 0.54854 0.32665 0.0
C1047 C 0.5277 0.56471 0.32121 0.0
H1048 H 0.28101 0.80433 0.67838 0.0
H1049 H 0.23825 0.76735 0.54724 0.0
H1050 H 0.30283 0.74769 0.69303 0.0
H1051 H 0.26106 0.71107 0.56128 0.0
H1052 H 0.27692 0.60308 0.61999 0.0
H1053 H 0.2526 0.65913 0.60771 0.0
H1054 H 0.34753 0.71087 0.66895 0.0
H1055 H 0.37081 0.6551 0.6834 0.0
C1056 C 0.27619 0.78419 0.65261 0.0
C1057 C 0.25789 0.79079 0.61145 0.0
C1058 C 0.28903 0.75164 0.66086 0.0
C1059 C 0.28385 0.72451 0.62837 0.0
C1060 C 0.26535 0.73104 0.58739 0.0
C1061 C 0.25266 0.76363 0.57903 0.0
C1062 C 0.29236 0.62634 0.63151 0.0
C1063 C 0.32607 0.62425 0.6524 0.0
C1064 C 0.27864 0.65865 0.62381 0.0
C1065 C 0.29814 0.68985 0.63688 0.0
C1066 C 0.33154 0.68763 0.65847 0.0
C1067 C 0.34511 0.65544 0.66637 0.0
H1068 H 0.94928 0.51345 0.88735 0.0
H1069 H 0.98672 0.44828 0.77967 0.0
H1070 H 1.01057 0.53882 0.89985 0.0
H1071 H 0.04795 0.4753 0.79036 0.0
H1072 H 0.13502 0.57607 0.795 0.0
H1073 H 0.07586 0.54521 0.78294 0.0
H1074 H 0.07505 0.51059 0.92425 0.0
H1075 H 0.13463 0.54083 0.93625 0.0
C1076 C 0.97072 0.50414 0.86687 0.0
C1077 C 0.96336 0.47804 0.83353 0.0
C1078 C 1.00573 0.51888 0.87378 0.0
C1079 C 0.03403 0.50884 0.84631 0.0
C1080 C 0.02664 0.48338 0.81216 0.0
C1081 C 0.99172 0.46791 0.80613 0.0
C1082 C 0.1223 0.56168 0.82341 0.0
C1083 C 0.13947 0.56088 0.86658 0.0
C1084 C 0.08857 0.54392 0.81643 0.0
C1085 C 0.07089 0.52565 0.85276 0.0
C1086 C 0.08808 0.52467 0.89583 0.0
C1087 C 0.12218 0.54177 0.90256 0.0
H1088 H 0.83475 0.59935 0.80103 0.0
H1089 H 0.72868 0.57243 0.85419 0.0
H1090 H 0.82681 0.66001 0.81093 0.0
H1091 H 0.71927 0.63428 0.86109 0.0
H1092 H 0.72694 0.74774 0.91421 0.0
H1093 H 0.7315 0.68556 0.90219 0.0
H1094 H 0.80446 0.70915 0.78876 0.0
H1095 H 0.80231 0.77057 0.80418 0.0
C1096 C 0.80936 0.60641 0.81453 0.0
C1097 C 0.78269 0.58054 0.82775 0.0
C1098 C 0.80449 0.64171 0.81958 0.0
C1099 C 0.77231 0.65302 0.83711 0.0
C1100 C 0.74481 0.62712 0.84838 0.0
C1101 C 0.74992 0.59143 0.84377 0.0
C1102 C 0.74405 0.73941 0.88689 0.0
C1103 C 0.76357 0.76425 0.85946 0.0
C1104 C 0.74641 0.7036 0.8795 0.0
C1105 C 0.76831 0.69143 0.84423 0.0
C1106 C 0.78772 0.71667 0.81687 0.0
C1107 C 0.78595 0.75229 0.825 0.0
H1108 H 0.54279 0.47865 0.6831 0.0
H1109 H 0.52289 0.56776 0.60107 0.0
H1110 H 0.60722 0.48987 0.66974 0.0
H1111 H 0.58683 0.57814 0.58526 0.0
H1112 H 0.70672 0.60777 0.59783 0.0
H1113 H 0.64277 0.59748 0.61459 0.0
H1114 H 0.65329 0.48702 0.61518 0.0
H1115 H 0.71755 0.49792 0.60011 0.0
C1116 C 0.55229 0.5005 0.66186 0.0
C1117 C 0.52776 0.52188 0.64237 0.0
C1118 C 0.58924 0.50683 0.65376 0.0
C1119 C 0.60275 0.53481 0.62591 0.0
C1120 C 0.57794 0.55655 0.60722 0.0
C1121 C 0.54109 0.55037 0.61574 0.0
C1122 C 0.69518 0.58135 0.60173 0.0
C1123 C 0.71696 0.55365 0.59793 0.0
C1124 C 0.65841 0.57532 0.611 0.0
C1125 C 0.64231 0.5413 0.61637 0.0
C1126 C 0.66445 0.5136 0.6122 0.0
C1127 C 0.70128 0.51972 0.6032 0.0
H1128 H 0.72545 0.26434 0.32775 0.0
H1129 H 0.80084 0.28955 0.43729 0.0
H1130 H 0.72107 0.32547 0.3128 0.0
H1131 H 0.79419 0.35141 0.42551 0.0
H1132 H 0.79317 0.46412 0.37606 0.0
H1133 H 0.80453 0.4028 0.38379 0.0
H1134 H 0.6969 0.37348 0.3363 0.0
H1135 H 0.68706 0.43353 0.32524 0.0
C1136 C 0.74125 0.2831 0.34865 0.0
C1137 C 0.76425 0.27191 0.38288 0.0
C1138 C 0.73826 0.31851 0.34072 0.0
C1139 C 0.75705 0.34428 0.36801 0.0
C1140 C 0.77968 0.33291 0.40295 0.0
C1141 C 0.78326 0.2973 0.41016 0.0
C1142 C 0.7723 0.44446 0.36642 0.0
C1143 C 0.73897 0.45419 0.35068 0.0
C1144 C 0.77856 0.40909 0.37151 0.0
C1145 C 0.75167 0.38237 0.36104 0.0
C1146 C 0.71881 0.39249 0.34419 0.0
C1147 C 0.71283 0.42746 0.33855 0.0
H1148 H 0.98063 0.56167 0.13986 0.0
H1149 H 0.99133 0.45182 0.14073 0.0
H1150 H 0.91645 0.55106 0.12432 0.0
H1151 H 0.92746 0.44073 0.12349 0.0
H1152 H 0.80522 0.4284 0.13058 0.0
H1153 H 0.86858 0.44005 0.15034 0.0
H1154 H 0.87237 0.53448 0.07045 0.0
H1155 H 0.80866 0.52347 0.05325 0.0
C1156 C 0.96912 0.53518 0.13661 0.0
C1157 C 0.99093 0.50759 0.14204 0.0
C1158 C 0.93225 0.52897 0.12727 0.0
C1159 C 0.91603 0.49488 0.12249 0.0
C1160 C 0.93827 0.46732 0.12771 0.0
C1161 C 0.97508 0.4736 0.13737 0.0
C1162 C 0.81968 0.45172 0.1175 0.0
C1163 C 0.80201 0.47457 0.08946 0.0
C1164 C 0.85625 0.45833 0.12842 0.0
C1165 C 0.87643 0.48814 0.11173 0.0
C1166 C 0.85825 0.51136 0.08446 0.0
C1167 C 0.82163 0.50481 0.07386 0.0
H1168 H 0.73639 0.72794 0.6767 0.0
H1169 H 0.78118 0.76461 0.5467 0.0
H1170 H 0.71353 0.7843 0.69011 0.0
H1171 H 0.75724 0.82055 0.55939 0.0
H1172 H 0.7398 0.92861 0.61773 0.0
H1173 H 0.76434 0.87268 0.60549 0.0
H1174 H 0.66891 0.82066 0.66475 0.0
H1175 H 0.64535 0.87636 0.67916 0.0
C1176 C 0.74143 0.74794 0.6509 0.0
C1177 C 0.76062 0.74133 0.61044 0.0
C1178 C 0.72794 0.78032 0.6584 0.0
C1179 C 0.73333 0.80726 0.62581 0.0
C1180 C 0.75273 0.80073 0.58553 0.0
C1181 C 0.76609 0.76831 0.57795 0.0
C1182 C 0.72425 0.90531 0.62876 0.0
C1183 C 0.69037 0.90733 0.64921 0.0
C1184 C 0.73811 0.87306 0.62105 0.0
C1185 C 0.71857 0.84182 0.63365 0.0
C1186 C 0.68493 0.84394 0.65463 0.0
C1187 C 0.6712 0.87609 0.66252 0.0
H1188 H 0.8883 0.98941 0.92916 0.0
H1189 H 0.88408 0.96654 0.78339 0.0
H1190 H 0.949 0.01768 0.91975 0.0
H1191 H 0.94429 0.99566 0.77374 0.0
H1192 H 0.04003 0.08363 0.77721 0.0
H1193 H 0.97753 0.05985 0.78645 0.0
H1194 H 1.01038 0.9911 0.89258 0.0
H1195 H 0.07282 1.01346 0.88157 0.0
C1196 C 0.90012 0.99103 0.89502 0.0
C1197 C 0.88148 0.97592 0.85696 0.0
C1198 C 0.93487 1.00698 0.88968 0.0
C1199 C 0.95136 1.00887 0.84601 0.0
C1200 C 0.93218 0.9948 0.80772 0.0
C1201 C 0.89781 0.97811 0.81324 0.0
C1202 C 0.03376 0.06355 0.80261 0.0
C1203 C 0.06117 0.05111 0.82958 0.0
C1204 C 0.99809 0.04993 0.80785 0.0
C1205 C 0.98903 0.02396 0.84071 0.0
C1206 C 0.01646 1.01154 0.86763 0.0
C1207 C 0.05216 0.02451 0.86153 0.0
H1208 H 0.7882 0.11431 0.19448 0.0
H1209 H 0.86345 0.1332 0.08264 0.0
H1210 H 0.76333 0.16979 0.17801 0.0
H1211 H 0.83978 0.18905 0.06816 0.0
H1212 H 0.75884 0.27019 0.02877 0.0
H1213 H 0.77908 0.2128 0.04165 0.0
H1214 H 0.79303 0.2358 0.1864 0.0
H1215 H 0.77493 0.29409 0.17369 0.0
C1216 C 0.79947 0.13011 0.16644 0.0
C1217 C 0.82834 0.11922 0.14044 0.0
C1218 C 0.78557 0.16218 0.15753 0.0
C1219 C 0.80025 0.1843 0.12268 0.0
C1220 C 0.82806 0.17285 0.09555 0.0
C1221 C 0.84187 0.14087 0.10427 0.0
C1222 C 0.76687 0.26366 0.06334 0.0
C1223 C 0.76526 0.28766 0.09998 0.0
C1224 C 0.77812 0.23036 0.07072 0.0
C1225 C 0.78737 0.21952 0.11511 0.0
C1226 C 0.78549 0.24307 0.15189 0.0
C1227 C 0.77496 0.27668 0.14443 0.0
H1228 H 0.48138 0.93765 0.34655 0.0
H1229 H 0.44186 0.03804 0.32656 0.0
H1230 H 0.54185 0.96529 0.36012 0.0
H1231 H 0.50197 0.06581 0.33982 0.0
H1232 H 0.62021 0.10081 0.31542 0.0
H1233 H 0.56085 0.072 0.30264 0.0
H1234 H 0.57687 1.00271 0.41597 0.0
H1235 H 0.63614 0.03201 0.42958 0.0
C1236 C 0.48577 0.96563 0.34484 0.0
C1237 C 0.45719 0.98567 0.33448 0.0
C1238 C 0.52029 0.98151 0.35288 0.0
C1239 C 0.527 0.01785 0.35067 0.0
C1240 C 0.49808 0.03779 0.34091 0.0
C1241 C 0.46362 0.02193 0.33329 0.0
C1242 C 0.61108 0.07972 0.33809 0.0
C1243 C 0.63327 0.06903 0.37374 0.0
C1244 C 0.57692 0.06309 0.33063 0.0
C1245 C 0.56385 0.03504 0.35834 0.0
C1246 C 0.58613 0.02394 0.39358 0.0
C1247 C 0.62027 0.04077 0.4013 0.0
H1248 H 0.2692 0.07353 0.42219 0.0
H1249 H 0.26094 0.08567 0.27493 0.0
H1250 H 0.26096 0.13519 0.43309 0.0
H1251 H 0.25303 0.14755 0.28546 0.0
H1252 H 0.29156 0.262 0.32166 0.0
H1253 H 0.29185 0.19934 0.31031 0.0
H1254 H 0.21981 0.18202 0.4257 0.0
H1255 H 0.21897 0.24498 0.43615 0.0
C1256 C 0.26452 0.08925 0.39221 0.0
C1257 C 0.26497 0.07453 0.34776 0.0
C1258 C 0.25998 0.12469 0.39839 0.0
C1259 C 0.25655 0.1467 0.3602 0.0
C1260 C 0.25593 0.13164 0.31573 0.0
C1261 C 0.25994 0.09603 0.30963 0.0
C1262 C 0.27532 0.24482 0.34413 0.0
C1263 C 0.25456 0.25856 0.37913 0.0
C1264 C 0.27546 0.2088 0.33763 0.0
C1265 C 0.25549 0.1853 0.36665 0.0
C1266 C 0.23552 0.19913 0.40258 0.0
C1267 C 0.235 0.23523 0.40863 0.0
H1268 H 0.02595 0.06328 0.10038 0.0
H1269 H 0.04739 0.97755 0.18785 0.0
H1270 H 0.0898 0.0743 0.08454 0.0
H1271 H 0.11172 0.98952 0.17447 0.0
H1272 H 0.22298 0.99791 0.10698 0.0
H1273 H 0.15884 0.98609 0.12214 0.0
H1274 H 0.14529 0.09573 0.11201 0.0
H1275 H 0.20911 0.10683 0.09508 0.0
C1276 C 0.04444 0.04669 0.11615 0.0
C1277 C 0.0315 0.01893 0.14437 0.0
C1278 C 0.0813 0.0533 0.10765 0.0
C1279 C 0.10659 0.0328 0.12791 0.0
C1280 C 0.09345 1.00554 0.15722 0.0
C1281 C 0.0565 0.99876 0.16532 0.0
C1282 C 0.2061 0.01934 0.10804 0.0
C1283 C 0.22097 0.05327 0.10001 0.0
C1284 C 0.16927 1.0127 0.11708 0.0
C1285 C 0.14623 0.03986 0.11853 0.0
C1286 C 0.16155 0.07388 0.11052 0.0
C1287 C 0.19829 0.08042 0.10116 0.0
H1288 H 0.30454 0.78412 0.91815 0.0
H1289 H 0.22661 0.76472 0.80987 0.0
H1290 H 0.30248 0.84679 0.90689 0.0
H1291 H 0.22577 0.82716 0.79701 0.0
H1292 H 0.25634 0.94237 0.76047 0.0
H1293 H 0.26475 0.88043 0.76977 0.0
H1294 H 0.25805 0.89182 0.91765 0.0
H1295 H 0.24871 0.95334 0.90804 0.0
C1296 C 0.28738 0.79322 0.89143 0.0
C1297 C 0.26668 0.76917 0.86393 0.0
C1298 C 0.28613 0.82919 0.88499 0.0
C1299 C 0.26433 0.84232 0.85053 0.0
C1300 C 0.24353 0.81821 0.82313 0.0
C1301 C 0.24425 0.78226 0.83024 0.0
C1302 C 0.25741 0.93177 0.79494 0.0
C1303 C 0.25234 0.95299 0.83353 0.0
C1304 C 0.26186 0.89614 0.80033 0.0
C1305 C 0.26201 0.88083 0.84454 0.0
C1306 C 0.25843 0.90253 0.88313 0.0
C1307 C 0.25322 0.9379 0.87766 0.0
H1308 H 0.31145 0.92545 0.59336 0.0
H1309 H 0.29937 0.03498 0.60039 0.0
H1310 H 0.37535 0.93604 0.61017 0.0
H1311 H 0.3636 0.04624 0.61544 0.0
H1312 H 0.47463 0.05454 0.68227 0.0
H1313 H 0.41022 0.04312 0.66888 0.0
H1314 H 0.43102 0.95618 0.5817 0.0
H1315 H 0.49493 0.96668 0.59761 0.0
C1316 C 0.3227 0.95188 0.59831 0.0
C1317 C 0.30054 0.97937 0.59584 0.0
C1318 C 0.35946 0.9581 0.6076 0.0
C1319 C 0.37525 0.99213 0.61426 0.0
C1320 C 0.35274 0.01964 0.61144 0.0
C1321 C 0.31589 1.01331 0.60246 0.0
C1322 C 0.46524 0.03296 0.66038 0.0
C1323 C 0.4899 1.012 0.64019 0.0
C1324 C 0.42827 0.02651 0.65227 0.0
C1325 C 0.41485 0.99882 0.6237 0.0
C1326 C 0.4398 0.97753 0.60424 0.0
C1327 C 0.47666 0.98381 0.61279 0.0
H1328 H 0.42027 0.23496 0.05348 0.0
H1329 H 0.48714 0.14973 0.04392 0.0
H1330 H 0.47316 0.27609 0.04786 0.0
H1331 H 0.54037 0.19065 0.03709 0.0
H1332 H 0.62702 0.27616 0.08585 0.0
H1333 H 0.576 0.23228 0.0845 0.0
H1334 H 0.51877 0.29807 0.99502 0.0
H1335 H 0.56922 0.34204 0.99798 0.0
C1336 C 0.44642 0.22523 0.04956 0.0
C1337 C 0.45001 0.18952 0.04898 0.0
C1338 C 0.47667 0.24862 0.0461 0.0
C1339 C 0.51105 0.23666 0.04186 0.0
C1340 C 0.51437 0.20071 0.04078 0.0
C1341 C 0.48405 0.17733 0.04435 0.0
C1342 C 0.60366 0.28072 0.06538 0.0
C1343 C 0.60197 0.31202 0.04157 0.0
C1344 C 0.57452 0.25571 0.06446 0.0
C1345 C 0.54321 0.26175 0.0398 0.0
C1346 C 0.54221 0.2928 0.01488 0.0
C1347 C 0.57119 0.31776 0.01603 0.0
H1348 H 0.47098 0.85947 0.24103 0.0
H1349 H 0.4071 0.77424 0.30357 0.0
H1350 H 0.52196 0.82386 0.23664 0.0
H1351 H 0.45809 0.7386 0.29912 0.0
H1352 H 0.54832 0.67635 0.24613 0.0
H1353 H 0.49775 0.71204 0.23847 0.0
H1354 H 0.56086 0.79857 0.29962 0.0
H1355 H 0.6116 0.76282 0.30724 0.0
C1356 C 0.4677 0.8329 0.25304 0.0
C1357 C 0.43517 0.81949 0.27256 0.0
C1358 C 0.49691 0.8127 0.25089 0.0
C1359 C 0.49391 0.77859 0.26764 0.0
C1360 C 0.46099 0.76477 0.28567 0.0
C1361 C 0.43194 0.78514 0.28843 0.0
C1362 C 0.55158 0.70319 0.25715 0.0
C1363 C 0.58385 0.71693 0.27718 0.0
C1364 C 0.52258 0.72345 0.25312 0.0
C1365 C 0.52545 0.75795 0.26855 0.0
C1366 C 0.55809 0.77208 0.28715 0.0
C1367 C 0.58698 0.75165 0.29176 0.0
H1368 H 0.11234 0.79259 0.58665 0.0
H1369 H 0.04382 0.86282 0.52253 0.0
H1370 H 0.06356 0.74644 0.58463 0.0
H1371 H 0.99491 0.81676 0.51979 0.0
H1372 H 0.90658 0.73861 0.57927 0.0
H1373 H 0.95563 0.78445 0.5759 0.0
H1374 H 0.02742 0.70942 0.52979 0.0
H1375 H 0.9782 0.66374 0.53384 0.0
C1376 C 0.08682 0.79784 0.5717 0.0
C1377 C 0.0815 0.83085 0.55461 0.0
C1378 C 0.05901 0.77155 0.57032 0.0
C1379 C 0.02539 0.778 0.55206 0.0
C1380 C 0.02038 0.81113 0.53449 0.0
C1381 C 0.04827 0.83734 0.53573 0.0
C1382 C 0.93288 0.73223 0.56819 0.0
C1383 C 0.939 0.69805 0.55673 0.0
C1384 C 0.96085 0.75833 0.56601 0.0
C1385 C 0.99539 0.75052 0.55256 0.0
C1386 C 1.00122 0.71616 0.54072 0.0
C1387 C 0.97318 0.69012 0.54275 0.0
H1388 H 0.11318 0.25634 0.79787 0.0
H1389 H 0.04845 0.17117 0.73603 0.0
H1390 H 0.06261 0.2925 0.79287 0.0
H1391 H 0.99799 0.20729 0.73093 0.0
H1392 H 0.90795 0.27025 0.7954 0.0
H1393 H 0.95842 0.2339 0.79105 0.0
H1394 H 0.02419 0.31922 0.73173 0.0
H1395 H 0.97386 0.35553 0.7362 0.0
C1396 C 0.08823 0.2455 0.78291 0.0
C1397 C 0.08472 0.21105 0.76724 0.0
C1398 C 0.05941 0.26619 0.77979 0.0
C1399 C 0.0264 0.25262 0.76157 0.0
C1400 C 0.02306 0.21831 0.74535 0.0
C1401 C 0.05201 0.19779 0.74789 0.0
C1402 C 0.93312 0.28106 0.78108 0.0
C1403 C 0.937 0.31563 0.76604 0.0
C1404 C 0.96189 0.26027 0.77836 0.0
C1405 C 0.9952 0.27384 0.76119 0.0
C1406 C 0.99887 0.30821 0.74539 0.0
C1407 C 0.97 0.32884 0.74754 0.0
H1408 H 0.42584 0.7561 0.98302 0.0
H1409 H 0.45655 0.65924 0.9275 0.0
H1410 H 0.48854 0.77514 0.9957 0.0
H1411 H 0.51933 0.6775 0.94182 0.0
H1412 H 0.60132 0.80641 0.01419 0.0
H1413 H 0.54655 0.77024 0.0307 0.0
H1414 H 0.55422 0.7206 0.8975 0.0
H1415 H 0.60971 0.75537 0.8822 0.0
C1416 C 0.44606 0.73854 0.97489 0.0
C1417 C 0.4368 0.70669 0.95331 0.0
C1418 C 0.4819 0.74919 0.98259 0.0
C1419 C 0.50879 0.7279 0.96916 0.0
C1420 C 0.49912 0.69463 0.95165 0.0
C1421 C 0.46334 0.68424 0.94334 0.0
C1422 C 0.5918 0.78699 0.98913 0.0
C1423 C 0.60915 0.78404 0.94649 0.0
C1424 C 0.56046 0.76645 -0.00148 0.0
C1425 C 0.54598 0.74294 0.96524 0.0
C1426 C 0.56488 0.73826 0.92408 0.0
C1427 C 0.59627 0.75861 0.91485 0.0
H1428 H 0.60114 0.21536 0.66722 0.0
H1429 H 0.50211 0.16941 0.72444 0.0
H1430 H 0.57879 0.27268 0.67284 0.0
H1431 H 0.4789 0.22649 0.72837 0.0
H1432 H 0.508 0.35685 0.62666 0.0
H1433 H 0.53513 0.30211 0.63203 0.0
H1434 H 0.484 0.28247 0.76432 0.0
H1435 H 0.45496 0.33633 0.75745 0.0
C1436 C 0.57455 0.21771 0.68098 0.0
C1437 C 0.55307 0.1883 0.69504 0.0
C1438 C 0.56171 0.25037 0.68406 0.0
C1439 C 0.52695 0.25403 0.70055 0.0
C1440 C 0.50595 0.22457 0.71603 0.0
C1441 C 0.51905 0.19193 0.71357 0.0
C1442 C 0.50236 0.34071 0.65671 0.0
C1443 C 0.47918 0.35068 0.69144 0.0
C1444 C 0.51835 0.30961 0.66017 0.0
C1445 C 0.51177 0.28803 0.69869 0.0
C1446 C 0.48927 0.29841 0.73401 0.0
C1447 C 0.47299 0.32941 0.73034 0.0
H1448 H 0.10675 0.25103 0.40134 0.0
H1449 H 0.09883 0.30045 0.53451 0.0
H1450 H 0.05252 0.21481 0.41725 0.0
H1451 H 0.0455 0.26251 0.55189 0.0
H1452 H 0.95467 0.15533 0.44139 0.0
H1453 H 0.01732 0.17166 0.45844 0.0
H1454 H 0.98736 0.26725 0.51971 0.0
H1455 H 0.92467 0.24958 0.50514 0.0
C1456 C 0.09372 0.25357 0.43443 0.0
C1457 C 0.10616 0.27918 0.46605 0.0
C1458 C 0.06306 0.2323 0.44407 0.0
C1459 C 0.0445 0.23613 0.48572 0.0
C1460 C 0.059 0.25945 0.51924 0.0
C1461 C 0.08954 0.28102 0.50935 0.0
C1462 C 0.96156 0.17927 0.45971 0.0
C1463 C 0.93526 0.20156 0.47125 0.0
C1464 C 0.99732 0.18863 0.4695 0.0
C1465 C 1.0073 0.22101 0.48955 0.0
C1466 C 0.98058 0.24196 0.50459 0.0
C1467 C 0.94471 0.23215 0.49573 0.0
H1468 H 0.94939 0.83238 0.26627 0.0
H1469 H 1.00519 0.84781 0.13629 0.0
H1470 H 0.97035 0.77414 0.27164 0.0
H1471 H 0.02473 0.78941 0.14107 0.0
H1472 H 1.00714 0.67147 0.13676 0.0
H1473 H 0.98402 0.72849 0.14128 0.0
H1474 H 0.03643 0.74674 0.27278 0.0
H1475 H 0.0608 0.69 0.26777 0.0
C1476 C 0.96647 0.82355 0.23926 0.0
C1477 C 0.97543 0.84446 0.20064 0.0
C1478 C 0.9782 0.79028 0.24226 0.0
C1479 C 0.99857 0.77751 0.20643 0.0
C1480 C 1.00847 0.79873 0.16867 0.0
C1481 C 0.99722 0.832 0.16594 0.0
C1482 C 0.0137 0.68758 0.16669 0.0
C1483 C 0.03624 0.6766 0.20153 0.0
C1484 C 1.00036 0.72001 0.16932 0.0
C1485 C 1.00892 0.74177 0.20711 0.0
C1486 C 0.02954 0.73013 0.24342 0.0
C1487 C 0.0433 0.69774 0.24056 0.0
loop_
_geom_bond_atom_site_label_1
_geom_bond_atom_site_label_2
_geom_bond_distance
_geom_bond_site_symmetry_2
_ccdc_geom_bond_type
C0 C1 1.443 . S
C0 N4 1.376 . S
C0 C38 1.389 . S
C1 C0 1.443 . S
C1 C2 1.340 . S
C1 H41 0.951 . S
C2 C1 1.340 . S
C2 C3 1.439 . S
C2 H42 0.950 . S
C3 C2 1.439 . S
C3 N4 1.374 . S
C3 C37 1.395 . S
N4 C0 1.376 . S
N4 C3 1.374 . S
N4 Co5 2.008 1_556 S
Co5 N4 2.008 1_554 S
Co5 N6 1.995 1_554 S
Co5 N11 2.008 . S
Co5 N16 1.995 . S
Co5 N21 2.282 . S
Co5 N27 2.282 1_554 S
N6 Co5 1.995 1_556 S
N6 C7 1.376 . S
N6 C10 1.383 . S
C7 N6 1.376 . S
C7 C8 1.446 . S
C7 C37 1.391 . S
C8 C7 1.446 . S
C8 C9 1.339 . S
C8 H43 0.949 . S
C9 C8 1.339 . S
C9 C10 1.439 . S
C9 H44 0.950 . S
C10 N6 1.383 . S
C10 C9 1.439 . S
C10 C39 1.392 1_556 S
N11 Co5 2.008 . S
N11 C12 1.376 . S
N11 C15 1.374 . S
C12 N11 1.376 . S
C12 C13 1.443 . S
C12 C39 1.389 . S
C13 C12 1.443 . S
C13 C14 1.340 . S
C13 H45 0.951 . S
C14 C13 1.340 . S
C14 C15 1.439 . S
C14 H46 0.950 . S
C15 N11 1.374 . S
C15 C14 1.439 . S
C15 C40 1.395 . S
N16 Co5 1.995 . S
N16 C17 1.376 . S
N16 C20 1.383 . S
C17 N16 1.376 . S
C17 C18 1.446 . S
C17 C40 1.391 . S
C18 C17 1.446 . S
C18 C19 1.339 . S
C18 H47 0.949 . S
C19 C18 1.339 . S
C19 C20 1.439 . S
C19 H48 0.950 . S
C20 N16 1.383 . S
C20 C19 1.439 . S
C20 C38 1.392 1_554 S
N21 Co5 2.282 . S
N21 C24 1.332 . S
N21 C26 1.332 1_554 S
C22 C23 1.386 . S
C22 C25 1.388 1_554 S
C23 C22 1.386 . S
C23 C24 1.382 . S
C23 H49 0.950 . S
C24 N21 1.332 . S
C24 C23 1.382 . S
C24 H35 0.952 . S
C25 C22 1.388 1_556 S
C25 C26 1.382 . S
C25 H50 0.950 . S
C26 N21 1.332 1_556 S
C26 C25 1.382 . S
C26 H36 0.948 . S
N27 Co5 2.282 1_556 S
N27 C31 1.332 . S
N27 C32 1.332 1_556 S
C28 C29 1.388 1_554 S
C28 C32 1.382 . S
C28 H51 0.950 . S
C29 C28 1.388 1_556 S
C29 C30 1.386 . S
C30 C29 1.386 . S
C30 C31 1.382 . S
C30 H52 0.950 . S
C31 N27 1.332 . S
C31 C30 1.382 . S
C31 H33 0.952 . S
C32 N27 1.332 1_554 S
C32 C28 1.382 . S
C32 H34 0.948 . S
H33 C31 0.952 . S
H34 C32 0.948 . S
H35 C24 0.952 . S
H36 C26 0.948 . S
C37 C3 1.395 . S
C37 C7 1.391 . S
C38 C0 1.389 . S
C38 C20 1.392 1_556 S
C39 C10 1.392 1_554 S
C39 C12 1.389 . S
C40 C15 1.395 . S
C40 C17 1.391 . S
H41 C1 0.951 . S
H42 C2 0.950 . S
H43 C8 0.949 . S
H44 C9 0.950 . S
H45 C13 0.951 . S
H46 C14 0.950 . S
H47 C18 0.949 . S
H48 C19 0.950 . S
H49 C23 0.950 . S
H50 C25 0.950 . S
H51 C28 0.950 . S
H52 C30 0.950 . S
C53 C54 1.443 . S
C53 N57 1.376 . S
C53 C91 1.389 . S
C54 C53 1.443 . S
C54 C55 1.340 . S
C54 H94 0.951 . S
C55 C54 1.340 . S
C55 C56 1.439 . S
C55 H95 0.950 . S
C56 C55 1.439 . S
C56 N57 1.374 . S
C56 C90 1.395 . S
N57 C53 1.376 . S
N57 C56 1.374 . S
N57 Co58 2.008 . S
Co58 N57 2.008 . S
Co58 N59 1.995 . S
Co58 N64 2.008 . S
Co58 N69 1.995 . S
Co58 N74 2.282 . S
Co58 N80 2.282 . S
N59 Co58 1.995 . S
N59 C60 1.376 . S
N59 C63 1.383 . S
C60 N59 1.376 . S
C60 C61 1.446 . S
C60 C90 1.391 . S
C61 C60 1.446 . S
C61 C62 1.339 . S
C61 H96 0.949 . S
C62 C61 1.339 . S
C62 C63 1.439 . S
C62 H97 0.950 . S
C63 N59 1.383 . S
C63 C62 1.439 . S
C63 C92 1.392 . S
N64 Co58 2.008 . S
N64 C65 1.376 . S
N64 C68 1.374 . S
C65 N64 1.376 . S
C65 C66 1.443 . S
C65 C92 1.389 . S
C66 C65 1.443 . S
C66 C67 1.340 . S
C66 H98 0.951 . S
C67 C66 1.340 . S
C67 C68 1.439 . S
C67 H99 0.950 . S
C68 N64 1.374 . S
C68 C67 1.439 . S
C68 C93 1.395 . S
N69 Co58 1.995 . S
N69 C70 1.376 . S
N69 C73 1.383 . S
C70 N69 1.376 . S
C70 C71 1.446 . S
C70 C93 1.391 . S
C71 C70 1.446 . S
C71 C72 1.339 . S
C71 H100 0.949 . S
C72 C71 1.339 . S
C72 C73 1.439 . S
C72 H101 0.950 . S
C73 N69 1.383 . S
C73 C72 1.439 . S
C73 C91 1.392 . S
N74 Co58 2.282 . S
N74 C77 1.332 . S
N74 C79 1.332 . S
C75 C76 1.386 . S
C75 C78 1.388 . S
C76 C75 1.386 . S
C76 C77 1.382 . S
C76 H102 0.950 . S
C77 N74 1.332 . S
C77 C76 1.382 . S
C77 H88 0.952 . S
C78 C75 1.388 . S
C78 C79 1.382 . S
C78 H103 0.950 . S
C79 N74 1.332 . S
C79 C78 1.382 . S
C79 H89 0.948 . S
N80 Co58 2.282 . S
N80 C84 1.332 . S
N80 C85 1.332 . S
C81 C82 1.388 . S
C81 C85 1.382 . S
C81 H104 0.950 . S
C82 C81 1.388 . S
C82 C83 1.386 . S
C83 C82 1.386 . S
C83 C84 1.382 . S
C83 H105 0.950 . S
C84 N80 1.332 . S
C84 C83 1.382 . S
C84 H86 0.952 . S
C85 N80 1.332 . S
C85 C81 1.382 . S
C85 H87 0.948 . S
H86 C84 0.952 . S
H87 C85 0.948 . S
H88 C77 0.952 . S
H89 C79 0.948 . S
C90 C56 1.395 . S
C90 C60 1.391 . S
C91 C53 1.389 . S
C91 C73 1.392 . S
C92 C63 1.392 . S
C92 C65 1.389 . S
C93 C68 1.395 . S
C93 C70 1.391 . S
H94 C54 0.951 . S
H95 C55 0.950 . S
H96 C61 0.949 . S
H97 C62 0.950 . S
H98 C66 0.951 . S
H99 C67 0.950 . S
H100 C71 0.949 . S
H101 C72 0.950 . S
H102 C76 0.950 . S
H103 C78 0.950 . S
H104 C81 0.950 . S
H105 C83 0.950 . S
C106 C107 1.443 . S
C106 N110 1.376 . S
C106 C144 1.389 . S
C107 C106 1.443 . S
C107 C108 1.340 . S
C107 H147 0.951 . S
C108 C107 1.340 . S
C108 C109 1.439 . S
C108 H148 0.950 . S
C109 C108 1.439 . S
C109 N110 1.374 . S
C109 C143 1.395 . S
N110 C106 1.376 . S
N110 C109 1.374 . S
N110 Co111 2.008 . S
Co111 N110 2.008 . S
Co111 N112 1.995 . S
Co111 N117 2.008 . S
Co111 N122 1.995 . S
Co111 N127 2.282 . S
Co111 N133 2.282 . S
N112 Co111 1.995 . S
N112 C113 1.376 . S
N112 C116 1.383 . S
C113 N112 1.376 . S
C113 C114 1.446 . S
C113 C143 1.391 . S
C114 C113 1.446 . S
C114 C115 1.339 . S
C114 H149 0.949 . S
C115 C114 1.339 . S
C115 C116 1.439 . S
C115 H150 0.950 . S
C116 N112 1.383 . S
C116 C115 1.439 . S
C116 C145 1.392 . S
N117 Co111 2.008 . S
N117 C118 1.376 . S
N117 C121 1.374 . S
C118 N117 1.376 . S
C118 C119 1.443 . S
C118 C145 1.389 . S
C119 C118 1.443 . S
C119 C120 1.340 . S
C119 H151 0.951 . S
C120 C119 1.340 . S
C120 C121 1.439 . S
C120 H152 0.950 . S
C121 N117 1.374 . S
C121 C120 1.439 . S
C121 C146 1.395 . S
N122 Co111 1.995 . S
N122 C123 1.376 . S
N122 C126 1.383 . S
C123 N122 1.376 . S
C123 C124 1.446 . S
C123 C146 1.391 . S
C124 C123 1.446 . S
C124 C125 1.339 . S
C124 H153 0.949 . S
C125 C124 1.339 . S
C125 C126 1.439 . S
C125 H154 0.950 . S
C126 N122 1.383 . S
C126 C125 1.439 . S
C126 C144 1.392 . S
N127 Co111 2.282 . S
N127 C130 1.332 . S
N127 C132 1.332 . S
C128 C129 1.386 . S
C128 C131 1.388 . S
C129 C128 1.386 . S
C129 C130 1.382 . S
C129 H155 0.950 . S
C130 N127 1.332 . S
C130 C129 1.382 . S
C130 H141 0.952 . S
C131 C128 1.388 . S
C131 C132 1.382 . S
C131 H156 0.950 . S
C132 N127 1.332 . S
C132 C131 1.382 . S
C132 H142 0.948 . S
N133 Co111 2.282 . S
N133 C137 1.332 . S
N133 C138 1.332 . S
C134 C135 1.388 . S
C134 C138 1.382 . S
C134 H157 0.950 . S
C135 C134 1.388 . S
C135 C136 1.386 . S
C136 C135 1.386 . S
C136 C137 1.382 . S
C136 H158 0.950 . S
C137 N133 1.332 . S
C137 C136 1.382 . S
C137 H139 0.952 . S
C138 N133 1.332 . S
C138 C134 1.382 . S
C138 H140 0.948 . S
H139 C137 0.952 . S
H140 C138 0.948 . S
H141 C130 0.952 . S
H142 C132 0.948 . S
C143 C109 1.395 . S
C143 C113 1.391 . S
C144 C106 1.389 . S
C144 C126 1.392 . S
C145 C116 1.392 . S
C145 C118 1.389 . S
C146 C121 1.395 . S
C146 C123 1.391 . S
H147 C107 0.951 . S
H148 C108 0.950 . S
H149 C114 0.949 . S
H150 C115 0.950 . S
H151 C119 0.951 . S
H152 C120 0.950 . S
H153 C124 0.949 . S
H154 C125 0.950 . S
H155 C129 0.950 . S
H156 C131 0.950 . S
H157 C134 0.950 . S
H158 C136 0.950 . S
C159 C160 1.443 . S
C159 N163 1.376 . S
C159 C197 1.389 . S
C160 C159 1.443 . S
C160 C161 1.340 . S
C160 H200 0.951 . S
C161 C160 1.340 . S
C161 C162 1.439 . S
C161 H201 0.950 . S
C162 C161 1.439 . S
C162 N163 1.374 . S
C162 C196 1.395 . S
N163 C159 1.376 . S
N163 C162 1.374 . S
N163 Co164 2.008 . S
Co164 N163 2.008 . S
Co164 N165 1.995 . S
Co164 N170 2.008 . S
Co164 N175 1.995 . S
Co164 N180 2.282 . S
Co164 N186 2.282 . S
N165 Co164 1.995 . S
N165 C166 1.376 . S
N165 C169 1.383 . S
C166 N165 1.376 . S
C166 C167 1.446 . S
C166 C196 1.391 . S
C167 C166 1.446 . S
C167 C168 1.339 . S
C167 H202 0.949 . S
C168 C167 1.339 . S
C168 C169 1.439 . S
C168 H203 0.950 . S
C169 N165 1.383 . S
C169 C168 1.439 . S
C169 C198 1.392 . S
N170 Co164 2.008 . S
N170 C171 1.376 . S
N170 C174 1.374 . S
C171 N170 1.376 . S
C171 C172 1.443 . S
C171 C198 1.389 . S
C172 C171 1.443 . S
C172 C173 1.340 . S
C172 H204 0.951 . S
C173 C172 1.340 . S
C173 C174 1.439 . S
C173 H205 0.950 . S
C174 N170 1.374 . S
C174 C173 1.439 . S
C174 C199 1.395 . S
N175 Co164 1.995 . S
N175 C176 1.376 . S
N175 C179 1.383 . S
C176 N175 1.376 . S
C176 C177 1.446 . S
C176 C199 1.391 . S
C177 C176 1.446 . S
C177 C178 1.339 . S
C177 H206 0.949 . S
C178 C177 1.339 . S
C178 C179 1.439 . S
C178 H207 0.950 . S
C179 N175 1.383 . S
C179 C178 1.439 . S
C179 C197 1.392 . S
N180 Co164 2.282 . S
N180 C183 1.332 . S
N180 C185 1.332 . S
C181 C182 1.386 . S
C181 C184 1.388 . S
C182 C181 1.386 . S
C182 C183 1.382 . S
C182 H208 0.950 . S
C183 N180 1.332 . S
C183 C182 1.382 . S
C183 H194 0.952 . S
C184 C181 1.388 . S
C184 C185 1.382 . S
C184 H209 0.950 . S
C185 N180 1.332 . S
C185 C184 1.382 . S
C185 H195 0.948 . S
N186 Co164 2.282 . S
N186 C190 1.332 . S
N186 C191 1.332 . S
C187 C188 1.388 . S
C187 C191 1.382 . S
C187 H210 0.950 . S
C188 C187 1.388 . S
C188 C189 1.386 . S
C189 C188 1.386 . S
C189 C190 1.382 . S
C189 H211 0.950 . S
C190 N186 1.332 . S
C190 C189 1.382 . S
C190 H192 0.952 . S
C191 N186 1.332 . S
C191 C187 1.382 . S
C191 H193 0.948 . S
H192 C190 0.952 . S
H193 C191 0.948 . S
H194 C183 0.952 . S
H195 C185 0.948 . S
C196 C162 1.395 . S
C196 C166 1.391 . S
C197 C159 1.389 . S
C197 C179 1.392 . S
C198 C169 1.392 . S
C198 C171 1.389 . S
C199 C174 1.395 . S
C199 C176 1.391 . S
H200 C160 0.951 . S
H201 C161 0.950 . S
H202 C167 0.949 . S
H203 C168 0.950 . S
H204 C172 0.951 . S
H205 C173 0.950 . S
H206 C177 0.949 . S
H207 C178 0.950 . S
H208 C182 0.950 . S
H209 C184 0.950 . S
H210 C187 0.950 . S
H211 C189 0.950 . S
C212 C213 1.443 . S
C212 N216 1.376 . S
C212 C250 1.389 . S
C213 C212 1.443 . S
C213 C214 1.340 . S
C213 H253 0.951 . S
C214 C213 1.340 . S
C214 C215 1.439 . S
C214 H254 0.950 . S
C215 C214 1.439 . S
C215 N216 1.374 . S
C215 C249 1.395 . S
N216 C212 1.376 . S
N216 C215 1.374 . S
N216 Co217 2.008 1_554 S
Co217 N216 2.008 1_556 S
Co217 N218 1.995 1_556 S
Co217 N223 2.008 . S
Co217 N228 1.995 . S
Co217 N233 2.282 . S
Co217 N239 2.282 1_556 S
N218 Co217 1.995 1_554 S
N218 C219 1.376 . S
N218 C222 1.383 . S
C219 N218 1.376 . S
C219 C220 1.446 . S
C219 C249 1.391 . S
C220 C219 1.446 . S
C220 C221 1.339 . S
C220 H255 0.949 . S
C221 C220 1.339 . S
C221 C222 1.439 . S
C221 H256 0.950 . S
C222 N218 1.383 . S
C222 C221 1.439 . S
C222 C251 1.392 1_554 S
N223 Co217 2.008 . S
N223 C224 1.376 . S
N223 C227 1.374 . S
C224 N223 1.376 . S
C224 C225 1.443 . S
C224 C251 1.389 . S
C225 C224 1.443 . S
C225 C226 1.340 . S
C225 H257 0.951 . S
C226 C225 1.340 . S
C226 C227 1.439 . S
C226 H258 0.950 . S
C227 N223 1.374 . S
C227 C226 1.439 . S
C227 C252 1.395 . S
N228 Co217 1.995 . S
N228 C229 1.376 . S
N228 C232 1.383 . S
C229 N228 1.376 . S
C229 C230 1.446 . S
C229 C252 1.391 . S
C230 C229 1.446 . S
C230 C231 1.339 . S
C230 H259 0.949 . S
C231 C230 1.339 . S
C231 C232 1.439 . S
C231 H260 0.950 . S
C232 N228 1.383 . S
C232 C231 1.439 . S
C232 C250 1.392 1_556 S
N233 Co217 2.282 . S
N233 C236 1.332 . S
N233 C238 1.332 1_556 S
C234 C235 1.386 . S
C234 C237 1.388 1_556 S
C235 C234 1.386 . S
C235 C236 1.382 . S
C235 H261 0.950 . S
C236 N233 1.332 . S
C236 C235 1.382 . S
C236 H247 0.952 . S
C237 C234 1.388 1_554 S
C237 C238 1.382 . S
C237 H262 0.950 . S
C238 N233 1.332 1_554 S
C238 C237 1.382 . S
C238 H248 0.948 . S
N239 Co217 2.282 1_554 S
N239 C243 1.332 . S
N239 C244 1.332 1_554 S
C240 C241 1.388 1_556 S
C240 C244 1.382 . S
C240 H263 0.950 . S
C241 C240 1.388 1_554 S
C241 C242 1.386 . S
C242 C241 1.386 . S
C242 C243 1.382 . S
C242 H264 0.950 . S
C243 N239 1.332 . S
C243 C242 1.382 . S
C243 H245 0.952 . S
C244 N239 1.332 1_556 S
C244 C240 1.382 . S
C244 H246 0.948 . S
H245 C243 0.952 . S
H246 C244 0.948 . S
H247 C236 0.952 . S
H248 C238 0.948 . S
C249 C215 1.395 . S
C249 C219 1.391 . S
C250 C212 1.389 . S
C250 C232 1.392 1_554 S
C251 C222 1.392 1_556 S
C251 C224 1.389 . S
C252 C227 1.395 . S
C252 C229 1.391 . S
H253 C213 0.951 . S
H254 C214 0.950 . S
H255 C220 0.949 . S
H256 C221 0.950 . S
H257 C225 0.951 . S
H258 C226 0.950 . S
H259 C230 0.949 . S
H260 C231 0.950 . S
H261 C235 0.950 . S
H262 C237 0.950 . S
H263 C240 0.950 . S
H264 C242 0.950 . S
C265 C266 1.443 . S
C265 N269 1.376 . S
C265 C303 1.389 . S
C266 C265 1.443 . S
C266 C267 1.340 . S
C266 H306 0.951 . S
C267 C266 1.340 . S
C267 C268 1.439 . S
C267 H307 0.950 . S
C268 C267 1.439 . S
C268 N269 1.374 . S
C268 C302 1.395 . S
N269 C265 1.376 . S
N269 C268 1.374 . S
N269 Co270 2.008 . S
Co270 N269 2.008 . S
Co270 N271 1.995 . S
Co270 N276 2.008 . S
Co270 N281 1.995 . S
Co270 N286 2.282 . S
Co270 N292 2.282 . S
N271 Co270 1.995 . S
N271 C272 1.376 . S
N271 C275 1.383 . S
C272 N271 1.376 . S
C272 C273 1.446 . S
C272 C302 1.391 . S
C273 C272 1.446 . S
C273 C274 1.339 . S
C273 H308 0.949 . S
C274 C273 1.339 . S
C274 C275 1.439 . S
C274 H309 0.950 . S
C275 N271 1.383 . S
C275 C274 1.439 . S
C275 C304 1.392 . S
N276 Co270 2.008 . S
N276 C277 1.376 . S
N276 C280 1.374 . S
C277 N276 1.376 . S
C277 C278 1.443 . S
C277 C304 1.389 . S
C278 C277 1.443 . S
C278 C279 1.340 . S
C278 H310 0.951 . S
C279 C278 1.340 . S
C279 C280 1.439 . S
C279 H311 0.950 . S
C280 N276 1.374 . S
C280 C279 1.439 . S
C280 C305 1.395 . S
N281 Co270 1.995 . S
N281 C282 1.376 . S
N281 C285 1.383 . S
C282 N281 1.376 . S
C282 C283 1.446 . S
C282 C305 1.391 . S
C283 C282 1.446 . S
C283 C284 1.339 . S
C283 H312 0.949 . S
C284 C283 1.339 . S
C284 C285 1.439 . S
C284 H313 0.950 . S
C285 N281 1.383 . S
C285 C284 1.439 . S
C285 C303 1.392 . S
N286 Co270 2.282 . S
N286 C289 1.332 . S
N286 C291 1.332 . S
C287 C288 1.386 . S
C287 C290 1.388 . S
C288 C287 1.386 . S
C288 C289 1.382 . S
C288 H314 0.950 . S
C289 N286 1.332 . S
C289 C288 1.382 . S
C289 H300 0.952 . S
C290 C287 1.388 . S
C290 C291 1.382 . S
C290 H315 0.950 . S
C291 N286 1.332 . S
C291 C290 1.382 . S
C291 H301 0.948 . S
N292 Co270 2.282 . S
N292 C296 1.332 . S
N292 C297 1.332 . S
C293 C294 1.388 . S
C293 C297 1.382 . S
C293 H316 0.950 . S
C294 C293 1.388 . S
C294 C295 1.386 . S
C295 C294 1.386 . S
C295 C296 1.382 . S
C295 H317 0.950 . S
C296 N292 1.332 . S
C296 C295 1.382 . S
C296 H298 0.952 . S
C297 N292 1.332 . S
C297 C293 1.382 . S
C297 H299 0.948 . S
H298 C296 0.952 . S
H299 C297 0.948 . S
H300 C289 0.952 . S
H301 C291 0.948 . S
C302 C268 1.395 . S
C302 C272 1.391 . S
C303 C265 1.389 . S
C303 C285 1.392 . S
C304 C275 1.392 . S
C304 C277 1.389 . S
C305 C280 1.395 . S
C305 C282 1.391 . S
H306 C266 0.951 . S
H307 C267 0.950 . S
H308 C273 0.949 . S
H309 C274 0.950 . S
H310 C278 0.951 . S
H311 C279 0.950 . S
H312 C283 0.949 . S
H313 C284 0.950 . S
H314 C288 0.950 . S
H315 C290 0.950 . S
H316 C293 0.950 . S
H317 C295 0.950 . S
C318 C319 1.443 . S
C318 N322 1.376 . S
C318 C356 1.389 . S
C319 C318 1.443 . S
C319 C320 1.340 . S
C319 H359 0.951 . S
C320 C319 1.340 . S
C320 C321 1.439 . S
C320 H360 0.950 . S
C321 C320 1.439 . S
C321 N322 1.374 . S
C321 C355 1.395 . S
N322 C318 1.376 . S
N322 C321 1.374 . S
N322 Co323 2.008 . S
Co323 N322 2.008 . S
Co323 N324 1.995 . S
Co323 N329 2.008 . S
Co323 N334 1.995 . S
Co323 N339 2.282 . S
Co323 N345 2.282 . S
N324 Co323 1.995 . S
N324 C325 1.376 . S
N324 C328 1.383 . S
C325 N324 1.376 . S
C325 C326 1.446 . S
C325 C355 1.391 . S
C326 C325 1.446 . S
C326 C327 1.339 . S
C326 H361 0.949 . S
C327 C326 1.339 . S
C327 C328 1.439 . S
C327 H362 0.950 . S
C328 N324 1.383 . S
C328 C327 1.439 . S
C328 C357 1.392 . S
N329 Co323 2.008 . S
N329 C330 1.376 . S
N329 C333 1.374 . S
C330 N329 1.376 . S
C330 C331 1.443 . S
C330 C357 1.389 . S
C331 C330 1.443 . S
C331 C332 1.340 . S
C331 H363 0.951 . S
C332 C331 1.340 . S
C332 C333 1.439 . S
C332 H364 0.950 . S
C333 N329 1.374 . S
C333 C332 1.439 . S
C333 C358 1.395 . S
N334 Co323 1.995 . S
N334 C335 1.376 . S
N334 C338 1.383 . S
C335 N334 1.376 . S
C335 C336 1.446 . S
C335 C358 1.391 . S
C336 C335 1.446 . S
C336 C337 1.339 . S
C336 H365 0.949 . S
C337 C336 1.339 . S
C337 C338 1.439 . S
C337 H366 0.950 . S
C338 N334 1.383 . S
C338 C337 1.439 . S
C338 C356 1.392 . S
N339 Co323 2.282 . S
N339 C342 1.332 . S
N339 C344 1.332 . S
C340 C341 1.386 . S
C340 C343 1.388 . S
C341 C340 1.386 . S
C341 C342 1.382 . S
C341 H367 0.950 . S
C342 N339 1.332 . S
C342 C341 1.382 . S
C342 H353 0.952 . S
C343 C340 1.388 . S
C343 C344 1.382 . S
C343 H368 0.950 . S
C344 N339 1.332 . S
C344 C343 1.382 . S
C344 H354 0.948 . S
N345 Co323 2.282 . S
N345 C349 1.332 . S
N345 C350 1.332 . S
C346 C347 1.388 . S
C346 C350 1.382 . S
C346 H369 0.950 . S
C347 C346 1.388 . S
C347 C348 1.386 . S
C348 C347 1.386 . S
C348 C349 1.382 . S
C348 H370 0.950 . S
C349 N345 1.332 . S
C349 C348 1.382 . S
C349 H351 0.952 . S
C350 N345 1.332 . S
C350 C346 1.382 . S
C350 H352 0.948 . S
H351 C349 0.952 . S
H352 C350 0.948 . S
H353 C342 0.952 . S
H354 C344 0.948 . S
C355 C321 1.395 . S
C355 C325 1.391 . S
C356 C318 1.389 . S
C356 C338 1.392 . S
C357 C328 1.392 . S
C357 C330 1.389 . S
C358 C333 1.395 . S
C358 C335 1.391 . S
H359 C319 0.951 . S
H360 C320 0.950 . S
H361 C326 0.949 . S
H362 C327 0.950 . S
H363 C331 0.951 . S
H364 C332 0.950 . S
H365 C336 0.949 . S
H366 C337 0.950 . S
H367 C341 0.950 . S
H368 C343 0.950 . S
H369 C346 0.950 . S
H370 C348 0.950 . S
C371 C372 1.443 . S
C371 N375 1.376 . S
C371 C409 1.389 . S
C372 C371 1.443 . S
C372 C373 1.340 . S
C372 H412 0.951 . S
C373 C372 1.340 . S
C373 C374 1.439 . S
C373 H413 0.950 . S
C374 C373 1.439 . S
C374 N375 1.374 . S
C374 C408 1.395 . S
N375 C371 1.376 . S
N375 C374 1.374 . S
N375 Co376 2.008 . S
Co376 N375 2.008 . S
Co376 N377 1.995 . S
Co376 N382 2.008 . S
Co376 N387 1.995 . S
Co376 N392 2.282 . S
Co376 N398 2.282 . S
N377 Co376 1.995 . S
N377 C378 1.376 . S
N377 C381 1.383 . S
C378 N377 1.376 . S
C378 C379 1.446 . S
C378 C408 1.391 . S
C379 C378 1.446 . S
C379 C380 1.339 . S
C379 H414 0.949 . S
C380 C379 1.339 . S
C380 C381 1.439 . S
C380 H415 0.950 1_455 S
C381 N377 1.383 . S
C381 C380 1.439 . S
C381 C410 1.392 . S
N382 Co376 2.008 . S
N382 C383 1.376 . S
N382 C386 1.374 . S
C383 N382 1.376 . S
C383 C384 1.443 . S
C383 C410 1.389 . S
C384 C383 1.443 . S
C384 C385 1.340 . S
C384 H416 0.935 1_455 S
C385 C384 1.340 . S
C385 C386 1.439 . S
C385 H417 0.950 . S
C386 N382 1.374 . S
C386 C385 1.439 . S
C386 C411 1.395 . S
N387 Co376 1.995 . S
N387 C388 1.376 . S
N387 C391 1.383 . S
C388 N387 1.376 . S
C388 C389 1.446 . S
C388 C411 1.391 . S
C389 C388 1.446 . S
C389 C390 1.339 . S
C389 H418 0.949 . S
C390 C389 1.339 . S
C390 C391 1.439 . S
C390 H419 0.950 . S
C391 N387 1.383 . S
C391 C390 1.439 . S
C391 C409 1.392 . S
N392 Co376 2.282 . S
N392 C395 1.332 . S
N392 C397 1.332 . S
C393 C394 1.386 . S
C393 C396 1.388 . S
C394 C393 1.386 . S
C394 C395 1.382 . S
C394 H420 0.950 . S
C395 N392 1.332 . S
C395 C394 1.382 . S
C395 H406 0.952 . S
C396 C393 1.388 . S
C396 C397 1.382 . S
C396 H421 0.950 . S
C397 N392 1.332 . S
C397 C396 1.382 . S
C397 H407 0.948 . S
N398 Co376 2.282 . S
N398 C402 1.332 . S
N398 C403 1.332 . S
C399 C400 1.388 . S
C399 C403 1.382 . S
C399 H422 0.950 . S
C400 C399 1.388 . S
C400 C401 1.386 . S
C401 C400 1.386 . S
C401 C402 1.382 . S
C401 H423 0.950 . S
C402 N398 1.332 . S
C402 C401 1.382 . S
C402 H404 0.952 . S
C403 N398 1.332 . S
C403 C399 1.382 . S
C403 H405 0.948 . S
H404 C402 0.952 . S
H405 C403 0.948 . S
H406 C395 0.952 . S
H407 C397 0.948 . S
C408 C374 1.395 . S
C408 C378 1.391 . S
C409 C371 1.389 . S
C409 C391 1.392 . S
C410 C381 1.392 . S
C410 C383 1.389 . S
C411 C386 1.395 . S
C411 C388 1.391 . S
H412 C372 0.951 . S
H413 C373 0.950 . S
H414 C379 0.949 . S
H415 C380 0.950 1_655 S
H416 C384 0.935 1_655 S
H417 C385 0.950 . S
H418 C389 0.949 . S
H419 C390 0.950 . S
H420 C394 0.950 . S
H421 C396 0.950 . S
H422 C399 0.950 . S
H423 C401 0.950 . S
C424 C425 1.443 . S
C424 N428 1.376 . S
C424 C462 1.389 . S
C425 C424 1.443 . S
C425 C426 1.340 . S
C425 H465 0.951 . S
C426 C425 1.340 . S
C426 C427 1.439 . S
C426 H466 0.950 . S
C427 C426 1.439 . S
C427 N428 1.374 . S
C427 C461 1.395 . S
N428 C424 1.376 . S
N428 C427 1.374 . S
N428 Co429 2.008 . S
Co429 N428 2.008 . S
Co429 N430 1.995 . S
Co429 N435 2.008 . S
Co429 N440 1.995 . S
Co429 N445 2.282 . S
Co429 N451 2.282 . S
N430 Co429 1.995 . S
N430 C431 1.376 . S
N430 C434 1.383 . S
C431 N430 1.376 . S
C431 C432 1.446 . S
C431 C461 1.391 . S
C432 C431 1.446 . S
C432 C433 1.339 . S
C432 H467 0.949 . S
C433 C432 1.339 . S
C433 C434 1.439 . S
C433 H468 0.950 . S
C434 N430 1.383 . S
C434 C433 1.439 . S
C434 C463 1.392 . S
N435 Co429 2.008 . S
N435 C436 1.376 . S
N435 C439 1.374 . S
C436 N435 1.376 . S
C436 C437 1.443 . S
C436 C463 1.389 . S
C437 C436 1.443 . S
C437 C438 1.340 . S
C437 H469 0.951 . S
C438 C437 1.340 . S
C438 C439 1.439 . S
C438 H470 0.950 . S
C439 N435 1.374 . S
C439 C438 1.439 . S
C439 C464 1.395 . S
N440 Co429 1.995 . S
N440 C441 1.376 . S
N440 C444 1.383 . S
C441 N440 1.376 . S
C441 C442 1.446 . S
C441 C464 1.391 . S
C442 C441 1.446 . S
C442 C443 1.339 . S
C442 H471 0.949 . S
C443 C442 1.339 . S
C443 C444 1.439 . S
C443 H472 0.950 . S
C444 N440 1.383 . S
C444 C443 1.439 . S
C444 C462 1.392 . S
N445 Co429 2.282 . S
N445 C448 1.332 . S
N445 C450 1.332 . S
C446 C447 1.386 . S
C446 C449 1.388 . S
C447 C446 1.386 . S
C447 C448 1.382 . S
C447 H473 0.950 . S
C448 N445 1.332 . S
C448 C447 1.382 . S
C448 H459 0.952 . S
C449 C446 1.388 . S
C449 C450 1.382 . S
C449 H474 0.950 . S
C450 N445 1.332 . S
C450 C449 1.382 . S
C450 H460 0.948 . S
N451 Co429 2.282 . S
N451 C455 1.332 . S
N451 C456 1.332 . S
C452 C453 1.388 . S
C452 C456 1.382 . S
C452 H475 0.950 . S
C453 C452 1.388 . S
C453 C454 1.386 . S
C454 C453 1.386 . S
C454 C455 1.382 . S
C454 H476 0.950 . S
C455 N451 1.332 . S
C455 C454 1.382 . S
C455 H457 0.952 . S
C456 N451 1.332 . S
C456 C452 1.382 . S
C456 H458 0.948 . S
H457 C455 0.952 . S
H458 C456 0.948 . S
H459 C448 0.952 . S
H460 C450 0.948 . S
C461 C427 1.395 . S
C461 C431 1.391 . S
C462 C424 1.389 . S
C462 C444 1.392 . S
C463 C434 1.392 . S
C463 C436 1.389 . S
C464 C439 1.395 . S
C464 C441 1.391 . S
H465 C425 0.951 . S
H466 C426 0.950 . S
H467 C432 0.949 . S
H468 C433 0.950 . S
H469 C437 0.951 . S
H470 C438 0.950 . S
H471 C442 0.949 . S
H472 C443 0.950 . S
H473 C447 0.950 . S
H474 C449 0.950 . S
H475 C452 0.950 . S
H476 C454 0.950 . S
C477 C478 1.443 . S
C477 N481 1.376 . S
C477 C515 1.389 . S
C478 C477 1.443 . S
C478 C479 1.340 . S
C478 H518 0.951 . S
C479 C478 1.340 . S
C479 C480 1.439 . S
C479 H519 0.950 . S
C480 C479 1.439 . S
C480 N481 1.374 . S
C480 C514 1.395 . S
N481 C477 1.376 . S
N481 C480 1.374 . S
N481 Co482 2.008 . S
Co482 N481 2.008 . S
Co482 N483 1.995 . S
Co482 N488 2.008 . S
Co482 N493 1.995 . S
Co482 N498 2.282 . S
Co482 N504 2.282 . S
N483 Co482 1.995 . S
N483 C484 1.376 . S
N483 C487 1.383 . S
C484 N483 1.376 . S
C484 C485 1.446 . S
C484 C514 1.391 . S
C485 C484 1.446 . S
C485 C486 1.339 . S
C485 H520 0.949 . S
C486 C485 1.339 . S
C486 C487 1.439 . S
C486 H521 0.967 . S
C487 N483 1.383 . S
C487 C486 1.439 . S
C487 C516 1.392 1_545 S
N488 Co482 2.008 . S
N488 C489 1.376 1_545 S
N488 C492 1.374 . S
C489 N488 1.376 1_565 S
C489 C490 1.443 . S
C489 C516 1.389 . S
C490 C489 1.443 . S
C490 C491 1.340 . S
C490 H522 0.951 . S
C491 C490 1.340 . S
C491 C492 1.439 1_565 S
C491 H523 0.950 . S
C492 N488 1.374 . S
C492 C491 1.439 1_545 S
C492 C517 1.395 . S
N493 Co482 1.995 . S
N493 C494 1.376 . S
N493 C497 1.383 . S
C494 N493 1.376 . S
C494 C495 1.446 . S
C494 C517 1.391 . S
C495 C494 1.446 . S
C495 C496 1.339 . S
C495 H524 0.949 . S
C496 C495 1.339 . S
C496 C497 1.439 . S
C496 H525 0.950 . S
C497 N493 1.383 . S
C497 C496 1.439 . S
C497 C515 1.392 . S
N498 Co482 2.282 . S
N498 C501 1.332 1_545 S
N498 C503 1.332 1_545 S
C499 C500 1.386 . S
C499 C502 1.388 . S
C500 C499 1.386 . S
C500 C501 1.382 . S
C500 H526 0.950 . S
C501 N498 1.332 1_565 S
C501 C500 1.382 . S
C501 H512 0.952 . S
C502 C499 1.388 . S
C502 C503 1.382 . S
C502 H527 0.950 . S
C503 N498 1.332 1_565 S
C503 C502 1.382 . S
C503 H513 0.948 1_565 S
N504 Co482 2.282 . S
N504 C508 1.332 . S
N504 C509 1.332 . S
C505 C506 1.388 . S
C505 C509 1.382 . S
C505 H528 0.950 . S
C506 C505 1.388 . S
C506 C507 1.386 . S
C507 C506 1.386 . S
C507 C508 1.382 . S
C507 H529 0.950 . S
C508 N504 1.332 . S
C508 C507 1.382 . S
C508 H510 0.952 . S
C509 N504 1.332 . S
C509 C505 1.382 . S
C509 H511 0.948 . S
H510 C508 0.952 . S
H511 C509 0.948 . S
H512 C501 0.952 . S
H513 C503 0.948 1_545 S
C514 C480 1.395 . S
C514 C484 1.391 . S
C515 C477 1.389 . S
C515 C497 1.392 . S
C516 C487 1.392 1_565 S
C516 C489 1.389 . S
C517 C492 1.395 . S
C517 C494 1.391 . S
H518 C478 0.951 . S
H519 C479 0.950 . S
H520 C485 0.949 . S
H521 C486 0.967 . S
H522 C490 0.951 . S
H523 C491 0.950 . S
H524 C495 0.949 . S
H525 C496 0.950 . S
H526 C500 0.950 . S
H527 C502 0.950 . S
H528 C505 0.950 . S
H529 C507 0.950 . S
C530 C531 1.443 . S
C530 N534 1.376 . S
C530 C568 1.389 . S
C531 C530 1.443 . S
C531 C532 1.340 . S
C531 H571 0.951 . S
C532 C531 1.340 . S
C532 C533 1.439 . S
C532 H572 0.950 . S
C533 C532 1.439 . S
C533 N534 1.374 . S
C533 C567 1.395 . S
N534 C530 1.376 . S
N534 C533 1.374 . S
N534 Co535 2.008 1_556 S
Co535 N534 2.008 1_554 S
Co535 N536 1.995 1_554 S
Co535 N541 2.008 . S
Co535 N546 1.995 . S
Co535 N551 2.282 . S
Co535 N557 2.282 1_554 S
N536 Co535 1.995 1_556 S
N536 C537 1.376 . S
N536 C540 1.383 . S
C537 N536 1.376 . S
C537 C538 1.446 . S
C537 C567 1.391 . S
C538 C537 1.446 . S
C538 C539 1.339 . S
C538 H573 0.949 . S
C539 C538 1.339 . S
C539 C540 1.439 . S
C539 H574 0.950 . S
C540 N536 1.383 . S
C540 C539 1.439 . S
C540 C569 1.392 1_556 S
N541 Co535 2.008 . S
N541 C542 1.376 . S
N541 C545 1.374 . S
C542 N541 1.376 . S
C542 C543 1.443 . S
C542 C569 1.389 . S
C543 C542 1.443 . S
C543 C544 1.340 . S
C543 H575 0.951 . S
C544 C543 1.340 . S
C544 C545 1.439 . S
C544 H576 0.950 . S
C545 N541 1.374 . S
C545 C544 1.439 . S
C545 C570 1.395 . S
N546 Co535 1.995 . S
N546 C547 1.376 . S
N546 C550 1.383 . S
C547 N546 1.376 . S
C547 C548 1.446 . S
C547 C570 1.391 . S
C548 C547 1.446 . S
C548 C549 1.339 . S
C548 H577 0.949 . S
C549 C548 1.339 . S
C549 C550 1.439 . S
C549 H578 0.950 . S
C550 N546 1.383 . S
C550 C549 1.439 . S
C550 C568 1.392 1_554 S
N551 Co535 2.282 . S
N551 C554 1.332 . S
N551 C556 1.332 1_554 S
C552 C553 1.386 . S
C552 C555 1.388 1_554 S
C553 C552 1.386 . S
C553 C554 1.382 . S
C553 H579 0.950 . S
C554 N551 1.332 . S
C554 C553 1.382 . S
C554 H565 0.952 . S
C555 C552 1.388 1_556 S
C555 C556 1.382 . S
C555 H580 0.950 . S
C556 N551 1.332 1_556 S
C556 C555 1.382 . S
C556 H566 0.948 . S
N557 Co535 2.282 1_556 S
N557 C561 1.332 . S
N557 C562 1.332 1_556 S
C558 C559 1.388 1_554 S
C558 C562 1.382 . S
C558 H581 0.950 . S
C559 C558 1.388 1_556 S
C559 C560 1.386 . S
C560 C559 1.386 . S
C560 C561 1.382 . S
C560 H582 0.950 . S
C561 N557 1.332 . S
C561 C560 1.382 . S
C561 H563 0.952 . S
C562 N557 1.332 1_554 S
C562 C558 1.382 . S
C562 H564 0.948 . S
H563 C561 0.952 . S
H564 C562 0.948 . S
H565 C554 0.952 . S
H566 C556 0.948 . S
C567 C533 1.395 . S
C567 C537 1.391 . S
C568 C530 1.389 . S
C568 C550 1.392 1_556 S
C569 C540 1.392 1_554 S
C569 C542 1.389 . S
C570 C545 1.395 . S
C570 C547 1.391 . S
H571 C531 0.951 . S
H572 C532 0.950 . S
H573 C538 0.949 . S
H574 C539 0.950 . S
H575 C543 0.951 . S
H576 C544 0.950 . S
H577 C548 0.949 . S
H578 C549 0.950 . S
H579 C553 0.950 . S
H580 C555 0.950 . S
H581 C558 0.950 . S
H582 C560 0.950 . S
C583 C584 1.443 . S
C583 N587 1.376 . S
C583 C621 1.389 . S
C584 C583 1.443 . S
C584 C585 1.340 . S
C584 H624 0.951 . S
C585 C584 1.340 . S
C585 C586 1.439 . S
C585 H625 0.950 . S
C586 C585 1.439 . S
C586 N587 1.374 . S
C586 C620 1.395 . S
N587 C583 1.376 . S
N587 C586 1.374 . S
N587 Co588 2.008 . S
Co588 N587 2.008 . S
Co588 N589 1.995 . S
Co588 N594 2.008 . S
Co588 N599 1.995 . S
Co588 N604 2.282 . S
Co588 N610 2.282 . S
N589 Co588 1.995 . S
N589 C590 1.376 . S
N589 C593 1.383 . S
C590 N589 1.376 . S
C590 C591 1.446 . S
C590 C620 1.391 . S
C591 C590 1.446 . S
C591 C592 1.339 . S
C591 H626 0.949 . S
C592 C591 1.339 . S
C592 C593 1.439 . S
C592 H627 0.966 . S
C593 N589 1.383 . S
C593 C592 1.439 . S
C593 C622 1.392 1_565 S
N594 Co588 2.008 . S
N594 C595 1.376 1_565 S
N594 C598 1.374 . S
C595 N594 1.376 1_545 S
C595 C596 1.443 . S
C595 C622 1.389 . S
C596 C595 1.443 . S
C596 C597 1.340 . S
C596 H628 0.951 . S
C597 C596 1.340 . S
C597 C598 1.439 1_545 S
C597 H629 0.950 . S
C598 N594 1.374 . S
C598 C597 1.439 1_565 S
C598 C623 1.395 . S
N599 Co588 1.995 . S
N599 C600 1.376 . S
N599 C603 1.383 . S
C600 N599 1.376 . S
C600 C601 1.446 . S
C600 C623 1.391 . S
C601 C600 1.446 . S
C601 C602 1.339 . S
C601 H630 0.949 . S
C602 C601 1.339 . S
C602 C603 1.439 . S
C602 H631 0.950 . S
C603 N599 1.383 . S
C603 C602 1.439 . S
C603 C621 1.392 . S
N604 Co588 2.282 . S
N604 C607 1.332 1_565 S
N604 C609 1.332 1_565 S
C605 C606 1.386 . S
C605 C608 1.388 . S
C606 C605 1.386 . S
C606 C607 1.382 . S
C606 H632 0.950 . S
C607 N604 1.332 1_545 S
C607 C606 1.382 . S
C607 H618 0.952 . S
C608 C605 1.388 . S
C608 C609 1.382 . S
C608 H633 0.950 . S
C609 N604 1.332 1_545 S
C609 C608 1.382 . S
C609 H619 0.948 1_545 S
N610 Co588 2.282 . S
N610 C614 1.332 . S
N610 C615 1.332 . S
C611 C612 1.388 . S
C611 C615 1.382 . S
C611 H634 0.950 . S
C612 C611 1.388 . S
C612 C613 1.386 . S
C613 C612 1.386 . S
C613 C614 1.382 . S
C613 H635 0.950 . S
C614 N610 1.332 . S
C614 C613 1.382 . S
C614 H616 0.952 . S
C615 N610 1.332 . S
C615 C611 1.382 . S
C615 H617 0.948 . S
H616 C614 0.952 . S
H617 C615 0.948 . S
H618 C607 0.952 . S
H619 C609 0.948 1_565 S
C620 C586 1.395 . S
C620 C590 1.391 . S
C621 C583 1.389 . S
C621 C603 1.392 . S
C622 C593 1.392 1_545 S
C622 C595 1.389 . S
C623 C598 1.395 . S
C623 C600 1.391 . S
H624 C584 0.951 . S
H625 C585 0.950 . S
H626 C591 0.949 . S
H627 C592 0.966 . S
H628 C596 0.951 . S
H629 C597 0.950 . S
H630 C601 0.949 . S
H631 C602 0.950 . S
H632 C606 0.950 . S
H633 C608 0.950 . S
H634 C611 0.950 . S
H635 C613 0.950 . S
C636 C637 1.443 . S
C636 N640 1.376 . S
C636 C674 1.389 . S
C637 C636 1.443 . S
C637 C638 1.340 . S
C637 H677 0.951 . S
C638 C637 1.340 . S
C638 C639 1.439 . S
C638 H678 0.950 . S
C639 C638 1.439 . S
C639 N640 1.374 . S
C639 C673 1.395 . S
N640 C636 1.376 . S
N640 C639 1.374 . S
N640 Co641 2.008 . S
Co641 N640 2.008 . S
Co641 N642 1.995 . S
Co641 N647 2.008 . S
Co641 N652 1.995 . S
Co641 N657 2.282 . S
Co641 N663 2.282 . S
N642 Co641 1.995 . S
N642 C643 1.376 . S
N642 C646 1.383 . S
C643 N642 1.376 . S
C643 C644 1.446 . S
C643 C673 1.391 . S
C644 C643 1.446 . S
C644 C645 1.339 . S
C644 H679 0.949 . S
C645 C644 1.339 . S
C645 C646 1.439 . S
C645 H680 0.950 . S
C646 N642 1.383 . S
C646 C645 1.439 . S
C646 C675 1.392 . S
N647 Co641 2.008 . S
N647 C648 1.376 . S
N647 C651 1.374 . S
C648 N647 1.376 . S
C648 C649 1.443 . S
C648 C675 1.389 . S
C649 C648 1.443 . S
C649 C650 1.340 . S
C649 H681 0.951 . S
C650 C649 1.340 . S
C650 C651 1.439 . S
C650 H682 0.950 . S
C651 N647 1.374 . S
C651 C650 1.439 . S
C651 C676 1.395 . S
N652 Co641 1.995 . S
N652 C653 1.376 . S
N652 C656 1.383 . S
C653 N652 1.376 . S
C653 C654 1.446 . S
C653 C676 1.391 . S
C654 C653 1.446 . S
C654 C655 1.339 . S
C654 H683 0.949 . S
C655 C654 1.339 . S
C655 C656 1.439 . S
C655 H684 0.950 . S
C656 N652 1.383 . S
C656 C655 1.439 . S
C656 C674 1.392 . S
N657 Co641 2.282 . S
N657 C660 1.332 . S
N657 C662 1.332 . S
C658 C659 1.386 . S
C658 C661 1.388 . S
C659 C658 1.386 . S
C659 C660 1.382 . S
C659 H685 0.950 . S
C660 N657 1.332 . S
C660 C659 1.382 . S
C660 H671 0.952 . S
C661 C658 1.388 . S
C661 C662 1.382 . S
C661 H686 0.950 . S
C662 N657 1.332 . S
C662 C661 1.382 . S
C662 H672 0.948 . S
N663 Co641 2.282 . S
N663 C667 1.332 . S
N663 C668 1.332 . S
C664 C665 1.388 . S
C664 C668 1.382 . S
C664 H687 0.950 . S
C665 C664 1.388 . S
C665 C666 1.386 . S
C666 C665 1.386 . S
C666 C667 1.382 . S
C666 H688 0.950 . S
C667 N663 1.332 . S
C667 C666 1.382 . S
C667 H669 0.952 . S
C668 N663 1.332 . S
C668 C664 1.382 . S
C668 H670 0.948 . S
H669 C667 0.952 . S
H670 C668 0.948 . S
H671 C660 0.952 . S
H672 C662 0.948 . S
C673 C639 1.395 . S
C673 C643 1.391 . S
C674 C636 1.389 . S
C674 C656 1.392 . S
C675 C646 1.392 . S
C675 C648 1.389 . S
C676 C651 1.395 . S
C676 C653 1.391 . S
H677 C637 0.951 . S
H678 C638 0.950 . S
H679 C644 0.949 . S
H680 C645 0.950 . S
H681 C649 0.951 . S
H682 C650 0.950 . S
H683 C654 0.949 . S
H684 C655 0.950 . S
H685 C659 0.950 . S
H686 C661 0.950 . S
H687 C664 0.950 . S
H688 C666 0.950 . S
C689 C690 1.443 . S
C689 N693 1.376 . S
C689 C727 1.389 . S
C690 C689 1.443 . S
C690 C691 1.340 . S
C690 H730 0.951 . S
C691 C690 1.340 . S
C691 C692 1.439 . S
C691 H731 0.950 . S
C692 C691 1.439 . S
C692 N693 1.374 . S
C692 C726 1.395 . S
N693 C689 1.376 . S
N693 C692 1.374 . S
N693 Co694 2.008 . S
Co694 N693 2.008 . S
Co694 N695 1.995 . S
Co694 N700 2.008 . S
Co694 N705 1.995 . S
Co694 N710 2.282 . S
Co694 N716 2.282 . S
N695 Co694 1.995 . S
N695 C696 1.376 . S
N695 C699 1.400 . S
C696 N695 1.376 . S
C696 C697 1.446 1_565 S
C696 C726 1.391 . S
C697 C696 1.446 1_545 S
C697 C698 1.339 . S
C697 H732 0.949 . S
C698 C697 1.339 . S
C698 C699 1.426 1_545 S
C698 H733 0.950 1_655 S
C699 N695 1.400 . S
C699 C698 1.426 1_565 S
C699 C728 1.388 1_565 S
N700 Co694 2.008 . S
N700 C701 1.376 . S
N700 C704 1.374 . S
C701 N700 1.376 . S
C701 C702 1.443 . S
C701 C728 1.389 1_565 S
C702 C701 1.443 . S
C702 C703 1.340 . S
C702 H734 0.935 1_665 S
C703 C702 1.340 . S
C703 C704 1.439 . S
C703 H735 0.950 . S
C704 N700 1.374 . S
C704 C703 1.439 . S
C704 C729 1.395 . S
N705 Co694 1.995 . S
N705 C706 1.376 . S
N705 C709 1.383 . S
C706 N705 1.376 . S
C706 C707 1.446 . S
C706 C729 1.391 . S
C707 C706 1.446 . S
C707 C708 1.339 . S
C707 H736 0.949 . S
C708 C707 1.339 . S
C708 C709 1.439 . S
C708 H737 0.950 . S
C709 N705 1.383 . S
C709 C708 1.439 . S
C709 C727 1.392 . S
N710 Co694 2.282 . S
N710 C713 1.332 1_565 S
N710 C715 1.332 1_565 S
C711 C712 1.386 . S
C711 C714 1.388 . S
C712 C711 1.386 . S
C712 C713 1.382 . S
C712 H738 0.950 . S
C713 N710 1.332 1_545 S
C713 C712 1.382 . S
C713 H724 0.951 1_545 S
C714 C711 1.388 . S
C714 C715 1.382 . S
C714 H739 0.950 . S
C715 N710 1.332 1_545 S
C715 C714 1.382 . S
C715 H725 0.948 . S
N716 Co694 2.282 . S
N716 C720 1.332 . S
N716 C721 1.332 . S
C717 C718 1.388 . S
C717 C721 1.382 . S
C717 H740 0.950 . S
C718 C717 1.388 . S
C718 C719 1.386 . S
C719 C718 1.386 . S
C719 C720 1.382 . S
C719 H741 0.950 . S
C720 N716 1.332 . S
C720 C719 1.382 . S
C720 H722 0.952 . S
C721 N716 1.332 . S
C721 C717 1.382 . S
C721 H723 0.948 . S
H722 C720 0.952 . S
H723 C721 0.948 . S
H724 C713 0.951 1_565 S
H725 C715 0.948 . S
C726 C692 1.395 . S
C726 C696 1.391 . S
C727 C689 1.389 . S
C727 C709 1.392 . S
C728 C699 1.388 1_545 S
C728 C701 1.389 1_545 S
C729 C704 1.395 . S
C729 C706 1.391 . S
H730 C690 0.951 . S
H731 C691 0.950 . S
H732 C697 0.949 . S
H733 C698 0.950 1_455 S
H734 C702 0.935 1_445 S
H735 C703 0.950 . S
H736 C707 0.949 . S
H737 C708 0.950 . S
H738 C712 0.950 . S
H739 C714 0.950 . S
H740 C717 0.950 . S
H741 C719 0.950 . S
C742 C743 1.443 . S
C742 N746 1.376 . S
C742 C780 1.389 . S
C743 C742 1.443 . S
C743 C744 1.340 . S
C743 H783 0.951 . S
C744 C743 1.340 . S
C744 C745 1.439 . S
C744 H784 0.950 . S
C745 C744 1.439 . S
C745 N746 1.374 . S
C745 C779 1.395 . S
N746 C742 1.376 . S
N746 C745 1.374 . S
N746 Co747 2.008 1_554 S
Co747 N746 2.008 1_556 S
Co747 N748 1.995 1_556 S
Co747 N753 2.008 . S
Co747 N758 1.995 . S
Co747 N763 2.282 . S
Co747 N769 2.282 1_556 S
N748 Co747 1.995 1_554 S
N748 C749 1.376 . S
N748 C752 1.383 . S
C749 N748 1.376 . S
C749 C750 1.446 . S
C749 C779 1.391 . S
C750 C749 1.446 . S
C750 C751 1.339 . S
C750 H785 0.949 . S
C751 C750 1.339 . S
C751 C752 1.439 . S
C751 H786 0.950 . S
C752 N748 1.383 . S
C752 C751 1.439 . S
C752 C781 1.392 1_554 S
N753 Co747 2.008 . S
N753 C754 1.376 . S
N753 C757 1.374 . S
C754 N753 1.376 . S
C754 C755 1.443 . S
C754 C781 1.389 . S
C755 C754 1.443 . S
C755 C756 1.340 . S
C755 H787 0.951 . S
C756 C755 1.340 . S
C756 C757 1.439 . S
C756 H788 0.950 . S
C757 N753 1.374 . S
C757 C756 1.439 . S
C757 C782 1.395 . S
N758 Co747 1.995 . S
N758 C759 1.376 . S
N758 C762 1.383 . S
C759 N758 1.376 . S
C759 C760 1.446 . S
C759 C782 1.391 . S
C760 C759 1.446 . S
C760 C761 1.339 . S
C760 H789 0.949 . S
C761 C760 1.339 . S
C761 C762 1.439 . S
C761 H790 0.950 . S
C762 N758 1.383 . S
C762 C761 1.439 . S
C762 C780 1.392 1_556 S
N763 Co747 2.282 . S
N763 C766 1.332 . S
N763 C768 1.332 1_556 S
C764 C765 1.386 . S
C764 C767 1.388 1_556 S
C765 C764 1.386 . S
C765 C766 1.382 . S
C765 H791 0.950 . S
C766 N763 1.332 . S
C766 C765 1.382 . S
C766 H777 0.952 . S
C767 C764 1.388 1_554 S
C767 C768 1.382 . S
C767 H792 0.950 . S
C768 N763 1.332 1_554 S
C768 C767 1.382 . S
C768 H778 0.948 . S
N769 Co747 2.282 1_554 S
N769 C773 1.332 . S
N769 C774 1.332 1_554 S
C770 C771 1.388 1_556 S
C770 C774 1.382 . S
C770 H793 0.950 . S
C771 C770 1.388 1_554 S
C771 C772 1.386 . S
C772 C771 1.386 . S
C772 C773 1.382 . S
C772 H794 0.950 . S
C773 N769 1.332 . S
C773 C772 1.382 . S
C773 H775 0.952 . S
C774 N769 1.332 1_556 S
C774 C770 1.382 . S
C774 H776 0.948 . S
H775 C773 0.952 . S
H776 C774 0.948 . S
H777 C766 0.952 . S
H778 C768 0.948 . S
C779 C745 1.395 . S
C779 C749 1.391 . S
C780 C742 1.389 . S
C780 C762 1.392 1_554 S
C781 C752 1.392 1_556 S
C781 C754 1.389 . S
C782 C757 1.395 . S
C782 C759 1.391 . S
H783 C743 0.951 . S
H784 C744 0.950 . S
H785 C750 0.949 . S
H786 C751 0.950 . S
H787 C755 0.951 . S
H788 C756 0.950 . S
H789 C760 0.949 . S
H790 C761 0.950 . S
H791 C765 0.950 . S
H792 C767 0.950 . S
H793 C770 0.950 . S
H794 C772 0.950 . S
C795 C796 1.443 . S
C795 N799 1.376 . S
C795 C833 1.389 . S
C796 C795 1.443 . S
C796 C797 1.340 . S
C796 H836 0.951 . S
C797 C796 1.340 . S
C797 C798 1.439 . S
C797 H837 0.950 . S
C798 C797 1.439 . S
C798 N799 1.374 . S
C798 C832 1.395 . S
N799 C795 1.376 . S
N799 C798 1.374 . S
N799 Co800 2.008 . S
Co800 N799 2.008 . S
Co800 N801 1.995 . S
Co800 N806 2.008 . S
Co800 N811 1.995 . S
Co800 N816 2.282 . S
Co800 N822 2.282 . S
N801 Co800 1.995 . S
N801 C802 1.376 . S
N801 C805 1.399 . S
C802 N801 1.376 . S
C802 C803 1.446 1_545 S
C802 C832 1.391 . S
C803 C802 1.446 1_565 S
C803 C804 1.339 . S
C803 H838 0.949 . S
C804 C803 1.339 . S
C804 C805 1.426 1_565 S
C804 H839 0.950 . S
C805 N801 1.399 . S
C805 C804 1.426 1_545 S
C805 C834 1.388 1_545 S
N806 Co800 2.008 . S
N806 C807 1.376 . S
N806 C810 1.374 . S
C807 N806 1.376 . S
C807 C808 1.443 . S
C807 C834 1.389 1_545 S
C808 C807 1.443 . S
C808 C809 1.340 . S
C808 H840 0.951 1_545 S
C809 C808 1.340 . S
C809 C810 1.439 . S
C809 H841 0.950 . S
C810 N806 1.374 . S
C810 C809 1.439 . S
C810 C835 1.395 . S
N811 Co800 1.995 . S
N811 C812 1.376 . S
N811 C815 1.383 . S
C812 N811 1.376 . S
C812 C813 1.446 . S
C812 C835 1.391 . S
C813 C812 1.446 . S
C813 C814 1.339 . S
C813 H842 0.949 . S
C814 C813 1.339 . S
C814 C815 1.439 . S
C814 H843 0.950 . S
C815 N811 1.383 . S
C815 C814 1.439 . S
C815 C833 1.392 . S
N816 Co800 2.282 . S
N816 C819 1.332 1_545 S
N816 C821 1.332 1_545 S
C817 C818 1.386 . S
C817 C820 1.388 . S
C818 C817 1.386 . S
C818 C819 1.382 . S
C818 H844 0.950 . S
C819 N816 1.332 1_565 S
C819 C818 1.382 . S
C819 H830 0.951 1_565 S
C820 C817 1.388 . S
C820 C821 1.382 . S
C820 H845 0.950 . S
C821 N816 1.332 1_565 S
C821 C820 1.382 . S
C821 H831 0.948 . S
N822 Co800 2.282 . S
N822 C826 1.332 . S
N822 C827 1.332 . S
C823 C824 1.388 . S
C823 C827 1.382 . S
C823 H846 0.950 . S
C824 C823 1.388 . S
C824 C825 1.386 . S
C825 C824 1.386 . S
C825 C826 1.382 . S
C825 H847 0.950 . S
C826 N822 1.332 . S
C826 C825 1.382 . S
C826 H828 0.952 . S
C827 N822 1.332 . S
C827 C823 1.382 . S
C827 H829 0.948 . S
H828 C826 0.952 . S
H829 C827 0.948 . S
H830 C819 0.951 1_545 S
H831 C821 0.948 . S
C832 C798 1.395 . S
C832 C802 1.391 . S
C833 C795 1.389 . S
C833 C815 1.392 . S
C834 C805 1.388 1_565 S
C834 C807 1.389 1_565 S
C835 C810 1.395 . S
C835 C812 1.391 . S
H836 C796 0.951 . S
H837 C797 0.950 . S
H838 C803 0.949 . S
H839 C804 0.950 . S
H840 C808 0.951 1_565 S
H841 C809 0.950 . S
H842 C813 0.949 . S
H843 C814 0.950 . S
H844 C818 0.950 . S
H845 C820 0.950 . S
H846 C823 0.950 . S
H847 C825 0.950 . S
H848 C856 0.950 . S
H849 C861 0.950 . S
H850 C858 0.955 1_545 S
H851 C860 0.950 . S
H852 C862 0.950 . S
H853 C864 0.950 1_554 S
H854 C866 0.950 . S
H855 C867 0.950 . S
C856 H848 0.950 . S
C856 C857 1.386 . S
C856 C858 1.387 1_554 S
C857 C856 1.386 . S
C857 C861 1.393 . S
C858 H850 0.955 1_565 S
C858 C856 1.387 1_556 S
C858 C859 1.400 1_556 S
C859 C858 1.400 1_554 S
C859 C860 1.401 . S
C859 C865 1.489 1_554 S
C860 H851 0.950 . S
C860 C859 1.401 . S
C860 C861 1.391 . S
C861 H849 0.950 . S
C861 C857 1.393 . S
C861 C860 1.391 . S
C862 H852 0.950 . S
C862 C863 1.386 1_565 S
C862 C864 1.391 . S
C863 C862 1.386 1_545 S
C863 C867 1.393 . S
C864 H853 0.950 1_556 S
C864 C862 1.391 . S
C864 C865 1.400 . S
C865 C859 1.489 1_556 S
C865 C864 1.400 . S
C865 C866 1.398 1_565 S
C866 H854 0.950 . S
C866 C865 1.398 1_545 S
C866 C867 1.391 . S
C867 H855 0.950 . S
C867 C863 1.393 . S
C867 C866 1.391 . S
H868 C876 0.950 . S
H869 C881 0.950 . S
H870 C878 0.950 . S
H871 C880 0.950 . S
H872 C882 0.950 . S
H873 C884 0.950 . S
H874 C886 0.950 . S
H875 C887 0.950 . S
C876 H868 0.950 . S
C876 C877 1.386 . S
C876 C878 1.391 . S
C877 C876 1.386 . S
C877 C881 1.393 . S
C878 H870 0.950 . S
C878 C876 1.391 . S
C878 C879 1.400 . S
C879 C878 1.400 . S
C879 C880 1.398 . S
C879 C885 1.491 . S
C880 H871 0.950 . S
C880 C879 1.398 . S
C880 C881 1.391 . S
C881 H869 0.950 . S
C881 C877 1.393 . S
C881 C880 1.391 . S
C882 H872 0.950 . S
C882 C883 1.386 . S
C882 C884 1.391 . S
C883 C882 1.386 . S
C883 C887 1.393 . S
C884 H873 0.950 . S
C884 C882 1.391 . S
C884 C885 1.400 . S
C885 C879 1.491 . S
C885 C884 1.400 . S
C885 C886 1.398 . S
C886 H874 0.950 . S
C886 C885 1.398 . S
C886 C887 1.391 . S
C887 H875 0.950 . S
C887 C883 1.393 . S
C887 C886 1.391 . S
H888 C896 0.950 . S
H889 C901 0.950 . S
H890 C898 0.950 . S
H891 C900 0.950 . S
H892 C902 0.950 . S
H893 C904 0.950 1_565 S
H894 C906 0.950 . S
H895 C907 0.950 . S
C896 H888 0.950 . S
C896 C897 1.386 1_545 S
C896 C898 1.391 . S
C897 C896 1.386 1_565 S
C897 C901 1.393 . S
C898 H890 0.950 . S
C898 C896 1.391 . S
C898 C899 1.400 1_455 S
C899 C898 1.400 1_655 S
C899 C900 1.398 1_545 S
C899 C905 1.491 . S
C900 H891 0.950 . S
C900 C899 1.398 1_565 S
C900 C901 1.391 1_655 S
C901 H889 0.950 . S
C901 C897 1.393 . S
C901 C900 1.391 1_455 S
C902 H892 0.950 . S
C902 C903 1.386 . S
C902 C904 1.391 . S
C903 C902 1.386 . S
C903 C907 1.393 . S
C904 H893 0.950 1_545 S
C904 C902 1.391 . S
C904 C905 1.400 . S
C905 C899 1.491 . S
C905 C904 1.400 . S
C905 C906 1.398 . S
C906 H894 0.950 . S
C906 C905 1.398 . S
C906 C907 1.391 . S
C907 H895 0.950 . S
C907 C903 1.393 . S
C907 C906 1.391 . S
H908 C916 0.950 . S
H909 C921 0.950 . S
H910 C918 0.950 . S
H911 C920 0.950 . S
H912 C922 0.950 . S
H913 C924 0.950 . S
H914 C926 0.950 . S
H915 C927 0.950 . S
C916 H908 0.950 . S
C916 C917 1.386 . S
C916 C918 1.391 . S
C917 C916 1.386 . S
C917 C921 1.393 . S
C918 H910 0.950 . S
C918 C916 1.391 . S
C918 C919 1.400 . S
C919 C918 1.400 . S
C919 C920 1.398 . S
C919 C925 1.491 . S
C920 H911 0.950 . S
C920 C919 1.398 . S
C920 C921 1.391 . S
C921 H909 0.950 . S
C921 C917 1.393 . S
C921 C920 1.391 . S
C922 H912 0.950 . S
C922 C923 1.386 . S
C922 C924 1.391 . S
C923 C922 1.386 . S
C923 C927 1.393 . S
C924 H913 0.950 . S
C924 C922 1.391 . S
C924 C925 1.400 . S
C925 C919 1.491 . S
C925 C924 1.400 . S
C925 C926 1.398 . S
C926 H914 0.950 . S
C926 C925 1.398 . S
C926 C927 1.391 . S
C927 H915 0.950 . S
C927 C923 1.393 . S
C927 C926 1.391 . S
H928 C936 0.950 . S
H929 C941 0.950 . S
H930 C938 0.950 . S
H931 C940 0.950 . S
H932 C942 0.950 . S
H933 C944 0.950 . S
H934 C946 0.950 . S
H935 C947 0.950 . S
C936 H928 0.950 . S
C936 C937 1.386 . S
C936 C938 1.391 . S
C937 C936 1.386 . S
C937 C941 1.393 . S
C938 H930 0.950 . S
C938 C936 1.391 . S
C938 C939 1.400 . S
C939 C938 1.400 . S
C939 C940 1.398 . S
C939 C945 1.491 . S
C940 H931 0.950 . S
C940 C939 1.398 . S
C940 C941 1.391 . S
C941 H929 0.950 . S
C941 C937 1.393 . S
C941 C940 1.391 . S
C942 H932 0.950 . S
C942 C943 1.386 . S
C942 C944 1.391 . S
C943 C942 1.386 . S
C943 C947 1.393 . S
C944 H933 0.950 . S
C944 C942 1.391 . S
C944 C945 1.400 . S
C945 C939 1.491 . S
C945 C944 1.400 . S
C945 C946 1.398 . S
C946 H934 0.950 . S
C946 C945 1.398 . S
C946 C947 1.391 . S
C947 H935 0.950 . S
C947 C943 1.393 . S
C947 C946 1.391 . S
H948 C956 0.950 . S
H949 C961 0.950 . S
H950 C958 0.950 . S
H951 C960 0.950 . S
H952 C962 0.950 . S
H953 C964 0.950 . S
H954 C966 0.950 . S
H955 C967 0.950 . S
C956 H948 0.950 . S
C956 C957 1.386 . S
C956 C958 1.391 . S
C957 C956 1.386 . S
C957 C961 1.393 . S
C958 H950 0.950 . S
C958 C956 1.391 . S
C958 C959 1.400 . S
C959 C958 1.400 . S
C959 C960 1.398 . S
C959 C965 1.491 . S
C960 H951 0.950 . S
C960 C959 1.398 . S
C960 C961 1.391 . S
C961 H949 0.950 . S
C961 C957 1.393 . S
C961 C960 1.391 . S
C962 H952 0.950 . S
C962 C963 1.386 . S
C962 C964 1.391 . S
C963 C962 1.386 . S
C963 C967 1.393 . S
C964 H953 0.950 . S
C964 C962 1.391 . S
C964 C965 1.400 . S
C965 C959 1.491 . S
C965 C964 1.400 . S
C965 C966 1.398 . S
C966 H954 0.950 . S
C966 C965 1.398 . S
C966 C967 1.391 . S
C967 H955 0.950 . S
C967 C963 1.393 . S
C967 C966 1.391 . S
H968 C976 0.950 . S
H969 C981 0.950 . S
H970 C978 0.950 . S
H971 C980 0.950 . S
H972 C982 0.950 . S
H973 C984 0.950 . S
H974 C986 0.950 . S
H975 C987 0.950 . S
C976 H968 0.950 . S
C976 C977 1.386 . S
C976 C978 1.391 . S
C977 C976 1.386 . S
C977 C981 1.393 . S
C978 H970 0.950 . S
C978 C976 1.391 . S
C978 C979 1.400 1_655 S
C979 C978 1.400 1_455 S
C979 C980 1.398 . S
C979 C985 1.491 . S
C980 H971 0.950 . S
C980 C979 1.398 . S
C980 C981 1.391 1_455 S
C981 H969 0.950 . S
C981 C977 1.393 . S
C981 C980 1.391 1_655 S
C982 H972 0.950 . S
C982 C983 1.386 . S
C982 C984 1.391 . S
C983 C982 1.386 . S
C983 C987 1.393 . S
C984 H973 0.950 . S
C984 C982 1.391 . S
C984 C985 1.400 . S
C985 C979 1.491 . S
C985 C984 1.400 . S
C985 C986 1.398 . S
C986 H974 0.950 . S
C986 C985 1.398 . S
C986 C987 1.391 . S
C987 H975 0.950 . S
C987 C983 1.393 . S
C987 C986 1.391 . S
H988 C996 0.950 . S
H989 C1001 0.950 . S
H990 C998 0.950 . S
H991 C1000 0.950 . S
H992 C1002 0.950 1_554 S
H993 C1004 0.950 . S
H994 C1006 0.950 . S
H995 C1007 0.950 . S
C996 H988 0.950 . S
C996 C997 1.386 1_556 S
C996 C998 1.391 . S
C997 C996 1.386 1_554 S
C997 C1001 1.393 . S
C998 H990 0.950 . S
C998 C996 1.391 . S
C998 C999 1.396 1_556 S
C999 C998 1.396 1_554 S
C999 C1000 1.405 . S
C999 C1005 1.488 1_554 S
C1000 H991 0.950 . S
C1000 C999 1.405 . S
C1000 C1001 1.391 . S
C1001 H989 0.950 . S
C1001 C997 1.393 . S
C1001 C1000 1.391 . S
C1002 H992 0.950 1_556 S
C1002 C1003 1.386 . S
C1002 C1004 1.391 1_556 S
C1003 C1002 1.386 . S
C1003 C1007 1.393 . S
C1004 H993 0.950 . S
C1004 C1002 1.391 1_554 S
C1004 C1005 1.400 1_554 S
C1005 C999 1.488 1_556 S
C1005 C1004 1.400 1_556 S
C1005 C1006 1.398 . S
C1006 H994 0.950 . S
C1006 C1005 1.398 . S
C1006 C1007 1.391 . S
C1007 H995 0.950 . S
C1007 C1003 1.393 . S
C1007 C1006 1.391 . S
H1008 C1016 0.950 . S
H1009 C1021 0.950 . S
H1010 C1018 0.950 . S
H1011 C1020 0.950 . S
H1012 C1022 0.950 . S
H1013 C1024 0.950 . S
H1014 C1026 0.950 . S
H1015 C1027 0.950 . S
C1016 H1008 0.950 . S
C1016 C1017 1.386 . S
C1016 C1018 1.391 . S
C1017 C1016 1.386 . S
C1017 C1021 1.393 . S
C1018 H1010 0.950 . S
C1018 C1016 1.391 . S
C1018 C1019 1.400 . S
C1019 C1018 1.400 . S
C1019 C1020 1.398 . S
C1019 C1025 1.491 . S
C1020 H1011 0.950 . S
C1020 C1019 1.398 . S
C1020 C1021 1.391 . S
C1021 H1009 0.950 . S
C1021 C1017 1.393 . S
C1021 C1020 1.391 . S
C1022 H1012 0.950 . S
C1022 C1023 1.386 . S
C1022 C1024 1.391 . S
C1023 C1022 1.386 . S
C1023 C1027 1.393 . S
C1024 H1013 0.950 . S
C1024 C1022 1.391 . S
C1024 C1025 1.400 . S
C1025 C1019 1.491 . S
C1025 C1024 1.400 . S
C1025 C1026 1.398 . S
C1026 H1014 0.950 . S
C1026 C1025 1.398 . S
C1026 C1027 1.391 . S
C1027 H1015 0.950 . S
C1027 C1023 1.393 . S
C1027 C1026 1.391 . S
H1028 C1036 0.950 . S
H1029 C1041 0.950 . S
H1030 C1038 0.950 . S
H1031 C1040 0.950 . S
H1032 C1042 0.950 . S
H1033 C1044 0.950 . S
H1034 C1046 0.950 . S
H1035 C1047 0.950 . S
C1036 H1028 0.950 . S
C1036 C1037 1.386 . S
C1036 C1038 1.391 . S
C1037 C1036 1.386 . S
C1037 C1041 1.393 . S
C1038 H1030 0.950 . S
C1038 C1036 1.391 . S
C1038 C1039 1.400 . S
C1039 C1038 1.400 . S
C1039 C1040 1.398 . S
C1039 C1045 1.491 . S
C1040 H1031 0.950 . S
C1040 C1039 1.398 . S
C1040 C1041 1.391 . S
C1041 H1029 0.950 . S
C1041 C1037 1.393 . S
C1041 C1040 1.391 . S
C1042 H1032 0.950 . S
C1042 C1043 1.386 . S
C1042 C1044 1.391 . S
C1043 C1042 1.386 . S
C1043 C1047 1.393 . S
C1044 H1033 0.950 . S
C1044 C1042 1.391 . S
C1044 C1045 1.400 . S
C1045 C1039 1.491 . S
C1045 C1044 1.400 . S
C1045 C1046 1.398 . S
C1046 H1034 0.950 . S
C1046 C1045 1.398 . S
C1046 C1047 1.391 . S
C1047 H1035 0.950 . S
C1047 C1043 1.393 . S
C1047 C1046 1.391 . S
H1048 C1056 0.950 . S
H1049 C1061 0.950 . S
H1050 C1058 0.950 . S
H1051 C1060 0.950 . S
H1052 C1062 0.950 . S
H1053 C1064 0.950 . S
H1054 C1066 0.950 . S
H1055 C1067 0.950 . S
C1056 H1048 0.950 . S
C1056 C1057 1.386 . S
C1056 C1058 1.391 . S
C1057 C1056 1.386 . S
C1057 C1061 1.393 . S
C1058 H1050 0.950 . S
C1058 C1056 1.391 . S
C1058 C1059 1.400 . S
C1059 C1058 1.400 . S
C1059 C1060 1.398 . S
C1059 C1065 1.491 . S
C1060 H1051 0.950 . S
C1060 C1059 1.398 . S
C1060 C1061 1.391 . S
C1061 H1049 0.950 . S
C1061 C1057 1.393 . S
C1061 C1060 1.391 . S
C1062 H1052 0.950 . S
C1062 C1063 1.386 . S
C1062 C1064 1.391 . S
C1063 C1062 1.386 . S
C1063 C1067 1.393 . S
C1064 H1053 0.950 . S
C1064 C1062 1.391 . S
C1064 C1065 1.400 . S
C1065 C1059 1.491 . S
C1065 C1064 1.400 . S
C1065 C1066 1.398 . S
C1066 H1054 0.950 . S
C1066 C1065 1.398 . S
C1066 C1067 1.391 . S
C1067 H1055 0.950 . S
C1067 C1063 1.393 . S
C1067 C1066 1.391 . S
H1068 C1076 0.950 . S
H1069 C1081 0.950 . S
H1070 C1078 0.950 . S
H1071 C1080 0.950 . S
H1072 C1082 0.950 . S
H1073 C1084 0.950 . S
H1074 C1086 0.950 . S
H1075 C1087 0.950 . S
C1076 H1068 0.950 . S
C1076 C1077 1.386 . S
C1076 C1078 1.391 1_655 S
C1077 C1076 1.386 . S
C1077 C1081 1.393 1_655 S
C1078 H1070 0.950 . S
C1078 C1076 1.391 1_455 S
C1078 C1079 1.400 . S
C1079 C1078 1.400 . S
C1079 C1080 1.398 . S
C1079 C1085 1.491 . S
C1080 H1071 0.950 . S
C1080 C1079 1.398 . S
C1080 C1081 1.391 . S
C1081 H1069 0.950 . S
C1081 C1077 1.393 1_455 S
C1081 C1080 1.391 . S
C1082 H1072 0.950 . S
C1082 C1083 1.386 . S
C1082 C1084 1.391 . S
C1083 C1082 1.386 . S
C1083 C1087 1.393 . S
C1084 H1073 0.950 . S
C1084 C1082 1.391 . S
C1084 C1085 1.400 . S
C1085 C1079 1.491 . S
C1085 C1084 1.400 . S
C1085 C1086 1.398 . S
C1086 H1074 0.950 . S
C1086 C1085 1.398 . S
C1086 C1087 1.391 . S
C1087 H1075 0.950 . S
C1087 C1083 1.393 . S
C1087 C1086 1.391 . S
H1088 C1096 0.950 . S
H1089 C1101 0.950 . S
H1090 C1098 0.950 . S
H1091 C1100 0.950 . S
H1092 C1102 0.950 . S
H1093 C1104 0.950 . S
H1094 C1106 0.950 . S
H1095 C1107 0.950 . S
C1096 H1088 0.950 . S
C1096 C1097 1.386 . S
C1096 C1098 1.391 . S
C1097 C1096 1.386 . S
C1097 C1101 1.393 . S
C1098 H1090 0.950 . S
C1098 C1096 1.391 . S
C1098 C1099 1.400 . S
C1099 C1098 1.400 . S
C1099 C1100 1.398 . S
C1099 C1105 1.491 . S
C1100 H1091 0.950 . S
C1100 C1099 1.398 . S
C1100 C1101 1.391 . S
C1101 H1089 0.950 . S
C1101 C1097 1.393 . S
C1101 C1100 1.391 . S
C1102 H1092 0.950 . S
C1102 C1103 1.386 . S
C1102 C1104 1.391 . S
C1103 C1102 1.386 . S
C1103 C1107 1.393 . S
C1104 H1093 0.950 . S
C1104 C1102 1.391 . S
C1104 C1105 1.400 . S
C1105 C1099 1.491 . S
C1105 C1104 1.400 . S
C1105 C1106 1.398 . S
C1106 H1094 0.950 . S
C1106 C1105 1.398 . S
C1106 C1107 1.391 . S
C1107 H1095 0.950 . S
C1107 C1103 1.393 . S
C1107 C1106 1.391 . S
H1108 C1116 0.950 . S
H1109 C1121 0.950 . S
H1110 C1118 0.950 . S
H1111 C1120 0.950 . S
H1112 C1122 0.950 . S
H1113 C1124 0.950 . S
H1114 C1126 0.950 . S
H1115 C1127 0.950 . S
C1116 H1108 0.950 . S
C1116 C1117 1.386 . S
C1116 C1118 1.391 . S
C1117 C1116 1.386 . S
C1117 C1121 1.393 . S
C1118 H1110 0.950 . S
C1118 C1116 1.391 . S
C1118 C1119 1.400 . S
C1119 C1118 1.400 . S
C1119 C1120 1.398 . S
C1119 C1125 1.491 . S
C1120 H1111 0.950 . S
C1120 C1119 1.398 . S
C1120 C1121 1.391 . S
C1121 H1109 0.950 . S
C1121 C1117 1.393 . S
C1121 C1120 1.391 . S
C1122 H1112 0.950 . S
C1122 C1123 1.386 . S
C1122 C1124 1.391 . S
C1123 C1122 1.386 . S
C1123 C1127 1.393 . S
C1124 H1113 0.950 . S
C1124 C1122 1.391 . S
C1124 C1125 1.400 . S
C1125 C1119 1.491 . S
C1125 C1124 1.400 . S
C1125 C1126 1.398 . S
C1126 H1114 0.950 . S
C1126 C1125 1.398 . S
C1126 C1127 1.391 . S
C1127 H1115 0.950 . S
C1127 C1123 1.393 . S
C1127 C1126 1.391 . S
H1128 C1136 0.950 . S
H1129 C1141 0.950 . S
H1130 C1138 0.950 . S
H1131 C1140 0.950 . S
H1132 C1142 0.950 . S
H1133 C1144 0.950 . S
H1134 C1146 0.950 . S
H1135 C1147 0.950 . S
C1136 H1128 0.950 . S
C1136 C1137 1.386 . S
C1136 C1138 1.391 . S
C1137 C1136 1.386 . S
C1137 C1141 1.393 . S
C1138 H1130 0.950 . S
C1138 C1136 1.391 . S
C1138 C1139 1.400 . S
C1139 C1138 1.400 . S
C1139 C1140 1.398 . S
C1139 C1145 1.491 . S
C1140 H1131 0.950 . S
C1140 C1139 1.398 . S
C1140 C1141 1.391 . S
C1141 H1129 0.950 . S
C1141 C1137 1.393 . S
C1141 C1140 1.391 . S
C1142 H1132 0.950 . S
C1142 C1143 1.386 . S
C1142 C1144 1.391 . S
C1143 C1142 1.386 . S
C1143 C1147 1.393 . S
C1144 H1133 0.950 . S
C1144 C1142 1.391 . S
C1144 C1145 1.400 . S
C1145 C1139 1.491 . S
C1145 C1144 1.400 . S
C1145 C1146 1.398 . S
C1146 H1134 0.950 . S
C1146 C1145 1.398 . S
C1146 C1147 1.391 . S
C1147 H1135 0.950 . S
C1147 C1143 1.393 . S
C1147 C1146 1.391 . S
H1148 C1156 0.950 . S
H1149 C1161 0.950 . S
H1150 C1158 0.950 . S
H1151 C1160 0.950 . S
H1152 C1162 0.950 . S
H1153 C1164 0.950 . S
H1154 C1166 0.950 . S
H1155 C1167 0.950 . S
C1156 H1148 0.950 . S
C1156 C1157 1.386 . S
C1156 C1158 1.391 . S
C1157 C1156 1.386 . S
C1157 C1161 1.393 . S
C1158 H1150 0.950 . S
C1158 C1156 1.391 . S
C1158 C1159 1.400 . S
C1159 C1158 1.400 . S
C1159 C1160 1.398 . S
C1159 C1165 1.491 . S
C1160 H1151 0.950 . S
C1160 C1159 1.398 . S
C1160 C1161 1.391 . S
C1161 H1149 0.950 . S
C1161 C1157 1.393 . S
C1161 C1160 1.391 . S
C1162 H1152 0.950 . S
C1162 C1163 1.386 . S
C1162 C1164 1.391 . S
C1163 C1162 1.386 . S
C1163 C1167 1.393 . S
C1164 H1153 0.950 . S
C1164 C1162 1.391 . S
C1164 C1165 1.400 . S
C1165 C1159 1.491 . S
C1165 C1164 1.400 . S
C1165 C1166 1.398 . S
C1166 H1154 0.950 . S
C1166 C1165 1.398 . S
C1166 C1167 1.391 . S
C1167 H1155 0.950 . S
C1167 C1163 1.393 . S
C1167 C1166 1.391 . S
H1168 C1176 0.950 . S
H1169 C1181 0.950 . S
H1170 C1178 0.950 . S
H1171 C1180 0.950 . S
H1172 C1182 0.950 . S
H1173 C1184 0.950 . S
H1174 C1186 0.950 . S
H1175 C1187 0.950 . S
C1176 H1168 0.950 . S
C1176 C1177 1.386 . S
C1176 C1178 1.391 . S
C1177 C1176 1.386 . S
C1177 C1181 1.393 . S
C1178 H1170 0.950 . S
C1178 C1176 1.391 . S
C1178 C1179 1.400 . S
C1179 C1178 1.400 . S
C1179 C1180 1.398 . S
C1179 C1185 1.491 . S
C1180 H1171 0.950 . S
C1180 C1179 1.398 . S
C1180 C1181 1.391 . S
C1181 H1169 0.950 . S
C1181 C1177 1.393 . S
C1181 C1180 1.391 . S
C1182 H1172 0.950 . S
C1182 C1183 1.386 . S
C1182 C1184 1.391 . S
C1183 C1182 1.386 . S
C1183 C1187 1.393 . S
C1184 H1173 0.950 . S
C1184 C1182 1.391 . S
C1184 C1185 1.400 . S
C1185 C1179 1.491 . S
C1185 C1184 1.400 . S
C1185 C1186 1.398 . S
C1186 H1174 0.950 . S
C1186 C1185 1.398 . S
C1186 C1187 1.391 . S
C1187 H1175 0.950 . S
C1187 C1183 1.393 . S
C1187 C1186 1.391 . S
H1188 C1196 0.950 . S
H1189 C1201 0.950 . S
H1190 C1198 0.950 . S
H1191 C1200 0.950 . S
H1192 C1202 0.950 . S
H1193 C1204 0.950 . S
H1194 C1206 0.950 . S
H1195 C1207 0.950 . S
C1196 H1188 0.950 . S
C1196 C1197 1.386 . S
C1196 C1198 1.391 . S
C1197 C1196 1.386 . S
C1197 C1201 1.393 . S
C1198 H1190 0.950 . S
C1198 C1196 1.391 . S
C1198 C1199 1.400 . S
C1199 C1198 1.400 . S
C1199 C1200 1.398 . S
C1199 C1205 1.491 . S
C1200 H1191 0.950 . S
C1200 C1199 1.398 . S
C1200 C1201 1.391 . S
C1201 H1189 0.950 . S
C1201 C1197 1.393 . S
C1201 C1200 1.391 . S
C1202 H1192 0.950 . S
C1202 C1203 1.386 1_655 S
C1202 C1204 1.391 . S
C1203 C1202 1.386 1_455 S
C1203 C1207 1.393 . S
C1204 H1193 0.950 . S
C1204 C1202 1.391 . S
C1204 C1205 1.400 . S
C1205 C1199 1.491 . S
C1205 C1204 1.400 . S
C1205 C1206 1.398 . S
C1206 H1194 0.950 . S
C1206 C1205 1.398 . S
C1206 C1207 1.391 1_655 S
C1207 H1195 0.950 . S
C1207 C1203 1.393 . S
C1207 C1206 1.391 1_455 S
H1208 C1216 0.950 . S
H1209 C1221 0.950 . S
H1210 C1218 0.950 . S
H1211 C1220 0.950 . S
H1212 C1222 0.950 . S
H1213 C1224 0.950 . S
H1214 C1226 0.950 . S
H1215 C1227 0.950 . S
C1216 H1208 0.950 . S
C1216 C1217 1.386 . S
C1216 C1218 1.391 . S
C1217 C1216 1.386 . S
C1217 C1221 1.393 . S
C1218 H1210 0.950 . S
C1218 C1216 1.391 . S
C1218 C1219 1.400 . S
C1219 C1218 1.400 . S
C1219 C1220 1.398 . S
C1219 C1225 1.491 . S
C1220 H1211 0.950 . S
C1220 C1219 1.398 . S
C1220 C1221 1.391 . S
C1221 H1209 0.950 . S
C1221 C1217 1.393 . S
C1221 C1220 1.391 . S
C1222 H1212 0.950 . S
C1222 C1223 1.386 . S
C1222 C1224 1.391 . S
C1223 C1222 1.386 . S
C1223 C1227 1.393 . S
C1224 H1213 0.950 . S
C1224 C1222 1.391 . S
C1224 C1225 1.400 . S
C1225 C1219 1.491 . S
C1225 C1224 1.400 . S
C1225 C1226 1.398 . S
C1226 H1214 0.950 . S
C1226 C1225 1.398 . S
C1226 C1227 1.391 . S
C1227 H1215 0.950 . S
C1227 C1223 1.393 . S
C1227 C1226 1.391 . S
H1228 C1236 0.950 1_565 S
H1229 C1241 0.950 . S
H1230 C1238 0.950 . S
H1231 C1240 0.950 . S
H1232 C1242 0.950 . S
H1233 C1244 0.950 . S
H1234 C1246 0.950 . S
H1235 C1247 0.950 . S
C1236 H1228 0.950 1_545 S
C1236 C1237 1.386 . S
C1236 C1238 1.391 . S
C1237 C1236 1.386 . S
C1237 C1241 1.393 . S
C1238 H1230 0.950 . S
C1238 C1236 1.391 . S
C1238 C1239 1.400 . S
C1239 C1238 1.400 . S
C1239 C1240 1.398 . S
C1239 C1245 1.491 . S
C1240 H1231 0.950 . S
C1240 C1239 1.398 . S
C1240 C1241 1.391 . S
C1241 H1229 0.950 . S
C1241 C1237 1.393 . S
C1241 C1240 1.391 . S
C1242 H1232 0.950 . S
C1242 C1243 1.386 . S
C1242 C1244 1.391 . S
C1243 C1242 1.386 . S
C1243 C1247 1.393 . S
C1244 H1233 0.950 . S
C1244 C1242 1.391 . S
C1244 C1245 1.400 . S
C1245 C1239 1.491 . S
C1245 C1244 1.400 . S
C1245 C1246 1.398 . S
C1246 H1234 0.950 . S
C1246 C1245 1.398 . S
C1246 C1247 1.391 . S
C1247 H1235 0.950 . S
C1247 C1243 1.393 . S
C1247 C1246 1.391 . S
H1248 C1256 0.950 . S
H1249 C1261 0.950 . S
H1250 C1258 0.950 . S
H1251 C1260 0.950 . S
H1252 C1262 0.950 . S
H1253 C1264 0.950 . S
H1254 C1266 0.950 . S
H1255 C1267 0.950 . S
C1256 H1248 0.950 . S
C1256 C1257 1.386 . S
C1256 C1258 1.391 . S
C1257 C1256 1.386 . S
C1257 C1261 1.393 . S
C1258 H1250 0.950 . S
C1258 C1256 1.391 . S
C1258 C1259 1.400 . S
C1259 C1258 1.400 . S
C1259 C1260 1.398 . S
C1259 C1265 1.491 . S
C1260 H1251 0.950 . S
C1260 C1259 1.398 . S
C1260 C1261 1.391 . S
C1261 H1249 0.950 . S
C1261 C1257 1.393 . S
C1261 C1260 1.391 . S
C1262 H1252 0.950 . S
C1262 C1263 1.386 . S
C1262 C1264 1.391 . S
C1263 C1262 1.386 . S
C1263 C1267 1.393 . S
C1264 H1253 0.950 . S
C1264 C1262 1.391 . S
C1264 C1265 1.400 . S
C1265 C1259 1.491 . S
C1265 C1264 1.400 . S
C1265 C1266 1.398 . S
C1266 H1254 0.950 . S
C1266 C1265 1.398 . S
C1266 C1267 1.391 . S
C1267 H1255 0.950 . S
C1267 C1263 1.393 . S
C1267 C1266 1.391 . S
H1268 C1276 0.950 . S
H1269 C1281 0.950 1_565 S
H1270 C1278 0.950 . S
H1271 C1280 0.950 . S
H1272 C1282 0.950 . S
H1273 C1284 0.950 . S
H1274 C1286 0.950 . S
H1275 C1287 0.950 . S
C1276 H1268 0.950 . S
C1276 C1277 1.386 . S
C1276 C1278 1.391 . S
C1277 C1276 1.386 . S
C1277 C1281 1.393 . S
C1278 H1270 0.950 . S
C1278 C1276 1.391 . S
C1278 C1279 1.400 . S
C1279 C1278 1.400 . S
C1279 C1280 1.398 . S
C1279 C1285 1.491 . S
C1280 H1271 0.950 . S
C1280 C1279 1.398 . S
C1280 C1281 1.391 . S
C1281 H1269 0.950 1_545 S
C1281 C1277 1.393 . S
C1281 C1280 1.391 . S
C1282 H1272 0.950 . S
C1282 C1283 1.386 . S
C1282 C1284 1.391 . S
C1283 C1282 1.386 . S
C1283 C1287 1.393 . S
C1284 H1273 0.950 . S
C1284 C1282 1.391 . S
C1284 C1285 1.400 . S
C1285 C1279 1.491 . S
C1285 C1284 1.400 . S
C1285 C1286 1.398 . S
C1286 H1274 0.950 . S
C1286 C1285 1.398 . S
C1286 C1287 1.391 . S
C1287 H1275 0.950 . S
C1287 C1283 1.393 . S
C1287 C1286 1.391 . S
H1288 C1296 0.950 . S
H1289 C1301 0.950 . S
H1290 C1298 0.950 . S
H1291 C1300 0.950 . S
H1292 C1302 0.950 . S
H1293 C1304 0.950 . S
H1294 C1306 0.950 . S
H1295 C1307 0.950 . S
C1296 H1288 0.950 . S
C1296 C1297 1.386 . S
C1296 C1298 1.391 . S
C1297 C1296 1.386 . S
C1297 C1301 1.393 . S
C1298 H1290 0.950 . S
C1298 C1296 1.391 . S
C1298 C1299 1.400 . S
C1299 C1298 1.400 . S
C1299 C1300 1.398 . S
C1299 C1305 1.491 . S
C1300 H1291 0.950 . S
C1300 C1299 1.398 . S
C1300 C1301 1.391 . S
C1301 H1289 0.950 . S
C1301 C1297 1.393 . S
C1301 C1300 1.391 . S
C1302 H1292 0.950 . S
C1302 C1303 1.386 . S
C1302 C1304 1.391 . S
C1303 C1302 1.386 . S
C1303 C1307 1.393 . S
C1304 H1293 0.950 . S
C1304 C1302 1.391 . S
C1304 C1305 1.400 . S
C1305 C1299 1.491 . S
C1305 C1304 1.400 . S
C1305 C1306 1.398 . S
C1306 H1294 0.950 . S
C1306 C1305 1.398 . S
C1306 C1307 1.391 . S
C1307 H1295 0.950 . S
C1307 C1303 1.393 . S
C1307 C1306 1.391 . S
H1308 C1316 0.950 . S
H1309 C1321 0.950 . S
H1310 C1318 0.950 . S
H1311 C1320 0.950 . S
H1312 C1322 0.950 . S
H1313 C1324 0.950 . S
H1314 C1326 0.950 . S
H1315 C1327 0.950 . S
C1316 H1308 0.950 . S
C1316 C1317 1.386 . S
C1316 C1318 1.391 . S
C1317 C1316 1.386 . S
C1317 C1321 1.393 . S
C1318 H1310 0.950 . S
C1318 C1316 1.391 . S
C1318 C1319 1.400 . S
C1319 C1318 1.400 . S
C1319 C1320 1.398 . S
C1319 C1325 1.491 . S
C1320 H1311 0.950 . S
C1320 C1319 1.398 . S
C1320 C1321 1.391 . S
C1321 H1309 0.950 . S
C1321 C1317 1.393 . S
C1321 C1320 1.391 . S
C1322 H1312 0.950 . S
C1322 C1323 1.386 . S
C1322 C1324 1.391 . S
C1323 C1322 1.386 . S
C1323 C1327 1.393 . S
C1324 H1313 0.950 . S
C1324 C1322 1.391 . S
C1324 C1325 1.400 . S
C1325 C1319 1.491 . S
C1325 C1324 1.400 . S
C1325 C1326 1.398 . S
C1326 H1314 0.950 . S
C1326 C1325 1.398 . S
C1326 C1327 1.391 . S
C1327 H1315 0.950 . S
C1327 C1323 1.393 . S
C1327 C1326 1.391 . S
H1328 C1336 0.950 . S
H1329 C1341 0.950 . S
H1330 C1338 0.950 . S
H1331 C1340 0.950 . S
H1332 C1342 0.950 . S
H1333 C1344 0.950 . S
H1334 C1346 0.950 . S
H1335 C1347 0.950 . S
C1336 H1328 0.950 . S
C1336 C1337 1.386 . S
C1336 C1338 1.391 . S
C1337 C1336 1.386 . S
C1337 C1341 1.393 1_556 S
C1338 H1330 0.950 . S
C1338 C1336 1.391 . S
C1338 C1339 1.400 . S
C1339 C1338 1.400 . S
C1339 C1340 1.398 1_556 S
C1339 C1345 1.491 . S
C1340 H1331 0.950 . S
C1340 C1339 1.398 1_554 S
C1340 C1341 1.391 . S
C1341 H1329 0.950 . S
C1341 C1337 1.393 1_554 S
C1341 C1340 1.391 . S
C1342 H1332 0.950 . S
C1342 C1343 1.386 1_554 S
C1342 C1344 1.391 . S
C1343 C1342 1.386 1_556 S
C1343 C1347 1.393 . S
C1344 H1333 0.950 . S
C1344 C1342 1.391 . S
C1344 C1345 1.400 1_554 S
C1345 C1339 1.491 . S
C1345 C1344 1.400 1_556 S
C1345 C1346 1.398 . S
C1346 H1334 0.950 . S
C1346 C1345 1.398 . S
C1346 C1347 1.391 . S
C1347 H1335 0.950 . S
C1347 C1343 1.393 . S
C1347 C1346 1.391 . S
H1348 C1356 0.950 . S
H1349 C1361 0.950 . S
H1350 C1358 0.950 . S
H1351 C1360 0.950 . S
H1352 C1362 0.950 . S
H1353 C1364 0.950 . S
H1354 C1366 0.950 . S
H1355 C1367 0.950 . S
C1356 H1348 0.950 . S
C1356 C1357 1.386 . S
C1356 C1358 1.391 . S
C1357 C1356 1.386 . S
C1357 C1361 1.393 . S
C1358 H1350 0.950 . S
C1358 C1356 1.391 . S
C1358 C1359 1.400 . S
C1359 C1358 1.400 . S
C1359 C1360 1.398 . S
C1359 C1365 1.491 . S
C1360 H1351 0.950 . S
C1360 C1359 1.398 . S
C1360 C1361 1.391 . S
C1361 H1349 0.950 . S
C1361 C1357 1.393 . S
C1361 C1360 1.391 . S
C1362 H1352 0.950 . S
C1362 C1363 1.386 . S
C1362 C1364 1.391 . S
C1363 C1362 1.386 . S
C1363 C1367 1.393 . S
C1364 H1353 0.950 . S
C1364 C1362 1.391 . S
C1364 C1365 1.400 . S
C1365 C1359 1.491 . S
C1365 C1364 1.400 . S
C1365 C1366 1.398 . S
C1366 H1354 0.950 . S
C1366 C1365 1.398 . S
C1366 C1367 1.391 . S
C1367 H1355 0.950 . S
C1367 C1363 1.393 . S
C1367 C1366 1.391 . S
H1368 C1376 0.950 . S
H1369 C1381 0.950 . S
H1370 C1378 0.950 . S
H1371 C1380 0.950 . S
H1372 C1382 0.950 . S
H1373 C1384 0.950 . S
H1374 C1386 0.950 . S
H1375 C1387 0.950 . S
C1376 H1368 0.950 . S
C1376 C1377 1.386 . S
C1376 C1378 1.391 . S
C1377 C1376 1.386 . S
C1377 C1381 1.393 . S
C1378 H1370 0.950 . S
C1378 C1376 1.391 . S
C1378 C1379 1.400 . S
C1379 C1378 1.400 . S
C1379 C1380 1.398 . S
C1379 C1385 1.491 1_455 S
C1380 H1371 0.950 . S
C1380 C1379 1.398 . S
C1380 C1381 1.391 . S
C1381 H1369 0.950 . S
C1381 C1377 1.393 . S
C1381 C1380 1.391 . S
C1382 H1372 0.950 . S
C1382 C1383 1.386 . S
C1382 C1384 1.391 . S
C1383 C1382 1.386 . S
C1383 C1387 1.393 . S
C1384 H1373 0.950 . S
C1384 C1382 1.391 . S
C1384 C1385 1.400 . S
C1385 C1379 1.491 1_655 S
C1385 C1384 1.400 . S
C1385 C1386 1.398 . S
C1386 H1374 0.950 . S
C1386 C1385 1.398 . S
C1386 C1387 1.391 . S
C1387 H1375 0.950 . S
C1387 C1383 1.393 . S
C1387 C1386 1.391 . S
H1388 C1396 0.950 . S
H1389 C1401 0.950 . S
H1390 C1398 0.950 . S
H1391 C1400 0.950 . S
H1392 C1402 0.950 . S
H1393 C1404 0.950 . S
H1394 C1406 0.950 . S
H1395 C1407 0.950 . S
C1396 H1388 0.950 . S
C1396 C1397 1.386 . S
C1396 C1398 1.391 . S
C1397 C1396 1.386 . S
C1397 C1401 1.393 . S
C1398 H1390 0.950 . S
C1398 C1396 1.391 . S
C1398 C1399 1.400 . S
C1399 C1398 1.400 . S
C1399 C1400 1.398 1_455 S
C1399 C1405 1.491 1_455 S
C1400 H1391 0.950 . S
C1400 C1399 1.398 1_655 S
C1400 C1401 1.391 1_655 S
C1401 H1389 0.950 . S
C1401 C1397 1.393 . S
C1401 C1400 1.391 1_455 S
C1402 H1392 0.950 . S
C1402 C1403 1.386 . S
C1402 C1404 1.391 . S
C1403 C1402 1.386 . S
C1403 C1407 1.393 . S
C1404 H1393 0.950 . S
C1404 C1402 1.391 . S
C1404 C1405 1.400 . S
C1405 C1399 1.491 1_655 S
C1405 C1404 1.400 . S
C1405 C1406 1.398 1_655 S
C1406 H1394 0.950 . S
C1406 C1405 1.398 1_455 S
C1406 C1407 1.391 1_455 S
C1407 H1395 0.950 . S
C1407 C1403 1.393 . S
C1407 C1406 1.391 1_655 S
H1408 C1416 0.950 1_556 S
H1409 C1421 0.950 . S
H1410 C1418 0.950 1_556 S
H1411 C1420 0.950 . S
H1412 C1422 0.950 . S
H1413 C1424 0.950 . S
H1414 C1426 0.950 1_556 S
H1415 C1427 0.950 1_556 S
C1416 H1408 0.950 1_554 S
C1416 C1417 1.386 . S
C1416 C1418 1.391 . S
C1417 C1416 1.386 . S
C1417 C1421 1.393 . S
C1418 H1410 0.950 1_554 S
C1418 C1416 1.391 . S
C1418 C1419 1.400 . S
C1419 C1418 1.400 . S
C1419 C1420 1.398 . S
C1419 C1425 1.491 . S
C1420 H1411 0.950 . S
C1420 C1419 1.398 . S
C1420 C1421 1.391 . S
C1421 H1409 0.950 . S
C1421 C1417 1.393 . S
C1421 C1420 1.391 . S
C1422 H1412 0.950 . S
C1422 C1423 1.386 . S
C1422 C1424 1.391 . S
C1423 C1422 1.386 . S
C1423 C1427 1.393 . S
C1424 H1413 0.950 . S
C1424 C1422 1.391 . S
C1424 C1425 1.400 . S
C1425 C1419 1.491 . S
C1425 C1424 1.400 . S
C1425 C1426 1.398 . S
C1426 H1414 0.950 1_554 S
C1426 C1425 1.398 . S
C1426 C1427 1.391 . S
C1427 H1415 0.950 1_554 S
C1427 C1423 1.393 . S
C1427 C1426 1.391 . S
H1428 C1436 0.950 . S
H1429 C1441 0.950 . S
H1430 C1438 0.950 . S
H1431 C1440 0.950 . S
H1432 C1442 0.950 . S
H1433 C1444 0.950 . S
H1434 C1446 0.950 . S
H1435 C1447 0.950 . S
C1436 H1428 0.950 . S
C1436 C1437 1.386 . S
C1436 C1438 1.391 . S
C1437 C1436 1.386 . S
C1437 C1441 1.393 . S
C1438 H1430 0.950 . S
C1438 C1436 1.391 . S
C1438 C1439 1.400 . S
C1439 C1438 1.400 . S
C1439 C1440 1.398 . S
C1439 C1445 1.491 . S
C1440 H1431 0.950 . S
C1440 C1439 1.398 . S
C1440 C1441 1.391 . S
C1441 H1429 0.950 . S
C1441 C1437 1.393 . S
C1441 C1440 1.391 . S
C1442 H1432 0.950 . S
C1442 C1443 1.386 . S
C1442 C1444 1.391 . S
C1443 C1442 1.386 . S
C1443 C1447 1.393 . S
C1444 H1433 0.950 . S
C1444 C1442 1.391 . S
C1444 C1445 1.400 . S
C1445 C1439 1.491 . S
C1445 C1444 1.400 . S
C1445 C1446 1.398 . S
C1446 H1434 0.950 . S
C1446 C1445 1.398 . S
C1446 C1447 1.391 . S
C1447 H1435 0.950 . S
C1447 C1443 1.393 . S
C1447 C1446 1.391 . S
H1448 C1456 0.950 . S
H1449 C1461 0.950 . S
H1450 C1458 0.950 . S
H1451 C1460 0.950 . S
H1452 C1462 0.950 . S
H1453 C1464 0.950 . S
H1454 C1466 0.950 . S
H1455 C1467 0.950 . S
C1456 H1448 0.950 . S
C1456 C1457 1.386 . S
C1456 C1458 1.391 . S
C1457 C1456 1.386 . S
C1457 C1461 1.393 . S
C1458 H1450 0.950 . S
C1458 C1456 1.391 . S
C1458 C1459 1.400 . S
C1459 C1458 1.400 . S
C1459 C1460 1.398 . S
C1459 C1465 1.491 1_455 S
C1460 H1451 0.950 . S
C1460 C1459 1.398 . S
C1460 C1461 1.391 . S
C1461 H1449 0.950 . S
C1461 C1457 1.393 . S
C1461 C1460 1.391 . S
C1462 H1452 0.950 . S
C1462 C1463 1.386 . S
C1462 C1464 1.391 . S
C1463 C1462 1.386 . S
C1463 C1467 1.393 . S
C1464 H1453 0.950 . S
C1464 C1462 1.391 . S
C1464 C1465 1.400 . S
C1465 C1459 1.491 1_655 S
C1465 C1464 1.400 . S
C1465 C1466 1.398 . S
C1466 H1454 0.950 . S
C1466 C1465 1.398 . S
C1466 C1467 1.391 . S
C1467 H1455 0.950 . S
C1467 C1463 1.393 . S
C1467 C1466 1.391 . S
H1468 C1476 0.950 . S
H1469 C1481 0.950 . S
H1470 C1478 0.950 . S
H1471 C1480 0.950 1_455 S
H1472 C1482 0.950 . S
H1473 C1484 0.950 . S
H1474 C1486 0.950 1_655 S
H1475 C1487 0.950 . S
C1476 H1468 0.950 . S
C1476 C1477 1.386 . S
C1476 C1478 1.391 . S
C1477 C1476 1.386 . S
C1477 C1481 1.393 . S
C1478 H1470 0.950 . S
C1478 C1476 1.391 . S
C1478 C1479 1.400 . S
C1479 C1478 1.400 . S
C1479 C1480 1.398 . S
C1479 C1485 1.491 1_655 S
C1480 H1471 0.950 1_655 S
C1480 C1479 1.398 . S
C1480 C1481 1.391 . S
C1481 H1469 0.950 . S
C1481 C1477 1.393 . S
C1481 C1480 1.391 . S
C1482 H1472 0.950 . S
C1482 C1483 1.386 . S
C1482 C1484 1.391 . S
C1483 C1482 1.386 . S
C1483 C1487 1.393 . S
C1484 H1473 0.950 . S
C1484 C1482 1.391 . S
C1484 C1485 1.400 . S
C1485 C1479 1.491 1_455 S
C1485 C1484 1.400 . S
C1485 C1486 1.398 . S
C1486 H1474 0.950 1_455 S
C1486 C1485 1.398 . S
C1486 C1487 1.391 . S
C1487 H1475 0.950 . S
C1487 C1483 1.393 . S
C1487 C1486 1.391 . S
C857 C250 2.677 . S
C863 C29 2.679 . S
C877 C727 2.778 . S
C883 C91 2.761 . S
C897 C135 2.712 . S
C903 C356 2.710 . S
C917 C833 2.788 . S
C923 C197 2.772 . S
C937 C515 2.762 . S
C943 C303 2.779 . S
C957 C621 2.765 . S
C963 C409 2.783 . S
C977 C453 2.714 . S
C983 C674 2.711 . S
C997 C780 2.677 . S
C1003 C559 2.679 . S
C1017 C393 1.828 . S
C1023 C22 1.814 . S
C1037 C658 1.826 . S
C1043 C92 1.800 . S
C1057 C128 1.816 . S
C1063 C287 1.841 . S
C1077 C198 1.789 . S
C1083 C764 1.823 . S
C1097 C181 2.176 . S
C1103 C251 2.137 . S
C1117 C304 2.218 . S
C1123 C463 2.272 . S
C1137 C357 2.141 . S
C1143 C75 2.186 . S
C1157 C410 2.223 1_655 S
C1163 C569 2.269 . S
C1177 C446 1.816 . S
C1183 C817 1.842 . S
C1197 C234 1.820 . S
C1203 C516 1.784 . S
C1217 C711 1.831 . S
C1223 C552 1.804 . S
C1237 C622 1.801 . S
C1243 C340 1.825 . S
C1257 C605 2.177 . S
C1263 C675 2.132 . S
C1277 C728 2.233 1_455 S
C1283 C39 2.280 . S
C1297 C781 2.123 . S
C1303 C499 2.164 . S
C1317 C145 2.279 . S
C1323 C834 2.235 . S
C1337 C38 0.893 . S
C1343 C568 0.897 . S
C1357 C612 0.695 . S
C1363 C82 0.717 . S
C1377 C144 0.902 . S
C1383 C462 0.908 . S
C1397 C506 0.709 . S
C1403 C188 0.691 . S
C1417 C771 0.284 . S
C1423 C241 0.257 . S
C1437 C824 0.240 . S
C1443 C294 0.243 . S
C1457 C665 0.265 . S
C1463 C347 0.279 . S
C1477 C718 0.227 . S
C1483 C400 0.254 . S
