# Generated by pormake.
# Topology smb, (6)-cn, num edge types: 1
# Building blocks:
#     Node 0, Type 0, BuildingBlock: IZENUY_clean_sbu_0, # of connection points: 6
#     Node 1, Type 0, BuildingBlock: IZENUY_clean_sbu_0, # of connection points: 6
#     Node 2, Type 0, BuildingBlock: IZENUY_clean_sbu_0, # of connection points: 6
#     Node 3, Type 0, BuildingBlock: IZENUY_clean_sbu_0, # of connection points: 6
#     Node 4, Type 0, BuildingBlock: IZENUY_clean_sbu_0, # of connection points: 6
#     Node 5, Type 0, BuildingBlock: IZENUY_clean_sbu_0, # of connection points: 6
#     Node 6, Type 0, BuildingBlock: IZENUY_clean_sbu_0, # of connection points: 6
#     Node 7, Type 0, BuildingBlock: IZENUY_clean_sbu_0, # of connection points: 6
#     Node 8, Type 0, BuildingBlock: IZENUY_clean_sbu_0, # of connection points: 6
#     Edge 9, Type (0, 0), BuildingBlock: AJUNOK_clean_linker_0, # of connection points: 2
#     Edge 10, Type (0, 0), BuildingBlock: AJUNOK_clean_linker_0, # of connection points: 2
#     Edge 11, Type (0, 0), BuildingBlock: AJUNOK_clean_linker_0, # of connection points: 2
#     Edge 12, Type (0, 0), BuildingBlock: AJUNOK_clean_linker_0, # of connection points: 2
#     Edge 13, Type (0, 0), BuildingBlock: AJUNOK_clean_linker_0, # of connection points: 2
#     Edge 14, Type (0, 0), BuildingBlock: AJUNOK_clean_linker_0, # of connection points: 2
#     Edge 15, Type (0, 0), BuildingBlock: AJUNOK_clean_linker_0, # of connection points: 2
#     Edge 16, Type (0, 0), BuildingBlock: AJUNOK_clean_linker_0, # of connection points: 2
#     Edge 17, Type (0, 0), BuildingBlock: AJUNOK_clean_linker_0, # of connection points: 2
#     Edge 18, Type (0, 0), BuildingBlock: AJUNOK_clean_linker_0, # of connection points: 2
#     Edge 19, Type (0, 0), BuildingBlock: AJUNOK_clean_linker_0, # of connection points: 2
#     Edge 20, Type (0, 0), BuildingBlock: AJUNOK_clean_linker_0, # of connection points: 2
#     Edge 21, Type (0, 0), BuildingBlock: AJUNOK_clean_linker_0, # of connection points: 2
#     Edge 22, Type (0, 0), BuildingBlock: AJUNOK_clean_linker_0, # of connection points: 2
#     Edge 23, Type (0, 0), BuildingBlock: AJUNOK_clean_linker_0, # of connection points: 2
#     Edge 24, Type (0, 0), BuildingBlock: AJUNOK_clean_linker_0, # of connection points: 2
#     Edge 25, Type (0, 0), BuildingBlock: AJUNOK_clean_linker_0, # of connection points: 2
#     Edge 26, Type (0, 0), BuildingBlock: AJUNOK_clean_linker_0, # of connection points: 2
#     Edge 27, Type (0, 0), BuildingBlock: AJUNOK_clean_linker_0, # of connection points: 2
#     Edge 28, Type (0, 0), BuildingBlock: AJUNOK_clean_linker_0, # of connection points: 2
#     Edge 29, Type (0, 0), BuildingBlock: AJUNOK_clean_linker_0, # of connection points: 2
#     Edge 30, Type (0, 0), BuildingBlock: AJUNOK_clean_linker_0, # of connection points: 2
#     Edge 31, Type (0, 0), BuildingBlock: AJUNOK_clean_linker_0, # of connection points: 2
#     Edge 32, Type (0, 0), BuildingBlock: AJUNOK_clean_linker_0, # of connection points: 2
#     Edge 33, Type (0, 0), BuildingBlock: AJUNOK_clean_linker_0, # of connection points: 2
#     Edge 34, Type (0, 0), BuildingBlock: AJUNOK_clean_linker_0, # of connection points: 2
#     Edge 35, Type (0, 0), BuildingBlock: AJUNOK_clean_linker_0, # of connection points: 2
# Relax obj value: 0.326
# Max RMSD: 0.238
# Mean RMSD: 0.238
data_MOF--net-smb--node1-IZENUY_clean_sbu_0--edge1-AJUNOK_clean_linker_0
_symmetry_space_group_name_H-M    P1
_symmetry_Int_Tables_number       1
_symmetry_cell_setting            triclinic
loop_
_symmetry_equiv_pos_as_xyz
'x, y, z'
_cell_length_a     28.849685
_cell_length_b     28.955099
_cell_length_c     21.608703
_cell_angle_alpha  89.829106
_cell_angle_beta   90.373861
_cell_angle_gamma 120.04193
loop_
_atom_site_label
_atom_site_type_symbol
_atom_site_fract_x
_atom_site_fract_y
_atom_site_fract_z
_atom_type_partial_charge
Fe0 Fe 0.42912 0.21349 0.95858 0.0
Fe1 Fe 0.35086 0.17182 0.06817 0.0
O2 O 0.41696 0.2064 0.03935 0.0
Fe3 Fe 0.47183 0.23512 0.09127 0.0
O4 O 0.4924 0.3011 0.06171 0.0
O5 O 0.49023 0.27908 0.96434 0.0
O6 O 0.39238 0.24863 0.94921 0.0
C7 C 0.34447 0.23091 0.96539 0.0
C8 C 0.5054 0.19149 0.99919 0.0
O9 O 0.3227 0.19335 1.00477 0.0
C10 C 0.40939 0.13956 0.14681 0.0
O11 O 0.37046 0.1497 0.93831 0.0
O12 O 0.33616 0.11084 0.02712 0.0
O13 O 0.5169 0.22673 0.03998 0.0
O14 O 0.46645 0.17821 0.96286 0.0
C15 C 0.39779 0.25538 0.15005 0.0
O16 O 0.3683 0.14398 0.13635 0.0
O17 O 0.45406 0.17121 0.12339 0.0
C18 C 0.34281 0.10791 0.96977 0.0
O19 O 0.36103 0.23093 0.1106 0.0
O20 O 0.43711 0.24795 0.15302 0.0
C21 C 0.50469 0.31443 1.00599 0.0
Fe22 Fe 0.84107 0.1729 0.06886 0.0
Fe23 Fe 0.7786 0.23105 0.09098 0.0
O24 O 0.80496 0.20284 0.0396 0.0
Fe25 Fe 0.79397 0.2041 0.95893 0.0
O26 O 0.75811 0.13193 0.95463 0.0
O27 O 0.81673 0.12079 1.00859 0.0
O28 O 0.78389 0.12572 0.1155 0.0
C29 C 0.76093 0.13935 0.15504 0.0
C30 C 0.90028 0.22356 0.96557 0.0
O31 O 0.76822 0.186 0.15521 0.0
C32 C 0.81723 0.30375 0.99297 0.0
O33 O 0.8719 0.22078 0.13399 0.0
O34 O 0.84432 0.27864 0.1191 0.0
O35 O 0.85678 0.20813 0.93652 0.0
O36 O 0.90029 0.21742 1.02358 0.0
C37 C 0.69524 0.18159 1.01022 0.0
O38 O 0.78483 0.28221 0.03697 0.0
O39 O 0.82942 0.2767 0.95811 0.0
C40 C 0.87702 0.26662 0.14225 0.0
O41 O 0.71095 0.18461 0.06546 0.0
O42 O 0.72883 0.20009 0.96666 0.0
C43 C 0.77708 0.10295 0.97144 0.0
Fe44 Fe 0.80076 0.57899 0.95156 0.0
Fe45 Fe 0.83994 0.6573 0.0618 0.0
O46 O 0.80702 0.59133 0.03256 0.0
Fe47 Fe 0.7807 0.53666 0.08407 0.0
O48 O 0.82478 0.51477 0.0535 0.0
O49 O 0.8033 0.51691 0.95658 0.0
O50 O 0.87266 0.61378 0.94238 0.0
C51 C 0.90438 0.66099 0.95957 0.0
C52 C 0.70222 0.50459 0.9919 0.0
O53 O 0.88982 0.68392 0.99883 0.0
C54 C 0.7494 0.60014 0.14122 0.0
O55 O 0.79734 0.63854 0.93131 0.0
O56 O 0.79453 0.67346 1.0203 0.0
O57 O 0.72589 0.49268 0.03279 0.0
O58 O 0.72805 0.54339 0.95591 0.0
C59 C 0.87657 0.60924 0.14356 0.0
O60 O 0.79475 0.64099 0.12966 0.0
O61 O 0.73572 0.55549 0.11741 0.0
C62 C 0.78438 0.6669 0.96294 0.0
O63 O 0.88848 0.64634 0.10502 0.0
O64 O 0.82955 0.57025 0.14574 0.0
C65 C 0.82376 0.50136 0.99782 0.0
Fe66 Fe 0.10571 0.55125 0.28418 0.0
Fe67 Fe 0.02817 0.51014 0.39501 0.0
O68 O 0.09407 0.54333 0.36524 0.0
Fe69 Fe 0.14925 0.56998 0.41689 0.0
O70 O 0.17108 0.63661 0.3891 0.0
O71 O 0.16721 0.61667 0.29054 0.0
O72 O 0.06943 0.58707 0.276 0.0
C73 C 0.02191 0.57028 0.29306 0.0
C74 C 0.18274 0.52871 0.3207 0.0
O75 O 1.00032 0.53342 0.33322 0.0
C76 C 0.08507 0.47415 0.47115 0.0
O77 O 0.04647 0.48763 0.26361 0.0
O78 O 0.01115 0.44939 0.35262 0.0
O79 O 0.19373 0.56148 0.36436 0.0
O80 O 0.14283 0.51567 0.28605 0.0
C81 C 0.0771 0.59165 0.47922 0.0
O82 O 0.04493 0.48036 0.46166 0.0
O83 O 0.12998 0.50498 0.44749 0.0
C84 C 0.01683 0.44634 0.2951 0.0
O85 O 0.0403 0.56907 0.43934 0.0
O86 O 0.11586 0.58318 0.48009 0.0
C87 C 0.18299 0.65099 0.33357 0.0
Fe88 Fe 0.47417 0.54724 0.29325 0.0
Fe89 Fe 0.50681 0.50021 0.40246 0.0
O90 O 0.47542 0.53493 0.37366 0.0
Fe91 Fe 0.44623 0.55896 0.42627 0.0
O92 O 0.39468 0.5538 0.37264 0.0
O93 O 0.40125 0.51238 0.29133 0.0
O94 O 0.46894 0.48375 0.26971 0.0
C95 C 0.45414 0.44078 0.29961 0.0
C96 C 0.49309 0.64369 0.35034 0.0
O97 O 0.46218 0.44159 0.35732 0.0
C98 C 0.53949 0.58005 0.48882 0.0
O99 O 0.54681 0.58268 0.28874 0.0
O100 O 0.55841 0.52434 0.34174 0.0
O101 O 0.49284 0.62619 0.40366 0.0
O102 O 0.47826 0.61273 0.30381 0.0
C103 C 0.41247 0.46175 0.47535 0.0
O104 O 0.55402 0.55807 0.44895 0.0
O105 O 0.49116 0.56818 0.49079 0.0
C106 C 0.57582 0.56328 0.30422 0.0
O107 O 0.45935 0.46879 0.46792 0.0
O108 O 0.39904 0.49284 0.45111 0.0
C109 C 0.3737 0.52367 0.32649 0.0
Fe110 Fe 0.45016 0.8836 0.43273 0.0
Fe111 Fe 0.47613 0.92126 0.29869 0.0
O112 O 0.47937 0.93603 0.37878 0.0
Fe113 Fe 0.51263 1.0026 0.40573 0.0
O114 O 0.55975 0.99096 0.4511 0.0
O115 O 0.49698 0.91932 0.49587 0.0
O116 O 0.49457 0.86016 0.40932 0.0
C117 C 0.494 0.84306 0.35565 0.0
C118 C 0.41938 0.94993 0.48071 0.0
O119 O 0.4783 0.85914 0.30976 0.0
C120 C 0.45882 0.00921 0.30349 0.0
O121 O 0.39719 0.83786 0.38072 0.0
O122 O 0.40332 0.88539 0.29873 0.0
O123 O 0.46676 0.9887 0.47264 0.0
O124 O 0.4047 0.90477 0.45799 0.0
C125 C 0.57904 0.00392 0.30764 0.0
O126 O 0.47292 0.98033 0.27435 0.0
O127 O 0.46819 0.01787 0.3609 0.0
C128 C 0.37586 0.84739 0.33505 0.0
O129 O 0.54837 0.95589 0.29268 0.0
O130 O 0.56309 0.02762 0.34374 0.0
C131 C 0.54534 0.95533 0.49213 0.0
Fe132 Fe 0.76192 0.87194 0.62403 0.0
Fe133 Fe 0.68386 0.83727 0.73393 0.0
O134 O 0.7498 0.86902 0.70472 0.0
Fe135 Fe 0.80437 0.89707 0.75694 0.0
O136 O 0.85004 0.9491 0.7039 0.0
O137 O 0.80005 0.94433 0.62454 0.0
O138 O 0.70332 0.87794 0.60236 0.0
C139 C 0.67501 0.8915 0.6338 0.0
C140 C 0.83677 0.84706 0.67679 0.0
O141 O 0.66861 0.88215 0.69121 0.0
C142 C 0.73219 0.8034 0.8178 0.0
O143 O 0.72507 0.80011 0.6172 0.0
O144 O 0.65546 0.78614 0.67213 0.0
O145 O 0.82509 0.8511 0.73174 0.0
O146 O 0.82267 0.86636 0.63247 0.0
C147 C 0.7415 0.93011 0.80965 0.0
O148 O 0.69534 0.78983 0.77806 0.0
O149 O 0.76961 0.85113 0.82073 0.0
C150 C 0.6775 0.76984 0.63393 0.0
O151 O 0.70108 0.88384 0.8007 0.0
O152 O 0.78578 0.94374 0.78467 0.0
C153 C 0.84003 0.97083 0.65902 0.0
Fe154 Fe 0.13175 0.87079 0.62907 0.0
Fe155 Fe 0.17827 0.83674 0.73704 0.0
O156 O 0.14211 0.86712 0.70942 0.0
Fe157 Fe 0.11519 0.8934 0.76262 0.0
O158 O 0.04791 0.84693 0.7366 0.0
O159 O 0.06561 0.8646 0.63787 0.0
O160 O 0.09739 0.7989 0.62105 0.0
C161 C 0.11669 0.76988 0.63634 0.0
C162 C 0.15255 0.96873 0.66746 0.0
O163 O 0.15582 0.78691 0.67413 0.0
C164 C 0.21292 0.92802 0.81407 0.0
O165 O 0.1958 0.8775 0.60666 0.0
O166 O 0.23801 0.88379 0.69409 0.0
O167 O 0.12029 0.9455 0.71109 0.0
O168 O 0.16569 0.94329 0.63128 0.0
C169 C 0.0961 0.79962 0.82086 0.0
O170 O 0.20747 0.88216 0.80472 0.0
O171 O 0.18079 0.94079 0.79097 0.0
C172 C 0.23897 0.89335 0.63673 0.0
O173 O 0.12004 0.78745 0.78095 0.0
O174 O 0.10569 0.84695 0.82486 0.0
C175 C 0.03214 0.84463 0.68153 0.0
Fe176 Fe 0.16774 0.31979 0.7295 0.0
Fe177 Fe 0.10677 0.19943 0.75189 0.0
O178 O 0.13519 0.25381 0.70009 0.0
Fe179 Fe 0.13183 0.24145 0.61933 0.0
O180 O 0.20412 0.27705 0.6132 0.0
O181 O 0.21862 0.34682 0.66827 0.0
O182 O 0.21491 0.30809 0.77427 0.0
C183 C 0.20139 0.27122 0.81349 0.0
C184 C 0.11544 0.33007 0.628 0.0
O185 O 0.15362 0.2335 0.8154 0.0
C186 C 0.03205 0.16521 0.65453 0.0
O187 O 0.12154 0.30358 0.79603 0.0
O188 O 0.06079 0.21913 0.78048 0.0
O189 O 0.12796 0.3006 0.5977 0.0
O190 O 0.12369 0.33639 0.68578 0.0
C191 C 0.15363 0.16426 0.67029 0.0
O192 O 0.0539 0.1548 0.69896 0.0
O193 O 0.05891 0.20464 0.6197 0.0
C194 C 0.07492 0.26383 0.80447 0.0
O195 O 0.15164 0.17706 0.72557 0.0
O196 O 0.13534 0.18003 0.62675 0.0
C197 C 0.23474 0.32447 0.63041 0.0
C198 C 0.33001 0.05322 0.87522 0.0
C199 C 0.31386 0.0563 0.93591 0.0
C200 C 0.29939 0.00872 0.83751 0.0
C201 C 0.25186 0.96529 0.85922 0.0
H202 H 0.36543 0.08654 0.85545 0.0
H203 H 0.31131 0.00967 0.78984 0.0
S204 S 0.19382 0.9502 1.01541 0.0
N205 N 0.24878 0.00938 1.01717 0.0
N206 N 0.19121 0.92581 0.94562 0.0
C207 C 0.23676 0.96602 0.92069 0.0
C208 C 0.26792 0.01141 0.95935 0.0
C209 C 0.9479 0.25221 0.8644 0.0
C210 C 0.94994 0.24294 0.92833 0.0
C211 C 0.9906 0.26311 0.82521 0.0
C212 C 0.03758 0.26639 0.84836 0.0
H213 H 0.91206 0.24882 0.84359 0.0
H214 H 0.98586 0.26657 0.7759 0.0
S215 S 0.06627 0.24998 1.01171 0.0
N216 N 1.00513 0.2413 1.01316 0.0
N217 N 0.08566 0.26238 0.9388 0.0
C218 C 0.04186 0.26036 0.91227 0.0
C219 C 0.99806 0.24872 0.95249 0.0
C220 C 0.7607 0.78032 0.91716 0.0
C221 C 0.73532 0.76396 0.85893 0.0
C222 C 0.77382 0.74755 0.95232 0.0
C223 C 0.76318 0.69763 0.92991 0.0
H224 H 0.77222 0.81965 0.9348 0.0
H225 H 0.79492 0.76268 0.9958 0.0
S226 S 0.694 0.6347 0.78209 0.0
N227 N 0.69704 0.69317 0.78231 0.0
N228 N 0.72225 0.63179 0.84759 0.0
C229 C 0.73563 0.67981 0.87297 0.0
C230 C 0.72149 0.71286 0.83773 0.0
C231 C 0.04078 0.77682 0.91616 0.0
C232 C 0.05352 0.75947 0.86131 0.0
C233 C 0.99373 0.74395 0.9488 0.0
C234 C 0.95709 0.69217 0.92804 0.0
H235 H 0.06635 0.81717 0.93279 0.0
H236 H 0.98528 0.76013 0.98954 0.0
S237 S 0.97426 0.62569 0.78998 0.0
N238 N 0.02781 0.68583 0.79004 0.0
N239 N 0.93934 0.62345 0.85132 0.0
C240 C 0.97099 0.67303 0.87524 0.0
C241 C 0.0192 0.70675 0.84199 0.0
C242 C 0.22168 0.23471 0.90815 0.0
C243 C 0.24066 0.2695 0.85698 0.0
C244 C 0.25596 0.22454 0.94444 0.0
C245 C 0.31091 0.24854 0.93122 0.0
H246 H 0.17942 0.21353 0.91925 0.0
H247 H 0.23862 0.19604 0.98186 0.0
S248 S 0.38207 0.3476 0.80639 0.0
N249 N 0.31881 0.33147 0.79794 0.0
N250 N 0.38365 0.31284 0.86627 0.0
C251 C 0.33112 0.28603 0.8824 0.0
C252 C 0.29598 0.29642 0.84535 0.0
C253 C 0.78441 0.98727 0.90114 0.0
C254 C 0.74178 0.96577 0.85837 0.0
C255 C 0.79319 0.02919 0.94042 0.0
C256 C 0.76022 0.05212 0.9378 0.0
H257 H 0.81264 0.97292 0.9025 0.0
H258 H 0.82799 0.04556 0.97055 0.0
S259 S 0.63928 0.00578 0.8382 0.0
N260 N 0.66328 0.96657 0.81918 0.0
N261 N 0.67964 0.04613 0.89262 0.0
C262 C 0.71524 0.02859 0.89779 0.0
C263 C 0.70603 0.9852 0.85818 0.0
C264 C 0.96728 0.34313 0.16626 0.0
C265 C 0.9163 0.30465 0.18675 0.0
C266 C 1.00059 0.3876 0.20308 0.0
C267 C 0.98404 0.3951 0.26169 0.0
H268 H 0.9803 0.34035 0.12018 0.0
H269 H 0.03888 0.4173 0.18449 0.0
S270 S 0.85437 0.30367 0.33671 0.0
N271 N 0.85115 0.27546 0.2693 0.0
N272 N 0.9138 0.35826 0.33926 0.0
C273 C 0.93403 0.35524 0.28378 0.0
C274 C 0.90005 0.3103 0.24595 0.0
C275 C 0.64218 0.61708 0.22064 0.0
C276 C 0.62676 0.58008 0.26992 0.0
C277 C 0.68514 0.62716 0.18151 0.0
C278 C 0.71426 0.60071 0.19032 0.0
H279 H 0.61939 0.63662 0.21025 0.0
H280 H 0.69347 0.65327 0.14203 0.0
S281 S 0.69545 0.50546 0.31581 0.0
N282 N 0.64862 0.52119 0.32815 0.0
N283 N 0.72821 0.53971 0.25412 0.0
C284 C 0.70155 0.56627 0.2412 0.0
C285 C 0.65824 0.55616 0.2812 0.0
C286 C 0.43134 0.11873 0.25069 0.0
C287 C 0.40832 0.10091 0.1918 0.0
C288 C 0.44485 0.08753 0.28835 0.0
C289 C 0.43703 0.03805 0.26758 0.0
H290 H 0.44159 0.15828 0.2663 0.0
H291 H 0.46439 0.10372 0.33237 0.0
S292 S 0.37421 0.97247 0.11825 0.0
N293 N 0.37518 0.02995 0.11586 0.0
N294 N 0.40062 0.97109 0.18582 0.0
C295 C 0.4115 0.01885 0.20982 0.0
C296 C 0.39724 0.0504 0.17205 0.0
C297 C 0.68494 0.04867 0.18181 0.0
C298 C 0.72221 0.10098 0.20008 0.0
C299 C 0.64001 0.01629 0.21847 0.0
C300 C 0.6308 0.03517 0.27464 0.0
H301 H 0.68854 0.03391 0.13713 0.0
H302 H 0.6109 0.9773 0.2009 0.0
S303 S 0.72207 0.16585 0.34794 0.0
N304 N 0.75081 0.16756 0.28152 0.0
N305 N 0.66695 0.10698 0.35031 0.0
C306 C 0.67013 0.08587 0.29546 0.0
C307 C 0.71564 0.11868 0.25822 0.0
C308 C 0.93386 0.56579 0.27481 0.0
C309 C 0.98826 0.58821 0.2594 0.0
C310 C 0.89907 0.57565 0.23909 0.0
C311 C 0.91692 0.60864 0.18632 0.0
H312 H 0.91724 0.5386 0.31354 0.0
H313 H 0.85719 0.55557 0.25189 0.0
S314 S 0.05663 0.68229 0.12937 0.0
N315 N 0.05938 0.64918 0.19033 0.0
N316 N 0.99353 0.66734 0.12321 0.0
C317 C 0.97178 0.63417 0.17243 0.0
C318 C 0.00748 0.62402 0.20885 0.0
C319 C 0.39828 0.34058 0.16708 0.0
C320 C 0.39865 0.29592 0.19185 0.0
C321 C 0.41469 0.38668 0.20294 0.0
C322 C 0.43163 0.38955 0.26498 0.0
H323 H 0.38887 0.34132 0.11858 0.0
H324 H 0.41581 0.42094 0.1811 0.0
S325 S 0.4338 0.28006 0.35274 0.0
N326 N 0.41321 0.25531 0.2827 0.0
N327 N 0.44282 0.34103 0.35072 0.0
C328 C 0.42865 0.34353 0.29122 0.0
C329 C 0.41255 0.297 0.25445 0.0
C330 C 0.5902 0.68575 0.61459 0.0
C331 C 0.64518 0.71727 0.60211 0.0
C332 C 0.55735 0.63961 0.58022 0.0
C333 C 0.57776 0.6226 0.53162 0.0
H334 H 0.57174 0.69771 0.64976 0.0
H335 H 0.51494 0.61822 0.59051 0.0
S336 S 0.72019 0.68676 0.485 0.0
N337 N 0.71974 0.72485 0.54143 0.0
N338 N 0.65751 0.63841 0.47657 0.0
C339 C 0.63321 0.65166 0.52112 0.0
C340 C 0.66692 0.69885 0.55631 0.0
C341 C 0.3334 0.94561 0.49986 0.0
C342 C 0.38175 0.95275 0.52397 0.0
C343 C 0.28867 0.9293 0.53768 0.0
C344 C 0.29001 0.9183 0.60118 0.0
H345 H 0.32908 0.9493 0.4505 0.0
H346 H 0.25193 0.92273 0.5159 0.0
S347 S 0.40949 0.93589 0.68756 0.0
N348 N 0.43034 0.95177 0.61548 0.0
N349 N 0.34616 0.92083 0.68729 0.0
C350 C 0.33944 0.92874 0.62667 0.0
C351 C 0.38527 0.94587 0.58785 0.0
C352 C 0.1144 0.41554 0.61228 0.0
C353 C 0.09855 0.36333 0.59271 0.0
C354 C 0.1069 0.45061 0.57394 0.0
C355 C 0.08212 0.4342 0.51561 0.0
H356 H 0.13556 0.43046 0.65577 0.0
H357 H 0.12257 0.4915 0.58887 0.0
S358 S 0.02871 0.30067 0.44517 0.0
N359 N 0.05356 0.29614 0.51254 0.0
N360 N 0.03901 0.3621 0.44149 0.0
C361 C 0.06341 0.38151 0.49699 0.0
C362 C 0.07165 0.34601 0.53538 0.0
C363 C 0.314 0.4131 0.6057 0.0
C364 C 0.28648 0.35735 0.59794 0.0
C365 C 0.35761 0.44632 0.56849 0.0
C366 C 0.37616 0.42526 0.52273 0.0
H367 H 0.30013 0.43171 0.63846 0.0
H368 H 0.37545 0.48915 0.57355 0.0
S369 S 0.32366 0.28245 0.48847 0.0
N370 N 0.28493 0.28239 0.54453 0.0
N371 N 0.36753 0.34578 0.47481 0.0
C372 C 0.35203 0.3698 0.51723 0.0
C373 C 0.30702 0.3356 0.55482 0.0
C374 C 0.62985 0.95257 0.50697 0.0
C375 C 0.58433 0.95068 0.53267 0.0
C376 C 0.65973 0.93464 0.5406 0.0
C377 C 0.64558 0.91475 0.60144 0.0
H378 H 0.64045 0.96474 0.45927 0.0
H379 H 0.69332 0.93504 0.51799 0.0
S380 S 0.53314 0.90792 0.69182 0.0
N381 N 0.52888 0.93158 0.62374 0.0
N382 N 0.58536 0.8992 0.68756 0.0
C383 C 0.60205 0.91606 0.62887 0.0
C384 C 0.57135 0.93362 0.5943 0.0
C385 C 0.05912 0.66509 0.50832 0.0
C386 C 0.07757 0.63009 0.52488 0.0
C387 C 0.06968 0.70881 0.54612 0.0
C388 C 0.09907 0.71914 0.60192 0.0
H389 H 0.03919 0.66057 0.46422 0.0
H390 H 0.05685 0.73607 0.52984 0.0
S391 S 0.14743 0.63333 0.67118 0.0
N392 N 0.12031 0.60444 0.60451 0.0
N393 N 0.1399 0.68612 0.67537 0.0
C394 C 0.1141 0.68198 0.62102 0.0
C395 C 0.10343 0.63764 0.58258 0.0
C396 C 0.58133 0.19469 0.94334 0.0
C397 C 0.54317 0.17246 0.9904 0.0
C398 C 0.62902 0.19314 0.94714 0.0
C399 C 0.63995 0.16994 0.99861 0.0
H400 H 0.57652 0.21745 0.90649 0.0
H401 H 0.65921 0.21428 0.91225 0.0
S402 S 0.5469 0.09672 0.12697 0.0
N403 N 0.5149 0.11945 0.08433 0.0
N404 N 0.60453 0.11644 0.09185 0.0
C405 C 0.59937 0.14272 0.04241 0.0
C406 C 0.5509 0.14415 0.03825 0.0
C407 C 0.86356 0.44567 0.02808 0.0
C408 C 0.83459 0.45758 0.98451 0.0
C409 C 0.8631 0.39724 0.02592 0.0
C410 C 0.83432 0.35949 0.97974 0.0
H411 H 0.88355 0.47221 0.06674 0.0
H412 H 0.88177 0.38744 0.0635 0.0
S413 S 0.75847 0.37383 0.84978 0.0
N414 N 0.7816 0.42993 0.88932 0.0
N415 N 0.781 0.3386 0.88601 0.0
C416 C 0.80968 0.37276 0.93247 0.0
C417 C 0.8099 0.42211 0.93457 0.0
C418 C 0.62952 0.42795 0.93643 0.0
C419 C 0.6453 0.4671 0.98241 0.0
C420 C 0.5808 0.37994 0.94114 0.0
C421 C 0.54709 0.36967 0.99252 0.0
H422 H 0.65707 0.43228 0.9 0.0
H423 H 0.57201 0.34906 0.90727 0.0
S424 S 0.56659 0.46496 0.11822 0.0
N425 N 0.62076 0.49666 0.07515 0.0
N426 N 0.52901 0.40662 0.08431 0.0
C427 C 0.56007 0.41118 0.03498 0.0
C428 C 0.60944 0.45992 0.02991 0.0
C429 C 0.30774 0.53467 0.26297 0.0
C430 C 0.31824 0.50838 0.31114 0.0
C431 C 0.25969 0.53601 0.26155 0.0
C432 C 0.22122 0.51092 0.30815 0.0
H433 H 0.33876 0.55854 0.22993 0.0
H434 H 0.25493 0.56089 0.22748 0.0
S435 S 0.22694 0.4308 0.43876 0.0
N436 N 0.28417 0.45201 0.40209 0.0
N437 N 0.194 0.45428 0.39919 0.0
C438 C 0.22932 0.48051 0.35293 0.0
C439 C 0.27796 0.47928 0.35447 0.0
C440 C 0.52201 0.78264 0.30584 0.0
C441 C 0.49301 0.79209 0.35125 0.0
C442 C 0.52148 0.73376 0.30412 0.0
C443 C 0.49173 0.69363 0.34762 0.0
H444 H 0.54601 0.81346 0.27267 0.0
H445 H 0.54529 0.72784 0.2699 0.0
S446 S 0.40141 0.69586 0.46779 0.0
N447 N 0.42878 0.75525 0.43517 0.0
N448 N 0.42736 0.66404 0.43176 0.0
C449 C 0.4603 0.70189 0.3907 0.0
C450 C 0.46106 0.75107 0.39259 0.0
C451 C 0.28206 0.79494 0.36656 0.0
C452 C 0.32056 0.80732 0.32051 0.0
C453 C 0.2348 0.74564 0.36702 0.0
C454 C 0.2249 0.70681 0.32185 0.0
H455 H 0.29054 0.82181 0.40529 0.0
H456 H 0.20776 0.73648 0.40563 0.0
S457 S 0.31073 0.72351 0.18665 0.0
N458 N 0.34383 0.78031 0.22499 0.0
N459 N 0.25475 0.68696 0.22537 0.0
C460 C 0.2608 0.72094 0.27203 0.0
C461 C 0.30893 0.77149 0.27157 0.0
C462 C 0.96496 0.85732 0.62247 0.0
C463 C 0.97651 0.83207 0.67106 0.0
C464 C 0.91667 0.8577 0.6209 0.0
C465 C 0.87855 0.83273 0.66781 0.0
H466 H 0.995 0.88067 0.58824 0.0
H467 H 0.91133 0.88146 0.58579 0.0
S468 S 0.88373 0.74921 0.79537 0.0
N469 N 0.94185 0.77285 0.76 0.0
N470 N 0.85077 0.77323 0.75686 0.0
C471 C 0.88692 0.80194 0.7122 0.0
C472 C 0.93609 0.80172 0.71392 0.0
C473 C 0.19252 0.06075 0.70482 0.0
C474 C 0.16821 0.0244 0.65608 0.0
C475 C 0.19187 0.1086 0.70617 0.0
C476 C 0.16608 0.12127 0.6592 0.0
H477 H 0.20866 0.05029 0.74444 0.0
H478 H 0.20842 0.13401 0.74648 0.0
S479 S 0.10259 0.04156 0.51739 0.0
N480 N 0.12292 0.00589 0.55672 0.0
N481 N 0.12127 0.09611 0.55862 0.0
C482 C 0.14603 0.08734 0.6072 0.0
C483 C 0.14706 0.0386 0.60588 0.0
C484 C 0.8911 0.06514 0.68989 0.0
C485 C 0.87959 0.02626 0.6445 0.0
C486 C 0.93864 0.11424 0.68802 0.0
C487 C 0.97618 0.12574 0.6409 0.0
H488 H 0.86523 0.05591 0.7297 0.0
H489 H 0.94834 0.14138 0.72672 0.0
S490 S 0.96262 0.0388 0.5087 0.0
N491 N 0.90698 0.00367 0.5486 0.0
N492 N 0.99716 0.09632 0.54543 0.0
C493 C 0.96313 0.08905 0.59245 0.0
C494 C 0.91445 0.03896 0.59422 0.0
loop_
_geom_bond_atom_site_label_1
_geom_bond_atom_site_label_2
_geom_bond_distance
_geom_bond_site_symmetry_2
_ccdc_geom_bond_type
Fe0 O2 1.918 1_556 S
Fe0 O5 1.997 . S
Fe0 O6 2.002 . S
Fe0 O11 1.976 . S
Fe0 O14 1.996 . S
Fe1 O2 1.918 . S
Fe1 O9 1.997 1_554 S
Fe1 O12 1.996 1_554 S
Fe1 O16 1.976 . S
Fe1 O19 2.002 . S
O2 Fe0 1.918 1_554 S
O2 Fe1 1.918 . S
O2 Fe3 1.918 . S
Fe3 O2 1.918 . S
Fe3 O4 2.002 . S
Fe3 O13 1.976 . S
Fe3 O17 1.996 . S
Fe3 O20 1.997 . S
O4 Fe3 2.002 . S
O4 C21 1.295 1_554 S
O5 Fe0 1.997 . S
O5 C21 1.235 . S
O6 Fe0 2.002 . S
O6 C7 1.295 . S
C7 O6 1.295 . S
C7 O9 1.235 . S
C8 O13 1.287 1_556 S
C8 O14 1.255 . S
O9 Fe1 1.997 1_556 S
O9 C7 1.235 . S
C10 O16 1.287 . S
C10 O17 1.255 . S
O11 Fe0 1.976 . S
O11 C18 1.287 . S
O12 Fe1 1.996 1_556 S
O12 C18 1.255 . S
O13 Fe3 1.976 . S
O13 C8 1.287 1_554 S
O14 Fe0 1.996 . S
O14 C8 1.255 . S
C15 O19 1.295 . S
C15 O20 1.235 . S
O16 Fe1 1.976 . S
O16 C10 1.287 . S
O17 Fe3 1.996 . S
O17 C10 1.255 . S
C18 O11 1.287 . S
C18 O12 1.255 . S
O19 Fe1 2.002 . S
O19 C15 1.295 . S
O20 Fe3 1.997 . S
O20 C15 1.235 . S
C21 O4 1.295 1_556 S
C21 O5 1.235 . S
Fe22 O24 1.918 . S
Fe22 O27 1.997 1_554 S
Fe22 O28 2.002 . S
Fe22 O33 1.976 . S
Fe22 O36 1.996 1_554 S
Fe23 O24 1.918 . S
Fe23 O31 1.997 . S
Fe23 O34 1.996 . S
Fe23 O38 1.976 . S
Fe23 O41 2.002 . S
O24 Fe22 1.918 . S
O24 Fe23 1.918 . S
O24 Fe25 1.918 1_554 S
Fe25 O24 1.918 1_556 S
Fe25 O26 2.002 . S
Fe25 O35 1.976 . S
Fe25 O39 1.996 . S
Fe25 O42 1.997 . S
O26 Fe25 2.002 . S
O26 C43 1.295 . S
O27 Fe22 1.997 1_556 S
O27 C43 1.235 . S
O28 Fe22 2.002 . S
O28 C29 1.295 . S
C29 O28 1.295 . S
C29 O31 1.235 . S
C30 O35 1.287 . S
C30 O36 1.255 . S
O31 Fe23 1.997 . S
O31 C29 1.235 . S
C32 O38 1.287 1_556 S
C32 O39 1.255 . S
O33 Fe22 1.976 . S
O33 C40 1.287 . S
O34 Fe23 1.996 . S
O34 C40 1.255 . S
O35 Fe25 1.976 . S
O35 C30 1.287 . S
O36 Fe22 1.996 1_556 S
O36 C30 1.255 . S
C37 O41 1.295 1_556 S
C37 O42 1.235 . S
O38 Fe23 1.976 . S
O38 C32 1.287 1_554 S
O39 Fe25 1.996 . S
O39 C32 1.255 . S
C40 O33 1.287 . S
C40 O34 1.255 . S
O41 Fe23 2.002 . S
O41 C37 1.295 1_554 S
O42 Fe25 1.997 . S
O42 C37 1.235 . S
C43 O26 1.295 . S
C43 O27 1.235 . S
Fe44 O46 1.918 1_556 S
Fe44 O49 1.997 . S
Fe44 O50 2.002 . S
Fe44 O55 1.976 . S
Fe44 O58 1.996 . S
Fe45 O46 1.918 . S
Fe45 O53 1.997 1_554 S
Fe45 O56 1.996 1_554 S
Fe45 O60 1.976 . S
Fe45 O63 2.002 . S
O46 Fe44 1.918 1_554 S
O46 Fe45 1.918 . S
O46 Fe47 1.918 . S
Fe47 O46 1.918 . S
Fe47 O48 2.002 . S
Fe47 O57 1.976 . S
Fe47 O61 1.996 . S
Fe47 O64 1.997 . S
O48 Fe47 2.002 . S
O48 C65 1.295 1_554 S
O49 Fe44 1.997 . S
O49 C65 1.235 . S
O50 Fe44 2.002 . S
O50 C51 1.295 . S
C51 O50 1.295 . S
C51 O53 1.235 . S
C52 O57 1.287 1_556 S
C52 O58 1.255 . S
O53 Fe45 1.997 1_556 S
O53 C51 1.235 . S
C54 O60 1.287 . S
C54 O61 1.255 . S
O55 Fe44 1.976 . S
O55 C62 1.287 . S
O56 Fe45 1.996 1_556 S
O56 C62 1.255 . S
O57 Fe47 1.976 . S
O57 C52 1.287 1_554 S
O58 Fe44 1.996 . S
O58 C52 1.255 . S
C59 O63 1.295 . S
C59 O64 1.235 . S
O60 Fe45 1.976 . S
O60 C54 1.287 . S
O61 Fe47 1.996 . S
O61 C54 1.255 . S
C62 O55 1.287 . S
C62 O56 1.255 . S
O63 Fe45 2.002 . S
O63 C59 1.295 . S
O64 Fe47 1.997 . S
O64 C59 1.235 . S
C65 O48 1.295 1_556 S
C65 O49 1.235 . S
Fe66 O68 1.918 . S
Fe66 O71 1.997 . S
Fe66 O72 2.002 . S
Fe66 O77 1.976 . S
Fe66 O80 1.996 . S
Fe67 O68 1.918 . S
Fe67 O75 1.997 1_455 S
Fe67 O78 1.996 1_455 S
Fe67 O82 1.976 . S
Fe67 O85 2.002 . S
O68 Fe66 1.918 . S
O68 Fe67 1.918 . S
O68 Fe69 1.918 . S
Fe69 O68 1.918 . S
Fe69 O70 2.002 . S
Fe69 O79 1.976 . S
Fe69 O83 1.996 . S
Fe69 O86 1.997 . S
O70 Fe69 2.002 . S
O70 C87 1.295 . S
O71 Fe66 1.997 . S
O71 C87 1.235 . S
O72 Fe66 2.002 . S
O72 C73 1.295 . S
C73 O72 1.295 . S
C73 O75 1.235 1_455 S
C74 O79 1.287 . S
C74 O80 1.255 . S
O75 Fe67 1.997 1_655 S
O75 C73 1.235 1_655 S
C76 O82 1.287 . S
C76 O83 1.255 . S
O77 Fe66 1.976 . S
O77 C84 1.287 . S
O78 Fe67 1.996 1_655 S
O78 C84 1.255 1_655 S
O79 Fe69 1.976 . S
O79 C74 1.287 . S
O80 Fe66 1.996 . S
O80 C74 1.255 . S
C81 O85 1.295 . S
C81 O86 1.235 . S
O82 Fe67 1.976 . S
O82 C76 1.287 . S
O83 Fe69 1.996 . S
O83 C76 1.255 . S
C84 O77 1.287 . S
C84 O78 1.255 1_455 S
O85 Fe67 2.002 . S
O85 C81 1.295 . S
O86 Fe69 1.997 . S
O86 C81 1.235 . S
C87 O70 1.295 . S
C87 O71 1.235 . S
Fe88 O90 1.918 . S
Fe88 O93 1.997 . S
Fe88 O94 2.002 . S
Fe88 O99 1.976 . S
Fe88 O102 1.996 . S
Fe89 O90 1.918 . S
Fe89 O97 1.997 . S
Fe89 O100 1.996 . S
Fe89 O104 1.976 . S
Fe89 O107 2.002 . S
O90 Fe88 1.918 . S
O90 Fe89 1.918 . S
O90 Fe91 1.918 . S
Fe91 O90 1.918 . S
Fe91 O92 2.002 . S
Fe91 O101 1.976 . S
Fe91 O105 1.996 . S
Fe91 O108 1.997 . S
O92 Fe91 2.002 . S
O92 C109 1.295 . S
O93 Fe88 1.997 . S
O93 C109 1.235 . S
O94 Fe88 2.002 . S
O94 C95 1.295 . S
C95 O94 1.295 . S
C95 O97 1.235 . S
C96 O101 1.287 . S
C96 O102 1.255 . S
O97 Fe89 1.997 . S
O97 C95 1.235 . S
C98 O104 1.287 . S
C98 O105 1.255 . S
O99 Fe88 1.976 . S
O99 C106 1.287 . S
O100 Fe89 1.996 . S
O100 C106 1.255 . S
O101 Fe91 1.976 . S
O101 C96 1.287 . S
O102 Fe88 1.996 . S
O102 C96 1.255 . S
C103 O107 1.295 . S
C103 O108 1.235 . S
O104 Fe89 1.976 . S
O104 C98 1.287 . S
O105 Fe91 1.996 . S
O105 C98 1.255 . S
C106 O99 1.287 . S
C106 O100 1.255 . S
O107 Fe89 2.002 . S
O107 C103 1.295 . S
O108 Fe91 1.997 . S
O108 C103 1.235 . S
C109 O92 1.295 . S
C109 O93 1.235 . S
Fe110 O112 1.918 . S
Fe110 O115 1.997 . S
Fe110 O116 2.002 . S
Fe110 O121 1.976 . S
Fe110 O124 1.996 . S
Fe111 O112 1.918 . S
Fe111 O119 1.997 . S
Fe111 O122 1.996 . S
Fe111 O126 1.976 . S
Fe111 O129 2.002 . S
O112 Fe110 1.918 . S
O112 Fe111 1.918 . S
O112 Fe113 1.918 . S
Fe113 O112 1.918 . S
Fe113 O114 2.002 . S
Fe113 O123 1.976 . S
Fe113 O127 1.996 1_565 S
Fe113 O130 1.997 1_565 S
O114 Fe113 2.002 . S
O114 C131 1.295 . S
O115 Fe110 1.997 . S
O115 C131 1.235 . S
O116 Fe110 2.002 . S
O116 C117 1.295 . S
C117 O116 1.295 . S
C117 O119 1.235 . S
C118 O123 1.287 . S
C118 O124 1.255 . S
O119 Fe111 1.997 . S
O119 C117 1.235 . S
C120 O126 1.287 . S
C120 O127 1.255 1_565 S
O121 Fe110 1.976 . S
O121 C128 1.287 . S
O122 Fe111 1.996 . S
O122 C128 1.255 . S
O123 Fe113 1.976 . S
O123 C118 1.287 . S
O124 Fe110 1.996 . S
O124 C118 1.255 . S
C125 O129 1.295 . S
C125 O130 1.235 1_565 S
O126 Fe111 1.976 . S
O126 C120 1.287 . S
O127 Fe113 1.996 1_545 S
O127 C120 1.255 1_545 S
C128 O121 1.287 . S
C128 O122 1.255 . S
O129 Fe111 2.002 . S
O129 C125 1.295 . S
O130 Fe113 1.997 1_545 S
O130 C125 1.235 1_545 S
C131 O114 1.295 . S
C131 O115 1.235 . S
Fe132 O134 1.918 . S
Fe132 O137 1.997 . S
Fe132 O138 2.002 . S
Fe132 O143 1.976 . S
Fe132 O146 1.996 . S
Fe133 O134 1.918 . S
Fe133 O141 1.997 . S
Fe133 O144 1.996 . S
Fe133 O148 1.976 . S
Fe133 O151 2.002 . S
O134 Fe132 1.918 . S
O134 Fe133 1.918 . S
O134 Fe135 1.918 . S
Fe135 O134 1.918 . S
Fe135 O136 2.002 . S
Fe135 O145 1.976 . S
Fe135 O149 1.996 . S
Fe135 O152 1.997 . S
O136 Fe135 2.002 . S
O136 C153 1.295 . S
O137 Fe132 1.997 . S
O137 C153 1.235 . S
O138 Fe132 2.002 . S
O138 C139 1.295 . S
C139 O138 1.295 . S
C139 O141 1.235 . S
C140 O145 1.287 . S
C140 O146 1.255 . S
O141 Fe133 1.997 . S
O141 C139 1.235 . S
C142 O148 1.287 . S
C142 O149 1.255 . S
O143 Fe132 1.976 . S
O143 C150 1.287 . S
O144 Fe133 1.996 . S
O144 C150 1.255 . S
O145 Fe135 1.976 . S
O145 C140 1.287 . S
O146 Fe132 1.996 . S
O146 C140 1.255 . S
C147 O151 1.295 . S
C147 O152 1.235 . S
O148 Fe133 1.976 . S
O148 C142 1.287 . S
O149 Fe135 1.996 . S
O149 C142 1.255 . S
C150 O143 1.287 . S
C150 O144 1.255 . S
O151 Fe133 2.002 . S
O151 C147 1.295 . S
O152 Fe135 1.997 . S
O152 C147 1.235 . S
C153 O136 1.295 . S
C153 O137 1.235 . S
Fe154 O156 1.918 . S
Fe154 O159 1.997 . S
Fe154 O160 2.002 . S
Fe154 O165 1.976 . S
Fe154 O168 1.996 . S
Fe155 O156 1.918 . S
Fe155 O163 1.997 . S
Fe155 O166 1.996 . S
Fe155 O170 1.976 . S
Fe155 O173 2.002 . S
O156 Fe154 1.918 . S
O156 Fe155 1.918 . S
O156 Fe157 1.918 . S
Fe157 O156 1.918 . S
Fe157 O158 2.002 . S
Fe157 O167 1.976 . S
Fe157 O171 1.996 . S
Fe157 O174 1.997 . S
O158 Fe157 2.002 . S
O158 C175 1.295 . S
O159 Fe154 1.997 . S
O159 C175 1.235 . S
O160 Fe154 2.002 . S
O160 C161 1.295 . S
C161 O160 1.295 . S
C161 O163 1.235 . S
C162 O167 1.287 . S
C162 O168 1.255 . S
O163 Fe155 1.997 . S
O163 C161 1.235 . S
C164 O170 1.287 . S
C164 O171 1.255 . S
O165 Fe154 1.976 . S
O165 C172 1.287 . S
O166 Fe155 1.996 . S
O166 C172 1.255 . S
O167 Fe157 1.976 . S
O167 C162 1.287 . S
O168 Fe154 1.996 . S
O168 C162 1.255 . S
C169 O173 1.295 . S
C169 O174 1.235 . S
O170 Fe155 1.976 . S
O170 C164 1.287 . S
O171 Fe157 1.996 . S
O171 C164 1.255 . S
C172 O165 1.287 . S
C172 O166 1.255 . S
O173 Fe155 2.002 . S
O173 C169 1.295 . S
O174 Fe157 1.997 . S
O174 C169 1.235 . S
C175 O158 1.295 . S
C175 O159 1.235 . S
Fe176 O178 1.918 . S
Fe176 O181 1.997 . S
Fe176 O182 2.002 . S
Fe176 O187 1.976 . S
Fe176 O190 1.996 . S
Fe177 O178 1.918 . S
Fe177 O185 1.997 . S
Fe177 O188 1.996 . S
Fe177 O192 1.976 . S
Fe177 O195 2.002 . S
O178 Fe176 1.918 . S
O178 Fe177 1.918 . S
O178 Fe179 1.918 . S
Fe179 O178 1.918 . S
Fe179 O180 2.002 . S
Fe179 O189 1.976 . S
Fe179 O193 1.996 . S
Fe179 O196 1.997 . S
O180 Fe179 2.002 . S
O180 C197 1.295 . S
O181 Fe176 1.997 . S
O181 C197 1.235 . S
O182 Fe176 2.002 . S
O182 C183 1.295 . S
C183 O182 1.295 . S
C183 O185 1.235 . S
C184 O189 1.287 . S
C184 O190 1.255 . S
O185 Fe177 1.997 . S
O185 C183 1.235 . S
C186 O192 1.287 . S
C186 O193 1.255 . S
O187 Fe176 1.976 . S
O187 C194 1.287 . S
O188 Fe177 1.996 . S
O188 C194 1.255 . S
O189 Fe179 1.976 . S
O189 C184 1.287 . S
O190 Fe176 1.996 . S
O190 C184 1.255 . S
C191 O195 1.295 . S
C191 O196 1.235 . S
O192 Fe177 1.976 . S
O192 C186 1.287 . S
O193 Fe179 1.996 . S
O193 C186 1.255 . S
C194 O187 1.287 . S
C194 O188 1.255 . S
O195 Fe177 2.002 . S
O195 C191 1.295 . S
O196 Fe179 1.997 . S
O196 C191 1.235 . S
C197 O180 1.295 . S
C197 O181 1.235 . S
C198 C199 1.369 . S
C198 C200 1.419 1_545 S
C198 H202 0.930 . S
C199 C198 1.369 . S
C199 C208 1.429 . S
C200 C198 1.419 1_565 S
C200 C201 1.363 . S
C200 H203 0.929 . S
C201 C200 1.363 . S
C201 C207 1.428 . S
H202 C198 0.930 . S
H203 C200 0.929 . S
S204 N205 1.613 1_565 S
S204 N206 1.610 . S
N205 S204 1.613 1_545 S
N205 C208 1.350 . S
N206 S204 1.610 . S
N206 C207 1.351 . S
C207 C201 1.428 . S
C207 N206 1.351 . S
C207 C208 1.434 1_565 S
C208 C199 1.429 . S
C208 N205 1.350 . S
C208 C207 1.434 1_545 S
C209 C210 1.369 . S
C209 C211 1.419 1_655 S
C209 H213 0.930 . S
C210 C209 1.369 . S
C210 C219 1.429 . S
C211 C209 1.419 1_455 S
C211 C212 1.363 . S
C211 H214 0.929 . S
C212 C211 1.363 . S
C212 C218 1.428 . S
H213 C209 0.930 . S
H214 C211 0.929 . S
S215 N216 1.613 1_455 S
S215 N217 1.610 . S
N216 S215 1.613 1_655 S
N216 C219 1.350 . S
N217 S215 1.610 . S
N217 C218 1.351 . S
C218 C212 1.428 . S
C218 N217 1.351 . S
C218 C219 1.434 1_455 S
C219 C210 1.429 . S
C219 N216 1.350 . S
C219 C218 1.434 1_655 S
C220 C221 1.369 . S
C220 C222 1.419 . S
C220 H224 0.930 . S
C221 C220 1.369 . S
C221 C230 1.429 . S
C222 C220 1.419 . S
C222 C223 1.363 . S
C222 H225 0.929 . S
C223 C222 1.363 . S
C223 C229 1.428 . S
H224 C220 0.930 . S
H225 C222 0.929 . S
S226 N227 1.613 . S
S226 N228 1.610 . S
N227 S226 1.613 . S
N227 C230 1.350 . S
N228 S226 1.610 . S
N228 C229 1.351 . S
C229 C223 1.428 . S
C229 N228 1.351 . S
C229 C230 1.434 . S
C230 C221 1.429 . S
C230 N227 1.350 . S
C230 C229 1.434 . S
C231 C232 1.369 . S
C231 C233 1.419 1_455 S
C231 H235 0.930 . S
C232 C231 1.369 . S
C232 C241 1.429 1_455 S
C233 C231 1.419 1_655 S
C233 C234 1.363 . S
C233 H236 0.929 . S
C234 C233 1.363 . S
C234 C240 1.428 . S
H235 C231 0.930 . S
H236 C233 0.929 . S
S237 N238 1.613 . S
S237 N239 1.610 . S
N238 S237 1.613 . S
N238 C241 1.350 . S
N239 S237 1.610 . S
N239 C240 1.351 . S
C240 C234 1.428 . S
C240 N239 1.351 . S
C240 C241 1.434 . S
C241 C232 1.429 1_655 S
C241 N238 1.350 . S
C241 C240 1.434 . S
C242 C243 1.369 . S
C242 C244 1.419 . S
C242 H246 0.930 . S
C243 C242 1.369 . S
C243 C252 1.429 . S
C244 C242 1.419 . S
C244 C245 1.363 . S
C244 H247 0.929 . S
C245 C244 1.363 . S
C245 C251 1.428 . S
H246 C242 0.930 . S
H247 C244 0.929 . S
S248 N249 1.613 . S
S248 N250 1.610 . S
N249 S248 1.613 . S
N249 C252 1.350 . S
N250 S248 1.610 . S
N250 C251 1.351 . S
C251 C245 1.428 . S
C251 N250 1.351 . S
C251 C252 1.434 . S
C252 C243 1.429 . S
C252 N249 1.350 . S
C252 C251 1.434 . S
C253 C254 1.369 1_545 S
C253 C255 1.419 . S
C253 H257 0.930 . S
C254 C253 1.369 1_565 S
C254 C263 1.429 . S
C255 C253 1.419 . S
C255 C256 1.363 . S
C255 H258 0.929 . S
C256 C255 1.363 . S
C256 C262 1.428 . S
H257 C253 0.930 . S
H258 C255 0.929 . S
S259 N260 1.613 . S
S259 N261 1.610 . S
N260 S259 1.613 . S
N260 C263 1.350 . S
N261 S259 1.610 . S
N261 C262 1.351 1_565 S
C262 C256 1.428 . S
C262 N261 1.351 1_545 S
C262 C263 1.434 1_545 S
C263 C254 1.429 . S
C263 N260 1.350 . S
C263 C262 1.434 1_565 S
C264 C265 1.369 . S
C264 C266 1.419 . S
C264 H268 0.930 . S
C265 C264 1.369 . S
C265 C274 1.429 . S
C266 C264 1.419 . S
C266 C267 1.363 . S
C266 H269 0.929 1_655 S
C267 C266 1.363 . S
C267 C273 1.428 . S
H268 C264 0.930 . S
H269 C266 0.929 1_455 S
S270 N271 1.613 . S
S270 N272 1.610 . S
N271 S270 1.613 . S
N271 C274 1.350 . S
N272 S270 1.610 . S
N272 C273 1.351 . S
C273 C267 1.428 . S
C273 N272 1.351 . S
C273 C274 1.434 . S
C274 C265 1.429 . S
C274 N271 1.350 . S
C274 C273 1.434 . S
C275 C276 1.369 . S
C275 C277 1.419 . S
C275 H279 0.930 . S
C276 C275 1.369 . S
C276 C285 1.429 . S
C277 C275 1.419 . S
C277 C278 1.363 . S
C277 H280 0.929 . S
C278 C277 1.363 . S
C278 C284 1.428 . S
H279 C275 0.930 . S
H280 C277 0.929 . S
S281 N282 1.613 . S
S281 N283 1.610 . S
N282 S281 1.613 . S
N282 C285 1.350 . S
N283 S281 1.610 . S
N283 C284 1.351 . S
C284 C278 1.428 . S
C284 N283 1.351 . S
C284 C285 1.434 . S
C285 C276 1.429 . S
C285 N282 1.350 . S
C285 C284 1.434 . S
C286 C287 1.369 . S
C286 C288 1.419 . S
C286 H290 0.930 . S
C287 C286 1.369 . S
C287 C296 1.429 . S
C288 C286 1.419 . S
C288 C289 1.363 . S
C288 H291 0.929 . S
C289 C288 1.363 . S
C289 C295 1.428 1_545 S
H290 C286 0.930 . S
H291 C288 0.929 . S
S292 N293 1.613 1_565 S
S292 N294 1.610 . S
N293 S292 1.613 1_545 S
N293 C296 1.350 . S
N294 S292 1.610 . S
N294 C295 1.355 . S
C295 C289 1.428 1_565 S
C295 N294 1.355 . S
C295 C296 1.430 1_565 S
C296 C287 1.429 . S
C296 N293 1.350 . S
C296 C295 1.430 1_545 S
C297 C298 1.369 . S
C297 C299 1.419 . S
C297 H301 0.930 . S
C298 C297 1.369 . S
C298 C307 1.429 . S
C299 C297 1.419 . S
C299 C300 1.363 . S
C299 H302 0.929 . S
C300 C299 1.363 . S
C300 C306 1.428 . S
H301 C297 0.930 . S
H302 C299 0.929 . S
S303 N304 1.613 . S
S303 N305 1.610 . S
N304 S303 1.613 . S
N304 C307 1.350 . S
N305 S303 1.610 . S
N305 C306 1.351 . S
C306 C300 1.428 . S
C306 N305 1.351 . S
C306 C307 1.434 . S
C307 C298 1.429 . S
C307 N304 1.350 . S
C307 C306 1.434 . S
C308 C309 1.369 . S
C308 C310 1.419 . S
C308 H312 0.930 . S
C309 C308 1.369 . S
C309 C318 1.429 . S
C310 C308 1.419 . S
C310 C311 1.363 . S
C310 H313 0.929 . S
C311 C310 1.363 . S
C311 C317 1.428 . S
H312 C308 0.930 . S
H313 C310 0.929 . S
S314 N315 1.613 . S
S314 N316 1.610 1_455 S
N315 S314 1.613 . S
N315 C318 1.350 1_455 S
N316 S314 1.610 1_655 S
N316 C317 1.351 . S
C317 C311 1.428 . S
C317 N316 1.351 . S
C317 C318 1.434 . S
C318 C309 1.429 . S
C318 N315 1.350 1_655 S
C318 C317 1.434 . S
C319 C320 1.369 . S
C319 C321 1.419 . S
C319 H323 0.930 . S
C320 C319 1.369 . S
C320 C329 1.429 . S
C321 C319 1.419 . S
C321 C322 1.363 . S
C321 H324 0.929 . S
C322 C321 1.363 . S
C322 C328 1.428 . S
H323 C319 0.930 . S
H324 C321 0.929 . S
S325 N326 1.613 . S
S325 N327 1.610 . S
N326 S325 1.613 . S
N326 C329 1.350 . S
N327 S325 1.610 . S
N327 C328 1.351 . S
C328 C322 1.428 . S
C328 N327 1.351 . S
C328 C329 1.434 . S
C329 C320 1.429 . S
C329 N326 1.350 . S
C329 C328 1.434 . S
C330 C331 1.369 . S
C330 C332 1.419 . S
C330 H334 0.930 . S
C331 C330 1.369 . S
C331 C340 1.429 . S
C332 C330 1.419 . S
C332 C333 1.363 . S
C332 H335 0.929 . S
C333 C332 1.363 . S
C333 C339 1.428 . S
H334 C330 0.930 . S
H335 C332 0.929 . S
S336 N337 1.613 . S
S336 N338 1.610 . S
N337 S336 1.613 . S
N337 C340 1.350 . S
N338 S336 1.610 . S
N338 C339 1.351 . S
C339 C333 1.428 . S
C339 N338 1.351 . S
C339 C340 1.434 . S
C340 C331 1.429 . S
C340 N337 1.350 . S
C340 C339 1.434 . S
C341 C342 1.369 . S
C341 C343 1.419 . S
C341 H345 0.930 . S
C342 C341 1.369 . S
C342 C351 1.429 . S
C343 C341 1.419 . S
C343 C344 1.363 . S
C343 H346 0.929 . S
C344 C343 1.363 . S
C344 C350 1.428 . S
H345 C341 0.930 . S
H346 C343 0.929 . S
S347 N348 1.613 . S
S347 N349 1.610 . S
N348 S347 1.613 . S
N348 C351 1.350 . S
N349 S347 1.610 . S
N349 C350 1.351 . S
C350 C344 1.428 . S
C350 N349 1.351 . S
C350 C351 1.434 . S
C351 C342 1.429 . S
C351 N348 1.350 . S
C351 C350 1.434 . S
C352 C353 1.369 . S
C352 C354 1.419 . S
C352 H356 0.930 . S
C353 C352 1.369 . S
C353 C362 1.429 . S
C354 C352 1.419 . S
C354 C355 1.363 . S
C354 H357 0.929 . S
C355 C354 1.363 . S
C355 C361 1.428 . S
H356 C352 0.930 . S
H357 C354 0.929 . S
S358 N359 1.613 . S
S358 N360 1.610 . S
N359 S358 1.613 . S
N359 C362 1.350 . S
N360 S358 1.610 . S
N360 C361 1.351 . S
C361 C355 1.428 . S
C361 N360 1.351 . S
C361 C362 1.434 . S
C362 C353 1.429 . S
C362 N359 1.350 . S
C362 C361 1.434 . S
C363 C364 1.369 . S
C363 C365 1.419 . S
C363 H367 0.930 . S
C364 C363 1.369 . S
C364 C373 1.429 . S
C365 C363 1.419 . S
C365 C366 1.363 . S
C365 H368 0.929 . S
C366 C365 1.363 . S
C366 C372 1.428 . S
H367 C363 0.930 . S
H368 C365 0.929 . S
S369 N370 1.613 . S
S369 N371 1.610 . S
N370 S369 1.613 . S
N370 C373 1.350 . S
N371 S369 1.610 . S
N371 C372 1.351 . S
C372 C366 1.428 . S
C372 N371 1.351 . S
C372 C373 1.434 . S
C373 C364 1.429 . S
C373 N370 1.350 . S
C373 C372 1.434 . S
C374 C375 1.369 . S
C374 C376 1.419 . S
C374 H378 0.930 . S
C375 C374 1.369 . S
C375 C384 1.429 . S
C376 C374 1.419 . S
C376 C377 1.363 . S
C376 H379 0.929 . S
C377 C376 1.363 . S
C377 C383 1.428 . S
H378 C374 0.930 . S
H379 C376 0.929 . S
S380 N381 1.613 . S
S380 N382 1.610 1_545 S
N381 S380 1.613 . S
N381 C384 1.350 1_545 S
N382 S380 1.610 1_565 S
N382 C383 1.351 . S
C383 C377 1.428 . S
C383 N382 1.351 . S
C383 C384 1.434 . S
C384 C375 1.429 . S
C384 N381 1.350 1_565 S
C384 C383 1.434 . S
C385 C386 1.369 . S
C385 C387 1.419 . S
C385 H389 0.930 . S
C386 C385 1.369 . S
C386 C395 1.429 . S
C387 C385 1.419 . S
C387 C388 1.363 . S
C387 H390 0.929 . S
C388 C387 1.363 . S
C388 C394 1.428 . S
H389 C385 0.930 . S
H390 C387 0.929 . S
S391 N392 1.613 . S
S391 N393 1.610 . S
N392 S391 1.613 . S
N392 C395 1.350 . S
N393 S391 1.610 . S
N393 C394 1.351 . S
C394 C388 1.428 . S
C394 N393 1.351 . S
C394 C395 1.434 . S
C395 C386 1.429 . S
C395 N392 1.350 . S
C395 C394 1.434 . S
C396 C397 1.369 . S
C396 C398 1.419 . S
C396 H400 0.930 . S
C397 C396 1.369 . S
C397 C406 1.429 1_556 S
C398 C396 1.419 . S
C398 C399 1.363 . S
C398 H401 0.929 . S
C399 C398 1.363 . S
C399 C405 1.428 1_556 S
H400 C396 0.930 . S
H401 C398 0.929 . S
S402 N403 1.613 . S
S402 N404 1.610 . S
N403 S402 1.613 . S
N403 C406 1.350 . S
N404 S402 1.610 . S
N404 C405 1.351 . S
C405 C399 1.428 1_554 S
C405 N404 1.351 . S
C405 C406 1.434 . S
C406 C397 1.429 1_554 S
C406 N403 1.350 . S
C406 C405 1.434 . S
C407 C408 1.369 1_554 S
C407 C409 1.419 . S
C407 H411 0.930 . S
C408 C407 1.369 1_556 S
C408 C417 1.429 . S
C409 C407 1.419 . S
C409 C410 1.363 1_554 S
C409 H412 0.929 . S
C410 C409 1.363 1_556 S
C410 C416 1.428 . S
H411 C407 0.930 . S
H412 C409 0.929 . S
S413 N414 1.613 . S
S413 N415 1.610 . S
N414 S413 1.613 . S
N414 C417 1.350 . S
N415 S413 1.610 . S
N415 C416 1.351 . S
C416 C410 1.428 . S
C416 N415 1.351 . S
C416 C417 1.434 . S
C417 C408 1.429 . S
C417 N414 1.350 . S
C417 C416 1.434 . S
C418 C419 1.369 . S
C418 C420 1.419 . S
C418 H422 0.930 . S
C419 C418 1.369 . S
C419 C428 1.429 . S
C420 C418 1.419 . S
C420 C421 1.363 . S
C420 H423 0.929 . S
C421 C420 1.363 . S
C421 C427 1.428 . S
H422 C418 0.930 . S
H423 C420 0.929 . S
S424 N425 1.613 . S
S424 N426 1.610 . S
N425 S424 1.613 . S
N425 C428 1.350 . S
N426 S424 1.610 . S
N426 C427 1.351 . S
C427 C421 1.428 . S
C427 N426 1.351 . S
C427 C428 1.434 . S
C428 C419 1.429 . S
C428 N425 1.350 . S
C428 C427 1.434 . S
C429 C430 1.369 . S
C429 C431 1.419 . S
C429 H433 0.930 . S
C430 C429 1.369 . S
C430 C439 1.429 . S
C431 C429 1.419 . S
C431 C432 1.363 . S
C431 H434 0.929 . S
C432 C431 1.363 . S
C432 C438 1.428 . S
H433 C429 0.930 . S
H434 C431 0.929 . S
S435 N436 1.613 . S
S435 N437 1.610 . S
N436 S435 1.613 . S
N436 C439 1.350 . S
N437 S435 1.610 . S
N437 C438 1.351 . S
C438 C432 1.428 . S
C438 N437 1.351 . S
C438 C439 1.434 . S
C439 C430 1.429 . S
C439 N436 1.350 . S
C439 C438 1.434 . S
C440 C441 1.369 . S
C440 C442 1.419 . S
C440 H444 0.930 . S
C441 C440 1.369 . S
C441 C450 1.429 . S
C442 C440 1.419 . S
C442 C443 1.363 . S
C442 H445 0.929 . S
C443 C442 1.363 . S
C443 C449 1.428 . S
H444 C440 0.930 . S
H445 C442 0.929 . S
S446 N447 1.613 . S
S446 N448 1.610 . S
N447 S446 1.613 . S
N447 C450 1.350 . S
N448 S446 1.610 . S
N448 C449 1.351 . S
C449 C443 1.428 . S
C449 N448 1.351 . S
C449 C450 1.434 . S
C450 C441 1.429 . S
C450 N447 1.350 . S
C450 C449 1.434 . S
C451 C452 1.369 . S
C451 C453 1.419 . S
C451 H455 0.930 . S
C452 C451 1.369 . S
C452 C461 1.429 . S
C453 C451 1.419 . S
C453 C454 1.363 . S
C453 H456 0.929 . S
C454 C453 1.363 . S
C454 C460 1.428 . S
H455 C451 0.930 . S
H456 C453 0.929 . S
S457 N458 1.613 . S
S457 N459 1.610 . S
N458 S457 1.613 . S
N458 C461 1.350 . S
N459 S457 1.610 . S
N459 C460 1.351 . S
C460 C454 1.428 . S
C460 N459 1.351 . S
C460 C461 1.434 . S
C461 C452 1.429 . S
C461 N458 1.350 . S
C461 C460 1.434 . S
C462 C463 1.369 . S
C462 C464 1.419 . S
C462 H466 0.930 . S
C463 C462 1.369 . S
C463 C472 1.429 . S
C464 C462 1.419 . S
C464 C465 1.363 . S
C464 H467 0.929 . S
C465 C464 1.363 . S
C465 C471 1.428 . S
H466 C462 0.930 . S
H467 C464 0.929 . S
S468 N469 1.613 . S
S468 N470 1.610 . S
N469 S468 1.613 . S
N469 C472 1.350 . S
N470 S468 1.610 . S
N470 C471 1.351 . S
C471 C465 1.428 . S
C471 N470 1.351 . S
C471 C472 1.434 . S
C472 C463 1.429 . S
C472 N469 1.350 . S
C472 C471 1.434 . S
C473 C474 1.369 . S
C473 C475 1.419 . S
C473 H477 0.930 . S
C474 C473 1.369 . S
C474 C483 1.429 . S
C475 C473 1.419 . S
C475 C476 1.363 . S
C475 H478 0.929 . S
C476 C475 1.363 . S
C476 C482 1.428 . S
H477 C473 0.930 . S
H478 C475 0.929 . S
S479 N480 1.613 . S
S479 N481 1.610 . S
N480 S479 1.613 . S
N480 C483 1.350 . S
N481 S479 1.610 . S
N481 C482 1.351 . S
C482 C476 1.428 . S
C482 N481 1.351 . S
C482 C483 1.434 . S
C483 C474 1.429 . S
C483 N480 1.350 . S
C483 C482 1.434 . S
C484 C485 1.369 . S
C484 C486 1.419 . S
C484 H488 0.930 . S
C485 C484 1.369 . S
C485 C494 1.429 . S
C486 C484 1.419 . S
C486 C487 1.363 . S
C486 H489 0.929 . S
C487 C486 1.363 . S
C487 C493 1.428 . S
H488 C484 0.930 . S
H489 C486 0.929 . S
S490 N491 1.613 . S
S490 N492 1.610 . S
N491 S490 1.613 . S
N491 C494 1.350 . S
N492 S490 1.610 . S
N492 C493 1.351 . S
C493 C487 1.428 . S
C493 N492 1.351 . S
C493 C494 1.434 . S
C494 C485 1.429 . S
C494 N491 1.350 . S
C494 C493 1.434 . S
C199 C18 1.390 . S
C201 C164 1.337 . S
C210 C30 1.390 . S
C212 C194 1.339 . S
C221 C142 1.340 . S
C223 C62 1.391 . S
C232 C169 1.435 . S
C234 C51 1.451 . S
C243 C183 1.432 . S
C245 C7 1.450 . S
C254 C147 1.439 . S
C256 C43 1.454 . S
C265 C40 1.334 . S
C267 C84 1.390 1_655 S
C276 C106 1.391 . S
C278 C54 1.340 . S
C287 C10 1.342 . S
C289 C120 1.391 1_545 S
C298 C29 1.439 . S
C300 C125 1.454 1_545 S
C309 C73 1.454 1_655 S
C311 C59 1.438 . S
C320 C15 1.432 . S
C322 C95 1.450 . S
C331 C150 1.391 . S
C333 C98 1.339 . S
C342 C118 1.337 . S
C344 C172 1.390 . S
C353 C184 1.390 . S
C355 C76 1.334 . S
C364 C197 1.453 . S
C366 C103 1.438 . S
C375 C131 1.439 . S
C377 C139 1.454 . S
C386 C81 1.435 . S
C388 C161 1.452 . S
C397 C8 1.073 . S
C399 C37 1.059 . S
C408 C65 1.058 . S
C410 C32 1.075 . S
C419 C52 1.078 . S
C421 C21 1.064 . S
C430 C109 1.061 . S
C432 C74 1.075 . S
C441 C117 1.058 . S
C443 C96 1.074 . S
C452 C128 1.075 . S
C454 C87 1.059 . S
C463 C175 1.058 1_655 S
C465 C140 1.074 . S
C474 C162 1.079 1_545 S
C476 C191 1.065 . S
C485 C153 1.064 1_545 S
C487 C186 1.078 1_655 S
