# Generated by pormake.
# Topology unm, (4)-cn, num edge types: 1
# Building blocks:
#     Node 0, Type 0, BuildingBlock: QUQFOY_clean_sbu_1, # of connection points: 4
#     Node 1, Type 0, BuildingBlock: QUQFOY_clean_sbu_1, # of connection points: 4
#     Node 2, Type 0, BuildingBlock: QUQFOY_clean_sbu_1, # of connection points: 4
#     Node 3, Type 0, BuildingBlock: QUQFOY_clean_sbu_1, # of connection points: 4
#     Node 4, Type 0, BuildingBlock: QUQFOY_clean_sbu_1, # of connection points: 4
#     Node 5, Type 0, BuildingBlock: QUQFOY_clean_sbu_1, # of connection points: 4
#     Node 6, Type 0, BuildingBlock: QUQFOY_clean_sbu_1, # of connection points: 4
#     Node 7, Type 0, BuildingBlock: QUQFOY_clean_sbu_1, # of connection points: 4
#     Edge 8, Type (0, 0), BuildingBlock: UVAHIK_clean_linker_0, # of connection points: 2
#     Edge 9, Type (0, 0), BuildingBlock: UVAHIK_clean_linker_0, # of connection points: 2
#     Edge 10, Type (0, 0), BuildingBlock: UVAHIK_clean_linker_0, # of connection points: 2
#     Edge 11, Type (0, 0), BuildingBlock: UVAHIK_clean_linker_0, # of connection points: 2
#     Edge 12, Type (0, 0), BuildingBlock: UVAHIK_clean_linker_0, # of connection points: 2
#     Edge 13, Type (0, 0), BuildingBlock: UVAHIK_clean_linker_0, # of connection points: 2
#     Edge 14, Type (0, 0), BuildingBlock: UVAHIK_clean_linker_0, # of connection points: 2
#     Edge 15, Type (0, 0), BuildingBlock: UVAHIK_clean_linker_0, # of connection points: 2
#     Edge 16, Type (0, 0), BuildingBlock: UVAHIK_clean_linker_0, # of connection points: 2
#     Edge 17, Type (0, 0), BuildingBlock: UVAHIK_clean_linker_0, # of connection points: 2
#     Edge 18, Type (0, 0), BuildingBlock: UVAHIK_clean_linker_0, # of connection points: 2
#     Edge 19, Type (0, 0), BuildingBlock: UVAHIK_clean_linker_0, # of connection points: 2
#     Edge 20, Type (0, 0), BuildingBlock: UVAHIK_clean_linker_0, # of connection points: 2
#     Edge 21, Type (0, 0), BuildingBlock: UVAHIK_clean_linker_0, # of connection points: 2
#     Edge 22, Type (0, 0), BuildingBlock: UVAHIK_clean_linker_0, # of connection points: 2
#     Edge 23, Type (0, 0), BuildingBlock: UVAHIK_clean_linker_0, # of connection points: 2
# Relax obj value: 0.178
# Max RMSD: 0.175
# Mean RMSD: 0.175
data_MOF--net-unm--node1-QUQFOY_clean_sbu_1--edge1-UVAHIK_clean_linker_0
_symmetry_space_group_name_H-M    P1
_symmetry_Int_Tables_number       1
_symmetry_cell_setting            triclinic
loop_
_symmetry_equiv_pos_as_xyz
'x, y, z'
_cell_length_a     35.324839
_cell_length_b     35.326343
_cell_length_c     57.472638
_cell_angle_alpha  90.065354
_cell_angle_beta   90.003968
_cell_angle_gamma 89.914275
loop_
_atom_site_label
_atom_site_type_symbol
_atom_site_fract_x
_atom_site_fract_y
_atom_site_fract_z
_atom_type_partial_charge
O0 O 0.20913 0.2722 0.12816 0.0
Cd1 Cd 0.20324 0.30104 0.15907 0.0
Cd2 Cd 0.13899 0.25015 0.16063 0.0
O3 O 0.16536 0.22802 0.13171 0.0
O4 O 0.25168 0.32972 0.16087 0.0
O5 O 0.23427 0.28786 0.18735 0.0
C6 C 0.25902 0.31179 0.17983 0.0
C7 C 0.10062 0.21105 0.18349 0.0
C8 C 0.1922 0.24314 0.12034 0.0
C9 C 0.1263 0.33566 0.15854 0.0
O10 O 0.11354 0.30216 0.15719 0.0
O11 O 0.16157 0.34167 0.16067 0.0
O12 O 0.09307 0.21774 0.16201 0.0
O13 O 0.13171 0.22454 0.19186 0.0
O14 O 0.219 0.70462 0.62443 0.0
Cd15 Cd 0.19349 0.6966 0.65641 0.0
Cd16 Cd 0.23904 0.63121 0.65253 0.0
O17 O 0.26301 0.66025 0.62541 0.0
O18 O 0.1689 0.74646 0.66233 0.0
O19 O 0.21291 0.72227 0.68533 0.0
C20 C 0.18988 0.74963 0.68055 0.0
C21 C 0.27478 0.58841 0.67453 0.0
C22 C 0.24756 0.68832 0.61538 0.0
C23 C 0.15367 0.62336 0.6519 0.0
O24 O 0.18588 0.60963 0.64695 0.0
O25 O 0.15039 0.65753 0.65846 0.0
O26 O 0.26823 0.58309 0.65276 0.0
O27 O 0.26339 0.61985 0.68365 0.0
O28 O 0.79019 0.71833 0.11865 0.0
Cd29 Cd 0.79626 0.69201 0.15039 0.0
Cd30 Cd 0.86318 0.73752 0.1495 0.0
O31 O 0.83778 0.75875 0.12003 0.0
O32 O 0.74537 0.67021 0.15666 0.0
O33 O 0.77234 0.71298 0.17941 0.0
C34 C 0.74375 0.6914 0.17489 0.0
C35 C 0.90497 0.77566 0.17075 0.0
C36 C 0.80911 0.74514 0.10963 0.0
C37 C 0.86943 0.651 0.1501 0.0
O38 O 0.8844 0.68344 0.14797 0.0
O39 O 0.83385 0.64761 0.15236 0.0
O40 O 0.91203 0.76535 0.14974 0.0
O41 O 0.87249 0.76659 0.17939 0.0
O42 O 0.77404 0.28464 0.62155 0.0
Cd43 Cd 0.80215 0.29122 0.65281 0.0
Cd44 Cd 0.75505 0.35898 0.65072 0.0
O45 O 0.73177 0.33073 0.62302 0.0
O46 O 0.82914 0.24186 0.65551 0.0
O47 O 0.787 0.26154 0.68127 0.0
C48 C 0.81039 0.23575 0.67433 0.0
C49 C 0.71792 0.40216 0.6717 0.0
C50 C 0.74589 0.30206 0.61286 0.0
C51 C 0.84104 0.36582 0.64999 0.0
O52 O 0.80862 0.38018 0.64644 0.0
O53 O 0.84469 0.33093 0.65476 0.0
O54 O 0.72661 0.40758 0.65025 0.0
O55 O 0.72823 0.37061 0.68109 0.0
O56 O 0.70218 0.21552 0.35981 0.0
Cd57 Cd 0.69596 0.19467 0.32644 0.0
Cd58 Cd 0.63516 0.24667 0.32899 0.0
O59 O 0.6638 0.26478 0.35798 0.0
O60 O 0.74339 0.16527 0.32128 0.0
O61 O 0.72794 0.21558 0.30048 0.0
C62 C 0.75179 0.18879 0.30497 0.0
C63 C 0.59719 0.28893 0.308 0.0
C64 C 0.68825 0.24528 0.36889 0.0
C65 C 0.6187 0.16264 0.32582 0.0
O66 O 0.60787 0.1956 0.33154 0.0
O67 O 0.65304 0.15638 0.32052 0.0
O68 O 0.59001 0.28026 0.32925 0.0
O69 O 0.62797 0.27579 0.29895 0.0
O70 O 0.26939 0.20506 0.86767 0.0
Cd71 Cd 0.29723 0.19989 0.83634 0.0
Cd72 Cd 0.25124 0.13124 0.83666 0.0
O73 O 0.22936 0.15713 0.86579 0.0
O74 O 0.31969 0.25095 0.83148 0.0
O75 O 0.27809 0.22537 0.80735 0.0
C76 C 0.29956 0.25358 0.81286 0.0
C77 C 0.21423 0.08649 0.81691 0.0
C78 C 0.2424 0.18593 0.87634 0.0
C79 C 0.33826 0.12657 0.83639 0.0
O80 O 0.30585 0.11143 0.83818 0.0
O81 O 0.34161 0.16221 0.83447 0.0
O82 O 0.22514 0.08149 0.83801 0.0
O83 O 0.22195 0.11856 0.80728 0.0
O84 O 0.28811 0.77732 0.36281 0.0
Cd85 Cd 0.29285 0.80358 0.3308 0.0
Cd86 Cd 0.36385 0.76231 0.33431 0.0
O87 O 0.33708 0.73836 0.3623 0.0
O88 O 0.24163 0.82643 0.32696 0.0
O89 O 0.26517 0.78422 0.30249 0.0
C90 C 0.23756 0.80615 0.30851 0.0
C91 C 0.40991 0.72763 0.31409 0.0
C92 C 0.30747 0.75102 0.37215 0.0
C93 C 0.36405 0.84844 0.33299 0.0
O94 O 0.38081 0.81758 0.33765 0.0
O95 O 0.32914 0.84893 0.32779 0.0
O96 O 0.41443 0.7376 0.33543 0.0
O97 O 0.37778 0.73515 0.30443 0.0
O98 O 0.7183 0.78817 0.85799 0.0
Cd99 Cd 0.69071 0.79456 0.8267 0.0
Cd100 Cd 0.74065 0.85983 0.82625 0.0
O101 O 0.76091 0.83373 0.85575 0.0
O102 O 0.66437 0.74517 0.82274 0.0
O103 O 0.70748 0.76629 0.79805 0.0
C104 C 0.68411 0.74 0.80416 0.0
C105 C 0.78116 0.89985 0.80542 0.0
C106 C 0.74633 0.80593 0.8665 0.0
C107 C 0.65441 0.87055 0.82631 0.0
O108 O 0.68769 0.88383 0.82768 0.0
O109 O 0.64895 0.8351 0.82485 0.0
O110 O 0.77081 0.90724 0.82636 0.0
O111 O 0.77054 0.86801 0.79654 0.0
C112 C 0.178 0.20225 0.08569 0.0
C113 C 0.2003 0.23036 0.09632 0.0
C114 C 0.18099 0.19537 0.06179 0.0
C115 C 0.20587 0.24584 0.00861 0.0
H116 H 0.20918 0.14682 0.97957 0.0
C117 C 0.24593 0.22447 0.91276 0.0
C118 C 0.22923 0.19473 0.90018 0.0
C119 C 0.23811 0.2293 0.93636 0.0
C120 C 0.20755 0.17467 0.98739 0.0
H121 H 0.24519 0.27121 0.09047 0.0
H122 H 0.25037 0.25903 0.04894 0.0
H123 H 0.20653 0.1518 0.02195 0.0
H124 H 0.18936 0.14814 0.90223 0.0
H125 H 0.17518 0.1571 0.94341 0.0
H126 H 0.20672 0.26886 0.97425 0.0
C127 C 0.23012 0.24288 0.05901 0.0
C128 C 0.20627 0.17747 0.01165 0.0
C129 C 0.22731 0.24962 0.08284 0.0
C130 C 0.20289 0.17122 0.91144 0.0
C131 C 0.195 0.17612 0.93509 0.0
C132 C 0.20687 0.24307 0.98442 0.0
C133 C 0.20618 0.21657 0.04813 0.0
C134 C 0.2061 0.2131 0.02247 0.0
C135 C 0.21325 0.20465 0.94793 0.0
C136 C 0.20836 0.20748 0.97352 0.0
H137 H 0.15697 0.18684 0.09557 0.0
H138 H 0.16225 0.17485 0.05382 0.0
H139 H 0.20486 0.27369 0.01651 0.0
H140 H 0.26633 0.24314 0.90466 0.0
H141 H 0.25296 0.25135 0.94575 0.0
C142 C 0.28807 0.67829 0.58007 0.0
C143 C 0.25946 0.6988 0.59156 0.0
C144 C 0.29475 0.6838 0.55635 0.0
C145 C 0.24425 0.71379 0.50393 0.0
H146 H 0.34386 0.71771 0.47577 0.0
C147 C 0.26823 0.75564 0.40828 0.0
C148 C 0.29796 0.73831 0.39597 0.0
C149 C 0.26279 0.74803 0.43186 0.0
C150 C 0.31584 0.71602 0.48333 0.0
H151 H 0.21717 0.74298 0.58742 0.0
H152 H 0.22909 0.75268 0.54615 0.0
H153 H 0.33804 0.71267 0.51797 0.0
H154 H 0.34389 0.69761 0.39849 0.0
H155 H 0.33386 0.6838 0.43957 0.0
H156 H 0.22194 0.71692 0.4694 0.0
C157 C 0.24583 0.73186 0.55541 0.0
C158 C 0.31255 0.71335 0.5075 0.0
C159 C 0.23924 0.72649 0.57912 0.0
C160 C 0.32086 0.71165 0.40748 0.0
C161 C 0.31534 0.70397 0.43108 0.0
C162 C 0.24751 0.71628 0.47979 0.0
C163 C 0.27289 0.70983 0.54366 0.0
C164 C 0.27671 0.71257 0.51805 0.0
C165 C 0.28683 0.72278 0.44366 0.0
C166 C 0.28333 0.71773 0.46921 0.0
H167 H 0.30421 0.65678 0.58914 0.0
H168 H 0.31578 0.6664 0.54773 0.0
H169 H 0.21623 0.71242 0.51155 0.0
H170 H 0.25006 0.77634 0.39998 0.0
H171 H 0.24075 0.76325 0.44106 0.0
C172 C 0.77142 0.73922 0.073 0.0
C173 C 0.80037 0.75728 0.08558 0.0
C174 C 0.76694 0.74598 0.04926 0.0
C175 C 0.79009 0.81079 0.00141 0.0
H176 H 0.78013 0.72043 0.96348 0.0
C177 C 0.78769 0.81822 0.90119 0.0
C178 C 0.75936 0.79661 0.89029 0.0
C179 C 0.7962 0.81268 0.92469 0.0
C180 C 0.7826 0.74596 0.97382 0.0
H181 H 0.84581 0.79843 0.08334 0.0
H182 H 0.83771 0.81038 0.0418 0.0
H183 H 0.78529 0.71462 0.00558 0.0
H184 H 0.719 0.75104 0.89531 0.0
H185 H 0.73347 0.74177 0.93618 0.0
H186 H 0.78666 0.84221 0.96967 0.0
C187 C 0.81866 0.79087 0.05038 0.0
C188 C 0.78549 0.74263 -0.00207 0.0
C189 C 0.82329 0.78397 0.07416 0.0
C190 C 0.74099 0.76821 0.90312 0.0
C191 C 0.74942 0.76275 0.92658 0.0
C192 C 0.78696 0.81416 0.97726 0.0
C193 C 0.79116 0.77109 0.03759 0.0
C194 C 0.78884 0.77501 0.01198 0.0
C195 C 0.77657 0.78543 0.93777 0.0
C196 C 0.78279 0.78177 0.96321 0.0
H197 H 0.75306 0.7187 0.08125 0.0
H198 H 0.745 0.73093 0.0399 0.0
H199 H 0.7925 0.83622 0.01186 0.0
H200 H 0.8025 0.84024 0.89178 0.0
H201 H 0.81773 0.83015 0.93271 0.0
C202 C 0.72201 0.23167 0.40624 0.0
C203 C 0.69721 0.2547 0.39336 0.0
C204 C 0.72631 0.23711 0.43015 0.0
C205 C 0.71017 0.30513 0.47793 0.0
H206 H 0.70881 0.21465 0.51613 0.0
C207 C 0.70585 0.31434 0.57768 0.0
C208 C 0.73257 0.29167 0.5893 0.0
C209 C 0.69804 0.30833 0.55415 0.0
C210 C 0.70942 0.24015 0.50568 0.0
H211 H 0.65887 0.30269 0.39534 0.0
H212 H 0.66635 0.31205 0.43707 0.0
H213 H 0.705 0.20893 0.4739 0.0
H214 H 0.77017 0.24334 0.58567 0.0
H215 H 0.75662 0.23301 0.54468 0.0
H216 H 0.71487 0.33634 0.5097 0.0
C217 C 0.68254 0.28987 0.42865 0.0
C218 C 0.70741 0.23689 0.48151 0.0
C219 C 0.67822 0.28444 0.40473 0.0
C220 C 0.74953 0.26143 0.57725 0.0
C221 C 0.74166 0.2554 0.55374 0.0
C222 C 0.71218 0.3084 0.50211 0.0
C223 C 0.70595 0.26569 0.4417 0.0
C224 C 0.70803 0.26933 0.46736 0.0
C225 C 0.71665 0.27945 0.54178 0.0
C226 C 0.71204 0.27593 0.51624 0.0
H227 H 0.73725 0.20864 0.39802 0.0
H228 H 0.74517 0.21853 0.43967 0.0
H229 H 0.71107 0.33062 0.46748 0.0
H230 H 0.6921 0.33776 0.58647 0.0
H231 H 0.67809 0.32687 0.54548 0.0
C232 C 0.29916 0.30901 0.21576 0.0
C233 C 0.29521 0.31808 0.1921 0.0
C234 C 0.3337 0.31486 0.22712 0.0
C235 C 0.43395 0.31409 0.21772 0.0
H236 H 0.44137 0.3717 0.27497 0.0
C237 C 0.57266 0.31337 0.2698 0.0
C238 C 0.56808 0.30845 0.29388 0.0
C239 C 0.54188 0.3243 0.25595 0.0
C240 C 0.43983 0.35523 0.25911 0.0
H241 H 0.32423 0.34013 0.16173 0.0
H242 H 0.38494 0.349 0.18147 0.0
H243 H 0.38128 0.3693 0.25404 0.0
H244 H 0.52844 0.31398 0.32254 0.0
H245 H 0.47509 0.33144 0.29865 0.0
H246 H 0.49136 0.29766 0.22333 0.0
C247 C 0.36113 0.33803 0.19123 0.0
C248 C 0.40543 0.35407 0.24711 0.0
C249 C 0.32641 0.33301 0.18001 0.0
C250 C 0.53299 0.31734 0.30401 0.0
C251 C 0.50224 0.32771 0.29022 0.0
C252 C 0.46813 0.31453 0.22995 0.0
C253 C 0.36502 0.32906 0.21487 0.0
C254 C 0.40208 0.33297 0.22655 0.0
C255 C 0.50584 0.33008 0.26589 0.0
C256 C 0.47136 0.33445 0.25111 0.0
H257 H 0.27555 0.29758 0.2255 0.0
H258 H 0.33622 0.30747 0.24534 0.0
H259 H 0.43191 0.29751 0.20189 0.0
H260 H 0.59944 0.307 0.26148 0.0
H261 H 0.54605 0.3268 0.23735 0.0
C262 C 0.17269 0.81764 0.68596 0.0
C263 C 0.18778 0.78401 0.69514 0.0
C264 C 0.17124 0.85055 0.69942 0.0
C265 C 0.21228 0.89317 0.75307 0.0
H266 H 0.13221 0.96716 0.74432 0.0
C267 C 0.19456 0.01892 0.81452 0.0
C268 C 0.1984 0.05432 0.80359 0.0
C269 C 0.18774 0.9864 0.80144 0.0
C270 C 0.1547 0.94669 0.74685 0.0
H271 H 0.21222 0.75809 0.72579 0.0
H272 H 0.20815 0.81494 0.74972 0.0
H273 H 0.13153 0.90836 0.72182 0.0
H274 H 0.19492 0.08374 0.77056 0.0
H275 H 0.18203 0.02651 0.74766 0.0
H276 H 0.23468 0.93117 0.77861 0.0
C277 C 0.19865 0.81648 0.73184 0.0
C278 C 0.15455 0.91309 0.7339 0.0
C279 C 0.2008 0.78373 0.71819 0.0
C280 C 0.19215 0.0569 0.77947 0.0
C281 C 0.18481 0.02422 0.76638 0.0
C282 C 0.21197 0.92632 0.76628 0.0
C283 C 0.1842 0.8505 0.72257 0.0
C284 C 0.18349 0.88591 0.73676 0.0
C285 C 0.18403 0.98858 0.7772 0.0
C286 C 0.18329 0.95339 0.76326 0.0
H287 H 0.16268 0.81877 0.66816 0.0
H288 H 0.16063 0.8762 0.69143 0.0
H289 H 0.23558 0.87361 0.75542 0.0
H290 H 0.19893 0.01589 0.83308 0.0
H291 H 0.18679 0.95925 0.81018 0.0
C292 C 0.43933 0.70476 0.27676 0.0
C293 C 0.44238 0.71251 0.30069 0.0
C294 C 0.47177 0.69689 0.26357 0.0
C295 C 0.57048 0.72272 0.26217 0.0
H296 H 0.58498 0.63988 0.21882 0.0
C297 C 0.71123 0.70482 0.21276 0.0
C298 C 0.70976 0.69109 0.18987 0.0
C299 C 0.67889 0.70434 0.2268 0.0
C300 C 0.58121 0.66354 0.23059 0.0
H301 H 0.48155 0.7157 0.32978 0.0
H302 H 0.5378 0.70258 0.3067 0.0
H303 H 0.52695 0.64324 0.24191 0.0
H304 H 0.67329 0.66643 0.16359 0.0
H305 H 0.61662 0.66719 0.18755 0.0
H306 H 0.62351 0.7442 0.25042 0.0
C307 C 0.51044 0.70274 0.29817 0.0
C308 C 0.54804 0.66524 0.24388 0.0
C309 C 0.47814 0.71009 0.31136 0.0
C310 C 0.67535 0.67697 0.18125 0.0
C311 C 0.64287 0.67713 0.1951 0.0
C312 C 0.60324 0.72143 0.24864 0.0
C313 C 0.50769 0.69711 0.27408 0.0
C314 C 0.54254 0.69475 0.25987 0.0
C315 C 0.64413 0.69081 0.21809 0.0
C316 C 0.60921 0.69176 0.2327 0.0
H317 H 0.41218 0.7064 0.26805 0.0
H318 H 0.469 0.69263 0.24498 0.0
H319 H 0.5666 0.7461 0.27416 0.0
H320 H 0.73748 0.71553 0.21994 0.0
H321 H 0.6813 0.71437 0.24454 0.0
C322 C 0.83031 0.16796 0.67569 0.0
C323 C 0.81528 0.19984 0.68712 0.0
C324 C 0.83428 0.13358 0.68742 0.0
C325 C 0.84654 0.09141 0.74438 0.0
H326 H 0.79289 0.0044 0.71988 0.0
C327 C 0.80697 0.96504 0.80141 0.0
C328 C 0.80015 0.92938 0.79142 0.0
C329 C 0.81753 0.99566 0.78761 0.0
C330 C 0.80896 0.02797 0.72674 0.0
H331 H 0.79339 0.22102 0.71987 0.0
H332 H 0.80134 0.16092 0.74062 0.0
H333 H 0.79394 0.06322 0.69782 0.0
H334 H 0.80222 0.89709 0.75937 0.0
H335 H 0.82221 0.95038 0.73525 0.0
H336 H 0.86215 0.05643 0.77313 0.0
C337 C 0.80968 0.16265 0.72251 0.0
C338 C 0.80922 0.06178 0.71414 0.0
C339 C 0.80493 0.19688 0.71063 0.0
C340 C 0.80702 0.9243 0.76755 0.0
C341 C 0.81808 0.95498 0.75371 0.0
C342 C 0.84698 0.0574 0.75677 0.0
C343 C 0.82408 0.13067 0.71093 0.0
C344 C 0.82714 0.09402 0.72317 0.0
C345 C 0.8221 0.9914 0.76344 0.0
C346 C 0.82718 0.02551 0.74848 0.0
H347 H 0.83843 0.16937 0.65754 0.0
H348 H 0.84546 0.10928 0.67817 0.0
H349 H 0.86105 0.11583 0.75149 0.0
H350 H 0.80204 0.97 0.81976 0.0
H351 H 0.81981 0.02314 0.79584 0.0
C352 C 0.81351 0.15595 0.29775 0.0
C353 C 0.78817 0.18542 0.29236 0.0
C354 C 0.84847 0.15325 0.2865 0.0
C355 C 0.89937 0.18469 0.23385 0.0
H356 H 0.98941 0.16028 0.26951 0.0
C357 C 0.06912 0.20267 0.22212 0.0
C358 C 0.07148 0.19349 0.19838 0.0
C359 C 0.03615 0.1946 0.23469 0.0
C360 C 0.96454 0.16712 0.25932 0.0
H361 H 0.77963 0.23509 0.27086 0.0
H362 H 0.84079 0.23058 0.25133 0.0
H363 H 0.92788 0.16265 0.28888 0.0
H364 H 0.04311 0.16518 0.16982 0.0
H365 H 0.98632 0.14996 0.19189 0.0
H366 H 0.93588 0.19059 0.20451 0.0
C367 C 0.83343 0.20926 0.26407 0.0
C368 C 0.92923 0.16817 0.27037 0.0
C369 C 0.79843 0.21197 0.27533 0.0
C370 C 0.04189 0.17297 0.18805 0.0
C371 C 0.0092 0.16458 0.20063 0.0
C372 C 0.93455 0.18364 0.22284 0.0
C373 C 0.85891 0.17993 0.26958 0.0
C374 C 0.89629 0.17735 0.25778 0.0
C375 C 0.00518 0.17694 0.22376 0.0
C376 C 0.96764 0.17509 0.23544 0.0
H377 H 0.80645 0.13496 0.31076 0.0
H378 H 0.86719 0.13005 0.29092 0.0
H379 H 0.87453 0.19137 0.22359 0.0
H380 H 0.09143 0.21868 0.2305 0.0
H381 H 0.03402 0.20456 0.25247 0.0
C382 C 0.29275 0.5603 0.71318 0.0
C383 C 0.28993 0.55706 0.68885 0.0
C384 C 0.29977 0.5282 0.72685 0.0
C385 C 0.27703 0.4294 0.72656 0.0
H386 H 0.35345 0.41509 0.77411 0.0
C387 C 0.28997 0.28753 0.77509 0.0
C388 C 0.30098 0.28823 0.79853 0.0
C389 C 0.2917 0.32042 0.76161 0.0
C390 C 0.33151 0.41879 0.76116 0.0
H391 H 0.29498 0.51812 0.65972 0.0
H392 H 0.30647 0.46243 0.68358 0.0
H393 H 0.35258 0.47359 0.75139 0.0
H394 H 0.32197 0.32388 0.82639 0.0
H395 H 0.32319 0.38154 0.80335 0.0
H396 H 0.2546 0.37592 0.7367 0.0
C397 C 0.30318 0.48967 0.69204 0.0
C398 C 0.33127 0.45222 0.74809 0.0
C399 C 0.29672 0.52165 0.67841 0.0
C400 C 0.31355 0.32244 0.80828 0.0
C401 C 0.31454 0.3555 0.79497 0.0
C402 C 0.27675 0.39642 0.73988 0.0
C403 C 0.30359 0.49245 0.71636 0.0
C404 C 0.3042 0.45759 0.73056 0.0
C405 C 0.30367 0.355 0.77142 0.0
C406 C 0.30413 0.39043 0.75728 0.0
H407 H 0.28767 0.58717 0.72173 0.0
H408 H 0.29999 0.53093 0.74562 0.0
H409 H 0.25549 0.43321 0.71334 0.0
H410 H 0.28053 0.26144 0.76705 0.0
H411 H 0.2839 0.31854 0.74343 0.0
C412 C 0.20103 0.79648 0.27158 0.0
C413 C 0.20211 0.80819 0.29493 0.0
C414 C 0.16748 0.79943 0.25876 0.0
C415 C 0.06551 0.79865 0.26444 0.0
H416 H 0.06448 0.84868 0.20445 0.0
C417 C 0.9299 0.80026 0.20884 0.0
C418 C 0.9353 0.79275 0.18507 0.0
C419 C 0.96075 0.80978 0.22302 0.0
C420 C 0.06426 0.83427 0.22106 0.0
H421 H 0.16891 0.83158 0.32328 0.0
H422 H 0.11007 0.83557 0.30103 0.0
H423 H 0.1226 0.84756 0.22738 0.0
H424 H 0.97688 0.79154 0.15727 0.0
H425 H 0.03024 0.80672 0.1818 0.0
H426 H 0.00805 0.78338 0.2578 0.0
C427 C 0.13528 0.82465 0.29262 0.0
C428 C 0.09756 0.83378 0.23419 0.0
C429 C 0.16895 0.82244 0.30529 0.0
C430 C 0.97165 0.79712 0.17553 0.0
C431 C 0.00241 0.80614 0.18967 0.0
C432 C 0.03238 0.79847 0.25114 0.0
C433 C 0.1343 0.81338 0.26922 0.0
C434 C 0.09858 0.81557 0.25585 0.0
C435 C -0.00236 0.81158 0.21373 0.0
C436 C 0.03144 0.81578 0.22908 0.0
H437 H 0.22618 0.78551 0.26314 0.0
H438 H 0.16728 0.7903 0.24076 0.0
H439 H 0.06569 0.78429 0.28109 0.0
H440 H 0.90219 0.7973 0.21669 0.0
H441 H 0.95579 0.81463 0.24137 0.0
C442 C 0.69646 0.46911 0.67527 0.0
C443 C 0.70084 0.43324 0.68546 0.0
C444 C 0.68671 0.50044 0.68877 0.0
C445 C 0.69129 0.53328 0.74989 0.0
H446 H 0.64237 0.62193 0.72371 0.0
C447 C 0.66491 0.67215 0.80129 0.0
C448 C 0.68049 0.70448 0.79076 0.0
C449 C 0.66241 0.63807 0.78905 0.0
C450 C 0.65604 0.59732 0.7312 0.0
H451 H 0.69572 0.40157 0.71756 0.0
H452 H 0.67706 0.45613 0.74112 0.0
H453 H 0.64296 0.56276 0.70176 0.0
H454 H 0.70488 0.72675 0.759 0.0
H455 H 0.69954 0.66718 0.73733 0.0
H456 H 0.70365 0.56808 0.77951 0.0
C457 C 0.68249 0.46031 0.72276 0.0
C458 C 0.65657 0.56343 0.71863 0.0
C459 C 0.6928 0.42891 0.70924 0.0
C460 C 0.69285 0.70226 0.76757 0.0
C461 C 0.68962 0.66832 0.75516 0.0
C462 C 0.69006 0.56699 0.76262 0.0
C463 C 0.68047 0.49673 0.71283 0.0
C464 C 0.6751 0.53117 0.72753 0.0
C465 C 0.67471 0.63587 0.76588 0.0
C466 C 0.67319 0.59949 0.75316 0.0
H467 H 0.70249 0.47354 0.65699 0.0
H468 H 0.68608 0.52788 0.68043 0.0
H469 H 0.70637 0.50943 0.75724 0.0
H470 H 0.65524 0.67296 0.81917 0.0
H471 H 0.65075 0.61342 0.79764 0.0
C472 C 0.87924 0.58057 0.1516 0.0
C473 C 0.89427 0.6173 0.15011 0.0
C474 C 0.9033 0.54908 0.15175 0.0
C475 C 0.00074 0.51974 0.13643 0.0
H476 H 0.98259 0.43814 0.18007 0.0
C477 C 0.11241 0.40523 0.15655 0.0
C478 C 0.09941 0.36769 0.15753 0.0
C479 C 0.08668 0.43522 0.15522 0.0
C480 C 0.98779 0.46056 0.16764 0.0
H481 H 0.94635 0.64973 0.14767 0.0
H482 H 0.98796 0.59515 0.14826 0.0
H483 H 0.9381 0.49095 0.17798 0.0
H484 H 0.04919 0.33225 0.15807 0.0
H485 H 0.00453 0.38455 0.15572 0.0
H486 H 0.05066 0.48957 0.1263 0.0
C487 C 0.95767 0.59052 0.14891 0.0
C488 C 0.96228 0.49071 0.16639 0.0
C489 C 0.93374 0.62186 0.14873 0.0
C490 C 0.0602 0.36082 0.15733 0.0
C491 C 0.03455 0.39078 0.15612 0.0
C492 C 0.02629 0.48968 0.13774 0.0
C493 C 0.94277 0.55379 0.15039 0.0
C494 C 0.96865 0.52076 0.15089 0.0
C495 C 0.04751 0.42824 0.15498 0.0
C496 C 0.02018 0.45992 0.15345 0.0
H497 H 0.84896 0.57612 0.15263 0.0
H498 H 0.891 0.52106 0.1527 0.0
H499 H 0.00607 0.54216 0.12402 0.0
H500 H 0.14242 0.41146 0.1567 0.0
H501 H 0.09743 0.46391 0.15461 0.0
C502 C 0.87249 0.4248 0.63638 0.0
C503 C 0.87448 0.39064 0.64883 0.0
C504 C 0.90324 0.44942 0.63596 0.0
C505 C 0.98364 0.47993 0.66974 0.0
H506 H 0.02209 0.51962 0.61141 0.0
C507 C 0.08744 0.60638 0.66338 0.0
C508 C 0.1202 0.59864 0.65035 0.0
C509 C 0.05692 0.58123 0.66295 0.0
C510 C 0.01153 0.50875 0.62779 0.0
H511 H 0.91019 0.3553 0.67051 0.0
H512 H 0.96401 0.3991 0.67018 0.0
H513 H 0.97057 0.47333 0.61104 0.0
H514 H 0.14633 0.55932 0.62612 0.0
H515 H 0.09268 0.51603 0.62499 0.0
H516 H 0.0243 0.5158 0.68649 0.0
C517 C 0.93858 0.40645 0.66065 0.0
C518 C 0.98215 0.48243 0.62758 0.0
C519 C 0.90798 0.38139 0.66072 0.0
C520 C 0.12149 0.56594 0.63642 0.0
C521 C 0.09081 0.54125 0.63567 0.0
C522 C 0.01262 0.50677 0.66996 0.0
C523 C 0.93635 0.44066 0.6483 0.0
C524 C 0.96809 0.46772 0.64855 0.0
C525 C 0.05849 0.54844 0.64913 0.0
C526 C 0.02686 0.52125 0.64898 0.0
H527 H 0.84707 0.4326 0.62697 0.0
H528 H 0.90085 0.47576 0.62643 0.0
H529 H 0.97295 0.46917 0.68611 0.0
H530 H 0.08577 0.6313 0.67433 0.0
H531 H 0.0321 0.58737 0.67337 0.0
C532 C 0.55637 0.13605 0.33777 0.0
C533 C 0.59083 0.13157 0.32583 0.0
C534 C 0.52992 0.10686 0.33822 0.0
C535 C 0.49668 0.02392 0.30716 0.0
H536 H 0.45978 0.99057 0.36735 0.0
C537 C 0.37548 0.91483 0.31946 0.0
C538 C 0.38619 0.88374 0.33321 0.0
C539 C 0.39847 0.94699 0.31845 0.0
C540 C 0.46974 -0.0002 0.35045 0.0
H541 H 0.62432 0.09327 0.30465 0.0
H542 H 0.57742 0.04219 0.30514 0.0
H543 H 0.5049 0.04294 0.36517 0.0
H544 H 0.42839 0.86232 0.35729 0.0
H545 H 0.46786 0.91884 0.35596 0.0
H546 H 0.46139 0.98069 0.29248 0.0
C547 C 0.57124 0.06838 0.31421 0.0
C548 C 0.49538 0.02969 0.3492 0.0
C549 C 0.59808 0.09744 0.31406 0.0
C550 C 0.41953 0.88582 0.34647 0.0
C551 C 0.44203 0.91815 0.34581 0.0
C552 C 0.4705 0.99439 0.30839 0.0
C553 C 0.53711 0.07281 0.32647 0.0
C554 C 0.50934 0.04173 0.32757 0.0
C555 C 0.43196 0.94875 0.33157 0.0
C556 C 0.45719 0.98187 0.33007 0.0
H557 H 0.54996 0.16199 0.34705 0.0
H558 H 0.50369 0.11095 0.34768 0.0
H559 H 0.50694 0.03296 0.2903 0.0
H560 H 0.35 0.91385 0.30899 0.0
H561 H 0.39017 0.97043 0.30742 0.0
C562 C 0.40871 0.11674 0.83436 0.0
C563 C 0.372 0.10175 0.83621 0.0
C564 C 0.44017 0.09264 0.83382 0.0
C565 C 0.46987 0.99511 0.84858 0.0
H566 H 0.55003 0.0132 0.8039 0.0
C567 C 0.58463 0.88375 0.82803 0.0
C568 C 0.62203 0.89708 0.82677 0.0
C569 C 0.55439 0.90924 0.82922 0.0
C570 C 0.528 0.00799 0.81661 0.0
H571 H 0.33961 0.04968 0.83896 0.0
H572 H 0.39411 0.00804 0.83773 0.0
H573 H 0.49733 0.05772 0.80671 0.0
H574 H 0.65694 0.94764 0.82543 0.0
H575 H 0.60427 0.99183 0.82757 0.0
H576 H 0.50036 0.94521 0.85832 0.0
C577 C 0.39876 0.03832 0.83707 0.0
C578 C 0.49792 0.03353 0.81827 0.0
C579 C 0.36746 0.06228 0.83762 0.0
C580 C 0.62849 0.93636 0.82641 0.0
C581 C 0.59831 0.96176 0.82749 0.0
C582 C 0.49986 0.96953 0.84687 0.0
C583 C 0.43545 0.05317 0.83516 0.0
C584 C 0.46841 0.02722 0.83418 0.0
C585 C 0.56098 0.94849 0.82904 0.0
C586 C 0.52913 0.97562 0.83079 0.0
H587 H 0.41316 0.14702 0.83328 0.0
H588 H 0.46817 0.1049 0.83255 0.0
H589 H 0.44786 0.9898 0.86129 0.0
H590 H 0.57871 0.85368 0.82831 0.0
H591 H 0.52582 0.89825 0.83015 0.0
loop_
_geom_bond_atom_site_label_1
_geom_bond_atom_site_label_2
_geom_bond_distance
_geom_bond_site_symmetry_2
_ccdc_geom_bond_type
O0 Cd1 2.223 . S
O0 C8 1.315 . S
Cd1 O0 2.223 . S
Cd1 O4 2.297 . S
Cd1 O5 2.439 . S
Cd1 O11 2.240 . S
Cd2 O3 2.240 . S
Cd2 O10 2.223 . S
Cd2 O12 2.297 . S
Cd2 O13 2.439 . S
O3 Cd2 2.240 . S
O3 C8 1.279 . S
O4 Cd1 2.297 . S
O4 C6 1.247 . S
O5 Cd1 2.439 . S
O5 C6 1.208 . S
C6 O4 1.247 . S
C6 O5 1.208 . S
C7 O12 1.247 . S
C7 O13 1.208 . S
C8 O0 1.315 . S
C8 O3 1.279 . S
C9 O10 1.315 . S
C9 O11 1.279 . S
O10 Cd2 2.223 . S
O10 C9 1.315 . S
O11 Cd1 2.240 . S
O11 C9 1.279 . S
O12 Cd2 2.297 . S
O12 C7 1.247 . S
O13 Cd2 2.439 . S
O13 C7 1.208 . S
O14 Cd15 2.223 . S
O14 C22 1.315 . S
Cd15 O14 2.223 . S
Cd15 O18 2.297 . S
Cd15 O19 2.439 . S
Cd15 O25 2.240 . S
Cd16 O17 2.240 . S
Cd16 O24 2.223 . S
Cd16 O26 2.297 . S
Cd16 O27 2.439 . S
O17 Cd16 2.240 . S
O17 C22 1.279 . S
O18 Cd15 2.297 . S
O18 C20 1.247 . S
O19 Cd15 2.439 . S
O19 C20 1.208 . S
C20 O18 1.247 . S
C20 O19 1.208 . S
C21 O26 1.247 . S
C21 O27 1.208 . S
C22 O14 1.315 . S
C22 O17 1.279 . S
C23 O24 1.315 . S
C23 O25 1.279 . S
O24 Cd16 2.223 . S
O24 C23 1.315 . S
O25 Cd15 2.240 . S
O25 C23 1.279 . S
O26 Cd16 2.297 . S
O26 C21 1.247 . S
O27 Cd16 2.439 . S
O27 C21 1.208 . S
O28 Cd29 2.223 . S
O28 C36 1.315 . S
Cd29 O28 2.223 . S
Cd29 O32 2.297 . S
Cd29 O33 2.439 . S
Cd29 O39 2.240 . S
Cd30 O31 2.240 . S
Cd30 O38 2.223 . S
Cd30 O40 2.297 . S
Cd30 O41 2.439 . S
O31 Cd30 2.240 . S
O31 C36 1.279 . S
O32 Cd29 2.297 . S
O32 C34 1.247 . S
O33 Cd29 2.439 . S
O33 C34 1.208 . S
C34 O32 1.247 . S
C34 O33 1.208 . S
C35 O40 1.247 . S
C35 O41 1.208 . S
C36 O28 1.315 . S
C36 O31 1.279 . S
C37 O38 1.315 . S
C37 O39 1.279 . S
O38 Cd30 2.223 . S
O38 C37 1.315 . S
O39 Cd29 2.240 . S
O39 C37 1.279 . S
O40 Cd30 2.297 . S
O40 C35 1.247 . S
O41 Cd30 2.439 . S
O41 C35 1.208 . S
O42 Cd43 2.223 . S
O42 C50 1.315 . S
Cd43 O42 2.223 . S
Cd43 O46 2.297 . S
Cd43 O47 2.439 . S
Cd43 O53 2.240 . S
Cd44 O45 2.240 . S
Cd44 O52 2.223 . S
Cd44 O54 2.297 . S
Cd44 O55 2.439 . S
O45 Cd44 2.240 . S
O45 C50 1.279 . S
O46 Cd43 2.297 . S
O46 C48 1.247 . S
O47 Cd43 2.439 . S
O47 C48 1.208 . S
C48 O46 1.247 . S
C48 O47 1.208 . S
C49 O54 1.247 . S
C49 O55 1.208 . S
C50 O42 1.315 . S
C50 O45 1.279 . S
C51 O52 1.315 . S
C51 O53 1.279 . S
O52 Cd44 2.223 . S
O52 C51 1.315 . S
O53 Cd43 2.240 . S
O53 C51 1.279 . S
O54 Cd44 2.297 . S
O54 C49 1.247 . S
O55 Cd44 2.439 . S
O55 C49 1.208 . S
O56 Cd57 2.223 . S
O56 C64 1.315 . S
Cd57 O56 2.223 . S
Cd57 O60 2.297 . S
Cd57 O61 2.439 . S
Cd57 O67 2.240 . S
Cd58 O59 2.240 . S
Cd58 O66 2.223 . S
Cd58 O68 2.297 . S
Cd58 O69 2.439 . S
O59 Cd58 2.240 . S
O59 C64 1.279 . S
O60 Cd57 2.297 . S
O60 C62 1.247 . S
O61 Cd57 2.439 . S
O61 C62 1.208 . S
C62 O60 1.247 . S
C62 O61 1.208 . S
C63 O68 1.247 . S
C63 O69 1.208 . S
C64 O56 1.315 . S
C64 O59 1.279 . S
C65 O66 1.315 . S
C65 O67 1.279 . S
O66 Cd58 2.223 . S
O66 C65 1.315 . S
O67 Cd57 2.240 . S
O67 C65 1.279 . S
O68 Cd58 2.297 . S
O68 C63 1.247 . S
O69 Cd58 2.439 . S
O69 C63 1.208 . S
O70 Cd71 2.223 . S
O70 C78 1.315 . S
Cd71 O70 2.223 . S
Cd71 O74 2.297 . S
Cd71 O75 2.439 . S
Cd71 O81 2.240 . S
Cd72 O73 2.240 . S
Cd72 O80 2.223 . S
Cd72 O82 2.297 . S
Cd72 O83 2.439 . S
O73 Cd72 2.240 . S
O73 C78 1.279 . S
O74 Cd71 2.297 . S
O74 C76 1.247 . S
O75 Cd71 2.439 . S
O75 C76 1.208 . S
C76 O74 1.247 . S
C76 O75 1.208 . S
C77 O82 1.247 . S
C77 O83 1.208 . S
C78 O70 1.315 . S
C78 O73 1.279 . S
C79 O80 1.315 . S
C79 O81 1.279 . S
O80 Cd72 2.223 . S
O80 C79 1.315 . S
O81 Cd71 2.240 . S
O81 C79 1.279 . S
O82 Cd72 2.297 . S
O82 C77 1.247 . S
O83 Cd72 2.439 . S
O83 C77 1.208 . S
O84 Cd85 2.223 . S
O84 C92 1.315 . S
Cd85 O84 2.223 . S
Cd85 O88 2.297 . S
Cd85 O89 2.439 . S
Cd85 O95 2.240 . S
Cd86 O87 2.240 . S
Cd86 O94 2.223 . S
Cd86 O96 2.297 . S
Cd86 O97 2.439 . S
O87 Cd86 2.240 . S
O87 C92 1.279 . S
O88 Cd85 2.297 . S
O88 C90 1.247 . S
O89 Cd85 2.439 . S
O89 C90 1.208 . S
C90 O88 1.247 . S
C90 O89 1.208 . S
C91 O96 1.247 . S
C91 O97 1.208 . S
C92 O84 1.315 . S
C92 O87 1.279 . S
C93 O94 1.315 . S
C93 O95 1.279 . S
O94 Cd86 2.223 . S
O94 C93 1.315 . S
O95 Cd85 2.240 . S
O95 C93 1.279 . S
O96 Cd86 2.297 . S
O96 C91 1.247 . S
O97 Cd86 2.439 . S
O97 C91 1.208 . S
O98 Cd99 2.223 . S
O98 C106 1.315 . S
Cd99 O98 2.223 . S
Cd99 O102 2.297 . S
Cd99 O103 2.439 . S
Cd99 O109 2.240 . S
Cd100 O101 2.240 . S
Cd100 O108 2.223 . S
Cd100 O110 2.297 . S
Cd100 O111 2.439 . S
O101 Cd100 2.240 . S
O101 C106 1.279 . S
O102 Cd99 2.297 . S
O102 C104 1.247 . S
O103 Cd99 2.439 . S
O103 C104 1.208 . S
C104 O102 1.247 . S
C104 O103 1.208 . S
C105 O110 1.247 . S
C105 O111 1.208 . S
C106 O98 1.315 . S
C106 O101 1.279 . S
C107 O108 1.315 . S
C107 O109 1.279 . S
O108 Cd100 2.223 . S
O108 C107 1.315 . S
O109 Cd99 2.240 . S
O109 C107 1.279 . S
O110 Cd100 2.297 . S
O110 C105 1.247 . S
O111 Cd100 2.439 . S
O111 C105 1.208 . S
C112 C113 1.349 . S
C112 C114 1.327 . S
C112 H137 0.950 . S
C113 C112 1.349 . S
C113 C129 1.349 . S
C114 C112 1.327 . S
C114 C133 1.429 . S
C114 H138 0.950 . S
C115 C132 1.574 1_554 S
C115 C134 1.368 . S
C115 H139 0.949 . S
H116 C120 0.949 . S
C117 C118 1.349 . S
C117 C119 1.327 . S
C117 H140 0.950 . S
C118 C117 1.349 . S
C118 C130 1.349 . S
C119 C117 1.327 . S
C119 C135 1.429 . S
C119 H141 0.950 . S
C120 H116 0.949 . S
C120 C128 1.574 1_556 S
C120 C136 1.368 . S
H121 C129 0.950 . S
H122 C127 0.950 . S
H123 C128 0.949 . S
H124 C130 0.950 . S
H125 C131 0.950 . S
H126 C132 0.949 . S
C127 H122 0.950 . S
C127 C129 1.327 . S
C127 C133 1.429 . S
C128 C120 1.574 1_554 S
C128 H123 0.949 . S
C128 C134 1.368 . S
C129 C113 1.349 . S
C129 H121 0.950 . S
C129 C127 1.327 . S
C130 C118 1.349 . S
C130 H124 0.950 . S
C130 C131 1.327 . S
C131 H125 0.950 . S
C131 C130 1.327 . S
C131 C135 1.429 . S
C132 C115 1.574 1_556 S
C132 H126 0.949 . S
C132 C136 1.368 . S
C133 C114 1.429 . S
C133 C127 1.429 . S
C133 C134 1.523 . S
C134 C115 1.368 . S
C134 C128 1.368 . S
C134 C133 1.523 . S
C135 C119 1.429 . S
C135 C131 1.429 . S
C135 C136 1.523 . S
C136 C120 1.368 . S
C136 C132 1.368 . S
C136 C135 1.523 . S
H137 C112 0.950 . S
H138 C114 0.950 . S
H139 C115 0.949 . S
H140 C117 0.950 . S
H141 C119 0.950 . S
C142 C143 1.349 . S
C142 C144 1.327 . S
C142 H167 0.950 . S
C143 C142 1.349 . S
C143 C159 1.349 . S
C144 C142 1.327 . S
C144 C163 1.429 . S
C144 H168 0.950 . S
C145 C162 1.574 . S
C145 C164 1.368 . S
C145 H169 0.949 . S
H146 C150 0.949 . S
C147 C148 1.349 . S
C147 C149 1.327 . S
C147 H170 0.950 . S
C148 C147 1.349 . S
C148 C160 1.349 . S
C149 C147 1.327 . S
C149 C165 1.429 . S
C149 H171 0.950 . S
C150 H146 0.949 . S
C150 C158 1.574 . S
C150 C166 1.368 . S
H151 C159 0.950 . S
H152 C157 0.950 . S
H153 C158 0.949 . S
H154 C160 0.950 . S
H155 C161 0.950 . S
H156 C162 0.949 . S
C157 H152 0.950 . S
C157 C159 1.327 . S
C157 C163 1.429 . S
C158 C150 1.574 . S
C158 H153 0.949 . S
C158 C164 1.368 . S
C159 C143 1.349 . S
C159 H151 0.950 . S
C159 C157 1.327 . S
C160 C148 1.349 . S
C160 H154 0.950 . S
C160 C161 1.327 . S
C161 H155 0.950 . S
C161 C160 1.327 . S
C161 C165 1.429 . S
C162 C145 1.574 . S
C162 H156 0.949 . S
C162 C166 1.368 . S
C163 C144 1.429 . S
C163 C157 1.429 . S
C163 C164 1.523 . S
C164 C145 1.368 . S
C164 C158 1.368 . S
C164 C163 1.523 . S
C165 C149 1.429 . S
C165 C161 1.429 . S
C165 C166 1.523 . S
C166 C150 1.368 . S
C166 C162 1.368 . S
C166 C165 1.523 . S
H167 C142 0.950 . S
H168 C144 0.950 . S
H169 C145 0.949 . S
H170 C147 0.950 . S
H171 C149 0.950 . S
C172 C173 1.349 . S
C172 C174 1.327 . S
C172 H197 0.950 . S
C173 C172 1.349 . S
C173 C189 1.349 . S
C174 C172 1.327 . S
C174 C193 1.429 . S
C174 H198 0.950 . S
C175 C192 1.574 1_554 S
C175 C194 1.368 . S
C175 H199 0.949 . S
H176 C180 0.949 . S
C177 C178 1.349 . S
C177 C179 1.327 . S
C177 H200 0.950 . S
C178 C177 1.349 . S
C178 C190 1.349 . S
C179 C177 1.327 . S
C179 C195 1.429 . S
C179 H201 0.950 . S
C180 H176 0.949 . S
C180 C188 1.574 1_556 S
C180 C196 1.368 . S
H181 C189 0.950 . S
H182 C187 0.950 . S
H183 C188 0.949 . S
H184 C190 0.950 . S
H185 C191 0.950 . S
H186 C192 0.949 . S
C187 H182 0.950 . S
C187 C189 1.327 . S
C187 C193 1.429 . S
C188 C180 1.574 1_554 S
C188 H183 0.949 . S
C188 C194 1.368 . S
C189 C173 1.349 . S
C189 H181 0.950 . S
C189 C187 1.327 . S
C190 C178 1.349 . S
C190 H184 0.950 . S
C190 C191 1.327 . S
C191 H185 0.950 . S
C191 C190 1.327 . S
C191 C195 1.429 . S
C192 C175 1.574 1_556 S
C192 H186 0.949 . S
C192 C196 1.368 . S
C193 C174 1.429 . S
C193 C187 1.429 . S
C193 C194 1.523 . S
C194 C175 1.368 . S
C194 C188 1.368 . S
C194 C193 1.523 . S
C195 C179 1.429 . S
C195 C191 1.429 . S
C195 C196 1.523 . S
C196 C180 1.368 . S
C196 C192 1.368 . S
C196 C195 1.523 . S
H197 C172 0.950 . S
H198 C174 0.950 . S
H199 C175 0.949 . S
H200 C177 0.950 . S
H201 C179 0.950 . S
C202 C203 1.349 . S
C202 C204 1.327 . S
C202 H227 0.950 . S
C203 C202 1.349 . S
C203 C219 1.349 . S
C204 C202 1.327 . S
C204 C223 1.429 . S
C204 H228 0.950 . S
C205 C222 1.574 . S
C205 C224 1.368 . S
C205 H229 0.949 . S
H206 C210 0.949 . S
C207 C208 1.349 . S
C207 C209 1.327 . S
C207 H230 0.950 . S
C208 C207 1.349 . S
C208 C220 1.349 . S
C209 C207 1.327 . S
C209 C225 1.429 . S
C209 H231 0.950 . S
C210 H206 0.949 . S
C210 C218 1.574 . S
C210 C226 1.368 . S
H211 C219 0.950 . S
H212 C217 0.950 . S
H213 C218 0.949 . S
H214 C220 0.950 . S
H215 C221 0.950 . S
H216 C222 0.949 . S
C217 H212 0.950 . S
C217 C219 1.327 . S
C217 C223 1.429 . S
C218 C210 1.574 . S
C218 H213 0.949 . S
C218 C224 1.368 . S
C219 C203 1.349 . S
C219 H211 0.950 . S
C219 C217 1.327 . S
C220 C208 1.349 . S
C220 H214 0.950 . S
C220 C221 1.327 . S
C221 H215 0.950 . S
C221 C220 1.327 . S
C221 C225 1.429 . S
C222 C205 1.574 . S
C222 H216 0.949 . S
C222 C226 1.368 . S
C223 C204 1.429 . S
C223 C217 1.429 . S
C223 C224 1.523 . S
C224 C205 1.368 . S
C224 C218 1.368 . S
C224 C223 1.523 . S
C225 C209 1.429 . S
C225 C221 1.429 . S
C225 C226 1.523 . S
C226 C210 1.368 . S
C226 C222 1.368 . S
C226 C225 1.523 . S
H227 C202 0.950 . S
H228 C204 0.950 . S
H229 C205 0.949 . S
H230 C207 0.950 . S
H231 C209 0.950 . S
C232 C233 1.349 . S
C232 C234 1.327 . S
C232 H257 0.950 . S
C233 C232 1.349 . S
C233 C249 1.349 . S
C234 C232 1.327 . S
C234 C253 1.429 . S
C234 H258 0.950 . S
C235 C252 1.574 . S
C235 C254 1.368 . S
C235 H259 0.949 . S
H236 C240 0.949 . S
C237 C238 1.349 . S
C237 C239 1.327 . S
C237 H260 0.950 . S
C238 C237 1.349 . S
C238 C250 1.349 . S
C239 C237 1.327 . S
C239 C255 1.429 . S
C239 H261 0.950 . S
C240 H236 0.949 . S
C240 C248 1.574 . S
C240 C256 1.368 . S
H241 C249 0.950 . S
H242 C247 0.950 . S
H243 C248 0.949 . S
H244 C250 0.950 . S
H245 C251 0.950 . S
H246 C252 0.949 . S
C247 H242 0.950 . S
C247 C249 1.327 . S
C247 C253 1.429 . S
C248 C240 1.574 . S
C248 H243 0.949 . S
C248 C254 1.368 . S
C249 C233 1.349 . S
C249 H241 0.950 . S
C249 C247 1.327 . S
C250 C238 1.349 . S
C250 H244 0.950 . S
C250 C251 1.327 . S
C251 H245 0.950 . S
C251 C250 1.327 . S
C251 C255 1.429 . S
C252 C235 1.574 . S
C252 H246 0.949 . S
C252 C256 1.368 . S
C253 C234 1.429 . S
C253 C247 1.429 . S
C253 C254 1.523 . S
C254 C235 1.368 . S
C254 C248 1.368 . S
C254 C253 1.523 . S
C255 C239 1.429 . S
C255 C251 1.429 . S
C255 C256 1.523 . S
C256 C240 1.368 . S
C256 C252 1.368 . S
C256 C255 1.523 . S
H257 C232 0.950 . S
H258 C234 0.950 . S
H259 C235 0.949 . S
H260 C237 0.950 . S
H261 C239 0.950 . S
C262 C263 1.349 . S
C262 C264 1.327 . S
C262 H287 0.950 . S
C263 C262 1.349 . S
C263 C279 1.349 . S
C264 C262 1.327 . S
C264 C283 1.429 . S
C264 H288 0.950 . S
C265 C282 1.574 . S
C265 C284 1.368 . S
C265 H289 0.949 . S
H266 C270 0.949 . S
C267 C268 1.349 . S
C267 C269 1.327 1_545 S
C267 H290 0.950 . S
C268 C267 1.349 . S
C268 C280 1.349 . S
C269 C267 1.327 1_565 S
C269 C285 1.429 . S
C269 H291 0.950 . S
C270 H266 0.949 . S
C270 C278 1.574 . S
C270 C286 1.368 . S
H271 C279 0.950 . S
H272 C277 0.950 . S
H273 C278 0.949 . S
H274 C280 0.950 . S
H275 C281 0.949 1_565 S
H276 C282 0.949 . S
C277 H272 0.950 . S
C277 C279 1.327 . S
C277 C283 1.429 . S
C278 C270 1.574 . S
C278 H273 0.949 . S
C278 C284 1.368 . S
C279 C263 1.349 . S
C279 H271 0.950 . S
C279 C277 1.327 . S
C280 C268 1.349 . S
C280 H274 0.950 . S
C280 C281 1.327 . S
C281 H275 0.949 1_545 S
C281 C280 1.327 . S
C281 C285 1.429 1_545 S
C282 C265 1.574 . S
C282 H276 0.949 . S
C282 C286 1.368 . S
C283 C264 1.429 . S
C283 C277 1.429 . S
C283 C284 1.523 . S
C284 C265 1.368 . S
C284 C278 1.368 . S
C284 C283 1.523 . S
C285 C269 1.429 . S
C285 C281 1.429 1_565 S
C285 C286 1.523 . S
C286 C270 1.368 . S
C286 C282 1.368 . S
C286 C285 1.523 . S
H287 C262 0.950 . S
H288 C264 0.950 . S
H289 C265 0.949 . S
H290 C267 0.950 . S
H291 C269 0.950 . S
C292 C293 1.349 . S
C292 C294 1.327 . S
C292 H317 0.950 . S
C293 C292 1.349 . S
C293 C309 1.349 . S
C294 C292 1.327 . S
C294 C313 1.429 . S
C294 H318 0.950 . S
C295 C312 1.574 . S
C295 C314 1.368 . S
C295 H319 0.949 . S
H296 C300 0.949 . S
C297 C298 1.349 . S
C297 C299 1.327 . S
C297 H320 0.950 . S
C298 C297 1.349 . S
C298 C310 1.349 . S
C299 C297 1.327 . S
C299 C315 1.429 . S
C299 H321 0.950 . S
C300 H296 0.949 . S
C300 C308 1.574 . S
C300 C316 1.368 . S
H301 C309 0.950 . S
H302 C307 0.950 . S
H303 C308 0.949 . S
H304 C310 0.950 . S
H305 C311 0.950 . S
H306 C312 0.949 . S
C307 H302 0.950 . S
C307 C309 1.327 . S
C307 C313 1.429 . S
C308 C300 1.574 . S
C308 H303 0.949 . S
C308 C314 1.368 . S
C309 C293 1.349 . S
C309 H301 0.950 . S
C309 C307 1.327 . S
C310 C298 1.349 . S
C310 H304 0.950 . S
C310 C311 1.327 . S
C311 H305 0.950 . S
C311 C310 1.327 . S
C311 C315 1.429 . S
C312 C295 1.574 . S
C312 H306 0.949 . S
C312 C316 1.368 . S
C313 C294 1.429 . S
C313 C307 1.429 . S
C313 C314 1.523 . S
C314 C295 1.368 . S
C314 C308 1.368 . S
C314 C313 1.523 . S
C315 C299 1.429 . S
C315 C311 1.429 . S
C315 C316 1.523 . S
C316 C300 1.368 . S
C316 C312 1.368 . S
C316 C315 1.523 . S
H317 C292 0.950 . S
H318 C294 0.950 . S
H319 C295 0.949 . S
H320 C297 0.950 . S
H321 C299 0.950 . S
C322 C323 1.349 . S
C322 C324 1.327 . S
C322 H347 0.950 . S
C323 C322 1.349 . S
C323 C339 1.349 . S
C324 C322 1.327 . S
C324 C343 1.429 . S
C324 H348 0.950 . S
C325 C342 1.574 . S
C325 C344 1.368 . S
C325 H349 0.949 . S
H326 C330 0.949 . S
C327 C328 1.349 . S
C327 C329 1.327 1_565 S
C327 H350 0.950 . S
C328 C327 1.349 . S
C328 C340 1.349 . S
C329 C327 1.327 1_545 S
C329 C345 1.429 . S
C329 H351 0.950 . S
C330 H326 0.949 . S
C330 C338 1.574 . S
C330 C346 1.368 . S
H331 C339 0.950 . S
H332 C337 0.950 . S
H333 C338 0.949 . S
H334 C340 0.950 . S
H335 C341 0.947 1_545 S
H336 C342 0.949 . S
C337 H332 0.950 . S
C337 C339 1.327 . S
C337 C343 1.429 . S
C338 C330 1.574 . S
C338 H333 0.949 . S
C338 C344 1.368 . S
C339 C323 1.349 . S
C339 H331 0.950 . S
C339 C337 1.327 . S
C340 C328 1.349 . S
C340 H334 0.950 . S
C340 C341 1.352 . S
C341 H335 0.947 1_565 S
C341 C340 1.352 . S
C341 C345 1.407 1_565 S
C342 C325 1.574 . S
C342 H336 0.949 . S
C342 C346 1.368 . S
C343 C324 1.429 . S
C343 C337 1.429 . S
C343 C344 1.523 . S
C344 C325 1.368 . S
C344 C338 1.368 . S
C344 C343 1.523 . S
C345 C329 1.429 . S
C345 C341 1.407 1_545 S
C345 C346 1.523 . S
C346 C330 1.368 . S
C346 C342 1.368 . S
C346 C345 1.523 . S
H347 C322 0.950 . S
H348 C324 0.950 . S
H349 C325 0.949 . S
H350 C327 0.950 . S
H351 C329 0.950 . S
C352 C353 1.349 . S
C352 C354 1.327 . S
C352 H377 0.950 . S
C353 C352 1.349 . S
C353 C369 1.349 . S
C354 C352 1.327 . S
C354 C373 1.429 . S
C354 H378 0.950 . S
C355 C372 1.574 . S
C355 C374 1.368 . S
C355 H379 0.949 . S
H356 C360 0.949 . S
C357 C358 1.349 . S
C357 C359 1.327 1_455 S
C357 H380 0.950 . S
C358 C357 1.349 . S
C358 C370 1.349 . S
C359 C357 1.327 1_655 S
C359 C375 1.429 . S
C359 H381 0.950 . S
C360 H356 0.949 . S
C360 C368 1.574 . S
C360 C376 1.368 . S
H361 C369 0.950 . S
H362 C367 0.950 . S
H363 C368 0.949 . S
H364 C370 0.950 . S
H365 C371 0.950 . S
H366 C372 0.949 . S
C367 H362 0.950 . S
C367 C369 1.327 . S
C367 C373 1.429 . S
C368 C360 1.574 . S
C368 H363 0.949 . S
C368 C374 1.368 . S
C369 C353 1.349 . S
C369 H361 0.950 . S
C369 C367 1.327 . S
C370 C358 1.349 . S
C370 H364 0.950 . S
C370 C371 1.327 1_455 S
C371 H365 0.950 . S
C371 C370 1.327 1_655 S
C371 C375 1.429 . S
C372 C355 1.574 . S
C372 H366 0.949 . S
C372 C376 1.368 . S
C373 C354 1.429 . S
C373 C367 1.429 . S
C373 C374 1.523 . S
C374 C355 1.368 . S
C374 C368 1.368 . S
C374 C373 1.523 . S
C375 C359 1.429 . S
C375 C371 1.429 . S
C375 C376 1.523 . S
C376 C360 1.368 . S
C376 C372 1.368 . S
C376 C375 1.523 . S
H377 C352 0.950 . S
H378 C354 0.950 . S
H379 C355 0.949 . S
H380 C357 0.950 . S
H381 C359 0.950 . S
C382 C383 1.349 . S
C382 C384 1.327 . S
C382 H407 0.950 . S
C383 C382 1.349 . S
C383 C399 1.349 . S
C384 C382 1.327 . S
C384 C403 1.429 . S
C384 H408 0.950 . S
C385 C402 1.574 . S
C385 C404 1.368 . S
C385 H409 0.949 . S
H386 C390 0.949 . S
C387 C388 1.349 . S
C387 C389 1.327 . S
C387 H410 0.950 . S
C388 C387 1.349 . S
C388 C400 1.349 . S
C389 C387 1.327 . S
C389 C405 1.429 . S
C389 H411 0.950 . S
C390 H386 0.949 . S
C390 C398 1.574 . S
C390 C406 1.368 . S
H391 C399 0.950 . S
H392 C397 0.950 . S
H393 C398 0.949 . S
H394 C400 0.950 . S
H395 C401 0.950 . S
H396 C402 0.949 . S
C397 H392 0.950 . S
C397 C399 1.327 . S
C397 C403 1.429 . S
C398 C390 1.574 . S
C398 H393 0.949 . S
C398 C404 1.368 . S
C399 C383 1.349 . S
C399 H391 0.950 . S
C399 C397 1.327 . S
C400 C388 1.349 . S
C400 H394 0.950 . S
C400 C401 1.327 . S
C401 H395 0.950 . S
C401 C400 1.327 . S
C401 C405 1.429 . S
C402 C385 1.574 . S
C402 H396 0.949 . S
C402 C406 1.368 . S
C403 C384 1.429 . S
C403 C397 1.429 . S
C403 C404 1.523 . S
C404 C385 1.368 . S
C404 C398 1.368 . S
C404 C403 1.523 . S
C405 C389 1.429 . S
C405 C401 1.429 . S
C405 C406 1.523 . S
C406 C390 1.368 . S
C406 C402 1.368 . S
C406 C405 1.523 . S
H407 C382 0.950 . S
H408 C384 0.950 . S
H409 C385 0.949 . S
H410 C387 0.950 . S
H411 C389 0.950 . S
C412 C413 1.349 . S
C412 C414 1.327 . S
C412 H437 0.950 . S
C413 C412 1.349 . S
C413 C429 1.349 . S
C414 C412 1.327 . S
C414 C433 1.429 . S
C414 H438 0.950 . S
C415 C432 1.574 . S
C415 C434 1.368 . S
C415 H439 0.949 . S
H416 C420 0.949 . S
C417 C418 1.349 . S
C417 C419 1.327 . S
C417 H440 0.950 . S
C418 C417 1.349 . S
C418 C430 1.349 . S
C419 C417 1.327 . S
C419 C435 1.429 1_655 S
C419 H441 0.950 . S
C420 H416 0.949 . S
C420 C428 1.574 . S
C420 C436 1.368 . S
H421 C429 0.950 . S
H422 C427 0.950 . S
H423 C428 0.949 . S
H424 C430 0.950 . S
H425 C431 0.950 . S
H426 C432 0.949 . S
C427 H422 0.950 . S
C427 C429 1.327 . S
C427 C433 1.429 . S
C428 C420 1.574 . S
C428 H423 0.949 . S
C428 C434 1.368 . S
C429 C413 1.349 . S
C429 H421 0.950 . S
C429 C427 1.327 . S
C430 C418 1.349 . S
C430 H424 0.950 . S
C430 C431 1.327 1_655 S
C431 H425 0.950 . S
C431 C430 1.327 1_455 S
C431 C435 1.429 . S
C432 C415 1.574 . S
C432 H426 0.949 . S
C432 C436 1.368 . S
C433 C414 1.429 . S
C433 C427 1.429 . S
C433 C434 1.523 . S
C434 C415 1.368 . S
C434 C428 1.368 . S
C434 C433 1.523 . S
C435 C419 1.429 1_455 S
C435 C431 1.429 . S
C435 C436 1.523 . S
C436 C420 1.368 . S
C436 C432 1.368 . S
C436 C435 1.523 . S
H437 C412 0.950 . S
H438 C414 0.950 . S
H439 C415 0.949 . S
H440 C417 0.950 . S
H441 C419 0.950 . S
C442 C443 1.349 . S
C442 C444 1.327 . S
C442 H467 0.950 . S
C443 C442 1.349 . S
C443 C459 1.349 . S
C444 C442 1.327 . S
C444 C463 1.429 . S
C444 H468 0.950 . S
C445 C462 1.574 . S
C445 C464 1.368 . S
C445 H469 0.949 . S
H446 C450 0.949 . S
C447 C448 1.349 . S
C447 C449 1.327 . S
C447 H470 0.950 . S
C448 C447 1.349 . S
C448 C460 1.349 . S
C449 C447 1.327 . S
C449 C465 1.429 . S
C449 H471 0.950 . S
C450 H446 0.949 . S
C450 C458 1.574 . S
C450 C466 1.368 . S
H451 C459 0.950 . S
H452 C457 0.950 . S
H453 C458 0.949 . S
H454 C460 0.950 . S
H455 C461 0.950 . S
H456 C462 0.949 . S
C457 H452 0.950 . S
C457 C459 1.327 . S
C457 C463 1.429 . S
C458 C450 1.574 . S
C458 H453 0.949 . S
C458 C464 1.368 . S
C459 C443 1.349 . S
C459 H451 0.950 . S
C459 C457 1.327 . S
C460 C448 1.349 . S
C460 H454 0.950 . S
C460 C461 1.327 . S
C461 H455 0.950 . S
C461 C460 1.327 . S
C461 C465 1.429 . S
C462 C445 1.574 . S
C462 H456 0.949 . S
C462 C466 1.368 . S
C463 C444 1.429 . S
C463 C457 1.429 . S
C463 C464 1.523 . S
C464 C445 1.368 . S
C464 C458 1.368 . S
C464 C463 1.523 . S
C465 C449 1.429 . S
C465 C461 1.429 . S
C465 C466 1.523 . S
C466 C450 1.368 . S
C466 C462 1.368 . S
C466 C465 1.523 . S
H467 C442 0.950 . S
H468 C444 0.950 . S
H469 C445 0.949 . S
H470 C447 0.950 . S
H471 C449 0.950 . S
C472 C473 1.349 . S
C472 C474 1.327 . S
C472 H497 0.950 . S
C473 C472 1.349 . S
C473 C489 1.349 . S
C474 C472 1.327 . S
C474 C493 1.429 . S
C474 H498 0.950 . S
C475 C492 1.582 . S
C475 C494 1.361 1_455 S
C475 H499 0.949 . S
H476 C480 0.949 . S
C477 C478 1.349 . S
C477 C479 1.327 . S
C477 H500 0.950 . S
C478 C477 1.349 . S
C478 C490 1.349 . S
C479 C477 1.327 . S
C479 C495 1.429 . S
C479 H501 0.950 . S
C480 H476 0.949 . S
C480 C488 1.582 . S
C480 C496 1.361 1_655 S
H481 C489 0.950 . S
H482 C487 0.950 . S
H483 C488 0.949 . S
H484 C490 0.950 . S
H485 C491 0.950 . S
H486 C492 0.949 . S
C487 H482 0.950 . S
C487 C489 1.327 . S
C487 C493 1.429 . S
C488 C480 1.582 . S
C488 H483 0.949 . S
C488 C494 1.368 . S
C489 C473 1.349 . S
C489 H481 0.950 . S
C489 C487 1.327 . S
C490 C478 1.349 . S
C490 H484 0.950 . S
C490 C491 1.327 . S
C491 H485 0.950 . S
C491 C490 1.327 . S
C491 C495 1.429 . S
C492 C475 1.582 . S
C492 H486 0.949 . S
C492 C496 1.368 . S
C493 C474 1.429 . S
C493 C487 1.429 . S
C493 C494 1.523 . S
C494 C475 1.361 1_655 S
C494 C488 1.368 . S
C494 C493 1.523 . S
C495 C479 1.429 . S
C495 C491 1.429 . S
C495 C496 1.523 . S
C496 C480 1.361 1_455 S
C496 C492 1.368 . S
C496 C495 1.523 . S
H497 C472 0.950 . S
H498 C474 0.950 . S
H499 C475 0.949 . S
H500 C477 0.950 . S
H501 C479 0.950 . S
C502 C503 1.349 . S
C502 C504 1.327 . S
C502 H527 0.950 . S
C503 C502 1.349 . S
C503 C519 1.349 . S
C504 C502 1.327 . S
C504 C523 1.429 . S
C504 H528 0.950 . S
C505 C522 1.574 1_655 S
C505 C524 1.368 . S
C505 H529 0.949 . S
H506 C510 0.949 . S
C507 C508 1.349 . S
C507 C509 1.327 . S
C507 H530 0.950 . S
C508 C507 1.349 . S
C508 C520 1.349 . S
C509 C507 1.327 . S
C509 C525 1.429 . S
C509 H531 0.950 . S
C510 H506 0.949 . S
C510 C518 1.574 1_455 S
C510 C526 1.368 . S
H511 C519 0.950 . S
H512 C517 0.950 . S
H513 C518 0.949 . S
H514 C520 0.950 . S
H515 C521 0.950 . S
H516 C522 0.949 . S
C517 H512 0.950 . S
C517 C519 1.327 . S
C517 C523 1.429 . S
C518 C510 1.574 1_655 S
C518 H513 0.949 . S
C518 C524 1.368 . S
C519 C503 1.349 . S
C519 H511 0.950 . S
C519 C517 1.327 . S
C520 C508 1.349 . S
C520 H514 0.950 . S
C520 C521 1.327 . S
C521 H515 0.950 . S
C521 C520 1.327 . S
C521 C525 1.429 . S
C522 C505 1.574 1_455 S
C522 H516 0.949 . S
C522 C526 1.368 . S
C523 C504 1.429 . S
C523 C517 1.429 . S
C523 C524 1.523 . S
C524 C505 1.368 . S
C524 C518 1.368 . S
C524 C523 1.523 . S
C525 C509 1.429 . S
C525 C521 1.429 . S
C525 C526 1.523 . S
C526 C510 1.368 . S
C526 C522 1.368 . S
C526 C525 1.523 . S
H527 C502 0.950 . S
H528 C504 0.950 . S
H529 C505 0.949 . S
H530 C507 0.950 . S
H531 C509 0.950 . S
C532 C533 1.349 . S
C532 C534 1.327 . S
C532 H557 0.950 . S
C533 C532 1.349 . S
C533 C549 1.349 . S
C534 C532 1.327 . S
C534 C553 1.429 . S
C534 H558 0.950 . S
C535 C552 1.574 1_545 S
C535 C554 1.368 . S
C535 H559 0.949 . S
H536 C540 0.949 . S
C537 C538 1.349 . S
C537 C539 1.327 . S
C537 H560 0.950 . S
C538 C537 1.349 . S
C538 C550 1.349 . S
C539 C537 1.327 . S
C539 C555 1.429 . S
C539 H561 0.950 . S
C540 H536 0.949 . S
C540 C548 1.574 1_565 S
C540 C556 1.368 . S
H541 C549 0.950 . S
H542 C547 0.950 . S
H543 C548 0.949 . S
H544 C550 0.950 . S
H545 C551 0.950 . S
H546 C552 0.949 . S
C547 H542 0.950 . S
C547 C549 1.327 . S
C547 C553 1.429 . S
C548 C540 1.574 1_545 S
C548 H543 0.949 . S
C548 C554 1.368 . S
C549 C533 1.349 . S
C549 H541 0.950 . S
C549 C547 1.327 . S
C550 C538 1.349 . S
C550 H544 0.950 . S
C550 C551 1.327 . S
C551 H545 0.950 . S
C551 C550 1.327 . S
C551 C555 1.429 . S
C552 C535 1.574 1_565 S
C552 H546 0.949 . S
C552 C556 1.368 . S
C553 C534 1.429 . S
C553 C547 1.429 . S
C553 C554 1.523 . S
C554 C535 1.368 . S
C554 C548 1.368 . S
C554 C553 1.523 . S
C555 C539 1.429 . S
C555 C551 1.429 . S
C555 C556 1.523 . S
C556 C540 1.368 . S
C556 C552 1.368 . S
C556 C555 1.523 . S
H557 C532 0.950 . S
H558 C534 0.950 . S
H559 C535 0.949 . S
H560 C537 0.950 . S
H561 C539 0.950 . S
C562 C563 1.349 . S
C562 C564 1.327 . S
C562 H587 0.950 . S
C563 C562 1.349 . S
C563 C579 1.349 . S
C564 C562 1.327 . S
C564 C583 1.429 . S
C564 H588 0.950 . S
C565 C582 1.582 . S
C565 C584 1.361 1_565 S
C565 H589 0.949 . S
H566 C570 0.949 . S
C567 C568 1.349 . S
C567 C569 1.327 . S
C567 H590 0.950 . S
C568 C567 1.349 . S
C568 C580 1.349 . S
C569 C567 1.327 . S
C569 C585 1.429 . S
C569 H591 0.950 . S
C570 H566 0.949 . S
C570 C578 1.582 . S
C570 C586 1.361 1_545 S
H571 C579 0.950 . S
H572 C577 0.950 . S
H573 C578 0.949 . S
H574 C580 0.950 . S
H575 C581 0.950 . S
H576 C582 0.949 . S
C577 H572 0.950 . S
C577 C579 1.327 . S
C577 C583 1.429 . S
C578 C570 1.582 . S
C578 H573 0.949 . S
C578 C584 1.368 . S
C579 C563 1.349 . S
C579 H571 0.950 . S
C579 C577 1.327 . S
C580 C568 1.349 . S
C580 H574 0.950 . S
C580 C581 1.327 . S
C581 H575 0.950 . S
C581 C580 1.327 . S
C581 C585 1.429 . S
C582 C565 1.582 . S
C582 H576 0.949 . S
C582 C586 1.368 . S
C583 C564 1.429 . S
C583 C577 1.429 . S
C583 C584 1.523 . S
C584 C565 1.361 1_545 S
C584 C578 1.368 . S
C584 C583 1.523 . S
C585 C569 1.429 . S
C585 C581 1.429 . S
C585 C586 1.523 . S
C586 C570 1.361 1_565 S
C586 C582 1.368 . S
C586 C585 1.523 . S
H587 C562 0.950 . S
H588 C564 0.950 . S
H589 C565 0.949 . S
H590 C567 0.950 . S
H591 C569 0.950 . S
C113 C8 1.491 . S
C118 C78 1.491 . S
C143 C22 1.491 . S
C148 C92 1.491 . S
C173 C36 1.491 . S
C178 C106 1.491 . S
C203 C64 1.491 . S
C208 C50 1.491 . S
C233 C6 1.487 . S
C238 C63 1.491 . S
C263 C20 1.487 . S
C268 C77 1.491 . S
C293 C91 1.491 . S
C298 C34 1.487 . S
C323 C48 1.487 . S
C328 C105 1.491 . S
C353 C62 1.487 . S
C358 C7 1.491 . S
C383 C21 1.491 . S
C388 C76 1.487 . S
C413 C90 1.487 . S
C418 C35 1.491 . S
C443 C49 1.491 . S
C448 C104 1.487 . S
C473 C37 0.762 . S
C478 C9 0.762 . S
C503 C51 0.762 . S
C508 C23 0.762 . S
C533 C65 0.762 . S
C538 C93 0.762 . S
C563 C79 0.762 . S
C568 C107 0.762 . S
