# Generated by pormake.
# Topology wfz, (7)-cn, num edge types: 1
# Building blocks:
#     Node 0, Type 0, BuildingBlock: HICVOG_clean_sbu_0, # of connection points: 7
#     Node 1, Type 0, BuildingBlock: HICVOG_clean_sbu_0, # of connection points: 7
#     Node 2, Type 0, BuildingBlock: HICVOG_clean_sbu_0, # of connection points: 7
#     Node 3, Type 0, BuildingBlock: HICVOG_clean_sbu_0, # of connection points: 7
#     Node 4, Type 0, BuildingBlock: HICVOG_clean_sbu_0, # of connection points: 7
#     Node 5, Type 0, BuildingBlock: HICVOG_clean_sbu_0, # of connection points: 7
#     Node 6, Type 0, BuildingBlock: HICVOG_clean_sbu_0, # of connection points: 7
#     Node 7, Type 0, BuildingBlock: HICVOG_clean_sbu_0, # of connection points: 7
#     Edge 8, Type (0, 0), BuildingBlock: XIVTED_clean_linker_0, # of connection points: 2
#     Edge 9, Type (0, 0), BuildingBlock: XIVTED_clean_linker_0, # of connection points: 2
#     Edge 10, Type (0, 0), BuildingBlock: XIVTED_clean_linker_0, # of connection points: 2
#     Edge 11, Type (0, 0), BuildingBlock: XIVTED_clean_linker_0, # of connection points: 2
#     Edge 12, Type (0, 0), BuildingBlock: XIVTED_clean_linker_0, # of connection points: 2
#     Edge 13, Type (0, 0), BuildingBlock: XIVTED_clean_linker_0, # of connection points: 2
#     Edge 14, Type (0, 0), BuildingBlock: XIVTED_clean_linker_0, # of connection points: 2
#     Edge 15, Type (0, 0), BuildingBlock: XIVTED_clean_linker_0, # of connection points: 2
#     Edge 16, Type (0, 0), BuildingBlock: XIVTED_clean_linker_0, # of connection points: 2
#     Edge 17, Type (0, 0), BuildingBlock: XIVTED_clean_linker_0, # of connection points: 2
#     Edge 18, Type (0, 0), BuildingBlock: XIVTED_clean_linker_0, # of connection points: 2
#     Edge 19, Type (0, 0), BuildingBlock: XIVTED_clean_linker_0, # of connection points: 2
#     Edge 20, Type (0, 0), BuildingBlock: XIVTED_clean_linker_0, # of connection points: 2
#     Edge 21, Type (0, 0), BuildingBlock: XIVTED_clean_linker_0, # of connection points: 2
#     Edge 22, Type (0, 0), BuildingBlock: XIVTED_clean_linker_0, # of connection points: 2
#     Edge 23, Type (0, 0), BuildingBlock: XIVTED_clean_linker_0, # of connection points: 2
#     Edge 24, Type (0, 0), BuildingBlock: XIVTED_clean_linker_0, # of connection points: 2
#     Edge 25, Type (0, 0), BuildingBlock: XIVTED_clean_linker_0, # of connection points: 2
#     Edge 26, Type (0, 0), BuildingBlock: XIVTED_clean_linker_0, # of connection points: 2
#     Edge 27, Type (0, 0), BuildingBlock: XIVTED_clean_linker_0, # of connection points: 2
#     Edge 28, Type (0, 0), BuildingBlock: XIVTED_clean_linker_0, # of connection points: 2
#     Edge 29, Type (0, 0), BuildingBlock: XIVTED_clean_linker_0, # of connection points: 2
#     Edge 30, Type (0, 0), BuildingBlock: XIVTED_clean_linker_0, # of connection points: 2
#     Edge 31, Type (0, 0), BuildingBlock: XIVTED_clean_linker_0, # of connection points: 2
#     Edge 32, Type (0, 0), BuildingBlock: XIVTED_clean_linker_0, # of connection points: 2
#     Edge 33, Type (0, 0), BuildingBlock: XIVTED_clean_linker_0, # of connection points: 2
#     Edge 34, Type (0, 0), BuildingBlock: XIVTED_clean_linker_0, # of connection points: 2
#     Edge 35, Type (0, 0), BuildingBlock: XIVTED_clean_linker_0, # of connection points: 2
# Relax obj value: 0.179
# Max RMSD: 0.259
# Mean RMSD: 0.259
data_MOF--net-wfz--node1-HICVOG_clean_sbu_0--edge1-XIVTED_clean_linker_0
_symmetry_space_group_name_H-M    P1
_symmetry_Int_Tables_number       1
_symmetry_cell_setting            triclinic
loop_
_symmetry_equiv_pos_as_xyz
'x, y, z'
_cell_length_a     23.834913
_cell_length_b     23.688671
_cell_length_c     63.370705
_cell_angle_alpha  89.851461
_cell_angle_beta   89.83451
_cell_angle_gamma 89.798388
loop_
_atom_site_label
_atom_site_type_symbol
_atom_site_fract_x
_atom_site_fract_y
_atom_site_fract_z
_atom_type_partial_charge
Zn0 Zn 0.22511 0.48206 0.40069 0.0
C1 C 0.34637 0.46453 0.44328 0.0
N2 N 0.34876 0.41196 0.4355 0.0
C3 C 0.31538 0.41481 0.41853 0.0
N4 N 0.29339 0.46699 0.41607 0.0
N5 N 0.31354 0.49888 0.43144 0.0
C6 C 0.26264 0.63699 0.46268 0.0
O7 O 0.22473 0.63757 0.4477 0.0
O8 O 0.21776 0.43533 0.37404 0.0
Zn9 Zn 0.32294 0.58099 0.42959 0.0
N10 N 0.16292 0.46624 0.41946 0.0
C11 C 0.11247 0.4934 0.45031 0.0
C12 C 0.15927 0.49826 0.43717 0.0
C13 C 0.12213 0.4285 0.41453 0.0
N14 N 0.07103 0.45678 0.44516 0.0
C15 C 0.07472 0.42378 0.42767 0.0
O16 O 0.26981 0.62224 0.4091 0.0
C17 C 0.23064 0.61258 0.39592 0.0
O18 O 0.21386 0.56276 0.39226 0.0
H19 H 0.19199 0.52819 0.44077 0.0
H20 H 0.12556 0.40406 0.40017 0.0
C21 C 0.42819 0.64292 0.42041 0.0
C22 C 0.48303 0.6465 0.41187 0.0
C23 C 0.47729 0.55035 0.40155 0.0
C24 C 0.42316 0.54738 0.40955 0.0
N25 N 0.39969 0.59303 0.4192 0.0
N26 N 0.50567 0.59952 0.40286 0.0
H27 H 0.40844 0.67886 0.4279 0.0
C28 C 0.23717 0.45633 0.35703 0.0
O29 O 0.26477 0.50418 0.35796 0.0
O30 O 0.31056 0.61529 0.45883 0.0
H31 H 0.40005 0.50869 0.4078 0.0
H32 H 0.10874 0.51912 0.46433 0.0
H33 H 0.49641 0.51407 0.39405 0.0
Zn34 Zn 1.00064 0.83609 0.67885 0.0
C35 C 0.1642 0.82204 0.66645 0.0
N36 N 0.16975 0.85342 0.68391 0.0
C37 C 0.11811 0.85244 0.69245 0.0
N38 N 0.08171 0.82278 0.68046 0.0
N39 N 0.11136 0.80276 0.6644 0.0
C40 C 0.12192 0.74885 0.60589 0.0
O41 O 0.07485 0.77781 0.60677 0.0
O42 O 0.96708 0.82521 0.70812 0.0
Zn43 Zn 0.09625 0.73277 0.64995 0.0
N44 N 0.99008 0.91377 0.66788 0.0
C45 C 0.03726 0.99199 0.65225 0.0
C46 C 0.0381 0.93779 0.66047 0.0
C47 C 0.94002 0.94227 0.66668 0.0
N48 N 0.988 0.02013 0.65109 0.0
C49 C 0.93866 0.99742 0.65781 0.0
O50 O 1.01484 0.7193 0.64337 0.0
C51 C 0.966 0.73812 0.64754 0.0
O52 O 0.9585 0.78024 0.6598 0.0
H53 H 0.07721 0.91512 0.66059 0.0
H54 H 0.90218 0.9217 0.67207 0.0
C55 C 0.14474 0.62442 0.66088 0.0
C56 C 0.16234 0.58161 0.67491 0.0
C57 C 0.12836 0.63626 0.70362 0.0
C58 C 0.11093 0.67833 0.68967 0.0
N59 N 0.11979 0.6719 0.66862 0.0
N60 N 0.15382 0.58921 0.69596 0.0
H61 H 0.1518 0.62083 0.64407 0.0
C62 C 0.95952 0.77363 0.71306 0.0
O63 O 0.97385 0.73447 0.69942 0.0
O64 O 0.14089 0.72678 0.62274 0.0
H65 H 0.09074 0.71598 0.69561 0.0
H66 H 0.07541 1.01138 0.6465 0.0
H67 H 0.1219 0.64103 0.72042 0.0
Zn68 Zn 0.74468 0.50661 0.92976 0.0
C69 C 0.76038 0.66883 0.91136 0.0
N70 N 0.7375 0.68191 0.92998 0.0
C71 C 0.73507 0.63224 0.9402 0.0
N72 N 0.75478 0.58936 0.92791 0.0
N73 N 0.7724 0.61341 0.91015 0.0
C74 C 0.83581 0.61799 0.85275 0.0
O75 O 0.80919 0.56952 0.85333 0.0
O76 O 0.76489 0.47943 0.95933 0.0
Zn77 Zn 0.84326 0.59516 0.89723 0.0
N78 N 0.66526 0.49057 0.92289 0.0
C79 C 0.57507 0.53144 0.91699 0.0
C80 C 0.63107 0.53674 0.92246 0.0
C81 C 0.64489 0.43847 0.91758 0.0
N82 N 0.5551 0.48021 0.91156 0.0
C83 C 0.58797 0.43312 0.9115 0.0
O84 O 0.85359 0.5134 0.89105 0.0
C85 C 0.83476 0.46514 0.89613 0.0
O86 O 0.7952 0.45957 0.90965 0.0
H87 H 0.64684 0.57796 0.92613 0.0
H88 H 0.67286 0.4024 0.91743 0.0
C89 C 0.95042 0.64119 0.90933 0.0
C90 C 0.99248 0.65743 0.92367 0.0
C91 C 0.93633 0.62325 0.9519 0.0
C92 C 0.89504 0.60703 0.93763 0.0
N93 N 0.90253 0.61674 0.91666 0.0
N94 N 0.98379 0.64827 0.94464 0.0
H95 H 0.95499 0.64885 0.89258 0.0
C96 C 0.81569 0.46598 0.96298 0.0
O97 O 0.85273 0.47049 0.94769 0.0
O98 O 0.85362 0.63889 0.86992 0.0
H99 H 0.85725 0.58703 0.94328 0.0
H100 H 0.54773 0.56799 0.91672 0.0
H101 H 0.93066 0.61613 0.96864 0.0
Zn102 Zn 0.07135 0.24786 0.18143 0.0
C103 C 0.91462 0.25773 0.15857 0.0
N104 N 0.89752 0.23648 0.17704 0.0
C105 C 0.94411 0.23647 0.18897 0.0
N106 N 0.98911 0.25605 0.17786 0.0
N107 N 0.96931 0.2712 0.15916 0.0
C108 C 0.96272 0.33429 0.10304 0.0
O109 O 1.00801 0.30257 0.10378 0.0
O110 O 0.09523 0.26996 0.21121 0.0
Zn111 Zn 0.98722 0.34317 0.14714 0.0
N112 N 0.08947 0.16797 0.1756 0.0
C113 C 0.05256 0.07527 0.17122 0.0
C114 C 0.04532 0.13166 0.17644 0.0
C115 C 0.14138 0.14931 0.16939 0.0
N116 N 0.10355 0.05705 0.16477 0.0
C117 C 0.14849 0.09215 0.16356 0.0
O118 O 0.06802 0.35278 0.14071 0.0
C119 C 0.11553 0.33472 0.14676 0.0
O120 O 0.11992 0.29713 0.16121 0.0
H121 H 1.00414 0.14607 0.18073 0.0
H122 H 0.1758 0.17883 0.1682 0.0
C123 C 0.93866 0.44868 0.16051 0.0
C124 C 0.92319 0.49057 0.17518 0.0
C125 C 0.96439 0.43586 0.20251 0.0
C126 C 0.98 0.39481 0.18788 0.0
N127 N 0.96634 0.40162 0.16721 0.0
N128 N 0.9362 0.48252 0.19588 0.0
H129 H 0.92803 0.45276 0.14399 0.0
C130 C 0.11486 0.31888 0.21476 0.0
O131 O 0.11877 0.35505 0.19909 0.0
O132 O 0.94404 0.35564 0.12005 0.0
H133 H 1.00274 0.35777 0.19299 0.0
H134 H 0.01759 0.04632 0.17188 0.0
H135 H 0.9746 0.43069 0.21902 0.0
Zn136 Zn 0.82199 1.00568 0.343 0.0
C137 C 0.82812 0.16806 0.35804 0.0
N138 N 0.8646 0.1702 0.34189 0.0
C139 C 0.85729 0.12009 0.33245 0.0
N140 N 0.81857 0.08821 0.34251 0.0
N141 N 0.7996 0.11903 0.35846 0.0
C142 C 0.741 0.13458 0.41612 0.0
O143 O 0.76768 0.08598 0.41536 0.0
O144 O 0.8132 0.9735 0.31317 0.0
Zn145 Zn 0.727 0.10995 0.37191 0.0
N146 N 0.89389 0.98707 0.35658 0.0
C147 C 0.95476 1.01961 0.38368 0.0
C148 C 0.90532 0.02417 0.37233 0.0
C149 C 0.9297 0.94316 0.35236 0.0
N150 N 0.99059 0.9768 0.37937 0.0
C151 C 0.97985 0.93776 0.3642 0.0
O152 O 0.70636 0.02945 0.37856 0.0
C153 C 0.72077 0.97927 0.37384 0.0
O154 O 0.76144 0.96903 0.36128 0.0
H155 H 0.87593 0.05716 0.37621 0.0
H156 H 0.9195 0.91338 0.34005 0.0
C157 C 0.62204 0.16154 0.35991 0.0
C158 C 0.58154 0.18196 0.34559 0.0
C159 C 0.64028 0.15372 0.31715 0.0
C160 C 0.67998 0.13334 0.33139 0.0
N161 N 0.6704 0.13805 0.35247 0.0
N162 N 0.59231 0.17769 0.32454 0.0
H163 H 0.61593 0.16513 0.37677 0.0
C164 C 0.76239 0.9694 0.30715 0.0
O165 O 0.72251 0.98674 0.31996 0.0
O166 O 0.72121 0.15507 0.39912 0.0
H167 H 0.71819 0.11404 0.32565 0.0
H168 H 0.96433 0.04945 0.39604 0.0
H169 H 0.64756 0.1506 0.30034 0.0
Zn170 Zn 0.56879 0.3379 0.59208 0.0
C171 C 0.4036 0.32009 0.6025 0.0
N172 N 0.39973 0.35147 0.58491 0.0
C173 C 0.45261 0.35227 0.57762 0.0
N174 N 0.48806 0.32361 0.59041 0.0
N175 N 0.45674 0.30238 0.60584 0.0
C176 C 0.44804 0.24613 0.66664 0.0
O177 O 0.4971 0.27124 0.66629 0.0
O178 O 0.60233 0.32784 0.56246 0.0
Zn179 Zn 0.47404 0.23549 0.62234 0.0
N180 N 0.57799 0.41581 0.60282 0.0
C181 C 0.52955 0.49489 0.61736 0.0
C182 C 0.52928 0.44064 0.60926 0.0
C183 C 0.6281 0.44346 0.60495 0.0
N184 N 0.57887 0.52216 0.61946 0.0
C185 C 0.6288 0.49852 0.61378 0.0
O186 O 0.55569 0.22566 0.62982 0.0
C187 C 0.60427 0.24379 0.62503 0.0
O188 O 0.61113 0.28374 0.61172 0.0
H189 H 0.49003 0.41853 0.60851 0.0
H190 H 0.6665 0.42225 0.60041 0.0
C191 C 0.42092 0.1301 0.61027 0.0
C192 C 0.41611 0.0814 0.59773 0.0
C193 C 0.48459 0.11813 0.57426 0.0
C194 C 0.48949 0.16616 0.58678 0.0
N195 N 0.45813 0.17098 0.60463 0.0
N196 N 0.44852 0.07667 0.58011 0.0
H197 H 0.39695 0.13451 0.62471 0.0
C198 C 0.62244 0.2793 0.55809 0.0
O199 O 0.62158 0.23991 0.57269 0.0
O200 O 0.42742 0.22891 0.64932 0.0
H201 H 0.5189 0.19898 0.5826 0.0
H202 H 0.49087 0.51495 0.62232 0.0
H203 H 0.5098 0.11349 0.56014 0.0
Zn204 Zn 0.24617 0.07358 0.84258 0.0
C205 C 0.24394 0.90827 0.85493 0.0
N206 N 0.20657 0.90744 0.83916 0.0
C207 C 0.21063 0.95947 0.83096 0.0
N208 N 0.2485 0.99132 0.84139 0.0
N209 N 0.27002 0.9586 0.8564 0.0
C210 C 0.33702 0.94491 0.91401 0.0
O211 O 0.31439 0.99556 0.91356 0.0
O212 O 0.25133 0.10793 0.81296 0.0
Zn213 Zn 0.34381 0.96743 0.86922 0.0
N214 N 0.17743 0.09221 0.85828 0.0
C215 C 0.1238 0.06125 0.88786 0.0
C216 C 0.17037 0.05623 0.87483 0.0
C217 C 0.13983 0.13495 0.85464 0.0
N218 N 0.08632 0.10312 0.88423 0.0
C219 C 0.09255 0.14079 0.86813 0.0
O220 O 0.36794 0.04798 0.87524 0.0
C221 C 0.35347 0.09818 0.87045 0.0
O222 O 0.31072 0.10816 0.85898 0.0
H223 H 0.20104 0.02372 0.87799 0.0
H224 H 0.14651 0.16341 0.8415 0.0
C225 C 0.4474 0.91565 0.8555 0.0
C226 C 0.48544 0.89374 0.84052 0.0
C227 C 0.42187 0.91825 0.81321 0.0
C228 C 0.38457 0.94016 0.82808 0.0
N229 N 0.39769 0.93794 0.84894 0.0
N230 N 0.47114 0.89534 0.81975 0.0
H231 H 0.45648 0.91408 0.87221 0.0
C232 C 0.30166 0.11035 0.80615 0.0
O233 O 0.34197 0.08954 0.81796 0.0
O234 O 0.35148 0.9222 0.89664 0.0
H235 H 0.34536 0.95859 0.82299 0.0
H236 H 0.11768 0.03243 0.90093 0.0
H237 H 0.41171 0.91933 0.79659 0.0
Zn238 Zn 0.60917 0.83898 0.12098 0.0
C239 C 0.61063 0.70423 0.08262 0.0
N240 N 0.66086 0.69511 0.09152 0.0
C241 C 0.66181 0.73319 0.10715 0.0
N242 N 0.61467 0.76478 0.1078 0.0
N243 N 0.58201 0.74609 0.0924 0.0
C244 C 0.46145 0.80504 0.0562 0.0
O245 O 0.4779 0.84642 0.06842 0.0
O246 O 0.65428 0.84526 0.14828 0.0
Zn247 Zn 0.50031 0.74922 0.09283 0.0
N248 N 0.63779 0.89279 0.10054 0.0
C249 C 0.63084 0.93011 0.06571 0.0
C250 C 0.61656 0.88942 0.0807 0.0
C251 C 0.67383 0.93479 0.10591 0.0
N252 N 0.66573 0.97279 0.07116 0.0
C253 C 0.68805 0.97614 0.09085 0.0
O254 O 0.46928 0.81622 0.10893 0.0
C255 C 0.48037 0.85685 0.12133 0.0
O256 O 0.53027 0.86682 0.12732 0.0
H257 H 0.58784 0.85597 0.0767 0.0
H258 H 0.68953 0.93714 0.1219 0.0
C259 C 0.4398 0.64183 0.10565 0.0
C260 C 0.43208 0.59806 0.1207 0.0
C261 C 0.50007 0.64104 0.14276 0.0
C262 C 0.50699 0.68409 0.12814 0.0
N263 N 0.4778 0.68359 0.10974 0.0
N264 N 0.46306 0.59936 0.13871 0.0
H265 H 0.41661 0.64243 0.091 0.0
C266 C 0.62997 0.83302 0.16561 0.0
O267 O 0.57888 0.81243 0.16495 0.0
O268 O 0.46713 0.75439 0.06282 0.0
H269 H 0.53567 0.71809 0.13147 0.0
H270 H 0.61373 0.92823 0.04993 0.0
H271 H 0.52359 0.6409 0.15734 0.0
H272 H 0.30951 0.3012 0.42232 0.0
H273 H 0.52398 0.26754 0.32634 0.0
H274 H 0.34511 0.43376 0.37772 0.0
H275 H 0.51732 0.15789 0.38078 0.0
H276 H 0.4399 0.31647 0.33917 0.0
H277 H 0.36342 0.23529 0.40055 0.0
C278 C 0.32623 0.31567 0.40734 0.0
C279 C 0.32239 0.37279 0.40167 0.0
C280 C 0.45662 0.28138 0.34818 0.0
C281 C 0.38629 0.2985 0.3772 0.0
C282 C 0.50465 0.25345 0.34091 0.0
C283 C 0.52869 0.20943 0.35276 0.0
C284 C 0.43191 0.26472 0.36733 0.0
C285 C 0.50145 0.1927 0.37143 0.0
C286 C 0.35784 0.27832 0.39511 0.0
C287 C 0.34594 0.38978 0.38238 0.0
N288 N 0.4548 0.22058 0.37818 0.0
N289 N 0.37796 0.35307 0.37103 0.0
H290 H 0.30448 0.08732 0.60736 0.0
H291 H 0.2772 0.80607 0.66502 0.0
H292 H 0.44189 0.96965 0.60122 0.0
H293 H 0.13748 0.86902 0.62889 0.0
H294 H 0.34094 0.86235 0.643 0.0
H295 H 0.24298 1.00894 0.61772 0.0
C296 C 0.32156 0.04493 0.6082 0.0
C297 C 0.37822 0.03472 0.60364 0.0
C298 C 0.29654 0.86211 0.63939 0.0
C299 C 0.30865 0.94543 0.61554 0.0
C300 C 0.26033 0.82952 0.65176 0.0
C301 C 0.20222 0.83254 0.64858 0.0
C302 C 0.27398 0.89941 0.62438 0.0
C303 C 0.18214 0.86492 0.63162 0.0
C304 C 0.28647 1.00027 0.61386 0.0
C305 C 0.39834 0.97901 0.6047 0.0
N306 N 0.21778 0.89863 0.62058 0.0
N307 N 0.36384 0.93644 0.61097 0.0
H308 H 0.55694 0.92589 0.87224 0.0
H309 H 0.72179 0.63964 0.87235 0.0
H310 H 0.53787 0.80294 0.82269 0.0
H311 H 0.76986 0.78265 0.90998 0.0
H312 H 0.66615 0.70237 0.84991 0.0
H313 H 0.64253 0.87789 0.88352 0.0
C314 C 0.57072 0.8887 0.86375 0.0
C315 C 0.53946 0.86755 0.84682 0.0
C316 C 0.69039 0.72044 0.86263 0.0
C317 C 0.63794 0.81252 0.85953 0.0
C318 C 0.72303 0.68467 0.87523 0.0
C319 C 0.75013 0.70605 0.89311 0.0
C320 C 0.68425 0.77752 0.86828 0.0
C321 C 0.74917 0.76455 0.8964 0.0
C322 C 0.62006 0.86166 0.87003 0.0
C323 C 0.5604 0.82027 0.83598 0.0
N324 N 0.71548 0.79807 0.88448 0.0
N325 N 0.60777 0.79371 0.84274 0.0
H326 H 0.8053 0.27481 0.14811 0.0
H327 H 0.79234 0.97236 0.10852 0.0
H328 H 0.95738 0.19367 0.12702 0.0
H329 H 0.66735 0.08816 0.08493 0.0
H330 H 0.85185 0.05299 0.11776 0.0
H331 H 0.75096 0.21081 0.12573 0.0
C332 C 0.82731 0.24532 0.13797 0.0
C333 C 0.88575 0.23956 0.13929 0.0
C334 C 0.81167 0.06064 0.11032 0.0
C335 C 0.82411 0.16449 0.11483 0.0
C336 C 0.77759 1.01482 0.10529 0.0
C337 C 0.7249 0.02396 0.09615 0.0
C338 C 0.79213 0.11584 0.10674 0.0
C339 C 0.70777 0.07967 0.09204 0.0
C340 C 0.79635 0.20846 0.12541 0.0
C341 C 0.91237 0.19977 0.12627 0.0
N342 N 0.74083 0.12375 0.09777 0.0
N343 N 0.88121 0.16236 0.11511 0.0
H344 H 0.07981 0.31029 0.42098 0.0
H345 H 0.81186 0.28148 0.35792 0.0
H346 H 0.96448 0.45074 0.42252 0.0
H347 H 0.86555 0.14296 0.39716 0.0
H348 H 0.86313 0.34671 0.3808 0.0
H349 H 1.00234 0.2482 0.41068 0.0
C350 C 0.03803 0.32783 0.41922 0.0
C351 C 0.02824 0.38549 0.42239 0.0
C352 C 0.86181 0.30231 0.38488 0.0
C353 C 0.94006 0.31537 0.41049 0.0
C354 C 0.83206 0.26525 0.372 0.0
C355 C 0.83413 0.20701 0.37584 0.0
C356 C 0.89549 0.28037 0.40109 0.0
C357 C 0.86238 0.1877 0.39385 0.0
C358 C 0.99387 0.29247 0.41359 0.0
C359 C 0.97342 0.40637 0.42012 0.0
N360 N 0.89359 0.22408 0.40545 0.0
N361 N 0.93141 0.37152 0.41383 0.0
H362 H 0.24493 0.52226 0.69495 0.0
H363 H 0.29097 0.3131 0.59787 0.0
H364 H 0.14478 0.52138 0.63833 0.0
H365 H 0.41915 0.34996 0.64352 0.0
H366 H 0.22327 0.36603 0.61918 0.0
H367 H 0.29612 0.43939 0.68196 0.0
C368 C 0.2334 0.50443 0.67986 0.0
C369 C 0.19136 0.52969 0.66749 0.0
C370 C 0.26574 0.36093 0.62492 0.0
C371 C 0.24909 0.43428 0.65275 0.0
C372 C 0.30414 0.32991 0.61295 0.0
C373 C 0.36058 0.32684 0.61904 0.0
C374 C 0.28412 0.38934 0.64303 0.0
C375 C 0.37579 0.35032 0.63849 0.0
C376 C 0.2626 0.45712 0.67249 0.0
C377 C 0.17793 0.50444 0.64814 0.0
N378 N 0.33802 0.38164 0.64961 0.0
N379 N 0.20688 0.45836 0.64133 0.0
H380 H 0.2232 0.92009 0.89688 0.0
H381 H 0.05432 0.63798 0.88765 0.0
H382 H 0.25393 0.79601 0.84867 0.0
H383 H 0.05093 0.74001 0.94394 0.0
H384 H 0.1368 0.68956 0.87555 0.0
H385 H 0.17432 0.84857 0.91785 0.0
C386 C 0.22261 0.87691 0.89129 0.0
C387 C 0.24271 0.86372 0.87108 0.0
C388 C 0.11848 0.7004 0.89067 0.0
C389 C 0.18396 0.7827 0.89426 0.0
C390 C 0.07084 0.67136 0.89746 0.0
C391 C 0.04479 0.68566 0.9166 0.0
C392 C 0.13991 0.74476 0.90293 0.0
C393 C 0.06933 0.72805 0.92896 0.0
C394 C 0.19358 0.83627 0.90306 0.0
C395 C 0.23902 0.80767 0.86423 0.0
N396 N 0.11489 0.7568 0.92175 0.0
N397 N 0.20882 0.76956 0.87552 0.0
H398 H 0.84161 0.54677 0.19717 0.0
H399 H 0.7722 0.74608 0.09928 0.0
H400 H 0.93504 0.55291 0.1388 0.0
H401 H 0.65428 0.71193 0.14923 0.0
H402 H 0.84606 0.70066 0.11993 0.0
H403 H 0.78568 0.62789 0.18522 0.0
C404 C 0.8507 0.56549 0.18193 0.0
C405 C 0.89204 0.54208 0.16872 0.0
C406 C 0.80451 0.70465 0.12674 0.0
C407 C 0.82904 0.63534 0.15517 0.0
C408 C 0.76262 0.73147 0.1151 0.0
C409 C 0.70737 0.73277 0.12265 0.0
C410 C 0.79065 0.67808 0.14587 0.0
C411 C 0.69667 0.71228 0.14303 0.0
C412 C 0.81885 0.61179 0.17517 0.0
C413 C 0.90245 0.56836 0.14924 0.0
N414 N 0.73771 0.6844 0.15378 0.0
N415 N 0.87092 0.61326 0.14302 0.0
H416 H 0.21757 0.68692 0.5976 0.0
H417 H 0.17334 0.70332 0.47278 0.0
H418 H 0.08907 0.78623 0.56702 0.0
H419 H 0.31732 0.62164 0.50072 0.0
H420 H 0.14411 0.73527 0.50753 0.0
H421 H 0.25711 0.6641 0.56284 0.0
C422 C 0.19792 0.70431 0.58362 0.0
C423 C 0.14959 0.73825 0.58526 0.0
C424 C 0.18232 0.71067 0.50615 0.0
C425 C 0.19449 0.71203 0.54547 0.0
C426 C 0.19905 0.69225 0.48625 0.0
C427 C 0.24777 0.65947 0.4838 0.0
C428 C 0.21407 0.69587 0.52397 0.0
C429 C 0.27947 0.64684 0.50188 0.0
C430 C 0.22054 0.69123 0.56379 0.0
C431 C 0.12609 0.75966 0.56659 0.0
N432 N 0.2618 0.66466 0.52126 0.0
N433 N 0.14849 0.74589 0.54755 0.0
H434 H 0.81016 0.5795 0.81342 0.0
H435 H 0.95322 0.83488 0.75006 0.0
H436 H 0.88829 0.71964 0.84517 0.0
H437 H 0.91276 0.67291 0.72318 0.0
H438 H 0.91837 0.80106 0.78448 0.0
H439 H 0.83522 0.62148 0.77961 0.0
C440 C 0.83235 0.61932 0.81331 0.0
C441 C 0.84759 0.64575 0.83222 0.0
C442 C 0.91697 0.7732 0.77097 0.0
C443 C 0.87666 0.69426 0.79333 0.0
C444 C 0.93658 0.79251 0.75135 0.0
C445 C 0.93605 0.75656 0.73376 0.0
C446 C 0.89606 0.71793 0.77283 0.0
C447 C 0.91436 0.70198 0.73632 0.0
C448 C 0.84681 0.64325 0.79395 0.0
C449 C 0.87607 0.69757 0.83098 0.0
N450 N 0.89526 0.68446 0.75542 0.0
N451 N 0.88991 0.72008 0.81185 0.0
H452 H 0.75733 0.46798 1.00059 0.0
H453 H 1.00056 0.30624 0.06372 0.0
H454 H 0.91475 0.41513 0.97304 0.0
H455 H 0.86642 0.39543 0.09533 0.0
H456 H 0.96205 0.33566 0.02984 0.0
H457 H 0.78976 0.43266 0.03499 0.0
C458 C 0.79854 0.4488 1.00175 0.0
C459 C 0.83342 0.44458 0.98392 0.0
C460 C 0.94087 0.34873 0.04417 0.0
C461 C 0.87046 0.40388 0.02306 0.0
C462 C 0.96275 0.33173 0.06356 0.0
C463 C 0.93694 0.34868 0.08244 0.0
C464 C 0.89252 0.38275 0.04353 0.0
C465 C 0.88789 0.38165 0.08117 0.0
C466 C 0.81703 0.42881 0.02137 0.0
C467 C 0.88648 0.41954 0.98634 0.0
N468 N 0.8673 0.39773 0.06203 0.0
N469 N 0.90323 0.40007 1.00549 0.0
H470 H 0.10173 0.26148 0.25236 0.0
H471 H 0.27068 0.4935 0.31826 0.0
H472 H 0.17262 0.41338 0.22578 0.0
H473 H 0.17478 0.36138 0.3483 0.0
H474 H 0.24333 0.45711 0.28395 0.0
H475 H 0.13493 0.29079 0.28733 0.0
C476 C 0.12435 0.30085 0.25385 0.0
C477 C 0.13433 0.33508 0.2361 0.0
C478 C 0.22833 0.43584 0.29801 0.0
C479 C 0.17263 0.36854 0.27594 0.0
C480 C 0.24413 0.45652 0.31767 0.0
C481 C 0.22469 0.43075 0.33625 0.0
C482 C 0.19278 0.38882 0.29676 0.0
C483 C 0.19058 0.38273 0.33439 0.0
C484 C 0.1432 0.31755 0.2738 0.0
C485 C 0.16373 0.38569 0.23897 0.0
N486 N 0.17547 0.36342 0.31498 0.0
N487 N 0.18184 0.40074 0.25844 0.0
H488 H 0.73413 0.87926 0.17386 0.0
H489 H 0.66022 0.93072 0.29532 0.0
H490 H 0.58404 0.81932 0.20475 0.0
H491 H 0.82839 0.95354 0.27148 0.0
H492 H 0.63207 0.8937 0.26128 0.0
H493 H 0.77042 0.90919 0.20839 0.0
C494 C 0.70902 0.87194 0.18786 0.0
C495 C 0.65571 0.84698 0.18632 0.0
C496 C 0.67527 0.90644 0.2634 0.0
C497 C 0.69675 0.88161 0.22577 0.0
C498 C 0.69141 0.92788 0.2829 0.0
C499 C 0.74684 0.9453 0.28634 0.0
C500 C 0.71449 0.90276 0.24688 0.0
C501 C 0.78528 0.9403 0.26956 0.0
C502 C 0.72978 0.88905 0.20755 0.0
C503 C 0.62516 0.83854 0.20503 0.0
N504 N 0.7683 0.91984 0.25047 0.0
N505 N 0.64587 0.85616 0.22383 0.0
H506 H 0.60908 0.33692 0.52034 0.0
H507 H 0.77809 0.10114 0.45492 0.0
H508 H 0.68739 0.18925 0.54749 0.0
H509 H 0.67944 0.23091 0.42454 0.0
H510 H 0.75426 0.14147 0.48908 0.0
H511 H 0.64269 0.3069 0.48531 0.0
C512 C 0.63372 0.29859 0.51898 0.0
C513 C 0.64517 0.26541 0.53688 0.0
C514 C 0.7379 0.16142 0.47498 0.0
C515 C 0.68373 0.23099 0.497 0.0
C516 C 0.75164 0.13839 0.45539 0.0
C517 C 0.73037 0.16227 0.43677 0.0
C518 C 0.70247 0.20887 0.47613 0.0
C519 C 0.69657 0.21088 0.43849 0.0
C520 C 0.6527 0.28138 0.499 0.0
C521 C 0.6771 0.21602 0.53417 0.0
N522 N 0.68335 0.2324 0.45783 0.0
N523 N 0.69508 0.20041 0.5147 0.0
H524 H 0.23624 0.12318 0.77035 0.0
H525 H 0.48581 0.27169 0.70602 0.0
H526 H 0.40137 0.15598 0.79505 0.0
H527 H 0.34706 0.19242 0.67419 0.0
H528 H 0.44531 0.24425 0.73978 0.0
H529 H 0.26692 0.16162 0.73594 0.0
C530 C 0.2786 0.13897 0.7686 0.0
C531 C 0.3164 0.13623 0.78555 0.0
C532 C 0.42347 0.23298 0.72545 0.0
C533 C 0.35138 0.18039 0.74655 0.0
C534 C 0.44653 0.24884 0.7061 0.0
C535 C 0.4202 0.23389 0.68716 0.0
C536 C 0.37337 0.20198 0.72606 0.0
C537 C 0.36905 0.20451 0.6884 0.0
C538 C 0.29613 0.16057 0.74899 0.0
C539 C 0.37092 0.15683 0.78241 0.0
N540 N 0.34737 0.18924 0.70753 0.0
N541 N 0.38661 0.17804 0.7634 0.0
H542 H 0.40989 0.90267 0.04549 0.0
H543 H 0.38841 0.84198 0.92185 0.0
H544 H 0.45691 0.74115 0.01948 0.0
H545 H 0.31336 0.98489 0.95338 0.0
H546 H 0.41391 0.80239 0.95651 0.0
H547 H 0.37502 0.93174 0.01121 0.0
C548 C 0.41266 0.87306 0.03252 0.0
C549 C 0.4365 0.81937 0.0354 0.0
C550 C 0.39145 0.84215 0.95577 0.0
C551 C 0.39669 0.85291 0.99561 0.0
C552 C 0.37688 0.86482 0.93601 0.0
C553 C 0.34903 0.91718 0.93463 0.0
C554 C 0.37835 0.87224 0.97425 0.0
C555 C 0.33509 0.9447 0.95353 0.0
C556 C 0.39252 0.88972 0.01287 0.0
C557 C 0.43854 0.78282 0.01797 0.0
N558 N 0.3502 0.92217 0.97242 0.0
N559 N 0.41939 0.80047 0.99871 0.0
H560 H 0.74896 0.86706 0.37473 0.0
H561 H 0.44765 0.75885 0.41109 0.0
H562 H 0.6164 0.98239 0.3924 0.0
H563 H 0.5966 0.65445 0.41066 0.0
H564 H 0.50672 0.84173 0.40455 0.0
H565 H 0.69176 0.78857 0.3873 0.0
C566 C 0.70791 0.87595 0.38133 0.0
C567 C 0.68754 0.93149 0.38245 0.0
C568 C 0.52635 0.80067 0.40619 0.0
C569 C 0.62132 0.84144 0.39679 0.0
C570 C 0.49267 0.75328 0.4101 0.0
C571 C 0.51698 0.6992 0.41135 0.0
C572 C 0.58454 0.7938 0.40331 0.0
C573 C 0.57568 0.69498 0.40954 0.0
C574 C 0.67525 0.83107 0.38859 0.0
C575 C 0.63393 0.94029 0.39126 0.0
N576 N 0.60717 0.74132 0.40541 0.0
N577 N 0.60246 0.89572 0.39791 0.0
H578 H 0.71528 0.26223 0.61581 0.0
H579 H 0.83109 0.98659 0.67592 0.0
H580 H 0.6073 0.15217 0.65194 0.0
H581 H 0.92672 0.08915 0.6323 0.0
H582 H 0.74986 0.04858 0.66989 0.0
H583 H 0.79509 0.20285 0.62516 0.0
C584 C 0.70832 0.22598 0.62592 0.0
C585 C 0.65418 0.21229 0.63297 0.0
C586 C 0.78884 0.05721 0.66171 0.0
C587 C 0.74595 0.14308 0.6436 0.0
C588 C 0.83533 0.02151 0.66502 0.0
C589 C 0.88656 0.03202 0.65462 0.0
C590 C 0.79365 0.10385 0.648 0.0
C591 C 0.88883 0.07894 0.64092 0.0
C592 C 0.75402 0.19173 0.63118 0.0
C593 C 0.64816 0.16444 0.64605 0.0
N594 N 0.84346 0.11274 0.63809 0.0
N595 N 0.69336 0.13141 0.65083 0.0
H596 H 0.60823 0.32195 0.92434 0.0
H597 H 0.34135 0.20966 0.86006 0.0
H598 H 0.50627 0.42241 0.88231 0.0
H599 H 0.44832 0.09697 0.89556 0.0
H600 H 0.40232 0.28771 0.86917 0.0
H601 H 0.55313 0.23819 0.9144 0.0
C602 C 0.57505 0.32633 0.91282 0.0
C603 C 0.56175 0.37954 0.90426 0.0
C604 C 0.4127 0.246 0.87503 0.0
C605 C 0.49814 0.28438 0.89313 0.0
C606 C 0.37753 0.20122 0.86989 0.0
C607 C 0.38939 0.14636 0.87705 0.0
C608 C 0.46044 0.2365 0.88755 0.0
C609 C 0.43736 0.1385 0.88969 0.0
C610 C 0.54331 0.27862 0.90728 0.0
C611 C 0.51775 0.38262 0.88958 0.0
N612 N 0.4711 0.18305 0.89456 0.0
N613 N 0.48762 0.3361 0.88463 0.0
H614 H 0.15918 0.02168 0.13051 0.0
H615 H 0.48315 0.94611 0.14938 0.0
H616 H 0.25778 0.10629 0.17771 0.0
H617 H 0.37176 0.85643 0.10769 0.0
H618 H 0.40565 1.0105 0.15843 0.0
H619 H 0.24158 0.96853 0.11968 0.0
C620 C 0.19858 0.02952 0.13846 0.0
C621 C 0.20154 0.06828 0.1551 0.0
C622 C 0.39839 0.97669 0.14731 0.0
C623 C 0.29665 1.0063 0.14301 0.0
C624 C 0.44252 0.93979 0.14217 0.0
C625 C 0.43405 0.8954 0.12781 0.0
C626 C 0.34558 0.96936 0.13792 0.0
C627 C 0.3805 0.88958 0.11893 0.0
C628 C 0.24571 0.9989 0.13232 0.0
C629 C 0.25382 0.07701 0.16472 0.0
N630 N 0.33863 0.926 0.12411 0.0
N631 N 0.29937 0.04571 0.15868 0.0
H632 H 0.09252 0.94261 0.36972 0.0
H633 H 0.13691 0.60789 0.3709 0.0
H634 H 0.96093 0.82515 0.35438 0.0
H635 H 0.2515 0.72668 0.39895 0.0
H636 H 0.07923 0.68665 0.35852 0.0
H637 H 0.15778 0.86399 0.3736 0.0
C638 C 0.07748 0.90024 0.3668 0.0
C639 C 0.02085 0.89064 0.36186 0.0
C640 C 0.11725 0.69547 0.36721 0.0
C641 C 0.09581 0.79982 0.36656 0.0
C642 C 0.15047 0.65051 0.37427 0.0
C643 C 0.19921 0.66044 0.38619 0.0
C644 C 0.13285 0.75105 0.37193 0.0
C645 C 0.21431 0.71676 0.38995 0.0
C646 C 0.11487 0.85529 0.36912 0.0
C647 C 1.00414 0.83475 0.35809 0.0
N648 N 0.18115 0.75979 0.38294 0.0
N649 N 0.04132 0.79136 0.36076 0.0
H650 H 0.63961 0.58574 0.64122 0.0
H651 H 0.96435 0.64764 0.6203 0.0
H652 H 0.73708 0.48927 0.59629 0.0
H653 H 0.85479 0.75339 0.65764 0.0
H654 H 0.88385 0.58853 0.61119 0.0
H655 H 0.71999 0.64495 0.64763 0.0
C656 C 0.67788 0.57672 0.63259 0.0
C657 C 0.68078 0.53192 0.61806 0.0
C658 C 0.87743 0.62491 0.62123 0.0
C659 C 0.77458 0.60087 0.62561 0.0
C660 C 0.92335 0.65889 0.62643 0.0
C661 C 0.9166 0.70577 0.63985 0.0
C662 C 0.82427 0.63753 0.6296 0.0
C663 C 0.86233 0.71794 0.64725 0.0
C664 C 0.72408 0.61094 0.63634 0.0
C665 C 0.73243 0.52266 0.60776 0.0
N666 N 0.81858 0.68392 0.64215 0.0
N667 N 0.77727 0.55687 0.61173 0.0
H668 H 0.10426 0.25015 0.85246 0.0
H669 H 0.81581 0.35253 0.90487 0.0
H670 H 0.9834 0.13725 0.88067 0.0
H671 H 0.92328 0.46234 0.86841 0.0
H672 H 0.87395 0.27211 0.89414 0.0
H673 H 0.03602 0.32733 0.85575 0.0
C674 C 0.06314 0.24112 0.8589 0.0
C675 C 0.04993 0.18687 0.86639 0.0
C676 C 0.88445 0.31376 0.8883 0.0
C677 C 0.97193 0.27554 0.87067 0.0
C678 C 0.8511 0.35975 0.89441 0.0
C679 C 0.86467 0.41457 0.88772 0.0
C680 C 0.93211 0.32253 0.87553 0.0
C681 C 0.91117 0.42104 0.87414 0.0
C682 C 0.02425 0.28542 0.86095 0.0
C683 C 0.99597 0.17839 0.87491 0.0
N684 N 0.94342 0.37584 0.86871 0.0
N685 N 0.9594 0.22215 0.877 0.0
H686 H 0.44093 0.49165 0.13645 0.0
H687 H 0.12055 0.41275 0.11483 0.0
H688 H 0.32792 0.59812 0.10099 0.0
H689 H 0.22607 0.32438 0.15937 0.0
H690 H 0.20036 0.4707 0.10446 0.0
H691 H 0.3676 0.42072 0.13943 0.0
C692 C 0.40088 0.49987 0.12899 0.0
C693 C 0.39068 0.5514 0.11857 0.0
C694 C 0.20626 0.43829 0.11634 0.0
C695 C 0.30586 0.46982 0.12213 0.0
C696 C 0.16066 0.4049 0.1223 0.0
C697 C 0.1662 0.36371 0.13824 0.0
C698 C 0.2582 0.43064 0.12629 0.0
C699 C 0.21956 0.35558 0.1471 0.0
C700 C 0.35893 0.45922 0.13076 0.0
C701 C 0.33804 0.55909 0.10905 0.0
N702 N 0.26328 0.38904 0.14113 0.0
N703 N 0.29741 0.51902 0.11127 0.0
H704 H 0.43239 0.46407 0.57417 0.0
H705 H 0.31185 0.51842 0.47912 0.0
H706 H 0.50132 0.32282 0.54009 0.0
H707 H 0.45519 0.43875 0.45018 0.0
H708 H 0.35778 0.51063 0.51339 0.0
H709 H 0.42175 0.51568 0.54093 0.0
C710 C 0.44731 0.44482 0.55969 0.0
C711 C 0.46782 0.3892 0.55979 0.0
C712 C 0.38061 0.49724 0.49948 0.0
C713 C 0.45299 0.44666 0.52165 0.0
C714 C 0.35443 0.50244 0.47982 0.0
C715 C 0.38016 0.48009 0.4618 0.0
C716 C 0.43227 0.4683 0.50108 0.0
C717 C 0.43414 0.45673 0.46377 0.0
C718 C 0.44029 0.47391 0.54071 0.0
C719 C 0.48599 0.36586 0.54068 0.0
N720 N 0.45777 0.45005 0.48311 0.0
N721 N 0.47723 0.39438 0.52228 0.0
H722 H 0.25174 1.00782 0.79502 0.0
H723 H 0.06321 0.81985 0.72844 0.0
H724 H 0.10211 0.93664 0.82221 0.0
H725 H 0.14952 0.96001 0.69984 0.0
H726 H 0.06874 0.86734 0.76267 0.0
H727 H 0.20982 0.99988 0.76 0.0
C728 C 0.20873 0.99389 0.79375 0.0
C729 C 0.17977 0.97446 0.81158 0.0
C730 C 0.08469 0.88872 0.74878 0.0
C731 C 0.13326 0.96045 0.77145 0.0
C732 C 0.08055 0.86194 0.72917 0.0
C733 C 0.10486 0.88657 0.71127 0.0
C734 C 0.11508 0.93939 0.7505 0.0
C735 C 0.13008 0.93977 0.71334 0.0
C736 C 0.18513 0.98803 0.77368 0.0
C737 C 0.12555 0.95263 0.80882 0.0
N738 N 0.1357 0.96383 0.73265 0.0
N739 N 0.10459 0.94485 0.78912 0.0
H740 H 0.5726 0.76086 0.0483 0.0
H741 H 0.68375 0.54237 0.96249 0.0
H742 H 0.62764 0.5965 0.06902 0.0
H743 H 0.72358 0.71968 0.96648 0.0
H744 H 0.63447 0.55008 0.99675 0.0
H745 H 0.5893 0.7325 0.01182 0.0
C746 C 0.58489 0.71767 0.04511 0.0
C747 C 0.59807 0.68077 0.06165 0.0
C748 C 0.65408 0.58697 0.98986 0.0
C749 C 0.62055 0.64912 0.02008 0.0
C750 C 0.68321 0.58235 0.97055 0.0
C751 C 0.70873 0.63011 0.96153 0.0
C752 C 0.64913 0.64005 0.99961 0.0
C753 C 0.70438 0.68151 0.97249 0.0
C754 C 0.59568 0.70184 0.02431 0.0
C755 C 0.61686 0.62605 0.0566 0.0
N756 N 0.67493 0.68512 0.99068 0.0
N757 N 0.62878 0.61209 0.03623 0.0
H758 H 0.03031 0.19366 0.21496 0.0
H759 H 0.80443 0.08013 0.29778 0.0
H760 H 0.85104 0.21791 0.21187 0.0
H761 H 0.96417 0.14104 0.31949 0.0
H762 H 0.83491 0.09568 0.2614 0.0
H763 H 0.01813 0.14834 0.24974 0.0
C764 C 0.98887 0.19082 0.22163 0.0
C765 C 0.94205 0.21118 0.21051 0.0
C766 C 0.86406 0.10385 0.27411 0.0
C767 C 0.92737 0.15546 0.24928 0.0
C768 C 0.84707 0.09372 0.29485 0.0
C769 C 0.88209 0.10863 0.31159 0.0
C770 C 0.91614 0.12962 0.27015 0.0
C771 C 0.9361 0.12891 0.3069 0.0
C772 C 0.98179 0.1637 0.24123 0.0
C773 C 0.88874 0.20305 0.21961 0.0
N774 N 0.95129 0.13982 0.28657 0.0
N775 N 0.88296 0.17572 0.23824 0.0
loop_
_geom_bond_atom_site_label_1
_geom_bond_atom_site_label_2
_geom_bond_distance
_geom_bond_site_symmetry_2
_ccdc_geom_bond_type
Zn0 N4 2.020 . S
Zn0 O8 2.019 . S
Zn0 N10 2.119 . S
Zn0 O18 1.975 . S
C1 N2 1.334 . S
C1 N5 1.336 . S
N2 C1 1.334 . S
N2 C3 1.334 . S
C3 N2 1.334 . S
C3 N4 1.336 . S
N4 Zn0 2.020 . S
N4 C3 1.336 . S
N4 N5 1.354 . S
N5 C1 1.336 . S
N5 N4 1.354 . S
N5 Zn9 2.020 . S
C6 O7 1.244 . S
C6 O30 1.257 . S
O7 C6 1.244 . S
O8 Zn0 2.019 . S
O8 C28 1.257 . S
Zn9 N5 2.020 . S
Zn9 O16 1.975 . S
Zn9 N25 2.119 . S
Zn9 O30 2.019 . S
N10 Zn0 2.119 . S
N10 C12 1.334 . S
N10 C13 1.328 . S
C11 C12 1.391 . S
C11 N14 1.329 . S
C11 H32 0.930 . S
C12 N10 1.334 . S
C12 C11 1.391 . S
C12 H19 0.930 . S
C13 N10 1.328 . S
C13 C15 1.392 . S
C13 H20 0.930 . S
N14 C11 1.329 . S
N14 C15 1.331 . S
C15 C13 1.392 . S
C15 N14 1.331 . S
O16 Zn9 1.975 . S
O16 C17 1.252 . S
C17 O16 1.252 . S
C17 O18 1.252 . S
O18 Zn0 1.975 . S
O18 C17 1.252 . S
H19 C12 0.930 . S
H20 C13 0.930 . S
C21 C22 1.392 . S
C21 N25 1.328 . S
C21 H27 0.930 . S
C22 C21 1.392 . S
C22 N26 1.331 . S
C23 C24 1.391 . S
C23 N26 1.329 . S
C23 H33 0.930 . S
C24 C23 1.391 . S
C24 N25 1.334 . S
C24 H31 0.930 . S
N25 Zn9 2.119 . S
N25 C21 1.328 . S
N25 C24 1.334 . S
N26 C22 1.331 . S
N26 C23 1.329 . S
H27 C21 0.930 . S
C28 O8 1.257 . S
C28 O29 1.244 . S
O29 C28 1.244 . S
O30 C6 1.257 . S
O30 Zn9 2.019 . S
H31 C24 0.930 . S
H32 C11 0.930 . S
H33 C23 0.930 . S
Zn34 N38 2.020 1_655 S
Zn34 O42 2.019 . S
Zn34 N44 2.119 . S
Zn34 O52 1.975 . S
C35 N36 1.334 . S
C35 N39 1.336 . S
N36 C35 1.334 . S
N36 C37 1.334 . S
C37 N36 1.334 . S
C37 N38 1.336 . S
N38 Zn34 2.020 1_455 S
N38 C37 1.336 . S
N38 N39 1.354 . S
N39 C35 1.336 . S
N39 N38 1.354 . S
N39 Zn43 2.020 . S
C40 O41 1.244 . S
C40 O64 1.257 . S
O41 C40 1.244 . S
O42 Zn34 2.019 . S
O42 C62 1.257 . S
Zn43 N39 2.020 . S
Zn43 O50 1.975 1_455 S
Zn43 N59 2.119 . S
Zn43 O64 2.019 . S
N44 Zn34 2.119 . S
N44 C46 1.334 . S
N44 C47 1.328 . S
C45 C46 1.391 . S
C45 N48 1.329 . S
C45 H66 0.930 . S
C46 N44 1.334 . S
C46 C45 1.391 . S
C46 H53 0.930 . S
C47 N44 1.328 . S
C47 C49 1.392 . S
C47 H54 0.930 . S
N48 C45 1.329 . S
N48 C49 1.331 . S
C49 C47 1.392 . S
C49 N48 1.331 . S
O50 Zn43 1.975 1_655 S
O50 C51 1.252 . S
C51 O50 1.252 . S
C51 O52 1.252 . S
O52 Zn34 1.975 . S
O52 C51 1.252 . S
H53 C46 0.930 . S
H54 C47 0.930 . S
C55 C56 1.392 . S
C55 N59 1.328 . S
C55 H61 0.930 . S
C56 C55 1.392 . S
C56 N60 1.331 . S
C57 C58 1.391 . S
C57 N60 1.329 . S
C57 H67 0.930 . S
C58 C57 1.391 . S
C58 N59 1.334 . S
C58 H65 0.930 . S
N59 Zn43 2.119 . S
N59 C55 1.328 . S
N59 C58 1.334 . S
N60 C56 1.331 . S
N60 C57 1.329 . S
H61 C55 0.930 . S
C62 O42 1.257 . S
C62 O63 1.244 . S
O63 C62 1.244 . S
O64 C40 1.257 . S
O64 Zn43 2.019 . S
H65 C58 0.930 . S
H66 C45 0.930 . S
H67 C57 0.930 . S
Zn68 N72 2.020 . S
Zn68 O76 2.019 . S
Zn68 N78 2.119 . S
Zn68 O86 1.975 . S
C69 N70 1.334 . S
C69 N73 1.336 . S
N70 C69 1.334 . S
N70 C71 1.334 . S
C71 N70 1.334 . S
C71 N72 1.336 . S
N72 Zn68 2.020 . S
N72 C71 1.336 . S
N72 N73 1.354 . S
N73 C69 1.336 . S
N73 N72 1.354 . S
N73 Zn77 2.020 . S
C74 O75 1.244 . S
C74 O98 1.257 . S
O75 C74 1.244 . S
O76 Zn68 2.019 . S
O76 C96 1.257 . S
Zn77 N73 2.020 . S
Zn77 O84 1.975 . S
Zn77 N93 2.119 . S
Zn77 O98 2.019 . S
N78 Zn68 2.119 . S
N78 C80 1.334 . S
N78 C81 1.328 . S
C79 C80 1.391 . S
C79 N82 1.329 . S
C79 H100 0.930 . S
C80 N78 1.334 . S
C80 C79 1.391 . S
C80 H87 0.930 . S
C81 N78 1.328 . S
C81 C83 1.392 . S
C81 H88 0.930 . S
N82 C79 1.329 . S
N82 C83 1.331 . S
C83 C81 1.392 . S
C83 N82 1.331 . S
O84 Zn77 1.975 . S
O84 C85 1.252 . S
C85 O84 1.252 . S
C85 O86 1.252 . S
O86 Zn68 1.975 . S
O86 C85 1.252 . S
H87 C80 0.930 . S
H88 C81 0.930 . S
C89 C90 1.392 . S
C89 N93 1.328 . S
C89 H95 0.930 . S
C90 C89 1.392 . S
C90 N94 1.331 . S
C91 C92 1.391 . S
C91 N94 1.329 . S
C91 H101 0.930 . S
C92 C91 1.391 . S
C92 N93 1.334 . S
C92 H99 0.930 . S
N93 Zn77 2.119 . S
N93 C89 1.328 . S
N93 C92 1.334 . S
N94 C90 1.331 . S
N94 C91 1.329 . S
H95 C89 0.930 . S
C96 O76 1.257 . S
C96 O97 1.244 . S
O97 C96 1.244 . S
O98 C74 1.257 . S
O98 Zn77 2.019 . S
H99 C92 0.930 . S
H100 C79 0.930 . S
H101 C91 0.930 . S
Zn102 N106 2.020 1_455 S
Zn102 O110 2.019 . S
Zn102 N112 2.119 . S
Zn102 O120 1.975 . S
C103 N104 1.334 . S
C103 N107 1.336 . S
N104 C103 1.334 . S
N104 C105 1.334 . S
C105 N104 1.334 . S
C105 N106 1.336 . S
N106 Zn102 2.020 1_655 S
N106 C105 1.336 . S
N106 N107 1.354 . S
N107 C103 1.336 . S
N107 N106 1.354 . S
N107 Zn111 2.020 . S
C108 O109 1.244 . S
C108 O132 1.257 . S
O109 C108 1.244 . S
O110 Zn102 2.019 . S
O110 C130 1.257 . S
Zn111 N107 2.020 . S
Zn111 O118 1.975 1_655 S
Zn111 N127 2.119 . S
Zn111 O132 2.019 . S
N112 Zn102 2.119 . S
N112 C114 1.334 . S
N112 C115 1.328 . S
C113 C114 1.391 . S
C113 N116 1.329 . S
C113 H134 0.930 . S
C114 N112 1.334 . S
C114 C113 1.391 . S
C114 H121 0.930 . S
C115 N112 1.328 . S
C115 C117 1.392 . S
C115 H122 0.930 . S
N116 C113 1.329 . S
N116 C117 1.331 . S
C117 C115 1.392 . S
C117 N116 1.331 . S
O118 Zn111 1.975 1_455 S
O118 C119 1.252 . S
C119 O118 1.252 . S
C119 O120 1.252 . S
O120 Zn102 1.975 . S
O120 C119 1.252 . S
H121 C114 0.930 . S
H122 C115 0.930 . S
C123 C124 1.392 . S
C123 N127 1.328 . S
C123 H129 0.930 . S
C124 C123 1.392 . S
C124 N128 1.331 . S
C125 C126 1.391 . S
C125 N128 1.329 . S
C125 H135 0.930 . S
C126 C125 1.391 . S
C126 N127 1.334 . S
C126 H133 0.930 . S
N127 Zn111 2.119 . S
N127 C123 1.328 . S
N127 C126 1.334 . S
N128 C124 1.331 . S
N128 C125 1.329 . S
H129 C123 0.930 . S
C130 O110 1.257 . S
C130 O131 1.244 . S
O131 C130 1.244 . S
O132 C108 1.257 . S
O132 Zn111 2.019 . S
H133 C126 0.930 . S
H134 C113 0.930 . S
H135 C125 0.930 . S
Zn136 N140 2.020 1_565 S
Zn136 O144 2.019 . S
Zn136 N146 2.119 . S
Zn136 O154 1.975 . S
C137 N138 1.334 . S
C137 N141 1.336 . S
N138 C137 1.334 . S
N138 C139 1.334 . S
C139 N138 1.334 . S
C139 N140 1.336 . S
N140 Zn136 2.020 1_545 S
N140 C139 1.336 . S
N140 N141 1.354 . S
N141 C137 1.336 . S
N141 N140 1.354 . S
N141 Zn145 2.020 . S
C142 O143 1.244 . S
C142 O166 1.257 . S
O143 C142 1.244 . S
O144 Zn136 2.019 . S
O144 C164 1.257 . S
Zn145 N141 2.020 . S
Zn145 O152 1.975 1_545 S
Zn145 N161 2.119 . S
Zn145 O166 2.019 . S
N146 Zn136 2.119 . S
N146 C148 1.334 . S
N146 C149 1.328 . S
C147 C148 1.391 . S
C147 N150 1.329 . S
C147 H168 0.930 . S
C148 N146 1.334 . S
C148 C147 1.391 . S
C148 H155 0.930 . S
C149 N146 1.328 . S
C149 C151 1.392 . S
C149 H156 0.930 . S
N150 C147 1.329 . S
N150 C151 1.331 . S
C151 C149 1.392 . S
C151 N150 1.331 . S
O152 Zn145 1.975 1_565 S
O152 C153 1.252 . S
C153 O152 1.252 . S
C153 O154 1.252 . S
O154 Zn136 1.975 . S
O154 C153 1.252 . S
H155 C148 0.930 . S
H156 C149 0.930 . S
C157 C158 1.392 . S
C157 N161 1.328 . S
C157 H163 0.930 . S
C158 C157 1.392 . S
C158 N162 1.331 . S
C159 C160 1.391 . S
C159 N162 1.329 . S
C159 H169 0.930 . S
C160 C159 1.391 . S
C160 N161 1.334 . S
C160 H167 0.930 . S
N161 Zn145 2.119 . S
N161 C157 1.328 . S
N161 C160 1.334 . S
N162 C158 1.331 . S
N162 C159 1.329 . S
H163 C157 0.930 . S
C164 O144 1.257 . S
C164 O165 1.244 . S
O165 C164 1.244 . S
O166 C142 1.257 . S
O166 Zn145 2.019 . S
H167 C160 0.930 . S
H168 C147 0.930 . S
H169 C159 0.930 . S
Zn170 N174 2.020 . S
Zn170 O178 2.019 . S
Zn170 N180 2.119 . S
Zn170 O188 1.975 . S
C171 N172 1.334 . S
C171 N175 1.336 . S
N172 C171 1.334 . S
N172 C173 1.334 . S
C173 N172 1.334 . S
C173 N174 1.336 . S
N174 Zn170 2.020 . S
N174 C173 1.336 . S
N174 N175 1.354 . S
N175 C171 1.336 . S
N175 N174 1.354 . S
N175 Zn179 2.020 . S
C176 O177 1.244 . S
C176 O200 1.257 . S
O177 C176 1.244 . S
O178 Zn170 2.019 . S
O178 C198 1.257 . S
Zn179 N175 2.020 . S
Zn179 O186 1.975 . S
Zn179 N195 2.119 . S
Zn179 O200 2.019 . S
N180 Zn170 2.119 . S
N180 C182 1.334 . S
N180 C183 1.328 . S
C181 C182 1.391 . S
C181 N184 1.329 . S
C181 H202 0.930 . S
C182 N180 1.334 . S
C182 C181 1.391 . S
C182 H189 0.930 . S
C183 N180 1.328 . S
C183 C185 1.392 . S
C183 H190 0.930 . S
N184 C181 1.329 . S
N184 C185 1.331 . S
C185 C183 1.392 . S
C185 N184 1.331 . S
O186 Zn179 1.975 . S
O186 C187 1.252 . S
C187 O186 1.252 . S
C187 O188 1.252 . S
O188 Zn170 1.975 . S
O188 C187 1.252 . S
H189 C182 0.930 . S
H190 C183 0.930 . S
C191 C192 1.392 . S
C191 N195 1.328 . S
C191 H197 0.930 . S
C192 C191 1.392 . S
C192 N196 1.331 . S
C193 C194 1.391 . S
C193 N196 1.329 . S
C193 H203 0.930 . S
C194 C193 1.391 . S
C194 N195 1.334 . S
C194 H201 0.930 . S
N195 Zn179 2.119 . S
N195 C191 1.328 . S
N195 C194 1.334 . S
N196 C192 1.331 . S
N196 C193 1.329 . S
H197 C191 0.930 . S
C198 O178 1.257 . S
C198 O199 1.244 . S
O199 C198 1.244 . S
O200 C176 1.257 . S
O200 Zn179 2.019 . S
H201 C194 0.930 . S
H202 C181 0.930 . S
H203 C193 0.930 . S
Zn204 N208 2.020 1_545 S
Zn204 O212 2.019 . S
Zn204 N214 2.119 . S
Zn204 O222 1.975 . S
C205 N206 1.334 . S
C205 N209 1.336 . S
N206 C205 1.334 . S
N206 C207 1.334 . S
C207 N206 1.334 . S
C207 N208 1.336 . S
N208 Zn204 2.020 1_565 S
N208 C207 1.336 . S
N208 N209 1.354 . S
N209 C205 1.336 . S
N209 N208 1.354 . S
N209 Zn213 2.020 . S
C210 O211 1.244 . S
C210 O234 1.257 . S
O211 C210 1.244 . S
O212 Zn204 2.019 . S
O212 C232 1.257 . S
Zn213 N209 2.020 . S
Zn213 O220 1.975 1_565 S
Zn213 N229 2.119 . S
Zn213 O234 2.019 . S
N214 Zn204 2.119 . S
N214 C216 1.334 . S
N214 C217 1.328 . S
C215 C216 1.391 . S
C215 N218 1.329 . S
C215 H236 0.930 . S
C216 N214 1.334 . S
C216 C215 1.391 . S
C216 H223 0.930 . S
C217 N214 1.328 . S
C217 C219 1.392 . S
C217 H224 0.930 . S
N218 C215 1.329 . S
N218 C219 1.331 . S
C219 C217 1.392 . S
C219 N218 1.331 . S
O220 Zn213 1.975 1_545 S
O220 C221 1.252 . S
C221 O220 1.252 . S
C221 O222 1.252 . S
O222 Zn204 1.975 . S
O222 C221 1.252 . S
H223 C216 0.930 . S
H224 C217 0.930 . S
C225 C226 1.392 . S
C225 N229 1.328 . S
C225 H231 0.930 . S
C226 C225 1.392 . S
C226 N230 1.331 . S
C227 C228 1.391 . S
C227 N230 1.329 . S
C227 H237 0.930 . S
C228 C227 1.391 . S
C228 N229 1.334 . S
C228 H235 0.930 . S
N229 Zn213 2.119 . S
N229 C225 1.328 . S
N229 C228 1.334 . S
N230 C226 1.331 . S
N230 C227 1.329 . S
H231 C225 0.930 . S
C232 O212 1.257 . S
C232 O233 1.244 . S
O233 C232 1.244 . S
O234 C210 1.257 . S
O234 Zn213 2.019 . S
H235 C228 0.930 . S
H236 C215 0.930 . S
H237 C227 0.930 . S
Zn238 N242 2.020 . S
Zn238 O246 2.019 . S
Zn238 N248 2.119 . S
Zn238 O256 1.975 . S
C239 N240 1.334 . S
C239 N243 1.336 . S
N240 C239 1.334 . S
N240 C241 1.334 . S
C241 N240 1.334 . S
C241 N242 1.336 . S
N242 Zn238 2.020 . S
N242 C241 1.336 . S
N242 N243 1.354 . S
N243 C239 1.336 . S
N243 N242 1.354 . S
N243 Zn247 2.020 . S
C244 O245 1.244 . S
C244 O268 1.257 . S
O245 C244 1.244 . S
O246 Zn238 2.019 . S
O246 C266 1.257 . S
Zn247 N243 2.020 . S
Zn247 O254 1.975 . S
Zn247 N263 2.119 . S
Zn247 O268 2.019 . S
N248 Zn238 2.119 . S
N248 C250 1.334 . S
N248 C251 1.328 . S
C249 C250 1.391 . S
C249 N252 1.329 . S
C249 H270 0.930 . S
C250 N248 1.334 . S
C250 C249 1.391 . S
C250 H257 0.930 . S
C251 N248 1.328 . S
C251 C253 1.392 . S
C251 H258 0.930 . S
N252 C249 1.329 . S
N252 C253 1.331 . S
C253 C251 1.392 . S
C253 N252 1.331 . S
O254 Zn247 1.975 . S
O254 C255 1.252 . S
C255 O254 1.252 . S
C255 O256 1.252 . S
O256 Zn238 1.975 . S
O256 C255 1.252 . S
H257 C250 0.930 . S
H258 C251 0.930 . S
C259 C260 1.392 . S
C259 N263 1.328 . S
C259 H265 0.930 . S
C260 C259 1.392 . S
C260 N264 1.331 . S
C261 C262 1.391 . S
C261 N264 1.329 . S
C261 H271 0.930 . S
C262 C261 1.391 . S
C262 N263 1.334 . S
C262 H269 0.930 . S
N263 Zn247 2.119 . S
N263 C259 1.328 . S
N263 C262 1.334 . S
N264 C260 1.331 . S
N264 C261 1.329 . S
H265 C259 0.930 . S
C266 O246 1.257 . S
C266 O267 1.244 . S
O267 C266 1.244 . S
O268 C244 1.257 . S
O268 Zn247 2.019 . S
H269 C262 0.930 . S
H270 C249 0.930 . S
H271 C261 0.930 . S
H272 C278 0.930 . S
H273 C282 0.930 . S
H274 C287 0.929 . S
H275 C285 0.929 . S
H276 C280 0.929 . S
H277 C286 0.929 . S
C278 H272 0.930 . S
C278 C279 1.367 . S
C278 C286 1.378 . S
C279 C278 1.367 . S
C279 C287 1.433 . S
C280 H276 0.929 . S
C280 C282 1.378 . S
C280 C284 1.350 . S
C281 C284 1.463 . S
C281 C286 1.350 . S
C281 N289 1.427 . S
C282 H273 0.930 . S
C282 C280 1.378 . S
C282 C283 1.367 . S
C283 C282 1.367 . S
C283 C285 1.433 . S
C284 C280 1.350 . S
C284 C281 1.463 . S
C284 N288 1.427 . S
C285 H275 0.929 . S
C285 C283 1.433 . S
C285 N288 1.384 . S
C286 H277 0.929 . S
C286 C278 1.378 . S
C286 C281 1.350 . S
C287 H274 0.929 . S
C287 C279 1.433 . S
C287 N289 1.384 . S
N288 C284 1.427 . S
N288 C285 1.384 . S
N289 C281 1.427 . S
N289 C287 1.384 . S
H290 C296 0.930 . S
H291 C300 0.930 . S
H292 C305 0.929 . S
H293 C303 0.929 . S
H294 C298 0.929 . S
H295 C304 0.929 . S
C296 H290 0.930 . S
C296 C297 1.367 . S
C296 C304 1.378 . S
C297 C296 1.367 . S
C297 C305 1.433 1_545 S
C298 H294 0.929 . S
C298 C300 1.378 . S
C298 C302 1.350 . S
C299 C302 1.463 . S
C299 C304 1.350 1_565 S
C299 N307 1.427 . S
C300 H291 0.930 . S
C300 C298 1.378 . S
C300 C301 1.367 . S
C301 C300 1.367 . S
C301 C303 1.433 . S
C302 C298 1.350 . S
C302 C299 1.463 . S
C302 N306 1.427 . S
C303 H293 0.929 . S
C303 C301 1.433 . S
C303 N306 1.384 . S
C304 H295 0.929 . S
C304 C296 1.378 . S
C304 C299 1.350 1_545 S
C305 H292 0.929 . S
C305 C297 1.433 1_565 S
C305 N307 1.384 . S
N306 C302 1.427 . S
N306 C303 1.384 . S
N307 C299 1.427 . S
N307 C305 1.384 . S
H308 C314 0.930 . S
H309 C318 0.930 . S
H310 C323 0.929 . S
H311 C321 0.929 . S
H312 C316 0.929 . S
H313 C322 0.929 . S
C314 H308 0.930 . S
C314 C315 1.367 . S
C314 C322 1.378 . S
C315 C314 1.367 . S
C315 C323 1.433 . S
C316 H312 0.929 . S
C316 C318 1.378 . S
C316 C320 1.350 . S
C317 C320 1.463 . S
C317 C322 1.350 . S
C317 N325 1.427 . S
C318 H309 0.930 . S
C318 C316 1.378 . S
C318 C319 1.367 . S
C319 C318 1.367 . S
C319 C321 1.433 . S
C320 C316 1.350 . S
C320 C317 1.463 . S
C320 N324 1.427 . S
C321 H311 0.929 . S
C321 C319 1.433 . S
C321 N324 1.384 . S
C322 H313 0.929 . S
C322 C314 1.378 . S
C322 C317 1.350 . S
C323 H310 0.929 . S
C323 C315 1.433 . S
C323 N325 1.384 . S
N324 C320 1.427 . S
N324 C321 1.384 . S
N325 C317 1.427 . S
N325 C323 1.384 . S
H326 C332 0.930 . S
H327 C336 0.930 . S
H328 C341 0.929 . S
H329 C339 0.929 . S
H330 C334 0.929 . S
H331 C340 0.929 . S
C332 H326 0.930 . S
C332 C333 1.367 . S
C332 C340 1.378 . S
C333 C332 1.367 . S
C333 C341 1.433 . S
C334 H330 0.929 . S
C334 C336 1.378 1_545 S
C334 C338 1.350 . S
C335 C338 1.463 . S
C335 C340 1.350 . S
C335 N343 1.427 . S
C336 H327 0.930 . S
C336 C334 1.378 1_565 S
C336 C337 1.367 1_565 S
C337 C336 1.367 1_545 S
C337 C339 1.433 . S
C338 C334 1.350 . S
C338 C335 1.463 . S
C338 N342 1.427 . S
C339 H329 0.929 . S
C339 C337 1.433 . S
C339 N342 1.384 . S
C340 H331 0.929 . S
C340 C332 1.378 . S
C340 C335 1.350 . S
C341 H328 0.929 . S
C341 C333 1.433 . S
C341 N343 1.384 . S
N342 C338 1.427 . S
N342 C339 1.384 . S
N343 C335 1.427 . S
N343 C341 1.384 . S
H344 C350 0.930 . S
H345 C354 0.930 . S
H346 C359 0.929 . S
H347 C357 0.929 . S
H348 C352 0.929 . S
H349 C358 0.929 . S
C350 H344 0.930 . S
C350 C351 1.367 . S
C350 C358 1.378 . S
C351 C350 1.367 . S
C351 C359 1.433 1_455 S
C352 H348 0.929 . S
C352 C354 1.378 . S
C352 C356 1.350 . S
C353 C356 1.463 . S
C353 C358 1.350 1_655 S
C353 N361 1.427 . S
C354 H345 0.930 . S
C354 C352 1.378 . S
C354 C355 1.367 . S
C355 C354 1.367 . S
C355 C357 1.433 . S
C356 C352 1.350 . S
C356 C353 1.463 . S
C356 N360 1.427 . S
C357 H347 0.929 . S
C357 C355 1.433 . S
C357 N360 1.384 . S
C358 H349 0.929 . S
C358 C350 1.378 . S
C358 C353 1.350 1_455 S
C359 H346 0.929 . S
C359 C351 1.433 1_655 S
C359 N361 1.384 . S
N360 C356 1.427 . S
N360 C357 1.384 . S
N361 C353 1.427 . S
N361 C359 1.384 . S
H362 C368 0.930 . S
H363 C372 0.930 . S
H364 C377 0.929 . S
H365 C375 0.929 . S
H366 C370 0.929 . S
H367 C376 0.929 . S
C368 H362 0.930 . S
C368 C369 1.367 . S
C368 C376 1.378 . S
C369 C368 1.367 . S
C369 C377 1.433 . S
C370 H366 0.929 . S
C370 C372 1.378 . S
C370 C374 1.350 . S
C371 C374 1.463 . S
C371 C376 1.350 . S
C371 N379 1.427 . S
C372 H363 0.930 . S
C372 C370 1.378 . S
C372 C373 1.367 . S
C373 C372 1.367 . S
C373 C375 1.433 . S
C374 C370 1.350 . S
C374 C371 1.463 . S
C374 N378 1.427 . S
C375 H365 0.929 . S
C375 C373 1.433 . S
C375 N378 1.384 . S
C376 H367 0.929 . S
C376 C368 1.378 . S
C376 C371 1.350 . S
C377 H364 0.929 . S
C377 C369 1.433 . S
C377 N379 1.384 . S
N378 C374 1.427 . S
N378 C375 1.384 . S
N379 C371 1.427 . S
N379 C377 1.384 . S
H380 C386 0.930 . S
H381 C390 0.930 1_655 S
H382 C395 0.929 . S
H383 C393 0.929 . S
H384 C388 0.929 . S
H385 C394 0.929 . S
C386 H380 0.930 . S
C386 C387 1.367 . S
C386 C394 1.378 . S
C387 C386 1.367 . S
C387 C395 1.433 . S
C388 H384 0.929 . S
C388 C390 1.378 . S
C388 C392 1.350 . S
C389 C392 1.463 . S
C389 C394 1.350 . S
C389 N397 1.427 . S
C390 H381 0.930 1_455 S
C390 C388 1.378 . S
C390 C391 1.367 . S
C391 C390 1.367 . S
C391 C393 1.433 . S
C392 C388 1.350 . S
C392 C389 1.463 . S
C392 N396 1.427 . S
C393 H383 0.929 . S
C393 C391 1.433 . S
C393 N396 1.384 . S
C394 H385 0.929 . S
C394 C386 1.378 . S
C394 C389 1.350 . S
C395 H382 0.929 . S
C395 C387 1.433 . S
C395 N397 1.384 . S
N396 C392 1.427 . S
N396 C393 1.384 . S
N397 C389 1.427 . S
N397 C395 1.384 . S
H398 C404 0.930 . S
H399 C408 0.930 . S
H400 C413 0.929 . S
H401 C411 0.929 . S
H402 C406 0.929 . S
H403 C412 0.929 . S
C404 H398 0.930 . S
C404 C405 1.367 . S
C404 C412 1.378 . S
C405 C404 1.367 . S
C405 C413 1.433 . S
C406 H402 0.929 . S
C406 C408 1.378 . S
C406 C410 1.350 . S
C407 C410 1.463 . S
C407 C412 1.350 . S
C407 N415 1.427 . S
C408 H399 0.930 . S
C408 C406 1.378 . S
C408 C409 1.367 . S
C409 C408 1.367 . S
C409 C411 1.433 . S
C410 C406 1.350 . S
C410 C407 1.463 . S
C410 N414 1.427 . S
C411 H401 0.929 . S
C411 C409 1.433 . S
C411 N414 1.384 . S
C412 H403 0.929 . S
C412 C404 1.378 . S
C412 C407 1.350 . S
C413 H400 0.929 . S
C413 C405 1.433 . S
C413 N415 1.384 . S
N414 C410 1.427 . S
N414 C411 1.384 . S
N415 C407 1.427 . S
N415 C413 1.384 . S
H416 C422 0.930 . S
H417 C426 0.930 . S
H418 C431 0.929 . S
H419 C429 0.929 . S
H420 C424 0.929 . S
H421 C430 0.929 . S
C422 H416 0.930 . S
C422 C423 1.367 . S
C422 C430 1.378 . S
C423 C422 1.367 . S
C423 C431 1.433 . S
C424 H420 0.929 . S
C424 C426 1.378 . S
C424 C428 1.350 . S
C425 C428 1.463 . S
C425 C430 1.350 . S
C425 N433 1.427 . S
C426 H417 0.930 . S
C426 C424 1.378 . S
C426 C427 1.367 . S
C427 C426 1.367 . S
C427 C429 1.433 . S
C428 C424 1.350 . S
C428 C425 1.463 . S
C428 N432 1.427 . S
C429 H419 0.929 . S
C429 C427 1.433 . S
C429 N432 1.384 . S
C430 H421 0.929 . S
C430 C422 1.378 . S
C430 C425 1.350 . S
C431 H418 0.929 . S
C431 C423 1.433 . S
C431 N433 1.384 . S
N432 C428 1.427 . S
N432 C429 1.384 . S
N433 C425 1.427 . S
N433 C431 1.384 . S
H434 C440 0.930 . S
H435 C444 0.930 . S
H436 C449 0.929 . S
H437 C447 0.929 . S
H438 C442 0.929 . S
H439 C448 0.929 . S
C440 H434 0.930 . S
C440 C441 1.367 . S
C440 C448 1.378 . S
C441 C440 1.367 . S
C441 C449 1.433 . S
C442 H438 0.929 . S
C442 C444 1.378 . S
C442 C446 1.350 . S
C443 C446 1.463 . S
C443 C448 1.350 . S
C443 N451 1.427 . S
C444 H435 0.930 . S
C444 C442 1.378 . S
C444 C445 1.367 . S
C445 C444 1.367 . S
C445 C447 1.433 . S
C446 C442 1.350 . S
C446 C443 1.463 . S
C446 N450 1.427 . S
C447 H437 0.929 . S
C447 C445 1.433 . S
C447 N450 1.384 . S
C448 H439 0.929 . S
C448 C440 1.378 . S
C448 C443 1.350 . S
C449 H436 0.929 . S
C449 C441 1.433 . S
C449 N451 1.384 . S
N450 C446 1.427 . S
N450 C447 1.384 . S
N451 C443 1.427 . S
N451 C449 1.384 . S
H452 C458 0.930 . S
H453 C462 0.930 . S
H454 C467 0.929 . S
H455 C465 0.929 . S
H456 C460 0.929 . S
H457 C466 0.929 . S
C458 H452 0.930 . S
C458 C459 1.367 . S
C458 C466 1.378 1_556 S
C459 C458 1.367 . S
C459 C467 1.433 . S
C460 H456 0.929 . S
C460 C462 1.378 . S
C460 C464 1.350 . S
C461 C464 1.463 . S
C461 C466 1.350 . S
C461 N469 1.427 . S
C462 H453 0.930 . S
C462 C460 1.378 . S
C462 C463 1.367 . S
C463 C462 1.367 . S
C463 C465 1.433 . S
C464 C460 1.350 . S
C464 C461 1.463 . S
C464 N468 1.427 . S
C465 H455 0.929 . S
C465 C463 1.433 . S
C465 N468 1.384 . S
C466 H457 0.929 . S
C466 C458 1.378 1_554 S
C466 C461 1.350 . S
C467 H454 0.929 . S
C467 C459 1.433 . S
C467 N469 1.384 1_556 S
N468 C464 1.427 . S
N468 C465 1.384 . S
N469 C461 1.427 . S
N469 C467 1.384 1_554 S
H470 C476 0.930 . S
H471 C480 0.930 . S
H472 C485 0.929 . S
H473 C483 0.929 . S
H474 C478 0.929 . S
H475 C484 0.929 . S
C476 H470 0.930 . S
C476 C477 1.367 . S
C476 C484 1.378 . S
C477 C476 1.367 . S
C477 C485 1.433 . S
C478 H474 0.929 . S
C478 C480 1.378 . S
C478 C482 1.350 . S
C479 C482 1.463 . S
C479 C484 1.350 . S
C479 N487 1.427 . S
C480 H471 0.930 . S
C480 C478 1.378 . S
C480 C481 1.367 . S
C481 C480 1.367 . S
C481 C483 1.433 . S
C482 C478 1.350 . S
C482 C479 1.463 . S
C482 N486 1.427 . S
C483 H473 0.929 . S
C483 C481 1.433 . S
C483 N486 1.384 . S
C484 H475 0.929 . S
C484 C476 1.378 . S
C484 C479 1.350 . S
C485 H472 0.929 . S
C485 C477 1.433 . S
C485 N487 1.384 . S
N486 C482 1.427 . S
N486 C483 1.384 . S
N487 C479 1.427 . S
N487 C485 1.384 . S
H488 C494 0.930 . S
H489 C498 0.930 . S
H490 C503 0.929 . S
H491 C501 0.929 . S
H492 C496 0.929 . S
H493 C502 0.929 . S
C494 H488 0.930 . S
C494 C495 1.367 . S
C494 C502 1.378 . S
C495 C494 1.367 . S
C495 C503 1.433 . S
C496 H492 0.929 . S
C496 C498 1.378 . S
C496 C500 1.350 . S
C497 C500 1.463 . S
C497 C502 1.350 . S
C497 N505 1.427 . S
C498 H489 0.930 . S
C498 C496 1.378 . S
C498 C499 1.367 . S
C499 C498 1.367 . S
C499 C501 1.433 . S
C500 C496 1.350 . S
C500 C497 1.463 . S
C500 N504 1.427 . S
C501 H491 0.929 . S
C501 C499 1.433 . S
C501 N504 1.384 . S
C502 H493 0.929 . S
C502 C494 1.378 . S
C502 C497 1.350 . S
C503 H490 0.929 . S
C503 C495 1.433 . S
C503 N505 1.384 . S
N504 C500 1.427 . S
N504 C501 1.384 . S
N505 C497 1.427 . S
N505 C503 1.384 . S
H506 C512 0.930 . S
H507 C516 0.930 . S
H508 C521 0.929 . S
H509 C519 0.929 . S
H510 C514 0.929 . S
H511 C520 0.929 . S
C512 H506 0.930 . S
C512 C513 1.367 . S
C512 C520 1.378 . S
C513 C512 1.367 . S
C513 C521 1.433 . S
C514 H510 0.929 . S
C514 C516 1.378 . S
C514 C518 1.350 . S
C515 C518 1.463 . S
C515 C520 1.350 . S
C515 N523 1.427 . S
C516 H507 0.930 . S
C516 C514 1.378 . S
C516 C517 1.367 . S
C517 C516 1.367 . S
C517 C519 1.433 . S
C518 C514 1.350 . S
C518 C515 1.463 . S
C518 N522 1.427 . S
C519 H509 0.929 . S
C519 C517 1.433 . S
C519 N522 1.384 . S
C520 H511 0.929 . S
C520 C512 1.378 . S
C520 C515 1.350 . S
C521 H508 0.929 . S
C521 C513 1.433 . S
C521 N523 1.384 . S
N522 C518 1.427 . S
N522 C519 1.384 . S
N523 C515 1.427 . S
N523 C521 1.384 . S
H524 C530 0.930 . S
H525 C534 0.930 . S
H526 C539 0.929 . S
H527 C537 0.929 . S
H528 C532 0.929 . S
H529 C538 0.929 . S
C530 H524 0.930 . S
C530 C531 1.367 . S
C530 C538 1.378 . S
C531 C530 1.367 . S
C531 C539 1.433 . S
C532 H528 0.929 . S
C532 C534 1.378 . S
C532 C536 1.350 . S
C533 C536 1.463 . S
C533 C538 1.350 . S
C533 N541 1.427 . S
C534 H525 0.930 . S
C534 C532 1.378 . S
C534 C535 1.367 . S
C535 C534 1.367 . S
C535 C537 1.433 . S
C536 C532 1.350 . S
C536 C533 1.463 . S
C536 N540 1.427 . S
C537 H527 0.929 . S
C537 C535 1.433 . S
C537 N540 1.384 . S
C538 H529 0.929 . S
C538 C530 1.378 . S
C538 C533 1.350 . S
C539 H526 0.929 . S
C539 C531 1.433 . S
C539 N541 1.384 . S
N540 C536 1.427 . S
N540 C537 1.384 . S
N541 C533 1.427 . S
N541 C539 1.384 . S
H542 C548 0.930 . S
H543 C552 0.930 . S
H544 C557 0.929 . S
H545 C555 0.929 . S
H546 C550 0.929 . S
H547 C556 0.929 . S
C548 H542 0.930 . S
C548 C549 1.367 . S
C548 C556 1.378 1_554 S
C549 C548 1.367 . S
C549 C557 1.433 . S
C550 H546 0.929 . S
C550 C552 1.378 . S
C550 C554 1.350 . S
C551 C554 1.463 . S
C551 C556 1.350 . S
C551 N559 1.427 . S
C552 H543 0.930 . S
C552 C550 1.378 . S
C552 C553 1.367 . S
C553 C552 1.367 . S
C553 C555 1.433 . S
C554 C550 1.350 . S
C554 C551 1.463 . S
C554 N558 1.427 . S
C555 H545 0.929 . S
C555 C553 1.433 . S
C555 N558 1.384 . S
C556 H547 0.929 . S
C556 C548 1.378 1_556 S
C556 C551 1.350 . S
C557 H544 0.929 . S
C557 C549 1.433 . S
C557 N559 1.384 1_554 S
N558 C554 1.427 . S
N558 C555 1.384 . S
N559 C551 1.427 . S
N559 C557 1.384 1_556 S
H560 C566 0.930 . S
H561 C570 0.930 . S
H562 C575 0.929 . S
H563 C573 0.929 . S
H564 C568 0.929 . S
H565 C574 0.929 . S
C566 H560 0.930 . S
C566 C567 1.367 . S
C566 C574 1.378 . S
C567 C566 1.367 . S
C567 C575 1.433 . S
C568 H564 0.929 . S
C568 C570 1.378 . S
C568 C572 1.350 . S
C569 C572 1.463 . S
C569 C574 1.350 . S
C569 N577 1.427 . S
C570 H561 0.930 . S
C570 C568 1.378 . S
C570 C571 1.367 . S
C571 C570 1.367 . S
C571 C573 1.433 . S
C572 C568 1.350 . S
C572 C569 1.463 . S
C572 N576 1.427 . S
C573 H563 0.929 . S
C573 C571 1.433 . S
C573 N576 1.384 . S
C574 H565 0.929 . S
C574 C566 1.378 . S
C574 C569 1.350 . S
C575 H562 0.929 . S
C575 C567 1.433 . S
C575 N577 1.384 . S
N576 C572 1.427 . S
N576 C573 1.384 . S
N577 C569 1.427 . S
N577 C575 1.384 . S
H578 C584 0.930 . S
H579 C588 0.930 . S
H580 C593 0.929 . S
H581 C591 0.929 . S
H582 C586 0.929 . S
H583 C592 0.940 . S
C584 H578 0.930 . S
C584 C585 1.367 . S
C584 C592 1.378 . S
C585 C584 1.367 . S
C585 C593 1.433 . S
C586 H582 0.929 . S
C586 C588 1.378 1_545 S
C586 C590 1.347 1_545 S
C587 C590 1.448 1_545 S
C587 C592 1.350 . S
C587 N595 1.427 . S
C588 H579 0.930 . S
C588 C586 1.378 1_565 S
C588 C589 1.367 . S
C589 C588 1.367 . S
C589 C591 1.433 . S
C590 C586 1.347 1_565 S
C590 C587 1.448 1_565 S
C590 N594 1.445 . S
C591 H581 0.929 . S
C591 C589 1.433 . S
C591 N594 1.384 . S
C592 H583 0.940 . S
C592 C584 1.378 . S
C592 C587 1.350 . S
C593 H580 0.929 . S
C593 C585 1.433 . S
C593 N595 1.384 . S
N594 C590 1.445 . S
N594 C591 1.384 . S
N595 C587 1.427 . S
N595 C593 1.384 . S
H596 C602 0.930 . S
H597 C606 0.930 . S
H598 C611 0.929 . S
H599 C609 0.929 . S
H600 C604 0.929 . S
H601 C610 0.929 . S
C602 H596 0.930 . S
C602 C603 1.367 . S
C602 C610 1.378 . S
C603 C602 1.367 . S
C603 C611 1.433 . S
C604 H600 0.929 . S
C604 C606 1.378 . S
C604 C608 1.350 . S
C605 C608 1.463 . S
C605 C610 1.350 . S
C605 N613 1.427 . S
C606 H597 0.930 . S
C606 C604 1.378 . S
C606 C607 1.367 . S
C607 C606 1.367 . S
C607 C609 1.433 . S
C608 C604 1.350 . S
C608 C605 1.463 . S
C608 N612 1.427 . S
C609 H599 0.929 . S
C609 C607 1.433 . S
C609 N612 1.384 . S
C610 H601 0.929 . S
C610 C602 1.378 . S
C610 C605 1.350 . S
C611 H598 0.929 . S
C611 C603 1.433 . S
C611 N613 1.384 . S
N612 C608 1.427 . S
N612 C609 1.384 . S
N613 C605 1.427 . S
N613 C611 1.384 . S
H614 C620 0.930 . S
H615 C624 0.930 . S
H616 C629 0.929 . S
H617 C627 0.929 . S
H618 C622 0.929 . S
H619 C628 0.929 . S
C620 H614 0.930 . S
C620 C621 1.367 . S
C620 C628 1.378 . S
C621 C620 1.367 . S
C621 C629 1.433 . S
C622 H618 0.929 . S
C622 C624 1.378 . S
C622 C626 1.350 . S
C623 C626 1.462 1_545 S
C623 C628 1.350 . S
C623 N631 1.427 . S
C624 H615 0.930 . S
C624 C622 1.378 . S
C624 C625 1.367 . S
C625 C624 1.367 . S
C625 C627 1.433 . S
C626 C622 1.350 . S
C626 C623 1.462 1_565 S
C626 N630 1.427 1_565 S
C627 H617 0.929 . S
C627 C625 1.433 . S
C627 N630 1.384 1_565 S
C628 H619 0.929 . S
C628 C620 1.378 . S
C628 C623 1.350 . S
C629 H616 0.929 . S
C629 C621 1.433 . S
C629 N631 1.384 . S
N630 C626 1.427 1_545 S
N630 C627 1.384 1_545 S
N631 C623 1.427 . S
N631 C629 1.384 . S
H632 C638 0.930 . S
H633 C642 0.930 . S
H634 C647 0.929 . S
H635 C645 0.929 . S
H636 C640 0.929 . S
H637 C646 0.921 1_455 S
C638 H632 0.930 . S
C638 C639 1.367 . S
C638 C646 1.378 . S
C639 C638 1.367 . S
C639 C647 1.433 . S
C640 H636 0.929 . S
C640 C642 1.378 . S
C640 C644 1.350 . S
C641 C644 1.463 1_655 S
C641 C646 1.350 . S
C641 N649 1.427 . S
C642 H633 0.930 . S
C642 C640 1.378 . S
C642 C643 1.367 . S
C643 C642 1.367 . S
C643 C645 1.433 . S
C644 C640 1.350 . S
C644 C641 1.463 1_455 S
C644 N648 1.427 . S
C645 H635 0.929 . S
C645 C643 1.433 . S
C645 N648 1.384 . S
C646 H637 0.921 1_655 S
C646 C638 1.378 . S
C646 C641 1.350 . S
C647 H634 0.929 . S
C647 C639 1.433 . S
C647 N649 1.384 . S
N648 C644 1.427 . S
N648 C645 1.384 . S
N649 C641 1.427 . S
N649 C647 1.384 . S
H650 C656 0.930 . S
H651 C660 0.930 . S
H652 C665 0.929 . S
H653 C663 0.929 . S
H654 C658 0.929 . S
H655 C664 0.929 . S
C656 H650 0.930 . S
C656 C657 1.367 . S
C656 C664 1.378 . S
C657 C656 1.367 . S
C657 C665 1.433 . S
C658 H654 0.929 . S
C658 C660 1.378 . S
C658 C662 1.350 . S
C659 C662 1.463 . S
C659 C664 1.350 . S
C659 N667 1.427 . S
C660 H651 0.930 . S
C660 C658 1.378 . S
C660 C661 1.367 . S
C661 C660 1.367 . S
C661 C663 1.433 . S
C662 C658 1.350 . S
C662 C659 1.463 . S
C662 N666 1.427 . S
C663 H653 0.929 . S
C663 C661 1.433 . S
C663 N666 1.384 . S
C664 H655 0.929 . S
C664 C656 1.378 . S
C664 C659 1.350 . S
C665 H652 0.929 . S
C665 C657 1.433 . S
C665 N667 1.384 . S
N666 C662 1.427 . S
N666 C663 1.384 . S
N667 C659 1.427 . S
N667 C665 1.384 . S
H668 C674 0.930 . S
H669 C678 0.930 . S
H670 C683 0.929 . S
H671 C681 0.929 . S
H672 C676 0.929 . S
H673 C682 0.929 . S
C674 H668 0.930 . S
C674 C675 1.367 . S
C674 C682 1.378 . S
C675 C674 1.367 . S
C675 C683 1.433 . S
C676 H672 0.929 . S
C676 C678 1.378 . S
C676 C680 1.344 1_655 S
C677 C680 1.470 . S
C677 C682 1.350 . S
C677 N685 1.427 . S
C678 H669 0.930 . S
C678 C676 1.378 . S
C678 C679 1.367 . S
C679 C678 1.367 . S
C679 C681 1.433 . S
C680 C676 1.344 1_455 S
C680 C677 1.470 . S
C680 N684 1.426 1_455 S
C681 H671 0.929 . S
C681 C679 1.433 . S
C681 N684 1.384 . S
C682 H673 0.929 . S
C682 C674 1.378 . S
C682 C677 1.350 . S
C683 H670 0.929 . S
C683 C675 1.433 . S
C683 N685 1.384 . S
N684 C680 1.426 1_655 S
N684 C681 1.384 . S
N685 C677 1.427 . S
N685 C683 1.384 . S
H686 C692 0.930 . S
H687 C696 0.930 . S
H688 C701 0.929 . S
H689 C699 0.929 . S
H690 C694 0.929 . S
H691 C700 0.929 . S
C692 H686 0.930 . S
C692 C693 1.367 . S
C692 C700 1.378 . S
C693 C692 1.367 . S
C693 C701 1.433 . S
C694 H690 0.929 . S
C694 C696 1.378 . S
C694 C698 1.350 . S
C695 C698 1.463 . S
C695 C700 1.350 . S
C695 N703 1.427 . S
C696 H687 0.930 . S
C696 C694 1.378 . S
C696 C697 1.367 . S
C697 C696 1.367 . S
C697 C699 1.433 . S
C698 C694 1.350 . S
C698 C695 1.463 . S
C698 N702 1.427 . S
C699 H689 0.929 . S
C699 C697 1.433 . S
C699 N702 1.384 . S
C700 H691 0.929 . S
C700 C692 1.378 . S
C700 C695 1.350 . S
C701 H688 0.929 . S
C701 C693 1.433 . S
C701 N703 1.384 . S
N702 C698 1.427 . S
N702 C699 1.384 . S
N703 C695 1.427 . S
N703 C701 1.384 . S
H704 C710 0.930 . S
H705 C714 0.930 . S
H706 C719 0.929 . S
H707 C717 0.929 . S
H708 C712 0.929 . S
H709 C718 0.929 . S
C710 H704 0.930 . S
C710 C711 1.367 . S
C710 C718 1.378 . S
C711 C710 1.367 . S
C711 C719 1.433 . S
C712 H708 0.929 . S
C712 C714 1.378 . S
C712 C716 1.350 . S
C713 C716 1.463 . S
C713 C718 1.350 . S
C713 N721 1.427 . S
C714 H705 0.930 . S
C714 C712 1.378 . S
C714 C715 1.367 . S
C715 C714 1.367 . S
C715 C717 1.433 . S
C716 C712 1.350 . S
C716 C713 1.463 . S
C716 N720 1.427 . S
C717 H707 0.929 . S
C717 C715 1.433 . S
C717 N720 1.384 . S
C718 H709 0.929 . S
C718 C710 1.378 . S
C718 C713 1.350 . S
C719 H706 0.929 . S
C719 C711 1.433 . S
C719 N721 1.384 . S
N720 C716 1.427 . S
N720 C717 1.384 . S
N721 C713 1.427 . S
N721 C719 1.384 . S
H722 C728 0.930 1_545 S
H723 C732 0.930 . S
H724 C737 0.929 . S
H725 C735 0.929 . S
H726 C730 0.929 . S
H727 C736 0.929 . S
C728 H722 0.930 1_565 S
C728 C729 1.367 . S
C728 C736 1.378 . S
C729 C728 1.367 . S
C729 C737 1.433 . S
C730 H726 0.929 . S
C730 C732 1.378 . S
C730 C734 1.350 . S
C731 C734 1.463 . S
C731 C736 1.350 . S
C731 N739 1.427 . S
C732 H723 0.930 . S
C732 C730 1.378 . S
C732 C733 1.367 . S
C733 C732 1.367 . S
C733 C735 1.433 . S
C734 C730 1.350 . S
C734 C731 1.463 . S
C734 N738 1.427 . S
C735 H725 0.929 . S
C735 C733 1.433 . S
C735 N738 1.384 . S
C736 H727 0.929 . S
C736 C728 1.378 . S
C736 C731 1.350 . S
C737 H724 0.929 . S
C737 C729 1.433 . S
C737 N739 1.384 . S
N738 C734 1.427 . S
N738 C735 1.384 . S
N739 C731 1.427 . S
N739 C737 1.384 . S
H740 C746 0.930 . S
H741 C750 0.930 . S
H742 C755 0.929 . S
H743 C753 0.929 . S
H744 C748 0.929 . S
H745 C754 0.929 . S
C746 H740 0.930 . S
C746 C747 1.367 . S
C746 C754 1.378 . S
C747 C746 1.367 . S
C747 C755 1.433 . S
C748 H744 0.929 . S
C748 C750 1.378 . S
C748 C752 1.350 . S
C749 C752 1.463 1_554 S
C749 C754 1.350 . S
C749 N757 1.427 . S
C750 H741 0.930 . S
C750 C748 1.378 . S
C750 C751 1.367 . S
C751 C750 1.367 . S
C751 C753 1.433 . S
C752 C748 1.350 . S
C752 C749 1.463 1_556 S
C752 N756 1.427 . S
C753 H743 0.929 . S
C753 C751 1.433 . S
C753 N756 1.384 . S
C754 H745 0.929 . S
C754 C746 1.378 . S
C754 C749 1.350 . S
C755 H742 0.929 . S
C755 C747 1.433 . S
C755 N757 1.384 . S
N756 C752 1.427 . S
N756 C753 1.384 . S
N757 C749 1.427 . S
N757 C755 1.384 . S
H758 C764 0.930 . S
H759 C768 0.930 . S
H760 C773 0.929 . S
H761 C771 0.929 . S
H762 C766 0.929 . S
H763 C772 0.929 . S
C764 H758 0.930 . S
C764 C765 1.367 . S
C764 C772 1.378 . S
C765 C764 1.367 . S
C765 C773 1.433 . S
C766 H762 0.929 . S
C766 C768 1.378 . S
C766 C770 1.350 . S
C767 C770 1.463 . S
C767 C772 1.350 . S
C767 N775 1.427 . S
C768 H759 0.930 . S
C768 C766 1.378 . S
C768 C769 1.367 . S
C769 C768 1.367 . S
C769 C771 1.433 . S
C770 C766 1.350 . S
C770 C767 1.463 . S
C770 N774 1.427 . S
C771 H761 0.929 . S
C771 C769 1.433 . S
C771 N774 1.384 . S
C772 H763 0.929 . S
C772 C764 1.378 . S
C772 C767 1.350 . S
C773 H760 0.929 . S
C773 C765 1.433 . S
C773 N775 1.384 . S
N774 C770 1.427 . S
N774 C771 1.384 . S
N775 C767 1.427 . S
N775 C773 1.384 . S
C279 C3 1.275 . S
C283 C158 1.406 . S
C297 C192 1.416 . S
C301 C35 1.290 . S
C315 C226 1.403 . S
C319 C69 1.263 . S
C333 C103 1.290 . S
C337 C253 1.415 1_545 S
C351 C15 1.414 . S
C355 C137 1.289 . S
C369 C56 1.407 . S
C373 C171 1.277 . S
C387 C205 1.287 . S
C391 C90 1.415 1_455 S
C405 C124 1.403 . S
C409 C241 1.268 . S
C423 C40 1.425 . S
C427 C6 1.449 . S
C441 C74 1.428 . S
C445 C62 1.456 . S
C459 C96 1.455 . S
C463 C108 1.423 . S
C477 C130 1.457 . S
C481 C28 1.429 . S
C495 C266 1.430 . S
C499 C164 1.452 . S
C513 C198 1.455 . S
C517 C142 1.424 . S
C531 C232 1.454 . S
C535 C176 1.422 . S
C549 C244 1.451 . S
C553 C210 1.429 . S
C567 C153 1.889 . S
C571 C22 1.683 . S
C585 C187 1.888 . S
C589 C49 1.680 . S
C603 C83 1.682 . S
C607 C221 1.888 . S
C621 C117 1.670 . S
C625 C255 1.887 . S
C639 C151 1.663 . S
C643 C17 1.886 . S
C657 C185 1.669 . S
C661 C51 1.887 . S
C675 C219 1.683 . S
C679 C85 1.889 . S
C693 C260 1.663 . S
C697 C119 1.886 . S
C711 C173 2.097 . S
C715 C1 2.086 . S
C729 C207 2.097 . S
C733 C37 2.095 . S
C747 C239 2.087 . S
C751 C71 2.099 . S
C765 C105 2.097 . S
C769 C139 2.086 . S
