# Generated by pormake.
# Topology uky, (4)-cn, num edge types: 1
# Building blocks:
#     Node 0, Type 0, BuildingBlock: GALJAG_clean_sbu_0, # of connection points: 4
#     Node 1, Type 0, BuildingBlock: GALJAG_clean_sbu_0, # of connection points: 4
#     Node 2, Type 0, BuildingBlock: GALJAG_clean_sbu_0, # of connection points: 4
#     Node 3, Type 0, BuildingBlock: GALJAG_clean_sbu_0, # of connection points: 4
#     Node 4, Type 0, BuildingBlock: GALJAG_clean_sbu_0, # of connection points: 4
#     Node 5, Type 0, BuildingBlock: GALJAG_clean_sbu_0, # of connection points: 4
#     Node 6, Type 0, BuildingBlock: GALJAG_clean_sbu_0, # of connection points: 4
#     Node 7, Type 0, BuildingBlock: GALJAG_clean_sbu_0, # of connection points: 4
#     Node 8, Type 0, BuildingBlock: GALJAG_clean_sbu_0, # of connection points: 4
#     Node 9, Type 0, BuildingBlock: GALJAG_clean_sbu_0, # of connection points: 4
#     Node 10, Type 0, BuildingBlock: GALJAG_clean_sbu_0, # of connection points: 4
#     Node 11, Type 0, BuildingBlock: GALJAG_clean_sbu_0, # of connection points: 4
#     Node 12, Type 0, BuildingBlock: GALJAG_clean_sbu_0, # of connection points: 4
#     Node 13, Type 0, BuildingBlock: GALJAG_clean_sbu_0, # of connection points: 4
#     Node 14, Type 0, BuildingBlock: GALJAG_clean_sbu_0, # of connection points: 4
#     Node 15, Type 0, BuildingBlock: GALJAG_clean_sbu_0, # of connection points: 4
#     Node 16, Type 0, BuildingBlock: GALJAG_clean_sbu_0, # of connection points: 4
#     Node 17, Type 0, BuildingBlock: GALJAG_clean_sbu_0, # of connection points: 4
#     Node 18, Type 0, BuildingBlock: GALJAG_clean_sbu_0, # of connection points: 4
#     Node 19, Type 0, BuildingBlock: GALJAG_clean_sbu_0, # of connection points: 4
#     Node 20, Type 0, BuildingBlock: GALJAG_clean_sbu_0, # of connection points: 4
#     Node 21, Type 0, BuildingBlock: GALJAG_clean_sbu_0, # of connection points: 4
#     Node 22, Type 0, BuildingBlock: GALJAG_clean_sbu_0, # of connection points: 4
#     Node 23, Type 0, BuildingBlock: GALJAG_clean_sbu_0, # of connection points: 4
#     Node 24, Type 0, BuildingBlock: GALJAG_clean_sbu_0, # of connection points: 4
#     Node 25, Type 0, BuildingBlock: GALJAG_clean_sbu_0, # of connection points: 4
#     Node 26, Type 0, BuildingBlock: GALJAG_clean_sbu_0, # of connection points: 4
#     Node 27, Type 0, BuildingBlock: GALJAG_clean_sbu_0, # of connection points: 4
#     Node 28, Type 0, BuildingBlock: GALJAG_clean_sbu_0, # of connection points: 4
#     Node 29, Type 0, BuildingBlock: GALJAG_clean_sbu_0, # of connection points: 4
#     Node 30, Type 0, BuildingBlock: GALJAG_clean_sbu_0, # of connection points: 4
#     Node 31, Type 0, BuildingBlock: GALJAG_clean_sbu_0, # of connection points: 4
#     Node 32, Type 0, BuildingBlock: GALJAG_clean_sbu_0, # of connection points: 4
#     Node 33, Type 0, BuildingBlock: GALJAG_clean_sbu_0, # of connection points: 4
#     Node 34, Type 0, BuildingBlock: GALJAG_clean_sbu_0, # of connection points: 4
#     Node 35, Type 0, BuildingBlock: GALJAG_clean_sbu_0, # of connection points: 4
#     Node 36, Type 0, BuildingBlock: GALJAG_clean_sbu_0, # of connection points: 4
#     Node 37, Type 0, BuildingBlock: GALJAG_clean_sbu_0, # of connection points: 4
#     Node 38, Type 0, BuildingBlock: GALJAG_clean_sbu_0, # of connection points: 4
#     Node 39, Type 0, BuildingBlock: GALJAG_clean_sbu_0, # of connection points: 4
#     Node 40, Type 0, BuildingBlock: GALJAG_clean_sbu_0, # of connection points: 4
#     Node 41, Type 0, BuildingBlock: GALJAG_clean_sbu_0, # of connection points: 4
#     Node 42, Type 0, BuildingBlock: GALJAG_clean_sbu_0, # of connection points: 4
#     Node 43, Type 0, BuildingBlock: GALJAG_clean_sbu_0, # of connection points: 4
#     Node 44, Type 0, BuildingBlock: GALJAG_clean_sbu_0, # of connection points: 4
#     Node 45, Type 0, BuildingBlock: GALJAG_clean_sbu_0, # of connection points: 4
#     Node 46, Type 0, BuildingBlock: GALJAG_clean_sbu_0, # of connection points: 4
#     Node 47, Type 0, BuildingBlock: GALJAG_clean_sbu_0, # of connection points: 4
#     Edge 48, Type (0, 0), BuildingBlock: TEMPAE_clean_linker_10, # of connection points: 2
#     Edge 49, Type (0, 0), BuildingBlock: TEMPAE_clean_linker_10, # of connection points: 2
#     Edge 50, Type (0, 0), BuildingBlock: TEMPAE_clean_linker_10, # of connection points: 2
#     Edge 51, Type (0, 0), BuildingBlock: TEMPAE_clean_linker_10, # of connection points: 2
#     Edge 52, Type (0, 0), BuildingBlock: TEMPAE_clean_linker_10, # of connection points: 2
#     Edge 53, Type (0, 0), BuildingBlock: TEMPAE_clean_linker_10, # of connection points: 2
#     Edge 54, Type (0, 0), BuildingBlock: TEMPAE_clean_linker_10, # of connection points: 2
#     Edge 55, Type (0, 0), BuildingBlock: TEMPAE_clean_linker_10, # of connection points: 2
#     Edge 56, Type (0, 0), BuildingBlock: TEMPAE_clean_linker_10, # of connection points: 2
#     Edge 57, Type (0, 0), BuildingBlock: TEMPAE_clean_linker_10, # of connection points: 2
#     Edge 58, Type (0, 0), BuildingBlock: TEMPAE_clean_linker_10, # of connection points: 2
#     Edge 59, Type (0, 0), BuildingBlock: TEMPAE_clean_linker_10, # of connection points: 2
#     Edge 60, Type (0, 0), BuildingBlock: TEMPAE_clean_linker_10, # of connection points: 2
#     Edge 61, Type (0, 0), BuildingBlock: TEMPAE_clean_linker_10, # of connection points: 2
#     Edge 62, Type (0, 0), BuildingBlock: TEMPAE_clean_linker_10, # of connection points: 2
#     Edge 63, Type (0, 0), BuildingBlock: TEMPAE_clean_linker_10, # of connection points: 2
#     Edge 64, Type (0, 0), BuildingBlock: TEMPAE_clean_linker_10, # of connection points: 2
#     Edge 65, Type (0, 0), BuildingBlock: TEMPAE_clean_linker_10, # of connection points: 2
#     Edge 66, Type (0, 0), BuildingBlock: TEMPAE_clean_linker_10, # of connection points: 2
#     Edge 67, Type (0, 0), BuildingBlock: TEMPAE_clean_linker_10, # of connection points: 2
#     Edge 68, Type (0, 0), BuildingBlock: TEMPAE_clean_linker_10, # of connection points: 2
#     Edge 69, Type (0, 0), BuildingBlock: TEMPAE_clean_linker_10, # of connection points: 2
#     Edge 70, Type (0, 0), BuildingBlock: TEMPAE_clean_linker_10, # of connection points: 2
#     Edge 71, Type (0, 0), BuildingBlock: TEMPAE_clean_linker_10, # of connection points: 2
#     Edge 72, Type (0, 0), BuildingBlock: TEMPAE_clean_linker_10, # of connection points: 2
#     Edge 73, Type (0, 0), BuildingBlock: TEMPAE_clean_linker_10, # of connection points: 2
#     Edge 74, Type (0, 0), BuildingBlock: TEMPAE_clean_linker_10, # of connection points: 2
#     Edge 75, Type (0, 0), BuildingBlock: TEMPAE_clean_linker_10, # of connection points: 2
#     Edge 76, Type (0, 0), BuildingBlock: TEMPAE_clean_linker_10, # of connection points: 2
#     Edge 77, Type (0, 0), BuildingBlock: TEMPAE_clean_linker_10, # of connection points: 2
#     Edge 78, Type (0, 0), BuildingBlock: TEMPAE_clean_linker_10, # of connection points: 2
#     Edge 79, Type (0, 0), BuildingBlock: TEMPAE_clean_linker_10, # of connection points: 2
#     Edge 80, Type (0, 0), BuildingBlock: TEMPAE_clean_linker_10, # of connection points: 2
#     Edge 81, Type (0, 0), BuildingBlock: TEMPAE_clean_linker_10, # of connection points: 2
#     Edge 82, Type (0, 0), BuildingBlock: TEMPAE_clean_linker_10, # of connection points: 2
#     Edge 83, Type (0, 0), BuildingBlock: TEMPAE_clean_linker_10, # of connection points: 2
#     Edge 84, Type (0, 0), BuildingBlock: TEMPAE_clean_linker_10, # of connection points: 2
#     Edge 85, Type (0, 0), BuildingBlock: TEMPAE_clean_linker_10, # of connection points: 2
#     Edge 86, Type (0, 0), BuildingBlock: TEMPAE_clean_linker_10, # of connection points: 2
#     Edge 87, Type (0, 0), BuildingBlock: TEMPAE_clean_linker_10, # of connection points: 2
#     Edge 88, Type (0, 0), BuildingBlock: TEMPAE_clean_linker_10, # of connection points: 2
#     Edge 89, Type (0, 0), BuildingBlock: TEMPAE_clean_linker_10, # of connection points: 2
#     Edge 90, Type (0, 0), BuildingBlock: TEMPAE_clean_linker_10, # of connection points: 2
#     Edge 91, Type (0, 0), BuildingBlock: TEMPAE_clean_linker_10, # of connection points: 2
#     Edge 92, Type (0, 0), BuildingBlock: TEMPAE_clean_linker_10, # of connection points: 2
#     Edge 93, Type (0, 0), BuildingBlock: TEMPAE_clean_linker_10, # of connection points: 2
#     Edge 94, Type (0, 0), BuildingBlock: TEMPAE_clean_linker_10, # of connection points: 2
#     Edge 95, Type (0, 0), BuildingBlock: TEMPAE_clean_linker_10, # of connection points: 2
#     Edge 96, Type (0, 0), BuildingBlock: TEMPAE_clean_linker_10, # of connection points: 2
#     Edge 97, Type (0, 0), BuildingBlock: TEMPAE_clean_linker_10, # of connection points: 2
#     Edge 98, Type (0, 0), BuildingBlock: TEMPAE_clean_linker_10, # of connection points: 2
#     Edge 99, Type (0, 0), BuildingBlock: TEMPAE_clean_linker_10, # of connection points: 2
#     Edge 100, Type (0, 0), BuildingBlock: TEMPAE_clean_linker_10, # of connection points: 2
#     Edge 101, Type (0, 0), BuildingBlock: TEMPAE_clean_linker_10, # of connection points: 2
#     Edge 102, Type (0, 0), BuildingBlock: TEMPAE_clean_linker_10, # of connection points: 2
#     Edge 103, Type (0, 0), BuildingBlock: TEMPAE_clean_linker_10, # of connection points: 2
#     Edge 104, Type (0, 0), BuildingBlock: TEMPAE_clean_linker_10, # of connection points: 2
#     Edge 105, Type (0, 0), BuildingBlock: TEMPAE_clean_linker_10, # of connection points: 2
#     Edge 106, Type (0, 0), BuildingBlock: TEMPAE_clean_linker_10, # of connection points: 2
#     Edge 107, Type (0, 0), BuildingBlock: TEMPAE_clean_linker_10, # of connection points: 2
#     Edge 108, Type (0, 0), BuildingBlock: TEMPAE_clean_linker_10, # of connection points: 2
#     Edge 109, Type (0, 0), BuildingBlock: TEMPAE_clean_linker_10, # of connection points: 2
#     Edge 110, Type (0, 0), BuildingBlock: TEMPAE_clean_linker_10, # of connection points: 2
#     Edge 111, Type (0, 0), BuildingBlock: TEMPAE_clean_linker_10, # of connection points: 2
#     Edge 112, Type (0, 0), BuildingBlock: TEMPAE_clean_linker_10, # of connection points: 2
#     Edge 113, Type (0, 0), BuildingBlock: TEMPAE_clean_linker_10, # of connection points: 2
#     Edge 114, Type (0, 0), BuildingBlock: TEMPAE_clean_linker_10, # of connection points: 2
#     Edge 115, Type (0, 0), BuildingBlock: TEMPAE_clean_linker_10, # of connection points: 2
#     Edge 116, Type (0, 0), BuildingBlock: TEMPAE_clean_linker_10, # of connection points: 2
#     Edge 117, Type (0, 0), BuildingBlock: TEMPAE_clean_linker_10, # of connection points: 2
#     Edge 118, Type (0, 0), BuildingBlock: TEMPAE_clean_linker_10, # of connection points: 2
#     Edge 119, Type (0, 0), BuildingBlock: TEMPAE_clean_linker_10, # of connection points: 2
#     Edge 120, Type (0, 0), BuildingBlock: TEMPAE_clean_linker_10, # of connection points: 2
#     Edge 121, Type (0, 0), BuildingBlock: TEMPAE_clean_linker_10, # of connection points: 2
#     Edge 122, Type (0, 0), BuildingBlock: TEMPAE_clean_linker_10, # of connection points: 2
#     Edge 123, Type (0, 0), BuildingBlock: TEMPAE_clean_linker_10, # of connection points: 2
#     Edge 124, Type (0, 0), BuildingBlock: TEMPAE_clean_linker_10, # of connection points: 2
#     Edge 125, Type (0, 0), BuildingBlock: TEMPAE_clean_linker_10, # of connection points: 2
#     Edge 126, Type (0, 0), BuildingBlock: TEMPAE_clean_linker_10, # of connection points: 2
#     Edge 127, Type (0, 0), BuildingBlock: TEMPAE_clean_linker_10, # of connection points: 2
#     Edge 128, Type (0, 0), BuildingBlock: TEMPAE_clean_linker_10, # of connection points: 2
#     Edge 129, Type (0, 0), BuildingBlock: TEMPAE_clean_linker_10, # of connection points: 2
#     Edge 130, Type (0, 0), BuildingBlock: TEMPAE_clean_linker_10, # of connection points: 2
#     Edge 131, Type (0, 0), BuildingBlock: TEMPAE_clean_linker_10, # of connection points: 2
#     Edge 132, Type (0, 0), BuildingBlock: TEMPAE_clean_linker_10, # of connection points: 2
#     Edge 133, Type (0, 0), BuildingBlock: TEMPAE_clean_linker_10, # of connection points: 2
#     Edge 134, Type (0, 0), BuildingBlock: TEMPAE_clean_linker_10, # of connection points: 2
#     Edge 135, Type (0, 0), BuildingBlock: TEMPAE_clean_linker_10, # of connection points: 2
#     Edge 136, Type (0, 0), BuildingBlock: TEMPAE_clean_linker_10, # of connection points: 2
#     Edge 137, Type (0, 0), BuildingBlock: TEMPAE_clean_linker_10, # of connection points: 2
#     Edge 138, Type (0, 0), BuildingBlock: TEMPAE_clean_linker_10, # of connection points: 2
#     Edge 139, Type (0, 0), BuildingBlock: TEMPAE_clean_linker_10, # of connection points: 2
#     Edge 140, Type (0, 0), BuildingBlock: TEMPAE_clean_linker_10, # of connection points: 2
#     Edge 141, Type (0, 0), BuildingBlock: TEMPAE_clean_linker_10, # of connection points: 2
#     Edge 142, Type (0, 0), BuildingBlock: TEMPAE_clean_linker_10, # of connection points: 2
#     Edge 143, Type (0, 0), BuildingBlock: TEMPAE_clean_linker_10, # of connection points: 2
# Relax obj value: 0.129
# Max RMSD: 0.165
# Mean RMSD: 0.165
data_MOF--net-uky--node1-GALJAG_clean_sbu_0--edge1-TEMPAE_clean_linker_10
_symmetry_space_group_name_H-M    P1
_symmetry_Int_Tables_number       1
_symmetry_cell_setting            triclinic
loop_
_symmetry_equiv_pos_as_xyz
'x, y, z'
_cell_length_a     62.908318
_cell_length_b     62.926752
_cell_length_c     62.936125
_cell_angle_alpha  89.982803
_cell_angle_beta   89.981737
_cell_angle_gamma 89.996768
loop_
_atom_site_label
_atom_site_type_symbol
_atom_site_fract_x
_atom_site_fract_y
_atom_site_fract_z
_atom_type_partial_charge
In0 In 0.22779 0.19238 0.37507 0.0
O1 O 0.20853 0.16183 0.3699 0.0
O2 O 0.19208 0.19121 0.37296 0.0
C3 C 0.26488 0.18222 0.35613 0.0
C4 C 0.23436 0.19028 0.41732 0.0
C5 C 0.21835 0.22925 0.35557 0.0
O6 O 0.24754 0.17348 0.35104 0.0
O7 O 0.26351 0.19511 0.37138 0.0
O8 O 0.21676 0.22699 0.37545 0.0
O9 O 0.22467 0.21298 0.3457 0.0
C10 C 0.19084 0.17137 0.37052 0.0
O11 O 0.2382 0.2068 0.40664 0.0
O12 O 0.22755 0.17475 0.40668 0.0
In13 In 0.03535 0.96863 0.62867 0.0
O14 O 0.0649 0.94957 0.61877 0.0
O15 O 0.0416 0.93465 0.6381 0.0
C16 C 0.04176 0.0053 0.60771 0.0
C17 C 0.03722 0.97962 0.66998 0.0
C18 C 0.00074 0.95624 0.60678 0.0
O19 O 0.05527 0.99042 0.60763 0.0
O20 O 0.02556 0.00192 0.61905 0.0
O21 O -0.00013 0.96128 0.62617 0.0
O22 O 0.01904 0.95717 0.59865 0.0
C23 C 0.05907 0.93302 0.62849 0.0
O24 O 0.02139 0.97035 0.66191 0.0
O25 O 0.05206 0.98372 0.65713 0.0
In26 In 0.26836 0.8097 0.86972 0.0
O27 O 0.25029 0.8128 0.90089 0.0
O28 O 0.28129 0.7993 0.90184 0.0
C29 C 0.28289 0.77417 0.85057 0.0
C30 C 0.29654 0.84186 0.86521 0.0
C31 C 0.2296 0.81363 0.85199 0.0
O32 O 0.28353 0.77659 0.87046 0.0
O33 O 0.27514 0.78966 0.84051 0.0
O34 O 0.24375 0.82774 0.84994 0.0
O35 O 0.23483 0.79817 0.8636 0.0
C36 C 0.26499 0.80495 0.91208 0.0
O37 O 0.28146 0.84247 0.87836 0.0
O38 O 0.29673 0.82556 0.85364 0.0
In39 In 0.43379 0.02648 0.12099 0.0
O40 O 0.40305 0.04274 0.13158 0.0
O41 O 0.4203 0.05648 0.10612 0.0
C42 C 0.42111 0.99336 0.09696 0.0
C43 C 0.44062 0.02087 0.16297 0.0
C44 C 0.47238 0.03533 0.10442 0.0
O45 O 0.41826 0.01243 0.09146 0.0
O46 O 0.42952 0.99105 0.115 0.0
O47 O 0.46504 0.01671 0.10549 0.0
O48 O 0.46049 0.04944 0.11221 0.0
C49 C 0.40463 0.05786 0.1185 0.0
O50 O 0.42659 0.0107 0.15288 0.0
O51 O 0.45125 0.0337 0.15187 0.0
In52 In 0.23456 0.79575 0.11147 0.0
O53 O 0.24144 0.77951 0.07993 0.0
O54 O 0.24714 0.81272 0.08203 0.0
C55 C 0.22026 0.76205 0.13364 0.0
C56 C 0.19885 0.81937 0.1103 0.0
C57 C 0.27062 0.80279 0.13332 0.0
O58 O 0.2233 0.7613 0.11383 0.0
O59 O 0.22427 0.77976 0.14211 0.0
O60 O 0.25559 0.8161 0.13282 0.0
O61 O 0.26771 0.78641 0.12214 0.0
C62 C 0.24729 0.79625 0.0706 0.0
O63 O 0.21556 0.82594 0.11925 0.0
O64 O 0.20036 0.80121 0.10205 0.0
In65 In 0.46106 0.98347 0.36032 0.0
O66 O 0.43006 0.96673 0.36946 0.0
O67 O 0.44987 0.95278 0.34577 0.0
C68 C 0.45699 0.01747 0.38603 0.0
C69 C 0.4607 0.99724 0.31979 0.0
C70 C 0.49344 0.9639 0.3805 0.0
O71 O 0.44247 0.00374 0.3841 0.0
O72 O 0.47305 0.01437 0.37446 0.0
O73 O 0.49654 0.97799 0.36656 0.0
O74 O 0.47421 0.95958 0.3839 0.0
C75 C 0.43309 0.95149 0.3567 0.0
O76 O 0.47528 0.98559 0.32714 0.0
O77 O 0.44658 0.00242 0.33307 0.0
In78 In 0.26227 0.19222 0.61759 0.0
O79 O 0.28281 0.16265 0.62309 0.0
O80 O 0.2981 0.19208 0.61649 0.0
C81 C 0.22785 0.17988 0.63986 0.0
C82 C 0.25239 0.1893 0.57603 0.0
C83 C 0.27119 0.22975 0.63619 0.0
O84 O 0.24618 0.17249 0.64336 0.0
O85 O 0.22679 0.19251 0.62433 0.0
O86 O 0.27306 0.22698 0.6164 0.0
O87 O 0.26486 0.2137 0.64636 0.0
C88 C 0.30009 0.17252 0.62032 0.0
O89 O 0.2481 0.20554 0.58697 0.0
O90 O 0.2612 0.17443 0.58613 0.0
In91 In 0.04389 0.02045 0.86847 0.0
O92 O 0.0289 0.02203 0.83568 0.0
O93 O 0.05779 0.00477 0.83884 0.0
C94 C 0.00738 0.03077 0.88863 0.0
C95 C 0.06998 0.05424 0.86673 0.0
C96 C 0.05403 0.98675 0.89288 0.0
O97 O 0.00864 0.0155 0.87575 0.0
O98 O 0.02437 0.04107 0.89102 0.0
O99 O 0.06055 0.00529 0.89689 0.0
O100 O 0.0432 0.98515 0.8761 0.0
C101 C 0.04318 0.01121 0.82669 0.0
O102 O 0.07586 0.03682 0.87484 0.0
O103 O 0.05124 0.05436 0.85963 0.0
In104 In 0.38647 0.23146 0.20631 0.0
O105 O 0.41754 0.24166 0.22199 0.0
O106 O 0.4171 0.23821 0.18838 0.0
C107 C 0.36506 0.21616 0.24015 0.0
C108 C 0.38375 0.19661 0.18178 0.0
C109 C 0.367 0.26886 0.19929 0.0
O110 O 0.38509 0.21544 0.23908 0.0
O111 O 0.35611 0.22453 0.22434 0.0
O112 O 0.36742 0.25428 0.18549 0.0
O113 O 0.37717 0.2648 0.21609 0.0
C114 C 0.4278 0.24249 0.20477 0.0
O115 O 0.37329 0.21325 0.17764 0.0
O116 O 0.39543 0.19779 0.19801 0.0
In117 In 0.01792 0.12757 0.45044 0.0
O118 O 0.0074 0.15814 0.4668 0.0
O119 O 0.01622 0.15992 0.43426 0.0
C120 C 0.02767 0.10465 0.48526 0.0
C121 C 0.05462 0.12466 0.42876 0.0
C122 C 0.98058 0.1098 0.43936 0.0
O123 O 0.029 0.12467 0.48493 0.0
O124 O 0.02162 0.09635 0.46806 0.0
O125 O 0.9975 0.10637 0.42909 0.0
O126 O 0.98249 0.12275 0.4545 0.0
C127 C 0.00983 0.16963 0.45057 0.0
O128 O 0.03685 0.12135 0.41998 0.0
O129 O 0.05367 0.12922 0.44824 0.0
In130 In 0.11747 0.76676 0.69477 0.0
O131 O 0.11225 0.7808 0.66147 0.0
O132 O 0.13028 0.79852 0.68363 0.0
C133 C 0.13867 0.73009 0.68909 0.0
C134 C 0.07518 0.76019 0.69755 0.0
C135 C 0.13573 0.77975 0.73123 0.0
O136 O 0.13909 0.74489 0.6755 0.0
O137 O 0.12681 0.73353 0.70489 0.0
O138 O 0.11578 0.77935 0.72895 0.0
O139 O 0.14615 0.77362 0.71526 0.0
C140 C 0.12225 0.79773 0.66535 0.0
O141 O 0.0877 0.7468 0.68943 0.0
O142 O 0.08402 0.7768 0.70444 0.0
In143 In 0.46779 0.87178 0.94741 0.0
O144 O 0.4448 0.88898 0.92492 0.0
O145 O 0.44596 0.85534 0.92386 0.0
C146 C 0.50214 0.89466 0.9358 0.0
C147 C 0.47816 0.83077 0.95311 0.0
C148 C 0.45386 0.88901 0.98427 0.0
O149 O 0.48346 0.89989 0.93074 0.0
O150 O 0.50352 0.87743 0.94592 0.0
O151 O 0.47314 0.88856 0.97899 0.0
O152 O 0.4415 0.88017 0.97125 0.0
C153 C 0.43748 0.87211 0.917 0.0
O154 O 0.46626 0.84071 0.96587 0.0
O155 O 0.48489 0.84159 0.93758 0.0
In156 In 0.37531 0.78023 0.30175 0.0
O157 O 0.38086 0.79693 0.33369 0.0
O158 O 0.36191 0.81252 0.31073 0.0
C159 C 0.35508 0.74324 0.3088 0.0
C160 C 0.41753 0.77329 0.29992 0.0
C161 C 0.35751 0.79007 0.26412 0.0
O162 O 0.35307 0.75893 0.32119 0.0
O163 O 0.36784 0.74611 0.29363 0.0
O164 O 0.3774 0.79042 0.26685 0.0
O165 O 0.34686 0.78502 0.28033 0.0
C166 C 0.37042 0.81331 0.32878 0.0
O167 O 0.4087 0.7885 0.29028 0.0
O168 O 0.40505 0.76165 0.31046 0.0
In169 In 0.4783 0.12416 0.55552 0.0
O170 O 0.49446 0.1537 0.5419 0.0
O171 O 0.47474 0.15752 0.56904 0.0
C172 C 0.47268 0.1053 0.51737 0.0
C173 C 0.44042 0.12063 0.57505 0.0
C174 C 0.51176 0.10339 0.57249 0.0
O175 O 0.46909 0.12482 0.52025 0.0
O176 O 0.47913 0.09552 0.5336 0.0
O177 O 0.49278 0.09751 0.57518 0.0
O178 O 0.51379 0.12043 0.56214 0.0
C179 C 0.4865 0.16624 0.55537 0.0
O180 O 0.45763 0.12173 0.58533 0.0
O181 O 0.4425 0.12101 0.55513 0.0
In182 In 0.13189 0.22338 0.80785 0.0
O183 O 0.10365 0.24121 0.79371 0.0
O184 O 0.09739 0.2183 0.81771 0.0
C185 C 0.14507 0.21301 0.76832 0.0
C186 C 0.13781 0.1893 0.83311 0.0
C187 C 0.15401 0.25744 0.82188 0.0
O188 O 0.12868 0.20499 0.7766 0.0
O189 O 0.15447 0.22643 0.77981 0.0
O190 O 0.16165 0.23892 0.82158 0.0
O191 O 0.13481 0.25854 0.8163 0.0
C192 C 0.08995 0.23182 0.80494 0.0
O193 O 0.12961 0.20632 0.83993 0.0
O194 O 0.14376 0.19 0.81401 0.0
In195 In 0.02406 0.87373 0.05478 0.0
O196 O 0.04296 0.87414 0.08589 0.0
O197 O 0.05844 0.88406 0.05762 0.0
C198 C 0.98929 0.89352 0.07021 0.0
C199 C 0.01791 0.83131 0.05281 0.0
C200 C 0.03073 0.89082 0.01602 0.0
O201 O 0.00765 0.90152 0.07116 0.0
O202 O 0.98866 0.87504 0.06252 0.0
O203 O 0.04034 0.87432 0.02218 0.0
O204 O 0.01763 0.89828 0.0292 0.0
C205 C 0.05993 0.88049 0.07725 0.0
O206 O 0.01123 0.8438 0.03863 0.0
O207 O 0.02758 0.84021 0.0679 0.0
In208 In 0.20216 0.37679 0.22734 0.0
O209 O 0.16914 0.38302 0.21328 0.0
O210 O 0.19099 0.36488 0.19521 0.0
C211 C 0.19574 0.35564 0.26394 0.0
C212 C 0.20494 0.41908 0.23331 0.0
C213 C 0.23892 0.35848 0.21518 0.0
O214 O 0.18279 0.35463 0.24863 0.0
O215 O 0.21124 0.368 0.26101 0.0
O216 O 0.23708 0.37838 0.21705 0.0
O217 O 0.22228 0.34809 0.21925 0.0
C218 C 0.17294 0.37345 0.19609 0.0
O219 O 0.21189 0.41001 0.21684 0.0
O220 O 0.19683 0.40677 0.24691 0.0
In221 In 0.71706 0.11782 0.78005 0.0
O222 O 0.7312 0.08461 0.77916 0.0
O223 O 0.70172 0.08946 0.7634 0.0
C224 C 0.751 0.13956 0.79438 0.0
C225 C 0.69148 0.11728 0.81438 0.0
C226 C 0.71152 0.13943 0.74361 0.0
O227 O 0.75231 0.12048 0.78838 0.0
O228 O 0.73261 0.14746 0.79344 0.0
O229 O 0.69712 0.13802 0.75756 0.0
O230 O 0.72828 0.1292 0.74773 0.0
C231 C 0.71615 0.07656 0.76868 0.0
O232 O 0.68699 0.12806 0.79807 0.0
O233 O 0.70863 0.10705 0.8132 0.0
In234 In 0.14118 0.46745 0.02729 0.0
O235 O 0.17427 0.48064 0.02029 0.0
O236 O 0.16868 0.44793 0.01403 0.0
C237 C 0.12429 0.50285 0.04483 0.0
C238 C 0.14211 0.44194 0.06131 0.0
C239 C 0.11501 0.4618 0.99369 0.0
O240 O 0.13668 0.50355 0.0291 0.0
O241 O 0.12071 0.48448 0.05184 0.0
O242 O 0.11629 0.44843 0.00857 0.0
O243 O 0.12734 0.47743 0.99552 0.0
C244 C 0.18172 0.46313 0.01402 0.0
O245 O 0.12915 0.439 0.04622 0.0
O246 O 0.15449 0.45761 0.05903 0.0
In247 In 0.79453 0.87762 0.26419 0.0
O248 O 0.78041 0.91042 0.27054 0.0
O249 O 0.80547 0.90808 0.24802 0.0
C250 C 0.75858 0.85684 0.27412 0.0
C251 C 0.82068 0.87436 0.29813 0.0
C252 C 0.80125 0.85722 0.22724 0.0
O253 O 0.75909 0.87685 0.27229 0.0
O254 O 0.77612 0.8476 0.27103 0.0
O255 O 0.81338 0.85486 0.24308 0.0
O256 O 0.78651 0.87054 0.22987 0.0
C257 C 0.79251 0.91993 0.25767 0.0
O258 O 0.82724 0.88081 0.28032 0.0
O259 O 0.80138 0.86922 0.29846 0.0
In260 In 0.86024 0.03207 0.02458 0.0
O261 O 0.82915 0.01484 0.01768 0.0
O262 O 0.83216 0.04682 0.00718 0.0
C263 C 0.87448 0.99436 0.03918 0.0
C264 C 0.85734 0.06058 0.05644 0.0
C265 C 0.89007 0.04141 0.99528 0.0
O266 O 0.8708 0.99773 0.01976 0.0
O267 O 0.87015 0.0097 0.05128 0.0
O268 O 0.89441 0.03757 0.01445 0.0
O269 O 0.87048 0.04131 0.99093 0.0
C270 C 0.82051 0.03056 0.00871 0.0
O271 O 0.87129 0.06216 0.04213 0.0
O272 O 0.84497 0.045 0.05437 0.0
In273 In 0.30369 0.62414 0.72638 0.0
O274 O 0.28978 0.59169 0.71887 0.0
O275 O 0.31096 0.59384 0.74507 0.0
C276 C 0.2673 0.64267 0.71362 0.0
C277 C 0.33239 0.62646 0.69439 0.0
C278 C 0.3099 0.6461 0.76261 0.0
O279 O 0.26939 0.62274 0.71451 0.0
O280 O 0.28353 0.6531 0.71907 0.0
O281 O 0.32276 0.64698 0.74721 0.0
O282 O 0.29464 0.63338 0.76002 0.0
C283 C 0.29924 0.58215 0.73373 0.0
O284 O 0.33635 0.61701 0.7116 0.0
O285 O 0.31444 0.63522 0.69377 0.0
In286 In 0.1313 0.5433 0.47197 0.0
O287 O 0.16258 0.52837 0.48291 0.0
O288 O 0.16388 0.55905 0.46904 0.0
C289 C 0.11147 0.50686 0.46152 0.0
C290 C 0.12336 0.56639 0.43688 0.0
C291 C 0.11342 0.55354 0.50955 0.0
O292 O 0.13064 0.51032 0.45664 0.0
O293 O 0.10254 0.52166 0.47166 0.0
O294 O 0.10928 0.56358 0.49267 0.0
O295 O 0.12719 0.53915 0.50752 0.0
C296 C 0.17396 0.54384 0.47723 0.0
O297 O 0.12569 0.57501 0.45488 0.0
O298 O 0.12477 0.54641 0.43689 0.0
In299 In 0.3774 0.44632 0.9649 0.0
O300 O 0.38082 0.41698 0.9436 0.0
O301 O 0.37036 0.44604 0.92975 0.0
C302 C 0.40118 0.42942 0.99646 0.0
C303 C 0.33669 0.44715 0.97784 0.0
C304 C 0.39619 0.48432 0.95766 0.0
O305 O 0.40769 0.4312 0.97762 0.0
O306 O 0.38212 0.43492 -0.00082 0.0
O307 O 0.37652 0.48272 0.96116 0.0
O308 O 0.40603 0.46694 0.95767 0.0
C309 C 0.3748 0.42668 0.92708 0.0
O310 O 0.35049 0.45982 0.98507 0.0
O311 O 0.34354 0.43378 0.96455 0.0
In312 In 0.72808 0.69104 0.86933 0.0
O313 O 0.74136 0.70629 0.8996 0.0
O314 O 0.7241 0.67749 0.90264 0.0
C315 C 0.71858 0.73003 0.85415 0.0
C316 C 0.69353 0.66681 0.86222 0.0
C317 C 0.76286 0.67746 0.84814 0.0
O318 O 0.73276 0.71832 0.84623 0.0
O319 O 0.70925 0.72225 0.87012 0.0
O320 O 0.7442 0.67436 0.84153 0.0
O321 O 0.76392 0.68632 0.86606 0.0
C322 C 0.73408 0.69218 0.91184 0.0
O323 O 0.69455 0.68616 0.85709 0.0
O324 O 0.7104 0.65935 0.87014 0.0
In325 In 0.53676 0.47255 0.13302 0.0
O326 O 0.52132 0.47459 0.16577 0.0
O327 O 0.54889 0.49319 0.16026 0.0
C328 C 0.50344 0.4547 0.11274 0.0
C329 C 0.56433 0.44018 0.13672 0.0
C330 C 0.54427 0.50557 0.10682 0.0
O331 O 0.50149 0.47064 0.12472 0.0
O332 O 0.52207 0.4475 0.1113 0.0
O333 O 0.55899 0.49337 0.11294 0.0
O334 O 0.52617 0.50126 0.11422 0.0
C335 C 0.53468 0.48753 0.1732 0.0
O336 O 0.56687 0.45474 0.12312 0.0
O337 O 0.54812 0.4422 0.14836 0.0
In338 In 0.76575 0.29065 0.38836 0.0
O339 O 0.78393 0.32192 0.38397 0.0
O340 O 0.79876 0.29642 0.40065 0.0
C341 C 0.73362 0.30011 0.36168 0.0
C342 C 0.75244 0.29054 0.42901 0.0
C343 C 0.7799 0.25564 0.36805 0.0
O344 O 0.75145 0.30928 0.3606 0.0
O345 O 0.73189 0.28696 0.37668 0.0
O346 O 0.76379 0.25532 0.37998 0.0
O347 O 0.78893 0.27342 0.36661 0.0
C348 C 0.80021 0.31517 0.39367 0.0
O349 O 0.76217 0.27507 0.42076 0.0
O350 O 0.74905 0.30593 0.41662 0.0
In351 In 0.96476 0.51783 0.6371 0.0
O352 O 0.93444 0.53608 0.62823 0.0
O353 O 0.95709 0.55109 0.64822 0.0
C354 C 0.9587 0.48123 0.61599 0.0
C355 C 0.96509 0.50491 0.67788 0.0
C356 C 0.99734 0.53299 0.61378 0.0
O357 O 0.94473 0.49564 0.61675 0.0
O358 O 0.97531 0.48501 0.6266 0.0
O359 O 0.99882 0.53031 0.63361 0.0
O360 O 0.97952 0.52827 0.60597 0.0
C361 C 0.93955 0.55241 0.63868 0.0
O362 O 0.98127 0.5126 0.66883 0.0
O363 O 0.94885 0.50337 0.66621 0.0
In364 In 0.72672 0.30374 0.62942 0.0
O365 O 0.71642 0.2908 0.59721 0.0
O366 O 0.74208 0.31271 0.59789 0.0
C367 C 0.7195 0.26701 0.65011 0.0
C368 C 0.69301 0.32992 0.63435 0.0
C369 C 0.76468 0.31224 0.64718 0.0
O370 O 0.72033 0.268 0.63008 0.0
O371 O 0.72213 0.28452 0.65954 0.0
O372 O 0.74852 0.32369 0.65058 0.0
O373 O 0.76172 0.29717 0.63431 0.0
C374 C 0.73008 0.30112 0.5868 0.0
O375 O 0.71047 0.33635 0.62688 0.0
O376 O 0.69299 0.31072 0.63993 0.0
In377 In 0.95098 0.48188 0.87858 0.0
O378 O 0.91826 0.46629 0.87409 0.0
O379 O 0.94233 0.44876 0.88973 0.0
C380 C 0.94248 0.51989 0.89616 0.0
C381 C 0.95508 0.48524 0.83608 0.0
C382 C 0.98703 0.47383 0.9002 0.0
O383 O 0.93146 0.50356 0.90011 0.0
O384 O 0.95711 0.51711 0.88273 0.0
O385 O 0.9864 0.47369 0.88015 0.0
O386 O 0.96958 0.47794 0.90915 0.0
C387 C 0.92364 0.44899 0.88267 0.0
O388 O 0.96459 0.47117 0.84674 0.0
O389 O 0.94365 0.49768 0.84688 0.0
In390 In 0.76359 0.69806 0.11219 0.0
O391 O 0.75096 0.71232 0.08131 0.0
O392 O 0.76123 0.68018 0.0808 0.0
C393 C 0.77431 0.73408 0.13261 0.0
C394 C 0.80131 0.67821 0.11495 0.0
C395 C 0.72783 0.68717 0.13308 0.0
O396 O 0.77473 0.73265 0.1126 0.0
O397 O 0.76844 0.71746 0.14214 0.0
O398 O 0.74476 0.67649 0.13464 0.0
O399 O 0.72881 0.70256 0.1203 0.0
C400 C 0.75387 0.6957 0.07051 0.0
O401 O 0.78415 0.66888 0.1197 0.0
O402 O 0.7992 0.69722 0.10899 0.0
In403 In 0.55319 0.52195 0.37186 0.0
O404 O 0.56941 0.54913 0.3894 0.0
O405 O 0.58435 0.53735 0.36159 0.0
C406 C 0.56164 0.4859 0.39347 0.0
C407 C 0.54773 0.51673 0.32963 0.0
C408 C 0.51632 0.53534 0.38941 0.0
O409 O 0.57068 0.50329 0.39779 0.0
O410 O 0.54913 0.48669 0.37787 0.0
O411 O 0.5216 0.51606 0.38838 0.0
O412 O 0.52937 0.548 0.38097 0.0
C413 C 0.58446 0.55097 0.3763 0.0
O414 O 0.53666 0.52952 0.34037 0.0
O415 O 0.56146 0.50665 0.34017 0.0
In416 In 0.87573 0.72404 0.69423 0.0
O417 O 0.90726 0.72664 0.71195 0.0
O418 O 0.90603 0.7383 0.68033 0.0
C419 C 0.86296 0.71315 0.73363 0.0
C420 C 0.87358 0.69019 0.66788 0.0
C421 C 0.84852 0.7551 0.68263 0.0
O422 O 0.85909 0.73108 0.7255 0.0
O423 O 0.87403 0.70096 0.72217 0.0
O424 O 0.84436 0.73564 0.68026 0.0
O425 O 0.86673 0.75888 0.69005 0.0
C426 C 0.91712 0.73516 0.69673 0.0
O427 O 0.88501 0.70617 0.66395 0.0
O428 O 0.86263 0.69178 0.68455 0.0
In429 In 0.52546 0.63423 0.95776 0.0
O430 O 0.54186 0.62583 0.92626 0.0
O431 O 0.55763 0.64656 0.94772 0.0
C432 C 0.48905 0.6122 0.95378 0.0
C433 C 0.51234 0.67488 0.96024 0.0
C434 C 0.54262 0.61075 0.98914 0.0
O435 O 0.50126 0.61556 0.93817 0.0
O436 O 0.49495 0.62052 0.97103 0.0
O437 O 0.53574 0.62936 0.99218 0.0
O438 O 0.54121 0.60426 0.97023 0.0
C439 C 0.55812 0.63692 0.93019 0.0
O440 O 0.5242 0.66649 0.97405 0.0
O441 O 0.5069 0.66269 0.94529 0.0
In442 In 0.62836 0.27093 0.19332 0.0
O443 O 0.62592 0.28811 0.16148 0.0
O444 O 0.63947 0.30469 0.18762 0.0
C445 C 0.64744 0.23575 0.17783 0.0
C446 C 0.58596 0.26542 0.19732 0.0
C447 C 0.64651 0.27948 0.23128 0.0
O448 O 0.65453 0.25423 0.17468 0.0
O449 O 0.63001 0.23514 0.18769 0.0
O450 O 0.62853 0.28674 0.22619 0.0
O451 O 0.65505 0.2679 0.21739 0.0
C452 C 0.63366 0.30529 0.16845 0.0
O453 O 0.59919 0.25505 0.20825 0.0
O454 O 0.5941 0.27833 0.18438 0.0
In455 In 0.97707 0.36973 0.45059 0.0
O456 O 0.95661 0.37136 0.42056 0.0
O457 O 0.94166 0.37593 0.45053 0.0
C458 C 0.01272 0.38846 0.43578 0.0
C459 C 0.98364 0.32736 0.45105 0.0
C460 C 0.97076 0.38929 0.48811 0.0
O461 O 0.99441 0.39396 0.42973 0.0
O462 O 0.01295 0.37287 0.44833 0.0
O463 O 0.96719 0.3697 0.48558 0.0
O464 O 0.97734 0.39883 0.47176 0.0
C465 C 0.93956 0.37474 0.43065 0.0
O466 O 0.99028 0.33945 0.46557 0.0
O467 O 0.97374 0.33661 0.43631 0.0
In468 In 0.89239 0.27637 0.79549 0.0
O469 O 0.8817 0.29574 0.82437 0.0
O470 O 0.90095 0.31071 0.80089 0.0
C471 C 0.87267 0.23932 0.80338 0.0
C472 C 0.93362 0.26493 0.79692 0.0
C473 C 0.86956 0.29009 0.76205 0.0
O474 O 0.87346 0.25404 0.81703 0.0
O475 O 0.88252 0.2431 0.78634 0.0
O476 O 0.88963 0.28946 0.76158 0.0
O477 O 0.86132 0.28399 0.77925 0.0
C478 C 0.89103 0.31244 0.81822 0.0
O479 O 0.92339 0.26603 0.7797 0.0
O480 O 0.92299 0.26937 0.81333 0.0
In481 In 0.97949 0.63214 0.05391 0.0
O482 O 0.95967 0.6301 0.08448 0.0
O483 O 0.94417 0.62568 0.05486 0.0
C484 C 0.0112 0.60807 0.06976 0.0
C485 C 0.98935 0.67388 0.05359 0.0
C486 C 0.97317 0.61742 0.01415 0.0
O487 O 0.99239 0.60144 0.06774 0.0
O488 O 0.01382 0.62735 0.06489 0.0
O489 O 0.96414 0.634 0.02091 0.0
O490 O 0.9857 0.60883 0.02719 0.0
C491 C 0.94244 0.62666 0.07476 0.0
O492 O 0.996 0.66115 0.03961 0.0
O493 O 0.978 0.66551 0.06781 0.0
In494 In 0.61342 0.72319 0.29079 0.0
O495 O 0.58122 0.72875 0.27541 0.0
O496 O 0.58564 0.73965 0.30712 0.0
C497 C 0.6342 0.70548 0.25778 0.0
C498 C 0.61232 0.69 0.31783 0.0
C499 C 0.63495 0.75998 0.29344 0.0
O500 O 0.61437 0.70854 0.25747 0.0
O501 O 0.64329 0.711 0.27474 0.0
O502 O 0.63386 0.74714 0.30887 0.0
O503 O 0.62466 0.75447 0.27714 0.0
C504 C 0.57325 0.73779 0.29144 0.0
O505 O 0.62529 0.70511 0.32026 0.0
O506 O 0.60008 0.69191 0.30213 0.0
In507 In 0.52109 0.36577 0.54796 0.0
O508 O 0.50973 0.33472 0.53314 0.0
O509 O 0.51706 0.3348 0.56614 0.0
C510 C 0.53241 0.38665 0.51229 0.0
C511 C 0.55745 0.3681 0.57027 0.0
C512 C 0.48467 0.38595 0.55775 0.0
O513 O 0.53442 0.36677 0.514 0.0
O514 O 0.52469 0.39572 0.52835 0.0
O515 O 0.5021 0.39014 0.56681 0.0
O516 O 0.48549 0.37088 0.54456 0.0
C517 C 0.51106 0.32424 0.5502 0.0
O518 O 0.53993 0.37417 0.578 0.0
O519 O 0.55642 0.3611 0.55153 0.0
In520 In 0.69866 0.87876 0.72904 0.0
O521 O 0.71771 0.90934 0.73007 0.0
O522 O 0.6877 0.909 0.74575 0.0
C523 C 0.7338 0.85882 0.71416 0.0
C524 C 0.66909 0.88281 0.69836 0.0
C525 C 0.68791 0.85386 0.76216 0.0
O526 O 0.73186 0.86469 0.73317 0.0
O527 O 0.71823 0.86336 0.70248 0.0
O528 O 0.68325 0.84927 0.74321 0.0
O529 O 0.69711 0.87153 0.76446 0.0
C530 C 0.704 0.91955 0.74058 0.0
O531 O 0.66753 0.86882 0.71265 0.0
O532 O 0.68513 0.89467 0.69995 0.0
In533 In 0.20468 0.61854 0.26799 0.0
O534 O 0.22209 0.58738 0.26227 0.0
O535 O 0.18891 0.58821 0.25599 0.0
C536 C 0.23723 0.64189 0.28273 0.0
C537 C 0.18065 0.61735 0.30335 0.0
C538 C 0.19892 0.63974 0.23136 0.0
O539 O 0.23851 0.62198 0.28058 0.0
O540 O 0.21961 0.64989 0.27748 0.0
O541 O 0.18543 0.64033 0.24625 0.0
O542 O 0.21469 0.62782 0.23475 0.0
C543 C 0.20577 0.57735 0.25638 0.0
O544 O 0.17308 0.62346 0.28579 0.0
O545 O 0.19991 0.61195 0.30275 0.0
In546 In 0.61843 0.94684 0.53274 0.0
O547 O 0.64612 0.94834 0.50941 0.0
O548 O 0.65314 0.95097 0.54229 0.0
C549 C 0.61025 0.98707 0.54505 0.0
C550 C 0.61132 0.91557 0.56133 0.0
C551 C 0.59097 0.9382 0.50105 0.0
O552 O 0.61056 0.9814 0.52584 0.0
O553 O 0.61488 0.97259 0.55811 0.0
O554 O 0.58598 0.94863 0.51739 0.0
O555 O 0.60977 0.93117 0.50102 0.0
C556 C 0.66016 0.95056 0.52353 0.0
O557 O 0.62519 0.91407 0.54693 0.0
O558 O 0.60051 0.93238 0.56062 0.0
In559 In 0.2928 0.38125 0.76102 0.0
O560 O 0.32561 0.38782 0.77521 0.0
O561 O 0.30657 0.36405 0.78963 0.0
C562 C 0.2981 0.35703 0.72609 0.0
C563 C 0.2912 0.42351 0.75336 0.0
C564 C 0.25601 0.36671 0.77763 0.0
O565 O 0.30901 0.3544 0.74271 0.0
O566 O 0.28516 0.37231 0.7269 0.0
O567 O 0.26113 0.36412 0.75843 0.0
O568 O 0.26906 0.37752 0.78836 0.0
C569 C 0.32361 0.37455 0.7901 0.0
O570 O 0.27812 0.41424 0.76537 0.0
O571 O 0.30478 0.41143 0.74497 0.0
In572 In 0.37149 0.54429 0.5199 0.0
O573 O 0.38183 0.57209 0.54121 0.0
O574 O 0.36178 0.54819 0.55416 0.0
C575 C 0.39953 0.56024 0.49178 0.0
C576 C 0.33133 0.54648 0.50494 0.0
C577 C 0.38605 0.50449 0.52776 0.0
O578 O 0.40426 0.55654 0.51094 0.0
O579 O 0.38029 0.55688 0.48709 0.0
O580 O 0.38992 0.51437 0.51082 0.0
O581 O 0.37424 0.51436 0.54053 0.0
C582 C 0.37171 0.5653 0.55717 0.0
O583 O 0.34266 0.53007 0.50292 0.0
O584 O 0.34043 0.56188 0.51394 0.0
In585 In 0.7974 0.11986 0.22464 0.0
O586 O 0.82865 0.11 0.20889 0.0
O587 O 0.81119 0.13502 0.19479 0.0
C588 C 0.80669 0.14648 0.25689 0.0
C589 C 0.79394 0.0782 0.23408 0.0
C590 C 0.75819 0.13221 0.21253 0.0
O591 O 0.80809 0.15189 0.23766 0.0
O592 O 0.80138 0.1274 0.25988 0.0
O593 O 0.77102 0.12328 0.19997 0.0
O594 O 0.76484 0.13407 0.23135 0.0
C595 C 0.82717 0.12305 0.19377 0.0
O596 O 0.78122 0.08758 0.22175 0.0
O597 O 0.8083 0.08988 0.24179 0.0
In598 In 0.6214 0.04759 0.97486 0.0
O599 O 0.6309 0.08015 0.9618 0.0
O600 O 0.6089 0.06171 0.94415 0.0
C601 C 0.59455 0.05834 0.00647 0.0
C602 C 0.66336 0.0418 0.98185 0.0
C603 C 0.60599 0.00908 0.96406 0.0
O604 O 0.59054 0.06192 0.98715 0.0
O605 O 0.61253 0.05013 0.00989 0.0
O606 O 0.6068 0.01551 0.98301 0.0
O607 O 0.61357 0.0218 0.95058 0.0
C608 C 0.61977 0.07848 0.9452 0.0
O609 O 0.6534 0.03242 0.96725 0.0
O610 O 0.65212 0.05396 0.99314 0.0
In611 In 0.85612 0.95869 0.47213 0.0
O612 O 0.86597 0.92997 0.45197 0.0
O613 O 0.84558 0.95321 0.43834 0.0
C614 C 0.87741 0.95095 0.50831 0.0
C615 C 0.81557 0.95772 0.48583 0.0
C616 C 0.87854 0.99224 0.45803 0.0
O617 O 0.87579 0.93718 0.49377 0.0
O618 O 0.86767 0.96813 0.5048 0.0
O619 O 0.85852 0.99276 0.45952 0.0
O620 O 0.88699 0.97491 0.46346 0.0
C621 C 0.85565 0.93607 0.43588 0.0
O622 O 0.82508 0.97484 0.48148 0.0
O623 O 0.82659 0.94114 0.48343 0.0
C624 C 0.26053 0.1743 0.54037 0.0
C625 C 0.2486 0.18826 0.55297 0.0
C626 C 0.25824 0.17413 0.51822 0.0
C627 C 0.24326 0.18785 0.50856 0.0
C628 C 0.2307 0.20152 0.52129 0.0
C629 C 0.23374 0.20176 0.54337 0.0
C630 C 0.27224 0.15969 0.50512 0.0
C631 C 0.2142 0.21599 0.51157 0.0
C632 C 0.25062 0.20364 0.45085 0.0
C633 C 0.23699 0.18939 0.44055 0.0
C634 C 0.25306 0.20308 0.47299 0.0
C635 C 0.24113 0.18831 0.48507 0.0
C636 C 0.22719 0.17401 0.47473 0.0
C637 C 0.2255 0.17453 0.45252 0.0
C638 C 0.26847 0.21823 0.48343 0.0
C639 C 0.21384 0.15838 0.48714 0.0
H640 H 0.27215 0.16397 0.54779 0.0
H641 H 0.22444 0.21248 0.55314 0.0
H642 H 0.26235 0.14888 0.49533 0.0
H643 H 0.28202 0.16932 0.49403 0.0
H644 H 0.28304 0.14993 0.51511 0.0
H645 H 0.20489 0.22469 0.52379 0.0
H646 H 0.22203 0.22776 0.50105 0.0
H647 H 0.20308 0.20663 0.5016 0.0
H648 H 0.25957 0.21505 0.44155 0.0
H649 H 0.21481 0.16363 0.44454 0.0
H650 H 0.28029 0.20919 0.4929 0.0
H651 H 0.25985 0.22884 0.49455 0.0
H652 H 0.27709 0.2282 0.47168 0.0
H653 H 0.22425 0.14755 0.49636 0.0
H654 H 0.20345 0.14866 0.4767 0.0
H655 H 0.20372 0.16701 0.49872 0.0
C656 C 0.0244 0.97488 0.70713 0.0
C657 C 0.03846 0.9846 0.69285 0.0
C658 C 0.02562 0.97898 0.72898 0.0
C659 C 0.04102 0.99346 0.73666 0.0
C660 C 0.05517 0.00346 0.72229 0.0
C661 C 0.05385 0.99874 0.70053 0.0
C662 C 0.01049 0.96775 0.74386 0.0
C663 C 0.07156 0.01926 0.72988 0.0
C664 C 0.02959 0.01852 0.79024 0.0
C665 C 0.0429 0.00677 0.80368 0.0
C666 C 0.02916 0.01463 0.76831 0.0
C667 C 0.04206 0.99834 0.75972 0.0
C668 C 0.05552 0.98639 0.77324 0.0
C669 C 0.05593 0.99089 0.79507 0.0
C670 C 0.01486 0.02793 0.75435 0.0
C671 C 0.06924 0.96865 0.76467 0.0
H672 H 0.01259 0.9638 0.70124 0.0
H673 H 0.06471 0.00631 0.68949 0.0
H674 H 0.01957 0.95884 0.75608 0.0
H675 H 0.00051 0.97956 0.75233 0.0
H676 H -0.00013 0.95647 0.73539 0.0
H677 H 0.08125 0.02577 0.71663 0.0
H678 H 0.06359 0.03263 0.73815 0.0
H679 H 0.08237 0.01161 0.74152 0.0
H680 H 0.01962 0.03093 0.79685 0.0
H681 H 0.06619 0.98176 0.80546 0.0
H682 H 0.00281 0.01767 0.74661 0.0
H683 H 0.02431 0.03551 0.74153 0.0
H684 H 0.00649 0.04056 0.76341 0.0
H685 H 0.05909 0.95642 0.75705 0.0
H686 H 0.07887 0.96093 0.77729 0.0
H687 H 0.08013 0.97487 0.75229 0.0
C688 C 0.24423 0.80762 0.94573 0.0
C689 C 0.2634 0.80299 0.93539 0.0
C690 C 0.24255 0.80615 0.96789 0.0
C691 C 0.26053 0.80006 0.97997 0.0
C692 C 0.27994 0.79537 0.96962 0.0
C693 C 0.28112 0.79681 0.9474 0.0
C694 C 0.22153 0.81113 0.97838 0.0
C695 C 0.29947 0.78898 0.98202 0.0
C696 C 0.25932 0.81569 0.03816 0.0
C697 C 0.25249 0.79677 0.04773 0.0
C698 C 0.26265 0.81681 0.01615 0.0
C699 C 0.2589 0.79862 0.00346 0.0
C700 C 0.25258 0.77932 0.01313 0.0
C701 C 0.24951 0.77861 0.03518 0.0
C702 C 0.2696 0.83761 0.0064 0.0
C703 C 0.24836 0.75962 9e-05 0.0
H704 H 0.23049 0.81237 0.93649 0.0
H705 H 0.296 0.79329 0.93945 0.0
H706 H 0.21601 0.79721 0.9877 0.0
H707 H 0.22347 0.82454 0.98965 0.0
H708 H 0.20902 0.8154 0.96668 0.0
H709 H 0.31336 0.78592 0.97156 0.0
H710 H 0.30373 0.8017 0.99345 0.0
H711 H 0.29615 0.77443 0.9914 0.0
H712 H 0.2617 0.82974 0.04782 0.0
H713 H 0.24422 0.76395 0.04252 0.0
H714 H 0.25689 0.84377 0.99585 0.0
H715 H 0.28396 0.83519 0.99645 0.0
H716 H 0.27317 0.84986 0.0186 0.0
H717 H 0.23482 0.76252 0.98918 0.0
H718 H 0.24457 0.74561 0.01015 0.0
H719 H 0.26239 0.75579 0.99013 0.0
C720 C 0.44319 0.01638 0.28976 0.0
C721 C 0.45933 0.00287 0.29705 0.0
C722 C 0.44059 0.02039 0.26798 0.0
C723 C 0.45436 0.01048 0.25319 0.0
C724 C 0.47101 0.99725 0.26051 0.0
C725 C 0.47335 0.99367 0.28239 0.0
C726 C 0.4228 0.03479 0.26076 0.0
C727 C 0.48594 0.98633 0.24521 0.0
C728 C 0.43383 0.00192 0.19715 0.0
C729 C 0.44417 0.01818 0.186 0.0
C730 C 0.43707 -0.00079 0.21904 0.0
C731 C 0.45081 0.01324 0.23002 0.0
C732 C 0.4612 0.02978 0.21885 0.0
C733 C 0.45783 0.03198 0.19693 0.0
C734 C 0.42585 0.98128 0.23039 0.0
C735 C 0.4758 0.04515 0.23008 0.0
H736 H 0.43234 0.02357 0.30105 0.0
H737 H 0.48583 0.98317 0.28795 0.0
H738 H 0.42913 0.04752 0.25034 0.0
H739 H 0.41116 0.02555 0.25127 0.0
H740 H 0.41431 0.04226 0.27432 0.0
H741 H 0.4986 0.97724 0.25352 0.0
H742 H 0.47686 0.97524 0.23496 0.0
H743 H 0.49356 0.9982 0.23462 0.0
H744 H 0.42329 0.9912 0.18875 0.0
H745 H 0.4658 0.04464 0.18836 0.0
H746 H 0.41562 0.98774 0.24322 0.0
H747 H 0.43769 0.97065 0.23799 0.0
H748 H 0.41582 0.97167 0.2195 0.0
H749 H 0.46706 0.05338 0.243 0.0
H750 H 0.48245 0.0573 0.21913 0.0
H751 H 0.48915 0.0364 0.23756 0.0
C752 C 0.549 0.27824 0.19127 0.0
C753 C 0.56277 0.26271 0.19935 0.0
C754 C 0.52689 0.27584 0.19275 0.0
C755 C 0.5184 0.25724 0.20213 0.0
C756 C 0.53225 0.24152 0.21036 0.0
C757 C 0.55431 0.24455 0.20907 0.0
C758 C 0.51263 0.29314 0.18417 0.0
C759 C 0.52376 0.22129 0.2201 0.0
C760 C 0.4611 0.25655 0.22117 0.0
C761 C 0.45079 0.24702 0.2039 0.0
C762 C 0.48309 0.26032 0.22069 0.0
C763 C 0.49502 0.25393 0.20271 0.0
C764 C 0.48465 0.24426 0.18525 0.0
C765 C 0.4626 0.24114 0.18597 0.0
C766 C 0.49355 0.2711 0.23939 0.0
C767 C 0.4969 0.23691 0.16596 0.0
H768 H 0.55552 0.29238 0.18389 0.0
H769 H 0.56496 0.23249 0.21525 0.0
H770 H 0.50297 0.28687 0.17083 0.0
H771 H 0.50141 0.2985 0.19668 0.0
H772 H 0.52177 0.30711 0.1784 0.0
H773 H 0.53665 0.21071 0.22589 0.0
H774 H 0.51309 0.22509 0.23361 0.0
H775 H 0.51417 0.2125 0.2082 0.0
H776 H 0.45195 0.26118 0.23502 0.0
H777 H 0.45467 0.23361 0.17266 0.0
H778 H 0.50212 0.28554 0.23399 0.0
H779 H 0.50549 0.26033 0.24662 0.0
H780 H 0.4819 0.27575 0.25182 0.0
H781 H 0.50521 0.25055 0.15851 0.0
H782 H 0.48647 0.22939 0.15386 0.0
H783 H 0.50923 0.22526 0.17077 0.0
C784 C 0.97452 0.29086 0.43876 0.0
C785 C 0.98722 0.30423 0.45123 0.0
C786 C 0.97769 0.2688 0.43881 0.0
C787 C 0.99428 0.26004 0.45124 0.0
C788 C 0.00725 0.27352 0.46373 0.0
C789 C 0.00339 0.29547 0.46377 0.0
C790 C 0.96325 0.25487 0.42565 0.0
C791 C 0.02537 0.26479 0.47683 0.0
C792 C 0.99261 0.20166 0.46626 0.0
C793 C 0.00572 0.19267 0.45068 0.0
C794 C 0.9885 0.22357 0.46646 0.0
C795 C 0.99818 0.23678 0.45103 0.0
C796 C 0.01162 0.22778 0.43539 0.0
C797 C 0.01502 0.20575 0.43525 0.0
C798 C 0.9737 0.23256 0.48308 0.0
C799 C 0.02258 0.24142 0.41896 0.0
H800 H 0.96191 0.29762 0.42917 0.0
H801 H 0.01329 0.30584 0.47332 0.0
H802 H 0.97267 0.24624 0.4135 0.0
H803 H 0.95559 0.24274 0.43592 0.0
H804 H 0.95064 0.26412 0.41746 0.0
H805 H 0.03418 0.27747 0.48539 0.0
H806 H 0.01924 0.25323 0.48865 0.0
H807 H 0.03667 0.25613 0.46642 0.0
H808 H 0.98532 0.19151 0.47812 0.0
H809 H 0.02529 0.19881 0.42328 0.0
H810 H 0.96038 0.2411 0.47528 0.0
H811 H 0.98227 0.24427 0.49307 0.0
H812 H 0.967 0.22004 0.49358 0.0
H813 H 0.01059 0.24988 0.40919 0.0
H814 H 0.03295 0.23199 0.40823 0.0
H815 H 0.03242 0.25369 0.42694 0.0
C816 C 0.04315 0.73745 0.6921 0.0
C817 C 0.05197 0.75689 0.69846 0.0
C818 C 0.02109 0.73425 0.69238 0.0
C819 C 0.00756 0.75095 0.69904 0.0
C820 C 0.01638 0.77057 0.7056 0.0
C821 C 0.03851 0.77329 0.70529 0.0
C822 C 0.01226 0.71306 0.68539 0.0
C823 C 0.00242 0.78875 0.71271 0.0
C824 C 0.95041 0.74874 0.67994 0.0
C825 C 0.94001 0.74023 0.69771 0.0
C826 C 0.97236 0.75264 0.68028 0.0
C827 C 0.98414 0.74791 0.69884 0.0
C828 C 0.97366 0.73968 0.71697 0.0
C829 C 0.9517 0.73593 0.71618 0.0
C830 C 0.98299 0.76147 0.66066 0.0
C831 C 0.98572 0.73448 0.73705 0.0
H832 H 0.0535 0.72472 0.68685 0.0
H833 H 0.04527 0.78836 0.71017 0.0
H834 H 0.00248 0.70605 0.69829 0.0
H835 H 0.00171 0.71528 0.67145 0.0
H836 H 0.02497 0.70158 0.68108 0.0
H837 H 0.0118 0.80289 0.7176 0.0
H838 H 0.99158 0.79345 0.69962 0.0
H839 H 0.99234 0.78369 0.72626 0.0
H840 H 0.94143 0.7521 0.66562 0.0
H841 H 0.94371 0.72937 0.72997 0.0
H842 H 0.99482 0.7499 0.65456 0.0
H843 H 0.99172 0.77627 0.66462 0.0
H844 H 0.97144 0.76501 0.64778 0.0
H845 H 0.99768 0.72194 0.73376 0.0
H846 H 0.97509 0.72886 0.74999 0.0
H847 H 0.99448 0.74869 0.74271 0.0
C848 C 0.4721 0.79556 0.97036 0.0
C849 C 0.48327 0.80804 0.95568 0.0
C850 C 0.47617 0.77371 0.97223 0.0
C851 C 0.49198 0.76428 0.95929 0.0
C852 C 0.5036 0.77692 0.94475 0.0
C853 C 0.499 0.79865 0.94302 0.0
C854 C 0.46333 0.76066 0.98774 0.0
C855 C 0.52076 0.76747 0.93088 0.0
C856 C 0.51625 0.71142 0.97509 0.0
C857 C 0.50613 0.69747 0.96098 0.0
C858 C 0.51155 0.7332 0.97497 0.0
C859 C 0.49617 0.74111 0.96059 0.0
C860 C 0.48542 0.72697 0.94678 0.0
C861 C 0.49065 0.70532 0.94704 0.0
C862 C 0.52348 0.74784 0.98977 0.0
C863 C 0.46871 0.7348 0.93143 0.0
H864 H 0.45987 0.80277 0.98012 0.0
H865 H 0.50773 0.80829 0.93171 0.0
H866 H 0.4544 0.74817 0.97907 0.0
H867 H 0.47404 0.75248 -0.0009 0.0
H868 H 0.45184 0.77048 0.99687 0.0
H869 H 0.52884 0.77963 0.92095 0.0
H870 H 0.53286 0.75942 0.94087 0.0
H871 H 0.5138 0.75527 0.92023 0.0
H872 H 0.52828 0.70539 0.98586 0.0
H873 H 0.48272 0.69454 0.9362 0.0
H874 H 0.51215 0.75716 -0.00045 0.0
H875 H 0.53297 0.75935 0.98037 0.0
H876 H 0.53436 0.73905 0.00055 0.0
H877 H 0.45632 0.74392 0.94006 0.0
H878 H 0.46093 0.72158 0.92269 0.0
H879 H 0.47605 0.74573 0.9197 0.0
C880 C 0.54317 0.75629 0.30958 0.0
C881 C 0.55087 0.74483 0.29211 0.0
C882 C 0.52169 0.76215 0.31087 0.0
C883 C 0.5076 0.75619 0.29437 0.0
C884 C 0.51538 0.74494 0.27652 0.0
C885 C 0.53697 0.73947 0.27556 0.0
C886 C 0.51399 0.77434 0.33004 0.0
C887 C 0.5008 0.73818 0.2587 0.0
C888 C 0.44906 0.75055 0.30755 0.0
C889 C 0.4406 0.76921 0.29881 0.0
C890 C 0.47087 0.74618 0.30627 0.0
C891 C 0.48455 0.76092 0.29618 0.0
C892 C 0.47614 0.77993 0.28756 0.0
C893 C 0.45421 0.7838 0.28889 0.0
C894 C 0.47925 0.72566 0.31551 0.0
C895 C 0.49029 0.79609 0.27687 0.0
H896 H 0.5539 0.76054 0.32237 0.0
H897 H 0.54286 0.73058 0.26203 0.0
H898 H 0.50566 0.78903 0.32496 0.0
H899 H 0.50237 0.76459 0.33904 0.0
H900 H 0.52719 0.77878 0.34089 0.0
H901 H 0.50949 0.73013 0.24561 0.0
H902 H 0.48851 0.72716 0.26492 0.0
H903 H 0.49238 0.7522 0.25209 0.0
H904 H 0.43859 0.73921 0.3152 0.0
H905 H 0.44772 0.79828 0.28218 0.0
H906 H 0.4915 0.72909 0.32771 0.0
H907 H 0.48698 0.71611 0.30287 0.0
H908 H 0.4665 0.71593 0.32291 0.0
H909 H 0.50299 0.80126 0.28796 0.0
H910 H 0.48134 0.81032 0.27149 0.0
H911 H 0.49823 0.78882 0.26291 0.0
C912 C 0.51483 0.28917 0.56817 0.0
C913 C 0.50677 0.30123 0.55128 0.0
C914 C 0.51173 0.26712 0.569 0.0
C915 C 0.49988 0.25702 0.55278 0.0
C916 C 0.49135 0.2692 0.53589 0.0
C917 C 0.49512 0.29117 0.53521 0.0
C918 C 0.52141 0.2546 0.58705 0.0
C919 C 0.47824 0.25903 0.51856 0.0
C920 C 0.50729 0.19786 0.54351 0.0
C921 C 0.49013 0.18938 0.55487 0.0
C922 C 0.51079 0.21988 0.54288 0.0
C923 C 0.49649 0.23367 0.55346 0.0
C924 C 0.47901 0.22516 0.56478 0.0
C925 C 0.47618 0.20307 0.56555 0.0
C926 C 0.52985 0.22837 0.53101 0.0
C927 C 0.46319 0.23938 0.5759 0.0
H928 H 0.52399 0.29692 0.58054 0.0
H929 H 0.4888 0.30051 0.52218 0.0
H930 H 0.50877 0.24624 0.59605 0.0
H931 H 0.53228 0.24229 0.58064 0.0
H932 H 0.53045 0.26484 0.59823 0.0
H933 H 0.47215 0.27085 0.50694 0.0
H934 H 0.48793 0.24712 0.5099 0.0
H935 H 0.46452 0.25047 0.52562 0.0
H936 H 0.51813 0.18727 0.53532 0.0
H937 H 0.46279 0.19652 0.57421 0.0
H938 H 0.53992 0.23792 0.54188 0.0
H939 H 0.52458 0.23906 0.51802 0.0
H940 H 0.53971 0.21548 0.52405 0.0
H941 H 0.47135 0.24896 0.58824 0.0
H942 H 0.45017 0.23024 0.58357 0.0
H943 H 0.45611 0.25068 0.56435 0.0
C944 C 0.9663 0.24933 0.78068 0.0
C945 C 0.95638 0.25945 0.79785 0.0
C946 C 0.988 0.24419 0.78142 0.0
C947 C 7e-05 0.24976 0.79957 0.0
C948 C 0.99013 0.26012 0.81689 0.0
C949 C 0.96833 0.26463 0.81591 0.0
C950 C 0.99799 0.23275 0.76285 0.0
C951 C 0.00256 0.26667 0.83634 0.0
C952 C 0.05217 0.22176 0.81136 0.0
C953 C 0.067 0.23627 0.80327 0.0
C954 C 0.03028 0.22574 0.80986 0.0
C955 C 0.02315 0.2449 0.80046 0.0
C956 C 0.0381 0.25964 0.79233 0.0
C957 C 0.05988 0.25502 0.79363 0.0
C958 C 0.0148 0.20947 0.81833 0.0
C959 C 0.0311 0.28042 0.78257 0.0
H960 H 0.95704 0.24523 0.76675 0.0
H961 H 0.96071 0.27259 0.82915 0.0
H962 H 0.01079 0.24265 0.75586 0.0
H963 H 0.00541 0.21772 0.76833 0.0
H964 H 0.98625 0.22898 0.75021 0.0
H965 H 0.9925 0.27493 0.84827 0.0
H966 H 0.00979 0.2525 0.84394 0.0
H967 H 0.01576 0.27741 0.83168 0.0
H968 H 0.05767 0.20717 0.81869 0.0
H969 H 0.07135 0.26629 0.78744 0.0
H970 H 0.00348 0.20476 0.80567 0.0
H971 H 0.00534 0.21646 0.83146 0.0
H972 H 0.02292 0.19499 0.82434 0.0
H973 H 0.02046 0.27738 0.76886 0.0
H974 H 0.04475 0.29018 0.77707 0.0
H975 H 0.02188 0.28975 0.79436 0.0
C976 C 0.98293 0.71077 0.06647 0.0
C977 C 0.99409 0.69684 0.05316 0.0
C978 C 0.98688 0.73269 0.06598 0.0
C979 C 0.00259 0.7408 0.05205 0.0
C980 C 0.01404 0.72678 0.03869 0.0
C981 C 0.00953 0.70494 0.0393 0.0
C982 C 0.97418 0.74719 0.08029 0.0
C983 C 0.0311 0.73483 0.02386 0.0
C984 C -6e-05 0.79934 0.03766 0.0
C985 C 0.01446 0.80813 0.05207 0.0
C986 C 0.996 0.77739 0.03738 0.0
C987 C 0.0071 0.76396 0.05163 0.0
C988 C 0.02211 0.77273 0.0659 0.0
C989 C 0.02549 0.79475 0.06605 0.0
C990 C 0.97969 0.76861 0.02213 0.0
C991 C 0.03445 0.75888 0.08112 0.0
H992 H 0.97089 0.70457 0.07713 0.0
H993 H 0.01822 0.69418 0.02902 0.0
H994 H 0.98497 0.75577 0.09125 0.0
H995 H 0.96579 0.75933 0.07063 0.0
H996 H 0.96224 0.73839 0.08988 0.0
H997 H 0.0387 0.72181 0.01467 0.0
H998 H 0.02423 0.74646 0.01253 0.0
H999 H 0.04357 0.74325 0.03306 0.0
H1000 H 0.99135 0.80966 0.02687 0.0
H1001 H 0.03683 0.8015 0.07712 0.0
H1002 H 0.96671 0.76077 0.03114 0.0
H1003 H 0.98703 0.75636 0.01181 0.0
H1004 H 0.97266 0.78115 0.01188 0.0
H1005 H 0.02336 0.75088 0.09226 0.0
H1006 H 0.04621 0.76809 0.09054 0.0
H1007 H 0.04298 0.74625 0.07226 0.0
C1008 C 0.19997 0.45143 0.25567 0.0
C1009 C 0.20572 0.44234 0.23618 0.0
C1010 C 0.20027 0.47353 0.25851 0.0
C1011 C 0.20627 0.48682 0.24136 0.0
C1012 C 0.21208 0.47772 0.22164 0.0
C1013 C 0.21183 0.45555 0.21931 0.0
C1014 C 0.19414 0.48267 0.27984 0.0
C1015 C 0.21838 0.49141 0.20296 0.0
C1016 C 0.18787 0.54418 0.24397 0.0
C1017 C 0.2062 0.55444 0.25136 0.0
C1018 C 0.18779 0.52221 0.24022 0.0
C1019 C 0.20644 0.51025 0.24414 0.0
C1020 C 0.22509 0.52058 0.25129 0.0
C1021 C 0.22477 0.54259 0.25474 0.0
C1022 C 0.16765 0.51174 0.23241 0.0
C1023 C 0.24525 0.50832 0.25573 0.0
H1024 H 0.19527 0.44126 0.26876 0.0
H1025 H 0.2162 0.44857 0.20418 0.0
H1026 H 0.20738 0.4924 0.28623 0.0
H1027 H 0.1802 0.49332 0.27804 0.0
H1028 H 0.19015 0.47013 0.29162 0.0
H1029 H 0.22239 0.48184 0.18868 0.0
H1030 H 0.20522 0.5024 0.19887 0.0
H1031 H 0.23234 0.50132 0.20719 0.0
H1032 H 0.1735 0.5533 0.24129 0.0
H1033 H 0.23897 0.55046 0.2605 0.0
H1034 H 0.16189 0.50017 0.24441 0.0
H1035 H 0.17087 0.50274 0.2176 0.0
H1036 H 0.1548 0.52343 0.22926 0.0
H1037 H 0.24234 0.49652 0.26851 0.0
H1038 H 0.25854 0.51883 0.26069 0.0
H1039 H 0.2502 0.49937 0.24138 0.0
C1040 C 0.70051 0.04585 0.74901 0.0
C1041 C 0.71497 0.05362 0.76404 0.0
C1042 C 0.69884 0.02398 0.74503 0.0
C1043 C 0.71165 0.00959 0.75666 0.0
C1044 C 0.72624 0.01737 0.7719 0.0
C1045 C 0.72787 0.03933 0.77526 0.0
C1046 C 0.68338 0.01626 0.72837 0.0
C1047 C 0.73992 0.00249 0.78485 0.0
C1048 C 0.69307 0.95228 0.76017 0.0
C1049 C 0.70637 0.94238 0.74532 0.0
C1050 C 0.69478 0.97415 0.76423 0.0
C1051 C 0.70988 0.98637 0.75284 0.0
C1052 C 0.72331 0.97642 0.7378 0.0
C1053 C 0.72153 0.95449 0.73437 0.0
C1054 C 0.68045 0.98417 0.78066 0.0
C1055 C 0.73937 0.989 0.72513 0.0
H1056 H 0.69056 0.05689 0.7403 0.0
H1057 H 0.73895 0.0453 0.78702 0.0
H1058 H 0.69192 0.0068 0.71618 0.0
H1059 H 0.67138 0.00566 0.73576 0.0
H1060 H 0.67497 0.02955 0.72035 0.0
H1061 H 0.75023 0.0111 0.79629 0.0
H1062 H 0.72971 0.99125 0.79382 0.0
H1063 H 0.75016 0.99289 0.77419 0.0
H1064 H 0.68137 0.94293 0.76868 0.0
H1065 H 0.73173 0.94689 0.72274 0.0
H1066 H 0.67033 0.99647 0.77311 0.0
H1067 H 0.69015 0.99222 0.79298 0.0
H1068 H 0.66998 0.97233 0.78855 0.0
H1069 H 0.73118 0.00167 0.71599 0.0
H1070 H 0.74844 0.97888 0.71386 0.0
H1071 H 0.75077 0.99692 0.73599 0.0
C1072 C 0.21581 0.47737 -0.00026 0.0
C1073 C 0.20422 0.46037 0.00821 0.0
C1074 C 0.23736 0.47498 0.99448 0.0
C1075 C 0.24765 0.45537 0.99855 0.0
C1076 C 0.23602 0.43825 0.00738 0.0
C1077 C 0.21431 0.44086 0.01177 0.0
C1078 C 0.24907 0.49338 0.98446 0.0
C1079 C 0.24658 0.41732 0.01255 0.0
C1080 C 0.29851 0.44195 0.96904 0.0
C1081 C 0.31403 0.44855 0.98356 0.0
C1082 C 0.27682 0.44427 0.97363 0.0
C1083 C 0.27057 0.45276 0.99351 0.0
C1084 C 0.28623 0.45893 0.00846 0.0
C1085 C 0.30782 0.45709 0.00314 0.0
C1086 C 0.26062 0.43809 0.95705 0.0
C1087 C 0.28017 0.46743 0.03006 0.0
H1088 H 0.20793 0.49243 0.99692 0.0
H1089 H 0.20535 0.42779 0.01856 0.0
H1090 H 0.26228 0.49853 0.99492 0.0
H1091 H 0.25621 0.48833 0.96914 0.0
H1092 H 0.23852 0.50722 0.98149 0.0
H1093 H 0.23542 0.40584 0.01999 0.0
H1094 H 0.25314 0.41008 0.99788 0.0
H1095 H 0.2601 0.41999 0.02355 0.0
H1096 H 0.30334 0.43554 0.9538 0.0
H1097 H 0.31987 0.46209 0.0144 0.0
H1098 H 0.25052 0.452 0.95307 0.0
H1099 H 0.24996 0.42555 0.96336 0.0
H1100 H 0.26814 0.43214 0.94222 0.0
H1101 H 0.2712 0.4825 0.02829 0.0
H1102 H 0.29426 0.47044 0.04026 0.0
H1103 H 0.26957 0.45597 0.03829 0.0
C1104 C 0.77763 0.04256 0.22795 0.0
C1105 C 0.7926 0.0552 0.23854 0.0
C1106 C 0.77682 0.02053 0.23129 0.0
C1107 C 0.79126 0.01099 0.24565 0.0
C1108 C 0.80613 0.02374 0.25671 0.0
C1109 C 0.80666 0.04571 0.25297 0.0
C1110 C 0.7608 0.00743 0.21915 0.0
C1111 C 0.82171 0.01412 0.27224 0.0
C1112 C 0.77877 0.95598 0.2671 0.0
C1113 C 0.79184 0.94316 0.2544 0.0
C1114 C 0.77839 0.97812 0.26443 0.0
C1115 C 0.79129 0.98757 0.2486 0.0
C1116 C 0.80437 0.97467 0.23562 0.0
C1117 C 0.80453 0.95261 0.23872 0.0
C1118 C 0.76434 0.9914 0.27864 0.0
C1119 C 0.81825 0.98418 0.21849 0.0
H1120 H 0.76673 0.04984 0.21676 0.0
H1121 H 0.81823 0.05543 0.26124 0.0
H1122 H 0.76918 0.99582 0.20885 0.0
H1123 H 0.75078 0.9982 0.23035 0.0
H1124 H 0.75028 0.01737 0.20904 0.0
H1125 H 0.83168 0.02634 0.28017 0.0
H1126 H 0.81306 0.00499 0.2846 0.0
H1127 H 0.83232 0.00282 0.26384 0.0
H1128 H 0.76897 0.94873 0.27927 0.0
H1129 H 0.81464 0.94275 0.22885 0.0
H1130 H 0.75298 0.00071 0.26889 0.0
H1131 H 0.77416 0.00294 0.28765 0.0
H1132 H 0.7552 0.98158 0.29012 0.0
H1133 H 0.80835 0.99332 0.20711 0.0
H1134 H 0.82725 0.9719 0.20954 0.0
H1135 H 0.82975 0.99546 0.22565 0.0
C1136 C 0.69634 0.04769 0.00308 0.0
C1137 C 0.68645 0.03913 0.98507 0.0
C1138 C 0.71832 0.04555 0.00616 0.0
C1139 C 0.73069 0.03481 0.99072 0.0
C1140 C 0.72079 0.02616 0.97249 0.0
C1141 C 0.69873 0.02832 0.96994 0.0
C1142 C 0.72831 0.05482 0.02591 0.0
C1143 C 0.7335 0.01481 0.9556 0.0
C1144 C 0.78957 0.04785 0.99089 0.0
C1145 C 0.79796 0.03061 0.00223 0.0
C1146 C 0.76776 0.04908 0.98641 0.0
C1147 C 0.75404 0.03279 0.99368 0.0
C1148 C 0.76252 0.01505 0.00461 0.0
C1149 C 0.78443 0.01412 0.00865 0.0
C1150 C 0.75933 0.06809 0.97443 0.0
C1151 C 0.74835 0.99746 0.01273 0.0
H1152 H 0.68689 0.05602 0.01482 0.0
H1153 H 0.69115 0.02176 0.95594 0.0
H1154 H 0.73676 0.04219 0.03487 0.0
H1155 H 0.74028 0.06697 0.02144 0.0
H1156 H 0.7164 0.0623 0.03658 0.0
H1157 H 0.72338 0.00899 0.94236 0.0
H1158 H 0.74573 0.02568 0.94899 0.0
H1159 H 0.74201 0.00107 0.96265 0.0
H1160 H 0.8 0.06059 0.98583 0.0
H1161 H 0.79084 0.00079 0.01748 0.0
H1162 H 0.74874 0.0775 0.98492 0.0
H1163 H 0.7497 0.06282 0.96064 0.0
H1164 H 0.77227 0.07861 0.96862 0.0
H1165 H 0.73719 0.0039 0.02476 0.0
H1166 H 0.75755 0.9843 0.02007 0.0
H1167 H 0.73863 0.9909 -0.00043 0.0
C1168 C 0.30666 0.45614 0.73701 0.0
C1169 C 0.29126 0.44675 0.7501 0.0
C1170 C 0.30755 0.47826 0.73442 0.0
C1171 C 0.29267 0.49126 0.74519 0.0
C1172 C 0.27694 0.48185 0.75825 0.0
C1173 C 0.27643 0.45967 0.76055 0.0
C1174 C 0.32452 0.48772 0.72032 0.0
C1175 C 0.2608 0.49523 0.76993 0.0
C1176 C 0.30798 0.54898 0.75377 0.0
C1177 C 0.29702 0.55905 0.7372 0.0
C1178 C 0.30646 0.52693 0.75675 0.0
C1179 C 0.2937 0.51472 0.74281 0.0
C1180 C 0.28239 0.52485 0.72623 0.0
C1181 C 0.28418 0.54691 0.72363 0.0
C1182 C 0.31873 0.51666 0.77464 0.0
C1183 C 0.26863 0.51235 0.71105 0.0
H1184 H 0.31818 0.44622 0.72891 0.0
H1185 H 0.26451 0.45247 0.7707 0.0
H1186 H 0.31708 0.49733 0.70755 0.0
H1187 H 0.33477 0.49855 0.72972 0.0
H1188 H 0.33472 0.47538 0.71288 0.0
H1189 H 0.24943 0.48544 0.77922 0.0
H1190 H 0.26903 0.50628 0.78093 0.0
H1191 H 0.25171 0.50509 0.75848 0.0
H1192 H 0.3179 0.55832 0.76431 0.0
H1193 H 0.27566 0.55463 0.7108 0.0
H1194 H 0.33037 0.50516 0.76806 0.0
H1195 H 0.30776 0.50762 0.78508 0.0
H1196 H 0.32742 0.52847 0.78445 0.0
H1197 H 0.27853 0.50072 0.70223 0.0
H1198 H 0.26039 0.52272 0.69938 0.0
H1199 H 0.25652 0.50319 0.72 0.0
C1200 C 0.30051 0.53229 0.48436 0.0
C1201 C 0.30874 0.54713 0.49876 0.0
C1202 C 0.27875 0.532 0.47943 0.0
C1203 C 0.2649 0.54653 0.48961 0.0
C1204 C 0.2732 0.56171 0.50398 0.0
C1205 C 0.29509 0.56199 0.50818 0.0
C1206 C 0.27054 0.51596 0.46361 0.0
C1207 C 0.25889 0.57718 0.51548 0.0
C1208 C 0.20982 0.55775 0.46766 0.0
C1209 C 0.19722 0.54419 0.48004 0.0
C1210 C 0.23197 0.55829 0.47021 0.0
C1211 C 0.2416 0.54538 0.4859 0.0
C1212 C 0.2289 0.5317 0.4985 0.0
C1213 C 0.20686 0.53107 0.49521 0.0
C1214 C 0.24505 0.57269 0.45614 0.0
C1215 C 0.23854 0.51805 0.51573 0.0
H1216 H 0.31109 0.52086 0.47699 0.0
H1217 H 0.30141 0.57339 0.51944 0.0
H1218 H 0.25976 0.50458 0.47169 0.0
H1219 H 0.26114 0.52406 0.45108 0.0
H1220 H 0.28358 0.50686 0.45593 0.0
H1221 H 0.26792 0.58817 0.52594 0.0
H1222 H 0.24969 0.58674 0.50389 0.0
H1223 H 0.24726 0.56831 0.52535 0.0
H1224 H 0.20237 0.56778 0.45579 0.0
H1225 H 0.1971 0.52065 0.50486 0.0
H1226 H 0.25759 0.56336 0.44796 0.0
H1227 H 0.25317 0.58489 0.46593 0.0
H1228 H 0.23524 0.58088 0.44397 0.0
H1229 H 0.25054 0.50714 0.5088 0.0
H1230 H 0.22643 0.50843 0.52423 0.0
H1231 H 0.24689 0.52824 0.52745 0.0
C1232 C 0.76024 0.67938 0.03504 0.0
C1233 C 0.75004 0.69482 0.04742 0.0
C1234 C 0.75773 0.67901 0.0129 0.0
C1235 C 0.7443 0.69412 0.00304 0.0
C1236 C 0.7336 0.70946 0.01555 0.0
C1237 C 0.73682 0.70979 0.03761 0.0
C1238 C 0.76973 0.66267 5e-05 0.0
C1239 C 0.71877 0.72552 0.00563 0.0
C1240 C 0.75211 0.70595 0.94438 0.0
C1241 C 0.73669 0.69285 0.93511 0.0
C1242 C 0.75484 0.70645 0.96651 0.0
C1243 C 0.74152 0.69389 0.97961 0.0
C1244 C 0.72571 0.68088 0.97031 0.0
C1245 C 0.72364 0.68035 0.94813 0.0
C1246 C 0.77213 0.72022 0.97586 0.0
C1247 C 0.71094 0.66757 0.98378 0.0
H1248 H 0.77063 0.6679 0.0426 0.0
H1249 H 0.72886 0.72169 0.04721 0.0
H1250 H 0.75842 0.65256 0.99107 0.0
H1251 H 0.78005 0.67074 0.98823 0.0
H1252 H 0.7798 0.65225 0.01014 0.0
H1253 H 0.7111 0.7359 0.01767 0.0
H1254 H 0.72764 0.73568 0.99428 0.0
H1255 H 0.70617 0.71723 0.99649 0.0
H1256 H 0.76226 0.71557 0.93431 0.0
H1257 H 0.71159 0.67031 0.94099 0.0
H1258 H 0.78329 0.71028 0.98522 0.0
H1259 H 0.76512 0.73203 0.9869 0.0
H1260 H 0.78129 0.72884 0.96346 0.0
H1261 H 0.72024 0.65582 0.99307 0.0
H1262 H 0.69901 0.65889 0.97409 0.0
H1263 H 0.70244 0.67783 0.99533 0.0
C1264 C 0.53106 0.52676 0.29497 0.0
C1265 C 0.54495 0.51372 0.30653 0.0
C1266 C 0.5284 0.52399 0.27299 0.0
C1267 C 0.53978 0.5077 0.26245 0.0
C1268 C 0.55379 0.49448 0.27408 0.0
C1269 C 0.55626 0.49771 0.29597 0.0
C1270 C 0.51346 0.53848 0.26105 0.0
C1271 C 0.56611 0.47685 0.26341 0.0
C1272 C 0.52034 0.4851 0.2101 0.0
C1273 C 0.53461 0.49429 0.19567 0.0
C1274 C 0.5214 0.48985 0.23184 0.0
C1275 C 0.53702 0.50423 0.23927 0.0
C1276 C 0.55092 0.51421 0.22465 0.0
C1277 C 0.54959 0.50906 0.203 0.0
C1278 C 0.50636 0.47883 0.24697 0.0
C1279 C 0.56766 0.52977 0.23196 0.0
H1280 H 0.52233 0.5392 0.30308 0.0
H1281 H 0.56699 0.48757 0.30485 0.0
H1282 H 0.52217 0.5468 0.24817 0.0
H1283 H 0.5007 0.52899 0.25344 0.0
H1284 H 0.506 0.55055 0.27155 0.0
H1285 H 0.57629 0.46794 0.27476 0.0
H1286 H 0.55497 0.46552 0.25577 0.0
H1287 H 0.57637 0.4835 0.25071 0.0
H1288 H 0.50872 0.47368 0.20449 0.0
H1289 H 0.5606 0.51627 0.19188 0.0
H1290 H 0.49806 0.49067 0.25704 0.0
H1291 H 0.5155 0.46827 0.25774 0.0
H1292 H 0.49428 0.46913 0.23852 0.0
H1293 H 0.56036 0.54235 0.24193 0.0
H1294 H 0.57606 0.53742 0.21843 0.0
H1295 H 0.57956 0.52142 0.24193 0.0
C1296 C 0.75405 0.27522 0.46551 0.0
C1297 C 0.74674 0.29113 0.45175 0.0
C1298 C 0.75032 0.27646 0.48744 0.0
C1299 C 0.73883 0.29393 0.49572 0.0
C1300 C 0.73077 0.30967 0.48181 0.0
C1301 C 0.73492 0.30814 0.45996 0.0
C1302 C 0.75926 0.25943 0.5018 0.0
C1303 C 0.71825 0.32841 0.49007 0.0
C1304 C 0.71673 0.28861 0.5516 0.0
C1305 C 0.73201 0.29963 0.56348 0.0
C1306 C 0.71854 0.28689 0.52944 0.0
C1307 C 0.73617 0.29624 0.51904 0.0
C1308 C 0.75158 0.30746 0.53097 0.0
C1309 C 0.74926 0.30911 0.55306 0.0
C1310 C 0.7017 0.27499 0.51719 0.0
C1311 C 0.77068 0.31751 0.52044 0.0
H1312 H 0.76322 0.26206 0.45922 0.0
H1313 H 0.72918 0.32043 0.44935 0.0
H1314 H 0.77111 0.26654 0.51276 0.0
H1315 H 0.74645 0.25248 0.51172 0.0
H1316 H 0.76708 0.24644 0.49275 0.0
H1317 H 0.7119 0.33848 0.47704 0.0
H1318 H 0.70478 0.32283 0.5 0.0
H1319 H 0.72855 0.33836 0.50034 0.0
H1320 H 0.70332 0.28134 0.55961 0.0
H1321 H 0.76111 0.31762 0.56221 0.0
H1322 H 0.70891 0.26113 0.50902 0.0
H1323 H 0.69482 0.2854 0.50472 0.0
H1324 H 0.68863 0.26924 0.52759 0.0
H1325 H 0.78016 0.30514 0.51219 0.0
H1326 H 0.78113 0.32582 0.53199 0.0
H1327 H 0.76544 0.3291 0.50824 0.0
C1328 C 0.94712 0.4892 0.70956 0.0
C1329 C 0.96477 0.4995 0.70069 0.0
C1330 C 0.94589 0.48545 0.7315 0.0
C1331 C 0.9626 0.49243 0.74485 0.0
C1332 C 0.9807 0.50236 0.7359 0.0
C1333 C 0.98162 0.50567 0.71389 0.0
C1334 C 0.92647 0.47454 0.74046 0.0
C1335 C 0.99874 0.51017 0.74966 0.0
C1336 C 0.94895 0.50483 0.80221 0.0
C1337 C 0.95707 0.487 0.81279 0.0
C1338 C 0.95073 0.5068 0.78009 0.0
C1339 C 0.96063 0.49041 0.76828 0.0
C1340 C 0.96871 0.47228 0.77886 0.0
C1341 C 0.96695 0.47085 0.80105 0.0
C1342 C 0.9421 0.52648 0.76938 0.0
C1343 C 0.97913 0.45439 0.76674 0.0
H1344 H 0.9341 0.48432 0.69939 0.0
H1345 H 0.99527 0.51368 0.70709 0.0
H1346 H 0.93125 0.4609 0.75055 0.0
H1347 H 0.91755 0.48577 0.75071 0.0
H1348 H 0.91564 0.46871 0.7278 0.0
H1349 H 0.01211 0.51669 0.74013 0.0
H1350 H 0.99288 0.5228 0.76049 0.0
H1351 H 0.00485 0.49706 0.75973 0.0
H1352 H 0.94135 0.51737 0.81125 0.0
H1353 H 0.97315 0.45698 0.80918 0.0
H1354 H 0.92974 0.52201 0.75764 0.0
H1355 H 0.955 0.53466 0.76057 0.0
H1356 H 0.93505 0.53785 0.7809 0.0
H1357 H 0.96792 0.44793 0.75476 0.0
H1358 H 0.98429 0.44123 0.77732 0.0
H1359 H 0.9932 0.46043 0.75799 0.0
C1360 C 0.78307 0.93749 0.4962 0.0
C1361 C 0.79309 0.95705 0.49256 0.0
C1362 C 0.76151 0.93653 0.5018 0.0
C1363 C 0.74975 0.95559 0.50381 0.0
C1364 C 0.75986 0.97541 0.50048 0.0
C1365 C 0.78144 0.9759 0.49486 0.0
C1366 C 0.75125 0.9151 0.50524 0.0
C1367 C 0.74782 0.99606 0.50255 0.0
C1368 C 0.6899 0.95213 0.49733 0.0
C1369 C 0.68302 0.95226 0.51851 0.0
C1370 C 0.71159 0.95338 0.49233 0.0
C1371 C 0.72672 0.95475 0.50892 0.0
C1372 C 0.71985 0.95501 0.53034 0.0
C1373 C 0.69805 0.95378 0.53488 0.0
C1374 C 0.71832 0.95309 0.46929 0.0
C1375 C 0.73555 0.95643 0.54843 0.0
H1376 H 0.79202 0.92287 0.49444 0.0
H1377 H 0.78915 0.99106 0.49209 0.0
H1378 H 0.74404 0.91435 0.52131 0.0
H1379 H 0.73825 0.91276 0.49357 0.0
H1380 H 0.76276 0.90181 0.50359 0.0
H1381 H 0.75817 0.01014 0.50002 0.0
H1382 H 0.7347 0.99654 0.49078 0.0
H1383 H 0.74051 0.99722 0.51855 0.0
H1384 H 0.67833 0.95098 0.48463 0.0
H1385 H 0.6928 0.95388 0.55129 0.0
H1386 H 0.72877 0.9392 0.46628 0.0
H1387 H 0.72767 0.96756 0.46555 0.0
H1388 H 0.70455 0.95227 0.45829 0.0
H1389 H 0.74651 0.94262 0.54796 0.0
H1390 H 0.72759 0.95677 0.56419 0.0
H1391 H 0.74539 0.97096 0.54676 0.0
C1392 C 0.17879 0.32572 0.2838 0.0
C1393 C 0.19497 0.34094 0.28221 0.0
C1394 C 0.18036 0.30889 0.29835 0.0
C1395 C 0.19864 0.30723 0.31137 0.0
C1396 C 0.21416 0.3235 0.311 0.0
C1397 C 0.21207 0.34024 0.29648 0.0
C1398 C 0.16329 0.29204 0.29858 0.0
C1399 C 0.23391 0.32229 0.32458 0.0
C1400 C 0.20231 0.26564 0.35505 0.0
C1401 C 0.21309 0.24923 0.34451 0.0
C1402 C 0.19711 0.28457 0.34441 0.0
C1403 C 0.20312 0.28714 0.32289 0.0
C1404 C 0.21407 0.2706 0.31225 0.0
C1405 C 0.21879 0.2518 0.32316 0.0
C1406 C 0.18523 0.3018 0.35615 0.0
C1407 C 0.221 0.27282 0.28936 0.0
H1408 H 0.16545 0.3263 0.27291 0.0
H1409 H 0.22457 0.35205 0.29542 0.0
H1410 H 0.16929 0.27754 0.29055 0.0
H1411 H 0.15913 0.2876 0.31513 0.0
H1412 H 0.14865 0.29737 0.29026 0.0
H1413 H 0.24292 0.33748 0.32456 0.0
H1414 H 0.22981 0.31816 0.34122 0.0
H1415 H 0.24446 0.30956 0.31843 0.0
H1416 H 0.19779 0.26362 0.37155 0.0
H1417 H 0.22718 0.23917 0.31499 0.0
H1418 H 0.17034 0.30576 0.34757 0.0
H1419 H 0.19496 0.31648 0.35672 0.0
H1420 H 0.18116 0.29706 0.37266 0.0
H1421 H 0.20698 0.2757 0.27907 0.0
H1422 H 0.22944 0.25848 0.28346 0.0
H1423 H 0.23173 0.28672 0.28765 0.0
C1424 C 0.96236 0.94634 0.60395 0.0
C1425 C 0.9817 0.95132 0.59408 0.0
C1426 C 0.94382 0.94337 0.59188 0.0
C1427 C 0.94466 0.946 0.56956 0.0
C1428 C 0.96431 0.95043 0.55951 0.0
C1429 C 0.98264 0.95279 0.5719 0.0
C1430 C 0.92324 0.93812 0.60305 0.0
C1431 C 0.96583 0.95373 0.53578 0.0
C1432 C 0.90203 0.92905 0.53056 0.0
C1433 C 0.89194 0.9485 0.52654 0.0
C1434 C 0.91832 0.92758 0.54574 0.0
C1435 C 0.92488 0.94609 0.55671 0.0
C1436 C 0.91393 0.96548 0.55352 0.0
C1437 C 0.89744 0.96638 0.53861 0.0
C1438 C 0.92928 0.90652 0.54916 0.0
C1439 C 0.9206 0.98566 0.56468 0.0
H1440 H 0.96166 0.94503 0.62111 0.0
H1441 H 0.99758 0.9567 0.56423 0.0
H1442 H 0.9124 0.952 0.60232 0.0
H1443 H 0.91513 0.9247 0.595 0.0
H1444 H 0.92578 0.9339 0.62 0.0
H1445 H 0.98245 0.95628 0.53039 0.0
H1446 H 0.95925 0.93979 0.52725 0.0
H1447 H 0.95622 0.96777 0.53112 0.0
H1448 H 0.89769 0.91515 0.52136 0.0
H1449 H 0.88967 0.98146 0.53557 0.0
H1450 H 0.93153 0.90342 0.56637 0.0
H1451 H 0.94527 0.90693 0.54173 0.0
H1452 H 0.9202 0.89313 0.5421 0.0
H1453 H 0.92164 0.98302 0.58207 0.0
H1454 H 0.90943 -0.00101 0.56166 0.0
H1455 H 0.93664 0.99043 0.55911 0.0
C1456 C 0.30095 0.73869 0.85089 0.0
C1457 C 0.2899 0.75455 0.8398 0.0
C1458 C 0.30698 0.71972 0.84075 0.0
C1459 C 0.3015 0.71652 0.81918 0.0
C1460 C 0.29055 0.73262 0.80789 0.0
C1461 C 0.28502 0.75148 0.81831 0.0
C1462 C 0.31891 0.70302 0.85316 0.0
C1463 C 0.28419 0.72975 0.78491 0.0
C1464 C 0.3265 0.67672 0.78169 0.0
C1465 C 0.3104 0.66138 0.78041 0.0
C1466 C 0.32468 0.69403 0.79564 0.0
C1467 C 0.30623 0.69608 0.80836 0.0
C1468 C 0.29077 0.67974 0.80833 0.0
C1469 C 0.29311 0.66251 0.79443 0.0
C1470 C 0.34172 0.71092 0.79555 0.0
C1471 C 0.27081 0.68134 0.82159 0.0
H1472 H 0.30483 0.74107 0.8675 0.0
H1473 H 0.27643 0.76368 0.80969 0.0
H1474 H 0.30901 0.6885 0.85466 0.0
H1475 H 0.33363 0.69844 0.84459 0.0
H1476 H 0.32325 0.70855 0.86935 0.0
H1477 H 0.27594 0.74393 0.77838 0.0
H1478 H 0.29845 0.72654 0.77505 0.0
H1479 H 0.27347 0.71583 0.78337 0.0
H1480 H 0.33999 0.67583 0.77099 0.0
H1481 H 0.28066 0.65063 0.7936 0.0
H1482 H 0.34556 0.71598 0.81199 0.0
H1483 H 0.33585 0.72511 0.78688 0.0
H1484 H 0.35651 0.70533 0.78769 0.0
H1485 H 0.27469 0.68585 0.83817 0.0
H1486 H 0.26174 0.66619 0.82182 0.0
H1487 H 0.2604 0.69395 0.81497 0.0
C1488 C 0.55713 0.06466 0.01769 0.0
C1489 C 0.57827 0.06036 0.02324 0.0
C1490 C 0.54075 0.06266 0.03266 0.0
C1491 C 0.54571 0.05647 0.05371 0.0
C1492 C 0.56718 0.05365 0.05978 0.0
C1493 C 0.58324 0.05551 0.04441 0.0
C1494 C 0.51803 0.06575 0.02554 0.0
C1495 C 0.5731 0.04743 0.08218 0.0
C1496 C 0.50062 0.06109 0.09356 0.0
C1497 C 0.49244 0.04036 0.09335 0.0
C1498 C 0.51856 0.06645 0.08141 0.0
C1499 C 0.52828 0.05075 0.06857 0.0
C1500 C 0.52046 0.02964 0.06885 0.0
C1501 C 0.50271 0.02468 0.08134 0.0
C1502 C 0.52666 0.08903 0.08176 0.0
C1503 C 0.53031 0.01247 0.05526 0.0
H1504 H 0.55321 0.06845 0.00135 0.0
H1505 H 0.59959 0.05229 0.04879 0.0
H1506 H 0.50961 0.05025 0.02586 0.0
H1507 H 0.50953 0.07658 0.03654 0.0
H1508 H 0.51699 0.07235 0.0092 0.0
H1509 H 0.59047 0.04883 0.08507 0.0
H1510 H 0.56455 0.05749 0.09386 0.0
H1511 H 0.5683 0.03072 0.0851 0.0
H1512 H 0.49276 0.07324 0.10291 0.0
H1513 H 0.49643 0.00864 0.08112 0.0
H1514 H 0.52382 0.09659 0.06609 0.0
H1515 H 0.54407 0.08925 0.08459 0.0
H1516 H 0.51874 0.09875 0.09418 0.0
H1517 H 0.5286 0.01667 0.03822 0.0
H1518 H 0.52284 0.99669 0.05792 0.0
H1519 H 0.54756 0.01116 0.05864 0.0
C1520 C 0.20486 0.72551 0.13633 0.0
C1521 C 0.21362 0.74343 0.14622 0.0
C1522 C 0.19954 0.70736 0.1482 0.0
C1523 C 0.2036 0.70707 0.17032 0.0
C1524 C 0.21209 0.72531 0.1804 0.0
C1525 C 0.21678 0.74335 0.16824 0.0
C1526 C 0.19006 0.68837 0.13704 0.0
C1527 C 0.21699 0.72553 0.20391 0.0
C1528 C 0.18077 0.66782 0.20986 0.0
C1529 C 0.19818 0.65428 0.21297 0.0
C1530 C 0.18165 0.68425 0.19478 0.0
C1531 C 0.20052 0.68734 0.1829 0.0
C1532 C 0.21759 0.67286 0.18505 0.0
C1533 C 0.21613 0.65639 0.19994 0.0
C1534 C 0.16292 0.69907 0.19253 0.0
C1535 C 0.23808 0.67571 0.17283 0.0
H1536 H 0.20226 0.72563 0.1193 0.0
H1537 H 0.22361 0.75718 0.17592 0.0
H1538 H 0.20158 0.67503 0.13719 0.0
H1539 H 0.17559 0.6829 0.14552 0.0
H1540 H 0.18583 0.69194 0.12028 0.0
H1541 H 0.22312 0.74116 0.20935 0.0
H1542 H 0.2025 0.72165 0.21317 0.0
H1543 H 0.22906 0.7132 0.20759 0.0
H1544 H 0.16679 0.66615 0.2198 0.0
H1545 H 0.22963 0.64592 0.20223 0.0
H1546 H 0.15951 0.70223 0.17552 0.0
H1547 H 0.16672 0.71453 0.20011 0.0
H1548 H 0.14839 0.69256 0.20015 0.0
H1549 H 0.23481 0.67783 0.15566 0.0
H1550 H 0.24902 0.662 0.17484 0.0
H1551 H 0.24629 0.69027 0.17847 0.0
C1552 C 0.58281 0.92579 0.46411 0.0
C1553 C 0.57675 0.93689 0.48246 0.0
C1554 C 0.57044 0.92681 0.44555 0.0
C1555 C 0.55185 0.9395 0.44536 0.0
C1556 C 0.54534 0.95013 0.46408 0.0
C1557 C 0.55778 0.94855 0.48243 0.0
C1558 C 0.57759 0.91491 0.426 0.0
C1559 C 0.52567 0.96393 0.46452 0.0
C1560 C 0.52966 0.96609 0.39631 0.0
C1561 C 0.51054 0.955 0.39379 0.0
C1562 C 0.54416 0.96024 0.4122 0.0
C1563 C 0.5395 0.94269 0.42552 0.0
C1564 C 0.52114 0.93029 0.42168 0.0
C1565 C 0.50673 0.93675 0.40597 0.0
C1566 C 0.56349 0.97397 0.4159 0.0
C1567 C 0.51589 0.91117 0.43518 0.0
H1568 H 0.59747 0.91673 0.4641 0.0
H1569 H 0.55302 0.95718 0.49656 0.0
H1570 H 0.56418 0.90574 0.41914 0.0
H1571 H 0.58293 0.92638 0.41372 0.0
H1572 H 0.59089 0.90382 0.42946 0.0
H1573 H 0.52265 0.97085 0.48048 0.0
H1574 H 0.52737 0.97713 0.45295 0.0
H1575 H 0.51154 0.95453 0.45976 0.0
H1576 H 0.53262 0.9802 0.38688 0.0
H1577 H 0.49203 0.928 0.40385 0.0
H1578 H 0.5779 0.96402 0.41786 0.0
H1579 H 0.56134 0.98316 0.4308 0.0
H1580 H 0.5662 0.98534 0.40267 0.0
H1581 H 0.53024 0.90127 0.43783 0.0
H1582 H 0.50333 0.90117 0.42783 0.0
H1583 H 0.51015 0.91654 0.45096 0.0
C1584 C 0.28858 0.26551 0.63669 0.0
C1585 C 0.27631 0.24995 0.64687 0.0
C1586 C 0.29414 0.28438 0.64726 0.0
C1587 C 0.28692 0.28778 0.6683 0.0
C1588 C 0.27421 0.27223 0.67846 0.0
C1589 C 0.26922 0.25343 0.66768 0.0
C1590 C 0.30793 0.30051 0.63608 0.0
C1591 C 0.26589 0.2754 0.70077 0.0
C1592 C 0.31252 0.32467 0.70822 0.0
C1593 C 0.29795 0.34151 0.70851 0.0
C1594 C 0.31006 0.30771 0.69396 0.0
C1595 C 0.29245 0.30753 0.67995 0.0
C1596 C 0.27855 0.32519 0.6792 0.0
C1597 C 0.28156 0.34207 0.69342 0.0
C1598 C 0.32545 0.28933 0.69493 0.0
C1599 C 0.2595 0.32554 0.6646 0.0
H1600 H 0.29416 0.26277 0.62063 0.0
H1601 H 0.25962 0.24146 0.67554 0.0
H1602 H 0.29965 0.31606 0.63531 0.0
H1603 H 0.32282 0.30299 0.6452 0.0
H1604 H 0.31212 0.29552 0.61967 0.0
H1605 H 0.25572 0.26199 0.70613 0.0
H1606 H 0.27937 0.27704 0.71201 0.0
H1607 H 0.25647 0.29028 0.70163 0.0
H1608 H 0.32531 0.32428 0.71975 0.0
H1609 H 0.27027 0.35508 0.69355 0.0
H1610 H 0.33033 0.28446 0.67871 0.0
H1611 H 0.31757 0.27548 0.70248 0.0
H1612 H 0.3399 0.29329 0.70427 0.0
H1613 H 0.2641 0.32082 0.64826 0.0
H1614 H 0.25189 0.34146 0.66399 0.0
H1615 H 0.24756 0.31387 0.67031 0.0
C1616 C 0.9017 0.05035 0.95832 0.0
C1617 C 0.90674 0.04358 0.97893 0.0
C1618 C 0.9172 0.0505 0.94224 0.0
C1619 C 0.93801 0.04329 0.94687 0.0
C1620 C 0.94326 0.03692 0.96779 0.0
C1621 C 0.92761 0.03734 0.98361 0.0
C1622 C 0.91118 0.05784 0.92021 0.0
C1623 C 0.9652 0.02883 0.9733 0.0
C1624 C 0.97276 0.01927 0.90397 0.0
C1625 C 0.9882 0.03509 0.90137 0.0
C1626 C 0.95584 0.02205 0.91821 0.0
C1627 C 0.95414 0.0413 0.92975 0.0
C1628 C 0.96902 0.0578 0.92624 0.0
C1629 C 0.98605 0.0544 0.91225 0.0
C1630 C 0.94049 0.00394 0.92177 0.0
C1631 C 0.96745 0.0787 0.93791 0.0
H1632 H 0.88559 0.05524 0.95469 0.0
H1633 H 0.93154 0.03199 -0.00049 0.0
H1634 H 0.92268 0.06991 0.91445 0.0
H1635 H 0.91184 0.04423 0.90903 0.0
H1636 H 0.89494 0.06475 0.91969 0.0
H1637 H 0.96681 0.02493 0.99044 0.0
H1638 H 0.96873 0.01433 0.96391 0.0
H1639 H 0.97736 0.04089 0.96912 0.0
H1640 H 0.97445 0.00429 0.89563 0.0
H1641 H 0.99791 0.06672 0.91012 0.0
H1642 H 0.92387 0.00952 0.91995 0.0
H1643 H 0.94222 0.99789 0.93825 0.0
H1644 H 0.94322 0.99056 0.91058 0.0
H1645 H 0.95105 0.0851 0.93688 0.0
H1646 H 0.97867 0.09075 0.93151 0.0
H1647 H 0.97107 0.07622 0.95498 0.0
C1648 C 0.36159 0.19347 0.27269 0.0
C1649 C 0.35281 0.20819 0.25846 0.0
C1650 C 0.34962 0.18571 0.2899 0.0
C1651 C 0.32867 0.19329 0.29311 0.0
C1652 C 0.31985 0.20826 0.27879 0.0
C1653 C 0.33195 0.21532 0.26152 0.0
C1654 C 0.35932 0.16942 0.30459 0.0
C1655 C 0.2977 0.21707 0.28184 0.0
C1656 C 0.28468 0.16766 0.32492 0.0
C1657 C 0.28415 0.18094 0.34278 0.0
C1658 C 0.30055 0.17008 0.3094 0.0
C1659 C 0.31589 0.18638 0.31172 0.0
C1660 C 0.3165 0.19851 0.33064 0.0
C1661 C 0.30071 0.19549 0.34605 0.0
C1662 C 0.29974 0.15642 0.28971 0.0
C1663 C 0.33244 0.21619 0.33368 0.0
H1664 H 0.37768 0.18782 0.2702 0.0
H1665 H 0.32517 0.22678 0.25058 0.0
H1666 H 0.36038 0.17593 0.32093 0.0
H1667 H 0.34901 0.15513 0.30536 0.0
H1668 H 0.37547 0.16451 0.29941 0.0
H1669 H 0.29338 0.22886 0.26942 0.0
H1670 H 0.2859 0.20399 0.28147 0.0
H1671 H 0.29645 0.22486 0.29761 0.0
H1672 H 0.27203 0.15623 0.32243 0.0
H1673 H 0.30047 0.20572 0.35991 0.0
H1674 H 0.31595 0.15142 0.28489 0.0
H1675 H 0.29286 0.16574 0.27642 0.0
H1676 H 0.2898 0.14203 0.29213 0.0
H1677 H 0.34863 0.21093 0.32913 0.0
H1678 H 0.33283 0.22194 0.35037 0.0
H1679 H 0.32816 0.22975 0.32324 0.0
C1680 C 0.026 0.03785 0.59167 0.0
C1681 C 0.04321 0.0238 0.59335 0.0
C1682 C 0.0252 0.05306 0.57542 0.0
C1683 C 0.04212 0.05434 0.56065 0.0
C1684 C 0.06027 0.0413 0.56326 0.0
C1685 C 0.06057 0.02608 0.57957 0.0
C1686 C 0.00553 0.06664 0.57316 0.0
C1687 C 0.07875 0.04243 0.54799 0.0
C1688 C 0.02669 0.07028 0.50474 0.0
C1689 C 0.03225 0.09183 0.50435 0.0
C1690 C 0.03008 0.0579 0.52291 0.0
C1691 C 0.03952 0.06725 0.54107 0.0
C1692 C 0.04561 0.0889 0.54064 0.0
C1693 C 0.04176 0.10102 0.52228 0.0
C1694 C 0.02314 0.03491 0.5228 0.0
C1695 C 0.05595 0.09929 0.55962 0.0
H1696 H 0.01258 0.03623 0.60235 0.0
H1697 H 0.07398 0.01534 0.58089 0.0
H1698 H 0.0099 0.08354 0.57077 0.0
H1699 H 0.99646 0.06148 0.55894 0.0
H1700 H 0.99495 0.06545 0.58725 0.0
H1701 H 0.09283 0.03361 0.55397 0.0
H1702 H 0.074 0.03546 0.53251 0.0
H1703 H 0.08336 0.05919 0.54505 0.0
H1704 H 0.01928 0.06314 0.49092 0.0
H1705 H 0.04616 0.11767 0.52198 0.0
H1706 H 0.01105 0.03224 0.53537 0.0
H1707 H 0.03687 0.02444 0.52639 0.0
H1708 H 0.01627 0.03003 0.5073 0.0
H1709 H 0.04476 0.09928 0.57325 0.0
H1710 H 0.06079 0.11594 0.55632 0.0
H1711 H 0.07018 0.09011 0.56454 0.0
C1712 C 0.16808 0.7827 0.75356 0.0
C1713 C 0.14636 0.78676 0.7509 0.0
C1714 C 0.17877 0.78917 0.77192 0.0
C1715 C 0.16752 0.80024 0.78796 0.0
C1716 C 0.14558 0.80456 0.78535 0.0
C1717 C 0.13518 0.79761 0.76684 0.0
C1718 C 0.20213 0.78398 0.77419 0.0
C1719 C 0.1332 0.81654 0.80203 0.0
C1720 C 0.19656 0.79552 0.84005 0.0
C1721 C 0.21007 0.8132 0.839 0.0
C1722 C 0.18107 0.79203 0.82445 0.0
C1723 C 0.179 0.80669 0.80753 0.0
C1724 C 0.19104 0.82571 0.80768 0.0
C1725 C 0.20654 0.82872 0.82342 0.0
C1726 C 0.16854 0.77157 0.82493 0.0
C1727 C 0.189 0.84192 0.79012 0.0
H1728 H 0.17675 0.77424 0.74131 0.0
H1729 H 0.11839 0.80085 0.76474 0.0
H1730 H 0.21145 0.79883 0.77604 0.0
H1731 H 0.20475 0.77426 0.78867 0.0
H1732 H 0.20845 0.77512 0.7603 0.0
H1733 H 0.1163 0.81885 0.79745 0.0
H1734 H 0.13375 0.80784 0.81735 0.0
H1735 H 0.14054 0.83233 0.80475 0.0
H1736 H 0.19905 0.78358 0.85222 0.0
H1737 H 0.2168 0.84255 0.82268 0.0
H1738 H 0.17512 0.76045 0.81293 0.0
H1739 H 0.15164 0.77444 0.82083 0.0
H1740 H 0.16929 0.76375 0.84074 0.0
H1741 H 0.19719 0.83595 0.77569 0.0
H1742 H 0.19624 0.85739 0.79459 0.0
H1743 H 0.17207 0.84455 0.78594 0.0
C1744 C 0.46049 0.91363 0.01441 0.0
C1745 C 0.4463 0.90075 0.00311 0.0
C1746 C 0.45334 0.9269 0.03077 0.0
C1747 C 0.43148 0.92704 0.03618 0.0
C1748 C 0.41722 0.91329 0.02554 0.0
C1749 C 0.42478 0.90039 0.00895 0.0
C1750 C 0.46907 0.94143 0.04164 0.0
C1751 C 0.3939 0.91273 0.03117 0.0
C1752 C 0.42245 0.95459 0.08876 0.0
C1753 C 0.41861 0.97547 0.08201 0.0
C1754 C 0.42485 0.93807 0.07398 0.0
C1755 C 0.42367 0.94271 0.052 0.0
C1756 C 0.41806 0.96342 0.04522 0.0
C1757 C 0.41543 0.97954 0.06035 0.0
C1758 C 0.4303 0.91607 0.08183 0.0
C1759 C 0.41671 0.96904 0.02193 0.0
H1760 H 0.47713 0.91397 0.00995 0.0
H1761 H 0.41378 0.89036 0.00029 0.0
H1762 H 0.46467 0.95825 0.03868 0.0
H1763 H 0.46867 0.93887 0.05907 0.0
H1764 H 0.48561 0.9389 0.03597 0.0
H1765 H 0.3855 0.89934 0.02331 0.0
H1766 H 0.39181 0.91131 0.04861 0.0
H1767 H 0.38626 0.92781 0.02618 0.0
H1768 H 0.42471 0.95133 0.10552 0.0
H1769 H 0.41237 0.99565 0.05506 0.0
H1770 H 0.44749 0.91305 0.07932 0.0
H1771 H 0.42138 0.90383 0.07282 0.0
H1772 H 0.42678 0.91418 0.09903 0.0
H1773 H 0.4329 0.96883 0.01492 0.0
H1774 H 0.40971 0.98504 0.01934 0.0
H1775 H 0.40703 0.95717 0.01323 0.0
C1776 C 0.32566 0.78983 0.24084 0.0
C1777 C 0.34727 0.79448 0.2435 0.0
C1778 C 0.31558 0.79304 0.22129 0.0
C1779 C 0.32734 0.80139 0.20401 0.0
C1780 C 0.34908 0.80655 0.20669 0.0
C1781 C 0.35887 0.80287 0.22643 0.0
C1782 C 0.29241 0.7871 0.21904 0.0
C1783 C 0.36199 0.81574 0.18868 0.0
C1784 C 0.30198 0.78706 0.15161 0.0
C1785 C 0.28851 0.80452 0.1484 0.0
C1786 C 0.31601 0.78648 0.16889 0.0
C1787 C 0.31673 0.8039 0.18309 0.0
C1788 C 0.3046 0.82236 0.17879 0.0
C1789 C 0.2905 0.8224 0.16151 0.0
C1790 C 0.32862 0.76646 0.17295 0.0
C1791 C 0.30523 0.84139 0.19336 0.0
H1792 H 0.31664 0.78327 0.25398 0.0
H1793 H 0.37557 0.80655 0.22849 0.0
H1794 H 0.28302 0.80115 0.21404 0.0
H1795 H 0.29056 0.7748 0.20654 0.0
H1796 H 0.28556 0.78085 0.23407 0.0
H1797 H 0.37838 0.81998 0.19368 0.0
H1798 H 0.36298 0.80409 0.17549 0.0
H1799 H 0.35409 0.83016 0.18231 0.0
H1800 H 0.30059 0.77323 0.14144 0.0
H1801 H 0.28026 0.83603 0.15896 0.0
H1802 H 0.32161 0.75786 0.18667 0.0
H1803 H 0.34531 0.77032 0.17709 0.0
H1804 H 0.32858 0.75566 0.159 0.0
H1805 H 0.29641 0.8377 0.20818 0.0
H1806 H 0.29788 0.85563 0.18593 0.0
H1807 H 0.32183 0.84525 0.19787 0.0
C1808 C 0.4397 0.03551 0.41691 0.0
C1809 C 0.45655 0.03429 0.40238 0.0
C1810 C 0.4408 0.04913 0.43454 0.0
C1811 C 0.4592 0.06171 0.43767 0.0
C1812 C 0.47565 0.0615 0.42233 0.0
C1813 C 0.4741 0.0478 0.40484 0.0
C1814 C 0.42287 0.04905 0.45049 0.0
C1815 C 0.49551 0.07469 0.42508 0.0
C1816 C 0.45963 0.10506 0.47978 0.0
C1817 C 0.46927 0.09447 0.49685 0.0
C1818 C 0.45603 0.09458 0.46039 0.0
C1819 C 0.46239 0.07312 0.45808 0.0
C1820 C 0.47222 0.06243 0.47526 0.0
C1821 C 0.47547 0.07322 0.49445 0.0
C1822 C 0.44544 0.10642 0.44242 0.0
C1823 C 0.47939 0.03959 0.47338 0.0
H1824 H 0.42606 0.02516 0.41503 0.0
H1825 H 0.48713 0.047 0.39359 0.0
H1826 H 0.42824 0.04117 0.46532 0.0
H1827 H 0.41824 0.06554 0.45466 0.0
H1828 H 0.40864 0.04051 0.44446 0.0
H1829 H 0.50566 0.07456 0.41063 0.0
H1830 H 0.49137 0.09138 0.42893 0.0
H1831 H 0.50494 0.06835 0.43857 0.0
H1832 H 0.45475 0.12147 0.48162 0.0
H1833 H 0.48297 0.06498 0.50759 0.0
H1834 H 0.43076 0.09798 0.4375 0.0
H1835 H 0.45614 0.10688 0.42841 0.0
H1836 H 0.44123 0.12298 0.44686 0.0
H1837 H 0.46565 0.02928 0.4694 0.0
H1838 H 0.48677 0.03359 0.48826 0.0
H1839 H 0.49111 0.03802 0.4603 0.0
C1840 C 0.17126 0.21666 0.73897 0.0
C1841 C 0.15346 0.20635 0.74747 0.0
C1842 C 0.18052 0.20972 0.71998 0.0
C1843 C 0.1718 0.19196 0.70924 0.0
C1844 C 0.1535 0.18178 0.71744 0.0
C1845 C 0.1445 0.18913 0.73651 0.0
C1846 C 0.19997 0.22114 0.71168 0.0
C1847 C 0.14379 0.16284 0.7064 0.0
C1848 C 0.19182 0.18994 0.65281 0.0
C1849 C 0.21037 0.17785 0.65538 0.0
C1850 C 0.17782 0.19313 0.66985 0.0
C1851 C 0.18253 0.18394 0.68982 0.0
C1852 C 0.19996 0.16983 0.6918 0.0
C1853 C 0.21371 0.16695 0.6745 0.0
C1854 C 0.15925 0.20806 0.66702 0.0
C1855 C 0.20535 0.15948 0.71276 0.0
H1856 H 0.17818 0.23003 0.74734 0.0
H1857 H 0.13074 0.18109 0.74308 0.0
H1858 H 0.21368 0.21006 0.71123 0.0
H1859 H 0.19715 0.22671 0.69519 0.0
H1860 H 0.20436 0.23506 0.72161 0.0
H1861 H 0.12856 0.15786 0.71383 0.0
H1862 H 0.14088 0.16648 0.68939 0.0
H1863 H 0.15502 0.14926 0.70698 0.0
H1864 H 0.18903 0.19824 0.63797 0.0
H1865 H 0.22792 0.1574 0.67651 0.0
H1866 H 0.16318 0.22366 0.67424 0.0
H1867 H 0.14489 0.20189 0.67517 0.0
H1868 H 0.15546 0.21066 0.64997 0.0
H1869 H 0.21228 0.17154 0.7236 0.0
H1870 H 0.21703 0.14638 0.71083 0.0
H1871 H 0.19086 0.15308 0.7205 0.0
C1872 C 0.05318 0.89594 0.98356 0.0
C1873 C 0.03538 0.9016 0.99572 0.0
C1874 C 0.0587 0.90754 0.96529 0.0
C1875 C 0.04602 0.92506 0.95909 0.0
C1876 C 0.02764 0.93035 0.97096 0.0
C1877 C 0.02259 0.9186 0.98915 0.0
C1878 C 0.07842 0.90149 0.95303 0.0
C1879 C 0.01356 0.94881 0.96476 0.0
C1880 C 0.06597 0.97232 0.92781 0.0
C1881 C 0.05598 0.96907 0.90819 0.0
C1882 C 0.06421 0.95725 0.94414 0.0
C1883 C 0.05213 0.93857 0.94072 0.0
C1884 C 0.04346 0.93446 0.92039 0.0
C1885 C 0.04552 0.94977 0.90433 0.0
C1886 C 0.07389 0.9621 0.96555 0.0
C1887 C 0.03057 0.91468 0.91607 0.0
H1888 H 0.06314 0.88283 0.98865 0.0
H1889 H 0.00876 0.92296 0.99846 0.0
H1890 H 0.07464 0.8996 0.93591 0.0
H1891 H 0.09038 0.91437 0.95434 0.0
H1892 H 0.08562 0.8865 0.95895 0.0
H1893 H -0.00061 0.95026 0.97519 0.0
H1894 H 0.02271 0.96385 0.96563 0.0
H1895 H 0.00808 0.94693 0.94811 0.0
H1896 H 0.07421 0.98714 0.93083 0.0
H1897 H 0.03787 0.94712 0.88912 0.0
H1898 H 0.08242 0.94802 0.97184 0.0
H1899 H 0.06108 0.96609 0.977 0.0
H1900 H 0.08514 0.97569 0.96481 0.0
H1901 H 0.03865 0.90042 0.92255 0.0
H1902 H 0.02776 0.91228 0.89881 0.0
H1903 H 0.01494 0.91602 0.92412 0.0
C1904 C 0.26113 0.32597 0.21272 0.0
C1905 C 0.25909 0.34791 0.20962 0.0
C1906 C 0.28039 0.31559 0.20878 0.0
C1907 C 0.29799 0.3274 0.20117 0.0
C1908 C 0.29586 0.34946 0.19731 0.0
C1909 C 0.27642 0.35954 0.2018 0.0
C1910 C 0.28206 0.29207 0.21337 0.0
C1911 C 0.31417 0.36243 0.18883 0.0
C1912 C 0.34952 0.30038 0.2155 0.0
C1913 C 0.35274 0.28742 0.19767 0.0
C1914 C 0.3326 0.31483 0.21623 0.0
C1915 C 0.31879 0.31654 0.19857 0.0
C1916 C 0.32325 0.30506 0.17974 0.0
C1917 C 0.34014 0.29047 0.17956 0.0
C1918 C 0.32836 0.32669 0.23666 0.0
C1919 C 0.30918 0.30686 0.16041 0.0
H1920 H 0.24777 0.31693 0.21881 0.0
H1921 H 0.27482 0.3765 0.19926 0.0
H1922 H 0.28711 0.28341 0.19887 0.0
H1923 H 0.29433 0.28924 0.22572 0.0
H1924 H 0.26679 0.2852 0.21897 0.0
H1925 H 0.30932 0.37891 0.18474 0.0
H1926 H 0.327 0.36319 0.20088 0.0
H1927 H 0.32094 0.35477 0.17446 0.0
H1928 H 0.35932 0.2982 0.2295 0.0
H1929 H 0.3427 0.28064 0.16565 0.0
H1930 H 0.31424 0.31972 0.24463 0.0
H1931 H 0.32477 0.34363 0.23342 0.0
H1932 H 0.34203 0.32582 0.24779 0.0
H1933 H 0.2942 0.29798 0.16324 0.0
H1934 H 0.31694 0.30021 0.14601 0.0
H1935 H 0.30488 0.32368 0.15733 0.0
C1936 C 0.76866 0.17451 0.79922 0.0
C1937 C 0.76975 0.15231 0.80023 0.0
C1938 C 0.78683 0.18698 0.80226 0.0
C1939 C 0.80645 0.17699 0.80695 0.0
C1940 C 0.80739 0.15463 0.80922 0.0
C1941 C 0.78903 0.14248 0.80551 0.0
C1942 C 0.78523 0.21076 0.7993 0.0
C1943 C 0.8279 0.14351 0.81477 0.0
C1944 C 0.85368 0.20855 0.78761 0.0
C1945 C 0.85865 0.22066 0.80563 0.0
C1946 C 0.83741 0.1934 0.78816 0.0
C1947 C 0.82616 0.18995 0.80733 0.0
C1948 C 0.83228 0.20088 0.82602 0.0
C1949 C 0.84833 0.21635 0.82489 0.0
C1950 C 0.83119 0.18232 0.76779 0.0
C1951 C 0.82105 0.19713 0.84688 0.0
H1952 H 0.75377 0.18213 0.79507 0.0
H1953 H 0.78984 0.1253 0.80647 0.0
H1954 H 0.79148 0.21912 0.81349 0.0
H1955 H 0.79508 0.21569 0.78552 0.0
H1956 H 0.76863 0.21608 0.7965 0.0
H1957 H 0.82532 0.12654 0.81893 0.0
H1958 H 0.83896 0.14426 0.80106 0.0
H1959 H 0.83579 0.15155 0.82833 0.0
H1960 H 0.86163 0.21181 0.77268 0.0
H1961 H 0.85226 0.22558 0.83889 0.0
H1962 H 0.81518 0.18778 0.76278 0.0
H1963 H 0.83028 0.1649 0.77026 0.0
H1964 H 0.84256 0.18555 0.75467 0.0
H1965 H 0.80507 0.20456 0.84638 0.0
H1966 H 0.82996 0.20403 0.86047 0.0
H1967 H 0.81878 0.17987 0.84971 0.0
C1968 C 0.04955 0.60123 0.07771 0.0
C1969 C 0.0292 0.59345 0.07308 0.0
C1970 C 0.06737 0.5878 0.07686 0.0
C1971 C 0.06473 0.56638 0.0705 0.0
C1972 C 0.04406 0.55824 0.0669 0.0
C1973 C 0.02652 0.57181 0.0686 0.0
C1974 C 0.08907 0.59679 0.08169 0.0
C1975 C 0.04054 0.5356 0.05971 0.0
C1976 C 0.10663 0.53754 0.03851 0.0
C1977 C 0.11257 0.52148 0.05269 0.0
C1978 C 0.09184 0.55309 0.04452 0.0
C1979 C 0.08343 0.55289 0.06541 0.0
C1980 C 0.09092 0.53783 0.08034 0.0
C1981 C 0.10511 0.52198 0.07365 0.0
C1982 C 0.08393 0.56857 0.02797 0.0
C1983 C 0.083 0.53766 0.10298 0.0
H1984 H 0.05163 0.61795 0.0813 0.0
H1985 H 0.01081 0.56575 0.06492 0.0
H1986 H 0.09849 0.58548 0.09141 0.0
H1987 H 0.09785 0.59943 0.06663 0.0
H1988 H 0.08802 0.6122 0.09025 0.0
H1989 H 0.0234 0.53159 0.05828 0.0
H1990 H 0.04818 0.53314 0.044 0.0
H1991 H 0.04799 0.52433 0.07101 0.0
H1992 H 0.11233 0.53704 0.02226 0.0
H1993 H 0.1099 0.50962 0.08467 0.0
H1994 H 0.08487 0.58509 0.03401 0.0
H1995 H 0.06697 0.56522 0.02442 0.0
H1996 H 0.09311 0.56755 0.01292 0.0
H1997 H 0.08222 0.55405 0.10942 0.0
H1998 H 0.09332 0.52788 0.11345 0.0
H1999 H 0.0667 0.53096 0.10348 0.0
C2000 C 0.65241 0.78989 0.27437 0.0
C2001 C 0.64931 0.77853 0.29329 0.0
C2002 C 0.66865 0.80502 0.27263 0.0
C2003 C 0.68193 0.80902 0.29031 0.0
C2004 C 0.67782 0.79881 0.30994 0.0
C2005 C 0.66158 0.78355 0.31117 0.0
C2006 C 0.67258 0.81547 0.25138 0.0
C2007 C 0.69144 0.80295 0.32924 0.0
C2008 C 0.73896 0.82271 0.27703 0.0
C2009 C 0.73903 0.84487 0.27906 0.0
C2010 C 0.72053 0.8109 0.28096 0.0
C2011 C 0.70174 0.82151 0.28735 0.0
C2012 C 0.70179 0.84386 0.2899 0.0
C2013 C 0.72046 0.85534 0.28556 0.0
C2014 C 0.72107 0.7871 0.2778 0.0
C2015 C 0.68211 0.85562 0.29695 0.0
H2016 H 0.64289 0.78616 0.26051 0.0
H2017 H 0.65913 0.77492 0.32588 0.0
H2018 H 0.67462 0.83287 0.25328 0.0
H2019 H 0.68752 0.80915 0.24442 0.0
H2020 H 0.65943 0.81253 0.23997 0.0
H2021 H 0.68421 0.79639 0.34396 0.0
H2022 H 0.70724 0.79545 0.32698 0.0
H2023 H 0.69406 0.82025 0.3314 0.0
H2024 H 0.75327 0.81455 0.27196 0.0
H2025 H 0.72052 0.87248 0.28725 0.0
H2026 H 0.70949 0.78246 0.26534 0.0
H2027 H 0.71634 0.77891 0.29268 0.0
H2028 H 0.73706 0.7813 0.27304 0.0
H2029 H 0.66943 0.85384 0.28483 0.0
H2030 H 0.68514 0.87283 0.29943 0.0
H2031 H 0.67596 0.8487 0.31196 0.0
C2032 C 0.88803 0.97133 0.06853 0.0
C2033 C 0.88612 0.97546 0.04672 0.0
C2034 C 0.9022 0.95579 0.07602 0.0
C2035 C 0.91506 0.94463 0.06134 0.0
C2036 C 0.91221 0.94787 0.03924 0.0
C2037 C 0.89758 0.96309 0.0322 0.0
C2038 C 0.90427 0.95227 0.09965 0.0
C2039 C 0.92575 0.93643 0.02304 0.0
C2040 C 0.97142 0.9285 0.07412 0.0
C2041 C 0.96989 0.9063 0.07342 0.0
C2042 C 0.95335 0.94126 0.07159 0.0
C2043 C 0.93324 0.93153 0.0688 0.0
C2044 C 0.93134 0.90918 0.07028 0.0
C2045 C 0.94977 0.89676 0.07233 0.0
C2046 C 0.95611 0.96505 0.06999 0.0
C2047 C 0.91008 0.89828 0.06814 0.0
H2048 H 0.87904 0.98077 0.0798 0.0
H2049 H 0.89615 0.96626 0.01533 0.0
H2050 H 0.90566 0.93508 0.10332 0.0
H2051 H 0.91892 0.96014 0.10549 0.0
H2052 H 0.89051 0.95891 0.1085 0.0
H2053 H 0.92066 0.9398 0.00648 0.0
H2054 H 0.94259 0.94142 0.02482 0.0
H2055 H 0.9251 0.91902 0.02568 0.0
H2056 H 0.98693 0.93595 0.07501 0.0
H2057 H 0.94851 0.87958 0.07199 0.0
H2058 H 0.94463 0.97333 0.08048 0.0
H2059 H 0.95284 0.97024 0.05345 0.0
H2060 H 0.97243 0.9702 0.07432 0.0
H2061 H 0.89763 0.90699 0.0771 0.0
H2062 H 0.91066 0.8816 0.0739 0.0
H2063 H 0.90527 0.8981 0.05118 0.0
C2064 C 0.24464 0.67489 0.71096 0.0
C2065 C 0.24733 0.65313 0.70723 0.0
C2066 C 0.22554 0.68509 0.70587 0.0
C2067 C 0.20883 0.67328 0.69648 0.0
C2068 C 0.21164 0.65139 0.69214 0.0
C2069 C 0.23085 0.64149 0.69776 0.0
C2070 C 0.22308 0.70843 0.711 0.0
C2071 C 0.19428 0.63843 0.68185 0.0
C2072 C 0.15555 0.69889 0.70648 0.0
C2073 C 0.15363 0.71204 0.68859 0.0
C2074 C 0.17276 0.68493 0.70859 0.0
C2075 C 0.18821 0.68392 0.69227 0.0
C2076 C 0.18523 0.69565 0.6733 0.0
C2077 C 0.168 0.70972 0.67173 0.0
C2078 C 0.17538 0.67276 0.72911 0.0
C2079 C 0.20113 0.69462 0.65537 0.0
H2080 H 0.25733 0.68391 0.71833 0.0
H2081 H 0.23297 0.62467 0.69474 0.0
H2082 H 0.21919 0.71746 0.69638 0.0
H2083 H 0.20974 0.71069 0.72231 0.0
H2084 H 0.2377 0.71532 0.71812 0.0
H2085 H 0.19955 0.62199 0.67814 0.0
H2086 H 0.18032 0.63756 0.69258 0.0
H2087 H 0.18893 0.64619 0.66695 0.0
H2088 H 0.14441 0.70052 0.71952 0.0
H2089 H 0.16646 0.71972 0.65779 0.0
H2090 H 0.18856 0.67985 0.73845 0.0
H2091 H 0.17963 0.65596 0.72592 0.0
H2092 H 0.16073 0.67312 0.73897 0.0
H2093 H 0.21564 0.70358 0.65988 0.0
H2094 H 0.19471 0.7016 0.64048 0.0
H2095 H 0.20595 0.67795 0.65224 0.0
C2096 C 0.05012 0.39797 0.44431 0.0
C2097 C 0.03168 0.40185 0.43241 0.0
C2098 C 0.06597 0.41349 0.44619 0.0
C2099 C 0.0634 0.43318 0.43563 0.0
C2100 C 0.04604 0.43616 0.42162 0.0
C2101 C 0.03026 0.42046 0.42027 0.0
C2102 C 0.08422 0.40965 0.46129 0.0
C2103 C 0.04303 0.45673 0.40966 0.0
C2104 C 0.08075 0.48245 0.46533 0.0
C2105 C 0.09993 0.48748 0.45525 0.0
C2106 C 0.06894 0.46465 0.4592 0.0
C2107 C 0.07633 0.45173 0.44231 0.0
C2108 C 0.09577 0.45666 0.43209 0.0
C2109 C 0.10748 0.47445 0.43883 0.0
C2110 C 0.04845 0.45974 0.47077 0.0
C2111 C 0.10394 0.44342 0.41384 0.0
H2112 H 0.05141 0.3835 0.45359 0.0
H2113 H 0.01615 0.42342 0.41084 0.0
H2114 H 0.09939 0.41552 0.4545 0.0
H2115 H 0.08131 0.41853 0.47625 0.0
H2116 H 0.086 0.39254 0.46525 0.0
H2117 H 0.03129 0.45505 0.39658 0.0
H2118 H 0.03719 0.46913 0.42077 0.0
H2119 H 0.05832 0.46236 0.40293 0.0
H2120 H 0.07495 0.49246 0.4781 0.0
H2121 H 0.12226 0.47844 0.43093 0.0
H2122 H 0.049 0.4434 0.47737 0.0
H2123 H 0.03489 0.46045 0.45953 0.0
H2124 H 0.04533 0.47101 0.484 0.0
H2125 H 0.10514 0.42649 0.41863 0.0
H2126 H 0.11977 0.44885 0.40819 0.0
H2127 H 0.09257 0.44423 0.4004 0.0
C2128 C 0.4618 0.5898 0.9716 0.0
C2129 C 0.47085 0.59745 0.95273 0.0
C2130 C 0.44713 0.57307 0.97129 0.0
C2131 C 0.44109 0.56405 0.9516 0.0
C2132 C 0.4489 0.57283 0.9324 0.0
C2133 C 0.46389 0.58934 0.9332 0.0
C2134 C 0.4394 0.564 0.99213 0.0
C2135 C 0.44246 0.56392 0.91109 0.0
C2136 C 0.42947 0.50514 0.95358 0.0
C2137 C 0.40723 0.5048 0.95467 0.0
C2138 C 0.44058 0.52433 0.95206 0.0
C2139 C 0.42916 0.5437 0.95137 0.0
C2140 C 0.40666 0.54347 0.95175 0.0
C2141 C 0.39591 0.52396 0.95355 0.0
C2142 C 0.46461 0.52388 0.95187 0.0
C2143 C 0.39399 0.56381 0.95075 0.0
H2144 H 0.46711 0.59604 0.98675 0.0
H2145 H 0.47073 0.59536 0.91857 0.0
H2146 H 0.42188 0.56204 0.99194 0.0
H2147 H 0.44647 0.54802 0.99455 0.0
H2148 H 0.4438 0.57417 0.00587 0.0
H2149 H 0.44708 0.5746 0.89781 0.0
H2150 H 0.45029 0.54831 0.90866 0.0
H2151 H 0.42504 0.56127 0.91048 0.0
H2152 H 0.4383 0.49036 0.95442 0.0
H2153 H 0.3787 0.52372 0.95429 0.0
H2154 H 0.47084 0.53241 0.966 0.0
H2155 H 0.47074 0.53219 0.93759 0.0
H2156 H 0.47104 0.50744 0.95198 0.0
H2157 H 0.39678 0.57326 0.96536 0.0
H2158 H 0.37666 0.56081 0.94924 0.0
H2159 H 0.39929 0.57362 0.93709 0.0
C2160 C 0.72515 0.75907 0.82822 0.0
C2161 C 0.7125 0.75046 0.84439 0.0
C2162 C 0.71883 0.77736 0.81726 0.0
C2163 C 0.69928 0.78722 0.82251 0.0
C2164 C 0.68674 0.77902 0.83929 0.0
C2165 C 0.69355 0.7607 0.85012 0.0
C2166 C 0.73279 0.78573 0.79959 0.0
C2167 C 0.66581 0.78911 0.84528 0.0
C2168 C 0.69546 0.84254 0.7994 0.0
C2169 C 0.6862 0.83824 0.7796 0.0
C2170 C 0.69834 0.82631 0.81443 0.0
C2171 C 0.69174 0.8054 0.80947 0.0
C2172 C 0.68066 0.80143 0.7903 0.0
C2173 C 0.67803 0.81793 0.77556 0.0
C2174 C 0.71004 0.83122 0.83477 0.0
C2175 C 0.67317 0.77937 0.78452 0.0
H2176 H 0.73988 0.75126 0.82384 0.0
H2177 H 0.68371 0.75404 0.8626 0.0
H2178 H 0.72425 0.78459 0.78421 0.0
H2179 H 0.7365 0.80275 0.80231 0.0
H2180 H 0.74798 0.77682 0.79823 0.0
H2181 H 0.65903 0.78213 0.86001 0.0
H2182 H 0.66779 0.80647 0.84759 0.0
H2183 H 0.65423 0.78687 0.83218 0.0
H2184 H 0.70168 0.85827 0.80267 0.0
H2185 H 0.67068 0.81457 0.76035 0.0
H2186 H 0.72651 0.82499 0.83368 0.0
H2187 H 0.7023 0.82334 0.84851 0.0
H2188 H 0.71086 0.84858 0.83788 0.0
H2189 H 0.68711 0.76932 0.78057 0.0
H2190 H 0.66228 0.77951 0.77063 0.0
H2191 H 0.66489 0.77184 0.79814 0.0
C2192 C 0.48621 0.42583 0.09171 0.0
C2193 C 0.48598 0.44675 0.09934 0.0
C2194 C 0.47116 0.41899 0.07673 0.0
C2195 C 0.45617 0.43369 0.06866 0.0
C2196 C 0.45542 0.45461 0.07696 0.0
C2197 C 0.47014 0.46077 0.0925 0.0
C2198 C 0.47191 0.39634 0.06889 0.0
C2199 C 0.44004 0.47096 0.06843 0.0
C2200 C 0.4375 0.43015 0.0117 0.0
C2201 C 0.41583 0.42576 0.01437 0.0
C2202 C 0.45108 0.43179 0.02925 0.0
C2203 C 0.4429 0.42821 0.04991 0.0
C2204 C 0.42147 0.42184 0.05252 0.0
C2205 C 0.40804 0.42107 0.0347 0.0
C2206 C 0.4737 0.43907 0.02577 0.0
C2207 C 0.41242 0.41704 0.0742 0.0
H2208 H 0.49841 0.41495 0.09717 0.0
H2209 H 0.47006 0.47699 0.09831 0.0
H2210 H 0.45565 0.38956 0.06797 0.0
H2211 H 0.47876 0.39594 0.05265 0.0
H2212 H 0.48179 0.38608 0.07932 0.0
H2213 H 0.44096 0.48626 0.07718 0.0
H2214 H 0.44353 0.47404 0.05141 0.0
H2215 H 0.42351 0.46493 0.0694 0.0
H2216 H 0.44357 0.4339 0.99601 0.0
H2217 H 0.39129 0.41755 0.03677 0.0
H2218 H 0.485 0.4281 0.03368 0.0
H2219 H 0.47592 0.45502 0.03297 0.0
H2220 H 0.47788 0.44004 0.00865 0.0
H2221 H 0.42371 0.4073 0.08363 0.0
H2222 H 0.397 0.4085 0.07314 0.0
H2223 H 0.4098 0.43211 0.08295 0.0
C2224 C 0.80761 0.2358 0.34797 0.0
C2225 C 0.78659 0.23733 0.35517 0.0
C2226 C 0.81365 0.21982 0.33367 0.0
C2227 C 0.79809 0.20556 0.3259 0.0
C2228 C 0.77698 0.20663 0.3337 0.0
C2229 C 0.77156 0.22235 0.34853 0.0
C2230 C 0.83644 0.21872 0.32624 0.0
C2231 C 0.75982 0.19202 0.32545 0.0
C2232 C 0.80374 0.18345 0.27028 0.0
C2233 C 0.80785 0.16197 0.27438 0.0
C2234 C 0.8011 0.19795 0.28695 0.0
C2235 C 0.80326 0.19086 0.3082 0.0
C2236 C 0.8088 0.16946 0.31238 0.0
C2237 C 0.8107 0.15514 0.29538 0.0
C2238 C 0.79478 0.22054 0.28184 0.0
C2239 C 0.81192 0.16152 0.3348 0.0
H2240 H 0.81927 0.24734 0.35327 0.0
H2241 H 0.75527 0.22365 0.35401 0.0
H2242 H 0.84234 0.20211 0.32689 0.0
H2243 H 0.83747 0.22403 0.30946 0.0
H2244 H 0.84708 0.22892 0.33596 0.0
H2245 H 0.74446 0.19429 0.33385 0.0
H2246 H 0.7573 0.19501 0.30825 0.0
H2247 H 0.76475 0.17519 0.32718 0.0
H2248 H 0.80137 0.18872 0.25404 0.0
H2249 H 0.81397 0.13852 0.29854 0.0
H2250 H 0.80598 0.23188 0.28935 0.0
H2251 H 0.77875 0.22384 0.28844 0.0
H2252 H 0.79445 0.22366 0.26447 0.0
H2253 H 0.82242 0.17247 0.34378 0.0
H2254 H 0.81893 0.14532 0.33518 0.0
H2255 H 0.79639 0.16107 0.34314 0.0
C2256 C 0.01528 0.5347 0.57873 0.0
C2257 C 0.01532 0.53977 0.60039 0.0
C2258 C 0.0327 0.53959 0.56581 0.0
C2259 C 0.05038 0.55037 0.57464 0.0
C2260 C 0.05016 0.55631 0.59634 0.0
C2261 C 0.03271 0.55062 0.60909 0.0
C2262 C 0.03247 0.53254 0.54285 0.0
C2263 C 0.06846 0.56832 0.60612 0.0
C2264 C 0.10078 0.53922 0.54409 0.0
C2265 C 0.10044 0.55558 0.52898 0.0
C2266 C 0.08532 0.53809 0.56007 0.0
C2267 C 0.06947 0.55401 0.56124 0.0
C2268 C 0.07032 0.57167 0.54732 0.0
C2269 C 0.08568 0.57212 0.53112 0.0
C2270 C 0.0848 0.5188 0.57436 0.0
C2271 C 0.05411 0.5893 0.54853 0.0
H2272 H 0.00188 0.5262 0.57201 0.0
H2273 H 0.03265 0.55468 0.62583 0.0
H2274 H 0.03455 0.54644 0.53221 0.0
H2275 H 0.04593 0.52155 0.53983 0.0
H2276 H 0.01745 0.52434 0.53848 0.0
H2277 H 0.06484 0.57375 0.62253 0.0
H2278 H 0.08275 0.55802 0.60667 0.0
H2279 H 0.07252 0.58237 0.59625 0.0
H2280 H 0.11219 0.5264 0.54254 0.0
H2281 H 0.08551 0.58491 0.51957 0.0
H2282 H 0.07105 0.50866 0.56999 0.0
H2283 H 0.0827 0.52355 0.59119 0.0
H2284 H 0.09952 0.50912 0.57302 0.0
H2285 H 0.03883 0.5837 0.54175 0.0
H2286 H 0.05926 0.60359 0.53952 0.0
H2287 H 0.05112 0.59389 0.56529 0.0
C2288 C 0.71992 0.24626 0.68373 0.0
C2289 C 0.71632 0.24693 0.66179 0.0
C2290 C 0.7178 0.22726 0.69511 0.0
C2291 C 0.71162 0.20851 0.68432 0.0
C2292 C 0.70754 0.20915 0.66221 0.0
C2293 C 0.7101 0.22837 0.65114 0.0
C2294 C 0.72254 0.22719 0.71865 0.0
C2295 C 0.70066 0.18952 0.65027 0.0
C2296 C 0.72826 0.15856 0.71328 0.0
C2297 C 0.71014 0.15432 0.72553 0.0
C2298 C 0.72856 0.17545 0.69876 0.0
C2299 C 0.7102 0.18822 0.6963 0.0
C2300 C 0.69135 0.18298 0.70742 0.0
C2301 C 0.69157 0.16612 0.72202 0.0
C2302 C 0.74901 0.18057 0.68727 0.0
C2303 C 0.67136 0.19603 0.70495 0.0
H2304 H 0.72481 0.26056 0.69201 0.0
H2305 H 0.70722 0.22888 0.63417 0.0
H2306 H 0.70844 0.22161 0.72765 0.0
H2307 H 0.73574 0.21599 0.72207 0.0
H2308 H 0.72706 0.24317 0.72465 0.0
H2309 H 0.69711 0.19292 0.63331 0.0
H2310 H 0.71335 0.17731 0.65102 0.0
H2311 H 0.68629 0.18259 0.65779 0.0
H2312 H 0.74265 0.14944 0.71588 0.0
H2313 H 0.67747 0.1628 0.73135 0.0
H2314 H 0.75579 0.19551 0.69375 0.0
H2315 H 0.74601 0.18317 0.67011 0.0
H2316 H 0.76104 0.16777 0.68904 0.0
H2317 H 0.67356 0.21167 0.71279 0.0
H2318 H 0.65734 0.1881 0.71218 0.0
H2319 H 0.66801 0.19909 0.68792 0.0
C2320 C 0.0852 0.44311 0.97516 0.0
C2321 C 0.09879 0.46068 0.97678 0.0
C2322 C 0.06798 0.44327 0.96098 0.0
C2323 C 0.06417 0.46155 0.9484 0.0
C2324 C 0.07845 0.47889 0.94926 0.0
C2325 C 0.09567 0.47818 0.96335 0.0
C2326 C 0.05327 0.42433 0.96022 0.0
C2327 C 0.07483 0.49876 0.93627 0.0
C2328 C 0.02472 0.46133 0.90266 0.0
C2329 C 0.00664 0.46993 0.91244 0.0
C2330 C 0.04347 0.45789 0.9143 0.0
C2331 C 0.04415 0.46355 0.93606 0.0
C2332 C 0.02587 0.47213 0.94599 0.0
C2333 C 0.00729 0.47505 0.93409 0.0
C2334 C 0.06258 0.44844 0.9033 0.0
C2335 C 0.02604 0.47868 0.96909 0.0
H2336 H 0.08764 0.4295 0.98545 0.0
H2337 H 0.10615 0.49181 0.96451 0.0
H2338 H 0.03779 0.42859 0.96752 0.0
H2339 H 0.0501 0.41967 0.94352 0.0
H2340 H 0.05988 0.41043 0.96886 0.0
H2341 H 0.08833 0.51008 0.93745 0.0
H2342 H 0.07237 0.49468 0.91931 0.0
H2343 H 0.06022 0.50689 0.9419 0.0
H2344 H 0.0242 0.45724 0.88594 0.0
H2345 H 0.99336 0.48177 0.94168 0.0
H2346 H 0.06824 0.43426 0.91212 0.0
H2347 H 0.07579 0.46012 0.90316 0.0
H2348 H 0.05906 0.44374 0.88665 0.0
H2349 H 0.03042 0.46495 0.97924 0.0
H2350 H 0.0104 0.48487 0.97445 0.0
H2351 H 0.0382 0.4912 0.97165 0.0
C2352 C 0.81721 0.82697 0.20708 0.0
C2353 C 0.80175 0.84292 0.20866 0.0
C2354 C 0.81513 0.81055 0.19213 0.0
C2355 C 0.79704 0.81003 0.17875 0.0
C2356 C 0.78232 0.82701 0.17917 0.0
C2357 C 0.78495 0.84336 0.19404 0.0
C2358 C 0.83141 0.79293 0.19182 0.0
C2359 C 0.76275 0.827 0.16527 0.0
C2360 C 0.79192 0.76969 0.13409 0.0
C2361 C 0.78033 0.75354 0.14416 0.0
C2362 C 0.79793 0.78807 0.14523 0.0
C2363 C 0.79182 0.79041 0.16675 0.0
C2364 C 0.78002 0.77415 0.1769 0.0
C2365 C 0.77459 0.75584 0.16553 0.0
C2366 C 0.8108 0.80495 0.13404 0.0
C2367 C 0.77288 0.77619 0.19975 0.0
H2368 H 0.83033 0.82667 0.21824 0.0
H2369 H 0.773 0.85573 0.19511 0.0
H2370 H 0.82465 0.77858 0.19952 0.0
H2371 H 0.8356 0.7886 0.17525 0.0
H2372 H 0.84616 0.79743 0.20043 0.0
H2373 H 0.75444 0.84258 0.16548 0.0
H2374 H 0.76693 0.82305 0.14862 0.0
H2375 H 0.75154 0.81464 0.17099 0.0
H2376 H 0.7965 0.76784 0.11758 0.0
H2377 H 0.76556 0.74339 0.17332 0.0
H2378 H 0.82574 0.80798 0.14291 0.0
H2379 H 0.80181 0.8201 0.13366 0.0
H2380 H 0.81487 0.80038 0.11748 0.0
H2381 H 0.78689 0.77811 0.21028 0.0
H2382 H 0.76366 0.76215 0.20521 0.0
H2383 H 0.76284 0.79056 0.20165 0.0
C2384 C 0.4104 0.56498 0.4539 0.0
C2385 C 0.41593 0.56429 0.47547 0.0
C2386 C 0.42607 0.56392 0.43804 0.0
C2387 C 0.44768 0.56203 0.44398 0.0
C2388 C 0.45343 0.5632 0.4657 0.0
C2389 C 0.43746 0.56438 0.4812 0.0
C2390 C 0.41934 0.56307 0.41504 0.0
C2391 C 0.47631 0.56135 0.47271 0.0
C2392 C 0.48425 0.52738 0.41112 0.0
C2393 C 0.49735 0.54246 0.40129 0.0
C2394 C 0.46759 0.53365 0.42448 0.0
C2395 C 0.46387 0.55556 0.42803 0.0
C2396 C 0.47645 0.57091 0.41742 0.0
C2397 C 0.49313 0.56415 0.40418 0.0
C2398 C 0.45451 0.51676 0.43547 0.0
C2399 C 0.47283 0.59439 0.42069 0.0
H2400 H 0.39377 0.56508 0.44937 0.0
H2401 H 0.44184 0.56401 0.49785 0.0
H2402 H 0.42988 0.57308 0.40506 0.0
H2403 H 0.42066 0.54649 0.40919 0.0
H2404 H 0.40265 0.56842 0.41287 0.0
H2405 H 0.47836 0.5653 0.48979 0.0
H2406 H 0.48191 0.54483 0.47011 0.0
H2407 H 0.48662 0.57199 0.46316 0.0
H2408 H 0.4874 0.51059 0.4089 0.0
H2409 H 0.50323 0.57587 0.39658 0.0
H2410 H 0.43736 0.51931 0.4323 0.0
H2411 H 0.45687 0.51782 0.45291 0.0
H2412 H 0.45884 0.50046 0.43024 0.0
H2413 H 0.45574 0.59832 0.41881 0.0
H2414 H 0.48222 0.60419 0.40941 0.0
H2415 H 0.47744 0.59882 0.43712 0.0
C2416 C 0.80163 0.68215 0.84105 0.0
C2417 C 0.78157 0.67529 0.83413 0.0
C2418 C 0.81821 0.68549 0.82649 0.0
C2419 C 0.81449 0.68204 0.80459 0.0
C2420 C 0.79494 0.67316 0.79785 0.0
C2421 C 0.77873 0.66979 0.81275 0.0
C2422 C 0.83902 0.69444 0.83435 0.0
C2423 C 0.79035 0.66914 0.77464 0.0
C2424 C 0.83838 0.71933 0.76397 0.0
C2425 C 0.85313 0.70615 0.75375 0.0
C2426 C 0.82638 0.71189 0.78116 0.0
C2427 C 0.82936 0.6908 0.78847 0.0
C2428 C 0.84517 0.67785 0.77909 0.0
C2429 C 0.85681 0.68565 0.7617 0.0
C2430 C 0.80967 0.72626 0.79073 0.0
C2431 C 0.84906 0.65544 0.7867 0.0
H2432 H 0.80399 0.68623 0.85761 0.0
H2433 H 0.76331 0.66431 0.80734 0.0
H2434 H 0.85265 0.68684 0.82613 0.0
H2435 H 0.83964 0.71171 0.83084 0.0
H2436 H 0.84092 0.69226 0.85177 0.0
H2437 H 0.77554 0.65981 0.77231 0.0
H2438 H 0.78859 0.68457 0.76627 0.0
H2439 H 0.80372 0.66051 0.76707 0.0
H2440 H 0.83552 0.73522 0.75793 0.0
H2441 H 0.86827 0.67542 0.7539 0.0
H2442 H 0.81185 0.72737 0.80818 0.0
H2443 H 0.79364 0.71947 0.78784 0.0
H2444 H 0.81014 0.74255 0.78396 0.0
H2445 H 0.8497 0.65486 0.80431 0.0
H2446 H 0.86409 0.64879 0.78022 0.0
H2447 H 0.83574 0.6451 0.78157 0.0
C2448 C 0.52964 0.53268 0.08218 0.0
C2449 C 0.54743 0.52275 0.09117 0.0
C2450 C 0.53192 0.54791 0.06616 0.0
C2451 C 0.55252 0.55363 0.05916 0.0
C2452 C 0.57062 0.54422 0.06868 0.0
C2453 C 0.56785 0.5287 0.08451 0.0
C2454 C 0.51218 0.5574 0.05625 0.0
C2455 C 0.59281 0.55022 0.06183 0.0
C2456 C 0.55165 0.57485 0.00306 0.0
C2457 C 0.54928 0.5967 0.00669 0.0
C2458 C 0.55422 0.56067 0.02003 0.0
C2459 C 0.55472 0.56861 0.04106 0.0
C2460 C 0.55412 0.5908 0.04467 0.0
C2461 C 0.55123 0.60462 0.0274 0.0
C2462 C 0.55463 0.5371 0.01551 0.0
C2463 C 0.55507 0.59987 0.06685 0.0
H2464 H 0.51382 0.52811 0.08725 0.0
H2465 H 0.58163 0.5211 0.09151 0.0
H2466 H 0.51254 0.57496 0.05763 0.0
H2467 H 0.51166 0.55347 0.03907 0.0
H2468 H 0.49735 0.55148 0.0638 0.0
H2469 H 0.60516 0.54297 0.07216 0.0
H2470 H 0.59556 0.5449 0.04525 0.0
H2471 H 0.59476 0.56774 0.06208 0.0
H2472 H 0.55026 0.56866 0.98705 0.0
H2473 H 0.54964 0.62154 0.03023 0.0
H2474 H 0.53948 0.52985 0.02091 0.0
H2475 H 0.56768 0.52929 0.0244 0.0
H2476 H 0.55665 0.53366 0.99832 0.0
H2477 H 0.53973 0.59694 0.07504 0.0
H2478 H 0.55806 0.61727 0.06673 0.0
H2479 H 0.56771 0.59197 0.07627 0.0
C2480 C 0.64907 0.30015 0.26517 0.0
C2481 C 0.65716 0.28449 0.25155 0.0
C2482 C 0.65965 0.30537 0.28413 0.0
C2483 C 0.67858 0.29449 0.28957 0.0
C2484 C 0.68666 0.27853 0.27592 0.0
C2485 C 0.6759 0.2738 0.25705 0.0
C2486 C 0.65069 0.32256 0.29825 0.0
C2487 C 0.7067 0.26639 0.28126 0.0
C2488 C 0.72071 0.31502 0.32722 0.0
C2489 C 0.71723 0.30209 0.34501 0.0
C2490 C 0.70723 0.31388 0.3095 0.0
C2491 C 0.69002 0.29936 0.30961 0.0
C2492 C 0.68557 0.28743 0.32814 0.0
C2493 C 0.6992 0.289 0.34567 0.0
C2494 C 0.7123 0.32708 0.29012 0.0
C2495 C 0.6674 0.27176 0.32889 0.0
H2496 H 0.63462 0.30851 0.2609 0.0
H2497 H 0.68218 0.26164 0.24658 0.0
H2498 H 0.64724 0.31603 0.31426 0.0
H2499 H 0.66259 0.33541 0.30033 0.0
H2500 H 0.63587 0.32957 0.2917 0.0
H2501 H 0.71074 0.25434 0.26901 0.0
H2502 H 0.72026 0.27755 0.28281 0.0
H2503 H 0.70482 0.2582 0.29676 0.0
H2504 H 0.73456 0.32526 0.3267 0.0
H2505 H 0.69636 0.27905 0.35944 0.0
H2506 H 0.69768 0.33457 0.28371 0.0
H2507 H 0.71889 0.31667 0.2775 0.0
H2508 H 0.72411 0.33973 0.29362 0.0
H2509 H 0.6526 0.27907 0.32273 0.0
H2510 H 0.66442 0.26581 0.34524 0.0
H2511 H 0.67117 0.25796 0.31856 0.0
C2512 C 0.97453 0.44913 0.59907 0.0
C2513 C 0.95725 0.46302 0.60128 0.0
C2514 C 0.97538 0.43452 0.58229 0.0
C2515 C 0.9585 0.4338 0.56745 0.0
C2516 C 0.94023 0.44655 0.57062 0.0
C2517 C 0.93984 0.46107 0.58753 0.0
C2518 C 0.9951 0.42112 0.57949 0.0
C2519 C 0.92182 0.44608 0.55525 0.0
C2520 C 0.97359 0.4217 0.51051 0.0
C2521 C 0.96743 0.4004 0.50849 0.0
C2522 C 0.9707 0.43267 0.52963 0.0
C2523 C 0.9613 0.42212 0.54715 0.0
C2524 C 0.95494 0.40063 0.54521 0.0
C2525 C 0.95816 0.38997 0.52586 0.0
C2526 C 0.97783 0.45557 0.53109 0.0
C2527 C 0.94479 0.38896 0.56354 0.0
H2528 H 0.98799 0.45047 0.60975 0.0
H2529 H 0.92637 0.47168 0.58926 0.0
H2530 H 0.99081 0.40442 0.57584 0.0
H2531 H 0.00447 0.42728 0.56588 0.0
H2532 H 0.00535 0.42133 0.59386 0.0
H2533 H 0.90765 0.45446 0.56163 0.0
H2534 H 0.9266 0.4539 0.54018 0.0
H2535 H 0.91735 0.42947 0.55141 0.0
H2536 H 0.98081 0.42982 0.49714 0.0
H2537 H 0.95334 0.3735 0.52431 0.0
H2538 H 0.98981 0.45732 0.5439 0.0
H2539 H 0.96413 0.46587 0.53524 0.0
H2540 H 0.98488 0.46141 0.516 0.0
H2541 H 0.95581 0.38864 0.57729 0.0
H2542 H 0.9405 0.37235 0.55936 0.0
H2543 H 0.93022 0.39743 0.56874 0.0
C2544 C 0.86513 0.30802 0.72676 0.0
C2545 C 0.85642 0.29657 0.74377 0.0
C2546 C 0.85248 0.31383 0.70928 0.0
C2547 C 0.83088 0.30755 0.70871 0.0
C2548 C 0.82207 0.29607 0.72594 0.0
C2549 C 0.8349 0.29093 0.74334 0.0
C2550 C 0.86224 0.32647 0.69137 0.0
C2551 C 0.79919 0.28873 0.72582 0.0
C2552 C 0.78688 0.33024 0.67477 0.0
C2553 C 0.78442 0.31402 0.65973 0.0
C2554 C 0.80339 0.32946 0.68975 0.0
C2555 C 0.81742 0.31186 0.68982 0.0
C2556 C 0.81604 0.2964 0.67355 0.0
C2557 C 0.79963 0.29778 0.65858 0.0
C2558 C 0.80472 0.34654 0.70653 0.0
C2559 C 0.83054 0.27728 0.67314 0.0
H2560 H 0.88176 0.31252 0.72717 0.0
H2561 H 0.82815 0.28199 0.75644 0.0
H2562 H 0.86238 0.31682 0.67663 0.0
H2563 H 0.85253 0.34083 0.68811 0.0
H2564 H 0.87878 0.33148 0.69497 0.0
H2565 H 0.79485 0.27993 0.7405 0.0
H2566 H 0.78839 0.30257 0.72422 0.0
H2567 H 0.79635 0.2782 0.71196 0.0
H2568 H 0.77528 0.34296 0.67556 0.0
H2569 H 0.7979 0.28526 0.64687 0.0
H2570 H 0.8215 0.3511 0.70948 0.0
H2571 H 0.79812 0.34038 0.72167 0.0
H2572 H 0.79559 0.36094 0.70196 0.0
H2573 H 0.84732 0.28207 0.67558 0.0
H2574 H 0.82936 0.26838 0.65794 0.0
H2575 H 0.82617 0.26638 0.6863 0.0
C2576 C 0.95447 0.55672 0.90432 0.0
C2577 C 0.94117 0.53945 0.90901 0.0
C2578 C 0.95758 0.57306 0.91912 0.0
C2579 C 0.94728 0.57194 0.93907 0.0
C2580 C 0.9322 0.55569 0.94297 0.0
C2581 C 0.92925 0.53963 0.92781 0.0
C2582 C 0.97344 0.59038 0.91418 0.0
C2583 C 0.92077 0.554 0.964 0.0
C2584 C 0.97826 0.58857 0.98774 0.0
C2585 C 0.968 0.60743 0.99358 0.0
C2586 C 0.97198 0.57725 0.96968 0.0
C2587 C 0.95508 0.58507 0.95704 0.0
C2588 C 0.94526 0.60462 0.96228 0.0
C2589 C 0.95181 0.61558 0.9806 0.0
C2590 C 0.98296 0.55648 0.9646 0.0
C2591 C 0.92737 0.61353 0.94902 0.0
H2592 H 0.96351 0.55679 0.88965 0.0
H2593 H 0.91882 0.5264 0.93143 0.0
H2594 H 0.96762 0.60603 0.91983 0.0
H2595 H 0.98858 0.58697 0.92255 0.0
H2596 H 0.97681 0.59144 0.89688 0.0
H2597 H 0.90733 0.54256 0.96334 0.0
H2598 H 0.93211 0.54855 0.97637 0.0
H2599 H 0.91458 0.56972 0.96903 0.0
H2600 H 0.99084 0.58225 0.99768 0.0
H2601 H 0.94384 0.63018 0.98508 0.0
H2602 H 0.98935 0.55685 0.94818 0.0
H2603 H 0.97134 0.54324 0.96547 0.0
H2604 H 0.99624 0.55299 0.9757 0.0
H2605 H 0.93156 0.61312 0.9319 0.0
H2606 H 0.92342 0.63014 0.95353 0.0
H2607 H 0.91296 0.6036 0.95115 0.0
C2608 C 0.668 0.70236 0.2377 0.0
C2609 C 0.64624 0.69788 0.23918 0.0
C2610 C 0.67947 0.69744 0.21929 0.0
C2611 C 0.66904 0.68727 0.20215 0.0
C2612 C 0.64734 0.68161 0.20401 0.0
C2613 C 0.63606 0.68731 0.22244 0.0
C2614 C 0.7025 0.70414 0.21782 0.0
C2615 C 0.63589 0.67015 0.18633 0.0
C2616 C 0.6947 0.70079 0.14968 0.0
C2617 C 0.70973 0.68446 0.14778 0.0
C2618 C 0.68028 0.70116 0.16662 0.0
C2619 C 0.68059 0.6845 0.18174 0.0
C2620 C 0.69431 0.66692 0.17872 0.0
C2621 C 0.70896 0.66723 0.16187 0.0
C2622 C 0.66613 0.72036 0.16938 0.0
C2623 C 0.69458 0.64853 0.19411 0.0
H2624 H 0.67589 0.71059 0.25061 0.0
H2625 H 0.61926 0.68368 0.22366 0.0
H2626 H 0.71266 0.69025 0.21407 0.0
H2627 H 0.70448 0.71582 0.20475 0.0
H2628 H 0.70834 0.71147 0.23278 0.0
H2629 H 0.62017 0.66401 0.19153 0.0
H2630 H 0.63336 0.68117 0.17281 0.0
H2631 H 0.64561 0.65668 0.18041 0.0
H2632 H 0.69517 0.71413 0.13878 0.0
H2633 H 0.72043 0.65446 0.16033 0.0
H2634 H 0.67159 0.7297 0.18331 0.0
H2635 H 0.6495 0.71543 0.17253 0.0
H2636 H 0.6663 0.73088 0.1552 0.0
H2637 H 0.70295 0.65334 0.20886 0.0
H2638 H 0.70288 0.63448 0.18737 0.0
H2639 H 0.67816 0.64388 0.19858 0.0
C2640 C 0.54817 0.45047 0.40465 0.0
C2641 C 0.56264 0.46718 0.40756 0.0
C2642 C 0.54543 0.43486 0.42029 0.0
C2643 C 0.5577 0.43584 0.43909 0.0
C2644 C 0.57373 0.4515 0.44119 0.0
C2645 C 0.57591 0.46714 0.42543 0.0
C2646 C 0.52804 0.41856 0.41749 0.0
C2647 C 0.58746 0.45275 0.46081 0.0
C2648 C 0.53048 0.4191 0.49002 0.0
C2649 C 0.53871 0.39868 0.49322 0.0
C2650 C 0.53648 0.43121 0.47236 0.0
C2651 C 0.55142 0.42285 0.45776 0.0
C2652 C 0.55989 0.40224 0.46093 0.0
C2653 C 0.55324 0.39026 0.47858 0.0
C2654 C 0.52673 0.45296 0.46934 0.0
C2655 C 0.57611 0.39301 0.44586 0.0
H2656 H 0.53794 0.45035 0.39079 0.0
H2657 H 0.58726 0.47991 0.42763 0.0
H2658 H 0.53372 0.4025 0.422 0.0
H2659 H 0.51453 0.42256 0.42811 0.0
H2660 H 0.52208 0.41801 0.40089 0.0
H2661 H 0.60142 0.46331 0.45843 0.0
H2662 H 0.57792 0.4591 0.47422 0.0
H2663 H 0.59316 0.43673 0.46547 0.0
H2664 H 0.51916 0.42559 0.50127 0.0
H2665 H 0.55972 0.37451 0.48116 0.0
H2666 H 0.5187 0.45384 0.45366 0.0
H2667 H 0.53934 0.46527 0.4695 0.0
H2668 H 0.51494 0.45686 0.48189 0.0
H2669 H 0.56952 0.39236 0.42953 0.0
H2670 H 0.58116 0.37677 0.45059 0.0
H2671 H 0.59034 0.40342 0.44531 0.0
C2672 C 0.7557 0.84338 0.68485 0.0
C2673 C 0.75205 0.84621 0.70664 0.0
C2674 C 0.77213 0.83009 0.67764 0.0
C2675 C 0.78477 0.81906 0.69262 0.0
C2676 C 0.78137 0.82223 0.71465 0.0
C2677 C 0.76519 0.83596 0.72138 0.0
C2678 C 0.77564 0.82748 0.65406 0.0
C2679 C 0.79431 0.81051 0.73115 0.0
C2680 C 0.81065 0.76625 0.6804 0.0
C2681 C 0.83222 0.77181 0.68055 0.0
C2682 C 0.79486 0.78172 0.6831 0.0
C2683 C 0.80082 0.80328 0.68557 0.0
C2684 C 0.82247 0.80917 0.68387 0.0
C2685 C 0.83797 0.7933 0.68161 0.0
C2686 C 0.77196 0.77476 0.68506 0.0
C2687 C 0.82938 0.83205 0.68584 0.0
H2688 H 0.7456 0.85141 0.67343 0.0
H2689 H 0.76233 0.83805 0.73824 0.0
H2690 H 0.79265 0.82997 0.6501 0.0
H2691 H 0.77149 0.81105 0.64922 0.0
H2692 H 0.76589 0.83875 0.64459 0.0
H2693 H 0.78982 0.81499 0.74762 0.0
H2694 H 0.79205 0.79312 0.72926 0.0
H2695 H 0.81147 0.81386 0.7289 0.0
H2696 H 0.80615 0.74964 0.67961 0.0
H2697 H 0.85465 0.79765 0.68155 0.0
H2698 H 0.76158 0.78463 0.6748 0.0
H2699 H 0.76657 0.77697 0.7017 0.0
H2700 H 0.76976 0.75779 0.68069 0.0
H2701 H 0.81898 0.84254 0.67621 0.0
H2702 H 0.84612 0.83436 0.68071 0.0
H2703 H 0.82796 0.83718 0.70264 0.0
C2704 C 0.25534 0.67682 0.28558 0.0
C2705 C 0.25513 0.65504 0.29009 0.0
C2706 C 0.27271 0.68949 0.29126 0.0
C2707 C 0.29007 0.68021 0.30218 0.0
C2708 C 0.28959 0.65837 0.30753 0.0
C2709 C 0.27219 0.64593 0.30115 0.0
C2710 C 0.27279 0.71265 0.28488 0.0
C2711 C 0.3076 0.64809 0.31959 0.0
C2712 C 0.34122 0.71 0.29271 0.0
C2713 C 0.34118 0.72438 0.30972 0.0
C2714 C 0.32533 0.69456 0.29075 0.0
C2715 C 0.30926 0.69324 0.30642 0.0
C2716 C 0.31022 0.70645 0.32461 0.0
C2717 C 0.32612 0.72206 0.32596 0.0
C2718 C 0.32477 0.68094 0.27099 0.0
C2719 C 0.29366 0.70508 0.34191 0.0
H2720 H 0.24217 0.68386 0.27697 0.0
H2721 H 0.27192 0.6291 0.30482 0.0
H2722 H 0.27499 0.72285 0.29908 0.0
H2723 H 0.28632 0.71578 0.274 0.0
H2724 H 0.25786 0.71745 0.27678 0.0
H2725 H 0.30377 0.63155 0.32446 0.0
H2726 H 0.32207 0.64776 0.30954 0.0
H2727 H 0.31145 0.6575 0.33399 0.0
H2728 H 0.35291 0.71165 0.28015 0.0
H2729 H 0.32615 0.73303 0.33924 0.0
H2730 H 0.31113 0.6858 0.26093 0.0
H2731 H 0.32244 0.66399 0.2752 0.0
H2732 H 0.33956 0.68241 0.26145 0.0
H2733 H 0.27859 0.71222 0.33619 0.0
H2734 H 0.29868 0.71364 0.3565 0.0
H2735 H 0.29034 0.68825 0.34602 0.0
C2736 C 0.55079 0.09611 0.57307 0.0
C2737 C 0.52993 0.08921 0.57683 0.0
C2738 C 0.56758 0.08147 0.5717 0.0
C2739 C 0.56318 0.0595 0.5736 0.0
C2740 C 0.54251 0.05271 0.57942 0.0
C2741 C 0.52617 0.06771 0.58121 0.0
C2742 C 0.58959 0.08938 0.56642 0.0
C2743 C 0.5371 0.02941 0.58156 0.0
C2744 C 0.59022 0.02014 0.5373 0.0
C2745 C 0.60182 0.00787 0.55179 0.0
C2746 C 0.57843 0.03773 0.5441 0.0
C2747 C 0.57873 0.04352 0.56586 0.0
C2748 C 0.59191 0.03231 0.58023 0.0
C2749 C 0.6031 0.01436 0.57307 0.0
C2750 C 0.56443 0.04912 0.52825 0.0
C2751 C 0.59327 0.03847 0.60335 0.0
H2752 H 0.55382 0.11279 0.56996 0.0
H2753 H 0.5101 0.06231 0.58428 0.0
H2754 H 0.60184 0.08021 0.57519 0.0
H2755 H 0.59262 0.08724 0.54919 0.0
H2756 H 0.59143 0.10652 0.57024 0.0
H2757 H 0.52094 0.02691 0.58824 0.0
H2758 H 0.5378 0.02177 0.56568 0.0
H2759 H 0.54879 0.02124 0.59189 0.0
H2760 H 0.58921 0.01519 0.52083 0.0
H2761 H 0.61224 0.005 0.58429 0.0
H2762 H 0.56766 0.06643 0.52854 0.0
H2763 H 0.54748 0.04681 0.53259 0.0
H2764 H 0.56682 0.04326 0.51177 0.0
H2765 H 0.59347 0.05601 0.60522 0.0
H2766 H 0.60767 0.03173 0.61103 0.0
H2767 H 0.57912 0.03234 0.6119 0.0
C2768 C 0.22549 0.3418 0.77472 0.0
C2769 C 0.23779 0.35545 0.78727 0.0
C2770 C 0.21049 0.32818 0.78394 0.0
C2771 C 0.20756 0.32838 0.80626 0.0
C2772 C 0.21892 0.34313 0.81888 0.0
C2773 C 0.23404 0.35645 0.80922 0.0
C2774 C 0.19868 0.31272 0.76986 0.0
C2775 C 0.21594 0.34408 0.84265 0.0
C2776 C 0.15872 0.29683 0.82127 0.0
C2777 C 0.16753 0.27653 0.82393 0.0
C2778 C 0.17177 0.31454 0.8175 0.0
C2779 C 0.19405 0.31173 0.81617 0.0
C2780 C 0.20306 0.29167 0.82097 0.0
C2781 C 0.18967 0.2743 0.82491 0.0
C2782 C 0.16158 0.33579 0.81304 0.0
C2783 C 0.22676 0.28801 0.81986 0.0
H2784 H 0.22825 0.34102 0.75774 0.0
H2785 H 0.24348 0.36705 0.81899 0.0
H2786 H 0.20339 0.29621 0.77393 0.0
H2787 H 0.18131 0.31407 0.77252 0.0
H2788 H 0.20197 0.31539 0.75272 0.0
H2789 H 0.22287 0.35878 0.84955 0.0
H2790 H 0.19883 0.34332 0.84686 0.0
H2791 H 0.22385 0.3302 0.8501 0.0
H2792 H 0.1416 0.29869 0.82074 0.0
H2793 H 0.19658 0.25868 0.82714 0.0
H2794 H 0.16147 0.33868 0.79565 0.0
H2795 H 0.17074 0.34884 0.82055 0.0
H2796 H 0.14492 0.3364 0.81886 0.0
H2797 H 0.23197 0.2885 0.80301 0.0
H2798 H 0.23139 0.27238 0.82666 0.0
H2799 H 0.23543 0.30071 0.82846 0.0
C2800 C 0.41274 0.47635 0.52018 0.0
C2801 C 0.39639 0.48414 0.53312 0.0
C2802 C 0.42469 0.4586 0.52629 0.0
C2803 C 0.41994 0.44818 0.54568 0.0
C2804 C 0.40272 0.45529 0.55829 0.0
C2805 C 0.39122 0.47334 0.55193 0.0
C2806 C 0.44301 0.45159 0.51243 0.0
C2807 C 0.39695 0.44432 0.57882 0.0
C2808 C 0.447 0.39464 0.54894 0.0
C2809 C 0.466 0.40007 0.55924 0.0
C2810 C 0.43089 0.40977 0.54596 0.0
C2811 C 0.43407 0.43082 0.55317 0.0
C2812 C 0.45248 0.43589 0.56509 0.0
C2813 C 0.46817 0.42036 0.56813 0.0
C2814 C 0.41123 0.40362 0.53366 0.0
C2815 C 0.45652 0.45818 0.573 0.0
H2816 H 0.41679 0.48465 0.50564 0.0
H2817 H 0.37851 0.47928 0.56194 0.0
H2818 H 0.45817 0.4533 0.52128 0.0
H2819 H 0.44128 0.43457 0.5082 0.0
H2820 H 0.44415 0.46099 0.49752 0.0
H2821 H 0.38158 0.45008 0.58533 0.0
H2822 H 0.39595 0.42688 0.57643 0.0
H2823 H 0.40953 0.44726 0.59081 0.0
H2824 H 0.44517 0.37889 0.54221 0.0
H2825 H 0.48281 0.42462 0.57616 0.0
H2826 H 0.41229 0.41012 0.51731 0.0
H2827 H 0.39678 0.41042 0.54115 0.0
H2828 H 0.40937 0.3861 0.53257 0.0
H2829 H 0.45979 0.46876 0.55927 0.0
H2830 H 0.4703 0.45893 0.58402 0.0
H2831 H 0.44231 0.4645 0.58128 0.0
C2832 C 0.68227 0.21894 0.16971 0.0
C2833 C 0.66071 0.21663 0.17479 0.0
C2834 C 0.69656 0.20213 0.17275 0.0
C2835 C 0.68897 0.18249 0.18071 0.0
C2836 C 0.66687 0.17935 0.18347 0.0
C2837 C 0.65296 0.19656 0.18062 0.0
C2838 C 0.72001 0.20614 0.16954 0.0
C2839 C 0.65811 0.15843 0.19125 0.0
C2840 C 0.73111 0.13945 0.18432 0.0
C2841 C 0.73829 0.14225 0.20523 0.0
C2842 C 0.71407 0.15149 0.17636 0.0
C2843 C 0.70438 0.16693 0.18954 0.0
C2844 C 0.71089 0.16899 0.21099 0.0
C2845 C 0.72763 0.15648 0.21862 0.0
C2846 C 0.7072 0.14843 0.1536 0.0
C2847 C 0.70106 0.18534 0.22558 0.0
H2848 H 0.68832 0.23438 0.16503 0.0
H2849 H 0.63624 0.19462 0.18432 0.0
H2850 H 0.72798 0.20702 0.18525 0.0
H2851 H 0.72743 0.19292 0.16058 0.0
H2852 H 0.72305 0.22124 0.1609 0.0
H2853 H 0.64075 0.15711 0.18829 0.0
H2854 H 0.66629 0.1449 0.18344 0.0
H2855 H 0.66086 0.15703 0.2086 0.0
H2856 H 0.73924 0.12835 0.17395 0.0
H2857 H 0.7331 0.15868 0.2348 0.0
H2858 H 0.71341 0.16168 0.14376 0.0
H2859 H 0.68961 0.14863 0.15228 0.0
H2860 H 0.71326 0.13326 0.1469 0.0
H2861 H 0.70438 0.20154 0.21943 0.0
H2862 H 0.70728 0.18424 0.24206 0.0
H2863 H 0.68355 0.18337 0.22607 0.0
C2864 C 0.58172 0.97915 0.97271 0.0
C2865 C 0.59489 0.98936 0.95797 0.0
C2866 C 0.56867 0.96222 0.96656 0.0
C2867 C 0.56912 0.95509 0.94522 0.0
C2868 C 0.58333 0.96451 0.93055 0.0
C2869 C 0.59593 0.98174 0.93706 0.0
C2870 C 0.55359 0.95271 0.98266 0.0
C2871 C 0.58461 0.95698 0.90782 0.0
C2872 C 0.54091 0.90242 0.93885 0.0
C2873 C 0.52038 0.9092 0.93346 0.0
C2874 C 0.55757 0.91708 0.94104 0.0
C2875 C 0.5534 0.93898 0.93814 0.0
C2876 C 0.53308 0.94569 0.93115 0.0
C2877 C 0.51684 0.93066 0.92871 0.0
C2878 C 0.57918 0.90927 0.94793 0.0
C2879 C 0.52796 0.96893 0.928 0.0
H2880 H 0.58086 0.98501 0.98889 0.0
H2881 H 0.60622 0.98955 0.92565 0.0
H2882 H 0.53693 0.95556 0.97761 0.0
H2883 H 0.55589 0.93526 0.98362 0.0
H2884 H 0.55579 0.95955 -0.00122 0.0
H2885 H 0.59849 0.96385 0.89933 0.0
H2886 H 0.5857 0.93939 0.9072 0.0
H2887 H 0.56995 0.96165 0.89923 0.0
H2888 H 0.54375 0.88578 0.94234 0.0
H2889 H 0.50099 0.93596 0.92449 0.0
H2890 H 0.58159 0.913 0.96499 0.0
H2891 H 0.59194 0.9174 0.93887 0.0
H2892 H 0.58087 0.89183 0.94578 0.0
H2893 H 0.52803 0.97711 0.94362 0.0
H2894 H 0.51214 0.97132 0.92052 0.0
H2895 H 0.54019 0.97666 0.91793 0.0
C2896 C 0.94529 0.09755 0.45214 0.0
C2897 C 0.96119 0.09692 0.43654 0.0
C2898 C 0.92934 0.08205 0.45283 0.0
C2899 C 0.92907 0.06583 0.43727 0.0
C2900 C 0.94372 0.06647 0.42019 0.0
C2901 C 0.9598 0.08193 0.42014 0.0
C2902 C 0.91418 0.08185 0.47145 0.0
C2903 C 0.94352 0.04981 0.40295 0.0
C2904 C 0.91279 0.01168 0.45757 0.0
C2905 C 0.89139 0.0107 0.45156 0.0
C2906 C 0.92522 0.02945 0.45271 0.0
C2907 C 0.91617 0.04644 0.44105 0.0
C2908 C 0.89475 0.04524 0.43427 0.0
C2909 C 0.88246 0.02745 0.43989 0.0
C2910 C 0.94789 0.03027 0.46064 0.0
C2911 C 0.88479 0.06281 0.42134 0.0
H2912 H 0.94619 0.10921 0.46478 0.0
H2913 H 0.97193 0.08156 0.4079 0.0
H2914 H 0.89766 0.07891 0.46607 0.0
H2915 H 0.91859 0.06874 0.48239 0.0
H2916 H 0.91456 0.09701 0.48048 0.0
H2917 H 0.95286 0.05487 0.38885 0.0
H2918 H 0.95055 0.03488 0.40916 0.0
H2919 H 0.927 0.04623 0.3979 0.0
H2920 H 0.91968 0.99878 0.46668 0.0
H2921 H 0.86593 0.02659 0.4351 0.0
H2922 H 0.95002 0.04419 0.47126 0.0
H2923 H 0.95899 0.03223 0.44709 0.0
H2924 H 0.95245 0.01571 0.46953 0.0
H2925 H 0.8835 0.07742 0.43111 0.0
H2926 H 0.86867 0.05851 0.41555 0.0
H2927 H 0.89498 0.06669 0.40747 0.0
C2928 C 0.07553 0.12223 0.39492 0.0
C2929 C 0.07492 0.12513 0.417 0.0
C2930 C 0.09442 0.12568 0.38348 0.0
C2931 C 0.11287 0.13244 0.39444 0.0
C2932 C 0.11261 0.13397 0.41689 0.0
C2933 C 0.09367 0.13018 0.42788 0.0
C2934 C 0.09425 0.12334 0.35963 0.0
C2935 C 0.13193 0.14114 0.42924 0.0
C2936 C 0.16906 0.13821 0.3739 0.0
C2937 C 0.17018 0.16032 0.37143 0.0
C2938 C 0.14977 0.12836 0.37941 0.0
C2939 C 0.13147 0.14103 0.38274 0.0
C2940 C 0.13217 0.16306 0.37829 0.0
C2941 C 0.1515 0.17241 0.37257 0.0
C2942 C 0.14945 0.10471 0.38333 0.0
C2943 C 0.11302 0.17719 0.38157 0.0
H2944 H 0.06111 0.11809 0.38647 0.0
H2945 H 0.09335 0.13218 0.44499 0.0
H2946 H 0.0929 0.13926 0.35219 0.0
H2947 H 0.10924 0.11603 0.3539 0.0
H2948 H 0.08063 0.11353 0.35415 0.0
H2949 H 0.12954 0.13994 0.44669 0.0
H2950 H 0.14599 0.13147 0.42484 0.0
H2951 H 0.13559 0.15793 0.42526 0.0
H2952 H 0.18342 0.12877 0.37278 0.0
H2953 H 0.15223 0.18948 0.37033 0.0
H2954 H 0.1344 0.09757 0.37754 0.0
H2955 H 0.15048 0.10165 0.40066 0.0
H2956 H 0.16305 0.09663 0.37548 0.0
H2957 H 0.09881 0.1703 0.37377 0.0
H2958 H 0.11558 0.19347 0.37524 0.0
H2959 H 0.10953 0.17842 0.39882 0.0
C2960 C 0.08911 0.91009 0.61566 0.0
C2961 C 0.0716 0.91323 0.62911 0.0
C2962 C 0.1009 0.89111 0.61653 0.0
C2963 C 0.09525 0.87531 0.63153 0.0
C2964 C 0.07748 0.87846 0.645 0.0
C2965 C 0.06582 0.89728 0.64349 0.0
C2966 C 0.11954 0.88823 0.60171 0.0
C2967 C 0.07095 0.86212 0.66138 0.0
C2968 C 0.10752 0.81709 0.63402 0.0
C2969 C 0.12101 0.81676 0.65173 0.0
C2970 C 0.10107 0.83647 0.62507 0.0
C2971 C 0.1081 0.85574 0.6343 0.0
C2972 C 0.12397 0.85532 0.65022 0.0
C2973 C 0.13033 0.83576 0.65869 0.0
C2974 C 0.08481 0.83631 0.60746 0.0
C2975 C 0.13214 0.87549 0.6603 0.0
H2976 H 0.09353 0.92239 0.60444 0.0
H2977 H 0.05231 0.89965 0.65392 0.0
H2978 H 0.13449 0.89158 0.61041 0.0
H2979 H 0.12042 0.87165 0.59576 0.0
H2980 H 0.11865 0.89921 0.58791 0.0
H2981 H 0.05677 0.86713 0.67063 0.0
H2982 H 0.06728 0.84679 0.65349 0.0
H2983 H 0.08421 0.85926 0.67264 0.0
H2984 H 0.10059 0.80239 0.62829 0.0
H2985 H 0.14116 0.83554 0.67209 0.0
H2986 H 0.08792 0.84928 0.59591 0.0
H2987 H 0.06876 0.83894 0.61431 0.0
H2988 H 0.08468 0.82088 0.59888 0.0
H2989 H 0.13534 0.88777 0.64809 0.0
H2990 H 0.14691 0.87268 0.66956 0.0
H2991 H 0.11986 0.88188 0.67125 0.0
C2992 C 0.40748 0.85256 0.90065 0.0
C2993 C 0.41852 0.87169 0.90324 0.0
C2994 C 0.38753 0.85212 0.89088 0.0
C2995 C 0.37865 0.87123 0.88292 0.0
C2996 C 0.39047 0.89034 0.88398 0.0
C2997 C 0.41019 0.89043 0.89449 0.0
C2998 C 0.37544 0.83135 0.89029 0.0
C2999 C 0.38199 0.91088 0.87498 0.0
C3000 C 0.33081 0.85565 0.85091 0.0
C3001 C 0.31515 0.856 0.86675 0.0
C3002 C 0.3513 0.86345 0.855 0.0
C3003 C 0.35623 0.87104 0.87557 0.0
C3004 C 0.33977 0.87378 0.89069 0.0
C3005 C 0.31928 0.86645 0.88596 0.0
C3006 C 0.36816 0.86147 0.83807 0.0
C3007 C 0.3443 0.88189 0.9128 0.0
H3008 H 0.41389 0.83803 0.90735 0.0
H3009 H 0.41879 0.90524 0.89632 0.0
H3010 H 0.36044 0.83291 0.89947 0.0
H3011 H 0.3711 0.82731 0.87371 0.0
H3012 H 0.38473 0.81794 0.89704 0.0
H3013 H 0.3951 0.92203 0.87104 0.0
H3014 H 0.37233 0.90808 0.86049 0.0
H3015 H 0.37168 0.91868 0.88696 0.0
H3016 H 0.32752 0.84793 0.83587 0.0
H3017 H 0.30713 0.86694 0.89818 0.0
H3018 H 0.37765 0.84689 0.84093 0.0
H3019 H 0.37917 0.87525 0.83853 0.0
H3020 H 0.36104 0.86034 0.82196 0.0
H3021 H 0.35329 0.86964 0.92178 0.0
H3022 H 0.32948 0.88556 0.92169 0.0
H3023 H 0.35425 0.8964 0.91218 0.0
C3024 C 0.36629 0.17391 0.15405 0.0
C3025 C 0.38261 0.17709 0.1689 0.0
C3026 C 0.36499 0.15485 0.14244 0.0
C3027 C 0.38049 0.13887 0.14573 0.0
C3028 C 0.39714 0.14225 0.1605 0.0
C3029 C 0.3979 0.16124 0.17196 0.0
C3030 C 0.34686 0.15166 0.12708 0.0
C3031 C 0.41422 0.12576 0.16431 0.0
C3032 C 0.37771 0.07999 0.13732 0.0
C3033 C 0.39237 0.07773 0.12071 0.0
C3034 C 0.37123 0.10023 0.14404 0.0
C3035 C 0.37984 0.11843 0.13399 0.0
C3036 C 0.39227 0.11607 0.1154 0.0
C3037 C 0.39833 0.09566 0.1089 0.0
C3038 C 0.35737 0.10209 0.16352 0.0
C3039 C 0.40154 0.13505 0.10402 0.0
H3040 H 0.35436 0.18614 0.15179 0.0
H3041 H 0.41059 0.16369 0.18334 0.0
H3042 H 0.35279 0.14567 0.1116 0.0
H3043 H 0.33583 0.13951 0.13352 0.0
H3044 H 0.33778 0.16655 0.12434 0.0
H3045 H 0.42633 0.13115 0.17596 0.0
H3046 H 0.40695 0.11087 0.17035 0.0
H3047 H 0.42241 0.12192 0.14917 0.0
H3048 H 0.37272 0.06613 0.14626 0.0
H3049 H 0.40937 0.09397 0.09577 0.0
H3050 H 0.34601 0.11547 0.16192 0.0
H3051 H 0.36752 0.1053 0.17757 0.0
H3052 H 0.34833 0.08722 0.16652 0.0
H3053 H 0.38984 0.1482 0.10303 0.0
H3054 H 0.40689 0.13092 0.08771 0.0
H3055 H 0.41549 0.14097 0.11306 0.0
C3056 C 0.17702 0.85151 0.11941 0.0
C3057 C 0.17899 0.8318 0.10918 0.0
C3058 C 0.1581 0.86333 0.1179 0.0
C3059 C 0.141 0.85526 0.10571 0.0
C3060 C 0.1429 0.83525 0.0956 0.0
C3061 C 0.16182 0.82377 0.09753 0.0
C3062 C 0.15652 0.88451 0.12902 0.0
C3063 C 0.12507 0.82605 0.08237 0.0
C3064 C 0.08296 0.86958 0.10763 0.0
C3065 C 0.08075 0.87986 0.088 0.0
C3066 C 0.1031 0.86347 0.11504 0.0
C3067 C 0.12125 0.86776 0.10243 0.0
C3068 C 0.11926 0.8804 0.08394 0.0
C3069 C 0.09898 0.88632 0.07694 0.0
C3070 C 0.10462 0.8504 0.13508 0.0
C3071 C 0.13822 0.88552 0.07014 0.0
H3072 H 0.19026 0.85771 0.12851 0.0
H3073 H 0.16324 0.80853 0.08962 0.0
H3074 H 0.1556 0.89743 0.11707 0.0
H3075 H 0.14178 0.88527 0.13867 0.0
H3076 H 0.17038 0.88755 0.13952 0.0
H3077 H 0.12905 0.81013 0.07584 0.0
H3078 H 0.11044 0.82458 0.0921 0.0
H3079 H 0.12142 0.83684 0.06891 0.0
H3080 H 0.06891 0.86477 0.11638 0.0
H3081 H 0.09736 0.8946 0.06192 0.0
H3082 H 0.11895 0.85472 0.14438 0.0
H3083 H 0.10596 0.83334 0.13081 0.0
H3084 H 0.09034 0.85242 0.14528 0.0
H3085 H 0.15212 0.89009 0.07994 0.0
H3086 H 0.13473 0.89857 0.05877 0.0
H3087 H 0.1427 0.87118 0.06089 0.0
C3088 C 0.40303 0.92921 0.37048 0.0
C3089 C 0.41908 0.93276 0.35542 0.0
C3090 C 0.39099 0.91038 0.37014 0.0
C3091 C 0.39524 0.89489 0.3544 0.0
C3092 C 0.41104 0.89875 0.33883 0.0
C3093 C 0.42273 0.91761 0.33955 0.0
C3094 C 0.37426 0.90681 0.38696 0.0
C3095 C 0.41598 0.88275 0.32159 0.0
C3096 C 0.38719 0.83584 0.35665 0.0
C3097 C 0.37177 0.83338 0.34079 0.0
C3098 C 0.39337 0.85618 0.36337 0.0
C3099 C 0.3838 0.87427 0.35399 0.0
C3100 C 0.36624 0.8717 0.34019 0.0
C3101 C 0.36045 0.85121 0.33369 0.0
C3102 C 0.41188 0.85825 0.37846 0.0
C3103 C 0.35528 0.89057 0.33024 0.0
H3104 H 0.40023 0.94089 0.38283 0.0
H3105 H 0.43505 0.92033 0.32781 0.0
H3106 H 0.35942 0.90052 0.37982 0.0
H3107 H 0.38006 0.89481 0.39849 0.0
H3108 H 0.37051 0.92164 0.39578 0.0
H3109 H 0.42848 0.88843 0.31049 0.0
H3110 H 0.42143 0.86762 0.32883 0.0
H3111 H 0.40144 0.87923 0.31226 0.0
H3112 H 0.39579 0.82207 0.36241 0.0
H3113 H 0.3482 0.84933 0.32171 0.0
H3114 H 0.40921 0.87136 0.38992 0.0
H3115 H 0.42647 0.86204 0.36928 0.0
H3116 H 0.41472 0.8433 0.38743 0.0
H3117 H 0.35328 0.90361 0.34192 0.0
H3118 H 0.33944 0.88622 0.32376 0.0
H3119 H 0.36518 0.8967 0.31699 0.0
C3120 C 0.41741 0.124 0.60732 0.0
C3121 C 0.41933 0.12154 0.58527 0.0
C3122 C 0.39766 0.12875 0.61658 0.0
C3123 C 0.37962 0.13131 0.60338 0.0
C3124 C 0.38122 0.12712 0.58134 0.0
C3125 C 0.40105 0.12219 0.57257 0.0
C3126 C 0.39644 0.13255 0.64022 0.0
C3127 C 0.36237 0.12966 0.56668 0.0
C3128 C 0.32284 0.13984 0.62177 0.0
C3129 C 0.321 0.16193 0.61947 0.0
C3130 C 0.34234 0.12959 0.61805 0.0
C3131 C 0.36015 0.14175 0.61162 0.0
C3132 C 0.35861 0.16416 0.61053 0.0
C3133 C 0.33908 0.17397 0.61459 0.0
C3134 C 0.34354 0.10571 0.61986 0.0
C3135 C 0.37721 0.17776 0.60369 0.0
H3136 H 0.43148 0.12326 0.61724 0.0
H3137 H 0.4024 0.12003 0.55554 0.0
H3138 H 0.39601 0.1499 0.64333 0.0
H3139 H 0.38171 0.12557 0.64696 0.0
H3140 H 0.41038 0.12576 0.64866 0.0
H3141 H 0.36571 0.12364 0.55042 0.0
H3142 H 0.34834 0.12113 0.57307 0.0
H3143 H 0.35811 0.14674 0.56551 0.0
H3144 H 0.30892 0.1305 0.62573 0.0
H3145 H 0.3378 0.19108 0.613 0.0
H3146 H 0.35854 0.10077 0.6277 0.0
H3147 H 0.34341 0.0986 0.60373 0.0
H3148 H 0.3299 0.09912 0.62893 0.0
H3149 H 0.39141 0.17409 0.61345 0.0
H3150 H 0.37376 0.19502 0.60505 0.0
H3151 H 0.38127 0.1742 0.5869 0.0
C3152 C 0.14348 0.15027 0.83484 0.0
C3153 C 0.13643 0.16895 0.84471 0.0
C3154 C 0.13663 0.13032 0.84197 0.0
C3155 C 0.12257 0.12914 0.85948 0.0
C3156 C 0.11777 0.14774 0.8712 0.0
C3157 C 0.12471 0.16754 0.8636 0.0
C3158 C 0.14227 0.11091 0.82905 0.0
C3159 C 0.10327 0.14708 0.89029 0.0
C3160 C 0.0773 0.09028 0.85264 0.0
C3161 C 0.08372 0.07319 0.86535 0.0
C3162 C 0.08982 0.10853 0.8508 0.0
C3163 C 0.10919 0.10988 0.86218 0.0
C3164 C 0.11571 0.09279 0.87528 0.0
C3165 C 0.10291 0.07449 0.8766 0.0
C3166 C 0.08234 0.12629 0.83643 0.0
C3167 C 0.1361 0.09386 0.88786 0.0
H3168 H 0.15286 0.15125 0.82042 0.0
H3169 H 0.11947 0.18193 0.87149 0.0
H3170 H 0.14541 0.09704 0.83946 0.0
H3171 H 0.12867 0.10677 0.81861 0.0
H3172 H 0.15642 0.1137 0.81886 0.0
H3173 H 0.10503 0.16153 0.90028 0.0
H3174 H 0.08652 0.14616 0.88484 0.0
H3175 H 0.10648 0.13285 0.90018 0.0
H3176 H 0.0625 0.08932 0.84387 0.0
H3177 H 0.10783 0.06131 0.88655 0.0
H3178 H 0.09437 0.12936 0.82389 0.0
H3179 H 0.08044 0.14116 0.8457 0.0
H3180 H 0.06695 0.12261 0.82861 0.0
H3181 H 0.14982 0.0957 0.87695 0.0
H3182 H 0.13862 0.07945 0.89774 0.0
H3183 H 0.13591 0.108 0.89839 0.0
C3184 C 0.16585 0.36601 0.158 0.0
C3185 C 0.15976 0.3761 0.17689 0.0
C3186 C 0.15848 0.37335 0.13832 0.0
C3187 C 0.14475 0.39115 0.13768 0.0
C3188 C 0.1363 0.39942 0.15683 0.0
C3189 C 0.14393 0.39175 0.17631 0.0
C3190 C 0.1676 0.36381 0.11829 0.0
C3191 C 0.12129 0.41813 0.15682 0.0
C3192 C 0.15842 0.43191 0.09576 0.0
C3193 C 0.14255 0.42856 0.08055 0.0
C3194 C 0.15915 0.41982 0.11438 0.0
C3195 C 0.14353 0.40399 0.11794 0.0
C3196 C 0.12742 0.40048 0.10266 0.0
C3197 C 0.12714 0.41283 0.08404 0.0
C3198 C 0.17673 0.42402 0.13022 0.0
C3199 C 0.11047 0.38385 0.10606 0.0
H3200 H 0.1778 0.3536 0.15841 0.0
H3201 H 0.13895 0.39941 0.19092 0.0
H3202 H 0.15541 0.36281 0.10562 0.0
H3203 H 0.18065 0.37412 0.11238 0.0
H3204 H 0.17419 0.34768 0.12116 0.0
H3205 H 0.11264 0.41952 0.17215 0.0
H3206 H 0.13052 0.43295 0.15432 0.0
H3207 H 0.10956 0.41684 0.14374 0.0
H3208 H 0.17038 0.44404 0.09312 0.0
H3209 H 0.11477 0.41029 0.07233 0.0
H3210 H 0.18624 0.40938 0.13268 0.0
H3211 H 0.16984 0.42855 0.1458 0.0
H3212 H 0.1876 0.43691 0.12497 0.0
H3213 H 0.11786 0.36815 0.10916 0.0
H3214 H 0.09966 0.38241 0.09218 0.0
H3215 H 0.10086 0.38796 0.12026 0.0
C3216 C 0.66081 0.13031 0.83631 0.0
C3217 C 0.67779 0.11616 0.83335 0.0
C3218 C 0.64796 0.12904 0.85456 0.0
C3219 C 0.652 0.11297 0.86979 0.0
C3220 C 0.66915 0.0987 0.86677 0.0
C3221 C 0.6819 0.1006 0.84869 0.0
C3222 C 0.63 0.14468 0.8574 0.0
C3223 C 0.67397 0.08118 0.88251 0.0
C3224 C 0.63731 0.10925 0.92738 0.0
C3225 C 0.62267 0.09248 0.92662 0.0
C3226 C 0.64511 0.11836 0.90859 0.0
C3227 C 0.63828 0.11021 0.88877 0.0
C3228 C 0.62147 0.09529 0.88804 0.0
C3229 C 0.61375 0.08668 0.90706 0.0
C3230 C 0.66247 0.13484 0.90999 0.0
C3231 C 0.61359 0.0863 0.86726 0.0
H3232 H 0.65767 0.14242 0.82447 0.0
H3233 H 0.69497 0.0896 0.84643 0.0
H3234 H 0.61463 0.13659 0.85443 0.0
H3235 H 0.62962 0.15083 0.87392 0.0
H3236 H 0.63132 0.15832 0.84626 0.0
H3237 H 0.68775 0.07129 0.87759 0.0
H3238 H 0.67747 0.08809 0.89834 0.0
H3239 H 0.65992 0.07065 0.8843 0.0
H3240 H 0.64395 0.11409 0.94252 0.0
H3241 H 0.60212 0.07397 0.9064 0.0
H3242 H 0.66066 0.14699 0.89734 0.0
H3243 H 0.67812 0.12702 0.90775 0.0
H3244 H 0.66252 0.14288 0.92571 0.0
H3245 H 0.61196 0.09895 0.85511 0.0
H3246 H 0.59803 0.07815 0.86912 0.0
H3247 H 0.6253 0.07456 0.86122 0.0
C3248 C 0.8514 0.88875 0.31872 0.0
C3249 C 0.8331 0.8761 0.31791 0.0
C3250 C 0.85971 0.89539 0.33833 0.0
C3251 C 0.84933 0.88924 0.35734 0.0
C3252 C 0.83249 0.87437 0.35656 0.0
C3253 C 0.82458 0.86795 0.3368 0.0
C3254 C 0.87808 0.9108 0.33856 0.0
C3255 C 0.82109 0.86722 0.37644 0.0
C3256 C 0.86771 0.90621 0.41237 0.0
C3257 C 0.85506 0.92427 0.41565 0.0
C3258 C 0.86672 0.89492 0.39311 0.0
C3259 C 0.85254 0.90177 0.37705 0.0
C3260 C 0.84004 0.92022 0.38023 0.0
C3261 C 0.84154 0.93126 0.39942 0.0
C3262 C 0.88045 0.87548 0.39016 0.0
C3263 C 0.82461 0.92807 0.36355 0.0
H3264 H 0.8582 0.89488 0.30412 0.0
H3265 H 0.81065 0.85782 0.33621 0.0
H3266 H 0.87189 0.92718 0.34067 0.0
H3267 H 0.88898 0.90742 0.352 0.0
H3268 H 0.88723 0.91025 0.32347 0.0
H3269 H 0.811 0.85304 0.37351 0.0
H3270 H 0.83257 0.86346 0.38926 0.0
H3271 H 0.81072 0.88029 0.38221 0.0
H3272 H 0.87829 0.90085 0.42486 0.0
H3273 H 0.83179 0.94526 0.40185 0.0
H3274 H 0.88809 0.8756 0.37427 0.0
H3275 H 0.87043 0.86101 0.39108 0.0
H3276 H 0.89301 0.87433 0.40251 0.0
H3277 H 0.83308 0.93104 0.34838 0.0
H3278 H 0.81645 0.94296 0.36838 0.0
H3279 H 0.81236 0.91576 0.36047 0.0
C3280 C 0.83536 0.134 0.15665 0.0
C3281 C 0.84015 0.1213 0.17432 0.0
C3282 C 0.84246 0.12831 0.13631 0.0
C3283 C 0.85449 0.1095 0.13375 0.0
C3284 C 0.86178 0.09837 0.1519 0.0
C3285 C 0.8545 0.10443 0.17206 0.0
C3286 C 0.83486 0.14096 0.11741 0.0
C3287 C 0.87504 0.07848 0.14988 0.0
C3288 C 0.83881 0.07295 0.08888 0.0
C3289 C 0.85607 0.07485 0.07497 0.0
C3290 C 0.83795 0.08467 0.10771 0.0
C3291 C 0.85481 0.0987 0.1128 0.0
C3292 C 0.87192 0.10136 0.09843 0.0
C3293 C 0.87238 0.08932 0.07961 0.0
C3294 C 0.81924 0.08147 0.12246 0.0
C3295 C 0.89011 0.11623 0.10325 0.0
H3296 H 0.82459 0.14735 0.15838 0.0
H3297 H 0.85856 0.09478 0.18574 0.0
H3298 H 0.84741 0.14204 0.10507 0.0
H3299 H 0.82094 0.13287 0.11023 0.0
H3300 H 0.82997 0.15728 0.12204 0.0
H3301 H 0.88264 0.07408 0.1652 0.0
H3302 H 0.86471 0.06511 0.14479 0.0
H3303 H 0.88758 0.08052 0.13767 0.0
H3304 H 0.82609 0.0619 0.08527 0.0
H3305 H 0.88576 0.0908 0.06886 0.0
H3306 H 0.81142 0.09692 0.12579 0.0
H3307 H 0.82482 0.07491 0.13785 0.0
H3308 H 0.80718 0.07046 0.11577 0.0
H3309 H 0.88427 0.13133 0.11022 0.0
H3310 H 0.89959 0.11989 0.08881 0.0
H3311 H 0.90078 0.1087 0.11509 0.0
C3312 C 0.35592 0.56999 0.59294 0.0
C3313 C 0.37069 0.57662 0.57767 0.0
C3314 C 0.35372 0.5808 0.6122 0.0
C3315 C 0.36687 0.59856 0.6165 0.0
C3316 C 0.38233 0.60497 0.60145 0.0
C3317 C 0.38392 0.59401 0.58203 0.0
C3318 C 0.33687 0.5735 0.62772 0.0
C3319 C 0.39686 0.62357 0.60567 0.0
C3320 C 0.33873 0.63325 0.65603 0.0
C3321 C 0.34563 0.62417 0.67516 0.0
C3322 C 0.34727 0.62667 0.63656 0.0
C3323 C 0.36319 0.61078 0.63633 0.0
C3324 C 0.37205 0.60358 0.65572 0.0
C3325 C 0.36305 0.61029 0.675 0.0
C3326 C 0.33742 0.63487 0.61628 0.0
C3327 C 0.38946 0.58709 0.65612 0.0
H3328 H 0.34566 0.55655 0.58965 0.0
H3329 H 0.39546 0.59908 0.57027 0.0
H3330 H 0.34422 0.56961 0.64326 0.0
H3331 H 0.32523 0.58647 0.63046 0.0
H3332 H 0.32812 0.55929 0.62198 0.0
H3333 H 0.40998 0.62454 0.5939 0.0
H3334 H 0.38761 0.63856 0.60495 0.0
H3335 H 0.40379 0.62245 0.62185 0.0
H3336 H 0.32548 0.64427 0.65609 0.0
H3337 H 0.36866 0.60346 0.68979 0.0
H3338 H 0.32665 0.62256 0.60967 0.0
H3339 H 0.34978 0.63819 0.60417 0.0
H3340 H 0.32802 0.64957 0.61899 0.0
H3341 H 0.38247 0.57117 0.65321 0.0
H3342 H 0.39772 0.58672 0.67172 0.0
H3343 H 0.40132 0.59014 0.64344 0.0
C3344 C 0.14627 0.6199 0.32353 0.0
C3345 C 0.1681 0.61545 0.32306 0.0
C3346 C 0.13423 0.61601 0.34197 0.0
C3347 C 0.14431 0.60716 0.36004 0.0
C3348 C 0.16655 0.6037 0.3599 0.0
C3349 C 0.17814 0.60801 0.34148 0.0
C3350 C 0.11066 0.62043 0.34167 0.0
C3351 C 0.17803 0.59427 0.3788 0.0
C3352 C 0.12595 0.60045 0.41649 0.0
C3353 C 0.12242 0.57846 0.41681 0.0
C3354 C 0.1305 0.61092 0.3973 0.0
C3355 C 0.13184 0.59896 0.3783 0.0
C3356 C 0.12575 0.57731 0.37828 0.0
C3357 C 0.12099 0.56735 0.39757 0.0
C3358 C 0.13597 0.63424 0.39774 0.0
C3359 C 0.12676 0.56399 0.35835 0.0
H3360 H 0.13848 0.62587 0.30936 0.0
H3361 H 0.19507 0.60479 0.3413 0.0
H3362 H 0.102 0.6056 0.33771 0.0
H3363 H 0.10497 0.62596 0.35742 0.0
H3364 H 0.10654 0.63255 0.32952 0.0
H3365 H 0.19549 0.59339 0.37633 0.0
H3366 H 0.17494 0.60388 0.39324 0.0
H3367 H 0.17203 0.57797 0.38188 0.0
H3368 H 0.12666 0.6092 0.43131 0.0
H3369 H 0.11778 0.55042 0.3977 0.0
H3370 H 0.12994 0.64239 0.3833 0.0
H3371 H 0.1535 0.63613 0.39805 0.0
H3372 H 0.12931 0.64219 0.41203 0.0
H3373 H 0.1193 0.57244 0.34483 0.0
H3374 H 0.11874 0.54839 0.3604 0.0
H3375 H 0.14365 0.56104 0.35415 0.0
C3376 C 0.3574 0.42508 0.89187 0.0
C3377 C 0.37155 0.41609 0.90648 0.0
C3378 C 0.35294 0.41499 0.8726 0.0
C3379 C 0.36336 0.39569 0.86753 0.0
C3380 C 0.37823 0.38685 0.88192 0.0
C3381 C 0.38192 0.39702 0.90147 0.0
C3382 C 0.33662 0.42478 0.85791 0.0
C3383 C 0.39008 0.36666 0.87672 0.0
C3384 C 0.33036 0.36558 0.82792 0.0
C3385 C 0.33763 0.37456 0.80887 0.0
C3386 C 0.34002 0.37067 0.84731 0.0
C3387 C 0.35764 0.38466 0.84749 0.0
C3388 C 0.36669 0.39148 0.82805 0.0
C3389 C 0.35639 0.38656 0.8089 0.0
C3390 C 0.32969 0.36319 0.86764 0.0
C3391 C 0.38594 0.40578 0.82756 0.0
H3392 H 0.34927 0.43976 0.89578 0.0
H3393 H 0.39298 0.39017 0.91275 0.0
H3394 H 0.34399 0.42852 0.84235 0.0
H3395 H 0.32353 0.41333 0.85498 0.0
H3396 H 0.32967 0.43962 0.86449 0.0
H3397 H 0.4025 0.36295 0.88871 0.0
H3398 H 0.37881 0.35314 0.87597 0.0
H3399 H 0.3977 0.36799 0.86087 0.0
H3400 H 0.31595 0.35614 0.82796 0.0
H3401 H 0.36225 0.39326 0.79415 0.0
H3402 H 0.3205 0.37649 0.87469 0.0
H3403 H 0.34179 0.35825 0.87945 0.0
H3404 H 0.31865 0.3497 0.86485 0.0
H3405 H 0.381 0.42233 0.83108 0.0
H3406 H 0.39376 0.40561 0.81173 0.0
H3407 H 0.39769 0.40095 0.83979 0.0
C3408 C 0.5933 0.65213 0.92105 0.0
C3409 C 0.57664 0.63833 0.91587 0.0
C3410 C 0.61145 0.65347 0.90831 0.0
C3411 C 0.61304 0.64066 0.88988 0.0
C3412 C 0.59618 0.62682 0.88437 0.0
C3413 C 0.5781 0.6258 0.8975 0.0
C3414 C 0.629 0.66859 0.91473 0.0
C3415 C 0.59739 0.61289 0.86489 0.0
C3416 C 0.65468 0.66527 0.85511 0.0
C3417 C 0.67299 0.65555 0.86327 0.0
C3418 C 0.63443 0.65871 0.86165 0.0
C3419 C 0.63259 0.64215 0.87675 0.0
C3420 C 0.65087 0.63047 0.88276 0.0
C3421 C 0.67094 0.63731 0.87589 0.0
C3422 C 0.6153 0.67128 0.85445 0.0
C3423 C 0.64955 0.61248 0.89856 0.0
H3424 H 0.59223 0.66189 0.9352 0.0
H3425 H 0.56524 0.61505 0.89351 0.0
H3426 H 0.64399 0.65967 0.91735 0.0
H3427 H 0.63196 0.68024 0.90183 0.0
H3428 H 0.62516 0.67749 0.92949 0.0
H3429 H 0.58202 0.60488 0.8615 0.0
H3430 H 0.60211 0.62237 0.85079 0.0
H3431 H 0.60973 0.60053 0.86725 0.0
H3432 H 0.65619 0.67916 0.845 0.0
H3433 H 0.68506 0.62955 0.88202 0.0
H3434 H 0.61088 0.68283 0.86703 0.0
H3435 H 0.60144 0.66074 0.85176 0.0
H3436 H 0.61862 0.68027 0.83962 0.0
H3437 H 0.64792 0.61914 0.91481 0.0
H3438 H 0.66403 0.60237 0.89816 0.0
H3439 H 0.63544 0.60238 0.89548 0.0
C3440 C 0.64009 0.34419 0.16592 0.0
C3441 C 0.63177 0.3256 0.15691 0.0
C3442 C 0.63312 0.36423 0.15915 0.0
C3443 C 0.61739 0.36556 0.14314 0.0
C3444 C 0.61099 0.34696 0.13221 0.0
C3445 C 0.61835 0.32712 0.13921 0.0
C3446 C 0.6407 0.3837 0.17092 0.0
C3447 C 0.59442 0.34771 0.1149 0.0
C3448 C 0.57382 0.40565 0.15322 0.0
C3449 C 0.57855 0.42161 0.13847 0.0
C3450 C 0.58643 0.38743 0.15481 0.0
C3451 C 0.60434 0.38513 0.14137 0.0
C3452 C 0.60943 0.4013 0.12658 0.0
C3453 C 0.59638 0.4194 0.12525 0.0
C3454 C 0.58041 0.37055 0.17083 0.0
C3455 C 0.62846 0.39938 0.11211 0.0
H3456 H 0.65077 0.34309 0.17939 0.0
H3457 H 0.61204 0.31278 0.13204 0.0
H3458 H 0.64296 0.39728 0.1599 0.0
H3459 H 0.62853 0.38841 0.18279 0.0
H3460 H 0.65586 0.38068 0.17944 0.0
H3461 H 0.59443 0.33294 0.10522 0.0
H3462 H 0.57846 0.3495 0.12222 0.0
H3463 H 0.597 0.36151 0.10425 0.0
H3464 H 0.56006 0.40727 0.16347 0.0
H3465 H 0.60007 0.43174 0.1138 0.0
H3466 H 0.59367 0.36801 0.18217 0.0
H3467 H 0.57747 0.35523 0.16262 0.0
H3468 H 0.56595 0.37481 0.18002 0.0
H3469 H 0.64303 0.39635 0.12156 0.0
H3470 H 0.63093 0.41389 0.10236 0.0
H3471 H 0.62634 0.38563 0.10129 0.0
C3472 C 0.83687 0.31884 0.40763 0.0
C3473 C 0.81981 0.32775 0.39646 0.0
C3474 C 0.85578 0.33009 0.41057 0.0
C3475 C 0.85775 0.35085 0.40211 0.0
C3476 C 0.84066 0.35996 0.39065 0.0
C3477 C 0.82179 0.34827 0.38796 0.0
C3478 C 0.87361 0.31976 0.42294 0.0
C3479 C 0.84228 0.38203 0.3814 0.0
C3480 C 0.90038 0.37927 0.43268 0.0
C3481 C 0.91838 0.37407 0.42064 0.0
C3482 C 0.87998 0.37386 0.42564 0.0
C3483 C 0.87763 0.36287 0.40617 0.0
C3484 C 0.89555 0.35968 0.39291 0.0
C3485 C 0.9158 0.36538 0.40031 0.0
C3486 C 0.86128 0.37783 0.44015 0.0
C3487 C 0.89367 0.3482 0.37194 0.0
H3488 H 0.83546 0.30297 0.41419 0.0
H3489 H 0.80863 0.35516 0.37925 0.0
H3490 H 0.88823 0.31909 0.4131 0.0
H3491 H 0.87731 0.32935 0.43726 0.0
H3492 H 0.86961 0.30335 0.42811 0.0
H3493 H 0.82792 0.38646 0.37215 0.0
H3494 H 0.84449 0.39378 0.39435 0.0
H3495 H 0.85639 0.38317 0.37089 0.0
H3496 H 0.90231 0.38634 0.44828 0.0
H3497 H 0.92969 0.3615 0.39087 0.0
H3498 H 0.85691 0.36278 0.44825 0.0
H3499 H 0.84722 0.38322 0.43099 0.0
H3500 H 0.86499 0.38988 0.45249 0.0
H3501 H 0.89217 0.33088 0.37492 0.0
H3502 H 0.90785 0.35086 0.36175 0.0
H3503 H 0.87928 0.35338 0.36318 0.0
C3504 C 0.89067 0.668 0.63986 0.0
C3505 C 0.87608 0.6698 0.65658 0.0
C3506 C 0.89767 0.64798 0.633 0.0
C3507 C 0.88999 0.6295 0.6433 0.0
C3508 C 0.87346 0.63121 0.65845 0.0
C3509 C 0.86661 0.65141 0.66485 0.0
C3510 C 0.91496 0.64679 0.61642 0.0
C3511 C 0.86476 0.61192 0.66976 0.0
C3512 C 0.90895 0.57467 0.62614 0.0
C3513 C 0.92635 0.57173 0.63977 0.0
C3514 C 0.89688 0.59346 0.62691 0.0
C3515 C 0.90229 0.60943 0.64181 0.0
C3516 C 0.9197 0.60634 0.65573 0.0
C3517 C 0.93155 0.5876 0.65445 0.0
C3518 C 0.87856 0.59636 0.61171 0.0
C3519 C 0.92589 0.62287 0.67204 0.0
H3520 H 0.89781 0.6822 0.63319 0.0
H3521 H 0.85509 0.65272 0.67761 0.0
H3522 H 0.9305 0.64426 0.62438 0.0
H3523 H 0.91229 0.63324 0.60549 0.0
H3524 H 0.91597 0.66167 0.60695 0.0
H3525 H 0.84941 0.61539 0.67779 0.0
H3526 H 0.86241 0.59853 0.65856 0.0
H3527 H 0.87633 0.60667 0.68199 0.0
H3528 H 0.90497 0.56243 0.6147 0.0
H3529 H 0.94493 0.58536 0.66507 0.0
H3530 H 0.8816 0.61027 0.60132 0.0
H3531 H 0.86371 0.59969 0.62062 0.0
H3532 H 0.87601 0.58216 0.60155 0.0
H3533 H 0.93012 0.63797 0.66399 0.0
H3534 H 0.93962 0.61778 0.68191 0.0
H3535 H 0.91226 0.6262 0.68273 0.0
C3536 C 0.57932 0.37804 0.60209 0.0
C3537 C 0.57751 0.36782 0.58237 0.0
C3538 C 0.59817 0.37657 0.61401 0.0
C3539 C 0.61523 0.36413 0.60619 0.0
C3540 C 0.61359 0.35429 0.58602 0.0
C3541 C 0.59485 0.35644 0.57431 0.0
C3542 C 0.59952 0.38774 0.63517 0.0
C3543 C 0.6313 0.34068 0.57712 0.0
C3544 C 0.6727 0.36196 0.62252 0.0
C3545 C 0.67311 0.34226 0.6329 0.0
C3546 C 0.65335 0.37088 0.61587 0.0
C3547 C 0.63421 0.35958 0.61943 0.0
C3548 C 0.63442 0.34101 0.6321 0.0
C3549 C 0.6539 0.33264 0.63882 0.0
C3550 C 0.65364 0.39121 0.60316 0.0
C3551 C 0.61437 0.32851 0.63639 0.0
H3552 H 0.56597 0.387 0.60828 0.0
H3553 H 0.59354 0.34855 0.55905 0.0
H3554 H 0.59657 0.37614 0.64811 0.0
H3555 H 0.61556 0.39463 0.63769 0.0
H3556 H 0.5875 0.40061 0.63651 0.0
H3557 H 0.62756 0.33443 0.56105 0.0
H3558 H 0.64622 0.35001 0.57612 0.0
H3559 H 0.6343 0.32701 0.58785 0.0
H3560 H 0.68751 0.36966 0.61822 0.0
H3561 H 0.65411 0.31758 0.6472 0.0
H3562 H 0.63978 0.40135 0.60723 0.0
H3563 H 0.65263 0.38738 0.58599 0.0
H3564 H 0.66847 0.40038 0.60591 0.0
H3565 H 0.60126 0.3392 0.64128 0.0
H3566 H 0.61673 0.31633 0.64896 0.0
H3567 H 0.60935 0.32033 0.6216 0.0
C3568 C 0.90443 0.34901 0.82408 0.0
C3569 C 0.89097 0.33246 0.83039 0.0
C3570 C 0.90549 0.36793 0.83564 0.0
C3571 C 0.89253 0.37052 0.85387 0.0
C3572 C 0.87835 0.35415 0.85998 0.0
C3573 C 0.87789 0.33514 0.84824 0.0
C3574 C 0.92097 0.38493 0.8286 0.0
C3575 C 0.86406 0.35648 0.8791 0.0
C3576 C 0.91927 0.41033 0.88913 0.0
C3577 C 0.91106 0.4293 0.88081 0.0
C3578 C 0.91158 0.39063 0.88227 0.0
C3579 C 0.89519 0.38999 0.86689 0.0
C3580 C 0.88491 0.40904 0.86072 0.0
C3581 C 0.89307 0.42859 0.8677 0.0
C3582 C 0.92284 0.37069 0.88945 0.0
C3583 C 0.86689 0.40893 0.84492 0.0
H3584 H 0.91454 0.34702 0.81027 0.0
H3585 H 0.86735 0.32239 0.85307 0.0
H3586 H 0.9124 0.40004 0.82557 0.0
H3587 H 0.93275 0.38797 0.84136 0.0
H3588 H 0.9297 0.38045 0.81393 0.0
H3589 H 0.85116 0.34442 0.87917 0.0
H3590 H 0.87357 0.35445 0.89379 0.0
H3591 H 0.85684 0.37256 0.87962 0.0
H3592 H 0.93293 0.41082 0.89961 0.0
H3593 H 0.88644 0.44323 0.8615 0.0
H3594 H 0.93357 0.36514 0.87659 0.0
H3595 H 0.91131 0.35779 0.89273 0.0
H3596 H 0.93254 0.37346 0.90394 0.0
H3597 H 0.87344 0.40709 0.82865 0.0
H3598 H 0.85766 0.42397 0.84548 0.0
H3599 H 0.85599 0.3954 0.84789 0.0
C3600 C 0.82438 0.64604 0.11989 0.0
C3601 C 0.82224 0.66763 0.11482 0.0
C3602 C 0.84401 0.63564 0.1174 0.0
C3603 C 0.86164 0.64711 0.10937 0.0
C3604 C 0.85975 0.66917 0.10536 0.0
C3605 C 0.84013 0.67915 0.10825 0.0
C3606 C 0.84556 0.61223 0.12235 0.0
C3607 C 0.87813 0.68204 0.09674 0.0
C3608 C 0.9195 0.63148 0.10692 0.0
C3609 C 0.92146 0.62673 0.08525 0.0
C3610 C 0.89951 0.63601 0.11579 0.0
C3611 C 0.88132 0.63606 0.10255 0.0
C3612 C 0.88304 0.62925 0.08119 0.0
C3613 C 0.90311 0.62455 0.07284 0.0
C3614 C 0.89816 0.6425 0.13882 0.0
C3615 C 0.86405 0.62902 0.0665 0.0
H3616 H 0.81061 0.63712 0.12517 0.0
H3617 H 0.83863 0.69591 0.10453 0.0
H3618 H 0.84482 0.60302 0.10734 0.0
H3619 H 0.86091 0.60844 0.13017 0.0
H3620 H 0.83234 0.60687 0.13276 0.0
H3621 H 0.87432 0.69925 0.09557 0.0
H3622 H 0.8923 0.68015 0.10703 0.0
H3623 H 0.88244 0.6762 0.08066 0.0
H3624 H 0.93364 0.63288 0.11665 0.0
H3625 H 0.90451 0.62053 0.05614 0.0
H3626 H 0.88363 0.63595 0.14637 0.0
H3627 H 0.89728 0.66008 0.1399 0.0
H3628 H 0.9123 0.63711 0.14794 0.0
H3629 H 0.85036 0.62099 0.07415 0.0
H3630 H 0.86756 0.62089 0.05123 0.0
H3631 H 0.85919 0.64561 0.06297 0.0
C3632 C 0.6285 0.66623 0.3455 0.0
C3633 C 0.61181 0.67096 0.33151 0.0
C3634 C 0.62866 0.64705 0.35702 0.0
C3635 C 0.61173 0.63245 0.35436 0.0
C3636 C 0.59449 0.63764 0.34083 0.0
C3637 C 0.59479 0.65677 0.32957 0.0
C3638 C 0.6473 0.64212 0.37127 0.0
C3639 C 0.57593 0.62269 0.3377 0.0
C3640 C 0.61184 0.5731 0.35825 0.0
C3641 C 0.5978 0.57025 0.3753 0.0
C3642 C 0.61906 0.59345 0.35277 0.0
C3643 C 0.61196 0.6112 0.36462 0.0
C3644 C 0.60039 0.60797 0.38364 0.0
C3645 C 0.59342 0.58744 0.38879 0.0
C3646 C 0.63195 0.59615 0.33273 0.0
C3647 C 0.59303 0.62643 0.39705 0.0
H3648 H 0.64171 0.67718 0.34699 0.0
H3649 H 0.58177 0.66046 0.31892 0.0
H3650 H 0.64204 0.63428 0.38616 0.0
H3651 H 0.65818 0.63101 0.36296 0.0
H3652 H 0.6564 0.65668 0.37538 0.0
H3653 H 0.56347 0.62951 0.32722 0.0
H3654 H 0.58156 0.60759 0.33054 0.0
H3655 H 0.56858 0.61878 0.35324 0.0
H3656 H 0.61564 0.55977 0.34802 0.0
H3657 H 0.5829 0.58526 0.40226 0.0
H3658 H 0.64441 0.60842 0.33488 0.0
H3659 H 0.62134 0.60151 0.31969 0.0
H3660 H 0.63961 0.58103 0.32778 0.0
H3661 H 0.60553 0.63882 0.39816 0.0
H3662 H 0.58861 0.62126 0.41334 0.0
H3663 H 0.57885 0.63376 0.38955 0.0
C3664 C 0.59768 0.9063 0.59728 0.0
C3665 C 0.61122 0.90165 0.58019 0.0
C3666 C 0.60215 0.8986 0.61771 0.0
C3667 C 0.6206 0.88617 0.62094 0.0
C3668 C 0.63229 0.87878 0.60319 0.0
C3669 C 0.62744 0.88664 0.58292 0.0
C3670 C 0.58877 0.90612 0.63613 0.0
C3671 C 0.65171 0.86497 0.6059 0.0
C3672 C 0.65645 0.9018 0.66633 0.0
C3673 C 0.65447 0.88447 0.68013 0.0
C3674 C 0.64486 0.90276 0.64744 0.0
C3675 C 0.63082 0.88596 0.64219 0.0
C3676 C 0.62786 0.86891 0.65657 0.0
C3677 C 0.63984 0.86832 0.67544 0.0
C3678 C 0.64837 0.92144 0.63271 0.0
C3679 C 0.6129 0.85083 0.65169 0.0
H3680 H 0.58477 0.91751 0.59515 0.0
H3681 H 0.63768 0.88262 0.56965 0.0
H3682 H 0.58714 0.89349 0.64833 0.0
H3683 H 0.59662 0.91997 0.64372 0.0
H3684 H 0.57268 0.91111 0.63084 0.0
H3685 H 0.65654 0.85741 0.59069 0.0
H3686 H 0.66513 0.87488 0.61165 0.0
H3687 H 0.64881 0.85238 0.61787 0.0
H3688 H 0.66759 0.91442 0.67001 0.0
H3689 H 0.63827 0.85489 0.68612 0.0
H3690 H 0.63302 0.92934 0.62915 0.0
H3691 H 0.65514 0.91581 0.61742 0.0
H3692 H 0.65936 0.93345 0.63954 0.0
H3693 H 0.59847 0.85649 0.64329 0.0
H3694 H 0.60799 0.84236 0.66639 0.0
H3695 H 0.62106 0.83925 0.6412 0.0
loop_
_geom_bond_atom_site_label_1
_geom_bond_atom_site_label_2
_geom_bond_distance
_geom_bond_site_symmetry_2
_ccdc_geom_bond_type
In0 O1 2.294 . S
In0 O2 2.326 . S
In0 O6 2.266 . S
In0 O7 2.326 . S
In0 O8 2.266 . S
In0 O9 2.326 . S
In0 O11 2.294 . S
In0 O12 2.326 . S
O1 In0 2.294 . S
O1 C10 1.240 . S
O2 In0 2.326 . S
O2 C10 1.252 . S
C3 O6 1.252 . S
C3 O7 1.260 . S
C4 O11 1.240 . S
C4 O12 1.252 . S
C5 O8 1.252 . S
C5 O9 1.260 . S
O6 In0 2.266 . S
O6 C3 1.252 . S
O7 In0 2.326 . S
O7 C3 1.260 . S
O8 In0 2.266 . S
O8 C5 1.252 . S
O9 In0 2.326 . S
O9 C5 1.260 . S
C10 O1 1.240 . S
C10 O2 1.252 . S
O11 In0 2.294 . S
O11 C4 1.240 . S
O12 In0 2.326 . S
O12 C4 1.252 . S
In13 O14 2.294 . S
In13 O15 2.326 . S
In13 O19 2.266 . S
In13 O20 2.326 1_565 S
In13 O21 2.266 1_455 S
In13 O22 2.326 . S
In13 O24 2.294 . S
In13 O25 2.326 . S
O14 In13 2.294 . S
O14 C23 1.240 . S
O15 In13 2.326 . S
O15 C23 1.252 . S
C16 O19 1.252 1_545 S
C16 O20 1.260 . S
C17 O24 1.240 . S
C17 O25 1.252 . S
C18 O21 1.252 1_455 S
C18 O22 1.260 . S
O19 In13 2.266 . S
O19 C16 1.252 1_565 S
O20 In13 2.326 1_545 S
O20 C16 1.260 . S
O21 In13 2.266 1_655 S
O21 C18 1.252 1_655 S
O22 In13 2.326 . S
O22 C18 1.260 . S
C23 O14 1.240 . S
C23 O15 1.252 . S
O24 In13 2.294 . S
O24 C17 1.240 . S
O25 In13 2.326 . S
O25 C17 1.252 . S
In26 O27 2.294 . S
In26 O28 2.326 . S
In26 O32 2.266 . S
In26 O33 2.326 . S
In26 O34 2.266 . S
In26 O35 2.326 . S
In26 O37 2.294 . S
In26 O38 2.326 . S
O27 In26 2.294 . S
O27 C36 1.240 . S
O28 In26 2.326 . S
O28 C36 1.252 . S
C29 O32 1.252 . S
C29 O33 1.260 . S
C30 O37 1.240 . S
C30 O38 1.252 . S
C31 O34 1.252 . S
C31 O35 1.260 . S
O32 In26 2.266 . S
O32 C29 1.252 . S
O33 In26 2.326 . S
O33 C29 1.260 . S
O34 In26 2.266 . S
O34 C31 1.252 . S
O35 In26 2.326 . S
O35 C31 1.260 . S
C36 O27 1.240 . S
C36 O28 1.252 . S
O37 In26 2.294 . S
O37 C30 1.240 . S
O38 In26 2.326 . S
O38 C30 1.252 . S
In39 O40 2.294 . S
In39 O41 2.326 . S
In39 O45 2.266 . S
In39 O46 2.326 1_545 S
In39 O47 2.266 . S
In39 O48 2.326 . S
In39 O50 2.294 . S
In39 O51 2.326 . S
O40 In39 2.294 . S
O40 C49 1.240 . S
O41 In39 2.326 . S
O41 C49 1.252 . S
C42 O45 1.252 1_565 S
C42 O46 1.260 . S
C43 O50 1.240 . S
C43 O51 1.252 . S
C44 O47 1.252 . S
C44 O48 1.260 . S
O45 In39 2.266 . S
O45 C42 1.252 1_545 S
O46 In39 2.326 1_565 S
O46 C42 1.260 . S
O47 In39 2.266 . S
O47 C44 1.252 . S
O48 In39 2.326 . S
O48 C44 1.260 . S
C49 O40 1.240 . S
C49 O41 1.252 . S
O50 In39 2.294 . S
O50 C43 1.240 . S
O51 In39 2.326 . S
O51 C43 1.252 . S
In52 O53 2.294 . S
In52 O54 2.326 . S
In52 O58 2.266 . S
In52 O59 2.326 . S
In52 O60 2.266 . S
In52 O61 2.326 . S
In52 O63 2.294 . S
In52 O64 2.326 . S
O53 In52 2.294 . S
O53 C62 1.240 . S
O54 In52 2.326 . S
O54 C62 1.252 . S
C55 O58 1.252 . S
C55 O59 1.260 . S
C56 O63 1.240 . S
C56 O64 1.252 . S
C57 O60 1.252 . S
C57 O61 1.260 . S
O58 In52 2.266 . S
O58 C55 1.252 . S
O59 In52 2.326 . S
O59 C55 1.260 . S
O60 In52 2.266 . S
O60 C57 1.252 . S
O61 In52 2.326 . S
O61 C57 1.260 . S
C62 O53 1.240 . S
C62 O54 1.252 . S
O63 In52 2.294 . S
O63 C56 1.240 . S
O64 In52 2.326 . S
O64 C56 1.252 . S
In65 O66 2.294 . S
In65 O67 2.326 . S
In65 O71 2.266 . S
In65 O72 2.326 1_565 S
In65 O73 2.266 . S
In65 O74 2.326 . S
In65 O76 2.294 . S
In65 O77 2.326 . S
O66 In65 2.294 . S
O66 C75 1.240 . S
O67 In65 2.326 . S
O67 C75 1.252 . S
C68 O71 1.252 1_545 S
C68 O72 1.260 . S
C69 O76 1.240 . S
C69 O77 1.252 . S
C70 O73 1.252 . S
C70 O74 1.260 . S
O71 In65 2.266 . S
O71 C68 1.252 1_565 S
O72 In65 2.326 1_545 S
O72 C68 1.260 . S
O73 In65 2.266 . S
O73 C70 1.252 . S
O74 In65 2.326 . S
O74 C70 1.260 . S
C75 O66 1.240 . S
C75 O67 1.252 . S
O76 In65 2.294 . S
O76 C69 1.240 . S
O77 In65 2.326 . S
O77 C69 1.252 . S
In78 O79 2.294 . S
In78 O80 2.326 . S
In78 O84 2.266 . S
In78 O85 2.326 . S
In78 O86 2.266 . S
In78 O87 2.326 . S
In78 O89 2.294 . S
In78 O90 2.326 . S
O79 In78 2.294 . S
O79 C88 1.240 . S
O80 In78 2.326 . S
O80 C88 1.252 . S
C81 O84 1.252 . S
C81 O85 1.260 . S
C82 O89 1.240 . S
C82 O90 1.252 . S
C83 O86 1.252 . S
C83 O87 1.260 . S
O84 In78 2.266 . S
O84 C81 1.252 . S
O85 In78 2.326 . S
O85 C81 1.260 . S
O86 In78 2.266 . S
O86 C83 1.252 . S
O87 In78 2.326 . S
O87 C83 1.260 . S
C88 O79 1.240 . S
C88 O80 1.252 . S
O89 In78 2.294 . S
O89 C82 1.240 . S
O90 In78 2.326 . S
O90 C82 1.252 . S
In91 O92 2.294 . S
In91 O93 2.326 . S
In91 O97 2.266 1_455 S
In91 O98 2.326 . S
In91 O99 2.266 . S
In91 O100 2.326 1_545 S
In91 O102 2.294 . S
In91 O103 2.326 . S
O92 In91 2.294 . S
O92 C101 1.240 . S
O93 In91 2.326 . S
O93 C101 1.252 . S
C94 O97 1.252 1_455 S
C94 O98 1.260 . S
C95 O102 1.240 . S
C95 O103 1.252 . S
C96 O99 1.252 1_565 S
C96 O100 1.260 . S
O97 In91 2.266 1_655 S
O97 C94 1.252 1_655 S
O98 In91 2.326 . S
O98 C94 1.260 . S
O99 In91 2.266 . S
O99 C96 1.252 1_545 S
O100 In91 2.326 1_565 S
O100 C96 1.260 . S
C101 O92 1.240 . S
C101 O93 1.252 . S
O102 In91 2.294 . S
O102 C95 1.240 . S
O103 In91 2.326 . S
O103 C95 1.252 . S
In104 O105 2.294 . S
In104 O106 2.326 . S
In104 O110 2.266 . S
In104 O111 2.326 . S
In104 O112 2.266 . S
In104 O113 2.326 . S
In104 O115 2.294 . S
In104 O116 2.326 . S
O105 In104 2.294 . S
O105 C114 1.240 . S
O106 In104 2.326 . S
O106 C114 1.252 . S
C107 O110 1.252 . S
C107 O111 1.260 . S
C108 O115 1.240 . S
C108 O116 1.252 . S
C109 O112 1.252 . S
C109 O113 1.260 . S
O110 In104 2.266 . S
O110 C107 1.252 . S
O111 In104 2.326 . S
O111 C107 1.260 . S
O112 In104 2.266 . S
O112 C109 1.252 . S
O113 In104 2.326 . S
O113 C109 1.260 . S
C114 O105 1.240 . S
C114 O106 1.252 . S
O115 In104 2.294 . S
O115 C108 1.240 . S
O116 In104 2.326 . S
O116 C108 1.252 . S
In117 O118 2.294 . S
In117 O119 2.326 . S
In117 O123 2.266 . S
In117 O124 2.326 . S
In117 O125 2.266 . S
In117 O126 2.326 1_455 S
In117 O128 2.294 . S
In117 O129 2.326 . S
O118 In117 2.294 . S
O118 C127 1.240 . S
O119 In117 2.326 . S
O119 C127 1.252 . S
C120 O123 1.252 . S
C120 O124 1.260 . S
C121 O128 1.240 . S
C121 O129 1.252 . S
C122 O125 1.252 1_655 S
C122 O126 1.260 . S
O123 In117 2.266 . S
O123 C120 1.252 . S
O124 In117 2.326 . S
O124 C120 1.260 . S
O125 In117 2.266 . S
O125 C122 1.252 1_455 S
O126 In117 2.326 1_655 S
O126 C122 1.260 . S
C127 O118 1.240 . S
C127 O119 1.252 . S
O128 In117 2.294 . S
O128 C121 1.240 . S
O129 In117 2.326 . S
O129 C121 1.252 . S
In130 O131 2.294 . S
In130 O132 2.326 . S
In130 O136 2.266 . S
In130 O137 2.326 . S
In130 O138 2.266 . S
In130 O139 2.326 . S
In130 O141 2.294 . S
In130 O142 2.326 . S
O131 In130 2.294 . S
O131 C140 1.240 . S
O132 In130 2.326 . S
O132 C140 1.252 . S
C133 O136 1.252 . S
C133 O137 1.260 . S
C134 O141 1.240 . S
C134 O142 1.252 . S
C135 O138 1.252 . S
C135 O139 1.260 . S
O136 In130 2.266 . S
O136 C133 1.252 . S
O137 In130 2.326 . S
O137 C133 1.260 . S
O138 In130 2.266 . S
O138 C135 1.252 . S
O139 In130 2.326 . S
O139 C135 1.260 . S
C140 O131 1.240 . S
C140 O132 1.252 . S
O141 In130 2.294 . S
O141 C134 1.240 . S
O142 In130 2.326 . S
O142 C134 1.252 . S
In143 O144 2.294 . S
In143 O145 2.326 . S
In143 O149 2.266 . S
In143 O150 2.326 . S
In143 O151 2.266 1_556 S
In143 O152 2.326 . S
In143 O154 2.294 . S
In143 O155 2.326 . S
O144 In143 2.294 . S
O144 C153 1.240 . S
O145 In143 2.326 . S
O145 C153 1.252 . S
C146 O149 1.252 . S
C146 O150 1.260 . S
C147 O154 1.240 . S
C147 O155 1.252 . S
C148 O151 1.252 1_556 S
C148 O152 1.260 . S
O149 In143 2.266 . S
O149 C146 1.252 . S
O150 In143 2.326 . S
O150 C146 1.260 . S
O151 In143 2.266 1_554 S
O151 C148 1.252 1_554 S
O152 In143 2.326 . S
O152 C148 1.260 . S
C153 O144 1.240 . S
C153 O145 1.252 . S
O154 In143 2.294 . S
O154 C147 1.240 . S
O155 In143 2.326 . S
O155 C147 1.252 . S
In156 O157 2.294 . S
In156 O158 2.326 . S
In156 O162 2.266 . S
In156 O163 2.326 . S
In156 O164 2.266 . S
In156 O165 2.326 . S
In156 O167 2.294 . S
In156 O168 2.326 . S
O157 In156 2.294 . S
O157 C166 1.240 . S
O158 In156 2.326 . S
O158 C166 1.252 . S
C159 O162 1.252 . S
C159 O163 1.260 . S
C160 O167 1.240 . S
C160 O168 1.252 . S
C161 O164 1.252 . S
C161 O165 1.260 . S
O162 In156 2.266 . S
O162 C159 1.252 . S
O163 In156 2.326 . S
O163 C159 1.260 . S
O164 In156 2.266 . S
O164 C161 1.252 . S
O165 In156 2.326 . S
O165 C161 1.260 . S
C166 O157 1.240 . S
C166 O158 1.252 . S
O167 In156 2.294 . S
O167 C160 1.240 . S
O168 In156 2.326 . S
O168 C160 1.252 . S
In169 O170 2.294 . S
In169 O171 2.326 . S
In169 O175 2.266 . S
In169 O176 2.326 . S
In169 O177 2.266 . S
In169 O178 2.326 . S
In169 O180 2.294 . S
In169 O181 2.326 . S
O170 In169 2.294 . S
O170 C179 1.240 . S
O171 In169 2.326 . S
O171 C179 1.252 . S
C172 O175 1.252 . S
C172 O176 1.260 . S
C173 O180 1.240 . S
C173 O181 1.252 . S
C174 O177 1.252 . S
C174 O178 1.260 . S
O175 In169 2.266 . S
O175 C172 1.252 . S
O176 In169 2.326 . S
O176 C172 1.260 . S
O177 In169 2.266 . S
O177 C174 1.252 . S
O178 In169 2.326 . S
O178 C174 1.260 . S
C179 O170 1.240 . S
C179 O171 1.252 . S
O180 In169 2.294 . S
O180 C173 1.240 . S
O181 In169 2.326 . S
O181 C173 1.252 . S
In182 O183 2.294 . S
In182 O184 2.326 . S
In182 O188 2.266 . S
In182 O189 2.326 . S
In182 O190 2.266 . S
In182 O191 2.326 . S
In182 O193 2.294 . S
In182 O194 2.326 . S
O183 In182 2.294 . S
O183 C192 1.240 . S
O184 In182 2.326 . S
O184 C192 1.252 . S
C185 O188 1.252 . S
C185 O189 1.260 . S
C186 O193 1.240 . S
C186 O194 1.252 . S
C187 O190 1.252 . S
C187 O191 1.260 . S
O188 In182 2.266 . S
O188 C185 1.252 . S
O189 In182 2.326 . S
O189 C185 1.260 . S
O190 In182 2.266 . S
O190 C187 1.252 . S
O191 In182 2.326 . S
O191 C187 1.260 . S
C192 O183 1.240 . S
C192 O184 1.252 . S
O193 In182 2.294 . S
O193 C186 1.240 . S
O194 In182 2.326 . S
O194 C186 1.252 . S
In195 O196 2.294 . S
In195 O197 2.326 . S
In195 O201 2.266 . S
In195 O202 2.326 1_455 S
In195 O203 2.266 1_554 S
In195 O204 2.326 . S
In195 O206 2.294 . S
In195 O207 2.326 . S
O196 In195 2.294 . S
O196 C205 1.240 . S
O197 In195 2.326 . S
O197 C205 1.252 . S
C198 O201 1.252 1_655 S
C198 O202 1.260 . S
C199 O206 1.240 . S
C199 O207 1.252 . S
C200 O203 1.252 1_554 S
C200 O204 1.260 . S
O201 In195 2.266 . S
O201 C198 1.252 1_455 S
O202 In195 2.326 1_655 S
O202 C198 1.260 . S
O203 In195 2.266 1_556 S
O203 C200 1.252 1_556 S
O204 In195 2.326 . S
O204 C200 1.260 . S
C205 O196 1.240 . S
C205 O197 1.252 . S
O206 In195 2.294 . S
O206 C199 1.240 . S
O207 In195 2.326 . S
O207 C199 1.252 . S
In208 O209 2.294 . S
In208 O210 2.326 . S
In208 O214 2.266 . S
In208 O215 2.326 . S
In208 O216 2.266 . S
In208 O217 2.326 . S
In208 O219 2.294 . S
In208 O220 2.326 . S
O209 In208 2.294 . S
O209 C218 1.240 . S
O210 In208 2.326 . S
O210 C218 1.252 . S
C211 O214 1.252 . S
C211 O215 1.260 . S
C212 O219 1.240 . S
C212 O220 1.252 . S
C213 O216 1.252 . S
C213 O217 1.260 . S
O214 In208 2.266 . S
O214 C211 1.252 . S
O215 In208 2.326 . S
O215 C211 1.260 . S
O216 In208 2.266 . S
O216 C213 1.252 . S
O217 In208 2.326 . S
O217 C213 1.260 . S
C218 O209 1.240 . S
C218 O210 1.252 . S
O219 In208 2.294 . S
O219 C212 1.240 . S
O220 In208 2.326 . S
O220 C212 1.252 . S
In221 O222 2.294 . S
In221 O223 2.326 . S
In221 O227 2.266 . S
In221 O228 2.326 . S
In221 O229 2.266 . S
In221 O230 2.326 . S
In221 O232 2.294 . S
In221 O233 2.326 . S
O222 In221 2.294 . S
O222 C231 1.240 . S
O223 In221 2.326 . S
O223 C231 1.252 . S
C224 O227 1.252 . S
C224 O228 1.260 . S
C225 O232 1.240 . S
C225 O233 1.252 . S
C226 O229 1.252 . S
C226 O230 1.260 . S
O227 In221 2.266 . S
O227 C224 1.252 . S
O228 In221 2.326 . S
O228 C224 1.260 . S
O229 In221 2.266 . S
O229 C226 1.252 . S
O230 In221 2.326 . S
O230 C226 1.260 . S
C231 O222 1.240 . S
C231 O223 1.252 . S
O232 In221 2.294 . S
O232 C225 1.240 . S
O233 In221 2.326 . S
O233 C225 1.252 . S
In234 O235 2.294 . S
In234 O236 2.326 . S
In234 O240 2.266 . S
In234 O241 2.326 . S
In234 O242 2.266 . S
In234 O243 2.326 1_554 S
In234 O245 2.294 . S
In234 O246 2.326 . S
O235 In234 2.294 . S
O235 C244 1.240 . S
O236 In234 2.326 . S
O236 C244 1.252 . S
C237 O240 1.252 . S
C237 O241 1.260 . S
C238 O245 1.240 . S
C238 O246 1.252 . S
C239 O242 1.252 1_556 S
C239 O243 1.260 . S
O240 In234 2.266 . S
O240 C237 1.252 . S
O241 In234 2.326 . S
O241 C237 1.260 . S
O242 In234 2.266 . S
O242 C239 1.252 1_554 S
O243 In234 2.326 1_556 S
O243 C239 1.260 . S
C244 O235 1.240 . S
C244 O236 1.252 . S
O245 In234 2.294 . S
O245 C238 1.240 . S
O246 In234 2.326 . S
O246 C238 1.252 . S
In247 O248 2.294 . S
In247 O249 2.326 . S
In247 O253 2.266 . S
In247 O254 2.326 . S
In247 O255 2.266 . S
In247 O256 2.326 . S
In247 O258 2.294 . S
In247 O259 2.326 . S
O248 In247 2.294 . S
O248 C257 1.240 . S
O249 In247 2.326 . S
O249 C257 1.252 . S
C250 O253 1.252 . S
C250 O254 1.260 . S
C251 O258 1.240 . S
C251 O259 1.252 . S
C252 O255 1.252 . S
C252 O256 1.260 . S
O253 In247 2.266 . S
O253 C250 1.252 . S
O254 In247 2.326 . S
O254 C250 1.260 . S
O255 In247 2.266 . S
O255 C252 1.252 . S
O256 In247 2.326 . S
O256 C252 1.260 . S
C257 O248 1.240 . S
C257 O249 1.252 . S
O258 In247 2.294 . S
O258 C251 1.240 . S
O259 In247 2.326 . S
O259 C251 1.252 . S
In260 O261 2.294 . S
In260 O262 2.326 . S
In260 O266 2.266 1_545 S
In260 O267 2.326 . S
In260 O268 2.266 . S
In260 O269 2.326 1_554 S
In260 O271 2.294 . S
In260 O272 2.326 . S
O261 In260 2.294 . S
O261 C270 1.240 . S
O262 In260 2.326 . S
O262 C270 1.252 . S
C263 O266 1.252 1_545 S
C263 O267 1.260 . S
C264 O271 1.240 . S
C264 O272 1.252 . S
C265 O268 1.252 1_556 S
C265 O269 1.260 . S
O266 In260 2.266 1_565 S
O266 C263 1.252 1_565 S
O267 In260 2.326 . S
O267 C263 1.260 . S
O268 In260 2.266 . S
O268 C265 1.252 1_554 S
O269 In260 2.326 1_556 S
O269 C265 1.260 . S
C270 O261 1.240 . S
C270 O262 1.252 . S
O271 In260 2.294 . S
O271 C264 1.240 . S
O272 In260 2.326 . S
O272 C264 1.252 . S
In273 O274 2.294 . S
In273 O275 2.326 . S
In273 O279 2.266 . S
In273 O280 2.326 . S
In273 O281 2.266 . S
In273 O282 2.326 . S
In273 O284 2.294 . S
In273 O285 2.326 . S
O274 In273 2.294 . S
O274 C283 1.240 . S
O275 In273 2.326 . S
O275 C283 1.252 . S
C276 O279 1.252 . S
C276 O280 1.260 . S
C277 O284 1.240 . S
C277 O285 1.252 . S
C278 O281 1.252 . S
C278 O282 1.260 . S
O279 In273 2.266 . S
O279 C276 1.252 . S
O280 In273 2.326 . S
O280 C276 1.260 . S
O281 In273 2.266 . S
O281 C278 1.252 . S
O282 In273 2.326 . S
O282 C278 1.260 . S
C283 O274 1.240 . S
C283 O275 1.252 . S
O284 In273 2.294 . S
O284 C277 1.240 . S
O285 In273 2.326 . S
O285 C277 1.252 . S
In286 O287 2.294 . S
In286 O288 2.326 . S
In286 O292 2.266 . S
In286 O293 2.326 . S
In286 O294 2.266 . S
In286 O295 2.326 . S
In286 O297 2.294 . S
In286 O298 2.326 . S
O287 In286 2.294 . S
O287 C296 1.240 . S
O288 In286 2.326 . S
O288 C296 1.252 . S
C289 O292 1.252 . S
C289 O293 1.260 . S
C290 O297 1.240 . S
C290 O298 1.252 . S
C291 O294 1.252 . S
C291 O295 1.260 . S
O292 In286 2.266 . S
O292 C289 1.252 . S
O293 In286 2.326 . S
O293 C289 1.260 . S
O294 In286 2.266 . S
O294 C291 1.252 . S
O295 In286 2.326 . S
O295 C291 1.260 . S
C296 O287 1.240 . S
C296 O288 1.252 . S
O297 In286 2.294 . S
O297 C290 1.240 . S
O298 In286 2.326 . S
O298 C290 1.252 . S
In299 O300 2.294 . S
In299 O301 2.326 . S
In299 O305 2.266 . S
In299 O306 2.326 1_556 S
In299 O307 2.266 . S
In299 O308 2.326 . S
In299 O310 2.294 . S
In299 O311 2.326 . S
O300 In299 2.294 . S
O300 C309 1.240 . S
O301 In299 2.326 . S
O301 C309 1.252 . S
C302 O305 1.252 1_554 S
C302 O306 1.260 . S
C303 O310 1.240 . S
C303 O311 1.252 . S
C304 O307 1.252 . S
C304 O308 1.260 . S
O305 In299 2.266 . S
O305 C302 1.252 1_556 S
O306 In299 2.326 1_554 S
O306 C302 1.260 . S
O307 In299 2.266 . S
O307 C304 1.252 . S
O308 In299 2.326 . S
O308 C304 1.260 . S
C309 O300 1.240 . S
C309 O301 1.252 . S
O310 In299 2.294 . S
O310 C303 1.240 . S
O311 In299 2.326 . S
O311 C303 1.252 . S
In312 O313 2.294 . S
In312 O314 2.326 . S
In312 O318 2.266 . S
In312 O319 2.326 . S
In312 O320 2.266 . S
In312 O321 2.326 . S
In312 O323 2.294 . S
In312 O324 2.326 . S
O313 In312 2.294 . S
O313 C322 1.240 . S
O314 In312 2.326 . S
O314 C322 1.252 . S
C315 O318 1.252 . S
C315 O319 1.260 . S
C316 O323 1.240 . S
C316 O324 1.252 . S
C317 O320 1.252 . S
C317 O321 1.260 . S
O318 In312 2.266 . S
O318 C315 1.252 . S
O319 In312 2.326 . S
O319 C315 1.260 . S
O320 In312 2.266 . S
O320 C317 1.252 . S
O321 In312 2.326 . S
O321 C317 1.260 . S
C322 O313 1.240 . S
C322 O314 1.252 . S
O323 In312 2.294 . S
O323 C316 1.240 . S
O324 In312 2.326 . S
O324 C316 1.252 . S
In325 O326 2.294 . S
In325 O327 2.326 . S
In325 O331 2.266 . S
In325 O332 2.326 . S
In325 O333 2.266 . S
In325 O334 2.326 . S
In325 O336 2.294 . S
In325 O337 2.326 . S
O326 In325 2.294 . S
O326 C335 1.240 . S
O327 In325 2.326 . S
O327 C335 1.252 . S
C328 O331 1.252 . S
C328 O332 1.260 . S
C329 O336 1.240 . S
C329 O337 1.252 . S
C330 O333 1.252 . S
C330 O334 1.260 . S
O331 In325 2.266 . S
O331 C328 1.252 . S
O332 In325 2.326 . S
O332 C328 1.260 . S
O333 In325 2.266 . S
O333 C330 1.252 . S
O334 In325 2.326 . S
O334 C330 1.260 . S
C335 O326 1.240 . S
C335 O327 1.252 . S
O336 In325 2.294 . S
O336 C329 1.240 . S
O337 In325 2.326 . S
O337 C329 1.252 . S
In338 O339 2.294 . S
In338 O340 2.326 . S
In338 O344 2.266 . S
In338 O345 2.326 . S
In338 O346 2.266 . S
In338 O347 2.326 . S
In338 O349 2.294 . S
In338 O350 2.326 . S
O339 In338 2.294 . S
O339 C348 1.240 . S
O340 In338 2.326 . S
O340 C348 1.252 . S
C341 O344 1.252 . S
C341 O345 1.260 . S
C342 O349 1.240 . S
C342 O350 1.252 . S
C343 O346 1.252 . S
C343 O347 1.260 . S
O344 In338 2.266 . S
O344 C341 1.252 . S
O345 In338 2.326 . S
O345 C341 1.260 . S
O346 In338 2.266 . S
O346 C343 1.252 . S
O347 In338 2.326 . S
O347 C343 1.260 . S
C348 O339 1.240 . S
C348 O340 1.252 . S
O349 In338 2.294 . S
O349 C342 1.240 . S
O350 In338 2.326 . S
O350 C342 1.252 . S
In351 O352 2.294 . S
In351 O353 2.326 . S
In351 O357 2.266 . S
In351 O358 2.326 . S
In351 O359 2.266 1_655 S
In351 O360 2.326 . S
In351 O362 2.294 . S
In351 O363 2.326 . S
O352 In351 2.294 . S
O352 C361 1.240 . S
O353 In351 2.326 . S
O353 C361 1.252 . S
C354 O357 1.252 . S
C354 O358 1.260 . S
C355 O362 1.240 . S
C355 O363 1.252 . S
C356 O359 1.252 1_655 S
C356 O360 1.260 . S
O357 In351 2.266 . S
O357 C354 1.252 . S
O358 In351 2.326 . S
O358 C354 1.260 . S
O359 In351 2.266 1_455 S
O359 C356 1.252 1_455 S
O360 In351 2.326 . S
O360 C356 1.260 . S
C361 O352 1.240 . S
C361 O353 1.252 . S
O362 In351 2.294 . S
O362 C355 1.240 . S
O363 In351 2.326 . S
O363 C355 1.252 . S
In364 O365 2.294 . S
In364 O366 2.326 . S
In364 O370 2.266 . S
In364 O371 2.326 . S
In364 O372 2.266 . S
In364 O373 2.326 . S
In364 O375 2.294 . S
In364 O376 2.326 . S
O365 In364 2.294 . S
O365 C374 1.240 . S
O366 In364 2.326 . S
O366 C374 1.252 . S
C367 O370 1.252 . S
C367 O371 1.260 . S
C368 O375 1.240 . S
C368 O376 1.252 . S
C369 O372 1.252 . S
C369 O373 1.260 . S
O370 In364 2.266 . S
O370 C367 1.252 . S
O371 In364 2.326 . S
O371 C367 1.260 . S
O372 In364 2.266 . S
O372 C369 1.252 . S
O373 In364 2.326 . S
O373 C369 1.260 . S
C374 O365 1.240 . S
C374 O366 1.252 . S
O375 In364 2.294 . S
O375 C368 1.240 . S
O376 In364 2.326 . S
O376 C368 1.252 . S
In377 O378 2.294 . S
In377 O379 2.326 . S
In377 O383 2.266 . S
In377 O384 2.326 . S
In377 O385 2.266 1_655 S
In377 O386 2.326 . S
In377 O388 2.294 . S
In377 O389 2.326 . S
O378 In377 2.294 . S
O378 C387 1.240 . S
O379 In377 2.326 . S
O379 C387 1.252 . S
C380 O383 1.252 . S
C380 O384 1.260 . S
C381 O388 1.240 . S
C381 O389 1.252 . S
C382 O385 1.252 1_655 S
C382 O386 1.260 . S
O383 In377 2.266 . S
O383 C380 1.252 . S
O384 In377 2.326 . S
O384 C380 1.260 . S
O385 In377 2.266 1_455 S
O385 C382 1.252 1_455 S
O386 In377 2.326 . S
O386 C382 1.260 . S
C387 O378 1.240 . S
C387 O379 1.252 . S
O388 In377 2.294 . S
O388 C381 1.240 . S
O389 In377 2.326 . S
O389 C381 1.252 . S
In390 O391 2.294 . S
In390 O392 2.326 . S
In390 O396 2.266 . S
In390 O397 2.326 . S
In390 O398 2.266 . S
In390 O399 2.326 . S
In390 O401 2.294 . S
In390 O402 2.326 . S
O391 In390 2.294 . S
O391 C400 1.240 . S
O392 In390 2.326 . S
O392 C400 1.252 . S
C393 O396 1.252 . S
C393 O397 1.260 . S
C394 O401 1.240 . S
C394 O402 1.252 . S
C395 O398 1.252 . S
C395 O399 1.260 . S
O396 In390 2.266 . S
O396 C393 1.252 . S
O397 In390 2.326 . S
O397 C393 1.260 . S
O398 In390 2.266 . S
O398 C395 1.252 . S
O399 In390 2.326 . S
O399 C395 1.260 . S
C400 O391 1.240 . S
C400 O392 1.252 . S
O401 In390 2.294 . S
O401 C394 1.240 . S
O402 In390 2.326 . S
O402 C394 1.252 . S
In403 O404 2.294 . S
In403 O405 2.326 . S
In403 O409 2.266 . S
In403 O410 2.326 . S
In403 O411 2.266 . S
In403 O412 2.326 . S
In403 O414 2.294 . S
In403 O415 2.326 . S
O404 In403 2.294 . S
O404 C413 1.240 . S
O405 In403 2.326 . S
O405 C413 1.252 . S
C406 O409 1.252 . S
C406 O410 1.260 . S
C407 O414 1.240 . S
C407 O415 1.252 . S
C408 O411 1.252 . S
C408 O412 1.260 . S
O409 In403 2.266 . S
O409 C406 1.252 . S
O410 In403 2.326 . S
O410 C406 1.260 . S
O411 In403 2.266 . S
O411 C408 1.252 . S
O412 In403 2.326 . S
O412 C408 1.260 . S
C413 O404 1.240 . S
C413 O405 1.252 . S
O414 In403 2.294 . S
O414 C407 1.240 . S
O415 In403 2.326 . S
O415 C407 1.252 . S
In416 O417 2.294 . S
In416 O418 2.326 . S
In416 O422 2.266 . S
In416 O423 2.326 . S
In416 O424 2.266 . S
In416 O425 2.326 . S
In416 O427 2.294 . S
In416 O428 2.326 . S
O417 In416 2.294 . S
O417 C426 1.240 . S
O418 In416 2.326 . S
O418 C426 1.252 . S
C419 O422 1.252 . S
C419 O423 1.260 . S
C420 O427 1.240 . S
C420 O428 1.252 . S
C421 O424 1.252 . S
C421 O425 1.260 . S
O422 In416 2.266 . S
O422 C419 1.252 . S
O423 In416 2.326 . S
O423 C419 1.260 . S
O424 In416 2.266 . S
O424 C421 1.252 . S
O425 In416 2.326 . S
O425 C421 1.260 . S
C426 O417 1.240 . S
C426 O418 1.252 . S
O427 In416 2.294 . S
O427 C420 1.240 . S
O428 In416 2.326 . S
O428 C420 1.252 . S
In429 O430 2.294 . S
In429 O431 2.326 . S
In429 O435 2.266 . S
In429 O436 2.326 . S
In429 O437 2.266 1_556 S
In429 O438 2.326 . S
In429 O440 2.294 . S
In429 O441 2.326 . S
O430 In429 2.294 . S
O430 C439 1.240 . S
O431 In429 2.326 . S
O431 C439 1.252 . S
C432 O435 1.252 . S
C432 O436 1.260 . S
C433 O440 1.240 . S
C433 O441 1.252 . S
C434 O437 1.252 1_556 S
C434 O438 1.260 . S
O435 In429 2.266 . S
O435 C432 1.252 . S
O436 In429 2.326 . S
O436 C432 1.260 . S
O437 In429 2.266 1_554 S
O437 C434 1.252 1_554 S
O438 In429 2.326 . S
O438 C434 1.260 . S
C439 O430 1.240 . S
C439 O431 1.252 . S
O440 In429 2.294 . S
O440 C433 1.240 . S
O441 In429 2.326 . S
O441 C433 1.252 . S
In442 O443 2.294 . S
In442 O444 2.326 . S
In442 O448 2.266 . S
In442 O449 2.326 . S
In442 O450 2.266 . S
In442 O451 2.326 . S
In442 O453 2.294 . S
In442 O454 2.326 . S
O443 In442 2.294 . S
O443 C452 1.240 . S
O444 In442 2.326 . S
O444 C452 1.252 . S
C445 O448 1.252 . S
C445 O449 1.260 . S
C446 O453 1.240 . S
C446 O454 1.252 . S
C447 O450 1.252 . S
C447 O451 1.260 . S
O448 In442 2.266 . S
O448 C445 1.252 . S
O449 In442 2.326 . S
O449 C445 1.260 . S
O450 In442 2.266 . S
O450 C447 1.252 . S
O451 In442 2.326 . S
O451 C447 1.260 . S
C452 O443 1.240 . S
C452 O444 1.252 . S
O453 In442 2.294 . S
O453 C446 1.240 . S
O454 In442 2.326 . S
O454 C446 1.252 . S
In455 O456 2.294 . S
In455 O457 2.326 . S
In455 O461 2.266 . S
In455 O462 2.326 1_655 S
In455 O463 2.266 . S
In455 O464 2.326 . S
In455 O466 2.294 . S
In455 O467 2.326 . S
O456 In455 2.294 . S
O456 C465 1.240 . S
O457 In455 2.326 . S
O457 C465 1.252 . S
C458 O461 1.252 1_455 S
C458 O462 1.260 . S
C459 O466 1.240 . S
C459 O467 1.252 . S
C460 O463 1.252 . S
C460 O464 1.260 . S
O461 In455 2.266 . S
O461 C458 1.252 1_655 S
O462 In455 2.326 1_455 S
O462 C458 1.260 . S
O463 In455 2.266 . S
O463 C460 1.252 . S
O464 In455 2.326 . S
O464 C460 1.260 . S
C465 O456 1.240 . S
C465 O457 1.252 . S
O466 In455 2.294 . S
O466 C459 1.240 . S
O467 In455 2.326 . S
O467 C459 1.252 . S
In468 O469 2.294 . S
In468 O470 2.326 . S
In468 O474 2.266 . S
In468 O475 2.326 . S
In468 O476 2.266 . S
In468 O477 2.326 . S
In468 O479 2.294 . S
In468 O480 2.326 . S
O469 In468 2.294 . S
O469 C478 1.240 . S
O470 In468 2.326 . S
O470 C478 1.252 . S
C471 O474 1.252 . S
C471 O475 1.260 . S
C472 O479 1.240 . S
C472 O480 1.252 . S
C473 O476 1.252 . S
C473 O477 1.260 . S
O474 In468 2.266 . S
O474 C471 1.252 . S
O475 In468 2.326 . S
O475 C471 1.260 . S
O476 In468 2.266 . S
O476 C473 1.252 . S
O477 In468 2.326 . S
O477 C473 1.260 . S
C478 O469 1.240 . S
C478 O470 1.252 . S
O479 In468 2.294 . S
O479 C472 1.240 . S
O480 In468 2.326 . S
O480 C472 1.252 . S
In481 O482 2.294 . S
In481 O483 2.326 . S
In481 O487 2.266 . S
In481 O488 2.326 1_655 S
In481 O489 2.266 1_554 S
In481 O490 2.326 . S
In481 O492 2.294 . S
In481 O493 2.326 . S
O482 In481 2.294 . S
O482 C491 1.240 . S
O483 In481 2.326 . S
O483 C491 1.252 . S
C484 O487 1.252 1_455 S
C484 O488 1.260 . S
C485 O492 1.240 . S
C485 O493 1.252 . S
C486 O489 1.252 1_554 S
C486 O490 1.260 . S
O487 In481 2.266 . S
O487 C484 1.252 1_655 S
O488 In481 2.326 1_455 S
O488 C484 1.260 . S
O489 In481 2.266 1_556 S
O489 C486 1.252 1_556 S
O490 In481 2.326 . S
O490 C486 1.260 . S
C491 O482 1.240 . S
C491 O483 1.252 . S
O492 In481 2.294 . S
O492 C485 1.240 . S
O493 In481 2.326 . S
O493 C485 1.252 . S
In494 O495 2.294 . S
In494 O496 2.326 . S
In494 O500 2.266 . S
In494 O501 2.326 . S
In494 O502 2.266 . S
In494 O503 2.326 . S
In494 O505 2.294 . S
In494 O506 2.326 . S
O495 In494 2.294 . S
O495 C504 1.240 . S
O496 In494 2.326 . S
O496 C504 1.252 . S
C497 O500 1.252 . S
C497 O501 1.260 . S
C498 O505 1.240 . S
C498 O506 1.252 . S
C499 O502 1.252 . S
C499 O503 1.260 . S
O500 In494 2.266 . S
O500 C497 1.252 . S
O501 In494 2.326 . S
O501 C497 1.260 . S
O502 In494 2.266 . S
O502 C499 1.252 . S
O503 In494 2.326 . S
O503 C499 1.260 . S
C504 O495 1.240 . S
C504 O496 1.252 . S
O505 In494 2.294 . S
O505 C498 1.240 . S
O506 In494 2.326 . S
O506 C498 1.252 . S
In507 O508 2.294 . S
In507 O509 2.326 . S
In507 O513 2.266 . S
In507 O514 2.326 . S
In507 O515 2.266 . S
In507 O516 2.326 . S
In507 O518 2.294 . S
In507 O519 2.326 . S
O508 In507 2.294 . S
O508 C517 1.240 . S
O509 In507 2.326 . S
O509 C517 1.252 . S
C510 O513 1.252 . S
C510 O514 1.260 . S
C511 O518 1.240 . S
C511 O519 1.252 . S
C512 O515 1.252 . S
C512 O516 1.260 . S
O513 In507 2.266 . S
O513 C510 1.252 . S
O514 In507 2.326 . S
O514 C510 1.260 . S
O515 In507 2.266 . S
O515 C512 1.252 . S
O516 In507 2.326 . S
O516 C512 1.260 . S
C517 O508 1.240 . S
C517 O509 1.252 . S
O518 In507 2.294 . S
O518 C511 1.240 . S
O519 In507 2.326 . S
O519 C511 1.252 . S
In520 O521 2.294 . S
In520 O522 2.326 . S
In520 O526 2.266 . S
In520 O527 2.326 . S
In520 O528 2.266 . S
In520 O529 2.326 . S
In520 O531 2.294 . S
In520 O532 2.326 . S
O521 In520 2.294 . S
O521 C530 1.240 . S
O522 In520 2.326 . S
O522 C530 1.252 . S
C523 O526 1.252 . S
C523 O527 1.260 . S
C524 O531 1.240 . S
C524 O532 1.252 . S
C525 O528 1.252 . S
C525 O529 1.260 . S
O526 In520 2.266 . S
O526 C523 1.252 . S
O527 In520 2.326 . S
O527 C523 1.260 . S
O528 In520 2.266 . S
O528 C525 1.252 . S
O529 In520 2.326 . S
O529 C525 1.260 . S
C530 O521 1.240 . S
C530 O522 1.252 . S
O531 In520 2.294 . S
O531 C524 1.240 . S
O532 In520 2.326 . S
O532 C524 1.252 . S
In533 O534 2.294 . S
In533 O535 2.326 . S
In533 O539 2.266 . S
In533 O540 2.326 . S
In533 O541 2.266 . S
In533 O542 2.326 . S
In533 O544 2.294 . S
In533 O545 2.326 . S
O534 In533 2.294 . S
O534 C543 1.240 . S
O535 In533 2.326 . S
O535 C543 1.252 . S
C536 O539 1.252 . S
C536 O540 1.260 . S
C537 O544 1.240 . S
C537 O545 1.252 . S
C538 O541 1.252 . S
C538 O542 1.260 . S
O539 In533 2.266 . S
O539 C536 1.252 . S
O540 In533 2.326 . S
O540 C536 1.260 . S
O541 In533 2.266 . S
O541 C538 1.252 . S
O542 In533 2.326 . S
O542 C538 1.260 . S
C543 O534 1.240 . S
C543 O535 1.252 . S
O544 In533 2.294 . S
O544 C537 1.240 . S
O545 In533 2.326 . S
O545 C537 1.252 . S
In546 O547 2.294 . S
In546 O548 2.326 . S
In546 O552 2.266 1_565 S
In546 O553 2.326 . S
In546 O554 2.266 . S
In546 O555 2.326 . S
In546 O557 2.294 . S
In546 O558 2.326 . S
O547 In546 2.294 . S
O547 C556 1.240 . S
O548 In546 2.326 . S
O548 C556 1.252 . S
C549 O552 1.252 1_565 S
C549 O553 1.260 . S
C550 O557 1.240 . S
C550 O558 1.252 . S
C551 O554 1.252 . S
C551 O555 1.260 . S
O552 In546 2.266 1_545 S
O552 C549 1.252 1_545 S
O553 In546 2.326 . S
O553 C549 1.260 . S
O554 In546 2.266 . S
O554 C551 1.252 . S
O555 In546 2.326 . S
O555 C551 1.260 . S
C556 O547 1.240 . S
C556 O548 1.252 . S
O557 In546 2.294 . S
O557 C550 1.240 . S
O558 In546 2.326 . S
O558 C550 1.252 . S
In559 O560 2.294 . S
In559 O561 2.326 . S
In559 O565 2.266 . S
In559 O566 2.326 . S
In559 O567 2.266 . S
In559 O568 2.326 . S
In559 O570 2.294 . S
In559 O571 2.326 . S
O560 In559 2.294 . S
O560 C569 1.240 . S
O561 In559 2.326 . S
O561 C569 1.252 . S
C562 O565 1.252 . S
C562 O566 1.260 . S
C563 O570 1.240 . S
C563 O571 1.252 . S
C564 O567 1.252 . S
C564 O568 1.260 . S
O565 In559 2.266 . S
O565 C562 1.252 . S
O566 In559 2.326 . S
O566 C562 1.260 . S
O567 In559 2.266 . S
O567 C564 1.252 . S
O568 In559 2.326 . S
O568 C564 1.260 . S
C569 O560 1.240 . S
C569 O561 1.252 . S
O570 In559 2.294 . S
O570 C563 1.240 . S
O571 In559 2.326 . S
O571 C563 1.252 . S
In572 O573 2.294 . S
In572 O574 2.326 . S
In572 O578 2.266 . S
In572 O579 2.326 . S
In572 O580 2.266 . S
In572 O581 2.326 . S
In572 O583 2.294 . S
In572 O584 2.326 . S
O573 In572 2.294 . S
O573 C582 1.240 . S
O574 In572 2.326 . S
O574 C582 1.252 . S
C575 O578 1.252 . S
C575 O579 1.260 . S
C576 O583 1.240 . S
C576 O584 1.252 . S
C577 O580 1.252 . S
C577 O581 1.260 . S
O578 In572 2.266 . S
O578 C575 1.252 . S
O579 In572 2.326 . S
O579 C575 1.260 . S
O580 In572 2.266 . S
O580 C577 1.252 . S
O581 In572 2.326 . S
O581 C577 1.260 . S
C582 O573 1.240 . S
C582 O574 1.252 . S
O583 In572 2.294 . S
O583 C576 1.240 . S
O584 In572 2.326 . S
O584 C576 1.252 . S
In585 O586 2.294 . S
In585 O587 2.326 . S
In585 O591 2.266 . S
In585 O592 2.326 . S
In585 O593 2.266 . S
In585 O594 2.326 . S
In585 O596 2.294 . S
In585 O597 2.326 . S
O586 In585 2.294 . S
O586 C595 1.240 . S
O587 In585 2.326 . S
O587 C595 1.252 . S
C588 O591 1.252 . S
C588 O592 1.260 . S
C589 O596 1.240 . S
C589 O597 1.252 . S
C590 O593 1.252 . S
C590 O594 1.260 . S
O591 In585 2.266 . S
O591 C588 1.252 . S
O592 In585 2.326 . S
O592 C588 1.260 . S
O593 In585 2.266 . S
O593 C590 1.252 . S
O594 In585 2.326 . S
O594 C590 1.260 . S
C595 O586 1.240 . S
C595 O587 1.252 . S
O596 In585 2.294 . S
O596 C589 1.240 . S
O597 In585 2.326 . S
O597 C589 1.252 . S
In598 O599 2.294 . S
In598 O600 2.326 . S
In598 O604 2.266 . S
In598 O605 2.326 1_556 S
In598 O606 2.266 1_545 S
In598 O607 2.326 . S
In598 O609 2.294 . S
In598 O610 2.326 . S
O599 In598 2.294 . S
O599 C608 1.240 . S
O600 In598 2.326 . S
O600 C608 1.252 . S
C601 O604 1.252 1_554 S
C601 O605 1.260 . S
C602 O609 1.240 . S
C602 O610 1.252 . S
C603 O606 1.252 1_545 S
C603 O607 1.260 . S
O604 In598 2.266 . S
O604 C601 1.252 1_556 S
O605 In598 2.326 1_554 S
O605 C601 1.260 . S
O606 In598 2.266 1_565 S
O606 C603 1.252 1_565 S
O607 In598 2.326 . S
O607 C603 1.260 . S
C608 O599 1.240 . S
C608 O600 1.252 . S
O609 In598 2.294 . S
O609 C602 1.240 . S
O610 In598 2.326 . S
O610 C602 1.252 . S
In611 O612 2.294 . S
In611 O613 2.326 . S
In611 O617 2.266 . S
In611 O618 2.326 . S
In611 O619 2.266 1_565 S
In611 O620 2.326 . S
In611 O622 2.294 . S
In611 O623 2.326 . S
O612 In611 2.294 . S
O612 C621 1.240 . S
O613 In611 2.326 . S
O613 C621 1.252 . S
C614 O617 1.252 . S
C614 O618 1.260 . S
C615 O622 1.240 . S
C615 O623 1.252 . S
C616 O619 1.252 1_565 S
C616 O620 1.260 . S
O617 In611 2.266 . S
O617 C614 1.252 . S
O618 In611 2.326 . S
O618 C614 1.260 . S
O619 In611 2.266 1_545 S
O619 C616 1.252 1_545 S
O620 In611 2.326 . S
O620 C616 1.260 . S
C621 O612 1.240 . S
C621 O613 1.252 . S
O622 In611 2.294 . S
O622 C615 1.240 . S
O623 In611 2.326 . S
O623 C615 1.252 . S
C624 C625 1.391 . S
C624 C626 1.394 . S
C624 H640 0.931 . S
C625 C624 1.391 . S
C625 C629 1.376 . S
C626 C624 1.394 . S
C626 C627 1.369 . S
C626 C630 1.531 . S
C627 C626 1.369 . S
C627 C628 1.410 . S
C627 C635 1.503 . S
C628 C627 1.410 . S
C628 C629 1.392 . S
C628 C631 1.511 . S
C629 C625 1.376 . S
C629 C628 1.392 . S
C629 H641 0.929 . S
C630 C626 1.531 . S
C630 H642 0.960 . S
C630 H643 0.962 . S
C630 H644 0.960 . S
C631 C628 1.511 . S
C631 H645 0.961 . S
C631 H646 0.961 . S
C631 H647 0.961 . S
C632 C633 1.370 . S
C632 C634 1.363 . S
C632 H648 0.931 . S
C633 C632 1.370 . S
C633 C637 1.408 . S
C634 C632 1.363 . S
C634 C635 1.370 . S
C634 C638 1.524 . S
C635 C627 1.503 . S
C635 C634 1.370 . S
C635 C636 1.403 . S
C636 C635 1.403 . S
C636 C637 1.404 . S
C636 C639 1.539 . S
C637 C633 1.408 . S
C637 C636 1.404 . S
C637 H649 0.930 . S
C638 C634 1.524 . S
C638 H650 0.956 . S
C638 H651 0.961 . S
C638 H652 0.961 . S
C639 C636 1.539 . S
C639 H653 0.958 . S
C639 H654 0.961 . S
C639 H655 0.960 . S
H640 C624 0.931 . S
H641 C629 0.929 . S
H642 C630 0.960 . S
H643 C630 0.962 . S
H644 C630 0.960 . S
H645 C631 0.961 . S
H646 C631 0.961 . S
H647 C631 0.961 . S
H648 C632 0.931 . S
H649 C637 0.930 . S
H650 C638 0.956 . S
H651 C638 0.961 . S
H652 C638 0.961 . S
H653 C639 0.958 . S
H654 C639 0.961 . S
H655 C639 0.960 . S
C656 C657 1.391 . S
C656 C658 1.394 . S
C656 H672 0.931 . S
C657 C656 1.391 . S
C657 C661 1.376 1_565 S
C658 C656 1.394 . S
C658 C659 1.369 . S
C658 C662 1.531 . S
C659 C658 1.369 . S
C659 C660 1.410 1_565 S
C659 C667 1.516 . S
C660 C659 1.410 1_545 S
C660 C661 1.392 . S
C660 C663 1.511 . S
C661 C657 1.376 1_545 S
C661 C660 1.392 . S
C661 H673 0.929 . S
C662 C658 1.531 . S
C662 H674 0.960 . S
C662 H675 0.962 1_455 S
C662 H676 0.960 . S
C663 C660 1.511 . S
C663 H677 0.961 . S
C663 H678 0.961 . S
C663 H679 0.961 . S
C664 C665 1.370 . S
C664 C666 1.363 . S
C664 H680 0.931 . S
C665 C664 1.370 . S
C665 C669 1.408 1_545 S
C666 C664 1.363 . S
C666 C667 1.327 1_545 S
C666 C670 1.524 . S
C667 C659 1.516 . S
C667 C666 1.327 1_565 S
C667 C668 1.436 . S
C668 C667 1.436 . S
C668 C669 1.404 . S
C668 C671 1.539 . S
C669 C665 1.408 1_565 S
C669 C668 1.404 . S
C669 H681 0.930 . S
C670 C666 1.524 . S
C670 H682 0.956 . S
C670 H683 0.961 . S
C670 H684 0.961 . S
C671 C668 1.539 . S
C671 H685 0.958 . S
C671 H686 0.961 . S
C671 H687 0.960 . S
H672 C656 0.931 . S
H673 C661 0.929 . S
H674 C662 0.960 . S
H675 C662 0.962 1_655 S
H676 C662 0.960 . S
H677 C663 0.961 . S
H678 C663 0.961 . S
H679 C663 0.961 . S
H680 C664 0.931 . S
H681 C669 0.930 . S
H682 C670 0.956 . S
H683 C670 0.961 . S
H684 C670 0.961 . S
H685 C671 0.958 . S
H686 C671 0.961 . S
H687 C671 0.960 . S
C688 C689 1.391 . S
C688 C690 1.394 . S
C688 H704 0.931 . S
C689 C688 1.391 . S
C689 C693 1.376 . S
C690 C688 1.394 . S
C690 C691 1.369 . S
C690 C694 1.531 . S
C691 C690 1.369 . S
C691 C692 1.410 . S
C691 C699 1.503 1_556 S
C692 C691 1.410 . S
C692 C693 1.392 . S
C692 C695 1.511 . S
C693 C689 1.376 . S
C693 C692 1.392 . S
C693 H705 0.929 . S
C694 C690 1.531 . S
C694 H706 0.960 . S
C694 H707 0.962 . S
C694 H708 0.960 . S
C695 C692 1.511 . S
C695 H709 0.961 . S
C695 H710 0.961 1_556 S
C695 H711 0.961 . S
C696 C697 1.370 . S
C696 C698 1.363 . S
C696 H712 0.931 . S
C697 C696 1.370 . S
C697 C701 1.408 . S
C698 C696 1.363 . S
C698 C699 1.370 . S
C698 C702 1.524 . S
C699 C691 1.503 1_554 S
C699 C698 1.370 . S
C699 C700 1.403 . S
C700 C699 1.403 . S
C700 C701 1.404 . S
C700 C703 1.539 . S
C701 C697 1.408 . S
C701 C700 1.404 . S
C701 H713 0.930 . S
C702 C698 1.524 . S
C702 H714 0.956 1_554 S
C702 H715 0.961 1_554 S
C702 H716 0.961 . S
C703 C700 1.539 . S
C703 H717 0.958 . S
C703 H718 0.961 . S
C703 H719 0.960 . S
H704 C688 0.931 . S
H705 C693 0.929 . S
H706 C694 0.960 . S
H707 C694 0.962 . S
H708 C694 0.960 . S
H709 C695 0.961 . S
H710 C695 0.961 1_554 S
H711 C695 0.961 . S
H712 C696 0.931 . S
H713 C701 0.930 . S
H714 C702 0.956 1_556 S
H715 C702 0.961 1_556 S
H716 C702 0.961 . S
H717 C703 0.958 . S
H718 C703 0.961 . S
H719 C703 0.960 . S
C720 C721 1.391 . S
C720 C722 1.394 . S
C720 H736 0.931 . S
C721 C720 1.391 . S
C721 C725 1.368 1_565 S
C722 C720 1.394 . S
C722 C723 1.369 1_565 S
C722 C726 1.531 . S
C723 C722 1.369 1_545 S
C723 C724 1.410 . S
C723 C731 1.503 . S
C724 C723 1.410 . S
C724 C725 1.398 . S
C724 C727 1.511 . S
C725 C721 1.368 1_545 S
C725 C724 1.398 . S
C725 H737 0.932 . S
C726 C722 1.531 . S
C726 H738 0.960 1_565 S
C726 H739 0.962 . S
C726 H740 0.960 . S
C727 C724 1.511 . S
C727 H741 0.961 . S
C727 H742 0.961 . S
C727 H743 0.961 . S
C728 C729 1.370 1_565 S
C728 C730 1.363 . S
C728 H744 0.931 . S
C729 C728 1.370 1_545 S
C729 C733 1.408 . S
C730 C728 1.363 . S
C730 C731 1.370 1_565 S
C730 C734 1.524 . S
C731 C723 1.503 . S
C731 C730 1.370 1_545 S
C731 C732 1.403 . S
C732 C731 1.403 . S
C732 C733 1.404 . S
C732 C735 1.539 . S
C733 C729 1.408 . S
C733 C732 1.404 . S
C733 H745 0.930 . S
C734 C730 1.524 . S
C734 H746 0.956 . S
C734 H747 0.961 . S
C734 H748 0.961 . S
C735 C732 1.539 . S
C735 H749 0.958 . S
C735 H750 0.961 . S
C735 H751 0.960 . S
H736 C720 0.931 . S
H737 C725 0.932 . S
H738 C726 0.960 1_545 S
H739 C726 0.962 . S
H740 C726 0.960 . S
H741 C727 0.961 . S
H742 C727 0.961 . S
H743 C727 0.961 . S
H744 C728 0.931 . S
H745 C733 0.930 . S
H746 C734 0.956 . S
H747 C734 0.961 . S
H748 C734 0.961 . S
H749 C735 0.958 . S
H750 C735 0.961 . S
H751 C735 0.960 . S
C752 C753 1.391 . S
C752 C754 1.394 . S
C752 H768 0.931 . S
C753 C752 1.391 . S
C753 C757 1.376 . S
C754 C752 1.394 . S
C754 C755 1.369 . S
C754 C758 1.531 . S
C755 C754 1.369 . S
C755 C756 1.410 . S
C755 C763 1.503 . S
C756 C755 1.410 . S
C756 C757 1.392 . S
C756 C759 1.511 . S
C757 C753 1.376 . S
C757 C756 1.392 . S
C757 H769 0.929 . S
C758 C754 1.531 . S
C758 H770 0.960 . S
C758 H771 0.962 . S
C758 H772 0.960 . S
C759 C756 1.511 . S
C759 H773 0.961 . S
C759 H774 0.961 . S
C759 H775 0.961 . S
C760 C761 1.370 . S
C760 C762 1.363 . S
C760 H776 0.931 . S
C761 C760 1.370 . S
C761 C765 1.408 . S
C762 C760 1.363 . S
C762 C763 1.370 . S
C762 C766 1.524 . S
C763 C755 1.503 . S
C763 C762 1.370 . S
C763 C764 1.403 . S
C764 C763 1.403 . S
C764 C765 1.404 . S
C764 C767 1.539 . S
C765 C761 1.408 . S
C765 C764 1.404 . S
C765 H777 0.930 . S
C766 C762 1.524 . S
C766 H778 0.956 . S
C766 H779 0.961 . S
C766 H780 0.961 . S
C767 C764 1.539 . S
C767 H781 0.958 . S
C767 H782 0.961 . S
C767 H783 0.960 . S
H768 C752 0.931 . S
H769 C757 0.929 . S
H770 C758 0.960 . S
H771 C758 0.962 . S
H772 C758 0.960 . S
H773 C759 0.961 . S
H774 C759 0.961 . S
H775 C759 0.961 . S
H776 C760 0.931 . S
H777 C765 0.930 . S
H778 C766 0.956 . S
H779 C766 0.961 . S
H780 C766 0.961 . S
H781 C767 0.958 . S
H782 C767 0.961 . S
H783 C767 0.960 . S
C784 C785 1.391 . S
C784 C786 1.394 . S
C784 H800 0.931 . S
C785 C784 1.391 . S
C785 C789 1.376 1_655 S
C786 C784 1.394 . S
C786 C787 1.355 1_655 S
C786 C790 1.531 . S
C787 C786 1.355 1_455 S
C787 C788 1.420 . S
C787 C795 1.506 . S
C788 C787 1.420 . S
C788 C789 1.392 . S
C788 C791 1.511 . S
C789 C785 1.376 1_455 S
C789 C788 1.392 . S
C789 H801 0.929 . S
C790 C786 1.531 . S
C790 H802 0.960 . S
C790 H803 0.962 . S
C790 H804 0.960 . S
C791 C788 1.511 . S
C791 H805 0.961 . S
C791 H806 0.961 . S
C791 H807 0.961 . S
C792 C793 1.370 1_655 S
C792 C794 1.363 . S
C792 H808 0.931 . S
C793 C792 1.370 1_455 S
C793 C797 1.408 . S
C794 C792 1.363 . S
C794 C795 1.370 1_655 S
C794 C798 1.524 . S
C795 C787 1.506 . S
C795 C794 1.370 1_455 S
C795 C796 1.403 . S
C796 C795 1.403 . S
C796 C797 1.404 . S
C796 C799 1.539 . S
C797 C793 1.408 . S
C797 C796 1.404 . S
C797 H809 0.930 . S
C798 C794 1.524 . S
C798 H810 0.956 . S
C798 H811 0.961 . S
C798 H812 0.961 . S
C799 C796 1.539 . S
C799 H813 0.958 . S
C799 H814 0.961 . S
C799 H815 0.960 . S
H800 C784 0.931 . S
H801 C789 0.929 . S
H802 C790 0.960 . S
H803 C790 0.962 . S
H804 C790 0.960 . S
H805 C791 0.961 . S
H806 C791 0.961 . S
H807 C791 0.961 . S
H808 C792 0.931 . S
H809 C797 0.930 . S
H810 C798 0.956 . S
H811 C798 0.961 . S
H812 C798 0.961 . S
H813 C799 0.958 . S
H814 C799 0.961 . S
H815 C799 0.960 . S
C816 C817 1.391 . S
C816 C818 1.394 . S
C816 H832 0.931 . S
C817 C816 1.391 . S
C817 C821 1.376 . S
C818 C816 1.394 . S
C818 C819 1.369 . S
C818 C822 1.531 . S
C819 C818 1.369 . S
C819 C820 1.410 . S
C819 C827 1.503 1_455 S
C820 C819 1.410 . S
C820 C821 1.392 . S
C820 C823 1.511 . S
C821 C817 1.376 . S
C821 C820 1.392 . S
C821 H833 0.929 . S
C822 C818 1.531 . S
C822 H834 0.960 . S
C822 H835 0.962 . S
C822 H836 0.960 . S
C823 C820 1.511 . S
C823 H837 0.961 . S
C823 H838 0.961 1_455 S
C823 H839 0.961 . S
C824 C825 1.370 . S
C824 C826 1.363 . S
C824 H840 0.931 . S
C825 C824 1.370 . S
C825 C829 1.408 . S
C826 C824 1.363 . S
C826 C827 1.370 . S
C826 C830 1.524 . S
C827 C819 1.503 1_655 S
C827 C826 1.370 . S
C827 C828 1.403 . S
C828 C827 1.403 . S
C828 C829 1.404 . S
C828 C831 1.539 . S
C829 C825 1.408 . S
C829 C828 1.404 . S
C829 H841 0.930 . S
C830 C826 1.524 . S
C830 H842 0.956 1_655 S
C830 H843 0.961 1_655 S
C830 H844 0.961 . S
C831 C828 1.539 . S
C831 H845 0.958 . S
C831 H846 0.961 . S
C831 H847 0.960 . S
H832 C816 0.931 . S
H833 C821 0.929 . S
H834 C822 0.960 . S
H835 C822 0.962 . S
H836 C822 0.960 . S
H837 C823 0.961 . S
H838 C823 0.961 1_655 S
H839 C823 0.961 . S
H840 C824 0.931 . S
H841 C829 0.930 . S
H842 C830 0.956 1_455 S
H843 C830 0.961 1_455 S
H844 C830 0.961 . S
H845 C831 0.958 . S
H846 C831 0.961 . S
H847 C831 0.960 . S
C848 C849 1.391 . S
C848 C850 1.394 . S
C848 H864 0.931 . S
C849 C848 1.391 . S
C849 C853 1.376 . S
C850 C848 1.394 . S
C850 C851 1.369 . S
C850 C854 1.531 . S
C851 C850 1.369 . S
C851 C852 1.410 . S
C851 C859 1.503 . S
C852 C851 1.410 . S
C852 C853 1.392 . S
C852 C855 1.511 . S
C853 C849 1.376 . S
C853 C852 1.392 . S
C853 H865 0.929 . S
C854 C850 1.531 . S
C854 H866 0.960 . S
C854 H867 0.962 1_556 S
C854 H868 0.960 . S
C855 C852 1.511 . S
C855 H869 0.961 . S
C855 H870 0.961 . S
C855 H871 0.961 . S
C856 C857 1.370 . S
C856 C858 1.363 . S
C856 H872 0.931 . S
C857 C856 1.370 . S
C857 C861 1.408 . S
C858 C856 1.363 . S
C858 C859 1.370 . S
C858 C862 1.524 . S
C859 C851 1.503 . S
C859 C858 1.370 . S
C859 C860 1.403 . S
C860 C859 1.403 . S
C860 C861 1.404 . S
C860 C863 1.539 . S
C861 C857 1.408 . S
C861 C860 1.404 . S
C861 H873 0.930 . S
C862 C858 1.524 . S
C862 H874 0.956 . S
C862 H875 0.961 . S
C862 H876 0.961 . S
C863 C860 1.539 . S
C863 H877 0.958 . S
C863 H878 0.961 . S
C863 H879 0.960 . S
H864 C848 0.931 . S
H865 C853 0.929 . S
H866 C854 0.960 . S
H867 C854 0.962 1_554 S
H868 C854 0.960 . S
H869 C855 0.961 . S
H870 C855 0.961 . S
H871 C855 0.961 . S
H872 C856 0.931 . S
H873 C861 0.930 . S
H874 C862 0.956 . S
H875 C862 0.961 . S
H876 C862 0.961 . S
H877 C863 0.958 . S
H878 C863 0.961 . S
H879 C863 0.960 . S
C880 C881 1.391 . S
C880 C882 1.394 . S
C880 H896 0.931 . S
C881 C880 1.391 . S
C881 C885 1.376 . S
C882 C880 1.394 . S
C882 C883 1.369 . S
C882 C886 1.531 . S
C883 C882 1.369 . S
C883 C884 1.410 . S
C883 C891 1.503 . S
C884 C883 1.410 . S
C884 C885 1.392 . S
C884 C887 1.511 . S
C885 C881 1.376 . S
C885 C884 1.392 . S
C885 H897 0.929 . S
C886 C882 1.531 . S
C886 H898 0.960 . S
C886 H899 0.962 . S
C886 H900 0.960 . S
C887 C884 1.511 . S
C887 H901 0.961 . S
C887 H902 0.961 . S
C887 H903 0.961 . S
C888 C889 1.370 . S
C888 C890 1.363 . S
C888 H904 0.931 . S
C889 C888 1.370 . S
C889 C893 1.408 . S
C890 C888 1.363 . S
C890 C891 1.370 . S
C890 C894 1.524 . S
C891 C883 1.503 . S
C891 C890 1.370 . S
C891 C892 1.403 . S
C892 C891 1.403 . S
C892 C893 1.404 . S
C892 C895 1.539 . S
C893 C889 1.408 . S
C893 C892 1.404 . S
C893 H905 0.930 . S
C894 C890 1.524 . S
C894 H906 0.956 . S
C894 H907 0.961 . S
C894 H908 0.961 . S
C895 C892 1.539 . S
C895 H909 0.958 . S
C895 H910 0.961 . S
C895 H911 0.960 . S
H896 C880 0.931 . S
H897 C885 0.929 . S
H898 C886 0.960 . S
H899 C886 0.962 . S
H900 C886 0.960 . S
H901 C887 0.961 . S
H902 C887 0.961 . S
H903 C887 0.961 . S
H904 C888 0.931 . S
H905 C893 0.930 . S
H906 C894 0.956 . S
H907 C894 0.961 . S
H908 C894 0.961 . S
H909 C895 0.958 . S
H910 C895 0.961 . S
H911 C895 0.960 . S
C912 C913 1.391 . S
C912 C914 1.394 . S
C912 H928 0.931 . S
C913 C912 1.391 . S
C913 C917 1.376 . S
C914 C912 1.394 . S
C914 C915 1.369 . S
C914 C918 1.531 . S
C915 C914 1.369 . S
C915 C916 1.410 . S
C915 C923 1.503 . S
C916 C915 1.410 . S
C916 C917 1.392 . S
C916 C919 1.511 . S
C917 C913 1.376 . S
C917 C916 1.392 . S
C917 H929 0.929 . S
C918 C914 1.531 . S
C918 H930 0.960 . S
C918 H931 0.962 . S
C918 H932 0.960 . S
C919 C916 1.511 . S
C919 H933 0.961 . S
C919 H934 0.961 . S
C919 H935 0.961 . S
C920 C921 1.370 . S
C920 C922 1.363 . S
C920 H936 0.931 . S
C921 C920 1.370 . S
C921 C925 1.408 . S
C922 C920 1.363 . S
C922 C923 1.370 . S
C922 C926 1.524 . S
C923 C915 1.503 . S
C923 C922 1.370 . S
C923 C924 1.403 . S
C924 C923 1.403 . S
C924 C925 1.404 . S
C924 C927 1.539 . S
C925 C921 1.408 . S
C925 C924 1.404 . S
C925 H937 0.930 . S
C926 C922 1.524 . S
C926 H938 0.956 . S
C926 H939 0.961 . S
C926 H940 0.961 . S
C927 C924 1.539 . S
C927 H941 0.958 . S
C927 H942 0.961 . S
C927 H943 0.960 . S
H928 C912 0.931 . S
H929 C917 0.929 . S
H930 C918 0.960 . S
H931 C918 0.962 . S
H932 C918 0.960 . S
H933 C919 0.961 . S
H934 C919 0.961 . S
H935 C919 0.961 . S
H936 C920 0.931 . S
H937 C925 0.930 . S
H938 C926 0.956 . S
H939 C926 0.961 . S
H940 C926 0.961 . S
H941 C927 0.958 . S
H942 C927 0.961 . S
H943 C927 0.960 . S
C944 C945 1.391 . S
C944 C946 1.394 . S
C944 H960 0.931 . S
C945 C944 1.391 . S
C945 C949 1.376 . S
C946 C944 1.394 . S
C946 C947 1.369 . S
C946 C950 1.531 . S
C947 C946 1.369 . S
C947 C948 1.410 . S
C947 C955 1.503 1_655 S
C948 C947 1.410 . S
C948 C949 1.392 . S
C948 C951 1.511 . S
C949 C945 1.376 . S
C949 C948 1.392 . S
C949 H961 0.929 . S
C950 C946 1.531 . S
C950 H962 0.987 . S
C950 H963 0.962 . S
C950 H964 0.960 . S
C951 C948 1.511 . S
C951 H965 0.961 . S
C951 H966 0.961 1_655 S
C951 H967 0.961 . S
C952 C953 1.370 . S
C952 C954 1.363 . S
C952 H968 0.931 . S
C953 C952 1.370 . S
C953 C957 1.408 . S
C954 C952 1.363 . S
C954 C955 1.370 . S
C954 C958 1.524 . S
C955 C947 1.503 1_455 S
C955 C954 1.370 . S
C955 C956 1.403 . S
C956 C955 1.403 . S
C956 C957 1.404 . S
C956 C959 1.539 . S
C957 C953 1.408 . S
C957 C956 1.404 . S
C957 H969 0.930 . S
C958 C954 1.524 . S
C958 H970 0.956 1_455 S
C958 H971 0.961 1_455 S
C958 H972 0.961 . S
C959 C956 1.539 . S
C959 H973 0.958 . S
C959 H974 0.961 . S
C959 H975 0.960 . S
H960 C944 0.931 . S
H961 C949 0.929 . S
H962 C950 0.987 . S
H963 C950 0.962 . S
H964 C950 0.960 . S
H965 C951 0.961 . S
H966 C951 0.961 1_455 S
H967 C951 0.961 . S
H968 C952 0.931 . S
H969 C957 0.930 . S
H970 C958 0.956 1_655 S
H971 C958 0.961 1_655 S
H972 C958 0.961 . S
H973 C959 0.958 . S
H974 C959 0.961 . S
H975 C959 0.960 . S
C976 C977 1.391 . S
C976 C978 1.394 . S
C976 H992 0.931 . S
C977 C976 1.391 . S
C977 C981 1.376 1_655 S
C978 C976 1.394 . S
C978 C979 1.346 1_655 S
C978 C982 1.531 . S
C979 C978 1.346 1_455 S
C979 C980 1.427 . S
C979 C987 1.508 . S
C980 C979 1.427 . S
C980 C981 1.392 . S
C980 C983 1.511 . S
C981 C977 1.376 1_455 S
C981 C980 1.392 . S
C981 H993 0.929 . S
C982 C978 1.531 . S
C982 H994 0.960 . S
C982 H995 0.962 . S
C982 H996 0.960 . S
C983 C980 1.511 . S
C983 H997 0.961 . S
C983 H998 0.961 . S
C983 H999 0.961 . S
C984 C985 1.370 1_655 S
C984 C986 1.363 . S
C984 H1000 0.931 . S
C985 C984 1.370 1_455 S
C985 C989 1.408 . S
C986 C984 1.363 . S
C986 C987 1.370 1_655 S
C986 C990 1.524 . S
C987 C979 1.508 . S
C987 C986 1.370 1_455 S
C987 C988 1.403 . S
C988 C987 1.403 . S
C988 C989 1.404 . S
C988 C991 1.539 . S
C989 C985 1.408 . S
C989 C988 1.404 . S
C989 H1001 0.930 . S
C990 C986 1.524 . S
C990 H1002 0.956 . S
C990 H1003 0.958 . S
C990 H1004 0.961 1_554 S
C991 C988 1.539 . S
C991 H1005 0.958 . S
C991 H1006 0.961 . S
C991 H1007 0.960 . S
H992 C976 0.931 . S
H993 C981 0.929 . S
H994 C982 0.960 . S
H995 C982 0.962 . S
H996 C982 0.960 . S
H997 C983 0.961 . S
H998 C983 0.961 . S
H999 C983 0.961 . S
H1000 C984 0.931 . S
H1001 C989 0.930 . S
H1002 C990 0.956 . S
H1003 C990 0.958 . S
H1004 C990 0.961 1_556 S
H1005 C991 0.958 . S
H1006 C991 0.961 . S
H1007 C991 0.960 . S
C1008 C1009 1.391 . S
C1008 C1010 1.394 . S
C1008 H1024 0.931 . S
C1009 C1008 1.391 . S
C1009 C1013 1.376 . S
C1010 C1008 1.394 . S
C1010 C1011 1.369 . S
C1010 C1014 1.531 . S
C1011 C1010 1.369 . S
C1011 C1012 1.410 . S
C1011 C1019 1.503 . S
C1012 C1011 1.410 . S
C1012 C1013 1.392 . S
C1012 C1015 1.511 . S
C1013 C1009 1.376 . S
C1013 C1012 1.392 . S
C1013 H1025 0.929 . S
C1014 C1010 1.531 . S
C1014 H1026 0.960 . S
C1014 H1027 0.962 . S
C1014 H1028 0.960 . S
C1015 C1012 1.511 . S
C1015 H1029 0.961 . S
C1015 H1030 0.961 . S
C1015 H1031 0.961 . S
C1016 C1017 1.370 . S
C1016 C1018 1.363 . S
C1016 H1032 0.931 . S
C1017 C1016 1.370 . S
C1017 C1021 1.408 . S
C1018 C1016 1.363 . S
C1018 C1019 1.370 . S
C1018 C1022 1.524 . S
C1019 C1011 1.503 . S
C1019 C1018 1.370 . S
C1019 C1020 1.403 . S
C1020 C1019 1.403 . S
C1020 C1021 1.404 . S
C1020 C1023 1.539 . S
C1021 C1017 1.408 . S
C1021 C1020 1.404 . S
C1021 H1033 0.930 . S
C1022 C1018 1.524 . S
C1022 H1034 0.956 . S
C1022 H1035 0.961 . S
C1022 H1036 0.961 . S
C1023 C1020 1.539 . S
C1023 H1037 0.958 . S
C1023 H1038 0.961 . S
C1023 H1039 0.960 . S
H1024 C1008 0.931 . S
H1025 C1013 0.929 . S
H1026 C1014 0.960 . S
H1027 C1014 0.962 . S
H1028 C1014 0.960 . S
H1029 C1015 0.961 . S
H1030 C1015 0.961 . S
H1031 C1015 0.961 . S
H1032 C1016 0.931 . S
H1033 C1021 0.930 . S
H1034 C1022 0.956 . S
H1035 C1022 0.961 . S
H1036 C1022 0.961 . S
H1037 C1023 0.958 . S
H1038 C1023 0.961 . S
H1039 C1023 0.960 . S
C1040 C1041 1.391 . S
C1040 C1042 1.394 . S
C1040 H1056 0.931 . S
C1041 C1040 1.391 . S
C1041 C1045 1.376 . S
C1042 C1040 1.394 . S
C1042 C1043 1.369 . S
C1042 C1046 1.531 . S
C1043 C1042 1.369 . S
C1043 C1044 1.410 . S
C1043 C1051 1.503 1_545 S
C1044 C1043 1.410 . S
C1044 C1045 1.392 . S
C1044 C1047 1.511 . S
C1045 C1041 1.376 . S
C1045 C1044 1.392 . S
C1045 H1057 0.929 . S
C1046 C1042 1.531 . S
C1046 H1058 0.960 . S
C1046 H1059 0.962 . S
C1046 H1060 0.960 . S
C1047 C1044 1.511 . S
C1047 H1061 0.961 . S
C1047 H1062 0.961 1_545 S
C1047 H1063 0.961 . S
C1048 C1049 1.370 . S
C1048 C1050 1.363 . S
C1048 H1064 0.931 . S
C1049 C1048 1.370 . S
C1049 C1053 1.408 . S
C1050 C1048 1.363 . S
C1050 C1051 1.370 . S
C1050 C1054 1.524 . S
C1051 C1043 1.503 1_565 S
C1051 C1050 1.370 . S
C1051 C1052 1.403 . S
C1052 C1051 1.403 . S
C1052 C1053 1.404 . S
C1052 C1055 1.539 . S
C1053 C1049 1.408 . S
C1053 C1052 1.404 . S
C1053 H1065 0.930 . S
C1054 C1050 1.524 . S
C1054 H1066 0.956 . S
C1054 H1067 0.961 . S
C1054 H1068 0.961 . S
C1055 C1052 1.539 . S
C1055 H1069 0.958 . S
C1055 H1070 0.961 . S
C1055 H1071 0.960 1_565 S
H1056 C1040 0.931 . S
H1057 C1045 0.929 . S
H1058 C1046 0.960 . S
H1059 C1046 0.962 . S
H1060 C1046 0.960 . S
H1061 C1047 0.961 . S
H1062 C1047 0.961 1_565 S
H1063 C1047 0.961 . S
H1064 C1048 0.931 . S
H1065 C1053 0.930 . S
H1066 C1054 0.956 . S
H1067 C1054 0.961 . S
H1068 C1054 0.961 . S
H1069 C1055 0.958 . S
H1070 C1055 0.961 . S
H1071 C1055 0.960 1_545 S
C1072 C1073 1.391 1_556 S
C1072 C1074 1.394 . S
C1072 H1088 0.931 . S
C1073 C1072 1.391 1_554 S
C1073 C1077 1.376 . S
C1074 C1072 1.394 . S
C1074 C1075 1.369 1_556 S
C1074 C1078 1.531 . S
C1075 C1074 1.369 1_554 S
C1075 C1076 1.410 . S
C1075 C1083 1.497 1_554 S
C1076 C1075 1.410 . S
C1076 C1077 1.392 . S
C1076 C1079 1.511 . S
C1077 C1073 1.376 . S
C1077 C1076 1.392 . S
C1077 H1089 0.929 . S
C1078 C1074 1.531 . S
C1078 H1090 0.960 . S
C1078 H1091 0.962 . S
C1078 H1092 0.960 . S
C1079 C1076 1.511 . S
C1079 H1093 0.961 . S
C1079 H1094 0.961 . S
C1079 H1095 0.961 . S
C1080 C1081 1.370 . S
C1080 C1082 1.363 . S
C1080 H1096 0.931 . S
C1081 C1080 1.370 . S
C1081 C1085 1.400 1_556 S
C1082 C1080 1.363 . S
C1082 C1083 1.387 . S
C1082 C1086 1.524 . S
C1083 C1075 1.497 1_556 S
C1083 C1082 1.387 . S
C1083 C1084 1.394 1_556 S
C1084 C1083 1.394 1_554 S
C1084 C1085 1.408 . S
C1084 C1087 1.539 . S
C1085 C1081 1.400 1_554 S
C1085 C1084 1.408 . S
C1085 H1097 0.935 . S
C1086 C1082 1.524 . S
C1086 H1098 0.956 . S
C1086 H1099 0.961 . S
C1086 H1100 0.961 . S
C1087 C1084 1.539 . S
C1087 H1101 0.958 . S
C1087 H1102 0.961 . S
C1087 H1103 0.960 . S
H1088 C1072 0.931 . S
H1089 C1077 0.929 . S
H1090 C1078 0.960 . S
H1091 C1078 0.962 . S
H1092 C1078 0.960 . S
H1093 C1079 0.961 . S
H1094 C1079 0.961 . S
H1095 C1079 0.961 . S
H1096 C1080 0.931 . S
H1097 C1085 0.935 . S
H1098 C1086 0.956 . S
H1099 C1086 0.961 . S
H1100 C1086 0.961 . S
H1101 C1087 0.958 . S
H1102 C1087 0.961 . S
H1103 C1087 0.960 . S
C1104 C1105 1.391 . S
C1104 C1106 1.394 . S
C1104 H1120 0.931 . S
C1105 C1104 1.391 . S
C1105 C1109 1.376 . S
C1106 C1104 1.394 . S
C1106 C1107 1.369 . S
C1106 C1110 1.531 . S
C1107 C1106 1.369 . S
C1107 C1108 1.410 . S
C1107 C1115 1.503 1_545 S
C1108 C1107 1.410 . S
C1108 C1109 1.392 . S
C1108 C1111 1.511 . S
C1109 C1105 1.376 . S
C1109 C1108 1.392 . S
C1109 H1121 0.929 . S
C1110 C1106 1.531 . S
C1110 H1122 0.960 1_545 S
C1110 H1123 0.962 . S
C1110 H1124 0.960 . S
C1111 C1108 1.511 . S
C1111 H1125 0.961 . S
C1111 H1126 0.961 . S
C1111 H1127 0.961 . S
C1112 C1113 1.370 . S
C1112 C1114 1.363 . S
C1112 H1128 0.931 . S
C1113 C1112 1.370 . S
C1113 C1117 1.408 . S
C1114 C1112 1.363 . S
C1114 C1115 1.370 . S
C1114 C1118 1.524 . S
C1115 C1107 1.503 1_565 S
C1115 C1114 1.370 . S
C1115 C1116 1.403 . S
C1116 C1115 1.403 . S
C1116 C1117 1.404 . S
C1116 C1119 1.539 . S
C1117 C1113 1.408 . S
C1117 C1116 1.404 . S
C1117 H1129 0.930 . S
C1118 C1114 1.524 . S
C1118 H1130 0.947 1_565 S
C1118 H1131 0.961 1_565 S
C1118 H1132 0.961 . S
C1119 C1116 1.539 . S
C1119 H1133 0.958 . S
C1119 H1134 0.961 . S
C1119 H1135 0.960 . S
H1120 C1104 0.931 . S
H1121 C1109 0.929 . S
H1122 C1110 0.960 1_565 S
H1123 C1110 0.962 . S
H1124 C1110 0.960 . S
H1125 C1111 0.961 . S
H1126 C1111 0.961 . S
H1127 C1111 0.961 . S
H1128 C1112 0.931 . S
H1129 C1117 0.930 . S
H1130 C1118 0.947 1_545 S
H1131 C1118 0.961 1_545 S
H1132 C1118 0.961 . S
H1133 C1119 0.958 . S
H1134 C1119 0.961 . S
H1135 C1119 0.960 . S
C1136 C1137 1.400 . S
C1136 C1138 1.388 1_556 S
C1136 H1152 0.927 1_556 S
C1137 C1136 1.400 . S
C1137 C1141 1.376 . S
C1138 C1136 1.388 1_554 S
C1138 C1139 1.369 . S
C1138 C1142 1.531 . S
C1139 C1138 1.369 . S
C1139 C1140 1.410 1_554 S
C1139 C1147 1.503 . S
C1140 C1139 1.410 1_556 S
C1140 C1141 1.392 . S
C1140 C1143 1.511 1_545 S
C1141 C1137 1.376 . S
C1141 C1140 1.392 . S
C1141 H1153 0.929 . S
C1142 C1138 1.531 . S
C1142 H1154 0.960 . S
C1142 H1155 0.951 1_554 S
C1142 H1156 0.960 . S
C1143 C1140 1.511 1_565 S
C1143 H1157 0.961 . S
C1143 H1158 0.961 . S
C1143 H1159 0.961 1_556 S
C1144 C1145 1.370 1_556 S
C1144 C1146 1.363 . S
C1144 H1160 0.931 . S
C1145 C1144 1.370 1_554 S
C1145 C1149 1.408 . S
C1146 C1144 1.363 . S
C1146 C1147 1.370 1_556 S
C1146 C1150 1.524 . S
C1147 C1139 1.503 . S
C1147 C1146 1.370 1_554 S
C1147 C1148 1.403 . S
C1148 C1147 1.403 . S
C1148 C1149 1.404 . S
C1148 C1151 1.539 . S
C1149 C1145 1.408 . S
C1149 C1148 1.404 . S
C1149 H1161 0.930 . S
C1150 C1146 1.524 . S
C1150 H1162 0.956 . S
C1150 H1163 0.961 . S
C1150 H1164 0.961 . S
C1151 C1148 1.539 . S
C1151 H1165 0.958 . S
C1151 H1166 0.961 . S
C1151 H1167 0.960 . S
H1152 C1136 0.927 1_554 S
H1153 C1141 0.929 . S
H1154 C1142 0.960 . S
H1155 C1142 0.951 1_556 S
H1156 C1142 0.960 . S
H1157 C1143 0.961 . S
H1158 C1143 0.961 . S
H1159 C1143 0.961 1_554 S
H1160 C1144 0.931 . S
H1161 C1149 0.930 . S
H1162 C1150 0.956 . S
H1163 C1150 0.961 . S
H1164 C1150 0.961 . S
H1165 C1151 0.958 . S
H1166 C1151 0.961 . S
H1167 C1151 0.960 . S
C1168 C1169 1.391 . S
C1168 C1170 1.394 . S
C1168 H1184 0.931 . S
C1169 C1168 1.391 . S
C1169 C1173 1.376 . S
C1170 C1168 1.394 . S
C1170 C1171 1.369 . S
C1170 C1174 1.531 . S
C1171 C1170 1.369 . S
C1171 C1172 1.410 . S
C1171 C1179 1.503 . S
C1172 C1171 1.410 . S
C1172 C1173 1.392 . S
C1172 C1175 1.511 . S
C1173 C1169 1.376 . S
C1173 C1172 1.392 . S
C1173 H1185 0.929 . S
C1174 C1170 1.531 . S
C1174 H1186 0.960 . S
C1174 H1187 0.962 . S
C1174 H1188 0.960 . S
C1175 C1172 1.511 . S
C1175 H1189 0.961 . S
C1175 H1190 0.961 . S
C1175 H1191 0.961 . S
C1176 C1177 1.370 . S
C1176 C1178 1.363 . S
C1176 H1192 0.931 . S
C1177 C1176 1.370 . S
C1177 C1181 1.408 . S
C1178 C1176 1.363 . S
C1178 C1179 1.370 . S
C1178 C1182 1.524 . S
C1179 C1171 1.503 . S
C1179 C1178 1.370 . S
C1179 C1180 1.403 . S
C1180 C1179 1.403 . S
C1180 C1181 1.404 . S
C1180 C1183 1.539 . S
C1181 C1177 1.408 . S
C1181 C1180 1.404 . S
C1181 H1193 0.930 . S
C1182 C1178 1.524 . S
C1182 H1194 0.956 . S
C1182 H1195 0.961 . S
C1182 H1196 0.961 . S
C1183 C1180 1.539 . S
C1183 H1197 0.958 . S
C1183 H1198 0.961 . S
C1183 H1199 0.960 . S
H1184 C1168 0.931 . S
H1185 C1173 0.929 . S
H1186 C1174 0.960 . S
H1187 C1174 0.962 . S
H1188 C1174 0.960 . S
H1189 C1175 0.961 . S
H1190 C1175 0.961 . S
H1191 C1175 0.961 . S
H1192 C1176 0.931 . S
H1193 C1181 0.930 . S
H1194 C1182 0.956 . S
H1195 C1182 0.961 . S
H1196 C1182 0.961 . S
H1197 C1183 0.958 . S
H1198 C1183 0.961 . S
H1199 C1183 0.960 . S
C1200 C1201 1.391 . S
C1200 C1202 1.394 . S
C1200 H1216 0.931 . S
C1201 C1200 1.391 . S
C1201 C1205 1.376 . S
C1202 C1200 1.394 . S
C1202 C1203 1.369 . S
C1202 C1206 1.531 . S
C1203 C1202 1.369 . S
C1203 C1204 1.410 . S
C1203 C1211 1.503 . S
C1204 C1203 1.410 . S
C1204 C1205 1.392 . S
C1204 C1207 1.511 . S
C1205 C1201 1.376 . S
C1205 C1204 1.392 . S
C1205 H1217 0.929 . S
C1206 C1202 1.531 . S
C1206 H1218 0.960 . S
C1206 H1219 0.962 . S
C1206 H1220 0.960 . S
C1207 C1204 1.511 . S
C1207 H1221 0.961 . S
C1207 H1222 0.961 . S
C1207 H1223 0.961 . S
C1208 C1209 1.370 . S
C1208 C1210 1.363 . S
C1208 H1224 0.931 . S
C1209 C1208 1.370 . S
C1209 C1213 1.408 . S
C1210 C1208 1.363 . S
C1210 C1211 1.370 . S
C1210 C1214 1.524 . S
C1211 C1203 1.503 . S
C1211 C1210 1.370 . S
C1211 C1212 1.403 . S
C1212 C1211 1.403 . S
C1212 C1213 1.404 . S
C1212 C1215 1.539 . S
C1213 C1209 1.408 . S
C1213 C1212 1.404 . S
C1213 H1225 0.930 . S
C1214 C1210 1.524 . S
C1214 H1226 0.956 . S
C1214 H1227 0.961 . S
C1214 H1228 0.961 . S
C1215 C1212 1.539 . S
C1215 H1229 0.958 . S
C1215 H1230 0.961 . S
C1215 H1231 0.960 . S
H1216 C1200 0.931 . S
H1217 C1205 0.929 . S
H1218 C1206 0.960 . S
H1219 C1206 0.962 . S
H1220 C1206 0.960 . S
H1221 C1207 0.961 . S
H1222 C1207 0.961 . S
H1223 C1207 0.961 . S
H1224 C1208 0.931 . S
H1225 C1213 0.930 . S
H1226 C1214 0.956 . S
H1227 C1214 0.961 . S
H1228 C1214 0.961 . S
H1229 C1215 0.958 . S
H1230 C1215 0.961 . S
H1231 C1215 0.960 . S
C1232 C1233 1.391 . S
C1232 C1234 1.394 . S
C1232 H1248 0.931 . S
C1233 C1232 1.391 . S
C1233 C1237 1.376 . S
C1234 C1232 1.394 . S
C1234 C1235 1.369 . S
C1234 C1238 1.531 . S
C1235 C1234 1.369 . S
C1235 C1236 1.410 . S
C1235 C1243 1.503 1_554 S
C1236 C1235 1.410 . S
C1236 C1237 1.392 . S
C1236 C1239 1.511 . S
C1237 C1233 1.376 . S
C1237 C1236 1.392 . S
C1237 H1249 0.929 . S
C1238 C1234 1.531 . S
C1238 H1250 0.960 1_554 S
C1238 H1251 0.969 . S
C1238 H1252 0.960 . S
C1239 C1236 1.511 . S
C1239 H1253 0.961 . S
C1239 H1254 0.961 . S
C1239 H1255 0.961 . S
C1240 C1241 1.370 . S
C1240 C1242 1.363 . S
C1240 H1256 0.931 . S
C1241 C1240 1.370 . S
C1241 C1245 1.408 . S
C1242 C1240 1.363 . S
C1242 C1243 1.370 . S
C1242 C1246 1.524 . S
C1243 C1235 1.503 1_556 S
C1243 C1242 1.370 . S
C1243 C1244 1.403 . S
C1244 C1243 1.403 . S
C1244 C1245 1.404 . S
C1244 C1247 1.539 . S
C1245 C1241 1.408 . S
C1245 C1244 1.404 . S
C1245 H1257 0.930 . S
C1246 C1242 1.524 . S
C1246 H1258 0.956 . S
C1246 H1259 0.965 . S
C1246 H1260 0.961 . S
C1247 C1244 1.539 . S
C1247 H1261 0.958 . S
C1247 H1262 0.961 . S
C1247 H1263 0.960 1_556 S
H1248 C1232 0.931 . S
H1249 C1237 0.929 . S
H1250 C1238 0.960 1_556 S
H1251 C1238 0.969 . S
H1252 C1238 0.960 . S
H1253 C1239 0.961 . S
H1254 C1239 0.961 . S
H1255 C1239 0.961 . S
H1256 C1240 0.931 . S
H1257 C1245 0.930 . S
H1258 C1246 0.956 . S
H1259 C1246 0.965 . S
H1260 C1246 0.961 . S
H1261 C1247 0.958 . S
H1262 C1247 0.961 . S
H1263 C1247 0.960 1_554 S
C1264 C1265 1.391 . S
C1264 C1266 1.394 . S
C1264 H1280 0.931 . S
C1265 C1264 1.391 . S
C1265 C1269 1.376 . S
C1266 C1264 1.394 . S
C1266 C1267 1.369 . S
C1266 C1270 1.531 . S
C1267 C1266 1.369 . S
C1267 C1268 1.410 . S
C1267 C1275 1.503 . S
C1268 C1267 1.410 . S
C1268 C1269 1.392 . S
C1268 C1271 1.511 . S
C1269 C1265 1.376 . S
C1269 C1268 1.392 . S
C1269 H1281 0.929 . S
C1270 C1266 1.531 . S
C1270 H1282 0.960 . S
C1270 H1283 0.962 . S
C1270 H1284 0.960 . S
C1271 C1268 1.511 . S
C1271 H1285 0.961 . S
C1271 H1286 0.961 . S
C1271 H1287 0.961 . S
C1272 C1273 1.370 . S
C1272 C1274 1.363 . S
C1272 H1288 0.931 . S
C1273 C1272 1.370 . S
C1273 C1277 1.408 . S
C1274 C1272 1.363 . S
C1274 C1275 1.370 . S
C1274 C1278 1.524 . S
C1275 C1267 1.503 . S
C1275 C1274 1.370 . S
C1275 C1276 1.403 . S
C1276 C1275 1.403 . S
C1276 C1277 1.404 . S
C1276 C1279 1.539 . S
C1277 C1273 1.408 . S
C1277 C1276 1.404 . S
C1277 H1289 0.930 . S
C1278 C1274 1.524 . S
C1278 H1290 0.956 . S
C1278 H1291 0.961 . S
C1278 H1292 0.961 . S
C1279 C1276 1.539 . S
C1279 H1293 0.958 . S
C1279 H1294 0.961 . S
C1279 H1295 0.960 . S
H1280 C1264 0.931 . S
H1281 C1269 0.929 . S
H1282 C1270 0.960 . S
H1283 C1270 0.962 . S
H1284 C1270 0.960 . S
H1285 C1271 0.961 . S
H1286 C1271 0.961 . S
H1287 C1271 0.961 . S
H1288 C1272 0.931 . S
H1289 C1277 0.930 . S
H1290 C1278 0.956 . S
H1291 C1278 0.961 . S
H1292 C1278 0.961 . S
H1293 C1279 0.958 . S
H1294 C1279 0.961 . S
H1295 C1279 0.960 . S
C1296 C1297 1.391 . S
C1296 C1298 1.394 . S
C1296 H1312 0.931 . S
C1297 C1296 1.391 . S
C1297 C1301 1.376 . S
C1298 C1296 1.394 . S
C1298 C1299 1.369 . S
C1298 C1302 1.531 . S
C1299 C1298 1.369 . S
C1299 C1300 1.410 . S
C1299 C1307 1.503 . S
C1300 C1299 1.410 . S
C1300 C1301 1.392 . S
C1300 C1303 1.511 . S
C1301 C1297 1.376 . S
C1301 C1300 1.392 . S
C1301 H1313 0.929 . S
C1302 C1298 1.531 . S
C1302 H1314 0.960 . S
C1302 H1315 0.962 . S
C1302 H1316 0.960 . S
C1303 C1300 1.511 . S
C1303 H1317 0.961 . S
C1303 H1318 0.961 . S
C1303 H1319 0.961 . S
C1304 C1305 1.370 . S
C1304 C1306 1.363 . S
C1304 H1320 0.931 . S
C1305 C1304 1.370 . S
C1305 C1309 1.408 . S
C1306 C1304 1.363 . S
C1306 C1307 1.370 . S
C1306 C1310 1.524 . S
C1307 C1299 1.503 . S
C1307 C1306 1.370 . S
C1307 C1308 1.403 . S
C1308 C1307 1.403 . S
C1308 C1309 1.404 . S
C1308 C1311 1.539 . S
C1309 C1305 1.408 . S
C1309 C1308 1.404 . S
C1309 H1321 0.930 . S
C1310 C1306 1.524 . S
C1310 H1322 0.956 . S
C1310 H1323 0.961 . S
C1310 H1324 0.961 . S
C1311 C1308 1.539 . S
C1311 H1325 0.958 . S
C1311 H1326 0.961 . S
C1311 H1327 0.960 . S
H1312 C1296 0.931 . S
H1313 C1301 0.929 . S
H1314 C1302 0.960 . S
H1315 C1302 0.962 . S
H1316 C1302 0.960 . S
H1317 C1303 0.961 . S
H1318 C1303 0.961 . S
H1319 C1303 0.961 . S
H1320 C1304 0.931 . S
H1321 C1309 0.930 . S
H1322 C1310 0.956 . S
H1323 C1310 0.961 . S
H1324 C1310 0.961 . S
H1325 C1311 0.958 . S
H1326 C1311 0.961 . S
H1327 C1311 0.960 . S
C1328 C1329 1.391 . S
C1328 C1330 1.394 . S
C1328 H1344 0.931 . S
C1329 C1328 1.391 . S
C1329 C1333 1.376 . S
C1330 C1328 1.394 . S
C1330 C1331 1.369 . S
C1330 C1334 1.531 . S
C1331 C1330 1.369 . S
C1331 C1332 1.410 . S
C1331 C1339 1.503 . S
C1332 C1331 1.410 . S
C1332 C1333 1.392 . S
C1332 C1335 1.511 . S
C1333 C1329 1.376 . S
C1333 C1332 1.392 . S
C1333 H1345 0.929 . S
C1334 C1330 1.531 . S
C1334 H1346 0.960 . S
C1334 H1347 0.962 . S
C1334 H1348 0.960 . S
C1335 C1332 1.511 . S
C1335 H1349 0.961 . S
C1335 H1350 0.961 . S
C1335 H1351 0.961 1_655 S
C1336 C1337 1.370 . S
C1336 C1338 1.363 . S
C1336 H1352 0.931 . S
C1337 C1336 1.370 . S
C1337 C1341 1.408 . S
C1338 C1336 1.363 . S
C1338 C1339 1.370 . S
C1338 C1342 1.524 . S
C1339 C1331 1.503 . S
C1339 C1338 1.370 . S
C1339 C1340 1.403 . S
C1340 C1339 1.403 . S
C1340 C1341 1.404 . S
C1340 C1343 1.539 1_655 S
C1341 C1337 1.408 . S
C1341 C1340 1.404 . S
C1341 H1353 0.930 . S
C1342 C1338 1.524 . S
C1342 H1354 0.956 . S
C1342 H1355 0.961 . S
C1342 H1356 0.961 . S
C1343 C1340 1.539 1_455 S
C1343 H1357 0.958 . S
C1343 H1358 0.961 . S
C1343 H1359 0.960 . S
H1344 C1328 0.931 . S
H1345 C1333 0.929 . S
H1346 C1334 0.960 . S
H1347 C1334 0.962 . S
H1348 C1334 0.960 . S
H1349 C1335 0.961 . S
H1350 C1335 0.961 . S
H1351 C1335 0.961 1_455 S
H1352 C1336 0.931 . S
H1353 C1341 0.930 . S
H1354 C1342 0.956 . S
H1355 C1342 0.961 . S
H1356 C1342 0.961 . S
H1357 C1343 0.958 . S
H1358 C1343 0.961 . S
H1359 C1343 0.960 . S
C1360 C1361 1.391 . S
C1360 C1362 1.394 . S
C1360 H1376 0.931 . S
C1361 C1360 1.391 . S
C1361 C1365 1.376 . S
C1362 C1360 1.394 . S
C1362 C1363 1.369 . S
C1362 C1366 1.531 . S
C1363 C1362 1.369 . S
C1363 C1364 1.410 . S
C1363 C1371 1.503 . S
C1364 C1363 1.410 . S
C1364 C1365 1.392 . S
C1364 C1367 1.511 . S
C1365 C1361 1.376 . S
C1365 C1364 1.392 . S
C1365 H1377 0.929 . S
C1366 C1362 1.531 . S
C1366 H1378 0.960 . S
C1366 H1379 0.962 . S
C1366 H1380 0.960 . S
C1367 C1364 1.511 . S
C1367 H1381 0.961 . S
C1367 H1382 0.961 . S
C1367 H1383 0.961 . S
C1368 C1369 1.370 . S
C1368 C1370 1.363 . S
C1368 H1384 0.931 . S
C1369 C1368 1.370 . S
C1369 C1373 1.408 . S
C1370 C1368 1.363 . S
C1370 C1371 1.370 . S
C1370 C1374 1.524 . S
C1371 C1363 1.503 . S
C1371 C1370 1.370 . S
C1371 C1372 1.403 . S
C1372 C1371 1.403 . S
C1372 C1373 1.404 . S
C1372 C1375 1.539 . S
C1373 C1369 1.408 . S
C1373 C1372 1.404 . S
C1373 H1385 0.930 . S
C1374 C1370 1.524 . S
C1374 H1386 0.956 . S
C1374 H1387 0.961 1_565 S
C1374 H1388 0.961 1_565 S
C1375 C1372 1.539 . S
C1375 H1389 0.958 . S
C1375 H1390 0.961 . S
C1375 H1391 0.960 . S
H1376 C1360 0.931 . S
H1377 C1365 0.929 . S
H1378 C1366 0.960 . S
H1379 C1366 0.962 . S
H1380 C1366 0.960 . S
H1381 C1367 0.961 . S
H1382 C1367 0.961 . S
H1383 C1367 0.961 . S
H1384 C1368 0.931 . S
H1385 C1373 0.930 . S
H1386 C1374 0.956 . S
H1387 C1374 0.961 1_545 S
H1388 C1374 0.961 1_545 S
H1389 C1375 0.958 . S
H1390 C1375 0.961 . S
H1391 C1375 0.960 . S
C1392 C1393 1.391 . S
C1392 C1394 1.394 . S
C1392 H1408 0.931 . S
C1393 C1392 1.391 . S
C1393 C1397 1.376 . S
C1394 C1392 1.394 . S
C1394 C1395 1.369 . S
C1394 C1398 1.531 . S
C1395 C1394 1.369 . S
C1395 C1396 1.410 . S
C1395 C1403 1.503 . S
C1396 C1395 1.410 . S
C1396 C1397 1.392 . S
C1396 C1399 1.511 . S
C1397 C1393 1.376 . S
C1397 C1396 1.392 . S
C1397 H1409 0.929 . S
C1398 C1394 1.531 . S
C1398 H1410 0.960 . S
C1398 H1411 0.962 . S
C1398 H1412 0.960 . S
C1399 C1396 1.511 . S
C1399 H1413 0.961 . S
C1399 H1414 0.961 . S
C1399 H1415 0.961 . S
C1400 C1401 1.370 . S
C1400 C1402 1.363 . S
C1400 H1416 0.931 . S
C1401 C1400 1.370 . S
C1401 C1405 1.408 . S
C1402 C1400 1.363 . S
C1402 C1403 1.370 . S
C1402 C1406 1.524 . S
C1403 C1395 1.503 . S
C1403 C1402 1.370 . S
C1403 C1404 1.403 . S
C1404 C1403 1.403 . S
C1404 C1405 1.404 . S
C1404 C1407 1.539 . S
C1405 C1401 1.408 . S
C1405 C1404 1.404 . S
C1405 H1417 0.930 . S
C1406 C1402 1.524 . S
C1406 H1418 0.956 . S
C1406 H1419 0.961 . S
C1406 H1420 0.961 . S
C1407 C1404 1.539 . S
C1407 H1421 0.958 . S
C1407 H1422 0.961 . S
C1407 H1423 0.960 . S
H1408 C1392 0.931 . S
H1409 C1397 0.929 . S
H1410 C1398 0.960 . S
H1411 C1398 0.962 . S
H1412 C1398 0.960 . S
H1413 C1399 0.961 . S
H1414 C1399 0.961 . S
H1415 C1399 0.961 . S
H1416 C1400 0.931 . S
H1417 C1405 0.930 . S
H1418 C1406 0.956 . S
H1419 C1406 0.961 . S
H1420 C1406 0.961 . S
H1421 C1407 0.958 . S
H1422 C1407 0.961 . S
H1423 C1407 0.960 . S
C1424 C1425 1.391 . S
C1424 C1426 1.394 . S
C1424 H1440 0.931 . S
C1425 C1424 1.391 . S
C1425 C1429 1.376 . S
C1426 C1424 1.394 . S
C1426 C1427 1.369 . S
C1426 C1430 1.531 . S
C1427 C1426 1.369 . S
C1427 C1428 1.410 . S
C1427 C1435 1.503 . S
C1428 C1427 1.410 . S
C1428 C1429 1.392 . S
C1428 C1431 1.511 . S
C1429 C1425 1.376 . S
C1429 C1428 1.392 . S
C1429 H1441 0.929 1_655 S
C1430 C1426 1.531 . S
C1430 H1442 0.960 . S
C1430 H1443 0.962 . S
C1430 H1444 0.960 . S
C1431 C1428 1.511 . S
C1431 H1445 0.961 . S
C1431 H1446 0.961 . S
C1431 H1447 0.961 . S
C1432 C1433 1.370 . S
C1432 C1434 1.363 . S
C1432 H1448 0.931 . S
C1433 C1432 1.370 . S
C1433 C1437 1.408 . S
C1434 C1432 1.363 . S
C1434 C1435 1.370 . S
C1434 C1438 1.524 . S
C1435 C1427 1.503 . S
C1435 C1434 1.370 . S
C1435 C1436 1.403 . S
C1436 C1435 1.403 . S
C1436 C1437 1.404 . S
C1436 C1439 1.536 1_565 S
C1437 C1433 1.408 . S
C1437 C1436 1.404 . S
C1437 H1449 0.930 . S
C1438 C1434 1.524 . S
C1438 H1450 0.956 . S
C1438 H1451 0.961 . S
C1438 H1452 0.961 . S
C1439 C1436 1.536 1_545 S
C1439 H1453 0.958 . S
C1439 H1454 0.963 . S
C1439 H1455 0.960 . S
H1440 C1424 0.931 . S
H1441 C1429 0.929 1_455 S
H1442 C1430 0.960 . S
H1443 C1430 0.962 . S
H1444 C1430 0.960 . S
H1445 C1431 0.961 . S
H1446 C1431 0.961 . S
H1447 C1431 0.961 . S
H1448 C1432 0.931 . S
H1449 C1437 0.930 . S
H1450 C1438 0.956 . S
H1451 C1438 0.961 . S
H1452 C1438 0.961 . S
H1453 C1439 0.958 . S
H1454 C1439 0.963 . S
H1455 C1439 0.960 . S
C1456 C1457 1.391 . S
C1456 C1458 1.394 . S
C1456 H1472 0.931 . S
C1457 C1456 1.391 . S
C1457 C1461 1.376 . S
C1458 C1456 1.394 . S
C1458 C1459 1.369 . S
C1458 C1462 1.531 . S
C1459 C1458 1.369 . S
C1459 C1460 1.410 . S
C1459 C1467 1.503 . S
C1460 C1459 1.410 . S
C1460 C1461 1.392 . S
C1460 C1463 1.511 . S
C1461 C1457 1.376 . S
C1461 C1460 1.392 . S
C1461 H1473 0.929 . S
C1462 C1458 1.531 . S
C1462 H1474 0.960 . S
C1462 H1475 0.962 . S
C1462 H1476 0.960 . S
C1463 C1460 1.511 . S
C1463 H1477 0.961 . S
C1463 H1478 0.961 . S
C1463 H1479 0.961 . S
C1464 C1465 1.370 . S
C1464 C1466 1.363 . S
C1464 H1480 0.931 . S
C1465 C1464 1.370 . S
C1465 C1469 1.408 . S
C1466 C1464 1.363 . S
C1466 C1467 1.370 . S
C1466 C1470 1.524 . S
C1467 C1459 1.503 . S
C1467 C1466 1.370 . S
C1467 C1468 1.403 . S
C1468 C1467 1.403 . S
C1468 C1469 1.404 . S
C1468 C1471 1.539 . S
C1469 C1465 1.408 . S
C1469 C1468 1.404 . S
C1469 H1481 0.930 . S
C1470 C1466 1.524 . S
C1470 H1482 0.956 . S
C1470 H1483 0.961 . S
C1470 H1484 0.961 . S
C1471 C1468 1.539 . S
C1471 H1485 0.958 . S
C1471 H1486 0.961 . S
C1471 H1487 0.960 . S
H1472 C1456 0.931 . S
H1473 C1461 0.929 . S
H1474 C1462 0.960 . S
H1475 C1462 0.962 . S
H1476 C1462 0.960 . S
H1477 C1463 0.961 . S
H1478 C1463 0.961 . S
H1479 C1463 0.961 . S
H1480 C1464 0.931 . S
H1481 C1469 0.930 . S
H1482 C1470 0.956 . S
H1483 C1470 0.961 . S
H1484 C1470 0.961 . S
H1485 C1471 0.958 . S
H1486 C1471 0.961 . S
H1487 C1471 0.960 . S
C1488 C1489 1.391 . S
C1488 C1490 1.394 . S
C1488 H1504 0.931 . S
C1489 C1488 1.391 . S
C1489 C1493 1.376 . S
C1490 C1488 1.394 . S
C1490 C1491 1.369 . S
C1490 C1494 1.531 . S
C1491 C1490 1.369 . S
C1491 C1492 1.410 . S
C1491 C1499 1.503 . S
C1492 C1491 1.410 . S
C1492 C1493 1.392 . S
C1492 C1495 1.511 . S
C1493 C1489 1.376 . S
C1493 C1492 1.392 . S
C1493 H1505 0.929 . S
C1494 C1490 1.531 . S
C1494 H1506 0.960 . S
C1494 H1507 0.962 . S
C1494 H1508 0.969 . S
C1495 C1492 1.511 . S
C1495 H1509 0.961 . S
C1495 H1510 0.961 . S
C1495 H1511 0.961 . S
C1496 C1497 1.370 . S
C1496 C1498 1.363 . S
C1496 H1512 0.931 . S
C1497 C1496 1.370 . S
C1497 C1501 1.408 . S
C1498 C1496 1.363 . S
C1498 C1499 1.370 . S
C1498 C1502 1.524 . S
C1499 C1491 1.503 . S
C1499 C1498 1.370 . S
C1499 C1500 1.403 . S
C1500 C1499 1.403 . S
C1500 C1501 1.404 . S
C1500 C1503 1.539 . S
C1501 C1497 1.408 . S
C1501 C1500 1.404 . S
C1501 H1513 0.930 . S
C1502 C1498 1.524 . S
C1502 H1514 0.956 . S
C1502 H1515 0.961 . S
C1502 H1516 0.961 . S
C1503 C1500 1.539 . S
C1503 H1517 0.958 1_545 S
C1503 H1518 0.961 . S
C1503 H1519 0.960 . S
H1504 C1488 0.931 . S
H1505 C1493 0.929 . S
H1506 C1494 0.960 . S
H1507 C1494 0.962 . S
H1508 C1494 0.969 . S
H1509 C1495 0.961 . S
H1510 C1495 0.961 . S
H1511 C1495 0.961 . S
H1512 C1496 0.931 . S
H1513 C1501 0.930 . S
H1514 C1502 0.956 . S
H1515 C1502 0.961 . S
H1516 C1502 0.961 . S
H1517 C1503 0.958 1_565 S
H1518 C1503 0.961 . S
H1519 C1503 0.960 . S
C1520 C1521 1.391 . S
C1520 C1522 1.394 . S
C1520 H1536 0.931 . S
C1521 C1520 1.391 . S
C1521 C1525 1.376 . S
C1522 C1520 1.394 . S
C1522 C1523 1.369 . S
C1522 C1526 1.531 . S
C1523 C1522 1.369 . S
C1523 C1524 1.410 . S
C1523 C1531 1.503 . S
C1524 C1523 1.410 . S
C1524 C1525 1.392 . S
C1524 C1527 1.511 . S
C1525 C1521 1.376 . S
C1525 C1524 1.392 . S
C1525 H1537 0.929 . S
C1526 C1522 1.531 . S
C1526 H1538 0.960 . S
C1526 H1539 0.962 . S
C1526 H1540 0.960 . S
C1527 C1524 1.511 . S
C1527 H1541 0.961 . S
C1527 H1542 0.961 . S
C1527 H1543 0.961 . S
C1528 C1529 1.370 . S
C1528 C1530 1.363 . S
C1528 H1544 0.931 . S
C1529 C1528 1.370 . S
C1529 C1533 1.408 . S
C1530 C1528 1.363 . S
C1530 C1531 1.370 . S
C1530 C1534 1.524 . S
C1531 C1523 1.503 . S
C1531 C1530 1.370 . S
C1531 C1532 1.403 . S
C1532 C1531 1.403 . S
C1532 C1533 1.404 . S
C1532 C1535 1.539 . S
C1533 C1529 1.408 . S
C1533 C1532 1.404 . S
C1533 H1545 0.930 . S
C1534 C1530 1.524 . S
C1534 H1546 0.956 . S
C1534 H1547 0.961 . S
C1534 H1548 0.961 . S
C1535 C1532 1.539 . S
C1535 H1549 0.958 . S
C1535 H1550 0.961 . S
C1535 H1551 0.960 . S
H1536 C1520 0.931 . S
H1537 C1525 0.929 . S
H1538 C1526 0.960 . S
H1539 C1526 0.962 . S
H1540 C1526 0.960 . S
H1541 C1527 0.961 . S
H1542 C1527 0.961 . S
H1543 C1527 0.961 . S
H1544 C1528 0.931 . S
H1545 C1533 0.930 . S
H1546 C1534 0.956 . S
H1547 C1534 0.961 . S
H1548 C1534 0.961 . S
H1549 C1535 0.958 . S
H1550 C1535 0.961 . S
H1551 C1535 0.960 . S
C1552 C1553 1.391 . S
C1552 C1554 1.394 . S
C1552 H1568 0.931 . S
C1553 C1552 1.391 . S
C1553 C1557 1.376 . S
C1554 C1552 1.394 . S
C1554 C1555 1.369 . S
C1554 C1558 1.531 . S
C1555 C1554 1.369 . S
C1555 C1556 1.410 . S
C1555 C1563 1.503 . S
C1556 C1555 1.410 . S
C1556 C1557 1.392 . S
C1556 C1559 1.511 . S
C1557 C1553 1.376 . S
C1557 C1556 1.392 . S
C1557 H1569 0.929 . S
C1558 C1554 1.531 . S
C1558 H1570 0.960 . S
C1558 H1571 0.962 . S
C1558 H1572 0.960 . S
C1559 C1556 1.511 . S
C1559 H1573 0.961 . S
C1559 H1574 0.961 . S
C1559 H1575 0.961 . S
C1560 C1561 1.370 . S
C1560 C1562 1.363 . S
C1560 H1576 0.931 . S
C1561 C1560 1.370 . S
C1561 C1565 1.408 . S
C1562 C1560 1.363 . S
C1562 C1563 1.370 . S
C1562 C1566 1.524 . S
C1563 C1555 1.503 . S
C1563 C1562 1.370 . S
C1563 C1564 1.403 . S
C1564 C1563 1.403 . S
C1564 C1565 1.404 . S
C1564 C1567 1.539 . S
C1565 C1561 1.408 . S
C1565 C1564 1.404 . S
C1565 H1577 0.930 . S
C1566 C1562 1.524 . S
C1566 H1578 0.956 . S
C1566 H1579 0.961 . S
C1566 H1580 0.935 1_565 S
C1567 C1564 1.539 . S
C1567 H1581 0.958 . S
C1567 H1582 0.961 . S
C1567 H1583 0.960 . S
H1568 C1552 0.931 . S
H1569 C1557 0.929 . S
H1570 C1558 0.960 . S
H1571 C1558 0.962 . S
H1572 C1558 0.960 . S
H1573 C1559 0.961 . S
H1574 C1559 0.961 . S
H1575 C1559 0.961 . S
H1576 C1560 0.931 . S
H1577 C1565 0.930 . S
H1578 C1566 0.956 . S
H1579 C1566 0.961 . S
H1580 C1566 0.935 1_545 S
H1581 C1567 0.958 . S
H1582 C1567 0.961 . S
H1583 C1567 0.960 . S
C1584 C1585 1.391 . S
C1584 C1586 1.394 . S
C1584 H1600 0.931 . S
C1585 C1584 1.391 . S
C1585 C1589 1.376 . S
C1586 C1584 1.394 . S
C1586 C1587 1.369 . S
C1586 C1590 1.531 . S
C1587 C1586 1.369 . S
C1587 C1588 1.410 . S
C1587 C1595 1.503 . S
C1588 C1587 1.410 . S
C1588 C1589 1.392 . S
C1588 C1591 1.511 . S
C1589 C1585 1.376 . S
C1589 C1588 1.392 . S
C1589 H1601 0.929 . S
C1590 C1586 1.531 . S
C1590 H1602 0.960 . S
C1590 H1603 0.962 . S
C1590 H1604 0.960 . S
C1591 C1588 1.511 . S
C1591 H1605 0.961 . S
C1591 H1606 0.961 . S
C1591 H1607 0.961 . S
C1592 C1593 1.370 . S
C1592 C1594 1.363 . S
C1592 H1608 0.931 . S
C1593 C1592 1.370 . S
C1593 C1597 1.408 . S
C1594 C1592 1.363 . S
C1594 C1595 1.370 . S
C1594 C1598 1.524 . S
C1595 C1587 1.503 . S
C1595 C1594 1.370 . S
C1595 C1596 1.403 . S
C1596 C1595 1.403 . S
C1596 C1597 1.404 . S
C1596 C1599 1.539 . S
C1597 C1593 1.408 . S
C1597 C1596 1.404 . S
C1597 H1609 0.930 . S
C1598 C1594 1.524 . S
C1598 H1610 0.956 . S
C1598 H1611 0.961 . S
C1598 H1612 0.961 . S
C1599 C1596 1.539 . S
C1599 H1613 0.958 . S
C1599 H1614 0.961 . S
C1599 H1615 0.960 . S
H1600 C1584 0.931 . S
H1601 C1589 0.929 . S
H1602 C1590 0.960 . S
H1603 C1590 0.962 . S
H1604 C1590 0.960 . S
H1605 C1591 0.961 . S
H1606 C1591 0.961 . S
H1607 C1591 0.961 . S
H1608 C1592 0.931 . S
H1609 C1597 0.930 . S
H1610 C1598 0.956 . S
H1611 C1598 0.961 . S
H1612 C1598 0.961 . S
H1613 C1599 0.958 . S
H1614 C1599 0.961 . S
H1615 C1599 0.960 . S
C1616 C1617 1.391 . S
C1616 C1618 1.394 . S
C1616 H1632 0.931 . S
C1617 C1616 1.391 . S
C1617 C1621 1.376 . S
C1618 C1616 1.394 . S
C1618 C1619 1.369 . S
C1618 C1622 1.531 . S
C1619 C1618 1.369 . S
C1619 C1620 1.410 . S
C1619 C1627 1.503 . S
C1620 C1619 1.410 . S
C1620 C1621 1.392 . S
C1620 C1623 1.511 . S
C1621 C1617 1.376 . S
C1621 C1620 1.392 . S
C1621 H1633 0.929 1_556 S
C1622 C1618 1.531 . S
C1622 H1634 0.960 . S
C1622 H1635 0.962 . S
C1622 H1636 0.960 . S
C1623 C1620 1.511 . S
C1623 H1637 0.961 . S
C1623 H1638 0.961 . S
C1623 H1639 0.961 . S
C1624 C1625 1.370 . S
C1624 C1626 1.363 . S
C1624 H1640 0.931 . S
C1625 C1624 1.370 . S
C1625 C1629 1.408 . S
C1626 C1624 1.363 . S
C1626 C1627 1.370 . S
C1626 C1630 1.524 . S
C1627 C1619 1.503 . S
C1627 C1626 1.370 . S
C1627 C1628 1.403 . S
C1628 C1627 1.403 . S
C1628 C1629 1.404 . S
C1628 C1631 1.539 . S
C1629 C1625 1.408 . S
C1629 C1628 1.404 . S
C1629 H1641 0.930 . S
C1630 C1626 1.524 . S
C1630 H1642 0.956 . S
C1630 H1643 0.961 . S
C1630 H1644 0.961 1_545 S
C1631 C1628 1.539 . S
C1631 H1645 0.958 . S
C1631 H1646 0.961 . S
C1631 H1647 0.960 . S
H1632 C1616 0.931 . S
H1633 C1621 0.929 1_554 S
H1634 C1622 0.960 . S
H1635 C1622 0.962 . S
H1636 C1622 0.960 . S
H1637 C1623 0.961 . S
H1638 C1623 0.961 . S
H1639 C1623 0.961 . S
H1640 C1624 0.931 . S
H1641 C1629 0.930 . S
H1642 C1630 0.956 . S
H1643 C1630 0.961 . S
H1644 C1630 0.961 1_565 S
H1645 C1631 0.958 . S
H1646 C1631 0.961 . S
H1647 C1631 0.960 . S
C1648 C1649 1.391 . S
C1648 C1650 1.394 . S
C1648 H1664 0.931 . S
C1649 C1648 1.391 . S
C1649 C1653 1.376 . S
C1650 C1648 1.394 . S
C1650 C1651 1.369 . S
C1650 C1654 1.531 . S
C1651 C1650 1.369 . S
C1651 C1652 1.410 . S
C1651 C1659 1.503 . S
C1652 C1651 1.410 . S
C1652 C1653 1.392 . S
C1652 C1655 1.511 . S
C1653 C1649 1.376 . S
C1653 C1652 1.392 . S
C1653 H1665 0.929 . S
C1654 C1650 1.531 . S
C1654 H1666 0.960 . S
C1654 H1667 0.962 . S
C1654 H1668 0.960 . S
C1655 C1652 1.511 . S
C1655 H1669 0.961 . S
C1655 H1670 0.961 . S
C1655 H1671 0.961 . S
C1656 C1657 1.370 . S
C1656 C1658 1.363 . S
C1656 H1672 0.931 . S
C1657 C1656 1.370 . S
C1657 C1661 1.408 . S
C1658 C1656 1.363 . S
C1658 C1659 1.370 . S
C1658 C1662 1.524 . S
C1659 C1651 1.503 . S
C1659 C1658 1.370 . S
C1659 C1660 1.403 . S
C1660 C1659 1.403 . S
C1660 C1661 1.404 . S
C1660 C1663 1.539 . S
C1661 C1657 1.408 . S
C1661 C1660 1.404 . S
C1661 H1673 0.930 . S
C1662 C1658 1.524 . S
C1662 H1674 0.956 . S
C1662 H1675 0.961 . S
C1662 H1676 0.961 . S
C1663 C1660 1.539 . S
C1663 H1677 0.958 . S
C1663 H1678 0.961 . S
C1663 H1679 0.960 . S
H1664 C1648 0.931 . S
H1665 C1653 0.929 . S
H1666 C1654 0.960 . S
H1667 C1654 0.962 . S
H1668 C1654 0.960 . S
H1669 C1655 0.961 . S
H1670 C1655 0.961 . S
H1671 C1655 0.961 . S
H1672 C1656 0.931 . S
H1673 C1661 0.930 . S
H1674 C1662 0.956 . S
H1675 C1662 0.961 . S
H1676 C1662 0.961 . S
H1677 C1663 0.958 . S
H1678 C1663 0.961 . S
H1679 C1663 0.960 . S
C1680 C1681 1.391 . S
C1680 C1682 1.394 . S
C1680 H1696 0.931 . S
C1681 C1680 1.391 . S
C1681 C1685 1.376 . S
C1682 C1680 1.394 . S
C1682 C1683 1.369 . S
C1682 C1686 1.531 . S
C1683 C1682 1.369 . S
C1683 C1684 1.410 . S
C1683 C1691 1.503 . S
C1684 C1683 1.410 . S
C1684 C1685 1.392 . S
C1684 C1687 1.511 . S
C1685 C1681 1.376 . S
C1685 C1684 1.392 . S
C1685 H1697 0.929 . S
C1686 C1682 1.531 . S
C1686 H1698 0.960 . S
C1686 H1699 0.952 1_455 S
C1686 H1700 0.960 . S
C1687 C1684 1.511 . S
C1687 H1701 0.961 . S
C1687 H1702 0.961 . S
C1687 H1703 0.961 . S
C1688 C1689 1.370 . S
C1688 C1690 1.363 . S
C1688 H1704 0.931 . S
C1689 C1688 1.370 . S
C1689 C1693 1.408 . S
C1690 C1688 1.363 . S
C1690 C1691 1.370 . S
C1690 C1694 1.524 . S
C1691 C1683 1.503 . S
C1691 C1690 1.370 . S
C1691 C1692 1.403 . S
C1692 C1691 1.403 . S
C1692 C1693 1.404 . S
C1692 C1695 1.539 . S
C1693 C1689 1.408 . S
C1693 C1692 1.404 . S
C1693 H1705 0.930 . S
C1694 C1690 1.524 . S
C1694 H1706 0.956 . S
C1694 H1707 0.961 . S
C1694 H1708 0.961 . S
C1695 C1692 1.539 . S
C1695 H1709 0.958 . S
C1695 H1710 0.961 . S
C1695 H1711 0.960 . S
H1696 C1680 0.931 . S
H1697 C1685 0.929 . S
H1698 C1686 0.960 . S
H1699 C1686 0.952 1_655 S
H1700 C1686 0.960 . S
H1701 C1687 0.961 . S
H1702 C1687 0.961 . S
H1703 C1687 0.961 . S
H1704 C1688 0.931 . S
H1705 C1693 0.930 . S
H1706 C1694 0.956 . S
H1707 C1694 0.961 . S
H1708 C1694 0.961 . S
H1709 C1695 0.958 . S
H1710 C1695 0.961 . S
H1711 C1695 0.960 . S
C1712 C1713 1.391 . S
C1712 C1714 1.394 . S
C1712 H1728 0.931 . S
C1713 C1712 1.391 . S
C1713 C1717 1.376 . S
C1714 C1712 1.394 . S
C1714 C1715 1.369 . S
C1714 C1718 1.531 . S
C1715 C1714 1.369 . S
C1715 C1716 1.410 . S
C1715 C1723 1.503 . S
C1716 C1715 1.410 . S
C1716 C1717 1.392 . S
C1716 C1719 1.511 . S
C1717 C1713 1.376 . S
C1717 C1716 1.392 . S
C1717 H1729 0.929 . S
C1718 C1714 1.531 . S
C1718 H1730 0.960 . S
C1718 H1731 0.962 . S
C1718 H1732 0.960 . S
C1719 C1716 1.511 . S
C1719 H1733 0.961 . S
C1719 H1734 0.961 . S
C1719 H1735 0.961 . S
C1720 C1721 1.370 . S
C1720 C1722 1.363 . S
C1720 H1736 0.931 . S
C1721 C1720 1.370 . S
C1721 C1725 1.408 . S
C1722 C1720 1.363 . S
C1722 C1723 1.370 . S
C1722 C1726 1.524 . S
C1723 C1715 1.503 . S
C1723 C1722 1.370 . S
C1723 C1724 1.403 . S
C1724 C1723 1.403 . S
C1724 C1725 1.404 . S
C1724 C1727 1.539 . S
C1725 C1721 1.408 . S
C1725 C1724 1.404 . S
C1725 H1737 0.930 . S
C1726 C1722 1.524 . S
C1726 H1738 0.956 . S
C1726 H1739 0.961 . S
C1726 H1740 0.961 . S
C1727 C1724 1.539 . S
C1727 H1741 0.958 . S
C1727 H1742 0.961 . S
C1727 H1743 0.960 . S
H1728 C1712 0.931 . S
H1729 C1717 0.929 . S
H1730 C1718 0.960 . S
H1731 C1718 0.962 . S
H1732 C1718 0.960 . S
H1733 C1719 0.961 . S
H1734 C1719 0.961 . S
H1735 C1719 0.961 . S
H1736 C1720 0.931 . S
H1737 C1725 0.930 . S
H1738 C1726 0.956 . S
H1739 C1726 0.961 . S
H1740 C1726 0.961 . S
H1741 C1727 0.958 . S
H1742 C1727 0.961 . S
H1743 C1727 0.960 . S
C1744 C1745 1.391 . S
C1744 C1746 1.394 . S
C1744 H1760 0.931 . S
C1745 C1744 1.391 . S
C1745 C1749 1.376 . S
C1746 C1744 1.394 . S
C1746 C1747 1.369 . S
C1746 C1750 1.531 . S
C1747 C1746 1.369 . S
C1747 C1748 1.410 . S
C1747 C1755 1.503 . S
C1748 C1747 1.410 . S
C1748 C1749 1.392 . S
C1748 C1751 1.511 . S
C1749 C1745 1.376 . S
C1749 C1748 1.392 . S
C1749 H1761 0.929 . S
C1750 C1746 1.531 . S
C1750 H1762 0.960 . S
C1750 H1763 0.962 . S
C1750 H1764 0.960 . S
C1751 C1748 1.511 . S
C1751 H1765 0.961 . S
C1751 H1766 0.961 . S
C1751 H1767 0.961 . S
C1752 C1753 1.370 . S
C1752 C1754 1.363 . S
C1752 H1768 0.931 . S
C1753 C1752 1.370 . S
C1753 C1757 1.408 . S
C1754 C1752 1.363 . S
C1754 C1755 1.370 . S
C1754 C1758 1.524 . S
C1755 C1747 1.503 . S
C1755 C1754 1.370 . S
C1755 C1756 1.403 . S
C1756 C1755 1.403 . S
C1756 C1757 1.404 . S
C1756 C1759 1.539 . S
C1757 C1753 1.408 . S
C1757 C1756 1.404 . S
C1757 H1769 0.930 1_565 S
C1758 C1754 1.524 . S
C1758 H1770 0.956 . S
C1758 H1771 0.961 . S
C1758 H1772 0.961 . S
C1759 C1756 1.539 . S
C1759 H1773 0.958 . S
C1759 H1774 0.961 . S
C1759 H1775 0.960 . S
H1760 C1744 0.931 . S
H1761 C1749 0.929 . S
H1762 C1750 0.960 . S
H1763 C1750 0.962 . S
H1764 C1750 0.960 . S
H1765 C1751 0.961 . S
H1766 C1751 0.961 . S
H1767 C1751 0.961 . S
H1768 C1752 0.931 . S
H1769 C1757 0.930 1_545 S
H1770 C1758 0.956 . S
H1771 C1758 0.961 . S
H1772 C1758 0.961 . S
H1773 C1759 0.958 . S
H1774 C1759 0.961 . S
H1775 C1759 0.960 . S
C1776 C1777 1.391 . S
C1776 C1778 1.394 . S
C1776 H1792 0.931 . S
C1777 C1776 1.391 . S
C1777 C1781 1.376 . S
C1778 C1776 1.394 . S
C1778 C1779 1.369 . S
C1778 C1782 1.531 . S
C1779 C1778 1.369 . S
C1779 C1780 1.410 . S
C1779 C1787 1.503 . S
C1780 C1779 1.410 . S
C1780 C1781 1.392 . S
C1780 C1783 1.511 . S
C1781 C1777 1.376 . S
C1781 C1780 1.392 . S
C1781 H1793 0.929 . S
C1782 C1778 1.531 . S
C1782 H1794 0.960 . S
C1782 H1795 0.962 . S
C1782 H1796 0.960 . S
C1783 C1780 1.511 . S
C1783 H1797 0.961 . S
C1783 H1798 0.961 . S
C1783 H1799 0.961 . S
C1784 C1785 1.370 . S
C1784 C1786 1.363 . S
C1784 H1800 0.931 . S
C1785 C1784 1.370 . S
C1785 C1789 1.408 . S
C1786 C1784 1.363 . S
C1786 C1787 1.370 . S
C1786 C1790 1.524 . S
C1787 C1779 1.503 . S
C1787 C1786 1.370 . S
C1787 C1788 1.403 . S
C1788 C1787 1.403 . S
C1788 C1789 1.404 . S
C1788 C1791 1.539 . S
C1789 C1785 1.408 . S
C1789 C1788 1.404 . S
C1789 H1801 0.930 . S
C1790 C1786 1.524 . S
C1790 H1802 0.956 . S
C1790 H1803 0.961 . S
C1790 H1804 0.961 . S
C1791 C1788 1.539 . S
C1791 H1805 0.958 . S
C1791 H1806 0.961 . S
C1791 H1807 0.960 . S
H1792 C1776 0.931 . S
H1793 C1781 0.929 . S
H1794 C1782 0.960 . S
H1795 C1782 0.962 . S
H1796 C1782 0.960 . S
H1797 C1783 0.961 . S
H1798 C1783 0.961 . S
H1799 C1783 0.961 . S
H1800 C1784 0.931 . S
H1801 C1789 0.930 . S
H1802 C1790 0.956 . S
H1803 C1790 0.961 . S
H1804 C1790 0.961 . S
H1805 C1791 0.958 . S
H1806 C1791 0.961 . S
H1807 C1791 0.960 . S
C1808 C1809 1.391 . S
C1808 C1810 1.394 . S
C1808 H1824 0.931 . S
C1809 C1808 1.391 . S
C1809 C1813 1.376 . S
C1810 C1808 1.394 . S
C1810 C1811 1.369 . S
C1810 C1814 1.531 . S
C1811 C1810 1.369 . S
C1811 C1812 1.410 . S
C1811 C1819 1.503 . S
C1812 C1811 1.410 . S
C1812 C1813 1.392 . S
C1812 C1815 1.511 . S
C1813 C1809 1.376 . S
C1813 C1812 1.392 . S
C1813 H1825 0.929 . S
C1814 C1810 1.531 . S
C1814 H1826 0.960 . S
C1814 H1827 0.962 . S
C1814 H1828 0.960 . S
C1815 C1812 1.511 . S
C1815 H1829 0.961 . S
C1815 H1830 0.961 . S
C1815 H1831 0.961 . S
C1816 C1817 1.370 . S
C1816 C1818 1.363 . S
C1816 H1832 0.931 . S
C1817 C1816 1.370 . S
C1817 C1821 1.408 . S
C1818 C1816 1.363 . S
C1818 C1819 1.370 . S
C1818 C1822 1.524 . S
C1819 C1811 1.503 . S
C1819 C1818 1.370 . S
C1819 C1820 1.403 . S
C1820 C1819 1.403 . S
C1820 C1821 1.404 . S
C1820 C1823 1.539 . S
C1821 C1817 1.408 . S
C1821 C1820 1.404 . S
C1821 H1833 0.930 . S
C1822 C1818 1.524 . S
C1822 H1834 0.956 . S
C1822 H1835 0.961 . S
C1822 H1836 0.961 . S
C1823 C1820 1.539 . S
C1823 H1837 0.958 . S
C1823 H1838 0.961 . S
C1823 H1839 0.960 . S
H1824 C1808 0.931 . S
H1825 C1813 0.929 . S
H1826 C1814 0.960 . S
H1827 C1814 0.962 . S
H1828 C1814 0.960 . S
H1829 C1815 0.961 . S
H1830 C1815 0.961 . S
H1831 C1815 0.961 . S
H1832 C1816 0.931 . S
H1833 C1821 0.930 . S
H1834 C1822 0.956 . S
H1835 C1822 0.961 . S
H1836 C1822 0.961 . S
H1837 C1823 0.958 . S
H1838 C1823 0.961 . S
H1839 C1823 0.960 . S
C1840 C1841 1.391 . S
C1840 C1842 1.394 . S
C1840 H1856 0.931 . S
C1841 C1840 1.391 . S
C1841 C1845 1.376 . S
C1842 C1840 1.394 . S
C1842 C1843 1.369 . S
C1842 C1846 1.531 . S
C1843 C1842 1.369 . S
C1843 C1844 1.410 . S
C1843 C1851 1.503 . S
C1844 C1843 1.410 . S
C1844 C1845 1.392 . S
C1844 C1847 1.511 . S
C1845 C1841 1.376 . S
C1845 C1844 1.392 . S
C1845 H1857 0.929 . S
C1846 C1842 1.531 . S
C1846 H1858 0.960 . S
C1846 H1859 0.962 . S
C1846 H1860 0.960 . S
C1847 C1844 1.511 . S
C1847 H1861 0.961 . S
C1847 H1862 0.961 . S
C1847 H1863 0.961 . S
C1848 C1849 1.370 . S
C1848 C1850 1.363 . S
C1848 H1864 0.931 . S
C1849 C1848 1.370 . S
C1849 C1853 1.408 . S
C1850 C1848 1.363 . S
C1850 C1851 1.370 . S
C1850 C1854 1.524 . S
C1851 C1843 1.503 . S
C1851 C1850 1.370 . S
C1851 C1852 1.403 . S
C1852 C1851 1.403 . S
C1852 C1853 1.404 . S
C1852 C1855 1.539 . S
C1853 C1849 1.408 . S
C1853 C1852 1.404 . S
C1853 H1865 0.930 . S
C1854 C1850 1.524 . S
C1854 H1866 0.956 . S
C1854 H1867 0.961 . S
C1854 H1868 0.961 . S
C1855 C1852 1.539 . S
C1855 H1869 0.958 . S
C1855 H1870 0.961 . S
C1855 H1871 0.960 . S
H1856 C1840 0.931 . S
H1857 C1845 0.929 . S
H1858 C1846 0.960 . S
H1859 C1846 0.962 . S
H1860 C1846 0.960 . S
H1861 C1847 0.961 . S
H1862 C1847 0.961 . S
H1863 C1847 0.961 . S
H1864 C1848 0.931 . S
H1865 C1853 0.930 . S
H1866 C1854 0.956 . S
H1867 C1854 0.961 . S
H1868 C1854 0.961 . S
H1869 C1855 0.958 . S
H1870 C1855 0.961 . S
H1871 C1855 0.960 . S
C1872 C1873 1.391 . S
C1872 C1874 1.394 . S
C1872 H1888 0.931 . S
C1873 C1872 1.391 . S
C1873 C1877 1.376 . S
C1874 C1872 1.394 . S
C1874 C1875 1.369 . S
C1874 C1878 1.531 . S
C1875 C1874 1.369 . S
C1875 C1876 1.410 . S
C1875 C1883 1.503 . S
C1876 C1875 1.410 . S
C1876 C1877 1.392 . S
C1876 C1879 1.511 . S
C1877 C1873 1.376 . S
C1877 C1876 1.392 . S
C1877 H1889 0.929 . S
C1878 C1874 1.531 . S
C1878 H1890 0.960 . S
C1878 H1891 0.962 . S
C1878 H1892 0.960 . S
C1879 C1876 1.511 . S
C1879 H1893 0.961 1_455 S
C1879 H1894 0.961 . S
C1879 H1895 0.961 1_455 S
C1880 C1881 1.370 . S
C1880 C1882 1.363 . S
C1880 H1896 0.931 . S
C1881 C1880 1.370 . S
C1881 C1885 1.408 . S
C1882 C1880 1.363 . S
C1882 C1883 1.370 . S
C1882 C1886 1.524 . S
C1883 C1875 1.503 . S
C1883 C1882 1.370 . S
C1883 C1884 1.403 . S
C1884 C1883 1.403 . S
C1884 C1885 1.404 . S
C1884 C1887 1.539 . S
C1885 C1881 1.408 . S
C1885 C1884 1.404 . S
C1885 H1897 0.930 . S
C1886 C1882 1.524 . S
C1886 H1898 0.956 . S
C1886 H1899 0.961 . S
C1886 H1900 0.961 . S
C1887 C1884 1.539 . S
C1887 H1901 0.958 . S
C1887 H1902 0.961 . S
C1887 H1903 0.960 . S
H1888 C1872 0.931 . S
H1889 C1877 0.929 . S
H1890 C1878 0.960 . S
H1891 C1878 0.962 . S
H1892 C1878 0.960 . S
H1893 C1879 0.961 1_655 S
H1894 C1879 0.961 . S
H1895 C1879 0.961 1_655 S
H1896 C1880 0.931 . S
H1897 C1885 0.930 . S
H1898 C1886 0.956 . S
H1899 C1886 0.961 . S
H1900 C1886 0.961 . S
H1901 C1887 0.958 . S
H1902 C1887 0.961 . S
H1903 C1887 0.960 . S
C1904 C1905 1.391 . S
C1904 C1906 1.394 . S
C1904 H1920 0.931 . S
C1905 C1904 1.391 . S
C1905 C1909 1.376 . S
C1906 C1904 1.394 . S
C1906 C1907 1.369 . S
C1906 C1910 1.531 . S
C1907 C1906 1.369 . S
C1907 C1908 1.410 . S
C1907 C1915 1.503 . S
C1908 C1907 1.410 . S
C1908 C1909 1.392 . S
C1908 C1911 1.511 . S
C1909 C1905 1.376 . S
C1909 C1908 1.392 . S
C1909 H1921 0.929 . S
C1910 C1906 1.531 . S
C1910 H1922 0.960 . S
C1910 H1923 0.962 . S
C1910 H1924 0.960 . S
C1911 C1908 1.511 . S
C1911 H1925 0.961 . S
C1911 H1926 0.961 . S
C1911 H1927 0.961 . S
C1912 C1913 1.370 . S
C1912 C1914 1.363 . S
C1912 H1928 0.931 . S
C1913 C1912 1.370 . S
C1913 C1917 1.408 . S
C1914 C1912 1.363 . S
C1914 C1915 1.370 . S
C1914 C1918 1.524 . S
C1915 C1907 1.503 . S
C1915 C1914 1.370 . S
C1915 C1916 1.403 . S
C1916 C1915 1.403 . S
C1916 C1917 1.404 . S
C1916 C1919 1.539 . S
C1917 C1913 1.408 . S
C1917 C1916 1.404 . S
C1917 H1929 0.930 . S
C1918 C1914 1.524 . S
C1918 H1930 0.956 . S
C1918 H1931 0.961 . S
C1918 H1932 0.961 . S
C1919 C1916 1.539 . S
C1919 H1933 0.958 . S
C1919 H1934 0.961 . S
C1919 H1935 0.960 . S
H1920 C1904 0.931 . S
H1921 C1909 0.929 . S
H1922 C1910 0.960 . S
H1923 C1910 0.962 . S
H1924 C1910 0.960 . S
H1925 C1911 0.961 . S
H1926 C1911 0.961 . S
H1927 C1911 0.961 . S
H1928 C1912 0.931 . S
H1929 C1917 0.930 . S
H1930 C1918 0.956 . S
H1931 C1918 0.961 . S
H1932 C1918 0.961 . S
H1933 C1919 0.958 . S
H1934 C1919 0.961 . S
H1935 C1919 0.960 . S
C1936 C1937 1.391 . S
C1936 C1938 1.394 . S
C1936 H1952 0.931 . S
C1937 C1936 1.391 . S
C1937 C1941 1.376 . S
C1938 C1936 1.394 . S
C1938 C1939 1.369 . S
C1938 C1942 1.531 . S
C1939 C1938 1.369 . S
C1939 C1940 1.410 . S
C1939 C1947 1.503 . S
C1940 C1939 1.410 . S
C1940 C1941 1.392 . S
C1940 C1943 1.511 . S
C1941 C1937 1.376 . S
C1941 C1940 1.392 . S
C1941 H1953 0.929 . S
C1942 C1938 1.531 . S
C1942 H1954 0.960 . S
C1942 H1955 0.962 . S
C1942 H1956 0.960 . S
C1943 C1940 1.511 . S
C1943 H1957 0.961 . S
C1943 H1958 0.961 . S
C1943 H1959 0.961 . S
C1944 C1945 1.370 . S
C1944 C1946 1.363 . S
C1944 H1960 0.931 . S
C1945 C1944 1.370 . S
C1945 C1949 1.408 . S
C1946 C1944 1.363 . S
C1946 C1947 1.370 . S
C1946 C1950 1.524 . S
C1947 C1939 1.503 . S
C1947 C1946 1.370 . S
C1947 C1948 1.403 . S
C1948 C1947 1.403 . S
C1948 C1949 1.404 . S
C1948 C1951 1.539 . S
C1949 C1945 1.408 . S
C1949 C1948 1.404 . S
C1949 H1961 0.930 . S
C1950 C1946 1.524 . S
C1950 H1962 0.956 . S
C1950 H1963 0.961 . S
C1950 H1964 0.961 . S
C1951 C1948 1.539 . S
C1951 H1965 0.958 . S
C1951 H1966 0.961 . S
C1951 H1967 0.960 . S
H1952 C1936 0.931 . S
H1953 C1941 0.929 . S
H1954 C1942 0.960 . S
H1955 C1942 0.962 . S
H1956 C1942 0.960 . S
H1957 C1943 0.961 . S
H1958 C1943 0.961 . S
H1959 C1943 0.961 . S
H1960 C1944 0.931 . S
H1961 C1949 0.930 . S
H1962 C1950 0.956 . S
H1963 C1950 0.961 . S
H1964 C1950 0.961 . S
H1965 C1951 0.958 . S
H1966 C1951 0.961 . S
H1967 C1951 0.960 . S
C1968 C1969 1.391 . S
C1968 C1970 1.394 . S
C1968 H1984 0.931 . S
C1969 C1968 1.391 . S
C1969 C1973 1.376 . S
C1970 C1968 1.394 . S
C1970 C1971 1.369 . S
C1970 C1974 1.531 . S
C1971 C1970 1.369 . S
C1971 C1972 1.410 . S
C1971 C1979 1.503 . S
C1972 C1971 1.410 . S
C1972 C1973 1.392 . S
C1972 C1975 1.511 . S
C1973 C1969 1.376 . S
C1973 C1972 1.392 . S
C1973 H1985 0.972 . S
C1974 C1970 1.531 . S
C1974 H1986 0.960 . S
C1974 H1987 0.962 . S
C1974 H1988 0.960 . S
C1975 C1972 1.511 . S
C1975 H1989 0.961 . S
C1975 H1990 0.961 . S
C1975 H1991 0.961 . S
C1976 C1977 1.370 . S
C1976 C1978 1.363 . S
C1976 H1992 0.931 . S
C1977 C1976 1.370 . S
C1977 C1981 1.408 . S
C1978 C1976 1.363 . S
C1978 C1979 1.370 . S
C1978 C1982 1.524 . S
C1979 C1971 1.503 . S
C1979 C1978 1.370 . S
C1979 C1980 1.403 . S
C1980 C1979 1.403 . S
C1980 C1981 1.404 . S
C1980 C1983 1.539 . S
C1981 C1977 1.408 . S
C1981 C1980 1.404 . S
C1981 H1993 0.930 . S
C1982 C1978 1.524 . S
C1982 H1994 0.956 . S
C1982 H1995 0.961 . S
C1982 H1996 0.961 . S
C1983 C1980 1.539 . S
C1983 H1997 0.958 . S
C1983 H1998 0.961 . S
C1983 H1999 0.960 . S
H1984 C1968 0.931 . S
H1985 C1973 0.972 . S
H1986 C1974 0.960 . S
H1987 C1974 0.962 . S
H1988 C1974 0.960 . S
H1989 C1975 0.961 . S
H1990 C1975 0.961 . S
H1991 C1975 0.961 . S
H1992 C1976 0.931 . S
H1993 C1981 0.930 . S
H1994 C1982 0.956 . S
H1995 C1982 0.961 . S
H1996 C1982 0.961 . S
H1997 C1983 0.958 . S
H1998 C1983 0.961 . S
H1999 C1983 0.960 . S
C2000 C2001 1.391 . S
C2000 C2002 1.394 . S
C2000 H2016 0.931 . S
C2001 C2000 1.391 . S
C2001 C2005 1.376 . S
C2002 C2000 1.394 . S
C2002 C2003 1.369 . S
C2002 C2006 1.531 . S
C2003 C2002 1.369 . S
C2003 C2004 1.410 . S
C2003 C2011 1.503 . S
C2004 C2003 1.410 . S
C2004 C2005 1.392 . S
C2004 C2007 1.511 . S
C2005 C2001 1.376 . S
C2005 C2004 1.392 . S
C2005 H2017 0.929 . S
C2006 C2002 1.531 . S
C2006 H2018 0.960 . S
C2006 H2019 0.962 . S
C2006 H2020 0.960 . S
C2007 C2004 1.511 . S
C2007 H2021 0.961 . S
C2007 H2022 0.961 . S
C2007 H2023 0.961 . S
C2008 C2009 1.370 . S
C2008 C2010 1.363 . S
C2008 H2024 0.931 . S
C2009 C2008 1.370 . S
C2009 C2013 1.408 . S
C2010 C2008 1.363 . S
C2010 C2011 1.370 . S
C2010 C2014 1.524 . S
C2011 C2003 1.503 . S
C2011 C2010 1.370 . S
C2011 C2012 1.403 . S
C2012 C2011 1.403 . S
C2012 C2013 1.404 . S
C2012 C2015 1.539 . S
C2013 C2009 1.408 . S
C2013 C2012 1.404 . S
C2013 H2025 0.930 . S
C2014 C2010 1.524 . S
C2014 H2026 0.956 . S
C2014 H2027 0.961 . S
C2014 H2028 0.961 . S
C2015 C2012 1.539 . S
C2015 H2029 0.958 . S
C2015 H2030 0.961 . S
C2015 H2031 0.960 . S
H2016 C2000 0.931 . S
H2017 C2005 0.929 . S
H2018 C2006 0.960 . S
H2019 C2006 0.962 . S
H2020 C2006 0.960 . S
H2021 C2007 0.961 . S
H2022 C2007 0.961 . S
H2023 C2007 0.961 . S
H2024 C2008 0.931 . S
H2025 C2013 0.930 . S
H2026 C2014 0.956 . S
H2027 C2014 0.961 . S
H2028 C2014 0.961 . S
H2029 C2015 0.958 . S
H2030 C2015 0.961 . S
H2031 C2015 0.960 . S
C2032 C2033 1.391 . S
C2032 C2034 1.394 . S
C2032 H2048 0.931 . S
C2033 C2032 1.391 . S
C2033 C2037 1.376 . S
C2034 C2032 1.394 . S
C2034 C2035 1.369 . S
C2034 C2038 1.531 . S
C2035 C2034 1.369 . S
C2035 C2036 1.410 . S
C2035 C2043 1.503 . S
C2036 C2035 1.410 . S
C2036 C2037 1.392 . S
C2036 C2039 1.511 . S
C2037 C2033 1.376 . S
C2037 C2036 1.392 . S
C2037 H2049 0.929 . S
C2038 C2034 1.531 . S
C2038 H2050 0.960 . S
C2038 H2051 0.962 . S
C2038 H2052 0.960 . S
C2039 C2036 1.511 . S
C2039 H2053 0.961 1_554 S
C2039 H2054 0.961 . S
C2039 H2055 0.961 1_554 S
C2040 C2041 1.370 . S
C2040 C2042 1.363 . S
C2040 H2056 0.963 . S
C2041 C2040 1.370 . S
C2041 C2045 1.408 . S
C2042 C2040 1.363 . S
C2042 C2043 1.370 . S
C2042 C2046 1.524 . S
C2043 C2035 1.503 . S
C2043 C2042 1.370 . S
C2043 C2044 1.403 . S
C2044 C2043 1.403 . S
C2044 C2045 1.404 . S
C2044 C2047 1.539 . S
C2045 C2041 1.408 . S
C2045 C2044 1.404 . S
C2045 H2057 0.930 . S
C2046 C2042 1.524 . S
C2046 H2058 0.956 . S
C2046 H2059 0.961 . S
C2046 H2060 0.961 . S
C2047 C2044 1.539 . S
C2047 H2061 0.958 . S
C2047 H2062 0.961 . S
C2047 H2063 0.960 . S
H2048 C2032 0.931 . S
H2049 C2037 0.929 . S
H2050 C2038 0.960 . S
H2051 C2038 0.962 . S
H2052 C2038 0.960 . S
H2053 C2039 0.961 1_556 S
H2054 C2039 0.961 . S
H2055 C2039 0.961 1_556 S
H2056 C2040 0.963 . S
H2057 C2045 0.930 . S
H2058 C2046 0.956 . S
H2059 C2046 0.961 . S
H2060 C2046 0.961 . S
H2061 C2047 0.958 . S
H2062 C2047 0.961 . S
H2063 C2047 0.960 . S
C2064 C2065 1.391 . S
C2064 C2066 1.394 . S
C2064 H2080 0.931 . S
C2065 C2064 1.391 . S
C2065 C2069 1.376 . S
C2066 C2064 1.394 . S
C2066 C2067 1.369 . S
C2066 C2070 1.531 . S
C2067 C2066 1.369 . S
C2067 C2068 1.410 . S
C2067 C2075 1.503 . S
C2068 C2067 1.410 . S
C2068 C2069 1.392 . S
C2068 C2071 1.511 . S
C2069 C2065 1.376 . S
C2069 C2068 1.392 . S
C2069 H2081 0.929 . S
C2070 C2066 1.531 . S
C2070 H2082 0.960 . S
C2070 H2083 0.962 . S
C2070 H2084 0.960 . S
C2071 C2068 1.511 . S
C2071 H2085 0.961 . S
C2071 H2086 0.961 . S
C2071 H2087 0.961 . S
C2072 C2073 1.370 . S
C2072 C2074 1.363 . S
C2072 H2088 0.931 . S
C2073 C2072 1.370 . S
C2073 C2077 1.408 . S
C2074 C2072 1.363 . S
C2074 C2075 1.370 . S
C2074 C2078 1.524 . S
C2075 C2067 1.503 . S
C2075 C2074 1.370 . S
C2075 C2076 1.403 . S
C2076 C2075 1.403 . S
C2076 C2077 1.404 . S
C2076 C2079 1.539 . S
C2077 C2073 1.408 . S
C2077 C2076 1.404 . S
C2077 H2089 0.930 . S
C2078 C2074 1.524 . S
C2078 H2090 0.956 . S
C2078 H2091 0.961 . S
C2078 H2092 0.961 . S
C2079 C2076 1.539 . S
C2079 H2093 0.958 . S
C2079 H2094 0.961 . S
C2079 H2095 0.960 . S
H2080 C2064 0.931 . S
H2081 C2069 0.929 . S
H2082 C2070 0.960 . S
H2083 C2070 0.962 . S
H2084 C2070 0.960 . S
H2085 C2071 0.961 . S
H2086 C2071 0.961 . S
H2087 C2071 0.961 . S
H2088 C2072 0.931 . S
H2089 C2077 0.930 . S
H2090 C2078 0.956 . S
H2091 C2078 0.961 . S
H2092 C2078 0.961 . S
H2093 C2079 0.958 . S
H2094 C2079 0.961 . S
H2095 C2079 0.960 . S
C2096 C2097 1.391 . S
C2096 C2098 1.394 . S
C2096 H2112 0.931 . S
C2097 C2096 1.391 . S
C2097 C2101 1.376 . S
C2098 C2096 1.394 . S
C2098 C2099 1.369 . S
C2098 C2102 1.531 . S
C2099 C2098 1.369 . S
C2099 C2100 1.410 . S
C2099 C2107 1.503 . S
C2100 C2099 1.410 . S
C2100 C2101 1.392 . S
C2100 C2103 1.511 . S
C2101 C2097 1.376 . S
C2101 C2100 1.392 . S
C2101 H2113 0.929 . S
C2102 C2098 1.531 . S
C2102 H2114 0.960 . S
C2102 H2115 0.962 . S
C2102 H2116 0.960 . S
C2103 C2100 1.511 . S
C2103 H2117 0.961 . S
C2103 H2118 0.961 . S
C2103 H2119 0.961 . S
C2104 C2105 1.370 . S
C2104 C2106 1.363 . S
C2104 H2120 0.931 . S
C2105 C2104 1.370 . S
C2105 C2109 1.408 . S
C2106 C2104 1.363 . S
C2106 C2107 1.370 . S
C2106 C2110 1.524 . S
C2107 C2099 1.503 . S
C2107 C2106 1.370 . S
C2107 C2108 1.403 . S
C2108 C2107 1.403 . S
C2108 C2109 1.404 . S
C2108 C2111 1.539 . S
C2109 C2105 1.408 . S
C2109 C2108 1.404 . S
C2109 H2121 0.930 . S
C2110 C2106 1.524 . S
C2110 H2122 0.956 . S
C2110 H2123 0.961 . S
C2110 H2124 0.961 . S
C2111 C2108 1.539 . S
C2111 H2125 0.958 . S
C2111 H2126 0.961 . S
C2111 H2127 0.960 . S
H2112 C2096 0.931 . S
H2113 C2101 0.929 . S
H2114 C2102 0.960 . S
H2115 C2102 0.962 . S
H2116 C2102 0.960 . S
H2117 C2103 0.961 . S
H2118 C2103 0.961 . S
H2119 C2103 0.961 . S
H2120 C2104 0.931 . S
H2121 C2109 0.930 . S
H2122 C2110 0.956 . S
H2123 C2110 0.961 . S
H2124 C2110 0.961 . S
H2125 C2111 0.958 . S
H2126 C2111 0.961 . S
H2127 C2111 0.960 . S
C2128 C2129 1.391 . S
C2128 C2130 1.394 . S
C2128 H2144 0.931 . S
C2129 C2128 1.391 . S
C2129 C2133 1.376 . S
C2130 C2128 1.394 . S
C2130 C2131 1.369 . S
C2130 C2134 1.531 . S
C2131 C2130 1.369 . S
C2131 C2132 1.410 . S
C2131 C2139 1.503 . S
C2132 C2131 1.410 . S
C2132 C2133 1.392 . S
C2132 C2135 1.511 . S
C2133 C2129 1.376 . S
C2133 C2132 1.392 . S
C2133 H2145 0.929 . S
C2134 C2130 1.531 . S
C2134 H2146 0.960 . S
C2134 H2147 0.962 . S
C2134 H2148 0.960 . S
C2135 C2132 1.511 . S
C2135 H2149 0.961 . S
C2135 H2150 0.961 . S
C2135 H2151 0.961 . S
C2136 C2137 1.370 . S
C2136 C2138 1.363 . S
C2136 H2152 0.931 . S
C2137 C2136 1.370 . S
C2137 C2141 1.408 . S
C2138 C2136 1.363 . S
C2138 C2139 1.370 . S
C2138 C2142 1.524 . S
C2139 C2131 1.503 . S
C2139 C2138 1.370 . S
C2139 C2140 1.403 . S
C2140 C2139 1.403 . S
C2140 C2141 1.404 . S
C2140 C2143 1.539 . S
C2141 C2137 1.408 . S
C2141 C2140 1.404 . S
C2141 H2153 0.930 . S
C2142 C2138 1.524 . S
C2142 H2154 0.956 . S
C2142 H2155 0.961 . S
C2142 H2156 0.961 . S
C2143 C2140 1.539 . S
C2143 H2157 0.958 1_556 S
C2143 H2158 0.961 . S
C2143 H2159 0.960 . S
H2144 C2128 0.931 . S
H2145 C2133 0.929 . S
H2146 C2134 0.960 . S
H2147 C2134 0.962 . S
H2148 C2134 0.960 . S
H2149 C2135 0.961 . S
H2150 C2135 0.961 . S
H2151 C2135 0.961 . S
H2152 C2136 0.931 . S
H2153 C2141 0.930 . S
H2154 C2142 0.956 . S
H2155 C2142 0.961 . S
H2156 C2142 0.961 . S
H2157 C2143 0.958 1_554 S
H2158 C2143 0.961 . S
H2159 C2143 0.960 . S
C2160 C2161 1.391 . S
C2160 C2162 1.394 . S
C2160 H2176 0.931 . S
C2161 C2160 1.391 . S
C2161 C2165 1.376 . S
C2162 C2160 1.394 . S
C2162 C2163 1.369 . S
C2162 C2166 1.531 . S
C2163 C2162 1.369 . S
C2163 C2164 1.410 . S
C2163 C2171 1.503 . S
C2164 C2163 1.410 . S
C2164 C2165 1.392 . S
C2164 C2167 1.511 . S
C2165 C2161 1.376 . S
C2165 C2164 1.392 . S
C2165 H2177 0.929 . S
C2166 C2162 1.531 . S
C2166 H2178 0.960 . S
C2166 H2179 0.962 . S
C2166 H2180 0.960 . S
C2167 C2164 1.511 . S
C2167 H2181 0.961 . S
C2167 H2182 0.961 . S
C2167 H2183 0.961 . S
C2168 C2169 1.370 . S
C2168 C2170 1.363 . S
C2168 H2184 0.931 . S
C2169 C2168 1.370 . S
C2169 C2173 1.408 . S
C2170 C2168 1.363 . S
C2170 C2171 1.370 . S
C2170 C2174 1.524 . S
C2171 C2163 1.503 . S
C2171 C2170 1.370 . S
C2171 C2172 1.403 . S
C2172 C2171 1.403 . S
C2172 C2173 1.404 . S
C2172 C2175 1.539 . S
C2173 C2169 1.408 . S
C2173 C2172 1.404 . S
C2173 H2185 0.930 . S
C2174 C2170 1.524 . S
C2174 H2186 0.956 . S
C2174 H2187 0.961 . S
C2174 H2188 0.961 . S
C2175 C2172 1.539 . S
C2175 H2189 0.958 . S
C2175 H2190 0.961 . S
C2175 H2191 0.960 . S
H2176 C2160 0.931 . S
H2177 C2165 0.929 . S
H2178 C2166 0.960 . S
H2179 C2166 0.962 . S
H2180 C2166 0.960 . S
H2181 C2167 0.961 . S
H2182 C2167 0.961 . S
H2183 C2167 0.961 . S
H2184 C2168 0.931 . S
H2185 C2173 0.930 . S
H2186 C2174 0.956 . S
H2187 C2174 0.961 . S
H2188 C2174 0.961 . S
H2189 C2175 0.958 . S
H2190 C2175 0.961 . S
H2191 C2175 0.960 . S
C2192 C2193 1.391 . S
C2192 C2194 1.394 . S
C2192 H2208 0.931 . S
C2193 C2192 1.391 . S
C2193 C2197 1.376 . S
C2194 C2192 1.394 . S
C2194 C2195 1.369 . S
C2194 C2198 1.531 . S
C2195 C2194 1.369 . S
C2195 C2196 1.410 . S
C2195 C2203 1.503 . S
C2196 C2195 1.410 . S
C2196 C2197 1.392 . S
C2196 C2199 1.511 . S
C2197 C2193 1.376 . S
C2197 C2196 1.392 . S
C2197 H2209 0.929 . S
C2198 C2194 1.531 . S
C2198 H2210 0.960 . S
C2198 H2211 0.962 . S
C2198 H2212 0.960 . S
C2199 C2196 1.511 . S
C2199 H2213 0.961 . S
C2199 H2214 0.961 . S
C2199 H2215 0.961 . S
C2200 C2201 1.370 . S
C2200 C2202 1.363 . S
C2200 H2216 0.931 . S
C2201 C2200 1.370 . S
C2201 C2205 1.408 . S
C2202 C2200 1.363 . S
C2202 C2203 1.370 . S
C2202 C2206 1.524 . S
C2203 C2195 1.503 . S
C2203 C2202 1.370 . S
C2203 C2204 1.403 . S
C2204 C2203 1.403 . S
C2204 C2205 1.404 . S
C2204 C2207 1.539 . S
C2205 C2201 1.408 . S
C2205 C2204 1.404 . S
C2205 H2217 0.930 . S
C2206 C2202 1.524 . S
C2206 H2218 0.956 . S
C2206 H2219 0.961 . S
C2206 H2220 0.961 . S
C2207 C2204 1.539 . S
C2207 H2221 0.958 . S
C2207 H2222 0.961 . S
C2207 H2223 0.960 . S
H2208 C2192 0.931 . S
H2209 C2197 0.929 . S
H2210 C2198 0.960 . S
H2211 C2198 0.962 . S
H2212 C2198 0.960 . S
H2213 C2199 0.961 . S
H2214 C2199 0.961 . S
H2215 C2199 0.961 . S
H2216 C2200 0.931 . S
H2217 C2205 0.930 . S
H2218 C2206 0.956 . S
H2219 C2206 0.961 . S
H2220 C2206 0.961 . S
H2221 C2207 0.958 . S
H2222 C2207 0.961 . S
H2223 C2207 0.960 . S
C2224 C2225 1.391 . S
C2224 C2226 1.394 . S
C2224 H2240 0.931 . S
C2225 C2224 1.391 . S
C2225 C2229 1.376 . S
C2226 C2224 1.394 . S
C2226 C2227 1.369 . S
C2226 C2230 1.531 . S
C2227 C2226 1.369 . S
C2227 C2228 1.410 . S
C2227 C2235 1.503 . S
C2228 C2227 1.410 . S
C2228 C2229 1.392 . S
C2228 C2231 1.511 . S
C2229 C2225 1.376 . S
C2229 C2228 1.392 . S
C2229 H2241 0.929 . S
C2230 C2226 1.531 . S
C2230 H2242 0.960 . S
C2230 H2243 0.962 . S
C2230 H2244 0.960 . S
C2231 C2228 1.511 . S
C2231 H2245 0.961 . S
C2231 H2246 0.961 . S
C2231 H2247 0.961 . S
C2232 C2233 1.370 . S
C2232 C2234 1.363 . S
C2232 H2248 0.931 . S
C2233 C2232 1.370 . S
C2233 C2237 1.408 . S
C2234 C2232 1.363 . S
C2234 C2235 1.370 . S
C2234 C2238 1.524 . S
C2235 C2227 1.503 . S
C2235 C2234 1.370 . S
C2235 C2236 1.403 . S
C2236 C2235 1.403 . S
C2236 C2237 1.404 . S
C2236 C2239 1.539 . S
C2237 C2233 1.408 . S
C2237 C2236 1.404 . S
C2237 H2249 0.930 . S
C2238 C2234 1.524 . S
C2238 H2250 0.956 . S
C2238 H2251 0.961 . S
C2238 H2252 0.961 . S
C2239 C2236 1.539 . S
C2239 H2253 0.958 . S
C2239 H2254 0.961 . S
C2239 H2255 0.960 . S
H2240 C2224 0.931 . S
H2241 C2229 0.929 . S
H2242 C2230 0.960 . S
H2243 C2230 0.962 . S
H2244 C2230 0.960 . S
H2245 C2231 0.961 . S
H2246 C2231 0.961 . S
H2247 C2231 0.961 . S
H2248 C2232 0.931 . S
H2249 C2237 0.930 . S
H2250 C2238 0.956 . S
H2251 C2238 0.961 . S
H2252 C2238 0.961 . S
H2253 C2239 0.958 . S
H2254 C2239 0.961 . S
H2255 C2239 0.960 . S
C2256 C2257 1.391 . S
C2256 C2258 1.394 . S
C2256 H2272 0.931 1_455 S
C2257 C2256 1.391 . S
C2257 C2261 1.376 . S
C2258 C2256 1.394 . S
C2258 C2259 1.369 . S
C2258 C2262 1.531 . S
C2259 C2258 1.369 . S
C2259 C2260 1.410 . S
C2259 C2267 1.503 . S
C2260 C2259 1.410 . S
C2260 C2261 1.392 . S
C2260 C2263 1.511 . S
C2261 C2257 1.376 . S
C2261 C2260 1.392 . S
C2261 H2273 0.929 . S
C2262 C2258 1.531 . S
C2262 H2274 0.960 . S
C2262 H2275 0.962 . S
C2262 H2276 0.960 . S
C2263 C2260 1.511 . S
C2263 H2277 0.961 . S
C2263 H2278 0.961 . S
C2263 H2279 0.961 . S
C2264 C2265 1.370 . S
C2264 C2266 1.363 . S
C2264 H2280 0.931 . S
C2265 C2264 1.370 . S
C2265 C2269 1.408 . S
C2266 C2264 1.363 . S
C2266 C2267 1.370 . S
C2266 C2270 1.524 . S
C2267 C2259 1.503 . S
C2267 C2266 1.370 . S
C2267 C2268 1.403 . S
C2268 C2267 1.403 . S
C2268 C2269 1.404 . S
C2268 C2271 1.539 . S
C2269 C2265 1.408 . S
C2269 C2268 1.404 . S
C2269 H2281 0.930 . S
C2270 C2266 1.524 . S
C2270 H2282 0.956 . S
C2270 H2283 0.961 . S
C2270 H2284 0.961 . S
C2271 C2268 1.539 . S
C2271 H2285 0.958 . S
C2271 H2286 0.961 . S
C2271 H2287 0.960 . S
H2272 C2256 0.931 1_655 S
H2273 C2261 0.929 . S
H2274 C2262 0.960 . S
H2275 C2262 0.962 . S
H2276 C2262 0.960 . S
H2277 C2263 0.961 . S
H2278 C2263 0.961 . S
H2279 C2263 0.961 . S
H2280 C2264 0.931 . S
H2281 C2269 0.930 . S
H2282 C2270 0.956 . S
H2283 C2270 0.961 . S
H2284 C2270 0.961 . S
H2285 C2271 0.958 . S
H2286 C2271 0.961 . S
H2287 C2271 0.960 . S
C2288 C2289 1.391 . S
C2288 C2290 1.394 . S
C2288 H2304 0.931 . S
C2289 C2288 1.391 . S
C2289 C2293 1.376 . S
C2290 C2288 1.394 . S
C2290 C2291 1.369 . S
C2290 C2294 1.531 . S
C2291 C2290 1.369 . S
C2291 C2292 1.410 . S
C2291 C2299 1.503 . S
C2292 C2291 1.410 . S
C2292 C2293 1.392 . S
C2292 C2295 1.511 . S
C2293 C2289 1.376 . S
C2293 C2292 1.392 . S
C2293 H2305 0.929 . S
C2294 C2290 1.531 . S
C2294 H2306 0.960 . S
C2294 H2307 0.962 . S
C2294 H2308 0.960 . S
C2295 C2292 1.511 . S
C2295 H2309 0.961 . S
C2295 H2310 0.961 . S
C2295 H2311 0.961 . S
C2296 C2297 1.370 . S
C2296 C2298 1.363 . S
C2296 H2312 0.931 . S
C2297 C2296 1.370 . S
C2297 C2301 1.408 . S
C2298 C2296 1.363 . S
C2298 C2299 1.370 . S
C2298 C2302 1.524 . S
C2299 C2291 1.503 . S
C2299 C2298 1.370 . S
C2299 C2300 1.403 . S
C2300 C2299 1.403 . S
C2300 C2301 1.404 . S
C2300 C2303 1.539 . S
C2301 C2297 1.408 . S
C2301 C2300 1.404 . S
C2301 H2313 0.930 . S
C2302 C2298 1.524 . S
C2302 H2314 0.956 . S
C2302 H2315 0.961 . S
C2302 H2316 0.961 . S
C2303 C2300 1.539 . S
C2303 H2317 0.958 . S
C2303 H2318 0.961 . S
C2303 H2319 0.960 . S
H2304 C2288 0.931 . S
H2305 C2293 0.929 . S
H2306 C2294 0.960 . S
H2307 C2294 0.962 . S
H2308 C2294 0.960 . S
H2309 C2295 0.961 . S
H2310 C2295 0.961 . S
H2311 C2295 0.961 . S
H2312 C2296 0.931 . S
H2313 C2301 0.930 . S
H2314 C2302 0.956 . S
H2315 C2302 0.961 . S
H2316 C2302 0.961 . S
H2317 C2303 0.958 . S
H2318 C2303 0.961 . S
H2319 C2303 0.960 . S
C2320 C2321 1.391 . S
C2320 C2322 1.394 . S
C2320 H2336 0.931 . S
C2321 C2320 1.391 . S
C2321 C2325 1.376 . S
C2322 C2320 1.394 . S
C2322 C2323 1.369 . S
C2322 C2326 1.531 . S
C2323 C2322 1.369 . S
C2323 C2324 1.410 . S
C2323 C2331 1.503 . S
C2324 C2323 1.410 . S
C2324 C2325 1.392 . S
C2324 C2327 1.511 . S
C2325 C2321 1.376 . S
C2325 C2324 1.392 . S
C2325 H2337 0.929 . S
C2326 C2322 1.531 . S
C2326 H2338 0.960 . S
C2326 H2339 0.962 . S
C2326 H2340 0.960 . S
C2327 C2324 1.511 . S
C2327 H2341 0.961 . S
C2327 H2342 0.961 . S
C2327 H2343 0.961 . S
C2328 C2329 1.370 . S
C2328 C2330 1.363 . S
C2328 H2344 0.931 . S
C2329 C2328 1.370 . S
C2329 C2333 1.408 . S
C2330 C2328 1.363 . S
C2330 C2331 1.370 . S
C2330 C2334 1.524 . S
C2331 C2323 1.503 . S
C2331 C2330 1.370 . S
C2331 C2332 1.403 . S
C2332 C2331 1.403 . S
C2332 C2333 1.404 . S
C2332 C2335 1.539 . S
C2333 C2329 1.408 . S
C2333 C2332 1.404 . S
C2333 H2345 0.930 1_455 S
C2334 C2330 1.524 . S
C2334 H2346 0.956 . S
C2334 H2347 0.961 . S
C2334 H2348 0.961 . S
C2335 C2332 1.539 . S
C2335 H2349 0.958 . S
C2335 H2350 0.961 . S
C2335 H2351 0.960 . S
H2336 C2320 0.931 . S
H2337 C2325 0.929 . S
H2338 C2326 0.960 . S
H2339 C2326 0.962 . S
H2340 C2326 0.960 . S
H2341 C2327 0.961 . S
H2342 C2327 0.961 . S
H2343 C2327 0.961 . S
H2344 C2328 0.931 . S
H2345 C2333 0.930 1_655 S
H2346 C2334 0.956 . S
H2347 C2334 0.961 . S
H2348 C2334 0.961 . S
H2349 C2335 0.958 . S
H2350 C2335 0.961 . S
H2351 C2335 0.960 . S
C2352 C2353 1.391 . S
C2352 C2354 1.394 . S
C2352 H2368 0.931 . S
C2353 C2352 1.391 . S
C2353 C2357 1.376 . S
C2354 C2352 1.394 . S
C2354 C2355 1.369 . S
C2354 C2358 1.531 . S
C2355 C2354 1.369 . S
C2355 C2356 1.410 . S
C2355 C2363 1.503 . S
C2356 C2355 1.410 . S
C2356 C2357 1.392 . S
C2356 C2359 1.511 . S
C2357 C2353 1.376 . S
C2357 C2356 1.392 . S
C2357 H2369 0.929 . S
C2358 C2354 1.531 . S
C2358 H2370 0.960 . S
C2358 H2371 0.962 . S
C2358 H2372 0.960 . S
C2359 C2356 1.511 . S
C2359 H2373 0.961 . S
C2359 H2374 0.961 . S
C2359 H2375 0.961 . S
C2360 C2361 1.370 . S
C2360 C2362 1.363 . S
C2360 H2376 0.931 . S
C2361 C2360 1.370 . S
C2361 C2365 1.408 . S
C2362 C2360 1.363 . S
C2362 C2363 1.370 . S
C2362 C2366 1.524 . S
C2363 C2355 1.503 . S
C2363 C2362 1.370 . S
C2363 C2364 1.403 . S
C2364 C2363 1.403 . S
C2364 C2365 1.404 . S
C2364 C2367 1.539 . S
C2365 C2361 1.408 . S
C2365 C2364 1.404 . S
C2365 H2377 0.930 . S
C2366 C2362 1.524 . S
C2366 H2378 0.956 . S
C2366 H2379 0.961 . S
C2366 H2380 0.961 . S
C2367 C2364 1.539 . S
C2367 H2381 0.958 . S
C2367 H2382 0.961 . S
C2367 H2383 0.960 . S
H2368 C2352 0.931 . S
H2369 C2357 0.929 . S
H2370 C2358 0.960 . S
H2371 C2358 0.962 . S
H2372 C2358 0.960 . S
H2373 C2359 0.961 . S
H2374 C2359 0.961 . S
H2375 C2359 0.961 . S
H2376 C2360 0.931 . S
H2377 C2365 0.930 . S
H2378 C2366 0.956 . S
H2379 C2366 0.961 . S
H2380 C2366 0.961 . S
H2381 C2367 0.958 . S
H2382 C2367 0.961 . S
H2383 C2367 0.960 . S
C2384 C2385 1.391 . S
C2384 C2386 1.394 . S
C2384 H2400 0.931 . S
C2385 C2384 1.391 . S
C2385 C2389 1.376 . S
C2386 C2384 1.394 . S
C2386 C2387 1.369 . S
C2386 C2390 1.531 . S
C2387 C2386 1.369 . S
C2387 C2388 1.410 . S
C2387 C2395 1.503 . S
C2388 C2387 1.410 . S
C2388 C2389 1.392 . S
C2388 C2391 1.511 . S
C2389 C2385 1.376 . S
C2389 C2388 1.392 . S
C2389 H2401 0.929 . S
C2390 C2386 1.531 . S
C2390 H2402 0.960 . S
C2390 H2403 0.962 . S
C2390 H2404 0.960 . S
C2391 C2388 1.511 . S
C2391 H2405 0.961 . S
C2391 H2406 0.961 . S
C2391 H2407 0.961 . S
C2392 C2393 1.370 . S
C2392 C2394 1.363 . S
C2392 H2408 0.931 . S
C2393 C2392 1.370 . S
C2393 C2397 1.408 . S
C2394 C2392 1.363 . S
C2394 C2395 1.370 . S
C2394 C2398 1.524 . S
C2395 C2387 1.503 . S
C2395 C2394 1.370 . S
C2395 C2396 1.403 . S
C2396 C2395 1.403 . S
C2396 C2397 1.404 . S
C2396 C2399 1.539 . S
C2397 C2393 1.408 . S
C2397 C2396 1.404 . S
C2397 H2409 0.930 . S
C2398 C2394 1.524 . S
C2398 H2410 0.956 . S
C2398 H2411 0.961 . S
C2398 H2412 0.961 . S
C2399 C2396 1.539 . S
C2399 H2413 0.958 . S
C2399 H2414 0.961 . S
C2399 H2415 0.960 . S
H2400 C2384 0.931 . S
H2401 C2389 0.929 . S
H2402 C2390 0.960 . S
H2403 C2390 0.962 . S
H2404 C2390 0.960 . S
H2405 C2391 0.961 . S
H2406 C2391 0.961 . S
H2407 C2391 0.961 . S
H2408 C2392 0.931 . S
H2409 C2397 0.930 . S
H2410 C2398 0.956 . S
H2411 C2398 0.961 . S
H2412 C2398 0.961 . S
H2413 C2399 0.958 . S
H2414 C2399 0.961 . S
H2415 C2399 0.960 . S
C2416 C2417 1.391 . S
C2416 C2418 1.394 . S
C2416 H2432 0.931 . S
C2417 C2416 1.391 . S
C2417 C2421 1.376 . S
C2418 C2416 1.394 . S
C2418 C2419 1.369 . S
C2418 C2422 1.531 . S
C2419 C2418 1.369 . S
C2419 C2420 1.410 . S
C2419 C2427 1.503 . S
C2420 C2419 1.410 . S
C2420 C2421 1.392 . S
C2420 C2423 1.511 . S
C2421 C2417 1.376 . S
C2421 C2420 1.392 . S
C2421 H2433 0.929 . S
C2422 C2418 1.531 . S
C2422 H2434 0.960 . S
C2422 H2435 0.962 . S
C2422 H2436 0.960 . S
C2423 C2420 1.511 . S
C2423 H2437 0.961 . S
C2423 H2438 0.961 . S
C2423 H2439 0.961 . S
C2424 C2425 1.370 . S
C2424 C2426 1.363 . S
C2424 H2440 0.931 . S
C2425 C2424 1.370 . S
C2425 C2429 1.408 . S
C2426 C2424 1.363 . S
C2426 C2427 1.370 . S
C2426 C2430 1.524 . S
C2427 C2419 1.503 . S
C2427 C2426 1.370 . S
C2427 C2428 1.403 . S
C2428 C2427 1.403 . S
C2428 C2429 1.404 . S
C2428 C2431 1.539 . S
C2429 C2425 1.408 . S
C2429 C2428 1.404 . S
C2429 H2441 0.930 . S
C2430 C2426 1.524 . S
C2430 H2442 0.956 . S
C2430 H2443 0.961 . S
C2430 H2444 0.961 . S
C2431 C2428 1.539 . S
C2431 H2445 0.958 . S
C2431 H2446 0.961 . S
C2431 H2447 0.960 . S
H2432 C2416 0.931 . S
H2433 C2421 0.929 . S
H2434 C2422 0.960 . S
H2435 C2422 0.962 . S
H2436 C2422 0.960 . S
H2437 C2423 0.961 . S
H2438 C2423 0.961 . S
H2439 C2423 0.961 . S
H2440 C2424 0.931 . S
H2441 C2429 0.930 . S
H2442 C2430 0.956 . S
H2443 C2430 0.961 . S
H2444 C2430 0.961 . S
H2445 C2431 0.958 . S
H2446 C2431 0.961 . S
H2447 C2431 0.960 . S
C2448 C2449 1.391 . S
C2448 C2450 1.394 . S
C2448 H2464 0.931 . S
C2449 C2448 1.391 . S
C2449 C2453 1.376 . S
C2450 C2448 1.394 . S
C2450 C2451 1.369 . S
C2450 C2454 1.531 . S
C2451 C2450 1.369 . S
C2451 C2452 1.410 . S
C2451 C2459 1.503 . S
C2452 C2451 1.410 . S
C2452 C2453 1.392 . S
C2452 C2455 1.511 . S
C2453 C2449 1.376 . S
C2453 C2452 1.392 . S
C2453 H2465 0.929 . S
C2454 C2450 1.531 . S
C2454 H2466 0.960 . S
C2454 H2467 0.962 . S
C2454 H2468 0.960 . S
C2455 C2452 1.511 . S
C2455 H2469 0.961 . S
C2455 H2470 0.961 . S
C2455 H2471 0.961 . S
C2456 C2457 1.370 . S
C2456 C2458 1.363 . S
C2456 H2472 0.931 1_554 S
C2457 C2456 1.370 . S
C2457 C2461 1.408 . S
C2458 C2456 1.363 . S
C2458 C2459 1.370 . S
C2458 C2462 1.524 . S
C2459 C2451 1.503 . S
C2459 C2458 1.370 . S
C2459 C2460 1.403 . S
C2460 C2459 1.403 . S
C2460 C2461 1.404 . S
C2460 C2463 1.539 . S
C2461 C2457 1.408 . S
C2461 C2460 1.404 . S
C2461 H2473 0.930 . S
C2462 C2458 1.524 . S
C2462 H2474 0.956 . S
C2462 H2475 0.961 . S
C2462 H2476 0.961 . S
C2463 C2460 1.539 . S
C2463 H2477 0.958 . S
C2463 H2478 0.961 . S
C2463 H2479 0.960 . S
H2464 C2448 0.931 . S
H2465 C2453 0.929 . S
H2466 C2454 0.960 . S
H2467 C2454 0.962 . S
H2468 C2454 0.960 . S
H2469 C2455 0.961 . S
H2470 C2455 0.961 . S
H2471 C2455 0.961 . S
H2472 C2456 0.931 1_556 S
H2473 C2461 0.930 . S
H2474 C2462 0.956 . S
H2475 C2462 0.961 . S
H2476 C2462 0.961 . S
H2477 C2463 0.958 . S
H2478 C2463 0.961 . S
H2479 C2463 0.960 . S
C2480 C2481 1.391 . S
C2480 C2482 1.394 . S
C2480 H2496 0.931 . S
C2481 C2480 1.391 . S
C2481 C2485 1.376 . S
C2482 C2480 1.394 . S
C2482 C2483 1.369 . S
C2482 C2486 1.531 . S
C2483 C2482 1.369 . S
C2483 C2484 1.410 . S
C2483 C2491 1.503 . S
C2484 C2483 1.410 . S
C2484 C2485 1.392 . S
C2484 C2487 1.511 . S
C2485 C2481 1.376 . S
C2485 C2484 1.392 . S
C2485 H2497 0.929 . S
C2486 C2482 1.531 . S
C2486 H2498 0.960 . S
C2486 H2499 0.962 . S
C2486 H2500 0.960 . S
C2487 C2484 1.511 . S
C2487 H2501 0.961 . S
C2487 H2502 0.961 . S
C2487 H2503 0.961 . S
C2488 C2489 1.370 . S
C2488 C2490 1.363 . S
C2488 H2504 0.931 . S
C2489 C2488 1.370 . S
C2489 C2493 1.408 . S
C2490 C2488 1.363 . S
C2490 C2491 1.370 . S
C2490 C2494 1.524 . S
C2491 C2483 1.503 . S
C2491 C2490 1.370 . S
C2491 C2492 1.403 . S
C2492 C2491 1.403 . S
C2492 C2493 1.404 . S
C2492 C2495 1.539 . S
C2493 C2489 1.408 . S
C2493 C2492 1.404 . S
C2493 H2505 0.930 . S
C2494 C2490 1.524 . S
C2494 H2506 0.956 . S
C2494 H2507 0.961 . S
C2494 H2508 0.961 . S
C2495 C2492 1.539 . S
C2495 H2509 0.958 . S
C2495 H2510 0.961 . S
C2495 H2511 0.960 . S
H2496 C2480 0.931 . S
H2497 C2485 0.929 . S
H2498 C2486 0.960 . S
H2499 C2486 0.962 . S
H2500 C2486 0.960 . S
H2501 C2487 0.961 . S
H2502 C2487 0.961 . S
H2503 C2487 0.961 . S
H2504 C2488 0.931 . S
H2505 C2493 0.930 . S
H2506 C2494 0.956 . S
H2507 C2494 0.961 . S
H2508 C2494 0.961 . S
H2509 C2495 0.958 . S
H2510 C2495 0.961 . S
H2511 C2495 0.960 . S
C2512 C2513 1.391 . S
C2512 C2514 1.394 . S
C2512 H2528 0.931 . S
C2513 C2512 1.391 . S
C2513 C2517 1.376 . S
C2514 C2512 1.394 . S
C2514 C2515 1.369 . S
C2514 C2518 1.531 . S
C2515 C2514 1.369 . S
C2515 C2516 1.410 . S
C2515 C2523 1.503 . S
C2516 C2515 1.410 . S
C2516 C2517 1.392 . S
C2516 C2519 1.511 . S
C2517 C2513 1.376 . S
C2517 C2516 1.392 . S
C2517 H2529 0.929 . S
C2518 C2514 1.531 . S
C2518 H2530 0.960 . S
C2518 H2531 0.962 1_655 S
C2518 H2532 0.960 . S
C2519 C2516 1.511 . S
C2519 H2533 0.961 . S
C2519 H2534 0.961 . S
C2519 H2535 0.961 . S
C2520 C2521 1.370 . S
C2520 C2522 1.363 . S
C2520 H2536 0.931 . S
C2521 C2520 1.370 . S
C2521 C2525 1.408 . S
C2522 C2520 1.363 . S
C2522 C2523 1.370 . S
C2522 C2526 1.524 . S
C2523 C2515 1.503 . S
C2523 C2522 1.370 . S
C2523 C2524 1.403 . S
C2524 C2523 1.403 . S
C2524 C2525 1.404 . S
C2524 C2527 1.539 . S
C2525 C2521 1.408 . S
C2525 C2524 1.404 . S
C2525 H2537 0.930 . S
C2526 C2522 1.524 . S
C2526 H2538 0.956 . S
C2526 H2539 0.961 . S
C2526 H2540 0.961 . S
C2527 C2524 1.539 . S
C2527 H2541 0.958 . S
C2527 H2542 0.961 . S
C2527 H2543 0.960 . S
H2528 C2512 0.931 . S
H2529 C2517 0.929 . S
H2530 C2518 0.960 . S
H2531 C2518 0.962 1_455 S
H2532 C2518 0.960 . S
H2533 C2519 0.961 . S
H2534 C2519 0.961 . S
H2535 C2519 0.961 . S
H2536 C2520 0.931 . S
H2537 C2525 0.930 . S
H2538 C2526 0.956 . S
H2539 C2526 0.961 . S
H2540 C2526 0.961 . S
H2541 C2527 0.958 . S
H2542 C2527 0.961 . S
H2543 C2527 0.960 . S
C2544 C2545 1.391 . S
C2544 C2546 1.394 . S
C2544 H2560 0.931 . S
C2545 C2544 1.391 . S
C2545 C2549 1.376 . S
C2546 C2544 1.394 . S
C2546 C2547 1.369 . S
C2546 C2550 1.531 . S
C2547 C2546 1.369 . S
C2547 C2548 1.410 . S
C2547 C2555 1.503 . S
C2548 C2547 1.410 . S
C2548 C2549 1.392 . S
C2548 C2551 1.511 . S
C2549 C2545 1.376 . S
C2549 C2548 1.392 . S
C2549 H2561 0.929 . S
C2550 C2546 1.531 . S
C2550 H2562 0.960 . S
C2550 H2563 0.962 . S
C2550 H2564 0.960 . S
C2551 C2548 1.511 . S
C2551 H2565 0.961 . S
C2551 H2566 0.961 . S
C2551 H2567 0.961 . S
C2552 C2553 1.370 . S
C2552 C2554 1.363 . S
C2552 H2568 0.931 . S
C2553 C2552 1.370 . S
C2553 C2557 1.408 . S
C2554 C2552 1.363 . S
C2554 C2555 1.370 . S
C2554 C2558 1.524 . S
C2555 C2547 1.503 . S
C2555 C2554 1.370 . S
C2555 C2556 1.403 . S
C2556 C2555 1.403 . S
C2556 C2557 1.404 . S
C2556 C2559 1.539 . S
C2557 C2553 1.408 . S
C2557 C2556 1.404 . S
C2557 H2569 0.930 . S
C2558 C2554 1.524 . S
C2558 H2570 0.956 . S
C2558 H2571 0.961 . S
C2558 H2572 0.961 . S
C2559 C2556 1.539 . S
C2559 H2573 0.958 . S
C2559 H2574 0.961 . S
C2559 H2575 0.960 . S
H2560 C2544 0.931 . S
H2561 C2549 0.929 . S
H2562 C2550 0.960 . S
H2563 C2550 0.962 . S
H2564 C2550 0.960 . S
H2565 C2551 0.961 . S
H2566 C2551 0.961 . S
H2567 C2551 0.961 . S
H2568 C2552 0.931 . S
H2569 C2557 0.930 . S
H2570 C2558 0.956 . S
H2571 C2558 0.961 . S
H2572 C2558 0.961 . S
H2573 C2559 0.958 . S
H2574 C2559 0.961 . S
H2575 C2559 0.960 . S
C2576 C2577 1.391 . S
C2576 C2578 1.394 . S
C2576 H2592 0.931 . S
C2577 C2576 1.391 . S
C2577 C2581 1.376 . S
C2578 C2576 1.394 . S
C2578 C2579 1.369 . S
C2578 C2582 1.531 . S
C2579 C2578 1.369 . S
C2579 C2580 1.410 . S
C2579 C2587 1.503 . S
C2580 C2579 1.410 . S
C2580 C2581 1.392 . S
C2580 C2583 1.511 . S
C2581 C2577 1.376 . S
C2581 C2580 1.392 . S
C2581 H2593 0.929 . S
C2582 C2578 1.531 . S
C2582 H2594 0.960 . S
C2582 H2595 0.962 1_655 S
C2582 H2596 0.960 1_655 S
C2583 C2580 1.511 . S
C2583 H2597 0.961 . S
C2583 H2598 0.961 . S
C2583 H2599 0.961 . S
C2584 C2585 1.370 . S
C2584 C2586 1.363 . S
C2584 H2600 0.931 1_556 S
C2585 C2584 1.370 . S
C2585 C2589 1.408 . S
C2586 C2584 1.363 . S
C2586 C2587 1.370 . S
C2586 C2590 1.524 . S
C2587 C2579 1.503 . S
C2587 C2586 1.370 . S
C2587 C2588 1.403 . S
C2588 C2587 1.403 . S
C2588 C2589 1.404 . S
C2588 C2591 1.539 . S
C2589 C2585 1.408 . S
C2589 C2588 1.404 . S
C2589 H2601 0.930 . S
C2590 C2586 1.524 . S
C2590 H2602 0.956 . S
C2590 H2603 0.961 . S
C2590 H2604 0.961 . S
C2591 C2588 1.539 . S
C2591 H2605 0.958 . S
C2591 H2606 0.961 . S
C2591 H2607 0.960 . S
H2592 C2576 0.931 . S
H2593 C2581 0.929 . S
H2594 C2582 0.960 . S
H2595 C2582 0.962 1_455 S
H2596 C2582 0.960 1_455 S
H2597 C2583 0.961 . S
H2598 C2583 0.961 . S
H2599 C2583 0.961 . S
H2600 C2584 0.931 1_554 S
H2601 C2589 0.930 . S
H2602 C2590 0.956 . S
H2603 C2590 0.961 . S
H2604 C2590 0.961 . S
H2605 C2591 0.958 . S
H2606 C2591 0.961 . S
H2607 C2591 0.960 . S
C2608 C2609 1.391 . S
C2608 C2610 1.394 . S
C2608 H2624 0.931 . S
C2609 C2608 1.391 . S
C2609 C2613 1.376 . S
C2610 C2608 1.394 . S
C2610 C2611 1.369 . S
C2610 C2614 1.531 . S
C2611 C2610 1.369 . S
C2611 C2612 1.410 . S
C2611 C2619 1.503 . S
C2612 C2611 1.410 . S
C2612 C2613 1.392 . S
C2612 C2615 1.511 . S
C2613 C2609 1.376 . S
C2613 C2612 1.392 . S
C2613 H2625 0.929 . S
C2614 C2610 1.531 . S
C2614 H2626 0.960 . S
C2614 H2627 0.962 . S
C2614 H2628 0.960 . S
C2615 C2612 1.511 . S
C2615 H2629 0.961 . S
C2615 H2630 0.961 . S
C2615 H2631 0.961 . S
C2616 C2617 1.370 . S
C2616 C2618 1.363 . S
C2616 H2632 0.931 . S
C2617 C2616 1.370 . S
C2617 C2621 1.408 . S
C2618 C2616 1.363 . S
C2618 C2619 1.370 . S
C2618 C2622 1.524 . S
C2619 C2611 1.503 . S
C2619 C2618 1.370 . S
C2619 C2620 1.403 . S
C2620 C2619 1.403 . S
C2620 C2621 1.404 . S
C2620 C2623 1.539 . S
C2621 C2617 1.408 . S
C2621 C2620 1.404 . S
C2621 H2633 0.930 . S
C2622 C2618 1.524 . S
C2622 H2634 0.956 . S
C2622 H2635 0.961 . S
C2622 H2636 0.961 . S
C2623 C2620 1.539 . S
C2623 H2637 0.958 . S
C2623 H2638 0.961 . S
C2623 H2639 0.960 . S
H2624 C2608 0.931 . S
H2625 C2613 0.929 . S
H2626 C2614 0.960 . S
H2627 C2614 0.962 . S
H2628 C2614 0.960 . S
H2629 C2615 0.961 . S
H2630 C2615 0.961 . S
H2631 C2615 0.961 . S
H2632 C2616 0.931 . S
H2633 C2621 0.930 . S
H2634 C2622 0.956 . S
H2635 C2622 0.961 . S
H2636 C2622 0.961 . S
H2637 C2623 0.958 . S
H2638 C2623 0.961 . S
H2639 C2623 0.960 . S
C2640 C2641 1.391 . S
C2640 C2642 1.394 . S
C2640 H2656 0.931 . S
C2641 C2640 1.391 . S
C2641 C2645 1.376 . S
C2642 C2640 1.394 . S
C2642 C2643 1.369 . S
C2642 C2646 1.531 . S
C2643 C2642 1.369 . S
C2643 C2644 1.410 . S
C2643 C2651 1.503 . S
C2644 C2643 1.410 . S
C2644 C2645 1.392 . S
C2644 C2647 1.511 . S
C2645 C2641 1.376 . S
C2645 C2644 1.392 . S
C2645 H2657 0.929 . S
C2646 C2642 1.531 . S
C2646 H2658 0.960 . S
C2646 H2659 0.962 . S
C2646 H2660 0.960 . S
C2647 C2644 1.511 . S
C2647 H2661 0.961 . S
C2647 H2662 0.961 . S
C2647 H2663 0.961 . S
C2648 C2649 1.370 . S
C2648 C2650 1.363 . S
C2648 H2664 0.931 . S
C2649 C2648 1.370 . S
C2649 C2653 1.408 . S
C2650 C2648 1.363 . S
C2650 C2651 1.370 . S
C2650 C2654 1.524 . S
C2651 C2643 1.503 . S
C2651 C2650 1.370 . S
C2651 C2652 1.403 . S
C2652 C2651 1.403 . S
C2652 C2653 1.404 . S
C2652 C2655 1.539 . S
C2653 C2649 1.408 . S
C2653 C2652 1.404 . S
C2653 H2665 0.930 . S
C2654 C2650 1.524 . S
C2654 H2666 0.956 . S
C2654 H2667 0.961 . S
C2654 H2668 0.961 . S
C2655 C2652 1.539 . S
C2655 H2669 0.958 . S
C2655 H2670 0.961 . S
C2655 H2671 0.960 . S
H2656 C2640 0.931 . S
H2657 C2645 0.929 . S
H2658 C2646 0.960 . S
H2659 C2646 0.962 . S
H2660 C2646 0.960 . S
H2661 C2647 0.961 . S
H2662 C2647 0.961 . S
H2663 C2647 0.961 . S
H2664 C2648 0.931 . S
H2665 C2653 0.930 . S
H2666 C2654 0.956 . S
H2667 C2654 0.961 . S
H2668 C2654 0.961 . S
H2669 C2655 0.958 . S
H2670 C2655 0.961 . S
H2671 C2655 0.960 . S
C2672 C2673 1.391 . S
C2672 C2674 1.394 . S
C2672 H2688 0.931 . S
C2673 C2672 1.391 . S
C2673 C2677 1.376 . S
C2674 C2672 1.394 . S
C2674 C2675 1.369 . S
C2674 C2678 1.531 . S
C2675 C2674 1.369 . S
C2675 C2676 1.410 . S
C2675 C2683 1.503 . S
C2676 C2675 1.410 . S
C2676 C2677 1.392 . S
C2676 C2679 1.511 . S
C2677 C2673 1.376 . S
C2677 C2676 1.392 . S
C2677 H2689 0.929 . S
C2678 C2674 1.531 . S
C2678 H2690 0.960 . S
C2678 H2691 0.962 . S
C2678 H2692 0.960 . S
C2679 C2676 1.511 . S
C2679 H2693 0.961 . S
C2679 H2694 0.961 . S
C2679 H2695 0.961 . S
C2680 C2681 1.370 . S
C2680 C2682 1.363 . S
C2680 H2696 0.931 . S
C2681 C2680 1.370 . S
C2681 C2685 1.408 . S
C2682 C2680 1.363 . S
C2682 C2683 1.370 . S
C2682 C2686 1.524 . S
C2683 C2675 1.503 . S
C2683 C2682 1.370 . S
C2683 C2684 1.403 . S
C2684 C2683 1.403 . S
C2684 C2685 1.404 . S
C2684 C2687 1.539 . S
C2685 C2681 1.408 . S
C2685 C2684 1.404 . S
C2685 H2697 0.930 . S
C2686 C2682 1.524 . S
C2686 H2698 0.956 . S
C2686 H2699 0.961 . S
C2686 H2700 0.961 . S
C2687 C2684 1.539 . S
C2687 H2701 0.958 . S
C2687 H2702 0.961 . S
C2687 H2703 0.960 . S
H2688 C2672 0.931 . S
H2689 C2677 0.929 . S
H2690 C2678 0.960 . S
H2691 C2678 0.962 . S
H2692 C2678 0.960 . S
H2693 C2679 0.961 . S
H2694 C2679 0.961 . S
H2695 C2679 0.961 . S
H2696 C2680 0.931 . S
H2697 C2685 0.930 . S
H2698 C2686 0.956 . S
H2699 C2686 0.961 . S
H2700 C2686 0.961 . S
H2701 C2687 0.958 . S
H2702 C2687 0.961 . S
H2703 C2687 0.960 . S
C2704 C2705 1.391 . S
C2704 C2706 1.394 . S
C2704 H2720 0.931 . S
C2705 C2704 1.391 . S
C2705 C2709 1.376 . S
C2706 C2704 1.394 . S
C2706 C2707 1.369 . S
C2706 C2710 1.531 . S
C2707 C2706 1.369 . S
C2707 C2708 1.410 . S
C2707 C2715 1.503 . S
C2708 C2707 1.410 . S
C2708 C2709 1.392 . S
C2708 C2711 1.511 . S
C2709 C2705 1.376 . S
C2709 C2708 1.392 . S
C2709 H2721 0.929 . S
C2710 C2706 1.531 . S
C2710 H2722 0.960 . S
C2710 H2723 0.962 . S
C2710 H2724 0.960 . S
C2711 C2708 1.511 . S
C2711 H2725 0.961 . S
C2711 H2726 0.961 . S
C2711 H2727 0.961 . S
C2712 C2713 1.370 . S
C2712 C2714 1.363 . S
C2712 H2728 0.931 . S
C2713 C2712 1.370 . S
C2713 C2717 1.408 . S
C2714 C2712 1.363 . S
C2714 C2715 1.370 . S
C2714 C2718 1.524 . S
C2715 C2707 1.503 . S
C2715 C2714 1.370 . S
C2715 C2716 1.403 . S
C2716 C2715 1.403 . S
C2716 C2717 1.404 . S
C2716 C2719 1.539 . S
C2717 C2713 1.408 . S
C2717 C2716 1.404 . S
C2717 H2729 0.930 . S
C2718 C2714 1.524 . S
C2718 H2730 0.956 . S
C2718 H2731 0.961 . S
C2718 H2732 0.961 . S
C2719 C2716 1.539 . S
C2719 H2733 0.958 . S
C2719 H2734 0.961 . S
C2719 H2735 0.960 . S
H2720 C2704 0.931 . S
H2721 C2709 0.929 . S
H2722 C2710 0.960 . S
H2723 C2710 0.962 . S
H2724 C2710 0.960 . S
H2725 C2711 0.961 . S
H2726 C2711 0.961 . S
H2727 C2711 0.961 . S
H2728 C2712 0.931 . S
H2729 C2717 0.930 . S
H2730 C2718 0.956 . S
H2731 C2718 0.961 . S
H2732 C2718 0.961 . S
H2733 C2719 0.958 . S
H2734 C2719 0.961 . S
H2735 C2719 0.960 . S
C2736 C2737 1.391 . S
C2736 C2738 1.394 . S
C2736 H2752 0.931 . S
C2737 C2736 1.391 . S
C2737 C2741 1.376 . S
C2738 C2736 1.394 . S
C2738 C2739 1.369 . S
C2738 C2742 1.531 . S
C2739 C2738 1.369 . S
C2739 C2740 1.410 . S
C2739 C2747 1.503 . S
C2740 C2739 1.410 . S
C2740 C2741 1.392 . S
C2740 C2743 1.511 . S
C2741 C2737 1.376 . S
C2741 C2740 1.392 . S
C2741 H2753 0.929 . S
C2742 C2738 1.531 . S
C2742 H2754 0.960 . S
C2742 H2755 0.962 . S
C2742 H2756 0.960 . S
C2743 C2740 1.511 . S
C2743 H2757 0.961 . S
C2743 H2758 0.961 . S
C2743 H2759 0.961 . S
C2744 C2745 1.370 . S
C2744 C2746 1.363 . S
C2744 H2760 0.931 . S
C2745 C2744 1.370 . S
C2745 C2749 1.408 . S
C2746 C2744 1.363 . S
C2746 C2747 1.370 . S
C2746 C2750 1.524 . S
C2747 C2739 1.503 . S
C2747 C2746 1.370 . S
C2747 C2748 1.403 . S
C2748 C2747 1.403 . S
C2748 C2749 1.404 . S
C2748 C2751 1.539 . S
C2749 C2745 1.408 . S
C2749 C2748 1.404 . S
C2749 H2761 0.918 1_545 S
C2750 C2746 1.524 . S
C2750 H2762 0.956 . S
C2750 H2763 0.961 . S
C2750 H2764 0.961 . S
C2751 C2748 1.539 . S
C2751 H2765 0.958 . S
C2751 H2766 0.961 . S
C2751 H2767 0.960 . S
H2752 C2736 0.931 . S
H2753 C2741 0.929 . S
H2754 C2742 0.960 . S
H2755 C2742 0.962 . S
H2756 C2742 0.960 . S
H2757 C2743 0.961 . S
H2758 C2743 0.961 . S
H2759 C2743 0.961 . S
H2760 C2744 0.931 . S
H2761 C2749 0.918 1_565 S
H2762 C2750 0.956 . S
H2763 C2750 0.961 . S
H2764 C2750 0.961 . S
H2765 C2751 0.958 . S
H2766 C2751 0.961 . S
H2767 C2751 0.960 . S
C2768 C2769 1.391 . S
C2768 C2770 1.394 . S
C2768 H2784 0.931 . S
C2769 C2768 1.391 . S
C2769 C2773 1.376 . S
C2770 C2768 1.394 . S
C2770 C2771 1.369 . S
C2770 C2774 1.531 . S
C2771 C2770 1.369 . S
C2771 C2772 1.410 . S
C2771 C2779 1.503 . S
C2772 C2771 1.410 . S
C2772 C2773 1.392 . S
C2772 C2775 1.511 . S
C2773 C2769 1.376 . S
C2773 C2772 1.392 . S
C2773 H2785 0.929 . S
C2774 C2770 1.531 . S
C2774 H2786 0.960 . S
C2774 H2787 0.962 . S
C2774 H2788 0.960 . S
C2775 C2772 1.511 . S
C2775 H2789 0.961 . S
C2775 H2790 0.961 . S
C2775 H2791 0.961 . S
C2776 C2777 1.370 . S
C2776 C2778 1.363 . S
C2776 H2792 0.931 . S
C2777 C2776 1.370 . S
C2777 C2781 1.408 . S
C2778 C2776 1.363 . S
C2778 C2779 1.370 . S
C2778 C2782 1.524 . S
C2779 C2771 1.503 . S
C2779 C2778 1.370 . S
C2779 C2780 1.403 . S
C2780 C2779 1.403 . S
C2780 C2781 1.404 . S
C2780 C2783 1.539 . S
C2781 C2777 1.408 . S
C2781 C2780 1.404 . S
C2781 H2793 0.930 . S
C2782 C2778 1.524 . S
C2782 H2794 0.956 . S
C2782 H2795 0.961 . S
C2782 H2796 0.961 . S
C2783 C2780 1.539 . S
C2783 H2797 0.958 . S
C2783 H2798 0.961 . S
C2783 H2799 0.960 . S
H2784 C2768 0.931 . S
H2785 C2773 0.929 . S
H2786 C2774 0.960 . S
H2787 C2774 0.962 . S
H2788 C2774 0.960 . S
H2789 C2775 0.961 . S
H2790 C2775 0.961 . S
H2791 C2775 0.961 . S
H2792 C2776 0.931 . S
H2793 C2781 0.930 . S
H2794 C2782 0.956 . S
H2795 C2782 0.961 . S
H2796 C2782 0.961 . S
H2797 C2783 0.958 . S
H2798 C2783 0.961 . S
H2799 C2783 0.960 . S
C2800 C2801 1.391 . S
C2800 C2802 1.394 . S
C2800 H2816 0.931 . S
C2801 C2800 1.391 . S
C2801 C2805 1.376 . S
C2802 C2800 1.394 . S
C2802 C2803 1.369 . S
C2802 C2806 1.531 . S
C2803 C2802 1.369 . S
C2803 C2804 1.410 . S
C2803 C2811 1.503 . S
C2804 C2803 1.410 . S
C2804 C2805 1.392 . S
C2804 C2807 1.511 . S
C2805 C2801 1.376 . S
C2805 C2804 1.392 . S
C2805 H2817 0.929 . S
C2806 C2802 1.531 . S
C2806 H2818 0.960 . S
C2806 H2819 0.962 . S
C2806 H2820 0.960 . S
C2807 C2804 1.511 . S
C2807 H2821 0.961 . S
C2807 H2822 0.961 . S
C2807 H2823 0.961 . S
C2808 C2809 1.370 . S
C2808 C2810 1.363 . S
C2808 H2824 0.931 . S
C2809 C2808 1.370 . S
C2809 C2813 1.408 . S
C2810 C2808 1.363 . S
C2810 C2811 1.370 . S
C2810 C2814 1.524 . S
C2811 C2803 1.503 . S
C2811 C2810 1.370 . S
C2811 C2812 1.403 . S
C2812 C2811 1.403 . S
C2812 C2813 1.404 . S
C2812 C2815 1.539 . S
C2813 C2809 1.408 . S
C2813 C2812 1.404 . S
C2813 H2825 0.930 . S
C2814 C2810 1.524 . S
C2814 H2826 0.956 . S
C2814 H2827 0.961 . S
C2814 H2828 0.961 . S
C2815 C2812 1.539 . S
C2815 H2829 0.958 . S
C2815 H2830 0.961 . S
C2815 H2831 0.960 . S
H2816 C2800 0.931 . S
H2817 C2805 0.929 . S
H2818 C2806 0.960 . S
H2819 C2806 0.962 . S
H2820 C2806 0.960 . S
H2821 C2807 0.961 . S
H2822 C2807 0.961 . S
H2823 C2807 0.961 . S
H2824 C2808 0.931 . S
H2825 C2813 0.930 . S
H2826 C2814 0.956 . S
H2827 C2814 0.961 . S
H2828 C2814 0.961 . S
H2829 C2815 0.958 . S
H2830 C2815 0.961 . S
H2831 C2815 0.960 . S
C2832 C2833 1.391 . S
C2832 C2834 1.394 . S
C2832 H2848 0.931 . S
C2833 C2832 1.391 . S
C2833 C2837 1.376 . S
C2834 C2832 1.394 . S
C2834 C2835 1.369 . S
C2834 C2838 1.531 . S
C2835 C2834 1.369 . S
C2835 C2836 1.410 . S
C2835 C2843 1.503 . S
C2836 C2835 1.410 . S
C2836 C2837 1.392 . S
C2836 C2839 1.511 . S
C2837 C2833 1.376 . S
C2837 C2836 1.392 . S
C2837 H2849 0.929 . S
C2838 C2834 1.531 . S
C2838 H2850 0.960 . S
C2838 H2851 0.962 . S
C2838 H2852 0.960 . S
C2839 C2836 1.511 . S
C2839 H2853 0.961 . S
C2839 H2854 0.961 . S
C2839 H2855 0.961 . S
C2840 C2841 1.370 . S
C2840 C2842 1.363 . S
C2840 H2856 0.931 . S
C2841 C2840 1.370 . S
C2841 C2845 1.408 . S
C2842 C2840 1.363 . S
C2842 C2843 1.370 . S
C2842 C2846 1.524 . S
C2843 C2835 1.503 . S
C2843 C2842 1.370 . S
C2843 C2844 1.403 . S
C2844 C2843 1.403 . S
C2844 C2845 1.404 . S
C2844 C2847 1.539 . S
C2845 C2841 1.408 . S
C2845 C2844 1.404 . S
C2845 H2857 0.930 . S
C2846 C2842 1.524 . S
C2846 H2858 0.956 . S
C2846 H2859 0.961 . S
C2846 H2860 0.961 . S
C2847 C2844 1.539 . S
C2847 H2861 0.958 . S
C2847 H2862 0.961 . S
C2847 H2863 0.960 . S
H2848 C2832 0.931 . S
H2849 C2837 0.929 . S
H2850 C2838 0.960 . S
H2851 C2838 0.962 . S
H2852 C2838 0.960 . S
H2853 C2839 0.961 . S
H2854 C2839 0.961 . S
H2855 C2839 0.961 . S
H2856 C2840 0.931 . S
H2857 C2845 0.930 . S
H2858 C2846 0.956 . S
H2859 C2846 0.961 . S
H2860 C2846 0.961 . S
H2861 C2847 0.958 . S
H2862 C2847 0.961 . S
H2863 C2847 0.960 . S
C2864 C2865 1.391 . S
C2864 C2866 1.394 . S
C2864 H2880 0.931 . S
C2865 C2864 1.391 . S
C2865 C2869 1.376 . S
C2866 C2864 1.394 . S
C2866 C2867 1.369 . S
C2866 C2870 1.531 . S
C2867 C2866 1.369 . S
C2867 C2868 1.410 . S
C2867 C2875 1.503 . S
C2868 C2867 1.410 . S
C2868 C2869 1.392 . S
C2868 C2871 1.511 . S
C2869 C2865 1.376 . S
C2869 C2868 1.392 . S
C2869 H2881 0.929 . S
C2870 C2866 1.531 . S
C2870 H2882 0.960 . S
C2870 H2883 0.962 1_556 S
C2870 H2884 0.960 1_556 S
C2871 C2868 1.511 . S
C2871 H2885 0.961 . S
C2871 H2886 0.961 . S
C2871 H2887 0.961 . S
C2872 C2873 1.370 . S
C2872 C2874 1.363 . S
C2872 H2888 0.931 . S
C2873 C2872 1.370 . S
C2873 C2877 1.408 . S
C2874 C2872 1.363 . S
C2874 C2875 1.370 . S
C2874 C2878 1.524 . S
C2875 C2867 1.503 . S
C2875 C2874 1.370 . S
C2875 C2876 1.403 . S
C2876 C2875 1.403 . S
C2876 C2877 1.404 . S
C2876 C2879 1.539 . S
C2877 C2873 1.408 . S
C2877 C2876 1.404 . S
C2877 H2889 0.930 . S
C2878 C2874 1.524 . S
C2878 H2890 0.956 . S
C2878 H2891 0.961 . S
C2878 H2892 0.961 . S
C2879 C2876 1.539 . S
C2879 H2893 0.958 . S
C2879 H2894 0.961 . S
C2879 H2895 0.960 . S
H2880 C2864 0.931 . S
H2881 C2869 0.929 . S
H2882 C2870 0.960 . S
H2883 C2870 0.962 1_554 S
H2884 C2870 0.960 1_554 S
H2885 C2871 0.961 . S
H2886 C2871 0.961 . S
H2887 C2871 0.961 . S
H2888 C2872 0.931 . S
H2889 C2877 0.930 . S
H2890 C2878 0.956 . S
H2891 C2878 0.961 . S
H2892 C2878 0.961 . S
H2893 C2879 0.958 . S
H2894 C2879 0.961 . S
H2895 C2879 0.960 . S
C2896 C2897 1.391 . S
C2896 C2898 1.394 . S
C2896 H2912 0.931 . S
C2897 C2896 1.391 . S
C2897 C2901 1.376 . S
C2898 C2896 1.394 . S
C2898 C2899 1.369 . S
C2898 C2902 1.531 . S
C2899 C2898 1.369 . S
C2899 C2900 1.410 . S
C2899 C2907 1.503 . S
C2900 C2899 1.410 . S
C2900 C2901 1.392 . S
C2900 C2903 1.511 . S
C2901 C2897 1.376 . S
C2901 C2900 1.392 . S
C2901 H2913 0.929 . S
C2902 C2898 1.531 . S
C2902 H2914 0.960 . S
C2902 H2915 0.962 . S
C2902 H2916 0.960 . S
C2903 C2900 1.511 . S
C2903 H2917 0.961 . S
C2903 H2918 0.961 . S
C2903 H2919 0.961 . S
C2904 C2905 1.370 . S
C2904 C2906 1.363 . S
C2904 H2920 0.931 . S
C2905 C2904 1.370 . S
C2905 C2909 1.408 . S
C2906 C2904 1.363 . S
C2906 C2907 1.370 . S
C2906 C2910 1.524 . S
C2907 C2899 1.503 . S
C2907 C2906 1.370 . S
C2907 C2908 1.403 . S
C2908 C2907 1.403 . S
C2908 C2909 1.404 . S
C2908 C2911 1.539 . S
C2909 C2905 1.408 . S
C2909 C2908 1.404 . S
C2909 H2921 0.930 . S
C2910 C2906 1.524 . S
C2910 H2922 0.956 . S
C2910 H2923 0.961 . S
C2910 H2924 0.961 . S
C2911 C2908 1.539 . S
C2911 H2925 0.958 . S
C2911 H2926 0.961 . S
C2911 H2927 0.960 . S
H2912 C2896 0.931 . S
H2913 C2901 0.929 . S
H2914 C2902 0.960 . S
H2915 C2902 0.962 . S
H2916 C2902 0.960 . S
H2917 C2903 0.961 . S
H2918 C2903 0.961 . S
H2919 C2903 0.961 . S
H2920 C2904 0.931 . S
H2921 C2909 0.930 . S
H2922 C2910 0.956 . S
H2923 C2910 0.961 . S
H2924 C2910 0.961 . S
H2925 C2911 0.958 . S
H2926 C2911 0.961 . S
H2927 C2911 0.960 . S
C2928 C2929 1.391 . S
C2928 C2930 1.394 . S
C2928 H2944 0.931 . S
C2929 C2928 1.391 . S
C2929 C2933 1.376 . S
C2930 C2928 1.394 . S
C2930 C2931 1.369 . S
C2930 C2934 1.531 . S
C2931 C2930 1.369 . S
C2931 C2932 1.410 . S
C2931 C2939 1.503 . S
C2932 C2931 1.410 . S
C2932 C2933 1.392 . S
C2932 C2935 1.511 . S
C2933 C2929 1.376 . S
C2933 C2932 1.392 . S
C2933 H2945 0.929 . S
C2934 C2930 1.531 . S
C2934 H2946 0.960 . S
C2934 H2947 0.962 . S
C2934 H2948 0.960 . S
C2935 C2932 1.511 . S
C2935 H2949 0.961 . S
C2935 H2950 0.961 . S
C2935 H2951 0.961 . S
C2936 C2937 1.370 . S
C2936 C2938 1.363 . S
C2936 H2952 0.931 . S
C2937 C2936 1.370 . S
C2937 C2941 1.408 . S
C2938 C2936 1.363 . S
C2938 C2939 1.370 . S
C2938 C2942 1.524 . S
C2939 C2931 1.503 . S
C2939 C2938 1.370 . S
C2939 C2940 1.403 . S
C2940 C2939 1.403 . S
C2940 C2941 1.404 . S
C2940 C2943 1.539 . S
C2941 C2937 1.408 . S
C2941 C2940 1.404 . S
C2941 H2953 0.930 . S
C2942 C2938 1.524 . S
C2942 H2954 0.956 . S
C2942 H2955 0.961 . S
C2942 H2956 0.961 . S
C2943 C2940 1.539 . S
C2943 H2957 0.958 . S
C2943 H2958 0.961 . S
C2943 H2959 0.960 . S
H2944 C2928 0.931 . S
H2945 C2933 0.929 . S
H2946 C2934 0.960 . S
H2947 C2934 0.962 . S
H2948 C2934 0.960 . S
H2949 C2935 0.961 . S
H2950 C2935 0.961 . S
H2951 C2935 0.961 . S
H2952 C2936 0.931 . S
H2953 C2941 0.930 . S
H2954 C2942 0.956 . S
H2955 C2942 0.961 . S
H2956 C2942 0.961 . S
H2957 C2943 0.958 . S
H2958 C2943 0.961 . S
H2959 C2943 0.960 . S
C2960 C2961 1.391 . S
C2960 C2962 1.394 . S
C2960 H2976 0.931 . S
C2961 C2960 1.391 . S
C2961 C2965 1.376 . S
C2962 C2960 1.394 . S
C2962 C2963 1.369 . S
C2962 C2966 1.531 . S
C2963 C2962 1.369 . S
C2963 C2964 1.410 . S
C2963 C2971 1.503 . S
C2964 C2963 1.410 . S
C2964 C2965 1.392 . S
C2964 C2967 1.511 . S
C2965 C2961 1.376 . S
C2965 C2964 1.392 . S
C2965 H2977 0.929 . S
C2966 C2962 1.531 . S
C2966 H2978 0.960 . S
C2966 H2979 0.962 . S
C2966 H2980 0.960 . S
C2967 C2964 1.511 . S
C2967 H2981 0.961 . S
C2967 H2982 0.961 . S
C2967 H2983 0.961 . S
C2968 C2969 1.370 . S
C2968 C2970 1.363 . S
C2968 H2984 0.931 . S
C2969 C2968 1.370 . S
C2969 C2973 1.408 . S
C2970 C2968 1.363 . S
C2970 C2971 1.370 . S
C2970 C2974 1.524 . S
C2971 C2963 1.503 . S
C2971 C2970 1.370 . S
C2971 C2972 1.403 . S
C2972 C2971 1.403 . S
C2972 C2973 1.404 . S
C2972 C2975 1.539 . S
C2973 C2969 1.408 . S
C2973 C2972 1.404 . S
C2973 H2985 0.930 . S
C2974 C2970 1.524 . S
C2974 H2986 0.956 . S
C2974 H2987 0.961 . S
C2974 H2988 0.961 . S
C2975 C2972 1.539 . S
C2975 H2989 0.958 . S
C2975 H2990 0.961 . S
C2975 H2991 0.960 . S
H2976 C2960 0.931 . S
H2977 C2965 0.929 . S
H2978 C2966 0.960 . S
H2979 C2966 0.962 . S
H2980 C2966 0.960 . S
H2981 C2967 0.961 . S
H2982 C2967 0.961 . S
H2983 C2967 0.961 . S
H2984 C2968 0.931 . S
H2985 C2973 0.930 . S
H2986 C2974 0.956 . S
H2987 C2974 0.961 . S
H2988 C2974 0.961 . S
H2989 C2975 0.958 . S
H2990 C2975 0.961 . S
H2991 C2975 0.960 . S
C2992 C2993 1.391 . S
C2992 C2994 1.394 . S
C2992 H3008 0.931 . S
C2993 C2992 1.391 . S
C2993 C2997 1.376 . S
C2994 C2992 1.394 . S
C2994 C2995 1.369 . S
C2994 C2998 1.531 . S
C2995 C2994 1.369 . S
C2995 C2996 1.410 . S
C2995 C3003 1.503 . S
C2996 C2995 1.410 . S
C2996 C2997 1.392 . S
C2996 C2999 1.511 . S
C2997 C2993 1.376 . S
C2997 C2996 1.392 . S
C2997 H3009 0.929 . S
C2998 C2994 1.531 . S
C2998 H3010 0.960 . S
C2998 H3011 0.962 . S
C2998 H3012 0.960 . S
C2999 C2996 1.511 . S
C2999 H3013 0.961 . S
C2999 H3014 0.961 . S
C2999 H3015 0.961 . S
C3000 C3001 1.370 . S
C3000 C3002 1.363 . S
C3000 H3016 0.931 . S
C3001 C3000 1.370 . S
C3001 C3005 1.408 . S
C3002 C3000 1.363 . S
C3002 C3003 1.370 . S
C3002 C3006 1.524 . S
C3003 C2995 1.503 . S
C3003 C3002 1.370 . S
C3003 C3004 1.403 . S
C3004 C3003 1.403 . S
C3004 C3005 1.404 . S
C3004 C3007 1.539 . S
C3005 C3001 1.408 . S
C3005 C3004 1.404 . S
C3005 H3017 0.930 . S
C3006 C3002 1.524 . S
C3006 H3018 0.956 . S
C3006 H3019 0.961 . S
C3006 H3020 0.961 . S
C3007 C3004 1.539 . S
C3007 H3021 0.958 . S
C3007 H3022 0.961 . S
C3007 H3023 0.960 . S
H3008 C2992 0.931 . S
H3009 C2997 0.929 . S
H3010 C2998 0.960 . S
H3011 C2998 0.962 . S
H3012 C2998 0.960 . S
H3013 C2999 0.961 . S
H3014 C2999 0.961 . S
H3015 C2999 0.961 . S
H3016 C3000 0.931 . S
H3017 C3005 0.930 . S
H3018 C3006 0.956 . S
H3019 C3006 0.961 . S
H3020 C3006 0.961 . S
H3021 C3007 0.958 . S
H3022 C3007 0.961 . S
H3023 C3007 0.960 . S
C3024 C3025 1.391 . S
C3024 C3026 1.394 . S
C3024 H3040 0.931 . S
C3025 C3024 1.391 . S
C3025 C3029 1.376 . S
C3026 C3024 1.394 . S
C3026 C3027 1.369 . S
C3026 C3030 1.531 . S
C3027 C3026 1.369 . S
C3027 C3028 1.410 . S
C3027 C3035 1.503 . S
C3028 C3027 1.410 . S
C3028 C3029 1.392 . S
C3028 C3031 1.511 . S
C3029 C3025 1.376 . S
C3029 C3028 1.392 . S
C3029 H3041 0.929 . S
C3030 C3026 1.531 . S
C3030 H3042 0.960 . S
C3030 H3043 0.962 . S
C3030 H3044 0.960 . S
C3031 C3028 1.511 . S
C3031 H3045 0.961 . S
C3031 H3046 0.961 . S
C3031 H3047 0.961 . S
C3032 C3033 1.370 . S
C3032 C3034 1.363 . S
C3032 H3048 0.931 . S
C3033 C3032 1.370 . S
C3033 C3037 1.408 . S
C3034 C3032 1.363 . S
C3034 C3035 1.370 . S
C3034 C3038 1.524 . S
C3035 C3027 1.503 . S
C3035 C3034 1.370 . S
C3035 C3036 1.403 . S
C3036 C3035 1.403 . S
C3036 C3037 1.404 . S
C3036 C3039 1.539 . S
C3037 C3033 1.408 . S
C3037 C3036 1.404 . S
C3037 H3049 0.930 . S
C3038 C3034 1.524 . S
C3038 H3050 0.956 . S
C3038 H3051 0.961 . S
C3038 H3052 0.961 . S
C3039 C3036 1.539 . S
C3039 H3053 0.958 . S
C3039 H3054 0.961 . S
C3039 H3055 0.960 . S
H3040 C3024 0.931 . S
H3041 C3029 0.929 . S
H3042 C3030 0.960 . S
H3043 C3030 0.962 . S
H3044 C3030 0.960 . S
H3045 C3031 0.961 . S
H3046 C3031 0.961 . S
H3047 C3031 0.961 . S
H3048 C3032 0.931 . S
H3049 C3037 0.930 . S
H3050 C3038 0.956 . S
H3051 C3038 0.961 . S
H3052 C3038 0.961 . S
H3053 C3039 0.958 . S
H3054 C3039 0.961 . S
H3055 C3039 0.960 . S
C3056 C3057 1.391 . S
C3056 C3058 1.394 . S
C3056 H3072 0.931 . S
C3057 C3056 1.391 . S
C3057 C3061 1.376 . S
C3058 C3056 1.394 . S
C3058 C3059 1.369 . S
C3058 C3062 1.531 . S
C3059 C3058 1.369 . S
C3059 C3060 1.410 . S
C3059 C3067 1.503 . S
C3060 C3059 1.410 . S
C3060 C3061 1.392 . S
C3060 C3063 1.511 . S
C3061 C3057 1.376 . S
C3061 C3060 1.392 . S
C3061 H3073 0.929 . S
C3062 C3058 1.531 . S
C3062 H3074 0.960 . S
C3062 H3075 0.962 . S
C3062 H3076 0.960 . S
C3063 C3060 1.511 . S
C3063 H3077 0.961 . S
C3063 H3078 0.961 . S
C3063 H3079 0.961 . S
C3064 C3065 1.370 . S
C3064 C3066 1.363 . S
C3064 H3080 0.931 . S
C3065 C3064 1.370 . S
C3065 C3069 1.408 . S
C3066 C3064 1.363 . S
C3066 C3067 1.370 . S
C3066 C3070 1.524 . S
C3067 C3059 1.503 . S
C3067 C3066 1.370 . S
C3067 C3068 1.403 . S
C3068 C3067 1.403 . S
C3068 C3069 1.404 . S
C3068 C3071 1.539 . S
C3069 C3065 1.408 . S
C3069 C3068 1.404 . S
C3069 H3081 0.930 . S
C3070 C3066 1.524 . S
C3070 H3082 0.956 . S
C3070 H3083 0.961 . S
C3070 H3084 0.961 . S
C3071 C3068 1.539 . S
C3071 H3085 0.958 . S
C3071 H3086 0.961 . S
C3071 H3087 0.960 . S
H3072 C3056 0.931 . S
H3073 C3061 0.929 . S
H3074 C3062 0.960 . S
H3075 C3062 0.962 . S
H3076 C3062 0.960 . S
H3077 C3063 0.961 . S
H3078 C3063 0.961 . S
H3079 C3063 0.961 . S
H3080 C3064 0.931 . S
H3081 C3069 0.930 . S
H3082 C3070 0.956 . S
H3083 C3070 0.961 . S
H3084 C3070 0.961 . S
H3085 C3071 0.958 . S
H3086 C3071 0.961 . S
H3087 C3071 0.960 . S
C3088 C3089 1.391 . S
C3088 C3090 1.394 . S
C3088 H3104 0.931 . S
C3089 C3088 1.391 . S
C3089 C3093 1.376 . S
C3090 C3088 1.394 . S
C3090 C3091 1.369 . S
C3090 C3094 1.531 . S
C3091 C3090 1.369 . S
C3091 C3092 1.410 . S
C3091 C3099 1.503 . S
C3092 C3091 1.410 . S
C3092 C3093 1.392 . S
C3092 C3095 1.511 . S
C3093 C3089 1.376 . S
C3093 C3092 1.392 . S
C3093 H3105 0.929 . S
C3094 C3090 1.531 . S
C3094 H3106 0.960 . S
C3094 H3107 0.962 . S
C3094 H3108 0.960 . S
C3095 C3092 1.511 . S
C3095 H3109 0.961 . S
C3095 H3110 0.961 . S
C3095 H3111 0.961 . S
C3096 C3097 1.370 . S
C3096 C3098 1.363 . S
C3096 H3112 0.931 . S
C3097 C3096 1.370 . S
C3097 C3101 1.408 . S
C3098 C3096 1.363 . S
C3098 C3099 1.370 . S
C3098 C3102 1.524 . S
C3099 C3091 1.503 . S
C3099 C3098 1.370 . S
C3099 C3100 1.403 . S
C3100 C3099 1.403 . S
C3100 C3101 1.404 . S
C3100 C3103 1.539 . S
C3101 C3097 1.408 . S
C3101 C3100 1.404 . S
C3101 H3113 0.930 . S
C3102 C3098 1.524 . S
C3102 H3114 0.956 . S
C3102 H3115 0.961 . S
C3102 H3116 0.961 . S
C3103 C3100 1.539 . S
C3103 H3117 0.958 . S
C3103 H3118 0.961 . S
C3103 H3119 0.960 . S
H3104 C3088 0.931 . S
H3105 C3093 0.929 . S
H3106 C3094 0.960 . S
H3107 C3094 0.962 . S
H3108 C3094 0.960 . S
H3109 C3095 0.961 . S
H3110 C3095 0.961 . S
H3111 C3095 0.961 . S
H3112 C3096 0.931 . S
H3113 C3101 0.930 . S
H3114 C3102 0.956 . S
H3115 C3102 0.961 . S
H3116 C3102 0.961 . S
H3117 C3103 0.958 . S
H3118 C3103 0.961 . S
H3119 C3103 0.960 . S
C3120 C3121 1.391 . S
C3120 C3122 1.394 . S
C3120 H3136 0.931 . S
C3121 C3120 1.391 . S
C3121 C3125 1.376 . S
C3122 C3120 1.394 . S
C3122 C3123 1.369 . S
C3122 C3126 1.531 . S
C3123 C3122 1.369 . S
C3123 C3124 1.410 . S
C3123 C3131 1.503 . S
C3124 C3123 1.410 . S
C3124 C3125 1.392 . S
C3124 C3127 1.511 . S
C3125 C3121 1.376 . S
C3125 C3124 1.392 . S
C3125 H3137 0.929 . S
C3126 C3122 1.531 . S
C3126 H3138 0.960 . S
C3126 H3139 0.962 . S
C3126 H3140 0.960 . S
C3127 C3124 1.511 . S
C3127 H3141 0.961 . S
C3127 H3142 0.961 . S
C3127 H3143 0.961 . S
C3128 C3129 1.370 . S
C3128 C3130 1.363 . S
C3128 H3144 0.931 . S
C3129 C3128 1.370 . S
C3129 C3133 1.408 . S
C3130 C3128 1.363 . S
C3130 C3131 1.370 . S
C3130 C3134 1.524 . S
C3131 C3123 1.503 . S
C3131 C3130 1.370 . S
C3131 C3132 1.403 . S
C3132 C3131 1.403 . S
C3132 C3133 1.404 . S
C3132 C3135 1.539 . S
C3133 C3129 1.408 . S
C3133 C3132 1.404 . S
C3133 H3145 0.930 . S
C3134 C3130 1.524 . S
C3134 H3146 0.956 . S
C3134 H3147 0.961 . S
C3134 H3148 0.961 . S
C3135 C3132 1.539 . S
C3135 H3149 0.958 . S
C3135 H3150 0.961 . S
C3135 H3151 0.960 . S
H3136 C3120 0.931 . S
H3137 C3125 0.929 . S
H3138 C3126 0.960 . S
H3139 C3126 0.962 . S
H3140 C3126 0.960 . S
H3141 C3127 0.961 . S
H3142 C3127 0.961 . S
H3143 C3127 0.961 . S
H3144 C3128 0.931 . S
H3145 C3133 0.930 . S
H3146 C3134 0.956 . S
H3147 C3134 0.961 . S
H3148 C3134 0.961 . S
H3149 C3135 0.958 . S
H3150 C3135 0.961 . S
H3151 C3135 0.960 . S
C3152 C3153 1.391 . S
C3152 C3154 1.394 . S
C3152 H3168 0.931 . S
C3153 C3152 1.391 . S
C3153 C3157 1.376 . S
C3154 C3152 1.394 . S
C3154 C3155 1.369 . S
C3154 C3158 1.531 . S
C3155 C3154 1.369 . S
C3155 C3156 1.410 . S
C3155 C3163 1.503 . S
C3156 C3155 1.410 . S
C3156 C3157 1.392 . S
C3156 C3159 1.511 . S
C3157 C3153 1.376 . S
C3157 C3156 1.392 . S
C3157 H3169 0.929 . S
C3158 C3154 1.531 . S
C3158 H3170 0.960 . S
C3158 H3171 0.962 . S
C3158 H3172 0.960 . S
C3159 C3156 1.511 . S
C3159 H3173 0.961 . S
C3159 H3174 0.961 . S
C3159 H3175 0.961 . S
C3160 C3161 1.370 . S
C3160 C3162 1.363 . S
C3160 H3176 0.931 . S
C3161 C3160 1.370 . S
C3161 C3165 1.408 . S
C3162 C3160 1.363 . S
C3162 C3163 1.370 . S
C3162 C3166 1.524 . S
C3163 C3155 1.503 . S
C3163 C3162 1.370 . S
C3163 C3164 1.403 . S
C3164 C3163 1.403 . S
C3164 C3165 1.404 . S
C3164 C3167 1.539 . S
C3165 C3161 1.408 . S
C3165 C3164 1.404 . S
C3165 H3177 0.930 . S
C3166 C3162 1.524 . S
C3166 H3178 0.956 . S
C3166 H3179 0.961 . S
C3166 H3180 0.961 . S
C3167 C3164 1.539 . S
C3167 H3181 0.958 . S
C3167 H3182 0.961 . S
C3167 H3183 0.960 . S
H3168 C3152 0.931 . S
H3169 C3157 0.929 . S
H3170 C3158 0.960 . S
H3171 C3158 0.962 . S
H3172 C3158 0.960 . S
H3173 C3159 0.961 . S
H3174 C3159 0.961 . S
H3175 C3159 0.961 . S
H3176 C3160 0.931 . S
H3177 C3165 0.930 . S
H3178 C3166 0.956 . S
H3179 C3166 0.961 . S
H3180 C3166 0.961 . S
H3181 C3167 0.958 . S
H3182 C3167 0.961 . S
H3183 C3167 0.960 . S
C3184 C3185 1.391 . S
C3184 C3186 1.394 . S
C3184 H3200 0.931 . S
C3185 C3184 1.391 . S
C3185 C3189 1.376 . S
C3186 C3184 1.394 . S
C3186 C3187 1.369 . S
C3186 C3190 1.531 . S
C3187 C3186 1.369 . S
C3187 C3188 1.410 . S
C3187 C3195 1.503 . S
C3188 C3187 1.410 . S
C3188 C3189 1.392 . S
C3188 C3191 1.511 . S
C3189 C3185 1.376 . S
C3189 C3188 1.392 . S
C3189 H3201 0.929 . S
C3190 C3186 1.531 . S
C3190 H3202 0.960 . S
C3190 H3203 0.962 . S
C3190 H3204 0.960 . S
C3191 C3188 1.511 . S
C3191 H3205 0.961 . S
C3191 H3206 0.961 . S
C3191 H3207 0.961 . S
C3192 C3193 1.370 . S
C3192 C3194 1.363 . S
C3192 H3208 0.931 . S
C3193 C3192 1.370 . S
C3193 C3197 1.408 . S
C3194 C3192 1.363 . S
C3194 C3195 1.370 . S
C3194 C3198 1.524 . S
C3195 C3187 1.503 . S
C3195 C3194 1.370 . S
C3195 C3196 1.403 . S
C3196 C3195 1.403 . S
C3196 C3197 1.404 . S
C3196 C3199 1.539 . S
C3197 C3193 1.408 . S
C3197 C3196 1.404 . S
C3197 H3209 0.930 . S
C3198 C3194 1.524 . S
C3198 H3210 0.956 . S
C3198 H3211 0.961 . S
C3198 H3212 0.961 . S
C3199 C3196 1.539 . S
C3199 H3213 0.958 . S
C3199 H3214 0.961 . S
C3199 H3215 0.960 . S
H3200 C3184 0.931 . S
H3201 C3189 0.929 . S
H3202 C3190 0.960 . S
H3203 C3190 0.962 . S
H3204 C3190 0.960 . S
H3205 C3191 0.961 . S
H3206 C3191 0.961 . S
H3207 C3191 0.961 . S
H3208 C3192 0.931 . S
H3209 C3197 0.930 . S
H3210 C3198 0.956 . S
H3211 C3198 0.961 . S
H3212 C3198 0.961 . S
H3213 C3199 0.958 . S
H3214 C3199 0.961 . S
H3215 C3199 0.960 . S
C3216 C3217 1.391 . S
C3216 C3218 1.394 . S
C3216 H3232 0.931 . S
C3217 C3216 1.391 . S
C3217 C3221 1.376 . S
C3218 C3216 1.394 . S
C3218 C3219 1.369 . S
C3218 C3222 1.531 . S
C3219 C3218 1.369 . S
C3219 C3220 1.410 . S
C3219 C3227 1.503 . S
C3220 C3219 1.410 . S
C3220 C3221 1.392 . S
C3220 C3223 1.511 . S
C3221 C3217 1.376 . S
C3221 C3220 1.392 . S
C3221 H3233 0.929 . S
C3222 C3218 1.531 . S
C3222 H3234 0.960 . S
C3222 H3235 0.962 . S
C3222 H3236 0.960 . S
C3223 C3220 1.511 . S
C3223 H3237 0.961 . S
C3223 H3238 0.961 . S
C3223 H3239 0.961 . S
C3224 C3225 1.370 . S
C3224 C3226 1.363 . S
C3224 H3240 0.931 . S
C3225 C3224 1.370 . S
C3225 C3229 1.408 . S
C3226 C3224 1.363 . S
C3226 C3227 1.370 . S
C3226 C3230 1.524 . S
C3227 C3219 1.503 . S
C3227 C3226 1.370 . S
C3227 C3228 1.403 . S
C3228 C3227 1.403 . S
C3228 C3229 1.404 . S
C3228 C3231 1.539 . S
C3229 C3225 1.408 . S
C3229 C3228 1.404 . S
C3229 H3241 0.930 . S
C3230 C3226 1.524 . S
C3230 H3242 0.956 . S
C3230 H3243 0.961 . S
C3230 H3244 0.961 . S
C3231 C3228 1.539 . S
C3231 H3245 0.958 . S
C3231 H3246 0.961 . S
C3231 H3247 0.960 . S
H3232 C3216 0.931 . S
H3233 C3221 0.929 . S
H3234 C3222 0.960 . S
H3235 C3222 0.962 . S
H3236 C3222 0.960 . S
H3237 C3223 0.961 . S
H3238 C3223 0.961 . S
H3239 C3223 0.961 . S
H3240 C3224 0.931 . S
H3241 C3229 0.930 . S
H3242 C3230 0.956 . S
H3243 C3230 0.961 . S
H3244 C3230 0.961 . S
H3245 C3231 0.958 . S
H3246 C3231 0.961 . S
H3247 C3231 0.960 . S
C3248 C3249 1.391 . S
C3248 C3250 1.394 . S
C3248 H3264 0.931 . S
C3249 C3248 1.391 . S
C3249 C3253 1.376 . S
C3250 C3248 1.394 . S
C3250 C3251 1.369 . S
C3250 C3254 1.531 . S
C3251 C3250 1.369 . S
C3251 C3252 1.410 . S
C3251 C3259 1.503 . S
C3252 C3251 1.410 . S
C3252 C3253 1.392 . S
C3252 C3255 1.511 . S
C3253 C3249 1.376 . S
C3253 C3252 1.392 . S
C3253 H3265 0.929 . S
C3254 C3250 1.531 . S
C3254 H3266 0.960 . S
C3254 H3267 0.962 . S
C3254 H3268 0.960 . S
C3255 C3252 1.511 . S
C3255 H3269 0.961 . S
C3255 H3270 0.961 . S
C3255 H3271 0.961 . S
C3256 C3257 1.370 . S
C3256 C3258 1.363 . S
C3256 H3272 0.931 . S
C3257 C3256 1.370 . S
C3257 C3261 1.408 . S
C3258 C3256 1.363 . S
C3258 C3259 1.370 . S
C3258 C3262 1.524 . S
C3259 C3251 1.503 . S
C3259 C3258 1.370 . S
C3259 C3260 1.403 . S
C3260 C3259 1.403 . S
C3260 C3261 1.404 . S
C3260 C3263 1.539 . S
C3261 C3257 1.408 . S
C3261 C3260 1.404 . S
C3261 H3273 0.930 . S
C3262 C3258 1.524 . S
C3262 H3274 0.956 . S
C3262 H3275 0.961 . S
C3262 H3276 0.961 . S
C3263 C3260 1.539 . S
C3263 H3277 0.958 . S
C3263 H3278 0.961 . S
C3263 H3279 0.960 . S
H3264 C3248 0.931 . S
H3265 C3253 0.929 . S
H3266 C3254 0.960 . S
H3267 C3254 0.962 . S
H3268 C3254 0.960 . S
H3269 C3255 0.961 . S
H3270 C3255 0.961 . S
H3271 C3255 0.961 . S
H3272 C3256 0.931 . S
H3273 C3261 0.930 . S
H3274 C3262 0.956 . S
H3275 C3262 0.961 . S
H3276 C3262 0.961 . S
H3277 C3263 0.958 . S
H3278 C3263 0.961 . S
H3279 C3263 0.960 . S
C3280 C3281 1.391 . S
C3280 C3282 1.394 . S
C3280 H3296 0.931 . S
C3281 C3280 1.391 . S
C3281 C3285 1.376 . S
C3282 C3280 1.394 . S
C3282 C3283 1.369 . S
C3282 C3286 1.531 . S
C3283 C3282 1.369 . S
C3283 C3284 1.410 . S
C3283 C3291 1.503 . S
C3284 C3283 1.410 . S
C3284 C3285 1.392 . S
C3284 C3287 1.511 . S
C3285 C3281 1.376 . S
C3285 C3284 1.392 . S
C3285 H3297 0.929 . S
C3286 C3282 1.531 . S
C3286 H3298 0.960 . S
C3286 H3299 0.962 . S
C3286 H3300 0.960 . S
C3287 C3284 1.511 . S
C3287 H3301 0.961 . S
C3287 H3302 0.961 . S
C3287 H3303 0.961 . S
C3288 C3289 1.370 . S
C3288 C3290 1.363 . S
C3288 H3304 0.931 . S
C3289 C3288 1.370 . S
C3289 C3293 1.408 . S
C3290 C3288 1.363 . S
C3290 C3291 1.370 . S
C3290 C3294 1.524 . S
C3291 C3283 1.503 . S
C3291 C3290 1.370 . S
C3291 C3292 1.403 . S
C3292 C3291 1.403 . S
C3292 C3293 1.404 . S
C3292 C3295 1.539 . S
C3293 C3289 1.408 . S
C3293 C3292 1.404 . S
C3293 H3305 0.930 . S
C3294 C3290 1.524 . S
C3294 H3306 0.956 . S
C3294 H3307 0.961 . S
C3294 H3308 0.961 . S
C3295 C3292 1.539 . S
C3295 H3309 0.958 . S
C3295 H3310 0.961 . S
C3295 H3311 0.960 . S
H3296 C3280 0.931 . S
H3297 C3285 0.929 . S
H3298 C3286 0.960 . S
H3299 C3286 0.962 . S
H3300 C3286 0.960 . S
H3301 C3287 0.961 . S
H3302 C3287 0.961 . S
H3303 C3287 0.961 . S
H3304 C3288 0.931 . S
H3305 C3293 0.930 . S
H3306 C3294 0.956 . S
H3307 C3294 0.961 . S
H3308 C3294 0.961 . S
H3309 C3295 0.958 . S
H3310 C3295 0.961 . S
H3311 C3295 0.960 . S
C3312 C3313 1.391 . S
C3312 C3314 1.394 . S
C3312 H3328 0.931 . S
C3313 C3312 1.391 . S
C3313 C3317 1.376 . S
C3314 C3312 1.394 . S
C3314 C3315 1.369 . S
C3314 C3318 1.531 . S
C3315 C3314 1.369 . S
C3315 C3316 1.410 . S
C3315 C3323 1.503 . S
C3316 C3315 1.410 . S
C3316 C3317 1.392 . S
C3316 C3319 1.511 . S
C3317 C3313 1.376 . S
C3317 C3316 1.392 . S
C3317 H3329 0.929 . S
C3318 C3314 1.531 . S
C3318 H3330 0.960 . S
C3318 H3331 0.962 . S
C3318 H3332 0.960 . S
C3319 C3316 1.511 . S
C3319 H3333 0.961 . S
C3319 H3334 0.961 . S
C3319 H3335 0.961 . S
C3320 C3321 1.370 . S
C3320 C3322 1.363 . S
C3320 H3336 0.931 . S
C3321 C3320 1.370 . S
C3321 C3325 1.408 . S
C3322 C3320 1.363 . S
C3322 C3323 1.370 . S
C3322 C3326 1.524 . S
C3323 C3315 1.503 . S
C3323 C3322 1.370 . S
C3323 C3324 1.403 . S
C3324 C3323 1.403 . S
C3324 C3325 1.404 . S
C3324 C3327 1.539 . S
C3325 C3321 1.408 . S
C3325 C3324 1.404 . S
C3325 H3337 0.930 . S
C3326 C3322 1.524 . S
C3326 H3338 0.956 . S
C3326 H3339 0.961 . S
C3326 H3340 0.961 . S
C3327 C3324 1.539 . S
C3327 H3341 0.958 . S
C3327 H3342 0.961 . S
C3327 H3343 0.960 . S
H3328 C3312 0.931 . S
H3329 C3317 0.929 . S
H3330 C3318 0.960 . S
H3331 C3318 0.962 . S
H3332 C3318 0.960 . S
H3333 C3319 0.961 . S
H3334 C3319 0.961 . S
H3335 C3319 0.961 . S
H3336 C3320 0.931 . S
H3337 C3325 0.930 . S
H3338 C3326 0.956 . S
H3339 C3326 0.961 . S
H3340 C3326 0.961 . S
H3341 C3327 0.958 . S
H3342 C3327 0.961 . S
H3343 C3327 0.960 . S
C3344 C3345 1.391 . S
C3344 C3346 1.394 . S
C3344 H3360 0.931 . S
C3345 C3344 1.391 . S
C3345 C3349 1.376 . S
C3346 C3344 1.394 . S
C3346 C3347 1.369 . S
C3346 C3350 1.531 . S
C3347 C3346 1.369 . S
C3347 C3348 1.410 . S
C3347 C3355 1.503 . S
C3348 C3347 1.410 . S
C3348 C3349 1.392 . S
C3348 C3351 1.511 . S
C3349 C3345 1.376 . S
C3349 C3348 1.392 . S
C3349 H3361 0.929 . S
C3350 C3346 1.531 . S
C3350 H3362 0.960 . S
C3350 H3363 0.962 . S
C3350 H3364 0.960 . S
C3351 C3348 1.511 . S
C3351 H3365 0.961 . S
C3351 H3366 0.961 . S
C3351 H3367 0.961 . S
C3352 C3353 1.370 . S
C3352 C3354 1.363 . S
C3352 H3368 0.931 . S
C3353 C3352 1.370 . S
C3353 C3357 1.408 . S
C3354 C3352 1.363 . S
C3354 C3355 1.370 . S
C3354 C3358 1.524 . S
C3355 C3347 1.503 . S
C3355 C3354 1.370 . S
C3355 C3356 1.403 . S
C3356 C3355 1.403 . S
C3356 C3357 1.404 . S
C3356 C3359 1.539 . S
C3357 C3353 1.408 . S
C3357 C3356 1.404 . S
C3357 H3369 0.930 . S
C3358 C3354 1.524 . S
C3358 H3370 0.956 . S
C3358 H3371 0.961 . S
C3358 H3372 0.961 . S
C3359 C3356 1.539 . S
C3359 H3373 0.958 . S
C3359 H3374 0.961 . S
C3359 H3375 0.960 . S
H3360 C3344 0.931 . S
H3361 C3349 0.929 . S
H3362 C3350 0.960 . S
H3363 C3350 0.962 . S
H3364 C3350 0.960 . S
H3365 C3351 0.961 . S
H3366 C3351 0.961 . S
H3367 C3351 0.961 . S
H3368 C3352 0.931 . S
H3369 C3357 0.930 . S
H3370 C3358 0.956 . S
H3371 C3358 0.961 . S
H3372 C3358 0.961 . S
H3373 C3359 0.958 . S
H3374 C3359 0.961 . S
H3375 C3359 0.960 . S
C3376 C3377 1.391 . S
C3376 C3378 1.394 . S
C3376 H3392 0.931 . S
C3377 C3376 1.391 . S
C3377 C3381 1.376 . S
C3378 C3376 1.394 . S
C3378 C3379 1.369 . S
C3378 C3382 1.531 . S
C3379 C3378 1.369 . S
C3379 C3380 1.410 . S
C3379 C3387 1.503 . S
C3380 C3379 1.410 . S
C3380 C3381 1.392 . S
C3380 C3383 1.511 . S
C3381 C3377 1.376 . S
C3381 C3380 1.392 . S
C3381 H3393 0.929 . S
C3382 C3378 1.531 . S
C3382 H3394 0.960 . S
C3382 H3395 0.962 . S
C3382 H3396 0.960 . S
C3383 C3380 1.511 . S
C3383 H3397 0.961 . S
C3383 H3398 0.961 . S
C3383 H3399 0.961 . S
C3384 C3385 1.370 . S
C3384 C3386 1.363 . S
C3384 H3400 0.931 . S
C3385 C3384 1.370 . S
C3385 C3389 1.408 . S
C3386 C3384 1.363 . S
C3386 C3387 1.370 . S
C3386 C3390 1.524 . S
C3387 C3379 1.503 . S
C3387 C3386 1.370 . S
C3387 C3388 1.403 . S
C3388 C3387 1.403 . S
C3388 C3389 1.404 . S
C3388 C3391 1.539 . S
C3389 C3385 1.408 . S
C3389 C3388 1.404 . S
C3389 H3401 0.930 . S
C3390 C3386 1.524 . S
C3390 H3402 0.956 . S
C3390 H3403 0.961 . S
C3390 H3404 0.961 . S
C3391 C3388 1.539 . S
C3391 H3405 0.958 . S
C3391 H3406 0.961 . S
C3391 H3407 0.960 . S
H3392 C3376 0.931 . S
H3393 C3381 0.929 . S
H3394 C3382 0.960 . S
H3395 C3382 0.962 . S
H3396 C3382 0.960 . S
H3397 C3383 0.961 . S
H3398 C3383 0.961 . S
H3399 C3383 0.961 . S
H3400 C3384 0.931 . S
H3401 C3389 0.930 . S
H3402 C3390 0.956 . S
H3403 C3390 0.961 . S
H3404 C3390 0.961 . S
H3405 C3391 0.958 . S
H3406 C3391 0.961 . S
H3407 C3391 0.960 . S
C3408 C3409 1.391 . S
C3408 C3410 1.394 . S
C3408 H3424 0.931 . S
C3409 C3408 1.391 . S
C3409 C3413 1.376 . S
C3410 C3408 1.394 . S
C3410 C3411 1.369 . S
C3410 C3414 1.531 . S
C3411 C3410 1.369 . S
C3411 C3412 1.410 . S
C3411 C3419 1.503 . S
C3412 C3411 1.410 . S
C3412 C3413 1.392 . S
C3412 C3415 1.511 . S
C3413 C3409 1.376 . S
C3413 C3412 1.392 . S
C3413 H3425 0.929 . S
C3414 C3410 1.531 . S
C3414 H3426 0.960 . S
C3414 H3427 0.962 . S
C3414 H3428 0.960 . S
C3415 C3412 1.511 . S
C3415 H3429 0.961 . S
C3415 H3430 0.961 . S
C3415 H3431 0.961 . S
C3416 C3417 1.370 . S
C3416 C3418 1.363 . S
C3416 H3432 0.931 . S
C3417 C3416 1.370 . S
C3417 C3421 1.408 . S
C3418 C3416 1.363 . S
C3418 C3419 1.370 . S
C3418 C3422 1.524 . S
C3419 C3411 1.503 . S
C3419 C3418 1.370 . S
C3419 C3420 1.403 . S
C3420 C3419 1.403 . S
C3420 C3421 1.404 . S
C3420 C3423 1.539 . S
C3421 C3417 1.408 . S
C3421 C3420 1.404 . S
C3421 H3433 0.930 . S
C3422 C3418 1.524 . S
C3422 H3434 0.956 . S
C3422 H3435 0.961 . S
C3422 H3436 0.961 . S
C3423 C3420 1.539 . S
C3423 H3437 0.958 . S
C3423 H3438 0.961 . S
C3423 H3439 0.960 . S
H3424 C3408 0.931 . S
H3425 C3413 0.929 . S
H3426 C3414 0.960 . S
H3427 C3414 0.962 . S
H3428 C3414 0.960 . S
H3429 C3415 0.961 . S
H3430 C3415 0.961 . S
H3431 C3415 0.961 . S
H3432 C3416 0.931 . S
H3433 C3421 0.930 . S
H3434 C3422 0.956 . S
H3435 C3422 0.961 . S
H3436 C3422 0.961 . S
H3437 C3423 0.958 . S
H3438 C3423 0.961 . S
H3439 C3423 0.960 . S
C3440 C3441 1.391 . S
C3440 C3442 1.394 . S
C3440 H3456 0.931 . S
C3441 C3440 1.391 . S
C3441 C3445 1.376 . S
C3442 C3440 1.394 . S
C3442 C3443 1.369 . S
C3442 C3446 1.531 . S
C3443 C3442 1.369 . S
C3443 C3444 1.410 . S
C3443 C3451 1.503 . S
C3444 C3443 1.410 . S
C3444 C3445 1.392 . S
C3444 C3447 1.511 . S
C3445 C3441 1.376 . S
C3445 C3444 1.392 . S
C3445 H3457 0.929 . S
C3446 C3442 1.531 . S
C3446 H3458 0.960 . S
C3446 H3459 0.962 . S
C3446 H3460 0.960 . S
C3447 C3444 1.511 . S
C3447 H3461 0.961 . S
C3447 H3462 0.961 . S
C3447 H3463 0.961 . S
C3448 C3449 1.370 . S
C3448 C3450 1.363 . S
C3448 H3464 0.931 . S
C3449 C3448 1.370 . S
C3449 C3453 1.408 . S
C3450 C3448 1.363 . S
C3450 C3451 1.370 . S
C3450 C3454 1.524 . S
C3451 C3443 1.503 . S
C3451 C3450 1.370 . S
C3451 C3452 1.403 . S
C3452 C3451 1.403 . S
C3452 C3453 1.404 . S
C3452 C3455 1.539 . S
C3453 C3449 1.408 . S
C3453 C3452 1.404 . S
C3453 H3465 0.930 . S
C3454 C3450 1.524 . S
C3454 H3466 0.956 . S
C3454 H3467 0.961 . S
C3454 H3468 0.961 . S
C3455 C3452 1.539 . S
C3455 H3469 0.958 . S
C3455 H3470 0.961 . S
C3455 H3471 0.960 . S
H3456 C3440 0.931 . S
H3457 C3445 0.929 . S
H3458 C3446 0.960 . S
H3459 C3446 0.962 . S
H3460 C3446 0.960 . S
H3461 C3447 0.961 . S
H3462 C3447 0.961 . S
H3463 C3447 0.961 . S
H3464 C3448 0.931 . S
H3465 C3453 0.930 . S
H3466 C3454 0.956 . S
H3467 C3454 0.961 . S
H3468 C3454 0.961 . S
H3469 C3455 0.958 . S
H3470 C3455 0.961 . S
H3471 C3455 0.960 . S
C3472 C3473 1.391 . S
C3472 C3474 1.394 . S
C3472 H3488 0.931 . S
C3473 C3472 1.391 . S
C3473 C3477 1.376 . S
C3474 C3472 1.394 . S
C3474 C3475 1.369 . S
C3474 C3478 1.531 . S
C3475 C3474 1.369 . S
C3475 C3476 1.410 . S
C3475 C3483 1.503 . S
C3476 C3475 1.410 . S
C3476 C3477 1.392 . S
C3476 C3479 1.511 . S
C3477 C3473 1.376 . S
C3477 C3476 1.392 . S
C3477 H3489 0.929 . S
C3478 C3474 1.531 . S
C3478 H3490 0.960 . S
C3478 H3491 0.962 . S
C3478 H3492 0.960 . S
C3479 C3476 1.511 . S
C3479 H3493 0.961 . S
C3479 H3494 0.961 . S
C3479 H3495 0.961 . S
C3480 C3481 1.370 . S
C3480 C3482 1.363 . S
C3480 H3496 0.931 . S
C3481 C3480 1.370 . S
C3481 C3485 1.408 . S
C3482 C3480 1.363 . S
C3482 C3483 1.370 . S
C3482 C3486 1.524 . S
C3483 C3475 1.503 . S
C3483 C3482 1.370 . S
C3483 C3484 1.403 . S
C3484 C3483 1.403 . S
C3484 C3485 1.404 . S
C3484 C3487 1.539 . S
C3485 C3481 1.408 . S
C3485 C3484 1.404 . S
C3485 H3497 0.930 . S
C3486 C3482 1.524 . S
C3486 H3498 0.956 . S
C3486 H3499 0.961 . S
C3486 H3500 0.961 . S
C3487 C3484 1.539 . S
C3487 H3501 0.958 . S
C3487 H3502 0.961 . S
C3487 H3503 0.960 . S
H3488 C3472 0.931 . S
H3489 C3477 0.929 . S
H3490 C3478 0.960 . S
H3491 C3478 0.962 . S
H3492 C3478 0.960 . S
H3493 C3479 0.961 . S
H3494 C3479 0.961 . S
H3495 C3479 0.961 . S
H3496 C3480 0.931 . S
H3497 C3485 0.930 . S
H3498 C3486 0.956 . S
H3499 C3486 0.961 . S
H3500 C3486 0.961 . S
H3501 C3487 0.958 . S
H3502 C3487 0.961 . S
H3503 C3487 0.960 . S
C3504 C3505 1.391 . S
C3504 C3506 1.394 . S
C3504 H3520 0.931 . S
C3505 C3504 1.391 . S
C3505 C3509 1.376 . S
C3506 C3504 1.394 . S
C3506 C3507 1.369 . S
C3506 C3510 1.531 . S
C3507 C3506 1.369 . S
C3507 C3508 1.410 . S
C3507 C3515 1.503 . S
C3508 C3507 1.410 . S
C3508 C3509 1.392 . S
C3508 C3511 1.511 . S
C3509 C3505 1.376 . S
C3509 C3508 1.392 . S
C3509 H3521 0.929 . S
C3510 C3506 1.531 . S
C3510 H3522 0.960 . S
C3510 H3523 0.962 . S
C3510 H3524 0.960 . S
C3511 C3508 1.511 . S
C3511 H3525 0.961 . S
C3511 H3526 0.961 . S
C3511 H3527 0.961 . S
C3512 C3513 1.370 . S
C3512 C3514 1.363 . S
C3512 H3528 0.931 . S
C3513 C3512 1.370 . S
C3513 C3517 1.408 . S
C3514 C3512 1.363 . S
C3514 C3515 1.370 . S
C3514 C3518 1.524 . S
C3515 C3507 1.503 . S
C3515 C3514 1.370 . S
C3515 C3516 1.403 . S
C3516 C3515 1.403 . S
C3516 C3517 1.404 . S
C3516 C3519 1.539 . S
C3517 C3513 1.408 . S
C3517 C3516 1.404 . S
C3517 H3529 0.930 . S
C3518 C3514 1.524 . S
C3518 H3530 0.956 . S
C3518 H3531 0.961 . S
C3518 H3532 0.961 . S
C3519 C3516 1.539 . S
C3519 H3533 0.958 . S
C3519 H3534 0.961 . S
C3519 H3535 0.960 . S
H3520 C3504 0.931 . S
H3521 C3509 0.929 . S
H3522 C3510 0.960 . S
H3523 C3510 0.962 . S
H3524 C3510 0.960 . S
H3525 C3511 0.961 . S
H3526 C3511 0.961 . S
H3527 C3511 0.961 . S
H3528 C3512 0.931 . S
H3529 C3517 0.930 . S
H3530 C3518 0.956 . S
H3531 C3518 0.961 . S
H3532 C3518 0.961 . S
H3533 C3519 0.958 . S
H3534 C3519 0.961 . S
H3535 C3519 0.960 . S
C3536 C3537 1.391 . S
C3536 C3538 1.394 . S
C3536 H3552 0.931 . S
C3537 C3536 1.391 . S
C3537 C3541 1.376 . S
C3538 C3536 1.394 . S
C3538 C3539 1.369 . S
C3538 C3542 1.531 . S
C3539 C3538 1.369 . S
C3539 C3540 1.410 . S
C3539 C3547 1.503 . S
C3540 C3539 1.410 . S
C3540 C3541 1.392 . S
C3540 C3543 1.511 . S
C3541 C3537 1.376 . S
C3541 C3540 1.392 . S
C3541 H3553 0.929 . S
C3542 C3538 1.531 . S
C3542 H3554 0.960 . S
C3542 H3555 0.962 . S
C3542 H3556 0.960 . S
C3543 C3540 1.511 . S
C3543 H3557 0.961 . S
C3543 H3558 0.961 . S
C3543 H3559 0.961 . S
C3544 C3545 1.370 . S
C3544 C3546 1.363 . S
C3544 H3560 0.931 . S
C3545 C3544 1.370 . S
C3545 C3549 1.408 . S
C3546 C3544 1.363 . S
C3546 C3547 1.370 . S
C3546 C3550 1.524 . S
C3547 C3539 1.503 . S
C3547 C3546 1.370 . S
C3547 C3548 1.403 . S
C3548 C3547 1.403 . S
C3548 C3549 1.404 . S
C3548 C3551 1.539 . S
C3549 C3545 1.408 . S
C3549 C3548 1.404 . S
C3549 H3561 0.930 . S
C3550 C3546 1.524 . S
C3550 H3562 0.956 . S
C3550 H3563 0.961 . S
C3550 H3564 0.961 . S
C3551 C3548 1.539 . S
C3551 H3565 0.958 . S
C3551 H3566 0.961 . S
C3551 H3567 0.960 . S
H3552 C3536 0.931 . S
H3553 C3541 0.929 . S
H3554 C3542 0.960 . S
H3555 C3542 0.962 . S
H3556 C3542 0.960 . S
H3557 C3543 0.961 . S
H3558 C3543 0.961 . S
H3559 C3543 0.961 . S
H3560 C3544 0.931 . S
H3561 C3549 0.930 . S
H3562 C3550 0.956 . S
H3563 C3550 0.961 . S
H3564 C3550 0.961 . S
H3565 C3551 0.958 . S
H3566 C3551 0.961 . S
H3567 C3551 0.960 . S
C3568 C3569 1.391 . S
C3568 C3570 1.394 . S
C3568 H3584 0.931 . S
C3569 C3568 1.391 . S
C3569 C3573 1.376 . S
C3570 C3568 1.394 . S
C3570 C3571 1.369 . S
C3570 C3574 1.531 . S
C3571 C3570 1.369 . S
C3571 C3572 1.410 . S
C3571 C3579 1.503 . S
C3572 C3571 1.410 . S
C3572 C3573 1.392 . S
C3572 C3575 1.511 . S
C3573 C3569 1.376 . S
C3573 C3572 1.392 . S
C3573 H3585 0.929 . S
C3574 C3570 1.531 . S
C3574 H3586 0.960 . S
C3574 H3587 0.962 . S
C3574 H3588 0.960 . S
C3575 C3572 1.511 . S
C3575 H3589 0.961 . S
C3575 H3590 0.961 . S
C3575 H3591 0.961 . S
C3576 C3577 1.370 . S
C3576 C3578 1.363 . S
C3576 H3592 0.931 . S
C3577 C3576 1.370 . S
C3577 C3581 1.408 . S
C3578 C3576 1.363 . S
C3578 C3579 1.370 . S
C3578 C3582 1.524 . S
C3579 C3571 1.503 . S
C3579 C3578 1.370 . S
C3579 C3580 1.403 . S
C3580 C3579 1.403 . S
C3580 C3581 1.404 . S
C3580 C3583 1.539 . S
C3581 C3577 1.408 . S
C3581 C3580 1.404 . S
C3581 H3593 0.930 . S
C3582 C3578 1.524 . S
C3582 H3594 0.956 . S
C3582 H3595 0.961 . S
C3582 H3596 0.961 . S
C3583 C3580 1.539 . S
C3583 H3597 0.958 . S
C3583 H3598 0.961 . S
C3583 H3599 0.960 . S
H3584 C3568 0.931 . S
H3585 C3573 0.929 . S
H3586 C3574 0.960 . S
H3587 C3574 0.962 . S
H3588 C3574 0.960 . S
H3589 C3575 0.961 . S
H3590 C3575 0.961 . S
H3591 C3575 0.961 . S
H3592 C3576 0.931 . S
H3593 C3581 0.930 . S
H3594 C3582 0.956 . S
H3595 C3582 0.961 . S
H3596 C3582 0.961 . S
H3597 C3583 0.958 . S
H3598 C3583 0.961 . S
H3599 C3583 0.960 . S
C3600 C3601 1.391 . S
C3600 C3602 1.394 . S
C3600 H3616 0.931 . S
C3601 C3600 1.391 . S
C3601 C3605 1.376 . S
C3602 C3600 1.394 . S
C3602 C3603 1.369 . S
C3602 C3606 1.531 . S
C3603 C3602 1.369 . S
C3603 C3604 1.410 . S
C3603 C3611 1.503 . S
C3604 C3603 1.410 . S
C3604 C3605 1.392 . S
C3604 C3607 1.511 . S
C3605 C3601 1.376 . S
C3605 C3604 1.392 . S
C3605 H3617 0.929 . S
C3606 C3602 1.531 . S
C3606 H3618 0.960 . S
C3606 H3619 0.962 . S
C3606 H3620 0.960 . S
C3607 C3604 1.511 . S
C3607 H3621 0.961 . S
C3607 H3622 0.961 . S
C3607 H3623 0.961 . S
C3608 C3609 1.370 . S
C3608 C3610 1.363 . S
C3608 H3624 0.931 . S
C3609 C3608 1.370 . S
C3609 C3613 1.408 . S
C3610 C3608 1.363 . S
C3610 C3611 1.370 . S
C3610 C3614 1.524 . S
C3611 C3603 1.503 . S
C3611 C3610 1.370 . S
C3611 C3612 1.403 . S
C3612 C3611 1.403 . S
C3612 C3613 1.404 . S
C3612 C3615 1.539 . S
C3613 C3609 1.408 . S
C3613 C3612 1.404 . S
C3613 H3625 0.930 . S
C3614 C3610 1.524 . S
C3614 H3626 0.956 . S
C3614 H3627 0.961 . S
C3614 H3628 0.961 . S
C3615 C3612 1.539 . S
C3615 H3629 0.958 . S
C3615 H3630 0.961 . S
C3615 H3631 0.960 . S
H3616 C3600 0.931 . S
H3617 C3605 0.929 . S
H3618 C3606 0.960 . S
H3619 C3606 0.962 . S
H3620 C3606 0.960 . S
H3621 C3607 0.961 . S
H3622 C3607 0.961 . S
H3623 C3607 0.961 . S
H3624 C3608 0.931 . S
H3625 C3613 0.930 . S
H3626 C3614 0.956 . S
H3627 C3614 0.961 . S
H3628 C3614 0.961 . S
H3629 C3615 0.958 . S
H3630 C3615 0.961 . S
H3631 C3615 0.960 . S
C3632 C3633 1.391 . S
C3632 C3634 1.394 . S
C3632 H3648 0.931 . S
C3633 C3632 1.391 . S
C3633 C3637 1.376 . S
C3634 C3632 1.394 . S
C3634 C3635 1.369 . S
C3634 C3638 1.531 . S
C3635 C3634 1.369 . S
C3635 C3636 1.410 . S
C3635 C3643 1.503 . S
C3636 C3635 1.410 . S
C3636 C3637 1.392 . S
C3636 C3639 1.511 . S
C3637 C3633 1.376 . S
C3637 C3636 1.392 . S
C3637 H3649 0.929 . S
C3638 C3634 1.531 . S
C3638 H3650 0.960 . S
C3638 H3651 0.962 . S
C3638 H3652 0.960 . S
C3639 C3636 1.511 . S
C3639 H3653 0.961 . S
C3639 H3654 0.961 . S
C3639 H3655 0.961 . S
C3640 C3641 1.370 . S
C3640 C3642 1.363 . S
C3640 H3656 0.931 . S
C3641 C3640 1.370 . S
C3641 C3645 1.408 . S
C3642 C3640 1.363 . S
C3642 C3643 1.370 . S
C3642 C3646 1.524 . S
C3643 C3635 1.503 . S
C3643 C3642 1.370 . S
C3643 C3644 1.403 . S
C3644 C3643 1.403 . S
C3644 C3645 1.404 . S
C3644 C3647 1.539 . S
C3645 C3641 1.408 . S
C3645 C3644 1.404 . S
C3645 H3657 0.930 . S
C3646 C3642 1.524 . S
C3646 H3658 0.956 . S
C3646 H3659 0.961 . S
C3646 H3660 0.961 . S
C3647 C3644 1.539 . S
C3647 H3661 0.958 . S
C3647 H3662 0.961 . S
C3647 H3663 0.960 . S
H3648 C3632 0.931 . S
H3649 C3637 0.929 . S
H3650 C3638 0.960 . S
H3651 C3638 0.962 . S
H3652 C3638 0.960 . S
H3653 C3639 0.961 . S
H3654 C3639 0.961 . S
H3655 C3639 0.961 . S
H3656 C3640 0.931 . S
H3657 C3645 0.930 . S
H3658 C3646 0.956 . S
H3659 C3646 0.961 . S
H3660 C3646 0.961 . S
H3661 C3647 0.958 . S
H3662 C3647 0.961 . S
H3663 C3647 0.960 . S
C3664 C3665 1.391 . S
C3664 C3666 1.394 . S
C3664 H3680 0.931 . S
C3665 C3664 1.391 . S
C3665 C3669 1.376 . S
C3666 C3664 1.394 . S
C3666 C3667 1.369 . S
C3666 C3670 1.531 . S
C3667 C3666 1.369 . S
C3667 C3668 1.410 . S
C3667 C3675 1.503 . S
C3668 C3667 1.410 . S
C3668 C3669 1.392 . S
C3668 C3671 1.511 . S
C3669 C3665 1.376 . S
C3669 C3668 1.392 . S
C3669 H3681 0.929 . S
C3670 C3666 1.531 . S
C3670 H3682 0.960 . S
C3670 H3683 0.962 . S
C3670 H3684 0.960 . S
C3671 C3668 1.511 . S
C3671 H3685 0.961 . S
C3671 H3686 0.961 . S
C3671 H3687 0.961 . S
C3672 C3673 1.370 . S
C3672 C3674 1.363 . S
C3672 H3688 0.931 . S
C3673 C3672 1.370 . S
C3673 C3677 1.408 . S
C3674 C3672 1.363 . S
C3674 C3675 1.370 . S
C3674 C3678 1.524 . S
C3675 C3667 1.503 . S
C3675 C3674 1.370 . S
C3675 C3676 1.403 . S
C3676 C3675 1.403 . S
C3676 C3677 1.404 . S
C3676 C3679 1.539 . S
C3677 C3673 1.408 . S
C3677 C3676 1.404 . S
C3677 H3689 0.930 . S
C3678 C3674 1.524 . S
C3678 H3690 0.956 . S
C3678 H3691 0.961 . S
C3678 H3692 0.961 . S
C3679 C3676 1.539 . S
C3679 H3693 0.958 . S
C3679 H3694 0.961 . S
C3679 H3695 0.960 . S
H3680 C3664 0.931 . S
H3681 C3669 0.929 . S
H3682 C3670 0.960 . S
H3683 C3670 0.962 . S
H3684 C3670 0.960 . S
H3685 C3671 0.961 . S
H3686 C3671 0.961 . S
H3687 C3671 0.961 . S
H3688 C3672 0.931 . S
H3689 C3677 0.930 . S
H3690 C3678 0.956 . S
H3691 C3678 0.961 . S
H3692 C3678 0.961 . S
H3693 C3679 0.958 . S
H3694 C3679 0.961 . S
H3695 C3679 0.960 . S
C625 C82 1.369 . S
C633 C4 1.359 . S
C657 C17 1.350 . S
C665 C101 1.367 . S
C689 C36 1.350 . S
C697 C62 1.364 . S
C721 C69 1.372 . S
C729 C43 1.357 . S
C753 C446 1.367 . S
C761 C114 1.360 . S
C785 C459 1.368 . S
C793 C127 1.360 . S
C817 C134 1.349 . S
C825 C426 1.365 . S
C849 C147 1.350 . S
C857 C433 1.367 . S
C881 C504 1.369 . S
C889 C160 1.357 . S
C913 C517 1.371 . S
C921 C179 1.358 . S
C945 C472 1.347 . S
C953 C192 1.366 . S
C977 C485 1.368 . S
C985 C199 1.359 . S
C1009 C212 1.363 . S
C1017 C543 1.359 . S
C1041 C231 1.365 . S
C1049 C530 1.358 . S
C1073 C244 1.351 . S
C1081 C303 1.364 . S
C1105 C589 1.355 . S
C1113 C257 1.365 . S
C1137 C602 1.370 . S
C1145 C270 1.357 . S
C1169 C563 1.369 . S
C1177 C283 1.357 . S
C1201 C576 1.350 . S
C1209 C296 1.365 . S
C1233 C400 1.368 . S
C1241 C322 1.360 . S
C1265 C407 1.356 . S
C1273 C335 1.365 . S
C1297 C342 1.347 . S
C1305 C374 1.368 . S
C1329 C355 1.362 . S
C1337 C381 1.359 . S
C1361 C615 1.367 . S
C1369 C556 1.360 . S
C1393 C211 1.172 . S
C1401 C5 1.210 . S
C1425 C18 1.201 1_655 S
C1433 C614 1.189 . S
C1457 C29 1.202 . S
C1465 C278 1.190 . S
C1489 C601 1.187 . S
C1497 C44 1.213 . S
C1521 C55 1.210 . S
C1529 C538 1.197 . S
C1553 C551 1.210 . S
C1561 C70 1.217 . S
C1585 C83 1.200 . S
C1593 C562 1.188 . S
C1617 C265 1.215 . S
C1625 C94 1.218 1_655 S
C1649 C107 1.199 . S
C1657 C3 1.188 . S
C1681 C16 1.220 . S
C1689 C120 1.220 . S
C1713 C135 1.220 . S
C1721 C31 1.207 . S
C1745 C148 1.213 1_554 S
C1753 C42 1.201 . S
C1777 C161 1.224 . S
C1785 C57 1.210 . S
C1809 C68 1.174 . S
C1817 C172 1.210 . S
C1841 C185 1.225 . S
C1849 C81 1.210 . S
C1873 C200 1.212 1_556 S
C1881 C96 1.198 . S
C1905 C213 1.225 . S
C1913 C109 1.210 . S
C1937 C224 1.225 . S
C1945 C471 1.210 . S
C1969 C484 1.208 . S
C1977 C237 1.217 . S
C2001 C499 1.194 . S
C2009 C250 1.215 . S
C2033 C263 1.216 1_565 S
C2041 C198 1.202 . S
C2065 C276 1.225 . S
C2073 C133 1.210 . S
C2097 C458 1.210 . S
C2105 C289 1.218 . S
C2129 C432 1.186 . S
C2137 C304 1.213 . S
C2161 C315 1.207 . S
C2169 C525 1.195 . S
C2193 C328 1.220 . S
C2201 C302 1.206 . S
C2225 C343 1.214 . S
C2233 C588 1.201 . S
C2257 C356 1.218 1_455 S
C2265 C291 1.205 . S
C2289 C367 1.215 . S
C2297 C226 1.202 . S
C2321 C239 1.175 . S
C2329 C382 1.211 1_455 S
C2353 C252 1.170 . S
C2361 C393 1.210 . S
C2385 C575 1.213 . S
C2393 C408 1.218 . S
C2417 C317 1.210 . S
C2425 C419 1.217 . S
C2449 C330 1.216 . S
C2457 C434 1.219 1_554 S
C2481 C447 1.199 . S
C2489 C341 1.188 . S
C2513 C354 1.219 . S
C2521 C460 1.220 . S
C2545 C473 1.204 . S
C2553 C369 1.192 . S
C2577 C380 1.211 . S
C2585 C486 1.218 1_556 S
C2609 C497 1.223 . S
C2617 C395 1.208 . S
C2641 C406 1.217 . S
C2649 C510 1.219 . S
C2673 C523 1.224 . S
C2681 C421 1.210 . S
C2705 C536 1.222 . S
C2713 C159 1.208 . S
C2737 C174 1.209 . S
C2745 C549 1.217 1_545 S
C2769 C564 1.202 . S
C2777 C187 1.191 . S
C2801 C577 1.203 . S
C2809 C512 1.192 . S
C2833 C445 1.183 . S
C2841 C590 1.212 . S
C2865 C603 1.208 1_565 S
C2873 C146 1.196 . S
C2897 C122 1.222 . S
C2905 C616 1.220 1_545 S
C2929 C121 0.994 . S
C2937 C10 1.006 . S
C2961 C23 0.996 . S
C2969 C140 1.009 . S
C2993 C153 1.004 . S
C3001 C30 1.005 . S
C3025 C108 1.002 . S
C3033 C49 1.013 . S
C3057 C56 1.007 . S
C3065 C205 1.014 . S
C3089 C75 0.997 . S
C3097 C166 1.010 . S
C3121 C173 0.994 . S
C3129 C88 1.007 . S
C3153 C186 1.022 . S
C3161 C95 1.016 . S
C3185 C218 1.014 . S
C3193 C238 1.016 . S
C3217 C225 0.997 . S
C3225 C608 1.010 . S
C3249 C251 1.000 . S
C3257 C621 1.004 . S
C3281 C595 1.023 . S
C3289 C264 1.015 . S
C3313 C582 1.004 . S
C3321 C277 1.005 . S
C3345 C537 0.994 . S
C3353 C290 1.006 . S
C3377 C309 1.014 . S
C3385 C569 1.008 . S
C3409 C439 1.005 . S
C3417 C316 1.005 . S
C3441 C452 1.023 . S
C3449 C329 1.014 . S
C3473 C348 1.021 . S
C3481 C465 1.012 . S
C3505 C420 0.995 . S
C3513 C361 1.005 . S
C3537 C511 0.999 . S
C3545 C368 1.011 . S
C3569 C478 1.022 . S
C3577 C387 1.013 . S
C3601 C394 1.003 . S
C3609 C491 1.013 . S
C3633 C498 1.010 . S
C3641 C413 1.015 . S
C3665 C550 1.021 . S
C3673 C524 1.016 . S
