# Generated by pormake.
# Topology irl, (4)-cn, num edge types: 1
# Building blocks:
#     Node 0, Type 0, BuildingBlock: CEKHIL_clean_sbu_0, # of connection points: 4
#     Node 1, Type 0, BuildingBlock: CEKHIL_clean_sbu_0, # of connection points: 4
#     Node 2, Type 0, BuildingBlock: CEKHIL_clean_sbu_0, # of connection points: 4
#     Node 3, Type 0, BuildingBlock: CEKHIL_clean_sbu_0, # of connection points: 4
#     Node 4, Type 0, BuildingBlock: CEKHIL_clean_sbu_0, # of connection points: 4
#     Node 5, Type 0, BuildingBlock: CEKHIL_clean_sbu_0, # of connection points: 4
#     Node 6, Type 0, BuildingBlock: CEKHIL_clean_sbu_0, # of connection points: 4
#     Node 7, Type 0, BuildingBlock: CEKHIL_clean_sbu_0, # of connection points: 4
#     Edge 8, Type (0, 0), BuildingBlock: EZIPEK_clean_linker_0, # of connection points: 2
#     Edge 9, Type (0, 0), BuildingBlock: EZIPEK_clean_linker_0, # of connection points: 2
#     Edge 10, Type (0, 0), BuildingBlock: EZIPEK_clean_linker_0, # of connection points: 2
#     Edge 11, Type (0, 0), BuildingBlock: EZIPEK_clean_linker_0, # of connection points: 2
#     Edge 12, Type (0, 0), BuildingBlock: EZIPEK_clean_linker_0, # of connection points: 2
#     Edge 13, Type (0, 0), BuildingBlock: EZIPEK_clean_linker_0, # of connection points: 2
#     Edge 14, Type (0, 0), BuildingBlock: EZIPEK_clean_linker_0, # of connection points: 2
#     Edge 15, Type (0, 0), BuildingBlock: EZIPEK_clean_linker_0, # of connection points: 2
#     Edge 16, Type (0, 0), BuildingBlock: EZIPEK_clean_linker_0, # of connection points: 2
#     Edge 17, Type (0, 0), BuildingBlock: EZIPEK_clean_linker_0, # of connection points: 2
#     Edge 18, Type (0, 0), BuildingBlock: EZIPEK_clean_linker_0, # of connection points: 2
#     Edge 19, Type (0, 0), BuildingBlock: EZIPEK_clean_linker_0, # of connection points: 2
#     Edge 20, Type (0, 0), BuildingBlock: EZIPEK_clean_linker_0, # of connection points: 2
#     Edge 21, Type (0, 0), BuildingBlock: EZIPEK_clean_linker_0, # of connection points: 2
#     Edge 22, Type (0, 0), BuildingBlock: EZIPEK_clean_linker_0, # of connection points: 2
#     Edge 23, Type (0, 0), BuildingBlock: EZIPEK_clean_linker_0, # of connection points: 2
# Relax obj value: 0.064
# Max RMSD: 0.128
# Mean RMSD: 0.128
data_MOF--net-irl--node1-CEKHIL_clean_sbu_0--edge1-EZIPEK_clean_linker_0
_symmetry_space_group_name_H-M    P1
_symmetry_Int_Tables_number       1
_symmetry_cell_setting            triclinic
loop_
_symmetry_equiv_pos_as_xyz
'x, y, z'
_cell_length_a     24.038168
_cell_length_b     33.78229
_cell_length_c     20.158296
_cell_angle_alpha  89.887855
_cell_angle_beta   89.981592
_cell_angle_gamma 90.018286
loop_
_atom_site_label
_atom_site_type_symbol
_atom_site_fract_x
_atom_site_fract_y
_atom_site_fract_z
_atom_type_partial_charge
Co0 Co 0.07177 0.17065 0.99023 0.0
O1 O 0.10365 0.22279 0.98672 0.0
O2 O 0.14646 0.17043 0.02827 0.0
C3 C 0.04265 0.17129 0.88366 0.0
O4 O 0.05055 0.11198 7e-05 0.0
Co5 Co 0.94459 0.16307 0.97071 0.0
O6 O 0.96027 0.10529 0.97187 0.0
C7 C 0.98798 0.18901 0.09926 0.0
C8 C 0.14818 0.20788 0.01261 0.0
C9 C 0.00687 0.09058 0.98949 0.0
O10 O 0.03771 0.18164 0.0794 0.0
O11 O 0.94587 0.18911 0.06047 0.0
O12 O 0.09319 0.16132 0.89841 0.0
O13 O 0.01256 0.18358 0.93267 0.0
Co14 Co 0.93253 0.83803 0.99586 0.0
O15 O 0.9017 0.78548 0.99468 0.0
O16 O 0.85347 0.8396 0.01709 0.0
C17 C 0.9787 0.83247 0.89862 0.0
O18 O 0.95074 0.89762 -0.00168 0.0
Co19 Co 0.05867 0.84715 0.00869 0.0
O20 O 0.04381 0.90469 0.00104 0.0
C21 C 0.99556 0.82478 0.12571 0.0
C22 C 0.85427 0.80132 0.0093 0.0
C23 C 0.99504 0.91931 -0.00094 0.0
O24 O 0.95086 0.8319 0.09294 0.0
O25 O 0.044 0.82556 0.09971 0.0
O26 O 0.92634 0.8416 0.90019 0.0
O27 O 1.00059 0.82288 0.95519 0.0
Co28 Co 0.07842 0.8359 0.51992 0.0
O29 O 0.11396 0.78497 0.51721 0.0
O30 O 0.15151 0.84042 0.47907 0.0
C31 C 0.05195 0.83135 0.62704 0.0
O32 O 0.05268 0.89397 0.51704 0.0
Co33 Co 0.95069 0.83794 0.54308 0.0
O34 O 0.96142 0.89612 0.54371 0.0
C35 C 0.99388 0.81921 0.41072 0.0
C36 C 0.15622 0.80259 0.49062 0.0
C37 C 0.00695 0.9131 0.52804 0.0
O38 O 0.04337 0.82646 0.43111 0.0
O39 O 0.95118 0.81858 0.44867 0.0
O40 O 0.1019 0.8423 0.61126 0.0
O41 O 0.02136 0.81975 0.57787 0.0
Co42 Co 0.92622 0.16396 0.51239 0.0
O43 O 0.89368 0.21575 0.5201 0.0
O44 O 0.84778 0.16224 0.48838 0.0
C45 C 0.96984 0.16494 0.61135 0.0
O46 O 0.94663 0.10504 0.50178 0.0
Co47 Co 0.05263 0.15695 0.50196 0.0
O48 O 0.03999 0.09907 0.502 0.0
C49 C 0.99105 0.18096 0.38443 0.0
C50 C 0.84718 0.2 0.50148 0.0
C51 C 0.9915 0.08393 0.50098 0.0
O52 O 0.94601 0.17534 0.41731 0.0
O53 O 0.03943 0.17792 0.41013 0.0
O54 O 0.91786 0.1552 0.60678 0.0
O55 O 0.99293 0.17796 0.5573 0.0
Co56 Co 0.57946 0.6704 0.97827 0.0
O57 O 0.61729 0.72044 0.98089 0.0
O58 O 0.65294 0.66403 0.01754 0.0
C59 C 0.55136 0.67549 0.87255 0.0
O60 O 0.55063 0.61286 0.98034 0.0
Co61 Co 0.45133 0.67225 0.95922 0.0
O62 O 0.45806 0.61383 0.96151 0.0
C63 C 0.49807 0.68916 0.09003 0.0
C64 C 0.65899 0.70185 0.00672 0.0
C65 C 0.50323 0.59514 0.9724 0.0
O66 O 0.54656 0.68042 0.06806 0.0
O67 O 0.45452 0.6908 0.05371 0.0
O68 O 0.60123 0.66353 0.88648 0.0
O69 O 0.52231 0.6883 0.9222 0.0
Co70 Co 0.42235 0.34244 0.98908 0.0
O71 O 0.38893 0.29056 0.98971 0.0
O72 O 0.34698 0.34518 0.02389 0.0
C73 C 0.45595 0.33752 0.8852 0.0
O74 O 0.44357 0.40158 0.99363 0.0
Co75 Co 0.55014 0.3519 0.97516 0.0
O76 O 0.53304 0.4088 0.96266 0.0
C77 C 0.50168 0.33124 0.10494 0.0
C78 C 0.34465 0.30722 0.01326 0.0
C79 C 0.48614 0.42336 0.979 0.0
O80 O 0.45265 0.33357 0.08015 0.0
O81 O 0.54639 0.33576 0.07125 0.0
O82 O 0.40476 0.34793 0.8958 0.0
O83 O 0.48425 0.32777 0.93732 0.0
Co84 Co 0.57505 0.33776 0.51423 0.0
O85 O 0.60693 0.28546 0.51699 0.0
O86 O 0.6527 0.33959 0.48735 0.0
C87 C 0.53399 0.33431 0.61489 0.0
O88 O 0.55573 0.39691 0.50786 0.0
Co89 Co 0.44752 0.34586 0.51173 0.0
O90 O 0.46243 0.40362 0.50812 0.0
C91 C 0.50482 0.32388 0.39031 0.0
C92 C 0.65314 0.30157 0.4981 0.0
C93 C 0.51117 0.41822 0.50596 0.0
O94 O 0.55158 0.32993 0.41931 0.0
O95 O 0.45799 0.32452 0.42022 0.0
O96 O 0.58608 0.34362 0.60908 0.0
O97 O 0.50948 0.32336 0.56074 0.0
Co98 Co 0.43128 0.66775 0.50229 0.0
O99 O 0.3984 0.71934 0.50962 0.0
O100 O 0.35312 0.6658 0.47687 0.0
C101 C 0.47351 0.66843 0.60215 0.0
O102 O 0.45275 0.60915 0.49121 0.0
Co103 Co 0.55847 0.66198 0.49519 0.0
O104 O 0.54633 0.60423 0.49085 0.0
C105 C 0.49763 0.68291 0.37513 0.0
C106 C 0.35218 0.70355 0.49015 0.0
C107 C 0.49815 0.58864 0.48915 0.0
O108 O 0.45213 0.67936 0.40779 0.0
O109 O 0.54573 0.67938 0.40138 0.0
O110 O 0.42165 0.6586 0.59653 0.0
O111 O 0.4971 0.68189 0.54875 0.0
C112 C 0.02503 0.98268 0.94635 0.0
C113 C 0.99155 0.96344 0.99456 0.0
C114 C 0.97041 0.02838 0.04354 0.0
C115 C 0.00859 0.0467 -0.00113 0.0
N116 N 0.08457 0.03827 0.92172 0.0
N117 N 0.93478 0.96781 0.09296 0.0
C118 C 0.03989 0.02295 0.95475 0.0
C119 C 0.96452 0.98627 0.04414 0.0
N120 N 0.04026 0.96282 0.89035 0.0
N121 N 0.94008 0.05141 0.08584 0.0
H122 H 0.92613 0.93764 0.09249 0.0
H123 H 0.92043 0.98202 0.13542 0.0
H124 H 0.94787 0.08153 0.09188 0.0
H125 H 0.90642 0.04108 0.1134 0.0
H126 H 0.06092 0.97622 0.85076 0.0
H127 H 0.02524 0.93454 0.8801 0.0
H128 H 0.1112 0.02098 0.89305 0.0
H129 H 0.09888 0.06701 0.92907 0.0
C130 C 0.01576 0.97506 0.45809 0.0
C131 C 0.00503 0.95705 0.52061 0.0
C132 C 0.97209 0.02101 0.56388 0.0
C133 C 0.9886 0.03985 0.50394 0.0
N134 N 0.03026 0.0356 0.39536 0.0
N135 N 0.98136 0.96401 0.63626 0.0
C136 C 0.01172 0.01704 0.4515 0.0
C137 C 0.98526 0.98036 0.57429 0.0
N138 N 0.02713 0.95199 0.40408 0.0
N139 N 0.94363 0.04182 0.61105 0.0
H140 H 0.99102 0.93451 0.64616 0.0
H141 H 0.9737 0.98041 0.67898 0.0
H142 H 0.93406 0.07174 0.60642 0.0
H143 H 0.9252 0.02871 0.65236 0.0
H144 H 0.02854 0.96283 0.35573 0.0
H145 H 0.03086 0.9213 0.40655 0.0
H146 H 0.05401 0.0216 0.35912 0.0
H147 H 0.02429 0.06573 0.38649 0.0
C148 C 0.46566 0.53031 0.92884 0.0
C149 C 0.49918 0.55087 0.97593 0.0
C150 C 0.5199 0.48718 0.03015 0.0
C151 C 0.48349 0.46742 0.9854 0.0
N152 N 0.40759 0.47322 0.90799 0.0
N153 N 0.54567 0.54913 0.08229 0.0
C154 C 0.45178 0.48993 0.93988 0.0
C155 C 0.52302 0.5294 0.02967 0.0
N156 N 0.44891 0.54863 0.87173 0.0
N157 N 0.55126 0.46563 0.07372 0.0
H158 H 0.54683 0.57988 0.08567 0.0
H159 H 0.55817 0.53511 0.12587 0.0
H160 H 0.54661 0.43515 0.07999 0.0
H161 H 0.58364 0.47778 0.10137 0.0
H162 H 0.4295 0.5336 0.833 0.0
H163 H 0.45966 0.57761 0.85958 0.0
H164 H 0.38032 0.4894 0.87828 0.0
H165 H 0.39405 0.44453 0.9179 0.0
C166 C 0.52841 0.48137 0.44242 0.0
C167 C 0.51479 0.4621 0.50286 0.0
C168 C 0.48051 0.5247 0.54914 0.0
C169 C 0.49647 0.54463 0.48997 0.0
N170 N 0.53954 0.54318 0.38191 0.0
N171 N 0.4916 0.46646 0.61848 0.0
C172 C 0.52164 0.52324 0.43706 0.0
C173 C 0.49457 0.48411 0.5575 0.0
N174 N 0.54659 0.45947 0.38977 0.0
N175 N 0.45195 0.54442 0.59753 0.0
H176 H 0.50502 0.43749 0.62652 0.0
H177 H 0.48216 0.4815 0.66208 0.0
H178 H 0.44191 0.57434 0.59456 0.0
H179 H 0.43407 0.53045 0.63839 0.0
H180 H 0.55061 0.47046 0.34176 0.0
H181 H 0.55584 0.4294 0.3936 0.0
H182 H 0.56409 0.53064 0.34501 0.0
H183 H 0.53152 0.57317 0.37405 0.0
C184 C 0.01052 0.22095 0.20867 0.0
C185 C 0.97923 0.19277 0.17196 0.0
C186 C 0.95753 0.15696 0.27441 0.0
C187 C 0.98626 0.1861 0.31163 0.0
N188 N 0.03061 0.25 0.31622 0.0
N189 N 0.90971 0.14051 0.17334 0.0
C190 C 0.01005 0.2194 0.27935 0.0
C191 C 0.94806 0.16319 0.20588 0.0
N192 N 0.04101 0.24898 0.17585 0.0
N193 N 0.94268 0.12177 0.30323 0.0
H194 H 0.90125 0.14261 0.12296 0.0
H195 H 0.8819 0.12194 0.19801 0.0
H196 H 0.95076 0.11477 0.35265 0.0
H197 H 0.9279 0.09766 0.2763 0.0
H198 H 0.07029 0.26701 0.19896 0.0
H199 H 0.03858 0.25308 0.12461 0.0
H200 H 0.04365 0.27678 0.29584 0.0
H201 H 0.03021 0.24992 0.36797 0.0
C202 C 0.00567 0.78428 0.30184 0.0
C203 C 0.98584 0.81732 0.33821 0.0
C204 C 0.97511 0.85521 0.23558 0.0
C205 C 0.99133 0.82144 0.19866 0.0
N206 N 0.01385 0.75203 0.19462 0.0
N207 N 0.94152 0.88155 0.33951 0.0
C208 C 0.00421 0.78534 0.23121 0.0
C209 C 0.96674 0.85175 0.3049 0.0
N210 N 0.02691 0.75232 0.3349 0.0
N211 N 0.97171 0.89134 0.20514 0.0
H212 H 0.9366 0.88124 0.39086 0.0
H213 H 0.92138 0.90524 0.3167 0.0
H214 H 0.98069 0.89549 0.15505 0.0
H215 H 0.96605 0.91782 0.23064 0.0
H216 H 0.04809 0.72934 0.31161 0.0
H217 H 0.0259 0.74984 0.3865 0.0
H218 H 0.01814 0.72393 0.21527 0.0
H219 H 0.01334 0.75204 0.14285 0.0
C220 C 0.00345 0.79659 0.72251 0.0
C221 C 0.03438 0.82941 0.69772 0.0
C222 C 0.04724 0.85253 0.81162 0.0
C223 C 0.00646 0.82568 0.8339 0.0
N224 N 0.94614 0.77041 0.81134 0.0
N225 N 0.07662 0.89328 0.72019 0.0
C226 C 0.9844 0.79728 0.78936 0.0
C227 C 0.05402 0.85865 0.7427 0.0
N228 N 0.99552 0.76365 0.68437 0.0
N229 N 0.08068 0.87138 0.85592 0.0
H230 H 0.07871 0.90082 0.67011 0.0
H231 H 0.08696 0.91655 0.7518 0.0
H232 H 0.07896 0.86507 0.90633 0.0
H233 H 0.11411 0.88913 0.84161 0.0
H234 H 0.97751 0.73772 0.70238 0.0
H235 H 0.01264 0.76021 0.63731 0.0
H236 H 0.92298 0.7525 0.77963 0.0
H237 H 0.93656 0.76704 0.86151 0.0
C238 C 0.02546 0.13459 0.77828 0.0
C239 C 0.02296 0.17059 0.81401 0.0
C240 C 0.98863 0.20446 0.71427 0.0
C241 C 0.99559 0.16891 0.67772 0.0
N242 N 0.03299 0.10302 0.6717 0.0
N243 N 0.01226 0.24166 0.81316 0.0
C244 C 0.01788 0.1349 0.7088 0.0
C245 C 0.00725 0.20615 0.78131 0.0
N246 N 0.03232 0.09966 0.81124 0.0
N247 N 0.96305 0.23628 0.6855 0.0
H248 H 0.0261 0.24418 0.86198 0.0
H249 H 0.00716 0.26885 0.7895 0.0
H250 H 0.95124 0.23675 0.63573 0.0
H251 H 0.9506 0.26122 0.71192 0.0
H252 H 0.02859 0.072 0.78891 0.0
H253 H 0.0354 0.09844 0.86248 0.0
H254 H 0.0545 0.07871 0.69057 0.0
H255 H 0.02932 0.1031 0.62056 0.0
C256 C 0.47162 0.65576 0.19526 0.0
C257 C 0.49135 0.69025 0.16263 0.0
C258 C 0.5146 0.7207 0.26946 0.0
C259 C 0.49379 0.68647 0.30217 0.0
N260 N 0.447 0.62301 0.29785 0.0
N261 N 0.52575 0.75703 0.16577 0.0
C262 C 0.4702 0.65466 0.26554 0.0
C263 C 0.51119 0.72322 0.19898 0.0
N264 N 0.45762 0.62298 0.15896 0.0
N265 N 0.53782 0.75054 0.30594 0.0
H266 H 0.52356 0.75946 0.11421 0.0
H267 H 0.53663 0.78347 0.18868 0.0
H268 H 0.53769 0.75074 0.35768 0.0
H269 H 0.55906 0.77448 0.2856 0.0
H270 H 0.45078 0.5951 0.17942 0.0
H271 H 0.45638 0.62264 0.10729 0.0
H272 H 0.42188 0.60208 0.27472 0.0
H273 H 0.45033 0.61822 0.34873 0.0
C274 C 0.48481 0.35969 0.28528 0.0
C275 C 0.50416 0.32479 0.31723 0.0
C276 C 0.52813 0.2954 0.20977 0.0
C277 C 0.50559 0.32932 0.17789 0.0
N278 N 0.46162 0.39358 0.18313 0.0
N279 N 0.54101 0.25867 0.31275 0.0
C280 C 0.48366 0.36138 0.21512 0.0
C281 C 0.52541 0.29248 0.28027 0.0
N282 N 0.46995 0.39199 0.32222 0.0
N283 N 0.55181 0.26612 0.17248 0.0
H284 H 0.5394 0.25588 0.36428 0.0
H285 H 0.55271 0.23259 0.28929 0.0
H286 H 0.55195 0.26652 0.12075 0.0
H287 H 0.57368 0.24228 0.19212 0.0
H288 H 0.46222 0.41994 0.30257 0.0
H289 H 0.46883 0.39205 0.37384 0.0
H290 H 0.43717 0.41495 0.2061 0.0
H291 H 0.46582 0.39857 0.13235 0.0
C292 C 0.46232 0.36542 0.77105 0.0
C293 C 0.47848 0.3357 0.81674 0.0
C294 C 0.53042 0.30276 0.72781 0.0
C295 C 0.50848 0.33038 0.68149 0.0
N296 N 0.43701 0.37831 0.65801 0.0
N297 N 0.51728 0.27023 0.83372 0.0
C298 C 0.46918 0.35866 0.70267 0.0
C299 C 0.5099 0.30266 0.7941 0.0
N300 N 0.44278 0.40099 0.79281 0.0
N301 N 0.57016 0.27629 0.70843 0.0
H302 H 0.50036 0.26766 0.88106 0.0
H303 H 0.53527 0.24404 0.81693 0.0
H304 H 0.58279 0.27321 0.65919 0.0
H305 H 0.59237 0.25883 0.74186 0.0
H306 H 0.43453 0.42466 0.76099 0.0
H307 H 0.44231 0.4083 0.84286 0.0
H308 H 0.40515 0.39755 0.67184 0.0
H309 H 0.43721 0.37078 0.60828 0.0
C310 C 0.53701 0.63888 0.76657 0.0
C311 C 0.53054 0.67427 0.8036 0.0
C312 C 0.48841 0.70671 0.70695 0.0
C313 C 0.49864 0.67218 0.66886 0.0
N314 N 0.54242 0.60846 0.65875 0.0
N315 N 0.51117 0.74445 0.8053 0.0
C316 C 0.52595 0.63923 0.69763 0.0
C317 C 0.50904 0.70894 0.77296 0.0
N318 N 0.55157 0.60435 0.7976 0.0
N319 N 0.45824 0.73716 0.68042 0.0
H320 H 0.52739 0.74773 0.8529 0.0
H321 H 0.50168 0.77136 0.7827 0.0
H322 H 0.44523 0.73767 0.63109 0.0
H323 H 0.44326 0.76078 0.70835 0.0
H324 H 0.5504 0.57679 0.77459 0.0
H325 H 0.55923 0.60225 0.84827 0.0
H326 H 0.56806 0.58556 0.67492 0.0
H327 H 0.53478 0.60806 0.60831 0.0
C328 C 0.25948 0.28086 0.95904 0.0
C329 C 0.29195 0.2845 0.01724 0.0
C330 C 0.22881 0.23874 0.0754 0.0
C331 C 0.19997 0.23205 0.01493 0.0
N332 N 0.19675 0.2399 0.89575 0.0
N333 N 0.31214 0.26409 0.12914 0.0
C334 C 0.21769 0.25132 0.95582 0.0
C335 C 0.27799 0.26257 0.07506 0.0
N336 N 0.26812 0.306 0.9068 0.0
N337 N 0.20807 0.22377 0.13334 0.0
H338 H 0.34705 0.28244 0.13119 0.0
H339 H 0.30779 0.24556 0.17016 0.0
H340 H 0.17219 0.20644 0.13531 0.0
H341 H 0.22386 0.23097 0.17987 0.0
H342 H 0.24177 0.30749 0.86584 0.0
H343 H 0.29825 0.32819 0.90732 0.0
H344 H 0.21233 0.25003 0.85057 0.0
H345 H 0.16815 0.21697 0.89041 0.0
C346 C 0.74927 0.72323 0.95874 0.0
C347 C 0.71278 0.72278 0.01385 0.0
C348 C 0.77052 0.77294 0.06919 0.0
C349 C 0.80327 0.77639 0.01078 0.0
N350 N 0.81529 0.76142 0.89471 0.0
N351 N 0.68427 0.74972 0.11899 0.0
C352 C 0.79049 0.75317 0.95419 0.0
C353 C 0.72215 0.74839 0.06848 0.0
N354 N 0.74433 0.69514 0.91039 0.0
N355 N 0.78665 0.79191 0.12581 0.0
H356 H 0.65002 0.73076 0.12135 0.0
H357 H 0.68512 0.77091 0.15643 0.0
H358 H 0.82169 0.81008 0.12801 0.0
H359 H 0.76781 0.78734 0.17171 0.0
H360 H 0.77324 0.69163 0.87235 0.0
H361 H 0.71437 0.67283 0.91194 0.0
H362 H 0.80391 0.748 0.85027 0.0
H363 H 0.84268 0.78504 0.88828 0.0
C364 C 0.2194 0.75537 0.4302 0.0
C365 C 0.20958 0.78099 0.48464 0.0
C366 C 0.28717 0.75097 0.54497 0.0
C367 C 0.30065 0.72791 0.48837 0.0
N368 N 0.28516 0.71295 0.37278 0.0
N369 N 0.24062 0.80896 0.58811 0.0
C370 C 0.2682 0.73127 0.42967 0.0
C371 C 0.24576 0.78072 0.54003 0.0
N372 N 0.18173 0.75369 0.37954 0.0
N373 N 0.31171 0.74295 0.60473 0.0
H374 H 0.21078 0.83131 0.58616 0.0
H375 H 0.2694 0.81261 0.62625 0.0
H376 H 0.33982 0.7198 0.61161 0.0
H377 H 0.29956 0.75619 0.64904 0.0
H378 H 0.18304 0.73243 0.34223 0.0
H379 H 0.14717 0.77234 0.37703 0.0
H380 H 0.26641 0.7176 0.32687 0.0
H381 H 0.32088 0.69553 0.37024 0.0
C382 C 0.73742 0.2744 0.55427 0.0
C383 C 0.70479 0.27763 0.49597 0.0
C384 C 0.766 0.23008 0.43951 0.0
C385 C 0.79574 0.22443 0.49969 0.0
N386 N 0.80298 0.23522 0.61769 0.0
N387 N 0.68296 0.25558 0.38547 0.0
C388 C 0.77966 0.24506 0.55798 0.0
C389 C 0.71756 0.25452 0.43924 0.0
N390 N 0.72834 0.29969 0.60605 0.0
N391 N 0.78543 0.21364 0.38209 0.0
H392 H 0.64882 0.27457 0.38248 0.0
H393 H 0.68609 0.23612 0.34565 0.0
H394 H 0.8207 0.19572 0.38031 0.0
H395 H 0.76919 0.22011 0.33544 0.0
H396 H 0.75462 0.30178 0.64695 0.0
H397 H 0.6972 0.32118 0.60563 0.0
H398 H 0.789 0.2462 0.66295 0.0
H399 H 0.8327 0.21296 0.62301 0.0
loop_
_geom_bond_atom_site_label_1
_geom_bond_atom_site_label_2
_geom_bond_distance
_geom_bond_site_symmetry_2
_ccdc_geom_bond_type
Co0 O1 2.216 . S
Co0 O2 2.091 1_556 S
Co0 O4 2.004 . S
Co0 O10 2.021 1_556 S
Co0 O12 2.137 . S
Co0 O13 2.244 1_455 S
O1 Co0 2.216 . S
O1 C8 1.247 1_556 S
O2 Co0 2.091 1_554 S
O2 C8 1.261 . S
C3 O12 1.247 . S
C3 O13 1.272 1_455 S
O4 Co0 2.004 . S
O4 C9 1.259 1_556 S
Co5 O6 2.061 . S
Co5 O11 2.052 . S
Co5 O13 2.135 1_554 S
O6 Co5 2.061 . S
O6 C9 1.235 1_655 S
C7 O10 1.238 1_655 S
C7 O11 1.241 . S
C8 O1 1.247 1_554 S
C8 O2 1.261 . S
C9 O4 1.259 1_554 S
C9 O6 1.235 1_455 S
O10 Co0 2.021 1_554 S
O10 C7 1.238 1_455 S
O11 Co5 2.052 . S
O11 C7 1.241 . S
O12 Co0 2.137 . S
O12 C3 1.247 . S
O13 Co0 2.244 1_655 S
O13 C3 1.272 1_655 S
O13 Co5 2.135 1_556 S
Co14 O15 2.216 . S
Co14 O16 2.091 1_556 S
Co14 O18 2.004 . S
Co14 O24 2.021 1_556 S
Co14 O26 2.137 . S
Co14 O27 2.244 1_655 S
O15 Co14 2.216 . S
O15 C22 1.247 1_556 S
O16 Co14 2.091 1_554 S
O16 C22 1.261 . S
C17 O26 1.247 . S
C17 O27 1.272 1_655 S
O18 Co14 2.004 . S
O18 C23 1.259 1_556 S
Co19 O20 2.061 . S
Co19 O25 2.052 . S
Co19 O27 2.135 1_554 S
O20 Co19 2.061 . S
O20 C23 1.235 1_455 S
C21 O24 1.238 1_455 S
C21 O25 1.241 . S
C22 O15 1.247 1_554 S
C22 O16 1.261 . S
C23 O18 1.259 1_554 S
C23 O20 1.235 1_655 S
O24 Co14 2.021 1_554 S
O24 C21 1.238 1_655 S
O25 Co19 2.052 . S
O25 C21 1.241 . S
O26 Co14 2.137 . S
O26 C17 1.247 . S
O27 Co14 2.244 1_455 S
O27 C17 1.272 1_455 S
O27 Co19 2.135 1_556 S
Co28 O29 2.216 . S
Co28 O30 2.091 . S
Co28 O32 2.004 . S
Co28 O38 2.021 . S
Co28 O40 2.137 . S
Co28 O41 2.244 1_455 S
O29 Co28 2.216 . S
O29 C36 1.247 . S
O30 Co28 2.091 . S
O30 C36 1.261 . S
C31 O40 1.247 . S
C31 O41 1.272 1_455 S
O32 Co28 2.004 . S
O32 C37 1.259 . S
Co33 O34 2.061 . S
Co33 O39 2.052 . S
Co33 O41 2.135 . S
O34 Co33 2.061 . S
O34 C37 1.235 1_655 S
C35 O38 1.238 1_655 S
C35 O39 1.241 . S
C36 O29 1.247 . S
C36 O30 1.261 . S
C37 O32 1.259 . S
C37 O34 1.235 1_455 S
O38 Co28 2.021 . S
O38 C35 1.238 1_455 S
O39 Co33 2.052 . S
O39 C35 1.241 . S
O40 Co28 2.137 . S
O40 C31 1.247 . S
O41 Co28 2.244 1_655 S
O41 C31 1.272 1_655 S
O41 Co33 2.135 . S
Co42 O43 2.216 . S
Co42 O44 2.091 . S
Co42 O46 2.004 . S
Co42 O52 2.021 . S
Co42 O54 2.137 . S
Co42 O55 2.244 1_655 S
O43 Co42 2.216 . S
O43 C50 1.247 . S
O44 Co42 2.091 . S
O44 C50 1.261 . S
C45 O54 1.247 . S
C45 O55 1.272 1_655 S
O46 Co42 2.004 . S
O46 C51 1.259 . S
Co47 O48 2.061 . S
Co47 O53 2.052 . S
Co47 O55 2.135 . S
O48 Co47 2.061 . S
O48 C51 1.235 1_455 S
C49 O52 1.238 1_455 S
C49 O53 1.241 . S
C50 O43 1.247 . S
C50 O44 1.261 . S
C51 O46 1.259 . S
C51 O48 1.235 1_655 S
O52 Co42 2.021 . S
O52 C49 1.238 1_655 S
O53 Co47 2.052 . S
O53 C49 1.241 . S
O54 Co42 2.137 . S
O54 C45 1.247 . S
O55 Co42 2.244 1_455 S
O55 C45 1.272 1_455 S
O55 Co47 2.135 . S
Co56 O57 2.216 . S
Co56 O58 2.091 1_556 S
Co56 O60 2.004 . S
Co56 O66 2.021 1_556 S
Co56 O68 2.137 . S
Co56 O69 2.244 . S
O57 Co56 2.216 . S
O57 C64 1.247 1_556 S
O58 Co56 2.091 1_554 S
O58 C64 1.261 . S
C59 O68 1.247 . S
C59 O69 1.272 . S
O60 Co56 2.004 . S
O60 C65 1.259 1_556 S
Co61 O62 2.061 . S
Co61 O67 2.052 . S
Co61 O69 2.135 1_554 S
O62 Co61 2.061 . S
O62 C65 1.235 . S
C63 O66 1.238 . S
C63 O67 1.241 . S
C64 O57 1.247 1_554 S
C64 O58 1.261 . S
C65 O60 1.259 1_554 S
C65 O62 1.235 . S
O66 Co56 2.021 1_554 S
O66 C63 1.238 . S
O67 Co61 2.052 . S
O67 C63 1.241 . S
O68 Co56 2.137 . S
O68 C59 1.247 . S
O69 Co56 2.244 . S
O69 C59 1.272 . S
O69 Co61 2.135 1_556 S
Co70 O71 2.216 . S
Co70 O72 2.091 1_556 S
Co70 O74 2.004 . S
Co70 O80 2.021 1_556 S
Co70 O82 2.137 . S
Co70 O83 2.244 . S
O71 Co70 2.216 . S
O71 C78 1.247 1_556 S
O72 Co70 2.091 1_554 S
O72 C78 1.261 . S
C73 O82 1.247 . S
C73 O83 1.272 . S
O74 Co70 2.004 . S
O74 C79 1.259 1_556 S
Co75 O76 2.061 . S
Co75 O81 2.052 . S
Co75 O83 2.135 1_554 S
O76 Co75 2.061 . S
O76 C79 1.235 . S
C77 O80 1.238 . S
C77 O81 1.241 . S
C78 O71 1.247 1_554 S
C78 O72 1.261 . S
C79 O74 1.259 1_554 S
C79 O76 1.235 . S
O80 Co70 2.021 1_554 S
O80 C77 1.238 . S
O81 Co75 2.052 . S
O81 C77 1.241 . S
O82 Co70 2.137 . S
O82 C73 1.247 . S
O83 Co70 2.244 . S
O83 C73 1.272 . S
O83 Co75 2.135 1_556 S
Co84 O85 2.216 . S
Co84 O86 2.091 . S
Co84 O88 2.004 . S
Co84 O94 2.021 . S
Co84 O96 2.137 . S
Co84 O97 2.244 . S
O85 Co84 2.216 . S
O85 C92 1.247 . S
O86 Co84 2.091 . S
O86 C92 1.261 . S
C87 O96 1.247 . S
C87 O97 1.272 . S
O88 Co84 2.004 . S
O88 C93 1.259 . S
Co89 O90 2.061 . S
Co89 O95 2.052 . S
Co89 O97 2.135 . S
O90 Co89 2.061 . S
O90 C93 1.235 . S
C91 O94 1.238 . S
C91 O95 1.241 . S
C92 O85 1.247 . S
C92 O86 1.261 . S
C93 O88 1.259 . S
C93 O90 1.235 . S
O94 Co84 2.021 . S
O94 C91 1.238 . S
O95 Co89 2.052 . S
O95 C91 1.241 . S
O96 Co84 2.137 . S
O96 C87 1.247 . S
O97 Co84 2.244 . S
O97 C87 1.272 . S
O97 Co89 2.135 . S
Co98 O99 2.216 . S
Co98 O100 2.091 . S
Co98 O102 2.004 . S
Co98 O108 2.021 . S
Co98 O110 2.137 . S
Co98 O111 2.244 . S
O99 Co98 2.216 . S
O99 C106 1.247 . S
O100 Co98 2.091 . S
O100 C106 1.261 . S
C101 O110 1.247 . S
C101 O111 1.272 . S
O102 Co98 2.004 . S
O102 C107 1.259 . S
Co103 O104 2.061 . S
Co103 O109 2.052 . S
Co103 O111 2.135 . S
O104 Co103 2.061 . S
O104 C107 1.235 . S
C105 O108 1.238 . S
C105 O109 1.241 . S
C106 O99 1.247 . S
C106 O100 1.261 . S
C107 O102 1.259 . S
C107 O104 1.235 . S
O108 Co98 2.021 . S
O108 C105 1.238 . S
O109 Co103 2.052 . S
O109 C105 1.241 . S
O110 Co98 2.137 . S
O110 C101 1.247 . S
O111 Co98 2.244 . S
O111 C101 1.272 . S
O111 Co103 2.135 . S
C112 C113 1.363 1_456 S
C112 C118 1.379 1_565 S
C112 N120 1.356 . S
C113 C112 1.363 1_654 S
C113 C119 1.363 . S
C114 C115 1.363 1_655 S
C114 C119 1.379 1_545 S
C114 N121 1.356 . S
C115 C114 1.363 1_455 S
C115 C118 1.363 1_554 S
N116 C118 1.356 . S
N116 H128 0.984 . S
N116 H129 0.985 . S
N117 C119 1.356 . S
N117 H122 0.984 . S
N117 H123 0.985 . S
C118 C112 1.379 1_545 S
C118 C115 1.363 1_556 S
C118 N116 1.356 . S
C119 C113 1.363 . S
C119 C114 1.379 1_565 S
C119 N117 1.356 . S
N120 C112 1.356 . S
N120 H126 0.984 . S
N120 H127 0.984 . S
N121 C114 1.356 . S
N121 H124 0.984 . S
N121 H125 0.985 . S
H122 N117 0.984 . S
H123 N117 0.985 . S
H124 N121 0.984 . S
H125 N121 0.985 . S
H126 N120 0.984 . S
H127 N120 0.984 . S
H128 N116 0.984 . S
H129 N116 0.985 . S
C130 C131 1.363 . S
C130 C136 1.379 1_565 S
C130 N138 1.356 . S
C131 C130 1.363 . S
C131 C137 1.363 1_455 S
C132 C133 1.363 . S
C132 C137 1.379 1_545 S
C132 N139 1.356 . S
C133 C132 1.363 . S
C133 C136 1.363 1_655 S
N134 C136 1.356 . S
N134 H146 0.984 . S
N134 H147 0.985 . S
N135 C137 1.356 . S
N135 H140 0.984 . S
N135 H141 0.985 . S
C136 C130 1.379 1_545 S
C136 C133 1.363 1_455 S
C136 N134 1.356 . S
C137 C131 1.363 1_655 S
C137 C132 1.379 1_565 S
C137 N135 1.356 . S
N138 C130 1.356 . S
N138 H144 0.984 . S
N138 H145 0.984 . S
N139 C132 1.356 . S
N139 H142 0.984 . S
N139 H143 0.985 . S
H140 N135 0.984 . S
H141 N135 0.985 . S
H142 N139 0.984 . S
H143 N139 0.985 . S
H144 N138 0.984 . S
H145 N138 0.984 . S
H146 N134 0.984 . S
H147 N134 0.985 . S
C148 C149 1.363 1_556 S
C148 C154 1.379 . S
C148 N156 1.356 . S
C149 C148 1.363 1_554 S
C149 C155 1.363 . S
C150 C151 1.363 . S
C150 C155 1.379 . S
C150 N157 1.356 . S
C151 C150 1.363 . S
C151 C154 1.363 1_554 S
N152 C154 1.356 . S
N152 H164 0.984 . S
N152 H165 0.985 . S
N153 C155 1.356 . S
N153 H158 0.984 . S
N153 H159 0.985 . S
C154 C148 1.379 . S
C154 C151 1.363 1_556 S
C154 N152 1.356 . S
C155 C149 1.363 . S
C155 C150 1.379 . S
C155 N153 1.356 . S
N156 C148 1.356 . S
N156 H162 0.984 . S
N156 H163 0.984 . S
N157 C150 1.356 . S
N157 H160 0.984 . S
N157 H161 0.985 . S
H158 N153 0.984 . S
H159 N153 0.985 . S
H160 N157 0.984 . S
H161 N157 0.985 . S
H162 N156 0.984 . S
H163 N156 0.984 . S
H164 N152 0.984 . S
H165 N152 0.985 . S
C166 C167 1.363 . S
C166 C172 1.379 . S
C166 N174 1.356 . S
C167 C166 1.363 . S
C167 C173 1.363 . S
C168 C169 1.363 . S
C168 C173 1.379 . S
C168 N175 1.356 . S
C169 C168 1.363 . S
C169 C172 1.363 . S
N170 C172 1.356 . S
N170 H182 0.984 . S
N170 H183 0.985 . S
N171 C173 1.356 . S
N171 H176 0.984 . S
N171 H177 0.985 . S
C172 C166 1.379 . S
C172 C169 1.363 . S
C172 N170 1.356 . S
C173 C167 1.363 . S
C173 C168 1.379 . S
C173 N171 1.356 . S
N174 C166 1.356 . S
N174 H180 0.984 . S
N174 H181 0.984 . S
N175 C168 1.356 . S
N175 H178 0.984 . S
N175 H179 0.985 . S
H176 N171 0.984 . S
H177 N171 0.985 . S
H178 N175 0.984 . S
H179 N175 0.985 . S
H180 N174 0.984 . S
H181 N174 0.984 . S
H182 N170 0.984 . S
H183 N170 0.985 . S
C184 C185 1.363 1_455 S
C184 C190 1.379 . S
C184 N192 1.356 . S
C185 C184 1.363 1_655 S
C185 C191 1.363 . S
C186 C187 1.363 1_655 S
C186 C191 1.379 . S
C186 N193 1.356 . S
C187 C186 1.363 1_455 S
C187 C190 1.363 . S
N188 C190 1.356 . S
N188 H200 0.984 . S
N188 H201 0.985 . S
N189 C191 1.356 . S
N189 H194 0.984 . S
N189 H195 0.985 . S
C190 C184 1.379 . S
C190 C187 1.363 . S
C190 N188 1.356 . S
C191 C185 1.363 . S
C191 C186 1.379 . S
C191 N189 1.356 . S
N192 C184 1.356 . S
N192 H198 0.984 . S
N192 H199 0.984 . S
N193 C186 1.356 . S
N193 H196 0.984 . S
N193 H197 0.985 . S
H194 N189 0.984 . S
H195 N189 0.985 . S
H196 N193 0.984 . S
H197 N193 0.985 . S
H198 N192 0.984 . S
H199 N192 0.984 . S
H200 N188 0.984 . S
H201 N188 0.985 . S
C202 C203 1.363 1_455 S
C202 C208 1.379 . S
C202 N210 1.356 . S
C203 C202 1.363 1_655 S
C203 C209 1.363 . S
C204 C205 1.363 1_655 S
C204 C209 1.379 . S
C204 N211 1.356 . S
C205 C204 1.363 1_455 S
C205 C208 1.363 . S
N206 C208 1.356 . S
N206 H218 0.984 . S
N206 H219 0.985 . S
N207 C209 1.356 . S
N207 H212 0.984 . S
N207 H213 0.985 . S
C208 C202 1.379 . S
C208 C205 1.363 . S
C208 N206 1.356 . S
C209 C203 1.363 . S
C209 C204 1.379 . S
C209 N207 1.356 . S
N210 C202 1.356 . S
N210 H216 0.984 . S
N210 H217 0.984 . S
N211 C204 1.356 . S
N211 H214 0.984 . S
N211 H215 0.985 . S
H212 N207 0.984 . S
H213 N207 0.985 . S
H214 N211 0.984 . S
H215 N211 0.985 . S
H216 N210 0.984 . S
H217 N210 0.984 . S
H218 N206 0.984 . S
H219 N206 0.985 . S
C220 C221 1.363 . S
C220 C226 1.379 . S
C220 N228 1.356 . S
C221 C220 1.363 . S
C221 C227 1.363 1_655 S
C222 C223 1.363 . S
C222 C227 1.379 . S
C222 N229 1.356 . S
C223 C222 1.363 . S
C223 C226 1.363 1_455 S
N224 C226 1.356 . S
N224 H236 0.984 . S
N224 H237 0.985 . S
N225 C227 1.356 . S
N225 H230 0.984 . S
N225 H231 0.985 . S
C226 C220 1.379 . S
C226 C223 1.363 1_655 S
C226 N224 1.356 . S
C227 C221 1.363 1_455 S
C227 C222 1.379 . S
C227 N225 1.356 . S
N228 C220 1.356 . S
N228 H234 0.984 . S
N228 H235 0.984 . S
N229 C222 1.356 . S
N229 H232 0.984 . S
N229 H233 0.985 . S
H230 N225 0.984 . S
H231 N225 0.985 . S
H232 N229 0.984 . S
H233 N229 0.985 . S
H234 N228 0.984 . S
H235 N228 0.984 . S
H236 N224 0.984 . S
H237 N224 0.985 . S
C238 C239 1.363 1_455 S
C238 C244 1.379 . S
C238 N246 1.356 . S
C239 C238 1.363 1_655 S
C239 C245 1.363 . S
C240 C241 1.363 1_655 S
C240 C245 1.379 . S
C240 N247 1.356 . S
C241 C240 1.363 1_455 S
C241 C244 1.363 . S
N242 C244 1.356 . S
N242 H254 0.984 . S
N242 H255 0.985 . S
N243 C245 1.356 . S
N243 H248 0.984 . S
N243 H249 0.985 . S
C244 C238 1.379 . S
C244 C241 1.363 . S
C244 N242 1.356 . S
C245 C239 1.363 . S
C245 C240 1.379 . S
C245 N243 1.356 . S
N246 C238 1.356 . S
N246 H252 0.984 . S
N246 H253 0.984 . S
N247 C240 1.356 . S
N247 H250 0.984 . S
N247 H251 0.985 . S
H248 N243 0.984 . S
H249 N243 0.985 . S
H250 N247 0.984 . S
H251 N247 0.985 . S
H252 N246 0.984 . S
H253 N246 0.984 . S
H254 N242 0.984 . S
H255 N242 0.985 . S
C256 C257 1.363 . S
C256 C262 1.379 . S
C256 N264 1.356 . S
C257 C256 1.363 . S
C257 C263 1.363 . S
C258 C259 1.363 . S
C258 C263 1.379 . S
C258 N265 1.356 . S
C259 C258 1.363 . S
C259 C262 1.363 . S
N260 C262 1.356 . S
N260 H272 0.984 . S
N260 H273 0.985 . S
N261 C263 1.356 . S
N261 H266 0.984 . S
N261 H267 0.985 . S
C262 C256 1.379 . S
C262 C259 1.363 . S
C262 N260 1.356 . S
C263 C257 1.363 . S
C263 C258 1.379 . S
C263 N261 1.356 . S
N264 C256 1.356 . S
N264 H270 0.984 . S
N264 H271 0.984 . S
N265 C258 1.356 . S
N265 H268 0.984 . S
N265 H269 0.985 . S
H266 N261 0.984 . S
H267 N261 0.985 . S
H268 N265 0.984 . S
H269 N265 0.985 . S
H270 N264 0.984 . S
H271 N264 0.984 . S
H272 N260 0.984 . S
H273 N260 0.985 . S
C274 C275 1.363 . S
C274 C280 1.379 . S
C274 N282 1.356 . S
C275 C274 1.363 . S
C275 C281 1.363 . S
C276 C277 1.363 . S
C276 C281 1.379 . S
C276 N283 1.356 . S
C277 C276 1.363 . S
C277 C280 1.363 . S
N278 C280 1.356 . S
N278 H290 0.984 . S
N278 H291 0.985 . S
N279 C281 1.356 . S
N279 H284 0.984 . S
N279 H285 0.985 . S
C280 C274 1.379 . S
C280 C277 1.363 . S
C280 N278 1.356 . S
C281 C275 1.363 . S
C281 C276 1.379 . S
C281 N279 1.356 . S
N282 C274 1.356 . S
N282 H288 0.984 . S
N282 H289 0.984 . S
N283 C276 1.356 . S
N283 H286 0.984 . S
N283 H287 0.985 . S
H284 N279 0.984 . S
H285 N279 0.985 . S
H286 N283 0.984 . S
H287 N283 0.985 . S
H288 N282 0.984 . S
H289 N282 0.984 . S
H290 N278 0.984 . S
H291 N278 0.985 . S
C292 C293 1.363 . S
C292 C298 1.379 . S
C292 N300 1.356 . S
C293 C292 1.363 . S
C293 C299 1.363 . S
C294 C295 1.363 . S
C294 C299 1.379 . S
C294 N301 1.356 . S
C295 C294 1.363 . S
C295 C298 1.363 . S
N296 C298 1.356 . S
N296 H308 0.984 . S
N296 H309 0.985 . S
N297 C299 1.356 . S
N297 H302 0.984 . S
N297 H303 0.985 . S
C298 C292 1.379 . S
C298 C295 1.363 . S
C298 N296 1.356 . S
C299 C293 1.363 . S
C299 C294 1.379 . S
C299 N297 1.356 . S
N300 C292 1.356 . S
N300 H306 0.984 . S
N300 H307 0.984 . S
N301 C294 1.356 . S
N301 H304 0.984 . S
N301 H305 0.985 . S
H302 N297 0.984 . S
H303 N297 0.985 . S
H304 N301 0.984 . S
H305 N301 0.985 . S
H306 N300 0.984 . S
H307 N300 0.984 . S
H308 N296 0.984 . S
H309 N296 0.985 . S
C310 C311 1.363 . S
C310 C316 1.379 . S
C310 N318 1.356 . S
C311 C310 1.363 . S
C311 C317 1.363 . S
C312 C313 1.363 . S
C312 C317 1.379 . S
C312 N319 1.356 . S
C313 C312 1.363 . S
C313 C316 1.363 . S
N314 C316 1.356 . S
N314 H326 0.984 . S
N314 H327 0.985 . S
N315 C317 1.356 . S
N315 H320 0.984 . S
N315 H321 0.985 . S
C316 C310 1.379 . S
C316 C313 1.363 . S
C316 N314 1.356 . S
C317 C311 1.363 . S
C317 C312 1.379 . S
C317 N315 1.356 . S
N318 C310 1.356 . S
N318 H324 0.984 . S
N318 H325 0.984 . S
N319 C312 1.356 . S
N319 H322 0.984 . S
N319 H323 0.985 . S
H320 N315 0.984 . S
H321 N315 0.985 . S
H322 N319 0.984 . S
H323 N319 0.985 . S
H324 N318 0.984 . S
H325 N318 0.984 . S
H326 N314 0.984 . S
H327 N314 0.985 . S
C328 C329 1.363 1_556 S
C328 C334 1.379 . S
C328 N336 1.356 . S
C329 C328 1.363 1_554 S
C329 C335 1.363 . S
C330 C331 1.363 . S
C330 C335 1.379 . S
C330 N337 1.356 . S
C331 C330 1.363 . S
C331 C334 1.363 1_554 S
N332 C334 1.356 . S
N332 H344 0.984 . S
N332 H345 0.985 . S
N333 C335 1.356 . S
N333 H338 0.984 . S
N333 H339 0.985 . S
C334 C328 1.379 . S
C334 C331 1.363 1_556 S
C334 N332 1.356 . S
C335 C329 1.363 . S
C335 C330 1.379 . S
C335 N333 1.356 . S
N336 C328 1.356 . S
N336 H342 0.984 . S
N336 H343 0.984 . S
N337 C330 1.356 . S
N337 H340 0.984 . S
N337 H341 0.985 . S
H338 N333 0.984 . S
H339 N333 0.985 . S
H340 N337 0.984 . S
H341 N337 0.985 . S
H342 N336 0.984 . S
H343 N336 0.984 . S
H344 N332 0.984 . S
H345 N332 0.985 . S
C346 C347 1.363 1_556 S
C346 C352 1.379 . S
C346 N354 1.356 . S
C347 C346 1.363 1_554 S
C347 C353 1.363 . S
C348 C349 1.363 . S
C348 C353 1.379 . S
C348 N355 1.356 . S
C349 C348 1.363 . S
C349 C352 1.363 1_554 S
N350 C352 1.356 . S
N350 H362 0.984 . S
N350 H363 0.985 . S
N351 C353 1.356 . S
N351 H356 0.984 . S
N351 H357 0.985 . S
C352 C346 1.379 . S
C352 C349 1.363 1_556 S
C352 N350 1.356 . S
C353 C347 1.363 . S
C353 C348 1.379 . S
C353 N351 1.356 . S
N354 C346 1.356 . S
N354 H360 0.984 . S
N354 H361 0.984 . S
N355 C348 1.356 . S
N355 H358 0.984 . S
N355 H359 0.985 . S
H356 N351 0.984 . S
H357 N351 0.985 . S
H358 N355 0.984 . S
H359 N355 0.985 . S
H360 N354 0.984 . S
H361 N354 0.984 . S
H362 N350 0.984 . S
H363 N350 0.985 . S
C364 C365 1.363 . S
C364 C370 1.379 . S
C364 N372 1.356 . S
C365 C364 1.363 . S
C365 C371 1.363 . S
C366 C367 1.363 . S
C366 C371 1.379 . S
C366 N373 1.356 . S
C367 C366 1.363 . S
C367 C370 1.363 . S
N368 C370 1.356 . S
N368 H380 0.984 . S
N368 H381 0.985 . S
N369 C371 1.356 . S
N369 H374 0.984 . S
N369 H375 0.985 . S
C370 C364 1.379 . S
C370 C367 1.363 . S
C370 N368 1.356 . S
C371 C365 1.363 . S
C371 C366 1.379 . S
C371 N369 1.356 . S
N372 C364 1.356 . S
N372 H378 0.984 . S
N372 H379 0.984 . S
N373 C366 1.356 . S
N373 H376 0.984 . S
N373 H377 0.985 . S
H374 N369 0.984 . S
H375 N369 0.985 . S
H376 N373 0.984 . S
H377 N373 0.985 . S
H378 N372 0.984 . S
H379 N372 0.984 . S
H380 N368 0.984 . S
H381 N368 0.985 . S
C382 C383 1.363 . S
C382 C388 1.379 . S
C382 N390 1.356 . S
C383 C382 1.363 . S
C383 C389 1.363 . S
C384 C385 1.363 . S
C384 C389 1.379 . S
C384 N391 1.356 . S
C385 C384 1.363 . S
C385 C388 1.363 . S
N386 C388 1.356 . S
N386 H398 0.984 . S
N386 H399 0.985 . S
N387 C389 1.356 . S
N387 H392 0.984 . S
N387 H393 0.985 . S
C388 C382 1.379 . S
C388 C385 1.363 . S
C388 N386 1.356 . S
C389 C383 1.363 . S
C389 C384 1.379 . S
C389 N387 1.356 . S
N390 C382 1.356 . S
N390 H396 0.984 . S
N390 H397 0.984 . S
N391 C384 1.356 . S
N391 H394 0.984 . S
N391 H395 0.985 . S
H392 N387 0.984 . S
H393 N387 0.985 . S
H394 N391 0.984 . S
H395 N391 0.985 . S
H396 N390 0.984 . S
H397 N390 0.984 . S
H398 N386 0.984 . S
H399 N386 0.985 . S
C113 C23 1.481 . S
C115 C9 1.481 . S
C131 C37 1.481 . S
C133 C51 1.481 . S
C149 C65 1.481 . S
C151 C79 1.481 . S
C167 C93 1.481 . S
C169 C107 1.481 . S
C185 C7 1.402 . S
C187 C49 1.402 . S
C203 C35 1.402 . S
C205 C21 1.402 . S
C221 C31 1.371 1_655 S
C223 C17 1.371 1_455 S
C239 C3 1.371 1_655 S
C241 C45 1.371 1_455 S
C257 C63 1.402 . S
C259 C105 1.402 . S
C275 C91 1.402 . S
C277 C77 1.402 . S
C293 C73 1.371 . S
C295 C87 1.371 . S
C311 C59 1.371 . S
C313 C101 1.371 . S
C329 C78 1.506 . S
C331 C8 1.506 . S
C347 C64 1.506 . S
C349 C22 1.506 . S
C365 C36 1.506 . S
C367 C106 1.506 . S
C383 C92 1.506 . S
C385 C50 1.506 . S
