# Generated by pormake.
# Topology vmz, (8)-cn, num edge types: 1
# Building blocks:
#     Node 0, Type 0, BuildingBlock: TAGTUT_clean_sbu_3, # of connection points: 8
#     Node 1, Type 0, BuildingBlock: TAGTUT_clean_sbu_3, # of connection points: 8
#     Node 2, Type 0, BuildingBlock: TAGTUT_clean_sbu_3, # of connection points: 8
#     Node 3, Type 0, BuildingBlock: TAGTUT_clean_sbu_3, # of connection points: 8
#     Edge 4, Type (0, 0), BuildingBlock: AJUNOK_clean_linker_0, # of connection points: 2
#     Edge 5, Type (0, 0), BuildingBlock: AJUNOK_clean_linker_0, # of connection points: 2
#     Edge 6, Type (0, 0), BuildingBlock: AJUNOK_clean_linker_0, # of connection points: 2
#     Edge 7, Type (0, 0), BuildingBlock: AJUNOK_clean_linker_0, # of connection points: 2
#     Edge 8, Type (0, 0), BuildingBlock: AJUNOK_clean_linker_0, # of connection points: 2
#     Edge 9, Type (0, 0), BuildingBlock: AJUNOK_clean_linker_0, # of connection points: 2
#     Edge 10, Type (0, 0), BuildingBlock: AJUNOK_clean_linker_0, # of connection points: 2
#     Edge 11, Type (0, 0), BuildingBlock: AJUNOK_clean_linker_0, # of connection points: 2
#     Edge 12, Type (0, 0), BuildingBlock: AJUNOK_clean_linker_0, # of connection points: 2
#     Edge 13, Type (0, 0), BuildingBlock: AJUNOK_clean_linker_0, # of connection points: 2
#     Edge 14, Type (0, 0), BuildingBlock: AJUNOK_clean_linker_0, # of connection points: 2
#     Edge 15, Type (0, 0), BuildingBlock: AJUNOK_clean_linker_0, # of connection points: 2
#     Edge 16, Type (0, 0), BuildingBlock: AJUNOK_clean_linker_0, # of connection points: 2
#     Edge 17, Type (0, 0), BuildingBlock: AJUNOK_clean_linker_0, # of connection points: 2
#     Edge 18, Type (0, 0), BuildingBlock: AJUNOK_clean_linker_0, # of connection points: 2
#     Edge 19, Type (0, 0), BuildingBlock: AJUNOK_clean_linker_0, # of connection points: 2
# Relax obj value: 0.205
# Max RMSD: 0.273
# Mean RMSD: 0.271
data_MOF--net-vmz--node1-TAGTUT_clean_sbu_3--edge1-AJUNOK_clean_linker_0
_symmetry_space_group_name_H-M    P1
_symmetry_Int_Tables_number       1
_symmetry_cell_setting            triclinic
loop_
_symmetry_equiv_pos_as_xyz
'x, y, z'
_cell_length_a     19.092975
_cell_length_b     14.880679
_cell_length_c     25.32981
_cell_angle_alpha  89.459588
_cell_angle_beta   99.66679
_cell_angle_gamma 90.015343
loop_
_atom_site_label
_atom_site_type_symbol
_atom_site_fract_x
_atom_site_fract_y
_atom_site_fract_z
_atom_type_partial_charge
C0 C 0.17007 0.21915 0.16682 0.0
C1 C 0.19031 0.47935 0.02354 0.0
C2 C 0.1958 0.24549 0.91592 0.0
Mg3 Mg 0.21325 0.01357 0.16044 0.0
Mg4 Mg 0.36394 0.97486 0.12198 0.0
O5 O 0.27465 0.02337 0.10325 0.0
Mg6 Mg 0.26468 0.15166 0.08134 0.0
O7 O 0.24493 0.2797 0.06178 0.0
Mg8 Mg 0.13938 0.27032 0.03654 0.0
Mg9 Mg 0.29575 0.32345 0.0102 0.0
C10 C 0.37701 0.07702 0.01382 0.0
O11 O 0.37491 0.19899 0.11992 0.0
O12 O 0.21675 0.86161 0.14562 0.0
O13 O 0.39927 0.30161 0.05935 0.0
O14 O 0.30636 -0.00172 0.23035 0.0
O15 O 0.3202 0.84327 0.11483 0.0
O16 O 0.40988 0.00568 0.20204 0.0
O17 O 0.15522 0.12027 0.03959 0.0
O18 O 0.11932 0.02078 0.09473 0.0
C19 C 0.10835 0.06868 0.05244 0.0
C20 C 0.2599 0.81432 0.1235 0.0
O21 O 0.31824 0.12025 0.00968 0.0
O22 O 0.14287 0.42425 0.03445 0.0
O23 O 0.40397 0.03045 0.05517 0.0
O24 O 0.14677 0.26008 0.94391 0.0
O25 O 0.24909 0.45395 0.01028 0.0
O26 O 0.26105 0.25592 0.93598 0.0
O27 O 0.21859 0.16844 0.15571 0.0
O28 O 0.13299 0.26896 0.1306 0.0
C29 C 0.37403 -0.0014 0.23984 0.0
C30 C 0.41682 0.25649 0.10311 0.0
C31 C 0.57853 0.61377 0.49566 0.0
C32 C 0.74442 0.83539 0.60498 0.0
C33 C 0.73965 0.98431 0.45803 0.0
Mg34 Mg 0.58512 0.53191 0.38496 0.0
Mg35 Mg 0.73415 0.51819 0.33711 0.0
O36 O 0.6648 0.59513 0.35818 0.0
Mg37 Mg 0.69694 0.67403 0.42199 0.0
O38 O 0.72213 0.74838 0.48661 0.0
Mg39 Mg 0.63268 0.81576 0.48943 0.0
Mg40 Mg 0.80765 0.81233 0.50077 0.0
C41 C 0.80009 0.69999 0.33553 0.0
O42 O 0.79675 0.59321 0.45433 0.0
O43 O 0.56312 0.46983 0.30116 0.0
O44 O 0.87487 0.70026 0.49003 0.0
O45 O 0.64865 0.40279 0.41068 0.0
O46 O 0.66569 0.46623 0.26743 0.0
O47 O 0.75672 0.40572 0.3897 0.0
O48 O 0.60319 0.76666 0.40008 0.0
O49 O 0.52319 0.66758 0.36162 0.0
C50 C 0.54139 0.74887 0.37486 0.0
C51 C 0.59919 0.4491 0.26439 0.0
O52 O 0.76156 0.74504 0.3632 0.0
O53 O 0.68041 0.83821 0.579 0.0
O54 O 0.81676 0.61875 0.34818 0.0
O55 O 0.68422 0.94335 0.46665 0.0
O56 O 0.79872 0.82961 0.58178 0.0
O57 O 0.79915 0.94355 0.46268 0.0
O58 O 0.62356 0.59272 0.46615 0.0
O59 O 0.57632 0.69286 0.51355 0.0
C60 C 0.70944 0.3667 0.41131 0.0
C61 C 0.85868 0.61861 0.47738 0.0
C62 C 0.59852 0.90121 0.98587 0.0
C63 C 0.75854 0.67747 0.10484 0.0
C64 C 0.75102 0.51916 0.95492 0.0
Mg65 Mg 0.60463 0.97694 0.87544 0.0
Mg66 Mg 0.74926 0.98248 0.8201 0.0
O67 O 0.68261 0.90977 0.85006 0.0
Mg68 Mg 0.71234 0.82953 0.91607 0.0
O69 O 0.7359 0.75694 0.98244 0.0
Mg70 Mg 0.64578 0.69164 0.98623 0.0
Mg71 Mg 0.82103 0.69305 -0.00109 0.0
C72 C 0.81074 0.79656 0.83271 0.0
O73 O 0.81055 0.90893 0.94411 0.0
O74 O 0.57721 0.02218 0.78787 0.0
O75 O 0.88831 0.79842 0.9754 0.0
O76 O 0.66868 0.1088 0.89618 0.0
O77 O 0.67392 0.01172 0.74757 0.0
O78 O 0.76873 0.10832 0.86215 0.0
O79 O 0.61545 0.73817 0.89535 0.0
O80 O 0.54106 0.84549 0.85788 0.0
C81 C 0.55423 0.76301 0.87112 0.0
C82 C 0.60744 0.02755 0.74628 0.0
O83 O 0.77679 0.75023 0.86323 0.0
O84 O 0.69477 0.67267 0.07803 0.0
O85 O 0.82786 0.87746 0.84487 0.0
O86 O 0.69307 0.55465 0.96369 0.0
O87 O 0.81319 0.68343 0.08183 0.0
O88 O 0.80922 0.5628 0.96162 0.0
O89 O 0.64548 0.9187 0.95768 0.0
O90 O 0.59221 0.82256 0.00504 0.0
C91 C 0.72662 0.14616 0.88907 0.0
C92 C 0.87358 0.87982 0.96004 0.0
C93 C 0.40584 0.24005 0.61555 0.0
C94 C 0.36747 0.52772 0.73676 0.0
C95 C 0.2276 0.61453 0.60062 0.0
Mg96 Mg 0.29953 0.16582 0.5113 0.0
Mg97 Mg 0.12433 0.1673 0.49928 0.0
O98 O 0.2101 0.22699 0.52257 0.0
Mg99 Mg 0.24198 0.30385 0.58663 0.0
O100 O 0.28332 0.38474 0.6469 0.0
Mg101 Mg 0.35477 0.45224 0.61224 0.0
Mg102 Mg 0.22125 0.46079 0.67589 0.0
C103 C 0.0728 0.35114 0.54157 0.0
O104 O 0.19053 0.2327 0.65542 0.0
O105 O 0.24652 0.14479 0.42214 0.0
O106 O 0.15066 0.3557 0.69348 0.0
O107 O 0.25466 0.0334 0.53852 0.0
O108 O 0.12902 0.1665 0.41502 0.0
O109 O 0.13713 0.03456 0.5343 0.0
O110 O 0.3015 0.39163 0.53372 0.0
O111 O 0.34618 0.29352 0.48346 0.0
C112 C 0.34142 0.37332 0.49983 0.0
C113 C 0.18465 0.15681 0.39374 0.0
O114 O 0.1351 0.37808 0.56338 0.0
O115 O 0.39665 0.50736 0.69625 0.0
O116 O 0.05912 0.27221 0.52254 0.0
O117 O 0.28759 0.5802 0.59645 0.0
O118 O 0.30116 0.5157 0.73776 0.0
O119 O 0.18362 0.57225 0.6242 0.0
O120 O 0.34168 0.21514 0.59965 0.0
O121 O 0.42145 0.32265 0.62578 0.0
C122 C 0.19699 -0.00562 0.54498 0.0
C123 C 0.15889 0.27024 0.69117 0.0
C124 C 0.16768 0.59214 0.08986 0.0
C125 C 0.18736 0.57314 0.03993 0.0
C126 C 0.18977 0.6717 0.11684 0.0
C127 C 0.23254 0.7333 0.09467 0.0
H128 H 0.14042 0.54218 0.11027 0.0
H129 H 0.17663 0.68271 0.15626 0.0
S130 S 0.28283 0.72412 0.9593 0.0
N131 N 0.24049 0.62886 0.96545 0.0
N132 N 0.28186 0.77848 0.01565 0.0
C133 C 0.24601 0.71909 0.04238 0.0
C134 C 0.22315 0.63896 0.015 0.0
C135 C 0.7878 0.13131 0.42962 0.0
C136 C 0.734 0.08276 0.44878 0.0
C137 C 0.78137 0.22436 0.42026 0.0
C138 C 0.72102 0.27223 0.42995 0.0
H139 H 0.83442 0.09705 0.4207 0.0
H140 H 0.82307 0.25829 0.40368 0.0
S141 S 0.56901 0.17779 0.48649 0.0
N142 N 0.62114 0.0912 0.48173 0.0
N143 N 0.60937 0.26457 0.46411 0.0
C144 C 0.66859 0.22495 0.45163 0.0
C145 C 0.67492 0.13068 0.46093 0.0
C146 C 0.74374 0.40028 0.88484 0.0
C147 C 0.75065 0.42373 0.93908 0.0
C148 C 0.73894 0.30966 0.86917 0.0
C149 C 0.74053 0.23975 0.90723 0.0
H150 H 0.74049 0.45234 0.85433 0.0
H151 H 0.73156 0.29428 0.82687 0.0
S152 S 0.76503 0.26592 0.05447 0.0
N153 N 0.76342 0.37006 0.031 0.0
N154 N 0.75489 0.2 0.00156 0.0
C155 C 0.74971 0.26239 0.96161 0.0
C156 C 0.75465 0.35444 0.97754 0.0
C157 C 0.26834 0.85751 0.57451 0.0
C158 C 0.20108 0.8983 0.56156 0.0
C159 C 0.27543 0.76593 0.58613 0.0
C160 C 0.21573 0.71035 0.5855 0.0
H161 H 0.31655 0.8963 0.5754 0.0
H162 H 0.32872 0.73885 0.59634 0.0
S163 S 0.02747 0.78311 0.55528 0.0
N164 N 0.0731 0.87592 0.54969 0.0
N165 N 0.0869 0.70259 0.57174 0.0
C166 C 0.14801 0.7499 0.57357 0.0
C167 C 0.1406 0.84397 0.56153 0.0
C168 C 0.4218 0.81227 0.33819 0.0
C169 C 0.49523 0.8251 0.35322 0.0
C170 C 0.3796 0.87718 0.30753 0.0
C171 C 0.40991 0.95594 0.28976 0.0
H172 H 0.39749 0.74951 0.34743 0.0
H173 H 0.32451 0.86074 0.29289 0.0
S174 S 0.59641 0.03004 0.32711 0.0
N175 N 0.59415 0.93001 0.35556 0.0
N176 N 0.51453 0.05 0.29642 0.0
C177 C 0.48142 0.97399 0.30936 0.0
C178 C 0.5243 0.90884 0.34139 0.0
C179 C 0.52257 0.31956 0.23534 0.0
C180 C 0.56421 0.39099 0.2215 0.0
C181 C 0.48145 0.26821 0.19611 0.0
C182 C 0.47886 0.28817 0.14141 0.0
H183 H 0.51984 0.30508 0.27698 0.0
H184 H 0.44718 0.21749 0.20914 0.0
S185 S 0.59011 0.45731 0.08498 0.0
N186 N 0.61051 0.46989 0.1505 0.0
N187 N 0.53085 0.37555 0.07566 0.0
C188 C 0.52585 0.35401 0.12715 0.0
C189 C 0.56902 0.40521 0.16753 0.0
C190 C 0.44111 0.08957 0.65401 0.0
C191 C 0.46083 0.17149 0.63269 0.0
C192 C 0.49161 0.03616 0.68624 0.0
C193 C 0.56334 0.0622 0.69724 0.0
H194 H 0.38564 0.07096 0.65046 0.0
H195 H 0.47342 0.97837 0.70652 0.0
S196 S 0.64434 0.25729 0.63862 0.0
N197 N 0.55838 0.26673 0.61567 0.0
N198 N 0.6537 0.16492 0.67587 0.0
C199 C 0.58514 0.13679 0.66993 0.0
C200 C 0.53355 0.19209 0.63771 0.0
C201 C 0.5279 0.61272 0.83026 0.0
C202 C 0.50289 0.69444 0.84762 0.0
C203 C 0.48256 0.55575 0.79662 0.0
C204 C 0.41045 0.57738 0.78062 0.0
H205 H 0.58384 0.59572 0.83938 0.0
H206 H 0.50469 0.49638 0.78117 0.0
S207 S 0.31719 0.77803 0.82028 0.0
N208 N 0.40043 0.79047 0.84989 0.0
N209 N 0.31471 0.68177 0.78813 0.0
C210 C 0.3836 0.65509 0.80121 0.0
C211 C 0.43003 0.71411 0.8344 0.0
C212 C -0.01858 0.07428 0.01611 0.0
C213 C 0.04956 0.04391 0.01201 0.0
C214 C 0.92219 0.02551 0.99264 0.0
C215 C 0.93104 0.94443 0.9665 0.0
H216 H 0.97429 0.13056 0.04155 0.0
H217 H 0.87028 0.04584 0.00019 0.0
S218 S 0.09869 0.84836 0.93691 0.0
N219 N 0.12294 0.93866 0.97283 0.0
N220 N 0.01113 0.84456 0.92993 0.0
C221 C -0.00154 0.91966 0.95702 0.0
C222 C 0.05832 0.97037 0.97973 0.0
C223 C 0.97688 0.41785 0.47576 0.0
C224 C 0.01629 0.41746 0.52802 0.0
C225 C 0.92537 0.48324 0.45946 0.0
C226 C 0.91208 0.55001 0.49497 0.0
H227 H -0.01284 0.36852 0.44678 0.0
H228 H 0.89685 0.48262 0.41869 0.0
S229 S -0.00815 0.56855 0.63849 0.0
N230 N 0.03375 0.48306 0.61655 0.0
N231 N 0.93504 0.60572 0.58635 0.0
C232 C 0.94877 0.54812 0.54801 0.0
C233 C 0.00166 0.48185 0.56446 0.0
C234 C 0.4096 0.98105 0.94879 0.0
C235 C 0.41465 0.06883 0.96896 0.0
C236 C 0.46968 0.92569 0.9566 0.0
C237 C 0.53677 0.96076 0.97773 0.0
H238 H 0.35796 0.94953 0.93843 0.0
H239 H 0.46329 0.85479 0.94787 0.0
S240 S 0.57929 0.19994 0.00552 0.0
N241 N 0.49177 0.19712 0.99011 0.0
N242 N 0.60689 0.0957 2e-05 0.0
C243 C 0.54371 0.05396 0.98422 0.0
C244 C 0.48187 0.10882 0.97814 0.0
C245 C 0.46946 0.40265 0.49942 0.0
C246 C 0.39963 0.43584 0.49448 0.0
C247 C 0.52731 0.46073 0.50049 0.0
C248 C 0.51731 0.55408 0.49712 0.0
H249 H 0.47964 0.33132 0.50425 0.0
H250 H 0.58032 0.43264 0.50485 0.0
S251 S 0.34422 0.67412 0.47778 0.0
N252 N 0.32309 0.56706 0.48261 0.0
N253 N 0.43172 0.67707 0.48437 0.0
C254 C 0.44752 0.58819 0.49102 0.0
C255 C 0.38866 0.52883 0.48982 0.0
C256 C 0.10054 0.2526 0.77135 0.0
C257 C 0.15353 0.2236 0.74257 0.0
C258 C 0.11197 0.25243 0.82774 0.0
C259 C 0.17709 0.22368 0.85767 0.0
H260 H 0.05306 0.28511 0.75022 0.0
H261 H 0.07196 0.2825 0.84769 0.0
S262 S 0.32563 0.11944 0.80209 0.0
N263 N 0.26782 0.14908 0.74871 0.0
N264 N 0.28933 0.14821 0.85426 0.0
C265 C 0.22658 0.18358 0.82949 0.0
C266 C 0.21455 0.18302 0.77207 0.0
C267 C 0.84612 0.80661 0.74496 0.0
C268 C 0.79351 0.7833 0.77495 0.0
C269 C 0.82879 0.82653 0.69061 0.0
C270 C 0.75793 0.82353 0.66373 0.0
H271 H 0.90082 0.8146 0.76444 0.0
H272 H 0.87175 0.84542 0.66974 0.0
S273 S 0.60026 0.76198 0.72449 0.0
N274 N 0.66782 0.75528 0.77449 0.0
N275 N 0.63474 0.79159 0.67131 0.0
C276 C 0.70467 0.79752 0.69304 0.0
C277 C 0.72263 0.77693 0.7488 0.0
C278 C 0.72498 0.72644 0.24632 0.0
C279 C 0.79309 0.71776 0.27749 0.0
C280 C 0.71378 0.71167 0.19073 0.0
C281 C 0.77026 0.68764 0.16423 0.0
H282 H 0.67931 0.73909 0.26545 0.0
H283 H 0.66032 0.71824 0.16856 0.0
S284 S 0.95928 0.65926 0.22849 0.0
N285 N 0.91763 0.68628 0.27816 0.0
N286 N 0.8977 0.65872 0.17433 0.0
C287 C 0.83903 0.68163 0.19512 0.0
C288 C 0.85012 0.69688 0.25142 0.0
C289 C 0.1146 0.16444 0.29977 0.0
C290 C 0.17922 0.1763 0.33544 0.0
C291 C 0.10844 0.18652 0.24487 0.0
C292 C 0.16608 0.22363 0.22434 0.0
H293 H 0.06912 0.13548 0.31407 0.0
H294 H 0.05981 0.17022 0.21806 0.0
S295 S 0.34408 0.27719 0.30098 0.0
N296 N 0.30024 0.2337 0.34594 0.0
N297 N 0.28786 0.27642 0.24389 0.0
C298 C 0.22943 0.24005 0.26001 0.0
C299 C 0.2363 0.21602 0.31519 0.0
loop_
_geom_bond_atom_site_label_1
_geom_bond_atom_site_label_2
_geom_bond_distance
_geom_bond_site_symmetry_2
_ccdc_geom_bond_type
C0 O27 1.312 . S
C0 O28 1.208 . S
C1 O22 1.331 . S
C1 O25 1.244 . S
C2 O24 1.264 . S
C2 O26 1.273 . S
Mg3 O5 1.936 . S
Mg3 O12 2.081 . S
Mg3 O14 2.023 . S
Mg3 O18 2.031 . S
Mg3 O27 2.291 1_565 S
Mg4 O5 1.963 . S
Mg4 O15 1.942 . S
Mg4 O16 1.955 . S
Mg4 O23 1.986 . S
O5 Mg3 1.936 . S
O5 Mg4 1.963 . S
O5 Mg6 1.915 1_565 S
Mg6 O5 1.915 1_545 S
Mg6 O7 1.915 . S
Mg6 O11 2.013 . S
Mg6 O17 2.114 . S
Mg6 O21 2.013 . S
Mg6 O27 2.114 . S
O7 Mg6 1.915 . S
O7 Mg8 1.936 . S
O7 Mg9 1.963 . S
Mg8 O7 1.936 . S
Mg8 O17 2.291 . S
Mg8 O22 2.081 . S
Mg8 O24 2.023 1_554 S
Mg8 O28 2.031 . S
Mg9 O7 1.963 . S
Mg9 O13 1.986 . S
Mg9 O25 1.942 . S
Mg9 O26 1.955 1_554 S
C10 O21 1.191 . S
C10 O23 1.307 1_545 S
O11 Mg6 2.013 . S
O11 C30 1.191 . S
O12 Mg3 2.081 . S
O12 C20 1.331 . S
O13 Mg9 1.986 . S
O13 C30 1.307 . S
O14 Mg3 2.023 . S
O14 C29 1.264 . S
O15 Mg4 1.942 . S
O15 C20 1.244 . S
O16 Mg4 1.955 . S
O16 C29 1.273 . S
O17 Mg6 2.114 . S
O17 Mg8 2.291 . S
O17 C19 1.312 . S
O18 Mg3 2.031 . S
O18 C19 1.208 1_565 S
C19 O17 1.312 . S
C19 O18 1.208 1_545 S
C20 O12 1.331 . S
C20 O15 1.244 . S
O21 Mg6 2.013 . S
O21 C10 1.191 . S
O22 C1 1.331 . S
O22 Mg8 2.081 . S
O23 Mg4 1.986 . S
O23 C10 1.307 1_565 S
O24 C2 1.264 . S
O24 Mg8 2.023 1_556 S
O25 C1 1.244 . S
O25 Mg9 1.942 . S
O26 C2 1.273 . S
O26 Mg9 1.955 1_556 S
O27 C0 1.312 . S
O27 Mg3 2.291 1_545 S
O27 Mg6 2.114 . S
O28 C0 1.208 . S
O28 Mg8 2.031 . S
C29 O14 1.264 . S
C29 O16 1.273 . S
C30 O11 1.191 . S
C30 O13 1.307 . S
C31 O58 1.312 . S
C31 O59 1.208 . S
C32 O53 1.331 . S
C32 O56 1.244 . S
C33 O55 1.264 . S
C33 O57 1.273 . S
Mg34 O36 1.936 . S
Mg34 O43 2.081 . S
Mg34 O45 2.023 . S
Mg34 O49 2.031 . S
Mg34 O58 2.291 . S
Mg35 O36 1.963 . S
Mg35 O46 1.942 . S
Mg35 O47 1.955 . S
Mg35 O54 1.986 . S
O36 Mg34 1.936 . S
O36 Mg35 1.963 . S
O36 Mg37 1.915 . S
Mg37 O36 1.915 . S
Mg37 O38 1.915 . S
Mg37 O42 2.013 . S
Mg37 O48 2.114 . S
Mg37 O52 2.013 . S
Mg37 O58 2.114 . S
O38 Mg37 1.915 . S
O38 Mg39 1.936 . S
O38 Mg40 1.963 . S
Mg39 O38 1.936 . S
Mg39 O48 2.291 . S
Mg39 O53 2.081 . S
Mg39 O55 2.023 . S
Mg39 O59 2.031 . S
Mg40 O38 1.963 . S
Mg40 O44 1.986 . S
Mg40 O56 1.942 . S
Mg40 O57 1.955 . S
C41 O52 1.191 . S
C41 O54 1.307 . S
O42 Mg37 2.013 . S
O42 C61 1.191 . S
O43 Mg34 2.081 . S
O43 C51 1.331 . S
O44 Mg40 1.986 . S
O44 C61 1.307 . S
O45 Mg34 2.023 . S
O45 C60 1.264 . S
O46 Mg35 1.942 . S
O46 C51 1.244 . S
O47 Mg35 1.955 . S
O47 C60 1.273 . S
O48 Mg37 2.114 . S
O48 Mg39 2.291 . S
O48 C50 1.312 . S
O49 Mg34 2.031 . S
O49 C50 1.208 . S
C50 O48 1.312 . S
C50 O49 1.208 . S
C51 O43 1.331 . S
C51 O46 1.244 . S
O52 Mg37 2.013 . S
O52 C41 1.191 . S
O53 C32 1.331 . S
O53 Mg39 2.081 . S
O54 Mg35 1.986 . S
O54 C41 1.307 . S
O55 C33 1.264 . S
O55 Mg39 2.023 . S
O56 C32 1.244 . S
O56 Mg40 1.942 . S
O57 C33 1.273 . S
O57 Mg40 1.955 . S
O58 C31 1.312 . S
O58 Mg34 2.291 . S
O58 Mg37 2.114 . S
O59 C31 1.208 . S
O59 Mg39 2.031 . S
C60 O45 1.264 . S
C60 O47 1.273 . S
C61 O42 1.191 . S
C61 O44 1.307 . S
C62 O89 1.312 . S
C62 O90 1.208 . S
C63 O84 1.331 . S
C63 O87 1.244 . S
C64 O86 1.264 . S
C64 O88 1.273 . S
Mg65 O67 1.936 1_545 S
Mg65 O74 2.081 . S
Mg65 O76 2.023 . S
Mg65 O80 2.031 1_545 S
Mg65 O89 2.291 1_545 S
Mg66 O67 1.963 1_545 S
Mg66 O77 1.942 . S
Mg66 O78 1.955 . S
Mg66 O85 1.986 1_545 S
O67 Mg65 1.936 1_565 S
O67 Mg66 1.963 1_565 S
O67 Mg68 1.915 . S
Mg68 O67 1.915 . S
Mg68 O69 1.915 . S
Mg68 O73 2.013 . S
Mg68 O79 2.114 . S
Mg68 O83 2.013 . S
Mg68 O89 2.114 . S
O69 Mg68 1.915 . S
O69 Mg70 1.936 . S
O69 Mg71 1.963 . S
Mg70 O69 1.936 . S
Mg70 O79 2.291 . S
Mg70 O84 2.081 1_556 S
Mg70 O86 2.023 . S
Mg70 O90 2.031 . S
Mg71 O69 1.963 . S
Mg71 O75 1.986 . S
Mg71 O87 1.942 1_556 S
Mg71 O88 1.955 . S
C72 O83 1.191 . S
C72 O85 1.307 . S
O73 Mg68 2.013 . S
O73 C92 1.191 . S
O74 Mg65 2.081 . S
O74 C82 1.331 . S
O75 Mg71 1.986 . S
O75 C92 1.307 . S
O76 Mg65 2.023 . S
O76 C91 1.264 . S
O77 Mg66 1.942 . S
O77 C82 1.244 . S
O78 Mg66 1.955 . S
O78 C91 1.273 . S
O79 Mg68 2.114 . S
O79 Mg70 2.291 . S
O79 C81 1.312 . S
O80 Mg65 2.031 1_565 S
O80 C81 1.208 . S
C81 O79 1.312 . S
C81 O80 1.208 . S
C82 O74 1.331 . S
C82 O77 1.244 . S
O83 Mg68 2.013 . S
O83 C72 1.191 . S
O84 C63 1.331 . S
O84 Mg70 2.081 1_554 S
O85 Mg66 1.986 1_565 S
O85 C72 1.307 . S
O86 C64 1.264 . S
O86 Mg70 2.023 . S
O87 C63 1.244 . S
O87 Mg71 1.942 1_554 S
O88 C64 1.273 . S
O88 Mg71 1.955 . S
O89 C62 1.312 . S
O89 Mg65 2.291 1_565 S
O89 Mg68 2.114 . S
O90 C62 1.208 . S
O90 Mg70 2.031 . S
C91 O76 1.264 . S
C91 O78 1.273 . S
C92 O73 1.191 . S
C92 O75 1.307 . S
C93 O120 1.312 . S
C93 O121 1.208 . S
C94 O115 1.331 . S
C94 O118 1.244 . S
C95 O117 1.264 . S
C95 O119 1.273 . S
Mg96 O98 1.936 . S
Mg96 O105 2.081 . S
Mg96 O107 2.023 . S
Mg96 O111 2.031 . S
Mg96 O120 2.291 . S
Mg97 O98 1.963 . S
Mg97 O108 1.942 . S
Mg97 O109 1.955 . S
Mg97 O116 1.986 . S
O98 Mg96 1.936 . S
O98 Mg97 1.963 . S
O98 Mg99 1.915 . S
Mg99 O98 1.915 . S
Mg99 O100 1.915 . S
Mg99 O104 2.013 . S
Mg99 O110 2.114 . S
Mg99 O114 2.013 . S
Mg99 O120 2.114 . S
O100 Mg99 1.915 . S
O100 Mg101 1.936 . S
O100 Mg102 1.963 . S
Mg101 O100 1.936 . S
Mg101 O110 2.291 . S
Mg101 O115 2.081 . S
Mg101 O117 2.023 . S
Mg101 O121 2.031 . S
Mg102 O100 1.963 . S
Mg102 O106 1.986 . S
Mg102 O118 1.942 . S
Mg102 O119 1.955 . S
C103 O114 1.191 . S
C103 O116 1.307 . S
O104 Mg99 2.013 . S
O104 C123 1.191 . S
O105 Mg96 2.081 . S
O105 C113 1.331 . S
O106 Mg102 1.986 . S
O106 C123 1.307 . S
O107 Mg96 2.023 . S
O107 C122 1.264 . S
O108 Mg97 1.942 . S
O108 C113 1.244 . S
O109 Mg97 1.955 . S
O109 C122 1.273 . S
O110 Mg99 2.114 . S
O110 Mg101 2.291 . S
O110 C112 1.312 . S
O111 Mg96 2.031 . S
O111 C112 1.208 . S
C112 O110 1.312 . S
C112 O111 1.208 . S
C113 O105 1.331 . S
C113 O108 1.244 . S
O114 Mg99 2.013 . S
O114 C103 1.191 . S
O115 C94 1.331 . S
O115 Mg101 2.081 . S
O116 Mg97 1.986 . S
O116 C103 1.307 . S
O117 C95 1.264 . S
O117 Mg101 2.023 . S
O118 C94 1.244 . S
O118 Mg102 1.942 . S
O119 C95 1.273 . S
O119 Mg102 1.955 . S
O120 C93 1.312 . S
O120 Mg96 2.291 . S
O120 Mg99 2.114 . S
O121 C93 1.208 . S
O121 Mg101 2.031 . S
C122 O107 1.264 . S
C122 O109 1.273 . S
C123 O104 1.191 . S
C123 O106 1.307 . S
C124 C125 1.369 . S
C124 C126 1.419 . S
C124 H128 0.930 . S
C125 C124 1.369 . S
C125 C134 1.429 . S
C126 C124 1.419 . S
C126 C127 1.363 . S
C126 H129 0.929 . S
C127 C126 1.363 . S
C127 C133 1.428 . S
H128 C124 0.930 . S
H129 C126 0.929 . S
S130 N131 1.613 . S
S130 N132 1.610 . S
N131 S130 1.613 . S
N131 C134 1.350 . S
N132 S130 1.610 . S
N132 C133 1.351 . S
C133 C127 1.428 . S
C133 N132 1.351 . S
C133 C134 1.434 . S
C134 C125 1.429 . S
C134 N131 1.350 . S
C134 C133 1.434 . S
C135 C136 1.369 . S
C135 C137 1.419 . S
C135 H139 0.930 . S
C136 C135 1.369 . S
C136 C145 1.429 . S
C137 C135 1.419 . S
C137 C138 1.363 . S
C137 H140 0.929 . S
C138 C137 1.363 . S
C138 C144 1.428 . S
H139 C135 0.930 . S
H140 C137 0.929 . S
S141 N142 1.615 . S
S141 N143 1.610 . S
N142 S141 1.615 . S
N142 C145 1.351 . S
N143 S141 1.610 . S
N143 C144 1.351 . S
C144 C138 1.428 . S
C144 N143 1.351 . S
C144 C145 1.434 . S
C145 C136 1.429 . S
C145 N142 1.351 . S
C145 C144 1.434 . S
C146 C147 1.369 . S
C146 C148 1.419 . S
C146 H150 0.930 . S
C147 C146 1.369 . S
C147 C156 1.429 . S
C148 C146 1.419 . S
C148 C149 1.363 . S
C148 H151 0.929 . S
C149 C148 1.363 . S
C149 C155 1.428 . S
H150 C146 0.930 . S
H151 C148 0.929 . S
S152 N153 1.613 . S
S152 N154 1.610 . S
N153 S152 1.613 . S
N153 C156 1.350 . S
N154 S152 1.610 . S
N154 C155 1.351 . S
C155 C149 1.428 . S
C155 N154 1.351 . S
C155 C156 1.434 . S
C156 C147 1.429 . S
C156 N153 1.350 . S
C156 C155 1.434 . S
C157 C158 1.369 1_565 S
C157 C159 1.419 . S
C157 H161 0.930 . S
C158 C157 1.369 1_545 S
C158 C167 1.429 1_545 S
C159 C157 1.419 . S
C159 C160 1.363 . S
C159 H162 0.929 . S
C160 C159 1.363 . S
C160 C166 1.428 . S
H161 C157 0.930 . S
H162 C159 0.929 . S
S163 N164 1.613 . S
S163 N165 1.610 . S
N164 S163 1.613 . S
N164 C167 1.350 . S
N165 S163 1.610 . S
N165 C166 1.351 . S
C166 C160 1.428 . S
C166 N165 1.351 . S
C166 C167 1.434 . S
C167 C158 1.429 1_565 S
C167 N164 1.350 . S
C167 C166 1.434 . S
C168 C169 1.369 . S
C168 C170 1.419 . S
C168 H172 0.930 . S
C169 C168 1.369 . S
C169 C178 1.429 . S
C170 C168 1.419 . S
C170 C171 1.363 . S
C170 H173 0.929 . S
C171 C170 1.363 . S
C171 C177 1.428 . S
H172 C168 0.930 . S
H173 C170 0.929 . S
S174 N175 1.613 . S
S174 N176 1.610 . S
N175 S174 1.613 . S
N175 C178 1.350 . S
N176 S174 1.610 . S
N176 C177 1.351 . S
C177 C171 1.428 . S
C177 N176 1.351 . S
C177 C178 1.434 . S
C178 C169 1.429 . S
C178 N175 1.350 . S
C178 C177 1.434 . S
C179 C180 1.369 . S
C179 C181 1.419 . S
C179 H183 0.930 . S
C180 C179 1.369 . S
C180 C189 1.429 . S
C181 C179 1.419 . S
C181 C182 1.363 . S
C181 H184 0.929 . S
C182 C181 1.363 . S
C182 C188 1.428 . S
H183 C179 0.930 . S
H184 C181 0.929 . S
S185 N186 1.613 . S
S185 N187 1.610 . S
N186 S185 1.613 . S
N186 C189 1.350 . S
N187 S185 1.610 . S
N187 C188 1.351 . S
C188 C182 1.428 . S
C188 N187 1.351 . S
C188 C189 1.434 . S
C189 C180 1.429 . S
C189 N186 1.350 . S
C189 C188 1.434 . S
C190 C191 1.369 . S
C190 C192 1.419 . S
C190 H194 0.930 . S
C191 C190 1.369 . S
C191 C200 1.429 . S
C192 C190 1.419 . S
C192 C193 1.363 . S
C192 H195 0.929 . S
C193 C192 1.363 . S
C193 C199 1.428 . S
H194 C190 0.930 . S
H195 C192 0.929 . S
S196 N197 1.613 . S
S196 N198 1.610 . S
N197 S196 1.613 . S
N197 C200 1.350 . S
N198 S196 1.610 . S
N198 C199 1.351 . S
C199 C193 1.428 . S
C199 N198 1.351 . S
C199 C200 1.434 . S
C200 C191 1.429 . S
C200 N197 1.350 . S
C200 C199 1.434 . S
C201 C202 1.369 . S
C201 C203 1.419 . S
C201 H205 0.930 . S
C202 C201 1.369 . S
C202 C211 1.429 . S
C203 C201 1.419 . S
C203 C204 1.363 . S
C203 H206 0.929 . S
C204 C203 1.363 . S
C204 C210 1.428 . S
H205 C201 0.930 . S
H206 C203 0.929 . S
S207 N208 1.613 . S
S207 N209 1.610 . S
N208 S207 1.613 . S
N208 C211 1.350 . S
N209 S207 1.610 . S
N209 C210 1.351 . S
C210 C204 1.428 . S
C210 N209 1.351 . S
C210 C211 1.434 . S
C211 C202 1.429 . S
C211 N208 1.350 . S
C211 C210 1.434 . S
C212 C213 1.369 . S
C212 C214 1.419 1_454 S
C212 H216 0.930 . S
C213 C212 1.369 . S
C213 C222 1.429 1_545 S
C214 C212 1.419 1_656 S
C214 C215 1.363 1_545 S
C214 H217 0.929 . S
C215 C214 1.363 1_565 S
C215 C221 1.428 . S
H216 C212 0.930 . S
H217 C214 0.929 . S
S218 N219 1.613 1_556 S
S218 N220 1.610 1_455 S
N219 S218 1.613 1_554 S
N219 C222 1.350 . S
N220 S218 1.610 1_655 S
N220 C221 1.351 . S
C221 C215 1.428 . S
C221 N220 1.351 . S
C221 C222 1.434 1_656 S
C222 C213 1.429 1_565 S
C222 N219 1.350 . S
C222 C221 1.434 1_454 S
C223 C224 1.369 . S
C223 C225 1.419 1_455 S
C223 H227 0.930 . S
C224 C223 1.369 . S
C224 C233 1.429 . S
C225 C223 1.419 1_655 S
C225 C226 1.363 . S
C225 H228 0.929 . S
C226 C225 1.363 . S
C226 C232 1.428 . S
H227 C223 0.930 . S
H228 C225 0.929 . S
S229 N230 1.613 1_655 S
S229 N231 1.610 . S
N230 S229 1.613 1_455 S
N230 C233 1.350 . S
N231 S229 1.610 . S
N231 C232 1.351 . S
C232 C226 1.428 . S
C232 N231 1.351 . S
C232 C233 1.434 1_655 S
C233 C224 1.429 . S
C233 N230 1.350 . S
C233 C232 1.434 1_455 S
C234 C235 1.369 1_564 S
C234 C236 1.419 . S
C234 H238 0.930 . S
C235 C234 1.369 1_546 S
C235 C244 1.429 . S
C236 C234 1.419 . S
C236 C237 1.363 1_554 S
C236 H239 0.929 . S
C237 C236 1.363 1_556 S
C237 C243 1.428 1_565 S
H238 C234 0.930 . S
H239 C236 0.929 . S
S240 N241 1.613 . S
S240 N242 1.610 . S
N241 S240 1.613 . S
N241 C244 1.350 . S
N242 S240 1.610 . S
N242 C243 1.351 . S
C243 C237 1.428 1_545 S
C243 N242 1.351 . S
C243 C244 1.434 . S
C244 C235 1.429 . S
C244 N241 1.350 . S
C244 C243 1.434 . S
C245 C246 1.369 . S
C245 C247 1.419 . S
C245 H249 0.930 . S
C246 C245 1.369 . S
C246 C255 1.429 . S
C247 C245 1.419 . S
C247 C248 1.363 . S
C247 H250 0.929 . S
C248 C247 1.363 . S
C248 C254 1.428 . S
H249 C245 0.930 . S
H250 C247 0.929 . S
S251 N252 1.613 . S
S251 N253 1.610 . S
N252 S251 1.613 . S
N252 C255 1.350 . S
N253 S251 1.610 . S
N253 C254 1.351 . S
C254 C248 1.428 . S
C254 N253 1.351 . S
C254 C255 1.434 . S
C255 C246 1.429 . S
C255 N252 1.350 . S
C255 C254 1.434 . S
C256 C257 1.369 . S
C256 C258 1.419 . S
C256 H260 0.930 . S
C257 C256 1.369 . S
C257 C266 1.429 . S
C258 C256 1.419 . S
C258 C259 1.363 . S
C258 H261 0.929 . S
C259 C258 1.363 . S
C259 C265 1.428 . S
H260 C256 0.930 . S
H261 C258 0.929 . S
S262 N263 1.613 . S
S262 N264 1.610 . S
N263 S262 1.613 . S
N263 C266 1.350 . S
N264 S262 1.610 . S
N264 C265 1.351 . S
C265 C259 1.428 . S
C265 N264 1.351 . S
C265 C266 1.434 . S
C266 C257 1.429 . S
C266 N263 1.350 . S
C266 C265 1.434 . S
C267 C268 1.369 . S
C267 C269 1.419 . S
C267 H271 0.930 . S
C268 C267 1.369 . S
C268 C277 1.429 . S
C269 C267 1.419 . S
C269 C270 1.363 . S
C269 H272 0.929 . S
C270 C269 1.363 . S
C270 C276 1.428 . S
H271 C267 0.930 . S
H272 C269 0.929 . S
S273 N274 1.613 . S
S273 N275 1.610 . S
N274 S273 1.613 . S
N274 C277 1.350 . S
N275 S273 1.610 . S
N275 C276 1.351 . S
C276 C270 1.428 . S
C276 N275 1.351 . S
C276 C277 1.434 . S
C277 C268 1.429 . S
C277 N274 1.350 . S
C277 C276 1.434 . S
C278 C279 1.369 . S
C278 C280 1.419 . S
C278 H282 0.930 . S
C279 C278 1.369 . S
C279 C288 1.429 . S
C280 C278 1.419 . S
C280 C281 1.363 . S
C280 H283 0.929 . S
C281 C280 1.363 . S
C281 C287 1.428 . S
H282 C278 0.930 . S
H283 C280 0.929 . S
S284 N285 1.613 . S
S284 N286 1.610 . S
N285 S284 1.613 . S
N285 C288 1.350 . S
N286 S284 1.610 . S
N286 C287 1.351 . S
C287 C281 1.428 . S
C287 N286 1.351 . S
C287 C288 1.434 . S
C288 C279 1.429 . S
C288 N285 1.350 . S
C288 C287 1.434 . S
C289 C290 1.369 . S
C289 C291 1.419 . S
C289 H293 0.930 . S
C290 C289 1.369 . S
C290 C299 1.429 . S
C291 C289 1.419 . S
C291 C292 1.363 . S
C291 H294 0.929 . S
C292 C291 1.363 . S
C292 C298 1.428 . S
H293 C289 0.930 . S
H294 C291 0.929 . S
S295 N296 1.613 . S
S295 N297 1.610 . S
N296 S295 1.613 . S
N296 C299 1.350 . S
N297 S295 1.610 . S
N297 C298 1.351 . S
C298 C292 1.428 . S
C298 N297 1.351 . S
C298 C299 1.434 . S
C299 C290 1.429 . S
C299 N296 1.350 . S
C299 C298 1.434 . S
C125 C1 1.067 . S
C127 C20 1.086 . S
C136 C33 1.580 1_545 S
C138 C60 1.597 . S
C147 C64 1.585 . S
C149 C91 1.602 . S
C158 C122 1.589 . S
C160 C95 1.590 . S
C169 C50 1.471 . S
C171 C29 1.260 . S
C180 C51 1.103 . S
C182 C30 1.183 . S
C191 C93 1.320 . S
C193 C82 1.134 . S
C202 C81 1.340 . S
C204 C94 1.157 . S
C213 C19 1.310 . S
C215 C92 1.260 . S
C224 C103 1.248 . S
C226 C61 1.242 . S
C235 C10 1.282 1_556 S
C237 C62 1.291 . S
C246 C112 1.323 . S
C248 C31 1.309 . S
C257 C123 1.920 . S
C259 C2 2.017 . S
C268 C72 1.731 . S
C270 C32 1.843 . S
C279 C41 1.700 . S
C281 C63 1.803 . S
C290 C113 1.934 . S
C292 C0 1.944 . S
