# Generated by pormake.
# Topology ure, (4)-cn, num edge types: 1
# Building blocks:
#     Node 0, Type 0, BuildingBlock: QUQFOY_clean_sbu_3, # of connection points: 4
#     Node 1, Type 0, BuildingBlock: QUQFOY_clean_sbu_3, # of connection points: 4
#     Node 2, Type 0, BuildingBlock: QUQFOY_clean_sbu_3, # of connection points: 4
#     Node 3, Type 0, BuildingBlock: QUQFOY_clean_sbu_3, # of connection points: 4
#     Node 4, Type 0, BuildingBlock: QUQFOY_clean_sbu_3, # of connection points: 4
#     Node 5, Type 0, BuildingBlock: QUQFOY_clean_sbu_3, # of connection points: 4
#     Node 6, Type 0, BuildingBlock: QUQFOY_clean_sbu_3, # of connection points: 4
#     Node 7, Type 0, BuildingBlock: QUQFOY_clean_sbu_3, # of connection points: 4
#     Node 8, Type 0, BuildingBlock: QUQFOY_clean_sbu_3, # of connection points: 4
#     Node 9, Type 0, BuildingBlock: QUQFOY_clean_sbu_3, # of connection points: 4
#     Node 10, Type 0, BuildingBlock: QUQFOY_clean_sbu_3, # of connection points: 4
#     Node 11, Type 0, BuildingBlock: QUQFOY_clean_sbu_3, # of connection points: 4
#     Node 12, Type 0, BuildingBlock: QUQFOY_clean_sbu_3, # of connection points: 4
#     Node 13, Type 0, BuildingBlock: QUQFOY_clean_sbu_3, # of connection points: 4
#     Node 14, Type 0, BuildingBlock: QUQFOY_clean_sbu_3, # of connection points: 4
#     Node 15, Type 0, BuildingBlock: QUQFOY_clean_sbu_3, # of connection points: 4
#     Edge 16, Type (0, 0), BuildingBlock: EZIPEK_clean_linker_0, # of connection points: 2
#     Edge 17, Type (0, 0), BuildingBlock: EZIPEK_clean_linker_0, # of connection points: 2
#     Edge 18, Type (0, 0), BuildingBlock: EZIPEK_clean_linker_0, # of connection points: 2
#     Edge 19, Type (0, 0), BuildingBlock: EZIPEK_clean_linker_0, # of connection points: 2
#     Edge 20, Type (0, 0), BuildingBlock: EZIPEK_clean_linker_0, # of connection points: 2
#     Edge 21, Type (0, 0), BuildingBlock: EZIPEK_clean_linker_0, # of connection points: 2
#     Edge 22, Type (0, 0), BuildingBlock: EZIPEK_clean_linker_0, # of connection points: 2
#     Edge 23, Type (0, 0), BuildingBlock: EZIPEK_clean_linker_0, # of connection points: 2
#     Edge 24, Type (0, 0), BuildingBlock: EZIPEK_clean_linker_0, # of connection points: 2
#     Edge 25, Type (0, 0), BuildingBlock: EZIPEK_clean_linker_0, # of connection points: 2
#     Edge 26, Type (0, 0), BuildingBlock: EZIPEK_clean_linker_0, # of connection points: 2
#     Edge 27, Type (0, 0), BuildingBlock: EZIPEK_clean_linker_0, # of connection points: 2
#     Edge 28, Type (0, 0), BuildingBlock: EZIPEK_clean_linker_0, # of connection points: 2
#     Edge 29, Type (0, 0), BuildingBlock: EZIPEK_clean_linker_0, # of connection points: 2
#     Edge 30, Type (0, 0), BuildingBlock: EZIPEK_clean_linker_0, # of connection points: 2
#     Edge 31, Type (0, 0), BuildingBlock: EZIPEK_clean_linker_0, # of connection points: 2
#     Edge 32, Type (0, 0), BuildingBlock: EZIPEK_clean_linker_0, # of connection points: 2
#     Edge 33, Type (0, 0), BuildingBlock: EZIPEK_clean_linker_0, # of connection points: 2
#     Edge 34, Type (0, 0), BuildingBlock: EZIPEK_clean_linker_0, # of connection points: 2
#     Edge 35, Type (0, 0), BuildingBlock: EZIPEK_clean_linker_0, # of connection points: 2
#     Edge 36, Type (0, 0), BuildingBlock: EZIPEK_clean_linker_0, # of connection points: 2
#     Edge 37, Type (0, 0), BuildingBlock: EZIPEK_clean_linker_0, # of connection points: 2
#     Edge 38, Type (0, 0), BuildingBlock: EZIPEK_clean_linker_0, # of connection points: 2
#     Edge 39, Type (0, 0), BuildingBlock: EZIPEK_clean_linker_0, # of connection points: 2
#     Edge 40, Type (0, 0), BuildingBlock: EZIPEK_clean_linker_0, # of connection points: 2
#     Edge 41, Type (0, 0), BuildingBlock: EZIPEK_clean_linker_0, # of connection points: 2
#     Edge 42, Type (0, 0), BuildingBlock: EZIPEK_clean_linker_0, # of connection points: 2
#     Edge 43, Type (0, 0), BuildingBlock: EZIPEK_clean_linker_0, # of connection points: 2
#     Edge 44, Type (0, 0), BuildingBlock: EZIPEK_clean_linker_0, # of connection points: 2
#     Edge 45, Type (0, 0), BuildingBlock: EZIPEK_clean_linker_0, # of connection points: 2
#     Edge 46, Type (0, 0), BuildingBlock: EZIPEK_clean_linker_0, # of connection points: 2
#     Edge 47, Type (0, 0), BuildingBlock: EZIPEK_clean_linker_0, # of connection points: 2
# Relax obj value: 0.231
# Max RMSD: 0.174
# Mean RMSD: 0.174
data_MOF--net-ure--node1-QUQFOY_clean_sbu_3--edge1-EZIPEK_clean_linker_0
_symmetry_space_group_name_H-M    P1
_symmetry_Int_Tables_number       1
_symmetry_cell_setting            triclinic
loop_
_symmetry_equiv_pos_as_xyz
'x, y, z'
_cell_length_a     25.659163
_cell_length_b     23.951384
_cell_length_c     23.752154
_cell_angle_alpha  90.151909
_cell_angle_beta   89.658324
_cell_angle_gamma 90.795264
loop_
_atom_site_label
_atom_site_type_symbol
_atom_site_fract_x
_atom_site_fract_y
_atom_site_fract_z
_atom_type_partial_charge
C0 C 0.40547 0.23921 0.21581 0.0
O1 O 0.41478 0.26402 0.26212 0.0
Cd2 Cd 0.358 0.27888 0.34031 0.0
O3 O 0.36003 0.22009 0.20465 0.0
Cd4 Cd 0.27469 0.22265 0.2558 0.0
C5 C 0.27741 0.36552 0.27209 0.0
O6 O 0.31166 0.19204 0.34405 0.0
O7 O 0.23046 0.21164 0.34891 0.0
O8 O 0.24068 0.13619 0.2134 0.0
C9 C 0.2704 0.19262 0.3731 0.0
O10 O 0.30816 0.36013 0.31333 0.0
C11 C 0.20174 0.15922 0.19074 0.0
O12 O 0.26256 0.32354 0.24314 0.0
O13 O 0.1975 0.2115 0.19772 0.0
C14 C 0.7839 0.95204 0.52464 0.0
O15 O 0.77907 0.0011 0.54412 0.0
Cd16 Cd 0.83681 0.07803 0.54838 0.0
O17 O 0.82627 0.937 0.50069 0.0
Cd18 Cd 0.91307 -0.01183 0.48345 0.0
C19 C 0.93129 0.0124 0.62468 0.0
O20 O 0.87633 0.07835 0.45786 0.0
O21 O 0.95916 0.07943 0.46764 0.0
O22 O 0.93734 0.942 0.39349 0.0
C23 C 0.91843 0.10617 0.45575 0.0
O24 O 0.89462 0.04756 0.62252 0.0
C25 C -0.02195 0.91983 0.41342 0.0
O26 O 0.94521 -0.01432 0.58086 0.0
O27 O -0.0127 0.92853 0.46512 0.0
C28 C 0.04805 0.67927 0.72589 0.0
O29 O 0.05221 0.6411 0.7624 0.0
Cd30 Cd 0.12533 0.62889 0.82241 0.0
O31 O 0.08699 0.71075 0.71314 0.0
Cd32 Cd 0.18101 0.71431 0.74222 0.0
C33 C 0.2101 0.57678 0.72883 0.0
O34 O 0.15146 0.72394 0.83884 0.0
O35 O 0.23475 0.7232 0.82914 0.0
O36 O 0.18942 0.80731 0.69784 0.0
C37 C 0.19561 0.7301 0.86099 0.0
O38 O 0.18613 0.56792 0.77493 0.0
C39 C 0.23431 0.79735 0.67749 0.0
O40 O 0.21003 0.62463 0.70612 0.0
O41 O 0.25309 0.7497 0.68696 0.0
C42 C 0.64468 -0.00694 0.01483 0.0
O43 O 0.64708 0.94689 0.04066 0.0
Cd44 Cd 0.58125 0.87744 0.05313 0.0
O45 O 0.60186 0.00942 -0.00634 0.0
Cd46 Cd 0.51005 0.97042 -0.00022 0.0
C47 C 0.51202 0.95464 0.1425 0.0
O48 O 0.53585 0.87868 0.96614 0.0
O49 O 0.45569 0.88391 -0.00861 0.0
O50 O 0.48478 0.02436 0.91728 0.0
C51 C 0.49172 0.8551 0.96963 0.0
O52 O 0.53625 0.90926 0.13601 0.0
C53 C 0.44275 0.04182 0.93935 0.0
O54 O 0.50158 -0.01438 0.10085 0.0
O55 O 0.43294 0.02735 -0.01034 0.0
C56 C 0.33659 0.75042 0.26485 0.0
O57 O 0.35283 0.74469 0.21467 0.0
Cd58 Cd 0.30349 0.70707 0.14043 0.0
O59 O 0.28837 0.74412 0.2774 0.0
Cd60 Cd 0.20432 0.7295 0.22231 0.0
C61 C 0.24348 0.59611 0.21146 0.0
O62 O 0.23037 0.76549 0.13085 0.0
O63 O 0.16112 0.7136 0.13105 0.0
O64 O 0.16456 0.8145 0.25856 0.0
C65 C 0.19312 0.74376 0.10339 0.0
O66 O 0.28007 0.61679 0.1813 0.0
C67 C 0.127 0.79027 0.28405 0.0
O68 O 0.20763 0.62742 0.23039 0.0
O69 O 0.12503 0.73726 0.28114 0.0
C70 C 0.59011 0.96567 0.51936 0.0
O71 O 0.6052 0.01505 0.5077 0.0
Cd72 Cd 0.55419 0.0944 0.48353 0.0
O73 O 0.54175 0.95295 0.52268 0.0
Cd74 Cd 0.45901 0.00634 0.50784 0.0
C75 C 0.49678 0.02819 0.37244 0.0
O76 O 0.48255 0.09718 0.54702 0.0
O77 O 0.41158 0.09464 0.49916 0.0
O78 O 0.41772 0.95809 0.5865 0.0
C79 C 0.44352 0.123 0.52845 0.0
O80 O 0.52578 0.06805 0.38991 0.0
C81 C 0.37892 0.94036 0.55829 0.0
O82 O 0.47086 -0.0027 0.40637 0.0
O83 O 0.37749 0.95296 0.5064 0.0
C84 C 0.10293 0.24563 0.72905 0.0
O85 O 0.10202 0.24706 0.67551 0.0
Cd86 Cd 0.16932 0.24217 0.60536 0.0
O87 O 0.14534 0.23687 0.7553 0.0
Cd88 Cd 0.23794 0.2206 0.724 0.0
C89 C 0.23189 0.35193 0.66936 0.0
O90 O 0.22558 0.17383 0.63516 0.0
O91 O 0.30365 0.2031 0.64937 0.0
O92 O 0.25423 0.14538 0.7895 0.0
C93 C 0.27114 0.1813 0.61574 0.0
O94 O 0.21427 0.32991 0.62441 0.0
C95 C 0.29542 0.16793 0.80939 0.0
O96 O 0.24098 0.32247 0.71285 0.0
O97 O 0.30735 0.21696 0.79293 0.0
C98 C 0.86177 0.02632 -0.00846 0.0
O99 O 0.88153 0.00844 0.03632 0.0
Cd100 Cd 0.96188 0.97941 -0.01253 0.0
O101 O 0.89136 0.02783 0.94881 0.0
Cd102 Cd -0.01916 -0.01598 0.97686 0.0
C103 C -0.01678 -0.01182 0.85624 0.0
O104 O 0.96303 0.88964 0.02212 0.0
O105 O 0.00726 0.88733 0.9452 0.0
O106 O 0.00415 0.02596 0.07016 0.0
C107 C -0.01331 0.86073 0.98598 0.0
O108 O 0.94648 0.96335 0.88222 0.0
C109 C 0.04915 0.04198 0.05374 0.0
O110 O 0.01774 0.01206 0.88568 0.0
O111 O 0.06118 0.03205 0.00288 0.0
C112 C 0.89763 0.24435 0.75178 0.0
O113 O 0.90277 0.21229 0.70954 0.0
Cd114 Cd 0.84035 0.17767 0.64498 0.0
O115 O 0.85284 0.26158 0.76745 0.0
Cd116 Cd 0.76137 0.24063 0.73203 0.0
C117 C 0.76847 0.09775 0.7356 0.0
O118 O 0.78904 0.25857 0.63625 0.0
O119 O 0.70916 0.23243 0.64315 0.0
O120 O 0.72813 0.32924 0.77074 0.0
C121 C 0.74643 0.24903 0.61194 0.0
O122 O 0.79767 0.09987 0.69223 0.0
C123 C 0.6889 0.30653 0.79486 0.0
O124 O 0.7534 0.14198 0.7602 0.0
O125 O 0.6842 0.25393 0.79059 0.0
C126 C 0.12508 0.47473 0.95018 0.0
O127 O 0.13269 0.52329 0.93006 0.0
Cd128 Cd 0.0724 0.59696 0.91765 0.0
O129 O 0.0801 0.45889 0.96759 0.0
Cd130 Cd -0.00822 0.5022 0.97388 0.0
C131 C -0.01101 0.52053 0.83285 0.0
O132 O 0.02255 0.59398 0.00053 0.0
O133 O 0.94099 0.58986 0.98125 0.0
O134 O -0.02911 0.45783 0.06388 0.0
C135 C -0.01995 0.61939 -0.00415 0.0
O136 O 0.01956 0.56212 0.84059 0.0
C137 C 0.93059 0.43237 0.04564 0.0
O138 O -0.02489 0.4889 0.87337 0.0
O139 O 0.91926 0.43909 -0.00584 0.0
C140 C 0.52964 0.76438 0.26343 0.0
O141 O 0.52407 0.79323 0.21907 0.0
Cd142 Cd 0.57907 0.80048 0.13802 0.0
O143 O 0.57041 0.73533 0.27044 0.0
Cd144 Cd 0.65225 0.72328 0.2132 0.0
C145 C 0.68307 0.86305 0.19747 0.0
O146 O 0.60752 0.70659 0.12484 0.0
O147 O 0.69111 0.70608 0.11966 0.0
O148 O 0.67921 0.63157 0.24772 0.0
C149 C 0.6478 0.6998 0.09497 0.0
O150 O 0.64558 0.8692 0.16348 0.0
C151 C 0.71906 0.65141 0.27283 0.0
O152 O 0.69146 0.8161 0.22014 0.0
O153 O 0.72616 0.70383 0.2711 0.0
C154 C 0.05946 0.51071 0.45632 0.0
O155 O 0.04018 0.48875 0.41272 0.0
Cd156 Cd 0.95894 0.46416 0.46384 0.0
O157 O 0.0289 0.51623 0.49763 0.0
Cd158 Cd 0.9374 0.47121 0.4757 0.0
C159 C 0.94965 0.47778 0.59698 0.0
O160 O 0.95233 0.37429 0.43311 0.0
O161 O 0.90052 0.37703 0.50436 0.0
O162 O 0.91345 0.5129 0.38399 0.0
C163 C 0.92256 0.34801 0.46646 0.0
O164 O -0.01902 0.44959 0.56727 0.0
C165 C 0.8696 0.52972 0.40186 0.0
O166 O 0.91376 0.50239 0.57117 0.0
O167 O 0.85849 0.52046 0.45312 0.0
C168 C 0.32249 0.46411 0.97002 0.0
O169 O 0.31168 0.51388 0.98368 0.0
Cd170 Cd 0.36833 0.58937 0.00672 0.0
O171 O 0.3696 0.44852 0.96444 0.0
Cd172 Cd 0.45689 0.49739 0.97546 0.0
C173 C 0.43533 0.5267 0.11432 0.0
O174 O 0.43713 0.59057 0.93947 0.0
O175 O 0.50983 0.5832 0.98317 0.0
O176 O 0.49667 0.45698 0.89102 0.0
C177 C 0.47877 0.61391 0.9565 0.0
O178 O 0.40206 0.5615 0.09712 0.0
C179 C 0.53177 0.4308 0.91714 0.0
O180 O 0.45761 0.49429 0.07921 0.0
O181 O 0.53117 0.43407 0.97054 0.0
C182 C 0.83368 0.71209 0.75006 0.0
O183 O 0.83288 0.71583 0.80343 0.0
Cd184 Cd 0.76624 0.7456 0.86522 0.0
O185 O 0.79253 0.71979 0.72108 0.0
Cd186 Cd 0.69757 0.73688 0.74624 0.0
C187 C 0.73823 0.86626 0.79033 0.0
O188 O 0.69527 0.6914 0.83581 0.0
O189 O 0.62923 0.743 0.8207 0.0
O190 O 0.66659 0.66039 0.68811 0.0
C191 C 0.65262 0.71039 0.85362 0.0
O192 O 0.75519 0.84215 0.83419 0.0
C193 C 0.63043 0.68765 0.66496 0.0
O194 O 0.71658 0.83834 0.75071 0.0
O195 O 0.62844 0.73969 0.67537 0.0
C196 C 0.60194 0.20448 0.21492 0.0
O197 O 0.59212 0.18232 0.26233 0.0
Cd198 Cd 0.65207 0.16408 0.33522 0.0
O199 O 0.64816 0.21977 0.20162 0.0
Cd200 Cd 0.73461 0.21724 0.25006 0.0
C201 C 0.73471 0.07805 0.26066 0.0
O202 O 0.70532 0.24533 0.34391 0.0
O203 O 0.78219 0.21056 0.34013 0.0
O204 O 0.76152 0.30835 0.21337 0.0
C205 C 0.74725 0.23443 0.36901 0.0
O206 O 0.70198 0.08598 0.30029 0.0
C207 C 0.80022 0.28997 0.18579 0.0
O208 O 0.75019 0.11875 0.23047 0.0
O209 O 0.80865 0.23798 0.18861 0.0
C210 C 0.27893 0.47662 0.46534 0.0
O211 O 0.28454 0.43309 0.43533 0.0
Cd212 Cd 0.35602 0.37195 0.42747 0.0
O213 O 0.31755 0.49856 0.49157 0.0
Cd214 Cd 0.41348 0.47585 0.48719 0.0
C215 C 0.42095 0.45823 0.34335 0.0
O216 O 0.39339 0.38257 0.51836 0.0
O217 O 0.47465 0.39644 0.50355 0.0
O218 O 0.43157 0.53884 0.56702 0.0
C219 C 0.43875 0.36367 0.52041 0.0
O220 O 0.40348 0.40864 0.34754 0.0
C221 C 0.47465 0.55673 0.54666 0.0
O222 O 0.424 0.49027 0.38604 0.0
O223 O 0.48761 0.53877 0.4984 0.0
C224 C 0.1084 0.13729 0.16607 0.0
C225 C 0.16236 0.12678 0.15811 0.0
C226 C 0.13979 0.0522 0.09165 0.0
C227 C 0.08709 0.06956 0.09211 0.0
N228 N 0.02352 0.13716 0.12266 0.0
N229 N 0.22946 0.0814 0.10313 0.0
C230 C 0.07183 0.1144 0.12747 0.0
C231 C 0.17821 0.08607 0.1182 0.0
N232 N 0.09162 0.16718 0.21162 0.0
N233 N 0.15312 0.00242 0.06766 0.0
H234 H 0.25885 0.10752 0.11867 0.0
H235 H 0.24183 0.05576 0.07027 0.0
H236 H 0.12577 0.97466 0.0506 0.0
H237 H 0.19035 -0.01415 0.07082 0.0
H238 H 0.05229 0.17159 0.22168 0.0
H239 H 0.11664 0.18182 0.24296 0.0
H240 H 0.01282 0.17347 0.1438 0.0
H241 H -0.00387 0.1236 0.09326 0.0
C242 C -0.00244 0.84227 0.34393 0.0
C243 C 0.01515 0.88756 0.37795 0.0
C244 C 0.10569 0.86388 0.35586 0.0
C245 C 0.08815 0.8228 0.31689 0.0
N246 N 0.01659 0.78139 0.26504 0.0
N247 N 0.08586 0.95003 0.40398 0.0
C248 C 0.03381 0.81427 0.30841 0.0
C249 C 0.06921 0.90086 0.38036 0.0
N250 N 0.94687 0.82426 0.34713 0.0
N251 N 0.15684 0.8662 0.37162 0.0
H252 H 0.0604 0.97982 0.41993 0.0
H253 H 0.12445 0.96403 0.40185 0.0
H254 H 0.18461 0.83825 0.35692 0.0
H255 H 0.1704 0.89183 0.40406 0.0
H256 H 0.93344 0.78777 0.32773 0.0
H257 H 0.91932 0.84259 0.3735 0.0
H258 H -0.02249 0.77834 0.25357 0.0
H259 H 0.04165 0.76164 0.23687 0.0
C260 C 0.32419 0.85273 0.56382 0.0
C261 C 0.33706 0.90653 0.58518 0.0
C262 C 0.27877 0.89112 0.66594 0.0
C263 C 0.26419 0.83834 0.64323 0.0
N264 N 0.26186 0.77592 0.56341 0.0
N265 N 0.31622 -0.01733 0.64778 0.0
C266 C 0.28338 0.82142 0.58979 0.0
C267 C 0.3111 0.92755 0.63355 0.0
N268 N 0.35274 0.83006 0.52089 0.0
N269 N 0.26449 0.90532 0.71958 0.0
H270 H 0.33912 0.01087 0.62475 0.0
H271 H 0.29352 0.00151 0.67879 0.0
H272 H 0.24125 0.87982 0.74519 0.0
H273 H 0.2793 0.94042 0.74037 0.0
H274 H 0.34861 0.78863 0.50801 0.0
H275 H 0.38393 0.85079 0.50144 0.0
H276 H 0.27084 0.76475 0.5221 0.0
H277 H 0.23092 0.75283 0.58068 0.0
C278 C 0.38762 0.12699 0.92693 0.0
C279 C 0.40487 0.07447 0.90667 0.0
C280 C 0.3535 0.08591 0.82118 0.0
C281 C 0.33198 0.13547 0.84391 0.0
N282 N 0.32231 0.19914 0.9219 0.0
N283 N 0.39433 -0.00205 0.84094 0.0
C284 C 0.34729 0.15496 0.89784 0.0
C285 C 0.38504 0.05219 0.8556 0.0
N286 N 0.41114 0.15117 0.97257 0.0
N287 N 0.34613 0.07227 0.76581 0.0
H288 H 0.41597 0.97096 0.86567 0.0
H289 H 0.37599 0.97807 0.8072 0.0
H290 H 0.32463 0.09646 0.73814 0.0
H291 H 0.36602 0.04007 0.74586 0.0
H292 H 0.40393 0.19184 0.9858 0.0
H293 H 0.44144 0.13249 -0.00566 0.0
H294 H 0.32796 0.21167 0.96346 0.0
H295 H 0.29243 0.22032 0.90183 0.0
C296 C 0.5959 0.33429 0.81032 0.0
C297 C 0.64921 0.33965 0.82549 0.0
C298 C 0.626 0.40906 0.89714 0.0
C299 C 0.57224 0.39874 0.88638 0.0
N300 N 0.50607 0.34262 0.84035 0.0
N301 N 0.71402 0.37437 0.89053 0.0
C302 C 0.55716 0.3589 0.84501 0.0
C303 C 0.66407 0.37496 0.87087 0.0
N304 N 0.58229 0.30755 0.76152 0.0
N305 N 0.64103 0.45294 0.93048 0.0
H306 H 0.74297 0.34942 0.87311 0.0
H307 H 0.72549 0.39458 0.92742 0.0
H308 H 0.61471 0.47978 0.94968 0.0
H309 H 0.67972 0.46603 0.93466 0.0
H310 H 0.54458 0.30751 0.7455 0.0
H311 H 0.60953 0.29036 0.73395 0.0
H312 H 0.49375 0.30959 0.81486 0.0
H313 H 0.47662 0.35808 0.86624 0.0
C314 C 0.84272 0.40406 0.08366 0.0
C315 C 0.89755 0.39689 0.08284 0.0
C316 C 0.88875 0.32541 0.15593 0.0
C317 C 0.83368 0.32733 0.151 0.0
N318 N 0.75874 0.3601 0.09999 0.0
N319 N -0.0283 0.34193 0.10977 0.0
C320 C 0.81068 0.36437 0.11207 0.0
C321 C 0.92041 0.35518 0.11672 0.0
N322 N 0.82117 0.44988 0.05928 0.0
N323 N 0.91098 0.29693 0.19921 0.0
H324 H -0.00403 0.36101 0.07996 0.0
H325 H -0.01134 0.3079 0.12945 0.0
H326 H 0.88927 0.27613 0.23009 0.0
H327 H 0.95075 0.29894 0.20778 0.0
H328 H 0.78187 0.45956 0.06354 0.0
H329 H 0.84332 0.48148 0.04022 0.0
H330 H 0.74145 0.38248 0.06767 0.0
H331 H 0.73403 0.32999 0.11777 0.0
C332 C 0.77877 0.53991 0.36557 0.0
C333 C 0.83188 0.55746 0.36459 0.0
C334 C 0.81138 0.62598 0.29235 0.0
C335 C 0.75732 0.61564 0.30142 0.0
N336 N 0.68945 0.56818 0.35484 0.0
N337 N 0.89708 0.62483 0.33362 0.0
C338 C 0.74079 0.57383 0.34002 0.0
C339 C 0.84796 0.60243 0.32956 0.0
N340 N 0.76468 0.48996 0.38921 0.0
N341 N 0.82803 0.65681 0.24718 0.0
H342 H 0.92466 0.61073 0.36209 0.0
H343 H 0.90855 0.66131 0.31285 0.0
H344 H 0.80263 0.67224 0.21702 0.0
H345 H 0.86724 0.66131 0.23616 0.0
H346 H 0.72713 0.47303 0.38636 0.0
H347 H 0.79173 0.46254 0.40578 0.0
H348 H 0.67663 0.54194 0.38716 0.0
H349 H 0.66029 0.59358 0.33919 0.0
C350 C 0.52634 0.57858 0.63377 0.0
C351 C 0.51049 0.59391 0.57883 0.0
C352 C 0.57442 0.67138 0.57914 0.0
C353 C 0.58756 0.65791 0.63533 0.0
N354 N 0.56423 0.60978 0.72141 0.0
N355 N 0.51103 0.66215 0.50417 0.0
C356 C 0.55989 0.61491 0.66429 0.0
C357 C 0.53205 0.64257 0.55292 0.0
N358 N 0.51219 0.52787 0.65584 0.0
N359 N 0.60348 0.71008 0.55015 0.0
H360 H 0.47902 0.6431 0.48476 0.0
H361 H 0.52184 0.70018 0.48609 0.0
H362 H 0.63471 0.73192 0.56805 0.0
H363 H 0.5993 0.71734 0.5072 0.0
H364 H 0.52757 0.51261 0.69319 0.0
H365 H 0.48954 0.4984 0.63443 0.0
H366 H 0.54079 0.58271 0.74513 0.0
H367 H 0.58689 0.6368 0.74596 0.0
C368 C 0.27794 0.23845 0.46713 0.0
C369 C 0.27332 0.18872 0.43514 0.0
C370 C 0.27366 0.13309 0.52176 0.0
C371 C 0.27959 0.18294 0.55379 0.0
N372 N 0.30065 0.28207 0.55543 0.0
N373 N 0.27705 0.08844 0.42979 0.0
C374 C 0.28609 0.23526 0.52608 0.0
C375 C 0.27457 0.13586 0.4618 0.0
N376 N 0.27321 0.28909 0.44136 0.0
N377 N 0.26631 0.08324 0.54878 0.0
H378 H 0.27608 0.08905 0.38587 0.0
H379 H 0.28373 0.049 0.44632 0.0
H380 H 0.26835 0.07935 0.59243 0.0
H381 H 0.25587 0.04625 0.52839 0.0
H382 H 0.26869 0.32627 0.46331 0.0
H383 H 0.26977 0.294 0.39798 0.0
H384 H 0.31163 0.31939 0.53616 0.0
H385 H 0.30643 0.28346 0.5986 0.0
C386 C -0.01095 0.94919 0.75831 0.0
C387 C -0.01825 -0.0047 0.79458 0.0
C388 C -0.03345 0.05351 0.71286 0.0
C389 C 0.95847 0.0053 0.67933 0.0
N390 N 0.96298 0.90429 0.6715 0.0
N391 N 0.95862 0.09197 0.80573 0.0
C392 C -0.02904 0.95212 0.70184 0.0
C393 C -0.03002 0.0479 0.77171 0.0
N394 N 0.01435 0.9034 0.77729 0.0
N395 N -0.02712 0.10455 0.68831 0.0
H396 H 0.96015 0.09023 0.84955 0.0
H397 H 0.94193 0.12785 0.78956 0.0
H398 H -0.02469 0.10889 0.64475 0.0
H399 H -0.0168 0.14027 0.7111 0.0
H400 H 0.02763 0.87252 0.74999 0.0
H401 H 0.02739 0.90013 0.8187 0.0
H402 H -0.03129 0.86465 0.68806 0.0
H403 H 0.94738 0.90337 0.63123 0.0
C404 C 0.1879 0.78628 0.94929 0.0
C405 C 0.20003 0.7349 0.92274 0.0
C406 C 0.21208 0.69095 0.01461 0.0
C407 C 0.19538 0.74087 0.04122 0.0
N408 N 0.16275 0.83446 0.03519 0.0
N409 N 0.21725 0.63632 0.92876 0.0
C410 C 0.18223 0.78827 0.00891 0.0
C411 C 0.21068 0.68671 0.95499 0.0
N412 N 0.18293 0.83334 0.91738 0.0
N413 N 0.23068 0.6481 0.04628 0.0
H414 H 0.21753 0.63156 0.8851 0.0
H415 H 0.21886 0.59848 0.95009 0.0
H416 H 0.23094 0.64883 0.0901 0.0
H417 H 0.24952 0.61368 0.02925 0.0
H418 H 0.17914 0.87326 0.93419 0.0
H419 H 0.18675 0.83314 0.87361 0.0
H420 H 0.14685 0.86806 0.01392 0.0
H421 H 0.15892 0.83758 0.07884 0.0
C422 C 0.54909 0.00266 0.28787 0.0
C423 C 0.49955 0.01272 0.31239 0.0
C424 C 0.45681 -0.01612 0.22486 0.0
C425 C 0.50657 0.97698 0.19988 0.0
N426 N 0.59933 -0.00457 0.20189 0.0
N427 N 0.40699 0.02472 0.3014 0.0
C428 C 0.55253 -0.00869 0.22962 0.0
C429 C 0.45346 0.00691 0.28001 0.0
N430 N 0.59267 0.00075 0.32064 0.0
N431 N 0.4131 0.96726 0.19646 0.0
H432 H 0.40351 0.04258 0.34134 0.0
H433 H 0.37294 0.0264 0.27788 0.0
H434 H 0.41443 0.95092 0.15572 0.0
H435 H 0.37602 0.96613 0.21453 0.0
H436 H 0.62917 -0.00912 0.3049 0.0
H437 H 0.59202 0.00348 0.36443 0.0
H438 H 0.63278 0.01243 0.22014 0.0
H439 H 0.60361 -0.01212 0.15884 0.0
C440 C 0.46902 0.17513 0.16978 0.0
C441 C 0.45045 0.23001 0.17767 0.0
C442 C 0.53896 0.26807 0.16859 0.0
C443 C 0.55729 0.21342 0.17705 0.0
N444 N 0.54514 0.11629 0.15833 0.0
N445 N 0.46289 0.32764 0.16048 0.0
C446 C 0.52377 0.16728 0.16752 0.0
C447 C 0.48413 0.27626 0.16764 0.0
N448 N 0.43484 0.13099 0.16909 0.0
N449 N 0.57377 0.31144 0.1647 0.0
H450 H 0.42255 0.33277 0.1599 0.0
H451 H 0.48429 0.36379 0.15178 0.0
H452 H 0.61389 0.30516 0.16351 0.0
H453 H 0.5634 0.35291 0.16023 0.0
H454 H 0.44605 0.08946 0.1693 0.0
H455 H 0.39466 0.13624 0.16739 0.0
H456 H 0.52362 0.08118 0.14676 0.0
H457 H 0.58553 0.11115 0.15736 0.0
C458 C 0.90325 0.25899 0.41361 0.0
C459 C 0.91832 0.28624 0.46437 0.0
C460 C 0.928 0.19566 0.51023 0.0
C461 C 0.91795 0.16821 0.45829 0.0
N462 N 0.90025 0.17289 0.35903 0.0
N463 N 0.95522 0.28052 0.55757 0.0
C464 C 0.90653 0.19968 0.40949 0.0
C465 C 0.93312 0.25465 0.51191 0.0
N466 N 0.88462 0.28983 0.36993 0.0
N467 N 0.93124 0.16543 0.5586 0.0
H468 H 0.96136 0.32352 0.56038 0.0
H469 H -0.02769 0.25896 0.59057 0.0
H470 H 0.92902 0.12208 0.5591 0.0
H471 H 0.93159 0.18357 0.59847 0.0
H472 H 0.86905 0.27262 0.33338 0.0
H473 H 0.8808 0.33308 0.37186 0.0
H474 H 0.89739 0.19338 0.32063 0.0
H475 H 0.90139 0.12953 0.35497 0.0
C476 C 0.90532 0.66782 0.69105 0.0
C477 C 0.88624 0.71276 0.72363 0.0
C478 C -0.02535 0.74286 0.74627 0.0
C479 C -0.00546 0.69791 0.71421 0.0
N480 N -0.01969 0.62873 0.64253 0.0
N481 N 0.90218 0.80451 0.76084 0.0
C482 C 0.96022 0.66399 0.68185 0.0
C483 C 0.92107 0.75444 0.74334 0.0
N484 N 0.8717 0.62774 0.67159 0.0
N485 N 0.00547 0.77127 0.78364 0.0
H486 H 0.86314 0.8144 0.75495 0.0
H487 H 0.92576 0.83734 0.77494 0.0
H488 H 0.04534 0.76499 0.78782 0.0
H489 H -0.00977 0.79824 0.81382 0.0
H490 H 0.88393 0.59114 0.65216 0.0
H491 H 0.83145 0.63043 0.67724 0.0
H492 H 0.95735 0.60602 0.61436 0.0
H493 H 0.02034 0.62728 0.63464 0.0
C494 C 0.49216 0.70714 0.90992 0.0
C495 C 0.48362 0.67564 0.95971 0.0
C496 C 0.48326 0.76179 0.01606 0.0
C497 C 0.48744 0.79349 0.96584 0.0
N498 N 0.49206 0.79807 0.86465 0.0
N499 N 0.46636 0.67239 0.05972 0.0
C500 C 0.49112 0.76661 0.91263 0.0
C501 C 0.47809 0.70282 0.01266 0.0
N502 N 0.50294 0.68009 0.86051 0.0
N503 N 0.48641 0.78785 0.06729 0.0
H504 H 0.46583 0.62907 0.06019 0.0
H505 H 0.45404 0.68981 0.09762 0.0
H506 H 0.48984 0.83098 0.07207 0.0
H507 H 0.4896 0.76682 0.10534 0.0
H508 H 0.5152 0.70021 0.82388 0.0
H509 H 0.50349 0.63664 0.85714 0.0
H510 H 0.48945 0.78143 0.82428 0.0
H511 H 0.49183 0.84165 0.86528 0.0
C512 C 0.45969 0.71182 0.31777 0.0
C513 C 0.48508 0.76303 0.30384 0.0
C514 C 0.40231 0.81168 0.30921 0.0
C515 C 0.37684 0.75926 0.30818 0.0
N516 N 0.37742 0.66594 0.34288 0.0
N517 N 0.4849 0.8623 0.31623 0.0
C518 C 0.40452 0.71152 0.32412 0.0
C519 C 0.45761 0.81341 0.31097 0.0
N520 N 0.48718 0.66362 0.32069 0.0
N521 N 0.37363 0.85871 0.30311 0.0
H522 H 0.52563 0.86319 0.31631 0.0
H523 H 0.46734 0.89997 0.32603 0.0
H524 H 0.33292 0.85669 0.3022 0.0
H525 H 0.38985 0.89847 0.2983 0.0
H526 H 0.46965 0.62421 0.32338 0.0
H527 H 0.52774 0.66331 0.32074 0.0
H528 H 0.39521 0.63112 0.36 0.0
H529 H 0.33675 0.6662 0.3458 0.0
C530 C 0.45343 0.21262 0.47492 0.0
C531 C 0.44355 0.18483 0.52679 0.0
C532 C 0.43984 0.27508 0.57586 0.0
C533 C 0.44587 0.30263 0.52336 0.0
N534 N 0.45301 0.29884 0.42202 0.0
N535 N 0.42314 0.18802 0.6258 0.0
C536 C 0.45156 0.27175 0.47268 0.0
C537 C 0.43589 0.21566 0.5772 0.0
N538 N 0.46625 0.18251 0.42798 0.0
N539 N 0.43873 0.30599 0.62436 0.0
H540 H 0.41977 0.14462 0.62802 0.0
H541 H 0.41252 0.20769 0.66316 0.0
H542 H 0.44136 0.34952 0.62448 0.0
H543 H 0.43902 0.28898 0.66459 0.0
H544 H 0.4809 0.20013 0.39103 0.0
H545 H 0.46568 0.13916 0.4269 0.0
H546 H 0.45034 0.27871 0.38326 0.0
H547 H 0.45388 0.34213 0.41824 0.0
C548 C 0.0297 0.22849 0.80073 0.0
C549 C 0.05435 0.2623 0.75905 0.0
C550 C -0.02776 0.30876 0.74017 0.0
C551 C 0.94645 0.26876 0.77424 0.0
N552 N 0.95068 0.21202 0.85641 0.0
N553 N 0.05464 0.35097 0.71181 0.0
C554 C -0.02443 0.2363 0.81178 0.0
C555 C 0.02732 0.30847 0.73689 0.0
N556 N 0.05641 0.18701 0.82655 0.0
N557 N 0.94372 0.34326 0.70717 0.0
H558 H 0.09534 0.35219 0.71181 0.0
H559 H 0.03739 0.38686 0.69651 0.0
H560 H 0.90322 0.34533 0.71089 0.0
H561 H 0.95994 0.36727 0.67487 0.0
H562 H 0.03894 0.15812 0.8536 0.0
H563 H 0.09599 0.18053 0.81967 0.0
H564 H -0.02997 0.19094 0.88821 0.0
H565 H 0.91076 0.21735 0.86303 0.0
C566 C 0.00912 0.77106 0.03373 0.0
C567 C -0.01461 0.79908 -0.01172 0.0
C568 C 0.96104 0.70941 0.94566 0.0
C569 C -0.02021 0.68132 -0.00598 0.0
N570 N 0.01387 0.68612 0.0885 0.0
N571 N 0.9281 0.79563 0.90802 0.0
C572 C 0.00176 0.71238 0.03933 0.0
C573 C 0.95822 0.7685 0.94625 0.0
N574 N 0.03987 0.80027 0.07062 0.0
N575 N 0.94875 0.68029 0.89784 0.0
H576 H 0.92473 0.83895 0.90686 0.0
H577 H 0.90273 0.77477 0.88079 0.0
H578 H 0.95295 0.63728 0.89385 0.0
H579 H 0.93969 0.69958 0.85996 0.0
H580 H 0.06279 0.78128 0.10093 0.0
H581 H 0.04612 0.8433 0.06773 0.0
H582 H 0.02508 0.70734 0.12489 0.0
H583 H 0.00798 0.64339 0.09472 0.0
C584 C 0.22916 0.45458 0.28754 0.0
C585 C 0.26331 0.42235 0.25416 0.0
C586 C 0.27031 0.49851 0.18641 0.0
C587 C 0.24453 0.53488 0.2247 0.0
N588 N 0.20722 0.54737 0.31813 0.0
N589 N 0.32496 0.41764 0.17722 0.0
C590 C 0.22529 0.51288 0.2768 0.0
C591 C 0.28645 0.44544 0.20512 0.0
N592 N 0.20125 0.42968 0.33002 0.0
N593 N 0.27761 0.51362 0.13148 0.0
H594 H 0.33765 0.37827 0.18922 0.0
H595 H 0.34741 0.43601 0.14539 0.0
H596 H 0.25941 0.54796 0.11378 0.0
H597 H 0.29623 0.48866 0.10191 0.0
H598 H 0.17139 0.44942 0.35193 0.0
H599 H 0.20454 0.38741 0.33974 0.0
H600 H 0.19363 0.53272 0.35654 0.0
H601 H 0.21112 0.59058 0.31767 0.0
C602 C 0.70672 0.01784 0.75788 0.0
C603 C 0.75713 0.04248 0.76068 0.0
C604 C 0.79396 0.9542 0.79103 0.0
C605 C 0.7441 0.92806 0.78548 0.0
N606 N 0.65082 0.93895 0.78325 0.0
N607 N 0.84261 0.04075 0.80089 0.0
C608 C 0.6996 0.96126 0.77522 0.0
C609 C 0.79886 0.01264 0.78371 0.0
N610 N 0.66627 0.04784 0.73704 0.0
N611 N 0.83731 0.92346 0.80101 0.0
H612 H 0.84723 0.08389 0.79658 0.0
H613 H 0.871 0.0223 0.82552 0.0
H614 H 0.83611 0.88149 0.81159 0.0
H615 H 0.87503 0.93947 0.79636 0.0
H616 H 0.6294 0.03096 0.72933 0.0
H617 H 0.67033 0.08951 0.72491 0.0
H618 H 0.61691 0.96218 0.78125 0.0
H619 H 0.64455 0.89811 0.79721 0.0
C620 C 0.25542 0.42457 0.90732 0.0
C621 C 0.27798 0.42551 0.96107 0.0
C622 C 0.19243 0.42385 0.00582 0.0
C623 C 0.17069 0.43757 0.9529 0.0
N624 N 0.17619 0.43284 0.85199 0.0
N625 N 0.26993 0.39442 0.05586 0.0
C626 C 0.20049 0.43034 0.90289 0.0
C627 C 0.24672 0.4137 0.00848 0.0
N628 N 0.28719 0.41998 0.86148 0.0
N629 N 0.16268 0.42559 0.05359 0.0
H630 H 0.31011 0.38777 0.05675 0.0
H631 H 0.24938 0.38111 0.09141 0.0
H632 H 0.12252 0.43115 0.0528 0.0
H633 H 0.17809 0.42283 0.09396 0.0
H634 H 0.2738 0.41633 0.82049 0.0
H635 H 0.32748 0.41606 0.86585 0.0
H636 H 0.19526 0.43168 0.81324 0.0
H637 H 0.13567 0.43474 0.84924 0.0
C638 C 0.73819 0.97911 0.28885 0.0
C639 C 0.74852 0.01926 0.24713 0.0
C640 C 0.73895 0.9473 0.17461 0.0
C641 C 0.71386 0.91257 0.21536 0.0
N642 N 0.68659 0.89842 0.31221 0.0
N643 N 0.78819 0.03314 0.15647 0.0
C644 C 0.71447 0.92803 0.27311 0.0
C645 C 0.75796 0.0011 0.19135 0.0
N646 N 0.74971 -0.00904 0.34365 0.0
N647 N 0.74293 0.92944 0.12011 0.0
H648 H 0.80633 0.06993 0.17007 0.0
H649 H 0.80143 0.01956 0.11745 0.0
H650 H 0.73226 0.88904 0.10778 0.0
H651 H 0.75577 0.95456 0.08704 0.0
H652 H 0.74622 0.96164 0.37582 0.0
H653 H 0.76821 0.02841 0.35511 0.0
H654 H 0.67886 0.91501 0.35186 0.0
H655 H 0.66591 0.86169 0.30374 0.0
C656 C 0.77552 0.06888 0.01763 0.0
C657 C 0.8043 0.0292 0.98608 0.0
C658 C 0.72267 -0.0153 0.95603 0.0
C659 C 0.69515 0.01697 -0.00431 0.0
N660 N 0.69376 0.08947 0.0656 0.0
N661 N 0.80506 0.94364 0.93149 0.0
C662 C 0.7209 0.05985 0.02628 0.0
C663 C 0.77784 -0.01386 0.95592 0.0
N664 N 0.80069 0.11427 0.04002 0.0
N665 N 0.69553 0.95057 0.92027 0.0
H666 H 0.84556 0.94185 0.93033 0.0
H667 H 0.78747 0.90702 0.91695 0.0
H668 H 0.6549 0.94981 0.91839 0.0
H669 H 0.71309 0.92593 0.89001 0.0
H670 H 0.78155 0.1468 0.0602 0.0
H671 H 0.84065 0.1212 0.03439 0.0
H672 H 0.71122 0.11695 0.09409 0.0
H673 H 0.65358 0.08433 0.07108 0.0
C674 C 0.20022 0.50594 0.65426 0.0
C675 C 0.23077 0.52831 0.69798 0.0
C676 C 0.2768 0.43988 0.70345 0.0
C677 C 0.23543 0.41377 0.6732 0.0
N678 N 0.15102 0.4245 0.62777 0.0
N679 N 0.30295 0.51956 0.761 0.0
C680 C 0.19568 0.44741 0.64954 0.0
C681 C 0.27105 0.49625 0.72136 0.0
N682 N 0.17396 0.54022 0.61895 0.0
N683 N 0.32126 0.41126 0.71431 0.0
H684 H 0.30045 0.56157 0.77247 0.0
H685 H 0.33051 0.49712 0.78324 0.0
H686 H 0.32724 0.37085 0.69931 0.0
H687 H 0.35394 0.42948 0.73303 0.0
H688 H 0.15344 0.52525 0.58423 0.0
H689 H 0.17719 0.58359 0.62104 0.0
H690 H 0.12038 0.44852 0.61338 0.0
H691 H 0.14128 0.38229 0.62937 0.0
C692 C 0.14976 0.55413 0.46324 0.0
C693 C 0.11603 0.50676 0.46672 0.0
C694 C 0.18952 0.44848 0.49221 0.0
C695 C 0.22428 0.49262 0.47765 0.0
N696 N 0.23892 0.58866 0.45161 0.0
N697 N 0.10281 0.40834 0.48564 0.0
C698 C 0.20493 0.54642 0.46537 0.0
C699 C 0.13565 0.45379 0.4818 0.0
N700 N 0.12901 0.60596 0.45736 0.0
N701 N 0.20858 0.40171 0.51717 0.0
H702 H 0.06239 0.41062 0.48243 0.0
H703 H 0.11556 0.36743 0.48883 0.0
H704 H 0.24723 0.39929 0.53031 0.0
H705 H 0.1857 0.36782 0.52982 0.0
H706 H 0.15091 0.6428 0.45939 0.0
H707 H 0.08893 0.61213 0.45438 0.0
H708 H 0.22739 0.62709 0.43594 0.0
H709 H 0.27922 0.58419 0.45312 0.0
C710 C 0.62753 0.65946 0.94134 0.0
C711 C 0.64196 0.71039 0.91482 0.0
C712 C 0.65567 0.75504 0.00663 0.0
C713 C 0.64467 0.70317 0.03306 0.0
N714 N 0.6214 0.60566 0.02813 0.0
N715 N 0.67169 0.80627 0.92059 0.0
C716 C 0.63039 0.65528 0.00113 0.0
C717 C 0.65579 0.75832 0.94705 0.0
N718 N 0.61107 0.61544 0.90887 0.0
N719 N 0.66529 0.80149 0.0388 0.0
H720 H 0.66762 0.81292 0.87764 0.0
H721 H 0.69146 0.83879 0.94056 0.0
H722 H 0.66669 0.80076 0.08256 0.0
H723 H 0.66932 0.84167 0.0229 0.0
H724 H 0.59801 0.57728 0.92453 0.0
H725 H 0.60772 0.61808 0.86519 0.0
H726 H 0.61505 0.56771 0.00787 0.0
H727 H 0.62238 0.60177 0.07186 0.0
C728 C 0.40069 0.52606 0.26773 0.0
C729 C 0.43144 0.48139 0.28698 0.0
C730 C 0.48026 0.48225 0.19793 0.0
C731 C 0.44406 0.52085 0.1764 0.0
N732 N 0.3971 0.60344 0.20344 0.0
N733 N 0.50226 0.41765 0.27255 0.0
C734 C 0.41228 0.55032 0.21498 0.0
C735 C 0.47216 0.4599 0.25287 0.0
N736 N 0.35851 0.54345 0.29816 0.0
N737 N 0.52504 0.47205 0.16857 0.0
H738 H 0.49917 0.40243 0.31356 0.0
H739 H 0.52859 0.39589 0.2476 0.0
H740 H 0.53491 0.49369 0.1319 0.0
H741 H 0.55565 0.44897 0.18444 0.0
H742 H 0.33276 0.57315 0.28338 0.0
H743 H 0.34651 0.52518 0.33595 0.0
H744 H 0.37688 0.62805 0.23216 0.0
H745 H 0.412 0.62594 0.16932 0.0
C746 C 0.75946 0.28926 0.4578 0.0
C747 C 0.74975 0.23718 0.43121 0.0
C748 C 0.73971 0.19193 0.52339 0.0
C749 C 0.7449 0.24501 0.54976 0.0
N750 N 0.75439 0.34503 0.54302 0.0
N751 N 0.72711 0.13929 0.43703 0.0
C752 C 0.75365 0.29389 0.51721 0.0
C753 C 0.73894 0.18855 0.46358 0.0
N754 N 0.77559 0.33398 0.42628 0.0
N755 N 0.73795 0.14457 0.55548 0.0
H756 H 0.72962 0.13429 0.39357 0.0
H757 H 0.71214 0.10412 0.45745 0.0
H758 H 0.7395 0.14496 0.5993 0.0
H759 H 0.73873 0.10437 0.53894 0.0
H760 H 0.79022 0.37082 0.44373 0.0
H761 H 0.77874 0.33257 0.38248 0.0
H762 H 0.75504 0.38274 0.52133 0.0
H763 H 0.75013 0.35006 0.58645 0.0
C764 C 0.00878 0.50083 0.67753 0.0
C765 C 0.95823 0.48625 0.65828 0.0
C766 C 0.92518 0.49646 0.75505 0.0
C767 C -0.0229 0.50445 0.7741 0.0
N768 N 0.06922 0.49652 0.75419 0.0
N769 N 0.86937 0.45994 0.68111 0.0
C770 C 0.01911 0.50096 0.7356 0.0
C771 C 0.91652 0.48112 0.69773 0.0
N772 N 0.04639 0.5192 0.64113 0.0
N773 N 0.88425 0.50565 0.79071 0.0
H774 H 0.86217 0.44653 0.64005 0.0
H775 H 0.83925 0.45043 0.70923 0.0
H776 H 0.88919 0.5174 0.83268 0.0
H777 H 0.84565 0.50622 0.77738 0.0
H778 H 0.08057 0.53819 0.65543 0.0
H779 H 0.04046 0.52366 0.59823 0.0
H780 H 0.10044 0.48884 0.72706 0.0
H781 H 0.07875 0.49412 0.79671 0.0
C782 C 0.71131 0.92004 0.58435 0.0
C783 C 0.73821 0.91398 0.53282 0.0
C784 C 0.65541 0.89693 0.48574 0.0
C785 C 0.63088 0.92434 0.53131 0.0
N786 N 0.62935 0.9441 0.62995 0.0
N787 N 0.73811 0.86872 0.44299 0.0
C788 C 0.65667 0.9283 0.58334 0.0
C789 C 0.71089 0.89219 0.48612 0.0
N790 N 0.73932 0.9219 0.63279 0.0
N791 N 0.62542 0.87706 0.44281 0.0
H792 H 0.77851 0.86486 0.44468 0.0
H793 H 0.72089 0.85018 0.40799 0.0
H794 H 0.58501 0.88198 0.4431 0.0
H795 H 0.63947 0.85211 0.41041 0.0
H796 H 0.72232 0.92364 0.67237 0.0
H797 H 0.77972 0.91696 0.63246 0.0
H798 H 0.64621 0.95161 0.66883 0.0
H799 H 0.58899 0.94924 0.62887 0.0
loop_
_geom_bond_atom_site_label_1
_geom_bond_atom_site_label_2
_geom_bond_distance
_geom_bond_site_symmetry_2
_ccdc_geom_bond_type
C0 O1 1.306 . S
C0 O3 1.160 . S
O1 C0 1.306 . S
O1 Cd2 2.228 . S
Cd2 O1 2.228 . S
Cd2 O6 2.273 . S
Cd2 O10 2.277 . S
O3 C0 1.160 . S
O3 Cd4 2.203 . S
Cd4 O3 2.203 . S
Cd4 O6 2.411 . S
Cd4 O7 2.333 . S
Cd4 O8 2.352 . S
Cd4 O12 2.277 . S
Cd4 O13 2.356 . S
C5 O10 1.209 . S
C5 O12 1.226 . S
O6 Cd2 2.273 . S
O6 Cd4 2.411 . S
O6 C9 1.320 . S
O7 Cd4 2.333 . S
O7 C9 1.214 . S
O8 Cd4 2.352 . S
O8 C11 1.258 . S
C9 O6 1.320 . S
C9 O7 1.214 . S
O10 Cd2 2.277 . S
O10 C5 1.209 . S
C11 O8 1.258 . S
C11 O13 1.282 . S
O12 Cd4 2.277 . S
O12 C5 1.226 . S
O13 Cd4 2.356 . S
O13 C11 1.282 . S
C14 O15 1.306 1_565 S
C14 O17 1.160 . S
O15 C14 1.306 1_545 S
O15 Cd16 2.228 . S
Cd16 O15 2.228 . S
Cd16 O20 2.273 . S
Cd16 O24 2.277 . S
O17 C14 1.160 . S
O17 Cd18 2.203 1_565 S
Cd18 O17 2.203 1_545 S
Cd18 O20 2.411 . S
Cd18 O21 2.333 1_655 S
Cd18 O22 2.352 1_545 S
Cd18 O26 2.277 1_545 S
Cd18 O27 2.356 1_645 S
C19 O24 1.209 . S
C19 O26 1.226 1_545 S
O20 Cd16 2.273 . S
O20 Cd18 2.411 . S
O20 C23 1.320 1_655 S
O21 Cd18 2.333 1_455 S
O21 C23 1.214 . S
O22 Cd18 2.352 1_565 S
O22 C25 1.258 1_655 S
C23 O20 1.320 1_455 S
C23 O21 1.214 . S
O24 Cd16 2.277 . S
O24 C19 1.209 . S
C25 O22 1.258 1_455 S
C25 O27 1.282 . S
O26 Cd18 2.277 1_565 S
O26 C19 1.226 1_565 S
O27 Cd18 2.356 1_465 S
O27 C25 1.282 . S
C28 O29 1.306 . S
C28 O31 1.160 . S
O29 C28 1.306 . S
O29 Cd30 2.228 . S
Cd30 O29 2.228 . S
Cd30 O34 2.273 . S
Cd30 O38 2.277 . S
O31 C28 1.160 . S
O31 Cd32 2.203 . S
Cd32 O31 2.203 . S
Cd32 O34 2.411 . S
Cd32 O35 2.333 . S
Cd32 O36 2.352 . S
Cd32 O40 2.277 . S
Cd32 O41 2.356 . S
C33 O38 1.209 . S
C33 O40 1.226 . S
O34 Cd30 2.273 . S
O34 Cd32 2.411 . S
O34 C37 1.320 . S
O35 Cd32 2.333 . S
O35 C37 1.214 . S
O36 Cd32 2.352 . S
O36 C39 1.258 . S
C37 O34 1.320 . S
C37 O35 1.214 . S
O38 Cd30 2.277 . S
O38 C33 1.209 . S
C39 O36 1.258 . S
C39 O41 1.282 . S
O40 Cd32 2.277 . S
O40 C33 1.226 . S
O41 Cd32 2.356 . S
O41 C39 1.282 . S
C42 O43 1.306 1_546 S
C42 O45 1.160 . S
O43 C42 1.306 1_564 S
O43 Cd44 2.228 . S
Cd44 O43 2.228 . S
Cd44 O48 2.273 1_554 S
Cd44 O52 2.277 . S
O45 C42 1.160 . S
O45 Cd46 2.203 1_546 S
Cd46 O45 2.203 1_564 S
Cd46 O48 2.411 1_554 S
Cd46 O49 2.333 . S
Cd46 O50 2.352 1_564 S
Cd46 O54 2.277 1_565 S
Cd46 O55 2.356 1_564 S
C47 O52 1.209 . S
C47 O54 1.226 1_565 S
O48 Cd44 2.273 1_556 S
O48 Cd46 2.411 1_556 S
O48 C51 1.320 1_556 S
O49 Cd46 2.333 . S
O49 C51 1.214 . S
O50 Cd46 2.352 1_546 S
O50 C53 1.258 . S
C51 O48 1.320 1_554 S
C51 O49 1.214 . S
O52 Cd44 2.277 . S
O52 C47 1.209 . S
C53 O50 1.258 . S
C53 O55 1.282 . S
O54 Cd46 2.277 1_545 S
O54 C47 1.226 1_545 S
O55 Cd46 2.356 1_546 S
O55 C53 1.282 . S
C56 O57 1.306 . S
C56 O59 1.160 . S
O57 C56 1.306 . S
O57 Cd58 2.228 . S
Cd58 O57 2.228 . S
Cd58 O62 2.273 . S
Cd58 O66 2.277 . S
O59 C56 1.160 . S
O59 Cd60 2.203 . S
Cd60 O59 2.203 . S
Cd60 O62 2.411 . S
Cd60 O63 2.333 . S
Cd60 O64 2.352 . S
Cd60 O68 2.277 . S
Cd60 O69 2.356 . S
C61 O66 1.209 . S
C61 O68 1.226 . S
O62 Cd58 2.273 . S
O62 Cd60 2.411 . S
O62 C65 1.320 . S
O63 Cd60 2.333 . S
O63 C65 1.214 . S
O64 Cd60 2.352 . S
O64 C67 1.258 . S
C65 O62 1.320 . S
C65 O63 1.214 . S
O66 Cd58 2.277 . S
O66 C61 1.209 . S
C67 O64 1.258 . S
C67 O69 1.282 . S
O68 Cd60 2.277 . S
O68 C61 1.226 . S
O69 Cd60 2.356 . S
O69 C67 1.282 . S
C70 O71 1.306 1_565 S
C70 O73 1.160 . S
O71 C70 1.306 1_545 S
O71 Cd72 2.228 . S
Cd72 O71 2.228 . S
Cd72 O76 2.273 . S
Cd72 O80 2.277 . S
O73 C70 1.160 . S
O73 Cd74 2.203 1_565 S
Cd74 O73 2.203 1_545 S
Cd74 O76 2.411 . S
Cd74 O77 2.333 . S
Cd74 O78 2.352 1_545 S
Cd74 O82 2.277 1_545 S
Cd74 O83 2.356 1_545 S
C75 O80 1.209 . S
C75 O82 1.226 1_545 S
O76 Cd72 2.273 . S
O76 Cd74 2.411 . S
O76 C79 1.320 . S
O77 Cd74 2.333 . S
O77 C79 1.214 . S
O78 Cd74 2.352 1_565 S
O78 C81 1.258 . S
C79 O76 1.320 . S
C79 O77 1.214 . S
O80 Cd72 2.277 . S
O80 C75 1.209 . S
C81 O78 1.258 . S
C81 O83 1.282 . S
O82 Cd74 2.277 1_565 S
O82 C75 1.226 1_565 S
O83 Cd74 2.356 1_565 S
O83 C81 1.282 . S
C84 O85 1.306 . S
C84 O87 1.160 . S
O85 C84 1.306 . S
O85 Cd86 2.228 . S
Cd86 O85 2.228 . S
Cd86 O90 2.273 . S
Cd86 O94 2.277 . S
O87 C84 1.160 . S
O87 Cd88 2.203 . S
Cd88 O87 2.203 . S
Cd88 O90 2.411 . S
Cd88 O91 2.333 . S
Cd88 O92 2.352 . S
Cd88 O96 2.277 . S
Cd88 O97 2.356 . S
C89 O94 1.209 . S
C89 O96 1.226 . S
O90 Cd86 2.273 . S
O90 Cd88 2.411 . S
O90 C93 1.320 . S
O91 Cd88 2.333 . S
O91 C93 1.214 . S
O92 Cd88 2.352 . S
O92 C95 1.258 . S
C93 O90 1.320 . S
C93 O91 1.214 . S
O94 Cd86 2.277 . S
O94 C89 1.209 . S
C95 O92 1.258 . S
C95 O97 1.282 . S
O96 Cd88 2.277 . S
O96 C89 1.226 . S
O97 Cd88 2.356 . S
O97 C95 1.282 . S
C98 O99 1.306 1_544 S
C98 O101 1.160 . S
O99 C98 1.306 1_566 S
O99 Cd100 2.228 . S
Cd100 O99 2.228 . S
Cd100 O104 2.273 1_556 S
Cd100 O108 2.277 . S
O101 C98 1.160 . S
O101 Cd102 2.203 1_544 S
Cd102 O101 2.203 1_566 S
Cd102 O104 2.411 1_556 S
Cd102 O105 2.333 1_655 S
Cd102 O106 2.352 1_566 S
Cd102 O110 2.277 1_565 S
Cd102 O111 2.356 1_666 S
C103 O108 1.209 . S
C103 O110 1.226 1_565 S
O104 Cd100 2.273 1_554 S
O104 Cd102 2.411 1_554 S
O104 C107 1.320 1_654 S
O105 Cd102 2.333 1_455 S
O105 C107 1.214 . S
O106 Cd102 2.352 1_544 S
O106 C109 1.258 1_655 S
C107 O104 1.320 1_456 S
C107 O105 1.214 . S
O108 Cd100 2.277 . S
O108 C103 1.209 . S
C109 O106 1.258 1_455 S
C109 O111 1.282 . S
O110 Cd102 2.277 1_545 S
O110 C103 1.226 1_545 S
O111 Cd102 2.356 1_444 S
O111 C109 1.282 . S
C112 O113 1.306 . S
C112 O115 1.160 . S
O113 C112 1.306 . S
O113 Cd114 2.228 . S
Cd114 O113 2.228 . S
Cd114 O118 2.273 . S
Cd114 O122 2.277 . S
O115 C112 1.160 . S
O115 Cd116 2.203 . S
Cd116 O115 2.203 . S
Cd116 O118 2.411 . S
Cd116 O119 2.333 . S
Cd116 O120 2.352 . S
Cd116 O124 2.277 . S
Cd116 O125 2.356 . S
C117 O122 1.209 . S
C117 O124 1.226 . S
O118 Cd114 2.273 . S
O118 Cd116 2.411 . S
O118 C121 1.320 . S
O119 Cd116 2.333 . S
O119 C121 1.214 . S
O120 Cd116 2.352 . S
O120 C123 1.258 . S
C121 O118 1.320 . S
C121 O119 1.214 . S
O122 Cd114 2.277 . S
O122 C117 1.209 . S
C123 O120 1.258 . S
C123 O125 1.282 . S
O124 Cd116 2.277 . S
O124 C117 1.226 . S
O125 Cd116 2.356 . S
O125 C123 1.282 . S
C126 O127 1.306 1_554 S
C126 O129 1.160 . S
O127 C126 1.306 1_556 S
O127 Cd128 2.228 . S
Cd128 O127 2.228 . S
Cd128 O132 2.273 1_556 S
Cd128 O136 2.277 . S
O129 C126 1.160 . S
O129 Cd130 2.203 1_554 S
Cd130 O129 2.203 1_556 S
Cd130 O132 2.411 1_556 S
Cd130 O133 2.333 1_455 S
Cd130 O134 2.352 1_556 S
Cd130 O138 2.277 . S
Cd130 O139 2.356 1_456 S
C131 O136 1.209 . S
C131 O138 1.226 . S
O132 Cd128 2.273 1_554 S
O132 Cd130 2.411 1_554 S
O132 C135 1.320 1_454 S
O133 Cd130 2.333 1_655 S
O133 C135 1.214 . S
O134 Cd130 2.352 1_554 S
O134 C137 1.258 1_455 S
C135 O132 1.320 1_656 S
C135 O133 1.214 . S
O136 Cd128 2.277 . S
O136 C131 1.209 . S
C137 O134 1.258 1_655 S
C137 O139 1.282 . S
O138 Cd130 2.277 . S
O138 C131 1.226 . S
O139 Cd130 2.356 1_654 S
O139 C137 1.282 . S
C140 O141 1.306 . S
C140 O143 1.160 . S
O141 C140 1.306 . S
O141 Cd142 2.228 . S
Cd142 O141 2.228 . S
Cd142 O146 2.273 . S
Cd142 O150 2.277 . S
O143 C140 1.160 . S
O143 Cd144 2.203 . S
Cd144 O143 2.203 . S
Cd144 O146 2.411 . S
Cd144 O147 2.333 . S
Cd144 O148 2.352 . S
Cd144 O152 2.277 . S
Cd144 O153 2.356 . S
C145 O150 1.209 . S
C145 O152 1.226 . S
O146 Cd142 2.273 . S
O146 Cd144 2.411 . S
O146 C149 1.320 . S
O147 Cd144 2.333 . S
O147 C149 1.214 . S
O148 Cd144 2.352 . S
O148 C151 1.258 . S
C149 O146 1.320 . S
C149 O147 1.214 . S
O150 Cd142 2.277 . S
O150 C145 1.209 . S
C151 O148 1.258 . S
C151 O153 1.282 . S
O152 Cd144 2.277 . S
O152 C145 1.226 . S
O153 Cd144 2.356 . S
O153 C151 1.282 . S
C154 O155 1.306 . S
C154 O157 1.160 . S
O155 C154 1.306 . S
O155 Cd156 2.228 . S
Cd156 O155 2.228 . S
Cd156 O160 2.273 . S
Cd156 O164 2.277 . S
O157 C154 1.160 . S
O157 Cd158 2.203 . S
Cd158 O157 2.203 . S
Cd158 O160 2.411 . S
Cd158 O161 2.333 1_455 S
Cd158 O162 2.352 . S
Cd158 O166 2.277 . S
Cd158 O167 2.356 1_455 S
C159 O164 1.209 . S
C159 O166 1.226 . S
O160 Cd156 2.273 . S
O160 Cd158 2.411 . S
O160 C163 1.320 1_455 S
O161 Cd158 2.333 1_655 S
O161 C163 1.214 . S
O162 Cd158 2.352 . S
O162 C165 1.258 1_455 S
C163 O160 1.320 1_655 S
C163 O161 1.214 . S
O164 Cd156 2.277 . S
O164 C159 1.209 . S
C165 O162 1.258 1_655 S
C165 O167 1.282 . S
O166 Cd158 2.277 . S
O166 C159 1.226 . S
O167 Cd158 2.356 1_655 S
O167 C165 1.282 . S
C168 O169 1.306 1_556 S
C168 O171 1.160 . S
O169 C168 1.306 1_554 S
O169 Cd170 2.228 . S
Cd170 O169 2.228 . S
Cd170 O174 2.273 1_554 S
Cd170 O178 2.277 . S
O171 C168 1.160 . S
O171 Cd172 2.203 1_556 S
Cd172 O171 2.203 1_554 S
Cd172 O174 2.411 1_554 S
Cd172 O175 2.333 . S
Cd172 O176 2.352 1_554 S
Cd172 O180 2.277 . S
Cd172 O181 2.356 1_554 S
C173 O178 1.209 . S
C173 O180 1.226 . S
O174 Cd170 2.273 1_556 S
O174 Cd172 2.411 1_556 S
O174 C177 1.320 1_556 S
O175 Cd172 2.333 . S
O175 C177 1.214 . S
O176 Cd172 2.352 1_556 S
O176 C179 1.258 . S
C177 O174 1.320 1_554 S
C177 O175 1.214 . S
O178 Cd170 2.277 . S
O178 C173 1.209 . S
C179 O176 1.258 . S
C179 O181 1.282 . S
O180 Cd172 2.277 . S
O180 C173 1.226 . S
O181 Cd172 2.356 1_556 S
O181 C179 1.282 . S
C182 O183 1.306 . S
C182 O185 1.160 . S
O183 C182 1.306 . S
O183 Cd184 2.228 . S
Cd184 O183 2.228 . S
Cd184 O188 2.273 . S
Cd184 O192 2.277 . S
O185 C182 1.160 . S
O185 Cd186 2.203 . S
Cd186 O185 2.203 . S
Cd186 O188 2.411 . S
Cd186 O189 2.333 . S
Cd186 O190 2.352 . S
Cd186 O194 2.277 . S
Cd186 O195 2.356 . S
C187 O192 1.209 . S
C187 O194 1.226 . S
O188 Cd184 2.273 . S
O188 Cd186 2.411 . S
O188 C191 1.320 . S
O189 Cd186 2.333 . S
O189 C191 1.214 . S
O190 Cd186 2.352 . S
O190 C193 1.258 . S
C191 O188 1.320 . S
C191 O189 1.214 . S
O192 Cd184 2.277 . S
O192 C187 1.209 . S
C193 O190 1.258 . S
C193 O195 1.282 . S
O194 Cd186 2.277 . S
O194 C187 1.226 . S
O195 Cd186 2.356 . S
O195 C193 1.282 . S
C196 O197 1.306 . S
C196 O199 1.160 . S
O197 C196 1.306 . S
O197 Cd198 2.228 . S
Cd198 O197 2.228 . S
Cd198 O202 2.273 . S
Cd198 O206 2.277 . S
O199 C196 1.160 . S
O199 Cd200 2.203 . S
Cd200 O199 2.203 . S
Cd200 O202 2.411 . S
Cd200 O203 2.333 . S
Cd200 O204 2.352 . S
Cd200 O208 2.277 . S
Cd200 O209 2.356 . S
C201 O206 1.209 . S
C201 O208 1.226 . S
O202 Cd198 2.273 . S
O202 Cd200 2.411 . S
O202 C205 1.320 . S
O203 Cd200 2.333 . S
O203 C205 1.214 . S
O204 Cd200 2.352 . S
O204 C207 1.258 . S
C205 O202 1.320 . S
C205 O203 1.214 . S
O206 Cd198 2.277 . S
O206 C201 1.209 . S
C207 O204 1.258 . S
C207 O209 1.282 . S
O208 Cd200 2.277 . S
O208 C201 1.226 . S
O209 Cd200 2.356 . S
O209 C207 1.282 . S
C210 O211 1.306 . S
C210 O213 1.160 . S
O211 C210 1.306 . S
O211 Cd212 2.228 . S
Cd212 O211 2.228 . S
Cd212 O216 2.273 . S
Cd212 O220 2.277 . S
O213 C210 1.160 . S
O213 Cd214 2.203 . S
Cd214 O213 2.203 . S
Cd214 O216 2.411 . S
Cd214 O217 2.333 . S
Cd214 O218 2.352 . S
Cd214 O222 2.277 . S
Cd214 O223 2.356 . S
C215 O220 1.209 . S
C215 O222 1.226 . S
O216 Cd212 2.273 . S
O216 Cd214 2.411 . S
O216 C219 1.320 . S
O217 Cd214 2.333 . S
O217 C219 1.214 . S
O218 Cd214 2.352 . S
O218 C221 1.258 . S
C219 O216 1.320 . S
C219 O217 1.214 . S
O220 Cd212 2.277 . S
O220 C215 1.209 . S
C221 O218 1.258 . S
C221 O223 1.282 . S
O222 Cd214 2.277 . S
O222 C215 1.226 . S
O223 Cd214 2.356 . S
O223 C221 1.282 . S
C224 C225 1.363 . S
C224 C230 1.379 . S
C224 N232 1.356 . S
C225 C224 1.363 . S
C225 C231 1.363 . S
C226 C227 1.363 . S
C226 C231 1.379 . S
C226 N233 1.356 . S
C227 C226 1.363 . S
C227 C230 1.363 . S
N228 C230 1.356 . S
N228 H240 0.984 . S
N228 H241 0.985 1_455 S
N229 C231 1.356 . S
N229 H234 0.984 . S
N229 H235 0.985 . S
C230 C224 1.379 . S
C230 C227 1.363 . S
C230 N228 1.356 . S
C231 C225 1.363 . S
C231 C226 1.379 . S
C231 N229 1.356 . S
N232 C224 1.356 . S
N232 H238 0.984 . S
N232 H239 0.984 . S
N233 C226 1.356 . S
N233 H236 0.984 1_545 S
N233 H237 0.985 1_545 S
H234 N229 0.984 . S
H235 N229 0.985 . S
H236 N233 0.984 1_565 S
H237 N233 0.985 1_565 S
H238 N232 0.984 . S
H239 N232 0.984 . S
H240 N228 0.984 . S
H241 N228 0.985 1_655 S
C242 C243 1.363 . S
C242 C248 1.379 . S
C242 N250 1.356 . S
C243 C242 1.363 . S
C243 C249 1.363 . S
C244 C245 1.363 . S
C244 C249 1.379 . S
C244 N251 1.356 . S
C245 C244 1.363 . S
C245 C248 1.363 . S
N246 C248 1.356 . S
N246 H258 0.984 . S
N246 H259 0.985 . S
N247 C249 1.356 . S
N247 H252 0.984 . S
N247 H253 0.985 . S
C248 C242 1.379 . S
C248 C245 1.363 . S
C248 N246 1.356 . S
C249 C243 1.363 . S
C249 C244 1.379 . S
C249 N247 1.356 . S
N250 C242 1.356 . S
N250 H256 0.984 . S
N250 H257 0.984 . S
N251 C244 1.356 . S
N251 H254 0.984 . S
N251 H255 0.985 . S
H252 N247 0.984 . S
H253 N247 0.985 . S
H254 N251 0.984 . S
H255 N251 0.985 . S
H256 N250 0.984 . S
H257 N250 0.984 . S
H258 N246 0.984 . S
H259 N246 0.985 . S
C260 C261 1.363 . S
C260 C266 1.379 . S
C260 N268 1.356 . S
C261 C260 1.363 . S
C261 C267 1.363 . S
C262 C263 1.363 . S
C262 C267 1.379 . S
C262 N269 1.356 . S
C263 C262 1.363 . S
C263 C266 1.363 . S
N264 C266 1.356 . S
N264 H276 0.984 . S
N264 H277 0.985 . S
N265 C267 1.356 . S
N265 H270 0.984 . S
N265 H271 0.985 . S
C266 C260 1.379 . S
C266 C263 1.363 . S
C266 N264 1.356 . S
C267 C261 1.363 . S
C267 C262 1.379 . S
C267 N265 1.356 . S
N268 C260 1.356 . S
N268 H274 0.984 . S
N268 H275 0.984 . S
N269 C262 1.356 . S
N269 H272 0.984 . S
N269 H273 0.985 . S
H270 N265 0.984 . S
H271 N265 0.985 . S
H272 N269 0.984 . S
H273 N269 0.985 . S
H274 N268 0.984 . S
H275 N268 0.984 . S
H276 N264 0.984 . S
H277 N264 0.985 . S
C278 C279 1.363 . S
C278 C284 1.379 . S
C278 N286 1.356 . S
C279 C278 1.363 . S
C279 C285 1.363 . S
C280 C281 1.363 . S
C280 C285 1.379 . S
C280 N287 1.356 . S
C281 C280 1.363 . S
C281 C284 1.363 . S
N282 C284 1.356 . S
N282 H294 0.984 . S
N282 H295 0.985 . S
N283 C285 1.356 . S
N283 H288 0.984 . S
N283 H289 0.985 . S
C284 C278 1.379 . S
C284 C281 1.363 . S
C284 N282 1.356 . S
C285 C279 1.363 . S
C285 C280 1.379 . S
C285 N283 1.356 . S
N286 C278 1.356 . S
N286 H292 0.984 1_556 S
N286 H293 0.984 . S
N287 C280 1.356 . S
N287 H290 0.984 . S
N287 H291 0.985 . S
H288 N283 0.984 . S
H289 N283 0.985 . S
H290 N287 0.984 . S
H291 N287 0.985 . S
H292 N286 0.984 1_554 S
H293 N286 0.984 . S
H294 N282 0.984 . S
H295 N282 0.985 . S
C296 C297 1.363 . S
C296 C302 1.379 . S
C296 N304 1.356 . S
C297 C296 1.363 . S
C297 C303 1.363 . S
C298 C299 1.363 . S
C298 C303 1.379 . S
C298 N305 1.356 . S
C299 C298 1.363 . S
C299 C302 1.363 . S
N300 C302 1.356 . S
N300 H312 0.984 . S
N300 H313 0.985 . S
N301 C303 1.356 . S
N301 H306 0.984 . S
N301 H307 0.985 . S
C302 C296 1.379 . S
C302 C299 1.363 . S
C302 N300 1.356 . S
C303 C297 1.363 . S
C303 C298 1.379 . S
C303 N301 1.356 . S
N304 C296 1.356 . S
N304 H310 0.984 . S
N304 H311 0.984 . S
N305 C298 1.356 . S
N305 H308 0.984 . S
N305 H309 0.985 . S
H306 N301 0.984 . S
H307 N301 0.985 . S
H308 N305 0.984 . S
H309 N305 0.985 . S
H310 N304 0.984 . S
H311 N304 0.984 . S
H312 N300 0.984 . S
H313 N300 0.985 . S
C314 C315 1.363 . S
C314 C320 1.379 . S
C314 N322 1.356 . S
C315 C314 1.363 . S
C315 C321 1.363 . S
C316 C317 1.363 . S
C316 C321 1.379 . S
C316 N323 1.356 . S
C317 C316 1.363 . S
C317 C320 1.363 . S
N318 C320 1.356 . S
N318 H330 0.984 . S
N318 H331 0.985 . S
N319 C321 1.356 . S
N319 H324 0.984 . S
N319 H325 0.985 . S
C320 C314 1.379 . S
C320 C317 1.363 . S
C320 N318 1.356 . S
C321 C315 1.363 . S
C321 C316 1.379 . S
C321 N319 1.356 . S
N322 C314 1.356 . S
N322 H328 0.984 1_554 S
N322 H329 0.984 . S
N323 C316 1.356 . S
N323 H326 0.984 . S
N323 H327 0.985 . S
H324 N319 0.984 . S
H325 N319 0.985 . S
H326 N323 0.984 . S
H327 N323 0.985 . S
H328 N322 0.984 1_556 S
H329 N322 0.984 . S
H330 N318 0.984 . S
H331 N318 0.985 . S
C332 C333 1.363 . S
C332 C338 1.379 . S
C332 N340 1.356 . S
C333 C332 1.363 . S
C333 C339 1.363 . S
C334 C335 1.363 . S
C334 C339 1.379 . S
C334 N341 1.356 . S
C335 C334 1.363 . S
C335 C338 1.363 . S
N336 C338 1.356 . S
N336 H348 0.984 . S
N336 H349 0.985 . S
N337 C339 1.356 . S
N337 H342 0.984 1_655 S
N337 H343 0.986 . S
C338 C332 1.379 . S
C338 C335 1.363 . S
C338 N336 1.356 . S
C339 C333 1.363 . S
C339 C334 1.379 . S
C339 N337 1.356 . S
N340 C332 1.356 . S
N340 H346 0.984 . S
N340 H347 0.984 . S
N341 C334 1.356 . S
N341 H344 0.984 . S
N341 H345 0.985 . S
H342 N337 0.984 1_455 S
H343 N337 0.986 . S
H344 N341 0.984 . S
H345 N341 0.985 . S
H346 N340 0.984 . S
H347 N340 0.984 . S
H348 N336 0.984 . S
H349 N336 0.985 . S
C350 C351 1.363 . S
C350 C356 1.379 . S
C350 N358 1.356 . S
C351 C350 1.363 . S
C351 C357 1.363 . S
C352 C353 1.363 . S
C352 C357 1.379 . S
C352 N359 1.356 . S
C353 C352 1.363 . S
C353 C356 1.363 . S
N354 C356 1.356 . S
N354 H366 0.984 . S
N354 H367 0.985 . S
N355 C357 1.356 . S
N355 H360 0.984 . S
N355 H361 0.985 . S
C356 C350 1.379 . S
C356 C353 1.363 . S
C356 N354 1.356 . S
C357 C351 1.363 . S
C357 C352 1.379 . S
C357 N355 1.356 . S
N358 C350 1.356 . S
N358 H364 0.984 . S
N358 H365 0.984 . S
N359 C352 1.356 . S
N359 H362 0.984 . S
N359 H363 0.985 . S
H360 N355 0.984 . S
H361 N355 0.985 . S
H362 N359 0.984 . S
H363 N359 0.985 . S
H364 N358 0.984 . S
H365 N358 0.984 . S
H366 N354 0.984 . S
H367 N354 0.985 . S
C368 C369 1.363 . S
C368 C374 1.379 . S
C368 N376 1.356 . S
C369 C368 1.363 . S
C369 C375 1.363 . S
C370 C371 1.363 . S
C370 C375 1.379 . S
C370 N377 1.356 . S
C371 C370 1.363 . S
C371 C374 1.363 . S
N372 C374 1.356 . S
N372 H384 0.984 . S
N372 H385 0.985 . S
N373 C375 1.356 . S
N373 H378 0.984 . S
N373 H379 0.985 . S
C374 C368 1.379 . S
C374 C371 1.363 . S
C374 N372 1.356 . S
C375 C369 1.363 . S
C375 C370 1.379 . S
C375 N373 1.356 . S
N376 C368 1.356 . S
N376 H382 0.984 . S
N376 H383 0.984 . S
N377 C370 1.356 . S
N377 H380 0.984 . S
N377 H381 0.985 . S
H378 N373 0.984 . S
H379 N373 0.985 . S
H380 N377 0.984 . S
H381 N377 0.985 . S
H382 N376 0.984 . S
H383 N376 0.984 . S
H384 N372 0.984 . S
H385 N372 0.985 . S
C386 C387 1.363 . S
C386 C392 1.379 . S
C386 N394 1.361 . S
C387 C386 1.363 . S
C387 C393 1.363 1_565 S
C388 C389 1.363 . S
C388 C393 1.379 . S
C388 N395 1.356 . S
C389 C388 1.363 . S
C389 C392 1.363 1_545 S
N390 C392 1.361 . S
N390 H402 0.978 1_655 S
N390 H403 0.987 . S
N391 C393 1.356 . S
N391 H396 0.984 . S
N391 H397 0.985 . S
C392 C386 1.379 . S
C392 C389 1.363 1_565 S
C392 N390 1.361 . S
C393 C387 1.363 1_545 S
C393 C388 1.379 . S
C393 N391 1.356 . S
N394 C386 1.361 . S
N394 H400 0.978 1_655 S
N394 H401 0.987 . S
N395 C388 1.356 . S
N395 H398 0.984 . S
N395 H399 0.985 . S
H396 N391 0.984 . S
H397 N391 0.985 . S
H398 N395 0.984 . S
H399 N395 0.985 . S
H400 N394 0.978 1_455 S
H401 N394 0.987 . S
H402 N390 0.978 1_455 S
H403 N390 0.987 . S
C404 C405 1.363 . S
C404 C410 1.379 1_556 S
C404 N412 1.356 . S
C405 C404 1.363 . S
C405 C411 1.363 . S
C406 C407 1.363 . S
C406 C411 1.379 1_554 S
C406 N413 1.356 . S
C407 C406 1.363 . S
C407 C410 1.363 . S
N408 C410 1.356 . S
N408 H420 0.984 . S
N408 H421 0.985 . S
N409 C411 1.356 . S
N409 H414 0.984 . S
N409 H415 0.985 . S
C410 C404 1.379 1_554 S
C410 C407 1.363 . S
C410 N408 1.356 . S
C411 C405 1.363 . S
C411 C406 1.379 1_556 S
C411 N409 1.356 . S
N412 C404 1.356 . S
N412 H418 0.984 . S
N412 H419 0.984 . S
N413 C406 1.356 . S
N413 H416 0.984 . S
N413 H417 0.985 . S
H414 N409 0.984 . S
H415 N409 0.985 . S
H416 N413 0.984 . S
H417 N413 0.985 . S
H418 N412 0.984 . S
H419 N412 0.984 . S
H420 N408 0.984 . S
H421 N408 0.985 . S
C422 C423 1.363 1_565 S
C422 C428 1.379 . S
C422 N430 1.356 . S
C423 C422 1.363 1_545 S
C423 C429 1.363 . S
C424 C425 1.363 1_545 S
C424 C429 1.379 . S
C424 N431 1.356 . S
C425 C424 1.363 1_565 S
C425 C428 1.363 . S
N426 C428 1.356 . S
N426 H438 0.984 . S
N426 H439 0.985 . S
N427 C429 1.356 . S
N427 H432 0.984 . S
N427 H433 0.985 . S
C428 C422 1.379 . S
C428 C425 1.363 . S
C428 N426 1.356 . S
C429 C423 1.363 . S
C429 C424 1.379 . S
C429 N427 1.356 . S
N430 C422 1.356 . S
N430 H436 0.984 . S
N430 H437 0.984 . S
N431 C424 1.356 . S
N431 H434 0.984 . S
N431 H435 0.985 . S
H432 N427 0.984 . S
H433 N427 0.985 . S
H434 N431 0.984 . S
H435 N431 0.985 . S
H436 N430 0.984 . S
H437 N430 0.984 . S
H438 N426 0.984 . S
H439 N426 0.985 . S
C440 C441 1.363 . S
C440 C446 1.379 . S
C440 N448 1.356 . S
C441 C440 1.363 . S
C441 C447 1.363 . S
C442 C443 1.363 . S
C442 C447 1.379 . S
C442 N449 1.356 . S
C443 C442 1.363 . S
C443 C446 1.363 . S
N444 C446 1.356 . S
N444 H456 0.984 . S
N444 H457 0.985 . S
N445 C447 1.356 . S
N445 H450 0.984 . S
N445 H451 0.985 . S
C446 C440 1.379 . S
C446 C443 1.363 . S
C446 N444 1.356 . S
C447 C441 1.363 . S
C447 C442 1.379 . S
C447 N445 1.356 . S
N448 C440 1.356 . S
N448 H454 0.984 . S
N448 H455 0.984 . S
N449 C442 1.356 . S
N449 H452 0.984 . S
N449 H453 0.985 . S
H450 N445 0.984 . S
H451 N445 0.985 . S
H452 N449 0.984 . S
H453 N449 0.985 . S
H454 N448 0.984 . S
H455 N448 0.984 . S
H456 N444 0.984 . S
H457 N444 0.985 . S
C458 C459 1.363 . S
C458 C464 1.379 . S
C458 N466 1.356 . S
C459 C458 1.363 . S
C459 C465 1.363 1_655 S
C460 C461 1.363 . S
C460 C465 1.379 . S
C460 N467 1.356 . S
C461 C460 1.363 . S
C461 C464 1.363 1_455 S
N462 C464 1.356 . S
N462 H474 0.984 . S
N462 H475 0.985 . S
N463 C465 1.356 . S
N463 H468 0.984 . S
N463 H469 0.985 . S
C464 C458 1.379 . S
C464 C461 1.363 1_655 S
C464 N462 1.356 . S
C465 C459 1.363 1_455 S
C465 C460 1.379 . S
C465 N463 1.356 . S
N466 C458 1.356 . S
N466 H472 0.984 . S
N466 H473 0.984 . S
N467 C460 1.356 . S
N467 H470 0.984 . S
N467 H471 0.985 . S
H468 N463 0.984 . S
H469 N463 0.985 . S
H470 N467 0.984 . S
H471 N467 0.985 . S
H472 N466 0.984 . S
H473 N466 0.984 . S
H474 N462 0.984 . S
H475 N462 0.985 . S
C476 C477 1.363 . S
C476 C482 1.379 1_655 S
C476 N484 1.356 . S
C477 C476 1.363 . S
C477 C483 1.363 . S
C478 C479 1.363 . S
C478 C483 1.379 1_455 S
C478 N485 1.356 . S
C479 C478 1.363 . S
C479 C482 1.363 . S
N480 C482 1.356 . S
N480 H492 0.984 . S
N480 H493 0.985 . S
N481 C483 1.356 . S
N481 H486 0.984 . S
N481 H487 0.985 . S
C482 C476 1.379 1_455 S
C482 C479 1.363 . S
C482 N480 1.356 . S
C483 C477 1.363 . S
C483 C478 1.379 1_655 S
C483 N481 1.356 . S
N484 C476 1.356 . S
N484 H490 0.984 . S
N484 H491 0.984 . S
N485 C478 1.356 . S
N485 H488 0.984 . S
N485 H489 0.985 . S
H486 N481 0.984 . S
H487 N481 0.985 . S
H488 N485 0.984 . S
H489 N485 0.985 . S
H490 N484 0.984 . S
H491 N484 0.984 . S
H492 N480 0.984 . S
H493 N480 0.985 . S
C494 C495 1.363 1_556 S
C494 C500 1.379 . S
C494 N502 1.356 . S
C495 C494 1.363 1_554 S
C495 C501 1.363 . S
C496 C497 1.363 . S
C496 C501 1.379 . S
C496 N503 1.356 . S
C497 C496 1.363 . S
C497 C500 1.363 1_554 S
N498 C500 1.356 . S
N498 H510 0.984 . S
N498 H511 0.985 . S
N499 C501 1.356 . S
N499 H504 0.984 . S
N499 H505 0.985 . S
C500 C494 1.379 . S
C500 C497 1.363 1_556 S
C500 N498 1.356 . S
C501 C495 1.363 . S
C501 C496 1.379 . S
C501 N499 1.356 . S
N502 C494 1.356 . S
N502 H508 0.984 . S
N502 H509 0.984 . S
N503 C496 1.356 . S
N503 H506 0.984 . S
N503 H507 0.985 . S
H504 N499 0.984 . S
H505 N499 0.985 . S
H506 N503 0.984 . S
H507 N503 0.985 . S
H508 N502 0.984 . S
H509 N502 0.984 . S
H510 N498 0.984 . S
H511 N498 0.985 . S
C512 C513 1.363 . S
C512 C518 1.379 . S
C512 N520 1.356 . S
C513 C512 1.363 . S
C513 C519 1.363 . S
C514 C515 1.363 . S
C514 C519 1.379 . S
C514 N521 1.356 . S
C515 C514 1.363 . S
C515 C518 1.363 . S
N516 C518 1.356 . S
N516 H528 0.984 . S
N516 H529 0.985 . S
N517 C519 1.356 . S
N517 H522 0.984 . S
N517 H523 0.985 . S
C518 C512 1.379 . S
C518 C515 1.363 . S
C518 N516 1.356 . S
C519 C513 1.363 . S
C519 C514 1.379 . S
C519 N517 1.356 . S
N520 C512 1.356 . S
N520 H526 0.984 . S
N520 H527 0.984 . S
N521 C514 1.356 . S
N521 H524 0.984 . S
N521 H525 0.985 . S
H522 N517 0.984 . S
H523 N517 0.985 . S
H524 N521 0.984 . S
H525 N521 0.985 . S
H526 N520 0.984 . S
H527 N520 0.984 . S
H528 N516 0.984 . S
H529 N516 0.985 . S
C530 C531 1.363 . S
C530 C536 1.379 . S
C530 N538 1.356 . S
C531 C530 1.363 . S
C531 C537 1.363 . S
C532 C533 1.363 . S
C532 C537 1.379 . S
C532 N539 1.356 . S
C533 C532 1.363 . S
C533 C536 1.363 . S
N534 C536 1.356 . S
N534 H546 0.984 . S
N534 H547 0.985 . S
N535 C537 1.356 . S
N535 H540 0.984 . S
N535 H541 0.985 . S
C536 C530 1.379 . S
C536 C533 1.363 . S
C536 N534 1.356 . S
C537 C531 1.363 . S
C537 C532 1.379 . S
C537 N535 1.356 . S
N538 C530 1.356 . S
N538 H544 0.984 . S
N538 H545 0.984 . S
N539 C532 1.356 . S
N539 H542 0.984 . S
N539 H543 0.985 . S
H540 N535 0.984 . S
H541 N535 0.985 . S
H542 N539 0.984 . S
H543 N539 0.985 . S
H544 N538 0.984 . S
H545 N538 0.984 . S
H546 N534 0.984 . S
H547 N534 0.985 . S
C548 C549 1.363 . S
C548 C554 1.379 1_455 S
C548 N556 1.356 . S
C549 C548 1.363 . S
C549 C555 1.363 . S
C550 C551 1.363 . S
C550 C555 1.379 1_655 S
C550 N557 1.356 . S
C551 C550 1.363 . S
C551 C554 1.363 . S
N552 C554 1.356 . S
N552 H564 0.984 . S
N552 H565 0.985 . S
N553 C555 1.356 . S
N553 H558 0.984 . S
N553 H559 0.985 . S
C554 C548 1.379 1_655 S
C554 C551 1.363 . S
C554 N552 1.356 . S
C555 C549 1.363 . S
C555 C550 1.379 1_455 S
C555 N553 1.356 . S
N556 C548 1.356 . S
N556 H562 0.984 . S
N556 H563 0.984 . S
N557 C550 1.356 . S
N557 H560 0.984 . S
N557 H561 0.985 . S
H558 N553 0.984 . S
H559 N553 0.985 . S
H560 N557 0.984 . S
H561 N557 0.985 . S
H562 N556 0.984 . S
H563 N556 0.984 . S
H564 N552 0.984 . S
H565 N552 0.985 . S
C566 C567 1.363 1_554 S
C566 C572 1.379 . S
C566 N574 1.356 . S
C567 C566 1.363 1_556 S
C567 C573 1.363 1_455 S
C568 C569 1.363 . S
C568 C573 1.379 . S
C568 N575 1.356 . S
C569 C568 1.363 . S
C569 C572 1.363 1_656 S
N570 C572 1.356 . S
N570 H582 0.984 . S
N570 H583 0.985 . S
N571 C573 1.356 . S
N571 H576 0.984 . S
N571 H577 0.985 . S
C572 C566 1.379 . S
C572 C569 1.363 1_454 S
C572 N570 1.356 . S
C573 C567 1.363 1_655 S
C573 C568 1.379 . S
C573 N571 1.356 . S
N574 C566 1.356 . S
N574 H580 0.984 . S
N574 H581 0.984 . S
N575 C568 1.356 . S
N575 H578 0.984 . S
N575 H579 0.985 . S
H576 N571 0.984 . S
H577 N571 0.985 . S
H578 N575 0.984 . S
H579 N575 0.985 . S
H580 N574 0.984 . S
H581 N574 0.984 . S
H582 N570 0.984 . S
H583 N570 0.985 . S
C584 C585 1.363 . S
C584 C590 1.379 . S
C584 N592 1.356 . S
C585 C584 1.363 . S
C585 C591 1.363 . S
C586 C587 1.363 . S
C586 C591 1.379 . S
C586 N593 1.356 . S
C587 C586 1.363 . S
C587 C590 1.363 . S
N588 C590 1.356 . S
N588 H600 0.984 . S
N588 H601 0.985 . S
N589 C591 1.356 . S
N589 H594 0.984 . S
N589 H595 0.985 . S
C590 C584 1.379 . S
C590 C587 1.363 . S
C590 N588 1.356 . S
C591 C585 1.363 . S
C591 C586 1.379 . S
C591 N589 1.356 . S
N592 C584 1.356 . S
N592 H598 0.984 . S
N592 H599 0.984 . S
N593 C586 1.356 . S
N593 H596 0.984 . S
N593 H597 0.985 . S
H594 N589 0.984 . S
H595 N589 0.985 . S
H596 N593 0.984 . S
H597 N593 0.985 . S
H598 N592 0.984 . S
H599 N592 0.984 . S
H600 N588 0.984 . S
H601 N588 0.985 . S
C602 C603 1.363 . S
C602 C608 1.379 1_545 S
C602 N610 1.356 . S
C603 C602 1.363 . S
C603 C609 1.363 . S
C604 C605 1.363 . S
C604 C609 1.379 1_565 S
C604 N611 1.356 . S
C605 C604 1.363 . S
C605 C608 1.363 . S
N606 C608 1.356 . S
N606 H618 0.984 . S
N606 H619 0.985 . S
N607 C609 1.356 . S
N607 H612 0.984 . S
N607 H613 0.985 . S
C608 C602 1.379 1_565 S
C608 C605 1.363 . S
C608 N606 1.356 . S
C609 C603 1.363 . S
C609 C604 1.379 1_545 S
C609 N607 1.356 . S
N610 C602 1.356 . S
N610 H616 0.984 . S
N610 H617 0.984 . S
N611 C604 1.356 . S
N611 H614 0.984 . S
N611 H615 0.985 . S
H612 N607 0.984 . S
H613 N607 0.985 . S
H614 N611 0.984 . S
H615 N611 0.985 . S
H616 N610 0.984 . S
H617 N610 0.984 . S
H618 N606 0.984 . S
H619 N606 0.985 . S
C620 C621 1.363 . S
C620 C626 1.379 . S
C620 N628 1.356 . S
C621 C620 1.363 . S
C621 C627 1.363 1_556 S
C622 C623 1.363 . S
C622 C627 1.379 . S
C622 N629 1.356 . S
C623 C622 1.363 . S
C623 C626 1.363 1_554 S
N624 C626 1.356 . S
N624 H636 0.984 . S
N624 H637 0.985 . S
N625 C627 1.356 . S
N625 H630 0.984 . S
N625 H631 0.985 . S
C626 C620 1.379 . S
C626 C623 1.363 1_556 S
C626 N624 1.356 . S
C627 C621 1.363 1_554 S
C627 C622 1.379 . S
C627 N625 1.356 . S
N628 C620 1.356 . S
N628 H634 0.984 . S
N628 H635 0.984 . S
N629 C622 1.356 . S
N629 H632 0.984 . S
N629 H633 0.985 . S
H630 N625 0.984 . S
H631 N625 0.985 . S
H632 N629 0.984 . S
H633 N629 0.985 . S
H634 N628 0.984 . S
H635 N628 0.984 . S
H636 N624 0.984 . S
H637 N624 0.985 . S
C638 C639 1.363 . S
C638 C644 1.379 1_545 S
C638 N646 1.356 . S
C639 C638 1.363 . S
C639 C645 1.363 . S
C640 C641 1.363 . S
C640 C645 1.379 1_565 S
C640 N647 1.356 . S
C641 C640 1.363 . S
C641 C644 1.363 . S
N642 C644 1.356 . S
N642 H654 0.984 . S
N642 H655 0.985 . S
N643 C645 1.356 . S
N643 H648 0.984 . S
N643 H649 0.985 . S
C644 C638 1.379 1_565 S
C644 C641 1.363 . S
C644 N642 1.356 . S
C645 C639 1.363 . S
C645 C640 1.379 1_545 S
C645 N643 1.356 . S
N646 C638 1.356 . S
N646 H652 0.984 . S
N646 H653 0.984 . S
N647 C640 1.356 . S
N647 H650 0.984 . S
N647 H651 0.985 . S
H648 N643 0.984 . S
H649 N643 0.985 . S
H650 N647 0.984 . S
H651 N647 0.985 . S
H652 N646 0.984 . S
H653 N646 0.984 . S
H654 N642 0.984 . S
H655 N642 0.985 . S
C656 C657 1.363 . S
C656 C662 1.379 . S
C656 N664 1.356 . S
C657 C656 1.363 . S
C657 C663 1.363 1_544 S
C658 C659 1.363 1_565 S
C658 C663 1.379 . S
C658 N665 1.356 . S
C659 C658 1.363 1_545 S
C659 C662 1.363 1_556 S
N660 C662 1.356 . S
N660 H672 0.984 . S
N660 H673 0.985 . S
N661 C663 1.356 . S
N661 H666 0.984 . S
N661 H667 0.985 . S
C662 C656 1.379 . S
C662 C659 1.363 1_554 S
C662 N660 1.356 . S
C663 C657 1.363 1_566 S
C663 C658 1.379 . S
C663 N661 1.356 . S
N664 C656 1.356 . S
N664 H670 0.984 . S
N664 H671 0.984 . S
N665 C658 1.356 . S
N665 H668 0.984 . S
N665 H669 0.985 . S
H666 N661 0.984 . S
H667 N661 0.985 . S
H668 N665 0.984 . S
H669 N665 0.985 . S
H670 N664 0.984 . S
H671 N664 0.984 . S
H672 N660 0.984 . S
H673 N660 0.985 . S
C674 C675 1.363 . S
C674 C680 1.379 . S
C674 N682 1.356 . S
C675 C674 1.363 . S
C675 C681 1.363 . S
C676 C677 1.363 . S
C676 C681 1.379 . S
C676 N683 1.356 . S
C677 C676 1.363 . S
C677 C680 1.363 . S
N678 C680 1.356 . S
N678 H690 0.984 . S
N678 H691 0.985 . S
N679 C681 1.356 . S
N679 H684 0.984 . S
N679 H685 0.985 . S
C680 C674 1.379 . S
C680 C677 1.363 . S
C680 N678 1.356 . S
C681 C675 1.363 . S
C681 C676 1.379 . S
C681 N679 1.356 . S
N682 C674 1.356 . S
N682 H688 0.984 . S
N682 H689 0.984 . S
N683 C676 1.356 . S
N683 H686 0.984 . S
N683 H687 0.985 . S
H684 N679 0.984 . S
H685 N679 0.985 . S
H686 N683 0.984 . S
H687 N683 0.985 . S
H688 N682 0.984 . S
H689 N682 0.984 . S
H690 N678 0.984 . S
H691 N678 0.985 . S
C692 C693 1.363 . S
C692 C698 1.379 . S
C692 N700 1.356 . S
C693 C692 1.363 . S
C693 C699 1.363 . S
C694 C695 1.363 . S
C694 C699 1.379 . S
C694 N701 1.356 . S
C695 C694 1.363 . S
C695 C698 1.363 . S
N696 C698 1.356 . S
N696 H708 0.984 . S
N696 H709 0.985 . S
N697 C699 1.356 . S
N697 H702 0.984 . S
N697 H703 0.985 . S
C698 C692 1.379 . S
C698 C695 1.363 . S
C698 N696 1.356 . S
C699 C693 1.363 . S
C699 C694 1.379 . S
C699 N697 1.356 . S
N700 C692 1.356 . S
N700 H706 0.984 . S
N700 H707 0.984 . S
N701 C694 1.356 . S
N701 H704 0.984 . S
N701 H705 0.985 . S
H702 N697 0.984 . S
H703 N697 0.985 . S
H704 N701 0.984 . S
H705 N701 0.985 . S
H706 N700 0.984 . S
H707 N700 0.984 . S
H708 N696 0.984 . S
H709 N696 0.985 . S
C710 C711 1.363 . S
C710 C716 1.379 1_556 S
C710 N718 1.356 . S
C711 C710 1.363 . S
C711 C717 1.363 . S
C712 C713 1.363 . S
C712 C717 1.379 1_554 S
C712 N719 1.356 . S
C713 C712 1.363 . S
C713 C716 1.363 . S
N714 C716 1.356 . S
N714 H726 0.984 . S
N714 H727 0.985 . S
N715 C717 1.356 . S
N715 H720 0.984 . S
N715 H721 0.985 . S
C716 C710 1.379 1_554 S
C716 C713 1.363 . S
C716 N714 1.356 . S
C717 C711 1.363 . S
C717 C712 1.379 1_556 S
C717 N715 1.356 . S
N718 C710 1.356 . S
N718 H724 0.984 . S
N718 H725 0.984 . S
N719 C712 1.356 . S
N719 H722 0.984 . S
N719 H723 0.985 . S
H720 N715 0.984 . S
H721 N715 0.985 . S
H722 N719 0.984 . S
H723 N719 0.985 . S
H724 N718 0.984 . S
H725 N718 0.984 . S
H726 N714 0.984 . S
H727 N714 0.985 . S
C728 C729 1.363 . S
C728 C734 1.379 . S
C728 N736 1.356 . S
C729 C728 1.363 . S
C729 C735 1.363 . S
C730 C731 1.363 . S
C730 C735 1.379 . S
C730 N737 1.356 . S
C731 C730 1.363 . S
C731 C734 1.363 . S
N732 C734 1.356 . S
N732 H744 0.984 . S
N732 H745 0.985 . S
N733 C735 1.356 . S
N733 H738 0.984 . S
N733 H739 0.985 . S
C734 C728 1.379 . S
C734 C731 1.363 . S
C734 N732 1.356 . S
C735 C729 1.363 . S
C735 C730 1.379 . S
C735 N733 1.356 . S
N736 C728 1.356 . S
N736 H742 0.984 . S
N736 H743 0.984 . S
N737 C730 1.356 . S
N737 H740 0.984 . S
N737 H741 0.985 . S
H738 N733 0.984 . S
H739 N733 0.985 . S
H740 N737 0.984 . S
H741 N737 0.985 . S
H742 N736 0.984 . S
H743 N736 0.984 . S
H744 N732 0.984 . S
H745 N732 0.985 . S
C746 C747 1.363 . S
C746 C752 1.379 . S
C746 N754 1.356 . S
C747 C746 1.363 . S
C747 C753 1.363 . S
C748 C749 1.363 . S
C748 C753 1.379 . S
C748 N755 1.356 . S
C749 C748 1.363 . S
C749 C752 1.363 . S
N750 C752 1.356 . S
N750 H762 0.984 . S
N750 H763 0.985 . S
N751 C753 1.356 . S
N751 H756 0.984 . S
N751 H757 0.985 . S
C752 C746 1.379 . S
C752 C749 1.363 . S
C752 N750 1.356 . S
C753 C747 1.363 . S
C753 C748 1.379 . S
C753 N751 1.356 . S
N754 C746 1.356 . S
N754 H760 0.984 . S
N754 H761 0.984 . S
N755 C748 1.356 . S
N755 H758 0.984 . S
N755 H759 0.985 . S
H756 N751 0.984 . S
H757 N751 0.985 . S
H758 N755 0.984 . S
H759 N755 0.985 . S
H760 N754 0.984 . S
H761 N754 0.984 . S
H762 N750 0.984 . S
H763 N750 0.985 . S
C764 C765 1.363 . S
C764 C770 1.379 . S
C764 N772 1.356 . S
C765 C764 1.363 . S
C765 C771 1.363 . S
C766 C767 1.363 . S
C766 C771 1.379 . S
C766 N773 1.352 1_455 S
C767 C766 1.363 . S
C767 C770 1.363 . S
N768 C770 1.356 . S
N768 H780 0.984 . S
N768 H781 0.985 . S
N769 C771 1.352 1_655 S
N769 H774 0.983 1_655 S
N769 H775 0.991 . S
C770 C764 1.379 . S
C770 C767 1.363 . S
C770 N768 1.356 . S
C771 C765 1.363 . S
C771 C766 1.379 . S
C771 N769 1.352 1_455 S
N772 C764 1.356 . S
N772 H778 0.984 . S
N772 H779 0.984 . S
N773 C766 1.352 1_655 S
N773 H776 0.983 1_655 S
N773 H777 0.991 . S
H774 N769 0.983 1_455 S
H775 N769 0.991 . S
H776 N773 0.983 1_455 S
H777 N773 0.991 . S
H778 N772 0.984 . S
H779 N772 0.984 . S
H780 N768 0.984 . S
H781 N768 0.985 . S
C782 C783 1.363 1_545 S
C782 C788 1.379 . S
C782 N790 1.356 . S
C783 C782 1.363 1_565 S
C783 C789 1.363 . S
C784 C785 1.363 . S
C784 C789 1.379 . S
C784 N791 1.356 . S
C785 C784 1.363 . S
C785 C788 1.363 1_565 S
N786 C788 1.356 . S
N786 H798 0.984 . S
N786 H799 0.985 . S
N787 C789 1.356 . S
N787 H792 0.984 . S
N787 H793 0.985 . S
C788 C782 1.379 . S
C788 C785 1.363 1_545 S
C788 N786 1.356 . S
C789 C783 1.363 . S
C789 C784 1.379 . S
C789 N787 1.356 . S
N790 C782 1.356 . S
N790 H796 0.984 . S
N790 H797 0.984 . S
N791 C784 1.356 . S
N791 H794 0.984 . S
N791 H795 0.985 . S
H792 N787 0.984 . S
H793 N787 0.985 . S
H794 N791 0.984 . S
H795 N791 0.985 . S
H796 N790 0.984 . S
H797 N790 0.984 . S
H798 N786 0.984 . S
H799 N786 0.985 . S
C225 C11 1.759 . S
C227 C109 1.759 . S
C243 C25 1.759 . S
C245 C67 1.759 . S
C261 C81 1.759 . S
C263 C39 1.759 . S
C279 C53 1.759 . S
C281 C95 1.759 . S
C297 C123 1.759 . S
C299 C179 1.759 . S
C315 C137 1.759 . S
C317 C207 1.759 . S
C333 C165 1.759 . S
C335 C151 1.759 . S
C351 C221 1.759 . S
C353 C193 1.759 . S
C369 C9 1.653 . S
C371 C93 1.653 . S
C387 C103 1.355 . S
C389 C19 1.355 . S
C405 C37 1.653 . S
C407 C65 1.653 . S
C423 C75 1.355 . S
C425 C47 1.355 . S
C441 C0 1.076 . S
C443 C196 1.076 . S
C459 C163 1.653 . S
C461 C23 1.653 . S
C477 C182 1.076 . S
C479 C28 1.076 . S
C495 C177 1.653 . S
C497 C51 1.653 . S
C513 C140 1.076 . S
C515 C56 1.076 . S
C531 C79 1.653 . S
C533 C219 1.653 . S
C549 C84 1.076 . S
C551 C112 1.076 . S
C567 C107 1.653 . S
C569 C135 1.653 . S
C585 C5 1.355 . S
C587 C61 1.355 . S
C603 C117 1.355 . S
C605 C187 1.355 . S
C621 C168 1.076 . S
C623 C126 1.076 . S
C639 C201 1.355 . S
C641 C145 1.355 . S
C657 C98 1.076 . S
C659 C42 1.076 . S
C675 C33 1.355 . S
C677 C89 1.355 . S
C693 C154 1.076 . S
C695 C210 1.076 . S
C711 C191 1.653 . S
C713 C149 1.653 . S
C729 C215 1.355 . S
C731 C173 1.355 . S
C747 C205 1.653 . S
C749 C121 1.653 . S
C765 C159 1.355 . S
C767 C131 1.355 . S
C783 C14 1.076 . S
C785 C70 1.076 . S
