# Generated by pormake.
# Topology tfs, (6)-cn, num edge types: 1
# Building blocks:
#     Node 0, Type 0, BuildingBlock: FUNLAD_clean_sbu_0, # of connection points: 6
#     Node 1, Type 0, BuildingBlock: FUNLAD_clean_sbu_0, # of connection points: 6
#     Node 2, Type 0, BuildingBlock: FUNLAD_clean_sbu_0, # of connection points: 6
#     Node 3, Type 0, BuildingBlock: FUNLAD_clean_sbu_0, # of connection points: 6
#     Node 4, Type 0, BuildingBlock: FUNLAD_clean_sbu_0, # of connection points: 6
#     Node 5, Type 0, BuildingBlock: FUNLAD_clean_sbu_0, # of connection points: 6
#     Edge 6, Type (0, 0), BuildingBlock: TEMPAE_clean_linker_10, # of connection points: 2
#     Edge 7, Type (0, 0), BuildingBlock: TEMPAE_clean_linker_10, # of connection points: 2
#     Edge 8, Type (0, 0), BuildingBlock: TEMPAE_clean_linker_10, # of connection points: 2
#     Edge 9, Type (0, 0), BuildingBlock: TEMPAE_clean_linker_10, # of connection points: 2
#     Edge 10, Type (0, 0), BuildingBlock: TEMPAE_clean_linker_10, # of connection points: 2
#     Edge 11, Type (0, 0), BuildingBlock: TEMPAE_clean_linker_10, # of connection points: 2
#     Edge 12, Type (0, 0), BuildingBlock: TEMPAE_clean_linker_10, # of connection points: 2
#     Edge 13, Type (0, 0), BuildingBlock: TEMPAE_clean_linker_10, # of connection points: 2
#     Edge 14, Type (0, 0), BuildingBlock: TEMPAE_clean_linker_10, # of connection points: 2
#     Edge 15, Type (0, 0), BuildingBlock: TEMPAE_clean_linker_10, # of connection points: 2
#     Edge 16, Type (0, 0), BuildingBlock: TEMPAE_clean_linker_10, # of connection points: 2
#     Edge 17, Type (0, 0), BuildingBlock: TEMPAE_clean_linker_10, # of connection points: 2
#     Edge 18, Type (0, 0), BuildingBlock: TEMPAE_clean_linker_10, # of connection points: 2
#     Edge 19, Type (0, 0), BuildingBlock: TEMPAE_clean_linker_10, # of connection points: 2
#     Edge 20, Type (0, 0), BuildingBlock: TEMPAE_clean_linker_10, # of connection points: 2
#     Edge 21, Type (0, 0), BuildingBlock: TEMPAE_clean_linker_10, # of connection points: 2
#     Edge 22, Type (0, 0), BuildingBlock: TEMPAE_clean_linker_10, # of connection points: 2
#     Edge 23, Type (0, 0), BuildingBlock: TEMPAE_clean_linker_10, # of connection points: 2
# Relax obj value: 0.122
# Max RMSD: 0.155
# Mean RMSD: 0.154
data_MOF--net-tfs--node1-FUNLAD_clean_sbu_0--edge1-TEMPAE_clean_linker_10
_symmetry_space_group_name_H-M    P1
_symmetry_Int_Tables_number       1
_symmetry_cell_setting            triclinic
loop_
_symmetry_equiv_pos_as_xyz
'x, y, z'
_cell_length_a     41.32399
_cell_length_b     41.259255
_cell_length_c     21.968273
_cell_angle_alpha  90.550461
_cell_angle_beta   91.091084
_cell_angle_gamma 120.17649
loop_
_atom_site_label
_atom_site_type_symbol
_atom_site_fract_x
_atom_site_fract_y
_atom_site_fract_z
_atom_type_partial_charge
C0 C 0.12823 0.35659 0.03227 0.0
N1 N 0.20063 0.41067 0.1807 0.0
C2 C 0.17156 0.4099 0.21011 0.0
C3 C 0.17108 0.40999 0.27369 0.0
C4 C 0.20063 0.41055 0.30726 0.0
C5 C 0.2302 0.41126 0.27573 0.0
C6 C 0.22971 0.41147 0.21219 0.0
Zn7 Zn 0.20098 0.41056 0.08756 0.0
C8 C 0.21945 0.35564 0.03819 0.0
N9 N 0.20268 0.41072 0.89374 0.0
C10 C 0.17463 0.41196 0.86231 0.0
C11 C 0.23071 0.40947 0.86427 0.0
C12 C 0.23127 0.4095 0.80069 0.0
C13 C 0.20252 0.41052 0.76716 0.0
C14 C 0.17393 0.41172 0.79875 0.0
Zn15 Zn 0.20228 0.41071 0.98687 0.0
O16 O 0.14578 0.36594 0.08327 0.0
C17 C 0.1824 0.46506 0.03596 0.0
O18 O 0.14469 0.37271 0.98415 0.0
H19 H 0.25266 0.40834 0.8901 0.0
H20 H 0.14865 0.40912 0.18422 0.0
H21 H 0.15272 0.41316 0.88658 0.0
O22 O 0.18175 0.44917 0.08551 0.0
O23 O 0.19221 0.45584 0.98739 0.0
H24 H 0.25265 0.4123 0.18798 0.0
O25 O 0.26031 0.44885 0.99153 0.0
O26 O 0.25658 0.45529 0.09018 0.0
O27 O 0.21178 0.36552 0.98796 0.0
O28 O 0.21963 0.37188 0.08762 0.0
C29 C 0.27565 0.46464 0.04225 0.0
H30 H 0.14759 0.40909 0.29633 0.0
H31 H 0.2537 0.41213 0.29997 0.0
H32 H 0.25364 0.40821 0.77799 0.0
H33 H 0.15149 0.41296 0.77458 0.0
C34 C 0.85449 0.22522 0.05443 0.0
N35 N 0.78185 0.21089 0.90853 0.0
C36 C 0.81176 0.2386 0.87997 0.0
C37 C 0.81246 0.23941 0.81651 0.0
C38 C 0.78212 0.21139 0.78205 0.0
C39 C 0.75164 0.18307 0.81272 0.0
C40 C 0.75207 0.18339 0.87629 0.0
Zn41 Zn 0.78199 0.21099 1.00146 0.0
C42 C 0.75716 0.1369 0.05031 0.0
N43 N 0.78421 0.21331 0.19602 0.0
C44 C 0.81445 0.24036 0.22807 0.0
C45 C 0.75388 0.18631 0.22479 0.0
C46 C 0.75315 0.18587 0.28827 0.0
C47 C 0.78399 0.21338 0.32252 0.0
C48 C 0.81497 0.24086 0.29165 0.0
Zn49 Zn 0.78403 0.21307 0.10307 0.0
O50 O 0.83717 0.22126 1.00407 0.0
C51 C 0.80789 0.28742 0.0531 0.0
O52 O 0.83874 0.22349 0.10422 0.0
H53 H 0.7302 0.165 0.19845 0.0
H54 H 0.8352 0.26013 0.90647 0.0
H55 H 0.83821 0.26164 0.20428 0.0
O56 O 0.80099 0.26883 1.00343 0.0
O57 O 0.80383 0.27106 0.10342 0.0
H58 H 0.72852 0.16169 0.8999 0.0
O59 O 0.72878 0.20302 0.10058 0.0
O60 O 0.72672 0.19979 1.00044 0.0
O61 O 0.76418 0.15473 0.10083 0.0
O62 O 0.76242 0.154 1.00065 0.0
C63 C 0.71106 0.19811 0.05034 0.0
H64 H 0.8367 0.26149 0.79466 0.0
H65 H 0.72751 0.16117 0.78785 0.0
H66 H 0.7289 0.16393 0.31032 0.0
H67 H 0.83914 0.2628 0.31637 0.0
C68 C 0.62116 0.77021 0.03977 0.0
N69 N 0.55997 0.78155 0.17845 0.0
C70 C 0.56421 0.7551 0.20825 0.0
C71 C 0.56425 0.75437 0.27175 0.0
C72 C 0.55981 0.78108 0.30496 0.0
C73 C 0.55514 0.80783 0.27299 0.0
C74 C 0.55535 0.80759 0.20945 0.0
Zn75 Zn 0.56159 0.78264 0.08562 0.0
C76 C 0.6114 0.858 0.04129 0.0
N77 N 0.56493 0.78384 0.89146 0.0
C78 C 0.56706 0.7562 0.86074 0.0
C79 C 0.5632 0.81162 0.86139 0.0
C80 C 0.56328 0.81215 0.79785 0.0
C81 C 0.56513 0.7838 0.76492 0.0
C82 C 0.56719 0.75564 0.79722 0.0
Zn83 Zn 0.56325 0.78294 0.9843 0.0
O84 O 0.60802 0.77506 0.08852 0.0
C85 C 0.51312 0.70721 0.02916 0.0
O86 O 0.60697 0.77122 0.98858 0.0
H87 H 0.5614 0.83324 0.88671 0.0
H88 H 0.56773 0.73459 0.18272 0.0
H89 H 0.56848 0.73442 0.88555 0.0
O90 O 0.52527 0.72402 0.08038 0.0
O91 O 0.52395 0.72547 0.98041 0.0
H92 H 0.55216 0.82845 0.18488 0.0
O93 O 0.51865 0.79378 0.98138 0.0
O94 O 0.51536 0.79087 0.0812 0.0
O95 O 0.60275 0.84083 0.99001 0.0
O96 O 0.59725 0.84028 0.08948 0.0
C97 C 0.50326 0.7951 0.03008 0.0
H98 H 0.56746 0.73297 0.29459 0.0
H99 H 0.55205 0.82917 0.29685 0.0
H100 H 0.56123 0.83415 0.77476 0.0
H101 H 0.56913 0.73353 0.77366 0.0
C102 C 0.74769 0.62428 0.08645 0.0
N103 N 0.76658 0.57183 0.94005 0.0
C104 C 0.73759 0.57124 0.90863 0.0
C105 C 0.73695 0.57111 0.84507 0.0
C106 C 0.76649 0.57171 0.81354 0.0
C107 C 0.79616 0.57256 0.84716 0.0
C108 C 0.79561 0.57254 0.91065 0.0
Zn109 Zn 0.76635 0.57095 0.03297 0.0
C110 C 0.83953 0.62397 0.08793 0.0
N111 N 0.76523 0.56694 0.22729 0.0
C112 C 0.73677 0.56743 0.25659 0.0
C113 C 0.79358 0.56633 0.25878 0.0
C114 C 0.79408 0.56634 0.32236 0.0
C115 C 0.76521 0.56715 0.35379 0.0
C116 C 0.73623 0.56761 0.32008 0.0
Zn117 Zn 0.7655 0.56783 0.1344 0.0
O118 O 0.75224 0.61262 0.03553 0.0
C119 C 0.69173 0.5149 0.07848 0.0
O120 O 0.75072 0.60992 0.13554 0.0
H121 H 0.816 0.56607 0.23457 0.0
H122 H 0.71485 0.57081 0.93291 0.0
H123 H 0.71444 0.56779 0.23066 0.0
O124 O 0.7092 0.52914 0.03007 0.0
O125 O 0.70862 0.52585 0.12993 0.0
H126 H 0.81832 0.57287 0.9365 0.0
O127 O 0.77981 0.52582 0.13175 0.0
O128 O 0.78203 0.52944 0.03189 0.0
O129 O 0.823 0.60964 0.13704 0.0
O130 O 0.8221 0.61258 0.03712 0.0
C131 C 0.78566 0.51526 0.08078 0.0
H132 H 0.71375 0.57088 0.82087 0.0
H133 H 0.81927 0.57261 0.82461 0.0
H134 H 0.81715 0.56637 0.34665 0.0
H135 H 0.7132 0.56777 0.34253 0.0
C136 C 0.25641 0.78385 0.03581 0.0
N137 N 0.18155 0.7637 0.88993 0.0
C138 C 0.21124 0.79162 0.86123 0.0
C139 C 0.21181 0.79254 0.79784 0.0
C140 C 0.18157 0.76445 0.76337 0.0
C141 C 0.15151 0.7356 0.79407 0.0
C142 C 0.15204 0.73581 0.85775 0.0
Zn143 Zn 0.18205 0.76572 0.98304 0.0
C144 C 0.16053 0.69384 0.03891 0.0
N145 N 0.18612 0.77378 0.17751 0.0
C146 C 0.21615 0.80103 0.20966 0.0
C147 C 0.15578 0.74673 0.2062 0.0
C148 C 0.15484 0.74631 0.2696 0.0
C149 C 0.18546 0.77392 0.30404 0.0
C150 C 0.21644 0.80158 0.27332 0.0
Zn151 Zn 0.18572 0.77172 0.08447 0.0
O152 O 0.23838 0.77844 0.98573 0.0
C153 C 0.20823 0.84347 0.02814 0.0
O154 O 0.24091 0.78233 0.08584 0.0
H155 H 0.13229 0.72517 0.17984 0.0
H156 H 0.23451 0.81347 0.88755 0.0
H157 H 0.23996 0.82228 0.18592 0.0
O158 O 0.2003 0.82293 0.98059 0.0
O159 O 0.20468 0.82937 0.08042 0.0
H160 H 0.1287 0.71393 0.88149 0.0
O161 O 0.13084 0.76118 0.08183 0.0
O162 O 0.12591 0.7531 0.98229 0.0
O163 O 0.16717 0.71396 0.08676 0.0
O164 O 0.16408 0.70829 0.98692 0.0
C165 C 0.11171 0.75396 0.03262 0.0
H166 H 0.23581 0.81497 0.77603 0.0
H167 H 0.12751 0.71355 0.76917 0.0
H168 H 0.13062 0.72419 0.29143 0.0
H169 H 0.24049 0.82356 0.29821 0.0
C170 C 0.34515 0.20873 0.01418 0.0
N171 N 0.40311 0.19707 0.16206 0.0
C172 C 0.39928 0.22376 0.19257 0.0
C173 C 0.39922 0.22443 0.25613 0.0
C174 C 0.40296 0.19727 0.28857 0.0
C175 C 0.4067 0.16997 0.25588 0.0
C176 C 0.40679 0.17044 0.19237 0.0
Zn177 Zn 0.40381 0.19714 0.06909 0.0
C178 C 0.35641 0.1219 0.01526 0.0
N179 N 0.40608 0.19789 0.87479 0.0
C180 C 0.40263 0.22479 0.84493 0.0
C181 C 0.40966 0.17119 0.84383 0.0
C182 C 0.40979 0.17084 0.78026 0.0
C183 C 0.40596 0.19809 0.7483 0.0
C184 C 0.40238 0.22534 0.78143 0.0
Zn185 Zn 0.40538 0.19758 0.96772 0.0
O186 O 0.35694 0.20409 0.06527 0.0
C187 C 0.45359 0.27322 0.02224 0.0
O188 O 0.36112 0.20821 0.96575 0.0
H189 H 0.41222 0.14999 0.86847 0.0
H190 H 0.39629 0.2446 0.16758 0.0
H191 H 0.4 0.24587 0.87042 0.0
O192 O 0.43981 0.25586 0.071 0.0
O193 O 0.44432 0.25545 0.97151 0.0
H194 H 0.40997 0.14958 0.16726 0.0
O195 O 0.45027 0.18756 0.9712 0.0
O196 O 0.45042 0.1896 0.07133 0.0
O197 O 0.36644 0.13943 0.96566 0.0
O198 O 0.36867 0.13935 0.06584 0.0
C199 C 0.46423 0.18606 0.02232 0.0
H200 H 0.39587 0.24572 0.27961 0.0
H201 H 0.41009 0.1488 0.27918 0.0
H202 H 0.41226 0.14914 0.75636 0.0
H203 H 0.3998 0.24709 0.7585 0.0
C204 C 0.28962 0.208 0.05718 0.0
C205 C 0.31626 0.21927 1.01179 0.0
C206 C 0.26599 0.22308 0.0606 0.0
C207 C 0.27053 0.251 0.01921 0.0
C208 C 0.29579 0.26064 0.97101 0.0
C209 C 0.31797 0.24406 0.9673 0.0
C210 C 0.23801 0.21095 0.11074 0.0
C211 C 0.30201 0.29095 0.92677 0.0
C212 C 0.20947 0.2942 1.00209 0.0
C213 C 0.22952 0.32652 0.03876 0.0
C214 C 0.22069 0.26739 0.99911 0.0
C215 C 0.25359 0.27436 0.03128 0.0
C216 C 0.27316 0.3065 0.06993 0.0
C217 C 0.26032 0.33192 0.07411 0.0
C218 C 0.19828 0.23254 0.95977 0.0
C219 C 0.30899 0.31536 0.10371 0.0
H220 H 0.28804 0.18831 0.091 0.0
H221 H 0.33867 0.25271 0.93222 0.0
H222 H 0.24918 0.23242 0.14804 0.0
H223 H 0.21126 0.20821 0.09376 0.0
H224 H 0.23223 0.1838 0.12999 0.0
H225 H 0.32091 0.29326 0.88967 0.0
H226 H 0.27502 0.28547 0.90601 0.0
H227 H 0.3146 0.31838 0.9515 0.0
H228 H 0.18521 0.29005 0.9756 0.0
H229 H 0.27561 0.35711 0.10234 0.0
H230 H 0.19542 0.20752 0.98306 0.0
H231 H 0.21297 0.23535 0.91673 0.0
H232 H 0.16989 0.22775 0.94817 0.0
H233 H 0.30428 0.29168 0.13286 0.0
H234 H 0.32019 0.34111 0.13286 0.0
H235 H 0.33059 0.31937 0.07058 0.0
C236 C 0.07372 0.29772 0.06639 0.0
C237 C 0.08831 0.32926 0.0297 0.0
C238 C 0.03501 0.27346 0.06857 0.0
C239 C 0.01087 0.28229 0.0355 0.0
C240 C 0.0257 0.31344 0.99664 0.0
C241 C 0.06447 0.33622 0.99334 0.0
C242 C 0.02 0.23949 0.10825 0.0
C243 C 0.00077 0.32433 0.96198 0.0
C244 C 0.90685 0.22099 1.00937 0.0
C245 C 0.89367 0.23497 0.05496 0.0
C246 C 0.94515 0.23376 1.00564 0.0
C247 C 0.97045 0.26218 0.04684 0.0
C248 C 0.95698 0.27505 0.09467 0.0
C249 C 0.9185 0.26068 0.09876 0.0
C250 C 0.95862 0.21831 0.95586 0.0
C251 C -0.01677 0.30608 0.13854 0.0
H252 H 0.09255 0.29233 0.0938 0.0
H253 H 0.07612 0.36084 0.96523 0.0
H254 H 0.00912 0.24485 0.15063 0.0
H255 H -0.00356 0.21472 0.08463 0.0
H256 H 0.04201 0.23267 0.12105 0.0
H257 H 0.01688 0.34869 0.93233 0.0
H258 H 0.97985 0.30044 0.93322 0.0
H259 H -0.01489 0.33164 0.9946 0.0
H260 H 0.88729 0.20062 0.97611 0.0
H261 H 0.90803 0.27141 0.13388 0.0
H262 H 0.98107 0.21336 0.97356 0.0
H263 H 0.97056 0.23893 0.91899 0.0
H264 H 0.9355 0.19164 0.93585 0.0
H265 H 0.00326 0.29905 0.1604 0.0
H266 H 0.96805 0.31148 0.17481 0.0
H267 H -0.00015 0.33236 0.11329 0.0
C268 C 0.7507 0.07809 0.09136 0.0
C269 C 0.74004 0.09616 0.04875 0.0
C270 C 0.73336 0.0389 0.09049 0.0
C271 C 0.70387 0.01782 0.04762 0.0
C272 C 0.69315 0.03614 1.0045 0.0
C273 C 0.71191 0.07525 1.00492 0.0
C274 C 0.74619 0.02008 0.13569 0.0
C275 C 0.66093 0.0145 0.95949 0.0
C276 C 0.66742 0.91587 1.00757 0.0
C277 C 0.6365 0.89853 0.04503 0.0
C278 C 0.6911 0.95483 1.01045 0.0
C279 C 0.68244 0.97657 0.04988 0.0
C280 C 0.6513 0.95899 0.08809 0.0
C281 C 0.62902 0.91996 0.08595 0.0
C282 C 0.72484 0.97276 0.97061 0.0
C283 C 0.64049 0.98143 0.12912 0.0
H284 H 0.77274 0.0946 0.12485 0.0
H285 H 0.70359 0.08951 0.97241 0.0
H286 H 0.7237 0.00401 0.16824 0.0
H287 H 0.752 -0.00019 0.11176 0.0
H288 H 0.77178 0.0406 0.16191 0.0
H289 H 0.65624 0.03321 0.9291 0.0
H290 H 0.66621 -0.00456 0.93089 0.0
H291 H 0.63483 -0.00319 0.98433 0.0
H292 H 0.67322 0.89895 0.97651 0.0
H293 H 0.60484 0.90624 0.11459 0.0
H294 H 0.7502 -0.00759 0.99807 0.0
H295 H 0.72074 0.98933 0.93501 0.0
H296 H 0.72995 0.95163 0.94787 0.0
H297 H 0.66423 2e-05 0.16034 0.0
H298 H 0.61584 0.96326 0.15681 0.0
H299 H 0.63377 -0.00034 0.10117 0.0
C300 C 0.70688 0.64809 0.12078 0.0
C301 C 0.73766 0.65343 0.08783 0.0
C302 C 0.69321 0.67279 0.11468 0.0
C303 C 0.71188 0.7041 0.07657 0.0
C304 C 0.74494 0.71122 0.04737 0.0
C305 C 0.757 0.68515 0.05221 0.0
C306 C 0.65727 0.66379 0.14526 0.0
C307 C 0.76643 0.74522 1.00867 0.0
C308 C 0.64735 0.7321 1.00124 0.0
C309 C 0.64938 0.7588 0.04317 0.0
C310 C 0.66891 0.7151 1.01029 0.0
C311 C 0.69393 0.72623 0.06131 0.0
C312 C 0.69845 0.75558 0.10076 0.0
C313 C 0.67541 0.77107 0.09193 0.0
C314 C 0.66273 0.68326 0.96796 0.0
C315 C 0.72612 0.76923 0.15395 0.0
H316 H 0.69209 0.62329 0.14808 0.0
H317 H 0.78117 0.68919 0.02743 0.0
H318 H 0.66116 0.68825 0.17265 0.0
H319 H 0.63512 0.65748 0.11008 0.0
H320 H 0.64727 0.63933 0.17549 0.0
H321 H 0.79491 0.75034 0.99906 0.0
H322 H 0.75115 0.74108 0.96461 0.0
H323 H 0.76903 0.77059 0.03143 0.0
H324 H 0.62697 0.72256 0.96375 0.0
H325 H 0.67708 0.79207 0.12394 0.0
H326 H 0.65095 0.65684 0.99364 0.0
H327 H 0.68967 0.68856 0.94942 0.0
H328 H 0.64322 0.67908 0.92923 0.0
H329 H 0.71508 0.74848 0.19077 0.0
H330 H 0.7313 0.79659 0.17266 0.0
H331 H 0.75317 0.77217 0.14029 0.0
C332 C 0.06123 0.76017 0.08022 0.0
C333 C 0.07238 0.74365 0.03554 0.0
C334 C 0.02325 0.74669 0.08997 0.0
C335 C -0.0038 0.71519 0.05563 0.0
C336 C 0.00739 0.69946 1.00862 0.0
C337 C 0.04555 0.71438 0.99846 0.0
C338 C 0.01218 0.76499 0.13877 0.0
C339 C 0.97923 0.66537 0.97181 0.0
C340 C 0.90441 0.64629 0.12447 0.0
C341 C 0.87941 0.65173 0.08842 0.0
C342 C 0.94299 0.66803 0.11603 0.0
C343 C 0.95644 0.69644 0.07195 0.0
C344 C 0.93131 0.70406 0.03927 0.0
C345 C 0.89284 0.68101 0.04708 0.0
C346 C 0.96902 0.65868 0.15086 0.0
C347 C 0.94484 0.73508 0.9937 0.0
H348 H 0.08226 0.7831 0.10846 0.0
H349 H 0.05442 0.70157 0.96425 0.0
H350 H -0.01085 0.76925 0.12181 0.0
H351 H 0.00173 0.74644 0.17853 0.0
H352 H 0.0361 0.79247 0.15447 0.0
H353 H -0.00745 0.65744 0.93563 0.0
H354 H 0.96441 0.64123 1.00235 0.0
H355 H 0.95784 0.67055 0.9502 0.0
H356 H 0.89369 0.62333 0.15603 0.0
H357 H 0.87318 0.68517 0.01965 0.0
H358 H -0.00796 0.68419 0.17365 0.0
H359 H 0.98196 0.64787 0.11871 0.0
H360 H 0.95425 0.63722 0.18583 0.0
H361 H 0.96931 0.76109 0.01265 0.0
H362 H 0.92255 0.74134 0.9801 0.0
H363 H 0.95401 0.72673 0.95223 0.0
C364 C 0.21692 0.90481 0.06346 0.0
C365 C 0.22476 0.88394 0.02197 0.0
C366 C 0.23466 0.94389 0.05948 0.0
C367 C 0.26182 0.96214 0.01462 0.0
C368 C 0.26925 0.94096 0.97199 0.0
C369 C 0.25004 0.90193 0.97556 0.0
C370 C 0.22521 0.96568 0.10427 0.0
C371 C 0.29902 0.95956 0.92497 0.0
C372 C 0.29995 0.06401 0.97655 0.0
C373 C 0.33187 0.0813 0.01475 0.0
C374 C 0.27587 0.02511 0.97757 0.0
C375 C 0.28514 0.00339 0.01583 0.0
C376 C 0.31776 0.0209 0.05383 0.0
C377 C 0.34039 0.05988 0.05367 0.0
C378 C 0.24059 0.0073 0.93813 0.0
C379 C 0.32922 -0.00153 0.09359 0.0
H380 H 0.19702 0.89058 0.09894 0.0
H381 H 0.25619 0.88555 0.94385 0.0
H382 H 0.24914 0.98161 0.13677 0.0
H383 H 0.22021 0.98633 0.08012 0.0
H384 H 0.20006 0.94707 0.13062 0.0
H385 H 0.30015 0.93888 0.8936 0.0
H386 H 0.29394 0.97907 0.89758 0.0
H387 H 0.32683 0.9764 0.9482 0.0
H388 H 0.29343 0.08101 0.94705 0.0
H389 H 0.36536 0.07361 0.08287 0.0
H390 H 0.21593 -0.00977 0.96644 0.0
H391 H 0.24172 0.98806 0.90376 0.0
H392 H 0.23633 0.02846 0.91403 0.0
H393 H 0.30721 0.98241 0.12685 0.0
H394 H 0.35604 0.0165 0.11907 0.0
H395 H 0.33235 0.97787 0.06518 0.0
C396 C 0.1717 0.64745 0.09134 0.0
C397 C 0.15409 0.6556 0.04374 0.0
C398 C 0.17198 0.6137 0.09129 0.0
C399 C 0.15306 0.58707 0.04352 0.0
C400 C 0.13274 0.59396 0.99791 0.0
C401 C 0.13412 0.62862 0.99786 0.0
C402 C 0.1949 0.60787 0.13975 0.0
C403 C 0.11113 0.56556 0.94758 0.0
C404 C 0.19459 0.52691 1.00106 0.0
C405 C 0.17318 0.49498 0.03521 0.0
C406 C 0.18797 0.55698 1.00286 0.0
C407 C 0.15827 0.55422 0.03783 0.0
C408 C 0.13545 0.52122 0.0702 0.0
C409 C 0.14372 0.49216 0.06954 0.0
C410 C 0.21368 0.59222 0.96929 0.0
C411 C 0.10274 0.51685 0.10607 0.0
H412 H 0.18746 0.66852 0.12653 0.0
H413 H 0.1203 0.63494 0.96129 0.0
H414 H 0.17789 0.58042 0.16154 0.0
H415 H 0.2189 0.60756 0.11848 0.0
H416 H 0.206 0.63027 0.1757 0.0
H417 H 0.09204 0.57249 0.92193 0.0
H418 H 0.13094 0.56467 0.91518 0.0
H419 H 0.0944 0.53709 0.96638 0.0
H420 H 0.21751 0.52896 0.97487 0.0
H421 H 0.12699 0.46711 0.09537 0.0
H422 H 0.22772 0.61631 1.00201 0.0
H423 H 0.1973 0.59874 0.93613 0.0
H424 H 0.23553 0.58975 0.94443 0.0
H425 H 0.11306 0.53674 0.1456 0.0
H426 H 0.08545 0.48797 0.12317 0.0
H427 H 0.08468 0.52372 0.0774 0.0
C428 C 0.52661 0.20336 0.98424 0.0
C429 C 0.49798 0.18305 0.02482 0.0
C430 C 0.56062 0.20385 0.98947 0.0
C431 C 0.56529 0.18236 0.03494 0.0
C432 C 0.53577 0.16052 0.07443 0.0
C433 C 0.50257 0.16175 0.06967 0.0
C434 C 0.59198 0.22844 0.9479 0.0
C435 C 0.53947 0.13633 0.12203 0.0
C436 C 0.64582 0.16549 1.00933 0.0
C437 C 0.67306 0.192 0.04969 0.0
C438 C 0.6098 0.16068 1.00622 0.0
C439 C 0.60171 0.1841 0.04255 0.0
C440 C 0.62921 0.21078 0.08371 0.0
C441 C 0.6645 0.21389 0.08762 0.0
C442 C 0.58069 0.13111 0.9634 0.0
C443 C 0.62193 0.23709 0.1216 0.0
H444 H 0.52297 0.22016 0.9501 0.0
H445 H 0.48012 0.14596 0.10076 0.0
H446 H 0.61664 0.24938 0.97544 0.0
H447 H 0.6009 0.21131 0.9217 0.0
H448 H 0.58374 0.2436 0.91527 0.0
H449 H 0.51277 0.11863 0.14546 0.0
H450 H 0.54859 0.11783 0.10078 0.0
H451 H 0.56122 0.15427 0.15669 0.0
H452 H 0.6527 0.14846 0.98045 0.0
H453 H 0.68595 0.23459 0.11837 0.0
H454 H 0.57383 0.14469 0.92598 0.0
H455 H 0.55445 0.11335 0.98783 0.0
H456 H 0.59038 0.11281 0.94309 0.0
H457 H 0.61545 0.25455 0.09125 0.0
H458 H 0.64627 0.25597 0.15175 0.0
H459 H 0.59723 0.22091 0.1502 0.0
C460 C 0.45451 0.65566 0.98298 0.0
C461 C 0.48359 0.6677 0.02661 0.0
C462 C 0.42297 0.61982 0.98534 0.0
C463 C 0.42131 0.59516 0.03113 0.0
C464 C 0.45195 0.60626 0.07247 0.0
C465 C 0.48253 0.64287 0.07055 0.0
C466 C 0.39038 0.60941 0.94156 0.0
C467 C 0.4517 0.58012 0.1203 0.0
C468 C 0.32379 0.52712 0.08214 0.0
C469 C 0.31432 0.49592 0.04449 0.0
C470 C 0.35907 0.55937 0.07941 0.0
C471 C 0.38582 0.55968 0.03969 0.0
C472 C 0.37715 0.52728 1.00448 0.0
C473 C 0.34104 0.4959 1.0063 0.0
C474 C 0.36689 0.59378 0.11631 0.0
C475 C 0.40552 0.5262 0.9635 0.0
H476 H 0.45535 0.67512 0.94933 0.0
H477 H 0.50534 0.65228 0.10391 0.0
H478 H 0.38213 0.5825 0.91757 0.0
H479 H 0.36583 0.60548 0.96726 0.0
H480 H 0.3969 0.63121 0.90703 0.0
H481 H 0.47989 0.59065 0.14178 0.0
H482 H 0.43206 0.57711 0.15645 0.0
H483 H 0.44182 0.5518 0.10013 0.0
H484 H 0.30286 0.52706 0.11127 0.0
H485 H 0.33359 0.47147 0.97763 0.0
H486 H 0.37206 0.61687 0.08524 0.0
H487 H 0.39246 0.60359 0.14542 0.0
H488 H 0.34329 0.58852 0.1459 0.0
H489 H 0.40991 0.54414 0.92368 0.0
H490 H 0.39633 0.49731 0.94657 0.0
H491 H 0.43293 0.53748 0.98804 0.0
C492 C 0.82683 0.49106 0.04806 0.0
C493 C 0.79498 0.48553 0.07815 0.0
C494 C 0.83542 0.46227 0.04435 0.0
C495 C 0.81054 0.42694 0.06894 0.0
C496 C 0.77828 0.42144 0.0994 0.0
C497 C 0.77132 0.45119 0.10471 0.0
C498 C 0.87076 0.46949 0.01371 0.0
C499 C 0.75043 0.38379 0.12448 0.0
C500 C 0.80139 0.33772 1.00381 0.0
C501 C 0.81533 0.32621 0.05249 0.0
C502 C 0.80133 0.37156 1.0073 0.0
C503 C 0.81663 0.39483 0.05999 0.0
C504 C 0.83366 0.38484 0.107 0.0
C505 C 0.83225 0.35022 0.10315 0.0
C506 C 0.78212 0.3808 0.95685 0.0
C507 C 0.85142 0.40967 0.16284 0.0
H508 H 0.84514 0.51799 0.02809 0.0
H509 H 0.74659 0.44722 0.1276 0.0
H510 H 0.88696 0.46091 0.04363 0.0
H511 H 0.86356 0.45242 0.97103 0.0
H512 H 0.88887 0.49948 1.00247 0.0
H513 H 0.72653 0.38419 0.14608 0.0
H514 H 0.73925 0.3622 0.0873 0.0
H515 H 0.7644 0.37506 0.15879 0.0
H516 H 0.78813 0.31909 0.96469 0.0
H517 H 0.84337 0.34144 0.14057 0.0
H518 H 0.80037 0.40985 0.94149 0.0
H519 H 0.75624 0.37905 0.97418 0.0
H520 H 0.77437 0.36133 0.91691 0.0
H521 H 0.86912 0.43937 0.14987 0.0
H522 H 0.86886 0.40115 0.18974 0.0
H523 H 0.82923 0.40806 0.19244 0.0
C524 C 0.32026 0.81379 0.99422 0.0
C525 C 0.29438 0.78972 0.03592 0.0
C526 C 0.35628 0.81854 0.99277 0.0
C527 C 0.3657 0.7974 0.03215 0.0
C528 C 0.33943 0.77292 0.0742 0.0
C529 C 0.30423 0.76997 0.07639 0.0
C530 C 0.38409 0.84587 0.94894 0.0
C531 C 0.34801 0.74892 0.11537 0.0
C532 C 0.44084 0.77625 0.98519 0.0
C533 C 0.46972 0.7985 0.02708 0.0
C534 C 0.40681 0.77592 0.9859 0.0
C535 C 0.40242 0.79956 0.02793 0.0
C536 C 0.43234 0.82351 0.06829 0.0
C537 C 0.4655 0.82205 0.06831 0.0
C538 C 0.37505 0.74899 0.94374 0.0
C539 C 0.42906 0.85004 0.11215 0.0
H540 H 0.31239 0.82915 0.96326 0.0
H541 H 0.28382 0.75106 0.10809 0.0
H542 H 0.4107 0.86551 0.97358 0.0
H543 H 0.39068 0.83053 0.91419 0.0
H544 H 0.37337 0.8624 0.92523 0.0
H545 H 0.3242 0.7309 0.14471 0.0
H546 H 0.35482 0.73065 0.08753 0.0
H547 H 0.37288 0.76687 0.14503 0.0
H548 H 0.44424 0.75775 0.95389 0.0
H549 H 0.48815 0.83933 0.10043 0.0
H550 H 0.36511 0.76441 0.91513 0.0
H551 H 0.35107 0.72893 0.97095 0.0
H552 H 0.38329 0.73283 0.91338 0.0
H553 H 0.41879 0.8667 0.08771 0.0
H554 H 0.45621 0.8696 0.13558 0.0
H555 H 0.40836 0.83386 0.14715 0.0
C556 C 0.64248 0.45219 0.11019 0.0
C557 C 0.65305 0.48363 0.0744 0.0
C558 C 0.60735 0.41993 0.10133 0.0
C559 C 0.58182 0.41987 0.05729 0.0
C560 C 0.59158 0.45253 0.02381 0.0
C561 C 0.62756 0.48386 0.03179 0.0
C562 C 0.59846 0.38526 0.13654 0.0
C563 C 0.56451 0.45394 0.97831 0.0
C564 C 0.5141 0.32475 0.98738 0.0
C565 C 0.48357 0.31263 0.02552 0.0
C566 C 0.54594 0.3602 0.99611 0.0
C567 C 0.54652 0.38449 0.04266 0.0
C568 C 0.51464 0.37332 0.07848 0.0
C569 C 0.48372 0.33706 0.07034 0.0
C570 C 0.5798 0.37061 0.95818 0.0
C571 C 0.51375 0.39907 0.12686 0.0
H572 H 0.66252 0.4521 0.1427 0.0
H573 H 0.63589 0.50846 1.0045 0.0
H574 H 0.57207 0.37523 0.16126 0.0
H575 H 0.59425 0.36241 0.10447 0.0
H576 H 0.62111 0.39029 0.16997 0.0
H577 H 0.5743 0.48292 0.96288 0.0
H578 H 0.56109 0.43608 0.93788 0.0
H579 H 0.53651 0.44275 0.99837 0.0
H580 H 0.51404 0.30559 0.95315 0.0
H581 H 0.45989 0.3276 0.09955 0.0
H582 H 0.6034 0.37425 0.98809 0.0
H583 H 0.58895 0.39769 0.93567 0.0
H584 H 0.57427 0.34898 0.92261 0.0
H585 H 0.53232 0.4016 0.16595 0.0
H586 H 0.48507 0.38853 0.14382 0.0
H587 H 0.52434 0.42761 0.10886 0.0
C588 C 0.1692 0.38688 0.66607 0.0
C589 C 0.2023 0.41032 0.69959 0.0
C590 C 0.16851 0.38646 0.60217 0.0
C591 C 0.20166 0.4103 0.57107 0.0
C592 C 0.23515 0.4341 0.60467 0.0
C593 C 0.23511 0.43369 0.66856 0.0
C594 C 0.13236 0.3604 0.56793 0.0
C595 C 0.27096 0.46017 0.57312 0.0
C596 C 0.20966 0.38649 0.4066 0.0
C597 C 0.20065 0.41035 0.37481 0.0
C598 C 0.20992 0.38606 0.47047 0.0
C599 C 0.20129 0.41031 0.50333 0.0
C600 C 0.19227 0.43454 0.47149 0.0
C601 C 0.19188 0.43413 0.40757 0.0
C602 C 0.21927 0.35953 0.50279 0.0
C603 C 0.18327 0.46106 0.50496 0.0
H604 H 0.14389 0.36846 0.68992 0.0
H605 H 0.26065 0.45214 0.69433 0.0
H606 H 0.12398 0.3768 0.53852 0.0
H607 H 0.13639 0.34111 0.53765 0.0
H608 H 0.10913 0.34342 0.59893 0.0
H609 H 0.29454 0.47706 0.60588 0.0
H610 H 0.27897 0.4438 0.54293 0.0
H611 H 0.26664 0.47955 0.54393 0.0
H612 H 0.21604 0.36776 0.38139 0.0
H613 H 0.18531 0.4529 0.38315 0.0
H614 H 0.19571 0.34051 0.53165 0.0
H615 H 0.24419 0.37559 0.5334 0.0
H616 H 0.22505 0.34227 0.47053 0.0
H617 H 0.15872 0.44501 0.53395 0.0
H618 H 0.17708 0.47827 0.47345 0.0
H619 H 0.20719 0.48013 0.53558 0.0
C620 C 0.79442 0.24538 0.68372 0.0
C621 C 0.78229 0.21173 0.7145 0.0
C622 C 0.79485 0.24615 0.6199 0.0
C623 C 0.78294 0.21247 0.58609 0.0
C624 C 0.77068 0.17841 0.61687 0.0
C625 C 0.77045 0.17844 0.68072 0.0
C626 C 0.80792 0.28297 0.58865 0.0
C627 C 0.75796 0.14197 0.58234 0.0
C628 C 0.75185 0.20723 0.4208 0.0
C629 C 0.78382 0.21337 0.39006 0.0
C630 C 0.75121 0.20698 0.48462 0.0
C631 C 0.78328 0.21286 0.51846 0.0
C632 C 0.81565 0.21908 0.48772 0.0
C633 C 0.81556 0.21934 0.42385 0.0
C634 C 0.71627 0.20052 0.51584 0.0
C635 C 0.8503 0.22524 0.5223 0.0
H636 H 0.80314 0.2711 0.70958 0.0
H637 H 0.7615 0.15245 0.70432 0.0
H638 H 0.83216 0.28943 0.55995 0.0
H639 H 0.78528 0.28094 0.55801 0.0
H640 H 0.81628 0.30665 0.62157 0.0
H641 H 0.74925 0.11792 0.61311 0.0
H642 H 0.73404 0.13587 0.55114 0.0
H643 H 0.78091 0.14435 0.55386 0.0
H644 H 0.72742 0.20308 0.39488 0.0
H645 H 0.84018 0.22365 0.40027 0.0
H646 H 0.72292 0.22473 0.54649 0.0
H647 H 0.70548 0.17537 0.54453 0.0
H648 H 0.69376 0.19652 0.4829 0.0
H649 H 0.86071 0.24999 0.55347 0.0
H650 H 0.87317 0.22973 0.49154 0.0
H651 H 0.84342 0.20066 0.55081 0.0
C652 C 0.58544 0.81667 0.66561 0.0
C653 C 0.56451 0.78336 0.69729 0.0
C654 C 0.58491 0.81666 0.60172 0.0
C655 C 0.56291 0.78251 0.56875 0.0
C656 C 0.54174 0.74878 0.60041 0.0
C657 C 0.54279 0.74962 0.6643 0.0
C658 C 0.60796 0.85316 0.5695 0.0
C659 C 0.51786 0.71184 0.56679 0.0
C660 C 0.53465 0.78685 0.40487 0.0
C661 C 0.56045 0.78126 0.37256 0.0
C662 C 0.5351 0.78728 0.46876 0.0
C663 C 0.56204 0.78206 0.50107 0.0
C664 C 0.58816 0.77639 0.46874 0.0
C665 C 0.58704 0.77605 0.40486 0.0
C666 C 0.50669 0.79323 0.5017 0.0
C667 C 0.61739 0.77086 0.50164 0.0
H668 H 0.60264 0.84276 0.69083 0.0
H669 H 0.52614 0.72387 0.6885 0.0
H670 H 0.62838 0.85114 0.53996 0.0
H671 H 0.58954 0.85886 0.53956 0.0
H672 H 0.6235 0.87729 0.60182 0.0
H673 H 0.50319 0.68812 0.5982 0.0
H674 H 0.49664 0.71345 0.53731 0.0
H675 H 0.5355 0.70578 0.53665 0.0
H676 H 0.51375 0.79044 0.38013 0.0
H677 H 0.60737 0.77223 0.38014 0.0
H678 H 0.52121 0.81841 0.53213 0.0
H679 H 0.48959 0.76893 0.5308 0.0
H680 H 0.48763 0.79691 0.46984 0.0
H681 H 0.6353 0.79559 0.53157 0.0
H682 H 0.63558 0.76667 0.46975 0.0
H683 H 0.60363 0.74614 0.53125 0.0
C684 C 0.73336 0.54702 0.71252 0.0
C685 C 0.76626 0.57119 0.74596 0.0
C686 C 0.73282 0.546 0.64864 0.0
C687 C 0.76595 0.5698 0.61749 0.0
C688 C 0.79923 0.59433 0.65096 0.0
C689 C 0.79899 0.59469 0.71481 0.0
C690 C 0.69685 0.51934 0.61448 0.0
C691 C 0.83504 0.62027 0.6193 0.0
C692 C 0.77438 0.54429 0.45433 0.0
C693 C 0.76541 0.56779 0.42136 0.0
C694 C 0.77461 0.5446 0.51822 0.0
C695 C 0.76577 0.5691 0.54983 0.0
C696 C 0.75678 0.59295 0.51683 0.0
C697 C 0.75665 0.59197 0.45297 0.0
C698 C 0.78414 0.51862 0.55189 0.0
C699 C 0.74742 0.61961 0.54898 0.0
H700 H 0.70812 0.52846 0.73638 0.0
H701 H 0.82437 0.61374 0.74044 0.0
H702 H 0.68844 0.53522 0.58386 0.0
H703 H 0.70114 0.49975 0.58542 0.0
H704 H 0.67353 0.50269 0.64552 0.0
H705 H 0.85851 0.63762 0.65199 0.0
H706 H 0.84331 0.60373 0.58999 0.0
H707 H 0.83061 0.63922 0.58922 0.0
H708 H 0.78074 0.52525 0.43009 0.0
H709 H 0.75019 0.61054 0.42772 0.0
H710 H 0.76049 0.49966 0.58065 0.0
H711 H 0.80884 0.53512 0.58274 0.0
H712 H 0.79035 0.50128 0.52052 0.0
H713 H 0.72287 0.60372 0.57805 0.0
H714 H 0.74105 0.63631 0.51661 0.0
H715 H 0.77123 0.63916 0.57936 0.0
C716 C 0.15271 0.76625 0.4022 0.0
C717 C 0.18508 0.77343 0.37161 0.0
C718 C 0.15153 0.76468 0.46594 0.0
C719 C 0.18347 0.77033 0.49991 0.0
C720 C 0.21631 0.77778 0.46936 0.0
C721 C 0.21674 0.77932 0.40555 0.0
C722 C 0.11611 0.75695 0.49692 0.0
C723 C 0.25088 0.78384 0.50406 0.0
C724 C 0.19303 0.79973 0.66657 0.0
C725 C 0.18142 0.76567 0.69582 0.0
C726 C 0.19374 0.80162 0.60286 0.0
C727 C 0.18259 0.76865 0.56749 0.0
C728 C 0.17063 0.73413 0.59666 0.0
C729 C 0.17012 0.73303 0.66052 0.0
C730 C 0.20641 0.8389 0.5734 0.0
C731 C 0.15866 0.69841 0.56041 0.0
H732 H 0.12832 0.76215 0.37622 0.0
H733 H 0.24166 0.78442 0.3821 0.0
H734 H 0.10542 0.73122 0.52415 0.0
H735 H 0.1221 0.7804 0.52889 0.0
H736 H 0.09374 0.75325 0.46389 0.0
H737 H 0.27415 0.78942 0.47348 0.0
H738 H 0.26063 0.80788 0.53661 0.0
H739 H 0.24415 0.75875 0.5311 0.0
H740 H 0.20126 0.82494 0.69359 0.0
H741 H 0.16149 0.70672 0.68289 0.0
H742 H 0.18386 0.83695 0.54265 0.0
H743 H 0.23106 0.84637 0.54511 0.0
H744 H 0.21404 0.86188 0.60742 0.0
H745 H 0.13496 0.69258 0.52889 0.0
H746 H 0.14994 0.67384 0.59 0.0
H747 H 0.18203 0.70165 0.53214 0.0
C748 C 0.43163 0.19287 0.64867 0.0
C749 C 0.4055 0.19802 0.68076 0.0
C750 C 0.43158 0.19289 0.58479 0.0
C751 C 0.40456 0.19793 0.5523 0.0
C752 C 0.37802 0.20301 0.58445 0.0
C753 C 0.37888 0.20311 0.64832 0.0
C754 C 0.46051 0.18768 0.55207 0.0
C755 C 0.3486 0.20816 0.55136 0.0
C756 C 0.42405 0.23122 0.38947 0.0
C757 C 0.40315 0.19749 0.35613 0.0
C758 C 0.4248 0.23177 0.45337 0.0
C759 C 0.40401 0.1978 0.48462 0.0
C760 C 0.38272 0.16368 0.45122 0.0
C761 C 0.38262 0.16393 0.38736 0.0
C762 C 0.44803 0.26866 0.48745 0.0
C763 C 0.35997 0.12694 0.48296 0.0
H764 H 0.45251 0.18935 0.67361 0.0
H765 H 0.35835 0.20665 0.67297 0.0
H766 H 0.44647 0.16258 0.5214 0.0
H767 H 0.4774 0.21219 0.52322 0.0
H768 H 0.47971 0.18432 0.58406 0.0
H769 H 0.32995 0.21171 0.58312 0.0
H770 H 0.36219 0.23314 0.52225 0.0
H771 H 0.33119 0.18354 0.5209 0.0
H772 H 0.44032 0.25716 0.36553 0.0
H773 H 0.36607 0.13786 0.36177 0.0
H774 H 0.46931 0.26733 0.5172 0.0
H775 H 0.42995 0.27421 0.51738 0.0
H776 H 0.46258 0.29257 0.45634 0.0
H777 H 0.37853 0.12142 0.51284 0.0
H778 H 0.34477 0.10292 0.45033 0.0
H779 H 0.33927 0.12847 0.51249 0.0
loop_
_geom_bond_atom_site_label_1
_geom_bond_atom_site_label_2
_geom_bond_distance
_geom_bond_site_symmetry_2
_ccdc_geom_bond_type
C0 O16 1.251 . S
C0 O18 1.254 1_554 S
N1 C2 1.333 . S
N1 C6 1.307 . S
N1 Zn7 2.020 . S
C2 N1 1.333 . S
C2 C3 1.379 . S
C2 H20 0.952 . S
C3 C2 1.379 . S
C3 C4 1.390 . S
C3 H30 0.949 . S
C4 C3 1.390 . S
C4 C5 1.357 . S
C5 C4 1.357 . S
C5 C6 1.370 . S
C5 H31 0.950 . S
C6 N1 1.307 . S
C6 C5 1.370 . S
C6 H24 0.948 . S
Zn7 N1 2.020 . S
Zn7 O16 2.039 . S
Zn7 O22 2.034 . S
Zn7 O26 2.025 . S
Zn7 O28 2.024 . S
C8 O27 1.246 1_554 S
C8 O28 1.249 . S
N9 C10 1.307 . S
N9 C11 1.333 . S
N9 Zn15 2.020 . S
C10 N9 1.307 . S
C10 C14 1.370 . S
C10 H21 0.948 . S
C11 N9 1.333 . S
C11 C12 1.379 . S
C11 H19 0.952 . S
C12 C11 1.379 . S
C12 C13 1.390 . S
C12 H32 0.949 . S
C13 C12 1.390 . S
C13 C14 1.357 . S
C14 C10 1.370 . S
C14 C13 1.357 . S
C14 H33 0.950 . S
Zn15 N9 2.020 . S
Zn15 O18 2.025 . S
Zn15 O23 2.024 . S
Zn15 O25 2.039 . S
Zn15 O27 2.034 . S
O16 C0 1.251 . S
O16 Zn7 2.039 . S
C17 O22 1.246 . S
C17 O23 1.249 1_554 S
O18 C0 1.254 1_556 S
O18 Zn15 2.025 . S
H19 C11 0.952 . S
H20 C2 0.952 . S
H21 C10 0.948 . S
O22 Zn7 2.034 . S
O22 C17 1.246 . S
O23 Zn15 2.024 . S
O23 C17 1.249 1_556 S
H24 C6 0.948 . S
O25 Zn15 2.039 . S
O25 C29 1.251 1_556 S
O26 Zn7 2.025 . S
O26 C29 1.254 . S
O27 C8 1.246 1_556 S
O27 Zn15 2.034 . S
O28 Zn7 2.024 . S
O28 C8 1.249 . S
C29 O25 1.251 1_554 S
C29 O26 1.254 . S
H30 C3 0.949 . S
H31 C5 0.950 . S
H32 C12 0.949 . S
H33 C14 0.950 . S
C34 O50 1.251 1_554 S
C34 O52 1.254 . S
N35 C36 1.333 . S
N35 C40 1.307 . S
N35 Zn41 2.020 . S
C36 N35 1.333 . S
C36 C37 1.379 . S
C36 H54 0.952 . S
C37 C36 1.379 . S
C37 C38 1.390 . S
C37 H64 0.949 . S
C38 C37 1.390 . S
C38 C39 1.357 . S
C39 C38 1.357 . S
C39 C40 1.370 . S
C39 H65 0.950 . S
C40 N35 1.307 . S
C40 C39 1.370 . S
C40 H58 0.948 . S
Zn41 N35 2.020 . S
Zn41 O50 2.039 . S
Zn41 O56 2.034 . S
Zn41 O60 2.025 . S
Zn41 O62 2.024 . S
C42 O61 1.246 . S
C42 O62 1.249 1_554 S
N43 C44 1.307 . S
N43 C45 1.333 . S
N43 Zn49 2.020 . S
C44 N43 1.307 . S
C44 C48 1.370 . S
C44 H55 0.948 . S
C45 N43 1.333 . S
C45 C46 1.379 . S
C45 H53 0.952 . S
C46 C45 1.379 . S
C46 C47 1.390 . S
C46 H66 0.949 . S
C47 C46 1.390 . S
C47 C48 1.357 . S
C48 C44 1.370 . S
C48 C47 1.357 . S
C48 H67 0.950 . S
Zn49 N43 2.020 . S
Zn49 O52 2.025 . S
Zn49 O57 2.024 . S
Zn49 O59 2.039 . S
Zn49 O61 2.034 . S
O50 C34 1.251 1_556 S
O50 Zn41 2.039 . S
C51 O56 1.246 1_554 S
C51 O57 1.249 . S
O52 C34 1.254 . S
O52 Zn49 2.025 . S
H53 C45 0.952 . S
H54 C36 0.952 . S
H55 C44 0.948 . S
O56 Zn41 2.034 . S
O56 C51 1.246 1_556 S
O57 Zn49 2.024 . S
O57 C51 1.249 . S
H58 C40 0.948 . S
O59 Zn49 2.039 . S
O59 C63 1.251 . S
O60 Zn41 2.025 . S
O60 C63 1.254 1_556 S
O61 C42 1.246 . S
O61 Zn49 2.034 . S
O62 Zn41 2.024 . S
O62 C42 1.249 1_556 S
C63 O59 1.251 . S
C63 O60 1.254 1_554 S
H64 C37 0.949 . S
H65 C39 0.950 . S
H66 C46 0.949 . S
H67 C48 0.950 . S
C68 O84 1.251 . S
C68 O86 1.254 1_554 S
N69 C70 1.333 . S
N69 C74 1.307 . S
N69 Zn75 2.020 . S
C70 N69 1.333 . S
C70 C71 1.379 . S
C70 H88 0.952 . S
C71 C70 1.379 . S
C71 C72 1.390 . S
C71 H98 0.949 . S
C72 C71 1.390 . S
C72 C73 1.357 . S
C73 C72 1.357 . S
C73 C74 1.370 . S
C73 H99 0.950 . S
C74 N69 1.307 . S
C74 C73 1.370 . S
C74 H92 0.948 . S
Zn75 N69 2.020 . S
Zn75 O84 2.039 . S
Zn75 O90 2.034 . S
Zn75 O94 2.025 . S
Zn75 O96 2.024 . S
C76 O95 1.246 1_554 S
C76 O96 1.249 . S
N77 C78 1.307 . S
N77 C79 1.333 . S
N77 Zn83 2.020 . S
C78 N77 1.307 . S
C78 C82 1.370 . S
C78 H89 0.948 . S
C79 N77 1.333 . S
C79 C80 1.379 . S
C79 H87 0.952 . S
C80 C79 1.379 . S
C80 C81 1.390 . S
C80 H100 0.949 . S
C81 C80 1.390 . S
C81 C82 1.357 . S
C82 C78 1.370 . S
C82 C81 1.357 . S
C82 H101 0.950 . S
Zn83 N77 2.020 . S
Zn83 O86 2.025 . S
Zn83 O91 2.024 . S
Zn83 O93 2.039 . S
Zn83 O95 2.034 . S
O84 C68 1.251 . S
O84 Zn75 2.039 . S
C85 O90 1.246 . S
C85 O91 1.249 1_554 S
O86 C68 1.254 1_556 S
O86 Zn83 2.025 . S
H87 C79 0.952 . S
H88 C70 0.952 . S
H89 C78 0.948 . S
O90 Zn75 2.034 . S
O90 C85 1.246 . S
O91 Zn83 2.024 . S
O91 C85 1.249 1_556 S
H92 C74 0.948 . S
O93 Zn83 2.039 . S
O93 C97 1.251 1_556 S
O94 Zn75 2.025 . S
O94 C97 1.254 . S
O95 C76 1.246 1_556 S
O95 Zn83 2.034 . S
O96 Zn75 2.024 . S
O96 C76 1.249 . S
C97 O93 1.251 1_554 S
C97 O94 1.254 . S
H98 C71 0.949 . S
H99 C73 0.950 . S
H100 C80 0.949 . S
H101 C82 0.950 . S
C102 O118 1.251 1_554 S
C102 O120 1.254 . S
N103 C104 1.333 . S
N103 C108 1.307 . S
N103 Zn109 2.020 . S
C104 N103 1.333 . S
C104 C105 1.379 . S
C104 H122 0.952 . S
C105 C104 1.379 . S
C105 C106 1.390 . S
C105 H132 0.949 . S
C106 C105 1.390 . S
C106 C107 1.357 . S
C107 C106 1.357 . S
C107 C108 1.370 . S
C107 H133 0.950 . S
C108 N103 1.307 . S
C108 C107 1.370 . S
C108 H126 0.948 . S
Zn109 N103 2.020 . S
Zn109 O118 2.039 . S
Zn109 O124 2.034 . S
Zn109 O128 2.025 . S
Zn109 O130 2.024 . S
C110 O129 1.246 . S
C110 O130 1.249 1_554 S
N111 C112 1.307 . S
N111 C113 1.333 . S
N111 Zn117 2.020 . S
C112 N111 1.307 . S
C112 C116 1.370 . S
C112 H123 0.948 . S
C113 N111 1.333 . S
C113 C114 1.379 . S
C113 H121 0.952 . S
C114 C113 1.379 . S
C114 C115 1.390 . S
C114 H134 0.949 . S
C115 C114 1.390 . S
C115 C116 1.357 . S
C116 C112 1.370 . S
C116 C115 1.357 . S
C116 H135 0.950 . S
Zn117 N111 2.020 . S
Zn117 O120 2.025 . S
Zn117 O125 2.024 . S
Zn117 O127 2.039 . S
Zn117 O129 2.034 . S
O118 C102 1.251 1_556 S
O118 Zn109 2.039 . S
C119 O124 1.246 1_554 S
C119 O125 1.249 . S
O120 C102 1.254 . S
O120 Zn117 2.025 . S
H121 C113 0.952 . S
H122 C104 0.952 . S
H123 C112 0.948 . S
O124 Zn109 2.034 . S
O124 C119 1.246 1_556 S
O125 Zn117 2.024 . S
O125 C119 1.249 . S
H126 C108 0.948 . S
O127 Zn117 2.039 . S
O127 C131 1.251 . S
O128 Zn109 2.025 . S
O128 C131 1.254 1_556 S
O129 C110 1.246 . S
O129 Zn117 2.034 . S
O130 Zn109 2.024 . S
O130 C110 1.249 1_556 S
C131 O127 1.251 . S
C131 O128 1.254 1_554 S
H132 C105 0.949 . S
H133 C107 0.950 . S
H134 C114 0.949 . S
H135 C116 0.950 . S
C136 O152 1.251 1_554 S
C136 O154 1.254 . S
N137 C138 1.333 . S
N137 C142 1.307 . S
N137 Zn143 2.020 . S
C138 N137 1.333 . S
C138 C139 1.379 . S
C138 H156 0.952 . S
C139 C138 1.379 . S
C139 C140 1.390 . S
C139 H166 0.949 . S
C140 C139 1.390 . S
C140 C141 1.357 . S
C141 C140 1.357 . S
C141 C142 1.370 . S
C141 H167 0.950 . S
C142 N137 1.307 . S
C142 C141 1.370 . S
C142 H160 0.948 . S
Zn143 N137 2.020 . S
Zn143 O152 2.039 . S
Zn143 O158 2.034 . S
Zn143 O162 2.025 . S
Zn143 O164 2.024 . S
C144 O163 1.246 . S
C144 O164 1.249 1_554 S
N145 C146 1.307 . S
N145 C147 1.333 . S
N145 Zn151 2.020 . S
C146 N145 1.307 . S
C146 C150 1.370 . S
C146 H157 0.948 . S
C147 N145 1.333 . S
C147 C148 1.379 . S
C147 H155 0.952 . S
C148 C147 1.379 . S
C148 C149 1.390 . S
C148 H168 0.949 . S
C149 C148 1.390 . S
C149 C150 1.357 . S
C150 C146 1.370 . S
C150 C149 1.357 . S
C150 H169 0.950 . S
Zn151 N145 2.020 . S
Zn151 O154 2.025 . S
Zn151 O159 2.024 . S
Zn151 O161 2.039 . S
Zn151 O163 2.034 . S
O152 C136 1.251 1_556 S
O152 Zn143 2.039 . S
C153 O158 1.246 1_554 S
C153 O159 1.249 . S
O154 C136 1.254 . S
O154 Zn151 2.025 . S
H155 C147 0.952 . S
H156 C138 0.952 . S
H157 C146 0.948 . S
O158 Zn143 2.034 . S
O158 C153 1.246 1_556 S
O159 Zn151 2.024 . S
O159 C153 1.249 . S
H160 C142 0.948 . S
O161 Zn151 2.039 . S
O161 C165 1.251 . S
O162 Zn143 2.025 . S
O162 C165 1.254 1_556 S
O163 C144 1.246 . S
O163 Zn151 2.034 . S
O164 Zn143 2.024 . S
O164 C144 1.249 1_556 S
C165 O161 1.251 . S
C165 O162 1.254 1_554 S
H166 C139 0.949 . S
H167 C141 0.950 . S
H168 C148 0.949 . S
H169 C150 0.950 . S
C170 O186 1.251 . S
C170 O188 1.254 1_554 S
N171 C172 1.333 . S
N171 C176 1.307 . S
N171 Zn177 2.020 . S
C172 N171 1.333 . S
C172 C173 1.379 . S
C172 H190 0.952 . S
C173 C172 1.379 . S
C173 C174 1.390 . S
C173 H200 0.949 . S
C174 C173 1.390 . S
C174 C175 1.357 . S
C175 C174 1.357 . S
C175 C176 1.370 . S
C175 H201 0.950 . S
C176 N171 1.307 . S
C176 C175 1.370 . S
C176 H194 0.948 . S
Zn177 N171 2.020 . S
Zn177 O186 2.039 . S
Zn177 O192 2.034 . S
Zn177 O196 2.025 . S
Zn177 O198 2.024 . S
C178 O197 1.246 1_554 S
C178 O198 1.249 . S
N179 C180 1.307 . S
N179 C181 1.333 . S
N179 Zn185 2.020 . S
C180 N179 1.307 . S
C180 C184 1.370 . S
C180 H191 0.948 . S
C181 N179 1.333 . S
C181 C182 1.379 . S
C181 H189 0.952 . S
C182 C181 1.379 . S
C182 C183 1.390 . S
C182 H202 0.949 . S
C183 C182 1.390 . S
C183 C184 1.357 . S
C184 C180 1.370 . S
C184 C183 1.357 . S
C184 H203 0.950 . S
Zn185 N179 2.020 . S
Zn185 O188 2.025 . S
Zn185 O193 2.024 . S
Zn185 O195 2.039 . S
Zn185 O197 2.034 . S
O186 C170 1.251 . S
O186 Zn177 2.039 . S
C187 O192 1.246 . S
C187 O193 1.249 1_554 S
O188 C170 1.254 1_556 S
O188 Zn185 2.025 . S
H189 C181 0.952 . S
H190 C172 0.952 . S
H191 C180 0.948 . S
O192 Zn177 2.034 . S
O192 C187 1.246 . S
O193 Zn185 2.024 . S
O193 C187 1.249 1_556 S
H194 C176 0.948 . S
O195 Zn185 2.039 . S
O195 C199 1.251 1_556 S
O196 Zn177 2.025 . S
O196 C199 1.254 . S
O197 C178 1.246 1_556 S
O197 Zn185 2.034 . S
O198 Zn177 2.024 . S
O198 C178 1.249 . S
C199 O195 1.251 1_554 S
C199 O196 1.254 . S
H200 C173 0.949 . S
H201 C175 0.950 . S
H202 C182 0.949 . S
H203 C184 0.950 . S
C204 C205 1.391 . S
C204 C206 1.394 . S
C204 H220 0.931 . S
C205 C204 1.391 . S
C205 C209 1.376 . S
C206 C204 1.394 . S
C206 C207 1.369 . S
C206 C210 1.531 . S
C207 C206 1.369 . S
C207 C208 1.410 . S
C207 C215 1.503 . S
C208 C207 1.410 . S
C208 C209 1.392 . S
C208 C211 1.511 1_554 S
C209 C205 1.376 . S
C209 C208 1.392 . S
C209 H221 0.929 1_554 S
C210 C206 1.531 . S
C210 H222 0.960 . S
C210 H223 0.962 . S
C210 H224 0.960 . S
C211 C208 1.511 1_556 S
C211 H225 0.961 . S
C211 H226 0.961 . S
C211 H227 0.961 . S
C212 C213 1.370 1_556 S
C212 C214 1.363 . S
C212 H228 0.931 . S
C213 C212 1.370 1_554 S
C213 C217 1.408 . S
C214 C212 1.363 . S
C214 C215 1.370 1_556 S
C214 C218 1.524 . S
C215 C207 1.503 . S
C215 C214 1.370 1_554 S
C215 C216 1.403 . S
C216 C215 1.403 . S
C216 C217 1.404 . S
C216 C219 1.539 . S
C217 C213 1.408 . S
C217 C216 1.404 . S
C217 H229 0.930 . S
C218 C214 1.524 . S
C218 H230 0.956 . S
C218 H231 0.961 . S
C218 H232 0.961 . S
C219 C216 1.539 . S
C219 H233 0.958 . S
C219 H234 0.961 . S
C219 H235 0.960 . S
H220 C204 0.931 . S
H221 C209 0.929 1_556 S
H222 C210 0.960 . S
H223 C210 0.962 . S
H224 C210 0.960 . S
H225 C211 0.961 . S
H226 C211 0.961 . S
H227 C211 0.961 . S
H228 C212 0.931 . S
H229 C217 0.930 . S
H230 C218 0.956 . S
H231 C218 0.961 . S
H232 C218 0.961 . S
H233 C219 0.958 . S
H234 C219 0.961 . S
H235 C219 0.960 . S
C236 C237 1.391 . S
C236 C238 1.394 . S
C236 H252 0.931 . S
C237 C236 1.391 . S
C237 C241 1.376 . S
C238 C236 1.394 . S
C238 C239 1.369 . S
C238 C242 1.531 . S
C239 C238 1.369 . S
C239 C240 1.410 . S
C239 C247 1.503 1_455 S
C240 C239 1.410 . S
C240 C241 1.392 . S
C240 C243 1.511 1_554 S
C241 C237 1.376 . S
C241 C240 1.392 . S
C241 H253 0.929 1_554 S
C242 C238 1.531 . S
C242 H254 0.960 1_455 S
C242 H255 0.962 . S
C242 H256 0.960 . S
C243 C240 1.511 1_556 S
C243 H257 0.961 . S
C243 H258 0.961 1_455 S
C243 H259 0.961 1_556 S
C244 C245 1.370 1_556 S
C244 C246 1.363 . S
C244 H260 0.931 . S
C245 C244 1.370 1_554 S
C245 C249 1.408 . S
C246 C244 1.363 . S
C246 C247 1.370 1_556 S
C246 C250 1.524 . S
C247 C239 1.503 1_655 S
C247 C246 1.370 1_554 S
C247 C248 1.403 . S
C248 C247 1.403 . S
C248 C249 1.404 . S
C248 C251 1.539 . S
C249 C245 1.408 . S
C249 C248 1.404 . S
C249 H261 0.930 . S
C250 C246 1.524 . S
C250 H262 0.956 . S
C250 H263 0.959 1_655 S
C250 H264 0.961 . S
C251 C248 1.539 . S
C251 H265 0.958 . S
C251 H266 0.961 . S
C251 H267 0.960 1_655 S
H252 C236 0.931 . S
H253 C241 0.929 1_556 S
H254 C242 0.960 1_655 S
H255 C242 0.962 . S
H256 C242 0.960 . S
H257 C243 0.961 . S
H258 C243 0.961 1_655 S
H259 C243 0.961 1_554 S
H260 C244 0.931 . S
H261 C249 0.930 . S
H262 C250 0.956 . S
H263 C250 0.959 1_455 S
H264 C250 0.961 . S
H265 C251 0.958 . S
H266 C251 0.961 . S
H267 C251 0.960 1_455 S
C268 C269 1.391 . S
C268 C270 1.394 . S
C268 H284 0.931 . S
C269 C268 1.391 . S
C269 C273 1.376 1_554 S
C270 C268 1.394 . S
C270 C271 1.369 . S
C270 C274 1.531 . S
C271 C270 1.369 . S
C271 C272 1.410 1_554 S
C271 C279 1.503 1_545 S
C272 C271 1.410 1_556 S
C272 C273 1.392 . S
C272 C275 1.511 . S
C273 C269 1.376 1_556 S
C273 C272 1.392 . S
C273 H285 0.929 . S
C274 C270 1.531 . S
C274 H286 0.960 1_545 S
C274 H287 0.962 . S
C274 H288 0.960 . S
C275 C272 1.511 . S
C275 H289 0.961 . S
C275 H290 0.961 1_545 S
C275 H291 0.961 . S
C276 C277 1.367 1_556 S
C276 C278 1.363 1_556 S
C276 H292 0.935 . S
C277 C276 1.367 1_554 S
C277 C281 1.408 . S
C278 C276 1.363 1_554 S
C278 C279 1.370 . S
C278 C282 1.524 1_554 S
C279 C271 1.503 1_565 S
C279 C278 1.370 . S
C279 C280 1.403 . S
C280 C279 1.403 . S
C280 C281 1.404 . S
C280 C283 1.539 . S
C281 C277 1.408 . S
C281 C280 1.404 . S
C281 H293 0.930 . S
C282 C278 1.524 1_556 S
C282 H294 0.956 1_556 S
C282 H295 0.961 1_565 S
C282 H296 0.961 . S
C283 C280 1.539 . S
C283 H297 0.958 . S
C283 H298 0.961 . S
C283 H299 0.987 . S
H284 C268 0.931 . S
H285 C273 0.929 . S
H286 C274 0.960 1_565 S
H287 C274 0.962 . S
H288 C274 0.960 . S
H289 C275 0.961 . S
H290 C275 0.961 1_565 S
H291 C275 0.961 . S
H292 C276 0.935 . S
H293 C281 0.930 . S
H294 C282 0.956 1_554 S
H295 C282 0.961 1_545 S
H296 C282 0.961 . S
H297 C283 0.958 . S
H298 C283 0.961 . S
H299 C283 0.987 . S
C300 C301 1.391 . S
C300 C302 1.394 . S
C300 H316 0.931 . S
C301 C300 1.391 . S
C301 C305 1.376 . S
C302 C300 1.394 . S
C302 C303 1.369 . S
C302 C306 1.531 . S
C303 C302 1.369 . S
C303 C304 1.410 . S
C303 C311 1.503 . S
C304 C303 1.410 . S
C304 C305 1.392 . S
C304 C307 1.511 . S
C305 C301 1.376 . S
C305 C304 1.392 . S
C305 H317 0.929 . S
C306 C302 1.531 . S
C306 H318 0.960 . S
C306 H319 0.962 . S
C306 H320 0.960 . S
C307 C304 1.511 . S
C307 H321 0.961 . S
C307 H322 0.961 . S
C307 H323 0.961 . S
C308 C309 1.370 1_556 S
C308 C310 1.363 . S
C308 H324 0.931 . S
C309 C308 1.370 1_554 S
C309 C313 1.408 . S
C310 C308 1.363 . S
C310 C311 1.370 1_556 S
C310 C314 1.524 . S
C311 C303 1.503 . S
C311 C310 1.370 1_554 S
C311 C312 1.403 . S
C312 C311 1.403 . S
C312 C313 1.404 . S
C312 C315 1.539 . S
C313 C309 1.408 . S
C313 C312 1.404 . S
C313 H325 0.930 . S
C314 C310 1.524 . S
C314 H326 0.956 . S
C314 H327 0.961 . S
C314 H328 0.961 . S
C315 C312 1.539 . S
C315 H329 0.958 . S
C315 H330 0.961 . S
C315 H331 0.960 . S
H316 C300 0.931 . S
H317 C305 0.929 . S
H318 C306 0.960 . S
H319 C306 0.962 . S
H320 C306 0.960 . S
H321 C307 0.961 . S
H322 C307 0.961 . S
H323 C307 0.961 . S
H324 C308 0.931 . S
H325 C313 0.930 . S
H326 C314 0.956 . S
H327 C314 0.961 . S
H328 C314 0.961 . S
H329 C315 0.958 . S
H330 C315 0.961 . S
H331 C315 0.960 . S
C332 C333 1.391 . S
C332 C334 1.394 . S
C332 H348 0.931 . S
C333 C332 1.391 . S
C333 C337 1.376 . S
C334 C332 1.394 . S
C334 C335 1.369 . S
C334 C338 1.532 . S
C335 C334 1.369 . S
C335 C336 1.410 . S
C335 C343 1.503 1_455 S
C336 C335 1.410 . S
C336 C337 1.392 . S
C336 C339 1.511 . S
C337 C333 1.376 . S
C337 C336 1.392 . S
C337 H349 0.929 . S
C338 C334 1.532 . S
C338 H350 0.958 1_454 S
C338 H351 0.967 . S
C338 H352 0.957 1_554 S
C339 C336 1.511 . S
C339 H353 0.961 . S
C339 H354 0.961 1_455 S
C339 H355 0.962 . S
C340 C341 1.370 . S
C340 C342 1.363 . S
C340 H356 0.931 . S
C341 C340 1.370 . S
C341 C345 1.408 1_554 S
C342 C340 1.363 . S
C342 C343 1.370 . S
C342 C346 1.524 . S
C343 C335 1.503 1_655 S
C343 C342 1.370 . S
C343 C344 1.403 1_554 S
C344 C343 1.403 1_556 S
C344 C345 1.404 . S
C344 C347 1.539 . S
C345 C341 1.408 1_556 S
C345 C344 1.404 . S
C345 H357 0.930 . S
C346 C342 1.524 . S
C346 H358 0.956 1_655 S
C346 H359 0.961 1_655 S
C346 H360 0.961 . S
C347 C344 1.539 . S
C347 H361 0.958 . S
C347 H362 0.961 . S
C347 H363 0.960 . S
H348 C332 0.931 . S
H349 C337 0.929 . S
H350 C338 0.958 1_656 S
H351 C338 0.967 . S
H352 C338 0.957 1_556 S
H353 C339 0.961 . S
H354 C339 0.961 1_655 S
H355 C339 0.962 . S
H356 C340 0.931 . S
H357 C345 0.930 . S
H358 C346 0.956 1_455 S
H359 C346 0.961 1_455 S
H360 C346 0.961 . S
H361 C347 0.958 . S
H362 C347 0.961 . S
H363 C347 0.960 . S
C364 C365 1.391 . S
C364 C366 1.394 . S
C364 H380 0.931 . S
C365 C364 1.391 . S
C365 C369 1.376 . S
C366 C364 1.394 . S
C366 C367 1.369 . S
C366 C370 1.531 . S
C367 C366 1.369 . S
C367 C368 1.410 . S
C367 C375 1.503 1_565 S
C368 C367 1.410 . S
C368 C369 1.392 . S
C368 C371 1.511 1_554 S
C369 C365 1.376 . S
C369 C368 1.392 . S
C369 H381 0.929 1_554 S
C370 C366 1.531 . S
C370 H382 0.960 1_565 S
C370 H383 0.962 . S
C370 H384 0.960 . S
C371 C368 1.511 1_556 S
C371 H385 0.961 . S
C371 H386 0.961 1_565 S
C371 H387 0.961 1_556 S
C372 C373 1.370 1_556 S
C372 C374 1.363 . S
C372 H388 0.931 . S
C373 C372 1.370 1_554 S
C373 C377 1.408 . S
C374 C372 1.363 . S
C374 C375 1.370 1_556 S
C374 C378 1.524 . S
C375 C367 1.503 1_545 S
C375 C374 1.370 1_554 S
C375 C376 1.403 . S
C376 C375 1.403 . S
C376 C377 1.404 . S
C376 C379 1.539 . S
C377 C373 1.408 . S
C377 C376 1.404 . S
C377 H389 0.930 . S
C378 C374 1.524 . S
C378 H390 0.956 . S
C378 H391 0.961 1_545 S
C378 H392 0.961 . S
C379 C376 1.539 . S
C379 H393 0.958 . S
C379 H394 0.961 . S
C379 H395 0.960 . S
H380 C364 0.931 . S
H381 C369 0.929 1_556 S
H382 C370 0.960 1_545 S
H383 C370 0.962 . S
H384 C370 0.960 . S
H385 C371 0.961 . S
H386 C371 0.961 1_545 S
H387 C371 0.961 1_554 S
H388 C372 0.931 . S
H389 C377 0.930 . S
H390 C378 0.956 . S
H391 C378 0.961 1_565 S
H392 C378 0.961 . S
H393 C379 0.958 . S
H394 C379 0.961 . S
H395 C379 0.960 . S
C396 C397 1.391 . S
C396 C398 1.394 . S
C396 H412 0.931 . S
C397 C396 1.391 . S
C397 C401 1.376 1_554 S
C398 C396 1.394 . S
C398 C399 1.369 . S
C398 C402 1.531 . S
C399 C398 1.369 . S
C399 C400 1.410 . S
C399 C407 1.503 . S
C400 C399 1.410 . S
C400 C401 1.392 1_554 S
C400 C403 1.511 1_554 S
C401 C397 1.376 1_556 S
C401 C400 1.392 1_556 S
C401 H413 0.929 . S
C402 C398 1.531 . S
C402 H414 0.960 . S
C402 H415 0.962 . S
C402 H416 0.960 . S
C403 C400 1.511 1_556 S
C403 H417 0.961 . S
C403 H418 0.961 . S
C403 H419 0.961 . S
C404 C405 1.370 1_556 S
C404 C406 1.363 . S
C404 H420 0.931 . S
C405 C404 1.370 1_554 S
C405 C409 1.408 . S
C406 C404 1.363 . S
C406 C407 1.370 1_556 S
C406 C410 1.524 . S
C407 C399 1.503 . S
C407 C406 1.370 1_554 S
C407 C408 1.403 . S
C408 C407 1.403 . S
C408 C409 1.404 . S
C408 C411 1.539 . S
C409 C405 1.408 . S
C409 C408 1.404 . S
C409 H421 0.930 . S
C410 C406 1.524 . S
C410 H422 0.956 . S
C410 H423 0.961 . S
C410 H424 0.961 . S
C411 C408 1.539 . S
C411 H425 0.958 . S
C411 H426 0.961 . S
C411 H427 0.960 . S
H412 C396 0.931 . S
H413 C401 0.929 . S
H414 C402 0.960 . S
H415 C402 0.962 . S
H416 C402 0.960 . S
H417 C403 0.961 . S
H418 C403 0.961 . S
H419 C403 0.961 . S
H420 C404 0.931 . S
H421 C409 0.930 . S
H422 C410 0.956 . S
H423 C410 0.961 . S
H424 C410 0.961 . S
H425 C411 0.958 . S
H426 C411 0.961 . S
H427 C411 0.960 . S
C428 C429 1.391 1_556 S
C428 C430 1.394 . S
C428 H444 0.931 . S
C429 C428 1.391 1_554 S
C429 C433 1.376 . S
C430 C428 1.394 . S
C430 C431 1.369 1_556 S
C430 C434 1.531 . S
C431 C430 1.369 1_554 S
C431 C432 1.410 . S
C431 C439 1.503 . S
C432 C431 1.410 . S
C432 C433 1.392 . S
C432 C435 1.511 . S
C433 C429 1.376 . S
C433 C432 1.392 . S
C433 H445 0.929 . S
C434 C430 1.531 . S
C434 H446 0.960 . S
C434 H447 0.962 . S
C434 H448 0.960 . S
C435 C432 1.511 . S
C435 H449 0.961 . S
C435 H450 0.961 . S
C435 H451 0.961 . S
C436 C437 1.370 . S
C436 C438 1.363 . S
C436 H452 0.931 1_554 S
C437 C436 1.370 . S
C437 C441 1.408 . S
C438 C436 1.363 . S
C438 C439 1.370 . S
C438 C442 1.524 1_554 S
C439 C431 1.503 . S
C439 C438 1.370 . S
C439 C440 1.403 . S
C440 C439 1.403 . S
C440 C441 1.404 . S
C440 C443 1.539 . S
C441 C437 1.408 . S
C441 C440 1.404 . S
C441 H453 0.930 . S
C442 C438 1.524 1_556 S
C442 H454 0.956 . S
C442 H455 0.961 1_556 S
C442 H456 0.961 . S
C443 C440 1.539 . S
C443 H457 0.958 . S
C443 H458 0.961 . S
C443 H459 0.960 . S
H444 C428 0.931 . S
H445 C433 0.929 . S
H446 C434 0.960 . S
H447 C434 0.962 . S
H448 C434 0.960 . S
H449 C435 0.961 . S
H450 C435 0.961 . S
H451 C435 0.961 . S
H452 C436 0.931 1_556 S
H453 C441 0.930 . S
H454 C442 0.956 . S
H455 C442 0.961 1_554 S
H456 C442 0.961 . S
H457 C443 0.958 . S
H458 C443 0.961 . S
H459 C443 0.960 . S
C460 C461 1.391 1_556 S
C460 C462 1.394 . S
C460 H476 0.931 . S
C461 C460 1.391 1_554 S
C461 C465 1.376 . S
C462 C460 1.394 . S
C462 C463 1.369 1_556 S
C462 C466 1.531 . S
C463 C462 1.369 1_554 S
C463 C464 1.410 . S
C463 C471 1.503 . S
C464 C463 1.410 . S
C464 C465 1.392 . S
C464 C467 1.511 . S
C465 C461 1.376 . S
C465 C464 1.392 . S
C465 H477 0.929 . S
C466 C462 1.531 . S
C466 H478 0.960 . S
C466 H479 0.962 1_556 S
C466 H480 0.960 . S
C467 C464 1.511 . S
C467 H481 0.961 . S
C467 H482 0.961 . S
C467 H483 0.961 1_554 S
C468 C469 1.370 . S
C468 C470 1.363 . S
C468 H484 0.931 . S
C469 C468 1.370 . S
C469 C473 1.408 1_554 S
C470 C468 1.363 . S
C470 C471 1.370 . S
C470 C474 1.524 . S
C471 C463 1.503 . S
C471 C470 1.370 . S
C471 C472 1.403 1_554 S
C472 C471 1.403 1_556 S
C472 C473 1.404 . S
C472 C475 1.539 . S
C473 C469 1.408 1_556 S
C473 C472 1.404 . S
C473 H485 0.930 . S
C474 C470 1.524 . S
C474 H486 0.956 . S
C474 H487 0.961 . S
C474 H488 0.961 . S
C475 C472 1.539 . S
C475 H489 0.958 . S
C475 H490 0.961 . S
C475 H491 0.960 . S
H476 C460 0.931 . S
H477 C465 0.929 . S
H478 C466 0.960 . S
H479 C466 0.962 1_554 S
H480 C466 0.960 . S
H481 C467 0.961 . S
H482 C467 0.961 . S
H483 C467 0.961 1_556 S
H484 C468 0.931 . S
H485 C473 0.930 . S
H486 C474 0.956 . S
H487 C474 0.961 . S
H488 C474 0.961 . S
H489 C475 0.958 . S
H490 C475 0.961 . S
H491 C475 0.960 . S
C492 C493 1.391 . S
C492 C494 1.394 . S
C492 H508 0.931 . S
C493 C492 1.391 . S
C493 C497 1.376 . S
C494 C492 1.394 . S
C494 C495 1.369 . S
C494 C498 1.531 . S
C495 C494 1.369 . S
C495 C496 1.410 . S
C495 C503 1.503 . S
C496 C495 1.410 . S
C496 C497 1.392 . S
C496 C499 1.511 . S
C497 C493 1.376 . S
C497 C496 1.392 . S
C497 H509 0.929 . S
C498 C494 1.531 . S
C498 H510 0.960 . S
C498 H511 0.962 1_554 S
C498 H512 0.960 . S
C499 C496 1.511 . S
C499 H513 0.961 . S
C499 H514 0.961 . S
C499 H515 0.961 . S
C500 C501 1.370 1_556 S
C500 C502 1.363 . S
C500 H516 0.931 . S
C501 C500 1.370 1_554 S
C501 C505 1.408 . S
C502 C500 1.363 . S
C502 C503 1.370 1_556 S
C502 C506 1.524 . S
C503 C495 1.503 . S
C503 C502 1.370 1_554 S
C503 C504 1.403 . S
C504 C503 1.403 . S
C504 C505 1.404 . S
C504 C507 1.539 . S
C505 C501 1.408 . S
C505 C504 1.404 . S
C505 H517 0.930 . S
C506 C502 1.524 . S
C506 H518 0.956 . S
C506 H519 0.961 . S
C506 H520 0.961 . S
C507 C504 1.539 . S
C507 H521 0.958 . S
C507 H522 0.961 . S
C507 H523 0.960 . S
H508 C492 0.931 . S
H509 C497 0.929 . S
H510 C498 0.960 . S
H511 C498 0.962 1_556 S
H512 C498 0.960 . S
H513 C499 0.961 . S
H514 C499 0.961 . S
H515 C499 0.961 . S
H516 C500 0.931 . S
H517 C505 0.930 . S
H518 C506 0.956 . S
H519 C506 0.961 . S
H520 C506 0.961 . S
H521 C507 0.958 . S
H522 C507 0.961 . S
H523 C507 0.960 . S
C524 C525 1.391 1_556 S
C524 C526 1.394 . S
C524 H540 0.931 . S
C525 C524 1.391 1_554 S
C525 C529 1.376 . S
C526 C524 1.394 . S
C526 C527 1.369 1_556 S
C526 C530 1.531 . S
C527 C526 1.369 1_554 S
C527 C528 1.410 . S
C527 C535 1.503 . S
C528 C527 1.410 . S
C528 C529 1.392 . S
C528 C531 1.511 . S
C529 C525 1.376 . S
C529 C528 1.392 . S
C529 H541 0.929 . S
C530 C526 1.531 . S
C530 H542 0.960 . S
C530 H543 0.962 . S
C530 H544 0.960 . S
C531 C528 1.511 . S
C531 H545 0.961 . S
C531 H546 0.961 . S
C531 H547 0.961 . S
C532 C533 1.370 1_556 S
C532 C534 1.363 . S
C532 H548 0.931 . S
C533 C532 1.370 1_554 S
C533 C537 1.408 . S
C534 C532 1.363 . S
C534 C535 1.370 1_556 S
C534 C538 1.524 . S
C535 C527 1.503 . S
C535 C534 1.370 1_554 S
C535 C536 1.403 . S
C536 C535 1.403 . S
C536 C537 1.404 . S
C536 C539 1.539 . S
C537 C533 1.408 . S
C537 C536 1.404 . S
C537 H549 0.930 . S
C538 C534 1.524 . S
C538 H550 0.956 . S
C538 H551 0.961 . S
C538 H552 0.961 . S
C539 C536 1.539 . S
C539 H553 0.958 . S
C539 H554 0.961 . S
C539 H555 0.960 . S
H540 C524 0.931 . S
H541 C529 0.929 . S
H542 C530 0.960 . S
H543 C530 0.962 . S
H544 C530 0.960 . S
H545 C531 0.961 . S
H546 C531 0.961 . S
H547 C531 0.961 . S
H548 C532 0.931 . S
H549 C537 0.930 . S
H550 C538 0.956 . S
H551 C538 0.961 . S
H552 C538 0.961 . S
H553 C539 0.958 . S
H554 C539 0.961 . S
H555 C539 0.960 . S
C556 C557 1.391 . S
C556 C558 1.394 . S
C556 H572 0.931 . S
C557 C556 1.391 . S
C557 C561 1.376 1_554 S
C558 C556 1.394 . S
C558 C559 1.369 . S
C558 C562 1.531 . S
C559 C558 1.369 . S
C559 C560 1.410 1_554 S
C559 C567 1.503 . S
C560 C559 1.410 1_556 S
C560 C561 1.392 . S
C560 C563 1.511 . S
C561 C557 1.376 1_556 S
C561 C560 1.392 . S
C561 H573 0.929 . S
C562 C558 1.531 . S
C562 H574 0.960 . S
C562 H575 0.962 . S
C562 H576 0.960 . S
C563 C560 1.511 . S
C563 H577 0.961 . S
C563 H578 0.961 . S
C563 H579 0.961 . S
C564 C565 1.370 . S
C564 C566 1.363 . S
C564 H580 0.931 . S
C565 C564 1.370 . S
C565 C569 1.408 . S
C566 C564 1.363 . S
C566 C567 1.370 . S
C566 C570 1.524 . S
C567 C559 1.503 . S
C567 C566 1.370 . S
C567 C568 1.403 . S
C568 C567 1.403 . S
C568 C569 1.404 . S
C568 C571 1.539 . S
C569 C565 1.408 . S
C569 C568 1.404 . S
C569 H581 0.930 . S
C570 C566 1.524 . S
C570 H582 0.956 . S
C570 H583 0.961 1_554 S
C570 H584 0.961 . S
C571 C568 1.539 . S
C571 H585 0.958 . S
C571 H586 0.961 . S
C571 H587 0.960 . S
H572 C556 0.931 . S
H573 C561 0.929 . S
H574 C562 0.960 . S
H575 C562 0.962 . S
H576 C562 0.960 . S
H577 C563 0.961 . S
H578 C563 0.961 . S
H579 C563 0.961 . S
H580 C564 0.931 . S
H581 C569 0.930 . S
H582 C570 0.956 . S
H583 C570 0.961 1_556 S
H584 C570 0.961 . S
H585 C571 0.958 . S
H586 C571 0.961 . S
H587 C571 0.960 . S
C588 C589 1.391 . S
C588 C590 1.394 . S
C588 H604 0.931 . S
C589 C588 1.391 . S
C589 C593 1.376 . S
C590 C588 1.394 . S
C590 C591 1.369 . S
C590 C594 1.531 . S
C591 C590 1.369 . S
C591 C592 1.410 . S
C591 C599 1.503 . S
C592 C591 1.410 . S
C592 C593 1.392 . S
C592 C595 1.511 . S
C593 C589 1.376 . S
C593 C592 1.392 . S
C593 H605 0.929 . S
C594 C590 1.531 . S
C594 H606 0.960 . S
C594 H607 0.962 . S
C594 H608 0.960 . S
C595 C592 1.511 . S
C595 H609 0.961 . S
C595 H610 0.961 . S
C595 H611 0.961 . S
C596 C597 1.370 . S
C596 C598 1.363 . S
C596 H612 0.931 . S
C597 C596 1.370 . S
C597 C601 1.408 . S
C598 C596 1.363 . S
C598 C599 1.370 . S
C598 C602 1.524 . S
C599 C591 1.503 . S
C599 C598 1.370 . S
C599 C600 1.403 . S
C600 C599 1.403 . S
C600 C601 1.404 . S
C600 C603 1.539 . S
C601 C597 1.408 . S
C601 C600 1.404 . S
C601 H613 0.930 . S
C602 C598 1.524 . S
C602 H614 0.956 . S
C602 H615 0.961 . S
C602 H616 0.961 . S
C603 C600 1.539 . S
C603 H617 0.958 . S
C603 H618 0.961 . S
C603 H619 0.960 . S
H604 C588 0.931 . S
H605 C593 0.929 . S
H606 C594 0.960 . S
H607 C594 0.962 . S
H608 C594 0.960 . S
H609 C595 0.961 . S
H610 C595 0.961 . S
H611 C595 0.961 . S
H612 C596 0.931 . S
H613 C601 0.930 . S
H614 C602 0.956 . S
H615 C602 0.961 . S
H616 C602 0.961 . S
H617 C603 0.958 . S
H618 C603 0.961 . S
H619 C603 0.960 . S
C620 C621 1.391 . S
C620 C622 1.394 . S
C620 H636 0.931 . S
C621 C620 1.391 . S
C621 C625 1.376 . S
C622 C620 1.394 . S
C622 C623 1.369 . S
C622 C626 1.531 . S
C623 C622 1.369 . S
C623 C624 1.410 . S
C623 C631 1.503 . S
C624 C623 1.410 . S
C624 C625 1.392 . S
C624 C627 1.511 . S
C625 C621 1.376 . S
C625 C624 1.392 . S
C625 H637 0.929 . S
C626 C622 1.531 . S
C626 H638 0.960 . S
C626 H639 0.962 . S
C626 H640 0.960 . S
C627 C624 1.511 . S
C627 H641 0.961 . S
C627 H642 0.961 . S
C627 H643 0.961 . S
C628 C629 1.370 . S
C628 C630 1.363 . S
C628 H644 0.931 . S
C629 C628 1.370 . S
C629 C633 1.408 . S
C630 C628 1.363 . S
C630 C631 1.370 . S
C630 C634 1.524 . S
C631 C623 1.503 . S
C631 C630 1.370 . S
C631 C632 1.403 . S
C632 C631 1.403 . S
C632 C633 1.404 . S
C632 C635 1.539 . S
C633 C629 1.408 . S
C633 C632 1.404 . S
C633 H645 0.930 . S
C634 C630 1.524 . S
C634 H646 0.956 . S
C634 H647 0.961 . S
C634 H648 0.961 . S
C635 C632 1.539 . S
C635 H649 0.958 . S
C635 H650 0.961 . S
C635 H651 0.960 . S
H636 C620 0.931 . S
H637 C625 0.929 . S
H638 C626 0.960 . S
H639 C626 0.962 . S
H640 C626 0.960 . S
H641 C627 0.961 . S
H642 C627 0.961 . S
H643 C627 0.961 . S
H644 C628 0.931 . S
H645 C633 0.930 . S
H646 C634 0.956 . S
H647 C634 0.961 . S
H648 C634 0.961 . S
H649 C635 0.958 . S
H650 C635 0.961 . S
H651 C635 0.960 . S
C652 C653 1.391 . S
C652 C654 1.394 . S
C652 H668 0.931 . S
C653 C652 1.391 . S
C653 C657 1.376 . S
C654 C652 1.394 . S
C654 C655 1.369 . S
C654 C658 1.531 . S
C655 C654 1.369 . S
C655 C656 1.410 . S
C655 C663 1.503 . S
C656 C655 1.410 . S
C656 C657 1.392 . S
C656 C659 1.511 . S
C657 C653 1.376 . S
C657 C656 1.392 . S
C657 H669 0.929 . S
C658 C654 1.531 . S
C658 H670 0.960 . S
C658 H671 0.962 . S
C658 H672 0.960 . S
C659 C656 1.511 . S
C659 H673 0.961 . S
C659 H674 0.961 . S
C659 H675 0.961 . S
C660 C661 1.370 . S
C660 C662 1.363 . S
C660 H676 0.931 . S
C661 C660 1.370 . S
C661 C665 1.408 . S
C662 C660 1.363 . S
C662 C663 1.370 . S
C662 C666 1.524 . S
C663 C655 1.503 . S
C663 C662 1.370 . S
C663 C664 1.403 . S
C664 C663 1.403 . S
C664 C665 1.404 . S
C664 C667 1.539 . S
C665 C661 1.408 . S
C665 C664 1.404 . S
C665 H677 0.930 . S
C666 C662 1.524 . S
C666 H678 0.956 . S
C666 H679 0.961 . S
C666 H680 0.961 . S
C667 C664 1.539 . S
C667 H681 0.958 . S
C667 H682 0.961 . S
C667 H683 0.960 . S
H668 C652 0.931 . S
H669 C657 0.929 . S
H670 C658 0.960 . S
H671 C658 0.962 . S
H672 C658 0.960 . S
H673 C659 0.961 . S
H674 C659 0.961 . S
H675 C659 0.961 . S
H676 C660 0.931 . S
H677 C665 0.930 . S
H678 C666 0.956 . S
H679 C666 0.961 . S
H680 C666 0.961 . S
H681 C667 0.958 . S
H682 C667 0.961 . S
H683 C667 0.960 . S
C684 C685 1.391 . S
C684 C686 1.394 . S
C684 H700 0.931 . S
C685 C684 1.391 . S
C685 C689 1.376 . S
C686 C684 1.394 . S
C686 C687 1.369 . S
C686 C690 1.531 . S
C687 C686 1.369 . S
C687 C688 1.410 . S
C687 C695 1.503 . S
C688 C687 1.410 . S
C688 C689 1.392 . S
C688 C691 1.511 . S
C689 C685 1.376 . S
C689 C688 1.392 . S
C689 H701 0.929 . S
C690 C686 1.531 . S
C690 H702 0.960 . S
C690 H703 0.962 . S
C690 H704 0.960 . S
C691 C688 1.511 . S
C691 H705 0.961 . S
C691 H706 0.961 . S
C691 H707 0.961 . S
C692 C693 1.370 . S
C692 C694 1.363 . S
C692 H708 0.931 . S
C693 C692 1.370 . S
C693 C697 1.408 . S
C694 C692 1.363 . S
C694 C695 1.370 . S
C694 C698 1.524 . S
C695 C687 1.503 . S
C695 C694 1.370 . S
C695 C696 1.403 . S
C696 C695 1.403 . S
C696 C697 1.404 . S
C696 C699 1.539 . S
C697 C693 1.408 . S
C697 C696 1.404 . S
C697 H709 0.930 . S
C698 C694 1.524 . S
C698 H710 0.956 . S
C698 H711 0.961 . S
C698 H712 0.961 . S
C699 C696 1.539 . S
C699 H713 0.958 . S
C699 H714 0.961 . S
C699 H715 0.960 . S
H700 C684 0.931 . S
H701 C689 0.929 . S
H702 C690 0.960 . S
H703 C690 0.962 . S
H704 C690 0.960 . S
H705 C691 0.961 . S
H706 C691 0.961 . S
H707 C691 0.961 . S
H708 C692 0.931 . S
H709 C697 0.930 . S
H710 C698 0.956 . S
H711 C698 0.961 . S
H712 C698 0.961 . S
H713 C699 0.958 . S
H714 C699 0.961 . S
H715 C699 0.960 . S
C716 C717 1.391 . S
C716 C718 1.394 . S
C716 H732 0.931 . S
C717 C716 1.391 . S
C717 C721 1.376 . S
C718 C716 1.394 . S
C718 C719 1.369 . S
C718 C722 1.531 . S
C719 C718 1.369 . S
C719 C720 1.410 . S
C719 C727 1.503 . S
C720 C719 1.410 . S
C720 C721 1.392 . S
C720 C723 1.511 . S
C721 C717 1.376 . S
C721 C720 1.392 . S
C721 H733 0.929 . S
C722 C718 1.531 . S
C722 H734 0.960 . S
C722 H735 0.962 . S
C722 H736 0.960 . S
C723 C720 1.511 . S
C723 H737 0.961 . S
C723 H738 0.961 . S
C723 H739 0.961 . S
C724 C725 1.370 . S
C724 C726 1.363 . S
C724 H740 0.931 . S
C725 C724 1.370 . S
C725 C729 1.408 . S
C726 C724 1.363 . S
C726 C727 1.370 . S
C726 C730 1.524 . S
C727 C719 1.503 . S
C727 C726 1.370 . S
C727 C728 1.403 . S
C728 C727 1.403 . S
C728 C729 1.404 . S
C728 C731 1.539 . S
C729 C725 1.408 . S
C729 C728 1.404 . S
C729 H741 0.930 . S
C730 C726 1.524 . S
C730 H742 0.956 . S
C730 H743 0.961 . S
C730 H744 0.961 . S
C731 C728 1.539 . S
C731 H745 0.958 . S
C731 H746 0.961 . S
C731 H747 0.960 . S
H732 C716 0.931 . S
H733 C721 0.929 . S
H734 C722 0.960 . S
H735 C722 0.962 . S
H736 C722 0.960 . S
H737 C723 0.961 . S
H738 C723 0.961 . S
H739 C723 0.961 . S
H740 C724 0.931 . S
H741 C729 0.930 . S
H742 C730 0.956 . S
H743 C730 0.961 . S
H744 C730 0.961 . S
H745 C731 0.958 . S
H746 C731 0.961 . S
H747 C731 0.960 . S
C748 C749 1.391 . S
C748 C750 1.394 . S
C748 H764 0.931 . S
C749 C748 1.391 . S
C749 C753 1.376 . S
C750 C748 1.394 . S
C750 C751 1.369 . S
C750 C754 1.531 . S
C751 C750 1.369 . S
C751 C752 1.410 . S
C751 C759 1.503 . S
C752 C751 1.410 . S
C752 C753 1.392 . S
C752 C755 1.511 . S
C753 C749 1.376 . S
C753 C752 1.392 . S
C753 H765 0.929 . S
C754 C750 1.531 . S
C754 H766 0.960 . S
C754 H767 0.962 . S
C754 H768 0.960 . S
C755 C752 1.511 . S
C755 H769 0.961 . S
C755 H770 0.961 . S
C755 H771 0.961 . S
C756 C757 1.370 . S
C756 C758 1.363 . S
C756 H772 0.931 . S
C757 C756 1.370 . S
C757 C761 1.408 . S
C758 C756 1.363 . S
C758 C759 1.370 . S
C758 C762 1.524 . S
C759 C751 1.503 . S
C759 C758 1.370 . S
C759 C760 1.403 . S
C760 C759 1.403 . S
C760 C761 1.404 . S
C760 C763 1.539 . S
C761 C757 1.408 . S
C761 C760 1.404 . S
C761 H773 0.930 . S
C762 C758 1.524 . S
C762 H774 0.956 . S
C762 H775 0.961 . S
C762 H776 0.961 . S
C763 C760 1.539 . S
C763 H777 0.958 . S
C763 H778 0.961 . S
C763 H779 0.960 . S
H764 C748 0.931 . S
H765 C753 0.929 . S
H766 C754 0.960 . S
H767 C754 0.962 . S
H768 C754 0.960 . S
H769 C755 0.961 . S
H770 C755 0.961 . S
H771 C755 0.961 . S
H772 C756 0.931 . S
H773 C761 0.930 . S
H774 C762 0.956 . S
H775 C762 0.961 . S
H776 C762 0.961 . S
H777 C763 0.958 . S
H778 C763 0.961 . S
H779 C763 0.960 . S
C205 C170 1.380 . S
C213 C8 1.373 . S
C237 C0 1.376 . S
C245 C34 1.382 . S
C269 C42 1.351 . S
C277 C76 1.364 . S
C301 C102 1.387 . S
C309 C68 1.394 . S
C333 C165 1.390 . S
C341 C110 1.377 . S
C365 C153 1.365 . S
C373 C178 1.373 . S
C397 C144 1.484 . S
C405 C17 1.485 . S
C429 C199 1.456 . S
C437 C63 1.469 . S
C461 C85 1.471 . S
C469 C29 1.472 . S
C493 C131 1.475 . S
C501 C51 1.475 . S
C525 C136 1.479 . S
C533 C97 1.475 . S
C557 C119 1.484 . S
C565 C187 1.485 . S
C589 C13 1.496 . S
C597 C4 1.498 . S
C621 C38 1.502 . S
C629 C47 1.497 . S
C653 C81 1.488 . S
C661 C72 1.507 . S
C685 C106 1.508 . S
C693 C115 1.504 . S
C717 C149 1.494 . S
C725 C140 1.498 . S
C749 C183 1.505 . S
C757 C174 1.502 . S
