# Generated by pormake.
# Topology upc, (4)-cn, num edge types: 1
# Building blocks:
#     Node 0, Type 0, BuildingBlock: QUQFOY_clean_sbu_1, # of connection points: 4
#     Node 1, Type 0, BuildingBlock: QUQFOY_clean_sbu_1, # of connection points: 4
#     Node 2, Type 0, BuildingBlock: QUQFOY_clean_sbu_1, # of connection points: 4
#     Node 3, Type 0, BuildingBlock: QUQFOY_clean_sbu_1, # of connection points: 4
#     Node 4, Type 0, BuildingBlock: QUQFOY_clean_sbu_1, # of connection points: 4
#     Node 5, Type 0, BuildingBlock: QUQFOY_clean_sbu_1, # of connection points: 4
#     Node 6, Type 0, BuildingBlock: QUQFOY_clean_sbu_1, # of connection points: 4
#     Node 7, Type 0, BuildingBlock: QUQFOY_clean_sbu_1, # of connection points: 4
#     Node 8, Type 0, BuildingBlock: QUQFOY_clean_sbu_1, # of connection points: 4
#     Node 9, Type 0, BuildingBlock: QUQFOY_clean_sbu_1, # of connection points: 4
#     Node 10, Type 0, BuildingBlock: QUQFOY_clean_sbu_1, # of connection points: 4
#     Node 11, Type 0, BuildingBlock: QUQFOY_clean_sbu_1, # of connection points: 4
#     Node 12, Type 0, BuildingBlock: QUQFOY_clean_sbu_1, # of connection points: 4
#     Node 13, Type 0, BuildingBlock: QUQFOY_clean_sbu_1, # of connection points: 4
#     Node 14, Type 0, BuildingBlock: QUQFOY_clean_sbu_1, # of connection points: 4
#     Node 15, Type 0, BuildingBlock: QUQFOY_clean_sbu_1, # of connection points: 4
#     Edge 16, Type (0, 0), BuildingBlock: XUDNAN_clean_linker_2, # of connection points: 2
#     Edge 17, Type (0, 0), BuildingBlock: XUDNAN_clean_linker_2, # of connection points: 2
#     Edge 18, Type (0, 0), BuildingBlock: XUDNAN_clean_linker_2, # of connection points: 2
#     Edge 19, Type (0, 0), BuildingBlock: XUDNAN_clean_linker_2, # of connection points: 2
#     Edge 20, Type (0, 0), BuildingBlock: XUDNAN_clean_linker_2, # of connection points: 2
#     Edge 21, Type (0, 0), BuildingBlock: XUDNAN_clean_linker_2, # of connection points: 2
#     Edge 22, Type (0, 0), BuildingBlock: XUDNAN_clean_linker_2, # of connection points: 2
#     Edge 23, Type (0, 0), BuildingBlock: XUDNAN_clean_linker_2, # of connection points: 2
#     Edge 24, Type (0, 0), BuildingBlock: XUDNAN_clean_linker_2, # of connection points: 2
#     Edge 25, Type (0, 0), BuildingBlock: XUDNAN_clean_linker_2, # of connection points: 2
#     Edge 26, Type (0, 0), BuildingBlock: XUDNAN_clean_linker_2, # of connection points: 2
#     Edge 27, Type (0, 0), BuildingBlock: XUDNAN_clean_linker_2, # of connection points: 2
#     Edge 28, Type (0, 0), BuildingBlock: XUDNAN_clean_linker_2, # of connection points: 2
#     Edge 29, Type (0, 0), BuildingBlock: XUDNAN_clean_linker_2, # of connection points: 2
#     Edge 30, Type (0, 0), BuildingBlock: XUDNAN_clean_linker_2, # of connection points: 2
#     Edge 31, Type (0, 0), BuildingBlock: XUDNAN_clean_linker_2, # of connection points: 2
#     Edge 32, Type (0, 0), BuildingBlock: XUDNAN_clean_linker_2, # of connection points: 2
#     Edge 33, Type (0, 0), BuildingBlock: XUDNAN_clean_linker_2, # of connection points: 2
#     Edge 34, Type (0, 0), BuildingBlock: XUDNAN_clean_linker_2, # of connection points: 2
#     Edge 35, Type (0, 0), BuildingBlock: XUDNAN_clean_linker_2, # of connection points: 2
#     Edge 36, Type (0, 0), BuildingBlock: XUDNAN_clean_linker_2, # of connection points: 2
#     Edge 37, Type (0, 0), BuildingBlock: XUDNAN_clean_linker_2, # of connection points: 2
#     Edge 38, Type (0, 0), BuildingBlock: XUDNAN_clean_linker_2, # of connection points: 2
#     Edge 39, Type (0, 0), BuildingBlock: XUDNAN_clean_linker_2, # of connection points: 2
#     Edge 40, Type (0, 0), BuildingBlock: XUDNAN_clean_linker_2, # of connection points: 2
#     Edge 41, Type (0, 0), BuildingBlock: XUDNAN_clean_linker_2, # of connection points: 2
#     Edge 42, Type (0, 0), BuildingBlock: XUDNAN_clean_linker_2, # of connection points: 2
#     Edge 43, Type (0, 0), BuildingBlock: XUDNAN_clean_linker_2, # of connection points: 2
#     Edge 44, Type (0, 0), BuildingBlock: XUDNAN_clean_linker_2, # of connection points: 2
#     Edge 45, Type (0, 0), BuildingBlock: XUDNAN_clean_linker_2, # of connection points: 2
#     Edge 46, Type (0, 0), BuildingBlock: XUDNAN_clean_linker_2, # of connection points: 2
#     Edge 47, Type (0, 0), BuildingBlock: XUDNAN_clean_linker_2, # of connection points: 2
# Relax obj value: 0.087
# Max RMSD: 0.197
# Mean RMSD: 0.197
data_MOF--net-upc--node1-QUQFOY_clean_sbu_1--edge1-XUDNAN_clean_linker_2
_symmetry_space_group_name_H-M    P1
_symmetry_Int_Tables_number       1
_symmetry_cell_setting            triclinic
loop_
_symmetry_equiv_pos_as_xyz
'x, y, z'
_cell_length_a     36.740007
_cell_length_b     36.727396
_cell_length_c     43.854558
_cell_angle_alpha  89.976194
_cell_angle_beta   90.014933
_cell_angle_gamma 90.081519
loop_
_atom_site_label
_atom_site_type_symbol
_atom_site_fract_x
_atom_site_fract_y
_atom_site_fract_z
_atom_type_partial_charge
O0 O 0.05726 0.52685 0.14817 0.0
Cd1 Cd 0.04582 0.56754 0.11753 0.0
Cd2 Cd 0.11152 0.59546 0.14739 0.0
O3 O 0.10932 0.54502 0.16881 0.0
O4 O 0.01301 0.54425 0.08688 0.0
O5 O 0.06865 0.5635 0.07608 0.0
C6 C 0.03925 0.54702 0.06747 0.0
C7 C 0.16562 0.62875 0.14081 0.0
C8 C 0.08381 0.52168 0.16623 0.0
C9 C 0.03813 0.63657 0.15132 0.0
O10 O 0.07136 0.63169 0.15792 0.0
O11 O 0.02108 0.61433 0.13431 0.0
O12 O 0.15281 0.62163 0.16746 0.0
O13 O 0.14969 0.61384 0.1177 0.0
O14 O 0.974 0.07289 0.16265 0.0
Cd15 Cd 0.92983 0.07044 0.13349 0.0
Cd16 Cd 0.91217 0.12579 0.17023 0.0
O17 O 0.96551 0.12638 0.18449 0.0
O18 O 0.94811 0.03851 0.1001 0.0
O19 O 0.9356 0.09691 0.09364 0.0
C20 C 0.94856 0.06688 0.08277 0.0
C21 C 0.87679 0.17575 0.15621 0.0
C22 C 0.98513 0.09847 0.17982 0.0
C23 C 0.86877 0.05753 0.17571 0.0
O24 O 0.88129 0.08539 0.18919 0.0
O25 O 0.88103 0.04846 0.14966 0.0
O26 O 0.88666 0.1706 0.18412 0.0
O27 O 0.88984 0.1542 0.13563 0.0
O28 O 0.42651 0.94391 0.17497 0.0
Cd29 Cd 0.44462 0.8992 0.15104 0.0
Cd30 Cd 0.37655 0.87718 0.17644 0.0
O31 O 0.36958 0.93134 0.18767 0.0
O32 O 0.48963 0.92023 0.13261 0.0
O33 O 0.44209 0.90399 0.10505 0.0
C34 C 0.47376 0.91921 0.10647 0.0
C35 C 0.33105 0.83847 0.15766 0.0
C36 C 0.3962 0.95342 0.18636 0.0
C37 C 0.4463 0.84124 0.19833 0.0
O38 O 0.41325 0.8497 0.20292 0.0
O39 O 0.46367 0.85468 0.17588 0.0
O40 O 0.33036 0.85039 0.1853 0.0
O41 O 0.35614 0.8509 0.13978 0.0
O42 O 0.55678 0.43196 0.16582 0.0
Cd43 Cd 0.6035 0.44667 0.14285 0.0
Cd44 Cd 0.62354 0.38272 0.16946 0.0
O45 O 0.5692 0.37543 0.17953 0.0
O46 O 0.58523 0.48383 0.11351 0.0
O47 O 0.60717 0.43043 0.09919 0.0
C48 C 0.59128 0.46065 0.09203 0.0
C49 C 0.66343 0.33655 0.15416 0.0
C50 C 0.54704 0.40189 0.17764 0.0
C51 C 0.65724 0.4533 0.19204 0.0
O52 O 0.64913 0.42014 0.19657 0.0
O53 O 0.64522 0.46986 0.16863 0.0
O54 O 0.64977 0.33733 0.18121 0.0
O55 O 0.65211 0.36048 0.13475 0.0
O56 O 0.06623 0.9296 0.31988 0.0
Cd57 Cd 0.04862 0.88405 0.34316 0.0
Cd58 Cd 0.11684 0.86332 0.32048 0.0
O59 O 0.12397 0.91765 0.3102 0.0
O60 O 0.00363 0.90347 0.36257 0.0
O61 O 0.05171 0.88672 0.38923 0.0
C62 C 0.01974 0.90129 0.38856 0.0
C63 C 0.16329 0.82585 0.33928 0.0
C64 C 0.09716 0.93948 0.30982 0.0
C65 C 0.04862 0.82743 0.29524 0.0
O66 O 0.08192 0.83593 0.2921 0.0
O67 O 0.03014 0.84025 0.31727 0.0
O68 O 0.1639 0.83832 0.31181 0.0
O69 O 0.13735 0.83668 0.35698 0.0
O70 O 0.55246 0.0626 0.31823 0.0
Cd71 Cd 0.5985 0.05066 0.34323 0.0
Cd72 Cd 0.61552 0.11586 0.31354 0.0
O73 O 0.56084 0.11928 0.30302 0.0
O74 O 0.5815 0.00563 0.36427 0.0
O75 O 0.59357 0.05651 0.38898 0.0
C76 C 0.58134 0.02353 0.38947 0.0
C77 C 0.65108 0.16304 0.33348 0.0
C78 C 0.54063 0.09129 0.30541 0.0
C79 C 0.65635 0.04853 0.29587 0.0
O80 O 0.64496 0.07967 0.28782 0.0
O81 O 0.64492 0.03351 0.32018 0.0
O82 O 0.64 0.16345 0.30556 0.0
O83 O 0.6397 0.13696 0.35087 0.0
O84 O 0.45354 0.53009 0.33823 0.0
Cd85 Cd 0.47118 0.56979 0.36773 0.0
Cd86 Cd 0.39683 0.59675 0.347 0.0
O87 O 0.39748 0.54639 0.3255 0.0
O88 O 0.5143 0.54687 0.38763 0.0
O89 O 0.46416 0.56096 0.41277 0.0
C90 C 0.49617 0.54639 0.41277 0.0
C91 C 0.34174 0.6278 0.35513 0.0
C92 C 0.42392 0.52408 0.32408 0.0
C93 C 0.46841 0.64081 0.33578 0.0
O94 O 0.43448 0.63479 0.33385 0.0
O95 O 0.48949 0.61839 0.34897 0.0
O96 O 0.35369 0.62096 0.32821 0.0
O97 O 0.35939 0.61412 0.37786 0.0
O98 O 0.95398 0.44764 0.34008 0.0
Cd99 Cd 0.91677 0.46817 0.37032 0.0
Cd100 Cd 0.8839 0.39467 0.34936 0.0
O101 O 0.93422 0.39254 0.32772 0.0
O102 O 0.94338 0.51124 0.38692 0.0
O103 O 0.92837 0.46391 0.41529 0.0
C104 C 0.94479 0.4949 0.41287 0.0
C105 C 0.8495 0.34095 0.35623 0.0
C106 C 0.95798 0.41775 0.32589 0.0
C107 C 0.84523 0.46964 0.33885 0.0
O108 O 0.84875 0.43535 0.33678 0.0
O109 O 0.86913 0.4891 0.35203 0.0
O110 O 0.85702 0.35353 0.32962 0.0
O111 O 0.86393 0.35725 0.37934 0.0
O112 O 0.93384 0.44379 0.8122 0.0
Cd113 Cd 0.94831 0.39684 0.835 0.0
Cd114 Cd 0.88064 0.38042 0.81002 0.0
O115 O 0.87598 0.43518 0.8007 0.0
O116 O 0.99434 0.4135 0.85479 0.0
O117 O 0.94516 0.39939 0.88111 0.0
C118 C 0.97792 0.41219 0.88069 0.0
C119 C 0.8346 0.34475 0.83148 0.0
C120 C 0.90389 0.45561 0.8016 0.0
C121 C 0.94634 0.34099 0.7858 0.0
O122 O 0.91407 0.35198 0.78114 0.0
O123 O 0.96413 0.35201 0.80895 0.0
O124 O 0.83222 0.35698 0.80398 0.0
O125 O 0.86226 0.35483 0.84766 0.0
O126 O 0.05438 0.96852 0.83042 0.0
Cd127 Cd 0.10208 0.98344 0.85174 0.0
Cd128 Cd 0.11681 0.91342 0.83014 0.0
O129 O 0.0619 0.90985 0.82114 0.0
O130 O 0.08669 0.02942 0.87212 0.0
O131 O 0.10126 0.97971 0.89769 0.0
C132 C 0.08861 0.01252 0.8978 0.0
C133 C 0.15188 0.8653 0.84904 0.0
C134 C 0.04199 0.9381 0.8213 0.0
C135 C 0.15655 0.97797 0.8023 0.0
O136 O 0.14559 0.94527 0.80035 0.0
O137 O 0.14587 0.99818 0.82409 0.0
O138 O 0.13816 0.86451 0.82201 0.0
O139 O 0.14344 0.89242 0.86641 0.0
O140 O 0.54514 0.04893 0.84699 0.0
Cd141 Cd 0.53369 0.09033 0.87685 0.0
Cd142 Cd 0.60096 0.11625 0.84938 0.0
O143 O 0.59895 0.06546 0.82878 0.0
O144 O 0.5008 0.06777 0.90769 0.0
O145 O 0.55683 0.08635 0.91811 0.0
C146 C 0.5274 0.07 0.92683 0.0
C147 C 0.65595 0.14789 0.85549 0.0
C148 C 0.57283 0.04274 0.83046 0.0
C149 C 0.52893 0.15943 0.84299 0.0
O150 O 0.56228 0.15362 0.83747 0.0
O151 O 0.51056 0.13768 0.85948 0.0
O152 O 0.6428 0.14068 0.829 0.0
O153 O 0.63967 0.13409 0.8789 0.0
O154 O 0.4569 0.58487 0.84298 0.0
Cd155 Cd 0.41977 0.55947 0.87075 0.0
Cd156 Cd 0.38281 0.63172 0.85038 0.0
O157 O 0.43221 0.63704 0.82801 0.0
O158 O 0.44838 0.51628 0.88451 0.0
O159 O 0.43034 0.55939 0.91606 0.0
C160 C 0.44842 0.52973 0.91161 0.0
C161 C 0.3476 0.68397 0.85988 0.0
C162 C 0.45853 0.6146 0.82825 0.0
C163 C 0.34816 0.55542 0.83835 0.0
O164 O 0.34915 0.58995 0.83746 0.0
O165 O 0.37367 0.53714 0.85054 0.0
O166 O 0.35377 0.67247 0.8327 0.0
O167 O 0.3635 0.6672 0.88205 0.0
O168 O 0.94169 0.05383 0.65165 0.0
Cd169 Cd 0.96412 0.08139 0.61481 0.0
Cd170 Cd 0.89662 0.13635 0.65517 0.0
O171 O 0.89964 0.08614 0.67697 0.0
O172 O 0.99303 0.04748 0.5889 0.0
O173 O 0.94112 0.073 0.57423 0.0
C174 C 0.96777 0.05099 0.56857 0.0
C175 C 0.85447 0.17994 0.66975 0.0
C176 C 0.91844 0.05719 0.67316 0.0
C177 C 0.96813 0.15367 0.63085 0.0
O178 O 0.9355 0.14691 0.62323 0.0
O179 O 0.99128 0.12917 0.62509 0.0
O180 O 0.8854 0.17691 0.68364 0.0
O181 O 0.84751 0.15797 0.64743 0.0
O182 O 0.45471 0.95423 0.65527 0.0
Cd183 Cd 0.4162 0.96672 0.62319 0.0
Cd184 Cd 0.38646 0.90028 0.64733 0.0
O185 O 0.43616 0.89962 0.66989 0.0
O186 O 0.44128 0.99811 0.59265 0.0
O187 O 0.421 0.94255 0.58248 0.0
C188 C 0.43855 0.9713 0.57375 0.0
C189 C 0.3532 0.84632 0.63971 0.0
C190 C 0.45915 0.92557 0.67108 0.0
C191 C 0.34612 0.97405 0.65431 0.0
O192 O 0.35019 0.94025 0.65916 0.0
O193 O 0.3694 0.99188 0.63894 0.0
O194 O 0.35976 0.85885 0.66652 0.0
O195 O 0.36826 0.86269 0.61691 0.0
O196 O 0.55796 0.46494 0.68311 0.0
Cd197 Cd 0.55368 0.41626 0.66006 0.0
Cd198 Cd 0.61652 0.40519 0.69315 0.0
O199 O 0.61475 0.46093 0.699 0.0
O200 O 0.52056 0.42802 0.62546 0.0
O201 O 0.57862 0.41369 0.61937 0.0
C202 C 0.54826 0.42466 0.60761 0.0
C203 C 0.6721 0.37388 0.69071 0.0
C204 C 0.58574 0.4793 0.69555 0.0
C205 C 0.54803 0.36209 0.70903 0.0
O206 O 0.5787 0.37512 0.71683 0.0
O207 O 0.53341 0.37174 0.684 0.0
O208 O 0.6617 0.39038 0.71506 0.0
O209 O 0.652 0.37714 0.6667 0.0
O210 O 0.05072 0.57305 0.67082 0.0
Cd211 Cd 0.09852 0.56318 0.64765 0.0
Cd212 Cd 0.11334 0.6268 0.67448 0.0
O213 O 0.05852 0.63057 0.68402 0.0
O214 O 0.08352 0.52728 0.61595 0.0
O215 O 0.10105 0.58357 0.60527 0.0
C216 C 0.08757 0.55291 0.5961 0.0
C217 C 0.14983 0.67352 0.65524 0.0
C218 C 0.0385 0.60243 0.68214 0.0
C219 C 0.15311 0.5599 0.69648 0.0
O220 O 0.14176 0.59187 0.70196 0.0
O221 O 0.14255 0.54321 0.67262 0.0
O222 O 0.13717 0.67459 0.68265 0.0
O223 O 0.13935 0.64713 0.6378 0.0
H224 H 0.19375 0.67343 0.18473 0.0
H225 H 0.20146 0.64863 0.08821 0.0
H226 H 0.24401 0.70041 0.0815 0.0
H227 H 0.19231 0.76912 0.17674 0.0
H228 H 0.21878 0.77791 0.21058 0.0
H229 H 0.19116 0.7375 0.20818 0.0
H230 H 0.24754 0.69696 0.21896 0.0
H231 H 0.27482 0.73751 0.22245 0.0
H232 H 0.2878 0.70235 0.19593 0.0
H233 H 0.28494 0.75638 0.08551 0.0
H234 H 0.32198 0.80998 0.10014 0.0
H235 H 0.28473 0.79877 0.19359 0.0
C236 C 0.20486 0.67837 0.16223 0.0
C237 C 0.19454 0.65665 0.13702 0.0
C238 C 0.20922 0.66464 0.1079 0.0
C239 C 0.23328 0.6941 0.10387 0.0
C240 C 0.24218 0.71546 0.12913 0.0
C241 C 0.22851 0.70778 0.15778 0.0
C242 C 0.24131 0.73539 0.18111 0.0
C243 C 0.20896 0.75621 0.19494 0.0
C244 C 0.26425 0.71696 0.20608 0.0
C245 C 0.2644 0.75989 0.16115 0.0
C246 C 0.26469 0.74796 0.13125 0.0
C247 C 0.28482 0.76596 0.10884 0.0
C248 C 0.30567 0.79647 0.11734 0.0
C249 C 0.30608 0.80884 0.14794 0.0
C250 C 0.28472 0.7904 0.16992 0.0
H251 H 0.83114 0.20947 0.19616 0.0
H252 H 0.8562 0.20149 0.09974 0.0
H253 H 0.80375 0.24157 0.08803 0.0
H254 H 0.73509 0.20438 0.18757 0.0
H255 H 0.72617 0.2352 0.21866 0.0
H256 H 0.76694 0.20802 0.21866 0.0
H257 H 0.80624 0.26714 0.22388 0.0
H258 H 0.7649 0.29343 0.22446 0.0
H259 H 0.79983 0.30348 0.19683 0.0
H260 H 0.74732 0.28271 0.08741 0.0
H261 H 0.69283 0.32046 0.09794 0.0
H262 H 0.70387 0.29711 0.1945 0.0
C263 C 0.82612 0.21666 0.17258 0.0
C264 C 0.84811 0.20275 0.14887 0.0
C265 C 0.83993 0.21213 0.11829 0.0
C266 C 0.81014 0.23478 0.11143 0.0
C267 C 0.78857 0.24742 0.1354 0.0
C268 C 0.79628 0.23861 0.16535 0.0
C269 C 0.76821 0.25414 0.18695 0.0
C270 C 0.7479 0.22362 0.20396 0.0
C271 C 0.78583 0.28116 0.20935 0.0
C272 C 0.74349 0.27334 0.16457 0.0
C273 C 0.75565 0.26941 0.13493 0.0
C274 C 0.73751 0.28576 0.11053 0.0
C275 C 0.70653 0.30705 0.1167 0.0
C276 C 0.6938 0.31142 0.14697 0.0
C277 C 0.71246 0.2939 0.17103 0.0
H278 H 0.21148 0.78908 0.30328 0.0
H279 H 0.17398 0.79778 0.39682 0.0
H280 H 0.2147 0.74694 0.41142 0.0
H281 H 0.21478 0.69283 0.3011 0.0
H282 H 0.25496 0.69057 0.27764 0.0
H283 H 0.22486 0.72906 0.27465 0.0
H284 H 0.278 0.77326 0.28602 0.0
H285 H 0.30862 0.73514 0.28823 0.0
H286 H 0.3054 0.76655 0.31967 0.0
H287 H 0.25994 0.69424 0.41537 0.0
H288 H 0.30586 0.64555 0.40831 0.0
H289 H 0.3104 0.67064 0.31168 0.0
C290 C 0.21213 0.78073 0.32696 0.0
C291 C 0.18973 0.79765 0.34899 0.0
C292 C 0.19105 0.78537 0.3796 0.0
C293 C 0.21402 0.75646 0.38807 0.0
C294 C 0.23528 0.73997 0.36562 0.0
C295 C 0.23452 0.75179 0.33569 0.0
C296 C 0.25908 0.72901 0.31564 0.0
C297 C 0.23709 0.70921 0.2908 0.0
C298 C 0.28958 0.75239 0.30158 0.0
C299 C 0.27393 0.70253 0.33894 0.0
C300 C 0.26008 0.70924 0.36768 0.0
C301 C 0.27079 0.68867 0.39292 0.0
C302 C 0.29676 0.66097 0.38869 0.0
C303 C 0.31144 0.65395 0.35942 0.0
C304 C 0.29937 0.67484 0.3343 0.0
H305 H 0.80936 0.30881 0.31125 0.0
H306 H 0.82712 0.30685 0.40907 0.0
H307 H 0.77738 0.26162 0.41451 0.0
H308 H 0.71325 0.30435 0.31324 0.0
H309 H 0.70962 0.27564 0.28002 0.0
H310 H 0.74773 0.30611 0.28404 0.0
H311 H 0.79218 0.25182 0.27787 0.0
H312 H 0.75409 0.22124 0.27381 0.0
H313 H 0.78795 0.21292 0.30267 0.0
H314 H 0.72449 0.21651 0.40871 0.0
H315 H 0.67465 0.17545 0.39219 0.0
H316 H 0.69095 0.2101 0.29858 0.0
C317 C 0.80322 0.2986 0.33385 0.0
C318 C 0.82239 0.31122 0.35974 0.0
C319 C 0.81303 0.29739 0.38888 0.0
C320 C 0.78471 0.27181 0.39218 0.0
C321 C 0.76592 0.2605 0.36616 0.0
C322 C 0.77497 0.27344 0.33755 0.0
C323 C 0.75044 0.25764 0.31318 0.0
C324 C 0.72899 0.28773 0.29667 0.0
C325 C 0.77249 0.23454 0.29054 0.0
C326 C 0.72574 0.23406 0.3325 0.0
C327 C 0.73519 0.23574 0.36298 0.0
C328 C 0.71681 0.21518 0.38491 0.0
C329 C 0.68848 0.192 0.37534 0.0
C330 C 0.67858 0.18981 0.34416 0.0
C331 C 0.69737 0.21151 0.32266 0.0
H332 H 0.7789 0.31314 0.79972 0.0
H333 H 0.83115 0.31347 0.88847 0.0
H334 H 0.79087 0.26308 0.90502 0.0
H335 H 0.68689 0.2915 0.82644 0.0
H336 H 0.67747 0.26323 0.7938 0.0
H337 H 0.70838 0.3011 0.79035 0.0
H338 H 0.75705 0.25748 0.76966 0.0
H339 H 0.72758 0.21881 0.77409 0.0
H340 H 0.77167 0.2191 0.79218 0.0
H341 H 0.74541 0.21062 0.91101 0.0
H342 H 0.69876 0.16204 0.90585 0.0
H343 H 0.67952 0.19556 0.81236 0.0
C344 C 0.78155 0.30312 0.82283 0.0
C345 C 0.80808 0.31745 0.84286 0.0
C346 C 0.81087 0.3031 0.87278 0.0
C347 C 0.78816 0.27442 0.88235 0.0
C348 C 0.76285 0.26038 0.86173 0.0
C349 C 0.75933 0.27448 0.83263 0.0
C350 C 0.73103 0.25393 0.81438 0.0
C351 C 0.69905 0.27893 0.80576 0.0
C352 C 0.74789 0.23624 0.78592 0.0
C353 C 0.71965 0.22557 0.8375 0.0
C354 C 0.73787 0.22985 0.86482 0.0
C355 C 0.73109 0.20701 0.88966 0.0
C356 C 0.7047 0.17941 0.88651 0.0
C357 C 0.68593 0.17463 0.85859 0.0
C358 C 0.69386 0.19798 0.83385 0.0
H359 H 0.30063 0.71278 0.81831 0.0
H360 H 0.33289 0.72074 0.91327 0.0
H361 H 0.28488 0.76706 0.92171 0.0
H362 H 0.27953 0.80711 0.80616 0.0
H363 H 0.24109 0.79722 0.78197 0.0
H364 H 0.27864 0.76591 0.78383 0.0
H365 H 0.23412 0.71406 0.7986 0.0
H366 H 0.19649 0.74537 0.79718 0.0
H367 H 0.20501 0.71946 0.83137 0.0
H368 H 0.23303 0.81338 0.91909 0.0
H369 H 0.18285 0.85546 0.90564 0.0
H370 H 0.18388 0.81388 0.81303 0.0
C371 C 0.29797 0.72449 0.84086 0.0
C372 C 0.32077 0.7134 0.8651 0.0
C373 C 0.31588 0.72902 0.89433 0.0
C374 C 0.28863 0.75524 0.89933 0.0
C375 C 0.26633 0.76521 0.87494 0.0
C376 C 0.27078 0.75022 0.84628 0.0
C377 C 0.243 0.76478 0.82392 0.0
C378 C 0.26169 0.78497 0.79743 0.0
C379 C 0.21819 0.73409 0.81209 0.0
C380 C 0.22235 0.79072 0.84435 0.0
C381 C 0.23611 0.79069 0.87369 0.0
C382 C 0.22193 0.81342 0.89624 0.0
C383 C 0.19337 0.83715 0.88842 0.0
C384 C 0.17918 0.83776 0.85838 0.0
C385 C 0.1937 0.8138 0.83632 0.0
H386 H 0.69683 0.32749 0.64579 0.0
H387 H 0.71902 0.36382 0.73819 0.0
H388 H 0.76757 0.31804 0.7427 0.0
H389 H 0.7088 0.23346 0.6594 0.0
H390 H 0.73088 0.22387 0.62359 0.0
H391 H 0.6993 0.26118 0.6264 0.0
H392 H 0.74856 0.30588 0.60659 0.0
H393 H 0.7801 0.26859 0.60323 0.0
H394 H 0.79206 0.30802 0.62556 0.0
H395 H 0.81067 0.2656 0.73884 0.0
H396 H 0.84883 0.21289 0.72519 0.0
H397 H 0.80092 0.21142 0.63478 0.0
C398 C 0.71232 0.32621 0.66677 0.0
C399 C 0.70411 0.34938 0.69159 0.0
C400 C 0.72479 0.34652 0.7188 0.0
C401 C 0.75236 0.32044 0.72168 0.0
C402 C 0.75906 0.29738 0.69715 0.0
C403 C 0.74003 0.30026 0.67006 0.0
C404 C 0.75244 0.27167 0.64739 0.0
C405 C 0.72097 0.24603 0.63869 0.0
C406 C 0.7693 0.28962 0.61901 0.0
C407 C 0.781 0.25201 0.66613 0.0
C408 C 0.78429 0.26728 0.6948 0.0
C409 C 0.80835 0.25349 0.71644 0.0
C410 C 0.83001 0.22363 0.70845 0.0
C411 C 0.82835 0.20858 0.67878 0.0
C412 C 0.80294 0.22252 0.65759 0.0
H413 H 0.18545 0.72343 0.69058 0.0
H414 H 0.17987 0.68161 0.59815 0.0
H415 H 0.23212 0.72067 0.58377 0.0
H416 H 0.21128 0.81633 0.67123 0.0
H417 H 0.24116 0.82053 0.70363 0.0
H418 H 0.20201 0.79109 0.70564 0.0
H419 H 0.24385 0.73731 0.72065 0.0
H420 H 0.28321 0.76637 0.71816 0.0
H421 H 0.28121 0.72503 0.69608 0.0
H422 H 0.28636 0.76405 0.58005 0.0
H423 H 0.33641 0.80862 0.58719 0.0
H424 H 0.30714 0.81879 0.68267 0.0
C425 C 0.19474 0.72286 0.66715 0.0
C426 C 0.17833 0.69965 0.64541 0.0
C427 C 0.19182 0.69936 0.61514 0.0
C428 C 0.22157 0.72136 0.6068 0.0
C429 C 0.23762 0.74332 0.62903 0.0
C430 C 0.22451 0.7443 0.65856 0.0
C431 C 0.24707 0.7693 0.67848 0.0
C432 C 0.22401 0.8012 0.69043 0.0
C433 C 0.26489 0.74823 0.70488 0.0
C434 C 0.27513 0.78212 0.6556 0.0
C435 C 0.26921 0.7671 0.62714 0.0
C436 C 0.2913 0.77585 0.60228 0.0
C437 C 0.31974 0.80106 0.60655 0.0
C438 C 0.326 0.81689 0.63553 0.0
C439 C 0.30353 0.80681 0.66031 0.0
H440 H 0.01862 0.46026 0.32375 0.0
H441 H 0.96471 0.37113 0.27723 0.0
H442 H 0.00612 0.37901 0.23345 0.0
H443 H 0.0208 0.51621 0.26644 0.0
H444 H 0.06459 0.53687 0.27328 0.0
H445 H 0.03999 0.51686 0.30429 0.0
H446 H 0.09487 0.47518 0.31662 0.0
H447 H 0.11995 0.49538 0.28554 0.0
H448 H 0.11388 0.4467 0.2872 0.0
H449 H 0.03879 0.4077 0.19048 0.0
H450 H 0.06121 0.45287 0.1533 0.0
H451 H 0.09634 0.52267 0.22712 0.0
C452 C 0.01661 0.44132 0.3049 0.0
C453 C 0.98843 0.41511 0.30387 0.0
C454 C 0.9863 0.39115 0.27869 0.0
C455 C 0.00981 0.39545 0.25369 0.0
C456 C 0.03573 0.4233 0.25453 0.0
C457 C 0.0398 0.44536 0.27986 0.0
C458 C 0.06518 0.47701 0.27339 0.0
C459 C 0.04649 0.51386 0.27969 0.0
C460 C 0.10058 0.47333 0.29178 0.0
C461 C 0.07208 0.47132 0.2397 0.0
C462 C 0.05572 0.43959 0.22943 0.0
C463 C 0.05294 0.43177 0.19839 0.0
C464 C 0.0657 0.45759 0.17739 0.0
C465 C 0.08123 0.49072 0.18749 0.0
C466 C 0.08599 0.49682 0.21896 0.0
H467 H 0.98956 0.09883 0.24104 0.0
H468 H 0.05198 0.07844 0.15935 0.0
H469 H 0.09983 0.04873 0.19004 0.0
H470 H 0.07039 0.10174 0.29899 0.0
H471 H 0.04319 0.07693 0.32619 0.0
H472 H 0.02192 0.10904 0.30067 0.0
H473 H 0.9779 0.0585 0.28219 0.0
H474 H 0.99905 0.02641 0.30725 0.0
H475 H 0.99639 0.01682 0.26699 0.0
H476 H 0.13184 0.00824 0.22608 0.0
H477 H 0.14159 0.95744 0.26201 0.0
H478 H 0.05609 0.99961 0.32001 0.0
C479 C 0.01453 0.09022 0.23009 0.0
C480 C 0.01793 0.0919 0.19816 0.0
C481 C 0.04962 0.07827 0.18398 0.0
C482 C 0.07691 0.0614 0.20129 0.0
C483 C 0.0718 0.05795 0.2327 0.0
C484 C 0.04133 0.07218 0.24704 0.0
C485 C 0.03768 0.05764 0.27923 0.0
C486 C 0.04367 0.08816 0.30265 0.0
C487 C 1.00061 0.03871 0.28414 0.0
C488 C 0.06885 0.03072 0.27983 0.0
C489 C 0.08929 0.03252 0.25339 0.0
C490 C 0.11668 0.00724 0.24721 0.0
C491 C 0.12212 0.97845 0.26779 0.0
C492 C 0.09959 0.97474 0.29374 0.0
C493 C 0.07393 0.00216 0.30047 0.0
H494 H 0.48448 0.04652 0.31967 0.0
H495 H 0.51748 0.12974 0.25538 0.0
H496 H 0.46641 0.11264 0.22171 0.0
H497 H 0.47261 0.98173 0.27165 0.0
H498 H 0.43331 0.96007 0.28836 0.0
H499 H 0.46286 0.98686 0.31173 0.0
H500 H 0.40844 0.02696 0.32837 0.0
H501 H 0.37844 0.99997 0.30489 0.0
H502 H 0.38046 0.04865 0.29992 0.0
H503 H 0.42774 0.07434 0.18888 0.0
H504 H 0.40421 0.02056 0.16151 0.0
H505 H 0.39237 0.96314 0.24688 0.0
C506 C 0.47979 0.06229 0.29917 0.0
C507 C 0.50483 0.08939 0.29007 0.0
C508 C 0.49834 0.10919 0.26297 0.0
C509 C 0.46932 0.09961 0.2437 0.0
C510 C 0.44658 0.07081 0.25227 0.0
C511 C 0.45095 0.05303 0.27985 0.0
C512 C 0.42747 0.01913 0.28157 0.0
C513 C 0.45045 0.98499 0.28869 0.0
C514 C 0.39688 0.02399 0.30508 0.0
C515 C 0.41228 0.01832 0.24947 0.0
C516 C 0.4226 0.04903 0.2332 0.0
C517 C 0.418 0.05107 0.20164 0.0
C518 C 0.40446 0.02046 0.18622 0.0
C519 C 0.39529 0.98847 0.20238 0.0
C520 C 0.3974 0.98812 0.23442 0.0
H521 H 0.53802 0.38451 0.23667 0.0
H522 H 0.48057 0.42313 0.15705 0.0
H523 H 0.42972 0.44347 0.18952 0.0
H524 H 0.45279 0.36677 0.28903 0.0
H525 H 0.47776 0.38486 0.32101 0.0
H526 H 0.50115 0.35929 0.29189 0.0
H527 H 0.54572 0.41318 0.28429 0.0
H528 H 0.52243 0.43895 0.31281 0.0
H529 H 0.52784 0.45755 0.27503 0.0
H530 H 0.39523 0.47514 0.22959 0.0
H531 H 0.38296 0.51726 0.27214 0.0
H532 H 0.46461 0.46244 0.3266 0.0
C533 C 0.51348 0.39489 0.22611 0.0
C534 C 0.51246 0.40129 0.19447 0.0
C535 C 0.48119 0.41711 0.18124 0.0
C536 C 0.45221 0.42874 0.19958 0.0
C537 C 0.45514 0.42474 0.23114 0.0
C538 C 0.48498 0.4078 0.24434 0.0
C539 C 0.48624 0.41465 0.2784 0.0
C540 C 0.47904 0.37928 0.29613 0.0
C541 C 0.52267 0.43215 0.28815 0.0
C542 C 0.45472 0.44086 0.28178 0.0
C543 C 0.436 0.44496 0.25463 0.0
C544 C 0.40896 0.47136 0.25119 0.0
C545 C 0.40212 0.49523 0.27552 0.0
C546 C 0.4229 0.49306 0.30261 0.0
C547 C 0.44812 0.4644 0.30619 0.0
H548 H 0.02721 0.60673 0.74236 0.0
H549 H 0.97259 0.58903 0.65646 0.0
H550 H 0.91894 0.56481 0.68363 0.0
H551 H 0.01143 0.52725 0.76853 0.0
H552 H 0.00491 0.53767 0.80834 0.0
H553 H 0.03088 0.5679 0.78493 0.0
H554 H 0.9885 0.62143 0.79942 0.0
H555 H 0.96233 0.59117 0.82332 0.0
H556 H 0.94005 0.61724 0.79392 0.0
H557 H 0.88056 0.52717 0.71707 0.0
H558 H 0.86465 0.47653 0.75158 0.0
H559 H 0.94588 0.51377 0.81595 0.0
C560 C 0.0028 0.60011 0.72967 0.0
C561 C 0.00315 0.60088 0.6976 0.0
C562 C 0.97205 0.58973 0.68116 0.0
C563 C 0.94151 0.57594 0.69648 0.0
C564 C 0.94279 0.57299 0.72821 0.0
C565 C 0.9727 0.58506 0.7447 0.0
C566 C 0.97176 0.57082 0.77713 0.0
C567 C 0.00677 0.54964 0.78513 0.0
C568 C 0.96525 0.60203 0.79978 0.0
C569 C 0.93888 0.54601 0.77541 0.0
C570 C 0.92137 0.54907 0.74759 0.0
C571 C 0.89336 0.5253 0.73925 0.0
C572 C 0.88438 0.49659 0.75902 0.0
C573 C 0.90408 0.49143 0.78636 0.0
C574 C 0.93018 0.51755 0.79529 0.0
H575 H 0.02811 0.91647 0.76387 0.0
H576 H 0.97855 0.96498 0.84336 0.0
H577 H 0.92727 0.98645 0.81195 0.0
H578 H 0.02061 0.98632 0.72166 0.0
H579 H 0.01108 0.96537 0.68534 0.0
H580 H 0.0343 0.94001 0.71419 0.0
H581 H 0.98525 0.88945 0.71184 0.0
H582 H 0.96191 0.91451 0.68236 0.0
H583 H 0.9379 0.90105 0.7164 0.0
H584 H 0.89367 0.01838 0.77194 0.0
H585 H 0.88197 0.05817 0.72789 0.0
H586 H 0.95422 0.99201 0.67278 0.0
C587 C 0.00502 0.92931 0.77479 0.0
C588 C 0.00647 0.93825 0.80598 0.0
C589 C 0.97721 0.9571 0.81957 0.0
C590 C 0.94799 0.96939 0.80184 0.0
C591 C 0.94866 0.96286 0.7705 0.0
C592 C 0.97626 0.94272 0.75707 0.0
C593 C 0.97565 0.94678 0.72267 0.0
C594 C 0.01256 0.96047 0.7103 0.0
C595 C 0.9645 0.91081 0.70742 0.0
C596 C 0.94606 0.97515 0.71916 0.0
C597 C 0.92969 0.98284 0.7468 0.0
C598 C 0.90546 0.01182 0.75001 0.0
C599 C 0.89905 0.03445 0.72481 0.0
C600 C 0.91734 0.02837 0.69686 0.0
C601 C 0.93959 0.99722 0.69375 0.0
H602 H 0.58848 0.04077 0.77019 0.0
H603 H 0.55082 0.97439 0.84532 0.0
H604 H 0.53237 0.92624 0.80928 0.0
H605 H 0.51629 0.02999 0.72872 0.0
H606 H 0.53701 0.0288 0.69146 0.0
H607 H 0.55995 0.05115 0.72223 0.0
H608 H 0.61662 0.01045 0.71399 0.0
H609 H 0.5938 0.98797 0.6828 0.0
H610 H 0.61179 0.9616 0.71401 0.0
H611 H 0.50384 0.89368 0.76645 0.0
H612 H 0.46507 0.88193 0.72164 0.0
H613 H 0.51821 0.97035 0.67347 0.0
C614 C 0.57841 0.0151 0.77897 0.0
C615 C 0.57179 0.01071 0.81038 0.0
C616 C 0.55669 0.97777 0.82127 0.0
C617 C 0.54628 0.95025 0.80095 0.0
C618 C 0.55094 0.95621 0.76978 0.0
C619 C 0.56696 0.98781 0.7588 0.0
C620 C 0.56165 0.99135 0.72467 0.0
C621 C 0.54257 0.02741 0.71633 0.0
C622 C 0.59814 0.98761 0.70788 0.0
C623 C 0.53744 0.95871 0.71869 0.0
C624 C 0.53289 0.93787 0.74468 0.0
C625 C 0.50797 0.90916 0.74573 0.0
C626 C 0.48599 0.90265 0.72013 0.0
C627 C 0.48858 0.92531 0.69411 0.0
C628 C 0.51588 0.95241 0.69298 0.0
H629 H 0.53164 0.52865 0.68632 0.0
H630 H 0.63044 0.51084 0.73815 0.0
H631 H 0.6148 0.56241 0.77146 0.0
H632 H 0.52568 0.634 0.70136 0.0
H633 H 0.47684 0.63023 0.7038 0.0
H634 H 0.50183 0.6017 0.6777 0.0
H635 H 0.47257 0.54448 0.70207 0.0
H636 H 0.44777 0.57258 0.728 0.0
H637 H 0.47703 0.53725 0.7426 0.0
H638 H 0.57994 0.59859 0.80797 0.0
H639 H 0.53032 0.61684 0.84253 0.0
H640 H 0.45458 0.61584 0.76723 0.0
C641 C 0.55078 0.53675 0.70383 0.0
C642 C 0.58211 0.51566 0.70976 0.0
C643 C 0.60638 0.52671 0.73304 0.0
C644 C 0.59773 0.55615 0.75204 0.0
C645 C 0.56517 0.57479 0.74704 0.0
C646 C 0.54245 0.56607 0.72293 0.0
C647 C 0.5062 0.58544 0.72555 0.0
C648 C 0.50243 0.61459 0.70062 0.0
C649 C 0.47407 0.55831 0.72455 0.0
C650 C 0.51037 0.60285 0.75667 0.0
C651 C 0.54511 0.59756 0.76821 0.0
C652 C 0.55327 0.60449 0.79875 0.0
C653 C 0.52498 0.61496 0.81828 0.0
C654 C 0.48915 0.61884 0.80711 0.0
C655 C 0.48224 0.6148 0.77573 0.0
H656 H 0.0638 0.70462 0.15033 0.0
H657 H 0.97599 0.63875 0.18603 0.0
H658 H 0.96126 0.68745 0.22326 0.0
H659 H 0.09754 0.72898 0.21639 0.0
H660 H 0.11109 0.7747 0.20666 0.0
H661 H 0.10749 0.74087 0.17738 0.0
H662 H 0.06196 0.78103 0.14732 0.0
H663 H 0.06608 0.81571 0.17621 0.0
H664 H 0.02185 0.7982 0.16608 0.0
H665 H 0.96586 0.7375 0.26372 0.0
H666 H 0.98744 0.78381 0.30085 0.0
H667 H 0.07344 0.81454 0.23822 0.0
C668 C 0.04016 0.70145 0.16486 0.0
C669 C 0.02051 0.66852 0.16505 0.0
C670 C 0.99061 0.66436 0.18503 0.0
C671 C 0.98232 0.69179 0.20638 0.0
C672 C 0.00397 0.72315 0.207 0.0
C673 C 0.03186 0.7283 0.18619 0.0
C674 C 0.05478 0.76118 0.194 0.0
C675 C 0.09505 0.75077 0.19891 0.0
C676 C 0.05091 0.79079 0.16945 0.0
C677 C 0.0369 0.77263 0.22343 0.0
C678 C 0.00716 0.75109 0.23042 0.0
C679 C 0.98859 0.75501 0.25806 0.0
C680 C 1.00105 0.78127 0.27906 0.0
C681 C 0.03218 0.80264 0.27245 0.0
C682 C 0.04957 0.79862 0.24398 0.0
H683 H 0.85479 0.05239 0.23612 0.0
H684 H 0.81226 0.02157 0.14766 0.0
H685 H 0.75423 0.00311 0.17195 0.0
H686 H 0.80343 0.98089 0.28262 0.0
H687 H 0.79726 0.01294 0.31329 0.0
H688 H 0.83772 0.01489 0.29007 0.0
H689 H 0.82439 0.08263 0.27789 0.0
H690 H 0.78395 0.08087 0.30072 0.0
H691 H 0.78114 0.09484 0.26138 0.0
H692 H 0.69734 0.00296 0.20363 0.0
H693 H 0.64811 0.01754 0.24019 0.0
H694 H 0.72821 0.04581 0.30844 0.0
C695 C 0.83373 0.04041 0.22202 0.0
C696 C 0.83791 0.03826 0.19007 0.0
C697 C 0.80973 0.02294 0.17224 0.0
C698 C 0.77669 0.01245 0.18588 0.0
C699 C 0.77277 0.0167 0.21739 0.0
C700 C 0.80092 0.02962 0.23531 0.0
C701 C 0.78876 0.03602 0.26785 0.0
C702 C 0.80793 0.0096 0.28975 0.0
C703 C 0.7949 0.07594 0.27748 0.0
C704 C 0.74871 0.02711 0.26509 0.0
C705 C 0.74005 0.01538 0.23595 0.0
C706 C 0.70397 0.01068 0.22679 0.0
C707 C 0.67619 0.01897 0.24763 0.0
C708 C 0.68472 0.03144 0.27726 0.0
C709 C 0.7213 0.03465 0.28632 0.0
H710 H 0.4364 0.70638 0.33658 0.0
H711 H 0.52901 0.64884 0.29941 0.0
H712 H 0.53999 0.69998 0.26344 0.0
H713 H 0.40124 0.73309 0.27044 0.0
H714 H 0.38509 0.77703 0.28266 0.0
H715 H 0.39028 0.74104 0.30995 0.0
H716 H 0.43308 0.78139 0.34267 0.0
H717 H 0.42748 0.81801 0.3157 0.0
H718 H 0.47245 0.80221 0.32537 0.0
H719 H 0.53252 0.75242 0.22503 0.0
H720 H 0.50932 0.80086 0.19061 0.0
H721 H 0.42144 0.82195 0.25418 0.0
C722 C 0.45997 0.7053 0.32177 0.0
C723 C 0.48213 0.67407 0.32087 0.0
C724 C 0.51224 0.67301 0.3008 0.0
C725 C 0.51847 0.70184 0.28021 0.0
C726 C 0.49467 0.73153 0.28051 0.0
C727 C 0.46643 0.73363 0.30133 0.0
C728 C 0.44191 0.76572 0.29509 0.0
C729 C 0.40234 0.75346 0.28917 0.0
C730 C 0.44387 0.79348 0.32126 0.0
C731 C 0.45949 0.78045 0.26655 0.0
C732 C 0.49024 0.76101 0.25859 0.0
C733 C 0.50894 0.76826 0.23148 0.0
C734 C 0.49556 0.79574 0.21202 0.0
C735 C 0.46353 0.81512 0.21965 0.0
C736 C 0.44601 0.8077 0.24761 0.0
H737 H 0.6677 0.43224 0.25034 0.0
H738 H 0.70115 0.5142 0.18492 0.0
H739 H 0.74702 0.53705 0.22195 0.0
H740 H 0.68469 0.48634 0.32138 0.0
H741 H 0.70083 0.44635 0.34099 0.0
H742 H 0.66615 0.44224 0.3121 0.0
H743 H 0.70592 0.39532 0.28307 0.0
H744 H 0.74039 0.39913 0.31182 0.0
H745 H 0.75174 0.40753 0.27245 0.0
H746 H 0.79625 0.54314 0.26309 0.0
H747 H 0.84407 0.52964 0.30143 0.0
H748 H 0.77691 0.44356 0.33863 0.0
C749 C 0.68401 0.45562 0.24396 0.0
C750 C 0.68096 0.47142 0.21474 0.0
C751 C 0.70289 0.50187 0.20731 0.0
C752 C 0.72892 0.51502 0.22824 0.0
C753 C 0.73207 0.49779 0.25658 0.0
C754 C 0.7098 0.46888 0.26441 0.0
C755 C 0.721 0.45174 0.29427 0.0
C756 C 0.6914 0.457 0.31862 0.0
C757 C 0.73034 0.41107 0.29012 0.0
C758 C 0.75437 0.47416 0.30143 0.0
C759 C 0.76002 0.50125 0.27998 0.0
C760 C 0.79154 0.52264 0.28038 0.0
C761 C 0.81847 0.51502 0.30235 0.0
C762 C 0.81377 0.4859 0.3231 0.0
C763 C 0.78072 0.46645 0.32335 0.0
H764 H 0.93737 0.22074 0.63681 0.0
H765 H 0.0166 0.14871 0.67819 0.0
H766 H 0.02595 0.193 0.71994 0.0
H767 H 0.98611 0.30724 0.65879 0.0
H768 H 0.94383 0.331 0.66481 0.0
H769 H 0.94659 0.29562 0.6364 0.0
H770 H 0.89272 0.26056 0.66233 0.0
H771 H 0.88956 0.29726 0.68933 0.0
H772 H 0.89615 0.25144 0.70273 0.0
H773 H 0.02042 0.2418 0.76066 0.0
H774 H 1.00068 0.29075 0.79589 0.0
H775 H 0.92706 0.3314 0.72654 0.0
C776 C 0.95718 0.2147 0.65438 0.0
C777 C 0.97621 0.18139 0.65435 0.0
C778 C 1.00189 0.17423 0.6777 0.0
C779 C 0.00744 0.19926 0.70147 0.0
C780 C 0.98785 0.23175 0.7011 0.0
C781 C 0.9637 0.23977 0.67783 0.0
C782 C 0.94476 0.27571 0.68343 0.0
C783 C 0.95601 0.30407 0.65943 0.0
C784 C 0.90327 0.27097 0.68442 0.0
C785 C 0.95984 0.28522 0.71453 0.0
C786 C 0.98534 0.26009 0.72412 0.0
C787 C 1.00093 0.26197 0.75315 0.0
C788 C 0.98955 0.28979 0.77304 0.0
C789 C 0.96229 0.31474 0.76397 0.0
C790 C 0.948 0.31273 0.73411 0.0
H791 H 0.27842 0.94699 0.65812 0.0
H792 H 0.34465 0.0386 0.68603 0.0
H793 H 0.29721 0.05639 0.72347 0.0
H794 H 0.18588 0.99045 0.672 0.0
H795 H 0.16819 0.94754 0.68542 0.0
H796 H 0.20263 0.94841 0.65615 0.0
H797 H 0.24287 0.90596 0.68916 0.0
H798 H 0.2092 0.90557 0.71875 0.0
H799 H 0.25505 0.91981 0.72727 0.0
H800 H 0.24797 0.05575 0.76504 0.0
H801 H 0.20144 0.03872 0.80362 0.0
H802 H 0.16941 0.94704 0.74733 0.0
C803 C 0.28209 0.97182 0.67111 0.0
C804 C 0.31477 0.99175 0.66905 0.0
C805 C 0.31931 0.02352 0.68686 0.0
C806 C 0.2926 0.03361 0.7083 0.0
C807 C 0.26147 0.01191 0.7111 0.0
C808 C 0.25587 0.98207 0.69238 0.0
C809 C 0.22294 0.96029 0.70201 0.0
C810 C 0.19314 0.96179 0.67744 0.0
C811 C 0.23316 0.92061 0.70976 0.0
C812 C 0.21188 0.98123 0.73011 0.0
C813 C 0.2338 0.01132 0.73488 0.0
C814 C 0.23019 0.03272 0.76108 0.0
C815 C 0.20379 0.02283 0.78292 0.0
C816 C 0.18188 0.9915 0.77855 0.0
C817 C 0.18568 0.97116 0.75144 0.0
H818 H 0.55536 0.22708 0.84738 0.0
H819 H 0.4699 0.16401 0.80478 0.0
H820 H 0.45812 0.21491 0.7688 0.0
H821 H 0.51414 0.32107 0.83458 0.0
H822 H 0.55877 0.33965 0.82743 0.0
H823 H 0.55322 0.30262 0.85404 0.0
H824 H 0.60086 0.26525 0.82375 0.0
H825 H 0.60595 0.30154 0.79672 0.0
H826 H 0.59344 0.25669 0.78375 0.0
H827 H 0.46556 0.26768 0.7309 0.0
H828 H 0.4886 0.31743 0.69774 0.0
H829 H 0.56932 0.34428 0.76639 0.0
C830 C 0.53283 0.22487 0.83153 0.0
C831 C 0.51295 0.1922 0.82914 0.0
C832 C 0.48461 0.18938 0.80746 0.0
C833 C 0.47803 0.21805 0.78681 0.0
C834 C 0.49974 0.2493 0.7886 0.0
C835 C 0.52607 0.25305 0.81098 0.0
C836 C 0.54908 0.28666 0.80608 0.0
C837 C 0.54344 0.31413 0.83208 0.0
C838 C 0.58968 0.27692 0.80234 0.0
C839 C 0.53293 0.30042 0.77661 0.0
C840 C 0.50416 0.27907 0.76692 0.0
C841 C 0.48748 0.28504 0.7387 0.0
C842 C 0.50079 0.31328 0.71995 0.0
C843 C 0.53076 0.33481 0.72942 0.0
C844 C 0.54626 0.32854 0.75841 0.0
H845 H 0.27822 0.57654 0.83976 0.0
H846 H 0.35016 0.49685 0.79939 0.0
H847 H 0.30213 0.48072 0.76191 0.0
H848 H 0.18895 0.52678 0.82411 0.0
H849 H 0.16675 0.56954 0.81639 0.0
H850 H 0.20289 0.56733 0.84415 0.0
H851 H 0.23725 0.61836 0.81511 0.0
H852 H 0.20181 0.62032 0.78706 0.0
H853 H 0.24809 0.61204 0.77537 0.0
H854 H 0.25079 0.48362 0.7223 0.0
H855 H 0.20152 0.50317 0.68713 0.0
H856 H 0.16462 0.58082 0.7548 0.0
C857 C 0.28317 0.55446 0.82393 0.0
C858 C 0.31752 0.53759 0.82257 0.0
C859 C 0.32362 0.50947 0.80115 0.0
C860 C 0.29654 0.50035 0.77969 0.0
C861 C 0.26349 0.51916 0.7805 0.0
C862 C 0.25656 0.54511 0.80264 0.0
C863 C 0.22129 0.56495 0.79672 0.0
C864 C 0.19331 0.55663 0.82183 0.0
C865 C 0.22753 0.60632 0.79335 0.0
C866 C 0.21035 0.54776 0.76684 0.0
C867 C 0.23443 0.52091 0.75793 0.0
C868 C 0.23132 0.50397 0.72948 0.0
C869 C 0.20332 0.51523 0.70961 0.0
C870 C 0.17929 0.54354 0.71821 0.0
C871 C 0.18248 0.55905 0.74752 0.0
H872 H 0.98074 0.51042 0.04324 0.0
H873 H 0.09194 0.54283 0.02338 0.0
H874 H 0.08921 0.50893 0.9748 0.0
H875 H 0.98651 0.42009 0.01283 0.0
H876 H 0.94117 0.42027 0.99713 0.0
H877 H 0.95148 0.44738 0.03026 0.0
H878 H 0.92848 0.5053 0.00259 0.0
H879 H 0.91762 0.4783 0.96955 0.0
H880 H 0.94727 0.5172 0.96594 0.0
H881 H 0.07476 0.47085 0.92883 0.0
H882 H 0.04814 0.43547 0.88659 0.0
H883 H 0.94613 0.42766 0.93614 0.0
C884 C 0.00447 0.51064 0.02859 0.0
C885 C 0.03659 0.52936 0.03714 0.0
C886 C 0.06701 0.52885 0.01731 0.0
C887 C 0.06578 0.50949 0.98973 0.0
C888 C 0.03393 0.49081 0.98228 0.0
C889 C 0.00369 0.49151 0.00097 0.0
C890 C 0.97264 0.46959 0.98739 0.0
C891 C 0.96236 0.43743 0.00815 0.0
C892 C 0.93955 0.49406 0.98098 0.0
C893 C 0.9901 0.45652 0.95807 0.0
C894 C 0.02555 0.46889 0.9557 0.0
C895 C 0.04706 0.461 0.93044 0.0
C896 C 0.03168 0.44074 0.90659 0.0
C897 C 0.99507 0.4286 0.90806 0.0
C898 C 0.9743 0.43612 0.93446 0.0
H899 H 0.06977 0.9782 0.95121 0.0
H900 H 0.06892 0.08348 0.90624 0.0
H901 H 0.03269 0.1089 0.94853 0.0
H902 H 0.97933 0.98097 0.97694 0.0
H903 H 0.98796 0.95903 0.01299 0.0
H904 H 0.01679 0.94963 0.98076 0.0
H905 H 0.0737 0.96882 0.01178 0.0
H906 H 0.04513 0.97761 0.04432 0.0
H907 H 0.07471 0.01284 0.02994 0.0
H908 H 0.99297 0.12188 0.99404 0.0
H909 H 0.95678 0.12255 0.04156 0.0
H910 H 0.98267 0.00857 0.05627 0.0
C911 C 0.06278 0.00682 0.95063 0.0
C912 C 0.07243 0.02892 0.9255 0.0
C913 C 0.06202 0.06607 0.92532 0.0
C914 C 0.04131 0.08074 0.94919 0.0
C915 C 0.03116 0.05793 0.9731 0.0
C916 C 0.04189 0.02187 0.9742 0.0
C917 C 0.02622 0.00288 0.00194 0.0
C918 C 1.00109 0.97126 0.99258 0.0
C919 C 0.05676 0.98978 0.02326 0.0
C920 C 0.00481 0.03379 0.01609 0.0
C921 C 0.00799 0.06531 0.99913 0.0
C922 C 0.99043 0.09739 0.00761 0.0
C923 C 0.96974 0.09745 0.03454 0.0
C924 C 0.96674 0.06563 0.05262 0.0
C925 C 0.98421 0.03334 0.04292 0.0
H926 H 0.44092 0.93737 0.05209 0.0
H927 H 0.54259 0.94669 0.10196 0.0
H928 H 0.56696 0.98704 0.0619 0.0
H929 H 0.48107 0.93838 0.97539 0.0
H930 H 0.44435 0.9649 0.95962 0.0
H931 H 0.43595 0.93477 0.99128 0.0
H932 H 0.40945 0.98882 0.02202 0.0
H933 H 0.41837 0.01923 0.99067 0.0
H934 H 0.43683 0.02899 0.02787 0.0
H935 H 0.57918 0.02928 0.01801 0.0
H936 H 0.58011 0.06634 0.97099 0.0
H937 H 0.47045 0.03004 0.94981 0.0
C938 C 0.46859 0.94724 0.05425 0.0
C939 C 0.4899 0.93867 0.08012 0.0
C940 C 0.52577 0.95272 0.08231 0.0
C941 C 0.53985 0.9758 0.05973 0.0
C942 C 0.51775 0.98463 0.03502 0.0
C943 C 0.48306 0.97047 0.03192 0.0
C944 C 0.46471 0.985 0.00345 0.0
C945 C 0.45602 0.95391 0.98111 0.0
C946 C 0.43031 0.0068 0.0115 0.0
C947 C 0.49443 0.00964 0.99117 0.0
C948 C 0.52477 0.0091 0.00976 0.0
C949 C 0.55564 0.02979 0.00319 0.0
C950 C 0.55583 0.05093 0.97651 0.0
C951 C 0.52536 0.05122 0.95671 0.0
C952 C 0.49414 0.0306 0.96449 0.0
H953 H 0.46212 0.55583 0.96938 0.0
H954 H 0.4861 0.46575 0.90856 0.0
H955 H 0.52756 0.43977 0.94705 0.0
H956 H 0.55226 0.56581 0.99942 0.0
H957 H 0.53742 0.57615 0.03761 0.0
H958 H 0.50891 0.58754 0.00558 0.0
H959 H 0.45576 0.55036 0.02894 0.0
H960 H 0.48394 0.53931 0.06123 0.0
H961 H 0.46302 0.50342 0.03931 0.0
H962 H 0.56702 0.42371 0.99206 0.0
H963 H 0.59845 0.41698 0.0416 0.0
H964 H 0.54946 0.51788 0.07266 0.0
C965 C 0.4758 0.53046 0.96427 0.0
C966 C 0.47074 0.51281 0.93595 0.0
C967 C 0.48943 0.47978 0.9301 0.0
C968 C 0.51318 0.46484 0.95178 0.0
C969 C 0.51807 0.48325 0.97923 0.0
C970 C 0.49972 0.51519 0.98564 0.0
C971 C 0.50973 0.52944 0.01696 0.0
C972 C 0.52818 0.56696 0.01474 0.0
C973 C 0.47612 0.53069 0.03784 0.0
C974 C 0.53643 0.50047 0.02716 0.0
C975 C 0.541 0.47413 0.00503 0.0
C976 C 0.56373 0.44423 0.00954 0.0
C977 C 0.5816 0.44071 0.03771 0.0
C978 C 0.57664 0.46697 0.06098 0.0
C979 C 0.55419 0.4975 0.05527 0.0
H980 H 0.05245 0.91683 0.44361 0.0
H981 H 0.95048 0.92686 0.3943 0.0
H982 H 0.92566 0.96468 0.43572 0.0
H983 H 0.01199 0.91446 0.52114 0.0
H984 H 0.0486 0.94086 0.53731 0.0
H985 H 0.05711 0.91152 0.50517 0.0
H986 H 0.08339 0.9664 0.47524 0.0
H987 H 0.07447 0.99599 0.50706 0.0
H988 H 0.05588 0.00654 0.47007 0.0
H989 H 0.91382 0.00618 0.4797 0.0
H990 H 0.91395 0.04468 0.5258 0.0
H991 H 0.02316 0.00755 0.54727 0.0
C992 C 0.02458 0.92617 0.44192 0.0
C993 C 0.00336 0.9187 0.41574 0.0
C994 C 0.96724 0.93208 0.41414 0.0
C995 C 0.95288 0.95367 0.43755 0.0
C996 C 0.97488 0.96156 0.46253 0.0
C997 C 0.00978 0.94786 0.46513 0.0
C998 C 0.02817 0.96183 0.49382 0.0
C999 C 0.03697 0.93028 0.51566 0.0
C1000 C 0.0625 0.98401 0.48607 0.0
C1001 C 0.99839 0.98598 0.50657 0.0
C1002 C 0.9679 0.9854 0.48815 0.0
C1003 C 0.93737 0.00654 0.49452 0.0
C1004 C 0.93779 0.02849 0.52068 0.0
C1005 C 0.96849 0.0291 0.54021 0.0
C1006 C 0.99918 0.00756 0.5329 0.0
H1007 H 0.56381 0.05794 0.44332 0.0
H1008 H 0.55795 0.95359 0.39708 0.0
H1009 H 0.5208 0.929 0.4391 0.0
H1010 H 0.56822 0.02096 0.5214 0.0
H1011 H 0.54055 0.05701 0.53683 0.0
H1012 H 0.56898 0.06551 0.50413 0.0
H1013 H 0.51258 0.08806 0.47413 0.0
H1014 H 0.48388 0.07906 0.50654 0.0
H1015 H 0.4736 0.05855 0.47021 0.0
H1016 H 0.48052 0.9169 0.48412 0.0
H1017 H 0.44432 0.9166 0.53157 0.0
H1018 H 0.47644 0.02855 0.54884 0.0
C1019 C 0.5554 0.0297 0.44236 0.0
C1020 C 0.56393 0.00768 0.41692 0.0
C1021 C 0.55189 0.97099 0.41634 0.0
C1022 C 0.53065 0.95676 0.44007 0.0
C1023 C 0.52175 0.97948 0.46434 0.0
C1024 C 0.53411 0.01501 0.4659 0.0
C1025 C 0.51981 0.03387 0.4942 0.0
C1026 C 0.55126 0.04498 0.5154 0.0
C1027 C 0.49606 0.06683 0.48575 0.0
C1028 C 0.49716 0.00354 0.50803 0.0
C1029 C 0.4986 0.97242 0.49041 0.0
C1030 C 0.47939 0.94103 0.49824 0.0
C1031 C 0.45872 0.94119 0.52515 0.0
C1032 C 0.45748 0.97252 0.54394 0.0
C1033 C 0.47676 0.00415 0.53499 0.0
H1034 H 0.49078 0.4579 0.5792 0.0
H1035 H 0.60118 0.42029 0.56358 0.0
H1036 H 0.59977 0.44734 0.51196 0.0
H1037 H 0.4573 0.44406 0.50156 0.0
H1038 H 0.42961 0.48452 0.50241 0.0
H1039 H 0.43867 0.45998 0.53716 0.0
H1040 H 0.46415 0.51903 0.56151 0.0
H1041 H 0.45566 0.54363 0.52671 0.0
H1042 H 0.50076 0.54304 0.54289 0.0
H1043 H 0.58731 0.48119 0.46304 0.0
H1044 H 0.56381 0.5165 0.41944 0.0
H1045 H 0.4618 0.53293 0.46744 0.0
C1046 C 0.51447 0.45472 0.56476 0.0
C1047 C 0.54605 0.43672 0.5754 0.0
C1048 C 0.57662 0.43372 0.55588 0.0
C1049 C 0.57611 0.44911 0.52656 0.0
C1050 C 0.54485 0.46745 0.51712 0.0
C1051 C 0.51449 0.47007 0.53554 0.0
C1052 C 0.48474 0.49216 0.52035 0.0
C1053 C 0.45056 0.46877 0.51505 0.0
C1054 C 0.47582 0.5265 0.53898 0.0
C1055 C 0.50317 0.5018 0.49053 0.0
C1056 C 0.53781 0.48725 0.48912 0.0
C1057 C 0.56018 0.49258 0.46387 0.0
C1058 C 0.54659 0.51281 0.43924 0.0
C1059 C 0.51097 0.5276 0.44 0.0
C1060 C 0.48919 0.52219 0.46619 0.0
H1061 H 0.96095 0.4636 0.4684 0.0
H1062 H 0.97943 0.56074 0.41406 0.0
H1063 H 0.02052 0.58465 0.45375 0.0
H1064 H 0.961 0.50865 0.54182 0.0
H1065 H 0.98399 0.47175 0.56086 0.0
H1066 H 0.95568 0.46262 0.52823 0.0
H1067 H 0.00997 0.43066 0.50172 0.0
H1068 H 0.0386 0.44018 0.53412 0.0
H1069 H 0.05214 0.45508 0.49663 0.0
H1070 H 0.06012 0.598 0.49917 0.0
H1071 H 0.09203 0.60145 0.5487 0.0
H1072 H 0.04854 0.49541 0.57317 0.0
C1073 C 0.97336 0.49004 0.46497 0.0
C1074 C 0.96686 0.51029 0.43809 0.0
C1075 C 0.98388 0.5447 0.43445 0.0
C1076 C 0.00742 0.55849 0.45682 0.0
C1077 C 0.01378 0.53757 0.48276 0.0
C1078 C 0.99705 0.50423 0.48708 0.0
C1079 C 0.00837 0.48737 0.51717 0.0
C1080 C 0.97529 0.48232 0.53827 0.0
C1081 C 0.02846 0.45118 0.51209 0.0
C1082 C 0.03393 0.51651 0.5291 0.0
C1083 C 0.03681 0.54517 0.50884 0.0
C1084 C 0.05816 0.57566 0.51519 0.0
C1085 C 0.07633 0.57731 0.54333 0.0
C1086 C 0.07303 0.54864 0.56477 0.0
C1087 C 0.05203 0.51761 0.55717 0.0
loop_
_geom_bond_atom_site_label_1
_geom_bond_atom_site_label_2
_geom_bond_distance
_geom_bond_site_symmetry_2
_ccdc_geom_bond_type
O0 Cd1 2.223 . S
O0 C8 1.315 . S
Cd1 O0 2.223 . S
Cd1 O4 2.297 . S
Cd1 O5 2.439 1_655 S
Cd1 O11 2.240 1_655 S
Cd2 O3 2.240 . S
Cd2 O10 2.223 . S
Cd2 O12 2.297 . S
Cd2 O13 2.439 . S
O3 Cd2 2.240 . S
O3 C8 1.279 1_455 S
O4 Cd1 2.297 . S
O4 C6 1.239 1_655 S
O5 Cd1 2.439 1_455 S
O5 C6 1.216 . S
C6 O4 1.239 1_455 S
C6 O5 1.216 . S
C7 O12 1.247 . S
C7 O13 1.208 . S
C8 O0 1.315 . S
C8 O3 1.279 1_655 S
C9 O10 1.315 . S
C9 O11 1.279 . S
O10 Cd2 2.223 . S
O10 C9 1.315 . S
O11 Cd1 2.240 1_455 S
O11 C9 1.279 . S
O12 Cd2 2.297 . S
O12 C7 1.247 . S
O13 Cd2 2.439 . S
O13 C7 1.208 . S
O14 Cd15 2.223 . S
O14 C22 1.315 . S
Cd15 O14 2.223 . S
Cd15 O18 2.297 . S
Cd15 O19 2.439 1_565 S
Cd15 O25 2.240 1_565 S
Cd16 O17 2.240 . S
Cd16 O24 2.223 . S
Cd16 O26 2.297 . S
Cd16 O27 2.439 . S
O17 Cd16 2.240 . S
O17 C22 1.279 1_545 S
O18 Cd15 2.297 . S
O18 C20 1.239 1_565 S
O19 Cd15 2.439 1_545 S
O19 C20 1.216 . S
C20 O18 1.239 1_545 S
C20 O19 1.216 . S
C21 O26 1.247 . S
C21 O27 1.208 . S
C22 O14 1.315 . S
C22 O17 1.279 1_565 S
C23 O24 1.315 . S
C23 O25 1.279 . S
O24 Cd16 2.223 . S
O24 C23 1.315 . S
O25 Cd15 2.240 1_545 S
O25 C23 1.279 . S
O26 Cd16 2.297 . S
O26 C21 1.247 . S
O27 Cd16 2.439 . S
O27 C21 1.208 . S
O28 Cd29 2.223 . S
O28 C36 1.315 . S
Cd29 O28 2.223 . S
Cd29 O32 2.297 . S
Cd29 O33 2.439 . S
Cd29 O39 2.240 . S
Cd30 O31 2.240 . S
Cd30 O38 2.223 . S
Cd30 O40 2.297 . S
Cd30 O41 2.439 . S
O31 Cd30 2.240 . S
O31 C36 1.279 . S
O32 Cd29 2.297 . S
O32 C34 1.247 . S
O33 Cd29 2.439 . S
O33 C34 1.208 . S
C34 O32 1.247 . S
C34 O33 1.208 . S
C35 O40 1.247 . S
C35 O41 1.208 . S
C36 O28 1.315 . S
C36 O31 1.279 . S
C37 O38 1.315 . S
C37 O39 1.279 . S
O38 Cd30 2.223 . S
O38 C37 1.315 . S
O39 Cd29 2.240 . S
O39 C37 1.279 . S
O40 Cd30 2.297 . S
O40 C35 1.247 . S
O41 Cd30 2.439 . S
O41 C35 1.208 . S
O42 Cd43 2.223 . S
O42 C50 1.315 . S
Cd43 O42 2.223 . S
Cd43 O46 2.297 . S
Cd43 O47 2.439 . S
Cd43 O53 2.240 . S
Cd44 O45 2.240 . S
Cd44 O52 2.223 . S
Cd44 O54 2.297 . S
Cd44 O55 2.439 . S
O45 Cd44 2.240 . S
O45 C50 1.279 . S
O46 Cd43 2.297 . S
O46 C48 1.247 . S
O47 Cd43 2.439 . S
O47 C48 1.208 . S
C48 O46 1.247 . S
C48 O47 1.208 . S
C49 O54 1.247 . S
C49 O55 1.208 . S
C50 O42 1.315 . S
C50 O45 1.279 . S
C51 O52 1.315 . S
C51 O53 1.279 . S
O52 Cd44 2.223 . S
O52 C51 1.315 . S
O53 Cd43 2.240 . S
O53 C51 1.279 . S
O54 Cd44 2.297 . S
O54 C49 1.247 . S
O55 Cd44 2.439 . S
O55 C49 1.208 . S
O56 Cd57 2.223 . S
O56 C64 1.315 . S
Cd57 O56 2.223 . S
Cd57 O60 2.297 . S
Cd57 O61 2.439 1_655 S
Cd57 O67 2.240 1_655 S
Cd58 O59 2.240 . S
Cd58 O66 2.223 . S
Cd58 O68 2.297 . S
Cd58 O69 2.439 . S
O59 Cd58 2.240 . S
O59 C64 1.279 1_455 S
O60 Cd57 2.297 . S
O60 C62 1.239 1_655 S
O61 Cd57 2.439 1_455 S
O61 C62 1.216 . S
C62 O60 1.239 1_455 S
C62 O61 1.216 . S
C63 O68 1.247 . S
C63 O69 1.208 . S
C64 O56 1.315 . S
C64 O59 1.279 1_655 S
C65 O66 1.315 . S
C65 O67 1.279 . S
O66 Cd58 2.223 . S
O66 C65 1.315 . S
O67 Cd57 2.240 1_455 S
O67 C65 1.279 . S
O68 Cd58 2.297 . S
O68 C63 1.247 . S
O69 Cd58 2.439 . S
O69 C63 1.208 . S
O70 Cd71 2.223 . S
O70 C78 1.315 . S
Cd71 O70 2.223 . S
Cd71 O74 2.297 . S
Cd71 O75 2.439 1_565 S
Cd71 O81 2.240 1_565 S
Cd72 O73 2.240 . S
Cd72 O80 2.223 . S
Cd72 O82 2.297 . S
Cd72 O83 2.439 . S
O73 Cd72 2.240 . S
O73 C78 1.279 1_545 S
O74 Cd71 2.297 . S
O74 C76 1.239 1_565 S
O75 Cd71 2.439 1_545 S
O75 C76 1.216 . S
C76 O74 1.239 1_545 S
C76 O75 1.216 . S
C77 O82 1.247 . S
C77 O83 1.208 . S
C78 O70 1.315 . S
C78 O73 1.279 1_565 S
C79 O80 1.315 . S
C79 O81 1.279 . S
O80 Cd72 2.223 . S
O80 C79 1.315 . S
O81 Cd71 2.240 1_545 S
O81 C79 1.279 . S
O82 Cd72 2.297 . S
O82 C77 1.247 . S
O83 Cd72 2.439 . S
O83 C77 1.208 . S
O84 Cd85 2.223 . S
O84 C92 1.315 . S
Cd85 O84 2.223 . S
Cd85 O88 2.297 . S
Cd85 O89 2.439 . S
Cd85 O95 2.240 . S
Cd86 O87 2.240 . S
Cd86 O94 2.223 . S
Cd86 O96 2.297 . S
Cd86 O97 2.439 . S
O87 Cd86 2.240 . S
O87 C92 1.279 . S
O88 Cd85 2.297 . S
O88 C90 1.247 . S
O89 Cd85 2.439 . S
O89 C90 1.208 . S
C90 O88 1.247 . S
C90 O89 1.208 . S
C91 O96 1.247 . S
C91 O97 1.208 . S
C92 O84 1.315 . S
C92 O87 1.279 . S
C93 O94 1.315 . S
C93 O95 1.279 . S
O94 Cd86 2.223 . S
O94 C93 1.315 . S
O95 Cd85 2.240 . S
O95 C93 1.279 . S
O96 Cd86 2.297 . S
O96 C91 1.247 . S
O97 Cd86 2.439 . S
O97 C91 1.208 . S
O98 Cd99 2.223 . S
O98 C106 1.315 . S
Cd99 O98 2.223 . S
Cd99 O102 2.297 . S
Cd99 O103 2.439 . S
Cd99 O109 2.240 . S
Cd100 O101 2.240 . S
Cd100 O108 2.223 . S
Cd100 O110 2.297 . S
Cd100 O111 2.439 . S
O101 Cd100 2.240 . S
O101 C106 1.279 . S
O102 Cd99 2.297 . S
O102 C104 1.247 . S
O103 Cd99 2.439 . S
O103 C104 1.208 . S
C104 O102 1.247 . S
C104 O103 1.208 . S
C105 O110 1.247 . S
C105 O111 1.208 . S
C106 O98 1.315 . S
C106 O101 1.279 . S
C107 O108 1.315 . S
C107 O109 1.279 . S
O108 Cd100 2.223 . S
O108 C107 1.315 . S
O109 Cd99 2.240 . S
O109 C107 1.279 . S
O110 Cd100 2.297 . S
O110 C105 1.247 . S
O111 Cd100 2.439 . S
O111 C105 1.208 . S
O112 Cd113 2.223 . S
O112 C120 1.315 . S
Cd113 O112 2.223 . S
Cd113 O116 2.297 . S
Cd113 O117 2.439 1_455 S
Cd113 O123 2.240 1_455 S
Cd114 O115 2.240 . S
Cd114 O122 2.223 . S
Cd114 O124 2.297 . S
Cd114 O125 2.439 . S
O115 Cd114 2.240 . S
O115 C120 1.279 1_655 S
O116 Cd113 2.297 . S
O116 C118 1.239 1_455 S
O117 Cd113 2.439 1_655 S
O117 C118 1.216 . S
C118 O116 1.239 1_655 S
C118 O117 1.216 . S
C119 O124 1.247 . S
C119 O125 1.208 . S
C120 O112 1.315 . S
C120 O115 1.279 1_455 S
C121 O122 1.315 . S
C121 O123 1.279 . S
O122 Cd114 2.223 . S
O122 C121 1.315 . S
O123 Cd113 2.240 1_655 S
O123 C121 1.279 . S
O124 Cd114 2.297 . S
O124 C119 1.247 . S
O125 Cd114 2.439 . S
O125 C119 1.208 . S
O126 Cd127 2.223 . S
O126 C134 1.315 . S
Cd127 O126 2.223 . S
Cd127 O130 2.297 . S
Cd127 O131 2.439 1_545 S
Cd127 O137 2.240 1_545 S
Cd128 O129 2.240 . S
Cd128 O136 2.223 . S
Cd128 O138 2.297 . S
Cd128 O139 2.439 . S
O129 Cd128 2.240 . S
O129 C134 1.279 1_565 S
O130 Cd127 2.297 . S
O130 C132 1.239 1_545 S
O131 Cd127 2.439 1_565 S
O131 C132 1.216 . S
C132 O130 1.239 1_565 S
C132 O131 1.216 . S
C133 O138 1.247 . S
C133 O139 1.208 . S
C134 O126 1.315 . S
C134 O129 1.279 1_545 S
C135 O136 1.315 . S
C135 O137 1.279 . S
O136 Cd128 2.223 . S
O136 C135 1.315 . S
O137 Cd127 2.240 1_565 S
O137 C135 1.279 . S
O138 Cd128 2.297 . S
O138 C133 1.247 . S
O139 Cd128 2.439 . S
O139 C133 1.208 . S
O140 Cd141 2.223 . S
O140 C148 1.315 . S
Cd141 O140 2.223 . S
Cd141 O144 2.297 . S
Cd141 O145 2.439 . S
Cd141 O151 2.240 . S
Cd142 O143 2.240 . S
Cd142 O150 2.223 . S
Cd142 O152 2.297 . S
Cd142 O153 2.439 . S
O143 Cd142 2.240 . S
O143 C148 1.279 . S
O144 Cd141 2.297 . S
O144 C146 1.247 . S
O145 Cd141 2.439 . S
O145 C146 1.208 . S
C146 O144 1.247 . S
C146 O145 1.208 . S
C147 O152 1.247 . S
C147 O153 1.208 . S
C148 O140 1.315 . S
C148 O143 1.279 . S
C149 O150 1.315 . S
C149 O151 1.279 . S
O150 Cd142 2.223 . S
O150 C149 1.315 . S
O151 Cd141 2.240 . S
O151 C149 1.279 . S
O152 Cd142 2.297 . S
O152 C147 1.247 . S
O153 Cd142 2.439 . S
O153 C147 1.208 . S
O154 Cd155 2.223 . S
O154 C162 1.315 . S
Cd155 O154 2.223 . S
Cd155 O158 2.297 . S
Cd155 O159 2.439 . S
Cd155 O165 2.240 . S
Cd156 O157 2.240 . S
Cd156 O164 2.223 . S
Cd156 O166 2.297 . S
Cd156 O167 2.439 . S
O157 Cd156 2.240 . S
O157 C162 1.279 . S
O158 Cd155 2.297 . S
O158 C160 1.247 . S
O159 Cd155 2.439 . S
O159 C160 1.208 . S
C160 O158 1.247 . S
C160 O159 1.208 . S
C161 O166 1.247 . S
C161 O167 1.208 . S
C162 O154 1.315 . S
C162 O157 1.279 . S
C163 O164 1.315 . S
C163 O165 1.279 . S
O164 Cd156 2.223 . S
O164 C163 1.315 . S
O165 Cd155 2.240 . S
O165 C163 1.279 . S
O166 Cd156 2.297 . S
O166 C161 1.247 . S
O167 Cd156 2.439 . S
O167 C161 1.208 . S
O168 Cd169 2.223 . S
O168 C176 1.315 . S
Cd169 O168 2.223 . S
Cd169 O172 2.297 . S
Cd169 O173 2.439 1_455 S
Cd169 O179 2.240 1_455 S
Cd170 O171 2.240 . S
Cd170 O178 2.223 . S
Cd170 O180 2.297 . S
Cd170 O181 2.439 . S
O171 Cd170 2.240 . S
O171 C176 1.279 1_655 S
O172 Cd169 2.297 . S
O172 C174 1.239 1_455 S
O173 Cd169 2.439 1_655 S
O173 C174 1.216 . S
C174 O172 1.239 1_655 S
C174 O173 1.216 . S
C175 O180 1.247 . S
C175 O181 1.208 . S
C176 O168 1.315 . S
C176 O171 1.279 1_455 S
C177 O178 1.315 . S
C177 O179 1.279 . S
O178 Cd170 2.223 . S
O178 C177 1.315 . S
O179 Cd169 2.240 1_655 S
O179 C177 1.279 . S
O180 Cd170 2.297 . S
O180 C175 1.247 . S
O181 Cd170 2.439 . S
O181 C175 1.208 . S
O182 Cd183 2.223 . S
O182 C190 1.315 . S
Cd183 O182 2.223 . S
Cd183 O186 2.297 . S
Cd183 O187 2.439 1_545 S
Cd183 O193 2.240 1_545 S
Cd184 O185 2.240 . S
Cd184 O192 2.223 . S
Cd184 O194 2.297 . S
Cd184 O195 2.439 . S
O185 Cd184 2.240 . S
O185 C190 1.279 1_565 S
O186 Cd183 2.297 . S
O186 C188 1.239 1_545 S
O187 Cd183 2.439 1_565 S
O187 C188 1.216 . S
C188 O186 1.239 1_565 S
C188 O187 1.216 . S
C189 O194 1.247 . S
C189 O195 1.208 . S
C190 O182 1.315 . S
C190 O185 1.279 1_545 S
C191 O192 1.315 . S
C191 O193 1.279 . S
O192 Cd184 2.223 . S
O192 C191 1.315 . S
O193 Cd183 2.240 1_565 S
O193 C191 1.279 . S
O194 Cd184 2.297 . S
O194 C189 1.247 . S
O195 Cd184 2.439 . S
O195 C189 1.208 . S
O196 Cd197 2.223 . S
O196 C204 1.315 . S
Cd197 O196 2.223 . S
Cd197 O200 2.297 . S
Cd197 O201 2.439 . S
Cd197 O207 2.240 . S
Cd198 O199 2.240 . S
Cd198 O206 2.223 . S
Cd198 O208 2.297 . S
Cd198 O209 2.439 . S
O199 Cd198 2.240 . S
O199 C204 1.279 . S
O200 Cd197 2.297 . S
O200 C202 1.247 . S
O201 Cd197 2.439 . S
O201 C202 1.208 . S
C202 O200 1.247 . S
C202 O201 1.208 . S
C203 O208 1.247 . S
C203 O209 1.208 . S
C204 O196 1.315 . S
C204 O199 1.279 . S
C205 O206 1.315 . S
C205 O207 1.279 . S
O206 Cd198 2.223 . S
O206 C205 1.315 . S
O207 Cd197 2.240 . S
O207 C205 1.279 . S
O208 Cd198 2.297 . S
O208 C203 1.247 . S
O209 Cd198 2.439 . S
O209 C203 1.208 . S
O210 Cd211 2.223 . S
O210 C218 1.315 . S
Cd211 O210 2.223 . S
Cd211 O214 2.297 . S
Cd211 O215 2.439 . S
Cd211 O221 2.240 . S
Cd212 O213 2.240 . S
Cd212 O220 2.223 . S
Cd212 O222 2.297 . S
Cd212 O223 2.439 . S
O213 Cd212 2.240 . S
O213 C218 1.279 . S
O214 Cd211 2.297 . S
O214 C216 1.247 . S
O215 Cd211 2.439 . S
O215 C216 1.208 . S
C216 O214 1.247 . S
C216 O215 1.208 . S
C217 O222 1.247 . S
C217 O223 1.208 . S
C218 O210 1.315 . S
C218 O213 1.279 . S
C219 O220 1.315 . S
C219 O221 1.279 . S
O220 Cd212 2.223 . S
O220 C219 1.315 . S
O221 Cd211 2.240 . S
O221 C219 1.279 . S
O222 Cd212 2.297 . S
O222 C217 1.247 . S
O223 Cd212 2.439 . S
O223 C217 1.208 . S
H224 C236 0.930 . S
H225 C238 0.930 . S
H226 C239 0.930 . S
H227 C243 0.959 . S
H228 C243 0.959 . S
H229 C243 0.961 . S
H230 C244 0.960 . S
H231 C244 0.961 . S
H232 C244 0.959 . S
H233 C247 0.929 . S
H234 C248 0.931 . S
H235 C250 0.930 . S
C236 H224 0.930 . S
C236 C237 1.399 . S
C236 C241 1.399 . S
C237 C236 1.399 . S
C237 C238 1.376 . S
C238 H225 0.930 . S
C238 C237 1.376 . S
C238 C239 1.388 . S
C239 H226 0.930 . S
C239 C238 1.388 . S
C239 C240 1.390 . S
C240 C239 1.390 . S
C240 C241 1.394 . S
C240 C246 1.465 . S
C241 C236 1.399 . S
C241 C240 1.394 . S
C241 C242 1.516 . S
C242 C241 1.516 . S
C242 C243 1.502 . S
C242 C244 1.561 . S
C242 C245 1.526 . S
C243 H227 0.959 . S
C243 H228 0.959 . S
C243 H229 0.961 . S
C243 C242 1.502 . S
C244 H230 0.960 . S
C244 H231 0.961 . S
C244 H232 0.959 . S
C244 C242 1.561 . S
C245 C242 1.526 . S
C245 C246 1.396 . S
C245 C250 1.390 . S
C246 C240 1.465 . S
C246 C245 1.396 . S
C246 C247 1.399 . S
C247 H233 0.929 . S
C247 C246 1.399 . S
C247 C248 1.385 . S
C248 H234 0.931 . S
C248 C247 1.385 . S
C248 C249 1.389 . S
C249 C248 1.389 . S
C249 C250 1.387 . S
C250 H235 0.930 . S
C250 C245 1.390 . S
C250 C249 1.387 . S
H251 C263 0.930 . S
H252 C265 0.930 . S
H253 C266 0.930 . S
H254 C270 0.959 . S
H255 C270 0.959 . S
H256 C270 0.961 . S
H257 C271 0.960 . S
H258 C271 0.961 . S
H259 C271 0.959 . S
H260 C274 0.929 . S
H261 C275 0.931 . S
H262 C277 0.930 . S
C263 H251 0.930 . S
C263 C264 1.399 . S
C263 C268 1.399 . S
C264 C263 1.399 . S
C264 C265 1.376 . S
C265 H252 0.930 . S
C265 C264 1.376 . S
C265 C266 1.388 . S
C266 H253 0.930 . S
C266 C265 1.388 . S
C266 C267 1.390 . S
C267 C266 1.390 . S
C267 C268 1.394 . S
C267 C273 1.465 . S
C268 C263 1.399 . S
C268 C267 1.394 . S
C268 C269 1.516 . S
C269 C268 1.516 . S
C269 C270 1.502 . S
C269 C271 1.561 . S
C269 C272 1.526 . S
C270 H254 0.959 . S
C270 H255 0.959 . S
C270 H256 0.961 . S
C270 C269 1.502 . S
C271 H257 0.960 . S
C271 H258 0.961 . S
C271 H259 0.959 . S
C271 C269 1.561 . S
C272 C269 1.526 . S
C272 C273 1.396 . S
C272 C277 1.390 . S
C273 C267 1.465 . S
C273 C272 1.396 . S
C273 C274 1.399 . S
C274 H260 0.929 . S
C274 C273 1.399 . S
C274 C275 1.385 . S
C275 H261 0.931 . S
C275 C274 1.385 . S
C275 C276 1.389 . S
C276 C275 1.389 . S
C276 C277 1.387 . S
C277 H262 0.930 . S
C277 C272 1.390 . S
C277 C276 1.387 . S
H278 C290 0.930 . S
H279 C292 0.930 . S
H280 C293 0.930 . S
H281 C297 0.959 . S
H282 C297 0.959 . S
H283 C297 0.961 . S
H284 C298 0.960 . S
H285 C298 0.961 . S
H286 C298 0.959 . S
H287 C301 0.929 . S
H288 C302 0.931 . S
H289 C304 0.930 . S
C290 H278 0.930 . S
C290 C291 1.399 . S
C290 C295 1.399 . S
C291 C290 1.399 . S
C291 C292 1.376 . S
C292 H279 0.930 . S
C292 C291 1.376 . S
C292 C293 1.388 . S
C293 H280 0.930 . S
C293 C292 1.388 . S
C293 C294 1.390 . S
C294 C293 1.390 . S
C294 C295 1.394 . S
C294 C300 1.465 . S
C295 C290 1.399 . S
C295 C294 1.394 . S
C295 C296 1.516 . S
C296 C295 1.516 . S
C296 C297 1.502 . S
C296 C298 1.561 . S
C296 C299 1.526 . S
C297 H281 0.959 . S
C297 H282 0.959 . S
C297 H283 0.961 . S
C297 C296 1.502 . S
C298 H284 0.960 . S
C298 H285 0.961 . S
C298 H286 0.959 . S
C298 C296 1.561 . S
C299 C296 1.526 . S
C299 C300 1.396 . S
C299 C304 1.390 . S
C300 C294 1.465 . S
C300 C299 1.396 . S
C300 C301 1.399 . S
C301 H287 0.929 . S
C301 C300 1.399 . S
C301 C302 1.385 . S
C302 H288 0.931 . S
C302 C301 1.385 . S
C302 C303 1.389 . S
C303 C302 1.389 . S
C303 C304 1.387 . S
C304 H289 0.930 . S
C304 C299 1.390 . S
C304 C303 1.387 . S
H305 C317 0.930 . S
H306 C319 0.930 . S
H307 C320 0.930 . S
H308 C324 0.959 . S
H309 C324 0.959 . S
H310 C324 0.961 . S
H311 C325 0.960 . S
H312 C325 0.961 . S
H313 C325 0.959 . S
H314 C328 0.929 . S
H315 C329 0.931 . S
H316 C331 0.930 . S
C317 H305 0.930 . S
C317 C318 1.399 . S
C317 C322 1.399 . S
C318 C317 1.399 . S
C318 C319 1.376 . S
C319 H306 0.930 . S
C319 C318 1.376 . S
C319 C320 1.388 . S
C320 H307 0.930 . S
C320 C319 1.388 . S
C320 C321 1.390 . S
C321 C320 1.390 . S
C321 C322 1.394 . S
C321 C327 1.465 . S
C322 C317 1.399 . S
C322 C321 1.394 . S
C322 C323 1.516 . S
C323 C322 1.516 . S
C323 C324 1.502 . S
C323 C325 1.561 . S
C323 C326 1.526 . S
C324 H308 0.959 . S
C324 H309 0.959 . S
C324 H310 0.961 . S
C324 C323 1.502 . S
C325 H311 0.960 . S
C325 H312 0.961 . S
C325 H313 0.959 . S
C325 C323 1.561 . S
C326 C323 1.526 . S
C326 C327 1.396 . S
C326 C331 1.390 . S
C327 C321 1.465 . S
C327 C326 1.396 . S
C327 C328 1.399 . S
C328 H314 0.929 . S
C328 C327 1.399 . S
C328 C329 1.385 . S
C329 H315 0.931 . S
C329 C328 1.385 . S
C329 C330 1.389 . S
C330 C329 1.389 . S
C330 C331 1.387 . S
C331 H316 0.930 . S
C331 C326 1.390 . S
C331 C330 1.387 . S
H332 C344 0.930 . S
H333 C346 0.930 . S
H334 C347 0.930 . S
H335 C351 0.959 . S
H336 C351 0.959 . S
H337 C351 0.961 . S
H338 C352 0.960 . S
H339 C352 0.961 . S
H340 C352 0.959 . S
H341 C355 0.929 . S
H342 C356 0.931 . S
H343 C358 0.930 . S
C344 H332 0.930 . S
C344 C345 1.399 . S
C344 C349 1.399 . S
C345 C344 1.399 . S
C345 C346 1.376 . S
C346 H333 0.930 . S
C346 C345 1.376 . S
C346 C347 1.388 . S
C347 H334 0.930 . S
C347 C346 1.388 . S
C347 C348 1.390 . S
C348 C347 1.390 . S
C348 C349 1.394 . S
C348 C354 1.465 . S
C349 C344 1.399 . S
C349 C348 1.394 . S
C349 C350 1.516 . S
C350 C349 1.516 . S
C350 C351 1.502 . S
C350 C352 1.561 . S
C350 C353 1.526 . S
C351 H335 0.959 . S
C351 H336 0.959 . S
C351 H337 0.961 . S
C351 C350 1.502 . S
C352 H338 0.960 . S
C352 H339 0.961 . S
C352 H340 0.959 . S
C352 C350 1.561 . S
C353 C350 1.526 . S
C353 C354 1.396 . S
C353 C358 1.390 . S
C354 C348 1.465 . S
C354 C353 1.396 . S
C354 C355 1.399 . S
C355 H341 0.929 . S
C355 C354 1.399 . S
C355 C356 1.385 . S
C356 H342 0.931 . S
C356 C355 1.385 . S
C356 C357 1.389 . S
C357 C356 1.389 . S
C357 C358 1.387 . S
C358 H343 0.930 . S
C358 C353 1.390 . S
C358 C357 1.387 . S
H359 C371 0.930 . S
H360 C373 0.930 . S
H361 C374 0.930 . S
H362 C378 0.959 . S
H363 C378 0.959 . S
H364 C378 0.961 . S
H365 C379 0.960 . S
H366 C379 0.961 . S
H367 C379 0.959 . S
H368 C382 0.929 . S
H369 C383 0.931 . S
H370 C385 0.930 . S
C371 H359 0.930 . S
C371 C372 1.399 . S
C371 C376 1.399 . S
C372 C371 1.399 . S
C372 C373 1.376 . S
C373 H360 0.930 . S
C373 C372 1.376 . S
C373 C374 1.388 . S
C374 H361 0.930 . S
C374 C373 1.388 . S
C374 C375 1.390 . S
C375 C374 1.390 . S
C375 C376 1.394 . S
C375 C381 1.465 . S
C376 C371 1.399 . S
C376 C375 1.394 . S
C376 C377 1.516 . S
C377 C376 1.516 . S
C377 C378 1.502 . S
C377 C379 1.561 . S
C377 C380 1.526 . S
C378 H362 0.959 . S
C378 H363 0.959 . S
C378 H364 0.961 . S
C378 C377 1.502 . S
C379 H365 0.960 . S
C379 H366 0.961 . S
C379 H367 0.959 . S
C379 C377 1.561 . S
C380 C377 1.526 . S
C380 C381 1.396 . S
C380 C385 1.390 . S
C381 C375 1.465 . S
C381 C380 1.396 . S
C381 C382 1.399 . S
C382 H368 0.929 . S
C382 C381 1.399 . S
C382 C383 1.385 . S
C383 H369 0.931 . S
C383 C382 1.385 . S
C383 C384 1.389 . S
C384 C383 1.389 . S
C384 C385 1.387 . S
C385 H370 0.930 . S
C385 C380 1.390 . S
C385 C384 1.387 . S
H386 C398 0.930 . S
H387 C400 0.930 . S
H388 C401 0.930 . S
H389 C405 0.959 . S
H390 C405 0.959 . S
H391 C405 0.961 . S
H392 C406 0.960 . S
H393 C406 0.961 . S
H394 C406 0.959 . S
H395 C409 0.929 . S
H396 C410 0.931 . S
H397 C412 0.930 . S
C398 H386 0.930 . S
C398 C399 1.399 . S
C398 C403 1.399 . S
C399 C398 1.399 . S
C399 C400 1.376 . S
C400 H387 0.930 . S
C400 C399 1.376 . S
C400 C401 1.388 . S
C401 H388 0.930 . S
C401 C400 1.388 . S
C401 C402 1.390 . S
C402 C401 1.390 . S
C402 C403 1.394 . S
C402 C408 1.465 . S
C403 C398 1.399 . S
C403 C402 1.394 . S
C403 C404 1.516 . S
C404 C403 1.516 . S
C404 C405 1.502 . S
C404 C406 1.561 . S
C404 C407 1.526 . S
C405 H389 0.959 . S
C405 H390 0.959 . S
C405 H391 0.961 . S
C405 C404 1.502 . S
C406 H392 0.960 . S
C406 H393 0.961 . S
C406 H394 0.959 . S
C406 C404 1.561 . S
C407 C404 1.526 . S
C407 C408 1.396 . S
C407 C412 1.390 . S
C408 C402 1.465 . S
C408 C407 1.396 . S
C408 C409 1.399 . S
C409 H395 0.929 . S
C409 C408 1.399 . S
C409 C410 1.385 . S
C410 H396 0.931 . S
C410 C409 1.385 . S
C410 C411 1.389 . S
C411 C410 1.389 . S
C411 C412 1.387 . S
C412 H397 0.930 . S
C412 C407 1.390 . S
C412 C411 1.387 . S
H413 C425 0.930 . S
H414 C427 0.930 . S
H415 C428 0.930 . S
H416 C432 0.959 . S
H417 C432 0.959 . S
H418 C432 0.961 . S
H419 C433 0.960 . S
H420 C433 0.961 . S
H421 C433 0.959 . S
H422 C436 0.929 . S
H423 C437 0.931 . S
H424 C439 0.930 . S
C425 H413 0.930 . S
C425 C426 1.399 . S
C425 C430 1.399 . S
C426 C425 1.399 . S
C426 C427 1.376 . S
C427 H414 0.930 . S
C427 C426 1.376 . S
C427 C428 1.388 . S
C428 H415 0.930 . S
C428 C427 1.388 . S
C428 C429 1.390 . S
C429 C428 1.390 . S
C429 C430 1.394 . S
C429 C435 1.465 . S
C430 C425 1.399 . S
C430 C429 1.394 . S
C430 C431 1.516 . S
C431 C430 1.516 . S
C431 C432 1.502 . S
C431 C433 1.561 . S
C431 C434 1.526 . S
C432 H416 0.959 . S
C432 H417 0.959 . S
C432 H418 0.961 . S
C432 C431 1.502 . S
C433 H419 0.960 . S
C433 H420 0.961 . S
C433 H421 0.959 . S
C433 C431 1.561 . S
C434 C431 1.526 . S
C434 C435 1.396 . S
C434 C439 1.390 . S
C435 C429 1.465 . S
C435 C434 1.396 . S
C435 C436 1.399 . S
C436 H422 0.929 . S
C436 C435 1.399 . S
C436 C437 1.385 . S
C437 H423 0.931 . S
C437 C436 1.385 . S
C437 C438 1.389 . S
C438 C437 1.389 . S
C438 C439 1.387 . S
C439 H424 0.930 . S
C439 C434 1.390 . S
C439 C438 1.387 . S
H440 C452 0.930 . S
H441 C454 0.930 . S
H442 C455 0.930 . S
H443 C459 0.959 . S
H444 C459 0.959 . S
H445 C459 0.961 . S
H446 C460 0.960 . S
H447 C460 0.961 . S
H448 C460 0.959 . S
H449 C463 0.929 . S
H450 C464 0.926 1_455 S
H451 C466 0.930 . S
C452 H440 0.930 . S
C452 C453 1.399 . S
C452 C457 1.399 . S
C453 C452 1.399 . S
C453 C454 1.376 . S
C454 H441 0.930 . S
C454 C453 1.376 . S
C454 C455 1.388 . S
C455 H442 0.930 . S
C455 C454 1.388 . S
C455 C456 1.390 . S
C456 C455 1.390 . S
C456 C457 1.394 . S
C456 C462 1.465 . S
C457 C452 1.399 . S
C457 C456 1.394 . S
C457 C458 1.516 . S
C458 C457 1.516 . S
C458 C459 1.502 . S
C458 C460 1.561 . S
C458 C461 1.526 . S
C459 H443 0.959 . S
C459 H444 0.959 . S
C459 H445 0.961 . S
C459 C458 1.502 . S
C460 H446 0.960 . S
C460 H447 0.961 . S
C460 H448 0.959 . S
C460 C458 1.561 . S
C461 C458 1.526 . S
C461 C462 1.396 . S
C461 C466 1.390 . S
C462 C456 1.465 . S
C462 C461 1.396 . S
C462 C463 1.399 . S
C463 H449 0.929 . S
C463 C462 1.399 . S
C463 C464 1.388 . S
C464 H450 0.926 1_655 S
C464 C463 1.388 . S
C464 C465 1.392 . S
C465 C464 1.392 . S
C465 C466 1.387 . S
C466 H451 0.930 . S
C466 C461 1.390 . S
C466 C465 1.387 . S
H467 C479 0.930 1_545 S
H468 C481 0.930 . S
H469 C482 0.930 . S
H470 C486 0.959 . S
H471 C486 0.959 . S
H472 C486 0.961 . S
H473 C487 0.960 . S
H474 C487 0.961 . S
H475 C487 0.959 . S
H476 C490 0.929 . S
H477 C491 0.931 . S
H478 C493 0.930 1_455 S
C479 H467 0.930 1_565 S
C479 C480 1.399 . S
C479 C484 1.399 . S
C480 C479 1.399 . S
C480 C481 1.376 . S
C481 H468 0.930 . S
C481 C480 1.376 . S
C481 C482 1.388 . S
C482 H469 0.930 . S
C482 C481 1.388 . S
C482 C483 1.390 . S
C483 C482 1.390 . S
C483 C484 1.394 . S
C483 C489 1.465 . S
C484 C479 1.399 . S
C484 C483 1.394 . S
C484 C485 1.516 . S
C485 C484 1.516 . S
C485 C486 1.502 1_655 S
C485 C487 1.561 1_565 S
C485 C488 1.526 . S
C486 H470 0.959 . S
C486 H471 0.959 . S
C486 H472 0.961 . S
C486 C485 1.502 1_455 S
C487 H473 0.960 . S
C487 H474 0.961 . S
C487 H475 0.959 . S
C487 C485 1.561 1_545 S
C488 C485 1.526 . S
C488 C489 1.396 . S
C488 C493 1.390 . S
C489 C483 1.465 . S
C489 C488 1.396 . S
C489 C490 1.399 . S
C490 H476 0.929 . S
C490 C489 1.399 . S
C490 C491 1.385 . S
C491 H477 0.931 . S
C491 C490 1.385 . S
C491 C492 1.389 . S
C492 C491 1.389 . S
C492 C493 1.387 . S
C493 H478 0.930 1_655 S
C493 C488 1.390 . S
C493 C492 1.387 . S
H494 C506 0.930 . S
H495 C508 0.930 . S
H496 C509 0.930 . S
H497 C513 0.959 . S
H498 C513 0.959 . S
H499 C513 0.961 . S
H500 C514 0.960 . S
H501 C514 0.961 . S
H502 C514 0.959 . S
H503 C517 0.929 . S
H504 C518 0.931 . S
H505 C520 0.930 . S
C506 H494 0.930 . S
C506 C507 1.399 . S
C506 C511 1.399 . S
C507 C506 1.399 . S
C507 C508 1.376 1_565 S
C508 H495 0.930 . S
C508 C507 1.376 1_545 S
C508 C509 1.388 . S
C509 H496 0.930 . S
C509 C508 1.388 . S
C509 C510 1.390 1_545 S
C510 C509 1.390 1_565 S
C510 C511 1.394 . S
C510 C516 1.465 . S
C511 C506 1.399 . S
C511 C510 1.394 . S
C511 C512 1.516 . S
C512 C511 1.516 . S
C512 C513 1.502 . S
C512 C514 1.561 . S
C512 C515 1.526 . S
C513 H497 0.959 . S
C513 H498 0.959 . S
C513 H499 0.961 . S
C513 C512 1.502 . S
C514 H500 0.960 . S
C514 H501 0.961 . S
C514 H502 0.959 . S
C514 C512 1.561 . S
C515 C512 1.526 . S
C515 C516 1.396 . S
C515 C520 1.390 . S
C516 C510 1.465 . S
C516 C515 1.396 . S
C516 C517 1.399 . S
C517 H503 0.929 . S
C517 C516 1.399 . S
C517 C518 1.385 . S
C518 H504 0.931 . S
C518 C517 1.385 . S
C518 C519 1.389 . S
C519 C518 1.389 . S
C519 C520 1.387 . S
C520 H505 0.930 . S
C520 C515 1.390 . S
C520 C519 1.387 . S
H521 C533 0.930 . S
H522 C535 0.930 . S
H523 C536 0.930 . S
H524 C540 0.959 . S
H525 C540 0.959 . S
H526 C540 0.961 . S
H527 C541 0.960 . S
H528 C541 0.961 . S
H529 C541 0.959 . S
H530 C544 0.929 . S
H531 C545 0.931 . S
H532 C547 0.930 . S
C533 H521 0.930 . S
C533 C534 1.399 . S
C533 C538 1.399 . S
C534 C533 1.399 . S
C534 C535 1.376 . S
C535 H522 0.930 . S
C535 C534 1.376 . S
C535 C536 1.388 . S
C536 H523 0.930 . S
C536 C535 1.388 . S
C536 C537 1.390 . S
C537 C536 1.390 . S
C537 C538 1.394 . S
C537 C543 1.465 . S
C538 C533 1.399 . S
C538 C537 1.394 . S
C538 C539 1.516 . S
C539 C538 1.516 . S
C539 C540 1.502 . S
C539 C541 1.561 . S
C539 C542 1.526 . S
C540 H524 0.959 . S
C540 H525 0.959 . S
C540 H526 0.961 . S
C540 C539 1.502 . S
C541 H527 0.960 . S
C541 H528 0.961 . S
C541 H529 0.959 . S
C541 C539 1.561 . S
C542 C539 1.526 . S
C542 C543 1.396 . S
C542 C547 1.390 . S
C543 C537 1.465 . S
C543 C542 1.396 . S
C543 C544 1.399 . S
C544 H530 0.929 . S
C544 C543 1.399 . S
C544 C545 1.385 . S
C545 H531 0.931 . S
C545 C544 1.385 . S
C545 C546 1.389 . S
C546 C545 1.389 . S
C546 C547 1.387 . S
C547 H532 0.930 . S
C547 C542 1.390 . S
C547 C546 1.387 . S
H548 C560 0.930 . S
H549 C562 0.930 . S
H550 C563 0.930 . S
H551 C567 0.959 . S
H552 C567 0.959 . S
H553 C567 0.961 . S
H554 C568 0.960 . S
H555 C568 0.961 . S
H556 C568 0.959 . S
H557 C571 0.929 . S
H558 C572 0.931 . S
H559 C574 0.930 . S
C560 H548 0.930 . S
C560 C561 1.399 . S
C560 C565 1.399 . S
C561 C560 1.399 . S
C561 C562 1.376 . S
C562 H549 0.930 . S
C562 C561 1.376 . S
C562 C563 1.388 . S
C563 H550 0.930 . S
C563 C562 1.388 . S
C563 C564 1.390 . S
C564 C563 1.390 . S
C564 C565 1.394 . S
C564 C570 1.465 . S
C565 C560 1.399 . S
C565 C564 1.394 . S
C565 C566 1.516 . S
C566 C565 1.516 . S
C566 C567 1.502 . S
C566 C568 1.561 . S
C566 C569 1.526 . S
C567 H551 0.959 . S
C567 H552 0.959 . S
C567 H553 0.961 . S
C567 C566 1.502 . S
C568 H554 0.960 . S
C568 H555 0.961 . S
C568 H556 0.959 . S
C568 C566 1.561 . S
C569 C566 1.526 . S
C569 C570 1.396 . S
C569 C574 1.390 . S
C570 C564 1.465 . S
C570 C569 1.396 . S
C570 C571 1.399 1_455 S
C571 H557 0.929 . S
C571 C570 1.399 1_655 S
C571 C572 1.385 . S
C572 H558 0.931 . S
C572 C571 1.385 . S
C572 C573 1.389 1_655 S
C573 C572 1.389 1_455 S
C573 C574 1.387 . S
C574 H559 0.930 . S
C574 C569 1.390 . S
C574 C573 1.387 . S
H575 C587 0.930 . S
H576 C589 0.930 1_565 S
H577 C590 0.930 . S
H578 C594 0.959 . S
H579 C594 0.959 . S
H580 C594 0.961 . S
H581 C595 0.960 . S
H582 C595 0.961 . S
H583 C595 0.959 . S
H584 C598 0.929 . S
H585 C599 0.931 . S
H586 C601 0.930 . S
C587 H575 0.930 . S
C587 C588 1.399 . S
C587 C592 1.399 . S
C588 C587 1.399 . S
C588 C589 1.376 . S
C589 H576 0.930 1_545 S
C589 C588 1.376 . S
C589 C590 1.388 . S
C590 H577 0.930 . S
C590 C589 1.388 . S
C590 C591 1.390 . S
C591 C590 1.390 . S
C591 C592 1.394 . S
C591 C597 1.465 . S
C592 C587 1.399 . S
C592 C591 1.394 . S
C592 C593 1.516 . S
C593 C592 1.516 . S
C593 C594 1.502 . S
C593 C595 1.561 . S
C593 C596 1.526 . S
C594 H578 0.959 . S
C594 H579 0.959 . S
C594 H580 0.961 . S
C594 C593 1.502 . S
C595 H581 0.960 . S
C595 H582 0.961 . S
C595 H583 0.959 . S
C595 C593 1.561 . S
C596 C593 1.526 . S
C596 C597 1.396 . S
C596 C601 1.390 . S
C597 C591 1.465 . S
C597 C596 1.396 . S
C597 C598 1.399 1_455 S
C598 H584 0.929 . S
C598 C597 1.399 1_655 S
C598 C599 1.385 . S
C599 H585 0.931 . S
C599 C598 1.385 . S
C599 C600 1.389 1_655 S
C600 C599 1.389 1_455 S
C600 C601 1.387 . S
C601 H586 0.930 . S
C601 C596 1.390 . S
C601 C600 1.387 . S
H602 C614 0.930 . S
H603 C616 0.930 . S
H604 C617 0.930 . S
H605 C621 0.959 . S
H606 C621 0.959 1_565 S
H607 C621 0.961 . S
H608 C622 0.960 . S
H609 C622 0.961 . S
H610 C622 0.959 1_545 S
H611 C625 0.929 . S
H612 C626 0.931 . S
H613 C628 0.930 1_565 S
C614 H602 0.930 . S
C614 C615 1.399 . S
C614 C619 1.399 . S
C615 C614 1.399 . S
C615 C616 1.376 . S
C616 H603 0.930 . S
C616 C615 1.376 . S
C616 C617 1.388 . S
C617 H604 0.930 . S
C617 C616 1.388 . S
C617 C618 1.390 . S
C618 C617 1.390 . S
C618 C619 1.394 . S
C618 C624 1.465 . S
C619 C614 1.399 . S
C619 C618 1.394 . S
C619 C620 1.516 . S
C620 C619 1.516 . S
C620 C621 1.502 . S
C620 C622 1.561 1_545 S
C620 C623 1.526 . S
C621 H605 0.959 . S
C621 H606 0.959 1_545 S
C621 H607 0.961 . S
C621 C620 1.502 . S
C622 H608 0.960 . S
C622 H609 0.961 . S
C622 H610 0.959 1_565 S
C622 C620 1.561 1_565 S
C623 C620 1.526 . S
C623 C624 1.396 . S
C623 C628 1.390 . S
C624 C618 1.465 . S
C624 C623 1.396 . S
C624 C625 1.399 . S
C625 H611 0.929 . S
C625 C624 1.399 . S
C625 C626 1.385 . S
C626 H612 0.931 . S
C626 C625 1.385 . S
C626 C627 1.389 . S
C627 C626 1.389 . S
C627 C628 1.387 . S
C628 H613 0.930 1_545 S
C628 C623 1.390 . S
C628 C627 1.387 . S
H629 C641 0.930 . S
H630 C643 0.930 . S
H631 C644 0.930 . S
H632 C648 0.959 . S
H633 C648 0.959 . S
H634 C648 0.961 . S
H635 C649 0.960 . S
H636 C649 0.961 . S
H637 C649 0.959 . S
H638 C652 0.929 . S
H639 C653 0.931 . S
H640 C655 0.930 . S
C641 H629 0.930 . S
C641 C642 1.399 . S
C641 C646 1.399 . S
C642 C641 1.399 . S
C642 C643 1.376 . S
C643 H630 0.930 . S
C643 C642 1.376 . S
C643 C644 1.388 . S
C644 H631 0.930 . S
C644 C643 1.388 . S
C644 C645 1.390 . S
C645 C644 1.390 . S
C645 C646 1.394 . S
C645 C651 1.465 . S
C646 C641 1.399 . S
C646 C645 1.394 . S
C646 C647 1.516 . S
C647 C646 1.516 . S
C647 C648 1.502 . S
C647 C649 1.561 . S
C647 C650 1.526 . S
C648 H632 0.959 . S
C648 H633 0.959 . S
C648 H634 0.961 . S
C648 C647 1.502 . S
C649 H635 0.960 . S
C649 H636 0.961 . S
C649 H637 0.959 . S
C649 C647 1.561 . S
C650 C647 1.526 . S
C650 C651 1.396 . S
C650 C655 1.390 . S
C651 C645 1.465 . S
C651 C650 1.396 . S
C651 C652 1.399 . S
C652 H638 0.929 . S
C652 C651 1.399 . S
C652 C653 1.385 . S
C653 H639 0.931 . S
C653 C652 1.385 . S
C653 C654 1.389 . S
C654 C653 1.389 . S
C654 C655 1.387 . S
C655 H640 0.930 . S
C655 C650 1.390 . S
C655 C654 1.387 . S
H656 C668 0.930 . S
H657 C670 0.930 . S
H658 C671 0.930 . S
H659 C675 0.959 . S
H660 C675 0.959 . S
H661 C675 0.961 . S
H662 C676 0.960 . S
H663 C676 0.961 1_455 S
H664 C676 0.959 . S
H665 C679 0.929 . S
H666 C680 0.936 . S
H667 C682 0.930 . S
C668 H656 0.930 . S
C668 C669 1.399 . S
C668 C673 1.399 . S
C669 C668 1.399 . S
C669 C670 1.376 1_455 S
C670 H657 0.930 . S
C670 C669 1.376 1_655 S
C670 C671 1.388 . S
C671 H658 0.930 . S
C671 C670 1.388 . S
C671 C672 1.390 1_655 S
C672 C671 1.390 1_455 S
C672 C673 1.394 . S
C672 C678 1.465 . S
C673 C668 1.399 . S
C673 C672 1.394 . S
C673 C674 1.516 . S
C674 C673 1.516 . S
C674 C675 1.502 . S
C674 C676 1.561 1_455 S
C674 C677 1.526 . S
C675 H659 0.959 . S
C675 H660 0.959 . S
C675 H661 0.961 . S
C675 C674 1.502 . S
C676 H662 0.960 . S
C676 H663 0.961 1_655 S
C676 H664 0.959 . S
C676 C674 1.561 1_655 S
C677 C674 1.526 . S
C677 C678 1.396 . S
C677 C682 1.390 . S
C678 C672 1.465 . S
C678 C677 1.396 . S
C678 C679 1.399 1_455 S
C679 H665 0.929 . S
C679 C678 1.399 1_655 S
C679 C680 1.388 . S
C680 H666 0.936 . S
C680 C679 1.388 . S
C680 C681 1.381 1_655 S
C681 C680 1.381 1_455 S
C681 C682 1.387 . S
C682 H667 0.930 . S
C682 C677 1.390 . S
C682 C681 1.387 . S
H683 C695 0.930 . S
H684 C697 0.930 . S
H685 C698 0.930 . S
H686 C702 0.959 . S
H687 C702 0.959 . S
H688 C702 0.961 . S
H689 C703 0.960 . S
H690 C703 0.961 . S
H691 C703 0.959 . S
H692 C706 0.929 . S
H693 C707 0.931 . S
H694 C709 0.930 . S
C695 H683 0.930 . S
C695 C696 1.399 1_565 S
C695 C700 1.399 . S
C696 C695 1.399 1_545 S
C696 C697 1.376 . S
C697 H684 0.930 . S
C697 C696 1.376 . S
C697 C698 1.388 . S
C698 H685 0.930 . S
C698 C697 1.388 . S
C698 C699 1.390 . S
C699 C698 1.390 . S
C699 C700 1.394 1_545 S
C699 C705 1.465 . S
C700 C695 1.399 . S
C700 C699 1.394 1_565 S
C700 C701 1.516 . S
C701 C700 1.516 . S
C701 C702 1.502 . S
C701 C703 1.561 . S
C701 C704 1.526 . S
C702 H686 0.959 . S
C702 H687 0.959 . S
C702 H688 0.961 . S
C702 C701 1.502 . S
C703 H689 0.960 . S
C703 H690 0.961 . S
C703 H691 0.959 . S
C703 C701 1.561 . S
C704 C701 1.526 . S
C704 C705 1.396 1_565 S
C704 C709 1.390 . S
C705 C699 1.465 . S
C705 C704 1.396 1_545 S
C705 C706 1.399 . S
C706 H692 0.929 . S
C706 C705 1.399 . S
C706 C707 1.385 . S
C707 H693 0.931 . S
C707 C706 1.385 . S
C707 C708 1.389 . S
C708 C707 1.389 . S
C708 C709 1.387 1_545 S
C709 H694 0.930 . S
C709 C704 1.390 . S
C709 C708 1.387 1_565 S
H710 C722 0.930 . S
H711 C724 0.930 . S
H712 C725 0.930 . S
H713 C729 0.959 . S
H714 C729 0.959 . S
H715 C729 0.961 . S
H716 C730 0.960 . S
H717 C730 0.961 . S
H718 C730 0.959 . S
H719 C733 0.929 . S
H720 C734 0.931 . S
H721 C736 0.930 . S
C722 H710 0.930 . S
C722 C723 1.399 . S
C722 C727 1.399 . S
C723 C722 1.399 . S
C723 C724 1.376 . S
C724 H711 0.930 . S
C724 C723 1.376 . S
C724 C725 1.388 . S
C725 H712 0.930 . S
C725 C724 1.388 . S
C725 C726 1.390 . S
C726 C725 1.390 . S
C726 C727 1.394 . S
C726 C732 1.465 . S
C727 C722 1.399 . S
C727 C726 1.394 . S
C727 C728 1.516 . S
C728 C727 1.516 . S
C728 C729 1.502 . S
C728 C730 1.561 . S
C728 C731 1.526 . S
C729 H713 0.959 . S
C729 H714 0.959 . S
C729 H715 0.961 . S
C729 C728 1.502 . S
C730 H716 0.960 . S
C730 H717 0.961 . S
C730 H718 0.959 . S
C730 C728 1.561 . S
C731 C728 1.526 . S
C731 C732 1.396 . S
C731 C736 1.390 . S
C732 C726 1.465 . S
C732 C731 1.396 . S
C732 C733 1.399 . S
C733 H719 0.929 . S
C733 C732 1.399 . S
C733 C734 1.385 . S
C734 H720 0.931 . S
C734 C733 1.385 . S
C734 C735 1.389 . S
C735 C734 1.389 . S
C735 C736 1.387 . S
C736 H721 0.930 . S
C736 C731 1.390 . S
C736 C735 1.387 . S
H737 C749 0.930 . S
H738 C751 0.930 . S
H739 C752 0.930 . S
H740 C756 0.959 . S
H741 C756 0.959 . S
H742 C756 0.961 . S
H743 C757 0.960 . S
H744 C757 0.961 . S
H745 C757 0.959 . S
H746 C760 0.929 . S
H747 C761 0.931 . S
H748 C763 0.930 . S
C749 H737 0.930 . S
C749 C750 1.399 . S
C749 C754 1.399 . S
C750 C749 1.399 . S
C750 C751 1.376 . S
C751 H738 0.930 . S
C751 C750 1.376 . S
C751 C752 1.388 . S
C752 H739 0.930 . S
C752 C751 1.388 . S
C752 C753 1.390 . S
C753 C752 1.390 . S
C753 C754 1.394 . S
C753 C759 1.465 . S
C754 C749 1.399 . S
C754 C753 1.394 . S
C754 C755 1.516 . S
C755 C754 1.516 . S
C755 C756 1.502 . S
C755 C757 1.561 . S
C755 C758 1.526 . S
C756 H740 0.959 . S
C756 H741 0.959 . S
C756 H742 0.961 . S
C756 C755 1.502 . S
C757 H743 0.960 . S
C757 H744 0.961 . S
C757 H745 0.959 . S
C757 C755 1.561 . S
C758 C755 1.526 . S
C758 C759 1.396 . S
C758 C763 1.390 . S
C759 C753 1.465 . S
C759 C758 1.396 . S
C759 C760 1.399 . S
C760 H746 0.929 . S
C760 C759 1.399 . S
C760 C761 1.385 . S
C761 H747 0.931 . S
C761 C760 1.385 . S
C761 C762 1.389 . S
C762 C761 1.389 . S
C762 C763 1.387 . S
C763 H748 0.930 . S
C763 C758 1.390 . S
C763 C762 1.387 . S
H764 C776 0.930 1_455 S
H765 C778 0.930 . S
H766 C779 0.930 . S
H767 C783 0.959 . S
H768 C783 0.959 . S
H769 C783 0.961 . S
H770 C784 0.960 . S
H771 C784 0.961 . S
H772 C784 0.959 . S
H773 C787 0.929 . S
H774 C788 0.931 . S
H775 C790 0.930 1_455 S
C776 H764 0.930 1_655 S
C776 C777 1.399 . S
C776 C781 1.399 . S
C777 C776 1.399 . S
C777 C778 1.376 . S
C778 H765 0.930 . S
C778 C777 1.376 . S
C778 C779 1.388 . S
C779 H766 0.930 . S
C779 C778 1.388 . S
C779 C780 1.390 . S
C780 C779 1.390 . S
C780 C781 1.394 . S
C780 C786 1.465 . S
C781 C776 1.399 . S
C781 C780 1.394 . S
C781 C782 1.516 . S
C782 C781 1.516 . S
C782 C783 1.502 1_655 S
C782 C784 1.561 . S
C782 C785 1.526 . S
C783 H767 0.959 . S
C783 H768 0.959 . S
C783 H769 0.961 . S
C783 C782 1.502 1_455 S
C784 H770 0.960 . S
C784 H771 0.961 . S
C784 H772 0.959 . S
C784 C782 1.561 . S
C785 C782 1.526 . S
C785 C786 1.396 . S
C785 C790 1.390 . S
C786 C780 1.465 . S
C786 C785 1.396 . S
C786 C787 1.399 . S
C787 H773 0.929 . S
C787 C786 1.399 . S
C787 C788 1.385 . S
C788 H774 0.931 . S
C788 C787 1.385 . S
C788 C789 1.389 . S
C789 C788 1.389 . S
C789 C790 1.387 . S
C790 H775 0.930 1_655 S
C790 C785 1.390 . S
C790 C789 1.387 . S
H791 C803 0.930 . S
H792 C805 0.930 . S
H793 C806 0.930 . S
H794 C810 0.959 . S
H795 C810 0.959 . S
H796 C810 0.961 . S
H797 C811 0.960 . S
H798 C811 0.961 . S
H799 C811 0.959 . S
H800 C814 0.929 . S
H801 C815 0.931 . S
H802 C817 0.930 . S
C803 H791 0.930 . S
C803 C804 1.399 . S
C803 C808 1.399 . S
C804 C803 1.399 . S
C804 C805 1.376 1_565 S
C805 H792 0.930 . S
C805 C804 1.376 1_545 S
C805 C806 1.388 . S
C806 H793 0.930 . S
C806 C805 1.388 . S
C806 C807 1.389 1_545 S
C807 C806 1.389 1_565 S
C807 C808 1.395 . S
C807 C813 1.465 1_565 S
C808 C803 1.399 . S
C808 C807 1.395 . S
C808 C809 1.516 . S
C809 C808 1.516 . S
C809 C810 1.502 . S
C809 C811 1.561 . S
C809 C812 1.526 . S
C810 H794 0.959 . S
C810 H795 0.959 . S
C810 H796 0.961 . S
C810 C809 1.502 . S
C811 H797 0.960 . S
C811 H798 0.961 . S
C811 H799 0.959 . S
C811 C809 1.561 . S
C812 C809 1.526 . S
C812 C813 1.389 1_565 S
C812 C817 1.390 . S
C813 C807 1.465 1_545 S
C813 C812 1.389 1_545 S
C813 C814 1.405 . S
C814 H800 0.929 . S
C814 C813 1.405 . S
C814 C815 1.385 . S
C815 H801 0.931 . S
C815 C814 1.385 . S
C815 C816 1.389 1_545 S
C816 C815 1.389 1_565 S
C816 C817 1.387 . S
C817 H802 0.930 . S
C817 C812 1.390 . S
C817 C816 1.387 . S
H818 C830 0.930 . S
H819 C832 0.930 . S
H820 C833 0.930 . S
H821 C837 0.959 . S
H822 C837 0.959 . S
H823 C837 0.961 . S
H824 C838 0.960 . S
H825 C838 0.961 . S
H826 C838 0.959 . S
H827 C841 0.929 . S
H828 C842 0.931 . S
H829 C844 0.930 . S
C830 H818 0.930 . S
C830 C831 1.399 . S
C830 C835 1.399 . S
C831 C830 1.399 . S
C831 C832 1.376 . S
C832 H819 0.930 . S
C832 C831 1.376 . S
C832 C833 1.388 . S
C833 H820 0.930 . S
C833 C832 1.388 . S
C833 C834 1.390 . S
C834 C833 1.390 . S
C834 C835 1.394 . S
C834 C840 1.465 . S
C835 C830 1.399 . S
C835 C834 1.394 . S
C835 C836 1.516 . S
C836 C835 1.516 . S
C836 C837 1.502 . S
C836 C838 1.561 . S
C836 C839 1.526 . S
C837 H821 0.959 . S
C837 H822 0.959 . S
C837 H823 0.961 . S
C837 C836 1.502 . S
C838 H824 0.960 . S
C838 H825 0.961 . S
C838 H826 0.959 . S
C838 C836 1.561 . S
C839 C836 1.526 . S
C839 C840 1.396 . S
C839 C844 1.390 . S
C840 C834 1.465 . S
C840 C839 1.396 . S
C840 C841 1.399 . S
C841 H827 0.929 . S
C841 C840 1.399 . S
C841 C842 1.385 . S
C842 H828 0.931 . S
C842 C841 1.385 . S
C842 C843 1.389 . S
C843 C842 1.389 . S
C843 C844 1.387 . S
C844 H829 0.930 . S
C844 C839 1.390 . S
C844 C843 1.387 . S
H845 C857 0.930 . S
H846 C859 0.930 . S
H847 C860 0.930 . S
H848 C864 0.959 . S
H849 C864 0.959 . S
H850 C864 0.961 . S
H851 C865 0.960 . S
H852 C865 0.961 . S
H853 C865 0.959 . S
H854 C868 0.929 . S
H855 C869 0.931 . S
H856 C871 0.930 . S
C857 H845 0.930 . S
C857 C858 1.399 . S
C857 C862 1.399 . S
C858 C857 1.399 . S
C858 C859 1.376 . S
C859 H846 0.930 . S
C859 C858 1.376 . S
C859 C860 1.388 . S
C860 H847 0.930 . S
C860 C859 1.388 . S
C860 C861 1.390 . S
C861 C860 1.390 . S
C861 C862 1.394 . S
C861 C867 1.465 . S
C862 C857 1.399 . S
C862 C861 1.394 . S
C862 C863 1.516 . S
C863 C862 1.516 . S
C863 C864 1.502 . S
C863 C865 1.561 . S
C863 C866 1.526 . S
C864 H848 0.959 . S
C864 H849 0.959 . S
C864 H850 0.961 . S
C864 C863 1.502 . S
C865 H851 0.960 . S
C865 H852 0.961 . S
C865 H853 0.959 . S
C865 C863 1.561 . S
C866 C863 1.526 . S
C866 C867 1.396 . S
C866 C871 1.390 . S
C867 C861 1.465 . S
C867 C866 1.396 . S
C867 C868 1.399 . S
C868 H854 0.929 . S
C868 C867 1.399 . S
C868 C869 1.385 . S
C869 H855 0.931 . S
C869 C868 1.385 . S
C869 C870 1.389 . S
C870 C869 1.389 . S
C870 C871 1.387 . S
C871 H856 0.930 . S
C871 C866 1.390 . S
C871 C870 1.387 . S
H872 C884 0.930 . S
H873 C886 0.930 . S
H874 C887 0.930 . S
H875 C891 0.959 1_554 S
H876 C891 0.959 . S
H877 C891 0.961 . S
H878 C892 0.960 . S
H879 C892 0.961 . S
H880 C892 0.959 . S
H881 C895 0.929 1_554 S
H882 C896 0.931 . S
H883 C898 0.930 . S
C884 H872 0.930 . S
C884 C885 1.399 1_655 S
C884 C889 1.399 . S
C885 C884 1.399 1_455 S
C885 C886 1.376 . S
C886 H873 0.930 . S
C886 C885 1.376 . S
C886 C887 1.388 . S
C887 H874 0.930 . S
C887 C886 1.388 . S
C887 C888 1.390 . S
C888 C887 1.390 . S
C888 C889 1.394 1_455 S
C888 C894 1.465 1_554 S
C889 C884 1.399 . S
C889 C888 1.394 1_655 S
C889 C890 1.516 1_554 S
C890 C889 1.516 1_556 S
C890 C891 1.502 . S
C890 C892 1.561 . S
C890 C893 1.526 . S
C891 H875 0.959 1_556 S
C891 H876 0.959 . S
C891 H877 0.961 . S
C891 C890 1.502 . S
C892 H878 0.960 . S
C892 H879 0.961 . S
C892 H880 0.959 . S
C892 C890 1.561 . S
C893 C890 1.526 . S
C893 C894 1.396 1_655 S
C893 C898 1.390 . S
C894 C888 1.465 1_556 S
C894 C893 1.396 1_455 S
C894 C895 1.399 . S
C895 H881 0.929 1_556 S
C895 C894 1.399 . S
C895 C896 1.385 . S
C896 H882 0.931 . S
C896 C895 1.385 . S
C896 C897 1.389 . S
C897 C896 1.389 . S
C897 C898 1.387 1_455 S
C898 H883 0.930 . S
C898 C893 1.390 . S
C898 C897 1.387 1_655 S
H899 C911 0.930 . S
H900 C913 0.930 . S
H901 C914 0.930 . S
H902 C918 0.959 . S
H903 C918 0.959 . S
H904 C918 0.961 . S
H905 C919 0.977 1_556 S
H906 C919 0.940 1_655 S
H907 C919 0.969 . S
H908 C922 0.929 . S
H909 C923 0.931 . S
H910 C925 0.930 . S
C911 H899 0.930 . S
C911 C912 1.399 1_565 S
C911 C916 1.399 . S
C912 C911 1.399 1_545 S
C912 C913 1.376 . S
C913 H900 0.930 . S
C913 C912 1.376 . S
C913 C914 1.388 1_556 S
C914 H901 0.930 . S
C914 C913 1.388 1_554 S
C914 C915 1.390 . S
C915 C914 1.390 . S
C915 C916 1.394 1_544 S
C915 C921 1.465 1_455 S
C916 C911 1.399 . S
C916 C915 1.394 1_566 S
C916 C917 1.516 1_455 S
C917 C916 1.516 1_655 S
C917 C918 1.502 . S
C917 C919 1.555 1_656 S
C917 C920 1.526 1_556 S
C918 H902 0.959 . S
C918 H903 0.959 . S
C918 H904 0.961 . S
C918 C917 1.502 . S
C919 H905 0.977 1_554 S
C919 H906 0.940 1_455 S
C919 H907 0.969 . S
C919 C917 1.555 1_454 S
C920 C917 1.526 1_554 S
C920 C921 1.396 1_565 S
C920 C925 1.390 . S
C921 C915 1.465 1_655 S
C921 C920 1.396 1_545 S
C921 C922 1.399 . S
C922 H908 0.929 . S
C922 C921 1.399 . S
C922 C923 1.385 . S
C923 H909 0.931 . S
C923 C922 1.385 . S
C923 C924 1.389 . S
C924 C923 1.389 . S
C924 C925 1.387 1_545 S
C925 H910 0.930 . S
C925 C920 1.390 . S
C925 C924 1.387 1_565 S
H926 C938 0.930 . S
H927 C940 0.930 . S
H928 C941 0.930 . S
H929 C945 0.959 . S
H930 C945 0.959 . S
H931 C945 0.961 . S
H932 C946 0.960 . S
H933 C946 0.961 . S
H934 C946 0.959 . S
H935 C949 0.929 . S
H936 C950 0.931 . S
H937 C952 0.942 . S
C938 H926 0.930 . S
C938 C939 1.399 . S
C938 C943 1.399 . S
C939 C938 1.399 . S
C939 C940 1.376 . S
C940 H927 0.930 . S
C940 C939 1.376 . S
C940 C941 1.388 1_554 S
C941 H928 0.930 . S
C941 C940 1.388 1_556 S
C941 C942 1.390 . S
C942 C941 1.390 . S
C942 C943 1.394 1_556 S
C942 C948 1.465 1_565 S
C943 C938 1.399 . S
C943 C942 1.394 1_554 S
C943 C944 1.516 1_565 S
C944 C943 1.516 1_545 S
C944 C945 1.502 . S
C944 C946 1.561 . S
C944 C947 1.526 1_554 S
C945 H929 0.959 . S
C945 H930 0.959 . S
C945 H931 0.961 . S
C945 C944 1.502 . S
C946 H932 0.960 . S
C946 H933 0.961 . S
C946 H934 0.959 . S
C946 C944 1.561 . S
C947 C944 1.526 1_556 S
C947 C948 1.396 . S
C947 C952 1.390 . S
C948 C942 1.465 1_545 S
C948 C947 1.396 . S
C948 C949 1.399 . S
C949 H935 0.929 . S
C949 C948 1.399 . S
C949 C950 1.385 . S
C950 H936 0.931 . S
C950 C949 1.385 . S
C950 C951 1.389 . S
C951 C950 1.389 . S
C951 C952 1.387 . S
C952 H937 0.942 . S
C952 C947 1.390 . S
C952 C951 1.387 . S
H953 C965 0.930 . S
H954 C967 0.930 . S
H955 C968 0.930 1_554 S
H956 C972 0.959 . S
H957 C972 0.959 . S
H958 C972 0.961 . S
H959 C973 0.960 . S
H960 C973 0.961 . S
H961 C973 0.959 . S
H962 C976 0.929 . S
H963 C977 0.931 . S
H964 C979 0.930 . S
C965 H953 0.930 . S
C965 C966 1.399 . S
C965 C970 1.399 . S
C966 C965 1.399 . S
C966 C967 1.376 . S
C967 H954 0.930 . S
C967 C966 1.376 . S
C967 C968 1.388 . S
C968 H955 0.930 1_556 S
C968 C967 1.388 . S
C968 C969 1.393 . S
C969 C968 1.393 . S
C969 C970 1.407 . S
C969 C975 1.451 1_556 S
C970 C965 1.399 . S
C970 C969 1.407 . S
C970 C971 1.516 . S
C971 C970 1.516 . S
C971 C972 1.502 . S
C971 C973 1.561 1_556 S
C971 C974 1.526 1_556 S
C972 H956 0.959 . S
C972 H957 0.959 . S
C972 H958 0.961 . S
C972 C971 1.502 . S
C973 H959 0.960 . S
C973 H960 0.961 . S
C973 H961 0.959 . S
C973 C971 1.561 1_554 S
C974 C971 1.526 1_554 S
C974 C975 1.396 . S
C974 C979 1.390 . S
C975 C969 1.451 1_554 S
C975 C974 1.396 . S
C975 C976 1.399 . S
C976 H962 0.929 . S
C976 C975 1.399 . S
C976 C977 1.385 . S
C977 H963 0.931 . S
C977 C976 1.385 . S
C977 C978 1.389 . S
C978 C977 1.389 . S
C978 C979 1.387 . S
C979 H964 0.930 . S
C979 C974 1.390 . S
C979 C978 1.387 . S
H980 C992 0.930 . S
H981 C994 0.930 . S
H982 C995 0.930 . S
H983 C999 0.959 . S
H984 C999 0.959 . S
H985 C999 0.961 . S
H986 C1000 0.960 . S
H987 C1000 0.961 . S
H988 C1000 0.959 . S
H989 C1003 0.929 1_565 S
H990 C1004 0.931 . S
H991 C1006 0.930 . S
C992 H980 0.930 . S
C992 C993 1.399 1_455 S
C992 C997 1.399 . S
C993 C992 1.399 1_655 S
C993 C994 1.376 . S
C994 H981 0.930 . S
C994 C993 1.376 . S
C994 C995 1.388 . S
C995 H982 0.930 . S
C995 C994 1.388 . S
C995 C996 1.390 . S
C996 C995 1.390 . S
C996 C997 1.394 1_655 S
C996 C1002 1.465 1_565 S
C997 C992 1.399 . S
C997 C996 1.394 1_455 S
C997 C998 1.516 1_565 S
C998 C997 1.516 1_545 S
C998 C999 1.502 . S
C998 C1000 1.561 1_455 S
C998 C1001 1.526 . S
C999 H983 0.959 . S
C999 H984 0.959 . S
C999 H985 0.961 . S
C999 C998 1.502 . S
C1000 H986 0.960 . S
C1000 H987 0.961 . S
C1000 H988 0.959 . S
C1000 C998 1.561 1_655 S
C1001 C998 1.526 . S
C1001 C1002 1.396 1_455 S
C1001 C1006 1.390 . S
C1002 C996 1.465 1_545 S
C1002 C1001 1.396 1_655 S
C1002 C1003 1.399 . S
C1003 H989 0.929 1_545 S
C1003 C1002 1.399 . S
C1003 C1004 1.385 . S
C1004 H990 0.931 . S
C1004 C1003 1.385 . S
C1004 C1005 1.389 . S
C1005 C1004 1.389 . S
C1005 C1006 1.387 1_655 S
C1006 H991 0.930 . S
C1006 C1001 1.390 . S
C1006 C1005 1.387 1_455 S
H1007 C1019 0.930 . S
H1008 C1021 0.930 . S
H1009 C1022 0.930 . S
H1010 C1026 0.959 . S
H1011 C1026 0.959 . S
H1012 C1026 0.961 . S
H1013 C1027 0.960 . S
H1014 C1027 0.961 . S
H1015 C1027 0.959 . S
H1016 C1030 0.929 . S
H1017 C1031 0.931 . S
H1018 C1033 0.930 . S
C1019 H1007 0.930 . S
C1019 C1020 1.399 1_545 S
C1019 C1024 1.399 . S
C1020 C1019 1.399 1_565 S
C1020 C1021 1.376 . S
C1021 H1008 0.930 . S
C1021 C1020 1.376 . S
C1021 C1022 1.388 . S
C1022 H1009 0.930 . S
C1022 C1021 1.388 . S
C1022 C1023 1.390 . S
C1023 C1022 1.390 . S
C1023 C1024 1.394 1_565 S
C1023 C1029 1.465 . S
C1024 C1019 1.399 . S
C1024 C1023 1.394 1_545 S
C1024 C1025 1.516 . S
C1025 C1024 1.516 . S
C1025 C1026 1.502 . S
C1025 C1027 1.561 . S
C1025 C1028 1.526 . S
C1026 H1010 0.959 . S
C1026 H1011 0.959 . S
C1026 H1012 0.961 . S
C1026 C1025 1.502 . S
C1027 H1013 0.960 . S
C1027 H1014 0.961 . S
C1027 H1015 0.959 . S
C1027 C1025 1.561 . S
C1028 C1025 1.526 . S
C1028 C1029 1.396 1_545 S
C1028 C1033 1.390 . S
C1029 C1023 1.465 . S
C1029 C1028 1.396 1_565 S
C1029 C1030 1.399 . S
C1030 H1016 0.929 . S
C1030 C1029 1.399 . S
C1030 C1031 1.385 . S
C1031 H1017 0.931 . S
C1031 C1030 1.385 . S
C1031 C1032 1.389 . S
C1032 C1031 1.389 . S
C1032 C1033 1.387 1_565 S
C1033 H1018 0.930 . S
C1033 C1028 1.390 . S
C1033 C1032 1.387 1_545 S
H1034 C1046 0.930 . S
H1035 C1048 0.930 . S
H1036 C1049 0.930 . S
H1037 C1053 0.959 . S
H1038 C1053 0.959 . S
H1039 C1053 0.961 . S
H1040 C1054 0.960 . S
H1041 C1054 0.961 . S
H1042 C1054 0.959 . S
H1043 C1057 0.929 . S
H1044 C1058 0.931 . S
H1045 C1060 0.930 . S
C1046 H1034 0.930 . S
C1046 C1047 1.399 . S
C1046 C1051 1.399 . S
C1047 C1046 1.399 . S
C1047 C1048 1.376 . S
C1048 H1035 0.930 . S
C1048 C1047 1.376 . S
C1048 C1049 1.388 . S
C1049 H1036 0.930 . S
C1049 C1048 1.388 . S
C1049 C1050 1.390 . S
C1050 C1049 1.390 . S
C1050 C1051 1.394 . S
C1050 C1056 1.465 . S
C1051 C1046 1.399 . S
C1051 C1050 1.394 . S
C1051 C1052 1.516 . S
C1052 C1051 1.516 . S
C1052 C1053 1.502 . S
C1052 C1054 1.561 . S
C1052 C1055 1.526 . S
C1053 H1037 0.959 . S
C1053 H1038 0.959 . S
C1053 H1039 0.961 . S
C1053 C1052 1.502 . S
C1054 H1040 0.960 . S
C1054 H1041 0.961 . S
C1054 H1042 0.959 . S
C1054 C1052 1.561 . S
C1055 C1052 1.526 . S
C1055 C1056 1.396 . S
C1055 C1060 1.390 . S
C1056 C1050 1.465 . S
C1056 C1055 1.396 . S
C1056 C1057 1.399 . S
C1057 H1043 0.929 . S
C1057 C1056 1.399 . S
C1057 C1058 1.385 . S
C1058 H1044 0.931 . S
C1058 C1057 1.385 . S
C1058 C1059 1.389 . S
C1059 C1058 1.389 . S
C1059 C1060 1.387 . S
C1060 H1045 0.930 . S
C1060 C1055 1.390 . S
C1060 C1059 1.387 . S
H1061 C1073 0.930 . S
H1062 C1075 0.930 . S
H1063 C1076 0.930 . S
H1064 C1080 0.959 . S
H1065 C1080 0.959 . S
H1066 C1080 0.961 . S
H1067 C1081 0.960 . S
H1068 C1081 0.961 . S
H1069 C1081 0.959 . S
H1070 C1084 0.929 1_655 S
H1071 C1085 0.931 . S
H1072 C1087 0.930 . S
C1073 H1061 0.930 . S
C1073 C1074 1.399 . S
C1073 C1078 1.399 . S
C1074 C1073 1.399 . S
C1074 C1075 1.376 . S
C1075 H1062 0.930 . S
C1075 C1074 1.376 . S
C1075 C1076 1.388 . S
C1076 H1063 0.930 . S
C1076 C1075 1.388 . S
C1076 C1077 1.390 . S
C1077 C1076 1.390 . S
C1077 C1078 1.394 . S
C1077 C1083 1.465 1_655 S
C1078 C1073 1.399 . S
C1078 C1077 1.394 . S
C1078 C1079 1.516 1_655 S
C1079 C1078 1.516 1_455 S
C1079 C1080 1.502 . S
C1079 C1081 1.561 . S
C1079 C1082 1.526 . S
C1080 H1064 0.959 . S
C1080 H1065 0.959 . S
C1080 H1066 0.961 . S
C1080 C1079 1.502 . S
C1081 H1067 0.960 . S
C1081 H1068 0.961 . S
C1081 H1069 0.959 . S
C1081 C1079 1.561 . S
C1082 C1079 1.526 . S
C1082 C1083 1.396 . S
C1082 C1087 1.390 . S
C1083 C1077 1.465 1_455 S
C1083 C1082 1.396 . S
C1083 C1084 1.399 . S
C1084 H1070 0.929 1_455 S
C1084 C1083 1.399 . S
C1084 C1085 1.385 . S
C1085 H1071 0.931 . S
C1085 C1084 1.385 . S
C1085 C1086 1.389 . S
C1086 C1085 1.389 . S
C1086 C1087 1.387 . S
C1087 H1072 0.930 . S
C1087 C1082 1.390 . S
C1087 C1086 1.387 . S
C237 C7 1.588 . S
C249 C35 1.588 . S
C264 C21 1.587 . S
C276 C49 1.583 . S
C291 C63 1.575 . S
C303 C91 1.580 . S
C318 C105 1.579 . S
C330 C77 1.583 . S
C345 C119 1.580 . S
C357 C147 1.586 . S
C372 C161 1.575 . S
C384 C133 1.584 . S
C399 C203 1.548 . S
C411 C175 1.538 . S
C426 C217 1.580 . S
C438 C189 1.586 . S
C453 C106 1.598 . S
C465 C8 1.597 . S
C480 C22 1.571 . S
C492 C64 1.560 . S
C507 C78 1.600 . S
C519 C36 1.594 . S
C534 C50 1.560 . S
C546 C92 1.574 . S
C561 C218 1.591 . S
C573 C120 1.599 . S
C588 C134 1.597 . S
C600 C176 1.601 . S
C615 C148 1.561 . S
C627 C190 1.561 . S
C642 C204 1.576 . S
C654 C162 1.566 . S
C669 C9 0.858 . S
C681 C65 0.966 . S
C696 C23 0.747 . S
C708 C79 0.841 . S
C723 C93 0.824 . S
C735 C37 0.955 . S
C750 C51 0.969 . S
C762 C107 0.862 . S
C777 C177 0.748 . S
C789 C121 0.901 . S
C804 C191 0.840 . S
C816 C135 0.966 . S
C831 C149 0.756 . S
C843 C205 0.944 . S
C858 C163 0.853 . S
C870 C219 0.963 . S
C885 C6 1.788 . S
C897 C118 1.797 1_455 S
C912 C132 1.808 1_545 S
C924 C20 1.776 . S
C939 C34 1.801 . S
C951 C146 1.770 . S
C966 C160 1.805 . S
C978 C48 1.779 . S
C993 C62 1.804 1_655 S
C1005 C174 1.769 . S
C1020 C76 1.766 1_565 S
C1032 C188 1.807 . S
C1047 C202 1.808 . S
C1059 C90 1.766 . S
C1074 C104 1.806 . S
C1086 C216 1.767 . S
