# Generated by pormake.
# Topology rkf, (6)-cn, num edge types: 1
# Building blocks:
#     Node 0, Type 0, BuildingBlock: HISSIN_clean_sbu_0, # of connection points: 6
#     Node 1, Type 0, BuildingBlock: HISSIN_clean_sbu_0, # of connection points: 6
#     Node 2, Type 0, BuildingBlock: HISSIN_clean_sbu_0, # of connection points: 6
#     Node 3, Type 0, BuildingBlock: HISSIN_clean_sbu_0, # of connection points: 6
#     Node 4, Type 0, BuildingBlock: HISSIN_clean_sbu_0, # of connection points: 6
#     Node 5, Type 0, BuildingBlock: HISSIN_clean_sbu_0, # of connection points: 6
#     Edge 6, Type (0, 0), BuildingBlock: AJUNOK_clean_linker_0, # of connection points: 2
#     Edge 7, Type (0, 0), BuildingBlock: AJUNOK_clean_linker_0, # of connection points: 2
#     Edge 8, Type (0, 0), BuildingBlock: AJUNOK_clean_linker_0, # of connection points: 2
#     Edge 9, Type (0, 0), BuildingBlock: AJUNOK_clean_linker_0, # of connection points: 2
#     Edge 10, Type (0, 0), BuildingBlock: AJUNOK_clean_linker_0, # of connection points: 2
#     Edge 11, Type (0, 0), BuildingBlock: AJUNOK_clean_linker_0, # of connection points: 2
#     Edge 12, Type (0, 0), BuildingBlock: AJUNOK_clean_linker_0, # of connection points: 2
#     Edge 13, Type (0, 0), BuildingBlock: AJUNOK_clean_linker_0, # of connection points: 2
#     Edge 14, Type (0, 0), BuildingBlock: AJUNOK_clean_linker_0, # of connection points: 2
#     Edge 15, Type (0, 0), BuildingBlock: AJUNOK_clean_linker_0, # of connection points: 2
#     Edge 16, Type (0, 0), BuildingBlock: AJUNOK_clean_linker_0, # of connection points: 2
#     Edge 17, Type (0, 0), BuildingBlock: AJUNOK_clean_linker_0, # of connection points: 2
#     Edge 18, Type (0, 0), BuildingBlock: AJUNOK_clean_linker_0, # of connection points: 2
#     Edge 19, Type (0, 0), BuildingBlock: AJUNOK_clean_linker_0, # of connection points: 2
#     Edge 20, Type (0, 0), BuildingBlock: AJUNOK_clean_linker_0, # of connection points: 2
#     Edge 21, Type (0, 0), BuildingBlock: AJUNOK_clean_linker_0, # of connection points: 2
#     Edge 22, Type (0, 0), BuildingBlock: AJUNOK_clean_linker_0, # of connection points: 2
#     Edge 23, Type (0, 0), BuildingBlock: AJUNOK_clean_linker_0, # of connection points: 2
# Relax obj value: 1.013
# Max RMSD: 0.255
# Mean RMSD: 0.255
data_MOF--net-rkf--node1-HISSIN_clean_sbu_0--edge1-AJUNOK_clean_linker_0
_symmetry_space_group_name_H-M    P1
_symmetry_Int_Tables_number       1
_symmetry_cell_setting            triclinic
loop_
_symmetry_equiv_pos_as_xyz
'x, y, z'
_cell_length_a     20.059517
_cell_length_b     19.81178
_cell_length_c     31.276921
_cell_angle_alpha  91.078659
_cell_angle_beta   90.895532
_cell_angle_gamma 119.79896
loop_
_atom_site_label
_atom_site_type_symbol
_atom_site_fract_x
_atom_site_fract_y
_atom_site_fract_z
_atom_type_partial_charge
Eu0 Eu 0.36746 0.08437 0.29097 0.0
Eu1 Eu 0.36938 0.23573 1.25657 0.0
C2 C 0.51682 0.22005 0.263 0.0
C3 C 0.37036 0.93833 0.36496 0.0
C4 C 0.35405 0.86111 0.36769 0.0
C5 C 0.31837 0.93152 0.43505 0.0
C6 C 0.31625 0.81794 0.40313 0.0
C7 C 0.35628 0.97462 0.39981 0.0
C8 C 0.29392 0.85177 0.43562 0.0
C9 C 0.38873 -0.02398 0.32367 0.0
O10 O 0.36526 0.1701 1.19441 0.0
O11 O 0.31801 0.0489 1.22282 0.0
C12 C 0.32904 0.0932 1.18958 0.0
O13 O 0.24426 0.05101 0.29783 0.0
O14 O 0.42992 0.36249 0.26254 0.0
O15 O 0.32928 0.30257 1.2208 0.0
O16 O 0.24519 0.14174 1.25247 0.0
C17 C 0.20858 0.0764 0.27304 0.0
O18 O 0.38309 0.16381 0.35002 0.0
O19 O 0.3232 0.22562 0.3225 0.0
O20 O 0.48812 0.26089 0.2792 0.0
O21 O 0.32907 0.96164 0.29962 0.0
O22 O 0.44102 0.04955 0.32464 0.0
O23 O 0.46812 0.15002 1.24947 0.0
C24 C 0.42488 0.42607 1.20016 0.0
C25 C 0.37929 0.43467 1.16891 0.0
C26 C 0.53828 0.50612 1.15936 0.0
C27 C 0.41192 0.47356 1.13178 0.0
C28 C 0.50519 0.46556 1.19633 0.0
C29 C 0.49138 0.50645 1.12558 0.0
C30 C 0.38648 0.36973 1.23374 0.0
C31 C 0.34984 0.20654 0.35578 0.0
H32 H 0.36462 0.83241 0.34097 0.0
H33 H 0.30078 0.95827 0.45961 0.0
H34 H 0.29741 0.75637 0.40286 0.0
H35 H 0.36835 0.03421 0.39819 0.0
H36 H 0.31738 0.40576 1.17156 0.0
H37 H 0.5997 0.53175 1.15579 0.0
H38 H 0.3731 0.47047 1.10642 0.0
H39 H 0.542 0.46123 1.22052 0.0
Eu40 Eu 0.36998 0.37522 0.62813 0.0
Eu41 Eu 0.22447 0.38159 0.58677 0.0
C42 C 0.37374 0.52911 0.61312 0.0
C43 C 0.56652 0.45753 0.68472 0.0
C44 C 0.57064 0.52515 0.70255 0.0
C45 C 0.63729 0.45108 0.74605 0.0
C46 C 0.60288 0.55164 0.74367 0.0
C47 C 0.60689 0.42572 0.70476 0.0
C48 C 0.6252 0.50674 0.768 0.0
C49 C 0.5097 0.41112 0.65079 0.0
O50 O 0.26597 0.35149 0.5265 0.0
O51 O 0.36826 0.34558 0.55652 0.0
C52 C 0.32279 0.33659 0.52324 0.0
O53 O 0.29149 0.24889 0.61645 0.0
O54 O 0.16472 0.44792 0.5908 0.0
O55 O 0.11971 0.34598 0.54853 0.0
O56 O 0.18352 0.25371 0.59297 0.0
C57 C 0.22018 0.21567 0.60209 0.0
O58 O 0.29724 0.34909 0.6876 0.0
O59 O 0.2044 0.3723 0.65876 0.0
O60 O 0.33389 0.49577 0.57811 0.0
O61 O 0.44826 0.34912 0.66358 0.0
O62 O 0.49376 0.44918 0.62245 0.0
O63 O 0.36588 0.48362 0.64421 0.0
C64 C 0.10123 0.44891 0.52764 0.0
C65 C 0.15785 0.48771 0.49764 0.0
C66 C 0.01906 0.4888 0.49161 0.0
C67 C 0.14469 0.52575 0.46435 0.0
C68 C 0.03244 0.45079 0.52504 0.0
C69 C 0.07463 0.52593 0.46043 0.0
C70 C 0.11337 0.40559 0.56128 0.0
C71 C 0.23542 0.35636 0.69182 0.0
H72 H 0.54201 0.55235 0.68687 0.0
H73 H 0.65718 0.41702 0.76291 0.0
H74 H 0.59759 0.59833 0.75879 0.0
H75 H 0.60658 0.37502 0.69085 0.0
H76 H 0.2115 0.48698 0.49939 0.0
H77 H -0.03546 0.48726 0.48983 0.0
H78 H 0.18835 0.55195 0.44057 0.0
H79 H -0.01159 0.42141 0.54832 0.0
Eu80 Eu 0.1131 0.28215 0.96398 0.0
Eu81 Eu -0.02587 0.31076 0.93466 0.0
C82 C 0.1382 0.45136 0.96029 0.0
C83 C 0.2959 0.27826 0.96671 0.0
C84 C 0.32285 0.33917 0.93792 0.0
C85 C 0.42536 0.32488 0.99275 0.0
C86 C 0.39998 0.39722 0.94 0.0
C87 C 0.34838 0.26687 0.99075 0.0
C88 C 0.44923 0.39585 0.9719 0.0
C89 C 0.21719 0.24453 0.98111 0.0
O90 O 0.04609 0.33855 0.87372 0.0
O91 O 0.12422 0.28906 0.89228 0.0
C92 C 0.09886 0.31945 0.86377 0.0
O93 O -0.00323 0.17656 0.96496 0.0
O94 O 0.93734 0.39226 0.91442 0.0
O95 O 0.85219 0.27373 0.92845 0.0
O96 O -0.0467 0.1975 0.90359 0.0
C97 C -0.04106 0.14884 0.92891 0.0
O98 O 0.06457 0.29368 1.02697 0.0
O99 O 0.94362 0.26021 1.00231 0.0
O100 O 0.06574 0.41737 0.9703 0.0
O101 O 0.20565 0.29224 1.00526 0.0
O102 O 0.1629 0.20781 0.95194 0.0
O103 O 0.16991 0.4098 0.94966 0.0
C104 C 0.81913 0.33801 0.87553 0.0
C105 C 0.76829 0.26723 0.8545 0.0
C106 C 0.79498 0.40693 0.8191 0.0
C107 C 0.73384 0.26643 0.81538 0.0
C108 C 0.82945 0.40769 0.85851 0.0
C109 C 0.74909 0.33643 0.79622 0.0
C110 C 0.86438 0.3402 0.91377 0.0
C111 C -0.00864 0.26799 1.03428 0.0
H112 H 0.28294 0.34758 0.91809 0.0
H113 H 0.46184 0.31868 1.01633 0.0
H114 H 0.41775 0.44834 0.92117 0.0
H115 H 0.32859 0.21899 1.01242 0.0
H116 H 0.75823 0.21239 0.86694 0.0
H117 H 0.80805 0.46169 0.8053 0.0
H118 H 0.70068 0.21077 0.79863 0.0
H119 H 0.86734 0.46309 0.87462 0.0
Eu120 Eu 0.91897 0.16506 0.30765 0.0
Eu121 Eu 0.75963 0.02017 0.27459 0.0
C122 C 0.7681 0.17498 0.30316 0.0
C123 C 0.08163 0.36687 0.30886 0.0
C124 C 0.0384 0.38163 0.2785 0.0
C125 C 0.15209 0.50319 0.3285 0.0
C126 C 0.04671 0.45591 0.27681 0.0
C127 C 0.14354 0.42911 0.33051 0.0
C128 C 0.09523 0.51362 0.30713 0.0
C129 C 0.05001 0.2888 0.32568 0.0
O130 O 0.80742 0.09702 1.21529 0.0
O131 O 0.93307 0.15846 1.23677 0.0
C132 C 0.88085 0.14166 1.20656 0.0
O133 O 0.927 0.05724 0.31376 0.0
O134 O 0.6476 -0.01935 1.24354 0.0
O135 O 0.6773 0.89629 0.26682 0.0
O136 O 0.85345 -0.00406 1.2546 0.0
C137 C 0.90839 0.00701 0.28192 0.0
O138 O 0.86673 0.10573 0.3698 0.0
O139 O 0.77408 -0.01384 0.34277 0.0
O140 O 0.73573 0.10208 0.31343 0.0
O141 O -0.01112 0.26727 0.34846 0.0
O142 O 0.04246 0.23454 0.29853 0.0
O143 O 0.83792 0.20854 0.28896 0.0
C144 C 0.60724 0.8653 1.20218 0.0
C145 C 0.64332 0.9036 1.16488 0.0
C146 C 0.55823 0.74107 1.16444 0.0
C147 C 0.63977 0.86066 1.12822 0.0
C148 C 0.56133 0.78405 1.20105 0.0
C149 C 0.60095 0.77913 1.12868 0.0
C150 C 0.62914 0.90749 1.24367 0.0
C151 C 0.81635 0.03166 0.37548 0.0
H152 H -0.00845 0.33405 0.26041 0.0
H153 H 0.19414 0.54746 0.35035 0.0
H154 H 0.00528 0.46339 1.25789 0.0
H155 H 0.17896 0.41904 0.35311 0.0
H156 H 0.67956 0.9663 1.16511 0.0
H157 H 0.52832 0.6781 1.16541 0.0
H158 H 0.67408 0.89114 1.10125 0.0
H159 H 0.53334 0.75361 1.22958 0.0
Eu160 Eu 0.84265 0.92349 0.64773 0.0
Eu161 Eu 0.82307 0.76549 0.60372 0.0
C162 C 0.6778 0.77664 0.6293 0.0
C163 C 0.84043 0.11303 0.67097 0.0
C164 C 0.77708 0.09745 0.64429 0.0
C165 C 0.86006 0.24104 0.68765 0.0
C166 C 0.7534 0.15294 0.64074 0.0
C167 C 0.88362 0.18619 0.69092 0.0
C168 C 0.7925 0.22409 0.66418 0.0
C169 C 0.86125 0.05368 0.68035 0.0
O170 O 0.79193 0.82341 0.54932 0.0
O171 O 0.85425 0.94788 0.57721 0.0
C172 C 0.82064 0.89918 0.54451 0.0
O173 O -0.04105 0.93394 0.64654 0.0
O174 O 0.8075 0.68877 0.549 0.0
O175 O 0.80761 0.64952 0.61292 0.0
O176 O 0.94084 0.85913 0.58658 0.0
C177 C -0.0138 0.91532 0.61346 0.0
O178 O 0.84912 0.85574 0.70417 0.0
O179 O 0.88886 0.78182 0.66734 0.0
O180 O 0.71112 0.73477 0.63323 0.0
O181 O 0.8058 -0.01465 0.69091 0.0
O182 O 0.90983 0.04962 0.65474 0.0
O183 O 0.7181 0.85213 0.62588 0.0
C184 C 0.87646 0.62455 0.56049 0.0
C185 C 0.94433 0.65735 0.58604 0.0
C186 C 0.94633 0.61441 0.50081 0.0
C187 C 0.01364 0.67285 0.56819 0.0
C188 C 0.87693 0.59799 0.51878 0.0
C189 C 0.01572 0.65646 0.52462 0.0
C190 C 0.81346 0.6381 0.57232 0.0
C191 C 0.8818 0.81218 0.70375 0.0
H192 H 0.74418 0.04142 0.62778 0.0
H193 H 0.89167 0.29424 0.70674 0.0
H194 H 0.7023 0.13844 0.62165 0.0
H195 H 0.93339 0.19952 0.71109 0.0
H196 H 0.94565 0.67875 0.61835 0.0
H197 H 0.94674 0.60118 0.46707 0.0
H198 H 0.06637 0.70602 0.58705 0.0
H199 H 0.82532 0.57275 0.49857 0.0
Eu200 Eu 0.06996 0.79229 0.96141 0.0
Eu201 Eu 0.21944 0.92103 0.91736 0.0
C202 C 0.20443 0.76389 0.94471 0.0
C203 C 0.87026 0.65063 0.98876 0.0
C204 C 0.81852 0.59227 1.01476 0.0
C205 C 0.78663 0.70591 0.98496 0.0
C206 C 0.7529 0.59327 1.02776 0.0
C207 C 0.85108 0.70352 0.97115 0.0
C208 C 0.73947 0.65386 1.01568 0.0
C209 C 0.95071 0.6708 0.99019 0.0
O210 O 0.13389 0.89068 0.86253 0.0
O211 O 0.03674 0.77867 0.88931 0.0
C212 C 0.06537 0.82868 0.85805 0.0
O213 O 0.03114 0.87626 0.94701 0.0
O214 O 0.29194 -0.01596 0.86442 0.0
O215 O 0.34155 0.00326 0.92831 0.0
O216 O 0.14438 -0.02303 0.92211 0.0
C217 C 0.07095 0.94562 0.93143 0.0
O218 O 0.12234 0.88118 1.01649 0.0
O219 O 0.2417 0.9539 0.98884 0.0
O220 O 0.21477 0.80386 0.91026 0.0
O221 O -0.01894 0.66983 0.95374 0.0
O222 O -0.00585 0.7336 1.0133 0.0
O223 O 0.17111 0.77775 0.97601 0.0
C224 C 0.3905 0.11251 0.88415 0.0
C225 C 0.37466 0.14347 0.84794 0.0
C226 C 0.48404 0.24407 0.90929 0.0
C227 C 0.41323 0.22349 0.84236 0.0
C228 C 0.44532 0.16362 0.91492 0.0
C229 C 0.46834 0.27468 0.87289 0.0
C230 C 0.35167 0.02734 0.88927 0.0
C231 C 0.19493 0.93605 1.02112 0.0
H232 H 0.83271 0.55108 1.0286 0.0
H233 H 0.77984 0.75436 0.97534 0.0
H234 H 0.71783 0.55179 1.05109 0.0
H235 H 0.89083 0.74907 0.9509 0.0
H236 H 0.33353 0.10591 0.82338 0.0
H237 H 0.52692 0.28222 0.93299 0.0
H238 H 0.40188 0.24501 0.81314 0.0
H239 H 0.45912 0.14137 0.94305 0.0
C240 C 0.00295 0.97066 0.30529 0.0
C241 C -0.03312 -0.01335 0.27118 0.0
C242 C 0.08091 -0.00672 0.3042 0.0
C243 C 0.12439 0.03282 0.26903 0.0
H244 H -0.02662 0.94961 0.335 0.0
H245 H 0.10858 -0.01295 0.33269 0.0
S246 S 0.05067 0.06684 1.16691 0.0
N247 N -0.02467 0.02752 1.1978 0.0
N248 N 0.12232 0.07045 1.19553 0.0
C249 C 0.08611 0.03812 1.23227 0.0
C250 C 0.00661 0.01416 1.23326 0.0
C251 C 0.11924 0.00883 0.63471 0.0
C252 C 0.06328 0.97351 0.60165 0.0
C253 C 0.17609 0.08691 0.63281 0.0
C254 C 0.17714 0.13105 0.59806 0.0
H255 H 0.11346 -0.02114 0.66425 0.0
H256 H 0.21387 0.11461 0.66052 0.0
S257 S 0.05667 0.05964 0.49873 0.0
N258 N 0.02268 -0.01678 0.52946 0.0
N259 N 0.12908 0.13112 0.5263 0.0
C260 C 0.12849 0.09365 0.56238 0.0
C261 C 0.07173 0.01385 0.56393 0.0
C262 C -0.03359 0.97365 0.94803 0.0
C263 C 0.02898 -0.01262 0.92271 0.0
C264 C 0.92996 0.0176 0.9434 0.0
C265 C -0.04454 0.07703 0.91363 0.0
H266 H 0.94887 0.93262 0.97362 0.0
H267 H 0.88873 0.01216 0.96704 0.0
S268 S 0.09673 0.11484 0.82952 0.0
N269 N 0.10088 0.04931 0.85957 0.0
N270 N 0.03143 0.13196 0.85076 0.0
C271 C 0.00892 0.08215 0.88361 0.0
C272 C 0.04694 0.03808 0.88861 0.0
C273 C 0.56272 0.48779 1.06639 0.0
C274 C 0.51954 0.52138 1.0813 0.0
C275 C 0.55895 0.46626 1.02315 0.0
C276 C 0.50505 0.46961 0.99531 0.0
H277 H 0.59185 0.46908 1.08855 0.0
H278 H 0.58489 0.43158 1.01414 0.0
S279 S 0.41433 0.59155 1.01412 0.0
N280 N 0.45122 0.58895 1.06117 0.0
N281 N 0.43836 0.54225 0.98073 0.0
C282 C 0.47943 0.522 1.00724 0.0
C283 C 0.48601 0.54716 1.05077 0.0
C284 C 0.11826 0.61908 0.40051 0.0
C285 C 0.05785 0.55524 0.4205 0.0
C286 C 0.11994 0.62329 0.35579 0.0
C287 C 0.0654 0.55874 0.331 0.0
H288 H 0.16955 0.65863 0.41874 0.0
H289 H 0.17348 0.66494 0.34176 0.0
S290 S 0.87342 0.41108 0.36703 0.0
N291 N 0.92486 0.4507 0.41151 0.0
N292 N 0.92986 0.45955 0.3277 0.0
C293 C -0.00602 0.51251 0.35008 0.0
C294 C -0.00887 0.50783 0.39548 0.0
C295 C 0.79579 0.38207 0.72354 0.0
C296 C 0.73354 0.33512 0.74942 0.0
C297 C 0.80558 0.35172 0.6848 0.0
C298 C 0.75625 0.27259 0.67346 0.0
H299 H 0.84357 0.4361 0.73614 0.0
H300 H 0.86036 0.38392 0.66949 0.0
S301 S 0.56077 0.15095 0.71497 0.0
N302 N 0.60265 0.2268 0.7486 0.0
N303 N 0.62444 0.16593 0.67811 0.0
C304 C 0.68316 0.23646 0.6916 0.0
C305 C 0.67143 0.26898 0.72978 0.0
C306 C 0.66061 0.69875 1.11422 0.0
C307 C 0.62263 0.73651 1.09804 0.0
C308 C 0.6948 0.66915 1.08703 0.0
C309 C 0.69071 0.67403 1.04227 0.0
H310 H 0.66785 0.69592 1.14843 0.0
H311 H 0.72766 0.64541 1.10165 0.0
S312 S 0.59146 0.76207 0.9839 0.0
N313 N 0.58041 0.77602 1.03495 0.0
N314 N 0.63968 0.71451 0.98297 0.0
C315 C 0.64943 0.70853 1.02553 0.0
C316 C 0.61667 0.7412 1.05359 0.0
C317 C 0.08914 0.74874 0.46893 0.0
C318 C 0.08809 0.70106 0.50188 0.0
C319 C 0.15688 0.79813 0.44876 0.0
C320 C 0.22631 0.80163 0.46053 0.0
H321 H 0.03732 0.74931 0.45921 0.0
H322 H 0.15481 0.83347 0.42328 0.0
S323 S 0.25475 0.68766 0.54404 0.0
N324 N 0.16231 0.66006 0.54554 0.0
N325 N 0.29071 0.75245 0.50615 0.0
C326 C 0.22665 0.75395 0.49302 0.0
C327 C 0.15724 0.70397 0.51422 0.0
C328 C 0.59553 0.39436 0.86354 0.0
C329 C 0.51482 0.35828 0.8633 0.0
C330 C 0.63874 0.46063 0.83943 0.0
C331 C 0.60176 0.49019 0.81336 0.0
H332 H 0.62453 0.36615 0.87779 0.0
H333 H 0.6989 0.47965 0.83522 0.0
S334 S 0.39708 0.43812 0.81862 0.0
N335 N 0.40334 0.37138 0.84632 0.0
N336 N 0.48511 0.49828 0.80361 0.0
C337 C 0.52445 0.46629 0.8219 0.0
C338 C 0.48015 0.39799 0.84533 0.0
C339 C 0.6448 0.2389 1.24444 0.0
C340 C 0.59387 0.23471 0.27598 0.0
C341 C 0.707 0.22766 1.25458 0.0
C342 C 0.71826 0.20904 0.29626 0.0
H343 H 0.63355 0.2458 1.21128 0.0
H344 H 0.74222 0.22665 1.22892 0.0
S345 S 0.60446 0.19714 0.3908 0.0
N346 N 0.56298 0.21812 0.3512 0.0
N347 N 0.67717 0.19249 0.36973 0.0
C348 C 0.67041 0.20906 0.32847 0.0
C349 C 0.60878 0.2231 0.31844 0.0
C350 C 0.47411 0.64141 0.65588 0.0
C351 C 0.44096 0.60865 0.6153 0.0
C352 C 0.54978 0.70291 0.6603 0.0
C353 C 0.59393 0.73495 0.62425 0.0
H354 H 0.44387 0.6149 0.6847 0.0
H355 H 0.57577 0.72113 0.6921 0.0
S356 S 0.53044 0.68073 0.51086 0.0
N357 N 0.45506 0.62035 0.53824 0.0
N358 N 0.59737 0.73734 0.54677 0.0
C359 C 0.55911 0.7089 0.58347 0.0
C360 C 0.48214 0.64556 0.57888 0.0
C361 C 0.19112 0.58426 0.9918 0.0
C362 C 0.179 0.53628 0.95571 0.0
C363 C 0.20814 0.66138 0.98752 0.0
C364 C 0.21138 0.69276 0.94693 0.0
H365 H 0.18263 0.5606 1.02349 0.0
H366 H 0.21297 0.69476 1.01641 0.0
S367 S 0.19159 0.59195 0.84244 0.0
N368 N 0.17893 0.5266 0.87823 0.0
N369 N 0.20864 0.6713 0.86994 0.0
C370 C 0.2055 0.64708 0.91057 0.0
C371 C 0.1894 0.56861 0.91505 0.0
C372 C 0.30183 0.27694 0.40379 0.0
C373 C 0.34414 0.2376 0.39943 0.0
C374 C 0.29624 0.30905 0.44335 0.0
C375 C 0.33327 0.30462 0.48101 0.0
H376 H 0.27211 0.28312 0.37624 0.0
H377 H 0.2624 0.33789 0.44424 0.0
S378 S 0.45006 0.20629 0.4882 0.0
N379 N 0.42283 0.19511 0.43724 0.0
N380 N 0.41291 0.25537 0.5112 0.0
C381 C 0.37576 0.26525 0.47731 0.0
C382 C 0.38094 0.23187 0.43687 0.0
C383 C 0.22186 0.31889 0.77004 0.0
C384 C 0.19935 0.34791 0.73526 0.0
C385 C 0.18991 0.31132 0.81086 0.0
C386 C 0.13211 0.33069 0.81938 0.0
H387 H 0.26492 0.30172 0.76585 0.0
H388 H 0.21117 0.28964 0.83606 0.0
S389 S 0.053 0.41148 0.74005 0.0
N390 N 0.11584 0.39835 0.71293 0.0
N391 N 0.05519 0.38218 0.78885 0.0
C392 C 0.10896 0.35999 0.78497 0.0
C393 C 0.14223 0.36863 0.74333 0.0
C394 C 0.88341 0.18833 1.08609 0.0
C395 C -0.03791 0.24023 1.07874 0.0
C396 C 0.85702 0.15675 1.12697 0.0
C397 C 0.90793 0.17547 1.16269 0.0
H398 H 0.84181 0.17041 1.05978 0.0
H399 H 0.79628 0.11666 1.13042 0.0
S400 S 0.11937 0.31276 1.16167 0.0
N401 N 0.08976 0.31119 1.112 0.0
N402 N 0.04163 0.25329 1.18741 0.0
C403 C -0.01345 0.22876 1.15577 0.0
C404 C 0.0131 0.26057 1.11441 0.0
C405 C 0.77771 0.91669 0.42489 0.0
C406 C 0.81298 -0.00205 0.41922 0.0
C407 C 0.77977 0.88494 0.46499 0.0
C408 C 0.81689 0.93271 0.50168 0.0
H409 H 0.74946 0.87694 0.39786 0.0
H410 H 0.75239 0.8223 0.46707 0.0
S411 S 0.91559 0.14965 0.50506 0.0
N412 N 0.88435 0.1251 0.455 0.0
N413 N 0.88798 0.06689 0.52913 0.0
C414 C 0.85104 0.01411 0.4965 0.0
C415 C 0.8492 0.04617 0.45583 0.0
C416 C -0.00378 0.88018 0.7545 0.0
C417 C 0.92656 0.81265 0.74292 0.0
C418 C 0.04079 0.88344 0.79072 0.0
C419 C 0.01759 0.81976 0.81797 0.0
H420 H 0.01685 0.93122 0.73517 0.0
H421 H 0.09368 0.93738 0.79768 0.0
S422 S 0.83861 0.62872 0.80177 0.0
N423 N 0.83648 0.67991 0.76119 0.0
N424 N 0.9183 0.68621 0.82984 0.0
C425 C 0.94751 0.75164 0.80665 0.0
C426 C 0.90271 0.74804 0.76912 0.0
C427 C 0.29668 0.04885 1.06768 0.0
C428 C 0.22669 -0.02286 1.06423 0.0
C429 C 0.32899 0.08688 1.10779 0.0
C430 C 0.29412 0.05405 1.14661 0.0
H431 H 0.32694 0.07625 1.03904 0.0
H432 H 0.38256 0.14169 1.10838 0.0
S433 S 0.10858 0.86983 1.15609 0.0
N434 N 0.12222 0.87744 1.10408 0.0
N435 N 0.18339 0.9468 1.17857 0.0
C436 C 0.22384 -0.01703 1.1436 0.0
C437 C 0.19013 0.94524 1.10284 0.0
loop_
_geom_bond_atom_site_label_1
_geom_bond_atom_site_label_2
_geom_bond_distance
_geom_bond_site_symmetry_2
_ccdc_geom_bond_type
Eu0 C9 2.828 . S
Eu0 O11 2.392 1_554 S
Eu0 O13 2.418 . S
Eu0 O18 2.373 . S
Eu0 O21 2.488 . S
Eu0 O22 2.471 . S
Eu0 O23 2.349 . S
Eu1 O10 2.373 . S
Eu1 O14 2.488 . S
Eu1 O15 2.471 . S
Eu1 O16 2.349 1_556 S
Eu1 O19 2.392 1_556 S
Eu1 O20 2.418 . S
Eu1 C30 2.828 . S
C2 O20 1.244 1_554 S
C2 O23 1.265 . S
C3 C4 1.379 . S
C3 C7 1.373 . S
C3 C9 1.505 . S
C4 C3 1.379 . S
C4 C6 1.369 . S
C4 H32 0.930 . S
C5 C7 1.383 . S
C5 C8 1.382 . S
C5 H33 0.930 1_545 S
C6 C4 1.369 . S
C6 C8 1.392 . S
C6 H34 0.930 . S
C7 C3 1.373 . S
C7 C5 1.383 . S
C7 H35 0.931 . S
C8 C5 1.382 . S
C8 C6 1.392 . S
C9 Eu0 2.828 . S
C9 C3 1.505 . S
C9 O21 1.249 . S
C9 O22 1.244 . S
O10 Eu1 2.373 . S
O10 C12 1.258 . S
O11 Eu0 2.392 1_556 S
O11 C12 1.242 . S
C12 O10 1.258 . S
C12 O11 1.242 . S
O13 Eu0 2.418 . S
O13 C17 1.244 . S
O14 Eu1 2.488 . S
O14 C30 1.249 . S
O15 Eu1 2.471 . S
O15 C30 1.244 . S
O16 Eu1 2.349 1_554 S
O16 C17 1.265 . S
C17 O13 1.244 . S
C17 O16 1.265 . S
O18 Eu0 2.373 . S
O18 C31 1.258 . S
O19 Eu1 2.392 1_554 S
O19 C31 1.242 . S
O20 Eu1 2.418 . S
O20 C2 1.244 1_556 S
O21 Eu0 2.488 . S
O21 C9 1.249 . S
O22 Eu0 2.471 . S
O22 C9 1.244 . S
O23 Eu0 2.349 . S
O23 C2 1.265 . S
C24 C25 1.379 . S
C24 C28 1.373 . S
C24 C30 1.505 . S
C25 C24 1.379 . S
C25 C27 1.369 . S
C25 H36 0.930 . S
C26 C28 1.383 . S
C26 C29 1.382 . S
C26 H37 0.930 . S
C27 C25 1.369 . S
C27 C29 1.392 . S
C27 H38 0.930 . S
C28 C24 1.373 . S
C28 C26 1.383 . S
C28 H39 0.931 . S
C29 C26 1.382 . S
C29 C27 1.392 . S
C30 Eu1 2.828 . S
C30 O14 1.249 . S
C30 O15 1.244 . S
C30 C24 1.505 . S
C31 O18 1.258 . S
C31 O19 1.242 . S
H32 C4 0.930 . S
H33 C5 0.930 1_565 S
H34 C6 0.930 . S
H35 C7 0.931 . S
H36 C25 0.930 . S
H37 C26 0.930 . S
H38 C27 0.930 . S
H39 C28 0.931 . S
Eu40 C49 2.828 . S
Eu40 O51 2.392 . S
Eu40 O53 2.418 . S
Eu40 O58 2.373 . S
Eu40 O61 2.488 . S
Eu40 O62 2.471 . S
Eu40 O63 2.349 . S
Eu41 O50 2.373 . S
Eu41 O54 2.488 . S
Eu41 O55 2.471 . S
Eu41 O56 2.349 . S
Eu41 O59 2.392 . S
Eu41 O60 2.418 . S
Eu41 C70 2.828 . S
C42 O60 1.244 . S
C42 O63 1.265 . S
C43 C44 1.379 . S
C43 C47 1.373 . S
C43 C49 1.505 . S
C44 C43 1.379 . S
C44 C46 1.369 . S
C44 H72 0.930 . S
C45 C47 1.383 . S
C45 C48 1.382 . S
C45 H73 0.930 . S
C46 C44 1.369 . S
C46 C48 1.392 . S
C46 H74 0.930 . S
C47 C43 1.373 . S
C47 C45 1.383 . S
C47 H75 0.931 . S
C48 C45 1.382 . S
C48 C46 1.392 . S
C49 Eu40 2.828 . S
C49 C43 1.505 . S
C49 O61 1.249 . S
C49 O62 1.244 . S
O50 Eu41 2.373 . S
O50 C52 1.258 . S
O51 Eu40 2.392 . S
O51 C52 1.242 . S
C52 O50 1.258 . S
C52 O51 1.242 . S
O53 Eu40 2.418 . S
O53 C57 1.244 . S
O54 Eu41 2.488 . S
O54 C70 1.249 . S
O55 Eu41 2.471 . S
O55 C70 1.244 . S
O56 Eu41 2.349 . S
O56 C57 1.265 . S
C57 O53 1.244 . S
C57 O56 1.265 . S
O58 Eu40 2.373 . S
O58 C71 1.258 . S
O59 Eu41 2.392 . S
O59 C71 1.242 . S
O60 Eu41 2.418 . S
O60 C42 1.244 . S
O61 Eu40 2.488 . S
O61 C49 1.249 . S
O62 Eu40 2.471 . S
O62 C49 1.244 . S
O63 Eu40 2.349 . S
O63 C42 1.265 . S
C64 C65 1.379 . S
C64 C68 1.373 . S
C64 C70 1.505 . S
C65 C64 1.379 . S
C65 C67 1.369 . S
C65 H76 0.930 . S
C66 C68 1.383 . S
C66 C69 1.382 . S
C66 H77 0.930 . S
C67 C65 1.369 . S
C67 C69 1.392 . S
C67 H78 0.930 . S
C68 C64 1.373 . S
C68 C66 1.383 . S
C68 H79 0.931 . S
C69 C66 1.382 . S
C69 C67 1.392 . S
C70 Eu41 2.828 . S
C70 O54 1.249 . S
C70 O55 1.244 . S
C70 C64 1.505 . S
C71 O58 1.258 . S
C71 O59 1.242 . S
H72 C44 0.930 . S
H73 C45 0.930 . S
H74 C46 0.930 . S
H75 C47 0.931 . S
H76 C65 0.930 . S
H77 C66 0.930 . S
H78 C67 0.930 . S
H79 C68 0.931 . S
Eu80 C89 2.828 . S
Eu80 O91 2.392 . S
Eu80 O93 2.418 . S
Eu80 O98 2.373 . S
Eu80 O101 2.488 . S
Eu80 O102 2.471 . S
Eu80 O103 2.349 . S
Eu81 O90 2.373 1_655 S
Eu81 O94 2.488 . S
Eu81 O95 2.471 . S
Eu81 O96 2.349 . S
Eu81 O99 2.392 . S
Eu81 O100 2.418 . S
Eu81 C110 2.828 . S
C82 O100 1.244 . S
C82 O103 1.265 1_655 S
C83 C84 1.379 . S
C83 C87 1.373 . S
C83 C89 1.505 . S
C84 C83 1.379 . S
C84 C86 1.369 . S
C84 H112 0.930 . S
C85 C87 1.383 . S
C85 C88 1.382 . S
C85 H113 0.930 . S
C86 C84 1.369 . S
C86 C88 1.392 . S
C86 H114 0.930 . S
C87 C83 1.373 . S
C87 C85 1.383 . S
C87 H115 0.931 . S
C88 C85 1.382 . S
C88 C86 1.392 . S
C89 Eu80 2.828 . S
C89 C83 1.505 . S
C89 O101 1.249 . S
C89 O102 1.244 . S
O90 Eu81 2.373 1_455 S
O90 C92 1.258 . S
O91 Eu80 2.392 . S
O91 C92 1.242 . S
C92 O90 1.258 . S
C92 O91 1.242 . S
O93 Eu80 2.418 . S
O93 C97 1.244 . S
O94 Eu81 2.488 . S
O94 C110 1.249 . S
O95 Eu81 2.471 . S
O95 C110 1.244 . S
O96 Eu81 2.349 . S
O96 C97 1.265 1_655 S
C97 O93 1.244 . S
C97 O96 1.265 1_455 S
O98 Eu80 2.373 . S
O98 C111 1.258 1_455 S
O99 Eu81 2.392 . S
O99 C111 1.242 . S
O100 Eu81 2.418 . S
O100 C82 1.244 . S
O101 Eu80 2.488 . S
O101 C89 1.249 . S
O102 Eu80 2.471 . S
O102 C89 1.244 . S
O103 Eu80 2.349 . S
O103 C82 1.265 1_455 S
C104 C105 1.379 . S
C104 C108 1.373 . S
C104 C110 1.505 . S
C105 C104 1.379 . S
C105 C107 1.369 . S
C105 H116 0.930 . S
C106 C108 1.383 . S
C106 C109 1.382 . S
C106 H117 0.930 . S
C107 C105 1.369 . S
C107 C109 1.392 . S
C107 H118 0.930 . S
C108 C104 1.373 . S
C108 C106 1.383 . S
C108 H119 0.931 . S
C109 C106 1.382 . S
C109 C107 1.392 . S
C110 Eu81 2.828 . S
C110 O94 1.249 . S
C110 O95 1.244 . S
C110 C104 1.505 . S
C111 O98 1.258 1_655 S
C111 O99 1.242 . S
H112 C84 0.930 . S
H113 C85 0.930 . S
H114 C86 0.930 . S
H115 C87 0.931 . S
H116 C105 0.930 . S
H117 C106 0.930 . S
H118 C107 0.930 . S
H119 C108 0.931 . S
Eu120 C129 2.828 . S
Eu120 O131 2.392 1_554 S
Eu120 O133 2.418 . S
Eu120 O138 2.373 . S
Eu120 O141 2.488 . S
Eu120 O142 2.471 . S
Eu120 O143 2.349 . S
Eu121 O130 2.373 1_565 S
Eu121 O134 2.488 . S
Eu121 O135 2.471 . S
Eu121 O136 2.349 1_566 S
Eu121 O139 2.392 1_556 S
Eu121 O140 2.418 . S
Eu121 C150 2.828 . S
C122 O140 1.244 1_554 S
C122 O143 1.265 1_565 S
C123 C124 1.379 . S
C123 C127 1.373 . S
C123 C129 1.505 . S
C124 C123 1.379 . S
C124 C126 1.369 . S
C124 H152 0.930 . S
C125 C127 1.383 . S
C125 C128 1.382 . S
C125 H153 0.930 1_655 S
C126 C124 1.369 . S
C126 C128 1.392 . S
C126 H154 0.930 . S
C127 C123 1.373 . S
C127 C125 1.383 . S
C127 H155 0.931 1_655 S
C128 C125 1.382 . S
C128 C126 1.392 . S
C129 Eu120 2.828 . S
C129 C123 1.505 . S
C129 O141 1.249 . S
C129 O142 1.244 . S
O130 Eu121 2.373 1_545 S
O130 C132 1.258 . S
O131 Eu120 2.392 1_556 S
O131 C132 1.242 . S
C132 O130 1.258 . S
C132 O131 1.242 . S
O133 Eu120 2.418 . S
O133 C137 1.244 . S
O134 Eu121 2.488 . S
O134 C150 1.249 . S
O135 Eu121 2.471 . S
O135 C150 1.244 . S
O136 Eu121 2.349 1_544 S
O136 C137 1.265 . S
C137 O133 1.244 . S
C137 O136 1.265 . S
O138 Eu120 2.373 . S
O138 C151 1.258 1_545 S
O139 Eu121 2.392 1_554 S
O139 C151 1.242 . S
O140 Eu121 2.418 . S
O140 C122 1.244 1_556 S
O141 Eu120 2.488 . S
O141 C129 1.249 . S
O142 Eu120 2.471 . S
O142 C129 1.244 . S
O143 Eu120 2.349 . S
O143 C122 1.265 1_545 S
C144 C145 1.379 . S
C144 C148 1.373 . S
C144 C150 1.505 . S
C145 C144 1.379 . S
C145 C147 1.369 . S
C145 H156 0.930 . S
C146 C148 1.383 . S
C146 C149 1.382 . S
C146 H157 0.930 . S
C147 C145 1.369 . S
C147 C149 1.392 . S
C147 H158 0.930 . S
C148 C144 1.373 . S
C148 C146 1.383 . S
C148 H159 0.931 . S
C149 C146 1.382 . S
C149 C147 1.392 . S
C150 Eu121 2.828 . S
C150 O134 1.249 . S
C150 O135 1.244 . S
C150 C144 1.505 . S
C151 O138 1.258 1_565 S
C151 O139 1.242 . S
H152 C124 0.930 . S
H153 C125 0.930 1_455 S
H154 C126 0.930 . S
H155 C127 0.931 1_455 S
H156 C145 0.930 . S
H157 C146 0.930 . S
H158 C147 0.930 . S
H159 C148 0.931 . S
Eu160 C169 2.828 . S
Eu160 O171 2.392 . S
Eu160 O173 2.418 1_665 S
Eu160 O178 2.373 . S
Eu160 O181 2.488 . S
Eu160 O182 2.471 . S
Eu160 O183 2.349 . S
Eu161 O170 2.373 1_455 S
Eu161 O174 2.488 . S
Eu161 O175 2.471 . S
Eu161 O176 2.349 . S
Eu161 O179 2.392 . S
Eu161 O180 2.418 1_455 S
Eu161 C190 2.828 . S
C162 O180 1.244 . S
C162 O183 1.265 . S
C163 C164 1.379 . S
C163 C167 1.373 . S
C163 C169 1.505 . S
C164 C163 1.379 . S
C164 C166 1.369 . S
C164 H192 0.930 . S
C165 C167 1.383 . S
C165 C168 1.382 . S
C165 H193 0.930 1_565 S
C166 C164 1.369 . S
C166 C168 1.392 . S
C166 H194 0.930 . S
C167 C163 1.373 . S
C167 C165 1.383 . S
C167 H195 0.931 1_565 S
C168 C165 1.382 . S
C168 C166 1.392 . S
C169 Eu160 2.828 . S
C169 C163 1.505 . S
C169 O181 1.249 . S
C169 O182 1.244 . S
O170 Eu161 2.373 1_655 S
O170 C172 1.258 . S
O171 Eu160 2.392 . S
O171 C172 1.242 . S
C172 O170 1.258 . S
C172 O171 1.242 . S
O173 Eu160 2.418 1_445 S
O173 C177 1.244 1_545 S
O174 Eu161 2.488 . S
O174 C190 1.249 . S
O175 Eu161 2.471 . S
O175 C190 1.244 . S
O176 Eu161 2.349 . S
O176 C177 1.265 . S
C177 O173 1.244 1_565 S
C177 O176 1.265 . S
O178 Eu160 2.373 . S
O178 C191 1.258 1_655 S
O179 Eu161 2.392 . S
O179 C191 1.242 . S
O180 Eu161 2.418 1_655 S
O180 C162 1.244 . S
O181 Eu160 2.488 . S
O181 C169 1.249 . S
O182 Eu160 2.471 . S
O182 C169 1.244 . S
O183 Eu160 2.349 . S
O183 C162 1.265 . S
C184 C185 1.379 . S
C184 C188 1.373 . S
C184 C190 1.505 . S
C185 C184 1.379 . S
C185 C187 1.369 . S
C185 H196 0.930 . S
C186 C188 1.383 . S
C186 C189 1.382 . S
C186 H197 0.930 . S
C187 C185 1.369 . S
C187 C189 1.392 . S
C187 H198 0.930 . S
C188 C184 1.373 . S
C188 C186 1.383 . S
C188 H199 0.931 . S
C189 C186 1.382 . S
C189 C187 1.392 . S
C190 Eu161 2.828 . S
C190 O174 1.249 . S
C190 O175 1.244 . S
C190 C184 1.505 . S
C191 O178 1.258 1_455 S
C191 O179 1.242 . S
H192 C164 0.930 . S
H193 C165 0.930 1_545 S
H194 C166 0.930 . S
H195 C167 0.931 1_545 S
H196 C185 0.930 . S
H197 C186 0.930 . S
H198 C187 0.930 . S
H199 C188 0.931 . S
Eu200 C209 2.828 . S
Eu200 O211 2.392 . S
Eu200 O213 2.418 1_565 S
Eu200 O218 2.374 . S
Eu200 O221 2.488 . S
Eu200 O222 2.471 . S
Eu200 O223 2.349 . S
Eu201 O210 2.373 1_545 S
Eu201 O214 2.488 . S
Eu201 O215 2.471 . S
Eu201 O216 2.349 . S
Eu201 O219 2.392 . S
Eu201 O220 2.418 1_545 S
Eu201 C230 2.828 . S
C202 O220 1.244 . S
C202 O223 1.265 . S
C203 C204 1.379 . S
C203 C207 1.373 . S
C203 C209 1.505 . S
C204 C203 1.379 . S
C204 C206 1.369 . S
C204 H232 0.930 . S
C205 C207 1.383 . S
C205 C208 1.382 . S
C205 H233 0.930 1_455 S
C206 C204 1.369 . S
C206 C208 1.392 . S
C206 H234 0.930 . S
C207 C203 1.373 . S
C207 C205 1.383 . S
C207 H235 0.931 . S
C208 C205 1.382 . S
C208 C206 1.392 . S
C209 Eu200 2.828 . S
C209 C203 1.505 . S
C209 O221 1.249 . S
C209 O222 1.244 . S
O210 Eu201 2.373 1_565 S
O210 C212 1.258 . S
O211 Eu200 2.392 . S
O211 C212 1.242 . S
C212 O210 1.258 . S
C212 O211 1.242 . S
O213 Eu200 2.418 1_545 S
O213 C217 1.244 . S
O214 Eu201 2.488 . S
O214 C230 1.249 . S
O215 Eu201 2.471 . S
O215 C230 1.244 . S
O216 Eu201 2.349 . S
O216 C217 1.265 . S
C217 O213 1.244 . S
C217 O216 1.265 . S
O218 Eu200 2.374 . S
O218 C231 1.258 1_565 S
O219 Eu201 2.392 . S
O219 C231 1.242 . S
O220 Eu201 2.418 1_565 S
O220 C202 1.244 . S
O221 Eu200 2.488 . S
O221 C209 1.249 . S
O222 Eu200 2.471 . S
O222 C209 1.244 . S
O223 Eu200 2.349 . S
O223 C202 1.265 . S
C224 C225 1.379 . S
C224 C228 1.373 . S
C224 C230 1.505 . S
C225 C224 1.379 . S
C225 C227 1.369 . S
C225 H236 0.930 . S
C226 C228 1.383 . S
C226 C229 1.382 . S
C226 H237 0.930 . S
C227 C225 1.369 . S
C227 C229 1.392 . S
C227 H238 0.930 . S
C228 C224 1.373 . S
C228 C226 1.383 . S
C228 H239 0.931 . S
C229 C226 1.382 . S
C229 C227 1.392 . S
C230 Eu201 2.828 . S
C230 O214 1.249 . S
C230 O215 1.244 . S
C230 C224 1.505 . S
C231 O218 1.258 1_545 S
C231 O219 1.242 . S
H232 C204 0.930 . S
H233 C205 0.930 1_655 S
H234 C206 0.930 . S
H235 C207 0.931 . S
H236 C225 0.930 . S
H237 C226 0.930 . S
H238 C227 0.930 . S
H239 C228 0.931 . S
C240 C241 1.369 . S
C240 C242 1.419 . S
C240 H244 0.930 . S
C241 C240 1.369 . S
C241 C250 1.429 . S
C242 C240 1.419 . S
C242 C243 1.363 . S
C242 H245 0.929 . S
C243 C242 1.363 . S
C243 C249 1.428 . S
H244 C240 0.930 . S
H245 C242 0.929 . S
S246 N247 1.613 . S
S246 N248 1.610 . S
N247 S246 1.613 . S
N247 C250 1.350 . S
N248 S246 1.610 . S
N248 C249 1.351 . S
C249 C243 1.428 . S
C249 N248 1.351 . S
C249 C250 1.434 . S
C250 C241 1.429 . S
C250 N247 1.350 . S
C250 C249 1.434 . S
C251 C252 1.369 . S
C251 C253 1.419 . S
C251 H255 0.930 . S
C252 C251 1.369 . S
C252 C261 1.429 . S
C253 C251 1.419 . S
C253 C254 1.363 . S
C253 H256 0.929 . S
C254 C253 1.363 . S
C254 C260 1.428 . S
H255 C251 0.930 . S
H256 C253 0.929 . S
S257 N258 1.613 . S
S257 N259 1.610 . S
N258 S257 1.613 . S
N258 C261 1.350 . S
N259 S257 1.610 . S
N259 C260 1.351 . S
C260 C254 1.428 . S
C260 N259 1.351 . S
C260 C261 1.434 . S
C261 C252 1.429 . S
C261 N258 1.350 . S
C261 C260 1.434 . S
C262 C263 1.369 . S
C262 C264 1.419 . S
C262 H266 0.930 . S
C263 C262 1.369 . S
C263 C272 1.429 . S
C264 C262 1.419 . S
C264 C265 1.363 . S
C264 H267 0.929 . S
C265 C264 1.363 . S
C265 C271 1.428 . S
H266 C262 0.930 . S
H267 C264 0.929 . S
S268 N269 1.613 . S
S268 N270 1.610 . S
N269 S268 1.613 . S
N269 C272 1.350 . S
N270 S268 1.610 . S
N270 C271 1.351 . S
C271 C265 1.428 . S
C271 N270 1.351 . S
C271 C272 1.434 . S
C272 C263 1.429 . S
C272 N269 1.350 . S
C272 C271 1.434 . S
C273 C274 1.369 . S
C273 C275 1.419 . S
C273 H277 0.930 . S
C274 C273 1.369 . S
C274 C283 1.429 . S
C275 C273 1.419 . S
C275 C276 1.363 . S
C275 H278 0.929 . S
C276 C275 1.363 . S
C276 C282 1.428 . S
H277 C273 0.930 . S
H278 C275 0.929 . S
S279 N280 1.613 . S
S279 N281 1.610 . S
N280 S279 1.613 . S
N280 C283 1.350 . S
N281 S279 1.610 . S
N281 C282 1.351 . S
C282 C276 1.428 . S
C282 N281 1.351 . S
C282 C283 1.434 . S
C283 C274 1.429 . S
C283 N280 1.350 . S
C283 C282 1.434 . S
C284 C285 1.369 . S
C284 C286 1.419 1_455 S
C284 H288 0.930 . S
C285 C284 1.369 . S
C285 C294 1.429 . S
C286 C284 1.419 1_655 S
C286 C287 1.363 . S
C286 H289 0.929 . S
C287 C286 1.363 . S
C287 C293 1.428 . S
H288 C284 0.930 . S
H289 C286 0.929 . S
S290 N291 1.613 1_655 S
S290 N292 1.610 . S
N291 S290 1.613 1_455 S
N291 C294 1.350 . S
N292 S290 1.610 . S
N292 C293 1.351 . S
C293 C287 1.428 . S
C293 N292 1.351 . S
C293 C294 1.434 1_655 S
C294 C285 1.429 . S
C294 N291 1.350 . S
C294 C293 1.434 1_455 S
C295 C296 1.369 . S
C295 C297 1.419 1_545 S
C295 H299 0.930 . S
C296 C295 1.369 . S
C296 C305 1.429 . S
C297 C295 1.419 1_565 S
C297 C298 1.363 . S
C297 H300 0.929 . S
C298 C297 1.363 . S
C298 C304 1.428 . S
H299 C295 0.930 . S
H300 C297 0.929 . S
S301 N302 1.613 . S
S301 N303 1.610 1_545 S
N302 S301 1.613 . S
N302 C305 1.350 . S
N303 S301 1.610 1_565 S
N303 C304 1.351 . S
C304 C298 1.428 . S
C304 N303 1.351 . S
C304 C305 1.434 1_565 S
C305 C296 1.429 . S
C305 N302 1.350 . S
C305 C304 1.434 1_545 S
C306 C307 1.369 . S
C306 C308 1.419 . S
C306 H310 0.930 . S
C307 C306 1.369 . S
C307 C316 1.429 . S
C308 C306 1.419 . S
C308 C309 1.363 . S
C308 H311 0.929 . S
C309 C308 1.363 . S
C309 C315 1.428 . S
H310 C306 0.930 . S
H311 C308 0.929 . S
S312 N313 1.613 . S
S312 N314 1.610 . S
N313 S312 1.613 . S
N313 C316 1.350 . S
N314 S312 1.610 . S
N314 C315 1.351 . S
C315 C309 1.428 . S
C315 N314 1.351 . S
C315 C316 1.434 . S
C316 C307 1.429 . S
C316 N313 1.350 . S
C316 C315 1.434 . S
C317 C318 1.369 . S
C317 C319 1.419 . S
C317 H321 0.930 . S
C318 C317 1.369 . S
C318 C327 1.429 . S
C319 C317 1.419 . S
C319 C320 1.363 . S
C319 H322 0.929 1_565 S
C320 C319 1.363 . S
C320 C326 1.428 . S
H321 C317 0.930 . S
H322 C319 0.929 1_545 S
S323 N324 1.613 . S
S323 N325 1.610 . S
N324 S323 1.613 . S
N324 C327 1.350 . S
N325 S323 1.610 . S
N325 C326 1.351 . S
C326 C320 1.428 . S
C326 N325 1.351 . S
C326 C327 1.434 . S
C327 C318 1.429 . S
C327 N324 1.350 . S
C327 C326 1.434 . S
C328 C329 1.369 . S
C328 C330 1.419 . S
C328 H332 0.930 . S
C329 C328 1.369 . S
C329 C338 1.429 . S
C330 C328 1.419 . S
C330 C331 1.363 . S
C330 H333 0.929 . S
C331 C330 1.363 . S
C331 C337 1.428 . S
H332 C328 0.930 . S
H333 C330 0.929 . S
S334 N335 1.613 . S
S334 N336 1.610 . S
N335 S334 1.613 . S
N335 C338 1.350 . S
N336 S334 1.610 . S
N336 C337 1.351 . S
C337 C331 1.428 . S
C337 N336 1.351 . S
C337 C338 1.434 . S
C338 C329 1.429 . S
C338 N335 1.350 . S
C338 C337 1.434 . S
C339 C340 1.369 1_556 S
C339 C341 1.419 . S
C339 H343 0.930 . S
C340 C339 1.369 1_554 S
C340 C349 1.429 . S
C341 C339 1.419 . S
C341 C342 1.363 1_556 S
C341 H344 0.929 . S
C342 C341 1.363 1_554 S
C342 C348 1.428 . S
H343 C339 0.930 . S
H344 C341 0.929 . S
S345 N346 1.613 . S
S345 N347 1.610 . S
N346 S345 1.613 . S
N346 C349 1.350 . S
N347 S345 1.610 . S
N347 C348 1.351 . S
C348 C342 1.428 . S
C348 N347 1.351 . S
C348 C349 1.434 . S
C349 C340 1.429 . S
C349 N346 1.350 . S
C349 C348 1.434 . S
C350 C351 1.369 . S
C350 C352 1.419 . S
C350 H354 0.930 . S
C351 C350 1.369 . S
C351 C360 1.429 . S
C352 C350 1.419 . S
C352 C353 1.363 . S
C352 H355 0.929 . S
C353 C352 1.363 . S
C353 C359 1.428 . S
H354 C350 0.930 . S
H355 C352 0.929 . S
S356 N357 1.613 . S
S356 N358 1.610 . S
N357 S356 1.613 . S
N357 C360 1.350 . S
N358 S356 1.610 . S
N358 C359 1.351 . S
C359 C353 1.428 . S
C359 N358 1.351 . S
C359 C360 1.434 . S
C360 C351 1.429 . S
C360 N357 1.350 . S
C360 C359 1.434 . S
C361 C362 1.369 . S
C361 C363 1.419 . S
C361 H365 0.930 . S
C362 C361 1.369 . S
C362 C371 1.429 . S
C363 C361 1.419 . S
C363 C364 1.363 . S
C363 H366 0.929 . S
C364 C363 1.363 . S
C364 C370 1.428 . S
H365 C361 0.930 . S
H366 C363 0.929 . S
S367 N368 1.613 . S
S367 N369 1.610 . S
N368 S367 1.613 . S
N368 C371 1.350 . S
N369 S367 1.610 . S
N369 C370 1.351 . S
C370 C364 1.428 . S
C370 N369 1.351 . S
C370 C371 1.434 . S
C371 C362 1.429 . S
C371 N368 1.350 . S
C371 C370 1.434 . S
C372 C373 1.369 . S
C372 C374 1.419 . S
C372 H376 0.930 . S
C373 C372 1.369 . S
C373 C382 1.429 . S
C374 C372 1.419 . S
C374 C375 1.363 . S
C374 H377 0.929 . S
C375 C374 1.363 . S
C375 C381 1.428 . S
H376 C372 0.930 . S
H377 C374 0.929 . S
S378 N379 1.613 . S
S378 N380 1.610 . S
N379 S378 1.613 . S
N379 C382 1.350 . S
N380 S378 1.610 . S
N380 C381 1.351 . S
C381 C375 1.428 . S
C381 N380 1.351 . S
C381 C382 1.434 . S
C382 C373 1.429 . S
C382 N379 1.350 . S
C382 C381 1.434 . S
C383 C384 1.369 . S
C383 C385 1.419 . S
C383 H387 0.930 . S
C384 C383 1.369 . S
C384 C393 1.429 . S
C385 C383 1.419 . S
C385 C386 1.363 . S
C385 H388 0.929 . S
C386 C385 1.363 . S
C386 C392 1.428 . S
H387 C383 0.930 . S
H388 C385 0.929 . S
S389 N390 1.613 . S
S389 N391 1.610 . S
N390 S389 1.613 . S
N390 C393 1.350 . S
N391 S389 1.610 . S
N391 C392 1.351 . S
C392 C386 1.428 . S
C392 N391 1.351 . S
C392 C393 1.434 . S
C393 C384 1.429 . S
C393 N390 1.350 . S
C393 C392 1.434 . S
C394 C395 1.369 . S
C394 C396 1.419 . S
C394 H398 0.930 . S
C395 C394 1.369 . S
C395 C404 1.429 . S
C396 C394 1.419 . S
C396 C397 1.363 . S
C396 H399 0.929 . S
C397 C396 1.363 . S
C397 C403 1.428 . S
H398 C394 0.930 . S
H399 C396 0.929 . S
S400 N401 1.613 . S
S400 N402 1.610 . S
N401 S400 1.613 . S
N401 C404 1.350 . S
N402 S400 1.610 . S
N402 C403 1.351 . S
C403 C397 1.428 . S
C403 N402 1.351 . S
C403 C404 1.434 . S
C404 C395 1.429 . S
C404 N401 1.350 . S
C404 C403 1.434 . S
C405 C406 1.369 . S
C405 C407 1.419 . S
C405 H409 0.930 . S
C406 C405 1.369 . S
C406 C415 1.429 . S
C407 C405 1.419 . S
C407 C408 1.363 . S
C407 H410 0.929 . S
C408 C407 1.363 . S
C408 C414 1.428 . S
H409 C405 0.930 . S
H410 C407 0.929 . S
S411 N412 1.613 . S
S411 N413 1.610 . S
N412 S411 1.613 . S
N412 C415 1.350 1_545 S
N413 S411 1.610 . S
N413 C414 1.351 1_545 S
C414 C408 1.428 . S
C414 N413 1.351 1_565 S
C414 C415 1.434 . S
C415 C406 1.429 . S
C415 N412 1.350 1_565 S
C415 C414 1.434 . S
C416 C417 1.369 . S
C416 C418 1.419 . S
C416 H420 0.930 . S
C417 C416 1.369 . S
C417 C426 1.429 . S
C418 C416 1.419 . S
C418 C419 1.363 . S
C418 H421 0.929 . S
C419 C418 1.363 . S
C419 C425 1.428 . S
H420 C416 0.930 . S
H421 C418 0.929 . S
S422 N423 1.613 . S
S422 N424 1.610 1_655 S
N423 S422 1.613 . S
N423 C426 1.350 1_655 S
N424 S422 1.610 1_455 S
N424 C425 1.351 . S
C425 C419 1.428 . S
C425 N424 1.351 . S
C425 C426 1.434 . S
C426 C417 1.429 . S
C426 N423 1.350 1_455 S
C426 C425 1.434 . S
C427 C428 1.369 . S
C427 C429 1.419 . S
C427 H431 0.930 . S
C428 C427 1.369 . S
C428 C437 1.429 . S
C429 C427 1.419 . S
C429 C430 1.363 . S
C429 H432 0.929 . S
C430 C429 1.363 . S
C430 C436 1.428 . S
H431 C427 0.930 . S
H432 C429 0.929 . S
S433 N434 1.613 . S
S433 N435 1.610 1_565 S
N434 S433 1.613 . S
N434 C437 1.350 1_565 S
N435 S433 1.610 1_545 S
N435 C436 1.351 . S
C436 C430 1.428 . S
C436 N435 1.351 . S
C436 C437 1.434 . S
C437 C428 1.429 . S
C437 N434 1.350 1_545 S
C437 C436 1.434 . S
C241 C137 1.369 1_455 S
C243 C17 1.384 . S
C252 C177 1.377 1_545 S
C254 C57 1.380 . S
C263 C217 1.379 . S
C265 C97 1.379 . S
C274 C29 1.178 . S
C276 C88 1.181 . S
C285 C69 1.173 . S
C287 C128 1.190 . S
C296 C109 1.172 . S
C298 C168 1.187 . S
C307 C149 1.194 . S
C309 C208 1.175 1_655 S
C318 C189 1.172 . S
C320 C8 1.189 1_565 S
C329 C229 1.171 . S
C331 C48 1.188 . S
C340 C2 1.980 . S
C342 C122 1.974 1_545 S
C351 C42 1.971 . S
C353 C162 1.980 . S
C362 C82 1.973 1_455 S
C364 C202 1.974 . S
C373 C31 4.201 . S
C375 C52 4.232 . S
C384 C71 4.201 . S
C386 C92 4.232 . S
C395 C111 4.201 . S
C397 C132 4.232 . S
C406 C151 4.201 . S
C408 C172 4.232 . S
C417 C191 4.202 . S
C419 C212 4.232 . S
C428 C231 4.202 . S
C430 C12 4.232 . S
