# Generated by pormake.
# Topology afw, (4)-cn, num edge types: 1
# Building blocks:
#     Node 0, Type 0, BuildingBlock: QUQFOY_clean_sbu_3, # of connection points: 4
#     Node 1, Type 0, BuildingBlock: QUQFOY_clean_sbu_3, # of connection points: 4
#     Node 2, Type 0, BuildingBlock: QUQFOY_clean_sbu_3, # of connection points: 4
#     Node 3, Type 0, BuildingBlock: QUQFOY_clean_sbu_3, # of connection points: 4
#     Node 4, Type 0, BuildingBlock: QUQFOY_clean_sbu_3, # of connection points: 4
#     Node 5, Type 0, BuildingBlock: QUQFOY_clean_sbu_3, # of connection points: 4
#     Node 6, Type 0, BuildingBlock: QUQFOY_clean_sbu_3, # of connection points: 4
#     Node 7, Type 0, BuildingBlock: QUQFOY_clean_sbu_3, # of connection points: 4
#     Node 8, Type 0, BuildingBlock: QUQFOY_clean_sbu_3, # of connection points: 4
#     Edge 9, Type (0, 0), BuildingBlock: TEMPAE_clean_linker_10, # of connection points: 2
#     Edge 10, Type (0, 0), BuildingBlock: TEMPAE_clean_linker_10, # of connection points: 2
#     Edge 11, Type (0, 0), BuildingBlock: TEMPAE_clean_linker_10, # of connection points: 2
#     Edge 12, Type (0, 0), BuildingBlock: TEMPAE_clean_linker_10, # of connection points: 2
#     Edge 13, Type (0, 0), BuildingBlock: TEMPAE_clean_linker_10, # of connection points: 2
#     Edge 14, Type (0, 0), BuildingBlock: TEMPAE_clean_linker_10, # of connection points: 2
#     Edge 15, Type (0, 0), BuildingBlock: TEMPAE_clean_linker_10, # of connection points: 2
#     Edge 16, Type (0, 0), BuildingBlock: TEMPAE_clean_linker_10, # of connection points: 2
#     Edge 17, Type (0, 0), BuildingBlock: TEMPAE_clean_linker_10, # of connection points: 2
#     Edge 18, Type (0, 0), BuildingBlock: TEMPAE_clean_linker_10, # of connection points: 2
#     Edge 19, Type (0, 0), BuildingBlock: TEMPAE_clean_linker_10, # of connection points: 2
#     Edge 20, Type (0, 0), BuildingBlock: TEMPAE_clean_linker_10, # of connection points: 2
#     Edge 21, Type (0, 0), BuildingBlock: TEMPAE_clean_linker_10, # of connection points: 2
#     Edge 22, Type (0, 0), BuildingBlock: TEMPAE_clean_linker_10, # of connection points: 2
#     Edge 23, Type (0, 0), BuildingBlock: TEMPAE_clean_linker_10, # of connection points: 2
#     Edge 24, Type (0, 0), BuildingBlock: TEMPAE_clean_linker_10, # of connection points: 2
#     Edge 25, Type (0, 0), BuildingBlock: TEMPAE_clean_linker_10, # of connection points: 2
#     Edge 26, Type (0, 0), BuildingBlock: TEMPAE_clean_linker_10, # of connection points: 2
# Relax obj value: 0.197
# Max RMSD: 0.207
# Mean RMSD: 0.200
data_MOF--net-afw--node1-QUQFOY_clean_sbu_3--edge1-TEMPAE_clean_linker_10
_symmetry_space_group_name_H-M    P1
_symmetry_Int_Tables_number       1
_symmetry_cell_setting            triclinic
loop_
_symmetry_equiv_pos_as_xyz
'x, y, z'
_cell_length_a     46.143353
_cell_length_b     46.304401
_cell_length_c     33.693212
_cell_angle_alpha  91.011031
_cell_angle_beta   90.994113
_cell_angle_gamma 119.92655
loop_
_atom_site_label
_atom_site_type_symbol
_atom_site_fract_x
_atom_site_fract_y
_atom_site_fract_z
_atom_type_partial_charge
C0 C 0.05182 0.1768 0.08042 0.0
O1 O 0.03948 0.17466 0.11435 0.0
Cd2 Cd -0.00653 0.18321 0.12619 0.0
O3 O 0.0414 0.18607 0.05067 0.0
Cd4 Cd -0.00026 0.20411 0.03659 0.0
C5 C 0.93999 0.12523 0.05583 0.0
O6 O 0.00504 0.23497 0.09822 0.0
O7 O -0.03877 0.22131 0.0611 0.0
O8 O 0.04176 0.25024 -0.00035 0.0
C9 C -0.02059 0.23762 0.09109 0.0
O10 O 0.94851 0.13367 0.09219 0.0
C11 C 0.0233 0.24496 0.9689 0.0
O12 O -0.04515 0.14568 0.02842 0.0
O13 O -0.00588 0.21956 0.96884 0.0
C14 C 0.84718 0.81432 -0.01868 0.0
O15 O 0.84116 0.81167 0.94415 0.0
Cd16 Cd 0.79559 0.81738 0.91984 0.0
O17 O 0.82594 0.81363 0.00554 0.0
Cd18 Cd 0.76685 0.80124 0.0054 0.0
C19 C 0.80342 0.88157 -0.01683 0.0
O20 O 0.74631 0.77053 0.9426 0.0
O21 O 0.71719 0.79109 0.96693 0.0
O22 O 0.75634 0.75375 0.04369 0.0
C23 C 0.71989 0.77249 0.94091 0.0
O24 O 0.80795 0.87125 0.9498 0.0
C25 C 0.73917 0.75762 0.07005 0.0
O26 O 0.78833 0.8613 0.01065 0.0
O27 O 0.7358 0.7832 0.06764 0.0
C28 C 0.09231 0.92696 0.03547 0.0
O29 O 0.10497 0.93339 0.07049 0.0
Cd30 Cd 0.16157 -0.02291 0.08437 0.0
O31 O 0.11018 0.94116 0.00581 0.0
Cd32 Cd 0.16878 -0.02019 -0.01049 0.0
C33 C 0.15868 0.03984 0.0331 0.0
O34 O 0.19599 0.96629 0.04217 0.0
O35 O 0.22689 0.01244 0.013 0.0
O36 O 0.16385 0.93977 0.93909 0.0
C37 C 0.22475 -0.00858 0.03809 0.0
O38 O 0.16209 0.02852 0.06602 0.0
C39 C 0.17699 0.96064 0.91182 0.0
O40 O 0.15779 0.02552 0.00011 0.0
O41 O 0.18501 -0.00935 0.92015 0.0
C42 C 0.55171 0.42897 0.26554 0.0
O43 O 0.55381 0.43876 0.23024 0.0
Cd44 Cd 0.60148 0.49241 0.21735 0.0
O45 O 0.5689 0.44975 0.29345 0.0
Cd46 Cd 0.60495 0.51099 0.30389 0.0
C47 C 0.66233 0.49178 0.27825 0.0
O48 O 0.59989 0.53971 0.24519 0.0
O49 O 0.64532 0.56503 0.28186 0.0
O50 O 0.56215 0.51393 0.34121 0.0
C51 C 0.62763 0.56615 0.25336 0.0
O52 O 0.64891 0.48819 0.2438 0.0
C53 C 0.58 0.52654 0.37268 0.0
O54 O 0.65141 0.50019 0.30818 0.0
O55 O 0.60953 0.531 0.37269 0.0
C56 C 0.5322 0.13459 0.27494 0.0
O57 O 0.52167 0.12691 0.23913 0.0
Cd58 Cd 0.46863 0.12023 0.22007 0.0
O59 O 0.5125 0.13228 0.30233 0.0
Cd60 Cd 0.45187 0.10993 0.31275 0.0
C61 C 0.4711 0.18479 0.27878 0.0
O62 O 0.42739 0.0741 0.25405 0.0
O63 O 0.39647 0.09019 0.28356 0.0
O64 O 0.45225 0.06772 0.35355 0.0
C65 C 0.3993 0.07267 0.2562 0.0
O66 O 0.47359 0.1725 0.24569 0.0
C67 C 0.43759 0.07191 0.38274 0.0
O68 O 0.46327 0.16772 0.31014 0.0
O69 O 0.43083 0.09536 0.38046 0.0
C70 C 0.82476 0.41001 0.28903 0.0
O71 O 0.83283 0.40632 0.25426 0.0
Cd72 Cd 0.8419 0.36076 0.23832 0.0
O73 O 0.82686 0.39332 0.31745 0.0
Cd74 Cd 0.84795 0.35449 0.33047 0.0
C75 C 0.77592 0.2973 0.28696 0.0
O76 O 0.88759 0.365 0.2776 0.0
O77 O 0.86781 0.31815 0.30724 0.0
O78 O 0.88649 0.39126 0.38208 0.0
C79 C 0.88773 0.33789 0.28224 0.0
O80 O 0.78881 0.3114 0.25465 0.0
C81 C 0.87575 0.36972 0.40893 0.0
O82 O 0.79175 0.30821 0.32009 0.0
O83 O 0.85108 0.34118 0.39951 0.0
C84 C 0.35587 0.83016 0.71162 0.0
O85 O 0.34083 0.82809 0.7436 0.0
Cd86 Cd 0.2945 0.83789 0.74931 0.0
O87 O 0.34795 0.83946 0.6799 0.0
Cd88 Cd 0.30766 0.85658 0.65734 0.0
C89 C 0.24637 0.77821 0.67827 0.0
O90 O 0.30573 0.88696 0.71568 0.0
O91 O 0.26572 0.87225 0.67183 0.0
O92 O 0.35396 0.90326 0.62682 0.0
C93 C 0.27994 0.88798 0.70403 0.0
O94 O 0.25032 0.7889 0.71417 0.0
C95 C 0.34002 0.89869 0.5927 0.0
O96 O 0.26535 0.79658 0.6512 0.0
O97 O 0.311 0.87319 0.58776 0.0
C98 C 0.16938 0.46731 0.63184 0.0
O99 O 0.15841 0.47041 0.59829 0.0
Cd100 Cd 0.10406 0.46545 0.58953 0.0
O101 O 0.15163 0.4608 0.66241 0.0
Cd102 Cd 0.09674 0.45029 0.6836 0.0
C103 C 0.11963 0.52909 0.65609 0.0
O104 O 0.06384 0.41933 0.62551 0.0
O105 O 0.03939 0.43604 0.66643 0.0
O106 O 0.09603 0.40477 0.71792 0.0
C107 C 0.03764 0.42004 0.63467 0.0
O108 O 0.11294 0.51719 0.6206 0.0
C109 C 0.08791 0.41107 0.75138 0.0
O110 O 0.11837 0.51116 0.68516 0.0
O111 O 0.08443 0.43665 0.75402 0.0
C112 C 0.40953 0.58413 0.71135 0.0
O113 O 0.41865 0.59761 0.74585 0.0
Cd114 Cd 0.47403 0.64315 0.7628 0.0
O115 O 0.42976 0.59429 0.68295 0.0
Cd116 Cd 0.4876 0.63695 0.6704 0.0
C117 C 0.4709 0.69779 0.69797 0.0
O118 O 0.51467 0.63397 0.73143 0.0
O119 O 0.54373 0.67617 0.6948 0.0
O120 O 0.49079 0.59433 0.63169 0.0
C121 C 0.54233 0.66013 0.7255 0.0
O122 O 0.47436 0.69099 0.7336 0.0
C123 C 0.50167 0.61121 0.60068 0.0
O124 O 0.47127 0.68017 0.66862 0.0
O125 O 0.50535 0.64034 0.60157 0.0
C126 C 0.16744 0.09364 0.06205 0.0
C127 C 0.1514 0.06738 0.03392 0.0
C128 C 0.1569 0.11709 0.06726 0.0
C129 C 0.12873 0.11313 0.04509 0.0
C130 C 0.11351 0.08753 0.01531 0.0
C131 C 0.12548 0.0653 0.0096 0.0
C132 C 0.17467 0.1449 0.09807 0.0
C133 C 0.08282 0.08179 -0.00818 0.0
C134 C 0.07056 0.13647 0.09608 0.0
C135 C 0.0748 0.16374 0.07432 0.0
C136 C 0.08846 0.12022 0.08723 0.0
C137 C 0.11214 0.13231 0.05682 0.0
C138 C 0.11801 0.1611 0.03632 0.0
C139 C 0.09868 0.1761 0.04473 0.0
C140 C 0.08071 0.08904 0.10909 0.0
C141 C 0.14402 0.17551 0.00489 0.0
H142 H 0.1877 0.09534 0.08062 0.0
H143 H 0.11292 0.04478 -0.01192 0.0
H144 H 0.17811 0.16872 0.08668 0.0
H145 H 0.15934 0.1391 0.12489 0.0
H146 H 0.19951 0.14835 0.10704 0.0
H147 H 0.07557 0.06248 0.96778 0.0
H148 H 0.06153 0.07363 0.01202 0.0
H149 H 0.08705 0.10523 0.97843 0.0
H150 H 0.05183 0.12663 0.11866 0.0
H151 H 0.10205 0.19729 0.028 0.0
H152 H 0.10369 0.09206 0.12405 0.0
H153 H 0.07157 0.06759 0.08766 0.0
H154 H 0.06146 0.0829 0.13179 0.0
H155 H 0.1678 0.1774 0.01564 0.0
H156 H 0.14905 0.20059 -0.00383 0.0
H157 H 0.13533 0.15879 0.97807 0.0
C158 C 0.84965 0.93947 0.97413 0.0
C159 C 0.81898 0.91786 -0.00894 0.0
C160 C 0.86678 -0.02633 -0.01613 0.0
C161 C 0.85235 -0.01319 0.01018 0.0
C162 C 0.82056 0.96534 0.02584 0.0
C163 C 0.80452 0.93092 0.01672 0.0
C164 C 0.90111 -0.00458 0.96755 0.0
C165 C 0.80387 -0.0214 0.0529 0.0
C166 C 0.91361 0.06483 0.06926 0.0
C167 C 0.91513 0.09011 0.04557 0.0
C168 C 0.89276 0.03112 0.05845 0.0
C169 C 0.87201 0.02241 0.02377 0.0
C170 C 0.87221 0.04783 0.00074 0.0
C171 C 0.89432 0.08148 0.01149 0.0
C172 C 0.89421 0.00491 0.08313 0.0
C173 C 0.84961 0.03949 0.96434 0.0
H174 H 0.86105 0.92938 0.95458 0.0
H175 H 0.78068 0.91425 0.02961 0.0
H176 H 0.90194 0.01659 0.95171 0.0
H177 H 0.91997 0.00609 -0.00763 0.0
H178 H 0.90844 -0.01856 0.94678 0.0
H179 H 0.77754 0.95952 0.05844 0.0
H180 H 0.81781 -0.01312 0.08183 0.0
H181 H 0.80425 0.00062 0.03984 0.0
H182 H 0.92994 0.07142 0.09542 0.0
H183 H 0.89532 0.10101 -0.00671 0.0
H184 H 0.90297 -0.00922 0.06478 0.0
H185 H 0.86892 -0.0132 0.09327 0.0
H186 H 0.91128 0.01585 0.10961 0.0
H187 H 0.85783 0.02847 0.94066 0.0
H188 H 0.84976 0.06183 0.9526 0.0
H189 H 0.82356 0.02065 0.97129 0.0
C190 C 0.89596 0.84546 0.02784 0.0
C191 C 0.88072 0.82249 -0.00396 0.0
C192 C 0.93004 0.85878 0.03733 0.0
C193 C 0.9489 0.84797 0.01525 0.0
C194 C 0.93285 0.82256 -0.01455 0.0
C195 C 0.899 0.81055 0.97564 0.0
C196 C 0.94638 0.88647 0.06859 0.0
C197 C 0.95187 0.80955 0.96226 0.0
C198 C 0.03932 0.91226 -0.00079 0.0
C199 C 0.05597 0.90508 0.02917 0.0
C200 C 0.00448 0.89372 -0.00559 0.0
C201 C -0.01405 0.86659 0.01934 0.0
C202 C 0.00275 0.85838 0.04871 0.0
C203 C 0.03764 0.8782 0.05381 0.0
C204 C -0.01254 0.90388 0.96343 0.0
C205 C -0.01613 0.82894 0.07485 0.0
H206 H 0.88185 0.85487 0.04343 0.0
H207 H 0.88707 0.79253 0.95126 0.0
H208 H -0.03789 0.88164 0.08962 0.0
H209 H -0.03695 0.91028 0.05408 0.0
H210 H 0.92773 0.88963 0.08569 0.0
H211 H 0.9348 0.786 0.94549 0.0
H212 H -0.03204 0.82837 0.94076 0.0
H213 H -0.03155 0.80511 -0.01761 0.0
H214 H 0.05348 0.93328 0.98043 0.0
H215 H 0.05062 0.87257 0.07684 0.0
H216 H -0.03061 0.90966 0.97776 0.0
H217 H -0.02688 0.88304 0.94164 0.0
H218 H 0.00553 0.92605 0.9471 0.0
H219 H -0.03272 0.83337 0.09436 0.0
H220 H 0.0009 0.8242 0.09381 0.0
H221 H -0.03234 0.80619 0.05635 0.0
C222 C 0.81363 0.45549 0.26941 0.0
C223 C 0.8082 0.42994 0.29517 0.0
C224 C 0.79364 0.47045 0.27061 0.0
C225 C 0.76697 0.45875 0.29729 0.0
C226 C 0.76269 0.43434 0.32493 0.0
C227 C 0.7837 0.42057 0.32389 0.0
C228 C 0.79968 0.4972 0.24156 0.0
C229 C 0.73409 0.42058 0.35322 0.0
C230 C 0.71577 0.50183 0.31127 0.0
C231 C 0.68954 0.48412 0.28337 0.0
C232 C 0.7418 0.49455 0.31555 0.0
C233 C 0.74075 0.46821 0.29235 0.0
C234 C 0.71399 0.45001 0.26456 0.0
C235 C 0.68903 0.45857 0.25998 0.0
C236 C 0.77047 0.51509 0.34456 0.0
C237 C 0.71139 0.42113 0.24001 0.0
H238 H 0.83278 0.46301 0.24743 0.0
H239 H 0.77928 0.40069 0.34375 0.0
H240 H 0.78021 0.48659 0.21741 0.0
H241 H 0.79793 0.51783 0.25641 0.0
H242 H 0.82457 0.50756 0.228 0.0
H243 H 0.73651 0.40462 0.37574 0.0
H244 H 0.73256 0.44104 0.36879 0.0
H245 H 0.71017 0.4054 0.33616 0.0
H246 H 0.71623 0.52177 0.32914 0.0
H247 H 0.66856 0.44465 0.23867 0.0
H248 H 0.7945 0.52612 0.32894 0.0
H249 H 0.77163 0.49898 0.36777 0.0
H250 H 0.76818 0.5355 0.35924 0.0
H251 H 0.73334 0.42991 0.22084 0.0
H252 H 0.68833 0.40885 0.22079 0.0
H253 H 0.71146 0.40224 0.25978 0.0
C254 C 0.46245 0.23102 0.30494 0.0
C255 C 0.47954 0.22007 0.28049 0.0
C256 C 0.47005 0.26451 0.30513 0.0
C257 C 0.49608 0.28761 0.28135 0.0
C258 C 0.51379 0.27665 0.25729 0.0
C259 C 0.50494 0.24297 0.2567 0.0
C260 C 0.45003 0.27509 0.33028 0.0
C261 C 0.54238 0.30056 0.23238 0.0
C262 C 0.50744 0.37026 0.24735 0.0
C263 C 0.5331 0.39286 0.27344 0.0
C264 C 0.49316 0.33568 0.25156 0.0
C265 C 0.50562 0.32348 0.28175 0.0
C266 C 0.53045 0.3462 0.30926 0.0
C267 C 0.54354 0.38057 0.30509 0.0
C268 C 0.46599 0.31225 0.22237 0.0
C269 C 0.54511 0.33439 0.34124 0.0
H270 H 0.44263 0.21324 0.32312 0.0
H271 H 0.51842 0.23462 0.23806 0.0
H272 H 0.46672 0.29472 0.35234 0.0
H273 H 0.4383 0.28602 0.31127 0.0
H274 H 0.43008 0.25396 0.34633 0.0
H275 H 0.5544 0.28823 0.21653 0.0
H276 H 0.53324 0.31171 0.21007 0.0
H277 H 0.56166 0.32127 0.25146 0.0
H278 H 0.49909 0.37962 0.22303 0.0
H279 H 0.56354 0.39788 0.32524 0.0
H280 H 0.44546 0.29142 0.23806 0.0
H281 H 0.47635 0.30125 0.20136 0.0
H282 H 0.45543 0.32518 0.20495 0.0
H283 H 0.525 0.31404 0.35791 0.0
H284 H 0.56176 0.35482 0.36259 0.0
H285 H 0.55988 0.3242 0.3273 0.0
C286 C 0.58908 0.14427 0.25994 0.0
C287 C 0.56847 0.15115 0.28363 0.0
C288 C 0.62401 0.16415 0.26326 0.0
C289 C 0.63839 0.19216 0.28983 0.0
C290 C 0.61771 0.19808 0.31532 0.0
C291 C 0.58295 0.17713 0.31232 0.0
C292 C 0.64536 0.15635 0.23665 0.0
C293 C 0.63199 0.22814 0.34338 0.0
C294 C 0.73164 0.24356 0.31344 0.0
C295 C 0.74141 0.26908 0.28619 0.0
C296 C 0.69837 0.21738 0.31389 0.0
C297 C 0.67431 0.2176 0.28747 0.0
C298 C 0.6842 0.24327 0.25974 0.0
C299 C 0.71779 0.26841 0.25901 0.0
C300 C 0.6889 0.1898 0.34288 0.0
C301 C 0.65913 0.24486 0.23174 0.0
H302 H 0.57785 0.124 0.23795 0.0
H303 H 0.56702 0.18264 0.33045 0.0
H304 H 0.65494 0.17447 0.21245 0.0
H305 H 0.66732 0.15868 0.25355 0.0
H306 H 0.63105 0.13084 0.22301 0.0
H307 H 0.61291 0.22758 0.3635 0.0
H308 H 0.653 0.2298 0.36167 0.0
H309 H 0.6421 0.25114 0.32595 0.0
H310 H 0.75006 0.244 0.33424 0.0
H311 H 0.72534 0.28832 0.23816 0.0
H312 H 0.67499 0.16515 0.32714 0.0
H313 H 0.67207 0.19079 0.36528 0.0
H314 H 0.71112 0.19159 0.35864 0.0
H315 H 0.64636 0.22187 0.21268 0.0
H316 H 0.67093 0.26668 0.21227 0.0
H317 H 0.63963 0.24637 0.249 0.0
C318 C 0.40363 0.82794 0.68042 0.0
C319 C 0.37953 0.81745 0.70979 0.0
C320 C 0.42346 0.81298 0.67562 0.0
C321 C 0.41817 0.78622 0.69989 0.0
C322 C 0.39437 0.77609 0.73014 0.0
C323 C 0.37572 0.79218 0.73509 0.0
C324 C 0.44942 0.82523 0.64403 0.0
C325 C 0.3875 0.74725 0.75621 0.0
C326 C 0.43587 0.71825 0.66584 0.0
C327 C 0.46238 0.72412 0.69181 0.0
C328 C 0.42226 0.73943 0.66654 0.0
C329 C 0.43625 0.76759 0.69299 0.0
C330 C 0.46499 0.7752 0.71659 0.0
C331 C 0.47734 0.75299 0.71627 0.0
C332 C 0.39118 0.73004 0.64149 0.0
C333 C 0.48137 0.80558 0.7441 0.0
H334 H 0.40672 0.84758 0.66089 0.0
H335 H 0.35688 0.78374 0.75756 0.0
H336 H 0.47374 0.82966 0.65661 0.0
H337 H 0.44163 0.80595 0.61992 0.0
H338 H 0.45311 0.84863 0.63089 0.0
H339 H 0.36807 0.74244 0.77825 0.0
H340 H 0.37904 0.72429 0.73756 0.0
H341 H 0.41074 0.75227 0.77244 0.0
H342 H 0.42412 0.69573 0.64723 0.0
H343 H 0.498 0.75758 0.73622 0.0
H344 H 0.39404 0.75177 0.62499 0.0
H345 H 0.36957 0.72218 0.6611 0.0
H346 H 0.3853 0.70931 0.61988 0.0
H347 H 0.48376 0.82774 0.72898 0.0
H348 H 0.50657 0.8111 0.75485 0.0
H349 H 0.46561 0.8014 0.77025 0.0
C350 C 0.2296 0.72413 0.64276 0.0
C351 C 0.2221 0.7426 0.66983 0.0
C352 C 0.21024 0.68918 0.64035 0.0
C353 C 0.18228 0.67248 0.66488 0.0
C354 C 0.17336 0.69123 0.69034 0.0
C355 C 0.19366 0.72605 0.69292 0.0
C356 C 0.22085 0.67005 0.6132 0.0
C357 C 0.14318 0.67447 0.71606 0.0
C358 C 0.12202 0.58181 0.636 0.0
C359 C 0.13222 0.56516 0.66225 0.0
C360 C 0.13708 0.61668 0.63764 0.0
C361 C 0.16359 0.63539 0.66548 0.0
C362 C 0.1733 0.61864 0.69287 0.0
C363 C 0.15717 0.58365 0.69125 0.0
C364 C 0.12533 0.63352 0.60875 0.0
C365 C 0.2018 0.63773 0.72265 0.0
H366 H 0.2518 0.73682 0.62525 0.0
H367 H 0.18775 0.74032 0.7138 0.0
H368 H 0.22812 0.65468 0.63117 0.0
H369 H 0.19971 0.65277 0.59311 0.0
H370 H 0.24232 0.68676 0.59488 0.0
H371 H 0.13753 0.69269 0.73077 0.0
H372 H 0.12088 0.65629 0.69806 0.0
H373 H 0.14765 0.6604 0.73937 0.0
H374 H 0.1026 0.56753 0.61365 0.0
H375 H 0.16535 0.57088 0.71127 0.0
H376 H 0.14524 0.64771 0.5874 0.0
H377 H 0.12028 0.65163 0.62475 0.0
H378 H 0.10232 0.61536 0.59174 0.0
H379 H 0.22526 0.65326 0.70678 0.0
H380 H 0.20569 0.621 0.74252 0.0
H381 H 0.19701 0.65486 0.74116 0.0
C382 C 0.21357 0.46043 0.66645 0.0
C383 C 0.20454 0.4759 0.63724 0.0
C384 C 0.24727 0.4727 0.6774 0.0
C385 C 0.27223 0.50184 0.65975 0.0
C386 C 0.2633 0.51646 0.62873 0.0
C387 C 0.22951 0.50293 0.61739 0.0
C388 C 0.25592 0.45563 0.70942 0.0
C389 C 0.28909 0.54796 0.60971 0.0
C390 C 0.34895 0.56217 0.72149 0.0
C391 C 0.37418 0.55933 0.70247 0.0
C392 C 0.31545 0.54283 0.70854 0.0
C393 C 0.30695 0.51936 0.67665 0.0
C394 C 0.33208 0.51474 0.65922 0.0
C395 C 0.36557 0.53527 0.67186 0.0
C396 C 0.28948 0.549 0.72739 0.0
C397 C 0.32381 0.48908 0.62623 0.0
H398 H 0.19419 0.43936 0.68164 0.0
H399 H 0.22248 0.51509 0.59508 0.0
H400 H 0.278 0.45351 0.70126 0.0
H401 H 0.26248 0.47068 0.73753 0.0
H402 H 0.23472 0.43034 0.71494 0.0
H403 H 0.27837 0.55491 0.58432 0.0
H404 H 0.29963 0.56882 0.63211 0.0
H405 H 0.31009 0.54503 0.59903 0.0
H406 H 0.35563 0.58099 0.7449 0.0
H407 H 0.38511 0.53296 0.65729 0.0
H408 H 0.2688 0.52544 0.7385 0.0
H409 H 0.27849 0.55824 0.70482 0.0
H410 H 0.30009 0.56757 0.75249 0.0
H411 H 0.30184 0.46491 0.63377 0.0
H412 H 0.34517 0.4851 0.62019 0.0
H413 H 0.31716 0.4974 0.59859 0.0
C414 C 0.06684 0.29664 0.93744 0.0
C415 C 0.03457 0.26863 0.93604 0.0
C416 C 0.07709 0.32069 0.90811 0.0
C417 C 0.05451 0.31666 0.87668 0.0
C418 C 0.0221 0.28818 0.87474 0.0
C419 C 0.01253 0.26447 0.90442 0.0
C420 C 0.11194 0.3506 0.91101 0.0
C421 C -0.00264 0.28298 0.84159 0.0
C422 C 0.0675 0.39225 0.81982 0.0
C423 C 0.08142 0.3885 0.7848 0.0
C424 C 0.05905 0.36929 0.8503 0.0
C425 C 0.06481 0.34211 0.84563 0.0
C426 C 0.07965 0.33873 0.81079 0.0
C427 C 0.08772 0.36191 0.78081 0.0
C428 C 0.04327 0.37369 0.8871 0.0
C429 C 0.08641 0.31023 0.80483 0.0
H430 H 0.08401 0.30006 0.9618 0.0
H431 H -0.01246 0.24295 0.90321 0.0
H432 H 0.12556 0.35209 0.88361 0.0
H433 H 0.11054 0.37379 0.91355 0.0
H434 H 0.12665 0.34973 0.93694 0.0
H435 H -0.02677 0.25939 0.84422 0.0
H436 H -0.00764 0.30406 0.84166 0.0
H437 H 0.00801 0.28252 0.81247 0.0
H438 H 0.06253 0.4127 0.82306 0.0
H439 H 0.09861 0.3589 0.7539 0.0
H440 H 0.05802 0.37467 0.91395 0.0
H441 H 0.01775 0.35197 0.88974 0.0
H442 H 0.04148 0.39674 0.88674 0.0
H443 H 0.10204 0.30979 0.82994 0.0
H444 H 0.09933 0.31193 0.77671 0.0
H445 H 0.06249 0.28618 0.80433 0.0
C446 C 0.66605 0.75893 0.9065 0.0
C447 C 0.69403 0.75471 0.90936 0.0
C448 C 0.64143 0.7423 0.87652 0.0
C449 C 0.64491 0.7209 0.84893 0.0
C450 C 0.67292 0.71626 0.8519 0.0
C451 C 0.69722 0.73331 0.88208 0.0
C452 C 0.61189 0.7479 0.87411 0.0
C453 C 0.67733 0.69351 0.82303 0.0
C454 C 0.56637 0.65799 0.79167 0.0
C455 C 0.56965 0.67427 0.75594 0.0
C456 C 0.59109 0.67255 0.82198 0.0
C457 C 0.61961 0.70409 0.81631 0.0
C458 C 0.62348 0.72021 0.7799 0.0
C459 C 0.59846 0.70505 0.75009 0.0
C460 C 0.58631 0.65459 0.86039 0.0
C461 C 0.65361 0.75388 0.77283 0.0
H462 H 0.66344 0.7754 0.92756 0.0
H463 H 0.71876 0.72985 0.88426 0.0
H464 H 0.61135 0.75871 0.84516 0.0
H465 H 0.58822 0.72377 0.87575 0.0
H466 H 0.61264 0.76491 0.89829 0.0
H467 H 0.70009 0.69193 0.83012 0.0
H468 H 0.65522 0.66806 0.82322 0.0
H469 H 0.67912 0.70262 0.79244 0.0
H470 H 0.54419 0.63414 0.79628 0.0
H471 H 0.60118 0.71772 0.72248 0.0
H472 H 0.58414 0.66945 0.88515 0.0
H473 H 0.60839 0.65185 0.86736 0.0
H474 H 0.56359 0.62946 0.85928 0.0
H475 H 0.65431 0.77266 0.79434 0.0
H476 H 0.65342 0.76246 0.74229 0.0
H477 H 0.67695 0.75293 0.77775 0.0
C478 C 0.27816 0.91558 0.76746 0.0
C479 C 0.26446 0.90255 0.72951 0.0
C480 C 0.26226 0.92692 0.79332 0.0
C481 C 0.23202 0.92533 0.78082 0.0
C482 C 0.2188 0.91352 0.74196 0.0
C483 C 0.23515 0.90216 0.71674 0.0
C484 C 0.27717 0.93939 0.83459 0.0
C485 C 0.18677 0.91175 0.72752 0.0
C486 C 0.17721 0.91761 0.86662 0.0
C487 C 0.18603 0.95095 0.874 0.0
C488 C 0.19055 0.90865 0.83482 0.0
C489 C 0.21319 0.93364 0.80975 0.0
C490 C 0.22031 0.96695 0.81528 0.0
C491 C 0.20663 -0.02476 0.84745 0.0
C492 C 0.18213 0.87279 0.82973 0.0
C493 C 0.24401 -0.00583 0.78882 0.0
H494 H 0.30088 0.91611 0.77744 0.0
H495 H 0.22456 0.89233 0.68731 0.0
H496 H 0.28051 0.96452 0.84061 0.0
H497 H 0.25986 0.92252 0.85688 0.0
H498 H 0.30176 0.94076 0.8389 0.0
H499 H 0.18175 0.90534 0.69527 0.0
H500 H 0.16544 0.89256 0.74401 0.0
H501 H 0.1878 0.9359 0.73337 0.0
H502 H 0.16106 0.89865 0.88681 0.0
H503 H 0.21342 0.00104 0.85288 0.0
H504 H 0.20463 0.87084 0.837 0.0
H505 H 0.17454 0.86395 0.79845 0.0
H506 H 0.16169 0.85594 0.84922 0.0
H507 H 0.26996 -0.00033 0.79535 0.0
H508 H 0.24311 0.01753 0.79333 0.0
H509 H 0.23811 -0.01396 0.75711 0.0
C510 C 0.34409 0.05832 0.22544 0.0
C511 C 0.37313 0.05586 0.22475 0.0
C512 C 0.32029 0.04503 0.19415 0.0
C513 C 0.32562 0.02872 0.16154 0.0
C514 C 0.35425 0.02503 0.16132 0.0
C515 C 0.37778 0.03875 0.19297 0.0
C516 C 0.29 0.04943 0.19539 0.0
C517 C 0.36051 0.00751 0.12715 0.0
C518 C 0.24856 -0.02345 0.09608 0.0
C519 C 0.25245 -0.00085 0.06663 0.0
C520 C 0.27307 -0.0148 0.12622 0.0
C521 C 0.30194 0.01721 0.12689 0.0
C522 C 0.30678 0.03946 0.09611 0.0
C523 C 0.28198 0.0301 0.06622 0.0
C524 C 0.26729 0.96072 0.15836 0.0
C525 C 0.33732 0.07383 0.09587 0.0
H526 H 0.3403 0.07139 0.25001 0.0
H527 H 0.40014 0.03665 0.1924 0.0
H528 H 0.29042 0.06496 0.17045 0.0
H529 H 0.26676 0.0249 0.19166 0.0
H530 H 0.28891 0.06152 0.22366 0.0
H531 H 0.38255 0.00439 0.13303 0.0
H532 H 0.33825 -0.01742 0.12106 0.0
H533 H 0.36483 0.02202 0.09988 0.0
H534 H 0.22589 0.95246 0.09632 0.0
H535 H 0.28522 0.04757 0.04337 0.0
H536 H 0.26263 0.97001 0.18674 0.0
H537 H 0.28983 0.95831 0.16321 0.0
H538 H 0.24556 0.93563 0.1511 0.0
H539 H 0.33695 0.08899 0.12154 0.0
H540 H 0.33856 0.08707 0.06821 0.0
H541 H 0.36043 0.07223 0.09908 0.0
C542 C -0.00936 0.2754 0.15037 0.0
C543 C -0.0304 0.25646 0.1182 0.0
C544 C -0.01917 0.2922 0.17723 0.0
C545 C 0.94916 0.28968 0.17188 0.0
C546 C 0.92823 0.27135 0.13885 0.0
C547 C 0.93877 0.25506 0.11231 0.0
C548 C 0.0039 0.3118 0.21193 0.0
C549 C 0.89416 0.26792 0.1323 0.0
C550 C 0.90338 0.29594 0.26065 0.0
C551 C 0.90636 0.32735 0.25611 0.0
C552 C 0.91814 0.28389 0.23411 0.0
C553 C 0.93655 0.30383 0.20238 0.0
C554 C 0.94089 0.33615 0.19855 0.0
C555 C 0.92562 0.34753 0.22547 0.0
C556 C 0.91288 0.24924 0.23913 0.0
C557 C -0.03933 0.35819 0.16527 0.0
H558 H 0.01463 0.2768 0.15486 0.0
H559 H 0.92246 0.24059 0.0874 0.0
H560 H 0.00734 0.33728 0.21369 0.0
H561 H -0.00742 0.29954 0.24002 0.0
H562 H 0.02884 0.3138 0.20986 0.0
H563 H 0.88176 0.25433 0.10399 0.0
H564 H 0.87785 0.25427 0.15712 0.0
H565 H 0.89633 0.29288 0.13204 0.0
H566 H 0.8887 0.28027 0.28441 0.0
H567 H 0.92813 0.3719 0.22196 0.0
H568 H 0.93729 0.24998 0.2402 0.0
H569 H 0.89823 0.23303 0.21324 0.0
H570 H 0.89937 0.23764 0.26656 0.0
H571 H -0.01445 0.36003 0.16409 0.0
H572 H -0.0357 0.38371 0.16858 0.0
H573 H 0.94742 0.34705 0.13644 0.0
C574 C 0.62484 0.59589 0.19312 0.0
C575 C 0.64028 0.59643 0.22954 0.0
C576 C 0.63896 0.62374 0.16879 0.0
C577 C 0.66906 0.65273 0.18135 0.0
C578 C 0.68372 0.65394 0.219 0.0
C579 C 0.66921 0.62578 0.24256 0.0
C580 C 0.62259 0.62154 0.12881 0.0
C581 C 0.7157 0.6844 0.23359 0.0
C582 C 0.72805 0.70507 0.10191 0.0
C583 C 0.7224 0.73212 0.10034 0.0
C584 C 0.7108 0.67917 0.12811 0.0
C585 C 0.68725 0.68027 0.15351 0.0
C586 C 0.68172 0.70772 0.1526 0.0
C587 C 0.69941 0.7334 0.12597 0.0
C588 C 0.71762 0.65046 0.12833 0.0
C589 C 0.65689 0.70975 0.17942 0.0
H590 H 0.60241 0.57334 0.18298 0.0
H591 H 0.68109 0.62653 0.2709 0.0
H592 H 0.61975 0.64372 0.12462 0.0
H593 H 0.63873 0.62123 0.10497 0.0
H594 H 0.5976 0.59875 0.12518 0.0
H595 H 0.72191 0.68267 0.26515 0.0
H596 H 0.73672 0.6874 0.21525 0.0
H597 H 0.71375 0.70718 0.23045 0.0
H598 H 0.74579 0.70387 0.08224 0.0
H599 H 0.69482 0.75416 0.12478 0.0
H600 H 0.69419 0.62671 0.12125 0.0
H601 H 0.72655 0.64837 0.15835 0.0
H602 H 0.73665 0.65336 0.10659 0.0
H603 H 0.63156 0.68807 0.17323 0.0
H604 H 0.65585 0.73299 0.17552 0.0
H605 H 0.66355 0.70862 0.21093 0.0
C606 C -0.01823 0.41269 0.6152 0.0
C607 C 0.00883 0.40806 0.60647 0.0
C608 C -0.04396 0.40469 0.58686 0.0
C609 C -0.04243 0.39187 0.54903 0.0
C610 C -0.016 0.38568 0.54076 0.0
C611 C 0.00931 0.39383 0.56963 0.0
C612 C 0.92808 0.41135 0.59677 0.0
C613 C -0.01361 0.37188 0.50075 0.0
C614 C 0.88449 0.35108 0.47501 0.0
C615 C 0.89328 0.37667 0.448 0.0
C616 C 0.90422 0.35615 0.50942 0.0
C617 C 0.93332 0.38748 0.51676 0.0
C618 C 0.94111 0.41397 0.49087 0.0
C619 C 0.92096 0.40823 0.45678 0.0
C620 C 0.895 0.32745 0.53661 0.0
C621 C -0.02816 0.44784 0.49789 0.0
H622 H -0.01884 0.42349 0.64376 0.0
H623 H 0.03004 0.38999 0.56282 0.0
H624 H 0.93046 0.43247 0.5793 0.0
H625 H 0.90344 0.38933 0.58858 0.0
H626 H 0.92841 0.41763 0.62881 0.0
H627 H 0.00726 0.36643 0.50003 0.0
H628 H -0.03731 0.34865 0.49288 0.0
H629 H -0.00963 0.39013 0.47756 0.0
H630 H 0.863 0.32666 0.46847 0.0
H631 H 0.92772 0.42818 0.43619 0.0
H632 H 0.89645 0.33564 0.56808 0.0
H633 H 0.91305 0.3184 0.53342 0.0
H634 H 0.86943 0.30629 0.52977 0.0
H635 H -0.02734 0.45715 0.52868 0.0
H636 H -0.02729 0.4665 0.47695 0.0
H637 H -0.00538 0.4458 0.49426 0.0
C638 C 0.58816 0.55336 0.44017 0.0
C639 C 0.56735 0.53702 0.40682 0.0
C640 C 0.57698 0.56517 0.47163 0.0
C641 C 0.5442 0.56045 0.46964 0.0
C642 C 0.52292 0.54355 0.43633 0.0
C643 C 0.53475 0.53204 0.40531 0.0
C644 C 0.60033 0.58303 0.50679 0.0
C645 C 0.48776 0.53793 0.43328 0.0
C646 C 0.50577 0.56529 0.56628 0.0
C647 C 0.51095 0.59783 0.56604 0.0
C648 C 0.51616 0.5527 0.53488 0.0
C649 C 0.53216 0.57316 0.50249 0.0
C650 C 0.53697 0.60584 0.50171 0.0
C651 C 0.52625 0.61779 0.53352 0.0
C652 C 0.51044 0.51766 0.53665 0.0
C653 C 0.5539 0.62832 0.46756 0.0
H654 H 0.61339 0.55735 0.44148 0.0
H655 H 0.51852 0.51944 0.37961 0.0
H656 H 0.60458 0.60875 0.50997 0.0
H657 H 0.58886 0.57008 0.53449 0.0
H658 H 0.62493 0.58438 0.50394 0.0
H659 H 0.47424 0.52392 0.4056 0.0
H660 H 0.47332 0.52388 0.45909 0.0
H661 H 0.48847 0.56223 0.43402 0.0
H662 H 0.4939 0.54968 0.59129 0.0
H663 H 0.53036 0.64297 0.53321 0.0
H664 H 0.53479 0.51829 0.53664 0.0
H665 H 0.49582 0.50281 0.50996 0.0
H666 H 0.4969 0.5047 0.56351 0.0
H667 H 0.57973 0.6327 0.46516 0.0
H668 H 0.55512 0.65281 0.47108 0.0
H669 H 0.5403 0.61615 0.43921 0.0
C670 C 0.33961 0.91975 0.52474 0.0
C671 C 0.35619 0.9233 0.56131 0.0
C672 C 0.35381 0.94438 0.49612 0.0
C673 C 0.38531 -0.02679 0.50432 0.0
C674 C 0.40242 -0.02336 0.54088 0.0
C675 C 0.38768 0.95165 0.5689 0.0
C676 C 0.33491 0.93978 0.45733 0.0
C677 C 0.43608 0.00694 0.55067 0.0
C678 C 0.43422 0.02281 0.41657 0.0
C679 C 0.42664 0.04864 0.41606 0.0
C680 C 0.42134 -0.00161 0.44545 0.0
C681 C 0.40036 -0.00019 0.47462 0.0
C682 C 0.39336 0.02634 0.475 0.0
C683 C 0.40661 0.05047 0.44569 0.0
C684 C 0.42953 0.97062 0.44417 0.0
C685 C 0.37125 0.02878 0.50581 0.0
H686 H 0.31526 0.89798 0.51871 0.0
H687 H 0.40068 0.95463 0.5971 0.0
H688 H 0.3294 0.96037 0.45399 0.0
H689 H 0.35049 0.94081 0.43209 0.0
H690 H 0.31097 0.9157 0.45526 0.0
H691 H 0.44638 0.00553 0.58016 0.0
H692 H 0.45421 0.00975 0.52774 0.0
H693 H 0.43387 0.02972 0.55051 0.0
H694 H 0.44972 0.0212 0.3938 0.0
H695 H 0.40059 0.07029 0.44544 0.0
H696 H 0.40624 0.94632 0.43904 0.0
H697 H 0.44074 0.96951 0.47309 0.0
H698 H 0.44716 -0.02625 0.42039 0.0
H699 H 0.34581 0.00662 0.50298 0.0
H700 H 0.36918 0.05155 0.50288 0.0
H701 H 0.38122 0.02894 0.53607 0.0
loop_
_geom_bond_atom_site_label_1
_geom_bond_atom_site_label_2
_geom_bond_distance
_geom_bond_site_symmetry_2
_ccdc_geom_bond_type
C0 O1 1.306 . S
C0 O3 1.160 . S
O1 C0 1.306 . S
O1 Cd2 2.228 . S
Cd2 O1 2.228 . S
Cd2 O6 2.273 . S
Cd2 O10 2.277 1_455 S
O3 C0 1.160 . S
O3 Cd4 2.203 . S
Cd4 O3 2.203 . S
Cd4 O6 2.411 . S
Cd4 O7 2.333 1_455 S
Cd4 O8 2.352 1_554 S
Cd4 O12 2.277 1_454 S
Cd4 O13 2.356 1_554 S
C5 O10 1.209 . S
C5 O12 1.226 1_554 S
O6 Cd2 2.273 . S
O6 Cd4 2.411 . S
O6 C9 1.320 1_455 S
O7 Cd4 2.333 1_655 S
O7 C9 1.214 . S
O8 Cd4 2.352 1_556 S
O8 C11 1.258 . S
C9 O6 1.320 1_655 S
C9 O7 1.214 . S
O10 Cd2 2.277 1_655 S
O10 C5 1.209 . S
C11 O8 1.258 . S
C11 O13 1.282 . S
O12 Cd4 2.277 1_656 S
O12 C5 1.226 1_556 S
O13 Cd4 2.356 1_556 S
O13 C11 1.282 . S
C14 O15 1.306 1_554 S
C14 O17 1.160 . S
O15 C14 1.306 1_556 S
O15 Cd16 2.228 . S
Cd16 O15 2.228 . S
Cd16 O20 2.273 . S
Cd16 O24 2.277 . S
O17 C14 1.160 . S
O17 Cd18 2.203 . S
Cd18 O17 2.203 . S
Cd18 O20 2.411 1_554 S
Cd18 O21 2.333 . S
Cd18 O22 2.352 . S
Cd18 O26 2.277 . S
Cd18 O27 2.356 . S
C19 O24 1.209 1_554 S
C19 O26 1.226 . S
O20 Cd16 2.273 . S
O20 Cd18 2.411 1_556 S
O20 C23 1.320 . S
O21 Cd18 2.333 . S
O21 C23 1.214 1_554 S
O22 Cd18 2.352 . S
O22 C25 1.258 . S
C23 O20 1.320 . S
C23 O21 1.214 1_556 S
O24 Cd16 2.277 . S
O24 C19 1.209 1_556 S
C25 O22 1.258 . S
C25 O27 1.282 . S
O26 Cd18 2.277 . S
O26 C19 1.226 . S
O27 Cd18 2.356 . S
O27 C25 1.282 . S
C28 O29 1.306 . S
C28 O31 1.160 1_554 S
O29 C28 1.306 . S
O29 Cd30 2.228 1_565 S
Cd30 O29 2.228 1_545 S
Cd30 O34 2.273 . S
Cd30 O38 2.277 . S
O31 C28 1.160 1_556 S
O31 Cd32 2.203 1_566 S
Cd32 O31 2.203 1_544 S
Cd32 O34 2.411 . S
Cd32 O35 2.333 . S
Cd32 O36 2.352 1_544 S
Cd32 O40 2.277 1_554 S
Cd32 O41 2.356 1_554 S
C33 O38 1.209 . S
C33 O40 1.226 1_554 S
O34 Cd30 2.273 . S
O34 Cd32 2.411 . S
O34 C37 1.320 . S
O35 Cd32 2.333 . S
O35 C37 1.214 . S
O36 Cd32 2.352 1_566 S
O36 C39 1.258 . S
C37 O34 1.320 . S
C37 O35 1.214 . S
O38 Cd30 2.277 . S
O38 C33 1.209 . S
C39 O36 1.258 . S
C39 O41 1.282 1_565 S
O40 Cd32 2.277 1_556 S
O40 C33 1.226 1_556 S
O41 Cd32 2.356 1_556 S
O41 C39 1.282 1_545 S
C42 O43 1.306 . S
C42 O45 1.160 . S
O43 C42 1.306 . S
O43 Cd44 2.228 . S
Cd44 O43 2.228 . S
Cd44 O48 2.273 . S
Cd44 O52 2.277 . S
O45 C42 1.160 . S
O45 Cd46 2.203 . S
Cd46 O45 2.203 . S
Cd46 O48 2.411 . S
Cd46 O49 2.333 . S
Cd46 O50 2.352 . S
Cd46 O54 2.277 . S
Cd46 O55 2.356 . S
C47 O52 1.209 . S
C47 O54 1.226 . S
O48 Cd44 2.273 . S
O48 Cd46 2.411 . S
O48 C51 1.320 . S
O49 Cd46 2.333 . S
O49 C51 1.214 . S
O50 Cd46 2.352 . S
O50 C53 1.258 . S
C51 O48 1.320 . S
C51 O49 1.214 . S
O52 Cd44 2.277 . S
O52 C47 1.209 . S
C53 O50 1.258 . S
C53 O55 1.282 . S
O54 Cd46 2.277 . S
O54 C47 1.226 . S
O55 Cd46 2.356 . S
O55 C53 1.282 . S
C56 O57 1.306 . S
C56 O59 1.160 . S
O57 C56 1.306 . S
O57 Cd58 2.228 . S
Cd58 O57 2.228 . S
Cd58 O62 2.273 . S
Cd58 O66 2.277 . S
O59 C56 1.160 . S
O59 Cd60 2.203 . S
Cd60 O59 2.203 . S
Cd60 O62 2.411 . S
Cd60 O63 2.333 . S
Cd60 O64 2.352 . S
Cd60 O68 2.277 . S
Cd60 O69 2.356 . S
C61 O66 1.209 . S
C61 O68 1.226 . S
O62 Cd58 2.273 . S
O62 Cd60 2.411 . S
O62 C65 1.320 . S
O63 Cd60 2.333 . S
O63 C65 1.214 . S
O64 Cd60 2.352 . S
O64 C67 1.258 . S
C65 O62 1.320 . S
C65 O63 1.214 . S
O66 Cd58 2.277 . S
O66 C61 1.209 . S
C67 O64 1.258 . S
C67 O69 1.282 . S
O68 Cd60 2.277 . S
O68 C61 1.226 . S
O69 Cd60 2.356 . S
O69 C67 1.282 . S
C70 O71 1.306 . S
C70 O73 1.160 . S
O71 C70 1.306 . S
O71 Cd72 2.228 . S
Cd72 O71 2.228 . S
Cd72 O76 2.273 . S
Cd72 O80 2.277 . S
O73 C70 1.160 . S
O73 Cd74 2.203 . S
Cd74 O73 2.203 . S
Cd74 O76 2.411 . S
Cd74 O77 2.333 . S
Cd74 O78 2.352 . S
Cd74 O82 2.277 . S
Cd74 O83 2.356 . S
C75 O80 1.209 . S
C75 O82 1.226 . S
O76 Cd72 2.273 . S
O76 Cd74 2.411 . S
O76 C79 1.320 . S
O77 Cd74 2.333 . S
O77 C79 1.214 . S
O78 Cd74 2.352 . S
O78 C81 1.258 . S
C79 O76 1.320 . S
C79 O77 1.214 . S
O80 Cd72 2.277 . S
O80 C75 1.209 . S
C81 O78 1.258 . S
C81 O83 1.282 . S
O82 Cd74 2.277 . S
O82 C75 1.226 . S
O83 Cd74 2.356 . S
O83 C81 1.282 . S
C84 O85 1.306 . S
C84 O87 1.160 . S
O85 C84 1.306 . S
O85 Cd86 2.228 . S
Cd86 O85 2.228 . S
Cd86 O90 2.273 . S
Cd86 O94 2.277 . S
O87 C84 1.160 . S
O87 Cd88 2.203 . S
Cd88 O87 2.203 . S
Cd88 O90 2.411 . S
Cd88 O91 2.333 . S
Cd88 O92 2.352 . S
Cd88 O96 2.277 . S
Cd88 O97 2.356 . S
C89 O94 1.209 . S
C89 O96 1.226 . S
O90 Cd86 2.273 . S
O90 Cd88 2.411 . S
O90 C93 1.320 . S
O91 Cd88 2.333 . S
O91 C93 1.214 . S
O92 Cd88 2.352 . S
O92 C95 1.258 . S
C93 O90 1.320 . S
C93 O91 1.214 . S
O94 Cd86 2.277 . S
O94 C89 1.209 . S
C95 O92 1.258 . S
C95 O97 1.282 . S
O96 Cd88 2.277 . S
O96 C89 1.226 . S
O97 Cd88 2.356 . S
O97 C95 1.282 . S
C98 O99 1.306 . S
C98 O101 1.160 . S
O99 C98 1.306 . S
O99 Cd100 2.228 . S
Cd100 O99 2.228 . S
Cd100 O104 2.273 . S
Cd100 O108 2.277 . S
O101 C98 1.160 . S
O101 Cd102 2.203 . S
Cd102 O101 2.203 . S
Cd102 O104 2.411 . S
Cd102 O105 2.333 . S
Cd102 O106 2.352 . S
Cd102 O110 2.277 . S
Cd102 O111 2.356 . S
C103 O108 1.209 . S
C103 O110 1.226 . S
O104 Cd100 2.273 . S
O104 Cd102 2.411 . S
O104 C107 1.320 . S
O105 Cd102 2.333 . S
O105 C107 1.214 . S
O106 Cd102 2.352 . S
O106 C109 1.258 . S
C107 O104 1.320 . S
C107 O105 1.214 . S
O108 Cd100 2.277 . S
O108 C103 1.209 . S
C109 O106 1.258 . S
C109 O111 1.282 . S
O110 Cd102 2.277 . S
O110 C103 1.226 . S
O111 Cd102 2.356 . S
O111 C109 1.282 . S
C112 O113 1.306 . S
C112 O115 1.160 . S
O113 C112 1.306 . S
O113 Cd114 2.228 . S
Cd114 O113 2.228 . S
Cd114 O118 2.273 . S
Cd114 O122 2.277 . S
O115 C112 1.160 . S
O115 Cd116 2.203 . S
Cd116 O115 2.203 . S
Cd116 O118 2.411 . S
Cd116 O119 2.333 . S
Cd116 O120 2.352 . S
Cd116 O124 2.277 . S
Cd116 O125 2.356 . S
C117 O122 1.209 . S
C117 O124 1.226 . S
O118 Cd114 2.273 . S
O118 Cd116 2.411 . S
O118 C121 1.320 . S
O119 Cd116 2.333 . S
O119 C121 1.214 . S
O120 Cd116 2.352 . S
O120 C123 1.258 . S
C121 O118 1.320 . S
C121 O119 1.214 . S
O122 Cd114 2.277 . S
O122 C117 1.209 . S
C123 O120 1.258 . S
C123 O125 1.282 . S
O124 Cd116 2.277 . S
O124 C117 1.226 . S
O125 Cd116 2.356 . S
O125 C123 1.282 . S
C126 C127 1.391 . S
C126 C128 1.394 . S
C126 H142 0.931 . S
C127 C126 1.391 . S
C127 C131 1.376 . S
C128 C126 1.394 . S
C128 C129 1.369 . S
C128 C132 1.531 . S
C129 C128 1.369 . S
C129 C130 1.410 . S
C129 C137 1.503 . S
C130 C129 1.410 . S
C130 C131 1.392 . S
C130 C133 1.511 1_554 S
C131 C127 1.376 . S
C131 C130 1.392 . S
C131 H143 0.929 1_554 S
C132 C128 1.531 . S
C132 H144 0.960 . S
C132 H145 0.962 . S
C132 H146 0.960 . S
C133 C130 1.511 1_556 S
C133 H147 0.961 . S
C133 H148 0.961 1_556 S
C133 H149 0.961 . S
C134 C135 1.370 . S
C134 C136 1.363 . S
C134 H150 0.931 . S
C135 C134 1.370 . S
C135 C139 1.408 1_554 S
C136 C134 1.363 . S
C136 C137 1.370 . S
C136 C140 1.524 . S
C137 C129 1.503 . S
C137 C136 1.370 . S
C137 C138 1.403 1_554 S
C138 C137 1.403 1_556 S
C138 C139 1.404 . S
C138 C141 1.539 . S
C139 C135 1.408 1_556 S
C139 C138 1.404 . S
C139 H151 0.930 . S
C140 C136 1.524 . S
C140 H152 0.956 . S
C140 H153 0.961 . S
C140 H154 0.961 . S
C141 C138 1.539 . S
C141 H155 0.958 . S
C141 H156 0.961 . S
C141 H157 0.960 . S
H142 C126 0.931 . S
H143 C131 0.929 1_556 S
H144 C132 0.960 . S
H145 C132 0.962 . S
H146 C132 0.960 . S
H147 C133 0.961 . S
H148 C133 0.961 1_554 S
H149 C133 0.961 . S
H150 C134 0.931 . S
H151 C139 0.930 . S
H152 C140 0.956 . S
H153 C140 0.961 . S
H154 C140 0.961 . S
H155 C141 0.958 . S
H156 C141 0.961 . S
H157 C141 0.960 . S
C158 C159 1.391 1_556 S
C158 C160 1.394 . S
C158 H174 0.931 . S
C159 C158 1.391 1_554 S
C159 C163 1.376 . S
C160 C158 1.394 . S
C160 C161 1.369 1_556 S
C160 C164 1.531 . S
C161 C160 1.369 1_554 S
C161 C162 1.410 . S
C161 C169 1.503 1_565 S
C162 C161 1.410 . S
C162 C163 1.392 . S
C162 C165 1.511 . S
C163 C159 1.376 . S
C163 C162 1.392 . S
C163 H175 0.929 . S
C164 C160 1.531 . S
C164 H176 0.960 1_565 S
C164 H177 0.963 . S
C164 H178 0.960 . S
C165 C162 1.511 . S
C165 H179 0.961 . S
C165 H180 0.961 1_565 S
C165 H181 0.958 1_565 S
C166 C167 1.370 . S
C166 C168 1.363 . S
C166 H182 0.931 . S
C167 C166 1.370 . S
C167 C171 1.408 1_554 S
C168 C166 1.363 . S
C168 C169 1.370 . S
C168 C172 1.524 . S
C169 C161 1.503 1_545 S
C169 C168 1.370 . S
C169 C170 1.403 1_554 S
C170 C169 1.403 1_556 S
C170 C171 1.404 . S
C170 C173 1.539 . S
C171 C167 1.408 1_556 S
C171 C170 1.404 . S
C171 H183 0.930 . S
C172 C168 1.524 . S
C172 H184 0.956 . S
C172 H185 0.961 . S
C172 H186 0.961 . S
C173 C170 1.539 . S
C173 H187 0.958 . S
C173 H188 0.961 . S
C173 H189 0.960 . S
H174 C158 0.931 . S
H175 C163 0.929 . S
H176 C164 0.960 1_545 S
H177 C164 0.963 . S
H178 C164 0.960 . S
H179 C165 0.961 . S
H180 C165 0.961 1_545 S
H181 C165 0.958 1_545 S
H182 C166 0.931 . S
H183 C171 0.930 . S
H184 C172 0.956 . S
H185 C172 0.961 . S
H186 C172 0.961 . S
H187 C173 0.958 . S
H188 C173 0.961 . S
H189 C173 0.960 . S
C190 C191 1.391 . S
C190 C192 1.394 . S
C190 H206 0.931 . S
C191 C190 1.391 . S
C191 C195 1.376 . S
C192 C190 1.394 . S
C192 C193 1.369 . S
C192 C196 1.531 . S
C193 C192 1.369 . S
C193 C194 1.410 . S
C193 C201 1.503 1_655 S
C194 C193 1.410 . S
C194 C195 1.392 . S
C194 C197 1.511 1_554 S
C195 C191 1.376 . S
C195 C194 1.392 . S
C195 H207 0.929 1_554 S
C196 C192 1.531 . S
C196 H208 0.960 1_655 S
C196 H209 0.962 1_655 S
C196 H210 0.960 . S
C197 C194 1.511 1_556 S
C197 H211 0.961 . S
C197 H212 0.961 1_655 S
C197 H213 0.951 1_656 S
C198 C199 1.370 1_556 S
C198 C200 1.363 . S
C198 H214 0.931 . S
C199 C198 1.370 1_554 S
C199 C203 1.408 . S
C200 C198 1.363 . S
C200 C201 1.370 1_556 S
C200 C204 1.524 . S
C201 C193 1.503 1_455 S
C201 C200 1.370 1_554 S
C201 C202 1.403 . S
C202 C201 1.403 . S
C202 C203 1.404 . S
C202 C205 1.539 . S
C203 C199 1.408 . S
C203 C202 1.404 . S
C203 H215 0.930 . S
C204 C200 1.524 . S
C204 H216 0.956 . S
C204 H217 0.961 . S
C204 H218 0.961 . S
C205 C202 1.539 . S
C205 H219 0.958 . S
C205 H220 0.961 . S
C205 H221 0.960 . S
H206 C190 0.931 . S
H207 C195 0.929 1_556 S
H208 C196 0.960 1_455 S
H209 C196 0.962 1_455 S
H210 C196 0.960 . S
H211 C197 0.961 . S
H212 C197 0.961 1_455 S
H213 C197 0.951 1_454 S
H214 C198 0.931 . S
H215 C203 0.930 . S
H216 C204 0.956 . S
H217 C204 0.961 . S
H218 C204 0.961 . S
H219 C205 0.958 . S
H220 C205 0.961 . S
H221 C205 0.960 . S
C222 C223 1.391 . S
C222 C224 1.394 . S
C222 H238 0.931 . S
C223 C222 1.391 . S
C223 C227 1.376 . S
C224 C222 1.394 . S
C224 C225 1.369 . S
C224 C228 1.531 . S
C225 C224 1.369 . S
C225 C226 1.410 . S
C225 C233 1.503 . S
C226 C225 1.410 . S
C226 C227 1.392 . S
C226 C229 1.511 . S
C227 C223 1.376 . S
C227 C226 1.392 . S
C227 H239 0.929 . S
C228 C224 1.531 . S
C228 H240 0.960 . S
C228 H241 0.962 . S
C228 H242 0.960 . S
C229 C226 1.511 . S
C229 H243 0.961 . S
C229 H244 0.961 . S
C229 H245 0.961 . S
C230 C231 1.370 . S
C230 C232 1.363 . S
C230 H246 0.931 . S
C231 C230 1.370 . S
C231 C235 1.408 . S
C232 C230 1.363 . S
C232 C233 1.370 . S
C232 C236 1.524 . S
C233 C225 1.503 . S
C233 C232 1.370 . S
C233 C234 1.403 . S
C234 C233 1.403 . S
C234 C235 1.404 . S
C234 C237 1.539 . S
C235 C231 1.408 . S
C235 C234 1.404 . S
C235 H247 0.930 . S
C236 C232 1.524 . S
C236 H248 0.956 . S
C236 H249 0.961 . S
C236 H250 0.961 . S
C237 C234 1.539 . S
C237 H251 0.958 . S
C237 H252 0.961 . S
C237 H253 0.960 . S
H238 C222 0.931 . S
H239 C227 0.929 . S
H240 C228 0.960 . S
H241 C228 0.962 . S
H242 C228 0.960 . S
H243 C229 0.961 . S
H244 C229 0.961 . S
H245 C229 0.961 . S
H246 C230 0.931 . S
H247 C235 0.930 . S
H248 C236 0.956 . S
H249 C236 0.961 . S
H250 C236 0.961 . S
H251 C237 0.958 . S
H252 C237 0.961 . S
H253 C237 0.960 . S
C254 C255 1.391 . S
C254 C256 1.394 . S
C254 H270 0.931 . S
C255 C254 1.391 . S
C255 C259 1.376 . S
C256 C254 1.394 . S
C256 C257 1.369 . S
C256 C260 1.531 . S
C257 C256 1.369 . S
C257 C258 1.410 . S
C257 C265 1.503 . S
C258 C257 1.410 . S
C258 C259 1.392 . S
C258 C261 1.511 . S
C259 C255 1.376 . S
C259 C258 1.392 . S
C259 H271 0.929 . S
C260 C256 1.531 . S
C260 H272 0.960 . S
C260 H273 0.962 . S
C260 H274 0.960 . S
C261 C258 1.511 . S
C261 H275 0.961 . S
C261 H276 0.961 . S
C261 H277 0.961 . S
C262 C263 1.370 . S
C262 C264 1.363 . S
C262 H278 0.931 . S
C263 C262 1.370 . S
C263 C267 1.408 . S
C264 C262 1.363 . S
C264 C265 1.370 . S
C264 C268 1.524 . S
C265 C257 1.503 . S
C265 C264 1.370 . S
C265 C266 1.403 . S
C266 C265 1.403 . S
C266 C267 1.404 . S
C266 C269 1.539 . S
C267 C263 1.408 . S
C267 C266 1.404 . S
C267 H279 0.930 . S
C268 C264 1.524 . S
C268 H280 0.956 . S
C268 H281 0.961 . S
C268 H282 0.961 . S
C269 C266 1.539 . S
C269 H283 0.958 . S
C269 H284 0.961 . S
C269 H285 0.960 . S
H270 C254 0.931 . S
H271 C259 0.929 . S
H272 C260 0.960 . S
H273 C260 0.962 . S
H274 C260 0.960 . S
H275 C261 0.961 . S
H276 C261 0.961 . S
H277 C261 0.961 . S
H278 C262 0.931 . S
H279 C267 0.930 . S
H280 C268 0.956 . S
H281 C268 0.961 . S
H282 C268 0.961 . S
H283 C269 0.958 . S
H284 C269 0.961 . S
H285 C269 0.960 . S
C286 C287 1.391 . S
C286 C288 1.394 . S
C286 H302 0.931 . S
C287 C286 1.391 . S
C287 C291 1.376 . S
C288 C286 1.394 . S
C288 C289 1.369 . S
C288 C292 1.531 . S
C289 C288 1.369 . S
C289 C290 1.410 . S
C289 C297 1.503 . S
C290 C289 1.410 . S
C290 C291 1.392 . S
C290 C293 1.511 . S
C291 C287 1.376 . S
C291 C290 1.392 . S
C291 H303 0.929 . S
C292 C288 1.531 . S
C292 H304 0.960 . S
C292 H305 0.962 . S
C292 H306 0.960 . S
C293 C290 1.511 . S
C293 H307 0.961 . S
C293 H308 0.961 . S
C293 H309 0.961 . S
C294 C295 1.370 . S
C294 C296 1.363 . S
C294 H310 0.931 . S
C295 C294 1.370 . S
C295 C299 1.408 . S
C296 C294 1.363 . S
C296 C297 1.370 . S
C296 C300 1.524 . S
C297 C289 1.503 . S
C297 C296 1.370 . S
C297 C298 1.403 . S
C298 C297 1.403 . S
C298 C299 1.404 . S
C298 C301 1.539 . S
C299 C295 1.408 . S
C299 C298 1.404 . S
C299 H311 0.930 . S
C300 C296 1.524 . S
C300 H312 0.956 . S
C300 H313 0.961 . S
C300 H314 0.961 . S
C301 C298 1.539 . S
C301 H315 0.958 . S
C301 H316 0.961 . S
C301 H317 0.960 . S
H302 C286 0.931 . S
H303 C291 0.929 . S
H304 C292 0.960 . S
H305 C292 0.962 . S
H306 C292 0.960 . S
H307 C293 0.961 . S
H308 C293 0.961 . S
H309 C293 0.961 . S
H310 C294 0.931 . S
H311 C299 0.930 . S
H312 C300 0.956 . S
H313 C300 0.961 . S
H314 C300 0.961 . S
H315 C301 0.958 . S
H316 C301 0.961 . S
H317 C301 0.960 . S
C318 C319 1.391 . S
C318 C320 1.394 . S
C318 H334 0.931 . S
C319 C318 1.391 . S
C319 C323 1.376 . S
C320 C318 1.394 . S
C320 C321 1.369 . S
C320 C324 1.531 . S
C321 C320 1.369 . S
C321 C322 1.410 . S
C321 C329 1.503 . S
C322 C321 1.410 . S
C322 C323 1.392 . S
C322 C325 1.511 . S
C323 C319 1.376 . S
C323 C322 1.392 . S
C323 H335 0.929 . S
C324 C320 1.531 . S
C324 H336 0.960 . S
C324 H337 0.962 . S
C324 H338 0.960 . S
C325 C322 1.511 . S
C325 H339 0.961 . S
C325 H340 0.961 . S
C325 H341 0.961 . S
C326 C327 1.370 . S
C326 C328 1.363 . S
C326 H342 0.931 . S
C327 C326 1.370 . S
C327 C331 1.408 . S
C328 C326 1.363 . S
C328 C329 1.370 . S
C328 C332 1.524 . S
C329 C321 1.503 . S
C329 C328 1.370 . S
C329 C330 1.403 . S
C330 C329 1.403 . S
C330 C331 1.404 . S
C330 C333 1.539 . S
C331 C327 1.408 . S
C331 C330 1.404 . S
C331 H343 0.930 . S
C332 C328 1.524 . S
C332 H344 0.956 . S
C332 H345 0.961 . S
C332 H346 0.961 . S
C333 C330 1.539 . S
C333 H347 0.958 . S
C333 H348 0.961 . S
C333 H349 0.960 . S
H334 C318 0.931 . S
H335 C323 0.929 . S
H336 C324 0.960 . S
H337 C324 0.962 . S
H338 C324 0.960 . S
H339 C325 0.961 . S
H340 C325 0.961 . S
H341 C325 0.961 . S
H342 C326 0.931 . S
H343 C331 0.930 . S
H344 C332 0.956 . S
H345 C332 0.961 . S
H346 C332 0.961 . S
H347 C333 0.958 . S
H348 C333 0.961 . S
H349 C333 0.960 . S
C350 C351 1.391 . S
C350 C352 1.394 . S
C350 H366 0.931 . S
C351 C350 1.391 . S
C351 C355 1.376 . S
C352 C350 1.394 . S
C352 C353 1.369 . S
C352 C356 1.531 . S
C353 C352 1.369 . S
C353 C354 1.410 . S
C353 C361 1.503 . S
C354 C353 1.410 . S
C354 C355 1.392 . S
C354 C357 1.511 . S
C355 C351 1.376 . S
C355 C354 1.392 . S
C355 H367 0.929 . S
C356 C352 1.531 . S
C356 H368 0.960 . S
C356 H369 0.962 . S
C356 H370 0.960 . S
C357 C354 1.511 . S
C357 H371 0.961 . S
C357 H372 0.961 . S
C357 H373 0.961 . S
C358 C359 1.370 . S
C358 C360 1.363 . S
C358 H374 0.931 . S
C359 C358 1.370 . S
C359 C363 1.408 . S
C360 C358 1.363 . S
C360 C361 1.370 . S
C360 C364 1.524 . S
C361 C353 1.503 . S
C361 C360 1.370 . S
C361 C362 1.403 . S
C362 C361 1.403 . S
C362 C363 1.404 . S
C362 C365 1.539 . S
C363 C359 1.408 . S
C363 C362 1.404 . S
C363 H375 0.930 . S
C364 C360 1.524 . S
C364 H376 0.956 . S
C364 H377 0.961 . S
C364 H378 0.961 . S
C365 C362 1.539 . S
C365 H379 0.958 . S
C365 H380 0.961 . S
C365 H381 0.960 . S
H366 C350 0.931 . S
H367 C355 0.929 . S
H368 C356 0.960 . S
H369 C356 0.962 . S
H370 C356 0.960 . S
H371 C357 0.961 . S
H372 C357 0.961 . S
H373 C357 0.961 . S
H374 C358 0.931 . S
H375 C363 0.930 . S
H376 C364 0.956 . S
H377 C364 0.961 . S
H378 C364 0.961 . S
H379 C365 0.958 . S
H380 C365 0.961 . S
H381 C365 0.960 . S
C382 C383 1.391 . S
C382 C384 1.394 . S
C382 H398 0.931 . S
C383 C382 1.391 . S
C383 C387 1.376 . S
C384 C382 1.394 . S
C384 C385 1.369 . S
C384 C388 1.531 . S
C385 C384 1.369 . S
C385 C386 1.410 . S
C385 C393 1.503 . S
C386 C385 1.410 . S
C386 C387 1.392 . S
C386 C389 1.511 . S
C387 C383 1.376 . S
C387 C386 1.392 . S
C387 H399 0.929 . S
C388 C384 1.531 . S
C388 H400 0.960 . S
C388 H401 0.962 . S
C388 H402 0.960 . S
C389 C386 1.511 . S
C389 H403 0.961 . S
C389 H404 0.961 . S
C389 H405 0.961 . S
C390 C391 1.370 . S
C390 C392 1.363 . S
C390 H406 0.931 . S
C391 C390 1.370 . S
C391 C395 1.408 . S
C392 C390 1.363 . S
C392 C393 1.370 . S
C392 C396 1.524 . S
C393 C385 1.503 . S
C393 C392 1.370 . S
C393 C394 1.403 . S
C394 C393 1.403 . S
C394 C395 1.404 . S
C394 C397 1.539 . S
C395 C391 1.408 . S
C395 C394 1.404 . S
C395 H407 0.930 . S
C396 C392 1.524 . S
C396 H408 0.956 . S
C396 H409 0.961 . S
C396 H410 0.961 . S
C397 C394 1.539 . S
C397 H411 0.958 . S
C397 H412 0.961 . S
C397 H413 0.960 . S
H398 C382 0.931 . S
H399 C387 0.929 . S
H400 C388 0.960 . S
H401 C388 0.962 . S
H402 C388 0.960 . S
H403 C389 0.961 . S
H404 C389 0.961 . S
H405 C389 0.961 . S
H406 C390 0.931 . S
H407 C395 0.930 . S
H408 C396 0.956 . S
H409 C396 0.961 . S
H410 C396 0.961 . S
H411 C397 0.958 . S
H412 C397 0.961 . S
H413 C397 0.960 . S
C414 C415 1.391 . S
C414 C416 1.394 . S
C414 H430 0.931 . S
C415 C414 1.391 . S
C415 C419 1.376 . S
C416 C414 1.394 . S
C416 C417 1.369 . S
C416 C420 1.531 . S
C417 C416 1.369 . S
C417 C418 1.410 . S
C417 C425 1.503 . S
C418 C417 1.410 . S
C418 C419 1.392 . S
C418 C421 1.511 . S
C419 C415 1.376 . S
C419 C418 1.392 . S
C419 H431 0.929 . S
C420 C416 1.531 . S
C420 H432 0.960 . S
C420 H433 0.962 . S
C420 H434 0.960 . S
C421 C418 1.511 . S
C421 H435 0.961 . S
C421 H436 0.961 . S
C421 H437 0.961 . S
C422 C423 1.370 . S
C422 C424 1.363 . S
C422 H438 0.931 . S
C423 C422 1.370 . S
C423 C427 1.408 . S
C424 C422 1.363 . S
C424 C425 1.370 . S
C424 C428 1.524 . S
C425 C417 1.503 . S
C425 C424 1.370 . S
C425 C426 1.403 . S
C426 C425 1.403 . S
C426 C427 1.404 . S
C426 C429 1.539 . S
C427 C423 1.408 . S
C427 C426 1.404 . S
C427 H439 0.930 . S
C428 C424 1.524 . S
C428 H440 0.956 . S
C428 H441 0.961 . S
C428 H442 0.961 . S
C429 C426 1.539 . S
C429 H443 0.958 . S
C429 H444 0.961 . S
C429 H445 0.960 . S
H430 C414 0.931 . S
H431 C419 0.929 . S
H432 C420 0.960 . S
H433 C420 0.962 . S
H434 C420 0.960 . S
H435 C421 0.961 . S
H436 C421 0.961 . S
H437 C421 0.961 . S
H438 C422 0.931 . S
H439 C427 0.930 . S
H440 C428 0.956 . S
H441 C428 0.961 . S
H442 C428 0.961 . S
H443 C429 0.958 . S
H444 C429 0.961 . S
H445 C429 0.960 . S
C446 C447 1.391 . S
C446 C448 1.394 . S
C446 H462 0.931 . S
C447 C446 1.391 . S
C447 C451 1.376 . S
C448 C446 1.394 . S
C448 C449 1.369 . S
C448 C452 1.531 . S
C449 C448 1.369 . S
C449 C450 1.410 . S
C449 C457 1.503 . S
C450 C449 1.410 . S
C450 C451 1.392 . S
C450 C453 1.511 . S
C451 C447 1.376 . S
C451 C450 1.392 . S
C451 H463 0.929 . S
C452 C448 1.531 . S
C452 H464 0.960 . S
C452 H465 0.962 . S
C452 H466 0.960 . S
C453 C450 1.511 . S
C453 H467 0.961 . S
C453 H468 0.961 . S
C453 H469 0.961 . S
C454 C455 1.370 . S
C454 C456 1.363 . S
C454 H470 0.931 . S
C455 C454 1.370 . S
C455 C459 1.408 . S
C456 C454 1.363 . S
C456 C457 1.370 . S
C456 C460 1.524 . S
C457 C449 1.503 . S
C457 C456 1.370 . S
C457 C458 1.403 . S
C458 C457 1.403 . S
C458 C459 1.404 . S
C458 C461 1.539 . S
C459 C455 1.408 . S
C459 C458 1.404 . S
C459 H471 0.930 . S
C460 C456 1.524 . S
C460 H472 0.956 . S
C460 H473 0.961 . S
C460 H474 0.961 . S
C461 C458 1.539 . S
C461 H475 0.958 . S
C461 H476 0.961 . S
C461 H477 0.960 . S
H462 C446 0.931 . S
H463 C451 0.929 . S
H464 C452 0.960 . S
H465 C452 0.962 . S
H466 C452 0.960 . S
H467 C453 0.961 . S
H468 C453 0.961 . S
H469 C453 0.961 . S
H470 C454 0.931 . S
H471 C459 0.930 . S
H472 C460 0.956 . S
H473 C460 0.961 . S
H474 C460 0.961 . S
H475 C461 0.958 . S
H476 C461 0.961 . S
H477 C461 0.960 . S
C478 C479 1.391 . S
C478 C480 1.394 . S
C478 H494 0.931 . S
C479 C478 1.391 . S
C479 C483 1.376 . S
C480 C478 1.394 . S
C480 C481 1.369 . S
C480 C484 1.531 . S
C481 C480 1.369 . S
C481 C482 1.410 . S
C481 C489 1.503 . S
C482 C481 1.410 . S
C482 C483 1.392 . S
C482 C485 1.511 . S
C483 C479 1.376 . S
C483 C482 1.392 . S
C483 H495 0.929 . S
C484 C480 1.531 . S
C484 H496 0.967 . S
C484 H497 0.962 . S
C484 H498 0.960 . S
C485 C482 1.511 . S
C485 H499 0.961 . S
C485 H500 0.961 . S
C485 H501 0.961 . S
C486 C487 1.370 . S
C486 C488 1.363 . S
C486 H502 0.931 . S
C487 C486 1.370 . S
C487 C491 1.408 . S
C488 C486 1.363 . S
C488 C489 1.370 . S
C488 C492 1.524 . S
C489 C481 1.503 . S
C489 C488 1.370 . S
C489 C490 1.403 . S
C490 C489 1.403 . S
C490 C491 1.404 . S
C490 C493 1.539 1_565 S
C491 C487 1.408 . S
C491 C490 1.404 . S
C491 H503 0.930 1_565 S
C492 C488 1.524 . S
C492 H504 0.956 . S
C492 H505 0.961 . S
C492 H506 0.961 . S
C493 C490 1.539 1_545 S
C493 H507 0.958 . S
C493 H508 0.961 . S
C493 H509 0.960 1_545 S
H494 C478 0.931 . S
H495 C483 0.929 . S
H496 C484 0.967 . S
H497 C484 0.962 . S
H498 C484 0.960 . S
H499 C485 0.961 . S
H500 C485 0.961 . S
H501 C485 0.961 . S
H502 C486 0.931 . S
H503 C491 0.930 1_545 S
H504 C492 0.956 . S
H505 C492 0.961 . S
H506 C492 0.961 . S
H507 C493 0.958 . S
H508 C493 0.961 . S
H509 C493 0.960 1_565 S
C510 C511 1.391 . S
C510 C512 1.394 . S
C510 H526 0.931 . S
C511 C510 1.391 . S
C511 C515 1.376 . S
C512 C510 1.394 . S
C512 C513 1.369 . S
C512 C516 1.531 . S
C513 C512 1.369 . S
C513 C514 1.410 . S
C513 C521 1.503 . S
C514 C513 1.410 . S
C514 C515 1.392 . S
C514 C517 1.511 . S
C515 C511 1.376 . S
C515 C514 1.392 . S
C515 H527 0.929 . S
C516 C512 1.531 . S
C516 H528 0.960 . S
C516 H529 0.962 . S
C516 H530 0.960 . S
C517 C514 1.511 . S
C517 H531 0.961 . S
C517 H532 0.961 . S
C517 H533 0.961 . S
C518 C519 1.370 . S
C518 C520 1.363 . S
C518 H534 0.931 . S
C519 C518 1.370 . S
C519 C523 1.408 . S
C520 C518 1.363 . S
C520 C521 1.370 . S
C520 C524 1.524 . S
C521 C513 1.503 . S
C521 C520 1.370 . S
C521 C522 1.403 . S
C522 C521 1.403 . S
C522 C523 1.404 . S
C522 C525 1.539 . S
C523 C519 1.408 . S
C523 C522 1.404 . S
C523 H535 0.930 . S
C524 C520 1.524 . S
C524 H536 0.956 . S
C524 H537 0.961 . S
C524 H538 0.961 . S
C525 C522 1.539 . S
C525 H539 0.958 . S
C525 H540 0.961 . S
C525 H541 0.960 . S
H526 C510 0.931 . S
H527 C515 0.929 . S
H528 C516 0.960 . S
H529 C516 0.962 . S
H530 C516 0.960 . S
H531 C517 0.961 . S
H532 C517 0.961 . S
H533 C517 0.961 . S
H534 C518 0.931 . S
H535 C523 0.930 . S
H536 C524 0.956 . S
H537 C524 0.961 . S
H538 C524 0.961 . S
H539 C525 0.958 . S
H540 C525 0.961 . S
H541 C525 0.960 . S
C542 C543 1.391 . S
C542 C544 1.394 . S
C542 H558 0.931 1_655 S
C543 C542 1.391 . S
C543 C547 1.376 . S
C544 C542 1.394 . S
C544 C545 1.369 . S
C544 C548 1.541 . S
C545 C544 1.369 . S
C545 C546 1.410 . S
C545 C553 1.503 . S
C546 C545 1.410 . S
C546 C547 1.392 . S
C546 C549 1.511 . S
C547 C543 1.376 . S
C547 C546 1.392 . S
C547 H559 0.929 . S
C548 C544 1.541 . S
C548 H560 0.975 . S
C548 H561 0.971 . S
C548 H562 0.927 1_655 S
C549 C546 1.511 . S
C549 H563 0.961 . S
C549 H564 0.961 . S
C549 H565 0.961 . S
C550 C551 1.370 . S
C550 C552 1.363 . S
C550 H566 0.931 . S
C551 C550 1.370 . S
C551 C555 1.408 . S
C552 C550 1.363 . S
C552 C553 1.370 . S
C552 C556 1.524 . S
C553 C545 1.503 . S
C553 C552 1.370 . S
C553 C554 1.403 . S
C554 C553 1.403 . S
C554 C555 1.404 . S
C554 C557 1.539 . S
C555 C551 1.408 . S
C555 C554 1.404 . S
C555 H567 0.930 . S
C556 C552 1.524 . S
C556 H568 0.956 . S
C556 H569 0.961 . S
C556 H570 0.961 . S
C557 C554 1.539 . S
C557 H571 0.958 1_655 S
C557 H572 0.961 . S
C557 H573 0.960 . S
H558 C542 0.931 1_455 S
H559 C547 0.929 . S
H560 C548 0.975 . S
H561 C548 0.971 . S
H562 C548 0.927 1_455 S
H563 C549 0.961 . S
H564 C549 0.961 . S
H565 C549 0.961 . S
H566 C550 0.931 . S
H567 C555 0.930 . S
H568 C556 0.956 . S
H569 C556 0.961 . S
H570 C556 0.961 . S
H571 C557 0.958 1_455 S
H572 C557 0.961 . S
H573 C557 0.960 . S
C574 C575 1.391 . S
C574 C576 1.394 . S
C574 H590 0.931 . S
C575 C574 1.391 . S
C575 C579 1.376 . S
C576 C574 1.394 . S
C576 C577 1.369 . S
C576 C580 1.531 . S
C577 C576 1.369 . S
C577 C578 1.410 . S
C577 C585 1.503 . S
C578 C577 1.410 . S
C578 C579 1.392 . S
C578 C581 1.511 . S
C579 C575 1.376 . S
C579 C578 1.392 . S
C579 H591 0.929 . S
C580 C576 1.531 . S
C580 H592 0.960 . S
C580 H593 0.962 . S
C580 H594 0.960 . S
C581 C578 1.511 . S
C581 H595 0.961 . S
C581 H596 0.961 . S
C581 H597 0.961 . S
C582 C583 1.370 . S
C582 C584 1.363 . S
C582 H598 0.931 . S
C583 C582 1.370 . S
C583 C587 1.408 . S
C584 C582 1.363 . S
C584 C585 1.370 . S
C584 C588 1.524 . S
C585 C577 1.503 . S
C585 C584 1.370 . S
C585 C586 1.403 . S
C586 C585 1.403 . S
C586 C587 1.404 . S
C586 C589 1.539 . S
C587 C583 1.408 . S
C587 C586 1.404 . S
C587 H599 0.930 . S
C588 C584 1.524 . S
C588 H600 0.956 . S
C588 H601 0.961 . S
C588 H602 0.961 . S
C589 C586 1.539 . S
C589 H603 0.958 . S
C589 H604 0.961 . S
C589 H605 0.960 . S
H590 C574 0.931 . S
H591 C579 0.929 . S
H592 C580 0.960 . S
H593 C580 0.962 . S
H594 C580 0.960 . S
H595 C581 0.961 . S
H596 C581 0.961 . S
H597 C581 0.961 . S
H598 C582 0.931 . S
H599 C587 0.930 . S
H600 C588 0.956 . S
H601 C588 0.961 . S
H602 C588 0.961 . S
H603 C589 0.958 . S
H604 C589 0.961 . S
H605 C589 0.960 . S
C606 C607 1.391 . S
C606 C608 1.394 . S
C606 H622 0.931 . S
C607 C606 1.391 . S
C607 C611 1.376 . S
C608 C606 1.394 . S
C608 C609 1.369 . S
C608 C612 1.531 1_455 S
C609 C608 1.369 . S
C609 C610 1.410 . S
C609 C617 1.503 . S
C610 C609 1.410 . S
C610 C611 1.392 . S
C610 C613 1.511 . S
C611 C607 1.376 . S
C611 C610 1.392 . S
C611 H623 0.929 . S
C612 C608 1.531 1_655 S
C612 H624 0.960 . S
C612 H625 0.944 1_655 S
C612 H626 0.960 . S
C613 C610 1.511 . S
C613 H627 0.961 . S
C613 H628 0.961 . S
C613 H629 0.961 . S
C614 C615 1.370 . S
C614 C616 1.363 1_655 S
C614 H630 0.931 . S
C615 C614 1.370 . S
C615 C619 1.408 . S
C616 C614 1.363 1_455 S
C616 C617 1.370 . S
C616 C620 1.524 . S
C617 C609 1.503 . S
C617 C616 1.370 . S
C617 C618 1.403 1_455 S
C618 C617 1.403 1_655 S
C618 C619 1.404 . S
C618 C621 1.539 . S
C619 C615 1.408 . S
C619 C618 1.404 . S
C619 H631 0.930 . S
C620 C616 1.524 . S
C620 H632 0.956 . S
C620 H633 0.961 . S
C620 H634 0.961 . S
C621 C618 1.539 . S
C621 H635 0.958 . S
C621 H636 0.961 . S
C621 H637 0.960 . S
H622 C606 0.931 . S
H623 C611 0.929 . S
H624 C612 0.960 . S
H625 C612 0.944 1_455 S
H626 C612 0.960 . S
H627 C613 0.961 . S
H628 C613 0.961 . S
H629 C613 0.961 . S
H630 C614 0.931 . S
H631 C619 0.930 . S
H632 C620 0.956 . S
H633 C620 0.961 . S
H634 C620 0.961 . S
H635 C621 0.958 . S
H636 C621 0.961 . S
H637 C621 0.960 . S
C638 C639 1.391 . S
C638 C640 1.394 . S
C638 H654 0.931 . S
C639 C638 1.391 . S
C639 C643 1.376 . S
C640 C638 1.394 . S
C640 C641 1.369 . S
C640 C644 1.531 . S
C641 C640 1.369 . S
C641 C642 1.410 . S
C641 C649 1.503 . S
C642 C641 1.410 . S
C642 C643 1.392 . S
C642 C645 1.511 . S
C643 C639 1.376 . S
C643 C642 1.392 . S
C643 H655 0.929 . S
C644 C640 1.531 . S
C644 H656 0.960 . S
C644 H657 0.962 . S
C644 H658 0.960 . S
C645 C642 1.511 . S
C645 H659 0.961 . S
C645 H660 0.961 . S
C645 H661 0.961 . S
C646 C647 1.370 . S
C646 C648 1.363 . S
C646 H662 0.931 . S
C647 C646 1.370 . S
C647 C651 1.408 . S
C648 C646 1.363 . S
C648 C649 1.370 . S
C648 C652 1.524 . S
C649 C641 1.503 . S
C649 C648 1.370 . S
C649 C650 1.403 . S
C650 C649 1.403 . S
C650 C651 1.404 . S
C650 C653 1.539 . S
C651 C647 1.408 . S
C651 C650 1.404 . S
C651 H663 0.930 . S
C652 C648 1.524 . S
C652 H664 0.956 . S
C652 H665 0.961 . S
C652 H666 0.961 . S
C653 C650 1.539 . S
C653 H667 0.958 . S
C653 H668 0.961 . S
C653 H669 0.960 . S
H654 C638 0.931 . S
H655 C643 0.929 . S
H656 C644 0.960 . S
H657 C644 0.962 . S
H658 C644 0.960 . S
H659 C645 0.961 . S
H660 C645 0.961 . S
H661 C645 0.961 . S
H662 C646 0.931 . S
H663 C651 0.930 . S
H664 C652 0.956 . S
H665 C652 0.961 . S
H666 C652 0.961 . S
H667 C653 0.958 . S
H668 C653 0.961 . S
H669 C653 0.960 . S
C670 C671 1.391 . S
C670 C672 1.394 1_565 S
C670 H686 0.931 . S
C671 C670 1.391 . S
C671 C675 1.376 . S
C672 C670 1.394 1_545 S
C672 C673 1.369 . S
C672 C676 1.531 . S
C673 C672 1.369 . S
C673 C674 1.410 1_545 S
C673 C681 1.503 . S
C674 C673 1.410 1_565 S
C674 C675 1.392 . S
C674 C677 1.511 . S
C675 C671 1.376 . S
C675 C674 1.392 . S
C675 H687 0.929 . S
C676 C672 1.531 . S
C676 H688 0.960 . S
C676 H689 0.962 . S
C676 H690 0.960 . S
C677 C674 1.511 . S
C677 H691 0.961 . S
C677 H692 0.961 1_565 S
C677 H693 0.961 1_565 S
C678 C679 1.370 . S
C678 C680 1.363 . S
C678 H694 0.931 . S
C679 C678 1.370 . S
C679 C683 1.408 . S
C680 C678 1.363 . S
C680 C681 1.370 . S
C680 C684 1.524 1_545 S
C681 C673 1.503 . S
C681 C680 1.370 . S
C681 C682 1.403 . S
C682 C681 1.403 . S
C682 C683 1.404 . S
C682 C685 1.539 . S
C683 C679 1.408 . S
C683 C682 1.404 . S
C683 H695 0.930 . S
C684 C680 1.524 1_565 S
C684 H696 0.956 . S
C684 H697 0.961 . S
C684 H698 0.961 . S
C685 C682 1.539 . S
C685 H699 0.958 . S
C685 H700 0.961 . S
C685 H701 0.960 . S
H686 C670 0.931 . S
H687 C675 0.929 . S
H688 C676 0.960 . S
H689 C676 0.962 . S
H690 C676 0.960 . S
H691 C677 0.961 . S
H692 C677 0.961 1_545 S
H693 C677 0.961 1_545 S
H694 C678 0.931 . S
H695 C683 0.930 . S
H696 C684 0.956 . S
H697 C684 0.961 . S
H698 C684 0.961 . S
H699 C685 0.958 . S
H700 C685 0.961 . S
H701 C685 0.960 . S
C127 C33 1.055 . S
C135 C0 1.041 . S
C159 C19 1.080 . S
C167 C5 1.077 . S
C191 C14 1.054 . S
C199 C28 1.038 . S
C223 C70 0.979 . S
C231 C47 1.013 . S
C255 C61 1.001 . S
C263 C42 0.991 . S
C287 C56 1.018 . S
C295 C75 1.039 . S
C319 C84 1.012 . S
C327 C117 1.005 . S
C351 C89 0.995 . S
C359 C103 1.010 . S
C383 C98 0.985 . S
C391 C112 0.982 . S
C415 C11 1.378 . S
C423 C109 1.384 . S
C447 C23 1.417 . S
C455 C121 1.414 . S
C479 C93 1.385 . S
C487 C39 1.395 . S
C511 C65 1.378 . S
C519 C37 1.372 . S
C543 C9 1.414 . S
C551 C79 1.423 . S
C575 C51 1.407 . S
C583 C25 1.409 . S
C607 C107 1.388 . S
C615 C81 1.396 . S
C639 C53 1.377 . S
C647 C123 1.376 . S
C671 C95 1.421 . S
C679 C67 1.416 . S
