# Generated by pormake.
# Topology vmm, (7)-cn, num edge types: 1
# Building blocks:
#     Node 0, Type 0, BuildingBlock: HICVOG_clean_sbu_0, # of connection points: 7
#     Node 1, Type 0, BuildingBlock: HICVOG_clean_sbu_0, # of connection points: 7
#     Node 2, Type 0, BuildingBlock: HICVOG_clean_sbu_0, # of connection points: 7
#     Node 3, Type 0, BuildingBlock: HICVOG_clean_sbu_0, # of connection points: 7
#     Edge 4, Type (0, 0), BuildingBlock: MIFKUJ_clean_linker_0, # of connection points: 2
#     Edge 5, Type (0, 0), BuildingBlock: MIFKUJ_clean_linker_0, # of connection points: 2
#     Edge 6, Type (0, 0), BuildingBlock: MIFKUJ_clean_linker_0, # of connection points: 2
#     Edge 7, Type (0, 0), BuildingBlock: MIFKUJ_clean_linker_0, # of connection points: 2
#     Edge 8, Type (0, 0), BuildingBlock: MIFKUJ_clean_linker_0, # of connection points: 2
#     Edge 9, Type (0, 0), BuildingBlock: MIFKUJ_clean_linker_0, # of connection points: 2
#     Edge 10, Type (0, 0), BuildingBlock: MIFKUJ_clean_linker_0, # of connection points: 2
#     Edge 11, Type (0, 0), BuildingBlock: MIFKUJ_clean_linker_0, # of connection points: 2
#     Edge 12, Type (0, 0), BuildingBlock: MIFKUJ_clean_linker_0, # of connection points: 2
#     Edge 13, Type (0, 0), BuildingBlock: MIFKUJ_clean_linker_0, # of connection points: 2
#     Edge 14, Type (0, 0), BuildingBlock: MIFKUJ_clean_linker_0, # of connection points: 2
#     Edge 15, Type (0, 0), BuildingBlock: MIFKUJ_clean_linker_0, # of connection points: 2
#     Edge 16, Type (0, 0), BuildingBlock: MIFKUJ_clean_linker_0, # of connection points: 2
#     Edge 17, Type (0, 0), BuildingBlock: MIFKUJ_clean_linker_0, # of connection points: 2
# Relax obj value: 0.084
# Max RMSD: 0.162
# Mean RMSD: 0.162
data_MOF--net-vmm--node1-HICVOG_clean_sbu_0--edge1-MIFKUJ_clean_linker_0
_symmetry_space_group_name_H-M    P1
_symmetry_Int_Tables_number       1
_symmetry_cell_setting            triclinic
loop_
_symmetry_equiv_pos_as_xyz
'x, y, z'
_cell_length_a     22.174519
_cell_length_b     56.849844
_cell_length_c     27.815228
_cell_angle_alpha  90.149178
_cell_angle_beta   81.452391
_cell_angle_gamma 89.965641
loop_
_atom_site_label
_atom_site_type_symbol
_atom_site_fract_x
_atom_site_fract_y
_atom_site_fract_z
_atom_type_partial_charge
Zn0 Zn 0.27212 0.10267 0.24235 0.0
C1 C 0.16942 0.07797 0.14768 0.0
N2 N 0.20725 0.05952 0.14705 0.0
C3 C 0.25026 0.06737 0.17223 0.0
N4 N 0.23859 0.08961 0.18798 0.0
N5 N 0.18867 0.09663 0.17132 0.0
C6 C 0.03918 0.1305 0.19578 0.0
O7 O 0.05974 0.12936 0.23765 0.0
O8 O 0.36319 0.10483 0.2288 0.0
Zn9 Zn 0.16621 0.12916 0.16294 0.0
N10 N 0.2502 0.08121 0.29599 0.0
C11 C 0.17303 0.05775 0.34099 0.0
C12 C 0.19159 0.07354 0.30354 0.0
C13 C 0.29126 0.07386 0.32465 0.0
N14 N 0.2138 0.05038 0.3696 0.0
C15 C 0.27269 0.058 0.36291 0.0
O16 O 0.17905 0.15114 0.21821 0.0
C17 C 0.2065 0.15153 0.25529 0.0
O18 O 0.23959 0.13449 0.26542 0.0
H19 H 0.15968 0.07959 0.28038 0.0
H20 H 0.33779 0.08005 0.317 0.0
C21 C 0.19583 0.15925 0.07828 0.0
C22 C 0.23336 0.16711 0.03589 0.0
C23 C 0.30559 0.13745 0.04711 0.0
C24 C 0.26849 0.12984 0.08886 0.0
N25 N 0.21438 0.14077 0.10366 0.0
N26 N 0.28723 0.15576 0.02173 0.0
H27 H 0.15233 0.16745 0.0909 0.0
C28 C 0.39011 0.12258 0.20789 0.0
O29 O 0.3575 0.13964 0.19295 0.0
O30 O 0.07711 0.13046 0.15674 0.0
H31 H 0.28293 0.11538 0.10943 0.0
H32 H 0.12657 0.05138 0.34733 0.0
H33 H 0.34893 0.12899 0.03511 0.0
Zn34 Zn 0.80963 0.6285 0.37189 0.0
C35 C 0.72124 0.56749 0.36385 0.0
N36 N 0.76599 0.5586 0.3859 0.0
C37 C 0.80488 0.57671 0.38524 0.0
N38 N 0.78467 0.59609 0.36462 0.0
N39 N 0.73301 0.58992 0.34985 0.0
C40 C 0.57885 0.6211 0.33877 0.0
O41 O 0.60799 0.6385 0.35633 0.0
O42 O 0.89667 0.62847 0.38167 0.0
Zn43 Zn 0.69825 0.60419 0.29811 0.0
N44 N 0.7603 0.64179 0.42907 0.0
C45 C 0.66952 0.64022 0.48658 0.0
C46 C 0.70813 0.63042 0.44764 0.0
C47 C 0.77599 0.66253 0.44853 0.0
N48 N 0.68458 0.66103 0.50553 0.0
C49 C 0.737 0.67255 0.48787 0.0
O50 O 0.72881 0.63639 0.27701 0.0
C51 C 0.7677 0.65218 0.28285 0.0
O52 O 0.80226 0.65035 0.31535 0.0
H53 H 0.6961 0.61402 0.43202 0.0
H54 H 0.81735 0.67138 0.43259 0.0
C55 C 0.67399 0.57513 0.21824 0.0
C56 C 0.69038 0.56085 0.17682 0.0
C57 C 0.79467 0.56486 0.1869 0.0
C58 C 0.77806 0.57917 0.22737 0.0
N59 N 0.71824 0.58402 0.24215 0.0
N60 N 0.75073 0.55615 0.16269 0.0
H61 H 0.62694 0.57908 0.23197 0.0
C62 C 0.93365 0.61751 0.35021 0.0
O63 O 0.91316 0.60739 0.31331 0.0
O64 O 0.6087 0.60506 0.314 0.0
H65 H 0.81241 0.5864 0.24702 0.0
H66 H 0.62761 0.63144 0.50143 0.0
H67 H 0.84212 0.56077 0.17463 0.0
Zn68 Zn 0.69728 0.92719 0.79958 0.0
C69 C 0.81074 0.95122 0.88644 0.0
N70 N 0.77338 0.96993 0.89 0.0
C71 C 0.72734 0.96246 0.86753 0.0
N72 N 0.73683 0.94031 0.85061 0.0
N73 N 0.78828 0.93288 0.86395 0.0
C74 C 0.93521 0.90343 0.842 0.0
O75 O 0.91559 0.90718 0.80037 0.0
O76 O 0.60782 0.92459 0.82028 0.0
Zn77 Zn 0.80988 0.90022 0.86944 0.0
N78 N 0.71097 0.94941 0.74669 0.0
C79 C 0.7815 0.97443 0.69866 0.0
C80 C 0.76858 0.95788 0.73552 0.0
C81 C 0.66547 0.95665 0.72222 0.0
N82 N 0.73631 0.98171 0.67424 0.0
C83 C 0.67832 0.97329 0.68461 0.0
O84 O 0.80186 0.88028 0.81039 0.0
C85 C 0.76891 0.87985 0.77662 0.0
O86 O 0.73021 0.89596 0.77225 0.0
H87 H 0.80403 0.9519 0.75543 0.0
H88 H 0.61994 0.94979 0.73266 0.0
C89 C 0.7748 0.86688 0.94779 0.0
C90 C 0.73324 0.85664 0.98512 0.0
C91 C 0.66172 0.88675 0.97573 0.0
C92 C 0.70263 0.89665 0.93855 0.0
N93 N 0.75814 0.88654 0.92498 0.0
N94 N 0.6777 0.86695 0.99781 0.0
H95 H 0.81887 0.85892 0.9359 0.0
C96 C 0.58108 0.9053 0.83215 0.0
O97 O 0.613 0.88578 0.83095 0.0
O98 O 0.89681 0.8993 0.87959 0.0
H99 H 0.68973 0.91207 0.92011 0.0
H100 H 0.82707 0.98145 0.68948 0.0
H101 H 0.61727 0.89457 0.98662 0.0
Zn102 Zn 0.28463 0.42405 0.73937 0.0
C103 C 0.18197 0.4538 0.65284 0.0
N104 N 0.22228 0.47136 0.65339 0.0
C105 C 0.26645 0.4614 0.67455 0.0
N106 N 0.25313 0.43887 0.68669 0.0
N107 N 0.2008 0.43374 0.67183 0.0
C108 C 0.04856 0.41262 0.68417 0.0
O109 O 0.06762 0.42243 0.72201 0.0
O110 O 0.37485 0.42215 0.72624 0.0
Zn111 Zn 0.17475 0.40188 0.66031 0.0
N112 N 0.26173 0.44381 0.79568 0.0
C113 C 0.18177 0.46236 0.84862 0.0
C114 C 0.20134 0.44834 0.80823 0.0
C115 C 0.30376 0.45274 0.82179 0.0
N116 N 0.22344 0.47113 0.875 0.0
C117 C 0.2843 0.46676 0.86317 0.0
O118 O 0.1836 0.3781 0.71348 0.0
C119 C 0.21455 0.37603 0.74834 0.0
O120 O 0.25122 0.39199 0.75775 0.0
H121 H 0.16879 0.44109 0.78687 0.0
H122 H 0.35142 0.44907 0.80982 0.0
C123 C 0.20615 0.36989 0.57991 0.0
C124 C 0.23667 0.36299 0.534 0.0
C125 C 0.29466 0.39822 0.53015 0.0
C126 C 0.26422 0.405 0.57548 0.0
N127 N 0.22027 0.39085 0.59936 0.0
N128 N 0.27999 0.37753 0.51039 0.0
H129 H 0.1704 0.35913 0.59941 0.0
C130 C 0.40261 0.40626 0.69946 0.0
O131 O 0.37106 0.39076 0.67846 0.0
O132 O 0.08688 0.40257 0.65226 0.0
H133 H 0.27499 0.42162 0.59103 0.0
H134 H 0.13383 0.4662 0.8591 0.0
H135 H 0.32936 0.4094 0.51057 0.0
H136 H 0.46906 0.0914 0.23939 0.0
H137 H 0.57934 0.09503 0.23418 0.0
H138 H 0.57413 0.16078 0.15773 0.0
H139 H 0.46317 0.15755 0.16377 0.0
H140 H 0.66834 0.09634 0.16112 0.0
H141 H 0.68617 0.19668 0.18804 0.0
H142 H 0.62371 0.22942 0.22698 0.0
H143 H 0.5273 0.18145 0.32989 0.0
H144 H 0.58938 0.14853 0.2919 0.0
H145 H 0.98029 0.12793 0.11612 0.0
H146 H 0.87024 0.12932 0.11473 0.0
H147 H 0.83829 0.13745 0.27066 0.0
H148 H 0.9481 0.13628 0.2724 0.0
H149 H 0.76348 0.16636 0.22589 0.0
H150 H 0.81686 0.08376 0.22678 0.0
H151 H 0.87729 0.04876 0.19711 0.0
H152 H 0.82955 0.05902 0.05446 0.0
H153 H 0.76829 0.09368 0.08354 0.0
C154 C 0.49127 0.10664 0.22137 0.0
C155 C 0.45729 0.12428 0.20227 0.0
C156 C 0.5544 0.10865 0.21831 0.0
C157 C 0.58494 0.1283 0.19605 0.0
C158 C 0.55138 0.14567 0.17581 0.0
C159 C 0.48802 0.14373 0.17909 0.0
C160 C 0.65185 0.13047 0.19448 0.0
C161 C 0.68897 0.11174 0.17506 0.0
C162 C 0.67897 0.15039 0.21322 0.0
C163 C 0.64196 0.17013 0.23677 0.0
C164 C 0.65171 0.19316 0.21907 0.0
C165 C 0.61631 0.21174 0.24095 0.0
C166 C 0.57131 0.20751 0.28076 0.0
C167 C 0.56184 0.18471 0.29891 0.0
C168 C 0.59707 0.16607 0.27718 0.0
C169 C 0.94987 0.13017 0.15007 0.0
C170 C 0.97288 0.13187 0.1944 0.0
C171 C 0.88704 0.13095 0.14922 0.0
C172 C 0.84618 0.13341 0.19263 0.0
C173 C 0.86908 0.13566 0.23676 0.0
C174 C 0.93184 0.1348 0.23768 0.0
C175 C 0.77947 0.13227 0.19243 0.0
C176 C 0.74259 0.15115 0.21146 0.0
C177 C 0.75216 0.11227 0.17455 0.0
C178 C 0.78823 0.09124 0.15722 0.0
C179 C 0.81928 0.07844 0.18911 0.0
C180 C 0.85344 0.0586 0.17248 0.0
C181 C 0.85678 0.05146 0.12408 0.0
C182 C 0.8263 0.06424 0.09213 0.0
C183 C 0.79168 0.08395 0.10867 0.0
H184 H 0.8831 0.03605 0.11145 0.0
H185 H 0.54389 0.2219 0.29763 0.0
H186 H 0.5085 0.58713 0.30673 0.0
H187 H 0.39823 0.58625 0.31353 0.0
H188 H 0.38621 0.65126 0.39482 0.0
H189 H 0.49779 0.65246 0.38782 0.0
H190 H 0.30144 0.61873 0.43385 0.0
H191 H 0.37043 0.65156 0.2756 0.0
H192 H 0.43456 0.65217 0.19516 0.0
H193 H 0.35885 0.58611 0.15887 0.0
H194 H 0.29468 0.58497 0.23936 0.0
H195 H -0.00353 0.64479 0.40637 0.0
H196 H 0.10546 0.64335 0.41097 0.0
H197 H 0.12524 0.58391 0.31288 0.0
H198 H 0.01661 0.58588 0.30671 0.0
H199 H 0.207 0.61442 0.28321 0.0
H200 H 0.1434 0.57819 0.43734 0.0
H201 H 0.08552 0.57304 0.51962 0.0
H202 H 0.15338 0.63897 0.56435 0.0
H203 H 0.21159 0.64461 0.48247 0.0
C204 C 0.48265 0.60127 0.32621 0.0
C205 C 0.51184 0.62006 0.34625 0.0
C206 C 0.41953 0.60071 0.33004 0.0
C207 C 0.38429 0.61884 0.35411 0.0
C208 C 0.41291 0.63719 0.37586 0.0
C209 C 0.47647 0.63786 0.37177 0.0
C210 C 0.31756 0.61862 0.35567 0.0
C211 C 0.28049 0.61802 0.40104 0.0
C212 C 0.29088 0.61709 0.31265 0.0
C213 C 0.32798 0.61813 0.26362 0.0
C214 C 0.36756 0.63713 0.25052 0.0
C215 C 0.40391 0.63757 0.20492 0.0
C216 C 0.40084 0.61917 0.17197 0.0
C217 C 0.36114 0.60035 0.18444 0.0
C218 C 0.32467 0.59983 0.23 0.0
C219 C 0.02403 0.6313 0.38612 0.0
C220 C -0.00159 0.61563 0.3557 0.0
C221 C 0.0862 0.63034 0.38912 0.0
C222 C 0.12346 0.61339 0.36258 0.0
C223 C 0.09738 0.5972 0.33352 0.0
C224 C 0.03541 0.59838 0.32992 0.0
C225 C 0.19033 0.6139 0.36166 0.0
C226 C 0.22758 0.61484 0.31624 0.0
C227 C 0.21725 0.61506 0.40466 0.0
C228 C 0.18126 0.61196 0.4536 0.0
C229 C 0.14548 0.59171 0.46458 0.0
C230 C 0.11279 0.58865 0.51115 0.0
C231 C 0.11553 0.6057 0.54701 0.0
C232 C 0.15119 0.6258 0.53649 0.0
C233 C 0.18416 0.62892 0.49006 0.0
H234 H 0.09017 0.60328 0.58302 0.0
H235 H 0.4292 0.61951 0.13677 0.0
H236 H 0.02897 0.9001 0.76742 0.0
H237 H 0.13796 0.90098 0.77212 0.0
H238 H 0.09862 0.91106 0.92752 0.0
H239 H -0.01077 0.90948 0.92319 0.0
H240 H 0.20995 0.93297 0.79864 0.0
H241 H 0.20876 0.88437 0.9811 0.0
H242 H 0.14732 0.8548 0.03147 0.0
H243 H 0.086 0.82619 0.90416 0.0
H244 H 0.14767 0.85537 0.85301 0.0
H245 H 0.50534 0.94237 0.85778 0.0
H246 H 0.39417 0.94259 0.86793 0.0
H247 H 0.39441 0.86787 0.83987 0.0
H248 H 0.50576 0.86738 0.83158 0.0
H249 H 0.30235 0.87873 0.90679 0.0
H250 H 0.38592 0.90879 0.74951 0.0
H251 H 0.44834 0.93511 0.69176 0.0
H252 H 0.34671 0.99478 0.75461 0.0
H253 H 0.2844 0.96888 0.81333 0.0
C254 C 0.04356 0.90248 0.80259 0.0
C255 C 0.00082 0.90443 0.845 0.0
C256 C 0.1058 0.90305 0.80521 0.0
C257 C 0.12638 0.90581 0.85022 0.0
C258 C 0.0837 0.90843 0.89255 0.0
C259 C 0.02133 0.90753 0.89002 0.0
C260 C 0.19261 0.90568 0.85251 0.0
C261 C 0.23014 0.92119 0.82243 0.0
C262 C 0.21896 0.89004 0.88304 0.0
C263 C 0.18229 0.87223 0.91336 0.0
C264 C 0.18231 0.87172 0.96388 0.0
C265 C 0.14743 0.85503 0.99255 0.0
C266 C 0.11261 0.83868 0.97105 0.0
C267 C 0.11279 0.83892 0.92079 0.0
C268 C 0.14765 0.85554 0.89196 0.0
C269 C 0.48168 0.92593 0.85447 0.0
C270 C 0.51412 0.90488 0.84336 0.0
C271 C 0.41819 0.9261 0.8601 0.0
C272 C 0.38618 0.90535 0.85354 0.0
C273 C 0.41832 0.8841 0.84487 0.0
C274 C 0.48188 0.88384 0.84003 0.0
C275 C 0.31965 0.906 0.85285 0.0
C276 C 0.28208 0.89065 0.88331 0.0
C277 C 0.29343 0.9213 0.82155 0.0
C278 C 0.3309 0.93691 0.78618 0.0
C279 C 0.37721 0.92755 0.75128 0.0
C280 C 0.41254 0.94239 0.71834 0.0
C281 C 0.40158 0.96661 0.7196 0.0
C282 C 0.35522 0.97603 0.75374 0.0
C283 C 0.31989 0.96128 0.78687 0.0
H284 H 0.42891 0.97807 0.69409 0.0
H285 H 0.08559 0.8258 0.99331 0.0
H286 H -0.00762 0.38817 0.61876 0.0
H287 H 0.88323 0.38597 0.61508 0.0
H288 H 0.84827 0.43562 0.73365 0.0
H289 H 0.95729 0.43744 0.73835 0.0
H290 H 0.77747 0.39909 0.75118 0.0
H291 H 0.82597 0.45112 0.61376 0.0
H292 H 0.87786 0.46485 0.53409 0.0
H293 H 0.82577 0.4017 0.4664 0.0
H294 H 0.77323 0.38757 0.54551 0.0
H295 H 0.47839 0.4343 0.74254 0.0
H296 H 0.58899 0.43211 0.73465 0.0
H297 H 0.59018 0.37432 0.63372 0.0
H298 H 0.47857 0.37629 0.64148 0.0
H299 H 0.67777 0.40874 0.60421 0.0
H300 H 0.61481 0.36134 0.74232 0.0
H301 H 0.55511 0.35075 0.82123 0.0
H302 H 0.63146 0.40931 0.88907 0.0
H303 H 0.69106 0.42047 0.81038 0.0
C304 C 0.96149 0.39879 0.64376 0.0
C305 C 0.98327 0.41278 0.67925 0.0
C306 C 0.89913 0.39765 0.64136 0.0
C307 C 0.85761 0.41071 0.67394 0.0
C308 C 0.87954 0.42531 0.70829 0.0
C309 C 0.9418 0.42631 0.71097 0.0
C310 C 0.79109 0.40782 0.6749 0.0
C311 C 0.75561 0.4017 0.71919 0.0
C312 C 0.76286 0.41013 0.63274 0.0
C313 C 0.79655 0.41812 0.58563 0.0
C314 C 0.82628 0.44002 0.58199 0.0
C315 C 0.85553 0.44794 0.53695 0.0
C316 C 0.85551 0.43411 0.49537 0.0
C317 C 0.82595 0.41236 0.49867 0.0
C318 C 0.79628 0.40441 0.54355 0.0
C319 C 0.50195 0.42107 0.71864 0.0
C320 C 0.46973 0.4053 0.69294 0.0
C321 C 0.56514 0.41981 0.71437 0.0
C322 C 0.59737 0.4028 0.68428 0.0
C323 C 0.56577 0.38742 0.65743 0.0
C324 C 0.5022 0.38856 0.66195 0.0
C325 C 0.66428 0.40158 0.68088 0.0
C326 C 0.69989 0.4064 0.63611 0.0
C327 C 0.6925 0.39856 0.72275 0.0
C328 C 0.65712 0.39183 0.77032 0.0
C329 C 0.61856 0.37207 0.77398 0.0
C330 C 0.5848 0.36594 0.81869 0.0
C331 C 0.58941 0.37938 0.86012 0.0
C332 C 0.62794 0.39893 0.85694 0.0
C333 C 0.6618 0.40514 0.81229 0.0
H334 H 0.56321 0.37461 0.8947 0.0
H335 H 0.87816 0.44032 0.46056 0.0
H336 H 0.26625 0.01628 0.41129 0.0
H337 H 0.33214 1.00179 0.4676 0.0
H338 H 0.43942 0.0652 0.44694 0.0
H339 H 0.37383 0.07988 0.39053 0.0
H340 H 0.51133 0.0276 0.44449 0.0
H341 H 0.33466 0.05568 0.54968 0.0
H342 H 0.22534 0.05871 0.58242 0.0
H343 H 0.22117 0.98525 0.61826 0.0
H344 H 0.33028 0.98169 0.585 0.0
H345 H 0.67554 0.0158 0.64056 0.0
H346 H 0.60438 0.02969 0.58805 0.0
H347 H 0.50429 0.96462 0.60955 0.0
H348 H 0.57521 0.95051 0.66247 0.0
H349 H 0.42802 1.00204 0.61164 0.0
H350 H 0.60383 0.9738 0.50615 0.0
H351 H 0.71339 0.97065 0.47424 0.0
H352 H 0.71892 0.04425 0.43954 0.0
H353 H 0.60953 0.04792 0.4719 0.0
C354 C 0.30382 0.02721 0.41868 0.0
C355 C 0.31481 0.0492 0.39585 0.0
C356 C 0.34137 0.0189 0.45109 0.0
C357 C 0.39036 0.03251 0.46203 0.0
C358 C 0.40193 0.05436 0.43901 0.0
C359 C 0.36451 0.06267 0.4064 0.0
C360 C 0.43008 0.02382 0.49688 0.0
C361 C 0.49312 0.02233 0.48125 0.0
C362 C 0.40625 0.01627 0.54448 0.0
C363 C 0.34051 0.01836 0.56426 0.0
C364 C 0.31031 0.04012 0.56408 0.0
C365 C 0.24839 0.04194 0.58282 0.0
C366 C 0.21627 0.02217 0.60225 0.0
C367 C 0.24606 1.00054 0.60309 0.0
C368 C 0.30794 0.99861 0.5843 0.0
C369 C 0.63831 1.0044 0.63436 0.0
C370 C 0.63139 0.98201 0.65588 0.0
C371 C 0.59768 1.01239 0.60419 0.0
C372 C 0.54959 0.99805 0.59416 0.0
C373 C 0.54119 0.97597 0.6167 0.0
C374 C 0.58173 0.96798 0.64722 0.0
C375 C 0.50914 1.006 0.55928 0.0
C376 C 0.44607 1.0073 0.57485 0.0
C377 C 0.53285 1.01335 0.51158 0.0
C378 C 0.5986 1.01117 0.49187 0.0
C379 C 0.6285 0.98935 0.49205 0.0
C380 C 0.69056 0.98747 0.47383 0.0
C381 C 0.72313 1.00725 0.45498 0.0
C382 C 0.69366 0.02895 0.4542 0.0
C383 C 0.63161 0.03093 0.47244 0.0
H384 H 0.77117 1.00575 0.44088 0.0
H385 H 0.16835 0.02362 0.61678 0.0
H386 H 0.40278 0.45281 0.8721 0.0
H387 H 0.46923 0.46938 0.9254 0.0
H388 H 0.32917 0.51906 0.98171 0.0
H389 H 0.26318 0.50348 0.92672 0.0
H390 H 0.43492 0.54029 0.96918 0.0
H391 H 0.35832 0.46858 0.04562 0.0
H392 H 0.33631 0.42606 0.05 0.0
H393 H 0.5277 0.41074 1.01727 0.0
H394 H 0.5508 0.4532 1.01221 0.0
H395 H 0.57051 0.57506 0.17323 0.0
H396 H 0.49963 0.55858 0.12355 0.0
H397 H 0.63599 0.50854 0.06193 0.0
H398 H 0.70648 0.52399 0.11334 0.0
H399 H 0.52897 0.48773 0.07938 0.0
H400 H 0.60401 0.56014 1.00083 0.0
H401 H 0.62427 0.60282 0.9981 0.0
H402 H 0.43292 0.61685 0.03716 0.0
H403 H 0.41162 0.57423 0.04068 0.0
C404 C 0.38607 0.46756 0.89484 0.0
C405 C 0.32718 0.47685 0.8944 0.0
C406 C 0.42413 0.47682 0.92605 0.0
C407 C 0.40397 0.49526 0.9582 0.0
C408 C 0.34581 0.5048 0.95737 0.0
C409 C 0.30792 0.49572 0.92596 0.0
C410 C 0.44317 0.50453 0.99297 0.0
C411 C 0.45482 0.52881 0.9937 0.0
C412 C 0.46991 0.48959 0.02462 0.0
C413 C 0.45623 0.46406 0.02814 0.0
C414 C 0.39568 0.45614 0.0391 0.0
C415 C 0.38302 0.43205 0.04175 0.0
C416 C 0.43057 0.41571 0.03382 0.0
C417 C 0.49091 0.42342 0.02338 0.0
C418 C 0.50382 0.44749 0.02069 0.0
C419 C 0.58554 0.56023 0.15012 0.0
C420 C 0.64477 0.55082 0.14796 0.0
C421 C 0.54485 0.55102 0.12101 0.0
C422 C 0.56268 0.53252 0.08838 0.0
C423 C 0.62113 0.52284 0.08672 0.0
C424 C 0.66161 0.53186 0.11606 0.0
C425 C 0.52114 0.52343 0.05526 0.0
C426 C 0.50897 0.49919 0.0549 0.0
C427 C 0.49366 0.53842 0.02415 0.0
C428 C 0.5063 0.56402 0.02133 0.0
C429 C 0.56631 0.57234 1.00904 0.0
C430 C 0.57797 0.59651 1.00734 0.0
C431 C 0.52993 0.61253 1.01755 0.0
C432 C 0.47009 0.60441 0.02929 0.0
C433 C 0.45819 0.58026 0.03108 0.0
H434 H 0.53905 0.63124 1.01627 0.0
H435 H 0.42066 0.39707 0.03586 0.0
H436 H 0.81917 0.94267 0.98051 0.0
H437 H 0.89234 0.96273 0.02425 0.0
H438 H -0.00363 0.98379 0.88786 0.0
H439 H 0.9233 0.96362 0.84417 0.0
H440 H 0.06262 0.97638 0.98364 0.0
H441 H 0.90645 0.02865 0.91339 0.0
H442 H 0.80031 0.0336 0.8976 0.0
H443 H 0.73358 1.01236 0.04398 0.0
H444 H 0.839 1.00654 0.05974 0.0
H445 H 0.18086 0.08439 0.0511 0.0
H446 H 0.12297 0.06061 1.00012 0.0
H447 H -0.00831 0.04446 0.12608 0.0
H448 H 0.05104 0.06737 0.17708 0.0
H449 H 0.94371 0.04903 0.03144 0.0
H450 H 0.09535 1.00957 0.10985 0.0
H451 H 0.19734 1.002 0.1315 0.0
H452 H 0.27013 0.99363 0.98055 0.0
H453 H 0.16858 1.00163 0.9579 0.0
C454 C 0.85989 0.95022 0.95998 0.0
C455 C 0.86617 0.95151 0.90916 0.0
C456 C 0.90143 0.96182 0.98492 0.0
C457 C 0.94925 0.97494 0.95919 0.0
C458 C 0.95997 0.97364 0.90829 0.0
C459 C 0.91843 0.96199 0.88336 0.0
C460 C 0.97706 0.99423 0.98412 0.0
C461 C 0.03693 0.99231 0.99397 0.0
C462 C 0.94327 0.01485 0.99792 0.0
C463 C 0.88015 0.01761 0.98795 0.0
C464 C 0.86892 0.02501 0.94201 0.0
C465 C 0.80897 0.02782 0.93298 0.0
C466 C 0.76019 0.02338 0.96978 0.0
C467 C 0.77123 0.01572 1.01538 0.0
C468 C 0.83102 1.01261 0.02435 0.0
C469 C 0.13789 0.07675 0.06722 0.0
C470 C 0.12041 0.07751 0.11779 0.0
C471 C 0.10529 0.06296 0.03828 0.0
C472 C 0.05385 0.05037 0.05961 0.0
C473 C 0.03132 0.05402 0.10897 0.0
C474 C 0.06473 0.06741 0.13802 0.0
C475 C 0.02886 0.03108 0.03256 0.0
C476 C 0.96954 0.03311 0.02157 0.0
C477 C 0.06296 1.01036 0.01887 0.0
C478 C 0.12453 1.00653 0.03215 0.0
C479 C 0.13327 1.00652 0.08121 0.0
C480 C 0.19094 1.00203 0.09368 0.0
C481 C 0.24012 0.99727 0.05744 0.0
C482 C 0.23189 0.99725 1.00859 0.0
C483 C 0.17433 1.00181 0.99591 0.0
H484 H 0.28462 0.99359 0.06718 0.0
H485 H 0.71389 0.02595 0.96301 0.0
H486 H 0.17231 0.44384 0.55902 0.0
H487 H 0.10561 0.46542 0.51162 0.0
H488 H 0.01017 0.49562 0.64397 0.0
H489 H 0.0761 0.47378 0.69102 0.0
H490 H 0.9349 0.49051 0.57947 0.0
H491 H 0.13531 0.52183 0.58049 0.0
H492 H 0.24775 0.52041 0.56751 0.0
H493 H 0.24868 0.50985 0.41453 0.0
H494 H 0.13617 0.51057 0.42673 0.0
H495 H 0.81509 0.58854 0.47806 0.0
H496 H 0.88359 0.56844 0.52631 0.0
H497 H 0.97974 0.53714 0.39543 0.0
H498 H 0.91169 0.55729 0.3476 0.0
H499 H 0.05535 0.54348 0.46023 0.0
H500 H 0.85611 0.51115 0.45853 0.0
H501 H 0.74365 0.51028 0.47112 0.0
H502 H 0.74041 0.52146 0.62417 0.0
H503 H 0.85284 0.52304 0.61236 0.0
C504 C 0.13477 0.45402 0.57798 0.0
C505 C 0.12843 0.45695 0.62854 0.0
C506 C 0.09747 0.46671 0.55091 0.0
C507 C 0.05424 0.48272 0.57419 0.0
C508 C 0.04356 0.48356 0.62517 0.0
C509 C 0.08073 0.47087 0.65212 0.0
C510 C 0.02489 0.50036 0.54587 0.0
C511 C 0.96117 0.50221 0.55363 0.0
C512 C 0.05944 0.51568 0.51221 0.0
C513 C 0.12719 0.51583 0.50467 0.0
C514 C 0.15943 0.51899 0.54414 0.0
C515 C 0.22318 0.51831 0.53692 0.0
C516 C 0.25522 0.51483 0.49029 0.0
C517 C 0.22369 0.51236 0.45068 0.0
C518 C 0.15995 0.51287 0.45773 0.0
C519 C 0.85312 0.57844 0.45954 0.0
C520 C 0.85899 0.57465 0.40925 0.0
C521 C 0.89154 0.56665 0.4871 0.0
C522 C 0.93555 0.55073 0.46456 0.0
C523 C 0.94582 0.54916 0.41365 0.0
C524 C 0.90737 0.56087 0.38625 0.0
C525 C 0.96523 0.53354 0.49365 0.0
C526 C 0.02902 0.53179 0.48606 0.0
C527 C 0.93072 0.51825 0.52739 0.0
C528 C 0.86298 0.51767 0.53441 0.0
C529 C 0.83145 0.51377 0.49478 0.0
C530 C 0.76769 0.51309 0.50179 0.0
C531 C 0.73497 0.51596 0.54838 0.0
C532 C 0.76588 0.51939 0.58808 0.0
C533 C 0.82959 0.52023 0.58122 0.0
H534 H 0.68568 0.51551 0.55381 0.0
H535 H 0.30448 0.51403 0.48479 0.0
H536 H 0.27002 0.17452 0.93954 0.0
H537 H 0.25647 0.20965 0.89229 0.0
H538 H 0.14884 0.24142 1.0175 0.0
H539 H 0.1625 0.20633 0.06553 0.0
H540 H 0.10348 0.25142 0.93064 0.0
H541 H 0.29267 0.25563 0.994 0.0
H542 H 0.39261 0.24125 1.01025 0.0
H543 H 0.45561 0.23678 0.85688 0.0
H544 H 0.35566 0.2508 0.83971 0.0
H545 H 0.26219 0.36852 0.83201 0.0
H546 H 0.25449 0.33344 0.88246 0.0
H547 H 0.14614 0.29958 0.78578 0.0
H548 H 0.15259 0.33503 0.73525 0.0
H549 H 0.29614 0.29142 0.86266 0.0
H550 H 0.05148 0.25884 0.85075 0.0
H551 H 0.95099 0.27519 0.84076 0.0
H552 H -0.00211 0.34079 0.90247 0.0
H553 H 0.09828 0.32474 0.91342 0.0
C554 C 0.24289 0.18884 0.95711 0.0
C555 C 0.21759 0.18749 1.00654 0.0
C556 C 0.23511 0.20892 0.92991 0.0
C557 C 0.20224 0.22827 0.95148 0.0
C558 C 0.17427 0.22665 1.00009 0.0
C559 C 0.18201 0.20648 0.02749 0.0
C560 C 0.20142 0.25068 0.92416 0.0
C561 C 0.14552 0.26019 0.91568 0.0
C562 C 0.25622 0.26236 0.90541 0.0
C563 C 0.3165 0.25404 0.91558 0.0
C564 C 0.32768 0.2514 0.96374 0.0
C565 C 0.38435 0.24334 0.97312 0.0
C566 C 0.43038 0.23805 0.93462 0.0
C567 C 0.41988 0.24086 0.88666 0.0
C568 C 0.36324 0.24887 0.87708 0.0
C569 C 0.23643 0.3537 0.82138 0.0
C570 C 0.20814 0.35464 0.77935 0.0
C571 C 0.23213 0.33359 0.85038 0.0
C572 C 0.19954 0.31384 0.83819 0.0
C573 C 0.17082 0.3147 0.79641 0.0
C574 C 0.1748 0.33495 0.76739 0.0
C575 C 0.19816 0.29217 0.86835 0.0
C576 C 0.2539 0.28271 0.87738 0.0
C577 C 0.14313 0.28089 0.88831 0.0
C578 C 0.08263 0.29065 0.8824 0.0
C579 C 0.04025 0.27673 0.86233 0.0
C580 C 0.98333 0.28595 0.85648 0.0
C581 C 0.96815 0.30904 0.87081 0.0
C582 C 0.00979 0.32294 0.8912 0.0
C583 C 0.06674 0.3138 0.89717 0.0
H584 H 0.92408 0.31615 0.86622 0.0
H585 H 0.47423 0.23182 0.94196 0.0
H586 H 0.65598 0.70689 0.5199 0.0
H587 H 0.67452 0.74344 0.56184 0.0
H588 H 0.86543 0.72605 0.55012 0.0
H589 H 0.84732 0.68942 0.50732 0.0
H590 H 0.8049 0.7393 0.64701 0.0
H591 H 0.83409 0.7678 0.48324 0.0
H592 H 0.80738 0.77334 0.40109 0.0
H593 H 0.64337 0.80951 0.46154 0.0
H594 H 0.66862 0.80387 0.54417 0.0
H595 H 0.86356 0.84858 0.75626 0.0
H596 H 0.87053 0.81488 0.70079 0.0
H597 H 0.69232 0.83138 0.6653 0.0
H598 H 0.6863 0.86558 0.71897 0.0
H599 H 0.76038 0.81861 0.58697 0.0
H600 H 0.72036 0.78651 0.74858 0.0
H601 H 0.73922 0.7799 0.83268 0.0
H602 H 0.91362 0.7494 0.77926 0.0
H603 H 0.89609 0.75612 0.69479 0.0
C604 C 0.70205 0.71094 0.52582 0.0
C605 C 0.75024 0.69537 0.51004 0.0
C606 C 0.71258 0.73185 0.54966 0.0
C607 C 0.77136 0.73748 0.55887 0.0
C608 C 0.81978 0.72204 0.54312 0.0
C609 C 0.80944 0.70124 0.51841 0.0
C610 C 0.781 0.75909 0.58676 0.0
C611 C 0.79648 0.75672 0.63359 0.0
C612 C 0.76822 0.78168 0.56966 0.0
C613 C 0.75306 0.78524 0.51996 0.0
C614 C 0.79208 0.77677 0.47907 0.0
C615 C 0.77724 0.77996 0.4324 0.0
C616 C 0.72365 0.79173 0.4261 0.0
C617 C 0.68486 0.80038 0.46647 0.0
C618 C 0.69945 0.79722 0.51323 0.0
C619 C 0.82597 0.84505 0.73649 0.0
C620 C 0.77426 0.85971 0.74221 0.0
C621 C 0.82988 0.82571 0.7049 0.0
C622 C 0.7815 0.82026 0.67934 0.0
C623 C 0.73033 0.83515 0.68446 0.0
C624 C 0.72686 0.8547 0.71533 0.0
C625 C 0.78325 0.7989 0.6479 0.0
C626 C 0.76972 0.80128 0.60034 0.0
C627 C 0.79675 0.77624 0.66469 0.0
C628 C 0.80722 0.77207 0.71541 0.0
C629 C 0.76291 0.77855 0.75479 0.0
C630 C 0.77333 0.77476 0.80251 0.0
C631 C 0.82766 0.7643 0.81131 0.0
C632 C 0.87161 0.75754 0.77239 0.0
C633 C 0.86145 0.76132 0.72459 0.0
H634 H 0.83565 0.76139 0.84828 0.0
H635 H 0.71225 0.79418 0.38994 0.0
H636 H 0.65796 0.81957 1.0066 0.0
H637 H 0.67359 0.78511 0.05531 0.0
H638 H 0.85296 0.81027 0.07192 0.0
H639 H 0.83828 0.84446 0.02092 0.0
H640 H 0.856 0.76419 0.06455 0.0
H641 H 0.7271 0.81814 0.16275 0.0
H642 H 0.63993 0.84505 0.18418 0.0
H643 H 0.51541 0.78779 0.17689 0.0
H644 H 0.60183 0.76059 0.15472 0.0
H645 H 0.85508 0.68699 0.27262 0.0
H646 H 0.85884 0.72211 0.22106 0.0
H647 H 0.69276 0.70042 0.1706 0.0
H648 H 0.6887 0.66543 0.22141 0.0
H649 H 0.69107 0.74717 0.20106 0.0
H650 H 0.82505 0.69394 0.0986 0.0
H651 H 0.91467 0.668 0.07981 0.0
H652 H 0.03308 0.72567 0.10082 0.0
H653 H 0.94403 0.75189 0.1204 0.0
C654 C 0.70102 0.81762 0.02018 0.0
C655 C 0.74674 0.83474 1.01023 0.0
C656 C 0.70981 0.79798 0.04832 0.0
C657 C 0.76375 0.79537 0.06866 0.0
C658 C 0.81074 0.81195 0.05701 0.0
C659 C 0.8024 0.83145 0.02783 0.0
C660 C 0.76956 0.77577 0.10323 0.0
C661 C 0.82038 0.76073 0.09487 0.0
C662 C 0.72316 0.77109 0.14292 0.0
C663 C 0.67099 0.78736 0.15674 0.0
C664 C 0.68113 0.81131 0.16545 0.0
C665 C 0.63185 0.82662 0.17775 0.0
C666 C 0.57218 0.81815 0.18181 0.0
C667 C 0.56166 0.79433 0.17371 0.0
C668 C 0.61078 0.77896 0.16133 0.0
C669 C 0.81947 0.68967 0.25042 0.0
C670 C 0.77159 0.67334 0.25123 0.0
C671 C 0.82184 0.7097 0.22086 0.0
C672 C 0.77617 0.71383 0.19187 0.0
C673 C 0.72846 0.69759 0.19267 0.0
C674 C 0.72636 0.67752 0.22172 0.0
C675 C 0.7765 0.73533 0.16153 0.0
C676 C 0.72687 0.7508 0.17095 0.0
C677 C 0.82438 0.74054 0.12346 0.0
C678 C 0.87785 0.7248 0.11152 0.0
C679 C 0.87016 0.70104 0.09964 0.0
C680 C 0.92086 0.68629 0.08876 0.0
C681 C 0.97952 0.69516 0.08927 0.0
C682 C 0.98761 0.71881 0.10052 0.0
C683 C 0.93705 0.73362 0.11149 0.0
H684 H 0.01872 0.68372 0.08082 0.0
H685 H 0.53408 0.83003 0.19131 0.0
H686 H 0.23076 0.35612 0.43827 0.0
H687 H 0.21496 0.31913 0.39672 0.0
H688 H 0.19781 0.28232 0.53338 0.0
H689 H 0.21268 0.31945 0.57547 0.0
H690 H 0.284 0.26244 0.45448 0.0
H691 H 0.07598 0.28786 0.4885 0.0
H692 H -0.00902 0.31594 0.48988 0.0
H693 H 0.02369 0.31983 0.33404 0.0
H694 H 0.10957 0.29204 0.33175 0.0
H695 H 0.21822 0.15355 0.35145 0.0
H696 H 0.21304 0.18824 0.40381 0.0
H697 H 0.18028 0.23186 0.28352 0.0
H698 H 0.18204 0.19691 0.23171 0.0
H699 H 0.11464 0.24754 0.36021 0.0
H700 H 0.32669 0.22567 0.32462 0.0
H701 H 0.41475 0.19881 0.3208 0.0
H702 H 0.37918 0.18994 0.4757 0.0
H703 H 0.29051 0.21653 0.48036 0.0
C704 C 0.223 0.34018 0.45956 0.0
C705 C 0.22259 0.34071 0.51015 0.0
C706 C 0.2138 0.3191 0.4358 0.0
C707 C 0.20497 0.29803 0.46201 0.0
C708 C 0.20427 0.29844 0.51258 0.0
C709 C 0.21236 0.31966 0.53658 0.0
C710 C 0.19944 0.27552 0.43589 0.0
C711 C 0.24646 0.25893 0.43453 0.0
C712 C 0.15137 0.27136 0.40877 0.0
C713 C 0.09961 0.28802 0.40999 0.0
C714 C 0.06543 0.29487 0.45454 0.0
C715 C 0.017 0.3107 0.45548 0.0
C716 C 0.00203 0.31971 0.41208 0.0
C717 C 0.03538 0.31285 0.36763 0.0
C718 C 0.08391 0.29704 0.36649 0.0
C719 C 0.20965 0.17053 0.33622 0.0
C720 C 0.20103 0.17253 0.28733 0.0
C721 C 0.20705 0.19041 0.36615 0.0
C722 C 0.19784 0.21287 0.34747 0.0
C723 C 0.18771 0.2148 0.29889 0.0
C724 C 0.18884 0.19481 0.26922 0.0
C725 C 0.1997 0.23435 0.37819 0.0
C726 C 0.15209 0.25085 0.38034 0.0
C727 C 0.2478 0.23862 0.40552 0.0
C728 C 0.30162 0.22289 0.40277 0.0
C729 C 0.33749 0.21789 0.35782 0.0
C730 C 0.38753 0.20273 0.35552 0.0
C731 C 0.40239 0.19262 0.39798 0.0
C732 C 0.36752 0.19775 0.44285 0.0
C733 C 0.31742 0.21288 0.44535 0.0
H734 H 0.44093 0.18081 0.39621 0.0
H735 H 0.96451 0.33196 0.41289 0.0
H736 H 0.35635 0.08972 0.14004 0.0
H737 H 0.44316 0.07158 0.0897 0.0
H738 H 0.36557 1.003 0.12363 0.0
H739 H 0.27953 0.02121 0.17575 0.0
H740 H 0.48845 1.00025 0.10438 0.0
H741 H 0.32785 0.03135 0.02688 0.0
H742 H 0.2544 0.06026 1.0044 0.0
H743 H 0.40178 0.10617 0.9481 0.0
H744 H 0.47616 0.07702 0.96942 0.0
H745 H 0.62043 0.941 0.90112 0.0
H746 H 0.53338 0.95955 0.94984 0.0
H747 H 0.61533 0.02763 0.91851 0.0
H748 H 0.70113 1.00902 0.86675 0.0
H749 H 0.49068 0.03047 0.93667 0.0
H750 H 0.65171 0.99415 1.00854 0.0
H751 H 0.7183 0.96097 0.02299 0.0
H752 H 0.56199 0.92171 0.08816 0.0
H753 H 0.4946 0.9547 0.07356 0.0
C754 C 0.35989 0.07076 0.13982 0.0
C755 C 0.31156 0.05688 0.1625 0.0
C756 C 0.40891 0.06038 0.1099 0.0
C757 C 0.40978 0.03599 0.10167 0.0
C758 C 0.36552 0.02187 0.12905 0.0
C759 C 0.31662 0.03227 0.1592 0.0
C760 C 0.45092 0.02571 0.05989 0.0
C761 C 0.4887 1.00675 0.06772 0.0
C762 C 0.45128 0.03418 1.01192 0.0
C763 C 0.40727 0.05214 1.00024 0.0
C764 C 0.34439 0.04767 1.01004 0.0
C765 C 0.30265 0.06409 0.99744 0.0
C766 C 0.32329 0.08521 0.9753 0.0
C767 C 0.38584 0.08982 0.96536 0.0
C768 C 0.42782 0.0733 0.97751 0.0
C769 C 0.61777 0.95996 0.90116 0.0
C770 C 0.66697 0.97357 0.87904 0.0
C771 C 0.56854 0.97058 0.93026 0.0
C772 C 0.56896 0.99488 0.93909 0.0
C773 C 0.61441 1.0088 0.91254 0.0
C774 C 0.66328 0.99818 0.88277 0.0
C775 C 0.52849 1.00514 0.98116 0.0
C776 C 0.49084 0.02409 0.97338 0.0
C777 C 0.52773 0.99641 0.02904 0.0
C778 C 0.56825 0.9769 0.03981 0.0
C779 C 0.63172 0.97848 0.02609 0.0
C780 C 0.66955 0.95968 0.03417 0.0
C781 C 0.64439 0.93921 0.05648 0.0
C782 C 0.58141 0.93759 0.07091 0.0
C783 C 0.5434 0.95636 0.06278 0.0
H784 H 0.67369 0.92462 0.06256 0.0
H785 H 0.29086 0.09796 0.96567 0.0
H786 H 0.36796 0.43859 0.63262 0.0
H787 H 0.45428 0.45749 0.58329 0.0
H788 H 0.38759 0.52526 0.63737 0.0
H789 H 0.30163 0.50622 0.68761 0.0
H790 H 0.38402 0.51932 0.54144 0.0
H791 H 0.52592 0.50627 0.65042 0.0
H792 H 0.59101 0.48629 0.70205 0.0
H793 H 0.68235 0.44899 0.57779 0.0
H794 H 0.61525 0.46739 0.52605 0.0
H795 H 0.61752 0.58941 0.40438 0.0
H796 H 0.53313 0.5701 0.45493 0.0
H797 H 0.60582 0.50249 0.405 0.0
H798 H 0.69002 0.52197 0.35356 0.0
H799 H 0.60706 0.50857 0.49962 0.0
H800 H 0.4611 0.51856 0.39236 0.0
H801 H 0.3912 0.53591 0.34108 0.0
H802 H 0.30795 0.57788 0.46142 0.0
H803 H 0.37891 0.56163 0.5128 0.0
C804 C 0.37426 0.4573 0.63702 0.0
C805 C 0.32871 0.47092 0.66466 0.0
C806 C 0.42329 0.46818 0.60808 0.0
C807 C 0.427 0.49281 0.60622 0.0
C808 C 0.3855 0.50622 0.63823 0.0
C809 C 0.33668 0.49534 0.66726 0.0
C810 C 0.46434 0.50439 0.56423 0.0
C811 C 0.43312 0.51741 0.53276 0.0
C812 C 0.52787 0.50084 0.55195 0.0
C813 C 0.56463 0.48808 0.58425 0.0
C814 C 0.55854 0.49328 0.63425 0.0
C815 C 0.59595 0.4822 0.66365 0.0
C816 C 0.64051 0.46621 0.64337 0.0
C817 C 0.64725 0.46106 0.59376 0.0
C818 C 0.60922 0.47171 0.56442 0.0
C819 C 0.61302 0.57056 0.40114 0.0
C820 C 0.65976 0.55722 0.37426 0.0
C821 C 0.56504 0.55944 0.43082 0.0
C822 C 0.56351 0.53482 0.43426 0.0
C823 C 0.60623 0.52152 0.40304 0.0
C824 C 0.65401 0.53265 0.37325 0.0
C825 C 0.52666 0.52339 0.47676 0.0
C826 C 0.55799 0.51047 0.50838 0.0
C827 C 0.46318 0.5269 0.48914 0.0
C828 C 0.42593 0.53898 0.45641 0.0
C829 C 0.42908 0.53197 0.40757 0.0
C830 C 0.38898 0.54154 0.3785 0.0
C831 C 0.34514 0.55799 0.39795 0.0
C832 C 0.34221 0.56532 0.44618 0.0
C833 C 0.38255 0.55599 0.47525 0.0
H834 H 0.31338 0.56503 0.37565 0.0
H835 H 0.67004 0.45794 0.66604 0.0
loop_
_geom_bond_atom_site_label_1
_geom_bond_atom_site_label_2
_geom_bond_distance
_geom_bond_site_symmetry_2
_ccdc_geom_bond_type
Zn0 N4 2.020 . S
Zn0 O8 2.019 . S
Zn0 N10 2.119 . S
Zn0 O18 1.975 . S
C1 N2 1.334 . S
C1 N5 1.336 . S
N2 C1 1.334 . S
N2 C3 1.334 . S
C3 N2 1.334 . S
C3 N4 1.336 . S
N4 Zn0 2.020 . S
N4 C3 1.336 . S
N4 N5 1.354 . S
N5 C1 1.336 . S
N5 N4 1.354 . S
N5 Zn9 2.020 . S
C6 O7 1.244 . S
C6 O30 1.257 . S
O7 C6 1.244 . S
O8 Zn0 2.019 . S
O8 C28 1.257 . S
Zn9 N5 2.020 . S
Zn9 O16 1.975 . S
Zn9 N25 2.119 . S
Zn9 O30 2.019 . S
N10 Zn0 2.119 . S
N10 C12 1.334 . S
N10 C13 1.328 . S
C11 C12 1.391 . S
C11 N14 1.329 . S
C11 H32 0.930 . S
C12 N10 1.334 . S
C12 C11 1.391 . S
C12 H19 0.930 . S
C13 N10 1.328 . S
C13 C15 1.392 . S
C13 H20 0.930 . S
N14 C11 1.329 . S
N14 C15 1.331 . S
C15 C13 1.392 . S
C15 N14 1.331 . S
O16 Zn9 1.975 . S
O16 C17 1.252 . S
C17 O16 1.252 . S
C17 O18 1.252 . S
O18 Zn0 1.975 . S
O18 C17 1.252 . S
H19 C12 0.930 . S
H20 C13 0.930 . S
C21 C22 1.392 . S
C21 N25 1.328 . S
C21 H27 0.930 . S
C22 C21 1.392 . S
C22 N26 1.331 . S
C23 C24 1.391 . S
C23 N26 1.329 . S
C23 H33 0.930 . S
C24 C23 1.391 . S
C24 N25 1.334 . S
C24 H31 0.930 . S
N25 Zn9 2.119 . S
N25 C21 1.328 . S
N25 C24 1.334 . S
N26 C22 1.331 . S
N26 C23 1.329 . S
H27 C21 0.930 . S
C28 O8 1.257 . S
C28 O29 1.244 . S
O29 C28 1.244 . S
O30 C6 1.257 . S
O30 Zn9 2.019 . S
H31 C24 0.930 . S
H32 C11 0.930 . S
H33 C23 0.930 . S
Zn34 N38 2.020 . S
Zn34 O42 2.019 . S
Zn34 N44 2.119 . S
Zn34 O52 1.975 . S
C35 N36 1.334 . S
C35 N39 1.336 . S
N36 C35 1.334 . S
N36 C37 1.334 . S
C37 N36 1.334 . S
C37 N38 1.336 . S
N38 Zn34 2.020 . S
N38 C37 1.336 . S
N38 N39 1.354 . S
N39 C35 1.336 . S
N39 N38 1.354 . S
N39 Zn43 2.020 . S
C40 O41 1.244 . S
C40 O64 1.257 . S
O41 C40 1.244 . S
O42 Zn34 2.019 . S
O42 C62 1.257 . S
Zn43 N39 2.020 . S
Zn43 O50 1.975 . S
Zn43 N59 2.119 . S
Zn43 O64 2.019 . S
N44 Zn34 2.119 . S
N44 C46 1.334 . S
N44 C47 1.328 . S
C45 C46 1.391 . S
C45 N48 1.329 . S
C45 H66 0.930 . S
C46 N44 1.334 . S
C46 C45 1.391 . S
C46 H53 0.930 . S
C47 N44 1.328 . S
C47 C49 1.392 . S
C47 H54 0.930 . S
N48 C45 1.329 . S
N48 C49 1.331 . S
C49 C47 1.392 . S
C49 N48 1.331 . S
O50 Zn43 1.975 . S
O50 C51 1.252 . S
C51 O50 1.252 . S
C51 O52 1.252 . S
O52 Zn34 1.975 . S
O52 C51 1.252 . S
H53 C46 0.930 . S
H54 C47 0.930 . S
C55 C56 1.392 . S
C55 N59 1.328 . S
C55 H61 0.930 . S
C56 C55 1.392 . S
C56 N60 1.331 . S
C57 C58 1.391 . S
C57 N60 1.329 . S
C57 H67 0.930 . S
C58 C57 1.391 . S
C58 N59 1.334 . S
C58 H65 0.930 . S
N59 Zn43 2.119 . S
N59 C55 1.328 . S
N59 C58 1.334 . S
N60 C56 1.331 . S
N60 C57 1.329 . S
H61 C55 0.930 . S
C62 O42 1.257 . S
C62 O63 1.244 . S
O63 C62 1.244 . S
O64 C40 1.257 . S
O64 Zn43 2.019 . S
H65 C58 0.930 . S
H66 C45 0.930 . S
H67 C57 0.930 . S
Zn68 N72 2.020 . S
Zn68 O76 2.019 . S
Zn68 N78 2.119 . S
Zn68 O86 1.975 . S
C69 N70 1.334 . S
C69 N73 1.336 . S
N70 C69 1.334 . S
N70 C71 1.334 . S
C71 N70 1.334 . S
C71 N72 1.336 . S
N72 Zn68 2.020 . S
N72 C71 1.336 . S
N72 N73 1.354 . S
N73 C69 1.336 . S
N73 N72 1.354 . S
N73 Zn77 2.020 . S
C74 O75 1.244 . S
C74 O98 1.257 . S
O75 C74 1.244 . S
O76 Zn68 2.019 . S
O76 C96 1.257 . S
Zn77 N73 2.020 . S
Zn77 O84 1.975 . S
Zn77 N93 2.119 . S
Zn77 O98 2.019 . S
N78 Zn68 2.119 . S
N78 C80 1.334 . S
N78 C81 1.328 . S
C79 C80 1.391 . S
C79 N82 1.329 . S
C79 H100 0.930 . S
C80 N78 1.334 . S
C80 C79 1.391 . S
C80 H87 0.930 . S
C81 N78 1.328 . S
C81 C83 1.392 . S
C81 H88 0.930 . S
N82 C79 1.329 . S
N82 C83 1.331 . S
C83 C81 1.392 . S
C83 N82 1.331 . S
O84 Zn77 1.975 . S
O84 C85 1.252 . S
C85 O84 1.252 . S
C85 O86 1.252 . S
O86 Zn68 1.975 . S
O86 C85 1.252 . S
H87 C80 0.930 . S
H88 C81 0.930 . S
C89 C90 1.392 . S
C89 N93 1.328 . S
C89 H95 0.930 . S
C90 C89 1.392 . S
C90 N94 1.331 . S
C91 C92 1.391 . S
C91 N94 1.329 . S
C91 H101 0.930 . S
C92 C91 1.391 . S
C92 N93 1.334 . S
C92 H99 0.930 . S
N93 Zn77 2.119 . S
N93 C89 1.328 . S
N93 C92 1.334 . S
N94 C90 1.331 . S
N94 C91 1.329 . S
H95 C89 0.930 . S
C96 O76 1.257 . S
C96 O97 1.244 . S
O97 C96 1.244 . S
O98 C74 1.257 . S
O98 Zn77 2.019 . S
H99 C92 0.930 . S
H100 C79 0.930 . S
H101 C91 0.930 . S
Zn102 N106 2.020 . S
Zn102 O110 2.019 . S
Zn102 N112 2.119 . S
Zn102 O120 1.975 . S
C103 N104 1.334 . S
C103 N107 1.336 . S
N104 C103 1.334 . S
N104 C105 1.334 . S
C105 N104 1.334 . S
C105 N106 1.336 . S
N106 Zn102 2.020 . S
N106 C105 1.336 . S
N106 N107 1.354 . S
N107 C103 1.336 . S
N107 N106 1.354 . S
N107 Zn111 2.020 . S
C108 O109 1.244 . S
C108 O132 1.257 . S
O109 C108 1.244 . S
O110 Zn102 2.019 . S
O110 C130 1.257 . S
Zn111 N107 2.020 . S
Zn111 O118 1.975 . S
Zn111 N127 2.119 . S
Zn111 O132 2.019 . S
N112 Zn102 2.119 . S
N112 C114 1.334 . S
N112 C115 1.328 . S
C113 C114 1.391 . S
C113 N116 1.329 . S
C113 H134 0.930 . S
C114 N112 1.334 . S
C114 C113 1.391 . S
C114 H121 0.930 . S
C115 N112 1.328 . S
C115 C117 1.392 . S
C115 H122 0.930 . S
N116 C113 1.329 . S
N116 C117 1.331 . S
C117 C115 1.392 . S
C117 N116 1.331 . S
O118 Zn111 1.975 . S
O118 C119 1.252 . S
C119 O118 1.252 . S
C119 O120 1.252 . S
O120 Zn102 1.975 . S
O120 C119 1.252 . S
H121 C114 0.930 . S
H122 C115 0.930 . S
C123 C124 1.392 . S
C123 N127 1.328 . S
C123 H129 0.930 . S
C124 C123 1.392 . S
C124 N128 1.331 . S
C125 C126 1.391 . S
C125 N128 1.329 . S
C125 H135 0.930 . S
C126 C125 1.391 . S
C126 N127 1.334 . S
C126 H133 0.930 . S
N127 Zn111 2.119 . S
N127 C123 1.328 . S
N127 C126 1.334 . S
N128 C124 1.331 . S
N128 C125 1.329 . S
H129 C123 0.930 . S
C130 O110 1.257 . S
C130 O131 1.244 . S
O131 C130 1.244 . S
O132 C108 1.257 . S
O132 Zn111 2.019 . S
H133 C126 0.930 . S
H134 C113 0.930 . S
H135 C125 0.930 . S
H136 C154 0.951 . S
H137 C156 0.951 . S
H138 C158 0.950 . S
H139 C159 0.950 . S
H140 C161 0.950 . S
H141 C164 0.950 . S
H142 C165 0.950 . S
H143 C167 0.950 . S
H144 C168 0.950 . S
H145 C169 0.945 1_455 S
H146 C171 0.951 . S
H147 C173 0.950 . S
H148 C174 0.950 . S
H149 C176 0.950 . S
H150 C179 0.950 . S
H151 C180 0.950 . S
H152 C182 0.950 . S
H153 C183 0.950 . S
C154 H136 0.951 . S
C154 C155 1.366 . S
C154 C156 1.388 . S
C155 C154 1.366 . S
C155 C159 1.385 . S
C156 H137 0.951 . S
C156 C154 1.388 . S
C156 C157 1.366 . S
C157 C156 1.366 . S
C157 C158 1.414 . S
C157 C160 1.499 . S
C158 H138 0.950 . S
C158 C157 1.414 . S
C158 C159 1.374 . S
C159 H139 0.950 . S
C159 C155 1.385 . S
C159 C158 1.374 . S
C160 C157 1.499 . S
C160 C161 1.373 . S
C160 C162 1.389 . S
C161 H140 0.950 . S
C161 C160 1.373 . S
C161 C177 1.377 . S
C162 C160 1.389 . S
C162 C163 1.524 . S
C162 C176 1.377 . S
C163 C162 1.524 . S
C163 C164 1.397 . S
C163 C168 1.363 . S
C164 H141 0.950 . S
C164 C163 1.397 . S
C164 C165 1.334 . S
C165 H142 0.950 . S
C165 C164 1.334 . S
C165 C166 1.287 . S
C166 C165 1.287 . S
C166 C167 1.524 . S
C166 H185 0.913 . S
C167 H143 0.950 . S
C167 C166 1.524 . S
C167 C168 1.415 . S
C168 H144 0.950 . S
C168 C163 1.363 . S
C168 C167 1.415 . S
C169 H145 0.945 1_655 S
C169 C170 1.366 . S
C169 C171 1.388 . S
C170 C169 1.366 . S
C170 C174 1.385 . S
C171 H146 0.951 . S
C171 C169 1.388 . S
C171 C172 1.366 . S
C172 C171 1.366 . S
C172 C173 1.414 . S
C172 C175 1.499 . S
C173 H147 0.950 . S
C173 C172 1.414 . S
C173 C174 1.374 . S
C174 H148 0.950 . S
C174 C170 1.385 . S
C174 C173 1.374 . S
C175 C172 1.499 . S
C175 C176 1.373 . S
C175 C177 1.389 . S
C176 H149 0.950 . S
C176 C162 1.377 . S
C176 C175 1.373 . S
C177 C161 1.377 . S
C177 C175 1.389 . S
C177 C178 1.524 . S
C178 C177 1.524 . S
C178 C179 1.397 . S
C178 C183 1.363 . S
C179 H150 0.950 . S
C179 C178 1.397 . S
C179 C180 1.334 . S
C180 H151 0.950 . S
C180 C179 1.334 . S
C180 C181 1.287 . S
C181 C180 1.287 . S
C181 C182 1.524 . S
C181 H184 0.999 . S
C182 H152 0.950 . S
C182 C181 1.524 . S
C182 C183 1.415 . S
C183 H153 0.950 . S
C183 C178 1.363 . S
C183 C182 1.415 . S
H184 C181 0.999 . S
H185 C166 0.913 . S
H186 C204 0.951 . S
H187 C206 0.951 . S
H188 C208 0.950 . S
H189 C209 0.950 . S
H190 C211 0.950 . S
H191 C214 0.950 . S
H192 C215 0.950 . S
H193 C217 0.950 . S
H194 C218 0.950 . S
H195 C219 0.951 . S
H196 C221 0.951 . S
H197 C223 0.950 . S
H198 C224 0.950 . S
H199 C226 0.950 . S
H200 C229 0.950 . S
H201 C230 0.950 . S
H202 C232 0.950 . S
H203 C233 0.950 . S
C204 H186 0.951 . S
C204 C205 1.366 . S
C204 C206 1.388 . S
C205 C204 1.366 . S
C205 C209 1.385 . S
C206 H187 0.951 . S
C206 C204 1.388 . S
C206 C207 1.366 . S
C207 C206 1.366 . S
C207 C208 1.414 . S
C207 C210 1.499 . S
C208 H188 0.950 . S
C208 C207 1.414 . S
C208 C209 1.374 . S
C209 H189 0.950 . S
C209 C205 1.385 . S
C209 C208 1.374 . S
C210 C207 1.499 . S
C210 C211 1.373 . S
C210 C212 1.389 . S
C211 H190 0.950 . S
C211 C210 1.373 . S
C211 C227 1.377 . S
C212 C210 1.389 . S
C212 C213 1.524 . S
C212 C226 1.377 . S
C213 C212 1.524 . S
C213 C214 1.397 . S
C213 C218 1.363 . S
C214 H191 0.950 . S
C214 C213 1.397 . S
C214 C215 1.334 . S
C215 H192 0.950 . S
C215 C214 1.334 . S
C215 C216 1.287 . S
C216 C215 1.287 . S
C216 C217 1.524 . S
C216 H235 0.913 . S
C217 H193 0.950 . S
C217 C216 1.524 . S
C217 C218 1.415 . S
C218 H194 0.950 . S
C218 C213 1.363 . S
C218 C217 1.415 . S
C219 H195 0.951 . S
C219 C220 1.366 . S
C219 C221 1.388 . S
C220 C219 1.366 . S
C220 C224 1.385 . S
C221 H196 0.951 . S
C221 C219 1.388 . S
C221 C222 1.366 . S
C222 C221 1.366 . S
C222 C223 1.414 . S
C222 C225 1.499 . S
C223 H197 0.950 . S
C223 C222 1.414 . S
C223 C224 1.374 . S
C224 H198 0.950 . S
C224 C220 1.385 . S
C224 C223 1.374 . S
C225 C222 1.499 . S
C225 C226 1.373 . S
C225 C227 1.389 . S
C226 H199 0.950 . S
C226 C212 1.377 . S
C226 C225 1.373 . S
C227 C211 1.377 . S
C227 C225 1.389 . S
C227 C228 1.524 . S
C228 C227 1.524 . S
C228 C229 1.397 . S
C228 C233 1.363 . S
C229 H200 0.950 . S
C229 C228 1.397 . S
C229 C230 1.334 . S
C230 H201 0.950 . S
C230 C229 1.334 . S
C230 C231 1.287 . S
C231 C230 1.287 . S
C231 C232 1.524 . S
C231 H234 0.999 . S
C232 H202 0.950 . S
C232 C231 1.524 . S
C232 C233 1.415 . S
C233 H203 0.950 . S
C233 C228 1.363 . S
C233 C232 1.415 . S
H234 C231 0.999 . S
H235 C216 0.913 . S
H236 C254 0.951 . S
H237 C256 0.951 . S
H238 C258 0.950 . S
H239 C259 0.950 . S
H240 C261 0.950 . S
H241 C264 0.950 . S
H242 C265 0.950 . S
H243 C267 0.950 . S
H244 C268 0.950 . S
H245 C269 0.951 . S
H246 C271 0.951 . S
H247 C273 0.950 . S
H248 C274 0.950 . S
H249 C276 0.950 . S
H250 C279 0.950 . S
H251 C280 0.950 . S
H252 C282 0.950 . S
H253 C283 0.950 . S
C254 H236 0.951 . S
C254 C255 1.366 . S
C254 C256 1.388 . S
C255 C254 1.366 . S
C255 C259 1.385 . S
C256 H237 0.951 . S
C256 C254 1.388 . S
C256 C257 1.366 . S
C257 C256 1.366 . S
C257 C258 1.414 . S
C257 C260 1.499 . S
C258 H238 0.950 . S
C258 C257 1.414 . S
C258 C259 1.374 . S
C259 H239 0.950 . S
C259 C255 1.385 . S
C259 C258 1.374 . S
C260 C257 1.499 . S
C260 C261 1.373 . S
C260 C262 1.389 . S
C261 H240 0.950 . S
C261 C260 1.373 . S
C261 C277 1.377 . S
C262 C260 1.389 . S
C262 C263 1.524 . S
C262 C276 1.377 . S
C263 C262 1.524 . S
C263 C264 1.397 . S
C263 C268 1.363 . S
C264 H241 0.950 . S
C264 C263 1.397 . S
C264 C265 1.334 . S
C265 H242 0.950 . S
C265 C264 1.334 . S
C265 C266 1.287 . S
C266 C265 1.287 . S
C266 C267 1.524 . S
C266 H285 0.913 . S
C267 H243 0.950 . S
C267 C266 1.524 . S
C267 C268 1.415 . S
C268 H244 0.950 . S
C268 C263 1.363 . S
C268 C267 1.415 . S
C269 H245 0.951 . S
C269 C270 1.366 . S
C269 C271 1.388 . S
C270 C269 1.366 . S
C270 C274 1.385 . S
C271 H246 0.951 . S
C271 C269 1.388 . S
C271 C272 1.366 . S
C272 C271 1.366 . S
C272 C273 1.414 . S
C272 C275 1.499 . S
C273 H247 0.950 . S
C273 C272 1.414 . S
C273 C274 1.374 . S
C274 H248 0.950 . S
C274 C270 1.385 . S
C274 C273 1.374 . S
C275 C272 1.499 . S
C275 C276 1.373 . S
C275 C277 1.389 . S
C276 H249 0.950 . S
C276 C262 1.377 . S
C276 C275 1.373 . S
C277 C261 1.377 . S
C277 C275 1.389 . S
C277 C278 1.524 . S
C278 C277 1.524 . S
C278 C279 1.397 . S
C278 C283 1.363 . S
C279 H250 0.950 . S
C279 C278 1.397 . S
C279 C280 1.334 . S
C280 H251 0.950 . S
C280 C279 1.334 . S
C280 C281 1.287 . S
C281 C280 1.287 . S
C281 C282 1.524 . S
C281 H284 0.999 . S
C282 H252 0.950 . S
C282 C281 1.524 . S
C282 C283 1.415 . S
C283 H253 0.950 . S
C283 C278 1.363 . S
C283 C282 1.415 . S
H284 C281 0.999 . S
H285 C266 0.913 . S
H286 C304 0.946 1_455 S
H287 C306 0.951 . S
H288 C308 0.950 . S
H289 C309 0.950 . S
H290 C311 0.950 . S
H291 C314 0.950 . S
H292 C315 0.950 . S
H293 C317 0.950 . S
H294 C318 0.950 . S
H295 C319 0.951 . S
H296 C321 0.951 . S
H297 C323 0.950 . S
H298 C324 0.950 . S
H299 C326 0.950 . S
H300 C329 0.950 . S
H301 C330 0.950 . S
H302 C332 0.950 . S
H303 C333 0.950 . S
C304 H286 0.946 1_655 S
C304 C305 1.366 . S
C304 C306 1.388 . S
C305 C304 1.366 . S
C305 C309 1.385 . S
C306 H287 0.951 . S
C306 C304 1.388 . S
C306 C307 1.366 . S
C307 C306 1.366 . S
C307 C308 1.414 . S
C307 C310 1.499 . S
C308 H288 0.950 . S
C308 C307 1.414 . S
C308 C309 1.374 . S
C309 H289 0.950 . S
C309 C305 1.385 . S
C309 C308 1.374 . S
C310 C307 1.499 . S
C310 C311 1.373 . S
C310 C312 1.389 . S
C311 H290 0.950 . S
C311 C310 1.373 . S
C311 C327 1.377 . S
C312 C310 1.389 . S
C312 C313 1.524 . S
C312 C326 1.377 . S
C313 C312 1.524 . S
C313 C314 1.397 . S
C313 C318 1.363 . S
C314 H291 0.950 . S
C314 C313 1.397 . S
C314 C315 1.334 . S
C315 H292 0.950 . S
C315 C314 1.334 . S
C315 C316 1.287 . S
C316 C315 1.287 . S
C316 C317 1.524 . S
C316 H335 0.913 . S
C317 H293 0.950 . S
C317 C316 1.524 . S
C317 C318 1.415 . S
C318 H294 0.950 . S
C318 C313 1.363 . S
C318 C317 1.415 . S
C319 H295 0.951 . S
C319 C320 1.366 . S
C319 C321 1.388 . S
C320 C319 1.366 . S
C320 C324 1.385 . S
C321 H296 0.951 . S
C321 C319 1.388 . S
C321 C322 1.366 . S
C322 C321 1.366 . S
C322 C323 1.414 . S
C322 C325 1.499 . S
C323 H297 0.950 . S
C323 C322 1.414 . S
C323 C324 1.374 . S
C324 H298 0.950 . S
C324 C320 1.385 . S
C324 C323 1.374 . S
C325 C322 1.499 . S
C325 C326 1.373 . S
C325 C327 1.389 . S
C326 H299 0.950 . S
C326 C312 1.377 . S
C326 C325 1.373 . S
C327 C311 1.377 . S
C327 C325 1.389 . S
C327 C328 1.524 . S
C328 C327 1.524 . S
C328 C329 1.397 . S
C328 C333 1.363 . S
C329 H300 0.950 . S
C329 C328 1.397 . S
C329 C330 1.334 . S
C330 H301 0.950 . S
C330 C329 1.334 . S
C330 C331 1.287 . S
C331 C330 1.287 . S
C331 C332 1.524 . S
C331 H334 0.999 . S
C332 H302 0.950 . S
C332 C331 1.524 . S
C332 C333 1.415 . S
C333 H303 0.950 . S
C333 C328 1.363 . S
C333 C332 1.415 . S
H334 C331 0.999 . S
H335 C316 0.913 . S
H336 C354 0.951 . S
H337 C356 0.951 1_565 S
H338 C358 0.950 . S
H339 C359 0.950 . S
H340 C361 0.950 . S
H341 C364 0.950 . S
H342 C365 0.950 . S
H343 C367 0.950 . S
H344 C368 0.950 . S
H345 C369 0.951 . S
H346 C371 0.951 1_545 S
H347 C373 0.950 . S
H348 C374 0.950 . S
H349 C376 0.950 . S
H350 C379 0.950 . S
H351 C380 0.950 . S
H352 C382 0.950 . S
H353 C383 0.950 . S
C354 H336 0.951 . S
C354 C355 1.366 . S
C354 C356 1.388 . S
C355 C354 1.366 . S
C355 C359 1.385 . S
C356 H337 0.951 1_545 S
C356 C354 1.388 . S
C356 C357 1.366 . S
C357 C356 1.366 . S
C357 C358 1.414 . S
C357 C360 1.499 . S
C358 H338 0.950 . S
C358 C357 1.414 . S
C358 C359 1.374 . S
C359 H339 0.950 . S
C359 C355 1.385 . S
C359 C358 1.374 . S
C360 C357 1.499 . S
C360 C361 1.373 . S
C360 C362 1.389 1_545 S
C361 H340 0.950 . S
C361 C360 1.373 . S
C361 C377 1.377 . S
C362 C360 1.389 1_565 S
C362 C363 1.524 . S
C362 C376 1.377 . S
C363 C362 1.524 . S
C363 C364 1.397 1_565 S
C363 C368 1.363 . S
C364 H341 0.950 . S
C364 C363 1.397 1_545 S
C364 C365 1.334 . S
C365 H342 0.950 . S
C365 C364 1.334 . S
C365 C366 1.287 1_545 S
C366 C365 1.287 1_565 S
C366 C367 1.524 . S
C366 H385 0.913 . S
C367 H343 0.950 . S
C367 C366 1.524 . S
C367 C368 1.415 . S
C368 H344 0.950 . S
C368 C363 1.363 . S
C368 C367 1.415 . S
C369 H345 0.951 . S
C369 C370 1.366 . S
C369 C371 1.388 . S
C370 C369 1.366 . S
C370 C374 1.385 . S
C371 H346 0.951 1_565 S
C371 C369 1.388 . S
C371 C372 1.366 . S
C372 C371 1.366 . S
C372 C373 1.414 . S
C372 C375 1.499 . S
C373 H347 0.950 . S
C373 C372 1.414 . S
C373 C374 1.374 . S
C374 H348 0.950 . S
C374 C370 1.385 . S
C374 C373 1.374 . S
C375 C372 1.499 . S
C375 C376 1.373 . S
C375 C377 1.389 1_565 S
C376 H349 0.950 . S
C376 C362 1.377 . S
C376 C375 1.373 . S
C377 C361 1.377 . S
C377 C375 1.389 1_545 S
C377 C378 1.524 . S
C378 C377 1.524 . S
C378 C379 1.397 1_545 S
C378 C383 1.363 . S
C379 H350 0.950 . S
C379 C378 1.397 1_565 S
C379 C380 1.334 . S
C380 H351 0.950 . S
C380 C379 1.334 . S
C380 C381 1.287 1_565 S
C381 C380 1.287 1_545 S
C381 C382 1.524 . S
C381 H384 0.999 . S
C382 H352 0.950 . S
C382 C381 1.524 . S
C382 C383 1.415 . S
C383 H353 0.950 . S
C383 C378 1.363 . S
C383 C382 1.415 . S
H384 C381 0.999 . S
H385 C366 0.913 . S
H386 C404 0.951 . S
H387 C406 0.951 . S
H388 C408 0.950 . S
H389 C409 0.950 . S
H390 C411 0.950 . S
H391 C414 0.950 . S
H392 C415 0.950 . S
H393 C417 0.950 . S
H394 C418 0.950 . S
H395 C419 0.951 . S
H396 C421 0.951 . S
H397 C423 0.950 . S
H398 C424 0.950 . S
H399 C426 0.950 . S
H400 C429 0.950 . S
H401 C430 0.950 . S
H402 C432 0.950 . S
H403 C433 0.950 . S
C404 H386 0.951 . S
C404 C405 1.366 . S
C404 C406 1.388 . S
C405 C404 1.366 . S
C405 C409 1.385 . S
C406 H387 0.951 . S
C406 C404 1.388 . S
C406 C407 1.366 . S
C407 C406 1.366 . S
C407 C408 1.414 . S
C407 C410 1.499 . S
C408 H388 0.950 . S
C408 C407 1.414 . S
C408 C409 1.374 . S
C409 H389 0.950 . S
C409 C405 1.385 . S
C409 C408 1.374 . S
C410 C407 1.499 . S
C410 C411 1.373 . S
C410 C412 1.389 1_556 S
C411 H390 0.950 . S
C411 C410 1.373 . S
C411 C427 1.377 . S
C412 C410 1.389 1_554 S
C412 C413 1.524 . S
C412 C426 1.377 . S
C413 C412 1.524 . S
C413 C414 1.397 . S
C413 C418 1.363 . S
C414 H391 0.950 . S
C414 C413 1.397 . S
C414 C415 1.334 . S
C415 H392 0.950 . S
C415 C414 1.334 . S
C415 C416 1.287 . S
C416 C415 1.287 . S
C416 C417 1.524 . S
C416 H435 0.913 . S
C417 H393 0.950 . S
C417 C416 1.524 . S
C417 C418 1.415 . S
C418 H394 0.950 . S
C418 C413 1.363 . S
C418 C417 1.415 . S
C419 H395 0.951 . S
C419 C420 1.366 . S
C419 C421 1.388 . S
C420 C419 1.366 . S
C420 C424 1.385 . S
C421 H396 0.951 . S
C421 C419 1.388 . S
C421 C422 1.366 . S
C422 C421 1.366 . S
C422 C423 1.414 . S
C422 C425 1.499 . S
C423 H397 0.950 . S
C423 C422 1.414 . S
C423 C424 1.374 . S
C424 H398 0.950 . S
C424 C420 1.385 . S
C424 C423 1.374 . S
C425 C422 1.499 . S
C425 C426 1.373 . S
C425 C427 1.389 1_554 S
C426 H399 0.950 . S
C426 C412 1.377 . S
C426 C425 1.373 . S
C427 C411 1.377 . S
C427 C425 1.389 1_556 S
C427 C428 1.524 . S
C428 C427 1.524 . S
C428 C429 1.397 . S
C428 C433 1.363 . S
C429 H400 0.950 . S
C429 C428 1.397 . S
C429 C430 1.334 . S
C430 H401 0.950 . S
C430 C429 1.334 . S
C430 C431 1.287 . S
C431 C430 1.287 . S
C431 C432 1.524 . S
C431 H434 0.999 . S
C432 H402 0.950 . S
C432 C431 1.524 . S
C432 C433 1.415 . S
C433 H403 0.950 . S
C433 C428 1.363 . S
C433 C432 1.415 . S
H434 C431 0.999 . S
H435 C416 0.913 . S
H436 C454 0.951 . S
H437 C456 0.951 1_554 S
H438 C458 0.950 . S
H439 C459 0.950 . S
H440 C461 0.950 . S
H441 C464 0.950 1_546 S
H442 C465 0.946 1_545 S
H443 C467 0.950 . S
H444 C468 0.950 . S
H445 C469 0.951 . S
H446 C471 0.951 1_556 S
H447 C473 0.950 . S
H448 C474 0.950 . S
H449 C476 0.950 . S
H450 C479 0.950 1_564 S
H451 C480 0.946 1_565 S
H452 C482 0.950 . S
H453 C483 0.950 . S
C454 H436 0.951 . S
C454 C455 1.366 . S
C454 C456 1.388 . S
C455 C454 1.366 . S
C455 C459 1.385 . S
C456 H437 0.951 1_556 S
C456 C454 1.388 . S
C456 C457 1.366 . S
C457 C456 1.366 . S
C457 C458 1.414 . S
C457 C460 1.499 . S
C458 H438 0.950 . S
C458 C457 1.414 . S
C458 C459 1.374 . S
C459 H439 0.950 . S
C459 C455 1.385 . S
C459 C458 1.374 . S
C460 C457 1.499 . S
C460 C461 1.373 1_655 S
C460 C462 1.389 1_556 S
C461 H440 0.950 . S
C461 C460 1.373 1_455 S
C461 C477 1.377 1_565 S
C462 C460 1.389 1_554 S
C462 C463 1.524 . S
C462 C476 1.377 1_565 S
C463 C462 1.524 . S
C463 C464 1.397 . S
C463 C468 1.363 . S
C464 H441 0.950 1_564 S
C464 C463 1.397 . S
C464 C465 1.334 . S
C465 H442 0.946 1_565 S
C465 C464 1.334 . S
C465 C466 1.287 . S
C466 C465 1.287 . S
C466 C467 1.524 . S
C466 H485 0.913 . S
C467 H443 0.950 . S
C467 C466 1.524 . S
C467 C468 1.415 . S
C468 H444 0.950 . S
C468 C463 1.363 . S
C468 C467 1.415 . S
C469 H445 0.951 . S
C469 C470 1.366 . S
C469 C471 1.388 . S
C470 C469 1.366 . S
C470 C474 1.385 . S
C471 H446 0.951 1_554 S
C471 C469 1.388 . S
C471 C472 1.366 . S
C472 C471 1.366 . S
C472 C473 1.414 . S
C472 C475 1.499 . S
C473 H447 0.950 . S
C473 C472 1.414 . S
C473 C474 1.374 . S
C474 H448 0.950 . S
C474 C470 1.385 . S
C474 C473 1.374 . S
C475 C472 1.499 . S
C475 C476 1.373 1_455 S
C475 C477 1.389 1_554 S
C476 H449 0.950 . S
C476 C462 1.377 1_545 S
C476 C475 1.373 1_655 S
C477 C461 1.377 1_545 S
C477 C475 1.389 1_556 S
C477 C478 1.524 . S
C478 C477 1.524 . S
C478 C479 1.397 . S
C478 C483 1.363 . S
C479 H450 0.950 1_546 S
C479 C478 1.397 . S
C479 C480 1.334 . S
C480 H451 0.946 1_545 S
C480 C479 1.334 . S
C480 C481 1.287 . S
C481 C480 1.287 . S
C481 C482 1.524 . S
C481 H484 0.999 . S
C482 H452 0.950 . S
C482 C481 1.524 . S
C482 C483 1.415 . S
C483 H453 0.950 . S
C483 C478 1.363 . S
C483 C482 1.415 . S
H484 C481 0.999 . S
H485 C466 0.913 . S
H486 C504 0.951 . S
H487 C506 0.951 . S
H488 C508 0.950 . S
H489 C509 0.950 . S
H490 C511 0.950 . S
H491 C514 0.950 . S
H492 C515 0.950 . S
H493 C517 0.950 . S
H494 C518 0.950 . S
H495 C519 0.951 . S
H496 C521 0.951 . S
H497 C523 0.950 . S
H498 C524 0.950 . S
H499 C526 0.950 . S
H500 C529 0.950 . S
H501 C530 0.950 . S
H502 C532 0.950 . S
H503 C533 0.950 . S
C504 H486 0.951 . S
C504 C505 1.366 . S
C504 C506 1.388 . S
C505 C504 1.366 . S
C505 C509 1.385 . S
C506 H487 0.951 . S
C506 C504 1.388 . S
C506 C507 1.366 . S
C507 C506 1.366 . S
C507 C508 1.414 . S
C507 C510 1.499 . S
C508 H488 0.950 . S
C508 C507 1.414 . S
C508 C509 1.374 . S
C509 H489 0.950 . S
C509 C505 1.385 . S
C509 C508 1.374 . S
C510 C507 1.499 . S
C510 C511 1.373 1_455 S
C510 C512 1.389 . S
C511 H490 0.950 . S
C511 C510 1.373 1_655 S
C511 C527 1.377 . S
C512 C510 1.389 . S
C512 C513 1.524 . S
C512 C526 1.377 . S
C513 C512 1.524 . S
C513 C514 1.397 . S
C513 C518 1.363 . S
C514 H491 0.950 . S
C514 C513 1.397 . S
C514 C515 1.334 . S
C515 H492 0.950 . S
C515 C514 1.334 . S
C515 C516 1.287 . S
C516 C515 1.287 . S
C516 C517 1.524 . S
C516 H535 0.913 . S
C517 H493 0.950 . S
C517 C516 1.524 . S
C517 C518 1.415 . S
C518 H494 0.950 . S
C518 C513 1.363 . S
C518 C517 1.415 . S
C519 H495 0.951 . S
C519 C520 1.366 . S
C519 C521 1.388 . S
C520 C519 1.366 . S
C520 C524 1.385 . S
C521 H496 0.951 . S
C521 C519 1.388 . S
C521 C522 1.366 . S
C522 C521 1.366 . S
C522 C523 1.414 . S
C522 C525 1.499 . S
C523 H497 0.950 . S
C523 C522 1.414 . S
C523 C524 1.374 . S
C524 H498 0.950 . S
C524 C520 1.385 . S
C524 C523 1.374 . S
C525 C522 1.499 . S
C525 C526 1.373 1_655 S
C525 C527 1.389 . S
C526 H499 0.950 . S
C526 C512 1.377 . S
C526 C525 1.373 1_455 S
C527 C511 1.377 . S
C527 C525 1.389 . S
C527 C528 1.524 . S
C528 C527 1.524 . S
C528 C529 1.397 . S
C528 C533 1.363 . S
C529 H500 0.950 . S
C529 C528 1.397 . S
C529 C530 1.334 . S
C530 H501 0.950 . S
C530 C529 1.334 . S
C530 C531 1.287 . S
C531 C530 1.287 . S
C531 C532 1.524 . S
C531 H534 0.999 . S
C532 H502 0.950 . S
C532 C531 1.524 . S
C532 C533 1.415 . S
C533 H503 0.950 . S
C533 C528 1.363 . S
C533 C532 1.415 . S
H534 C531 0.999 . S
H535 C516 0.913 . S
H536 C554 0.950 1_556 S
H537 C556 0.951 . S
H538 C558 0.950 . S
H539 C559 0.950 . S
H540 C561 0.950 . S
H541 C564 0.950 1_554 S
H542 C565 0.950 . S
H543 C567 0.950 . S
H544 C568 0.950 . S
H545 C569 0.951 . S
H546 C571 0.951 . S
H547 C573 0.950 . S
H548 C574 0.950 . S
H549 C576 0.950 . S
H550 C579 0.950 . S
H551 C580 0.950 . S
H552 C582 0.950 . S
H553 C583 0.950 . S
C554 H536 0.950 1_554 S
C554 C555 1.366 . S
C554 C556 1.388 1_554 S
C555 C554 1.366 . S
C555 C559 1.385 . S
C556 H537 0.951 . S
C556 C554 1.388 1_556 S
C556 C557 1.366 . S
C557 C556 1.366 . S
C557 C558 1.414 1_556 S
C557 C560 1.499 . S
C558 H538 0.950 . S
C558 C557 1.414 1_554 S
C558 C559 1.374 . S
C559 H539 0.950 . S
C559 C555 1.385 . S
C559 C558 1.374 . S
C560 C557 1.499 . S
C560 C561 1.373 . S
C560 C562 1.389 . S
C561 H540 0.950 . S
C561 C560 1.373 . S
C561 C577 1.377 . S
C562 C560 1.389 . S
C562 C563 1.524 . S
C562 C576 1.377 . S
C563 C562 1.524 . S
C563 C564 1.397 . S
C563 C568 1.363 . S
C564 H541 0.950 1_556 S
C564 C563 1.397 . S
C564 C565 1.334 1_556 S
C565 H542 0.950 . S
C565 C564 1.334 1_554 S
C565 C566 1.287 1_554 S
C566 C565 1.287 1_556 S
C566 C567 1.524 . S
C566 H585 0.913 . S
C567 H543 0.950 . S
C567 C566 1.524 . S
C567 C568 1.415 . S
C568 H544 0.950 . S
C568 C563 1.363 . S
C568 C567 1.415 . S
C569 H545 0.951 . S
C569 C570 1.366 . S
C569 C571 1.388 . S
C570 C569 1.366 . S
C570 C574 1.385 . S
C571 H546 0.951 . S
C571 C569 1.388 . S
C571 C572 1.366 . S
C572 C571 1.366 . S
C572 C573 1.414 . S
C572 C575 1.499 . S
C573 H547 0.950 . S
C573 C572 1.414 . S
C573 C574 1.374 . S
C574 H548 0.950 . S
C574 C570 1.385 . S
C574 C573 1.374 . S
C575 C572 1.499 . S
C575 C576 1.373 . S
C575 C577 1.389 . S
C576 H549 0.950 . S
C576 C562 1.377 . S
C576 C575 1.373 . S
C577 C561 1.377 . S
C577 C575 1.389 . S
C577 C578 1.524 . S
C578 C577 1.524 . S
C578 C579 1.397 . S
C578 C583 1.363 . S
C579 H550 0.950 . S
C579 C578 1.397 . S
C579 C580 1.334 . S
C580 H551 0.950 . S
C580 C579 1.334 . S
C580 C581 1.287 1_455 S
C581 C580 1.287 1_655 S
C581 C582 1.524 . S
C581 H584 0.999 . S
C582 H552 0.950 . S
C582 C581 1.524 . S
C582 C583 1.415 1_655 S
C583 H553 0.950 . S
C583 C578 1.363 . S
C583 C582 1.415 1_455 S
H584 C581 0.999 . S
H585 C566 0.913 . S
H586 C604 0.951 . S
H587 C606 0.951 . S
H588 C608 0.950 . S
H589 C609 0.950 . S
H590 C611 0.950 . S
H591 C614 0.950 . S
H592 C615 0.950 . S
H593 C617 0.950 . S
H594 C618 0.950 . S
H595 C619 0.951 . S
H596 C621 0.951 . S
H597 C623 0.950 . S
H598 C624 0.950 . S
H599 C626 0.950 . S
H600 C629 0.950 . S
H601 C630 0.950 . S
H602 C632 0.950 1_455 S
H603 C633 0.950 . S
C604 H586 0.951 . S
C604 C605 1.366 . S
C604 C606 1.388 . S
C605 C604 1.366 . S
C605 C609 1.385 . S
C606 H587 0.951 . S
C606 C604 1.388 . S
C606 C607 1.366 . S
C607 C606 1.366 . S
C607 C608 1.414 . S
C607 C610 1.499 . S
C608 H588 0.950 . S
C608 C607 1.414 . S
C608 C609 1.374 . S
C609 H589 0.950 . S
C609 C605 1.385 . S
C609 C608 1.374 . S
C610 C607 1.499 . S
C610 C611 1.373 . S
C610 C612 1.389 . S
C611 H590 0.950 . S
C611 C610 1.373 . S
C611 C627 1.377 . S
C612 C610 1.389 . S
C612 C613 1.524 . S
C612 C626 1.377 . S
C613 C612 1.524 . S
C613 C614 1.397 . S
C613 C618 1.363 . S
C614 H591 0.950 . S
C614 C613 1.397 . S
C614 C615 1.334 . S
C615 H592 0.950 . S
C615 C614 1.334 . S
C615 C616 1.287 . S
C616 C615 1.287 . S
C616 C617 1.524 . S
C616 H635 0.913 . S
C617 H593 0.950 . S
C617 C616 1.524 . S
C617 C618 1.415 . S
C618 H594 0.950 . S
C618 C613 1.363 . S
C618 C617 1.415 . S
C619 H595 0.951 . S
C619 C620 1.366 . S
C619 C621 1.388 . S
C620 C619 1.366 . S
C620 C624 1.385 . S
C621 H596 0.951 . S
C621 C619 1.388 . S
C621 C622 1.366 . S
C622 C621 1.366 . S
C622 C623 1.414 . S
C622 C625 1.499 . S
C623 H597 0.950 . S
C623 C622 1.414 . S
C623 C624 1.374 . S
C624 H598 0.950 . S
C624 C620 1.385 . S
C624 C623 1.374 . S
C625 C622 1.499 . S
C625 C626 1.373 . S
C625 C627 1.389 . S
C626 H599 0.950 . S
C626 C612 1.377 . S
C626 C625 1.373 . S
C627 C611 1.377 . S
C627 C625 1.389 . S
C627 C628 1.524 . S
C628 C627 1.524 . S
C628 C629 1.397 . S
C628 C633 1.363 . S
C629 H600 0.950 . S
C629 C628 1.397 . S
C629 C630 1.334 . S
C630 H601 0.950 . S
C630 C629 1.334 . S
C630 C631 1.287 . S
C631 C630 1.287 . S
C631 C632 1.524 . S
C631 H634 0.999 . S
C632 H602 0.950 1_655 S
C632 C631 1.524 . S
C632 C633 1.415 . S
C633 H603 0.950 . S
C633 C628 1.363 . S
C633 C632 1.415 . S
H634 C631 0.999 . S
H635 C616 0.913 . S
H636 C654 0.951 . S
H637 C656 0.951 . S
H638 C658 0.950 . S
H639 C659 0.950 . S
H640 C661 0.950 . S
H641 C664 0.950 . S
H642 C665 0.950 . S
H643 C667 0.950 . S
H644 C668 0.950 . S
H645 C669 0.951 . S
H646 C671 0.951 . S
H647 C673 0.950 . S
H648 C674 0.950 . S
H649 C676 0.950 . S
H650 C679 0.950 . S
H651 C680 0.950 . S
H652 C682 0.950 . S
H653 C683 0.950 . S
C654 H636 0.951 . S
C654 C655 1.366 . S
C654 C656 1.388 . S
C655 C654 1.366 . S
C655 C659 1.385 . S
C656 H637 0.951 . S
C656 C654 1.388 . S
C656 C657 1.366 1_556 S
C657 C656 1.366 1_554 S
C657 C658 1.414 . S
C657 C660 1.499 . S
C658 H638 0.950 . S
C658 C657 1.414 . S
C658 C659 1.374 1_554 S
C659 H639 0.950 . S
C659 C655 1.385 . S
C659 C658 1.374 1_556 S
C660 C657 1.499 . S
C660 C661 1.373 . S
C660 C662 1.389 . S
C661 H640 0.950 . S
C661 C660 1.373 . S
C661 C677 1.377 . S
C662 C660 1.389 . S
C662 C663 1.524 . S
C662 C676 1.377 . S
C663 C662 1.524 . S
C663 C664 1.397 . S
C663 C668 1.363 . S
C664 H641 0.950 . S
C664 C663 1.397 . S
C664 C665 1.334 . S
C665 H642 0.950 . S
C665 C664 1.334 . S
C665 C666 1.287 . S
C666 C665 1.287 . S
C666 C667 1.524 . S
C666 H685 0.913 . S
C667 H643 0.950 . S
C667 C666 1.524 . S
C667 C668 1.415 . S
C668 H644 0.950 . S
C668 C663 1.363 . S
C668 C667 1.415 . S
C669 H645 0.951 . S
C669 C670 1.366 . S
C669 C671 1.388 . S
C670 C669 1.366 . S
C670 C674 1.385 . S
C671 H646 0.951 . S
C671 C669 1.388 . S
C671 C672 1.366 . S
C672 C671 1.366 . S
C672 C673 1.414 . S
C672 C675 1.499 . S
C673 H647 0.950 . S
C673 C672 1.414 . S
C673 C674 1.374 . S
C674 H648 0.950 . S
C674 C670 1.385 . S
C674 C673 1.374 . S
C675 C672 1.499 . S
C675 C676 1.373 . S
C675 C677 1.389 . S
C676 H649 0.950 . S
C676 C662 1.377 . S
C676 C675 1.373 . S
C677 C661 1.377 . S
C677 C675 1.389 . S
C677 C678 1.524 . S
C678 C677 1.524 . S
C678 C679 1.397 . S
C678 C683 1.363 . S
C679 H650 0.950 . S
C679 C678 1.397 . S
C679 C680 1.334 . S
C680 H651 0.950 . S
C680 C679 1.334 . S
C680 C681 1.287 1_655 S
C681 C680 1.287 1_455 S
C681 C682 1.524 . S
C681 H684 0.999 . S
C682 H652 0.950 . S
C682 C681 1.524 . S
C682 C683 1.415 1_455 S
C683 H653 0.950 . S
C683 C678 1.363 . S
C683 C682 1.415 1_655 S
H684 C681 0.999 . S
H685 C666 0.913 . S
H686 C704 0.951 . S
H687 C706 0.951 . S
H688 C708 0.950 . S
H689 C709 0.950 . S
H690 C711 0.950 . S
H691 C714 0.950 . S
H692 C715 0.950 . S
H693 C717 0.950 1_655 S
H694 C718 0.950 . S
H695 C719 0.951 . S
H696 C721 0.951 . S
H697 C723 0.950 . S
H698 C724 0.950 . S
H699 C726 0.950 . S
H700 C729 0.950 . S
H701 C730 0.950 . S
H702 C732 0.950 . S
H703 C733 0.950 . S
C704 H686 0.951 . S
C704 C705 1.366 . S
C704 C706 1.388 . S
C705 C704 1.366 . S
C705 C709 1.385 . S
C706 H687 0.951 . S
C706 C704 1.388 . S
C706 C707 1.366 . S
C707 C706 1.366 . S
C707 C708 1.414 . S
C707 C710 1.499 . S
C708 H688 0.950 . S
C708 C707 1.414 . S
C708 C709 1.374 . S
C709 H689 0.950 . S
C709 C705 1.385 . S
C709 C708 1.374 . S
C710 C707 1.499 . S
C710 C711 1.373 . S
C710 C712 1.389 . S
C711 H690 0.950 . S
C711 C710 1.373 . S
C711 C727 1.377 . S
C712 C710 1.389 . S
C712 C713 1.524 . S
C712 C726 1.377 . S
C713 C712 1.524 . S
C713 C714 1.397 . S
C713 C718 1.363 . S
C714 H691 0.950 . S
C714 C713 1.397 . S
C714 C715 1.334 1_455 S
C715 H692 0.950 . S
C715 C714 1.334 1_655 S
C715 C716 1.287 . S
C716 C715 1.287 . S
C716 C717 1.524 1_655 S
C716 H735 0.913 . S
C717 H693 0.950 1_455 S
C717 C716 1.524 1_455 S
C717 C718 1.415 . S
C718 H694 0.950 . S
C718 C713 1.363 . S
C718 C717 1.415 . S
C719 H695 0.951 . S
C719 C720 1.366 . S
C719 C721 1.388 . S
C720 C719 1.366 . S
C720 C724 1.385 . S
C721 H696 0.951 . S
C721 C719 1.388 . S
C721 C722 1.366 . S
C722 C721 1.366 . S
C722 C723 1.414 . S
C722 C725 1.499 . S
C723 H697 0.950 . S
C723 C722 1.414 . S
C723 C724 1.374 . S
C724 H698 0.950 . S
C724 C720 1.385 . S
C724 C723 1.374 . S
C725 C722 1.499 . S
C725 C726 1.373 . S
C725 C727 1.389 . S
C726 H699 0.950 . S
C726 C712 1.377 . S
C726 C725 1.373 . S
C727 C711 1.377 . S
C727 C725 1.389 . S
C727 C728 1.524 . S
C728 C727 1.524 . S
C728 C729 1.397 . S
C728 C733 1.363 . S
C729 H700 0.950 . S
C729 C728 1.397 . S
C729 C730 1.334 . S
C730 H701 0.950 . S
C730 C729 1.334 . S
C730 C731 1.287 . S
C731 C730 1.287 . S
C731 C732 1.524 . S
C731 H734 0.999 . S
C732 H702 0.950 . S
C732 C731 1.524 . S
C732 C733 1.415 . S
C733 H703 0.950 . S
C733 C728 1.363 . S
C733 C732 1.415 . S
H734 C731 0.999 . S
H735 C716 0.913 . S
H736 C754 0.951 . S
H737 C756 0.951 . S
H738 C758 0.950 . S
H739 C759 0.950 . S
H740 C761 0.950 . S
H741 C764 0.950 . S
H742 C765 0.950 . S
H743 C767 0.950 . S
H744 C768 0.954 . S
H745 C769 0.951 . S
H746 C771 0.951 . S
H747 C773 0.950 . S
H748 C774 0.950 . S
H749 C776 0.950 . S
H750 C779 0.950 . S
H751 C780 0.950 . S
H752 C782 0.950 . S
H753 C783 0.954 . S
C754 H736 0.951 . S
C754 C755 1.366 . S
C754 C756 1.388 . S
C755 C754 1.366 . S
C755 C759 1.385 . S
C756 H737 0.951 . S
C756 C754 1.388 . S
C756 C757 1.366 . S
C757 C756 1.366 . S
C757 C758 1.414 . S
C757 C760 1.499 . S
C758 H738 0.950 . S
C758 C757 1.414 . S
C758 C759 1.374 . S
C759 H739 0.950 . S
C759 C755 1.385 . S
C759 C758 1.374 . S
C760 C757 1.499 . S
C760 C761 1.373 1_545 S
C760 C762 1.389 . S
C761 H740 0.950 . S
C761 C760 1.373 1_565 S
C761 C777 1.377 1_554 S
C762 C760 1.389 . S
C762 C763 1.524 1_554 S
C762 C776 1.377 1_554 S
C763 C762 1.524 1_556 S
C763 C764 1.397 . S
C763 C768 1.360 1_556 S
C764 H741 0.950 . S
C764 C763 1.397 . S
C764 C765 1.334 . S
C765 H742 0.950 . S
C765 C764 1.334 . S
C765 C766 1.287 . S
C766 C765 1.287 . S
C766 C767 1.524 . S
C766 H785 0.913 . S
C767 H743 0.950 . S
C767 C766 1.524 . S
C767 C768 1.414 1_556 S
C768 H744 0.954 . S
C768 C763 1.360 1_554 S
C768 C767 1.414 1_554 S
C769 H745 0.951 . S
C769 C770 1.366 . S
C769 C771 1.388 . S
C770 C769 1.366 . S
C770 C774 1.385 . S
C771 H746 0.951 . S
C771 C769 1.388 . S
C771 C772 1.366 . S
C772 C771 1.366 . S
C772 C773 1.414 . S
C772 C775 1.499 . S
C773 H747 0.950 . S
C773 C772 1.414 . S
C773 C774 1.374 . S
C774 H748 0.950 . S
C774 C770 1.385 . S
C774 C773 1.374 . S
C775 C772 1.499 . S
C775 C776 1.373 1_565 S
C775 C777 1.389 . S
C776 H749 0.950 . S
C776 C762 1.377 1_556 S
C776 C775 1.373 1_545 S
C777 C761 1.377 1_556 S
C777 C775 1.389 . S
C777 C778 1.524 1_556 S
C778 C777 1.524 1_554 S
C778 C779 1.397 . S
C778 C783 1.360 1_554 S
C779 H750 0.950 . S
C779 C778 1.397 . S
C779 C780 1.334 . S
C780 H751 0.950 . S
C780 C779 1.334 . S
C780 C781 1.287 . S
C781 C780 1.287 . S
C781 C782 1.524 . S
C781 H784 0.999 . S
C782 H752 0.950 . S
C782 C781 1.524 . S
C782 C783 1.414 1_554 S
C783 H753 0.954 . S
C783 C778 1.360 1_556 S
C783 C782 1.414 1_556 S
H784 C781 0.999 . S
H785 C766 0.913 . S
H786 C804 0.951 . S
H787 C806 0.951 . S
H788 C808 0.950 . S
H789 C809 0.950 . S
H790 C811 0.950 . S
H791 C814 0.950 . S
H792 C815 0.950 . S
H793 C817 0.950 . S
H794 C818 0.950 . S
H795 C819 0.951 . S
H796 C821 0.951 . S
H797 C823 0.950 . S
H798 C824 0.950 . S
H799 C826 0.950 . S
H800 C829 0.950 . S
H801 C830 0.950 . S
H802 C832 0.950 . S
H803 C833 0.950 . S
C804 H786 0.951 . S
C804 C805 1.366 . S
C804 C806 1.388 . S
C805 C804 1.366 . S
C805 C809 1.385 . S
C806 H787 0.951 . S
C806 C804 1.388 . S
C806 C807 1.366 . S
C807 C806 1.366 . S
C807 C808 1.414 . S
C807 C810 1.499 . S
C808 H788 0.950 . S
C808 C807 1.414 . S
C808 C809 1.374 . S
C809 H789 0.950 . S
C809 C805 1.385 . S
C809 C808 1.374 . S
C810 C807 1.499 . S
C810 C811 1.373 . S
C810 C812 1.389 . S
C811 H790 0.950 . S
C811 C810 1.373 . S
C811 C827 1.377 . S
C812 C810 1.389 . S
C812 C813 1.524 . S
C812 C826 1.377 . S
C813 C812 1.524 . S
C813 C814 1.397 . S
C813 C818 1.363 . S
C814 H791 0.950 . S
C814 C813 1.397 . S
C814 C815 1.334 . S
C815 H792 0.950 . S
C815 C814 1.334 . S
C815 C816 1.287 . S
C816 C815 1.287 . S
C816 C817 1.524 . S
C816 H835 0.913 . S
C817 H793 0.950 . S
C817 C816 1.524 . S
C817 C818 1.415 . S
C818 H794 0.950 . S
C818 C813 1.363 . S
C818 C817 1.415 . S
C819 H795 0.951 . S
C819 C820 1.366 . S
C819 C821 1.388 . S
C820 C819 1.366 . S
C820 C824 1.385 . S
C821 H796 0.951 . S
C821 C819 1.388 . S
C821 C822 1.366 . S
C822 C821 1.366 . S
C822 C823 1.414 . S
C822 C825 1.499 . S
C823 H797 0.950 . S
C823 C822 1.414 . S
C823 C824 1.374 . S
C824 H798 0.950 . S
C824 C820 1.385 . S
C824 C823 1.374 . S
C825 C822 1.499 . S
C825 C826 1.373 . S
C825 C827 1.389 . S
C826 H799 0.950 . S
C826 C812 1.377 . S
C826 C825 1.373 . S
C827 C811 1.377 . S
C827 C825 1.389 . S
C827 C828 1.524 . S
C828 C827 1.524 . S
C828 C829 1.397 . S
C828 C833 1.363 . S
C829 H800 0.950 . S
C829 C828 1.397 . S
C829 C830 1.334 . S
C830 H801 0.950 . S
C830 C829 1.334 . S
C830 C831 1.287 . S
C831 C830 1.287 . S
C831 C832 1.524 . S
C831 H834 0.999 . S
C832 H802 0.950 . S
C832 C831 1.524 . S
C832 C833 1.415 . S
C833 H803 0.950 . S
C833 C828 1.363 . S
C833 C832 1.415 . S
H834 C831 0.999 . S
H835 C816 0.913 . S
C155 C28 1.006 . S
C170 C6 1.002 1_655 S
C205 C40 1.007 . S
C220 C62 1.002 1_455 S
C255 C74 1.002 1_455 S
C270 C96 1.007 . S
C305 C108 1.002 1_655 S
C320 C130 1.006 . S
C355 C15 1.917 . S
C370 C83 1.917 . S
C405 C117 1.917 . S
C420 C56 1.917 . S
C455 C69 1.968 . S
C470 C1 1.968 . S
C505 C103 1.967 . S
C520 C37 1.967 . S
C555 C22 1.577 . S
C570 C119 1.741 . S
C605 C49 1.577 . S
C620 C85 1.741 . S
C655 C90 1.577 . S
C670 C51 1.741 . S
C705 C124 1.576 . S
C720 C17 1.741 . S
C755 C3 1.358 . S
C770 C71 1.358 . S
C805 C105 1.357 . S
C820 C35 1.357 . S
